# Generated by pormake.
# Topology uli, (4)-cn, num edge types: 1
# Building blocks:
#     Node 0, Type 0, BuildingBlock: AZAVOO_clean_sbu_0, # of connection points: 4
#     Node 1, Type 0, BuildingBlock: AZAVOO_clean_sbu_0, # of connection points: 4
#     Node 2, Type 0, BuildingBlock: AZAVOO_clean_sbu_0, # of connection points: 4
#     Node 3, Type 0, BuildingBlock: AZAVOO_clean_sbu_0, # of connection points: 4
#     Node 4, Type 0, BuildingBlock: AZAVOO_clean_sbu_0, # of connection points: 4
#     Node 5, Type 0, BuildingBlock: AZAVOO_clean_sbu_0, # of connection points: 4
#     Node 6, Type 0, BuildingBlock: AZAVOO_clean_sbu_0, # of connection points: 4
#     Node 7, Type 0, BuildingBlock: AZAVOO_clean_sbu_0, # of connection points: 4
#     Node 8, Type 0, BuildingBlock: AZAVOO_clean_sbu_0, # of connection points: 4
#     Node 9, Type 0, BuildingBlock: AZAVOO_clean_sbu_0, # of connection points: 4
#     Node 10, Type 0, BuildingBlock: AZAVOO_clean_sbu_0, # of connection points: 4
#     Node 11, Type 0, BuildingBlock: AZAVOO_clean_sbu_0, # of connection points: 4
#     Node 12, Type 0, BuildingBlock: AZAVOO_clean_sbu_0, # of connection points: 4
#     Node 13, Type 0, BuildingBlock: AZAVOO_clean_sbu_0, # of connection points: 4
#     Node 14, Type 0, BuildingBlock: AZAVOO_clean_sbu_0, # of connection points: 4
#     Node 15, Type 0, BuildingBlock: AZAVOO_clean_sbu_0, # of connection points: 4
#     Node 16, Type 0, BuildingBlock: AZAVOO_clean_sbu_0, # of connection points: 4
#     Node 17, Type 0, BuildingBlock: AZAVOO_clean_sbu_0, # of connection points: 4
#     Node 18, Type 0, BuildingBlock: AZAVOO_clean_sbu_0, # of connection points: 4
#     Node 19, Type 0, BuildingBlock: AZAVOO_clean_sbu_0, # of connection points: 4
#     Node 20, Type 0, BuildingBlock: AZAVOO_clean_sbu_0, # of connection points: 4
#     Node 21, Type 0, BuildingBlock: AZAVOO_clean_sbu_0, # of connection points: 4
#     Node 22, Type 0, BuildingBlock: AZAVOO_clean_sbu_0, # of connection points: 4
#     Node 23, Type 0, BuildingBlock: AZAVOO_clean_sbu_0, # of connection points: 4
#     Node 24, Type 0, BuildingBlock: AZAVOO_clean_sbu_0, # of connection points: 4
#     Node 25, Type 0, BuildingBlock: AZAVOO_clean_sbu_0, # of connection points: 4
#     Node 26, Type 0, BuildingBlock: AZAVOO_clean_sbu_0, # of connection points: 4
#     Node 27, Type 0, BuildingBlock: AZAVOO_clean_sbu_0, # of connection points: 4
#     Node 28, Type 0, BuildingBlock: AZAVOO_clean_sbu_0, # of connection points: 4
#     Node 29, Type 0, BuildingBlock: AZAVOO_clean_sbu_0, # of connection points: 4
#     Node 30, Type 0, BuildingBlock: AZAVOO_clean_sbu_0, # of connection points: 4
#     Node 31, Type 0, BuildingBlock: AZAVOO_clean_sbu_0, # of connection points: 4
#     Node 32, Type 0, BuildingBlock: AZAVOO_clean_sbu_0, # of connection points: 4
#     Node 33, Type 0, BuildingBlock: AZAVOO_clean_sbu_0, # of connection points: 4
#     Node 34, Type 0, BuildingBlock: AZAVOO_clean_sbu_0, # of connection points: 4
#     Node 35, Type 0, BuildingBlock: AZAVOO_clean_sbu_0, # of connection points: 4
#     Node 36, Type 0, BuildingBlock: AZAVOO_clean_sbu_0, # of connection points: 4
#     Node 37, Type 0, BuildingBlock: AZAVOO_clean_sbu_0, # of connection points: 4
#     Node 38, Type 0, BuildingBlock: AZAVOO_clean_sbu_0, # of connection points: 4
#     Node 39, Type 0, BuildingBlock: AZAVOO_clean_sbu_0, # of connection points: 4
#     Node 40, Type 0, BuildingBlock: AZAVOO_clean_sbu_0, # of connection points: 4
#     Node 41, Type 0, BuildingBlock: AZAVOO_clean_sbu_0, # of connection points: 4
#     Node 42, Type 0, BuildingBlock: AZAVOO_clean_sbu_0, # of connection points: 4
#     Node 43, Type 0, BuildingBlock: AZAVOO_clean_sbu_0, # of connection points: 4
#     Node 44, Type 0, BuildingBlock: AZAVOO_clean_sbu_0, # of connection points: 4
#     Node 45, Type 0, BuildingBlock: AZAVOO_clean_sbu_0, # of connection points: 4
#     Node 46, Type 0, BuildingBlock: AZAVOO_clean_sbu_0, # of connection points: 4
#     Node 47, Type 0, BuildingBlock: AZAVOO_clean_sbu_0, # of connection points: 4
#     Edge 48, Type (0, 0), BuildingBlock: UVAHIK_clean_linker_0, # of connection points: 2
#     Edge 49, Type (0, 0), BuildingBlock: UVAHIK_clean_linker_0, # of connection points: 2
#     Edge 50, Type (0, 0), BuildingBlock: UVAHIK_clean_linker_0, # of connection points: 2
#     Edge 51, Type (0, 0), BuildingBlock: UVAHIK_clean_linker_0, # of connection points: 2
#     Edge 52, Type (0, 0), BuildingBlock: UVAHIK_clean_linker_0, # of connection points: 2
#     Edge 53, Type (0, 0), BuildingBlock: UVAHIK_clean_linker_0, # of connection points: 2
#     Edge 54, Type (0, 0), BuildingBlock: UVAHIK_clean_linker_0, # of connection points: 2
#     Edge 55, Type (0, 0), BuildingBlock: UVAHIK_clean_linker_0, # of connection points: 2
#     Edge 56, Type (0, 0), BuildingBlock: UVAHIK_clean_linker_0, # of connection points: 2
#     Edge 57, Type (0, 0), BuildingBlock: UVAHIK_clean_linker_0, # of connection points: 2
#     Edge 58, Type (0, 0), BuildingBlock: UVAHIK_clean_linker_0, # of connection points: 2
#     Edge 59, Type (0, 0), BuildingBlock: UVAHIK_clean_linker_0, # of connection points: 2
#     Edge 60, Type (0, 0), BuildingBlock: UVAHIK_clean_linker_0, # of connection points: 2
#     Edge 61, Type (0, 0), BuildingBlock: UVAHIK_clean_linker_0, # of connection points: 2
#     Edge 62, Type (0, 0), BuildingBlock: UVAHIK_clean_linker_0, # of connection points: 2
#     Edge 63, Type (0, 0), BuildingBlock: UVAHIK_clean_linker_0, # of connection points: 2
#     Edge 64, Type (0, 0), BuildingBlock: UVAHIK_clean_linker_0, # of connection points: 2
#     Edge 65, Type (0, 0), BuildingBlock: UVAHIK_clean_linker_0, # of connection points: 2
#     Edge 66, Type (0, 0), BuildingBlock: UVAHIK_clean_linker_0, # of connection points: 2
#     Edge 67, Type (0, 0), BuildingBlock: UVAHIK_clean_linker_0, # of connection points: 2
#     Edge 68, Type (0, 0), BuildingBlock: UVAHIK_clean_linker_0, # of connection points: 2
#     Edge 69, Type (0, 0), BuildingBlock: UVAHIK_clean_linker_0, # of connection points: 2
#     Edge 70, Type (0, 0), BuildingBlock: UVAHIK_clean_linker_0, # of connection points: 2
#     Edge 71, Type (0, 0), BuildingBlock: UVAHIK_clean_linker_0, # of connection points: 2
#     Edge 72, Type (0, 0), BuildingBlock: UVAHIK_clean_linker_0, # of connection points: 2
#     Edge 73, Type (0, 0), BuildingBlock: UVAHIK_clean_linker_0, # of connection points: 2
#     Edge 74, Type (0, 0), BuildingBlock: UVAHIK_clean_linker_0, # of connection points: 2
#     Edge 75, Type (0, 0), BuildingBlock: UVAHIK_clean_linker_0, # of connection points: 2
#     Edge 76, Type (0, 0), BuildingBlock: UVAHIK_clean_linker_0, # of connection points: 2
#     Edge 77, Type (0, 0), BuildingBlock: UVAHIK_clean_linker_0, # of connection points: 2
#     Edge 78, Type (0, 0), BuildingBlock: UVAHIK_clean_linker_0, # of connection points: 2
#     Edge 79, Type (0, 0), BuildingBlock: UVAHIK_clean_linker_0, # of connection points: 2
#     Edge 80, Type (0, 0), BuildingBlock: UVAHIK_clean_linker_0, # of connection points: 2
#     Edge 81, Type (0, 0), BuildingBlock: UVAHIK_clean_linker_0, # of connection points: 2
#     Edge 82, Type (0, 0), BuildingBlock: UVAHIK_clean_linker_0, # of connection points: 2
#     Edge 83, Type (0, 0), BuildingBlock: UVAHIK_clean_linker_0, # of connection points: 2
#     Edge 84, Type (0, 0), BuildingBlock: UVAHIK_clean_linker_0, # of connection points: 2
#     Edge 85, Type (0, 0), BuildingBlock: UVAHIK_clean_linker_0, # of connection points: 2
#     Edge 86, Type (0, 0), BuildingBlock: UVAHIK_clean_linker_0, # of connection points: 2
#     Edge 87, Type (0, 0), BuildingBlock: UVAHIK_clean_linker_0, # of connection points: 2
#     Edge 88, Type (0, 0), BuildingBlock: UVAHIK_clean_linker_0, # of connection points: 2
#     Edge 89, Type (0, 0), BuildingBlock: UVAHIK_clean_linker_0, # of connection points: 2
#     Edge 90, Type (0, 0), BuildingBlock: UVAHIK_clean_linker_0, # of connection points: 2
#     Edge 91, Type (0, 0), BuildingBlock: UVAHIK_clean_linker_0, # of connection points: 2
#     Edge 92, Type (0, 0), BuildingBlock: UVAHIK_clean_linker_0, # of connection points: 2
#     Edge 93, Type (0, 0), BuildingBlock: UVAHIK_clean_linker_0, # of connection points: 2
#     Edge 94, Type (0, 0), BuildingBlock: UVAHIK_clean_linker_0, # of connection points: 2
#     Edge 95, Type (0, 0), BuildingBlock: UVAHIK_clean_linker_0, # of connection points: 2
#     Edge 96, Type (0, 0), BuildingBlock: UVAHIK_clean_linker_0, # of connection points: 2
#     Edge 97, Type (0, 0), BuildingBlock: UVAHIK_clean_linker_0, # of connection points: 2
#     Edge 98, Type (0, 0), BuildingBlock: UVAHIK_clean_linker_0, # of connection points: 2
#     Edge 99, Type (0, 0), BuildingBlock: UVAHIK_clean_linker_0, # of connection points: 2
#     Edge 100, Type (0, 0), BuildingBlock: UVAHIK_clean_linker_0, # of connection points: 2
#     Edge 101, Type (0, 0), BuildingBlock: UVAHIK_clean_linker_0, # of connection points: 2
#     Edge 102, Type (0, 0), BuildingBlock: UVAHIK_clean_linker_0, # of connection points: 2
#     Edge 103, Type (0, 0), BuildingBlock: UVAHIK_clean_linker_0, # of connection points: 2
#     Edge 104, Type (0, 0), BuildingBlock: UVAHIK_clean_linker_0, # of connection points: 2
#     Edge 105, Type (0, 0), BuildingBlock: UVAHIK_clean_linker_0, # of connection points: 2
#     Edge 106, Type (0, 0), BuildingBlock: UVAHIK_clean_linker_0, # of connection points: 2
#     Edge 107, Type (0, 0), BuildingBlock: UVAHIK_clean_linker_0, # of connection points: 2
#     Edge 108, Type (0, 0), BuildingBlock: UVAHIK_clean_linker_0, # of connection points: 2
#     Edge 109, Type (0, 0), BuildingBlock: UVAHIK_clean_linker_0, # of connection points: 2
#     Edge 110, Type (0, 0), BuildingBlock: UVAHIK_clean_linker_0, # of connection points: 2
#     Edge 111, Type (0, 0), BuildingBlock: UVAHIK_clean_linker_0, # of connection points: 2
#     Edge 112, Type (0, 0), BuildingBlock: UVAHIK_clean_linker_0, # of connection points: 2
#     Edge 113, Type (0, 0), BuildingBlock: UVAHIK_clean_linker_0, # of connection points: 2
#     Edge 114, Type (0, 0), BuildingBlock: UVAHIK_clean_linker_0, # of connection points: 2
#     Edge 115, Type (0, 0), BuildingBlock: UVAHIK_clean_linker_0, # of connection points: 2
#     Edge 116, Type (0, 0), BuildingBlock: UVAHIK_clean_linker_0, # of connection points: 2
#     Edge 117, Type (0, 0), BuildingBlock: UVAHIK_clean_linker_0, # of connection points: 2
#     Edge 118, Type (0, 0), BuildingBlock: UVAHIK_clean_linker_0, # of connection points: 2
#     Edge 119, Type (0, 0), BuildingBlock: UVAHIK_clean_linker_0, # of connection points: 2
#     Edge 120, Type (0, 0), BuildingBlock: UVAHIK_clean_linker_0, # of connection points: 2
#     Edge 121, Type (0, 0), BuildingBlock: UVAHIK_clean_linker_0, # of connection points: 2
#     Edge 122, Type (0, 0), BuildingBlock: UVAHIK_clean_linker_0, # of connection points: 2
#     Edge 123, Type (0, 0), BuildingBlock: UVAHIK_clean_linker_0, # of connection points: 2
#     Edge 124, Type (0, 0), BuildingBlock: UVAHIK_clean_linker_0, # of connection points: 2
#     Edge 125, Type (0, 0), BuildingBlock: UVAHIK_clean_linker_0, # of connection points: 2
#     Edge 126, Type (0, 0), BuildingBlock: UVAHIK_clean_linker_0, # of connection points: 2
#     Edge 127, Type (0, 0), BuildingBlock: UVAHIK_clean_linker_0, # of connection points: 2
#     Edge 128, Type (0, 0), BuildingBlock: UVAHIK_clean_linker_0, # of connection points: 2
#     Edge 129, Type (0, 0), BuildingBlock: UVAHIK_clean_linker_0, # of connection points: 2
#     Edge 130, Type (0, 0), BuildingBlock: UVAHIK_clean_linker_0, # of connection points: 2
#     Edge 131, Type (0, 0), BuildingBlock: UVAHIK_clean_linker_0, # of connection points: 2
#     Edge 132, Type (0, 0), BuildingBlock: UVAHIK_clean_linker_0, # of connection points: 2
#     Edge 133, Type (0, 0), BuildingBlock: UVAHIK_clean_linker_0, # of connection points: 2
#     Edge 134, Type (0, 0), BuildingBlock: UVAHIK_clean_linker_0, # of connection points: 2
#     Edge 135, Type (0, 0), BuildingBlock: UVAHIK_clean_linker_0, # of connection points: 2
#     Edge 136, Type (0, 0), BuildingBlock: UVAHIK_clean_linker_0, # of connection points: 2
#     Edge 137, Type (0, 0), BuildingBlock: UVAHIK_clean_linker_0, # of connection points: 2
#     Edge 138, Type (0, 0), BuildingBlock: UVAHIK_clean_linker_0, # of connection points: 2
#     Edge 139, Type (0, 0), BuildingBlock: UVAHIK_clean_linker_0, # of connection points: 2
#     Edge 140, Type (0, 0), BuildingBlock: UVAHIK_clean_linker_0, # of connection points: 2
#     Edge 141, Type (0, 0), BuildingBlock: UVAHIK_clean_linker_0, # of connection points: 2
#     Edge 142, Type (0, 0), BuildingBlock: UVAHIK_clean_linker_0, # of connection points: 2
#     Edge 143, Type (0, 0), BuildingBlock: UVAHIK_clean_linker_0, # of connection points: 2
# Relax obj value: 0.392
# Max RMSD: 0.222
# Mean RMSD: 0.222
data_MOF--net-uli--node1-AZAVOO_clean_sbu_0--edge1-UVAHIK_clean_linker_0
_symmetry_space_group_name_H-M    P1
_symmetry_Int_Tables_number       1
_symmetry_cell_setting            triclinic
loop_
_symmetry_equiv_pos_as_xyz
'x, y, z'
_cell_length_a     86.420663
_cell_length_b     86.295382
_cell_length_c     86.351532
_cell_angle_alpha  90.010697
_cell_angle_beta   89.99214
_cell_angle_gamma 89.977077
loop_
_atom_site_label
_atom_site_type_symbol
_atom_site_fract_x
_atom_site_fract_y
_atom_site_fract_z
_atom_type_partial_charge
Mg0 Mg 0.09163 0.27456 0.17494 0.0
O1 O 0.10218 0.25299 0.18625 0.0
O2 O 0.12796 0.25372 0.18432 0.0
Mg3 Mg 0.13392 0.27643 0.17211 0.0
C4 C 0.1155 0.24708 0.18861 0.0
C5 C 0.0576 0.26225 0.17956 0.0
O6 O 0.05833 0.26046 0.16447 0.0
O7 O 0.09847 0.28939 0.19586 0.0
O8 O 0.12425 0.28916 0.19306 0.0
O9 O 0.09248 0.26154 0.1524 0.0
O10 O 0.11102 0.27694 0.16096 0.0
C11 C 0.11204 0.29306 0.20039 0.0
C12 C 0.10638 0.26696 0.15096 0.0
O13 O 0.06903 0.26814 0.18666 0.0
Mg14 Mg 0.72404 0.09314 0.17484 0.0
O15 O 0.74403 0.10551 0.18691 0.0
O16 O 0.74367 0.13063 0.18076 0.0
Mg17 Mg 0.72177 0.13475 0.16633 0.0
C18 C 0.74983 0.11906 0.18761 0.0
C19 C 0.73329 0.05909 0.1823 0.0
O20 O 0.73167 0.05812 0.1672 0.0
O21 O 0.7074 0.10214 0.1935 0.0
O22 O 0.70653 0.12715 0.18649 0.0
O23 O 0.73913 0.09181 0.15366 0.0
O24 O 0.72254 0.11071 0.15831 0.0
C25 C 0.70234 0.11596 0.19518 0.0
C26 C 0.73362 0.10528 0.15004 0.0
O27 O 0.73025 0.07184 0.189 0.0
Mg28 Mg 0.90466 0.72323 0.17504 0.0
O29 O 0.89471 0.74445 0.18742 0.0
O30 O 0.869 0.74489 0.18437 0.0
Mg31 Mg 0.86223 0.72268 0.17152 0.0
C32 C 0.88155 0.7508 0.18941 0.0
C33 C 0.93755 0.73734 0.18018 0.0
O34 O 0.93473 0.74218 0.16604 0.0
O35 O 0.89705 0.70742 0.19506 0.0
O36 O 0.87137 0.70775 0.19126 0.0
O37 O 0.90394 0.73716 0.15287 0.0
O38 O 0.8852 0.72177 0.16079 0.0
C39 C 0.88333 0.70319 0.19861 0.0
C40 C 0.89002 0.73192 0.1511 0.0
O41 O 0.92767 0.72872 0.18687 0.0
Mg42 Mg 0.27371 0.90535 0.17553 0.0
O43 O 0.25308 0.89427 0.18822 0.0
O44 O 0.25392 0.86865 0.1847 0.0
Mg45 Mg 0.27629 0.86303 0.17171 0.0
C46 C 0.24734 0.88076 0.19007 0.0
C47 C 0.25942 0.93819 0.18031 0.0
O48 O 0.2552 0.93541 0.16596 0.0
O49 O 0.29001 0.89844 0.19537 0.0
O50 O 0.29047 0.87272 0.19174 0.0
O51 O 0.2595 0.90428 0.15358 0.0
O52 O 0.27572 0.88606 0.1611 0.0
C53 C 0.29461 0.88486 0.19906 0.0
C54 C 0.2652 0.89055 0.15163 0.0
O55 O 0.26763 0.92824 0.18738 0.0
Mg56 Mg 0.09202 0.72296 0.82186 0.0
O57 O 0.10213 0.74441 0.80993 0.0
O58 O 0.12764 0.74554 0.8143 0.0
Mg59 Mg 0.13429 0.72264 0.82575 0.0
C60 C 0.11517 0.75123 0.80884 0.0
C61 C 0.05905 0.73636 0.81734 0.0
O62 O 0.0617 0.74012 0.83184 0.0
O63 O 0.09972 0.7079 0.80152 0.0
O64 O 0.12544 0.70941 0.80455 0.0
O65 O 0.09227 0.7366 0.84408 0.0
O66 O 0.11126 0.72133 0.83629 0.0
C67 C 0.1135 0.70485 0.79716 0.0
C68 C 0.10622 0.73145 0.84594 0.0
O69 O 0.06915 0.72856 0.81004 0.0
Mg70 Mg 0.27449 0.09262 0.82009 0.0
O71 O 0.25323 0.10355 0.80829 0.0
O72 O 0.25155 0.12869 0.81459 0.0
Mg73 Mg 0.27445 0.13534 0.82589 0.0
C74 C 0.2462 0.11656 0.80805 0.0
C75 C 0.25938 0.06014 0.81582 0.0
O76 O 0.25505 0.06332 0.83005 0.0
O77 O 0.28947 0.09958 0.79884 0.0
O78 O 0.28601 0.12375 0.80624 0.0
O79 O 0.26114 0.09355 0.84289 0.0
O80 O 0.27668 0.11205 0.83515 0.0
C81 C 0.29141 0.11406 0.79666 0.0
C82 C 0.26669 0.1073 0.84492 0.0
O83 O 0.26794 0.06973 0.80865 0.0
Mg84 Mg 0.90346 0.27367 0.82075 0.0
O85 O 0.89256 0.2523 0.80928 0.0
O86 O 0.86717 0.25198 0.81417 0.0
Mg87 Mg 0.86133 0.27503 0.82572 0.0
C88 C 0.87931 0.24583 0.80843 0.0
C89 C 0.9377 0.26253 0.81586 0.0
O90 O 0.93739 0.26243 0.83107 0.0
O91 O 0.89549 0.28877 0.80044 0.0
O92 O 0.86984 0.28788 0.8042 0.0
O93 O 0.90354 0.26046 0.84324 0.0
O94 O 0.88467 0.27596 0.83568 0.0
C95 C 0.88166 0.29212 0.79643 0.0
C96 C 0.88977 0.26596 0.84542 0.0
O97 O 0.92586 0.26719 0.80848 0.0
Mg98 Mg 0.72353 0.9056 0.82301 0.0
O99 O 0.74454 0.89452 0.81131 0.0
O100 O 0.74413 0.86889 0.81513 0.0
Mg101 Mg 0.72233 0.86348 0.82912 0.0
C102 C 0.75039 0.88107 0.80958 0.0
C103 C 0.7351 0.93944 0.81685 0.0
O104 O 0.73639 0.93905 0.83201 0.0
O105 O 0.70771 0.89681 0.80336 0.0
O106 O 0.7083 0.87129 0.80827 0.0
O107 O 0.73784 0.90631 0.84474 0.0
O108 O 0.72208 0.88716 0.83844 0.0
C109 C 0.70385 0.88284 0.80022 0.0
C110 C 0.73262 0.89251 0.84743 0.0
O111 O 0.72948 0.92776 0.80986 0.0
Mg112 Mg 0.17363 0.09238 0.27397 0.0
O113 O 0.18583 0.10243 0.25275 0.0
O114 O 0.18304 0.12821 0.25274 0.0
Mg115 Mg 0.16867 0.13467 0.27404 0.0
C116 C 0.18813 0.1157 0.24672 0.0
C117 C 0.1792 0.05902 0.26171 0.0
O118 O 0.16458 0.06108 0.25807 0.0
O119 O 0.19315 0.10104 0.2899 0.0
O120 O 0.18846 0.12661 0.28951 0.0
O121 O 0.15219 0.09173 0.25935 0.0
O122 O 0.1586 0.1113 0.27457 0.0
C123 C 0.19622 0.11491 0.29411 0.0
C124 C 0.1497 0.10575 0.26404 0.0
O125 O 0.18624 0.06962 0.26911 0.0
Mg126 Mg 0.90568 0.17336 0.27344 0.0
O127 O 0.89506 0.18629 0.2528 0.0
O128 O 0.86954 0.18203 0.25213 0.0
Mg129 Mg 0.86359 0.16796 0.27384 0.0
C130 C 0.88183 0.18795 0.2465 0.0
C131 C 0.93946 0.17951 0.26232 0.0
O132 O 0.93874 0.16447 0.26011 0.0
O133 O 0.89735 0.19225 0.29011 0.0
O134 O 0.87179 0.18786 0.28926 0.0
O135 O 0.9062 0.15234 0.2582 0.0
O136 O 0.887 0.15805 0.27413 0.0
C137 C 0.8835 0.19537 0.29421 0.0
C138 C 0.89236 0.14951 0.2632 0.0
O139 O 0.92795 0.18642 0.26835 0.0
Mg140 Mg 0.82187 0.90513 0.27382 0.0
O141 O 0.81045 0.89428 0.25251 0.0
O142 O 0.81373 0.86856 0.25275 0.0
Mg143 Mg 0.82625 0.86287 0.27538 0.0
C144 C 0.80871 0.88094 0.24645 0.0
C145 C 0.81655 0.9396 0.2633 0.0
O146 O 0.83174 0.93985 0.26363 0.0
O147 O 0.80152 0.89748 0.28893 0.0
O148 O 0.80516 0.87176 0.28849 0.0
O149 O 0.84407 0.90502 0.26033 0.0
O150 O 0.83652 0.88617 0.27594 0.0
C151 C 0.79753 0.88372 0.29259 0.0
C152 C 0.84609 0.89116 0.26572 0.0
O153 O 0.80948 0.92739 0.26745 0.0
Mg154 Mg 0.09168 0.82379 0.274 0.0
O155 O 0.10237 0.81111 0.25314 0.0
O156 O 0.12748 0.81729 0.25154 0.0
Mg157 Mg 0.13374 0.83025 0.27371 0.0
C158 C 0.11544 0.81055 0.24628 0.0
C159 C 0.05952 0.81721 0.25975 0.0
O160 O 0.06267 0.83112 0.25446 0.0
O161 O 0.10077 0.80464 0.29003 0.0
O162 O 0.12624 0.80918 0.28786 0.0
O163 O 0.09077 0.84516 0.25909 0.0
O164 O 0.1102 0.8395 0.27465 0.0
C165 C 0.11487 0.80129 0.29302 0.0
C166 C 0.1046 0.84813 0.26394 0.0
O167 O 0.06904 0.81079 0.26898 0.0
Mg168 Mg 0.1738 0.9056 0.72249 0.0
O169 O 0.18538 0.89616 0.74455 0.0
O170 O 0.1841 0.87027 0.74421 0.0
Mg171 Mg 0.17178 0.8631 0.72198 0.0
C172 C 0.18811 0.88296 0.75063 0.0
C173 C 0.17916 0.93632 0.73969 0.0
O174 O 0.16745 0.93034 0.74734 0.0
O175 O 0.1949 0.89853 0.70797 0.0
O176 O 0.19239 0.87267 0.70866 0.0
O177 O 0.15123 0.90478 0.73533 0.0
O178 O 0.16028 0.88576 0.72077 0.0
C179 C 0.19955 0.8849 0.7045 0.0
C180 C 0.15014 0.89063 0.73049 0.0
O181 O 0.18445 0.92908 0.72803 0.0
Mg182 Mg 0.09286 0.17621 0.7236 0.0
O183 O 0.10488 0.18769 0.74422 0.0
O184 O 0.13003 0.18164 0.74415 0.0
Mg185 Mg 0.13464 0.1691 0.72129 0.0
C186 C 0.11829 0.18812 0.75036 0.0
C187 C 0.05858 0.18282 0.73315 0.0
O188 O 0.05762 0.16779 0.7309 0.0
O189 O 0.10134 0.1958 0.708 0.0
O190 O 0.12677 0.19057 0.70788 0.0
O191 O 0.09194 0.15442 0.73764 0.0
O192 O 0.11087 0.16023 0.72142 0.0
C193 C 0.11521 0.19889 0.70395 0.0
C194 C 0.10555 0.15138 0.73213 0.0
O195 O 0.0713 0.18967 0.7304 0.0
Mg196 Mg 0.82117 0.09411 0.72372 0.0
O197 O 0.81067 0.10533 0.74529 0.0
O198 O 0.81689 0.13043 0.74636 0.0
Mg199 Mg 0.83098 0.13553 0.72451 0.0
C200 C 0.81018 0.11851 0.75195 0.0
C201 C 0.81303 0.05977 0.73143 0.0
O202 O 0.82795 0.05839 0.72883 0.0
O203 O 0.80191 0.10509 0.70883 0.0
O204 O 0.80937 0.12982 0.71074 0.0
O205 O 0.84287 0.09087 0.73759 0.0
O206 O 0.83823 0.11122 0.72278 0.0
C207 C 0.80001 0.1195 0.70585 0.0
C208 C 0.84673 0.10462 0.73303 0.0
O209 O 0.8066 0.07286 0.72936 0.0
Mg210 Mg 0.90632 0.82118 0.72126 0.0
O211 O 0.89489 0.80818 0.742 0.0
O212 O 0.86879 0.80932 0.74143 0.0
Mg213 Mg 0.8611 0.82141 0.71901 0.0
C214 C 0.88155 0.80519 0.74783 0.0
C215 C 0.93692 0.81794 0.74006 0.0
O216 O 0.93054 0.82957 0.74754 0.0
O217 O 0.90339 0.79961 0.70496 0.0
O218 O 0.88259 0.81132 0.71091 0.0
O219 O 0.90222 0.84337 0.73426 0.0
O220 O 0.88443 0.8335 0.71879 0.0
C221 C 0.88884 0.80037 0.70367 0.0
C222 C 0.88829 0.84384 0.72878 0.0
O223 O 0.92998 0.81227 0.72842 0.0
Mg224 Mg 0.27368 0.17563 0.09295 0.0
O225 O 0.25221 0.18697 0.10348 0.0
O226 O 0.25284 0.18483 0.12929 0.0
Mg227 Mg 0.27534 0.17224 0.13529 0.0
C228 C 0.24632 0.18925 0.1168 0.0
C229 C 0.26316 0.18058 0.0582 0.0
O230 O 0.26372 0.16537 0.0578 0.0
O231 O 0.28861 0.19635 0.10027 0.0
O232 O 0.28866 0.19298 0.12602 0.0
O233 O 0.26062 0.15309 0.09354 0.0
O234 O 0.27598 0.16142 0.11221 0.0
C235 C 0.29258 0.20046 0.11391 0.0
C236 C 0.26602 0.15148 0.10744 0.0
O237 O 0.26715 0.18762 0.07047 0.0
Mg238 Mg 0.27408 0.82256 0.90447 0.0
O239 O 0.25234 0.81064 0.89499 0.0
O240 O 0.25088 0.81429 0.86936 0.0
Mg241 Mg 0.2735 0.82579 0.862 0.0
C242 C 0.24537 0.80917 0.88206 0.0
C243 C 0.25917 0.81751 0.9369 0.0
O244 O 0.25333 0.83103 0.93306 0.0
O245 O 0.2889 0.80195 0.89658 0.0
O246 O 0.28685 0.80475 0.87084 0.0
O247 O 0.26083 0.84515 0.904 0.0
O248 O 0.27545 0.83665 0.88487 0.0
C249 C 0.29168 0.79746 0.88275 0.0
C250 C 0.26571 0.84666 0.88991 0.0
O251 O 0.26878 0.81108 0.92778 0.0
Mg252 Mg 0.17399 0.2738 0.90563 0.0
O253 O 0.18601 0.25296 0.89434 0.0
O254 O 0.18261 0.25375 0.86868 0.0
Mg255 Mg 0.16841 0.27557 0.86357 0.0
C256 C 0.18799 0.2473 0.88084 0.0
C257 C 0.1802 0.26352 0.9399 0.0
O258 O 0.165 0.26382 0.94031 0.0
O259 O 0.19339 0.2901 0.89755 0.0
O260 O 0.18876 0.29007 0.87201 0.0
O261 O 0.15265 0.25919 0.90614 0.0
O262 O 0.15861 0.27525 0.88709 0.0
C263 C 0.19654 0.29444 0.88376 0.0
C264 C 0.14992 0.26437 0.89234 0.0
O265 O 0.18711 0.26772 0.92761 0.0
Mg266 Mg 0.7233 0.17459 0.9046 0.0
O267 O 0.74485 0.18624 0.89466 0.0
O268 O 0.74672 0.18102 0.86936 0.0
Mg269 Mg 0.72592 0.16585 0.863 0.0
C270 C 0.75177 0.18742 0.88169 0.0
C271 C 0.73217 0.18192 0.93863 0.0
O272 O 0.73291 0.16671 0.93868 0.0
O273 O 0.70761 0.19345 0.89361 0.0
O274 O 0.71035 0.186 0.86901 0.0
O275 O 0.7381 0.15325 0.90741 0.0
O276 O 0.72353 0.15802 0.88698 0.0
C277 C 0.70452 0.19497 0.87918 0.0
C278 C 0.73387 0.14963 0.8935 0.0
O279 O 0.72758 0.18879 0.92644 0.0
Mg280 Mg 0.8209 0.72305 0.90428 0.0
O281 O 0.80876 0.74439 0.89407 0.0
O282 O 0.81255 0.74521 0.86844 0.0
Mg283 Mg 0.82336 0.72198 0.86188 0.0
C284 C 0.8074 0.75108 0.88097 0.0
C285 C 0.81702 0.7356 0.9384 0.0
O286 O 0.83205 0.73751 0.93716 0.0
O287 O 0.80019 0.70787 0.89769 0.0
O288 O 0.80238 0.70933 0.87189 0.0
O289 O 0.84323 0.73646 0.90301 0.0
O290 O 0.83477 0.72097 0.88453 0.0
C291 C 0.7953 0.70486 0.88407 0.0
C292 C 0.84464 0.7311 0.88907 0.0
O293 O 0.80964 0.7294 0.92728 0.0
Mg294 Mg 0.72328 0.82291 0.09259 0.0
O295 O 0.74445 0.81179 0.10382 0.0
O296 O 0.74385 0.81505 0.12949 0.0
Mg297 Mg 0.72153 0.82832 0.13478 0.0
C298 C 0.75032 0.80995 0.11722 0.0
C299 C 0.73223 0.81624 0.05746 0.0
O300 O 0.72892 0.83099 0.05567 0.0
O301 O 0.70788 0.80268 0.1009 0.0
O302 O 0.70819 0.80727 0.12646 0.0
O303 O 0.73685 0.84521 0.09243 0.0
O304 O 0.72107 0.83804 0.11122 0.0
C305 C 0.70402 0.79925 0.11479 0.0
C306 C 0.73136 0.8475 0.1062 0.0
O307 O 0.73028 0.80997 0.07064 0.0
Mg308 Mg 0.17352 0.72341 0.09139 0.0
O309 O 0.18557 0.7448 0.10148 0.0
O310 O 0.18387 0.7441 0.12733 0.0
Mg311 Mg 0.17022 0.72233 0.13386 0.0
C312 C 0.18832 0.75055 0.1148 0.0
C313 C 0.17906 0.73873 0.05925 0.0
O314 O 0.16559 0.74469 0.06304 0.0
O315 O 0.19379 0.70798 0.09888 0.0
O316 O 0.19006 0.70779 0.1246 0.0
O317 O 0.15142 0.73715 0.09205 0.0
O318 O 0.15937 0.72182 0.1109 0.0
C319 C 0.19747 0.70363 0.11253 0.0
C320 C 0.14975 0.73204 0.10605 0.0
O321 O 0.18528 0.72892 0.0683 0.0
Mg322 Mg 0.82094 0.27465 0.09225 0.0
O323 O 0.8087 0.25355 0.10288 0.0
O324 O 0.81313 0.25304 0.12842 0.0
Mg325 Mg 0.82453 0.2761 0.13459 0.0
C326 C 0.80755 0.2471 0.11611 0.0
C327 C 0.8163 0.26065 0.05907 0.0
O328 O 0.83083 0.2568 0.06134 0.0
O329 O 0.80058 0.29021 0.09929 0.0
O330 O 0.80356 0.289 0.12504 0.0
O331 O 0.8431 0.26081 0.09322 0.0
O332 O 0.83524 0.27669 0.11163 0.0
C333 C 0.79621 0.29348 0.11304 0.0
C334 C 0.84486 0.26634 0.10704 0.0
O335 O 0.80928 0.26847 0.06938 0.0
Mg336 Mg 0.59285 0.77261 0.67477 0.0
O337 O 0.60367 0.75163 0.68686 0.0
O338 O 0.6289 0.75048 0.68117 0.0
Mg339 Mg 0.63457 0.77227 0.66704 0.0
C340 C 0.61683 0.74503 0.68769 0.0
C341 C 0.55876 0.76365 0.6815 0.0
O342 O 0.5587 0.76356 0.66629 0.0
O343 O 0.60258 0.7887 0.69355 0.0
O344 O 0.62776 0.78799 0.68731 0.0
O345 O 0.59081 0.75776 0.65356 0.0
O346 O 0.61068 0.77311 0.65846 0.0
C347 C 0.61661 0.79283 0.69572 0.0
C348 C 0.60457 0.7625 0.65004 0.0
O349 O 0.571 0.76774 0.68857 0.0
Mg350 Mg 0.22374 0.59251 0.67474 0.0
O351 O 0.24477 0.60361 0.68643 0.0
O352 O 0.2449 0.62915 0.68213 0.0
Mg353 Mg 0.22298 0.63455 0.66842 0.0
C354 C 0.2509 0.61697 0.68797 0.0
C355 C 0.23393 0.55831 0.68128 0.0
O356 O 0.23401 0.55797 0.66607 0.0
O357 O 0.20822 0.60137 0.69433 0.0
O358 O 0.2094 0.62691 0.68972 0.0
O359 O 0.238 0.59127 0.6532 0.0
O360 O 0.2225 0.61084 0.65905 0.0
C361 C 0.2049 0.61538 0.69778 0.0
C362 C 0.2331 0.60516 0.65029 0.0
O363 O 0.22953 0.57057 0.68814 0.0
Mg364 Mg 0.40408 0.22356 0.67606 0.0
O365 O 0.3946 0.2457 0.68782 0.0
O366 O 0.36895 0.24657 0.68433 0.0
Mg367 Mg 0.36166 0.22338 0.6741 0.0
C368 C 0.38155 0.25252 0.68919 0.0
C369 C 0.43465 0.24094 0.68109 0.0
O370 O 0.42824 0.24883 0.66977 0.0
O371 O 0.39737 0.20943 0.69734 0.0
O372 O 0.37158 0.21118 0.69535 0.0
O373 O 0.40303 0.236 0.65316 0.0
O374 O 0.38416 0.22162 0.6626 0.0
C375 C 0.38377 0.20681 0.70244 0.0
C376 C 0.38892 0.23108 0.65217 0.0
O377 O 0.42768 0.22911 0.68633 0.0
Mg378 Mg 0.77298 0.4052 0.67497 0.0
O379 O 0.75136 0.39564 0.68689 0.0
O380 O 0.75164 0.36975 0.68566 0.0
Mg381 Mg 0.77356 0.36268 0.67266 0.0
C382 C 0.74535 0.38247 0.68975 0.0
C383 C 0.75908 0.43842 0.67987 0.0
O384 O 0.75427 0.43578 0.66568 0.0
O385 O 0.78826 0.39787 0.6955 0.0
O386 O 0.78777 0.37204 0.69276 0.0
O387 O 0.75958 0.40429 0.65255 0.0
O388 O 0.7745 0.38544 0.66123 0.0
C389 C 0.7921 0.38425 0.69985 0.0
C390 C 0.76462 0.39022 0.65122 0.0
O391 O 0.76754 0.42837 0.68651 0.0
Mg392 Mg 0.59197 0.22402 0.32303 0.0
O393 O 0.60377 0.24465 0.31108 0.0
O394 O 0.62869 0.24549 0.31785 0.0
Mg395 Mg 0.63356 0.22344 0.33165 0.0
C396 C 0.61704 0.25114 0.31073 0.0
C397 C 0.55869 0.23499 0.31579 0.0
O398 O 0.55912 0.23618 0.33096 0.0
O399 O 0.60165 0.20778 0.30439 0.0
O400 O 0.62686 0.20945 0.31031 0.0
O401 O 0.59007 0.23902 0.34416 0.0
O402 O 0.60951 0.22303 0.33965 0.0
C403 C 0.61585 0.2045 0.30181 0.0
C404 C 0.60367 0.23396 0.34786 0.0
O405 O 0.5704 0.22953 0.30876 0.0
Mg406 Mg 0.77193 0.59274 0.32269 0.0
O407 O 0.75193 0.60488 0.31039 0.0
O408 O 0.75167 0.6299 0.3169 0.0
Mg409 Mg 0.77287 0.63426 0.33228 0.0
C410 C 0.74591 0.61835 0.30968 0.0
C411 C 0.7612 0.5594 0.31495 0.0
O412 O 0.75983 0.55963 0.3301 0.0
O413 O 0.78888 0.6026 0.30455 0.0
O414 O 0.78879 0.62731 0.31252 0.0
O415 O 0.75633 0.5908 0.34351 0.0
O416 O 0.77263 0.61006 0.33967 0.0
C417 C 0.79367 0.6166 0.30357 0.0
C418 C 0.76151 0.60425 0.34758 0.0
O419 O 0.76659 0.57129 0.30813 0.0
Mg420 Mg 0.40391 0.77307 0.32342 0.0
O421 O 0.3939 0.75182 0.31117 0.0
O422 O 0.36872 0.74967 0.31684 0.0
Mg423 Mg 0.36227 0.7705 0.33198 0.0
C424 C 0.38096 0.74483 0.31015 0.0
C425 C 0.43758 0.76323 0.31627 0.0
O426 O 0.4368 0.7609 0.33128 0.0
O427 O 0.39312 0.78915 0.30483 0.0
O428 O 0.36846 0.78661 0.3122 0.0
O429 O 0.40649 0.75791 0.34457 0.0
O430 O 0.38618 0.77265 0.33995 0.0
C431 C 0.37875 0.79254 0.30343 0.0
C432 C 0.39263 0.7622 0.34825 0.0
O433 O 0.42597 0.76911 0.30938 0.0
Mg434 Mg 0.22227 0.40396 0.32142 0.0
O435 O 0.24383 0.39306 0.3106 0.0
O436 O 0.24596 0.36817 0.3175 0.0
Mg437 Mg 0.22297 0.36201 0.32909 0.0
C438 C 0.25113 0.38023 0.3107 0.0
C439 C 0.23265 0.4382 0.316 0.0
O440 O 0.23151 0.43826 0.33117 0.0
O441 O 0.20804 0.39443 0.30085 0.0
O442 O 0.21072 0.36949 0.30723 0.0
O443 O 0.23533 0.40517 0.34415 0.0
O444 O 0.22029 0.38576 0.33726 0.0
C445 C 0.20586 0.38002 0.29809 0.0
C446 C 0.23008 0.39139 0.34685 0.0
O447 O 0.22877 0.42608 0.30857 0.0
Mg448 Mg 0.67445 0.59323 0.77499 0.0
O449 O 0.68455 0.60256 0.75226 0.0
O450 O 0.68047 0.62814 0.75086 0.0
Mg451 Mg 0.66844 0.63548 0.77322 0.0
C452 C 0.68561 0.61549 0.74522 0.0
C453 C 0.68144 0.56274 0.75814 0.0
O454 O 0.6695 0.56834 0.75058 0.0
O455 O 0.69564 0.60292 0.78823 0.0
O456 O 0.69022 0.62815 0.78578 0.0
O457 O 0.65124 0.59202 0.76291 0.0
O458 O 0.65938 0.61207 0.77645 0.0
C459 C 0.69896 0.61721 0.79047 0.0
C460 C 0.64927 0.60619 0.76735 0.0
O461 O 0.68655 0.57019 0.76977 0.0
Mg462 Mg 0.40466 0.67556 0.77263 0.0
O463 O 0.39269 0.68797 0.75245 0.0
O464 O 0.36774 0.68116 0.7518 0.0
Mg465 Mg 0.36307 0.66746 0.77399 0.0
C466 C 0.37936 0.68829 0.74613 0.0
C467 C 0.43897 0.68298 0.76433 0.0
O468 O 0.44011 0.66794 0.76638 0.0
O469 O 0.39561 0.69406 0.78924 0.0
O470 O 0.37031 0.68831 0.78873 0.0
O471 O 0.40618 0.65468 0.75735 0.0
O472 O 0.38703 0.6591 0.77377 0.0
C473 C 0.38164 0.69661 0.79331 0.0
C474 C 0.39265 0.651 0.76263 0.0
O475 O 0.42607 0.6896 0.76681 0.0
Mg476 Mg 0.32226 0.40424 0.77361 0.0
O477 O 0.31195 0.39302 0.75199 0.0
O478 O 0.31844 0.36794 0.75121 0.0
Mg479 Mg 0.3327 0.36293 0.77295 0.0
C480 C 0.31168 0.37977 0.74547 0.0
C481 C 0.31403 0.43829 0.76504 0.0
O482 O 0.32912 0.43938 0.76653 0.0
O483 O 0.30305 0.39299 0.7886 0.0
O484 O 0.31125 0.3685 0.78689 0.0
O485 O 0.34401 0.40752 0.75966 0.0
O486 O 0.3395 0.38728 0.77461 0.0
C487 C 0.30162 0.37856 0.7918 0.0
C488 C 0.34795 0.39382 0.76431 0.0
O489 O 0.30749 0.42544 0.76805 0.0
Mg490 Mg 0.59117 0.32214 0.77469 0.0
O491 O 0.60128 0.31021 0.75319 0.0
O492 O 0.62701 0.31307 0.753 0.0
Mg493 Mg 0.63349 0.32527 0.77559 0.0
C494 C 0.61447 0.30829 0.74688 0.0
C495 C 0.55827 0.31745 0.76077 0.0
O496 O 0.56082 0.33189 0.75669 0.0
O497 O 0.59839 0.30171 0.79006 0.0
O498 O 0.62414 0.30465 0.7892 0.0
O499 O 0.59186 0.34452 0.7612 0.0
O500 O 0.61058 0.33625 0.7765 0.0
C501 C 0.61207 0.29742 0.79366 0.0
C502 C 0.60579 0.34613 0.76649 0.0
O503 O 0.56833 0.31044 0.76888 0.0
Mg504 Mg 0.6742 0.40361 0.22483 0.0
O505 O 0.68515 0.39347 0.2467 0.0
O506 O 0.67963 0.3682 0.24853 0.0
Mg507 Mg 0.66557 0.36196 0.22696 0.0
C508 C 0.68595 0.38051 0.25371 0.0
C509 C 0.6817 0.43786 0.23337 0.0
O510 O 0.6665 0.43821 0.23367 0.0
O511 O 0.6935 0.39269 0.20994 0.0
O512 O 0.68676 0.36783 0.21261 0.0
O513 O 0.65252 0.40653 0.23894 0.0
O514 O 0.65763 0.38598 0.22458 0.0
C515 C 0.69574 0.37827 0.20727 0.0
C516 C 0.64901 0.39258 0.23471 0.0
O517 O 0.68845 0.4254 0.22937 0.0
Mg518 Mg 0.59149 0.67479 0.22477 0.0
O519 O 0.60235 0.68706 0.24546 0.0
O520 O 0.62792 0.68306 0.24538 0.0
Mg521 Mg 0.63332 0.66742 0.22456 0.0
C522 C 0.61574 0.68896 0.2513 0.0
C523 C 0.55722 0.68212 0.2337 0.0
O524 O 0.55673 0.66691 0.23395 0.0
O525 O 0.60107 0.69339 0.20815 0.0
O526 O 0.62617 0.68677 0.20812 0.0
O527 O 0.5898 0.65386 0.24009 0.0
O528 O 0.60946 0.65863 0.22442 0.0
C529 C 0.61497 0.69516 0.20339 0.0
C530 C 0.60359 0.65042 0.23532 0.0
O531 O 0.56968 0.6888 0.22965 0.0
Mg532 Mg 0.31913 0.59255 0.22262 0.0
O533 O 0.30779 0.60536 0.24304 0.0
O534 O 0.31488 0.63037 0.24369 0.0
Mg535 Mg 0.32651 0.63557 0.22052 0.0
C536 C 0.30792 0.61868 0.24952 0.0
C537 C 0.31464 0.55862 0.23488 0.0
O538 O 0.32978 0.55853 0.23343 0.0
O539 O 0.29794 0.59866 0.20698 0.0
O540 O 0.30825 0.62132 0.21029 0.0
O541 O 0.34172 0.59337 0.23605 0.0
O542 O 0.33501 0.61157 0.2196 0.0
C543 C 0.29774 0.61316 0.20439 0.0
C544 C 0.3444 0.60679 0.22997 0.0
O545 O 0.30712 0.57061 0.23082 0.0
Mg546 Mg 0.4054 0.32158 0.2213 0.0
O547 O 0.39447 0.30941 0.24257 0.0
O548 O 0.36896 0.31451 0.24445 0.0
Mg549 Mg 0.36143 0.32547 0.22152 0.0
C550 C 0.3815 0.30862 0.24968 0.0
C551 C 0.43573 0.31686 0.23985 0.0
O552 O 0.42916 0.32813 0.24768 0.0
O553 O 0.40052 0.29984 0.20576 0.0
O554 O 0.37849 0.30973 0.21148 0.0
O555 O 0.40347 0.34402 0.23473 0.0
O556 O 0.38476 0.33591 0.21948 0.0
C557 C 0.38592 0.29936 0.20451 0.0
C558 C 0.38954 0.34564 0.22958 0.0
O559 O 0.42895 0.31159 0.2279 0.0
Mg560 Mg 0.77437 0.67639 0.59381 0.0
O561 O 0.7534 0.68835 0.60484 0.0
O562 O 0.75365 0.6841 0.63035 0.0
Mg563 Mg 0.77632 0.67168 0.63597 0.0
C564 C 0.7473 0.68969 0.61823 0.0
C565 C 0.76262 0.6813 0.55993 0.0
O566 O 0.7618 0.66611 0.56054 0.0
O567 O 0.78988 0.69652 0.60136 0.0
O568 O 0.78993 0.69244 0.62701 0.0
O569 O 0.76066 0.65422 0.59402 0.0
O570 O 0.7765 0.66155 0.61269 0.0
C571 C 0.79399 0.70016 0.61509 0.0
C572 C 0.76618 0.65204 0.60779 0.0
O573 O 0.76794 0.68867 0.57149 0.0
Mg574 Mg 0.77323 0.32143 0.40363 0.0
O575 O 0.75209 0.31004 0.3924 0.0
O576 O 0.75103 0.31699 0.36751 0.0
Mg577 Mg 0.77308 0.33065 0.36204 0.0
C578 C 0.74541 0.30997 0.37924 0.0
C579 C 0.76172 0.31476 0.43669 0.0
O580 O 0.75987 0.32983 0.43553 0.0
O581 O 0.78896 0.3023 0.39347 0.0
O582 O 0.78797 0.31008 0.36879 0.0
O583 O 0.759 0.34343 0.40569 0.0
O584 O 0.77443 0.33813 0.38611 0.0
C585 C 0.793 0.30096 0.37927 0.0
C586 C 0.76419 0.34701 0.39211 0.0
O587 O 0.76781 0.30747 0.42544 0.0
Mg588 Mg 0.67697 0.77508 0.40531 0.0
O589 O 0.68848 0.75405 0.39341 0.0
O590 O 0.68217 0.75312 0.36822 0.0
Mg591 Mg 0.67116 0.77637 0.36209 0.0
C592 C 0.68862 0.74733 0.38022 0.0
C593 C 0.68071 0.76058 0.43842 0.0
O594 O 0.66579 0.75825 0.43665 0.0
O595 O 0.69857 0.79037 0.39968 0.0
O596 O 0.68912 0.78651 0.37677 0.0
O597 O 0.65415 0.762 0.40397 0.0
O598 O 0.66182 0.77792 0.3857 0.0
C599 C 0.69949 0.79237 0.38514 0.0
C600 C 0.65204 0.76787 0.39037 0.0
O601 O 0.68821 0.76752 0.42784 0.0
Mg602 Mg 0.22389 0.67508 0.40431 0.0
O603 O 0.24404 0.68742 0.39236 0.0
O604 O 0.24393 0.68176 0.36714 0.0
Mg605 Mg 0.22216 0.6673 0.36256 0.0
C606 C 0.24998 0.68842 0.37887 0.0
C607 C 0.23422 0.68213 0.4381 0.0
O608 O 0.23469 0.66692 0.4382 0.0
O609 O 0.20727 0.69374 0.39534 0.0
O610 O 0.20695 0.68762 0.37009 0.0
O611 O 0.23907 0.65404 0.40559 0.0
O612 O 0.22273 0.65878 0.38648 0.0
C613 C 0.2026 0.69597 0.38148 0.0
C614 C 0.2338 0.65053 0.392 0.0
O615 O 0.22961 0.68905 0.42595 0.0
Mg616 Mg 0.32227 0.22444 0.40419 0.0
O617 O 0.31052 0.24576 0.39371 0.0
O618 O 0.31342 0.24559 0.36796 0.0
Mg619 Mg 0.32703 0.22367 0.36192 0.0
C620 C 0.30839 0.25177 0.3804 0.0
C621 C 0.31689 0.23588 0.43814 0.0
O622 O 0.33197 0.23764 0.43722 0.0
O623 O 0.30233 0.20884 0.39588 0.0
O624 O 0.30641 0.20964 0.37024 0.0
O625 O 0.3443 0.23842 0.40436 0.0
O626 O 0.33706 0.22296 0.3853 0.0
C627 C 0.29872 0.20513 0.382 0.0
C628 C 0.34648 0.23322 0.39047 0.0
O629 O 0.30968 0.2301 0.42669 0.0
Mg630 Mg 0.221 0.32165 0.59057 0.0
O631 O 0.24326 0.30946 0.59993 0.0
O632 O 0.24481 0.31243 0.62572 0.0
Mg633 Mg 0.2199 0.31708 0.632 0.0
C634 C 0.25063 0.30835 0.61275 0.0
C635 C 0.24067 0.31729 0.56127 0.0
O636 O 0.24931 0.32658 0.56968 0.0
O637 O 0.2049 0.30088 0.59511 0.0
O638 O 0.21763 0.29589 0.61649 0.0
O639 O 0.23339 0.34412 0.59458 0.0
O640 O 0.21823 0.33279 0.61179 0.0
C641 C 0.20653 0.29294 0.60742 0.0
C642 C 0.22796 0.34357 0.60856 0.0
O643 O 0.22749 0.3133 0.56641 0.0
Mg644 Mg 0.67381 0.22252 0.59113 0.0
O645 O 0.68592 0.24416 0.60084 0.0
O646 O 0.6847 0.24358 0.62671 0.0
Mg647 Mg 0.67205 0.22143 0.63365 0.0
C648 C 0.6888 0.25006 0.61408 0.0
C649 C 0.67999 0.24071 0.56102 0.0
O650 O 0.66922 0.24913 0.56769 0.0
O651 O 0.69474 0.20732 0.59776 0.0
O652 O 0.69222 0.20792 0.62358 0.0
O653 O 0.65143 0.2359 0.59256 0.0
O654 O 0.66043 0.22078 0.6111 0.0
C655 C 0.69928 0.20362 0.61136 0.0
C656 C 0.65041 0.23079 0.60661 0.0
O657 O 0.68436 0.22827 0.56758 0.0
Mg658 Mg 0.32119 0.77447 0.59295 0.0
O659 O 0.3102 0.75298 0.60413 0.0
O660 O 0.31596 0.75243 0.62936 0.0
Mg661 Mg 0.32738 0.77558 0.63493 0.0
C662 C 0.30986 0.74637 0.61735 0.0
C663 C 0.31525 0.7628 0.55916 0.0
O664 O 0.3304 0.76161 0.55959 0.0
O665 O 0.30103 0.78924 0.60154 0.0
O666 O 0.3053 0.78794 0.62711 0.0
O667 O 0.34347 0.76119 0.59207 0.0
O668 O 0.33672 0.77664 0.61133 0.0
C669 C 0.2972 0.79219 0.61551 0.0
C670 C 0.34606 0.76644 0.60588 0.0
O671 O 0.30818 0.76821 0.57088 0.0
C672 C 0.95246 0.20484 0.25668 0.0
C673 C 0.95262 0.18856 0.25611 0.0
C674 C 0.96398 0.21344 0.24927 0.0
C675 C 0.99258 0.20982 0.21765 0.0
H676 H 0.00784 0.24882 0.23383 0.0
C677 C 0.03175 0.24915 0.18089 0.0
C678 C 0.04439 0.256 0.18848 0.0
C679 C 0.02 0.24197 0.18939 0.0
C680 C 0.00379 0.2379 0.22918 0.0
H681 H 0.96547 0.16853 0.24802 0.0
H682 H 0.98575 0.18351 0.23541 0.0
H683 H 0.98965 0.23359 0.24906 0.0
H684 H 0.05431 0.26118 0.21098 0.0
H685 H 0.03409 0.2484 0.22574 0.0
H686 H 0.0071 0.21379 0.19804 0.0
C687 C 0.97649 0.18966 0.24123 0.0
C688 C 0.99322 0.22924 0.23785 0.0
C689 C 0.96493 0.18106 0.24857 0.0
C690 C 0.04475 0.256 0.20475 0.0
C691 C 0.03307 0.24873 0.21324 0.0
C692 C 0.00321 0.21841 0.20904 0.0
C693 C 0.97597 0.20596 0.24119 0.0
C694 C 0.98749 0.21508 0.2322 0.0
C695 C 0.02069 0.24139 0.20567 0.0
C696 C 0.00896 0.23256 0.21468 0.0
H697 H 0.94315 0.21099 0.26241 0.0
H698 H 0.96313 0.22596 0.24939 0.0
H699 H 0.98822 0.1991 0.21279 0.0
H700 H 0.03106 0.24906 0.16836 0.0
H701 H 0.01046 0.23672 0.18318 0.0
C702 C 0.79162 0.95149 0.25462 0.0
C703 C 0.80774 0.95264 0.25651 0.0
C704 C 0.7834 0.96309 0.24694 0.0
C705 C 0.78538 0.00393 0.23447 0.0
H706 H 0.75353 0.99113 0.20551 0.0
C707 C 0.74348 0.04784 0.207 0.0
C708 C 0.74027 0.04616 0.19113 0.0
C709 C 0.75138 0.03625 0.21505 0.0
C710 C 0.76245 0.9949 0.21347 0.0
H711 H 0.82778 0.96716 0.25229 0.0
H712 H 0.8134 0.98744 0.23883 0.0
H713 H 0.76844 0.97159 0.21937 0.0
H714 H 0.7424 0.03075 0.17139 0.0
H715 H 0.75627 0.01055 0.18543 0.0
H716 H 0.77963 0.02724 0.2283 0.0
C717 C 0.80713 0.97756 0.24333 0.0
C718 C 0.77088 0.98371 0.22155 0.0
C719 C 0.81538 0.96591 0.251 0.0
C720 C 0.7447 0.03241 0.18361 0.0
C721 C 0.75261 0.0208 0.19167 0.0
C722 C 0.77695 0.01513 0.22638 0.0
C723 C 0.79108 0.97615 0.24101 0.0
C724 C 0.78237 0.98809 0.23222 0.0
C725 C 0.75624 0.0227 0.20743 0.0
C726 C 0.76532 0.01075 0.21586 0.0
H727 H 0.78535 0.94146 0.25878 0.0
H728 H 0.77101 0.9618 0.24562 0.0
H729 H 0.7941 0.00769 0.24265 0.0
H730 H 0.74017 0.05825 0.21317 0.0
H731 H 0.75372 0.03793 0.22725 0.0
C732 C 0.03956 0.81328 0.23931 0.0
C733 C 0.04616 0.80858 0.25342 0.0
C734 C 0.02792 0.80452 0.23236 0.0
C735 C 0.99691 0.7771 0.23862 0.0
H736 H 0.00493 0.76469 0.19618 0.0
C737 C 0.95383 0.73893 0.20424 0.0
C738 C 0.95123 0.74318 0.18874 0.0
C739 C 0.966 0.74554 0.21266 0.0
C740 C 0.0024 0.76817 0.20796 0.0
H741 H 0.04517 0.79142 0.27173 0.0
H742 H 0.02432 0.77625 0.25969 0.0
H743 H 0.02431 0.77953 0.21034 0.0
H744 H 0.95967 0.75737 0.1698 0.0
H745 H 0.9806 0.76905 0.18448 0.0
H746 H 0.97474 0.76631 0.2361 0.0
C747 C 0.02844 0.78662 0.25396 0.0
C748 C 0.01354 0.77661 0.21608 0.0
C749 C 0.04037 0.79526 0.2608 0.0
C750 C 0.96133 0.75382 0.18172 0.0
C751 C 0.97343 0.76046 0.19014 0.0
C752 C 0.98563 0.76881 0.23042 0.0
C753 C 0.0224 0.79101 0.2395 0.0
C754 C 0.01084 0.78129 0.2314 0.0
C755 C 0.97582 0.75656 0.20578 0.0
C756 C 0.98818 0.7644 0.21491 0.0
H757 H 0.04374 0.82348 0.23332 0.0
H758 H 0.02332 0.80822 0.22129 0.0
H759 H 0.99453 0.78067 0.25041 0.0
H760 H 0.94631 0.7307 0.20998 0.0
H761 H 0.96764 0.74206 0.2246 0.0
C762 C 0.25907 0.95614 0.20321 0.0
C763 C 0.25331 0.95192 0.18859 0.0
C764 C 0.25238 0.96837 0.2115 0.0
C765 C 0.22423 0.00129 0.20735 0.0
H766 H 0.22147 0.99741 0.25202 0.0
C767 C 0.18103 0.03621 0.24396 0.0
C768 C 0.18779 0.04556 0.25546 0.0
C769 C 0.18965 0.02468 0.23662 0.0
C770 C 0.22224 0.99863 0.23956 0.0
H771 H 0.23622 0.95744 0.17106 0.0
H772 H 0.22415 0.97813 0.18564 0.0
H773 H 0.23574 0.97803 0.23717 0.0
H774 H 0.20865 0.04952 0.26887 0.0
H775 H 0.22362 0.02897 0.2562 0.0
H776 H 0.21001 0.02149 0.20981 0.0
C777 C 0.23411 0.97243 0.19065 0.0
C778 C 0.23053 0.98762 0.23101 0.0
C779 C 0.24098 0.96042 0.18228 0.0
C780 C 0.20314 0.04256 0.26001 0.0
C781 C 0.21169 0.03081 0.25281 0.0
C782 C 0.21568 0.01206 0.21586 0.0
C783 C 0.23958 0.9765 0.20547 0.0
C784 C 0.23155 0.98872 0.21474 0.0
C785 C 0.20512 0.02206 0.24079 0.0
C786 C 0.21453 0.01077 0.232 0.0
H787 H 0.26867 0.9499 0.20833 0.0
H788 H 0.25721 0.97135 0.22267 0.0
H789 H 0.22505 0.00287 0.19494 0.0
H790 H 0.16923 0.03816 0.24021 0.0
H791 H 0.18431 0.01794 0.22748 0.0
C792 C 0.95762 0.79763 0.73847 0.0
C793 C 0.95097 0.81034 0.74621 0.0
C794 C 0.96975 0.78932 0.74523 0.0
C795 C 0.98442 0.77941 0.78342 0.0
H796 H 0.02184 0.76649 0.7623 0.0
C797 C 0.03614 0.75396 0.81637 0.0
C798 C 0.04541 0.74271 0.80917 0.0
C799 C 0.02421 0.76118 0.80823 0.0
C800 C 0.01133 0.76976 0.76829 0.0
H801 H 0.95244 0.82484 0.7667 0.0
H802 H 0.97355 0.81028 0.77849 0.0
H803 H 0.00252 0.78185 0.74844 0.0
H804 H 0.049 0.72968 0.78798 0.0
H805 H 0.02782 0.742 0.77388 0.0
H806 H 0.99291 0.76719 0.80316 0.0
C807 C 0.96923 0.80665 0.76729 0.0
C808 C 0.00034 0.77863 0.76036 0.0
C809 C 0.9572 0.81502 0.76049 0.0
C810 C 0.04212 0.7384 0.79382 0.0
C811 C 0.03006 0.74554 0.7857 0.0
C812 C 0.99528 0.77041 0.79128 0.0
C813 C 0.97536 0.79351 0.7599 0.0
C814 C 0.98691 0.78374 0.76796 0.0
C815 C 0.02112 0.75721 0.79274 0.0
C816 C 0.009 0.76568 0.78391 0.0
H817 H 0.95314 0.79379 0.72739 0.0
H818 H 0.97429 0.77923 0.7393 0.0
H819 H 0.97398 0.78291 0.78944 0.0
H820 H 0.0384 0.7576 0.82816 0.0
H821 H 0.01774 0.77027 0.81398 0.0
C822 C 0.25763 0.04287 0.79251 0.0
C823 C 0.25321 0.0463 0.8078 0.0
C824 C 0.25081 0.03053 0.78454 0.0
C825 C 0.22725 0.99501 0.79034 0.0
H826 H 0.215 0.00192 0.74766 0.0
C827 C 0.18279 0.95637 0.76016 0.0
C828 C 0.18715 0.95019 0.74576 0.0
C829 C 0.19133 0.96832 0.76688 0.0
C830 C 0.21849 -0.00019 0.75953 0.0
H831 H 0.23848 0.03918 0.82686 0.0
H832 H 0.22643 0.0179 0.81293 0.0
H833 H 0.22976 0.0218 0.7614 0.0
H834 H 0.20335 0.95229 0.72667 0.0
H835 H 0.2182 0.97341 0.73841 0.0
H836 H 0.2156 0.97321 0.78858 0.0
C837 C 0.23531 0.02458 0.80712 0.0
C838 C 0.22699 0.01113 0.76739 0.0
C839 C 0.24217 0.03685 0.8151 0.0
C840 C 0.19977 0.95675 0.73783 0.0
C841 C 0.20824 0.96885 0.74451 0.0
C842 C 0.21865 0.98378 0.78254 0.0
C843 C 0.2394 0.02138 0.79168 0.0
C844 C 0.23132 0.00893 0.78295 0.0
C845 C 0.20431 0.97444 0.75927 0.0
C846 C 0.21402 0.98616 0.76714 0.0
H847 H 0.26619 0.04987 0.78659 0.0
H848 H 0.25442 0.02822 0.77276 0.0
H849 H 0.23067 0.99278 0.8022 0.0
H850 H 0.17307 0.95168 0.76653 0.0
H851 H 0.18791 0.97263 0.77815 0.0
C852 C 0.04749 0.207 0.7447 0.0
C853 C 0.04565 0.19138 0.74045 0.0
C854 C 0.03585 0.21476 0.7528 0.0
C855 C 0.99421 0.21347 0.76219 0.0
H856 H 0.00622 0.2407 0.79587 0.0
C857 C 0.95058 0.25455 0.79115 0.0
C858 C 0.95096 0.25572 0.80738 0.0
C859 C 0.96237 0.24689 0.78317 0.0
C860 C 0.00267 0.23306 0.78658 0.0
H861 H 0.02993 0.1718 0.741 0.0
H862 H 0.00959 0.18536 0.75517 0.0
H863 H 0.02603 0.22652 0.78157 0.0
H864 H 0.96434 0.25022 0.82791 0.0
H865 H 0.98493 0.23679 0.81396 0.0
H866 H 0.97084 0.21976 0.76739 0.0
C867 C 0.02004 0.19162 0.75219 0.0
C868 C 0.01403 0.22507 0.77826 0.0
C869 C 0.03171 0.18383 0.7441 0.0
C870 C 0.96368 0.2495 0.81541 0.0
C871 C 0.97551 0.24185 0.80741 0.0
C872 C 0.98286 0.22146 0.7705 0.0
C873 C 0.02206 0.20711 0.75681 0.0
C874 C 0.00994 0.21528 0.76589 0.0
C875 C 0.97485 0.24024 0.79121 0.0
C876 C 0.98696 0.23146 0.7827 0.0
H877 H 0.05806 0.21319 0.74203 0.0
H878 H 0.03765 0.22678 0.75592 0.0
H879 H 0.99067 0.20608 0.7527 0.0
H880 H 0.941 0.25928 0.78458 0.0
H881 H 0.96168 0.24615 0.77067 0.0
C882 C 0.81132 0.03238 0.74103 0.0
C883 C 0.80428 0.04687 0.7386 0.0
C884 C 0.80356 0.0207 0.74914 0.0
C885 C 0.77209 0.01523 0.77761 0.0
H886 H 0.77453 0.97219 0.76501 0.0
C887 C 0.74894 0.96496 0.81555 0.0
C888 C 0.74165 0.95256 0.80792 0.0
C889 C 0.75631 0.97665 0.8071 0.0
C890 C 0.77361 0.98418 0.76862 0.0
H891 H 0.78337 0.06028 0.74241 0.0
H892 H 0.76981 0.03988 0.75638 0.0
H893 H 0.78774 0.99196 0.7498 0.0
H894 H 0.73595 0.94301 0.78539 0.0
H895 H 0.74856 0.9635 0.77068 0.0
H896 H 0.75773 0.0075 0.79627 0.0
C897 C 0.78142 0.03762 0.75223 0.0
C898 C 0.78135 0.99549 0.76 0.0
C899 C 0.78915 0.04926 0.74409 0.0
C900 C 0.74151 0.95235 0.79165 0.0
C901 C 0.74887 0.96404 0.7832 0.0
C902 C 0.76435 0.00393 0.78624 0.0
C903 C 0.7886 0.02327 0.75505 0.0
C904 C 0.78059 0.01117 0.76433 0.0
C905 C 0.75654 0.97622 0.79082 0.0
C906 C 0.76493 0.98827 0.78179 0.0
H907 H 0.82296 0.03015 0.73695 0.0
H908 H 0.80946 0.00982 0.75118 0.0
H909 H 0.77148 0.02718 0.78143 0.0
H910 H 0.74928 0.96548 0.82808 0.0
H911 H 0.76219 0.9858 0.81335 0.0
C912 C 0.25373 0.20546 0.04674 0.0
C913 C 0.25625 0.18943 0.04524 0.0
C914 C 0.2459 0.21367 0.03523 0.0
C915 C 0.23409 0.21239 0.99424 0.0
H916 H 0.20328 0.24228 0.00758 0.0
C917 C 0.20519 0.2545 0.95144 0.0
C918 C 0.18912 0.25662 0.95281 0.0
C919 C 0.21345 0.24664 0.9629 0.0
C920 C 0.21177 0.23392 0.00366 0.0
H921 H 0.25302 0.16957 0.03019 0.0
H922 H 0.23934 0.18396 0.01004 0.0
H923 H 0.21764 0.22745 0.02685 0.0
H924 H 0.16921 0.25261 0.96757 0.0
H925 H 0.18365 0.23885 0.98758 0.0
H926 H 0.22802 0.21865 0.97105 0.0
C927 C 0.24344 0.19015 0.02014 0.0
C928 C 0.22012 0.22554 0.0147 0.0
C929 C 0.25123 0.1819 0.03171 0.0
C930 C 0.18158 0.25115 0.96615 0.0
C931 C 0.18986 0.24331 0.97765 0.0
C932 C 0.22576 0.2208 0.9832 0.0
C933 C 0.24046 0.20608 0.02192 0.0
C934 C 0.23144 0.21475 0.01012 0.0
C935 C 0.20585 0.24074 0.97602 0.0
C936 C 0.21456 0.23171 0.98779 0.0
H937 H 0.25749 0.21166 0.05697 0.0
H938 H 0.24405 0.22599 0.0368 0.0
H939 H 0.24277 0.20422 0.99034 0.0
H940 H 0.21139 0.25862 0.94134 0.0
H941 H 0.22581 0.24512 0.96144 0.0
C942 C 0.24133 0.81572 0.95962 0.0
C943 C 0.25336 0.80926 0.95079 0.0
C944 C 0.23476 0.80746 0.97185 0.0
C945 C 0.22984 0.76742 0.98656 0.0
H946 H 0.21354 0.78902 0.02242 0.0
C947 C 0.20173 0.73815 0.04097 0.0
C948 C 0.18763 0.7448 0.04569 0.0
C949 C 0.21048 0.74498 0.02913 0.0
C950 C 0.218 0.78285 0.01243 0.0
H951 H 0.26837 0.78926 0.94832 0.0
H952 H 0.25712 0.77495 0.96997 0.0
H953 H 0.22856 0.80325 0.00327 0.0
H954 H 0.17136 0.76344 0.04123 0.0
H955 H 0.18671 0.77541 0.02083 0.0
H956 H 0.21935 0.74695 0.99606 0.0
C957 C 0.25251 0.78628 0.96718 0.0
C958 C 0.22657 0.791 0.00142 0.0
C959 C 0.25905 0.79454 0.95484 0.0
C960 C 0.1822 0.75806 0.03796 0.0
C961 C 0.19101 0.76497 0.02632 0.0
C962 C 0.22142 0.75921 0.99773 0.0
C963 C 0.24012 0.79255 0.9757 0.0
C964 C 0.23233 0.78348 0.98816 0.0
C965 C 0.20536 0.75868 0.022 0.0
C966 C 0.21517 0.76694 0.0106 0.0
H967 H 0.23664 0.82702 0.95683 0.0
H968 H 0.22509 0.81261 0.97796 0.0
H969 H 0.23394 0.76127 0.97643 0.0
H970 H 0.20619 0.72788 0.04664 0.0
H971 H 0.2215 0.7399 0.02597 0.0
C972 C 0.74057 0.20702 0.95059 0.0
C973 C 0.73862 0.1909 0.95175 0.0
C974 C 0.74834 0.21523 0.96218 0.0
C975 C 0.77622 0.20892 0.99436 0.0
H976 H 0.76599 0.2515 0.00434 0.0
C977 C 0.81517 0.24499 0.03465 0.0
C978 C 0.80776 0.25462 0.04547 0.0
C979 C 0.80677 0.23813 0.02262 0.0
C980 C 0.76894 0.23957 0.00181 0.0
H981 H 0.74259 0.17087 0.96639 0.0
H982 H 0.75565 0.18521 0.98682 0.0
H983 H 0.75022 0.23739 0.98578 0.0
H984 H 0.78582 0.26509 0.05179 0.0
H985 H 0.77115 0.25292 0.0311 0.0
H986 H 0.79449 0.21085 0.0109 0.0
C987 C 0.75164 0.19149 0.97673 0.0
C988 C 0.75999 0.23152 0.99098 0.0
C989 C 0.744 0.18327 0.96508 0.0
C990 C 0.79189 0.25769 0.04368 0.0
C991 C 0.78348 0.25076 0.03172 0.0
C992 C 0.78504 0.21691 0.00531 0.0
C993 C 0.75423 0.20753 0.97529 0.0
C994 C 0.76351 0.21608 0.98709 0.0
C995 C 0.79075 0.24067 0.02118 0.0
C996 C 0.78154 0.23235 0.00918 0.0
H997 H 0.73658 0.21326 0.94047 0.0
H998 H 0.75021 0.22752 0.96054 0.0
H999 H 0.7795 0.19716 0.9915 0.0
H1000 H 0.82741 0.24247 0.03561 0.0
H1001 H 0.81285 0.23071 0.01454 0.0
C1002 C 0.7922 0.74153 0.95216 0.0
C1003 C 0.80845 0.74224 0.9517 0.0
C1004 C 0.78396 0.74911 0.96383 0.0
C1005 C 0.78776 0.76678 0.00272 0.0
H1006 H 0.75043 0.78863 0.99062 0.0
C1007 C 0.746 0.7926 0.04782 0.0
C1008 C 0.7398 0.80737 0.04485 0.0
C1009 C 0.75425 0.78466 0.03639 0.0
C1010 C 0.76088 0.7827 0.99417 0.0
H1011 H 0.82879 0.75098 0.96353 0.0
H1012 H 0.81439 0.76429 0.98387 0.0
H1013 H 0.7654 0.77472 0.97116 0.0
H1014 H 0.73706 0.82519 0.02736 0.0
H1015 H 0.75145 0.81129 0.00736 0.0
H1016 H 0.78342 0.77505 0.02567 0.0
C1017 C 0.80802 0.75782 0.97522 0.0
C1018 C 0.76937 0.77455 0.98305 0.0
C1019 C 0.81628 0.75023 0.96352 0.0
C1020 C 0.7417 0.81384 0.03003 0.0
C1021 C 0.7499 0.80585 0.01855 0.0
C1022 C 0.77927 0.77493 0.01384 0.0
C1023 C 0.79174 0.75758 0.97535 0.0
C1024 C 0.78286 0.7664 0.9872 0.0
C1025 C 0.75645 0.79124 0.02167 0.0
C1026 C 0.76567 0.7829 0.00972 0.0
H1027 H 0.78579 0.7354 0.9433 0.0
H1028 H 0.77144 0.74841 0.96377 0.0
H1029 H 0.79804 0.76058 0.00633 0.0
H1030 H 0.74477 0.78725 0.05909 0.0
H1031 H 0.75889 0.77332 0.0391 0.0
C1032 C 0.53292 0.75055 0.68241 0.0
C1033 C 0.54555 0.75716 0.69025 0.0
C1034 C 0.52125 0.74291 0.69061 0.0
C1035 C 0.5143 0.72336 0.72804 0.0
H1036 H 0.47117 0.72659 0.71617 0.0
C1037 C 0.46611 0.68459 0.75415 0.0
C1038 C 0.45189 0.69182 0.75738 0.0
C1039 C 0.47777 0.6926 0.74627 0.0
C1040 C 0.48316 0.72566 0.7197 0.0
H1041 H 0.55548 0.76153 0.71291 0.0
H1042 H 0.53499 0.74847 0.72722 0.0
H1043 H 0.49065 0.74113 0.70186 0.0
H1044 H 0.43895 0.71328 0.7553 0.0
H1045 H 0.45928 0.72724 0.74174 0.0
H1046 H 0.50674 0.70812 0.74608 0.0
C1047 C 0.53429 0.74886 0.7147 0.0
C1048 C 0.49434 0.73385 0.71139 0.0
C1049 C 0.54596 0.75647 0.7065 0.0
C1050 C 0.44974 0.70734 0.75296 0.0
C1051 C 0.46135 0.71531 0.74505 0.0
C1052 C 0.50311 0.71517 0.73636 0.0
C1053 C 0.52195 0.74175 0.70684 0.0
C1054 C 0.51003 0.73289 0.71553 0.0
C1055 C 0.4754 0.70798 0.74141 0.0
C1056 C 0.4874 0.71633 0.73236 0.0
H1057 H 0.53225 0.75087 0.66989 0.0
H1058 H 0.51196 0.73748 0.68418 0.0
H1059 H 0.52632 0.72215 0.73136 0.0
H1060 H 0.46814 0.67264 0.75741 0.0
H1061 H 0.48845 0.68661 0.74358 0.0
C1062 C 0.28934 0.44935 0.7545 0.0
C1063 C 0.30507 0.45123 0.75817 0.0
C1064 C 0.28127 0.46099 0.74667 0.0
C1065 C 0.28244 0.50268 0.73654 0.0
H1066 H 0.25428 0.49018 0.70387 0.0
C1067 C 0.2421 0.54646 0.70646 0.0
C1068 C 0.24054 0.5453 0.6903 0.0
C1069 C 0.24957 0.53482 0.71485 0.0
C1070 C 0.26217 0.49387 0.71288 0.0
H1071 H 0.32453 0.46706 0.75689 0.0
H1072 H 0.31048 0.48732 0.74317 0.0
H1073 H 0.26842 0.47053 0.71837 0.0
H1074 H 0.24521 0.53076 0.67034 0.0
H1075 H 0.25832 0.51048 0.68498 0.0
H1076 H 0.2765 0.52605 0.73077 0.0
C1077 C 0.30434 0.47688 0.74642 0.0
C1078 C 0.27014 0.4826 0.72133 0.0
C1079 C 0.31242 0.46522 0.75424 0.0
C1080 C 0.24622 0.53202 0.68278 0.0
C1081 C 0.25369 0.52036 0.69119 0.0
C1082 C 0.27448 0.51396 0.72808 0.0
C1083 C 0.28872 0.47481 0.74233 0.0
C1084 C 0.28031 0.48685 0.73332 0.0
C1085 C 0.25564 0.52172 0.7073 0.0
C1086 C 0.26419 0.50969 0.71619 0.0
H1087 H 0.2833 0.43873 0.75739 0.0
H1088 H 0.26917 0.45914 0.74396 0.0
H1089 H 0.29012 0.50637 0.74574 0.0
H1090 H 0.23782 0.55651 0.71264 0.0
H1091 H 0.25061 0.5361 0.72729 0.0
C1092 C 0.45619 0.23833 0.70045 0.0
C1093 C 0.44878 0.24685 0.6887 0.0
C1094 C 0.46858 0.24479 0.70866 0.0
C1095 C 0.48236 0.28242 0.72113 0.0
H1096 H 0.52206 0.26283 0.72846 0.0
C1097 C 0.53434 0.31641 0.74456 0.0
C1098 C 0.54473 0.30898 0.75461 0.0
C1099 C 0.52235 0.30813 0.73759 0.0
C1100 C 0.51093 0.26834 0.72675 0.0
H1101 H 0.44903 0.26847 0.67585 0.0
H1102 H 0.47042 0.27973 0.69032 0.0
H1103 H 0.50218 0.24909 0.71363 0.0
H1104 H 0.55036 0.2871 0.76566 0.0
H1105 H 0.52921 0.2727 0.7537 0.0
H1106 H 0.49084 0.30156 0.7343 0.0
C1107 C 0.4666 0.26813 0.69321 0.0
C1108 C 0.49962 0.2605 0.71821 0.0
C1109 C 0.4544 0.26164 0.6849 0.0
C1110 C 0.54258 0.29317 0.75792 0.0
C1111 C 0.53054 0.28488 0.75097 0.0
C1112 C 0.49356 0.29017 0.72978 0.0
C1113 C 0.47357 0.25992 0.70538 0.0
C1114 C 0.48535 0.26762 0.71511 0.0
C1115 C 0.5204 0.29223 0.74057 0.0
C1116 C 0.50808 0.28336 0.73247 0.0
H1117 H 0.45219 0.22685 0.70356 0.0
H1118 H 0.47381 0.23823 0.71799 0.0
H1119 H 0.47132 0.28802 0.71914 0.0
H1120 H 0.53568 0.32857 0.74173 0.0
H1121 H 0.5149 0.31413 0.72949 0.0
C1122 C 0.75716 0.45416 0.70427 0.0
C1123 C 0.75341 0.4521 0.68855 0.0
C1124 C 0.75071 0.46637 0.71277 0.0
C1125 C 0.73024 0.50397 0.70809 0.0
H1126 H 0.71502 0.49572 0.74957 0.0
C1127 C 0.68574 0.54313 0.73738 0.0
C1128 C 0.68961 0.54892 0.75209 0.0
C1129 C 0.69423 0.53108 0.73078 0.0
C1130 C 0.71937 0.4982 0.73806 0.0
H1131 H 0.74027 0.46153 0.66934 0.0
H1132 H 0.72892 0.48263 0.68412 0.0
H1133 H 0.72912 0.47552 0.73549 0.0
H1134 H 0.70493 0.54601 0.77178 0.0
H1135 H 0.71967 0.52458 0.76023 0.0
H1136 H 0.72001 0.52643 0.71047 0.0
C1137 C 0.73697 0.47495 0.6899 0.0
C1138 C 0.72749 0.48668 0.73001 0.0
C1139 C 0.74342 0.46277 0.68142 0.0
C1140 C 0.70174 0.54188 0.76038 0.0
C1141 C 0.71014 0.52961 0.75381 0.0
C1142 C 0.72201 0.51537 0.71606 0.0
C1143 C 0.74039 0.47682 0.70572 0.0
C1144 C 0.73282 0.48937 0.71482 0.0
C1145 C 0.70667 0.52439 0.73879 0.0
C1146 C 0.7163 0.51253 0.73101 0.0
H1147 H 0.76485 0.44616 0.71012 0.0
H1148 H 0.75377 0.46759 0.72486 0.0
H1149 H 0.73447 0.50658 0.69658 0.0
H1150 H 0.67642 0.5482 0.7307 0.0
H1151 H 0.69118 0.52711 0.71928 0.0
C1152 C 0.45799 0.29834 0.23698 0.0
C1153 C 0.44989 0.30935 0.24586 0.0
C1154 C 0.47044 0.29018 0.24338 0.0
C1155 C 0.48321 0.27552 0.28041 0.0
H1156 H 0.52401 0.27118 0.26226 0.0
C1157 C 0.53397 0.25 0.31482 0.0
C1158 C 0.54545 0.2415 0.30704 0.0
C1159 C 0.5222 0.25737 0.30658 0.0
C1160 C 0.51259 0.27202 0.26735 0.0
H1161 H 0.449 0.32095 0.26815 0.0
H1162 H 0.47048 0.30649 0.27935 0.0
H1163 H 0.50426 0.28648 0.24888 0.0
H1164 H 0.55321 0.23355 0.28451 0.0
H1165 H 0.53233 0.24606 0.27012 0.0
H1166 H 0.49119 0.26088 0.29865 0.0
C1167 C 0.46716 0.30418 0.26747 0.0
C1168 C 0.50134 0.28087 0.25972 0.0
C1169 C 0.4549 0.31248 0.26103 0.0
C1170 C 0.54458 0.2401 0.29084 0.0
C1171 C 0.53268 0.24738 0.28258 0.0
C1172 C 0.49433 0.26651 0.2879 0.0
C1173 C 0.47483 0.29274 0.25883 0.0
C1174 C 0.48665 0.28289 0.26634 0.0
C1175 C 0.52145 0.25629 0.29034 0.0
C1176 C 0.50927 0.26486 0.28163 0.0
H1177 H 0.45448 0.29578 0.22521 0.0
H1178 H 0.47622 0.28142 0.23649 0.0
H1179 H 0.47186 0.27668 0.2856 0.0
H1180 H 0.53431 0.25138 0.32728 0.0
H1181 H 0.51394 0.26433 0.31297 0.0
C1182 C 0.70694 0.45021 0.24078 0.0
C1183 C 0.69076 0.45115 0.23938 0.0
C1184 C 0.71528 0.4621 0.24797 0.0
C1185 C 0.70982 0.49379 0.27615 0.0
H1186 H 0.75056 0.50677 0.26251 0.0
C1187 C 0.74762 0.53381 0.31357 0.0
C1188 C 0.75514 0.54608 0.30596 0.0
C1189 C 0.74068 0.52189 0.30512 0.0
C1190 C 0.73915 0.50333 0.26641 0.0
H1191 H 0.67074 0.46568 0.24378 0.0
H1192 H 0.68528 0.48647 0.25607 0.0
H1193 H 0.7363 0.48742 0.24757 0.0
H1194 H 0.76176 0.55513 0.28349 0.0
H1195 H 0.74957 0.53434 0.26871 0.0
H1196 H 0.71248 0.50987 0.29479 0.0
C1197 C 0.69151 0.4764 0.25192 0.0
C1198 C 0.73104 0.49214 0.25793 0.0
C1199 C 0.68318 0.46452 0.24476 0.0
C1200 C 0.75603 0.54587 0.28971 0.0
C1201 C 0.7491 0.53391 0.28124 0.0
C1202 C 0.71791 0.50495 0.28461 0.0
C1203 C 0.70762 0.47521 0.2539 0.0
C1204 C 0.71626 0.48726 0.26269 0.0
C1205 C 0.7411 0.52192 0.28884 0.0
C1206 C 0.73268 0.50986 0.27986 0.0
H1207 H 0.71315 0.44008 0.23675 0.0
H1208 H 0.72766 0.46075 0.24937 0.0
H1209 H 0.69857 0.49015 0.28029 0.0
H1210 H 0.74678 0.53355 0.32609 0.0
H1211 H 0.73486 0.51269 0.31135 0.0
C1212 C 0.54557 0.70742 0.24195 0.0
C1213 C 0.5441 0.69133 0.23982 0.0
C1214 C 0.53385 0.71588 0.24923 0.0
C1215 C 0.50107 0.71047 0.27618 0.0
H1216 H 0.49115 0.75276 0.26469 0.0
C1217 C 0.46248 0.7485 0.31479 0.0
C1218 C 0.45096 0.75726 0.30734 0.0
C1219 C 0.4742 0.74136 0.30624 0.0
C1220 C 0.49372 0.74093 0.26798 0.0
H1221 H 0.52883 0.67165 0.24302 0.0
H1222 H 0.50824 0.68646 0.25539 0.0
H1223 H 0.50991 0.73815 0.24942 0.0
H1224 H 0.44314 0.76598 0.28513 0.0
H1225 H 0.46359 0.75347 0.27018 0.0
H1226 H 0.48463 0.71309 0.29449 0.0
C1227 C 0.51862 0.69249 0.25179 0.0
C1228 C 0.50458 0.73259 0.25932 0.0
C1229 C 0.53038 0.68401 0.24458 0.0
C1230 C 0.45181 0.75926 0.29121 0.0
C1231 C 0.46357 0.75214 0.28265 0.0
C1232 C 0.4902 0.71878 0.28479 0.0
C1233 C 0.52034 0.70848 0.25448 0.0
C1234 C 0.50842 0.71726 0.26333 0.0
C1235 C 0.47471 0.74283 0.29003 0.0
C1236 C 0.48642 0.73413 0.28085 0.0
H1237 H 0.556 0.71343 0.23844 0.0
H1238 H 0.53565 0.72813 0.25123 0.0
H1239 H 0.50388 0.69878 0.27976 0.0
H1240 H 0.46224 0.74678 0.32721 0.0
H1241 H 0.48278 0.73453 0.31232 0.0
C1242 C 0.31482 0.53282 0.24831 0.0
C1243 C 0.30654 0.54561 0.24256 0.0
C1244 C 0.30723 0.52115 0.25662 0.0
C1245 C 0.27158 0.51417 0.27929 0.0
H1246 H 0.28109 0.4708 0.27252 0.0
C1247 C 0.2448 0.46462 0.31597 0.0
C1248 C 0.24018 0.45128 0.30784 0.0
C1249 C 0.25315 0.47634 0.30851 0.0
C1250 C 0.27825 0.48287 0.27448 0.0
H1251 H 0.28371 0.55591 0.2406 0.0
H1252 H 0.27051 0.53553 0.25485 0.0
H1253 H 0.29528 0.4906 0.25822 0.0
H1254 H 0.24037 0.44 0.28538 0.0
H1255 H 0.25476 0.46045 0.27238 0.0
H1256 H 0.2543 0.50642 0.29527 0.0
C1257 C 0.2829 0.53465 0.25324 0.0
C1258 C 0.2865 0.49422 0.26642 0.0
C1259 C 0.29047 0.54628 0.24494 0.0
C1260 C 0.24376 0.4501 0.29201 0.0
C1261 C 0.25215 0.46176 0.28458 0.0
C1262 C 0.26334 0.50283 0.28737 0.0
C1263 C 0.29121 0.52206 0.25936 0.0
C1264 C 0.2831 0.50999 0.26855 0.0
C1265 C 0.25711 0.47492 0.29278 0.0
C1266 C 0.26642 0.48704 0.28488 0.0
H1267 H 0.32722 0.53195 0.24667 0.0
H1268 H 0.31397 0.51163 0.26122 0.0
H1269 H 0.26887 0.52624 0.2814 0.0
H1270 H 0.24223 0.4659 0.32818 0.0
H1271 H 0.25685 0.48631 0.31517 0.0
C1272 C 0.74983 0.6819 0.53388 0.0
C1273 C 0.75585 0.68986 0.54673 0.0
C1274 C 0.74224 0.68996 0.52208 0.0
C1275 C 0.73601 0.72958 0.50616 0.0
H1276 H 0.69958 0.71061 0.4881 0.0
C1277 C 0.70516 0.75551 0.45304 0.0
C1278 C 0.68901 0.75402 0.45189 0.0
C1279 C 0.71323 0.74829 0.46503 0.0
C1280 C 0.7096 0.71618 0.49316 0.0
H1281 H 0.75895 0.71257 0.55708 0.0
H1282 H 0.74545 0.72653 0.53676 0.0
H1283 H 0.71412 0.69674 0.50781 0.0
H1284 H 0.66859 0.74429 0.4628 0.0
H1285 H 0.68266 0.73199 0.48396 0.0
H1286 H 0.73115 0.74926 0.49197 0.0
C1287 C 0.74679 0.71411 0.5356 0.0
C1288 C 0.71812 0.70809 0.50428 0.0
C1289 C 0.75448 0.70608 0.54732 0.0
C1290 C 0.68105 0.74558 0.4633 0.0
C1291 C 0.68913 0.73842 0.47536 0.0
C1292 C 0.72741 0.73773 0.49516 0.0
C1293 C 0.74039 0.70615 0.52292 0.0
C1294 C 0.73147 0.71466 0.51089 0.0
C1295 C 0.70536 0.7395 0.47624 0.0
C1296 C 0.71414 0.7311 0.48846 0.0
H1297 H 0.75078 0.66941 0.53304 0.0
H1298 H 0.73774 0.68348 0.51233 0.0
H1299 H 0.74631 0.73495 0.51086 0.0
H1300 H 0.71166 0.76193 0.44445 0.0
H1301 H 0.72573 0.74923 0.4652 0.0
C1302 C 0.74577 0.31419 0.46079 0.0
C1303 C 0.75533 0.30637 0.45021 0.0
C1304 C 0.73864 0.3062 0.47288 0.0
C1305 C 0.7269 0.26667 0.48487 0.0
H1306 H 0.71924 0.28735 0.524 0.0
C1307 C 0.69964 0.2378 0.53973 0.0
C1308 C 0.68799 0.24655 0.54703 0.0
C1309 C 0.70813 0.24409 0.52743 0.0
C1310 C 0.72124 0.28146 0.5131 0.0
H1311 H 0.76538 0.2841 0.44435 0.0
H1312 H 0.75328 0.27018 0.46581 0.0
H1313 H 0.73471 0.30022 0.50429 0.0
H1314 H 0.67566 0.26847 0.54667 0.0
H1315 H 0.69056 0.27942 0.52539 0.0
H1316 H 0.71355 0.24777 0.494 0.0
C1317 C 0.75096 0.28244 0.4645 0.0
C1318 C 0.73006 0.28884 0.50177 0.0
C1319 C 0.75799 0.29044 0.45227 0.0
C1320 C 0.68463 0.26145 0.54141 0.0
C1321 C 0.6932 0.26777 0.52926 0.0
C1322 C 0.71822 0.25919 0.49633 0.0
C1323 C 0.74104 0.2902 0.47485 0.0
C1324 C 0.73278 0.28169 0.48738 0.0
C1325 C 0.70522 0.25928 0.52236 0.0
C1326 C 0.71508 0.26665 0.51043 0.0
H1327 H 0.74339 0.32645 0.4595 0.0
H1328 H 0.73087 0.31255 0.48041 0.0
H1329 H 0.72858 0.26086 0.47388 0.0
H1330 H 0.70246 0.22625 0.54375 0.0
H1331 H 0.71735 0.23731 0.52228 0.0
C1332 C 0.24132 0.70735 0.45068 0.0
C1333 C 0.24047 0.69109 0.45133 0.0
C1334 C 0.24852 0.71569 0.46254 0.0
C1335 C 0.27753 0.71072 0.49347 0.0
H1336 H 0.26257 0.75074 0.50738 0.0
C1337 C 0.31416 0.7494 0.53344 0.0
C1338 C 0.30643 0.75653 0.54586 0.0
C1339 C 0.30581 0.74227 0.52155 0.0
C1340 C 0.26685 0.73954 0.50368 0.0
H1341 H 0.24595 0.67091 0.46527 0.0
H1342 H 0.25828 0.68547 0.48604 0.0
H1343 H 0.24779 0.73616 0.48821 0.0
H1344 H 0.28383 0.76226 0.55523 0.0
H1345 H 0.26929 0.7497 0.53458 0.0
H1346 H 0.29639 0.71389 0.50916 0.0
C1347 C 0.25367 0.69176 0.47622 0.0
C1348 C 0.25846 0.73124 0.49259 0.0
C1349 C 0.24649 0.68341 0.46435 0.0
C1350 C 0.29016 0.75684 0.54585 0.0
C1351 C 0.28181 0.7497 0.53396 0.0
C1352 C 0.2859 0.71899 0.50455 0.0
C1353 C 0.25501 0.70798 0.47532 0.0
C1354 C 0.26369 0.71673 0.48736 0.0
C1355 C 0.28954 0.7421 0.52181 0.0
C1356 C 0.28069 0.73351 0.50979 0.0
H1357 H 0.2368 0.71363 0.44081 0.0
H1358 H 0.24945 0.72816 0.46142 0.0
H1359 H 0.28203 0.69968 0.48955 0.0
H1360 H 0.32668 0.74903 0.53304 0.0
H1361 H 0.31213 0.73678 0.51221 0.0
C1362 C 0.23779 0.30078 0.53749 0.0
C1363 C 0.24709 0.31003 0.54715 0.0
C1364 C 0.24439 0.29257 0.52515 0.0
C1365 C 0.28102 0.27476 0.51434 0.0
H1366 H 0.26497 0.27379 0.47244 0.0
C1367 C 0.31609 0.24986 0.46353 0.0
C1368 C 0.30823 0.24214 0.45156 0.0
C1369 C 0.30787 0.25709 0.47544 0.0
C1370 C 0.26945 0.27372 0.48416 0.0
H1371 H 0.27042 0.31851 0.55099 0.0
H1372 H 0.28186 0.30408 0.52963 0.0
H1373 H 0.25175 0.28923 0.49219 0.0
H1374 H 0.28558 0.2354 0.44307 0.0
H1375 H 0.27125 0.24782 0.46402 0.0
H1376 H 0.2986 0.2592 0.50652 0.0
C1377 C 0.26953 0.30309 0.53166 0.0
C1378 C 0.26191 0.28262 0.49541 0.0
C1379 C 0.26294 0.31142 0.54384 0.0
C1380 C 0.29199 0.24134 0.45207 0.0
C1381 C 0.28376 0.24855 0.46402 0.0
C1382 C 0.28846 0.26577 0.50317 0.0
C1383 C 0.26039 0.29333 0.52242 0.0
C1384 C 0.26779 0.28341 0.51054 0.0
C1385 C 0.2916 0.25672 0.47572 0.0
C1386 C 0.28293 0.26533 0.48787 0.0
H1387 H 0.22552 0.29956 0.53969 0.0
H1388 H 0.23709 0.28514 0.51816 0.0
H1389 H 0.28561 0.27493 0.52602 0.0
H1390 H 0.32859 0.2507 0.4635 0.0
H1391 H 0.3143 0.26341 0.48415 0.0
C1392 C 0.14258 0.11857 0.23932 0.0
C1393 C 0.14001 0.11656 0.25523 0.0
C1394 C 0.13687 0.13171 0.23175 0.0
C1395 C 0.12578 0.1719 0.24142 0.0
H1396 H 0.11588 0.17423 0.1977 0.0
C1397 C 0.12856 0.22888 0.20688 0.0
C1398 C 0.11649 0.23194 0.19646 0.0
C1399 C 0.12955 0.21451 0.21426 0.0
C1400 C 0.11845 0.17374 0.20997 0.0
H1401 H 0.12871 0.1259 0.27552 0.0
H1402 H 0.11784 0.14832 0.26216 0.0
H1403 H 0.11953 0.14894 0.20987 0.0
H1404 H 0.09605 0.22247 0.18543 0.0
H1405 H 0.098 0.19714 0.19807 0.0
H1406 H 0.12467 0.19667 0.24151 0.0
C1407 C 0.12471 0.14014 0.25559 0.0
C1408 C 0.12069 0.15926 0.21691 0.0
C1409 C 0.13071 0.1272 0.2632 0.0
C1410 C 0.10543 0.22039 0.1935 0.0
C1411 C 0.1066 0.2059 0.20064 0.0
C1412 C 0.12353 0.18633 0.23449 0.0
C1413 C 0.12831 0.14294 0.23994 0.0
C1414 C 0.12455 0.15816 0.2327 0.0
C1415 C 0.11865 0.20282 0.21113 0.0
C1416 C 0.12005 0.18742 0.21865 0.0
H1417 H 0.15008 0.11068 0.23305 0.0
H1418 H 0.14006 0.13353 0.21976 0.0
H1419 H 0.12899 0.17159 0.25353 0.0
H1420 H 0.13715 0.23766 0.20942 0.0
H1421 H 0.13902 0.21245 0.22221 0.0
C1422 C 0.87926 0.1438 0.23836 0.0
C1423 C 0.88127 0.14042 0.25411 0.0
C1424 C 0.86565 0.13941 0.23081 0.0
C1425 C 0.83233 0.11444 0.22953 0.0
H1426 H 0.80871 0.15119 0.21901 0.0
C1427 C 0.76923 0.11048 0.20741 0.0
C1428 C 0.76456 0.1212 0.19608 0.0
C1429 C 0.78346 0.11215 0.21494 0.0
C1430 C 0.8152 0.14078 0.22158 0.0
H1431 H 0.87141 0.1289 0.27407 0.0
H1432 H 0.84796 0.12036 0.26054 0.0
H1433 H 0.83453 0.15386 0.22995 0.0
H1434 H 0.77121 0.14196 0.18363 0.0
H1435 H 0.79618 0.14456 0.19625 0.0
H1436 H 0.81331 0.10127 0.22072 0.0
C1437 C 0.85676 0.12661 0.25415 0.0
C1438 C 0.82996 0.14234 0.22791 0.0
C1439 C 0.87017 0.13139 0.26183 0.0
C1440 C 0.77438 0.13363 0.19246 0.0
C1441 C 0.78871 0.13514 0.19979 0.0
C1442 C 0.81764 0.11284 0.22288 0.0
C1443 C 0.85412 0.13119 0.2388 0.0
C1444 C 0.83866 0.12921 0.23184 0.0
C1445 C 0.79347 0.12443 0.21113 0.0
C1446 C 0.8089 0.12601 0.21873 0.0
H1447 H 0.88751 0.15104 0.2323 0.0
H1448 H 0.86376 0.1431 0.21896 0.0
H1449 H 0.83885 0.10417 0.23261 0.0
H1450 H 0.76186 0.10081 0.21051 0.0
H1451 H 0.78655 0.10382 0.2238 0.0
C1452 C 0.88101 0.76658 0.21348 0.0
C1453 C 0.88092 0.76583 0.19729 0.0
C1454 C 0.87996 0.78091 0.22096 0.0
C1455 C 0.88408 0.82338 0.21509 0.0
H1456 H 0.85603 0.82541 0.25006 0.0
C1457 C 0.85839 0.8799 0.24202 0.0
C1458 C 0.85635 0.87984 0.25816 0.0
C1459 C 0.86433 0.86677 0.23453 0.0
C1460 C 0.8641 0.82501 0.24046 0.0
H1461 H 0.88021 0.77911 0.17607 0.0
H1462 H 0.87829 0.80428 0.18911 0.0
H1463 H 0.86038 0.80078 0.23718 0.0
H1464 H 0.86017 0.8668 0.27924 0.0
H1465 H 0.87079 0.84412 0.26625 0.0
H1466 H 0.8874 0.84786 0.21826 0.0
C1467 C 0.87922 0.79389 0.19608 0.0
C1468 C 0.8666 0.81087 0.23308 0.0
C1469 C 0.88018 0.77954 0.18862 0.0
C1470 C 0.86158 0.86709 0.26677 0.0
C1471 C 0.86753 0.85407 0.25933 0.0
C1472 C 0.8815 0.83761 0.22247 0.0
C1473 C 0.87888 0.79473 0.21235 0.0
C1474 C 0.87663 0.80984 0.22032 0.0
C1475 C 0.8683 0.85349 0.2431 0.0
C1476 C 0.87153 0.83853 0.23528 0.0
H1477 H 0.88169 0.75608 0.22032 0.0
H1478 H 0.87995 0.78116 0.2335 0.0
H1479 H 0.89197 0.82296 0.20536 0.0
H1480 H 0.85425 0.88953 0.23512 0.0
H1481 H 0.86477 0.86663 0.22199 0.0
C1482 C 0.22601 0.89138 0.20687 0.0
C1483 C 0.23227 0.87912 0.19813 0.0
C1484 C 0.21159 0.88982 0.21412 0.0
C1485 C 0.18279 0.85982 0.22595 0.0
H1486 H 0.15457 0.89475 0.22814 0.0
C1487 C 0.1178 0.85397 0.23914 0.0
C1488 C 0.11542 0.85754 0.25481 0.0
C1489 C 0.13123 0.85898 0.23163 0.0
C1490 C 0.16239 0.88496 0.22754 0.0
H1491 H 0.22812 0.85569 0.19001 0.0
H1492 H 0.20295 0.85316 0.20213 0.0
H1493 H 0.18028 0.89817 0.21659 0.0
H1494 H 0.12446 0.86986 0.27467 0.0
H1495 H 0.14762 0.87935 0.26122 0.0
H1496 H 0.16463 0.84657 0.23646 0.0
C1497 C 0.20931 0.86383 0.20385 0.0
C1498 C 0.17715 0.88689 0.22109 0.0
C1499 C 0.22376 0.86531 0.19679 0.0
C1500 C 0.12596 0.86724 0.26249 0.0
C1501 C 0.13919 0.87258 0.25486 0.0
C1502 C 0.168 0.85786 0.23213 0.0
C1503 C 0.20301 0.87603 0.21266 0.0
C1504 C 0.18751 0.8743 0.2201 0.0
C1505 C 0.1422 0.86795 0.23959 0.0
C1506 C 0.15769 0.87037 0.23288 0.0
H1507 H 0.23229 0.90216 0.20818 0.0
H1508 H 0.20726 0.89939 0.22097 0.0
H1509 H 0.19052 0.84995 0.22582 0.0
H1510 H 0.11004 0.84615 0.23313 0.0
H1511 H 0.13349 0.85514 0.21989 0.0
C1512 C 0.11359 0.76715 0.78496 0.0
C1513 C 0.11583 0.76626 0.80099 0.0
C1514 C 0.11484 0.78138 0.77736 0.0
C1515 C 0.11369 0.82369 0.78308 0.0
H1516 H 0.13954 0.82437 0.7464 0.0
C1517 C 0.1381 0.87954 0.75431 0.0
C1518 C 0.14019 0.87918 0.73819 0.0
C1519 C 0.13236 0.86649 0.76205 0.0
C1520 C 0.13203 0.82436 0.75644 0.0
H1521 H 0.12057 0.77925 0.82188 0.0
H1522 H 0.12249 0.80434 0.80863 0.0
H1523 H 0.1351 0.80002 0.75978 0.0
H1524 H 0.1367 0.86569 0.71735 0.0
H1525 H 0.12613 0.84321 0.73071 0.0
H1526 H 0.11077 0.84816 0.77974 0.0
C1527 C 0.11988 0.79408 0.8019 0.0
C1528 C 0.12954 0.8104 0.76414 0.0
C1529 C 0.1189 0.77978 0.80945 0.0
C1530 C 0.13523 0.86619 0.72981 0.0
C1531 C 0.12935 0.85327 0.73748 0.0
C1532 C 0.11613 0.83772 0.77531 0.0
C1533 C 0.11809 0.79498 0.78575 0.0
C1534 C 0.12035 0.80989 0.77753 0.0
C1535 C 0.12854 0.85299 0.75373 0.0
C1536 C 0.12531 0.83819 0.76187 0.0
H1537 H 0.1112 0.75679 0.77828 0.0
H1538 H 0.1133 0.78176 0.76492 0.0
H1539 H 0.10648 0.8236 0.79334 0.0
H1540 H 0.14204 0.88938 0.76103 0.0
H1541 H 0.13192 0.86662 0.77458 0.0
C1542 C 0.21849 0.12392 0.80871 0.0
C1543 C 0.23095 0.11748 0.80059 0.0
C1544 C 0.20393 0.12495 0.80183 0.0
C1545 C 0.1806 0.11124 0.76804 0.0
H1546 H 0.15589 0.1473 0.77844 0.0
C1547 C 0.12902 0.1348 0.73225 0.0
C1548 C 0.11649 0.14124 0.74038 0.0
C1549 C 0.14177 0.12887 0.74021 0.0
C1550 C 0.16253 0.13702 0.77561 0.0
H1551 H 0.23824 0.10713 0.77896 0.0
H1552 H 0.21295 0.10977 0.76645 0.0
H1553 H 0.18096 0.14377 0.79052 0.0
H1554 H 0.10695 0.14566 0.76315 0.0
H1555 H 0.1293 0.13529 0.77713 0.0
H1556 H 0.16225 0.10504 0.75247 0.0
C1557 C 0.21418 0.11349 0.77836 0.0
C1558 C 0.17694 0.13496 0.78256 0.0
C1559 C 0.22869 0.11206 0.78544 0.0
C1560 C 0.11638 0.14059 0.75661 0.0
C1561 C 0.12924 0.13484 0.76459 0.0
C1562 C 0.16621 0.11343 0.76091 0.0
C1563 C 0.2016 0.12 0.78646 0.0
C1564 C 0.18619 0.12202 0.77893 0.0
C1565 C 0.14229 0.12947 0.75645 0.0
C1566 C 0.15702 0.12633 0.76467 0.0
H1567 H 0.21998 0.12796 0.82051 0.0
H1568 H 0.1945 0.1296 0.80864 0.0
H1569 H 0.18726 0.10104 0.76507 0.0
H1570 H 0.12938 0.13525 0.71972 0.0
H1571 H 0.15167 0.12489 0.73363 0.0
C1572 C 0.86713 0.21975 0.80632 0.0
C1573 C 0.87805 0.2305 0.80096 0.0
C1574 C 0.86597 0.20514 0.79951 0.0
C1575 C 0.88653 0.17765 0.77302 0.0
H1576 H 0.84597 0.15851 0.7717 0.0
C1577 C 0.86611 0.12571 0.73472 0.0
C1578 C 0.85701 0.11454 0.74226 0.0
C1579 C 0.87168 0.13856 0.74283 0.0
C1580 C 0.8574 0.16365 0.77217 0.0
H1581 H 0.89626 0.23451 0.7842 0.0
H1582 H 0.89369 0.20928 0.77166 0.0
H1583 H 0.84882 0.18416 0.78286 0.0
H1584 H 0.84728 0.10747 0.76425 0.0
H1585 H 0.8568 0.13011 0.77841 0.0
H1586 H 0.89476 0.15721 0.76138 0.0
C1587 C 0.88636 0.21186 0.78149 0.0
C1588 C 0.85908 0.17836 0.77862 0.0
C1589 C 0.88777 0.22639 0.78859 0.0
C1590 C 0.85457 0.11575 0.75827 0.0
C1591 C 0.85984 0.12878 0.76631 0.0
C1592 C 0.88476 0.16301 0.76624 0.0
C1593 C 0.87542 0.20102 0.78686 0.0
C1594 C 0.8737 0.18552 0.77936 0.0
C1595 C 0.86789 0.14058 0.7585 0.0
C1596 C 0.8702 0.15581 0.76598 0.0
H1597 H 0.85967 0.22253 0.81602 0.0
H1598 H 0.85772 0.19703 0.80432 0.0
H1599 H 0.898 0.18267 0.77347 0.0
H1600 H 0.86791 0.12509 0.72231 0.0
H1601 H 0.87779 0.14754 0.73655 0.0
C1602 C 0.87772 0.85925 0.75104 0.0
C1603 C 0.8761 0.85347 0.73591 0.0
C1604 C 0.86487 0.8653 0.75887 0.0
C1605 C 0.82693 0.85605 0.76495 0.0
H1606 H 0.81413 0.898 0.77462 0.0
C1607 C 0.76673 0.86752 0.79012 0.0
C1608 C 0.76491 0.87956 0.80084 0.0
C1609 C 0.78054 0.86592 0.7819 0.0
C1610 C 0.81762 0.8862 0.77225 0.0
H1611 H 0.86026 0.85095 0.71656 0.0
H1612 H 0.83784 0.86112 0.73042 0.0
H1613 H 0.83868 0.89352 0.76112 0.0
H1614 H 0.77592 0.89942 0.81146 0.0
H1615 H 0.80047 0.89612 0.79784 0.0
H1616 H 0.80644 0.84845 0.77633 0.0
C1617 C 0.84899 0.86094 0.73617 0.0
C1618 C 0.83163 0.8837 0.76446 0.0
C1619 C 0.86179 0.85505 0.72832 0.0
C1620 C 0.77709 0.89006 0.80318 0.0
C1621 C 0.7911 0.88821 0.79528 0.0
C1622 C 0.81312 0.85849 0.77292 0.0
C1623 C 0.85035 0.86564 0.75162 0.0
C1624 C 0.83622 0.86861 0.76064 0.0
C1625 C 0.79306 0.87604 0.78458 0.0
C1626 C 0.80812 0.8736 0.7765 0.0
H1627 H 0.8886 0.85817 0.75716 0.0
H1628 H 0.86605 0.86882 0.77086 0.0
H1629 H 0.83037 0.84431 0.76212 0.0
H1630 H 0.75737 0.85946 0.78794 0.0
H1631 H 0.78135 0.85672 0.77342 0.0
C1632 C 0.19129 0.10842 0.21902 0.0
C1633 C 0.19659 0.11658 0.23202 0.0
C1634 C 0.19883 0.10995 0.20477 0.0
C1635 C 0.22675 0.136 0.18453 0.0
H1636 H 0.2278 0.10291 0.15411 0.0
C1637 C 0.26689 0.13781 0.13264 0.0
C1638 C 0.25877 0.14116 0.11895 0.0
C1639 C 0.25918 0.13191 0.14551 0.0
C1640 C 0.2275 0.11221 0.16253 0.0
H1641 H 0.21417 0.13205 0.24078 0.0
H1642 H 0.22803 0.13398 0.21629 0.0
H1643 H 0.21511 0.09859 0.17912 0.0
H1644 H 0.23652 0.13959 0.10747 0.0
H1645 H 0.22301 0.12886 0.13012 0.0
H1646 H 0.23972 0.14931 0.16814 0.0
C1647 C 0.21762 0.12702 0.21669 0.0
C1648 C 0.22018 0.10982 0.17682 0.0
C1649 C 0.20981 0.12584 0.23079 0.0
C1650 C 0.24308 0.13703 0.11785 0.0
C1651 C 0.23535 0.13096 0.13077 0.0
C1652 C 0.23429 0.13823 0.17045 0.0
C1653 C 0.21206 0.11938 0.20336 0.0
C1654 C 0.21976 0.1217 0.18806 0.0
C1655 C 0.24326 0.12902 0.14485 0.0
C1656 C 0.23475 0.12637 0.15939 0.0
H1657 H 0.18101 0.10126 0.21978 0.0
H1658 H 0.19401 0.10406 0.19481 0.0
H1659 H 0.22632 0.14562 0.19257 0.0
H1660 H 0.27903 0.14076 0.13377 0.0
H1661 H 0.26547 0.13045 0.15626 0.0
C1662 C 0.85781 0.24291 0.11839 0.0
C1663 C 0.8549 0.25893 0.11871 0.0
C1664 C 0.86379 0.23545 0.13153 0.0
C1665 C 0.86198 0.24005 0.17334 0.0
H1666 H 0.89298 0.20767 0.17544 0.0
C1667 C 0.87867 0.21246 0.23164 0.0
C1668 C 0.88086 0.19639 0.23178 0.0
C1669 C 0.87739 0.22039 0.21758 0.0
C1670 C 0.88419 0.21659 0.17502 0.0
H1671 H 0.85722 0.27989 0.13234 0.0
H1672 H 0.86772 0.26694 0.15508 0.0
H1673 H 0.88799 0.22078 0.15077 0.0
H1674 H 0.88378 0.17592 0.21764 0.0
H1675 H 0.88127 0.18965 0.19299 0.0
H1676 H 0.85769 0.23568 0.19728 0.0
C1677 C 0.86516 0.26009 0.14488 0.0
C1678 C 0.88139 0.22411 0.1609 0.0
C1679 C 0.85925 0.2675 0.13183 0.0
C1680 C 0.88203 0.18834 0.21772 0.0
C1681 C 0.88073 0.19625 0.20364 0.0
C1682 C 0.86465 0.23248 0.18736 0.0
C1683 C 0.86689 0.24392 0.14511 0.0
C1684 C 0.87029 0.23596 0.15996 0.0
C1685 C 0.87822 0.21236 0.20338 0.0
C1686 C 0.8758 0.22065 0.18842 0.0
H1687 H 0.85442 0.23601 0.10848 0.0
H1688 H 0.86499 0.22296 0.13142 0.0
H1689 H 0.85311 0.24892 0.1729 0.0
H1690 H 0.87785 0.21885 0.24242 0.0
H1691 H 0.87572 0.23283 0.21784 0.0
C1692 C 0.80857 0.8835 0.2178 0.0
C1693 C 0.80073 0.87985 0.23152 0.0
C1694 C 0.80103 0.88228 0.20352 0.0
C1695 C 0.7666 0.86376 0.18544 0.0
H1696 H 0.77613 0.89115 0.1511 0.0
C1697 C 0.73053 0.86246 0.13064 0.0
C1698 C 0.73894 0.85782 0.11751 0.0
C1699 C 0.73815 0.86802 0.14371 0.0
C1700 C 0.77342 0.88344 0.16062 0.0
H1701 H 0.77897 0.87263 0.24148 0.0
H1702 H 0.76549 0.87104 0.21667 0.0
H1703 H 0.78896 0.89497 0.17612 0.0
H1704 H 0.76176 0.85677 0.10717 0.0
H1705 H 0.77516 0.86691 0.13012 0.0
H1706 H 0.7508 0.85251 0.17005 0.0
C1707 C 0.77758 0.87432 0.2167 0.0
C1708 C 0.7808 0.88553 0.17492 0.0
C1709 C 0.78521 0.87531 0.23093 0.0
C1710 C 0.75499 0.86037 0.11709 0.0
C1711 C 0.76265 0.86608 0.13023 0.0
C1712 C 0.75907 0.86187 0.1713 0.0
C1713 C 0.78543 0.87759 0.20276 0.0
C1714 C 0.77749 0.87569 0.18754 0.0
C1715 C 0.75432 0.86922 0.14387 0.0
C1716 C 0.76239 0.87168 0.15877 0.0
H1717 H 0.82059 0.88705 0.21812 0.0
H1718 H 0.80754 0.88469 0.19309 0.0
H1719 H 0.76402 0.85566 0.19466 0.0
H1720 H 0.71812 0.86071 0.13122 0.0
H1721 H 0.73147 0.87055 0.15403 0.0
C1722 C 0.1108 0.78741 0.22947 0.0
C1723 C 0.11655 0.8025 0.23131 0.0
C1724 C 0.11246 0.7797 0.21528 0.0
C1725 C 0.13484 0.78213 0.17832 0.0
H1726 H 0.10472 0.7521 0.16395 0.0
C1727 C 0.13909 0.75629 0.11749 0.0
C1728 C 0.14006 0.74007 0.11752 0.0
C1729 C 0.13371 0.76413 0.13061 0.0
C1730 C 0.11317 0.76051 0.16784 0.0
H1731 H 0.12776 0.82172 0.21984 0.0
H1732 H 0.12977 0.80882 0.19488 0.0
H1733 H 0.10064 0.76532 0.18867 0.0
H1734 H 0.13514 0.71924 0.13063 0.0
H1735 H 0.1253 0.73293 0.15337 0.0
H1736 H 0.14721 0.77748 0.15737 0.0
C1737 C 0.12474 0.80248 0.20445 0.0
C1738 C 0.11094 0.768 0.18206 0.0
C1739 C 0.12349 0.80997 0.21871 0.0
C1740 C 0.13439 0.73178 0.13032 0.0
C1741 C 0.12878 0.73959 0.14332 0.0
C1742 C 0.1369 0.77488 0.16404 0.0
C1743 C 0.11952 0.78713 0.20257 0.0
C1744 C 0.12175 0.77895 0.18749 0.0
C1745 C 0.129 0.75584 0.14383 0.0
C1746 C 0.1261 0.76403 0.15863 0.0
H1747 H 0.10544 0.78144 0.23911 0.0
H1748 H 0.10848 0.76784 0.21442 0.0
H1749 H 0.14372 0.79006 0.18224 0.0
H1750 H 0.14361 0.76294 0.10786 0.0
H1751 H 0.1339 0.77668 0.1307 0.0
C1752 C 0.19222 0.89198 0.77786 0.0
C1753 C 0.19636 0.88223 0.76553 0.0
C1754 C 0.19943 0.8904 0.79231 0.0
C1755 C 0.22315 0.862 0.81468 0.0
H1756 H 0.23021 0.89678 0.84228 0.0
C1757 C 0.26591 0.86046 0.86474 0.0
C1758 C 0.25812 0.85699 0.8786 0.0
C1759 C 0.25789 0.86652 0.85212 0.0
C1760 C 0.22816 0.88701 0.83467 0.0
H1761 H 0.21175 0.86389 0.75817 0.0
H1762 H 0.22503 0.86176 0.78291 0.0
H1763 H 0.2176 0.90109 0.81718 0.0
H1764 H 0.23614 0.85838 0.8906 0.0
H1765 H 0.22206 0.86926 0.86834 0.0
H1766 H 0.23433 0.84812 0.83193 0.0
C1767 C 0.2157 0.87007 0.78187 0.0
C1768 C 0.22091 0.88941 0.82034 0.0
C1769 C 0.2082 0.87135 0.76762 0.0
C1770 C 0.24244 0.86106 0.88009 0.0
C1771 C 0.23439 0.86721 0.8674 0.0
C1772 C 0.23055 0.85968 0.82883 0.0
C1773 C 0.21118 0.87929 0.79456 0.0
C1774 C 0.21845 0.87693 0.81006 0.0
C1775 C 0.24199 0.86942 0.85319 0.0
C1776 C 0.23317 0.87215 0.83887 0.0
H1777 H 0.18304 0.90042 0.77649 0.0
H1778 H 0.1955 0.89761 0.80178 0.0
H1779 H 0.22112 0.852 0.80738 0.0
H1780 H 0.27801 0.85752 0.86329 0.0
H1781 H 0.26392 0.86809 0.84122 0.0
C1782 C 0.11108 0.20894 0.76917 0.0
C1783 C 0.12012 0.19594 0.76543 0.0
C1784 C 0.11272 0.21622 0.78355 0.0
C1785 C 0.13937 0.21814 0.81759 0.0
H1786 H 0.10411 0.23764 0.83745 0.0
C1787 C 0.14247 0.2394 0.88021 0.0
C1788 C 0.14061 0.25552 0.8812 0.0
C1789 C 0.13765 0.23149 0.86694 0.0
C1790 C 0.114 0.23216 0.83201 0.0
H1791 H 0.13756 0.18003 0.77385 0.0
H1792 H 0.13988 0.19212 0.79917 0.0
H1793 H 0.10087 0.22518 0.81222 0.0
H1794 H 0.13134 0.27587 0.86985 0.0
H1795 H 0.12225 0.26187 0.84691 0.0
H1796 H 0.15233 0.2248 0.83763 0.0
C1797 C 0.13202 0.19723 0.79086 0.0
C1798 C 0.11223 0.22516 0.81749 0.0
C1799 C 0.13065 0.19021 0.77636 0.0
C1800 C 0.1327 0.26339 0.86938 0.0
C1801 C 0.12756 0.25542 0.85627 0.0
C1802 C 0.14102 0.22482 0.8322 0.0
C1803 C 0.12317 0.21042 0.79465 0.0
C1804 C 0.12491 0.21803 0.81007 0.0
C1805 C 0.13062 0.23953 0.85466 0.0
C1806 C 0.12837 0.23186 0.83954 0.0
H1807 H 0.10291 0.21362 0.76088 0.0
H1808 H 0.1059 0.22649 0.78585 0.0
H1809 H 0.14953 0.21324 0.81214 0.0
H1810 H 0.14883 0.23314 0.88903 0.0
H1811 H 0.14012 0.21922 0.86591 0.0
C1812 C 0.80064 0.1073 0.77686 0.0
C1813 C 0.8016 0.11993 0.76665 0.0
C1814 C 0.79297 0.10877 0.79103 0.0
C1815 C 0.77997 0.13883 0.81878 0.0
H1816 H 0.75842 0.1044 0.83796 0.0
C1817 C 0.75906 0.14346 0.88135 0.0
C1818 C 0.74338 0.13985 0.88338 0.0
C1819 C 0.76677 0.13882 0.86789 0.0
C1820 C 0.7644 0.11411 0.83274 0.0
H1821 H 0.79463 0.14373 0.76283 0.0
H1822 H 0.78069 0.14616 0.78727 0.0
H1823 H 0.7691 0.10146 0.81194 0.0
H1824 H 0.72375 0.12767 0.87373 0.0
H1825 H 0.73732 0.11908 0.85048 0.0
H1826 H 0.77482 0.15164 0.83933 0.0
C1827 C 0.78637 0.13529 0.78467 0.0
C1828 C 0.77062 0.11241 0.81787 0.0
C1829 C 0.7943 0.1339 0.77063 0.0
C1830 C 0.73594 0.13033 0.8725 0.0
C1831 C 0.74369 0.12552 0.85915 0.0
C1832 C 0.77373 0.14053 0.83359 0.0
C1833 C 0.78585 0.12283 0.7952 0.0
C1834 C 0.77857 0.12473 0.81073 0.0
C1835 C 0.75895 0.13038 0.85634 0.0
C1836 C 0.766 0.12816 0.84081 0.0
H1837 H 0.80621 0.09639 0.77408 0.0
H1838 H 0.79303 0.099 0.79889 0.0
H1839 H 0.78613 0.14854 0.81379 0.0
H1840 H 0.76491 0.15113 0.88938 0.0
H1841 H 0.7786 0.14257 0.86612 0.0
C1842 C 0.85887 0.75425 0.8787 0.0
C1843 C 0.85465 0.73857 0.87737 0.0
C1844 C 0.86504 0.76213 0.86591 0.0
C1845 C 0.85806 0.76912 0.82906 0.0
H1846 H 0.89963 0.77107 0.81224 0.0
C1847 C 0.86808 0.7874 0.76618 0.0
C1848 C 0.88075 0.79699 0.76282 0.0
C1849 C 0.86667 0.78043 0.78069 0.0
C1850 C 0.88798 0.77079 0.81686 0.0
H1851 H 0.85479 0.71855 0.86217 0.0
H1852 H 0.86565 0.73233 0.84 0.0
H1853 H 0.8952 0.75916 0.8377 0.0
H1854 H 0.90208 0.80657 0.77189 0.0
H1855 H 0.89936 0.79481 0.79753 0.0
H1856 H 0.85061 0.78049 0.80842 0.0
C1857 C 0.86413 0.73847 0.85085 0.0
C1858 C 0.8855 0.76397 0.83138 0.0
C1859 C 0.85789 0.73064 0.86352 0.0
C1860 C 0.89221 0.79917 0.77416 0.0
C1861 C 0.89067 0.7924 0.78883 0.0
C1862 C 0.8605 0.77588 0.8146 0.0
C1863 C 0.86729 0.75435 0.85181 0.0
C1864 C 0.87049 0.76301 0.83747 0.0
C1865 C 0.87774 0.78312 0.79235 0.0
C1866 C 0.87545 0.77659 0.80816 0.0
H1867 H 0.85639 0.76067 0.88918 0.0
H1868 H 0.8673 0.77445 0.86678 0.0
H1869 H 0.84637 0.76834 0.83356 0.0
H1870 H 0.85922 0.7853 0.75756 0.0
H1871 H 0.85681 0.77298 0.7828 0.0
C1872 C 0.13146 0.26802 0.13716 0.0
C1873 C 0.118 0.25968 0.14079 0.0
C1874 C 0.14447 0.26043 0.13144 0.0
C1875 C 0.16098 0.22583 0.11408 0.0
H1876 H 0.19428 0.23255 0.14344 0.0
C1877 C 0.21783 0.19004 0.11284 0.0
C1878 C 0.23144 0.19734 0.11777 0.0
C1879 C 0.20358 0.19763 0.11414 0.0
C1880 C 0.18529 0.23074 0.1349 0.0
H1881 H 0.10704 0.23711 0.13994 0.0
H1882 H 0.12994 0.22375 0.12962 0.0
H1883 H 0.16987 0.246 0.14683 0.0
H1884 H 0.24125 0.21833 0.12722 0.0
H1885 H 0.21659 0.232 0.12881 0.0
H1886 H 0.17653 0.21087 0.10187 0.0
C1887 C 0.13034 0.23619 0.13131 0.0
C1888 C 0.17124 0.23839 0.13694 0.0
C1889 C 0.11725 0.24382 0.13714 0.0
C1890 C 0.23079 0.21246 0.12358 0.0
C1891 C 0.21663 0.22019 0.12457 0.0
C1892 C 0.1752 0.21834 0.11185 0.0
C1893 C 0.14424 0.24435 0.12912 0.0
C1894 C 0.15899 0.23606 0.12654 0.0
C1895 C 0.20277 0.21279 0.12013 0.0
C1896 C 0.18757 0.22073 0.12224 0.0
H1897 H 0.13229 0.28029 0.13973 0.0
H1898 H 0.15502 0.26698 0.12964 0.0
H1899 H 0.15165 0.22388 0.10593 0.0
H1900 H 0.21819 0.17833 0.1083 0.0
H1901 H 0.19321 0.19145 0.1108 0.0
C1902 C 0.22971 0.78509 0.88303 0.0
C1903 C 0.23039 0.80125 0.88176 0.0
C1904 C 0.21551 0.77744 0.88187 0.0
C1905 C 0.17306 0.7831 0.88404 0.0
H1906 H 0.17215 0.74715 0.85714 0.0
C1907 C 0.11733 0.75533 0.85801 0.0
C1908 C 0.11748 0.73917 0.85612 0.0
C1909 C 0.13035 0.76294 0.864 0.0
C1910 C 0.17223 0.75701 0.8649 0.0
H1911 H 0.2171 0.82227 0.87883 0.0
H1912 H 0.19211 0.80895 0.87694 0.0
H1913 H 0.19654 0.76029 0.86191 0.0
H1914 H 0.13058 0.71817 0.86017 0.0
H1915 H 0.15304 0.73132 0.87098 0.0
H1916 H 0.14856 0.77989 0.88672 0.0
C1917 C 0.20248 0.80214 0.87881 0.0
C1918 C 0.18622 0.76455 0.86763 0.0
C1919 C 0.21673 0.80976 0.87977 0.0
C1920 C 0.13023 0.73065 0.86148 0.0
C1921 C 0.14313 0.73819 0.86752 0.0
C1922 C 0.15898 0.77553 0.88129 0.0
C1923 C 0.20174 0.78588 0.87959 0.0
C1924 C 0.18682 0.77768 0.87722 0.0
C1925 C 0.14362 0.75445 0.8682 0.0
C1926 C 0.15845 0.76238 0.87171 0.0
H1927 H 0.24019 0.77837 0.88457 0.0
H1928 H 0.2153 0.76492 0.88267 0.0
H1929 H 0.17318 0.79313 0.89158 0.0
H1930 H 0.10772 0.76216 0.85375 0.0
H1931 H 0.13042 0.77548 0.86434 0.0
C1932 C 0.19314 0.22006 0.88906 0.0
C1933 C 0.19651 0.23259 0.87928 0.0
C1934 C 0.20075 0.20587 0.88715 0.0
C1935 C 0.22491 0.18419 0.8584 0.0
H1936 H 0.23238 0.15679 0.89324 0.0
C1937 C 0.26739 0.13282 0.85819 0.0
C1938 C 0.25927 0.11904 0.85496 0.0
C1939 C 0.25961 0.14597 0.86341 0.0
C1940 C 0.23026 0.16435 0.88345 0.0
H1941 H 0.21083 0.24051 0.86034 0.0
H1942 H 0.22487 0.21617 0.85759 0.0
H1943 H 0.21964 0.18177 0.8975 0.0
H1944 H 0.23688 0.10785 0.85609 0.0
H1945 H 0.22329 0.13088 0.86597 0.0
H1946 H 0.23621 0.16692 0.84455 0.0
C1947 C 0.21584 0.21687 0.86624 0.0
C1948 C 0.22289 0.17863 0.88582 0.0
C1949 C 0.20791 0.2309 0.86787 0.0
C1950 C 0.24345 0.11823 0.85859 0.0
C1951 C 0.23567 0.13141 0.86409 0.0
C1952 C 0.23248 0.17007 0.85612 0.0
C1953 C 0.21221 0.20403 0.87567 0.0
C1954 C 0.22011 0.18878 0.8733 0.0
C1955 C 0.24363 0.14547 0.86595 0.0
C1956 C 0.23516 0.16006 0.8686 0.0
H1957 H 0.18428 0.2211 0.89788 0.0
H1958 H 0.19737 0.19627 0.89447 0.0
H1959 H 0.22271 0.19139 0.84838 0.0
H1960 H 0.27962 0.13378 0.85558 0.0
H1961 H 0.26593 0.15673 0.86473 0.0
C1962 C 0.76803 0.2081 0.87 0.0
C1963 C 0.76624 0.19631 0.88098 0.0
C1964 C 0.78192 0.2163 0.86904 0.0
C1965 C 0.81971 0.22326 0.88924 0.0
H1966 H 0.83225 0.23551 0.8479 0.0
C1967 C 0.87971 0.24295 0.86 0.0
C1968 C 0.87866 0.25875 0.85621 0.0
C1969 C 0.86696 0.23529 0.86649 0.0
C1970 C 0.82887 0.23208 0.85949 0.0
H1971 H 0.77725 0.18383 0.8997 0.0
H1972 H 0.80195 0.19745 0.89744 0.0
H1973 H 0.80766 0.22235 0.85157 0.0
H1974 H 0.86421 0.27925 0.85763 0.0
H1975 H 0.84203 0.26583 0.86886 0.0
H1976 H 0.84144 0.23281 0.89685 0.0
C1977 C 0.79253 0.20084 0.88991 0.0
C1978 C 0.81469 0.22472 0.86167 0.0
C1979 C 0.77844 0.19294 0.89115 0.0
C1980 C 0.86529 0.26704 0.86037 0.0
C1981 C 0.85262 0.25942 0.86682 0.0
C1982 C 0.83405 0.23051 0.88699 0.0
C1983 C 0.79453 0.21253 0.8787 0.0
C1984 C 0.8098 0.22032 0.87658 0.0
C1985 C 0.85318 0.24341 0.86936 0.0
C1986 C 0.83862 0.23501 0.87209 0.0
H1987 H 0.75863 0.21105 0.86224 0.0
H1988 H 0.78278 0.22555 0.86061 0.0
H1989 H 0.81631 0.22021 0.90091 0.0
H1990 H 0.88983 0.23626 0.8568 0.0
H1991 H 0.86748 0.22287 0.86824 0.0
C1992 C 0.75697 0.88085 0.85777 0.0
C1993 C 0.74074 0.88153 0.85762 0.0
C1994 C 0.7645 0.86766 0.8635 0.0
C1995 C 0.75632 0.8261 0.86735 0.0
H1996 H 0.79618 0.82423 0.88783 0.0
C1997 C 0.78449 0.76813 0.88482 0.0
C1998 C 0.79998 0.76636 0.88038 0.0
C1999 C 0.77734 0.78263 0.88383 0.0
C2000 C 0.78506 0.82461 0.88206 0.0
H2001 H 0.7197 0.86982 0.86453 0.0
H2002 H 0.73278 0.84716 0.87506 0.0
H2003 H 0.78356 0.84937 0.88395 0.0
H2004 H 0.82043 0.77812 0.87198 0.0
H2005 H 0.80805 0.80367 0.87059 0.0
H2006 H 0.75784 0.80145 0.86528 0.0
C2007 C 0.73973 0.85649 0.87037 0.0
C2008 C 0.77785 0.83898 0.87984 0.0
C2009 C 0.73224 0.86954 0.86452 0.0
C2010 C 0.8084 0.7793 0.87533 0.0
C2011 C 0.80136 0.79387 0.87466 0.0
C2012 C 0.76347 0.81179 0.86963 0.0
C2013 C 0.75589 0.85505 0.86923 0.0
C2014 C 0.7634 0.83988 0.87242 0.0
C2015 C 0.7857 0.79565 0.87871 0.0
C2016 C 0.77794 0.81088 0.87694 0.0
H2017 H 0.76376 0.88986 0.85227 0.0
H2018 H 0.77696 0.8669 0.86241 0.0
H2019 H 0.74539 0.82638 0.86122 0.0
H2020 H 0.77784 0.75824 0.88875 0.0
H2021 H 0.76528 0.78368 0.88708 0.0
C2022 C 0.77718 0.80486 0.10798 0.0
C2023 C 0.76519 0.80174 0.11848 0.0
C2024 C 0.79145 0.79735 0.10938 0.0
C2025 C 0.81469 0.77464 0.1378 0.0
H2026 H 0.83993 0.76506 0.10187 0.0
C2027 C 0.86492 0.73139 0.13722 0.0
C2028 C 0.87854 0.73948 0.14095 0.0
C2029 C 0.85207 0.73924 0.13145 0.0
C2030 C 0.83298 0.7678 0.11194 0.0
H2031 H 0.75828 0.78789 0.13817 0.0
H2032 H 0.7828 0.77406 0.14013 0.0
H2033 H 0.81476 0.77768 0.09838 0.0
H2034 H 0.88988 0.76186 0.1403 0.0
H2035 H 0.86721 0.77565 0.12998 0.0
H2036 H 0.83274 0.76417 0.15122 0.0
C2037 C 0.78159 0.78284 0.13126 0.0
C2038 C 0.81861 0.77507 0.11002 0.0
C2039 C 0.76749 0.79067 0.13012 0.0
C2040 C 0.87957 0.75533 0.13742 0.0
C2041 C 0.86663 0.76322 0.13159 0.0
C2042 C 0.82892 0.76726 0.13967 0.0
C2043 C 0.79388 0.78625 0.12108 0.0
C2044 C 0.80923 0.77854 0.12294 0.0
C2045 C 0.85268 0.75527 0.12913 0.0
C2046 C 0.83814 0.76382 0.12679 0.0
H2047 H 0.77565 0.81343 0.09894 0.0
H2048 H 0.80064 0.80051 0.10147 0.0
H2049 H 0.80805 0.77738 0.14808 0.0
H2050 H 0.86383 0.71914 0.13977 0.0
H2051 H 0.84135 0.73296 0.1297 0.0
C2052 C 0.20953 0.76673 0.12562 0.0
C2053 C 0.19674 0.76532 0.11578 0.0
C2054 C 0.21728 0.78087 0.12694 0.0
C2055 C 0.2205 0.82058 0.10932 0.0
H2056 H 0.23846 0.82982 0.14941 0.0
C2057 C 0.24218 0.87985 0.13743 0.0
C2058 C 0.25791 0.87891 0.14143 0.0
C2059 C 0.23457 0.86689 0.13125 0.0
C2060 C 0.23346 0.82736 0.13817 0.0
H2061 H 0.18193 0.77731 0.09954 0.0
H2062 H 0.19476 0.80234 0.10255 0.0
H2063 H 0.22534 0.80526 0.14547 0.0
H2064 H 0.27836 0.86434 0.14066 0.0
H2065 H 0.26501 0.84177 0.1302 0.0
H2066 H 0.22828 0.84327 0.10247 0.0
C2067 C 0.19931 0.79249 0.10882 0.0
C2068 C 0.22609 0.81319 0.1358 0.0
C2069 C 0.19185 0.77819 0.10716 0.0
C2070 C 0.26618 0.86534 0.13787 0.0
C2071 C 0.25859 0.85243 0.13186 0.0
C2072 C 0.22765 0.83495 0.11183 0.0
C2073 C 0.21208 0.79408 0.11884 0.0
C2074 C 0.21966 0.80946 0.12128 0.0
C2075 C 0.24265 0.85293 0.12905 0.0
C2076 C 0.2343 0.83831 0.12623 0.0
H2077 H 0.21362 0.75685 0.1322 0.0
H2078 H 0.22736 0.78138 0.13436 0.0
H2079 H 0.21589 0.81813 0.09793 0.0
H2080 H 0.23552 0.89014 0.14011 0.0
H2081 H 0.22221 0.86742 0.12922 0.0
C2082 C 0.7582 0.11606 0.13933 0.0
C2083 C 0.74198 0.11609 0.13983 0.0
C2084 C 0.76616 0.12897 0.13359 0.0
C2085 C 0.76146 0.16664 0.11286 0.0
H2086 H 0.79338 0.1802 0.14133 0.0
C2087 C 0.7847 0.22961 0.11369 0.0
C2088 C 0.80043 0.2317 0.11704 0.0
C2089 C 0.77801 0.21489 0.11491 0.0
C2090 C 0.78469 0.17652 0.13308 0.0
H2091 H 0.72134 0.12882 0.13348 0.0
H2092 H 0.73512 0.15122 0.12343 0.0
H2093 H 0.78153 0.15495 0.14479 0.0
H2094 H 0.82172 0.22032 0.12365 0.0
H2095 H 0.81028 0.19449 0.12517 0.0
H2096 H 0.76446 0.1884 0.10131 0.0
C2097 C 0.74179 0.14137 0.12743 0.0
C2098 C 0.77791 0.16197 0.13504 0.0
C2099 C 0.73387 0.12853 0.1332 0.0
C2100 C 0.80949 0.21892 0.12125 0.0
C2101 C 0.8029 0.20418 0.12218 0.0
C2102 C 0.76828 0.18121 0.11086 0.0
C2103 C 0.75801 0.14203 0.12818 0.0
C2104 C 0.76615 0.15688 0.12502 0.0
C2105 C 0.78703 0.20199 0.11922 0.0
C2106 C 0.77993 0.18637 0.121 0.0
H2107 H 0.76473 0.10667 0.14449 0.0
H2108 H 0.77869 0.12903 0.13407 0.0
H2109 H 0.75247 0.16304 0.10489 0.0
H2110 H 0.77755 0.23941 0.11046 0.0
H2111 H 0.76572 0.2137 0.11278 0.0
C2112 C 0.63689 0.61656 0.74334 0.0
C2113 C 0.63855 0.61688 0.75952 0.0
C2114 C 0.63123 0.62961 0.73549 0.0
C2115 C 0.63297 0.6712 0.74044 0.0
H2116 H 0.6048 0.67403 0.70565 0.0
C2117 C 0.61866 0.7299 0.71214 0.0
C2118 C 0.61791 0.73022 0.69595 0.0
C2119 C 0.61955 0.71575 0.71998 0.0
C2120 C 0.61282 0.67339 0.71526 0.0
H2121 H 0.63429 0.63029 0.78028 0.0
H2122 H 0.62421 0.65287 0.76667 0.0
H2123 H 0.60817 0.64921 0.71905 0.0
H2124 H 0.61713 0.71632 0.67513 0.0
H2125 H 0.61873 0.69149 0.68875 0.0
H2126 H 0.63809 0.69509 0.73652 0.0
C2127 C 0.62748 0.64274 0.76001 0.0
C2128 C 0.61468 0.6592 0.72294 0.0
C2129 C 0.63309 0.62977 0.7678 0.0
C2130 C 0.61782 0.71626 0.68766 0.0
C2131 C 0.61859 0.70208 0.69548 0.0
C2132 C 0.63124 0.68529 0.73273 0.0
C2133 C 0.62721 0.64308 0.74376 0.0
C2134 C 0.62472 0.65802 0.73565 0.0
C2135 C 0.61958 0.70165 0.71174 0.0
C2136 C 0.62112 0.6866 0.72005 0.0
H2137 H 0.64127 0.60686 0.73669 0.0
H2138 H 0.63117 0.62961 0.72295 0.0
H2139 H 0.64108 0.67054 0.75 0.0
H2140 H 0.61863 0.7406 0.71871 0.0
H2141 H 0.6201 0.71585 0.73251 0.0
C2142 C 0.27628 0.60617 0.69673 0.0
C2143 C 0.26549 0.61835 0.6967 0.0
C2144 C 0.29045 0.60781 0.70437 0.0
C2145 C 0.31691 0.63836 0.71832 0.0
H2146 H 0.33791 0.60421 0.73862 0.0
C2147 C 0.37965 0.64458 0.73788 0.0
C2148 C 0.3819 0.6414 0.75364 0.0
C2149 C 0.36622 0.63952 0.73043 0.0
C2150 C 0.33216 0.61382 0.73296 0.0
H2151 H 0.26061 0.6414 0.70533 0.0
H2152 H 0.28507 0.6441 0.71914 0.0
H2153 H 0.31193 0.60036 0.728 0.0
H2154 H 0.37267 0.62961 0.77373 0.0
H2155 H 0.34946 0.62019 0.76054 0.0
H2156 H 0.33694 0.6519 0.72356 0.0
C2157 C 0.28289 0.63349 0.71279 0.0
C2158 C 0.31733 0.61162 0.72682 0.0
C2159 C 0.26886 0.63196 0.70493 0.0
C2160 C 0.37123 0.63198 0.76149 0.0
C2161 C 0.35795 0.62667 0.75397 0.0
C2162 C 0.3317 0.64053 0.7244 0.0
C2163 C 0.29401 0.62158 0.71233 0.0
C2164 C 0.30955 0.62387 0.71939 0.0
C2165 C 0.35498 0.63101 0.73858 0.0
C2166 C 0.33952 0.62827 0.73169 0.0
H2167 H 0.27397 0.59556 0.69043 0.0
H2168 H 0.29879 0.59847 0.7036 0.0
H2169 H 0.31138 0.64801 0.71254 0.0
H2170 H 0.38754 0.65214 0.7317 0.0
H2171 H 0.36425 0.64293 0.71852 0.0
C2172 C 0.3887 0.27136 0.71008 0.0
C2173 C 0.38093 0.26808 0.69619 0.0
C2174 C 0.38725 0.28598 0.71702 0.0
C2175 C 0.36227 0.32137 0.71574 0.0
H2176 H 0.39549 0.33958 0.73981 0.0
C2177 C 0.35671 0.38305 0.7391 0.0
C2178 C 0.35836 0.38383 0.75524 0.0
C2179 C 0.36214 0.37009 0.731 0.0
C2180 C 0.38616 0.33463 0.73305 0.0
H2181 H 0.36621 0.27748 0.67826 0.0
H2182 H 0.36443 0.30317 0.68969 0.0
H2183 H 0.39924 0.31427 0.72766 0.0
H2184 H 0.36803 0.37253 0.77542 0.0
H2185 H 0.37799 0.35017 0.76121 0.0
H2186 H 0.34929 0.3418 0.72102 0.0
C2187 C 0.37102 0.2944 0.69576 0.0
C2188 C 0.38822 0.32006 0.72619 0.0
C2189 C 0.37213 0.27971 0.6891 0.0
C2190 C 0.36682 0.37225 0.76293 0.0
C2191 C 0.37245 0.35943 0.75481 0.0
C2192 C 0.36033 0.33599 0.72236 0.0
C2193 C 0.37832 0.29771 0.70997 0.0
C2194 C 0.37629 0.31322 0.71741 0.0
C2195 C 0.36949 0.35787 0.7389 0.0
C2196 C 0.37223 0.3428 0.73107 0.0
H2197 H 0.39547 0.26248 0.71581 0.0
H2198 H 0.39286 0.28794 0.72805 0.0
H2199 H 0.35261 0.31638 0.70952 0.0
H2200 H 0.34997 0.39167 0.73296 0.0
H2201 H 0.35983 0.36923 0.71871 0.0
C2202 C 0.61624 0.36046 0.74345 0.0
C2203 C 0.61723 0.3565 0.75921 0.0
C2204 C 0.62915 0.36667 0.73581 0.0
C2205 C 0.66944 0.36054 0.73631 0.0
H2206 H 0.67634 0.39881 0.71389 0.0
C2207 C 0.72949 0.37403 0.71214 0.0
C2208 C 0.73055 0.38191 0.69803 0.0
C2209 C 0.71531 0.37295 0.7198 0.0
C2210 C 0.67455 0.38796 0.7199 0.0
H2211 H 0.63177 0.35733 0.77966 0.0
H2212 H 0.65421 0.36793 0.76629 0.0
H2213 H 0.65129 0.39415 0.7264 0.0
H2214 H 0.71798 0.39499 0.68077 0.0
H2215 H 0.69289 0.3923 0.6936 0.0
H2216 H 0.69211 0.35381 0.72948 0.0
C2217 C 0.64358 0.36619 0.75986 0.0
C2218 C 0.66023 0.38538 0.7271 0.0
C2219 C 0.63075 0.36014 0.76747 0.0
C2220 C 0.71733 0.38888 0.69172 0.0
C2221 C 0.70301 0.38742 0.69915 0.0
C2222 C 0.68354 0.36294 0.72891 0.0
C2223 C 0.64309 0.36891 0.74387 0.0
C2224 C 0.65771 0.37173 0.73553 0.0
C2225 C 0.70177 0.37927 0.71323 0.0
C2226 C 0.68644 0.37678 0.72078 0.0
H2227 H 0.60599 0.35767 0.73681 0.0
H2228 H 0.62861 0.36863 0.72343 0.0
H2229 H 0.66762 0.34982 0.7426 0.0
H2230 H 0.73966 0.36878 0.71728 0.0
H2231 H 0.71501 0.36705 0.73085 0.0
C2232 C 0.62898 0.37221 0.23693 0.0
C2233 C 0.63919 0.38254 0.24425 0.0
C2234 C 0.62385 0.35893 0.24464 0.0
C2235 C 0.63999 0.3304 0.26828 0.0
H2236 H 0.59918 0.31596 0.28003 0.0
C2237 C 0.63209 0.2751 0.30437 0.0
C2238 C 0.61886 0.26591 0.30216 0.0
C2239 C 0.63362 0.28931 0.29679 0.0
C2240 C 0.61063 0.31968 0.27657 0.0
H2241 H 0.65154 0.38756 0.26547 0.0
H2242 H 0.6429 0.36406 0.27883 0.0
H2243 H 0.60222 0.34171 0.26846 0.0
H2244 H 0.597 0.26432 0.2899 0.0
H2245 H 0.59988 0.28891 0.27631 0.0
H2246 H 0.64849 0.30838 0.27563 0.0
C2247 C 0.63856 0.36648 0.26731 0.0
C2248 C 0.61234 0.33447 0.27011 0.0
C2249 C 0.64334 0.37998 0.25975 0.0
C2250 C 0.6073 0.27116 0.29195 0.0
C2251 C 0.60891 0.28533 0.28423 0.0
C2252 C 0.63828 0.31555 0.27443 0.0
C2253 C 0.62923 0.35562 0.2596 0.0
C2254 C 0.62707 0.34001 0.26621 0.0
C2255 C 0.62205 0.29467 0.28664 0.0
C2256 C 0.62362 0.31007 0.27896 0.0
H2257 H 0.62594 0.37381 0.22486 0.0
H2258 H 0.61674 0.35063 0.23848 0.0
H2259 H 0.65143 0.33436 0.26499 0.0
H2260 H 0.64118 0.27148 0.31222 0.0
H2261 H 0.64377 0.29625 0.29922 0.0
C2262 C 0.72562 0.60838 0.29139 0.0
C2263 C 0.7314 0.62042 0.30075 0.0
C2264 C 0.71151 0.61003 0.28364 0.0
C2265 C 0.6824 0.63968 0.27185 0.0
H2266 H 0.65452 0.60446 0.2701 0.0
C2267 C 0.61759 0.64598 0.25985 0.0
C2268 C 0.61421 0.6411 0.24473 0.0
C2269 C 0.63128 0.64122 0.26701 0.0
C2270 C 0.66225 0.61433 0.27053 0.0
H2271 H 0.7269 0.64369 0.30913 0.0
H2272 H 0.70223 0.64641 0.296 0.0
H2273 H 0.68043 0.60129 0.28118 0.0
H2274 H 0.62171 0.62673 0.22561 0.0
H2275 H 0.6453 0.61763 0.23859 0.0
H2276 H 0.66393 0.65278 0.26171 0.0
C2277 C 0.70871 0.63581 0.29433 0.0
C2278 C 0.67712 0.61254 0.27672 0.0
C2279 C 0.72286 0.63421 0.30196 0.0
C2280 C 0.62398 0.63035 0.23741 0.0
C2281 C 0.63747 0.62526 0.24475 0.0
C2282 C 0.6675 0.6415 0.26593 0.0
C2283 C 0.70277 0.6237 0.28515 0.0
C2284 C 0.68733 0.62525 0.27763 0.0
C2285 C 0.64153 0.63123 0.2593 0.0
C2286 C 0.65728 0.6289 0.26539 0.0
H2287 H 0.73195 0.59762 0.29011 0.0
H2288 H 0.70746 0.60057 0.27648 0.0
H2289 H 0.69004 0.64962 0.27194 0.0
H2290 H 0.61045 0.65461 0.26551 0.0
H2291 H 0.63432 0.64603 0.2782 0.0
C2292 C 0.35884 0.63157 0.22858 0.0
C2293 C 0.35482 0.61829 0.23713 0.0
C2294 C 0.36457 0.6447 0.23599 0.0
C2295 C 0.38266 0.66095 0.2702 0.0
H2296 H 0.35445 0.69539 0.26409 0.0
C2297 C 0.3845 0.71634 0.30802 0.0
C2298 C 0.38023 0.73043 0.30119 0.0
C2299 C 0.38322 0.7025 0.29969 0.0
C2300 C 0.36267 0.68606 0.26571 0.0
H2301 H 0.35508 0.60783 0.25992 0.0
H2302 H 0.36581 0.63077 0.27289 0.0
H2303 H 0.35012 0.67117 0.25038 0.0
H2304 H 0.37193 0.7415 0.28034 0.0
H2305 H 0.37011 0.71743 0.26551 0.0
H2306 H 0.39543 0.6759 0.2853 0.0
C2307 C 0.3642 0.63098 0.26046 0.0
C2308 C 0.3601 0.67214 0.25792 0.0
C2309 C 0.35818 0.61785 0.25304 0.0
C2310 C 0.37511 0.73065 0.28582 0.0
C2311 C 0.37399 0.71686 0.27741 0.0
C2312 C 0.3854 0.675 0.27784 0.0
C2313 C 0.36677 0.6447 0.25207 0.0
C2314 C 0.37002 0.65946 0.26014 0.0
C2315 C 0.37777 0.70254 0.28432 0.0
C2316 C 0.37537 0.68773 0.27576 0.0
H2317 H 0.35651 0.6322 0.21626 0.0
H2318 H 0.36662 0.65511 0.22927 0.0
H2319 H 0.39048 0.65131 0.27202 0.0
H2320 H 0.38854 0.71601 0.31989 0.0
H2321 H 0.38607 0.69175 0.30548 0.0
C2322 C 0.37766 0.35595 0.25379 0.0
C2323 C 0.37793 0.35519 0.23758 0.0
C2324 C 0.36447 0.36139 0.26147 0.0
C2325 C 0.32235 0.36533 0.25469 0.0
H2326 H 0.32304 0.38565 0.29473 0.0
C2327 C 0.26698 0.3848 0.28707 0.0
C2328 C 0.26589 0.37926 0.30231 0.0
C2329 C 0.28086 0.38346 0.27887 0.0
C2330 C 0.32272 0.37996 0.28355 0.0
H2331 H 0.36518 0.36031 0.21661 0.0
H2332 H 0.34251 0.37053 0.22991 0.0
H2333 H 0.34727 0.38149 0.28074 0.0
H2334 H 0.27833 0.36847 0.32119 0.0
H2335 H 0.30288 0.36662 0.30702 0.0
H2336 H 0.29776 0.36394 0.25752 0.0
C2337 C 0.35219 0.36652 0.23679 0.0
C2338 C 0.33658 0.37752 0.27556 0.0
C2339 C 0.36526 0.3609 0.22915 0.0
C2340 C 0.27894 0.37271 0.30939 0.0
C2341 C 0.29295 0.37176 0.30134 0.0
C2342 C 0.3085 0.36796 0.26259 0.0
C2343 C 0.35139 0.3663 0.25305 0.0
C2344 C 0.3366 0.37 0.2611 0.0
C2345 C 0.29398 0.37696 0.28595 0.0
C2346 C 0.30858 0.37511 0.27718 0.0
H2347 H 0.38714 0.35126 0.26054 0.0
H2348 H 0.36421 0.36085 0.27399 0.0
H2349 H 0.3219 0.3592 0.24376 0.0
H2350 H 0.25699 0.38984 0.28139 0.0
H2351 H 0.28138 0.38756 0.26702 0.0
C2352 C 0.70867 0.62316 0.73012 0.0
C2353 C 0.69412 0.61609 0.73056 0.0
C2354 C 0.71675 0.62427 0.71619 0.0
C2355 C 0.71756 0.61025 0.67516 0.0
H2356 H 0.74166 0.64774 0.66965 0.0
C2357 C 0.74297 0.63772 0.61783 0.0
C2358 C 0.7587 0.64164 0.6191 0.0
C2359 C 0.73509 0.63148 0.63058 0.0
C2360 C 0.73502 0.63718 0.67108 0.0
H2361 H 0.67652 0.60437 0.71716 0.0
H2362 H 0.69026 0.607 0.69247 0.0
H2363 H 0.72769 0.64371 0.69369 0.0
H2364 H 0.77889 0.6406 0.63399 0.0
H2365 H 0.76509 0.63002 0.65619 0.0
H2366 H 0.72458 0.60426 0.65199 0.0
C2367 C 0.69572 0.61131 0.7029 0.0
C2368 C 0.7271 0.63477 0.68491 0.0
C2369 C 0.68778 0.60989 0.71697 0.0
C2370 C 0.76671 0.63789 0.63276 0.0
C2371 C 0.75885 0.63183 0.64546 0.0
C2372 C 0.7253 0.61283 0.66113 0.0
C2373 C 0.71026 0.6187 0.70229 0.0
C2374 C 0.71841 0.62119 0.68727 0.0
C2375 C 0.74288 0.62917 0.64467 0.0
C2376 C 0.73423 0.62624 0.65911 0.0
H2377 H 0.7138 0.6278 0.74059 0.0
H2378 H 0.7281 0.62959 0.71634 0.0
H2379 H 0.71112 0.59959 0.67657 0.0
H2380 H 0.73651 0.64056 0.60746 0.0
H2381 H 0.72273 0.62954 0.6298 0.0
C2382 C 0.3693 0.68956 0.71918 0.0
C2383 C 0.37759 0.69648 0.73128 0.0
C2384 C 0.36809 0.69693 0.70484 0.0
C2385 C 0.38473 0.72932 0.6812 0.0
H2386 H 0.34728 0.72274 0.65736 0.0
C2387 C 0.36269 0.76635 0.62931 0.0
C2388 C 0.35617 0.75819 0.61683 0.0
C2389 C 0.36828 0.75842 0.64226 0.0
C2390 C 0.3579 0.72451 0.6638 0.0
H2391 H 0.391 0.71653 0.7381 0.0
H2392 H 0.38806 0.72997 0.71338 0.0
H2393 H 0.35 0.71052 0.68251 0.0
H2394 H 0.35124 0.73539 0.60759 0.0
H2395 H 0.36086 0.72149 0.63034 0.0
H2396 H 0.39208 0.74412 0.66259 0.0
C2397 C 0.38298 0.71858 0.71465 0.0
C2398 C 0.35951 0.71746 0.67824 0.0
C2399 C 0.38456 0.71097 0.72888 0.0
C2400 C 0.35642 0.74194 0.61696 0.0
C2401 C 0.36175 0.73401 0.63003 0.0
C2402 C 0.38295 0.73664 0.66684 0.0
C2403 C 0.37476 0.71163 0.70238 0.0
C2404 C 0.37301 0.7196 0.68712 0.0
C2405 C 0.36715 0.74222 0.64302 0.0
C2406 C 0.36959 0.73414 0.65794 0.0
H2407 H 0.36409 0.67824 0.72068 0.0
H2408 H 0.36207 0.69093 0.69563 0.0
H2409 H 0.39537 0.73115 0.68755 0.0
H2410 H 0.3625 0.77891 0.62949 0.0
H2411 H 0.37233 0.76502 0.65213 0.0
C2412 C 0.30335 0.38958 0.71955 0.0
C2413 C 0.30291 0.37801 0.73097 0.0
C2414 C 0.29514 0.38773 0.7057 0.0
C2415 C 0.27559 0.35712 0.68228 0.0
H2416 H 0.25767 0.39214 0.66052 0.0
C2417 C 0.22848 0.35162 0.63623 0.0
C2418 C 0.23495 0.35258 0.62132 0.0
C2419 C 0.23652 0.35724 0.64903 0.0
C2420 C 0.26273 0.38233 0.6665 0.0
H2421 H 0.29308 0.35588 0.73736 0.0
H2422 H 0.27804 0.35298 0.71373 0.0
H2423 H 0.2721 0.39647 0.68458 0.0
H2424 H 0.25426 0.36148 0.60796 0.0
H2425 H 0.26822 0.37168 0.63055 0.0
H2426 H 0.26557 0.343 0.66452 0.0
C2427 C 0.28529 0.36314 0.71495 0.0
C2428 C 0.27105 0.38476 0.68021 0.0
C2429 C 0.29382 0.3648 0.72856 0.0
C2430 C 0.24901 0.36053 0.61931 0.0
C2431 C 0.25699 0.36635 0.63218 0.0
C2432 C 0.26709 0.35472 0.66878 0.0
C2433 C 0.28603 0.37444 0.70319 0.0
C2434 C 0.27749 0.37214 0.68836 0.0
C2435 C 0.251 0.36424 0.64712 0.0
C2436 C 0.26058 0.36727 0.66086 0.0
H2437 H 0.31033 0.39988 0.72118 0.0
H2438 H 0.29619 0.39659 0.6969 0.0
H2439 H 0.28069 0.34714 0.68789 0.0
H2440 H 0.21753 0.34583 0.63816 0.0
H2441 H 0.23174 0.35553 0.66051 0.0
C2442 C 0.63741 0.25426 0.61778 0.0
C2443 C 0.6406 0.23831 0.61839 0.0
C2444 C 0.63169 0.26194 0.63091 0.0
C2445 C 0.63464 0.25807 0.67275 0.0
H2446 H 0.60326 0.29007 0.67526 0.0
C2447 C 0.61767 0.28431 0.73134 0.0
C2448 C 0.61525 0.30033 0.7319 0.0
C2449 C 0.61903 0.27677 0.71708 0.0
C2450 C 0.61216 0.28126 0.67471 0.0
H2451 H 0.63899 0.21763 0.63252 0.0
H2452 H 0.62883 0.23091 0.65522 0.0
H2453 H 0.60803 0.27693 0.65053 0.0
H2454 H 0.61204 0.32115 0.71836 0.0
H2455 H 0.61473 0.30808 0.6933 0.0
H2456 H 0.63918 0.26252 0.69661 0.0
C2457 C 0.63104 0.23758 0.64482 0.0
C2458 C 0.61484 0.27373 0.66057 0.0
C2459 C 0.63675 0.22996 0.6318 0.0
C2460 C 0.61392 0.30874 0.71808 0.0
C2461 C 0.61535 0.30123 0.70378 0.0
C2462 C 0.63207 0.26563 0.68677 0.0
C2463 C 0.62909 0.25373 0.64474 0.0
C2464 C 0.62601 0.26195 0.65952 0.0
C2465 C 0.61812 0.28516 0.70311 0.0
C2466 C 0.62072 0.27724 0.688 0.0
H2467 H 0.64042 0.26097 0.60762 0.0
H2468 H 0.63029 0.27441 0.63055 0.0
H2469 H 0.6436 0.24931 0.6722 0.0
H2470 H 0.61863 0.27764 0.74193 0.0
H2471 H 0.62086 0.26435 0.71702 0.0
C2472 C 0.68847 0.38737 0.28154 0.0
C2473 C 0.69435 0.37983 0.26843 0.0
C2474 C 0.69627 0.38642 0.29569 0.0
C2475 C 0.72629 0.36279 0.31574 0.0
H2476 H 0.72441 0.39582 0.34622 0.0
C2477 C 0.76464 0.36438 0.36935 0.0
C2478 C 0.75628 0.35808 0.38182 0.0
C2479 C 0.75693 0.37045 0.35655 0.0
C2480 C 0.72495 0.38656 0.33777 0.0
H2481 H 0.71314 0.36604 0.25935 0.0
H2482 H 0.72731 0.36501 0.28378 0.0
H2483 H 0.71202 0.39932 0.32092 0.0
H2484 H 0.73338 0.35453 0.39137 0.0
H2485 H 0.71981 0.3655 0.36888 0.0
H2486 H 0.73967 0.35032 0.33249 0.0
C2487 C 0.71636 0.37109 0.28349 0.0
C2488 C 0.7178 0.38846 0.32332 0.0
C2489 C 0.70834 0.37173 0.26945 0.0
C2490 C 0.74009 0.35949 0.38201 0.0
C2491 C 0.73234 0.36566 0.36914 0.0
C2492 C 0.7336 0.36103 0.33002 0.0
C2493 C 0.71031 0.3782 0.2969 0.0
C2494 C 0.71831 0.37655 0.31213 0.0
C2495 C 0.74074 0.37051 0.35609 0.0
C2496 C 0.7329 0.37283 0.34114 0.0
H2497 H 0.67765 0.39369 0.2809 0.0
H2498 H 0.69108 0.39185 0.30573 0.0
H2499 H 0.7267 0.3532 0.30767 0.0
H2500 H 0.77714 0.36341 0.36893 0.0
H2501 H 0.76358 0.37407 0.34654 0.0
C2502 C 0.62604 0.71117 0.26649 0.0
C2503 C 0.61703 0.69772 0.2658 0.0
C2504 C 0.62733 0.71941 0.28036 0.0
C2505 C 0.61075 0.72247 0.32051 0.0
H2506 H 0.64982 0.74313 0.32829 0.0
C2507 C 0.63778 0.74504 0.37937 0.0
C2508 C 0.64174 0.76081 0.37869 0.0
C2509 C 0.63191 0.73755 0.36621 0.0
C2510 C 0.63884 0.73742 0.32622 0.0
H2511 H 0.60228 0.68219 0.27875 0.0
H2512 H 0.60532 0.69588 0.30329 0.0
H2513 H 0.64595 0.72953 0.30396 0.0
H2514 H 0.64125 0.78143 0.3643 0.0
H2515 H 0.63148 0.76825 0.34135 0.0
H2516 H 0.60415 0.72993 0.34336 0.0
C2517 C 0.61092 0.70057 0.2931 0.0
C2518 C 0.63652 0.72975 0.3122 0.0
C2519 C 0.60927 0.6926 0.2791 0.0
C2520 C 0.63844 0.76922 0.36513 0.0
C2521 C 0.63287 0.76172 0.35198 0.0
C2522 C 0.61324 0.7299 0.33473 0.0
C2523 C 0.62004 0.71407 0.29398 0.0
C2524 C 0.62239 0.72225 0.30904 0.0
C2525 C 0.63007 0.74575 0.35227 0.0
C2526 C 0.62726 0.73751 0.33758 0.0
H2527 H 0.63191 0.71541 0.25624 0.0
H2528 H 0.63406 0.72998 0.28035 0.0
H2529 H 0.59963 0.71708 0.3185 0.0
H2530 H 0.6403 0.73827 0.38962 0.0
H2531 H 0.62984 0.72518 0.36659 0.0
C2532 C 0.25875 0.64228 0.38029 0.0
C2533 C 0.24262 0.64074 0.38121 0.0
C2534 C 0.26664 0.63714 0.36712 0.0
C2535 C 0.2648 0.61384 0.33157 0.0
H2536 H 0.28571 0.64887 0.31282 0.0
C2537 C 0.2868 0.6121 0.26821 0.0
C2538 C 0.30033 0.62039 0.2647 0.0
C2539 C 0.27984 0.61358 0.28277 0.0
C2540 C 0.28025 0.63882 0.31795 0.0
H2541 H 0.22224 0.63152 0.36992 0.0
H2542 H 0.23613 0.62201 0.34715 0.0
H2543 H 0.27469 0.65143 0.33853 0.0
H2544 H 0.31745 0.63636 0.27362 0.0
H2545 H 0.30592 0.63834 0.29919 0.0
H2546 H 0.27059 0.60108 0.31113 0.0
C2547 C 0.24264 0.62729 0.35647 0.0
C2548 C 0.27389 0.64033 0.33271 0.0
C2549 C 0.23471 0.63269 0.3695 0.0
C2550 C 0.30688 0.63004 0.27598 0.0
C2551 C 0.30017 0.63121 0.29063 0.0
C2552 C 0.27145 0.6122 0.31687 0.0
C2553 C 0.25854 0.63015 0.35485 0.0
C2554 C 0.26612 0.62788 0.33966 0.0
C2555 C 0.28649 0.62311 0.29423 0.0
C2556 C 0.27927 0.62469 0.30985 0.0
H2557 H 0.26506 0.64867 0.38905 0.0
H2558 H 0.27893 0.63941 0.36613 0.0
H2559 H 0.25875 0.60411 0.33667 0.0
H2560 H 0.28148 0.60465 0.25963 0.0
H2561 H 0.26917 0.60738 0.28494 0.0
C2562 C 0.36239 0.23227 0.36672 0.0
C2563 C 0.35681 0.24091 0.3793 0.0
C2564 C 0.36819 0.23969 0.35363 0.0
C2565 C 0.38143 0.27647 0.33668 0.0
H2566 H 0.36029 0.26113 0.30011 0.0
C2567 C 0.37995 0.30965 0.27835 0.0
C2568 C 0.381 0.30086 0.26476 0.0
C2569 C 0.37888 0.3023 0.29274 0.0
C2570 C 0.36651 0.26541 0.31013 0.0
H2571 H 0.35402 0.26402 0.38867 0.0
H2572 H 0.36437 0.27713 0.36567 0.0
H2573 H 0.35613 0.24852 0.32494 0.0
H2574 H 0.38193 0.27771 0.25521 0.0
H2575 H 0.37992 0.26474 0.28037 0.0
H2576 H 0.39176 0.29344 0.32178 0.0
C2577 C 0.36426 0.26458 0.36599 0.0
C2578 C 0.36411 0.25819 0.32437 0.0
C2579 C 0.35843 0.2571 0.37918 0.0
C2580 C 0.38114 0.28465 0.26564 0.0
C2581 C 0.3799 0.27729 0.28001 0.0
C2582 C 0.38391 0.28368 0.32236 0.0
C2583 C 0.36851 0.25592 0.35284 0.0
C2584 C 0.37156 0.26361 0.33779 0.0
C2585 C 0.37865 0.28603 0.29373 0.0
C2586 C 0.37646 0.27822 0.30892 0.0
H2587 H 0.3613 0.21975 0.36657 0.0
H2588 H 0.37168 0.23272 0.34379 0.0
H2589 H 0.38734 0.28085 0.34684 0.0
H2590 H 0.37985 0.32219 0.27782 0.0
H2591 H 0.37778 0.30937 0.30305 0.0
C2592 C 0.72701 0.70811 0.60847 0.0
C2593 C 0.73208 0.6974 0.61965 0.0
C2594 C 0.71247 0.71516 0.60982 0.0
C2595 C 0.68084 0.72176 0.63859 0.0
H2596 H 0.65641 0.73153 0.60218 0.0
C2597 C 0.61696 0.73755 0.64329 0.0
C2598 C 0.61488 0.75334 0.64011 0.0
C2599 C 0.63029 0.72994 0.63814 0.0
C2600 C 0.66315 0.72878 0.61239 0.0
H2601 H 0.72574 0.68536 0.64073 0.0
H2602 H 0.70029 0.697 0.64274 0.0
H2603 H 0.68224 0.72019 0.59911 0.0
H2604 H 0.62415 0.77328 0.62807 0.0
H2605 H 0.64708 0.75968 0.6183 0.0
H2606 H 0.66151 0.72991 0.6518 0.0
C2607 C 0.70767 0.70054 0.63325 0.0
C2608 C 0.67799 0.72244 0.61069 0.0
C2609 C 0.72227 0.69376 0.63207 0.0
C2610 C 0.62545 0.76102 0.63044 0.0
C2611 C 0.63856 0.75329 0.62493 0.0
C2612 C 0.66595 0.72774 0.64026 0.0
C2613 C 0.70257 0.71143 0.62223 0.0
C2614 C 0.68699 0.71874 0.6238 0.0
C2615 C 0.64143 0.73794 0.6294 0.0
C2616 C 0.65696 0.73119 0.62721 0.0
H2617 H 0.73436 0.71118 0.59878 0.0
H2618 H 0.7091 0.72364 0.60122 0.0
H2619 H 0.68753 0.7196 0.64896 0.0
H2620 H 0.60912 0.73151 0.65099 0.0
H2621 H 0.63236 0.71811 0.64178 0.0
C2622 C 0.72654 0.28938 0.38722 0.0
C2623 C 0.73034 0.30202 0.3777 0.0
C2624 C 0.71218 0.282 0.38575 0.0
C2625 C 0.67864 0.27882 0.35863 0.0
H2626 H 0.6577 0.26156 0.39442 0.0
C2627 C 0.6158 0.25904 0.35482 0.0
C2628 C 0.61425 0.24309 0.35755 0.0
C2629 C 0.62911 0.26684 0.35971 0.0
C2630 C 0.66345 0.2664 0.38438 0.0
H2631 H 0.72196 0.3172 0.35957 0.0
H2632 H 0.69678 0.30493 0.35748 0.0
H2633 H 0.68312 0.27367 0.39755 0.0
H2634 H 0.62457 0.22304 0.36849 0.0
H2635 H 0.64754 0.23688 0.3777 0.0
H2636 H 0.65877 0.27187 0.34557 0.0
C2637 C 0.70502 0.30017 0.36563 0.0
C2638 C 0.67807 0.2732 0.3861 0.0
C2639 C 0.71945 0.3073 0.36687 0.0
C2640 C 0.62546 0.2354 0.36647 0.0
C2641 C 0.6386 0.24328 0.37166 0.0
C2642 C 0.66396 0.27232 0.35699 0.0
C2643 C 0.7012 0.28732 0.37493 0.0
C2644 C 0.68583 0.2796 0.37323 0.0
C2645 C 0.64086 0.25887 0.36766 0.0
C2646 C 0.65619 0.26615 0.36984 0.0
H2647 H 0.73475 0.28504 0.39565 0.0
H2648 H 0.7098 0.27203 0.39297 0.0
H2649 H 0.68438 0.28311 0.34835 0.0
H2650 H 0.60749 0.26514 0.34767 0.0
H2651 H 0.63063 0.27888 0.35652 0.0
C2652 C 0.76044 0.62594 0.36637 0.0
C2653 C 0.75256 0.61479 0.35753 0.0
C2654 C 0.75273 0.6391 0.37179 0.0
C2655 C 0.72285 0.66438 0.35805 0.0
H2656 H 0.72481 0.68462 0.39809 0.0
C2657 C 0.68976 0.72088 0.3688 0.0
C2658 C 0.69601 0.73197 0.37888 0.0
C2659 C 0.69644 0.70622 0.36757 0.0
C2660 C 0.72434 0.67925 0.38677 0.0
H2661 H 0.73031 0.60809 0.34816 0.0
H2662 H 0.7168 0.63121 0.35752 0.0
H2663 H 0.73633 0.65892 0.39471 0.0
H2664 H 0.71423 0.73658 0.39547 0.0
H2665 H 0.7265 0.71119 0.39272 0.0
H2666 H 0.71171 0.68476 0.34972 0.0
C2667 C 0.72891 0.62968 0.36038 0.0
C2668 C 0.73081 0.66447 0.38491 0.0
C2669 C 0.73657 0.61638 0.35521 0.0
C2670 C 0.70915 0.72817 0.38766 0.0
C2671 C 0.7161 0.71357 0.38615 0.0
C2672 C 0.71667 0.6792 0.3598 0.0
C2673 C 0.73707 0.64143 0.36817 0.0
C2674 C 0.7299 0.65683 0.37058 0.0
C2675 C 0.70982 0.70238 0.37606 0.0
C2676 C 0.7171 0.68679 0.37422 0.0
H2677 H 0.77283 0.62503 0.36812 0.0
H2678 H 0.7593 0.64801 0.3777 0.0
H2679 H 0.72241 0.65894 0.34675 0.0
H2680 H 0.67948 0.72343 0.36208 0.0
H2681 H 0.69096 0.69784 0.36003 0.0
C2682 C 0.27024 0.70675 0.38882 0.0
C2683 C 0.26469 0.69704 0.37697 0.0
C2684 C 0.2845 0.71428 0.38732 0.0
C2685 C 0.3147 0.72447 0.35809 0.0
H2686 H 0.34117 0.72828 0.3942 0.0
C2687 C 0.37948 0.73733 0.3533 0.0
C2688 C 0.38249 0.75261 0.35791 0.0
C2689 C 0.36578 0.73003 0.35788 0.0
C2690 C 0.33385 0.72724 0.38407 0.0
H2691 H 0.26977 0.68772 0.3542 0.0
H2692 H 0.29471 0.70039 0.35176 0.0
H2693 H 0.31519 0.71729 0.39696 0.0
H2694 H 0.37435 0.77186 0.37177 0.0
H2695 H 0.35082 0.75868 0.3806 0.0
H2696 H 0.33366 0.73393 0.34519 0.0
C2697 C 0.28794 0.70258 0.36208 0.0
C2698 C 0.31893 0.72111 0.38562 0.0
C2699 C 0.27363 0.6952 0.36351 0.0
C2700 C 0.37241 0.75993 0.36838 0.0
C2701 C 0.35892 0.75247 0.3733 0.0
C2702 C 0.32968 0.7303 0.35653 0.0
C2703 C 0.29363 0.71216 0.37399 0.0
C2704 C 0.3092 0.7195 0.37261 0.0
C2705 C 0.35517 0.73779 0.36746 0.0
C2706 C 0.3394 0.73158 0.36946 0.0
H2707 H 0.2636 0.70851 0.39931 0.0
H2708 H 0.28832 0.72177 0.39661 0.0
H2709 H 0.30745 0.72387 0.34789 0.0
H2710 H 0.38687 0.73164 0.34491 0.0
H2711 H 0.36302 0.71872 0.35319 0.0
C2712 C 0.28662 0.26768 0.3703 0.0
C2713 C 0.29998 0.26652 0.3794 0.0
C2714 C 0.27868 0.28175 0.36924 0.0
C2715 C 0.27627 0.32152 0.3869 0.0
H2716 H 0.25559 0.33075 0.34814 0.0
C2717 C 0.25381 0.38092 0.35984 0.0
C2718 C 0.23772 0.38046 0.35753 0.0
C2719 C 0.26159 0.36778 0.36541 0.0
C2720 C 0.26136 0.32828 0.35901 0.0
H2721 H 0.31568 0.27885 0.39449 0.0
H2722 H 0.30252 0.30374 0.39187 0.0
H2723 H 0.26881 0.30606 0.35125 0.0
H2724 H 0.21702 0.3666 0.36061 0.0
H2725 H 0.23065 0.34373 0.37006 0.0
H2726 H 0.26916 0.34428 0.39419 0.0
C2727 C 0.29766 0.29376 0.38604 0.0
C2728 C 0.26879 0.31405 0.36091 0.0
C2729 C 0.30532 0.27956 0.38745 0.0
C2730 C 0.22943 0.36727 0.36229 0.0
C2731 C 0.23719 0.35416 0.36762 0.0
C2732 C 0.26907 0.33592 0.38484 0.0
C2733 C 0.28423 0.2951 0.37687 0.0
C2734 C 0.27629 0.31037 0.37492 0.0
C2735 C 0.25335 0.35413 0.36865 0.0
C2736 C 0.2615 0.33931 0.37092 0.0
H2737 H 0.28222 0.25765 0.36418 0.0
H2738 H 0.26817 0.28209 0.36245 0.0
H2739 H 0.28164 0.3191 0.39796 0.0
H2740 H 0.26049 0.39084 0.35608 0.0
H2741 H 0.27411 0.3679 0.36608 0.0
C2742 C 0.36325 0.23084 0.63936 0.0
C2743 C 0.37746 0.23835 0.6418 0.0
C2744 C 0.35081 0.23881 0.63292 0.0
C2745 C 0.33534 0.26954 0.61055 0.0
H2746 H 0.30554 0.27455 0.64377 0.0
C2747 C 0.27835 0.30564 0.60456 0.0
C2748 C 0.26559 0.30029 0.61307 0.0
C2749 C 0.29283 0.29847 0.60628 0.0
C2750 C 0.31357 0.27309 0.63425 0.0
H2751 H 0.39024 0.25965 0.63818 0.0
H2752 H 0.36829 0.27363 0.62661 0.0
H2753 H 0.32969 0.26103 0.64868 0.0
H2754 H 0.2574 0.28281 0.62902 0.0
H2755 H 0.2822 0.26977 0.63135 0.0
H2756 H 0.31891 0.28108 0.59591 0.0
C2757 C 0.36692 0.26157 0.62978 0.0
C2758 C 0.32746 0.26548 0.63715 0.0
C2759 C 0.37943 0.25357 0.63636 0.0
C2760 C 0.26721 0.28728 0.62259 0.0
C2761 C 0.28147 0.27992 0.62401 0.0
C2762 C 0.32122 0.277 0.60754 0.0
C2763 C 0.3524 0.25438 0.62861 0.0
C2764 C 0.33835 0.26348 0.62531 0.0
C2765 C 0.29461 0.28569 0.61629 0.0
C2766 C 0.31005 0.27862 0.61933 0.0
H2767 H 0.36145 0.21905 0.64328 0.0
H2768 H 0.33969 0.23308 0.63209 0.0
H2769 H 0.34366 0.26807 0.60128 0.0
H2770 H 0.27725 0.31568 0.59711 0.0
H2771 H 0.30267 0.30325 0.60017 0.0
C2772 C 0.69335 0.27713 0.60476 0.0
C2773 C 0.69706 0.26497 0.6149 0.0
C2774 C 0.70045 0.29163 0.6064 0.0
C2775 C 0.72261 0.31465 0.63547 0.0
H2776 H 0.73125 0.34164 0.60059 0.0
C2777 C 0.76522 0.3649 0.63764 0.0
C2778 C 0.75725 0.37872 0.64094 0.0
C2779 C 0.75743 0.35221 0.63143 0.0
C2780 C 0.72875 0.33421 0.61038 0.0
H2781 H 0.71165 0.25798 0.63402 0.0
H2782 H 0.72472 0.28283 0.63632 0.0
H2783 H 0.71904 0.31637 0.59613 0.0
H2784 H 0.73519 0.39055 0.63915 0.0
H2785 H 0.7215 0.36813 0.6281 0.0
H2786 H 0.73293 0.33227 0.64955 0.0
C2787 C 0.7158 0.2816 0.62762 0.0
C2788 C 0.72173 0.31977 0.60789 0.0
C2789 C 0.70842 0.26729 0.62624 0.0
C2790 C 0.74163 0.38007 0.63662 0.0
C2791 C 0.7338 0.36729 0.63036 0.0
C2792 C 0.72975 0.32892 0.63788 0.0
C2793 C 0.71165 0.29412 0.61798 0.0
C2794 C 0.71871 0.30971 0.62042 0.0
C2795 C 0.74157 0.35315 0.62827 0.0
C2796 C 0.73293 0.33874 0.62538 0.0
H2797 H 0.68456 0.27559 0.59596 0.0
H2798 H 0.69681 0.30096 0.59886 0.0
H2799 H 0.72013 0.30751 0.64547 0.0
H2800 H 0.77729 0.36357 0.64076 0.0
H2801 H 0.76358 0.34136 0.62996 0.0
C2802 C 0.23456 0.62717 0.63186 0.0
C2803 C 0.24219 0.61593 0.6408 0.0
C2804 C 0.24256 0.64018 0.6265 0.0
C2805 C 0.27095 0.66587 0.64077 0.0
H2806 H 0.27553 0.68272 0.59941 0.0
C2807 C 0.30684 0.72076 0.63045 0.0
C2808 C 0.30226 0.7311 0.61878 0.0
C2809 C 0.29969 0.70634 0.63191 0.0
C2810 C 0.27414 0.67832 0.61107 0.0
H2811 H 0.26414 0.60905 0.65074 0.0
H2812 H 0.27806 0.63205 0.64171 0.0
H2813 H 0.2629 0.65758 0.60305 0.0
H2814 H 0.28657 0.73451 0.5995 0.0
H2815 H 0.27357 0.7096 0.60245 0.0
H2816 H 0.28133 0.68668 0.64905 0.0
C2817 C 0.26602 0.63058 0.63854 0.0
C2818 C 0.26705 0.66387 0.61309 0.0
C2819 C 0.25812 0.61739 0.64354 0.0
C2820 C 0.29038 0.72672 0.60857 0.0
C2821 C 0.283 0.71239 0.61021 0.0
C2822 C 0.27773 0.6804 0.63881 0.0
C2823 C 0.25817 0.64229 0.63041 0.0
C2824 C 0.26564 0.65746 0.62794 0.0
C2825 C 0.28754 0.702 0.62194 0.0
C2826 C 0.27966 0.68675 0.62392 0.0
H2827 H 0.22221 0.62635 0.62985 0.0
H2828 H 0.23628 0.64913 0.62034 0.0
H2829 H 0.26963 0.66129 0.65238 0.0
H2830 H 0.31612 0.72372 0.63834 0.0
H2831 H 0.30384 0.69854 0.64081 0.0
C2832 C 0.18573 0.38379 0.27716 0.0
C2833 C 0.19697 0.37461 0.28451 0.0
C2834 C 0.17545 0.37705 0.2665 0.0
C2835 C 0.16842 0.34011 0.24471 0.0
H2836 H 0.12503 0.35006 0.25054 0.0
C2837 C 0.12393 0.29697 0.22593 0.0
C2838 C 0.11432 0.30267 0.21416 0.0
C2839 C 0.13151 0.30719 0.23583 0.0
C2840 C 0.13712 0.34721 0.24886 0.0
H2841 H 0.20724 0.35163 0.28533 0.0
H2842 H 0.18935 0.34 0.26766 0.0
H2843 H 0.14491 0.36642 0.26253 0.0
H2844 H 0.10379 0.32317 0.20434 0.0
H2845 H 0.11715 0.34121 0.22177 0.0
H2846 H 0.1607 0.32055 0.23172 0.0
C2847 C 0.18832 0.35233 0.26972 0.0
C2848 C 0.14851 0.35666 0.25551 0.0
C2849 C 0.19855 0.35902 0.2801 0.0
C2850 C 0.11099 0.31857 0.21352 0.0
C2851 C 0.11868 0.32886 0.22341 0.0
C2852 C 0.15711 0.33056 0.23841 0.0
C2853 C 0.17635 0.36109 0.26308 0.0
C2854 C 0.16431 0.35297 0.25384 0.0
C2855 C 0.12974 0.32325 0.23394 0.0
C2856 C 0.14137 0.33381 0.2407 0.0
H2857 H 0.18435 0.39588 0.28024 0.0
H2858 H 0.16653 0.38418 0.26133 0.0
H2859 H 0.18044 0.33714 0.24275 0.0
H2860 H 0.12669 0.28473 0.22652 0.0
H2861 H 0.13981 0.3026 0.24405 0.0
C2862 C 0.69419 0.11985 0.22264 0.0
C2863 C 0.69053 0.1195 0.20682 0.0
C2864 C 0.6842 0.12721 0.23312 0.0
C2865 C 0.65577 0.15872 0.23254 0.0
H2866 H 0.646 0.14601 0.27446 0.0
C2867 C 0.63162 0.20036 0.27841 0.0
C2868 C 0.62026 0.19483 0.28859 0.0
C2869 C 0.63858 0.19043 0.26778 0.0
C2870 C 0.64848 0.14959 0.2627 0.0
H2871 H 0.67346 0.12552 0.18954 0.0
H2872 H 0.65579 0.13782 0.20777 0.0
H2873 H 0.66142 0.1289 0.25785 0.0
H2874 H 0.60688 0.17484 0.29557 0.0
H2875 H 0.61913 0.15724 0.27682 0.0
H2876 H 0.64298 0.17937 0.2373 0.0
C2877 C 0.66642 0.13279 0.21214 0.0
C2878 C 0.65744 0.13989 0.25328 0.0
C2879 C 0.67641 0.12561 0.20174 0.0
C2880 C 0.61546 0.17935 0.28761 0.0
C2881 C 0.62261 0.16929 0.27707 0.0
C2882 C 0.6469 0.16838 0.24193 0.0
C2883 C 0.67049 0.13426 0.22781 0.0
C2884 C 0.66108 0.14434 0.23806 0.0
C2885 C 0.63447 0.17469 0.26729 0.0
C2886 C 0.64314 0.16394 0.2571 0.0
H2887 H 0.70521 0.11543 0.2267 0.0
H2888 H 0.68766 0.12823 0.24513 0.0
H2889 H 0.65866 0.16263 0.22098 0.0
H2890 H 0.63557 0.21226 0.27914 0.0
H2891 H 0.64774 0.19492 0.26049 0.0
C2892 C 0.81651 0.63224 0.29668 0.0
C2893 C 0.80556 0.62111 0.29221 0.0
C2894 C 0.82623 0.63899 0.28581 0.0
C2895 C 0.84572 0.6363 0.24968 0.0
H2896 H 0.84123 0.68104 0.24888 0.0
C2897 C 0.87725 0.67634 0.20592 0.0
C2898 C 0.88069 0.69151 0.21059 0.0
C2899 C 0.8696 0.66622 0.21595 0.0
C2900 C 0.84286 0.6686 0.24913 0.0
H2901 H 0.79662 0.60768 0.273 0.0
H2902 H 0.81403 0.61959 0.25366 0.0
H2903 H 0.82422 0.66558 0.26515 0.0
H2904 H 0.87971 0.70792 0.22947 0.0
H2905 H 0.86701 0.69003 0.24741 0.0
H2906 H 0.86474 0.63933 0.23406 0.0
C2907 C 0.81494 0.62297 0.26571 0.0
C2908 C 0.83295 0.65976 0.25827 0.0
C2909 C 0.8051 0.61614 0.27672 0.0
C2910 C 0.87741 0.69614 0.22578 0.0
C2911 C 0.86987 0.68598 0.23589 0.0
C2912 C 0.85581 0.6452 0.24061 0.0
C2913 C 0.82526 0.63476 0.27019 0.0
C2914 C 0.83445 0.64358 0.25881 0.0
C2915 C 0.86522 0.67115 0.23083 0.0
C2916 C 0.85466 0.66149 0.24044 0.0
H2917 H 0.81721 0.63616 0.30859 0.0
H2918 H 0.83426 0.64789 0.28953 0.0
H2919 H 0.84711 0.62383 0.25003 0.0
H2920 H 0.87938 0.67271 0.1941 0.0
H2921 H 0.86615 0.65498 0.21159 0.0
C2922 C 0.38204 0.80822 0.27876 0.0
C2923 C 0.37327 0.80394 0.29182 0.0
C2924 C 0.37575 0.81837 0.26765 0.0
C2925 C 0.33814 0.83039 0.2528 0.0
H2926 H 0.35599 0.87005 0.24159 0.0
C2927 C 0.29989 0.8759 0.22559 0.0
C2928 C 0.30544 0.88251 0.21187 0.0
C2929 C 0.31 0.86818 0.23555 0.0
C2930 C 0.35094 0.85895 0.24454 0.0
H2931 H 0.3514 0.8076 0.30378 0.0
H2932 H 0.34072 0.8249 0.28468 0.0
H2933 H 0.37115 0.85156 0.25709 0.0
H2934 H 0.3258 0.88716 0.19808 0.0
H2935 H 0.34361 0.87367 0.21556 0.0
H2936 H 0.31793 0.83761 0.24062 0.0
C2937 C 0.35224 0.8203 0.2828 0.0
C2938 C 0.35965 0.84836 0.25326 0.0
C2939 C 0.35843 0.81034 0.29376 0.0
C2940 C 0.32138 0.88241 0.20882 0.0
C2941 C 0.33153 0.8746 0.21876 0.0
C2942 C 0.3295 0.84088 0.24416 0.0
C2943 C 0.36066 0.82423 0.26953 0.0
C2944 C 0.3531 0.83419 0.25784 0.0
C2945 C 0.32578 0.86671 0.23178 0.0
C2946 C 0.33559 0.85548 0.24033 0.0
H2947 H 0.3935 0.80348 0.27696 0.0
H2948 H 0.38245 0.8213 0.25747 0.0
H2949 H 0.33291 0.81944 0.25602 0.0
H2950 H 0.28758 0.87563 0.22798 0.0
H2951 H 0.30528 0.8625 0.24569 0.0
C2952 C 0.11506 0.67843 0.78638 0.0
C2953 C 0.11623 0.69445 0.78408 0.0
C2954 C 0.12257 0.6682 0.77634 0.0
C2955 C 0.15633 0.66905 0.74994 0.0
H2956 H 0.14623 0.62567 0.74434 0.0
C2957 C 0.2008 0.62932 0.72236 0.0
C2958 C 0.19524 0.61889 0.71126 0.0
C2959 C 0.19065 0.6363 0.73279 0.0
C2960 C 0.14919 0.63778 0.74567 0.0
H2961 H 0.12481 0.71248 0.76899 0.0
H2962 H 0.13692 0.69466 0.7507 0.0
H2963 H 0.12751 0.64288 0.75646 0.0
H2964 H 0.17511 0.60674 0.70274 0.0
H2965 H 0.15713 0.61938 0.72051 0.0
H2966 H 0.17754 0.66431 0.7384 0.0
C2967 C 0.13088 0.68988 0.76059 0.0
C2968 C 0.13849 0.64766 0.75279 0.0
C2969 C 0.1237 0.70011 0.77086 0.0
C2970 C 0.17961 0.61465 0.71138 0.0
C2971 C 0.16934 0.62193 0.72158 0.0
C2972 C 0.16685 0.6593 0.74258 0.0
C2973 C 0.13122 0.67385 0.76372 0.0
C2974 C 0.14194 0.66343 0.75508 0.0
C2975 C 0.17464 0.6334 0.73192 0.0
C2976 C 0.16352 0.64348 0.74043 0.0
H2977 H 0.10956 0.6739 0.79671 0.0
H2978 H 0.12257 0.656 0.77925 0.0
H2979 H 0.15969 0.68099 0.7518 0.0
H2980 H 0.21288 0.63272 0.72241 0.0
H2981 H 0.19529 0.6446 0.74097 0.0
C2982 C 0.38483 0.18125 0.71527 0.0
C2983 C 0.38143 0.19711 0.71611 0.0
C2984 C 0.37725 0.17083 0.72507 0.0
C2985 C 0.33914 0.16916 0.74177 0.0
H2986 H 0.35215 0.13072 0.76105 0.0
C2987 C 0.29986 0.1369 0.78204 0.0
C2988 C 0.30052 0.12072 0.78385 0.0
C2989 C 0.31008 0.14454 0.7725 0.0
C2990 C 0.34835 0.14124 0.75537 0.0
H2991 H 0.36909 0.21489 0.72873 0.0
H2992 H 0.35632 0.1968 0.7463 0.0
H2993 H 0.37157 0.14812 0.74978 0.0
H2994 H 0.3116 0.09967 0.77579 0.0
H2995 H 0.32936 0.1133 0.75797 0.0
H2996 H 0.31603 0.16237 0.74685 0.0
C2997 C 0.36448 0.19232 0.73789 0.0
C2998 C 0.35945 0.15127 0.74915 0.0
C2999 C 0.37188 0.20267 0.72799 0.0
C3000 C 0.31093 0.11216 0.77473 0.0
C3001 C 0.32115 0.11995 0.76472 0.0
C3002 C 0.32811 0.15909 0.74767 0.0
C3003 C 0.3663 0.17627 0.73579 0.0
C3004 C 0.35493 0.16549 0.74265 0.0
C3005 C 0.32099 0.13628 0.76385 0.0
C3006 C 0.33258 0.14523 0.75496 0.0
H3007 H 0.39199 0.17676 0.70599 0.0
H3008 H 0.37883 0.15852 0.72321 0.0
H3009 H 0.33526 0.1798 0.73636 0.0
H3010 H 0.29188 0.14399 0.78866 0.0
H3011 H 0.30979 0.15709 0.7725 0.0
C3012 C 0.79831 0.3745 0.72604 0.0
C3013 C 0.80317 0.38198 0.71247 0.0
C3014 C 0.80913 0.36739 0.73576 0.0
C3015 C 0.84448 0.34612 0.7316 0.0
H3016 H 0.84759 0.34762 0.77636 0.0
C3017 C 0.86897 0.29778 0.77138 0.0
C3018 C 0.87875 0.3026 0.78341 0.0
C3019 C 0.86226 0.30868 0.76149 0.0
C3020 C 0.84694 0.34722 0.76384 0.0
H3021 H 0.82292 0.38853 0.69857 0.0
H3022 H 0.84191 0.37596 0.71548 0.0
H3023 H 0.8304 0.36576 0.76286 0.0
H3024 H 0.88975 0.32228 0.79433 0.0
H3025 H 0.87775 0.34148 0.77715 0.0
H3026 H 0.86044 0.3271 0.73262 0.0
C3027 C 0.8298 0.37579 0.71874 0.0
C3028 C 0.83708 0.35751 0.75617 0.0
C3029 C 0.81901 0.38314 0.70921 0.0
C3030 C 0.88247 0.31834 0.7849 0.0
C3031 C 0.87548 0.32928 0.77523 0.0
C3032 C 0.85411 0.33564 0.73929 0.0
C3033 C 0.82489 0.36737 0.73176 0.0
C3034 C 0.83583 0.35709 0.73998 0.0
C3035 C 0.86493 0.32456 0.7638 0.0
C3036 C 0.85546 0.33615 0.75547 0.0
H3037 H 0.78609 0.37318 0.72853 0.0
H3038 H 0.80507 0.3609 0.74569 0.0
H3039 H 0.84347 0.34539 0.71911 0.0
H3040 H 0.86578 0.28569 0.77025 0.0
H3041 H 0.85411 0.30477 0.75278 0.0
C3042 C 0.67816 0.88244 0.78724 0.0
C3043 C 0.69406 0.87926 0.78683 0.0
C3044 C 0.66815 0.87515 0.77676 0.0
C3045 C 0.66692 0.85289 0.74011 0.0
H3046 H 0.63077 0.83328 0.7582 0.0
C3047 C 0.62456 0.81949 0.70206 0.0
C3048 C 0.62036 0.80471 0.70726 0.0
C3049 C 0.63159 0.82999 0.7121 0.0
C3050 C 0.64082 0.83869 0.75301 0.0
H3051 H 0.71218 0.86662 0.77503 0.0
H3052 H 0.69488 0.85424 0.75647 0.0
H3053 H 0.64732 0.84979 0.77424 0.0
H3054 H 0.6197 0.78926 0.72696 0.0
H3055 H 0.63211 0.80771 0.74473 0.0
H3056 H 0.66081 0.84145 0.71906 0.0
C3057 C 0.69003 0.86233 0.76475 0.0
C3058 C 0.65019 0.84828 0.76212 0.0
C3059 C 0.69996 0.86945 0.77531 0.0
C3060 C 0.62261 0.80076 0.72285 0.0
C3061 C 0.62973 0.81129 0.73295 0.0
C3062 C 0.65755 0.84338 0.73101 0.0
C3063 C 0.67396 0.86469 0.76568 0.0
C3064 C 0.66338 0.85543 0.75578 0.0
C3065 C 0.63476 0.82583 0.72751 0.0
C3066 C 0.64439 0.83617 0.73733 0.0
H3067 H 0.67337 0.88971 0.79629 0.0
H3068 H 0.65584 0.87729 0.77765 0.0
H3069 H 0.677 0.85821 0.73489 0.0
H3070 H 0.62305 0.82265 0.69 0.0
H3071 H 0.63506 0.84119 0.70763 0.0
C3072 C 0.28638 0.17917 0.38219 0.0
C3073 C 0.28548 0.19503 0.37884 0.0
C3074 C 0.27618 0.16878 0.37506 0.0
C3075 C 0.23957 0.16579 0.35328 0.0
H3076 H 0.25943 0.13104 0.33273 0.0
C3077 C 0.20375 0.12065 0.32098 0.0
C3078 C 0.20826 0.11799 0.30563 0.0
C3079 C 0.21375 0.1281 0.33124 0.0
C3080 C 0.25375 0.14067 0.33844 0.0
H3081 H 0.27303 0.21271 0.36619 0.0
H3082 H 0.25487 0.1947 0.35415 0.0
H3083 H 0.27477 0.14839 0.34913 0.0
H3084 H 0.22675 0.12045 0.28892 0.0
H3085 H 0.24454 0.13325 0.30705 0.0
H3086 H 0.21865 0.15834 0.34236 0.0
C3087 C 0.26338 0.1902 0.3622 0.0
C3088 C 0.26247 0.1505 0.34793 0.0
C3089 C 0.27369 0.20052 0.36913 0.0
C3090 C 0.22324 0.12205 0.30086 0.0
C3091 C 0.23333 0.12945 0.31119 0.0
C3092 C 0.23085 0.1559 0.34394 0.0
C3093 C 0.26489 0.17417 0.36463 0.0
C3094 C 0.25546 0.16318 0.35541 0.0
C3095 C 0.22842 0.13307 0.3263 0.0
C3096 C 0.23783 0.14323 0.33644 0.0
H3097 H 0.29563 0.1747 0.38938 0.0
H3098 H 0.27749 0.15649 0.37725 0.0
H3099 H 0.23388 0.17551 0.35882 0.0
H3100 H 0.19211 0.1179 0.32474 0.0
H3101 H 0.20974 0.13059 0.34287 0.0
C3102 C 0.87431 0.22177 0.30011 0.0
C3103 C 0.88037 0.2077 0.30541 0.0
C3104 C 0.86661 0.23165 0.31033 0.0
C3105 C 0.85707 0.23949 0.35156 0.0
H3106 H 0.81911 0.25491 0.33319 0.0
C3107 C 0.80636 0.27495 0.382 0.0
C3108 C 0.80436 0.28917 0.37427 0.0
C3109 C 0.81621 0.26357 0.37574 0.0
C3110 C 0.8296 0.25053 0.33851 0.0
H3111 H 0.88393 0.19307 0.32541 0.0
H3112 H 0.87042 0.21034 0.34341 0.0
H3113 H 0.83645 0.2389 0.31783 0.0
H3114 H 0.81187 0.30296 0.35459 0.0
H3115 H 0.82868 0.2833 0.34386 0.0
H3116 H 0.85001 0.25147 0.37226 0.0
C3117 C 0.87179 0.21392 0.33146 0.0
C3118 C 0.83965 0.24156 0.32967 0.0
C3119 C 0.87958 0.20407 0.32122 0.0
C3120 C 0.81287 0.29204 0.36069 0.0
C3121 C 0.82254 0.2808 0.35452 0.0
C3122 C 0.8469 0.24849 0.36048 0.0
C3123 C 0.86459 0.22745 0.32596 0.0
C3124 C 0.85373 0.23632 0.33591 0.0
C3125 C 0.82406 0.26638 0.36175 0.0
C3126 C 0.83331 0.25439 0.35384 0.0
H3127 H 0.8746 0.22463 0.28789 0.0
H3128 H 0.86151 0.24219 0.30581 0.0
H3129 H 0.86778 0.23551 0.35672 0.0
H3130 H 0.79994 0.27245 0.39248 0.0
H3131 H 0.81727 0.25246 0.38148 0.0
C3132 C 0.78526 0.88298 0.31842 0.0
C3133 C 0.78401 0.88099 0.30237 0.0
C3134 C 0.77506 0.87528 0.32834 0.0
C3135 C 0.7539 0.8389 0.32777 0.0
H3136 H 0.73775 0.85187 0.36762 0.0
C3137 C 0.711 0.8024 0.36108 0.0
C3138 C 0.71138 0.80179 0.37736 0.0
C3139 C 0.7207 0.81219 0.35299 0.0
C3140 C 0.74247 0.84805 0.35664 0.0
H3141 H 0.77064 0.87069 0.28387 0.0
H3142 H 0.75237 0.85775 0.30114 0.0
H3143 H 0.7508 0.87075 0.35095 0.0
H3144 H 0.72286 0.81048 0.3979 0.0
H3145 H 0.74046 0.8277 0.38344 0.0
H3146 H 0.7458 0.81625 0.33336 0.0
C3147 C 0.76136 0.86492 0.30613 0.0
C3148 C 0.74977 0.85887 0.34706 0.0
C3149 C 0.77164 0.87247 0.29626 0.0
C3150 C 0.72227 0.8108 0.38538 0.0
C3151 C 0.73221 0.82067 0.37713 0.0
C3152 C 0.74675 0.82812 0.33734 0.0
C3153 C 0.76354 0.86553 0.32226 0.0
C3154 C 0.75535 0.85442 0.33243 0.0
C3155 C 0.73132 0.82156 0.36085 0.0
C3156 C 0.74072 0.83262 0.35177 0.0
H3157 H 0.79495 0.88926 0.32331 0.0
H3158 H 0.77705 0.87591 0.34071 0.0
H3159 H 0.7585 0.83499 0.31676 0.0
H3160 H 0.70283 0.79559 0.35442 0.0
H3161 H 0.71946 0.81277 0.34051 0.0
C3162 C 0.1759 0.70378 0.37522 0.0
C3163 C 0.19125 0.70809 0.3781 0.0
C3164 C 0.16577 0.71409 0.36802 0.0
C3165 C 0.15967 0.75476 0.3562 0.0
H3166 H 0.13737 0.73597 0.322 0.0
C3167 C 0.11611 0.78932 0.31914 0.0
C3168 C 0.11871 0.78823 0.30315 0.0
C3169 C 0.12335 0.77895 0.32927 0.0
C3170 C 0.14348 0.74137 0.33153 0.0
H3171 H 0.20814 0.72647 0.37619 0.0
H3172 H 0.19035 0.74471 0.36361 0.0
H3173 H 0.15354 0.71989 0.33864 0.0
H3174 H 0.13028 0.77537 0.28503 0.0
H3175 H 0.14251 0.75687 0.30263 0.0
H3176 H 0.14987 0.77633 0.34877 0.0
C3177 C 0.18605 0.73347 0.36714 0.0
C3178 C 0.15264 0.73215 0.34114 0.0
C3179 C 0.1962 0.72311 0.37439 0.0
C3180 C 0.12792 0.77619 0.29734 0.0
C3181 C 0.13495 0.76568 0.30741 0.0
C3182 C 0.15039 0.76398 0.34663 0.0
C3183 C 0.17088 0.72884 0.3634 0.0
C3184 C 0.16084 0.73874 0.35358 0.0
C3185 C 0.13314 0.76726 0.32351 0.0
C3186 C 0.14224 0.75736 0.33418 0.0
H3187 H 0.17199 0.69213 0.37778 0.0
H3188 H 0.1541 0.71029 0.36549 0.0
H3189 H 0.16589 0.76016 0.36566 0.0
H3190 H 0.10931 0.79877 0.32384 0.0
H3191 H 0.12168 0.78034 0.34162 0.0
C3192 C 0.2724 0.7966 0.62905 0.0
C3193 C 0.28376 0.80197 0.61881 0.0
C3194 C 0.26212 0.80698 0.63594 0.0
C3195 C 0.2508 0.84905 0.63779 0.0
H3196 H 0.24337 0.83812 0.68065 0.0
C3197 C 0.21111 0.88441 0.6784 0.0
C3198 C 0.21294 0.88262 0.6944 0.0
C3199 C 0.22108 0.87678 0.66818 0.0
C3200 C 0.24562 0.8416 0.66882 0.0
H3201 H 0.29286 0.822 0.60689 0.0
H3202 H 0.27549 0.84034 0.61942 0.0
H3203 H 0.25612 0.81987 0.6639 0.0
H3204 H 0.22725 0.87289 0.71248 0.0
H3205 H 0.24544 0.86057 0.69476 0.0
H3206 H 0.24113 0.87124 0.64312 0.0
C3207 C 0.27402 0.82813 0.62188 0.0
C3208 C 0.25258 0.83085 0.659 0.0
C3209 C 0.28402 0.81764 0.61464 0.0
C3210 C 0.22576 0.87451 0.70012 0.0
C3211 C 0.23595 0.86719 0.68994 0.0
C3212 C 0.24412 0.85997 0.64774 0.0
C3213 C 0.26344 0.82302 0.63319 0.0
C3214 C 0.2552 0.83435 0.6433 0.0
C3215 C 0.23314 0.86737 0.67386 0.0
C3216 C 0.24138 0.85637 0.6634 0.0
H3217 H 0.27205 0.78449 0.63238 0.0
H3218 H 0.25372 0.80247 0.64408 0.0
H3219 H 0.25247 0.85218 0.62577 0.0
H3220 H 0.20109 0.8904 0.6738 0.0
H3221 H 0.21845 0.87723 0.65594 0.0
C3222 C 0.18629 0.29198 0.62737 0.0
C3223 C 0.19312 0.28521 0.61429 0.0
C3224 C 0.1756 0.28376 0.6362 0.0
C3225 C 0.16439 0.24358 0.64509 0.0
H3226 H 0.12988 0.26329 0.66612 0.0
C3227 C 0.11898 0.20832 0.67735 0.0
C3228 C 0.11831 0.21159 0.69321 0.0
C3229 C 0.12612 0.21868 0.66724 0.0
C3230 C 0.1395 0.25771 0.66032 0.0
H3231 H 0.19411 0.2648 0.59982 0.0
H3232 H 0.1749 0.25037 0.61501 0.0
H3233 H 0.146 0.27844 0.64839 0.0
H3234 H 0.12387 0.22827 0.71107 0.0
H3235 H 0.13601 0.24682 0.69317 0.0
H3236 H 0.15768 0.22282 0.65686 0.0
C3237 C 0.17795 0.262 0.61858 0.0
C3238 C 0.14876 0.26633 0.65021 0.0
C3239 C 0.18873 0.27028 0.60974 0.0
C3240 C 0.124 0.22577 0.69878 0.0
C3241 C 0.13098 0.23627 0.6886 0.0
C3242 C 0.15501 0.23494 0.65499 0.0
C3243 C 0.17152 0.26855 0.63211 0.0
C3244 C 0.16129 0.25934 0.64244 0.0
C3245 C 0.13261 0.23248 0.67286 0.0
C3246 C 0.14246 0.24191 0.6626 0.0
H3247 H 0.18975 0.30344 0.63117 0.0
H3248 H 0.17113 0.2891 0.64663 0.0
H3249 H 0.17421 0.23793 0.63971 0.0
H3250 H 0.11492 0.19729 0.67294 0.0
H3251 H 0.12723 0.21558 0.65512 0.0
C3252 C 0.78266 0.1407 0.69725 0.0
C3253 C 0.7868 0.12497 0.69644 0.0
C3254 C 0.77177 0.14688 0.68719 0.0
C3255 C 0.75559 0.14096 0.64849 0.0
H3256 H 0.7305 0.17607 0.66096 0.0
C3257 C 0.71191 0.17779 0.61101 0.0
C3258 C 0.71289 0.19379 0.61377 0.0
C3259 C 0.72161 0.16754 0.61904 0.0
C3260 C 0.7375 0.16631 0.6573 0.0
H3261 H 0.78194 0.10313 0.68507 0.0
H3262 H 0.7625 0.11402 0.66734 0.0
H3263 H 0.74327 0.16048 0.6806 0.0
H3264 H 0.72555 0.21183 0.62569 0.0
H3265 H 0.74268 0.19403 0.63941 0.0
H3266 H 0.7495 0.14693 0.62508 0.0
C3267 C 0.76803 0.12157 0.67568 0.0
C3268 C 0.74479 0.15735 0.66854 0.0
C3269 C 0.77905 0.11531 0.68588 0.0
C3270 C 0.72473 0.19952 0.62328 0.0
C3271 C 0.73437 0.18935 0.63125 0.0
C3272 C 0.74804 0.14985 0.63719 0.0
C3273 C 0.76454 0.13752 0.67604 0.0
C3274 C 0.7544 0.14492 0.66427 0.0
C3275 C 0.73227 0.17328 0.6299 0.0
C3276 C 0.73939 0.16291 0.64152 0.0
H3277 H 0.78823 0.14846 0.70539 0.0
H3278 H 0.76958 0.15923 0.68773 0.0
H3279 H 0.76296 0.13151 0.6448 0.0
H3280 H 0.70264 0.17315 0.60395 0.0
H3281 H 0.71981 0.15518 0.61782 0.0
C3282 C 0.82043 0.71001 0.61887 0.0
C3283 C 0.80456 0.71308 0.6178 0.0
C3284 C 0.83016 0.72023 0.62674 0.0
C3285 C 0.82728 0.74819 0.65862 0.0
H3286 H 0.87055 0.75584 0.64958 0.0
C3287 C 0.86381 0.7924 0.69203 0.0
C3288 C 0.87945 0.78909 0.69497 0.0
C3289 C 0.85486 0.78244 0.68308 0.0
C3290 C 0.85854 0.75359 0.65236 0.0
H3291 H 0.78637 0.72944 0.62312 0.0
H3292 H 0.80347 0.74778 0.63632 0.0
H3293 H 0.85475 0.7416 0.63101 0.0
H3294 H 0.89786 0.77241 0.69141 0.0
H3295 H 0.88206 0.75475 0.67575 0.0
H3296 H 0.83105 0.76024 0.67993 0.0
C3297 C 0.80841 0.73735 0.63138 0.0
C3298 C 0.84946 0.74553 0.64168 0.0
C3299 C 0.79867 0.72704 0.62361 0.0
C3300 C 0.88587 0.77532 0.68917 0.0
C3301 C 0.87686 0.76526 0.6802 0.0
C3302 C 0.83634 0.75628 0.66926 0.0
C3303 C 0.82411 0.73367 0.6337 0.0
C3304 C 0.8337 0.74283 0.64463 0.0
C3305 C 0.86133 0.76888 0.67686 0.0
C3306 C 0.85204 0.75916 0.6662 0.0
H3307 H 0.82507 0.69908 0.61478 0.0
H3308 H 0.84215 0.71697 0.62839 0.0
H3309 H 0.81529 0.74593 0.66149 0.0
H3310 H 0.85853 0.80296 0.69626 0.0
H3311 H 0.84301 0.78568 0.68056 0.0
C3312 C 0.31873 0.21168 0.11575 0.0
C3313 C 0.30267 0.21381 0.11634 0.0
C3314 C 0.32855 0.22191 0.12353 0.0
C3315 C 0.32664 0.24637 0.158 0.0
H3316 H 0.3683 0.25855 0.1466 0.0
C3317 C 0.36134 0.28987 0.19337 0.0
C3318 C 0.37743 0.28804 0.19497 0.0
C3319 C 0.35288 0.28011 0.18384 0.0
C3320 C 0.35678 0.25499 0.15002 0.0
H3321 H 0.28418 0.22865 0.12438 0.0
H3322 H 0.30133 0.247 0.13741 0.0
H3323 H 0.3521 0.24487 0.12785 0.0
H3324 H 0.3972 0.27412 0.18831 0.0
H3325 H 0.38218 0.25664 0.17158 0.0
H3326 H 0.33125 0.25635 0.18015 0.0
C3327 C 0.30638 0.23729 0.13126 0.0
C3328 C 0.34747 0.24729 0.13925 0.0
C3329 C 0.29659 0.22698 0.12361 0.0
C3330 C 0.38484 0.27586 0.18716 0.0
C3331 C 0.37627 0.26594 0.17758 0.0
C3332 C 0.33593 0.254 0.16875 0.0
C3333 C 0.32239 0.23438 0.13202 0.0
C3334 C 0.33223 0.24306 0.14308 0.0
C3335 C 0.36022 0.26812 0.17571 0.0
C3336 C 0.35103 0.25857 0.16482 0.0
H3337 H 0.32358 0.20134 0.11052 0.0
H3338 H 0.3408 0.21929 0.12396 0.0
H3339 H 0.31513 0.24285 0.1615 0.0
H3340 H 0.35521 0.29913 0.19922 0.0
H3341 H 0.34061 0.2823 0.18248 0.0
C3342 C 0.37232 0.72302 0.79981 0.0
C3343 C 0.37813 0.70866 0.80469 0.0
C3344 C 0.36516 0.73294 0.81045 0.0
C3345 C 0.34201 0.72998 0.84531 0.0
H3346 H 0.34693 0.77452 0.84848 0.0
C3347 C 0.29646 0.77199 0.87058 0.0
C3348 C 0.30186 0.78421 0.87982 0.0
C3349 C 0.30687 0.76168 0.86376 0.0
C3350 C 0.34558 0.76205 0.84784 0.0
H3351 H 0.38153 0.6934 0.82425 0.0
H3352 H 0.36904 0.71072 0.84291 0.0
H3353 H 0.36407 0.75966 0.83143 0.0
H3354 H 0.32213 0.79508 0.88971 0.0
H3355 H 0.34049 0.77707 0.87761 0.0
H3356 H 0.32321 0.7324 0.86131 0.0
C3357 C 0.37008 0.71439 0.83095 0.0
C3358 C 0.35528 0.75361 0.838 0.0
C3359 C 0.37736 0.70459 0.82037 0.0
C3360 C 0.31774 0.78551 0.88287 0.0
C3361 C 0.32821 0.77537 0.87579 0.0
C3362 C 0.33219 0.73844 0.85497 0.0
C3363 C 0.36347 0.72842 0.826 0.0
C3364 C 0.35361 0.73748 0.8367 0.0
C3365 C 0.32288 0.76369 0.86578 0.0
C3366 C 0.33389 0.75455 0.85635 0.0
H3367 H 0.37254 0.72616 0.78766 0.0
H3368 H 0.36007 0.74364 0.80632 0.0
H3369 H 0.34031 0.71758 0.8443 0.0
H3370 H 0.28425 0.771 0.86789 0.0
H3371 H 0.30246 0.75283 0.85604 0.0
C3372 C 0.22209 0.29888 0.87207 0.0
C3373 C 0.20964 0.30474 0.88065 0.0
C3374 C 0.23193 0.30894 0.86417 0.0
C3375 C 0.24455 0.34904 0.85785 0.0
H3376 H 0.24668 0.33543 0.81509 0.0
C3377 C 0.27885 0.38249 0.80996 0.0
C3378 C 0.28863 0.37268 0.80137 0.0
C3379 C 0.26744 0.37617 0.81971 0.0
C3380 C 0.24622 0.33941 0.82698 0.0
H3381 H 0.19812 0.32552 0.88863 0.0
H3382 H 0.21555 0.34329 0.87484 0.0
H3383 H 0.23214 0.32027 0.83378 0.0
H3384 H 0.29356 0.34856 0.79585 0.0
H3385 H 0.27424 0.33784 0.81269 0.0
H3386 H 0.2592 0.36794 0.85102 0.0
C3387 C 0.21777 0.33095 0.87435 0.0
C3388 C 0.23796 0.33068 0.8377 0.0
C3389 C 0.20789 0.32082 0.88231 0.0
C3390 C 0.28639 0.35656 0.80234 0.0
C3391 C 0.27513 0.35034 0.81193 0.0
C3392 C 0.25304 0.35775 0.84709 0.0
C3393 C 0.22935 0.32502 0.86459 0.0
C3394 C 0.2374 0.33514 0.85332 0.0
C3395 C 0.26557 0.35999 0.82083 0.0
C3396 C 0.25434 0.35273 0.83163 0.0
H3397 H 0.22347 0.2865 0.87049 0.0
H3398 H 0.24095 0.30409 0.85692 0.0
H3399 H 0.24412 0.3528 0.86981 0.0
H3400 H 0.28024 0.39495 0.80942 0.0
H3401 H 0.26015 0.38388 0.8264 0.0
C3402 C 0.61207 0.28585 0.81995 0.0
C3403 C 0.61463 0.2842 0.80398 0.0
C3404 C 0.61975 0.27615 0.83046 0.0
C3405 C 0.65692 0.25677 0.83144 0.0
H3406 H 0.64329 0.23605 0.86889 0.0
C3407 C 0.69109 0.20803 0.85738 0.0
C3408 C 0.69384 0.20715 0.87342 0.0
C3409 C 0.68104 0.21897 0.85131 0.0
C3410 C 0.64727 0.2421 0.85864 0.0
H3411 H 0.62583 0.27049 0.78628 0.0
H3412 H 0.63877 0.2532 0.8045 0.0
H3413 H 0.62453 0.25065 0.85314 0.0
H3414 H 0.68806 0.21729 0.89567 0.0
H3415 H 0.67015 0.23676 0.8848 0.0
H3416 H 0.67947 0.24814 0.8366 0.0
C3417 C 0.63116 0.26212 0.80899 0.0
C3418 C 0.63654 0.2503 0.84959 0.0
C3419 C 0.62362 0.27185 0.79856 0.0
C3420 C 0.68619 0.21766 0.88328 0.0
C3421 C 0.67594 0.22873 0.87709 0.0
C3422 C 0.66755 0.24874 0.84045 0.0
C3423 C 0.63005 0.26478 0.82502 0.0
C3424 C 0.64121 0.25718 0.83559 0.0
C3425 C 0.67341 0.22948 0.86101 0.0
C3426 C 0.66275 0.24081 0.85381 0.0
H3427 H 0.60538 0.29553 0.82433 0.0
H3428 H 0.61867 0.27841 0.84275 0.0
H3429 H 0.66095 0.26242 0.82098 0.0
H3430 H 0.69662 0.20016 0.84932 0.0
H3431 H 0.6791 0.21904 0.83891 0.0
C3432 C 0.71862 0.63697 0.79701 0.0
C3433 C 0.71285 0.62192 0.79926 0.0
C3434 C 0.72927 0.6433 0.80725 0.0
C3435 C 0.74091 0.64 0.848 0.0
H3436 H 0.76802 0.6736 0.8357 0.0
C3437 C 0.78264 0.67909 0.88569 0.0
C3438 C 0.78183 0.69483 0.88165 0.0
C3439 C 0.77324 0.66828 0.87807 0.0
C3440 C 0.76046 0.66424 0.83929 0.0
H3441 H 0.71488 0.60111 0.81311 0.0
H3442 H 0.73406 0.61212 0.83102 0.0
H3443 H 0.7571 0.65672 0.81603 0.0
H3444 H 0.76955 0.71197 0.86812 0.0
H3445 H 0.75293 0.69318 0.85509 0.0
H3446 H 0.74473 0.64763 0.87143 0.0
C3447 C 0.72988 0.61916 0.82152 0.0
C3448 C 0.7542 0.65456 0.82804 0.0
C3449 C 0.71906 0.61278 0.81119 0.0
C3450 C 0.7703 0.69987 0.8714 0.0
C3451 C 0.76091 0.68913 0.86389 0.0
C3452 C 0.74749 0.64958 0.85935 0.0
C3453 C 0.73465 0.6347 0.81997 0.0
C3454 C 0.74384 0.64269 0.83216 0.0
C3455 C 0.76302 0.67321 0.86642 0.0
C3456 C 0.75685 0.6621 0.85498 0.0
H3457 H 0.71424 0.64425 0.78777 0.0
H3458 H 0.73245 0.65533 0.80567 0.0
H3459 H 0.73293 0.63104 0.85161 0.0
H3460 H 0.79162 0.67498 0.89342 0.0
H3461 H 0.77502 0.65603 0.88018 0.0
C3462 C 0.70011 0.77466 0.1287 0.0
C3463 C 0.69444 0.78565 0.11817 0.0
C3464 C 0.69011 0.76415 0.13576 0.0
C3465 C 0.64945 0.7608 0.14756 0.0
H3466 H 0.66144 0.71871 0.1576 0.0
C3467 C 0.6196 0.72232 0.19456 0.0
C3468 C 0.61865 0.70644 0.19124 0.0
C3469 C 0.62711 0.73236 0.18423 0.0
C3470 C 0.6578 0.73038 0.15476 0.0
H3471 H 0.67408 0.79409 0.10631 0.0
H3472 H 0.65643 0.77543 0.11852 0.0
H3473 H 0.67805 0.73432 0.14112 0.0
H3474 H 0.62395 0.68861 0.17446 0.0
H3475 H 0.63649 0.70608 0.1562 0.0
H3476 H 0.62913 0.75675 0.16128 0.0
C3477 C 0.66863 0.77499 0.12135 0.0
C3478 C 0.66741 0.73938 0.14542 0.0
C3479 C 0.67872 0.78546 0.11415 0.0
C3480 C 0.62443 0.70087 0.17714 0.0
C3481 C 0.63179 0.71084 0.16682 0.0
C3482 C 0.63979 0.75176 0.15695 0.0
C3483 C 0.67416 0.76453 0.13257 0.0
C3484 C 0.66338 0.75469 0.1417 0.0
C3485 C 0.63377 0.72658 0.17049 0.0
C3486 C 0.64383 0.73642 0.16058 0.0
H3487 H 0.71217 0.77484 0.13216 0.0
H3488 H 0.69477 0.75637 0.14443 0.0
H3489 H 0.64616 0.77267 0.14516 0.0
H3490 H 0.6155 0.72676 0.20556 0.0
H3491 H 0.62852 0.74442 0.18742 0.0
C3492 C 0.28985 0.63639 0.18988 0.0
C3493 C 0.28658 0.62102 0.19421 0.0
C3494 C 0.27995 0.64456 0.18034 0.0
C3495 C 0.25057 0.63955 0.15066 0.0
H3496 H 0.24403 0.68343 0.15796 0.0
C3497 C 0.20676 0.67716 0.11718 0.0
C3498 C 0.21023 0.69286 0.11503 0.0
C3499 C 0.21706 0.66755 0.12507 0.0
C3500 C 0.24597 0.67126 0.15561 0.0
H3501 H 0.27011 0.60222 0.19212 0.0
H3502 H 0.25236 0.61681 0.17519 0.0
H3503 H 0.25819 0.66816 0.17687 0.0
H3504 H 0.22729 0.71084 0.11856 0.0
H3505 H 0.24571 0.69391 0.13189 0.0
H3506 H 0.23827 0.6427 0.12939 0.0
C3507 C 0.26287 0.62232 0.1792 0.0
C3508 C 0.25396 0.66247 0.16651 0.0
C3509 C 0.27296 0.614 0.18885 0.0
C3510 C 0.2246 0.69864 0.11982 0.0
C3511 C 0.23497 0.68902 0.12767 0.0
C3512 C 0.24253 0.64836 0.13974 0.0
C3513 C 0.26637 0.63768 0.17485 0.0
C3514 C 0.25647 0.64655 0.16408 0.0
C3515 C 0.23096 0.67357 0.131 0.0
C3516 C 0.24024 0.66432 0.14205 0.0
H3517 H 0.30029 0.64221 0.19369 0.0
H3518 H 0.28319 0.65621 0.17696 0.0
H3519 H 0.25256 0.62737 0.14837 0.0
H3520 H 0.19552 0.67264 0.11394 0.0
H3521 H 0.21356 0.65578 0.12759 0.0
C3522 C 0.71326 0.35729 0.19846 0.0
C3523 C 0.70884 0.37294 0.19761 0.0
C3524 C 0.72414 0.35124 0.18831 0.0
C3525 C 0.73982 0.35681 0.14945 0.0
H3526 H 0.76609 0.32282 0.16259 0.0
C3527 C 0.78347 0.31929 0.11238 0.0
C3528 C 0.78273 0.30341 0.11583 0.0
C3529 C 0.77384 0.32976 0.12022 0.0
C3530 C 0.75878 0.33229 0.15875 0.0
H3531 H 0.71309 0.39476 0.18595 0.0
H3532 H 0.73249 0.38407 0.16802 0.0
H3533 H 0.75317 0.33867 0.18194 0.0
H3534 H 0.77055 0.28573 0.12873 0.0
H3535 H 0.75353 0.30389 0.1421 0.0
H3536 H 0.74568 0.35023 0.12613 0.0
C3537 C 0.72722 0.37651 0.17652 0.0
C3538 C 0.75142 0.34138 0.16981 0.0
C3539 C 0.71622 0.38264 0.18683 0.0
C3540 C 0.77122 0.29794 0.12585 0.0
C3541 C 0.76162 0.30833 0.1336 0.0
C3542 C 0.74744 0.34777 0.1383 0.0
C3543 C 0.73107 0.36065 0.17701 0.0
C3544 C 0.74135 0.35336 0.16531 0.0
C3545 C 0.7635 0.32436 0.13154 0.0
C3546 C 0.75649 0.33508 0.1429 0.0
H3547 H 0.70796 0.34949 0.20674 0.0
H3548 H 0.7266 0.33895 0.18892 0.0
H3549 H 0.73212 0.36593 0.14561 0.0
H3550 H 0.79247 0.32373 0.10486 0.0
H3551 H 0.77546 0.34208 0.11846 0.0
loop_
_geom_bond_atom_site_label_1
_geom_bond_atom_site_label_2
_geom_bond_distance
_geom_bond_site_symmetry_2
_ccdc_geom_bond_type
Mg0 O1 2.028 . S
Mg0 O7 1.986 . S
Mg0 O9 2.114 . S
Mg0 O10 2.251 . S
Mg0 O13 2.010 . S
O1 Mg0 2.028 . S
O1 C4 1.250 . S
O2 Mg3 2.028 . S
O2 C4 1.248 . S
Mg3 O2 2.028 . S
Mg3 O8 2.032 . S
Mg3 O10 2.079 . S
C4 O1 1.250 . S
C4 O2 1.248 . S
C5 O6 1.264 . S
C5 O13 1.249 . S
O6 C5 1.264 . S
O7 Mg0 1.986 . S
O7 C11 1.246 . S
O8 Mg3 2.032 . S
O8 C11 1.259 . S
O9 Mg0 2.114 . S
O9 C12 1.252 . S
O10 Mg0 2.251 . S
O10 Mg3 2.079 . S
O10 C12 1.273 . S
C11 O7 1.246 . S
C11 O8 1.259 . S
C12 O9 1.252 . S
C12 O10 1.273 . S
O13 Mg0 2.010 . S
O13 C5 1.249 . S
Mg14 O15 2.028 . S
Mg14 O21 1.986 . S
Mg14 O23 2.114 . S
Mg14 O24 2.251 . S
Mg14 O27 2.010 . S
O15 Mg14 2.028 . S
O15 C18 1.250 . S
O16 Mg17 2.028 . S
O16 C18 1.248 . S
Mg17 O16 2.028 . S
Mg17 O22 2.032 . S
Mg17 O24 2.079 . S
C18 O15 1.250 . S
C18 O16 1.248 . S
C19 O20 1.264 . S
C19 O27 1.249 . S
O20 C19 1.264 . S
O21 Mg14 1.986 . S
O21 C25 1.246 . S
O22 Mg17 2.032 . S
O22 C25 1.259 . S
O23 Mg14 2.114 . S
O23 C26 1.252 . S
O24 Mg14 2.251 . S
O24 Mg17 2.079 . S
O24 C26 1.273 . S
C25 O21 1.246 . S
C25 O22 1.259 . S
C26 O23 1.252 . S
C26 O24 1.273 . S
O27 Mg14 2.010 . S
O27 C19 1.249 . S
Mg28 O29 2.028 . S
Mg28 O35 1.986 . S
Mg28 O37 2.114 . S
Mg28 O38 2.251 . S
Mg28 O41 2.010 . S
O29 Mg28 2.028 . S
O29 C32 1.250 . S
O30 Mg31 2.028 . S
O30 C32 1.248 . S
Mg31 O30 2.028 . S
Mg31 O36 2.032 . S
Mg31 O38 2.079 . S
C32 O29 1.250 . S
C32 O30 1.248 . S
C33 O34 1.264 . S
C33 O41 1.249 . S
O34 C33 1.264 . S
O35 Mg28 1.986 . S
O35 C39 1.246 . S
O36 Mg31 2.032 . S
O36 C39 1.259 . S
O37 Mg28 2.114 . S
O37 C40 1.252 . S
O38 Mg28 2.251 . S
O38 Mg31 2.079 . S
O38 C40 1.273 . S
C39 O35 1.246 . S
C39 O36 1.259 . S
C40 O37 1.252 . S
C40 O38 1.273 . S
O41 Mg28 2.010 . S
O41 C33 1.249 . S
Mg42 O43 2.028 . S
Mg42 O49 1.986 . S
Mg42 O51 2.114 . S
Mg42 O52 2.251 . S
Mg42 O55 2.010 . S
O43 Mg42 2.028 . S
O43 C46 1.250 . S
O44 Mg45 2.028 . S
O44 C46 1.248 . S
Mg45 O44 2.028 . S
Mg45 O50 2.032 . S
Mg45 O52 2.079 . S
C46 O43 1.250 . S
C46 O44 1.248 . S
C47 O48 1.264 . S
C47 O55 1.249 . S
O48 C47 1.264 . S
O49 Mg42 1.986 . S
O49 C53 1.246 . S
O50 Mg45 2.032 . S
O50 C53 1.259 . S
O51 Mg42 2.114 . S
O51 C54 1.252 . S
O52 Mg42 2.251 . S
O52 Mg45 2.079 . S
O52 C54 1.273 . S
C53 O49 1.246 . S
C53 O50 1.259 . S
C54 O51 1.252 . S
C54 O52 1.273 . S
O55 Mg42 2.010 . S
O55 C47 1.249 . S
Mg56 O57 2.028 . S
Mg56 O63 1.986 . S
Mg56 O65 2.114 . S
Mg56 O66 2.251 . S
Mg56 O69 2.010 . S
O57 Mg56 2.028 . S
O57 C60 1.250 . S
O58 Mg59 2.028 . S
O58 C60 1.248 . S
Mg59 O58 2.028 . S
Mg59 O64 2.032 . S
Mg59 O66 2.079 . S
C60 O57 1.250 . S
C60 O58 1.248 . S
C61 O62 1.264 . S
C61 O69 1.249 . S
O62 C61 1.264 . S
O63 Mg56 1.986 . S
O63 C67 1.246 . S
O64 Mg59 2.032 . S
O64 C67 1.259 . S
O65 Mg56 2.114 . S
O65 C68 1.252 . S
O66 Mg56 2.251 . S
O66 Mg59 2.079 . S
O66 C68 1.273 . S
C67 O63 1.246 . S
C67 O64 1.259 . S
C68 O65 1.252 . S
C68 O66 1.273 . S
O69 Mg56 2.010 . S
O69 C61 1.249 . S
Mg70 O71 2.028 . S
Mg70 O77 1.986 . S
Mg70 O79 2.114 . S
Mg70 O80 2.251 . S
Mg70 O83 2.010 . S
O71 Mg70 2.028 . S
O71 C74 1.250 . S
O72 Mg73 2.028 . S
O72 C74 1.248 . S
Mg73 O72 2.028 . S
Mg73 O78 2.032 . S
Mg73 O80 2.079 . S
C74 O71 1.250 . S
C74 O72 1.248 . S
C75 O76 1.264 . S
C75 O83 1.249 . S
O76 C75 1.264 . S
O77 Mg70 1.986 . S
O77 C81 1.246 . S
O78 Mg73 2.032 . S
O78 C81 1.259 . S
O79 Mg70 2.114 . S
O79 C82 1.252 . S
O80 Mg70 2.251 . S
O80 Mg73 2.079 . S
O80 C82 1.273 . S
C81 O77 1.246 . S
C81 O78 1.259 . S
C82 O79 1.252 . S
C82 O80 1.273 . S
O83 Mg70 2.010 . S
O83 C75 1.249 . S
Mg84 O85 2.028 . S
Mg84 O91 1.986 . S
Mg84 O93 2.114 . S
Mg84 O94 2.251 . S
Mg84 O97 2.010 . S
O85 Mg84 2.028 . S
O85 C88 1.250 . S
O86 Mg87 2.028 . S
O86 C88 1.248 . S
Mg87 O86 2.028 . S
Mg87 O92 2.032 . S
Mg87 O94 2.079 . S
C88 O85 1.250 . S
C88 O86 1.248 . S
C89 O90 1.264 . S
C89 O97 1.249 . S
O90 C89 1.264 . S
O91 Mg84 1.986 . S
O91 C95 1.246 . S
O92 Mg87 2.032 . S
O92 C95 1.259 . S
O93 Mg84 2.114 . S
O93 C96 1.252 . S
O94 Mg84 2.251 . S
O94 Mg87 2.079 . S
O94 C96 1.273 . S
C95 O91 1.246 . S
C95 O92 1.259 . S
C96 O93 1.252 . S
C96 O94 1.273 . S
O97 Mg84 2.010 . S
O97 C89 1.249 . S
Mg98 O99 2.028 . S
Mg98 O105 1.986 . S
Mg98 O107 2.114 . S
Mg98 O108 2.251 . S
Mg98 O111 2.010 . S
O99 Mg98 2.028 . S
O99 C102 1.250 . S
O100 Mg101 2.028 . S
O100 C102 1.248 . S
Mg101 O100 2.028 . S
Mg101 O106 2.032 . S
Mg101 O108 2.079 . S
C102 O99 1.250 . S
C102 O100 1.248 . S
C103 O104 1.264 . S
C103 O111 1.249 . S
O104 C103 1.264 . S
O105 Mg98 1.986 . S
O105 C109 1.246 . S
O106 Mg101 2.032 . S
O106 C109 1.259 . S
O107 Mg98 2.114 . S
O107 C110 1.252 . S
O108 Mg98 2.251 . S
O108 Mg101 2.079 . S
O108 C110 1.273 . S
C109 O105 1.246 . S
C109 O106 1.259 . S
C110 O107 1.252 . S
C110 O108 1.273 . S
O111 Mg98 2.010 . S
O111 C103 1.249 . S
Mg112 O113 2.028 . S
Mg112 O119 1.986 . S
Mg112 O121 2.114 . S
Mg112 O122 2.251 . S
Mg112 O125 2.010 . S
O113 Mg112 2.028 . S
O113 C116 1.250 . S
O114 Mg115 2.028 . S
O114 C116 1.248 . S
Mg115 O114 2.028 . S
Mg115 O120 2.032 . S
Mg115 O122 2.079 . S
C116 O113 1.250 . S
C116 O114 1.248 . S
C117 O118 1.264 . S
C117 O125 1.249 . S
O118 C117 1.264 . S
O119 Mg112 1.986 . S
O119 C123 1.246 . S
O120 Mg115 2.032 . S
O120 C123 1.259 . S
O121 Mg112 2.114 . S
O121 C124 1.252 . S
O122 Mg112 2.251 . S
O122 Mg115 2.079 . S
O122 C124 1.273 . S
C123 O119 1.246 . S
C123 O120 1.259 . S
C124 O121 1.252 . S
C124 O122 1.273 . S
O125 Mg112 2.010 . S
O125 C117 1.249 . S
Mg126 O127 2.028 . S
Mg126 O133 1.986 . S
Mg126 O135 2.114 . S
Mg126 O136 2.251 . S
Mg126 O139 2.010 . S
O127 Mg126 2.028 . S
O127 C130 1.250 . S
O128 Mg129 2.028 . S
O128 C130 1.248 . S
Mg129 O128 2.028 . S
Mg129 O134 2.032 . S
Mg129 O136 2.079 . S
C130 O127 1.250 . S
C130 O128 1.248 . S
C131 O132 1.264 . S
C131 O139 1.249 . S
O132 C131 1.264 . S
O133 Mg126 1.986 . S
O133 C137 1.246 . S
O134 Mg129 2.032 . S
O134 C137 1.259 . S
O135 Mg126 2.114 . S
O135 C138 1.252 . S
O136 Mg126 2.251 . S
O136 Mg129 2.079 . S
O136 C138 1.273 . S
C137 O133 1.246 . S
C137 O134 1.259 . S
C138 O135 1.252 . S
C138 O136 1.273 . S
O139 Mg126 2.010 . S
O139 C131 1.249 . S
Mg140 O141 2.028 . S
Mg140 O147 1.986 . S
Mg140 O149 2.114 . S
Mg140 O150 2.251 . S
Mg140 O153 2.010 . S
O141 Mg140 2.028 . S
O141 C144 1.250 . S
O142 Mg143 2.028 . S
O142 C144 1.248 . S
Mg143 O142 2.028 . S
Mg143 O148 2.032 . S
Mg143 O150 2.079 . S
C144 O141 1.250 . S
C144 O142 1.248 . S
C145 O146 1.264 . S
C145 O153 1.249 . S
O146 C145 1.264 . S
O147 Mg140 1.986 . S
O147 C151 1.246 . S
O148 Mg143 2.032 . S
O148 C151 1.259 . S
O149 Mg140 2.114 . S
O149 C152 1.252 . S
O150 Mg140 2.251 . S
O150 Mg143 2.079 . S
O150 C152 1.273 . S
C151 O147 1.246 . S
C151 O148 1.259 . S
C152 O149 1.252 . S
C152 O150 1.273 . S
O153 Mg140 2.010 . S
O153 C145 1.249 . S
Mg154 O155 2.028 . S
Mg154 O161 1.986 . S
Mg154 O163 2.114 . S
Mg154 O164 2.251 . S
Mg154 O167 2.010 . S
O155 Mg154 2.028 . S
O155 C158 1.250 . S
O156 Mg157 2.028 . S
O156 C158 1.248 . S
Mg157 O156 2.028 . S
Mg157 O162 2.032 . S
Mg157 O164 2.079 . S
C158 O155 1.250 . S
C158 O156 1.248 . S
C159 O160 1.264 . S
C159 O167 1.249 . S
O160 C159 1.264 . S
O161 Mg154 1.986 . S
O161 C165 1.246 . S
O162 Mg157 2.032 . S
O162 C165 1.259 . S
O163 Mg154 2.114 . S
O163 C166 1.252 . S
O164 Mg154 2.251 . S
O164 Mg157 2.079 . S
O164 C166 1.273 . S
C165 O161 1.246 . S
C165 O162 1.259 . S
C166 O163 1.252 . S
C166 O164 1.273 . S
O167 Mg154 2.010 . S
O167 C159 1.249 . S
Mg168 O169 2.028 . S
Mg168 O175 1.986 . S
Mg168 O177 2.114 . S
Mg168 O178 2.251 . S
Mg168 O181 2.010 . S
O169 Mg168 2.028 . S
O169 C172 1.250 . S
O170 Mg171 2.028 . S
O170 C172 1.248 . S
Mg171 O170 2.028 . S
Mg171 O176 2.032 . S
Mg171 O178 2.079 . S
C172 O169 1.250 . S
C172 O170 1.248 . S
C173 O174 1.264 . S
C173 O181 1.249 . S
O174 C173 1.264 . S
O175 Mg168 1.986 . S
O175 C179 1.246 . S
O176 Mg171 2.032 . S
O176 C179 1.259 . S
O177 Mg168 2.114 . S
O177 C180 1.252 . S
O178 Mg168 2.251 . S
O178 Mg171 2.079 . S
O178 C180 1.273 . S
C179 O175 1.246 . S
C179 O176 1.259 . S
C180 O177 1.252 . S
C180 O178 1.273 . S
O181 Mg168 2.010 . S
O181 C173 1.249 . S
Mg182 O183 2.028 . S
Mg182 O189 1.986 . S
Mg182 O191 2.114 . S
Mg182 O192 2.251 . S
Mg182 O195 2.010 . S
O183 Mg182 2.028 . S
O183 C186 1.250 . S
O184 Mg185 2.028 . S
O184 C186 1.248 . S
Mg185 O184 2.028 . S
Mg185 O190 2.032 . S
Mg185 O192 2.079 . S
C186 O183 1.250 . S
C186 O184 1.248 . S
C187 O188 1.264 . S
C187 O195 1.249 . S
O188 C187 1.264 . S
O189 Mg182 1.986 . S
O189 C193 1.246 . S
O190 Mg185 2.032 . S
O190 C193 1.259 . S
O191 Mg182 2.114 . S
O191 C194 1.252 . S
O192 Mg182 2.251 . S
O192 Mg185 2.079 . S
O192 C194 1.273 . S
C193 O189 1.246 . S
C193 O190 1.259 . S
C194 O191 1.252 . S
C194 O192 1.273 . S
O195 Mg182 2.010 . S
O195 C187 1.249 . S
Mg196 O197 2.028 . S
Mg196 O203 1.986 . S
Mg196 O205 2.114 . S
Mg196 O206 2.251 . S
Mg196 O209 2.010 . S
O197 Mg196 2.028 . S
O197 C200 1.250 . S
O198 Mg199 2.028 . S
O198 C200 1.248 . S
Mg199 O198 2.028 . S
Mg199 O204 2.032 . S
Mg199 O206 2.079 . S
C200 O197 1.250 . S
C200 O198 1.248 . S
C201 O202 1.264 . S
C201 O209 1.249 . S
O202 C201 1.264 . S
O203 Mg196 1.986 . S
O203 C207 1.246 . S
O204 Mg199 2.032 . S
O204 C207 1.259 . S
O205 Mg196 2.114 . S
O205 C208 1.252 . S
O206 Mg196 2.251 . S
O206 Mg199 2.079 . S
O206 C208 1.273 . S
C207 O203 1.246 . S
C207 O204 1.259 . S
C208 O205 1.252 . S
C208 O206 1.273 . S
O209 Mg196 2.010 . S
O209 C201 1.249 . S
Mg210 O211 2.028 . S
Mg210 O217 1.986 . S
Mg210 O219 2.114 . S
Mg210 O220 2.251 . S
Mg210 O223 2.010 . S
O211 Mg210 2.028 . S
O211 C214 1.250 . S
O212 Mg213 2.028 . S
O212 C214 1.248 . S
Mg213 O212 2.028 . S
Mg213 O218 2.032 . S
Mg213 O220 2.079 . S
C214 O211 1.250 . S
C214 O212 1.248 . S
C215 O216 1.264 . S
C215 O223 1.249 . S
O216 C215 1.264 . S
O217 Mg210 1.986 . S
O217 C221 1.246 . S
O218 Mg213 2.032 . S
O218 C221 1.259 . S
O219 Mg210 2.114 . S
O219 C222 1.252 . S
O220 Mg210 2.251 . S
O220 Mg213 2.079 . S
O220 C222 1.273 . S
C221 O217 1.246 . S
C221 O218 1.259 . S
C222 O219 1.252 . S
C222 O220 1.273 . S
O223 Mg210 2.010 . S
O223 C215 1.249 . S
Mg224 O225 2.028 . S
Mg224 O231 1.986 . S
Mg224 O233 2.114 . S
Mg224 O234 2.251 . S
Mg224 O237 2.010 . S
O225 Mg224 2.028 . S
O225 C228 1.250 . S
O226 Mg227 2.028 . S
O226 C228 1.248 . S
Mg227 O226 2.028 . S
Mg227 O232 2.032 . S
Mg227 O234 2.079 . S
C228 O225 1.250 . S
C228 O226 1.248 . S
C229 O230 1.264 . S
C229 O237 1.249 . S
O230 C229 1.264 . S
O231 Mg224 1.986 . S
O231 C235 1.246 . S
O232 Mg227 2.032 . S
O232 C235 1.259 . S
O233 Mg224 2.114 . S
O233 C236 1.252 . S
O234 Mg224 2.251 . S
O234 Mg227 2.079 . S
O234 C236 1.273 . S
C235 O231 1.246 . S
C235 O232 1.259 . S
C236 O233 1.252 . S
C236 O234 1.273 . S
O237 Mg224 2.010 . S
O237 C229 1.249 . S
Mg238 O239 2.028 . S
Mg238 O245 1.986 . S
Mg238 O247 2.114 . S
Mg238 O248 2.251 . S
Mg238 O251 2.010 . S
O239 Mg238 2.028 . S
O239 C242 1.250 . S
O240 Mg241 2.028 . S
O240 C242 1.248 . S
Mg241 O240 2.028 . S
Mg241 O246 2.032 . S
Mg241 O248 2.079 . S
C242 O239 1.250 . S
C242 O240 1.248 . S
C243 O244 1.264 . S
C243 O251 1.249 . S
O244 C243 1.264 . S
O245 Mg238 1.986 . S
O245 C249 1.246 . S
O246 Mg241 2.032 . S
O246 C249 1.259 . S
O247 Mg238 2.114 . S
O247 C250 1.252 . S
O248 Mg238 2.251 . S
O248 Mg241 2.079 . S
O248 C250 1.273 . S
C249 O245 1.246 . S
C249 O246 1.259 . S
C250 O247 1.252 . S
C250 O248 1.273 . S
O251 Mg238 2.010 . S
O251 C243 1.249 . S
Mg252 O253 2.028 . S
Mg252 O259 1.986 . S
Mg252 O261 2.114 . S
Mg252 O262 2.251 . S
Mg252 O265 2.010 . S
O253 Mg252 2.028 . S
O253 C256 1.250 . S
O254 Mg255 2.028 . S
O254 C256 1.248 . S
Mg255 O254 2.028 . S
Mg255 O260 2.032 . S
Mg255 O262 2.079 . S
C256 O253 1.250 . S
C256 O254 1.248 . S
C257 O258 1.264 . S
C257 O265 1.249 . S
O258 C257 1.264 . S
O259 Mg252 1.986 . S
O259 C263 1.246 . S
O260 Mg255 2.032 . S
O260 C263 1.259 . S
O261 Mg252 2.114 . S
O261 C264 1.252 . S
O262 Mg252 2.251 . S
O262 Mg255 2.079 . S
O262 C264 1.273 . S
C263 O259 1.246 . S
C263 O260 1.259 . S
C264 O261 1.252 . S
C264 O262 1.273 . S
O265 Mg252 2.010 . S
O265 C257 1.249 . S
Mg266 O267 2.028 . S
Mg266 O273 1.986 . S
Mg266 O275 2.114 . S
Mg266 O276 2.251 . S
Mg266 O279 2.010 . S
O267 Mg266 2.028 . S
O267 C270 1.250 . S
O268 Mg269 2.028 . S
O268 C270 1.248 . S
Mg269 O268 2.028 . S
Mg269 O274 2.032 . S
Mg269 O276 2.079 . S
C270 O267 1.250 . S
C270 O268 1.248 . S
C271 O272 1.264 . S
C271 O279 1.249 . S
O272 C271 1.264 . S
O273 Mg266 1.986 . S
O273 C277 1.246 . S
O274 Mg269 2.032 . S
O274 C277 1.259 . S
O275 Mg266 2.114 . S
O275 C278 1.252 . S
O276 Mg266 2.251 . S
O276 Mg269 2.079 . S
O276 C278 1.273 . S
C277 O273 1.246 . S
C277 O274 1.259 . S
C278 O275 1.252 . S
C278 O276 1.273 . S
O279 Mg266 2.010 . S
O279 C271 1.249 . S
Mg280 O281 2.028 . S
Mg280 O287 1.986 . S
Mg280 O289 2.114 . S
Mg280 O290 2.251 . S
Mg280 O293 2.010 . S
O281 Mg280 2.028 . S
O281 C284 1.250 . S
O282 Mg283 2.028 . S
O282 C284 1.248 . S
Mg283 O282 2.028 . S
Mg283 O288 2.032 . S
Mg283 O290 2.079 . S
C284 O281 1.250 . S
C284 O282 1.248 . S
C285 O286 1.264 . S
C285 O293 1.249 . S
O286 C285 1.264 . S
O287 Mg280 1.986 . S
O287 C291 1.246 . S
O288 Mg283 2.032 . S
O288 C291 1.259 . S
O289 Mg280 2.114 . S
O289 C292 1.252 . S
O290 Mg280 2.251 . S
O290 Mg283 2.079 . S
O290 C292 1.273 . S
C291 O287 1.246 . S
C291 O288 1.259 . S
C292 O289 1.252 . S
C292 O290 1.273 . S
O293 Mg280 2.010 . S
O293 C285 1.249 . S
Mg294 O295 2.028 . S
Mg294 O301 1.986 . S
Mg294 O303 2.114 . S
Mg294 O304 2.251 . S
Mg294 O307 2.010 . S
O295 Mg294 2.028 . S
O295 C298 1.250 . S
O296 Mg297 2.028 . S
O296 C298 1.248 . S
Mg297 O296 2.028 . S
Mg297 O302 2.032 . S
Mg297 O304 2.079 . S
C298 O295 1.250 . S
C298 O296 1.248 . S
C299 O300 1.264 . S
C299 O307 1.249 . S
O300 C299 1.264 . S
O301 Mg294 1.986 . S
O301 C305 1.246 . S
O302 Mg297 2.032 . S
O302 C305 1.259 . S
O303 Mg294 2.114 . S
O303 C306 1.252 . S
O304 Mg294 2.251 . S
O304 Mg297 2.079 . S
O304 C306 1.273 . S
C305 O301 1.246 . S
C305 O302 1.259 . S
C306 O303 1.252 . S
C306 O304 1.273 . S
O307 Mg294 2.010 . S
O307 C299 1.249 . S
Mg308 O309 2.028 . S
Mg308 O315 1.986 . S
Mg308 O317 2.114 . S
Mg308 O318 2.251 . S
Mg308 O321 2.010 . S
O309 Mg308 2.028 . S
O309 C312 1.250 . S
O310 Mg311 2.028 . S
O310 C312 1.248 . S
Mg311 O310 2.028 . S
Mg311 O316 2.032 . S
Mg311 O318 2.079 . S
C312 O309 1.250 . S
C312 O310 1.248 . S
C313 O314 1.264 . S
C313 O321 1.249 . S
O314 C313 1.264 . S
O315 Mg308 1.986 . S
O315 C319 1.246 . S
O316 Mg311 2.032 . S
O316 C319 1.259 . S
O317 Mg308 2.114 . S
O317 C320 1.252 . S
O318 Mg308 2.251 . S
O318 Mg311 2.079 . S
O318 C320 1.273 . S
C319 O315 1.246 . S
C319 O316 1.259 . S
C320 O317 1.252 . S
C320 O318 1.273 . S
O321 Mg308 2.010 . S
O321 C313 1.249 . S
Mg322 O323 2.028 . S
Mg322 O329 1.986 . S
Mg322 O331 2.114 . S
Mg322 O332 2.251 . S
Mg322 O335 2.010 . S
O323 Mg322 2.028 . S
O323 C326 1.250 . S
O324 Mg325 2.028 . S
O324 C326 1.248 . S
Mg325 O324 2.028 . S
Mg325 O330 2.032 . S
Mg325 O332 2.079 . S
C326 O323 1.250 . S
C326 O324 1.248 . S
C327 O328 1.264 . S
C327 O335 1.249 . S
O328 C327 1.264 . S
O329 Mg322 1.986 . S
O329 C333 1.246 . S
O330 Mg325 2.032 . S
O330 C333 1.259 . S
O331 Mg322 2.114 . S
O331 C334 1.252 . S
O332 Mg322 2.251 . S
O332 Mg325 2.079 . S
O332 C334 1.273 . S
C333 O329 1.246 . S
C333 O330 1.259 . S
C334 O331 1.252 . S
C334 O332 1.273 . S
O335 Mg322 2.010 . S
O335 C327 1.249 . S
Mg336 O337 2.028 . S
Mg336 O343 1.986 . S
Mg336 O345 2.114 . S
Mg336 O346 2.251 . S
Mg336 O349 2.010 . S
O337 Mg336 2.028 . S
O337 C340 1.250 . S
O338 Mg339 2.028 . S
O338 C340 1.248 . S
Mg339 O338 2.028 . S
Mg339 O344 2.032 . S
Mg339 O346 2.079 . S
C340 O337 1.250 . S
C340 O338 1.248 . S
C341 O342 1.264 . S
C341 O349 1.249 . S
O342 C341 1.264 . S
O343 Mg336 1.986 . S
O343 C347 1.246 . S
O344 Mg339 2.032 . S
O344 C347 1.259 . S
O345 Mg336 2.114 . S
O345 C348 1.252 . S
O346 Mg336 2.251 . S
O346 Mg339 2.079 . S
O346 C348 1.273 . S
C347 O343 1.246 . S
C347 O344 1.259 . S
C348 O345 1.252 . S
C348 O346 1.273 . S
O349 Mg336 2.010 . S
O349 C341 1.249 . S
Mg350 O351 2.028 . S
Mg350 O357 1.986 . S
Mg350 O359 2.114 . S
Mg350 O360 2.251 . S
Mg350 O363 2.010 . S
O351 Mg350 2.028 . S
O351 C354 1.250 . S
O352 Mg353 2.028 . S
O352 C354 1.248 . S
Mg353 O352 2.028 . S
Mg353 O358 2.032 . S
Mg353 O360 2.079 . S
C354 O351 1.250 . S
C354 O352 1.248 . S
C355 O356 1.264 . S
C355 O363 1.249 . S
O356 C355 1.264 . S
O357 Mg350 1.986 . S
O357 C361 1.246 . S
O358 Mg353 2.032 . S
O358 C361 1.259 . S
O359 Mg350 2.114 . S
O359 C362 1.252 . S
O360 Mg350 2.251 . S
O360 Mg353 2.079 . S
O360 C362 1.273 . S
C361 O357 1.246 . S
C361 O358 1.259 . S
C362 O359 1.252 . S
C362 O360 1.273 . S
O363 Mg350 2.010 . S
O363 C355 1.249 . S
Mg364 O365 2.028 . S
Mg364 O371 1.986 . S
Mg364 O373 2.114 . S
Mg364 O374 2.251 . S
Mg364 O377 2.010 . S
O365 Mg364 2.028 . S
O365 C368 1.250 . S
O366 Mg367 2.028 . S
O366 C368 1.248 . S
Mg367 O366 2.028 . S
Mg367 O372 2.032 . S
Mg367 O374 2.079 . S
C368 O365 1.250 . S
C368 O366 1.248 . S
C369 O370 1.264 . S
C369 O377 1.249 . S
O370 C369 1.264 . S
O371 Mg364 1.986 . S
O371 C375 1.246 . S
O372 Mg367 2.032 . S
O372 C375 1.259 . S
O373 Mg364 2.114 . S
O373 C376 1.252 . S
O374 Mg364 2.251 . S
O374 Mg367 2.079 . S
O374 C376 1.273 . S
C375 O371 1.246 . S
C375 O372 1.259 . S
C376 O373 1.252 . S
C376 O374 1.273 . S
O377 Mg364 2.010 . S
O377 C369 1.249 . S
Mg378 O379 2.028 . S
Mg378 O385 1.986 . S
Mg378 O387 2.114 . S
Mg378 O388 2.251 . S
Mg378 O391 2.010 . S
O379 Mg378 2.028 . S
O379 C382 1.250 . S
O380 Mg381 2.028 . S
O380 C382 1.248 . S
Mg381 O380 2.028 . S
Mg381 O386 2.032 . S
Mg381 O388 2.079 . S
C382 O379 1.250 . S
C382 O380 1.248 . S
C383 O384 1.264 . S
C383 O391 1.249 . S
O384 C383 1.264 . S
O385 Mg378 1.986 . S
O385 C389 1.246 . S
O386 Mg381 2.032 . S
O386 C389 1.259 . S
O387 Mg378 2.114 . S
O387 C390 1.252 . S
O388 Mg378 2.251 . S
O388 Mg381 2.079 . S
O388 C390 1.273 . S
C389 O385 1.246 . S
C389 O386 1.259 . S
C390 O387 1.252 . S
C390 O388 1.273 . S
O391 Mg378 2.010 . S
O391 C383 1.249 . S
Mg392 O393 2.028 . S
Mg392 O399 1.986 . S
Mg392 O401 2.114 . S
Mg392 O402 2.251 . S
Mg392 O405 2.010 . S
O393 Mg392 2.028 . S
O393 C396 1.250 . S
O394 Mg395 2.028 . S
O394 C396 1.248 . S
Mg395 O394 2.028 . S
Mg395 O400 2.032 . S
Mg395 O402 2.079 . S
C396 O393 1.250 . S
C396 O394 1.248 . S
C397 O398 1.264 . S
C397 O405 1.249 . S
O398 C397 1.264 . S
O399 Mg392 1.986 . S
O399 C403 1.246 . S
O400 Mg395 2.032 . S
O400 C403 1.259 . S
O401 Mg392 2.114 . S
O401 C404 1.252 . S
O402 Mg392 2.251 . S
O402 Mg395 2.079 . S
O402 C404 1.273 . S
C403 O399 1.246 . S
C403 O400 1.259 . S
C404 O401 1.252 . S
C404 O402 1.273 . S
O405 Mg392 2.010 . S
O405 C397 1.249 . S
Mg406 O407 2.028 . S
Mg406 O413 1.986 . S
Mg406 O415 2.114 . S
Mg406 O416 2.251 . S
Mg406 O419 2.010 . S
O407 Mg406 2.028 . S
O407 C410 1.250 . S
O408 Mg409 2.028 . S
O408 C410 1.248 . S
Mg409 O408 2.028 . S
Mg409 O414 2.032 . S
Mg409 O416 2.079 . S
C410 O407 1.250 . S
C410 O408 1.248 . S
C411 O412 1.264 . S
C411 O419 1.249 . S
O412 C411 1.264 . S
O413 Mg406 1.986 . S
O413 C417 1.246 . S
O414 Mg409 2.032 . S
O414 C417 1.259 . S
O415 Mg406 2.114 . S
O415 C418 1.252 . S
O416 Mg406 2.251 . S
O416 Mg409 2.079 . S
O416 C418 1.273 . S
C417 O413 1.246 . S
C417 O414 1.259 . S
C418 O415 1.252 . S
C418 O416 1.273 . S
O419 Mg406 2.010 . S
O419 C411 1.249 . S
Mg420 O421 2.028 . S
Mg420 O427 1.986 . S
Mg420 O429 2.114 . S
Mg420 O430 2.251 . S
Mg420 O433 2.010 . S
O421 Mg420 2.028 . S
O421 C424 1.250 . S
O422 Mg423 2.028 . S
O422 C424 1.248 . S
Mg423 O422 2.028 . S
Mg423 O428 2.032 . S
Mg423 O430 2.079 . S
C424 O421 1.250 . S
C424 O422 1.248 . S
C425 O426 1.264 . S
C425 O433 1.249 . S
O426 C425 1.264 . S
O427 Mg420 1.986 . S
O427 C431 1.246 . S
O428 Mg423 2.032 . S
O428 C431 1.259 . S
O429 Mg420 2.114 . S
O429 C432 1.252 . S
O430 Mg420 2.251 . S
O430 Mg423 2.079 . S
O430 C432 1.273 . S
C431 O427 1.246 . S
C431 O428 1.259 . S
C432 O429 1.252 . S
C432 O430 1.273 . S
O433 Mg420 2.010 . S
O433 C425 1.249 . S
Mg434 O435 2.028 . S
Mg434 O441 1.986 . S
Mg434 O443 2.114 . S
Mg434 O444 2.251 . S
Mg434 O447 2.010 . S
O435 Mg434 2.028 . S
O435 C438 1.250 . S
O436 Mg437 2.028 . S
O436 C438 1.248 . S
Mg437 O436 2.028 . S
Mg437 O442 2.032 . S
Mg437 O444 2.079 . S
C438 O435 1.250 . S
C438 O436 1.248 . S
C439 O440 1.264 . S
C439 O447 1.249 . S
O440 C439 1.264 . S
O441 Mg434 1.986 . S
O441 C445 1.246 . S
O442 Mg437 2.032 . S
O442 C445 1.259 . S
O443 Mg434 2.114 . S
O443 C446 1.252 . S
O444 Mg434 2.251 . S
O444 Mg437 2.079 . S
O444 C446 1.273 . S
C445 O441 1.246 . S
C445 O442 1.259 . S
C446 O443 1.252 . S
C446 O444 1.273 . S
O447 Mg434 2.010 . S
O447 C439 1.249 . S
Mg448 O449 2.028 . S
Mg448 O455 1.986 . S
Mg448 O457 2.114 . S
Mg448 O458 2.251 . S
Mg448 O461 2.010 . S
O449 Mg448 2.028 . S
O449 C452 1.250 . S
O450 Mg451 2.028 . S
O450 C452 1.248 . S
Mg451 O450 2.028 . S
Mg451 O456 2.032 . S
Mg451 O458 2.079 . S
C452 O449 1.250 . S
C452 O450 1.248 . S
C453 O454 1.264 . S
C453 O461 1.249 . S
O454 C453 1.264 . S
O455 Mg448 1.986 . S
O455 C459 1.246 . S
O456 Mg451 2.032 . S
O456 C459 1.259 . S
O457 Mg448 2.114 . S
O457 C460 1.252 . S
O458 Mg448 2.251 . S
O458 Mg451 2.079 . S
O458 C460 1.273 . S
C459 O455 1.246 . S
C459 O456 1.259 . S
C460 O457 1.252 . S
C460 O458 1.273 . S
O461 Mg448 2.010 . S
O461 C453 1.249 . S
Mg462 O463 2.028 . S
Mg462 O469 1.986 . S
Mg462 O471 2.114 . S
Mg462 O472 2.251 . S
Mg462 O475 2.010 . S
O463 Mg462 2.028 . S
O463 C466 1.250 . S
O464 Mg465 2.028 . S
O464 C466 1.248 . S
Mg465 O464 2.028 . S
Mg465 O470 2.032 . S
Mg465 O472 2.079 . S
C466 O463 1.250 . S
C466 O464 1.248 . S
C467 O468 1.264 . S
C467 O475 1.249 . S
O468 C467 1.264 . S
O469 Mg462 1.986 . S
O469 C473 1.246 . S
O470 Mg465 2.032 . S
O470 C473 1.259 . S
O471 Mg462 2.114 . S
O471 C474 1.252 . S
O472 Mg462 2.251 . S
O472 Mg465 2.079 . S
O472 C474 1.273 . S
C473 O469 1.246 . S
C473 O470 1.259 . S
C474 O471 1.252 . S
C474 O472 1.273 . S
O475 Mg462 2.010 . S
O475 C467 1.249 . S
Mg476 O477 2.028 . S
Mg476 O483 1.986 . S
Mg476 O485 2.114 . S
Mg476 O486 2.251 . S
Mg476 O489 2.010 . S
O477 Mg476 2.028 . S
O477 C480 1.250 . S
O478 Mg479 2.028 . S
O478 C480 1.248 . S
Mg479 O478 2.028 . S
Mg479 O484 2.032 . S
Mg479 O486 2.079 . S
C480 O477 1.250 . S
C480 O478 1.248 . S
C481 O482 1.264 . S
C481 O489 1.249 . S
O482 C481 1.264 . S
O483 Mg476 1.986 . S
O483 C487 1.246 . S
O484 Mg479 2.032 . S
O484 C487 1.259 . S
O485 Mg476 2.114 . S
O485 C488 1.252 . S
O486 Mg476 2.251 . S
O486 Mg479 2.079 . S
O486 C488 1.273 . S
C487 O483 1.246 . S
C487 O484 1.259 . S
C488 O485 1.252 . S
C488 O486 1.273 . S
O489 Mg476 2.010 . S
O489 C481 1.249 . S
Mg490 O491 2.028 . S
Mg490 O497 1.986 . S
Mg490 O499 2.114 . S
Mg490 O500 2.251 . S
Mg490 O503 2.010 . S
O491 Mg490 2.028 . S
O491 C494 1.250 . S
O492 Mg493 2.028 . S
O492 C494 1.248 . S
Mg493 O492 2.028 . S
Mg493 O498 2.032 . S
Mg493 O500 2.079 . S
C494 O491 1.250 . S
C494 O492 1.248 . S
C495 O496 1.264 . S
C495 O503 1.249 . S
O496 C495 1.264 . S
O497 Mg490 1.986 . S
O497 C501 1.246 . S
O498 Mg493 2.032 . S
O498 C501 1.259 . S
O499 Mg490 2.114 . S
O499 C502 1.252 . S
O500 Mg490 2.251 . S
O500 Mg493 2.079 . S
O500 C502 1.273 . S
C501 O497 1.246 . S
C501 O498 1.259 . S
C502 O499 1.252 . S
C502 O500 1.273 . S
O503 Mg490 2.010 . S
O503 C495 1.249 . S
Mg504 O505 2.028 . S
Mg504 O511 1.986 . S
Mg504 O513 2.114 . S
Mg504 O514 2.251 . S
Mg504 O517 2.010 . S
O505 Mg504 2.028 . S
O505 C508 1.250 . S
O506 Mg507 2.028 . S
O506 C508 1.248 . S
Mg507 O506 2.028 . S
Mg507 O512 2.032 . S
Mg507 O514 2.079 . S
C508 O505 1.250 . S
C508 O506 1.248 . S
C509 O510 1.264 . S
C509 O517 1.249 . S
O510 C509 1.264 . S
O511 Mg504 1.986 . S
O511 C515 1.246 . S
O512 Mg507 2.032 . S
O512 C515 1.259 . S
O513 Mg504 2.114 . S
O513 C516 1.252 . S
O514 Mg504 2.251 . S
O514 Mg507 2.079 . S
O514 C516 1.273 . S
C515 O511 1.246 . S
C515 O512 1.259 . S
C516 O513 1.252 . S
C516 O514 1.273 . S
O517 Mg504 2.010 . S
O517 C509 1.249 . S
Mg518 O519 2.028 . S
Mg518 O525 1.986 . S
Mg518 O527 2.114 . S
Mg518 O528 2.251 . S
Mg518 O531 2.010 . S
O519 Mg518 2.028 . S
O519 C522 1.250 . S
O520 Mg521 2.028 . S
O520 C522 1.248 . S
Mg521 O520 2.028 . S
Mg521 O526 2.032 . S
Mg521 O528 2.079 . S
C522 O519 1.250 . S
C522 O520 1.248 . S
C523 O524 1.264 . S
C523 O531 1.249 . S
O524 C523 1.264 . S
O525 Mg518 1.986 . S
O525 C529 1.246 . S
O526 Mg521 2.032 . S
O526 C529 1.259 . S
O527 Mg518 2.114 . S
O527 C530 1.252 . S
O528 Mg518 2.251 . S
O528 Mg521 2.079 . S
O528 C530 1.273 . S
C529 O525 1.246 . S
C529 O526 1.259 . S
C530 O527 1.252 . S
C530 O528 1.273 . S
O531 Mg518 2.010 . S
O531 C523 1.249 . S
Mg532 O533 2.028 . S
Mg532 O539 1.986 . S
Mg532 O541 2.114 . S
Mg532 O542 2.251 . S
Mg532 O545 2.010 . S
O533 Mg532 2.028 . S
O533 C536 1.250 . S
O534 Mg535 2.028 . S
O534 C536 1.248 . S
Mg535 O534 2.028 . S
Mg535 O540 2.032 . S
Mg535 O542 2.079 . S
C536 O533 1.250 . S
C536 O534 1.248 . S
C537 O538 1.264 . S
C537 O545 1.249 . S
O538 C537 1.264 . S
O539 Mg532 1.986 . S
O539 C543 1.246 . S
O540 Mg535 2.032 . S
O540 C543 1.259 . S
O541 Mg532 2.114 . S
O541 C544 1.252 . S
O542 Mg532 2.251 . S
O542 Mg535 2.079 . S
O542 C544 1.273 . S
C543 O539 1.246 . S
C543 O540 1.259 . S
C544 O541 1.252 . S
C544 O542 1.273 . S
O545 Mg532 2.010 . S
O545 C537 1.249 . S
Mg546 O547 2.028 . S
Mg546 O553 1.986 . S
Mg546 O555 2.114 . S
Mg546 O556 2.251 . S
Mg546 O559 2.010 . S
O547 Mg546 2.028 . S
O547 C550 1.250 . S
O548 Mg549 2.028 . S
O548 C550 1.248 . S
Mg549 O548 2.028 . S
Mg549 O554 2.032 . S
Mg549 O556 2.079 . S
C550 O547 1.250 . S
C550 O548 1.248 . S
C551 O552 1.264 . S
C551 O559 1.249 . S
O552 C551 1.264 . S
O553 Mg546 1.986 . S
O553 C557 1.246 . S
O554 Mg549 2.032 . S
O554 C557 1.259 . S
O555 Mg546 2.114 . S
O555 C558 1.252 . S
O556 Mg546 2.251 . S
O556 Mg549 2.079 . S
O556 C558 1.273 . S
C557 O553 1.246 . S
C557 O554 1.259 . S
C558 O555 1.252 . S
C558 O556 1.273 . S
O559 Mg546 2.010 . S
O559 C551 1.249 . S
Mg560 O561 2.028 . S
Mg560 O567 1.986 . S
Mg560 O569 2.114 . S
Mg560 O570 2.251 . S
Mg560 O573 2.010 . S
O561 Mg560 2.028 . S
O561 C564 1.250 . S
O562 Mg563 2.028 . S
O562 C564 1.248 . S
Mg563 O562 2.028 . S
Mg563 O568 2.032 . S
Mg563 O570 2.079 . S
C564 O561 1.250 . S
C564 O562 1.248 . S
C565 O566 1.264 . S
C565 O573 1.249 . S
O566 C565 1.264 . S
O567 Mg560 1.986 . S
O567 C571 1.246 . S
O568 Mg563 2.032 . S
O568 C571 1.259 . S
O569 Mg560 2.114 . S
O569 C572 1.252 . S
O570 Mg560 2.251 . S
O570 Mg563 2.079 . S
O570 C572 1.273 . S
C571 O567 1.246 . S
C571 O568 1.259 . S
C572 O569 1.252 . S
C572 O570 1.273 . S
O573 Mg560 2.010 . S
O573 C565 1.249 . S
Mg574 O575 2.028 . S
Mg574 O581 1.986 . S
Mg574 O583 2.114 . S
Mg574 O584 2.251 . S
Mg574 O587 2.010 . S
O575 Mg574 2.028 . S
O575 C578 1.250 . S
O576 Mg577 2.028 . S
O576 C578 1.248 . S
Mg577 O576 2.028 . S
Mg577 O582 2.032 . S
Mg577 O584 2.079 . S
C578 O575 1.250 . S
C578 O576 1.248 . S
C579 O580 1.264 . S
C579 O587 1.249 . S
O580 C579 1.264 . S
O581 Mg574 1.986 . S
O581 C585 1.246 . S
O582 Mg577 2.032 . S
O582 C585 1.259 . S
O583 Mg574 2.114 . S
O583 C586 1.252 . S
O584 Mg574 2.251 . S
O584 Mg577 2.079 . S
O584 C586 1.273 . S
C585 O581 1.246 . S
C585 O582 1.259 . S
C586 O583 1.252 . S
C586 O584 1.273 . S
O587 Mg574 2.010 . S
O587 C579 1.249 . S
Mg588 O589 2.028 . S
Mg588 O595 1.986 . S
Mg588 O597 2.114 . S
Mg588 O598 2.251 . S
Mg588 O601 2.010 . S
O589 Mg588 2.028 . S
O589 C592 1.250 . S
O590 Mg591 2.028 . S
O590 C592 1.248 . S
Mg591 O590 2.028 . S
Mg591 O596 2.032 . S
Mg591 O598 2.079 . S
C592 O589 1.250 . S
C592 O590 1.248 . S
C593 O594 1.264 . S
C593 O601 1.249 . S
O594 C593 1.264 . S
O595 Mg588 1.986 . S
O595 C599 1.246 . S
O596 Mg591 2.032 . S
O596 C599 1.259 . S
O597 Mg588 2.114 . S
O597 C600 1.252 . S
O598 Mg588 2.251 . S
O598 Mg591 2.079 . S
O598 C600 1.273 . S
C599 O595 1.246 . S
C599 O596 1.259 . S
C600 O597 1.252 . S
C600 O598 1.273 . S
O601 Mg588 2.010 . S
O601 C593 1.249 . S
Mg602 O603 2.028 . S
Mg602 O609 1.986 . S
Mg602 O611 2.114 . S
Mg602 O612 2.251 . S
Mg602 O615 2.010 . S
O603 Mg602 2.028 . S
O603 C606 1.250 . S
O604 Mg605 2.028 . S
O604 C606 1.248 . S
Mg605 O604 2.028 . S
Mg605 O610 2.032 . S
Mg605 O612 2.079 . S
C606 O603 1.250 . S
C606 O604 1.248 . S
C607 O608 1.264 . S
C607 O615 1.249 . S
O608 C607 1.264 . S
O609 Mg602 1.986 . S
O609 C613 1.246 . S
O610 Mg605 2.032 . S
O610 C613 1.259 . S
O611 Mg602 2.114 . S
O611 C614 1.252 . S
O612 Mg602 2.251 . S
O612 Mg605 2.079 . S
O612 C614 1.273 . S
C613 O609 1.246 . S
C613 O610 1.259 . S
C614 O611 1.252 . S
C614 O612 1.273 . S
O615 Mg602 2.010 . S
O615 C607 1.249 . S
Mg616 O617 2.028 . S
Mg616 O623 1.986 . S
Mg616 O625 2.114 . S
Mg616 O626 2.251 . S
Mg616 O629 2.010 . S
O617 Mg616 2.028 . S
O617 C620 1.250 . S
O618 Mg619 2.028 . S
O618 C620 1.248 . S
Mg619 O618 2.028 . S
Mg619 O624 2.032 . S
Mg619 O626 2.079 . S
C620 O617 1.250 . S
C620 O618 1.248 . S
C621 O622 1.264 . S
C621 O629 1.249 . S
O622 C621 1.264 . S
O623 Mg616 1.986 . S
O623 C627 1.246 . S
O624 Mg619 2.032 . S
O624 C627 1.259 . S
O625 Mg616 2.114 . S
O625 C628 1.252 . S
O626 Mg616 2.251 . S
O626 Mg619 2.079 . S
O626 C628 1.273 . S
C627 O623 1.246 . S
C627 O624 1.259 . S
C628 O625 1.252 . S
C628 O626 1.273 . S
O629 Mg616 2.010 . S
O629 C621 1.249 . S
Mg630 O631 2.028 . S
Mg630 O637 1.986 . S
Mg630 O639 2.114 . S
Mg630 O640 2.251 . S
Mg630 O643 2.010 . S
O631 Mg630 2.028 . S
O631 C634 1.250 . S
O632 Mg633 2.028 . S
O632 C634 1.248 . S
Mg633 O632 2.028 . S
Mg633 O638 2.032 . S
Mg633 O640 2.079 . S
C634 O631 1.250 . S
C634 O632 1.248 . S
C635 O636 1.264 . S
C635 O643 1.249 . S
O636 C635 1.264 . S
O637 Mg630 1.986 . S
O637 C641 1.246 . S
O638 Mg633 2.032 . S
O638 C641 1.259 . S
O639 Mg630 2.114 . S
O639 C642 1.252 . S
O640 Mg630 2.251 . S
O640 Mg633 2.079 . S
O640 C642 1.273 . S
C641 O637 1.246 . S
C641 O638 1.259 . S
C642 O639 1.252 . S
C642 O640 1.273 . S
O643 Mg630 2.010 . S
O643 C635 1.249 . S
Mg644 O645 2.028 . S
Mg644 O651 1.986 . S
Mg644 O653 2.114 . S
Mg644 O654 2.251 . S
Mg644 O657 2.010 . S
O645 Mg644 2.028 . S
O645 C648 1.250 . S
O646 Mg647 2.028 . S
O646 C648 1.248 . S
Mg647 O646 2.028 . S
Mg647 O652 2.032 . S
Mg647 O654 2.079 . S
C648 O645 1.250 . S
C648 O646 1.248 . S
C649 O650 1.264 . S
C649 O657 1.249 . S
O650 C649 1.264 . S
O651 Mg644 1.986 . S
O651 C655 1.246 . S
O652 Mg647 2.032 . S
O652 C655 1.259 . S
O653 Mg644 2.114 . S
O653 C656 1.252 . S
O654 Mg644 2.251 . S
O654 Mg647 2.079 . S
O654 C656 1.273 . S
C655 O651 1.246 . S
C655 O652 1.259 . S
C656 O653 1.252 . S
C656 O654 1.273 . S
O657 Mg644 2.010 . S
O657 C649 1.249 . S
Mg658 O659 2.028 . S
Mg658 O665 1.986 . S
Mg658 O667 2.114 . S
Mg658 O668 2.251 . S
Mg658 O671 2.010 . S
O659 Mg658 2.028 . S
O659 C662 1.250 . S
O660 Mg661 2.028 . S
O660 C662 1.248 . S
Mg661 O660 2.028 . S
Mg661 O666 2.032 . S
Mg661 O668 2.079 . S
C662 O659 1.250 . S
C662 O660 1.248 . S
C663 O664 1.264 . S
C663 O671 1.249 . S
O664 C663 1.264 . S
O665 Mg658 1.986 . S
O665 C669 1.246 . S
O666 Mg661 2.032 . S
O666 C669 1.259 . S
O667 Mg658 2.114 . S
O667 C670 1.252 . S
O668 Mg658 2.251 . S
O668 Mg661 2.079 . S
O668 C670 1.273 . S
C669 O665 1.246 . S
C669 O666 1.259 . S
C670 O667 1.252 . S
C670 O668 1.273 . S
O671 Mg658 2.010 . S
O671 C663 1.249 . S
C672 C673 1.349 . S
C672 C674 1.327 . S
C672 H697 0.950 . S
C673 C672 1.349 . S
C673 C689 1.349 . S
C674 C672 1.327 . S
C674 C693 1.429 . S
C674 H698 0.950 . S
C675 C692 1.574 1_655 S
C675 C694 1.368 . S
C675 H699 0.949 . S
H676 C680 0.949 . S
C677 C678 1.349 . S
C677 C679 1.327 . S
C677 H700 0.950 . S
C678 C677 1.349 . S
C678 C690 1.349 . S
C679 C677 1.327 . S
C679 C695 1.429 . S
C679 H701 0.950 . S
C680 H676 0.949 . S
C680 C688 1.574 1_455 S
C680 C696 1.368 . S
H681 C689 0.950 . S
H682 C687 0.950 . S
H683 C688 0.949 . S
H684 C690 0.950 . S
H685 C691 0.950 . S
H686 C692 0.949 . S
C687 H682 0.950 . S
C687 C689 1.327 . S
C687 C693 1.429 . S
C688 C680 1.574 1_655 S
C688 H683 0.949 . S
C688 C694 1.368 . S
C689 C673 1.349 . S
C689 H681 0.950 . S
C689 C687 1.327 . S
C690 C678 1.349 . S
C690 H684 0.950 . S
C690 C691 1.327 . S
C691 H685 0.950 . S
C691 C690 1.327 . S
C691 C695 1.429 . S
C692 C675 1.574 1_455 S
C692 H686 0.949 . S
C692 C696 1.368 . S
C693 C674 1.429 . S
C693 C687 1.429 . S
C693 C694 1.523 . S
C694 C675 1.368 . S
C694 C688 1.368 . S
C694 C693 1.523 . S
C695 C679 1.429 . S
C695 C691 1.429 . S
C695 C696 1.523 . S
C696 C680 1.368 . S
C696 C692 1.368 . S
C696 C695 1.523 . S
H697 C672 0.950 . S
H698 C674 0.950 . S
H699 C675 0.949 . S
H700 C677 0.950 . S
H701 C679 0.950 . S
C702 C703 1.349 . S
C702 C704 1.327 . S
C702 H727 0.950 . S
C703 C702 1.349 . S
C703 C719 1.349 . S
C704 C702 1.327 . S
C704 C723 1.429 . S
C704 H728 0.950 . S
C705 C722 1.574 . S
C705 C724 1.368 1_545 S
C705 H729 0.949 . S
H706 C710 0.949 . S
C707 C708 1.349 . S
C707 C709 1.327 . S
C707 H730 0.950 . S
C708 C707 1.349 . S
C708 C720 1.349 . S
C709 C707 1.327 . S
C709 C725 1.429 . S
C709 H731 0.950 . S
C710 H706 0.949 . S
C710 C718 1.574 . S
C710 C726 1.368 1_565 S
H711 C719 0.950 . S
H712 C717 0.950 . S
H713 C718 0.949 . S
H714 C720 0.950 . S
H715 C721 0.950 . S
H716 C722 0.949 . S
C717 H712 0.950 . S
C717 C719 1.327 . S
C717 C723 1.429 . S
C718 C710 1.574 . S
C718 H713 0.949 . S
C718 C724 1.368 . S
C719 C703 1.349 . S
C719 H711 0.950 . S
C719 C717 1.327 . S
C720 C708 1.349 . S
C720 H714 0.950 . S
C720 C721 1.327 . S
C721 H715 0.950 . S
C721 C720 1.327 . S
C721 C725 1.429 . S
C722 C705 1.574 . S
C722 H716 0.949 . S
C722 C726 1.368 . S
C723 C704 1.429 . S
C723 C717 1.429 . S
C723 C724 1.523 . S
C724 C705 1.368 1_565 S
C724 C718 1.368 . S
C724 C723 1.523 . S
C725 C709 1.429 . S
C725 C721 1.429 . S
C725 C726 1.523 . S
C726 C710 1.368 1_545 S
C726 C722 1.368 . S
C726 C725 1.523 . S
H727 C702 0.950 . S
H728 C704 0.950 . S
H729 C705 0.949 . S
H730 C707 0.950 . S
H731 C709 0.950 . S
C732 C733 1.349 . S
C732 C734 1.327 . S
C732 H757 0.950 . S
C733 C732 1.349 . S
C733 C749 1.349 . S
C734 C732 1.327 . S
C734 C753 1.429 . S
C734 H758 0.950 . S
C735 C752 1.574 1_455 S
C735 C754 1.368 . S
C735 H759 0.949 . S
H736 C740 0.949 . S
C737 C738 1.349 . S
C737 C739 1.327 . S
C737 H760 0.950 . S
C738 C737 1.349 . S
C738 C750 1.349 . S
C739 C737 1.327 . S
C739 C755 1.429 . S
C739 H761 0.950 . S
C740 H736 0.949 . S
C740 C748 1.574 1_655 S
C740 C756 1.368 . S
H741 C749 0.950 . S
H742 C747 0.950 . S
H743 C748 0.949 . S
H744 C750 0.950 . S
H745 C751 0.950 . S
H746 C752 0.949 . S
C747 H742 0.950 . S
C747 C749 1.327 . S
C747 C753 1.429 . S
C748 C740 1.574 1_455 S
C748 H743 0.949 . S
C748 C754 1.368 . S
C749 C733 1.349 . S
C749 H741 0.950 . S
C749 C747 1.327 . S
C750 C738 1.349 . S
C750 H744 0.950 . S
C750 C751 1.327 . S
C751 H745 0.950 . S
C751 C750 1.327 . S
C751 C755 1.429 . S
C752 C735 1.574 1_655 S
C752 H746 0.949 . S
C752 C756 1.368 . S
C753 C734 1.429 . S
C753 C747 1.429 . S
C753 C754 1.523 . S
C754 C735 1.368 . S
C754 C748 1.368 . S
C754 C753 1.523 . S
C755 C739 1.429 . S
C755 C751 1.429 . S
C755 C756 1.523 . S
C756 C740 1.368 . S
C756 C752 1.368 . S
C756 C755 1.523 . S
H757 C732 0.950 . S
H758 C734 0.950 . S
H759 C735 0.949 . S
H760 C737 0.950 . S
H761 C739 0.950 . S
C762 C763 1.349 . S
C762 C764 1.327 . S
C762 H787 0.950 . S
C763 C762 1.349 . S
C763 C779 1.349 . S
C764 C762 1.327 . S
C764 C783 1.429 . S
C764 H788 0.950 . S
C765 C782 1.574 1_565 S
C765 C784 1.368 . S
C765 H789 0.949 . S
H766 C770 0.949 . S
C767 C768 1.349 . S
C767 C769 1.327 . S
C767 H790 0.950 . S
C768 C767 1.349 . S
C768 C780 1.349 . S
C769 C767 1.327 . S
C769 C785 1.429 . S
C769 H791 0.950 . S
C770 H766 0.949 . S
C770 C778 1.574 1_545 S
C770 C786 1.368 . S
H771 C779 0.950 . S
H772 C777 0.950 . S
H773 C778 0.949 . S
H774 C780 0.950 . S
H775 C781 0.950 . S
H776 C782 0.949 . S
C777 H772 0.950 . S
C777 C779 1.327 . S
C777 C783 1.429 . S
C778 C770 1.574 1_565 S
C778 H773 0.949 . S
C778 C784 1.368 . S
C779 C763 1.349 . S
C779 H771 0.950 . S
C779 C777 1.327 . S
C780 C768 1.349 . S
C780 H774 0.950 . S
C780 C781 1.327 . S
C781 H775 0.950 . S
C781 C780 1.327 . S
C781 C785 1.429 . S
C782 C765 1.574 1_545 S
C782 H776 0.949 . S
C782 C786 1.368 . S
C783 C764 1.429 . S
C783 C777 1.429 . S
C783 C784 1.523 . S
C784 C765 1.368 . S
C784 C778 1.368 . S
C784 C783 1.523 . S
C785 C769 1.429 . S
C785 C781 1.429 . S
C785 C786 1.523 . S
C786 C770 1.368 . S
C786 C782 1.368 . S
C786 C785 1.523 . S
H787 C762 0.950 . S
H788 C764 0.950 . S
H789 C765 0.949 . S
H790 C767 0.950 . S
H791 C769 0.950 . S
C792 C793 1.349 . S
C792 C794 1.327 . S
C792 H817 0.950 . S
C793 C792 1.349 . S
C793 C809 1.349 . S
C794 C792 1.327 . S
C794 C813 1.429 . S
C794 H818 0.950 . S
C795 C812 1.574 1_655 S
C795 C814 1.368 . S
C795 H819 0.949 . S
H796 C800 0.949 . S
C797 C798 1.349 . S
C797 C799 1.327 . S
C797 H820 0.950 . S
C798 C797 1.349 . S
C798 C810 1.349 . S
C799 C797 1.327 . S
C799 C815 1.429 . S
C799 H821 0.950 . S
C800 H796 0.949 . S
C800 C808 1.574 1_455 S
C800 C816 1.368 . S
H801 C809 0.950 . S
H802 C807 0.950 . S
H803 C808 0.949 . S
H804 C810 0.950 . S
H805 C811 0.950 . S
H806 C812 0.949 . S
C807 H802 0.950 . S
C807 C809 1.327 . S
C807 C813 1.429 . S
C808 C800 1.574 1_655 S
C808 H803 0.949 . S
C808 C814 1.368 . S
C809 C793 1.349 . S
C809 H801 0.950 . S
C809 C807 1.327 . S
C810 C798 1.349 . S
C810 H804 0.950 . S
C810 C811 1.327 . S
C811 H805 0.950 . S
C811 C810 1.327 . S
C811 C815 1.429 . S
C812 C795 1.574 1_455 S
C812 H806 0.949 . S
C812 C816 1.368 . S
C813 C794 1.429 . S
C813 C807 1.429 . S
C813 C814 1.523 . S
C814 C795 1.368 . S
C814 C808 1.368 . S
C814 C813 1.523 . S
C815 C799 1.429 . S
C815 C811 1.429 . S
C815 C816 1.523 . S
C816 C800 1.368 . S
C816 C812 1.368 . S
C816 C815 1.523 . S
H817 C792 0.950 . S
H818 C794 0.950 . S
H819 C795 0.949 . S
H820 C797 0.950 . S
H821 C799 0.950 . S
C822 C823 1.349 . S
C822 C824 1.327 . S
C822 H847 0.950 . S
C823 C822 1.349 . S
C823 C839 1.349 . S
C824 C822 1.327 . S
C824 C843 1.429 . S
C824 H848 0.950 . S
C825 C842 1.574 1_545 S
C825 C844 1.368 . S
C825 H849 0.949 . S
H826 C830 0.949 . S
C827 C828 1.349 . S
C827 C829 1.327 . S
C827 H850 0.950 . S
C828 C827 1.349 . S
C828 C840 1.349 . S
C829 C827 1.327 . S
C829 C845 1.429 . S
C829 H851 0.950 . S
C830 H826 0.949 . S
C830 C838 1.574 1_565 S
C830 C846 1.368 . S
H831 C839 0.950 . S
H832 C837 0.950 . S
H833 C838 0.949 . S
H834 C840 0.950 . S
H835 C841 0.950 . S
H836 C842 0.949 . S
C837 H832 0.950 . S
C837 C839 1.327 . S
C837 C843 1.429 . S
C838 C830 1.574 1_545 S
C838 H833 0.949 . S
C838 C844 1.368 . S
C839 C823 1.349 . S
C839 H831 0.950 . S
C839 C837 1.327 . S
C840 C828 1.349 . S
C840 H834 0.950 . S
C840 C841 1.327 . S
C841 H835 0.950 . S
C841 C840 1.327 . S
C841 C845 1.429 . S
C842 C825 1.574 1_565 S
C842 H836 0.949 . S
C842 C846 1.368 . S
C843 C824 1.429 . S
C843 C837 1.429 . S
C843 C844 1.523 . S
C844 C825 1.368 . S
C844 C838 1.368 . S
C844 C843 1.523 . S
C845 C829 1.429 . S
C845 C841 1.429 . S
C845 C846 1.523 . S
C846 C830 1.368 . S
C846 C842 1.368 . S
C846 C845 1.523 . S
H847 C822 0.950 . S
H848 C824 0.950 . S
H849 C825 0.949 . S
H850 C827 0.950 . S
H851 C829 0.950 . S
C852 C853 1.349 . S
C852 C854 1.327 . S
C852 H877 0.950 . S
C853 C852 1.349 . S
C853 C869 1.349 . S
C854 C852 1.327 . S
C854 C873 1.429 . S
C854 H878 0.950 . S
C855 C872 1.574 . S
C855 C874 1.368 1_655 S
C855 H879 0.949 . S
H856 C860 0.949 . S
C857 C858 1.349 . S
C857 C859 1.327 . S
C857 H880 0.950 . S
C858 C857 1.349 . S
C858 C870 1.349 . S
C859 C857 1.327 . S
C859 C875 1.429 . S
C859 H881 0.950 . S
C860 H856 0.949 . S
C860 C868 1.574 . S
C860 C876 1.368 1_455 S
H861 C869 0.950 . S
H862 C867 0.950 . S
H863 C868 0.949 . S
H864 C870 0.950 . S
H865 C871 0.950 . S
H866 C872 0.949 . S
C867 H862 0.950 . S
C867 C869 1.327 . S
C867 C873 1.429 . S
C868 C860 1.574 . S
C868 H863 0.949 . S
C868 C874 1.368 . S
C869 C853 1.349 . S
C869 H861 0.950 . S
C869 C867 1.327 . S
C870 C858 1.349 . S
C870 H864 0.950 . S
C870 C871 1.327 . S
C871 H865 0.950 . S
C871 C870 1.327 . S
C871 C875 1.429 . S
C872 C855 1.574 . S
C872 H866 0.949 . S
C872 C876 1.368 . S
C873 C854 1.429 . S
C873 C867 1.429 . S
C873 C874 1.523 . S
C874 C855 1.368 1_455 S
C874 C868 1.368 . S
C874 C873 1.523 . S
C875 C859 1.429 . S
C875 C871 1.429 . S
C875 C876 1.523 . S
C876 C860 1.368 1_655 S
C876 C872 1.368 . S
C876 C875 1.523 . S
H877 C852 0.950 . S
H878 C854 0.950 . S
H879 C855 0.949 . S
H880 C857 0.950 . S
H881 C859 0.950 . S
C882 C883 1.349 . S
C882 C884 1.327 . S
C882 H907 0.950 . S
C883 C882 1.349 . S
C883 C899 1.349 . S
C884 C882 1.327 . S
C884 C903 1.429 . S
C884 H908 0.950 . S
C885 C902 1.574 . S
C885 C904 1.368 . S
C885 H909 0.949 . S
H886 C890 0.949 . S
C887 C888 1.349 . S
C887 C889 1.327 . S
C887 H910 0.950 . S
C888 C887 1.349 . S
C888 C900 1.349 . S
C889 C887 1.327 . S
C889 C905 1.429 . S
C889 H911 0.950 . S
C890 H886 0.949 . S
C890 C898 1.574 . S
C890 C906 1.368 . S
H891 C899 0.950 . S
H892 C897 0.950 . S
H893 C898 0.949 . S
H894 C900 0.950 . S
H895 C901 0.950 . S
H896 C902 0.949 . S
C897 H892 0.950 . S
C897 C899 1.327 . S
C897 C903 1.429 . S
C898 C890 1.574 . S
C898 H893 0.949 . S
C898 C904 1.368 1_565 S
C899 C883 1.349 . S
C899 H891 0.950 . S
C899 C897 1.327 . S
C900 C888 1.349 . S
C900 H894 0.950 . S
C900 C901 1.327 . S
C901 H895 0.950 . S
C901 C900 1.327 . S
C901 C905 1.429 . S
C902 C885 1.574 . S
C902 H896 0.949 . S
C902 C906 1.368 1_545 S
C903 C884 1.429 . S
C903 C897 1.429 . S
C903 C904 1.523 . S
C904 C885 1.368 . S
C904 C898 1.368 1_545 S
C904 C903 1.523 . S
C905 C889 1.429 . S
C905 C901 1.429 . S
C905 C906 1.523 . S
C906 C890 1.368 . S
C906 C902 1.368 1_565 S
C906 C905 1.523 . S
H907 C882 0.950 . S
H908 C884 0.950 . S
H909 C885 0.949 . S
H910 C887 0.950 . S
H911 C889 0.950 . S
C912 C913 1.349 . S
C912 C914 1.327 . S
C912 H937 0.950 . S
C913 C912 1.349 . S
C913 C929 1.349 . S
C914 C912 1.327 . S
C914 C933 1.429 . S
C914 H938 0.950 . S
C915 C932 1.574 . S
C915 C934 1.368 1_556 S
C915 H939 0.949 . S
H916 C920 0.949 . S
C917 C918 1.349 . S
C917 C919 1.327 . S
C917 H940 0.950 . S
C918 C917 1.349 . S
C918 C930 1.349 . S
C919 C917 1.327 . S
C919 C935 1.429 . S
C919 H941 0.950 . S
C920 H916 0.949 . S
C920 C928 1.574 . S
C920 C936 1.368 1_554 S
H921 C929 0.950 . S
H922 C927 0.950 . S
H923 C928 0.949 . S
H924 C930 0.950 . S
H925 C931 0.950 . S
H926 C932 0.949 . S
C927 H922 0.950 . S
C927 C929 1.327 . S
C927 C933 1.429 . S
C928 C920 1.574 . S
C928 H923 0.949 . S
C928 C934 1.368 . S
C929 C913 1.349 . S
C929 H921 0.950 . S
C929 C927 1.327 . S
C930 C918 1.349 . S
C930 H924 0.950 . S
C930 C931 1.327 . S
C931 H925 0.950 . S
C931 C930 1.327 . S
C931 C935 1.429 . S
C932 C915 1.574 . S
C932 H926 0.949 . S
C932 C936 1.368 . S
C933 C914 1.429 . S
C933 C927 1.429 . S
C933 C934 1.523 . S
C934 C915 1.368 1_554 S
C934 C928 1.368 . S
C934 C933 1.523 . S
C935 C919 1.429 . S
C935 C931 1.429 . S
C935 C936 1.523 . S
C936 C920 1.368 1_556 S
C936 C932 1.368 . S
C936 C935 1.523 . S
H937 C912 0.950 . S
H938 C914 0.950 . S
H939 C915 0.949 . S
H940 C917 0.950 . S
H941 C919 0.950 . S
C942 C943 1.349 . S
C942 C944 1.327 . S
C942 H967 0.950 . S
C943 C942 1.349 . S
C943 C959 1.349 . S
C944 C942 1.327 . S
C944 C963 1.429 . S
C944 H968 0.950 . S
C945 C962 1.574 1_556 S
C945 C964 1.368 . S
C945 H969 0.949 . S
H946 C950 0.949 . S
C947 C948 1.349 . S
C947 C949 1.327 . S
C947 H970 0.950 . S
C948 C947 1.349 . S
C948 C960 1.349 . S
C949 C947 1.327 . S
C949 C965 1.429 . S
C949 H971 0.950 . S
C950 H946 0.949 . S
C950 C958 1.574 1_554 S
C950 C966 1.368 . S
H951 C959 0.950 . S
H952 C957 0.950 . S
H953 C958 0.949 . S
H954 C960 0.950 . S
H955 C961 0.950 . S
H956 C962 0.949 . S
C957 H952 0.950 . S
C957 C959 1.327 . S
C957 C963 1.429 . S
C958 C950 1.574 1_556 S
C958 H953 0.949 . S
C958 C964 1.368 . S
C959 C943 1.349 . S
C959 H951 0.950 . S
C959 C957 1.327 . S
C960 C948 1.349 . S
C960 H954 0.950 . S
C960 C961 1.327 . S
C961 H955 0.950 . S
C961 C960 1.327 . S
C961 C965 1.429 . S
C962 C945 1.574 1_554 S
C962 H956 0.949 . S
C962 C966 1.368 . S
C963 C944 1.429 . S
C963 C957 1.429 . S
C963 C964 1.523 . S
C964 C945 1.368 . S
C964 C958 1.368 . S
C964 C963 1.523 . S
C965 C949 1.429 . S
C965 C961 1.429 . S
C965 C966 1.523 . S
C966 C950 1.368 . S
C966 C962 1.368 . S
C966 C965 1.523 . S
H967 C942 0.950 . S
H968 C944 0.950 . S
H969 C945 0.949 . S
H970 C947 0.950 . S
H971 C949 0.950 . S
C972 C973 1.349 . S
C972 C974 1.327 . S
C972 H997 0.950 . S
C973 C972 1.349 . S
C973 C989 1.349 . S
C974 C972 1.327 . S
C974 C993 1.429 . S
C974 H998 0.950 . S
C975 C992 1.574 1_556 S
C975 C994 1.368 . S
C975 H999 0.949 . S
H976 C980 0.949 . S
C977 C978 1.349 . S
C977 C979 1.327 . S
C977 H1000 0.950 . S
C978 C977 1.349 . S
C978 C990 1.349 . S
C979 C977 1.327 . S
C979 C995 1.429 . S
C979 H1001 0.950 . S
C980 H976 0.949 . S
C980 C988 1.574 1_554 S
C980 C996 1.368 . S
H981 C989 0.950 . S
H982 C987 0.950 . S
H983 C988 0.949 . S
H984 C990 0.950 . S
H985 C991 0.950 . S
H986 C992 0.949 . S
C987 H982 0.950 . S
C987 C989 1.327 . S
C987 C993 1.429 . S
C988 C980 1.574 1_556 S
C988 H983 0.949 . S
C988 C994 1.368 . S
C989 C973 1.349 . S
C989 H981 0.950 . S
C989 C987 1.327 . S
C990 C978 1.349 . S
C990 H984 0.950 . S
C990 C991 1.327 . S
C991 H985 0.950 . S
C991 C990 1.327 . S
C991 C995 1.429 . S
C992 C975 1.574 1_554 S
C992 H986 0.949 . S
C992 C996 1.368 . S
C993 C974 1.429 . S
C993 C987 1.429 . S
C993 C994 1.523 . S
C994 C975 1.368 . S
C994 C988 1.368 . S
C994 C993 1.523 . S
C995 C979 1.429 . S
C995 C991 1.429 . S
C995 C996 1.523 . S
C996 C980 1.368 . S
C996 C992 1.368 . S
C996 C995 1.523 . S
H997 C972 0.950 . S
H998 C974 0.950 . S
H999 C975 0.949 . S
H1000 C977 0.950 . S
H1001 C979 0.950 . S
C1002 C1003 1.349 . S
C1002 C1004 1.327 . S
C1002 H1027 0.950 . S
C1003 C1002 1.349 . S
C1003 C1019 1.349 . S
C1004 C1002 1.327 . S
C1004 C1023 1.429 . S
C1004 H1028 0.950 . S
C1005 C1022 1.574 . S
C1005 C1024 1.368 1_554 S
C1005 H1029 0.949 . S
H1006 C1010 0.949 . S
C1007 C1008 1.349 . S
C1007 C1009 1.327 . S
C1007 H1030 0.950 . S
C1008 C1007 1.349 . S
C1008 C1020 1.349 . S
C1009 C1007 1.327 . S
C1009 C1025 1.429 . S
C1009 H1031 0.950 . S
C1010 H1006 0.949 . S
C1010 C1018 1.574 . S
C1010 C1026 1.368 1_556 S
H1011 C1019 0.950 . S
H1012 C1017 0.950 . S
H1013 C1018 0.949 . S
H1014 C1020 0.950 . S
H1015 C1021 0.950 . S
H1016 C1022 0.949 . S
C1017 H1012 0.950 . S
C1017 C1019 1.327 . S
C1017 C1023 1.429 . S
C1018 C1010 1.574 . S
C1018 H1013 0.949 . S
C1018 C1024 1.368 . S
C1019 C1003 1.349 . S
C1019 H1011 0.950 . S
C1019 C1017 1.327 . S
C1020 C1008 1.349 . S
C1020 H1014 0.950 . S
C1020 C1021 1.327 . S
C1021 H1015 0.950 . S
C1021 C1020 1.327 . S
C1021 C1025 1.429 . S
C1022 C1005 1.574 . S
C1022 H1016 0.949 . S
C1022 C1026 1.368 . S
C1023 C1004 1.429 . S
C1023 C1017 1.429 . S
C1023 C1024 1.523 . S
C1024 C1005 1.368 1_556 S
C1024 C1018 1.368 . S
C1024 C1023 1.523 . S
C1025 C1009 1.429 . S
C1025 C1021 1.429 . S
C1025 C1026 1.523 . S
C1026 C1010 1.368 1_554 S
C1026 C1022 1.368 . S
C1026 C1025 1.523 . S
H1027 C1002 0.950 . S
H1028 C1004 0.950 . S
H1029 C1005 0.949 . S
H1030 C1007 0.950 . S
H1031 C1009 0.950 . S
C1032 C1033 1.349 . S
C1032 C1034 1.327 . S
C1032 H1057 0.950 . S
C1033 C1032 1.349 . S
C1033 C1049 1.349 . S
C1034 C1032 1.327 . S
C1034 C1053 1.429 . S
C1034 H1058 0.950 . S
C1035 C1052 1.574 . S
C1035 C1054 1.368 . S
C1035 H1059 0.949 . S
H1036 C1040 0.949 . S
C1037 C1038 1.349 . S
C1037 C1039 1.327 . S
C1037 H1060 0.950 . S
C1038 C1037 1.349 . S
C1038 C1050 1.349 . S
C1039 C1037 1.327 . S
C1039 C1055 1.429 . S
C1039 H1061 0.950 . S
C1040 H1036 0.949 . S
C1040 C1048 1.574 . S
C1040 C1056 1.368 . S
H1041 C1049 0.950 . S
H1042 C1047 0.950 . S
H1043 C1048 0.949 . S
H1044 C1050 0.950 . S
H1045 C1051 0.950 . S
H1046 C1052 0.949 . S
C1047 H1042 0.950 . S
C1047 C1049 1.327 . S
C1047 C1053 1.429 . S
C1048 C1040 1.574 . S
C1048 H1043 0.949 . S
C1048 C1054 1.368 . S
C1049 C1033 1.349 . S
C1049 H1041 0.950 . S
C1049 C1047 1.327 . S
C1050 C1038 1.349 . S
C1050 H1044 0.950 . S
C1050 C1051 1.327 . S
C1051 H1045 0.950 . S
C1051 C1050 1.327 . S
C1051 C1055 1.429 . S
C1052 C1035 1.574 . S
C1052 H1046 0.949 . S
C1052 C1056 1.368 . S
C1053 C1034 1.429 . S
C1053 C1047 1.429 . S
C1053 C1054 1.523 . S
C1054 C1035 1.368 . S
C1054 C1048 1.368 . S
C1054 C1053 1.523 . S
C1055 C1039 1.429 . S
C1055 C1051 1.429 . S
C1055 C1056 1.523 . S
C1056 C1040 1.368 . S
C1056 C1052 1.368 . S
C1056 C1055 1.523 . S
H1057 C1032 0.950 . S
H1058 C1034 0.950 . S
H1059 C1035 0.949 . S
H1060 C1037 0.950 . S
H1061 C1039 0.950 . S
C1062 C1063 1.349 . S
C1062 C1064 1.327 . S
C1062 H1087 0.950 . S
C1063 C1062 1.349 . S
C1063 C1079 1.349 . S
C1064 C1062 1.327 . S
C1064 C1083 1.429 . S
C1064 H1088 0.950 . S
C1065 C1082 1.574 . S
C1065 C1084 1.368 . S
C1065 H1089 0.949 . S
H1066 C1070 0.949 . S
C1067 C1068 1.349 . S
C1067 C1069 1.327 . S
C1067 H1090 0.950 . S
C1068 C1067 1.349 . S
C1068 C1080 1.349 . S
C1069 C1067 1.327 . S
C1069 C1085 1.429 . S
C1069 H1091 0.950 . S
C1070 H1066 0.949 . S
C1070 C1078 1.574 . S
C1070 C1086 1.368 . S
H1071 C1079 0.950 . S
H1072 C1077 0.950 . S
H1073 C1078 0.949 . S
H1074 C1080 0.950 . S
H1075 C1081 0.950 . S
H1076 C1082 0.949 . S
C1077 H1072 0.950 . S
C1077 C1079 1.327 . S
C1077 C1083 1.429 . S
C1078 C1070 1.574 . S
C1078 H1073 0.949 . S
C1078 C1084 1.368 . S
C1079 C1063 1.349 . S
C1079 H1071 0.950 . S
C1079 C1077 1.327 . S
C1080 C1068 1.349 . S
C1080 H1074 0.950 . S
C1080 C1081 1.327 . S
C1081 H1075 0.950 . S
C1081 C1080 1.327 . S
C1081 C1085 1.429 . S
C1082 C1065 1.574 . S
C1082 H1076 0.949 . S
C1082 C1086 1.368 . S
C1083 C1064 1.429 . S
C1083 C1077 1.429 . S
C1083 C1084 1.523 . S
C1084 C1065 1.368 . S
C1084 C1078 1.368 . S
C1084 C1083 1.523 . S
C1085 C1069 1.429 . S
C1085 C1081 1.429 . S
C1085 C1086 1.523 . S
C1086 C1070 1.368 . S
C1086 C1082 1.368 . S
C1086 C1085 1.523 . S
H1087 C1062 0.950 . S
H1088 C1064 0.950 . S
H1089 C1065 0.949 . S
H1090 C1067 0.950 . S
H1091 C1069 0.950 . S
C1092 C1093 1.349 . S
C1092 C1094 1.327 . S
C1092 H1117 0.950 . S
C1093 C1092 1.349 . S
C1093 C1109 1.349 . S
C1094 C1092 1.327 . S
C1094 C1113 1.429 . S
C1094 H1118 0.950 . S
C1095 C1112 1.574 . S
C1095 C1114 1.368 . S
C1095 H1119 0.949 . S
H1096 C1100 0.949 . S
C1097 C1098 1.349 . S
C1097 C1099 1.327 . S
C1097 H1120 0.950 . S
C1098 C1097 1.349 . S
C1098 C1110 1.349 . S
C1099 C1097 1.327 . S
C1099 C1115 1.429 . S
C1099 H1121 0.950 . S
C1100 H1096 0.949 . S
C1100 C1108 1.574 . S
C1100 C1116 1.368 . S
H1101 C1109 0.950 . S
H1102 C1107 0.950 . S
H1103 C1108 0.949 . S
H1104 C1110 0.950 . S
H1105 C1111 0.950 . S
H1106 C1112 0.949 . S
C1107 H1102 0.950 . S
C1107 C1109 1.327 . S
C1107 C1113 1.429 . S
C1108 C1100 1.574 . S
C1108 H1103 0.949 . S
C1108 C1114 1.368 . S
C1109 C1093 1.349 . S
C1109 H1101 0.950 . S
C1109 C1107 1.327 . S
C1110 C1098 1.349 . S
C1110 H1104 0.950 . S
C1110 C1111 1.327 . S
C1111 H1105 0.950 . S
C1111 C1110 1.327 . S
C1111 C1115 1.429 . S
C1112 C1095 1.574 . S
C1112 H1106 0.949 . S
C1112 C1116 1.368 . S
C1113 C1094 1.429 . S
C1113 C1107 1.429 . S
C1113 C1114 1.523 . S
C1114 C1095 1.368 . S
C1114 C1108 1.368 . S
C1114 C1113 1.523 . S
C1115 C1099 1.429 . S
C1115 C1111 1.429 . S
C1115 C1116 1.523 . S
C1116 C1100 1.368 . S
C1116 C1112 1.368 . S
C1116 C1115 1.523 . S
H1117 C1092 0.950 . S
H1118 C1094 0.950 . S
H1119 C1095 0.949 . S
H1120 C1097 0.950 . S
H1121 C1099 0.950 . S
C1122 C1123 1.349 . S
C1122 C1124 1.327 . S
C1122 H1147 0.950 . S
C1123 C1122 1.349 . S
C1123 C1139 1.349 . S
C1124 C1122 1.327 . S
C1124 C1143 1.429 . S
C1124 H1148 0.950 . S
C1125 C1142 1.574 . S
C1125 C1144 1.368 . S
C1125 H1149 0.949 . S
H1126 C1130 0.949 . S
C1127 C1128 1.349 . S
C1127 C1129 1.327 . S
C1127 H1150 0.950 . S
C1128 C1127 1.349 . S
C1128 C1140 1.349 . S
C1129 C1127 1.327 . S
C1129 C1145 1.429 . S
C1129 H1151 0.950 . S
C1130 H1126 0.949 . S
C1130 C1138 1.574 . S
C1130 C1146 1.368 . S
H1131 C1139 0.950 . S
H1132 C1137 0.950 . S
H1133 C1138 0.949 . S
H1134 C1140 0.950 . S
H1135 C1141 0.950 . S
H1136 C1142 0.949 . S
C1137 H1132 0.950 . S
C1137 C1139 1.327 . S
C1137 C1143 1.429 . S
C1138 C1130 1.574 . S
C1138 H1133 0.949 . S
C1138 C1144 1.368 . S
C1139 C1123 1.349 . S
C1139 H1131 0.950 . S
C1139 C1137 1.327 . S
C1140 C1128 1.349 . S
C1140 H1134 0.950 . S
C1140 C1141 1.327 . S
C1141 H1135 0.950 . S
C1141 C1140 1.327 . S
C1141 C1145 1.429 . S
C1142 C1125 1.574 . S
C1142 H1136 0.949 . S
C1142 C1146 1.368 . S
C1143 C1124 1.429 . S
C1143 C1137 1.429 . S
C1143 C1144 1.523 . S
C1144 C1125 1.368 . S
C1144 C1138 1.368 . S
C1144 C1143 1.523 . S
C1145 C1129 1.429 . S
C1145 C1141 1.429 . S
C1145 C1146 1.523 . S
C1146 C1130 1.368 . S
C1146 C1142 1.368 . S
C1146 C1145 1.523 . S
H1147 C1122 0.950 . S
H1148 C1124 0.950 . S
H1149 C1125 0.949 . S
H1150 C1127 0.950 . S
H1151 C1129 0.950 . S
C1152 C1153 1.349 . S
C1152 C1154 1.327 . S
C1152 H1177 0.950 . S
C1153 C1152 1.349 . S
C1153 C1169 1.349 . S
C1154 C1152 1.327 . S
C1154 C1173 1.429 . S
C1154 H1178 0.950 . S
C1155 C1172 1.574 . S
C1155 C1174 1.368 . S
C1155 H1179 0.949 . S
H1156 C1160 0.949 . S
C1157 C1158 1.349 . S
C1157 C1159 1.327 . S
C1157 H1180 0.950 . S
C1158 C1157 1.349 . S
C1158 C1170 1.349 . S
C1159 C1157 1.327 . S
C1159 C1175 1.429 . S
C1159 H1181 0.950 . S
C1160 H1156 0.949 . S
C1160 C1168 1.574 . S
C1160 C1176 1.368 . S
H1161 C1169 0.950 . S
H1162 C1167 0.950 . S
H1163 C1168 0.949 . S
H1164 C1170 0.950 . S
H1165 C1171 0.950 . S
H1166 C1172 0.949 . S
C1167 H1162 0.950 . S
C1167 C1169 1.327 . S
C1167 C1173 1.429 . S
C1168 C1160 1.574 . S
C1168 H1163 0.949 . S
C1168 C1174 1.368 . S
C1169 C1153 1.349 . S
C1169 H1161 0.950 . S
C1169 C1167 1.327 . S
C1170 C1158 1.349 . S
C1170 H1164 0.950 . S
C1170 C1171 1.327 . S
C1171 H1165 0.950 . S
C1171 C1170 1.327 . S
C1171 C1175 1.429 . S
C1172 C1155 1.574 . S
C1172 H1166 0.949 . S
C1172 C1176 1.368 . S
C1173 C1154 1.429 . S
C1173 C1167 1.429 . S
C1173 C1174 1.523 . S
C1174 C1155 1.368 . S
C1174 C1168 1.368 . S
C1174 C1173 1.523 . S
C1175 C1159 1.429 . S
C1175 C1171 1.429 . S
C1175 C1176 1.523 . S
C1176 C1160 1.368 . S
C1176 C1172 1.368 . S
C1176 C1175 1.523 . S
H1177 C1152 0.950 . S
H1178 C1154 0.950 . S
H1179 C1155 0.949 . S
H1180 C1157 0.950 . S
H1181 C1159 0.950 . S
C1182 C1183 1.349 . S
C1182 C1184 1.327 . S
C1182 H1207 0.950 . S
C1183 C1182 1.349 . S
C1183 C1199 1.349 . S
C1184 C1182 1.327 . S
C1184 C1203 1.429 . S
C1184 H1208 0.950 . S
C1185 C1202 1.574 . S
C1185 C1204 1.368 . S
C1185 H1209 0.949 . S
H1186 C1190 0.949 . S
C1187 C1188 1.349 . S
C1187 C1189 1.327 . S
C1187 H1210 0.950 . S
C1188 C1187 1.349 . S
C1188 C1200 1.349 . S
C1189 C1187 1.327 . S
C1189 C1205 1.429 . S
C1189 H1211 0.950 . S
C1190 H1186 0.949 . S
C1190 C1198 1.574 . S
C1190 C1206 1.368 . S
H1191 C1199 0.950 . S
H1192 C1197 0.950 . S
H1193 C1198 0.949 . S
H1194 C1200 0.950 . S
H1195 C1201 0.950 . S
H1196 C1202 0.949 . S
C1197 H1192 0.950 . S
C1197 C1199 1.327 . S
C1197 C1203 1.429 . S
C1198 C1190 1.574 . S
C1198 H1193 0.949 . S
C1198 C1204 1.368 . S
C1199 C1183 1.349 . S
C1199 H1191 0.950 . S
C1199 C1197 1.327 . S
C1200 C1188 1.349 . S
C1200 H1194 0.950 . S
C1200 C1201 1.327 . S
C1201 H1195 0.950 . S
C1201 C1200 1.327 . S
C1201 C1205 1.429 . S
C1202 C1185 1.574 . S
C1202 H1196 0.949 . S
C1202 C1206 1.368 . S
C1203 C1184 1.429 . S
C1203 C1197 1.429 . S
C1203 C1204 1.523 . S
C1204 C1185 1.368 . S
C1204 C1198 1.368 . S
C1204 C1203 1.523 . S
C1205 C1189 1.429 . S
C1205 C1201 1.429 . S
C1205 C1206 1.523 . S
C1206 C1190 1.368 . S
C1206 C1202 1.368 . S
C1206 C1205 1.523 . S
H1207 C1182 0.950 . S
H1208 C1184 0.950 . S
H1209 C1185 0.949 . S
H1210 C1187 0.950 . S
H1211 C1189 0.950 . S
C1212 C1213 1.349 . S
C1212 C1214 1.327 . S
C1212 H1237 0.950 . S
C1213 C1212 1.349 . S
C1213 C1229 1.349 . S
C1214 C1212 1.327 . S
C1214 C1233 1.429 . S
C1214 H1238 0.950 . S
C1215 C1232 1.574 . S
C1215 C1234 1.368 . S
C1215 H1239 0.949 . S
H1216 C1220 0.949 . S
C1217 C1218 1.349 . S
C1217 C1219 1.327 . S
C1217 H1240 0.950 . S
C1218 C1217 1.349 . S
C1218 C1230 1.349 . S
C1219 C1217 1.327 . S
C1219 C1235 1.429 . S
C1219 H1241 0.950 . S
C1220 H1216 0.949 . S
C1220 C1228 1.574 . S
C1220 C1236 1.368 . S
H1221 C1229 0.950 . S
H1222 C1227 0.950 . S
H1223 C1228 0.949 . S
H1224 C1230 0.950 . S
H1225 C1231 0.950 . S
H1226 C1232 0.949 . S
C1227 H1222 0.950 . S
C1227 C1229 1.327 . S
C1227 C1233 1.429 . S
C1228 C1220 1.574 . S
C1228 H1223 0.949 . S
C1228 C1234 1.368 . S
C1229 C1213 1.349 . S
C1229 H1221 0.950 . S
C1229 C1227 1.327 . S
C1230 C1218 1.349 . S
C1230 H1224 0.950 . S
C1230 C1231 1.327 . S
C1231 H1225 0.950 . S
C1231 C1230 1.327 . S
C1231 C1235 1.429 . S
C1232 C1215 1.574 . S
C1232 H1226 0.949 . S
C1232 C1236 1.368 . S
C1233 C1214 1.429 . S
C1233 C1227 1.429 . S
C1233 C1234 1.523 . S
C1234 C1215 1.368 . S
C1234 C1228 1.368 . S
C1234 C1233 1.523 . S
C1235 C1219 1.429 . S
C1235 C1231 1.429 . S
C1235 C1236 1.523 . S
C1236 C1220 1.368 . S
C1236 C1232 1.368 . S
C1236 C1235 1.523 . S
H1237 C1212 0.950 . S
H1238 C1214 0.950 . S
H1239 C1215 0.949 . S
H1240 C1217 0.950 . S
H1241 C1219 0.950 . S
C1242 C1243 1.349 . S
C1242 C1244 1.327 . S
C1242 H1267 0.950 . S
C1243 C1242 1.349 . S
C1243 C1259 1.349 . S
C1244 C1242 1.327 . S
C1244 C1263 1.429 . S
C1244 H1268 0.950 . S
C1245 C1262 1.574 . S
C1245 C1264 1.368 . S
C1245 H1269 0.949 . S
H1246 C1250 0.949 . S
C1247 C1248 1.349 . S
C1247 C1249 1.327 . S
C1247 H1270 0.950 . S
C1248 C1247 1.349 . S
C1248 C1260 1.349 . S
C1249 C1247 1.327 . S
C1249 C1265 1.429 . S
C1249 H1271 0.950 . S
C1250 H1246 0.949 . S
C1250 C1258 1.574 . S
C1250 C1266 1.368 . S
H1251 C1259 0.950 . S
H1252 C1257 0.950 . S
H1253 C1258 0.949 . S
H1254 C1260 0.950 . S
H1255 C1261 0.950 . S
H1256 C1262 0.949 . S
C1257 H1252 0.950 . S
C1257 C1259 1.327 . S
C1257 C1263 1.429 . S
C1258 C1250 1.574 . S
C1258 H1253 0.949 . S
C1258 C1264 1.368 . S
C1259 C1243 1.349 . S
C1259 H1251 0.950 . S
C1259 C1257 1.327 . S
C1260 C1248 1.349 . S
C1260 H1254 0.950 . S
C1260 C1261 1.327 . S
C1261 H1255 0.950 . S
C1261 C1260 1.327 . S
C1261 C1265 1.429 . S
C1262 C1245 1.574 . S
C1262 H1256 0.949 . S
C1262 C1266 1.368 . S
C1263 C1244 1.429 . S
C1263 C1257 1.429 . S
C1263 C1264 1.523 . S
C1264 C1245 1.368 . S
C1264 C1258 1.368 . S
C1264 C1263 1.523 . S
C1265 C1249 1.429 . S
C1265 C1261 1.429 . S
C1265 C1266 1.523 . S
C1266 C1250 1.368 . S
C1266 C1262 1.368 . S
C1266 C1265 1.523 . S
H1267 C1242 0.950 . S
H1268 C1244 0.950 . S
H1269 C1245 0.949 . S
H1270 C1247 0.950 . S
H1271 C1249 0.950 . S
C1272 C1273 1.349 . S
C1272 C1274 1.327 . S
C1272 H1297 0.950 . S
C1273 C1272 1.349 . S
C1273 C1289 1.349 . S
C1274 C1272 1.327 . S
C1274 C1293 1.429 . S
C1274 H1298 0.950 . S
C1275 C1292 1.574 . S
C1275 C1294 1.368 . S
C1275 H1299 0.949 . S
H1276 C1280 0.949 . S
C1277 C1278 1.349 . S
C1277 C1279 1.327 . S
C1277 H1300 0.950 . S
C1278 C1277 1.349 . S
C1278 C1290 1.349 . S
C1279 C1277 1.327 . S
C1279 C1295 1.429 . S
C1279 H1301 0.950 . S
C1280 H1276 0.949 . S
C1280 C1288 1.574 . S
C1280 C1296 1.368 . S
H1281 C1289 0.950 . S
H1282 C1287 0.950 . S
H1283 C1288 0.949 . S
H1284 C1290 0.950 . S
H1285 C1291 0.950 . S
H1286 C1292 0.949 . S
C1287 H1282 0.950 . S
C1287 C1289 1.327 . S
C1287 C1293 1.429 . S
C1288 C1280 1.574 . S
C1288 H1283 0.949 . S
C1288 C1294 1.368 . S
C1289 C1273 1.349 . S
C1289 H1281 0.950 . S
C1289 C1287 1.327 . S
C1290 C1278 1.349 . S
C1290 H1284 0.950 . S
C1290 C1291 1.327 . S
C1291 H1285 0.950 . S
C1291 C1290 1.327 . S
C1291 C1295 1.429 . S
C1292 C1275 1.574 . S
C1292 H1286 0.949 . S
C1292 C1296 1.368 . S
C1293 C1274 1.429 . S
C1293 C1287 1.429 . S
C1293 C1294 1.523 . S
C1294 C1275 1.368 . S
C1294 C1288 1.368 . S
C1294 C1293 1.523 . S
C1295 C1279 1.429 . S
C1295 C1291 1.429 . S
C1295 C1296 1.523 . S
C1296 C1280 1.368 . S
C1296 C1292 1.368 . S
C1296 C1295 1.523 . S
H1297 C1272 0.950 . S
H1298 C1274 0.950 . S
H1299 C1275 0.949 . S
H1300 C1277 0.950 . S
H1301 C1279 0.950 . S
C1302 C1303 1.349 . S
C1302 C1304 1.327 . S
C1302 H1327 0.950 . S
C1303 C1302 1.349 . S
C1303 C1319 1.349 . S
C1304 C1302 1.327 . S
C1304 C1323 1.429 . S
C1304 H1328 0.950 . S
C1305 C1322 1.574 . S
C1305 C1324 1.368 . S
C1305 H1329 0.949 . S
H1306 C1310 0.949 . S
C1307 C1308 1.349 . S
C1307 C1309 1.327 . S
C1307 H1330 0.950 . S
C1308 C1307 1.349 . S
C1308 C1320 1.349 . S
C1309 C1307 1.327 . S
C1309 C1325 1.429 . S
C1309 H1331 0.950 . S
C1310 H1306 0.949 . S
C1310 C1318 1.574 . S
C1310 C1326 1.368 . S
H1311 C1319 0.950 . S
H1312 C1317 0.950 . S
H1313 C1318 0.949 . S
H1314 C1320 0.950 . S
H1315 C1321 0.950 . S
H1316 C1322 0.949 . S
C1317 H1312 0.950 . S
C1317 C1319 1.327 . S
C1317 C1323 1.429 . S
C1318 C1310 1.574 . S
C1318 H1313 0.949 . S
C1318 C1324 1.368 . S
C1319 C1303 1.349 . S
C1319 H1311 0.950 . S
C1319 C1317 1.327 . S
C1320 C1308 1.349 . S
C1320 H1314 0.950 . S
C1320 C1321 1.327 . S
C1321 H1315 0.950 . S
C1321 C1320 1.327 . S
C1321 C1325 1.429 . S
C1322 C1305 1.574 . S
C1322 H1316 0.949 . S
C1322 C1326 1.368 . S
C1323 C1304 1.429 . S
C1323 C1317 1.429 . S
C1323 C1324 1.523 . S
C1324 C1305 1.368 . S
C1324 C1318 1.368 . S
C1324 C1323 1.523 . S
C1325 C1309 1.429 . S
C1325 C1321 1.429 . S
C1325 C1326 1.523 . S
C1326 C1310 1.368 . S
C1326 C1322 1.368 . S
C1326 C1325 1.523 . S
H1327 C1302 0.950 . S
H1328 C1304 0.950 . S
H1329 C1305 0.949 . S
H1330 C1307 0.950 . S
H1331 C1309 0.950 . S
C1332 C1333 1.349 . S
C1332 C1334 1.327 . S
C1332 H1357 0.950 . S
C1333 C1332 1.349 . S
C1333 C1349 1.349 . S
C1334 C1332 1.327 . S
C1334 C1353 1.429 . S
C1334 H1358 0.950 . S
C1335 C1352 1.574 . S
C1335 C1354 1.368 . S
C1335 H1359 0.949 . S
H1336 C1340 0.949 . S
C1337 C1338 1.349 . S
C1337 C1339 1.327 . S
C1337 H1360 0.950 . S
C1338 C1337 1.349 . S
C1338 C1350 1.349 . S
C1339 C1337 1.327 . S
C1339 C1355 1.429 . S
C1339 H1361 0.950 . S
C1340 H1336 0.949 . S
C1340 C1348 1.574 . S
C1340 C1356 1.368 . S
H1341 C1349 0.950 . S
H1342 C1347 0.950 . S
H1343 C1348 0.949 . S
H1344 C1350 0.950 . S
H1345 C1351 0.950 . S
H1346 C1352 0.949 . S
C1347 H1342 0.950 . S
C1347 C1349 1.327 . S
C1347 C1353 1.429 . S
C1348 C1340 1.574 . S
C1348 H1343 0.949 . S
C1348 C1354 1.368 . S
C1349 C1333 1.349 . S
C1349 H1341 0.950 . S
C1349 C1347 1.327 . S
C1350 C1338 1.349 . S
C1350 H1344 0.950 . S
C1350 C1351 1.327 . S
C1351 H1345 0.950 . S
C1351 C1350 1.327 . S
C1351 C1355 1.429 . S
C1352 C1335 1.574 . S
C1352 H1346 0.949 . S
C1352 C1356 1.368 . S
C1353 C1334 1.429 . S
C1353 C1347 1.429 . S
C1353 C1354 1.523 . S
C1354 C1335 1.368 . S
C1354 C1348 1.368 . S
C1354 C1353 1.523 . S
C1355 C1339 1.429 . S
C1355 C1351 1.429 . S
C1355 C1356 1.523 . S
C1356 C1340 1.368 . S
C1356 C1352 1.368 . S
C1356 C1355 1.523 . S
H1357 C1332 0.950 . S
H1358 C1334 0.950 . S
H1359 C1335 0.949 . S
H1360 C1337 0.950 . S
H1361 C1339 0.950 . S
C1362 C1363 1.349 . S
C1362 C1364 1.327 . S
C1362 H1387 0.950 . S
C1363 C1362 1.349 . S
C1363 C1379 1.349 . S
C1364 C1362 1.327 . S
C1364 C1383 1.429 . S
C1364 H1388 0.950 . S
C1365 C1382 1.574 . S
C1365 C1384 1.368 . S
C1365 H1389 0.949 . S
H1366 C1370 0.949 . S
C1367 C1368 1.349 . S
C1367 C1369 1.327 . S
C1367 H1390 0.950 . S
C1368 C1367 1.349 . S
C1368 C1380 1.349 . S
C1369 C1367 1.327 . S
C1369 C1385 1.429 . S
C1369 H1391 0.950 . S
C1370 H1366 0.949 . S
C1370 C1378 1.574 . S
C1370 C1386 1.368 . S
H1371 C1379 0.950 . S
H1372 C1377 0.950 . S
H1373 C1378 0.949 . S
H1374 C1380 0.950 . S
H1375 C1381 0.950 . S
H1376 C1382 0.949 . S
C1377 H1372 0.950 . S
C1377 C1379 1.327 . S
C1377 C1383 1.429 . S
C1378 C1370 1.574 . S
C1378 H1373 0.949 . S
C1378 C1384 1.368 . S
C1379 C1363 1.349 . S
C1379 H1371 0.950 . S
C1379 C1377 1.327 . S
C1380 C1368 1.349 . S
C1380 H1374 0.950 . S
C1380 C1381 1.327 . S
C1381 H1375 0.950 . S
C1381 C1380 1.327 . S
C1381 C1385 1.429 . S
C1382 C1365 1.574 . S
C1382 H1376 0.949 . S
C1382 C1386 1.368 . S
C1383 C1364 1.429 . S
C1383 C1377 1.429 . S
C1383 C1384 1.523 . S
C1384 C1365 1.368 . S
C1384 C1378 1.368 . S
C1384 C1383 1.523 . S
C1385 C1369 1.429 . S
C1385 C1381 1.429 . S
C1385 C1386 1.523 . S
C1386 C1370 1.368 . S
C1386 C1382 1.368 . S
C1386 C1385 1.523 . S
H1387 C1362 0.950 . S
H1388 C1364 0.950 . S
H1389 C1365 0.949 . S
H1390 C1367 0.950 . S
H1391 C1369 0.950 . S
C1392 C1393 1.349 . S
C1392 C1394 1.327 . S
C1392 H1417 0.950 . S
C1393 C1392 1.349 . S
C1393 C1409 1.349 . S
C1394 C1392 1.327 . S
C1394 C1413 1.429 . S
C1394 H1418 0.950 . S
C1395 C1412 1.574 . S
C1395 C1414 1.368 . S
C1395 H1419 0.949 . S
H1396 C1400 0.949 . S
C1397 C1398 1.349 . S
C1397 C1399 1.327 . S
C1397 H1420 0.950 . S
C1398 C1397 1.349 . S
C1398 C1410 1.349 . S
C1399 C1397 1.327 . S
C1399 C1415 1.429 . S
C1399 H1421 0.950 . S
C1400 H1396 0.949 . S
C1400 C1408 1.574 . S
C1400 C1416 1.368 . S
H1401 C1409 0.950 . S
H1402 C1407 0.950 . S
H1403 C1408 0.949 . S
H1404 C1410 0.950 . S
H1405 C1411 0.950 . S
H1406 C1412 0.949 . S
C1407 H1402 0.950 . S
C1407 C1409 1.327 . S
C1407 C1413 1.429 . S
C1408 C1400 1.574 . S
C1408 H1403 0.949 . S
C1408 C1414 1.368 . S
C1409 C1393 1.349 . S
C1409 H1401 0.950 . S
C1409 C1407 1.327 . S
C1410 C1398 1.349 . S
C1410 H1404 0.950 . S
C1410 C1411 1.327 . S
C1411 H1405 0.950 . S
C1411 C1410 1.327 . S
C1411 C1415 1.429 . S
C1412 C1395 1.574 . S
C1412 H1406 0.949 . S
C1412 C1416 1.368 . S
C1413 C1394 1.429 . S
C1413 C1407 1.429 . S
C1413 C1414 1.523 . S
C1414 C1395 1.368 . S
C1414 C1408 1.368 . S
C1414 C1413 1.523 . S
C1415 C1399 1.429 . S
C1415 C1411 1.429 . S
C1415 C1416 1.523 . S
C1416 C1400 1.368 . S
C1416 C1412 1.368 . S
C1416 C1415 1.523 . S
H1417 C1392 0.950 . S
H1418 C1394 0.950 . S
H1419 C1395 0.949 . S
H1420 C1397 0.950 . S
H1421 C1399 0.950 . S
C1422 C1423 1.349 . S
C1422 C1424 1.327 . S
C1422 H1447 0.950 . S
C1423 C1422 1.349 . S
C1423 C1439 1.349 . S
C1424 C1422 1.327 . S
C1424 C1443 1.429 . S
C1424 H1448 0.950 . S
C1425 C1442 1.574 . S
C1425 C1444 1.368 . S
C1425 H1449 0.949 . S
H1426 C1430 0.949 . S
C1427 C1428 1.349 . S
C1427 C1429 1.327 . S
C1427 H1450 0.950 . S
C1428 C1427 1.349 . S
C1428 C1440 1.349 . S
C1429 C1427 1.327 . S
C1429 C1445 1.429 . S
C1429 H1451 0.950 . S
C1430 H1426 0.949 . S
C1430 C1438 1.574 . S
C1430 C1446 1.368 . S
H1431 C1439 0.950 . S
H1432 C1437 0.950 . S
H1433 C1438 0.949 . S
H1434 C1440 0.950 . S
H1435 C1441 0.950 . S
H1436 C1442 0.949 . S
C1437 H1432 0.950 . S
C1437 C1439 1.327 . S
C1437 C1443 1.429 . S
C1438 C1430 1.574 . S
C1438 H1433 0.949 . S
C1438 C1444 1.368 . S
C1439 C1423 1.349 . S
C1439 H1431 0.950 . S
C1439 C1437 1.327 . S
C1440 C1428 1.349 . S
C1440 H1434 0.950 . S
C1440 C1441 1.327 . S
C1441 H1435 0.950 . S
C1441 C1440 1.327 . S
C1441 C1445 1.429 . S
C1442 C1425 1.574 . S
C1442 H1436 0.949 . S
C1442 C1446 1.368 . S
C1443 C1424 1.429 . S
C1443 C1437 1.429 . S
C1443 C1444 1.523 . S
C1444 C1425 1.368 . S
C1444 C1438 1.368 . S
C1444 C1443 1.523 . S
C1445 C1429 1.429 . S
C1445 C1441 1.429 . S
C1445 C1446 1.523 . S
C1446 C1430 1.368 . S
C1446 C1442 1.368 . S
C1446 C1445 1.523 . S
H1447 C1422 0.950 . S
H1448 C1424 0.950 . S
H1449 C1425 0.949 . S
H1450 C1427 0.950 . S
H1451 C1429 0.950 . S
C1452 C1453 1.349 . S
C1452 C1454 1.327 . S
C1452 H1477 0.950 . S
C1453 C1452 1.349 . S
C1453 C1469 1.349 . S
C1454 C1452 1.327 . S
C1454 C1473 1.429 . S
C1454 H1478 0.950 . S
C1455 C1472 1.574 . S
C1455 C1474 1.368 . S
C1455 H1479 0.949 . S
H1456 C1460 0.949 . S
C1457 C1458 1.349 . S
C1457 C1459 1.327 . S
C1457 H1480 0.950 . S
C1458 C1457 1.349 . S
C1458 C1470 1.349 . S
C1459 C1457 1.327 . S
C1459 C1475 1.429 . S
C1459 H1481 0.950 . S
C1460 H1456 0.949 . S
C1460 C1468 1.574 . S
C1460 C1476 1.368 . S
H1461 C1469 0.950 . S
H1462 C1467 0.950 . S
H1463 C1468 0.949 . S
H1464 C1470 0.950 . S
H1465 C1471 0.950 . S
H1466 C1472 0.949 . S
C1467 H1462 0.950 . S
C1467 C1469 1.327 . S
C1467 C1473 1.429 . S
C1468 C1460 1.574 . S
C1468 H1463 0.949 . S
C1468 C1474 1.368 . S
C1469 C1453 1.349 . S
C1469 H1461 0.950 . S
C1469 C1467 1.327 . S
C1470 C1458 1.349 . S
C1470 H1464 0.950 . S
C1470 C1471 1.327 . S
C1471 H1465 0.950 . S
C1471 C1470 1.327 . S
C1471 C1475 1.429 . S
C1472 C1455 1.574 . S
C1472 H1466 0.949 . S
C1472 C1476 1.368 . S
C1473 C1454 1.429 . S
C1473 C1467 1.429 . S
C1473 C1474 1.523 . S
C1474 C1455 1.368 . S
C1474 C1468 1.368 . S
C1474 C1473 1.523 . S
C1475 C1459 1.429 . S
C1475 C1471 1.429 . S
C1475 C1476 1.523 . S
C1476 C1460 1.368 . S
C1476 C1472 1.368 . S
C1476 C1475 1.523 . S
H1477 C1452 0.950 . S
H1478 C1454 0.950 . S
H1479 C1455 0.949 . S
H1480 C1457 0.950 . S
H1481 C1459 0.950 . S
C1482 C1483 1.349 . S
C1482 C1484 1.327 . S
C1482 H1507 0.950 . S
C1483 C1482 1.349 . S
C1483 C1499 1.349 . S
C1484 C1482 1.327 . S
C1484 C1503 1.429 . S
C1484 H1508 0.950 . S
C1485 C1502 1.574 . S
C1485 C1504 1.368 . S
C1485 H1509 0.949 . S
H1486 C1490 0.949 . S
C1487 C1488 1.349 . S
C1487 C1489 1.327 . S
C1487 H1510 0.950 . S
C1488 C1487 1.349 . S
C1488 C1500 1.349 . S
C1489 C1487 1.327 . S
C1489 C1505 1.429 . S
C1489 H1511 0.950 . S
C1490 H1486 0.949 . S
C1490 C1498 1.574 . S
C1490 C1506 1.368 . S
H1491 C1499 0.950 . S
H1492 C1497 0.950 . S
H1493 C1498 0.949 . S
H1494 C1500 0.950 . S
H1495 C1501 0.950 . S
H1496 C1502 0.949 . S
C1497 H1492 0.950 . S
C1497 C1499 1.327 . S
C1497 C1503 1.429 . S
C1498 C1490 1.574 . S
C1498 H1493 0.949 . S
C1498 C1504 1.368 . S
C1499 C1483 1.349 . S
C1499 H1491 0.950 . S
C1499 C1497 1.327 . S
C1500 C1488 1.349 . S
C1500 H1494 0.950 . S
C1500 C1501 1.327 . S
C1501 H1495 0.950 . S
C1501 C1500 1.327 . S
C1501 C1505 1.429 . S
C1502 C1485 1.574 . S
C1502 H1496 0.949 . S
C1502 C1506 1.368 . S
C1503 C1484 1.429 . S
C1503 C1497 1.429 . S
C1503 C1504 1.523 . S
C1504 C1485 1.368 . S
C1504 C1498 1.368 . S
C1504 C1503 1.523 . S
C1505 C1489 1.429 . S
C1505 C1501 1.429 . S
C1505 C1506 1.523 . S
C1506 C1490 1.368 . S
C1506 C1502 1.368 . S
C1506 C1505 1.523 . S
H1507 C1482 0.950 . S
H1508 C1484 0.950 . S
H1509 C1485 0.949 . S
H1510 C1487 0.950 . S
H1511 C1489 0.950 . S
C1512 C1513 1.349 . S
C1512 C1514 1.327 . S
C1512 H1537 0.950 . S
C1513 C1512 1.349 . S
C1513 C1529 1.349 . S
C1514 C1512 1.327 . S
C1514 C1533 1.429 . S
C1514 H1538 0.950 . S
C1515 C1532 1.574 . S
C1515 C1534 1.368 . S
C1515 H1539 0.949 . S
H1516 C1520 0.949 . S
C1517 C1518 1.349 . S
C1517 C1519 1.327 . S
C1517 H1540 0.950 . S
C1518 C1517 1.349 . S
C1518 C1530 1.349 . S
C1519 C1517 1.327 . S
C1519 C1535 1.429 . S
C1519 H1541 0.950 . S
C1520 H1516 0.949 . S
C1520 C1528 1.574 . S
C1520 C1536 1.368 . S
H1521 C1529 0.950 . S
H1522 C1527 0.950 . S
H1523 C1528 0.949 . S
H1524 C1530 0.950 . S
H1525 C1531 0.950 . S
H1526 C1532 0.949 . S
C1527 H1522 0.950 . S
C1527 C1529 1.327 . S
C1527 C1533 1.429 . S
C1528 C1520 1.574 . S
C1528 H1523 0.949 . S
C1528 C1534 1.368 . S
C1529 C1513 1.349 . S
C1529 H1521 0.950 . S
C1529 C1527 1.327 . S
C1530 C1518 1.349 . S
C1530 H1524 0.950 . S
C1530 C1531 1.327 . S
C1531 H1525 0.950 . S
C1531 C1530 1.327 . S
C1531 C1535 1.429 . S
C1532 C1515 1.574 . S
C1532 H1526 0.949 . S
C1532 C1536 1.368 . S
C1533 C1514 1.429 . S
C1533 C1527 1.429 . S
C1533 C1534 1.523 . S
C1534 C1515 1.368 . S
C1534 C1528 1.368 . S
C1534 C1533 1.523 . S
C1535 C1519 1.429 . S
C1535 C1531 1.429 . S
C1535 C1536 1.523 . S
C1536 C1520 1.368 . S
C1536 C1532 1.368 . S
C1536 C1535 1.523 . S
H1537 C1512 0.950 . S
H1538 C1514 0.950 . S
H1539 C1515 0.949 . S
H1540 C1517 0.950 . S
H1541 C1519 0.950 . S
C1542 C1543 1.349 . S
C1542 C1544 1.327 . S
C1542 H1567 0.950 . S
C1543 C1542 1.349 . S
C1543 C1559 1.349 . S
C1544 C1542 1.327 . S
C1544 C1563 1.429 . S
C1544 H1568 0.950 . S
C1545 C1562 1.574 . S
C1545 C1564 1.368 . S
C1545 H1569 0.949 . S
H1546 C1550 0.949 . S
C1547 C1548 1.349 . S
C1547 C1549 1.327 . S
C1547 H1570 0.950 . S
C1548 C1547 1.349 . S
C1548 C1560 1.349 . S
C1549 C1547 1.327 . S
C1549 C1565 1.429 . S
C1549 H1571 0.950 . S
C1550 H1546 0.949 . S
C1550 C1558 1.574 . S
C1550 C1566 1.368 . S
H1551 C1559 0.950 . S
H1552 C1557 0.950 . S
H1553 C1558 0.949 . S
H1554 C1560 0.950 . S
H1555 C1561 0.950 . S
H1556 C1562 0.949 . S
C1557 H1552 0.950 . S
C1557 C1559 1.327 . S
C1557 C1563 1.429 . S
C1558 C1550 1.574 . S
C1558 H1553 0.949 . S
C1558 C1564 1.368 . S
C1559 C1543 1.349 . S
C1559 H1551 0.950 . S
C1559 C1557 1.327 . S
C1560 C1548 1.349 . S
C1560 H1554 0.950 . S
C1560 C1561 1.327 . S
C1561 H1555 0.950 . S
C1561 C1560 1.327 . S
C1561 C1565 1.429 . S
C1562 C1545 1.574 . S
C1562 H1556 0.949 . S
C1562 C1566 1.368 . S
C1563 C1544 1.429 . S
C1563 C1557 1.429 . S
C1563 C1564 1.523 . S
C1564 C1545 1.368 . S
C1564 C1558 1.368 . S
C1564 C1563 1.523 . S
C1565 C1549 1.429 . S
C1565 C1561 1.429 . S
C1565 C1566 1.523 . S
C1566 C1550 1.368 . S
C1566 C1562 1.368 . S
C1566 C1565 1.523 . S
H1567 C1542 0.950 . S
H1568 C1544 0.950 . S
H1569 C1545 0.949 . S
H1570 C1547 0.950 . S
H1571 C1549 0.950 . S
C1572 C1573 1.349 . S
C1572 C1574 1.327 . S
C1572 H1597 0.950 . S
C1573 C1572 1.349 . S
C1573 C1589 1.349 . S
C1574 C1572 1.327 . S
C1574 C1593 1.429 . S
C1574 H1598 0.950 . S
C1575 C1592 1.574 . S
C1575 C1594 1.368 . S
C1575 H1599 0.949 . S
H1576 C1580 0.949 . S
C1577 C1578 1.349 . S
C1577 C1579 1.327 . S
C1577 H1600 0.950 . S
C1578 C1577 1.349 . S
C1578 C1590 1.349 . S
C1579 C1577 1.327 . S
C1579 C1595 1.429 . S
C1579 H1601 0.950 . S
C1580 H1576 0.949 . S
C1580 C1588 1.574 . S
C1580 C1596 1.368 . S
H1581 C1589 0.950 . S
H1582 C1587 0.950 . S
H1583 C1588 0.949 . S
H1584 C1590 0.950 . S
H1585 C1591 0.950 . S
H1586 C1592 0.949 . S
C1587 H1582 0.950 . S
C1587 C1589 1.327 . S
C1587 C1593 1.429 . S
C1588 C1580 1.574 . S
C1588 H1583 0.949 . S
C1588 C1594 1.368 . S
C1589 C1573 1.349 . S
C1589 H1581 0.950 . S
C1589 C1587 1.327 . S
C1590 C1578 1.349 . S
C1590 H1584 0.950 . S
C1590 C1591 1.327 . S
C1591 H1585 0.950 . S
C1591 C1590 1.327 . S
C1591 C1595 1.429 . S
C1592 C1575 1.574 . S
C1592 H1586 0.949 . S
C1592 C1596 1.368 . S
C1593 C1574 1.429 . S
C1593 C1587 1.429 . S
C1593 C1594 1.523 . S
C1594 C1575 1.368 . S
C1594 C1588 1.368 . S
C1594 C1593 1.523 . S
C1595 C1579 1.429 . S
C1595 C1591 1.429 . S
C1595 C1596 1.523 . S
C1596 C1580 1.368 . S
C1596 C1592 1.368 . S
C1596 C1595 1.523 . S
H1597 C1572 0.950 . S
H1598 C1574 0.950 . S
H1599 C1575 0.949 . S
H1600 C1577 0.950 . S
H1601 C1579 0.950 . S
C1602 C1603 1.349 . S
C1602 C1604 1.327 . S
C1602 H1627 0.950 . S
C1603 C1602 1.349 . S
C1603 C1619 1.349 . S
C1604 C1602 1.327 . S
C1604 C1623 1.429 . S
C1604 H1628 0.950 . S
C1605 C1622 1.574 . S
C1605 C1624 1.368 . S
C1605 H1629 0.949 . S
H1606 C1610 0.949 . S
C1607 C1608 1.349 . S
C1607 C1609 1.327 . S
C1607 H1630 0.950 . S
C1608 C1607 1.349 . S
C1608 C1620 1.349 . S
C1609 C1607 1.327 . S
C1609 C1625 1.429 . S
C1609 H1631 0.950 . S
C1610 H1606 0.949 . S
C1610 C1618 1.574 . S
C1610 C1626 1.368 . S
H1611 C1619 0.950 . S
H1612 C1617 0.950 . S
H1613 C1618 0.949 . S
H1614 C1620 0.950 . S
H1615 C1621 0.950 . S
H1616 C1622 0.949 . S
C1617 H1612 0.950 . S
C1617 C1619 1.327 . S
C1617 C1623 1.429 . S
C1618 C1610 1.574 . S
C1618 H1613 0.949 . S
C1618 C1624 1.368 . S
C1619 C1603 1.349 . S
C1619 H1611 0.950 . S
C1619 C1617 1.327 . S
C1620 C1608 1.349 . S
C1620 H1614 0.950 . S
C1620 C1621 1.327 . S
C1621 H1615 0.950 . S
C1621 C1620 1.327 . S
C1621 C1625 1.429 . S
C1622 C1605 1.574 . S
C1622 H1616 0.949 . S
C1622 C1626 1.368 . S
C1623 C1604 1.429 . S
C1623 C1617 1.429 . S
C1623 C1624 1.523 . S
C1624 C1605 1.368 . S
C1624 C1618 1.368 . S
C1624 C1623 1.523 . S
C1625 C1609 1.429 . S
C1625 C1621 1.429 . S
C1625 C1626 1.523 . S
C1626 C1610 1.368 . S
C1626 C1622 1.368 . S
C1626 C1625 1.523 . S
H1627 C1602 0.950 . S
H1628 C1604 0.950 . S
H1629 C1605 0.949 . S
H1630 C1607 0.950 . S
H1631 C1609 0.950 . S
C1632 C1633 1.349 . S
C1632 C1634 1.327 . S
C1632 H1657 0.950 . S
C1633 C1632 1.349 . S
C1633 C1649 1.349 . S
C1634 C1632 1.327 . S
C1634 C1653 1.429 . S
C1634 H1658 0.950 . S
C1635 C1652 1.574 . S
C1635 C1654 1.368 . S
C1635 H1659 0.949 . S
H1636 C1640 0.949 . S
C1637 C1638 1.349 . S
C1637 C1639 1.327 . S
C1637 H1660 0.950 . S
C1638 C1637 1.349 . S
C1638 C1650 1.349 . S
C1639 C1637 1.327 . S
C1639 C1655 1.429 . S
C1639 H1661 0.950 . S
C1640 H1636 0.949 . S
C1640 C1648 1.574 . S
C1640 C1656 1.368 . S
H1641 C1649 0.950 . S
H1642 C1647 0.950 . S
H1643 C1648 0.949 . S
H1644 C1650 0.950 . S
H1645 C1651 0.950 . S
H1646 C1652 0.949 . S
C1647 H1642 0.950 . S
C1647 C1649 1.327 . S
C1647 C1653 1.429 . S
C1648 C1640 1.574 . S
C1648 H1643 0.949 . S
C1648 C1654 1.368 . S
C1649 C1633 1.349 . S
C1649 H1641 0.950 . S
C1649 C1647 1.327 . S
C1650 C1638 1.349 . S
C1650 H1644 0.950 . S
C1650 C1651 1.327 . S
C1651 H1645 0.950 . S
C1651 C1650 1.327 . S
C1651 C1655 1.429 . S
C1652 C1635 1.574 . S
C1652 H1646 0.949 . S
C1652 C1656 1.368 . S
C1653 C1634 1.429 . S
C1653 C1647 1.429 . S
C1653 C1654 1.523 . S
C1654 C1635 1.368 . S
C1654 C1648 1.368 . S
C1654 C1653 1.523 . S
C1655 C1639 1.429 . S
C1655 C1651 1.429 . S
C1655 C1656 1.523 . S
C1656 C1640 1.368 . S
C1656 C1652 1.368 . S
C1656 C1655 1.523 . S
H1657 C1632 0.950 . S
H1658 C1634 0.950 . S
H1659 C1635 0.949 . S
H1660 C1637 0.950 . S
H1661 C1639 0.950 . S
C1662 C1663 1.349 . S
C1662 C1664 1.327 . S
C1662 H1687 0.950 . S
C1663 C1662 1.349 . S
C1663 C1679 1.349 . S
C1664 C1662 1.327 . S
C1664 C1683 1.429 . S
C1664 H1688 0.950 . S
C1665 C1682 1.574 . S
C1665 C1684 1.368 . S
C1665 H1689 0.949 . S
H1666 C1670 0.949 . S
C1667 C1668 1.349 . S
C1667 C1669 1.327 . S
C1667 H1690 0.950 . S
C1668 C1667 1.349 . S
C1668 C1680 1.349 . S
C1669 C1667 1.327 . S
C1669 C1685 1.429 . S
C1669 H1691 0.950 . S
C1670 H1666 0.949 . S
C1670 C1678 1.574 . S
C1670 C1686 1.368 . S
H1671 C1679 0.950 . S
H1672 C1677 0.950 . S
H1673 C1678 0.949 . S
H1674 C1680 0.950 . S
H1675 C1681 0.950 . S
H1676 C1682 0.949 . S
C1677 H1672 0.950 . S
C1677 C1679 1.327 . S
C1677 C1683 1.429 . S
C1678 C1670 1.574 . S
C1678 H1673 0.949 . S
C1678 C1684 1.368 . S
C1679 C1663 1.349 . S
C1679 H1671 0.950 . S
C1679 C1677 1.327 . S
C1680 C1668 1.349 . S
C1680 H1674 0.950 . S
C1680 C1681 1.327 . S
C1681 H1675 0.950 . S
C1681 C1680 1.327 . S
C1681 C1685 1.429 . S
C1682 C1665 1.574 . S
C1682 H1676 0.949 . S
C1682 C1686 1.368 . S
C1683 C1664 1.429 . S
C1683 C1677 1.429 . S
C1683 C1684 1.523 . S
C1684 C1665 1.368 . S
C1684 C1678 1.368 . S
C1684 C1683 1.523 . S
C1685 C1669 1.429 . S
C1685 C1681 1.429 . S
C1685 C1686 1.523 . S
C1686 C1670 1.368 . S
C1686 C1682 1.368 . S
C1686 C1685 1.523 . S
H1687 C1662 0.950 . S
H1688 C1664 0.950 . S
H1689 C1665 0.949 . S
H1690 C1667 0.950 . S
H1691 C1669 0.950 . S
C1692 C1693 1.349 . S
C1692 C1694 1.327 . S
C1692 H1717 0.950 . S
C1693 C1692 1.349 . S
C1693 C1709 1.349 . S
C1694 C1692 1.327 . S
C1694 C1713 1.429 . S
C1694 H1718 0.950 . S
C1695 C1712 1.574 . S
C1695 C1714 1.368 . S
C1695 H1719 0.949 . S
H1696 C1700 0.949 . S
C1697 C1698 1.349 . S
C1697 C1699 1.327 . S
C1697 H1720 0.950 . S
C1698 C1697 1.349 . S
C1698 C1710 1.349 . S
C1699 C1697 1.327 . S
C1699 C1715 1.429 . S
C1699 H1721 0.950 . S
C1700 H1696 0.949 . S
C1700 C1708 1.574 . S
C1700 C1716 1.368 . S
H1701 C1709 0.950 . S
H1702 C1707 0.950 . S
H1703 C1708 0.949 . S
H1704 C1710 0.950 . S
H1705 C1711 0.950 . S
H1706 C1712 0.949 . S
C1707 H1702 0.950 . S
C1707 C1709 1.327 . S
C1707 C1713 1.429 . S
C1708 C1700 1.574 . S
C1708 H1703 0.949 . S
C1708 C1714 1.368 . S
C1709 C1693 1.349 . S
C1709 H1701 0.950 . S
C1709 C1707 1.327 . S
C1710 C1698 1.349 . S
C1710 H1704 0.950 . S
C1710 C1711 1.327 . S
C1711 H1705 0.950 . S
C1711 C1710 1.327 . S
C1711 C1715 1.429 . S
C1712 C1695 1.574 . S
C1712 H1706 0.949 . S
C1712 C1716 1.368 . S
C1713 C1694 1.429 . S
C1713 C1707 1.429 . S
C1713 C1714 1.523 . S
C1714 C1695 1.368 . S
C1714 C1708 1.368 . S
C1714 C1713 1.523 . S
C1715 C1699 1.429 . S
C1715 C1711 1.429 . S
C1715 C1716 1.523 . S
C1716 C1700 1.368 . S
C1716 C1712 1.368 . S
C1716 C1715 1.523 . S
H1717 C1692 0.950 . S
H1718 C1694 0.950 . S
H1719 C1695 0.949 . S
H1720 C1697 0.950 . S
H1721 C1699 0.950 . S
C1722 C1723 1.349 . S
C1722 C1724 1.327 . S
C1722 H1747 0.950 . S
C1723 C1722 1.349 . S
C1723 C1739 1.349 . S
C1724 C1722 1.327 . S
C1724 C1743 1.429 . S
C1724 H1748 0.950 . S
C1725 C1742 1.574 . S
C1725 C1744 1.368 . S
C1725 H1749 0.949 . S
H1726 C1730 0.949 . S
C1727 C1728 1.349 . S
C1727 C1729 1.327 . S
C1727 H1750 0.950 . S
C1728 C1727 1.349 . S
C1728 C1740 1.349 . S
C1729 C1727 1.327 . S
C1729 C1745 1.429 . S
C1729 H1751 0.950 . S
C1730 H1726 0.949 . S
C1730 C1738 1.574 . S
C1730 C1746 1.368 . S
H1731 C1739 0.950 . S
H1732 C1737 0.950 . S
H1733 C1738 0.949 . S
H1734 C1740 0.950 . S
H1735 C1741 0.950 . S
H1736 C1742 0.949 . S
C1737 H1732 0.950 . S
C1737 C1739 1.327 . S
C1737 C1743 1.429 . S
C1738 C1730 1.574 . S
C1738 H1733 0.949 . S
C1738 C1744 1.368 . S
C1739 C1723 1.349 . S
C1739 H1731 0.950 . S
C1739 C1737 1.327 . S
C1740 C1728 1.349 . S
C1740 H1734 0.950 . S
C1740 C1741 1.327 . S
C1741 H1735 0.950 . S
C1741 C1740 1.327 . S
C1741 C1745 1.429 . S
C1742 C1725 1.574 . S
C1742 H1736 0.949 . S
C1742 C1746 1.368 . S
C1743 C1724 1.429 . S
C1743 C1737 1.429 . S
C1743 C1744 1.523 . S
C1744 C1725 1.368 . S
C1744 C1738 1.368 . S
C1744 C1743 1.523 . S
C1745 C1729 1.429 . S
C1745 C1741 1.429 . S
C1745 C1746 1.523 . S
C1746 C1730 1.368 . S
C1746 C1742 1.368 . S
C1746 C1745 1.523 . S
H1747 C1722 0.950 . S
H1748 C1724 0.950 . S
H1749 C1725 0.949 . S
H1750 C1727 0.950 . S
H1751 C1729 0.950 . S
C1752 C1753 1.349 . S
C1752 C1754 1.327 . S
C1752 H1777 0.950 . S
C1753 C1752 1.349 . S
C1753 C1769 1.349 . S
C1754 C1752 1.327 . S
C1754 C1773 1.429 . S
C1754 H1778 0.950 . S
C1755 C1772 1.574 . S
C1755 C1774 1.368 . S
C1755 H1779 0.949 . S
H1756 C1760 0.949 . S
C1757 C1758 1.349 . S
C1757 C1759 1.327 . S
C1757 H1780 0.950 . S
C1758 C1757 1.349 . S
C1758 C1770 1.349 . S
C1759 C1757 1.327 . S
C1759 C1775 1.429 . S
C1759 H1781 0.950 . S
C1760 H1756 0.949 . S
C1760 C1768 1.574 . S
C1760 C1776 1.368 . S
H1761 C1769 0.950 . S
H1762 C1767 0.950 . S
H1763 C1768 0.949 . S
H1764 C1770 0.950 . S
H1765 C1771 0.950 . S
H1766 C1772 0.949 . S
C1767 H1762 0.950 . S
C1767 C1769 1.327 . S
C1767 C1773 1.429 . S
C1768 C1760 1.574 . S
C1768 H1763 0.949 . S
C1768 C1774 1.368 . S
C1769 C1753 1.349 . S
C1769 H1761 0.950 . S
C1769 C1767 1.327 . S
C1770 C1758 1.349 . S
C1770 H1764 0.950 . S
C1770 C1771 1.327 . S
C1771 H1765 0.950 . S
C1771 C1770 1.327 . S
C1771 C1775 1.429 . S
C1772 C1755 1.574 . S
C1772 H1766 0.949 . S
C1772 C1776 1.368 . S
C1773 C1754 1.429 . S
C1773 C1767 1.429 . S
C1773 C1774 1.523 . S
C1774 C1755 1.368 . S
C1774 C1768 1.368 . S
C1774 C1773 1.523 . S
C1775 C1759 1.429 . S
C1775 C1771 1.429 . S
C1775 C1776 1.523 . S
C1776 C1760 1.368 . S
C1776 C1772 1.368 . S
C1776 C1775 1.523 . S
H1777 C1752 0.950 . S
H1778 C1754 0.950 . S
H1779 C1755 0.949 . S
H1780 C1757 0.950 . S
H1781 C1759 0.950 . S
C1782 C1783 1.349 . S
C1782 C1784 1.327 . S
C1782 H1807 0.950 . S
C1783 C1782 1.349 . S
C1783 C1799 1.349 . S
C1784 C1782 1.327 . S
C1784 C1803 1.429 . S
C1784 H1808 0.950 . S
C1785 C1802 1.574 . S
C1785 C1804 1.368 . S
C1785 H1809 0.949 . S
H1786 C1790 0.949 . S
C1787 C1788 1.349 . S
C1787 C1789 1.327 . S
C1787 H1810 0.950 . S
C1788 C1787 1.349 . S
C1788 C1800 1.349 . S
C1789 C1787 1.327 . S
C1789 C1805 1.429 . S
C1789 H1811 0.950 . S
C1790 H1786 0.949 . S
C1790 C1798 1.574 . S
C1790 C1806 1.368 . S
H1791 C1799 0.950 . S
H1792 C1797 0.950 . S
H1793 C1798 0.949 . S
H1794 C1800 0.950 . S
H1795 C1801 0.950 . S
H1796 C1802 0.949 . S
C1797 H1792 0.950 . S
C1797 C1799 1.327 . S
C1797 C1803 1.429 . S
C1798 C1790 1.574 . S
C1798 H1793 0.949 . S
C1798 C1804 1.368 . S
C1799 C1783 1.349 . S
C1799 H1791 0.950 . S
C1799 C1797 1.327 . S
C1800 C1788 1.349 . S
C1800 H1794 0.950 . S
C1800 C1801 1.327 . S
C1801 H1795 0.950 . S
C1801 C1800 1.327 . S
C1801 C1805 1.429 . S
C1802 C1785 1.574 . S
C1802 H1796 0.949 . S
C1802 C1806 1.368 . S
C1803 C1784 1.429 . S
C1803 C1797 1.429 . S
C1803 C1804 1.523 . S
C1804 C1785 1.368 . S
C1804 C1798 1.368 . S
C1804 C1803 1.523 . S
C1805 C1789 1.429 . S
C1805 C1801 1.429 . S
C1805 C1806 1.523 . S
C1806 C1790 1.368 . S
C1806 C1802 1.368 . S
C1806 C1805 1.523 . S
H1807 C1782 0.950 . S
H1808 C1784 0.950 . S
H1809 C1785 0.949 . S
H1810 C1787 0.950 . S
H1811 C1789 0.950 . S
C1812 C1813 1.349 . S
C1812 C1814 1.327 . S
C1812 H1837 0.950 . S
C1813 C1812 1.349 . S
C1813 C1829 1.349 . S
C1814 C1812 1.327 . S
C1814 C1833 1.429 . S
C1814 H1838 0.950 . S
C1815 C1832 1.574 . S
C1815 C1834 1.368 . S
C1815 H1839 0.949 . S
H1816 C1820 0.949 . S
C1817 C1818 1.349 . S
C1817 C1819 1.327 . S
C1817 H1840 0.950 . S
C1818 C1817 1.349 . S
C1818 C1830 1.349 . S
C1819 C1817 1.327 . S
C1819 C1835 1.429 . S
C1819 H1841 0.950 . S
C1820 H1816 0.949 . S
C1820 C1828 1.574 . S
C1820 C1836 1.368 . S
H1821 C1829 0.950 . S
H1822 C1827 0.950 . S
H1823 C1828 0.949 . S
H1824 C1830 0.950 . S
H1825 C1831 0.950 . S
H1826 C1832 0.949 . S
C1827 H1822 0.950 . S
C1827 C1829 1.327 . S
C1827 C1833 1.429 . S
C1828 C1820 1.574 . S
C1828 H1823 0.949 . S
C1828 C1834 1.368 . S
C1829 C1813 1.349 . S
C1829 H1821 0.950 . S
C1829 C1827 1.327 . S
C1830 C1818 1.349 . S
C1830 H1824 0.950 . S
C1830 C1831 1.327 . S
C1831 H1825 0.950 . S
C1831 C1830 1.327 . S
C1831 C1835 1.429 . S
C1832 C1815 1.574 . S
C1832 H1826 0.949 . S
C1832 C1836 1.368 . S
C1833 C1814 1.429 . S
C1833 C1827 1.429 . S
C1833 C1834 1.523 . S
C1834 C1815 1.368 . S
C1834 C1828 1.368 . S
C1834 C1833 1.523 . S
C1835 C1819 1.429 . S
C1835 C1831 1.429 . S
C1835 C1836 1.523 . S
C1836 C1820 1.368 . S
C1836 C1832 1.368 . S
C1836 C1835 1.523 . S
H1837 C1812 0.950 . S
H1838 C1814 0.950 . S
H1839 C1815 0.949 . S
H1840 C1817 0.950 . S
H1841 C1819 0.950 . S
C1842 C1843 1.349 . S
C1842 C1844 1.327 . S
C1842 H1867 0.950 . S
C1843 C1842 1.349 . S
C1843 C1859 1.349 . S
C1844 C1842 1.327 . S
C1844 C1863 1.429 . S
C1844 H1868 0.950 . S
C1845 C1862 1.574 . S
C1845 C1864 1.368 . S
C1845 H1869 0.949 . S
H1846 C1850 0.949 . S
C1847 C1848 1.349 . S
C1847 C1849 1.327 . S
C1847 H1870 0.950 . S
C1848 C1847 1.349 . S
C1848 C1860 1.349 . S
C1849 C1847 1.327 . S
C1849 C1865 1.429 . S
C1849 H1871 0.950 . S
C1850 H1846 0.949 . S
C1850 C1858 1.574 . S
C1850 C1866 1.368 . S
H1851 C1859 0.950 . S
H1852 C1857 0.950 . S
H1853 C1858 0.949 . S
H1854 C1860 0.950 . S
H1855 C1861 0.950 . S
H1856 C1862 0.949 . S
C1857 H1852 0.950 . S
C1857 C1859 1.327 . S
C1857 C1863 1.429 . S
C1858 C1850 1.574 . S
C1858 H1853 0.949 . S
C1858 C1864 1.368 . S
C1859 C1843 1.349 . S
C1859 H1851 0.950 . S
C1859 C1857 1.327 . S
C1860 C1848 1.349 . S
C1860 H1854 0.950 . S
C1860 C1861 1.327 . S
C1861 H1855 0.950 . S
C1861 C1860 1.327 . S
C1861 C1865 1.429 . S
C1862 C1845 1.574 . S
C1862 H1856 0.949 . S
C1862 C1866 1.368 . S
C1863 C1844 1.429 . S
C1863 C1857 1.429 . S
C1863 C1864 1.523 . S
C1864 C1845 1.368 . S
C1864 C1858 1.368 . S
C1864 C1863 1.523 . S
C1865 C1849 1.429 . S
C1865 C1861 1.429 . S
C1865 C1866 1.523 . S
C1866 C1850 1.368 . S
C1866 C1862 1.368 . S
C1866 C1865 1.523 . S
H1867 C1842 0.950 . S
H1868 C1844 0.950 . S
H1869 C1845 0.949 . S
H1870 C1847 0.950 . S
H1871 C1849 0.950 . S
C1872 C1873 1.349 . S
C1872 C1874 1.327 . S
C1872 H1897 0.950 . S
C1873 C1872 1.349 . S
C1873 C1889 1.349 . S
C1874 C1872 1.327 . S
C1874 C1893 1.429 . S
C1874 H1898 0.950 . S
C1875 C1892 1.574 . S
C1875 C1894 1.368 . S
C1875 H1899 0.949 . S
H1876 C1880 0.949 . S
C1877 C1878 1.349 . S
C1877 C1879 1.327 . S
C1877 H1900 0.950 . S
C1878 C1877 1.349 . S
C1878 C1890 1.349 . S
C1879 C1877 1.327 . S
C1879 C1895 1.429 . S
C1879 H1901 0.950 . S
C1880 H1876 0.949 . S
C1880 C1888 1.574 . S
C1880 C1896 1.368 . S
H1881 C1889 0.950 . S
H1882 C1887 0.950 . S
H1883 C1888 0.949 . S
H1884 C1890 0.950 . S
H1885 C1891 0.950 . S
H1886 C1892 0.949 . S
C1887 H1882 0.950 . S
C1887 C1889 1.327 . S
C1887 C1893 1.429 . S
C1888 C1880 1.574 . S
C1888 H1883 0.949 . S
C1888 C1894 1.368 . S
C1889 C1873 1.349 . S
C1889 H1881 0.950 . S
C1889 C1887 1.327 . S
C1890 C1878 1.349 . S
C1890 H1884 0.950 . S
C1890 C1891 1.327 . S
C1891 H1885 0.950 . S
C1891 C1890 1.327 . S
C1891 C1895 1.429 . S
C1892 C1875 1.574 . S
C1892 H1886 0.949 . S
C1892 C1896 1.368 . S
C1893 C1874 1.429 . S
C1893 C1887 1.429 . S
C1893 C1894 1.523 . S
C1894 C1875 1.368 . S
C1894 C1888 1.368 . S
C1894 C1893 1.523 . S
C1895 C1879 1.429 . S
C1895 C1891 1.429 . S
C1895 C1896 1.523 . S
C1896 C1880 1.368 . S
C1896 C1892 1.368 . S
C1896 C1895 1.523 . S
H1897 C1872 0.950 . S
H1898 C1874 0.950 . S
H1899 C1875 0.949 . S
H1900 C1877 0.950 . S
H1901 C1879 0.950 . S
C1902 C1903 1.349 . S
C1902 C1904 1.327 . S
C1902 H1927 0.950 . S
C1903 C1902 1.349 . S
C1903 C1919 1.349 . S
C1904 C1902 1.327 . S
C1904 C1923 1.429 . S
C1904 H1928 0.950 . S
C1905 C1922 1.574 . S
C1905 C1924 1.368 . S
C1905 H1929 0.949 . S
H1906 C1910 0.949 . S
C1907 C1908 1.349 . S
C1907 C1909 1.327 . S
C1907 H1930 0.950 . S
C1908 C1907 1.349 . S
C1908 C1920 1.349 . S
C1909 C1907 1.327 . S
C1909 C1925 1.429 . S
C1909 H1931 0.950 . S
C1910 H1906 0.949 . S
C1910 C1918 1.574 . S
C1910 C1926 1.368 . S
H1911 C1919 0.950 . S
H1912 C1917 0.950 . S
H1913 C1918 0.949 . S
H1914 C1920 0.950 . S
H1915 C1921 0.950 . S
H1916 C1922 0.949 . S
C1917 H1912 0.950 . S
C1917 C1919 1.327 . S
C1917 C1923 1.429 . S
C1918 C1910 1.574 . S
C1918 H1913 0.949 . S
C1918 C1924 1.368 . S
C1919 C1903 1.349 . S
C1919 H1911 0.950 . S
C1919 C1917 1.327 . S
C1920 C1908 1.349 . S
C1920 H1914 0.950 . S
C1920 C1921 1.327 . S
C1921 H1915 0.950 . S
C1921 C1920 1.327 . S
C1921 C1925 1.429 . S
C1922 C1905 1.574 . S
C1922 H1916 0.949 . S
C1922 C1926 1.368 . S
C1923 C1904 1.429 . S
C1923 C1917 1.429 . S
C1923 C1924 1.523 . S
C1924 C1905 1.368 . S
C1924 C1918 1.368 . S
C1924 C1923 1.523 . S
C1925 C1909 1.429 . S
C1925 C1921 1.429 . S
C1925 C1926 1.523 . S
C1926 C1910 1.368 . S
C1926 C1922 1.368 . S
C1926 C1925 1.523 . S
H1927 C1902 0.950 . S
H1928 C1904 0.950 . S
H1929 C1905 0.949 . S
H1930 C1907 0.950 . S
H1931 C1909 0.950 . S
C1932 C1933 1.349 . S
C1932 C1934 1.327 . S
C1932 H1957 0.950 . S
C1933 C1932 1.349 . S
C1933 C1949 1.349 . S
C1934 C1932 1.327 . S
C1934 C1953 1.429 . S
C1934 H1958 0.950 . S
C1935 C1952 1.574 . S
C1935 C1954 1.368 . S
C1935 H1959 0.949 . S
H1936 C1940 0.949 . S
C1937 C1938 1.349 . S
C1937 C1939 1.327 . S
C1937 H1960 0.950 . S
C1938 C1937 1.349 . S
C1938 C1950 1.349 . S
C1939 C1937 1.327 . S
C1939 C1955 1.429 . S
C1939 H1961 0.950 . S
C1940 H1936 0.949 . S
C1940 C1948 1.574 . S
C1940 C1956 1.368 . S
H1941 C1949 0.950 . S
H1942 C1947 0.950 . S
H1943 C1948 0.949 . S
H1944 C1950 0.950 . S
H1945 C1951 0.950 . S
H1946 C1952 0.949 . S
C1947 H1942 0.950 . S
C1947 C1949 1.327 . S
C1947 C1953 1.429 . S
C1948 C1940 1.574 . S
C1948 H1943 0.949 . S
C1948 C1954 1.368 . S
C1949 C1933 1.349 . S
C1949 H1941 0.950 . S
C1949 C1947 1.327 . S
C1950 C1938 1.349 . S
C1950 H1944 0.950 . S
C1950 C1951 1.327 . S
C1951 H1945 0.950 . S
C1951 C1950 1.327 . S
C1951 C1955 1.429 . S
C1952 C1935 1.574 . S
C1952 H1946 0.949 . S
C1952 C1956 1.368 . S
C1953 C1934 1.429 . S
C1953 C1947 1.429 . S
C1953 C1954 1.523 . S
C1954 C1935 1.368 . S
C1954 C1948 1.368 . S
C1954 C1953 1.523 . S
C1955 C1939 1.429 . S
C1955 C1951 1.429 . S
C1955 C1956 1.523 . S
C1956 C1940 1.368 . S
C1956 C1952 1.368 . S
C1956 C1955 1.523 . S
H1957 C1932 0.950 . S
H1958 C1934 0.950 . S
H1959 C1935 0.949 . S
H1960 C1937 0.950 . S
H1961 C1939 0.950 . S
C1962 C1963 1.349 . S
C1962 C1964 1.327 . S
C1962 H1987 0.950 . S
C1963 C1962 1.349 . S
C1963 C1979 1.349 . S
C1964 C1962 1.327 . S
C1964 C1983 1.429 . S
C1964 H1988 0.950 . S
C1965 C1982 1.574 . S
C1965 C1984 1.368 . S
C1965 H1989 0.949 . S
H1966 C1970 0.949 . S
C1967 C1968 1.349 . S
C1967 C1969 1.327 . S
C1967 H1990 0.950 . S
C1968 C1967 1.349 . S
C1968 C1980 1.349 . S
C1969 C1967 1.327 . S
C1969 C1985 1.429 . S
C1969 H1991 0.950 . S
C1970 H1966 0.949 . S
C1970 C1978 1.574 . S
C1970 C1986 1.368 . S
H1971 C1979 0.950 . S
H1972 C1977 0.950 . S
H1973 C1978 0.949 . S
H1974 C1980 0.950 . S
H1975 C1981 0.950 . S
H1976 C1982 0.949 . S
C1977 H1972 0.950 . S
C1977 C1979 1.327 . S
C1977 C1983 1.429 . S
C1978 C1970 1.574 . S
C1978 H1973 0.949 . S
C1978 C1984 1.368 . S
C1979 C1963 1.349 . S
C1979 H1971 0.950 . S
C1979 C1977 1.327 . S
C1980 C1968 1.349 . S
C1980 H1974 0.950 . S
C1980 C1981 1.327 . S
C1981 H1975 0.950 . S
C1981 C1980 1.327 . S
C1981 C1985 1.429 . S
C1982 C1965 1.574 . S
C1982 H1976 0.949 . S
C1982 C1986 1.368 . S
C1983 C1964 1.429 . S
C1983 C1977 1.429 . S
C1983 C1984 1.523 . S
C1984 C1965 1.368 . S
C1984 C1978 1.368 . S
C1984 C1983 1.523 . S
C1985 C1969 1.429 . S
C1985 C1981 1.429 . S
C1985 C1986 1.523 . S
C1986 C1970 1.368 . S
C1986 C1982 1.368 . S
C1986 C1985 1.523 . S
H1987 C1962 0.950 . S
H1988 C1964 0.950 . S
H1989 C1965 0.949 . S
H1990 C1967 0.950 . S
H1991 C1969 0.950 . S
C1992 C1993 1.349 . S
C1992 C1994 1.327 . S
C1992 H2017 0.950 . S
C1993 C1992 1.349 . S
C1993 C2009 1.349 . S
C1994 C1992 1.327 . S
C1994 C2013 1.429 . S
C1994 H2018 0.950 . S
C1995 C2012 1.574 . S
C1995 C2014 1.368 . S
C1995 H2019 0.949 . S
H1996 C2000 0.949 . S
C1997 C1998 1.349 . S
C1997 C1999 1.327 . S
C1997 H2020 0.950 . S
C1998 C1997 1.349 . S
C1998 C2010 1.349 . S
C1999 C1997 1.327 . S
C1999 C2015 1.429 . S
C1999 H2021 0.950 . S
C2000 H1996 0.949 . S
C2000 C2008 1.574 . S
C2000 C2016 1.368 . S
H2001 C2009 0.950 . S
H2002 C2007 0.950 . S
H2003 C2008 0.949 . S
H2004 C2010 0.950 . S
H2005 C2011 0.950 . S
H2006 C2012 0.949 . S
C2007 H2002 0.950 . S
C2007 C2009 1.327 . S
C2007 C2013 1.429 . S
C2008 C2000 1.574 . S
C2008 H2003 0.949 . S
C2008 C2014 1.368 . S
C2009 C1993 1.349 . S
C2009 H2001 0.950 . S
C2009 C2007 1.327 . S
C2010 C1998 1.349 . S
C2010 H2004 0.950 . S
C2010 C2011 1.327 . S
C2011 H2005 0.950 . S
C2011 C2010 1.327 . S
C2011 C2015 1.429 . S
C2012 C1995 1.574 . S
C2012 H2006 0.949 . S
C2012 C2016 1.368 . S
C2013 C1994 1.429 . S
C2013 C2007 1.429 . S
C2013 C2014 1.523 . S
C2014 C1995 1.368 . S
C2014 C2008 1.368 . S
C2014 C2013 1.523 . S
C2015 C1999 1.429 . S
C2015 C2011 1.429 . S
C2015 C2016 1.523 . S
C2016 C2000 1.368 . S
C2016 C2012 1.368 . S
C2016 C2015 1.523 . S
H2017 C1992 0.950 . S
H2018 C1994 0.950 . S
H2019 C1995 0.949 . S
H2020 C1997 0.950 . S
H2021 C1999 0.950 . S
C2022 C2023 1.349 . S
C2022 C2024 1.327 . S
C2022 H2047 0.950 . S
C2023 C2022 1.349 . S
C2023 C2039 1.349 . S
C2024 C2022 1.327 . S
C2024 C2043 1.429 . S
C2024 H2048 0.950 . S
C2025 C2042 1.574 . S
C2025 C2044 1.368 . S
C2025 H2049 0.949 . S
H2026 C2030 0.949 . S
C2027 C2028 1.349 . S
C2027 C2029 1.327 . S
C2027 H2050 0.950 . S
C2028 C2027 1.349 . S
C2028 C2040 1.349 . S
C2029 C2027 1.327 . S
C2029 C2045 1.429 . S
C2029 H2051 0.950 . S
C2030 H2026 0.949 . S
C2030 C2038 1.574 . S
C2030 C2046 1.368 . S
H2031 C2039 0.950 . S
H2032 C2037 0.950 . S
H2033 C2038 0.949 . S
H2034 C2040 0.950 . S
H2035 C2041 0.950 . S
H2036 C2042 0.949 . S
C2037 H2032 0.950 . S
C2037 C2039 1.327 . S
C2037 C2043 1.429 . S
C2038 C2030 1.574 . S
C2038 H2033 0.949 . S
C2038 C2044 1.368 . S
C2039 C2023 1.349 . S
C2039 H2031 0.950 . S
C2039 C2037 1.327 . S
C2040 C2028 1.349 . S
C2040 H2034 0.950 . S
C2040 C2041 1.327 . S
C2041 H2035 0.950 . S
C2041 C2040 1.327 . S
C2041 C2045 1.429 . S
C2042 C2025 1.574 . S
C2042 H2036 0.949 . S
C2042 C2046 1.368 . S
C2043 C2024 1.429 . S
C2043 C2037 1.429 . S
C2043 C2044 1.523 . S
C2044 C2025 1.368 . S
C2044 C2038 1.368 . S
C2044 C2043 1.523 . S
C2045 C2029 1.429 . S
C2045 C2041 1.429 . S
C2045 C2046 1.523 . S
C2046 C2030 1.368 . S
C2046 C2042 1.368 . S
C2046 C2045 1.523 . S
H2047 C2022 0.950 . S
H2048 C2024 0.950 . S
H2049 C2025 0.949 . S
H2050 C2027 0.950 . S
H2051 C2029 0.950 . S
C2052 C2053 1.349 . S
C2052 C2054 1.327 . S
C2052 H2077 0.950 . S
C2053 C2052 1.349 . S
C2053 C2069 1.349 . S
C2054 C2052 1.327 . S
C2054 C2073 1.429 . S
C2054 H2078 0.950 . S
C2055 C2072 1.574 . S
C2055 C2074 1.368 . S
C2055 H2079 0.949 . S
H2056 C2060 0.949 . S
C2057 C2058 1.349 . S
C2057 C2059 1.327 . S
C2057 H2080 0.950 . S
C2058 C2057 1.349 . S
C2058 C2070 1.349 . S
C2059 C2057 1.327 . S
C2059 C2075 1.429 . S
C2059 H2081 0.950 . S
C2060 H2056 0.949 . S
C2060 C2068 1.574 . S
C2060 C2076 1.368 . S
H2061 C2069 0.950 . S
H2062 C2067 0.950 . S
H2063 C2068 0.949 . S
H2064 C2070 0.950 . S
H2065 C2071 0.950 . S
H2066 C2072 0.949 . S
C2067 H2062 0.950 . S
C2067 C2069 1.327 . S
C2067 C2073 1.429 . S
C2068 C2060 1.574 . S
C2068 H2063 0.949 . S
C2068 C2074 1.368 . S
C2069 C2053 1.349 . S
C2069 H2061 0.950 . S
C2069 C2067 1.327 . S
C2070 C2058 1.349 . S
C2070 H2064 0.950 . S
C2070 C2071 1.327 . S
C2071 H2065 0.950 . S
C2071 C2070 1.327 . S
C2071 C2075 1.429 . S
C2072 C2055 1.574 . S
C2072 H2066 0.949 . S
C2072 C2076 1.368 . S
C2073 C2054 1.429 . S
C2073 C2067 1.429 . S
C2073 C2074 1.523 . S
C2074 C2055 1.368 . S
C2074 C2068 1.368 . S
C2074 C2073 1.523 . S
C2075 C2059 1.429 . S
C2075 C2071 1.429 . S
C2075 C2076 1.523 . S
C2076 C2060 1.368 . S
C2076 C2072 1.368 . S
C2076 C2075 1.523 . S
H2077 C2052 0.950 . S
H2078 C2054 0.950 . S
H2079 C2055 0.949 . S
H2080 C2057 0.950 . S
H2081 C2059 0.950 . S
C2082 C2083 1.349 . S
C2082 C2084 1.327 . S
C2082 H2107 0.950 . S
C2083 C2082 1.349 . S
C2083 C2099 1.349 . S
C2084 C2082 1.327 . S
C2084 C2103 1.429 . S
C2084 H2108 0.950 . S
C2085 C2102 1.574 . S
C2085 C2104 1.368 . S
C2085 H2109 0.949 . S
H2086 C2090 0.949 . S
C2087 C2088 1.349 . S
C2087 C2089 1.327 . S
C2087 H2110 0.950 . S
C2088 C2087 1.349 . S
C2088 C2100 1.349 . S
C2089 C2087 1.327 . S
C2089 C2105 1.429 . S
C2089 H2111 0.950 . S
C2090 H2086 0.949 . S
C2090 C2098 1.574 . S
C2090 C2106 1.368 . S
H2091 C2099 0.950 . S
H2092 C2097 0.950 . S
H2093 C2098 0.949 . S
H2094 C2100 0.950 . S
H2095 C2101 0.950 . S
H2096 C2102 0.949 . S
C2097 H2092 0.950 . S
C2097 C2099 1.327 . S
C2097 C2103 1.429 . S
C2098 C2090 1.574 . S
C2098 H2093 0.949 . S
C2098 C2104 1.368 . S
C2099 C2083 1.349 . S
C2099 H2091 0.950 . S
C2099 C2097 1.327 . S
C2100 C2088 1.349 . S
C2100 H2094 0.950 . S
C2100 C2101 1.327 . S
C2101 H2095 0.950 . S
C2101 C2100 1.327 . S
C2101 C2105 1.429 . S
C2102 C2085 1.574 . S
C2102 H2096 0.949 . S
C2102 C2106 1.368 . S
C2103 C2084 1.429 . S
C2103 C2097 1.429 . S
C2103 C2104 1.523 . S
C2104 C2085 1.368 . S
C2104 C2098 1.368 . S
C2104 C2103 1.523 . S
C2105 C2089 1.429 . S
C2105 C2101 1.429 . S
C2105 C2106 1.523 . S
C2106 C2090 1.368 . S
C2106 C2102 1.368 . S
C2106 C2105 1.523 . S
H2107 C2082 0.950 . S
H2108 C2084 0.950 . S
H2109 C2085 0.949 . S
H2110 C2087 0.950 . S
H2111 C2089 0.950 . S
C2112 C2113 1.349 . S
C2112 C2114 1.327 . S
C2112 H2137 0.950 . S
C2113 C2112 1.349 . S
C2113 C2129 1.349 . S
C2114 C2112 1.327 . S
C2114 C2133 1.429 . S
C2114 H2138 0.950 . S
C2115 C2132 1.574 . S
C2115 C2134 1.368 . S
C2115 H2139 0.949 . S
H2116 C2120 0.949 . S
C2117 C2118 1.349 . S
C2117 C2119 1.327 . S
C2117 H2140 0.950 . S
C2118 C2117 1.349 . S
C2118 C2130 1.349 . S
C2119 C2117 1.327 . S
C2119 C2135 1.429 . S
C2119 H2141 0.950 . S
C2120 H2116 0.949 . S
C2120 C2128 1.574 . S
C2120 C2136 1.368 . S
H2121 C2129 0.950 . S
H2122 C2127 0.950 . S
H2123 C2128 0.949 . S
H2124 C2130 0.950 . S
H2125 C2131 0.950 . S
H2126 C2132 0.949 . S
C2127 H2122 0.950 . S
C2127 C2129 1.327 . S
C2127 C2133 1.429 . S
C2128 C2120 1.574 . S
C2128 H2123 0.949 . S
C2128 C2134 1.368 . S
C2129 C2113 1.349 . S
C2129 H2121 0.950 . S
C2129 C2127 1.327 . S
C2130 C2118 1.349 . S
C2130 H2124 0.950 . S
C2130 C2131 1.327 . S
C2131 H2125 0.950 . S
C2131 C2130 1.327 . S
C2131 C2135 1.429 . S
C2132 C2115 1.574 . S
C2132 H2126 0.949 . S
C2132 C2136 1.368 . S
C2133 C2114 1.429 . S
C2133 C2127 1.429 . S
C2133 C2134 1.523 . S
C2134 C2115 1.368 . S
C2134 C2128 1.368 . S
C2134 C2133 1.523 . S
C2135 C2119 1.429 . S
C2135 C2131 1.429 . S
C2135 C2136 1.523 . S
C2136 C2120 1.368 . S
C2136 C2132 1.368 . S
C2136 C2135 1.523 . S
H2137 C2112 0.950 . S
H2138 C2114 0.950 . S
H2139 C2115 0.949 . S
H2140 C2117 0.950 . S
H2141 C2119 0.950 . S
C2142 C2143 1.349 . S
C2142 C2144 1.327 . S
C2142 H2167 0.950 . S
C2143 C2142 1.349 . S
C2143 C2159 1.349 . S
C2144 C2142 1.327 . S
C2144 C2163 1.429 . S
C2144 H2168 0.950 . S
C2145 C2162 1.574 . S
C2145 C2164 1.368 . S
C2145 H2169 0.949 . S
H2146 C2150 0.949 . S
C2147 C2148 1.349 . S
C2147 C2149 1.327 . S
C2147 H2170 0.950 . S
C2148 C2147 1.349 . S
C2148 C2160 1.349 . S
C2149 C2147 1.327 . S
C2149 C2165 1.429 . S
C2149 H2171 0.950 . S
C2150 H2146 0.949 . S
C2150 C2158 1.574 . S
C2150 C2166 1.368 . S
H2151 C2159 0.950 . S
H2152 C2157 0.950 . S
H2153 C2158 0.949 . S
H2154 C2160 0.950 . S
H2155 C2161 0.950 . S
H2156 C2162 0.949 . S
C2157 H2152 0.950 . S
C2157 C2159 1.327 . S
C2157 C2163 1.429 . S
C2158 C2150 1.574 . S
C2158 H2153 0.949 . S
C2158 C2164 1.368 . S
C2159 C2143 1.349 . S
C2159 H2151 0.950 . S
C2159 C2157 1.327 . S
C2160 C2148 1.349 . S
C2160 H2154 0.950 . S
C2160 C2161 1.327 . S
C2161 H2155 0.950 . S
C2161 C2160 1.327 . S
C2161 C2165 1.429 . S
C2162 C2145 1.574 . S
C2162 H2156 0.949 . S
C2162 C2166 1.368 . S
C2163 C2144 1.429 . S
C2163 C2157 1.429 . S
C2163 C2164 1.523 . S
C2164 C2145 1.368 . S
C2164 C2158 1.368 . S
C2164 C2163 1.523 . S
C2165 C2149 1.429 . S
C2165 C2161 1.429 . S
C2165 C2166 1.523 . S
C2166 C2150 1.368 . S
C2166 C2162 1.368 . S
C2166 C2165 1.523 . S
H2167 C2142 0.950 . S
H2168 C2144 0.950 . S
H2169 C2145 0.949 . S
H2170 C2147 0.950 . S
H2171 C2149 0.950 . S
C2172 C2173 1.349 . S
C2172 C2174 1.327 . S
C2172 H2197 0.950 . S
C2173 C2172 1.349 . S
C2173 C2189 1.349 . S
C2174 C2172 1.327 . S
C2174 C2193 1.429 . S
C2174 H2198 0.950 . S
C2175 C2192 1.574 . S
C2175 C2194 1.368 . S
C2175 H2199 0.949 . S
H2176 C2180 0.949 . S
C2177 C2178 1.349 . S
C2177 C2179 1.327 . S
C2177 H2200 0.950 . S
C2178 C2177 1.349 . S
C2178 C2190 1.349 . S
C2179 C2177 1.327 . S
C2179 C2195 1.429 . S
C2179 H2201 0.950 . S
C2180 H2176 0.949 . S
C2180 C2188 1.574 . S
C2180 C2196 1.368 . S
H2181 C2189 0.950 . S
H2182 C2187 0.950 . S
H2183 C2188 0.949 . S
H2184 C2190 0.950 . S
H2185 C2191 0.950 . S
H2186 C2192 0.949 . S
C2187 H2182 0.950 . S
C2187 C2189 1.327 . S
C2187 C2193 1.429 . S
C2188 C2180 1.574 . S
C2188 H2183 0.949 . S
C2188 C2194 1.368 . S
C2189 C2173 1.349 . S
C2189 H2181 0.950 . S
C2189 C2187 1.327 . S
C2190 C2178 1.349 . S
C2190 H2184 0.950 . S
C2190 C2191 1.327 . S
C2191 H2185 0.950 . S
C2191 C2190 1.327 . S
C2191 C2195 1.429 . S
C2192 C2175 1.574 . S
C2192 H2186 0.949 . S
C2192 C2196 1.368 . S
C2193 C2174 1.429 . S
C2193 C2187 1.429 . S
C2193 C2194 1.523 . S
C2194 C2175 1.368 . S
C2194 C2188 1.368 . S
C2194 C2193 1.523 . S
C2195 C2179 1.429 . S
C2195 C2191 1.429 . S
C2195 C2196 1.523 . S
C2196 C2180 1.368 . S
C2196 C2192 1.368 . S
C2196 C2195 1.523 . S
H2197 C2172 0.950 . S
H2198 C2174 0.950 . S
H2199 C2175 0.949 . S
H2200 C2177 0.950 . S
H2201 C2179 0.950 . S
C2202 C2203 1.349 . S
C2202 C2204 1.327 . S
C2202 H2227 0.950 . S
C2203 C2202 1.349 . S
C2203 C2219 1.349 . S
C2204 C2202 1.327 . S
C2204 C2223 1.429 . S
C2204 H2228 0.950 . S
C2205 C2222 1.574 . S
C2205 C2224 1.368 . S
C2205 H2229 0.949 . S
H2206 C2210 0.949 . S
C2207 C2208 1.349 . S
C2207 C2209 1.327 . S
C2207 H2230 0.950 . S
C2208 C2207 1.349 . S
C2208 C2220 1.349 . S
C2209 C2207 1.327 . S
C2209 C2225 1.429 . S
C2209 H2231 0.950 . S
C2210 H2206 0.949 . S
C2210 C2218 1.574 . S
C2210 C2226 1.368 . S
H2211 C2219 0.950 . S
H2212 C2217 0.950 . S
H2213 C2218 0.949 . S
H2214 C2220 0.950 . S
H2215 C2221 0.950 . S
H2216 C2222 0.949 . S
C2217 H2212 0.950 . S
C2217 C2219 1.327 . S
C2217 C2223 1.429 . S
C2218 C2210 1.574 . S
C2218 H2213 0.949 . S
C2218 C2224 1.368 . S
C2219 C2203 1.349 . S
C2219 H2211 0.950 . S
C2219 C2217 1.327 . S
C2220 C2208 1.349 . S
C2220 H2214 0.950 . S
C2220 C2221 1.327 . S
C2221 H2215 0.950 . S
C2221 C2220 1.327 . S
C2221 C2225 1.429 . S
C2222 C2205 1.574 . S
C2222 H2216 0.949 . S
C2222 C2226 1.368 . S
C2223 C2204 1.429 . S
C2223 C2217 1.429 . S
C2223 C2224 1.523 . S
C2224 C2205 1.368 . S
C2224 C2218 1.368 . S
C2224 C2223 1.523 . S
C2225 C2209 1.429 . S
C2225 C2221 1.429 . S
C2225 C2226 1.523 . S
C2226 C2210 1.368 . S
C2226 C2222 1.368 . S
C2226 C2225 1.523 . S
H2227 C2202 0.950 . S
H2228 C2204 0.950 . S
H2229 C2205 0.949 . S
H2230 C2207 0.950 . S
H2231 C2209 0.950 . S
C2232 C2233 1.349 . S
C2232 C2234 1.327 . S
C2232 H2257 0.950 . S
C2233 C2232 1.349 . S
C2233 C2249 1.349 . S
C2234 C2232 1.327 . S
C2234 C2253 1.429 . S
C2234 H2258 0.950 . S
C2235 C2252 1.574 . S
C2235 C2254 1.368 . S
C2235 H2259 0.949 . S
H2236 C2240 0.949 . S
C2237 C2238 1.349 . S
C2237 C2239 1.327 . S
C2237 H2260 0.950 . S
C2238 C2237 1.349 . S
C2238 C2250 1.349 . S
C2239 C2237 1.327 . S
C2239 C2255 1.429 . S
C2239 H2261 0.950 . S
C2240 H2236 0.949 . S
C2240 C2248 1.574 . S
C2240 C2256 1.368 . S
H2241 C2249 0.950 . S
H2242 C2247 0.950 . S
H2243 C2248 0.949 . S
H2244 C2250 0.950 . S
H2245 C2251 0.950 . S
H2246 C2252 0.949 . S
C2247 H2242 0.950 . S
C2247 C2249 1.327 . S
C2247 C2253 1.429 . S
C2248 C2240 1.574 . S
C2248 H2243 0.949 . S
C2248 C2254 1.368 . S
C2249 C2233 1.349 . S
C2249 H2241 0.950 . S
C2249 C2247 1.327 . S
C2250 C2238 1.349 . S
C2250 H2244 0.950 . S
C2250 C2251 1.327 . S
C2251 H2245 0.950 . S
C2251 C2250 1.327 . S
C2251 C2255 1.429 . S
C2252 C2235 1.574 . S
C2252 H2246 0.949 . S
C2252 C2256 1.368 . S
C2253 C2234 1.429 . S
C2253 C2247 1.429 . S
C2253 C2254 1.523 . S
C2254 C2235 1.368 . S
C2254 C2248 1.368 . S
C2254 C2253 1.523 . S
C2255 C2239 1.429 . S
C2255 C2251 1.429 . S
C2255 C2256 1.523 . S
C2256 C2240 1.368 . S
C2256 C2252 1.368 . S
C2256 C2255 1.523 . S
H2257 C2232 0.950 . S
H2258 C2234 0.950 . S
H2259 C2235 0.949 . S
H2260 C2237 0.950 . S
H2261 C2239 0.950 . S
C2262 C2263 1.349 . S
C2262 C2264 1.327 . S
C2262 H2287 0.950 . S
C2263 C2262 1.349 . S
C2263 C2279 1.349 . S
C2264 C2262 1.327 . S
C2264 C2283 1.429 . S
C2264 H2288 0.950 . S
C2265 C2282 1.574 . S
C2265 C2284 1.368 . S
C2265 H2289 0.949 . S
H2266 C2270 0.949 . S
C2267 C2268 1.349 . S
C2267 C2269 1.327 . S
C2267 H2290 0.950 . S
C2268 C2267 1.349 . S
C2268 C2280 1.349 . S
C2269 C2267 1.327 . S
C2269 C2285 1.429 . S
C2269 H2291 0.950 . S
C2270 H2266 0.949 . S
C2270 C2278 1.574 . S
C2270 C2286 1.368 . S
H2271 C2279 0.950 . S
H2272 C2277 0.950 . S
H2273 C2278 0.949 . S
H2274 C2280 0.950 . S
H2275 C2281 0.950 . S
H2276 C2282 0.949 . S
C2277 H2272 0.950 . S
C2277 C2279 1.327 . S
C2277 C2283 1.429 . S
C2278 C2270 1.574 . S
C2278 H2273 0.949 . S
C2278 C2284 1.368 . S
C2279 C2263 1.349 . S
C2279 H2271 0.950 . S
C2279 C2277 1.327 . S
C2280 C2268 1.349 . S
C2280 H2274 0.950 . S
C2280 C2281 1.327 . S
C2281 H2275 0.950 . S
C2281 C2280 1.327 . S
C2281 C2285 1.429 . S
C2282 C2265 1.574 . S
C2282 H2276 0.949 . S
C2282 C2286 1.368 . S
C2283 C2264 1.429 . S
C2283 C2277 1.429 . S
C2283 C2284 1.523 . S
C2284 C2265 1.368 . S
C2284 C2278 1.368 . S
C2284 C2283 1.523 . S
C2285 C2269 1.429 . S
C2285 C2281 1.429 . S
C2285 C2286 1.523 . S
C2286 C2270 1.368 . S
C2286 C2282 1.368 . S
C2286 C2285 1.523 . S
H2287 C2262 0.950 . S
H2288 C2264 0.950 . S
H2289 C2265 0.949 . S
H2290 C2267 0.950 . S
H2291 C2269 0.950 . S
C2292 C2293 1.349 . S
C2292 C2294 1.327 . S
C2292 H2317 0.950 . S
C2293 C2292 1.349 . S
C2293 C2309 1.349 . S
C2294 C2292 1.327 . S
C2294 C2313 1.429 . S
C2294 H2318 0.950 . S
C2295 C2312 1.574 . S
C2295 C2314 1.368 . S
C2295 H2319 0.949 . S
H2296 C2300 0.949 . S
C2297 C2298 1.349 . S
C2297 C2299 1.327 . S
C2297 H2320 0.950 . S
C2298 C2297 1.349 . S
C2298 C2310 1.349 . S
C2299 C2297 1.327 . S
C2299 C2315 1.429 . S
C2299 H2321 0.950 . S
C2300 H2296 0.949 . S
C2300 C2308 1.574 . S
C2300 C2316 1.368 . S
H2301 C2309 0.950 . S
H2302 C2307 0.950 . S
H2303 C2308 0.949 . S
H2304 C2310 0.950 . S
H2305 C2311 0.950 . S
H2306 C2312 0.949 . S
C2307 H2302 0.950 . S
C2307 C2309 1.327 . S
C2307 C2313 1.429 . S
C2308 C2300 1.574 . S
C2308 H2303 0.949 . S
C2308 C2314 1.368 . S
C2309 C2293 1.349 . S
C2309 H2301 0.950 . S
C2309 C2307 1.327 . S
C2310 C2298 1.349 . S
C2310 H2304 0.950 . S
C2310 C2311 1.327 . S
C2311 H2305 0.950 . S
C2311 C2310 1.327 . S
C2311 C2315 1.429 . S
C2312 C2295 1.574 . S
C2312 H2306 0.949 . S
C2312 C2316 1.368 . S
C2313 C2294 1.429 . S
C2313 C2307 1.429 . S
C2313 C2314 1.523 . S
C2314 C2295 1.368 . S
C2314 C2308 1.368 . S
C2314 C2313 1.523 . S
C2315 C2299 1.429 . S
C2315 C2311 1.429 . S
C2315 C2316 1.523 . S
C2316 C2300 1.368 . S
C2316 C2312 1.368 . S
C2316 C2315 1.523 . S
H2317 C2292 0.950 . S
H2318 C2294 0.950 . S
H2319 C2295 0.949 . S
H2320 C2297 0.950 . S
H2321 C2299 0.950 . S
C2322 C2323 1.349 . S
C2322 C2324 1.327 . S
C2322 H2347 0.950 . S
C2323 C2322 1.349 . S
C2323 C2339 1.349 . S
C2324 C2322 1.327 . S
C2324 C2343 1.429 . S
C2324 H2348 0.950 . S
C2325 C2342 1.574 . S
C2325 C2344 1.368 . S
C2325 H2349 0.949 . S
H2326 C2330 0.949 . S
C2327 C2328 1.349 . S
C2327 C2329 1.327 . S
C2327 H2350 0.950 . S
C2328 C2327 1.349 . S
C2328 C2340 1.349 . S
C2329 C2327 1.327 . S
C2329 C2345 1.429 . S
C2329 H2351 0.950 . S
C2330 H2326 0.949 . S
C2330 C2338 1.574 . S
C2330 C2346 1.368 . S
H2331 C2339 0.950 . S
H2332 C2337 0.950 . S
H2333 C2338 0.949 . S
H2334 C2340 0.950 . S
H2335 C2341 0.950 . S
H2336 C2342 0.949 . S
C2337 H2332 0.950 . S
C2337 C2339 1.327 . S
C2337 C2343 1.429 . S
C2338 C2330 1.574 . S
C2338 H2333 0.949 . S
C2338 C2344 1.368 . S
C2339 C2323 1.349 . S
C2339 H2331 0.950 . S
C2339 C2337 1.327 . S
C2340 C2328 1.349 . S
C2340 H2334 0.950 . S
C2340 C2341 1.327 . S
C2341 H2335 0.950 . S
C2341 C2340 1.327 . S
C2341 C2345 1.429 . S
C2342 C2325 1.574 . S
C2342 H2336 0.949 . S
C2342 C2346 1.368 . S
C2343 C2324 1.429 . S
C2343 C2337 1.429 . S
C2343 C2344 1.523 . S
C2344 C2325 1.368 . S
C2344 C2338 1.368 . S
C2344 C2343 1.523 . S
C2345 C2329 1.429 . S
C2345 C2341 1.429 . S
C2345 C2346 1.523 . S
C2346 C2330 1.368 . S
C2346 C2342 1.368 . S
C2346 C2345 1.523 . S
H2347 C2322 0.950 . S
H2348 C2324 0.950 . S
H2349 C2325 0.949 . S
H2350 C2327 0.950 . S
H2351 C2329 0.950 . S
C2352 C2353 1.349 . S
C2352 C2354 1.327 . S
C2352 H2377 0.950 . S
C2353 C2352 1.349 . S
C2353 C2369 1.349 . S
C2354 C2352 1.327 . S
C2354 C2373 1.429 . S
C2354 H2378 0.950 . S
C2355 C2372 1.574 . S
C2355 C2374 1.368 . S
C2355 H2379 0.949 . S
H2356 C2360 0.949 . S
C2357 C2358 1.349 . S
C2357 C2359 1.327 . S
C2357 H2380 0.950 . S
C2358 C2357 1.349 . S
C2358 C2370 1.349 . S
C2359 C2357 1.327 . S
C2359 C2375 1.429 . S
C2359 H2381 0.950 . S
C2360 H2356 0.949 . S
C2360 C2368 1.574 . S
C2360 C2376 1.368 . S
H2361 C2369 0.950 . S
H2362 C2367 0.950 . S
H2363 C2368 0.949 . S
H2364 C2370 0.950 . S
H2365 C2371 0.950 . S
H2366 C2372 0.949 . S
C2367 H2362 0.950 . S
C2367 C2369 1.327 . S
C2367 C2373 1.429 . S
C2368 C2360 1.574 . S
C2368 H2363 0.949 . S
C2368 C2374 1.368 . S
C2369 C2353 1.349 . S
C2369 H2361 0.950 . S
C2369 C2367 1.327 . S
C2370 C2358 1.349 . S
C2370 H2364 0.950 . S
C2370 C2371 1.327 . S
C2371 H2365 0.950 . S
C2371 C2370 1.327 . S
C2371 C2375 1.429 . S
C2372 C2355 1.574 . S
C2372 H2366 0.949 . S
C2372 C2376 1.368 . S
C2373 C2354 1.429 . S
C2373 C2367 1.429 . S
C2373 C2374 1.523 . S
C2374 C2355 1.368 . S
C2374 C2368 1.368 . S
C2374 C2373 1.523 . S
C2375 C2359 1.429 . S
C2375 C2371 1.429 . S
C2375 C2376 1.523 . S
C2376 C2360 1.368 . S
C2376 C2372 1.368 . S
C2376 C2375 1.523 . S
H2377 C2352 0.950 . S
H2378 C2354 0.950 . S
H2379 C2355 0.949 . S
H2380 C2357 0.950 . S
H2381 C2359 0.950 . S
C2382 C2383 1.349 . S
C2382 C2384 1.327 . S
C2382 H2407 0.950 . S
C2383 C2382 1.349 . S
C2383 C2399 1.349 . S
C2384 C2382 1.327 . S
C2384 C2403 1.429 . S
C2384 H2408 0.950 . S
C2385 C2402 1.574 . S
C2385 C2404 1.368 . S
C2385 H2409 0.949 . S
H2386 C2390 0.949 . S
C2387 C2388 1.349 . S
C2387 C2389 1.327 . S
C2387 H2410 0.950 . S
C2388 C2387 1.349 . S
C2388 C2400 1.349 . S
C2389 C2387 1.327 . S
C2389 C2405 1.429 . S
C2389 H2411 0.950 . S
C2390 H2386 0.949 . S
C2390 C2398 1.574 . S
C2390 C2406 1.368 . S
H2391 C2399 0.950 . S
H2392 C2397 0.950 . S
H2393 C2398 0.949 . S
H2394 C2400 0.950 . S
H2395 C2401 0.950 . S
H2396 C2402 0.949 . S
C2397 H2392 0.950 . S
C2397 C2399 1.327 . S
C2397 C2403 1.429 . S
C2398 C2390 1.574 . S
C2398 H2393 0.949 . S
C2398 C2404 1.368 . S
C2399 C2383 1.349 . S
C2399 H2391 0.950 . S
C2399 C2397 1.327 . S
C2400 C2388 1.349 . S
C2400 H2394 0.950 . S
C2400 C2401 1.327 . S
C2401 H2395 0.950 . S
C2401 C2400 1.327 . S
C2401 C2405 1.429 . S
C2402 C2385 1.574 . S
C2402 H2396 0.949 . S
C2402 C2406 1.368 . S
C2403 C2384 1.429 . S
C2403 C2397 1.429 . S
C2403 C2404 1.523 . S
C2404 C2385 1.368 . S
C2404 C2398 1.368 . S
C2404 C2403 1.523 . S
C2405 C2389 1.429 . S
C2405 C2401 1.429 . S
C2405 C2406 1.523 . S
C2406 C2390 1.368 . S
C2406 C2402 1.368 . S
C2406 C2405 1.523 . S
H2407 C2382 0.950 . S
H2408 C2384 0.950 . S
H2409 C2385 0.949 . S
H2410 C2387 0.950 . S
H2411 C2389 0.950 . S
C2412 C2413 1.349 . S
C2412 C2414 1.327 . S
C2412 H2437 0.950 . S
C2413 C2412 1.349 . S
C2413 C2429 1.349 . S
C2414 C2412 1.327 . S
C2414 C2433 1.429 . S
C2414 H2438 0.950 . S
C2415 C2432 1.574 . S
C2415 C2434 1.368 . S
C2415 H2439 0.949 . S
H2416 C2420 0.949 . S
C2417 C2418 1.349 . S
C2417 C2419 1.327 . S
C2417 H2440 0.950 . S
C2418 C2417 1.349 . S
C2418 C2430 1.349 . S
C2419 C2417 1.327 . S
C2419 C2435 1.429 . S
C2419 H2441 0.950 . S
C2420 H2416 0.949 . S
C2420 C2428 1.574 . S
C2420 C2436 1.368 . S
H2421 C2429 0.950 . S
H2422 C2427 0.950 . S
H2423 C2428 0.949 . S
H2424 C2430 0.950 . S
H2425 C2431 0.950 . S
H2426 C2432 0.949 . S
C2427 H2422 0.950 . S
C2427 C2429 1.327 . S
C2427 C2433 1.429 . S
C2428 C2420 1.574 . S
C2428 H2423 0.949 . S
C2428 C2434 1.368 . S
C2429 C2413 1.349 . S
C2429 H2421 0.950 . S
C2429 C2427 1.327 . S
C2430 C2418 1.349 . S
C2430 H2424 0.950 . S
C2430 C2431 1.327 . S
C2431 H2425 0.950 . S
C2431 C2430 1.327 . S
C2431 C2435 1.429 . S
C2432 C2415 1.574 . S
C2432 H2426 0.949 . S
C2432 C2436 1.368 . S
C2433 C2414 1.429 . S
C2433 C2427 1.429 . S
C2433 C2434 1.523 . S
C2434 C2415 1.368 . S
C2434 C2428 1.368 . S
C2434 C2433 1.523 . S
C2435 C2419 1.429 . S
C2435 C2431 1.429 . S
C2435 C2436 1.523 . S
C2436 C2420 1.368 . S
C2436 C2432 1.368 . S
C2436 C2435 1.523 . S
H2437 C2412 0.950 . S
H2438 C2414 0.950 . S
H2439 C2415 0.949 . S
H2440 C2417 0.950 . S
H2441 C2419 0.950 . S
C2442 C2443 1.349 . S
C2442 C2444 1.327 . S
C2442 H2467 0.950 . S
C2443 C2442 1.349 . S
C2443 C2459 1.349 . S
C2444 C2442 1.327 . S
C2444 C2463 1.429 . S
C2444 H2468 0.950 . S
C2445 C2462 1.574 . S
C2445 C2464 1.368 . S
C2445 H2469 0.949 . S
H2446 C2450 0.949 . S
C2447 C2448 1.349 . S
C2447 C2449 1.327 . S
C2447 H2470 0.950 . S
C2448 C2447 1.349 . S
C2448 C2460 1.349 . S
C2449 C2447 1.327 . S
C2449 C2465 1.429 . S
C2449 H2471 0.950 . S
C2450 H2446 0.949 . S
C2450 C2458 1.574 . S
C2450 C2466 1.368 . S
H2451 C2459 0.950 . S
H2452 C2457 0.950 . S
H2453 C2458 0.949 . S
H2454 C2460 0.950 . S
H2455 C2461 0.950 . S
H2456 C2462 0.949 . S
C2457 H2452 0.950 . S
C2457 C2459 1.327 . S
C2457 C2463 1.429 . S
C2458 C2450 1.574 . S
C2458 H2453 0.949 . S
C2458 C2464 1.368 . S
C2459 C2443 1.349 . S
C2459 H2451 0.950 . S
C2459 C2457 1.327 . S
C2460 C2448 1.349 . S
C2460 H2454 0.950 . S
C2460 C2461 1.327 . S
C2461 H2455 0.950 . S
C2461 C2460 1.327 . S
C2461 C2465 1.429 . S
C2462 C2445 1.574 . S
C2462 H2456 0.949 . S
C2462 C2466 1.368 . S
C2463 C2444 1.429 . S
C2463 C2457 1.429 . S
C2463 C2464 1.523 . S
C2464 C2445 1.368 . S
C2464 C2458 1.368 . S
C2464 C2463 1.523 . S
C2465 C2449 1.429 . S
C2465 C2461 1.429 . S
C2465 C2466 1.523 . S
C2466 C2450 1.368 . S
C2466 C2462 1.368 . S
C2466 C2465 1.523 . S
H2467 C2442 0.950 . S
H2468 C2444 0.950 . S
H2469 C2445 0.949 . S
H2470 C2447 0.950 . S
H2471 C2449 0.950 . S
C2472 C2473 1.349 . S
C2472 C2474 1.327 . S
C2472 H2497 0.950 . S
C2473 C2472 1.349 . S
C2473 C2489 1.349 . S
C2474 C2472 1.327 . S
C2474 C2493 1.429 . S
C2474 H2498 0.950 . S
C2475 C2492 1.574 . S
C2475 C2494 1.368 . S
C2475 H2499 0.949 . S
H2476 C2480 0.949 . S
C2477 C2478 1.349 . S
C2477 C2479 1.327 . S
C2477 H2500 0.950 . S
C2478 C2477 1.349 . S
C2478 C2490 1.349 . S
C2479 C2477 1.327 . S
C2479 C2495 1.429 . S
C2479 H2501 0.950 . S
C2480 H2476 0.949 . S
C2480 C2488 1.574 . S
C2480 C2496 1.368 . S
H2481 C2489 0.950 . S
H2482 C2487 0.950 . S
H2483 C2488 0.949 . S
H2484 C2490 0.950 . S
H2485 C2491 0.950 . S
H2486 C2492 0.949 . S
C2487 H2482 0.950 . S
C2487 C2489 1.327 . S
C2487 C2493 1.429 . S
C2488 C2480 1.574 . S
C2488 H2483 0.949 . S
C2488 C2494 1.368 . S
C2489 C2473 1.349 . S
C2489 H2481 0.950 . S
C2489 C2487 1.327 . S
C2490 C2478 1.349 . S
C2490 H2484 0.950 . S
C2490 C2491 1.327 . S
C2491 H2485 0.950 . S
C2491 C2490 1.327 . S
C2491 C2495 1.429 . S
C2492 C2475 1.574 . S
C2492 H2486 0.949 . S
C2492 C2496 1.368 . S
C2493 C2474 1.429 . S
C2493 C2487 1.429 . S
C2493 C2494 1.523 . S
C2494 C2475 1.368 . S
C2494 C2488 1.368 . S
C2494 C2493 1.523 . S
C2495 C2479 1.429 . S
C2495 C2491 1.429 . S
C2495 C2496 1.523 . S
C2496 C2480 1.368 . S
C2496 C2492 1.368 . S
C2496 C2495 1.523 . S
H2497 C2472 0.950 . S
H2498 C2474 0.950 . S
H2499 C2475 0.949 . S
H2500 C2477 0.950 . S
H2501 C2479 0.950 . S
C2502 C2503 1.349 . S
C2502 C2504 1.327 . S
C2502 H2527 0.950 . S
C2503 C2502 1.349 . S
C2503 C2519 1.349 . S
C2504 C2502 1.327 . S
C2504 C2523 1.429 . S
C2504 H2528 0.950 . S
C2505 C2522 1.574 . S
C2505 C2524 1.368 . S
C2505 H2529 0.949 . S
H2506 C2510 0.949 . S
C2507 C2508 1.349 . S
C2507 C2509 1.327 . S
C2507 H2530 0.950 . S
C2508 C2507 1.349 . S
C2508 C2520 1.349 . S
C2509 C2507 1.327 . S
C2509 C2525 1.429 . S
C2509 H2531 0.950 . S
C2510 H2506 0.949 . S
C2510 C2518 1.574 . S
C2510 C2526 1.368 . S
H2511 C2519 0.950 . S
H2512 C2517 0.950 . S
H2513 C2518 0.949 . S
H2514 C2520 0.950 . S
H2515 C2521 0.950 . S
H2516 C2522 0.949 . S
C2517 H2512 0.950 . S
C2517 C2519 1.327 . S
C2517 C2523 1.429 . S
C2518 C2510 1.574 . S
C2518 H2513 0.949 . S
C2518 C2524 1.368 . S
C2519 C2503 1.349 . S
C2519 H2511 0.950 . S
C2519 C2517 1.327 . S
C2520 C2508 1.349 . S
C2520 H2514 0.950 . S
C2520 C2521 1.327 . S
C2521 H2515 0.950 . S
C2521 C2520 1.327 . S
C2521 C2525 1.429 . S
C2522 C2505 1.574 . S
C2522 H2516 0.949 . S
C2522 C2526 1.368 . S
C2523 C2504 1.429 . S
C2523 C2517 1.429 . S
C2523 C2524 1.523 . S
C2524 C2505 1.368 . S
C2524 C2518 1.368 . S
C2524 C2523 1.523 . S
C2525 C2509 1.429 . S
C2525 C2521 1.429 . S
C2525 C2526 1.523 . S
C2526 C2510 1.368 . S
C2526 C2522 1.368 . S
C2526 C2525 1.523 . S
H2527 C2502 0.950 . S
H2528 C2504 0.950 . S
H2529 C2505 0.949 . S
H2530 C2507 0.950 . S
H2531 C2509 0.950 . S
C2532 C2533 1.349 . S
C2532 C2534 1.327 . S
C2532 H2557 0.950 . S
C2533 C2532 1.349 . S
C2533 C2549 1.349 . S
C2534 C2532 1.327 . S
C2534 C2553 1.429 . S
C2534 H2558 0.950 . S
C2535 C2552 1.574 . S
C2535 C2554 1.368 . S
C2535 H2559 0.949 . S
H2536 C2540 0.949 . S
C2537 C2538 1.349 . S
C2537 C2539 1.327 . S
C2537 H2560 0.950 . S
C2538 C2537 1.349 . S
C2538 C2550 1.349 . S
C2539 C2537 1.327 . S
C2539 C2555 1.429 . S
C2539 H2561 0.950 . S
C2540 H2536 0.949 . S
C2540 C2548 1.574 . S
C2540 C2556 1.368 . S
H2541 C2549 0.950 . S
H2542 C2547 0.950 . S
H2543 C2548 0.949 . S
H2544 C2550 0.950 . S
H2545 C2551 0.950 . S
H2546 C2552 0.949 . S
C2547 H2542 0.950 . S
C2547 C2549 1.327 . S
C2547 C2553 1.429 . S
C2548 C2540 1.574 . S
C2548 H2543 0.949 . S
C2548 C2554 1.368 . S
C2549 C2533 1.349 . S
C2549 H2541 0.950 . S
C2549 C2547 1.327 . S
C2550 C2538 1.349 . S
C2550 H2544 0.950 . S
C2550 C2551 1.327 . S
C2551 H2545 0.950 . S
C2551 C2550 1.327 . S
C2551 C2555 1.429 . S
C2552 C2535 1.574 . S
C2552 H2546 0.949 . S
C2552 C2556 1.368 . S
C2553 C2534 1.429 . S
C2553 C2547 1.429 . S
C2553 C2554 1.523 . S
C2554 C2535 1.368 . S
C2554 C2548 1.368 . S
C2554 C2553 1.523 . S
C2555 C2539 1.429 . S
C2555 C2551 1.429 . S
C2555 C2556 1.523 . S
C2556 C2540 1.368 . S
C2556 C2552 1.368 . S
C2556 C2555 1.523 . S
H2557 C2532 0.950 . S
H2558 C2534 0.950 . S
H2559 C2535 0.949 . S
H2560 C2537 0.950 . S
H2561 C2539 0.950 . S
C2562 C2563 1.349 . S
C2562 C2564 1.327 . S
C2562 H2587 0.950 . S
C2563 C2562 1.349 . S
C2563 C2579 1.349 . S
C2564 C2562 1.327 . S
C2564 C2583 1.429 . S
C2564 H2588 0.950 . S
C2565 C2582 1.574 . S
C2565 C2584 1.368 . S
C2565 H2589 0.949 . S
H2566 C2570 0.949 . S
C2567 C2568 1.349 . S
C2567 C2569 1.327 . S
C2567 H2590 0.950 . S
C2568 C2567 1.349 . S
C2568 C2580 1.349 . S
C2569 C2567 1.327 . S
C2569 C2585 1.429 . S
C2569 H2591 0.950 . S
C2570 H2566 0.949 . S
C2570 C2578 1.574 . S
C2570 C2586 1.368 . S
H2571 C2579 0.950 . S
H2572 C2577 0.950 . S
H2573 C2578 0.949 . S
H2574 C2580 0.950 . S
H2575 C2581 0.950 . S
H2576 C2582 0.949 . S
C2577 H2572 0.950 . S
C2577 C2579 1.327 . S
C2577 C2583 1.429 . S
C2578 C2570 1.574 . S
C2578 H2573 0.949 . S
C2578 C2584 1.368 . S
C2579 C2563 1.349 . S
C2579 H2571 0.950 . S
C2579 C2577 1.327 . S
C2580 C2568 1.349 . S
C2580 H2574 0.950 . S
C2580 C2581 1.327 . S
C2581 H2575 0.950 . S
C2581 C2580 1.327 . S
C2581 C2585 1.429 . S
C2582 C2565 1.574 . S
C2582 H2576 0.949 . S
C2582 C2586 1.368 . S
C2583 C2564 1.429 . S
C2583 C2577 1.429 . S
C2583 C2584 1.523 . S
C2584 C2565 1.368 . S
C2584 C2578 1.368 . S
C2584 C2583 1.523 . S
C2585 C2569 1.429 . S
C2585 C2581 1.429 . S
C2585 C2586 1.523 . S
C2586 C2570 1.368 . S
C2586 C2582 1.368 . S
C2586 C2585 1.523 . S
H2587 C2562 0.950 . S
H2588 C2564 0.950 . S
H2589 C2565 0.949 . S
H2590 C2567 0.950 . S
H2591 C2569 0.950 . S
C2592 C2593 1.349 . S
C2592 C2594 1.327 . S
C2592 H2617 0.950 . S
C2593 C2592 1.349 . S
C2593 C2609 1.349 . S
C2594 C2592 1.327 . S
C2594 C2613 1.429 . S
C2594 H2618 0.950 . S
C2595 C2612 1.574 . S
C2595 C2614 1.368 . S
C2595 H2619 0.949 . S
H2596 C2600 0.949 . S
C2597 C2598 1.349 . S
C2597 C2599 1.327 . S
C2597 H2620 0.950 . S
C2598 C2597 1.349 . S
C2598 C2610 1.349 . S
C2599 C2597 1.327 . S
C2599 C2615 1.429 . S
C2599 H2621 0.950 . S
C2600 H2596 0.949 . S
C2600 C2608 1.574 . S
C2600 C2616 1.368 . S
H2601 C2609 0.950 . S
H2602 C2607 0.950 . S
H2603 C2608 0.949 . S
H2604 C2610 0.950 . S
H2605 C2611 0.950 . S
H2606 C2612 0.949 . S
C2607 H2602 0.950 . S
C2607 C2609 1.327 . S
C2607 C2613 1.429 . S
C2608 C2600 1.574 . S
C2608 H2603 0.949 . S
C2608 C2614 1.368 . S
C2609 C2593 1.349 . S
C2609 H2601 0.950 . S
C2609 C2607 1.327 . S
C2610 C2598 1.349 . S
C2610 H2604 0.950 . S
C2610 C2611 1.327 . S
C2611 H2605 0.950 . S
C2611 C2610 1.327 . S
C2611 C2615 1.429 . S
C2612 C2595 1.574 . S
C2612 H2606 0.949 . S
C2612 C2616 1.368 . S
C2613 C2594 1.429 . S
C2613 C2607 1.429 . S
C2613 C2614 1.523 . S
C2614 C2595 1.368 . S
C2614 C2608 1.368 . S
C2614 C2613 1.523 . S
C2615 C2599 1.429 . S
C2615 C2611 1.429 . S
C2615 C2616 1.523 . S
C2616 C2600 1.368 . S
C2616 C2612 1.368 . S
C2616 C2615 1.523 . S
H2617 C2592 0.950 . S
H2618 C2594 0.950 . S
H2619 C2595 0.949 . S
H2620 C2597 0.950 . S
H2621 C2599 0.950 . S
C2622 C2623 1.349 . S
C2622 C2624 1.327 . S
C2622 H2647 0.950 . S
C2623 C2622 1.349 . S
C2623 C2639 1.349 . S
C2624 C2622 1.327 . S
C2624 C2643 1.429 . S
C2624 H2648 0.950 . S
C2625 C2642 1.574 . S
C2625 C2644 1.368 . S
C2625 H2649 0.949 . S
H2626 C2630 0.949 . S
C2627 C2628 1.349 . S
C2627 C2629 1.327 . S
C2627 H2650 0.950 . S
C2628 C2627 1.349 . S
C2628 C2640 1.349 . S
C2629 C2627 1.327 . S
C2629 C2645 1.429 . S
C2629 H2651 0.950 . S
C2630 H2626 0.949 . S
C2630 C2638 1.574 . S
C2630 C2646 1.368 . S
H2631 C2639 0.950 . S
H2632 C2637 0.950 . S
H2633 C2638 0.949 . S
H2634 C2640 0.950 . S
H2635 C2641 0.950 . S
H2636 C2642 0.949 . S
C2637 H2632 0.950 . S
C2637 C2639 1.327 . S
C2637 C2643 1.429 . S
C2638 C2630 1.574 . S
C2638 H2633 0.949 . S
C2638 C2644 1.368 . S
C2639 C2623 1.349 . S
C2639 H2631 0.950 . S
C2639 C2637 1.327 . S
C2640 C2628 1.349 . S
C2640 H2634 0.950 . S
C2640 C2641 1.327 . S
C2641 H2635 0.950 . S
C2641 C2640 1.327 . S
C2641 C2645 1.429 . S
C2642 C2625 1.574 . S
C2642 H2636 0.949 . S
C2642 C2646 1.368 . S
C2643 C2624 1.429 . S
C2643 C2637 1.429 . S
C2643 C2644 1.523 . S
C2644 C2625 1.368 . S
C2644 C2638 1.368 . S
C2644 C2643 1.523 . S
C2645 C2629 1.429 . S
C2645 C2641 1.429 . S
C2645 C2646 1.523 . S
C2646 C2630 1.368 . S
C2646 C2642 1.368 . S
C2646 C2645 1.523 . S
H2647 C2622 0.950 . S
H2648 C2624 0.950 . S
H2649 C2625 0.949 . S
H2650 C2627 0.950 . S
H2651 C2629 0.950 . S
C2652 C2653 1.349 . S
C2652 C2654 1.327 . S
C2652 H2677 0.950 . S
C2653 C2652 1.349 . S
C2653 C2669 1.349 . S
C2654 C2652 1.327 . S
C2654 C2673 1.429 . S
C2654 H2678 0.950 . S
C2655 C2672 1.574 . S
C2655 C2674 1.368 . S
C2655 H2679 0.949 . S
H2656 C2660 0.949 . S
C2657 C2658 1.349 . S
C2657 C2659 1.327 . S
C2657 H2680 0.950 . S
C2658 C2657 1.349 . S
C2658 C2670 1.349 . S
C2659 C2657 1.327 . S
C2659 C2675 1.429 . S
C2659 H2681 0.950 . S
C2660 H2656 0.949 . S
C2660 C2668 1.574 . S
C2660 C2676 1.368 . S
H2661 C2669 0.950 . S
H2662 C2667 0.950 . S
H2663 C2668 0.949 . S
H2664 C2670 0.950 . S
H2665 C2671 0.950 . S
H2666 C2672 0.949 . S
C2667 H2662 0.950 . S
C2667 C2669 1.327 . S
C2667 C2673 1.429 . S
C2668 C2660 1.574 . S
C2668 H2663 0.949 . S
C2668 C2674 1.368 . S
C2669 C2653 1.349 . S
C2669 H2661 0.950 . S
C2669 C2667 1.327 . S
C2670 C2658 1.349 . S
C2670 H2664 0.950 . S
C2670 C2671 1.327 . S
C2671 H2665 0.950 . S
C2671 C2670 1.327 . S
C2671 C2675 1.429 . S
C2672 C2655 1.574 . S
C2672 H2666 0.949 . S
C2672 C2676 1.368 . S
C2673 C2654 1.429 . S
C2673 C2667 1.429 . S
C2673 C2674 1.523 . S
C2674 C2655 1.368 . S
C2674 C2668 1.368 . S
C2674 C2673 1.523 . S
C2675 C2659 1.429 . S
C2675 C2671 1.429 . S
C2675 C2676 1.523 . S
C2676 C2660 1.368 . S
C2676 C2672 1.368 . S
C2676 C2675 1.523 . S
H2677 C2652 0.950 . S
H2678 C2654 0.950 . S
H2679 C2655 0.949 . S
H2680 C2657 0.950 . S
H2681 C2659 0.950 . S
C2682 C2683 1.349 . S
C2682 C2684 1.327 . S
C2682 H2707 0.950 . S
C2683 C2682 1.349 . S
C2683 C2699 1.349 . S
C2684 C2682 1.327 . S
C2684 C2703 1.429 . S
C2684 H2708 0.950 . S
C2685 C2702 1.574 . S
C2685 C2704 1.368 . S
C2685 H2709 0.949 . S
H2686 C2690 0.949 . S
C2687 C2688 1.349 . S
C2687 C2689 1.327 . S
C2687 H2710 0.950 . S
C2688 C2687 1.349 . S
C2688 C2700 1.349 . S
C2689 C2687 1.327 . S
C2689 C2705 1.429 . S
C2689 H2711 0.950 . S
C2690 H2686 0.949 . S
C2690 C2698 1.574 . S
C2690 C2706 1.368 . S
H2691 C2699 0.950 . S
H2692 C2697 0.950 . S
H2693 C2698 0.949 . S
H2694 C2700 0.950 . S
H2695 C2701 0.950 . S
H2696 C2702 0.949 . S
C2697 H2692 0.950 . S
C2697 C2699 1.327 . S
C2697 C2703 1.429 . S
C2698 C2690 1.574 . S
C2698 H2693 0.949 . S
C2698 C2704 1.368 . S
C2699 C2683 1.349 . S
C2699 H2691 0.950 . S
C2699 C2697 1.327 . S
C2700 C2688 1.349 . S
C2700 H2694 0.950 . S
C2700 C2701 1.327 . S
C2701 H2695 0.950 . S
C2701 C2700 1.327 . S
C2701 C2705 1.429 . S
C2702 C2685 1.574 . S
C2702 H2696 0.949 . S
C2702 C2706 1.368 . S
C2703 C2684 1.429 . S
C2703 C2697 1.429 . S
C2703 C2704 1.523 . S
C2704 C2685 1.368 . S
C2704 C2698 1.368 . S
C2704 C2703 1.523 . S
C2705 C2689 1.429 . S
C2705 C2701 1.429 . S
C2705 C2706 1.523 . S
C2706 C2690 1.368 . S
C2706 C2702 1.368 . S
C2706 C2705 1.523 . S
H2707 C2682 0.950 . S
H2708 C2684 0.950 . S
H2709 C2685 0.949 . S
H2710 C2687 0.950 . S
H2711 C2689 0.950 . S
C2712 C2713 1.349 . S
C2712 C2714 1.327 . S
C2712 H2737 0.950 . S
C2713 C2712 1.349 . S
C2713 C2729 1.349 . S
C2714 C2712 1.327 . S
C2714 C2733 1.429 . S
C2714 H2738 0.950 . S
C2715 C2732 1.574 . S
C2715 C2734 1.368 . S
C2715 H2739 0.949 . S
H2716 C2720 0.949 . S
C2717 C2718 1.349 . S
C2717 C2719 1.327 . S
C2717 H2740 0.950 . S
C2718 C2717 1.349 . S
C2718 C2730 1.349 . S
C2719 C2717 1.327 . S
C2719 C2735 1.429 . S
C2719 H2741 0.950 . S
C2720 H2716 0.949 . S
C2720 C2728 1.574 . S
C2720 C2736 1.368 . S
H2721 C2729 0.950 . S
H2722 C2727 0.950 . S
H2723 C2728 0.949 . S
H2724 C2730 0.950 . S
H2725 C2731 0.950 . S
H2726 C2732 0.949 . S
C2727 H2722 0.950 . S
C2727 C2729 1.327 . S
C2727 C2733 1.429 . S
C2728 C2720 1.574 . S
C2728 H2723 0.949 . S
C2728 C2734 1.368 . S
C2729 C2713 1.349 . S
C2729 H2721 0.950 . S
C2729 C2727 1.327 . S
C2730 C2718 1.349 . S
C2730 H2724 0.950 . S
C2730 C2731 1.327 . S
C2731 H2725 0.950 . S
C2731 C2730 1.327 . S
C2731 C2735 1.429 . S
C2732 C2715 1.574 . S
C2732 H2726 0.949 . S
C2732 C2736 1.368 . S
C2733 C2714 1.429 . S
C2733 C2727 1.429 . S
C2733 C2734 1.523 . S
C2734 C2715 1.368 . S
C2734 C2728 1.368 . S
C2734 C2733 1.523 . S
C2735 C2719 1.429 . S
C2735 C2731 1.429 . S
C2735 C2736 1.523 . S
C2736 C2720 1.368 . S
C2736 C2732 1.368 . S
C2736 C2735 1.523 . S
H2737 C2712 0.950 . S
H2738 C2714 0.950 . S
H2739 C2715 0.949 . S
H2740 C2717 0.950 . S
H2741 C2719 0.950 . S
C2742 C2743 1.349 . S
C2742 C2744 1.327 . S
C2742 H2767 0.950 . S
C2743 C2742 1.349 . S
C2743 C2759 1.349 . S
C2744 C2742 1.327 . S
C2744 C2763 1.429 . S
C2744 H2768 0.950 . S
C2745 C2762 1.574 . S
C2745 C2764 1.368 . S
C2745 H2769 0.949 . S
H2746 C2750 0.949 . S
C2747 C2748 1.349 . S
C2747 C2749 1.327 . S
C2747 H2770 0.950 . S
C2748 C2747 1.349 . S
C2748 C2760 1.349 . S
C2749 C2747 1.327 . S
C2749 C2765 1.429 . S
C2749 H2771 0.950 . S
C2750 H2746 0.949 . S
C2750 C2758 1.574 . S
C2750 C2766 1.368 . S
H2751 C2759 0.950 . S
H2752 C2757 0.950 . S
H2753 C2758 0.949 . S
H2754 C2760 0.950 . S
H2755 C2761 0.950 . S
H2756 C2762 0.949 . S
C2757 H2752 0.950 . S
C2757 C2759 1.327 . S
C2757 C2763 1.429 . S
C2758 C2750 1.574 . S
C2758 H2753 0.949 . S
C2758 C2764 1.368 . S
C2759 C2743 1.349 . S
C2759 H2751 0.950 . S
C2759 C2757 1.327 . S
C2760 C2748 1.349 . S
C2760 H2754 0.950 . S
C2760 C2761 1.327 . S
C2761 H2755 0.950 . S
C2761 C2760 1.327 . S
C2761 C2765 1.429 . S
C2762 C2745 1.574 . S
C2762 H2756 0.949 . S
C2762 C2766 1.368 . S
C2763 C2744 1.429 . S
C2763 C2757 1.429 . S
C2763 C2764 1.523 . S
C2764 C2745 1.368 . S
C2764 C2758 1.368 . S
C2764 C2763 1.523 . S
C2765 C2749 1.429 . S
C2765 C2761 1.429 . S
C2765 C2766 1.523 . S
C2766 C2750 1.368 . S
C2766 C2762 1.368 . S
C2766 C2765 1.523 . S
H2767 C2742 0.950 . S
H2768 C2744 0.950 . S
H2769 C2745 0.949 . S
H2770 C2747 0.950 . S
H2771 C2749 0.950 . S
C2772 C2773 1.349 . S
C2772 C2774 1.327 . S
C2772 H2797 0.950 . S
C2773 C2772 1.349 . S
C2773 C2789 1.349 . S
C2774 C2772 1.327 . S
C2774 C2793 1.429 . S
C2774 H2798 0.950 . S
C2775 C2792 1.574 . S
C2775 C2794 1.368 . S
C2775 H2799 0.949 . S
H2776 C2780 0.949 . S
C2777 C2778 1.349 . S
C2777 C2779 1.327 . S
C2777 H2800 0.950 . S
C2778 C2777 1.349 . S
C2778 C2790 1.349 . S
C2779 C2777 1.327 . S
C2779 C2795 1.429 . S
C2779 H2801 0.950 . S
C2780 H2776 0.949 . S
C2780 C2788 1.574 . S
C2780 C2796 1.368 . S
H2781 C2789 0.950 . S
H2782 C2787 0.950 . S
H2783 C2788 0.949 . S
H2784 C2790 0.950 . S
H2785 C2791 0.950 . S
H2786 C2792 0.949 . S
C2787 H2782 0.950 . S
C2787 C2789 1.327 . S
C2787 C2793 1.429 . S
C2788 C2780 1.574 . S
C2788 H2783 0.949 . S
C2788 C2794 1.368 . S
C2789 C2773 1.349 . S
C2789 H2781 0.950 . S
C2789 C2787 1.327 . S
C2790 C2778 1.349 . S
C2790 H2784 0.950 . S
C2790 C2791 1.327 . S
C2791 H2785 0.950 . S
C2791 C2790 1.327 . S
C2791 C2795 1.429 . S
C2792 C2775 1.574 . S
C2792 H2786 0.949 . S
C2792 C2796 1.368 . S
C2793 C2774 1.429 . S
C2793 C2787 1.429 . S
C2793 C2794 1.523 . S
C2794 C2775 1.368 . S
C2794 C2788 1.368 . S
C2794 C2793 1.523 . S
C2795 C2779 1.429 . S
C2795 C2791 1.429 . S
C2795 C2796 1.523 . S
C2796 C2780 1.368 . S
C2796 C2792 1.368 . S
C2796 C2795 1.523 . S
H2797 C2772 0.950 . S
H2798 C2774 0.950 . S
H2799 C2775 0.949 . S
H2800 C2777 0.950 . S
H2801 C2779 0.950 . S
C2802 C2803 1.349 . S
C2802 C2804 1.327 . S
C2802 H2827 0.950 . S
C2803 C2802 1.349 . S
C2803 C2819 1.349 . S
C2804 C2802 1.327 . S
C2804 C2823 1.429 . S
C2804 H2828 0.950 . S
C2805 C2822 1.574 . S
C2805 C2824 1.368 . S
C2805 H2829 0.949 . S
H2806 C2810 0.949 . S
C2807 C2808 1.349 . S
C2807 C2809 1.327 . S
C2807 H2830 0.950 . S
C2808 C2807 1.349 . S
C2808 C2820 1.349 . S
C2809 C2807 1.327 . S
C2809 C2825 1.429 . S
C2809 H2831 0.950 . S
C2810 H2806 0.949 . S
C2810 C2818 1.574 . S
C2810 C2826 1.368 . S
H2811 C2819 0.950 . S
H2812 C2817 0.950 . S
H2813 C2818 0.949 . S
H2814 C2820 0.950 . S
H2815 C2821 0.950 . S
H2816 C2822 0.949 . S
C2817 H2812 0.950 . S
C2817 C2819 1.327 . S
C2817 C2823 1.429 . S
C2818 C2810 1.574 . S
C2818 H2813 0.949 . S
C2818 C2824 1.368 . S
C2819 C2803 1.349 . S
C2819 H2811 0.950 . S
C2819 C2817 1.327 . S
C2820 C2808 1.349 . S
C2820 H2814 0.950 . S
C2820 C2821 1.327 . S
C2821 H2815 0.950 . S
C2821 C2820 1.327 . S
C2821 C2825 1.429 . S
C2822 C2805 1.574 . S
C2822 H2816 0.949 . S
C2822 C2826 1.368 . S
C2823 C2804 1.429 . S
C2823 C2817 1.429 . S
C2823 C2824 1.523 . S
C2824 C2805 1.368 . S
C2824 C2818 1.368 . S
C2824 C2823 1.523 . S
C2825 C2809 1.429 . S
C2825 C2821 1.429 . S
C2825 C2826 1.523 . S
C2826 C2810 1.368 . S
C2826 C2822 1.368 . S
C2826 C2825 1.523 . S
H2827 C2802 0.950 . S
H2828 C2804 0.950 . S
H2829 C2805 0.949 . S
H2830 C2807 0.950 . S
H2831 C2809 0.950 . S
C2832 C2833 1.349 . S
C2832 C2834 1.327 . S
C2832 H2857 0.950 . S
C2833 C2832 1.349 . S
C2833 C2849 1.349 . S
C2834 C2832 1.327 . S
C2834 C2853 1.429 . S
C2834 H2858 0.950 . S
C2835 C2852 1.574 . S
C2835 C2854 1.368 . S
C2835 H2859 0.949 . S
H2836 C2840 0.949 . S
C2837 C2838 1.349 . S
C2837 C2839 1.327 . S
C2837 H2860 0.950 . S
C2838 C2837 1.349 . S
C2838 C2850 1.349 . S
C2839 C2837 1.327 . S
C2839 C2855 1.429 . S
C2839 H2861 0.950 . S
C2840 H2836 0.949 . S
C2840 C2848 1.574 . S
C2840 C2856 1.368 . S
H2841 C2849 0.950 . S
H2842 C2847 0.950 . S
H2843 C2848 0.949 . S
H2844 C2850 0.950 . S
H2845 C2851 0.950 . S
H2846 C2852 0.949 . S
C2847 H2842 0.950 . S
C2847 C2849 1.327 . S
C2847 C2853 1.429 . S
C2848 C2840 1.574 . S
C2848 H2843 0.949 . S
C2848 C2854 1.368 . S
C2849 C2833 1.349 . S
C2849 H2841 0.950 . S
C2849 C2847 1.327 . S
C2850 C2838 1.349 . S
C2850 H2844 0.950 . S
C2850 C2851 1.327 . S
C2851 H2845 0.950 . S
C2851 C2850 1.327 . S
C2851 C2855 1.429 . S
C2852 C2835 1.574 . S
C2852 H2846 0.949 . S
C2852 C2856 1.368 . S
C2853 C2834 1.429 . S
C2853 C2847 1.429 . S
C2853 C2854 1.523 . S
C2854 C2835 1.368 . S
C2854 C2848 1.368 . S
C2854 C2853 1.523 . S
C2855 C2839 1.429 . S
C2855 C2851 1.429 . S
C2855 C2856 1.523 . S
C2856 C2840 1.368 . S
C2856 C2852 1.368 . S
C2856 C2855 1.523 . S
H2857 C2832 0.950 . S
H2858 C2834 0.950 . S
H2859 C2835 0.949 . S
H2860 C2837 0.950 . S
H2861 C2839 0.950 . S
C2862 C2863 1.349 . S
C2862 C2864 1.327 . S
C2862 H2887 0.950 . S
C2863 C2862 1.349 . S
C2863 C2879 1.349 . S
C2864 C2862 1.327 . S
C2864 C2883 1.429 . S
C2864 H2888 0.950 . S
C2865 C2882 1.574 . S
C2865 C2884 1.368 . S
C2865 H2889 0.949 . S
H2866 C2870 0.949 . S
C2867 C2868 1.349 . S
C2867 C2869 1.327 . S
C2867 H2890 0.950 . S
C2868 C2867 1.349 . S
C2868 C2880 1.349 . S
C2869 C2867 1.327 . S
C2869 C2885 1.429 . S
C2869 H2891 0.950 . S
C2870 H2866 0.949 . S
C2870 C2878 1.574 . S
C2870 C2886 1.368 . S
H2871 C2879 0.950 . S
H2872 C2877 0.950 . S
H2873 C2878 0.949 . S
H2874 C2880 0.950 . S
H2875 C2881 0.950 . S
H2876 C2882 0.949 . S
C2877 H2872 0.950 . S
C2877 C2879 1.327 . S
C2877 C2883 1.429 . S
C2878 C2870 1.574 . S
C2878 H2873 0.949 . S
C2878 C2884 1.368 . S
C2879 C2863 1.349 . S
C2879 H2871 0.950 . S
C2879 C2877 1.327 . S
C2880 C2868 1.349 . S
C2880 H2874 0.950 . S
C2880 C2881 1.327 . S
C2881 H2875 0.950 . S
C2881 C2880 1.327 . S
C2881 C2885 1.429 . S
C2882 C2865 1.574 . S
C2882 H2876 0.949 . S
C2882 C2886 1.368 . S
C2883 C2864 1.429 . S
C2883 C2877 1.429 . S
C2883 C2884 1.523 . S
C2884 C2865 1.368 . S
C2884 C2878 1.368 . S
C2884 C2883 1.523 . S
C2885 C2869 1.429 . S
C2885 C2881 1.429 . S
C2885 C2886 1.523 . S
C2886 C2870 1.368 . S
C2886 C2882 1.368 . S
C2886 C2885 1.523 . S
H2887 C2862 0.950 . S
H2888 C2864 0.950 . S
H2889 C2865 0.949 . S
H2890 C2867 0.950 . S
H2891 C2869 0.950 . S
C2892 C2893 1.349 . S
C2892 C2894 1.327 . S
C2892 H2917 0.950 . S
C2893 C2892 1.349 . S
C2893 C2909 1.349 . S
C2894 C2892 1.327 . S
C2894 C2913 1.429 . S
C2894 H2918 0.950 . S
C2895 C2912 1.574 . S
C2895 C2914 1.368 . S
C2895 H2919 0.949 . S
H2896 C2900 0.949 . S
C2897 C2898 1.349 . S
C2897 C2899 1.327 . S
C2897 H2920 0.950 . S
C2898 C2897 1.349 . S
C2898 C2910 1.349 . S
C2899 C2897 1.327 . S
C2899 C2915 1.429 . S
C2899 H2921 0.950 . S
C2900 H2896 0.949 . S
C2900 C2908 1.574 . S
C2900 C2916 1.368 . S
H2901 C2909 0.950 . S
H2902 C2907 0.950 . S
H2903 C2908 0.949 . S
H2904 C2910 0.950 . S
H2905 C2911 0.950 . S
H2906 C2912 0.949 . S
C2907 H2902 0.950 . S
C2907 C2909 1.327 . S
C2907 C2913 1.429 . S
C2908 C2900 1.574 . S
C2908 H2903 0.949 . S
C2908 C2914 1.368 . S
C2909 C2893 1.349 . S
C2909 H2901 0.950 . S
C2909 C2907 1.327 . S
C2910 C2898 1.349 . S
C2910 H2904 0.950 . S
C2910 C2911 1.327 . S
C2911 H2905 0.950 . S
C2911 C2910 1.327 . S
C2911 C2915 1.429 . S
C2912 C2895 1.574 . S
C2912 H2906 0.949 . S
C2912 C2916 1.368 . S
C2913 C2894 1.429 . S
C2913 C2907 1.429 . S
C2913 C2914 1.523 . S
C2914 C2895 1.368 . S
C2914 C2908 1.368 . S
C2914 C2913 1.523 . S
C2915 C2899 1.429 . S
C2915 C2911 1.429 . S
C2915 C2916 1.523 . S
C2916 C2900 1.368 . S
C2916 C2912 1.368 . S
C2916 C2915 1.523 . S
H2917 C2892 0.950 . S
H2918 C2894 0.950 . S
H2919 C2895 0.949 . S
H2920 C2897 0.950 . S
H2921 C2899 0.950 . S
C2922 C2923 1.349 . S
C2922 C2924 1.327 . S
C2922 H2947 0.950 . S
C2923 C2922 1.349 . S
C2923 C2939 1.349 . S
C2924 C2922 1.327 . S
C2924 C2943 1.429 . S
C2924 H2948 0.950 . S
C2925 C2942 1.574 . S
C2925 C2944 1.368 . S
C2925 H2949 0.949 . S
H2926 C2930 0.949 . S
C2927 C2928 1.349 . S
C2927 C2929 1.327 . S
C2927 H2950 0.950 . S
C2928 C2927 1.349 . S
C2928 C2940 1.349 . S
C2929 C2927 1.327 . S
C2929 C2945 1.429 . S
C2929 H2951 0.950 . S
C2930 H2926 0.949 . S
C2930 C2938 1.574 . S
C2930 C2946 1.368 . S
H2931 C2939 0.950 . S
H2932 C2937 0.950 . S
H2933 C2938 0.949 . S
H2934 C2940 0.950 . S
H2935 C2941 0.950 . S
H2936 C2942 0.949 . S
C2937 H2932 0.950 . S
C2937 C2939 1.327 . S
C2937 C2943 1.429 . S
C2938 C2930 1.574 . S
C2938 H2933 0.949 . S
C2938 C2944 1.368 . S
C2939 C2923 1.349 . S
C2939 H2931 0.950 . S
C2939 C2937 1.327 . S
C2940 C2928 1.349 . S
C2940 H2934 0.950 . S
C2940 C2941 1.327 . S
C2941 H2935 0.950 . S
C2941 C2940 1.327 . S
C2941 C2945 1.429 . S
C2942 C2925 1.574 . S
C2942 H2936 0.949 . S
C2942 C2946 1.368 . S
C2943 C2924 1.429 . S
C2943 C2937 1.429 . S
C2943 C2944 1.523 . S
C2944 C2925 1.368 . S
C2944 C2938 1.368 . S
C2944 C2943 1.523 . S
C2945 C2929 1.429 . S
C2945 C2941 1.429 . S
C2945 C2946 1.523 . S
C2946 C2930 1.368 . S
C2946 C2942 1.368 . S
C2946 C2945 1.523 . S
H2947 C2922 0.950 . S
H2948 C2924 0.950 . S
H2949 C2925 0.949 . S
H2950 C2927 0.950 . S
H2951 C2929 0.950 . S
C2952 C2953 1.349 . S
C2952 C2954 1.327 . S
C2952 H2977 0.950 . S
C2953 C2952 1.349 . S
C2953 C2969 1.349 . S
C2954 C2952 1.327 . S
C2954 C2973 1.429 . S
C2954 H2978 0.950 . S
C2955 C2972 1.574 . S
C2955 C2974 1.368 . S
C2955 H2979 0.949 . S
H2956 C2960 0.949 . S
C2957 C2958 1.349 . S
C2957 C2959 1.327 . S
C2957 H2980 0.950 . S
C2958 C2957 1.349 . S
C2958 C2970 1.349 . S
C2959 C2957 1.327 . S
C2959 C2975 1.429 . S
C2959 H2981 0.950 . S
C2960 H2956 0.949 . S
C2960 C2968 1.574 . S
C2960 C2976 1.368 . S
H2961 C2969 0.950 . S
H2962 C2967 0.950 . S
H2963 C2968 0.949 . S
H2964 C2970 0.950 . S
H2965 C2971 0.950 . S
H2966 C2972 0.949 . S
C2967 H2962 0.950 . S
C2967 C2969 1.327 . S
C2967 C2973 1.429 . S
C2968 C2960 1.574 . S
C2968 H2963 0.949 . S
C2968 C2974 1.368 . S
C2969 C2953 1.349 . S
C2969 H2961 0.950 . S
C2969 C2967 1.327 . S
C2970 C2958 1.349 . S
C2970 H2964 0.950 . S
C2970 C2971 1.327 . S
C2971 H2965 0.950 . S
C2971 C2970 1.327 . S
C2971 C2975 1.429 . S
C2972 C2955 1.574 . S
C2972 H2966 0.949 . S
C2972 C2976 1.368 . S
C2973 C2954 1.429 . S
C2973 C2967 1.429 . S
C2973 C2974 1.523 . S
C2974 C2955 1.368 . S
C2974 C2968 1.368 . S
C2974 C2973 1.523 . S
C2975 C2959 1.429 . S
C2975 C2971 1.429 . S
C2975 C2976 1.523 . S
C2976 C2960 1.368 . S
C2976 C2972 1.368 . S
C2976 C2975 1.523 . S
H2977 C2952 0.950 . S
H2978 C2954 0.950 . S
H2979 C2955 0.949 . S
H2980 C2957 0.950 . S
H2981 C2959 0.950 . S
C2982 C2983 1.349 . S
C2982 C2984 1.327 . S
C2982 H3007 0.950 . S
C2983 C2982 1.349 . S
C2983 C2999 1.349 . S
C2984 C2982 1.327 . S
C2984 C3003 1.429 . S
C2984 H3008 0.950 . S
C2985 C3002 1.574 . S
C2985 C3004 1.368 . S
C2985 H3009 0.949 . S
H2986 C2990 0.949 . S
C2987 C2988 1.349 . S
C2987 C2989 1.327 . S
C2987 H3010 0.950 . S
C2988 C2987 1.349 . S
C2988 C3000 1.349 . S
C2989 C2987 1.327 . S
C2989 C3005 1.429 . S
C2989 H3011 0.950 . S
C2990 H2986 0.949 . S
C2990 C2998 1.574 . S
C2990 C3006 1.368 . S
H2991 C2999 0.950 . S
H2992 C2997 0.950 . S
H2993 C2998 0.949 . S
H2994 C3000 0.950 . S
H2995 C3001 0.950 . S
H2996 C3002 0.949 . S
C2997 H2992 0.950 . S
C2997 C2999 1.327 . S
C2997 C3003 1.429 . S
C2998 C2990 1.574 . S
C2998 H2993 0.949 . S
C2998 C3004 1.368 . S
C2999 C2983 1.349 . S
C2999 H2991 0.950 . S
C2999 C2997 1.327 . S
C3000 C2988 1.349 . S
C3000 H2994 0.950 . S
C3000 C3001 1.327 . S
C3001 H2995 0.950 . S
C3001 C3000 1.327 . S
C3001 C3005 1.429 . S
C3002 C2985 1.574 . S
C3002 H2996 0.949 . S
C3002 C3006 1.368 . S
C3003 C2984 1.429 . S
C3003 C2997 1.429 . S
C3003 C3004 1.523 . S
C3004 C2985 1.368 . S
C3004 C2998 1.368 . S
C3004 C3003 1.523 . S
C3005 C2989 1.429 . S
C3005 C3001 1.429 . S
C3005 C3006 1.523 . S
C3006 C2990 1.368 . S
C3006 C3002 1.368 . S
C3006 C3005 1.523 . S
H3007 C2982 0.950 . S
H3008 C2984 0.950 . S
H3009 C2985 0.949 . S
H3010 C2987 0.950 . S
H3011 C2989 0.950 . S
C3012 C3013 1.349 . S
C3012 C3014 1.327 . S
C3012 H3037 0.950 . S
C3013 C3012 1.349 . S
C3013 C3029 1.349 . S
C3014 C3012 1.327 . S
C3014 C3033 1.429 . S
C3014 H3038 0.950 . S
C3015 C3032 1.574 . S
C3015 C3034 1.368 . S
C3015 H3039 0.949 . S
H3016 C3020 0.949 . S
C3017 C3018 1.349 . S
C3017 C3019 1.327 . S
C3017 H3040 0.950 . S
C3018 C3017 1.349 . S
C3018 C3030 1.349 . S
C3019 C3017 1.327 . S
C3019 C3035 1.429 . S
C3019 H3041 0.950 . S
C3020 H3016 0.949 . S
C3020 C3028 1.574 . S
C3020 C3036 1.368 . S
H3021 C3029 0.950 . S
H3022 C3027 0.950 . S
H3023 C3028 0.949 . S
H3024 C3030 0.950 . S
H3025 C3031 0.950 . S
H3026 C3032 0.949 . S
C3027 H3022 0.950 . S
C3027 C3029 1.327 . S
C3027 C3033 1.429 . S
C3028 C3020 1.574 . S
C3028 H3023 0.949 . S
C3028 C3034 1.368 . S
C3029 C3013 1.349 . S
C3029 H3021 0.950 . S
C3029 C3027 1.327 . S
C3030 C3018 1.349 . S
C3030 H3024 0.950 . S
C3030 C3031 1.327 . S
C3031 H3025 0.950 . S
C3031 C3030 1.327 . S
C3031 C3035 1.429 . S
C3032 C3015 1.574 . S
C3032 H3026 0.949 . S
C3032 C3036 1.368 . S
C3033 C3014 1.429 . S
C3033 C3027 1.429 . S
C3033 C3034 1.523 . S
C3034 C3015 1.368 . S
C3034 C3028 1.368 . S
C3034 C3033 1.523 . S
C3035 C3019 1.429 . S
C3035 C3031 1.429 . S
C3035 C3036 1.523 . S
C3036 C3020 1.368 . S
C3036 C3032 1.368 . S
C3036 C3035 1.523 . S
H3037 C3012 0.950 . S
H3038 C3014 0.950 . S
H3039 C3015 0.949 . S
H3040 C3017 0.950 . S
H3041 C3019 0.950 . S
C3042 C3043 1.349 . S
C3042 C3044 1.327 . S
C3042 H3067 0.950 . S
C3043 C3042 1.349 . S
C3043 C3059 1.349 . S
C3044 C3042 1.327 . S
C3044 C3063 1.429 . S
C3044 H3068 0.950 . S
C3045 C3062 1.574 . S
C3045 C3064 1.368 . S
C3045 H3069 0.949 . S
H3046 C3050 0.949 . S
C3047 C3048 1.349 . S
C3047 C3049 1.327 . S
C3047 H3070 0.950 . S
C3048 C3047 1.349 . S
C3048 C3060 1.349 . S
C3049 C3047 1.327 . S
C3049 C3065 1.429 . S
C3049 H3071 0.950 . S
C3050 H3046 0.949 . S
C3050 C3058 1.574 . S
C3050 C3066 1.368 . S
H3051 C3059 0.950 . S
H3052 C3057 0.950 . S
H3053 C3058 0.949 . S
H3054 C3060 0.950 . S
H3055 C3061 0.950 . S
H3056 C3062 0.949 . S
C3057 H3052 0.950 . S
C3057 C3059 1.327 . S
C3057 C3063 1.429 . S
C3058 C3050 1.574 . S
C3058 H3053 0.949 . S
C3058 C3064 1.368 . S
C3059 C3043 1.349 . S
C3059 H3051 0.950 . S
C3059 C3057 1.327 . S
C3060 C3048 1.349 . S
C3060 H3054 0.950 . S
C3060 C3061 1.327 . S
C3061 H3055 0.950 . S
C3061 C3060 1.327 . S
C3061 C3065 1.429 . S
C3062 C3045 1.574 . S
C3062 H3056 0.949 . S
C3062 C3066 1.368 . S
C3063 C3044 1.429 . S
C3063 C3057 1.429 . S
C3063 C3064 1.523 . S
C3064 C3045 1.368 . S
C3064 C3058 1.368 . S
C3064 C3063 1.523 . S
C3065 C3049 1.429 . S
C3065 C3061 1.429 . S
C3065 C3066 1.523 . S
C3066 C3050 1.368 . S
C3066 C3062 1.368 . S
C3066 C3065 1.523 . S
H3067 C3042 0.950 . S
H3068 C3044 0.950 . S
H3069 C3045 0.949 . S
H3070 C3047 0.950 . S
H3071 C3049 0.950 . S
C3072 C3073 1.349 . S
C3072 C3074 1.327 . S
C3072 H3097 0.950 . S
C3073 C3072 1.349 . S
C3073 C3089 1.349 . S
C3074 C3072 1.327 . S
C3074 C3093 1.429 . S
C3074 H3098 0.950 . S
C3075 C3092 1.574 . S
C3075 C3094 1.368 . S
C3075 H3099 0.949 . S
H3076 C3080 0.949 . S
C3077 C3078 1.349 . S
C3077 C3079 1.327 . S
C3077 H3100 0.950 . S
C3078 C3077 1.349 . S
C3078 C3090 1.349 . S
C3079 C3077 1.327 . S
C3079 C3095 1.429 . S
C3079 H3101 0.950 . S
C3080 H3076 0.949 . S
C3080 C3088 1.574 . S
C3080 C3096 1.368 . S
H3081 C3089 0.950 . S
H3082 C3087 0.950 . S
H3083 C3088 0.949 . S
H3084 C3090 0.950 . S
H3085 C3091 0.950 . S
H3086 C3092 0.949 . S
C3087 H3082 0.950 . S
C3087 C3089 1.327 . S
C3087 C3093 1.429 . S
C3088 C3080 1.574 . S
C3088 H3083 0.949 . S
C3088 C3094 1.368 . S
C3089 C3073 1.349 . S
C3089 H3081 0.950 . S
C3089 C3087 1.327 . S
C3090 C3078 1.349 . S
C3090 H3084 0.950 . S
C3090 C3091 1.327 . S
C3091 H3085 0.950 . S
C3091 C3090 1.327 . S
C3091 C3095 1.429 . S
C3092 C3075 1.574 . S
C3092 H3086 0.949 . S
C3092 C3096 1.368 . S
C3093 C3074 1.429 . S
C3093 C3087 1.429 . S
C3093 C3094 1.523 . S
C3094 C3075 1.368 . S
C3094 C3088 1.368 . S
C3094 C3093 1.523 . S
C3095 C3079 1.429 . S
C3095 C3091 1.429 . S
C3095 C3096 1.523 . S
C3096 C3080 1.368 . S
C3096 C3092 1.368 . S
C3096 C3095 1.523 . S
H3097 C3072 0.950 . S
H3098 C3074 0.950 . S
H3099 C3075 0.949 . S
H3100 C3077 0.950 . S
H3101 C3079 0.950 . S
C3102 C3103 1.349 . S
C3102 C3104 1.327 . S
C3102 H3127 0.950 . S
C3103 C3102 1.349 . S
C3103 C3119 1.349 . S
C3104 C3102 1.327 . S
C3104 C3123 1.429 . S
C3104 H3128 0.950 . S
C3105 C3122 1.574 . S
C3105 C3124 1.368 . S
C3105 H3129 0.949 . S
H3106 C3110 0.949 . S
C3107 C3108 1.349 . S
C3107 C3109 1.327 . S
C3107 H3130 0.950 . S
C3108 C3107 1.349 . S
C3108 C3120 1.349 . S
C3109 C3107 1.327 . S
C3109 C3125 1.429 . S
C3109 H3131 0.950 . S
C3110 H3106 0.949 . S
C3110 C3118 1.574 . S
C3110 C3126 1.368 . S
H3111 C3119 0.950 . S
H3112 C3117 0.950 . S
H3113 C3118 0.949 . S
H3114 C3120 0.950 . S
H3115 C3121 0.950 . S
H3116 C3122 0.949 . S
C3117 H3112 0.950 . S
C3117 C3119 1.327 . S
C3117 C3123 1.429 . S
C3118 C3110 1.574 . S
C3118 H3113 0.949 . S
C3118 C3124 1.368 . S
C3119 C3103 1.349 . S
C3119 H3111 0.950 . S
C3119 C3117 1.327 . S
C3120 C3108 1.349 . S
C3120 H3114 0.950 . S
C3120 C3121 1.327 . S
C3121 H3115 0.950 . S
C3121 C3120 1.327 . S
C3121 C3125 1.429 . S
C3122 C3105 1.574 . S
C3122 H3116 0.949 . S
C3122 C3126 1.368 . S
C3123 C3104 1.429 . S
C3123 C3117 1.429 . S
C3123 C3124 1.523 . S
C3124 C3105 1.368 . S
C3124 C3118 1.368 . S
C3124 C3123 1.523 . S
C3125 C3109 1.429 . S
C3125 C3121 1.429 . S
C3125 C3126 1.523 . S
C3126 C3110 1.368 . S
C3126 C3122 1.368 . S
C3126 C3125 1.523 . S
H3127 C3102 0.950 . S
H3128 C3104 0.950 . S
H3129 C3105 0.949 . S
H3130 C3107 0.950 . S
H3131 C3109 0.950 . S
C3132 C3133 1.349 . S
C3132 C3134 1.327 . S
C3132 H3157 0.950 . S
C3133 C3132 1.349 . S
C3133 C3149 1.349 . S
C3134 C3132 1.327 . S
C3134 C3153 1.429 . S
C3134 H3158 0.950 . S
C3135 C3152 1.574 . S
C3135 C3154 1.368 . S
C3135 H3159 0.949 . S
H3136 C3140 0.949 . S
C3137 C3138 1.349 . S
C3137 C3139 1.327 . S
C3137 H3160 0.950 . S
C3138 C3137 1.349 . S
C3138 C3150 1.349 . S
C3139 C3137 1.327 . S
C3139 C3155 1.429 . S
C3139 H3161 0.950 . S
C3140 H3136 0.949 . S
C3140 C3148 1.574 . S
C3140 C3156 1.368 . S
H3141 C3149 0.950 . S
H3142 C3147 0.950 . S
H3143 C3148 0.949 . S
H3144 C3150 0.950 . S
H3145 C3151 0.950 . S
H3146 C3152 0.949 . S
C3147 H3142 0.950 . S
C3147 C3149 1.327 . S
C3147 C3153 1.429 . S
C3148 C3140 1.574 . S
C3148 H3143 0.949 . S
C3148 C3154 1.368 . S
C3149 C3133 1.349 . S
C3149 H3141 0.950 . S
C3149 C3147 1.327 . S
C3150 C3138 1.349 . S
C3150 H3144 0.950 . S
C3150 C3151 1.327 . S
C3151 H3145 0.950 . S
C3151 C3150 1.327 . S
C3151 C3155 1.429 . S
C3152 C3135 1.574 . S
C3152 H3146 0.949 . S
C3152 C3156 1.368 . S
C3153 C3134 1.429 . S
C3153 C3147 1.429 . S
C3153 C3154 1.523 . S
C3154 C3135 1.368 . S
C3154 C3148 1.368 . S
C3154 C3153 1.523 . S
C3155 C3139 1.429 . S
C3155 C3151 1.429 . S
C3155 C3156 1.523 . S
C3156 C3140 1.368 . S
C3156 C3152 1.368 . S
C3156 C3155 1.523 . S
H3157 C3132 0.950 . S
H3158 C3134 0.950 . S
H3159 C3135 0.949 . S
H3160 C3137 0.950 . S
H3161 C3139 0.950 . S
C3162 C3163 1.349 . S
C3162 C3164 1.327 . S
C3162 H3187 0.950 . S
C3163 C3162 1.349 . S
C3163 C3179 1.349 . S
C3164 C3162 1.327 . S
C3164 C3183 1.429 . S
C3164 H3188 0.950 . S
C3165 C3182 1.574 . S
C3165 C3184 1.368 . S
C3165 H3189 0.949 . S
H3166 C3170 0.949 . S
C3167 C3168 1.349 . S
C3167 C3169 1.327 . S
C3167 H3190 0.950 . S
C3168 C3167 1.349 . S
C3168 C3180 1.349 . S
C3169 C3167 1.327 . S
C3169 C3185 1.429 . S
C3169 H3191 0.950 . S
C3170 H3166 0.949 . S
C3170 C3178 1.574 . S
C3170 C3186 1.368 . S
H3171 C3179 0.950 . S
H3172 C3177 0.950 . S
H3173 C3178 0.949 . S
H3174 C3180 0.950 . S
H3175 C3181 0.950 . S
H3176 C3182 0.949 . S
C3177 H3172 0.950 . S
C3177 C3179 1.327 . S
C3177 C3183 1.429 . S
C3178 C3170 1.574 . S
C3178 H3173 0.949 . S
C3178 C3184 1.368 . S
C3179 C3163 1.349 . S
C3179 H3171 0.950 . S
C3179 C3177 1.327 . S
C3180 C3168 1.349 . S
C3180 H3174 0.950 . S
C3180 C3181 1.327 . S
C3181 H3175 0.950 . S
C3181 C3180 1.327 . S
C3181 C3185 1.429 . S
C3182 C3165 1.574 . S
C3182 H3176 0.949 . S
C3182 C3186 1.368 . S
C3183 C3164 1.429 . S
C3183 C3177 1.429 . S
C3183 C3184 1.523 . S
C3184 C3165 1.368 . S
C3184 C3178 1.368 . S
C3184 C3183 1.523 . S
C3185 C3169 1.429 . S
C3185 C3181 1.429 . S
C3185 C3186 1.523 . S
C3186 C3170 1.368 . S
C3186 C3182 1.368 . S
C3186 C3185 1.523 . S
H3187 C3162 0.950 . S
H3188 C3164 0.950 . S
H3189 C3165 0.949 . S
H3190 C3167 0.950 . S
H3191 C3169 0.950 . S
C3192 C3193 1.349 . S
C3192 C3194 1.327 . S
C3192 H3217 0.950 . S
C3193 C3192 1.349 . S
C3193 C3209 1.349 . S
C3194 C3192 1.327 . S
C3194 C3213 1.429 . S
C3194 H3218 0.950 . S
C3195 C3212 1.574 . S
C3195 C3214 1.368 . S
C3195 H3219 0.949 . S
H3196 C3200 0.949 . S
C3197 C3198 1.349 . S
C3197 C3199 1.327 . S
C3197 H3220 0.950 . S
C3198 C3197 1.349 . S
C3198 C3210 1.349 . S
C3199 C3197 1.327 . S
C3199 C3215 1.429 . S
C3199 H3221 0.950 . S
C3200 H3196 0.949 . S
C3200 C3208 1.574 . S
C3200 C3216 1.368 . S
H3201 C3209 0.950 . S
H3202 C3207 0.950 . S
H3203 C3208 0.949 . S
H3204 C3210 0.950 . S
H3205 C3211 0.950 . S
H3206 C3212 0.949 . S
C3207 H3202 0.950 . S
C3207 C3209 1.327 . S
C3207 C3213 1.429 . S
C3208 C3200 1.574 . S
C3208 H3203 0.949 . S
C3208 C3214 1.368 . S
C3209 C3193 1.349 . S
C3209 H3201 0.950 . S
C3209 C3207 1.327 . S
C3210 C3198 1.349 . S
C3210 H3204 0.950 . S
C3210 C3211 1.327 . S
C3211 H3205 0.950 . S
C3211 C3210 1.327 . S
C3211 C3215 1.429 . S
C3212 C3195 1.574 . S
C3212 H3206 0.949 . S
C3212 C3216 1.368 . S
C3213 C3194 1.429 . S
C3213 C3207 1.429 . S
C3213 C3214 1.523 . S
C3214 C3195 1.368 . S
C3214 C3208 1.368 . S
C3214 C3213 1.523 . S
C3215 C3199 1.429 . S
C3215 C3211 1.429 . S
C3215 C3216 1.523 . S
C3216 C3200 1.368 . S
C3216 C3212 1.368 . S
C3216 C3215 1.523 . S
H3217 C3192 0.950 . S
H3218 C3194 0.950 . S
H3219 C3195 0.949 . S
H3220 C3197 0.950 . S
H3221 C3199 0.950 . S
C3222 C3223 1.349 . S
C3222 C3224 1.327 . S
C3222 H3247 0.950 . S
C3223 C3222 1.349 . S
C3223 C3239 1.349 . S
C3224 C3222 1.327 . S
C3224 C3243 1.429 . S
C3224 H3248 0.950 . S
C3225 C3242 1.574 . S
C3225 C3244 1.368 . S
C3225 H3249 0.949 . S
H3226 C3230 0.949 . S
C3227 C3228 1.349 . S
C3227 C3229 1.327 . S
C3227 H3250 0.950 . S
C3228 C3227 1.349 . S
C3228 C3240 1.349 . S
C3229 C3227 1.327 . S
C3229 C3245 1.429 . S
C3229 H3251 0.950 . S
C3230 H3226 0.949 . S
C3230 C3238 1.574 . S
C3230 C3246 1.368 . S
H3231 C3239 0.950 . S
H3232 C3237 0.950 . S
H3233 C3238 0.949 . S
H3234 C3240 0.950 . S
H3235 C3241 0.950 . S
H3236 C3242 0.949 . S
C3237 H3232 0.950 . S
C3237 C3239 1.327 . S
C3237 C3243 1.429 . S
C3238 C3230 1.574 . S
C3238 H3233 0.949 . S
C3238 C3244 1.368 . S
C3239 C3223 1.349 . S
C3239 H3231 0.950 . S
C3239 C3237 1.327 . S
C3240 C3228 1.349 . S
C3240 H3234 0.950 . S
C3240 C3241 1.327 . S
C3241 H3235 0.950 . S
C3241 C3240 1.327 . S
C3241 C3245 1.429 . S
C3242 C3225 1.574 . S
C3242 H3236 0.949 . S
C3242 C3246 1.368 . S
C3243 C3224 1.429 . S
C3243 C3237 1.429 . S
C3243 C3244 1.523 . S
C3244 C3225 1.368 . S
C3244 C3238 1.368 . S
C3244 C3243 1.523 . S
C3245 C3229 1.429 . S
C3245 C3241 1.429 . S
C3245 C3246 1.523 . S
C3246 C3230 1.368 . S
C3246 C3242 1.368 . S
C3246 C3245 1.523 . S
H3247 C3222 0.950 . S
H3248 C3224 0.950 . S
H3249 C3225 0.949 . S
H3250 C3227 0.950 . S
H3251 C3229 0.950 . S
C3252 C3253 1.349 . S
C3252 C3254 1.327 . S
C3252 H3277 0.950 . S
C3253 C3252 1.349 . S
C3253 C3269 1.349 . S
C3254 C3252 1.327 . S
C3254 C3273 1.429 . S
C3254 H3278 0.950 . S
C3255 C3272 1.574 . S
C3255 C3274 1.368 . S
C3255 H3279 0.949 . S
H3256 C3260 0.949 . S
C3257 C3258 1.349 . S
C3257 C3259 1.327 . S
C3257 H3280 0.950 . S
C3258 C3257 1.349 . S
C3258 C3270 1.349 . S
C3259 C3257 1.327 . S
C3259 C3275 1.429 . S
C3259 H3281 0.950 . S
C3260 H3256 0.949 . S
C3260 C3268 1.574 . S
C3260 C3276 1.368 . S
H3261 C3269 0.950 . S
H3262 C3267 0.950 . S
H3263 C3268 0.949 . S
H3264 C3270 0.950 . S
H3265 C3271 0.950 . S
H3266 C3272 0.949 . S
C3267 H3262 0.950 . S
C3267 C3269 1.327 . S
C3267 C3273 1.429 . S
C3268 C3260 1.574 . S
C3268 H3263 0.949 . S
C3268 C3274 1.368 . S
C3269 C3253 1.349 . S
C3269 H3261 0.950 . S
C3269 C3267 1.327 . S
C3270 C3258 1.349 . S
C3270 H3264 0.950 . S
C3270 C3271 1.327 . S
C3271 H3265 0.950 . S
C3271 C3270 1.327 . S
C3271 C3275 1.429 . S
C3272 C3255 1.574 . S
C3272 H3266 0.949 . S
C3272 C3276 1.368 . S
C3273 C3254 1.429 . S
C3273 C3267 1.429 . S
C3273 C3274 1.523 . S
C3274 C3255 1.368 . S
C3274 C3268 1.368 . S
C3274 C3273 1.523 . S
C3275 C3259 1.429 . S
C3275 C3271 1.429 . S
C3275 C3276 1.523 . S
C3276 C3260 1.368 . S
C3276 C3272 1.368 . S
C3276 C3275 1.523 . S
H3277 C3252 0.950 . S
H3278 C3254 0.950 . S
H3279 C3255 0.949 . S
H3280 C3257 0.950 . S
H3281 C3259 0.950 . S
C3282 C3283 1.349 . S
C3282 C3284 1.327 . S
C3282 H3307 0.950 . S
C3283 C3282 1.349 . S
C3283 C3299 1.349 . S
C3284 C3282 1.327 . S
C3284 C3303 1.429 . S
C3284 H3308 0.950 . S
C3285 C3302 1.574 . S
C3285 C3304 1.368 . S
C3285 H3309 0.949 . S
H3286 C3290 0.949 . S
C3287 C3288 1.349 . S
C3287 C3289 1.327 . S
C3287 H3310 0.950 . S
C3288 C3287 1.349 . S
C3288 C3300 1.349 . S
C3289 C3287 1.327 . S
C3289 C3305 1.429 . S
C3289 H3311 0.950 . S
C3290 H3286 0.949 . S
C3290 C3298 1.574 . S
C3290 C3306 1.368 . S
H3291 C3299 0.950 . S
H3292 C3297 0.950 . S
H3293 C3298 0.949 . S
H3294 C3300 0.950 . S
H3295 C3301 0.950 . S
H3296 C3302 0.949 . S
C3297 H3292 0.950 . S
C3297 C3299 1.327 . S
C3297 C3303 1.429 . S
C3298 C3290 1.574 . S
C3298 H3293 0.949 . S
C3298 C3304 1.368 . S
C3299 C3283 1.349 . S
C3299 H3291 0.950 . S
C3299 C3297 1.327 . S
C3300 C3288 1.349 . S
C3300 H3294 0.950 . S
C3300 C3301 1.327 . S
C3301 H3295 0.950 . S
C3301 C3300 1.327 . S
C3301 C3305 1.429 . S
C3302 C3285 1.574 . S
C3302 H3296 0.949 . S
C3302 C3306 1.368 . S
C3303 C3284 1.429 . S
C3303 C3297 1.429 . S
C3303 C3304 1.523 . S
C3304 C3285 1.368 . S
C3304 C3298 1.368 . S
C3304 C3303 1.523 . S
C3305 C3289 1.429 . S
C3305 C3301 1.429 . S
C3305 C3306 1.523 . S
C3306 C3290 1.368 . S
C3306 C3302 1.368 . S
C3306 C3305 1.523 . S
H3307 C3282 0.950 . S
H3308 C3284 0.950 . S
H3309 C3285 0.949 . S
H3310 C3287 0.950 . S
H3311 C3289 0.950 . S
C3312 C3313 1.349 . S
C3312 C3314 1.327 . S
C3312 H3337 0.950 . S
C3313 C3312 1.349 . S
C3313 C3329 1.349 . S
C3314 C3312 1.327 . S
C3314 C3333 1.429 . S
C3314 H3338 0.950 . S
C3315 C3332 1.574 . S
C3315 C3334 1.368 . S
C3315 H3339 0.949 . S
H3316 C3320 0.949 . S
C3317 C3318 1.349 . S
C3317 C3319 1.327 . S
C3317 H3340 0.950 . S
C3318 C3317 1.349 . S
C3318 C3330 1.349 . S
C3319 C3317 1.327 . S
C3319 C3335 1.429 . S
C3319 H3341 0.950 . S
C3320 H3316 0.949 . S
C3320 C3328 1.574 . S
C3320 C3336 1.368 . S
H3321 C3329 0.950 . S
H3322 C3327 0.950 . S
H3323 C3328 0.949 . S
H3324 C3330 0.950 . S
H3325 C3331 0.950 . S
H3326 C3332 0.949 . S
C3327 H3322 0.950 . S
C3327 C3329 1.327 . S
C3327 C3333 1.429 . S
C3328 C3320 1.574 . S
C3328 H3323 0.949 . S
C3328 C3334 1.368 . S
C3329 C3313 1.349 . S
C3329 H3321 0.950 . S
C3329 C3327 1.327 . S
C3330 C3318 1.349 . S
C3330 H3324 0.950 . S
C3330 C3331 1.327 . S
C3331 H3325 0.950 . S
C3331 C3330 1.327 . S
C3331 C3335 1.429 . S
C3332 C3315 1.574 . S
C3332 H3326 0.949 . S
C3332 C3336 1.368 . S
C3333 C3314 1.429 . S
C3333 C3327 1.429 . S
C3333 C3334 1.523 . S
C3334 C3315 1.368 . S
C3334 C3328 1.368 . S
C3334 C3333 1.523 . S
C3335 C3319 1.429 . S
C3335 C3331 1.429 . S
C3335 C3336 1.523 . S
C3336 C3320 1.368 . S
C3336 C3332 1.368 . S
C3336 C3335 1.523 . S
H3337 C3312 0.950 . S
H3338 C3314 0.950 . S
H3339 C3315 0.949 . S
H3340 C3317 0.950 . S
H3341 C3319 0.950 . S
C3342 C3343 1.349 . S
C3342 C3344 1.327 . S
C3342 H3367 0.950 . S
C3343 C3342 1.349 . S
C3343 C3359 1.349 . S
C3344 C3342 1.327 . S
C3344 C3363 1.429 . S
C3344 H3368 0.950 . S
C3345 C3362 1.574 . S
C3345 C3364 1.368 . S
C3345 H3369 0.949 . S
H3346 C3350 0.949 . S
C3347 C3348 1.349 . S
C3347 C3349 1.327 . S
C3347 H3370 0.950 . S
C3348 C3347 1.349 . S
C3348 C3360 1.349 . S
C3349 C3347 1.327 . S
C3349 C3365 1.429 . S
C3349 H3371 0.950 . S
C3350 H3346 0.949 . S
C3350 C3358 1.574 . S
C3350 C3366 1.368 . S
H3351 C3359 0.950 . S
H3352 C3357 0.950 . S
H3353 C3358 0.949 . S
H3354 C3360 0.950 . S
H3355 C3361 0.950 . S
H3356 C3362 0.949 . S
C3357 H3352 0.950 . S
C3357 C3359 1.327 . S
C3357 C3363 1.429 . S
C3358 C3350 1.574 . S
C3358 H3353 0.949 . S
C3358 C3364 1.368 . S
C3359 C3343 1.349 . S
C3359 H3351 0.950 . S
C3359 C3357 1.327 . S
C3360 C3348 1.349 . S
C3360 H3354 0.950 . S
C3360 C3361 1.327 . S
C3361 H3355 0.950 . S
C3361 C3360 1.327 . S
C3361 C3365 1.429 . S
C3362 C3345 1.574 . S
C3362 H3356 0.949 . S
C3362 C3366 1.368 . S
C3363 C3344 1.429 . S
C3363 C3357 1.429 . S
C3363 C3364 1.523 . S
C3364 C3345 1.368 . S
C3364 C3358 1.368 . S
C3364 C3363 1.523 . S
C3365 C3349 1.429 . S
C3365 C3361 1.429 . S
C3365 C3366 1.523 . S
C3366 C3350 1.368 . S
C3366 C3362 1.368 . S
C3366 C3365 1.523 . S
H3367 C3342 0.950 . S
H3368 C3344 0.950 . S
H3369 C3345 0.949 . S
H3370 C3347 0.950 . S
H3371 C3349 0.950 . S
C3372 C3373 1.349 . S
C3372 C3374 1.327 . S
C3372 H3397 0.950 . S
C3373 C3372 1.349 . S
C3373 C3389 1.349 . S
C3374 C3372 1.327 . S
C3374 C3393 1.429 . S
C3374 H3398 0.950 . S
C3375 C3392 1.574 . S
C3375 C3394 1.368 . S
C3375 H3399 0.949 . S
H3376 C3380 0.949 . S
C3377 C3378 1.349 . S
C3377 C3379 1.327 . S
C3377 H3400 0.950 . S
C3378 C3377 1.349 . S
C3378 C3390 1.349 . S
C3379 C3377 1.327 . S
C3379 C3395 1.429 . S
C3379 H3401 0.950 . S
C3380 H3376 0.949 . S
C3380 C3388 1.574 . S
C3380 C3396 1.368 . S
H3381 C3389 0.950 . S
H3382 C3387 0.950 . S
H3383 C3388 0.949 . S
H3384 C3390 0.950 . S
H3385 C3391 0.950 . S
H3386 C3392 0.949 . S
C3387 H3382 0.950 . S
C3387 C3389 1.327 . S
C3387 C3393 1.429 . S
C3388 C3380 1.574 . S
C3388 H3383 0.949 . S
C3388 C3394 1.368 . S
C3389 C3373 1.349 . S
C3389 H3381 0.950 . S
C3389 C3387 1.327 . S
C3390 C3378 1.349 . S
C3390 H3384 0.950 . S
C3390 C3391 1.327 . S
C3391 H3385 0.950 . S
C3391 C3390 1.327 . S
C3391 C3395 1.429 . S
C3392 C3375 1.574 . S
C3392 H3386 0.949 . S
C3392 C3396 1.368 . S
C3393 C3374 1.429 . S
C3393 C3387 1.429 . S
C3393 C3394 1.523 . S
C3394 C3375 1.368 . S
C3394 C3388 1.368 . S
C3394 C3393 1.523 . S
C3395 C3379 1.429 . S
C3395 C3391 1.429 . S
C3395 C3396 1.523 . S
C3396 C3380 1.368 . S
C3396 C3392 1.368 . S
C3396 C3395 1.523 . S
H3397 C3372 0.950 . S
H3398 C3374 0.950 . S
H3399 C3375 0.949 . S
H3400 C3377 0.950 . S
H3401 C3379 0.950 . S
C3402 C3403 1.349 . S
C3402 C3404 1.327 . S
C3402 H3427 0.950 . S
C3403 C3402 1.349 . S
C3403 C3419 1.349 . S
C3404 C3402 1.327 . S
C3404 C3423 1.429 . S
C3404 H3428 0.950 . S
C3405 C3422 1.574 . S
C3405 C3424 1.368 . S
C3405 H3429 0.949 . S
H3406 C3410 0.949 . S
C3407 C3408 1.349 . S
C3407 C3409 1.327 . S
C3407 H3430 0.950 . S
C3408 C3407 1.349 . S
C3408 C3420 1.349 . S
C3409 C3407 1.327 . S
C3409 C3425 1.429 . S
C3409 H3431 0.950 . S
C3410 H3406 0.949 . S
C3410 C3418 1.574 . S
C3410 C3426 1.368 . S
H3411 C3419 0.950 . S
H3412 C3417 0.950 . S
H3413 C3418 0.949 . S
H3414 C3420 0.950 . S
H3415 C3421 0.950 . S
H3416 C3422 0.949 . S
C3417 H3412 0.950 . S
C3417 C3419 1.327 . S
C3417 C3423 1.429 . S
C3418 C3410 1.574 . S
C3418 H3413 0.949 . S
C3418 C3424 1.368 . S
C3419 C3403 1.349 . S
C3419 H3411 0.950 . S
C3419 C3417 1.327 . S
C3420 C3408 1.349 . S
C3420 H3414 0.950 . S
C3420 C3421 1.327 . S
C3421 H3415 0.950 . S
C3421 C3420 1.327 . S
C3421 C3425 1.429 . S
C3422 C3405 1.574 . S
C3422 H3416 0.949 . S
C3422 C3426 1.368 . S
C3423 C3404 1.429 . S
C3423 C3417 1.429 . S
C3423 C3424 1.523 . S
C3424 C3405 1.368 . S
C3424 C3418 1.368 . S
C3424 C3423 1.523 . S
C3425 C3409 1.429 . S
C3425 C3421 1.429 . S
C3425 C3426 1.523 . S
C3426 C3410 1.368 . S
C3426 C3422 1.368 . S
C3426 C3425 1.523 . S
H3427 C3402 0.950 . S
H3428 C3404 0.950 . S
H3429 C3405 0.949 . S
H3430 C3407 0.950 . S
H3431 C3409 0.950 . S
C3432 C3433 1.349 . S
C3432 C3434 1.327 . S
C3432 H3457 0.950 . S
C3433 C3432 1.349 . S
C3433 C3449 1.349 . S
C3434 C3432 1.327 . S
C3434 C3453 1.429 . S
C3434 H3458 0.950 . S
C3435 C3452 1.574 . S
C3435 C3454 1.368 . S
C3435 H3459 0.949 . S
H3436 C3440 0.949 . S
C3437 C3438 1.349 . S
C3437 C3439 1.327 . S
C3437 H3460 0.950 . S
C3438 C3437 1.349 . S
C3438 C3450 1.349 . S
C3439 C3437 1.327 . S
C3439 C3455 1.429 . S
C3439 H3461 0.950 . S
C3440 H3436 0.949 . S
C3440 C3448 1.574 . S
C3440 C3456 1.368 . S
H3441 C3449 0.950 . S
H3442 C3447 0.950 . S
H3443 C3448 0.949 . S
H3444 C3450 0.950 . S
H3445 C3451 0.950 . S
H3446 C3452 0.949 . S
C3447 H3442 0.950 . S
C3447 C3449 1.327 . S
C3447 C3453 1.429 . S
C3448 C3440 1.574 . S
C3448 H3443 0.949 . S
C3448 C3454 1.368 . S
C3449 C3433 1.349 . S
C3449 H3441 0.950 . S
C3449 C3447 1.327 . S
C3450 C3438 1.349 . S
C3450 H3444 0.950 . S
C3450 C3451 1.327 . S
C3451 H3445 0.950 . S
C3451 C3450 1.327 . S
C3451 C3455 1.429 . S
C3452 C3435 1.574 . S
C3452 H3446 0.949 . S
C3452 C3456 1.368 . S
C3453 C3434 1.429 . S
C3453 C3447 1.429 . S
C3453 C3454 1.523 . S
C3454 C3435 1.368 . S
C3454 C3448 1.368 . S
C3454 C3453 1.523 . S
C3455 C3439 1.429 . S
C3455 C3451 1.429 . S
C3455 C3456 1.523 . S
C3456 C3440 1.368 . S
C3456 C3452 1.368 . S
C3456 C3455 1.523 . S
H3457 C3432 0.950 . S
H3458 C3434 0.950 . S
H3459 C3435 0.949 . S
H3460 C3437 0.950 . S
H3461 C3439 0.950 . S
C3462 C3463 1.349 . S
C3462 C3464 1.327 . S
C3462 H3487 0.950 . S
C3463 C3462 1.349 . S
C3463 C3479 1.349 . S
C3464 C3462 1.327 . S
C3464 C3483 1.429 . S
C3464 H3488 0.950 . S
C3465 C3482 1.574 . S
C3465 C3484 1.368 . S
C3465 H3489 0.949 . S
H3466 C3470 0.949 . S
C3467 C3468 1.349 . S
C3467 C3469 1.327 . S
C3467 H3490 0.950 . S
C3468 C3467 1.349 . S
C3468 C3480 1.349 . S
C3469 C3467 1.327 . S
C3469 C3485 1.429 . S
C3469 H3491 0.950 . S
C3470 H3466 0.949 . S
C3470 C3478 1.574 . S
C3470 C3486 1.368 . S
H3471 C3479 0.950 . S
H3472 C3477 0.950 . S
H3473 C3478 0.949 . S
H3474 C3480 0.950 . S
H3475 C3481 0.950 . S
H3476 C3482 0.949 . S
C3477 H3472 0.950 . S
C3477 C3479 1.327 . S
C3477 C3483 1.429 . S
C3478 C3470 1.574 . S
C3478 H3473 0.949 . S
C3478 C3484 1.368 . S
C3479 C3463 1.349 . S
C3479 H3471 0.950 . S
C3479 C3477 1.327 . S
C3480 C3468 1.349 . S
C3480 H3474 0.950 . S
C3480 C3481 1.327 . S
C3481 H3475 0.950 . S
C3481 C3480 1.327 . S
C3481 C3485 1.429 . S
C3482 C3465 1.574 . S
C3482 H3476 0.949 . S
C3482 C3486 1.368 . S
C3483 C3464 1.429 . S
C3483 C3477 1.429 . S
C3483 C3484 1.523 . S
C3484 C3465 1.368 . S
C3484 C3478 1.368 . S
C3484 C3483 1.523 . S
C3485 C3469 1.429 . S
C3485 C3481 1.429 . S
C3485 C3486 1.523 . S
C3486 C3470 1.368 . S
C3486 C3482 1.368 . S
C3486 C3485 1.523 . S
H3487 C3462 0.950 . S
H3488 C3464 0.950 . S
H3489 C3465 0.949 . S
H3490 C3467 0.950 . S
H3491 C3469 0.950 . S
C3492 C3493 1.349 . S
C3492 C3494 1.327 . S
C3492 H3517 0.950 . S
C3493 C3492 1.349 . S
C3493 C3509 1.349 . S
C3494 C3492 1.327 . S
C3494 C3513 1.429 . S
C3494 H3518 0.950 . S
C3495 C3512 1.574 . S
C3495 C3514 1.368 . S
C3495 H3519 0.949 . S
H3496 C3500 0.949 . S
C3497 C3498 1.349 . S
C3497 C3499 1.327 . S
C3497 H3520 0.950 . S
C3498 C3497 1.349 . S
C3498 C3510 1.349 . S
C3499 C3497 1.327 . S
C3499 C3515 1.429 . S
C3499 H3521 0.950 . S
C3500 H3496 0.949 . S
C3500 C3508 1.574 . S
C3500 C3516 1.368 . S
H3501 C3509 0.950 . S
H3502 C3507 0.950 . S
H3503 C3508 0.949 . S
H3504 C3510 0.950 . S
H3505 C3511 0.950 . S
H3506 C3512 0.949 . S
C3507 H3502 0.950 . S
C3507 C3509 1.327 . S
C3507 C3513 1.429 . S
C3508 C3500 1.574 . S
C3508 H3503 0.949 . S
C3508 C3514 1.368 . S
C3509 C3493 1.349 . S
C3509 H3501 0.950 . S
C3509 C3507 1.327 . S
C3510 C3498 1.349 . S
C3510 H3504 0.950 . S
C3510 C3511 1.327 . S
C3511 H3505 0.950 . S
C3511 C3510 1.327 . S
C3511 C3515 1.429 . S
C3512 C3495 1.574 . S
C3512 H3506 0.949 . S
C3512 C3516 1.368 . S
C3513 C3494 1.429 . S
C3513 C3507 1.429 . S
C3513 C3514 1.523 . S
C3514 C3495 1.368 . S
C3514 C3508 1.368 . S
C3514 C3513 1.523 . S
C3515 C3499 1.429 . S
C3515 C3511 1.429 . S
C3515 C3516 1.523 . S
C3516 C3500 1.368 . S
C3516 C3512 1.368 . S
C3516 C3515 1.523 . S
H3517 C3492 0.950 . S
H3518 C3494 0.950 . S
H3519 C3495 0.949 . S
H3520 C3497 0.950 . S
H3521 C3499 0.950 . S
C3522 C3523 1.349 . S
C3522 C3524 1.327 . S
C3522 H3547 0.950 . S
C3523 C3522 1.349 . S
C3523 C3539 1.349 . S
C3524 C3522 1.327 . S
C3524 C3543 1.429 . S
C3524 H3548 0.950 . S
C3525 C3542 1.574 . S
C3525 C3544 1.368 . S
C3525 H3549 0.949 . S
H3526 C3530 0.949 . S
C3527 C3528 1.349 . S
C3527 C3529 1.327 . S
C3527 H3550 0.950 . S
C3528 C3527 1.349 . S
C3528 C3540 1.349 . S
C3529 C3527 1.327 . S
C3529 C3545 1.429 . S
C3529 H3551 0.950 . S
C3530 H3526 0.949 . S
C3530 C3538 1.574 . S
C3530 C3546 1.368 . S
H3531 C3539 0.950 . S
H3532 C3537 0.950 . S
H3533 C3538 0.949 . S
H3534 C3540 0.950 . S
H3535 C3541 0.950 . S
H3536 C3542 0.949 . S
C3537 H3532 0.950 . S
C3537 C3539 1.327 . S
C3537 C3543 1.429 . S
C3538 C3530 1.574 . S
C3538 H3533 0.949 . S
C3538 C3544 1.368 . S
C3539 C3523 1.349 . S
C3539 H3531 0.950 . S
C3539 C3537 1.327 . S
C3540 C3528 1.349 . S
C3540 H3534 0.950 . S
C3540 C3541 1.327 . S
C3541 H3535 0.950 . S
C3541 C3540 1.327 . S
C3541 C3545 1.429 . S
C3542 C3525 1.574 . S
C3542 H3536 0.949 . S
C3542 C3546 1.368 . S
C3543 C3524 1.429 . S
C3543 C3537 1.429 . S
C3543 C3544 1.523 . S
C3544 C3525 1.368 . S
C3544 C3538 1.368 . S
C3544 C3543 1.523 . S
C3545 C3529 1.429 . S
C3545 C3541 1.429 . S
C3545 C3546 1.523 . S
C3546 C3530 1.368 . S
C3546 C3542 1.368 . S
C3546 C3545 1.523 . S
H3547 C3522 0.950 . S
H3548 C3524 0.950 . S
H3549 C3525 0.949 . S
H3550 C3527 0.950 . S
H3551 C3529 0.950 . S
C673 C131 1.534 . S
C678 C5 1.534 . S
C703 C145 1.534 . S
C708 C19 1.534 . S
C733 C159 1.534 . S
C738 C33 1.534 . S
C763 C47 1.534 . S
C768 C117 1.534 . S
C793 C215 1.534 . S
C798 C61 1.534 . S
C823 C75 1.534 . S
C828 C173 1.534 . S
C853 C187 1.534 . S
C858 C89 1.534 . S
C883 C201 1.534 . S
C888 C103 1.534 . S
C913 C229 1.534 . S
C918 C257 1.534 . S
C943 C243 1.534 . S
C948 C313 1.534 . S
C973 C271 1.534 . S
C978 C327 1.534 . S
C1003 C285 1.534 . S
C1008 C299 1.534 . S
C1033 C341 1.534 . S
C1038 C467 1.534 . S
C1063 C481 1.534 . S
C1068 C355 1.534 . S
C1093 C369 1.534 . S
C1098 C495 1.534 . S
C1123 C383 1.534 . S
C1128 C453 1.534 . S
C1153 C551 1.534 . S
C1158 C397 1.534 . S
C1183 C509 1.534 . S
C1188 C411 1.534 . S
C1213 C523 1.534 . S
C1218 C425 1.534 . S
C1243 C537 1.534 . S
C1248 C439 1.534 . S
C1273 C565 1.534 . S
C1278 C593 1.534 . S
C1303 C579 1.534 . S
C1308 C649 1.534 . S
C1333 C607 1.534 . S
C1338 C663 1.534 . S
C1363 C635 1.534 . S
C1368 C621 1.534 . S
C1393 C124 0.789 . S
C1398 C4 0.799 . S
C1423 C138 0.789 . S
C1428 C18 0.799 . S
C1453 C32 0.799 . S
C1458 C152 0.789 . S
C1483 C46 0.799 . S
C1488 C166 0.789 . S
C1513 C60 0.799 . S
C1518 C180 0.789 . S
C1543 C74 0.799 . S
C1548 C194 0.789 . S
C1573 C88 0.799 . S
C1578 C208 0.789 . S
C1603 C222 0.789 . S
C1608 C102 0.799 . S
C1633 C116 0.799 . S
C1638 C236 0.789 . S
C1663 C334 0.789 . S
C1668 C130 0.799 . S
C1693 C144 0.799 . S
C1698 C306 0.789 . S
C1723 C158 0.799 . S
C1728 C320 0.789 . S
C1753 C172 0.799 . S
C1758 C250 0.789 . S
C1783 C186 0.799 . S
C1788 C264 0.789 . S
C1813 C200 0.799 . S
C1818 C278 0.789 . S
C1843 C292 0.789 . S
C1848 C214 0.799 . S
C1873 C12 0.789 . S
C1878 C228 0.799 . S
C1903 C242 0.799 . S
C1908 C68 0.789 . S
C1933 C256 0.799 . S
C1938 C82 0.789 . S
C1963 C270 0.799 . S
C1968 C96 0.789 . S
C1993 C110 0.789 . S
C1998 C284 0.799 . S
C2023 C298 0.799 . S
C2028 C40 0.789 . S
C2053 C312 0.799 . S
C2058 C54 0.789 . S
C2083 C26 0.789 . S
C2088 C326 0.799 . S
C2113 C460 0.789 . S
C2118 C340 0.799 . S
C2143 C354 0.799 . S
C2148 C474 0.789 . S
C2173 C368 0.799 . S
C2178 C488 0.789 . S
C2203 C502 0.789 . S
C2208 C382 0.799 . S
C2233 C516 0.789 . S
C2238 C396 0.799 . S
C2263 C410 0.799 . S
C2268 C530 0.789 . S
C2293 C544 0.789 . S
C2298 C424 0.799 . S
C2323 C558 0.789 . S
C2328 C438 0.799 . S
C2353 C452 0.799 . S
C2358 C572 0.789 . S
C2383 C466 0.799 . S
C2388 C670 0.789 . S
C2413 C480 0.799 . S
C2418 C642 0.789 . S
C2443 C656 0.789 . S
C2448 C494 0.799 . S
C2473 C508 0.799 . S
C2478 C586 0.789 . S
C2503 C522 0.799 . S
C2508 C600 0.789 . S
C2533 C614 0.789 . S
C2538 C536 0.799 . S
C2563 C628 0.789 . S
C2568 C550 0.799 . S
C2593 C564 0.799 . S
C2598 C348 0.789 . S
C2623 C578 0.799 . S
C2628 C404 0.789 . S
C2653 C418 0.789 . S
C2658 C592 0.799 . S
C2683 C606 0.799 . S
C2688 C432 0.789 . S
C2713 C620 0.799 . S
C2718 C446 0.789 . S
C2743 C376 0.789 . S
C2748 C634 0.799 . S
C2773 C648 0.799 . S
C2778 C390 0.789 . S
C2803 C362 0.789 . S
C2808 C662 0.799 . S
C2833 C445 1.416 . S
C2838 C11 1.416 . S
C2863 C25 1.416 . S
C2868 C403 1.416 . S
C2893 C417 1.416 . S
C2898 C39 1.416 . S
C2923 C431 1.416 . S
C2928 C53 1.416 . S
C2953 C67 1.416 . S
C2958 C361 1.416 . S
C2983 C375 1.416 . S
C2988 C81 1.416 . S
C3013 C389 1.416 . S
C3018 C95 1.416 . S
C3043 C109 1.416 . S
C3048 C347 1.416 . S
C3073 C627 1.416 . S
C3078 C123 1.416 . S
C3103 C137 1.416 . S
C3108 C585 1.416 . S
C3133 C151 1.416 . S
C3138 C599 1.416 . S
C3163 C613 1.416 . S
C3168 C165 1.416 . S
C3193 C669 1.416 . S
C3198 C179 1.416 . S
C3223 C641 1.416 . S
C3228 C193 1.416 . S
C3253 C207 1.416 . S
C3258 C655 1.416 . S
C3283 C571 1.416 . S
C3288 C221 1.416 . S
C3313 C235 1.416 . S
C3318 C557 1.416 . S
C3343 C473 1.416 . S
C3348 C249 1.416 . S
C3373 C263 1.416 . S
C3378 C487 1.416 . S
C3403 C501 1.416 . S
C3408 C277 1.416 . S
C3433 C459 1.416 . S
C3438 C291 1.416 . S
C3463 C305 1.416 . S
C3468 C529 1.416 . S
C3493 C543 1.416 . S
C3498 C319 1.416 . S
C3523 C515 1.416 . S
C3528 C333 1.416 . S
