# Generated by pormake.
# Topology unj, (4)-cn, num edge types: 1
# Building blocks:
#     Node 0, Type 0, BuildingBlock: UXUYUI_clean_sbu_0, # of connection points: 4
#     Node 1, Type 0, BuildingBlock: UXUYUI_clean_sbu_0, # of connection points: 4
#     Node 2, Type 0, BuildingBlock: UXUYUI_clean_sbu_0, # of connection points: 4
#     Node 3, Type 0, BuildingBlock: UXUYUI_clean_sbu_0, # of connection points: 4
#     Node 4, Type 0, BuildingBlock: UXUYUI_clean_sbu_0, # of connection points: 4
#     Node 5, Type 0, BuildingBlock: UXUYUI_clean_sbu_0, # of connection points: 4
#     Edge 6, Type (0, 0), BuildingBlock: CIFDUS_clean_linker_0, # of connection points: 2
#     Edge 7, Type (0, 0), BuildingBlock: CIFDUS_clean_linker_0, # of connection points: 2
#     Edge 8, Type (0, 0), BuildingBlock: CIFDUS_clean_linker_0, # of connection points: 2
#     Edge 9, Type (0, 0), BuildingBlock: CIFDUS_clean_linker_0, # of connection points: 2
#     Edge 10, Type (0, 0), BuildingBlock: CIFDUS_clean_linker_0, # of connection points: 2
#     Edge 11, Type (0, 0), BuildingBlock: CIFDUS_clean_linker_0, # of connection points: 2
#     Edge 12, Type (0, 0), BuildingBlock: CIFDUS_clean_linker_0, # of connection points: 2
#     Edge 13, Type (0, 0), BuildingBlock: CIFDUS_clean_linker_0, # of connection points: 2
#     Edge 14, Type (0, 0), BuildingBlock: CIFDUS_clean_linker_0, # of connection points: 2
#     Edge 15, Type (0, 0), BuildingBlock: CIFDUS_clean_linker_0, # of connection points: 2
#     Edge 16, Type (0, 0), BuildingBlock: CIFDUS_clean_linker_0, # of connection points: 2
#     Edge 17, Type (0, 0), BuildingBlock: CIFDUS_clean_linker_0, # of connection points: 2
# Relax obj value: 0.030
# Max RMSD: 0.052
# Mean RMSD: 0.052
data_MOF--net-unj--node1-UXUYUI_clean_sbu_0--edge1-CIFDUS_clean_linker_0
_symmetry_space_group_name_H-M    P1
_symmetry_Int_Tables_number       1
_symmetry_cell_setting            triclinic
loop_
_symmetry_equiv_pos_as_xyz
'x, y, z'
_cell_length_a     46.405474
_cell_length_b     46.490436
_cell_length_c     44.974353
_cell_angle_alpha  89.944823
_cell_angle_beta   89.966094
_cell_angle_gamma 120.00251
loop_
_atom_site_label
_atom_site_type_symbol
_atom_site_fract_x
_atom_site_fract_y
_atom_site_fract_z
_atom_type_partial_charge
Li0 Li 0.46614 0.20781 0.58329 0.0
Li1 Li 0.51341 0.24265 0.61654 0.0
Li2 Li 0.46953 0.25835 0.60513 0.0
Li3 Li 0.51142 0.26527 0.56828 0.0
C4 C 0.4405 0.19335 0.64224 0.0
N5 N 0.39073 0.14237 0.675 0.0
C6 C 0.44834 0.17572 0.66276 0.0
C7 C 0.4074 0.18538 0.63873 0.0
C8 C 0.42281 0.14993 0.67902 0.0
C9 C 0.38258 0.15945 0.6554 0.0
C10 C 0.53562 0.21245 0.57842 0.0
C11 C 0.5911 0.22091 0.58337 0.0
N12 N 0.57838 0.18745 0.58308 0.0
C13 C 0.52314 0.17816 0.57791 0.0
C14 C 0.5699 0.23402 0.58091 0.0
C15 C 0.54515 0.16601 0.58038 0.0
C16 C 0.42743 0.15916 0.54062 0.0
N17 N 0.43727 0.16347 0.56954 0.0
C18 C 0.4081 0.1047 0.57744 0.0
C19 C 0.42823 0.13702 0.58788 0.0
C20 C 0.39761 0.09947 0.54767 0.0
C21 C 0.40752 0.12721 0.52915 0.0
H22 H 0.43535 0.18059 0.52638 0.0
H23 H 0.43733 0.14085 0.6104 0.0
C24 C 0.56019 0.26953 0.66326 0.0
N25 N 0.54178 0.24165 0.64685 0.0
C26 C 0.58164 0.27002 0.68532 0.0
C27 C 0.5648 0.21312 0.6732 0.0
C28 C 0.54325 0.21354 0.65178 0.0
C29 C 0.58434 0.24164 0.69024 0.0
H30 H 0.55823 0.29141 0.65922 0.0
H31 H 0.52765 0.19137 0.63912 0.0
C32 C 0.43468 0.24348 0.55172 0.0
N33 N 0.37872 0.24262 0.52955 0.0
C34 C 0.43791 0.26894 0.53299 0.0
C35 C 0.403 0.21728 0.55872 0.0
C36 C 0.40932 0.26816 0.52215 0.0
C37 C 0.37501 0.21736 0.54741 0.0
C38 C 0.54335 0.31899 0.60239 0.0
C39 C 0.53554 0.34422 0.59922 0.0
C40 C 0.5764 0.32652 0.59971 0.0
C41 C 0.5609 0.37651 0.59286 0.0
C42 C 0.60105 0.3591 0.59331 0.0
N43 N 0.59285 0.38321 0.59001 0.0
C44 C 0.43321 0.26867 0.65011 0.0
C45 C 0.43969 0.29932 0.6061 0.0
C46 C 0.41579 0.28241 0.66366 0.0
N47 N 0.44454 0.27707 0.62176 0.0
C48 C 0.42264 0.31393 0.61888 0.0
C49 C 0.41045 0.3056 0.64813 0.0
H50 H 0.43803 0.25154 0.6624 0.0
H51 H 0.4498 0.30644 0.58395 0.0
C52 C 0.55777 0.28242 0.52143 0.0
N53 N 0.53798 0.29181 0.53569 0.0
C54 C 0.57796 0.30125 0.49782 0.0
C55 C 0.55668 0.3389 0.50356 0.0
C56 C 0.53692 0.31933 0.52713 0.0
C57 C 0.57762 0.32995 0.48854 0.0
H58 H 0.55789 0.26024 0.52833 0.0
H59 H 0.5207 0.3261 0.53858 0.0
O60 O 0.46522 0.21859 0.62606 0.0
O61 O 0.51438 0.22478 0.57625 0.0
O62 O 0.46244 0.24392 0.56259 0.0
O63 O 0.51879 0.28712 0.60815 0.0
H64 H 0.47383 0.18173 0.66599 0.0
H65 H 0.40095 0.19932 0.62358 0.0
H66 H 0.42851 0.13594 0.69483 0.0
H67 H 0.35685 0.15299 0.65285 0.0
H68 H 0.61765 0.23733 0.58549 0.0
H69 H 0.49675 0.16109 0.57573 0.0
H70 H 0.58004 0.2606 0.58104 0.0
H71 H 0.5358 0.13952 0.58016 0.0
H72 H 0.4016 0.08398 0.59229 0.0
H73 H 0.3999 0.12425 0.50607 0.0
H74 H 0.59632 0.29247 0.69808 0.0
H75 H 0.56582 0.19059 0.67672 0.0
H76 H 0.46222 0.28922 0.52705 0.0
H77 H 0.40002 0.19693 0.57249 0.0
H78 H 0.41146 0.28785 0.50783 0.0
H79 H 0.35034 0.19727 0.55275 0.0
H80 H 0.51015 0.33891 0.60143 0.0
H81 H 0.58295 0.30742 0.60253 0.0
H82 H 0.55516 0.39623 0.59015 0.0
H83 H 0.62671 0.36522 0.591 0.0
H84 H 0.40664 0.27491 0.68611 0.0
H85 H 0.41985 0.3322 0.60621 0.0
H86 H 0.59391 0.29353 0.48715 0.0
H87 H 0.55519 0.36051 0.49692 0.0
Li88 Li 0.27055 0.49712 0.77918 0.0
Li89 Li 0.2621 0.45396 0.74382 0.0
Li90 Li 0.24923 0.4976 0.73071 0.0
Li91 Li 0.21292 0.45288 0.76551 0.0
C92 C 0.32519 0.52282 0.74834 0.0
N93 N 0.38983 0.56353 0.7673 0.0
C94 C 0.34627 0.50981 0.75276 0.0
C95 C 0.33703 0.55656 0.75348 0.0
C96 C 0.37887 0.53081 0.76234 0.0
C97 C 0.36976 0.57672 0.76312 0.0
C98 C 0.23803 0.41906 0.80063 0.0
C99 C 0.20155 0.35979 0.80401 0.0
N100 N 0.2161 0.35954 0.83018 0.0
C101 C 0.25247 0.41827 0.82766 0.0
C102 C 0.21226 0.38965 0.78878 0.0
C103 C 0.24111 0.38791 0.8422 0.0
C104 C 0.2957 0.54893 0.82247 0.0
N105 N 0.29772 0.52268 0.8117 0.0
C106 C 0.33972 0.53177 0.84724 0.0
C107 C 0.31904 0.51379 0.82362 0.0
C108 C 0.33838 0.55915 0.85879 0.0
C109 C 0.31599 0.56768 0.84605 0.0
H110 H 0.27825 0.55523 0.81284 0.0
H111 H 0.32013 0.49279 0.81459 0.0
C112 C 0.29615 0.43873 0.70117 0.0
N113 N 0.2807 0.42832 0.72796 0.0
C114 C 0.31046 0.42201 0.68736 0.0
C115 C 0.29412 0.38486 0.7295 0.0
C116 C 0.27976 0.4021 0.74236 0.0
C117 C 0.30955 0.39466 0.70154 0.0
H118 H 0.29763 0.46032 0.69062 0.0
H119 H 0.26822 0.39461 0.76392 0.0
C120 C 0.21956 0.52228 0.76221 0.0
N121 N 0.1959 0.56346 0.7441 0.0
C122 C 0.18565 0.50918 0.75662 0.0
C123 C 0.24143 0.55635 0.75871 0.0
C124 C 0.17417 0.53042 0.74749 0.0
C125 C 0.22899 0.57674 0.74947 0.0
C126 C 0.21954 0.43174 0.69779 0.0
C127 C 0.23546 0.44877 0.67175 0.0
C128 C 0.20231 0.39701 0.69793 0.0
C129 C 0.23404 0.43078 0.64638 0.0
C130 C 0.20152 0.37992 0.67212 0.0
N131 N 0.21727 0.39702 0.6471 0.0
C132 C 0.27632 0.55238 0.69033 0.0
C133 C 0.21833 0.51516 0.68597 0.0
C134 C 0.27529 0.57189 0.66716 0.0
N135 N 0.24807 0.52471 0.69928 0.0
C136 C 0.21619 0.5338 0.6626 0.0
C137 C 0.24495 0.56257 0.65288 0.0
H138 H 0.2997 0.55916 0.70099 0.0
H139 H 0.1963 0.49291 0.69345 0.0
C140 C 0.16157 0.43341 0.80749 0.0
N141 N 0.1686 0.42659 0.77995 0.0
C142 C 0.12905 0.41621 0.81848 0.0
C143 C 0.11177 0.38475 0.77279 0.0
C144 C 0.14456 0.40283 0.76256 0.0
C145 C 0.10348 0.39152 0.80104 0.0
H146 H 0.18117 0.45274 0.82066 0.0
H147 H 0.1508 0.39813 0.74063 0.0
O148 O 0.29296 0.50252 0.73958 0.0
O149 O 0.24865 0.44864 0.78627 0.0
O150 O 0.2314 0.50177 0.77045 0.0
O151 O 0.2211 0.44894 0.72304 0.0
H152 H 0.3375 0.48373 0.74918 0.0
H153 H 0.32093 0.56697 0.75063 0.0
H154 H 0.39542 0.52105 0.76596 0.0
H155 H 0.37916 0.60281 0.76741 0.0
H156 H 0.18168 0.33682 0.79502 0.0
H157 H 0.27224 0.44086 0.8373 0.0
H158 H 0.20079 0.38988 0.768 0.0
H159 H 0.25214 0.3869 0.86308 0.0
H160 H 0.35686 0.52453 0.85613 0.0
H161 H 0.31379 0.58829 0.85453 0.0
H162 H 0.3227 0.4308 0.66607 0.0
H163 H 0.29293 0.36391 0.74119 0.0
H164 H 0.16839 0.48286 0.759 0.0
H165 H 0.26781 0.56685 0.76257 0.0
H166 H 0.14801 0.5206 0.74297 0.0
H167 H 0.24566 0.6031 0.74645 0.0
H168 H 0.24938 0.47557 0.67119 0.0
H169 H 0.18975 0.38327 0.71772 0.0
H170 H 0.24645 0.44368 0.62617 0.0
H171 H 0.18838 0.35306 0.672 0.0
H172 H 0.29811 0.59362 0.66008 0.0
H173 H 0.19226 0.52588 0.65237 0.0
H174 H 0.12393 0.42285 0.84011 0.0
H175 H 0.09313 0.36569 0.75866 0.0
Li176 Li 0.8183 0.26085 0.92101 0.0
Li177 Li 0.78421 0.27069 0.95694 0.0
Li178 Li 0.77143 0.21303 0.94322 0.0
Li179 Li 0.75945 0.24627 0.90773 0.0
C180 C 0.8417 0.25767 0.97468 0.0
N181 N 0.9049 0.2769 0.99514 0.0
C182 C 0.85832 0.28551 0.99299 0.0
C183 C 0.85704 0.23937 0.96705 0.0
C184 C 0.8903 0.29488 1.00306 0.0
C185 C 0.88906 0.24958 0.97752 0.0
C186 C 0.80294 0.321 0.91098 0.0
C187 C 0.77982 0.3562 0.90018 0.0
N188 N 0.81108 0.38297 0.89898 0.0
C189 C 0.83485 0.3488 0.90925 0.0
C190 C 0.77521 0.32467 0.90608 0.0
C191 C 0.83844 0.37993 0.90333 0.0
C192 C 0.8686 0.26484 0.88211 0.0
N193 N 0.86265 0.27909 0.90596 0.0
C194 C 0.92035 0.32004 0.90919 0.0
C195 C 0.88767 0.30639 0.91933 0.0
C196 C 0.9273 0.30586 0.88465 0.0
C197 C 0.90092 0.27801 0.87091 0.0
H198 H 0.84823 0.2433 0.87172 0.0
H199 H 0.88224 0.31763 0.93791 0.0
C200 C 0.76294 0.28232 0.01184 0.0
N201 N 0.78389 0.29786 0.98867 0.0
C202 C 0.76044 0.30077 0.03516 0.0
C203 C 0.80213 0.35089 0.01098 0.0
C204 C 0.80372 0.33145 0.98807 0.0
C205 C 0.78001 0.33559 0.03482 0.0
H206 H 0.7479 0.25552 0.01207 0.0
H207 H 0.82077 0.34323 0.96984 0.0
C208 C 0.77348 0.18988 0.8899 0.0
N209 N 0.75313 0.12614 0.87067 0.0
C210 C 0.7437 0.17205 0.87419 0.0
C211 C 0.7931 0.17547 0.89556 0.0
C212 C 0.7338 0.13981 0.86471 0.0
C213 C 0.78231 0.14315 0.88575 0.0
C214 C 0.71103 0.22797 0.95629 0.0
C215 C 0.6841 0.19713 0.96429 0.0
C216 C 0.70765 0.2562 0.95716 0.0
C217 C 0.65408 0.19498 0.97266 0.0
C218 C 0.67726 0.25304 0.96569 0.0
N219 N 0.6513 0.22275 0.97317 0.0
C220 C 0.77072 0.16313 0.98025 0.0
C221 C 0.72481 0.14433 0.94752 0.0
C222 C 0.7575 0.13135 0.9925 0.0
N223 N 0.75423 0.169 0.95825 0.0
C224 C 0.71079 0.11217 0.95897 0.0
C225 C 0.72703 0.10539 0.98196 0.0
H226 H 0.79388 0.18324 0.98864 0.0
H227 H 0.71188 0.14979 0.93041 0.0
C228 C 0.74513 0.26164 0.851 0.0
N229 N 0.73086 0.24533 0.87675 0.0
C230 C 0.72542 0.26273 0.828 0.0
C231 C 0.67674 0.23018 0.85844 0.0
C232 C 0.69729 0.22923 0.8806 0.0
C233 C 0.69081 0.24721 0.83182 0.0
H234 H 0.77189 0.27412 0.8485 0.0
H235 H 0.68633 0.21568 0.90083 0.0
O236 O 0.81054 0.24835 0.96435 0.0
O237 O 0.79906 0.2903 0.91658 0.0
O238 O 0.78334 0.22127 0.89972 0.0
O239 O 0.74055 0.23042 0.94794 0.0
H240 H 0.84673 0.29986 0.99918 0.0
H241 H 0.84445 0.21771 0.95297 0.0
H242 H 0.90354 0.31648 0.01711 0.0
H243 H 0.90134 0.23581 0.97161 0.0
H244 H 0.75855 0.35938 0.89642 0.0
H245 H 0.85662 0.34643 0.91262 0.0
H246 H 0.75038 0.30342 0.90648 0.0
H247 H 0.86298 0.40167 0.90214 0.0
H248 H 0.93993 0.34181 0.92012 0.0
H249 H 0.9053 0.26632 0.85198 0.0
H250 H 0.74352 0.28789 0.05335 0.0
H251 H 0.81761 0.37764 0.00974 0.0
H252 H 0.72826 0.18288 0.86959 0.0
H253 H 0.81629 0.18902 0.90756 0.0
H254 H 0.71072 0.12564 0.85267 0.0
H255 H 0.79713 0.1316 0.89013 0.0
H256 H 0.6863 0.17505 0.964 0.0
H257 H 0.72837 0.28035 0.95173 0.0
H258 H 0.63301 0.17124 0.9788 0.0
H259 H 0.67434 0.27471 0.96649 0.0
H260 H 0.77094 0.12717 0.01007 0.0
H261 H 0.68701 0.09305 0.95051 0.0
H262 H 0.73713 0.27614 0.80775 0.0
H263 H 0.65008 0.21749 0.86197 0.0
Li264 Li 0.5657 0.80838 0.07386 0.0
Li265 Li 0.52262 0.77526 0.10922 0.0
Li266 Li 0.56605 0.76224 0.09821 0.0
Li267 Li 0.52387 0.75173 0.06176 0.0
C268 C 0.57698 0.83076 0.13269 0.0
N269 N 0.58866 0.88645 0.16438 0.0
C270 C 0.56305 0.84984 0.12333 0.0
C271 C 0.59684 0.84 0.15815 0.0
C272 C 0.56925 0.8779 0.13966 0.0
C273 C 0.60246 0.86825 0.17388 0.0
C274 C 0.48465 0.78073 0.06371 0.0
C275 C 0.42598 0.74198 0.06951 0.0
N276 N 0.41902 0.76189 0.05243 0.0
C277 C 0.47692 0.80081 0.04624 0.0
C278 C 0.45899 0.75107 0.07548 0.0
C279 C 0.44359 0.79086 0.04078 0.0
C280 C 0.58 0.85853 0.03228 0.0
N281 N 0.59209 0.85162 0.0571 0.0
C282 C 0.63999 0.90606 0.05653 0.0
C283 C 0.62153 0.87454 0.06933 0.0
C284 C 0.62801 0.91407 0.03095 0.0
C285 C 0.59755 0.88973 0.01883 0.0
H286 H 0.55656 0.83978 0.02302 0.0
H287 H 0.63068 0.8684 0.08904 0.0
C288 C 0.48827 0.75621 0.164 0.0
N289 N 0.49466 0.77625 0.13995 0.0
C290 C 0.46716 0.75543 0.18657 0.0
C291 C 0.45973 0.79604 0.15922 0.0
C292 C 0.4812 0.79627 0.13736 0.0
C293 C 0.45233 0.77531 0.18417 0.0
H294 H 0.49939 0.74061 0.16549 0.0
H295 H 0.4869 0.81226 0.1182 0.0
C296 C 0.60525 0.78733 0.04693 0.0
N297 N 0.67122 0.81534 0.03032 0.0
C298 C 0.61355 0.78228 0.0183 0.0
C299 C 0.63051 0.80664 0.06712 0.0
C300 C 0.64705 0.79664 0.01032 0.0
C301 C 0.6637 0.82058 0.0583 0.0
C302 C 0.51157 0.69906 0.09938 0.0
C303 C 0.52665 0.69057 0.07678 0.0
C304 C 0.49065 0.67492 0.11978 0.0
C305 C 0.52053 0.658 0.07499 0.0
C306 C 0.48513 0.6426 0.11723 0.0
N307 N 0.50007 0.63488 0.09508 0.0
C308 C 0.59408 0.74545 0.14564 0.0
C309 C 0.60819 0.73344 0.09845 0.0
C310 C 0.61219 0.73283 0.15988 0.0
N311 N 0.59248 0.74558 0.11549 0.0
C312 C 0.6269 0.72095 0.11173 0.0
C313 C 0.62905 0.72039 0.14292 0.0
H314 H 0.58096 0.75485 0.15864 0.0
H315 H 0.60616 0.73333 0.07451 0.0
C316 C 0.50774 0.73498 1.00181 0.0
N317 N 0.49726 0.72408 0.02994 0.0
C318 C 0.48864 0.71685 0.97746 0.0
C319 C 0.4484 0.67645 0.0115 0.0
C320 C 0.46824 0.6954 0.03519 0.0
C321 C 0.45843 0.6872 0.98213 0.0
H322 H 0.53084 0.758 0.99834 0.0
H323 H 0.46018 0.68747 0.05777 0.0
O324 O 0.57129 0.8031 0.1172 0.0
O325 O 0.51724 0.79022 0.06911 0.0
O326 O 0.57251 0.77352 0.05488 0.0
O327 O 0.51729 0.73082 0.10183 0.0
H328 H 0.54768 0.84316 0.10365 0.0
H329 H 0.60779 0.82547 0.16567 0.0
H330 H 0.55864 0.89289 0.13266 0.0
H331 H 0.61779 0.8757 0.19363 0.0
H332 H 0.40589 0.7191 0.07848 0.0
H333 H 0.49649 0.82388 0.03701 0.0
H334 H 0.46442 0.73524 0.08915 0.0
H335 H 0.43725 0.80617 0.02729 0.0
H336 H 0.66352 0.92382 0.06643 0.0
H337 H 0.58706 0.89486 0.99942 0.0
H338 H 0.46194 0.73897 0.20538 0.0
H339 H 0.44918 0.81208 0.15673 0.0
H340 H 0.59427 0.76742 1.00241 0.0
H341 H 0.62462 0.81077 0.0894 0.0
H342 H 0.65383 0.79294 0.98822 0.0
H343 H 0.68349 0.83555 0.0737 0.0
H344 H 0.54289 0.70886 0.06074 0.0
H345 H 0.47881 0.68112 0.13741 0.0
H346 H 0.53204 0.65109 0.05762 0.0
H347 H 0.46899 0.62365 0.13288 0.0
H348 H 0.61246 0.73235 0.18394 0.0
H349 H 0.63972 0.71208 0.09764 0.0
H350 H 0.4975 0.72589 0.95521 0.0
H351 H 0.42507 0.65403 0.01615 0.0
Li352 Li 0.76988 0.56932 0.2503 0.0
Li353 Li 0.76194 0.52758 0.28695 0.0
Li354 Li 0.81846 0.57197 0.2726 0.0
Li355 Li 0.78581 0.52687 0.23799 0.0
C356 C 0.77908 0.60139 0.3039 0.0
N357 N 0.7706 0.65246 0.32507 0.0
C358 C 0.75568 0.59528 0.32619 0.0
C359 C 0.79832 0.63351 0.29255 0.0
C360 C 0.75173 0.62142 0.33656 0.0
C361 C 0.79362 0.65898 0.30349 0.0
C362 C 0.70791 0.51195 0.24774 0.0
C363 C 0.65325 0.48556 0.22568 0.0
N364 N 0.64217 0.49654 0.2486 0.0
C365 C 0.69596 0.52291 0.27108 0.0
C366 C 0.6864 0.49309 0.22485 0.0
C367 C 0.66267 0.51489 0.27112 0.0
C368 C 0.75606 0.60035 0.20337 0.0
N369 N 0.75052 0.59351 0.23291 0.0
C370 C 0.71519 0.6173 0.23451 0.0
C371 C 0.7304 0.60153 0.24853 0.0
C372 C 0.72017 0.62431 0.20397 0.0
C373 C 0.741 0.61572 0.18836 0.0
H374 H 0.77177 0.5933 0.19133 0.0
H375 H 0.72541 0.59508 0.27174 0.0
C376 C 0.74554 0.51097 0.34728 0.0
N377 N 0.73536 0.50029 0.31908 0.0
C378 C 0.72658 0.49224 0.37153 0.0
C379 C 0.68725 0.45159 0.33724 0.0
C380 C 0.70704 0.47104 0.31368 0.0
C381 C 0.69683 0.46216 0.3667 0.0
H382 H 0.76838 0.53417 0.3509 0.0
H383 H 0.69963 0.46288 0.29106 0.0
C384 C 0.83993 0.59859 0.21847 0.0
N385 N 0.90104 0.64634 0.19662 0.0
C386 C 0.86241 0.58945 0.20756 0.0
C387 C 0.84826 0.63192 0.21777 0.0
C388 C 0.89326 0.61399 0.19675 0.0
C389 C 0.87935 0.65572 0.20676 0.0
C390 C 0.79533 0.49211 0.28416 0.0
C391 C 0.81722 0.48693 0.30162 0.0
C392 C 0.76636 0.46486 0.27321 0.0
C393 C 0.80971 0.45447 0.30789 0.0
C394 C 0.75974 0.43279 0.27998 0.0
N395 N 0.78137 0.4283 0.29704 0.0
C396 C 0.87155 0.62494 0.30531 0.0
C397 C 0.88583 0.59053 0.27766 0.0
C398 C 0.90418 0.64368 0.31574 0.0
N399 N 0.86309 0.59909 0.28646 0.0
C400 C 0.91876 0.60868 0.28739 0.0
C401 C 0.92836 0.63564 0.30682 0.0
H402 H 0.85292 0.63072 0.31274 0.0
H403 H 0.87829 0.56941 0.26317 0.0
C404 C 0.76679 0.4895 0.1847 0.0
N405 N 0.78879 0.5 0.20761 0.0
C406 C 0.76882 0.46998 0.16208 0.0
C407 C 0.81628 0.47273 0.18699 0.0
C408 C 0.81328 0.4921 0.20913 0.0
C409 C 0.79387 0.46139 0.16302 0.0
H410 H 0.74787 0.49655 0.18387 0.0
H411 H 0.83058 0.50099 0.22753 0.0
O412 O 0.78309 0.57602 0.29333 0.0
O413 O 0.74052 0.51976 0.24712 0.0
O414 O 0.80975 0.57496 0.2294 0.0
O415 O 0.80238 0.52379 0.27795 0.0
H416 H 0.74058 0.57059 0.33529 0.0
H417 H 0.81664 0.63868 0.27545 0.0
H418 H 0.73362 0.61702 0.35372 0.0
H419 H 0.80828 0.68393 0.29481 0.0
H420 H 0.63633 0.471 0.2081 0.0
H421 H 0.71223 0.5375 0.28895 0.0
H422 H 0.69519 0.48433 0.20663 0.0
H423 H 0.65314 0.52328 0.28905 0.0
H424 H 0.69885 0.623 0.24724 0.0
H425 H 0.74554 0.62079 0.16479 0.0
H426 H 0.73529 0.50112 0.39381 0.0
H427 H 0.66439 0.42881 0.33236 0.0
H428 H 0.85625 0.56374 0.20772 0.0
H429 H 0.83084 0.63932 0.22545 0.0
H430 H 0.91103 0.6073 0.18849 0.0
H431 H 0.88618 0.68163 0.20621 0.0
H432 H 0.83977 0.50781 0.31024 0.0
H433 H 0.74916 0.46837 0.25959 0.0
H434 H 0.82643 0.45007 0.32139 0.0
H435 H 0.7374 0.41147 0.27166 0.0
H436 H 0.91018 0.66376 0.33118 0.0
H437 H 0.9365 0.60168 0.27966 0.0
H438 H 0.75133 0.4622 0.14381 0.0
H439 H 0.83575 0.46644 0.18877 0.0
Li440 Li 0.22076 0.76235 0.4134 0.0
Li441 Li 0.25384 0.75506 0.44929 0.0
Li442 Li 0.26655 0.81163 0.43564 0.0
Li443 Li 0.27631 0.77438 0.39937 0.0
C444 C 0.2024 0.77961 0.46915 0.0
N445 N 0.15301 0.78644 0.49694 0.0
C446 C 0.1793 0.75437 0.48761 0.0
C447 C 0.20073 0.8086 0.46528 0.0
C448 C 0.1544 0.75821 0.50131 0.0
C449 C 0.17549 0.81151 0.47941 0.0
C450 C 0.21536 0.69861 0.4154 0.0
C451 C 0.19436 0.64055 0.40532 0.0
N452 N 0.16873 0.63256 0.42447 0.0
C453 C 0.18885 0.68985 0.43495 0.0
C454 C 0.21819 0.67382 0.40042 0.0
C455 C 0.16551 0.65632 0.43925 0.0
C456 C 0.16938 0.72043 0.37454 0.0
N457 N 0.17651 0.74309 0.39655 0.0
C458 C 0.12153 0.73531 0.39338 0.0
C459 C 0.15348 0.75114 0.40568 0.0
C460 C 0.11318 0.71093 0.37142 0.0
C461 C 0.13776 0.70388 0.36177 0.0
H462 H 0.1883 0.71508 0.36693 0.0
H463 H 0.15963 0.76975 0.4225 0.0
C464 C 0.25029 0.73778 0.50993 0.0
N465 N 0.25444 0.72921 0.48203 0.0
C466 C 0.25111 0.7198 0.5345 0.0
C467 C 0.26031 0.68442 0.50113 0.0
C468 C 0.25955 0.70323 0.47724 0.0
C469 C 0.25607 0.69263 0.53023 0.0
H470 H 0.24651 0.75873 0.51306 0.0
H471 H 0.26338 0.69731 0.45488 0.0
C472 C 0.23647 0.80578 0.37113 0.0
N473 N 0.19508 0.80941 0.32904 0.0
C474 C 0.23185 0.78997 0.34371 0.0
C475 C 0.22032 0.82371 0.37707 0.0
C476 C 0.21076 0.79204 0.32273 0.0
C477 C 0.19942 0.82518 0.35552 0.0
C478 C 0.31819 0.78811 0.45629 0.0
C479 C 0.32665 0.80256 0.48449 0.0
C480 C 0.32931 0.76657 0.44717 0.0
C481 C 0.34601 0.79506 0.50322 0.0
C482 C 0.34866 0.75974 0.46654 0.0
N483 N 0.35651 0.77398 0.49394 0.0
C484 C 0.28862 0.86276 0.4785 0.0
C485 C 0.29416 0.88085 0.42847 0.0
C486 C 0.30366 0.89553 0.48862 0.0
N487 N 0.28456 0.85616 0.44889 0.0
C488 C 0.30904 0.91395 0.4376 0.0
C489 C 0.31441 0.92176 0.46805 0.0
H490 H 0.28061 0.84256 0.49423 0.0
H491 H 0.29058 0.87484 0.40505 0.0
C492 C 0.29221 0.75185 0.34675 0.0
N493 N 0.30487 0.77433 0.36921 0.0
C494 C 0.31322 0.75144 0.32466 0.0
C495 C 0.35986 0.797 0.34957 0.0
C496 C 0.33792 0.79676 0.37096 0.0
C497 C 0.34757 0.77415 0.32601 0.0
H498 H 0.26581 0.73418 0.34606 0.0
H499 H 0.34724 0.81436 0.38911 0.0
O500 O 0.22733 0.77652 0.45604 0.0
O501 O 0.23863 0.73127 0.4109 0.0
O502 O 0.25615 0.80312 0.39229 0.0
O503 O 0.2983 0.79419 0.43802 0.0
H504 H 0.18067 0.73212 0.4915 0.0
H505 H 0.21847 0.82851 0.45131 0.0
H506 H 0.13628 0.7388 0.51554 0.0
H507 H 0.17377 0.83369 0.47641 0.0
H508 H 0.19624 0.62108 0.39391 0.0
H509 H 0.18625 0.70873 0.44654 0.0
H510 H 0.23864 0.68025 0.38522 0.0
H511 H 0.14483 0.6492 0.4543 0.0
H512 H 0.10335 0.74154 0.40149 0.0
H513 H 0.13264 0.68579 0.34444 0.0
H514 H 0.24753 0.72682 0.55655 0.0
H515 H 0.26471 0.66401 0.49691 0.0
H516 H 0.2441 0.77592 0.33882 0.0
H517 H 0.22366 0.83613 0.39816 0.0
H518 H 0.20675 0.77972 0.30149 0.0
H519 H 0.18659 0.83879 0.35987 0.0
H520 H 0.31808 0.81911 0.49194 0.0
H521 H 0.32261 0.75484 0.42555 0.0
H522 H 0.3526 0.80592 0.52517 0.0
H523 H 0.35727 0.74297 0.45985 0.0
H524 H 0.30759 0.90023 0.51225 0.0
H525 H 0.31634 0.93319 0.42093 0.0
H526 H 0.30282 0.73324 0.30701 0.0
H527 H 0.38612 0.81512 0.35124 0.0
H528 H 0.40662 0.07481 0.49593 0.0
H529 H 0.34334 0.04713 0.57333 0.0
H530 H 0.31137 0.99004 0.55517 0.0
H531 H 0.30196 0.94785 0.51766 0.0
H532 H 0.36709 0.97522 0.44139 0.0
H533 H 0.3971 0.03264 0.45835 0.0
C534 C 0.38558 0.05635 0.50863 0.0
C535 C 0.37735 0.06519 0.53591 0.0
C536 C 0.36754 0.02352 0.4982 0.0
C537 C 0.35034 0.04088 0.55237 0.0
C538 C 0.332 1.00827 0.54196 0.0
C539 C 0.32287 0.96627 0.50483 0.0
C540 C 0.33208 0.95702 0.47821 0.0
C541 C 0.34055 0.99923 0.51502 0.0
C542 C 0.35895 0.98154 0.46168 0.0
C543 C 0.37637 0.01442 0.47149 0.0
H544 H 0.36702 0.32215 0.62299 0.0
H545 H 0.41519 0.32557 0.70611 0.0
H546 H 0.3872 0.35187 0.73008 0.0
H547 H 0.35025 0.37547 0.72731 0.0
H548 H 0.30396 0.37434 0.64387 0.0
H549 H 0.33057 0.3463 0.62007 0.0
C550 C 0.37169 0.32891 0.64628 0.0
C551 C 0.39316 0.32164 0.66264 0.0
C552 C 0.35596 0.34465 0.65989 0.0
C553 C 0.39838 0.3302 0.69298 0.0
C554 C 0.38256 0.34552 0.70672 0.0
C555 C 0.34577 0.36879 0.70399 0.0
C556 C 0.32514 0.37692 0.68739 0.0
C557 C 0.36136 0.35293 0.6904 0.0
C558 C 0.31996 0.36858 0.65706 0.0
C559 C 0.33508 0.35246 0.64347 0.0
H560 H 0.94867 0.32072 0.8274 0.0
H561 H 0.98352 0.32378 0.91683 0.0
H562 H 0.04086 0.34945 0.89884 0.0
H563 H 0.08109 0.37158 0.85782 0.0
H564 H 0.04646 0.37147 0.76867 0.0
H565 H 0.98912 0.34336 0.78632 0.0
C566 C 0.96883 0.32675 0.84287 0.0
C567 C 0.9619 0.32037 0.87338 0.0
C568 C 1.00179 0.34191 0.83241 0.0
C569 C 0.98828 0.32871 0.89326 0.0
C570 C 0.02104 0.34329 0.88298 0.0
C571 C 0.0611 0.36574 0.84223 0.0
C572 C 0.06835 0.3737 0.81188 0.0
C573 C 0.02812 0.35024 0.85262 0.0
C574 C 0.04183 0.36523 0.79204 0.0
C575 C 1.00893 0.34936 0.80216 0.0
H576 H 0.66173 0.974 0.059 0.0
H577 H 0.63666 0.92975 0.97167 0.0
H578 H 0.66523 0.98477 0.9489 0.0
H579 H 0.69675 0.04558 0.95371 0.0
H580 H 0.72244 0.08974 0.04098 0.0
H581 H 0.69506 0.03464 0.06375 0.0
C582 C 0.66289 0.97631 0.03497 0.0
C583 C 0.64682 0.94766 0.01714 0.0
C584 C 0.67962 1.00806 0.02197 0.0
C585 C 0.64825 0.95131 0.98601 0.0
C586 C 0.66478 0.98279 0.97293 0.0
C587 C 0.69626 0.04313 0.97771 0.0
C588 C 0.71158 0.07176 0.99559 0.0
C589 C 0.68033 0.01135 0.99069 0.0
C590 C 0.71117 0.06814 0.02666 0.0
C591 C 0.69532 0.03663 0.03973 0.0
H592 H 0.7149 0.67755 0.22126 0.0
H593 H 0.68609 0.6045 0.15168 0.0
H594 H 0.65549 0.6277 0.12666 0.0
H595 H 0.63552 0.66755 0.12539 0.0
H596 H 0.66656 0.74242 0.19378 0.0
H597 H 0.69694 0.71915 0.21873 0.0
C598 C 0.70186 0.66672 0.20063 0.0
C599 C 0.70271 0.63934 0.18835 0.0
C600 C 0.68445 0.68029 0.18629 0.0
C601 C 0.68606 0.62578 0.16143 0.0
C602 C 0.66841 0.63892 0.14721 0.0
C603 C 0.64931 0.67919 0.14549 0.0
C604 C 0.64844 0.70668 0.15766 0.0
C605 C 0.66734 0.6661 0.15949 0.0
C606 C 0.66609 0.72087 0.1841 0.0
C607 C 0.68375 0.70774 0.19832 0.0
H608 H 0.07319 0.73555 0.35452 0.0
H609 H 0.07605 0.64439 0.36093 0.0
H610 H 0.01956 0.61328 0.3413 0.0
H611 H 0.96892 0.61166 0.32341 0.0
H612 H 0.96611 0.70281 0.31598 0.0
H613 H 0.02264 0.73402 0.33558 0.0
C614 C 0.06136 0.70885 0.35177 0.0
C615 C 0.07888 0.69236 0.35915 0.0
C616 C 0.02878 0.69105 0.34048 0.0
C617 C 0.06332 0.65779 0.35508 0.0
C618 C 0.03093 0.63993 0.34401 0.0
C619 C 0.98076 0.63841 0.32567 0.0
C620 C 0.96313 0.65477 0.3182 0.0
C621 C 1.01342 0.65629 0.33666 0.0
C622 C 0.97881 0.68942 0.32191 0.0
C623 C 1.01126 0.70736 0.33296 0.0
H624 H 0.61257 0.39754 0.48345 0.0
H625 H 0.59027 0.30777 0.43654 0.0
H626 H 0.62565 0.3406 0.39532 0.0
H627 H 0.66295 0.39468 0.37251 0.0
H628 H 0.68327 0.48448 0.41827 0.0
H629 H 0.64876 0.45172 0.45997 0.0
C630 C 0.61514 0.38512 0.46408 0.0
C631 C 0.59879 0.35018 0.46323 0.0
C632 C 0.63531 0.40415 0.44025 0.0
C633 C 0.60291 0.3346 0.43808 0.0
C634 C 0.623 0.35335 0.41437 0.0
C635 C 0.65958 0.40713 0.39144 0.0
C636 C 0.6758 0.44207 0.39215 0.0
C637 C 0.63933 0.38814 0.41522 0.0
C638 C 0.67155 0.45769 0.41721 0.0
C639 C 0.6516 0.43895 0.44103 0.0
H640 H 0.22586 0.62544 0.53508 0.0
H641 H 0.2882 0.71593 0.58321 0.0
H642 H 0.29009 0.68378 0.62545 0.0
H643 H 0.27432 0.62988 0.6486 0.0
H644 H 0.21208 0.53947 0.60028 0.0
H645 H 0.20984 0.57163 0.55828 0.0
C646 C 0.24005 0.63811 0.55474 0.0
C647 C 0.25693 0.67302 0.55597 0.0
C648 C 0.24098 0.61948 0.57894 0.0
C649 C 0.27474 0.68908 0.58181 0.0
C650 C 0.27597 0.67072 0.60591 0.0
C651 C 0.26045 0.61725 0.62879 0.0
C652 C 0.24342 0.58233 0.62757 0.0
C653 C 0.25924 0.63591 0.6047 0.0
C654 C 0.22512 0.5663 0.60192 0.0
C655 C 0.22396 0.58468 0.57783 0.0
H656 H 0.68886 0.23175 0.77337 0.0
H657 H 0.64459 0.26638 0.83803 0.0
H658 H 0.6084 0.26877 0.79974 0.0
H659 H 0.58875 0.26017 0.74795 0.0
H660 H 0.63086 0.22274 0.68379 0.0
H661 H 0.66849 0.22222 0.72166 0.0
C662 C 0.6714 0.23999 0.77893 0.0
C663 C 0.66938 0.24898 0.80835 0.0
C664 C 0.65026 0.2407 0.75692 0.0
C665 C 0.64639 0.2592 0.8155 0.0
C666 C 0.62579 0.26064 0.79363 0.0
C667 C 0.60634 0.25212 0.74231 0.0
C668 C 0.60721 0.24164 0.71319 0.0
C669 C 0.62742 0.25134 0.7643 0.0
C670 C 0.62971 0.23077 0.70615 0.0
C671 C 0.65125 0.23056 0.72775 0.0
H672 H 0.37271 0.62638 0.86573 0.0
H673 H 0.35261 0.5352 0.90881 0.0
H674 H 0.38819 0.56665 0.95042 0.0
H675 H 0.42492 0.62003 0.97471 0.0
H676 H 0.44419 0.71118 0.9321 0.0
H677 H 0.40911 0.67977 0.89022 0.0
C678 C 0.37589 0.61338 0.88434 0.0
C679 C 0.35999 0.57847 0.88411 0.0
C680 C 0.39633 0.63162 0.90827 0.0
C681 C 0.36484 0.56205 0.90822 0.0
C682 C 0.38505 0.58001 0.93212 0.0
C683 C 0.42124 0.63302 0.95637 0.0
C684 C 0.43721 0.66793 0.95658 0.0
C685 C 0.4009 0.61479 0.93239 0.0
C686 C 0.43257 0.68437 0.93237 0.0
C687 C 0.41233 0.66641 0.90848 0.0
H688 H 0.83006 0.38972 0.06242 0.0
H689 H 0.72326 0.32679 0.06156 0.0
H690 H 0.71814 0.35984 0.10117 0.0
H691 H 0.74393 0.40674 0.13599 0.0
H692 H 0.85064 0.47033 0.13616 0.0
H693 H 0.85581 0.43693 0.09691 0.0
C694 C 0.80564 0.3834 0.07072 0.0
C695 C 0.77711 0.35579 0.05901 0.0
C696 C 0.80284 0.4026 0.09343 0.0
C697 C 0.74568 0.34765 0.07041 0.0
C698 C 0.7427 0.36666 0.09295 0.0
C699 C 0.76829 0.41347 0.12726 0.0
C700 C 0.79684 0.44101 0.13904 0.0
C701 C 0.7711 0.39421 0.1046 0.0
C702 C 0.82828 0.44903 0.12778 0.0
C703 C 0.83126 0.43005 0.1052 0.0
H704 H 0.33933 0.77079 0.26602 0.0
H705 H 0.40739 0.77747 0.33454 0.0
H706 H 0.44561 0.77795 0.29684 0.0
H707 H 0.45993 0.77698 0.24427 0.0
H708 H 0.39221 0.7712 0.17579 0.0
H709 H 0.35363 0.76984 0.21353 0.0
C710 C 0.36241 0.77208 0.27267 0.0
C711 C 0.37049 0.77404 0.30301 0.0
C712 C 0.38437 0.77261 0.25087 0.0
C713 C 0.40073 0.77623 0.31131 0.0
C714 C 0.42253 0.77637 0.28977 0.0
C715 C 0.43661 0.77517 0.23766 0.0
C716 C 0.42894 0.77419 0.20729 0.0
C717 C 0.41464 0.77464 0.25948 0.0
C718 C 0.39883 0.77232 0.19902 0.0
C719 C 0.3767 0.7714 0.22058 0.0
loop_
_geom_bond_atom_site_label_1
_geom_bond_atom_site_label_2
_geom_bond_distance
_geom_bond_site_symmetry_2
_ccdc_geom_bond_type
Li0 N17 1.990 . S
Li0 O60 1.956 . S
Li0 O61 1.970 . S
Li0 O62 1.961 . S
Li1 N25 1.990 . S
Li1 O60 1.970 . S
Li1 O61 1.956 . S
Li1 O63 1.961 . S
Li2 N47 1.990 . S
Li2 O60 1.961 . S
Li2 O62 1.956 . S
Li2 O63 1.970 . S
Li3 N53 1.990 . S
Li3 O61 1.961 . S
Li3 O62 1.970 . S
Li3 O63 1.956 . S
C4 C6 1.348 . S
C4 C7 1.356 . S
C4 O60 1.325 . S
N5 C8 1.314 . S
N5 C9 1.279 . S
C6 C4 1.348 . S
C6 C8 1.353 . S
C6 H64 0.929 . S
C7 C4 1.356 . S
C7 C9 1.358 . S
C7 H65 0.930 . S
C8 N5 1.314 . S
C8 C6 1.353 . S
C8 H66 0.930 . S
C9 N5 1.279 . S
C9 C7 1.358 . S
C9 H67 0.930 . S
C10 C13 1.348 . S
C10 C14 1.356 . S
C10 O61 1.325 . S
C11 N12 1.279 . S
C11 C14 1.358 . S
C11 H68 0.930 . S
N12 C11 1.279 . S
N12 C15 1.314 . S
C13 C10 1.348 . S
C13 C15 1.353 . S
C13 H69 0.929 . S
C14 C10 1.356 . S
C14 C11 1.358 . S
C14 H70 0.930 . S
C15 N12 1.314 . S
C15 C13 1.353 . S
C15 H71 0.930 . S
C16 N17 1.314 . S
C16 C21 1.353 . S
C16 H22 0.930 . S
N17 Li0 1.990 . S
N17 C16 1.314 . S
N17 C19 1.279 . S
C18 C19 1.358 . S
C18 C20 1.356 . S
C18 H72 0.930 . S
C19 N17 1.279 . S
C19 C18 1.358 . S
C19 H23 0.930 . S
C20 C18 1.356 . S
C20 C21 1.348 . S
C21 C16 1.353 . S
C21 C20 1.348 . S
C21 H73 0.929 . S
H22 C16 0.930 . S
H23 C19 0.930 . S
C24 N25 1.314 . S
C24 C26 1.353 . S
C24 H30 0.930 . S
N25 Li1 1.990 . S
N25 C24 1.314 . S
N25 C28 1.279 . S
C26 C24 1.353 . S
C26 C29 1.348 . S
C26 H74 0.929 . S
C27 C28 1.358 . S
C27 C29 1.356 . S
C27 H75 0.930 . S
C28 N25 1.279 . S
C28 C27 1.358 . S
C28 H31 0.930 . S
C29 C26 1.348 . S
C29 C27 1.356 . S
H30 C24 0.930 . S
H31 C28 0.930 . S
C32 C34 1.348 . S
C32 C35 1.356 . S
C32 O62 1.325 . S
N33 C36 1.314 . S
N33 C37 1.279 . S
C34 C32 1.348 . S
C34 C36 1.353 . S
C34 H76 0.929 . S
C35 C32 1.356 . S
C35 C37 1.358 . S
C35 H77 0.930 . S
C36 N33 1.314 . S
C36 C34 1.353 . S
C36 H78 0.930 . S
C37 N33 1.279 . S
C37 C35 1.358 . S
C37 H79 0.930 . S
C38 C39 1.348 . S
C38 C40 1.356 . S
C38 O63 1.325 . S
C39 C38 1.348 . S
C39 C41 1.353 . S
C39 H80 0.929 . S
C40 C38 1.356 . S
C40 C42 1.358 . S
C40 H81 0.930 . S
C41 C39 1.353 . S
C41 N43 1.314 . S
C41 H82 0.930 . S
C42 C40 1.358 . S
C42 N43 1.279 . S
C42 H83 0.930 . S
N43 C41 1.314 . S
N43 C42 1.279 . S
C44 C46 1.353 . S
C44 N47 1.314 . S
C44 H50 0.930 . S
C45 N47 1.279 . S
C45 C48 1.358 . S
C45 H51 0.930 . S
C46 C44 1.353 . S
C46 C49 1.348 . S
C46 H84 0.929 . S
N47 Li2 1.990 . S
N47 C44 1.314 . S
N47 C45 1.279 . S
C48 C45 1.358 . S
C48 C49 1.356 . S
C48 H85 0.930 . S
C49 C46 1.348 . S
C49 C48 1.356 . S
H50 C44 0.930 . S
H51 C45 0.930 . S
C52 N53 1.314 . S
C52 C54 1.353 . S
C52 H58 0.930 . S
N53 Li3 1.990 . S
N53 C52 1.314 . S
N53 C56 1.279 . S
C54 C52 1.353 . S
C54 C57 1.348 . S
C54 H86 0.929 . S
C55 C56 1.358 . S
C55 C57 1.356 . S
C55 H87 0.930 . S
C56 N53 1.279 . S
C56 C55 1.358 . S
C56 H59 0.930 . S
C57 C54 1.348 . S
C57 C55 1.356 . S
H58 C52 0.930 . S
H59 C56 0.930 . S
O60 Li0 1.956 . S
O60 Li1 1.970 . S
O60 Li2 1.961 . S
O60 C4 1.325 . S
O61 Li0 1.970 . S
O61 Li1 1.956 . S
O61 Li3 1.961 . S
O61 C10 1.325 . S
O62 Li0 1.961 . S
O62 Li2 1.956 . S
O62 Li3 1.970 . S
O62 C32 1.325 . S
O63 Li1 1.961 . S
O63 Li2 1.970 . S
O63 Li3 1.956 . S
O63 C38 1.325 . S
H64 C6 0.929 . S
H65 C7 0.930 . S
H66 C8 0.930 . S
H67 C9 0.930 . S
H68 C11 0.930 . S
H69 C13 0.929 . S
H70 C14 0.930 . S
H71 C15 0.930 . S
H72 C18 0.930 . S
H73 C21 0.929 . S
H74 C26 0.929 . S
H75 C27 0.930 . S
H76 C34 0.929 . S
H77 C35 0.930 . S
H78 C36 0.930 . S
H79 C37 0.930 . S
H80 C39 0.929 . S
H81 C40 0.930 . S
H82 C41 0.930 . S
H83 C42 0.930 . S
H84 C46 0.929 . S
H85 C48 0.930 . S
H86 C54 0.929 . S
H87 C55 0.930 . S
Li88 N105 1.990 . S
Li88 O148 1.956 . S
Li88 O149 1.970 . S
Li88 O150 1.961 . S
Li89 N113 1.990 . S
Li89 O148 1.970 . S
Li89 O149 1.956 . S
Li89 O151 1.961 . S
Li90 N135 1.990 . S
Li90 O148 1.961 . S
Li90 O150 1.956 . S
Li90 O151 1.970 . S
Li91 N141 1.990 . S
Li91 O149 1.961 . S
Li91 O150 1.970 . S
Li91 O151 1.956 . S
C92 C94 1.348 . S
C92 C95 1.356 . S
C92 O148 1.325 . S
N93 C96 1.314 . S
N93 C97 1.279 . S
C94 C92 1.348 . S
C94 C96 1.353 . S
C94 H152 0.929 . S
C95 C92 1.356 . S
C95 C97 1.358 . S
C95 H153 0.930 . S
C96 N93 1.314 . S
C96 C94 1.353 . S
C96 H154 0.930 . S
C97 N93 1.279 . S
C97 C95 1.358 . S
C97 H155 0.930 . S
C98 C101 1.348 . S
C98 C102 1.356 . S
C98 O149 1.325 . S
C99 N100 1.279 . S
C99 C102 1.358 . S
C99 H156 0.930 . S
N100 C99 1.279 . S
N100 C103 1.314 . S
C101 C98 1.348 . S
C101 C103 1.353 . S
C101 H157 0.929 . S
C102 C98 1.356 . S
C102 C99 1.358 . S
C102 H158 0.930 . S
C103 N100 1.314 . S
C103 C101 1.353 . S
C103 H159 0.930 . S
C104 N105 1.314 . S
C104 C109 1.353 . S
C104 H110 0.930 . S
N105 Li88 1.990 . S
N105 C104 1.314 . S
N105 C107 1.279 . S
C106 C107 1.358 . S
C106 C108 1.356 . S
C106 H160 0.930 . S
C107 N105 1.279 . S
C107 C106 1.358 . S
C107 H111 0.930 . S
C108 C106 1.356 . S
C108 C109 1.348 . S
C109 C104 1.353 . S
C109 C108 1.348 . S
C109 H161 0.929 . S
H110 C104 0.930 . S
H111 C107 0.930 . S
C112 N113 1.314 . S
C112 C114 1.353 . S
C112 H118 0.930 . S
N113 Li89 1.990 . S
N113 C112 1.314 . S
N113 C116 1.279 . S
C114 C112 1.353 . S
C114 C117 1.348 . S
C114 H162 0.929 . S
C115 C116 1.358 . S
C115 C117 1.356 . S
C115 H163 0.930 . S
C116 N113 1.279 . S
C116 C115 1.358 . S
C116 H119 0.930 . S
C117 C114 1.348 . S
C117 C115 1.356 . S
H118 C112 0.930 . S
H119 C116 0.930 . S
C120 C122 1.348 . S
C120 C123 1.356 . S
C120 O150 1.325 . S
N121 C124 1.314 . S
N121 C125 1.279 . S
C122 C120 1.348 . S
C122 C124 1.353 . S
C122 H164 0.929 . S
C123 C120 1.356 . S
C123 C125 1.358 . S
C123 H165 0.930 . S
C124 N121 1.314 . S
C124 C122 1.353 . S
C124 H166 0.930 . S
C125 N121 1.279 . S
C125 C123 1.358 . S
C125 H167 0.930 . S
C126 C127 1.348 . S
C126 C128 1.356 . S
C126 O151 1.325 . S
C127 C126 1.348 . S
C127 C129 1.353 . S
C127 H168 0.929 . S
C128 C126 1.356 . S
C128 C130 1.358 . S
C128 H169 0.930 . S
C129 C127 1.353 . S
C129 N131 1.314 . S
C129 H170 0.930 . S
C130 C128 1.358 . S
C130 N131 1.279 . S
C130 H171 0.930 . S
N131 C129 1.314 . S
N131 C130 1.279 . S
C132 C134 1.353 . S
C132 N135 1.314 . S
C132 H138 0.930 . S
C133 N135 1.279 . S
C133 C136 1.358 . S
C133 H139 0.930 . S
C134 C132 1.353 . S
C134 C137 1.348 . S
C134 H172 0.929 . S
N135 Li90 1.990 . S
N135 C132 1.314 . S
N135 C133 1.279 . S
C136 C133 1.358 . S
C136 C137 1.356 . S
C136 H173 0.930 . S
C137 C134 1.348 . S
C137 C136 1.356 . S
H138 C132 0.930 . S
H139 C133 0.930 . S
C140 N141 1.314 . S
C140 C142 1.353 . S
C140 H146 0.930 . S
N141 Li91 1.990 . S
N141 C140 1.314 . S
N141 C144 1.279 . S
C142 C140 1.353 . S
C142 C145 1.348 . S
C142 H174 0.929 . S
C143 C144 1.358 . S
C143 C145 1.356 . S
C143 H175 0.930 . S
C144 N141 1.279 . S
C144 C143 1.358 . S
C144 H147 0.930 . S
C145 C142 1.348 . S
C145 C143 1.356 . S
H146 C140 0.930 . S
H147 C144 0.930 . S
O148 Li88 1.956 . S
O148 Li89 1.970 . S
O148 Li90 1.961 . S
O148 C92 1.325 . S
O149 Li88 1.970 . S
O149 Li89 1.956 . S
O149 Li91 1.961 . S
O149 C98 1.325 . S
O150 Li88 1.961 . S
O150 Li90 1.956 . S
O150 Li91 1.970 . S
O150 C120 1.325 . S
O151 Li89 1.961 . S
O151 Li90 1.970 . S
O151 Li91 1.956 . S
O151 C126 1.325 . S
H152 C94 0.929 . S
H153 C95 0.930 . S
H154 C96 0.930 . S
H155 C97 0.930 . S
H156 C99 0.930 . S
H157 C101 0.929 . S
H158 C102 0.930 . S
H159 C103 0.930 . S
H160 C106 0.930 . S
H161 C109 0.929 . S
H162 C114 0.929 . S
H163 C115 0.930 . S
H164 C122 0.929 . S
H165 C123 0.930 . S
H166 C124 0.930 . S
H167 C125 0.930 . S
H168 C127 0.929 . S
H169 C128 0.930 . S
H170 C129 0.930 . S
H171 C130 0.930 . S
H172 C134 0.929 . S
H173 C136 0.930 . S
H174 C142 0.929 . S
H175 C143 0.930 . S
Li176 N193 1.990 . S
Li176 O236 1.956 . S
Li176 O237 1.970 . S
Li176 O238 1.961 . S
Li177 N201 1.990 . S
Li177 O236 1.970 . S
Li177 O237 1.956 . S
Li177 O239 1.961 . S
Li178 N223 1.990 . S
Li178 O236 1.961 . S
Li178 O238 1.956 . S
Li178 O239 1.970 . S
Li179 N229 1.990 . S
Li179 O237 1.961 . S
Li179 O238 1.970 . S
Li179 O239 1.956 . S
C180 C182 1.348 . S
C180 C183 1.356 . S
C180 O236 1.325 . S
N181 C184 1.314 . S
N181 C185 1.279 1_554 S
C182 C180 1.348 . S
C182 C184 1.353 1_556 S
C182 H240 0.929 . S
C183 C180 1.356 . S
C183 C185 1.358 . S
C183 H241 0.930 . S
C184 N181 1.314 . S
C184 C182 1.353 1_554 S
C184 H242 0.930 . S
C185 N181 1.279 1_556 S
C185 C183 1.358 . S
C185 H243 0.930 . S
C186 C189 1.348 . S
C186 C190 1.356 . S
C186 O237 1.325 . S
C187 N188 1.279 . S
C187 C190 1.358 . S
C187 H244 0.930 . S
N188 C187 1.279 . S
N188 C191 1.314 . S
C189 C186 1.348 . S
C189 C191 1.353 . S
C189 H245 0.929 . S
C190 C186 1.356 . S
C190 C187 1.358 . S
C190 H246 0.930 . S
C191 N188 1.314 . S
C191 C189 1.353 . S
C191 H247 0.930 . S
C192 N193 1.314 . S
C192 C197 1.353 . S
C192 H198 0.930 . S
N193 Li176 1.990 . S
N193 C192 1.314 . S
N193 C195 1.279 . S
C194 C195 1.358 . S
C194 C196 1.356 . S
C194 H248 0.930 . S
C195 N193 1.279 . S
C195 C194 1.358 . S
C195 H199 0.930 . S
C196 C194 1.356 . S
C196 C197 1.348 . S
C197 C192 1.353 . S
C197 C196 1.348 . S
C197 H249 0.929 . S
H198 C192 0.930 . S
H199 C195 0.930 . S
C200 N201 1.314 . S
C200 C202 1.353 1_556 S
C200 H206 0.932 . S
N201 Li177 1.990 . S
N201 C200 1.314 . S
N201 C204 1.279 . S
C202 C200 1.353 1_554 S
C202 C205 1.348 . S
C202 H250 0.929 . S
C203 C204 1.358 . S
C203 C205 1.356 1_556 S
C203 H251 0.930 . S
C204 N201 1.279 . S
C204 C203 1.358 . S
C204 H207 0.930 . S
C205 C202 1.348 . S
C205 C203 1.356 1_554 S
H206 C200 0.932 . S
H207 C204 0.930 . S
C208 C210 1.348 . S
C208 C211 1.356 . S
C208 O238 1.325 . S
N209 C212 1.314 . S
N209 C213 1.279 . S
C210 C208 1.348 . S
C210 C212 1.353 . S
C210 H252 0.929 . S
C211 C208 1.356 . S
C211 C213 1.358 . S
C211 H253 0.930 . S
C212 N209 1.314 . S
C212 C210 1.353 . S
C212 H254 0.930 . S
C213 N209 1.279 . S
C213 C211 1.358 . S
C213 H255 0.930 . S
C214 C215 1.348 . S
C214 C216 1.356 . S
C214 O239 1.325 . S
C215 C214 1.348 . S
C215 C217 1.353 . S
C215 H256 0.929 . S
C216 C214 1.356 . S
C216 C218 1.358 . S
C216 H257 0.930 . S
C217 C215 1.353 . S
C217 N219 1.314 . S
C217 H258 0.930 . S
C218 C216 1.358 . S
C218 N219 1.279 . S
C218 H259 0.930 . S
N219 C217 1.314 . S
N219 C218 1.279 . S
C220 C222 1.353 . S
C220 N223 1.314 . S
C220 H226 0.930 . S
C221 N223 1.279 . S
C221 C224 1.358 . S
C221 H227 0.930 . S
C222 C220 1.353 . S
C222 C225 1.348 . S
C222 H260 0.929 1_556 S
N223 Li178 1.990 . S
N223 C220 1.314 . S
N223 C221 1.279 . S
C224 C221 1.358 . S
C224 C225 1.356 . S
C224 H261 0.930 . S
C225 C222 1.348 . S
C225 C224 1.356 . S
H226 C220 0.930 . S
H227 C221 0.930 . S
C228 N229 1.314 . S
C228 C230 1.353 . S
C228 H234 0.930 . S
N229 Li179 1.990 . S
N229 C228 1.314 . S
N229 C232 1.279 . S
C230 C228 1.353 . S
C230 C233 1.348 . S
C230 H262 0.929 . S
C231 C232 1.358 . S
C231 C233 1.356 . S
C231 H263 0.930 . S
C232 N229 1.279 . S
C232 C231 1.358 . S
C232 H235 0.930 . S
C233 C230 1.348 . S
C233 C231 1.356 . S
H234 C228 0.930 . S
H235 C232 0.930 . S
O236 Li176 1.956 . S
O236 Li177 1.970 . S
O236 Li178 1.961 . S
O236 C180 1.325 . S
O237 Li176 1.970 . S
O237 Li177 1.956 . S
O237 Li179 1.961 . S
O237 C186 1.325 . S
O238 Li176 1.961 . S
O238 Li178 1.956 . S
O238 Li179 1.970 . S
O238 C208 1.325 . S
O239 Li177 1.961 . S
O239 Li178 1.970 . S
O239 Li179 1.956 . S
O239 C214 1.325 . S
H240 C182 0.929 . S
H241 C183 0.930 . S
H242 C184 0.930 . S
H243 C185 0.930 . S
H244 C187 0.930 . S
H245 C189 0.929 . S
H246 C190 0.930 . S
H247 C191 0.930 . S
H248 C194 0.930 . S
H249 C197 0.929 . S
H250 C202 0.929 . S
H251 C203 0.930 . S
H252 C210 0.929 . S
H253 C211 0.930 . S
H254 C212 0.930 . S
H255 C213 0.930 . S
H256 C215 0.929 . S
H257 C216 0.930 . S
H258 C217 0.930 . S
H259 C218 0.930 . S
H260 C222 0.929 1_554 S
H261 C224 0.930 . S
H262 C230 0.929 . S
H263 C231 0.930 . S
Li264 N281 1.990 . S
Li264 O324 1.956 . S
Li264 O325 1.970 . S
Li264 O326 1.961 . S
Li265 N289 1.990 . S
Li265 O324 1.970 . S
Li265 O325 1.956 . S
Li265 O327 1.961 . S
Li266 N311 1.990 . S
Li266 O324 1.961 . S
Li266 O326 1.956 . S
Li266 O327 1.970 . S
Li267 N317 1.990 . S
Li267 O325 1.961 . S
Li267 O326 1.970 . S
Li267 O327 1.956 . S
C268 C270 1.348 . S
C268 C271 1.356 . S
C268 O324 1.325 . S
N269 C272 1.314 . S
N269 C273 1.279 . S
C270 C268 1.348 . S
C270 C272 1.353 . S
C270 H328 0.929 . S
C271 C268 1.356 . S
C271 C273 1.358 . S
C271 H329 0.930 . S
C272 N269 1.314 . S
C272 C270 1.353 . S
C272 H330 0.930 . S
C273 N269 1.279 . S
C273 C271 1.358 . S
C273 H331 0.930 . S
C274 C277 1.348 . S
C274 C278 1.356 . S
C274 O325 1.325 . S
C275 N276 1.279 . S
C275 C278 1.358 . S
C275 H332 0.930 . S
N276 C275 1.279 . S
N276 C279 1.314 . S
C277 C274 1.348 . S
C277 C279 1.353 . S
C277 H333 0.929 . S
C278 C274 1.356 . S
C278 C275 1.358 . S
C278 H334 0.930 . S
C279 N276 1.314 . S
C279 C277 1.353 . S
C279 H335 0.930 . S
C280 N281 1.314 . S
C280 C285 1.353 . S
C280 H286 0.930 . S
N281 Li264 1.990 . S
N281 C280 1.314 . S
N281 C283 1.279 . S
C282 C283 1.358 . S
C282 C284 1.356 . S
C282 H336 0.930 . S
C283 N281 1.279 . S
C283 C282 1.358 . S
C283 H287 0.930 . S
C284 C282 1.356 . S
C284 C285 1.348 . S
C285 C280 1.353 . S
C285 C284 1.348 . S
C285 H337 0.929 1_554 S
H286 C280 0.930 . S
H287 C283 0.930 . S
C288 N289 1.314 . S
C288 C290 1.353 . S
C288 H294 0.930 . S
N289 Li265 1.990 . S
N289 C288 1.314 . S
N289 C292 1.279 . S
C290 C288 1.353 . S
C290 C293 1.348 . S
C290 H338 0.929 . S
C291 C292 1.358 . S
C291 C293 1.356 . S
C291 H339 0.930 . S
C292 N289 1.279 . S
C292 C291 1.358 . S
C292 H295 0.930 . S
C293 C290 1.348 . S
C293 C291 1.356 . S
H294 C288 0.930 . S
H295 C292 0.930 . S
C296 C298 1.348 . S
C296 C299 1.356 . S
C296 O326 1.325 . S
N297 C300 1.314 . S
N297 C301 1.279 1_556 S
C298 C296 1.348 . S
C298 C300 1.353 1_554 S
C298 H340 0.929 . S
C299 C296 1.356 . S
C299 C301 1.358 . S
C299 H341 0.930 . S
C300 N297 1.314 . S
C300 C298 1.353 1_556 S
C300 H342 0.930 . S
C301 N297 1.279 1_554 S
C301 C299 1.358 . S
C301 H343 0.930 . S
C302 C303 1.348 . S
C302 C304 1.356 . S
C302 O327 1.325 . S
C303 C302 1.348 . S
C303 C305 1.353 . S
C303 H344 0.929 . S
C304 C302 1.356 . S
C304 C306 1.358 . S
C304 H345 0.930 . S
C305 C303 1.353 . S
C305 N307 1.314 . S
C305 H346 0.930 . S
C306 C304 1.358 . S
C306 N307 1.279 . S
C306 H347 0.930 . S
N307 C305 1.314 . S
N307 C306 1.279 . S
C308 C310 1.353 . S
C308 N311 1.314 . S
C308 H314 0.930 . S
C309 N311 1.279 . S
C309 C312 1.358 . S
C309 H315 0.930 . S
C310 C308 1.353 . S
C310 C313 1.348 . S
C310 H348 0.929 . S
N311 Li266 1.990 . S
N311 C308 1.314 . S
N311 C309 1.279 . S
C312 C309 1.358 . S
C312 C313 1.356 . S
C312 H349 0.930 . S
C313 C310 1.348 . S
C313 C312 1.356 . S
H314 C308 0.930 . S
H315 C309 0.930 . S
C316 N317 1.314 . S
C316 C318 1.353 1_554 S
C316 H322 0.932 . S
N317 Li267 1.990 . S
N317 C316 1.314 . S
N317 C320 1.279 . S
C318 C316 1.353 1_556 S
C318 C321 1.348 . S
C318 H350 0.929 . S
C319 C320 1.358 . S
C319 C321 1.356 1_554 S
C319 H351 0.930 . S
C320 N317 1.279 . S
C320 C319 1.358 . S
C320 H323 0.930 . S
C321 C318 1.348 . S
C321 C319 1.356 1_556 S
H322 C316 0.932 . S
H323 C320 0.930 . S
O324 Li264 1.956 . S
O324 Li265 1.970 . S
O324 Li266 1.961 . S
O324 C268 1.325 . S
O325 Li264 1.970 . S
O325 Li265 1.956 . S
O325 Li267 1.961 . S
O325 C274 1.325 . S
O326 Li264 1.961 . S
O326 Li266 1.956 . S
O326 Li267 1.970 . S
O326 C296 1.325 . S
O327 Li265 1.961 . S
O327 Li266 1.970 . S
O327 Li267 1.956 . S
O327 C302 1.325 . S
H328 C270 0.929 . S
H329 C271 0.930 . S
H330 C272 0.930 . S
H331 C273 0.930 . S
H332 C275 0.930 . S
H333 C277 0.929 . S
H334 C278 0.930 . S
H335 C279 0.930 . S
H336 C282 0.930 . S
H337 C285 0.929 1_556 S
H338 C290 0.929 . S
H339 C291 0.930 . S
H340 C298 0.929 . S
H341 C299 0.930 . S
H342 C300 0.930 . S
H343 C301 0.930 . S
H344 C303 0.929 . S
H345 C304 0.930 . S
H346 C305 0.930 . S
H347 C306 0.930 . S
H348 C310 0.929 . S
H349 C312 0.930 . S
H350 C318 0.929 . S
H351 C319 0.930 . S
Li352 N369 1.990 . S
Li352 O412 1.956 . S
Li352 O413 1.970 . S
Li352 O414 1.961 . S
Li353 N377 1.990 . S
Li353 O412 1.970 . S
Li353 O413 1.956 . S
Li353 O415 1.961 . S
Li354 N399 1.990 . S
Li354 O412 1.961 . S
Li354 O414 1.956 . S
Li354 O415 1.970 . S
Li355 N405 1.990 . S
Li355 O413 1.961 . S
Li355 O414 1.970 . S
Li355 O415 1.956 . S
C356 C358 1.348 . S
C356 C359 1.356 . S
C356 O412 1.325 . S
N357 C360 1.314 . S
N357 C361 1.279 . S
C358 C356 1.348 . S
C358 C360 1.353 . S
C358 H416 0.929 . S
C359 C356 1.356 . S
C359 C361 1.358 . S
C359 H417 0.930 . S
C360 N357 1.314 . S
C360 C358 1.353 . S
C360 H418 0.930 . S
C361 N357 1.279 . S
C361 C359 1.358 . S
C361 H419 0.930 . S
C362 C365 1.348 . S
C362 C366 1.356 . S
C362 O413 1.325 . S
C363 N364 1.279 . S
C363 C366 1.358 . S
C363 H420 0.930 . S
N364 C363 1.279 . S
N364 C367 1.314 . S
C365 C362 1.348 . S
C365 C367 1.353 . S
C365 H421 0.929 . S
C366 C362 1.356 . S
C366 C363 1.358 . S
C366 H422 0.930 . S
C367 N364 1.314 . S
C367 C365 1.353 . S
C367 H423 0.930 . S
C368 N369 1.314 . S
C368 C373 1.353 . S
C368 H374 0.930 . S
N369 Li352 1.990 . S
N369 C368 1.314 . S
N369 C371 1.279 . S
C370 C371 1.358 . S
C370 C372 1.356 . S
C370 H424 0.930 . S
C371 N369 1.279 . S
C371 C370 1.358 . S
C371 H375 0.930 . S
C372 C370 1.356 . S
C372 C373 1.348 . S
C373 C368 1.353 . S
C373 C372 1.348 . S
C373 H425 0.929 . S
H374 C368 0.930 . S
H375 C371 0.930 . S
C376 N377 1.314 . S
C376 C378 1.353 . S
C376 H382 0.930 . S
N377 Li353 1.990 . S
N377 C376 1.314 . S
N377 C380 1.279 . S
C378 C376 1.353 . S
C378 C381 1.348 . S
C378 H426 0.929 . S
C379 C380 1.358 . S
C379 C381 1.356 . S
C379 H427 0.930 . S
C380 N377 1.279 . S
C380 C379 1.358 . S
C380 H383 0.930 . S
C381 C378 1.348 . S
C381 C379 1.356 . S
H382 C376 0.930 . S
H383 C380 0.930 . S
C384 C386 1.348 . S
C384 C387 1.356 . S
C384 O414 1.325 . S
N385 C388 1.314 . S
N385 C389 1.279 . S
C386 C384 1.348 . S
C386 C388 1.353 . S
C386 H428 0.929 . S
C387 C384 1.356 . S
C387 C389 1.358 . S
C387 H429 0.930 . S
C388 N385 1.314 . S
C388 C386 1.353 . S
C388 H430 0.930 . S
C389 N385 1.279 . S
C389 C387 1.358 . S
C389 H431 0.930 . S
C390 C391 1.348 . S
C390 C392 1.356 . S
C390 O415 1.325 . S
C391 C390 1.348 . S
C391 C393 1.353 . S
C391 H432 0.929 . S
C392 C390 1.356 . S
C392 C394 1.358 . S
C392 H433 0.930 . S
C393 C391 1.353 . S
C393 N395 1.314 . S
C393 H434 0.930 . S
C394 C392 1.358 . S
C394 N395 1.279 . S
C394 H435 0.930 . S
N395 C393 1.314 . S
N395 C394 1.279 . S
C396 C398 1.353 . S
C396 N399 1.314 . S
C396 H402 0.930 . S
C397 N399 1.279 . S
C397 C400 1.358 . S
C397 H403 0.930 . S
C398 C396 1.353 . S
C398 C401 1.348 . S
C398 H436 0.929 . S
N399 Li354 1.990 . S
N399 C396 1.314 . S
N399 C397 1.279 . S
C400 C397 1.358 . S
C400 C401 1.356 . S
C400 H437 0.930 . S
C401 C398 1.348 . S
C401 C400 1.356 . S
H402 C396 0.930 . S
H403 C397 0.930 . S
C404 N405 1.314 . S
C404 C406 1.353 . S
C404 H410 0.930 . S
N405 Li355 1.990 . S
N405 C404 1.314 . S
N405 C408 1.279 . S
C406 C404 1.353 . S
C406 C409 1.348 . S
C406 H438 0.929 . S
C407 C408 1.358 . S
C407 C409 1.356 . S
C407 H439 0.930 . S
C408 N405 1.279 . S
C408 C407 1.358 . S
C408 H411 0.930 . S
C409 C406 1.348 . S
C409 C407 1.356 . S
H410 C404 0.930 . S
H411 C408 0.930 . S
O412 Li352 1.956 . S
O412 Li353 1.970 . S
O412 Li354 1.961 . S
O412 C356 1.325 . S
O413 Li352 1.970 . S
O413 Li353 1.956 . S
O413 Li355 1.961 . S
O413 C362 1.325 . S
O414 Li352 1.961 . S
O414 Li354 1.956 . S
O414 Li355 1.970 . S
O414 C384 1.325 . S
O415 Li353 1.961 . S
O415 Li354 1.970 . S
O415 Li355 1.956 . S
O415 C390 1.325 . S
H416 C358 0.929 . S
H417 C359 0.930 . S
H418 C360 0.930 . S
H419 C361 0.930 . S
H420 C363 0.930 . S
H421 C365 0.929 . S
H422 C366 0.930 . S
H423 C367 0.930 . S
H424 C370 0.930 . S
H425 C373 0.929 . S
H426 C378 0.929 . S
H427 C379 0.930 . S
H428 C386 0.929 . S
H429 C387 0.930 . S
H430 C388 0.930 . S
H431 C389 0.930 . S
H432 C391 0.929 . S
H433 C392 0.930 . S
H434 C393 0.930 . S
H435 C394 0.930 . S
H436 C398 0.929 . S
H437 C400 0.930 . S
H438 C406 0.929 . S
H439 C407 0.930 . S
Li440 N457 1.990 . S
Li440 O500 1.956 . S
Li440 O501 1.970 . S
Li440 O502 1.961 . S
Li441 N465 1.990 . S
Li441 O500 1.970 . S
Li441 O501 1.956 . S
Li441 O503 1.961 . S
Li442 N487 1.990 . S
Li442 O500 1.961 . S
Li442 O502 1.956 . S
Li442 O503 1.970 . S
Li443 N493 1.990 . S
Li443 O501 1.961 . S
Li443 O502 1.970 . S
Li443 O503 1.956 . S
C444 C446 1.348 . S
C444 C447 1.356 . S
C444 O500 1.325 . S
N445 C448 1.314 . S
N445 C449 1.279 . S
C446 C444 1.348 . S
C446 C448 1.353 . S
C446 H504 0.929 . S
C447 C444 1.356 . S
C447 C449 1.358 . S
C447 H505 0.930 . S
C448 N445 1.314 . S
C448 C446 1.353 . S
C448 H506 0.930 . S
C449 N445 1.279 . S
C449 C447 1.358 . S
C449 H507 0.930 . S
C450 C453 1.348 . S
C450 C454 1.356 . S
C450 O501 1.325 . S
C451 N452 1.279 . S
C451 C454 1.358 . S
C451 H508 0.930 . S
N452 C451 1.279 . S
N452 C455 1.314 . S
C453 C450 1.348 . S
C453 C455 1.353 . S
C453 H509 0.929 . S
C454 C450 1.356 . S
C454 C451 1.358 . S
C454 H510 0.930 . S
C455 N452 1.314 . S
C455 C453 1.353 . S
C455 H511 0.930 . S
C456 N457 1.314 . S
C456 C461 1.353 . S
C456 H462 0.930 . S
N457 Li440 1.990 . S
N457 C456 1.314 . S
N457 C459 1.279 . S
C458 C459 1.358 . S
C458 C460 1.356 . S
C458 H512 0.930 . S
C459 N457 1.279 . S
C459 C458 1.358 . S
C459 H463 0.930 . S
C460 C458 1.356 . S
C460 C461 1.348 . S
C461 C456 1.353 . S
C461 C460 1.348 . S
C461 H513 0.929 . S
H462 C456 0.930 . S
H463 C459 0.930 . S
C464 N465 1.314 . S
C464 C466 1.353 . S
C464 H470 0.930 . S
N465 Li441 1.990 . S
N465 C464 1.314 . S
N465 C468 1.279 . S
C466 C464 1.353 . S
C466 C469 1.348 . S
C466 H514 0.929 . S
C467 C468 1.358 . S
C467 C469 1.356 . S
C467 H515 0.930 . S
C468 N465 1.279 . S
C468 C467 1.358 . S
C468 H471 0.930 . S
C469 C466 1.348 . S
C469 C467 1.356 . S
H470 C464 0.930 . S
H471 C468 0.930 . S
C472 C474 1.348 . S
C472 C475 1.356 . S
C472 O502 1.325 . S
N473 C476 1.314 . S
N473 C477 1.279 . S
C474 C472 1.348 . S
C474 C476 1.353 . S
C474 H516 0.929 . S
C475 C472 1.356 . S
C475 C477 1.358 . S
C475 H517 0.930 . S
C476 N473 1.314 . S
C476 C474 1.353 . S
C476 H518 0.930 . S
C477 N473 1.279 . S
C477 C475 1.358 . S
C477 H519 0.930 . S
C478 C479 1.348 . S
C478 C480 1.356 . S
C478 O503 1.325 . S
C479 C478 1.348 . S
C479 C481 1.353 . S
C479 H520 0.929 . S
C480 C478 1.356 . S
C480 C482 1.358 . S
C480 H521 0.930 . S
C481 C479 1.353 . S
C481 N483 1.314 . S
C481 H522 0.930 . S
C482 C480 1.358 . S
C482 N483 1.279 . S
C482 H523 0.930 . S
N483 C481 1.314 . S
N483 C482 1.279 . S
C484 C486 1.353 . S
C484 N487 1.314 . S
C484 H490 0.930 . S
C485 N487 1.279 . S
C485 C488 1.358 . S
C485 H491 0.930 . S
C486 C484 1.353 . S
C486 C489 1.348 . S
C486 H524 0.929 . S
N487 Li442 1.990 . S
N487 C484 1.314 . S
N487 C485 1.279 . S
C488 C485 1.358 . S
C488 C489 1.356 . S
C488 H525 0.930 . S
C489 C486 1.348 . S
C489 C488 1.356 . S
H490 C484 0.930 . S
H491 C485 0.930 . S
C492 N493 1.314 . S
C492 C494 1.353 . S
C492 H498 0.930 . S
N493 Li443 1.990 . S
N493 C492 1.314 . S
N493 C496 1.279 . S
C494 C492 1.353 . S
C494 C497 1.348 . S
C494 H526 0.929 . S
C495 C496 1.358 . S
C495 C497 1.356 . S
C495 H527 0.930 . S
C496 N493 1.279 . S
C496 C495 1.358 . S
C496 H499 0.930 . S
C497 C494 1.348 . S
C497 C495 1.356 . S
H498 C492 0.930 . S
H499 C496 0.930 . S
O500 Li440 1.956 . S
O500 Li441 1.970 . S
O500 Li442 1.961 . S
O500 C444 1.325 . S
O501 Li440 1.970 . S
O501 Li441 1.956 . S
O501 Li443 1.961 . S
O501 C450 1.325 . S
O502 Li440 1.961 . S
O502 Li442 1.956 . S
O502 Li443 1.970 . S
O502 C472 1.325 . S
O503 Li441 1.961 . S
O503 Li442 1.970 . S
O503 Li443 1.956 . S
O503 C478 1.325 . S
H504 C446 0.929 . S
H505 C447 0.930 . S
H506 C448 0.930 . S
H507 C449 0.930 . S
H508 C451 0.930 . S
H509 C453 0.929 . S
H510 C454 0.930 . S
H511 C455 0.930 . S
H512 C458 0.930 . S
H513 C461 0.929 . S
H514 C466 0.929 . S
H515 C467 0.930 . S
H516 C474 0.929 . S
H517 C475 0.930 . S
H518 C476 0.930 . S
H519 C477 0.930 . S
H520 C479 0.929 . S
H521 C480 0.930 . S
H522 C481 0.930 . S
H523 C482 0.930 . S
H524 C486 0.929 . S
H525 C488 0.930 . S
H526 C494 0.929 . S
H527 C495 0.930 . S
H528 C534 0.930 . S
H529 C537 0.930 . S
H530 C538 0.945 . S
H531 C539 0.930 . S
H532 C542 0.930 . S
H533 C543 0.945 . S
C534 H528 0.930 . S
C534 C535 1.355 . S
C534 C536 1.415 . S
C535 C534 1.355 . S
C535 C537 1.419 . S
C536 C534 1.415 . S
C536 C541 1.425 1_545 S
C536 C543 1.424 . S
C537 H529 0.930 . S
C537 C535 1.419 . S
C537 C538 1.334 1_545 S
C538 H530 0.945 . S
C538 C537 1.334 1_565 S
C538 C541 1.424 . S
C539 H531 0.930 . S
C539 C540 1.355 . S
C539 C541 1.415 . S
C540 C539 1.355 . S
C540 C542 1.419 . S
C541 C536 1.425 1_565 S
C541 C538 1.424 . S
C541 C539 1.415 . S
C542 H532 0.930 . S
C542 C540 1.419 . S
C542 C543 1.334 1_565 S
C543 H533 0.945 . S
C543 C536 1.424 . S
C543 C542 1.334 1_545 S
H544 C550 0.930 . S
H545 C553 0.930 . S
H546 C554 0.930 . S
H547 C555 0.930 . S
H548 C558 0.930 . S
H549 C559 0.930 . S
C550 H544 0.930 . S
C550 C551 1.355 . S
C550 C552 1.415 . S
C551 C550 1.355 . S
C551 C553 1.419 . S
C552 C550 1.415 . S
C552 C557 1.425 . S
C552 C559 1.409 . S
C553 H545 0.930 . S
C553 C551 1.419 . S
C553 C554 1.362 . S
C554 H546 0.930 . S
C554 C553 1.362 . S
C554 C557 1.409 . S
C555 H547 0.930 . S
C555 C556 1.355 . S
C555 C557 1.415 . S
C556 C555 1.355 . S
C556 C558 1.419 . S
C557 C552 1.425 . S
C557 C554 1.409 . S
C557 C555 1.415 . S
C558 H548 0.930 . S
C558 C556 1.419 . S
C558 C559 1.362 . S
C559 H549 0.930 . S
C559 C552 1.409 . S
C559 C558 1.362 . S
H560 C566 0.930 . S
H561 C569 0.930 . S
H562 C570 0.930 . S
H563 C571 0.930 . S
H564 C574 0.930 . S
H565 C575 0.930 . S
C566 H560 0.930 . S
C566 C567 1.355 . S
C566 C568 1.415 . S
C567 C566 1.355 . S
C567 C569 1.419 . S
C568 C566 1.415 . S
C568 C573 1.425 1_655 S
C568 C575 1.409 . S
C569 H561 0.930 . S
C569 C567 1.419 . S
C569 C570 1.362 1_655 S
C570 H562 0.930 . S
C570 C569 1.362 1_455 S
C570 C573 1.409 . S
C571 H563 0.930 . S
C571 C572 1.355 . S
C571 C573 1.415 . S
C572 C571 1.355 . S
C572 C574 1.419 . S
C573 C568 1.425 1_455 S
C573 C570 1.409 . S
C573 C571 1.415 . S
C574 H564 0.930 . S
C574 C572 1.419 . S
C574 C575 1.362 1_455 S
C575 H565 0.930 . S
C575 C568 1.409 . S
C575 C574 1.362 1_655 S
H576 C582 0.930 . S
H577 C585 0.930 . S
H578 C586 0.930 . S
H579 C587 0.930 . S
H580 C590 0.930 . S
H581 C591 0.930 . S
C582 H576 0.930 . S
C582 C583 1.355 . S
C582 C584 1.415 1_565 S
C583 C582 1.355 . S
C583 C585 1.419 1_554 S
C584 C582 1.415 1_545 S
C584 C589 1.425 1_544 S
C584 C591 1.409 . S
C585 H577 0.930 . S
C585 C583 1.419 1_556 S
C585 C586 1.362 . S
C586 H578 0.930 . S
C586 C585 1.362 . S
C586 C589 1.409 . S
C587 H579 0.930 . S
C587 C588 1.355 . S
C587 C589 1.415 1_545 S
C588 C587 1.355 . S
C588 C590 1.419 1_556 S
C589 C584 1.425 1_566 S
C589 C586 1.409 . S
C589 C587 1.415 1_565 S
C590 H580 0.930 . S
C590 C588 1.419 1_554 S
C590 C591 1.362 . S
C591 H581 0.930 . S
C591 C584 1.409 . S
C591 C590 1.362 . S
H592 C598 0.930 . S
H593 C601 0.930 . S
H594 C602 0.930 . S
H595 C603 0.930 . S
H596 C606 0.930 . S
H597 C607 0.930 . S
C598 H592 0.930 . S
C598 C599 1.355 . S
C598 C600 1.415 . S
C599 C598 1.355 . S
C599 C601 1.419 . S
C600 C598 1.415 . S
C600 C605 1.425 . S
C600 C607 1.409 . S
C601 H593 0.930 . S
C601 C599 1.419 . S
C601 C602 1.362 . S
C602 H594 0.930 . S
C602 C601 1.362 . S
C602 C605 1.409 . S
C603 H595 0.930 . S
C603 C604 1.355 . S
C603 C605 1.415 . S
C604 C603 1.355 . S
C604 C606 1.419 . S
C605 C600 1.425 . S
C605 C602 1.409 . S
C605 C603 1.415 . S
C606 H596 0.930 . S
C606 C604 1.419 . S
C606 C607 1.362 . S
C607 H597 0.930 . S
C607 C600 1.409 . S
C607 C606 1.362 . S
H608 C614 0.930 . S
H609 C617 0.930 . S
H610 C618 0.930 . S
H611 C619 0.930 . S
H612 C622 0.930 . S
H613 C623 0.930 . S
C614 H608 0.930 . S
C614 C615 1.355 . S
C614 C616 1.415 1_455 S
C615 C614 1.355 . S
C615 C617 1.419 . S
C616 C614 1.415 1_655 S
C616 C621 1.425 1_655 S
C616 C623 1.409 . S
C617 H609 0.930 . S
C617 C615 1.419 . S
C617 C618 1.362 . S
C618 H610 0.930 . S
C618 C617 1.362 . S
C618 C621 1.409 . S
C619 H611 0.930 . S
C619 C620 1.355 . S
C619 C621 1.415 1_655 S
C620 C619 1.355 . S
C620 C622 1.419 . S
C621 C616 1.425 1_455 S
C621 C618 1.409 . S
C621 C619 1.415 1_455 S
C622 H612 0.930 . S
C622 C620 1.419 . S
C622 C623 1.362 . S
C623 H613 0.930 . S
C623 C616 1.409 . S
C623 C622 1.362 . S
H624 C630 0.930 . S
H625 C633 0.930 . S
H626 C634 0.930 . S
H627 C635 0.930 . S
H628 C638 0.930 . S
H629 C639 0.930 . S
C630 H624 0.930 . S
C630 C631 1.355 . S
C630 C632 1.415 . S
C631 C630 1.355 . S
C631 C633 1.419 . S
C632 C630 1.415 . S
C632 C637 1.425 . S
C632 C639 1.409 . S
C633 H625 0.930 . S
C633 C631 1.419 . S
C633 C634 1.362 . S
C634 H626 0.930 . S
C634 C633 1.362 . S
C634 C637 1.409 . S
C635 H627 0.930 . S
C635 C636 1.355 . S
C635 C637 1.415 . S
C636 C635 1.355 . S
C636 C638 1.419 . S
C637 C632 1.425 . S
C637 C634 1.409 . S
C637 C635 1.415 . S
C638 H628 0.930 . S
C638 C636 1.419 . S
C638 C639 1.362 . S
C639 H629 0.930 . S
C639 C632 1.409 . S
C639 C638 1.362 . S
H640 C646 0.930 . S
H641 C649 0.930 . S
H642 C650 0.930 . S
H643 C651 0.930 . S
H644 C654 0.930 . S
H645 C655 0.930 . S
C646 H640 0.930 . S
C646 C647 1.355 . S
C646 C648 1.415 . S
C647 C646 1.355 . S
C647 C649 1.419 . S
C648 C646 1.415 . S
C648 C653 1.425 . S
C648 C655 1.409 . S
C649 H641 0.930 . S
C649 C647 1.419 . S
C649 C650 1.362 . S
C650 H642 0.930 . S
C650 C649 1.362 . S
C650 C653 1.409 . S
C651 H643 0.930 . S
C651 C652 1.355 . S
C651 C653 1.415 . S
C652 C651 1.355 . S
C652 C654 1.419 . S
C653 C648 1.425 . S
C653 C650 1.409 . S
C653 C651 1.415 . S
C654 H644 0.930 . S
C654 C652 1.419 . S
C654 C655 1.362 . S
C655 H645 0.930 . S
C655 C648 1.409 . S
C655 C654 1.362 . S
H656 C662 0.930 . S
H657 C665 0.930 . S
H658 C666 0.930 . S
H659 C667 0.930 . S
H660 C670 0.930 . S
H661 C671 0.930 . S
C662 H656 0.930 . S
C662 C663 1.355 . S
C662 C664 1.415 . S
C663 C662 1.355 . S
C663 C665 1.419 . S
C664 C662 1.415 . S
C664 C669 1.425 . S
C664 C671 1.409 . S
C665 H657 0.930 . S
C665 C663 1.419 . S
C665 C666 1.362 . S
C666 H658 0.930 . S
C666 C665 1.362 . S
C666 C669 1.409 . S
C667 H659 0.930 . S
C667 C668 1.355 . S
C667 C669 1.415 . S
C668 C667 1.355 . S
C668 C670 1.419 . S
C669 C664 1.425 . S
C669 C666 1.409 . S
C669 C667 1.415 . S
C670 H660 0.930 . S
C670 C668 1.419 . S
C670 C671 1.362 . S
C671 H661 0.930 . S
C671 C664 1.409 . S
C671 C670 1.362 . S
H672 C678 0.930 . S
H673 C681 0.930 . S
H674 C682 0.930 . S
H675 C683 0.930 . S
H676 C686 0.930 . S
H677 C687 0.930 . S
C678 H672 0.930 . S
C678 C679 1.355 . S
C678 C680 1.415 . S
C679 C678 1.355 . S
C679 C681 1.419 . S
C680 C678 1.415 . S
C680 C685 1.425 . S
C680 C687 1.409 . S
C681 H673 0.930 . S
C681 C679 1.419 . S
C681 C682 1.362 . S
C682 H674 0.930 . S
C682 C681 1.362 . S
C682 C685 1.409 . S
C683 H675 0.930 . S
C683 C684 1.355 . S
C683 C685 1.415 . S
C684 C683 1.355 . S
C684 C686 1.419 . S
C685 C680 1.425 . S
C685 C682 1.409 . S
C685 C683 1.415 . S
C686 H676 0.930 . S
C686 C684 1.419 . S
C686 C687 1.362 . S
C687 H677 0.930 . S
C687 C680 1.409 . S
C687 C686 1.362 . S
H688 C694 0.930 . S
H689 C697 0.930 . S
H690 C698 0.930 . S
H691 C699 0.930 . S
H692 C702 0.930 . S
H693 C703 0.930 . S
C694 H688 0.930 . S
C694 C695 1.355 . S
C694 C696 1.415 . S
C695 C694 1.355 . S
C695 C697 1.419 . S
C696 C694 1.415 . S
C696 C701 1.425 . S
C696 C703 1.409 . S
C697 H689 0.930 . S
C697 C695 1.419 . S
C697 C698 1.362 . S
C698 H690 0.930 . S
C698 C697 1.362 . S
C698 C701 1.409 . S
C699 H691 0.930 . S
C699 C700 1.355 . S
C699 C701 1.415 . S
C700 C699 1.355 . S
C700 C702 1.419 . S
C701 C696 1.425 . S
C701 C698 1.409 . S
C701 C699 1.415 . S
C702 H692 0.930 . S
C702 C700 1.419 . S
C702 C703 1.362 . S
C703 H693 0.930 . S
C703 C696 1.409 . S
C703 C702 1.362 . S
H704 C710 0.930 . S
H705 C713 0.930 . S
H706 C714 0.930 . S
H707 C715 0.930 . S
H708 C718 0.930 . S
H709 C719 0.930 . S
C710 H704 0.930 . S
C710 C711 1.355 . S
C710 C712 1.415 . S
C711 C710 1.355 . S
C711 C713 1.419 . S
C712 C710 1.415 . S
C712 C717 1.425 . S
C712 C719 1.409 . S
C713 H705 0.930 . S
C713 C711 1.419 . S
C713 C714 1.362 . S
C714 H706 0.930 . S
C714 C713 1.362 . S
C714 C717 1.409 . S
C715 H707 0.930 . S
C715 C716 1.355 . S
C715 C717 1.415 . S
C716 C715 1.355 . S
C716 C718 1.419 . S
C717 C712 1.425 . S
C717 C714 1.409 . S
C717 C715 1.415 . S
C718 H708 0.930 . S
C718 C716 1.419 . S
C718 C719 1.362 . S
C719 H709 0.930 . S
C719 C712 1.409 . S
C719 C718 1.362 . S
C535 C20 1.373 . S
C540 C489 1.364 . S
C551 C49 1.358 . S
C556 C117 1.373 . S
C567 C196 1.373 . S
C572 C145 1.365 . S
C583 C284 1.360 . S
C588 C225 1.363 . S
C599 C372 1.358 . S
C604 C313 1.373 . S
C615 C460 1.359 . S
C620 C401 1.365 . S
C631 C57 1.584 . S
C636 C381 1.584 . S
C647 C469 1.581 . S
C652 C137 1.583 . S
C663 C233 1.570 . S
C668 C29 1.572 . S
C679 C108 1.574 . S
C684 C321 1.571 . S
C695 C205 1.572 . S
C700 C409 1.575 . S
C711 C497 1.571 . S
C716 C293 1.573 . S
