# Generated by pormake.
# Topology wjr, (5)-cn, num edge types: 1
# Building blocks:
#     Node 0, Type 0, BuildingBlock: XOMCOT_clean_sbu_0, # of connection points: 5
#     Node 1, Type 0, BuildingBlock: XOMCOT_clean_sbu_0, # of connection points: 5
#     Node 2, Type 0, BuildingBlock: XOMCOT_clean_sbu_0, # of connection points: 5
#     Node 3, Type 0, BuildingBlock: XOMCOT_clean_sbu_0, # of connection points: 5
#     Node 4, Type 0, BuildingBlock: XOMCOT_clean_sbu_0, # of connection points: 5
#     Node 5, Type 0, BuildingBlock: XOMCOT_clean_sbu_0, # of connection points: 5
#     Node 6, Type 0, BuildingBlock: XOMCOT_clean_sbu_0, # of connection points: 5
#     Node 7, Type 0, BuildingBlock: XOMCOT_clean_sbu_0, # of connection points: 5
#     Node 8, Type 0, BuildingBlock: XOMCOT_clean_sbu_0, # of connection points: 5
#     Node 9, Type 0, BuildingBlock: XOMCOT_clean_sbu_0, # of connection points: 5
#     Node 10, Type 0, BuildingBlock: XOMCOT_clean_sbu_0, # of connection points: 5
#     Node 11, Type 0, BuildingBlock: XOMCOT_clean_sbu_0, # of connection points: 5
#     Node 12, Type 0, BuildingBlock: XOMCOT_clean_sbu_0, # of connection points: 5
#     Node 13, Type 0, BuildingBlock: XOMCOT_clean_sbu_0, # of connection points: 5
#     Node 14, Type 0, BuildingBlock: XOMCOT_clean_sbu_0, # of connection points: 5
#     Node 15, Type 0, BuildingBlock: XOMCOT_clean_sbu_0, # of connection points: 5
#     Node 16, Type 0, BuildingBlock: XOMCOT_clean_sbu_0, # of connection points: 5
#     Node 17, Type 0, BuildingBlock: XOMCOT_clean_sbu_0, # of connection points: 5
#     Node 18, Type 0, BuildingBlock: XOMCOT_clean_sbu_0, # of connection points: 5
#     Node 19, Type 0, BuildingBlock: XOMCOT_clean_sbu_0, # of connection points: 5
#     Node 20, Type 0, BuildingBlock: XOMCOT_clean_sbu_0, # of connection points: 5
#     Node 21, Type 0, BuildingBlock: XOMCOT_clean_sbu_0, # of connection points: 5
#     Node 22, Type 0, BuildingBlock: XOMCOT_clean_sbu_0, # of connection points: 5
#     Node 23, Type 0, BuildingBlock: XOMCOT_clean_sbu_0, # of connection points: 5
#     Edge 24, Type (0, 0), BuildingBlock: AJUNOK_clean_linker_0, # of connection points: 2
#     Edge 25, Type (0, 0), BuildingBlock: AJUNOK_clean_linker_0, # of connection points: 2
#     Edge 26, Type (0, 0), BuildingBlock: AJUNOK_clean_linker_0, # of connection points: 2
#     Edge 27, Type (0, 0), BuildingBlock: AJUNOK_clean_linker_0, # of connection points: 2
#     Edge 28, Type (0, 0), BuildingBlock: AJUNOK_clean_linker_0, # of connection points: 2
#     Edge 29, Type (0, 0), BuildingBlock: AJUNOK_clean_linker_0, # of connection points: 2
#     Edge 30, Type (0, 0), BuildingBlock: AJUNOK_clean_linker_0, # of connection points: 2
#     Edge 31, Type (0, 0), BuildingBlock: AJUNOK_clean_linker_0, # of connection points: 2
#     Edge 32, Type (0, 0), BuildingBlock: AJUNOK_clean_linker_0, # of connection points: 2
#     Edge 33, Type (0, 0), BuildingBlock: AJUNOK_clean_linker_0, # of connection points: 2
#     Edge 34, Type (0, 0), BuildingBlock: AJUNOK_clean_linker_0, # of connection points: 2
#     Edge 35, Type (0, 0), BuildingBlock: AJUNOK_clean_linker_0, # of connection points: 2
#     Edge 36, Type (0, 0), BuildingBlock: AJUNOK_clean_linker_0, # of connection points: 2
#     Edge 37, Type (0, 0), BuildingBlock: AJUNOK_clean_linker_0, # of connection points: 2
#     Edge 38, Type (0, 0), BuildingBlock: AJUNOK_clean_linker_0, # of connection points: 2
#     Edge 39, Type (0, 0), BuildingBlock: AJUNOK_clean_linker_0, # of connection points: 2
#     Edge 40, Type (0, 0), BuildingBlock: AJUNOK_clean_linker_0, # of connection points: 2
#     Edge 41, Type (0, 0), BuildingBlock: AJUNOK_clean_linker_0, # of connection points: 2
#     Edge 42, Type (0, 0), BuildingBlock: AJUNOK_clean_linker_0, # of connection points: 2
#     Edge 43, Type (0, 0), BuildingBlock: AJUNOK_clean_linker_0, # of connection points: 2
#     Edge 44, Type (0, 0), BuildingBlock: AJUNOK_clean_linker_0, # of connection points: 2
#     Edge 45, Type (0, 0), BuildingBlock: AJUNOK_clean_linker_0, # of connection points: 2
#     Edge 46, Type (0, 0), BuildingBlock: AJUNOK_clean_linker_0, # of connection points: 2
#     Edge 47, Type (0, 0), BuildingBlock: AJUNOK_clean_linker_0, # of connection points: 2
#     Edge 48, Type (0, 0), BuildingBlock: AJUNOK_clean_linker_0, # of connection points: 2
#     Edge 49, Type (0, 0), BuildingBlock: AJUNOK_clean_linker_0, # of connection points: 2
#     Edge 50, Type (0, 0), BuildingBlock: AJUNOK_clean_linker_0, # of connection points: 2
#     Edge 51, Type (0, 0), BuildingBlock: AJUNOK_clean_linker_0, # of connection points: 2
#     Edge 52, Type (0, 0), BuildingBlock: AJUNOK_clean_linker_0, # of connection points: 2
#     Edge 53, Type (0, 0), BuildingBlock: AJUNOK_clean_linker_0, # of connection points: 2
#     Edge 54, Type (0, 0), BuildingBlock: AJUNOK_clean_linker_0, # of connection points: 2
#     Edge 55, Type (0, 0), BuildingBlock: AJUNOK_clean_linker_0, # of connection points: 2
#     Edge 56, Type (0, 0), BuildingBlock: AJUNOK_clean_linker_0, # of connection points: 2
#     Edge 57, Type (0, 0), BuildingBlock: AJUNOK_clean_linker_0, # of connection points: 2
#     Edge 58, Type (0, 0), BuildingBlock: AJUNOK_clean_linker_0, # of connection points: 2
#     Edge 59, Type (0, 0), BuildingBlock: AJUNOK_clean_linker_0, # of connection points: 2
#     Edge 60, Type (0, 0), BuildingBlock: AJUNOK_clean_linker_0, # of connection points: 2
#     Edge 61, Type (0, 0), BuildingBlock: AJUNOK_clean_linker_0, # of connection points: 2
#     Edge 62, Type (0, 0), BuildingBlock: AJUNOK_clean_linker_0, # of connection points: 2
#     Edge 63, Type (0, 0), BuildingBlock: AJUNOK_clean_linker_0, # of connection points: 2
#     Edge 64, Type (0, 0), BuildingBlock: AJUNOK_clean_linker_0, # of connection points: 2
#     Edge 65, Type (0, 0), BuildingBlock: AJUNOK_clean_linker_0, # of connection points: 2
#     Edge 66, Type (0, 0), BuildingBlock: AJUNOK_clean_linker_0, # of connection points: 2
#     Edge 67, Type (0, 0), BuildingBlock: AJUNOK_clean_linker_0, # of connection points: 2
#     Edge 68, Type (0, 0), BuildingBlock: AJUNOK_clean_linker_0, # of connection points: 2
#     Edge 69, Type (0, 0), BuildingBlock: AJUNOK_clean_linker_0, # of connection points: 2
#     Edge 70, Type (0, 0), BuildingBlock: AJUNOK_clean_linker_0, # of connection points: 2
#     Edge 71, Type (0, 0), BuildingBlock: AJUNOK_clean_linker_0, # of connection points: 2
#     Edge 72, Type (0, 0), BuildingBlock: AJUNOK_clean_linker_0, # of connection points: 2
#     Edge 73, Type (0, 0), BuildingBlock: AJUNOK_clean_linker_0, # of connection points: 2
#     Edge 74, Type (0, 0), BuildingBlock: AJUNOK_clean_linker_0, # of connection points: 2
#     Edge 75, Type (0, 0), BuildingBlock: AJUNOK_clean_linker_0, # of connection points: 2
#     Edge 76, Type (0, 0), BuildingBlock: AJUNOK_clean_linker_0, # of connection points: 2
#     Edge 77, Type (0, 0), BuildingBlock: AJUNOK_clean_linker_0, # of connection points: 2
#     Edge 78, Type (0, 0), BuildingBlock: AJUNOK_clean_linker_0, # of connection points: 2
#     Edge 79, Type (0, 0), BuildingBlock: AJUNOK_clean_linker_0, # of connection points: 2
#     Edge 80, Type (0, 0), BuildingBlock: AJUNOK_clean_linker_0, # of connection points: 2
#     Edge 81, Type (0, 0), BuildingBlock: AJUNOK_clean_linker_0, # of connection points: 2
#     Edge 82, Type (0, 0), BuildingBlock: AJUNOK_clean_linker_0, # of connection points: 2
#     Edge 83, Type (0, 0), BuildingBlock: AJUNOK_clean_linker_0, # of connection points: 2
# Relax obj value: 0.380
# Max RMSD: 0.207
# Mean RMSD: 0.207
data_MOF--net-wjr--node1-XOMCOT_clean_sbu_0--edge1-AJUNOK_clean_linker_0
_symmetry_space_group_name_H-M    P1
_symmetry_Int_Tables_number       1
_symmetry_cell_setting            triclinic
loop_
_symmetry_equiv_pos_as_xyz
'x, y, z'
_cell_length_a     51.203804
_cell_length_b     51.042627
_cell_length_c     37.644249
_cell_angle_alpha  90.04537
_cell_angle_beta   89.942881
_cell_angle_gamma 120.01287
loop_
_atom_site_label
_atom_site_type_symbol
_atom_site_fract_x
_atom_site_fract_y
_atom_site_fract_z
_atom_type_partial_charge
Co0 Co 0.46692 0.11015 0.23121 0.0
C1 C 0.45197 0.15797 0.24931 0.0
C2 C 0.42998 0.11958 0.28387 0.0
C3 C 0.42245 0.14073 0.2946 0.0
N4 N 0.44775 0.12995 0.25479 0.0
N5 N 0.43634 0.16473 0.27283 0.0
H6 H 0.46682 0.17363 0.22953 0.0
H7 H 0.42386 0.09863 0.29741 0.0
C8 C 0.40349 0.05525 0.24652 0.0
O9 O 0.38805 0.06762 0.23461 0.0
N10 N 0.48612 0.09059 0.20833 0.0
C11 C 0.50607 0.10148 0.18131 0.0
C12 C 0.5129 0.07962 0.17137 0.0
C13 C 0.48113 0.06257 0.21463 0.0
N14 N 0.49685 0.05521 0.19213 0.0
C15 C 0.46366 0.1389 0.16719 0.0
C16 C 0.42716 0.08637 0.12992 0.0
C17 C 0.441 0.11391 0.11138 0.0
C18 C 0.4589 0.14046 0.13081 0.0
C19 C 0.43245 0.08579 0.1664 0.0
N20 N 0.45068 0.11185 0.18473 0.0
H21 H 0.47981 0.15935 0.18047 0.0
H22 H 0.42389 0.06404 0.17894 0.0
H23 H 0.51458 0.12352 0.16929 0.0
H24 H 0.46637 0.04779 0.23521 0.0
O25 O 0.50568 0.14778 0.23035 0.0
O26 O 0.48915 0.11415 0.27387 0.0
O27 O 0.43216 0.06905 0.24393 0.0
C28 C 0.51091 0.13898 0.26074 0.0
H29 H 0.40895 0.13924 0.31749 0.0
H30 H 0.52782 0.08117 0.15006 0.0
H31 H 0.41405 0.06515 0.11594 0.0
H32 H 0.47038 0.16223 0.11763 0.0
Co33 Co 0.35558 0.47077 0.22622 0.0
C34 C 0.29342 0.45663 0.24456 0.0
C35 C 0.31169 0.43928 0.28302 0.0
C36 C 0.28384 0.4335 0.29467 0.0
N37 N 0.31746 0.45321 0.25123 0.0
N38 N 0.27232 0.44438 0.27043 0.0
H39 H 0.29222 0.46956 0.22267 0.0
H40 H 0.3272 0.43471 0.29753 0.0
C41 C 0.34408 0.40704 0.24508 0.0
O42 O 0.31556 0.39298 0.2357 0.0
N43 N 0.39355 0.48861 0.20172 0.0
C44 C 0.40269 0.50944 0.17559 0.0
C45 C 0.43121 0.51646 0.16508 0.0
C46 C 0.41628 0.48299 0.20665 0.0
N47 N 0.43939 0.49967 0.18459 0.0
C48 C 0.32383 0.46781 0.16207 0.0
C49 C 0.33537 0.4271 0.12704 0.0
C50 C 0.32364 0.44226 0.10745 0.0
C51 C 0.3172 0.46232 0.12576 0.0
C52 C 0.34171 0.43325 0.1633 0.0
N53 N 0.33619 0.4536 0.18053 0.0
H54 H 0.32136 0.4855 0.17445 0.0
H55 H 0.3534 0.42338 0.17644 0.0
H56 H 0.38952 0.51881 0.16489 0.0
H57 H 0.41624 0.46742 0.22617 0.0
O58 O 0.35785 0.51016 0.22462 0.0
O59 O 0.37544 0.49402 0.26789 0.0
O60 O 0.36088 0.4354 0.23977 0.0
C61 C 0.37254 0.51582 0.25455 0.0
H62 H 0.27319 0.42273 0.31947 0.0
H63 H 0.44475 0.53231 0.14454 0.0
H64 H 0.34106 0.41167 0.11404 0.0
H65 H 0.30915 0.4754 0.11169 0.0
Co66 Co 0.88211 0.36182 0.22622 0.0
C67 C 0.83599 0.29903 0.24589 0.0
C68 C 0.86367 0.32413 0.28999 0.0
C69 C 0.84088 0.29688 0.30234 0.0
N70 N 0.86069 0.32547 0.25455 0.0
N71 N 0.82327 0.28124 0.27465 0.0
H72 H 0.82706 0.29313 0.21937 0.0
H73 H 0.88054 0.34231 0.30602 0.0
C74 C 0.93128 0.34822 0.2512 0.0
O75 O 0.91201 0.31938 0.25618 0.0
N76 N 0.90293 0.39821 0.19887 0.0
C77 C 0.89362 0.40558 0.16899 0.0
C78 C 0.91513 0.43445 0.15926 0.0
C79 C 0.92935 0.42256 0.20735 0.0
N80 N 0.93763 0.44486 0.18335 0.0
C81 C 0.85018 0.32928 0.16387 0.0
C82 C 0.89881 0.33124 0.12962 0.0
C83 C 0.87256 0.32305 0.10985 0.0
C84 C 0.84776 0.32135 0.12789 0.0
C85 C 0.90044 0.33933 0.16551 0.0
N86 N 0.87652 0.339 0.18218 0.0
H87 H 0.83138 0.3297 0.17626 0.0
H88 H 0.92181 0.3479 0.17874 0.0
H89 H 0.87246 0.39132 0.15565 0.0
H90 H 0.9421 0.42399 0.23087 0.0
O91 O 0.84639 0.36621 0.22492 0.0
O92 O 0.8819 0.38531 0.26618 0.0
O93 O 0.92259 0.36559 0.23773 0.0
C94 C 0.85712 0.38257 0.2535 0.0
H95 H 0.83667 0.28982 0.32985 0.0
H96 H 0.91387 0.44699 0.13682 0.0
H97 H 0.91857 0.33282 0.117 0.0
H98 H 0.82724 0.31599 0.11387 0.0
Co99 Co 0.52726 0.88986 0.22976 0.0
C100 C 0.53944 0.84111 0.25177 0.0
C101 C 0.56344 0.88077 0.28386 0.0
C102 C 0.56893 0.85881 0.29682 0.0
N103 N 0.54562 0.87002 0.25494 0.0
N104 N 0.55354 0.83372 0.27683 0.0
H105 H 0.52354 0.82507 0.23307 0.0
H106 H 0.57103 0.90263 0.29585 0.0
C107 C 0.59067 0.94436 0.24419 0.0
O108 O 0.60511 0.93077 0.23273 0.0
N109 N 0.50867 0.90933 0.20543 0.0
C110 C 0.48955 0.89843 0.17762 0.0
C111 C 0.48144 0.91947 0.16826 0.0
C112 C 0.51214 0.93667 0.21254 0.0
N113 N 0.49584 0.94333 0.19023 0.0
C114 C 0.53283 0.86054 0.16747 0.0
C115 C 0.56742 0.91277 0.12879 0.0
C116 C 0.55414 0.8849 0.11103 0.0
C117 C 0.53764 0.85852 0.13121 0.0
C118 C 0.56214 0.91382 0.1652 0.0
N119 N 0.54463 0.88791 0.18415 0.0
H120 H 0.51731 0.8401 0.18117 0.0
H121 H 0.56988 0.93571 0.1771 0.0
H122 H 0.48225 0.87684 0.16494 0.0
H123 H 0.52615 0.95142 0.23361 0.0
O124 O 0.48858 0.85223 0.22791 0.0
O125 O 0.50379 0.8859 0.2714 0.0
O126 O 0.56194 0.93105 0.24265 0.0
C127 C 0.48243 0.86103 0.25776 0.0
H128 H 0.58305 0.86125 0.31936 0.0
H129 H 0.46673 0.91775 0.14664 0.0
H130 H 0.57989 0.93375 0.11417 0.0
H131 H 0.52701 0.83648 0.11865 0.0
Co132 Co 0.63107 0.52337 0.22701 0.0
C133 C 0.6927 0.5375 0.24967 0.0
C134 C 0.6721 0.55411 0.28598 0.0
C135 C 0.69955 0.56059 0.29952 0.0
N136 N 0.66806 0.54036 0.25427 0.0
N137 N 0.71237 0.5497 0.27701 0.0
H138 H 0.69567 0.52558 0.22779 0.0
H139 H 0.65587 0.55859 0.29889 0.0
C140 C 0.64271 0.58719 0.24533 0.0
O141 O 0.67177 0.60008 0.23889 0.0
N142 N 0.59403 0.50616 0.20077 0.0
C143 C 0.58681 0.48949 0.17078 0.0
C144 C 0.55854 0.48328 0.16002 0.0
C145 C 0.5703 0.5096 0.2081 0.0
N146 N 0.54866 0.49638 0.18338 0.0
C147 C 0.66556 0.5278 0.16464 0.0
C148 C 0.65357 0.56772 0.12856 0.0
C149 C 0.66575 0.55272 0.10948 0.0
C150 C 0.67256 0.53317 0.12834 0.0
C151 C 0.64671 0.56157 0.16469 0.0
N152 N 0.65225 0.54144 0.1824 0.0
H153 H 0.66831 0.51045 0.17747 0.0
H154 H 0.63436 0.57104 0.17715 0.0
H155 H 0.60124 0.48276 0.15743 0.0
H156 H 0.56879 0.52143 0.23107 0.0
O157 O 0.62877 0.48404 0.22493 0.0
O158 O 0.60954 0.49921 0.26752 0.0
O159 O 0.62551 0.55886 0.23982 0.0
C160 C 0.61285 0.47767 0.25402 0.0
H161 H 0.70918 0.57253 0.32408 0.0
H162 H 0.54658 0.47097 0.13646 0.0
H163 H 0.64772 0.58287 0.1152 0.0
H164 H 0.68109 0.52029 0.11471 0.0
Co165 Co 0.10758 0.63854 0.23138 0.0
C166 C 0.15785 0.69945 0.25006 0.0
C167 C 0.12006 0.68578 0.28471 0.0
C168 C 0.14279 0.71374 0.29544 0.0
N169 N 0.12916 0.67719 0.25554 0.0
N170 N 0.16656 0.7224 0.27351 0.0
H171 H 0.17277 0.69794 0.23104 0.0
H172 H 0.09886 0.67227 0.2983 0.0
C173 C 0.05493 0.64967 0.24896 0.0
O174 O 0.06808 0.67693 0.23505 0.0
N175 N 0.08663 0.6002 0.20755 0.0
C176 C 0.09709 0.59154 0.1797 0.0
C177 C 0.07485 0.56354 0.16862 0.0
C178 C 0.05834 0.57757 0.21315 0.0
N179 N 0.05047 0.55505 0.18945 0.0
C180 C 0.13466 0.67178 0.16722 0.0
C181 C 0.08109 0.65438 0.13214 0.0
C182 C 0.10793 0.6676 0.11238 0.0
C183 C 0.13507 0.67741 0.13071 0.0
C184 C 0.08165 0.64918 0.16859 0.0
N185 N 0.10817 0.6574 0.18582 0.0
H186 H 0.1555 0.67643 0.17953 0.0
H187 H 0.06034 0.63591 0.18192 0.0
H188 H 0.11922 0.60486 0.16799 0.0
H189 H 0.04351 0.5778 0.23349 0.0
O190 O 0.14441 0.63629 0.22706 0.0
O191 O 0.1127 0.61913 0.27243 0.0
O192 O 0.06745 0.63345 0.24718 0.0
C193 C 0.13661 0.62173 0.25718 0.0
H194 H 0.14201 0.72643 0.31806 0.0
H195 H 0.07661 0.55043 0.14713 0.0
H196 H 0.05957 0.64648 0.11913 0.0
H197 H 0.15629 0.68724 0.11647 0.0
Co198 Co 0.88468 0.53051 0.33724 0.0
C199 C 0.83643 0.54353 0.31779 0.0
C200 C 0.8721 0.56145 0.27948 0.0
C201 C 0.84962 0.56662 0.26773 0.0
N202 N 0.86421 0.54777 0.31143 0.0
N203 N 0.8271 0.55532 0.29188 0.0
H204 H 0.82241 0.53002 0.33942 0.0
H205 H 0.89235 0.5664 0.26509 0.0
C206 C 0.93711 0.59455 0.31881 0.0
O207 O 0.92043 0.60739 0.32054 0.0
N208 N 0.90447 0.51269 0.36238 0.0
C209 C 0.89504 0.49577 0.39211 0.0
C210 C 0.91633 0.48812 0.40152 0.0
C211 C 0.93077 0.51462 0.35364 0.0
N212 N 0.93889 0.50036 0.37748 0.0
C213 C 0.85368 0.53132 0.40055 0.0
C214 C 0.90376 0.57443 0.43659 0.0
C215 C 0.87676 0.55758 0.45564 0.0
C216 C 0.85134 0.53627 0.43674 0.0
C217 C 0.90525 0.56856 0.40045 0.0
N218 N 0.88048 0.5469 0.38275 0.0
H219 H 0.83436 0.51292 0.38781 0.0
H220 H 0.92704 0.58 0.38786 0.0
H221 H 0.87416 0.48934 0.40589 0.0
H222 H 0.94381 0.52644 0.33046 0.0
O223 O 0.84799 0.49107 0.33771 0.0
O224 O 0.88278 0.50772 0.29555 0.0
O225 O 0.92595 0.5665 0.32618 0.0
C226 C 0.85794 0.48567 0.30831 0.0
H227 H 0.84963 0.57725 0.24288 0.0
H228 H 0.91508 0.47437 0.42402 0.0
H229 H 0.92409 0.59108 0.44991 0.0
H230 H 0.83023 0.52187 0.45024 0.0
Co231 Co 0.36133 0.88733 0.33874 0.0
C232 C 0.30005 0.84017 0.31517 0.0
C233 C 0.32251 0.8757 0.27701 0.0
C234 C 0.29535 0.85434 0.26298 0.0
N235 N 0.32518 0.86724 0.31009 0.0
N236 N 0.28139 0.83173 0.28678 0.0
H237 H 0.296 0.82615 0.33826 0.0
H238 H 0.33946 0.89587 0.26371 0.0
C239 C 0.34872 0.93817 0.3187 0.0
O240 O 0.3194 0.92028 0.32125 0.0
N241 N 0.39757 0.90691 0.36654 0.0
C242 C 0.4031 0.8972 0.39747 0.0
C243 C 0.43132 0.91848 0.40926 0.0
C244 C 0.42248 0.93338 0.35944 0.0
N245 N 0.44314 0.94092 0.38521 0.0
C246 C 0.32603 0.85623 0.40022 0.0
C247 C 0.33578 0.90759 0.43606 0.0
C248 C 0.32453 0.8805 0.45518 0.0
C249 C 0.31871 0.85436 0.43642 0.0
C250 C 0.34301 0.90857 0.40004 0.0
N251 N 0.33879 0.88324 0.38251 0.0
H252 H 0.32424 0.83643 0.38757 0.0
H253 H 0.35471 0.93049 0.38766 0.0
H254 H 0.38759 0.87635 0.41075 0.0
H255 H 0.42544 0.94689 0.33607 0.0
O256 O 0.36382 0.85043 0.34065 0.0
O257 O 0.38406 0.88568 0.29899 0.0
O258 O 0.36671 0.92845 0.32649 0.0
C259 C 0.38023 0.86048 0.312 0.0
H260 H 0.2867 0.8556 0.23724 0.0
H261 H 0.44212 0.91788 0.43371 0.0
H262 H 0.34078 0.92842 0.44937 0.0
H263 H 0.31088 0.83306 0.45011 0.0
Co264 Co 0.46519 0.35883 0.33606 0.0
C265 C 0.44871 0.29618 0.31555 0.0
C266 C 0.43441 0.31724 0.27693 0.0
C267 C 0.42744 0.28913 0.26441 0.0
N268 N 0.44695 0.32133 0.30946 0.0
N269 N 0.43655 0.27611 0.28873 0.0
H270 H 0.45959 0.29287 0.33823 0.0
H271 H 0.43148 0.334 0.26272 0.0
C272 C 0.40214 0.34842 0.31776 0.0
O273 O 0.38945 0.31894 0.32118 0.0
N274 N 0.4841 0.39618 0.36199 0.0
C275 C 0.50188 0.40278 0.39092 0.0
C276 C 0.51076 0.43189 0.40146 0.0
C277 C 0.48271 0.42119 0.35491 0.0
N278 N 0.49855 0.44306 0.37872 0.0
C279 C 0.46145 0.32519 0.39909 0.0
C280 C 0.42175 0.33741 0.4352 0.0
C281 C 0.43675 0.32528 0.45428 0.0
C282 C 0.4562 0.31837 0.43542 0.0
C283 C 0.42766 0.34395 0.39897 0.0
N284 N 0.44767 0.33829 0.38122 0.0
H285 H 0.47877 0.32243 0.38628 0.0
H286 H 0.41797 0.35605 0.38642 0.0
H287 H 0.50779 0.38746 0.40358 0.0
H288 H 0.47066 0.42352 0.33272 0.0
O289 O 0.50383 0.35985 0.33683 0.0
O290 O 0.48869 0.37956 0.29484 0.0
O291 O 0.43022 0.3656 0.32449 0.0
C292 C 0.50993 0.37551 0.30756 0.0
H293 H 0.41782 0.27958 0.23877 0.0
H294 H 0.52449 0.44372 0.42427 0.0
H295 H 0.4067 0.34335 0.44861 0.0
H296 H 0.46906 0.30988 0.4491 0.0
Co297 Co 0.1051 0.4715 0.33307 0.0
C298 C 0.15358 0.45889 0.31053 0.0
C299 C 0.1136 0.43458 0.27923 0.0
C300 C 0.13516 0.42865 0.2661 0.0
N301 N 0.12478 0.45292 0.30775 0.0
N302 N 0.16043 0.4442 0.28558 0.0
H303 H 0.16988 0.47493 0.32893 0.0
H304 H 0.09169 0.42689 0.26758 0.0
C305 C 0.0501 0.40819 0.31889 0.0
O306 O 0.06234 0.39343 0.33323 0.0
N307 N 0.08577 0.49024 0.35751 0.0
C308 C 0.09656 0.50891 0.38571 0.0
C309 C 0.0754 0.51648 0.39597 0.0
C310 C 0.0584 0.48663 0.3509 0.0
N311 N 0.05133 0.50212 0.37427 0.0
C312 C 0.13364 0.46467 0.39511 0.0
C313 C 0.08147 0.43211 0.4344 0.0
C314 C 0.10931 0.44491 0.45198 0.0
C315 C 0.1356 0.46034 0.43151 0.0
C316 C 0.08048 0.43694 0.39782 0.0
N317 N 0.10638 0.45353 0.37857 0.0
H318 H 0.15417 0.4795 0.38118 0.0
H319 H 0.05876 0.42978 0.38598 0.0
H320 H 0.1182 0.51628 0.3981 0.0
H321 H 0.04362 0.47243 0.32997 0.0
O322 O 0.14281 0.51003 0.33586 0.0
O323 O 0.1099 0.4958 0.29184 0.0
O324 O 0.06397 0.43706 0.31918 0.0
C325 C 0.13455 0.5169 0.30616 0.0
H326 H 0.13234 0.41408 0.24381 0.0
H327 H 0.07773 0.53154 0.41751 0.0
H328 H 0.06057 0.42047 0.44924 0.0
H329 H 0.15761 0.4706 0.44395 0.0
Co330 Co 0.63301 0.11147 0.3391 0.0
C331 C 0.69491 0.15841 0.3165 0.0
C332 C 0.66935 0.12754 0.27474 0.0
C333 C 0.69613 0.1497 0.2607 0.0
N334 N 0.66858 0.13287 0.30974 0.0
N335 N 0.71202 0.16902 0.28698 0.0
H336 H 0.7009 0.17009 0.34166 0.0
H337 H 0.65111 0.10932 0.26015 0.0
C338 C 0.64715 0.0629 0.31408 0.0
O339 O 0.67636 0.08171 0.31528 0.0
N340 N 0.59725 0.09023 0.3675 0.0
C341 C 0.59148 0.09856 0.3992 0.0
C342 C 0.56384 0.07601 0.41099 0.0
C343 C 0.57312 0.06324 0.36009 0.0
N344 N 0.55245 0.05391 0.38627 0.0
C345 C 0.66813 0.14196 0.40075 0.0
C346 C 0.66059 0.09048 0.43421 0.0
C347 C 0.67003 0.11673 0.45454 0.0
C348 C 0.67521 0.1431 0.43693 0.0
C349 C 0.65365 0.09022 0.39819 0.0
N350 N 0.65645 0.11549 0.38198 0.0
H351 H 0.66929 0.16175 0.38888 0.0
H352 H 0.64325 0.06873 0.38475 0.0
H353 H 0.60645 0.11928 0.41306 0.0
H354 H 0.57071 0.0507 0.33598 0.0
O355 O 0.62931 0.14764 0.34301 0.0
O356 O 0.6091 0.1131 0.30063 0.0
O357 O 0.62877 0.07129 0.32486 0.0
C358 C 0.61249 0.13781 0.31466 0.0
H359 H 0.70305 0.15201 0.23316 0.0
H360 H 0.55348 0.07551 0.43624 0.0
H361 H 0.65666 0.06966 0.44658 0.0
H362 H 0.68231 0.16386 0.45157 0.0
Co363 Co 0.5209 0.63544 0.33579 0.0
C364 C 0.53572 0.69797 0.31676 0.0
C365 C 0.55003 0.67774 0.27705 0.0
C366 C 0.55674 0.70595 0.26544 0.0
N367 N 0.53749 0.673 0.3096 0.0
N368 N 0.54778 0.71871 0.29045 0.0
H369 H 0.52427 0.70023 0.33955 0.0
H370 H 0.55341 0.66146 0.26234 0.0
C371 C 0.58416 0.64738 0.31493 0.0
O372 O 0.59736 0.67652 0.32155 0.0
N373 N 0.50423 0.59796 0.36128 0.0
C374 C 0.48826 0.59066 0.39175 0.0
C375 C 0.48349 0.56292 0.40293 0.0
C376 C 0.50861 0.57472 0.35402 0.0
N377 N 0.49673 0.55332 0.37936 0.0
C378 C 0.52555 0.6687 0.39944 0.0
C379 C 0.56671 0.6574 0.43337 0.0
C380 C 0.55185 0.66921 0.45339 0.0
C381 C 0.53163 0.67563 0.43563 0.0
C382 C 0.56003 0.65081 0.39725 0.0
N383 N 0.53932 0.65605 0.3806 0.0
H384 H 0.50763 0.67098 0.38759 0.0
H385 H 0.56964 0.63894 0.38391 0.0
H386 H 0.48126 0.60481 0.40531 0.0
H387 H 0.52023 0.57348 0.33069 0.0
O388 O 0.48164 0.63294 0.33899 0.0
O389 O 0.49649 0.61444 0.29524 0.0
O390 O 0.5561 0.6302 0.32147 0.0
C391 C 0.47511 0.61752 0.30946 0.0
H392 H 0.56703 0.71608 0.24025 0.0
H393 H 0.47199 0.55114 0.42695 0.0
H394 H 0.58227 0.65175 0.44597 0.0
H395 H 0.51883 0.6838 0.45009 0.0
Co396 Co 0.52904 0.88973 0.8367 0.0
C397 C 0.54295 0.84205 0.81444 0.0
C398 C 0.56356 0.88081 0.78033 0.0
C399 C 0.5701 0.85954 0.76734 0.0
N400 N 0.54733 0.87028 0.81053 0.0
N401 N 0.55706 0.83528 0.78884 0.0
H402 H 0.52889 0.82619 0.83453 0.0
H403 H 0.56918 0.90196 0.76759 0.0
C404 C 0.59232 0.94354 0.82107 0.0
O405 O 0.60633 0.92906 0.83083 0.0
N406 N 0.51053 0.90885 0.8621 0.0
C407 C 0.49138 0.89733 0.88984 0.0
C408 C 0.48353 0.91827 0.90056 0.0
C409 C 0.51436 0.93653 0.85643 0.0
N410 N 0.49819 0.94274 0.87955 0.0
C411 C 0.53411 0.86 0.89874 0.0
C412 C 0.56943 0.91213 0.93729 0.0
C413 C 0.5553 0.88434 0.95523 0.0
C414 C 0.53855 0.85797 0.93509 0.0
C415 C 0.5646 0.91318 0.90077 0.0
N416 N 0.5466 0.88735 0.88191 0.0
H417 H 0.51822 0.83966 0.88512 0.0
H418 H 0.57296 0.93512 0.8888 0.0
H419 H 0.48385 0.87536 0.90158 0.0
H420 H 0.52848 0.9518 0.83579 0.0
O421 O 0.49042 0.85202 0.83829 0.0
O422 O 0.50534 0.88623 0.79548 0.0
O423 O 0.56372 0.93104 0.82412 0.0
C424 C 0.48412 0.86113 0.80883 0.0
H425 H 0.58223 0.86112 0.74313 0.0
H426 H 0.46877 0.91603 0.92239 0.0
H427 H 0.58218 0.93312 0.95182 0.0
H428 H 0.52736 0.83597 0.94775 0.0
Co429 Co 0.63269 0.52319 0.83511 0.0
C430 C 0.69512 0.53822 0.81655 0.0
C431 C 0.6761 0.55428 0.77753 0.0
C432 C 0.70464 0.56164 0.76672 0.0
N433 N 0.67046 0.54038 0.8093 0.0
N434 N 0.71671 0.55159 0.79132 0.0
H435 H 0.6965 0.52556 0.83859 0.0
H436 H 0.66036 0.55842 0.76288 0.0
C437 C 0.64498 0.58714 0.81635 0.0
O438 O 0.674 0.59968 0.82279 0.0
N439 N 0.59515 0.50569 0.86037 0.0
C440 C 0.58728 0.48745 0.88906 0.0
C441 C 0.55856 0.4801 0.89918 0.0
C442 C 0.57142 0.50922 0.85333 0.0
N443 N 0.54901 0.49403 0.87672 0.0
C444 C 0.66523 0.52651 0.89881 0.0
C445 C 0.65421 0.56754 0.93389 0.0
C446 C 0.66582 0.55225 0.95342 0.0
C447 C 0.67206 0.53208 0.93507 0.0
C448 C 0.64767 0.56132 0.89769 0.0
N449 N 0.65285 0.54074 0.88042 0.0
H450 H 0.66741 0.50863 0.8865 0.0
H451 H 0.63596 0.57126 0.88474 0.0
H452 H 0.60148 0.48016 0.90181 0.0
H453 H 0.5703 0.52227 0.83144 0.0
O454 O 0.63031 0.48382 0.83715 0.0
O455 O 0.61201 0.49929 0.79398 0.0
O456 O 0.62744 0.55888 0.82207 0.0
C457 C 0.61487 0.47757 0.80774 0.0
H458 H 0.7155 0.57331 0.7424 0.0
H459 H 0.54593 0.46624 0.92158 0.0
H460 H 0.6487 0.58309 0.94693 0.0
H461 H 0.68004 0.51892 0.94911 0.0
Co462 Co 0.10685 0.63922 0.8371 0.0
C463 C 0.15719 0.69971 0.81577 0.0
C464 C 0.1182 0.68524 0.78302 0.0
C465 C 0.14072 0.71238 0.77028 0.0
N466 N 0.12813 0.67757 0.8122 0.0
N467 N 0.16544 0.72131 0.79054 0.0
H468 H 0.17258 0.69929 0.83502 0.0
H469 H 0.09651 0.67158 0.77065 0.0
C470 C 0.05553 0.6523 0.82242 0.0
O471 O 0.07007 0.67921 0.83715 0.0
N472 N 0.08633 0.60117 0.86149 0.0
C473 C 0.09705 0.59345 0.88989 0.0
C474 C 0.07613 0.56459 0.89996 0.0
C475 C 0.0591 0.57718 0.8546 0.0
N476 N 0.05235 0.55465 0.87792 0.0
C477 C 0.13503 0.67307 0.90091 0.0
C478 C 0.08164 0.65494 0.93701 0.0
C479 C 0.10858 0.66814 0.95643 0.0
C480 C 0.13566 0.67838 0.93764 0.0
C481 C 0.08194 0.64985 0.90056 0.0
N482 N 0.10835 0.65845 0.88276 0.0
H483 H 0.15581 0.67816 0.88797 0.0
H484 H 0.0605 0.63621 0.8877 0.0
H485 H 0.11857 0.60788 0.90246 0.0
H486 H 0.04472 0.57607 0.83292 0.0
O487 O 0.14356 0.63649 0.83985 0.0
O488 O 0.11071 0.61927 0.79568 0.0
O489 O 0.06662 0.63473 0.82279 0.0
C490 C 0.13485 0.62163 0.80992 0.0
H491 H 0.13885 0.72438 0.74766 0.0
H492 H 0.07794 0.55201 0.92204 0.0
H493 H 0.06017 0.64681 0.9503 0.0
H494 H 0.15699 0.68833 0.95161 0.0
Co495 Co 0.46912 0.10831 0.83689 0.0
C496 C 0.45367 0.15527 0.81614 0.0
C497 C 0.4358 0.11785 0.77991 0.0
C498 C 0.42863 0.1388 0.76745 0.0
N499 N 0.45072 0.12771 0.81101 0.0
N500 N 0.43996 0.16221 0.79025 0.0
H501 H 0.46633 0.17051 0.83742 0.0
H502 H 0.4314 0.09733 0.76643 0.0
C503 C 0.40575 0.05479 0.8202 0.0
O504 O 0.39188 0.06987 0.82787 0.0
N505 N 0.48776 0.0892 0.86195 0.0
C506 C 0.50684 0.10032 0.88976 0.0
C507 C 0.51363 0.07865 0.90077 0.0
C508 C 0.4833 0.06131 0.85625 0.0
N509 N 0.4984 0.05417 0.87987 0.0
C510 C 0.4651 0.13816 0.89964 0.0
C511 C 0.42735 0.08611 0.93705 0.0
C512 C 0.44147 0.11375 0.9554 0.0
C513 C 0.45994 0.14007 0.93587 0.0
C514 C 0.433 0.08518 0.90074 0.0
N515 N 0.45195 0.11097 0.88236 0.0
H516 H 0.48174 0.15838 0.88638 0.0
H517 H 0.42419 0.06326 0.88854 0.0
H518 H 0.51489 0.1224 0.90146 0.0
H519 H 0.46952 0.04655 0.83519 0.0
O520 O 0.50785 0.14593 0.83786 0.0
O521 O 0.49227 0.11141 0.79529 0.0
O522 O 0.43419 0.06693 0.82477 0.0
C523 C 0.51365 0.13662 0.80818 0.0
H524 H 0.41721 0.13762 0.7428 0.0
H525 H 0.52799 0.0804 0.9228 0.0
H526 H 0.4138 0.06503 0.9511 0.0
H527 H 0.47161 0.16191 0.94888 0.0
Co528 Co 0.35771 0.4717 0.83382 0.0
C529 C 0.29652 0.45919 0.81201 0.0
C530 C 0.31587 0.44172 0.77508 0.0
C531 C 0.28865 0.43635 0.76184 0.0
N532 N 0.32054 0.45535 0.80698 0.0
N533 N 0.27665 0.44776 0.7848 0.0
H534 H 0.29421 0.47142 0.83403 0.0
H535 H 0.33158 0.43669 0.76179 0.0
C536 C 0.34506 0.4076 0.81484 0.0
O537 O 0.31601 0.39518 0.82105 0.0
N538 N 0.39484 0.48835 0.85978 0.0
C539 C 0.40234 0.50523 0.88961 0.0
C540 C 0.43053 0.5112 0.90029 0.0
C541 C 0.41833 0.4845 0.85246 0.0
N542 N 0.44009 0.49774 0.87705 0.0
C543 C 0.3237 0.46731 0.89662 0.0
C544 C 0.33537 0.42688 0.93202 0.0
C545 C 0.32341 0.44194 0.95142 0.0
C546 C 0.31678 0.46176 0.9329 0.0
C547 C 0.34208 0.43315 0.89587 0.0
N548 N 0.33669 0.45352 0.87849 0.0
H549 H 0.32119 0.48493 0.88413 0.0
H550 H 0.35423 0.42358 0.88312 0.0
H551 H 0.38817 0.51232 0.90289 0.0
H552 H 0.41966 0.4725 0.82954 0.0
O553 O 0.36054 0.51123 0.83658 0.0
O554 O 0.37925 0.49611 0.79338 0.0
O555 O 0.36265 0.43587 0.82042 0.0
C556 C 0.37634 0.51774 0.8074 0.0
H557 H 0.27866 0.42494 0.73712 0.0
H558 H 0.44271 0.52368 0.92367 0.0
H559 H 0.34112 0.41156 0.94514 0.0
H560 H 0.30847 0.47471 0.94681 0.0
Co561 Co 0.8899 0.35866 0.83797 0.0
C562 C 0.84235 0.29714 0.8165 0.0
C563 C 0.8688 0.32313 0.77209 0.0
C564 C 0.84529 0.29635 0.75962 0.0
N565 N 0.86704 0.32363 0.80784 0.0
N566 N 0.82846 0.28017 0.78753 0.0
H567 H 0.83435 0.29059 0.84332 0.0
H568 H 0.88546 0.3414 0.75598 0.0
C569 C 0.93638 0.34257 0.8107 0.0
O570 O 0.91626 0.31504 0.80099 0.0
N571 N 0.91155 0.3935 0.86801 0.0
C572 C 0.89937 0.40257 0.89366 0.0
C573 C 0.92065 0.43101 0.90477 0.0
C574 C 0.94002 0.41626 0.86408 0.0
N575 N 0.94598 0.43942 0.88596 0.0
C576 C 0.85324 0.32835 0.8988 0.0
C577 C 0.89734 0.32301 0.93484 0.0
C578 C 0.87229 0.31953 0.95394 0.0
C579 C 0.84941 0.32098 0.93508 0.0
C580 C 0.90024 0.33018 0.89863 0.0
N581 N 0.87901 0.33416 0.8813 0.0
H582 H 0.83653 0.33182 0.88548 0.0
H583 H 0.92088 0.33482 0.8857 0.0
H584 H 0.87611 0.39024 0.90218 0.0
H585 H 0.95532 0.41697 0.84388 0.0
O586 O 0.85764 0.36904 0.83463 0.0
O587 O 0.89646 0.3846 0.79844 0.0
O588 O 0.9289 0.35839 0.83005 0.0
C589 C 0.87333 0.38658 0.80831 0.0
H590 H 0.84015 0.28995 0.73199 0.0
H591 H 0.91744 0.44494 0.92398 0.0
H592 H 0.91543 0.32182 0.94826 0.0
H593 H 0.82976 0.31873 0.94874 0.0
Co594 Co 0.10696 0.47322 0.7273 0.0
C595 C 0.15608 0.46106 0.74689 0.0
C596 C 0.11866 0.43961 0.78262 0.0
C597 C 0.14084 0.43387 0.79404 0.0
N598 N 0.12784 0.45592 0.75239 0.0
N599 N 0.16437 0.44727 0.77142 0.0
H600 H 0.1711 0.47628 0.727 0.0
H601 H 0.09766 0.43309 0.79618 0.0
C602 C 0.05528 0.40867 0.74264 0.0
O603 O 0.07131 0.39629 0.73292 0.0
N604 N 0.08674 0.49089 0.70278 0.0
C605 C 0.09667 0.50839 0.67352 0.0
C606 C 0.07517 0.51544 0.66331 0.0
C607 C 0.05971 0.48777 0.71034 0.0
N608 N 0.05194 0.50222 0.68633 0.0
C609 C 0.1365 0.4694 0.664 0.0
C610 C 0.08435 0.43234 0.6266 0.0
C611 C 0.11174 0.44697 0.608 0.0
C612 C 0.13817 0.46466 0.6276 0.0
C613 C 0.08367 0.43741 0.66314 0.0
N614 N 0.10949 0.45618 0.68151 0.0
H615 H 0.15674 0.48603 0.67707 0.0
H616 H 0.06188 0.4285 0.67555 0.0
H617 H 0.11789 0.51521 0.66033 0.0
H618 H 0.04629 0.47561 0.73314 0.0
O619 O 0.14367 0.51279 0.72557 0.0
O620 O 0.11004 0.49647 0.76901 0.0
O621 O 0.06631 0.43727 0.74001 0.0
C622 C 0.13451 0.51844 0.75546 0.0
H623 H 0.13986 0.42115 0.81749 0.0
H624 H 0.07625 0.52879 0.64044 0.0
H625 H 0.06328 0.41888 0.61258 0.0
H626 H 0.15992 0.47625 0.61453 0.0
Co627 Co 0.63585 0.11116 0.72723 0.0
C628 C 0.69832 0.15799 0.74807 0.0
C629 C 0.6738 0.12704 0.7902 0.0
C630 C 0.70093 0.14916 0.8035 0.0
N631 N 0.67216 0.13243 0.75542 0.0
N632 N 0.71618 0.16858 0.77702 0.0
H633 H 0.70367 0.16971 0.72294 0.0
H634 H 0.65592 0.1088 0.80519 0.0
C635 C 0.64979 0.06197 0.75086 0.0
O636 O 0.67905 0.08044 0.74934 0.0
N637 N 0.59945 0.09015 0.69988 0.0
C638 C 0.59212 0.09973 0.67013 0.0
C639 C 0.56424 0.07728 0.65873 0.0
C640 C 0.57614 0.06241 0.70639 0.0
N641 N 0.55465 0.05386 0.68142 0.0
C642 C 0.66939 0.14156 0.66466 0.0
C643 C 0.66149 0.09017 0.63054 0.0
C644 C 0.67063 0.11645 0.6104 0.0
C645 C 0.67593 0.14276 0.6283 0.0
C646 C 0.65512 0.08986 0.66678 0.0
N647 N 0.65818 0.11512 0.68337 0.0
H648 H 0.67075 0.16133 0.67689 0.0
H649 H 0.64505 0.06839 0.68022 0.0
H650 H 0.60607 0.12142 0.65756 0.0
H651 H 0.57462 0.04891 0.7292 0.0
O652 O 0.63227 0.14745 0.7245 0.0
O653 O 0.61289 0.11281 0.76682 0.0
O654 O 0.63162 0.0708 0.74066 0.0
C655 C 0.61598 0.13754 0.75326 0.0
H656 H 0.70856 0.15135 0.83073 0.0
H657 H 0.55219 0.07782 0.63538 0.0
H658 H 0.65745 0.06939 0.61793 0.0
H659 H 0.68278 0.16353 0.61381 0.0
Co660 Co 0.52446 0.63813 0.7284 0.0
C661 C 0.53997 0.70118 0.74637 0.0
C662 C 0.55764 0.68258 0.78407 0.0
C663 C 0.5652 0.7112 0.79509 0.0
N664 N 0.54257 0.67658 0.753 0.0
N665 N 0.55403 0.7227 0.77136 0.0
H666 H 0.52745 0.70322 0.72456 0.0
H667 H 0.56199 0.66683 0.79845 0.0
C668 C 0.58788 0.64853 0.74632 0.0
O669 O 0.60198 0.67724 0.73734 0.0
N670 N 0.5062 0.59978 0.70471 0.0
C671 C 0.488 0.59104 0.67607 0.0
C672 C 0.48011 0.56167 0.66797 0.0
C673 C 0.509 0.57593 0.71384 0.0
N674 N 0.49324 0.55232 0.69197 0.0
C675 C 0.52827 0.67024 0.66418 0.0
C676 C 0.56742 0.65679 0.62885 0.0
C677 C 0.55295 0.6693 0.60936 0.0
C678 C 0.53365 0.67665 0.62782 0.0
C679 C 0.56134 0.65061 0.66516 0.0
N680 N 0.54175 0.65709 0.68254 0.0
H681 H 0.51116 0.67349 0.6767 0.0
H682 H 0.57056 0.63829 0.67824 0.0
H683 H 0.48111 0.60507 0.66203 0.0
H684 H 0.52292 0.57615 0.7355 0.0
O685 O 0.48552 0.63641 0.72619 0.0
O686 O 0.50098 0.61878 0.77016 0.0
O687 O 0.5594 0.63219 0.74198 0.0
C688 C 0.47944 0.62171 0.75619 0.0
H689 H 0.57688 0.72228 0.81933 0.0
H690 H 0.4659 0.54825 0.6462 0.0
H691 H 0.58226 0.65039 0.61577 0.0
H692 H 0.52105 0.68528 0.61385 0.0
Co693 Co 0.89194 0.5395 0.72903 0.0
C694 C 0.84261 0.54985 0.75244 0.0
C695 C 0.87802 0.56527 0.79096 0.0
C696 C 0.85528 0.56915 0.80461 0.0
N697 N 0.87049 0.55402 0.75782 0.0
N698 N 0.83266 0.55893 0.78063 0.0
H699 H 0.82922 0.53901 0.72916 0.0
H700 H 0.89858 0.57006 0.80448 0.0
C701 C 0.94103 0.60465 0.74801 0.0
O702 O 0.92209 0.61459 0.7529 0.0
N703 N 0.91226 0.52391 0.7005 0.0
C704 C 0.89947 0.50252 0.67504 0.0
C705 C 0.91987 0.49404 0.66447 0.0
C706 C 0.94012 0.52819 0.70516 0.0
N707 N 0.94521 0.51031 0.68342 0.0
C708 C 0.85561 0.53322 0.66761 0.0
C709 C 0.9012 0.58061 0.63014 0.0
C710 C 0.87546 0.55962 0.61163 0.0
C711 C 0.85189 0.53635 0.63113 0.0
C712 C 0.904 0.57678 0.66643 0.0
N713 N 0.88192 0.55261 0.68464 0.0
H714 H 0.83838 0.51358 0.68137 0.0
H715 H 0.92521 0.59214 0.67862 0.0
H716 H 0.87642 0.49262 0.66605 0.0
H717 H 0.95553 0.54238 0.72561 0.0
O718 O 0.85863 0.49736 0.73415 0.0
O719 O 0.8975 0.52114 0.77008 0.0
O720 O 0.93198 0.57817 0.73555 0.0
C721 C 0.87408 0.49594 0.76099 0.0
H722 H 0.85576 0.57892 0.83023 0.0
H723 H 0.9162 0.47674 0.64524 0.0
H724 H 0.91988 0.59902 0.6162 0.0
H725 H 0.8317 0.51938 0.61786 0.0
Co726 Co 0.36252 0.88634 0.72786 0.0
C727 C 0.30079 0.8387 0.74856 0.0
C728 C 0.32168 0.87317 0.78825 0.0
C729 C 0.29389 0.85147 0.8006 0.0
N730 N 0.32569 0.86554 0.75524 0.0
N731 N 0.2807 0.82978 0.7756 0.0
H732 H 0.2982 0.8251 0.72552 0.0
H733 H 0.33816 0.89286 0.8027 0.0
C734 C 0.34924 0.93671 0.7487 0.0
O735 O 0.32008 0.91946 0.74377 0.0
N736 N 0.39934 0.90667 0.70102 0.0
C737 C 0.40764 0.8949 0.67411 0.0
C738 C 0.4359 0.91638 0.66265 0.0
C739 C 0.42233 0.93502 0.70548 0.0
N740 N 0.44477 0.94143 0.68238 0.0
C741 C 0.32906 0.85596 0.66516 0.0
C742 C 0.33727 0.90723 0.63055 0.0
C743 C 0.32628 0.88034 0.61102 0.0
C744 C 0.3214 0.85427 0.62914 0.0
C745 C 0.34469 0.90799 0.66648 0.0
N746 N 0.34097 0.88265 0.68347 0.0
H747 H 0.32779 0.83624 0.67733 0.0
H748 H 0.35587 0.92973 0.67936 0.0
H749 H 0.39418 0.87221 0.66374 0.0
H750 H 0.4231 0.95047 0.72559 0.0
O751 O 0.36542 0.84964 0.72584 0.0
O752 O 0.38451 0.88436 0.76816 0.0
O753 O 0.3672 0.92694 0.74095 0.0
C754 C 0.38126 0.85946 0.7549 0.0
H755 H 0.28433 0.85153 0.82623 0.0
H756 H 0.44888 0.91396 0.6415 0.0
H757 H 0.34168 0.92802 0.61766 0.0
H758 H 0.31388 0.83319 0.61504 0.0
Co759 Co 0.46639 0.3566 0.72916 0.0
C760 C 0.45258 0.29423 0.74784 0.0
C761 C 0.43333 0.31191 0.78471 0.0
C762 C 0.42662 0.28363 0.79609 0.0
N763 N 0.44884 0.31824 0.75389 0.0
N764 N 0.43879 0.27271 0.77289 0.0
H765 H 0.46579 0.29269 0.72646 0.0
H766 H 0.42819 0.32726 0.79877 0.0
C767 C 0.40271 0.34571 0.74716 0.0
O768 O 0.38868 0.31707 0.73781 0.0
N769 N 0.48408 0.39488 0.70536 0.0
C770 C 0.50226 0.40376 0.67667 0.0
C771 C 0.50959 0.43293 0.66838 0.0
C772 C 0.48072 0.41843 0.71431 0.0
N773 N 0.49611 0.44202 0.69229 0.0
C774 C 0.4622 0.32415 0.66499 0.0
C775 C 0.4231 0.33778 0.62998 0.0
C776 C 0.43745 0.3252 0.61033 0.0
C777 C 0.45669 0.31772 0.62862 0.0
C778 C 0.42931 0.34398 0.66624 0.0
N779 N 0.44888 0.33743 0.68347 0.0
H780 H 0.4793 0.32084 0.67737 0.0
H781 H 0.42025 0.35645 0.67938 0.0
H782 H 0.50949 0.38996 0.66271 0.0
H783 H 0.46665 0.41801 0.73593 0.0
O784 O 0.50553 0.35881 0.7264 0.0
O785 O 0.49008 0.37625 0.77067 0.0
O786 O 0.43123 0.36207 0.74318 0.0
C787 C 0.51168 0.37357 0.75638 0.0
H788 H 0.41488 0.27245 0.82028 0.0
H789 H 0.52368 0.44641 0.64656 0.0
H790 H 0.40831 0.34427 0.61703 0.0
H791 H 0.46917 0.30899 0.61453 0.0
C792 C 0.52309 0.0262 0.18765 0.0
C793 C 0.49607 0.02684 0.19031 0.0
C794 C 0.52283 0.99868 0.18754 0.0
C795 C 0.49552 0.97111 0.18921 0.0
H796 H 0.5445 0.04712 0.18656 0.0
H797 H 0.54403 0.99882 0.1861 0.0
S798 S 0.41878 0.9606 0.19573 0.0
N799 N 0.44134 0.99767 0.19425 0.0
N800 N 0.441 0.94581 0.19345 0.0
C801 C 0.46837 0.97138 0.19123 0.0
C802 C 0.46862 -0.00065 0.19197 0.0
C803 C 0.49366 0.47115 0.17682 0.0
C804 C 0.52147 0.49772 0.18164 0.0
C805 C 0.46672 0.47193 0.17772 0.0
C806 C 0.46708 0.49939 0.18256 0.0
H807 H 0.49278 0.44966 0.17341 0.0
H808 H 0.44548 0.45105 0.17465 0.0
S809 S 0.5341 0.57512 0.19542 0.0
N810 N 0.54789 0.55216 0.19083 0.0
N811 N 0.49711 0.55356 0.19193 0.0
C812 C 0.49473 0.52612 0.18661 0.0
C813 C 0.52204 0.5253 0.18632 0.0
C814 C 0.00571 0.51386 0.21822 0.0
C815 C 0.02175 0.52785 0.18707 0.0
C816 C 0.97791 0.48715 0.21668 0.0
C817 C 0.96514 0.47346 0.18394 0.0
H818 H 0.01498 0.52334 0.24401 0.0
H819 H 0.96638 0.47706 0.24136 0.0
S820 S -0.00241 0.50193 0.09462 0.0
N821 N 0.02228 0.5271 0.12248 0.0
N822 N 0.97045 0.47605 0.11963 0.0
C823 C 0.98071 0.48748 0.15254 0.0
C824 C 0.00898 0.51484 0.15411 0.0
C825 C 0.0077 0.50007 0.34433 0.0
C826 C 0.02327 0.50205 0.37587 0.0
C827 C 0.97993 0.49905 0.34514 0.0
C828 C 0.96672 0.49996 0.37751 0.0
H829 H 0.01717 0.49958 0.31878 0.0
H830 H 0.96868 0.49746 0.32022 0.0
S831 S -0.00173 0.50507 0.46756 0.0
N832 N 0.02314 0.50417 0.44042 0.0
N833 N 0.97148 0.50358 0.44184 0.0
C834 C 0.98203 0.50199 0.40926 0.0
C835 C 0.01025 0.50283 0.40845 0.0
C836 C 0.49717 0.97143 0.37354 0.0
C837 C 0.47078 0.96879 0.38793 0.0
C838 C 0.52395 -0.00067 0.37357 0.0
C839 C 0.52495 0.02533 0.3879 0.0
H840 H 0.49688 0.9519 0.36182 0.0
H841 H 0.544 0.00058 0.3623 0.0
S842 S 0.4609 0.02931 0.42823 0.0
N843 N 0.44656 0.99343 0.41683 0.0
N844 N 0.49679 0.04636 0.41643 0.0
C845 C 0.4985 0.02266 0.40266 0.0
C846 C 0.47135 0.9942 0.4027 0.0
C847 C 0.47367 0.47197 0.39258 0.0
C848 C 0.49936 0.47125 0.38122 0.0
C849 C 0.47318 0.4991 0.39268 0.0
C850 C 0.49833 0.52612 0.38109 0.0
H851 H 0.45378 0.45129 0.40086 0.0
H852 H 0.45275 0.49881 0.4008 0.0
S853 S 0.57165 0.53567 0.35086 0.0
N854 N 0.55071 0.49916 0.35957 0.0
N855 N 0.5503 0.55064 0.36 0.0
C856 C 0.52449 0.52564 0.37057 0.0
C857 C 0.5249 0.49801 0.37063 0.0
C858 C 0.52494 0.02547 0.88488 0.0
C859 C 0.49785 0.02593 0.88213 0.0
C860 C 0.52488 0.99803 0.88425 0.0
C861 C 0.49769 0.9704 0.88174 0.0
H862 H 0.54625 0.04646 0.88637 0.0
H863 H 0.54614 0.99829 0.8856 0.0
S864 S 0.42083 0.95952 0.87496 0.0
N865 N 0.44319 0.99657 0.87744 0.0
N866 N 0.4432 0.9449 0.8769 0.0
C867 C 0.47047 0.97052 0.87987 0.0
C868 C 0.47052 0.99839 0.87987 0.0
C869 C 0.49512 0.52302 0.88216 0.0
C870 C 0.46721 0.49634 0.87873 0.0
C871 C 0.52196 0.5221 0.88153 0.0
C872 C 0.52142 0.49442 0.87839 0.0
H873 H 0.49611 0.54466 0.88431 0.0
H874 H 0.5433 0.54304 0.88349 0.0
S875 S 0.45417 0.41843 0.86922 0.0
N876 N 0.44051 0.44161 0.87236 0.0
N877 N 0.49122 0.43999 0.87188 0.0
C878 C 0.49372 0.46762 0.87562 0.0
C879 C 0.46647 0.46856 0.8756 0.0
C880 C 0.00094 0.47123 0.88648 0.0
C881 C 0.97239 0.46864 0.88494 0.0
C882 C 0.02709 0.49954 0.8843 0.0
C883 C 0.02533 0.5259 0.87956 0.0
H884 H 0.00293 0.45121 0.88961 0.0
H885 H 0.04886 0.50089 0.88582 0.0
S886 S 0.95577 0.5308 0.87234 0.0
N887 N 0.94363 0.49438 0.87774 0.0
N888 N 0.99297 0.54776 0.87292 0.0
C889 C -0.00311 0.52354 0.87745 0.0
C890 C 0.9703 0.49481 0.8804 0.0
C891 C -0.00067 0.53235 0.67399 0.0
C892 C 0.97145 0.50742 0.68309 0.0
C893 C 0.02559 0.53045 0.67498 0.0
C894 C 0.02464 0.50352 0.6853 0.0
H895 H 0.00061 0.55328 0.66583 0.0
H896 H 0.04684 0.55027 0.66814 0.0
S897 S 0.95632 0.43147 0.7103 0.0
N898 N 0.94374 0.45496 0.70175 0.0
N899 N 0.99313 0.45099 0.70351 0.0
C900 C 0.99662 0.47823 0.69402 0.0
C901 C 0.96993 0.48024 0.69279 0.0
C902 C 0.49962 0.02426 0.67484 0.0
C903 C 0.52734 0.02534 0.67952 0.0
C904 C 0.47255 0.99658 0.67558 0.0
C905 C 0.47263 0.96931 0.68006 0.0
H906 H 0.49893 0.04499 0.67173 0.0
H907 H 0.4514 0.99636 0.67274 0.0
S908 S 0.53925 0.96011 0.69245 0.0
N909 N 0.55335 0.99698 0.68825 0.0
N910 N 0.50229 0.94483 0.68894 0.0
C911 C 0.50016 0.97005 0.68393 0.0
C912 C 0.52763 0.99817 0.68386 0.0
C913 C 0.49536 0.48378 0.66071 0.0
C914 C 0.49602 0.47006 0.69279 0.0
C915 C 0.49375 0.51032 0.66062 0.0
C916 C 0.49285 0.52404 0.6926 0.0
H917 H 0.49566 0.47367 0.63553 0.0
H918 H 0.49375 0.52048 0.63539 0.0
S919 S 0.49389 0.497 0.78377 0.0
N920 N 0.49631 0.47247 0.75738 0.0
N921 N 0.49179 0.52156 0.75717 0.0
C922 C 0.49324 0.51043 0.72488 0.0
C923 C 0.49519 0.48361 0.72498 0.0
C924 C 0.46321 0.24715 0.28696 0.0
C925 C 0.43622 0.24799 0.28491 0.0
C926 C 0.46327 0.21989 0.28215 0.0
C927 C 0.43625 0.19267 0.27608 0.0
H928 H 0.48435 0.26777 0.29179 0.0
H929 H 0.48439 0.2199 0.28377 0.0
S930 S 0.35982 0.18295 0.26894 0.0
N931 N 0.38206 0.21955 0.27615 0.0
N932 N 0.38204 0.1681 0.26843 0.0
C933 C 0.40919 0.19323 0.27434 0.0
C934 C 0.40922 0.221 0.27838 0.0
C935 C 0.23366 0.44725 0.30701 0.0
C936 C 0.24447 0.44494 0.27341 0.0
C937 C 0.20648 0.44739 0.31067 0.0
C938 C 0.18889 0.44512 0.28091 0.0
H939 H 0.2464 0.44916 0.33075 0.0
H940 H 0.19891 0.44876 0.33711 0.0
S941 S 0.20748 0.43951 0.18682 0.0
N942 N 0.23538 0.4404 0.20973 0.0
N943 N 0.18495 0.44186 0.21645 0.0
C944 C 0.19963 0.44328 0.24706 0.0
C945 C 0.22726 0.44298 0.24335 0.0
C946 C 0.79149 0.23124 0.30254 0.0
C947 C 0.7953 0.25279 0.27661 0.0
C948 C 0.76414 0.20394 0.30599 0.0
C949 C 0.73984 0.19707 0.2833 0.0
H950 H 0.80984 0.23547 0.32024 0.0
H951 H 0.76202 0.1879 0.3262 0.0
S952 S 0.73669 0.24639 0.21339 0.0
N953 N 0.77115 0.26596 0.22969 0.0
N954 N 0.72031 0.21415 0.23551 0.0
C955 C 0.7431 0.2183 0.2575 0.0
C956 C 0.77072 0.24628 0.25426 0.0
C957 C 0.54847 0.78688 0.25127 0.0
C958 C 0.55181 0.80478 0.28121 0.0
C959 C 0.54707 0.75888 0.25456 0.0
C960 C 0.54899 0.74755 0.28795 0.0
H961 H 0.54729 0.79473 0.22494 0.0
H962 H 0.5442 0.7459 0.23067 0.0
S963 S 0.55733 0.78529 0.37492 0.0
N964 N 0.55589 0.80859 0.34566 0.0
N965 N 0.55476 0.75669 0.35164 0.0
C966 C 0.55229 0.76517 0.31819 0.0
C967 C 0.55342 0.79362 0.31487 0.0
C968 C 0.75805 0.55202 0.25157 0.0
C969 C 0.7408 0.55045 0.28144 0.0
C970 C 0.78606 0.55359 0.25519 0.0
C971 C 0.79818 0.55382 0.28888 0.0
H972 H 0.75003 0.55243 0.2251 0.0
H973 H 0.79814 0.55435 0.23126 0.0
S974 S 0.76171 0.54945 0.37578 0.0
N975 N 0.73728 0.54767 0.34598 0.0
N976 N 0.79069 0.55283 0.35283 0.0
C977 C 0.78115 0.55229 0.31903 0.0
C978 C 0.75236 0.55012 0.31532 0.0
C979 C 0.23456 0.79014 0.3126 0.0
C980 C 0.25288 0.80402 0.28275 0.0
C981 C 0.20658 0.76353 0.30939 0.0
C982 C 0.19564 0.74967 0.27615 0.0
H983 H 0.24172 0.80013 0.33869 0.0
H984 H 0.19355 0.75366 0.33327 0.0
S985 S 0.2351 0.77654 0.18961 0.0
N986 N 0.25857 0.80105 0.2189 0.0
N987 N 0.20532 0.7522 0.21259 0.0
C988 C 0.21375 0.76329 0.24602 0.0
C989 C 0.24245 0.79017 0.24937 0.0
C990 C 0.5289 0.77974 0.78282 0.0
C991 C 0.5565 0.80714 0.78386 0.0
C992 C 0.52813 0.75212 0.77758 0.0
C993 C 0.55495 0.75114 0.77417 0.0
H994 H 0.5079 0.77981 0.78573 0.0
H995 H 0.50657 0.73133 0.777 0.0
S996 S 0.63272 0.81641 0.77555 0.0
N997 N 0.61106 0.83161 0.78079 0.0
N998 N 0.60958 0.77953 0.77221 0.0
C999 C 0.58257 0.7783 0.77536 0.0
C1000 C 0.58335 0.80639 0.77985 0.0
C1001 C 0.78784 0.55751 0.75386 0.0
C1002 C 0.80358 0.55704 0.78427 0.0
C1003 C 0.75962 0.55558 0.75642 0.0
C1004 C 0.74586 0.55342 0.78956 0.0
H1005 H 0.79747 0.55963 0.72769 0.0
H1006 H 0.74843 0.55552 0.73204 0.0
S1007 S 0.77745 0.55137 0.87768 0.0
N1008 N 0.80254 0.55313 0.84883 0.0
N1009 N 0.75078 0.55188 0.85371 0.0
C1010 C 0.76144 0.55323 0.8203 0.0
C1011 C 0.78996 0.55455 0.81766 0.0
C1012 C 0.24088 0.78897 0.81201 0.0
C1013 C 0.25197 0.80213 0.77848 0.0
C1014 C 0.21285 0.76248 0.81564 0.0
C1015 C 0.19473 0.74794 0.7859 0.0
H1016 H 0.25399 0.79911 0.83576 0.0
H1017 H 0.2051 0.75361 0.84206 0.0
S1018 S 0.21378 0.77234 0.69188 0.0
N1019 N 0.24241 0.79845 0.71487 0.0
N1020 N 0.19073 0.74779 0.72145 0.0
C1021 C 0.20581 0.76044 0.75209 0.0
C1022 C 0.23418 0.78768 0.74844 0.0
C1023 C 0.46654 0.21776 0.78485 0.0
C1024 C 0.43946 0.18987 0.78603 0.0
C1025 C 0.46629 0.24487 0.77954 0.0
C1026 C 0.43893 0.24481 0.7762 0.0
H1027 H 0.48793 0.21846 0.78755 0.0
H1028 H 0.48746 0.26605 0.77874 0.0
S1029 S 0.36218 0.17785 0.77803 0.0
N1030 N 0.38484 0.16379 0.78323 0.0
N1031 N 0.38434 0.21488 0.77459 0.0
C1032 C 0.41182 0.21714 0.77768 0.0
C1033 C 0.41209 0.18958 0.78222 0.0
C1034 C 0.20427 0.44629 0.80761 0.0
C1035 C 0.19286 0.4479 0.77414 0.0
C1036 C 0.23169 0.44654 0.81086 0.0
C1037 C 0.24889 0.4484 0.7808 0.0
H1038 H 0.19203 0.44503 0.8316 0.0
H1039 H 0.23926 0.4448 0.83714 0.0
S1040 S 0.22954 0.45387 0.68701 0.0
N1041 N 0.20093 0.45112 0.71022 0.0
N1042 N 0.25311 0.45331 0.71644 0.0
C1043 C 0.238 0.45051 0.74718 0.0
C1044 C 0.2099 0.4499 0.74384 0.0
C1045 C 0.76764 0.20372 0.75581 0.0
C1046 C 0.74421 0.19656 0.78009 0.0
C1047 C 0.79525 0.23085 0.75878 0.0
C1048 C 0.80022 0.25194 0.78587 0.0
H1049 H 0.76468 0.18801 0.73474 0.0
H1050 H 0.8129 0.23527 0.73984 0.0
S1051 S 0.74417 0.24485 0.85355 0.0
N1052 N 0.72673 0.21305 0.83064 0.0
N1053 N 0.77804 0.26448 0.83568 0.0
C1054 C 0.7765 0.24519 0.80981 0.0
C1055 C 0.74862 0.2174 0.80701 0.0
C1056 C 0.35819 0.00418 0.26117 0.0
C1057 C 0.38861 0.02621 0.26677 0.0
C1058 C 0.34491 0.97612 0.27909 0.0
C1059 C 0.36152 0.96917 0.30343 0.0
H1060 H 0.34482 0.00825 0.24206 0.0
H1061 H 0.32181 0.9594 0.27288 0.0
S1062 S 0.44056 0.02084 0.33153 0.0
N1063 N 0.43395 0.04011 0.30126 0.0
N1064 N 0.40898 0.98811 0.33489 0.0
C1065 C 0.39142 0.99167 0.31056 0.0
C1066 C 0.40494 0.01995 0.29228 0.0
C1067 C 0.34746 0.36038 0.25997 0.0
C1068 C 0.35702 0.39117 0.26553 0.0
C1069 C 0.36124 0.34619 0.27802 0.0
C1070 C 0.38486 0.36221 0.30252 0.0
H1071 H 0.32995 0.34744 0.24072 0.0
H1072 H 0.35407 0.32284 0.27176 0.0
S1073 S 0.41432 0.44172 0.33113 0.0
N1074 N 0.38922 0.43614 0.30029 0.0
N1075 N 0.41422 0.40944 0.33453 0.0
C1076 C 0.39321 0.39244 0.30977 0.0
C1077 C 0.37954 0.4069 0.29122 0.0
C1078 C -0.00153 0.36235 0.30927 0.0
C1079 C 0.02075 0.39184 0.29957 0.0
C1080 C 0.96999 0.34777 0.29252 0.0
C1081 C 0.96279 0.36198 0.26514 0.0
H1082 H 0.00266 0.35084 0.33076 0.0
H1083 H 0.95316 0.32563 0.302 0.0
S1084 S 0.01503 0.43724 0.22594 0.0
N1085 N 0.0346 0.43348 0.25833 0.0
N1086 N 0.98195 0.40585 0.22636 0.0
C1087 C 0.9856 0.39073 0.25385 0.0
C1088 C 0.01429 0.4057 0.27116 0.0
C1089 C 0.58962 0.98423 0.28177 0.0
C1090 C 0.60671 0.97442 0.26236 0.0
C1091 C 0.60312 0.01223 0.29907 0.0
C1092 C 0.63448 0.03215 0.29788 0.0
H1093 H 0.56535 0.97017 0.28382 0.0
H1094 H 0.58853 0.01832 0.31323 0.0
S1095 S 0.68994 0.01721 0.25173 0.0
N1096 N 0.65706 0.98664 0.24387 0.0
N1097 N 0.68256 0.0396 0.27624 0.0
C1098 C 0.6521 0.0225 0.27921 0.0
C1099 C 0.63823 0.99365 0.26153 0.0
C1100 C 0.58399 0.60361 0.28483 0.0
C1101 C 0.60062 0.63362 0.29719 0.0
C1102 C 0.59785 0.58944 0.26776 0.0
C1103 C 0.62918 0.6044 0.2618 0.0
H1104 H 0.55976 0.59065 0.28809 0.0
H1105 H 0.58355 0.56627 0.25947 0.0
S1106 S 0.68347 0.68361 0.28808 0.0
N1107 N 0.65047 0.67825 0.3017 0.0
N1108 N 0.67665 0.6515 0.26938 0.0
C1109 C 0.64628 0.63464 0.27353 0.0
C1110 C 0.63202 0.64922 0.29118 0.0
C1111 C 0.97671 0.63402 0.27841 0.0
C1112 C 0.96854 0.61145 0.30456 0.0
C1113 C 0.00493 0.64694 0.26104 0.0
C1114 C 0.02593 0.6376 0.26896 0.0
H1115 H 0.96076 0.64092 0.27028 0.0
H1116 H 0.00988 0.6636 0.24045 0.0
S1117 S 0.01748 0.58291 0.33947 0.0
N1118 N 0.98549 0.58336 0.34059 0.0
N1119 N 0.03768 0.60668 0.30763 0.0
C1120 C 0.01854 0.61614 0.29631 0.0
C1121 C 0.99012 0.60335 0.31416 0.0
C1122 C 0.59157 0.98411 0.78478 0.0
C1123 C 0.60857 0.97356 0.80289 0.0
C1124 C 0.60528 0.01202 0.76734 0.0
C1125 C 0.6368 0.03117 0.76708 0.0
H1126 H 0.56719 0.97069 0.78385 0.0
H1127 H 0.59071 0.01864 0.75429 0.0
S1128 S 0.69211 0.01398 0.80932 0.0
N1129 N 0.659 0.98414 0.81849 0.0
N1130 N 0.68491 0.03699 0.78588 0.0
C1131 C 0.65432 0.02075 0.78443 0.0
C1132 C 0.64022 0.99196 0.80223 0.0
C1133 C 0.60035 0.59172 0.79822 0.0
C1134 C 0.63191 0.60485 0.80012 0.0
C1135 C 0.58677 0.6061 0.78092 0.0
C1136 C 0.60395 0.63453 0.76447 0.0
H1137 H 0.5857 0.56991 0.81009 0.0
H1138 H 0.56238 0.59461 0.78071 0.0
S1139 S 0.68761 0.67958 0.76247 0.0
N1140 N 0.68019 0.64864 0.78454 0.0
N1141 N 0.65457 0.67583 0.75208 0.0
C1142 C 0.6356 0.64842 0.7667 0.0
C1143 C 0.64956 0.63361 0.78446 0.0
C1144 C 0.00554 0.64994 0.81279 0.0
C1145 C 0.02761 0.64303 0.80145 0.0
C1146 C 0.97813 0.63908 0.79412 0.0
C1147 C 0.97209 0.62136 0.76315 0.0
H1148 H 0.0089 0.6627 0.83702 0.0
H1149 H 0.96104 0.64339 0.805 0.0
S1150 S 0.02523 0.60239 0.71872 0.0
N1151 N 0.04305 0.6205 0.75508 0.0
N1152 N 0.99256 0.60149 0.71938 0.0
C1153 C 0.99502 0.61636 0.75025 0.0
C1154 C 0.02248 0.6268 0.76955 0.0
C1155 C 0.40656 0.01108 0.79126 0.0
C1156 C 0.38963 0.02437 0.80273 0.0
C1157 C 0.39322 0.98325 0.77371 0.0
C1158 C 0.36214 0.96701 0.76621 0.0
H1159 H 0.43063 0.0223 0.79545 0.0
H1160 H 0.40774 0.97443 0.76624 0.0
S1161 S 0.30712 0.99144 0.79014 0.0
N1162 N 0.33968 0.01895 0.80517 0.0
N1163 N 0.31448 0.96642 0.77181 0.0
C1164 C 0.34468 0.97989 0.77735 0.0
C1165 C 0.35841 0.00851 0.79557 0.0
C1166 C 0.38976 0.40282 0.7977 0.0
C1167 C 0.3582 0.38973 0.79919 0.0
C1168 C 0.40348 0.38825 0.78113 0.0
C1169 C 0.38646 0.35972 0.76488 0.0
H1170 H 0.40432 0.42476 0.80926 0.0
H1171 H 0.42788 0.39972 0.78129 0.0
S1172 S 0.30281 0.31473 0.7619 0.0
N1173 N 0.31004 0.34584 0.78349 0.0
N1174 N 0.33593 0.31835 0.75219 0.0
C1175 C 0.35478 0.34587 0.76667 0.0
C1176 C 0.34067 0.36084 0.78378 0.0
C1177 C 0.00924 0.40507 0.77082 0.0
C1178 C 0.02473 0.3903 0.75918 0.0
C1179 C 0.98115 0.38938 0.78765 0.0
C1180 C 0.96696 0.35806 0.79405 0.0
H1181 H 0.01879 0.42916 0.767 0.0
H1182 H 0.97015 0.402 0.7948 0.0
S1183 S -0.00299 0.308 0.76831 0.0
N1184 N 0.02316 0.34193 0.75482 0.0
N1185 N 0.97013 0.31247 0.78657 0.0
C1186 C 0.98177 0.34271 0.78219 0.0
C1187 C 0.01066 0.35879 0.76492 0.0
C1188 C 0.56463 0.15365 0.25245 0.0
C1189 C 0.54161 0.15087 0.27528 0.0
C1190 C 0.58971 0.15259 0.26581 0.0
C1191 C 0.5931 0.1498 0.30247 0.0
H1192 H 0.56167 0.15321 0.22391 0.0
H1193 H 0.60533 0.15158 0.24718 0.0
S1194 S 0.54133 0.14619 0.37353 0.0
N1195 N 0.52527 0.14819 0.33637 0.0
N1196 N 0.5731 0.14771 0.36152 0.0
C1197 C 0.57196 0.1504 0.32573 0.0
C1198 C 0.54601 0.15058 0.3121 0.0
C1199 C 0.43862 0.59447 0.25957 0.0
C1200 C 0.4439 0.59843 0.2964 0.0
C1201 C 0.41262 0.56929 0.2459 0.0
C1202 C 0.39157 0.54675 0.26865 0.0
H1203 H 0.45584 0.60964 0.24114 0.0
H1204 H 0.41077 0.56585 0.2174 0.0
S1205 S 0.39325 0.54814 0.36705 0.0
N1206 N 0.42411 0.57955 0.35531 0.0
N1207 N 0.37612 0.5315 0.32963 0.0
C1208 C 0.39535 0.55174 0.30546 0.0
C1209 C 0.42132 0.57782 0.31937 0.0
C1210 C 0.84708 0.45031 0.25761 0.0
C1211 C 0.84661 0.45476 0.29445 0.0
C1212 C 0.8464 0.42432 0.24403 0.0
C1213 C 0.84621 0.4025 0.26695 0.0
H1214 H 0.85024 0.46804 0.23931 0.0
H1215 H 0.8492 0.42291 0.21568 0.0
S1216 S 0.84196 0.4021 0.36516 0.0
N1217 N 0.84254 0.43354 0.35331 0.0
N1218 N 0.84297 0.38561 0.32781 0.0
C1219 C 0.84352 0.4056 0.30359 0.0
C1220 C 0.84322 0.43153 0.31736 0.0
C1221 C 0.42094 0.84847 0.32179 0.0
C1222 C 0.39932 0.84847 0.29884 0.0
C1223 C 0.44679 0.84899 0.30825 0.0
C1224 C 0.45135 0.84862 0.27141 0.0
H1225 H 0.41961 0.85147 0.35011 0.0
H1226 H 0.46447 0.85226 0.3266 0.0
S1227 S 0.39879 0.84371 0.20066 0.0
N1228 N 0.38246 0.84501 0.23797 0.0
N1229 N 0.43005 0.84415 0.21257 0.0
C1230 C 0.42812 0.84503 0.2485 0.0
C1231 C 0.40233 0.8455 0.26222 0.0
C1232 C 0.58875 0.44114 0.30373 0.0
C1233 C 0.59334 0.4464 0.26695 0.0
C1234 C 0.56321 0.41527 0.31702 0.0
C1235 C 0.54094 0.39437 0.29393 0.0
H1236 H 0.60373 0.45829 0.32234 0.0
H1237 H 0.55932 0.41343 0.34545 0.0
S1238 S 0.54377 0.39611 0.19559 0.0
N1239 N 0.57522 0.42673 0.20779 0.0
N1240 N 0.52644 0.37908 0.23277 0.0
C1241 C 0.54644 0.39814 0.25722 0.0
C1242 C 0.5729 0.42394 0.24371 0.0
C1243 C 0.14772 0.58053 0.24489 0.0
C1244 C 0.14832 0.60193 0.26893 0.0
C1245 C 0.14664 0.55398 0.25708 0.0
C1246 C 0.14719 0.54847 0.29362 0.0
H1247 H 0.14467 0.58259 0.21676 0.0
H1248 H 0.1429 0.53658 0.23793 0.0
S1249 S 0.15436 0.60028 0.36684 0.0
N1250 N 0.15296 0.61765 0.3305 0.0
N1251 N 0.15294 0.5688 0.35332 0.0
C1252 C 0.15158 0.57149 0.31757 0.0
C1253 C 0.1516 0.59798 0.30523 0.0
C1254 C 0.44834 0.84879 0.75848 0.0
C1255 C 0.45301 0.84859 0.7953 0.0
C1256 C 0.42232 0.8479 0.74504 0.0
C1257 C 0.40064 0.84781 0.76807 0.0
H1258 H 0.46603 0.85213 0.74006 0.0
H1259 H 0.42086 0.85068 0.71671 0.0
S1260 S 0.40044 0.8435 0.86627 0.0
N1261 N 0.43181 0.84419 0.85423 0.0
N1262 N 0.38391 0.84448 0.82902 0.0
C1263 C 0.40382 0.84507 0.80468 0.0
C1264 C 0.42977 0.84491 0.81831 0.0
C1265 C 0.5643 0.4146 0.7455 0.0
C1266 C 0.54288 0.39332 0.76908 0.0
C1267 C 0.58976 0.44087 0.75823 0.0
C1268 C 0.59518 0.44622 0.7949 0.0
H1269 H 0.55978 0.41262 0.71722 0.0
H1270 H 0.60405 0.45815 0.73933 0.0
S1271 S 0.54811 0.39513 0.86728 0.0
N1272 N 0.53011 0.37788 0.83051 0.0
N1273 N 0.57881 0.4262 0.85437 0.0
C1274 C 0.57564 0.42346 0.81852 0.0
C1275 C 0.54922 0.39726 0.80561 0.0
C1276 C 0.14689 0.57166 0.74625 0.0
C1277 C 0.14604 0.5495 0.76916 0.0
C1278 C 0.14658 0.59721 0.75975 0.0
C1279 C 0.1464 0.60197 0.79659 0.0
H1280 H 0.14455 0.5677 0.71784 0.0
H1281 H 0.14411 0.6121 0.74128 0.0
S1282 S 0.1488 0.55286 0.86749 0.0
N1283 N 0.14793 0.53536 0.8302 0.0
N1284 N 0.14916 0.58416 0.85552 0.0
C1285 C 0.14893 0.58166 0.81959 0.0
C1286 C 0.14824 0.55516 0.80587 0.0
C1287 C 0.56719 0.15095 0.81675 0.0
C1288 C 0.5445 0.14897 0.794 0.0
C1289 C 0.59254 0.15056 0.80309 0.0
C1290 C 0.59651 0.14922 0.76627 0.0
H1291 H 0.56375 0.14938 0.84526 0.0
H1292 H 0.60789 0.14887 0.8215 0.0
S1293 S 0.54582 0.14841 0.69561 0.0
N1294 N 0.52906 0.14868 0.73303 0.0
N1295 N 0.57747 0.1496 0.70735 0.0
C1296 C 0.57571 0.15071 0.74328 0.0
C1297 C 0.54945 0.15015 0.75718 0.0
C1298 C 0.4012 0.55481 0.75822 0.0
C1299 C 0.39604 0.54915 0.79488 0.0
C1300 C 0.42662 0.58112 0.74553 0.0
C1301 C 0.44828 0.60212 0.76913 0.0
H1302 H 0.38671 0.53772 0.73925 0.0
H1303 H 0.43094 0.58331 0.7172 0.0
S1304 S 0.44373 0.59944 0.8674 0.0
N1305 N 0.4129 0.56852 0.85445 0.0
N1306 N 0.46149 0.61701 0.83064 0.0
C1307 C 0.44217 0.59789 0.80571 0.0
C1308 C 0.4158 0.57162 0.8186 0.0
C1309 C 0.8448 0.43993 0.7781 0.0
C1310 C 0.87217 0.4674 0.7737 0.0
C1311 C 0.84459 0.41347 0.79018 0.0
C1312 C 0.87179 0.41365 0.79686 0.0
H1313 H 0.82359 0.43898 0.77262 0.0
H1314 H 0.82323 0.39278 0.79356 0.0
S1315 S 0.94945 0.47961 0.78843 0.0
N1316 N 0.92703 0.49263 0.77705 0.0
N1317 N 0.92659 0.44378 0.79813 0.0
C1318 C 0.89908 0.44098 0.79216 0.0
C1319 C 0.89929 0.4676 0.78092 0.0
C1320 C 0.46662 0.13172 0.05213 0.0
C1321 C 0.43979 0.11474 0.07164 0.0
C1322 C 0.46673 0.13171 1.01481 0.0
C1323 C 0.44 0.11476 0.99514 0.0
H1324 H 0.48798 0.1445 0.0658 0.0
H1325 H 0.48818 0.14446 1.00129 0.0
S1326 S 0.36325 0.0685 0.0332 0.0
N1327 N 0.38544 0.08185 0.06831 0.0
N1328 N 0.38561 0.0819 0.99821 0.0
C1329 C 0.41288 0.09819 1.01426 0.0
C1330 C 0.41278 0.09817 0.05238 0.0
C1331 C 0.34612 0.44209 0.04806 0.0
C1332 C 0.3217 0.43996 0.06772 0.0
C1333 C 0.34608 0.44206 1.01074 0.0
C1334 C 0.32159 0.43986 0.99119 0.0
H1335 H 0.36597 0.44476 0.0616 0.0
H1336 H 0.3659 0.4447 0.99711 0.0
S1337 S 0.25087 0.43112 1.02964 0.0
N1338 N 0.27151 0.4338 0.06464 0.0
N1339 N 0.27141 0.43369 0.99454 0.0
C1340 C 0.2967 0.43703 1.01045 0.0
C1341 C 0.29675 0.43708 0.04858 0.0
C1342 C 0.8974 0.34076 0.05009 0.0
C1343 C 0.87232 0.31983 0.07016 0.0
C1344 C 0.89729 0.33994 1.01279 0.0
C1345 C 0.87204 0.31827 0.99367 0.0
H1346 H 0.91707 0.35865 0.06323 0.0
H1347 H 0.91692 0.35707 0.99877 0.0
S1348 S 0.8015 0.25668 0.03295 0.0
N1349 N 0.82217 0.27536 0.06768 0.0
N1350 N 0.82184 0.27432 0.99758 0.0
C1351 C 0.847 0.29682 1.01321 0.0
C1352 C 0.84717 0.29747 0.05134 0.0
C1353 C 0.58163 0.89986 0.05211 0.0
C1354 C 0.55452 0.88355 0.07135 0.0
C1355 C 0.58191 0.89968 1.01466 0.0
C1356 C 0.55509 0.88321 0.99497 0.0
H1357 H 0.60277 0.91287 0.06613 0.0
H1358 H 0.60327 0.91256 1.00099 0.0
S1359 S 0.47782 0.83959 1.03254 0.0
N1360 N 0.49999 0.85226 0.06768 0.0
N1361 N 0.50048 0.852 0.99778 0.0
C1362 C 0.52783 0.86721 1.01396 0.0
C1363 C 0.52756 0.86737 0.05194 0.0
C1364 C 0.64316 0.55234 0.05002 0.0
C1365 C 0.66761 0.55458 0.06969 0.0
C1366 C 0.64319 0.5523 1.01272 0.0
C1367 C 0.66766 0.55444 0.99316 0.0
H1368 H 0.62331 0.5497 0.06356 0.0
H1369 H 0.62338 0.54964 0.9991 0.0
S1370 S 0.73837 0.5632 1.03148 0.0
N1371 N 0.71779 0.5607 0.06651 0.0
N1372 N 0.7178 0.56051 0.99641 0.0
C1373 C 0.69255 0.55727 1.01238 0.0
C1374 C 0.69254 0.55736 0.05052 0.0
C1375 C 0.12722 0.69431 1.01583 0.0
C1376 C 0.10796 0.66811 0.9962 0.0
C1377 C 0.12693 0.69421 0.05331 0.0
C1378 C 0.10735 0.66792 0.07263 0.0
H1379 H 0.14249 0.71508 1.00211 0.0
H1380 H 0.14206 0.71489 0.06728 0.0
S1381 S 0.05525 0.59244 0.03404 0.0
N1382 N 0.07062 0.61454 0.9992 0.0
N1383 N 0.07005 0.61441 0.0691 0.0
C1384 C 0.0885 0.64146 0.05328 0.0
C1385 C 0.08882 0.64154 1.01528 0.0
C1386 C 0.90001 0.5612 0.51566 0.0
C1387 C 0.87615 0.5597 0.49541 0.0
C1388 C 0.89958 0.56151 0.55295 0.0
C1389 C 0.87518 0.56009 0.5719 0.0
H1390 H 0.91896 0.56137 0.50264 0.0
H1391 H 0.91831 0.56217 0.56712 0.0
S1392 S 0.80792 0.55796 0.5322 0.0
N1393 N 0.82804 0.55848 0.49759 0.0
N1394 N 0.82706 0.55837 0.5677 0.0
C1395 C 0.85128 0.55888 0.55221 0.0
C1396 C 0.85181 0.55886 0.51408 0.0
C1397 C 0.34725 0.90344 0.51429 0.0
C1398 C 0.32296 0.8806 0.49494 0.0
C1399 C 0.34766 0.90344 0.55156 0.0
C1400 C 0.32384 0.88055 0.57139 0.0
H1401 H 0.36667 0.92111 0.50051 0.0
H1402 H 0.36736 0.92109 0.56493 0.0
S1403 S 0.25375 0.81676 0.53398 0.0
N1404 N 0.27359 0.83529 0.49869 0.0
N1405 N 0.27443 0.83523 0.56879 0.0
C1406 C 0.29909 0.85785 0.55251 0.0
C1407 C 0.29865 0.85788 0.51439 0.0
C1408 C 0.4378 0.34826 0.51377 0.0
C1409 C 0.43493 0.32348 0.49404 0.0
C1410 C 0.43794 0.34824 0.55108 0.0
C1411 C 0.43521 0.32343 0.57057 0.0
H1412 H 0.44085 0.36834 0.50026 0.0
H1413 H 0.44113 0.36832 0.56475 0.0
S1414 S 0.42459 0.25178 0.53194 0.0
N1415 N 0.42762 0.27268 0.49699 0.0
N1416 N 0.42779 0.27258 0.56709 0.0
C1417 C 0.43169 0.29819 0.55124 0.0
C1418 C 0.43158 0.29824 0.51311 0.0
C1419 C 0.09471 0.41862 0.51172 0.0
C1420 C 0.1109 0.44535 0.4917 0.0
C1421 C 0.09543 0.41913 0.5492 0.0
C1422 C 0.11227 0.44642 0.56817 0.0
H1423 H 0.08145 0.39714 0.49831 0.0
H1424 H 0.0827 0.39799 0.56344 0.0
S1425 S 0.15566 0.52305 0.52824 0.0
N1426 N 0.14248 0.50005 0.49378 0.0
N1427 N 0.14358 0.50111 0.56367 0.0
C1428 C 0.12807 0.47333 0.54834 0.0
C1429 C 0.12743 0.47277 0.51034 0.0
C1430 C 0.69546 0.13806 0.51365 0.0
C1431 C 0.67085 0.11567 0.49425 0.0
C1432 C 0.69561 0.13799 0.55112 0.0
C1433 C 0.67114 0.11553 0.57067 0.0
H1434 H 0.71474 0.1558 0.49975 0.0
H1435 H 0.71499 0.15568 0.56491 0.0
S1436 S 0.59978 0.05392 0.5327 0.0
N1437 N 0.62046 0.07178 0.49768 0.0
N1438 N 0.62074 0.07164 0.56758 0.0
C1439 C 0.64625 0.09331 0.55153 0.0
C1440 C 0.6461 0.09339 0.51354 0.0
C1441 C 0.5525 0.6465 0.54986 0.0
C1442 C 0.55513 0.67119 0.56959 0.0
C1443 C 0.55224 0.64649 0.51254 0.0
C1444 C 0.55456 0.67114 0.49308 0.0
H1445 H 0.54962 0.62649 0.56335 0.0
H1446 H 0.54921 0.62649 0.49883 0.0
S1447 S 0.56473 0.74261 0.5316 0.0
N1448 N 0.56212 0.72189 0.56656 0.0
N1449 N 0.56148 0.72177 0.49648 0.0
C1450 C 0.55795 0.69631 0.51237 0.0
C1451 C 0.55828 0.69636 0.55049 0.0
loop_
_geom_bond_atom_site_label_1
_geom_bond_atom_site_label_2
_geom_bond_distance
_geom_bond_site_symmetry_2
_ccdc_geom_bond_type
Co0 N4 2.148 . S
Co0 N10 2.128 . S
Co0 N20 2.194 . S
Co0 O25 2.351 . S
Co0 O26 2.155 . S
Co0 O27 2.096 . S
C1 N4 1.301 . S
C1 N5 1.328 . S
C1 H6 0.930 . S
C2 C3 1.333 . S
C2 N4 1.317 . S
C2 H7 0.930 . S
C3 C2 1.333 . S
C3 N5 1.350 . S
C3 H29 0.931 . S
N4 Co0 2.148 . S
N4 C1 1.301 . S
N4 C2 1.317 . S
N5 C1 1.328 . S
N5 C3 1.350 . S
H6 C1 0.930 . S
H7 C2 0.930 . S
C8 O9 1.224 . S
C8 O27 1.247 . S
O9 C8 1.224 . S
N10 Co0 2.128 . S
N10 C11 1.355 . S
N10 C13 1.311 . S
C11 N10 1.355 . S
C11 C12 1.363 . S
C11 H23 0.929 . S
C12 C11 1.363 . S
C12 N14 1.375 . S
C12 H30 0.931 . S
C13 N10 1.311 . S
C13 N14 1.347 . S
C13 H24 0.929 . S
N14 C12 1.375 . S
N14 C13 1.347 . S
C15 C18 1.365 . S
C15 N20 1.328 . S
C15 H21 0.929 . S
C16 C17 1.362 . S
C16 C19 1.378 . S
C16 H31 0.929 . S
C17 C16 1.362 . S
C17 C18 1.366 . S
C18 C15 1.365 . S
C18 C17 1.366 . S
C18 H32 0.930 . S
C19 C16 1.378 . S
C19 N20 1.315 . S
C19 H22 0.930 . S
N20 Co0 2.194 . S
N20 C15 1.328 . S
N20 C19 1.315 . S
H21 C15 0.929 . S
H22 C19 0.930 . S
H23 C11 0.929 . S
H24 C13 0.929 . S
O25 Co0 2.351 . S
O25 C28 1.244 . S
O26 Co0 2.155 . S
O26 C28 1.240 . S
O27 Co0 2.096 . S
O27 C8 1.247 . S
C28 O25 1.244 . S
C28 O26 1.240 . S
H29 C3 0.931 . S
H30 C12 0.931 . S
H31 C16 0.929 . S
H32 C18 0.930 . S
Co33 N37 2.148 . S
Co33 N43 2.128 . S
Co33 N53 2.194 . S
Co33 O58 2.351 . S
Co33 O59 2.155 . S
Co33 O60 2.096 . S
C34 N37 1.301 . S
C34 N38 1.328 . S
C34 H39 0.930 . S
C35 C36 1.333 . S
C35 N37 1.317 . S
C35 H40 0.930 . S
C36 C35 1.333 . S
C36 N38 1.350 . S
C36 H62 0.931 . S
N37 Co33 2.148 . S
N37 C34 1.301 . S
N37 C35 1.317 . S
N38 C34 1.328 . S
N38 C36 1.350 . S
H39 C34 0.930 . S
H40 C35 0.930 . S
C41 O42 1.224 . S
C41 O60 1.247 . S
O42 C41 1.224 . S
N43 Co33 2.128 . S
N43 C44 1.355 . S
N43 C46 1.311 . S
C44 N43 1.355 . S
C44 C45 1.363 . S
C44 H56 0.929 . S
C45 C44 1.363 . S
C45 N47 1.375 . S
C45 H63 0.931 . S
C46 N43 1.311 . S
C46 N47 1.347 . S
C46 H57 0.929 . S
N47 C45 1.375 . S
N47 C46 1.347 . S
C48 C51 1.365 . S
C48 N53 1.328 . S
C48 H54 0.929 . S
C49 C50 1.362 . S
C49 C52 1.378 . S
C49 H64 0.929 . S
C50 C49 1.362 . S
C50 C51 1.366 . S
C51 C48 1.365 . S
C51 C50 1.366 . S
C51 H65 0.930 . S
C52 C49 1.378 . S
C52 N53 1.315 . S
C52 H55 0.930 . S
N53 Co33 2.194 . S
N53 C48 1.328 . S
N53 C52 1.315 . S
H54 C48 0.929 . S
H55 C52 0.930 . S
H56 C44 0.929 . S
H57 C46 0.929 . S
O58 Co33 2.351 . S
O58 C61 1.244 . S
O59 Co33 2.155 . S
O59 C61 1.240 . S
O60 Co33 2.096 . S
O60 C41 1.247 . S
C61 O58 1.244 . S
C61 O59 1.240 . S
H62 C36 0.931 . S
H63 C45 0.931 . S
H64 C49 0.929 . S
H65 C51 0.930 . S
Co66 N70 2.148 . S
Co66 N76 2.128 . S
Co66 N86 2.194 . S
Co66 O91 2.351 . S
Co66 O92 2.155 . S
Co66 O93 2.096 . S
C67 N70 1.301 . S
C67 N71 1.328 . S
C67 H72 0.930 . S
C68 C69 1.333 . S
C68 N70 1.317 . S
C68 H73 0.930 . S
C69 C68 1.333 . S
C69 N71 1.350 . S
C69 H95 0.931 . S
N70 Co66 2.148 . S
N70 C67 1.301 . S
N70 C68 1.317 . S
N71 C67 1.328 . S
N71 C69 1.350 . S
H72 C67 0.930 . S
H73 C68 0.930 . S
C74 O75 1.224 . S
C74 O93 1.247 . S
O75 C74 1.224 . S
N76 Co66 2.128 . S
N76 C77 1.355 . S
N76 C79 1.311 . S
C77 N76 1.355 . S
C77 C78 1.363 . S
C77 H89 0.929 . S
C78 C77 1.363 . S
C78 N80 1.375 . S
C78 H96 0.931 . S
C79 N76 1.311 . S
C79 N80 1.347 . S
C79 H90 0.929 . S
N80 C78 1.375 . S
N80 C79 1.347 . S
C81 C84 1.365 . S
C81 N86 1.328 . S
C81 H87 0.929 . S
C82 C83 1.362 . S
C82 C85 1.378 . S
C82 H97 0.929 . S
C83 C82 1.362 . S
C83 C84 1.366 . S
C84 C81 1.365 . S
C84 C83 1.366 . S
C84 H98 0.930 . S
C85 C82 1.378 . S
C85 N86 1.315 . S
C85 H88 0.930 . S
N86 Co66 2.194 . S
N86 C81 1.328 . S
N86 C85 1.315 . S
H87 C81 0.929 . S
H88 C85 0.930 . S
H89 C77 0.929 . S
H90 C79 0.929 . S
O91 Co66 2.351 . S
O91 C94 1.244 . S
O92 Co66 2.155 . S
O92 C94 1.240 . S
O93 Co66 2.096 . S
O93 C74 1.247 . S
C94 O91 1.244 . S
C94 O92 1.240 . S
H95 C69 0.931 . S
H96 C78 0.931 . S
H97 C82 0.929 . S
H98 C84 0.930 . S
Co99 N103 2.148 . S
Co99 N109 2.128 . S
Co99 N119 2.194 . S
Co99 O124 2.351 . S
Co99 O125 2.155 . S
Co99 O126 2.096 . S
C100 N103 1.301 . S
C100 N104 1.328 . S
C100 H105 0.930 . S
C101 C102 1.333 . S
C101 N103 1.317 . S
C101 H106 0.930 . S
C102 C101 1.333 . S
C102 N104 1.350 . S
C102 H128 0.931 . S
N103 Co99 2.148 . S
N103 C100 1.301 . S
N103 C101 1.317 . S
N104 C100 1.328 . S
N104 C102 1.350 . S
H105 C100 0.930 . S
H106 C101 0.930 . S
C107 O108 1.224 . S
C107 O126 1.247 . S
O108 C107 1.224 . S
N109 Co99 2.128 . S
N109 C110 1.355 . S
N109 C112 1.311 . S
C110 N109 1.355 . S
C110 C111 1.363 . S
C110 H122 0.929 . S
C111 C110 1.363 . S
C111 N113 1.375 . S
C111 H129 0.931 . S
C112 N109 1.311 . S
C112 N113 1.347 . S
C112 H123 0.929 . S
N113 C111 1.375 . S
N113 C112 1.347 . S
C114 C117 1.365 . S
C114 N119 1.328 . S
C114 H120 0.929 . S
C115 C116 1.362 . S
C115 C118 1.378 . S
C115 H130 0.929 . S
C116 C115 1.362 . S
C116 C117 1.366 . S
C117 C114 1.365 . S
C117 C116 1.366 . S
C117 H131 0.930 . S
C118 C115 1.378 . S
C118 N119 1.315 . S
C118 H121 0.930 . S
N119 Co99 2.194 . S
N119 C114 1.328 . S
N119 C118 1.315 . S
H120 C114 0.929 . S
H121 C118 0.930 . S
H122 C110 0.929 . S
H123 C112 0.929 . S
O124 Co99 2.351 . S
O124 C127 1.244 . S
O125 Co99 2.155 . S
O125 C127 1.240 . S
O126 Co99 2.096 . S
O126 C107 1.247 . S
C127 O124 1.244 . S
C127 O125 1.240 . S
H128 C102 0.931 . S
H129 C111 0.931 . S
H130 C115 0.929 . S
H131 C117 0.930 . S
Co132 N136 2.148 . S
Co132 N142 2.128 . S
Co132 N152 2.194 . S
Co132 O157 2.351 . S
Co132 O158 2.155 . S
Co132 O159 2.096 . S
C133 N136 1.301 . S
C133 N137 1.328 . S
C133 H138 0.930 . S
C134 C135 1.333 . S
C134 N136 1.317 . S
C134 H139 0.930 . S
C135 C134 1.333 . S
C135 N137 1.350 . S
C135 H161 0.931 . S
N136 Co132 2.148 . S
N136 C133 1.301 . S
N136 C134 1.317 . S
N137 C133 1.328 . S
N137 C135 1.350 . S
H138 C133 0.930 . S
H139 C134 0.930 . S
C140 O141 1.224 . S
C140 O159 1.247 . S
O141 C140 1.224 . S
N142 Co132 2.128 . S
N142 C143 1.355 . S
N142 C145 1.311 . S
C143 N142 1.355 . S
C143 C144 1.363 . S
C143 H155 0.929 . S
C144 C143 1.363 . S
C144 N146 1.375 . S
C144 H162 0.931 . S
C145 N142 1.311 . S
C145 N146 1.347 . S
C145 H156 0.929 . S
N146 C144 1.375 . S
N146 C145 1.347 . S
C147 C150 1.365 . S
C147 N152 1.328 . S
C147 H153 0.929 . S
C148 C149 1.362 . S
C148 C151 1.378 . S
C148 H163 0.929 . S
C149 C148 1.362 . S
C149 C150 1.366 . S
C150 C147 1.365 . S
C150 C149 1.366 . S
C150 H164 0.930 . S
C151 C148 1.378 . S
C151 N152 1.315 . S
C151 H154 0.930 . S
N152 Co132 2.194 . S
N152 C147 1.328 . S
N152 C151 1.315 . S
H153 C147 0.929 . S
H154 C151 0.930 . S
H155 C143 0.929 . S
H156 C145 0.929 . S
O157 Co132 2.351 . S
O157 C160 1.244 . S
O158 Co132 2.155 . S
O158 C160 1.240 . S
O159 Co132 2.096 . S
O159 C140 1.247 . S
C160 O157 1.244 . S
C160 O158 1.240 . S
H161 C135 0.931 . S
H162 C144 0.931 . S
H163 C148 0.929 . S
H164 C150 0.930 . S
Co165 N169 2.148 . S
Co165 N175 2.128 . S
Co165 N185 2.194 . S
Co165 O190 2.351 . S
Co165 O191 2.155 . S
Co165 O192 2.096 . S
C166 N169 1.301 . S
C166 N170 1.328 . S
C166 H171 0.930 . S
C167 C168 1.333 . S
C167 N169 1.317 . S
C167 H172 0.930 . S
C168 C167 1.333 . S
C168 N170 1.350 . S
C168 H194 0.931 . S
N169 Co165 2.148 . S
N169 C166 1.301 . S
N169 C167 1.317 . S
N170 C166 1.328 . S
N170 C168 1.350 . S
H171 C166 0.930 . S
H172 C167 0.930 . S
C173 O174 1.224 . S
C173 O192 1.247 . S
O174 C173 1.224 . S
N175 Co165 2.128 . S
N175 C176 1.355 . S
N175 C178 1.311 . S
C176 N175 1.355 . S
C176 C177 1.363 . S
C176 H188 0.929 . S
C177 C176 1.363 . S
C177 N179 1.375 . S
C177 H195 0.931 . S
C178 N175 1.311 . S
C178 N179 1.347 . S
C178 H189 0.929 . S
N179 C177 1.375 . S
N179 C178 1.347 . S
C180 C183 1.365 . S
C180 N185 1.328 . S
C180 H186 0.929 . S
C181 C182 1.362 . S
C181 C184 1.378 . S
C181 H196 0.929 . S
C182 C181 1.362 . S
C182 C183 1.366 . S
C183 C180 1.365 . S
C183 C182 1.366 . S
C183 H197 0.930 . S
C184 C181 1.378 . S
C184 N185 1.315 . S
C184 H187 0.930 . S
N185 Co165 2.194 . S
N185 C180 1.328 . S
N185 C184 1.315 . S
H186 C180 0.929 . S
H187 C184 0.930 . S
H188 C176 0.929 . S
H189 C178 0.929 . S
O190 Co165 2.351 . S
O190 C193 1.244 . S
O191 Co165 2.155 . S
O191 C193 1.240 . S
O192 Co165 2.096 . S
O192 C173 1.247 . S
C193 O190 1.244 . S
C193 O191 1.240 . S
H194 C168 0.931 . S
H195 C177 0.931 . S
H196 C181 0.929 . S
H197 C183 0.930 . S
Co198 N202 2.148 . S
Co198 N208 2.128 . S
Co198 N218 2.194 . S
Co198 O223 2.351 . S
Co198 O224 2.155 . S
Co198 O225 2.096 . S
C199 N202 1.301 . S
C199 N203 1.328 . S
C199 H204 0.930 . S
C200 C201 1.333 . S
C200 N202 1.317 . S
C200 H205 0.930 . S
C201 C200 1.333 . S
C201 N203 1.350 . S
C201 H227 0.931 . S
N202 Co198 2.148 . S
N202 C199 1.301 . S
N202 C200 1.317 . S
N203 C199 1.328 . S
N203 C201 1.350 . S
H204 C199 0.930 . S
H205 C200 0.930 . S
C206 O207 1.224 . S
C206 O225 1.247 . S
O207 C206 1.224 . S
N208 Co198 2.128 . S
N208 C209 1.355 . S
N208 C211 1.311 . S
C209 N208 1.355 . S
C209 C210 1.363 . S
C209 H221 0.929 . S
C210 C209 1.363 . S
C210 N212 1.375 . S
C210 H228 0.931 . S
C211 N208 1.311 . S
C211 N212 1.347 . S
C211 H222 0.929 . S
N212 C210 1.375 . S
N212 C211 1.347 . S
C213 C216 1.365 . S
C213 N218 1.328 . S
C213 H219 0.929 . S
C214 C215 1.362 . S
C214 C217 1.378 . S
C214 H229 0.929 . S
C215 C214 1.362 . S
C215 C216 1.366 . S
C216 C213 1.365 . S
C216 C215 1.366 . S
C216 H230 0.930 . S
C217 C214 1.378 . S
C217 N218 1.315 . S
C217 H220 0.930 . S
N218 Co198 2.194 . S
N218 C213 1.328 . S
N218 C217 1.315 . S
H219 C213 0.929 . S
H220 C217 0.930 . S
H221 C209 0.929 . S
H222 C211 0.929 . S
O223 Co198 2.351 . S
O223 C226 1.244 . S
O224 Co198 2.155 . S
O224 C226 1.240 . S
O225 Co198 2.096 . S
O225 C206 1.247 . S
C226 O223 1.244 . S
C226 O224 1.240 . S
H227 C201 0.931 . S
H228 C210 0.931 . S
H229 C214 0.929 . S
H230 C216 0.930 . S
Co231 N235 2.148 . S
Co231 N241 2.128 . S
Co231 N251 2.194 . S
Co231 O256 2.351 . S
Co231 O257 2.155 . S
Co231 O258 2.096 . S
C232 N235 1.301 . S
C232 N236 1.328 . S
C232 H237 0.930 . S
C233 C234 1.333 . S
C233 N235 1.317 . S
C233 H238 0.930 . S
C234 C233 1.333 . S
C234 N236 1.350 . S
C234 H260 0.931 . S
N235 Co231 2.148 . S
N235 C232 1.301 . S
N235 C233 1.317 . S
N236 C232 1.328 . S
N236 C234 1.350 . S
H237 C232 0.930 . S
H238 C233 0.930 . S
C239 O240 1.224 . S
C239 O258 1.247 . S
O240 C239 1.224 . S
N241 Co231 2.128 . S
N241 C242 1.355 . S
N241 C244 1.311 . S
C242 N241 1.355 . S
C242 C243 1.363 . S
C242 H254 0.929 . S
C243 C242 1.363 . S
C243 N245 1.375 . S
C243 H261 0.931 . S
C244 N241 1.311 . S
C244 N245 1.347 . S
C244 H255 0.929 . S
N245 C243 1.375 . S
N245 C244 1.347 . S
C246 C249 1.365 . S
C246 N251 1.328 . S
C246 H252 0.929 . S
C247 C248 1.362 . S
C247 C250 1.378 . S
C247 H262 0.929 . S
C248 C247 1.362 . S
C248 C249 1.366 . S
C249 C246 1.365 . S
C249 C248 1.366 . S
C249 H263 0.930 . S
C250 C247 1.378 . S
C250 N251 1.315 . S
C250 H253 0.930 . S
N251 Co231 2.194 . S
N251 C246 1.328 . S
N251 C250 1.315 . S
H252 C246 0.929 . S
H253 C250 0.930 . S
H254 C242 0.929 . S
H255 C244 0.929 . S
O256 Co231 2.351 . S
O256 C259 1.244 . S
O257 Co231 2.155 . S
O257 C259 1.240 . S
O258 Co231 2.096 . S
O258 C239 1.247 . S
C259 O256 1.244 . S
C259 O257 1.240 . S
H260 C234 0.931 . S
H261 C243 0.931 . S
H262 C247 0.929 . S
H263 C249 0.930 . S
Co264 N268 2.148 . S
Co264 N274 2.128 . S
Co264 N284 2.194 . S
Co264 O289 2.351 . S
Co264 O290 2.155 . S
Co264 O291 2.096 . S
C265 N268 1.301 . S
C265 N269 1.328 . S
C265 H270 0.930 . S
C266 C267 1.333 . S
C266 N268 1.317 . S
C266 H271 0.930 . S
C267 C266 1.333 . S
C267 N269 1.350 . S
C267 H293 0.931 . S
N268 Co264 2.148 . S
N268 C265 1.301 . S
N268 C266 1.317 . S
N269 C265 1.328 . S
N269 C267 1.350 . S
H270 C265 0.930 . S
H271 C266 0.930 . S
C272 O273 1.224 . S
C272 O291 1.247 . S
O273 C272 1.224 . S
N274 Co264 2.128 . S
N274 C275 1.355 . S
N274 C277 1.311 . S
C275 N274 1.355 . S
C275 C276 1.363 . S
C275 H287 0.929 . S
C276 C275 1.363 . S
C276 N278 1.375 . S
C276 H294 0.931 . S
C277 N274 1.311 . S
C277 N278 1.347 . S
C277 H288 0.929 . S
N278 C276 1.375 . S
N278 C277 1.347 . S
C279 C282 1.365 . S
C279 N284 1.328 . S
C279 H285 0.929 . S
C280 C281 1.362 . S
C280 C283 1.378 . S
C280 H295 0.929 . S
C281 C280 1.362 . S
C281 C282 1.366 . S
C282 C279 1.365 . S
C282 C281 1.366 . S
C282 H296 0.930 . S
C283 C280 1.378 . S
C283 N284 1.315 . S
C283 H286 0.930 . S
N284 Co264 2.194 . S
N284 C279 1.328 . S
N284 C283 1.315 . S
H285 C279 0.929 . S
H286 C283 0.930 . S
H287 C275 0.929 . S
H288 C277 0.929 . S
O289 Co264 2.351 . S
O289 C292 1.244 . S
O290 Co264 2.155 . S
O290 C292 1.240 . S
O291 Co264 2.096 . S
O291 C272 1.247 . S
C292 O289 1.244 . S
C292 O290 1.240 . S
H293 C267 0.931 . S
H294 C276 0.931 . S
H295 C280 0.929 . S
H296 C282 0.930 . S
Co297 N301 2.148 . S
Co297 N307 2.128 . S
Co297 N317 2.194 . S
Co297 O322 2.351 . S
Co297 O323 2.155 . S
Co297 O324 2.096 . S
C298 N301 1.301 . S
C298 N302 1.328 . S
C298 H303 0.930 . S
C299 C300 1.333 . S
C299 N301 1.317 . S
C299 H304 0.930 . S
C300 C299 1.333 . S
C300 N302 1.350 . S
C300 H326 0.931 . S
N301 Co297 2.148 . S
N301 C298 1.301 . S
N301 C299 1.317 . S
N302 C298 1.328 . S
N302 C300 1.350 . S
H303 C298 0.930 . S
H304 C299 0.930 . S
C305 O306 1.224 . S
C305 O324 1.247 . S
O306 C305 1.224 . S
N307 Co297 2.128 . S
N307 C308 1.355 . S
N307 C310 1.311 . S
C308 N307 1.355 . S
C308 C309 1.363 . S
C308 H320 0.929 . S
C309 C308 1.363 . S
C309 N311 1.375 . S
C309 H327 0.931 . S
C310 N307 1.311 . S
C310 N311 1.347 . S
C310 H321 0.929 . S
N311 C309 1.375 . S
N311 C310 1.347 . S
C312 C315 1.365 . S
C312 N317 1.328 . S
C312 H318 0.929 . S
C313 C314 1.362 . S
C313 C316 1.378 . S
C313 H328 0.929 . S
C314 C313 1.362 . S
C314 C315 1.366 . S
C315 C312 1.365 . S
C315 C314 1.366 . S
C315 H329 0.930 . S
C316 C313 1.378 . S
C316 N317 1.315 . S
C316 H319 0.930 . S
N317 Co297 2.194 . S
N317 C312 1.328 . S
N317 C316 1.315 . S
H318 C312 0.929 . S
H319 C316 0.930 . S
H320 C308 0.929 . S
H321 C310 0.929 . S
O322 Co297 2.351 . S
O322 C325 1.244 . S
O323 Co297 2.155 . S
O323 C325 1.240 . S
O324 Co297 2.096 . S
O324 C305 1.247 . S
C325 O322 1.244 . S
C325 O323 1.240 . S
H326 C300 0.931 . S
H327 C309 0.931 . S
H328 C313 0.929 . S
H329 C315 0.930 . S
Co330 N334 2.148 . S
Co330 N340 2.128 . S
Co330 N350 2.194 . S
Co330 O355 2.351 . S
Co330 O356 2.155 . S
Co330 O357 2.096 . S
C331 N334 1.301 . S
C331 N335 1.328 . S
C331 H336 0.930 . S
C332 C333 1.333 . S
C332 N334 1.317 . S
C332 H337 0.930 . S
C333 C332 1.333 . S
C333 N335 1.350 . S
C333 H359 0.931 . S
N334 Co330 2.148 . S
N334 C331 1.301 . S
N334 C332 1.317 . S
N335 C331 1.328 . S
N335 C333 1.350 . S
H336 C331 0.930 . S
H337 C332 0.930 . S
C338 O339 1.224 . S
C338 O357 1.247 . S
O339 C338 1.224 . S
N340 Co330 2.128 . S
N340 C341 1.355 . S
N340 C343 1.311 . S
C341 N340 1.355 . S
C341 C342 1.363 . S
C341 H353 0.929 . S
C342 C341 1.363 . S
C342 N344 1.375 . S
C342 H360 0.931 . S
C343 N340 1.311 . S
C343 N344 1.347 . S
C343 H354 0.929 . S
N344 C342 1.375 . S
N344 C343 1.347 . S
C345 C348 1.365 . S
C345 N350 1.328 . S
C345 H351 0.929 . S
C346 C347 1.362 . S
C346 C349 1.378 . S
C346 H361 0.929 . S
C347 C346 1.362 . S
C347 C348 1.366 . S
C348 C345 1.365 . S
C348 C347 1.366 . S
C348 H362 0.930 . S
C349 C346 1.378 . S
C349 N350 1.315 . S
C349 H352 0.930 . S
N350 Co330 2.194 . S
N350 C345 1.328 . S
N350 C349 1.315 . S
H351 C345 0.929 . S
H352 C349 0.930 . S
H353 C341 0.929 . S
H354 C343 0.929 . S
O355 Co330 2.351 . S
O355 C358 1.244 . S
O356 Co330 2.155 . S
O356 C358 1.240 . S
O357 Co330 2.096 . S
O357 C338 1.247 . S
C358 O355 1.244 . S
C358 O356 1.240 . S
H359 C333 0.931 . S
H360 C342 0.931 . S
H361 C346 0.929 . S
H362 C348 0.930 . S
Co363 N367 2.148 . S
Co363 N373 2.128 . S
Co363 N383 2.194 . S
Co363 O388 2.351 . S
Co363 O389 2.155 . S
Co363 O390 2.096 . S
C364 N367 1.301 . S
C364 N368 1.328 . S
C364 H369 0.930 . S
C365 C366 1.333 . S
C365 N367 1.317 . S
C365 H370 0.930 . S
C366 C365 1.333 . S
C366 N368 1.350 . S
C366 H392 0.931 . S
N367 Co363 2.148 . S
N367 C364 1.301 . S
N367 C365 1.317 . S
N368 C364 1.328 . S
N368 C366 1.350 . S
H369 C364 0.930 . S
H370 C365 0.930 . S
C371 O372 1.224 . S
C371 O390 1.247 . S
O372 C371 1.224 . S
N373 Co363 2.128 . S
N373 C374 1.355 . S
N373 C376 1.311 . S
C374 N373 1.355 . S
C374 C375 1.363 . S
C374 H386 0.929 . S
C375 C374 1.363 . S
C375 N377 1.375 . S
C375 H393 0.931 . S
C376 N373 1.311 . S
C376 N377 1.347 . S
C376 H387 0.929 . S
N377 C375 1.375 . S
N377 C376 1.347 . S
C378 C381 1.365 . S
C378 N383 1.328 . S
C378 H384 0.929 . S
C379 C380 1.362 . S
C379 C382 1.378 . S
C379 H394 0.929 . S
C380 C379 1.362 . S
C380 C381 1.366 . S
C381 C378 1.365 . S
C381 C380 1.366 . S
C381 H395 0.930 . S
C382 C379 1.378 . S
C382 N383 1.315 . S
C382 H385 0.930 . S
N383 Co363 2.194 . S
N383 C378 1.328 . S
N383 C382 1.315 . S
H384 C378 0.929 . S
H385 C382 0.930 . S
H386 C374 0.929 . S
H387 C376 0.929 . S
O388 Co363 2.351 . S
O388 C391 1.244 . S
O389 Co363 2.155 . S
O389 C391 1.240 . S
O390 Co363 2.096 . S
O390 C371 1.247 . S
C391 O388 1.244 . S
C391 O389 1.240 . S
H392 C366 0.931 . S
H393 C375 0.931 . S
H394 C379 0.929 . S
H395 C381 0.930 . S
Co396 N400 2.148 . S
Co396 N406 2.128 . S
Co396 N416 2.194 . S
Co396 O421 2.351 . S
Co396 O422 2.155 . S
Co396 O423 2.096 . S
C397 N400 1.301 . S
C397 N401 1.328 . S
C397 H402 0.930 . S
C398 C399 1.333 . S
C398 N400 1.317 . S
C398 H403 0.930 . S
C399 C398 1.333 . S
C399 N401 1.350 . S
C399 H425 0.931 . S
N400 Co396 2.148 . S
N400 C397 1.301 . S
N400 C398 1.317 . S
N401 C397 1.328 . S
N401 C399 1.350 . S
H402 C397 0.930 . S
H403 C398 0.930 . S
C404 O405 1.224 . S
C404 O423 1.247 . S
O405 C404 1.224 . S
N406 Co396 2.128 . S
N406 C407 1.355 . S
N406 C409 1.311 . S
C407 N406 1.355 . S
C407 C408 1.363 . S
C407 H419 0.929 . S
C408 C407 1.363 . S
C408 N410 1.375 . S
C408 H426 0.931 . S
C409 N406 1.311 . S
C409 N410 1.347 . S
C409 H420 0.929 . S
N410 C408 1.375 . S
N410 C409 1.347 . S
C411 C414 1.365 . S
C411 N416 1.328 . S
C411 H417 0.929 . S
C412 C413 1.362 . S
C412 C415 1.378 . S
C412 H427 0.929 . S
C413 C412 1.362 . S
C413 C414 1.366 . S
C414 C411 1.365 . S
C414 C413 1.366 . S
C414 H428 0.930 . S
C415 C412 1.378 . S
C415 N416 1.315 . S
C415 H418 0.930 . S
N416 Co396 2.194 . S
N416 C411 1.328 . S
N416 C415 1.315 . S
H417 C411 0.929 . S
H418 C415 0.930 . S
H419 C407 0.929 . S
H420 C409 0.929 . S
O421 Co396 2.351 . S
O421 C424 1.244 . S
O422 Co396 2.155 . S
O422 C424 1.240 . S
O423 Co396 2.096 . S
O423 C404 1.247 . S
C424 O421 1.244 . S
C424 O422 1.240 . S
H425 C399 0.931 . S
H426 C408 0.931 . S
H427 C412 0.929 . S
H428 C414 0.930 . S
Co429 N433 2.148 . S
Co429 N439 2.128 . S
Co429 N449 2.194 . S
Co429 O454 2.351 . S
Co429 O455 2.155 . S
Co429 O456 2.096 . S
C430 N433 1.301 . S
C430 N434 1.328 . S
C430 H435 0.930 . S
C431 C432 1.333 . S
C431 N433 1.317 . S
C431 H436 0.930 . S
C432 C431 1.333 . S
C432 N434 1.350 . S
C432 H458 0.931 . S
N433 Co429 2.148 . S
N433 C430 1.301 . S
N433 C431 1.317 . S
N434 C430 1.328 . S
N434 C432 1.350 . S
H435 C430 0.930 . S
H436 C431 0.930 . S
C437 O438 1.224 . S
C437 O456 1.247 . S
O438 C437 1.224 . S
N439 Co429 2.128 . S
N439 C440 1.355 . S
N439 C442 1.311 . S
C440 N439 1.355 . S
C440 C441 1.363 . S
C440 H452 0.929 . S
C441 C440 1.363 . S
C441 N443 1.375 . S
C441 H459 0.931 . S
C442 N439 1.311 . S
C442 N443 1.347 . S
C442 H453 0.929 . S
N443 C441 1.375 . S
N443 C442 1.347 . S
C444 C447 1.365 . S
C444 N449 1.328 . S
C444 H450 0.929 . S
C445 C446 1.362 . S
C445 C448 1.378 . S
C445 H460 0.929 . S
C446 C445 1.362 . S
C446 C447 1.366 . S
C447 C444 1.365 . S
C447 C446 1.366 . S
C447 H461 0.930 . S
C448 C445 1.378 . S
C448 N449 1.315 . S
C448 H451 0.930 . S
N449 Co429 2.194 . S
N449 C444 1.328 . S
N449 C448 1.315 . S
H450 C444 0.929 . S
H451 C448 0.930 . S
H452 C440 0.929 . S
H453 C442 0.929 . S
O454 Co429 2.351 . S
O454 C457 1.244 . S
O455 Co429 2.155 . S
O455 C457 1.240 . S
O456 Co429 2.096 . S
O456 C437 1.247 . S
C457 O454 1.244 . S
C457 O455 1.240 . S
H458 C432 0.931 . S
H459 C441 0.931 . S
H460 C445 0.929 . S
H461 C447 0.930 . S
Co462 N466 2.148 . S
Co462 N472 2.128 . S
Co462 N482 2.194 . S
Co462 O487 2.351 . S
Co462 O488 2.155 . S
Co462 O489 2.096 . S
C463 N466 1.301 . S
C463 N467 1.328 . S
C463 H468 0.930 . S
C464 C465 1.333 . S
C464 N466 1.317 . S
C464 H469 0.930 . S
C465 C464 1.333 . S
C465 N467 1.350 . S
C465 H491 0.931 . S
N466 Co462 2.148 . S
N466 C463 1.301 . S
N466 C464 1.317 . S
N467 C463 1.328 . S
N467 C465 1.350 . S
H468 C463 0.930 . S
H469 C464 0.930 . S
C470 O471 1.224 . S
C470 O489 1.247 . S
O471 C470 1.224 . S
N472 Co462 2.128 . S
N472 C473 1.355 . S
N472 C475 1.311 . S
C473 N472 1.355 . S
C473 C474 1.363 . S
C473 H485 0.929 . S
C474 C473 1.363 . S
C474 N476 1.375 . S
C474 H492 0.931 . S
C475 N472 1.311 . S
C475 N476 1.347 . S
C475 H486 0.929 . S
N476 C474 1.375 . S
N476 C475 1.347 . S
C477 C480 1.365 . S
C477 N482 1.328 . S
C477 H483 0.929 . S
C478 C479 1.362 . S
C478 C481 1.378 . S
C478 H493 0.929 . S
C479 C478 1.362 . S
C479 C480 1.366 . S
C480 C477 1.365 . S
C480 C479 1.366 . S
C480 H494 0.930 . S
C481 C478 1.378 . S
C481 N482 1.315 . S
C481 H484 0.930 . S
N482 Co462 2.194 . S
N482 C477 1.328 . S
N482 C481 1.315 . S
H483 C477 0.929 . S
H484 C481 0.930 . S
H485 C473 0.929 . S
H486 C475 0.929 . S
O487 Co462 2.351 . S
O487 C490 1.244 . S
O488 Co462 2.155 . S
O488 C490 1.240 . S
O489 Co462 2.096 . S
O489 C470 1.247 . S
C490 O487 1.244 . S
C490 O488 1.240 . S
H491 C465 0.931 . S
H492 C474 0.931 . S
H493 C478 0.929 . S
H494 C480 0.930 . S
Co495 N499 2.148 . S
Co495 N505 2.128 . S
Co495 N515 2.194 . S
Co495 O520 2.351 . S
Co495 O521 2.155 . S
Co495 O522 2.096 . S
C496 N499 1.301 . S
C496 N500 1.328 . S
C496 H501 0.930 . S
C497 C498 1.333 . S
C497 N499 1.317 . S
C497 H502 0.930 . S
C498 C497 1.333 . S
C498 N500 1.350 . S
C498 H524 0.931 . S
N499 Co495 2.148 . S
N499 C496 1.301 . S
N499 C497 1.317 . S
N500 C496 1.328 . S
N500 C498 1.350 . S
H501 C496 0.930 . S
H502 C497 0.930 . S
C503 O504 1.224 . S
C503 O522 1.247 . S
O504 C503 1.224 . S
N505 Co495 2.128 . S
N505 C506 1.355 . S
N505 C508 1.311 . S
C506 N505 1.355 . S
C506 C507 1.363 . S
C506 H518 0.929 . S
C507 C506 1.363 . S
C507 N509 1.375 . S
C507 H525 0.931 . S
C508 N505 1.311 . S
C508 N509 1.347 . S
C508 H519 0.929 . S
N509 C507 1.375 . S
N509 C508 1.347 . S
C510 C513 1.365 . S
C510 N515 1.328 . S
C510 H516 0.929 . S
C511 C512 1.362 . S
C511 C514 1.378 . S
C511 H526 0.929 . S
C512 C511 1.362 . S
C512 C513 1.366 . S
C513 C510 1.365 . S
C513 C512 1.366 . S
C513 H527 0.930 . S
C514 C511 1.378 . S
C514 N515 1.315 . S
C514 H517 0.930 . S
N515 Co495 2.194 . S
N515 C510 1.328 . S
N515 C514 1.315 . S
H516 C510 0.929 . S
H517 C514 0.930 . S
H518 C506 0.929 . S
H519 C508 0.929 . S
O520 Co495 2.351 . S
O520 C523 1.244 . S
O521 Co495 2.155 . S
O521 C523 1.240 . S
O522 Co495 2.096 . S
O522 C503 1.247 . S
C523 O520 1.244 . S
C523 O521 1.240 . S
H524 C498 0.931 . S
H525 C507 0.931 . S
H526 C511 0.929 . S
H527 C513 0.930 . S
Co528 N532 2.148 . S
Co528 N538 2.128 . S
Co528 N548 2.194 . S
Co528 O553 2.351 . S
Co528 O554 2.155 . S
Co528 O555 2.096 . S
C529 N532 1.301 . S
C529 N533 1.328 . S
C529 H534 0.930 . S
C530 C531 1.333 . S
C530 N532 1.317 . S
C530 H535 0.930 . S
C531 C530 1.333 . S
C531 N533 1.350 . S
C531 H557 0.931 . S
N532 Co528 2.148 . S
N532 C529 1.301 . S
N532 C530 1.317 . S
N533 C529 1.328 . S
N533 C531 1.350 . S
H534 C529 0.930 . S
H535 C530 0.930 . S
C536 O537 1.224 . S
C536 O555 1.247 . S
O537 C536 1.224 . S
N538 Co528 2.128 . S
N538 C539 1.355 . S
N538 C541 1.311 . S
C539 N538 1.355 . S
C539 C540 1.363 . S
C539 H551 0.929 . S
C540 C539 1.363 . S
C540 N542 1.375 . S
C540 H558 0.931 . S
C541 N538 1.311 . S
C541 N542 1.347 . S
C541 H552 0.929 . S
N542 C540 1.375 . S
N542 C541 1.347 . S
C543 C546 1.365 . S
C543 N548 1.328 . S
C543 H549 0.929 . S
C544 C545 1.362 . S
C544 C547 1.378 . S
C544 H559 0.929 . S
C545 C544 1.362 . S
C545 C546 1.366 . S
C546 C543 1.365 . S
C546 C545 1.366 . S
C546 H560 0.930 . S
C547 C544 1.378 . S
C547 N548 1.315 . S
C547 H550 0.930 . S
N548 Co528 2.194 . S
N548 C543 1.328 . S
N548 C547 1.315 . S
H549 C543 0.929 . S
H550 C547 0.930 . S
H551 C539 0.929 . S
H552 C541 0.929 . S
O553 Co528 2.351 . S
O553 C556 1.244 . S
O554 Co528 2.155 . S
O554 C556 1.240 . S
O555 Co528 2.096 . S
O555 C536 1.247 . S
C556 O553 1.244 . S
C556 O554 1.240 . S
H557 C531 0.931 . S
H558 C540 0.931 . S
H559 C544 0.929 . S
H560 C546 0.930 . S
Co561 N565 2.148 . S
Co561 N571 2.128 . S
Co561 N581 2.194 . S
Co561 O586 2.351 . S
Co561 O587 2.155 . S
Co561 O588 2.096 . S
C562 N565 1.301 . S
C562 N566 1.328 . S
C562 H567 0.930 . S
C563 C564 1.333 . S
C563 N565 1.317 . S
C563 H568 0.930 . S
C564 C563 1.333 . S
C564 N566 1.350 . S
C564 H590 0.931 . S
N565 Co561 2.148 . S
N565 C562 1.301 . S
N565 C563 1.317 . S
N566 C562 1.328 . S
N566 C564 1.350 . S
H567 C562 0.930 . S
H568 C563 0.930 . S
C569 O570 1.224 . S
C569 O588 1.247 . S
O570 C569 1.224 . S
N571 Co561 2.128 . S
N571 C572 1.355 . S
N571 C574 1.311 . S
C572 N571 1.355 . S
C572 C573 1.363 . S
C572 H584 0.929 . S
C573 C572 1.363 . S
C573 N575 1.375 . S
C573 H591 0.931 . S
C574 N571 1.311 . S
C574 N575 1.347 . S
C574 H585 0.929 . S
N575 C573 1.375 . S
N575 C574 1.347 . S
C576 C579 1.365 . S
C576 N581 1.328 . S
C576 H582 0.929 . S
C577 C578 1.362 . S
C577 C580 1.378 . S
C577 H592 0.929 . S
C578 C577 1.362 . S
C578 C579 1.366 . S
C579 C576 1.365 . S
C579 C578 1.366 . S
C579 H593 0.930 . S
C580 C577 1.378 . S
C580 N581 1.315 . S
C580 H583 0.930 . S
N581 Co561 2.194 . S
N581 C576 1.328 . S
N581 C580 1.315 . S
H582 C576 0.929 . S
H583 C580 0.930 . S
H584 C572 0.929 . S
H585 C574 0.929 . S
O586 Co561 2.351 . S
O586 C589 1.244 . S
O587 Co561 2.155 . S
O587 C589 1.240 . S
O588 Co561 2.096 . S
O588 C569 1.247 . S
C589 O586 1.244 . S
C589 O587 1.240 . S
H590 C564 0.931 . S
H591 C573 0.931 . S
H592 C577 0.929 . S
H593 C579 0.930 . S
Co594 N598 2.148 . S
Co594 N604 2.128 . S
Co594 N614 2.194 . S
Co594 O619 2.351 . S
Co594 O620 2.155 . S
Co594 O621 2.096 . S
C595 N598 1.301 . S
C595 N599 1.328 . S
C595 H600 0.930 . S
C596 C597 1.333 . S
C596 N598 1.317 . S
C596 H601 0.930 . S
C597 C596 1.333 . S
C597 N599 1.350 . S
C597 H623 0.931 . S
N598 Co594 2.148 . S
N598 C595 1.301 . S
N598 C596 1.317 . S
N599 C595 1.328 . S
N599 C597 1.350 . S
H600 C595 0.930 . S
H601 C596 0.930 . S
C602 O603 1.224 . S
C602 O621 1.247 . S
O603 C602 1.224 . S
N604 Co594 2.128 . S
N604 C605 1.355 . S
N604 C607 1.311 . S
C605 N604 1.355 . S
C605 C606 1.363 . S
C605 H617 0.929 . S
C606 C605 1.363 . S
C606 N608 1.375 . S
C606 H624 0.931 . S
C607 N604 1.311 . S
C607 N608 1.347 . S
C607 H618 0.929 . S
N608 C606 1.375 . S
N608 C607 1.347 . S
C609 C612 1.365 . S
C609 N614 1.328 . S
C609 H615 0.929 . S
C610 C611 1.362 . S
C610 C613 1.378 . S
C610 H625 0.929 . S
C611 C610 1.362 . S
C611 C612 1.366 . S
C612 C609 1.365 . S
C612 C611 1.366 . S
C612 H626 0.930 . S
C613 C610 1.378 . S
C613 N614 1.315 . S
C613 H616 0.930 . S
N614 Co594 2.194 . S
N614 C609 1.328 . S
N614 C613 1.315 . S
H615 C609 0.929 . S
H616 C613 0.930 . S
H617 C605 0.929 . S
H618 C607 0.929 . S
O619 Co594 2.351 . S
O619 C622 1.244 . S
O620 Co594 2.155 . S
O620 C622 1.240 . S
O621 Co594 2.096 . S
O621 C602 1.247 . S
C622 O619 1.244 . S
C622 O620 1.240 . S
H623 C597 0.931 . S
H624 C606 0.931 . S
H625 C610 0.929 . S
H626 C612 0.930 . S
Co627 N631 2.148 . S
Co627 N637 2.128 . S
Co627 N647 2.194 . S
Co627 O652 2.351 . S
Co627 O653 2.155 . S
Co627 O654 2.096 . S
C628 N631 1.301 . S
C628 N632 1.328 . S
C628 H633 0.930 . S
C629 C630 1.333 . S
C629 N631 1.317 . S
C629 H634 0.930 . S
C630 C629 1.333 . S
C630 N632 1.350 . S
C630 H656 0.931 . S
N631 Co627 2.148 . S
N631 C628 1.301 . S
N631 C629 1.317 . S
N632 C628 1.328 . S
N632 C630 1.350 . S
H633 C628 0.930 . S
H634 C629 0.930 . S
C635 O636 1.224 . S
C635 O654 1.247 . S
O636 C635 1.224 . S
N637 Co627 2.128 . S
N637 C638 1.355 . S
N637 C640 1.311 . S
C638 N637 1.355 . S
C638 C639 1.363 . S
C638 H650 0.929 . S
C639 C638 1.363 . S
C639 N641 1.375 . S
C639 H657 0.931 . S
C640 N637 1.311 . S
C640 N641 1.347 . S
C640 H651 0.929 . S
N641 C639 1.375 . S
N641 C640 1.347 . S
C642 C645 1.365 . S
C642 N647 1.328 . S
C642 H648 0.929 . S
C643 C644 1.362 . S
C643 C646 1.378 . S
C643 H658 0.929 . S
C644 C643 1.362 . S
C644 C645 1.366 . S
C645 C642 1.365 . S
C645 C644 1.366 . S
C645 H659 0.930 . S
C646 C643 1.378 . S
C646 N647 1.315 . S
C646 H649 0.930 . S
N647 Co627 2.194 . S
N647 C642 1.328 . S
N647 C646 1.315 . S
H648 C642 0.929 . S
H649 C646 0.930 . S
H650 C638 0.929 . S
H651 C640 0.929 . S
O652 Co627 2.351 . S
O652 C655 1.244 . S
O653 Co627 2.155 . S
O653 C655 1.240 . S
O654 Co627 2.096 . S
O654 C635 1.247 . S
C655 O652 1.244 . S
C655 O653 1.240 . S
H656 C630 0.931 . S
H657 C639 0.931 . S
H658 C643 0.929 . S
H659 C645 0.930 . S
Co660 N664 2.148 . S
Co660 N670 2.128 . S
Co660 N680 2.194 . S
Co660 O685 2.351 . S
Co660 O686 2.155 . S
Co660 O687 2.096 . S
C661 N664 1.301 . S
C661 N665 1.328 . S
C661 H666 0.930 . S
C662 C663 1.333 . S
C662 N664 1.317 . S
C662 H667 0.930 . S
C663 C662 1.333 . S
C663 N665 1.350 . S
C663 H689 0.931 . S
N664 Co660 2.148 . S
N664 C661 1.301 . S
N664 C662 1.317 . S
N665 C661 1.328 . S
N665 C663 1.350 . S
H666 C661 0.930 . S
H667 C662 0.930 . S
C668 O669 1.224 . S
C668 O687 1.247 . S
O669 C668 1.224 . S
N670 Co660 2.128 . S
N670 C671 1.355 . S
N670 C673 1.311 . S
C671 N670 1.355 . S
C671 C672 1.363 . S
C671 H683 0.929 . S
C672 C671 1.363 . S
C672 N674 1.375 . S
C672 H690 0.931 . S
C673 N670 1.311 . S
C673 N674 1.347 . S
C673 H684 0.929 . S
N674 C672 1.375 . S
N674 C673 1.347 . S
C675 C678 1.365 . S
C675 N680 1.328 . S
C675 H681 0.929 . S
C676 C677 1.362 . S
C676 C679 1.378 . S
C676 H691 0.929 . S
C677 C676 1.362 . S
C677 C678 1.366 . S
C678 C675 1.365 . S
C678 C677 1.366 . S
C678 H692 0.930 . S
C679 C676 1.378 . S
C679 N680 1.315 . S
C679 H682 0.930 . S
N680 Co660 2.194 . S
N680 C675 1.328 . S
N680 C679 1.315 . S
H681 C675 0.929 . S
H682 C679 0.930 . S
H683 C671 0.929 . S
H684 C673 0.929 . S
O685 Co660 2.351 . S
O685 C688 1.244 . S
O686 Co660 2.155 . S
O686 C688 1.240 . S
O687 Co660 2.096 . S
O687 C668 1.247 . S
C688 O685 1.244 . S
C688 O686 1.240 . S
H689 C663 0.931 . S
H690 C672 0.931 . S
H691 C676 0.929 . S
H692 C678 0.930 . S
Co693 N697 2.148 . S
Co693 N703 2.128 . S
Co693 N713 2.194 . S
Co693 O718 2.351 . S
Co693 O719 2.155 . S
Co693 O720 2.096 . S
C694 N697 1.301 . S
C694 N698 1.328 . S
C694 H699 0.930 . S
C695 C696 1.333 . S
C695 N697 1.317 . S
C695 H700 0.930 . S
C696 C695 1.333 . S
C696 N698 1.350 . S
C696 H722 0.931 . S
N697 Co693 2.148 . S
N697 C694 1.301 . S
N697 C695 1.317 . S
N698 C694 1.328 . S
N698 C696 1.350 . S
H699 C694 0.930 . S
H700 C695 0.930 . S
C701 O702 1.224 . S
C701 O720 1.247 . S
O702 C701 1.224 . S
N703 Co693 2.128 . S
N703 C704 1.355 . S
N703 C706 1.311 . S
C704 N703 1.355 . S
C704 C705 1.363 . S
C704 H716 0.929 . S
C705 C704 1.363 . S
C705 N707 1.375 . S
C705 H723 0.931 . S
C706 N703 1.311 . S
C706 N707 1.347 . S
C706 H717 0.929 . S
N707 C705 1.375 . S
N707 C706 1.347 . S
C708 C711 1.365 . S
C708 N713 1.328 . S
C708 H714 0.929 . S
C709 C710 1.362 . S
C709 C712 1.378 . S
C709 H724 0.929 . S
C710 C709 1.362 . S
C710 C711 1.366 . S
C711 C708 1.365 . S
C711 C710 1.366 . S
C711 H725 0.930 . S
C712 C709 1.378 . S
C712 N713 1.315 . S
C712 H715 0.930 . S
N713 Co693 2.194 . S
N713 C708 1.328 . S
N713 C712 1.315 . S
H714 C708 0.929 . S
H715 C712 0.930 . S
H716 C704 0.929 . S
H717 C706 0.929 . S
O718 Co693 2.351 . S
O718 C721 1.244 . S
O719 Co693 2.155 . S
O719 C721 1.240 . S
O720 Co693 2.096 . S
O720 C701 1.247 . S
C721 O718 1.244 . S
C721 O719 1.240 . S
H722 C696 0.931 . S
H723 C705 0.931 . S
H724 C709 0.929 . S
H725 C711 0.930 . S
Co726 N730 2.148 . S
Co726 N736 2.128 . S
Co726 N746 2.194 . S
Co726 O751 2.351 . S
Co726 O752 2.155 . S
Co726 O753 2.096 . S
C727 N730 1.301 . S
C727 N731 1.328 . S
C727 H732 0.930 . S
C728 C729 1.333 . S
C728 N730 1.317 . S
C728 H733 0.930 . S
C729 C728 1.333 . S
C729 N731 1.350 . S
C729 H755 0.931 . S
N730 Co726 2.148 . S
N730 C727 1.301 . S
N730 C728 1.317 . S
N731 C727 1.328 . S
N731 C729 1.350 . S
H732 C727 0.930 . S
H733 C728 0.930 . S
C734 O735 1.224 . S
C734 O753 1.247 . S
O735 C734 1.224 . S
N736 Co726 2.128 . S
N736 C737 1.355 . S
N736 C739 1.311 . S
C737 N736 1.355 . S
C737 C738 1.363 . S
C737 H749 0.929 . S
C738 C737 1.363 . S
C738 N740 1.375 . S
C738 H756 0.931 . S
C739 N736 1.311 . S
C739 N740 1.347 . S
C739 H750 0.929 . S
N740 C738 1.375 . S
N740 C739 1.347 . S
C741 C744 1.365 . S
C741 N746 1.328 . S
C741 H747 0.929 . S
C742 C743 1.362 . S
C742 C745 1.378 . S
C742 H757 0.929 . S
C743 C742 1.362 . S
C743 C744 1.366 . S
C744 C741 1.365 . S
C744 C743 1.366 . S
C744 H758 0.930 . S
C745 C742 1.378 . S
C745 N746 1.315 . S
C745 H748 0.930 . S
N746 Co726 2.194 . S
N746 C741 1.328 . S
N746 C745 1.315 . S
H747 C741 0.929 . S
H748 C745 0.930 . S
H749 C737 0.929 . S
H750 C739 0.929 . S
O751 Co726 2.351 . S
O751 C754 1.244 . S
O752 Co726 2.155 . S
O752 C754 1.240 . S
O753 Co726 2.096 . S
O753 C734 1.247 . S
C754 O751 1.244 . S
C754 O752 1.240 . S
H755 C729 0.931 . S
H756 C738 0.931 . S
H757 C742 0.929 . S
H758 C744 0.930 . S
Co759 N763 2.148 . S
Co759 N769 2.128 . S
Co759 N779 2.194 . S
Co759 O784 2.351 . S
Co759 O785 2.155 . S
Co759 O786 2.096 . S
C760 N763 1.301 . S
C760 N764 1.328 . S
C760 H765 0.930 . S
C761 C762 1.333 . S
C761 N763 1.317 . S
C761 H766 0.930 . S
C762 C761 1.333 . S
C762 N764 1.350 . S
C762 H788 0.931 . S
N763 Co759 2.148 . S
N763 C760 1.301 . S
N763 C761 1.317 . S
N764 C760 1.328 . S
N764 C762 1.350 . S
H765 C760 0.930 . S
H766 C761 0.930 . S
C767 O768 1.224 . S
C767 O786 1.247 . S
O768 C767 1.224 . S
N769 Co759 2.128 . S
N769 C770 1.355 . S
N769 C772 1.311 . S
C770 N769 1.355 . S
C770 C771 1.363 . S
C770 H782 0.929 . S
C771 C770 1.363 . S
C771 N773 1.375 . S
C771 H789 0.931 . S
C772 N769 1.311 . S
C772 N773 1.347 . S
C772 H783 0.929 . S
N773 C771 1.375 . S
N773 C772 1.347 . S
C774 C777 1.365 . S
C774 N779 1.328 . S
C774 H780 0.929 . S
C775 C776 1.362 . S
C775 C778 1.378 . S
C775 H790 0.929 . S
C776 C775 1.362 . S
C776 C777 1.366 . S
C777 C774 1.365 . S
C777 C776 1.366 . S
C777 H791 0.930 . S
C778 C775 1.378 . S
C778 N779 1.315 . S
C778 H781 0.930 . S
N779 Co759 2.194 . S
N779 C774 1.328 . S
N779 C778 1.315 . S
H780 C774 0.929 . S
H781 C778 0.930 . S
H782 C770 0.929 . S
H783 C772 0.929 . S
O784 Co759 2.351 . S
O784 C787 1.244 . S
O785 Co759 2.155 . S
O785 C787 1.240 . S
O786 Co759 2.096 . S
O786 C767 1.247 . S
C787 O784 1.244 . S
C787 O785 1.240 . S
H788 C762 0.931 . S
H789 C771 0.931 . S
H790 C775 0.929 . S
H791 C777 0.930 . S
C792 C793 1.369 . S
C792 C794 1.419 . S
C792 H796 0.930 . S
C793 C792 1.369 . S
C793 C802 1.429 1_545 S
C794 C792 1.419 . S
C794 C795 1.363 1_545 S
C794 H797 0.929 . S
C795 C794 1.363 1_565 S
C795 C801 1.428 . S
H796 C792 0.930 . S
H797 C794 0.929 . S
S798 N799 1.613 . S
S798 N800 1.610 . S
N799 S798 1.613 . S
N799 C802 1.350 . S
N800 S798 1.610 . S
N800 C801 1.351 . S
C801 C795 1.428 . S
C801 N800 1.351 . S
C801 C802 1.434 . S
C802 C793 1.429 1_565 S
C802 N799 1.350 . S
C802 C801 1.434 . S
C803 C804 1.369 . S
C803 C805 1.419 . S
C803 H807 0.930 . S
C804 C803 1.369 . S
C804 C813 1.429 . S
C805 C803 1.419 . S
C805 C806 1.363 . S
C805 H808 0.929 . S
C806 C805 1.363 . S
C806 C812 1.428 . S
H807 C803 0.930 . S
H808 C805 0.929 . S
S809 N810 1.613 . S
S809 N811 1.610 . S
N810 S809 1.613 . S
N810 C813 1.350 . S
N811 S809 1.610 . S
N811 C812 1.351 . S
C812 C806 1.428 . S
C812 N811 1.351 . S
C812 C813 1.434 . S
C813 C804 1.429 . S
C813 N810 1.350 . S
C813 C812 1.434 . S
C814 C815 1.369 . S
C814 C816 1.419 1_455 S
C814 H818 0.930 . S
C815 C814 1.369 . S
C815 C824 1.429 . S
C816 C814 1.419 1_655 S
C816 C817 1.363 . S
C816 H819 0.929 . S
C817 C816 1.363 . S
C817 C823 1.428 . S
H818 C814 0.930 . S
H819 C816 0.929 . S
S820 N821 1.613 . S
S820 N822 1.610 1_455 S
N821 S820 1.613 . S
N821 C824 1.350 . S
N822 S820 1.610 1_655 S
N822 C823 1.351 . S
C823 C817 1.428 . S
C823 N822 1.351 . S
C823 C824 1.434 1_655 S
C824 C815 1.429 . S
C824 N821 1.350 . S
C824 C823 1.434 1_455 S
C825 C826 1.369 . S
C825 C827 1.419 1_455 S
C825 H829 0.930 . S
C826 C825 1.369 . S
C826 C835 1.429 . S
C827 C825 1.419 1_655 S
C827 C828 1.363 . S
C827 H830 0.929 . S
C828 C827 1.363 . S
C828 C834 1.428 . S
H829 C825 0.930 . S
H830 C827 0.929 . S
S831 N832 1.613 1_655 S
S831 N833 1.610 . S
N832 S831 1.613 1_455 S
N832 C835 1.350 . S
N833 S831 1.610 . S
N833 C834 1.351 . S
C834 C828 1.428 . S
C834 N833 1.351 . S
C834 C835 1.434 1_655 S
C835 C826 1.429 . S
C835 N832 1.350 . S
C835 C834 1.434 1_455 S
C836 C837 1.369 . S
C836 C838 1.419 . S
C836 H840 0.930 . S
C837 C836 1.369 . S
C837 C846 1.429 1_565 S
C838 C836 1.419 . S
C838 C839 1.363 1_565 S
C838 H841 0.929 . S
C839 C838 1.363 1_545 S
C839 C845 1.428 . S
H840 C836 0.930 . S
H841 C838 0.929 . S
S842 N843 1.613 . S
S842 N844 1.610 . S
N843 S842 1.613 . S
N843 C846 1.350 . S
N844 S842 1.610 . S
N844 C845 1.351 . S
C845 C839 1.428 . S
C845 N844 1.351 . S
C845 C846 1.434 . S
C846 C837 1.429 1_545 S
C846 N843 1.350 . S
C846 C845 1.434 . S
C847 C848 1.369 . S
C847 C849 1.419 . S
C847 H851 0.930 . S
C848 C847 1.369 . S
C848 C857 1.429 . S
C849 C847 1.419 . S
C849 C850 1.363 . S
C849 H852 0.929 . S
C850 C849 1.363 . S
C850 C856 1.428 . S
H851 C847 0.930 . S
H852 C849 0.929 . S
S853 N854 1.613 . S
S853 N855 1.610 . S
N854 S853 1.613 . S
N854 C857 1.350 . S
N855 S853 1.610 . S
N855 C856 1.351 . S
C856 C850 1.428 . S
C856 N855 1.351 . S
C856 C857 1.434 . S
C857 C848 1.429 . S
C857 N854 1.350 . S
C857 C856 1.434 . S
C858 C859 1.369 . S
C858 C860 1.419 . S
C858 H862 0.930 . S
C859 C858 1.369 . S
C859 C868 1.429 1_545 S
C860 C858 1.419 . S
C860 C861 1.363 1_545 S
C860 H863 0.929 . S
C861 C860 1.363 1_565 S
C861 C867 1.428 . S
H862 C858 0.930 . S
H863 C860 0.929 . S
S864 N865 1.613 . S
S864 N866 1.610 . S
N865 S864 1.613 . S
N865 C868 1.350 . S
N866 S864 1.610 . S
N866 C867 1.351 . S
C867 C861 1.428 . S
C867 N866 1.351 . S
C867 C868 1.434 . S
C868 C859 1.429 1_565 S
C868 N865 1.350 . S
C868 C867 1.434 . S
C869 C870 1.369 . S
C869 C871 1.419 . S
C869 H873 0.930 . S
C870 C869 1.369 . S
C870 C879 1.429 . S
C871 C869 1.419 . S
C871 C872 1.363 . S
C871 H874 0.929 . S
C872 C871 1.363 . S
C872 C878 1.428 . S
H873 C869 0.930 . S
H874 C871 0.929 . S
S875 N876 1.613 . S
S875 N877 1.610 . S
N876 S875 1.613 . S
N876 C879 1.350 . S
N877 S875 1.610 . S
N877 C878 1.351 . S
C878 C872 1.428 . S
C878 N877 1.351 . S
C878 C879 1.434 . S
C879 C870 1.429 . S
C879 N876 1.350 . S
C879 C878 1.434 . S
C880 C881 1.369 1_455 S
C880 C882 1.419 . S
C880 H884 0.930 . S
C881 C880 1.369 1_655 S
C881 C890 1.429 . S
C882 C880 1.419 . S
C882 C883 1.363 . S
C882 H885 0.929 . S
C883 C882 1.363 . S
C883 C889 1.428 1_455 S
H884 C880 0.930 . S
H885 C882 0.929 . S
S886 N887 1.613 . S
S886 N888 1.610 . S
N887 S886 1.613 . S
N887 C890 1.350 . S
N888 S886 1.610 . S
N888 C889 1.351 . S
C889 C883 1.428 1_655 S
C889 N888 1.351 . S
C889 C890 1.434 . S
C890 C881 1.429 . S
C890 N887 1.350 . S
C890 C889 1.434 . S
C891 C892 1.369 1_455 S
C891 C893 1.419 . S
C891 H895 0.930 . S
C892 C891 1.369 1_655 S
C892 C901 1.429 . S
C893 C891 1.419 . S
C893 C894 1.363 . S
C893 H896 0.929 . S
C894 C893 1.363 . S
C894 C900 1.428 1_455 S
H895 C891 0.930 . S
H896 C893 0.929 . S
S897 N898 1.613 . S
S897 N899 1.610 . S
N898 S897 1.613 . S
N898 C901 1.350 . S
N899 S897 1.610 . S
N899 C900 1.351 . S
C900 C894 1.428 1_655 S
C900 N899 1.351 . S
C900 C901 1.434 . S
C901 C892 1.429 . S
C901 N898 1.350 . S
C901 C900 1.434 . S
C902 C903 1.369 . S
C902 C904 1.419 . S
C902 H906 0.930 . S
C903 C902 1.369 . S
C903 C912 1.429 1_545 S
C904 C902 1.419 . S
C904 C905 1.363 1_545 S
C904 H907 0.929 . S
C905 C904 1.363 1_565 S
C905 C911 1.428 . S
H906 C902 0.930 . S
H907 C904 0.929 . S
S908 N909 1.613 . S
S908 N910 1.610 . S
N909 S908 1.613 . S
N909 C912 1.350 . S
N910 S908 1.610 . S
N910 C911 1.351 . S
C911 C905 1.428 . S
C911 N910 1.351 . S
C911 C912 1.434 . S
C912 C903 1.429 1_565 S
C912 N909 1.350 . S
C912 C911 1.434 . S
C913 C914 1.369 . S
C913 C915 1.419 . S
C913 H917 0.930 . S
C914 C913 1.369 . S
C914 C923 1.429 . S
C915 C913 1.419 . S
C915 C916 1.363 . S
C915 H918 0.929 . S
C916 C915 1.363 . S
C916 C922 1.428 . S
H917 C913 0.930 . S
H918 C915 0.929 . S
S919 N920 1.613 . S
S919 N921 1.610 . S
N920 S919 1.613 . S
N920 C923 1.350 . S
N921 S919 1.610 . S
N921 C922 1.351 . S
C922 C916 1.428 . S
C922 N921 1.351 . S
C922 C923 1.434 . S
C923 C914 1.429 . S
C923 N920 1.350 . S
C923 C922 1.434 . S
C924 C925 1.369 . S
C924 C926 1.419 . S
C924 H928 0.930 . S
C925 C924 1.369 . S
C925 C934 1.429 . S
C926 C924 1.419 . S
C926 C927 1.363 . S
C926 H929 0.929 . S
C927 C926 1.363 . S
C927 C933 1.428 . S
H928 C924 0.930 . S
H929 C926 0.929 . S
S930 N931 1.613 . S
S930 N932 1.610 . S
N931 S930 1.613 . S
N931 C934 1.350 . S
N932 S930 1.610 . S
N932 C933 1.351 . S
C933 C927 1.428 . S
C933 N932 1.351 . S
C933 C934 1.434 . S
C934 C925 1.429 . S
C934 N931 1.350 . S
C934 C933 1.434 . S
C935 C936 1.369 . S
C935 C937 1.419 . S
C935 H939 0.930 . S
C936 C935 1.369 . S
C936 C945 1.429 . S
C937 C935 1.419 . S
C937 C938 1.363 . S
C937 H940 0.929 . S
C938 C937 1.363 . S
C938 C944 1.428 . S
H939 C935 0.930 . S
H940 C937 0.929 . S
S941 N942 1.613 . S
S941 N943 1.610 . S
N942 S941 1.613 . S
N942 C945 1.350 . S
N943 S941 1.610 . S
N943 C944 1.351 . S
C944 C938 1.428 . S
C944 N943 1.351 . S
C944 C945 1.434 . S
C945 C936 1.429 . S
C945 N942 1.350 . S
C945 C944 1.434 . S
C946 C947 1.369 . S
C946 C948 1.419 . S
C946 H950 0.930 . S
C947 C946 1.369 . S
C947 C956 1.429 . S
C948 C946 1.419 . S
C948 C949 1.363 . S
C948 H951 0.929 . S
C949 C948 1.363 . S
C949 C955 1.428 . S
H950 C946 0.930 . S
H951 C948 0.929 . S
S952 N953 1.613 . S
S952 N954 1.610 . S
N953 S952 1.613 . S
N953 C956 1.350 . S
N954 S952 1.610 . S
N954 C955 1.351 . S
C955 C949 1.428 . S
C955 N954 1.351 . S
C955 C956 1.434 . S
C956 C947 1.429 . S
C956 N953 1.350 . S
C956 C955 1.434 . S
C957 C958 1.369 . S
C957 C959 1.419 . S
C957 H961 0.930 . S
C958 C957 1.369 . S
C958 C967 1.429 . S
C959 C957 1.419 . S
C959 C960 1.363 . S
C959 H962 0.929 . S
C960 C959 1.363 . S
C960 C966 1.428 . S
H961 C957 0.930 . S
H962 C959 0.929 . S
S963 N964 1.613 . S
S963 N965 1.610 . S
N964 S963 1.613 . S
N964 C967 1.350 . S
N965 S963 1.610 . S
N965 C966 1.351 . S
C966 C960 1.428 . S
C966 N965 1.351 . S
C966 C967 1.434 . S
C967 C958 1.429 . S
C967 N964 1.350 . S
C967 C966 1.434 . S
C968 C969 1.369 . S
C968 C970 1.419 . S
C968 H972 0.930 . S
C969 C968 1.369 . S
C969 C978 1.429 . S
C970 C968 1.419 . S
C970 C971 1.363 . S
C970 H973 0.929 . S
C971 C970 1.363 . S
C971 C977 1.428 . S
H972 C968 0.930 . S
H973 C970 0.929 . S
S974 N975 1.613 . S
S974 N976 1.610 . S
N975 S974 1.613 . S
N975 C978 1.350 . S
N976 S974 1.610 . S
N976 C977 1.351 . S
C977 C971 1.428 . S
C977 N976 1.351 . S
C977 C978 1.434 . S
C978 C969 1.429 . S
C978 N975 1.350 . S
C978 C977 1.434 . S
C979 C980 1.369 . S
C979 C981 1.419 . S
C979 H983 0.930 . S
C980 C979 1.369 . S
C980 C989 1.429 . S
C981 C979 1.419 . S
C981 C982 1.363 . S
C981 H984 0.929 . S
C982 C981 1.363 . S
C982 C988 1.428 . S
H983 C979 0.930 . S
H984 C981 0.929 . S
S985 N986 1.613 . S
S985 N987 1.610 . S
N986 S985 1.613 . S
N986 C989 1.350 . S
N987 S985 1.610 . S
N987 C988 1.351 . S
C988 C982 1.428 . S
C988 N987 1.351 . S
C988 C989 1.434 . S
C989 C980 1.429 . S
C989 N986 1.350 . S
C989 C988 1.434 . S
C990 C991 1.369 . S
C990 C992 1.419 . S
C990 H994 0.930 . S
C991 C990 1.369 . S
C991 C1000 1.429 . S
C992 C990 1.419 . S
C992 C993 1.363 . S
C992 H995 0.929 . S
C993 C992 1.363 . S
C993 C999 1.428 . S
H994 C990 0.930 . S
H995 C992 0.929 . S
S996 N997 1.613 . S
S996 N998 1.610 . S
N997 S996 1.613 . S
N997 C1000 1.350 . S
N998 S996 1.610 . S
N998 C999 1.351 . S
C999 C993 1.428 . S
C999 N998 1.351 . S
C999 C1000 1.434 . S
C1000 C991 1.429 . S
C1000 N997 1.350 . S
C1000 C999 1.434 . S
C1001 C1002 1.369 . S
C1001 C1003 1.419 . S
C1001 H1005 0.930 . S
C1002 C1001 1.369 . S
C1002 C1011 1.429 . S
C1003 C1001 1.419 . S
C1003 C1004 1.363 . S
C1003 H1006 0.929 . S
C1004 C1003 1.363 . S
C1004 C1010 1.428 . S
H1005 C1001 0.930 . S
H1006 C1003 0.929 . S
S1007 N1008 1.613 . S
S1007 N1009 1.610 . S
N1008 S1007 1.613 . S
N1008 C1011 1.350 . S
N1009 S1007 1.610 . S
N1009 C1010 1.351 . S
C1010 C1004 1.428 . S
C1010 N1009 1.351 . S
C1010 C1011 1.434 . S
C1011 C1002 1.429 . S
C1011 N1008 1.350 . S
C1011 C1010 1.434 . S
C1012 C1013 1.369 . S
C1012 C1014 1.419 . S
C1012 H1016 0.930 . S
C1013 C1012 1.369 . S
C1013 C1022 1.429 . S
C1014 C1012 1.419 . S
C1014 C1015 1.363 . S
C1014 H1017 0.929 . S
C1015 C1014 1.363 . S
C1015 C1021 1.428 . S
H1016 C1012 0.930 . S
H1017 C1014 0.929 . S
S1018 N1019 1.613 . S
S1018 N1020 1.610 . S
N1019 S1018 1.613 . S
N1019 C1022 1.350 . S
N1020 S1018 1.610 . S
N1020 C1021 1.351 . S
C1021 C1015 1.428 . S
C1021 N1020 1.351 . S
C1021 C1022 1.434 . S
C1022 C1013 1.429 . S
C1022 N1019 1.350 . S
C1022 C1021 1.434 . S
C1023 C1024 1.369 . S
C1023 C1025 1.419 . S
C1023 H1027 0.930 . S
C1024 C1023 1.369 . S
C1024 C1033 1.429 . S
C1025 C1023 1.419 . S
C1025 C1026 1.363 . S
C1025 H1028 0.929 . S
C1026 C1025 1.363 . S
C1026 C1032 1.428 . S
H1027 C1023 0.930 . S
H1028 C1025 0.929 . S
S1029 N1030 1.613 . S
S1029 N1031 1.610 . S
N1030 S1029 1.613 . S
N1030 C1033 1.350 . S
N1031 S1029 1.610 . S
N1031 C1032 1.351 . S
C1032 C1026 1.428 . S
C1032 N1031 1.351 . S
C1032 C1033 1.434 . S
C1033 C1024 1.429 . S
C1033 N1030 1.350 . S
C1033 C1032 1.434 . S
C1034 C1035 1.369 . S
C1034 C1036 1.419 . S
C1034 H1038 0.930 . S
C1035 C1034 1.369 . S
C1035 C1044 1.429 . S
C1036 C1034 1.419 . S
C1036 C1037 1.363 . S
C1036 H1039 0.929 . S
C1037 C1036 1.363 . S
C1037 C1043 1.428 . S
H1038 C1034 0.930 . S
H1039 C1036 0.929 . S
S1040 N1041 1.613 . S
S1040 N1042 1.610 . S
N1041 S1040 1.613 . S
N1041 C1044 1.350 . S
N1042 S1040 1.610 . S
N1042 C1043 1.351 . S
C1043 C1037 1.428 . S
C1043 N1042 1.351 . S
C1043 C1044 1.434 . S
C1044 C1035 1.429 . S
C1044 N1041 1.350 . S
C1044 C1043 1.434 . S
C1045 C1046 1.369 . S
C1045 C1047 1.419 . S
C1045 H1049 0.930 . S
C1046 C1045 1.369 . S
C1046 C1055 1.429 . S
C1047 C1045 1.419 . S
C1047 C1048 1.363 . S
C1047 H1050 0.929 . S
C1048 C1047 1.363 . S
C1048 C1054 1.428 . S
H1049 C1045 0.930 . S
H1050 C1047 0.929 . S
S1051 N1052 1.613 . S
S1051 N1053 1.610 . S
N1052 S1051 1.613 . S
N1052 C1055 1.350 . S
N1053 S1051 1.610 . S
N1053 C1054 1.351 . S
C1054 C1048 1.428 . S
C1054 N1053 1.351 . S
C1054 C1055 1.434 . S
C1055 C1046 1.429 . S
C1055 N1052 1.350 . S
C1055 C1054 1.434 . S
C1056 C1057 1.403 . S
C1056 C1058 1.388 1_545 S
C1056 H1060 0.928 . S
C1057 C1056 1.403 . S
C1057 C1066 1.429 . S
C1058 C1056 1.388 1_565 S
C1058 C1059 1.363 . S
C1058 H1061 0.929 . S
C1059 C1058 1.363 . S
C1059 C1065 1.427 1_565 S
H1060 C1056 0.928 . S
H1061 C1058 0.929 . S
S1062 N1063 1.613 . S
S1062 N1064 1.610 . S
N1063 S1062 1.613 . S
N1063 C1066 1.350 . S
N1064 S1062 1.610 . S
N1064 C1065 1.351 . S
C1065 C1059 1.427 1_545 S
C1065 N1064 1.351 . S
C1065 C1066 1.435 . S
C1066 C1057 1.429 . S
C1066 N1063 1.350 . S
C1066 C1065 1.435 . S
C1067 C1068 1.369 . S
C1067 C1069 1.419 . S
C1067 H1071 0.930 . S
C1068 C1067 1.369 . S
C1068 C1077 1.429 . S
C1069 C1067 1.419 . S
C1069 C1070 1.363 . S
C1069 H1072 0.929 . S
C1070 C1069 1.363 . S
C1070 C1076 1.428 . S
H1071 C1067 0.930 . S
H1072 C1069 0.929 . S
S1073 N1074 1.613 . S
S1073 N1075 1.610 . S
N1074 S1073 1.613 . S
N1074 C1077 1.350 . S
N1075 S1073 1.610 . S
N1075 C1076 1.351 . S
C1076 C1070 1.428 . S
C1076 N1075 1.351 . S
C1076 C1077 1.434 . S
C1077 C1068 1.429 . S
C1077 N1074 1.350 . S
C1077 C1076 1.434 . S
C1078 C1079 1.369 . S
C1078 C1080 1.419 1_455 S
C1078 H1082 0.930 . S
C1079 C1078 1.369 . S
C1079 C1088 1.429 . S
C1080 C1078 1.419 1_655 S
C1080 C1081 1.363 . S
C1080 H1083 0.929 . S
C1081 C1080 1.363 . S
C1081 C1087 1.428 . S
H1082 C1078 0.930 . S
H1083 C1080 0.929 . S
S1084 N1085 1.613 . S
S1084 N1086 1.610 1_455 S
N1085 S1084 1.613 . S
N1085 C1088 1.350 . S
N1086 S1084 1.610 1_655 S
N1086 C1087 1.351 . S
C1087 C1081 1.428 . S
C1087 N1086 1.351 . S
C1087 C1088 1.434 1_655 S
C1088 C1079 1.429 . S
C1088 N1085 1.350 . S
C1088 C1087 1.434 1_455 S
C1089 C1090 1.369 . S
C1089 C1091 1.419 1_565 S
C1089 H1093 0.930 . S
C1090 C1089 1.369 . S
C1090 C1099 1.429 . S
C1091 C1089 1.419 1_545 S
C1091 C1092 1.363 . S
C1091 H1094 0.929 . S
C1092 C1091 1.363 . S
C1092 C1098 1.428 . S
H1093 C1089 0.930 . S
H1094 C1091 0.929 . S
S1095 N1096 1.613 . S
S1095 N1097 1.610 1_565 S
N1096 S1095 1.613 . S
N1096 C1099 1.350 . S
N1097 S1095 1.610 1_545 S
N1097 C1098 1.351 . S
C1098 C1092 1.428 . S
C1098 N1097 1.351 . S
C1098 C1099 1.434 1_545 S
C1099 C1090 1.429 . S
C1099 N1096 1.350 . S
C1099 C1098 1.434 1_565 S
C1100 C1101 1.369 . S
C1100 C1102 1.419 . S
C1100 H1104 0.930 . S
C1101 C1100 1.369 . S
C1101 C1110 1.429 . S
C1102 C1100 1.419 . S
C1102 C1103 1.363 . S
C1102 H1105 0.929 . S
C1103 C1102 1.363 . S
C1103 C1109 1.428 . S
H1104 C1100 0.930 . S
H1105 C1102 0.929 . S
S1106 N1107 1.613 . S
S1106 N1108 1.610 . S
N1107 S1106 1.613 . S
N1107 C1110 1.350 . S
N1108 S1106 1.610 . S
N1108 C1109 1.351 . S
C1109 C1103 1.428 . S
C1109 N1108 1.351 . S
C1109 C1110 1.434 . S
C1110 C1101 1.429 . S
C1110 N1107 1.350 . S
C1110 C1109 1.434 . S
C1111 C1112 1.369 . S
C1111 C1113 1.419 1_655 S
C1111 H1115 0.930 . S
C1112 C1111 1.369 . S
C1112 C1121 1.429 . S
C1113 C1111 1.419 1_455 S
C1113 C1114 1.363 . S
C1113 H1116 0.928 . S
C1114 C1113 1.363 . S
C1114 C1120 1.428 . S
H1115 C1111 0.930 . S
H1116 C1113 0.928 . S
S1117 N1118 1.613 . S
S1117 N1119 1.610 . S
N1118 S1117 1.613 . S
N1118 C1121 1.350 1_455 S
N1119 S1117 1.610 . S
N1119 C1120 1.351 . S
C1120 C1114 1.428 . S
C1120 N1119 1.351 . S
C1120 C1121 1.434 1_455 S
C1121 C1112 1.429 . S
C1121 N1118 1.350 1_655 S
C1121 C1120 1.434 1_655 S
C1122 C1123 1.369 . S
C1122 C1124 1.419 1_565 S
C1122 H1126 0.930 . S
C1123 C1122 1.369 . S
C1123 C1132 1.429 . S
C1124 C1122 1.419 1_545 S
C1124 C1125 1.363 . S
C1124 H1127 0.929 . S
C1125 C1124 1.363 . S
C1125 C1131 1.428 . S
H1126 C1122 0.930 . S
H1127 C1124 0.929 . S
S1128 N1129 1.613 . S
S1128 N1130 1.610 . S
N1129 S1128 1.613 . S
N1129 C1132 1.350 1_545 S
N1130 S1128 1.610 . S
N1130 C1131 1.351 . S
C1131 C1125 1.428 . S
C1131 N1130 1.351 . S
C1131 C1132 1.434 1_545 S
C1132 C1123 1.429 . S
C1132 N1129 1.350 1_565 S
C1132 C1131 1.434 1_565 S
C1133 C1134 1.369 . S
C1133 C1135 1.419 . S
C1133 H1137 0.930 . S
C1134 C1133 1.369 . S
C1134 C1143 1.429 . S
C1135 C1133 1.419 . S
C1135 C1136 1.363 . S
C1135 H1138 0.929 . S
C1136 C1135 1.363 . S
C1136 C1142 1.428 . S
H1137 C1133 0.930 . S
H1138 C1135 0.929 . S
S1139 N1140 1.613 . S
S1139 N1141 1.610 . S
N1140 S1139 1.613 . S
N1140 C1143 1.350 . S
N1141 S1139 1.610 . S
N1141 C1142 1.351 . S
C1142 C1136 1.428 . S
C1142 N1141 1.351 . S
C1142 C1143 1.434 . S
C1143 C1134 1.429 . S
C1143 N1140 1.350 . S
C1143 C1142 1.434 . S
C1144 C1145 1.369 . S
C1144 C1146 1.419 1_455 S
C1144 H1148 0.926 . S
C1145 C1144 1.369 . S
C1145 C1154 1.429 . S
C1146 C1144 1.419 1_655 S
C1146 C1147 1.363 . S
C1146 H1149 0.929 . S
C1147 C1146 1.363 . S
C1147 C1153 1.439 . S
H1148 C1144 0.926 . S
H1149 C1146 0.929 . S
S1150 N1151 1.613 . S
S1150 N1152 1.610 . S
N1151 S1150 1.613 . S
N1151 C1154 1.350 . S
N1152 S1150 1.610 . S
N1152 C1153 1.352 1_455 S
C1153 C1147 1.439 . S
C1153 N1152 1.352 1_655 S
C1153 C1154 1.421 1_655 S
C1154 C1145 1.429 . S
C1154 N1151 1.350 . S
C1154 C1153 1.421 1_455 S
C1155 C1156 1.369 . S
C1155 C1157 1.419 1_545 S
C1155 H1159 0.930 . S
C1156 C1155 1.369 . S
C1156 C1165 1.429 . S
C1157 C1155 1.419 1_565 S
C1157 C1158 1.363 . S
C1157 H1160 0.929 . S
C1158 C1157 1.363 . S
C1158 C1164 1.428 . S
H1159 C1155 0.930 . S
H1160 C1157 0.929 . S
S1161 N1162 1.613 1_565 S
S1161 N1163 1.610 . S
N1162 S1161 1.613 1_545 S
N1162 C1165 1.350 . S
N1163 S1161 1.610 . S
N1163 C1164 1.351 . S
C1164 C1158 1.428 . S
C1164 N1163 1.351 . S
C1164 C1165 1.434 1_565 S
C1165 C1156 1.429 . S
C1165 N1162 1.350 . S
C1165 C1164 1.434 1_545 S
C1166 C1167 1.369 . S
C1166 C1168 1.419 . S
C1166 H1170 0.930 . S
C1167 C1166 1.369 . S
C1167 C1176 1.429 . S
C1168 C1166 1.419 . S
C1168 C1169 1.363 . S
C1168 H1171 0.929 . S
C1169 C1168 1.363 . S
C1169 C1175 1.428 . S
H1170 C1166 0.930 . S
H1171 C1168 0.929 . S
S1172 N1173 1.613 . S
S1172 N1174 1.610 . S
N1173 S1172 1.613 . S
N1173 C1176 1.350 . S
N1174 S1172 1.610 . S
N1174 C1175 1.351 . S
C1175 C1169 1.428 . S
C1175 N1174 1.351 . S
C1175 C1176 1.434 . S
C1176 C1167 1.429 . S
C1176 N1173 1.350 . S
C1176 C1175 1.434 . S
C1177 C1178 1.369 . S
C1177 C1179 1.419 1_455 S
C1177 H1181 0.930 . S
C1178 C1177 1.369 . S
C1178 C1187 1.429 . S
C1179 C1177 1.419 1_655 S
C1179 C1180 1.363 . S
C1179 H1182 0.929 . S
C1180 C1179 1.363 . S
C1180 C1186 1.428 . S
H1181 C1177 0.930 . S
H1182 C1179 0.929 . S
S1183 N1184 1.613 1_655 S
S1183 N1185 1.610 . S
N1184 S1183 1.613 1_455 S
N1184 C1187 1.350 . S
N1185 S1183 1.610 . S
N1185 C1186 1.351 . S
C1186 C1180 1.428 . S
C1186 N1185 1.351 . S
C1186 C1187 1.434 1_655 S
C1187 C1178 1.429 . S
C1187 N1184 1.350 . S
C1187 C1186 1.434 1_455 S
C1188 C1189 1.369 . S
C1188 C1190 1.419 . S
C1188 H1192 0.930 . S
C1189 C1188 1.369 . S
C1189 C1198 1.429 . S
C1190 C1188 1.419 . S
C1190 C1191 1.363 . S
C1190 H1193 0.929 . S
C1191 C1190 1.363 . S
C1191 C1197 1.428 . S
H1192 C1188 0.930 . S
H1193 C1190 0.929 . S
S1194 N1195 1.613 . S
S1194 N1196 1.610 . S
N1195 S1194 1.613 . S
N1195 C1198 1.350 . S
N1196 S1194 1.610 . S
N1196 C1197 1.351 . S
C1197 C1191 1.428 . S
C1197 N1196 1.351 . S
C1197 C1198 1.434 . S
C1198 C1189 1.429 . S
C1198 N1195 1.350 . S
C1198 C1197 1.434 . S
C1199 C1200 1.369 . S
C1199 C1201 1.419 . S
C1199 H1203 0.930 . S
C1200 C1199 1.369 . S
C1200 C1209 1.429 . S
C1201 C1199 1.419 . S
C1201 C1202 1.363 . S
C1201 H1204 0.929 . S
C1202 C1201 1.363 . S
C1202 C1208 1.428 . S
H1203 C1199 0.930 . S
H1204 C1201 0.929 . S
S1205 N1206 1.613 . S
S1205 N1207 1.610 . S
N1206 S1205 1.613 . S
N1206 C1209 1.350 . S
N1207 S1205 1.610 . S
N1207 C1208 1.351 . S
C1208 C1202 1.428 . S
C1208 N1207 1.351 . S
C1208 C1209 1.434 . S
C1209 C1200 1.429 . S
C1209 N1206 1.350 . S
C1209 C1208 1.434 . S
C1210 C1211 1.369 . S
C1210 C1212 1.419 . S
C1210 H1214 0.930 . S
C1211 C1210 1.369 . S
C1211 C1220 1.429 . S
C1212 C1210 1.419 . S
C1212 C1213 1.363 . S
C1212 H1215 0.929 . S
C1213 C1212 1.363 . S
C1213 C1219 1.428 . S
H1214 C1210 0.930 . S
H1215 C1212 0.929 . S
S1216 N1217 1.613 . S
S1216 N1218 1.610 . S
N1217 S1216 1.613 . S
N1217 C1220 1.350 . S
N1218 S1216 1.610 . S
N1218 C1219 1.351 . S
C1219 C1213 1.428 . S
C1219 N1218 1.351 . S
C1219 C1220 1.434 . S
C1220 C1211 1.429 . S
C1220 N1217 1.350 . S
C1220 C1219 1.434 . S
C1221 C1222 1.369 . S
C1221 C1223 1.419 . S
C1221 H1225 0.930 . S
C1222 C1221 1.369 . S
C1222 C1231 1.429 . S
C1223 C1221 1.419 . S
C1223 C1224 1.363 . S
C1223 H1226 0.929 . S
C1224 C1223 1.363 . S
C1224 C1230 1.428 . S
H1225 C1221 0.930 . S
H1226 C1223 0.929 . S
S1227 N1228 1.613 . S
S1227 N1229 1.610 . S
N1228 S1227 1.613 . S
N1228 C1231 1.350 . S
N1229 S1227 1.610 . S
N1229 C1230 1.351 . S
C1230 C1224 1.428 . S
C1230 N1229 1.351 . S
C1230 C1231 1.434 . S
C1231 C1222 1.429 . S
C1231 N1228 1.350 . S
C1231 C1230 1.434 . S
C1232 C1233 1.369 . S
C1232 C1234 1.419 . S
C1232 H1236 0.930 . S
C1233 C1232 1.369 . S
C1233 C1242 1.429 . S
C1234 C1232 1.419 . S
C1234 C1235 1.363 . S
C1234 H1237 0.929 . S
C1235 C1234 1.363 . S
C1235 C1241 1.428 . S
H1236 C1232 0.930 . S
H1237 C1234 0.929 . S
S1238 N1239 1.613 . S
S1238 N1240 1.610 . S
N1239 S1238 1.613 . S
N1239 C1242 1.350 . S
N1240 S1238 1.610 . S
N1240 C1241 1.351 . S
C1241 C1235 1.428 . S
C1241 N1240 1.351 . S
C1241 C1242 1.434 . S
C1242 C1233 1.429 . S
C1242 N1239 1.350 . S
C1242 C1241 1.434 . S
C1243 C1244 1.369 . S
C1243 C1245 1.419 . S
C1243 H1247 0.930 . S
C1244 C1243 1.369 . S
C1244 C1253 1.429 . S
C1245 C1243 1.419 . S
C1245 C1246 1.363 . S
C1245 H1248 0.929 . S
C1246 C1245 1.363 . S
C1246 C1252 1.428 . S
H1247 C1243 0.930 . S
H1248 C1245 0.929 . S
S1249 N1250 1.613 . S
S1249 N1251 1.610 . S
N1250 S1249 1.613 . S
N1250 C1253 1.350 . S
N1251 S1249 1.610 . S
N1251 C1252 1.351 . S
C1252 C1246 1.428 . S
C1252 N1251 1.351 . S
C1252 C1253 1.434 . S
C1253 C1244 1.429 . S
C1253 N1250 1.350 . S
C1253 C1252 1.434 . S
C1254 C1255 1.369 . S
C1254 C1256 1.419 . S
C1254 H1258 0.930 . S
C1255 C1254 1.369 . S
C1255 C1264 1.429 . S
C1256 C1254 1.419 . S
C1256 C1257 1.363 . S
C1256 H1259 0.929 . S
C1257 C1256 1.363 . S
C1257 C1263 1.428 . S
H1258 C1254 0.930 . S
H1259 C1256 0.929 . S
S1260 N1261 1.613 . S
S1260 N1262 1.610 . S
N1261 S1260 1.613 . S
N1261 C1264 1.350 . S
N1262 S1260 1.610 . S
N1262 C1263 1.351 . S
C1263 C1257 1.428 . S
C1263 N1262 1.351 . S
C1263 C1264 1.434 . S
C1264 C1255 1.429 . S
C1264 N1261 1.350 . S
C1264 C1263 1.434 . S
C1265 C1266 1.369 . S
C1265 C1267 1.419 . S
C1265 H1269 0.930 . S
C1266 C1265 1.369 . S
C1266 C1275 1.429 . S
C1267 C1265 1.419 . S
C1267 C1268 1.363 . S
C1267 H1270 0.929 . S
C1268 C1267 1.363 . S
C1268 C1274 1.428 . S
H1269 C1265 0.930 . S
H1270 C1267 0.929 . S
S1271 N1272 1.613 . S
S1271 N1273 1.610 . S
N1272 S1271 1.613 . S
N1272 C1275 1.350 . S
N1273 S1271 1.610 . S
N1273 C1274 1.351 . S
C1274 C1268 1.428 . S
C1274 N1273 1.351 . S
C1274 C1275 1.434 . S
C1275 C1266 1.429 . S
C1275 N1272 1.350 . S
C1275 C1274 1.434 . S
C1276 C1277 1.369 . S
C1276 C1278 1.419 . S
C1276 H1280 0.930 . S
C1277 C1276 1.369 . S
C1277 C1286 1.429 . S
C1278 C1276 1.419 . S
C1278 C1279 1.363 . S
C1278 H1281 0.929 . S
C1279 C1278 1.363 . S
C1279 C1285 1.428 . S
H1280 C1276 0.930 . S
H1281 C1278 0.929 . S
S1282 N1283 1.613 . S
S1282 N1284 1.610 . S
N1283 S1282 1.613 . S
N1283 C1286 1.350 . S
N1284 S1282 1.610 . S
N1284 C1285 1.351 . S
C1285 C1279 1.428 . S
C1285 N1284 1.351 . S
C1285 C1286 1.434 . S
C1286 C1277 1.429 . S
C1286 N1283 1.350 . S
C1286 C1285 1.434 . S
C1287 C1288 1.369 . S
C1287 C1289 1.419 . S
C1287 H1291 0.930 . S
C1288 C1287 1.369 . S
C1288 C1297 1.429 . S
C1289 C1287 1.419 . S
C1289 C1290 1.363 . S
C1289 H1292 0.929 . S
C1290 C1289 1.363 . S
C1290 C1296 1.428 . S
H1291 C1287 0.930 . S
H1292 C1289 0.929 . S
S1293 N1294 1.613 . S
S1293 N1295 1.610 . S
N1294 S1293 1.613 . S
N1294 C1297 1.350 . S
N1295 S1293 1.610 . S
N1295 C1296 1.351 . S
C1296 C1290 1.428 . S
C1296 N1295 1.351 . S
C1296 C1297 1.434 . S
C1297 C1288 1.429 . S
C1297 N1294 1.350 . S
C1297 C1296 1.434 . S
C1298 C1299 1.369 . S
C1298 C1300 1.419 . S
C1298 H1302 0.930 . S
C1299 C1298 1.369 . S
C1299 C1308 1.429 . S
C1300 C1298 1.419 . S
C1300 C1301 1.363 . S
C1300 H1303 0.929 . S
C1301 C1300 1.363 . S
C1301 C1307 1.428 . S
H1302 C1298 0.930 . S
H1303 C1300 0.929 . S
S1304 N1305 1.613 . S
S1304 N1306 1.610 . S
N1305 S1304 1.613 . S
N1305 C1308 1.350 . S
N1306 S1304 1.610 . S
N1306 C1307 1.351 . S
C1307 C1301 1.428 . S
C1307 N1306 1.351 . S
C1307 C1308 1.434 . S
C1308 C1299 1.429 . S
C1308 N1305 1.350 . S
C1308 C1307 1.434 . S
C1309 C1310 1.369 . S
C1309 C1311 1.419 . S
C1309 H1313 0.930 . S
C1310 C1309 1.369 . S
C1310 C1319 1.429 . S
C1311 C1309 1.419 . S
C1311 C1312 1.363 . S
C1311 H1314 0.929 . S
C1312 C1311 1.363 . S
C1312 C1318 1.428 . S
H1313 C1309 0.930 . S
H1314 C1311 0.929 . S
S1315 N1316 1.613 . S
S1315 N1317 1.610 . S
N1316 S1315 1.613 . S
N1316 C1319 1.350 . S
N1317 S1315 1.610 . S
N1317 C1318 1.351 . S
C1318 C1312 1.428 . S
C1318 N1317 1.351 . S
C1318 C1319 1.434 . S
C1319 C1310 1.429 . S
C1319 N1316 1.350 . S
C1319 C1318 1.434 . S
C1320 C1321 1.369 . S
C1320 C1322 1.419 1_554 S
C1320 H1324 0.930 . S
C1321 C1320 1.369 . S
C1321 C1330 1.429 . S
C1322 C1320 1.419 1_556 S
C1322 C1323 1.363 . S
C1322 H1325 0.929 . S
C1323 C1322 1.363 . S
C1323 C1329 1.428 . S
H1324 C1320 0.930 . S
H1325 C1322 0.929 . S
S1326 N1327 1.616 1_556 S
S1326 N1328 1.608 . S
N1327 S1326 1.616 1_554 S
N1327 C1330 1.350 . S
N1328 S1326 1.608 . S
N1328 C1329 1.351 . S
C1329 C1323 1.428 . S
C1329 N1328 1.351 . S
C1329 C1330 1.434 1_556 S
C1330 C1321 1.429 . S
C1330 N1327 1.350 . S
C1330 C1329 1.434 1_554 S
C1331 C1332 1.369 . S
C1331 C1333 1.419 1_554 S
C1331 H1335 0.930 . S
C1332 C1331 1.369 . S
C1332 C1341 1.429 . S
C1333 C1331 1.419 1_556 S
C1333 C1334 1.363 . S
C1333 H1336 0.929 . S
C1334 C1333 1.363 . S
C1334 C1340 1.428 . S
H1335 C1331 0.930 . S
H1336 C1333 0.929 . S
S1337 N1338 1.616 1_556 S
S1337 N1339 1.608 . S
N1338 S1337 1.616 1_554 S
N1338 C1341 1.350 . S
N1339 S1337 1.608 . S
N1339 C1340 1.351 . S
C1340 C1334 1.428 . S
C1340 N1339 1.351 . S
C1340 C1341 1.434 1_556 S
C1341 C1332 1.429 . S
C1341 N1338 1.350 . S
C1341 C1340 1.434 1_554 S
C1342 C1343 1.369 . S
C1342 C1344 1.419 1_554 S
C1342 H1346 0.930 . S
C1343 C1342 1.369 . S
C1343 C1352 1.429 . S
C1344 C1342 1.419 1_556 S
C1344 C1345 1.363 . S
C1344 H1347 0.929 . S
C1345 C1344 1.363 . S
C1345 C1351 1.428 . S
H1346 C1342 0.930 . S
H1347 C1344 0.929 . S
S1348 N1349 1.616 1_556 S
S1348 N1350 1.608 . S
N1349 S1348 1.616 1_554 S
N1349 C1352 1.350 . S
N1350 S1348 1.608 . S
N1350 C1351 1.351 . S
C1351 C1345 1.428 . S
C1351 N1350 1.351 . S
C1351 C1352 1.434 1_556 S
C1352 C1343 1.429 . S
C1352 N1349 1.350 . S
C1352 C1351 1.434 1_554 S
C1353 C1354 1.369 . S
C1353 C1355 1.419 1_554 S
C1353 H1357 0.930 . S
C1354 C1353 1.369 . S
C1354 C1363 1.429 . S
C1355 C1353 1.419 1_556 S
C1355 C1356 1.363 . S
C1355 H1358 0.929 . S
C1356 C1355 1.363 . S
C1356 C1362 1.428 . S
H1357 C1353 0.930 . S
H1358 C1355 0.929 . S
S1359 N1360 1.616 1_556 S
S1359 N1361 1.608 . S
N1360 S1359 1.616 1_554 S
N1360 C1363 1.350 . S
N1361 S1359 1.608 . S
N1361 C1362 1.351 . S
C1362 C1356 1.428 . S
C1362 N1361 1.351 . S
C1362 C1363 1.434 1_556 S
C1363 C1354 1.429 . S
C1363 N1360 1.350 . S
C1363 C1362 1.434 1_554 S
C1364 C1365 1.369 . S
C1364 C1366 1.419 1_554 S
C1364 H1368 0.930 . S
C1365 C1364 1.369 . S
C1365 C1374 1.429 . S
C1366 C1364 1.419 1_556 S
C1366 C1367 1.363 . S
C1366 H1369 0.929 . S
C1367 C1366 1.363 . S
C1367 C1373 1.428 . S
H1368 C1364 0.930 . S
H1369 C1366 0.929 . S
S1370 N1371 1.616 1_556 S
S1370 N1372 1.608 . S
N1371 S1370 1.616 1_554 S
N1371 C1374 1.350 . S
N1372 S1370 1.608 . S
N1372 C1373 1.351 . S
C1373 C1367 1.428 . S
C1373 N1372 1.351 . S
C1373 C1374 1.434 1_556 S
C1374 C1365 1.429 . S
C1374 N1371 1.350 . S
C1374 C1373 1.434 1_554 S
C1375 C1376 1.369 . S
C1375 C1377 1.419 1_556 S
C1375 H1379 0.930 . S
C1376 C1375 1.369 . S
C1376 C1385 1.429 . S
C1377 C1375 1.419 1_554 S
C1377 C1378 1.363 . S
C1377 H1380 0.929 . S
C1378 C1377 1.363 . S
C1378 C1384 1.428 . S
H1379 C1375 0.930 . S
H1380 C1377 0.929 . S
S1381 N1382 1.616 1_554 S
S1381 N1383 1.608 . S
N1382 S1381 1.616 1_556 S
N1382 C1385 1.350 . S
N1383 S1381 1.608 . S
N1383 C1384 1.351 . S
C1384 C1378 1.428 . S
C1384 N1383 1.351 . S
C1384 C1385 1.434 1_554 S
C1385 C1376 1.429 . S
C1385 N1382 1.350 . S
C1385 C1384 1.434 1_556 S
C1386 C1387 1.369 . S
C1386 C1388 1.419 . S
C1386 H1390 0.930 . S
C1387 C1386 1.369 . S
C1387 C1396 1.429 . S
C1388 C1386 1.419 . S
C1388 C1389 1.363 . S
C1388 H1391 0.929 . S
C1389 C1388 1.363 . S
C1389 C1395 1.428 . S
H1390 C1386 0.930 . S
H1391 C1388 0.929 . S
S1392 N1393 1.613 . S
S1392 N1394 1.610 . S
N1393 S1392 1.613 . S
N1393 C1396 1.350 . S
N1394 S1392 1.610 . S
N1394 C1395 1.351 . S
C1395 C1389 1.428 . S
C1395 N1394 1.351 . S
C1395 C1396 1.434 . S
C1396 C1387 1.429 . S
C1396 N1393 1.350 . S
C1396 C1395 1.434 . S
C1397 C1398 1.369 . S
C1397 C1399 1.419 . S
C1397 H1401 0.930 . S
C1398 C1397 1.369 . S
C1398 C1407 1.429 . S
C1399 C1397 1.419 . S
C1399 C1400 1.363 . S
C1399 H1402 0.929 . S
C1400 C1399 1.363 . S
C1400 C1406 1.428 . S
H1401 C1397 0.930 . S
H1402 C1399 0.929 . S
S1403 N1404 1.613 . S
S1403 N1405 1.610 . S
N1404 S1403 1.613 . S
N1404 C1407 1.350 . S
N1405 S1403 1.610 . S
N1405 C1406 1.351 . S
C1406 C1400 1.428 . S
C1406 N1405 1.351 . S
C1406 C1407 1.434 . S
C1407 C1398 1.429 . S
C1407 N1404 1.350 . S
C1407 C1406 1.434 . S
C1408 C1409 1.369 . S
C1408 C1410 1.419 . S
C1408 H1412 0.930 . S
C1409 C1408 1.369 . S
C1409 C1418 1.429 . S
C1410 C1408 1.419 . S
C1410 C1411 1.363 . S
C1410 H1413 0.929 . S
C1411 C1410 1.363 . S
C1411 C1417 1.428 . S
H1412 C1408 0.930 . S
H1413 C1410 0.929 . S
S1414 N1415 1.613 . S
S1414 N1416 1.610 . S
N1415 S1414 1.613 . S
N1415 C1418 1.350 . S
N1416 S1414 1.610 . S
N1416 C1417 1.351 . S
C1417 C1411 1.428 . S
C1417 N1416 1.351 . S
C1417 C1418 1.434 . S
C1418 C1409 1.429 . S
C1418 N1415 1.350 . S
C1418 C1417 1.434 . S
C1419 C1420 1.369 . S
C1419 C1421 1.419 . S
C1419 H1423 0.930 . S
C1420 C1419 1.369 . S
C1420 C1429 1.429 . S
C1421 C1419 1.419 . S
C1421 C1422 1.363 . S
C1421 H1424 0.929 . S
C1422 C1421 1.363 . S
C1422 C1428 1.428 . S
H1423 C1419 0.930 . S
H1424 C1421 0.929 . S
S1425 N1426 1.613 . S
S1425 N1427 1.610 . S
N1426 S1425 1.613 . S
N1426 C1429 1.350 . S
N1427 S1425 1.610 . S
N1427 C1428 1.351 . S
C1428 C1422 1.428 . S
C1428 N1427 1.351 . S
C1428 C1429 1.434 . S
C1429 C1420 1.429 . S
C1429 N1426 1.350 . S
C1429 C1428 1.434 . S
C1430 C1431 1.369 . S
C1430 C1432 1.419 . S
C1430 H1434 0.930 . S
C1431 C1430 1.369 . S
C1431 C1440 1.429 . S
C1432 C1430 1.419 . S
C1432 C1433 1.363 . S
C1432 H1435 0.929 . S
C1433 C1432 1.363 . S
C1433 C1439 1.428 . S
H1434 C1430 0.930 . S
H1435 C1432 0.929 . S
S1436 N1437 1.613 . S
S1436 N1438 1.610 . S
N1437 S1436 1.613 . S
N1437 C1440 1.350 . S
N1438 S1436 1.610 . S
N1438 C1439 1.351 . S
C1439 C1433 1.428 . S
C1439 N1438 1.351 . S
C1439 C1440 1.434 . S
C1440 C1431 1.429 . S
C1440 N1437 1.350 . S
C1440 C1439 1.434 . S
C1441 C1442 1.369 . S
C1441 C1443 1.419 . S
C1441 H1445 0.930 . S
C1442 C1441 1.369 . S
C1442 C1451 1.429 . S
C1443 C1441 1.419 . S
C1443 C1444 1.363 . S
C1443 H1446 0.929 . S
C1444 C1443 1.363 . S
C1444 C1450 1.428 . S
H1445 C1441 0.930 . S
H1446 C1443 0.929 . S
S1447 N1448 1.613 . S
S1447 N1449 1.610 . S
N1448 S1447 1.613 . S
N1448 C1451 1.350 . S
N1449 S1447 1.610 . S
N1449 C1450 1.351 . S
C1450 C1444 1.428 . S
C1450 N1449 1.351 . S
C1450 C1451 1.434 . S
C1451 C1442 1.429 . S
C1451 N1448 1.350 . S
C1451 C1450 1.434 . S
C793 N14 0.770 . S
C795 N113 0.752 . S
C804 N146 0.770 . S
C806 N47 0.752 . S
C815 N179 0.763 . S
C817 N80 0.758 . S
C826 N311 0.767 . S
C828 N212 0.755 . S
C837 N245 0.770 . S
C839 N344 0.752 . S
C848 N278 0.755 . S
C850 N377 0.764 . S
C859 N509 0.770 . S
C861 N410 0.752 . S
C870 N542 0.770 . S
C872 N443 0.752 . S
C881 N575 0.752 . S
C883 N476 0.766 . S
C892 N707 0.750 . S
C894 N608 0.767 . S
C903 N641 0.769 . S
C905 N740 0.752 . S
C914 N773 0.764 . S
C916 N674 0.756 . S
C925 N269 1.403 . S
C927 N5 1.400 . S
C936 N38 1.408 . S
C938 N302 1.401 . S
C947 N71 1.405 . S
C949 N335 1.404 . S
C958 N104 1.399 . S
C960 N368 1.403 . S
C969 N137 1.399 . S
C971 N203 1.406 . S
C980 N236 1.398 . S
C982 N170 1.405 . S
C991 N401 1.398 . S
C993 N665 1.403 . S
C1002 N698 1.400 . S
C1004 N434 1.406 . S
C1013 N731 1.402 . S
C1015 N467 1.400 . S
C1024 N500 1.400 . S
C1026 N764 1.401 . S
C1035 N599 1.407 . S
C1037 N533 1.400 . S
C1046 N632 1.407 . S
C1048 N566 1.404 . S
C1057 C8 1.692 . S
C1059 C239 1.691 . S
C1068 C41 1.691 . S
C1070 C272 1.691 . S
C1079 C305 1.689 . S
C1081 C74 1.690 . S
C1090 C107 1.694 . S
C1092 C338 1.693 . S
C1101 C371 1.691 . S
C1103 C140 1.691 . S
C1112 C206 1.694 . S
C1114 C173 1.694 . S
C1123 C404 1.692 . S
C1125 C635 1.693 . S
C1134 C437 1.696 . S
C1136 C668 1.695 . S
C1145 C470 1.695 . S
C1147 C701 1.694 . S
C1156 C503 1.694 . S
C1158 C734 1.695 . S
C1167 C536 1.696 . S
C1169 C767 1.694 . S
C1178 C602 1.693 . S
C1180 C569 1.694 . S
C1189 C28 1.010 . S
C1191 C358 1.008 . S
C1200 C391 0.997 . S
C1202 C61 1.000 . S
C1211 C226 1.001 . S
C1213 C94 1.003 . S
C1222 C259 1.005 . S
C1224 C127 1.003 . S
C1233 C160 1.008 . S
C1235 C292 1.008 . S
C1244 C193 1.003 . S
C1246 C325 1.002 . S
C1255 C424 1.004 . S
C1257 C754 1.005 . S
C1266 C787 1.010 . S
C1268 C457 1.008 . S
C1277 C622 1.011 . S
C1279 C490 1.009 . S
C1288 C523 0.999 . S
C1290 C655 1.000 . S
C1299 C556 1.011 . S
C1301 C688 1.010 . S
C1310 C721 0.996 . S
C1312 C589 0.998 . S
C1321 C17 1.510 . S
C1323 C512 1.510 . S
C1332 C50 1.512 . S
C1334 C545 1.511 . S
C1343 C83 1.511 . S
C1345 C578 1.511 . S
C1354 C116 1.511 . S
C1356 C413 1.511 . S
C1365 C149 1.511 . S
C1367 C446 1.511 . S
C1376 C479 1.509 . S
C1378 C182 1.509 . S
C1387 C215 1.511 . S
C1389 C710 1.511 . S
C1398 C248 1.512 . S
C1400 C743 1.511 . S
C1409 C281 1.511 . S
C1411 C776 1.511 . S
C1420 C314 1.509 . S
C1422 C611 1.510 . S
C1431 C347 1.509 . S
C1433 C644 1.509 . S
C1442 C677 1.511 . S
C1444 C380 1.511 . S
