# Generated by pormake.
# Topology snp, (6)-cn, num edge types: 1
# Building blocks:
#     Node 0, Type 0, BuildingBlock: UKALOJ_clean_sbu_0, # of connection points: 6
#     Node 1, Type 0, BuildingBlock: UKALOJ_clean_sbu_0, # of connection points: 6
#     Node 2, Type 0, BuildingBlock: UKALOJ_clean_sbu_0, # of connection points: 6
#     Node 3, Type 0, BuildingBlock: UKALOJ_clean_sbu_0, # of connection points: 6
#     Edge 4, Type (0, 0), BuildingBlock: AJUNOK_clean_linker_0, # of connection points: 2
#     Edge 5, Type (0, 0), BuildingBlock: AJUNOK_clean_linker_0, # of connection points: 2
#     Edge 6, Type (0, 0), BuildingBlock: AJUNOK_clean_linker_0, # of connection points: 2
#     Edge 7, Type (0, 0), BuildingBlock: AJUNOK_clean_linker_0, # of connection points: 2
#     Edge 8, Type (0, 0), BuildingBlock: AJUNOK_clean_linker_0, # of connection points: 2
#     Edge 9, Type (0, 0), BuildingBlock: AJUNOK_clean_linker_0, # of connection points: 2
#     Edge 10, Type (0, 0), BuildingBlock: AJUNOK_clean_linker_0, # of connection points: 2
#     Edge 11, Type (0, 0), BuildingBlock: AJUNOK_clean_linker_0, # of connection points: 2
#     Edge 12, Type (0, 0), BuildingBlock: AJUNOK_clean_linker_0, # of connection points: 2
#     Edge 13, Type (0, 0), BuildingBlock: AJUNOK_clean_linker_0, # of connection points: 2
#     Edge 14, Type (0, 0), BuildingBlock: AJUNOK_clean_linker_0, # of connection points: 2
#     Edge 15, Type (0, 0), BuildingBlock: AJUNOK_clean_linker_0, # of connection points: 2
# Relax obj value: 1.031
# Max RMSD: 0.251
# Mean RMSD: 0.249
data_MOF--net-snp--node1-UKALOJ_clean_sbu_0--edge1-AJUNOK_clean_linker_0
_symmetry_space_group_name_H-M    P1
_symmetry_Int_Tables_number       1
_symmetry_cell_setting            triclinic
loop_
_symmetry_equiv_pos_as_xyz
'x, y, z'
_cell_length_a     26.303564
_cell_length_b     26.321773
_cell_length_c     15.034016
_cell_angle_alpha  96.36531
_cell_angle_beta   95.642878
_cell_angle_gamma 89.5481
loop_
_atom_site_label
_atom_site_type_symbol
_atom_site_fract_x
_atom_site_fract_y
_atom_site_fract_z
_atom_type_partial_charge
Zn0 Zn 0.29024 0.07583 0.1318 0.0
O1 O 0.286 1.01029 1.01795 0.0
C2 C 0.26305 0.15792 1.00053 0.0
Zn3 Zn 0.21126 0.08782 0.09484 0.0
C4 C 0.24296 1.00036 0.97187 0.0
O5 O 0.20615 0.02973 0.98789 0.0
C6 C 0.24814 0.16204 0.25226 0.0
O7 O 0.1935 0.03307 0.17894 0.0
O8 O 0.27276 0.0176 0.22468 0.0
N9 N 0.1426 0.10246 0.07641 0.0
C10 C 0.09958 0.11222 0.17779 0.0
C11 C 0.03624 0.13101 0.97579 0.0
N12 N 0.10925 0.1129 0.96897 0.0
N13 N 0.02579 0.13203 0.11621 0.0
C14 C 0.40596 0.05616 0.1071 0.0
C15 C 0.44069 0.07988 0.239 0.0
N16 N 0.36796 0.0682 0.15993 0.0
N17 N 0.38974 0.08276 0.24182 0.0
N18 N 0.45217 0.06334 0.15523 0.0
H19 H 0.37859 0.99608 1.0075 0.0
H20 H 0.43273 0.02782 0.97779 0.0
H21 H 0.37081 0.05903 0.97269 0.0
C22 C 0.39702 0.03402 1.01054 0.0
C23 C 0.11714 0.11989 0.27625 0.0
H24 H 0.15243 0.09802 0.29156 0.0
H25 H 0.08655 0.10828 0.31541 0.0
H26 H 0.12456 0.16111 0.29653 0.0
O27 O 0.21113 0.14658 0.19703 0.0
O28 O 0.29054 0.13857 0.24679 0.0
C29 C 0.2251 1.00799 0.2256 0.0
O30 O 0.3029 0.13757 1.0383 0.0
O31 O 0.22019 0.14061 1.0112 0.0
Zn32 Zn 0.06436 0.30738 0.64038 0.0
O33 O 0.12043 0.30933 0.53561 0.0
C34 C 1.00606 0.25182 0.47952 0.0
Zn35 Zn 0.08104 0.23334 0.63261 0.0
C36 C 0.15511 0.27474 0.53683 0.0
O37 O 0.15112 0.24043 0.58746 0.0
C38 C 0.98876 0.25318 0.73404 0.0
O39 O 0.11662 0.23483 0.75839 0.0
O40 O 0.13376 0.31398 0.74673 0.0
N41 N 0.09134 0.16299 0.615 0.0
C42 C 0.06211 0.13147 0.68109 0.0
C43 C 0.07853 0.0794 0.49255 0.0
N44 N 0.0997 0.13752 0.52062 0.0
N45 N 0.04693 0.06133 0.60705 0.0
C46 C 0.05731 0.42036 0.5964 0.0
C47 C 0.04486 0.45986 0.72399 0.0
N48 N 0.05505 0.38494 0.65416 0.0
N49 N 0.04726 0.40957 0.7333 0.0
N50 N 0.05146 0.46779 0.63889 0.0
H51 H 0.1032 0.40403 0.48703 0.0
H52 H 0.04537 0.43855 0.45929 0.0
H53 H 0.04313 0.37098 0.4726 0.0
C54 C 0.06219 0.40791 0.49792 0.0
C55 C 0.06901 0.1412 0.78208 0.0
H56 H 0.10836 0.15394 0.80636 0.0
H57 H 0.06339 0.10498 0.80951 0.0
H58 H 0.04157 0.17004 0.80723 0.0
O59 O 1.00795 0.22056 0.67915 0.0
O60 O 1.0088 0.29795 0.7453 0.0
C61 C 0.14436 0.27321 0.78408 0.0
O62 O 0.99724 0.2928 0.53001 0.0
O63 O 0.04603 0.22766 0.50204 0.0
Zn64 Zn 0.89005 0.04135 1.04778 0.0
O65 O 0.88401 1.00498 0.92201 0.0
C66 C 0.87118 0.13405 0.94912 0.0
Zn67 Zn 0.81625 0.06081 1.04718 0.0
C68 C 0.8435 0.9806 0.89659 0.0
O69 O 0.80394 0.99298 0.93761 0.0
C70 C 0.87636 0.11824 0.20499 0.0
O71 O 0.81505 1.00441 0.15279 0.0
O72 O 0.88184 0.97249 0.09351 0.0
N73 N 0.73999 0.07679 1.04619 0.0
C74 C 0.6993 0.05002 0.06363 0.0
C75 C 0.67295 0.12437 1.0387 0.0
N76 N 0.72344 0.12286 1.03038 0.0
N77 N 0.65672 0.07929 0.06021 0.0
C78 C 0.99052 0.05548 0.98725 0.0
C79 C 0.04357 0.04378 0.1755 0.0
N80 N 0.96012 0.02677 0.05585 0.0
N81 N 0.98622 0.02074 0.14992 0.0
N82 N 0.06049 0.07373 0.05929 0.0
H83 H 0.96478 1.00757 0.86486 0.0
H84 H 1.01632 0.04929 0.857 0.0
H85 H 0.95251 0.07502 0.86167 0.0
C86 C 0.98003 0.04651 0.88651 0.0
C87 C 0.70119 0.99458 0.07783 0.0
H88 H 0.72899 0.97424 1.03586 0.0
H89 H 0.66298 0.97647 0.06116 0.0
H90 H 0.71429 0.99082 0.14919 0.0
O91 O 0.83475 0.12668 0.1576 0.0
O92 O 0.90029 0.0781 0.18036 0.0
C93 C 0.84881 0.9689 0.14721 0.0
O94 O 0.90416 0.11289 0.9992 0.0
O95 O 0.82543 0.11662 0.94299 0.0
Zn96 Zn 0.03534 0.90969 0.57657 0.0
O97 O 0.0879 0.92426 0.48721 0.0
C98 C 0.96054 0.87103 0.42351 0.0
Zn99 Zn 0.04384 0.83001 0.54759 0.0
C100 C 0.11452 0.88996 0.44912 0.0
O101 O 0.10525 0.84332 0.45872 0.0
C102 C 0.96225 0.86343 0.67632 0.0
O103 O 0.10673 0.83473 0.66592 0.0
O104 O 0.09517 0.91705 0.67664 0.0
N105 N 0.05238 0.75256 0.52198 0.0
C106 C 0.04838 0.71429 0.57349 0.0
C107 C 0.06661 0.68058 0.44507 0.0
N108 N 0.0637 0.73153 0.44221 0.0
N109 N 0.05706 0.66866 0.52671 0.0
C110 C 1.0127 0.01995 0.48712 0.0
C111 C 0.98659 0.08437 0.68634 0.0
N112 N 0.02092 0.97817 0.58961 0.0
N113 N 1.00679 1.01236 0.69523 0.0
N114 N 0.98889 0.09376 0.54679 0.0
H115 H 0.96383 0.99439 0.36932 0.0
H116 H 0.02582 0.96438 0.37487 0.0
H117 H 0.01803 0.03006 0.34906 0.0
C118 C 1.00517 1.00068 0.3892 0.0
C119 C 0.03839 0.72211 0.67045 0.0
H120 H 0.05837 0.69271 0.70831 0.0
H121 H 0.99676 0.7187 0.67518 0.0
H122 H 0.05091 0.7607 0.70141 0.0
O123 O 0.97835 0.8218 0.63583 0.0
O124 O 0.98447 0.90425 0.66767 0.0
C125 C 0.12064 0.87962 0.70172 0.0
O126 O 0.97517 0.90819 0.47937 0.0
O127 O 0.98418 0.82873 0.42867 0.0
C128 C 0.06189 0.20465 0.11956 0.0
C129 C 0.09093 0.16114 0.07741 0.0
C130 C 1.01458 0.16517 0.13675 0.0
C131 C 0.99385 0.10065 0.11814 0.0
H132 H 0.09348 0.1869 0.08767 0.0
H133 H 0.98478 0.19386 0.16826 0.0
S134 S 0.08287 0.96876 0.93422 0.0
N135 N 0.10892 0.02451 0.978 0.0
N136 N 0.02979 0.96076 0.97973 0.0
C137 C 0.03964 0.99955 1.0466 0.0
C138 C 0.07545 0.05753 1.03964 0.0
C139 C 0.95598 0.1036 0.5238 0.0
C140 C 0.01931 0.12726 0.54867 0.0
C141 C 0.91744 0.05466 0.53733 0.0
C142 C 0.96071 0.02789 0.5837 0.0
H143 H 0.92712 0.13214 0.49023 0.0
H144 H 0.9352 0.02431 0.57164 0.0
S145 S 0.15009 0.04295 0.7365 0.0
N146 N 0.15816 0.09542 0.69027 0.0
N147 N 0.09576 1.01493 0.69077 0.0
C148 C 0.06326 0.04678 0.62697 0.0
C149 C 0.12056 0.08419 0.62252 0.0
C150 C 0.56367 0.08615 1.02525 0.0
C151 C 0.60546 0.06915 0.07987 0.0
C152 C 0.51355 0.08296 0.04863 0.0
C153 C 0.50305 0.06145 0.12653 0.0
H154 H 0.5701 0.10362 0.96539 0.0
H155 H 0.48315 0.09956 1.00745 0.0
S156 S 0.59922 1.01615 0.29705 0.0
N157 N 0.63331 0.03472 0.21989 0.0
N158 N 0.53892 0.02532 0.26058 0.0
C159 C 0.54455 0.04446 0.18182 0.0
C160 C 0.59571 0.04882 0.1591 0.0
C161 C 1.01384 0.5528 0.62499 0.0
C162 C 0.05237 0.51705 0.60594 0.0
C163 C 1.0154 0.60228 0.59889 0.0
C164 C 0.05599 0.61794 0.55398 0.0
H165 H 0.98219 0.54222 0.66014 0.0
H166 H 0.98439 0.62823 0.61308 0.0
S167 S 0.1681 0.54006 0.49386 0.0
N168 N 0.13354 0.50158 0.54363 0.0
N169 N 0.13612 0.59432 0.49335 0.0
C170 C 0.09477 0.58258 0.53466 0.0
C171 C 0.09319 0.53225 0.56127 0.0
C172 C 0.23348 0.23076 0.48425 0.0
C173 C 0.19152 0.26363 0.46699 0.0
C174 C 0.25623 0.20165 0.41411 0.0
C175 C 0.23762 0.20399 0.32389 0.0
H176 H 0.24579 0.22385 0.55278 0.0
H177 H 0.28503 0.17374 0.4311 0.0
S178 S 0.13471 0.29041 0.24278 0.0
N179 N 0.13786 0.30202 0.35311 0.0
N180 N 0.17895 0.24707 0.2215 0.0
C181 C 0.19932 0.24067 0.30602 0.0
C182 C 0.17685 0.2707 0.37738 0.0
C183 C 0.95711 0.23872 0.88395 0.0
C184 C 0.94894 0.23452 0.78935 0.0
C185 C 0.92875 0.20904 0.93522 0.0
C186 C 0.88999 0.17427 0.89515 0.0
H187 H 0.98833 0.26208 0.91829 0.0
H188 H 0.93913 0.21147 1.00706 0.0
S189 S 0.85064 0.15151 0.65046 0.0
N190 N 0.89707 0.1942 0.65827 0.0
N191 N 0.84362 0.14002 0.75438 0.0
C192 C 0.87941 0.17204 0.80124 0.0
C193 C 0.90888 0.20153 0.74876 0.0
C194 C 0.88405 0.92127 0.37205 0.0
C195 C 0.91946 0.88182 0.35189 0.0
C196 C 0.85484 0.94498 0.30479 0.0
C197 C 0.86046 0.93096 0.21367 0.0
H198 H 0.88257 0.93772 0.44059 0.0
H199 H 0.83231 0.97818 0.32481 0.0
S200 S 0.94383 0.82644 0.12315 0.0
N201 N 0.9547 0.827 0.23331 0.0
N202 N 0.90022 0.87076 0.10636 0.0
C203 C 0.8922 0.88828 0.19225 0.0
C204 C 0.92171 0.86402 0.26119 0.0
C205 C 0.20186 0.92926 0.74459 0.0
C206 C 0.1676 0.8923 0.76594 0.0
C207 C 0.23313 0.95974 0.81171 0.0
C208 C 0.23186 0.95453 0.90352 0.0
H209 H 0.20059 0.9385 0.67593 0.0
H210 H 0.25415 0.99122 0.79203 0.0
S211 S 0.16015 0.85372 0.99345 0.0
N212 N 0.14248 0.84548 0.8843 0.0
N213 N 0.20112 0.90198 1.01012 0.0
C214 C 0.20309 0.91303 0.92448 0.0
C215 C 0.17115 0.88202 0.85594 0.0
C216 C 0.88352 0.89542 0.86933 0.0
C217 C 0.85002 0.93275 0.83564 0.0
C218 C 0.9152 0.86511 0.81394 0.0
C219 C 0.91406 0.87012 0.7217 0.0
H220 H 0.89044 0.89456 0.94117 0.0
H221 H 0.94489 0.84247 0.84558 0.0
S222 S 0.8281 0.95668 0.59764 0.0
N223 N 0.81437 0.96877 0.70261 0.0
N224 N 0.87146 0.91089 0.59776 0.0
C225 C 0.87616 0.90272 0.68572 0.0
C226 C 0.8448 0.9342 0.74254 0.0
C227 C 0.22313 0.96228 0.36694 0.0
C228 C 0.20388 0.96852 0.27787 0.0
C229 C 0.19644 0.93272 0.42101 0.0
C230 C 0.15067 0.90643 0.38708 0.0
H231 H 0.25692 0.98323 0.39713 0.0
H232 H 0.21026 0.93262 0.49128 0.0
S233 S 0.08492 0.90786 0.15918 0.0
N234 N 0.13569 0.94448 0.15924 0.0
N235 N 0.08842 0.88763 0.25932 0.0
C236 C 0.13275 0.91019 0.29748 0.0
C237 C 0.15859 0.94134 0.24341 0.0
C238 C 0.22243 0.21972 0.7974 0.0
C239 C 0.19446 0.26181 0.83417 0.0
C240 C 0.25498 0.19043 0.85185 0.0
C241 C 0.26152 0.202 0.9458 0.0
H242 H 0.21436 0.20546 0.72703 0.0
H243 H 0.26938 0.15462 0.8214 0.0
S244 S 0.20892 0.31667 0.0721 0.0
N245 N 0.18367 0.31927 0.96775 0.0
N246 N 0.24565 0.26533 0.07029 0.0
C247 C 0.23983 0.24842 0.98127 0.0
C248 C 0.20603 0.27793 0.9257 0.0
C249 C 0.95378 0.14261 0.30989 0.0
C250 C 0.90381 0.15568 0.27797 0.0
C251 C 0.98615 0.17656 0.36604 0.0
C252 C 0.96976 0.2244 0.40479 0.0
H253 H 0.96959 0.10558 0.28969 0.0
H254 H 0.02458 0.16327 0.382 0.0
S255 S 0.84085 0.27823 0.35043 0.0
N256 N 0.83914 0.22215 0.28832 0.0
N257 N 0.8981 0.28334 0.40722 0.0
C258 C 0.91906 0.23829 0.37682 0.0
C259 C 0.88657 0.20451 0.31199 0.0
loop_
_geom_bond_atom_site_label_1
_geom_bond_atom_site_label_2
_geom_bond_distance
_geom_bond_site_symmetry_2
_ccdc_geom_bond_type
Zn0 O1 2.055 1_544 S
Zn0 O8 2.046 1_545 S
Zn0 N16 2.036 . S
Zn0 O28 2.053 . S
Zn0 O30 2.063 1_554 S
O1 Zn0 2.055 1_566 S
O1 C4 1.259 . S
C2 O30 1.258 . S
C2 O31 1.244 . S
Zn3 O5 2.046 1_544 S
Zn3 O7 2.055 1_545 S
Zn3 N9 2.036 . S
Zn3 O27 2.066 . S
Zn3 O31 2.053 1_554 S
C4 O1 1.259 . S
C4 O5 1.254 . S
O5 Zn3 2.046 1_566 S
O5 C4 1.254 . S
C6 O27 1.256 . S
C6 O28 1.244 . S
O7 Zn3 2.055 1_565 S
O7 C29 1.259 . S
O8 Zn0 2.046 1_565 S
O8 C29 1.254 . S
N9 Zn3 2.036 . S
N9 C10 1.298 . S
N9 N12 1.398 1_554 S
C10 N9 1.298 . S
C10 N13 1.367 . S
C10 C23 1.481 . S
C11 N12 1.299 . S
C11 N13 1.379 1_556 S
N12 N9 1.398 1_556 S
N12 C11 1.299 . S
N13 C10 1.367 . S
N13 C11 1.379 1_554 S
C14 N16 1.298 . S
C14 N18 1.367 . S
C14 C22 1.481 1_554 S
C15 N17 1.299 . S
C15 N18 1.379 . S
N16 Zn0 2.036 . S
N16 C14 1.298 . S
N16 N17 1.398 . S
N17 C15 1.299 . S
N17 N16 1.398 . S
N18 C14 1.367 . S
N18 C15 1.379 . S
H19 C22 0.980 . S
H20 C22 0.981 . S
H21 C22 0.981 . S
C22 C14 1.481 1_556 S
C22 H19 0.980 . S
C22 H20 0.981 . S
C22 H21 0.981 . S
C23 C10 1.481 . S
C23 H24 0.980 . S
C23 H25 0.981 . S
C23 H26 0.981 . S
H24 C23 0.980 . S
H25 C23 0.981 . S
H26 C23 0.981 . S
O27 Zn3 2.066 . S
O27 C6 1.256 . S
O28 Zn0 2.053 . S
O28 C6 1.244 . S
C29 O7 1.259 . S
C29 O8 1.254 . S
O30 Zn0 2.063 1_556 S
O30 C2 1.258 . S
O31 C2 1.244 . S
O31 Zn3 2.053 1_556 S
Zn32 O33 2.055 . S
Zn32 O40 2.046 . S
Zn32 N48 2.036 . S
Zn32 O60 2.053 1_455 S
Zn32 O62 2.066 1_455 S
O33 Zn32 2.055 . S
O33 C36 1.259 . S
C34 O62 1.256 . S
C34 O63 1.244 . S
Zn35 O37 2.046 . S
Zn35 O39 2.055 . S
Zn35 N41 2.036 . S
Zn35 O59 2.066 1_455 S
Zn35 O63 2.053 1_455 S
C36 O33 1.259 . S
C36 O37 1.254 . S
O37 Zn35 2.046 . S
O37 C36 1.254 . S
C38 O59 1.256 . S
C38 O60 1.244 . S
O39 Zn35 2.055 . S
O39 C61 1.259 . S
O40 Zn32 2.046 . S
O40 C61 1.254 . S
N41 Zn35 2.036 . S
N41 C42 1.298 . S
N41 N44 1.398 . S
C42 N41 1.298 . S
C42 N45 1.367 . S
C42 C55 1.481 . S
C43 N44 1.299 . S
C43 N45 1.379 . S
N44 N41 1.398 . S
N44 C43 1.299 . S
N45 C42 1.367 . S
N45 C43 1.379 . S
C46 N48 1.298 . S
C46 N50 1.367 . S
C46 C54 1.481 . S
C47 N49 1.299 . S
C47 N50 1.379 . S
N48 Zn32 2.036 . S
N48 C46 1.298 . S
N48 N49 1.398 . S
N49 C47 1.299 . S
N49 N48 1.398 . S
N50 C46 1.367 . S
N50 C47 1.379 . S
H51 C54 0.980 . S
H52 C54 0.981 . S
H53 C54 0.981 . S
C54 C46 1.481 . S
C54 H51 0.980 . S
C54 H52 0.981 . S
C54 H53 0.981 . S
C55 C42 1.481 . S
C55 H56 0.980 . S
C55 H57 0.981 . S
C55 H58 0.981 . S
H56 C55 0.980 . S
H57 C55 0.981 . S
H58 C55 0.981 . S
O59 Zn35 2.066 1_655 S
O59 C38 1.256 . S
O60 Zn32 2.053 1_655 S
O60 C38 1.244 . S
C61 O39 1.259 . S
C61 O40 1.254 . S
O62 Zn32 2.066 1_655 S
O62 C34 1.256 . S
O63 C34 1.244 . S
O63 Zn35 2.053 1_655 S
Zn64 O65 2.055 1_544 S
Zn64 O72 2.046 1_545 S
Zn64 N80 2.036 . S
Zn64 O92 2.053 . S
Zn64 O94 2.066 1_554 S
O65 Zn64 2.055 1_566 S
O65 C68 1.259 . S
C66 O94 1.256 . S
C66 O95 1.244 . S
Zn67 O69 2.046 1_545 S
Zn67 O71 2.055 1_546 S
Zn67 N73 2.036 . S
Zn67 O91 2.066 1_556 S
Zn67 O95 2.053 . S
C68 O65 1.259 . S
C68 O69 1.254 . S
O69 Zn67 2.046 1_565 S
O69 C68 1.254 . S
C70 O91 1.256 . S
C70 O92 1.244 . S
O71 Zn67 2.055 1_564 S
O71 C93 1.259 . S
O72 Zn64 2.046 1_565 S
O72 C93 1.254 . S
N73 Zn67 2.036 . S
N73 C74 1.298 1_556 S
N73 N76 1.398 . S
C74 N73 1.298 1_554 S
C74 N77 1.367 1_554 S
C74 C87 1.481 . S
C75 N76 1.299 . S
C75 N77 1.379 . S
N76 N73 1.398 . S
N76 C75 1.299 . S
N77 C74 1.367 1_556 S
N77 C75 1.379 . S
C78 N80 1.296 1_456 S
C78 N82 1.369 1_556 S
C78 C86 1.481 1_455 S
C79 N81 1.299 1_455 S
C79 N82 1.379 . S
N80 Zn64 2.036 . S
N80 C78 1.296 1_654 S
N80 N81 1.398 . S
N81 C79 1.299 1_655 S
N81 N80 1.398 . S
N82 C78 1.369 1_554 S
N82 C79 1.379 . S
H83 C86 0.980 . S
H84 C86 0.981 1_455 S
H85 C86 0.981 . S
C86 C78 1.481 1_655 S
C86 H83 0.980 . S
C86 H84 0.981 1_655 S
C86 H85 0.981 . S
C87 C74 1.481 . S
C87 H88 0.980 . S
C87 H89 0.981 . S
C87 H90 0.981 . S
H88 C87 0.980 . S
H89 C87 0.981 . S
H90 C87 0.981 . S
O91 Zn67 2.066 1_554 S
O91 C70 1.256 . S
O92 Zn64 2.053 . S
O92 C70 1.244 . S
C93 O71 1.259 . S
C93 O72 1.254 . S
O94 Zn64 2.066 1_556 S
O94 C66 1.256 . S
O95 C66 1.244 . S
O95 Zn67 2.053 . S
Zn96 O97 2.055 . S
Zn96 O104 2.046 . S
Zn96 N112 2.036 . S
Zn96 O124 2.053 1_455 S
Zn96 O126 2.066 1_455 S
O97 Zn96 2.055 . S
O97 C100 1.259 . S
C98 O126 1.256 . S
C98 O127 1.244 . S
Zn99 O101 2.046 . S
Zn99 O103 2.055 . S
Zn99 N105 2.036 . S
Zn99 O123 2.066 1_455 S
Zn99 O127 2.053 1_455 S
C100 O97 1.259 . S
C100 O101 1.254 . S
O101 Zn99 2.046 . S
O101 C100 1.254 . S
C102 O123 1.256 . S
C102 O124 1.244 . S
O103 Zn99 2.055 . S
O103 C125 1.259 . S
O104 Zn96 2.046 . S
O104 C125 1.254 . S
N105 Zn99 2.036 . S
N105 C106 1.298 . S
N105 N108 1.398 . S
C106 N105 1.298 . S
C106 N109 1.367 . S
C106 C119 1.481 . S
C107 N108 1.299 . S
C107 N109 1.379 . S
N108 N105 1.398 . S
N108 C107 1.299 . S
N109 C106 1.367 . S
N109 C107 1.379 . S
C110 N112 1.298 1_545 S
C110 N114 1.367 . S
C110 C118 1.481 . S
C111 N113 1.301 . S
C111 N114 1.383 . S
N112 Zn96 2.036 . S
N112 C110 1.298 1_565 S
N112 N113 1.398 1_565 S
N113 C111 1.301 . S
N113 N112 1.398 1_545 S
N114 C110 1.367 . S
N114 C111 1.383 . S
H115 C118 0.980 1_565 S
H116 C118 0.981 . S
H117 C118 0.981 . S
C118 C110 1.481 . S
C118 H115 0.980 1_545 S
C118 H116 0.981 . S
C118 H117 0.981 . S
C119 C106 1.481 . S
C119 H120 0.980 . S
C119 H121 0.981 . S
C119 H122 0.981 . S
H120 C119 0.980 . S
H121 C119 0.981 . S
H122 C119 0.981 . S
O123 Zn99 2.066 1_655 S
O123 C102 1.256 . S
O124 Zn96 2.053 1_655 S
O124 C102 1.244 . S
C125 O103 1.259 . S
C125 O104 1.254 . S
O126 Zn96 2.066 1_655 S
O126 C98 1.256 . S
O127 C98 1.244 . S
O127 Zn99 2.053 1_655 S
C128 C129 1.369 1_554 S
C128 C130 1.419 . S
C128 H132 0.930 . S
C129 C128 1.369 1_556 S
C129 C138 1.429 . S
C130 C128 1.419 . S
C130 C131 1.363 1_455 S
C130 H133 0.929 . S
C131 C130 1.363 1_655 S
C131 C137 1.428 . S
H132 C128 0.930 . S
H133 C130 0.929 . S
S134 N135 1.613 1_655 S
S134 N136 1.610 1_556 S
N135 S134 1.613 1_455 S
N135 C138 1.350 1_565 S
N136 S134 1.610 1_554 S
N136 C137 1.351 1_565 S
C137 C131 1.428 . S
C137 N136 1.351 1_545 S
C137 C138 1.434 1_654 S
C138 C129 1.429 . S
C138 N135 1.350 1_545 S
C138 C137 1.434 1_456 S
C139 C140 1.369 1_655 S
C139 C141 1.419 . S
C139 H143 0.930 . S
C140 C139 1.369 1_455 S
C140 C149 1.429 . S
C141 C139 1.419 . S
C141 C142 1.363 1_655 S
C141 H144 0.929 1_545 S
C142 C141 1.363 1_455 S
C142 C148 1.428 . S
H143 C139 0.930 . S
H144 C141 0.929 1_565 S
S145 N146 1.613 . S
S145 N147 1.610 . S
N146 S145 1.613 . S
N146 C149 1.350 . S
N147 S145 1.610 . S
N147 C148 1.351 . S
C148 C142 1.428 . S
C148 N147 1.351 . S
C148 C149 1.434 . S
C149 C140 1.429 . S
C149 N146 1.350 . S
C149 C148 1.434 . S
C150 C151 1.369 1_556 S
C150 C152 1.419 . S
C150 H154 0.930 . S
C151 C150 1.369 1_554 S
C151 C160 1.429 . S
C152 C150 1.419 . S
C152 C153 1.363 1_556 S
C152 H155 0.929 . S
C153 C152 1.363 1_554 S
C153 C159 1.428 . S
H154 C150 0.930 . S
H155 C152 0.929 . S
S156 N157 1.613 . S
S156 N158 1.610 . S
N157 S156 1.613 . S
N157 C160 1.350 . S
N158 S156 1.610 . S
N158 C159 1.351 . S
C159 C153 1.428 . S
C159 N158 1.351 . S
C159 C160 1.434 . S
C160 C151 1.429 . S
C160 N157 1.350 . S
C160 C159 1.434 . S
C161 C162 1.369 1_655 S
C161 C163 1.419 . S
C161 H165 0.930 . S
C162 C161 1.369 1_455 S
C162 C171 1.429 . S
C163 C161 1.419 . S
C163 C164 1.363 1_655 S
C163 H166 0.929 . S
C164 C163 1.363 1_455 S
C164 C170 1.428 . S
H165 C161 0.930 . S
H166 C163 0.929 . S
S167 N168 1.613 . S
S167 N169 1.610 . S
N168 S167 1.613 . S
N168 C171 1.350 . S
N169 S167 1.610 . S
N169 C170 1.351 . S
C170 C164 1.428 . S
C170 N169 1.351 . S
C170 C171 1.434 . S
C171 C162 1.429 . S
C171 N168 1.350 . S
C171 C170 1.434 . S
C172 C173 1.369 . S
C172 C174 1.419 . S
C172 H176 0.930 . S
C173 C172 1.369 . S
C173 C182 1.429 . S
C174 C172 1.419 . S
C174 C175 1.363 . S
C174 H177 0.929 . S
C175 C174 1.363 . S
C175 C181 1.428 . S
H176 C172 0.930 . S
H177 C174 0.929 . S
S178 N179 1.613 . S
S178 N180 1.610 . S
N179 S178 1.613 . S
N179 C182 1.350 . S
N180 S178 1.610 . S
N180 C181 1.351 . S
C181 C175 1.428 . S
C181 N180 1.351 . S
C181 C182 1.434 . S
C182 C173 1.429 . S
C182 N179 1.350 . S
C182 C181 1.434 . S
C183 C184 1.369 . S
C183 C185 1.419 . S
C183 H187 0.930 . S
C184 C183 1.369 . S
C184 C193 1.429 . S
C185 C183 1.419 . S
C185 C186 1.363 . S
C185 H188 0.929 . S
C186 C185 1.363 . S
C186 C192 1.428 . S
H187 C183 0.930 . S
H188 C185 0.929 . S
S189 N190 1.613 . S
S189 N191 1.610 . S
N190 S189 1.613 . S
N190 C193 1.350 . S
N191 S189 1.610 . S
N191 C192 1.351 . S
C192 C186 1.428 . S
C192 N191 1.351 . S
C192 C193 1.434 . S
C193 C184 1.429 . S
C193 N190 1.350 . S
C193 C192 1.434 . S
C194 C195 1.369 . S
C194 C196 1.419 . S
C194 H198 0.930 . S
C195 C194 1.369 . S
C195 C204 1.429 . S
C196 C194 1.419 . S
C196 C197 1.363 . S
C196 H199 0.929 . S
C197 C196 1.363 . S
C197 C203 1.428 . S
H198 C194 0.930 . S
H199 C196 0.929 . S
S200 N201 1.613 . S
S200 N202 1.610 . S
N201 S200 1.613 . S
N201 C204 1.350 . S
N202 S200 1.610 . S
N202 C203 1.351 . S
C203 C197 1.428 . S
C203 N202 1.351 . S
C203 C204 1.434 . S
C204 C195 1.429 . S
C204 N201 1.350 . S
C204 C203 1.434 . S
C205 C206 1.369 . S
C205 C207 1.419 . S
C205 H209 0.930 . S
C206 C205 1.369 . S
C206 C215 1.429 . S
C207 C205 1.419 . S
C207 C208 1.363 . S
C207 H210 0.929 . S
C208 C207 1.363 . S
C208 C214 1.428 . S
H209 C205 0.930 . S
H210 C207 0.929 . S
S211 N212 1.613 . S
S211 N213 1.610 . S
N212 S211 1.613 . S
N212 C215 1.350 . S
N213 S211 1.610 . S
N213 C214 1.351 . S
C214 C208 1.428 . S
C214 N213 1.351 . S
C214 C215 1.434 . S
C215 C206 1.429 . S
C215 N212 1.350 . S
C215 C214 1.434 . S
C216 C217 1.369 . S
C216 C218 1.419 . S
C216 H220 0.930 . S
C217 C216 1.369 . S
C217 C226 1.429 . S
C218 C216 1.419 . S
C218 C219 1.363 . S
C218 H221 0.929 . S
C219 C218 1.363 . S
C219 C225 1.428 . S
H220 C216 0.930 . S
H221 C218 0.929 . S
S222 N223 1.613 . S
S222 N224 1.610 . S
N223 S222 1.613 . S
N223 C226 1.350 . S
N224 S222 1.610 . S
N224 C225 1.351 . S
C225 C219 1.428 . S
C225 N224 1.351 . S
C225 C226 1.434 . S
C226 C217 1.429 . S
C226 N223 1.350 . S
C226 C225 1.434 . S
C227 C228 1.369 . S
C227 C229 1.419 . S
C227 H231 0.930 . S
C228 C227 1.369 . S
C228 C237 1.429 . S
C229 C227 1.419 . S
C229 C230 1.363 . S
C229 H232 0.929 . S
C230 C229 1.363 . S
C230 C236 1.428 . S
H231 C227 0.930 . S
H232 C229 0.929 . S
S233 N234 1.613 . S
S233 N235 1.610 . S
N234 S233 1.613 . S
N234 C237 1.350 . S
N235 S233 1.610 . S
N235 C236 1.351 . S
C236 C230 1.428 . S
C236 N235 1.351 . S
C236 C237 1.434 . S
C237 C228 1.429 . S
C237 N234 1.350 . S
C237 C236 1.434 . S
C238 C239 1.369 . S
C238 C240 1.419 . S
C238 H242 0.930 . S
C239 C238 1.369 . S
C239 C248 1.429 . S
C240 C238 1.419 . S
C240 C241 1.363 . S
C240 H243 0.929 . S
C241 C240 1.363 . S
C241 C247 1.428 . S
H242 C238 0.930 . S
H243 C240 0.929 . S
S244 N245 1.613 . S
S244 N246 1.610 . S
N245 S244 1.613 . S
N245 C248 1.350 . S
N246 S244 1.610 . S
N246 C247 1.351 . S
C247 C241 1.428 . S
C247 N246 1.351 . S
C247 C248 1.434 . S
C248 C239 1.429 . S
C248 N245 1.350 . S
C248 C247 1.434 . S
C249 C250 1.369 . S
C249 C251 1.419 . S
C249 H253 0.930 . S
C250 C249 1.369 . S
C250 C259 1.429 . S
C251 C249 1.419 . S
C251 C252 1.363 . S
C251 H254 0.929 . S
C252 C251 1.363 . S
C252 C258 1.428 . S
H253 C249 0.930 . S
H254 C251 0.929 . S
S255 N256 1.613 . S
S255 N257 1.610 . S
N256 S255 1.613 . S
N256 C259 1.350 . S
N257 S255 1.610 . S
N257 C258 1.351 . S
C258 C252 1.428 . S
C258 N257 1.351 . S
C258 C259 1.434 . S
C259 C250 1.429 . S
C259 N256 1.350 . S
C259 C258 1.434 . S
C129 N82 1.079 1_556 S
C131 N13 1.082 1_655 S
C140 N114 1.082 . S
C142 N45 1.078 . S
C151 N77 1.225 1_554 S
C153 N18 1.218 . S
C162 N50 1.221 . S
C164 N109 1.219 . S
C173 C36 1.927 . S
C175 C6 1.926 . S
C184 C38 2.213 . S
C186 C66 2.213 . S
C195 C98 1.927 . S
C197 C93 1.922 . S
C206 C125 1.674 . S
C208 C4 1.667 . S
C217 C68 2.044 . S
C219 C102 2.061 . S
C228 C29 2.114 . S
C230 C100 2.115 . S
C239 C61 2.043 . S
C241 C2 2.059 . S
C250 C70 1.989 . S
C252 C34 1.992 . S
