# Generated by pormake.
# Topology umj, (4)-cn, num edge types: 1
# Building blocks:
#     Node 0, Type 0, BuildingBlock: KOZSID_clean_sbu_0, # of connection points: 4
#     Node 1, Type 0, BuildingBlock: KOZSID_clean_sbu_0, # of connection points: 4
#     Node 2, Type 0, BuildingBlock: KOZSID_clean_sbu_0, # of connection points: 4
#     Node 3, Type 0, BuildingBlock: KOZSID_clean_sbu_0, # of connection points: 4
#     Node 4, Type 0, BuildingBlock: KOZSID_clean_sbu_0, # of connection points: 4
#     Node 5, Type 0, BuildingBlock: KOZSID_clean_sbu_0, # of connection points: 4
#     Node 6, Type 0, BuildingBlock: KOZSID_clean_sbu_0, # of connection points: 4
#     Node 7, Type 0, BuildingBlock: KOZSID_clean_sbu_0, # of connection points: 4
#     Node 8, Type 0, BuildingBlock: KOZSID_clean_sbu_0, # of connection points: 4
#     Node 9, Type 0, BuildingBlock: KOZSID_clean_sbu_0, # of connection points: 4
#     Node 10, Type 0, BuildingBlock: KOZSID_clean_sbu_0, # of connection points: 4
#     Node 11, Type 0, BuildingBlock: KOZSID_clean_sbu_0, # of connection points: 4
#     Edge 12, Type (0, 0), BuildingBlock: CIFDUS_clean_linker_0, # of connection points: 2
#     Edge 13, Type (0, 0), BuildingBlock: CIFDUS_clean_linker_0, # of connection points: 2
#     Edge 14, Type (0, 0), BuildingBlock: CIFDUS_clean_linker_0, # of connection points: 2
#     Edge 15, Type (0, 0), BuildingBlock: CIFDUS_clean_linker_0, # of connection points: 2
#     Edge 16, Type (0, 0), BuildingBlock: CIFDUS_clean_linker_0, # of connection points: 2
#     Edge 17, Type (0, 0), BuildingBlock: CIFDUS_clean_linker_0, # of connection points: 2
#     Edge 18, Type (0, 0), BuildingBlock: CIFDUS_clean_linker_0, # of connection points: 2
#     Edge 19, Type (0, 0), BuildingBlock: CIFDUS_clean_linker_0, # of connection points: 2
#     Edge 20, Type (0, 0), BuildingBlock: CIFDUS_clean_linker_0, # of connection points: 2
#     Edge 21, Type (0, 0), BuildingBlock: CIFDUS_clean_linker_0, # of connection points: 2
#     Edge 22, Type (0, 0), BuildingBlock: CIFDUS_clean_linker_0, # of connection points: 2
#     Edge 23, Type (0, 0), BuildingBlock: CIFDUS_clean_linker_0, # of connection points: 2
#     Edge 24, Type (0, 0), BuildingBlock: CIFDUS_clean_linker_0, # of connection points: 2
#     Edge 25, Type (0, 0), BuildingBlock: CIFDUS_clean_linker_0, # of connection points: 2
#     Edge 26, Type (0, 0), BuildingBlock: CIFDUS_clean_linker_0, # of connection points: 2
#     Edge 27, Type (0, 0), BuildingBlock: CIFDUS_clean_linker_0, # of connection points: 2
#     Edge 28, Type (0, 0), BuildingBlock: CIFDUS_clean_linker_0, # of connection points: 2
#     Edge 29, Type (0, 0), BuildingBlock: CIFDUS_clean_linker_0, # of connection points: 2
#     Edge 30, Type (0, 0), BuildingBlock: CIFDUS_clean_linker_0, # of connection points: 2
#     Edge 31, Type (0, 0), BuildingBlock: CIFDUS_clean_linker_0, # of connection points: 2
#     Edge 32, Type (0, 0), BuildingBlock: CIFDUS_clean_linker_0, # of connection points: 2
#     Edge 33, Type (0, 0), BuildingBlock: CIFDUS_clean_linker_0, # of connection points: 2
#     Edge 34, Type (0, 0), BuildingBlock: CIFDUS_clean_linker_0, # of connection points: 2
#     Edge 35, Type (0, 0), BuildingBlock: CIFDUS_clean_linker_0, # of connection points: 2
# Relax obj value: 0.053
# Max RMSD: 0.161
# Mean RMSD: 0.161
data_MOF--net-umj--node1-KOZSID_clean_sbu_0--edge1-CIFDUS_clean_linker_0
_symmetry_space_group_name_H-M    P1
_symmetry_Int_Tables_number       1
_symmetry_cell_setting            triclinic
loop_
_symmetry_equiv_pos_as_xyz
'x, y, z'
_cell_length_a     35.19392
_cell_length_b     35.314288
_cell_length_c     83.310242
_cell_angle_alpha  90.033391
_cell_angle_beta   89.978
_cell_angle_gamma 120.09283
loop_
_atom_site_label
_atom_site_type_symbol
_atom_site_fract_x
_atom_site_fract_y
_atom_site_fract_z
_atom_type_partial_charge
C0 C 0.04408 0.26664 0.04531 0.0
C1 C 1.01239 0.25754 0.0337 0.0
C2 C 0.97631 0.25385 0.04156 0.0
C3 C 0.9879 0.26097 0.0575 0.0
N4 N 0.02888 0.2687 0.06014 0.0
Co5 Co 0.05849 0.281 0.08138 0.0
N6 N 1.00241 0.25783 0.09337 0.0
C7 C 0.96429 0.25134 0.08713 0.0
C8 C 0.93112 0.23635 0.09828 0.0
C9 C 0.94974 0.23391 0.11244 0.0
C10 C 0.99349 0.24782 0.10918 0.0
N11 N 0.08911 0.29302 0.10244 0.0
C12 C 0.07306 0.27889 0.11739 0.0
C13 C 0.10661 0.29705 0.12875 0.0
C14 C 0.14454 0.32359 0.12067 0.0
C15 C 0.13233 0.32037 0.10491 0.0
N16 N 0.11489 0.30501 0.06952 0.0
C17 C 0.15525 0.33117 0.07563 0.0
C18 C 0.18839 0.341 0.06488 0.0
C19 C 0.16775 0.3199 0.05108 0.0
C20 C 0.12284 0.29869 0.05413 0.0
N21 N 0.06301 0.33995 0.08175 0.0
C22 C 0.04698 0.412 0.08225 0.0
C23 C 0.04894 0.39119 0.0964 0.0
C24 C 0.05627 0.35557 0.09589 0.0
C25 C 0.05714 0.39768 0.06788 0.0
C26 C 0.0656 0.36234 0.06792 0.0
N27 N 0.05111 0.22125 0.08104 0.0
C28 C 0.07734 0.16958 0.08385 0.0
C29 C 0.03554 0.13378 0.08003 0.0
C30 C 1.00206 0.14348 0.07709 0.0
C31 C 1.01045 0.18662 0.07751 0.0
C32 C 0.08441 0.21289 0.0843 0.0
H33 H 0.98343 0.19168 0.07492 0.0
H34 H 0.11678 0.23955 0.08719 0.0
H35 H 0.05422 0.33946 0.10707 0.0
H36 H 0.07217 0.35192 0.05659 0.0
C37 C 0.95976 0.25438 0.07049 0.0
C38 C 0.08914 0.27622 0.04175 0.0
C39 C 0.02621 0.2544 0.1216 0.0
C40 C 0.16121 0.33827 0.09208 0.0
H41 H 1.0152 0.25413 0.02091 0.0
H42 H 0.94494 0.24556 0.03632 0.0
H43 H 0.89721 0.22731 0.0963 0.0
H44 H 0.93316 0.22367 0.1239 0.0
H45 H 0.10408 0.29312 0.14164 0.0
H46 H 0.17721 0.34257 0.12567 0.0
H47 H 0.22343 0.35934 0.06706 0.0
H48 H 0.18408 0.32022 0.04003 0.0
H49 H 0.04379 0.40145 0.10804 0.0
H50 H 0.0569 0.41233 0.05651 0.0
H51 H 0.10466 0.16444 0.0862 0.0
H52 H 0.96885 0.11774 0.07455 0.0
C53 C 0.79762 0.04383 0.38159 0.0
C54 C 0.78144 0.01455 0.36888 0.0
C55 C 0.75156 0.97451 0.37526 0.0
C56 C 0.75082 0.98145 0.39148 0.0
N57 N 0.77852 0.02328 0.39559 0.0
Co58 Co 0.78734 0.04703 0.41768 0.0
N59 N 0.76302 0.98868 0.42788 0.0
C60 C 0.74031 0.95019 0.42017 0.0
C61 C 0.73591 0.91591 0.42931 0.0
C62 C 0.75655 0.93401 0.44362 0.0
C63 C 0.77135 0.97861 0.44283 0.0
N64 N 0.79515 0.07187 0.43946 0.0
C65 C 0.79002 0.05228 0.45385 0.0
C66 C 0.78344 0.076 0.46584 0.0
C67 C 0.78769 0.11291 0.4588 0.0
C68 C 0.79472 0.10891 0.44289 0.0
N69 N 0.81286 0.10574 0.40783 0.0
C70 C 0.81653 0.14163 0.41495 0.0
C71 C 0.83835 0.17852 0.40569 0.0
C72 C 0.84862 0.16485 0.39181 0.0
C73 C 0.8316 0.11992 0.39323 0.0
N74 N 0.72726 0.03978 0.4171 0.0
C75 C 0.6381 0.02099 0.41646 0.0
C76 C 0.66631 0.03944 0.4031 0.0
C77 C 0.71056 0.04893 0.40372 0.0
C78 C 0.65704 0.01408 0.43024 0.0
C79 C 0.70041 0.0225 0.43018 0.0
N80 N 0.84599 0.05157 0.41829 0.0
C81 C 0.92137 0.08352 0.42749 0.0
C82 C 0.92528 0.04876 0.4208 0.0
C83 C 0.88872 0.01666 0.41246 0.0
C84 C 0.84998 0.0183 0.41156 0.0
C85 C 0.88163 0.08441 0.42604 0.0
H86 H 0.82287 0.99147 0.40559 0.0
H87 H 0.87942 0.11107 0.43144 0.0
H88 H 0.73091 0.06269 0.39321 0.0
H89 H 0.71179 0.01411 0.44083 0.0
C90 C 0.73369 0.94896 0.40344 0.0
C91 C 0.82925 0.09118 0.37994 0.0
C92 C 0.78968 1.0107 0.4564 0.0
C93 C 0.80489 0.14061 0.43105 0.0
H94 H 0.79065 0.02133 0.35637 0.0
H95 H 0.73443 0.94362 0.36893 0.0
H96 H 0.72262 0.88225 0.42555 0.0
H97 H 0.76163 0.91596 0.45296 0.0
H98 H 0.77599 0.06752 0.47837 0.0
H99 H 0.78592 0.13941 0.4646 0.0
H100 H 0.84715 0.21166 0.40886 0.0
H101 H 0.86611 0.1857 0.38175 0.0
H102 H 0.65432 0.0457 0.39205 0.0
H103 H 0.63867 1.00185 0.44126 0.0
H104 H 0.94835 0.10943 0.4341 0.0
H105 H 0.88953 0.98982 0.40652 0.0
C106 C 0.78413 0.79102 0.70831 0.0
C107 C 0.80235 0.77474 0.69748 0.0
C108 C 0.80241 0.73986 0.70487 0.0
C109 C 0.78478 0.73685 0.71988 0.0
N110 N 0.77379 0.76776 0.72227 0.0
Co111 Co 0.75443 0.78047 0.74297 0.0
N112 N 0.77643 0.74812 0.75572 0.0
C113 C 0.78551 0.71808 0.74976 0.0
C114 C 0.799 0.69993 0.76143 0.0
C115 C 0.79758 0.71931 0.77557 0.0
C116 C 0.78314 0.7483 0.77179 0.0
N117 N 0.73547 0.79488 0.76337 0.0
C118 C 0.74681 0.79267 0.77872 0.0
C119 C 0.72389 0.80439 0.78935 0.0
C120 C 0.6969 0.81335 0.78032 0.0
C121 C 0.70472 0.80679 0.76475 0.0
N122 N 0.73078 0.81129 0.73039 0.0
C123 C 0.69805 0.81806 0.73497 0.0
C124 C 0.68478 0.83561 0.72302 0.0
C125 C 0.71098 0.84016 0.71014 0.0
C126 C 0.7392 0.82565 0.7151 0.0
N127 N 0.69686 0.72512 0.74122 0.0
C128 C 0.62113 0.64017 0.73831 0.0
C129 C 0.64097 0.65718 0.75326 0.0
C130 C 0.67836 0.69915 0.75444 0.0
C131 C 0.63969 0.66792 0.72492 0.0
C132 C 0.67703 0.70994 0.72662 0.0
N133 N 0.81307 0.83425 0.74458 0.0
C134 C 0.86228 0.91279 0.74687 0.0
C135 C 0.89931 0.90807 0.74413 0.0
C136 C 0.89175 0.86552 0.74223 0.0
C137 C 0.8492 0.82975 0.74245 0.0
C138 C 0.81938 0.87544 0.74699 0.0
H139 H 0.84593 0.79825 0.74047 0.0
H140 H 0.79139 0.87982 0.74874 0.0
H141 H 0.69288 0.70999 0.76613 0.0
H142 H 0.69061 0.72969 0.71599 0.0
C143 C 0.788 0.71356 0.73303 0.0
C144 C 0.77395 0.82638 0.70516 0.0
C145 C 0.77301 0.77289 0.78379 0.0
C146 C 0.68664 0.81502 0.75116 0.0
H147 H 0.81525 0.78693 0.68567 0.0
H148 H 0.81655 0.72101 0.70024 0.0
H149 H 0.80995 0.6765 0.75982 0.0
H150 H 0.80588 0.7126 0.78733 0.0
H151 H 0.7249 0.80459 0.80233 0.0
H152 H 0.67432 0.82347 0.78462 0.0
H153 H 0.66042 0.84568 0.72378 0.0
H154 H 0.70993 0.85329 0.69851 0.0
H155 H 0.62787 0.63825 0.76414 0.0
H156 H 0.62637 0.65698 0.71301 0.0
H157 H 0.86626 0.94502 0.74844 0.0
H158 H 0.91882 0.8596 0.74041 0.0
C159 C 0.99767 0.76266 0.04447 0.0
C160 C 0.02995 0.77404 0.0329 0.0
C161 C 0.06615 0.77768 0.04063 0.0
C162 C 0.05404 0.76827 0.05646 0.0
N163 N 1.01264 0.75922 0.05916 0.0
Co164 Co 0.98214 0.74282 0.08027 0.0
N165 N 0.03788 0.765 0.09242 0.0
C166 C 0.07659 0.7735 0.08609 0.0
C167 C 0.10944 0.78779 0.09735 0.0
C168 C 0.09 0.78769 0.11166 0.0
C169 C 0.04612 0.77306 0.10837 0.0
N170 N 0.95073 0.72634 0.1012 0.0
C171 C 0.96609 0.73801 0.11637 0.0
C172 C 0.93234 0.71683 0.12751 0.0
C173 C 0.8949 0.69104 0.11903 0.0
C174 C 0.90764 0.69764 0.10328 0.0
N175 N 0.92606 0.71999 0.06826 0.0
C176 C 0.88558 0.6925 0.07402 0.0
C177 C 0.85267 0.68409 0.06335 0.0
C178 C 0.87358 0.70745 0.04994 0.0
C179 C 0.91843 0.72845 0.05311 0.0
N180 N 0.97863 0.68452 0.07896 0.0
C181 C 0.99254 0.61165 0.07628 0.0
C182 C 0.9947 0.63144 0.09115 0.0
C183 C 0.98787 0.66747 0.09222 0.0
C184 C 0.98064 0.62796 0.06292 0.0
C185 C 0.97329 0.66369 0.06453 0.0
N186 N 0.98823 0.80196 0.08155 0.0
C187 C 0.95971 0.85121 0.0859 0.0
C188 C 1.00169 0.88822 0.08376 0.0
C189 C 0.03624 0.8807 0.08025 0.0
C190 C 0.02883 0.83794 0.079 0.0
C191 C 0.95377 0.80845 0.08493 0.0
H192 H 0.05652 0.83428 0.07601 0.0
H193 H 0.92143 0.78072 0.087 0.0
H194 H 0.99221 0.6827 0.10379 0.0
H195 H 0.96497 0.6755 0.05392 0.0
C196 C 0.08186 0.77338 0.06937 0.0
C197 C 0.95231 0.75209 0.04089 0.0
C198 C 1.01266 0.76397 0.12079 0.0
C199 C 0.87921 0.68204 0.09025 0.0
H200 H 0.02743 0.77885 0.0202 0.0
H201 H 0.09785 0.78725 0.03539 0.0
H202 H 0.14368 0.79817 0.09535 0.0
H203 H 0.10617 0.79683 0.12322 0.0
H204 H 0.93444 0.71857 0.14046 0.0
H205 H 0.86218 0.67052 0.12379 0.0
H206 H 0.81759 0.66493 0.06533 0.0
H207 H 0.8575 0.7085 0.03902 0.0
H208 H 1.00376 0.62059 0.10189 0.0
H209 H 0.97747 0.61355 0.05117 0.0
H210 H 0.93191 0.85527 0.08869 0.0
H211 H 0.06912 0.90796 0.07834 0.0
C212 C 0.2352 0.9787 0.37966 0.0
C213 C 0.25341 1.00724 0.3668 0.0
C214 C 0.28801 0.04519 0.37278 0.0
C215 C 0.28935 0.03779 0.3889 0.0
N216 N 0.25773 0.9976 0.39338 0.0
Co217 Co 0.2488 0.97349 0.41543 0.0
N218 N 0.28308 0.0323 0.42526 0.0
C219 C 0.31134 0.06912 0.41741 0.0
C220 C 0.33076 0.10503 0.42732 0.0
C221 C 0.31401 0.08964 0.44234 0.0
C222 C 0.28536 0.04496 0.4408 0.0
N223 N 0.23927 0.94843 0.43737 0.0
C224 C 0.24492 0.96783 0.45187 0.0
C225 C 0.23639 0.93797 0.4642 0.0
C226 C 0.22521 0.89885 0.45712 0.0
C227 C 0.22768 0.90684 0.44097 0.0
N228 N 0.21448 0.91446 0.40563 0.0
C229 C 0.20366 0.87621 0.41284 0.0
C230 C 0.17448 0.84048 0.40412 0.0
C231 C 0.16663 0.85714 0.39055 0.0
C232 C 0.19283 0.90247 0.39141 0.0
N233 N 0.30418 0.97118 0.41366 0.0
C234 C 0.3896 0.98203 0.41043 0.0
C235 C 0.37445 0.98828 0.4252 0.0
C236 C 0.33232 0.98327 0.42651 0.0
C237 C 0.36015 0.96847 0.39742 0.0
C238 C 0.31752 0.96243 0.39935 0.0
N239 N 0.19496 0.9779 0.41726 0.0
C240 C 0.11953 0.94952 0.4256 0.0
C241 C 0.11952 0.98737 0.42009 0.0
C242 C 0.1587 0.02018 0.41318 0.0
C243 C 0.19565 0.01502 0.41201 0.0
C244 C 0.15717 0.94532 0.42397 0.0
H245 H 0.22494 0.04142 0.40678 0.0
H246 H 0.15579 0.9158 0.42824 0.0
H247 H 0.32337 0.99089 0.43791 0.0
H248 H 0.29588 0.95203 0.38909 0.0
C249 C 0.314 0.06947 0.40057 0.0
C250 C 0.19863 0.93305 0.37827 0.0
C251 C 0.26361 0.01504 0.45443 0.0
C252 C 0.21248 0.87492 0.42906 0.0
H253 H 0.24292 1.00126 0.35439 0.0
H254 H 0.30857 0.07514 0.36624 0.0
H255 H 0.35345 0.13859 0.42398 0.0
H256 H 0.32232 0.109 0.4532 0.0
H257 H 0.23898 0.94381 0.477 0.0
H258 H 0.21536 0.86802 0.46306 0.0
H259 H 0.15815 0.80648 0.40776 0.0
H260 H 0.14324 0.83757 0.3814 0.0
H261 H 0.39583 0.99894 0.43559 0.0
H262 H 0.37005 0.96276 0.38578 0.0
H263 H 0.09084 0.92319 0.43131 0.0
H264 H 0.161 0.04973 0.40839 0.0
C265 C 0.26018 0.23686 0.71059 0.0
C266 C 0.24136 0.25297 0.69997 0.0
C267 C 0.24033 0.28701 0.70768 0.0
C268 C 0.25798 0.28969 0.72265 0.0
N269 N 0.26997 0.25941 0.72471 0.0
Co270 Co 0.28912 0.24576 0.74523 0.0
N271 N 0.26522 0.27578 0.7583 0.0
C272 C 0.25538 0.30562 0.75271 0.0
C273 C 0.24055 0.32198 0.7646 0.0
C274 C 0.24184 0.30159 0.77848 0.0
C275 C 0.25753 0.27382 0.77433 0.0
N276 N 0.30775 0.23016 0.7654 0.0
C277 C 0.29505 0.23018 0.78073 0.0
C278 C 0.31787 0.21804 0.79123 0.0
C279 C 0.34623 0.21115 0.78215 0.0
C280 C 0.33926 0.21924 0.76667 0.0
N281 N 0.31467 0.21734 0.73231 0.0
C282 C 0.34807 0.2115 0.73676 0.0
C283 C 0.36241 0.19554 0.72459 0.0
C284 C 0.33617 0.19104 0.71172 0.0
C285 C 0.30687 0.20397 0.71692 0.0
N286 N 0.34602 0.30212 0.74425 0.0
C287 C 0.42257 0.38669 0.74346 0.0
C288 C 0.40138 0.36718 0.75793 0.0
C289 C 0.36356 0.3256 0.75807 0.0
C290 C 0.40448 0.36237 0.72931 0.0
C291 C 0.36665 0.32016 0.72997 0.0
N292 N 0.23125 0.19098 0.74631 0.0
C293 C 0.18402 0.11262 0.74989 0.0
C294 C 0.14612 0.11646 0.74872 0.0
C295 C 0.15208 0.15806 0.74596 0.0
C296 C 0.19426 0.19427 0.74462 0.0
C297 C 0.22637 0.15041 0.7488 0.0
H298 H 0.19653 0.22522 0.74229 0.0
H299 H 0.25506 0.14698 0.75009 0.0
H300 H 0.34805 0.31301 0.76949 0.0
H301 H 0.35377 0.30238 0.71889 0.0
C302 C 0.25346 0.31146 0.73605 0.0
C303 C 0.2714 0.20231 0.70718 0.0
C304 C 0.26781 0.24867 0.786 0.0
C305 C 0.35876 0.21322 0.75299 0.0
H306 H 0.22854 0.24115 0.68812 0.0
H307 H 0.22538 0.30533 0.70328 0.0
H308 H 0.22879 0.34484 0.76327 0.0
H309 H 0.2326 0.30681 0.79031 0.0
H310 H 0.31586 0.21627 0.80419 0.0
H311 H 0.36912 0.20133 0.78635 0.0
H312 H 0.38738 0.18626 0.72519 0.0
H313 H 0.33778 0.17881 0.69997 0.0
H314 H 0.41341 0.38443 0.7692 0.0
H315 H 0.41971 0.3756 0.71781 0.0
H316 H 0.18099 0.08098 0.75201 0.0
H317 H 0.12401 0.1627 0.74478 0.0
C318 C 0.79695 1.00499 0.62484 0.0
C319 C 0.81961 0.03728 0.63627 0.0
C320 C 0.82488 0.07578 0.63007 0.0
C321 C 0.80612 0.06557 0.61507 0.0
N322 N 0.78962 0.02305 0.61158 0.0
Co323 Co 0.7676 0.99616 0.59026 0.0
N324 N 0.79788 0.05274 0.57871 0.0
C325 C 0.81448 0.09227 0.58572 0.0
C326 C 0.84225 0.12524 0.57561 0.0
C327 C 0.84252 0.10515 0.56151 0.0
C328 C 0.81315 0.06056 0.5633 0.0
N329 N 0.74455 0.96797 0.56936 0.0
C330 C 0.75612 0.98489 0.55443 0.0
C331 C 0.7228 0.95955 0.54356 0.0
C332 C 0.69089 0.92457 0.5519 0.0
C333 C 0.70549 0.93113 0.56745 0.0
N334 N 0.73683 0.93944 0.60136 0.0
C335 C 0.69956 0.90438 0.59625 0.0
C336 C 0.68249 0.87092 0.60724 0.0
C337 C 0.71093 0.8862 0.62003 0.0
C338 C 0.74414 0.92811 0.61601 0.0
N339 N 0.71496 1.00291 0.59291 0.0
C340 C 0.63943 1.01246 0.59631 0.0
C341 C 0.65564 0.99858 0.60917 0.0
C342 C 0.69294 0.9939 0.60722 0.0
C343 C 0.66286 0.02184 0.58177 0.0
C344 C 0.7003 0.01739 0.58039 0.0
N345 N 0.82141 0.99174 0.58781 0.0
C346 C 0.86111 0.95319 0.58277 0.0
C347 C 0.90177 0.9915 0.58579 0.0
C348 C 0.9007 0.02922 0.58991 0.0
C349 C 0.86091 0.02856 0.59097 0.0
C350 C 0.82127 0.95413 0.58368 0.0
H351 H 0.86268 0.05843 0.59466 0.0
H352 H 0.7905 0.92461 0.58123 0.0
H353 H 0.70405 0.98305 0.61738 0.0
H354 H 0.71726 0.02556 0.56904 0.0
C355 C 0.81541 0.09582 0.60259 0.0
C356 C 0.78067 0.95724 0.62665 0.0
C357 C 0.79695 0.02603 0.55044 0.0
C358 C 0.68501 0.90271 0.58045 0.0
H359 H 0.83301 0.03462 0.64756 0.0
H360 H 0.84389 0.10806 0.6353 0.0
H361 H 0.86378 0.15929 0.5787 0.0
H362 H 0.8649 0.12213 0.55184 0.0
H363 H 0.72121 0.96592 0.53095 0.0
H364 H 0.66058 0.89787 0.5472 0.0
H365 H 0.65342 0.83899 0.60601 0.0
H366 H 0.70731 0.86872 0.63111 0.0
H367 H 0.64007 0.99171 0.62083 0.0
H368 H 0.65219 0.03201 0.57128 0.0
H369 H 0.8601 0.92295 0.57964 0.0
H370 H 0.93062 0.0593 0.59281 0.0
C371 C 0.80059 0.7601 0.95497 0.0
C372 C 0.78077 0.77124 0.96703 0.0
C373 C 0.74722 0.77456 0.95996 0.0
C374 C 0.74807 0.76501 0.94401 0.0
N375 N 0.78013 0.75603 0.94069 0.0
Co376 Co 0.79223 0.74007 0.91926 0.0
N377 N 0.76027 0.76499 0.90792 0.0
C378 C 0.73074 0.77365 0.91468 0.0
C379 C 0.71303 0.7898 0.90381 0.0
C380 C 0.73245 0.79094 0.88934 0.0
C381 C 0.76108 0.77545 0.89218 0.0
N382 N 0.80466 0.72357 0.89793 0.0
C383 C 0.80303 0.73837 0.88312 0.0
C384 C 0.8166 0.71932 0.87151 0.0
C385 C 0.82542 0.69057 0.87931 0.0
C386 C 0.81749 0.69407 0.89519 0.0
N387 N 0.82452 0.71519 0.93051 0.0
C388 C 0.83618 0.68741 0.92414 0.0
C389 C 0.86369 0.68077 0.93383 0.0
C390 C 0.86959 0.70565 0.94716 0.0
C391 C 0.84393 0.72511 0.94517 0.0
N392 N 0.73619 0.6827 0.92056 0.0
C393 C 0.64973 0.60815 0.92351 0.0
C394 C 0.66582 0.63021 0.90879 0.0
C395 C 0.70847 0.66697 0.9076 0.0
C396 C 0.67942 0.624 0.93655 0.0
C397 C 0.7221 0.66054 0.9348 0.0
N398 N 0.84677 0.79814 0.91804 0.0
C399 C 0.92382 0.84509 0.91156 0.0
C400 C 0.92338 0.88296 0.91687 0.0
C401 C 0.88304 0.87646 0.9227 0.0
C402 C 0.84562 0.83457 0.92296 0.0
C403 C 0.8856 0.8033 0.91239 0.0
H404 H 0.81556 0.83188 0.9273 0.0
H405 H 0.88745 0.77518 0.90839 0.0
H406 H 0.71849 0.68334 0.89617 0.0
H407 H 0.74326 0.67174 0.9452 0.0
C408 C 0.72538 0.7718 0.93146 0.0
C409 C 0.83659 0.75063 0.95761 0.0
C410 C 0.78547 0.76737 0.87951 0.0
C411 C 0.8304 0.67739 0.90784 0.0
H412 H 0.78955 0.77635 0.97962 0.0
H413 H 0.72597 0.78448 0.96568 0.0
H414 H 0.68966 0.80053 0.90617 0.0
H415 H 0.72589 0.80135 0.87797 0.0
H416 H 0.81996 0.72539 0.85873 0.0
H417 H 0.83832 0.67121 0.87412 0.0
H418 H 0.88042 0.66291 0.931 0.0
H419 H 0.89149 0.70955 0.9569 0.0
H420 H 0.64569 0.61943 0.8981 0.0
H421 H 0.66966 0.60926 0.9483 0.0
H422 H 0.95328 0.84733 0.90662 0.0
H423 H 0.87994 0.90336 0.92736 0.0
C424 C 0.03496 0.77657 0.29247 0.0
C425 C 1.00222 0.75379 0.30371 0.0
C426 C 0.96719 0.72098 0.29554 0.0
C427 C 0.98038 0.7254 0.27978 0.0
N428 N 1.02137 0.7591 0.27758 0.0
Co429 Co 0.05323 0.776 0.2568 0.0
N430 N 0.99851 0.74269 0.24413 0.0
C431 C 0.96004 0.71049 0.24986 0.0
C432 C 0.92814 0.69254 0.23821 0.0
C433 C 0.94804 0.71464 0.22431 0.0
C434 C 0.99107 0.74502 0.22826 0.0
N435 N 0.08584 0.79349 0.23617 0.0
C436 C 0.07127 0.79284 0.2211 0.0
C437 C 0.10587 0.80992 0.21019 0.0
C438 C 0.143 0.82023 0.2187 0.0
C439 C 0.12927 0.80953 0.23427 0.0
N440 N 0.10836 0.80917 0.26928 0.0
C441 C 0.14934 0.82332 0.2638 0.0
C442 C 0.1813 0.84714 0.27489 0.0
C443 C 0.15916 0.8479 0.28824 0.0
C444 C 0.1146 0.82389 0.2846 0.0
N445 N 0.05841 0.7221 0.25758 0.0
C446 C 0.04831 0.63653 0.25998 0.0
C447 C 0.0441 0.65364 0.24523 0.0
C448 C 0.04923 0.69595 0.24429 0.0
C449 C 0.05989 0.66491 0.27333 0.0
C450 C 0.06517 0.70715 0.27186 0.0
N451 N 0.04553 0.82816 0.25621 0.0
C452 C 0.07229 0.90629 0.25406 0.0
C453 C 0.03007 0.90014 0.25719 0.0
C454 C 0.99607 0.85675 0.25928 0.0
C455 C 1.00441 0.82196 0.25892 0.0
C456 C 0.07928 0.87 0.25359 0.0
H457 H 0.97704 0.78973 0.26105 0.0
H458 H 0.11201 0.87583 0.25133 0.0
H459 H 0.04424 0.70681 0.23279 0.0
H460 H 0.07305 0.72706 0.28253 0.0
C461 C 0.95377 0.70311 0.2665 0.0
C462 C 0.07956 0.81229 0.29646 0.0
C463 C 0.02491 0.77298 0.21652 0.0
C464 C 0.15699 0.82138 0.24752 0.0
H465 H 1.0037 0.76006 0.31648 0.0
H466 H 0.93548 0.69756 0.30045 0.0
H467 H 0.89415 0.66734 0.23971 0.0
H468 H 0.93284 0.70882 0.21259 0.0
H469 H 0.10465 0.81442 0.1974 0.0
H470 H 0.17628 0.83551 0.21416 0.0
H471 H 0.21654 0.86383 0.27322 0.0
H472 H 0.17428 0.86414 0.2994 0.0
H473 H 0.03656 0.6345 0.23434 0.0
H474 H 0.06351 0.65431 0.28512 0.0
H475 H 0.09999 0.93889 0.25235 0.0
H476 H 0.96258 0.84919 0.26122 0.0
C477 C 0.26691 0.0381 0.62449 0.0
C478 C 0.24715 1.00228 0.6347 0.0
C479 C 0.24618 0.96768 0.62664 0.0
C480 C 0.26488 0.98378 0.61189 0.0
N481 N 0.27745 0.02633 0.61032 0.0
Co482 Co 0.298 0.06083 0.59025 0.0
N483 N 0.27371 1.00811 0.57659 0.0
C484 C 0.26359 0.96792 0.5816 0.0
C485 C 0.24821 0.93786 0.56931 0.0
C486 C 0.24923 0.9609 0.55582 0.0
C487 C 0.26499 1.00386 0.56063 0.0
N488 N 0.31792 0.09661 0.5705 0.0
C489 C 0.30394 0.08546 0.55521 0.0
C490 C 0.32554 0.12154 0.54512 0.0
C491 C 0.35516 0.15568 0.55441 0.0
C492 C 0.34962 0.13899 0.56964 0.0
N493 N 0.32388 0.11362 0.60376 0.0
C494 C 0.35787 0.15295 0.59975 0.0
C495 C 0.37187 0.18216 0.61229 0.0
C496 C 0.34475 0.15958 0.62488 0.0
C497 C 0.31534 0.11799 0.61917 0.0
N498 N 0.35436 0.06037 0.59121 0.0
C499 C 0.4323 0.05487 0.59187 0.0
C500 C 0.41115 0.05328 0.57739 0.0
C501 C 0.3725 0.05564 0.57732 0.0
C502 C 0.4132 0.0592 0.60609 0.0
C503 C 0.37468 0.06235 0.6055 0.0
N504 N 0.24085 0.05911 0.58916 0.0
C505 C 0.19571 0.09264 0.58625 0.0
C506 C 0.15656 0.05145 0.58688 0.0
C507 C 0.16149 0.01471 0.58883 0.0
C508 C 0.20314 0.01925 0.59018 0.0
C509 C 0.23733 0.0957 0.58728 0.0
H510 H 0.20446 0.9898 0.59192 0.0
H511 H 0.26661 0.12754 0.58654 0.0
H512 H 0.35706 0.05312 0.5659 0.0
H513 H 0.36121 0.06618 0.61663 0.0
C514 C 0.26084 0.95857 0.59817 0.0
C515 C 0.27856 0.08381 0.62834 0.0
C516 C 0.27428 0.04039 0.5497 0.0
C517 C 0.36906 0.16329 0.58359 0.0
H518 H 0.23375 1.00038 0.64651 0.0
H519 H 0.23065 0.93403 0.63066 0.0
H520 H 0.23597 0.90304 0.57014 0.0
H521 H 0.23957 0.94766 0.54383 0.0
H522 H 0.32108 0.12313 0.53235 0.0
H523 H 0.37715 0.18899 0.55058 0.0
H524 H 0.39707 0.21636 0.61208 0.0
H525 H 0.34566 0.17252 0.63675 0.0
H526 H 0.42408 0.04952 0.56608 0.0
H527 H 0.42835 0.06097 0.61759 0.0
H528 H 0.19458 0.12254 0.58506 0.0
H529 H 0.13342 0.98194 0.58902 0.0
C530 C 0.24262 0.26679 0.9566 0.0
C531 C 0.26267 0.25642 0.9688 0.0
C532 C 0.29552 0.25181 0.96176 0.0
C533 C 0.29402 0.25984 0.9457 0.0
N534 N 0.26228 0.26918 0.94228 0.0
Co535 Co 0.24878 0.28257 0.92065 0.0
N536 N 0.27899 0.25528 0.90969 0.0
C537 C 0.30871 0.247 0.9165 0.0
C538 C 0.32532 0.22922 0.90585 0.0
C539 C 0.305 0.22662 0.89145 0.0
C540 C 0.27695 0.24292 0.89412 0.0
N541 N 0.23453 0.29623 0.89915 0.0
C542 C 0.23414 0.27883 0.88466 0.0
C543 C 0.21953 0.29629 0.87281 0.0
C544 C 0.21225 0.32674 0.8801 0.0
C545 C 0.22206 0.32578 0.89595 0.0
N546 N 0.21847 0.31001 0.93159 0.0
C547 C 0.20734 0.33776 0.92485 0.0
C548 C 0.18133 0.3466 0.93454 0.0
C549 C 0.17579 0.32314 0.94823 0.0
C550 C 0.20016 0.30223 0.94643 0.0
N551 N 0.30557 0.33954 0.92062 0.0
C552 C 0.39181 0.41447 0.92048 0.0
C553 C 0.37235 0.39045 0.90646 0.0
C554 C 0.33001 0.35337 0.9068 0.0
C555 C 0.36643 0.40035 0.93461 0.0
C556 C 0.32337 0.36344 0.93438 0.0
N557 N 0.19357 0.2249 0.92049 0.0
C558 C 0.11691 0.17806 0.91349 0.0
C559 C 0.11705 0.14011 0.91885 0.0
C560 C 0.15688 0.14656 0.92522 0.0
C561 C 0.19431 0.1885 0.92574 0.0
C562 C 0.15502 0.2198 0.91458 0.0
H563 H 0.22413 0.19119 0.93034 0.0
H564 H 0.15342 0.24789 0.91039 0.0
H565 H 0.31765 0.33528 0.89579 0.0
H566 H 0.30483 0.35379 0.94543 0.0
C567 C 0.3154 0.25094 0.93322 0.0
C568 C 0.20704 0.27696 0.95909 0.0
C569 C 0.25182 0.24973 0.88142 0.0
C570 C 0.2114 0.34517 0.90836 0.0
H571 H 0.25441 0.25256 0.98143 0.0
H572 H 0.31661 0.24186 0.96759 0.0
H573 H 0.34859 0.21842 0.90831 0.0
H574 H 0.31056 0.21467 0.88024 0.0
H575 H 0.21485 0.28825 0.86016 0.0
H576 H 0.19931 0.34572 0.87462 0.0
H577 H 0.16507 0.36476 0.93149 0.0
H578 H 0.15474 0.32096 0.95804 0.0
H579 H 0.39027 0.39963 0.89523 0.0
H580 H 0.37951 0.418 0.94574 0.0
H581 H 0.08785 0.17591 0.9082 0.0
H582 H 0.15958 0.11952 0.92996 0.0
C583 C 0.99392 0.23771 0.29288 0.0
C584 C 0.02611 0.25995 0.30437 0.0
C585 C 0.06192 0.29257 0.29645 0.0
C586 C 0.04971 0.28868 0.28059 0.0
N587 N 1.00856 0.25561 0.27811 0.0
Co588 Co 0.97825 0.23894 0.25706 0.0
N589 N 0.03399 0.27059 0.24487 0.0
C590 C 0.07237 0.30234 0.25084 0.0
C591 C 0.10512 0.31944 0.23948 0.0
C592 C 0.08589 0.2973 0.22551 0.0
C593 C 0.04236 0.26773 0.22913 0.0
N594 N 0.94706 0.22116 0.23615 0.0
C595 C 0.96249 0.22069 0.22132 0.0
C596 C 0.92869 0.20394 0.21008 0.0
C597 C 0.89124 0.19497 0.21811 0.0
C598 C 0.904 0.20615 0.23375 0.0
N599 N 0.92215 0.20759 0.26916 0.0
C600 C 0.88173 0.19374 0.26314 0.0
C601 C 0.84876 0.16846 0.27365 0.0
C602 C 0.86953 0.16634 0.28716 0.0
C603 C 0.91448 0.19181 0.28437 0.0
N604 N 0.9749 0.29395 0.25687 0.0
C605 C 0.985 0.37954 0.25644 0.0
C606 C 0.98718 0.35887 0.24234 0.0
C607 C 0.98244 0.31687 0.24281 0.0
C608 C 0.97634 0.35544 0.27079 0.0
C609 C 0.97076 0.31273 0.27072 0.0
N610 N 0.98418 0.18574 0.25706 0.0
C611 C 0.95624 0.10807 0.25281 0.0
C612 C 0.99825 0.11329 0.25518 0.0
C613 C 0.03243 0.15537 0.25894 0.0
C614 C 0.02471 0.19057 0.26001 0.0
C615 C 0.94999 0.1447 0.25363 0.0
H616 H 0.05218 0.22209 0.263 0.0
H617 H 0.91772 0.13996 0.25127 0.0
H618 H 0.98649 0.30372 0.23169 0.0
H619 H 0.96418 0.2954 0.28197 0.0
C620 C 0.07753 0.31016 0.26749 0.0
C621 C 0.94881 0.20218 0.29654 0.0
C622 C 1.00909 0.24 0.21718 0.0
C623 C 0.87552 0.19541 0.24671 0.0
H624 H 0.02384 0.25347 0.31714 0.0
H625 H 0.09354 0.31534 0.30159 0.0
H626 H 0.1392 0.34415 0.24122 0.0
H627 H 0.10187 0.30256 0.21397 0.0
H628 H 0.93074 0.19903 0.19736 0.0
H629 H 0.85834 0.1803 0.21325 0.0
H630 H 0.81377 0.15074 0.27135 0.0
H631 H 0.85283 0.14704 0.29761 0.0
H632 H 0.99394 0.37567 0.23092 0.0
H633 H 0.97358 0.36933 0.28202 0.0
H634 H 0.9287 0.07621 0.24985 0.0
H635 H 0.06529 0.16118 0.26107 0.0
H636 H 1.00274 0.29033 0.19412 0.0
H637 H 0.03766 0.19103 0.20158 0.0
H638 H 0.0421 0.18338 0.17242 0.0
H639 H 0.03385 0.20391 0.14467 0.0
H640 H 0.9981 0.30285 0.13756 0.0
H641 H 0.99417 0.31047 0.16661 0.0
C642 C 1.01216 0.26768 0.18928 0.0
C643 C 1.02048 0.24165 0.19987 0.0
C644 C 1.01283 0.26231 0.17258 0.0
C645 C 0.03184 0.2118 0.1936 0.0
C646 C 0.03371 0.20702 0.17696 0.0
C647 C 0.02418 0.22629 0.14956 0.0
C648 C 1.01514 0.25198 0.13903 0.0
C649 C 0.02347 0.23153 0.16632 0.0
C650 C 1.00391 0.28187 0.14544 0.0
C651 C 1.00246 0.28678 0.16203 0.0
H652 H 0.85121 0.06999 0.47683 0.0
H653 H 0.7495 0.93385 0.47562 0.0
H654 H 0.76277 0.92663 0.50357 0.0
H655 H 0.79146 0.96258 0.52982 0.0
H656 H 0.83407 0.10063 0.53001 0.0
H657 H 0.8576 0.10637 0.50265 0.0
C658 C 0.83116 0.03847 0.48254 0.0
C659 C 0.80071 1.00223 0.47324 0.0
C660 C 0.82921 0.03665 0.49941 0.0
C661 C 0.77614 0.9619 0.48133 0.0
C662 C 0.78222 0.95816 0.49781 0.0
C663 C 0.80505 0.99421 0.52404 0.0
C664 C 0.81375 0.03174 0.53318 0.0
C665 C 0.80699 0.9959 0.50713 0.0
C666 C 0.83188 0.07185 0.5248 0.0
C667 C 0.84327 0.07477 0.50853 0.0
H668 H 0.81983 0.83182 0.80734 0.0
H669 H 0.72439 0.69601 0.79953 0.0
H670 H 0.71541 0.68369 0.82853 0.0
H671 H 0.73462 0.71148 0.85617 0.0
H672 H 0.83254 0.84611 0.86439 0.0
H673 H 0.83939 0.85975 0.8353 0.0
C674 C 0.79783 0.79942 0.81207 0.0
C675 C 0.77373 0.76453 0.80135 0.0
C676 C 0.79229 0.7928 0.82882 0.0
C677 C 0.74426 0.72295 0.80755 0.0
C678 C 0.73861 0.7161 0.82412 0.0
C679 C 0.75686 0.74395 0.85153 0.0
C680 C 0.78292 0.77787 0.86232 0.0
C681 C 0.76216 0.75081 0.83486 0.0
C682 C 0.81192 0.81972 0.85628 0.0
C683 C 0.81625 0.82727 0.83966 0.0
H684 H 1.00096 0.81113 0.14418 0.0
H685 H 0.04377 0.71768 0.13647 0.0
H686 H 0.04681 0.70867 0.16548 0.0
H687 H 0.03538 0.72588 0.1931 0.0
H688 H 0.99379 0.82001 0.20115 0.0
H689 H 0.99014 0.82896 0.17203 0.0
C690 C 1.01201 0.7897 0.14893 0.0
C691 C 0.02333 0.766 0.13824 0.0
C692 C 1.01228 0.78364 0.16565 0.0
C693 C 0.03626 0.73724 0.14447 0.0
C694 C 0.0372 0.73149 0.16104 0.0
C695 C 0.02479 0.74774 0.18839 0.0
C696 C 1.01442 0.77199 0.19914 0.0
C697 C 0.02463 0.75398 0.17173 0.0
C698 C 1.00133 0.80068 0.19304 0.0
C699 C 0.9999 0.80622 0.17643 0.0
H700 H 0.33167 0.05447 0.52565 0.0
H701 H 0.19502 1.00855 0.53486 0.0
H702 H 0.17998 1.00118 0.50586 0.0
H703 H 0.20624 1.00725 0.47781 0.0
H704 H 0.34325 0.05357 0.46901 0.0
H705 H 0.3583 0.0635 0.49783 0.0
C706 C 0.29864 0.04291 0.52123 0.0
C707 C 0.26445 0.03227 0.53224 0.0
C708 C 0.29069 0.04009 0.50463 0.0
C709 C 0.22171 0.01688 0.52652 0.0
C710 C 0.21328 1.01309 0.50998 0.0
C711 C 0.23952 0.02076 0.48226 0.0
C712 C 0.27384 0.03082 0.47134 0.0
C713 C 0.24761 0.02497 0.49891 0.0
C714 C 0.31665 0.04694 0.47718 0.0
C715 C 0.32508 0.05184 0.49366 0.0
H716 H 0.22004 0.18848 0.80901 0.0
H717 H 0.31642 0.32448 0.80223 0.0
H718 H 0.32478 0.33518 0.83131 0.0
H719 H 0.30441 0.30603 0.85869 0.0
H720 H 0.20498 0.17147 0.86592 0.0
H721 H 0.19929 0.15915 0.83674 0.0
C722 C 0.24211 0.22055 0.81399 0.0
C723 C 0.26669 0.25599 0.80358 0.0
C724 C 0.24718 0.22625 0.83076 0.0
C725 C 0.29624 0.29716 0.81007 0.0
C726 C 0.30152 0.30307 0.82666 0.0
C727 C 0.28218 0.27383 0.85381 0.0
C728 C 0.25534 0.23954 0.86431 0.0
C729 C 0.27743 0.26783 0.83711 0.0
C730 C 0.22622 0.19809 0.85799 0.0
C731 C 0.22255 0.19131 0.84134 0.0
H732 H 0.09224 0.21315 0.02325 0.0
H733 H 0.12445 0.34804 0.02297 0.0
H734 H 0.16917 0.36163 0.99889 0.0
H735 H 0.20362 0.3367 0.9792 0.0
H736 H 0.16029 0.19934 0.9754 0.0
H737 H 0.118 0.18539 1.00038 0.0
C738 C 0.10794 0.24506 0.01757 0.0
C739 C 0.10503 0.27961 0.02485 0.0
C740 C 0.1329 0.25244 0.00338 0.0
C741 C 0.12586 0.32095 0.01747 0.0
C742 C 0.15198 0.32886 0.00386 0.0
C743 C 0.18373 0.30338 0.98347 0.0
C744 C 0.18401 0.26892 0.97505 0.0
C745 C 0.15644 0.29511 0.99691 0.0
C746 C 0.16029 0.22645 0.98148 0.0
C747 C 0.13569 0.21841 0.99567 0.0
H748 H 0.89685 0.09409 0.36213 0.0
H749 H 0.79901 0.13336 0.3614 0.0
H750 H 0.8323 0.1772 0.33736 0.0
H751 H 0.89004 0.20606 0.31692 0.0
H752 H 0.97903 0.15613 0.31373 0.0
H753 H 0.95068 0.11713 0.33933 0.0
C754 C 0.8826 0.11179 0.35652 0.0
C755 C 0.84606 0.1113 0.36375 0.0
C756 C 0.90118 0.13598 0.34225 0.0
C757 C 0.82746 0.13379 0.35621 0.0
C758 C 0.84669 0.15912 0.34253 0.0
C759 C 0.90286 0.18611 0.32169 0.0
C760 C 0.93588 0.18317 0.31318 0.0
C761 C 0.88381 0.16089 0.33556 0.0
C762 C 0.95333 0.15866 0.31993 0.0
C763 C 0.9367 0.13592 0.33447 0.0
H764 H 0.78275 0.81679 0.67216 0.0
H765 H 0.8045 0.91297 0.70841 0.0
H766 H 0.80868 0.96359 0.68769 0.0
H767 H 0.792 0.97365 0.65975 0.0
H768 H 0.79572 0.8895 0.62297 0.0
H769 H 0.7956 0.84039 0.6436 0.0
C770 C 0.79152 0.84966 0.67566 0.0
C771 C 0.79267 0.86039 0.69205 0.0
C772 C 0.79708 0.88026 0.66358 0.0
C773 C 0.80265 0.90331 0.69595 0.0
C774 C 0.80481 0.93235 0.68409 0.0
C775 C 0.79649 0.94693 0.65596 0.0
C776 C 0.79395 0.93597 0.63955 0.0
C777 C 0.8003 0.92049 0.66786 0.0
C778 C 0.79687 0.8987 0.63545 0.0
C779 C 0.79684 0.87044 0.64726 0.0
H780 H 0.94933 0.81503 0.02224 0.0
H781 H 0.91768 0.6803 0.0221 0.0
H782 H 0.87373 0.66653 0.99782 0.0
H783 H 0.83989 0.69122 0.97784 0.0
H784 H 0.88265 0.82843 0.97394 0.0
H785 H 0.92414 0.84259 0.99913 0.0
C786 C 0.93388 0.78311 0.01656 0.0
C787 C 0.93669 0.74864 0.02394 0.0
C788 C 0.90938 0.77563 0.00224 0.0
C789 C 0.91627 0.70731 0.01654 0.0
C790 C 0.89061 0.69929 0.00281 0.0
C791 C 0.85939 0.72454 0.98217 0.0
C792 C 0.85918 0.7589 0.97366 0.0
C793 C 0.88622 0.73294 0.99575 0.0
C794 C 0.88257 0.8014 0.98011 0.0
C795 C 0.90671 0.80955 0.99442 0.0
H796 H 0.08321 0.8796 0.31428 0.0
H797 H 0.11117 0.77407 0.31614 0.0
H798 H 0.15518 0.80525 0.34036 0.0
H799 H 0.1912 0.86595 0.35943 0.0
H800 H 0.1523 0.96367 0.36155 0.0
H801 H 0.1095 0.93421 0.33674 0.0
C802 C 0.09769 0.86275 0.32036 0.0
C803 C 0.09387 0.82448 0.3135 0.0
C804 C 0.12231 0.88046 0.33459 0.0
C805 C 0.11321 0.80316 0.32135 0.0
C806 C 0.13897 0.8214 0.33504 0.0
C807 C 0.17205 0.87993 0.35488 0.0
C808 C 0.17394 0.9162 0.36271 0.0
C809 C 0.14457 0.86053 0.34153 0.0
C810 C 0.1511 0.93545 0.3559 0.0
C811 C 0.12626 0.91831 0.34181 0.0
H812 H 0.26066 0.06015 0.66078 0.0
H813 H 0.25369 0.14439 0.62483 0.0
H814 H 0.24842 0.1896 0.64582 0.0
H815 H 0.26092 0.21211 0.6744 0.0
H816 H 0.24381 0.1161 0.70999 0.0
H817 H 0.24208 0.0674 0.6889 0.0
C818 C 0.25475 0.08617 0.65727 0.0
C819 C 0.25848 0.09889 0.64104 0.0
C820 C 0.24843 0.11059 0.66939 0.0
C821 C 0.25206 0.13424 0.63721 0.0
C822 C 0.24916 0.16036 0.64923 0.0
C823 C 0.25349 0.17953 0.6777 0.0
C824 C 0.25322 0.16852 0.69399 0.0
C825 C 0.24935 0.14997 0.66543 0.0
C826 C 0.24505 0.12602 0.6976 0.0
C827 C 0.24426 0.09807 0.68553 0.0
H828 H 0.97253 0.54174 0.0965 0.0
H829 H 0.04056 0.6008 0.0524 0.0
H830 H 0.06335 0.54593 0.05016 0.0
H831 H 0.06606 0.48163 0.06111 0.0
H832 H 0.9929 0.42034 0.10434 0.0
H833 H 0.97162 0.47547 0.10652 0.0
C834 C 0.99241 0.54282 0.08638 0.0
C835 C 1.00462 0.57602 0.07467 0.0
C836 C 1.00528 0.51064 0.08505 0.0
C837 C 0.02999 0.57581 0.06158 0.0
C838 C 0.04339 0.54438 0.06033 0.0
C839 C 0.0452 0.47982 0.07099 0.0
C840 C 0.03269 0.44647 0.08277 0.0
C841 C 0.03144 0.51155 0.07203 0.0
C842 C 1.00526 0.44581 0.09534 0.0
C843 C 0.99228 0.47738 0.09654 0.0
H844 H 0.59327 0.0518 0.39734 0.0
H845 H 0.57013 0.95772 0.43478 0.0
H846 H 0.49451 0.93972 0.43664 0.0
H847 H 0.43307 0.94997 0.42816 0.0
H848 H 0.45184 0.03631 0.3887 0.0
H849 H 0.52942 0.05658 0.38693 0.0
C850 C 0.57194 0.02699 0.40583 0.0
C851 C 0.58953 1.00786 0.41632 0.0
C852 C 0.52671 0.01481 0.40646 0.0
C853 C 0.55977 0.97538 0.42703 0.0
C854 C 0.51559 0.96423 0.42799 0.0
C855 C 0.45407 0.97307 0.4191 0.0
C856 C 0.43632 0.99163 0.40862 0.0
C857 C 0.49864 0.98391 0.41791 0.0
C858 C 0.46425 0.02123 0.39688 0.0
C859 C 0.50885 0.03302 0.39592 0.0
H860 H 0.44507 0.45803 0.72355 0.0
H861 H 0.49278 0.41702 0.76378 0.0
H862 H 0.55725 0.48999 0.76565 0.0
H863 H 0.60043 0.56613 0.75625 0.0
H864 H 0.55185 0.609 0.71677 0.0
H865 H 0.48883 0.53532 0.71413 0.0
C866 C 0.46976 0.46492 0.73263 0.0
C867 C 0.46348 0.43151 0.74355 0.0
C868 C 0.50707 0.50771 0.73382 0.0
C869 C 0.49603 0.44172 0.75531 0.0
C870 C 0.53318 0.48366 0.75638 0.0
C871 C 0.57599 0.55986 0.74715 0.0
C872 C 0.5818 0.59415 0.73675 0.0
C873 C 0.53898 0.51714 0.74581 0.0
C874 C 0.54946 0.58395 0.72486 0.0
C875 C 0.51289 0.54152 0.72339 0.0
H876 H 0.45593 1.00461 0.6104 0.0
H877 H 0.50411 0.10154 0.57281 0.0
H878 H 0.57159 0.09812 0.57114 0.0
H879 H 0.61731 0.06755 0.58003 0.0
H880 H 0.56733 0.96646 0.61627 0.0
H881 H 0.50171 0.97253 0.61894 0.0
C882 C 0.48135 0.02525 0.60193 0.0
C883 C 0.4745 0.05337 0.59175 0.0
C884 C 0.52028 0.02255 0.60078 0.0
C885 C 0.50794 0.07938 0.58074 0.0
C886 C 0.54679 0.0775 0.57978 0.0
C887 C 0.59209 0.04623 0.58841 0.0
C888 C 0.59849 0.01661 0.59794 0.0
C889 C 0.55331 0.04898 0.58964 0.0
C890 C 0.56483 0.99034 0.60892 0.0
C891 C 0.52664 0.99347 0.61038 0.0
H892 H 0.4644 0.4359 0.93978 0.0
H893 H 0.42312 0.4831 0.89954 0.0
H894 H 0.49714 0.54621 0.89705 0.0
H895 H 0.57424 0.58845 0.90601 0.0
H896 H 0.61749 0.53843 0.94496 0.0
H897 H 0.54301 0.4776 0.94828 0.0
C898 C 0.4715 0.46018 0.93055 0.0
C899 C 0.43755 0.45437 0.9199 0.0
C900 C 0.515 0.49644 0.92891 0.0
C901 C 0.44811 0.48623 0.9079 0.0
C902 C 0.49069 0.52255 0.90646 0.0
C903 C 0.56802 0.5642 0.91514 0.0
C904 C 0.60289 0.56942 0.92524 0.0
C905 C 0.52465 0.52798 0.9168 0.0
C906 C 0.59234 0.53702 0.93711 0.0
C907 C 0.5493 0.5015 0.93898 0.0
H908 H 0.99446 0.56207 0.24174 0.0
H909 H 0.08474 0.60393 0.28171 0.0
H910 H 0.07129 0.52972 0.28487 0.0
H911 H 0.03521 0.45172 0.27605 0.0
H912 H 0.94882 0.41147 0.23508 0.0
H913 H 0.96009 0.48531 0.23255 0.0
C914 C 1.01184 0.55555 0.25106 0.0
C915 C 0.04058 0.58994 0.2615 0.0
C916 C 1.00467 0.51227 0.25269 0.0
C917 C 0.0617 0.5791 0.2736 0.0
C918 C 0.05428 0.53622 0.27538 0.0
C919 C 1.01853 0.45895 0.26664 0.0
C920 C 0.99101 0.42529 0.25578 0.0
C921 C 0.0258 0.50233 0.26503 0.0
C922 C 0.97036 0.43615 0.24358 0.0
C923 C 0.97678 0.47866 0.24212 0.0
H924 H 0.07051 0.09068 0.09741 0.0
H925 H 0.97884 0.06952 0.05928 0.0
H926 H 0.95783 0.99278 0.058 0.0
H927 H 0.96512 0.93005 0.06734 0.0
H928 H 0.06043 0.95159 0.10386 0.0
H929 H 0.08003 0.02847 0.106 0.0
C930 C 0.04623 0.06955 0.0887 0.0
C931 C 0.02589 0.08677 0.07873 0.0
C932 C 0.03451 0.0247 0.08774 0.0
C933 C 0.99442 0.0579 0.06756 0.0
C934 C 0.98241 0.01359 0.06668 0.0
C935 C 0.98983 0.95147 0.07588 0.0
C936 C 1.01081 0.93458 0.08556 0.0
C937 C 1.0019 0.99635 0.07677 0.0
C938 C 0.04348 0.96338 0.09632 0.0
C939 C 0.05484 1.00756 0.09752 0.0
H940 H 0.93204 0.97409 0.42211 0.0
H941 H 1.01244 0.11501 0.42276 0.0
H942 H 0.07846 0.10864 0.42345 0.0
H943 H 0.11391 0.06317 0.4229 0.0
H944 H 0.03227 0.92252 0.41941 0.0
H945 H 0.96696 0.92919 0.42069 0.0
C946 C 0.96381 1.00374 0.42212 0.0
C947 C 0.96639 0.04516 0.42218 0.0
C948 C 1.00195 0.99993 0.42202 0.0
C949 C 1.00858 0.08263 0.42284 0.0
C950 C 0.04666 0.079 0.4231 0.0
C951 C 0.08201 0.03378 0.42222 0.0
C952 C 0.07903 0.99219 0.42113 0.0
C953 C 0.04384 0.0378 0.4225 0.0
C954 C 0.03663 0.95496 0.42062 0.0
C955 C 0.99883 0.95873 0.42119 0.0
H956 H 0.10206 0.04205 0.73033 0.0
H957 H 0.08598 0.10745 0.77117 0.0
H958 H 1.00841 0.05093 0.77318 0.0
H959 H 0.94393 0.98235 0.76315 0.0
H960 H 0.96011 0.91911 0.72153 0.0
H961 H 0.03753 0.97473 0.71997 0.0
C962 C 0.08169 0.04348 0.73981 0.0
C963 C 0.10019 0.07868 0.75075 0.0
C964 C 0.03651 1.01123 0.74066 0.0
C965 C 0.07285 0.0805 0.76271 0.0
C966 C 0.02829 0.04826 0.7638 0.0
C967 C 0.96425 0.98103 0.75364 0.0
C968 C 0.94572 0.94595 0.74258 0.0
C969 C 1.00946 0.01352 0.75277 0.0
C970 C 0.97314 0.94506 0.73039 0.0
C971 C 1.0177 0.97702 0.72946 0.0
H972 H 0.97961 0.05486 0.57284 0.0
H973 H 0.92299 0.93288 0.59876 0.0
H974 H 0.99607 0.94116 0.6018 0.0
H975 H 0.07633 0.98517 0.59858 0.0
H976 H 0.13231 0.10519 0.57111 0.0
H977 H 0.05959 0.09637 0.56799 0.0
C978 C 0.98312 0.02985 0.57908 0.0
C979 C 0.94543 0.99321 0.58559 0.0
C980 C 0.02543 0.03498 0.58087 0.0
C981 C 0.95096 0.96108 0.59346 0.0
C982 C 0.99296 0.96611 0.59536 0.0
C983 C 0.07313 1.00924 0.59159 0.0
C984 C 0.1111 0.0461 0.58516 0.0
C985 C 0.03057 1.00323 0.58929 0.0
C986 C 0.10484 0.07699 0.57659 0.0
C987 C 0.06281 0.07169 0.57458 0.0
H988 H 0.92955 0.96492 0.9156 0.0
H989 H 1.01131 0.90575 0.91773 0.0
H990 H 0.0765 0.97798 0.91753 0.0
H991 H 0.11132 0.05835 0.9172 0.0
H992 H 0.02913 0.11711 0.91866 0.0
H993 H 0.96414 0.04499 0.91707 0.0
C994 C 0.96132 0.96717 0.91632 0.0
C995 C 0.96421 0.92844 0.91663 0.0
C996 C 0.99936 1.00938 0.9168 0.0
C997 C 1.00677 0.93381 0.9171 0.0
C998 C 0.04458 0.97558 0.91716 0.0
C999 C 0.07945 0.05596 0.91746 0.0
C1000 C 0.07641 0.09461 0.91797 0.0
C1001 C 0.04139 0.01371 0.9171 0.0
C1002 C 0.03381 0.08916 0.91788 0.0
C1003 C 0.99609 0.04743 0.91714 0.0
H1004 H 0.06816 0.98056 0.24123 0.0
H1005 H 0.9705 0.90544 0.27712 0.0
H1006 H 0.94989 0.96142 0.27872 0.0
H1007 H 0.95909 0.03286 0.27029 0.0
H1008 H 0.06014 0.11101 0.23609 0.0
H1009 H 0.07959 0.05369 0.23364 0.0
C1010 C 0.04263 0.97643 0.24952 0.0
C1011 C 1.02051 0.93753 0.25873 0.0
C1012 C 0.03115 1.0097 0.25071 0.0
C1013 C 0.98749 0.93371 0.26939 0.0
C1014 C 0.97571 0.96616 0.27046 0.0
C1015 C 0.98509 0.03715 0.26219 0.0
C1016 C 1.00776 0.07631 0.25328 0.0
C1017 C 0.99698 1.00424 0.26112 0.0
C1018 C 0.04196 0.08136 0.24308 0.0
C1019 C 0.05321 0.04848 0.24169 0.0
loop_
_geom_bond_atom_site_label_1
_geom_bond_atom_site_label_2
_geom_bond_distance
_geom_bond_site_symmetry_2
_ccdc_geom_bond_type
C0 C1 1.443 1_455 S
C0 N4 1.376 1_455 S
C0 C38 1.389 . S
C1 C0 1.443 1_655 S
C1 C2 1.340 . S
C1 H41 0.951 . S
C2 C1 1.340 . S
C2 C3 1.439 . S
C2 H42 0.950 . S
C3 C2 1.439 . S
C3 N4 1.374 . S
C3 C37 1.395 . S
N4 C0 1.376 1_655 S
N4 C3 1.374 . S
N4 Co5 2.008 1_655 S
Co5 N4 2.008 1_455 S
Co5 N6 1.995 1_455 S
Co5 N11 2.008 . S
Co5 N16 1.995 . S
Co5 N21 2.282 . S
Co5 N27 2.282 . S
N6 Co5 1.995 1_655 S
N6 C7 1.376 . S
N6 C10 1.383 . S
C7 N6 1.376 . S
C7 C8 1.446 . S
C7 C37 1.391 . S
C8 C7 1.446 . S
C8 C9 1.339 . S
C8 H43 0.949 . S
C9 C8 1.339 . S
C9 C10 1.439 . S
C9 H44 0.950 . S
C10 N6 1.383 . S
C10 C9 1.439 . S
C10 C39 1.392 . S
N11 Co5 2.008 . S
N11 C12 1.376 . S
N11 C15 1.374 . S
C12 N11 1.376 . S
C12 C13 1.443 . S
C12 C39 1.389 1_455 S
C13 C12 1.443 . S
C13 C14 1.340 . S
C13 H45 0.951 . S
C14 C13 1.340 . S
C14 C15 1.439 . S
C14 H46 0.950 . S
C15 N11 1.374 . S
C15 C14 1.439 . S
C15 C40 1.395 . S
N16 Co5 1.995 . S
N16 C17 1.376 . S
N16 C20 1.383 . S
C17 N16 1.376 . S
C17 C18 1.446 . S
C17 C40 1.391 . S
C18 C17 1.446 . S
C18 C19 1.339 . S
C18 H47 0.949 . S
C19 C18 1.339 . S
C19 C20 1.439 . S
C19 H48 0.950 . S
C20 N16 1.383 . S
C20 C19 1.439 . S
C20 C38 1.392 . S
N21 Co5 2.282 . S
N21 C24 1.332 . S
N21 C26 1.332 1_455 S
C22 C23 1.386 . S
C22 C25 1.388 1_455 S
C23 C22 1.386 . S
C23 C24 1.382 . S
C23 H49 0.950 . S
C24 N21 1.332 . S
C24 C23 1.382 . S
C24 H35 0.952 . S
C25 C22 1.388 1_655 S
C25 C26 1.382 . S
C25 H50 0.950 . S
C26 N21 1.332 1_655 S
C26 C25 1.382 . S
C26 H36 0.948 . S
N27 Co5 2.282 . S
N27 C31 1.332 1_455 S
N27 C32 1.332 . S
C28 C29 1.388 . S
C28 C32 1.382 . S
C28 H51 0.950 . S
C29 C28 1.388 . S
C29 C30 1.386 1_455 S
C30 C29 1.386 1_655 S
C30 C31 1.382 . S
C30 H52 0.950 . S
C31 N27 1.332 1_655 S
C31 C30 1.382 . S
C31 H33 0.952 . S
C32 N27 1.332 . S
C32 C28 1.382 . S
C32 H34 0.948 . S
H33 C31 0.952 . S
H34 C32 0.948 . S
H35 C24 0.952 . S
H36 C26 0.948 . S
C37 C3 1.395 . S
C37 C7 1.391 . S
C38 C0 1.389 . S
C38 C20 1.392 . S
C39 C10 1.392 . S
C39 C12 1.389 1_655 S
C40 C15 1.395 . S
C40 C17 1.391 . S
H41 C1 0.951 . S
H42 C2 0.950 . S
H43 C8 0.949 . S
H44 C9 0.950 . S
H45 C13 0.951 . S
H46 C14 0.950 . S
H47 C18 0.949 . S
H48 C19 0.950 . S
H49 C23 0.950 . S
H50 C25 0.950 . S
H51 C28 0.950 . S
H52 C30 0.950 . S
C53 C54 1.443 1_545 S
C53 N57 1.376 1_545 S
C53 C91 1.389 . S
C54 C53 1.443 1_565 S
C54 C55 1.340 . S
C54 H94 0.951 . S
C55 C54 1.340 . S
C55 C56 1.439 . S
C55 H95 0.950 . S
C56 C55 1.439 . S
C56 N57 1.374 . S
C56 C90 1.395 . S
N57 C53 1.376 1_565 S
N57 C56 1.374 . S
N57 Co58 2.008 1_565 S
Co58 N57 2.008 1_545 S
Co58 N59 1.995 1_545 S
Co58 N64 2.008 . S
Co58 N69 1.995 . S
Co58 N74 2.282 . S
Co58 N80 2.282 . S
N59 Co58 1.995 1_565 S
N59 C60 1.376 . S
N59 C63 1.383 . S
C60 N59 1.376 . S
C60 C61 1.446 . S
C60 C90 1.391 . S
C61 C60 1.446 . S
C61 C62 1.339 . S
C61 H96 0.949 . S
C62 C61 1.339 . S
C62 C63 1.439 . S
C62 H97 0.950 . S
C63 N59 1.383 . S
C63 C62 1.439 . S
C63 C92 1.392 . S
N64 Co58 2.008 . S
N64 C65 1.376 . S
N64 C68 1.374 . S
C65 N64 1.376 . S
C65 C66 1.443 . S
C65 C92 1.389 1_545 S
C66 C65 1.443 . S
C66 C67 1.340 . S
C66 H98 0.951 . S
C67 C66 1.340 . S
C67 C68 1.439 . S
C67 H99 0.950 . S
C68 N64 1.374 . S
C68 C67 1.439 . S
C68 C93 1.395 . S
N69 Co58 1.995 . S
N69 C70 1.376 . S
N69 C73 1.383 . S
C70 N69 1.376 . S
C70 C71 1.446 . S
C70 C93 1.391 . S
C71 C70 1.446 . S
C71 C72 1.339 . S
C71 H100 0.949 . S
C72 C71 1.339 . S
C72 C73 1.439 . S
C72 H101 0.950 . S
C73 N69 1.383 . S
C73 C72 1.439 . S
C73 C91 1.392 . S
N74 Co58 2.282 . S
N74 C77 1.332 . S
N74 C79 1.332 1_545 S
C75 C76 1.386 . S
C75 C78 1.388 1_545 S
C76 C75 1.386 . S
C76 C77 1.382 . S
C76 H102 0.950 . S
C77 N74 1.332 . S
C77 C76 1.382 . S
C77 H88 0.952 . S
C78 C75 1.388 1_565 S
C78 C79 1.382 . S
C78 H103 0.950 . S
C79 N74 1.332 1_565 S
C79 C78 1.382 . S
C79 H89 0.948 . S
N80 Co58 2.282 . S
N80 C84 1.332 1_545 S
N80 C85 1.332 . S
C81 C82 1.388 . S
C81 C85 1.382 . S
C81 H104 0.950 . S
C82 C81 1.388 . S
C82 C83 1.386 1_545 S
C83 C82 1.386 1_565 S
C83 C84 1.382 . S
C83 H105 0.950 . S
C84 N80 1.332 1_565 S
C84 C83 1.382 . S
C84 H86 0.952 . S
C85 N80 1.332 . S
C85 C81 1.382 . S
C85 H87 0.948 . S
H86 C84 0.952 . S
H87 C85 0.948 . S
H88 C77 0.952 . S
H89 C79 0.948 . S
C90 C56 1.395 . S
C90 C60 1.391 . S
C91 C53 1.389 . S
C91 C73 1.392 . S
C92 C63 1.392 . S
C92 C65 1.389 1_565 S
C93 C68 1.395 . S
C93 C70 1.391 . S
H94 C54 0.951 . S
H95 C55 0.950 . S
H96 C61 0.949 . S
H97 C62 0.950 . S
H98 C66 0.951 . S
H99 C67 0.950 . S
H100 C71 0.949 . S
H101 C72 0.950 . S
H102 C76 0.950 . S
H103 C78 0.950 . S
H104 C81 0.950 . S
H105 C83 0.950 . S
C106 C107 1.443 . S
C106 N110 1.376 . S
C106 C144 1.389 . S
C107 C106 1.443 . S
C107 C108 1.340 . S
C107 H147 0.951 . S
C108 C107 1.340 . S
C108 C109 1.439 . S
C108 H148 0.950 . S
C109 C108 1.439 . S
C109 N110 1.374 . S
C109 C143 1.395 . S
N110 C106 1.376 . S
N110 C109 1.374 . S
N110 Co111 2.008 . S
Co111 N110 2.008 . S
Co111 N112 1.995 . S
Co111 N117 2.008 . S
Co111 N122 1.995 . S
Co111 N127 2.282 . S
Co111 N133 2.282 . S
N112 Co111 1.995 . S
N112 C113 1.376 . S
N112 C116 1.383 . S
C113 N112 1.376 . S
C113 C114 1.446 . S
C113 C143 1.391 . S
C114 C113 1.446 . S
C114 C115 1.339 . S
C114 H149 0.949 . S
C115 C114 1.339 . S
C115 C116 1.439 . S
C115 H150 0.950 . S
C116 N112 1.383 . S
C116 C115 1.439 . S
C116 C145 1.392 . S
N117 Co111 2.008 . S
N117 C118 1.376 . S
N117 C121 1.374 . S
C118 N117 1.376 . S
C118 C119 1.443 . S
C118 C145 1.389 . S
C119 C118 1.443 . S
C119 C120 1.340 . S
C119 H151 0.951 . S
C120 C119 1.340 . S
C120 C121 1.439 . S
C120 H152 0.950 . S
C121 N117 1.374 . S
C121 C120 1.439 . S
C121 C146 1.395 . S
N122 Co111 1.995 . S
N122 C123 1.376 . S
N122 C126 1.383 . S
C123 N122 1.376 . S
C123 C124 1.446 . S
C123 C146 1.391 . S
C124 C123 1.446 . S
C124 C125 1.339 . S
C124 H153 0.949 . S
C125 C124 1.339 . S
C125 C126 1.439 . S
C125 H154 0.950 . S
C126 N122 1.383 . S
C126 C125 1.439 . S
C126 C144 1.392 . S
N127 Co111 2.282 . S
N127 C130 1.332 . S
N127 C132 1.332 . S
C128 C129 1.386 . S
C128 C131 1.388 . S
C129 C128 1.386 . S
C129 C130 1.382 . S
C129 H155 0.950 . S
C130 N127 1.332 . S
C130 C129 1.382 . S
C130 H141 0.952 . S
C131 C128 1.388 . S
C131 C132 1.382 . S
C131 H156 0.950 . S
C132 N127 1.332 . S
C132 C131 1.382 . S
C132 H142 0.948 . S
N133 Co111 2.282 . S
N133 C137 1.332 . S
N133 C138 1.332 . S
C134 C135 1.388 . S
C134 C138 1.382 . S
C134 H157 0.950 . S
C135 C134 1.388 . S
C135 C136 1.386 . S
C136 C135 1.386 . S
C136 C137 1.382 . S
C136 H158 0.950 . S
C137 N133 1.332 . S
C137 C136 1.382 . S
C137 H139 0.952 . S
C138 N133 1.332 . S
C138 C134 1.382 . S
C138 H140 0.948 . S
H139 C137 0.952 . S
H140 C138 0.948 . S
H141 C130 0.952 . S
H142 C132 0.948 . S
C143 C109 1.395 . S
C143 C113 1.391 . S
C144 C106 1.389 . S
C144 C126 1.392 . S
C145 C116 1.392 . S
C145 C118 1.389 . S
C146 C121 1.395 . S
C146 C123 1.391 . S
H147 C107 0.951 . S
H148 C108 0.950 . S
H149 C114 0.949 . S
H150 C115 0.950 . S
H151 C119 0.951 . S
H152 C120 0.950 . S
H153 C124 0.949 . S
H154 C125 0.950 . S
H155 C129 0.950 . S
H156 C131 0.950 . S
H157 C134 0.950 . S
H158 C136 0.950 . S
C159 C160 1.443 1_655 S
C159 N163 1.376 1_655 S
C159 C197 1.389 . S
C160 C159 1.443 1_455 S
C160 C161 1.340 . S
C160 H200 0.951 . S
C161 C160 1.340 . S
C161 C162 1.439 . S
C161 H201 0.950 . S
C162 C161 1.439 . S
C162 N163 1.374 . S
C162 C196 1.395 . S
N163 C159 1.376 1_455 S
N163 C162 1.374 . S
N163 Co164 2.008 1_455 S
Co164 N163 2.008 1_655 S
Co164 N165 1.995 1_655 S
Co164 N170 2.008 . S
Co164 N175 1.995 . S
Co164 N180 2.282 . S
Co164 N186 2.282 . S
N165 Co164 1.995 1_455 S
N165 C166 1.376 . S
N165 C169 1.383 . S
C166 N165 1.376 . S
C166 C167 1.446 . S
C166 C196 1.391 . S
C167 C166 1.446 . S
C167 C168 1.339 . S
C167 H202 0.949 . S
C168 C167 1.339 . S
C168 C169 1.439 . S
C168 H203 0.950 . S
C169 N165 1.383 . S
C169 C168 1.439 . S
C169 C198 1.392 . S
N170 Co164 2.008 . S
N170 C171 1.376 . S
N170 C174 1.374 . S
C171 N170 1.376 . S
C171 C172 1.443 . S
C171 C198 1.389 1_655 S
C172 C171 1.443 . S
C172 C173 1.340 . S
C172 H204 0.951 . S
C173 C172 1.340 . S
C173 C174 1.439 . S
C173 H205 0.950 . S
C174 N170 1.374 . S
C174 C173 1.439 . S
C174 C199 1.395 . S
N175 Co164 1.995 . S
N175 C176 1.376 . S
N175 C179 1.383 . S
C176 N175 1.376 . S
C176 C177 1.446 . S
C176 C199 1.391 . S
C177 C176 1.446 . S
C177 C178 1.339 . S
C177 H206 0.949 . S
C178 C177 1.339 . S
C178 C179 1.439 . S
C178 H207 0.950 . S
C179 N175 1.383 . S
C179 C178 1.439 . S
C179 C197 1.392 . S
N180 Co164 2.282 . S
N180 C183 1.332 . S
N180 C185 1.332 1_655 S
C181 C182 1.386 . S
C181 C184 1.388 1_655 S
C182 C181 1.386 . S
C182 C183 1.382 . S
C182 H208 0.950 . S
C183 N180 1.332 . S
C183 C182 1.382 . S
C183 H194 0.952 . S
C184 C181 1.388 1_455 S
C184 C185 1.382 . S
C184 H209 0.950 . S
C185 N180 1.332 1_455 S
C185 C184 1.382 . S
C185 H195 0.948 . S
N186 Co164 2.282 . S
N186 C190 1.332 1_655 S
N186 C191 1.332 . S
C187 C188 1.388 . S
C187 C191 1.382 . S
C187 H210 0.950 . S
C188 C187 1.388 . S
C188 C189 1.386 1_655 S
C189 C188 1.386 1_455 S
C189 C190 1.382 . S
C189 H211 0.950 . S
C190 N186 1.332 1_455 S
C190 C189 1.382 . S
C190 H192 0.952 . S
C191 N186 1.332 . S
C191 C187 1.382 . S
C191 H193 0.948 . S
H192 C190 0.952 . S
H193 C191 0.948 . S
H194 C183 0.952 . S
H195 C185 0.948 . S
C196 C162 1.395 . S
C196 C166 1.391 . S
C197 C159 1.389 . S
C197 C179 1.392 . S
C198 C169 1.392 . S
C198 C171 1.389 1_455 S
C199 C174 1.395 . S
C199 C176 1.391 . S
H200 C160 0.951 . S
H201 C161 0.950 . S
H202 C167 0.949 . S
H203 C168 0.950 . S
H204 C172 0.951 . S
H205 C173 0.950 . S
H206 C177 0.949 . S
H207 C178 0.950 . S
H208 C182 0.950 . S
H209 C184 0.950 . S
H210 C187 0.950 . S
H211 C189 0.950 . S
C212 C213 1.443 1_565 S
C212 N216 1.376 1_565 S
C212 C250 1.389 . S
C213 C212 1.443 1_545 S
C213 C214 1.340 . S
C213 H253 0.951 . S
C214 C213 1.340 . S
C214 C215 1.439 . S
C214 H254 0.950 . S
C215 C214 1.439 . S
C215 N216 1.374 . S
C215 C249 1.395 . S
N216 C212 1.376 1_545 S
N216 C215 1.374 . S
N216 Co217 2.008 1_545 S
Co217 N216 2.008 1_565 S
Co217 N218 1.995 1_565 S
Co217 N223 2.008 . S
Co217 N228 1.995 . S
Co217 N233 2.282 . S
Co217 N239 2.282 . S
N218 Co217 1.995 1_545 S
N218 C219 1.376 . S
N218 C222 1.383 . S
C219 N218 1.376 . S
C219 C220 1.446 . S
C219 C249 1.391 . S
C220 C219 1.446 . S
C220 C221 1.339 . S
C220 H255 0.949 . S
C221 C220 1.339 . S
C221 C222 1.439 . S
C221 H256 0.950 . S
C222 N218 1.383 . S
C222 C221 1.439 . S
C222 C251 1.392 . S
N223 Co217 2.008 . S
N223 C224 1.376 . S
N223 C227 1.374 . S
C224 N223 1.376 . S
C224 C225 1.443 . S
C224 C251 1.389 1_565 S
C225 C224 1.443 . S
C225 C226 1.340 . S
C225 H257 0.951 . S
C226 C225 1.340 . S
C226 C227 1.439 . S
C226 H258 0.950 . S
C227 N223 1.374 . S
C227 C226 1.439 . S
C227 C252 1.395 . S
N228 Co217 1.995 . S
N228 C229 1.376 . S
N228 C232 1.383 . S
C229 N228 1.376 . S
C229 C230 1.446 . S
C229 C252 1.391 . S
C230 C229 1.446 . S
C230 C231 1.339 . S
C230 H259 0.949 . S
C231 C230 1.339 . S
C231 C232 1.439 . S
C231 H260 0.950 . S
C232 N228 1.383 . S
C232 C231 1.439 . S
C232 C250 1.392 . S
N233 Co217 2.282 . S
N233 C236 1.332 . S
N233 C238 1.332 1_565 S
C234 C235 1.386 . S
C234 C237 1.388 1_565 S
C235 C234 1.386 . S
C235 C236 1.382 . S
C235 H261 0.950 . S
C236 N233 1.332 . S
C236 C235 1.382 . S
C236 H247 0.952 . S
C237 C234 1.388 1_545 S
C237 C238 1.382 . S
C237 H262 0.950 . S
C238 N233 1.332 1_545 S
C238 C237 1.382 . S
C238 H248 0.948 . S
N239 Co217 2.282 . S
N239 C243 1.332 1_565 S
N239 C244 1.332 . S
C240 C241 1.388 . S
C240 C244 1.382 . S
C240 H263 0.950 . S
C241 C240 1.388 . S
C241 C242 1.386 1_565 S
C242 C241 1.386 1_545 S
C242 C243 1.382 . S
C242 H264 0.950 . S
C243 N239 1.332 1_545 S
C243 C242 1.382 . S
C243 H245 0.952 . S
C244 N239 1.332 . S
C244 C240 1.382 . S
C244 H246 0.948 . S
H245 C243 0.952 . S
H246 C244 0.948 . S
H247 C236 0.952 . S
H248 C238 0.948 . S
C249 C215 1.395 . S
C249 C219 1.391 . S
C250 C212 1.389 . S
C250 C232 1.392 . S
C251 C222 1.392 . S
C251 C224 1.389 1_545 S
C252 C227 1.395 . S
C252 C229 1.391 . S
H253 C213 0.951 . S
H254 C214 0.950 . S
H255 C220 0.949 . S
H256 C221 0.950 . S
H257 C225 0.951 . S
H258 C226 0.950 . S
H259 C230 0.949 . S
H260 C231 0.950 . S
H261 C235 0.950 . S
H262 C237 0.950 . S
H263 C240 0.950 . S
H264 C242 0.950 . S
C265 C266 1.443 . S
C265 N269 1.376 . S
C265 C303 1.389 . S
C266 C265 1.443 . S
C266 C267 1.340 . S
C266 H306 0.951 . S
C267 C266 1.340 . S
C267 C268 1.439 . S
C267 H307 0.950 . S
C268 C267 1.439 . S
C268 N269 1.374 . S
C268 C302 1.395 . S
N269 C265 1.376 . S
N269 C268 1.374 . S
N269 Co270 2.008 . S
Co270 N269 2.008 . S
Co270 N271 1.995 . S
Co270 N276 2.008 . S
Co270 N281 1.995 . S
Co270 N286 2.282 . S
Co270 N292 2.282 . S
N271 Co270 1.995 . S
N271 C272 1.376 . S
N271 C275 1.383 . S
C272 N271 1.376 . S
C272 C273 1.446 . S
C272 C302 1.391 . S
C273 C272 1.446 . S
C273 C274 1.339 . S
C273 H308 0.949 . S
C274 C273 1.339 . S
C274 C275 1.439 . S
C274 H309 0.950 . S
C275 N271 1.383 . S
C275 C274 1.439 . S
C275 C304 1.392 . S
N276 Co270 2.008 . S
N276 C277 1.376 . S
N276 C280 1.374 . S
C277 N276 1.376 . S
C277 C278 1.443 . S
C277 C304 1.389 . S
C278 C277 1.443 . S
C278 C279 1.340 . S
C278 H310 0.951 . S
C279 C278 1.340 . S
C279 C280 1.439 . S
C279 H311 0.950 . S
C280 N276 1.374 . S
C280 C279 1.439 . S
C280 C305 1.395 . S
N281 Co270 1.995 . S
N281 C282 1.376 . S
N281 C285 1.383 . S
C282 N281 1.376 . S
C282 C283 1.446 . S
C282 C305 1.391 . S
C283 C282 1.446 . S
C283 C284 1.339 . S
C283 H312 0.949 . S
C284 C283 1.339 . S
C284 C285 1.439 . S
C284 H313 0.950 . S
C285 N281 1.383 . S
C285 C284 1.439 . S
C285 C303 1.392 . S
N286 Co270 2.282 . S
N286 C289 1.332 . S
N286 C291 1.332 . S
C287 C288 1.386 . S
C287 C290 1.388 . S
C288 C287 1.386 . S
C288 C289 1.382 . S
C288 H314 0.950 . S
C289 N286 1.332 . S
C289 C288 1.382 . S
C289 H300 0.952 . S
C290 C287 1.388 . S
C290 C291 1.382 . S
C290 H315 0.950 . S
C291 N286 1.332 . S
C291 C290 1.382 . S
C291 H301 0.948 . S
N292 Co270 2.282 . S
N292 C296 1.332 . S
N292 C297 1.332 . S
C293 C294 1.388 . S
C293 C297 1.382 . S
C293 H316 0.950 . S
C294 C293 1.388 . S
C294 C295 1.386 . S
C295 C294 1.386 . S
C295 C296 1.382 . S
C295 H317 0.950 . S
C296 N292 1.332 . S
C296 C295 1.382 . S
C296 H298 0.952 . S
C297 N292 1.332 . S
C297 C293 1.382 . S
C297 H299 0.948 . S
H298 C296 0.952 . S
H299 C297 0.948 . S
H300 C289 0.952 . S
H301 C291 0.948 . S
C302 C268 1.395 . S
C302 C272 1.391 . S
C303 C265 1.389 . S
C303 C285 1.392 . S
C304 C275 1.392 . S
C304 C277 1.389 . S
C305 C280 1.395 . S
C305 C282 1.391 . S
H306 C266 0.951 . S
H307 C267 0.950 . S
H308 C273 0.949 . S
H309 C274 0.950 . S
H310 C278 0.951 . S
H311 C279 0.950 . S
H312 C283 0.949 . S
H313 C284 0.950 . S
H314 C288 0.950 . S
H315 C290 0.950 . S
H316 C293 0.950 . S
H317 C295 0.950 . S
C318 C319 1.443 1_565 S
C318 N322 1.376 1_565 S
C318 C356 1.389 . S
C319 C318 1.443 1_545 S
C319 C320 1.340 . S
C319 H359 0.951 . S
C320 C319 1.340 . S
C320 C321 1.439 . S
C320 H360 0.950 . S
C321 C320 1.439 . S
C321 N322 1.374 . S
C321 C355 1.395 . S
N322 C318 1.376 1_545 S
N322 C321 1.374 . S
N322 Co323 2.008 1_545 S
Co323 N322 2.008 1_565 S
Co323 N324 1.995 1_565 S
Co323 N329 2.008 . S
Co323 N334 1.995 . S
Co323 N339 2.282 . S
Co323 N345 2.282 . S
N324 Co323 1.995 1_545 S
N324 C325 1.376 . S
N324 C328 1.383 . S
C325 N324 1.376 . S
C325 C326 1.446 . S
C325 C355 1.391 . S
C326 C325 1.446 . S
C326 C327 1.339 . S
C326 H361 0.949 . S
C327 C326 1.339 . S
C327 C328 1.439 . S
C327 H362 0.950 . S
C328 N324 1.383 . S
C328 C327 1.439 . S
C328 C357 1.392 . S
N329 Co323 2.008 . S
N329 C330 1.376 . S
N329 C333 1.374 . S
C330 N329 1.376 . S
C330 C331 1.443 . S
C330 C357 1.389 1_565 S
C331 C330 1.443 . S
C331 C332 1.340 . S
C331 H363 0.951 . S
C332 C331 1.340 . S
C332 C333 1.439 . S
C332 H364 0.950 . S
C333 N329 1.374 . S
C333 C332 1.439 . S
C333 C358 1.395 . S
N334 Co323 1.995 . S
N334 C335 1.376 . S
N334 C338 1.383 . S
C335 N334 1.376 . S
C335 C336 1.446 . S
C335 C358 1.391 . S
C336 C335 1.446 . S
C336 C337 1.339 . S
C336 H365 0.949 . S
C337 C336 1.339 . S
C337 C338 1.439 . S
C337 H366 0.950 . S
C338 N334 1.383 . S
C338 C337 1.439 . S
C338 C356 1.392 . S
N339 Co323 2.282 . S
N339 C342 1.332 . S
N339 C344 1.332 1_565 S
C340 C341 1.386 . S
C340 C343 1.388 1_565 S
C341 C340 1.386 . S
C341 C342 1.382 . S
C341 H367 0.950 . S
C342 N339 1.332 . S
C342 C341 1.382 . S
C342 H353 0.952 . S
C343 C340 1.388 1_545 S
C343 C344 1.382 . S
C343 H368 0.950 . S
C344 N339 1.332 1_545 S
C344 C343 1.382 . S
C344 H354 0.948 . S
N345 Co323 2.282 . S
N345 C349 1.332 1_565 S
N345 C350 1.332 . S
C346 C347 1.388 . S
C346 C350 1.382 . S
C346 H369 0.950 . S
C347 C346 1.388 . S
C347 C348 1.386 1_565 S
C348 C347 1.386 1_545 S
C348 C349 1.382 . S
C348 H370 0.950 . S
C349 N345 1.332 1_545 S
C349 C348 1.382 . S
C349 H351 0.952 . S
C350 N345 1.332 . S
C350 C346 1.382 . S
C350 H352 0.948 . S
H351 C349 0.952 . S
H352 C350 0.948 . S
H353 C342 0.952 . S
H354 C344 0.948 . S
C355 C321 1.395 . S
C355 C325 1.391 . S
C356 C318 1.389 . S
C356 C338 1.392 . S
C357 C328 1.392 . S
C357 C330 1.389 1_545 S
C358 C333 1.395 . S
C358 C335 1.391 . S
H359 C319 0.951 . S
H360 C320 0.950 . S
H361 C326 0.949 . S
H362 C327 0.950 . S
H363 C331 0.951 . S
H364 C332 0.950 . S
H365 C336 0.949 . S
H366 C337 0.950 . S
H367 C341 0.950 . S
H368 C343 0.950 . S
H369 C346 0.950 . S
H370 C348 0.950 . S
C371 C372 1.443 . S
C371 N375 1.376 . S
C371 C409 1.389 . S
C372 C371 1.443 . S
C372 C373 1.340 . S
C372 H412 0.951 . S
C373 C372 1.340 . S
C373 C374 1.439 . S
C373 H413 0.950 . S
C374 C373 1.439 . S
C374 N375 1.374 . S
C374 C408 1.395 . S
N375 C371 1.376 . S
N375 C374 1.374 . S
N375 Co376 2.008 . S
Co376 N375 2.008 . S
Co376 N377 1.995 . S
Co376 N382 2.008 . S
Co376 N387 1.995 . S
Co376 N392 2.282 . S
Co376 N398 2.282 . S
N377 Co376 1.995 . S
N377 C378 1.376 . S
N377 C381 1.383 . S
C378 N377 1.376 . S
C378 C379 1.446 . S
C378 C408 1.391 . S
C379 C378 1.446 . S
C379 C380 1.339 . S
C379 H414 0.949 . S
C380 C379 1.339 . S
C380 C381 1.439 . S
C380 H415 0.950 . S
C381 N377 1.383 . S
C381 C380 1.439 . S
C381 C410 1.392 . S
N382 Co376 2.008 . S
N382 C383 1.376 . S
N382 C386 1.374 . S
C383 N382 1.376 . S
C383 C384 1.443 . S
C383 C410 1.389 . S
C384 C383 1.443 . S
C384 C385 1.340 . S
C384 H416 0.951 . S
C385 C384 1.340 . S
C385 C386 1.439 . S
C385 H417 0.950 . S
C386 N382 1.374 . S
C386 C385 1.439 . S
C386 C411 1.395 . S
N387 Co376 1.995 . S
N387 C388 1.376 . S
N387 C391 1.383 . S
C388 N387 1.376 . S
C388 C389 1.446 . S
C388 C411 1.391 . S
C389 C388 1.446 . S
C389 C390 1.339 . S
C389 H418 0.949 . S
C390 C389 1.339 . S
C390 C391 1.439 . S
C390 H419 0.950 . S
C391 N387 1.383 . S
C391 C390 1.439 . S
C391 C409 1.392 . S
N392 Co376 2.282 . S
N392 C395 1.332 . S
N392 C397 1.332 . S
C393 C394 1.386 . S
C393 C396 1.388 . S
C394 C393 1.386 . S
C394 C395 1.382 . S
C394 H420 0.950 . S
C395 N392 1.332 . S
C395 C394 1.382 . S
C395 H406 0.952 . S
C396 C393 1.388 . S
C396 C397 1.382 . S
C396 H421 0.950 . S
C397 N392 1.332 . S
C397 C396 1.382 . S
C397 H407 0.948 . S
N398 Co376 2.282 . S
N398 C402 1.332 . S
N398 C403 1.332 . S
C399 C400 1.388 . S
C399 C403 1.382 . S
C399 H422 0.950 . S
C400 C399 1.388 . S
C400 C401 1.386 . S
C401 C400 1.386 . S
C401 C402 1.382 . S
C401 H423 0.950 . S
C402 N398 1.332 . S
C402 C401 1.382 . S
C402 H404 0.952 . S
C403 N398 1.332 . S
C403 C399 1.382 . S
C403 H405 0.948 . S
H404 C402 0.952 . S
H405 C403 0.948 . S
H406 C395 0.952 . S
H407 C397 0.948 . S
C408 C374 1.395 . S
C408 C378 1.391 . S
C409 C371 1.389 . S
C409 C391 1.392 . S
C410 C381 1.392 . S
C410 C383 1.389 . S
C411 C386 1.395 . S
C411 C388 1.391 . S
H412 C372 0.951 . S
H413 C373 0.950 . S
H414 C379 0.949 . S
H415 C380 0.950 . S
H416 C384 0.951 . S
H417 C385 0.950 . S
H418 C389 0.949 . S
H419 C390 0.950 . S
H420 C394 0.950 . S
H421 C396 0.950 . S
H422 C399 0.950 . S
H423 C401 0.950 . S
C424 C425 1.443 1_455 S
C424 N428 1.376 1_455 S
C424 C462 1.389 . S
C425 C424 1.443 1_655 S
C425 C426 1.340 . S
C425 H465 0.951 . S
C426 C425 1.340 . S
C426 C427 1.439 . S
C426 H466 0.950 . S
C427 C426 1.439 . S
C427 N428 1.374 . S
C427 C461 1.395 . S
N428 C424 1.376 1_655 S
N428 C427 1.374 . S
N428 Co429 2.008 1_655 S
Co429 N428 2.008 1_455 S
Co429 N430 1.995 1_455 S
Co429 N435 2.008 . S
Co429 N440 1.995 . S
Co429 N445 2.282 . S
Co429 N451 2.282 . S
N430 Co429 1.995 1_655 S
N430 C431 1.376 . S
N430 C434 1.383 . S
C431 N430 1.376 . S
C431 C432 1.446 . S
C431 C461 1.391 . S
C432 C431 1.446 . S
C432 C433 1.339 . S
C432 H467 0.949 . S
C433 C432 1.339 . S
C433 C434 1.439 . S
C433 H468 0.950 . S
C434 N430 1.383 . S
C434 C433 1.439 . S
C434 C463 1.392 . S
N435 Co429 2.008 . S
N435 C436 1.376 . S
N435 C439 1.374 . S
C436 N435 1.376 . S
C436 C437 1.443 . S
C436 C463 1.389 1_455 S
C437 C436 1.443 . S
C437 C438 1.340 . S
C437 H469 0.951 . S
C438 C437 1.340 . S
C438 C439 1.439 . S
C438 H470 0.950 . S
C439 N435 1.374 . S
C439 C438 1.439 . S
C439 C464 1.395 . S
N440 Co429 1.995 . S
N440 C441 1.376 . S
N440 C444 1.383 . S
C441 N440 1.376 . S
C441 C442 1.446 . S
C441 C464 1.391 . S
C442 C441 1.446 . S
C442 C443 1.339 . S
C442 H471 0.949 . S
C443 C442 1.339 . S
C443 C444 1.439 . S
C443 H472 0.950 . S
C444 N440 1.383 . S
C444 C443 1.439 . S
C444 C462 1.392 . S
N445 Co429 2.282 . S
N445 C448 1.332 . S
N445 C450 1.332 1_455 S
C446 C447 1.386 . S
C446 C449 1.388 1_455 S
C447 C446 1.386 . S
C447 C448 1.382 . S
C447 H473 0.950 . S
C448 N445 1.332 . S
C448 C447 1.382 . S
C448 H459 0.952 . S
C449 C446 1.388 1_655 S
C449 C450 1.382 . S
C449 H474 0.950 . S
C450 N445 1.332 1_655 S
C450 C449 1.382 . S
C450 H460 0.948 . S
N451 Co429 2.282 . S
N451 C455 1.332 1_455 S
N451 C456 1.332 . S
C452 C453 1.388 . S
C452 C456 1.382 . S
C452 H475 0.950 . S
C453 C452 1.388 . S
C453 C454 1.386 1_455 S
C454 C453 1.386 1_655 S
C454 C455 1.382 . S
C454 H476 0.950 . S
C455 N451 1.332 1_655 S
C455 C454 1.382 . S
C455 H457 0.952 . S
C456 N451 1.332 . S
C456 C452 1.382 . S
C456 H458 0.948 . S
H457 C455 0.952 . S
H458 C456 0.948 . S
H459 C448 0.952 . S
H460 C450 0.948 . S
C461 C427 1.395 . S
C461 C431 1.391 . S
C462 C424 1.389 . S
C462 C444 1.392 . S
C463 C434 1.392 . S
C463 C436 1.389 1_655 S
C464 C439 1.395 . S
C464 C441 1.391 . S
H465 C425 0.951 . S
H466 C426 0.950 . S
H467 C432 0.949 . S
H468 C433 0.950 . S
H469 C437 0.951 . S
H470 C438 0.950 . S
H471 C442 0.949 . S
H472 C443 0.950 . S
H473 C447 0.950 . S
H474 C449 0.950 . S
H475 C452 0.950 . S
H476 C454 0.950 . S
C477 C478 1.443 1_545 S
C477 N481 1.376 1_545 S
C477 C515 1.389 . S
C478 C477 1.443 1_565 S
C478 C479 1.340 . S
C478 H518 0.951 . S
C479 C478 1.340 . S
C479 C480 1.439 . S
C479 H519 0.950 . S
C480 C479 1.439 . S
C480 N481 1.374 . S
C480 C514 1.395 . S
N481 C477 1.376 1_565 S
N481 C480 1.374 . S
N481 Co482 2.008 1_565 S
Co482 N481 2.008 1_545 S
Co482 N483 1.995 1_545 S
Co482 N488 2.008 . S
Co482 N493 1.995 . S
Co482 N498 2.282 . S
Co482 N504 2.282 . S
N483 Co482 1.995 1_565 S
N483 C484 1.376 . S
N483 C487 1.383 . S
C484 N483 1.376 . S
C484 C485 1.446 . S
C484 C514 1.391 . S
C485 C484 1.446 . S
C485 C486 1.339 . S
C485 H520 0.949 . S
C486 C485 1.339 . S
C486 C487 1.439 . S
C486 H521 0.950 . S
C487 N483 1.383 . S
C487 C486 1.439 . S
C487 C516 1.392 . S
N488 Co482 2.008 . S
N488 C489 1.376 . S
N488 C492 1.374 . S
C489 N488 1.376 . S
C489 C490 1.443 . S
C489 C516 1.389 1_545 S
C490 C489 1.443 . S
C490 C491 1.340 . S
C490 H522 0.951 . S
C491 C490 1.340 . S
C491 C492 1.439 . S
C491 H523 0.950 . S
C492 N488 1.374 . S
C492 C491 1.439 . S
C492 C517 1.395 . S
N493 Co482 1.995 . S
N493 C494 1.376 . S
N493 C497 1.383 . S
C494 N493 1.376 . S
C494 C495 1.446 . S
C494 C517 1.391 . S
C495 C494 1.446 . S
C495 C496 1.339 . S
C495 H524 0.949 . S
C496 C495 1.339 . S
C496 C497 1.439 . S
C496 H525 0.950 . S
C497 N493 1.383 . S
C497 C496 1.439 . S
C497 C515 1.392 . S
N498 Co482 2.282 . S
N498 C501 1.332 . S
N498 C503 1.332 1_545 S
C499 C500 1.386 . S
C499 C502 1.388 1_545 S
C500 C499 1.386 . S
C500 C501 1.382 . S
C500 H526 0.950 . S
C501 N498 1.332 . S
C501 C500 1.382 . S
C501 H512 0.952 . S
C502 C499 1.388 1_565 S
C502 C503 1.382 . S
C502 H527 0.950 . S
C503 N498 1.332 1_565 S
C503 C502 1.382 . S
C503 H513 0.948 . S
N504 Co482 2.282 . S
N504 C508 1.332 1_545 S
N504 C509 1.332 . S
C505 C506 1.388 . S
C505 C509 1.382 . S
C505 H528 0.950 . S
C506 C505 1.388 . S
C506 C507 1.386 1_545 S
C507 C506 1.386 1_565 S
C507 C508 1.382 . S
C507 H529 0.950 . S
C508 N504 1.332 1_565 S
C508 C507 1.382 . S
C508 H510 0.952 . S
C509 N504 1.332 . S
C509 C505 1.382 . S
C509 H511 0.948 . S
H510 C508 0.952 . S
H511 C509 0.948 . S
H512 C501 0.952 . S
H513 C503 0.948 . S
C514 C480 1.395 . S
C514 C484 1.391 . S
C515 C477 1.389 . S
C515 C497 1.392 . S
C516 C487 1.392 . S
C516 C489 1.389 1_565 S
C517 C492 1.395 . S
C517 C494 1.391 . S
H518 C478 0.951 . S
H519 C479 0.950 . S
H520 C485 0.949 . S
H521 C486 0.950 . S
H522 C490 0.951 . S
H523 C491 0.950 . S
H524 C495 0.949 . S
H525 C496 0.950 . S
H526 C500 0.950 . S
H527 C502 0.950 . S
H528 C505 0.950 . S
H529 C507 0.950 . S
C530 C531 1.443 . S
C530 N534 1.376 . S
C530 C568 1.389 . S
C531 C530 1.443 . S
C531 C532 1.340 . S
C531 H571 0.951 . S
C532 C531 1.340 . S
C532 C533 1.439 . S
C532 H572 0.950 . S
C533 C532 1.439 . S
C533 N534 1.374 . S
C533 C567 1.395 . S
N534 C530 1.376 . S
N534 C533 1.374 . S
N534 Co535 2.008 . S
Co535 N534 2.008 . S
Co535 N536 1.995 . S
Co535 N541 2.008 . S
Co535 N546 1.995 . S
Co535 N551 2.282 . S
Co535 N557 2.282 . S
N536 Co535 1.995 . S
N536 C537 1.376 . S
N536 C540 1.383 . S
C537 N536 1.376 . S
C537 C538 1.446 . S
C537 C567 1.391 . S
C538 C537 1.446 . S
C538 C539 1.339 . S
C538 H573 0.949 . S
C539 C538 1.339 . S
C539 C540 1.439 . S
C539 H574 0.950 . S
C540 N536 1.383 . S
C540 C539 1.439 . S
C540 C569 1.392 . S
N541 Co535 2.008 . S
N541 C542 1.376 . S
N541 C545 1.374 . S
C542 N541 1.376 . S
C542 C543 1.443 . S
C542 C569 1.389 . S
C543 C542 1.443 . S
C543 C544 1.340 . S
C543 H575 0.951 . S
C544 C543 1.340 . S
C544 C545 1.439 . S
C544 H576 0.950 . S
C545 N541 1.374 . S
C545 C544 1.439 . S
C545 C570 1.395 . S
N546 Co535 1.995 . S
N546 C547 1.376 . S
N546 C550 1.383 . S
C547 N546 1.376 . S
C547 C548 1.446 . S
C547 C570 1.391 . S
C548 C547 1.446 . S
C548 C549 1.339 . S
C548 H577 0.949 . S
C549 C548 1.339 . S
C549 C550 1.439 . S
C549 H578 0.950 . S
C550 N546 1.383 . S
C550 C549 1.439 . S
C550 C568 1.392 . S
N551 Co535 2.282 . S
N551 C554 1.332 . S
N551 C556 1.332 . S
C552 C553 1.386 . S
C552 C555 1.388 . S
C553 C552 1.386 . S
C553 C554 1.382 . S
C553 H579 0.950 . S
C554 N551 1.332 . S
C554 C553 1.382 . S
C554 H565 0.952 . S
C555 C552 1.388 . S
C555 C556 1.382 . S
C555 H580 0.950 . S
C556 N551 1.332 . S
C556 C555 1.382 . S
C556 H566 0.948 . S
N557 Co535 2.282 . S
N557 C561 1.332 . S
N557 C562 1.332 . S
C558 C559 1.388 . S
C558 C562 1.382 . S
C558 H581 0.950 . S
C559 C558 1.388 . S
C559 C560 1.386 . S
C560 C559 1.386 . S
C560 C561 1.382 . S
C560 H582 0.950 . S
C561 N557 1.332 . S
C561 C560 1.382 . S
C561 H563 0.952 . S
C562 N557 1.332 . S
C562 C558 1.382 . S
C562 H564 0.948 . S
H563 C561 0.952 . S
H564 C562 0.948 . S
H565 C554 0.952 . S
H566 C556 0.948 . S
C567 C533 1.395 . S
C567 C537 1.391 . S
C568 C530 1.389 . S
C568 C550 1.392 . S
C569 C540 1.392 . S
C569 C542 1.389 . S
C570 C545 1.395 . S
C570 C547 1.391 . S
H571 C531 0.951 . S
H572 C532 0.950 . S
H573 C538 0.949 . S
H574 C539 0.950 . S
H575 C543 0.951 . S
H576 C544 0.950 . S
H577 C548 0.949 . S
H578 C549 0.950 . S
H579 C553 0.950 . S
H580 C555 0.950 . S
H581 C558 0.950 . S
H582 C560 0.950 . S
C583 C584 1.443 1_655 S
C583 N587 1.376 1_655 S
C583 C621 1.389 . S
C584 C583 1.443 1_455 S
C584 C585 1.340 . S
C584 H624 0.951 . S
C585 C584 1.340 . S
C585 C586 1.439 . S
C585 H625 0.950 . S
C586 C585 1.439 . S
C586 N587 1.374 . S
C586 C620 1.395 . S
N587 C583 1.376 1_455 S
N587 C586 1.374 . S
N587 Co588 2.008 1_455 S
Co588 N587 2.008 1_655 S
Co588 N589 1.995 1_655 S
Co588 N594 2.008 . S
Co588 N599 1.995 . S
Co588 N604 2.282 . S
Co588 N610 2.282 . S
N589 Co588 1.995 1_455 S
N589 C590 1.376 . S
N589 C593 1.383 . S
C590 N589 1.376 . S
C590 C591 1.446 . S
C590 C620 1.391 . S
C591 C590 1.446 . S
C591 C592 1.339 . S
C591 H626 0.949 . S
C592 C591 1.339 . S
C592 C593 1.439 . S
C592 H627 0.950 . S
C593 N589 1.383 . S
C593 C592 1.439 . S
C593 C622 1.392 . S
N594 Co588 2.008 . S
N594 C595 1.376 . S
N594 C598 1.374 . S
C595 N594 1.376 . S
C595 C596 1.443 . S
C595 C622 1.389 1_655 S
C596 C595 1.443 . S
C596 C597 1.340 . S
C596 H628 0.951 . S
C597 C596 1.340 . S
C597 C598 1.439 . S
C597 H629 0.950 . S
C598 N594 1.374 . S
C598 C597 1.439 . S
C598 C623 1.395 . S
N599 Co588 1.995 . S
N599 C600 1.376 . S
N599 C603 1.383 . S
C600 N599 1.376 . S
C600 C601 1.446 . S
C600 C623 1.391 . S
C601 C600 1.446 . S
C601 C602 1.339 . S
C601 H630 0.949 . S
C602 C601 1.339 . S
C602 C603 1.439 . S
C602 H631 0.950 . S
C603 N599 1.383 . S
C603 C602 1.439 . S
C603 C621 1.392 . S
N604 Co588 2.282 . S
N604 C607 1.332 . S
N604 C609 1.332 1_655 S
C605 C606 1.386 . S
C605 C608 1.388 1_655 S
C606 C605 1.386 . S
C606 C607 1.382 . S
C606 H632 0.950 . S
C607 N604 1.332 . S
C607 C606 1.382 . S
C607 H618 0.952 . S
C608 C605 1.388 1_455 S
C608 C609 1.382 . S
C608 H633 0.950 . S
C609 N604 1.332 1_455 S
C609 C608 1.382 . S
C609 H619 0.948 . S
N610 Co588 2.282 . S
N610 C614 1.332 1_655 S
N610 C615 1.332 . S
C611 C612 1.388 . S
C611 C615 1.382 . S
C611 H634 0.950 . S
C612 C611 1.388 . S
C612 C613 1.386 1_655 S
C613 C612 1.386 1_455 S
C613 C614 1.382 . S
C613 H635 0.950 . S
C614 N610 1.332 1_455 S
C614 C613 1.382 . S
C614 H616 0.952 . S
C615 N610 1.332 . S
C615 C611 1.382 . S
C615 H617 0.948 . S
H616 C614 0.952 . S
H617 C615 0.948 . S
H618 C607 0.952 . S
H619 C609 0.948 . S
C620 C586 1.395 . S
C620 C590 1.391 . S
C621 C583 1.389 . S
C621 C603 1.392 . S
C622 C593 1.392 . S
C622 C595 1.389 1_455 S
C623 C598 1.395 . S
C623 C600 1.391 . S
H624 C584 0.951 . S
H625 C585 0.950 . S
H626 C591 0.949 . S
H627 C592 0.950 . S
H628 C596 0.951 . S
H629 C597 0.950 . S
H630 C601 0.949 . S
H631 C602 0.950 . S
H632 C606 0.950 . S
H633 C608 0.950 . S
H634 C611 0.950 . S
H635 C613 0.950 . S
H636 C642 0.930 . S
H637 C645 0.930 . S
H638 C646 0.930 . S
H639 C647 0.930 . S
H640 C650 0.930 . S
H641 C651 0.930 . S
C642 H636 0.930 . S
C642 C643 1.355 1_655 S
C642 C644 1.415 . S
C643 C642 1.355 1_455 S
C643 C645 1.419 . S
C644 C642 1.415 . S
C644 C649 1.425 1_655 S
C644 C651 1.409 . S
C645 H637 0.930 . S
C645 C643 1.419 . S
C645 C646 1.362 . S
C646 H638 0.930 . S
C646 C645 1.362 . S
C646 C649 1.409 . S
C647 H639 0.930 . S
C647 C648 1.355 1_455 S
C647 C649 1.415 . S
C648 C647 1.355 1_655 S
C648 C650 1.419 . S
C649 C644 1.425 1_455 S
C649 C646 1.409 . S
C649 C647 1.415 . S
C650 H640 0.930 . S
C650 C648 1.419 . S
C650 C651 1.362 . S
C651 H641 0.930 . S
C651 C644 1.409 . S
C651 C650 1.362 . S
H652 C658 0.930 . S
H653 C661 0.930 . S
H654 C662 0.930 . S
H655 C663 0.930 . S
H656 C666 0.930 . S
H657 C667 0.930 . S
C658 H652 0.930 . S
C658 C659 1.355 1_545 S
C658 C660 1.415 . S
C659 C658 1.355 1_565 S
C659 C661 1.419 . S
C660 C658 1.415 . S
C660 C665 1.425 1_545 S
C660 C667 1.409 . S
C661 H653 0.930 . S
C661 C659 1.419 . S
C661 C662 1.362 . S
C662 H654 0.930 . S
C662 C661 1.362 . S
C662 C665 1.409 . S
C663 H655 0.930 . S
C663 C664 1.355 1_565 S
C663 C665 1.415 . S
C664 C663 1.355 1_545 S
C664 C666 1.419 . S
C665 C660 1.425 1_565 S
C665 C662 1.409 . S
C665 C663 1.415 . S
C666 H656 0.930 . S
C666 C664 1.419 . S
C666 C667 1.362 . S
C667 H657 0.930 . S
C667 C660 1.409 . S
C667 C666 1.362 . S
H668 C674 0.930 . S
H669 C677 0.930 . S
H670 C678 0.930 . S
H671 C679 0.930 . S
H672 C682 0.930 . S
H673 C683 0.930 . S
C674 H668 0.930 . S
C674 C675 1.355 . S
C674 C676 1.415 . S
C675 C674 1.355 . S
C675 C677 1.419 . S
C676 C674 1.415 . S
C676 C681 1.425 . S
C676 C683 1.409 . S
C677 H669 0.930 . S
C677 C675 1.419 . S
C677 C678 1.362 . S
C678 H670 0.930 . S
C678 C677 1.362 . S
C678 C681 1.409 . S
C679 H671 0.930 . S
C679 C680 1.355 . S
C679 C681 1.415 . S
C680 C679 1.355 . S
C680 C682 1.419 . S
C681 C676 1.425 . S
C681 C678 1.409 . S
C681 C679 1.415 . S
C682 H672 0.930 . S
C682 C680 1.419 . S
C682 C683 1.362 . S
C683 H673 0.930 . S
C683 C676 1.409 . S
C683 C682 1.362 . S
H684 C690 0.930 . S
H685 C693 0.930 . S
H686 C694 0.930 . S
H687 C695 0.930 . S
H688 C698 0.930 . S
H689 C699 0.930 . S
C690 H684 0.930 . S
C690 C691 1.355 1_655 S
C690 C692 1.415 . S
C691 C690 1.355 1_455 S
C691 C693 1.419 . S
C692 C690 1.415 . S
C692 C697 1.425 1_655 S
C692 C699 1.409 . S
C693 H685 0.930 . S
C693 C691 1.419 . S
C693 C694 1.362 . S
C694 H686 0.930 . S
C694 C693 1.362 . S
C694 C697 1.409 . S
C695 H687 0.930 . S
C695 C696 1.355 1_455 S
C695 C697 1.415 . S
C696 C695 1.355 1_655 S
C696 C698 1.419 . S
C697 C692 1.425 1_455 S
C697 C694 1.409 . S
C697 C695 1.415 . S
C698 H688 0.930 . S
C698 C696 1.419 . S
C698 C699 1.362 . S
C699 H689 0.930 . S
C699 C692 1.409 . S
C699 C698 1.362 . S
H700 C706 0.930 . S
H701 C709 0.930 . S
H702 C710 0.930 . S
H703 C711 0.930 . S
H704 C714 0.930 . S
H705 C715 0.930 . S
C706 H700 0.930 . S
C706 C707 1.355 1_545 S
C706 C708 1.415 . S
C707 C706 1.355 1_565 S
C707 C709 1.419 . S
C708 C706 1.415 . S
C708 C713 1.425 1_545 S
C708 C715 1.409 . S
C709 H701 0.930 . S
C709 C707 1.419 . S
C709 C710 1.362 . S
C710 H702 0.930 . S
C710 C709 1.362 . S
C710 C713 1.409 . S
C711 H703 0.930 . S
C711 C712 1.355 1_565 S
C711 C713 1.415 . S
C712 C711 1.355 1_545 S
C712 C714 1.419 . S
C713 C708 1.425 1_565 S
C713 C710 1.409 . S
C713 C711 1.415 . S
C714 H704 0.930 . S
C714 C712 1.419 . S
C714 C715 1.362 . S
C715 H705 0.930 . S
C715 C708 1.409 . S
C715 C714 1.362 . S
H716 C722 0.930 . S
H717 C725 0.930 . S
H718 C726 0.930 . S
H719 C727 0.930 . S
H720 C730 0.930 . S
H721 C731 0.930 . S
C722 H716 0.930 . S
C722 C723 1.355 . S
C722 C724 1.415 . S
C723 C722 1.355 . S
C723 C725 1.419 . S
C724 C722 1.415 . S
C724 C729 1.425 . S
C724 C731 1.409 . S
C725 H717 0.930 . S
C725 C723 1.419 . S
C725 C726 1.362 . S
C726 H718 0.930 . S
C726 C725 1.362 . S
C726 C729 1.409 . S
C727 H719 0.930 . S
C727 C728 1.355 . S
C727 C729 1.415 . S
C728 C727 1.355 . S
C728 C730 1.419 . S
C729 C724 1.425 . S
C729 C726 1.409 . S
C729 C727 1.415 . S
C730 H720 0.930 . S
C730 C728 1.419 . S
C730 C731 1.362 . S
C731 H721 0.930 . S
C731 C724 1.409 . S
C731 C730 1.362 . S
H732 C738 0.930 . S
H733 C741 0.930 . S
H734 C742 0.917 1_556 S
H735 C743 0.930 . S
H736 C746 0.930 . S
H737 C747 0.917 1_554 S
C738 H732 0.930 . S
C738 C739 1.355 . S
C738 C740 1.415 . S
C739 C738 1.355 . S
C739 C741 1.419 . S
C740 C738 1.415 . S
C740 C745 1.425 1_554 S
C740 C747 1.402 1_554 S
C741 H733 0.930 . S
C741 C739 1.419 . S
C741 C742 1.384 . S
C742 H734 0.917 1_554 S
C742 C741 1.384 . S
C742 C745 1.401 1_554 S
C743 H735 0.930 . S
C743 C744 1.355 . S
C743 C745 1.415 . S
C744 C743 1.355 . S
C744 C746 1.419 . S
C745 C740 1.425 1_556 S
C745 C742 1.401 1_556 S
C745 C743 1.415 . S
C746 H736 0.930 . S
C746 C744 1.419 . S
C746 C747 1.383 . S
C747 H737 0.917 1_556 S
C747 C740 1.402 1_556 S
C747 C746 1.383 . S
H748 C754 0.930 . S
H749 C757 0.930 . S
H750 C758 0.930 . S
H751 C759 0.930 . S
H752 C762 0.930 . S
H753 C763 0.930 . S
C754 H748 0.930 . S
C754 C755 1.355 . S
C754 C756 1.415 . S
C755 C754 1.355 . S
C755 C757 1.419 . S
C756 C754 1.415 . S
C756 C761 1.425 . S
C756 C763 1.409 . S
C757 H749 0.930 . S
C757 C755 1.419 . S
C757 C758 1.362 . S
C758 H750 0.930 . S
C758 C757 1.362 . S
C758 C761 1.409 . S
C759 H751 0.930 . S
C759 C760 1.355 . S
C759 C761 1.415 . S
C760 C759 1.355 . S
C760 C762 1.419 . S
C761 C756 1.425 . S
C761 C758 1.409 . S
C761 C759 1.415 . S
C762 H752 0.930 . S
C762 C760 1.419 . S
C762 C763 1.362 . S
C763 H753 0.930 . S
C763 C756 1.409 . S
C763 C762 1.362 . S
H764 C770 0.930 . S
H765 C773 0.930 . S
H766 C774 0.930 . S
H767 C775 0.930 . S
H768 C778 0.930 . S
H769 C779 0.930 . S
C770 H764 0.930 . S
C770 C771 1.355 . S
C770 C772 1.415 . S
C771 C770 1.355 . S
C771 C773 1.419 . S
C772 C770 1.415 . S
C772 C777 1.425 . S
C772 C779 1.409 . S
C773 H765 0.930 . S
C773 C771 1.419 . S
C773 C774 1.362 . S
C774 H766 0.930 . S
C774 C773 1.362 . S
C774 C777 1.409 . S
C775 H767 0.930 . S
C775 C776 1.355 . S
C775 C777 1.415 . S
C776 C775 1.355 . S
C776 C778 1.419 . S
C777 C772 1.425 . S
C777 C774 1.409 . S
C777 C775 1.415 . S
C778 H768 0.930 . S
C778 C776 1.419 . S
C778 C779 1.362 . S
C779 H769 0.930 . S
C779 C772 1.409 . S
C779 C778 1.362 . S
H780 C786 0.930 . S
H781 C789 0.930 . S
H782 C790 0.930 . S
H783 C791 0.930 . S
H784 C794 0.930 . S
H785 C795 0.930 . S
C786 H780 0.930 . S
C786 C787 1.355 . S
C786 C788 1.415 1_554 S
C787 C786 1.355 . S
C787 C789 1.419 . S
C788 C786 1.415 1_556 S
C788 C793 1.425 1_556 S
C788 C795 1.409 . S
C789 H781 0.930 . S
C789 C787 1.419 . S
C789 C790 1.362 . S
C790 H782 0.930 . S
C790 C789 1.362 . S
C790 C793 1.409 . S
C791 H783 0.930 . S
C791 C792 1.355 . S
C791 C793 1.415 1_556 S
C792 C791 1.355 . S
C792 C794 1.419 . S
C793 C788 1.425 1_554 S
C793 C790 1.409 . S
C793 C791 1.415 1_554 S
C794 H784 0.930 . S
C794 C792 1.419 . S
C794 C795 1.362 . S
C795 H785 0.930 . S
C795 C788 1.409 . S
C795 C794 1.362 . S
H796 C802 0.930 . S
H797 C805 0.930 . S
H798 C806 0.930 . S
H799 C807 0.930 . S
H800 C810 0.930 . S
H801 C811 0.930 . S
C802 H796 0.930 . S
C802 C803 1.355 . S
C802 C804 1.415 . S
C803 C802 1.355 . S
C803 C805 1.419 . S
C804 C802 1.415 . S
C804 C809 1.425 . S
C804 C811 1.409 . S
C805 H797 0.930 . S
C805 C803 1.419 . S
C805 C806 1.362 . S
C806 H798 0.930 . S
C806 C805 1.362 . S
C806 C809 1.409 . S
C807 H799 0.930 . S
C807 C808 1.355 . S
C807 C809 1.415 . S
C808 C807 1.355 . S
C808 C810 1.419 . S
C809 C804 1.425 . S
C809 C806 1.409 . S
C809 C807 1.415 . S
C810 H800 0.930 . S
C810 C808 1.419 . S
C810 C811 1.362 . S
C811 H801 0.930 . S
C811 C804 1.409 . S
C811 C810 1.362 . S
H812 C818 0.930 . S
H813 C821 0.930 . S
H814 C822 0.930 . S
H815 C823 0.930 . S
H816 C826 0.930 . S
H817 C827 0.930 . S
C818 H812 0.930 . S
C818 C819 1.355 . S
C818 C820 1.415 . S
C819 C818 1.355 . S
C819 C821 1.419 . S
C820 C818 1.415 . S
C820 C825 1.425 . S
C820 C827 1.409 . S
C821 H813 0.930 . S
C821 C819 1.419 . S
C821 C822 1.362 . S
C822 H814 0.930 . S
C822 C821 1.362 . S
C822 C825 1.409 . S
C823 H815 0.930 . S
C823 C824 1.355 . S
C823 C825 1.415 . S
C824 C823 1.355 . S
C824 C826 1.419 . S
C825 C820 1.425 . S
C825 C822 1.409 . S
C825 C823 1.415 . S
C826 H816 0.930 . S
C826 C824 1.419 . S
C826 C827 1.362 . S
C827 H817 0.930 . S
C827 C820 1.409 . S
C827 C826 1.362 . S
H828 C834 0.930 . S
H829 C837 0.930 . S
H830 C838 0.930 . S
H831 C839 0.930 . S
H832 C842 0.930 . S
H833 C843 0.930 . S
C834 H828 0.930 . S
C834 C835 1.355 . S
C834 C836 1.415 . S
C835 C834 1.355 . S
C835 C837 1.419 1_655 S
C836 C834 1.415 . S
C836 C841 1.425 1_655 S
C836 C843 1.409 . S
C837 H829 0.930 . S
C837 C835 1.419 1_455 S
C837 C838 1.362 . S
C838 H830 0.930 . S
C838 C837 1.362 . S
C838 C841 1.409 . S
C839 H831 0.930 . S
C839 C840 1.355 . S
C839 C841 1.415 . S
C840 C839 1.355 . S
C840 C842 1.419 1_455 S
C841 C836 1.425 1_455 S
C841 C838 1.409 . S
C841 C839 1.415 . S
C842 H832 0.930 . S
C842 C840 1.419 1_655 S
C842 C843 1.362 . S
C843 H833 0.930 . S
C843 C836 1.409 . S
C843 C842 1.362 . S
H844 C850 0.930 . S
H845 C853 0.930 . S
H846 C854 0.930 . S
H847 C855 0.930 . S
H848 C858 0.930 . S
H849 C859 0.930 . S
C850 H844 0.930 . S
C850 C851 1.355 . S
C850 C852 1.415 . S
C851 C850 1.355 . S
C851 C853 1.419 1_545 S
C852 C850 1.415 . S
C852 C857 1.425 1_545 S
C852 C859 1.409 . S
C853 H845 0.930 . S
C853 C851 1.419 1_565 S
C853 C854 1.362 . S
C854 H846 0.930 . S
C854 C853 1.362 . S
C854 C857 1.409 . S
C855 H847 0.930 . S
C855 C856 1.355 . S
C855 C857 1.415 . S
C856 C855 1.355 . S
C856 C858 1.419 1_565 S
C857 C852 1.425 1_565 S
C857 C854 1.409 . S
C857 C855 1.415 . S
C858 H848 0.930 . S
C858 C856 1.419 1_545 S
C858 C859 1.362 . S
C859 H849 0.930 . S
C859 C852 1.409 . S
C859 C858 1.362 . S
H860 C866 0.930 . S
H861 C869 0.930 . S
H862 C870 0.930 . S
H863 C871 0.930 . S
H864 C874 0.930 . S
H865 C875 0.930 . S
C866 H860 0.930 . S
C866 C867 1.355 . S
C866 C868 1.415 . S
C867 C866 1.355 . S
C867 C869 1.419 . S
C868 C866 1.415 . S
C868 C873 1.425 . S
C868 C875 1.409 . S
C869 H861 0.930 . S
C869 C867 1.419 . S
C869 C870 1.362 . S
C870 H862 0.930 . S
C870 C869 1.362 . S
C870 C873 1.409 . S
C871 H863 0.930 . S
C871 C872 1.355 . S
C871 C873 1.415 . S
C872 C871 1.355 . S
C872 C874 1.419 . S
C873 C868 1.425 . S
C873 C870 1.409 . S
C873 C871 1.415 . S
C874 H864 0.930 . S
C874 C872 1.419 . S
C874 C875 1.362 . S
C875 H865 0.930 . S
C875 C868 1.409 . S
C875 C874 1.362 . S
H876 C882 0.930 . S
H877 C885 0.930 . S
H878 C886 0.930 . S
H879 C887 0.930 . S
H880 C890 0.930 . S
H881 C891 0.930 . S
C882 H876 0.930 . S
C882 C883 1.355 1_565 S
C882 C884 1.415 . S
C883 C882 1.355 1_545 S
C883 C885 1.419 . S
C884 C882 1.415 . S
C884 C889 1.425 1_565 S
C884 C891 1.409 . S
C885 H877 0.930 . S
C885 C883 1.419 . S
C885 C886 1.362 . S
C886 H878 0.930 . S
C886 C885 1.362 . S
C886 C889 1.409 . S
C887 H879 0.930 . S
C887 C888 1.355 1_545 S
C887 C889 1.415 . S
C888 C887 1.355 1_565 S
C888 C890 1.419 . S
C889 C884 1.425 1_545 S
C889 C886 1.409 . S
C889 C887 1.415 . S
C890 H880 0.930 . S
C890 C888 1.419 . S
C890 C891 1.362 . S
C891 H881 0.930 . S
C891 C884 1.409 . S
C891 C890 1.362 . S
H892 C898 0.930 . S
H893 C901 0.930 . S
H894 C902 0.930 . S
H895 C903 0.930 . S
H896 C906 0.930 . S
H897 C907 0.930 . S
C898 H892 0.930 . S
C898 C899 1.355 . S
C898 C900 1.415 . S
C899 C898 1.355 . S
C899 C901 1.419 . S
C900 C898 1.415 . S
C900 C905 1.425 . S
C900 C907 1.409 . S
C901 H893 0.930 . S
C901 C899 1.419 . S
C901 C902 1.362 . S
C902 H894 0.930 . S
C902 C901 1.362 . S
C902 C905 1.409 . S
C903 H895 0.930 . S
C903 C904 1.355 . S
C903 C905 1.415 . S
C904 C903 1.355 . S
C904 C906 1.419 . S
C905 C900 1.425 . S
C905 C902 1.409 . S
C905 C903 1.415 . S
C906 H896 0.930 . S
C906 C904 1.419 . S
C906 C907 1.362 . S
C907 H897 0.930 . S
C907 C900 1.409 . S
C907 C906 1.362 . S
H908 C914 0.930 . S
H909 C917 0.930 . S
H910 C918 0.930 . S
H911 C919 0.930 . S
H912 C922 0.930 . S
H913 C923 0.930 . S
C914 H908 0.930 . S
C914 C915 1.355 1_655 S
C914 C916 1.415 . S
C915 C914 1.355 1_455 S
C915 C917 1.419 . S
C916 C914 1.415 . S
C916 C921 1.425 1_655 S
C916 C923 1.409 . S
C917 H909 0.930 . S
C917 C915 1.419 . S
C917 C918 1.362 . S
C918 H910 0.930 . S
C918 C917 1.362 . S
C918 C921 1.409 . S
C919 H911 0.930 . S
C919 C920 1.355 1_455 S
C919 C921 1.415 . S
C920 C919 1.355 1_655 S
C920 C922 1.419 . S
C921 C916 1.425 1_455 S
C921 C918 1.409 . S
C921 C919 1.415 . S
C922 H912 0.930 . S
C922 C920 1.419 . S
C922 C923 1.362 . S
C923 H913 0.930 . S
C923 C916 1.409 . S
C923 C922 1.362 . S
H924 C930 0.930 . S
H925 C933 0.930 . S
H926 C934 0.930 . S
H927 C935 0.930 . S
H928 C938 0.930 . S
H929 C939 0.930 1_545 S
C930 H924 0.930 . S
C930 C931 1.355 . S
C930 C932 1.415 . S
C931 C930 1.355 . S
C931 C933 1.419 1_455 S
C932 C930 1.415 . S
C932 C937 1.425 1_445 S
C932 C939 1.409 1_545 S
C933 H925 0.930 . S
C933 C931 1.419 1_655 S
C933 C934 1.362 . S
C934 H926 0.930 . S
C934 C933 1.362 . S
C934 C937 1.409 1_545 S
C935 H927 0.930 . S
C935 C936 1.355 . S
C935 C937 1.415 . S
C936 C935 1.355 . S
C936 C938 1.419 1_655 S
C937 C932 1.425 1_665 S
C937 C934 1.409 1_565 S
C937 C935 1.415 . S
C938 H928 0.930 . S
C938 C936 1.419 1_455 S
C938 C939 1.362 . S
C939 H929 0.930 1_565 S
C939 C932 1.409 1_565 S
C939 C938 1.362 . S
H940 C946 0.930 . S
H941 C949 0.930 . S
H942 C950 0.930 . S
H943 C951 0.930 . S
H944 C954 0.930 . S
H945 C955 0.930 . S
C946 H940 0.930 . S
C946 C947 1.355 1_565 S
C946 C948 1.415 . S
C947 C946 1.355 1_545 S
C947 C949 1.419 . S
C948 C946 1.415 . S
C948 C953 1.425 1_665 S
C948 C955 1.409 . S
C949 H941 0.930 . S
C949 C947 1.419 . S
C949 C950 1.362 1_655 S
C950 H942 0.930 . S
C950 C949 1.362 1_455 S
C950 C953 1.409 . S
C951 H943 0.930 . S
C951 C952 1.355 1_545 S
C951 C953 1.415 . S
C952 C951 1.355 1_565 S
C952 C954 1.419 . S
C953 C948 1.425 1_445 S
C953 C950 1.409 . S
C953 C951 1.415 . S
C954 H944 0.930 . S
C954 C952 1.419 . S
C954 C955 1.362 1_455 S
C955 H945 0.930 . S
C955 C948 1.409 . S
C955 C954 1.362 1_655 S
H956 C962 0.930 . S
H957 C965 0.930 . S
H958 C966 0.930 . S
H959 C967 0.930 . S
H960 C970 0.930 . S
H961 C971 0.930 . S
C962 H956 0.930 . S
C962 C963 1.355 . S
C962 C964 1.415 . S
C963 C962 1.355 . S
C963 C965 1.419 . S
C964 C962 1.415 . S
C964 C969 1.425 1_445 S
C964 C971 1.409 1_445 S
C965 H957 0.930 . S
C965 C963 1.419 . S
C965 C966 1.362 . S
C966 H958 0.930 . S
C966 C965 1.362 . S
C966 C969 1.409 1_445 S
C967 H959 0.930 . S
C967 C968 1.355 . S
C967 C969 1.415 . S
C968 C967 1.355 . S
C968 C970 1.419 . S
C969 C964 1.425 1_665 S
C969 C966 1.409 1_665 S
C969 C967 1.415 . S
C970 H960 0.930 . S
C970 C968 1.419 . S
C970 C971 1.362 . S
C971 H961 0.930 . S
C971 C964 1.409 1_665 S
C971 C970 1.362 . S
H972 C978 0.930 . S
H973 C981 0.930 . S
H974 C982 0.930 . S
H975 C983 0.930 . S
H976 C986 0.930 . S
H977 C987 0.930 . S
C978 H972 0.930 . S
C978 C979 1.355 1_545 S
C978 C980 1.415 . S
C979 C978 1.355 1_565 S
C979 C981 1.419 . S
C980 C978 1.415 . S
C980 C985 1.425 1_645 S
C980 C987 1.409 1_655 S
C981 H973 0.930 . S
C981 C979 1.419 . S
C981 C982 1.362 . S
C982 H974 0.930 . S
C982 C981 1.362 . S
C982 C985 1.409 1_655 S
C983 H975 0.930 . S
C983 C984 1.355 1_565 S
C983 C985 1.415 . S
C984 C983 1.355 1_545 S
C984 C986 1.419 . S
C985 C980 1.425 1_465 S
C985 C982 1.409 1_455 S
C985 C983 1.415 . S
C986 H976 0.930 . S
C986 C984 1.419 . S
C986 C987 1.362 . S
C987 H977 0.930 . S
C987 C980 1.409 1_455 S
C987 C986 1.362 . S
H988 C994 0.930 . S
H989 C997 0.930 . S
H990 C998 0.930 . S
H991 C999 0.930 . S
H992 C1002 0.930 . S
H993 C1003 0.930 . S
C994 H988 0.930 . S
C994 C995 1.355 . S
C994 C996 1.427 . S
C995 C994 1.355 . S
C995 C997 1.419 . S
C996 C994 1.427 . S
C996 C1001 1.447 1_665 S
C996 C1003 1.387 1_565 S
C997 H989 0.930 . S
C997 C995 1.419 . S
C997 C998 1.362 1_655 S
C998 H990 0.930 . S
C998 C997 1.362 1_455 S
C998 C1001 1.386 1_565 S
C999 H991 0.930 . S
C999 C1000 1.355 . S
C999 C1001 1.427 . S
C1000 C999 1.355 . S
C1000 C1002 1.419 . S
C1001 C996 1.447 1_445 S
C1001 C998 1.386 1_545 S
C1001 C999 1.427 . S
C1002 H992 0.930 . S
C1002 C1000 1.419 . S
C1002 C1003 1.362 1_455 S
C1003 H993 0.930 . S
C1003 C996 1.387 1_545 S
C1003 C1002 1.362 1_655 S
H1004 C1010 0.930 . S
H1005 C1013 0.930 . S
H1006 C1014 0.930 . S
H1007 C1015 0.930 . S
H1008 C1018 0.930 . S
H1009 C1019 0.930 . S
C1010 H1004 0.930 . S
C1010 C1011 1.355 . S
C1010 C1012 1.415 1_565 S
C1011 C1010 1.355 . S
C1011 C1013 1.419 1_455 S
C1012 C1010 1.415 1_545 S
C1012 C1017 1.425 1_445 S
C1012 C1019 1.409 . S
C1013 H1005 0.930 . S
C1013 C1011 1.419 1_655 S
C1013 C1014 1.362 . S
C1014 H1006 0.930 . S
C1014 C1013 1.362 . S
C1014 C1017 1.409 . S
C1015 H1007 0.930 . S
C1015 C1016 1.355 . S
C1015 C1017 1.415 1_545 S
C1016 C1015 1.355 . S
C1016 C1018 1.419 1_655 S
C1017 C1012 1.425 1_665 S
C1017 C1014 1.409 . S
C1017 C1015 1.415 1_565 S
C1018 H1008 0.930 . S
C1018 C1016 1.419 1_455 S
C1018 C1019 1.362 . S
C1019 H1009 0.930 . S
C1019 C1012 1.409 . S
C1019 C1018 1.362 . S
C643 C622 1.840 . S
C648 C39 1.855 . S
C659 C92 1.845 . S
C664 C357 1.854 . S
C675 C145 1.853 . S
C680 C410 1.829 . S
C691 C198 1.848 . S
C696 C463 1.853 . S
C707 C516 1.815 . S
C712 C251 1.845 . S
C723 C304 1.854 . S
C728 C569 1.831 . S
C739 C38 1.815 . S
C744 C568 1.825 . S
C755 C91 1.823 . S
C760 C621 1.832 . S
C771 C144 1.805 . S
C776 C356 1.798 . S
C787 C197 1.797 . S
C792 C409 1.801 . S
C803 C462 1.814 . S
C808 C250 1.824 . S
C819 C515 1.796 . S
C824 C303 1.799 . S
C835 C181 1.527 . S
C840 C22 1.526 . S
C851 C75 1.525 . S
C856 C234 1.528 . S
C867 C287 1.547 . S
C872 C128 1.534 . S
C883 C499 1.534 . S
C888 C340 1.548 . S
C899 C552 1.543 . S
C904 C393 1.546 . S
C915 C446 1.544 . S
C920 C605 1.547 . S
C931 C29 1.589 . S
C936 C188 1.574 . S
C947 C82 1.581 . S
C952 C241 1.596 . S
C963 C294 1.569 . S
C968 C135 1.583 . S
C979 C347 1.600 . S
C984 C506 1.596 . S
C995 C400 1.595 . S
C1000 C559 1.600 . S
C1011 C453 1.582 . S
C1016 C612 1.569 . S
