# Generated by pormake.
# Topology uou, (4)-cn, num edge types: 1
# Building blocks:
#     Node 0, Type 0, BuildingBlock: AZAVOO_clean_sbu_0, # of connection points: 4
#     Node 1, Type 0, BuildingBlock: AZAVOO_clean_sbu_0, # of connection points: 4
#     Node 2, Type 0, BuildingBlock: AZAVOO_clean_sbu_0, # of connection points: 4
#     Node 3, Type 0, BuildingBlock: AZAVOO_clean_sbu_0, # of connection points: 4
#     Node 4, Type 0, BuildingBlock: AZAVOO_clean_sbu_0, # of connection points: 4
#     Node 5, Type 0, BuildingBlock: AZAVOO_clean_sbu_0, # of connection points: 4
#     Node 6, Type 0, BuildingBlock: AZAVOO_clean_sbu_0, # of connection points: 4
#     Node 7, Type 0, BuildingBlock: AZAVOO_clean_sbu_0, # of connection points: 4
#     Node 8, Type 0, BuildingBlock: AZAVOO_clean_sbu_0, # of connection points: 4
#     Node 9, Type 0, BuildingBlock: AZAVOO_clean_sbu_0, # of connection points: 4
#     Node 10, Type 0, BuildingBlock: AZAVOO_clean_sbu_0, # of connection points: 4
#     Node 11, Type 0, BuildingBlock: AZAVOO_clean_sbu_0, # of connection points: 4
#     Node 12, Type 0, BuildingBlock: AZAVOO_clean_sbu_0, # of connection points: 4
#     Node 13, Type 0, BuildingBlock: AZAVOO_clean_sbu_0, # of connection points: 4
#     Node 14, Type 0, BuildingBlock: AZAVOO_clean_sbu_0, # of connection points: 4
#     Node 15, Type 0, BuildingBlock: AZAVOO_clean_sbu_0, # of connection points: 4
#     Edge 16, Type (0, 0), BuildingBlock: MIFKUJ_clean_linker_0, # of connection points: 2
#     Edge 17, Type (0, 0), BuildingBlock: MIFKUJ_clean_linker_0, # of connection points: 2
#     Edge 18, Type (0, 0), BuildingBlock: MIFKUJ_clean_linker_0, # of connection points: 2
#     Edge 19, Type (0, 0), BuildingBlock: MIFKUJ_clean_linker_0, # of connection points: 2
#     Edge 20, Type (0, 0), BuildingBlock: MIFKUJ_clean_linker_0, # of connection points: 2
#     Edge 21, Type (0, 0), BuildingBlock: MIFKUJ_clean_linker_0, # of connection points: 2
#     Edge 22, Type (0, 0), BuildingBlock: MIFKUJ_clean_linker_0, # of connection points: 2
#     Edge 23, Type (0, 0), BuildingBlock: MIFKUJ_clean_linker_0, # of connection points: 2
#     Edge 24, Type (0, 0), BuildingBlock: MIFKUJ_clean_linker_0, # of connection points: 2
#     Edge 25, Type (0, 0), BuildingBlock: MIFKUJ_clean_linker_0, # of connection points: 2
#     Edge 26, Type (0, 0), BuildingBlock: MIFKUJ_clean_linker_0, # of connection points: 2
#     Edge 27, Type (0, 0), BuildingBlock: MIFKUJ_clean_linker_0, # of connection points: 2
#     Edge 28, Type (0, 0), BuildingBlock: MIFKUJ_clean_linker_0, # of connection points: 2
#     Edge 29, Type (0, 0), BuildingBlock: MIFKUJ_clean_linker_0, # of connection points: 2
#     Edge 30, Type (0, 0), BuildingBlock: MIFKUJ_clean_linker_0, # of connection points: 2
#     Edge 31, Type (0, 0), BuildingBlock: MIFKUJ_clean_linker_0, # of connection points: 2
#     Edge 32, Type (0, 0), BuildingBlock: MIFKUJ_clean_linker_0, # of connection points: 2
#     Edge 33, Type (0, 0), BuildingBlock: MIFKUJ_clean_linker_0, # of connection points: 2
#     Edge 34, Type (0, 0), BuildingBlock: MIFKUJ_clean_linker_0, # of connection points: 2
#     Edge 35, Type (0, 0), BuildingBlock: MIFKUJ_clean_linker_0, # of connection points: 2
#     Edge 36, Type (0, 0), BuildingBlock: MIFKUJ_clean_linker_0, # of connection points: 2
#     Edge 37, Type (0, 0), BuildingBlock: MIFKUJ_clean_linker_0, # of connection points: 2
#     Edge 38, Type (0, 0), BuildingBlock: MIFKUJ_clean_linker_0, # of connection points: 2
#     Edge 39, Type (0, 0), BuildingBlock: MIFKUJ_clean_linker_0, # of connection points: 2
#     Edge 40, Type (0, 0), BuildingBlock: MIFKUJ_clean_linker_0, # of connection points: 2
#     Edge 41, Type (0, 0), BuildingBlock: MIFKUJ_clean_linker_0, # of connection points: 2
#     Edge 42, Type (0, 0), BuildingBlock: MIFKUJ_clean_linker_0, # of connection points: 2
#     Edge 43, Type (0, 0), BuildingBlock: MIFKUJ_clean_linker_0, # of connection points: 2
#     Edge 44, Type (0, 0), BuildingBlock: MIFKUJ_clean_linker_0, # of connection points: 2
#     Edge 45, Type (0, 0), BuildingBlock: MIFKUJ_clean_linker_0, # of connection points: 2
#     Edge 46, Type (0, 0), BuildingBlock: MIFKUJ_clean_linker_0, # of connection points: 2
#     Edge 47, Type (0, 0), BuildingBlock: MIFKUJ_clean_linker_0, # of connection points: 2
# Relax obj value: 0.173
# Max RMSD: 0.202
# Mean RMSD: 0.189
data_MOF--net-uou--node1-AZAVOO_clean_sbu_0--edge1-MIFKUJ_clean_linker_0
_symmetry_space_group_name_H-M    P1
_symmetry_Int_Tables_number       1
_symmetry_cell_setting            triclinic
loop_
_symmetry_equiv_pos_as_xyz
'x, y, z'
_cell_length_a     50.255039
_cell_length_b     48.287001
_cell_length_c     67.853106
_cell_angle_alpha  90.005384
_cell_angle_beta   89.962982
_cell_angle_gamma 89.976765
loop_
_atom_site_label
_atom_site_type_symbol
_atom_site_fract_x
_atom_site_fract_y
_atom_site_fract_z
_atom_type_partial_charge
Mg0 Mg 0.08594 0.05134 0.15012 0.0
O1 O 0.05436 0.0415 0.17334 0.0
O2 O 0.05442 0.99571 0.17829 0.0
Mg3 Mg 0.08716 0.97657 0.15927 0.0
C4 C 0.04526 0.01988 0.18183 0.0
C5 C 0.06756 0.10455 0.12828 0.0
O6 O 0.07664 0.09008 0.11331 0.0
O7 O 0.06006 0.03291 0.1261 0.0
O8 O 0.06342 0.98729 0.13129 0.0
O9 O 0.11678 0.05691 0.17341 0.0
O10 O 0.10716 0.01706 0.15894 0.0
C11 C 0.05493 0.00793 0.12131 0.0
C12 C 0.1205 0.03044 0.17203 0.0
O13 O 0.06835 0.09412 0.14546 0.0
Mg14 Mg 0.38835 0.91868 0.09671 0.0
O15 O 0.40246 0.93206 0.12741 0.0
O16 O 0.38264 0.97207 0.13517 0.0
Mg17 Mg 0.35762 0.98514 0.1088 0.0
C18 C 0.39803 0.95191 0.13943 0.0
C19 C 0.4166 0.86433 0.08594 0.0
O20 O 0.39449 0.86234 0.07571 0.0
O21 O 0.41533 0.95049 0.0827 0.0
O22 O 0.39559 0.99063 0.09009 0.0
O23 O 0.35465 0.89707 0.11072 0.0
O24 O 0.35345 0.94089 0.10099 0.0
C25 C 0.41428 0.97686 0.0819 0.0
C26 C 0.34245 0.92071 0.11047 0.0
O27 O 0.42076 0.88609 0.09597 0.0
Mg28 Mg 0.58541 0.93919 0.35048 0.0
O29 O 0.55548 0.95086 0.32655 0.0
O30 O 0.5577 0.9966 0.32166 0.0
Mg31 Mg 0.58896 0.01421 0.3426 0.0
C32 C 0.54792 0.97283 0.3177 0.0
C33 C 0.57188 0.88133 0.36796 0.0
O34 O 0.58896 0.88997 0.38126 0.0
O35 O 0.55841 0.95732 0.37404 0.0
O36 O 0.56309 0.00288 0.36933 0.0
O37 O 0.61758 0.93393 0.32787 0.0
O38 O 0.60782 0.97322 0.34304 0.0
C39 C 0.55348 0.98236 0.37885 0.0
C40 C 0.62146 0.96028 0.32991 0.0
O41 O 0.56623 0.89696 0.3535 0.0
Mg42 Mg 0.88834 0.08924 0.39832 0.0
O43 O 0.89841 0.07158 0.36787 0.0
O44 O 0.87557 0.03236 0.36341 0.0
Mg45 Mg 0.85196 0.02434 0.39155 0.0
C46 C 0.89178 0.05082 0.35731 0.0
C47 C 0.92249 0.13716 0.38215 0.0
O48 O 0.90273 0.13696 0.36949 0.0
O49 O 0.9145 0.05683 0.41263 0.0
O50 O 0.8914 0.01774 0.40822 0.0
O51 O 0.85439 0.11134 0.38467 0.0
O52 O 0.85208 0.06919 0.39756 0.0
C53 C 0.91177 0.03071 0.41468 0.0
C54 C 0.84111 0.0887 0.38747 0.0
O55 O 0.92287 0.11929 0.39587 0.0
Mg56 Mg 0.94559 0.95655 0.89061 0.0
O57 O 0.95388 0.90989 0.89015 0.0
O58 O 0.93131 0.89064 0.91496 0.0
Mg59 Mg 0.90985 0.92518 0.9318 0.0
C60 C 0.94691 0.88871 0.90015 0.0
C61 C 0.95386 0.9801 0.84866 0.0
O62 O 0.93805 0.99911 0.85609 0.0
O63 O 0.90385 0.95009 0.87902 0.0
O64 O 0.8822 0.93438 0.90547 0.0
O65 O 0.98046 0.96347 0.91012 0.0
O66 O 0.93971 0.95506 0.92092 0.0
C67 C 0.88244 0.9426 0.88756 0.0
C68 C 0.9645 0.95914 0.9248 0.0
O69 O 0.96111 0.95995 0.85943 0.0
Mg70 Mg 0.57817 0.05722 0.88435 0.0
O71 O 0.57083 0.104 0.88398 0.0
O72 O 0.59182 0.1225 0.90979 0.0
Mg73 Mg 0.61239 0.08745 0.92661 0.0
C74 C 0.57712 0.12487 0.89455 0.0
C75 C 0.5529 0.03206 0.84698 0.0
O76 O 0.55098 0.01104 0.8592 0.0
O77 O 0.62054 0.06242 0.87383 0.0
O78 O 0.641 0.07791 0.90083 0.0
O79 O 0.54214 0.05198 0.90257 0.0
O80 O 0.58245 0.05829 0.9149 0.0
C81 C 0.6416 0.06957 0.88295 0.0
C82 C 0.5572 0.05585 0.91781 0.0
O83 O 0.56345 0.05442 0.85294 0.0
Mg84 Mg 0.43851 0.04414 0.60746 0.0
O85 O 0.44337 0.09126 0.60595 0.0
O86 O 0.42065 0.10666 0.57989 0.0
Mg87 Mg 0.40097 0.06935 0.56504 0.0
C88 C 0.43557 0.11094 0.5948 0.0
C89 C 0.4511 0.02355 0.64943 0.0
O90 O 0.43789 0.00225 0.64239 0.0
O91 O 0.3965 0.04848 0.61905 0.0
O92 O 0.3742 0.06122 0.59208 0.0
O93 O 0.4736 0.03847 0.58788 0.0
O94 O 0.43221 0.0422 0.5772 0.0
C95 C 0.37479 0.05434 0.61028 0.0
C96 C 0.45716 0.03981 0.57321 0.0
O97 O 0.4549 0.04449 0.63848 0.0
Mg98 Mg 0.07047 0.94531 0.61167 0.0
O99 O 0.06241 0.89863 0.612 0.0
O100 O 0.08433 0.87979 0.58669 0.0
Mg101 Mg 0.10577 0.91442 0.57008 0.0
C102 C 0.069 0.87765 0.60162 0.0
C103 C 0.04272 0.9706 0.64807 0.0
O104 O 0.0398 0.99083 0.6353 0.0
O105 O 0.11238 0.93934 0.62301 0.0
O106 O 0.13352 0.92344 0.59639 0.0
O107 O 0.03519 0.9511 0.59276 0.0
O108 O 0.07583 0.94401 0.58122 0.0
C109 C 0.13362 0.93173 0.61429 0.0
C110 C 0.05074 0.94687 0.57782 0.0
O111 O 0.05471 0.94867 0.64279 0.0
Mg112 Mg 0.58181 0.55429 0.11674 0.0
O113 O 0.56191 0.55109 0.14696 0.0
O114 O 0.56654 0.50739 0.15734 0.0
Mg115 Mg 0.58898 0.48283 0.13393 0.0
C116 C 0.55833 0.53218 0.15984 0.0
C117 C 0.56728 0.61702 0.12078 0.0
O118 O 0.58593 0.61569 0.13431 0.0
O119 O 0.54756 0.53121 0.10278 0.0
O120 O 0.55386 0.48748 0.1124 0.0
O121 O 0.62021 0.56494 0.131 0.0
O122 O 0.60707 0.52217 0.12439 0.0
C123 C 0.54097 0.50572 0.10266 0.0
C124 C 0.62417 0.53851 0.13243 0.0
O125 O 0.56118 0.59533 0.11122 0.0
Mg126 Mg 0.92347 0.42695 0.11601 0.0
O127 O 0.93654 0.44275 0.14633 0.0
O128 O 0.9211 0.48586 0.15019 0.0
Mg129 Mg 0.89877 0.49772 0.12233 0.0
C130 C 0.93379 0.46479 0.15655 0.0
C131 C 0.95866 0.37711 0.10342 0.0
O132 O 0.95017 0.38533 0.08606 0.0
O133 O 0.95471 0.45365 0.10121 0.0
O134 O 0.93809 0.49628 0.10505 0.0
O135 O 0.88631 0.41119 0.12938 0.0
O136 O 0.89096 0.45338 0.11702 0.0
C137 C 0.95603 0.4798 0.09868 0.0
C138 C 0.87666 0.43576 0.12663 0.0
O139 O 0.95189 0.39069 0.11864 0.0
Mg140 Mg 0.10395 0.43804 0.37194 0.0
O141 O 0.07381 0.4538 0.34958 0.0
O142 O 0.08122 0.4988 0.34406 0.0
Mg143 Mg 0.11736 0.51147 0.36251 0.0
C144 C 0.06812 0.47655 0.34098 0.0
C145 C 0.08883 0.37792 0.38432 0.0
O146 O 0.11351 0.37837 0.39069 0.0
O147 O 0.08172 0.46079 0.39615 0.0
O148 O 0.09318 0.50497 0.39088 0.0
O149 O 0.13131 0.42695 0.34732 0.0
O150 O 0.12998 0.46793 0.36208 0.0
C151 C 0.08126 0.48635 0.40092 0.0
C152 C 0.13868 0.45261 0.34794 0.0
O153 O 0.07912 0.39949 0.37639 0.0
Mg154 Mg 0.39428 0.57517 0.38111 0.0
O155 O 0.41678 0.56475 0.35281 0.0
O156 O 0.40351 0.52332 0.34195 0.0
Mg157 Mg 0.37414 0.50613 0.36441 0.0
C158 C 0.41749 0.54524 0.34015 0.0
C159 C 0.42367 0.62888 0.37206 0.0
O160 O 0.40867 0.62519 0.35643 0.0
O161 O 0.42086 0.54583 0.39821 0.0
O162 O 0.40725 0.50431 0.38771 0.0
O163 O 0.36181 0.59288 0.36284 0.0
O164 O 0.36367 0.54906 0.37233 0.0
C165 C 0.42222 0.51943 0.39846 0.0
C166 C 0.35258 0.56792 0.36168 0.0
O167 O 0.42259 0.61125 0.38594 0.0
Mg168 Mg 0.42521 0.44217 0.88213 0.0
O169 O 0.43211 0.39534 0.88189 0.0
O170 O 0.40561 0.37635 0.90457 0.0
Mg171 Mg 0.38161 0.41116 0.91906 0.0
C172 C 0.42342 0.37426 0.89123 0.0
C173 C 0.4644 0.46346 0.84971 0.0
O174 O 0.47156 0.4802 0.86402 0.0
O175 O 0.38583 0.43765 0.86645 0.0
O176 O 0.35931 0.42161 0.89022 0.0
O177 O 0.45642 0.44668 0.9049 0.0
O178 O 0.41372 0.44054 0.91157 0.0
C179 C 0.36293 0.43045 0.87265 0.0
C180 C 0.4378 0.44292 0.91785 0.0
O181 O 0.44639 0.44556 0.85286 0.0
Mg182 Mg 0.08132 0.56303 0.88561 0.0
O183 O 0.0763 0.61006 0.88569 0.0
O184 O 0.10296 0.62757 0.90883 0.0
Mg185 Mg 0.12513 0.59143 0.92331 0.0
C186 C 0.08562 0.63061 0.89526 0.0
C187 C 0.04265 0.54248 0.85358 0.0
O188 O 0.03792 0.52431 0.86756 0.0
O189 O 0.12102 0.56632 0.87029 0.0
O190 O 0.14766 0.58068 0.89453 0.0
O191 O 0.04943 0.55932 0.90776 0.0
O192 O 0.09211 0.56347 0.91526 0.0
C193 C 0.14405 0.57244 0.87681 0.0
C194 C 0.06772 0.56188 0.92108 0.0
O195 O 0.05991 0.56122 0.85646 0.0
Mg196 Mg 0.93046 0.55511 0.61588 0.0
O197 O 0.93402 0.60219 0.61356 0.0
O198 O 0.91431 0.61573 0.58572 0.0
Mg199 Mg 0.89723 0.5771 0.57076 0.0
C200 C 0.92731 0.62112 0.60142 0.0
C201 C 0.93364 0.539 0.65948 0.0
O202 O 0.91779 0.51972 0.65249 0.0
O203 O 0.8872 0.55798 0.62455 0.0
O204 O 0.86751 0.56934 0.59619 0.0
O205 O 0.96795 0.55097 0.59888 0.0
O206 O 0.92776 0.55159 0.58549 0.0
C207 C 0.86636 0.56295 0.61447 0.0
C208 C 0.9532 0.55089 0.58322 0.0
O209 O 0.94277 0.55726 0.64783 0.0
Mg210 Mg 0.55983 0.44396 0.60833 0.0
O211 O 0.55389 0.39681 0.61 0.0
O212 O 0.57829 0.37793 0.58596 0.0
Mg213 Mg 0.59906 0.41246 0.56896 0.0
C214 C 0.56221 0.37571 0.60045 0.0
C215 C 0.55214 0.4685 0.64955 0.0
O216 O 0.57024 0.48508 0.64206 0.0
O217 O 0.60128 0.44104 0.62086 0.0
O218 O 0.62497 0.42373 0.59587 0.0
O219 O 0.52547 0.44687 0.58817 0.0
O220 O 0.56711 0.44107 0.5783 0.0
C221 C 0.62332 0.43342 0.61336 0.0
C222 C 0.5422 0.44268 0.57393 0.0
O223 O 0.543 0.44894 0.63902 0.0
H224 H 0.31384 0.96846 0.11476 0.0
H225 H 0.2782 0.97753 0.13818 0.0
H226 H 0.28062 0.89251 0.15741 0.0
H227 H 0.31756 0.88343 0.13464 0.0
H228 H 0.22747 0.92088 0.1443 0.0
H229 H 0.3018 0.92721 0.18744 0.0
H230 H 0.34688 0.9425 0.19642 0.0
H231 H 0.32079 0.0271 0.19705 0.0
H232 H 0.27594 0.0126 0.18671 0.0
H233 H 0.12037 0.97891 0.18846 0.0
H234 H 0.16012 0.95051 0.19351 0.0
H235 H 0.20945 0.02187 0.18189 0.0
H236 H 0.16989 0.05045 0.17823 0.0
H237 H 0.23798 0.98573 0.20053 0.0
H238 H 0.17899 0.98352 0.14314 0.0
H239 H 0.13556 0.9759 0.12704 0.0
H240 H 0.13455 0.89201 0.14806 0.0
H241 H 0.17786 0.89931 0.16449 0.0
C242 C 0.30725 0.95175 0.12415 0.0
C243 C 0.319 0.9254 0.12314 0.0
C244 C 0.28682 0.95697 0.13749 0.0
C245 C 0.27737 0.93581 0.14974 0.0
C246 C 0.2881 0.90914 0.14823 0.0
C247 C 0.30903 0.90402 0.13516 0.0
C248 C 0.2552 0.94183 0.16323 0.0
C249 C 0.2297 0.93423 0.15707 0.0
C250 C 0.25845 0.9599 0.17946 0.0
C251 C 0.28535 0.96874 0.18619 0.0
C252 C 0.30567 0.94912 0.18924 0.0
C253 C 0.33124 0.95765 0.19458 0.0
C254 C 0.33663 0.9857 0.19754 0.0
C255 C 0.31655 0.00534 0.19485 0.0
C256 C 0.29106 0.99698 0.18913 0.0
C257 C 0.13974 0.98871 0.18801 0.0
C258 C 0.14229 0.01656 0.18244 0.0
C259 C 0.16243 0.9725 0.19087 0.0
C260 C 0.18771 0.98378 0.18715 0.0
C261 C 0.19017 0.01255 0.18457 0.0
C262 C 0.16751 0.02893 0.18241 0.0
C263 C 0.21016 0.96578 0.18103 0.0
C264 C 0.23572 0.97123 0.18844 0.0
C265 C 0.20717 0.94664 0.1653 0.0
C266 C 0.1814 0.94204 0.15522 0.0
C267 C 0.16943 0.96348 0.14435 0.0
C268 C 0.14486 0.95924 0.13519 0.0
C269 C 0.13227 0.93351 0.13658 0.0
C270 C 0.14429 0.91195 0.14706 0.0
C271 C 0.16883 0.91613 0.1563 0.0
H272 H 0.11323 0.93027 0.1295 0.0
H273 H 0.35638 0.99223 0.20188 0.0
H274 H 0.67186 0.94232 0.32405 0.0
H275 H 0.71025 0.97307 0.32141 0.0
H276 H 0.65794 0.0422 0.31042 0.0
H277 H 0.6195 0.01155 0.31348 0.0
H278 H 0.73657 0.01655 0.30226 0.0
H279 H 0.66814 0.08674 0.34681 0.0
H280 H 0.62529 0.08541 0.36467 0.0
H281 H 0.63745 0.99939 0.37799 0.0
H282 H 0.68045 0.00035 0.36038 0.0
H283 H 0.82396 0.11234 0.35315 0.0
H284 H 0.78508 0.09839 0.33356 0.0
H285 H 0.7639 0.03881 0.37827 0.0
H286 H 0.80263 0.05232 0.39768 0.0
H287 H 0.72069 0.06952 0.36392 0.0
H288 H 0.79689 0.01613 0.34124 0.0
H289 H 0.84215 0.01197 0.32759 0.0
H290 H 0.81788 0.05624 0.27573 0.0
H291 H 0.77242 0.06087 0.28923 0.0
C292 C 0.66866 0.96377 0.31999 0.0
C293 C 0.6429 0.9749 0.31961 0.0
C294 C 0.69062 0.98135 0.31844 0.0
C295 C 0.6868 0.01001 0.31635 0.0
C296 C 0.66121 0.02019 0.31239 0.0
C297 C 0.63927 0.00272 0.31427 0.0
C298 C 0.70752 0.02894 0.32391 0.0
C299 C 0.73299 0.02873 0.31543 0.0
C300 C 0.70298 0.04429 0.34141 0.0
C301 C 0.67725 0.04356 0.35209 0.0
C302 C 0.66163 0.06758 0.35357 0.0
C303 C 0.63735 0.06689 0.36366 0.0
C304 C 0.62864 0.04232 0.37243 0.0
C305 C 0.6442 0.0184 0.37117 0.0
C306 C 0.6685 0.019 0.36113 0.0
C307 C 0.81067 0.09664 0.35891 0.0
C308 C 0.81618 0.08333 0.37688 0.0
C309 C 0.78865 0.08864 0.34769 0.0
C310 C 0.77181 0.06757 0.35451 0.0
C311 C 0.77669 0.05518 0.37284 0.0
C312 C 0.79881 0.06284 0.38387 0.0
C313 C 0.74973 0.05701 0.34237 0.0
C314 C 0.72401 0.05858 0.35016 0.0
C315 C 0.7543 0.04235 0.32464 0.0
C316 C 0.7814 0.03915 0.31633 0.0
C317 C 0.80126 0.02514 0.32699 0.0
C318 C 0.82695 0.02268 0.31927 0.0
C319 C 0.83296 0.03397 0.30084 0.0
C320 C 0.81322 0.04758 0.29004 0.0
C321 C 0.78748 0.05011 0.2977 0.0
H322 H 0.85288 0.03208 0.29491 0.0
H323 H 0.60983 0.04181 0.38021 0.0
H324 H 0.8741 0.9639 0.85053 0.0
H325 H 0.83253 0.98337 0.83799 0.0
H326 H 0.79131 0.95398 0.8897 0.0
H327 H 0.83239 0.93392 0.90209 0.0
H328 H 0.7586 0.95383 0.85894 0.0
H329 H 0.8222 0.0184 0.88876 0.0
H330 H 0.86592 0.04154 0.89042 0.0
H331 H 0.85524 0.07269 0.83167 0.0
H332 H 0.81156 0.04943 0.82962 0.0
H333 H 0.69105 0.07914 0.89831 0.0
H334 H 0.73261 0.05821 0.88751 0.0
H335 H 0.69346 0.02529 0.83604 0.0
H336 H 0.65149 0.04579 0.84691 0.0
H337 H 0.76647 0.05628 0.85688 0.0
H338 H 0.71409 0.95787 0.8314 0.0
H339 H 0.67057 0.93446 0.83434 0.0
H340 H 0.65879 0.97131 0.89129 0.0
H341 H 0.70234 0.99463 0.88875 0.0
C342 C 0.85603 0.96083 0.85896 0.0
C343 C 0.85672 0.94792 0.87757 0.0
C344 C 0.83229 0.97206 0.85177 0.0
C345 C 0.80899 0.97076 0.86315 0.0
C346 C 0.80909 0.9554 0.88071 0.0
C347 C 0.8327 0.94402 0.88784 0.0
C348 C 0.78564 0.98841 0.8586 0.0
C349 C 0.76035 0.97619 0.85802 0.0
C350 C 0.78785 0.01764 0.8576 0.0
C351 C 0.81383 0.03197 0.85896 0.0
C352 C 0.82925 0.0301 0.87619 0.0
C353 C 0.85401 0.04322 0.87719 0.0
C354 C 0.86339 0.0585 0.86114 0.0
C355 C 0.84798 0.06079 0.84408 0.0
C356 C 0.82323 0.04765 0.84298 0.0
C357 C 0.69132 0.06809 0.88442 0.0
C358 C 0.66774 0.06359 0.87375 0.0
C359 C 0.7152 0.05621 0.8782 0.0
C360 C 0.71598 0.03967 0.86121 0.0
C361 C 0.69316 0.03759 0.84939 0.0
C362 C 0.66919 0.04941 0.85563 0.0
C363 C 0.73944 0.0217 0.85774 0.0
C364 C 0.76474 0.03388 0.85688 0.0
C365 C 0.73724 0.99245 0.85792 0.0
C366 C 0.71124 0.97823 0.85975 0.0
C367 C 0.7022 0.9609 0.84455 0.0
C368 C 0.67755 0.94766 0.84615 0.0
C369 C 0.66188 0.95149 0.86296 0.0
C370 C 0.67089 0.96844 0.87825 0.0
C371 C 0.69554 0.98168 0.87674 0.0
H372 H 0.64279 0.94126 0.86415 0.0
H373 H 0.88257 0.06862 0.86194 0.0
H374 H 0.14277 0.95454 0.65076 0.0
H375 H 0.18482 0.97375 0.66259 0.0
H376 H 0.22491 0.94104 0.61139 0.0
H377 H 0.18333 0.9213 0.59971 0.0
H378 H 0.258 0.9418 0.64205 0.0
H379 H 0.19503 0.00589 0.61077 0.0
H380 H 0.15183 0.03004 0.60869 0.0
H381 H 0.16388 0.06419 0.66645 0.0
H382 H 0.20705 0.03997 0.66891 0.0
H383 H 0.32449 0.06307 0.59634 0.0
H384 H 0.28355 0.04343 0.60932 0.0
H385 H 0.32575 0.01362 0.66044 0.0
H386 H 0.36717 0.03275 0.64733 0.0
H387 H 0.25177 0.04439 0.64075 0.0
H388 H 0.30375 0.94766 0.66905 0.0
H389 H 0.34686 0.92337 0.66632 0.0
H390 H 0.35677 0.95456 0.60749 0.0
H391 H 0.31361 0.97874 0.60984 0.0
C392 C 0.16068 0.95069 0.64231 0.0
C393 C 0.15954 0.93695 0.62401 0.0
C394 C 0.1847 0.96176 0.6491 0.0
C395 C 0.20784 0.95942 0.63763 0.0
C396 C 0.20727 0.94325 0.62044 0.0
C397 C 0.18337 0.93207 0.61371 0.0
C398 C 0.23152 0.97687 0.64156 0.0
C399 C 0.25663 0.96423 0.64225 0.0
C400 C 0.22979 0.00617 0.64168 0.0
C401 C 0.20404 0.0209 0.64012 0.0
C402 C 0.18837 0.01845 0.62305 0.0
C403 C 0.16392 0.03214 0.6218 0.0
C404 C 0.15507 0.04857 0.63745 0.0
C405 C 0.17072 0.05141 0.65436 0.0
C406 C 0.19518 0.03771 0.65569 0.0
C407 C 0.32507 0.05293 0.61058 0.0
C408 C 0.34928 0.04891 0.62053 0.0
C409 C 0.30154 0.04182 0.61805 0.0
C410 C 0.30171 0.02654 0.63564 0.0
C411 C 0.32529 0.02495 0.64667 0.0
C412 C 0.34894 0.03597 0.63914 0.0
C413 C 0.27823 0.0093 0.64058 0.0
C414 C 0.25316 0.02199 0.64152 0.0
C415 C 0.27999 0.98004 0.64145 0.0
C416 C 0.30569 0.96524 0.63973 0.0
C417 C 0.31514 0.94925 0.65554 0.0
C418 C 0.33956 0.93552 0.65405 0.0
C419 C 0.35459 0.93751 0.63677 0.0
C420 C 0.34516 0.95311 0.62089 0.0
C421 C 0.32073 0.96682 0.62229 0.0
H422 H 0.37352 0.92691 0.63567 0.0
H423 H 0.13613 0.05915 0.63647 0.0
H424 H 0.85252 0.48639 0.12511 0.0
H425 H 0.80929 0.49924 0.13825 0.0
H426 H 0.79798 0.4161 0.15987 0.0
H427 H 0.84196 0.4031 0.14722 0.0
H428 H 0.7574 0.43641 0.13491 0.0
H429 H 0.80216 0.46337 0.19319 0.0
H430 H 0.83745 0.48532 0.21295 0.0
H431 H 0.815 0.56519 0.1907 0.0
H432 H 0.77981 0.54372 0.17055 0.0
H433 H 0.62985 0.48861 0.15104 0.0
H434 H 0.67137 0.46737 0.16191 0.0
H435 H 0.71381 0.54208 0.14671 0.0
H436 H 0.67215 0.56366 0.13633 0.0
H437 H 0.73695 0.51725 0.17751 0.0
H438 H 0.70443 0.48997 0.11281 0.0
H439 H 0.67155 0.47015 0.0898 0.0
H440 H 0.67368 0.39305 0.1213 0.0
H441 H 0.70634 0.41258 0.14465 0.0
C442 C 0.84128 0.47094 0.13306 0.0
C443 C 0.85082 0.44377 0.13523 0.0
C444 C 0.81655 0.47837 0.14063 0.0
C445 C 0.80073 0.45871 0.15029 0.0
C446 C 0.81016 0.4316 0.15267 0.0
C447 C 0.83517 0.42423 0.14535 0.0
C448 C 0.77315 0.46604 0.15553 0.0
C449 C 0.75273 0.45346 0.14475 0.0
C450 C 0.76739 0.48871 0.16801 0.0
C451 C 0.78835 0.50187 0.18029 0.0
C452 C 0.80483 0.4856 0.19241 0.0
C453 C 0.82482 0.49797 0.2037 0.0
C454 C 0.82849 0.52663 0.20307 0.0
C455 C 0.81212 0.54299 0.19119 0.0
C456 C 0.7921 0.53073 0.17985 0.0
C457 C 0.64793 0.50063 0.15026 0.0
C458 C 0.64796 0.52747 0.1423 0.0
C459 C 0.67162 0.48854 0.15662 0.0
C460 C 0.69573 0.50291 0.15465 0.0
C461 C 0.69542 0.53057 0.14829 0.0
C462 C 0.67164 0.54284 0.14226 0.0
C463 C 0.72143 0.48821 0.15634 0.0
C464 C 0.74145 0.49948 0.16831 0.0
C465 C 0.72706 0.46461 0.14465 0.0
C466 C 0.7075 0.45283 0.13061 0.0
C467 C 0.69772 0.46886 0.1149 0.0
C468 C 0.67916 0.45768 0.10179 0.0
C469 C 0.67045 0.43039 0.10413 0.0
C470 C 0.68037 0.41421 0.11954 0.0
C471 C 0.6989 0.42532 0.13272 0.0
H472 H 0.65608 0.42176 0.09397 0.0
H473 H 0.84401 0.53616 0.21179 0.0
H474 H 0.32904 0.60159 0.33416 0.0
H475 H 0.29219 0.58963 0.31199 0.0
H476 H 0.29261 0.50614 0.33459 0.0
H477 H 0.32847 0.51793 0.35692 0.0
H478 H 0.28135 0.50969 0.29278 0.0
H479 H 0.25418 0.55288 0.35808 0.0
H480 H 0.25483 0.59339 0.38031 0.0
H481 H 0.22766 0.64548 0.33311 0.0
H482 H 0.22705 0.60522 0.31061 0.0
H483 H 0.18659 0.43353 0.33613 0.0
H484 H 0.21993 0.45961 0.31798 0.0
H485 H 0.16219 0.524 0.30644 0.0
H486 H 0.12939 0.49849 0.32591 0.0
H487 H 0.19899 0.54617 0.32349 0.0
H488 H 0.20189 0.492 0.26743 0.0
H489 H 0.20024 0.45095 0.24592 0.0
H490 H 0.27199 0.41991 0.27218 0.0
H491 H 0.2739 0.46046 0.29411 0.0
C492 C 0.32146 0.58059 0.33419 0.0
C493 C 0.33163 0.5607 0.34735 0.0
C494 C 0.30068 0.57376 0.32136 0.0
C495 C 0.28998 0.54693 0.32151 0.0
C496 C 0.30099 0.52681 0.33395 0.0
C497 C 0.32143 0.53366 0.34685 0.0
C498 C 0.26439 0.54048 0.31191 0.0
C499 C 0.26308 0.51778 0.29905 0.0
C500 C 0.24065 0.55222 0.3192 0.0
C501 C 0.24076 0.57624 0.3327 0.0
C502 C 0.24841 0.57302 0.35248 0.0
C503 C 0.24878 0.5959 0.3651 0.0
C504 C 0.24134 0.62201 0.35811 0.0
C505 C 0.23346 0.62526 0.33849 0.0
C506 C 0.2331 0.60244 0.3258 0.0
C507 C 0.18088 0.45282 0.32915 0.0
C508 C 0.15586 0.46446 0.33271 0.0
C509 C 0.19984 0.46766 0.31848 0.0
C510 C 0.19373 0.49399 0.31074 0.0
C511 C 0.16754 0.50393 0.31238 0.0
C512 C 0.14886 0.48947 0.32359 0.0
C513 C 0.2158 0.51325 0.30575 0.0
C514 C 0.21656 0.53864 0.31589 0.0
C515 C 0.23884 0.50409 0.29562 0.0
C516 C 0.23809 0.4795 0.28241 0.0
C517 C 0.21729 0.4764 0.2687 0.0
C518 C 0.2163 0.45318 0.25642 0.0
C519 C 0.23602 0.43286 0.25766 0.0
C520 C 0.25678 0.43573 0.27118 0.0
C521 C 0.25787 0.4589 0.28351 0.0
H522 H 0.23521 0.41489 0.24814 0.0
H523 H 0.24164 0.6397 0.3679 0.0
H524 H 0.19656 0.57679 0.88683 0.0
H525 H 0.23383 0.55455 0.87051 0.0
H526 H 0.1826 0.52971 0.82265 0.0
H527 H 0.14482 0.55146 0.83921 0.0
H528 H 0.20612 0.48673 0.83607 0.0
H529 H 0.23799 0.57176 0.81386 0.0
H530 H 0.24932 0.62141 0.81419 0.0
H531 H 0.30751 0.60693 0.85934 0.0
H532 H 0.29628 0.55727 0.85953 0.0
H533 H 0.36187 0.45434 0.83593 0.0
H534 H 0.32366 0.47675 0.82045 0.0
H535 H 0.27281 0.44572 0.86672 0.0
H536 H 0.31051 0.42282 0.88193 0.0
H537 H 0.30015 0.51768 0.83655 0.0
H538 H 0.21026 0.44428 0.85614 0.0
H539 H 0.199 0.39486 0.85272 0.0
H540 H 0.25666 0.38637 0.8064 0.0
H541 H 0.26802 0.43585 0.80929 0.0
C542 C 0.19326 0.56733 0.87257 0.0
C543 C 0.16755 0.5655 0.86454 0.0
C544 C 0.21474 0.55473 0.86312 0.0
C545 C 0.21109 0.54039 0.8453 0.0
C546 C 0.18589 0.54055 0.83642 0.0
C547 C 0.16431 0.55306 0.84592 0.0
C548 C 0.2325 0.52183 0.83799 0.0
C549 C 0.22668 0.49353 0.83582 0.0
C550 C 0.25923 0.53078 0.83669 0.0
C551 C 0.26626 0.56069 0.83669 0.0
C552 C 0.25311 0.57916 0.82394 0.0
C553 C 0.25953 0.60732 0.82403 0.0
C554 C 0.27913 0.61731 0.83677 0.0
C555 C 0.29237 0.59915 0.84944 0.0
C556 C 0.28603 0.57096 0.84942 0.0
C557 C 0.34238 0.45146 0.84245 0.0
C558 C 0.33936 0.43722 0.86043 0.0
C559 C 0.32055 0.46437 0.83356 0.0
C560 C 0.29533 0.4631 0.84242 0.0
C561 C 0.29192 0.44674 0.85936 0.0
C562 C 0.31365 0.43376 0.86818 0.0
C563 C 0.27381 0.48244 0.83644 0.0
C564 C 0.2796 0.5109 0.83607 0.0
C565 C 0.24705 0.47366 0.83488 0.0
C566 C 0.24002 0.44388 0.83295 0.0
C567 C 0.22039 0.43198 0.84509 0.0
C568 C 0.21403 0.40391 0.84328 0.0
C569 C 0.22711 0.38749 0.82936 0.0
C570 C 0.24657 0.3991 0.8172 0.0
C571 C 0.25301 0.42716 0.81894 0.0
H572 H 0.22216 0.36576 0.82799 0.0
H573 H 0.28406 0.63913 0.83682 0.0
H574 H 0.67131 0.40703 0.61138 0.0
H575 H 0.71419 0.4257 0.62197 0.0
H576 H 0.67414 0.49648 0.64724 0.0
H577 H 0.63142 0.47689 0.63798 0.0
H578 H 0.73286 0.46744 0.60632 0.0
H579 H 0.7131 0.53531 0.67615 0.0
H580 H 0.68869 0.53203 0.70759 0.0
H581 H 0.69248 0.44329 0.70492 0.0
H582 H 0.71732 0.446 0.67362 0.0
H583 H 0.81721 0.57681 0.60029 0.0
H584 H 0.7751 0.55508 0.60932 0.0
H585 H 0.81395 0.51152 0.65673 0.0
H586 H 0.85605 0.53368 0.64817 0.0
H587 H 0.76025 0.52191 0.66489 0.0
H588 H 0.81393 0.48124 0.61415 0.0
H589 H 0.84064 0.48164 0.58365 0.0
H590 H 0.77228 0.50799 0.55065 0.0
H591 H 0.74527 0.50818 0.58104 0.0
C592 C 0.6717 0.426 0.61989 0.0
C593 C 0.64814 0.44063 0.62371 0.0
C594 C 0.69618 0.43675 0.62589 0.0
C595 C 0.69756 0.46268 0.6353 0.0
C596 C 0.6738 0.47624 0.64039 0.0
C597 C 0.64928 0.46507 0.63494 0.0
C598 C 0.72337 0.47763 0.63652 0.0
C599 C 0.73884 0.47896 0.6193 0.0
C600 C 0.7315 0.49276 0.6534 0.0
C601 C 0.71696 0.49088 0.67243 0.0
C602 C 0.70891 0.51509 0.68232 0.0
C603 C 0.69495 0.51333 0.70011 0.0
C604 C 0.689 0.48747 0.70822 0.0
C605 C 0.69705 0.46331 0.69858 0.0
C606 C 0.71105 0.46495 0.6808 0.0
C607 C 0.81665 0.56334 0.61305 0.0
C608 C 0.8401 0.55643 0.62318 0.0
C609 C 0.79256 0.55096 0.61821 0.0
C610 C 0.79165 0.53115 0.63335 0.0
C611 C 0.81431 0.52662 0.64493 0.0
C612 C 0.8384 0.53926 0.63993 0.0
C613 C 0.76878 0.51194 0.63464 0.0
C614 C 0.7541 0.50992 0.65217 0.0
C615 C 0.7616 0.49547 0.61826 0.0
C616 C 0.77765 0.49493 0.59989 0.0
C617 C 0.80464 0.48727 0.6004 0.0
C618 C 0.81983 0.48739 0.58314 0.0
C619 C 0.80817 0.49489 0.56522 0.0
C620 C 0.78128 0.50221 0.56454 0.0
C621 C 0.76602 0.50219 0.58177 0.0
H622 H 0.81996 0.49497 0.55187 0.0
H623 H 0.6782 0.48618 0.72199 0.0
H624 H 0.89157 0.00502 0.3336 0.0
H625 H 0.9125 0.99974 0.30132 0.0
H626 H 0.93957 0.08442 0.30373 0.0
H627 H 0.91845 0.09005 0.33597 0.0
H628 H 0.92005 0.06876 0.26637 0.0
H629 H 0.98132 0.03573 0.31599 0.0
H630 H 0.99472 0.00709 0.3444 0.0
H631 H 0.97842 0.93321 0.31131 0.0
H632 H 0.96456 0.96145 0.28279 0.0
H633 H 0.02857 0.06768 0.19958 0.0
H634 H -0.00264 0.07226 0.22691 0.0
H635 H 0.98312 0.98414 0.22566 0.0
H636 H 0.01494 0.97925 0.19867 0.0
H637 H 0.99304 0.99985 0.26148 0.0
H638 H 0.93506 0.03218 0.21078 0.0
H639 H 0.92153 0.06038 0.18221 0.0
H640 H 0.93086 0.13457 0.21639 0.0
H641 H 0.94477 0.10682 0.24514 0.0
C642 C 0.9017 0.02264 0.3272 0.0
C643 C 0.90347 0.04792 0.33741 0.0
C644 C 0.91369 0.01955 0.30877 0.0
C645 C 0.92771 0.04164 0.30026 0.0
C646 C 0.92879 0.06715 0.31008 0.0
C647 C 0.91689 0.07025 0.32856 0.0
C648 C 0.94264 0.03762 0.28171 0.0
C649 C 0.93615 0.05387 0.26526 0.0
C650 C 0.96316 0.01769 0.28024 0.0
C651 C 0.97162 0.0007 0.29734 0.0
C652 C 0.98038 0.01338 0.31483 0.0
C653 C 0.9881 0.99722 0.33094 0.0
C654 C 0.98735 0.96835 0.32968 0.0
C655 C 0.97895 0.95558 0.31228 0.0
C656 C 0.97117 0.97165 0.29614 0.0
C657 C 0.01855 0.0493 0.20493 0.0
C658 C 0.02437 0.02306 0.19702 0.0
C659 C 0.00057 0.05198 0.2205 0.0
C660 C 0.9877 0.02857 0.22823 0.0
C661 C 0.99285 0.00248 0.21994 0.0
C662 C 0.01104 0.99973 0.20451 0.0
C663 C 0.97057 0.03101 0.24595 0.0
C664 C 0.97672 0.01453 0.26236 0.0
C665 C 0.94968 0.05063 0.24729 0.0
C666 C 0.94115 0.06741 0.23008 0.0
C667 C 0.9344 0.05452 0.21218 0.0
C668 C 0.92663 0.07042 0.19596 0.0
C669 C 0.92538 0.09925 0.19748 0.0
C670 C 0.93184 0.11223 0.21524 0.0
C671 C 0.93963 0.09642 0.23152 0.0
H672 H 0.91932 0.1115 0.1849 0.0
H673 H 0.99333 0.95588 0.34217 0.0
H674 H 0.43712 0.91687 0.15238 0.0
H675 H 0.45933 0.91725 0.18441 0.0
H676 H 0.41065 0.98619 0.20274 0.0
H677 H 0.38829 0.98601 0.1708 0.0
H678 H 0.4887 0.95902 0.19985 0.0
H679 H 0.40026 0.98173 0.25167 0.0
H680 H 0.35251 0.97071 0.25496 0.0
H681 H 0.3641 0.89541 0.2224 0.0
H682 H 0.41188 0.90602 0.21888 0.0
H683 H 0.53507 0.01191 0.29016 0.0
H684 H 0.50646 0.00613 0.26137 0.0
H685 H 0.48815 0.92272 0.27952 0.0
H686 H 0.51684 0.92816 0.30839 0.0
H687 H 0.44348 0.95308 0.26478 0.0
H688 H 0.53331 0.92882 0.24705 0.0
H689 H 0.5817 0.93662 0.24472 0.0
H690 H 0.56826 0.00892 0.20924 0.0
H691 H 0.51974 0.00177 0.21162 0.0
C692 C 0.43099 0.93201 0.16326 0.0
C693 C 0.41101 0.95151 0.15899 0.0
C694 C 0.44371 0.93219 0.18154 0.0
C695 C 0.4365 0.95162 0.19595 0.0
C696 C 0.41627 0.9708 0.19189 0.0
C697 C 0.40366 0.97077 0.17357 0.0
C698 C 0.45127 0.95299 0.21477 0.0
C699 C 0.4788 0.95764 0.21403 0.0
C700 C 0.43837 0.95102 0.23325 0.0
C701 C 0.40959 0.94476 0.23493 0.0
C702 C 0.3926 0.96282 0.24523 0.0
C703 C 0.36554 0.95665 0.24712 0.0
C704 C 0.3553 0.93233 0.23895 0.0
C705 C 0.37207 0.91421 0.22876 0.0
C706 C 0.39911 0.92038 0.2267 0.0
C707 C 0.5247 0.99244 0.28822 0.0
C708 C 0.52843 0.97039 0.30148 0.0
C709 C 0.50841 0.98919 0.27174 0.0
C710 C 0.49545 0.96394 0.26831 0.0
C711 C 0.49804 0.94235 0.28198 0.0
C712 C 0.51454 0.94547 0.29838 0.0
C713 C 0.48072 0.95949 0.24976 0.0
C714 C 0.45328 0.95441 0.25056 0.0
C715 C 0.49373 0.96072 0.2313 0.0
C716 C 0.5229 0.96491 0.22967 0.0
C717 C 0.54067 0.9465 0.23888 0.0
C718 C 0.56812 0.95079 0.23753 0.0
C719 C 0.57804 0.97329 0.22688 0.0
C720 C 0.56054 0.99152 0.21751 0.0
C721 C 0.53306 0.98735 0.21884 0.0
H722 H 0.5993 0.97658 0.22585 0.0
H723 H 0.33435 0.92759 0.24043 0.0
H724 H 0.01623 0.01461 0.66426 0.0
H725 H -0.00101 0.01868 0.69787 0.0
H726 H 0.02846 0.93688 0.71124 0.0
H727 H 0.04542 0.93247 0.67769 0.0
H728 H 0.97849 0.94398 0.72463 0.0
H729 H 0.06135 0.99429 0.72674 0.0
H730 H 0.0934 0.02999 0.71618 0.0
H731 H 0.03663 0.09372 0.72966 0.0
H732 H 0.00408 0.05835 0.74005 0.0
H733 H 0.98189 0.94131 0.82808 0.0
H734 H 0.99445 0.94254 0.79336 0.0
H735 H 0.95738 0.02264 0.78719 0.0
H736 H 0.94468 0.02165 0.82207 0.0
H737 H 0.00738 0.01949 0.7694 0.0
H738 H 0.92572 0.96893 0.76969 0.0
H739 H 0.89417 0.933 0.78064 0.0
H740 H 0.94898 0.86951 0.76281 0.0
H741 H 0.98105 0.90508 0.75202 0.0
C742 C 0.01903 0.99749 0.67436 0.0
C743 C 0.03224 0.97324 0.66833 0.0
C744 C 0.00925 0.99989 0.69356 0.0
C745 C 0.01265 0.97816 0.70707 0.0
C746 C 0.02561 0.95387 0.70103 0.0
C747 C 0.03537 0.95144 0.68186 0.0
C748 C 0.00272 0.98055 0.72753 0.0
C749 C 0.98499 0.96035 0.73448 0.0
C750 C 0.01062 0.00238 0.74016 0.0
C751 C 0.03018 0.02366 0.73396 0.0
C752 C 0.05562 0.01591 0.72729 0.0
C753 C 0.07389 0.03608 0.72137 0.0
C754 C 0.06703 0.0641 0.72219 0.0
C755 C 0.0419 0.07201 0.72899 0.0
C756 C 0.02353 0.05191 0.73491 0.0
C757 C 0.97645 0.95925 0.81939 0.0
C758 C 0.96221 0.98136 0.8278 0.0
C759 C 0.98355 0.95986 0.79953 0.0
C760 C 0.97655 0.98253 0.78771 0.0
C761 C 0.96286 0.00493 0.79611 0.0
C762 C 0.95559 0.00428 0.816 0.0
C763 C 0.9836 0.98262 0.76656 0.0
C764 C 0.00071 0.00329 0.75948 0.0
C765 C 0.97518 0.96118 0.7538 0.0
C766 C 0.95589 0.9397 0.76019 0.0
C767 C 0.93114 0.94731 0.76824 0.0
C768 C 0.91315 0.927 0.7744 0.0
C769 C 0.91959 0.89899 0.77246 0.0
C770 C 0.94403 0.89122 0.76432 0.0
C771 C 0.96211 0.91145 0.75816 0.0
H772 H 0.90563 0.88329 0.77723 0.0
H773 H 0.0812 0.07969 0.7176 0.0
H774 H 0.47635 0.06539 0.66896 0.0
H775 H 0.49378 0.06474 0.7025 0.0
H776 H 0.46727 0.98033 0.70946 0.0
H777 H 0.44926 0.98096 0.67597 0.0
H778 H 0.45558 0.01076 0.74141 0.0
H779 H 0.53284 0.99481 0.70154 0.0
H780 H 0.56454 0.00417 0.6746 0.0
H781 H 0.5831 0.08324 0.70007 0.0
H782 H 0.55125 0.07451 0.72704 0.0
H783 H 0.52952 0.98727 0.8294 0.0
H784 H 0.51242 0.98406 0.79575 0.0
H785 H 0.53583 0.06868 0.785 0.0
H786 H 0.55328 0.07197 0.81848 0.0
H787 H 0.54967 0.03548 0.75483 0.0
H788 H 0.47126 0.05225 0.79387 0.0
H789 H 0.43929 0.04326 0.8207 0.0
H790 H 0.42285 0.96278 0.79672 0.0
H791 H 0.45501 0.97115 0.76988 0.0
C792 C 0.47423 0.04666 0.6776 0.0
C793 C 0.46154 0.02316 0.66977 0.0
C794 C 0.4843 0.04629 0.69674 0.0
C795 C 0.48217 0.02234 0.70835 0.0
C796 C 0.4692 0.99898 0.7007 0.0
C797 C 0.45899 0.99936 0.68155 0.0
C798 C 0.4933 0.02186 0.72854 0.0
C799 C 0.47626 0.01572 0.74433 0.0
C800 C 0.52015 0.02887 0.73235 0.0
C801 C 0.53949 0.03409 0.71622 0.0
C802 C 0.54355 0.01427 0.70133 0.0
C803 C 0.56157 0.01945 0.68606 0.0
C804 C 0.57578 0.04431 0.6856 0.0
C805 C 0.57206 0.064 0.70044 0.0
C806 C 0.55405 0.05894 0.71573 0.0
C807 C 0.53104 0.00519 0.81988 0.0
C808 C 0.54269 0.0299 0.82662 0.0
C809 C 0.52117 0.00335 0.80068 0.0
C810 C 0.52264 0.02623 0.78797 0.0
C811 C 0.53451 0.05079 0.7946 0.0
C812 C 0.54441 0.05265 0.81375 0.0
C813 C 0.51189 0.02464 0.7677 0.0
C814 C 0.52903 0.03036 0.75189 0.0
C815 C 0.48514 0.01725 0.76389 0.0
C816 C 0.46575 0.01221 0.77999 0.0
C817 C 0.46099 0.03254 0.79441 0.0
C818 C 0.4428 0.02758 0.8096 0.0
C819 C 0.4291 0.00243 0.81045 0.0
C820 C 0.43351 0.98223 0.79607 0.0
C821 C 0.4517 0.98708 0.78085 0.0
H822 H 0.41503 0.99863 0.82222 0.0
H823 H 0.58971 0.04828 0.67376 0.0
H824 H 0.53207 0.58023 0.16925 0.0
H825 H 0.51041 0.59173 0.20057 0.0
H826 H 0.53281 0.51201 0.22395 0.0
H827 H 0.55442 0.5003 0.19291 0.0
H828 H 0.46895 0.56501 0.21908 0.0
H829 H 0.54918 0.51936 0.27189 0.0
H830 H 0.59802 0.51476 0.27329 0.0
H831 H 0.6066 0.5851 0.23511 0.0
H832 H 0.55785 0.5904 0.23372 0.0
H833 H 0.41757 0.51312 0.30706 0.0
H834 H 0.44302 0.52029 0.2769 0.0
H835 H 0.48007 0.59247 0.30233 0.0
H836 H 0.45456 0.58558 0.33272 0.0
H837 H 0.51589 0.55687 0.28319 0.0
H838 H 0.43511 0.60402 0.26977 0.0
H839 H 0.38646 0.61037 0.26858 0.0
H840 H 0.37967 0.5424 0.2281 0.0
H841 H 0.42825 0.53533 0.22928 0.0
C842 C 0.53244 0.56517 0.18108 0.0
C843 C 0.54495 0.53932 0.17857 0.0
C844 C 0.52006 0.5718 0.19893 0.0
C845 C 0.52036 0.55286 0.21459 0.0
C846 C 0.53276 0.52708 0.21211 0.0
C847 C 0.54493 0.52036 0.19429 0.0
C848 C 0.5068 0.55922 0.23337 0.0
C849 C 0.47922 0.56355 0.2331 0.0
C850 C 0.52041 0.55795 0.2516 0.0
C851 C 0.54981 0.55516 0.25261 0.0
C852 C 0.56148 0.53396 0.26389 0.0
C853 C 0.58916 0.5312 0.26466 0.0
C854 C 0.6054 0.54959 0.25426 0.0
C855 C 0.594 0.57082 0.24311 0.0
C856 C 0.56634 0.57368 0.2423 0.0
C857 C 0.4312 0.53047 0.30634 0.0
C858 C 0.43399 0.5488 0.32229 0.0
C859 C 0.4456 0.53461 0.28904 0.0
C860 C 0.4631 0.55709 0.28737 0.0
C861 C 0.46651 0.57509 0.30337 0.0
C862 C 0.45191 0.57111 0.32068 0.0
C863 C 0.47794 0.5613 0.26884 0.0
C864 C 0.50573 0.55893 0.26916 0.0
C865 C 0.46458 0.56473 0.25066 0.0
C866 C 0.43535 0.56906 0.2497 0.0
C867 C 0.42323 0.5903 0.26071 0.0
C868 C 0.39567 0.59405 0.26003 0.0
C869 C 0.37998 0.57678 0.24829 0.0
C870 C 0.39185 0.55576 0.23718 0.0
C871 C 0.41941 0.5519 0.23783 0.0
H872 H 0.35864 0.57971 0.24778 0.0
H873 H 0.62682 0.54741 0.25486 0.0
H874 H 0.04261 0.43156 0.32561 0.0
H875 H 0.01484 0.43022 0.29619 0.0
H876 H 0.01928 0.51912 0.29144 0.0
H877 H 0.04739 0.52082 0.32086 0.0
H878 H 0.96697 0.49299 0.28177 0.0
H879 H 0.06122 0.4886 0.26659 0.0
H880 H 0.10648 0.46972 0.27067 0.0
H881 H 0.07877 0.38916 0.25346 0.0
H882 H 0.0332 0.40749 0.24964 0.0
H883 H 0.93946 0.51015 0.18026 0.0
H884 H 0.95824 0.5119 0.21335 0.0
H885 H 0.97221 0.42374 0.21153 0.0
H886 H 0.95408 0.42189 0.17817 0.0
H887 H 0.01403 0.44909 0.22549 0.0
H888 H 0.92081 0.45212 0.23906 0.0
H889 H 0.87464 0.46887 0.23618 0.0
H890 H 0.89861 0.54909 0.2569 0.0
H891 H 0.94503 0.53288 0.25973 0.0
C892 C 0.03729 0.45094 0.31861 0.0
C893 C 0.04758 0.47629 0.32542 0.0
C894 C 0.02139 0.45009 0.30181 0.0
C895 C 0.01535 0.47453 0.29164 0.0
C896 C 0.02383 0.50007 0.29917 0.0
C897 C 0.03998 0.50095 0.3159 0.0
C898 C 0.00292 0.47304 0.27201 0.0
C899 C 0.97725 0.4837 0.26936 0.0
C900 C 0.01628 0.46029 0.25608 0.0
C901 C 0.04376 0.44935 0.25803 0.0
C902 C 0.06473 0.46681 0.26384 0.0
C903 C 0.09045 0.45622 0.26608 0.0
C904 C 0.09548 0.42824 0.26237 0.0
C905 C 0.07483 0.41082 0.25635 0.0
C906 C 0.04906 0.4213 0.25414 0.0
C907 C 0.94647 0.49109 0.18689 0.0
C908 C 0.94526 0.46586 0.17658 0.0
C909 C 0.95705 0.49212 0.20587 0.0
C910 C 0.96623 0.46788 0.21503 0.0
C911 C 0.96516 0.44268 0.20475 0.0
C912 C 0.95481 0.44167 0.18568 0.0
C913 C 0.97783 0.46899 0.23506 0.0
C914 C 0.00352 0.45832 0.23782 0.0
C915 C 0.96433 0.4815 0.2511 0.0
C916 C 0.93644 0.49135 0.24944 0.0
C917 C 0.91628 0.4734 0.24286 0.0
C918 C 0.89005 0.48279 0.24126 0.0
C919 C 0.8837 0.51006 0.24629 0.0
C920 C 0.90357 0.52798 0.25298 0.0
C921 C 0.92983 0.51869 0.25462 0.0
H922 H 0.86338 0.51727 0.24508 0.0
H923 H 0.1154 0.42007 0.26412 0.0
H924 H 0.571 0.50503 0.67698 0.0
H925 H 0.55745 0.50917 0.71149 0.0
H926 H 0.5002 0.44364 0.70325 0.0
H927 H 0.51342 0.43948 0.66875 0.0
H928 H 0.47966 0.48716 0.72405 0.0
H929 H 0.55894 0.43018 0.72471 0.0
H930 H 0.606 0.42003 0.71733 0.0
H931 H 0.63016 0.49093 0.75105 0.0
H932 H 0.58316 0.50169 0.75845 0.0
H933 H 0.45187 0.43348 0.817 0.0
H934 H 0.46869 0.43965 0.78363 0.0
H935 H 0.51949 0.50596 0.80353 0.0
H936 H 0.50279 0.49986 0.83724 0.0
H937 H 0.54483 0.4694 0.77754 0.0
H938 H 0.46524 0.52304 0.78005 0.0
H939 H 0.41806 0.53246 0.78746 0.0
H940 H 0.39434 0.46795 0.74763 0.0
H941 H 0.44141 0.45784 0.7402 0.0
C942 C 0.55542 0.4916 0.68248 0.0
C943 C 0.54334 0.47184 0.67017 0.0
C944 C 0.54779 0.49394 0.70221 0.0
C945 C 0.528 0.47655 0.70991 0.0
C946 C 0.51551 0.45725 0.69755 0.0
C947 C 0.52316 0.45484 0.67786 0.0
C948 C 0.52052 0.47791 0.73096 0.0
C949 C 0.49385 0.48314 0.73575 0.0
C950 C 0.53928 0.4735 0.74619 0.0
C951 C 0.56754 0.46691 0.74195 0.0
C952 C 0.57428 0.44372 0.73043 0.0
C953 C 0.60093 0.43783 0.72627 0.0
C954 C 0.62105 0.45487 0.73367 0.0
C955 C 0.61455 0.47778 0.74531 0.0
C956 C 0.58791 0.48377 0.74951 0.0
C957 C 0.4667 0.44933 0.81437 0.0
C958 C 0.47585 0.46634 0.82975 0.0
C959 C 0.47622 0.45287 0.79527 0.0
C960 C 0.495 0.47353 0.79111 0.0
C961 C 0.50487 0.49 0.80648 0.0
C962 C 0.49528 0.48651 0.82568 0.0
C963 C 0.50381 0.47792 0.77057 0.0
C964 C 0.53071 0.47385 0.76587 0.0
C965 C 0.48526 0.4834 0.75538 0.0
C966 C 0.45688 0.48956 0.75967 0.0
C967 C 0.44997 0.51072 0.77297 0.0
C968 C 0.42325 0.51621 0.77716 0.0
C969 C 0.40322 0.50078 0.76805 0.0
C970 C 0.40988 0.47988 0.75468 0.0
C971 C 0.43658 0.47429 0.75046 0.0
H972 H 0.38254 0.50505 0.77132 0.0
H973 H 0.64167 0.45024 0.73044 0.0
H974 H 0.04621 0.57857 0.8228 0.0
H975 H 0.02245 0.57667 0.79153 0.0
H976 H 0.98219 0.50232 0.81033 0.0
H977 H 0.00614 0.50388 0.84173 0.0
H978 H 0.0021 0.49796 0.77302 0.0
H979 H 0.94854 0.56187 0.80904 0.0
H980 H 0.93975 0.60262 0.82997 0.0
H981 H 0.97137 0.65603 0.78513 0.0
H982 H 0.98075 0.61557 0.76404 0.0
H983 H 0.91925 0.50186 0.68795 0.0
H984 H 0.93291 0.50156 0.72254 0.0
H985 H 0.97854 0.57605 0.71307 0.0
H986 H 0.96482 0.57669 0.67857 0.0
H987 H 0.9505 0.57794 0.7475 0.0
H988 H 0.0089 0.51419 0.71362 0.0
H989 H 0.01945 0.47372 0.69287 0.0
H990 H 0.9795 0.42033 0.73394 0.0
H991 H 0.96841 0.46058 0.75481 0.0
C992 C 0.03226 0.56182 0.82035 0.0
C993 C 0.02803 0.54137 0.83475 0.0
C994 C 0.01859 0.56087 0.80251 0.0
C995 C 0.00033 0.53956 0.79876 0.0
C996 C 0.99613 0.51899 0.81302 0.0
C997 C 0.00979 0.51995 0.83094 0.0
C998 C 0.98639 0.53843 0.77962 0.0
C999 C 0.99032 0.51518 0.76758 0.0
C1000 C 0.97147 0.56116 0.77248 0.0
C1001 C 0.96552 0.58563 0.78501 0.0
C1002 C 0.95378 0.58229 0.80369 0.0
C1003 C 0.94868 0.60534 0.81558 0.0
C1004 C 0.95504 0.63189 0.8089 0.0
C1005 C 0.96646 0.63545 0.79029 0.0
C1006 C 0.97164 0.61246 0.77835 0.0
C1007 C 0.9321 0.51824 0.69325 0.0
C1008 C 0.94112 0.5392 0.6805 0.0
C1009 C 0.9399 0.51801 0.71299 0.0
C1010 C 0.9569 0.53865 0.72027 0.0
C1011 C 0.96539 0.55995 0.70771 0.0
C1012 C 0.95763 0.5602 0.68799 0.0
C1013 C 0.96663 0.53768 0.74081 0.0
C1014 C 0.96191 0.56054 0.75308 0.0
C1015 C 0.98088 0.51463 0.74817 0.0
C1016 C 0.98755 0.49042 0.73565 0.0
C1017 C 0.00217 0.49385 0.71814 0.0
C1018 C 0.00829 0.47095 0.70637 0.0
C1019 C 8e-05 0.44448 0.71205 0.0
C1020 C 0.9858 0.44085 0.72953 0.0
C1021 C 0.9796 0.4637 0.74134 0.0
H1022 H 0.00484 0.42677 0.70292 0.0
H1023 H 0.9511 0.64971 0.81812 0.0
H1024 H 0.05314 0.14207 0.15645 0.0
H1025 H 0.03628 0.18894 0.1515 0.0
H1026 H 0.04089 0.17785 0.08849 0.0
H1027 H 0.05843 0.13107 0.09332 0.0
H1028 H 0.0593 0.22748 0.09865 0.0
H1029 H 0.98107 0.17443 0.11301 0.0
H1030 H 0.95316 0.14198 0.132 0.0
H1031 H 0.95576 0.19648 0.18197 0.0
H1032 H 0.98399 0.22911 0.16336 0.0
H1033 H 0.97508 0.34205 0.07413 0.0
H1034 H 0.99573 0.29649 0.07795 0.0
H1035 H 0.99617 0.30699 0.14108 0.0
H1036 H 0.9754 0.35242 0.13745 0.0
H1037 H 0.975 0.25758 0.13017 0.0
H1038 H 0.05335 0.3107 0.11534 0.0
H1039 H 0.08099 0.34295 0.09598 0.0
H1040 H 0.07739 0.28812 0.04623 0.0
H1041 H 0.04941 0.2557 0.06522 0.0
C1042 C 0.05053 0.14955 0.14153 0.0
C1043 C 0.05702 0.13281 0.12527 0.0
C1044 C 0.0408 0.17633 0.13873 0.0
C1045 C 0.03697 0.18676 0.11962 0.0
C1046 C 0.04365 0.17019 0.10336 0.0
C1047 C 0.05359 0.14345 0.10615 0.0
C1048 C 0.02608 0.21499 0.11667 0.0
C1049 C 0.04067 0.23395 0.1053 0.0
C1050 C 0.00203 0.22357 0.12567 0.0
C1051 C 0.98485 0.2041 0.13684 0.0
C1052 C 0.97584 0.17941 0.12809 0.0
C1053 C 0.95994 0.161 0.13878 0.0
C1054 C 0.95275 0.16714 0.15819 0.0
C1055 C 0.96137 0.19174 0.16694 0.0
C1056 C 0.9773 0.21022 0.15632 0.0
C1057 C 0.97984 0.33481 0.08882 0.0
C1058 C 0.97349 0.35081 0.10549 0.0
C1059 C 0.99171 0.3088 0.09097 0.0
C1060 C -0.00249 0.29842 0.1098 0.0
C1061 C 0.99178 0.31462 0.12643 0.0
C1062 C 0.97999 0.34062 0.1243 0.0
C1063 C 0.00832 0.2701 0.11228 0.0
C1064 C 0.99363 0.25109 0.12351 0.0
C1065 C 0.03218 0.26147 0.10307 0.0
C1066 C 0.04905 0.2809 0.09164 0.0
C1067 C 0.05826 0.30563 0.10022 0.0
C1068 C 0.07403 0.32392 0.08933 0.0
C1069 C 0.08088 0.31763 0.06987 0.0
C1070 C 0.07204 0.29299 0.06129 0.0
C1071 C 0.05624 0.27463 0.07212 0.0
H1072 H 0.09309 0.33181 0.06146 0.0
H1073 H 0.94045 0.15286 0.16644 0.0
H1074 H 0.46196 0.86024 0.10804 0.0
H1075 H 0.48981 0.81929 0.11274 0.0
H1076 H 0.44083 0.77371 0.07184 0.0
H1077 H 0.41266 0.81443 0.06725 0.0
H1078 H 0.44807 0.74557 0.10547 0.0
H1079 H 0.50361 0.79433 0.05943 0.0
H1080 H 0.52905 0.83418 0.04673 0.0
H1081 H 0.57875 0.83274 0.09817 0.0
H1082 H 0.55337 0.7931 0.11131 0.0
H1083 H 0.5269 0.626 0.09466 0.0
H1084 H 0.5035 0.66932 0.08818 0.0
H1085 H 0.55252 0.71106 0.13106 0.0
H1086 H 0.5763 0.66774 0.13756 0.0
H1087 H 0.54611 0.74168 0.09716 0.0
H1088 H 0.49093 0.69345 0.14328 0.0
H1089 H 0.46562 0.65378 0.15639 0.0
H1090 H 0.4152 0.65474 0.10533 0.0
H1091 H 0.44047 0.69418 0.09176 0.0
C1092 C 0.45729 0.8416 0.09986 0.0
C1093 C 0.43502 0.84054 0.08733 0.0
C1094 C 0.47329 0.81824 0.10252 0.0
C1095 C 0.46745 0.7935 0.09257 0.0
C1096 C 0.44565 0.7926 0.07968 0.0
C1097 C 0.42962 0.81592 0.07704 0.0
C1098 C 0.48306 0.76806 0.09648 0.0
C1099 C 0.46946 0.7446 0.10336 0.0
C1100 C 0.51106 0.76713 0.09435 0.0
C1101 C 0.52641 0.79091 0.08644 0.0
C1102 C 0.51982 0.80265 0.06811 0.0
C1103 C 0.53426 0.82518 0.06082 0.0
C1104 C 0.55546 0.83604 0.07166 0.0
C1105 C 0.56231 0.82434 0.0898 0.0
C1106 C 0.54792 0.80182 0.09717 0.0
C1107 C 0.53278 0.64437 0.10272 0.0
C1108 C 0.55338 0.64339 0.11671 0.0
C1109 C 0.51933 0.6691 0.09902 0.0
C1110 C 0.52611 0.69329 0.1093 0.0
C1111 C 0.54699 0.69257 0.123 0.0
C1112 C 0.56046 0.66779 0.12675 0.0
C1113 C 0.51104 0.71918 0.10589 0.0
C1114 C 0.52472 0.74271 0.09922 0.0
C1115 C 0.48309 0.72026 0.10826 0.0
C1116 C 0.46776 0.69661 0.11642 0.0
C1117 C 0.47458 0.68506 0.13477 0.0
C1118 C 0.46022 0.66264 0.14229 0.0
C1119 C 0.43886 0.6517 0.13167 0.0
C1120 C 0.43178 0.66321 0.11353 0.0
C1121 C 0.4461 0.68562 0.10592 0.0
H1122 H 0.42776 0.63434 0.13753 0.0
H1123 H 0.56661 0.85348 0.06599 0.0
H1124 H 0.42728 0.6715 0.34599 0.0
H1125 H 0.45665 0.7115 0.34748 0.0
H1126 H 0.49018 0.6813 0.40192 0.0
H1127 H 0.46029 0.64119 0.40075 0.0
H1128 H 0.48018 0.73612 0.40376 0.0
H1129 H 0.52519 0.67575 0.35945 0.0
H1130 H 0.52944 0.64403 0.33115 0.0
H1131 H 0.50774 0.70973 0.29166 0.0
H1132 H 0.50292 0.74175 0.31976 0.0
H1133 H 0.5796 0.84236 0.39676 0.0
H1134 H 0.5586 0.79675 0.39936 0.0
H1135 H 0.51482 0.8125 0.34584 0.0
H1136 H 0.53588 0.85781 0.34298 0.0
H1137 H 0.53597 0.76104 0.34607 0.0
H1138 H 0.48573 0.8192 0.39105 0.0
H1139 H 0.48049 0.85053 0.41951 0.0
H1140 H 0.51258 0.7882 0.45788 0.0
H1141 H 0.51832 0.75662 0.42958 0.0
C1142 C 0.4409 0.67326 0.35829 0.0
C1143 C 0.44154 0.6531 0.37321 0.0
C1144 C 0.45778 0.6961 0.35907 0.0
C1145 C 0.47592 0.69911 0.37463 0.0
C1146 C 0.47641 0.67925 0.38973 0.0
C1147 C 0.45937 0.65637 0.38901 0.0
C1148 C 0.49395 0.72336 0.37509 0.0
C1149 C 0.49283 0.74129 0.39133 0.0
C1150 C 0.51022 0.7302 0.35877 0.0
C1151 C 0.51355 0.71113 0.34175 0.0
C1152 C 0.52118 0.68341 0.34475 0.0
C1153 C 0.5237 0.66537 0.32873 0.0
C1154 C 0.51883 0.67485 0.30962 0.0
C1155 C 0.5115 0.70242 0.30648 0.0
C1156 C 0.50891 0.72053 0.32244 0.0
C1157 C 0.56552 0.83609 0.38554 0.0
C1158 C 0.55935 0.85373 0.36969 0.0
C1159 C 0.5535 0.81007 0.38708 0.0
C1160 C 0.53503 0.80135 0.37286 0.0
C1161 C 0.52907 0.81882 0.35695 0.0
C1162 C 0.54106 0.84476 0.35538 0.0
C1163 C 0.52158 0.77417 0.37448 0.0
C1164 C 0.52366 0.75563 0.35863 0.0
C1165 C 0.50628 0.76675 0.39118 0.0
C1166 C 0.50275 0.78569 0.40818 0.0
C1167 C 0.49187 0.81227 0.40553 0.0
C1168 C 0.48877 0.83005 0.42164 0.0
C1169 C 0.49628 0.82139 0.44048 0.0
C1170 C 0.50683 0.7949 0.44327 0.0
C1171 C 0.50999 0.77705 0.42721 0.0
H1172 H 0.49386 0.83518 0.45293 0.0
H1173 H 0.52076 0.66084 0.29725 0.0
H1174 H 0.10204 0.32878 0.40197 0.0
H1175 H 0.07579 0.28611 0.40267 0.0
H1176 H 0.01379 0.32628 0.36923 0.0
H1177 H 0.0395 0.36904 0.36887 0.0
H1178 H 0.9929 0.29741 0.39809 0.0
H1179 H 0.05846 0.28082 0.34778 0.0
H1180 H 0.10376 0.27721 0.33402 0.0
H1181 H 0.12277 0.21365 0.37597 0.0
H1182 H 0.07766 0.21715 0.39016 0.0
H1183 H 0.92109 0.18442 0.36022 0.0
H1184 H 0.95191 0.22347 0.36165 0.0
H1185 H -2e-05 0.17975 0.4041 0.0
H1186 H 0.96904 0.14054 0.40294 0.0
H1187 H 0.02927 0.20851 0.37308 0.0
H1188 H 0.96168 0.22447 0.42203 0.0
H1189 H 0.91555 0.22796 0.43418 0.0
H1190 H 0.89976 0.29318 0.39279 0.0
H1191 H 0.94571 0.28978 0.38018 0.0
C1192 C 0.08277 0.32853 0.39483 0.0
C1193 C 0.07287 0.35227 0.38534 0.0
C1194 C 0.06787 0.30409 0.39515 0.0
C1195 C 0.04298 0.30292 0.38579 0.0
C1196 C 0.03294 0.32671 0.37655 0.0
C1197 C 0.04771 0.35114 0.37634 0.0
C1198 C 0.02716 0.27703 0.38561 0.0
C1199 C 0.00082 0.27806 0.39245 0.0
C1200 C 0.03767 0.2516 0.37867 0.0
C1201 C 0.0648 0.24948 0.37017 0.0
C1202 C 0.07237 0.26624 0.35418 0.0
C1203 C 0.098 0.26418 0.34628 0.0
C1204 C 0.11616 0.24527 0.35416 0.0
C1205 C 0.1087 0.22832 0.36991 0.0
C1206 C 0.08311 0.23033 0.37788 0.0
C1207 C 0.93835 0.18293 0.36971 0.0
C1208 C 0.94253 0.1595 0.3816 0.0
C1209 C 0.95589 0.20528 0.37053 0.0
C1210 C 0.97799 0.20449 0.38312 0.0
C1211 C 0.98295 0.18067 0.39433 0.0
C1212 C 0.96523 0.15839 0.3937 0.0
C1213 C 0.99505 0.22919 0.38523 0.0
C1214 C 0.02154 0.22788 0.37882 0.0
C1215 C 0.98465 0.25446 0.39239 0.0
C1216 C 0.95706 0.25669 0.40004 0.0
C1217 C 0.94831 0.23939 0.4154 0.0
C1218 C 0.92221 0.24138 0.4224 0.0
C1219 C 0.90472 0.26073 0.41423 0.0
C1220 C 0.91332 0.27818 0.39909 0.0
C1221 C 0.93939 0.27625 0.39202 0.0
H1222 H 0.88451 0.26224 0.41967 0.0
H1223 H 0.13599 0.2437 0.34802 0.0
H1224 H 0.09035 0.67679 0.91829 0.0
H1225 H 0.067 0.72075 0.91458 0.0
H1226 H 0.03229 0.69197 0.86015 0.0
H1227 H 0.0549 0.64748 0.86412 0.0
H1228 H 0.06588 0.76142 0.88943 0.0
H1229 H 0.96994 0.71781 0.85558 0.0
H1230 H 0.94534 0.67366 0.85359 0.0
H1231 H 0.97774 0.64859 0.90935 0.0
H1232 H 0.00229 0.69271 0.91177 0.0
H1233 H 0.98175 0.87606 0.87032 0.0
H1234 H 0.00481 0.83217 0.86475 0.0
H1235 H 0.96261 0.79579 0.91368 0.0
H1236 H 0.93916 0.83935 0.9192 0.0
H1237 H 0.96742 0.75923 0.88408 0.0
H1238 H 0.02492 0.82189 0.91966 0.0
H1239 H 0.0494 0.86556 0.92477 0.0
H1240 H 0.09341 0.85169 0.8714 0.0
H1241 H 0.0689 0.80809 0.86584 0.0
C1242 C 0.07799 0.67987 0.9054 0.0
C1243 C 0.07427 0.65848 0.89162 0.0
C1244 C 0.06467 0.70508 0.90328 0.0
C1245 C 0.0475 0.70953 0.88727 0.0
C1246 C 0.04495 0.68881 0.87287 0.0
C1247 C 0.05799 0.66342 0.87512 0.0
C1248 C 0.03137 0.73531 0.88635 0.0
C1249 C 0.04437 0.76092 0.88809 0.0
C1250 C 0.00325 0.73474 0.88479 0.0
C1251 C 0.98814 0.70841 0.88374 0.0
C1252 C 0.97171 0.70291 0.86744 0.0
C1253 C 0.95781 0.67789 0.86623 0.0
C1254 C 0.96005 0.65829 0.8813 0.0
C1255 C 0.9761 0.66374 0.89766 0.0
C1256 C 0.99002 0.68874 0.89895 0.0
C1257 C 0.9771 0.85866 0.87975 0.0
C1258 C 0.95878 0.86138 0.89535 0.0
C1259 C 0.99036 0.83358 0.87657 0.0
C1260 C 0.98572 0.81083 0.88899 0.0
C1261 C 0.96653 0.81308 0.90394 0.0
C1262 C 0.95322 0.83809 0.9071 0.0
C1263 C 0.00194 0.78524 0.88732 0.0
C1264 C 0.98896 0.75971 0.88508 0.0
C1265 C 0.03004 0.78582 0.88884 0.0
C1266 C 0.04488 0.81192 0.89223 0.0
C1267 C 0.03968 0.82826 0.90895 0.0
C1268 C 0.05358 0.85298 0.91193 0.0
C1269 C 0.07289 0.86144 0.89839 0.0
C1270 C 0.07841 0.84515 0.88186 0.0
C1271 C 0.06453 0.82043 0.87879 0.0
H1272 H 0.08364 0.88058 0.90073 0.0
H1273 H 0.94932 0.63892 0.88031 0.0
H1274 H 0.41934 0.32754 0.91381 0.0
H1275 H 0.44551 0.2852 0.91103 0.0
H1276 H 0.48264 0.31656 0.85821 0.0
H1277 H 0.45712 0.35944 0.86123 0.0
H1278 H 0.45156 0.24467 0.8865 0.0
H1279 H 0.54736 0.29692 0.8569 0.0
H1280 H 0.56931 0.34263 0.85755 0.0
H1281 H 0.52962 0.36224 0.91185 0.0
H1282 H 0.50774 0.31653 0.91165 0.0
H1283 H 0.54237 0.13776 0.86477 0.0
H1284 H 0.51691 0.18049 0.86082 0.0
H1285 H 0.55719 0.21594 0.91094 0.0
H1286 H 0.58302 0.17351 0.91488 0.0
H1287 H 0.54979 0.25426 0.88317 0.0
H1288 H 0.49689 0.18705 0.91688 0.0
H1289 H 0.47538 0.14171 0.92199 0.0
H1290 H 0.42997 0.15281 0.86898 0.0
H1291 H 0.45148 0.19811 0.86344 0.0
C1292 C 0.43281 0.32534 0.90144 0.0
C1293 C 0.43634 0.34706 0.88787 0.0
C1294 C 0.44776 0.30105 0.89986 0.0
C1295 C 0.46643 0.29787 0.88463 0.0
C1296 C 0.46881 0.3188 0.87035 0.0
C1297 C 0.45409 0.34326 0.87205 0.0
C1298 C 0.48429 0.27334 0.88437 0.0
C1299 C 0.47301 0.2468 0.8856 0.0
C1300 C 0.51237 0.27604 0.88373 0.0
C1301 C 0.52569 0.30344 0.88412 0.0
C1302 C 0.5434 0.31096 0.869 0.0
C1303 C 0.55581 0.33687 0.86929 0.0
C1304 C 0.55078 0.35537 0.88469 0.0
C1305 C 0.53342 0.34795 0.89989 0.0
C1306 C 0.52099 0.32205 0.89968 0.0
C1307 C 0.54617 0.15478 0.87478 0.0
C1308 C 0.56458 0.15203 0.89029 0.0
C1309 C 0.53149 0.17916 0.87254 0.0
C1310 C 0.53482 0.2012 0.88579 0.0
C1311 C 0.55423 0.19915 0.90057 0.0
C1312 C 0.56896 0.17481 0.90282 0.0
C1313 C 0.51701 0.22569 0.88506 0.0
C1314 C 0.52831 0.25217 0.88372 0.0
C1315 C 0.48901 0.223 0.88635 0.0
C1316 C 0.476 0.19581 0.88963 0.0
C1317 C 0.48247 0.17972 0.90623 0.0
C1318 C 0.47025 0.15406 0.90923 0.0
C1319 C 0.45137 0.14435 0.89579 0.0
C1320 C 0.44463 0.16033 0.87936 0.0
C1321 C 0.45681 0.18601 0.87629 0.0
H1322 H 0.44193 0.12448 0.89813 0.0
H1323 H 0.56039 0.37542 0.88488 0.0
H1324 H 0.43676 0.1545 0.56916 0.0
H1325 H 0.45724 0.19972 0.57415 0.0
H1326 H 0.47656 0.17739 0.63405 0.0
H1327 H 0.45705 0.13157 0.62887 0.0
H1328 H 0.44986 0.24235 0.59596 0.0
H1329 H 0.53453 0.20707 0.64769 0.0
H1330 H 0.56021 0.16486 0.65543 0.0
H1331 H 0.54645 0.13405 0.59695 0.0
H1332 H 0.52098 0.1762 0.58881 0.0
H1333 H 0.51993 0.36311 0.62445 0.0
H1334 H 0.49773 0.31826 0.6278 0.0
H1335 H 0.55627 0.28105 0.58957 0.0
H1336 H 0.57868 0.32558 0.58624 0.0
H1337 H 0.54339 0.24653 0.61917 0.0
H1338 H 0.49834 0.30175 0.57088 0.0
H1339 H 0.47501 0.34298 0.55816 0.0
H1340 H 0.41352 0.33223 0.60146 0.0
H1341 H 0.43672 0.29113 0.61462 0.0
C1342 C 0.44518 0.15925 0.58346 0.0
C1343 C 0.44552 0.13932 0.59855 0.0
C1344 C 0.45684 0.18519 0.58631 0.0
C1345 C 0.46886 0.19188 0.60438 0.0
C1346 C 0.46799 0.17252 0.61983 0.0
C1347 C 0.45673 0.14636 0.61687 0.0
C1348 C 0.48324 0.21862 0.6066 0.0
C1349 C 0.47023 0.24323 0.6012 0.0
C1350 C 0.51001 0.21987 0.61311 0.0
C1351 C 0.5256 0.19462 0.61774 0.0
C1352 C 0.53707 0.19131 0.63648 0.0
C1353 C 0.55157 0.1674 0.64094 0.0
C1354 C 0.55487 0.14674 0.62672 0.0
C1355 C 0.54379 0.15001 0.60798 0.0
C1356 C 0.5293 0.17389 0.60344 0.0
C1357 C 0.52837 0.34529 0.61704 0.0
C1358 C 0.55096 0.34803 0.60491 0.0
C1359 C 0.51558 0.3197 0.6189 0.0
C1360 C 0.52515 0.29643 0.60871 0.0
C1361 C 0.54852 0.29876 0.59753 0.0
C1362 C 0.56125 0.3243 0.59559 0.0
C1363 C 0.50998 0.27009 0.60853 0.0
C1364 C 0.52285 0.24562 0.61429 0.0
C1365 C 0.4834 0.26884 0.60172 0.0
C1366 C 0.46943 0.29358 0.59389 0.0
C1367 C 0.47997 0.30833 0.5778 0.0
C1368 C 0.46675 0.33164 0.57048 0.0
C1369 C 0.44283 0.34026 0.57902 0.0
C1370 C 0.43208 0.32556 0.59488 0.0
C1371 C 0.44525 0.30225 0.60228 0.0
H1372 H 0.43261 0.35829 0.57331 0.0
H1373 H 0.56608 0.12823 0.63021 0.0
H1374 H 0.07972 0.8277 0.58426 0.0
H1375 H 0.05466 0.78469 0.58769 0.0
H1376 H 0.00444 0.82291 0.6315 0.0
H1377 H 0.02926 0.86617 0.62811 0.0
H1378 H 0.04347 0.74907 0.61729 0.0
H1379 H 0.93969 0.80118 0.62188 0.0
H1380 H 0.91801 0.84483 0.61183 0.0
H1381 H 0.97494 0.85473 0.56516 0.0
H1382 H 0.99651 0.81085 0.57459 0.0
H1383 H 0.95121 0.64215 0.63448 0.0
H1384 H 0.97322 0.68698 0.63797 0.0
H1385 H 0.9491 0.70907 0.57902 0.0
H1386 H 0.92647 0.66465 0.57558 0.0
H1387 H 0.94701 0.75313 0.60183 0.0
H1388 H 0.01089 0.6816 0.58832 0.0
H1389 H 0.0339 0.63715 0.59389 0.0
H1390 H 0.05942 0.6651 0.65091 0.0
H1391 H 0.03623 0.70959 0.64578 0.0
C1392 C 0.06358 0.82691 0.59484 0.0
C1393 C 0.05636 0.85052 0.60576 0.0
C1394 C 0.04933 0.80225 0.59681 0.0
C1395 C 0.02747 0.80074 0.60964 0.0
C1396 C 0.02104 0.82378 0.62132 0.0
C1397 C 0.03535 0.84845 0.61942 0.0
C1398 C 0.01054 0.77561 0.60984 0.0
C1399 C 0.02234 0.74998 0.61409 0.0
C1400 C 0.98309 0.77674 0.60519 0.0
C1401 C 0.96992 0.80291 0.59914 0.0
C1402 C 0.94749 0.81262 0.60941 0.0
C1403 C 0.9352 0.83738 0.6038 0.0
C1404 C 0.94512 0.85257 0.58788 0.0
C1405 C 0.96727 0.84296 0.57748 0.0
C1406 C 0.97955 0.81815 0.58296 0.0
C1407 C 0.95021 0.6567 0.62236 0.0
C1408 C 0.93732 0.64964 0.60465 0.0
C1409 C 0.9629 0.6823 0.62436 0.0
C1410 C 0.96329 0.70115 0.60861 0.0
C1411 C 0.94915 0.69482 0.59135 0.0
C1412 C 0.93624 0.66934 0.5894 0.0
C1413 C 0.97986 0.72657 0.60952 0.0
C1414 C 0.96804 0.75227 0.60539 0.0
C1415 C 0.00747 0.72541 0.6137 0.0
C1416 C 0.0216 0.69878 0.61675 0.0
C1417 C 0.02127 0.67818 0.6021 0.0
C1418 C 0.03435 0.653 0.60517 0.0
C1419 C 0.04806 0.64828 0.62277 0.0
C1420 C 0.04876 0.66877 0.6373 0.0
C1421 C 0.03566 0.69397 0.63432 0.0
H1422 H 0.05818 0.62877 0.62512 0.0
H1423 H 0.93561 0.87176 0.58357 0.0
H1424 H 0.94261 0.93447 0.95729 0.0
H1425 H 0.95663 0.93954 0.99151 0.0
H1426 H 0.02147 0.99207 0.97294 0.0
H1427 H 0.00821 0.98591 0.93859 0.0
H1428 H 0.03811 0.96171 0.00096 0.0
H1429 H 0.96033 0.01781 0.99204 0.0
H1430 H 0.91385 0.02792 0.98287 0.0
H1431 H 0.88613 0.97005 0.02632 0.0
H1432 H 0.93248 0.95933 0.03557 0.0
H1433 H 0.05071 0.04228 0.08957 0.0
H1434 H 0.03294 0.03085 0.057 0.0
H1435 H 0.00958 0.95023 0.07803 0.0
H1436 H 0.02799 0.9611 0.1106 0.0
H1437 H 0.97128 0.99274 0.05016 0.0
H1438 H 0.05325 0.93681 0.05702 0.0
H1439 H 0.10059 0.93251 0.06612 0.0
H1440 H 0.12064 0.99771 0.02572 0.0
H1441 H 0.0733 0.00268 0.01664 0.0
C1442 C 0.95994 0.94691 0.96048 0.0
C1443 C 0.97417 0.96001 0.94529 0.0
C1444 C 0.96788 0.94993 0.98007 0.0
C1445 C 0.98971 0.96677 0.98488 0.0
C1446 C 0.0045 0.97905 0.96964 0.0
C1447 C 0.99691 0.97553 0.95001 0.0
C1448 C 0.99685 0.97216 0.00576 0.0
C1449 C 0.02342 0.96857 0.01162 0.0
C1450 C 0.97776 0.98107 0.01983 0.0
C1451 C 0.94988 0.98755 0.01435 0.0
C1452 C 0.94433 0.0071 -0.00046 0.0
C1453 C 0.91801 0.01296 0.99434 0.0
C1454 C 0.89705 0.99958 0.00397 0.0
C1455 C 0.90238 0.98036 0.01885 0.0
C1456 C 0.92867 0.9744 0.02409 0.0
C1457 C 0.04141 0.02228 0.08739 0.0
C1458 C 0.04086 0.00251 0.1026 0.0
C1459 C 0.03135 0.0158 0.06879 0.0
C1460 C 0.02017 0.98971 0.06524 0.0
C1461 C 0.01823 0.97046 0.08061 0.0
C1462 C 0.02878 0.97669 0.09913 0.0
C1463 C 0.01223 0.98204 0.04508 0.0
C1464 C 0.98567 0.98546 0.03942 0.0
C1465 C 0.03133 0.97354 0.03108 0.0
C1466 C 0.05976 0.97033 0.03635 0.0
C1467 C 0.06773 0.95041 0.05024 0.0
C1468 C 0.09456 0.94781 0.05536 0.0
C1469 C 0.11361 0.96488 0.04655 0.0
C1470 C 0.10586 0.98453 0.03256 0.0
C1471 C 0.07905 0.98724 0.02742 0.0
H1472 H 0.13437 0.96284 0.05053 0.0
H1473 H 0.87669 0.00414 -8e-05 0.0
H1474 H 0.50586 0.04615 0.9283 0.0
H1475 H 0.48725 0.04464 0.96133 0.0
H1476 H 0.56326 0.0684 0.98564 0.0
H1477 H 0.5824 0.06863 0.95252 0.0
H1478 H 0.54551 0.02831 0.00566 0.0
H1479 H 0.50809 0.11295 0.98718 0.0
H1480 H 0.48602 0.14713 0.96572 0.0
H1481 H 0.41449 0.09857 0.96632 0.0
H1482 H 0.43624 0.06379 0.98747 0.0
H1483 H 0.42373 0.0328 0.08064 0.0
H1484 H 0.45482 0.05738 0.05908 0.0
H1485 H 0.48048 0.97935 0.03448 0.0
H1486 H 0.45038 0.95477 0.05632 0.0
H1487 H 0.4547 0.06172 0.02173 0.0
H1488 H 0.54081 0.97941 0.01766 0.0
H1489 H 0.56533 0.94906 0.04053 0.0
H1490 H 0.54414 0.00182 0.089 0.0
H1491 H 0.51981 0.03274 0.0664 0.0
C1492 C 0.51859 0.05139 0.94062 0.0
C1493 C 0.54562 0.05753 0.93777 0.0
C1494 C 0.50784 0.05079 0.95954 0.0
C1495 C 0.5237 0.05693 0.976 0.0
C1496 C 0.55059 0.06374 0.97316 0.0
C1497 C 0.56148 0.06395 0.9542 0.0
C1498 C 0.51257 0.05354 0.99611 0.0
C1499 C 0.52581 0.03593 0.00932 0.0
C1500 C 0.4874 0.06452 0.00132 0.0
C1501 C 0.47387 0.08568 0.98893 0.0
C1502 C 0.48768 0.10948 0.98268 0.0
C1503 C 0.47522 0.12897 0.97056 0.0
C1504 C 0.44887 0.12503 0.96466 0.0
C1505 C 0.4349 0.10162 0.97093 0.0
C1506 C 0.44727 0.08202 0.98302 0.0
C1507 C 0.43633 0.02088 0.07085 0.0
C1508 C 0.43453 0.99181 0.07017 0.0
C1509 C 0.45408 0.03497 0.05854 0.0
C1510 C 0.47027 0.02025 0.04531 0.0
C1511 C 0.46879 0.99121 0.04491 0.0
C1512 C 0.45135 0.97713 0.05734 0.0
C1513 C 0.48688 0.03491 0.03054 0.0
C1514 C 0.47471 0.05474 0.01838 0.0
C1515 C 0.51344 0.02677 0.02666 0.0
C1516 C 0.52839 0.00839 0.0403 0.0
C1517 C 0.54154 0.98469 0.03317 0.0
C1518 C 0.55537 0.96734 0.0461 0.0
C1519 C 0.55627 0.97349 0.0662 0.0
C1520 C 0.54338 0.99704 0.07342 0.0
C1521 C 0.52953 0.01447 0.06056 0.0
H1522 H 0.56696 0.96002 0.07619 0.0
H1523 H 0.43929 0.14011 0.95524 0.0
H1524 H 0.42765 0.0444 0.53952 0.0
H1525 H 0.44237 0.03663 0.50574 0.0
H1526 H 0.52216 0.02117 0.52646 0.0
H1527 H 0.50776 0.02989 0.5603 0.0
H1528 H 0.52391 0.04962 0.49354 0.0
H1529 H 0.4792 0.96768 0.51562 0.0
H1530 H 0.44217 0.94064 0.52972 0.0
H1531 H 0.39142 0.96612 0.48217 0.0
H1532 H 0.42806 0.99363 0.46793 0.0
H1533 H 0.53978 0.94575 0.40795 0.0
H1534 H 0.52104 0.95675 0.44025 0.0
H1535 H 0.51389 0.04256 0.42335 0.0
H1536 H 0.53316 0.03192 0.39122 0.0
H1537 H 0.4764 0.97805 0.45458 0.0
H1538 H 0.5309 0.08316 0.46206 0.0
H1539 H 0.57113 0.10623 0.44918 0.0
H1540 H 0.60829 0.02716 0.44012 0.0
H1541 H 0.56847 0.00366 0.45322 0.0
C1542 C 0.44842 0.03979 0.53691 0.0
C1543 C 0.46652 0.03769 0.55262 0.0
C1544 C 0.45676 0.03514 0.51757 0.0
C1545 C 0.48325 0.0278 0.51361 0.0
C1546 C 0.5016 0.02673 0.52918 0.0
C1547 C 0.49332 0.03167 0.54852 0.0
C1548 C 0.49162 0.02029 0.49336 0.0
C1549 C 0.51346 0.03405 0.485 0.0
C1550 C 0.47832 0.99957 0.48235 0.0
C1551 C 0.45629 0.98292 0.49082 0.0
C1552 C 0.46008 0.96767 0.50825 0.0
C1553 C 0.43918 0.95224 0.51626 0.0
C1554 C 0.41444 0.95172 0.50688 0.0
C1555 C 0.41058 0.96657 0.48944 0.0
C1556 C 0.43142 0.98207 0.48138 0.0
C1557 C 0.53386 0.9669 0.41098 0.0
C1558 C 0.53832 0.98803 0.3971 0.0
C1559 C 0.52313 0.97314 0.42945 0.0
C1560 C 0.5166 0.00056 0.43432 0.0
C1561 C 0.51935 0.02136 0.42003 0.0
C1562 C 0.53029 0.0152 0.40165 0.0
C1563 C 0.50844 0.00765 0.45469 0.0
C1564 C 0.48669 0.99378 0.46307 0.0
C1565 C 0.5223 0.02772 0.46593 0.0
C1566 C 0.54658 0.04167 0.45842 0.0
C1567 C 0.54771 0.07072 0.4574 0.0
C1568 C 0.57043 0.08386 0.45006 0.0
C1569 C 0.59221 0.06817 0.44377 0.0
C1570 C 0.59137 0.03929 0.44492 0.0
C1571 C 0.56872 0.02605 0.4523 0.0
H1572 H 0.60976 0.07838 0.43805 0.0
H1573 H 0.39828 0.93976 0.5131 0.0
H1574 H -0.00021 0.95666 0.56643 0.0
H1575 H 0.98237 0.95846 0.53309 0.0
H1576 H 0.05919 0.93472 0.51008 0.0
H1577 H 0.07715 0.93417 0.54355 0.0
H1578 H 0.0424 0.97489 0.48985 0.0
H1579 H 0.00378 0.89022 0.50623 0.0
H1580 H 0.98088 0.85503 0.52635 0.0
H1581 H 0.90991 0.90454 0.52656 0.0
H1582 H 0.93242 0.9402 0.50662 0.0
H1583 H 0.92013 0.97467 0.41507 0.0
H1584 H 0.95131 0.94889 0.43579 0.0
H1585 H 0.97937 0.02576 0.46077 0.0
H1586 H 0.94925 0.05152 0.43961 0.0
H1587 H 0.9515 0.94332 0.47248 0.0
H1588 H 0.03931 0.0238 0.47816 0.0
H1589 H 0.0649 0.05385 0.45574 0.0
H1590 H 0.04283 0.00278 0.40661 0.0
H1591 H 0.01744 0.97214 0.42875 0.0
C1592 C 0.01295 0.95147 0.55433 0.0
C1593 C 0.03986 0.94527 0.55766 0.0
C1594 C 0.00287 0.95222 0.53522 0.0
C1595 C 0.01932 0.94621 0.51903 0.0
C1596 C 0.04608 0.93929 0.52234 0.0
C1597 C 0.0563 0.93891 0.5415 0.0
C1598 C 0.0089 0.94998 0.49875 0.0
C1599 C 0.02269 0.96767 0.48589 0.0
C1600 C 0.98377 0.93945 0.49309 0.0
C1601 C 0.96986 0.91795 0.50492 0.0
C1602 C 0.98331 0.89368 0.51062 0.0
C1603 C 0.97039 0.87363 0.522 0.0
C1604 C 0.94397 0.87756 0.52775 0.0
C1605 C 0.93037 0.90151 0.52207 0.0
C1606 C 0.94318 0.92161 0.51067 0.0
C1607 C 0.9333 0.98606 0.42475 0.0
C1608 C 0.93216 0.01513 0.42577 0.0
C1609 C 0.95112 0.97129 0.43656 0.0
C1610 C 0.96796 0.98532 0.44971 0.0
C1611 C 0.9672 0.0144 0.45037 0.0
C1612 C 0.94974 0.02916 0.43837 0.0
C1613 C 0.98419 0.96989 0.46432 0.0
C1614 C 0.97153 0.94991 0.47609 0.0
C1615 C 0.01081 0.97741 0.46852 0.0
C1616 C 0.02637 0.99567 0.45516 0.0
C1617 C 0.04007 0.01881 0.46261 0.0
C1618 C 0.05451 0.03601 0.44993 0.0
C1619 C 0.05547 0.03025 0.42976 0.0
C1620 C 0.04202 0.00725 0.42223 0.0
C1621 C 0.02757 0.98999 0.43483 0.0
H1622 H 0.06664 0.0436 0.41998 0.0
H1623 H 0.93402 0.86205 0.5366 0.0
H1624 H 0.51787 0.45438 0.10001 0.0
H1625 H 0.49011 0.43719 0.07308 0.0
H1626 H 0.48971 0.51867 0.04696 0.0
H1627 H 0.51652 0.53618 0.07402 0.0
H1628 H 0.44464 0.4939 0.03904 0.0
H1629 H 0.53869 0.46976 0.03583 0.0
H1630 H 0.57977 0.44793 0.04828 0.0
H1631 H 0.54106 0.36866 0.04888 0.0
H1632 H 0.49963 0.39014 0.03664 0.0
H1633 H 0.48601 0.45051 0.93528 0.0
H1634 H 0.49544 0.45418 0.97039 0.0
H1635 H 0.41325 0.43621 0.98373 0.0
H1636 H 0.40344 0.43352 0.94852 0.0
H1637 H 0.49305 0.42184 0.00111 0.0
H1638 H 0.39537 0.474 0.02445 0.0
H1639 H 0.35858 0.50117 0.01002 0.0
H1640 H 0.41135 0.53267 0.96555 0.0
H1641 H 0.44846 0.50594 0.97986 0.0
C1642 C 0.51131 0.46879 0.08878 0.0
C1643 C 0.51991 0.49651 0.08892 0.0
C1644 C 0.49546 0.45891 0.0734 0.0
C1645 C 0.48843 0.47648 0.05776 0.0
C1646 C 0.495 0.50468 0.05882 0.0
C1647 C 0.5105 0.51464 0.07429 0.0
C1648 C 0.47751 0.46526 0.03913 0.0
C1649 C 0.45493 0.47781 0.03088 0.0
C1650 C 0.49114 0.44451 0.02835 0.0
C1651 C 0.51603 0.43158 0.03558 0.0
C1652 C 0.53892 0.44771 0.03874 0.0
C1653 C 0.56225 0.4354 0.04574 0.0
C1654 C 0.563 0.40694 0.04943 0.0
C1655 C 0.54043 0.39071 0.04607 0.0
C1656 C 0.51702 0.40293 0.0391 0.0
C1657 C 0.46997 0.44707 0.94566 0.0
C1658 C 0.44395 0.44193 0.93911 0.0
C1659 C 0.47541 0.44905 0.96575 0.0
C1660 C 0.45498 0.44578 0.97968 0.0
C1661 C 0.42923 0.43922 0.97322 0.0
C1662 C 0.4237 0.43755 0.95308 0.0
C1663 C 0.46066 0.45108 0.00077 0.0
C1664 C 0.4822 0.43731 0.0095 0.0
C1665 C 0.44661 0.47136 0.0117 0.0
C1666 C 0.42454 0.48769 0.00306 0.0
C1667 C 0.39909 0.48676 0.01161 0.0
C1668 C 0.3782 0.50208 0.00346 0.0
C1669 C 0.3826 0.51854 0.98683 0.0
C1670 C 0.40793 0.51982 0.97838 0.0
C1671 C 0.42889 0.50457 0.98649 0.0
H1672 H 0.3664 0.53037 0.98053 0.0
H1673 H 0.58108 0.39745 0.05485 0.0
H1674 H 0.97555 0.53258 0.09873 0.0
H1675 H 0.00455 0.55354 0.07391 0.0
H1676 H 0.0122 0.47428 0.04501 0.0
H1677 H 0.98439 0.45305 0.07025 0.0
H1678 H 0.05573 0.5017 0.03966 0.0
H1679 H 0.96145 0.52234 0.03331 0.0
H1680 H 0.91835 0.54114 0.04451 0.0
H1681 H 0.95326 0.62185 0.05062 0.0
H1682 H 0.99666 0.6034 0.03967 0.0
H1683 H 0.01892 0.55319 0.93709 0.0
H1684 H 0.00798 0.54678 0.97167 0.0
H1685 H 0.08934 0.56449 0.9877 0.0
H1686 H 0.10072 0.56982 0.95282 0.0
H1687 H 0.00789 0.57572 0.00338 0.0
H1688 H 0.10547 0.52485 0.02789 0.0
H1689 H 0.14402 0.5001 0.01375 0.0
H1690 H 0.09526 0.4705 0.96626 0.0
H1691 H 0.0564 0.49482 0.98025 0.0
C1692 C 0.98399 0.51953 0.08734 0.0
C1693 C 0.97736 0.4913 0.08619 0.0
C1694 C 0.0005 0.53153 0.07316 0.0
C1695 C 0.00994 0.51564 0.05729 0.0
C1696 C 0.00508 0.487 0.05706 0.0
C1697 C 0.98908 0.47488 0.07148 0.0
C1698 C 0.02182 0.52901 0.0397 0.0
C1699 C 0.04549 0.51817 0.03187 0.0
C1700 C 0.00835 0.55033 0.02939 0.0
C1701 C 0.98232 0.56144 0.03594 0.0
C1702 C 0.95994 0.54405 0.03717 0.0
C1703 C 0.93547 0.55464 0.04346 0.0
C1704 C 0.93309 0.58265 0.04834 0.0
C1705 C 0.95516 0.60014 0.04689 0.0
C1706 C 0.97969 0.58964 0.04065 0.0
C1707 C 0.03448 0.55603 0.94795 0.0
C1708 C 0.06074 0.56175 0.9422 0.0
C1709 C 0.02816 0.55248 0.96776 0.0
C1710 C 0.0479 0.55481 0.98229 0.0
C1711 C 0.07388 0.56212 0.97671 0.0
C1712 C 0.08032 0.5653 0.95679 0.0
C1713 C 0.04121 0.54764 0.00295 0.0
C1714 C 0.0186 0.55983 0.01144 0.0
C1715 C 0.05506 0.52678 0.01345 0.0
C1716 C 0.07819 0.51195 0.00497 0.0
C1717 C 0.10301 0.51303 0.01444 0.0
C1718 C 0.12489 0.49908 0.00646 0.0
C1719 C 0.12211 0.48384 0.98907 0.0
C1720 C 0.09741 0.48241 0.97968 0.0
C1721 C 0.07547 0.49628 0.98762 0.0
H1722 H 0.13908 0.47307 0.98291 0.0
H1723 H 0.91413 0.59082 0.0532 0.0
H1724 H 0.92885 0.53483 0.54935 0.0
H1725 H 0.94959 0.52716 0.51717 0.0
H1726 H 0.02464 0.55611 0.53996 0.0
H1727 H 0.00424 0.56316 0.57245 0.0
H1728 H 0.00196 0.57542 0.49722 0.0
H1729 H 0.0275 0.49736 0.54006 0.0
H1730 H 0.01611 0.45999 0.56337 0.0
H1731 H 0.96235 0.42496 0.52099 0.0
H1732 H 0.97315 0.46242 0.49755 0.0
H1733 H 0.09301 0.52913 0.42541 0.0
H1734 H 0.06972 0.54268 0.45545 0.0
H1735 H 0.01255 0.4772 0.44614 0.0
H1736 H 0.0369 0.46253 0.41669 0.0
H1737 H 0.02386 0.47748 0.48199 0.0
H1738 H -0.0009 0.54955 0.43782 0.0
H1739 H 0.00535 0.58694 0.4135 0.0
H1740 H 0.05047 0.63362 0.45571 0.0
H1741 H 0.04479 0.59634 0.48021 0.0
C1742 C 0.94968 0.53994 0.54745 0.0
C1743 C 0.96503 0.54941 0.56339 0.0
C1744 C 0.96144 0.53555 0.52909 0.0
C1745 C 0.98855 0.54106 0.52635 0.0
C1746 C 0.00364 0.55184 0.54192 0.0
C1747 C 0.99202 0.55571 0.56042 0.0
C1748 C 0.00151 0.53341 0.50767 0.0
C1749 C 0.00712 0.55412 0.49386 0.0
C1750 C 0.0071 0.50548 0.50319 0.0
C1751 C 0.00088 0.48283 0.51717 0.0
C1752 C 0.01306 0.48184 0.5358 0.0
C1753 C 0.00676 0.46061 0.54902 0.0
C1754 C 0.98846 0.44016 0.54369 0.0
C1755 C 0.97649 0.44084 0.52511 0.0
C1756 C 0.9827 0.46205 0.51186 0.0
C1757 C 0.07541 0.51771 0.42977 0.0
C1758 C 0.06668 0.49483 0.41876 0.0
C1759 C 0.06197 0.5256 0.44686 0.0
C1760 C 0.03899 0.51137 0.45289 0.0
C1761 C 0.0302 0.48855 0.4418 0.0
C1762 C 0.04407 0.48019 0.42498 0.0
C1763 C 0.02483 0.51955 0.4712 0.0
C1764 C 0.01881 0.49889 0.48507 0.0
C1765 C 0.01828 0.54752 0.47547 0.0
C1766 C 0.02172 0.57002 0.46079 0.0
C1767 C 0.01052 0.5677 0.44187 0.0
C1768 C 0.01393 0.58889 0.42806 0.0
C1769 C 0.02835 0.61261 0.43304 0.0
C1770 C 0.03933 0.61522 0.45186 0.0
C1771 C 0.03599 0.59408 0.46573 0.0
H1772 H 0.03097 0.62899 0.42233 0.0
H1773 H 0.9836 0.42374 0.55394 0.0
H1774 H 0.49186 0.45019 0.56024 0.0
H1775 H 0.47746 0.45214 0.52607 0.0
H1776 H 0.55695 0.43164 0.50679 0.0
H1777 H 0.57179 0.43085 0.54105 0.0
H1778 H 0.54066 0.4731 0.48704 0.0
H1779 H 0.50395 0.38576 0.50002 0.0
H1780 H 0.48008 0.34981 0.51879 0.0
H1781 H 0.40758 0.3964 0.5141 0.0
H1782 H 0.43107 0.43286 0.49554 0.0
H1783 H 0.43512 0.46439 0.40044 0.0
H1784 H 0.46262 0.4414 0.42523 0.0
H1785 H 0.47752 0.52023 0.45309 0.0
H1786 H 0.45076 0.5434 0.42817 0.0
H1787 H 0.45452 0.43664 0.46259 0.0
H1788 H 0.53495 0.52271 0.47575 0.0
H1789 H 0.56156 0.55527 0.45588 0.0
H1790 H 0.55196 0.50335 0.40502 0.0
H1791 H 0.52563 0.47024 0.42462 0.0
C1792 C 0.50622 0.44568 0.54877 0.0
C1793 C 0.53298 0.44042 0.55336 0.0
C1794 C 0.4979 0.44656 0.5292 0.0
C1795 C 0.51604 0.44165 0.51383 0.0
C1796 C 0.5426 0.43541 0.51841 0.0
C1797 C 0.55103 0.43487 0.53801 0.0
C1798 C 0.50764 0.44593 0.49312 0.0
C1799 C 0.52202 0.46483 0.48157 0.0
C1800 C 0.48385 0.43431 0.48565 0.0
C1801 C 0.46934 0.41213 0.4964 0.0
C1802 C 0.48293 0.38841 0.50304 0.0
C1803 C 0.46947 0.36793 0.51366 0.0
C1804 C 0.44235 0.37084 0.51766 0.0
C1805 C 0.4286 0.39417 0.51097 0.0
C1806 C 0.44197 0.41473 0.50035 0.0
C1807 C 0.44457 0.47689 0.41169 0.0
C1808 C 0.44068 0.50575 0.41236 0.0
C1809 C 0.46026 0.46369 0.42584 0.0
C1810 C 0.47235 0.47909 0.4409 0.0
C1811 C 0.46891 0.50795 0.44135 0.0
C1812 C 0.45343 0.52118 0.42714 0.0
C1813 C 0.48677 0.46508 0.45713 0.0
C1814 C 0.47353 0.44432 0.46781 0.0
C1815 C 0.51205 0.4743 0.4635 0.0
C1816 C 0.52819 0.49402 0.45167 0.0
C1817 C 0.53866 0.51811 0.46036 0.0
C1818 C 0.55366 0.53671 0.44913 0.0
C1819 C 0.55841 0.53141 0.4292 0.0
C1820 C 0.54821 0.50747 0.42045 0.0
C1821 C 0.53322 0.4888 0.43161 0.0
H1822 H 0.57001 0.54584 0.42053 0.0
H1823 H 0.43198 0.355 0.52595 0.0
loop_
_geom_bond_atom_site_label_1
_geom_bond_atom_site_label_2
_geom_bond_distance
_geom_bond_site_symmetry_2
_ccdc_geom_bond_type
Mg0 O1 2.028 . S
Mg0 O7 1.986 . S
Mg0 O9 2.114 . S
Mg0 O10 2.251 . S
Mg0 O13 2.010 . S
O1 Mg0 2.028 . S
O1 C4 1.250 . S
O2 Mg3 2.028 1_545 S
O2 C4 1.248 . S
Mg3 O2 2.028 1_565 S
Mg3 O8 2.032 . S
Mg3 O10 2.079 1_565 S
C4 O1 1.250 . S
C4 O2 1.248 . S
C5 O6 1.264 . S
C5 O13 1.249 . S
O6 C5 1.264 . S
O7 Mg0 1.986 . S
O7 C11 1.246 . S
O8 Mg3 2.032 . S
O8 C11 1.259 1_565 S
O9 Mg0 2.114 . S
O9 C12 1.252 . S
O10 Mg0 2.251 . S
O10 Mg3 2.079 1_545 S
O10 C12 1.273 . S
C11 O7 1.246 . S
C11 O8 1.259 1_545 S
C12 O9 1.252 . S
C12 O10 1.273 . S
O13 Mg0 2.010 . S
O13 C5 1.249 . S
Mg14 O15 2.028 . S
Mg14 O21 1.986 . S
Mg14 O23 2.114 . S
Mg14 O24 2.251 . S
Mg14 O27 2.010 . S
O15 Mg14 2.028 . S
O15 C18 1.250 . S
O16 Mg17 2.028 1_565 S
O16 C18 1.248 . S
Mg17 O16 2.028 1_545 S
Mg17 O22 2.032 . S
Mg17 O24 2.079 1_545 S
C18 O15 1.250 . S
C18 O16 1.248 . S
C19 O20 1.264 . S
C19 O27 1.249 . S
O20 C19 1.264 . S
O21 Mg14 1.986 . S
O21 C25 1.246 . S
O22 Mg17 2.032 . S
O22 C25 1.259 1_545 S
O23 Mg14 2.114 . S
O23 C26 1.252 . S
O24 Mg14 2.251 . S
O24 Mg17 2.079 1_565 S
O24 C26 1.273 . S
C25 O21 1.246 . S
C25 O22 1.259 1_565 S
C26 O23 1.252 . S
C26 O24 1.273 . S
O27 Mg14 2.010 . S
O27 C19 1.249 . S
Mg28 O29 2.028 . S
Mg28 O35 1.986 . S
Mg28 O37 2.114 . S
Mg28 O38 2.251 . S
Mg28 O41 2.010 . S
O29 Mg28 2.028 . S
O29 C32 1.250 . S
O30 Mg31 2.028 1_565 S
O30 C32 1.248 . S
Mg31 O30 2.028 1_545 S
Mg31 O36 2.032 . S
Mg31 O38 2.079 1_545 S
C32 O29 1.250 . S
C32 O30 1.248 . S
C33 O34 1.264 . S
C33 O41 1.249 . S
O34 C33 1.264 . S
O35 Mg28 1.986 . S
O35 C39 1.246 . S
O36 Mg31 2.032 . S
O36 C39 1.259 1_545 S
O37 Mg28 2.114 . S
O37 C40 1.252 . S
O38 Mg28 2.251 . S
O38 Mg31 2.079 1_565 S
O38 C40 1.273 . S
C39 O35 1.246 . S
C39 O36 1.259 1_565 S
C40 O37 1.252 . S
C40 O38 1.273 . S
O41 Mg28 2.010 . S
O41 C33 1.249 . S
Mg42 O43 2.028 . S
Mg42 O49 1.986 . S
Mg42 O51 2.114 . S
Mg42 O52 2.251 . S
Mg42 O55 2.010 . S
O43 Mg42 2.028 . S
O43 C46 1.250 . S
O44 Mg45 2.028 1_545 S
O44 C46 1.248 . S
Mg45 O44 2.028 1_565 S
Mg45 O50 2.032 . S
Mg45 O52 2.079 1_565 S
C46 O43 1.250 . S
C46 O44 1.248 . S
C47 O48 1.264 . S
C47 O55 1.249 . S
O48 C47 1.264 . S
O49 Mg42 1.986 . S
O49 C53 1.246 . S
O50 Mg45 2.032 . S
O50 C53 1.259 1_565 S
O51 Mg42 2.114 . S
O51 C54 1.252 . S
O52 Mg42 2.251 . S
O52 Mg45 2.079 1_545 S
O52 C54 1.273 . S
C53 O49 1.246 . S
C53 O50 1.259 1_545 S
C54 O51 1.252 . S
C54 O52 1.273 . S
O55 Mg42 2.010 . S
O55 C47 1.249 . S
Mg56 O57 2.028 . S
Mg56 O63 1.986 . S
Mg56 O65 2.114 . S
Mg56 O66 2.251 . S
Mg56 O69 2.010 . S
O57 Mg56 2.028 . S
O57 C60 1.250 . S
O58 Mg59 2.028 . S
O58 C60 1.248 . S
Mg59 O58 2.028 . S
Mg59 O64 2.032 . S
Mg59 O66 2.079 . S
C60 O57 1.250 . S
C60 O58 1.248 . S
C61 O62 1.264 . S
C61 O69 1.249 . S
O62 C61 1.264 . S
O63 Mg56 1.986 . S
O63 C67 1.246 . S
O64 Mg59 2.032 . S
O64 C67 1.259 . S
O65 Mg56 2.114 . S
O65 C68 1.252 . S
O66 Mg56 2.251 . S
O66 Mg59 2.079 . S
O66 C68 1.273 . S
C67 O63 1.246 . S
C67 O64 1.259 . S
C68 O65 1.252 . S
C68 O66 1.273 . S
O69 Mg56 2.010 . S
O69 C61 1.249 . S
Mg70 O71 2.028 . S
Mg70 O77 1.986 . S
Mg70 O79 2.114 . S
Mg70 O80 2.251 . S
Mg70 O83 2.010 . S
O71 Mg70 2.028 . S
O71 C74 1.250 . S
O72 Mg73 2.028 . S
O72 C74 1.248 . S
Mg73 O72 2.028 . S
Mg73 O78 2.032 . S
Mg73 O80 2.079 . S
C74 O71 1.250 . S
C74 O72 1.248 . S
C75 O76 1.264 . S
C75 O83 1.249 . S
O76 C75 1.264 . S
O77 Mg70 1.986 . S
O77 C81 1.246 . S
O78 Mg73 2.032 . S
O78 C81 1.259 . S
O79 Mg70 2.114 . S
O79 C82 1.252 . S
O80 Mg70 2.251 . S
O80 Mg73 2.079 . S
O80 C82 1.273 . S
C81 O77 1.246 . S
C81 O78 1.259 . S
C82 O79 1.252 . S
C82 O80 1.273 . S
O83 Mg70 2.010 . S
O83 C75 1.249 . S
Mg84 O85 2.028 . S
Mg84 O91 1.986 . S
Mg84 O93 2.114 . S
Mg84 O94 2.251 . S
Mg84 O97 2.010 . S
O85 Mg84 2.028 . S
O85 C88 1.250 . S
O86 Mg87 2.028 . S
O86 C88 1.248 . S
Mg87 O86 2.028 . S
Mg87 O92 2.032 . S
Mg87 O94 2.079 . S
C88 O85 1.250 . S
C88 O86 1.248 . S
C89 O90 1.264 . S
C89 O97 1.249 . S
O90 C89 1.264 . S
O91 Mg84 1.986 . S
O91 C95 1.246 . S
O92 Mg87 2.032 . S
O92 C95 1.259 . S
O93 Mg84 2.114 . S
O93 C96 1.252 . S
O94 Mg84 2.251 . S
O94 Mg87 2.079 . S
O94 C96 1.273 . S
C95 O91 1.246 . S
C95 O92 1.259 . S
C96 O93 1.252 . S
C96 O94 1.273 . S
O97 Mg84 2.010 . S
O97 C89 1.249 . S
Mg98 O99 2.028 . S
Mg98 O105 1.986 . S
Mg98 O107 2.114 . S
Mg98 O108 2.251 . S
Mg98 O111 2.010 . S
O99 Mg98 2.028 . S
O99 C102 1.250 . S
O100 Mg101 2.028 . S
O100 C102 1.248 . S
Mg101 O100 2.028 . S
Mg101 O106 2.032 . S
Mg101 O108 2.079 . S
C102 O99 1.250 . S
C102 O100 1.248 . S
C103 O104 1.264 . S
C103 O111 1.249 . S
O104 C103 1.264 . S
O105 Mg98 1.986 . S
O105 C109 1.246 . S
O106 Mg101 2.032 . S
O106 C109 1.259 . S
O107 Mg98 2.114 . S
O107 C110 1.252 . S
O108 Mg98 2.251 . S
O108 Mg101 2.079 . S
O108 C110 1.273 . S
C109 O105 1.246 . S
C109 O106 1.259 . S
C110 O107 1.252 . S
C110 O108 1.273 . S
O111 Mg98 2.010 . S
O111 C103 1.249 . S
Mg112 O113 2.028 . S
Mg112 O119 1.986 . S
Mg112 O121 2.114 . S
Mg112 O122 2.251 . S
Mg112 O125 2.010 . S
O113 Mg112 2.028 . S
O113 C116 1.250 . S
O114 Mg115 2.028 . S
O114 C116 1.248 . S
Mg115 O114 2.028 . S
Mg115 O120 2.032 . S
Mg115 O122 2.079 . S
C116 O113 1.250 . S
C116 O114 1.248 . S
C117 O118 1.264 . S
C117 O125 1.249 . S
O118 C117 1.264 . S
O119 Mg112 1.986 . S
O119 C123 1.246 . S
O120 Mg115 2.032 . S
O120 C123 1.259 . S
O121 Mg112 2.114 . S
O121 C124 1.252 . S
O122 Mg112 2.251 . S
O122 Mg115 2.079 . S
O122 C124 1.273 . S
C123 O119 1.246 . S
C123 O120 1.259 . S
C124 O121 1.252 . S
C124 O122 1.273 . S
O125 Mg112 2.010 . S
O125 C117 1.249 . S
Mg126 O127 2.028 . S
Mg126 O133 1.986 . S
Mg126 O135 2.114 . S
Mg126 O136 2.251 . S
Mg126 O139 2.010 . S
O127 Mg126 2.028 . S
O127 C130 1.250 . S
O128 Mg129 2.028 . S
O128 C130 1.248 . S
Mg129 O128 2.028 . S
Mg129 O134 2.032 . S
Mg129 O136 2.079 . S
C130 O127 1.250 . S
C130 O128 1.248 . S
C131 O132 1.264 . S
C131 O139 1.249 . S
O132 C131 1.264 . S
O133 Mg126 1.986 . S
O133 C137 1.246 . S
O134 Mg129 2.032 . S
O134 C137 1.259 . S
O135 Mg126 2.114 . S
O135 C138 1.252 . S
O136 Mg126 2.251 . S
O136 Mg129 2.079 . S
O136 C138 1.273 . S
C137 O133 1.246 . S
C137 O134 1.259 . S
C138 O135 1.252 . S
C138 O136 1.273 . S
O139 Mg126 2.010 . S
O139 C131 1.249 . S
Mg140 O141 2.028 . S
Mg140 O147 1.986 . S
Mg140 O149 2.114 . S
Mg140 O150 2.251 . S
Mg140 O153 2.010 . S
O141 Mg140 2.028 . S
O141 C144 1.250 . S
O142 Mg143 2.028 . S
O142 C144 1.248 . S
Mg143 O142 2.028 . S
Mg143 O148 2.032 . S
Mg143 O150 2.079 . S
C144 O141 1.250 . S
C144 O142 1.248 . S
C145 O146 1.264 . S
C145 O153 1.249 . S
O146 C145 1.264 . S
O147 Mg140 1.986 . S
O147 C151 1.246 . S
O148 Mg143 2.032 . S
O148 C151 1.259 . S
O149 Mg140 2.114 . S
O149 C152 1.252 . S
O150 Mg140 2.251 . S
O150 Mg143 2.079 . S
O150 C152 1.273 . S
C151 O147 1.246 . S
C151 O148 1.259 . S
C152 O149 1.252 . S
C152 O150 1.273 . S
O153 Mg140 2.010 . S
O153 C145 1.249 . S
Mg154 O155 2.028 . S
Mg154 O161 1.986 . S
Mg154 O163 2.114 . S
Mg154 O164 2.251 . S
Mg154 O167 2.010 . S
O155 Mg154 2.028 . S
O155 C158 1.250 . S
O156 Mg157 2.028 . S
O156 C158 1.248 . S
Mg157 O156 2.028 . S
Mg157 O162 2.032 . S
Mg157 O164 2.079 . S
C158 O155 1.250 . S
C158 O156 1.248 . S
C159 O160 1.264 . S
C159 O167 1.249 . S
O160 C159 1.264 . S
O161 Mg154 1.986 . S
O161 C165 1.246 . S
O162 Mg157 2.032 . S
O162 C165 1.259 . S
O163 Mg154 2.114 . S
O163 C166 1.252 . S
O164 Mg154 2.251 . S
O164 Mg157 2.079 . S
O164 C166 1.273 . S
C165 O161 1.246 . S
C165 O162 1.259 . S
C166 O163 1.252 . S
C166 O164 1.273 . S
O167 Mg154 2.010 . S
O167 C159 1.249 . S
Mg168 O169 2.028 . S
Mg168 O175 1.986 . S
Mg168 O177 2.114 . S
Mg168 O178 2.251 . S
Mg168 O181 2.010 . S
O169 Mg168 2.028 . S
O169 C172 1.250 . S
O170 Mg171 2.028 . S
O170 C172 1.248 . S
Mg171 O170 2.028 . S
Mg171 O176 2.032 . S
Mg171 O178 2.079 . S
C172 O169 1.250 . S
C172 O170 1.248 . S
C173 O174 1.264 . S
C173 O181 1.249 . S
O174 C173 1.264 . S
O175 Mg168 1.986 . S
O175 C179 1.246 . S
O176 Mg171 2.032 . S
O176 C179 1.259 . S
O177 Mg168 2.114 . S
O177 C180 1.252 . S
O178 Mg168 2.251 . S
O178 Mg171 2.079 . S
O178 C180 1.273 . S
C179 O175 1.246 . S
C179 O176 1.259 . S
C180 O177 1.252 . S
C180 O178 1.273 . S
O181 Mg168 2.010 . S
O181 C173 1.249 . S
Mg182 O183 2.028 . S
Mg182 O189 1.986 . S
Mg182 O191 2.114 . S
Mg182 O192 2.251 . S
Mg182 O195 2.010 . S
O183 Mg182 2.028 . S
O183 C186 1.250 . S
O184 Mg185 2.028 . S
O184 C186 1.248 . S
Mg185 O184 2.028 . S
Mg185 O190 2.032 . S
Mg185 O192 2.079 . S
C186 O183 1.250 . S
C186 O184 1.248 . S
C187 O188 1.264 . S
C187 O195 1.249 . S
O188 C187 1.264 . S
O189 Mg182 1.986 . S
O189 C193 1.246 . S
O190 Mg185 2.032 . S
O190 C193 1.259 . S
O191 Mg182 2.114 . S
O191 C194 1.252 . S
O192 Mg182 2.251 . S
O192 Mg185 2.079 . S
O192 C194 1.273 . S
C193 O189 1.246 . S
C193 O190 1.259 . S
C194 O191 1.252 . S
C194 O192 1.273 . S
O195 Mg182 2.010 . S
O195 C187 1.249 . S
Mg196 O197 2.028 . S
Mg196 O203 1.986 . S
Mg196 O205 2.114 . S
Mg196 O206 2.251 . S
Mg196 O209 2.010 . S
O197 Mg196 2.028 . S
O197 C200 1.250 . S
O198 Mg199 2.028 . S
O198 C200 1.248 . S
Mg199 O198 2.028 . S
Mg199 O204 2.032 . S
Mg199 O206 2.079 . S
C200 O197 1.250 . S
C200 O198 1.248 . S
C201 O202 1.264 . S
C201 O209 1.249 . S
O202 C201 1.264 . S
O203 Mg196 1.986 . S
O203 C207 1.246 . S
O204 Mg199 2.032 . S
O204 C207 1.259 . S
O205 Mg196 2.114 . S
O205 C208 1.252 . S
O206 Mg196 2.251 . S
O206 Mg199 2.079 . S
O206 C208 1.273 . S
C207 O203 1.246 . S
C207 O204 1.259 . S
C208 O205 1.252 . S
C208 O206 1.273 . S
O209 Mg196 2.010 . S
O209 C201 1.249 . S
Mg210 O211 2.028 . S
Mg210 O217 1.986 . S
Mg210 O219 2.114 . S
Mg210 O220 2.251 . S
Mg210 O223 2.010 . S
O211 Mg210 2.028 . S
O211 C214 1.250 . S
O212 Mg213 2.028 . S
O212 C214 1.248 . S
Mg213 O212 2.028 . S
Mg213 O218 2.032 . S
Mg213 O220 2.079 . S
C214 O211 1.250 . S
C214 O212 1.248 . S
C215 O216 1.264 . S
C215 O223 1.249 . S
O216 C215 1.264 . S
O217 Mg210 1.986 . S
O217 C221 1.246 . S
O218 Mg213 2.032 . S
O218 C221 1.259 . S
O219 Mg210 2.114 . S
O219 C222 1.252 . S
O220 Mg210 2.251 . S
O220 Mg213 2.079 . S
O220 C222 1.273 . S
C221 O217 1.246 . S
C221 O218 1.259 . S
C222 O219 1.252 . S
C222 O220 1.273 . S
O223 Mg210 2.010 . S
O223 C215 1.249 . S
H224 C242 0.951 1_545 S
H225 C244 0.951 . S
H226 C246 0.950 . S
H227 C247 0.950 . S
H228 C249 0.950 . S
H229 C252 0.950 1_565 S
H230 C253 0.950 1_565 S
H231 C255 0.950 . S
H232 C256 0.950 . S
H233 C257 0.951 1_565 S
H234 C259 0.951 . S
H235 C261 0.950 . S
H236 C262 0.950 . S
H237 C264 0.950 . S
H238 C267 0.950 1_545 S
H239 C268 0.950 1_545 S
H240 C270 0.950 . S
H241 C271 0.950 . S
C242 H224 0.951 1_565 S
C242 C243 1.366 . S
C242 C244 1.388 1_565 S
C243 C242 1.366 . S
C243 C247 1.385 . S
C244 H225 0.951 . S
C244 C242 1.388 1_545 S
C244 C245 1.366 1_545 S
C245 C244 1.366 1_565 S
C245 C246 1.414 . S
C245 C248 1.499 . S
C246 H226 0.950 . S
C246 C245 1.414 . S
C246 C247 1.374 . S
C247 H227 0.950 . S
C247 C243 1.385 . S
C247 C246 1.374 . S
C248 C245 1.499 . S
C248 C249 1.373 . S
C248 C250 1.389 1_565 S
C249 H228 0.950 . S
C249 C248 1.373 . S
C249 C265 1.377 . S
C250 C248 1.389 1_545 S
C250 C251 1.524 . S
C250 C264 1.377 . S
C251 C250 1.524 . S
C251 C252 1.397 . S
C251 C256 1.363 . S
C252 H229 0.950 1_545 S
C252 C251 1.397 . S
C252 C253 1.334 . S
C253 H230 0.950 1_545 S
C253 C252 1.334 . S
C253 C254 1.287 . S
C254 C253 1.287 . S
C254 C255 1.524 . S
C254 H273 0.913 . S
C255 H231 0.950 . S
C255 C254 1.524 . S
C255 C256 1.415 . S
C256 H232 0.950 . S
C256 C251 1.363 . S
C256 C255 1.415 . S
C257 H233 0.951 1_545 S
C257 C258 1.366 . S
C257 C259 1.388 1_545 S
C258 C257 1.366 . S
C258 C262 1.385 . S
C259 H234 0.951 . S
C259 C257 1.388 1_565 S
C259 C260 1.366 1_565 S
C260 C259 1.366 1_545 S
C260 C261 1.414 . S
C260 C263 1.499 . S
C261 H235 0.950 . S
C261 C260 1.414 . S
C261 C262 1.374 . S
C262 H236 0.950 . S
C262 C258 1.385 . S
C262 C261 1.374 . S
C263 C260 1.499 . S
C263 C264 1.373 . S
C263 C265 1.389 1_545 S
C264 H237 0.950 . S
C264 C250 1.377 . S
C264 C263 1.373 . S
C265 C249 1.377 . S
C265 C263 1.389 1_565 S
C265 C266 1.524 . S
C266 C265 1.524 . S
C266 C267 1.397 . S
C266 C271 1.363 . S
C267 H238 0.950 1_565 S
C267 C266 1.397 . S
C267 C268 1.334 . S
C268 H239 0.950 1_565 S
C268 C267 1.334 . S
C268 C269 1.287 . S
C269 C268 1.287 . S
C269 C270 1.524 . S
C269 H272 0.999 . S
C270 H240 0.950 . S
C270 C269 1.524 . S
C270 C271 1.415 . S
C271 H241 0.950 . S
C271 C266 1.363 . S
C271 C270 1.415 . S
H272 C269 0.999 . S
H273 C254 0.913 . S
H274 C292 0.951 . S
H275 C294 0.951 . S
H276 C296 0.950 1_545 S
H277 C297 0.950 . S
H278 C299 0.950 . S
H279 C302 0.950 . S
H280 C303 0.950 . S
H281 C305 0.964 . S
H282 C306 0.939 1_565 S
H283 C307 0.951 . S
H284 C309 0.951 . S
H285 C311 0.950 1_565 S
H286 C312 0.950 . S
H287 C314 0.950 . S
H288 C317 0.950 . S
H289 C318 0.950 . S
H290 C320 0.964 . S
H291 C321 0.939 1_545 S
C292 H274 0.951 . S
C292 C293 1.366 . S
C292 C294 1.388 . S
C293 C292 1.366 . S
C293 C297 1.385 . S
C294 H275 0.951 . S
C294 C292 1.388 . S
C294 C295 1.366 . S
C295 C294 1.366 . S
C295 C296 1.414 . S
C295 C298 1.499 . S
C296 H276 0.950 1_565 S
C296 C295 1.414 . S
C296 C297 1.374 . S
C297 H277 0.950 . S
C297 C293 1.385 . S
C297 C296 1.374 . S
C298 C295 1.499 . S
C298 C299 1.373 . S
C298 C300 1.389 1_565 S
C299 H278 0.950 . S
C299 C298 1.373 . S
C299 C315 1.377 . S
C300 C298 1.389 1_545 S
C300 C301 1.524 . S
C300 C314 1.377 . S
C301 C300 1.524 . S
C301 C302 1.397 . S
C301 C306 1.370 . S
C302 H279 0.950 . S
C302 C301 1.397 . S
C302 C303 1.334 . S
C303 H280 0.950 . S
C303 C302 1.334 . S
C303 C304 1.287 . S
C304 C303 1.287 . S
C304 C305 1.524 . S
C304 H323 0.913 . S
C305 H281 0.964 . S
C305 C304 1.524 . S
C305 C306 1.420 . S
C306 H282 0.939 1_545 S
C306 C301 1.370 . S
C306 C305 1.420 . S
C307 H283 0.951 . S
C307 C308 1.366 . S
C307 C309 1.388 . S
C308 C307 1.366 . S
C308 C312 1.385 . S
C309 H284 0.951 . S
C309 C307 1.388 . S
C309 C310 1.366 . S
C310 C309 1.366 . S
C310 C311 1.414 . S
C310 C313 1.499 . S
C311 H285 0.950 1_545 S
C311 C310 1.414 . S
C311 C312 1.374 . S
C312 H286 0.950 . S
C312 C308 1.385 . S
C312 C311 1.374 . S
C313 C310 1.499 . S
C313 C314 1.373 . S
C313 C315 1.389 1_545 S
C314 H287 0.950 . S
C314 C300 1.377 . S
C314 C313 1.373 . S
C315 C299 1.377 . S
C315 C313 1.389 1_565 S
C315 C316 1.524 . S
C316 C315 1.524 . S
C316 C317 1.397 . S
C316 C321 1.370 . S
C317 H288 0.950 . S
C317 C316 1.397 . S
C317 C318 1.334 . S
C318 H289 0.950 . S
C318 C317 1.334 . S
C318 C319 1.287 . S
C319 C318 1.287 . S
C319 C320 1.524 . S
C319 H322 0.999 . S
C320 H290 0.964 . S
C320 C319 1.524 . S
C320 C321 1.420 . S
C321 H291 0.939 1_565 S
C321 C316 1.370 . S
C321 C320 1.420 . S
H322 C319 0.999 . S
H323 C304 0.913 . S
H324 C342 0.951 . S
H325 C344 0.951 . S
H326 C346 0.950 . S
H327 C347 0.950 . S
H328 C349 0.950 . S
H329 C352 0.950 . S
H330 C353 0.950 . S
H331 C355 0.950 . S
H332 C356 0.950 . S
H333 C357 0.951 . S
H334 C359 0.951 . S
H335 C361 0.950 . S
H336 C362 0.950 . S
H337 C364 0.950 . S
H338 C367 0.950 . S
H339 C368 0.950 . S
H340 C370 0.950 . S
H341 C371 0.950 . S
C342 H324 0.951 . S
C342 C343 1.366 . S
C342 C344 1.388 . S
C343 C342 1.366 . S
C343 C347 1.385 . S
C344 H325 0.951 . S
C344 C342 1.388 . S
C344 C345 1.366 . S
C345 C344 1.366 . S
C345 C346 1.414 . S
C345 C348 1.499 . S
C346 H326 0.950 . S
C346 C345 1.414 . S
C346 C347 1.374 . S
C347 H327 0.950 . S
C347 C343 1.385 . S
C347 C346 1.374 . S
C348 C345 1.499 . S
C348 C349 1.373 . S
C348 C350 1.389 1_565 S
C349 H328 0.950 . S
C349 C348 1.373 . S
C349 C365 1.377 . S
C350 C348 1.389 1_545 S
C350 C351 1.524 . S
C350 C364 1.377 . S
C351 C350 1.524 . S
C351 C352 1.397 . S
C351 C356 1.363 . S
C352 H329 0.950 . S
C352 C351 1.397 . S
C352 C353 1.334 . S
C353 H330 0.950 . S
C353 C352 1.334 . S
C353 C354 1.287 . S
C354 C353 1.287 . S
C354 C355 1.524 . S
C354 H373 0.913 . S
C355 H331 0.950 . S
C355 C354 1.524 . S
C355 C356 1.415 . S
C356 H332 0.950 . S
C356 C351 1.363 . S
C356 C355 1.415 . S
C357 H333 0.951 . S
C357 C358 1.366 . S
C357 C359 1.388 . S
C358 C357 1.366 . S
C358 C362 1.385 . S
C359 H334 0.951 . S
C359 C357 1.388 . S
C359 C360 1.366 . S
C360 C359 1.366 . S
C360 C361 1.414 . S
C360 C363 1.499 . S
C361 H335 0.950 . S
C361 C360 1.414 . S
C361 C362 1.374 . S
C362 H336 0.950 . S
C362 C358 1.385 . S
C362 C361 1.374 . S
C363 C360 1.499 . S
C363 C364 1.373 . S
C363 C365 1.389 1_545 S
C364 H337 0.950 . S
C364 C350 1.377 . S
C364 C363 1.373 . S
C365 C349 1.377 . S
C365 C363 1.389 1_565 S
C365 C366 1.524 . S
C366 C365 1.524 . S
C366 C367 1.397 . S
C366 C371 1.363 . S
C367 H338 0.950 . S
C367 C366 1.397 . S
C367 C368 1.334 . S
C368 H339 0.950 . S
C368 C367 1.334 . S
C368 C369 1.287 . S
C369 C368 1.287 . S
C369 C370 1.524 . S
C369 H372 0.999 . S
C370 H340 0.950 . S
C370 C369 1.524 . S
C370 C371 1.415 . S
C371 H341 0.950 . S
C371 C366 1.363 . S
C371 C370 1.415 . S
H372 C369 0.999 . S
H373 C354 0.913 . S
H374 C392 0.951 . S
H375 C394 0.951 . S
H376 C396 0.950 . S
H377 C397 0.950 . S
H378 C399 0.950 . S
H379 C402 0.950 . S
H380 C403 0.950 . S
H381 C405 0.950 . S
H382 C406 0.950 . S
H383 C407 0.951 . S
H384 C409 0.951 . S
H385 C411 0.950 . S
H386 C412 0.950 . S
H387 C414 0.950 . S
H388 C417 0.950 . S
H389 C418 0.950 . S
H390 C420 0.950 . S
H391 C421 0.950 . S
C392 H374 0.951 . S
C392 C393 1.366 . S
C392 C394 1.388 . S
C393 C392 1.366 . S
C393 C397 1.385 . S
C394 H375 0.951 . S
C394 C392 1.388 . S
C394 C395 1.366 . S
C395 C394 1.366 . S
C395 C396 1.414 . S
C395 C398 1.499 . S
C396 H376 0.950 . S
C396 C395 1.414 . S
C396 C397 1.374 . S
C397 H377 0.950 . S
C397 C393 1.385 . S
C397 C396 1.374 . S
C398 C395 1.499 . S
C398 C399 1.373 . S
C398 C400 1.389 1_565 S
C399 H378 0.950 . S
C399 C398 1.373 . S
C399 C415 1.377 . S
C400 C398 1.389 1_545 S
C400 C401 1.524 . S
C400 C414 1.377 . S
C401 C400 1.524 . S
C401 C402 1.397 . S
C401 C406 1.363 . S
C402 H379 0.950 . S
C402 C401 1.397 . S
C402 C403 1.334 . S
C403 H380 0.950 . S
C403 C402 1.334 . S
C403 C404 1.287 . S
C404 C403 1.287 . S
C404 C405 1.524 . S
C404 H423 0.913 . S
C405 H381 0.950 . S
C405 C404 1.524 . S
C405 C406 1.415 . S
C406 H382 0.950 . S
C406 C401 1.363 . S
C406 C405 1.415 . S
C407 H383 0.951 . S
C407 C408 1.366 . S
C407 C409 1.388 . S
C408 C407 1.366 . S
C408 C412 1.385 . S
C409 H384 0.951 . S
C409 C407 1.388 . S
C409 C410 1.366 . S
C410 C409 1.366 . S
C410 C411 1.414 . S
C410 C413 1.499 . S
C411 H385 0.950 . S
C411 C410 1.414 . S
C411 C412 1.374 . S
C412 H386 0.950 . S
C412 C408 1.385 . S
C412 C411 1.374 . S
C413 C410 1.499 . S
C413 C414 1.373 . S
C413 C415 1.389 1_545 S
C414 H387 0.950 . S
C414 C400 1.377 . S
C414 C413 1.373 . S
C415 C399 1.377 . S
C415 C413 1.389 1_565 S
C415 C416 1.524 . S
C416 C415 1.524 . S
C416 C417 1.397 . S
C416 C421 1.363 . S
C417 H388 0.950 . S
C417 C416 1.397 . S
C417 C418 1.334 . S
C418 H389 0.950 . S
C418 C417 1.334 . S
C418 C419 1.287 . S
C419 C418 1.287 . S
C419 C420 1.524 . S
C419 H422 0.999 . S
C420 H390 0.950 . S
C420 C419 1.524 . S
C420 C421 1.415 . S
C421 H391 0.950 . S
C421 C416 1.363 . S
C421 C420 1.415 . S
H422 C419 0.999 . S
H423 C404 0.913 . S
H424 C442 0.951 . S
H425 C444 0.951 . S
H426 C446 0.950 . S
H427 C447 0.950 . S
H428 C449 0.950 . S
H429 C452 0.950 . S
H430 C453 0.950 . S
H431 C455 0.950 . S
H432 C456 0.950 . S
H433 C457 0.951 . S
H434 C459 0.951 . S
H435 C461 0.950 . S
H436 C462 0.950 . S
H437 C464 0.950 . S
H438 C467 0.950 . S
H439 C468 0.950 . S
H440 C470 0.950 . S
H441 C471 0.950 . S
C442 H424 0.951 . S
C442 C443 1.366 . S
C442 C444 1.388 . S
C443 C442 1.366 . S
C443 C447 1.385 . S
C444 H425 0.951 . S
C444 C442 1.388 . S
C444 C445 1.366 . S
C445 C444 1.366 . S
C445 C446 1.414 . S
C445 C448 1.499 . S
C446 H426 0.950 . S
C446 C445 1.414 . S
C446 C447 1.374 . S
C447 H427 0.950 . S
C447 C443 1.385 . S
C447 C446 1.374 . S
C448 C445 1.499 . S
C448 C449 1.373 . S
C448 C450 1.389 . S
C449 H428 0.950 . S
C449 C448 1.373 . S
C449 C465 1.377 . S
C450 C448 1.389 . S
C450 C451 1.524 . S
C450 C464 1.377 . S
C451 C450 1.524 . S
C451 C452 1.397 . S
C451 C456 1.363 . S
C452 H429 0.950 . S
C452 C451 1.397 . S
C452 C453 1.334 . S
C453 H430 0.950 . S
C453 C452 1.334 . S
C453 C454 1.287 . S
C454 C453 1.287 . S
C454 C455 1.524 . S
C454 H473 0.913 . S
C455 H431 0.950 . S
C455 C454 1.524 . S
C455 C456 1.415 . S
C456 H432 0.950 . S
C456 C451 1.363 . S
C456 C455 1.415 . S
C457 H433 0.951 . S
C457 C458 1.366 . S
C457 C459 1.388 . S
C458 C457 1.366 . S
C458 C462 1.385 . S
C459 H434 0.951 . S
C459 C457 1.388 . S
C459 C460 1.366 . S
C460 C459 1.366 . S
C460 C461 1.414 . S
C460 C463 1.499 . S
C461 H435 0.950 . S
C461 C460 1.414 . S
C461 C462 1.374 . S
C462 H436 0.950 . S
C462 C458 1.385 . S
C462 C461 1.374 . S
C463 C460 1.499 . S
C463 C464 1.373 . S
C463 C465 1.389 . S
C464 H437 0.950 . S
C464 C450 1.377 . S
C464 C463 1.373 . S
C465 C449 1.377 . S
C465 C463 1.389 . S
C465 C466 1.524 . S
C466 C465 1.524 . S
C466 C467 1.397 . S
C466 C471 1.363 . S
C467 H438 0.950 . S
C467 C466 1.397 . S
C467 C468 1.334 . S
C468 H439 0.950 . S
C468 C467 1.334 . S
C468 C469 1.287 . S
C469 C468 1.287 . S
C469 C470 1.524 . S
C469 H472 0.999 . S
C470 H440 0.950 . S
C470 C469 1.524 . S
C470 C471 1.415 . S
C471 H441 0.950 . S
C471 C466 1.363 . S
C471 C470 1.415 . S
H472 C469 0.999 . S
H473 C454 0.913 . S
H474 C492 0.951 . S
H475 C494 0.951 . S
H476 C496 0.950 . S
H477 C497 0.950 . S
H478 C499 0.950 . S
H479 C502 0.950 . S
H480 C503 0.950 . S
H481 C505 0.950 . S
H482 C506 0.950 . S
H483 C507 0.951 . S
H484 C509 0.951 . S
H485 C511 0.950 . S
H486 C512 0.950 . S
H487 C514 0.950 . S
H488 C517 0.950 . S
H489 C518 0.950 . S
H490 C520 0.950 . S
H491 C521 0.950 . S
C492 H474 0.951 . S
C492 C493 1.366 . S
C492 C494 1.388 . S
C493 C492 1.366 . S
C493 C497 1.385 . S
C494 H475 0.951 . S
C494 C492 1.388 . S
C494 C495 1.366 . S
C495 C494 1.366 . S
C495 C496 1.414 . S
C495 C498 1.499 . S
C496 H476 0.950 . S
C496 C495 1.414 . S
C496 C497 1.374 . S
C497 H477 0.950 . S
C497 C493 1.385 . S
C497 C496 1.374 . S
C498 C495 1.499 . S
C498 C499 1.373 . S
C498 C500 1.389 . S
C499 H478 0.950 . S
C499 C498 1.373 . S
C499 C515 1.377 . S
C500 C498 1.389 . S
C500 C501 1.524 . S
C500 C514 1.377 . S
C501 C500 1.524 . S
C501 C502 1.397 . S
C501 C506 1.363 . S
C502 H479 0.950 . S
C502 C501 1.397 . S
C502 C503 1.334 . S
C503 H480 0.950 . S
C503 C502 1.334 . S
C503 C504 1.287 . S
C504 C503 1.287 . S
C504 C505 1.524 . S
C504 H523 0.913 . S
C505 H481 0.950 . S
C505 C504 1.524 . S
C505 C506 1.415 . S
C506 H482 0.950 . S
C506 C501 1.363 . S
C506 C505 1.415 . S
C507 H483 0.951 . S
C507 C508 1.366 . S
C507 C509 1.388 . S
C508 C507 1.366 . S
C508 C512 1.385 . S
C509 H484 0.951 . S
C509 C507 1.388 . S
C509 C510 1.366 . S
C510 C509 1.366 . S
C510 C511 1.414 . S
C510 C513 1.499 . S
C511 H485 0.950 . S
C511 C510 1.414 . S
C511 C512 1.374 . S
C512 H486 0.950 . S
C512 C508 1.385 . S
C512 C511 1.374 . S
C513 C510 1.499 . S
C513 C514 1.373 . S
C513 C515 1.389 . S
C514 H487 0.950 . S
C514 C500 1.377 . S
C514 C513 1.373 . S
C515 C499 1.377 . S
C515 C513 1.389 . S
C515 C516 1.524 . S
C516 C515 1.524 . S
C516 C517 1.397 . S
C516 C521 1.363 . S
C517 H488 0.950 . S
C517 C516 1.397 . S
C517 C518 1.334 . S
C518 H489 0.950 . S
C518 C517 1.334 . S
C518 C519 1.287 . S
C519 C518 1.287 . S
C519 C520 1.524 . S
C519 H522 0.999 . S
C520 H490 0.950 . S
C520 C519 1.524 . S
C520 C521 1.415 . S
C521 H491 0.950 . S
C521 C516 1.363 . S
C521 C520 1.415 . S
H522 C519 0.999 . S
H523 C504 0.913 . S
H524 C542 0.951 . S
H525 C544 0.951 . S
H526 C546 0.950 . S
H527 C547 0.950 . S
H528 C549 0.950 . S
H529 C552 0.950 . S
H530 C553 0.950 . S
H531 C555 0.950 . S
H532 C556 0.950 . S
H533 C557 0.951 . S
H534 C559 0.951 . S
H535 C561 0.950 . S
H536 C562 0.950 . S
H537 C564 0.950 . S
H538 C567 0.950 . S
H539 C568 0.950 . S
H540 C570 0.950 . S
H541 C571 0.950 . S
C542 H524 0.951 . S
C542 C543 1.366 . S
C542 C544 1.388 . S
C543 C542 1.366 . S
C543 C547 1.385 . S
C544 H525 0.951 . S
C544 C542 1.388 . S
C544 C545 1.366 . S
C545 C544 1.366 . S
C545 C546 1.414 . S
C545 C548 1.499 . S
C546 H526 0.950 . S
C546 C545 1.414 . S
C546 C547 1.374 . S
C547 H527 0.950 . S
C547 C543 1.385 . S
C547 C546 1.374 . S
C548 C545 1.499 . S
C548 C549 1.373 . S
C548 C550 1.389 . S
C549 H528 0.950 . S
C549 C548 1.373 . S
C549 C565 1.377 . S
C550 C548 1.389 . S
C550 C551 1.524 . S
C550 C564 1.377 . S
C551 C550 1.524 . S
C551 C552 1.397 . S
C551 C556 1.363 . S
C552 H529 0.950 . S
C552 C551 1.397 . S
C552 C553 1.334 . S
C553 H530 0.950 . S
C553 C552 1.334 . S
C553 C554 1.287 . S
C554 C553 1.287 . S
C554 C555 1.524 . S
C554 H573 0.913 . S
C555 H531 0.950 . S
C555 C554 1.524 . S
C555 C556 1.415 . S
C556 H532 0.950 . S
C556 C551 1.363 . S
C556 C555 1.415 . S
C557 H533 0.951 . S
C557 C558 1.366 . S
C557 C559 1.388 . S
C558 C557 1.366 . S
C558 C562 1.385 . S
C559 H534 0.951 . S
C559 C557 1.388 . S
C559 C560 1.366 . S
C560 C559 1.366 . S
C560 C561 1.414 . S
C560 C563 1.499 . S
C561 H535 0.950 . S
C561 C560 1.414 . S
C561 C562 1.374 . S
C562 H536 0.950 . S
C562 C558 1.385 . S
C562 C561 1.374 . S
C563 C560 1.499 . S
C563 C564 1.373 . S
C563 C565 1.389 . S
C564 H537 0.950 . S
C564 C550 1.377 . S
C564 C563 1.373 . S
C565 C549 1.377 . S
C565 C563 1.389 . S
C565 C566 1.524 . S
C566 C565 1.524 . S
C566 C567 1.397 . S
C566 C571 1.363 . S
C567 H538 0.950 . S
C567 C566 1.397 . S
C567 C568 1.334 . S
C568 H539 0.950 . S
C568 C567 1.334 . S
C568 C569 1.287 . S
C569 C568 1.287 . S
C569 C570 1.524 . S
C569 H572 0.999 . S
C570 H540 0.950 . S
C570 C569 1.524 . S
C570 C571 1.415 . S
C571 H541 0.950 . S
C571 C566 1.363 . S
C571 C570 1.415 . S
H572 C569 0.999 . S
H573 C554 0.913 . S
H574 C592 0.951 . S
H575 C594 0.951 . S
H576 C596 0.950 . S
H577 C597 0.950 . S
H578 C599 0.950 . S
H579 C602 0.950 . S
H580 C603 0.950 . S
H581 C605 0.950 . S
H582 C606 0.950 . S
H583 C607 0.951 . S
H584 C609 0.951 . S
H585 C611 0.950 . S
H586 C612 0.950 . S
H587 C614 0.950 . S
H588 C617 0.950 . S
H589 C618 0.950 . S
H590 C620 0.950 . S
H591 C621 0.950 . S
C592 H574 0.951 . S
C592 C593 1.366 . S
C592 C594 1.388 . S
C593 C592 1.366 . S
C593 C597 1.385 . S
C594 H575 0.951 . S
C594 C592 1.388 . S
C594 C595 1.366 . S
C595 C594 1.366 . S
C595 C596 1.414 . S
C595 C598 1.499 . S
C596 H576 0.950 . S
C596 C595 1.414 . S
C596 C597 1.374 . S
C597 H577 0.950 . S
C597 C593 1.385 . S
C597 C596 1.374 . S
C598 C595 1.499 . S
C598 C599 1.373 . S
C598 C600 1.389 . S
C599 H578 0.950 . S
C599 C598 1.373 . S
C599 C615 1.377 . S
C600 C598 1.389 . S
C600 C601 1.524 . S
C600 C614 1.377 . S
C601 C600 1.524 . S
C601 C602 1.397 . S
C601 C606 1.363 . S
C602 H579 0.950 . S
C602 C601 1.397 . S
C602 C603 1.334 . S
C603 H580 0.950 . S
C603 C602 1.334 . S
C603 C604 1.287 . S
C604 C603 1.287 . S
C604 C605 1.524 . S
C604 H623 0.913 . S
C605 H581 0.950 . S
C605 C604 1.524 . S
C605 C606 1.415 . S
C606 H582 0.950 . S
C606 C601 1.363 . S
C606 C605 1.415 . S
C607 H583 0.951 . S
C607 C608 1.366 . S
C607 C609 1.388 . S
C608 C607 1.366 . S
C608 C612 1.385 . S
C609 H584 0.951 . S
C609 C607 1.388 . S
C609 C610 1.366 . S
C610 C609 1.366 . S
C610 C611 1.414 . S
C610 C613 1.499 . S
C611 H585 0.950 . S
C611 C610 1.414 . S
C611 C612 1.374 . S
C612 H586 0.950 . S
C612 C608 1.385 . S
C612 C611 1.374 . S
C613 C610 1.499 . S
C613 C614 1.373 . S
C613 C615 1.389 . S
C614 H587 0.950 . S
C614 C600 1.377 . S
C614 C613 1.373 . S
C615 C599 1.377 . S
C615 C613 1.389 . S
C615 C616 1.524 . S
C616 C615 1.524 . S
C616 C617 1.397 . S
C616 C621 1.363 . S
C617 H588 0.950 . S
C617 C616 1.397 . S
C617 C618 1.334 . S
C618 H589 0.950 . S
C618 C617 1.334 . S
C618 C619 1.287 . S
C619 C618 1.287 . S
C619 C620 1.524 . S
C619 H622 0.999 . S
C620 H590 0.950 . S
C620 C619 1.524 . S
C620 C621 1.415 . S
C621 H591 0.950 . S
C621 C616 1.363 . S
C621 C620 1.415 . S
H622 C619 0.999 . S
H623 C604 0.913 . S
H624 C642 0.951 . S
H625 C644 0.951 . S
H626 C646 0.950 1_455 S
H627 C647 0.950 . S
H628 C649 0.950 . S
H629 C652 0.950 . S
H630 C653 0.950 . S
H631 C655 0.950 . S
H632 C656 0.950 . S
H633 C657 0.951 . S
H634 C659 0.951 . S
H635 C661 0.950 1_655 S
H636 C662 0.950 . S
H637 C664 0.950 1_565 S
H638 C667 0.950 . S
H639 C668 0.950 . S
H640 C670 0.950 . S
H641 C671 0.950 . S
C642 H624 0.951 . S
C642 C643 1.366 . S
C642 C644 1.388 . S
C643 C642 1.366 . S
C643 C647 1.385 . S
C644 H625 0.951 . S
C644 C642 1.388 . S
C644 C645 1.366 . S
C645 C644 1.366 . S
C645 C646 1.414 . S
C645 C648 1.499 . S
C646 H626 0.950 1_655 S
C646 C645 1.414 . S
C646 C647 1.374 . S
C647 H627 0.950 . S
C647 C643 1.385 . S
C647 C646 1.374 . S
C648 C645 1.499 . S
C648 C649 1.373 . S
C648 C650 1.389 . S
C649 H628 0.950 . S
C649 C648 1.373 . S
C649 C665 1.377 1_655 S
C650 C648 1.389 . S
C650 C651 1.524 1_545 S
C650 C664 1.377 1_655 S
C651 C650 1.524 1_565 S
C651 C652 1.397 1_655 S
C651 C656 1.363 . S
C652 H629 0.950 . S
C652 C651 1.397 1_455 S
C652 C653 1.334 . S
C653 H630 0.950 . S
C653 C652 1.334 . S
C653 C654 1.287 1_455 S
C654 C653 1.287 1_655 S
C654 C655 1.524 . S
C654 H673 0.913 . S
C655 H631 0.950 . S
C655 C654 1.524 . S
C655 C656 1.415 . S
C656 H632 0.950 . S
C656 C651 1.363 . S
C656 C655 1.415 . S
C657 H633 0.951 . S
C657 C658 1.366 . S
C657 C659 1.388 . S
C658 C657 1.366 . S
C658 C662 1.385 . S
C659 H634 0.951 . S
C659 C657 1.388 . S
C659 C660 1.366 . S
C660 C659 1.366 . S
C660 C661 1.414 . S
C660 C663 1.499 . S
C661 H635 0.950 1_455 S
C661 C660 1.414 . S
C661 C662 1.374 . S
C662 H636 0.950 . S
C662 C658 1.385 . S
C662 C661 1.374 . S
C663 C660 1.499 . S
C663 C664 1.373 . S
C663 C665 1.389 . S
C664 H637 0.950 1_545 S
C664 C650 1.377 1_455 S
C664 C663 1.373 . S
C665 C649 1.377 1_455 S
C665 C663 1.389 . S
C665 C666 1.524 . S
C666 C665 1.524 . S
C666 C667 1.397 1_455 S
C666 C671 1.363 . S
C667 H638 0.950 . S
C667 C666 1.397 1_655 S
C667 C668 1.334 . S
C668 H639 0.950 . S
C668 C667 1.334 . S
C668 C669 1.287 1_655 S
C669 C668 1.287 1_455 S
C669 C670 1.524 . S
C669 H672 0.999 . S
C670 H640 0.950 . S
C670 C669 1.524 . S
C670 C671 1.415 . S
C671 H641 0.950 . S
C671 C666 1.363 . S
C671 C670 1.415 . S
H672 C669 0.999 . S
H673 C654 0.913 . S
H674 C692 0.951 . S
H675 C694 0.951 . S
H676 C696 0.943 1_545 S
H677 C697 0.951 . S
H678 C699 0.950 . S
H679 C702 0.958 . S
H680 C703 0.950 . S
H681 C705 0.950 . S
H682 C706 0.950 . S
H683 C707 0.965 . S
H684 C709 0.951 . S
H685 C711 0.950 . S
H686 C712 0.950 . S
H687 C714 0.950 . S
H688 C717 0.950 . S
H689 C718 0.950 . S
H690 C720 0.950 . S
H691 C721 0.950 . S
C692 H674 0.951 . S
C692 C693 1.366 . S
C692 C694 1.388 . S
C693 C692 1.366 . S
C693 C697 1.385 . S
C694 H675 0.951 . S
C694 C692 1.388 . S
C694 C695 1.366 . S
C695 C694 1.366 . S
C695 C696 1.414 . S
C695 C698 1.499 . S
C696 H676 0.943 1_565 S
C696 C695 1.414 . S
C696 C697 1.374 . S
C697 H677 0.951 . S
C697 C693 1.385 . S
C697 C696 1.374 . S
C698 C695 1.499 . S
C698 C699 1.373 . S
C698 C700 1.389 . S
C699 H678 0.950 . S
C699 C698 1.373 . S
C699 C715 1.377 . S
C700 C698 1.389 . S
C700 C701 1.524 . S
C700 C714 1.377 . S
C701 C700 1.524 . S
C701 C702 1.385 1_565 S
C701 C706 1.363 . S
C702 H679 0.958 . S
C702 C701 1.385 1_545 S
C702 C703 1.337 . S
C703 H680 0.950 . S
C703 C702 1.337 . S
C703 C704 1.287 1_545 S
C704 C703 1.287 1_565 S
C704 C705 1.524 . S
C704 H723 0.913 . S
C705 H681 0.950 . S
C705 C704 1.524 . S
C705 C706 1.415 . S
C706 H682 0.950 . S
C706 C701 1.363 . S
C706 C705 1.415 . S
C707 H683 0.965 . S
C707 C708 1.366 . S
C707 C709 1.388 . S
C708 C707 1.366 . S
C708 C712 1.385 . S
C709 H684 0.951 . S
C709 C707 1.388 . S
C709 C710 1.366 . S
C710 C709 1.366 . S
C710 C711 1.414 . S
C710 C713 1.499 . S
C711 H685 0.950 . S
C711 C710 1.414 . S
C711 C712 1.374 . S
C712 H686 0.950 . S
C712 C708 1.385 . S
C712 C711 1.374 . S
C713 C710 1.499 . S
C713 C714 1.373 . S
C713 C715 1.389 . S
C714 H687 0.950 . S
C714 C700 1.377 . S
C714 C713 1.373 . S
C715 C699 1.377 . S
C715 C713 1.389 . S
C715 C716 1.524 . S
C716 C715 1.524 . S
C716 C717 1.397 . S
C716 C721 1.363 . S
C717 H688 0.950 . S
C717 C716 1.397 . S
C717 C718 1.334 . S
C718 H689 0.950 . S
C718 C717 1.334 . S
C718 C719 1.287 . S
C719 C718 1.287 . S
C719 C720 1.524 . S
C719 H722 0.999 . S
C720 H690 0.950 . S
C720 C719 1.524 . S
C720 C721 1.415 . S
C721 H691 0.950 . S
C721 C716 1.363 . S
C721 C720 1.415 . S
H722 C719 0.999 . S
H723 C704 0.913 . S
H724 C742 0.951 . S
H725 C744 0.951 . S
H726 C746 0.950 . S
H727 C747 0.950 . S
H728 C749 0.950 . S
H729 C752 0.950 . S
H730 C753 0.950 . S
H731 C755 0.950 . S
H732 C756 0.950 . S
H733 C757 0.951 . S
H734 C759 0.951 . S
H735 C761 0.950 . S
H736 C762 0.950 . S
H737 C764 0.950 . S
H738 C767 0.950 . S
H739 C768 0.950 . S
H740 C770 0.950 . S
H741 C771 0.950 . S
C742 H724 0.951 . S
C742 C743 1.366 . S
C742 C744 1.388 . S
C743 C742 1.366 . S
C743 C747 1.385 . S
C744 H725 0.951 . S
C744 C742 1.388 . S
C744 C745 1.366 . S
C745 C744 1.366 . S
C745 C746 1.414 . S
C745 C748 1.499 . S
C746 H726 0.950 . S
C746 C745 1.414 . S
C746 C747 1.374 . S
C747 H727 0.950 . S
C747 C743 1.385 . S
C747 C746 1.374 . S
C748 C745 1.499 . S
C748 C749 1.373 1_455 S
C748 C750 1.389 . S
C749 H728 0.950 . S
C749 C748 1.373 1_655 S
C749 C765 1.377 . S
C750 C748 1.389 . S
C750 C751 1.524 . S
C750 C764 1.377 . S
C751 C750 1.524 . S
C751 C752 1.397 . S
C751 C756 1.363 1_565 S
C752 H729 0.950 . S
C752 C751 1.397 . S
C752 C753 1.334 1_565 S
C753 H730 0.950 . S
C753 C752 1.334 1_545 S
C753 C754 1.287 . S
C754 C753 1.287 . S
C754 C755 1.524 . S
C754 H773 0.913 . S
C755 H731 0.950 . S
C755 C754 1.524 . S
C755 C756 1.415 . S
C756 H732 0.950 . S
C756 C751 1.363 1_545 S
C756 C755 1.415 . S
C757 H733 0.951 . S
C757 C758 1.366 . S
C757 C759 1.388 . S
C758 C757 1.366 . S
C758 C762 1.385 . S
C759 H734 0.951 . S
C759 C757 1.388 . S
C759 C760 1.366 . S
C760 C759 1.366 . S
C760 C761 1.414 . S
C760 C763 1.499 . S
C761 H735 0.950 . S
C761 C760 1.414 . S
C761 C762 1.374 . S
C762 H736 0.950 . S
C762 C758 1.385 . S
C762 C761 1.374 . S
C763 C760 1.499 . S
C763 C764 1.373 1_655 S
C763 C765 1.389 . S
C764 H737 0.950 . S
C764 C750 1.377 . S
C764 C763 1.373 1_455 S
C765 C749 1.377 . S
C765 C763 1.389 . S
C765 C766 1.524 . S
C766 C765 1.524 . S
C766 C767 1.397 . S
C766 C771 1.363 . S
C767 H738 0.950 . S
C767 C766 1.397 . S
C767 C768 1.334 . S
C768 H739 0.950 . S
C768 C767 1.334 . S
C768 C769 1.287 . S
C769 C768 1.287 . S
C769 C770 1.524 . S
C769 H772 0.999 . S
C770 H740 0.950 . S
C770 C769 1.524 . S
C770 C771 1.415 . S
C771 H741 0.950 . S
C771 C766 1.363 . S
C771 C770 1.415 . S
H772 C769 0.999 . S
H773 C754 0.913 . S
H774 C792 0.951 . S
H775 C794 0.951 . S
H776 C796 0.950 . S
H777 C797 0.950 . S
H778 C799 0.950 . S
H779 C802 0.950 . S
H780 C803 0.950 . S
H781 C805 0.950 . S
H782 C806 0.950 . S
H783 C807 0.951 . S
H784 C809 0.951 . S
H785 C811 0.950 . S
H786 C812 0.950 . S
H787 C814 0.950 . S
H788 C817 0.950 . S
H789 C818 0.950 . S
H790 C820 0.950 1_565 S
H791 C821 0.950 1_565 S
C792 H774 0.951 . S
C792 C793 1.366 . S
C792 C794 1.388 . S
C793 C792 1.366 . S
C793 C797 1.385 . S
C794 H775 0.951 . S
C794 C792 1.388 . S
C794 C795 1.366 . S
C795 C794 1.366 . S
C795 C796 1.414 . S
C795 C798 1.499 . S
C796 H776 0.950 . S
C796 C795 1.414 . S
C796 C797 1.374 . S
C797 H777 0.950 . S
C797 C793 1.385 . S
C797 C796 1.374 . S
C798 C795 1.499 . S
C798 C799 1.373 . S
C798 C800 1.389 . S
C799 H778 0.950 . S
C799 C798 1.373 . S
C799 C815 1.377 . S
C800 C798 1.389 . S
C800 C801 1.524 . S
C800 C814 1.377 . S
C801 C800 1.524 . S
C801 C802 1.397 . S
C801 C806 1.363 . S
C802 H779 0.950 . S
C802 C801 1.397 . S
C802 C803 1.334 . S
C803 H780 0.950 . S
C803 C802 1.334 . S
C803 C804 1.287 . S
C804 C803 1.287 . S
C804 C805 1.524 . S
C804 H823 0.913 . S
C805 H781 0.950 . S
C805 C804 1.524 . S
C805 C806 1.415 . S
C806 H782 0.950 . S
C806 C801 1.363 . S
C806 C805 1.415 . S
C807 H783 0.951 . S
C807 C808 1.366 . S
C807 C809 1.388 . S
C808 C807 1.366 . S
C808 C812 1.385 . S
C809 H784 0.951 . S
C809 C807 1.388 . S
C809 C810 1.366 . S
C810 C809 1.366 . S
C810 C811 1.414 . S
C810 C813 1.499 . S
C811 H785 0.950 . S
C811 C810 1.414 . S
C811 C812 1.374 . S
C812 H786 0.950 . S
C812 C808 1.385 . S
C812 C811 1.374 . S
C813 C810 1.499 . S
C813 C814 1.373 . S
C813 C815 1.389 . S
C814 H787 0.950 . S
C814 C800 1.377 . S
C814 C813 1.373 . S
C815 C799 1.377 . S
C815 C813 1.389 . S
C815 C816 1.524 . S
C816 C815 1.524 . S
C816 C817 1.397 . S
C816 C821 1.363 . S
C817 H788 0.950 . S
C817 C816 1.397 . S
C817 C818 1.334 . S
C818 H789 0.950 . S
C818 C817 1.334 . S
C818 C819 1.287 . S
C819 C818 1.287 . S
C819 C820 1.524 . S
C819 H822 0.999 . S
C820 H790 0.950 1_545 S
C820 C819 1.524 . S
C820 C821 1.415 . S
C821 H791 0.950 1_545 S
C821 C816 1.363 . S
C821 C820 1.415 . S
H822 C819 0.999 . S
H823 C804 0.913 . S
H824 C842 0.951 . S
H825 C844 0.951 . S
H826 C846 0.950 . S
H827 C847 0.950 . S
H828 C849 0.950 . S
H829 C852 0.950 . S
H830 C853 0.950 . S
H831 C855 0.950 . S
H832 C856 0.950 . S
H833 C857 0.951 . S
H834 C859 0.951 . S
H835 C861 0.950 . S
H836 C862 0.950 . S
H837 C864 0.950 . S
H838 C867 0.950 . S
H839 C868 0.950 . S
H840 C870 0.950 . S
H841 C871 0.950 . S
C842 H824 0.951 . S
C842 C843 1.366 . S
C842 C844 1.388 . S
C843 C842 1.366 . S
C843 C847 1.385 . S
C844 H825 0.951 . S
C844 C842 1.388 . S
C844 C845 1.366 . S
C845 C844 1.366 . S
C845 C846 1.414 . S
C845 C848 1.499 . S
C846 H826 0.950 . S
C846 C845 1.414 . S
C846 C847 1.374 . S
C847 H827 0.950 . S
C847 C843 1.385 . S
C847 C846 1.374 . S
C848 C845 1.499 . S
C848 C849 1.373 . S
C848 C850 1.389 . S
C849 H828 0.950 . S
C849 C848 1.373 . S
C849 C865 1.377 . S
C850 C848 1.389 . S
C850 C851 1.524 . S
C850 C864 1.377 . S
C851 C850 1.524 . S
C851 C852 1.397 . S
C851 C856 1.363 . S
C852 H829 0.950 . S
C852 C851 1.397 . S
C852 C853 1.334 . S
C853 H830 0.950 . S
C853 C852 1.334 . S
C853 C854 1.287 . S
C854 C853 1.287 . S
C854 C855 1.524 . S
C854 H873 0.913 . S
C855 H831 0.950 . S
C855 C854 1.524 . S
C855 C856 1.415 . S
C856 H832 0.950 . S
C856 C851 1.363 . S
C856 C855 1.415 . S
C857 H833 0.951 . S
C857 C858 1.366 . S
C857 C859 1.388 . S
C858 C857 1.366 . S
C858 C862 1.385 . S
C859 H834 0.951 . S
C859 C857 1.388 . S
C859 C860 1.366 . S
C860 C859 1.366 . S
C860 C861 1.414 . S
C860 C863 1.499 . S
C861 H835 0.950 . S
C861 C860 1.414 . S
C861 C862 1.374 . S
C862 H836 0.950 . S
C862 C858 1.385 . S
C862 C861 1.374 . S
C863 C860 1.499 . S
C863 C864 1.373 . S
C863 C865 1.389 . S
C864 H837 0.950 . S
C864 C850 1.377 . S
C864 C863 1.373 . S
C865 C849 1.377 . S
C865 C863 1.389 . S
C865 C866 1.524 . S
C866 C865 1.524 . S
C866 C867 1.397 . S
C866 C871 1.363 . S
C867 H838 0.950 . S
C867 C866 1.397 . S
C867 C868 1.334 . S
C868 H839 0.950 . S
C868 C867 1.334 . S
C868 C869 1.287 . S
C869 C868 1.287 . S
C869 C870 1.524 . S
C869 H872 0.999 . S
C870 H840 0.950 . S
C870 C869 1.524 . S
C870 C871 1.415 . S
C871 H841 0.950 . S
C871 C866 1.363 . S
C871 C870 1.415 . S
H872 C869 0.999 . S
H873 C854 0.913 . S
H874 C892 0.951 . S
H875 C894 0.951 . S
H876 C896 0.950 . S
H877 C897 0.950 . S
H878 C899 0.950 . S
H879 C902 0.950 . S
H880 C903 0.950 . S
H881 C905 0.950 . S
H882 C906 0.950 . S
H883 C907 0.951 . S
H884 C909 0.951 . S
H885 C911 0.950 . S
H886 C912 0.950 . S
H887 C914 0.950 . S
H888 C917 0.950 . S
H889 C918 0.950 . S
H890 C920 0.950 . S
H891 C921 0.950 . S
C892 H874 0.951 . S
C892 C893 1.366 . S
C892 C894 1.388 . S
C893 C892 1.366 . S
C893 C897 1.385 . S
C894 H875 0.951 . S
C894 C892 1.388 . S
C894 C895 1.366 . S
C895 C894 1.366 . S
C895 C896 1.414 . S
C895 C898 1.499 . S
C896 H876 0.950 . S
C896 C895 1.414 . S
C896 C897 1.374 . S
C897 H877 0.950 . S
C897 C893 1.385 . S
C897 C896 1.374 . S
C898 C895 1.499 . S
C898 C899 1.373 1_455 S
C898 C900 1.389 . S
C899 H878 0.950 . S
C899 C898 1.373 1_655 S
C899 C915 1.377 . S
C900 C898 1.389 . S
C900 C901 1.524 . S
C900 C914 1.377 . S
C901 C900 1.524 . S
C901 C902 1.397 . S
C901 C906 1.363 . S
C902 H879 0.950 . S
C902 C901 1.397 . S
C902 C903 1.334 . S
C903 H880 0.950 . S
C903 C902 1.334 . S
C903 C904 1.287 . S
C904 C903 1.287 . S
C904 C905 1.524 . S
C904 H923 0.913 . S
C905 H881 0.950 . S
C905 C904 1.524 . S
C905 C906 1.415 . S
C906 H882 0.950 . S
C906 C901 1.363 . S
C906 C905 1.415 . S
C907 H883 0.951 . S
C907 C908 1.366 . S
C907 C909 1.388 . S
C908 C907 1.366 . S
C908 C912 1.385 . S
C909 H884 0.951 . S
C909 C907 1.388 . S
C909 C910 1.366 . S
C910 C909 1.366 . S
C910 C911 1.414 . S
C910 C913 1.499 . S
C911 H885 0.950 . S
C911 C910 1.414 . S
C911 C912 1.374 . S
C912 H886 0.950 . S
C912 C908 1.385 . S
C912 C911 1.374 . S
C913 C910 1.499 . S
C913 C914 1.373 1_655 S
C913 C915 1.389 . S
C914 H887 0.950 . S
C914 C900 1.377 . S
C914 C913 1.373 1_455 S
C915 C899 1.377 . S
C915 C913 1.389 . S
C915 C916 1.524 . S
C916 C915 1.524 . S
C916 C917 1.397 . S
C916 C921 1.363 . S
C917 H888 0.950 . S
C917 C916 1.397 . S
C917 C918 1.334 . S
C918 H889 0.950 . S
C918 C917 1.334 . S
C918 C919 1.287 . S
C919 C918 1.287 . S
C919 C920 1.524 . S
C919 H922 0.999 . S
C920 H890 0.950 . S
C920 C919 1.524 . S
C920 C921 1.415 . S
C921 H891 0.950 . S
C921 C916 1.363 . S
C921 C920 1.415 . S
H922 C919 0.999 . S
H923 C904 0.913 . S
H924 C942 0.951 . S
H925 C944 0.951 . S
H926 C946 0.950 . S
H927 C947 0.950 . S
H928 C949 0.950 . S
H929 C952 0.950 . S
H930 C953 0.950 . S
H931 C955 0.950 . S
H932 C956 0.950 . S
H933 C957 0.951 . S
H934 C959 0.951 . S
H935 C961 0.950 . S
H936 C962 0.950 . S
H937 C964 0.950 . S
H938 C967 0.950 . S
H939 C968 0.950 . S
H940 C970 0.950 . S
H941 C971 0.950 . S
C942 H924 0.951 . S
C942 C943 1.366 . S
C942 C944 1.388 . S
C943 C942 1.366 . S
C943 C947 1.385 . S
C944 H925 0.951 . S
C944 C942 1.388 . S
C944 C945 1.366 . S
C945 C944 1.366 . S
C945 C946 1.414 . S
C945 C948 1.499 . S
C946 H926 0.950 . S
C946 C945 1.414 . S
C946 C947 1.374 . S
C947 H927 0.950 . S
C947 C943 1.385 . S
C947 C946 1.374 . S
C948 C945 1.499 . S
C948 C949 1.373 . S
C948 C950 1.389 . S
C949 H928 0.950 . S
C949 C948 1.373 . S
C949 C965 1.377 . S
C950 C948 1.389 . S
C950 C951 1.524 . S
C950 C964 1.377 . S
C951 C950 1.524 . S
C951 C952 1.397 . S
C951 C956 1.363 . S
C952 H929 0.950 . S
C952 C951 1.397 . S
C952 C953 1.334 . S
C953 H930 0.950 . S
C953 C952 1.334 . S
C953 C954 1.287 . S
C954 C953 1.287 . S
C954 C955 1.524 . S
C954 H973 0.913 . S
C955 H931 0.950 . S
C955 C954 1.524 . S
C955 C956 1.415 . S
C956 H932 0.950 . S
C956 C951 1.363 . S
C956 C955 1.415 . S
C957 H933 0.951 . S
C957 C958 1.366 . S
C957 C959 1.388 . S
C958 C957 1.366 . S
C958 C962 1.385 . S
C959 H934 0.951 . S
C959 C957 1.388 . S
C959 C960 1.366 . S
C960 C959 1.366 . S
C960 C961 1.414 . S
C960 C963 1.499 . S
C961 H935 0.950 . S
C961 C960 1.414 . S
C961 C962 1.374 . S
C962 H936 0.950 . S
C962 C958 1.385 . S
C962 C961 1.374 . S
C963 C960 1.499 . S
C963 C964 1.373 . S
C963 C965 1.389 . S
C964 H937 0.950 . S
C964 C950 1.377 . S
C964 C963 1.373 . S
C965 C949 1.377 . S
C965 C963 1.389 . S
C965 C966 1.524 . S
C966 C965 1.524 . S
C966 C967 1.397 . S
C966 C971 1.363 . S
C967 H938 0.950 . S
C967 C966 1.397 . S
C967 C968 1.334 . S
C968 H939 0.950 . S
C968 C967 1.334 . S
C968 C969 1.287 . S
C969 C968 1.287 . S
C969 C970 1.524 . S
C969 H972 0.999 . S
C970 H940 0.950 . S
C970 C969 1.524 . S
C970 C971 1.415 . S
C971 H941 0.950 . S
C971 C966 1.363 . S
C971 C970 1.415 . S
H972 C969 0.999 . S
H973 C954 0.913 . S
H974 C992 0.951 . S
H975 C994 0.951 . S
H976 C996 0.950 1_655 S
H977 C997 0.950 . S
H978 C999 0.950 . S
H979 C1002 0.950 . S
H980 C1003 0.950 . S
H981 C1005 0.950 . S
H982 C1006 0.950 1_455 S
H983 C1007 0.951 . S
H984 C1009 0.951 . S
H985 C1011 0.950 1_455 S
H986 C1012 0.950 . S
H987 C1014 0.950 . S
H988 C1017 0.950 . S
H989 C1018 0.950 . S
H990 C1020 0.950 . S
H991 C1021 0.950 1_655 S
C992 H974 0.951 . S
C992 C993 1.366 . S
C992 C994 1.388 . S
C993 C992 1.366 . S
C993 C997 1.385 . S
C994 H975 0.951 . S
C994 C992 1.388 . S
C994 C995 1.366 . S
C995 C994 1.366 . S
C995 C996 1.414 . S
C995 C998 1.499 . S
C996 H976 0.950 1_455 S
C996 C995 1.414 . S
C996 C997 1.374 . S
C997 H977 0.950 . S
C997 C993 1.385 . S
C997 C996 1.374 . S
C998 C995 1.499 . S
C998 C999 1.373 . S
C998 C1000 1.389 1_455 S
C999 H978 0.950 . S
C999 C998 1.373 . S
C999 C1015 1.377 . S
C1000 C998 1.389 1_655 S
C1000 C1001 1.524 . S
C1000 C1014 1.377 . S
C1001 C1000 1.524 . S
C1001 C1002 1.397 . S
C1001 C1006 1.363 . S
C1002 H979 0.950 . S
C1002 C1001 1.397 . S
C1002 C1003 1.334 . S
C1003 H980 0.950 . S
C1003 C1002 1.334 . S
C1003 C1004 1.287 . S
C1004 C1003 1.287 . S
C1004 C1005 1.524 . S
C1004 H1023 0.913 . S
C1005 H981 0.950 . S
C1005 C1004 1.524 . S
C1005 C1006 1.415 . S
C1006 H982 0.950 1_655 S
C1006 C1001 1.363 . S
C1006 C1005 1.415 . S
C1007 H983 0.951 . S
C1007 C1008 1.366 . S
C1007 C1009 1.388 . S
C1008 C1007 1.366 . S
C1008 C1012 1.385 . S
C1009 H984 0.951 . S
C1009 C1007 1.388 . S
C1009 C1010 1.366 . S
C1010 C1009 1.366 . S
C1010 C1011 1.414 . S
C1010 C1013 1.499 . S
C1011 H985 0.950 1_655 S
C1011 C1010 1.414 . S
C1011 C1012 1.374 . S
C1012 H986 0.950 . S
C1012 C1008 1.385 . S
C1012 C1011 1.374 . S
C1013 C1010 1.499 . S
C1013 C1014 1.373 . S
C1013 C1015 1.389 1_655 S
C1014 H987 0.950 . S
C1014 C1000 1.377 . S
C1014 C1013 1.373 . S
C1015 C999 1.377 . S
C1015 C1013 1.389 1_455 S
C1015 C1016 1.524 . S
C1016 C1015 1.524 . S
C1016 C1017 1.397 . S
C1016 C1021 1.363 . S
C1017 H988 0.950 . S
C1017 C1016 1.397 . S
C1017 C1018 1.334 . S
C1018 H989 0.950 . S
C1018 C1017 1.334 . S
C1018 C1019 1.287 . S
C1019 C1018 1.287 . S
C1019 C1020 1.524 . S
C1019 H1022 0.999 . S
C1020 H990 0.950 . S
C1020 C1019 1.524 . S
C1020 C1021 1.415 . S
C1021 H991 0.950 1_455 S
C1021 C1016 1.363 . S
C1021 C1020 1.415 . S
H1022 C1019 0.999 . S
H1023 C1004 0.913 . S
H1024 C1042 0.951 . S
H1025 C1044 0.951 . S
H1026 C1046 0.950 . S
H1027 C1047 0.950 . S
H1028 C1049 0.950 . S
H1029 C1052 0.950 . S
H1030 C1053 0.950 . S
H1031 C1055 0.950 . S
H1032 C1056 0.950 . S
H1033 C1057 0.951 . S
H1034 C1059 0.951 . S
H1035 C1061 0.950 . S
H1036 C1062 0.950 . S
H1037 C1064 0.950 . S
H1038 C1067 0.950 . S
H1039 C1068 0.950 . S
H1040 C1070 0.950 . S
H1041 C1071 0.950 . S
C1042 H1024 0.951 . S
C1042 C1043 1.366 . S
C1042 C1044 1.388 . S
C1043 C1042 1.366 . S
C1043 C1047 1.385 . S
C1044 H1025 0.951 . S
C1044 C1042 1.388 . S
C1044 C1045 1.366 . S
C1045 C1044 1.366 . S
C1045 C1046 1.414 . S
C1045 C1048 1.499 . S
C1046 H1026 0.950 . S
C1046 C1045 1.414 . S
C1046 C1047 1.374 . S
C1047 H1027 0.950 . S
C1047 C1043 1.385 . S
C1047 C1046 1.374 . S
C1048 C1045 1.499 . S
C1048 C1049 1.373 . S
C1048 C1050 1.389 1_455 S
C1049 H1028 0.950 . S
C1049 C1048 1.373 . S
C1049 C1065 1.377 . S
C1050 C1048 1.389 1_655 S
C1050 C1051 1.524 . S
C1050 C1064 1.377 . S
C1051 C1050 1.524 . S
C1051 C1052 1.397 . S
C1051 C1056 1.363 . S
C1052 H1029 0.950 . S
C1052 C1051 1.397 . S
C1052 C1053 1.334 . S
C1053 H1030 0.950 . S
C1053 C1052 1.334 . S
C1053 C1054 1.287 . S
C1054 C1053 1.287 . S
C1054 C1055 1.524 . S
C1054 H1073 0.913 . S
C1055 H1031 0.950 . S
C1055 C1054 1.524 . S
C1055 C1056 1.415 . S
C1056 H1032 0.950 . S
C1056 C1051 1.363 . S
C1056 C1055 1.415 . S
C1057 H1033 0.951 . S
C1057 C1058 1.366 . S
C1057 C1059 1.388 . S
C1058 C1057 1.366 . S
C1058 C1062 1.385 . S
C1059 H1034 0.951 . S
C1059 C1057 1.388 . S
C1059 C1060 1.366 . S
C1060 C1059 1.366 . S
C1060 C1061 1.414 . S
C1060 C1063 1.499 . S
C1061 H1035 0.950 . S
C1061 C1060 1.414 . S
C1061 C1062 1.374 . S
C1062 H1036 0.950 . S
C1062 C1058 1.385 . S
C1062 C1061 1.374 . S
C1063 C1060 1.499 . S
C1063 C1064 1.373 . S
C1063 C1065 1.389 1_655 S
C1064 H1037 0.950 . S
C1064 C1050 1.377 . S
C1064 C1063 1.373 . S
C1065 C1049 1.377 . S
C1065 C1063 1.389 1_455 S
C1065 C1066 1.524 . S
C1066 C1065 1.524 . S
C1066 C1067 1.397 . S
C1066 C1071 1.363 . S
C1067 H1038 0.950 . S
C1067 C1066 1.397 . S
C1067 C1068 1.334 . S
C1068 H1039 0.950 . S
C1068 C1067 1.334 . S
C1068 C1069 1.287 . S
C1069 C1068 1.287 . S
C1069 C1070 1.524 . S
C1069 H1072 0.999 . S
C1070 H1040 0.950 . S
C1070 C1069 1.524 . S
C1070 C1071 1.415 . S
C1071 H1041 0.950 . S
C1071 C1066 1.363 . S
C1071 C1070 1.415 . S
H1072 C1069 0.999 . S
H1073 C1054 0.913 . S
H1074 C1092 0.951 . S
H1075 C1094 0.951 . S
H1076 C1096 0.950 . S
H1077 C1097 0.950 . S
H1078 C1099 0.950 . S
H1079 C1102 0.950 . S
H1080 C1103 0.950 . S
H1081 C1105 0.950 . S
H1082 C1106 0.950 . S
H1083 C1107 0.951 . S
H1084 C1109 0.951 . S
H1085 C1111 0.950 . S
H1086 C1112 0.950 . S
H1087 C1114 0.950 . S
H1088 C1117 0.950 . S
H1089 C1118 0.950 . S
H1090 C1120 0.950 . S
H1091 C1121 0.950 . S
C1092 H1074 0.951 . S
C1092 C1093 1.366 . S
C1092 C1094 1.388 . S
C1093 C1092 1.366 . S
C1093 C1097 1.385 . S
C1094 H1075 0.951 . S
C1094 C1092 1.388 . S
C1094 C1095 1.366 . S
C1095 C1094 1.366 . S
C1095 C1096 1.414 . S
C1095 C1098 1.499 . S
C1096 H1076 0.950 . S
C1096 C1095 1.414 . S
C1096 C1097 1.374 . S
C1097 H1077 0.950 . S
C1097 C1093 1.385 . S
C1097 C1096 1.374 . S
C1098 C1095 1.499 . S
C1098 C1099 1.373 . S
C1098 C1100 1.389 . S
C1099 H1078 0.950 . S
C1099 C1098 1.373 . S
C1099 C1115 1.377 . S
C1100 C1098 1.389 . S
C1100 C1101 1.524 . S
C1100 C1114 1.377 . S
C1101 C1100 1.524 . S
C1101 C1102 1.397 . S
C1101 C1106 1.363 . S
C1102 H1079 0.950 . S
C1102 C1101 1.397 . S
C1102 C1103 1.334 . S
C1103 H1080 0.950 . S
C1103 C1102 1.334 . S
C1103 C1104 1.287 . S
C1104 C1103 1.287 . S
C1104 C1105 1.524 . S
C1104 H1123 0.913 . S
C1105 H1081 0.950 . S
C1105 C1104 1.524 . S
C1105 C1106 1.415 . S
C1106 H1082 0.950 . S
C1106 C1101 1.363 . S
C1106 C1105 1.415 . S
C1107 H1083 0.951 . S
C1107 C1108 1.366 . S
C1107 C1109 1.388 . S
C1108 C1107 1.366 . S
C1108 C1112 1.385 . S
C1109 H1084 0.951 . S
C1109 C1107 1.388 . S
C1109 C1110 1.366 . S
C1110 C1109 1.366 . S
C1110 C1111 1.414 . S
C1110 C1113 1.499 . S
C1111 H1085 0.950 . S
C1111 C1110 1.414 . S
C1111 C1112 1.374 . S
C1112 H1086 0.950 . S
C1112 C1108 1.385 . S
C1112 C1111 1.374 . S
C1113 C1110 1.499 . S
C1113 C1114 1.373 . S
C1113 C1115 1.389 . S
C1114 H1087 0.950 . S
C1114 C1100 1.377 . S
C1114 C1113 1.373 . S
C1115 C1099 1.377 . S
C1115 C1113 1.389 . S
C1115 C1116 1.524 . S
C1116 C1115 1.524 . S
C1116 C1117 1.397 . S
C1116 C1121 1.363 . S
C1117 H1088 0.950 . S
C1117 C1116 1.397 . S
C1117 C1118 1.334 . S
C1118 H1089 0.950 . S
C1118 C1117 1.334 . S
C1118 C1119 1.287 . S
C1119 C1118 1.287 . S
C1119 C1120 1.524 . S
C1119 H1122 0.999 . S
C1120 H1090 0.950 . S
C1120 C1119 1.524 . S
C1120 C1121 1.415 . S
C1121 H1091 0.950 . S
C1121 C1116 1.363 . S
C1121 C1120 1.415 . S
H1122 C1119 0.999 . S
H1123 C1104 0.913 . S
H1124 C1142 0.951 . S
H1125 C1144 0.951 . S
H1126 C1146 0.950 . S
H1127 C1147 0.950 . S
H1128 C1149 0.950 . S
H1129 C1152 0.950 . S
H1130 C1153 0.950 . S
H1131 C1155 0.950 . S
H1132 C1156 0.950 . S
H1133 C1157 0.951 . S
H1134 C1159 0.951 . S
H1135 C1161 0.950 . S
H1136 C1162 0.950 . S
H1137 C1164 0.950 . S
H1138 C1167 0.950 . S
H1139 C1168 0.950 . S
H1140 C1170 0.950 . S
H1141 C1171 0.950 . S
C1142 H1124 0.951 . S
C1142 C1143 1.366 . S
C1142 C1144 1.388 . S
C1143 C1142 1.366 . S
C1143 C1147 1.385 . S
C1144 H1125 0.951 . S
C1144 C1142 1.388 . S
C1144 C1145 1.366 . S
C1145 C1144 1.366 . S
C1145 C1146 1.414 . S
C1145 C1148 1.499 . S
C1146 H1126 0.950 . S
C1146 C1145 1.414 . S
C1146 C1147 1.374 . S
C1147 H1127 0.950 . S
C1147 C1143 1.385 . S
C1147 C1146 1.374 . S
C1148 C1145 1.499 . S
C1148 C1149 1.373 . S
C1148 C1150 1.389 . S
C1149 H1128 0.950 . S
C1149 C1148 1.373 . S
C1149 C1165 1.377 . S
C1150 C1148 1.389 . S
C1150 C1151 1.524 . S
C1150 C1164 1.377 . S
C1151 C1150 1.524 . S
C1151 C1152 1.397 . S
C1151 C1156 1.363 . S
C1152 H1129 0.950 . S
C1152 C1151 1.397 . S
C1152 C1153 1.334 . S
C1153 H1130 0.950 . S
C1153 C1152 1.334 . S
C1153 C1154 1.287 . S
C1154 C1153 1.287 . S
C1154 C1155 1.524 . S
C1154 H1173 0.913 . S
C1155 H1131 0.950 . S
C1155 C1154 1.524 . S
C1155 C1156 1.415 . S
C1156 H1132 0.950 . S
C1156 C1151 1.363 . S
C1156 C1155 1.415 . S
C1157 H1133 0.951 . S
C1157 C1158 1.366 . S
C1157 C1159 1.388 . S
C1158 C1157 1.366 . S
C1158 C1162 1.385 . S
C1159 H1134 0.951 . S
C1159 C1157 1.388 . S
C1159 C1160 1.366 . S
C1160 C1159 1.366 . S
C1160 C1161 1.414 . S
C1160 C1163 1.499 . S
C1161 H1135 0.950 . S
C1161 C1160 1.414 . S
C1161 C1162 1.374 . S
C1162 H1136 0.950 . S
C1162 C1158 1.385 . S
C1162 C1161 1.374 . S
C1163 C1160 1.499 . S
C1163 C1164 1.373 . S
C1163 C1165 1.389 . S
C1164 H1137 0.950 . S
C1164 C1150 1.377 . S
C1164 C1163 1.373 . S
C1165 C1149 1.377 . S
C1165 C1163 1.389 . S
C1165 C1166 1.524 . S
C1166 C1165 1.524 . S
C1166 C1167 1.397 . S
C1166 C1171 1.363 . S
C1167 H1138 0.950 . S
C1167 C1166 1.397 . S
C1167 C1168 1.334 . S
C1168 H1139 0.950 . S
C1168 C1167 1.334 . S
C1168 C1169 1.287 . S
C1169 C1168 1.287 . S
C1169 C1170 1.524 . S
C1169 H1172 0.999 . S
C1170 H1140 0.950 . S
C1170 C1169 1.524 . S
C1170 C1171 1.415 . S
C1171 H1141 0.950 . S
C1171 C1166 1.363 . S
C1171 C1170 1.415 . S
H1172 C1169 0.999 . S
H1173 C1154 0.913 . S
H1174 C1192 0.951 . S
H1175 C1194 0.951 . S
H1176 C1196 0.950 1_655 S
H1177 C1197 0.950 . S
H1178 C1199 0.950 . S
H1179 C1202 0.950 . S
H1180 C1203 0.950 . S
H1181 C1205 0.950 . S
H1182 C1206 0.950 . S
H1183 C1207 0.951 . S
H1184 C1209 0.951 . S
H1185 C1211 0.950 1_455 S
H1186 C1212 0.950 . S
H1187 C1214 0.950 . S
H1188 C1217 0.950 . S
H1189 C1218 0.950 . S
H1190 C1220 0.950 . S
H1191 C1221 0.950 . S
C1192 H1174 0.951 . S
C1192 C1193 1.366 . S
C1192 C1194 1.388 . S
C1193 C1192 1.366 . S
C1193 C1197 1.385 . S
C1194 H1175 0.951 . S
C1194 C1192 1.388 . S
C1194 C1195 1.366 . S
C1195 C1194 1.366 . S
C1195 C1196 1.414 . S
C1195 C1198 1.499 . S
C1196 H1176 0.950 1_455 S
C1196 C1195 1.414 . S
C1196 C1197 1.374 . S
C1197 H1177 0.950 . S
C1197 C1193 1.385 . S
C1197 C1196 1.374 . S
C1198 C1195 1.499 . S
C1198 C1199 1.373 1_455 S
C1198 C1200 1.389 . S
C1199 H1178 0.950 . S
C1199 C1198 1.373 1_655 S
C1199 C1215 1.377 . S
C1200 C1198 1.389 . S
C1200 C1201 1.524 . S
C1200 C1214 1.377 . S
C1201 C1200 1.524 . S
C1201 C1202 1.397 . S
C1201 C1206 1.363 . S
C1202 H1179 0.950 . S
C1202 C1201 1.397 . S
C1202 C1203 1.334 . S
C1203 H1180 0.950 . S
C1203 C1202 1.334 . S
C1203 C1204 1.287 . S
C1204 C1203 1.287 . S
C1204 C1205 1.524 . S
C1204 H1223 0.913 . S
C1205 H1181 0.950 . S
C1205 C1204 1.524 . S
C1205 C1206 1.415 . S
C1206 H1182 0.950 . S
C1206 C1201 1.363 . S
C1206 C1205 1.415 . S
C1207 H1183 0.951 . S
C1207 C1208 1.366 . S
C1207 C1209 1.388 . S
C1208 C1207 1.366 . S
C1208 C1212 1.385 . S
C1209 H1184 0.951 . S
C1209 C1207 1.388 . S
C1209 C1210 1.366 . S
C1210 C1209 1.366 . S
C1210 C1211 1.414 . S
C1210 C1213 1.499 . S
C1211 H1185 0.950 1_655 S
C1211 C1210 1.414 . S
C1211 C1212 1.374 . S
C1212 H1186 0.950 . S
C1212 C1208 1.385 . S
C1212 C1211 1.374 . S
C1213 C1210 1.499 . S
C1213 C1214 1.373 1_655 S
C1213 C1215 1.389 . S
C1214 H1187 0.950 . S
C1214 C1200 1.377 . S
C1214 C1213 1.373 1_455 S
C1215 C1199 1.377 . S
C1215 C1213 1.389 . S
C1215 C1216 1.524 . S
C1216 C1215 1.524 . S
C1216 C1217 1.397 . S
C1216 C1221 1.363 . S
C1217 H1188 0.950 . S
C1217 C1216 1.397 . S
C1217 C1218 1.334 . S
C1218 H1189 0.950 . S
C1218 C1217 1.334 . S
C1218 C1219 1.287 . S
C1219 C1218 1.287 . S
C1219 C1220 1.524 . S
C1219 H1222 0.999 . S
C1220 H1190 0.950 . S
C1220 C1219 1.524 . S
C1220 C1221 1.415 . S
C1221 H1191 0.950 . S
C1221 C1216 1.363 . S
C1221 C1220 1.415 . S
H1222 C1219 0.999 . S
H1223 C1204 0.913 . S
H1224 C1242 0.951 . S
H1225 C1244 0.951 . S
H1226 C1246 0.950 . S
H1227 C1247 0.950 . S
H1228 C1249 0.950 . S
H1229 C1252 0.950 . S
H1230 C1253 0.950 . S
H1231 C1255 0.950 . S
H1232 C1256 0.950 . S
H1233 C1257 0.951 . S
H1234 C1259 0.951 . S
H1235 C1261 0.950 . S
H1236 C1262 0.950 . S
H1237 C1264 0.950 . S
H1238 C1267 0.950 . S
H1239 C1268 0.950 . S
H1240 C1270 0.950 . S
H1241 C1271 0.950 . S
C1242 H1224 0.951 . S
C1242 C1243 1.366 . S
C1242 C1244 1.388 . S
C1243 C1242 1.366 . S
C1243 C1247 1.385 . S
C1244 H1225 0.951 . S
C1244 C1242 1.388 . S
C1244 C1245 1.366 . S
C1245 C1244 1.366 . S
C1245 C1246 1.414 . S
C1245 C1248 1.499 . S
C1246 H1226 0.950 . S
C1246 C1245 1.414 . S
C1246 C1247 1.374 . S
C1247 H1227 0.950 . S
C1247 C1243 1.385 . S
C1247 C1246 1.374 . S
C1248 C1245 1.499 . S
C1248 C1249 1.373 . S
C1248 C1250 1.389 1_455 S
C1249 H1228 0.950 . S
C1249 C1248 1.373 . S
C1249 C1265 1.377 . S
C1250 C1248 1.389 1_655 S
C1250 C1251 1.524 . S
C1250 C1264 1.377 . S
C1251 C1250 1.524 . S
C1251 C1252 1.397 . S
C1251 C1256 1.363 . S
C1252 H1229 0.950 . S
C1252 C1251 1.397 . S
C1252 C1253 1.334 . S
C1253 H1230 0.950 . S
C1253 C1252 1.334 . S
C1253 C1254 1.287 . S
C1254 C1253 1.287 . S
C1254 C1255 1.524 . S
C1254 H1273 0.913 . S
C1255 H1231 0.950 . S
C1255 C1254 1.524 . S
C1255 C1256 1.415 . S
C1256 H1232 0.950 . S
C1256 C1251 1.363 . S
C1256 C1255 1.415 . S
C1257 H1233 0.951 . S
C1257 C1258 1.366 . S
C1257 C1259 1.388 . S
C1258 C1257 1.366 . S
C1258 C1262 1.385 . S
C1259 H1234 0.951 . S
C1259 C1257 1.388 . S
C1259 C1260 1.366 . S
C1260 C1259 1.366 . S
C1260 C1261 1.414 . S
C1260 C1263 1.499 . S
C1261 H1235 0.950 . S
C1261 C1260 1.414 . S
C1261 C1262 1.374 . S
C1262 H1236 0.950 . S
C1262 C1258 1.385 . S
C1262 C1261 1.374 . S
C1263 C1260 1.499 . S
C1263 C1264 1.373 . S
C1263 C1265 1.389 1_655 S
C1264 H1237 0.950 . S
C1264 C1250 1.377 . S
C1264 C1263 1.373 . S
C1265 C1249 1.377 . S
C1265 C1263 1.389 1_455 S
C1265 C1266 1.524 . S
C1266 C1265 1.524 . S
C1266 C1267 1.397 . S
C1266 C1271 1.363 . S
C1267 H1238 0.950 . S
C1267 C1266 1.397 . S
C1267 C1268 1.334 . S
C1268 H1239 0.950 . S
C1268 C1267 1.334 . S
C1268 C1269 1.287 . S
C1269 C1268 1.287 . S
C1269 C1270 1.524 . S
C1269 H1272 0.999 . S
C1270 H1240 0.950 . S
C1270 C1269 1.524 . S
C1270 C1271 1.415 . S
C1271 H1241 0.950 . S
C1271 C1266 1.363 . S
C1271 C1270 1.415 . S
H1272 C1269 0.999 . S
H1273 C1254 0.913 . S
H1274 C1292 0.951 . S
H1275 C1294 0.951 . S
H1276 C1296 0.950 . S
H1277 C1297 0.950 . S
H1278 C1299 0.950 . S
H1279 C1302 0.950 . S
H1280 C1303 0.950 . S
H1281 C1305 0.950 . S
H1282 C1306 0.950 . S
H1283 C1307 0.951 . S
H1284 C1309 0.951 . S
H1285 C1311 0.950 . S
H1286 C1312 0.950 . S
H1287 C1314 0.950 . S
H1288 C1317 0.950 . S
H1289 C1318 0.950 . S
H1290 C1320 0.950 . S
H1291 C1321 0.950 . S
C1292 H1274 0.951 . S
C1292 C1293 1.366 . S
C1292 C1294 1.388 . S
C1293 C1292 1.366 . S
C1293 C1297 1.385 . S
C1294 H1275 0.951 . S
C1294 C1292 1.388 . S
C1294 C1295 1.366 . S
C1295 C1294 1.366 . S
C1295 C1296 1.414 . S
C1295 C1298 1.499 . S
C1296 H1276 0.950 . S
C1296 C1295 1.414 . S
C1296 C1297 1.374 . S
C1297 H1277 0.950 . S
C1297 C1293 1.385 . S
C1297 C1296 1.374 . S
C1298 C1295 1.499 . S
C1298 C1299 1.373 . S
C1298 C1300 1.389 . S
C1299 H1278 0.950 . S
C1299 C1298 1.373 . S
C1299 C1315 1.377 . S
C1300 C1298 1.389 . S
C1300 C1301 1.524 . S
C1300 C1314 1.377 . S
C1301 C1300 1.524 . S
C1301 C1302 1.397 . S
C1301 C1306 1.363 . S
C1302 H1279 0.950 . S
C1302 C1301 1.397 . S
C1302 C1303 1.334 . S
C1303 H1280 0.950 . S
C1303 C1302 1.334 . S
C1303 C1304 1.287 . S
C1304 C1303 1.287 . S
C1304 C1305 1.524 . S
C1304 H1323 0.913 . S
C1305 H1281 0.950 . S
C1305 C1304 1.524 . S
C1305 C1306 1.415 . S
C1306 H1282 0.950 . S
C1306 C1301 1.363 . S
C1306 C1305 1.415 . S
C1307 H1283 0.951 . S
C1307 C1308 1.366 . S
C1307 C1309 1.388 . S
C1308 C1307 1.366 . S
C1308 C1312 1.385 . S
C1309 H1284 0.951 . S
C1309 C1307 1.388 . S
C1309 C1310 1.366 . S
C1310 C1309 1.366 . S
C1310 C1311 1.414 . S
C1310 C1313 1.499 . S
C1311 H1285 0.950 . S
C1311 C1310 1.414 . S
C1311 C1312 1.374 . S
C1312 H1286 0.950 . S
C1312 C1308 1.385 . S
C1312 C1311 1.374 . S
C1313 C1310 1.499 . S
C1313 C1314 1.373 . S
C1313 C1315 1.389 . S
C1314 H1287 0.950 . S
C1314 C1300 1.377 . S
C1314 C1313 1.373 . S
C1315 C1299 1.377 . S
C1315 C1313 1.389 . S
C1315 C1316 1.524 . S
C1316 C1315 1.524 . S
C1316 C1317 1.397 . S
C1316 C1321 1.363 . S
C1317 H1288 0.950 . S
C1317 C1316 1.397 . S
C1317 C1318 1.334 . S
C1318 H1289 0.950 . S
C1318 C1317 1.334 . S
C1318 C1319 1.287 . S
C1319 C1318 1.287 . S
C1319 C1320 1.524 . S
C1319 H1322 0.999 . S
C1320 H1290 0.950 . S
C1320 C1319 1.524 . S
C1320 C1321 1.415 . S
C1321 H1291 0.950 . S
C1321 C1316 1.363 . S
C1321 C1320 1.415 . S
H1322 C1319 0.999 . S
H1323 C1304 0.913 . S
H1324 C1342 0.951 . S
H1325 C1344 0.951 . S
H1326 C1346 0.950 . S
H1327 C1347 0.950 . S
H1328 C1349 0.950 . S
H1329 C1352 0.950 . S
H1330 C1353 0.950 . S
H1331 C1355 0.950 . S
H1332 C1356 0.950 . S
H1333 C1357 0.951 . S
H1334 C1359 0.951 . S
H1335 C1361 0.950 . S
H1336 C1362 0.950 . S
H1337 C1364 0.950 . S
H1338 C1367 0.950 . S
H1339 C1368 0.950 . S
H1340 C1370 0.950 . S
H1341 C1371 0.950 . S
C1342 H1324 0.951 . S
C1342 C1343 1.366 . S
C1342 C1344 1.388 . S
C1343 C1342 1.366 . S
C1343 C1347 1.385 . S
C1344 H1325 0.951 . S
C1344 C1342 1.388 . S
C1344 C1345 1.366 . S
C1345 C1344 1.366 . S
C1345 C1346 1.414 . S
C1345 C1348 1.499 . S
C1346 H1326 0.950 . S
C1346 C1345 1.414 . S
C1346 C1347 1.374 . S
C1347 H1327 0.950 . S
C1347 C1343 1.385 . S
C1347 C1346 1.374 . S
C1348 C1345 1.499 . S
C1348 C1349 1.373 . S
C1348 C1350 1.389 . S
C1349 H1328 0.950 . S
C1349 C1348 1.373 . S
C1349 C1365 1.377 . S
C1350 C1348 1.389 . S
C1350 C1351 1.524 . S
C1350 C1364 1.377 . S
C1351 C1350 1.524 . S
C1351 C1352 1.397 . S
C1351 C1356 1.363 . S
C1352 H1329 0.950 . S
C1352 C1351 1.397 . S
C1352 C1353 1.334 . S
C1353 H1330 0.950 . S
C1353 C1352 1.334 . S
C1353 C1354 1.287 . S
C1354 C1353 1.287 . S
C1354 C1355 1.524 . S
C1354 H1373 0.913 . S
C1355 H1331 0.950 . S
C1355 C1354 1.524 . S
C1355 C1356 1.415 . S
C1356 H1332 0.950 . S
C1356 C1351 1.363 . S
C1356 C1355 1.415 . S
C1357 H1333 0.951 . S
C1357 C1358 1.366 . S
C1357 C1359 1.388 . S
C1358 C1357 1.366 . S
C1358 C1362 1.385 . S
C1359 H1334 0.951 . S
C1359 C1357 1.388 . S
C1359 C1360 1.366 . S
C1360 C1359 1.366 . S
C1360 C1361 1.414 . S
C1360 C1363 1.499 . S
C1361 H1335 0.950 . S
C1361 C1360 1.414 . S
C1361 C1362 1.374 . S
C1362 H1336 0.950 . S
C1362 C1358 1.385 . S
C1362 C1361 1.374 . S
C1363 C1360 1.499 . S
C1363 C1364 1.373 . S
C1363 C1365 1.389 . S
C1364 H1337 0.950 . S
C1364 C1350 1.377 . S
C1364 C1363 1.373 . S
C1365 C1349 1.377 . S
C1365 C1363 1.389 . S
C1365 C1366 1.524 . S
C1366 C1365 1.524 . S
C1366 C1367 1.397 . S
C1366 C1371 1.363 . S
C1367 H1338 0.950 . S
C1367 C1366 1.397 . S
C1367 C1368 1.334 . S
C1368 H1339 0.950 . S
C1368 C1367 1.334 . S
C1368 C1369 1.287 . S
C1369 C1368 1.287 . S
C1369 C1370 1.524 . S
C1369 H1372 0.999 . S
C1370 H1340 0.950 . S
C1370 C1369 1.524 . S
C1370 C1371 1.415 . S
C1371 H1341 0.950 . S
C1371 C1366 1.363 . S
C1371 C1370 1.415 . S
H1372 C1369 0.999 . S
H1373 C1354 0.913 . S
H1374 C1392 0.951 . S
H1375 C1394 0.951 . S
H1376 C1396 0.950 . S
H1377 C1397 0.950 . S
H1378 C1399 0.950 . S
H1379 C1402 0.950 . S
H1380 C1403 0.950 . S
H1381 C1405 0.950 . S
H1382 C1406 0.950 . S
H1383 C1407 0.951 . S
H1384 C1409 0.951 . S
H1385 C1411 0.950 . S
H1386 C1412 0.950 . S
H1387 C1414 0.950 . S
H1388 C1417 0.950 . S
H1389 C1418 0.950 . S
H1390 C1420 0.950 . S
H1391 C1421 0.950 . S
C1392 H1374 0.951 . S
C1392 C1393 1.366 . S
C1392 C1394 1.388 . S
C1393 C1392 1.366 . S
C1393 C1397 1.385 . S
C1394 H1375 0.951 . S
C1394 C1392 1.388 . S
C1394 C1395 1.366 . S
C1395 C1394 1.366 . S
C1395 C1396 1.414 . S
C1395 C1398 1.499 . S
C1396 H1376 0.950 . S
C1396 C1395 1.414 . S
C1396 C1397 1.374 . S
C1397 H1377 0.950 . S
C1397 C1393 1.385 . S
C1397 C1396 1.374 . S
C1398 C1395 1.499 . S
C1398 C1399 1.373 . S
C1398 C1400 1.389 1_455 S
C1399 H1378 0.950 . S
C1399 C1398 1.373 . S
C1399 C1415 1.377 . S
C1400 C1398 1.389 1_655 S
C1400 C1401 1.524 . S
C1400 C1414 1.377 . S
C1401 C1400 1.524 . S
C1401 C1402 1.397 . S
C1401 C1406 1.363 . S
C1402 H1379 0.950 . S
C1402 C1401 1.397 . S
C1402 C1403 1.334 . S
C1403 H1380 0.950 . S
C1403 C1402 1.334 . S
C1403 C1404 1.287 . S
C1404 C1403 1.287 . S
C1404 C1405 1.524 . S
C1404 H1423 0.913 . S
C1405 H1381 0.950 . S
C1405 C1404 1.524 . S
C1405 C1406 1.415 . S
C1406 H1382 0.950 . S
C1406 C1401 1.363 . S
C1406 C1405 1.415 . S
C1407 H1383 0.951 . S
C1407 C1408 1.366 . S
C1407 C1409 1.388 . S
C1408 C1407 1.366 . S
C1408 C1412 1.385 . S
C1409 H1384 0.951 . S
C1409 C1407 1.388 . S
C1409 C1410 1.366 . S
C1410 C1409 1.366 . S
C1410 C1411 1.414 . S
C1410 C1413 1.499 . S
C1411 H1385 0.950 . S
C1411 C1410 1.414 . S
C1411 C1412 1.374 . S
C1412 H1386 0.950 . S
C1412 C1408 1.385 . S
C1412 C1411 1.374 . S
C1413 C1410 1.499 . S
C1413 C1414 1.373 . S
C1413 C1415 1.389 1_655 S
C1414 H1387 0.950 . S
C1414 C1400 1.377 . S
C1414 C1413 1.373 . S
C1415 C1399 1.377 . S
C1415 C1413 1.389 1_455 S
C1415 C1416 1.524 . S
C1416 C1415 1.524 . S
C1416 C1417 1.397 . S
C1416 C1421 1.363 . S
C1417 H1388 0.950 . S
C1417 C1416 1.397 . S
C1417 C1418 1.334 . S
C1418 H1389 0.950 . S
C1418 C1417 1.334 . S
C1418 C1419 1.287 . S
C1419 C1418 1.287 . S
C1419 C1420 1.524 . S
C1419 H1422 0.999 . S
C1420 H1390 0.950 . S
C1420 C1419 1.524 . S
C1420 C1421 1.415 . S
C1421 H1391 0.950 . S
C1421 C1416 1.363 . S
C1421 C1420 1.415 . S
H1422 C1419 0.999 . S
H1423 C1404 0.913 . S
H1424 C1442 0.951 . S
H1425 C1444 0.951 . S
H1426 C1446 0.950 1_545 S
H1427 C1447 0.950 1_545 S
H1428 C1449 0.950 . S
H1429 C1452 0.950 1_545 S
H1430 C1453 0.950 . S
H1431 C1455 0.950 . S
H1432 C1456 0.950 . S
H1433 C1457 0.951 . S
H1434 C1459 0.951 . S
H1435 C1461 0.950 . S
H1436 C1462 0.950 . S
H1437 C1464 0.950 . S
H1438 C1467 0.950 . S
H1439 C1468 0.950 . S
H1440 C1470 0.950 . S
H1441 C1471 0.950 1_556 S
C1442 H1424 0.951 . S
C1442 C1443 1.366 . S
C1442 C1444 1.388 . S
C1443 C1442 1.366 . S
C1443 C1447 1.385 . S
C1444 H1425 0.951 . S
C1444 C1442 1.388 . S
C1444 C1445 1.366 . S
C1445 C1444 1.366 . S
C1445 C1446 1.414 . S
C1445 C1448 1.499 . S
C1446 H1426 0.950 1_565 S
C1446 C1445 1.414 . S
C1446 C1447 1.374 . S
C1447 H1427 0.950 1_565 S
C1447 C1443 1.385 . S
C1447 C1446 1.374 . S
C1448 C1445 1.499 . S
C1448 C1449 1.373 1_655 S
C1448 C1450 1.389 1_556 S
C1449 H1428 0.950 . S
C1449 C1448 1.373 1_455 S
C1449 C1465 1.377 1_556 S
C1450 C1448 1.389 1_554 S
C1450 C1451 1.524 . S
C1450 C1464 1.377 . S
C1451 C1450 1.524 . S
C1451 C1452 1.397 1_554 S
C1451 C1456 1.363 . S
C1452 H1429 0.950 1_565 S
C1452 C1451 1.397 1_556 S
C1452 C1453 1.334 . S
C1453 H1430 0.950 . S
C1453 C1452 1.334 . S
C1453 C1454 1.287 . S
C1454 C1453 1.287 . S
C1454 C1455 1.524 1_556 S
C1454 H1473 0.913 . S
C1455 H1431 0.950 . S
C1455 C1454 1.524 1_554 S
C1455 C1456 1.415 . S
C1456 H1432 0.950 . S
C1456 C1451 1.363 . S
C1456 C1455 1.415 . S
C1457 H1433 0.951 . S
C1457 C1458 1.366 . S
C1457 C1459 1.388 . S
C1458 C1457 1.366 . S
C1458 C1462 1.385 1_545 S
C1459 H1434 0.951 . S
C1459 C1457 1.388 . S
C1459 C1460 1.366 1_545 S
C1460 C1459 1.366 1_565 S
C1460 C1461 1.414 . S
C1460 C1463 1.499 . S
C1461 H1435 0.950 . S
C1461 C1460 1.414 . S
C1461 C1462 1.374 . S
C1462 H1436 0.950 . S
C1462 C1458 1.385 1_565 S
C1462 C1461 1.374 . S
C1463 C1460 1.499 . S
C1463 C1464 1.373 1_455 S
C1463 C1465 1.389 . S
C1464 H1437 0.950 . S
C1464 C1450 1.377 . S
C1464 C1463 1.373 1_655 S
C1465 C1449 1.377 1_554 S
C1465 C1463 1.389 . S
C1465 C1466 1.524 1_565 S
C1466 C1465 1.524 1_545 S
C1466 C1467 1.397 1_545 S
C1466 C1471 1.363 . S
C1467 H1438 0.950 . S
C1467 C1466 1.397 1_565 S
C1467 C1468 1.334 . S
C1468 H1439 0.950 . S
C1468 C1467 1.334 . S
C1468 C1469 1.287 1_565 S
C1469 C1468 1.287 1_545 S
C1469 C1470 1.524 . S
C1469 H1472 0.999 . S
C1470 H1440 0.950 . S
C1470 C1469 1.524 . S
C1470 C1471 1.415 . S
C1471 H1441 0.950 1_554 S
C1471 C1466 1.363 . S
C1471 C1470 1.415 . S
H1472 C1469 0.999 . S
H1473 C1454 0.913 . S
H1474 C1492 0.951 . S
H1475 C1494 0.951 1_565 S
H1476 C1496 0.950 . S
H1477 C1497 0.950 . S
H1478 C1499 0.935 1_556 S
H1479 C1502 0.950 . S
H1480 C1503 0.950 . S
H1481 C1505 0.950 . S
H1482 C1506 0.950 1_565 S
H1483 C1507 0.951 . S
H1484 C1509 0.951 . S
H1485 C1511 0.950 . S
H1486 C1512 0.950 . S
H1487 C1514 0.950 . S
H1488 C1517 0.950 . S
H1489 C1518 0.950 . S
H1490 C1520 0.950 . S
H1491 C1521 0.950 . S
C1492 H1474 0.951 . S
C1492 C1493 1.366 . S
C1492 C1494 1.388 . S
C1493 C1492 1.366 . S
C1493 C1497 1.385 . S
C1494 H1475 0.951 1_545 S
C1494 C1492 1.388 . S
C1494 C1495 1.366 . S
C1495 C1494 1.366 . S
C1495 C1496 1.414 . S
C1495 C1498 1.499 . S
C1496 H1476 0.950 . S
C1496 C1495 1.414 . S
C1496 C1497 1.374 . S
C1497 H1477 0.950 . S
C1497 C1493 1.385 . S
C1497 C1496 1.374 . S
C1498 C1495 1.499 . S
C1498 C1499 1.373 1_556 S
C1498 C1500 1.389 . S
C1499 H1478 0.935 1_554 S
C1499 C1498 1.373 1_554 S
C1499 C1515 1.377 . S
C1500 C1498 1.389 . S
C1500 C1501 1.524 . S
C1500 C1514 1.377 1_556 S
C1501 C1500 1.524 . S
C1501 C1502 1.397 . S
C1501 C1506 1.363 . S
C1502 H1479 0.950 . S
C1502 C1501 1.397 . S
C1502 C1503 1.334 . S
C1503 H1480 0.950 . S
C1503 C1502 1.334 . S
C1503 C1504 1.287 . S
C1504 C1503 1.287 . S
C1504 C1505 1.524 . S
C1504 H1523 0.913 . S
C1505 H1481 0.950 . S
C1505 C1504 1.524 . S
C1505 C1506 1.415 . S
C1506 H1482 0.950 1_545 S
C1506 C1501 1.363 . S
C1506 C1505 1.415 . S
C1507 H1483 0.951 . S
C1507 C1508 1.366 1_545 S
C1507 C1509 1.388 . S
C1508 C1507 1.366 1_565 S
C1508 C1512 1.385 . S
C1509 H1484 0.951 . S
C1509 C1507 1.388 . S
C1509 C1510 1.358 1_545 S
C1510 C1509 1.358 1_565 S
C1510 C1511 1.424 . S
C1510 C1513 1.496 1_565 S
C1511 H1485 0.950 . S
C1511 C1510 1.424 . S
C1511 C1512 1.374 . S
C1512 H1486 0.950 . S
C1512 C1508 1.385 . S
C1512 C1511 1.374 . S
C1513 C1510 1.496 1_545 S
C1513 C1514 1.373 . S
C1513 C1515 1.389 . S
C1514 H1487 0.950 . S
C1514 C1500 1.377 1_554 S
C1514 C1513 1.373 . S
C1515 C1499 1.377 . S
C1515 C1513 1.389 . S
C1515 C1516 1.524 1_545 S
C1516 C1515 1.524 1_565 S
C1516 C1517 1.397 . S
C1516 C1521 1.363 1_565 S
C1517 H1488 0.950 . S
C1517 C1516 1.397 . S
C1517 C1518 1.334 . S
C1518 H1489 0.950 . S
C1518 C1517 1.334 . S
C1518 C1519 1.287 . S
C1519 C1518 1.287 . S
C1519 C1520 1.524 1_565 S
C1519 H1522 0.999 . S
C1520 H1490 0.950 . S
C1520 C1519 1.524 1_545 S
C1520 C1521 1.415 . S
C1521 H1491 0.950 . S
C1521 C1516 1.363 1_545 S
C1521 C1520 1.415 . S
H1522 C1519 0.999 . S
H1523 C1504 0.913 . S
H1524 C1542 0.951 . S
H1525 C1544 0.951 . S
H1526 C1546 0.952 1_565 S
H1527 C1547 0.950 . S
H1528 C1549 0.950 . S
H1529 C1552 0.950 . S
H1530 C1553 0.950 . S
H1531 C1555 0.950 . S
H1532 C1556 0.950 . S
H1533 C1557 0.951 . S
H1534 C1559 0.951 . S
H1535 C1561 0.950 . S
H1536 C1562 0.950 . S
H1537 C1564 0.949 . S
H1538 C1567 0.950 . S
H1539 C1568 0.950 . S
H1540 C1570 0.950 . S
H1541 C1571 0.930 1_565 S
C1542 H1524 0.951 . S
C1542 C1543 1.366 . S
C1542 C1544 1.388 . S
C1543 C1542 1.366 . S
C1543 C1547 1.385 . S
C1544 H1525 0.951 . S
C1544 C1542 1.388 . S
C1544 C1545 1.366 . S
C1545 C1544 1.366 . S
C1545 C1546 1.414 . S
C1545 C1548 1.499 . S
C1546 H1526 0.952 1_545 S
C1546 C1545 1.414 . S
C1546 C1547 1.374 . S
C1547 H1527 0.950 . S
C1547 C1543 1.385 . S
C1547 C1546 1.374 . S
C1548 C1545 1.499 . S
C1548 C1549 1.373 . S
C1548 C1550 1.389 . S
C1549 H1528 0.950 . S
C1549 C1548 1.373 . S
C1549 C1565 1.377 . S
C1550 C1548 1.389 . S
C1550 C1551 1.524 . S
C1550 C1564 1.377 . S
C1551 C1550 1.524 . S
C1551 C1552 1.397 1_545 S
C1551 C1556 1.363 . S
C1552 H1529 0.950 . S
C1552 C1551 1.397 1_565 S
C1552 C1553 1.334 . S
C1553 H1530 0.950 . S
C1553 C1552 1.334 . S
C1553 C1554 1.287 . S
C1554 C1553 1.287 . S
C1554 C1555 1.524 1_565 S
C1554 H1573 0.913 . S
C1555 H1531 0.950 . S
C1555 C1554 1.524 1_545 S
C1555 C1556 1.415 . S
C1556 H1532 0.950 . S
C1556 C1551 1.363 . S
C1556 C1555 1.415 . S
C1557 H1533 0.951 . S
C1557 C1558 1.366 . S
C1557 C1559 1.388 . S
C1558 C1557 1.366 . S
C1558 C1562 1.385 1_565 S
C1559 H1534 0.951 . S
C1559 C1557 1.388 . S
C1559 C1560 1.366 1_565 S
C1560 C1559 1.366 1_545 S
C1560 C1561 1.414 . S
C1560 C1563 1.499 . S
C1561 H1535 0.950 . S
C1561 C1560 1.414 . S
C1561 C1562 1.374 . S
C1562 H1536 0.950 . S
C1562 C1558 1.385 1_545 S
C1562 C1561 1.374 . S
C1563 C1560 1.499 . S
C1563 C1564 1.373 . S
C1563 C1565 1.389 . S
C1564 H1537 0.949 . S
C1564 C1550 1.377 . S
C1564 C1563 1.373 . S
C1565 C1549 1.377 . S
C1565 C1563 1.389 . S
C1565 C1566 1.524 . S
C1566 C1565 1.524 . S
C1566 C1567 1.397 . S
C1566 C1571 1.363 . S
C1567 H1538 0.950 . S
C1567 C1566 1.397 . S
C1567 C1568 1.334 . S
C1568 H1539 0.950 . S
C1568 C1567 1.334 . S
C1568 C1569 1.287 . S
C1569 C1568 1.287 . S
C1569 C1570 1.524 . S
C1569 H1572 0.999 . S
C1570 H1540 0.950 . S
C1570 C1569 1.524 . S
C1570 C1571 1.415 . S
C1571 H1541 0.930 1_545 S
C1571 C1566 1.363 . S
C1571 C1570 1.415 . S
H1572 C1569 0.999 . S
H1573 C1554 0.913 . S
H1574 C1592 0.969 . S
H1575 C1594 0.951 1_645 S
H1576 C1596 0.950 . S
H1577 C1597 0.950 . S
H1578 C1599 0.950 . S
H1579 C1602 0.950 . S
H1580 C1603 0.950 . S
H1581 C1605 0.950 . S
H1582 C1606 0.950 1_545 S
H1583 C1607 0.952 1_455 S
H1584 C1609 0.951 1_455 S
H1585 C1611 0.950 . S
H1586 C1612 0.950 . S
H1587 C1614 0.950 . S
H1588 C1617 0.950 . S
H1589 C1618 0.950 . S
H1590 C1620 0.950 . S
H1591 C1621 0.950 . S
C1592 H1574 0.969 . S
C1592 C1593 1.366 . S
C1592 C1594 1.388 . S
C1593 C1592 1.366 . S
C1593 C1597 1.385 . S
C1594 H1575 0.951 1_465 S
C1594 C1592 1.388 . S
C1594 C1595 1.366 . S
C1595 C1594 1.366 . S
C1595 C1596 1.414 . S
C1595 C1598 1.499 . S
C1596 H1576 0.950 . S
C1596 C1595 1.414 . S
C1596 C1597 1.374 . S
C1597 H1577 0.950 . S
C1597 C1593 1.385 . S
C1597 C1596 1.374 . S
C1598 C1595 1.499 . S
C1598 C1599 1.373 . S
C1598 C1600 1.389 1_455 S
C1599 H1578 0.950 . S
C1599 C1598 1.373 . S
C1599 C1615 1.377 . S
C1600 C1598 1.389 1_655 S
C1600 C1601 1.524 . S
C1600 C1614 1.377 . S
C1601 C1600 1.524 . S
C1601 C1602 1.397 . S
C1601 C1606 1.363 . S
C1602 H1579 0.950 . S
C1602 C1601 1.397 . S
C1602 C1603 1.334 . S
C1603 H1580 0.950 . S
C1603 C1602 1.334 . S
C1603 C1604 1.287 . S
C1604 C1603 1.287 . S
C1604 C1605 1.524 . S
C1604 H1623 0.913 . S
C1605 H1581 0.950 . S
C1605 C1604 1.524 . S
C1605 C1606 1.415 . S
C1606 H1582 0.950 1_565 S
C1606 C1601 1.363 . S
C1606 C1605 1.415 . S
C1607 H1583 0.952 1_655 S
C1607 C1608 1.366 1_565 S
C1607 C1609 1.388 . S
C1608 C1607 1.366 1_545 S
C1608 C1612 1.385 . S
C1609 H1584 0.951 1_655 S
C1609 C1607 1.388 . S
C1609 C1610 1.358 1_565 S
C1610 C1609 1.358 1_545 S
C1610 C1611 1.424 . S
C1610 C1613 1.496 1_545 S
C1611 H1585 0.950 . S
C1611 C1610 1.424 . S
C1611 C1612 1.374 . S
C1612 H1586 0.950 . S
C1612 C1608 1.385 . S
C1612 C1611 1.374 . S
C1613 C1610 1.496 1_565 S
C1613 C1614 1.373 . S
C1613 C1615 1.389 1_655 S
C1614 H1587 0.950 . S
C1614 C1600 1.377 . S
C1614 C1613 1.373 . S
C1615 C1599 1.377 . S
C1615 C1613 1.389 1_455 S
C1615 C1616 1.524 1_565 S
C1616 C1615 1.524 1_545 S
C1616 C1617 1.397 . S
C1616 C1621 1.363 1_545 S
C1617 H1588 0.950 . S
C1617 C1616 1.397 . S
C1617 C1618 1.334 . S
C1618 H1589 0.950 . S
C1618 C1617 1.334 . S
C1618 C1619 1.287 . S
C1619 C1618 1.287 . S
C1619 C1620 1.524 1_545 S
C1619 H1622 0.999 . S
C1620 H1590 0.950 . S
C1620 C1619 1.524 1_565 S
C1620 C1621 1.415 . S
C1621 H1591 0.950 . S
C1621 C1616 1.363 1_565 S
C1621 C1620 1.415 . S
H1622 C1619 0.999 . S
H1623 C1604 0.913 . S
H1624 C1642 0.951 . S
H1625 C1644 0.951 . S
H1626 C1646 0.950 . S
H1627 C1647 0.950 . S
H1628 C1649 0.950 . S
H1629 C1652 0.950 . S
H1630 C1653 0.950 . S
H1631 C1655 0.950 . S
H1632 C1656 0.950 . S
H1633 C1657 0.951 . S
H1634 C1659 0.951 . S
H1635 C1661 0.950 . S
H1636 C1662 0.950 . S
H1637 C1664 0.945 1_556 S
H1638 C1667 0.950 . S
H1639 C1668 0.950 . S
H1640 C1670 0.950 . S
H1641 C1671 0.950 . S
C1642 H1624 0.951 . S
C1642 C1643 1.366 . S
C1642 C1644 1.388 . S
C1643 C1642 1.366 . S
C1643 C1647 1.385 . S
C1644 H1625 0.951 . S
C1644 C1642 1.388 . S
C1644 C1645 1.366 . S
C1645 C1644 1.366 . S
C1645 C1646 1.414 . S
C1645 C1648 1.499 . S
C1646 H1626 0.950 . S
C1646 C1645 1.414 . S
C1646 C1647 1.374 . S
C1647 H1627 0.950 . S
C1647 C1643 1.385 . S
C1647 C1646 1.374 . S
C1648 C1645 1.499 . S
C1648 C1649 1.373 . S
C1648 C1650 1.389 . S
C1649 H1628 0.950 . S
C1649 C1648 1.373 . S
C1649 C1665 1.377 1_554 S
C1650 C1648 1.389 . S
C1650 C1651 1.524 . S
C1650 C1664 1.387 . S
C1651 C1650 1.524 . S
C1651 C1652 1.397 . S
C1651 C1656 1.363 . S
C1652 H1629 0.950 . S
C1652 C1651 1.397 . S
C1652 C1653 1.334 . S
C1653 H1630 0.950 . S
C1653 C1652 1.334 . S
C1653 C1654 1.287 . S
C1654 C1653 1.287 . S
C1654 C1655 1.524 . S
C1654 H1673 0.913 . S
C1655 H1631 0.950 . S
C1655 C1654 1.524 . S
C1655 C1656 1.415 . S
C1656 H1632 0.950 . S
C1656 C1651 1.363 . S
C1656 C1655 1.415 . S
C1657 H1633 0.951 . S
C1657 C1658 1.366 . S
C1657 C1659 1.388 . S
C1658 C1657 1.366 . S
C1658 C1662 1.385 . S
C1659 H1634 0.951 . S
C1659 C1657 1.388 . S
C1659 C1660 1.366 . S
C1660 C1659 1.366 . S
C1660 C1661 1.414 . S
C1660 C1663 1.499 . S
C1661 H1635 0.950 . S
C1661 C1660 1.414 . S
C1661 C1662 1.374 . S
C1662 H1636 0.950 . S
C1662 C1658 1.385 . S
C1662 C1661 1.374 . S
C1663 C1660 1.499 . S
C1663 C1664 1.367 1_556 S
C1663 C1665 1.389 . S
C1664 H1637 0.945 1_554 S
C1664 C1650 1.387 . S
C1664 C1663 1.367 1_554 S
C1665 C1649 1.377 1_556 S
C1665 C1663 1.389 . S
C1665 C1666 1.524 . S
C1666 C1665 1.524 . S
C1666 C1667 1.397 . S
C1666 C1671 1.363 . S
C1667 H1638 0.950 . S
C1667 C1666 1.397 . S
C1667 C1668 1.334 . S
C1668 H1639 0.950 . S
C1668 C1667 1.334 . S
C1668 C1669 1.287 . S
C1669 C1668 1.287 . S
C1669 C1670 1.524 . S
C1669 H1672 0.999 . S
C1670 H1640 0.950 . S
C1670 C1669 1.524 . S
C1670 C1671 1.415 . S
C1671 H1641 0.950 . S
C1671 C1666 1.363 . S
C1671 C1670 1.415 . S
H1672 C1669 0.999 . S
H1673 C1654 0.913 . S
H1674 C1692 0.951 . S
H1675 C1694 0.951 1_455 S
H1676 C1696 0.950 . S
H1677 C1697 0.950 . S
H1678 C1699 0.950 . S
H1679 C1702 0.950 . S
H1680 C1703 0.950 . S
H1681 C1705 0.950 . S
H1682 C1706 0.950 1_455 S
H1683 C1707 0.951 . S
H1684 C1709 0.951 1_655 S
H1685 C1711 0.950 . S
H1686 C1712 0.950 . S
H1687 C1714 0.950 1_556 S
H1688 C1717 0.950 . S
H1689 C1718 0.950 . S
H1690 C1720 0.950 . S
H1691 C1721 0.950 1_655 S
C1692 H1674 0.951 . S
C1692 C1693 1.366 . S
C1692 C1694 1.388 . S
C1693 C1692 1.366 . S
C1693 C1697 1.385 . S
C1694 H1675 0.951 1_655 S
C1694 C1692 1.388 . S
C1694 C1695 1.366 . S
C1695 C1694 1.366 . S
C1695 C1696 1.414 . S
C1695 C1698 1.499 . S
C1696 H1676 0.950 . S
C1696 C1695 1.414 . S
C1696 C1697 1.374 . S
C1697 H1677 0.950 . S
C1697 C1693 1.385 . S
C1697 C1696 1.374 . S
C1698 C1695 1.499 . S
C1698 C1699 1.373 1_655 S
C1698 C1700 1.389 . S
C1699 H1678 0.950 . S
C1699 C1698 1.373 1_455 S
C1699 C1715 1.377 1_554 S
C1700 C1698 1.389 . S
C1700 C1701 1.524 . S
C1700 C1714 1.377 . S
C1701 C1700 1.524 . S
C1701 C1702 1.397 . S
C1701 C1706 1.363 . S
C1702 H1679 0.950 . S
C1702 C1701 1.397 . S
C1702 C1703 1.334 . S
C1703 H1680 0.950 . S
C1703 C1702 1.334 . S
C1703 C1704 1.287 . S
C1704 C1703 1.287 . S
C1704 C1705 1.524 . S
C1704 H1723 0.913 . S
C1705 H1681 0.950 . S
C1705 C1704 1.524 . S
C1705 C1706 1.415 . S
C1706 H1682 0.950 1_655 S
C1706 C1701 1.363 . S
C1706 C1705 1.415 . S
C1707 H1683 0.951 . S
C1707 C1708 1.366 . S
C1707 C1709 1.388 . S
C1708 C1707 1.366 . S
C1708 C1712 1.385 . S
C1709 H1684 0.951 1_455 S
C1709 C1707 1.388 . S
C1709 C1710 1.366 . S
C1710 C1709 1.366 . S
C1710 C1711 1.414 . S
C1710 C1713 1.499 . S
C1711 H1685 0.950 . S
C1711 C1710 1.414 . S
C1711 C1712 1.374 . S
C1712 H1686 0.950 . S
C1712 C1708 1.385 . S
C1712 C1711 1.374 . S
C1713 C1710 1.499 . S
C1713 C1714 1.373 1_456 S
C1713 C1715 1.389 . S
C1714 H1687 0.950 1_554 S
C1714 C1700 1.377 . S
C1714 C1713 1.373 1_654 S
C1715 C1699 1.377 1_556 S
C1715 C1713 1.389 . S
C1715 C1716 1.524 . S
C1716 C1715 1.524 . S
C1716 C1717 1.397 . S
C1716 C1721 1.363 . S
C1717 H1688 0.950 . S
C1717 C1716 1.397 . S
C1717 C1718 1.334 . S
C1718 H1689 0.950 . S
C1718 C1717 1.334 . S
C1718 C1719 1.287 . S
C1719 C1718 1.287 . S
C1719 C1720 1.524 . S
C1719 H1722 0.999 . S
C1720 H1690 0.950 . S
C1720 C1719 1.524 . S
C1720 C1721 1.415 . S
C1721 H1691 0.950 1_455 S
C1721 C1716 1.363 . S
C1721 C1720 1.415 . S
H1722 C1719 0.999 . S
H1723 C1704 0.913 . S
H1724 C1742 0.951 . S
H1725 C1744 0.951 . S
H1726 C1746 0.950 . S
H1727 C1747 0.950 1_455 S
H1728 C1749 0.950 . S
H1729 C1752 0.950 . S
H1730 C1753 0.950 . S
H1731 C1755 0.950 . S
H1732 C1756 0.950 . S
H1733 C1757 0.951 . S
H1734 C1759 0.951 . S
H1735 C1761 0.950 . S
H1736 C1762 0.950 1_655 S
H1737 C1764 0.950 . S
H1738 C1767 0.950 . S
H1739 C1768 0.950 . S
H1740 C1770 0.950 . S
H1741 C1771 0.950 . S
C1742 H1724 0.951 . S
C1742 C1743 1.366 . S
C1742 C1744 1.388 . S
C1743 C1742 1.366 . S
C1743 C1747 1.385 . S
C1744 H1725 0.951 . S
C1744 C1742 1.388 . S
C1744 C1745 1.366 . S
C1745 C1744 1.366 . S
C1745 C1746 1.414 1_655 S
C1745 C1748 1.499 . S
C1746 H1726 0.950 . S
C1746 C1745 1.414 1_455 S
C1746 C1747 1.374 1_455 S
C1747 H1727 0.950 1_655 S
C1747 C1743 1.385 . S
C1747 C1746 1.374 1_655 S
C1748 C1745 1.499 . S
C1748 C1749 1.373 1_655 S
C1748 C1750 1.389 . S
C1749 H1728 0.950 . S
C1749 C1748 1.373 1_455 S
C1749 C1765 1.377 . S
C1750 C1748 1.389 . S
C1750 C1751 1.524 . S
C1750 C1764 1.377 . S
C1751 C1750 1.524 . S
C1751 C1752 1.397 . S
C1751 C1756 1.363 . S
C1752 H1729 0.950 . S
C1752 C1751 1.397 . S
C1752 C1753 1.334 . S
C1753 H1730 0.950 . S
C1753 C1752 1.334 . S
C1753 C1754 1.287 . S
C1754 C1753 1.287 . S
C1754 C1755 1.524 . S
C1754 H1773 0.913 . S
C1755 H1731 0.950 . S
C1755 C1754 1.524 . S
C1755 C1756 1.415 . S
C1756 H1732 0.950 . S
C1756 C1751 1.363 . S
C1756 C1755 1.415 . S
C1757 H1733 0.951 . S
C1757 C1758 1.366 . S
C1757 C1759 1.388 . S
C1758 C1757 1.366 . S
C1758 C1762 1.385 . S
C1759 H1734 0.951 . S
C1759 C1757 1.388 . S
C1759 C1760 1.366 . S
C1760 C1759 1.366 . S
C1760 C1761 1.414 1_455 S
C1760 C1763 1.499 . S
C1761 H1735 0.950 . S
C1761 C1760 1.414 1_655 S
C1761 C1762 1.374 1_655 S
C1762 H1736 0.950 1_455 S
C1762 C1758 1.385 . S
C1762 C1761 1.374 1_455 S
C1763 C1760 1.499 . S
C1763 C1764 1.373 1_455 S
C1763 C1765 1.389 . S
C1764 H1737 0.950 . S
C1764 C1750 1.377 . S
C1764 C1763 1.373 1_655 S
C1765 C1749 1.377 . S
C1765 C1763 1.389 . S
C1765 C1766 1.524 . S
C1766 C1765 1.524 . S
C1766 C1767 1.397 . S
C1766 C1771 1.363 . S
C1767 H1738 0.950 . S
C1767 C1766 1.397 . S
C1767 C1768 1.334 . S
C1768 H1739 0.950 . S
C1768 C1767 1.334 . S
C1768 C1769 1.287 . S
C1769 C1768 1.287 . S
C1769 C1770 1.524 . S
C1769 H1772 0.999 . S
C1770 H1740 0.950 . S
C1770 C1769 1.524 . S
C1770 C1771 1.415 . S
C1771 H1741 0.950 . S
C1771 C1766 1.363 . S
C1771 C1770 1.415 . S
H1772 C1769 0.999 . S
H1773 C1754 0.913 . S
H1774 C1792 0.951 . S
H1775 C1794 0.951 . S
H1776 C1796 0.950 . S
H1777 C1797 0.950 . S
H1778 C1799 0.950 . S
H1779 C1802 0.950 . S
H1780 C1803 0.950 . S
H1781 C1805 0.950 . S
H1782 C1806 0.950 . S
H1783 C1807 0.951 . S
H1784 C1809 0.951 . S
H1785 C1811 0.950 . S
H1786 C1812 0.950 . S
H1787 C1814 0.950 . S
H1788 C1817 0.950 . S
H1789 C1818 0.950 . S
H1790 C1820 0.950 . S
H1791 C1821 0.950 . S
C1792 H1774 0.951 . S
C1792 C1793 1.366 . S
C1792 C1794 1.388 . S
C1793 C1792 1.366 . S
C1793 C1797 1.385 . S
C1794 H1775 0.951 . S
C1794 C1792 1.388 . S
C1794 C1795 1.366 . S
C1795 C1794 1.366 . S
C1795 C1796 1.414 . S
C1795 C1798 1.499 . S
C1796 H1776 0.950 . S
C1796 C1795 1.414 . S
C1796 C1797 1.374 . S
C1797 H1777 0.950 . S
C1797 C1793 1.385 . S
C1797 C1796 1.374 . S
C1798 C1795 1.499 . S
C1798 C1799 1.373 . S
C1798 C1800 1.389 . S
C1799 H1778 0.950 . S
C1799 C1798 1.373 . S
C1799 C1815 1.377 . S
C1800 C1798 1.389 . S
C1800 C1801 1.524 . S
C1800 C1814 1.377 . S
C1801 C1800 1.524 . S
C1801 C1802 1.397 . S
C1801 C1806 1.363 . S
C1802 H1779 0.950 . S
C1802 C1801 1.397 . S
C1802 C1803 1.334 . S
C1803 H1780 0.950 . S
C1803 C1802 1.334 . S
C1803 C1804 1.287 . S
C1804 C1803 1.287 . S
C1804 C1805 1.524 . S
C1804 H1823 0.913 . S
C1805 H1781 0.950 . S
C1805 C1804 1.524 . S
C1805 C1806 1.415 . S
C1806 H1782 0.950 . S
C1806 C1801 1.363 . S
C1806 C1805 1.415 . S
C1807 H1783 0.951 . S
C1807 C1808 1.366 . S
C1807 C1809 1.388 . S
C1808 C1807 1.366 . S
C1808 C1812 1.385 . S
C1809 H1784 0.951 . S
C1809 C1807 1.388 . S
C1809 C1810 1.366 . S
C1810 C1809 1.366 . S
C1810 C1811 1.414 . S
C1810 C1813 1.499 . S
C1811 H1785 0.950 . S
C1811 C1810 1.414 . S
C1811 C1812 1.374 . S
C1812 H1786 0.950 . S
C1812 C1808 1.385 . S
C1812 C1811 1.374 . S
C1813 C1810 1.499 . S
C1813 C1814 1.373 . S
C1813 C1815 1.389 . S
C1814 H1787 0.950 . S
C1814 C1800 1.377 . S
C1814 C1813 1.373 . S
C1815 C1799 1.377 . S
C1815 C1813 1.389 . S
C1815 C1816 1.524 . S
C1816 C1815 1.524 . S
C1816 C1817 1.397 . S
C1816 C1821 1.363 . S
C1817 H1788 0.950 . S
C1817 C1816 1.397 . S
C1817 C1818 1.334 . S
C1818 H1789 0.950 . S
C1818 C1817 1.334 . S
C1818 C1819 1.287 . S
C1819 C1818 1.287 . S
C1819 C1820 1.524 . S
C1819 H1822 0.999 . S
C1820 H1790 0.950 . S
C1820 C1819 1.524 . S
C1820 C1821 1.415 . S
C1821 H1791 0.950 . S
C1821 C1816 1.363 . S
C1821 C1820 1.415 . S
H1822 C1819 0.999 . S
H1823 C1804 0.913 . S
C243 C26 1.484 . S
C258 C12 1.484 . S
C293 C40 1.484 . S
C308 C54 1.484 . S
C343 C67 1.523 . S
C358 C81 1.523 . S
C393 C109 1.523 . S
C408 C95 1.523 . S
C443 C138 1.484 . S
C458 C124 1.484 . S
C493 C166 1.484 . S
C508 C152 1.484 . S
C543 C193 1.522 . S
C558 C179 1.523 . S
C593 C221 1.522 . S
C608 C207 1.523 . S
C643 C46 0.826 . S
C658 C4 0.825 . S
C693 C18 0.826 . S
C708 C32 0.826 . S
C743 C103 0.988 . S
C758 C61 0.986 . S
C793 C89 0.986 . S
C808 C75 0.986 . S
C843 C116 0.826 . S
C858 C158 0.826 . S
C893 C144 0.826 . S
C908 C130 0.826 . S
C943 C215 0.986 . S
C958 C173 0.988 . S
C993 C187 0.985 . S
C1008 C201 0.987 . S
C1043 C5 1.261 . S
C1058 C131 1.261 . S
C1093 C19 1.262 . S
C1108 C117 1.260 . S
C1143 C159 1.260 . S
C1158 C33 1.263 . S
C1193 C145 1.261 . S
C1208 C47 1.263 . S
C1243 C186 1.620 . S
C1258 C60 1.620 . S
C1293 C172 1.620 . S
C1308 C74 1.620 . S
C1343 C88 1.620 . S
C1358 C214 1.620 . S
C1393 C102 1.620 . S
C1408 C200 1.620 . S
C1443 C68 0.935 . S
C1458 C11 0.937 . S
C1493 C82 0.935 . S
C1508 C25 0.936 . S
C1543 C96 0.935 . S
C1558 C39 0.937 . S
C1593 C110 0.935 . S
C1608 C53 0.936 . S
C1643 C123 0.937 . S
C1658 C180 0.935 . S
C1693 C137 0.937 . S
C1708 C194 0.935 . S
C1743 C208 0.935 . S
C1758 C151 0.936 . S
C1793 C222 0.935 . S
C1808 C165 0.936 . S
