# Generated by pormake.
# Topology vbb, (4)-cn, num edge types: 1
# Building blocks:
#     Node 0, Type 0, BuildingBlock: NAWXER_clean_sbu_0, # of connection points: 4
#     Node 1, Type 0, BuildingBlock: NAWXER_clean_sbu_0, # of connection points: 4
#     Node 2, Type 0, BuildingBlock: NAWXER_clean_sbu_0, # of connection points: 4
#     Node 3, Type 0, BuildingBlock: NAWXER_clean_sbu_0, # of connection points: 4
#     Node 4, Type 0, BuildingBlock: NAWXER_clean_sbu_0, # of connection points: 4
#     Node 5, Type 0, BuildingBlock: NAWXER_clean_sbu_0, # of connection points: 4
#     Node 6, Type 0, BuildingBlock: NAWXER_clean_sbu_0, # of connection points: 4
#     Node 7, Type 0, BuildingBlock: NAWXER_clean_sbu_0, # of connection points: 4
#     Node 8, Type 0, BuildingBlock: NAWXER_clean_sbu_0, # of connection points: 4
#     Node 9, Type 0, BuildingBlock: NAWXER_clean_sbu_0, # of connection points: 4
#     Node 10, Type 0, BuildingBlock: NAWXER_clean_sbu_0, # of connection points: 4
#     Node 11, Type 0, BuildingBlock: NAWXER_clean_sbu_0, # of connection points: 4
#     Node 12, Type 0, BuildingBlock: NAWXER_clean_sbu_0, # of connection points: 4
#     Node 13, Type 0, BuildingBlock: NAWXER_clean_sbu_0, # of connection points: 4
#     Node 14, Type 0, BuildingBlock: NAWXER_clean_sbu_0, # of connection points: 4
#     Node 15, Type 0, BuildingBlock: NAWXER_clean_sbu_0, # of connection points: 4
#     Node 16, Type 0, BuildingBlock: NAWXER_clean_sbu_0, # of connection points: 4
#     Node 17, Type 0, BuildingBlock: NAWXER_clean_sbu_0, # of connection points: 4
#     Node 18, Type 0, BuildingBlock: NAWXER_clean_sbu_0, # of connection points: 4
#     Node 19, Type 0, BuildingBlock: NAWXER_clean_sbu_0, # of connection points: 4
#     Node 20, Type 0, BuildingBlock: NAWXER_clean_sbu_0, # of connection points: 4
#     Node 21, Type 0, BuildingBlock: NAWXER_clean_sbu_0, # of connection points: 4
#     Node 22, Type 0, BuildingBlock: NAWXER_clean_sbu_0, # of connection points: 4
#     Node 23, Type 0, BuildingBlock: NAWXER_clean_sbu_0, # of connection points: 4
#     Node 24, Type 0, BuildingBlock: NAWXER_clean_sbu_0, # of connection points: 4
#     Node 25, Type 0, BuildingBlock: NAWXER_clean_sbu_0, # of connection points: 4
#     Node 26, Type 0, BuildingBlock: NAWXER_clean_sbu_0, # of connection points: 4
#     Node 27, Type 0, BuildingBlock: NAWXER_clean_sbu_0, # of connection points: 4
#     Node 28, Type 0, BuildingBlock: NAWXER_clean_sbu_0, # of connection points: 4
#     Node 29, Type 0, BuildingBlock: NAWXER_clean_sbu_0, # of connection points: 4
#     Node 30, Type 0, BuildingBlock: NAWXER_clean_sbu_0, # of connection points: 4
#     Node 31, Type 0, BuildingBlock: NAWXER_clean_sbu_0, # of connection points: 4
#     Edge 32, Type (0, 0), BuildingBlock: OJICUG_clean_linker_0, # of connection points: 2
#     Edge 33, Type (0, 0), BuildingBlock: OJICUG_clean_linker_0, # of connection points: 2
#     Edge 34, Type (0, 0), BuildingBlock: OJICUG_clean_linker_0, # of connection points: 2
#     Edge 35, Type (0, 0), BuildingBlock: OJICUG_clean_linker_0, # of connection points: 2
#     Edge 36, Type (0, 0), BuildingBlock: OJICUG_clean_linker_0, # of connection points: 2
#     Edge 37, Type (0, 0), BuildingBlock: OJICUG_clean_linker_0, # of connection points: 2
#     Edge 38, Type (0, 0), BuildingBlock: OJICUG_clean_linker_0, # of connection points: 2
#     Edge 39, Type (0, 0), BuildingBlock: OJICUG_clean_linker_0, # of connection points: 2
#     Edge 40, Type (0, 0), BuildingBlock: OJICUG_clean_linker_0, # of connection points: 2
#     Edge 41, Type (0, 0), BuildingBlock: OJICUG_clean_linker_0, # of connection points: 2
#     Edge 42, Type (0, 0), BuildingBlock: OJICUG_clean_linker_0, # of connection points: 2
#     Edge 43, Type (0, 0), BuildingBlock: OJICUG_clean_linker_0, # of connection points: 2
#     Edge 44, Type (0, 0), BuildingBlock: OJICUG_clean_linker_0, # of connection points: 2
#     Edge 45, Type (0, 0), BuildingBlock: OJICUG_clean_linker_0, # of connection points: 2
#     Edge 46, Type (0, 0), BuildingBlock: OJICUG_clean_linker_0, # of connection points: 2
#     Edge 47, Type (0, 0), BuildingBlock: OJICUG_clean_linker_0, # of connection points: 2
#     Edge 48, Type (0, 0), BuildingBlock: OJICUG_clean_linker_0, # of connection points: 2
#     Edge 49, Type (0, 0), BuildingBlock: OJICUG_clean_linker_0, # of connection points: 2
#     Edge 50, Type (0, 0), BuildingBlock: OJICUG_clean_linker_0, # of connection points: 2
#     Edge 51, Type (0, 0), BuildingBlock: OJICUG_clean_linker_0, # of connection points: 2
#     Edge 52, Type (0, 0), BuildingBlock: OJICUG_clean_linker_0, # of connection points: 2
#     Edge 53, Type (0, 0), BuildingBlock: OJICUG_clean_linker_0, # of connection points: 2
#     Edge 54, Type (0, 0), BuildingBlock: OJICUG_clean_linker_0, # of connection points: 2
#     Edge 55, Type (0, 0), BuildingBlock: OJICUG_clean_linker_0, # of connection points: 2
#     Edge 56, Type (0, 0), BuildingBlock: OJICUG_clean_linker_0, # of connection points: 2
#     Edge 57, Type (0, 0), BuildingBlock: OJICUG_clean_linker_0, # of connection points: 2
#     Edge 58, Type (0, 0), BuildingBlock: OJICUG_clean_linker_0, # of connection points: 2
#     Edge 59, Type (0, 0), BuildingBlock: OJICUG_clean_linker_0, # of connection points: 2
#     Edge 60, Type (0, 0), BuildingBlock: OJICUG_clean_linker_0, # of connection points: 2
#     Edge 61, Type (0, 0), BuildingBlock: OJICUG_clean_linker_0, # of connection points: 2
#     Edge 62, Type (0, 0), BuildingBlock: OJICUG_clean_linker_0, # of connection points: 2
#     Edge 63, Type (0, 0), BuildingBlock: OJICUG_clean_linker_0, # of connection points: 2
#     Edge 64, Type (0, 0), BuildingBlock: OJICUG_clean_linker_0, # of connection points: 2
#     Edge 65, Type (0, 0), BuildingBlock: OJICUG_clean_linker_0, # of connection points: 2
#     Edge 66, Type (0, 0), BuildingBlock: OJICUG_clean_linker_0, # of connection points: 2
#     Edge 67, Type (0, 0), BuildingBlock: OJICUG_clean_linker_0, # of connection points: 2
#     Edge 68, Type (0, 0), BuildingBlock: OJICUG_clean_linker_0, # of connection points: 2
#     Edge 69, Type (0, 0), BuildingBlock: OJICUG_clean_linker_0, # of connection points: 2
#     Edge 70, Type (0, 0), BuildingBlock: OJICUG_clean_linker_0, # of connection points: 2
#     Edge 71, Type (0, 0), BuildingBlock: OJICUG_clean_linker_0, # of connection points: 2
#     Edge 72, Type (0, 0), BuildingBlock: OJICUG_clean_linker_0, # of connection points: 2
#     Edge 73, Type (0, 0), BuildingBlock: OJICUG_clean_linker_0, # of connection points: 2
#     Edge 74, Type (0, 0), BuildingBlock: OJICUG_clean_linker_0, # of connection points: 2
#     Edge 75, Type (0, 0), BuildingBlock: OJICUG_clean_linker_0, # of connection points: 2
#     Edge 76, Type (0, 0), BuildingBlock: OJICUG_clean_linker_0, # of connection points: 2
#     Edge 77, Type (0, 0), BuildingBlock: OJICUG_clean_linker_0, # of connection points: 2
#     Edge 78, Type (0, 0), BuildingBlock: OJICUG_clean_linker_0, # of connection points: 2
#     Edge 79, Type (0, 0), BuildingBlock: OJICUG_clean_linker_0, # of connection points: 2
#     Edge 80, Type (0, 0), BuildingBlock: OJICUG_clean_linker_0, # of connection points: 2
#     Edge 81, Type (0, 0), BuildingBlock: OJICUG_clean_linker_0, # of connection points: 2
#     Edge 82, Type (0, 0), BuildingBlock: OJICUG_clean_linker_0, # of connection points: 2
#     Edge 83, Type (0, 0), BuildingBlock: OJICUG_clean_linker_0, # of connection points: 2
#     Edge 84, Type (0, 0), BuildingBlock: OJICUG_clean_linker_0, # of connection points: 2
#     Edge 85, Type (0, 0), BuildingBlock: OJICUG_clean_linker_0, # of connection points: 2
#     Edge 86, Type (0, 0), BuildingBlock: OJICUG_clean_linker_0, # of connection points: 2
#     Edge 87, Type (0, 0), BuildingBlock: OJICUG_clean_linker_0, # of connection points: 2
#     Edge 88, Type (0, 0), BuildingBlock: OJICUG_clean_linker_0, # of connection points: 2
#     Edge 89, Type (0, 0), BuildingBlock: OJICUG_clean_linker_0, # of connection points: 2
#     Edge 90, Type (0, 0), BuildingBlock: OJICUG_clean_linker_0, # of connection points: 2
#     Edge 91, Type (0, 0), BuildingBlock: OJICUG_clean_linker_0, # of connection points: 2
#     Edge 92, Type (0, 0), BuildingBlock: OJICUG_clean_linker_0, # of connection points: 2
#     Edge 93, Type (0, 0), BuildingBlock: OJICUG_clean_linker_0, # of connection points: 2
#     Edge 94, Type (0, 0), BuildingBlock: OJICUG_clean_linker_0, # of connection points: 2
#     Edge 95, Type (0, 0), BuildingBlock: OJICUG_clean_linker_0, # of connection points: 2
# Relax obj value: 0.012
# Max RMSD: 0.099
# Mean RMSD: 0.097
data_MOF--net-vbb--node1-NAWXER_clean_sbu_0--edge1-OJICUG_clean_linker_0
_symmetry_space_group_name_H-M    P1
_symmetry_Int_Tables_number       1
_symmetry_cell_setting            triclinic
loop_
_symmetry_equiv_pos_as_xyz
'x, y, z'
_cell_length_a     39.069019
_cell_length_b     17.755961
_cell_length_c     83.019495
_cell_angle_alpha  89.962044
_cell_angle_beta   90.005126
_cell_angle_gamma 89.994624
loop_
_atom_site_label
_atom_site_type_symbol
_atom_site_fract_x
_atom_site_fract_y
_atom_site_fract_z
_atom_type_partial_charge
C0 C 0.57386 0.02358 0.08471 0.0
C1 C 0.45924 0.90409 0.08094 0.0
O2 O 0.5489 0.06516 0.08033 0.0
Zn3 Zn 0.49673 0.06114 0.07522 0.0
O4 O 0.5689 0.95324 0.08699 0.0
Zn5 Zn 0.5192 0.94985 0.0823 0.0
O6 O 0.51774 0.96756 0.05756 0.0
O7 O 0.49525 0.07792 0.0516 0.0
O8 O 0.48609 0.86584 0.08429 0.0
O9 O 0.46194 -0.02654 0.07729 0.0
O10 O 0.47851 0.12298 0.09324 0.0
O11 O 0.50008 0.01402 0.10115 0.0
C12 C 0.50838 0.01557 0.04702 0.0
C13 C 0.48484 0.07547 0.10446 0.0
C14 C 0.70632 0.16956 0.08477 0.0
C15 C 0.82088 0.28939 0.08111 0.0
O16 O 0.73131 0.12804 0.08043 0.0
Zn17 Zn 0.78351 0.13223 0.07538 0.0
O18 O 0.71124 0.23991 0.08704 0.0
Zn19 Zn 0.76095 0.24346 0.0824 0.0
O20 O 0.76255 0.22578 0.05767 0.0
O21 O 0.78513 0.11548 0.05176 0.0
O22 O 0.79399 0.32757 0.08443 0.0
O23 O 0.81824 0.22002 0.07747 0.0
O24 O 0.80171 0.07046 0.09343 0.0
O25 O 0.78003 0.17934 0.10128 0.0
C26 C 0.77199 0.17781 0.04715 0.0
C27 C 0.79532 0.11796 0.10463 0.0
C28 C 0.50816 0.17758 0.22991 0.0
C29 C 0.48474 0.11777 0.17244 0.0
O30 O 0.51752 0.22559 0.21937 0.0
Zn31 Zn 0.51901 0.24336 0.19464 0.0
O32 O 0.49505 0.11521 0.22532 0.0
Zn33 Zn 0.49657 0.13203 0.2017 0.0
O34 O 0.54876 0.12812 0.19662 0.0
O35 O 0.56871 0.24008 0.18998 0.0
O36 O 0.47841 0.07023 0.18366 0.0
O37 O 0.49994 0.17924 0.17577 0.0
O38 O 0.48591 0.32737 0.19266 0.0
O39 O 0.46176 0.21971 0.19964 0.0
C40 C 0.5737 0.16975 0.19225 0.0
C41 C 0.45905 0.2891 0.196 0.0
C42 C 0.70627 0.02422 0.19237 0.0
C43 C 0.82091 0.90486 0.1962 0.0
O44 O 0.7312 0.06585 0.19673 0.0
Zn45 Zn 0.78338 0.06191 0.20185 0.0
O46 O 0.71126 0.95388 0.19012 0.0
Zn47 Zn 0.76095 0.95057 0.19482 0.0
O48 O 0.76242 0.96834 0.21954 0.0
O49 O 0.78488 0.07873 0.22547 0.0
O50 O 0.79407 0.86657 0.19286 0.0
O51 O 0.81819 -0.02576 0.19983 0.0
O52 O 0.8016 0.12368 0.18381 0.0
O53 O 0.78006 0.01468 0.17595 0.0
C54 C 0.77177 0.01636 0.23007 0.0
C55 C 0.7953 0.07611 0.17261 0.0
C56 C 0.52216 0.92729 0.97994 0.0
C57 C 0.54534 0.86747 0.92246 0.0
O58 O 0.53533 0.86499 0.97535 0.0
Zn59 Zn 0.53367 0.88173 0.95173 0.0
O60 O 0.51269 -0.02478 0.96941 0.0
Zn61 Zn 0.51104 -0.00705 0.94468 0.0
O62 O 0.4613 -0.01074 0.94007 0.0
O63 O 0.48148 0.87747 0.9467 0.0
O64 O 0.53008 0.92886 0.9258 0.0
O65 O 0.5518 0.81999 0.93367 0.0
O66 O 0.56835 0.96959 0.94961 0.0
O67 O 0.54405 0.07714 0.94266 0.0
C68 C 0.45644 0.91889 0.94236 0.0
C69 C 0.57096 0.03899 0.94597 0.0
C70 C 0.20978 0.65141 0.94626 0.0
C71 C 0.32416 0.77204 0.94245 0.0
O72 O 0.2367 0.61325 0.94298 0.0
Zn73 Zn 0.26965 0.69769 0.94489 0.0
O74 O 0.21236 0.72088 0.94981 0.0
Zn75 Zn 0.24691 0.80898 0.95179 0.0
O76 O 0.22854 0.87001 0.93366 0.0
O77 O 0.25044 0.76116 0.92593 0.0
O78 O 0.29909 0.81346 0.94674 0.0
O79 O 0.31936 0.7016 0.94026 0.0
O80 O 0.26799 0.71598 0.96959 0.0
O81 O 0.24523 0.82622 0.97539 0.0
C82 C 0.23502 0.82229 0.92252 0.0
C83 C 0.25846 0.76408 0.98006 0.0
C84 C 0.52131 0.76486 0.79704 0.0
C85 C 0.54482 0.82493 0.85448 0.0
O86 O 0.53431 0.82734 0.80163 0.0
Zn87 Zn 0.5329 0.81047 0.82525 0.0
O88 O 0.51207 0.71673 0.80758 0.0
Zn89 Zn 0.51069 0.699 0.83232 0.0
O90 O 0.461 0.70177 0.83703 0.0
O91 O 0.48072 0.81394 0.83038 0.0
O92 O 0.52971 0.76332 0.85117 0.0
O93 O 0.55102 0.87249 0.84326 0.0
O94 O 0.5679 0.72312 0.82729 0.0
O95 O 0.54394 0.61531 0.83431 0.0
C96 C 0.45587 0.77207 0.83477 0.0
C97 C 0.57073 0.65377 0.83094 0.0
C98 C 0.23411 0.86374 0.85453 0.0
C99 C 0.25758 0.92475 0.79714 0.0
O100 O 0.22787 0.81634 0.8433 0.0
Zn101 Zn 0.24598 0.87868 0.82532 0.0
O102 O 0.24926 0.92534 0.85126 0.0
Zn103 Zn 0.26832 -0.01009 0.83245 0.0
O104 O 0.23518 0.07372 0.8345 0.0
O105 O 0.21106 0.9662 0.82743 0.0
O106 O 0.26688 -0.02737 0.80771 0.0
O107 O 0.24453 0.86225 0.80169 0.0
O108 O 0.29819 0.87486 0.83043 0.0
O109 O 0.31799 -0.01319 0.83715 0.0
C110 C 0.20834 0.0355 0.83113 0.0
C111 C 0.32307 0.91655 0.83483 0.0
C112 C 0.50817 0.51514 0.54701 0.0
C113 C 0.48479 0.57499 0.60447 0.0
O114 O 0.51753 0.46708 0.55754 0.0
Zn115 Zn 0.51905 0.44934 0.58227 0.0
O116 O 0.49508 0.57752 0.5516 0.0
Zn117 Zn 0.49661 0.56068 0.57522 0.0
O118 O 0.5488 0.56459 0.58031 0.0
O119 O 0.56875 0.45261 0.58694 0.0
O120 O 0.47846 0.62253 0.59325 0.0
O121 O 0.5 0.51352 0.60114 0.0
O122 O 0.48591 0.3654 0.58429 0.0
O123 O 0.46178 0.47308 0.5773 0.0
C124 C 0.57374 0.52295 0.58468 0.0
C125 C 0.45906 0.40371 0.58096 0.0
C126 C 0.77188 0.677 0.54711 0.0
C127 C 0.79527 0.61668 0.60455 0.0
O128 O 0.76248 0.7249 0.55764 0.0
Zn129 Zn 0.76093 0.74241 0.58238 0.0
O130 O 0.78501 0.61461 0.55169 0.0
Zn131 Zn 0.78344 0.63121 0.57531 0.0
O132 O 0.73124 0.62709 0.58038 0.0
O133 O 0.71122 0.73895 0.58703 0.0
O134 O 0.80162 0.56924 0.59333 0.0
O135 O 0.78002 0.67813 0.60123 0.0
O136 O 0.79398 0.82646 0.58441 0.0
O137 O 0.81821 0.71895 0.57741 0.0
C138 C 0.70627 0.66863 0.58474 0.0
C139 C 0.82087 0.78829 0.58107 0.0
C140 C 0.50775 0.6767 0.72995 0.0
C141 C 0.48459 0.61703 0.67246 0.0
O142 O 0.51714 0.72474 0.71943 0.0
Zn143 Zn 0.51876 0.74257 0.6947 0.0
O144 O 0.49468 0.61432 0.72535 0.0
Zn145 Zn 0.4963 0.63119 0.70172 0.0
O146 O 0.5485 0.62732 0.69668 0.0
O147 O 0.56848 0.73931 0.69008 0.0
O148 O 0.47822 0.56944 0.68366 0.0
O149 O 0.49978 0.67848 0.67581 0.0
O150 O 0.48564 0.82655 0.69269 0.0
O151 O 0.46149 0.71883 0.69963 0.0
C152 C 0.57346 0.66896 0.69235 0.0
C153 C 0.45878 0.78823 0.696 0.0
C154 C 0.70601 0.52328 0.69237 0.0
C155 C 0.82055 0.40346 0.69619 0.0
O156 O 0.73099 0.56485 0.6967 0.0
Zn157 Zn 0.78318 0.56074 0.70178 0.0
O158 O 0.71095 0.45291 0.69014 0.0
Zn159 Zn 0.76064 0.44944 0.6948 0.0
O160 O 0.76218 0.46743 0.71951 0.0
O161 O 0.78475 0.57776 0.72539 0.0
O162 O 0.79367 0.36525 0.69288 0.0
O163 O 0.8179 0.47289 0.69978 0.0
O164 O 0.80142 0.62229 0.68371 0.0
O165 O 0.77978 0.51332 0.67589 0.0
C166 C 0.77159 0.51548 0.73002 0.0
C167 C 0.79506 0.57468 0.67253 0.0
C168 C 0.52187 0.42737 0.4799 0.0
C169 C 0.54515 0.36826 0.42239 0.0
O170 O 0.53498 0.36505 0.47528 0.0
Zn171 Zn 0.53338 0.38212 0.45166 0.0
O172 O 0.51247 0.47547 0.46939 0.0
Zn173 Zn 0.51089 0.49353 0.44467 0.0
O174 O 0.46116 0.49023 0.44005 0.0
O175 O 0.48118 0.37822 0.44662 0.0
O176 O 0.52992 0.42965 0.42576 0.0
O177 O 0.55153 0.3206 0.43358 0.0
O178 O 0.56816 0.46983 0.44963 0.0
O179 O 0.54399 0.57758 0.44271 0.0
C180 C 0.4562 0.41987 0.4423 0.0
C181 C 0.57085 0.53926 0.44602 0.0
C182 C 0.2581 0.26599 0.4802 0.0
C183 C 0.23466 0.32615 0.42276 0.0
O184 O 0.24499 0.32838 0.47561 0.0
Zn185 Zn 0.24652 0.31169 0.45199 0.0
O186 O 0.26749 0.21804 0.46967 0.0
Zn187 Zn 0.269 0.20045 0.44494 0.0
O188 O 0.3187 0.20388 0.44025 0.0
O189 O 0.29871 0.31577 0.4469 0.0
O190 O 0.24989 0.26469 0.42608 0.0
O191 O 0.22832 0.37363 0.43397 0.0
O192 O 0.21173 0.22399 0.44992 0.0
O193 O 0.23593 0.11641 0.44293 0.0
C194 C 0.32366 0.27421 0.44252 0.0
C195 C 0.20906 0.15462 0.44628 0.0
C196 C 0.52195 0.26605 0.29697 0.0
C197 C 0.54545 0.32634 0.3544 0.0
O198 O 0.53506 0.32844 0.30154 0.0
Zn199 Zn 0.53357 0.31181 0.32517 0.0
O200 O 0.51259 0.2181 0.30752 0.0
Zn201 Zn 0.51112 0.20058 0.33227 0.0
O202 O 0.46144 0.20396 0.33697 0.0
O203 O 0.4814 0.31586 0.33028 0.0
O204 O 0.53023 0.26486 0.3511 0.0
O205 O 0.55176 0.3738 0.34317 0.0
O206 O 0.56838 0.22414 0.32727 0.0
O207 O 0.54421 0.11658 0.33431 0.0
C208 C 0.45646 0.27429 0.33468 0.0
C209 C 0.57107 0.15479 0.33095 0.0
C210 C 0.32394 0.42002 0.33491 0.0
C211 C 0.20931 0.53951 0.33118 0.0
O212 O 0.31898 0.49037 0.33716 0.0
Zn213 Zn 0.26926 0.49373 0.33252 0.0
O214 O 0.29897 0.37842 0.33058 0.0
Zn215 Zn 0.24677 0.3824 0.32552 0.0
O216 O 0.24519 0.3655 0.30191 0.0
O217 O 0.2677 0.47587 0.3078 0.0
O218 O 0.212 0.47012 0.32756 0.0
O219 O 0.23617 0.57778 0.3345 0.0
O220 O 0.2502 0.42968 0.35142 0.0
O221 O 0.2286 0.32071 0.34358 0.0
C222 C 0.25831 0.42784 0.29729 0.0
C223 C 0.23495 0.36828 0.35477 0.0
C224 C 0.98459 0.07505 0.60481 0.0
C225 C 1.00804 0.01568 0.54733 0.0
O226 O 0.99986 0.01367 0.60147 0.0
Zn227 Zn 0.01898 0.94974 0.58258 0.0
O228 O 0.97822 0.12265 0.59361 0.0
Zn229 Zn 0.99644 0.06104 0.57555 0.0
O230 O 0.96171 -0.02678 0.5776 0.0
O231 O 0.98594 0.8656 0.58455 0.0
O232 O 0.99489 0.07798 0.55193 0.0
O233 O 0.01745 0.96764 0.55785 0.0
O234 O 0.06869 0.95321 0.58724 0.0
O235 O 0.04864 0.06514 0.58063 0.0
C236 C 0.95906 0.90381 0.58122 0.0
C237 C 0.07362 0.02357 0.58498 0.0
C238 C 0.2951 0.11752 0.60475 0.0
C239 C 0.27168 0.17737 0.54728 0.0
O240 O 0.27987 0.17897 0.60141 0.0
Zn241 Zn 0.26079 0.24312 0.58253 0.0
O242 O 0.30144 0.06998 0.59355 0.0
Zn243 Zn 0.28326 0.13178 0.5755 0.0
O244 O 0.31805 0.21945 0.57755 0.0
O245 O 0.29391 0.32712 0.5845 0.0
O246 O 0.28479 0.11499 0.55188 0.0
O247 O 0.26231 0.22536 0.55781 0.0
O248 O 0.21108 0.23975 0.5872 0.0
O249 O 0.23107 0.12781 0.58059 0.0
C250 C 0.32076 0.28883 0.58117 0.0
C251 C 0.20612 0.16941 0.58494 0.0
C252 C 0.07338 0.16853 0.69259 0.0
C253 C 0.95875 0.28794 0.69639 0.0
O254 O 0.04843 0.12689 0.69695 0.0
Zn255 Zn 0.99625 0.13083 0.70206 0.0
O256 O 0.0684 0.23889 0.69035 0.0
Zn257 Zn 0.01871 0.24217 0.69504 0.0
O258 O 0.01724 0.22424 0.71977 0.0
O259 O 0.99476 0.11382 0.72568 0.0
O260 O 0.98562 0.32619 0.69306 0.0
O261 O 0.96144 0.21853 0.70002 0.0
O262 O 0.97807 0.06912 0.68401 0.0
O263 O 0.99962 0.17817 0.67615 0.0
C264 C 1.00789 0.17613 0.73029 0.0
C265 C 0.9844 0.11673 0.67281 0.0
C266 C 0.20589 0.02278 0.69246 0.0
C267 C 0.3205 0.9032 0.69613 0.0
O268 O 0.23084 0.06429 0.69685 0.0
Zn269 Zn 0.28302 0.06018 0.70195 0.0
O270 O 0.21085 0.95248 0.69015 0.0
Zn271 Zn 0.26055 0.949 0.69482 0.0
O272 O 0.26206 0.9663 0.71956 0.0
O273 O 0.28455 0.07656 0.72557 0.0
O274 O 0.29364 0.86501 0.69277 0.0
O275 O 0.31781 -0.02749 0.69983 0.0
O276 O 0.30124 0.12229 0.68395 0.0
O277 O 0.27966 0.01346 0.676 0.0
C278 C 0.27143 0.01412 0.73012 0.0
C279 C 0.29491 0.07493 0.67272 0.0
C280 C 0.04523 0.86785 0.42277 0.0
C281 C 0.02179 0.92769 0.48023 0.0
O282 O 0.05158 0.82033 0.43399 0.0
Zn283 Zn 0.03339 0.88216 0.45202 0.0
O284 O 0.02999 0.92929 0.42609 0.0
Zn285 Zn 1.0109 -0.00658 0.44496 0.0
O286 O 0.04397 0.07748 0.44295 0.0
O287 O 0.06817 0.96988 0.44994 0.0
O288 O 1.0124 -0.02429 0.4697 0.0
O289 O 0.03492 0.86535 0.47564 0.0
O290 O 0.98121 0.8781 0.44692 0.0
O291 O 0.9612 -0.00997 0.44028 0.0
C292 C 0.07084 0.03926 0.44629 0.0
C293 C 0.95625 0.91968 0.44254 0.0
C294 C 0.75816 0.7657 0.48004 0.0
C295 C 0.73475 0.82573 0.42258 0.0
O296 O 0.74504 0.82808 0.47545 0.0
Zn297 Zn 0.74659 0.81139 0.45183 0.0
O298 O 0.76755 0.71775 0.4695 0.0
Zn299 Zn 0.76908 0.7001 0.44478 0.0
O300 O 0.81879 0.70353 0.44013 0.0
O301 O 0.79878 0.81542 0.44676 0.0
O302 O 0.75 0.7643 0.42591 0.0
O303 O 0.7284 0.87324 0.43378 0.0
O304 O 0.71181 0.72369 0.44976 0.0
O305 O 0.73599 0.61609 0.44278 0.0
C306 C 0.82375 0.77386 0.4424 0.0
C307 C 0.70912 0.65433 0.44611 0.0
C308 C 0.95632 0.77368 0.33493 0.0
C309 C 0.07102 0.6545 0.33121 0.0
O310 O 0.96131 0.70334 0.33719 0.0
Zn311 Zn 1.01103 0.70012 0.33255 0.0
O312 O 0.98127 0.81534 0.33059 0.0
Zn313 Zn 0.03346 0.81151 0.32552 0.0
O314 O 0.035 0.82844 0.3019 0.0
O315 O 1.01256 0.71799 0.30782 0.0
O316 O 0.06829 0.7239 0.32758 0.0
O317 O 0.04417 0.61617 0.33454 0.0
O318 O 0.03005 0.7642 0.35144 0.0
O319 O 0.05157 0.87326 0.34358 0.0
C320 C 0.02191 0.76608 0.2973 0.0
C321 C 0.04524 0.82567 0.35478 0.0
C322 C 0.70928 0.03937 0.33107 0.0
C323 C 0.82381 0.91946 0.33482 0.0
O324 O 0.73616 0.07753 0.3344 0.0
Zn325 Zn 0.76919 -0.00663 0.33241 0.0
O326 O 0.71192 0.97 0.32743 0.0
Zn327 Zn 0.74664 0.88217 0.32536 0.0
O328 O 0.72839 0.82038 0.3434 0.0
O329 O 0.75004 0.92925 0.35128 0.0
O330 O 0.79883 0.87795 0.33046 0.0
O331 O 0.81887 -0.01019 0.33709 0.0
O332 O 0.76764 -0.02426 0.30768 0.0
O333 O 0.74507 0.86546 0.30175 0.0
C334 C 0.73475 0.86786 0.3546 0.0
C335 C 0.75822 0.9278 0.29715 0.0
C336 C 0.95912 0.40459 0.0813 0.0
C337 C 0.07377 0.52402 0.08496 0.0
O338 O 0.96182 0.47393 0.07761 0.0
Zn339 Zn 0.99663 0.56156 0.07548 0.0
O340 O 0.98597 0.36635 0.08466 0.0
Zn341 Zn 0.01908 0.45031 0.08262 0.0
O342 O 1.00001 0.51471 0.10144 0.0
O343 O 0.97846 0.62362 0.09349 0.0
O344 O 0.06879 0.45371 0.08728 0.0
O345 O 0.04882 0.56557 0.08057 0.0
O346 O 0.9951 0.57798 0.05184 0.0
O347 O 0.01756 0.46768 0.05787 0.0
C348 C 0.98479 0.57621 0.10473 0.0
C349 C 1.00819 0.51552 0.0473 0.0
C350 C 0.32098 0.78892 0.08105 0.0
C351 C 0.20633 0.66958 0.08488 0.0
O352 O 0.31828 0.71948 0.07747 0.0
Zn353 Zn 0.28348 0.63178 0.07548 0.0
O354 O 0.29412 0.82724 0.08435 0.0
Zn355 Zn 0.26101 0.74319 0.08243 0.0
O356 O 0.28008 0.67932 0.10136 0.0
O357 O 0.30164 0.57023 0.09357 0.0
O358 O 0.21131 0.73995 0.08709 0.0
O359 O 0.23128 0.6279 0.08056 0.0
O360 O 0.28503 0.61458 0.05189 0.0
O361 O 0.26254 0.72506 0.05772 0.0
C362 C 0.2953 0.61791 0.10474 0.0
C363 C 0.27192 0.67687 0.04723 0.0
C364 C 0.07382 0.67036 0.19256 0.0
C365 C 0.95919 0.78983 0.19626 0.0
O366 O 0.04885 0.62876 0.1969 0.0
Zn367 Zn 0.99666 0.63274 0.20197 0.0
O368 O 0.06886 0.74071 0.1903 0.0
Zn369 Zn 0.01915 0.74407 0.19494 0.0
O370 O 0.01759 0.72623 0.21967 0.0
O371 O 0.99509 0.61584 0.22559 0.0
O372 O 0.98605 0.82811 0.19294 0.0
O373 O 0.96188 0.72043 0.1999 0.0
O374 O 0.97851 0.57104 0.18391 0.0
O375 O 1.00011 0.68003 0.17605 0.0
C376 C 1.0082 0.67818 0.23019 0.0
C377 C 0.98488 0.61861 0.17271 0.0
C378 C 0.32084 0.40452 0.19622 0.0
C379 C 0.2063 0.52441 0.19256 0.0
O380 O 0.31821 0.47388 0.19988 0.0
Zn381 Zn 0.28348 0.56169 0.20198 0.0
O382 O 0.29395 0.36638 0.1929 0.0
Zn383 Zn 0.26092 0.45052 0.19493 0.0
O384 O 0.28002 0.5147 0.17606 0.0
O385 O 0.30167 0.62356 0.18394 0.0
O386 O 0.21122 0.45407 0.19029 0.0
O387 O 0.23128 0.56591 0.19692 0.0
O388 O 0.2851 0.57839 0.22559 0.0
O389 O 0.26252 0.46811 0.21967 0.0
C390 C 0.29529 0.5761 0.17273 0.0
C391 C 0.27196 0.51605 0.23019 0.0
C392 C 0.0455 0.36507 0.9229 0.0
C393 C 0.02197 0.42607 0.9803 0.0
O394 O 0.05169 0.31762 0.93415 0.0
Zn395 Zn 0.03361 0.37996 0.95213 0.0
O396 O 0.03043 0.42675 0.92617 0.0
Zn397 Zn 1.01142 0.49139 0.94497 0.0
O398 O 0.0447 0.57496 0.94294 0.0
O399 O 0.06864 0.46722 0.95003 0.0
O400 O 1.01276 0.47403 0.96972 0.0
O401 O 0.03496 0.36349 0.97577 0.0
O402 O 0.98144 0.37649 0.94698 0.0
O403 O 0.96173 0.48856 0.94024 0.0
C404 C 0.07148 0.53652 0.94634 0.0
C405 C 0.9566 0.4183 0.94255 0.0
C406 C 0.73486 0.32583 0.92259 0.0
C407 C 0.75827 0.26595 0.98005 0.0
O408 O 0.72855 0.37337 0.93379 0.0
Zn409 Zn 0.74672 0.31147 0.95183 0.0
O410 O 0.75007 0.26435 0.92592 0.0
Zn411 Zn 0.76913 0.20016 0.9448 0.0
O412 O 0.73602 0.11621 0.94281 0.0
O413 O 0.71186 0.22384 0.94978 0.0
O414 O 0.76762 0.21789 0.96953 0.0
O415 O 0.74518 0.32833 0.97544 0.0
O416 O 0.79893 0.31534 0.94675 0.0
O417 O 0.81882 0.20331 0.94014 0.0
C418 C 0.70916 0.15447 0.94614 0.0
C419 C 0.82385 0.27362 0.94241 0.0
C420 C 0.0702 0.15134 0.83134 0.0
C421 C 0.95587 0.27226 0.83499 0.0
O422 O 0.04325 0.11332 0.83463 0.0
Zn423 Zn 1.01037 0.19784 0.83264 0.0
O424 O 0.06768 0.22078 0.82772 0.0
Zn425 Zn 0.03316 0.30895 0.82565 0.0
O426 O 0.05146 0.37028 0.84373 0.0
O427 O 0.02956 0.26154 0.85156 0.0
O428 O 0.98096 0.31358 0.83067 0.0
O429 O 0.96066 0.20185 0.83725 0.0
O430 O 1.01206 0.21578 0.80792 0.0
O431 O 0.03487 0.32589 0.80203 0.0
C432 C 0.04495 0.32274 0.85492 0.0
C433 C 0.02162 0.26373 0.79741 0.0
C434 C 0.70908 0.53915 0.83102 0.0
C435 C 0.82362 0.41922 0.8348 0.0
O436 O 0.73595 0.57739 0.83434 0.0
Zn437 Zn 0.76902 0.49324 0.83237 0.0
O438 O 0.71175 0.46976 0.82741 0.0
Zn439 Zn 0.74645 0.38196 0.82536 0.0
O440 O 0.72824 0.32029 0.84341 0.0
O441 O 0.74991 0.42921 0.85126 0.0
O442 O 0.79862 0.37776 0.83045 0.0
O443 O 0.81874 0.4896 0.83704 0.0
O444 O 0.76747 0.47543 0.80764 0.0
O445 O 0.74488 0.36512 0.80175 0.0
C446 C 0.73463 0.36783 0.85461 0.0
C447 C 0.75804 0.42742 0.79713 0.0
C448 C 0.4743 0.02453 0.13199 0.0
C449 C 0.47611 0.08756 0.12159 0.0
H450 H 0.47533 -0.01586 0.15639 0.0
C451 C 0.47429 0.15976 0.12818 0.0
H452 H 0.47493 0.96779 0.12721 0.0
C453 C 0.47427 0.16871 0.14491 0.0
C454 C 0.47605 0.10568 0.15531 0.0
H455 H 0.47537 0.2091 0.12051 0.0
H456 H 0.47488 0.22546 0.14969 0.0
C457 C 0.47427 0.03348 0.14872 0.0
C458 C 0.8059 0.02501 0.14512 0.0
C459 C 0.80406 0.08811 0.15548 0.0
H460 H 0.80486 -0.01555 0.12075 0.0
C461 C 0.80583 0.16027 0.14885 0.0
H462 H 0.80531 0.9683 0.14994 0.0
C463 C 0.80583 0.16911 0.13212 0.0
C464 C 0.80406 0.10599 0.12176 0.0
H465 H 0.80473 0.20966 0.15649 0.0
H466 H 0.80519 0.22582 0.1273 0.0
C467 C 0.8059 0.03384 0.12839 0.0
C468 C 0.55542 0.90933 0.87817 0.0
C469 C 0.5536 0.8371 0.8716 0.0
H470 H 0.55495 -0.02489 0.89968 0.0
C471 C 0.55552 0.77411 0.88201 0.0
H472 H 0.55426 0.95864 0.8705 0.0
C473 C 0.55568 0.78313 0.89874 0.0
C474 C 0.5539 0.85535 0.90532 0.0
H475 H 0.5549 0.71735 0.87724 0.0
H476 H 0.55471 0.73381 0.90641 0.0
C477 C 0.55556 0.91835 0.8949 0.0
C478 C 0.22463 0.77915 0.8783 0.0
C479 C 0.22543 0.85135 0.87165 0.0
H480 H 0.22636 0.71378 0.89985 0.0
C481 C 0.22296 0.91438 0.882 0.0
H482 H 0.22626 0.72981 0.87067 0.0
C483 C 0.22331 0.90565 0.89874 0.0
C484 C 0.22614 0.83367 0.90538 0.0
H485 H 0.22283 0.97107 0.87716 0.0
H486 H 0.22382 0.95514 0.90636 0.0
C487 C 0.22497 0.77042 0.89503 0.0
C488 C 0.47422 0.52396 0.63199 0.0
C489 C 0.47606 0.58703 0.62159 0.0
H490 H 0.47519 0.48347 0.65637 0.0
C491 C 0.47426 0.65921 0.62819 0.0
H492 H 0.47483 0.46723 0.62719 0.0
C493 C 0.47422 0.66809 0.64492 0.0
C494 C 0.47596 0.60501 0.65532 0.0
H495 H 0.47537 0.70858 0.62054 0.0
H496 H 0.47484 0.72482 0.64972 0.0
C497 C 0.47416 0.53284 0.64871 0.0
C498 C 0.80546 0.52345 0.64503 0.0
C499 C 0.80383 0.58656 0.6554 0.0
H500 H 0.80433 0.48297 0.62065 0.0
C501 C 0.80588 0.6587 0.64878 0.0
H502 H 0.80465 0.46673 0.64984 0.0
C503 C 0.80597 0.66757 0.63205 0.0
C504 C 0.80399 0.60452 0.62167 0.0
H505 H 0.80495 0.70809 0.65642 0.0
H506 H 0.80553 0.7243 0.62723 0.0
C507 C 0.80555 0.53232 0.6283 0.0
C508 C 0.55605 0.28433 0.39865 0.0
C509 C 0.55388 0.35645 0.40525 0.0
H510 H 0.55583 0.21875 0.37711 0.0
C511 C 0.55544 0.41958 0.39486 0.0
H512 H 0.55519 0.23493 0.4063 0.0
C513 C 0.55557 0.41072 0.37814 0.0
C514 C 0.55414 0.33852 0.37153 0.0
H515 H 0.55454 0.47629 0.39966 0.0
H516 H 0.55429 0.46008 0.37048 0.0
C517 C 0.55618 0.27548 0.38192 0.0
C518 C 0.22452 0.41943 0.38228 0.0
C519 C 0.22619 0.35634 0.3719 0.0
H520 H 0.22559 0.45987 0.40666 0.0
C521 C 0.22414 0.28419 0.37852 0.0
H522 H 0.22532 0.47616 0.37748 0.0
C523 C 0.22403 0.27528 0.39525 0.0
C524 C 0.22596 0.33832 0.40563 0.0
H525 H 0.22509 0.23482 0.37088 0.0
H526 H 0.22447 0.21855 0.40006 0.0
C527 C 0.2244 0.41053 0.39901 0.0
C528 C 0.9741 0.02381 0.63232 0.0
C529 C 0.97584 0.08695 0.62194 0.0
H530 H 0.97514 -0.0168 0.65669 0.0
C531 C 0.97394 0.15907 0.62856 0.0
H532 H 0.9748 0.96711 0.62751 0.0
C533 C 0.97388 0.16787 0.64529 0.0
C534 C 0.97572 0.10475 0.65567 0.0
H535 H 0.97496 0.20849 0.62092 0.0
H536 H 0.97442 0.22457 0.6501 0.0
C537 C 0.97403 0.0326 0.64905 0.0
C538 C 0.30548 0.16842 0.63228 0.0
C539 C 0.30379 0.10542 0.62188 0.0
H540 H 0.30428 0.2087 0.65667 0.0
C541 C 0.30567 0.0332 0.62848 0.0
H542 H 0.3048 0.22518 0.62749 0.0
C543 C 0.30564 0.02418 0.64521 0.0
C544 C 0.30371 0.08717 0.6556 0.0
H545 H 0.30469 -0.01611 0.62082 0.0
H546 H 0.30507 0.96742 0.65 0.0
C547 C 0.30544 0.1594 0.64901 0.0
C548 C 0.05575 0.90988 0.37852 0.0
C549 C 0.05391 0.8377 0.37192 0.0
H550 H 0.05518 -0.02446 0.40003 0.0
C551 C 0.05565 0.77464 0.38232 0.0
H552 H 0.05473 0.95923 0.37085 0.0
C553 C 0.05567 0.78356 0.39905 0.0
C554 C 0.05393 0.85575 0.40564 0.0
H555 H 0.055 0.7179 0.37753 0.0
H556 H 0.05457 0.73421 0.40671 0.0
C557 C 0.05576 0.9188 0.39524 0.0
C558 C 0.72419 0.77473 0.39507 0.0
C559 C 0.726 0.83779 0.40545 0.0
H560 H 0.72527 0.73427 0.3707 0.0
C561 C 0.72419 0.90997 0.39884 0.0
H562 H 0.72482 0.71799 0.39988 0.0
C563 C 0.72418 0.91887 0.38211 0.0
C564 C 0.72599 0.85581 0.37173 0.0
H565 H 0.72526 0.95933 0.40648 0.0
H566 H 0.7248 -0.02439 0.3773 0.0
C567 C 0.72419 0.78363 0.37834 0.0
C568 C 0.97417 0.53444 0.14898 0.0
C569 C 0.97619 0.60662 0.15557 0.0
H570 H 0.97456 0.46871 0.12747 0.0
C571 C 0.97457 0.66967 0.14516 0.0
H572 H 0.97508 0.4851 0.15665 0.0
C573 C 0.97451 0.6607 0.12843 0.0
C574 C 0.97608 0.58846 0.12185 0.0
H575 H 0.97536 0.72641 0.14994 0.0
H576 H 0.97573 0.71001 0.12076 0.0
C577 C 0.97411 0.52547 0.13226 0.0
C578 C 0.30594 0.52506 0.14524 0.0
C579 C 0.30403 0.58816 0.15561 0.0
H580 H 0.30495 0.48448 0.12088 0.0
C581 C 0.3057 0.66033 0.14898 0.0
H582 H 0.30542 0.46835 0.15007 0.0
C583 C 0.30569 0.66915 0.13225 0.0
C584 C 0.304 0.60603 0.12188 0.0
H585 H 0.30454 0.7097 0.15661 0.0
H586 H 0.30497 0.72586 0.12743 0.0
C587 C 0.30593 0.53389 0.12851 0.0
C588 C 0.05619 0.40661 0.87864 0.0
C589 C 0.05372 0.33449 0.87206 0.0
H590 H 0.05628 0.47232 0.90016 0.0
C591 C 0.05507 0.2714 0.88246 0.0
H592 H 0.05551 0.45598 0.87098 0.0
C593 C 0.05529 0.28036 0.89919 0.0
C594 C 0.05415 0.35262 0.90578 0.0
H595 H 0.05395 0.21468 0.87768 0.0
H596 H 0.05383 0.23108 0.90686 0.0
C597 C 0.0564 0.41556 0.89537 0.0
C598 C 0.72427 0.41005 0.89885 0.0
C599 C 0.72608 0.33787 0.90547 0.0
H600 H 0.72483 0.47565 0.8773 0.0
C601 C 0.72421 0.27479 0.89509 0.0
H602 H 0.72539 0.45941 0.90649 0.0
C603 C 0.72414 0.28367 0.87837 0.0
C604 C 0.72594 0.35584 0.87174 0.0
H605 H 0.72482 0.21807 0.89991 0.0
H606 H 0.72516 0.2343 0.87072 0.0
C607 C 0.7242 0.41892 0.88212 0.0
C608 C 0.36233 0.89704 0.08211 0.0
C609 C 0.3561 0.81965 0.08192 0.0
H610 H 0.39986 -0.01597 0.08196 0.0
C611 C 0.38423 0.76942 0.08221 0.0
H612 H 0.34135 0.93691 0.08199 0.0
C613 C 0.41787 0.79601 0.08224 0.0
C614 C 0.42411 0.87339 0.08186 0.0
H615 H 0.38034 0.70902 0.08231 0.0
H616 H 0.43886 0.75613 0.08223 0.0
C617 C 0.39598 0.92362 0.08202 0.0
C618 C 0.88413 0.2699 0.08236 0.0
C619 C 0.85599 0.32013 0.08209 0.0
H620 H 0.93875 0.25663 0.08243 0.0
C621 C 0.86222 0.39752 0.08241 0.0
H622 H 0.88024 0.2095 0.08236 0.0
C623 C 0.89586 0.42411 0.0824 0.0
C624 C 0.924 0.37388 0.0822 0.0
H625 H 0.84123 0.43738 0.08231 0.0
H626 H 0.89975 0.48451 0.08242 0.0
C627 C 0.91777 0.29649 0.08247 0.0
C628 C 0.41772 0.39727 0.19485 0.0
C629 C 0.42394 0.31987 0.19513 0.0
H630 H 0.38022 0.48432 0.19496 0.0
C631 C 0.39579 0.26969 0.19495 0.0
H632 H 0.43872 0.4371 0.19489 0.0
C633 C 0.36215 0.29633 0.19494 0.0
C634 C 0.35594 0.37373 0.19525 0.0
H635 H 0.39966 0.20928 0.19492 0.0
H636 H 0.34115 0.2565 0.19504 0.0
C637 C 0.38409 0.42391 0.19497 0.0
C638 C 0.8623 0.79681 0.19501 0.0
C639 C 0.85604 0.87419 0.19531 0.0
H640 H 0.89985 0.70986 0.19505 0.0
C641 C 0.88416 0.92445 0.19511 0.0
H642 H 0.84132 0.75692 0.19506 0.0
C643 C 0.91781 0.8979 0.19506 0.0
C644 C 0.92407 0.82052 0.19533 0.0
H645 H 0.88026 -0.01515 0.1951 0.0
H646 H 0.93879 0.93779 0.19514 0.0
C647 C 0.89595 0.77026 0.19508 0.0
C648 C 0.64588 0.17394 0.9451 0.0
C649 C 0.67404 0.12376 0.9452 0.0
H650 H 0.59124 0.18709 0.94515 0.0
C651 C 0.66784 0.04638 0.94471 0.0
H652 H 0.64974 0.23435 0.94524 0.0
C653 C 0.63421 0.01972 0.9447 0.0
C654 C 0.60605 0.06987 0.94506 0.0
H655 H 0.68884 0.00655 0.94466 0.0
H656 H 0.63034 0.95932 0.94453 0.0
C657 C 0.61225 0.14728 0.94497 0.0
C658 C 0.16843 0.54318 0.94542 0.0
C659 C 0.17469 0.62057 0.94534 0.0
H660 H 0.13085 0.4563 0.94582 0.0
C661 C 0.14658 0.67081 0.94479 0.0
H662 H 0.1894 0.50331 0.94575 0.0
C663 C 0.11293 0.6443 0.94478 0.0
C664 C 0.10665 0.56699 0.94544 0.0
H665 H 0.15049 0.73119 0.94447 0.0
H666 H 0.09197 0.68423 0.94458 0.0
C667 C 0.13477 0.51668 0.94554 0.0
C668 C 0.63399 0.67366 0.83189 0.0
C669 C 0.6059 0.6233 0.83185 0.0
H670 H 0.68861 0.68715 0.83177 0.0
C671 C 0.61221 0.54597 0.83237 0.0
H672 H 0.63005 0.73404 0.83172 0.0
C673 C 0.64587 0.51952 0.83236 0.0
C674 C 0.67396 0.56984 0.83194 0.0
H675 H 0.59126 0.506 0.83246 0.0
H676 H 0.64982 0.45914 0.83256 0.0
C677 C 0.66766 0.64722 0.832 0.0
C678 C 0.13343 0.17032 0.83275 0.0
C679 C 0.10526 0.12028 0.83225 0.0
H680 H 0.18806 0.18336 0.83288 0.0
C681 C 0.11141 0.04285 0.83219 0.0
H682 H 0.1296 0.23073 0.83305 0.0
C683 C 0.14503 0.0161 0.83203 0.0
C684 C 0.17322 0.06622 0.83207 0.0
H685 H 0.09038 0.00312 0.83189 0.0
H686 H 0.14887 0.9557 0.83177 0.0
C687 C 0.16705 0.14358 0.83272 0.0
C688 C 0.41766 0.29574 0.58234 0.0
C689 C 0.42393 0.3731 0.58191 0.0
H690 H 0.38009 0.20883 0.58246 0.0
C691 C 0.39581 0.4234 0.58208 0.0
H692 H 0.43863 0.25582 0.58233 0.0
C693 C 0.36216 0.39689 0.58221 0.0
C694 C 0.35589 0.31951 0.58205 0.0
H695 H 0.39972 0.48379 0.582 0.0
H696 H 0.34118 0.43679 0.58209 0.0
C697 C 0.384 0.26922 0.58234 0.0
C698 C 0.88413 0.7689 0.58221 0.0
C699 C 0.85597 0.81907 0.58202 0.0
H700 H 0.93877 0.75575 0.58221 0.0
C701 C 0.86217 0.89646 0.58239 0.0
H702 H 0.88028 0.70849 0.58216 0.0
C703 C 0.8958 0.92313 0.58237 0.0
C704 C 0.92396 0.87297 0.58211 0.0
H705 H 0.84116 0.93628 0.58236 0.0
H706 H 0.89966 -0.01646 0.58245 0.0
C707 C 0.91776 0.79557 0.58232 0.0
C708 C 0.4174 0.89629 0.69488 0.0
C709 C 0.42366 0.81891 0.69509 0.0
H710 H 0.37984 -0.01678 0.69504 0.0
C711 C 0.39554 0.76864 0.6948 0.0
H712 H 0.43837 0.93619 0.695 0.0
C713 C 0.36189 0.79518 0.69478 0.0
C714 C 0.35563 0.87255 0.69517 0.0
H715 H 0.39946 0.70825 0.69472 0.0
H716 H 0.34092 0.75528 0.69481 0.0
C717 C 0.38375 0.92283 0.69499 0.0
C718 C 0.88381 0.42275 0.69501 0.0
C719 C 0.85565 0.3726 0.69533 0.0
H720 H 0.93844 0.4359 0.69499 0.0
C721 C 0.86185 0.29519 0.69522 0.0
H722 H 0.87994 0.48316 0.69485 0.0
C723 C 0.89548 0.26852 0.69535 0.0
C724 C 0.92364 0.31869 0.69547 0.0
H725 H 0.84084 0.25538 0.69537 0.0
H726 H 0.89934 0.20811 0.69546 0.0
C727 C 0.91744 0.39608 0.69501 0.0
C728 C 0.63411 0.51972 0.44488 0.0
C729 C 0.60598 0.56997 0.44513 0.0
H730 H 0.68873 0.50638 0.44489 0.0
C731 C 0.61222 0.64735 0.44488 0.0
H732 H 0.63021 0.45932 0.44483 0.0
C733 C 0.64587 0.67391 0.44497 0.0
C734 C 0.674 0.62365 0.44518 0.0
H735 H 0.59124 0.68724 0.44497 0.0
H736 H 0.64977 0.73431 0.44499 0.0
C737 C 0.66775 0.54627 0.44484 0.0
C738 C 0.1341 0.01984 0.44514 0.0
C739 C 0.10595 0.07003 0.44537 0.0
H740 H 0.18873 0.00663 0.44514 0.0
C741 C 0.11216 0.14743 0.44507 0.0
H742 H 0.13023 0.95943 0.44512 0.0
C743 C 0.1458 0.17406 0.44513 0.0
C744 C 0.17395 0.12386 0.44536 0.0
H745 H 0.09116 0.18727 0.44514 0.0
H746 H 0.14967 0.23446 0.44511 0.0
C747 C 0.16773 0.04647 0.44507 0.0
C748 C 0.66797 0.1476 0.33214 0.0
C749 C 0.67418 0.0702 0.33197 0.0
H750 H 0.63047 0.23466 0.33195 0.0
C751 C 0.64603 0.02003 0.33229 0.0
H752 H 0.68897 0.18743 0.332 0.0
C753 C 0.6124 0.04667 0.33231 0.0
C754 C 0.60618 0.12406 0.33189 0.0
H755 H 0.6499 0.95962 0.33241 0.0
H756 H 0.5914 0.00683 0.33231 0.0
C757 C 0.63434 0.17425 0.33204 0.0
C758 C 0.14606 0.51993 0.33236 0.0
C759 C 0.17418 0.5702 0.3321 0.0
H760 H 0.09144 0.50657 0.33239 0.0
C761 C 0.16792 0.64758 0.33236 0.0
H762 H 0.14997 0.45954 0.3324 0.0
C763 C 0.13427 0.67412 0.33231 0.0
C764 C 0.10615 0.62385 0.33211 0.0
H765 H 0.1889 0.68748 0.33227 0.0
H766 H 0.13036 0.73452 0.3323 0.0
C767 C 0.11241 0.54647 0.33243 0.0
C768 C 0.52718 0.92446 0.02567 0.0
C769 C 0.51222 -0.0056 0.02979 0.0
H770 H 0.54193 0.84798 1.00688 0.0
C771 C 0.50042 0.04111 0.01739 0.0
H772 H 0.53658 0.88665 0.0349 0.0
C773 C 0.50345 0.01845 1.0013 0.0
C774 C 0.51839 0.9485 0.99718 0.0
H775 H 0.4887 0.09492 0.02009 0.0
H776 H 0.49405 0.05626 0.99206 0.0
C777 C 0.53021 0.9018 1.00958 0.0
C778 C 0.75331 0.26895 0.02576 0.0
C779 C 0.76822 0.19898 0.02991 0.0
H780 H 0.73859 0.3454 1.00695 0.0
C781 C 0.78002 0.15223 0.01753 0.0
H782 H 0.74392 0.30681 0.03498 0.0
C783 C 0.77701 0.17485 1.00144 0.0
C784 C 0.76208 0.24481 0.99729 0.0
H785 H 0.79172 0.0984 0.02026 0.0
H786 H 0.78639 0.137 0.99222 0.0
C787 C 0.75029 0.29157 1.00967 0.0
C788 C 0.50021 0.15207 0.25955 0.0
C789 C 0.51198 0.19878 0.24714 0.0
H790 H 0.49387 0.13697 0.28488 0.0
C791 C 0.52688 0.26878 0.25125 0.0
H792 H 0.48852 0.09822 0.25685 0.0
C793 C 0.52991 0.29148 0.26734 0.0
C794 C 0.51814 0.24478 0.27974 0.0
H795 H 0.53625 0.3066 0.24201 0.0
H796 H 0.5416 0.34534 0.27003 0.0
C797 C 0.50324 0.17478 0.27563 0.0
C798 C 0.77988 0.04175 0.25969 0.0
C799 C 0.76799 -0.00485 0.24731 0.0
H800 H 0.78638 0.05674 0.28501 0.0
C801 C 0.75303 0.92522 0.25144 0.0
H802 H 0.79161 0.09555 0.25698 0.0
C803 C 0.75007 0.90247 0.26753 0.0
C804 C 0.76196 0.94907 0.27991 0.0
H805 H 0.74357 0.88748 0.24222 0.0
H806 H 0.73833 0.84867 0.27024 0.0
C807 C 0.77692 0.019 0.27578 0.0
C808 C 0.25021 0.78998 1.00966 0.0
C809 C 0.26218 0.74319 0.99732 0.0
H810 H 0.24363 0.80543 0.03496 0.0
C811 C 0.27719 0.6734 1.00153 0.0
H812 H 0.23843 0.84367 1.00689 0.0
C813 C 0.28013 0.65097 0.01764 0.0
C814 C 0.26816 0.69776 0.02998 0.0
H815 H 0.28671 0.63552 0.99234 0.0
H816 H 0.29191 0.59728 0.02041 0.0
C817 C 0.25315 0.76755 0.02577 0.0
C818 C 0.52627 0.76794 0.75133 0.0
C819 C 0.51147 0.69787 0.74719 0.0
H820 H 0.54086 0.84448 0.77013 0.0
C821 C 0.49972 0.65103 0.75958 0.0
H822 H 0.5356 0.80587 0.7421 0.0
C823 C 0.5027 0.67366 0.77567 0.0
C824 C 0.51751 0.74372 0.77981 0.0
H825 H 0.48811 0.59712 0.75687 0.0
H826 H 0.49337 0.63573 0.7849 0.0
C827 C 0.52924 0.79057 0.76742 0.0
C828 C 0.25273 0.92256 0.75143 0.0
C829 C 0.26762 -0.00736 0.74735 0.0
H830 H 0.23802 0.84573 0.77017 0.0
C831 C 0.27935 0.03921 0.75977 0.0
H832 H 0.24339 0.88485 0.74217 0.0
C833 C 0.27631 0.01629 0.77584 0.0
C834 C 0.26142 0.94621 0.77992 0.0
H835 H 0.29102 0.09312 0.7571 0.0
H836 H 0.28565 0.054 0.7851 0.0
C837 C 0.24969 0.89964 0.7675 0.0
C838 C 0.52986 0.40154 0.50953 0.0
C839 C 0.51809 0.44839 0.49715 0.0
H840 H 0.53621 0.38615 0.53485 0.0
C841 C 0.5032 0.51836 0.50129 0.0
H842 H 0.54154 0.3477 0.5068 0.0
C843 C 0.50018 0.5409 0.51739 0.0
C844 C 0.51196 0.49405 0.52977 0.0
H845 H 0.49383 0.5563 0.49207 0.0
H846 H 0.48851 0.59474 0.52011 0.0
C847 C 0.52684 0.42407 0.52562 0.0
C848 C 0.77992 0.65169 0.51748 0.0
C849 C 0.76809 0.6983 0.52987 0.0
H850 H 0.78631 0.6367 0.49216 0.0
C851 C 0.75315 0.76828 0.52575 0.0
H852 H 0.79163 0.59785 0.52018 0.0
C853 C 0.75014 0.79105 0.50967 0.0
C854 C 0.76196 0.74443 0.49727 0.0
H855 H 0.74374 0.80604 0.53499 0.0
H856 H 0.73842 0.84488 0.50696 0.0
C857 C 0.7769 0.67445 0.50139 0.0
C858 C 0.74987 0.40191 0.76752 0.0
C859 C 0.7618 0.44856 0.77989 0.0
H860 H 0.74335 0.38675 0.74221 0.0
C861 C 0.77678 0.51843 0.77573 0.0
H862 H 0.73811 0.34816 0.77025 0.0
C863 C 0.77975 0.54106 0.75963 0.0
C864 C 0.76782 0.4944 0.74726 0.0
H865 H 0.78627 0.55621 0.78494 0.0
H866 H 0.79151 0.59481 0.7569 0.0
C867 C 0.75283 0.42453 0.75142 0.0
C868 C 0.25001 0.29134 0.50983 0.0
C869 C 0.26187 0.24471 0.49744 0.0
H870 H 0.24354 0.30634 0.53514 0.0
C871 C 0.2768 0.17474 0.50157 0.0
H872 H 0.23829 0.34516 0.50711 0.0
C873 C 0.27977 0.15198 0.51766 0.0
C874 C 0.26791 0.19861 0.53005 0.0
H875 H 0.28624 0.13699 0.49234 0.0
H876 H 0.29148 0.09816 0.52037 0.0
C877 C 0.25298 0.26858 0.52591 0.0
C878 C 0.25027 0.40226 0.26767 0.0
C879 C 0.2621 0.44897 0.28005 0.0
H880 H 0.24385 0.38709 0.24235 0.0
C881 C 0.27704 0.5189 0.2759 0.0
H882 H 0.23855 0.34845 0.27039 0.0
C883 C 0.28004 0.54155 0.25981 0.0
C884 C 0.2682 0.49485 0.24743 0.0
H885 H 0.28646 0.55673 0.28512 0.0
H886 H 0.29175 0.59536 0.25709 0.0
C887 C 0.25327 0.4249 0.25158 0.0
C888 C 0.0298 0.90207 0.50986 0.0
C889 C 0.01799 0.94882 0.49747 0.0
H890 H 0.03618 0.8868 0.53518 0.0
C891 C 1.00305 0.01876 0.5016 0.0
H892 H 0.04151 0.84826 0.50715 0.0
C893 C 1.00003 0.04135 0.5177 0.0
C894 C 1.01184 -0.00541 0.53009 0.0
H895 H 0.99365 0.05662 0.49238 0.0
H896 H 0.98832 0.09516 0.52041 0.0
C897 C 0.02678 0.92466 0.52595 0.0
C898 C 0.02672 0.26695 0.75169 0.0
C899 C 1.01172 0.19712 0.74753 0.0
H900 H 0.0415 0.34319 0.77052 0.0
C901 C 0.99985 0.15035 0.75991 0.0
H902 H 0.03617 0.3048 0.74247 0.0
C903 C 1.00287 0.17285 0.776 0.0
C904 C 0.01786 0.2427 0.78016 0.0
H905 H 0.98809 0.09662 0.75718 0.0
H906 H 0.99342 0.135 0.78522 0.0
C907 C 0.02975 0.28945 0.76779 0.0
C908 C 1.00021 0.65245 0.25982 0.0
C909 C 1.01198 0.69927 0.24744 0.0
H910 H 0.99386 0.63711 0.28514 0.0
C911 C 0.02687 0.76925 0.25158 0.0
H912 H 0.98854 0.59861 0.2571 0.0
C913 C 0.02989 0.79182 0.26767 0.0
C914 C 0.01812 0.74499 0.28006 0.0
H915 H 0.03624 0.80716 0.24235 0.0
H916 H 0.04156 0.84566 0.27039 0.0
C917 C 1.00323 0.67502 0.27591 0.0
C918 C 0.02983 0.40093 1.00995 0.0
C919 C 0.01813 0.44753 0.99751 0.0
H920 H 0.03612 0.38613 0.03529 0.0
C921 C 1.00329 0.51767 1.00157 0.0
H922 H 0.04146 0.34698 1.0073 0.0
C923 C 1.00026 0.54061 0.01764 0.0
C924 C 1.01198 0.49402 0.03008 0.0
H925 H 0.99398 0.55541 0.99231 0.0
H926 H 0.98863 0.59457 0.0203 0.0
C927 C 0.0268 0.42388 0.02602 0.0
C928 C 0.61027 0.13933 0.08694 0.0
C929 C 0.60787 0.05992 0.08658 0.0
H930 H 0.64301 0.2365 0.08682 0.0
C931 C 0.63807 0.01755 0.08699 0.0
H932 H 0.58744 0.17394 0.08682 0.0
C933 C 0.6699 0.05375 0.08694 0.0
C934 C 0.67231 0.13317 0.0866 0.0
H935 H 0.63716 0.95659 0.08677 0.0
H936 H 0.69274 0.01915 0.08681 0.0
C937 C 0.6421 0.17553 0.08702 0.0
C938 C 0.63791 0.17598 0.19004 0.0
C939 C 0.60774 0.1335 0.19043 0.0
H940 H 0.69258 0.17457 0.19027 0.0
C941 C 0.61021 0.0541 0.19008 0.0
H942 H 0.63696 0.23694 0.19024 0.0
C943 C 0.64207 0.01801 0.19005 0.0
C944 C 0.67224 0.06048 0.19049 0.0
H945 H 0.5874 0.01942 0.19019 0.0
H946 H 0.64302 0.95705 0.19026 0.0
C947 C 0.66978 0.13989 0.19013 0.0
C948 C 0.3922 0.9245 0.94015 0.0
C949 C 0.42246 0.88232 0.94055 0.0
H950 H 0.33754 0.92254 0.94036 0.0
C951 C 0.42017 0.80289 0.94022 0.0
H952 H 0.39303 -0.01454 0.94034 0.0
C953 C 0.38838 0.76648 0.94018 0.0
C954 C 0.35812 0.80865 0.9406 0.0
H955 H 0.44304 0.76843 0.94034 0.0
H956 H 0.38756 0.70551 0.9404 0.0
C957 C 0.36042 0.88809 0.94023 0.0
C958 C 0.39167 0.76527 0.83701 0.0
C959 C 0.42177 0.80799 0.83664 0.0
H960 H 0.337 0.76626 0.83679 0.0
C961 C 0.41918 0.88737 0.83706 0.0
H962 H 0.39273 0.70432 0.83675 0.0
C963 C 0.38726 0.9232 0.83713 0.0
C964 C 0.35716 0.8805 0.83667 0.0
H965 H 0.44193 0.92222 0.83697 0.0
H966 H 0.38621 -0.01584 0.83698 0.0
C967 C 0.35975 0.80111 0.83696 0.0
C968 C 0.66981 0.55289 0.58689 0.0
C969 C 0.67224 0.63231 0.58657 0.0
H970 H 0.63702 0.4558 0.5867 0.0
C971 C 0.64206 0.67474 0.58699 0.0
H972 H 0.69262 0.51824 0.58675 0.0
C973 C 0.61021 0.63861 0.58692 0.0
C974 C 0.60777 0.5592 0.58654 0.0
H975 H 0.64299 0.7357 0.58681 0.0
H976 H 0.58739 0.67327 0.5868 0.0
C977 C 0.63795 0.51676 0.58693 0.0
C978 C 0.60995 0.55329 0.69015 0.0
C979 C 0.6075 0.6327 0.69051 0.0
H980 H 0.64274 0.45621 0.69029 0.0
C981 C 0.63768 0.67514 0.69013 0.0
H982 H 0.58713 0.51864 0.69026 0.0
C983 C 0.66954 0.63901 0.69019 0.0
C984 C 0.67198 0.5596 0.69053 0.0
H985 H 0.63674 0.7361 0.69034 0.0
H986 H 0.69235 0.67367 0.69034 0.0
C987 C 0.6418 0.51717 0.6901 0.0
C988 C 0.39196 0.42608 0.4402 0.0
C989 C 0.42215 0.38363 0.44051 0.0
H990 H 0.3373 0.42461 0.44054 0.0
C991 C 0.4197 0.30422 0.44012 0.0
H992 H 0.3929 0.48703 0.44045 0.0
C993 C 0.38785 0.2681 0.44012 0.0
C994 C 0.35767 0.31053 0.44064 0.0
H995 H 0.44252 0.26957 0.44016 0.0
H996 H 0.38692 0.20714 0.44029 0.0
C997 C 0.36011 0.38995 0.44033 0.0
C998 C 0.39228 0.2682 0.3371 0.0
C999 C 0.42245 0.31062 0.33658 0.0
H1000 H 0.33761 0.2697 0.33706 0.0
C1001 C 0.42002 0.39004 0.33688 0.0
H1002 H 0.39321 0.20724 0.33694 0.0
C1003 C 0.38817 0.42618 0.33701 0.0
C1004 C 0.35798 0.38375 0.33671 0.0
H1005 H 0.44283 0.42468 0.33667 0.0
H1006 H 0.38723 0.48714 0.33676 0.0
C1007 C 0.36043 0.30434 0.33711 0.0
C1008 C 0.11006 0.13933 0.58715 0.0
C1009 C 0.10764 0.05992 0.58682 0.0
H1010 H 0.14282 0.23646 0.58698 0.0
C1011 C 0.13783 0.01752 0.58724 0.0
H1012 H 0.08723 0.17396 0.58702 0.0
C1013 C 0.16967 0.05368 0.58717 0.0
C1014 C 0.17209 0.13309 0.5868 0.0
H1015 H 0.13691 0.95655 0.58704 0.0
H1016 H 0.1925 0.01905 0.58705 0.0
C1017 C 0.1419 0.1755 0.5872 0.0
C1018 C 0.16943 0.13853 0.69033 0.0
C1019 C 0.17186 0.05911 0.69064 0.0
H1020 H 0.13665 0.23563 0.69054 0.0
C1021 C 0.14168 0.0167 0.69022 0.0
H1022 H 0.19225 0.17317 0.69046 0.0
C1023 C 0.10983 0.05284 0.69032 0.0
C1024 C 0.10739 0.13225 0.69071 0.0
H1025 H 0.14261 0.95574 0.6904 0.0
H1026 H 0.08701 0.0182 0.69044 0.0
C1027 C 0.13758 0.17468 0.6903 0.0
C1028 C 0.91982 0.80393 0.44033 0.0
C1029 C 0.92223 0.88334 0.44067 0.0
H1030 H 0.88705 0.70681 0.44046 0.0
C1031 C 0.89205 0.92575 0.4402 0.0
H1032 H 0.94264 0.7693 0.44051 0.0
C1033 C 0.8602 0.88958 0.44022 0.0
C1034 C 0.85778 0.81017 0.44058 0.0
H1035 H 0.89296 -0.01329 0.44039 0.0
H1036 H 0.83738 0.92421 0.4403 0.0
C1037 C 0.88797 0.76777 0.44023 0.0
C1038 C 0.89209 0.7675 0.33707 0.0
C1039 C 0.92228 0.80993 0.33676 0.0
H1040 H 0.83743 0.76902 0.33677 0.0
C1041 C 0.91984 0.88933 0.33717 0.0
H1042 H 0.89303 0.70655 0.33681 0.0
C1043 C 0.888 0.92548 0.33719 0.0
C1044 C 0.85782 0.88308 0.33669 0.0
H1045 H 0.94267 0.92397 0.33712 0.0
H1046 H 0.88707 -0.01355 0.33704 0.0
C1047 C 0.86025 0.80366 0.33697 0.0
C1048 C 0.14211 0.67582 0.0871 0.0
C1049 C 0.17229 0.63335 0.08675 0.0
H1050 H 0.08744 0.6744 0.0869 0.0
C1051 C 0.16983 0.55395 0.08716 0.0
H1052 H 0.14306 0.73678 0.08684 0.0
C1053 C 0.13798 0.51785 0.08724 0.0
C1054 C 0.1078 0.56031 0.08678 0.0
H1055 H 0.19265 0.51928 0.08708 0.0
H1056 H 0.13703 0.45689 0.08709 0.0
C1057 C 0.11025 0.63972 0.08706 0.0
C1058 C 0.13804 0.67641 0.19034 0.0
C1059 C 0.10784 0.63403 0.19072 0.0
H1060 H 0.1927 0.67483 0.19056 0.0
C1061 C 0.11025 0.55462 0.19034 0.0
H1062 H 0.13712 0.73737 0.19057 0.0
C1063 C 0.14209 0.51843 0.19029 0.0
C1064 C 0.17228 0.5608 0.19073 0.0
H1065 H 0.08742 0.52001 0.19044 0.0
H1066 H 0.143 0.45747 0.19047 0.0
C1067 C 0.16987 0.64022 0.19041 0.0
C1068 C 0.8605 0.3891 0.94026 0.0
C1069 C 0.85794 0.3097 0.94059 0.0
H1070 H 0.89344 0.48593 0.94045 0.0
C1071 C 0.88805 0.26704 0.94019 0.0
H1072 H 0.83773 0.42392 0.94038 0.0
C1073 C 0.91996 0.30292 0.94028 0.0
C1074 C 0.92252 0.38231 0.94066 0.0
H1075 H 0.88703 0.20609 0.94038 0.0
H1076 H 0.94272 0.26809 0.94042 0.0
C1077 C 0.89241 0.42498 0.94023 0.0
C1078 C 0.89165 0.2668 0.8372 0.0
C1079 C 0.92192 0.30893 0.83678 0.0
H1080 H 0.83699 0.26879 0.83698 0.0
C1081 C 0.91963 0.38838 0.83707 0.0
H1082 H 0.89246 0.20583 0.83704 0.0
C1083 C 0.88785 0.42482 0.83708 0.0
C1084 C 0.85758 0.38266 0.83669 0.0
H1085 H 0.94251 0.42281 0.83693 0.0
H1086 H 0.88703 0.48578 0.83683 0.0
C1087 C 0.85987 0.30323 0.8371 0.0
loop_
_geom_bond_atom_site_label_1
_geom_bond_atom_site_label_2
_geom_bond_distance
_geom_bond_site_symmetry_2
_ccdc_geom_bond_type
C0 O2 1.247 . S
C0 O4 1.258 . S
C1 O8 1.247 . S
C1 O9 1.258 1_565 S
O2 C0 1.247 . S
O2 Zn3 2.028 . S
Zn3 O2 2.028 . S
Zn3 O7 2.035 . S
Zn3 O9 2.035 . S
Zn3 O10 2.028 . S
O4 C0 1.258 . S
O4 Zn5 2.035 1_545 S
Zn5 O4 2.035 1_565 S
Zn5 O6 2.028 . S
Zn5 O8 2.028 . S
Zn5 O11 2.035 . S
O6 Zn5 2.028 . S
O6 C12 1.247 . S
O7 Zn3 2.035 . S
O7 C12 1.258 1_545 S
O8 C1 1.247 . S
O8 Zn5 2.028 . S
O9 C1 1.258 1_545 S
O9 Zn3 2.035 . S
O10 Zn3 2.028 . S
O10 C13 1.247 . S
O11 Zn5 2.035 . S
O11 C13 1.258 1_565 S
C12 O6 1.247 . S
C12 O7 1.258 1_565 S
C13 O10 1.247 . S
C13 O11 1.258 1_545 S
C14 O16 1.247 . S
C14 O18 1.258 . S
C15 O22 1.247 . S
C15 O23 1.258 . S
O16 C14 1.247 . S
O16 Zn17 2.028 . S
Zn17 O16 2.028 . S
Zn17 O21 2.035 . S
Zn17 O23 2.035 . S
Zn17 O24 2.028 . S
O18 C14 1.258 . S
O18 Zn19 2.035 . S
Zn19 O18 2.035 . S
Zn19 O20 2.028 . S
Zn19 O22 2.028 . S
Zn19 O25 2.035 . S
O20 Zn19 2.028 . S
O20 C26 1.247 . S
O21 Zn17 2.035 . S
O21 C26 1.258 . S
O22 C15 1.247 . S
O22 Zn19 2.028 . S
O23 C15 1.258 . S
O23 Zn17 2.035 . S
O24 Zn17 2.028 . S
O24 C27 1.247 . S
O25 Zn19 2.035 . S
O25 C27 1.258 . S
C26 O20 1.247 . S
C26 O21 1.258 . S
C27 O24 1.247 . S
C27 O25 1.258 . S
C28 O30 1.247 . S
C28 O32 1.258 . S
C29 O36 1.247 . S
C29 O37 1.258 . S
O30 C28 1.247 . S
O30 Zn31 2.028 . S
Zn31 O30 2.028 . S
Zn31 O35 2.035 . S
Zn31 O37 2.035 . S
Zn31 O38 2.028 . S
O32 C28 1.258 . S
O32 Zn33 2.035 . S
Zn33 O32 2.035 . S
Zn33 O34 2.028 . S
Zn33 O36 2.028 . S
Zn33 O39 2.035 . S
O34 Zn33 2.028 . S
O34 C40 1.247 . S
O35 Zn31 2.035 . S
O35 C40 1.258 . S
O36 C29 1.247 . S
O36 Zn33 2.028 . S
O37 C29 1.258 . S
O37 Zn31 2.035 . S
O38 Zn31 2.028 . S
O38 C41 1.247 . S
O39 Zn33 2.035 . S
O39 C41 1.258 . S
C40 O34 1.247 . S
C40 O35 1.258 . S
C41 O38 1.247 . S
C41 O39 1.258 . S
C42 O44 1.247 . S
C42 O46 1.258 . S
C43 O50 1.247 . S
C43 O51 1.258 1_565 S
O44 C42 1.247 . S
O44 Zn45 2.028 . S
Zn45 O44 2.028 . S
Zn45 O49 2.035 . S
Zn45 O51 2.035 . S
Zn45 O52 2.028 . S
O46 C42 1.258 . S
O46 Zn47 2.035 1_545 S
Zn47 O46 2.035 1_565 S
Zn47 O48 2.028 . S
Zn47 O50 2.028 . S
Zn47 O53 2.035 . S
O48 Zn47 2.028 . S
O48 C54 1.247 . S
O49 Zn45 2.035 . S
O49 C54 1.258 1_545 S
O50 C43 1.247 . S
O50 Zn47 2.028 . S
O51 C43 1.258 1_545 S
O51 Zn45 2.035 . S
O52 Zn45 2.028 . S
O52 C55 1.247 . S
O53 Zn47 2.035 . S
O53 C55 1.258 1_565 S
C54 O48 1.247 . S
C54 O49 1.258 1_565 S
C55 O52 1.247 . S
C55 O53 1.258 1_545 S
C56 O58 1.247 1_545 S
C56 O60 1.258 . S
C57 O64 1.247 1_565 S
C57 O65 1.258 . S
O58 C56 1.247 1_565 S
O58 Zn59 2.028 . S
Zn59 O58 2.028 . S
Zn59 O63 2.035 . S
Zn59 O65 2.035 . S
Zn59 O66 2.028 . S
O60 C56 1.258 . S
O60 Zn61 2.035 . S
Zn61 O60 2.035 . S
Zn61 O62 2.028 1_545 S
Zn61 O64 2.028 . S
Zn61 O67 2.035 . S
O62 Zn61 2.028 1_565 S
O62 C68 1.247 . S
O63 Zn59 2.035 . S
O63 C68 1.258 . S
O64 C57 1.247 1_545 S
O64 Zn61 2.028 . S
O65 C57 1.258 . S
O65 Zn59 2.035 . S
O66 Zn59 2.028 . S
O66 C69 1.247 1_565 S
O67 Zn61 2.035 . S
O67 C69 1.258 . S
C68 O62 1.247 . S
C68 O63 1.258 . S
C69 O66 1.247 1_545 S
C69 O67 1.258 . S
C70 O72 1.247 . S
C70 O74 1.258 . S
C71 O78 1.247 . S
C71 O79 1.258 . S
O72 C70 1.247 . S
O72 Zn73 2.028 . S
Zn73 O72 2.028 . S
Zn73 O77 2.035 . S
Zn73 O79 2.035 . S
Zn73 O80 2.028 . S
O74 C70 1.258 . S
O74 Zn75 2.035 . S
Zn75 O74 2.035 . S
Zn75 O76 2.028 . S
Zn75 O78 2.028 . S
Zn75 O81 2.035 . S
O76 Zn75 2.028 . S
O76 C82 1.247 . S
O77 Zn73 2.035 . S
O77 C82 1.258 . S
O78 C71 1.247 . S
O78 Zn75 2.028 . S
O79 C71 1.258 . S
O79 Zn73 2.035 . S
O80 Zn73 2.028 . S
O80 C83 1.247 . S
O81 Zn75 2.035 . S
O81 C83 1.258 . S
C82 O76 1.247 . S
C82 O77 1.258 . S
C83 O80 1.247 . S
C83 O81 1.258 . S
C84 O86 1.247 . S
C84 O88 1.258 . S
C85 O92 1.247 . S
C85 O93 1.258 . S
O86 C84 1.247 . S
O86 Zn87 2.028 . S
Zn87 O86 2.028 . S
Zn87 O91 2.035 . S
Zn87 O93 2.035 . S
Zn87 O94 2.028 . S
O88 C84 1.258 . S
O88 Zn89 2.035 . S
Zn89 O88 2.035 . S
Zn89 O90 2.028 . S
Zn89 O92 2.028 . S
Zn89 O95 2.035 . S
O90 Zn89 2.028 . S
O90 C96 1.247 . S
O91 Zn87 2.035 . S
O91 C96 1.258 . S
O92 C85 1.247 . S
O92 Zn89 2.028 . S
O93 C85 1.258 . S
O93 Zn87 2.035 . S
O94 Zn87 2.028 . S
O94 C97 1.247 . S
O95 Zn89 2.035 . S
O95 C97 1.258 . S
C96 O90 1.247 . S
C96 O91 1.258 . S
C97 O94 1.247 . S
C97 O95 1.258 . S
C98 O100 1.247 . S
C98 O102 1.258 1_565 S
C99 O106 1.247 . S
C99 O107 1.258 1_545 S
O100 C98 1.247 . S
O100 Zn101 2.028 . S
Zn101 O100 2.028 . S
Zn101 O105 2.035 . S
Zn101 O107 2.035 . S
Zn101 O108 2.028 . S
O102 C98 1.258 1_545 S
O102 Zn103 2.035 . S
Zn103 O102 2.035 . S
Zn103 O104 2.028 . S
Zn103 O106 2.028 . S
Zn103 O109 2.035 1_545 S
O104 Zn103 2.028 . S
O104 C110 1.247 . S
O105 Zn101 2.035 . S
O105 C110 1.258 1_565 S
O106 C99 1.247 . S
O106 Zn103 2.028 . S
O107 C99 1.258 1_565 S
O107 Zn101 2.035 . S
O108 Zn101 2.028 . S
O108 C111 1.247 . S
O109 Zn103 2.035 1_565 S
O109 C111 1.258 . S
C110 O104 1.247 . S
C110 O105 1.258 1_545 S
C111 O108 1.247 . S
C111 O109 1.258 . S
C112 O114 1.247 . S
C112 O116 1.258 . S
C113 O120 1.247 . S
C113 O121 1.258 . S
O114 C112 1.247 . S
O114 Zn115 2.028 . S
Zn115 O114 2.028 . S
Zn115 O119 2.035 . S
Zn115 O121 2.035 . S
Zn115 O122 2.028 . S
O116 C112 1.258 . S
O116 Zn117 2.035 . S
Zn117 O116 2.035 . S
Zn117 O118 2.028 . S
Zn117 O120 2.028 . S
Zn117 O123 2.035 . S
O118 Zn117 2.028 . S
O118 C124 1.247 . S
O119 Zn115 2.035 . S
O119 C124 1.258 . S
O120 C113 1.247 . S
O120 Zn117 2.028 . S
O121 C113 1.258 . S
O121 Zn115 2.035 . S
O122 Zn115 2.028 . S
O122 C125 1.247 . S
O123 Zn117 2.035 . S
O123 C125 1.258 . S
C124 O118 1.247 . S
C124 O119 1.258 . S
C125 O122 1.247 . S
C125 O123 1.258 . S
C126 O128 1.247 . S
C126 O130 1.258 . S
C127 O134 1.247 . S
C127 O135 1.258 . S
O128 C126 1.247 . S
O128 Zn129 2.028 . S
Zn129 O128 2.028 . S
Zn129 O133 2.035 . S
Zn129 O135 2.035 . S
Zn129 O136 2.028 . S
O130 C126 1.258 . S
O130 Zn131 2.035 . S
Zn131 O130 2.035 . S
Zn131 O132 2.028 . S
Zn131 O134 2.028 . S
Zn131 O137 2.035 . S
O132 Zn131 2.028 . S
O132 C138 1.247 . S
O133 Zn129 2.035 . S
O133 C138 1.258 . S
O134 C127 1.247 . S
O134 Zn131 2.028 . S
O135 C127 1.258 . S
O135 Zn129 2.035 . S
O136 Zn129 2.028 . S
O136 C139 1.247 . S
O137 Zn131 2.035 . S
O137 C139 1.258 . S
C138 O132 1.247 . S
C138 O133 1.258 . S
C139 O136 1.247 . S
C139 O137 1.258 . S
C140 O142 1.247 . S
C140 O144 1.258 . S
C141 O148 1.247 . S
C141 O149 1.258 . S
O142 C140 1.247 . S
O142 Zn143 2.028 . S
Zn143 O142 2.028 . S
Zn143 O147 2.035 . S
Zn143 O149 2.035 . S
Zn143 O150 2.028 . S
O144 C140 1.258 . S
O144 Zn145 2.035 . S
Zn145 O144 2.035 . S
Zn145 O146 2.028 . S
Zn145 O148 2.028 . S
Zn145 O151 2.035 . S
O146 Zn145 2.028 . S
O146 C152 1.247 . S
O147 Zn143 2.035 . S
O147 C152 1.258 . S
O148 C141 1.247 . S
O148 Zn145 2.028 . S
O149 C141 1.258 . S
O149 Zn143 2.035 . S
O150 Zn143 2.028 . S
O150 C153 1.247 . S
O151 Zn145 2.035 . S
O151 C153 1.258 . S
C152 O146 1.247 . S
C152 O147 1.258 . S
C153 O150 1.247 . S
C153 O151 1.258 . S
C154 O156 1.247 . S
C154 O158 1.258 . S
C155 O162 1.247 . S
C155 O163 1.258 . S
O156 C154 1.247 . S
O156 Zn157 2.028 . S
Zn157 O156 2.028 . S
Zn157 O161 2.035 . S
Zn157 O163 2.035 . S
Zn157 O164 2.028 . S
O158 C154 1.258 . S
O158 Zn159 2.035 . S
Zn159 O158 2.035 . S
Zn159 O160 2.028 . S
Zn159 O162 2.028 . S
Zn159 O165 2.035 . S
O160 Zn159 2.028 . S
O160 C166 1.247 . S
O161 Zn157 2.035 . S
O161 C166 1.258 . S
O162 C155 1.247 . S
O162 Zn159 2.028 . S
O163 C155 1.258 . S
O163 Zn157 2.035 . S
O164 Zn157 2.028 . S
O164 C167 1.247 . S
O165 Zn159 2.035 . S
O165 C167 1.258 . S
C166 O160 1.247 . S
C166 O161 1.258 . S
C167 O164 1.247 . S
C167 O165 1.258 . S
C168 O170 1.247 . S
C168 O172 1.258 . S
C169 O176 1.247 . S
C169 O177 1.258 . S
O170 C168 1.247 . S
O170 Zn171 2.028 . S
Zn171 O170 2.028 . S
Zn171 O175 2.035 . S
Zn171 O177 2.035 . S
Zn171 O178 2.028 . S
O172 C168 1.258 . S
O172 Zn173 2.035 . S
Zn173 O172 2.035 . S
Zn173 O174 2.028 . S
Zn173 O176 2.028 . S
Zn173 O179 2.035 . S
O174 Zn173 2.028 . S
O174 C180 1.247 . S
O175 Zn171 2.035 . S
O175 C180 1.258 . S
O176 C169 1.247 . S
O176 Zn173 2.028 . S
O177 C169 1.258 . S
O177 Zn171 2.035 . S
O178 Zn171 2.028 . S
O178 C181 1.247 . S
O179 Zn173 2.035 . S
O179 C181 1.258 . S
C180 O174 1.247 . S
C180 O175 1.258 . S
C181 O178 1.247 . S
C181 O179 1.258 . S
C182 O184 1.247 . S
C182 O186 1.258 . S
C183 O190 1.247 . S
C183 O191 1.258 . S
O184 C182 1.247 . S
O184 Zn185 2.028 . S
Zn185 O184 2.028 . S
Zn185 O189 2.035 . S
Zn185 O191 2.035 . S
Zn185 O192 2.028 . S
O186 C182 1.258 . S
O186 Zn187 2.035 . S
Zn187 O186 2.035 . S
Zn187 O188 2.028 . S
Zn187 O190 2.028 . S
Zn187 O193 2.035 . S
O188 Zn187 2.028 . S
O188 C194 1.247 . S
O189 Zn185 2.035 . S
O189 C194 1.258 . S
O190 C183 1.247 . S
O190 Zn187 2.028 . S
O191 C183 1.258 . S
O191 Zn185 2.035 . S
O192 Zn185 2.028 . S
O192 C195 1.247 . S
O193 Zn187 2.035 . S
O193 C195 1.258 . S
C194 O188 1.247 . S
C194 O189 1.258 . S
C195 O192 1.247 . S
C195 O193 1.258 . S
C196 O198 1.247 . S
C196 O200 1.258 . S
C197 O204 1.247 . S
C197 O205 1.258 . S
O198 C196 1.247 . S
O198 Zn199 2.028 . S
Zn199 O198 2.028 . S
Zn199 O203 2.035 . S
Zn199 O205 2.035 . S
Zn199 O206 2.028 . S
O200 C196 1.258 . S
O200 Zn201 2.035 . S
Zn201 O200 2.035 . S
Zn201 O202 2.028 . S
Zn201 O204 2.028 . S
Zn201 O207 2.035 . S
O202 Zn201 2.028 . S
O202 C208 1.247 . S
O203 Zn199 2.035 . S
O203 C208 1.258 . S
O204 C197 1.247 . S
O204 Zn201 2.028 . S
O205 C197 1.258 . S
O205 Zn199 2.035 . S
O206 Zn199 2.028 . S
O206 C209 1.247 . S
O207 Zn201 2.035 . S
O207 C209 1.258 . S
C208 O202 1.247 . S
C208 O203 1.258 . S
C209 O206 1.247 . S
C209 O207 1.258 . S
C210 O212 1.247 . S
C210 O214 1.258 . S
C211 O218 1.247 . S
C211 O219 1.258 . S
O212 C210 1.247 . S
O212 Zn213 2.028 . S
Zn213 O212 2.028 . S
Zn213 O217 2.035 . S
Zn213 O219 2.035 . S
Zn213 O220 2.028 . S
O214 C210 1.258 . S
O214 Zn215 2.035 . S
Zn215 O214 2.035 . S
Zn215 O216 2.028 . S
Zn215 O218 2.028 . S
Zn215 O221 2.035 . S
O216 Zn215 2.028 . S
O216 C222 1.247 . S
O217 Zn213 2.035 . S
O217 C222 1.258 . S
O218 C211 1.247 . S
O218 Zn215 2.028 . S
O219 C211 1.258 . S
O219 Zn213 2.035 . S
O220 Zn213 2.028 . S
O220 C223 1.247 . S
O221 Zn215 2.035 . S
O221 C223 1.258 . S
C222 O216 1.247 . S
C222 O217 1.258 . S
C223 O220 1.247 . S
C223 O221 1.258 . S
C224 O226 1.247 1_545 S
C224 O228 1.258 1_455 S
C225 O232 1.249 1_565 S
C225 O233 1.255 1_655 S
O226 C224 1.247 1_565 S
O226 Zn227 2.028 . S
Zn227 O226 2.028 . S
Zn227 O231 2.035 1_455 S
Zn227 O233 2.035 . S
Zn227 O234 2.028 1_565 S
O228 C224 1.258 1_655 S
O228 Zn229 2.035 . S
Zn229 O228 2.035 . S
Zn229 O230 2.028 . S
Zn229 O232 2.028 . S
Zn229 O235 2.035 1_655 S
O230 Zn229 2.028 . S
O230 C236 1.247 1_545 S
O231 Zn227 2.035 1_655 S
O231 C236 1.258 . S
O232 C225 1.249 1_545 S
O232 Zn229 2.028 . S
O233 C225 1.255 1_455 S
O233 Zn227 2.035 . S
O234 Zn227 2.028 1_545 S
O234 C237 1.247 . S
O235 Zn229 2.035 1_455 S
O235 C237 1.258 . S
C236 O230 1.247 1_565 S
C236 O231 1.258 . S
C237 O234 1.247 . S
C237 O235 1.258 . S
C238 O240 1.247 . S
C238 O242 1.258 . S
C239 O246 1.247 . S
C239 O247 1.258 . S
O240 C238 1.247 . S
O240 Zn241 2.028 . S
Zn241 O240 2.028 . S
Zn241 O245 2.035 . S
Zn241 O247 2.035 . S
Zn241 O248 2.028 . S
O242 C238 1.258 . S
O242 Zn243 2.035 . S
Zn243 O242 2.035 . S
Zn243 O244 2.028 . S
Zn243 O246 2.028 . S
Zn243 O249 2.035 . S
O244 Zn243 2.028 . S
O244 C250 1.247 . S
O245 Zn241 2.035 . S
O245 C250 1.258 . S
O246 C239 1.247 . S
O246 Zn243 2.028 . S
O247 C239 1.258 . S
O247 Zn241 2.035 . S
O248 Zn241 2.028 . S
O248 C251 1.247 . S
O249 Zn243 2.035 . S
O249 C251 1.258 . S
C250 O244 1.247 . S
C250 O245 1.258 . S
C251 O248 1.247 . S
C251 O249 1.258 . S
C252 O254 1.247 . S
C252 O256 1.258 . S
C253 O260 1.247 . S
C253 O261 1.258 . S
O254 C252 1.247 . S
O254 Zn255 2.028 1_455 S
Zn255 O254 2.028 1_655 S
Zn255 O259 2.035 . S
Zn255 O261 2.035 . S
Zn255 O262 2.028 . S
O256 C252 1.258 . S
O256 Zn257 2.035 . S
Zn257 O256 2.035 . S
Zn257 O258 2.028 . S
Zn257 O260 2.028 1_455 S
Zn257 O263 2.035 . S
O258 Zn257 2.028 . S
O258 C264 1.245 1_455 S
O259 Zn255 2.035 . S
O259 C264 1.259 . S
O260 C253 1.247 . S
O260 Zn257 2.028 1_655 S
O261 C253 1.258 . S
O261 Zn255 2.035 . S
O262 Zn255 2.028 . S
O262 C265 1.248 1_655 S
O263 Zn257 2.035 . S
O263 C265 1.257 . S
C264 O258 1.245 1_655 S
C264 O259 1.259 . S
C265 O262 1.248 1_455 S
C265 O263 1.257 . S
C266 O268 1.247 . S
C266 O270 1.248 1_545 S
C267 O274 1.247 . S
C267 O275 1.258 1_565 S
O268 C266 1.247 . S
O268 Zn269 2.028 . S
Zn269 O268 2.028 . S
Zn269 O273 2.035 . S
Zn269 O275 2.035 . S
Zn269 O276 2.028 . S
O270 C266 1.248 1_565 S
O270 Zn271 2.041 . S
Zn271 O270 2.041 . S
Zn271 O272 2.028 . S
Zn271 O274 2.028 . S
Zn271 O277 2.035 . S
O272 Zn271 2.028 . S
O272 C278 1.247 . S
O273 Zn269 2.035 . S
O273 C278 1.258 1_545 S
O274 C267 1.247 . S
O274 Zn271 2.028 . S
O275 C267 1.258 1_545 S
O275 Zn269 2.035 . S
O276 Zn269 2.028 . S
O276 C279 1.247 . S
O277 Zn271 2.035 . S
O277 C279 1.258 1_565 S
C278 O272 1.247 . S
C278 O273 1.258 1_565 S
C279 O276 1.247 . S
C279 O277 1.258 1_545 S
C280 O282 1.248 1_655 S
C280 O284 1.257 1_565 S
C281 O288 1.245 1_455 S
C281 O289 1.259 1_545 S
O282 C280 1.248 1_455 S
O282 Zn283 2.028 . S
Zn283 O282 2.028 . S
Zn283 O287 2.035 . S
Zn283 O289 2.035 . S
Zn283 O290 2.028 1_455 S
O284 C280 1.257 1_545 S
O284 Zn285 2.035 . S
Zn285 O284 2.035 . S
Zn285 O286 2.028 1_655 S
Zn285 O288 2.028 . S
Zn285 O291 2.035 1_545 S
O286 Zn285 2.028 1_455 S
O286 C292 1.247 . S
O287 Zn283 2.035 . S
O287 C292 1.258 1_565 S
O288 C281 1.245 1_655 S
O288 Zn285 2.028 . S
O289 C281 1.259 1_565 S
O289 Zn283 2.035 . S
O290 Zn283 2.028 1_655 S
O290 C293 1.247 . S
O291 Zn285 2.035 1_565 S
O291 C293 1.258 . S
C292 O286 1.247 . S
C292 O287 1.258 1_545 S
C293 O290 1.247 . S
C293 O291 1.258 . S
C294 O296 1.247 . S
C294 O298 1.258 . S
C295 O302 1.247 . S
C295 O303 1.258 . S
O296 C294 1.247 . S
O296 Zn297 2.028 . S
Zn297 O296 2.028 . S
Zn297 O301 2.035 . S
Zn297 O303 2.035 . S
Zn297 O304 2.028 . S
O298 C294 1.258 . S
O298 Zn299 2.035 . S
Zn299 O298 2.035 . S
Zn299 O300 2.028 . S
Zn299 O302 2.028 . S
Zn299 O305 2.035 . S
O300 Zn299 2.028 . S
O300 C306 1.247 . S
O301 Zn297 2.035 . S
O301 C306 1.258 . S
O302 C295 1.247 . S
O302 Zn299 2.028 . S
O303 C295 1.258 . S
O303 Zn297 2.035 . S
O304 Zn297 2.028 . S
O304 C307 1.247 . S
O305 Zn299 2.035 . S
O305 C307 1.258 . S
C306 O300 1.247 . S
C306 O301 1.258 . S
C307 O304 1.247 . S
C307 O305 1.258 . S
C308 O310 1.247 . S
C308 O312 1.258 . S
C309 O316 1.247 . S
C309 O317 1.258 . S
O310 C308 1.247 . S
O310 Zn311 2.028 . S
Zn311 O310 2.028 . S
Zn311 O315 2.035 . S
Zn311 O317 2.035 1_655 S
Zn311 O318 2.028 . S
O312 C308 1.258 . S
O312 Zn313 2.035 1_655 S
Zn313 O312 2.035 1_455 S
Zn313 O314 2.028 . S
Zn313 O316 2.028 . S
Zn313 O319 2.035 . S
O314 Zn313 2.028 . S
O314 C320 1.249 . S
O315 Zn311 2.035 . S
O315 C320 1.255 1_655 S
O316 C309 1.247 . S
O316 Zn313 2.028 . S
O317 C309 1.258 . S
O317 Zn311 2.035 1_455 S
O318 Zn311 2.028 . S
O318 C321 1.247 . S
O319 Zn313 2.035 . S
O319 C321 1.258 1_455 S
C320 O314 1.249 . S
C320 O315 1.255 1_455 S
C321 O318 1.247 . S
C321 O319 1.258 1_655 S
C322 O324 1.247 . S
C322 O326 1.258 1_545 S
C323 O330 1.247 . S
C323 O331 1.248 1_565 S
O324 C322 1.247 . S
O324 Zn325 2.028 . S
Zn325 O324 2.028 . S
Zn325 O329 2.035 . S
Zn325 O331 2.040 . S
Zn325 O332 2.028 . S
O326 C322 1.258 1_565 S
O326 Zn327 2.035 . S
Zn327 O326 2.035 . S
Zn327 O328 2.028 . S
Zn327 O330 2.028 . S
Zn327 O333 2.035 . S
O328 Zn327 2.028 . S
O328 C334 1.247 . S
O329 Zn325 2.035 . S
O329 C334 1.258 1_545 S
O330 C323 1.247 . S
O330 Zn327 2.028 . S
O331 C323 1.248 1_545 S
O331 Zn325 2.040 . S
O332 Zn325 2.028 . S
O332 C335 1.247 . S
O333 Zn327 2.035 . S
O333 C335 1.258 1_565 S
C334 O328 1.247 . S
C334 O329 1.258 1_565 S
C335 O332 1.247 . S
C335 O333 1.258 1_545 S
C336 O338 1.247 . S
C336 O340 1.258 . S
C337 O344 1.247 . S
C337 O345 1.258 . S
O338 C336 1.247 . S
O338 Zn339 2.028 . S
Zn339 O338 2.028 . S
Zn339 O343 2.035 . S
Zn339 O345 2.035 1_655 S
Zn339 O346 2.028 . S
O340 C336 1.258 . S
O340 Zn341 2.035 1_655 S
Zn341 O340 2.035 1_455 S
Zn341 O342 2.028 . S
Zn341 O344 2.028 . S
Zn341 O347 2.035 . S
O342 Zn341 2.028 . S
O342 C348 1.247 . S
O343 Zn339 2.035 . S
O343 C348 1.258 1_655 S
O344 C337 1.247 . S
O344 Zn341 2.028 . S
O345 C337 1.258 . S
O345 Zn339 2.035 1_455 S
O346 Zn339 2.028 . S
O346 C349 1.249 . S
O347 Zn341 2.035 . S
O347 C349 1.255 1_455 S
C348 O342 1.247 . S
C348 O343 1.258 1_455 S
C349 O346 1.249 . S
C349 O347 1.255 1_655 S
C350 O352 1.247 . S
C350 O354 1.258 . S
C351 O358 1.247 . S
C351 O359 1.258 . S
O352 C350 1.247 . S
O352 Zn353 2.028 . S
Zn353 O352 2.028 . S
Zn353 O357 2.035 . S
Zn353 O359 2.035 . S
Zn353 O360 2.028 . S
O354 C350 1.258 . S
O354 Zn355 2.035 . S
Zn355 O354 2.035 . S
Zn355 O356 2.028 . S
Zn355 O358 2.028 . S
Zn355 O361 2.035 . S
O356 Zn355 2.028 . S
O356 C362 1.247 . S
O357 Zn353 2.035 . S
O357 C362 1.258 . S
O358 C351 1.247 . S
O358 Zn355 2.028 . S
O359 C351 1.258 . S
O359 Zn353 2.035 . S
O360 Zn353 2.028 . S
O360 C363 1.247 . S
O361 Zn355 2.035 . S
O361 C363 1.258 . S
C362 O356 1.247 . S
C362 O357 1.258 . S
C363 O360 1.247 . S
C363 O361 1.258 . S
C364 O366 1.247 . S
C364 O368 1.258 . S
C365 O372 1.247 . S
C365 O373 1.258 . S
O366 C364 1.247 . S
O366 Zn367 2.028 1_455 S
Zn367 O366 2.028 1_655 S
Zn367 O371 2.035 . S
Zn367 O373 2.035 . S
Zn367 O374 2.028 . S
O368 C364 1.258 . S
O368 Zn369 2.035 . S
Zn369 O368 2.035 . S
Zn369 O370 2.028 . S
Zn369 O372 2.028 1_455 S
Zn369 O375 2.035 . S
O370 Zn369 2.028 . S
O370 C376 1.245 1_455 S
O371 Zn367 2.035 . S
O371 C376 1.259 . S
O372 C365 1.247 . S
O372 Zn369 2.028 1_655 S
O373 C365 1.258 . S
O373 Zn367 2.035 . S
O374 Zn367 2.028 . S
O374 C377 1.245 . S
O375 Zn369 2.035 . S
O375 C377 1.259 1_455 S
C376 O370 1.245 1_655 S
C376 O371 1.259 . S
C377 O374 1.245 . S
C377 O375 1.259 1_655 S
C378 O380 1.247 . S
C378 O382 1.258 . S
C379 O386 1.247 . S
C379 O387 1.258 . S
O380 C378 1.247 . S
O380 Zn381 2.028 . S
Zn381 O380 2.028 . S
Zn381 O385 2.035 . S
Zn381 O387 2.035 . S
Zn381 O388 2.028 . S
O382 C378 1.258 . S
O382 Zn383 2.035 . S
Zn383 O382 2.035 . S
Zn383 O384 2.028 . S
Zn383 O386 2.028 . S
Zn383 O389 2.035 . S
O384 Zn383 2.028 . S
O384 C390 1.247 . S
O385 Zn381 2.035 . S
O385 C390 1.258 . S
O386 C379 1.247 . S
O386 Zn383 2.028 . S
O387 C379 1.258 . S
O387 Zn381 2.035 . S
O388 Zn381 2.028 . S
O388 C391 1.247 . S
O389 Zn383 2.035 . S
O389 C391 1.258 . S
C390 O384 1.247 . S
C390 O385 1.258 . S
C391 O388 1.247 . S
C391 O389 1.258 . S
C392 O394 1.248 1_655 S
C392 O396 1.257 . S
C393 O400 1.245 1_455 S
C393 O401 1.259 . S
O394 C392 1.248 1_455 S
O394 Zn395 2.028 . S
Zn395 O394 2.028 . S
Zn395 O399 2.035 . S
Zn395 O401 2.035 . S
Zn395 O402 2.028 1_455 S
O396 C392 1.257 . S
O396 Zn397 2.035 . S
Zn397 O396 2.035 . S
Zn397 O398 2.028 1_655 S
Zn397 O400 2.028 . S
Zn397 O403 2.035 . S
O398 Zn397 2.028 1_455 S
O398 C404 1.247 . S
O399 Zn395 2.035 . S
O399 C404 1.258 . S
O400 C393 1.245 1_655 S
O400 Zn397 2.028 . S
O401 C393 1.259 . S
O401 Zn395 2.035 . S
O402 Zn395 2.028 1_655 S
O402 C405 1.247 . S
O403 Zn397 2.035 . S
O403 C405 1.258 . S
C404 O398 1.247 . S
C404 O399 1.258 . S
C405 O402 1.247 . S
C405 O403 1.258 . S
C406 O408 1.247 . S
C406 O410 1.258 . S
C407 O414 1.247 . S
C407 O415 1.258 . S
O408 C406 1.247 . S
O408 Zn409 2.028 . S
Zn409 O408 2.028 . S
Zn409 O413 2.035 . S
Zn409 O415 2.035 . S
Zn409 O416 2.028 . S
O410 C406 1.258 . S
O410 Zn411 2.035 . S
Zn411 O410 2.035 . S
Zn411 O412 2.028 . S
Zn411 O414 2.028 . S
Zn411 O417 2.035 . S
O412 Zn411 2.028 . S
O412 C418 1.247 . S
O413 Zn409 2.035 . S
O413 C418 1.258 . S
O414 C407 1.247 . S
O414 Zn411 2.028 . S
O415 C407 1.258 . S
O415 Zn409 2.035 . S
O416 Zn409 2.028 . S
O416 C419 1.247 . S
O417 Zn411 2.035 . S
O417 C419 1.258 . S
C418 O412 1.247 . S
C418 O413 1.258 . S
C419 O416 1.247 . S
C419 O417 1.258 . S
C420 O422 1.247 . S
C420 O424 1.258 . S
C421 O428 1.247 . S
C421 O429 1.258 . S
O422 C420 1.247 . S
O422 Zn423 2.028 1_455 S
Zn423 O422 2.028 1_655 S
Zn423 O427 2.035 . S
Zn423 O429 2.035 . S
Zn423 O430 2.028 . S
O424 C420 1.258 . S
O424 Zn425 2.035 . S
Zn425 O424 2.035 . S
Zn425 O426 2.028 . S
Zn425 O428 2.028 1_455 S
Zn425 O431 2.035 . S
O426 Zn425 2.028 . S
O426 C432 1.248 1_455 S
O427 Zn423 2.035 . S
O427 C432 1.257 . S
O428 C421 1.247 . S
O428 Zn425 2.028 1_655 S
O429 C421 1.258 . S
O429 Zn423 2.035 . S
O430 Zn423 2.028 . S
O430 C433 1.245 1_655 S
O431 Zn425 2.035 . S
O431 C433 1.259 . S
C432 O426 1.248 1_655 S
C432 O427 1.257 . S
C433 O430 1.245 1_455 S
C433 O431 1.259 . S
C434 O436 1.247 . S
C434 O438 1.258 . S
C435 O442 1.247 . S
C435 O443 1.258 . S
O436 C434 1.247 . S
O436 Zn437 2.028 . S
Zn437 O436 2.028 . S
Zn437 O441 2.035 . S
Zn437 O443 2.035 . S
Zn437 O444 2.028 . S
O438 C434 1.258 . S
O438 Zn439 2.035 . S
Zn439 O438 2.035 . S
Zn439 O440 2.028 . S
Zn439 O442 2.028 . S
Zn439 O445 2.035 . S
O440 Zn439 2.028 . S
O440 C446 1.247 . S
O441 Zn437 2.035 . S
O441 C446 1.258 . S
O442 C435 1.247 . S
O442 Zn439 2.028 . S
O443 C435 1.258 . S
O443 Zn437 2.035 . S
O444 Zn437 2.028 . S
O444 C447 1.247 . S
O445 Zn439 2.035 . S
O445 C447 1.258 . S
C446 O440 1.247 . S
C446 O441 1.258 . S
C447 O444 1.247 . S
C447 O445 1.258 . S
C448 C449 1.387 . S
C448 H452 0.950 . S
C448 C457 1.390 . S
C449 C448 1.387 . S
C449 C451 1.387 . S
H450 C457 0.950 . S
C451 C449 1.387 . S
C451 C453 1.390 . S
C451 H455 0.950 . S
H452 C448 0.950 . S
C453 C451 1.390 . S
C453 C454 1.387 . S
C453 H456 0.950 . S
C454 C453 1.387 . S
C454 C457 1.387 . S
H455 C451 0.950 . S
H456 C453 0.950 . S
C457 C448 1.390 . S
C457 H450 0.950 . S
C457 C454 1.387 . S
C458 C459 1.387 . S
C458 H462 0.950 . S
C458 C467 1.390 . S
C459 C458 1.387 . S
C459 C461 1.387 . S
H460 C467 0.950 . S
C461 C459 1.387 . S
C461 C463 1.390 . S
C461 H465 0.950 . S
H462 C458 0.950 . S
C463 C461 1.390 . S
C463 C464 1.387 . S
C463 H466 0.950 . S
C464 C463 1.387 . S
C464 C467 1.387 . S
H465 C461 0.950 . S
H466 C463 0.950 . S
C467 C458 1.390 . S
C467 H460 0.950 . S
C467 C464 1.387 . S
C468 C469 1.387 . S
C468 H472 0.950 . S
C468 C477 1.390 . S
C469 C468 1.387 . S
C469 C471 1.387 . S
H470 C477 0.950 . S
C471 C469 1.387 . S
C471 C473 1.390 . S
C471 H475 0.950 . S
H472 C468 0.950 . S
C473 C471 1.390 . S
C473 C474 1.387 . S
C473 H476 0.950 . S
C474 C473 1.387 . S
C474 C477 1.387 . S
H475 C471 0.950 . S
H476 C473 0.950 . S
C477 C468 1.390 . S
C477 H470 0.950 . S
C477 C474 1.387 . S
C478 C479 1.387 . S
C478 H482 0.950 . S
C478 C487 1.390 . S
C479 C478 1.387 . S
C479 C481 1.387 . S
H480 C487 0.950 . S
C481 C479 1.387 . S
C481 C483 1.390 . S
C481 H485 0.950 . S
H482 C478 0.950 . S
C483 C481 1.390 . S
C483 C484 1.387 . S
C483 H486 0.950 . S
C484 C483 1.387 . S
C484 C487 1.387 . S
H485 C481 0.950 . S
H486 C483 0.950 . S
C487 C478 1.390 . S
C487 H480 0.950 . S
C487 C484 1.387 . S
C488 C489 1.387 . S
C488 H492 0.950 . S
C488 C497 1.390 . S
C489 C488 1.387 . S
C489 C491 1.387 . S
H490 C497 0.950 . S
C491 C489 1.387 . S
C491 C493 1.390 . S
C491 H495 0.950 . S
H492 C488 0.950 . S
C493 C491 1.390 . S
C493 C494 1.387 . S
C493 H496 0.950 . S
C494 C493 1.387 . S
C494 C497 1.387 . S
H495 C491 0.950 . S
H496 C493 0.950 . S
C497 C488 1.390 . S
C497 H490 0.950 . S
C497 C494 1.387 . S
C498 C499 1.387 . S
C498 H502 0.950 . S
C498 C507 1.390 . S
C499 C498 1.387 . S
C499 C501 1.387 . S
H500 C507 0.950 . S
C501 C499 1.387 . S
C501 C503 1.390 . S
C501 H505 0.950 . S
H502 C498 0.950 . S
C503 C501 1.390 . S
C503 C504 1.387 . S
C503 H506 0.950 . S
C504 C503 1.387 . S
C504 C507 1.387 . S
H505 C501 0.950 . S
H506 C503 0.950 . S
C507 C498 1.390 . S
C507 H500 0.950 . S
C507 C504 1.387 . S
C508 C509 1.387 . S
C508 H512 0.950 . S
C508 C517 1.390 . S
C509 C508 1.387 . S
C509 C511 1.387 . S
H510 C517 0.950 . S
C511 C509 1.387 . S
C511 C513 1.390 . S
C511 H515 0.950 . S
H512 C508 0.950 . S
C513 C511 1.390 . S
C513 C514 1.387 . S
C513 H516 0.950 . S
C514 C513 1.387 . S
C514 C517 1.387 . S
H515 C511 0.950 . S
H516 C513 0.950 . S
C517 C508 1.390 . S
C517 H510 0.950 . S
C517 C514 1.387 . S
C518 C519 1.387 . S
C518 H522 0.950 . S
C518 C527 1.390 . S
C519 C518 1.387 . S
C519 C521 1.387 . S
H520 C527 0.950 . S
C521 C519 1.387 . S
C521 C523 1.390 . S
C521 H525 0.950 . S
H522 C518 0.950 . S
C523 C521 1.390 . S
C523 C524 1.387 . S
C523 H526 0.950 . S
C524 C523 1.387 . S
C524 C527 1.387 . S
H525 C521 0.950 . S
H526 C523 0.950 . S
C527 C518 1.390 . S
C527 H520 0.950 . S
C527 C524 1.387 . S
C528 C529 1.387 1_655 S
C528 H532 0.950 . S
C528 C537 1.390 . S
C529 C528 1.387 1_455 S
C529 C531 1.387 . S
H530 C537 0.950 . S
C531 C529 1.387 . S
C531 C533 1.390 . S
C531 H535 0.950 . S
H532 C528 0.950 . S
C533 C531 1.390 . S
C533 C534 1.387 . S
C533 H536 0.950 . S
C534 C533 1.387 . S
C534 C537 1.387 1_455 S
H535 C531 0.950 . S
H536 C533 0.950 . S
C537 C528 1.390 . S
C537 H530 0.950 . S
C537 C534 1.387 1_655 S
C538 C539 1.387 . S
C538 H542 0.950 . S
C538 C547 1.390 . S
C539 C538 1.387 . S
C539 C541 1.387 . S
H540 C547 0.950 . S
C541 C539 1.387 . S
C541 C543 1.390 . S
C541 H545 0.950 . S
H542 C538 0.950 . S
C543 C541 1.390 . S
C543 C544 1.387 . S
C543 H546 0.950 . S
C544 C543 1.387 . S
C544 C547 1.387 . S
H545 C541 0.950 . S
H546 C543 0.950 . S
C547 C538 1.390 . S
C547 H540 0.950 . S
C547 C544 1.387 . S
C548 C549 1.387 1_455 S
C548 H552 0.950 . S
C548 C557 1.390 . S
C549 C548 1.387 1_655 S
C549 C551 1.387 . S
H550 C557 0.950 . S
C551 C549 1.387 . S
C551 C553 1.390 . S
C551 H555 0.950 . S
H552 C548 0.950 . S
C553 C551 1.390 . S
C553 C554 1.387 . S
C553 H556 0.950 . S
C554 C553 1.387 . S
C554 C557 1.387 1_655 S
H555 C551 0.950 . S
H556 C553 0.950 . S
C557 C548 1.390 . S
C557 H550 0.950 . S
C557 C554 1.387 1_455 S
C558 C559 1.387 . S
C558 H562 0.950 . S
C558 C567 1.390 . S
C559 C558 1.387 . S
C559 C561 1.387 . S
H560 C567 0.950 . S
C561 C559 1.387 . S
C561 C563 1.390 . S
C561 H565 0.950 . S
H562 C558 0.950 . S
C563 C561 1.390 . S
C563 C564 1.387 . S
C563 H566 0.950 . S
C564 C563 1.387 . S
C564 C567 1.387 . S
H565 C561 0.950 . S
H566 C563 0.950 . S
C567 C558 1.390 . S
C567 H560 0.950 . S
C567 C564 1.387 . S
C568 C569 1.387 1_655 S
C568 H572 0.950 . S
C568 C577 1.390 . S
C569 C568 1.387 1_455 S
C569 C571 1.387 . S
H570 C577 0.950 . S
C571 C569 1.387 . S
C571 C573 1.390 . S
C571 H575 0.950 . S
H572 C568 0.950 . S
C573 C571 1.390 . S
C573 C574 1.387 . S
C573 H576 0.950 . S
C574 C573 1.387 . S
C574 C577 1.387 1_455 S
H575 C571 0.950 . S
H576 C573 0.950 . S
C577 C568 1.390 . S
C577 H570 0.950 . S
C577 C574 1.387 1_655 S
C578 C579 1.387 . S
C578 H582 0.950 . S
C578 C587 1.390 . S
C579 C578 1.387 . S
C579 C581 1.387 . S
H580 C587 0.950 . S
C581 C579 1.387 . S
C581 C583 1.390 . S
C581 H585 0.950 . S
H582 C578 0.950 . S
C583 C581 1.390 . S
C583 C584 1.387 . S
C583 H586 0.950 . S
C584 C583 1.387 . S
C584 C587 1.387 . S
H585 C581 0.950 . S
H586 C583 0.950 . S
C587 C578 1.390 . S
C587 H580 0.950 . S
C587 C584 1.387 . S
C588 C589 1.387 1_455 S
C588 H592 0.950 . S
C588 C597 1.390 . S
C589 C588 1.387 1_655 S
C589 C591 1.387 . S
H590 C597 0.950 . S
C591 C589 1.387 . S
C591 C593 1.390 . S
C591 H595 0.950 . S
H592 C588 0.950 . S
C593 C591 1.390 . S
C593 C594 1.387 . S
C593 H596 0.950 . S
C594 C593 1.387 . S
C594 C597 1.387 1_655 S
H595 C591 0.950 . S
H596 C593 0.950 . S
C597 C588 1.390 . S
C597 H590 0.950 . S
C597 C594 1.387 1_455 S
C598 C599 1.387 . S
C598 H602 0.950 . S
C598 C607 1.390 . S
C599 C598 1.387 . S
C599 C601 1.387 . S
H600 C607 0.950 . S
C601 C599 1.387 . S
C601 C603 1.390 . S
C601 H605 0.950 . S
H602 C598 0.950 . S
C603 C601 1.390 . S
C603 C604 1.387 . S
C603 H606 0.950 . S
C604 C603 1.387 . S
C604 C607 1.387 . S
H605 C601 0.950 . S
H606 C603 0.950 . S
C607 C598 1.390 . S
C607 H600 0.950 . S
C607 C604 1.387 . S
C608 C609 1.387 . S
C608 H612 0.950 . S
C608 C617 1.390 . S
C609 C608 1.387 . S
C609 C611 1.387 . S
H610 C617 0.950 . S
C611 C609 1.387 . S
C611 C613 1.390 . S
C611 H615 0.950 . S
H612 C608 0.950 . S
C613 C611 1.390 . S
C613 C614 1.387 . S
C613 H616 0.950 . S
C614 C613 1.387 . S
C614 C617 1.387 . S
H615 C611 0.950 . S
H616 C613 0.950 . S
C617 C608 1.390 . S
C617 H610 0.950 . S
C617 C614 1.387 . S
C618 C619 1.387 . S
C618 H622 0.950 . S
C618 C627 1.390 . S
C619 C618 1.387 . S
C619 C621 1.387 . S
H620 C627 0.950 . S
C621 C619 1.387 . S
C621 C623 1.390 . S
C621 H625 0.950 . S
H622 C618 0.950 . S
C623 C621 1.390 . S
C623 C624 1.387 . S
C623 H626 0.950 . S
C624 C623 1.387 . S
C624 C627 1.387 . S
H625 C621 0.950 . S
H626 C623 0.950 . S
C627 C618 1.390 . S
C627 H620 0.950 . S
C627 C624 1.387 . S
C628 C629 1.387 . S
C628 H632 0.950 . S
C628 C637 1.390 . S
C629 C628 1.387 . S
C629 C631 1.387 . S
H630 C637 0.950 . S
C631 C629 1.387 . S
C631 C633 1.390 . S
C631 H635 0.950 . S
H632 C628 0.950 . S
C633 C631 1.390 . S
C633 C634 1.387 . S
C633 H636 0.950 . S
C634 C633 1.387 . S
C634 C637 1.387 . S
H635 C631 0.950 . S
H636 C633 0.950 . S
C637 C628 1.390 . S
C637 H630 0.950 . S
C637 C634 1.387 . S
C638 C639 1.387 . S
C638 H642 0.950 . S
C638 C647 1.390 . S
C639 C638 1.387 . S
C639 C641 1.387 . S
H640 C647 0.950 . S
C641 C639 1.387 . S
C641 C643 1.390 . S
C641 H645 0.950 . S
H642 C638 0.950 . S
C643 C641 1.390 . S
C643 C644 1.387 . S
C643 H646 0.950 . S
C644 C643 1.387 . S
C644 C647 1.387 . S
H645 C641 0.950 . S
H646 C643 0.950 . S
C647 C638 1.390 . S
C647 H640 0.950 . S
C647 C644 1.387 . S
C648 C649 1.387 . S
C648 H652 0.950 . S
C648 C657 1.390 . S
C649 C648 1.387 . S
C649 C651 1.387 . S
H650 C657 0.950 . S
C651 C649 1.387 . S
C651 C653 1.390 . S
C651 H655 0.950 . S
H652 C648 0.950 . S
C653 C651 1.390 . S
C653 C654 1.387 . S
C653 H656 0.950 . S
C654 C653 1.387 . S
C654 C657 1.387 . S
H655 C651 0.950 . S
H656 C653 0.950 . S
C657 C648 1.390 . S
C657 H650 0.950 . S
C657 C654 1.387 . S
C658 C659 1.387 . S
C658 H662 0.950 . S
C658 C667 1.390 . S
C659 C658 1.387 . S
C659 C661 1.387 . S
H660 C667 0.950 . S
C661 C659 1.387 . S
C661 C663 1.390 . S
C661 H665 0.950 . S
H662 C658 0.950 . S
C663 C661 1.390 . S
C663 C664 1.387 . S
C663 H666 0.950 . S
C664 C663 1.387 . S
C664 C667 1.387 . S
H665 C661 0.950 . S
H666 C663 0.950 . S
C667 C658 1.390 . S
C667 H660 0.950 . S
C667 C664 1.387 . S
C668 C669 1.387 . S
C668 H672 0.950 . S
C668 C677 1.390 . S
C669 C668 1.387 . S
C669 C671 1.387 . S
H670 C677 0.950 . S
C671 C669 1.387 . S
C671 C673 1.390 . S
C671 H675 0.950 . S
H672 C668 0.950 . S
C673 C671 1.390 . S
C673 C674 1.387 . S
C673 H676 0.950 . S
C674 C673 1.387 . S
C674 C677 1.387 . S
H675 C671 0.950 . S
H676 C673 0.950 . S
C677 C668 1.390 . S
C677 H670 0.950 . S
C677 C674 1.387 . S
C678 C679 1.387 . S
C678 H682 0.950 . S
C678 C687 1.390 . S
C679 C678 1.387 . S
C679 C681 1.387 . S
H680 C687 0.950 . S
C681 C679 1.387 . S
C681 C683 1.390 . S
C681 H685 0.950 . S
H682 C678 0.950 . S
C683 C681 1.390 . S
C683 C684 1.387 . S
C683 H686 0.950 . S
C684 C683 1.387 . S
C684 C687 1.387 . S
H685 C681 0.950 . S
H686 C683 0.950 . S
C687 C678 1.390 . S
C687 H680 0.950 . S
C687 C684 1.387 . S
C688 C689 1.387 . S
C688 H692 0.950 . S
C688 C697 1.390 . S
C689 C688 1.387 . S
C689 C691 1.387 . S
H690 C697 0.950 . S
C691 C689 1.387 . S
C691 C693 1.390 . S
C691 H695 0.950 . S
H692 C688 0.950 . S
C693 C691 1.390 . S
C693 C694 1.387 . S
C693 H696 0.950 . S
C694 C693 1.387 . S
C694 C697 1.387 . S
H695 C691 0.950 . S
H696 C693 0.950 . S
C697 C688 1.390 . S
C697 H690 0.950 . S
C697 C694 1.387 . S
C698 C699 1.387 . S
C698 H702 0.950 . S
C698 C707 1.390 . S
C699 C698 1.387 . S
C699 C701 1.387 . S
H700 C707 0.950 . S
C701 C699 1.387 . S
C701 C703 1.390 . S
C701 H705 0.950 . S
H702 C698 0.950 . S
C703 C701 1.390 . S
C703 C704 1.387 . S
C703 H706 0.950 . S
C704 C703 1.387 . S
C704 C707 1.387 . S
H705 C701 0.950 . S
H706 C703 0.950 . S
C707 C698 1.390 . S
C707 H700 0.950 . S
C707 C704 1.387 . S
C708 C709 1.387 . S
C708 H712 0.950 . S
C708 C717 1.390 . S
C709 C708 1.387 . S
C709 C711 1.387 . S
H710 C717 0.950 . S
C711 C709 1.387 . S
C711 C713 1.390 . S
C711 H715 0.950 . S
H712 C708 0.950 . S
C713 C711 1.390 . S
C713 C714 1.387 . S
C713 H716 0.950 . S
C714 C713 1.387 . S
C714 C717 1.387 . S
H715 C711 0.950 . S
H716 C713 0.950 . S
C717 C708 1.390 . S
C717 H710 0.950 . S
C717 C714 1.387 . S
C718 C719 1.387 . S
C718 H722 0.950 . S
C718 C727 1.390 . S
C719 C718 1.387 . S
C719 C721 1.387 . S
H720 C727 0.950 . S
C721 C719 1.387 . S
C721 C723 1.390 . S
C721 H725 0.950 . S
H722 C718 0.950 . S
C723 C721 1.390 . S
C723 C724 1.387 . S
C723 H726 0.950 . S
C724 C723 1.387 . S
C724 C727 1.387 . S
H725 C721 0.950 . S
H726 C723 0.950 . S
C727 C718 1.390 . S
C727 H720 0.950 . S
C727 C724 1.387 . S
C728 C729 1.387 . S
C728 H732 0.950 . S
C728 C737 1.390 . S
C729 C728 1.387 . S
C729 C731 1.387 . S
H730 C737 0.950 . S
C731 C729 1.387 . S
C731 C733 1.390 . S
C731 H735 0.950 . S
H732 C728 0.950 . S
C733 C731 1.390 . S
C733 C734 1.387 . S
C733 H736 0.950 . S
C734 C733 1.387 . S
C734 C737 1.387 . S
H735 C731 0.950 . S
H736 C733 0.950 . S
C737 C728 1.390 . S
C737 H730 0.950 . S
C737 C734 1.387 . S
C738 C739 1.387 . S
C738 H742 0.950 . S
C738 C747 1.390 . S
C739 C738 1.387 . S
C739 C741 1.387 . S
H740 C747 0.950 . S
C741 C739 1.387 . S
C741 C743 1.390 . S
C741 H745 0.950 . S
H742 C738 0.950 . S
C743 C741 1.390 . S
C743 C744 1.387 . S
C743 H746 0.950 . S
C744 C743 1.387 . S
C744 C747 1.387 . S
H745 C741 0.950 . S
H746 C743 0.950 . S
C747 C738 1.390 . S
C747 H740 0.950 . S
C747 C744 1.387 . S
C748 C749 1.387 . S
C748 H752 0.950 . S
C748 C757 1.390 . S
C749 C748 1.387 . S
C749 C751 1.387 . S
H750 C757 0.950 . S
C751 C749 1.387 . S
C751 C753 1.390 . S
C751 H755 0.950 . S
H752 C748 0.950 . S
C753 C751 1.390 . S
C753 C754 1.387 . S
C753 H756 0.950 . S
C754 C753 1.387 . S
C754 C757 1.387 . S
H755 C751 0.950 . S
H756 C753 0.950 . S
C757 C748 1.390 . S
C757 H750 0.950 . S
C757 C754 1.387 . S
C758 C759 1.387 . S
C758 H762 0.950 . S
C758 C767 1.390 . S
C759 C758 1.387 . S
C759 C761 1.387 . S
H760 C767 0.950 . S
C761 C759 1.387 . S
C761 C763 1.390 . S
C761 H765 0.950 . S
H762 C758 0.950 . S
C763 C761 1.390 . S
C763 C764 1.387 . S
C763 H766 0.950 . S
C764 C763 1.387 . S
C764 C767 1.387 . S
H765 C761 0.950 . S
H766 C763 0.950 . S
C767 C758 1.390 . S
C767 H760 0.950 . S
C767 C764 1.387 . S
C768 C769 1.387 . S
C768 H772 0.950 . S
C768 C777 1.390 1_554 S
C769 C768 1.387 . S
C769 C771 1.387 1_565 S
H770 C777 0.950 . S
C771 C769 1.387 1_545 S
C771 C773 1.390 1_554 S
C771 H775 0.950 . S
H772 C768 0.950 . S
C773 C771 1.390 1_556 S
C773 C774 1.387 . S
C773 H776 0.950 . S
C774 C773 1.387 . S
C774 C777 1.387 1_545 S
H775 C771 0.950 . S
H776 C773 0.950 . S
C777 C768 1.390 1_556 S
C777 H770 0.950 . S
C777 C774 1.387 1_565 S
C778 C779 1.387 . S
C778 H782 0.950 . S
C778 C787 1.390 1_554 S
C779 C778 1.387 . S
C779 C781 1.387 . S
H780 C787 0.950 . S
C781 C779 1.387 . S
C781 C783 1.390 1_554 S
C781 H785 0.950 . S
H782 C778 0.950 . S
C783 C781 1.390 1_556 S
C783 C784 1.387 . S
C783 H786 0.950 . S
C784 C783 1.387 . S
C784 C787 1.387 . S
H785 C781 0.950 . S
H786 C783 0.950 . S
C787 C778 1.390 1_556 S
C787 H780 0.950 . S
C787 C784 1.387 . S
C788 C789 1.387 . S
C788 H792 0.950 . S
C788 C797 1.390 . S
C789 C788 1.387 . S
C789 C791 1.387 . S
H790 C797 0.950 . S
C791 C789 1.387 . S
C791 C793 1.390 . S
C791 H795 0.950 . S
H792 C788 0.950 . S
C793 C791 1.390 . S
C793 C794 1.387 . S
C793 H796 0.950 . S
C794 C793 1.387 . S
C794 C797 1.387 . S
H795 C791 0.950 . S
H796 C793 0.950 . S
C797 C788 1.390 . S
C797 H790 0.950 . S
C797 C794 1.387 . S
C798 C799 1.387 1_545 S
C798 H802 0.950 . S
C798 C807 1.390 . S
C799 C798 1.387 1_565 S
C799 C801 1.387 . S
H800 C807 0.950 . S
C801 C799 1.387 . S
C801 C803 1.390 . S
C801 H805 0.950 . S
H802 C798 0.950 . S
C803 C801 1.390 . S
C803 C804 1.388 1_565 S
C803 H806 0.950 . S
C804 C803 1.388 1_545 S
C804 C807 1.387 . S
H805 C801 0.950 . S
H806 C803 0.950 . S
C807 C798 1.390 . S
C807 H800 0.950 . S
C807 C804 1.387 . S
C808 C809 1.387 . S
C808 H812 0.950 . S
C808 C817 1.390 1_556 S
C809 C808 1.387 . S
C809 C811 1.387 . S
H810 C817 0.950 . S
C811 C809 1.387 . S
C811 C813 1.390 1_556 S
C811 H815 0.950 . S
H812 C808 0.950 . S
C813 C811 1.390 1_554 S
C813 C814 1.387 . S
C813 H816 0.950 . S
C814 C813 1.387 . S
C814 C817 1.387 . S
H815 C811 0.950 . S
H816 C813 0.950 . S
C817 C808 1.390 1_554 S
C817 H810 0.950 . S
C817 C814 1.387 . S
C818 C819 1.387 . S
C818 H822 0.950 . S
C818 C827 1.390 . S
C819 C818 1.387 . S
C819 C821 1.387 . S
H820 C827 0.950 . S
C821 C819 1.387 . S
C821 C823 1.390 . S
C821 H825 0.950 . S
H822 C818 0.950 . S
C823 C821 1.390 . S
C823 C824 1.387 . S
C823 H826 0.950 . S
C824 C823 1.387 . S
C824 C827 1.387 . S
H825 C821 0.950 . S
H826 C823 0.950 . S
C827 C818 1.390 . S
C827 H820 0.950 . S
C827 C824 1.387 . S
C828 C829 1.387 . S
C828 H832 0.950 . S
C828 C837 1.390 1_565 S
C829 C828 1.387 . S
C829 C831 1.387 . S
H830 C837 0.950 . S
C831 C829 1.387 . S
C831 C833 1.391 . S
C831 H835 0.950 . S
H832 C828 0.950 . S
C833 C831 1.391 . S
C833 C834 1.386 1_565 S
C833 H836 0.950 . S
C834 C833 1.386 1_545 S
C834 C837 1.387 . S
H835 C831 0.950 . S
H836 C833 0.950 . S
C837 C828 1.390 1_545 S
C837 H830 0.950 . S
C837 C834 1.387 . S
C838 C839 1.387 . S
C838 H842 0.950 . S
C838 C847 1.390 . S
C839 C838 1.387 . S
C839 C841 1.387 . S
H840 C847 0.950 . S
C841 C839 1.387 . S
C841 C843 1.390 . S
C841 H845 0.950 . S
H842 C838 0.950 . S
C843 C841 1.390 . S
C843 C844 1.387 . S
C843 H846 0.950 . S
C844 C843 1.387 . S
C844 C847 1.387 . S
H845 C841 0.950 . S
H846 C843 0.950 . S
C847 C838 1.390 . S
C847 H840 0.950 . S
C847 C844 1.387 . S
C848 C849 1.387 . S
C848 H852 0.950 . S
C848 C857 1.390 . S
C849 C848 1.387 . S
C849 C851 1.387 . S
H850 C857 0.950 . S
C851 C849 1.387 . S
C851 C853 1.390 . S
C851 H855 0.950 . S
H852 C848 0.950 . S
C853 C851 1.390 . S
C853 C854 1.387 . S
C853 H856 0.950 . S
C854 C853 1.387 . S
C854 C857 1.387 . S
H855 C851 0.950 . S
H856 C853 0.950 . S
C857 C848 1.390 . S
C857 H850 0.950 . S
C857 C854 1.387 . S
C858 C859 1.387 . S
C858 H862 0.950 . S
C858 C867 1.390 . S
C859 C858 1.387 . S
C859 C861 1.387 . S
H860 C867 0.950 . S
C861 C859 1.387 . S
C861 C863 1.390 . S
C861 H865 0.950 . S
H862 C858 0.950 . S
C863 C861 1.390 . S
C863 C864 1.387 . S
C863 H866 0.950 . S
C864 C863 1.387 . S
C864 C867 1.387 . S
H865 C861 0.950 . S
H866 C863 0.950 . S
C867 C858 1.390 . S
C867 H860 0.950 . S
C867 C864 1.387 . S
C868 C869 1.387 . S
C868 H872 0.950 . S
C868 C877 1.390 . S
C869 C868 1.387 . S
C869 C871 1.387 . S
H870 C877 0.950 . S
C871 C869 1.387 . S
C871 C873 1.390 . S
C871 H875 0.950 . S
H872 C868 0.950 . S
C873 C871 1.390 . S
C873 C874 1.387 . S
C873 H876 0.950 . S
C874 C873 1.387 . S
C874 C877 1.387 . S
H875 C871 0.950 . S
H876 C873 0.950 . S
C877 C868 1.390 . S
C877 H870 0.950 . S
C877 C874 1.387 . S
C878 C879 1.387 . S
C878 H882 0.950 . S
C878 C887 1.390 . S
C879 C878 1.387 . S
C879 C881 1.387 . S
H880 C887 0.950 . S
C881 C879 1.387 . S
C881 C883 1.390 . S
C881 H885 0.950 . S
H882 C878 0.950 . S
C883 C881 1.390 . S
C883 C884 1.387 . S
C883 H886 0.950 . S
C884 C883 1.387 . S
C884 C887 1.387 . S
H885 C881 0.950 . S
H886 C883 0.950 . S
C887 C878 1.390 . S
C887 H880 0.950 . S
C887 C884 1.387 . S
C888 C889 1.387 1_665 S
C888 H892 0.950 . S
C888 C897 1.390 . S
C889 C888 1.387 1_445 S
C889 C891 1.387 . S
H890 C897 0.950 . S
C891 C889 1.387 . S
C891 C893 1.390 . S
C891 H895 0.950 . S
H892 C888 0.950 . S
C893 C891 1.390 . S
C893 C894 1.387 1_445 S
C893 H896 0.950 . S
C894 C893 1.387 1_665 S
C894 C897 1.387 . S
H895 C891 0.950 . S
H896 C893 0.950 . S
C897 C888 1.390 . S
C897 H890 0.950 . S
C897 C894 1.387 . S
C898 C899 1.387 1_455 S
C898 H902 0.950 . S
C898 C907 1.390 . S
C899 C898 1.387 1_655 S
C899 C901 1.387 . S
H900 C907 0.950 . S
C901 C899 1.387 . S
C901 C903 1.390 . S
C901 H905 0.950 . S
H902 C898 0.950 . S
C903 C901 1.390 . S
C903 C904 1.387 1_655 S
C903 H906 0.950 . S
C904 C903 1.387 1_455 S
C904 C907 1.387 . S
H905 C901 0.950 . S
H906 C903 0.950 . S
C907 C898 1.390 . S
C907 H900 0.950 . S
C907 C904 1.387 . S
C908 C909 1.387 . S
C908 H912 0.950 . S
C908 C917 1.390 . S
C909 C908 1.387 . S
C909 C911 1.387 1_655 S
H910 C917 0.950 . S
C911 C909 1.387 1_455 S
C911 C913 1.390 . S
C911 H915 0.950 . S
H912 C908 0.950 . S
C913 C911 1.390 . S
C913 C914 1.387 . S
C913 H916 0.950 . S
C914 C913 1.387 . S
C914 C917 1.387 1_455 S
H915 C911 0.950 . S
H916 C913 0.950 . S
C917 C908 1.390 . S
C917 H910 0.950 . S
C917 C914 1.387 1_655 S
C918 C919 1.387 . S
C918 H922 0.950 . S
C918 C927 1.390 1_556 S
C919 C918 1.387 . S
C919 C921 1.387 1_455 S
H920 C927 0.950 . S
C921 C919 1.387 1_655 S
C921 C923 1.390 1_556 S
C921 H925 0.950 . S
H922 C918 0.950 . S
C923 C921 1.390 1_554 S
C923 C924 1.387 . S
C923 H926 0.950 . S
C924 C923 1.387 . S
C924 C927 1.387 1_655 S
H925 C921 0.950 . S
H926 C923 0.950 . S
C927 C918 1.390 1_554 S
C927 H920 0.950 . S
C927 C924 1.387 1_455 S
C928 C929 1.387 . S
C928 H932 0.950 . S
C928 C937 1.390 . S
C929 C928 1.387 . S
C929 C931 1.387 . S
H930 C937 0.950 . S
C931 C929 1.387 . S
C931 C933 1.390 . S
C931 H935 0.950 . S
H932 C928 0.950 . S
C933 C931 1.390 . S
C933 C934 1.387 . S
C933 H936 0.950 . S
C934 C933 1.387 . S
C934 C937 1.387 . S
H935 C931 0.950 . S
H936 C933 0.950 . S
C937 C928 1.390 . S
C937 H930 0.950 . S
C937 C934 1.387 . S
C938 C939 1.387 . S
C938 H942 0.950 . S
C938 C947 1.390 . S
C939 C938 1.387 . S
C939 C941 1.387 . S
H940 C947 0.950 . S
C941 C939 1.387 . S
C941 C943 1.390 . S
C941 H945 0.950 . S
H942 C938 0.950 . S
C943 C941 1.390 . S
C943 C944 1.387 . S
C943 H946 0.950 . S
C944 C943 1.387 . S
C944 C947 1.387 . S
H945 C941 0.950 . S
H946 C943 0.950 . S
C947 C938 1.390 . S
C947 H940 0.950 . S
C947 C944 1.387 . S
C948 C949 1.387 . S
C948 H952 0.950 . S
C948 C957 1.390 . S
C949 C948 1.387 . S
C949 C951 1.387 . S
H950 C957 0.950 . S
C951 C949 1.387 . S
C951 C953 1.390 . S
C951 H955 0.950 . S
H952 C948 0.950 . S
C953 C951 1.390 . S
C953 C954 1.387 . S
C953 H956 0.950 . S
C954 C953 1.387 . S
C954 C957 1.387 . S
H955 C951 0.950 . S
H956 C953 0.950 . S
C957 C948 1.390 . S
C957 H950 0.950 . S
C957 C954 1.387 . S
C958 C959 1.387 . S
C958 H962 0.950 . S
C958 C967 1.390 . S
C959 C958 1.387 . S
C959 C961 1.387 . S
H960 C967 0.950 . S
C961 C959 1.387 . S
C961 C963 1.390 . S
C961 H965 0.950 . S
H962 C958 0.950 . S
C963 C961 1.390 . S
C963 C964 1.387 . S
C963 H966 0.950 . S
C964 C963 1.387 . S
C964 C967 1.387 . S
H965 C961 0.950 . S
H966 C963 0.950 . S
C967 C958 1.390 . S
C967 H960 0.950 . S
C967 C964 1.387 . S
C968 C969 1.387 . S
C968 H972 0.950 . S
C968 C977 1.390 . S
C969 C968 1.387 . S
C969 C971 1.387 . S
H970 C977 0.950 . S
C971 C969 1.387 . S
C971 C973 1.390 . S
C971 H975 0.950 . S
H972 C968 0.950 . S
C973 C971 1.390 . S
C973 C974 1.387 . S
C973 H976 0.950 . S
C974 C973 1.387 . S
C974 C977 1.387 . S
H975 C971 0.950 . S
H976 C973 0.950 . S
C977 C968 1.390 . S
C977 H970 0.950 . S
C977 C974 1.387 . S
C978 C979 1.387 . S
C978 H982 0.950 . S
C978 C987 1.390 . S
C979 C978 1.387 . S
C979 C981 1.387 . S
H980 C987 0.950 . S
C981 C979 1.387 . S
C981 C983 1.390 . S
C981 H985 0.950 . S
H982 C978 0.950 . S
C983 C981 1.390 . S
C983 C984 1.387 . S
C983 H986 0.950 . S
C984 C983 1.387 . S
C984 C987 1.387 . S
H985 C981 0.950 . S
H986 C983 0.950 . S
C987 C978 1.390 . S
C987 H980 0.950 . S
C987 C984 1.387 . S
C988 C989 1.387 . S
C988 H992 0.950 . S
C988 C997 1.390 . S
C989 C988 1.387 . S
C989 C991 1.387 . S
H990 C997 0.950 . S
C991 C989 1.387 . S
C991 C993 1.390 . S
C991 H995 0.950 . S
H992 C988 0.950 . S
C993 C991 1.390 . S
C993 C994 1.387 . S
C993 H996 0.950 . S
C994 C993 1.387 . S
C994 C997 1.387 . S
H995 C991 0.950 . S
H996 C993 0.950 . S
C997 C988 1.390 . S
C997 H990 0.950 . S
C997 C994 1.387 . S
C998 C999 1.387 . S
C998 H1002 0.950 . S
C998 C1007 1.390 . S
C999 C998 1.387 . S
C999 C1001 1.387 . S
H1000 C1007 0.950 . S
C1001 C999 1.387 . S
C1001 C1003 1.390 . S
C1001 H1005 0.950 . S
H1002 C998 0.950 . S
C1003 C1001 1.390 . S
C1003 C1004 1.387 . S
C1003 H1006 0.950 . S
C1004 C1003 1.387 . S
C1004 C1007 1.387 . S
H1005 C1001 0.950 . S
H1006 C1003 0.950 . S
C1007 C998 1.390 . S
C1007 H1000 0.950 . S
C1007 C1004 1.387 . S
C1008 C1009 1.387 . S
C1008 H1012 0.950 . S
C1008 C1017 1.390 . S
C1009 C1008 1.387 . S
C1009 C1011 1.387 . S
H1010 C1017 0.950 . S
C1011 C1009 1.387 . S
C1011 C1013 1.390 . S
C1011 H1015 0.950 . S
H1012 C1008 0.950 . S
C1013 C1011 1.390 . S
C1013 C1014 1.387 . S
C1013 H1016 0.950 . S
C1014 C1013 1.387 . S
C1014 C1017 1.387 . S
H1015 C1011 0.950 . S
H1016 C1013 0.950 . S
C1017 C1008 1.390 . S
C1017 H1010 0.950 . S
C1017 C1014 1.387 . S
C1018 C1019 1.387 . S
C1018 H1022 0.950 . S
C1018 C1027 1.390 . S
C1019 C1018 1.387 . S
C1019 C1021 1.387 . S
H1020 C1027 0.950 . S
C1021 C1019 1.387 . S
C1021 C1023 1.390 . S
C1021 H1025 0.950 . S
H1022 C1018 0.950 . S
C1023 C1021 1.390 . S
C1023 C1024 1.387 . S
C1023 H1026 0.950 . S
C1024 C1023 1.387 . S
C1024 C1027 1.387 . S
H1025 C1021 0.950 . S
H1026 C1023 0.950 . S
C1027 C1018 1.390 . S
C1027 H1020 0.950 . S
C1027 C1024 1.387 . S
C1028 C1029 1.387 . S
C1028 H1032 0.950 . S
C1028 C1037 1.390 . S
C1029 C1028 1.387 . S
C1029 C1031 1.387 . S
H1030 C1037 0.950 . S
C1031 C1029 1.387 . S
C1031 C1033 1.390 . S
C1031 H1035 0.950 . S
H1032 C1028 0.950 . S
C1033 C1031 1.390 . S
C1033 C1034 1.387 . S
C1033 H1036 0.950 . S
C1034 C1033 1.387 . S
C1034 C1037 1.387 . S
H1035 C1031 0.950 . S
H1036 C1033 0.950 . S
C1037 C1028 1.390 . S
C1037 H1030 0.950 . S
C1037 C1034 1.387 . S
C1038 C1039 1.387 . S
C1038 H1042 0.950 . S
C1038 C1047 1.390 . S
C1039 C1038 1.387 . S
C1039 C1041 1.387 . S
H1040 C1047 0.950 . S
C1041 C1039 1.387 . S
C1041 C1043 1.390 . S
C1041 H1045 0.950 . S
H1042 C1038 0.950 . S
C1043 C1041 1.390 . S
C1043 C1044 1.387 . S
C1043 H1046 0.950 . S
C1044 C1043 1.387 . S
C1044 C1047 1.387 . S
H1045 C1041 0.950 . S
H1046 C1043 0.950 . S
C1047 C1038 1.390 . S
C1047 H1040 0.950 . S
C1047 C1044 1.387 . S
C1048 C1049 1.387 . S
C1048 H1052 0.950 . S
C1048 C1057 1.390 . S
C1049 C1048 1.387 . S
C1049 C1051 1.387 . S
H1050 C1057 0.950 . S
C1051 C1049 1.387 . S
C1051 C1053 1.390 . S
C1051 H1055 0.950 . S
H1052 C1048 0.950 . S
C1053 C1051 1.390 . S
C1053 C1054 1.387 . S
C1053 H1056 0.950 . S
C1054 C1053 1.387 . S
C1054 C1057 1.387 . S
H1055 C1051 0.950 . S
H1056 C1053 0.950 . S
C1057 C1048 1.390 . S
C1057 H1050 0.950 . S
C1057 C1054 1.387 . S
C1058 C1059 1.387 . S
C1058 H1062 0.950 . S
C1058 C1067 1.390 . S
C1059 C1058 1.387 . S
C1059 C1061 1.387 . S
H1060 C1067 0.950 . S
C1061 C1059 1.387 . S
C1061 C1063 1.390 . S
C1061 H1065 0.950 . S
H1062 C1058 0.950 . S
C1063 C1061 1.390 . S
C1063 C1064 1.387 . S
C1063 H1066 0.950 . S
C1064 C1063 1.387 . S
C1064 C1067 1.387 . S
H1065 C1061 0.950 . S
H1066 C1063 0.950 . S
C1067 C1058 1.390 . S
C1067 H1060 0.950 . S
C1067 C1064 1.387 . S
C1068 C1069 1.387 . S
C1068 H1072 0.950 . S
C1068 C1077 1.390 . S
C1069 C1068 1.387 . S
C1069 C1071 1.387 . S
H1070 C1077 0.950 . S
C1071 C1069 1.387 . S
C1071 C1073 1.390 . S
C1071 H1075 0.950 . S
H1072 C1068 0.950 . S
C1073 C1071 1.390 . S
C1073 C1074 1.387 . S
C1073 H1076 0.950 . S
C1074 C1073 1.387 . S
C1074 C1077 1.387 . S
H1075 C1071 0.950 . S
H1076 C1073 0.950 . S
C1077 C1068 1.390 . S
C1077 H1070 0.950 . S
C1077 C1074 1.387 . S
C1078 C1079 1.387 . S
C1078 H1082 0.950 . S
C1078 C1087 1.390 . S
C1079 C1078 1.387 . S
C1079 C1081 1.387 . S
H1080 C1087 0.950 . S
C1081 C1079 1.387 . S
C1081 C1083 1.390 . S
C1081 H1085 0.950 . S
H1082 C1078 0.950 . S
C1083 C1081 1.390 . S
C1083 C1084 1.387 . S
C1083 H1086 0.950 . S
C1084 C1083 1.387 . S
C1084 C1087 1.387 . S
H1085 C1081 0.950 . S
H1086 C1083 0.950 . S
C1087 C1078 1.390 . S
C1087 H1080 0.950 . S
C1087 C1084 1.387 . S
C449 C13 1.593 . S
C454 C29 1.592 . S
C459 C55 1.590 . S
C464 C27 1.590 . S
C469 C85 1.594 . S
C474 C57 1.595 . S
C479 C98 1.589 . S
C484 C82 1.589 . S
C489 C113 1.592 . S
C494 C141 1.592 . S
C499 C167 1.589 . S
C504 C127 1.589 . S
C509 C169 1.596 . S
C514 C197 1.596 . S
C519 C223 1.589 . S
C524 C183 1.589 . S
C529 C224 1.581 . S
C534 C265 1.579 . S
C539 C238 1.594 . S
C544 C279 1.592 . S
C549 C321 1.583 . S
C554 C280 1.581 . S
C559 C295 1.594 . S
C564 C334 1.592 . S
C569 C377 1.581 1_455 S
C574 C348 1.582 . S
C579 C390 1.595 . S
C584 C362 1.595 . S
C589 C432 1.582 . S
C594 C392 1.582 . S
C599 C406 1.593 . S
C604 C446 1.593 . S
C609 C350 1.653 . S
C614 C1 1.653 . S
C619 C15 1.651 . S
C624 C336 1.648 . S
C629 C41 1.653 . S
C634 C378 1.653 . S
C639 C43 1.651 . S
C644 C365 1.647 . S
C649 C418 1.652 . S
C654 C69 1.653 . S
C659 C70 1.651 . S
C664 C404 1.647 . S
C669 C97 1.653 . S
C674 C434 1.653 . S
C679 C420 1.650 . S
C684 C110 1.646 . S
C689 C125 1.653 . S
C694 C250 1.654 . S
C699 C139 1.650 . S
C704 C236 1.647 . S
C709 C153 1.653 . S
C714 C267 1.653 . S
C719 C155 1.650 . S
C724 C253 1.646 . S
C729 C181 1.653 . S
C734 C307 1.654 . S
C739 C292 1.650 . S
C744 C195 1.647 . S
C749 C322 1.653 . S
C754 C209 1.653 . S
C759 C211 1.651 . S
C764 C309 1.647 . S
C769 C12 1.595 . S
C774 C56 1.594 . S
C779 C26 1.594 . S
C784 C407 1.594 . S
C789 C28 1.598 . S
C794 C196 1.596 . S
C799 C54 1.595 . S
C804 C335 1.595 . S
C809 C83 1.594 . S
C814 C363 1.591 . S
C819 C140 1.596 . S
C824 C84 1.595 . S
C829 C278 1.593 . S
C834 C99 1.593 . S
C839 C168 1.593 . S
C844 C112 1.595 . S
C849 C126 1.595 . S
C854 C294 1.593 . S
C859 C447 1.592 . S
C864 C166 1.592 . S
C869 C182 1.591 . S
C874 C239 1.591 . S
C879 C222 1.591 . S
C884 C391 1.591 . S
C889 C281 1.585 . S
C894 C225 1.583 . S
C899 C264 1.584 . S
C904 C433 1.584 . S
C909 C376 1.586 . S
C914 C320 1.585 . S
C919 C393 1.586 . S
C924 C349 1.584 . S
C929 C0 1.363 . S
C934 C14 1.363 . S
C939 C40 1.364 . S
C944 C42 1.364 . S
C949 C68 1.364 . S
C954 C71 1.364 . S
C959 C96 1.364 . S
C964 C111 1.365 . S
C969 C138 1.364 . S
C974 C124 1.364 . S
C979 C152 1.365 . S
C984 C154 1.365 . S
C989 C180 1.364 . S
C994 C194 1.364 . S
C999 C208 1.363 . S
C1004 C210 1.363 . S
C1009 C237 1.368 . S
C1014 C251 1.372 . S
C1019 C266 1.370 . S
C1024 C252 1.373 . S
C1029 C293 1.369 . S
C1034 C306 1.372 . S
C1039 C308 1.369 . S
C1044 C323 1.374 . S
C1049 C351 1.368 . S
C1054 C337 1.371 . S
C1059 C364 1.369 . S
C1064 C379 1.372 . S
C1069 C419 1.368 . S
C1074 C405 1.372 . S
C1079 C421 1.368 . S
C1084 C435 1.372 . S
