# Generated by pormake.
# Topology ukd, (4)-cn, num edge types: 1
# Building blocks:
#     Node 0, Type 0, BuildingBlock: NAHDIM_clean_sbu_0, # of connection points: 4
#     Node 1, Type 0, BuildingBlock: NAHDIM_clean_sbu_0, # of connection points: 4
#     Node 2, Type 0, BuildingBlock: NAHDIM_clean_sbu_0, # of connection points: 4
#     Node 3, Type 0, BuildingBlock: NAHDIM_clean_sbu_0, # of connection points: 4
#     Node 4, Type 0, BuildingBlock: NAHDIM_clean_sbu_0, # of connection points: 4
#     Node 5, Type 0, BuildingBlock: NAHDIM_clean_sbu_0, # of connection points: 4
#     Node 6, Type 0, BuildingBlock: NAHDIM_clean_sbu_0, # of connection points: 4
#     Node 7, Type 0, BuildingBlock: NAHDIM_clean_sbu_0, # of connection points: 4
#     Node 8, Type 0, BuildingBlock: NAHDIM_clean_sbu_0, # of connection points: 4
#     Node 9, Type 0, BuildingBlock: NAHDIM_clean_sbu_0, # of connection points: 4
#     Node 10, Type 0, BuildingBlock: NAHDIM_clean_sbu_0, # of connection points: 4
#     Node 11, Type 0, BuildingBlock: NAHDIM_clean_sbu_0, # of connection points: 4
#     Node 12, Type 0, BuildingBlock: NAHDIM_clean_sbu_0, # of connection points: 4
#     Node 13, Type 0, BuildingBlock: NAHDIM_clean_sbu_0, # of connection points: 4
#     Node 14, Type 0, BuildingBlock: NAHDIM_clean_sbu_0, # of connection points: 4
#     Node 15, Type 0, BuildingBlock: NAHDIM_clean_sbu_0, # of connection points: 4
#     Node 16, Type 0, BuildingBlock: NAHDIM_clean_sbu_0, # of connection points: 4
#     Node 17, Type 0, BuildingBlock: NAHDIM_clean_sbu_0, # of connection points: 4
#     Node 18, Type 0, BuildingBlock: NAHDIM_clean_sbu_0, # of connection points: 4
#     Node 19, Type 0, BuildingBlock: NAHDIM_clean_sbu_0, # of connection points: 4
#     Node 20, Type 0, BuildingBlock: NAHDIM_clean_sbu_0, # of connection points: 4
#     Node 21, Type 0, BuildingBlock: NAHDIM_clean_sbu_0, # of connection points: 4
#     Node 22, Type 0, BuildingBlock: NAHDIM_clean_sbu_0, # of connection points: 4
#     Node 23, Type 0, BuildingBlock: NAHDIM_clean_sbu_0, # of connection points: 4
#     Node 24, Type 0, BuildingBlock: NAHDIM_clean_sbu_0, # of connection points: 4
#     Node 25, Type 0, BuildingBlock: NAHDIM_clean_sbu_0, # of connection points: 4
#     Node 26, Type 0, BuildingBlock: NAHDIM_clean_sbu_0, # of connection points: 4
#     Node 27, Type 0, BuildingBlock: NAHDIM_clean_sbu_0, # of connection points: 4
#     Node 28, Type 0, BuildingBlock: NAHDIM_clean_sbu_0, # of connection points: 4
#     Node 29, Type 0, BuildingBlock: NAHDIM_clean_sbu_0, # of connection points: 4
#     Node 30, Type 0, BuildingBlock: NAHDIM_clean_sbu_0, # of connection points: 4
#     Node 31, Type 0, BuildingBlock: NAHDIM_clean_sbu_0, # of connection points: 4
#     Edge 32, Type (0, 0), BuildingBlock: OJICUG_clean_linker_0, # of connection points: 2
#     Edge 33, Type (0, 0), BuildingBlock: OJICUG_clean_linker_0, # of connection points: 2
#     Edge 34, Type (0, 0), BuildingBlock: OJICUG_clean_linker_0, # of connection points: 2
#     Edge 35, Type (0, 0), BuildingBlock: OJICUG_clean_linker_0, # of connection points: 2
#     Edge 36, Type (0, 0), BuildingBlock: OJICUG_clean_linker_0, # of connection points: 2
#     Edge 37, Type (0, 0), BuildingBlock: OJICUG_clean_linker_0, # of connection points: 2
#     Edge 38, Type (0, 0), BuildingBlock: OJICUG_clean_linker_0, # of connection points: 2
#     Edge 39, Type (0, 0), BuildingBlock: OJICUG_clean_linker_0, # of connection points: 2
#     Edge 40, Type (0, 0), BuildingBlock: OJICUG_clean_linker_0, # of connection points: 2
#     Edge 41, Type (0, 0), BuildingBlock: OJICUG_clean_linker_0, # of connection points: 2
#     Edge 42, Type (0, 0), BuildingBlock: OJICUG_clean_linker_0, # of connection points: 2
#     Edge 43, Type (0, 0), BuildingBlock: OJICUG_clean_linker_0, # of connection points: 2
#     Edge 44, Type (0, 0), BuildingBlock: OJICUG_clean_linker_0, # of connection points: 2
#     Edge 45, Type (0, 0), BuildingBlock: OJICUG_clean_linker_0, # of connection points: 2
#     Edge 46, Type (0, 0), BuildingBlock: OJICUG_clean_linker_0, # of connection points: 2
#     Edge 47, Type (0, 0), BuildingBlock: OJICUG_clean_linker_0, # of connection points: 2
#     Edge 48, Type (0, 0), BuildingBlock: OJICUG_clean_linker_0, # of connection points: 2
#     Edge 49, Type (0, 0), BuildingBlock: OJICUG_clean_linker_0, # of connection points: 2
#     Edge 50, Type (0, 0), BuildingBlock: OJICUG_clean_linker_0, # of connection points: 2
#     Edge 51, Type (0, 0), BuildingBlock: OJICUG_clean_linker_0, # of connection points: 2
#     Edge 52, Type (0, 0), BuildingBlock: OJICUG_clean_linker_0, # of connection points: 2
#     Edge 53, Type (0, 0), BuildingBlock: OJICUG_clean_linker_0, # of connection points: 2
#     Edge 54, Type (0, 0), BuildingBlock: OJICUG_clean_linker_0, # of connection points: 2
#     Edge 55, Type (0, 0), BuildingBlock: OJICUG_clean_linker_0, # of connection points: 2
#     Edge 56, Type (0, 0), BuildingBlock: OJICUG_clean_linker_0, # of connection points: 2
#     Edge 57, Type (0, 0), BuildingBlock: OJICUG_clean_linker_0, # of connection points: 2
#     Edge 58, Type (0, 0), BuildingBlock: OJICUG_clean_linker_0, # of connection points: 2
#     Edge 59, Type (0, 0), BuildingBlock: OJICUG_clean_linker_0, # of connection points: 2
#     Edge 60, Type (0, 0), BuildingBlock: OJICUG_clean_linker_0, # of connection points: 2
#     Edge 61, Type (0, 0), BuildingBlock: OJICUG_clean_linker_0, # of connection points: 2
#     Edge 62, Type (0, 0), BuildingBlock: OJICUG_clean_linker_0, # of connection points: 2
#     Edge 63, Type (0, 0), BuildingBlock: OJICUG_clean_linker_0, # of connection points: 2
#     Edge 64, Type (0, 0), BuildingBlock: OJICUG_clean_linker_0, # of connection points: 2
#     Edge 65, Type (0, 0), BuildingBlock: OJICUG_clean_linker_0, # of connection points: 2
#     Edge 66, Type (0, 0), BuildingBlock: OJICUG_clean_linker_0, # of connection points: 2
#     Edge 67, Type (0, 0), BuildingBlock: OJICUG_clean_linker_0, # of connection points: 2
#     Edge 68, Type (0, 0), BuildingBlock: OJICUG_clean_linker_0, # of connection points: 2
#     Edge 69, Type (0, 0), BuildingBlock: OJICUG_clean_linker_0, # of connection points: 2
#     Edge 70, Type (0, 0), BuildingBlock: OJICUG_clean_linker_0, # of connection points: 2
#     Edge 71, Type (0, 0), BuildingBlock: OJICUG_clean_linker_0, # of connection points: 2
#     Edge 72, Type (0, 0), BuildingBlock: OJICUG_clean_linker_0, # of connection points: 2
#     Edge 73, Type (0, 0), BuildingBlock: OJICUG_clean_linker_0, # of connection points: 2
#     Edge 74, Type (0, 0), BuildingBlock: OJICUG_clean_linker_0, # of connection points: 2
#     Edge 75, Type (0, 0), BuildingBlock: OJICUG_clean_linker_0, # of connection points: 2
#     Edge 76, Type (0, 0), BuildingBlock: OJICUG_clean_linker_0, # of connection points: 2
#     Edge 77, Type (0, 0), BuildingBlock: OJICUG_clean_linker_0, # of connection points: 2
#     Edge 78, Type (0, 0), BuildingBlock: OJICUG_clean_linker_0, # of connection points: 2
#     Edge 79, Type (0, 0), BuildingBlock: OJICUG_clean_linker_0, # of connection points: 2
#     Edge 80, Type (0, 0), BuildingBlock: OJICUG_clean_linker_0, # of connection points: 2
#     Edge 81, Type (0, 0), BuildingBlock: OJICUG_clean_linker_0, # of connection points: 2
#     Edge 82, Type (0, 0), BuildingBlock: OJICUG_clean_linker_0, # of connection points: 2
#     Edge 83, Type (0, 0), BuildingBlock: OJICUG_clean_linker_0, # of connection points: 2
#     Edge 84, Type (0, 0), BuildingBlock: OJICUG_clean_linker_0, # of connection points: 2
#     Edge 85, Type (0, 0), BuildingBlock: OJICUG_clean_linker_0, # of connection points: 2
#     Edge 86, Type (0, 0), BuildingBlock: OJICUG_clean_linker_0, # of connection points: 2
#     Edge 87, Type (0, 0), BuildingBlock: OJICUG_clean_linker_0, # of connection points: 2
#     Edge 88, Type (0, 0), BuildingBlock: OJICUG_clean_linker_0, # of connection points: 2
#     Edge 89, Type (0, 0), BuildingBlock: OJICUG_clean_linker_0, # of connection points: 2
#     Edge 90, Type (0, 0), BuildingBlock: OJICUG_clean_linker_0, # of connection points: 2
#     Edge 91, Type (0, 0), BuildingBlock: OJICUG_clean_linker_0, # of connection points: 2
#     Edge 92, Type (0, 0), BuildingBlock: OJICUG_clean_linker_0, # of connection points: 2
#     Edge 93, Type (0, 0), BuildingBlock: OJICUG_clean_linker_0, # of connection points: 2
#     Edge 94, Type (0, 0), BuildingBlock: OJICUG_clean_linker_0, # of connection points: 2
#     Edge 95, Type (0, 0), BuildingBlock: OJICUG_clean_linker_0, # of connection points: 2
# Relax obj value: 0.152
# Max RMSD: 0.186
# Mean RMSD: 0.186
data_MOF--net-ukd--node1-NAHDIM_clean_sbu_0--edge1-OJICUG_clean_linker_0
_symmetry_space_group_name_H-M    P1
_symmetry_Int_Tables_number       1
_symmetry_cell_setting            triclinic
loop_
_symmetry_equiv_pos_as_xyz
'x, y, z'
_cell_length_a     31.911517
_cell_length_b     31.922194
_cell_length_c     53.957231
_cell_angle_alpha  89.981895
_cell_angle_beta   90.018901
_cell_angle_gamma 89.99075
loop_
_atom_site_label
_atom_site_type_symbol
_atom_site_fract_x
_atom_site_fract_y
_atom_site_fract_z
_atom_type_partial_charge
C0 C 0.31438 0.18969 0.3455 0.0
O1 O 0.30851 0.19064 0.32142 0.0
O2 O 0.23857 0.24396 0.31068 0.0
Zn3 Zn 0.23087 0.22403 0.34568 0.0
O4 O 0.18823 0.17713 0.34691 0.0
C5 C 0.1821 0.2673 0.38276 0.0
O6 O 0.17311 0.22901 0.38993 0.0
O7 O 0.28596 0.20398 0.35971 0.0
C8 C 0.19691 0.14038 0.35445 0.0
O9 O 0.2356 0.13141 0.36084 0.0
C10 C 0.23135 0.22125 0.29184 0.0
O11 O 0.21831 0.18257 0.29499 0.0
O12 O 0.20778 0.27264 0.36504 0.0
C13 C 0.06794 0.07206 0.60088 0.0
O14 O 0.07242 0.06124 0.57756 0.0
O15 O 0.00965 0.99725 0.56661 0.0
Zn16 Zn 0.02999 0.99172 0.60187 0.0
O17 O 0.08001 0.95362 0.60388 0.0
C18 C 0.94621 0.96876 0.61744 0.0
O19 O 0.9348 0.99503 0.59994 0.0
O20 O 0.04811 0.04769 0.61538 0.0
C21 C 0.07682 0.91515 0.59818 0.0
O22 O 0.04088 0.90105 0.5897 0.0
C23 C 0.0326 0.98868 0.54805 0.0
O24 O 0.07125 0.97593 0.55172 0.0
O25 O 0.98492 0.96446 0.62229 0.0
C26 C 0.17323 0.81051 0.85035 0.0
O27 O 0.1796 0.80997 0.82632 0.0
O28 O 0.25265 0.75939 0.81578 0.0
Zn29 Zn 0.25818 0.78106 0.85068 0.0
O30 O 0.29443 0.83252 0.85192 0.0
C31 C 0.28292 0.69849 0.86734 0.0
O32 O 0.255 0.686 0.85104 0.0
O33 O 0.2019 0.7971 0.8647 0.0
C34 C 0.33242 0.83121 0.84495 0.0
O35 O 0.34718 0.79625 0.8355 0.0
C36 C 0.2574 0.78239 0.79677 0.0
O37 O 0.26609 0.82231 0.79966 0.0
O38 O 0.28767 0.73746 0.87114 0.0
C39 C 0.42381 0.92386 0.09972 0.0
O40 O 0.4175 0.93452 0.0765 0.0
O41 O 0.48549 0.996 0.06417 0.0
Zn42 Zn 0.46381 0.00299 0.09903 0.0
O43 O 0.41369 0.041 0.09979 0.0
C44 C 0.54673 0.02779 0.11553 0.0
O45 O 0.55943 0.00139 0.09842 0.0
O46 O 0.44556 0.94785 0.11343 0.0
C47 C 0.41716 0.07894 0.09301 0.0
O48 O 0.45319 0.09204 0.08413 0.0
C49 C 0.46313 0.00326 0.04515 0.0
O50 O 0.42405 0.01524 0.04804 0.0
O51 O 0.50775 0.03151 0.1197 0.0
C52 C 0.3099 0.80815 0.14529 0.0
O53 O 0.31137 0.80118 0.16926 0.0
O54 O 0.23644 0.7588 0.18468 0.0
Zn55 Zn 0.22436 0.77834 0.15006 0.0
O56 O 0.18216 0.82533 0.15004 0.0
C57 C 0.1727 0.7346 0.11456 0.0
O58 O 0.1628 0.77275 0.10755 0.0
O59 O 0.27669 0.79927 0.13337 0.0
C60 C 0.14681 0.82233 0.16074 0.0
O61 O 0.13798 0.78816 0.17327 0.0
C62 C 0.23482 0.78249 0.20356 0.0
O63 O 0.2252 0.82222 0.20071 0.0
O64 O 0.19966 0.72957 0.13165 0.0
C65 C 0.43395 0.07515 0.38691 0.0
O66 O 0.43506 0.0698 0.41102 0.0
O67 O 0.48771 0.9983 0.42258 0.0
Zn68 Zn 0.46674 0.99144 0.38758 0.0
O69 O 0.41652 0.95351 0.38699 0.0
C70 C 0.55004 0.96757 0.37174 0.0
O71 O 0.56179 0.9951 0.38845 0.0
O72 O 0.44846 0.04656 0.37292 0.0
C73 C 0.4187 0.91637 0.39534 0.0
O74 O 0.45399 0.90337 0.40528 0.0
C75 C 0.46367 0.99372 0.44115 0.0
O76 O 0.42388 0.98518 0.43749 0.0
O77 O 0.51121 0.96271 0.36741 0.0
C78 C 0.18302 0.19123 0.64206 0.0
O79 O 0.18332 0.19897 0.66596 0.0
O80 O 0.26029 0.24233 0.67893 0.0
Zn81 Zn 0.2692 0.22033 0.6444 0.0
O82 O 0.30986 0.17226 0.64499 0.0
C83 C 0.29024 0.30371 0.62667 0.0
O84 O 0.26203 0.31606 0.64283 0.0
O85 O 0.21535 0.19969 0.62921 0.0
C86 C 0.34558 0.1765 0.6551 0.0
O87 O 0.35462 0.21195 0.66627 0.0
C88 C 0.26118 0.21806 0.69759 0.0
O89 O 0.26737 0.17779 0.69416 0.0
O90 O 0.29656 0.26477 0.62366 0.0
C91 C 0.05527 0.92698 0.8908 0.0
O92 O 0.05452 0.93302 0.91486 0.0
O93 O 0.00602 0.00671 0.92593 0.0
Zn94 Zn 0.02655 0.01218 0.89073 0.0
O95 O 0.07847 0.04769 0.88911 0.0
C96 C 0.94401 0.03932 0.87524 0.0
O97 O 0.93151 0.01319 0.89255 0.0
O98 O 0.04203 0.95585 0.87655 0.0
C99 C 0.07823 0.08552 0.89638 0.0
O100 O 0.04391 0.1009 0.90628 0.0
C101 C 0.03005 0.01133 0.94451 0.0
O102 O 0.06985 0.01985 0.94087 0.0
O103 O 0.98289 0.04222 0.8705 0.0
C104 C 0.67228 0.81489 0.63906 0.0
O105 O 0.67661 0.81434 0.66326 0.0
O106 O 0.75092 0.7668 0.67572 0.0
Zn107 Zn 0.75818 0.78818 0.64089 0.0
O108 O 0.79367 0.8402 0.64002 0.0
C109 C 0.78241 0.7056 0.62442 0.0
O110 O 0.75242 0.69363 0.63952 0.0
O111 O 0.70258 0.80275 0.62556 0.0
C112 C 0.83097 0.84011 0.64825 0.0
O113 O 0.84561 0.80596 0.65876 0.0
C114 C 0.75461 0.78959 0.6949 0.0
O115 O 0.76324 0.82959 0.69234 0.0
O116 O 0.78896 0.74449 0.62129 0.0
C117 C 0.94397 0.92822 0.39349 0.0
O118 O 0.94225 0.93477 0.4175 0.0
O119 O 0.99409 0.00506 0.43008 0.0
Zn120 Zn 0.9768 0.01163 0.39441 0.0
O121 O 0.92652 0.04915 0.39104 0.0
C122 C 0.06218 0.028 0.38018 0.0
O123 O 0.06965 0.99633 0.39511 0.0
O124 O 0.96031 0.95605 0.37967 0.0
C125 C 0.92703 0.08749 0.39729 0.0
O126 O 0.96109 0.10315 0.40736 0.0
C127 C 0.97016 0.01205 0.44843 0.0
O128 O 0.93136 0.02408 0.44446 0.0
O129 O 0.02448 0.03881 0.37614 0.0
C130 C 0.8166 0.18243 0.14074 0.0
O131 O 0.81093 0.18207 0.16484 0.0
O132 O 0.73793 0.23239 0.17651 0.0
Zn133 Zn 0.73128 0.21092 0.1416 0.0
O134 O 0.69612 0.15869 0.14049 0.0
C135 C 0.70642 0.29342 0.12493 0.0
O136 O 0.7353 0.3057 0.14069 0.0
O137 O 0.78735 0.19595 0.12685 0.0
C138 C 0.65847 0.15831 0.14811 0.0
O139 O 0.64287 0.19229 0.1583 0.0
C140 C 0.73423 0.20946 0.19564 0.0
O141 O 0.72561 0.16948 0.19298 0.0
O142 O 0.70072 0.25446 0.12154 0.0
C143 C 0.56019 0.06871 0.89264 0.0
O144 O 0.56278 0.06145 0.91655 0.0
O145 O 0.50951 0.98965 0.92799 0.0
Zn146 Zn 0.53029 0.98426 0.8929 0.0
O147 O 0.58221 0.94876 0.89114 0.0
C148 C 0.44754 0.95964 0.87643 0.0
O149 O 0.43515 0.98796 0.89251 0.0
O150 O 0.54488 0.04061 0.87861 0.0
C151 C 0.58125 0.91056 0.89771 0.0
O152 O 0.54648 0.89523 0.90708 0.0
C153 C 0.5325 0.98367 0.94689 0.0
O154 O 0.57213 0.97383 0.94382 0.0
O155 O 0.48651 0.95441 0.87282 0.0
C156 C 0.67094 0.18868 0.84887 0.0
O157 O 0.67491 0.18967 0.82466 0.0
O158 O 0.74805 0.23729 0.81162 0.0
Zn159 Zn 0.75571 0.21928 0.84703 0.0
O160 O 0.7939 0.16921 0.84964 0.0
C161 C 0.80817 0.26303 0.88255 0.0
O162 O 0.81614 0.22513 0.89079 0.0
O163 O 0.70075 0.20229 0.86229 0.0
C164 C 0.83117 0.16845 0.84138 0.0
O165 O 0.84575 0.20129 0.8295 0.0
C166 C 0.75255 0.21346 0.79295 0.0
O167 O 0.76235 0.17391 0.79637 0.0
O168 O 0.78206 0.26779 0.86498 0.0
C169 C 0.55386 0.92708 0.59508 0.0
O170 O 0.55539 0.93364 0.57107 0.0
O171 O 0.50361 0.00526 0.55909 0.0
Zn172 Zn 0.5213 0.01083 0.59469 0.0
O173 O 0.57151 0.0486 0.59791 0.0
C174 C 0.47839 0.06111 0.63149 0.0
O175 O 0.51643 0.06709 0.64011 0.0
O176 O 0.53797 0.95504 0.60898 0.0
C177 C 0.57181 0.08629 0.59036 0.0
O178 O 0.53855 0.1013 0.57907 0.0
C179 C 0.52781 0.01136 0.54075 0.0
O180 O 0.56721 0.02121 0.54473 0.0
O181 O 0.47307 0.03677 0.61312 0.0
C182 C 0.82464 0.81633 0.34995 0.0
O183 O 0.81939 0.8164 0.32582 0.0
O184 O 0.74563 0.76537 0.31433 0.0
Zn185 Zn 0.73923 0.78757 0.34906 0.0
O186 O 0.70317 0.83926 0.34975 0.0
C187 C 0.71638 0.70525 0.36707 0.0
O188 O 0.74616 0.69279 0.35196 0.0
O189 O 0.79512 0.80314 0.36373 0.0
C190 C 0.66566 0.83849 0.34189 0.0
O191 O 0.65114 0.80387 0.33191 0.0
C192 C 0.7419 0.78815 0.29515 0.0
O193 O 0.7339 0.82828 0.29773 0.0
O194 O 0.70944 0.74421 0.3695 0.0
C195 C 0.9371 0.07045 0.09822 0.0
O196 O 0.9359 0.06365 0.07424 0.0
O197 O 0.99039 0.99442 0.06238 0.0
Zn198 Zn 0.97209 0.98773 0.09787 0.0
O199 O 0.92245 0.94908 0.10051 0.0
C200 C 0.01479 0.93787 0.1351 0.0
O201 O 0.97669 0.93235 0.14372 0.0
O202 O 0.9538 0.0431 0.11225 0.0
C203 C 0.92342 0.91102 0.09367 0.0
O204 O 0.95766 0.8962 0.08338 0.0
C205 C 0.96656 0.98803 0.04389 0.0
O206 O 0.92748 0.97676 0.04765 0.0
O207 O 0.0203 0.96193 0.11659 0.0
C208 C 0.81339 0.67705 0.8458 0.0
O209 O 0.80229 0.67127 0.82261 0.0
O210 O 0.73968 0.73829 0.8114 0.0
Zn211 Zn 0.73354 0.71533 0.84601 0.0
O212 O 0.6971 0.66407 0.84655 0.0
C213 C 0.7097 0.79733 0.86408 0.0
O214 O 0.73754 0.81043 0.8479 0.0
O215 O 0.78936 0.69801 0.85991 0.0
C216 C 0.65867 0.66591 0.84053 0.0
O217 O 0.64328 0.70155 0.83241 0.0
C218 C 0.73229 0.71676 0.79209 0.0
O219 O 0.72045 0.67755 0.79443 0.0
O220 O 0.70456 0.75822 0.86715 0.0
C221 C 0.56662 0.57229 0.09772 0.0
O222 O 0.56712 0.56702 0.07359 0.0
O223 O 0.51483 0.49599 0.06135 0.0
Zn224 Zn 0.534 0.48837 0.09654 0.0
O225 O 0.58324 0.44899 0.09875 0.0
C226 C 0.49024 0.43745 0.13289 0.0
O227 O 0.52813 0.42962 0.14123 0.0
O228 O 0.55186 0.54337 0.11138 0.0
C229 C 0.5814 0.4112 0.09145 0.0
O230 O 0.54684 0.39762 0.08091 0.0
C231 C 0.53747 0.48992 0.04233 0.0
O232 O 0.57672 0.47843 0.04515 0.0
O233 O 0.48559 0.46298 0.11502 0.0
C234 C 0.68225 0.30884 0.34913 0.0
O235 O 0.68741 0.30995 0.32499 0.0
O236 O 0.75866 0.25707 0.31214 0.0
Zn237 Zn 0.76654 0.27902 0.34686 0.0
O238 O 0.80082 0.33176 0.34738 0.0
C239 C 0.79556 0.19756 0.36333 0.0
O240 O 0.7677 0.1836 0.34741 0.0
O241 O 0.71132 0.29376 0.36256 0.0
C242 C 0.83889 0.33201 0.34054 0.0
O243 O 0.8552 0.29769 0.33118 0.0
C244 C 0.76229 0.27989 0.29297 0.0
O245 O 0.77151 0.31976 0.29555 0.0
O246 O 0.79887 0.23676 0.3668 0.0
C247 C 0.9296 0.42769 0.60086 0.0
O248 O 0.93122 0.43361 0.5768 0.0
O249 O 0.98079 0.50746 0.56671 0.0
Zn250 Zn 0.95859 0.51297 0.60147 0.0
O251 O 0.90763 0.54993 0.60229 0.0
C252 C 0.04113 0.53622 0.61897 0.0
O253 O 0.05365 0.50841 0.60262 0.0
O254 O 0.94189 0.45676 0.61525 0.0
C255 C 0.91001 0.58782 0.59525 0.0
O256 O 0.9456 0.60173 0.58617 0.0
C257 C 0.95811 0.51212 0.54756 0.0
O258 O 0.91811 0.52079 0.55018 0.0
O259 O 0.00212 0.5416 0.62237 0.0
C260 C 0.81418 0.30835 0.64086 0.0
O261 O 0.80765 0.30792 0.66488 0.0
O262 O 0.73462 0.25755 0.67552 0.0
Zn263 Zn 0.72929 0.27949 0.64062 0.0
O264 O 0.69459 0.332 0.63963 0.0
C265 C 0.70194 0.19788 0.62411 0.0
O266 O 0.72881 0.18474 0.64085 0.0
O267 O 0.78569 0.29469 0.6265 0.0
C268 C 0.65668 0.33235 0.64677 0.0
O269 O 0.64042 0.29805 0.65619 0.0
C270 C 0.72991 0.2808 0.69441 0.0
O271 O 0.72153 0.32075 0.6913 0.0
O272 O 0.69866 0.23693 0.62002 0.0
C273 C 0.93074 0.5624 0.88922 0.0
O274 O 0.93796 0.56286 0.91317 0.0
O275 O 0.98302 0.48821 0.92714 0.0
Zn276 Zn 0.96131 0.47708 0.89279 0.0
O277 O 0.91442 0.43515 0.89398 0.0
C278 C 0.04539 0.45635 0.87641 0.0
O279 O 0.05684 0.484 0.89313 0.0
O280 O 0.93974 0.52978 0.87678 0.0
C281 C 0.92059 0.39949 0.9038 0.0
O282 O 0.95703 0.39163 0.91415 0.0
C283 C 0.95969 0.48558 0.94615 0.0
O284 O 0.91995 0.47588 0.94339 0.0
O285 O 0.00663 0.4502 0.87253 0.0
C286 C 0.68146 0.6877 0.14217 0.0
O287 O 0.68753 0.68567 0.16621 0.0
O288 O 0.75957 0.73862 0.17856 0.0
Zn289 Zn 0.76605 0.71677 0.14373 0.0
O290 O 0.79977 0.66368 0.14282 0.0
C291 C 0.79394 0.79823 0.12706 0.0
O292 O 0.7655 0.81167 0.14276 0.0
O293 O 0.71017 0.70292 0.12855 0.0
C294 C 0.83708 0.66204 0.15093 0.0
O295 O 0.85319 0.69527 0.16169 0.0
C296 C 0.76311 0.71579 0.19774 0.0
O297 O 0.77098 0.67563 0.19517 0.0
O298 O 0.79816 0.75908 0.12372 0.0
C299 C 0.572 0.42854 0.39353 0.0
O300 O 0.57374 0.43484 0.41755 0.0
O301 O 0.52004 0.50672 0.42901 0.0
Zn302 Zn 0.54201 0.51315 0.39426 0.0
O303 O 0.5933 0.54967 0.39328 0.0
C304 C 0.45939 0.53686 0.37754 0.0
O305 O 0.44735 0.50777 0.39323 0.0
O306 O 0.55745 0.4573 0.37966 0.0
C307 C 0.59078 0.5879 0.39964 0.0
O308 O 0.55508 0.60214 0.40837 0.0
C309 C 0.54208 0.51257 0.44831 0.0
O310 O 0.58174 0.52284 0.44596 0.0
O311 O 0.4983 0.54284 0.3741 0.0
C312 C 0.19118 0.31611 0.13683 0.0
O313 O 0.18905 0.30602 0.16039 0.0
O314 O 0.26362 0.26248 0.17518 0.0
Zn315 Zn 0.27608 0.28445 0.14104 0.0
O316 O 0.3187 0.33062 0.14292 0.0
C317 C 0.29456 0.20039 0.12389 0.0
O318 O 0.26516 0.18946 0.13966 0.0
O319 O 0.22441 0.30797 0.12475 0.0
C320 C 0.35381 0.32482 0.15349 0.0
O321 O 0.36128 0.28868 0.16429 0.0
C322 C 0.26464 0.28649 0.19394 0.0
O323 O 0.27351 0.32634 0.19082 0.0
O324 O 0.30261 0.23898 0.12078 0.0
C325 C 0.43633 0.42632 0.89162 0.0
O326 O 0.43622 0.43324 0.91561 0.0
O327 O 0.488 0.5062 0.92556 0.0
Zn328 Zn 0.46467 0.51139 0.89099 0.0
O329 O 0.41247 0.54671 0.89043 0.0
C330 C 0.54592 0.53578 0.87223 0.0
O331 O 0.55946 0.50671 0.8875 0.0
O332 O 0.44953 0.45487 0.87716 0.0
C333 C 0.41356 0.58473 0.89734 0.0
O334 O 0.44871 0.59998 0.90626 0.0
C335 C 0.46568 0.51148 0.9448 0.0
O336 O 0.42571 0.5204 0.94229 0.0
O337 O 0.50674 0.5415 0.86991 0.0
C338 C 0.31565 0.69009 0.6429 0.0
O339 O 0.31237 0.69217 0.66712 0.0
O340 O 0.23644 0.73637 0.67993 0.0
Zn341 Zn 0.22909 0.71536 0.64505 0.0
O342 O 0.19357 0.6634 0.64407 0.0
C343 C 0.20424 0.79795 0.62867 0.0
O344 O 0.23407 0.81024 0.64381 0.0
O345 O 0.28457 0.70083 0.62958 0.0
C346 C 0.1559 0.66398 0.65166 0.0
O347 O 0.14109 0.69848 0.66166 0.0
C348 C 0.23379 0.71286 0.69886 0.0
O349 O 0.22615 0.67273 0.69588 0.0
O350 O 0.19809 0.75901 0.62554 0.0
C351 C 0.06552 0.56557 0.39626 0.0
O352 O 0.06058 0.56287 0.42036 0.0
O353 O 0.00712 0.49049 0.43103 0.0
Zn354 Zn 0.03143 0.48158 0.397 0.0
O355 O 0.0787 0.44006 0.39843 0.0
C356 C 0.94912 0.46017 0.3774 0.0
O357 O 0.93525 0.48685 0.39402 0.0
O358 O 0.05369 0.53534 0.3826 0.0
C359 C 0.07221 0.4039 0.40751 0.0
O360 O 0.03538 0.3955 0.41719 0.0
C361 C 0.02976 0.48735 0.45032 0.0
O362 O 0.06979 0.47864 0.44791 0.0
O363 O 0.98835 0.45505 0.37492 0.0
C364 C 0.18527 0.67987 0.35496 0.0
O365 O 0.19337 0.67772 0.33114 0.0
O366 O 0.26026 0.73563 0.31994 0.0
Zn367 Zn 0.26754 0.71401 0.35473 0.0
O368 O 0.30484 0.66334 0.35549 0.0
C369 C 0.29009 0.79715 0.37036 0.0
O370 O 0.26084 0.80791 0.35444 0.0
O371 O 0.21207 0.69675 0.36926 0.0
C372 C 0.34274 0.66547 0.34843 0.0
O373 O 0.35692 0.70093 0.33934 0.0
C374 C 0.26665 0.7135 0.30075 0.0
O375 O 0.27829 0.67426 0.30331 0.0
O376 O 0.29651 0.75854 0.3746 0.0
C377 C 0.0783 0.43826 0.09585 0.0
O378 O 0.08297 0.45026 0.07274 0.0
O379 O 0.00808 0.5059 0.06278 0.0
Zn380 Zn 0.03144 0.51407 0.09716 0.0
O381 O 0.0765 0.55792 0.09685 0.0
C382 C 0.94787 0.5337 0.11515 0.0
O383 O 0.93543 0.50993 0.09669 0.0
O384 O 0.0559 0.46034 0.11029 0.0
C385 C 0.06705 0.59466 0.08969 0.0
O386 O 0.029 0.6019 0.0814 0.0
C387 C 0.02917 0.51468 0.04349 0.0
O388 O 0.06748 0.52917 0.04589 0.0
O389 O 0.98682 0.53739 0.11944 0.0
C390 C 0.32243 0.3066 0.85081 0.0
O391 O 0.31815 0.30377 0.82667 0.0
O392 O 0.24168 0.25997 0.815 0.0
Zn393 Zn 0.23614 0.28034 0.85014 0.0
O394 O 0.20025 0.33191 0.85173 0.0
C395 C 0.20979 0.19767 0.86571 0.0
O396 O 0.23698 0.18515 0.84899 0.0
O397 O 0.29217 0.2956 0.86469 0.0
C398 C 0.16285 0.33123 0.8437 0.0
O399 O 0.14878 0.29702 0.83302 0.0
C400 C 0.23883 0.28417 0.79638 0.0
O401 O 0.23238 0.32437 0.79992 0.0
O402 O 0.20607 0.23658 0.87008 0.0
C403 C 0.43305 0.57642 0.59943 0.0
O404 O 0.43011 0.56831 0.57563 0.0
O405 O 0.48909 0.4998 0.5646 0.0
Zn406 Zn 0.46621 0.49367 0.59921 0.0
O407 O 0.41449 0.45781 0.5998 0.0
C408 C 0.54785 0.46669 0.61623 0.0
O409 O 0.5614 0.49388 0.59979 0.0
O410 O 0.45019 0.54952 0.61355 0.0
C411 C 0.41631 0.41962 0.59331 0.0
O412 O 0.45175 0.40477 0.58456 0.0
C413 C 0.46736 0.49343 0.54523 0.0
O414 O 0.42775 0.4829 0.54748 0.0
O415 O 0.50871 0.46333 0.61996 0.0
C416 C 0.14004 0.37735 0.39026 0.0
C417 C 0.10365 0.37026 0.40432 0.0
H418 H 0.19361 0.3504 0.37257 0.0
C419 C 0.09596 0.32983 0.41357 0.0
H420 H 0.14706 0.40819 0.38299 0.0
C421 C 0.1228 0.29669 0.40768 0.0
C422 C 0.15774 0.30328 0.39232 0.0
H423 H 0.06837 0.32339 0.42463 0.0
H424 H 0.11506 0.2656 0.41429 0.0
C425 C 0.16675 0.34419 0.38428 0.0
C426 C 0.87291 0.94153 0.6216 0.0
C427 C 0.91536 0.93951 0.62842 0.0
H428 H 0.81281 0.91191 0.62269 0.0
C429 C 0.92874 0.90678 0.64399 0.0
H430 H 0.86151 0.96643 0.60974 0.0
C431 C 0.90086 0.8754 0.65134 0.0
C432 C 0.85896 0.87615 0.64335 0.0
H433 H 0.9612 0.90438 0.64971 0.0
H434 H 0.91256 0.8498 0.66256 0.0
C435 C 0.84498 0.91021 0.62902 0.0
C436 C 0.34201 0.59782 0.87977 0.0
C437 C 0.37731 0.6126 0.89269 0.0
H438 H 0.28427 0.61331 0.86176 0.0
C439 C 0.37898 0.65504 0.89948 0.0
H440 H 0.33961 0.56522 0.87438 0.0
C441 C 0.34715 0.68258 0.89233 0.0
C442 C 0.31304 0.66828 0.87815 0.0
H443 H 0.40556 0.66738 0.90961 0.0
H444 H 0.3502 0.7154 0.8971 0.0
C445 C 0.31024 0.6254 0.87253 0.0
C446 C 0.61936 0.05619 0.12091 0.0
C447 C 0.57656 0.05763 0.12693 0.0
H448 H 0.67895 0.08666 0.12307 0.0
C449 C 0.56189 0.09026 0.14216 0.0
H450 H 0.63173 0.03138 0.10934 0.0
C451 C 0.58893 0.12207 0.14995 0.0
C452 C 0.63123 0.12187 0.14277 0.0
H453 H 0.52913 0.09222 0.14726 0.0
H454 H 0.57628 0.14756 0.16088 0.0
C455 C 0.64643 0.08794 0.12878 0.0
C456 C 0.16011 0.65733 0.11222 0.0
C457 C 0.14872 0.69822 0.10528 0.0
H458 H 0.1435 0.59243 0.11249 0.0
C459 C 0.11223 0.70419 0.09113 0.0
H460 H 0.18819 0.65164 0.123 0.0
C461 C 0.08646 0.67024 0.08522 0.0
C462 C 0.09682 0.62963 0.09321 0.0
H463 H 0.10262 0.73528 0.08544 0.0
H464 H 0.05778 0.67607 0.07505 0.0
C465 C 0.1345 0.62337 0.10617 0.0
C466 C 0.62344 0.94064 0.36739 0.0
C467 C 0.58082 0.93794 0.36104 0.0
H468 H 0.68379 0.91154 0.36615 0.0
C469 C 0.56729 0.90435 0.34619 0.0
H470 H 0.63494 0.96622 0.37869 0.0
C471 C 0.59527 0.8729 0.33906 0.0
C472 C 0.6374 0.87442 0.34657 0.0
H473 H 0.5347 0.9014 0.34085 0.0
H474 H 0.5835 0.84669 0.32839 0.0
C475 C 0.65145 0.90925 0.3602 0.0
C476 C 0.31505 0.37735 0.61997 0.0
C477 C 0.3189 0.33433 0.61497 0.0
H478 H 0.34261 0.43821 0.61682 0.0
C479 C 0.35276 0.3204 0.60046 0.0
H480 H 0.28922 0.38914 0.63096 0.0
C481 C 0.38345 0.34848 0.59243 0.0
C482 C 0.38088 0.39112 0.59865 0.0
H483 H 0.35656 0.28749 0.59611 0.0
H484 H 0.40996 0.33645 0.58211 0.0
C485 C 0.34569 0.40548 0.61185 0.0
C486 C 0.87147 0.06816 0.87038 0.0
C487 C 0.91411 0.06926 0.86396 0.0
H488 H 0.81179 0.09837 0.86816 0.0
C489 C 0.92845 0.10137 0.84823 0.0
H490 H 0.85933 0.04378 0.88236 0.0
C491 C 0.90118 0.13282 0.84013 0.0
C492 C 0.85897 0.13278 0.84753 0.0
H493 H 0.9611 0.1031 0.84285 0.0
H494 H 0.91352 0.15783 0.82869 0.0
C495 C 0.8442 0.09953 0.86224 0.0
C496 C 0.87823 0.65946 0.59341 0.0
C497 C 0.87477 0.61695 0.59983 0.0
H498 H 0.85157 0.72076 0.59589 0.0
C499 C 0.83856 0.6032 0.61225 0.0
H500 H 0.90557 0.67103 0.58369 0.0
C501 C 0.80755 0.63175 0.61929 0.0
C502 C 0.81207 0.67461 0.614 0.0
H503 H 0.83478 0.57059 0.61734 0.0
H504 H 0.78077 0.62037 0.62962 0.0
C505 C 0.8472 0.68798 0.6004 0.0
C506 C 0.17148 0.07101 0.37015 0.0
C507 C 0.16301 0.10945 0.35845 0.0
H508 H 0.14631 0.01499 0.38608 0.0
C509 C 0.12143 0.1191 0.35203 0.0
H510 H 0.20318 0.06251 0.37527 0.0
C511 C 0.08883 0.09176 0.35814 0.0
C512 C 0.09709 0.05423 0.3709 0.0
H513 H 0.11384 0.14834 0.34287 0.0
H514 H 0.05702 0.10076 0.35358 0.0
C515 C 0.13885 0.04373 0.37636 0.0
C516 C 0.65114 0.39565 0.11076 0.0
C517 C 0.61588 0.38182 0.09742 0.0
H518 H 0.70753 0.37868 0.12974 0.0
C519 C 0.61266 0.33915 0.09133 0.0
H520 H 0.65473 0.42836 0.11565 0.0
C521 C 0.64303 0.31064 0.09939 0.0
C522 C 0.67725 0.32419 0.11374 0.0
H523 H 0.58602 0.32748 0.08099 0.0
H524 H 0.63889 0.27778 0.09504 0.0
C525 C 0.68146 0.36714 0.11884 0.0
C526 C 0.37419 0.93319 0.87092 0.0
C527 C 0.4171 0.92999 0.86543 0.0
H528 H 0.31365 0.90469 0.86858 0.0
C529 C 0.43114 0.89604 0.85104 0.0
H530 H 0.3623 0.95905 0.88185 0.0
C531 C 0.40328 0.86479 0.84349 0.0
C532 C 0.36075 0.86686 0.8501 0.0
H533 H 0.46398 0.8927 0.84636 0.0
H534 H 0.41539 0.83832 0.83318 0.0
C535 C 0.34629 0.90199 0.86331 0.0
C536 C 0.85249 0.37265 0.88712 0.0
C537 C 0.88898 0.36589 0.90115 0.0
H538 H 0.79814 0.34552 0.87039 0.0
C539 C 0.89635 0.32588 0.91113 0.0
H540 H 0.84572 0.40316 0.87929 0.0
C541 C 0.86892 0.29281 0.90611 0.0
C542 C 0.83368 0.29906 0.89092 0.0
H543 H 0.92403 0.31971 0.92217 0.0
H544 H 0.8763 0.26201 0.91333 0.0
C545 C 0.82519 0.33957 0.88201 0.0
C546 C 0.37026 0.10876 0.63686 0.0
C547 C 0.37808 0.14391 0.65185 0.0
H548 H 0.39574 0.05484 0.61882 0.0
C549 C 0.41818 0.14907 0.66218 0.0
H550 H 0.33964 0.10368 0.62872 0.0
C551 C 0.45036 0.1209 0.65658 0.0
C552 C 0.44312 0.08712 0.64044 0.0
H553 H 0.42515 0.17566 0.67395 0.0
H554 H 0.4813 0.12664 0.66411 0.0
C555 C 0.40245 0.08073 0.63117 0.0
C556 C 0.65252 0.68825 0.3921 0.0
C557 C 0.68739 0.67451 0.37839 0.0
H558 H 0.59481 0.67166 0.4097 0.0
C559 C 0.69226 0.63142 0.37393 0.0
H560 H 0.64791 0.72122 0.396 0.0
C561 C 0.66177 0.60295 0.38184 0.0
C562 C 0.62574 0.61702 0.39433 0.0
H563 H 0.71887 0.61977 0.36355 0.0
H564 H 0.66574 0.57013 0.37734 0.0
C565 C 0.62201 0.65982 0.39996 0.0
C566 C 0.07443 0.8509 0.16734 0.0
C567 C 0.11443 0.85487 0.1567 0.0
H568 H 0.01164 0.8743 0.1691 0.0
C569 C 0.12236 0.88883 0.14078 0.0
H570 H 0.06736 0.82524 0.17979 0.0
C571 C 0.09042 0.91691 0.13462 0.0
C572 C 0.04987 0.91176 0.1443 0.0
H573 H 0.15289 0.89299 0.13236 0.0
H574 H 0.09725 0.94187 0.12163 0.0
C575 C 0.0425 0.8791 0.16124 0.0
C576 C 0.64658 0.8125 0.89015 0.0
C577 C 0.68022 0.82722 0.87573 0.0
H578 H 0.58904 0.8273 0.9085 0.0
C579 C 0.68317 0.87034 0.87079 0.0
H580 H 0.64346 0.77949 0.89441 0.0
C581 C 0.65194 0.89779 0.87892 0.0
C582 C 0.61706 0.88266 0.8921 0.0
H583 H 0.70879 0.88274 0.85987 0.0
H584 H 0.65439 0.93062 0.87405 0.0
C585 C 0.61531 0.83992 0.89821 0.0
C586 C 0.41373 0.4205 0.13227 0.0
C587 C 0.45417 0.41206 0.14131 0.0
H588 H 0.35025 0.39982 0.12922 0.0
C589 C 0.46033 0.37685 0.15653 0.0
H590 H 0.40785 0.44754 0.12064 0.0
C591 C 0.42725 0.34931 0.16138 0.0
C592 C 0.38736 0.35656 0.15118 0.0
H593 H 0.49108 0.36952 0.16385 0.0
H594 H 0.43336 0.32161 0.17239 0.0
C595 C 0.38068 0.3931 0.13719 0.0
C596 C 0.89207 0.1578 0.39679 0.0
C597 C 0.89108 0.11488 0.39107 0.0
H598 H 0.86247 0.21753 0.39276 0.0
C599 C 0.85648 0.09883 0.378 0.0
H600 H 0.91813 0.17113 0.40695 0.0
C601 C 0.82456 0.12544 0.36982 0.0
C602 C 0.82648 0.16865 0.37459 0.0
H603 H 0.8546 0.06586 0.37341 0.0
H604 H 0.79903 0.11227 0.35913 0.0
C605 C 0.86008 0.18439 0.38867 0.0
C606 C 0.08525 0.62995 0.65308 0.0
C607 C 0.12774 0.62824 0.64637 0.0
H608 H 0.0246 0.60198 0.64994 0.0
C609 C 0.14228 0.59352 0.63282 0.0
H610 H 0.07308 0.65609 0.66366 0.0
C611 C 0.11445 0.56246 0.62491 0.0
C612 C 0.07153 0.56542 0.63043 0.0
H613 H 0.17491 0.59108 0.62748 0.0
H614 H 0.12638 0.53699 0.61369 0.0
C615 C 0.05744 0.59886 0.64522 0.0
C616 C 0.64143 0.09856 0.61054 0.0
C617 C 0.60761 0.11388 0.59648 0.0
H618 H 0.69794 0.11296 0.63011 0.0
C619 C 0.60721 0.15636 0.58968 0.0
H620 H 0.64286 0.06592 0.61598 0.0
C621 C 0.63893 0.18333 0.59773 0.0
C622 C 0.67166 0.16839 0.61281 0.0
H623 H 0.58176 0.16911 0.57874 0.0
H624 H 0.63694 0.21617 0.59282 0.0
C625 C 0.67308 0.12553 0.61863 0.0
C626 C 0.14773 0.40064 0.86346 0.0
C627 C 0.13417 0.36648 0.84909 0.0
H628 H 0.13037 0.4561 0.88324 0.0
C629 C 0.09207 0.36476 0.84156 0.0
H630 H 0.18005 0.40306 0.86944 0.0
C631 C 0.06363 0.39524 0.84942 0.0
C632 C 0.07666 0.42805 0.86502 0.0
H633 H 0.08068 0.33906 0.83032 0.0
H634 H 0.03108 0.3921 0.84403 0.0
C635 C 0.11925 0.4311 0.87137 0.0
C636 C 0.85301 0.89817 0.11274 0.0
C637 C 0.88798 0.88289 0.0997 0.0
H638 H 0.79575 0.88351 0.13145 0.0
C639 C 0.88984 0.84004 0.09388 0.0
H640 H 0.85046 0.93107 0.11742 0.0
C641 C 0.85835 0.81277 0.10189 0.0
C642 C 0.82438 0.82776 0.11593 0.0
H643 H 0.91622 0.82728 0.08376 0.0
H644 H 0.86141 0.77971 0.09774 0.0
C645 C 0.82158 0.8709 0.12079 0.0
C646 C 0.44223 0.60149 0.35325 0.0
C647 C 0.42861 0.56663 0.36701 0.0
H648 H 0.42578 0.65998 0.3365 0.0
C649 C 0.38575 0.56264 0.37247 0.0
H650 H 0.47502 0.60545 0.34862 0.0
C651 C 0.35749 0.59394 0.36547 0.0
C652 C 0.37153 0.62993 0.35293 0.0
H653 H 0.37419 0.53608 0.38292 0.0
H654 H 0.3249 0.59058 0.3707 0.0
C655 C 0.414 0.63283 0.34632 0.0
C656 C 0.34666 0.09626 0.11071 0.0
C657 C 0.3828 0.10895 0.09782 0.0
H658 H 0.29018 0.11519 0.12894 0.0
C659 C 0.38723 0.1513 0.09127 0.0
H660 H 0.34216 0.06379 0.1159 0.0
C661 C 0.35735 0.18072 0.09866 0.0
C662 C 0.32247 0.16843 0.11284 0.0
H663 H 0.41451 0.16205 0.08117 0.0
H664 H 0.36254 0.21334 0.09408 0.0
C665 C 0.31682 0.12573 0.11818 0.0
C666 C 0.56045 0.60072 0.84764 0.0
C667 C 0.57553 0.56587 0.86089 0.0
H668 H 0.57491 0.65958 0.83071 0.0
C669 C 0.61883 0.56222 0.86508 0.0
H670 H 0.52728 0.60441 0.84397 0.0
C671 C 0.64616 0.59387 0.85742 0.0
C672 C 0.63073 0.62989 0.84548 0.0
H673 H 0.63149 0.53567 0.8751 0.0
H674 H 0.67917 0.5908 0.86173 0.0
C675 C 0.58776 0.63242 0.84005 0.0
C676 C 0.17912 0.87167 0.6228 0.0
C677 C 0.1744 0.82864 0.61811 0.0
H678 H 0.15216 0.93285 0.62 0.0
C679 C 0.139 0.81486 0.60488 0.0
H680 H 0.2061 0.88334 0.63284 0.0
C681 C 0.108 0.84321 0.5976 0.0
C682 C 0.11178 0.88596 0.60332 0.0
H683 H 0.13445 0.78193 0.60086 0.0
H684 H 0.08051 0.83137 0.58814 0.0
C685 C 0.14817 0.90005 0.61544 0.0
C686 C 0.93543 0.39893 0.34956 0.0
C687 C 0.91987 0.43138 0.36461 0.0
H688 H 0.92201 0.34221 0.33 0.0
C689 C 0.87659 0.43346 0.36917 0.0
H690 H 0.9686 0.39654 0.34553 0.0
C691 C 0.84983 0.4023 0.36018 0.0
C692 C 0.86586 0.36834 0.34653 0.0
H693 H 0.86354 0.4582 0.38054 0.0
H694 H 0.81688 0.40391 0.36489 0.0
C695 C 0.90872 0.36771 0.34066 0.0
C696 C 0.31562 0.87115 0.37321 0.0
C697 C 0.31983 0.82883 0.37992 0.0
H698 H 0.34345 0.9321 0.37294 0.0
C699 C 0.35498 0.81645 0.39385 0.0
H700 H 0.28884 0.88177 0.36259 0.0
C701 C 0.38639 0.84528 0.39971 0.0
C702 C 0.38326 0.8871 0.39182 0.0
H703 H 0.35911 0.78411 0.39942 0.0
H704 H 0.41374 0.83441 0.40971 0.0
C705 C 0.347 0.9 0.37912 0.0
C706 C 0.87525 0.56156 0.12139 0.0
C707 C 0.91793 0.562 0.12775 0.0
H708 H 0.81603 0.59261 0.12396 0.0
C709 C 0.93255 0.59282 0.14427 0.0
H710 H 0.86292 0.5381 0.10885 0.0
C711 C 0.90572 0.62421 0.15284 0.0
C712 C 0.86369 0.62535 0.14516 0.0
H713 H 0.96521 0.59393 0.14969 0.0
H714 H 0.91841 0.64852 0.16466 0.0
C715 C 0.84837 0.59287 0.13005 0.0
C716 C 0.18109 0.12505 0.87036 0.0
C717 C 0.17936 0.16779 0.87648 0.0
H718 H 0.15067 0.06541 0.87203 0.0
C719 C 0.14606 0.18234 0.89123 0.0
H720 H 0.20641 0.11278 0.85914 0.0
C721 C 0.11399 0.15523 0.89853 0.0
C722 C 0.11461 0.11295 0.89133 0.0
H723 H 0.14385 0.21506 0.89637 0.0
H724 H 0.08807 0.16776 0.90915 0.0
C725 C 0.14909 0.09789 0.87775 0.0
C726 C 0.56128 0.40219 0.64146 0.0
C727 C 0.57689 0.43563 0.6272 0.0
H728 H 0.57427 0.34339 0.6589 0.0
C729 C 0.61986 0.43679 0.62161 0.0
H730 H 0.52835 0.4004 0.64619 0.0
C731 C 0.64621 0.40409 0.62895 0.0
C732 C 0.63009 0.36946 0.64195 0.0
H733 H 0.63293 0.4622 0.61078 0.0
H734 H 0.6789 0.40526 0.62359 0.0
C735 C 0.5876 0.36942 0.64872 0.0
C736 C 0.24342 0.22784 0.22212 0.0
C737 C 0.25557 0.26984 0.21891 0.0
H738 H 0.22605 0.17956 0.24766 0.0
C739 C 0.25913 0.29577 0.23982 0.0
H740 H 0.24031 0.20706 0.20636 0.0
C741 C 0.25106 0.27999 0.26346 0.0
C742 C 0.23909 0.23796 0.26671 0.0
H743 H 0.26841 0.32826 0.23798 0.0
H744 H 0.2543 0.30079 0.2792 0.0
C745 C 0.23518 0.21209 0.24578 0.0
C746 C 0.97504 0.00796 0.51855 0.0
C747 C 0.01638 0.99429 0.5226 0.0
H748 H 0.92799 0.02432 0.49197 0.0
C749 C 0.04224 0.98635 0.50207 0.0
H750 H 0.9543 0.01433 0.53399 0.0
C751 C 0.02718 0.99213 0.47801 0.0
C752 C 0.9859 0.00591 0.47395 0.0
H753 H 0.07422 0.97579 0.50453 0.0
H754 H 0.04799 0.98579 0.46261 0.0
C755 C 0.95995 0.0137 0.49447 0.0
C756 C 0.24923 0.7733 0.72697 0.0
C757 C 0.24002 0.73054 0.72391 0.0
H758 H 0.26205 0.82318 0.75234 0.0
C759 C 0.23689 0.70492 0.745 0.0
H760 H 0.25191 0.79391 0.7111 0.0
C761 C 0.2427 0.72173 0.76865 0.0
C762 C 0.2518 0.76452 0.77171 0.0
H763 H 0.22987 0.67185 0.74328 0.0
H764 H 0.23998 0.70114 0.78453 0.0
C765 C 0.25509 0.7901 0.75062 0.0
C766 C 0.52301 0.98628 0.01685 0.0
C767 C 0.48089 0.99804 0.02004 0.0
H768 H 0.57237 0.97255 0.99127 0.0
C769 C 0.4559 0.00488 -0.00102 0.0
H770 H 0.54312 0.9808 0.0327 0.0
C771 C 0.47266 0.00011 0.97525 0.0
C772 C 0.5148 0.98846 0.97205 0.0
H773 H 0.42334 0.01394 0.00079 0.0
H774 H 0.45254 0.00565 0.95941 0.0
C775 C 0.5398 0.98157 0.9931 0.0
C776 C 0.24785 0.7737 0.27312 0.0
C777 C 0.2594 0.73143 0.27587 0.0
H778 H 0.23109 0.82303 0.24814 0.0
C779 C 0.2634 0.70634 0.25464 0.0
H780 H 0.24459 0.79391 0.28913 0.0
C781 C 0.25558 0.72302 0.23117 0.0
C782 C 0.24372 0.7652 0.22842 0.0
H783 H 0.27226 0.67368 0.25611 0.0
H784 H 0.25873 0.70274 0.21519 0.0
C785 C 0.24013 0.79042 0.24963 0.0
C786 C 0.45369 0.99287 0.4871 0.0
C787 C 0.4802 0.99838 0.46658 0.0
H788 H 0.4479 0.9926 0.52654 0.0
C789 C 0.5226 0.00825 0.47063 0.0
H790 H 0.42089 0.98523 0.48462 0.0
C791 C 0.53813 0.01251 0.49472 0.0
C792 C 0.51159 0.00693 0.51523 0.0
H793 H 0.54385 0.01269 0.4552 0.0
H794 H 0.57093 0.02013 0.49724 0.0
C795 C 0.46922 0.99707 0.51115 0.0
C796 C 0.24248 0.29397 0.75039 0.0
C797 C 0.24399 0.26727 0.77107 0.0
H798 H 0.24675 0.29941 0.71095 0.0
C799 C 0.25087 0.22422 0.76736 0.0
H800 H 0.23723 0.32728 0.75261 0.0
C801 C 0.25631 0.20824 0.7435 0.0
C802 C 0.25501 0.23496 0.72282 0.0
H803 H 0.25217 0.20278 0.78291 0.0
H804 H 0.26166 0.17494 0.74129 0.0
C805 C 0.24795 0.27798 0.72651 0.0
C806 C 0.97153 0.99457 0.97384 0.0
C807 C 0.01364 0.00574 0.96992 0.0
H808 H 0.92365 0.98011 0.00026 0.0
C809 C 0.04003 0.01113 0.99051 0.0
H810 H 0.95037 0.99015 0.95836 0.0
C811 C 0.0247 0.0054 0.0145 0.0
C812 C 0.98264 0.9941 0.01844 0.0
H813 H 0.07261 0.01974 0.98813 0.0
H814 H 0.04591 0.00978 0.02996 0.0
C815 C 0.95621 0.98877 -0.00214 0.0
C816 C 0.73761 0.72872 0.72236 0.0
C817 C 0.74872 0.77112 0.71978 0.0
H818 H 0.72361 0.67836 0.74716 0.0
C819 C 0.75418 0.79556 0.74119 0.0
H820 H 0.73312 0.70901 0.70624 0.0
C821 C 0.74879 0.77793 0.76468 0.0
C822 C 0.73774 0.73551 0.76724 0.0
H823 H 0.76273 0.82832 0.73984 0.0
H824 H 0.7533 0.7976 0.78081 0.0
C825 C 0.73212 0.71113 0.74583 0.0
C826 C 0.7381 0.20223 0.24182 0.0
C827 C 0.74106 0.22749 0.22057 0.0
H828 H 0.74255 0.19889 0.28133 0.0
C829 C 0.75106 0.27014 0.22333 0.0
H830 H 0.73049 0.16926 0.24033 0.0
C831 C 0.75802 0.28713 0.24682 0.0
C832 C 0.75512 0.26187 0.26807 0.0
H833 H 0.7536 0.29048 0.20732 0.0
H834 H 0.76566 0.32009 0.2483 0.0
C835 C 0.74506 0.21923 0.26532 0.0
C836 C 0.73612 0.27283 0.76428 0.0
C837 C 0.74639 0.23038 0.7677 0.0
H838 H 0.72284 0.32198 0.73852 0.0
C839 C 0.75081 0.20451 0.74681 0.0
H840 H 0.73245 0.29364 0.77998 0.0
C841 C 0.74525 0.22081 0.72299 0.0
C842 C 0.73518 0.26332 0.71959 0.0
H843 H 0.75867 0.17167 0.74882 0.0
H844 H 0.749 0.20009 0.70725 0.0
C845 C 0.73059 0.28911 0.74049 0.0
C846 C 0.74387 0.79472 0.24892 0.0
C847 C 0.74725 0.76966 0.27023 0.0
H848 H 0.74625 0.79742 0.20934 0.0
C849 C 0.75591 0.72671 0.2675 0.0
H850 H 0.73723 0.8279 0.25037 0.0
C851 C 0.76109 0.70921 0.24398 0.0
C852 C 0.75771 0.73428 0.22267 0.0
H853 H 0.75871 0.70651 0.28356 0.0
H854 H 0.76772 0.67603 0.24253 0.0
C855 C 0.74905 0.77722 0.22539 0.0
C856 C 0.47714 0.50728 0.01455 0.0
C857 C 0.51945 0.49586 0.01733 0.0
H858 H 0.42704 0.52115 0.98954 0.0
C859 C 0.54408 0.48999 0.99604 0.0
H860 H 0.45727 0.51206 0.03057 0.0
C861 C 0.52669 0.49528 0.97246 0.0
C862 C 0.48431 0.50646 0.96971 0.0
H863 H 0.57677 0.48123 -0.00245 0.0
H864 H 0.54647 0.49041 0.9564 0.0
C865 C 0.45977 0.51249 0.991 0.0
C866 C 0.96869 0.50384 0.47781 0.0
C867 C 0.01141 0.49405 0.47515 0.0
H868 H 0.91834 0.51733 0.50276 0.0
C869 C 0.03647 0.49065 0.49646 0.0
H870 H 0.94853 0.50672 0.46174 0.0
C871 C 0.01918 0.49674 0.51995 0.0
C872 C 0.97643 0.50636 0.52263 0.0
H873 H 0.06949 0.48318 0.49505 0.0
H874 H 0.03936 0.49376 0.536 0.0
C875 C 0.95138 0.50995 0.50132 0.0
C876 C 0.96937 0.49455 0.01588 0.0
C877 C 0.01115 0.50773 0.01861 0.0
H878 H 0.92028 0.47734 0.99085 0.0
C879 C 0.03569 0.51393 -0.00268 0.0
H880 H 0.94961 0.48957 0.03194 0.0
C881 C 0.01893 0.5068 0.97379 0.0
C882 C 0.9772 0.49349 0.97106 0.0
H883 H 0.06799 0.52406 -0.00122 0.0
H884 H 0.03875 0.51171 0.95776 0.0
C885 C 0.95254 0.48759 0.99234 0.0
C886 C 0.54707 0.51392 0.49463 0.0
C887 C 0.52308 0.50758 0.47313 0.0
H888 H 0.54832 0.51443 0.53427 0.0
C889 C 0.48063 0.49649 0.47553 0.0
H890 H 0.57985 0.52248 0.49342 0.0
C891 C 0.46255 0.49188 0.49894 0.0
C892 C 0.48651 0.49826 0.52045 0.0
H893 H 0.46126 0.49138 0.45932 0.0
H894 H 0.42976 0.48333 0.50014 0.0
C895 C 0.52897 0.50931 0.51805 0.0
C896 C 0.35586 0.16362 0.38174 0.0
C897 C 0.35007 0.16604 0.35597 0.0
H898 H 0.38754 0.13347 0.41175 0.0
C899 C 0.37622 0.14231 0.3404 0.0
H900 H 0.3365 0.1818 0.39424 0.0
C901 C 0.40538 0.11441 0.35043 0.0
C902 C 0.40913 0.10988 0.37624 0.0
H903 H 0.3728 0.14368 0.32044 0.0
H904 H 0.42361 0.09506 0.33796 0.0
C905 C 0.38521 0.13593 0.39177 0.0
C906 C 0.11956 0.13013 0.59537 0.0
C907 C 0.09187 0.10798 0.61083 0.0
H908 H 0.16998 0.17407 0.59311 0.0
C909 C 0.09071 0.11769 0.63622 0.0
H910 H 0.12101 0.12371 0.57568 0.0
C911 C 0.11871 0.14685 0.6462 0.0
C912 C 0.14856 0.16658 0.63099 0.0
H913 H 0.0695 0.10143 0.64859 0.0
H914 H 0.11837 0.1522 0.66602 0.0
C915 C 0.14771 0.15901 0.60536 0.0
C916 C 0.13127 0.83667 0.88637 0.0
C917 C 0.13711 0.83377 0.86062 0.0
H918 H 0.10015 0.86799 0.91614 0.0
C919 C 0.11105 0.85731 0.84487 0.0
H920 H 0.15052 0.81862 0.899 0.0
C921 C 0.08231 0.88583 0.85468 0.0
C922 C 0.07887 0.89115 0.88045 0.0
H923 H 0.11446 0.85553 0.82492 0.0
H924 H 0.06435 0.90519 0.84206 0.0
C925 C 0.10232 0.86498 0.89618 0.0
C926 C 0.34235 0.83915 0.10732 0.0
C927 C 0.34371 0.832 0.13299 0.0
H928 H 0.36711 0.87328 0.07659 0.0
C929 C 0.37538 0.85123 0.14709 0.0
H930 H 0.31862 0.82444 0.09589 0.0
C931 C 0.40315 0.87946 0.13603 0.0
C932 C 0.39988 0.88877 0.11064 0.0
H933 H 0.37747 0.84615 0.1669 0.0
H934 H 0.4259 0.89534 0.14759 0.0
C935 C 0.37023 0.86714 0.09624 0.0
C936 C 0.60791 0.85917 0.64265 0.0
C937 C 0.63622 0.83678 0.62772 0.0
H938 H 0.55925 0.9052 0.64401 0.0
C939 C 0.63258 0.83961 0.60182 0.0
H940 H 0.6096 0.85737 0.66267 0.0
C941 C 0.60353 0.86689 0.59112 0.0
C942 C 0.57775 0.89204 0.60611 0.0
H943 H 0.65359 0.82238 0.5898 0.0
H944 H 0.60304 0.86997 0.57113 0.0
C945 C 0.57903 0.88664 0.63195 0.0
C946 C 0.91758 0.88871 0.35655 0.0
C947 C 0.91979 0.89342 0.38241 0.0
H948 H 0.88605 0.8601 0.32596 0.0
C949 C 0.89464 0.86776 0.39749 0.0
H950 H 0.93683 0.90771 0.34442 0.0
C951 C 0.86537 0.8406 0.38691 0.0
C952 C 0.86083 0.83839 0.36104 0.0
H953 H 0.89584 0.87028 0.41749 0.0
H954 H 0.84491 0.82291 0.39904 0.0
C955 C 0.88844 0.86138 0.34597 0.0
C956 C 0.88059 0.13774 0.14513 0.0
C957 C 0.8529 0.16026 0.12984 0.0
H958 H 0.92931 0.09179 0.14713 0.0
C959 C 0.8575 0.15746 0.104 0.0
H960 H 0.87816 0.13949 0.16513 0.0
C961 C 0.887 0.13024 0.09369 0.0
C962 C 0.91233 0.10512 0.10901 0.0
H963 H 0.83696 0.17473 0.0917 0.0
H964 H 0.8883 0.12728 0.07371 0.0
C965 C 0.90995 0.11036 0.13482 0.0
C966 C 0.58214 0.11154 0.85601 0.0
C967 C 0.58194 0.10525 0.88178 0.0
H968 H 0.61006 0.1435 0.82535 0.0
C969 C 0.60668 0.13134 0.89682 0.0
H970 H 0.56308 0.09228 0.84392 0.0
C971 C 0.63377 0.16061 0.88618 0.0
C972 C 0.63647 0.1645 0.86029 0.0
H973 H 0.60695 0.12762 0.91678 0.0
H974 H 0.65411 0.17862 0.89821 0.0
C975 C 0.60907 0.14098 0.84536 0.0
C976 C 0.85841 0.65531 0.88164 0.0
C977 C 0.84896 0.65316 0.85623 0.0
H978 H 0.89219 0.6285 0.91201 0.0
C979 C 0.87085 0.62448 0.8413 0.0
H980 H 0.84233 0.67729 0.8936 0.0
C981 C 0.89923 0.59638 0.85185 0.0
C982 C 0.90649 0.59656 0.87753 0.0
H983 H 0.86461 0.62225 0.82161 0.0
H984 H 0.91413 0.57339 0.84001 0.0
C985 C 0.88702 0.62734 0.89218 0.0
C986 C 0.64183 0.66279 0.10493 0.0
C987 C 0.64605 0.66479 0.13083 0.0
H988 H 0.61288 0.63225 0.0741 0.0
C989 C 0.61927 0.64047 0.14569 0.0
H990 H 0.66169 0.68143 0.09295 0.0
C991 C 0.59142 0.6121 0.13489 0.0
C992 C 0.58964 0.60767 0.109 0.0
H993 H 0.62141 0.64155 0.16572 0.0
H994 H 0.57282 0.59221 0.14687 0.0
C995 C 0.61381 0.63456 0.09412 0.0
C996 C 0.62079 0.35707 0.34583 0.0
C997 C 0.64771 0.3328 0.36065 0.0
H998 H 0.57539 0.40633 0.34463 0.0
C999 C 0.64466 0.33594 0.38656 0.0
H1000 H 0.62202 0.35513 0.3258 0.0
C1001 C 0.61777 0.36525 0.39736 0.0
C1002 C 0.59358 0.39208 0.38245 0.0
H1003 H 0.66466 0.31737 0.39851 0.0
H1004 H 0.61779 0.36842 0.41735 0.0
C1005 C 0.59406 0.38651 0.35662 0.0
C1006 C 0.88365 0.36495 0.59517 0.0
C1007 C 0.90664 0.3913 0.61102 0.0
H1008 H 0.83644 0.31763 0.59219 0.0
C1009 C 0.90356 0.38539 0.63675 0.0
H1010 H 0.8856 0.36842 0.57523 0.0
C1011 C 0.87557 0.35605 0.64646 0.0
C1012 C 0.84988 0.33228 0.63063 0.0
H1013 H 0.92123 0.40485 0.64945 0.0
H1014 H 0.87239 0.35382 0.6664 0.0
C1015 C 0.85543 0.33581 0.60488 0.0
C1016 C 0.09935 0.39019 0.13042 0.0
C1017 C 0.10302 0.40267 0.10554 0.0
H1018 H 0.12403 0.35249 0.15978 0.0
C1019 C 0.13292 0.38291 0.0904 0.0
H1020 H 0.07639 0.40457 0.1425 0.0
C1021 C 0.16032 0.35321 0.10031 0.0
C1022 C 0.15822 0.34245 0.12552 0.0
H1023 H 0.13636 0.39156 0.0711 0.0
H1024 H 0.18409 0.3398 0.08838 0.0
C1025 C 0.12661 0.36025 0.14029 0.0
C1026 C 0.38991 0.36396 0.89713 0.0
C1027 C 0.41396 0.38961 0.88144 0.0
H1028 H 0.34215 0.31715 0.89972 0.0
C1029 C 0.41237 0.38281 0.85573 0.0
H1030 H 0.39072 0.36809 0.91704 0.0
C1031 C 0.38471 0.35334 0.84581 0.0
C1032 C 0.35789 0.3304 0.8614 0.0
H1033 H 0.43089 0.40172 0.84317 0.0
H1034 H 0.38259 0.35047 0.82585 0.0
C1035 C 0.36202 0.33474 0.8872 0.0
C1036 C 0.38295 0.63615 0.59506 0.0
C1037 C 0.40941 0.61188 0.61016 0.0
H1038 H 0.33262 0.68032 0.59358 0.0
C1039 C 0.4091 0.61858 0.6359 0.0
H1040 H 0.38271 0.63208 0.57514 0.0
C1041 C 0.38047 0.64644 0.64647 0.0
C1042 C 0.35148 0.66792 0.63151 0.0
H1043 H 0.42943 0.60071 0.64802 0.0
H1044 H 0.37951 0.64922 0.66647 0.0
C1045 C 0.35417 0.66381 0.60564 0.0
C1046 C 0.11315 0.62733 0.40103 0.0
C1047 C 0.09058 0.60003 0.38554 0.0
H1048 H 0.16082 0.67432 0.4035 0.0
C1049 C 0.0955 0.60336 0.35975 0.0
H1050 H 0.10986 0.62575 0.42099 0.0
C1051 C 0.1245 0.63136 0.34974 0.0
C1052 C 0.14939 0.65639 0.36532 0.0
H1053 H 0.07821 0.5831 0.3473 0.0
H1054 H 0.12881 0.63181 0.32983 0.0
C1055 C 0.14239 0.65517 0.39102 0.0
loop_
_geom_bond_atom_site_label_1
_geom_bond_atom_site_label_2
_geom_bond_distance
_geom_bond_site_symmetry_2
_ccdc_geom_bond_type
C0 O1 1.160 . S
C0 O7 1.185 . S
O1 C0 1.160 . S
O2 Zn3 1.899 . S
O2 C10 1.284 . S
Zn3 O2 1.899 . S
Zn3 O4 2.032 . S
Zn3 O7 2.086 . S
Zn3 O12 1.977 . S
O4 Zn3 2.032 . S
O4 C8 1.278 . S
C5 O6 1.203 . S
C5 O12 1.267 . S
O6 C5 1.203 . S
O7 C0 1.185 . S
O7 Zn3 2.086 . S
C8 O4 1.278 . S
C8 O9 1.211 . S
O9 C8 1.211 . S
C10 O2 1.284 . S
C10 O11 1.273 . S
O11 C10 1.273 . S
O12 Zn3 1.977 . S
O12 C5 1.267 . S
C13 O14 1.160 . S
C13 O20 1.185 . S
O14 C13 1.160 . S
O15 Zn16 1.899 1_545 S
O15 C23 1.284 1_545 S
Zn16 O15 1.899 1_565 S
Zn16 O17 2.032 . S
Zn16 O20 2.086 1_565 S
Zn16 O25 1.977 1_455 S
O17 Zn16 2.032 . S
O17 C21 1.278 . S
C18 O19 1.203 . S
C18 O25 1.267 . S
O19 C18 1.203 . S
O20 C13 1.185 . S
O20 Zn16 2.086 1_545 S
C21 O17 1.278 . S
C21 O22 1.211 . S
O22 C21 1.211 . S
C23 O15 1.284 1_565 S
C23 O24 1.273 . S
O24 C23 1.273 . S
O25 Zn16 1.977 1_655 S
O25 C18 1.267 . S
C26 O27 1.160 . S
C26 O33 1.185 . S
O27 C26 1.160 . S
O28 Zn29 1.899 . S
O28 C36 1.284 . S
Zn29 O28 1.899 . S
Zn29 O30 2.032 . S
Zn29 O33 2.086 . S
Zn29 O38 1.977 . S
O30 Zn29 2.032 . S
O30 C34 1.278 . S
C31 O32 1.203 . S
C31 O38 1.267 . S
O32 C31 1.203 . S
O33 C26 1.185 . S
O33 Zn29 2.086 . S
C34 O30 1.278 . S
C34 O35 1.211 . S
O35 C34 1.211 . S
C36 O28 1.284 . S
C36 O37 1.273 . S
O37 C36 1.273 . S
O38 Zn29 1.977 . S
O38 C31 1.267 . S
C39 O40 1.160 . S
C39 O46 1.185 . S
O40 C39 1.160 . S
O41 Zn42 1.899 1_565 S
O41 C49 1.284 1_565 S
Zn42 O41 1.899 1_545 S
Zn42 O43 2.032 . S
Zn42 O46 2.086 1_545 S
Zn42 O51 1.977 . S
O43 Zn42 2.032 . S
O43 C47 1.278 . S
C44 O45 1.203 . S
C44 O51 1.267 . S
O45 C44 1.203 . S
O46 C39 1.185 . S
O46 Zn42 2.086 1_565 S
C47 O43 1.278 . S
C47 O48 1.211 . S
O48 C47 1.211 . S
C49 O41 1.284 1_545 S
C49 O50 1.273 . S
O50 C49 1.273 . S
O51 Zn42 1.977 . S
O51 C44 1.267 . S
C52 O53 1.160 . S
C52 O59 1.185 . S
O53 C52 1.160 . S
O54 Zn55 1.899 . S
O54 C62 1.284 . S
Zn55 O54 1.899 . S
Zn55 O56 2.032 . S
Zn55 O59 2.086 . S
Zn55 O64 1.977 . S
O56 Zn55 2.032 . S
O56 C60 1.278 . S
C57 O58 1.203 . S
C57 O64 1.267 . S
O58 C57 1.203 . S
O59 C52 1.185 . S
O59 Zn55 2.086 . S
C60 O56 1.278 . S
C60 O61 1.211 . S
O61 C60 1.211 . S
C62 O54 1.284 . S
C62 O63 1.273 . S
O63 C62 1.273 . S
O64 Zn55 1.977 . S
O64 C57 1.267 . S
C65 O66 1.160 . S
C65 O72 1.185 . S
O66 C65 1.160 . S
O67 Zn68 1.899 1_545 S
O67 C75 1.284 1_545 S
Zn68 O67 1.899 1_565 S
Zn68 O69 2.032 . S
Zn68 O72 2.086 1_565 S
Zn68 O77 1.977 . S
O69 Zn68 2.032 . S
O69 C73 1.278 . S
C70 O71 1.203 . S
C70 O77 1.267 . S
O71 C70 1.203 . S
O72 C65 1.185 . S
O72 Zn68 2.086 1_545 S
C73 O69 1.278 . S
C73 O74 1.211 . S
O74 C73 1.211 . S
C75 O67 1.284 1_565 S
C75 O76 1.273 . S
O76 C75 1.273 . S
O77 Zn68 1.977 . S
O77 C70 1.267 . S
C78 O79 1.160 . S
C78 O85 1.185 . S
O79 C78 1.160 . S
O80 Zn81 1.899 . S
O80 C88 1.284 . S
Zn81 O80 1.899 . S
Zn81 O82 2.032 . S
Zn81 O85 2.086 . S
Zn81 O90 1.977 . S
O82 Zn81 2.032 . S
O82 C86 1.278 . S
C83 O84 1.203 . S
C83 O90 1.267 . S
O84 C83 1.203 . S
O85 C78 1.185 . S
O85 Zn81 2.086 . S
C86 O82 1.278 . S
C86 O87 1.211 . S
O87 C86 1.211 . S
C88 O80 1.284 . S
C88 O89 1.273 . S
O89 C88 1.273 . S
O90 Zn81 1.977 . S
O90 C83 1.267 . S
C91 O92 1.160 . S
C91 O98 1.185 . S
O92 C91 1.160 . S
O93 Zn94 1.899 1_565 S
O93 C101 1.284 1_565 S
Zn94 O93 1.899 1_545 S
Zn94 O95 2.032 . S
Zn94 O98 2.086 1_545 S
Zn94 O103 1.977 1_455 S
O95 Zn94 2.032 . S
O95 C99 1.278 . S
C96 O97 1.203 . S
C96 O103 1.267 . S
O97 C96 1.203 . S
O98 C91 1.185 . S
O98 Zn94 2.086 1_565 S
C99 O95 1.278 . S
C99 O100 1.211 . S
O100 C99 1.211 . S
C101 O93 1.284 1_545 S
C101 O102 1.273 . S
O102 C101 1.273 . S
O103 Zn94 1.977 1_655 S
O103 C96 1.267 . S
C104 O105 1.160 . S
C104 O111 1.185 . S
O105 C104 1.160 . S
O106 Zn107 1.899 . S
O106 C114 1.284 . S
Zn107 O106 1.899 . S
Zn107 O108 2.032 . S
Zn107 O111 2.086 . S
Zn107 O116 1.977 . S
O108 Zn107 2.032 . S
O108 C112 1.278 . S
C109 O110 1.203 . S
C109 O116 1.267 . S
O110 C109 1.203 . S
O111 C104 1.185 . S
O111 Zn107 2.086 . S
C112 O108 1.278 . S
C112 O113 1.211 . S
O113 C112 1.211 . S
C114 O106 1.284 . S
C114 O115 1.273 . S
O115 C114 1.273 . S
O116 Zn107 1.977 . S
O116 C109 1.267 . S
C117 O118 1.160 . S
C117 O124 1.185 . S
O118 C117 1.160 . S
O119 Zn120 1.899 1_565 S
O119 C127 1.284 1_565 S
Zn120 O119 1.899 1_545 S
Zn120 O121 2.032 . S
Zn120 O124 2.086 1_545 S
Zn120 O129 1.977 1_655 S
O121 Zn120 2.032 . S
O121 C125 1.278 . S
C122 O123 1.203 . S
C122 O129 1.267 . S
O123 C122 1.203 . S
O124 C117 1.185 . S
O124 Zn120 2.086 1_565 S
C125 O121 1.278 . S
C125 O126 1.211 . S
O126 C125 1.211 . S
C127 O119 1.284 1_545 S
C127 O128 1.273 . S
O128 C127 1.273 . S
O129 Zn120 1.977 1_455 S
O129 C122 1.267 . S
C130 O131 1.160 . S
C130 O137 1.185 . S
O131 C130 1.160 . S
O132 Zn133 1.899 . S
O132 C140 1.284 . S
Zn133 O132 1.899 . S
Zn133 O134 2.032 . S
Zn133 O137 2.086 . S
Zn133 O142 1.977 . S
O134 Zn133 2.032 . S
O134 C138 1.278 . S
C135 O136 1.203 . S
C135 O142 1.267 . S
O136 C135 1.203 . S
O137 C130 1.185 . S
O137 Zn133 2.086 . S
C138 O134 1.278 . S
C138 O139 1.211 . S
O139 C138 1.211 . S
C140 O132 1.284 . S
C140 O141 1.273 . S
O141 C140 1.273 . S
O142 Zn133 1.977 . S
O142 C135 1.267 . S
C143 O144 1.160 . S
C143 O150 1.185 . S
O144 C143 1.160 . S
O145 Zn146 1.899 1_545 S
O145 C153 1.284 1_545 S
Zn146 O145 1.899 1_565 S
Zn146 O147 2.032 . S
Zn146 O150 2.086 1_565 S
Zn146 O155 1.977 . S
O147 Zn146 2.032 . S
O147 C151 1.278 . S
C148 O149 1.203 . S
C148 O155 1.267 . S
O149 C148 1.203 . S
O150 C143 1.185 . S
O150 Zn146 2.086 1_545 S
C151 O147 1.278 . S
C151 O152 1.211 . S
O152 C151 1.211 . S
C153 O145 1.284 1_565 S
C153 O154 1.273 . S
O154 C153 1.273 . S
O155 Zn146 1.977 . S
O155 C148 1.267 . S
C156 O157 1.160 . S
C156 O163 1.185 . S
O157 C156 1.160 . S
O158 Zn159 1.899 . S
O158 C166 1.284 . S
Zn159 O158 1.899 . S
Zn159 O160 2.032 . S
Zn159 O163 2.086 . S
Zn159 O168 1.977 . S
O160 Zn159 2.032 . S
O160 C164 1.278 . S
C161 O162 1.203 . S
C161 O168 1.267 . S
O162 C161 1.203 . S
O163 C156 1.185 . S
O163 Zn159 2.086 . S
C164 O160 1.278 . S
C164 O165 1.211 . S
O165 C164 1.211 . S
C166 O158 1.284 . S
C166 O167 1.273 . S
O167 C166 1.273 . S
O168 Zn159 1.977 . S
O168 C161 1.267 . S
C169 O170 1.160 . S
C169 O176 1.185 . S
O170 C169 1.160 . S
O171 Zn172 1.899 1_565 S
O171 C179 1.284 1_565 S
Zn172 O171 1.899 1_545 S
Zn172 O173 2.032 . S
Zn172 O176 2.086 1_545 S
Zn172 O181 1.977 . S
O173 Zn172 2.032 . S
O173 C177 1.278 . S
C174 O175 1.203 . S
C174 O181 1.267 . S
O175 C174 1.203 . S
O176 C169 1.185 . S
O176 Zn172 2.086 1_565 S
C177 O173 1.278 . S
C177 O178 1.211 . S
O178 C177 1.211 . S
C179 O171 1.284 1_545 S
C179 O180 1.273 . S
O180 C179 1.273 . S
O181 Zn172 1.977 . S
O181 C174 1.267 . S
C182 O183 1.160 . S
C182 O189 1.185 . S
O183 C182 1.160 . S
O184 Zn185 1.899 . S
O184 C192 1.284 . S
Zn185 O184 1.899 . S
Zn185 O186 2.032 . S
Zn185 O189 2.086 . S
Zn185 O194 1.977 . S
O186 Zn185 2.032 . S
O186 C190 1.278 . S
C187 O188 1.203 . S
C187 O194 1.267 . S
O188 C187 1.203 . S
O189 C182 1.185 . S
O189 Zn185 2.086 . S
C190 O186 1.278 . S
C190 O191 1.211 . S
O191 C190 1.211 . S
C192 O184 1.284 . S
C192 O193 1.273 . S
O193 C192 1.273 . S
O194 Zn185 1.977 . S
O194 C187 1.267 . S
C195 O196 1.160 . S
C195 O202 1.185 . S
O196 C195 1.160 . S
O197 Zn198 1.899 1_545 S
O197 C205 1.284 1_545 S
Zn198 O197 1.899 1_565 S
Zn198 O199 2.032 . S
Zn198 O202 2.086 1_565 S
Zn198 O207 1.977 1_655 S
O199 Zn198 2.032 . S
O199 C203 1.278 . S
C200 O201 1.203 . S
C200 O207 1.267 . S
O201 C200 1.203 . S
O202 C195 1.185 . S
O202 Zn198 2.086 1_545 S
C203 O199 1.278 . S
C203 O204 1.211 . S
O204 C203 1.211 . S
C205 O197 1.284 1_565 S
C205 O206 1.273 . S
O206 C205 1.273 . S
O207 Zn198 1.977 1_455 S
O207 C200 1.267 . S
C208 O209 1.160 . S
C208 O215 1.185 . S
O209 C208 1.160 . S
O210 Zn211 1.899 . S
O210 C218 1.284 . S
Zn211 O210 1.899 . S
Zn211 O212 2.032 . S
Zn211 O215 2.086 . S
Zn211 O220 1.977 . S
O212 Zn211 2.032 . S
O212 C216 1.278 . S
C213 O214 1.203 . S
C213 O220 1.267 . S
O214 C213 1.203 . S
O215 C208 1.185 . S
O215 Zn211 2.086 . S
C216 O212 1.278 . S
C216 O217 1.211 . S
O217 C216 1.211 . S
C218 O210 1.284 . S
C218 O219 1.273 . S
O219 C218 1.273 . S
O220 Zn211 1.977 . S
O220 C213 1.267 . S
C221 O222 1.160 . S
C221 O228 1.185 . S
O222 C221 1.160 . S
O223 Zn224 1.899 . S
O223 C231 1.284 . S
Zn224 O223 1.899 . S
Zn224 O225 2.032 . S
Zn224 O228 2.086 . S
Zn224 O233 1.977 . S
O225 Zn224 2.032 . S
O225 C229 1.278 . S
C226 O227 1.203 . S
C226 O233 1.267 . S
O227 C226 1.203 . S
O228 C221 1.185 . S
O228 Zn224 2.086 . S
C229 O225 1.278 . S
C229 O230 1.211 . S
O230 C229 1.211 . S
C231 O223 1.284 . S
C231 O232 1.273 . S
O232 C231 1.273 . S
O233 Zn224 1.977 . S
O233 C226 1.267 . S
C234 O235 1.160 . S
C234 O241 1.185 . S
O235 C234 1.160 . S
O236 Zn237 1.899 . S
O236 C244 1.284 . S
Zn237 O236 1.899 . S
Zn237 O238 2.032 . S
Zn237 O241 2.086 . S
Zn237 O246 1.977 . S
O238 Zn237 2.032 . S
O238 C242 1.278 . S
C239 O240 1.203 . S
C239 O246 1.267 . S
O240 C239 1.203 . S
O241 C234 1.185 . S
O241 Zn237 2.086 . S
C242 O238 1.278 . S
C242 O243 1.211 . S
O243 C242 1.211 . S
C244 O236 1.284 . S
C244 O245 1.273 . S
O245 C244 1.273 . S
O246 Zn237 1.977 . S
O246 C239 1.267 . S
C247 O248 1.160 . S
C247 O254 1.185 . S
O248 C247 1.160 . S
O249 Zn250 1.899 . S
O249 C257 1.284 . S
Zn250 O249 1.899 . S
Zn250 O251 2.032 . S
Zn250 O254 2.086 . S
Zn250 O259 1.977 1_655 S
O251 Zn250 2.032 . S
O251 C255 1.278 . S
C252 O253 1.203 . S
C252 O259 1.267 . S
O253 C252 1.203 . S
O254 C247 1.185 . S
O254 Zn250 2.086 . S
C255 O251 1.278 . S
C255 O256 1.211 . S
O256 C255 1.211 . S
C257 O249 1.284 . S
C257 O258 1.273 . S
O258 C257 1.273 . S
O259 Zn250 1.977 1_455 S
O259 C252 1.267 . S
C260 O261 1.160 . S
C260 O267 1.185 . S
O261 C260 1.160 . S
O262 Zn263 1.899 . S
O262 C270 1.284 . S
Zn263 O262 1.899 . S
Zn263 O264 2.032 . S
Zn263 O267 2.086 . S
Zn263 O272 1.977 . S
O264 Zn263 2.032 . S
O264 C268 1.278 . S
C265 O266 1.203 . S
C265 O272 1.267 . S
O266 C265 1.203 . S
O267 C260 1.185 . S
O267 Zn263 2.086 . S
C268 O264 1.278 . S
C268 O269 1.211 . S
O269 C268 1.211 . S
C270 O262 1.284 . S
C270 O271 1.273 . S
O271 C270 1.273 . S
O272 Zn263 1.977 . S
O272 C265 1.267 . S
C273 O274 1.160 . S
C273 O280 1.185 . S
O274 C273 1.160 . S
O275 Zn276 1.899 . S
O275 C283 1.284 . S
Zn276 O275 1.899 . S
Zn276 O277 2.032 . S
Zn276 O280 2.086 . S
Zn276 O285 1.977 1_655 S
O277 Zn276 2.032 . S
O277 C281 1.278 . S
C278 O279 1.203 . S
C278 O285 1.267 . S
O279 C278 1.203 . S
O280 C273 1.185 . S
O280 Zn276 2.086 . S
C281 O277 1.278 . S
C281 O282 1.211 . S
O282 C281 1.211 . S
C283 O275 1.284 . S
C283 O284 1.273 . S
O284 C283 1.273 . S
O285 Zn276 1.977 1_455 S
O285 C278 1.267 . S
C286 O287 1.160 . S
C286 O293 1.185 . S
O287 C286 1.160 . S
O288 Zn289 1.899 . S
O288 C296 1.284 . S
Zn289 O288 1.899 . S
Zn289 O290 2.032 . S
Zn289 O293 2.086 . S
Zn289 O298 1.977 . S
O290 Zn289 2.032 . S
O290 C294 1.278 . S
C291 O292 1.203 . S
C291 O298 1.267 . S
O292 C291 1.203 . S
O293 C286 1.185 . S
O293 Zn289 2.086 . S
C294 O290 1.278 . S
C294 O295 1.211 . S
O295 C294 1.211 . S
C296 O288 1.284 . S
C296 O297 1.273 . S
O297 C296 1.273 . S
O298 Zn289 1.977 . S
O298 C291 1.267 . S
C299 O300 1.160 . S
C299 O306 1.185 . S
O300 C299 1.160 . S
O301 Zn302 1.899 . S
O301 C309 1.284 . S
Zn302 O301 1.899 . S
Zn302 O303 2.032 . S
Zn302 O306 2.086 . S
Zn302 O311 1.977 . S
O303 Zn302 2.032 . S
O303 C307 1.278 . S
C304 O305 1.203 . S
C304 O311 1.267 . S
O305 C304 1.203 . S
O306 C299 1.185 . S
O306 Zn302 2.086 . S
C307 O303 1.278 . S
C307 O308 1.211 . S
O308 C307 1.211 . S
C309 O301 1.284 . S
C309 O310 1.273 . S
O310 C309 1.273 . S
O311 Zn302 1.977 . S
O311 C304 1.267 . S
C312 O313 1.160 . S
C312 O319 1.185 . S
O313 C312 1.160 . S
O314 Zn315 1.899 . S
O314 C322 1.284 . S
Zn315 O314 1.899 . S
Zn315 O316 2.032 . S
Zn315 O319 2.086 . S
Zn315 O324 1.977 . S
O316 Zn315 2.032 . S
O316 C320 1.278 . S
C317 O318 1.203 . S
C317 O324 1.267 . S
O318 C317 1.203 . S
O319 C312 1.185 . S
O319 Zn315 2.086 . S
C320 O316 1.278 . S
C320 O321 1.211 . S
O321 C320 1.211 . S
C322 O314 1.284 . S
C322 O323 1.273 . S
O323 C322 1.273 . S
O324 Zn315 1.977 . S
O324 C317 1.267 . S
C325 O326 1.160 . S
C325 O332 1.185 . S
O326 C325 1.160 . S
O327 Zn328 1.899 . S
O327 C335 1.284 . S
Zn328 O327 1.899 . S
Zn328 O329 2.032 . S
Zn328 O332 2.086 . S
Zn328 O337 1.977 . S
O329 Zn328 2.032 . S
O329 C333 1.278 . S
C330 O331 1.203 . S
C330 O337 1.267 . S
O331 C330 1.203 . S
O332 C325 1.185 . S
O332 Zn328 2.086 . S
C333 O329 1.278 . S
C333 O334 1.211 . S
O334 C333 1.211 . S
C335 O327 1.284 . S
C335 O336 1.273 . S
O336 C335 1.273 . S
O337 Zn328 1.977 . S
O337 C330 1.267 . S
C338 O339 1.160 . S
C338 O345 1.185 . S
O339 C338 1.160 . S
O340 Zn341 1.899 . S
O340 C348 1.284 . S
Zn341 O340 1.899 . S
Zn341 O342 2.032 . S
Zn341 O345 2.086 . S
Zn341 O350 1.977 . S
O342 Zn341 2.032 . S
O342 C346 1.278 . S
C343 O344 1.203 . S
C343 O350 1.267 . S
O344 C343 1.203 . S
O345 C338 1.185 . S
O345 Zn341 2.086 . S
C346 O342 1.278 . S
C346 O347 1.211 . S
O347 C346 1.211 . S
C348 O340 1.284 . S
C348 O349 1.273 . S
O349 C348 1.273 . S
O350 Zn341 1.977 . S
O350 C343 1.267 . S
C351 O352 1.160 . S
C351 O358 1.185 . S
O352 C351 1.160 . S
O353 Zn354 1.899 . S
O353 C361 1.284 . S
Zn354 O353 1.899 . S
Zn354 O355 2.032 . S
Zn354 O358 2.086 . S
Zn354 O363 1.977 1_455 S
O355 Zn354 2.032 . S
O355 C359 1.278 . S
C356 O357 1.203 . S
C356 O363 1.267 . S
O357 C356 1.203 . S
O358 C351 1.185 . S
O358 Zn354 2.086 . S
C359 O355 1.278 . S
C359 O360 1.211 . S
O360 C359 1.211 . S
C361 O353 1.284 . S
C361 O362 1.273 . S
O362 C361 1.273 . S
O363 Zn354 1.977 1_655 S
O363 C356 1.267 . S
C364 O365 1.160 . S
C364 O371 1.185 . S
O365 C364 1.160 . S
O366 Zn367 1.899 . S
O366 C374 1.284 . S
Zn367 O366 1.899 . S
Zn367 O368 2.032 . S
Zn367 O371 2.086 . S
Zn367 O376 1.977 . S
O368 Zn367 2.032 . S
O368 C372 1.278 . S
C369 O370 1.203 . S
C369 O376 1.267 . S
O370 C369 1.203 . S
O371 C364 1.185 . S
O371 Zn367 2.086 . S
C372 O368 1.278 . S
C372 O373 1.211 . S
O373 C372 1.211 . S
C374 O366 1.284 . S
C374 O375 1.273 . S
O375 C374 1.273 . S
O376 Zn367 1.977 . S
O376 C369 1.267 . S
C377 O378 1.160 . S
C377 O384 1.185 . S
O378 C377 1.160 . S
O379 Zn380 1.899 . S
O379 C387 1.284 . S
Zn380 O379 1.899 . S
Zn380 O381 2.032 . S
Zn380 O384 2.086 . S
Zn380 O389 1.977 1_455 S
O381 Zn380 2.032 . S
O381 C385 1.278 . S
C382 O383 1.203 . S
C382 O389 1.267 . S
O383 C382 1.203 . S
O384 C377 1.185 . S
O384 Zn380 2.086 . S
C385 O381 1.278 . S
C385 O386 1.211 . S
O386 C385 1.211 . S
C387 O379 1.284 . S
C387 O388 1.273 . S
O388 C387 1.273 . S
O389 Zn380 1.977 1_655 S
O389 C382 1.267 . S
C390 O391 1.160 . S
C390 O397 1.185 . S
O391 C390 1.160 . S
O392 Zn393 1.899 . S
O392 C400 1.284 . S
Zn393 O392 1.899 . S
Zn393 O394 2.032 . S
Zn393 O397 2.086 . S
Zn393 O402 1.977 . S
O394 Zn393 2.032 . S
O394 C398 1.278 . S
C395 O396 1.203 . S
C395 O402 1.267 . S
O396 C395 1.203 . S
O397 C390 1.185 . S
O397 Zn393 2.086 . S
C398 O394 1.278 . S
C398 O399 1.211 . S
O399 C398 1.211 . S
C400 O392 1.284 . S
C400 O401 1.273 . S
O401 C400 1.273 . S
O402 Zn393 1.977 . S
O402 C395 1.267 . S
C403 O404 1.160 . S
C403 O410 1.185 . S
O404 C403 1.160 . S
O405 Zn406 1.899 . S
O405 C413 1.284 . S
Zn406 O405 1.899 . S
Zn406 O407 2.032 . S
Zn406 O410 2.086 . S
Zn406 O415 1.977 . S
O407 Zn406 2.032 . S
O407 C411 1.278 . S
C408 O409 1.203 . S
C408 O415 1.267 . S
O409 C408 1.203 . S
O410 C403 1.185 . S
O410 Zn406 2.086 . S
C411 O407 1.278 . S
C411 O412 1.211 . S
O412 C411 1.211 . S
C413 O405 1.284 . S
C413 O414 1.273 . S
O414 C413 1.273 . S
O415 Zn406 1.977 . S
O415 C408 1.267 . S
C416 C417 1.387 . S
C416 H420 0.950 . S
C416 C425 1.390 . S
C417 C416 1.387 . S
C417 C419 1.387 . S
H418 C425 0.950 . S
C419 C417 1.387 . S
C419 C421 1.390 . S
C419 H423 0.950 . S
H420 C416 0.950 . S
C421 C419 1.390 . S
C421 C422 1.387 . S
C421 H424 0.950 . S
C422 C421 1.387 . S
C422 C425 1.387 . S
H423 C419 0.950 . S
H424 C421 0.950 . S
C425 C416 1.390 . S
C425 H418 0.950 . S
C425 C422 1.387 . S
C426 C427 1.387 . S
C426 H430 0.950 . S
C426 C435 1.390 . S
C427 C426 1.387 . S
C427 C429 1.387 . S
H428 C435 0.950 . S
C429 C427 1.387 . S
C429 C431 1.390 . S
C429 H433 0.950 . S
H430 C426 0.950 . S
C431 C429 1.390 . S
C431 C432 1.387 . S
C431 H434 0.950 . S
C432 C431 1.387 . S
C432 C435 1.387 . S
H433 C429 0.950 . S
H434 C431 0.950 . S
C435 C426 1.390 . S
C435 H428 0.950 . S
C435 C432 1.387 . S
C436 C437 1.387 . S
C436 H440 0.950 . S
C436 C445 1.390 . S
C437 C436 1.387 . S
C437 C439 1.387 . S
H438 C445 0.950 . S
C439 C437 1.387 . S
C439 C441 1.390 . S
C439 H443 0.950 . S
H440 C436 0.950 . S
C441 C439 1.390 . S
C441 C442 1.387 . S
C441 H444 0.950 . S
C442 C441 1.387 . S
C442 C445 1.387 . S
H443 C439 0.950 . S
H444 C441 0.950 . S
C445 C436 1.390 . S
C445 H438 0.950 . S
C445 C442 1.387 . S
C446 C447 1.387 . S
C446 H450 0.950 . S
C446 C455 1.390 . S
C447 C446 1.387 . S
C447 C449 1.387 . S
H448 C455 0.950 . S
C449 C447 1.387 . S
C449 C451 1.390 . S
C449 H453 0.950 . S
H450 C446 0.950 . S
C451 C449 1.390 . S
C451 C452 1.387 . S
C451 H454 0.950 . S
C452 C451 1.387 . S
C452 C455 1.387 . S
H453 C449 0.950 . S
H454 C451 0.950 . S
C455 C446 1.390 . S
C455 H448 0.950 . S
C455 C452 1.387 . S
C456 C457 1.387 . S
C456 H460 0.950 . S
C456 C465 1.390 . S
C457 C456 1.387 . S
C457 C459 1.387 . S
H458 C465 0.950 . S
C459 C457 1.387 . S
C459 C461 1.390 . S
C459 H463 0.950 . S
H460 C456 0.950 . S
C461 C459 1.390 . S
C461 C462 1.387 . S
C461 H464 0.950 . S
C462 C461 1.387 . S
C462 C465 1.387 . S
H463 C459 0.950 . S
H464 C461 0.950 . S
C465 C456 1.390 . S
C465 H458 0.950 . S
C465 C462 1.387 . S
C466 C467 1.387 . S
C466 H470 0.950 . S
C466 C475 1.390 . S
C467 C466 1.387 . S
C467 C469 1.387 . S
H468 C475 0.950 . S
C469 C467 1.387 . S
C469 C471 1.390 . S
C469 H473 0.950 . S
H470 C466 0.950 . S
C471 C469 1.390 . S
C471 C472 1.387 . S
C471 H474 0.950 . S
C472 C471 1.387 . S
C472 C475 1.387 . S
H473 C469 0.950 . S
H474 C471 0.950 . S
C475 C466 1.390 . S
C475 H468 0.950 . S
C475 C472 1.387 . S
C476 C477 1.387 . S
C476 H480 0.950 . S
C476 C485 1.390 . S
C477 C476 1.387 . S
C477 C479 1.387 . S
H478 C485 0.950 . S
C479 C477 1.387 . S
C479 C481 1.390 . S
C479 H483 0.950 . S
H480 C476 0.950 . S
C481 C479 1.390 . S
C481 C482 1.387 . S
C481 H484 0.950 . S
C482 C481 1.387 . S
C482 C485 1.387 . S
H483 C479 0.950 . S
H484 C481 0.950 . S
C485 C476 1.390 . S
C485 H478 0.950 . S
C485 C482 1.387 . S
C486 C487 1.387 . S
C486 H490 0.950 . S
C486 C495 1.390 . S
C487 C486 1.387 . S
C487 C489 1.387 . S
H488 C495 0.950 . S
C489 C487 1.387 . S
C489 C491 1.390 . S
C489 H493 0.950 . S
H490 C486 0.950 . S
C491 C489 1.390 . S
C491 C492 1.387 . S
C491 H494 0.950 . S
C492 C491 1.387 . S
C492 C495 1.387 . S
H493 C489 0.950 . S
H494 C491 0.950 . S
C495 C486 1.390 . S
C495 H488 0.950 . S
C495 C492 1.387 . S
C496 C497 1.387 . S
C496 H500 0.950 . S
C496 C505 1.390 . S
C497 C496 1.387 . S
C497 C499 1.387 . S
H498 C505 0.950 . S
C499 C497 1.387 . S
C499 C501 1.390 . S
C499 H503 0.950 . S
H500 C496 0.950 . S
C501 C499 1.390 . S
C501 C502 1.387 . S
C501 H504 0.950 . S
C502 C501 1.387 . S
C502 C505 1.387 . S
H503 C499 0.950 . S
H504 C501 0.950 . S
C505 C496 1.390 . S
C505 H498 0.950 . S
C505 C502 1.387 . S
C506 C507 1.387 . S
C506 H510 0.950 . S
C506 C515 1.390 . S
C507 C506 1.387 . S
C507 C509 1.387 . S
H508 C515 0.950 . S
C509 C507 1.387 . S
C509 C511 1.390 . S
C509 H513 0.950 . S
H510 C506 0.950 . S
C511 C509 1.390 . S
C511 C512 1.387 . S
C511 H514 0.950 . S
C512 C511 1.387 . S
C512 C515 1.387 . S
H513 C509 0.950 . S
H514 C511 0.950 . S
C515 C506 1.390 . S
C515 H508 0.950 . S
C515 C512 1.387 . S
C516 C517 1.387 . S
C516 H520 0.950 . S
C516 C525 1.390 . S
C517 C516 1.387 . S
C517 C519 1.387 . S
H518 C525 0.950 . S
C519 C517 1.387 . S
C519 C521 1.390 . S
C519 H523 0.950 . S
H520 C516 0.950 . S
C521 C519 1.390 . S
C521 C522 1.387 . S
C521 H524 0.950 . S
C522 C521 1.387 . S
C522 C525 1.387 . S
H523 C519 0.950 . S
H524 C521 0.950 . S
C525 C516 1.390 . S
C525 H518 0.950 . S
C525 C522 1.387 . S
C526 C527 1.387 . S
C526 H530 0.950 . S
C526 C535 1.390 . S
C527 C526 1.387 . S
C527 C529 1.387 . S
H528 C535 0.950 . S
C529 C527 1.387 . S
C529 C531 1.390 . S
C529 H533 0.950 . S
H530 C526 0.950 . S
C531 C529 1.390 . S
C531 C532 1.387 . S
C531 H534 0.950 . S
C532 C531 1.387 . S
C532 C535 1.387 . S
H533 C529 0.950 . S
H534 C531 0.950 . S
C535 C526 1.390 . S
C535 H528 0.950 . S
C535 C532 1.387 . S
C536 C537 1.387 . S
C536 H540 0.950 . S
C536 C545 1.390 . S
C537 C536 1.387 . S
C537 C539 1.387 . S
H538 C545 0.950 . S
C539 C537 1.387 . S
C539 C541 1.390 . S
C539 H543 0.950 . S
H540 C536 0.950 . S
C541 C539 1.390 . S
C541 C542 1.387 . S
C541 H544 0.950 . S
C542 C541 1.387 . S
C542 C545 1.387 . S
H543 C539 0.950 . S
H544 C541 0.950 . S
C545 C536 1.390 . S
C545 H538 0.950 . S
C545 C542 1.387 . S
C546 C547 1.387 . S
C546 H550 0.950 . S
C546 C555 1.390 . S
C547 C546 1.387 . S
C547 C549 1.387 . S
H548 C555 0.950 . S
C549 C547 1.387 . S
C549 C551 1.390 . S
C549 H553 0.950 . S
H550 C546 0.950 . S
C551 C549 1.390 . S
C551 C552 1.387 . S
C551 H554 0.950 . S
C552 C551 1.387 . S
C552 C555 1.387 . S
H553 C549 0.950 . S
H554 C551 0.950 . S
C555 C546 1.390 . S
C555 H548 0.950 . S
C555 C552 1.387 . S
C556 C557 1.387 . S
C556 H560 0.950 . S
C556 C565 1.390 . S
C557 C556 1.387 . S
C557 C559 1.387 . S
H558 C565 0.950 . S
C559 C557 1.387 . S
C559 C561 1.390 . S
C559 H563 0.950 . S
H560 C556 0.950 . S
C561 C559 1.390 . S
C561 C562 1.387 . S
C561 H564 0.950 . S
C562 C561 1.387 . S
C562 C565 1.387 . S
H563 C559 0.950 . S
H564 C561 0.950 . S
C565 C556 1.390 . S
C565 H558 0.950 . S
C565 C562 1.387 . S
C566 C567 1.387 . S
C566 H570 0.950 . S
C566 C575 1.390 . S
C567 C566 1.387 . S
C567 C569 1.387 . S
H568 C575 0.950 . S
C569 C567 1.387 . S
C569 C571 1.390 . S
C569 H573 0.950 . S
H570 C566 0.950 . S
C571 C569 1.390 . S
C571 C572 1.387 . S
C571 H574 0.950 . S
C572 C571 1.387 . S
C572 C575 1.387 . S
H573 C569 0.950 . S
H574 C571 0.950 . S
C575 C566 1.390 . S
C575 H568 0.950 . S
C575 C572 1.387 . S
C576 C577 1.387 . S
C576 H580 0.950 . S
C576 C585 1.390 . S
C577 C576 1.387 . S
C577 C579 1.387 . S
H578 C585 0.950 . S
C579 C577 1.387 . S
C579 C581 1.390 . S
C579 H583 0.950 . S
H580 C576 0.950 . S
C581 C579 1.390 . S
C581 C582 1.387 . S
C581 H584 0.950 . S
C582 C581 1.387 . S
C582 C585 1.387 . S
H583 C579 0.950 . S
H584 C581 0.950 . S
C585 C576 1.390 . S
C585 H578 0.950 . S
C585 C582 1.387 . S
C586 C587 1.387 . S
C586 H590 0.950 . S
C586 C595 1.390 . S
C587 C586 1.387 . S
C587 C589 1.387 . S
H588 C595 0.950 . S
C589 C587 1.387 . S
C589 C591 1.390 . S
C589 H593 0.950 . S
H590 C586 0.950 . S
C591 C589 1.390 . S
C591 C592 1.387 . S
C591 H594 0.950 . S
C592 C591 1.387 . S
C592 C595 1.387 . S
H593 C589 0.950 . S
H594 C591 0.950 . S
C595 C586 1.390 . S
C595 H588 0.950 . S
C595 C592 1.387 . S
C596 C597 1.387 . S
C596 H600 0.950 . S
C596 C605 1.390 . S
C597 C596 1.387 . S
C597 C599 1.387 . S
H598 C605 0.950 . S
C599 C597 1.387 . S
C599 C601 1.390 . S
C599 H603 0.950 . S
H600 C596 0.950 . S
C601 C599 1.390 . S
C601 C602 1.387 . S
C601 H604 0.950 . S
C602 C601 1.387 . S
C602 C605 1.387 . S
H603 C599 0.950 . S
H604 C601 0.950 . S
C605 C596 1.390 . S
C605 H598 0.950 . S
C605 C602 1.387 . S
C606 C607 1.387 . S
C606 H610 0.950 . S
C606 C615 1.390 . S
C607 C606 1.387 . S
C607 C609 1.387 . S
H608 C615 0.950 . S
C609 C607 1.387 . S
C609 C611 1.390 . S
C609 H613 0.950 . S
H610 C606 0.950 . S
C611 C609 1.390 . S
C611 C612 1.387 . S
C611 H614 0.950 . S
C612 C611 1.387 . S
C612 C615 1.387 . S
H613 C609 0.950 . S
H614 C611 0.950 . S
C615 C606 1.390 . S
C615 H608 0.950 . S
C615 C612 1.387 . S
C616 C617 1.387 . S
C616 H620 0.950 . S
C616 C625 1.390 . S
C617 C616 1.387 . S
C617 C619 1.387 . S
H618 C625 0.950 . S
C619 C617 1.387 . S
C619 C621 1.390 . S
C619 H623 0.950 . S
H620 C616 0.950 . S
C621 C619 1.390 . S
C621 C622 1.387 . S
C621 H624 0.950 . S
C622 C621 1.387 . S
C622 C625 1.387 . S
H623 C619 0.950 . S
H624 C621 0.950 . S
C625 C616 1.390 . S
C625 H618 0.950 . S
C625 C622 1.387 . S
C626 C627 1.387 . S
C626 H630 0.950 . S
C626 C635 1.390 . S
C627 C626 1.387 . S
C627 C629 1.387 . S
H628 C635 0.950 . S
C629 C627 1.387 . S
C629 C631 1.390 . S
C629 H633 0.950 . S
H630 C626 0.950 . S
C631 C629 1.390 . S
C631 C632 1.387 . S
C631 H634 0.950 . S
C632 C631 1.387 . S
C632 C635 1.387 . S
H633 C629 0.950 . S
H634 C631 0.950 . S
C635 C626 1.390 . S
C635 H628 0.950 . S
C635 C632 1.387 . S
C636 C637 1.387 . S
C636 H640 0.950 . S
C636 C645 1.390 . S
C637 C636 1.387 . S
C637 C639 1.387 . S
H638 C645 0.950 . S
C639 C637 1.387 . S
C639 C641 1.390 . S
C639 H643 0.950 . S
H640 C636 0.950 . S
C641 C639 1.390 . S
C641 C642 1.387 . S
C641 H644 0.950 . S
C642 C641 1.387 . S
C642 C645 1.387 . S
H643 C639 0.950 . S
H644 C641 0.950 . S
C645 C636 1.390 . S
C645 H638 0.950 . S
C645 C642 1.387 . S
C646 C647 1.387 . S
C646 H650 0.950 . S
C646 C655 1.390 . S
C647 C646 1.387 . S
C647 C649 1.387 . S
H648 C655 0.950 . S
C649 C647 1.387 . S
C649 C651 1.390 . S
C649 H653 0.950 . S
H650 C646 0.950 . S
C651 C649 1.390 . S
C651 C652 1.387 . S
C651 H654 0.950 . S
C652 C651 1.387 . S
C652 C655 1.387 . S
H653 C649 0.950 . S
H654 C651 0.950 . S
C655 C646 1.390 . S
C655 H648 0.950 . S
C655 C652 1.387 . S
C656 C657 1.387 . S
C656 H660 0.950 . S
C656 C665 1.390 . S
C657 C656 1.387 . S
C657 C659 1.387 . S
H658 C665 0.950 . S
C659 C657 1.387 . S
C659 C661 1.390 . S
C659 H663 0.950 . S
H660 C656 0.950 . S
C661 C659 1.390 . S
C661 C662 1.387 . S
C661 H664 0.950 . S
C662 C661 1.387 . S
C662 C665 1.387 . S
H663 C659 0.950 . S
H664 C661 0.950 . S
C665 C656 1.390 . S
C665 H658 0.950 . S
C665 C662 1.387 . S
C666 C667 1.387 . S
C666 H670 0.950 . S
C666 C675 1.390 . S
C667 C666 1.387 . S
C667 C669 1.387 . S
H668 C675 0.950 . S
C669 C667 1.387 . S
C669 C671 1.390 . S
C669 H673 0.950 . S
H670 C666 0.950 . S
C671 C669 1.390 . S
C671 C672 1.387 . S
C671 H674 0.950 . S
C672 C671 1.387 . S
C672 C675 1.387 . S
H673 C669 0.950 . S
H674 C671 0.950 . S
C675 C666 1.390 . S
C675 H668 0.950 . S
C675 C672 1.387 . S
C676 C677 1.387 . S
C676 H680 0.950 . S
C676 C685 1.390 . S
C677 C676 1.387 . S
C677 C679 1.387 . S
H678 C685 0.950 . S
C679 C677 1.387 . S
C679 C681 1.390 . S
C679 H683 0.950 . S
H680 C676 0.950 . S
C681 C679 1.390 . S
C681 C682 1.387 . S
C681 H684 0.950 . S
C682 C681 1.387 . S
C682 C685 1.387 . S
H683 C679 0.950 . S
H684 C681 0.950 . S
C685 C676 1.390 . S
C685 H678 0.950 . S
C685 C682 1.387 . S
C686 C687 1.387 . S
C686 H690 0.950 . S
C686 C695 1.390 . S
C687 C686 1.387 . S
C687 C689 1.387 . S
H688 C695 0.950 . S
C689 C687 1.387 . S
C689 C691 1.390 . S
C689 H693 0.950 . S
H690 C686 0.950 . S
C691 C689 1.390 . S
C691 C692 1.387 . S
C691 H694 0.950 . S
C692 C691 1.387 . S
C692 C695 1.387 . S
H693 C689 0.950 . S
H694 C691 0.950 . S
C695 C686 1.390 . S
C695 H688 0.950 . S
C695 C692 1.387 . S
C696 C697 1.387 . S
C696 H700 0.950 . S
C696 C705 1.390 . S
C697 C696 1.387 . S
C697 C699 1.387 . S
H698 C705 0.950 . S
C699 C697 1.387 . S
C699 C701 1.390 . S
C699 H703 0.950 . S
H700 C696 0.950 . S
C701 C699 1.390 . S
C701 C702 1.387 . S
C701 H704 0.950 . S
C702 C701 1.387 . S
C702 C705 1.387 . S
H703 C699 0.950 . S
H704 C701 0.950 . S
C705 C696 1.390 . S
C705 H698 0.950 . S
C705 C702 1.387 . S
C706 C707 1.387 . S
C706 H710 0.950 . S
C706 C715 1.390 . S
C707 C706 1.387 . S
C707 C709 1.387 . S
H708 C715 0.950 . S
C709 C707 1.387 . S
C709 C711 1.390 . S
C709 H713 0.950 . S
H710 C706 0.950 . S
C711 C709 1.390 . S
C711 C712 1.387 . S
C711 H714 0.950 . S
C712 C711 1.387 . S
C712 C715 1.387 . S
H713 C709 0.950 . S
H714 C711 0.950 . S
C715 C706 1.390 . S
C715 H708 0.950 . S
C715 C712 1.387 . S
C716 C717 1.387 . S
C716 H720 0.950 . S
C716 C725 1.390 . S
C717 C716 1.387 . S
C717 C719 1.387 . S
H718 C725 0.950 . S
C719 C717 1.387 . S
C719 C721 1.390 . S
C719 H723 0.950 . S
H720 C716 0.950 . S
C721 C719 1.390 . S
C721 C722 1.387 . S
C721 H724 0.950 . S
C722 C721 1.387 . S
C722 C725 1.387 . S
H723 C719 0.950 . S
H724 C721 0.950 . S
C725 C716 1.390 . S
C725 H718 0.950 . S
C725 C722 1.387 . S
C726 C727 1.387 . S
C726 H730 0.950 . S
C726 C735 1.390 . S
C727 C726 1.387 . S
C727 C729 1.387 . S
H728 C735 0.950 . S
C729 C727 1.387 . S
C729 C731 1.390 . S
C729 H733 0.950 . S
H730 C726 0.950 . S
C731 C729 1.390 . S
C731 C732 1.387 . S
C731 H734 0.950 . S
C732 C731 1.387 . S
C732 C735 1.387 . S
H733 C729 0.950 . S
H734 C731 0.950 . S
C735 C726 1.390 . S
C735 H728 0.950 . S
C735 C732 1.387 . S
C736 C737 1.387 . S
C736 H740 0.950 . S
C736 C745 1.390 . S
C737 C736 1.387 . S
C737 C739 1.387 . S
H738 C745 0.950 . S
C739 C737 1.387 . S
C739 C741 1.390 . S
C739 H743 0.950 . S
H740 C736 0.950 . S
C741 C739 1.390 . S
C741 C742 1.387 . S
C741 H744 0.950 . S
C742 C741 1.387 . S
C742 C745 1.387 . S
H743 C739 0.950 . S
H744 C741 0.950 . S
C745 C736 1.390 . S
C745 H738 0.950 . S
C745 C742 1.387 . S
C746 C747 1.387 1_545 S
C746 H750 0.950 . S
C746 C755 1.390 1_455 S
C747 C746 1.387 1_565 S
C747 C749 1.387 . S
H748 C755 0.950 . S
C749 C747 1.387 . S
C749 C751 1.390 1_455 S
C749 H753 0.950 . S
H750 C746 0.950 . S
C751 C749 1.390 1_655 S
C751 C752 1.387 1_565 S
C751 H754 0.950 . S
C752 C751 1.387 1_545 S
C752 C755 1.387 . S
H753 C749 0.950 . S
H754 C751 0.950 . S
C755 C746 1.390 1_655 S
C755 H748 0.950 . S
C755 C752 1.387 . S
C756 C757 1.387 . S
C756 H760 0.950 . S
C756 C765 1.390 . S
C757 C756 1.387 . S
C757 C759 1.387 . S
H758 C765 0.950 . S
C759 C757 1.387 . S
C759 C761 1.390 . S
C759 H763 0.950 . S
H760 C756 0.950 . S
C761 C759 1.390 . S
C761 C762 1.387 . S
C761 H764 0.950 . S
C762 C761 1.387 . S
C762 C765 1.387 . S
H763 C759 0.950 . S
H764 C761 0.950 . S
C765 C756 1.390 . S
C765 H758 0.950 . S
C765 C762 1.387 . S
C766 C767 1.387 1_565 S
C766 H770 0.950 . S
C766 C775 1.390 1_554 S
C767 C766 1.387 1_545 S
C767 C769 1.387 . S
H768 C775 0.950 . S
C769 C767 1.387 . S
C769 C771 1.390 1_554 S
C769 H773 0.950 . S
H770 C766 0.950 . S
C771 C769 1.390 1_556 S
C771 C772 1.387 1_545 S
C771 H774 0.950 . S
C772 C771 1.387 1_565 S
C772 C775 1.387 . S
H773 C769 0.950 . S
H774 C771 0.950 . S
C775 C766 1.390 1_556 S
C775 H768 0.950 . S
C775 C772 1.387 . S
C776 C777 1.387 . S
C776 H780 0.950 . S
C776 C785 1.390 . S
C777 C776 1.387 . S
C777 C779 1.387 . S
H778 C785 0.950 . S
C779 C777 1.387 . S
C779 C781 1.390 . S
C779 H783 0.950 . S
H780 C776 0.950 . S
C781 C779 1.390 . S
C781 C782 1.387 . S
C781 H784 0.950 . S
C782 C781 1.387 . S
C782 C785 1.387 . S
H783 C779 0.950 . S
H784 C781 0.950 . S
C785 C776 1.390 . S
C785 H778 0.950 . S
C785 C782 1.387 . S
C786 C787 1.387 . S
C786 H790 0.950 . S
C786 C795 1.390 . S
C787 C786 1.387 . S
C787 C789 1.387 1_565 S
H788 C795 0.950 . S
C789 C787 1.387 1_545 S
C789 C791 1.390 . S
C789 H793 0.950 . S
H790 C786 0.950 . S
C791 C789 1.390 . S
C791 C792 1.387 . S
C791 H794 0.950 . S
C792 C791 1.387 . S
C792 C795 1.387 1_545 S
H793 C789 0.950 . S
H794 C791 0.950 . S
C795 C786 1.390 . S
C795 H788 0.950 . S
C795 C792 1.387 1_565 S
C796 C797 1.387 . S
C796 H800 0.950 . S
C796 C805 1.390 . S
C797 C796 1.387 . S
C797 C799 1.387 . S
H798 C805 0.950 . S
C799 C797 1.387 . S
C799 C801 1.390 . S
C799 H803 0.950 . S
H800 C796 0.950 . S
C801 C799 1.390 . S
C801 C802 1.387 . S
C801 H804 0.950 . S
C802 C801 1.387 . S
C802 C805 1.387 . S
H803 C799 0.950 . S
H804 C801 0.950 . S
C805 C796 1.390 . S
C805 H798 0.950 . S
C805 C802 1.387 . S
C806 C807 1.387 1_565 S
C806 H810 0.950 . S
C806 C815 1.390 1_456 S
C807 C806 1.387 1_545 S
C807 C809 1.387 . S
H808 C815 0.950 . S
C809 C807 1.387 . S
C809 C811 1.390 1_456 S
C809 H813 0.950 . S
H810 C806 0.950 . S
C811 C809 1.390 1_654 S
C811 C812 1.387 1_545 S
C811 H814 0.950 . S
C812 C811 1.387 1_565 S
C812 C815 1.387 . S
H813 C809 0.950 . S
H814 C811 0.950 . S
C815 C806 1.390 1_654 S
C815 H808 0.950 . S
C815 C812 1.387 . S
C816 C817 1.387 . S
C816 H820 0.950 . S
C816 C825 1.390 . S
C817 C816 1.387 . S
C817 C819 1.387 . S
H818 C825 0.950 . S
C819 C817 1.387 . S
C819 C821 1.390 . S
C819 H823 0.950 . S
H820 C816 0.950 . S
C821 C819 1.390 . S
C821 C822 1.387 . S
C821 H824 0.950 . S
C822 C821 1.387 . S
C822 C825 1.387 . S
H823 C819 0.950 . S
H824 C821 0.950 . S
C825 C816 1.390 . S
C825 H818 0.950 . S
C825 C822 1.387 . S
C826 C827 1.387 . S
C826 H830 0.950 . S
C826 C835 1.390 . S
C827 C826 1.387 . S
C827 C829 1.387 . S
H828 C835 0.950 . S
C829 C827 1.387 . S
C829 C831 1.390 . S
C829 H833 0.950 . S
H830 C826 0.950 . S
C831 C829 1.390 . S
C831 C832 1.387 . S
C831 H834 0.950 . S
C832 C831 1.387 . S
C832 C835 1.387 . S
H833 C829 0.950 . S
H834 C831 0.950 . S
C835 C826 1.390 . S
C835 H828 0.950 . S
C835 C832 1.387 . S
C836 C837 1.387 . S
C836 H840 0.950 . S
C836 C845 1.390 . S
C837 C836 1.387 . S
C837 C839 1.387 . S
H838 C845 0.950 . S
C839 C837 1.387 . S
C839 C841 1.390 . S
C839 H843 0.950 . S
H840 C836 0.950 . S
C841 C839 1.390 . S
C841 C842 1.387 . S
C841 H844 0.950 . S
C842 C841 1.387 . S
C842 C845 1.387 . S
H843 C839 0.950 . S
H844 C841 0.950 . S
C845 C836 1.390 . S
C845 H838 0.950 . S
C845 C842 1.387 . S
C846 C847 1.387 . S
C846 H850 0.950 . S
C846 C855 1.390 . S
C847 C846 1.387 . S
C847 C849 1.387 . S
H848 C855 0.950 . S
C849 C847 1.387 . S
C849 C851 1.390 . S
C849 H853 0.950 . S
H850 C846 0.950 . S
C851 C849 1.390 . S
C851 C852 1.387 . S
C851 H854 0.950 . S
C852 C851 1.387 . S
C852 C855 1.387 . S
H853 C849 0.950 . S
H854 C851 0.950 . S
C855 C846 1.390 . S
C855 H848 0.950 . S
C855 C852 1.387 . S
C856 C857 1.387 . S
C856 H860 0.950 . S
C856 C865 1.390 1_554 S
C857 C856 1.387 . S
C857 C859 1.387 . S
H858 C865 0.950 . S
C859 C857 1.387 . S
C859 C861 1.390 1_554 S
C859 H863 0.950 . S
H860 C856 0.950 . S
C861 C859 1.390 1_556 S
C861 C862 1.387 . S
C861 H864 0.950 . S
C862 C861 1.387 . S
C862 C865 1.387 . S
H863 C859 0.950 . S
H864 C861 0.950 . S
C865 C856 1.390 1_556 S
C865 H858 0.950 . S
C865 C862 1.387 . S
C866 C867 1.387 . S
C866 H870 0.950 . S
C866 C875 1.390 1_455 S
C867 C866 1.387 . S
C867 C869 1.387 . S
H868 C875 0.950 . S
C869 C867 1.387 . S
C869 C871 1.390 1_455 S
C869 H873 0.950 . S
H870 C866 0.950 . S
C871 C869 1.390 1_655 S
C871 C872 1.387 . S
C871 H874 0.950 . S
C872 C871 1.387 . S
C872 C875 1.387 . S
H873 C869 0.950 . S
H874 C871 0.950 . S
C875 C866 1.390 1_655 S
C875 H868 0.950 . S
C875 C872 1.387 . S
C876 C877 1.387 1_655 S
C876 H880 0.950 . S
C876 C885 1.390 1_554 S
C877 C876 1.387 1_455 S
C877 C879 1.387 . S
H878 C885 0.950 . S
C879 C877 1.387 . S
C879 C881 1.390 1_554 S
C879 H883 0.950 . S
H880 C876 0.950 . S
C881 C879 1.390 1_556 S
C881 C882 1.387 1_455 S
C881 H884 0.950 . S
C882 C881 1.387 1_655 S
C882 C885 1.387 . S
H883 C879 0.950 . S
H884 C881 0.950 . S
C885 C876 1.390 1_556 S
C885 H878 0.950 . S
C885 C882 1.387 . S
C886 C887 1.387 . S
C886 H890 0.950 . S
C886 C895 1.390 . S
C887 C886 1.387 . S
C887 C889 1.387 . S
H888 C895 0.950 . S
C889 C887 1.387 . S
C889 C891 1.390 . S
C889 H893 0.950 . S
H890 C886 0.950 . S
C891 C889 1.390 . S
C891 C892 1.387 . S
C891 H894 0.950 . S
C892 C891 1.387 . S
C892 C895 1.387 . S
H893 C889 0.950 . S
H894 C891 0.950 . S
C895 C886 1.390 . S
C895 H888 0.950 . S
C895 C892 1.387 . S
C896 C897 1.387 . S
C896 H900 0.950 . S
C896 C905 1.390 . S
C897 C896 1.387 . S
C897 C899 1.387 . S
H898 C905 0.950 . S
C899 C897 1.387 . S
C899 C901 1.390 . S
C899 H903 0.950 . S
H900 C896 0.950 . S
C901 C899 1.390 . S
C901 C902 1.387 . S
C901 H904 0.950 . S
C902 C901 1.387 . S
C902 C905 1.387 . S
H903 C899 0.950 . S
H904 C901 0.950 . S
C905 C896 1.390 . S
C905 H898 0.950 . S
C905 C902 1.387 . S
C906 C907 1.387 . S
C906 H910 0.950 . S
C906 C915 1.390 . S
C907 C906 1.387 . S
C907 C909 1.387 . S
H908 C915 0.950 . S
C909 C907 1.387 . S
C909 C911 1.390 . S
C909 H913 0.950 . S
H910 C906 0.950 . S
C911 C909 1.390 . S
C911 C912 1.387 . S
C911 H914 0.950 . S
C912 C911 1.387 . S
C912 C915 1.387 . S
H913 C909 0.950 . S
H914 C911 0.950 . S
C915 C906 1.390 . S
C915 H908 0.950 . S
C915 C912 1.387 . S
C916 C917 1.387 . S
C916 H920 0.950 . S
C916 C925 1.390 . S
C917 C916 1.387 . S
C917 C919 1.387 . S
H918 C925 0.950 . S
C919 C917 1.387 . S
C919 C921 1.390 . S
C919 H923 0.950 . S
H920 C916 0.950 . S
C921 C919 1.390 . S
C921 C922 1.387 . S
C921 H924 0.950 . S
C922 C921 1.387 . S
C922 C925 1.387 . S
H923 C919 0.950 . S
H924 C921 0.950 . S
C925 C916 1.390 . S
C925 H918 0.950 . S
C925 C922 1.387 . S
C926 C927 1.387 . S
C926 H930 0.950 . S
C926 C935 1.390 . S
C927 C926 1.387 . S
C927 C929 1.387 . S
H928 C935 0.950 . S
C929 C927 1.387 . S
C929 C931 1.390 . S
C929 H933 0.950 . S
H930 C926 0.950 . S
C931 C929 1.390 . S
C931 C932 1.387 . S
C931 H934 0.950 . S
C932 C931 1.387 . S
C932 C935 1.387 . S
H933 C929 0.950 . S
H934 C931 0.950 . S
C935 C926 1.390 . S
C935 H928 0.950 . S
C935 C932 1.387 . S
C936 C937 1.387 . S
C936 H940 0.950 . S
C936 C945 1.390 . S
C937 C936 1.387 . S
C937 C939 1.387 . S
H938 C945 0.950 . S
C939 C937 1.387 . S
C939 C941 1.390 . S
C939 H943 0.950 . S
H940 C936 0.950 . S
C941 C939 1.390 . S
C941 C942 1.387 . S
C941 H944 0.950 . S
C942 C941 1.387 . S
C942 C945 1.387 . S
H943 C939 0.950 . S
H944 C941 0.950 . S
C945 C936 1.390 . S
C945 H938 0.950 . S
C945 C942 1.387 . S
C946 C947 1.387 . S
C946 H950 0.950 . S
C946 C955 1.390 . S
C947 C946 1.387 . S
C947 C949 1.387 . S
H948 C955 0.950 . S
C949 C947 1.387 . S
C949 C951 1.390 . S
C949 H953 0.950 . S
H950 C946 0.950 . S
C951 C949 1.390 . S
C951 C952 1.387 . S
C951 H954 0.950 . S
C952 C951 1.387 . S
C952 C955 1.387 . S
H953 C949 0.950 . S
H954 C951 0.950 . S
C955 C946 1.390 . S
C955 H948 0.950 . S
C955 C952 1.387 . S
C956 C957 1.387 . S
C956 H960 0.950 . S
C956 C965 1.390 . S
C957 C956 1.387 . S
C957 C959 1.387 . S
H958 C965 0.950 . S
C959 C957 1.387 . S
C959 C961 1.390 . S
C959 H963 0.950 . S
H960 C956 0.950 . S
C961 C959 1.390 . S
C961 C962 1.387 . S
C961 H964 0.950 . S
C962 C961 1.387 . S
C962 C965 1.387 . S
H963 C959 0.950 . S
H964 C961 0.950 . S
C965 C956 1.390 . S
C965 H958 0.950 . S
C965 C962 1.387 . S
C966 C967 1.387 . S
C966 H970 0.950 . S
C966 C975 1.390 . S
C967 C966 1.387 . S
C967 C969 1.387 . S
H968 C975 0.950 . S
C969 C967 1.387 . S
C969 C971 1.390 . S
C969 H973 0.950 . S
H970 C966 0.950 . S
C971 C969 1.390 . S
C971 C972 1.387 . S
C971 H974 0.950 . S
C972 C971 1.387 . S
C972 C975 1.387 . S
H973 C969 0.950 . S
H974 C971 0.950 . S
C975 C966 1.390 . S
C975 H968 0.950 . S
C975 C972 1.387 . S
C976 C977 1.387 . S
C976 H980 0.950 . S
C976 C985 1.390 . S
C977 C976 1.387 . S
C977 C979 1.387 . S
H978 C985 0.950 . S
C979 C977 1.387 . S
C979 C981 1.390 . S
C979 H983 0.950 . S
H980 C976 0.950 . S
C981 C979 1.390 . S
C981 C982 1.387 . S
C981 H984 0.950 . S
C982 C981 1.387 . S
C982 C985 1.387 . S
H983 C979 0.950 . S
H984 C981 0.950 . S
C985 C976 1.390 . S
C985 H978 0.950 . S
C985 C982 1.387 . S
C986 C987 1.387 . S
C986 H990 0.950 . S
C986 C995 1.390 . S
C987 C986 1.387 . S
C987 C989 1.387 . S
H988 C995 0.950 . S
C989 C987 1.387 . S
C989 C991 1.390 . S
C989 H993 0.950 . S
H990 C986 0.950 . S
C991 C989 1.390 . S
C991 C992 1.387 . S
C991 H994 0.950 . S
C992 C991 1.387 . S
C992 C995 1.387 . S
H993 C989 0.950 . S
H994 C991 0.950 . S
C995 C986 1.390 . S
C995 H988 0.950 . S
C995 C992 1.387 . S
C996 C997 1.387 . S
C996 H1000 0.950 . S
C996 C1005 1.390 . S
C997 C996 1.387 . S
C997 C999 1.387 . S
H998 C1005 0.950 . S
C999 C997 1.387 . S
C999 C1001 1.390 . S
C999 H1003 0.950 . S
H1000 C996 0.950 . S
C1001 C999 1.390 . S
C1001 C1002 1.387 . S
C1001 H1004 0.950 . S
C1002 C1001 1.387 . S
C1002 C1005 1.387 . S
H1003 C999 0.950 . S
H1004 C1001 0.950 . S
C1005 C996 1.390 . S
C1005 H998 0.950 . S
C1005 C1002 1.387 . S
C1006 C1007 1.387 . S
C1006 H1010 0.950 . S
C1006 C1015 1.390 . S
C1007 C1006 1.387 . S
C1007 C1009 1.387 . S
H1008 C1015 0.950 . S
C1009 C1007 1.387 . S
C1009 C1011 1.390 . S
C1009 H1013 0.950 . S
H1010 C1006 0.950 . S
C1011 C1009 1.390 . S
C1011 C1012 1.387 . S
C1011 H1014 0.950 . S
C1012 C1011 1.387 . S
C1012 C1015 1.387 . S
H1013 C1009 0.950 . S
H1014 C1011 0.950 . S
C1015 C1006 1.390 . S
C1015 H1008 0.950 . S
C1015 C1012 1.387 . S
C1016 C1017 1.387 . S
C1016 H1020 0.950 . S
C1016 C1025 1.390 . S
C1017 C1016 1.387 . S
C1017 C1019 1.387 . S
H1018 C1025 0.950 . S
C1019 C1017 1.387 . S
C1019 C1021 1.390 . S
C1019 H1023 0.950 . S
H1020 C1016 0.950 . S
C1021 C1019 1.390 . S
C1021 C1022 1.387 . S
C1021 H1024 0.950 . S
C1022 C1021 1.387 . S
C1022 C1025 1.387 . S
H1023 C1019 0.950 . S
H1024 C1021 0.950 . S
C1025 C1016 1.390 . S
C1025 H1018 0.950 . S
C1025 C1022 1.387 . S
C1026 C1027 1.387 . S
C1026 H1030 0.950 . S
C1026 C1035 1.390 . S
C1027 C1026 1.387 . S
C1027 C1029 1.387 . S
H1028 C1035 0.950 . S
C1029 C1027 1.387 . S
C1029 C1031 1.390 . S
C1029 H1033 0.950 . S
H1030 C1026 0.950 . S
C1031 C1029 1.390 . S
C1031 C1032 1.387 . S
C1031 H1034 0.950 . S
C1032 C1031 1.387 . S
C1032 C1035 1.387 . S
H1033 C1029 0.950 . S
H1034 C1031 0.950 . S
C1035 C1026 1.390 . S
C1035 H1028 0.950 . S
C1035 C1032 1.387 . S
C1036 C1037 1.387 . S
C1036 H1040 0.950 . S
C1036 C1045 1.390 . S
C1037 C1036 1.387 . S
C1037 C1039 1.387 . S
H1038 C1045 0.950 . S
C1039 C1037 1.387 . S
C1039 C1041 1.390 . S
C1039 H1043 0.950 . S
H1040 C1036 0.950 . S
C1041 C1039 1.390 . S
C1041 C1042 1.387 . S
C1041 H1044 0.950 . S
C1042 C1041 1.387 . S
C1042 C1045 1.387 . S
H1043 C1039 0.950 . S
H1044 C1041 0.950 . S
C1045 C1036 1.390 . S
C1045 H1038 0.950 . S
C1045 C1042 1.387 . S
C1046 C1047 1.387 . S
C1046 H1050 0.950 . S
C1046 C1055 1.390 . S
C1047 C1046 1.387 . S
C1047 C1049 1.387 . S
H1048 C1055 0.950 . S
C1049 C1047 1.387 . S
C1049 C1051 1.390 . S
C1049 H1053 0.950 . S
H1050 C1046 0.950 . S
C1051 C1049 1.390 . S
C1051 C1052 1.387 . S
C1051 H1054 0.950 . S
C1052 C1051 1.387 . S
C1052 C1055 1.387 . S
H1053 C1049 0.950 . S
H1054 C1051 0.950 . S
C1055 C1046 1.390 . S
C1055 H1048 0.950 . S
C1055 C1052 1.387 . S
C417 C359 1.446 . S
C422 C5 1.369 . S
C427 C18 1.371 . S
C432 C112 1.445 . S
C437 C333 1.445 . S
C442 C31 1.372 . S
C447 C44 1.371 . S
C452 C138 1.445 . S
C457 C57 1.369 . S
C462 C385 1.446 . S
C467 C70 1.371 . S
C472 C190 1.445 . S
C477 C83 1.371 . S
C482 C411 1.445 . S
C487 C96 1.372 . S
C492 C164 1.445 . S
C497 C255 1.445 . S
C502 C109 1.372 . S
C507 C8 1.446 . S
C512 C122 1.369 . S
C517 C229 1.446 . S
C522 C135 1.368 . S
C527 C148 1.369 . S
C532 C34 1.446 . S
C537 C281 1.445 . S
C542 C161 1.371 . S
C547 C86 1.445 . S
C552 C174 1.370 . S
C557 C187 1.372 . S
C562 C307 1.445 . S
C567 C60 1.446 . S
C572 C200 1.370 . S
C577 C213 1.368 . S
C582 C151 1.447 . S
C587 C226 1.369 . S
C592 C320 1.446 . S
C597 C125 1.446 . S
C602 C239 1.369 . S
C607 C346 1.446 . S
C612 C252 1.368 . S
C617 C177 1.445 . S
C622 C265 1.372 . S
C627 C398 1.444 . S
C632 C278 1.372 . S
C637 C203 1.445 . S
C642 C291 1.372 . S
C647 C304 1.369 . S
C652 C372 1.446 . S
C657 C47 1.447 . S
C662 C317 1.368 . S
C667 C330 1.371 . S
C672 C216 1.445 . S
C677 C343 1.368 . S
C682 C21 1.447 . S
C687 C356 1.370 . S
C692 C242 1.445 . S
C697 C369 1.368 . S
C702 C73 1.446 . S
C707 C382 1.368 . S
C712 C294 1.446 . S
C717 C395 1.368 . S
C722 C99 1.446 . S
C727 C408 1.372 . S
C732 C268 1.445 . S
C737 C322 1.505 . S
C742 C10 1.505 . S
C747 C23 1.505 . S
C752 C127 1.505 . S
C757 C348 1.505 . S
C762 C36 1.505 . S
C767 C49 1.505 . S
C772 C153 1.505 . S
C777 C374 1.505 . S
C782 C62 1.505 . S
C787 C75 1.505 . S
C792 C179 1.505 . S
C797 C400 1.505 . S
C802 C88 1.505 . S
C807 C101 1.505 . S
C812 C205 1.505 . S
C817 C114 1.505 . S
C822 C218 1.505 . S
C827 C140 1.505 . S
C832 C244 1.505 . S
C837 C166 1.505 . S
C842 C270 1.505 . S
C847 C192 1.505 . S
C852 C296 1.505 . S
C857 C231 1.505 . S
C862 C335 1.505 . S
C867 C361 1.505 . S
C872 C257 1.505 . S
C877 C387 1.505 . S
C882 C283 1.505 . S
C887 C309 1.505 . S
C892 C413 1.505 . S
C897 C0 1.172 . S
C902 C65 1.171 . S
C907 C13 1.171 . S
C912 C78 1.172 . S
C917 C26 1.172 . S
C922 C91 1.171 . S
C927 C52 1.172 . S
C932 C39 1.171 . S
C937 C104 1.172 . S
C942 C169 1.171 . S
C947 C117 1.171 . S
C952 C182 1.172 . S
C957 C130 1.172 . S
C962 C195 1.171 . S
C967 C143 1.172 . S
C972 C156 1.173 . S
C977 C208 1.172 . S
C982 C273 1.171 . S
C987 C286 1.172 . S
C992 C221 1.171 . S
C997 C234 1.171 . S
C1002 C299 1.172 . S
C1007 C247 1.171 . S
C1012 C260 1.172 . S
C1017 C377 1.172 . S
C1022 C312 1.173 . S
C1027 C325 1.173 . S
C1032 C390 1.172 . S
C1037 C403 1.172 . S
C1042 C338 1.171 . S
C1047 C351 1.172 . S
C1052 C364 1.171 . S
