# Generated by pormake.
# Topology irl, (4)-cn, num edge types: 1
# Building blocks:
#     Node 0, Type 0, BuildingBlock: QUQFOY_clean_sbu_3, # of connection points: 4
#     Node 1, Type 0, BuildingBlock: QUQFOY_clean_sbu_3, # of connection points: 4
#     Node 2, Type 0, BuildingBlock: QUQFOY_clean_sbu_3, # of connection points: 4
#     Node 3, Type 0, BuildingBlock: QUQFOY_clean_sbu_3, # of connection points: 4
#     Node 4, Type 0, BuildingBlock: QUQFOY_clean_sbu_3, # of connection points: 4
#     Node 5, Type 0, BuildingBlock: QUQFOY_clean_sbu_3, # of connection points: 4
#     Node 6, Type 0, BuildingBlock: QUQFOY_clean_sbu_3, # of connection points: 4
#     Node 7, Type 0, BuildingBlock: QUQFOY_clean_sbu_3, # of connection points: 4
#     Edge 8, Type (0, 0), BuildingBlock: XUDNAN_clean_linker_2, # of connection points: 2
#     Edge 9, Type (0, 0), BuildingBlock: XUDNAN_clean_linker_2, # of connection points: 2
#     Edge 10, Type (0, 0), BuildingBlock: XUDNAN_clean_linker_2, # of connection points: 2
#     Edge 11, Type (0, 0), BuildingBlock: XUDNAN_clean_linker_2, # of connection points: 2
#     Edge 12, Type (0, 0), BuildingBlock: XUDNAN_clean_linker_2, # of connection points: 2
#     Edge 13, Type (0, 0), BuildingBlock: XUDNAN_clean_linker_2, # of connection points: 2
#     Edge 14, Type (0, 0), BuildingBlock: XUDNAN_clean_linker_2, # of connection points: 2
#     Edge 15, Type (0, 0), BuildingBlock: XUDNAN_clean_linker_2, # of connection points: 2
#     Edge 16, Type (0, 0), BuildingBlock: XUDNAN_clean_linker_2, # of connection points: 2
#     Edge 17, Type (0, 0), BuildingBlock: XUDNAN_clean_linker_2, # of connection points: 2
#     Edge 18, Type (0, 0), BuildingBlock: XUDNAN_clean_linker_2, # of connection points: 2
#     Edge 19, Type (0, 0), BuildingBlock: XUDNAN_clean_linker_2, # of connection points: 2
#     Edge 20, Type (0, 0), BuildingBlock: XUDNAN_clean_linker_2, # of connection points: 2
#     Edge 21, Type (0, 0), BuildingBlock: XUDNAN_clean_linker_2, # of connection points: 2
#     Edge 22, Type (0, 0), BuildingBlock: XUDNAN_clean_linker_2, # of connection points: 2
#     Edge 23, Type (0, 0), BuildingBlock: XUDNAN_clean_linker_2, # of connection points: 2
# Relax obj value: 0.062
# Max RMSD: 0.123
# Mean RMSD: 0.123
data_MOF--net-irl--node1-QUQFOY_clean_sbu_3--edge1-XUDNAN_clean_linker_2
_symmetry_space_group_name_H-M    P1
_symmetry_Int_Tables_number       1
_symmetry_cell_setting            triclinic
loop_
_symmetry_equiv_pos_as_xyz
'x, y, z'
_cell_length_a     35.191371
_cell_length_b     45.148816
_cell_length_c     28.879542
_cell_angle_alpha  89.680849
_cell_angle_beta   89.585533
_cell_angle_gamma 89.870599
loop_
_atom_site_label
_atom_site_type_symbol
_atom_site_fract_x
_atom_site_fract_y
_atom_site_fract_z
_atom_type_partial_charge
C0 C -0.00017 0.20469 0.85038 0.0
O1 O 0.96602 0.19883 0.86281 0.0
Cd2 Cd 0.95481 0.17588 0.93724 0.0
O3 O 0.02701 0.20033 0.87817 0.0
Cd4 Cd 0.0373 0.18564 0.95823 0.0
C5 C 0.01368 0.11519 0.9368 0.0
O6 O 0.98109 0.20435 -0.00033 0.0
O7 O 0.01485 0.17026 0.03332 0.0
O8 O 0.06929 0.23221 0.96709 0.0
C9 C 0.98856 0.18945 0.03595 0.0
O10 O 0.9798 0.12519 0.93671 0.0
C11 C 0.10186 0.2217 0.97593 0.0
O12 O 0.04177 0.13278 0.94063 0.0
O13 O 0.10488 0.1936 0.97742 0.0
C14 C 0.02605 0.80442 0.93463 0.0
O15 O 0.05444 0.80797 0.96081 0.0
Cd16 Cd 0.04062 0.835 0.03182 0.0
O17 O 0.99365 0.81424 0.94636 0.0
Cd18 Cd 0.95208 0.83841 0.00115 0.0
C19 C 0.00485 0.9004 -0.01483 0.0
O20 O 0.98313 0.81601 0.06801 0.0
O21 O 0.93664 0.84669 0.08123 0.0
O22 O 0.9192 0.79641 0.97201 0.0
C23 C 0.96174 0.82924 0.09702 0.0
O24 O 0.03122 0.88547 0.00433 0.0
C25 C 0.88666 0.80822 0.96874 0.0
O26 O 0.97226 0.88895 0.97814 0.0
O27 O 0.88374 0.83531 0.98049 0.0
C28 C 0.01044 0.81406 0.60737 0.0
O29 O 0.97839 0.81811 0.58837 0.0
Cd30 Cd 0.97197 0.84086 0.51288 0.0
O31 O 0.04102 0.8204 0.58589 0.0
Cd32 Cd 0.06119 0.83749 0.50885 0.0
C33 C 0.02148 0.90587 0.52179 0.0
O34 O 0.01249 0.81408 0.46054 0.0
O35 O 0.05249 0.8438 0.4269 0.0
O36 O 0.10751 0.79755 0.50992 0.0
C37 C 0.02511 0.82581 0.42345 0.0
O38 O 0.98942 0.89325 0.51708 0.0
C39 C 0.1363 0.81411 0.50451 0.0
O40 O 0.05202 0.89063 0.52265 0.0
O41 O 0.13022 0.84183 0.50193 0.0
C42 C 0.00545 0.21249 0.52052 0.0
O43 O 0.03048 0.2131 0.48873 0.0
Cd44 Cd 0.01284 0.18634 0.42015 0.0
O45 O 0.97329 0.2008 0.51316 0.0
Cd46 Cd 0.92907 0.17806 0.46017 0.0
C47 C 0.98603 0.11889 0.47067 0.0
O48 O 0.95218 0.20404 0.39216 0.0
O49 O 0.9166 0.16568 0.38018 0.0
O50 O 0.89326 0.21881 0.48988 0.0
C51 C 0.93399 0.18807 0.36394 0.0
O52 O 0.00972 0.13516 0.44876 0.0
C53 C 0.86211 0.20535 0.49612 0.0
O54 O 0.95303 0.1286 0.48121 0.0
O55 O 0.86143 0.17794 0.48586 0.0
C56 C 0.50474 0.69569 0.916 0.0
O57 O 0.47847 0.69331 0.94611 0.0
Cd58 Cd 0.49221 0.67183 0.02055 0.0
O59 O 0.53869 0.68865 0.92601 0.0
Cd60 Cd 0.57861 0.67195 -0.01048 0.0
C61 C 0.53424 0.6057 -0.01174 0.0
O62 O 0.54641 0.69621 0.05322 0.0
O63 O 0.58431 0.66 0.07083 0.0
O64 O 0.62225 0.71236 0.97505 0.0
C65 C 0.56335 0.68123 0.08412 0.0
O66 O 0.50595 0.61926 0.00614 0.0
C67 C 0.65085 0.69624 0.96593 0.0
O68 O 0.56417 0.61977 0.97637 0.0
O69 O 0.64599 0.66834 0.96755 0.0
C70 C 0.48627 0.29671 0.95815 0.0
O71 O 0.5139 0.29602 -0.01382 0.0
Cd72 Cd 0.50986 0.32272 0.05794 0.0
O73 O 0.45558 0.31 0.96895 0.0
Cd74 Cd 0.42331 0.33647 0.03193 0.0
C75 C 0.48598 0.39278 0.01821 0.0
O76 O 0.45147 0.30788 0.09476 0.0
O77 O 0.41478 0.34455 0.11409 0.0
O78 O 0.37297 0.3029 0.01236 0.0
C79 C 0.43488 0.32258 0.12633 0.0
O80 O 0.51042 0.37464 0.03417 0.0
C81 C 0.3468 0.32219 0.01028 0.0
O82 O 0.45145 0.38506 0.01296 0.0
O83 O 0.35632 0.34899 0.01701 0.0
C84 C 0.48111 0.27931 0.62779 0.0
O85 O 0.4487 0.28034 0.60874 0.0
Cd86 Cd 0.44026 0.29954 0.53092 0.0
O87 O 0.51052 0.28858 0.60649 0.0
Cd88 Cd 0.53274 0.30978 0.53343 0.0
C89 C 0.47481 0.37061 0.54346 0.0
O90 O 0.49119 0.28143 0.48337 0.0
O91 O 0.52853 0.31368 0.45074 0.0
O92 O 0.58524 0.27531 0.53801 0.0
C93 C 0.50284 0.29426 0.44667 0.0
O94 O 0.44721 0.35286 0.53753 0.0
C95 C 0.61118 0.29474 0.53889 0.0
O96 O 0.50899 0.36107 0.54533 0.0
O97 O 0.6007 0.32173 0.53752 0.0
C98 C 0.48685 0.67684 0.5859 0.0
O99 O 0.519 0.66998 0.56887 0.0
Cd100 Cd 0.52185 0.64656 0.49444 0.0
O101 O 0.45677 0.67278 0.56283 0.0
Cd102 Cd 0.43437 0.6573 0.48722 0.0
C103 C 0.46159 0.58719 0.5112 0.0
O104 O 0.48645 0.67666 0.44104 0.0
O105 O 0.44864 0.64597 0.40682 0.0
O106 O 0.40418 0.70463 0.48867 0.0
C107 C 0.47566 0.66448 0.40395 0.0
O108 O 0.49518 0.59696 0.50496 0.0
C109 C 0.37033 0.69594 0.48337 0.0
O110 O 0.43308 0.60465 0.50923 0.0
O111 O 0.36523 0.66813 0.47946 0.0
H112 H 0.95412 0.94554 0.96576 0.0
H113 H 0.07464 0.92538 0.97352 0.0
H114 H 0.08981 0.97728 0.95506 0.0
H115 H 0.96126 0.00102 0.87133 0.0
H116 H 0.92521 0.0245 0.89647 0.0
H117 H 0.9235 0.98501 0.90569 0.0
H118 H 0.92232 0.99312 -0.00554 0.0
H119 H 0.92403 0.03256 -0.01449 0.0
H120 H 0.95941 0.01461 0.02079 0.0
H121 H 0.09241 0.03175 0.94153 0.0
H122 H 0.0819 0.08568 0.93558 0.0
H123 H 0.9599 0.07113 0.93705 0.0
C124 C 0.98366 0.95196 0.96274 0.0
C125 C 0.01314 0.93133 0.971 0.0
C126 C 0.05149 0.94075 0.96748 0.0
C127 C 0.06048 0.97019 0.95677 0.0
C128 C 0.03084 0.99007 0.94957 0.0
C129 C 0.9932 0.98144 0.95235 0.0
C130 C 0.96689 0.00777 0.94612 0.0
C131 C 0.94279 0.00436 0.90229 0.0
C132 C 0.94169 0.01227 -0.01071 0.0
C133 C -0.00435 0.03252 0.94055 0.0
C134 C 0.03237 0.02176 0.94208 0.0
C135 C 0.06378 0.04047 0.93978 0.0
C136 C 0.05752 0.07109 0.93645 0.0
C137 C 0.02011 0.08273 0.93569 0.0
C138 C 0.98888 0.06301 0.93709 0.0
H139 H 0.9621 0.94567 0.52002 0.0
H140 H 0.0853 0.94047 0.52447 0.0
H141 H 0.08895 0.99482 0.51754 0.0
H142 H 0.95612 0.00106 0.43585 0.0
H143 H 0.91594 0.02 0.4611 0.0
H144 H 0.92246 0.98097 0.47131 0.0
H145 H 0.92095 0.98969 0.55988 0.0
H146 H 0.91413 0.02879 0.54997 0.0
H147 H 0.95316 0.01603 0.58495 0.0
H148 H 0.07981 0.04861 0.50161 0.0
H149 H 0.05846 0.09909 0.48198 0.0
H150 H 0.94095 0.07031 0.48998 0.0
C151 C 0.98985 0.95596 0.52041 0.0
C152 C 0.02344 0.93869 0.52281 0.0
C153 C 0.05916 0.95312 0.52282 0.0
C154 C 0.06154 0.98402 0.5189 0.0
C155 C 0.02795 1.00026 0.5155 0.0
C156 C 0.99275 0.98683 0.51677 0.0
C157 C 0.96112 0.00936 0.51033 0.0
C158 C 0.93754 0.00242 0.46707 0.0
C159 C 0.93585 0.01107 0.55388 0.0
C160 C 0.98414 0.03743 0.50382 0.0
C161 C 0.02262 0.03163 0.50716 0.0
C162 C 0.04976 0.05352 0.4996 0.0
C163 C 0.03731 0.08211 0.48821 0.0
C164 C -0.00198 0.08868 0.48463 0.0
C165 C 0.97112 0.06605 0.49311 0.0
H166 H 0.47292 0.56894 0.00202 0.0
H167 H 0.59267 0.56843 0.96444 0.0
H168 H 0.59184 0.51383 0.96279 0.0
H169 H 0.4753 0.5081 0.07755 0.0
H170 H 0.4299 0.49328 0.06097 0.0
H171 H 0.43886 0.53236 0.05541 0.0
H172 H 0.42171 0.53037 0.96839 0.0
H173 H 0.41252 0.49123 0.9737 0.0
H174 H 0.44612 0.50457 0.9311 0.0
H175 H 0.57992 0.45974 0.97308 0.0
H176 H 0.55683 0.40934 -0.00958 0.0
H177 H 0.44406 0.44437 0.01816 0.0
C178 C 0.49887 0.55739 -0.0072 0.0
C179 C 0.5329 0.57304 0.98341 0.0
C180 C 0.56623 0.55702 0.97163 0.0
C181 C 0.56605 0.52597 0.9706 0.0
C182 C 0.53222 0.51127 0.98084 0.0
C183 C 0.49912 0.5264 -0.0088 0.0
C184 C 0.46695 0.5052 0.00249 0.0
C185 C 0.45189 0.51003 0.05205 0.0
C186 C 0.43493 0.50801 0.96678 0.0
C187 C 0.48743 0.47578 -0.00185 0.0
C188 C 0.52505 0.47985 -0.01448 0.0
C189 C 0.5504 0.45623 0.98227 0.0
C190 C 0.53704 0.42771 -0.00759 0.0
C191 C 0.49861 0.42295 0.00532 0.0
C192 C 0.47341 0.44731 0.0076 0.0
H193 H 0.52458 0.41746 0.53367 0.0
H194 H 0.40569 0.39656 0.5581 0.0
H195 H 0.38982 0.44967 0.55576 0.0
H196 H 0.526 0.4863 0.60113 0.0
H197 H 0.55733 0.50475 0.56068 0.0
H198 H 0.55991 0.46513 0.56783 0.0
H199 H 0.54972 0.45857 0.4797 0.0
H200 H 0.54685 0.49812 0.47234 0.0
H201 H 0.50857 0.47496 0.45286 0.0
H202 H 0.38589 0.50475 0.54595 0.0
H203 H 0.39478 0.55823 0.53104 0.0
H204 H 0.51598 0.54348 0.51274 0.0
C205 C 0.49533 0.42408 0.53935 0.0
C206 C 0.46644 0.40277 0.54617 0.0
C207 C 0.42838 0.4124 0.55275 0.0
C208 C 0.41903 0.44257 0.55156 0.0
C209 C 0.448 0.46295 0.54381 0.0
C210 C 0.48541 0.45419 0.53805 0.0
C211 C 0.51079 0.48058 0.52821 0.0
C212 C 0.54025 0.48441 0.56677 0.0
C213 C 0.5301 0.47789 0.48044 0.0
C214 C 0.48171 0.5054 0.52876 0.0
C215 C 0.44569 0.49478 0.53802 0.0
C216 C 0.41403 0.5134 0.53902 0.0
C217 C 0.41934 0.54374 0.53039 0.0
C218 C 0.45605 0.55516 0.52081 0.0
C219 C 0.48754 0.53558 0.52019 0.0
H220 H 0.97041 0.14881 0.10162 0.0
H221 H 0.96569 0.24274 0.07047 0.0
H222 H 0.94482 0.25274 0.15104 0.0
H223 H 0.88627 0.14841 0.18288 0.0
H224 H 0.90814 0.12076 0.21929 0.0
H225 H 0.9176 0.12111 0.15786 0.0
H226 H 0.98984 0.12358 0.17416 0.0
H227 H 0.98069 0.12371 0.23545 0.0
H228 H 0.00807 0.15314 0.20931 0.0
H229 H 0.93723 0.25273 0.23772 0.0
H230 H 0.93372 0.24225 0.32196 0.0
H231 H 0.93731 0.14803 0.29436 0.0
C232 C 0.96389 0.17138 0.11154 0.0
C233 C 0.96955 0.19507 0.08035 0.0
C234 C 0.96106 0.22435 0.09409 0.0
C235 C 0.94935 0.23019 0.13968 0.0
C236 C 0.94531 0.20636 0.17025 0.0
C237 C 0.95129 0.17745 0.15637 0.0
C238 C 0.94677 0.1559 0.19626 0.0
C239 C 0.91266 0.13534 0.18861 0.0
C240 C 0.98353 0.13806 0.20425 0.0
C241 C 0.9392 0.17728 0.23528 0.0
C242 C 0.93854 0.20631 0.21969 0.0
C243 C 0.93647 0.23009 0.2502 0.0
C244 C 0.93481 0.22398 0.29783 0.0
C245 C 0.93464 0.19439 0.31411 0.0
C246 C 0.93638 0.17082 0.28246 0.0
H247 H 0.06226 0.82378 0.34097 0.0
H248 H 0.95072 0.81451 0.40398 0.0
H249 H 0.9222 0.81024 0.32606 0.0
H250 H 0.03697 0.86747 0.24781 0.0
H251 H 0.06829 0.85015 0.20632 0.0
H252 H 0.08007 0.84963 0.2668 0.0
H253 H 0.08471 0.79234 0.26539 0.0
H254 H 0.07321 0.79266 0.20467 0.0
H255 H 0.04509 0.77102 0.24476 0.0
H256 H 0.9056 0.8151 0.2418 0.0
H257 H 0.9025 0.82249 0.15692 0.0
H258 H 0.0255 0.82352 0.14906 0.0
C259 C 0.03191 0.8203 0.33827 0.0
C260 C 0.0085 0.81956 0.37807 0.0
C261 C 0.96899 0.81493 0.37363 0.0
C262 C 0.95263 0.81255 0.32964 0.0
C263 C 0.97646 0.81404 0.29088 0.0
C264 C 0.01536 0.81712 0.29484 0.0
C265 C 0.03461 0.81889 0.24791 0.0
C266 C 0.05624 0.84828 0.24188 0.0
C267 C 0.06096 0.79213 0.24023 0.0
C268 C 0.00033 0.81759 0.21679 0.0
C269 C 0.96702 0.81489 0.24224 0.0
C270 C 0.93148 0.81638 0.22143 0.0
C271 C 0.92998 0.82073 0.17339 0.0
C272 C 0.9638 0.82303 0.14685 0.0
C273 C -0.00066 0.82101 0.16869 0.0
H274 H 0.06542 0.82473 0.67111 0.0
H275 H 0.9596 0.77763 0.65116 0.0
H276 H 0.9617 0.76 0.73223 0.0
H277 H 0.10914 0.77233 0.75796 0.0
H278 H 0.12833 0.80253 0.79092 0.0
H279 H 0.12328 0.80607 0.72902 0.0
H280 H 0.08306 0.85375 0.74004 0.0
H281 H 0.08844 0.85051 0.80162 0.0
H282 H 0.04157 0.85257 0.77701 0.0
H283 H 0.96978 0.7536 0.81612 0.0
H284 H 0.97832 0.76418 0.89891 0.0
H285 H 0.0782 0.81643 0.8667 0.0
C286 C 0.0433 0.80999 0.68354 0.0
C287 C 0.01256 0.8022 0.65492 0.0
C288 C 0.98343 0.78373 0.6726 0.0
C289 C 0.98466 0.77335 0.71838 0.0
C290 C 0.01512 0.78175 0.74599 0.0
C291 C 0.04378 0.79989 0.72939 0.0
C292 C 0.06988 0.80958 0.76797 0.0
C293 C 0.11004 0.79686 0.76104 0.0
C294 C 0.07074 0.8436 0.77189 0.0
C295 C 0.05025 0.79536 0.80929 0.0
C296 C 0.01947 0.77858 0.7955 0.0
C297 C -0.00573 0.76605 0.82732 0.0
C298 C -0.00061 0.7721 0.87426 0.0
C299 C 0.02932 0.79062 0.88888 0.0
C300 C 0.05604 0.8013 0.85632 0.0
H301 H 0.94928 0.21744 0.78143 0.0
H302 H 0.06984 0.21538 0.81204 0.0
H303 H 0.08456 0.22736 0.7306 0.0
H304 H 0.95438 0.18083 0.68047 0.0
H305 H 0.91834 0.20174 0.6505 0.0
H306 H 0.91719 0.19932 0.71251 0.0
H307 H 0.91762 0.25667 0.71767 0.0
H308 H 0.91889 0.25921 0.65534 0.0
H309 H 0.95482 0.27734 0.68905 0.0
H310 H 0.08653 0.23027 0.64414 0.0
H311 H 0.0749 0.22295 0.56055 0.0
H312 H 0.95343 0.22486 0.5871 0.0
C313 C 0.97873 0.22034 0.7713 0.0
C314 C 0.00833 0.21544 0.80305 0.0
C315 C 0.04658 0.21908 0.78833 0.0
C316 C 0.05529 0.22609 0.74216 0.0
C317 C 0.02544 0.2299 0.71133 0.0
C318 C 0.98788 0.22747 0.72544 0.0
C319 C 0.96122 0.22908 0.68477 0.0
C320 C 0.93637 0.20108 0.68191 0.0
C321 C 0.9367 0.25726 0.68684 0.0
C322 C 0.98972 0.23072 0.64545 0.0
C323 C 0.02661 0.23192 0.66132 0.0
C324 C 0.05776 0.23012 0.63119 0.0
C325 C 0.05094 0.22597 0.5838 0.0
C326 C 0.01331 0.22331 0.5675 0.0
C327 C 0.98253 0.22697 0.59856 0.0
H328 H 0.5416 0.63808 0.14377 0.0
H329 H 0.5622 0.73246 0.13323 0.0
H330 H 0.54529 0.73817 0.2163 0.0
H331 H 0.45863 0.64526 0.21455 0.0
H332 H 0.4676 0.61193 0.24736 0.0
H333 H 0.48469 0.6151 0.18865 0.0
H334 H 0.5532 0.60376 0.21614 0.0
H335 H 0.53633 0.60058 0.275 0.0
H336 H 0.57396 0.62616 0.26078 0.0
H337 H 0.52782 0.73286 0.30066 0.0
H338 H 0.50265 0.71844 0.3778 0.0
H339 H 0.48677 0.62852 0.32974 0.0
C340 C 0.54297 0.65984 0.15931 0.0
C341 C 0.55375 0.68481 0.13304 0.0
C342 C 0.55424 0.71315 0.15348 0.0
C343 C 0.54485 0.71652 0.20042 0.0
C344 C 0.53428 0.69138 0.22561 0.0
C345 C 0.5326 0.66369 0.20554 0.0
C346 C 0.51728 0.64068 0.23894 0.0
C347 C 0.47983 0.62748 0.22132 0.0
C348 C 0.54698 0.61637 0.24826 0.0
C349 C 0.51081 0.65971 0.28112 0.0
C350 C 0.52147 0.68876 0.27303 0.0
C351 C 0.5191 0.71026 0.30733 0.0
C352 C 0.50497 0.70187 0.35092 0.0
C353 C 0.49266 0.6725 0.35918 0.0
C354 C 0.4957 0.65119 0.32393 0.0
H355 H 0.53823 0.29152 0.36336 0.0
H356 H 0.42729 0.28828 0.4292 0.0
H357 H 0.39681 0.29078 0.35216 0.0
H358 H 0.51837 0.3422 0.2796 0.0
H359 H 0.54572 0.32539 0.2337 0.0
H360 H 0.55877 0.31914 0.29301 0.0
H361 H 0.55411 0.26239 0.28153 0.0
H362 H 0.54163 0.2684 0.22177 0.0
H363 H 0.51103 0.24669 0.25894 0.0
H364 H 0.37955 0.30383 0.2703 0.0
H365 H 0.37613 0.31817 0.18748 0.0
H366 H 0.49808 0.3075 0.17428 0.0
C367 C 0.50754 0.2904 0.36129 0.0
C368 C 0.4849 0.28963 0.40169 0.0
C369 C 0.4449 0.28847 0.39828 0.0
C370 C 0.42746 0.29001 0.35481 0.0
C371 C 0.45061 0.2918 0.31547 0.0
C372 C 0.48981 0.29107 0.31826 0.0
C373 C 0.50829 0.29457 0.27111 0.0
C374 C 0.5343 0.32195 0.26928 0.0
C375 C 0.53004 0.26633 0.25754 0.0
C376 C 0.47344 0.29887 0.24157 0.0
C377 C 0.44043 0.29733 0.26779 0.0
C378 C 0.40504 0.30413 0.24911 0.0
C379 C 0.40338 0.31246 0.20234 0.0
C380 C 0.4368 0.31336 0.17492 0.0
C381 C 0.47211 0.30615 0.19456 0.0
H382 H 0.43177 0.29392 0.89157 0.0
H383 H 0.54923 0.2705 0.91902 0.0
H384 H 0.55689 0.25446 0.83789 0.0
H385 H 0.41299 0.23425 0.80384 0.0
H386 H 0.38411 0.25904 0.76979 0.0
H387 H 0.38565 0.26292 0.83186 0.0
H388 H 0.40577 0.31779 0.82209 0.0
H389 H 0.40439 0.3141 0.76027 0.0
H390 H 0.44725 0.32661 0.78772 0.0
H391 H 0.55516 0.24971 0.75229 0.0
H392 H 0.54435 0.25665 0.66868 0.0
H393 H 0.42766 0.28233 0.69674 0.0
C394 C 0.45885 0.28465 0.88096 0.0
C395 C 0.48992 0.28344 0.91166 0.0
C396 C 0.52498 0.27152 0.89618 0.0
C397 C 0.52954 0.26222 0.85022 0.0
C398 C 0.49862 0.26462 0.82047 0.0
C399 C 0.46382 0.27529 0.83535 0.0
C400 C 0.43645 0.27895 0.79551 0.0
C401 C 0.40281 0.2575 0.80056 0.0
C402 C 0.4227 0.31127 0.79115 0.0
C403 C 0.46197 0.27032 0.75543 0.0
C404 C 0.49748 0.26154 0.77068 0.0
C405 C 0.52723 0.2558 0.73996 0.0
C406 C 0.52086 0.25993 0.69257 0.0
C407 C 0.48506 0.26975 0.67639 0.0
C408 C 0.45496 0.27405 0.70814 0.0
H409 H 0.55391 0.69697 0.8429 0.0
H410 H 0.43546 0.71131 0.87964 0.0
H411 H 0.41987 0.71635 0.79671 0.0
H412 H 0.55617 0.74512 0.73569 0.0
H413 H 0.58688 0.71914 0.70647 0.0
H414 H 0.59002 0.72363 0.76833 0.0
H415 H 0.57946 0.66723 0.7794 0.0
H416 H 0.57582 0.66259 0.71791 0.0
H417 H 0.53773 0.65028 0.75532 0.0
H418 H 0.41554 0.71116 0.71119 0.0
H419 H 0.42241 0.69624 0.62972 0.0
H420 H 0.54368 0.68391 0.64923 0.0
C421 C 0.52485 0.70216 0.83373 0.0
C422 C 0.49588 0.70383 0.86773 0.0
C423 C 0.45813 0.7101 0.85417 0.0
C424 C 0.44906 0.7131 0.80717 0.0
C425 C 0.47812 0.71002 0.77445 0.0
C426 C 0.51535 0.70495 0.78719 0.0
C427 C 0.54043 0.69852 0.74568 0.0
C428 C 0.57013 0.72307 0.73863 0.0
C429 C 0.55944 0.66784 0.74985 0.0
C430 C 0.51112 0.69915 0.70777 0.0
C431 C 0.47554 0.7065 0.72489 0.0
C432 C 0.44337 0.70597 0.6972 0.0
C433 C 0.44757 0.69727 0.65102 0.0
C434 C 0.48364 0.68887 0.63315 0.0
C435 C 0.51586 0.69049 0.66174 0.0
H436 H 0.31999 0.26604 -0.0009 0.0
H437 H 0.2837 0.35793 0.00539 0.0
H438 H 0.21682 0.34201 -0.00245 0.0
H439 H 0.251 0.24195 0.91516 0.0
H440 H 0.24461 0.20625 0.94233 0.0
H441 H 0.28945 0.22513 0.94684 0.0
H442 H 0.28512 0.22146 0.03632 0.0
H443 H 0.24012 0.20279 0.03213 0.0
H444 H 0.24393 0.23612 0.06586 0.0
H445 H 0.15418 0.31592 -0.0093 0.0
H446 H 0.09999 0.28184 0.98336 0.0
H447 H 0.17748 0.20685 0.98279 0.0
C448 C 0.29805 0.2829 -0.00155 0.0
C449 C 0.307 0.31326 0.00274 0.0
C450 C 0.27745 0.33457 0.002 0.0
C451 C 0.23943 0.32573 -0.00234 0.0
C452 C 0.23162 0.29555 -0.00586 0.0
C453 C 0.26011 0.27448 -0.00569 0.0
C454 C 0.24418 0.24346 -0.00931 0.0
C455 C 0.25813 0.22832 0.94609 0.0
C456 C 0.25392 0.22487 0.03382 0.0
C457 C 0.20214 0.25032 -0.01133 0.0
C458 C 0.19554 0.2805 -0.00938 0.0
C459 C 0.15901 0.29226 -0.01092 0.0
C460 C 0.12843 0.27269 -0.01503 0.0
C461 C 0.13453 0.24167 0.98258 0.0
C462 C 0.17192 0.23041 0.98479 0.0
H463 H 0.67253 0.75355 0.97975 0.0
H464 H 0.71359 0.66887 0.92927 0.0
H465 H 0.77692 0.69086 0.91525 0.0
H466 H 0.72977 0.80134 0.9016 0.0
H467 H 0.73811 0.82827 0.9462 0.0
H468 H 0.69479 0.80703 0.94661 0.0
H469 H 0.70887 0.78912 0.03018 0.0
H470 H 0.75209 0.81031 0.03006 0.0
H471 H 0.75353 0.77112 0.04225 0.0
H472 H 0.83635 0.72046 0.91289 0.0
H473 H 0.88938 0.75466 0.92656 0.0
H474 H 0.81039 0.8202 0.98034 0.0
C475 C 0.69465 0.73978 0.96489 0.0
C476 C 0.68817 0.70955 0.95524 0.0
C477 C 0.71799 0.69208 0.93676 0.0
C478 C 0.75393 0.70443 0.92844 0.0
C479 C 0.75949 0.73422 0.93884 0.0
C480 C 0.73073 0.75167 0.95679 0.0
C481 C 0.74506 0.78227 0.96897 0.0
C482 C 0.72578 0.80614 0.93905 0.0
C483 C 0.73957 0.78855 0.02094 0.0
C484 C 0.78668 0.77903 0.95636 0.0
C485 C 0.79417 0.75129 0.93827 0.0
C486 C 0.8308 0.74234 0.92654 0.0
C487 C 0.86073 0.76193 0.93457 0.0
C488 C 0.85395 0.7901 0.95448 0.0
C489 C 0.81632 0.799 0.96446 0.0
H490 H 0.1566 0.75542 0.5036 0.0
H491 H 0.20321 0.84432 0.49579 0.0
H492 H 0.26768 0.82332 0.48738 0.0
H493 H 0.23221 0.72303 0.56969 0.0
H494 H 0.23108 0.68814 0.5397 0.0
H495 H 0.1885 0.71012 0.54475 0.0
H496 H 0.18128 0.7098 0.45553 0.0
H497 H 0.22394 0.68792 0.45017 0.0
H498 H 0.21995 0.72265 0.41947 0.0
H499 H 0.32649 0.79319 0.48078 0.0
H500 H 0.37716 0.7557 0.47749 0.0
H501 H 0.29294 0.68577 0.48863 0.0
C502 C 0.18037 0.77048 0.50019 0.0
C503 C 0.17494 0.80154 0.50039 0.0
C504 C 0.20673 0.82049 0.49574 0.0
C505 C 0.24342 0.80877 0.49087 0.0
C506 C 0.24775 0.77809 0.49059 0.0
C507 C 0.21718 0.75916 0.49515 0.0
C508 C 0.22981 0.72703 0.49403 0.0
C509 C 0.21981 0.71115 0.53977 0.0
C510 C 0.21273 0.71091 0.45231 0.0
C511 C 0.27235 0.73087 0.48842 0.0
C512 C 0.28193 0.76055 0.48643 0.0
C513 C 0.31938 0.76989 0.48218 0.0
C514 C 0.34795 0.74836 0.48037 0.0
C515 C 0.339 0.71778 0.48276 0.0
C516 C 0.3006 0.70895 0.4864 0.0
H517 H 0.64107 0.2396 0.52473 0.0
H518 H 0.67255 0.33028 0.55533 0.0
H519 H 0.74032 0.31569 0.55489 0.0
H520 H 0.71611 0.20299 0.59196 0.0
H521 H 0.72305 0.17433 0.54949 0.0
H522 H 0.67694 0.19122 0.55669 0.0
H523 H 0.67617 0.20497 0.46945 0.0
H524 H 0.72217 0.18812 0.46198 0.0
H525 H 0.71486 0.22619 0.4451 0.0
H526 H 0.80408 0.29209 0.54691 0.0
H527 H 0.86025 0.26195 0.52773 0.0
H528 H 0.7876 0.18653 0.50022 0.0
C529 C 0.66218 0.25632 0.53204 0.0
C530 C 0.65162 0.28606 0.54038 0.0
C531 C 0.68007 0.30738 0.54898 0.0
C532 C 0.71856 0.29926 0.54901 0.0
C533 C 0.728 0.26979 0.5403 0.0
C534 C 0.70067 0.24866 0.53181 0.0
C535 C 0.7185 0.219 0.52015 0.0
C536 C 0.70802 0.1955 0.55677 0.0
C537 C 0.70726 0.209 0.47127 0.0
C538 C 0.76022 0.22691 0.52239 0.0
C539 C 0.76498 0.25622 0.53476 0.0
C540 C 0.80073 0.26908 0.53748 0.0
C541 C 0.83246 0.25174 0.52641 0.0
C542 C 0.8283 0.22186 0.5124 0.0
C543 C 0.79168 0.20919 0.51119 0.0
loop_
_geom_bond_atom_site_label_1
_geom_bond_atom_site_label_2
_geom_bond_distance
_geom_bond_site_symmetry_2
_ccdc_geom_bond_type
C0 O1 1.306 1_455 S
C0 O3 1.160 . S
O1 C0 1.306 1_655 S
O1 Cd2 2.228 1_556 S
Cd2 O1 2.228 1_554 S
Cd2 O6 2.273 1_655 S
Cd2 O10 2.277 1_655 S
O3 C0 1.160 . S
O3 Cd4 2.203 1_556 S
Cd4 O3 2.203 1_554 S
Cd4 O6 2.411 . S
Cd4 O7 2.333 . S
Cd4 O8 2.352 . S
Cd4 O12 2.277 . S
Cd4 O13 2.356 . S
C5 O10 1.209 . S
C5 O12 1.226 . S
O6 Cd2 2.273 1_455 S
O6 Cd4 2.411 . S
O6 C9 1.320 . S
O7 Cd4 2.333 . S
O7 C9 1.214 . S
O8 Cd4 2.352 . S
O8 C11 1.258 . S
C9 O6 1.320 . S
C9 O7 1.214 . S
O10 Cd2 2.277 1_455 S
O10 C5 1.209 . S
C11 O8 1.258 . S
C11 O13 1.282 . S
O12 Cd4 2.277 . S
O12 C5 1.226 . S
O13 Cd4 2.356 . S
O13 C11 1.282 . S
C14 O15 1.306 1_655 S
C14 O17 1.160 . S
O15 C14 1.306 1_455 S
O15 Cd16 2.228 1_556 S
Cd16 O15 2.228 1_554 S
Cd16 O20 2.273 1_455 S
Cd16 O24 2.277 1_455 S
O17 C14 1.160 . S
O17 Cd18 2.203 1_556 S
Cd18 O17 2.203 1_554 S
Cd18 O20 2.411 . S
Cd18 O21 2.333 . S
Cd18 O22 2.352 . S
Cd18 O26 2.277 . S
Cd18 O27 2.356 . S
C19 O24 1.209 . S
C19 O26 1.226 . S
O20 Cd16 2.273 1_655 S
O20 Cd18 2.411 . S
O20 C23 1.320 . S
O21 Cd18 2.333 . S
O21 C23 1.214 . S
O22 Cd18 2.352 . S
O22 C25 1.258 . S
C23 O20 1.320 . S
C23 O21 1.214 . S
O24 Cd16 2.277 1_655 S
O24 C19 1.209 . S
C25 O22 1.258 . S
C25 O27 1.282 . S
O26 Cd18 2.277 . S
O26 C19 1.226 . S
O27 Cd18 2.356 . S
O27 C25 1.282 . S
C28 O29 1.306 1_455 S
C28 O31 1.160 . S
O29 C28 1.306 1_655 S
O29 Cd30 2.228 . S
Cd30 O29 2.228 . S
Cd30 O34 2.273 1_655 S
Cd30 O38 2.277 1_655 S
O31 C28 1.160 . S
O31 Cd32 2.203 . S
Cd32 O31 2.203 . S
Cd32 O34 2.411 . S
Cd32 O35 2.333 . S
Cd32 O36 2.352 . S
Cd32 O40 2.277 . S
Cd32 O41 2.356 . S
C33 O38 1.209 . S
C33 O40 1.226 . S
O34 Cd30 2.273 1_455 S
O34 Cd32 2.411 . S
O34 C37 1.320 . S
O35 Cd32 2.333 . S
O35 C37 1.214 . S
O36 Cd32 2.352 . S
O36 C39 1.258 . S
C37 O34 1.320 . S
C37 O35 1.214 . S
O38 Cd30 2.277 1_455 S
O38 C33 1.209 . S
C39 O36 1.258 . S
C39 O41 1.282 . S
O40 Cd32 2.277 . S
O40 C33 1.226 . S
O41 Cd32 2.356 . S
O41 C39 1.282 . S
C42 O43 1.306 1_655 S
C42 O45 1.160 . S
O43 C42 1.306 1_455 S
O43 Cd44 2.228 . S
Cd44 O43 2.228 . S
Cd44 O48 2.273 1_455 S
Cd44 O52 2.277 1_455 S
O45 C42 1.160 . S
O45 Cd46 2.203 . S
Cd46 O45 2.203 . S
Cd46 O48 2.411 . S
Cd46 O49 2.333 . S
Cd46 O50 2.352 . S
Cd46 O54 2.277 . S
Cd46 O55 2.356 . S
C47 O52 1.209 . S
C47 O54 1.226 . S
O48 Cd44 2.273 1_655 S
O48 Cd46 2.411 . S
O48 C51 1.320 . S
O49 Cd46 2.333 . S
O49 C51 1.214 . S
O50 Cd46 2.352 . S
O50 C53 1.258 . S
C51 O48 1.320 . S
C51 O49 1.214 . S
O52 Cd44 2.277 1_655 S
O52 C47 1.209 . S
C53 O50 1.258 . S
C53 O55 1.282 . S
O54 Cd46 2.277 . S
O54 C47 1.226 . S
O55 Cd46 2.356 . S
O55 C53 1.282 . S
C56 O57 1.306 . S
C56 O59 1.160 . S
O57 C56 1.306 . S
O57 Cd58 2.228 1_556 S
Cd58 O57 2.228 1_554 S
Cd58 O62 2.273 . S
Cd58 O66 2.277 . S
O59 C56 1.160 . S
O59 Cd60 2.203 1_556 S
Cd60 O59 2.203 1_554 S
Cd60 O62 2.411 . S
Cd60 O63 2.333 . S
Cd60 O64 2.352 . S
Cd60 O68 2.277 . S
Cd60 O69 2.356 . S
C61 O66 1.209 . S
C61 O68 1.226 . S
O62 Cd58 2.273 . S
O62 Cd60 2.411 . S
O62 C65 1.320 . S
O63 Cd60 2.333 . S
O63 C65 1.214 . S
O64 Cd60 2.352 . S
O64 C67 1.258 . S
C65 O62 1.320 . S
C65 O63 1.214 . S
O66 Cd58 2.277 . S
O66 C61 1.209 . S
C67 O64 1.258 . S
C67 O69 1.282 . S
O68 Cd60 2.277 . S
O68 C61 1.226 . S
O69 Cd60 2.356 . S
O69 C67 1.282 . S
C70 O71 1.306 . S
C70 O73 1.160 . S
O71 C70 1.306 . S
O71 Cd72 2.228 1_556 S
Cd72 O71 2.228 1_554 S
Cd72 O76 2.273 . S
Cd72 O80 2.277 . S
O73 C70 1.160 . S
O73 Cd74 2.203 1_556 S
Cd74 O73 2.203 1_554 S
Cd74 O76 2.411 . S
Cd74 O77 2.333 . S
Cd74 O78 2.352 . S
Cd74 O82 2.277 . S
Cd74 O83 2.356 . S
C75 O80 1.209 . S
C75 O82 1.226 . S
O76 Cd72 2.273 . S
O76 Cd74 2.411 . S
O76 C79 1.320 . S
O77 Cd74 2.333 . S
O77 C79 1.214 . S
O78 Cd74 2.352 . S
O78 C81 1.258 . S
C79 O76 1.320 . S
C79 O77 1.214 . S
O80 Cd72 2.277 . S
O80 C75 1.209 . S
C81 O78 1.258 . S
C81 O83 1.282 . S
O82 Cd74 2.277 . S
O82 C75 1.226 . S
O83 Cd74 2.356 . S
O83 C81 1.282 . S
C84 O85 1.306 . S
C84 O87 1.160 . S
O85 C84 1.306 . S
O85 Cd86 2.228 . S
Cd86 O85 2.228 . S
Cd86 O90 2.273 . S
Cd86 O94 2.277 . S
O87 C84 1.160 . S
O87 Cd88 2.203 . S
Cd88 O87 2.203 . S
Cd88 O90 2.411 . S
Cd88 O91 2.333 . S
Cd88 O92 2.352 . S
Cd88 O96 2.277 . S
Cd88 O97 2.356 . S
C89 O94 1.209 . S
C89 O96 1.226 . S
O90 Cd86 2.273 . S
O90 Cd88 2.411 . S
O90 C93 1.320 . S
O91 Cd88 2.333 . S
O91 C93 1.214 . S
O92 Cd88 2.352 . S
O92 C95 1.258 . S
C93 O90 1.320 . S
C93 O91 1.214 . S
O94 Cd86 2.277 . S
O94 C89 1.209 . S
C95 O92 1.258 . S
C95 O97 1.282 . S
O96 Cd88 2.277 . S
O96 C89 1.226 . S
O97 Cd88 2.356 . S
O97 C95 1.282 . S
C98 O99 1.306 . S
C98 O101 1.160 . S
O99 C98 1.306 . S
O99 Cd100 2.228 . S
Cd100 O99 2.228 . S
Cd100 O104 2.273 . S
Cd100 O108 2.277 . S
O101 C98 1.160 . S
O101 Cd102 2.203 . S
Cd102 O101 2.203 . S
Cd102 O104 2.411 . S
Cd102 O105 2.333 . S
Cd102 O106 2.352 . S
Cd102 O110 2.277 . S
Cd102 O111 2.356 . S
C103 O108 1.209 . S
C103 O110 1.226 . S
O104 Cd100 2.273 . S
O104 Cd102 2.411 . S
O104 C107 1.320 . S
O105 Cd102 2.333 . S
O105 C107 1.214 . S
O106 Cd102 2.352 . S
O106 C109 1.258 . S
C107 O104 1.320 . S
C107 O105 1.214 . S
O108 Cd100 2.277 . S
O108 C103 1.209 . S
C109 O106 1.258 . S
C109 O111 1.282 . S
O110 Cd102 2.277 . S
O110 C103 1.226 . S
O111 Cd102 2.356 . S
O111 C109 1.282 . S
H112 C124 0.930 . S
H113 C126 0.930 1_455 S
H114 C127 0.930 . S
H115 C131 0.959 . S
H116 C131 0.959 . S
H117 C131 0.961 1_565 S
H118 C132 0.960 . S
H119 C132 0.961 1_545 S
H120 C132 0.959 . S
H121 C135 0.929 . S
H122 C136 0.931 . S
H123 C138 0.930 . S
C124 H112 0.930 . S
C124 C125 1.399 . S
C124 C129 1.399 . S
C125 C124 1.399 . S
C125 C126 1.376 1_554 S
C126 H113 0.930 1_655 S
C126 C125 1.376 1_556 S
C126 C127 1.388 1_655 S
C127 H114 0.930 . S
C127 C126 1.388 1_455 S
C127 C128 1.390 . S
C128 C127 1.390 . S
C128 C129 1.394 1_456 S
C128 C134 1.465 1_565 S
C129 C124 1.399 . S
C129 C128 1.394 1_654 S
C129 C130 1.516 1_565 S
C130 C129 1.516 1_545 S
C130 C131 1.502 . S
C130 C132 1.561 1_645 S
C130 C133 1.526 1_655 S
C131 H115 0.959 . S
C131 H116 0.959 . S
C131 H117 0.961 1_545 S
C131 C130 1.502 . S
C132 H118 0.960 . S
C132 H119 0.961 1_565 S
C132 H120 0.959 . S
C132 C130 1.561 1_465 S
C133 C130 1.526 1_455 S
C133 C134 1.396 1_554 S
C133 C138 1.390 . S
C134 C128 1.465 1_545 S
C134 C133 1.396 1_556 S
C134 C135 1.399 . S
C135 H121 0.929 . S
C135 C134 1.399 . S
C135 C136 1.385 . S
C136 H122 0.931 . S
C136 C135 1.385 . S
C136 C137 1.389 1_556 S
C137 C136 1.389 1_554 S
C137 C138 1.387 . S
C138 H123 0.930 . S
C138 C133 1.390 . S
C138 C137 1.387 . S
H139 C151 0.930 1_655 S
H140 C153 0.930 . S
H141 C154 0.930 . S
H142 C158 0.959 . S
H143 C158 0.959 1_545 S
H144 C158 0.961 . S
H145 C159 0.960 1_565 S
H146 C159 0.961 1_655 S
H147 C159 0.959 . S
H148 C162 0.929 . S
H149 C163 0.931 1_455 S
H150 C165 0.930 . S
C151 H139 0.930 1_455 S
C151 C152 1.399 . S
C151 C156 1.399 . S
C152 C151 1.399 . S
C152 C153 1.376 . S
C153 H140 0.930 . S
C153 C152 1.376 . S
C153 C154 1.388 . S
C154 H141 0.930 . S
C154 C153 1.388 . S
C154 C155 1.390 . S
C155 C154 1.390 . S
C155 C156 1.394 . S
C155 C161 1.465 1_565 S
C156 C151 1.399 . S
C156 C155 1.394 . S
C156 C157 1.516 1_455 S
C157 C156 1.516 1_655 S
C157 C158 1.502 . S
C157 C159 1.561 1_665 S
C157 C160 1.526 1_565 S
C158 H142 0.959 . S
C158 H143 0.959 1_565 S
C158 H144 0.961 . S
C158 C157 1.502 . S
C159 H145 0.960 1_545 S
C159 H146 0.961 1_455 S
C159 H147 0.959 . S
C159 C157 1.561 1_445 S
C160 C157 1.526 1_545 S
C160 C161 1.396 1_655 S
C160 C165 1.390 . S
C161 C155 1.465 1_545 S
C161 C160 1.396 1_455 S
C161 C162 1.399 . S
C162 H148 0.929 . S
C162 C161 1.399 . S
C162 C163 1.385 1_455 S
C163 H149 0.931 1_655 S
C163 C162 1.385 1_655 S
C163 C164 1.389 . S
C164 C163 1.389 . S
C164 C165 1.387 . S
C165 H150 0.930 . S
C165 C160 1.390 . S
C165 C164 1.387 . S
H166 C178 0.930 . S
H167 C180 0.930 . S
H168 C181 0.930 . S
H169 C185 0.959 . S
H170 C185 0.959 . S
H171 C185 0.961 . S
H172 C186 0.960 . S
H173 C186 0.961 . S
H174 C186 0.959 . S
H175 C189 0.929 . S
H176 C190 0.931 . S
H177 C192 0.930 . S
C178 H166 0.930 . S
C178 C179 1.399 1_556 S
C178 C183 1.399 . S
C179 C178 1.399 1_554 S
C179 C180 1.376 . S
C180 H167 0.930 . S
C180 C179 1.376 . S
C180 C181 1.388 . S
C181 H168 0.930 . S
C181 C180 1.388 . S
C181 C182 1.390 . S
C182 C181 1.390 . S
C182 C183 1.394 1_554 S
C182 C188 1.465 . S
C183 C178 1.399 . S
C183 C182 1.394 1_556 S
C183 C184 1.516 . S
C184 C183 1.516 . S
C184 C185 1.502 . S
C184 C186 1.561 . S
C184 C187 1.526 . S
C185 H169 0.959 . S
C185 H170 0.959 . S
C185 H171 0.961 . S
C185 C184 1.502 . S
C186 H172 0.960 . S
C186 H173 0.961 . S
C186 H174 0.959 . S
C186 C184 1.561 . S
C187 C184 1.526 . S
C187 C188 1.396 1_556 S
C187 C192 1.390 . S
C188 C182 1.465 . S
C188 C187 1.396 1_554 S
C188 C189 1.399 . S
C189 H175 0.929 . S
C189 C188 1.399 . S
C189 C190 1.385 . S
C190 H176 0.931 . S
C190 C189 1.385 . S
C190 C191 1.389 . S
C191 C190 1.389 . S
C191 C192 1.387 1_554 S
C192 H177 0.930 . S
C192 C187 1.390 . S
C192 C191 1.387 1_556 S
H193 C205 0.930 . S
H194 C207 0.930 . S
H195 C208 0.930 . S
H196 C212 0.959 . S
H197 C212 0.959 . S
H198 C212 0.961 . S
H199 C213 0.960 . S
H200 C213 0.961 . S
H201 C213 0.959 . S
H202 C216 0.929 . S
H203 C217 0.931 . S
H204 C219 0.930 . S
C205 H193 0.930 . S
C205 C206 1.399 . S
C205 C210 1.399 . S
C206 C205 1.399 . S
C206 C207 1.376 . S
C207 H194 0.930 . S
C207 C206 1.376 . S
C207 C208 1.388 . S
C208 H195 0.930 . S
C208 C207 1.388 . S
C208 C209 1.390 . S
C209 C208 1.390 . S
C209 C210 1.394 . S
C209 C215 1.465 . S
C210 C205 1.399 . S
C210 C209 1.394 . S
C210 C211 1.516 . S
C211 C210 1.516 . S
C211 C212 1.502 . S
C211 C213 1.561 . S
C211 C214 1.526 . S
C212 H196 0.959 . S
C212 H197 0.959 . S
C212 H198 0.961 . S
C212 C211 1.502 . S
C213 H199 0.960 . S
C213 H200 0.961 . S
C213 H201 0.959 . S
C213 C211 1.561 . S
C214 C211 1.526 . S
C214 C215 1.396 . S
C214 C219 1.390 . S
C215 C209 1.465 . S
C215 C214 1.396 . S
C215 C216 1.399 . S
C216 H202 0.929 . S
C216 C215 1.399 . S
C216 C217 1.385 . S
C217 H203 0.931 . S
C217 C216 1.385 . S
C217 C218 1.389 . S
C218 C217 1.389 . S
C218 C219 1.387 . S
C219 H204 0.930 . S
C219 C214 1.390 . S
C219 C218 1.387 . S
H220 C232 0.927 1_655 S
H221 C234 0.930 . S
H222 C235 0.930 . S
H223 C239 0.959 . S
H224 C239 0.959 . S
H225 C239 0.961 . S
H226 C240 0.960 . S
H227 C240 0.961 . S
H228 C240 0.959 . S
H229 C243 0.929 . S
H230 C244 0.931 . S
H231 C246 0.930 . S
C232 H220 0.927 1_455 S
C232 C233 1.402 . S
C232 C237 1.399 . S
C233 C232 1.402 . S
C233 C234 1.376 . S
C234 H221 0.930 . S
C234 C233 1.376 . S
C234 C235 1.388 . S
C235 H222 0.930 . S
C235 C234 1.388 . S
C235 C236 1.390 . S
C236 C235 1.390 . S
C236 C237 1.394 . S
C236 C242 1.465 . S
C237 C232 1.399 . S
C237 C236 1.394 . S
C237 C238 1.516 1_455 S
C238 C237 1.516 1_655 S
C238 C239 1.502 . S
C238 C240 1.561 1_655 S
C238 C241 1.526 . S
C239 H223 0.959 . S
C239 H224 0.959 . S
C239 H225 0.961 . S
C239 C238 1.502 . S
C240 H226 0.960 . S
C240 H227 0.961 . S
C240 H228 0.959 . S
C240 C238 1.561 1_455 S
C241 C238 1.526 . S
C241 C242 1.396 1_655 S
C241 C246 1.390 . S
C242 C236 1.465 . S
C242 C241 1.396 1_455 S
C242 C243 1.399 . S
C243 H229 0.929 . S
C243 C242 1.399 . S
C243 C244 1.385 . S
C244 H230 0.931 . S
C244 C243 1.385 . S
C244 C245 1.389 1_455 S
C245 C244 1.389 1_655 S
C245 C246 1.387 . S
C246 H231 0.930 . S
C246 C241 1.390 . S
C246 C245 1.387 . S
H247 C259 0.930 . S
H248 C261 0.930 . S
H249 C262 0.930 . S
H250 C266 0.959 . S
H251 C266 0.959 . S
H252 C266 0.961 . S
H253 C267 0.960 . S
H254 C267 0.961 . S
H255 C267 0.959 . S
H256 C270 0.929 . S
H257 C271 0.931 . S
H258 C273 0.930 . S
C259 H247 0.930 . S
C259 C260 1.399 . S
C259 C264 1.399 . S
C260 C259 1.399 . S
C260 C261 1.376 1_455 S
C261 H248 0.930 . S
C261 C260 1.376 1_655 S
C261 C262 1.388 . S
C262 H249 0.930 . S
C262 C261 1.388 . S
C262 C263 1.390 . S
C263 C262 1.390 . S
C263 C264 1.394 1_655 S
C263 C269 1.465 . S
C264 C259 1.399 . S
C264 C263 1.394 1_455 S
C264 C265 1.516 . S
C265 C264 1.516 . S
C265 C266 1.502 . S
C265 C267 1.561 . S
C265 C268 1.526 . S
C266 H250 0.959 . S
C266 H251 0.959 . S
C266 H252 0.961 . S
C266 C265 1.502 . S
C267 H253 0.960 . S
C267 H254 0.961 . S
C267 H255 0.959 . S
C267 C265 1.561 . S
C268 C265 1.526 . S
C268 C269 1.396 1_455 S
C268 C273 1.390 . S
C269 C263 1.465 . S
C269 C268 1.396 1_655 S
C269 C270 1.399 . S
C270 H256 0.929 . S
C270 C269 1.399 . S
C270 C271 1.385 . S
C271 H257 0.931 . S
C271 C270 1.385 . S
C271 C272 1.389 . S
C272 C271 1.389 . S
C272 C273 1.387 1_655 S
C273 H258 0.930 . S
C273 C268 1.390 . S
C273 C272 1.387 1_455 S
H274 C286 0.930 . S
H275 C288 0.930 . S
H276 C289 0.930 . S
H277 C293 0.959 . S
H278 C293 0.959 . S
H279 C293 0.961 . S
H280 C294 0.960 . S
H281 C294 0.961 . S
H282 C294 0.959 . S
H283 C297 0.929 . S
H284 C298 0.931 . S
H285 C300 0.930 1_455 S
C286 H274 0.930 . S
C286 C287 1.399 . S
C286 C291 1.399 . S
C287 C286 1.399 . S
C287 C288 1.376 1_455 S
C288 H275 0.930 . S
C288 C287 1.376 1_655 S
C288 C289 1.388 . S
C289 H276 0.930 . S
C289 C288 1.388 . S
C289 C290 1.390 . S
C290 C289 1.390 . S
C290 C291 1.394 1_655 S
C290 C296 1.465 . S
C291 C286 1.399 . S
C291 C290 1.394 1_455 S
C291 C292 1.516 . S
C292 C291 1.516 . S
C292 C293 1.502 . S
C292 C294 1.561 1_455 S
C292 C295 1.526 1_455 S
C293 H277 0.959 . S
C293 H278 0.959 . S
C293 H279 0.961 . S
C293 C292 1.502 . S
C294 H280 0.960 . S
C294 H281 0.961 . S
C294 H282 0.959 . S
C294 C292 1.561 1_655 S
C295 C292 1.526 1_655 S
C295 C296 1.396 . S
C295 C300 1.390 . S
C296 C290 1.465 . S
C296 C295 1.396 . S
C296 C297 1.399 . S
C297 H283 0.929 . S
C297 C296 1.399 . S
C297 C298 1.385 . S
C298 H284 0.931 . S
C298 C297 1.385 . S
C298 C299 1.389 . S
C299 C298 1.389 . S
C299 C300 1.387 . S
C300 H285 0.930 1_655 S
C300 C295 1.390 . S
C300 C299 1.387 . S
H301 C313 0.930 . S
H302 C315 0.930 . S
H303 C316 0.930 . S
H304 C320 0.959 . S
H305 C320 0.959 . S
H306 C320 0.961 . S
H307 C321 0.960 . S
H308 C321 0.961 1_655 S
H309 C321 0.959 . S
H310 C324 0.929 . S
H311 C325 0.931 . S
H312 C327 0.930 . S
C313 H301 0.930 . S
C313 C314 1.399 1_655 S
C313 C318 1.399 . S
C314 C313 1.399 1_455 S
C314 C315 1.376 . S
C315 H302 0.930 . S
C315 C314 1.376 . S
C315 C316 1.388 . S
C316 H303 0.930 . S
C316 C315 1.388 . S
C316 C317 1.390 . S
C317 C316 1.390 . S
C317 C318 1.394 1_455 S
C317 C323 1.465 . S
C318 C313 1.399 . S
C318 C317 1.394 1_655 S
C318 C319 1.516 . S
C319 C318 1.516 . S
C319 C320 1.502 . S
C319 C321 1.561 1_655 S
C319 C322 1.526 . S
C320 H304 0.959 . S
C320 H305 0.959 . S
C320 H306 0.961 . S
C320 C319 1.502 . S
C321 H307 0.960 . S
C321 H308 0.961 1_455 S
C321 H309 0.959 . S
C321 C319 1.561 1_455 S
C322 C319 1.526 . S
C322 C323 1.396 1_655 S
C322 C327 1.390 . S
C323 C317 1.465 . S
C323 C322 1.396 1_455 S
C323 C324 1.399 . S
C324 H310 0.929 . S
C324 C323 1.399 . S
C324 C325 1.385 . S
C325 H311 0.931 . S
C325 C324 1.385 . S
C325 C326 1.389 1_455 S
C326 C325 1.389 1_655 S
C326 C327 1.387 . S
C327 H312 0.930 . S
C327 C322 1.390 . S
C327 C326 1.387 . S
H328 C340 0.930 . S
H329 C342 0.930 . S
H330 C343 0.930 . S
H331 C347 0.959 . S
H332 C347 0.959 . S
H333 C347 0.961 . S
H334 C348 0.960 . S
H335 C348 0.961 . S
H336 C348 0.959 . S
H337 C351 0.929 . S
H338 C352 0.931 . S
H339 C354 0.930 . S
C340 H328 0.930 . S
C340 C341 1.399 . S
C340 C345 1.399 . S
C341 C340 1.399 . S
C341 C342 1.376 . S
C342 H329 0.930 . S
C342 C341 1.376 . S
C342 C343 1.388 . S
C343 H330 0.930 . S
C343 C342 1.388 . S
C343 C344 1.390 . S
C344 C343 1.390 . S
C344 C345 1.394 . S
C344 C350 1.465 . S
C345 C340 1.399 . S
C345 C344 1.394 . S
C345 C346 1.516 . S
C346 C345 1.516 . S
C346 C347 1.502 . S
C346 C348 1.561 . S
C346 C349 1.526 . S
C347 H331 0.959 . S
C347 H332 0.959 . S
C347 H333 0.961 . S
C347 C346 1.502 . S
C348 H334 0.960 . S
C348 H335 0.961 . S
C348 H336 0.959 . S
C348 C346 1.561 . S
C349 C346 1.526 . S
C349 C350 1.396 . S
C349 C354 1.390 . S
C350 C344 1.465 . S
C350 C349 1.396 . S
C350 C351 1.399 . S
C351 H337 0.929 . S
C351 C350 1.399 . S
C351 C352 1.385 . S
C352 H338 0.931 . S
C352 C351 1.385 . S
C352 C353 1.389 . S
C353 C352 1.389 . S
C353 C354 1.387 . S
C354 H339 0.930 . S
C354 C349 1.390 . S
C354 C353 1.387 . S
H355 C367 0.930 . S
H356 C369 0.930 . S
H357 C370 0.930 . S
H358 C374 0.959 . S
H359 C374 0.959 . S
H360 C374 0.961 . S
H361 C375 0.960 . S
H362 C375 0.961 . S
H363 C375 0.959 . S
H364 C378 0.929 . S
H365 C379 0.931 . S
H366 C381 0.930 . S
C367 H355 0.930 . S
C367 C368 1.399 . S
C367 C372 1.399 . S
C368 C367 1.399 . S
C368 C369 1.376 . S
C369 H356 0.930 . S
C369 C368 1.376 . S
C369 C370 1.388 . S
C370 H357 0.930 . S
C370 C369 1.388 . S
C370 C371 1.390 . S
C371 C370 1.390 . S
C371 C372 1.394 . S
C371 C377 1.465 . S
C372 C367 1.399 . S
C372 C371 1.394 . S
C372 C373 1.516 . S
C373 C372 1.516 . S
C373 C374 1.502 . S
C373 C375 1.561 . S
C373 C376 1.526 . S
C374 H358 0.959 . S
C374 H359 0.959 . S
C374 H360 0.961 . S
C374 C373 1.502 . S
C375 H361 0.960 . S
C375 H362 0.961 . S
C375 H363 0.959 . S
C375 C373 1.561 . S
C376 C373 1.526 . S
C376 C377 1.396 . S
C376 C381 1.390 . S
C377 C371 1.465 . S
C377 C376 1.396 . S
C377 C378 1.399 . S
C378 H364 0.929 . S
C378 C377 1.399 . S
C378 C379 1.385 . S
C379 H365 0.931 . S
C379 C378 1.385 . S
C379 C380 1.389 . S
C380 C379 1.389 . S
C380 C381 1.387 . S
C381 H366 0.930 . S
C381 C376 1.390 . S
C381 C380 1.387 . S
H382 C394 0.930 . S
H383 C396 0.930 . S
H384 C397 0.930 . S
H385 C401 0.959 . S
H386 C401 0.959 . S
H387 C401 0.961 . S
H388 C402 0.960 . S
H389 C402 0.961 . S
H390 C402 0.959 . S
H391 C405 0.929 . S
H392 C406 0.931 . S
H393 C408 0.930 . S
C394 H382 0.930 . S
C394 C395 1.399 . S
C394 C399 1.399 . S
C395 C394 1.399 . S
C395 C396 1.376 . S
C396 H383 0.930 . S
C396 C395 1.376 . S
C396 C397 1.388 . S
C397 H384 0.930 . S
C397 C396 1.388 . S
C397 C398 1.390 . S
C398 C397 1.390 . S
C398 C399 1.394 . S
C398 C404 1.465 . S
C399 C394 1.399 . S
C399 C398 1.394 . S
C399 C400 1.516 . S
C400 C399 1.516 . S
C400 C401 1.502 . S
C400 C402 1.561 . S
C400 C403 1.526 . S
C401 H385 0.959 . S
C401 H386 0.959 . S
C401 H387 0.961 . S
C401 C400 1.502 . S
C402 H388 0.960 . S
C402 H389 0.961 . S
C402 H390 0.959 . S
C402 C400 1.561 . S
C403 C400 1.526 . S
C403 C404 1.396 . S
C403 C408 1.390 . S
C404 C398 1.465 . S
C404 C403 1.396 . S
C404 C405 1.399 . S
C405 H391 0.929 . S
C405 C404 1.399 . S
C405 C406 1.385 . S
C406 H392 0.931 . S
C406 C405 1.385 . S
C406 C407 1.389 . S
C407 C406 1.389 . S
C407 C408 1.387 . S
C408 H393 0.930 . S
C408 C403 1.390 . S
C408 C407 1.387 . S
H409 C421 0.930 . S
H410 C423 0.930 . S
H411 C424 0.930 . S
H412 C428 0.959 . S
H413 C428 0.959 . S
H414 C428 0.961 . S
H415 C429 0.960 . S
H416 C429 0.961 . S
H417 C429 0.959 . S
H418 C432 0.929 . S
H419 C433 0.931 . S
H420 C435 0.930 . S
C421 H409 0.930 . S
C421 C422 1.399 . S
C421 C426 1.399 . S
C422 C421 1.399 . S
C422 C423 1.376 . S
C423 H410 0.930 . S
C423 C422 1.376 . S
C423 C424 1.388 . S
C424 H411 0.930 . S
C424 C423 1.388 . S
C424 C425 1.390 . S
C425 C424 1.390 . S
C425 C426 1.394 . S
C425 C431 1.465 . S
C426 C421 1.399 . S
C426 C425 1.394 . S
C426 C427 1.516 . S
C427 C426 1.516 . S
C427 C428 1.502 . S
C427 C429 1.561 . S
C427 C430 1.526 . S
C428 H412 0.959 . S
C428 H413 0.959 . S
C428 H414 0.961 . S
C428 C427 1.502 . S
C429 H415 0.960 . S
C429 H416 0.961 . S
C429 H417 0.959 . S
C429 C427 1.561 . S
C430 C427 1.526 . S
C430 C431 1.396 . S
C430 C435 1.390 . S
C431 C425 1.465 . S
C431 C430 1.396 . S
C431 C432 1.399 . S
C432 H418 0.929 . S
C432 C431 1.399 . S
C432 C433 1.385 . S
C433 H419 0.931 . S
C433 C432 1.385 . S
C433 C434 1.389 . S
C434 C433 1.389 . S
C434 C435 1.387 . S
C435 H420 0.930 . S
C435 C430 1.390 . S
C435 C434 1.387 . S
H436 C448 0.930 . S
H437 C450 0.930 . S
H438 C451 0.930 . S
H439 C455 0.959 . S
H440 C455 0.959 . S
H441 C455 0.961 . S
H442 C456 0.960 . S
H443 C456 0.961 . S
H444 C456 0.959 . S
H445 C459 0.929 . S
H446 C460 0.931 . S
H447 C462 0.930 . S
C448 H436 0.930 . S
C448 C449 1.399 1_556 S
C448 C453 1.399 . S
C449 C448 1.399 1_554 S
C449 C450 1.376 . S
C450 H437 0.930 . S
C450 C449 1.376 . S
C450 C451 1.388 . S
C451 H438 0.930 . S
C451 C450 1.388 . S
C451 C452 1.390 . S
C452 C451 1.390 . S
C452 C453 1.394 1_554 S
C452 C458 1.465 . S
C453 C448 1.399 . S
C453 C452 1.394 1_556 S
C453 C454 1.516 . S
C454 C453 1.516 . S
C454 C455 1.502 . S
C454 C456 1.561 . S
C454 C457 1.526 . S
C455 H439 0.959 . S
C455 H440 0.959 . S
C455 H441 0.961 . S
C455 C454 1.502 . S
C456 H442 0.960 . S
C456 H443 0.961 . S
C456 H444 0.959 . S
C456 C454 1.561 . S
C457 C454 1.526 . S
C457 C458 1.396 1_556 S
C457 C462 1.390 . S
C458 C452 1.465 . S
C458 C457 1.396 1_554 S
C458 C459 1.399 . S
C459 H445 0.929 . S
C459 C458 1.399 . S
C459 C460 1.385 . S
C460 H446 0.931 . S
C460 C459 1.385 . S
C460 C461 1.389 . S
C461 C460 1.389 . S
C461 C462 1.387 1_554 S
C462 H447 0.930 . S
C462 C457 1.390 . S
C462 C461 1.387 1_556 S
H463 C475 0.930 . S
H464 C477 0.930 . S
H465 C478 0.930 . S
H466 C482 0.959 . S
H467 C482 0.959 . S
H468 C482 0.961 . S
H469 C483 0.960 . S
H470 C483 0.961 . S
H471 C483 0.959 . S
H472 C486 0.929 . S
H473 C487 0.931 . S
H474 C489 0.930 . S
C475 H463 0.930 . S
C475 C476 1.399 1_556 S
C475 C480 1.399 . S
C476 C475 1.399 1_554 S
C476 C477 1.376 . S
C477 H464 0.930 . S
C477 C476 1.376 . S
C477 C478 1.388 . S
C478 H465 0.930 . S
C478 C477 1.388 . S
C478 C479 1.390 . S
C479 C478 1.390 . S
C479 C480 1.394 1_554 S
C479 C485 1.465 . S
C480 C475 1.399 . S
C480 C479 1.394 1_556 S
C480 C481 1.516 . S
C481 C480 1.516 . S
C481 C482 1.502 . S
C481 C483 1.561 . S
C481 C484 1.526 . S
C482 H466 0.959 . S
C482 H467 0.959 . S
C482 H468 0.961 . S
C482 C481 1.502 . S
C483 H469 0.960 . S
C483 H470 0.961 . S
C483 H471 0.959 . S
C483 C481 1.561 . S
C484 C481 1.526 . S
C484 C485 1.396 1_556 S
C484 C489 1.390 . S
C485 C479 1.465 . S
C485 C484 1.396 1_554 S
C485 C486 1.399 . S
C486 H472 0.929 . S
C486 C485 1.399 . S
C486 C487 1.385 . S
C487 H473 0.931 . S
C487 C486 1.385 . S
C487 C488 1.389 . S
C488 C487 1.389 . S
C488 C489 1.387 1_554 S
C489 H474 0.930 . S
C489 C484 1.390 . S
C489 C488 1.387 1_556 S
H490 C502 0.930 . S
H491 C504 0.930 . S
H492 C505 0.930 . S
H493 C509 0.959 . S
H494 C509 0.959 . S
H495 C509 0.961 . S
H496 C510 0.960 . S
H497 C510 0.961 . S
H498 C510 0.959 . S
H499 C513 0.929 . S
H500 C514 0.931 . S
H501 C516 0.930 . S
C502 H490 0.930 . S
C502 C503 1.399 . S
C502 C507 1.399 . S
C503 C502 1.399 . S
C503 C504 1.376 . S
C504 H491 0.930 . S
C504 C503 1.376 . S
C504 C505 1.388 . S
C505 H492 0.930 . S
C505 C504 1.388 . S
C505 C506 1.390 . S
C506 C505 1.390 . S
C506 C507 1.394 . S
C506 C512 1.465 . S
C507 C502 1.399 . S
C507 C506 1.394 . S
C507 C508 1.516 . S
C508 C507 1.516 . S
C508 C509 1.502 . S
C508 C510 1.561 . S
C508 C511 1.526 . S
C509 H493 0.959 . S
C509 H494 0.959 . S
C509 H495 0.961 . S
C509 C508 1.502 . S
C510 H496 0.960 . S
C510 H497 0.961 . S
C510 H498 0.959 . S
C510 C508 1.561 . S
C511 C508 1.526 . S
C511 C512 1.396 . S
C511 C516 1.390 . S
C512 C506 1.465 . S
C512 C511 1.396 . S
C512 C513 1.399 . S
C513 H499 0.929 . S
C513 C512 1.399 . S
C513 C514 1.385 . S
C514 H500 0.931 . S
C514 C513 1.385 . S
C514 C515 1.389 . S
C515 C514 1.389 . S
C515 C516 1.387 . S
C516 H501 0.930 . S
C516 C511 1.390 . S
C516 C515 1.387 . S
H517 C529 0.930 . S
H518 C531 0.930 . S
H519 C532 0.930 . S
H520 C536 0.959 . S
H521 C536 0.959 . S
H522 C536 0.961 . S
H523 C537 0.960 . S
H524 C537 0.961 . S
H525 C537 0.959 . S
H526 C540 0.929 . S
H527 C541 0.931 . S
H528 C543 0.930 . S
C529 H517 0.930 . S
C529 C530 1.399 . S
C529 C534 1.399 . S
C530 C529 1.399 . S
C530 C531 1.376 . S
C531 H518 0.930 . S
C531 C530 1.376 . S
C531 C532 1.388 . S
C532 H519 0.930 . S
C532 C531 1.388 . S
C532 C533 1.390 . S
C533 C532 1.390 . S
C533 C534 1.394 . S
C533 C539 1.465 . S
C534 C529 1.399 . S
C534 C533 1.394 . S
C534 C535 1.516 . S
C535 C534 1.516 . S
C535 C536 1.502 . S
C535 C537 1.561 . S
C535 C538 1.526 . S
C536 H520 0.959 . S
C536 H521 0.959 . S
C536 H522 0.961 . S
C536 C535 1.502 . S
C537 H523 0.960 . S
C537 H524 0.961 . S
C537 H525 0.959 . S
C537 C535 1.561 . S
C538 C535 1.526 . S
C538 C539 1.396 . S
C538 C543 1.390 . S
C539 C533 1.465 . S
C539 C538 1.396 . S
C539 C540 1.399 . S
C540 H526 0.929 . S
C540 C539 1.399 . S
C540 C541 1.385 . S
C541 H527 0.931 . S
C541 C540 1.385 . S
C541 C542 1.389 . S
C542 C541 1.389 . S
C542 C543 1.387 . S
C543 H528 0.930 . S
C543 C538 1.390 . S
C543 C542 1.387 . S
C125 C19 1.491 . S
C137 C5 1.501 . S
C152 C33 1.502 . S
C164 C47 1.492 . S
C179 C61 1.501 . S
C191 C75 1.493 . S
C206 C89 1.491 . S
C218 C103 1.501 . S
C233 C9 1.236 . S
C245 C51 1.282 . S
C260 C37 1.280 . S
C272 C23 1.209 . S
C287 C28 1.312 . S
C299 C14 1.305 . S
C314 C0 1.264 . S
C326 C42 1.274 . S
C341 C65 1.248 . S
C353 C107 1.275 . S
C368 C93 1.262 . S
C380 C79 1.215 . S
C395 C70 1.311 . S
C407 C84 1.304 . S
C422 C56 1.311 . S
C434 C98 1.303 . S
C449 C81 1.498 . S
C461 C11 1.501 . S
C476 C67 1.502 . S
C488 C25 1.497 . S
C503 C39 1.495 . S
C515 C109 1.509 . S
C530 C95 1.499 . S
C542 C53 1.500 . S
