# Generated by pormake.
# Topology ull, (4)-cn, num edge types: 1
# Building blocks:
#     Node 0, Type 0, BuildingBlock: CEKHIL_clean_sbu_0, # of connection points: 4
#     Node 1, Type 0, BuildingBlock: CEKHIL_clean_sbu_0, # of connection points: 4
#     Node 2, Type 0, BuildingBlock: CEKHIL_clean_sbu_0, # of connection points: 4
#     Node 3, Type 0, BuildingBlock: CEKHIL_clean_sbu_0, # of connection points: 4
#     Node 4, Type 0, BuildingBlock: CEKHIL_clean_sbu_0, # of connection points: 4
#     Node 5, Type 0, BuildingBlock: CEKHIL_clean_sbu_0, # of connection points: 4
#     Node 6, Type 0, BuildingBlock: CEKHIL_clean_sbu_0, # of connection points: 4
#     Node 7, Type 0, BuildingBlock: CEKHIL_clean_sbu_0, # of connection points: 4
#     Node 8, Type 0, BuildingBlock: CEKHIL_clean_sbu_0, # of connection points: 4
#     Node 9, Type 0, BuildingBlock: CEKHIL_clean_sbu_0, # of connection points: 4
#     Node 10, Type 0, BuildingBlock: CEKHIL_clean_sbu_0, # of connection points: 4
#     Node 11, Type 0, BuildingBlock: CEKHIL_clean_sbu_0, # of connection points: 4
#     Node 12, Type 0, BuildingBlock: CEKHIL_clean_sbu_0, # of connection points: 4
#     Node 13, Type 0, BuildingBlock: CEKHIL_clean_sbu_0, # of connection points: 4
#     Node 14, Type 0, BuildingBlock: CEKHIL_clean_sbu_0, # of connection points: 4
#     Node 15, Type 0, BuildingBlock: CEKHIL_clean_sbu_0, # of connection points: 4
#     Node 16, Type 0, BuildingBlock: CEKHIL_clean_sbu_0, # of connection points: 4
#     Node 17, Type 0, BuildingBlock: CEKHIL_clean_sbu_0, # of connection points: 4
#     Node 18, Type 0, BuildingBlock: CEKHIL_clean_sbu_0, # of connection points: 4
#     Node 19, Type 0, BuildingBlock: CEKHIL_clean_sbu_0, # of connection points: 4
#     Node 20, Type 0, BuildingBlock: CEKHIL_clean_sbu_0, # of connection points: 4
#     Node 21, Type 0, BuildingBlock: CEKHIL_clean_sbu_0, # of connection points: 4
#     Node 22, Type 0, BuildingBlock: CEKHIL_clean_sbu_0, # of connection points: 4
#     Node 23, Type 0, BuildingBlock: CEKHIL_clean_sbu_0, # of connection points: 4
#     Node 24, Type 0, BuildingBlock: CEKHIL_clean_sbu_0, # of connection points: 4
#     Node 25, Type 0, BuildingBlock: CEKHIL_clean_sbu_0, # of connection points: 4
#     Node 26, Type 0, BuildingBlock: CEKHIL_clean_sbu_0, # of connection points: 4
#     Node 27, Type 0, BuildingBlock: CEKHIL_clean_sbu_0, # of connection points: 4
#     Node 28, Type 0, BuildingBlock: CEKHIL_clean_sbu_0, # of connection points: 4
#     Node 29, Type 0, BuildingBlock: CEKHIL_clean_sbu_0, # of connection points: 4
#     Node 30, Type 0, BuildingBlock: CEKHIL_clean_sbu_0, # of connection points: 4
#     Node 31, Type 0, BuildingBlock: CEKHIL_clean_sbu_0, # of connection points: 4
#     Node 32, Type 0, BuildingBlock: CEKHIL_clean_sbu_0, # of connection points: 4
#     Node 33, Type 0, BuildingBlock: CEKHIL_clean_sbu_0, # of connection points: 4
#     Node 34, Type 0, BuildingBlock: CEKHIL_clean_sbu_0, # of connection points: 4
#     Node 35, Type 0, BuildingBlock: CEKHIL_clean_sbu_0, # of connection points: 4
#     Node 36, Type 0, BuildingBlock: CEKHIL_clean_sbu_0, # of connection points: 4
#     Node 37, Type 0, BuildingBlock: CEKHIL_clean_sbu_0, # of connection points: 4
#     Node 38, Type 0, BuildingBlock: CEKHIL_clean_sbu_0, # of connection points: 4
#     Node 39, Type 0, BuildingBlock: CEKHIL_clean_sbu_0, # of connection points: 4
#     Node 40, Type 0, BuildingBlock: CEKHIL_clean_sbu_0, # of connection points: 4
#     Node 41, Type 0, BuildingBlock: CEKHIL_clean_sbu_0, # of connection points: 4
#     Node 42, Type 0, BuildingBlock: CEKHIL_clean_sbu_0, # of connection points: 4
#     Node 43, Type 0, BuildingBlock: CEKHIL_clean_sbu_0, # of connection points: 4
#     Node 44, Type 0, BuildingBlock: CEKHIL_clean_sbu_0, # of connection points: 4
#     Node 45, Type 0, BuildingBlock: CEKHIL_clean_sbu_0, # of connection points: 4
#     Node 46, Type 0, BuildingBlock: CEKHIL_clean_sbu_0, # of connection points: 4
#     Node 47, Type 0, BuildingBlock: CEKHIL_clean_sbu_0, # of connection points: 4
#     Edge 48, Type (0, 0), BuildingBlock: MIFKUJ_clean_linker_0, # of connection points: 2
#     Edge 49, Type (0, 0), BuildingBlock: MIFKUJ_clean_linker_0, # of connection points: 2
#     Edge 50, Type (0, 0), BuildingBlock: MIFKUJ_clean_linker_0, # of connection points: 2
#     Edge 51, Type (0, 0), BuildingBlock: MIFKUJ_clean_linker_0, # of connection points: 2
#     Edge 52, Type (0, 0), BuildingBlock: MIFKUJ_clean_linker_0, # of connection points: 2
#     Edge 53, Type (0, 0), BuildingBlock: MIFKUJ_clean_linker_0, # of connection points: 2
#     Edge 54, Type (0, 0), BuildingBlock: MIFKUJ_clean_linker_0, # of connection points: 2
#     Edge 55, Type (0, 0), BuildingBlock: MIFKUJ_clean_linker_0, # of connection points: 2
#     Edge 56, Type (0, 0), BuildingBlock: MIFKUJ_clean_linker_0, # of connection points: 2
#     Edge 57, Type (0, 0), BuildingBlock: MIFKUJ_clean_linker_0, # of connection points: 2
#     Edge 58, Type (0, 0), BuildingBlock: MIFKUJ_clean_linker_0, # of connection points: 2
#     Edge 59, Type (0, 0), BuildingBlock: MIFKUJ_clean_linker_0, # of connection points: 2
#     Edge 60, Type (0, 0), BuildingBlock: MIFKUJ_clean_linker_0, # of connection points: 2
#     Edge 61, Type (0, 0), BuildingBlock: MIFKUJ_clean_linker_0, # of connection points: 2
#     Edge 62, Type (0, 0), BuildingBlock: MIFKUJ_clean_linker_0, # of connection points: 2
#     Edge 63, Type (0, 0), BuildingBlock: MIFKUJ_clean_linker_0, # of connection points: 2
#     Edge 64, Type (0, 0), BuildingBlock: MIFKUJ_clean_linker_0, # of connection points: 2
#     Edge 65, Type (0, 0), BuildingBlock: MIFKUJ_clean_linker_0, # of connection points: 2
#     Edge 66, Type (0, 0), BuildingBlock: MIFKUJ_clean_linker_0, # of connection points: 2
#     Edge 67, Type (0, 0), BuildingBlock: MIFKUJ_clean_linker_0, # of connection points: 2
#     Edge 68, Type (0, 0), BuildingBlock: MIFKUJ_clean_linker_0, # of connection points: 2
#     Edge 69, Type (0, 0), BuildingBlock: MIFKUJ_clean_linker_0, # of connection points: 2
#     Edge 70, Type (0, 0), BuildingBlock: MIFKUJ_clean_linker_0, # of connection points: 2
#     Edge 71, Type (0, 0), BuildingBlock: MIFKUJ_clean_linker_0, # of connection points: 2
#     Edge 72, Type (0, 0), BuildingBlock: MIFKUJ_clean_linker_0, # of connection points: 2
#     Edge 73, Type (0, 0), BuildingBlock: MIFKUJ_clean_linker_0, # of connection points: 2
#     Edge 74, Type (0, 0), BuildingBlock: MIFKUJ_clean_linker_0, # of connection points: 2
#     Edge 75, Type (0, 0), BuildingBlock: MIFKUJ_clean_linker_0, # of connection points: 2
#     Edge 76, Type (0, 0), BuildingBlock: MIFKUJ_clean_linker_0, # of connection points: 2
#     Edge 77, Type (0, 0), BuildingBlock: MIFKUJ_clean_linker_0, # of connection points: 2
#     Edge 78, Type (0, 0), BuildingBlock: MIFKUJ_clean_linker_0, # of connection points: 2
#     Edge 79, Type (0, 0), BuildingBlock: MIFKUJ_clean_linker_0, # of connection points: 2
#     Edge 80, Type (0, 0), BuildingBlock: MIFKUJ_clean_linker_0, # of connection points: 2
#     Edge 81, Type (0, 0), BuildingBlock: MIFKUJ_clean_linker_0, # of connection points: 2
#     Edge 82, Type (0, 0), BuildingBlock: MIFKUJ_clean_linker_0, # of connection points: 2
#     Edge 83, Type (0, 0), BuildingBlock: MIFKUJ_clean_linker_0, # of connection points: 2
#     Edge 84, Type (0, 0), BuildingBlock: MIFKUJ_clean_linker_0, # of connection points: 2
#     Edge 85, Type (0, 0), BuildingBlock: MIFKUJ_clean_linker_0, # of connection points: 2
#     Edge 86, Type (0, 0), BuildingBlock: MIFKUJ_clean_linker_0, # of connection points: 2
#     Edge 87, Type (0, 0), BuildingBlock: MIFKUJ_clean_linker_0, # of connection points: 2
#     Edge 88, Type (0, 0), BuildingBlock: MIFKUJ_clean_linker_0, # of connection points: 2
#     Edge 89, Type (0, 0), BuildingBlock: MIFKUJ_clean_linker_0, # of connection points: 2
#     Edge 90, Type (0, 0), BuildingBlock: MIFKUJ_clean_linker_0, # of connection points: 2
#     Edge 91, Type (0, 0), BuildingBlock: MIFKUJ_clean_linker_0, # of connection points: 2
#     Edge 92, Type (0, 0), BuildingBlock: MIFKUJ_clean_linker_0, # of connection points: 2
#     Edge 93, Type (0, 0), BuildingBlock: MIFKUJ_clean_linker_0, # of connection points: 2
#     Edge 94, Type (0, 0), BuildingBlock: MIFKUJ_clean_linker_0, # of connection points: 2
#     Edge 95, Type (0, 0), BuildingBlock: MIFKUJ_clean_linker_0, # of connection points: 2
#     Edge 96, Type (0, 0), BuildingBlock: MIFKUJ_clean_linker_0, # of connection points: 2
#     Edge 97, Type (0, 0), BuildingBlock: MIFKUJ_clean_linker_0, # of connection points: 2
#     Edge 98, Type (0, 0), BuildingBlock: MIFKUJ_clean_linker_0, # of connection points: 2
#     Edge 99, Type (0, 0), BuildingBlock: MIFKUJ_clean_linker_0, # of connection points: 2
#     Edge 100, Type (0, 0), BuildingBlock: MIFKUJ_clean_linker_0, # of connection points: 2
#     Edge 101, Type (0, 0), BuildingBlock: MIFKUJ_clean_linker_0, # of connection points: 2
#     Edge 102, Type (0, 0), BuildingBlock: MIFKUJ_clean_linker_0, # of connection points: 2
#     Edge 103, Type (0, 0), BuildingBlock: MIFKUJ_clean_linker_0, # of connection points: 2
#     Edge 104, Type (0, 0), BuildingBlock: MIFKUJ_clean_linker_0, # of connection points: 2
#     Edge 105, Type (0, 0), BuildingBlock: MIFKUJ_clean_linker_0, # of connection points: 2
#     Edge 106, Type (0, 0), BuildingBlock: MIFKUJ_clean_linker_0, # of connection points: 2
#     Edge 107, Type (0, 0), BuildingBlock: MIFKUJ_clean_linker_0, # of connection points: 2
#     Edge 108, Type (0, 0), BuildingBlock: MIFKUJ_clean_linker_0, # of connection points: 2
#     Edge 109, Type (0, 0), BuildingBlock: MIFKUJ_clean_linker_0, # of connection points: 2
#     Edge 110, Type (0, 0), BuildingBlock: MIFKUJ_clean_linker_0, # of connection points: 2
#     Edge 111, Type (0, 0), BuildingBlock: MIFKUJ_clean_linker_0, # of connection points: 2
#     Edge 112, Type (0, 0), BuildingBlock: MIFKUJ_clean_linker_0, # of connection points: 2
#     Edge 113, Type (0, 0), BuildingBlock: MIFKUJ_clean_linker_0, # of connection points: 2
#     Edge 114, Type (0, 0), BuildingBlock: MIFKUJ_clean_linker_0, # of connection points: 2
#     Edge 115, Type (0, 0), BuildingBlock: MIFKUJ_clean_linker_0, # of connection points: 2
#     Edge 116, Type (0, 0), BuildingBlock: MIFKUJ_clean_linker_0, # of connection points: 2
#     Edge 117, Type (0, 0), BuildingBlock: MIFKUJ_clean_linker_0, # of connection points: 2
#     Edge 118, Type (0, 0), BuildingBlock: MIFKUJ_clean_linker_0, # of connection points: 2
#     Edge 119, Type (0, 0), BuildingBlock: MIFKUJ_clean_linker_0, # of connection points: 2
#     Edge 120, Type (0, 0), BuildingBlock: MIFKUJ_clean_linker_0, # of connection points: 2
#     Edge 121, Type (0, 0), BuildingBlock: MIFKUJ_clean_linker_0, # of connection points: 2
#     Edge 122, Type (0, 0), BuildingBlock: MIFKUJ_clean_linker_0, # of connection points: 2
#     Edge 123, Type (0, 0), BuildingBlock: MIFKUJ_clean_linker_0, # of connection points: 2
#     Edge 124, Type (0, 0), BuildingBlock: MIFKUJ_clean_linker_0, # of connection points: 2
#     Edge 125, Type (0, 0), BuildingBlock: MIFKUJ_clean_linker_0, # of connection points: 2
#     Edge 126, Type (0, 0), BuildingBlock: MIFKUJ_clean_linker_0, # of connection points: 2
#     Edge 127, Type (0, 0), BuildingBlock: MIFKUJ_clean_linker_0, # of connection points: 2
#     Edge 128, Type (0, 0), BuildingBlock: MIFKUJ_clean_linker_0, # of connection points: 2
#     Edge 129, Type (0, 0), BuildingBlock: MIFKUJ_clean_linker_0, # of connection points: 2
#     Edge 130, Type (0, 0), BuildingBlock: MIFKUJ_clean_linker_0, # of connection points: 2
#     Edge 131, Type (0, 0), BuildingBlock: MIFKUJ_clean_linker_0, # of connection points: 2
#     Edge 132, Type (0, 0), BuildingBlock: MIFKUJ_clean_linker_0, # of connection points: 2
#     Edge 133, Type (0, 0), BuildingBlock: MIFKUJ_clean_linker_0, # of connection points: 2
#     Edge 134, Type (0, 0), BuildingBlock: MIFKUJ_clean_linker_0, # of connection points: 2
#     Edge 135, Type (0, 0), BuildingBlock: MIFKUJ_clean_linker_0, # of connection points: 2
#     Edge 136, Type (0, 0), BuildingBlock: MIFKUJ_clean_linker_0, # of connection points: 2
#     Edge 137, Type (0, 0), BuildingBlock: MIFKUJ_clean_linker_0, # of connection points: 2
#     Edge 138, Type (0, 0), BuildingBlock: MIFKUJ_clean_linker_0, # of connection points: 2
#     Edge 139, Type (0, 0), BuildingBlock: MIFKUJ_clean_linker_0, # of connection points: 2
#     Edge 140, Type (0, 0), BuildingBlock: MIFKUJ_clean_linker_0, # of connection points: 2
#     Edge 141, Type (0, 0), BuildingBlock: MIFKUJ_clean_linker_0, # of connection points: 2
#     Edge 142, Type (0, 0), BuildingBlock: MIFKUJ_clean_linker_0, # of connection points: 2
#     Edge 143, Type (0, 0), BuildingBlock: MIFKUJ_clean_linker_0, # of connection points: 2
# Relax obj value: 0.022
# Max RMSD: 0.082
# Mean RMSD: 0.082
data_MOF--net-ull--node1-CEKHIL_clean_sbu_0--edge1-MIFKUJ_clean_linker_0
_symmetry_space_group_name_H-M    P1
_symmetry_Int_Tables_number       1
_symmetry_cell_setting            triclinic
loop_
_symmetry_equiv_pos_as_xyz
'x, y, z'
_cell_length_a     78.93418
_cell_length_b     78.930403
_cell_length_c     78.933973
_cell_angle_alpha  90.000695
_cell_angle_beta   90.0074
_cell_angle_gamma 89.989662
loop_
_atom_site_label
_atom_site_type_symbol
_atom_site_fract_x
_atom_site_fract_y
_atom_site_fract_z
_atom_type_partial_charge
Co0 Co 0.04449 0.33652 0.17081 0.0
O1 O 0.06268 0.34113 0.18627 0.0
O2 O 0.03759 0.35356 0.18721 0.0
C3 C 0.06051 0.33805 0.14711 0.0
O4 O 0.02296 0.33542 0.15638 0.0
Co5 Co 0.04533 0.30431 0.14829 0.0
O6 O 0.02752 0.31655 0.1355 0.0
C7 C 0.0359 0.3013 0.18446 0.0
C8 C 0.05287 0.35227 0.1933 0.0
C9 C 0.01879 0.32834 0.14225 0.0
O10 O 0.03605 0.31757 0.18593 0.0
O11 O 0.04033 0.29364 0.17085 0.0
O12 O 0.05468 0.35172 0.15414 0.0
O13 O 0.05774 0.32418 0.15536 0.0
Co14 Co 0.66555 0.04511 0.16804 0.0
O15 O 0.66024 0.06326 0.18331 0.0
O16 O 0.64825 0.03795 0.18407 0.0
C17 C 0.66443 0.06088 0.14414 0.0
O18 O 0.66755 0.02354 0.15371 0.0
Co19 Co 0.69873 0.04689 0.14696 0.0
O20 O 0.68861 0.02737 0.13488 0.0
C21 C 0.7005 0.0379 0.1832 0.0
C22 C 0.64929 0.05321 0.19027 0.0
C23 C 0.67627 0.01874 0.14073 0.0
O24 O 0.6842 0.03712 0.1838 0.0
O25 O 0.7086 0.04288 0.17005 0.0
O26 O 0.65066 0.05488 0.15083 0.0
O27 O 0.67805 0.05855 0.15291 0.0
Co28 Co 0.9578 0.66304 0.16893 0.0
O29 O 0.93995 0.65843 0.18482 0.0
O30 O 0.96494 0.6457 0.18484 0.0
C31 C 0.94128 0.66219 0.14556 0.0
O32 O 0.97905 0.66411 0.15408 0.0
Co33 Co 0.9571 0.69561 0.14694 0.0
O34 O 0.97443 0.68334 0.13355 0.0
C35 C 0.96775 0.69781 0.18282 0.0
C36 C 0.94992 0.6472 0.19149 0.0
C37 C 0.98312 0.67136 0.14001 0.0
O38 O 0.96681 0.68157 0.18418 0.0
O39 O 0.96352 0.70584 0.16935 0.0
O40 O 0.94703 0.64829 0.15224 0.0
O41 O 0.94442 0.67587 0.15399 0.0
Co42 Co 0.33492 0.95757 0.17071 0.0
O43 O 0.33905 0.93973 0.18672 0.0
O44 O 0.35208 0.96454 0.18692 0.0
C45 C 0.33624 0.94101 0.14737 0.0
O46 O 0.33434 0.97871 0.15567 0.0
Co47 Co 0.30271 0.95677 0.14819 0.0
O48 O 0.31491 0.97445 0.13525 0.0
C49 C 0.2999 0.9677 0.18393 0.0
C50 C 0.35037 0.94951 0.19349 0.0
C51 C 0.32704 0.98298 0.14167 0.0
O52 O 0.31613 0.96684 0.18557 0.0
O53 O 0.29213 0.96323 0.1704 0.0
O54 O 0.34997 0.94669 0.15441 0.0
O55 O 0.32237 0.94415 0.15551 0.0
Co56 Co 0.04483 0.66382 0.83139 0.0
O57 O 0.06309 0.65872 0.81618 0.0
O58 O 0.03814 0.646 0.81575 0.0
C59 C 0.06062 0.66361 0.85528 0.0
O60 O 0.02334 0.66547 0.84574 0.0
Co61 Co 0.04572 0.69754 0.85172 0.0
O62 O 0.02676 0.68685 0.86432 0.0
C63 C 0.0373 0.69819 0.81539 0.0
C64 C 0.05339 0.64724 0.80957 0.0
C65 C 0.01849 0.67413 0.85873 0.0
O66 O 0.03617 0.68191 0.81537 0.0
O67 O 0.04257 0.7067 0.82816 0.0
O68 O 0.05511 0.64954 0.8488 0.0
O69 O 0.05789 0.67701 0.84627 0.0
Co70 Co 0.33625 0.04368 0.83141 0.0
O71 O 0.34212 0.06187 0.81636 0.0
O72 O 0.3534 0.03624 0.81534 0.0
C73 C 0.33779 0.05927 0.8554 0.0
O74 O 0.33388 0.02206 0.84557 0.0
Co75 Co 0.30329 0.04595 0.85279 0.0
O76 O 0.31262 0.02571 0.86426 0.0
C77 C 0.30106 0.03703 0.81651 0.0
C78 C 0.35299 0.05166 0.80947 0.0
C79 C 0.32492 0.0171 0.85832 0.0
O80 O 0.31736 0.03626 0.8156 0.0
O81 O 0.2932 0.04193 0.82983 0.0
O82 O 0.3514 0.05294 0.84866 0.0
O83 O 0.32409 0.0573 0.84667 0.0
Co84 Co 0.95542 0.33738 0.83262 0.0
O85 O 0.93689 0.34263 0.81777 0.0
O86 O 0.96216 0.35462 0.81636 0.0
C87 C 0.94019 0.33876 0.85686 0.0
O88 O 0.9773 0.33559 0.84643 0.0
Co89 Co 0.95446 0.30466 0.85434 0.0
O90 O 0.9732 0.31593 0.86665 0.0
C91 C 0.96336 0.30234 0.81801 0.0
C92 C 0.94671 0.3537 0.81065 0.0
C93 C 0.9819 0.32784 0.86007 0.0
O94 O 0.96315 0.31863 0.81686 0.0
O95 O 0.95917 0.2944 0.83154 0.0
O96 O 0.9461 0.35242 0.84988 0.0
O97 O 0.9423 0.325 0.84822 0.0
Co98 Co 0.66295 0.95629 0.83116 0.0
O99 O 0.6575 0.93823 0.81581 0.0
O100 O 0.64613 0.96385 0.81486 0.0
C101 C 0.66106 0.94073 0.85511 0.0
O102 O 0.66519 0.97784 0.84537 0.0
Co103 Co 0.69576 0.95382 0.85286 0.0
O104 O 0.68676 0.97453 0.86379 0.0
C105 C 0.69831 0.96273 0.81666 0.0
C106 C 0.64691 0.94857 0.80868 0.0
C107 C 0.67439 0.98306 0.85784 0.0
O108 O 0.68205 0.96384 0.81577 0.0
O109 O 0.70607 0.95752 0.82992 0.0
O110 O 0.64752 0.94691 0.8481 0.0
O111 O 0.67489 0.94269 0.84659 0.0
Co112 Co 0.16719 0.04417 0.33822 0.0
O113 O 0.18142 0.06263 0.34501 0.0
O114 O 0.18348 0.03646 0.35501 0.0
C115 C 0.14272 0.05887 0.34034 0.0
O116 O 0.15388 0.02222 0.33488 0.0
Co117 Co 0.14548 0.04664 0.30559 0.0
O118 O 0.13309 0.02749 0.31613 0.0
C119 C 0.18196 0.03829 0.30285 0.0
C120 C 0.18859 0.05213 0.35538 0.0
C121 C 0.14 0.01811 0.32731 0.0
O122 O 0.18321 0.03797 0.31913 0.0
O123 O 0.16831 0.04251 0.29513 0.0
O124 O 0.14959 0.05212 0.35367 0.0
O125 O 0.15149 0.05775 0.32656 0.0
Co126 Co 0.95542 0.16919 0.3371 0.0
O127 O 0.9373 0.18481 0.34147 0.0
O128 O 0.96238 0.18572 0.35395 0.0
C129 C 0.93948 0.14549 0.3389 0.0
O130 O 0.97686 0.15465 0.33626 0.0
Co131 Co 0.95477 0.1463 0.30522 0.0
O132 O 0.97185 0.13319 0.31818 0.0
C133 C 0.96526 0.18215 0.30189 0.0
C134 C 0.94715 0.1919 0.35254 0.0
C135 C 0.98068 0.14015 0.32977 0.0
O136 O 0.96406 0.18405 0.31806 0.0
O137 O 0.96127 0.16837 0.29429 0.0
O138 O 0.94526 0.15276 0.35247 0.0
O139 O 0.94213 0.15359 0.3249 0.0
Co140 Co 0.83174 0.95639 0.33607 0.0
O141 O 0.816 0.93819 0.33981 0.0
O142 O 0.81564 0.96258 0.35361 0.0
C143 C 0.85523 0.94001 0.33644 0.0
O144 O 0.84635 0.97782 0.33611 0.0
Co145 Co 0.85428 0.95751 0.30394 0.0
O146 O 0.86756 0.97399 0.31748 0.0
C147 C 0.81831 0.96808 0.30169 0.0
C148 C 0.80924 0.94753 0.35152 0.0
C149 C 0.86068 0.98215 0.32957 0.0
O150 O 0.81659 0.96612 0.3178 0.0
O151 O 0.83201 0.96449 0.29374 0.0
O152 O 0.84838 0.94514 0.35048 0.0
O153 O 0.84695 0.94372 0.3228 0.0
Co154 Co 0.04361 0.83117 0.33619 0.0
O155 O 0.06158 0.81606 0.34254 0.0
O156 O 0.03583 0.81562 0.35363 0.0
C157 C 0.05927 0.85509 0.33719 0.0
O158 O 0.0221 0.84527 0.33314 0.0
Co159 Co 0.04632 0.85161 0.3027 0.0
O160 O 0.02566 0.86309 0.31115 0.0
C161 C 0.03756 0.81529 0.3014 0.0
C162 C 0.0511 0.80937 0.35326 0.0
C163 C 0.01702 0.85754 0.32361 0.0
O164 O 0.0363 0.81496 0.31768 0.0
O165 O 0.04277 0.8283 0.29323 0.0
O166 O 0.05272 0.84885 0.35093 0.0
O167 O 0.05749 0.84595 0.32374 0.0
Co168 Co 0.16822 0.95727 0.66406 0.0
O169 O 0.18401 0.9391 0.66038 0.0
O170 O 0.18464 0.96368 0.64692 0.0
C171 C 0.14469 0.94099 0.66314 0.0
O172 O 0.1536 0.97869 0.66405 0.0
Co173 Co 0.14533 0.95802 0.69598 0.0
O174 O 0.1323 0.97482 0.68259 0.0
C175 C 0.1813 0.96836 0.69881 0.0
C176 C 0.19105 0.94862 0.64898 0.0
C177 C 0.13928 0.98305 0.67059 0.0
O178 O 0.18308 0.96679 0.68266 0.0
O179 O 0.16756 0.96455 0.70659 0.0
O180 O 0.15181 0.94617 0.64925 0.0
O181 O 0.15278 0.94451 0.67694 0.0
Co182 Co 0.04326 0.16946 0.66601 0.0
O183 O 0.06131 0.18454 0.65992 0.0
O184 O 0.03561 0.18535 0.64878 0.0
C185 C 0.05866 0.14543 0.66453 0.0
O186 O 0.02171 0.15535 0.6688 0.0
Co187 Co 0.04594 0.14865 0.69918 0.0
O188 O 0.02571 0.13688 0.69017 0.0
C189 C 0.03599 0.18464 0.70103 0.0
C190 C 0.05092 0.19146 0.64926 0.0
C191 C 0.0169 0.14267 0.67793 0.0
O192 O 0.03588 0.18546 0.68472 0.0
O193 O 0.04076 0.17143 0.70916 0.0
O194 O 0.05211 0.15198 0.65095 0.0
O195 O 0.0572 0.15435 0.67818 0.0
Co196 Co 0.83139 0.0446 0.66595 0.0
O197 O 0.81585 0.06289 0.66192 0.0
O198 O 0.81495 0.0381 0.64884 0.0
C199 C 0.85516 0.06049 0.6648 0.0
O200 O 0.84577 0.023 0.66644 0.0
Co201 Co 0.85398 0.04439 0.69813 0.0
O202 O 0.86681 0.02707 0.68524 0.0
C203 C 0.81797 0.03435 0.70084 0.0
C204 C 0.80871 0.05326 0.65068 0.0
C205 C 0.85994 0.01865 0.67331 0.0
O206 O 0.81632 0.03564 0.68465 0.0
O207 O 0.83167 0.03815 0.70868 0.0
O208 O 0.84801 0.05516 0.65099 0.0
O209 O 0.84693 0.05742 0.67863 0.0
Co210 Co 0.95649 0.8319 0.66412 0.0
O211 O 0.93825 0.81714 0.65793 0.0
O212 O 0.96378 0.81627 0.64646 0.0
C213 C 0.94117 0.85608 0.66328 0.0
O214 O 0.97811 0.84591 0.66706 0.0
Co215 Co 0.95399 0.85169 0.69797 0.0
O216 O 0.97413 0.86373 0.689 0.0
C217 C 0.96264 0.81541 0.69866 0.0
C218 C 0.94836 0.81041 0.6469 0.0
C219 C 0.98289 0.85838 0.67651 0.0
O220 O 0.96397 0.8155 0.68239 0.0
O221 O 0.95729 0.82817 0.70715 0.0
O222 O 0.94745 0.84966 0.6495 0.0
O223 O 0.94286 0.84685 0.6767 0.0
Co224 Co 0.33576 0.16847 0.04379 0.0
O225 O 0.34116 0.18295 0.06255 0.0
O226 O 0.35283 0.18495 0.03715 0.0
C227 C 0.33744 0.14391 0.05846 0.0
O228 O 0.33376 0.15515 0.02166 0.0
Co229 Co 0.30295 0.14691 0.04492 0.0
O230 O 0.31226 0.13654 0.02407 0.0
C231 C 0.30059 0.18339 0.03705 0.0
C232 C 0.35201 0.19037 0.05271 0.0
C233 C 0.32472 0.14279 0.01594 0.0
O234 O 0.31688 0.18435 0.03665 0.0
O235 O 0.29268 0.1699 0.04139 0.0
O236 O 0.35099 0.15108 0.05252 0.0
O237 O 0.32363 0.15255 0.05678 0.0
Co238 Co 0.33913 0.8327 0.95839 0.0
O239 O 0.34495 0.81763 0.94017 0.0
O240 O 0.35635 0.81676 0.96583 0.0
C241 C 0.34047 0.85657 0.94261 0.0
O242 O 0.33697 0.8469 0.98 0.0
Co243 Co 0.3065 0.85455 0.95694 0.0
O244 O 0.31799 0.86756 0.97506 0.0
C245 C 0.30412 0.8184 0.96685 0.0
C246 C 0.35586 0.8109 0.95043 0.0
C247 C 0.3296 0.86091 0.98409 0.0
O248 O 0.32037 0.81695 0.96617 0.0
O249 O 0.29626 0.832 0.96275 0.0
O250 O 0.35415 0.84989 0.94884 0.0
O251 O 0.32675 0.84793 0.94489 0.0
Co252 Co 0.16797 0.33601 0.95778 0.0
O253 O 0.18316 0.34116 0.93953 0.0
O254 O 0.18408 0.35328 0.96477 0.0
C255 C 0.14405 0.3373 0.94203 0.0
O256 O 0.15381 0.33431 0.97945 0.0
Co257 Co 0.1464 0.30317 0.95644 0.0
O258 O 0.13505 0.31303 0.97651 0.0
C259 C 0.18246 0.30104 0.9663 0.0
C260 C 0.1901 0.35225 0.94944 0.0
C261 C 0.14113 0.32549 0.98479 0.0
O262 O 0.1836 0.31732 0.96592 0.0
O263 O 0.16909 0.29301 0.96183 0.0
O264 O 0.15089 0.35099 0.94804 0.0
O265 O 0.15263 0.32356 0.94441 0.0
Co266 Co 0.66648 0.16902 0.95526 0.0
O267 O 0.6612 0.18446 0.93721 0.0
O268 O 0.64944 0.18517 0.96265 0.0
C269 C 0.66492 0.14515 0.93948 0.0
O270 O 0.6684 0.15472 0.97678 0.0
Co271 Co 0.69931 0.14742 0.95335 0.0
O272 O 0.69 0.13631 0.97382 0.0
C273 C 0.70165 0.18353 0.96277 0.0
C274 C 0.6504 0.19144 0.94743 0.0
C275 C 0.67748 0.14224 0.98213 0.0
O276 O 0.68535 0.18448 0.96323 0.0
O277 O 0.70955 0.17025 0.95782 0.0
O278 O 0.65129 0.15206 0.94557 0.0
O279 O 0.6787 0.15371 0.9417 0.0
Co280 Co 0.83298 0.66404 0.95668 0.0
O281 O 0.8189 0.6577 0.93791 0.0
O282 O 0.81667 0.64697 0.96371 0.0
C283 C 0.85772 0.6624 0.9423 0.0
O284 O 0.84601 0.66696 0.97888 0.0
Co285 Co 0.85402 0.69716 0.95482 0.0
O286 O 0.86453 0.68844 0.97587 0.0
C287 C 0.81753 0.69914 0.96283 0.0
C288 C 0.81156 0.64705 0.94802 0.0
C289 C 0.85831 0.67621 0.98438 0.0
O290 O 0.8167 0.68283 0.96318 0.0
O291 O 0.83095 0.70717 0.95851 0.0
O292 O 0.85078 0.64889 0.9486 0.0
O293 O 0.8488 0.67608 0.9435 0.0
Co294 Co 0.66617 0.83251 0.04372 0.0
O295 O 0.6613 0.81717 0.06194 0.0
O296 O 0.64873 0.81653 0.0369 0.0
C297 C 0.66522 0.85638 0.05957 0.0
O298 O 0.66754 0.84691 0.02218 0.0
Co299 Co 0.69925 0.85382 0.04475 0.0
O300 O 0.68896 0.86553 0.02514 0.0
C301 C 0.70097 0.81778 0.03479 0.0
C302 C 0.64999 0.81037 0.05215 0.0
C303 C 0.67632 0.85968 0.01696 0.0
O304 O 0.68467 0.81684 0.03516 0.0
O305 O 0.70914 0.83104 0.03934 0.0
O306 O 0.65139 0.84953 0.05391 0.0
O307 O 0.6789 0.84776 0.05693 0.0
Co308 Co 0.16996 0.66556 0.04351 0.0
O309 O 0.18518 0.65959 0.06148 0.0
O310 O 0.18595 0.64851 0.03574 0.0
C311 C 0.14597 0.6639 0.05904 0.0
O312 O 0.15574 0.66837 0.02202 0.0
Co313 Co 0.14906 0.69871 0.04642 0.0
O314 O 0.13733 0.68978 0.02611 0.0
C315 C 0.18513 0.70067 0.03681 0.0
C316 C 0.19216 0.64904 0.05102 0.0
C317 C 0.1431 0.67758 0.01724 0.0
O318 O 0.18579 0.68437 0.03612 0.0
O319 O 0.17199 0.70873 0.04189 0.0
O320 O 0.15269 0.65037 0.05255 0.0
O321 O 0.1548 0.6776 0.05742 0.0
Co322 Co 0.83213 0.33628 0.04569 0.0
O323 O 0.81655 0.34117 0.06371 0.0
O324 O 0.81599 0.35345 0.0385 0.0
C325 C 0.85581 0.33775 0.0617 0.0
O326 O 0.84665 0.33482 0.02426 0.0
Co327 Co 0.85423 0.30384 0.04702 0.0
O328 O 0.86677 0.31507 0.0284 0.0
C329 C 0.81827 0.30118 0.03678 0.0
C330 C 0.80967 0.35222 0.05369 0.0
C331 C 0.86032 0.32707 0.01973 0.0
O332 O 0.81685 0.31745 0.03729 0.0
O333 O 0.83178 0.29336 0.04122 0.0
O334 O 0.84894 0.35141 0.05566 0.0
O335 O 0.84738 0.32393 0.05924 0.0
Co336 Co 0.54371 0.83455 0.66975 0.0
O337 O 0.56179 0.83998 0.68504 0.0
O338 O 0.53649 0.85201 0.68554 0.0
C339 C 0.55961 0.83555 0.64594 0.0
O340 O 0.52225 0.83251 0.65534 0.0
Co341 Co 0.54539 0.80141 0.64866 0.0
O342 O 0.52673 0.81223 0.63582 0.0
C343 C 0.53585 0.79971 0.68483 0.0
C344 C 0.55177 0.85114 0.69172 0.0
C345 C 0.51792 0.82434 0.64186 0.0
O346 O 0.53557 0.81602 0.68555 0.0
O347 O 0.54064 0.79156 0.67163 0.0
O348 O 0.55356 0.84934 0.65254 0.0
O349 O 0.55723 0.82194 0.65473 0.0
Co350 Co 0.16353 0.54184 0.66836 0.0
O351 O 0.15805 0.56009 0.68347 0.0
O352 O 0.14629 0.53467 0.68443 0.0
C353 C 0.16223 0.5574 0.64431 0.0
O354 O 0.1657 0.52015 0.65429 0.0
Co355 Co 0.19668 0.54379 0.64724 0.0
O356 O 0.18769 0.52309 0.63632 0.0
C357 C 0.19857 0.53491 0.6835 0.0
C358 C 0.14718 0.54999 0.6905 0.0
C359 C 0.1751 0.51476 0.64204 0.0
O360 O 0.18227 0.53417 0.68421 0.0
O361 O 0.20659 0.53983 0.67029 0.0
O362 O 0.14854 0.55129 0.65106 0.0
O363 O 0.17589 0.5553 0.65309 0.0
Co364 Co 0.45507 0.16404 0.66941 0.0
O365 O 0.43686 0.1572 0.68399 0.0
O366 O 0.46277 0.14658 0.68502 0.0
C367 C 0.43977 0.16295 0.64524 0.0
O368 O 0.47676 0.16746 0.65566 0.0
Co369 Co 0.45237 0.19747 0.64895 0.0
O370 O 0.47194 0.18793 0.63644 0.0
C371 C 0.46132 0.19886 0.6853 0.0
C372 C 0.44726 0.1464 0.69067 0.0
C373 C 0.48112 0.1761 0.64248 0.0
O374 O 0.46192 0.18254 0.68587 0.0
O375 O 0.45661 0.20705 0.67211 0.0
O376 O 0.44648 0.14929 0.65148 0.0
O377 O 0.44124 0.17639 0.65446 0.0
Co378 Co 0.83586 0.45854 0.66984 0.0
O379 O 0.84183 0.44038 0.68482 0.0
O380 O 0.85324 0.46597 0.68567 0.0
C381 C 0.83703 0.44315 0.64575 0.0
O382 O 0.83313 0.48016 0.6558 0.0
Co383 Co 0.80243 0.45609 0.64942 0.0
O384 O 0.81117 0.47661 0.63793 0.0
C385 C 0.80104 0.46556 0.68553 0.0
C386 C 0.85258 0.45065 0.69177 0.0
C387 C 0.82366 0.48522 0.64348 0.0
O388 O 0.81735 0.46603 0.686 0.0
O389 O 0.79276 0.46062 0.67248 0.0
O390 O 0.85072 0.44954 0.65224 0.0
O391 O 0.82348 0.44478 0.65479 0.0
Co392 Co 0.54707 0.16568 0.33254 0.0
O393 O 0.56523 0.16079 0.31711 0.0
O394 O 0.54029 0.14805 0.31672 0.0
C395 C 0.56304 0.16508 0.35633 0.0
O396 O 0.52563 0.16701 0.34707 0.0
Co397 Co 0.54779 0.19871 0.35384 0.0
O398 O 0.52977 0.18708 0.36686 0.0
C399 C 0.53691 0.20023 0.31802 0.0
C400 C 0.55548 0.14938 0.31043 0.0
C401 C 0.52121 0.17484 0.36073 0.0
O402 O 0.53822 0.18399 0.31684 0.0
O403 O 0.54104 0.20849 0.33137 0.0
O404 O 0.55738 0.15114 0.34969 0.0
O405 O 0.56032 0.17864 0.34755 0.0
Co406 Co 0.83679 0.54396 0.33166 0.0
O407 O 0.84207 0.5621 0.3164 0.0
O408 O 0.85416 0.53683 0.3157 0.0
C409 C 0.8379 0.55972 0.35555 0.0
O410 O 0.83485 0.52246 0.34604 0.0
Co411 Co 0.80351 0.54586 0.35266 0.0
O412 O 0.81307 0.52575 0.36421 0.0
C413 C 0.80188 0.53661 0.31648 0.0
C414 C 0.85317 0.55212 0.30957 0.0
C415 C 0.82568 0.51736 0.35859 0.0
O416 O 0.81818 0.53582 0.31593 0.0
O417 O 0.79375 0.54178 0.32954 0.0
O418 O 0.85168 0.5538 0.34881 0.0
O419 O 0.82427 0.55739 0.34679 0.0
Co420 Co 0.45538 0.83564 0.33254 0.0
O421 O 0.43711 0.84038 0.31724 0.0
O422 O 0.46236 0.85244 0.31592 0.0
C423 C 0.43985 0.83756 0.35651 0.0
O424 O 0.47698 0.8342 0.34686 0.0
Co425 Co 0.45396 0.80322 0.3548 0.0
O426 O 0.47252 0.81468 0.36718 0.0
C427 C 0.46355 0.80026 0.31875 0.0
C428 C 0.44703 0.85123 0.30992 0.0
C429 C 0.48132 0.82656 0.36067 0.0
O430 O 0.46343 0.81653 0.31738 0.0
O431 O 0.45906 0.79253 0.33229 0.0
O432 O 0.44567 0.8511 0.34922 0.0
O433 O 0.44211 0.82361 0.34822 0.0
Co434 Co 0.16677 0.45734 0.33097 0.0
O435 O 0.16117 0.43936 0.31557 0.0
O436 O 0.14932 0.46477 0.31527 0.0
C437 C 0.16576 0.44141 0.35475 0.0
O438 O 0.16893 0.47879 0.34536 0.0
Co439 Co 0.19993 0.45545 0.35197 0.0
O440 O 0.19046 0.47547 0.36376 0.0
C441 C 0.20162 0.46515 0.31585 0.0
C442 C 0.15018 0.44958 0.30891 0.0
C443 C 0.17795 0.48389 0.358 0.0
O444 O 0.18531 0.46538 0.31509 0.0
O445 O 0.20975 0.46032 0.32904 0.0
O446 O 0.152 0.44763 0.34825 0.0
O447 O 0.17935 0.44365 0.3459 0.0
Co448 Co 0.66778 0.54438 0.8377 0.0
O449 O 0.68233 0.56302 0.84328 0.0
O450 O 0.68393 0.53767 0.85509 0.0
C451 C 0.64341 0.5594 0.83885 0.0
O452 O 0.65417 0.52237 0.83547 0.0
Co453 Co 0.64673 0.54579 0.80445 0.0
O454 O 0.63544 0.52566 0.81418 0.0
C455 C 0.68305 0.53679 0.80281 0.0
C456 C 0.68944 0.55321 0.85436 0.0
C457 C 0.64153 0.51714 0.82648 0.0
O458 O 0.68391 0.53691 0.81912 0.0
O459 O 0.6697 0.54111 0.79465 0.0
O460 O 0.65024 0.55351 0.85259 0.0
O461 O 0.65226 0.55744 0.82522 0.0
Co462 Co 0.45391 0.66683 0.83553 0.0
O463 O 0.43555 0.68204 0.84036 0.0
O464 O 0.46063 0.68302 0.85282 0.0
C465 C 0.43831 0.64286 0.83651 0.0
O466 O 0.47559 0.65261 0.8342 0.0
Co467 Co 0.45316 0.64537 0.80252 0.0
O468 O 0.47244 0.6335 0.81326 0.0
C469 C 0.46333 0.68133 0.80074 0.0
C470 C 0.44532 0.68905 0.85154 0.0
C471 C 0.48072 0.6396 0.82572 0.0
O472 O 0.46241 0.68245 0.817 0.0
O473 O 0.45916 0.66797 0.79254 0.0
O474 O 0.44384 0.64979 0.85036 0.0
O475 O 0.44091 0.65146 0.82281 0.0
Co476 Co 0.3301 0.45454 0.83686 0.0
O477 O 0.31375 0.4373 0.84202 0.0
O478 O 0.31449 0.4626 0.85409 0.0
C479 C 0.35309 0.43752 0.83816 0.0
O480 O 0.34559 0.47524 0.83507 0.0
Co481 Co 0.35144 0.45189 0.80397 0.0
O482 O 0.36471 0.4704 0.8145 0.0
C483 C 0.3161 0.46404 0.80191 0.0
C484 C 0.30742 0.44773 0.85301 0.0
C485 C 0.35903 0.47932 0.82671 0.0
O486 O 0.31498 0.46358 0.81819 0.0
O487 O 0.32919 0.45891 0.79382 0.0
O488 O 0.34656 0.44384 0.85186 0.0
O489 O 0.3446 0.44027 0.82442 0.0
Co490 Co 0.54334 0.33126 0.83647 0.0
O491 O 0.56225 0.31675 0.84134 0.0
O492 O 0.5372 0.31484 0.85376 0.0
C493 C 0.55811 0.3558 0.83761 0.0
O494 O 0.52112 0.34454 0.83507 0.0
Co495 Co 0.54349 0.35276 0.80353 0.0
O496 O 0.52248 0.36261 0.813 0.0
C497 C 0.53518 0.31635 0.80156 0.0
C498 C 0.55272 0.30938 0.85251 0.0
C499 C 0.51485 0.35649 0.82584 0.0
O500 O 0.53557 0.31535 0.81786 0.0
O501 O 0.5392 0.32982 0.79346 0.0
O502 O 0.55266 0.34867 0.85137 0.0
O503 O 0.5559 0.34715 0.82388 0.0
Co504 Co 0.66773 0.45693 0.16515 0.0
O505 O 0.68261 0.43833 0.16033 0.0
O506 O 0.68409 0.46337 0.14786 0.0
C507 C 0.64367 0.44147 0.16411 0.0
O508 O 0.65387 0.47884 0.16643 0.0
Co509 Co 0.6457 0.45675 0.19763 0.0
O510 O 0.63311 0.47477 0.18551 0.0
C511 C 0.68195 0.46607 0.20002 0.0
C512 C 0.68984 0.44796 0.14918 0.0
C513 C 0.63992 0.48335 0.17365 0.0
O514 O 0.68343 0.46501 0.18379 0.0
O515 O 0.66825 0.4624 0.20792 0.0
O516 O 0.65045 0.44726 0.1503 0.0
O517 O 0.65227 0.44399 0.17781 0.0
Co518 Co 0.54538 0.67085 0.1642 0.0
O519 O 0.56313 0.68678 0.15947 0.0
O520 O 0.53787 0.68712 0.14731 0.0
C521 C 0.56184 0.6475 0.16246 0.0
O522 O 0.52419 0.65601 0.16549 0.0
Co523 Co 0.54699 0.64824 0.19624 0.0
O524 O 0.529 0.63528 0.18443 0.0
C525 C 0.53613 0.684 0.19948 0.0
C526 C 0.55295 0.69369 0.14858 0.0
C527 C 0.52011 0.64193 0.1727 0.0
O528 O 0.53674 0.68574 0.18325 0.0
O529 O 0.54072 0.6704 0.20707 0.0
O530 O 0.55562 0.65436 0.14887 0.0
O531 O 0.5592 0.65572 0.17637 0.0
Co532 Co 0.33339 0.5451 0.16266 0.0
O533 O 0.31858 0.5637 0.15753 0.0
O534 O 0.31729 0.53859 0.14517 0.0
C535 C 0.35751 0.56051 0.16176 0.0
O536 O 0.34709 0.52315 0.16426 0.0
Co537 Co 0.35522 0.54534 0.19526 0.0
O538 O 0.36785 0.52717 0.18335 0.0
C539 C 0.31886 0.53619 0.19744 0.0
C540 C 0.31156 0.55403 0.14627 0.0
C541 C 0.36096 0.51856 0.17156 0.0
O542 O 0.31752 0.53709 0.18118 0.0
O543 O 0.3325 0.53999 0.20539 0.0
O544 O 0.35085 0.55462 0.14793 0.0
O545 O 0.34878 0.55811 0.1754 0.0
Co546 Co 0.45591 0.33085 0.16479 0.0
O547 O 0.43785 0.31547 0.15947 0.0
O548 O 0.4632 0.31495 0.14749 0.0
C549 C 0.44 0.35463 0.1637 0.0
O550 O 0.4774 0.34518 0.16666 0.0
Co551 Co 0.45462 0.35234 0.19759 0.0
O552 O 0.47276 0.36544 0.18615 0.0
C553 C 0.46398 0.31611 0.1997 0.0
C554 C 0.44799 0.30864 0.14849 0.0
C555 C 0.48159 0.35902 0.17425 0.0
O556 O 0.46405 0.31517 0.18341 0.0
O557 O 0.45943 0.32947 0.20773 0.0
O558 O 0.4461 0.34802 0.14993 0.0
O559 O 0.44239 0.34592 0.17736 0.0
Co560 Co 0.83769 0.6697 0.5433 0.0
O561 O 0.8433 0.6855 0.56094 0.0
O562 O 0.85525 0.68511 0.53558 0.0
C563 C 0.83844 0.64621 0.55969 0.0
O564 O 0.83547 0.65485 0.52216 0.0
Co565 Co 0.80424 0.649 0.5456 0.0
O566 O 0.81375 0.63674 0.52591 0.0
C567 C 0.803 0.68474 0.5345 0.0
C568 C 0.85438 0.69184 0.55061 0.0
C569 C 0.82628 0.64222 0.51733 0.0
O570 O 0.81931 0.68547 0.53471 0.0
O571 O 0.79467 0.67174 0.53951 0.0
O572 O 0.85232 0.65259 0.55359 0.0
O573 O 0.82493 0.65512 0.55714 0.0
Co574 Co 0.837 0.33277 0.45786 0.0
O575 O 0.84116 0.3167 0.44009 0.0
O576 O 0.85372 0.31625 0.46516 0.0
C577 C 0.83888 0.35606 0.44135 0.0
O578 O 0.83626 0.34779 0.47901 0.0
Co579 Co 0.80512 0.35579 0.45652 0.0
O580 O 0.81729 0.36855 0.47439 0.0
C581 C 0.80158 0.31999 0.46699 0.0
C582 C 0.8521 0.30966 0.45012 0.0
C583 C 0.82913 0.36192 0.48314 0.0
O584 O 0.81781 0.31823 0.46676 0.0
O585 O 0.7941 0.3336 0.46225 0.0
O586 O 0.85247 0.34887 0.4472 0.0
O587 O 0.82489 0.3481 0.44431 0.0
Co588 Co 0.66822 0.83527 0.45674 0.0
O589 O 0.68225 0.84109 0.43778 0.0
O590 O 0.68461 0.85248 0.46326 0.0
C591 C 0.64329 0.83663 0.44265 0.0
O592 O 0.65534 0.83269 0.47909 0.0
Co593 Co 0.6476 0.80184 0.45535 0.0
O594 O 0.63775 0.81031 0.4768 0.0
C595 C 0.68419 0.80033 0.46254 0.0
C596 C 0.68984 0.8518 0.44763 0.0
C597 C 0.6436 0.82295 0.48497 0.0
O598 O 0.6846 0.81663 0.46336 0.0
O599 O 0.67092 0.7921 0.45815 0.0
O600 O 0.65035 0.85026 0.44854 0.0
O601 O 0.65229 0.823 0.44393 0.0
Co602 Co 0.16327 0.6689 0.45704 0.0
O603 O 0.15755 0.68345 0.43843 0.0
O604 O 0.14564 0.68476 0.46375 0.0
C605 C 0.16259 0.64452 0.44199 0.0
O606 O 0.16557 0.65531 0.47902 0.0
Co607 Co 0.19688 0.64842 0.45581 0.0
O608 O 0.18793 0.6377 0.47664 0.0
C609 C 0.19792 0.68494 0.46372 0.0
C610 C 0.1464 0.69041 0.44827 0.0
C611 C 0.17513 0.64333 0.48472 0.0
O612 O 0.18161 0.68526 0.46452 0.0
O613 O 0.20624 0.67182 0.45903 0.0
O614 O 0.14871 0.65112 0.44783 0.0
O615 O 0.17606 0.6536 0.44404 0.0
Co616 Co 0.33354 0.16526 0.45499 0.0
O617 O 0.31917 0.16 0.43616 0.0
O618 O 0.31716 0.14799 0.46141 0.0
C619 C 0.35798 0.16406 0.44017 0.0
O620 O 0.34694 0.16708 0.47704 0.0
Co621 Co 0.3549 0.19822 0.45437 0.0
O622 O 0.36719 0.18677 0.47311 0.0
C623 C 0.31834 0.20019 0.46182 0.0
C624 C 0.3119 0.14888 0.44579 0.0
C625 C 0.36059 0.17478 0.48169 0.0
O626 O 0.31761 0.1839 0.46251 0.0
O627 O 0.33167 0.20829 0.45735 0.0
O628 O 0.35103 0.15032 0.44594 0.0
O629 O 0.34922 0.17775 0.44218 0.0
Co630 Co 0.16269 0.32987 0.54238 0.0
O631 O 0.15784 0.31458 0.56064 0.0
O632 O 0.1454 0.31371 0.53555 0.0
C633 C 0.16151 0.35378 0.55816 0.0
O634 O 0.1642 0.34413 0.52081 0.0
Co635 Co 0.19551 0.3516 0.54352 0.0
O636 O 0.1839 0.36431 0.52515 0.0
C637 C 0.19769 0.31531 0.53471 0.0
C638 C 0.14664 0.30764 0.55084 0.0
C639 C 0.1719 0.35787 0.51647 0.0
O640 O 0.1814 0.31445 0.53398 0.0
O641 O 0.20567 0.32852 0.53973 0.0
O642 O 0.14774 0.34688 0.5524 0.0
O643 O 0.17522 0.3452 0.55558 0.0
Co644 Co 0.66862 0.16757 0.54717 0.0
O645 O 0.6839 0.16311 0.56558 0.0
O646 O 0.68498 0.1504 0.54062 0.0
C647 C 0.64478 0.16639 0.563 0.0
O648 O 0.65454 0.16841 0.52543 0.0
Co649 Co 0.64589 0.19957 0.54699 0.0
O650 O 0.63319 0.18684 0.52941 0.0
C651 C 0.68213 0.20252 0.53756 0.0
C652 C 0.69098 0.15186 0.55591 0.0
C653 C 0.64035 0.17512 0.52094 0.0
O654 O 0.68385 0.18632 0.53861 0.0
O655 O 0.66834 0.21021 0.54136 0.0
O656 O 0.65175 0.15261 0.55733 0.0
O657 O 0.65309 0.1802 0.56011 0.0
Co658 Co 0.33146 0.83523 0.54497 0.0
O659 O 0.31602 0.84024 0.56304 0.0
O660 O 0.31583 0.85304 0.53811 0.0
C661 C 0.35515 0.83563 0.56102 0.0
O662 O 0.34613 0.83363 0.52359 0.0
Co663 Co 0.35195 0.80167 0.54621 0.0
O664 O 0.36429 0.81185 0.52692 0.0
C665 C 0.31612 0.80082 0.53556 0.0
C666 C 0.30944 0.85167 0.55326 0.0
C667 C 0.35886 0.82462 0.51864 0.0
O668 O 0.31554 0.81713 0.53616 0.0
O669 O 0.32913 0.79227 0.54015 0.0
O670 O 0.34867 0.84961 0.5553 0.0
O671 O 0.34623 0.82216 0.55834 0.0
H672 H 0.11907 0.46223 0.2997 0.0
H673 H 0.0991 0.44978 0.27921 0.0
H674 H 0.13565 0.41094 0.26729 0.0
H675 H 0.15539 0.42309 0.28773 0.0
H676 H 0.11978 0.42454 0.23863 0.0
H677 H 0.10533 0.40238 0.29433 0.0
H678 H 0.09644 0.40509 0.32415 0.0
H679 H 0.05065 0.42999 0.30851 0.0
H680 H 0.05941 0.42763 0.27858 0.0
H681 H 0.08394 0.35105 0.20797 0.0
H682 H 0.09681 0.37171 0.22686 0.0
H683 H 0.05042 0.40055 0.22744 0.0
H684 H 0.03728 0.37973 0.20827 0.0
H685 H 0.06707 0.3977 0.25999 0.0
H686 H 0.07956 0.41529 0.20378 0.0
H687 H 0.08847 0.4118 0.17405 0.0
H688 H 0.1378 0.39574 0.19042 0.0
H689 H 0.12911 0.39886 0.22027 0.0
C690 C 0.12288 0.45119 0.29251 0.0
C691 C 0.13875 0.44359 0.29533 0.0
C692 C 0.11146 0.44405 0.2809 0.0
C693 C 0.11588 0.42939 0.27181 0.0
C694 C 0.13198 0.42226 0.27415 0.0
C695 C 0.14324 0.42919 0.28587 0.0
C696 C 0.1037 0.42082 0.26032 0.0
C697 C 0.10823 0.41872 0.24328 0.0
C698 C 0.08838 0.41363 0.26629 0.0
C699 C 0.08313 0.41505 0.28425 0.0
C700 C 0.09345 0.40858 0.29726 0.0
C701 C 0.08842 0.41002 0.31418 0.0
C702 C 0.07302 0.41777 0.31823 0.0
C703 C 0.0626 0.42404 0.30536 0.0
C704 C 0.06759 0.42265 0.28842 0.0
C705 C 0.07634 0.36166 0.21221 0.0
C706 C 0.0596 0.36381 0.20649 0.0
C707 C 0.08376 0.3735 0.22298 0.0
C708 C 0.07468 0.38781 0.22831 0.0
C709 C 0.05767 0.38963 0.22338 0.0
C710 C 0.05019 0.37773 0.21246 0.0
C711 C 0.08347 0.40098 0.23845 0.0
C712 C 0.07835 0.40392 0.25521 0.0
C713 C 0.09826 0.409 0.23223 0.0
C714 C 0.10364 0.40723 0.21428 0.0
C715 C 0.09228 0.4109 0.20105 0.0
C716 C 0.09729 0.409 0.18417 0.0
C717 C 0.11368 0.40353 0.18035 0.0
C718 C 0.12511 0.39998 0.1934 0.0
C719 C 0.12015 0.40183 0.21031 0.0
H720 H 0.11755 0.40206 0.16728 0.0
H721 H 0.06914 0.41886 0.33134 0.0
H722 H 0.65326 0.08209 0.2084 0.0
H723 H 0.63459 0.09382 0.22992 0.0
H724 H 0.60148 0.05063 0.22513 0.0
H725 H 0.62033 0.03866 0.2033 0.0
H726 H 0.58415 0.08207 0.22515 0.0
H727 H 0.62412 0.05325 0.25969 0.0
H728 H 0.65244 0.04417 0.26923 0.0
H729 H 0.66564 0.09579 0.28019 0.0
H730 H 0.63749 0.10523 0.27047 0.0
H731 H 0.54095 0.12035 0.29753 0.0
H732 H 0.55405 0.09994 0.27795 0.0
H733 H 0.59813 0.13202 0.27414 0.0
H734 H 0.58532 0.15216 0.29363 0.0
H735 H 0.60693 0.09992 0.28094 0.0
H736 H 0.56886 0.12878 0.24204 0.0
H737 H 0.54087 0.13819 0.23181 0.0
H738 H 0.5242 0.08648 0.22904 0.0
H739 H 0.55205 0.07678 0.23947 0.0
C740 C 0.64209 0.07496 0.21196 0.0
C741 C 0.6383 0.05941 0.20417 0.0
C742 C 0.63143 0.08168 0.22433 0.0
C743 C 0.6167 0.07305 0.22924 0.0
C744 C 0.61282 0.05747 0.22154 0.0
C745 C 0.62363 0.05061 0.20918 0.0
C746 C 0.60543 0.08079 0.24219 0.0
C747 C 0.58895 0.08563 0.23753 0.0
C748 C 0.61176 0.08557 0.25826 0.0
C749 C 0.62869 0.07995 0.26427 0.0
C750 C 0.63309 0.06269 0.26404 0.0
C751 C 0.64912 0.05747 0.26949 0.0
C752 C 0.66084 0.06939 0.27529 0.0
C753 C 0.65654 0.08656 0.27569 0.0
C754 C 0.64054 0.09185 0.27024 0.0
C755 C 0.55334 0.12311 0.29232 0.0
C756 C 0.56213 0.13784 0.29719 0.0
C757 C 0.56081 0.11145 0.28115 0.0
C758 C 0.57713 0.1144 0.27464 0.0
C759 C 0.58561 0.12936 0.27912 0.0
C760 C 0.57822 0.14093 0.29023 0.0
C761 C 0.58591 0.10186 0.26364 0.0
C762 C 0.60195 0.09606 0.26872 0.0
C763 C 0.57915 0.09624 0.248 0.0
C764 C 0.56244 0.10207 0.24175 0.0
C765 C 0.55917 0.11943 0.2394 0.0
C766 C 0.54335 0.12481 0.23353 0.0
C767 C 0.53075 0.11294 0.22983 0.0
C768 C 0.53396 0.09566 0.23195 0.0
C769 C 0.54976 0.09021 0.23783 0.0
H770 H 0.51851 0.11713 0.22529 0.0
H771 H 0.67324 0.06533 0.2795 0.0
H772 H 0.96334 0.61704 0.20263 0.0
H773 H 0.95112 0.59777 0.22386 0.0
H774 H 0.9105 0.63326 0.2326 0.0
H775 H 0.9225 0.65238 0.21153 0.0
H776 H 0.92324 0.62004 0.26227 0.0
H777 H 0.90471 0.60008 0.2069 0.0
H778 H 0.90944 0.5891 0.17802 0.0
H779 H 0.93615 0.54629 0.19838 0.0
H780 H 0.93176 0.55715 0.22738 0.0
H781 H 0.85103 0.58224 0.2932 0.0
H782 H 0.87163 0.595 0.27418 0.0
H783 H 0.90257 0.55005 0.27706 0.0
H784 H 0.88174 0.53699 0.29627 0.0
H785 H 0.9006 0.56431 0.24392 0.0
H786 H 0.91469 0.58205 0.29971 0.0
H787 H 0.90925 0.59294 0.32847 0.0
H788 H 0.89119 0.63983 0.30763 0.0
H789 H 0.89627 0.62913 0.27872 0.0
C790 C 0.95193 0.62078 0.20926 0.0
C791 C 0.94384 0.63618 0.20539 0.0
C792 C 0.94493 0.60974 0.2213 0.0
C793 C 0.92983 0.61404 0.22972 0.0
C794 C 0.92215 0.62969 0.22628 0.0
C795 C 0.929 0.64059 0.21418 0.0
C796 C 0.92148 0.60221 0.24173 0.0
C797 C 0.91832 0.60785 0.25828 0.0
C798 C 0.91551 0.58606 0.23667 0.0
C799 C 0.91811 0.57953 0.21927 0.0
C800 C 0.91173 0.5884 0.2052 0.0
C801 C 0.91431 0.58219 0.18882 0.0
C802 C 0.92314 0.56704 0.18636 0.0
C803 C 0.92935 0.55804 0.20029 0.0
C804 C 0.92682 0.56422 0.2167 0.0
C805 C 0.86211 0.57493 0.28971 0.0
C806 C 0.86482 0.55864 0.29639 0.0
C807 C 0.87392 0.58229 0.27885 0.0
C808 C 0.88879 0.57362 0.27448 0.0
C809 C 0.89121 0.557 0.28039 0.0
C810 C 0.87931 0.54956 0.29133 0.0
C811 C 0.90187 0.58246 0.26425 0.0
C812 C 0.9059 0.57629 0.24807 0.0
C813 C 0.90871 0.59814 0.26964 0.0
C814 C 0.90579 0.60474 0.28703 0.0
C815 C 0.90946 0.59465 0.30125 0.0
C816 C 0.90645 0.60079 0.31759 0.0
C817 C 0.89986 0.61706 0.31988 0.0
C818 C 0.8963 0.62723 0.30584 0.0
C819 C 0.89927 0.62114 0.28947 0.0
H820 H 0.89753 0.62179 0.33254 0.0
H821 H 0.92513 0.56224 0.17367 0.0
H822 H 0.46247 0.87858 0.29458 0.0
H823 H 0.44997 0.89772 0.27338 0.0
H824 H 0.40419 0.86786 0.27356 0.0
H825 H 0.41655 0.84877 0.29429 0.0
H826 H 0.41276 0.87605 0.2421 0.0
H827 H 0.40838 0.9055 0.29636 0.0
H828 H 0.42027 0.9188 0.32202 0.0
H829 H 0.44912 0.95311 0.2912 0.0
H830 H 0.43754 0.93986 0.26535 0.0
H831 H 0.34459 0.92258 0.214 0.0
H832 H 0.3646 0.90864 0.23293 0.0
H833 H 0.402 0.94693 0.22196 0.0
H834 H 0.38172 0.96128 0.20313 0.0
H835 H 0.40315 0.93673 0.25549 0.0
H836 H 0.4041 0.91 0.20134 0.0
H837 H 0.39178 0.897 0.17575 0.0
H838 H 0.36982 0.85751 0.20603 0.0
H839 H 0.38179 0.87042 0.23185 0.0
C840 C 0.44982 0.87604 0.28992 0.0
C841 C 0.44049 0.86219 0.29615 0.0
C842 C 0.44265 0.88703 0.2779 0.0
C843 C 0.42605 0.88433 0.27199 0.0
C844 C 0.417 0.87023 0.27789 0.0
C845 C 0.4241 0.85932 0.28981 0.0
C846 C 0.41766 0.89613 0.25991 0.0
C847 C 0.41065 0.88931 0.24506 0.0
C848 C 0.41539 0.91359 0.26341 0.0
C849 C 0.42226 0.92157 0.27894 0.0
C850 C 0.41736 0.9158 0.29507 0.0
C851 C 0.42402 0.92334 0.30964 0.0
C852 C 0.43549 0.93676 0.30824 0.0
C853 C 0.44027 0.9427 0.29226 0.0
C854 C 0.43365 0.93518 0.27765 0.0
C855 C 0.35698 0.92822 0.21579 0.0
C856 C 0.36165 0.94293 0.20695 0.0
C857 C 0.36844 0.92018 0.22657 0.0
C858 C 0.38495 0.92648 0.22851 0.0
C859 C 0.38937 0.94177 0.22053 0.0
C860 C 0.37777 0.94997 0.20982 0.0
C861 C 0.39765 0.91641 0.23813 0.0
C862 C 0.40553 0.92355 0.25239 0.0
C863 C 0.40079 0.89921 0.23409 0.0
C864 C 0.39379 0.89123 0.21855 0.0
C865 C 0.39658 0.89859 0.20256 0.0
C866 C 0.38965 0.89123 0.18801 0.0
C867 C 0.38001 0.87645 0.18927 0.0
C868 C 0.3773 0.86896 0.20508 0.0
C869 C 0.38417 0.87628 0.21967 0.0
H870 H 0.37465 0.87078 0.17799 0.0
H871 H 0.44064 0.94258 0.31954 0.0
H872 H 0.15182 0.5781 0.70963 0.0
H873 H 0.13289 0.59002 0.73087 0.0
H874 H 0.09819 0.54845 0.72366 0.0
H875 H 0.11733 0.53624 0.70223 0.0
H876 H 0.08261 0.58154 0.72349 0.0
H877 H 0.11873 0.54856 0.75877 0.0
H878 H 0.14592 0.5373 0.76922 0.0
H879 H 0.16172 0.58748 0.78303 0.0
H880 H 0.13473 0.59909 0.77242 0.0
H881 H 0.03805 0.61925 0.79534 0.0
H882 H 0.05098 0.59871 0.77576 0.0
H883 H 0.09687 0.62835 0.77507 0.0
H884 H 0.08421 0.64867 0.79445 0.0
H885 H 0.10334 0.59525 0.78122 0.0
H886 H 0.06983 0.62848 0.74187 0.0
H887 H 0.04328 0.64053 0.73064 0.0
H888 H 0.02298 0.59047 0.7242 0.0
H889 H 0.04935 0.57813 0.73562 0.0
C890 C 0.14024 0.57137 0.71262 0.0
C891 C 0.13609 0.5562 0.70428 0.0
C892 C 0.12944 0.5782 0.7248 0.0
C893 C 0.11417 0.57009 0.7289 0.0
C894 C 0.10994 0.55488 0.72068 0.0
C895 C 0.12091 0.54788 0.70855 0.0
C896 C 0.10274 0.57799 0.74158 0.0
C897 C 0.08692 0.58418 0.73627 0.0
C898 C 0.10848 0.58163 0.75815 0.0
C899 C 0.12471 0.5747 0.76471 0.0
C900 C 0.12804 0.55721 0.76393 0.0
C901 C 0.14342 0.55076 0.7699 0.0
C902 C 0.15555 0.56167 0.77677 0.0
C903 C 0.15231 0.57905 0.77771 0.0
C904 C 0.13696 0.58557 0.77174 0.0
C905 C 0.05082 0.62144 0.79084 0.0
C906 C 0.06012 0.63555 0.79651 0.0
C907 C 0.05819 0.60971 0.77968 0.0
C908 C 0.07494 0.61195 0.77403 0.0
C909 C 0.084 0.62626 0.77937 0.0
C910 C 0.07669 0.63793 0.79042 0.0
C911 C 0.08349 0.59935 0.76295 0.0
C912 C 0.0988 0.59226 0.76859 0.0
C913 C 0.07728 0.59498 0.7467 0.0
C914 C 0.06146 0.60239 0.73982 0.0
C915 C 0.05965 0.62005 0.73821 0.0
C916 C 0.04464 0.62693 0.73178 0.0
C917 C 0.03143 0.61627 0.72677 0.0
C918 C 0.03321 0.59871 0.72813 0.0
C919 C 0.04818 0.59176 0.73457 0.0
H920 H 0.01983 0.62163 0.72178 0.0
H921 H 0.16745 0.55665 0.78138 0.0
H922 H 0.37676 0.0337 0.79119 0.0
H923 H 0.39771 0.04526 0.77116 0.0
H924 H 0.3775 0.0954 0.77899 0.0
H925 H 0.35664 0.08409 0.79866 0.0
H926 H 0.39285 0.06462 0.74073 0.0
H927 H 0.41061 0.12248 0.78254 0.0
H928 H 0.41328 0.12943 0.81288 0.0
H929 H 0.42281 0.07711 0.82432 0.0
H930 H 0.42046 0.06988 0.79403 0.0
H931 H 0.41458 0.13873 0.69777 0.0
H932 H 0.40374 0.11779 0.71764 0.0
H933 H 0.45475 0.10468 0.7321 0.0
H934 H 0.46587 0.12564 0.71177 0.0
H935 H 0.43114 0.11068 0.75993 0.0
H936 H 0.43634 0.07677 0.71053 0.0
H937 H 0.43359 0.0699 0.68019 0.0
H938 H 0.37944 0.0733 0.68402 0.0
H939 H 0.38186 0.08045 0.71433 0.0
C940 C 0.37674 0.04716 0.78852 0.0
C941 C 0.36505 0.05797 0.79654 0.0
C942 C 0.38871 0.05373 0.77711 0.0
C943 C 0.3893 0.07122 0.77381 0.0
C944 C 0.37743 0.08191 0.78155 0.0
C945 C 0.36543 0.07538 0.79274 0.0
C946 C 0.40211 0.07862 0.7622 0.0
C947 C 0.4014 0.07452 0.74493 0.0
C948 C 0.4135 0.09133 0.76777 0.0
C949 C 0.41527 0.09563 0.78599 0.0
C950 C 0.41339 0.11247 0.7915 0.0
C951 C 0.41482 0.11646 0.8087 0.0
C952 C 0.41818 0.10371 0.82052 0.0
C953 C 0.42017 0.08696 0.81516 0.0
C954 C 0.41877 0.08291 0.79798 0.0
C955 C 0.42357 0.13145 0.70515 0.0
C956 C 0.44111 0.13388 0.70322 0.0
C957 C 0.41732 0.11939 0.71644 0.0
C958 C 0.42843 0.10958 0.7262 0.0
C959 C 0.44598 0.11209 0.72457 0.0
C960 C 0.4523 0.12404 0.713 0.0
C961 C 0.42132 0.09717 0.73839 0.0
C962 C 0.42298 0.10044 0.75577 0.0
C963 C 0.41087 0.08365 0.73293 0.0
C964 C 0.4093 0.07923 0.71471 0.0
C965 C 0.42384 0.07617 0.70488 0.0
C966 C 0.42234 0.0722 0.68769 0.0
C967 C 0.40635 0.07118 0.68018 0.0
C968 C 0.39182 0.07409 0.68985 0.0
C969 C 0.39325 0.07807 0.70706 0.0
H970 H 0.40522 0.06811 0.66686 0.0
H971 H 0.41926 0.10682 0.83383 0.0
H972 H 0.84818 0.42254 0.71089 0.0
H973 H 0.86703 0.41091 0.73233 0.0
H974 H 0.90125 0.45294 0.72542 0.0
H975 H 0.88217 0.46484 0.70373 0.0
H976 H 0.91726 0.42029 0.72537 0.0
H977 H 0.88017 0.45226 0.76053 0.0
H978 H 0.85255 0.4629 0.77051 0.0
H979 H 0.83749 0.41232 0.78367 0.0
H980 H 0.86492 0.40132 0.77353 0.0
H981 H 0.96193 0.38173 0.79642 0.0
H982 H 0.94882 0.40244 0.77718 0.0
H983 H 0.90294 0.37277 0.77659 0.0
H984 H 0.91577 0.3523 0.79572 0.0
H985 H 0.89613 0.40548 0.78267 0.0
H986 H 0.93029 0.37327 0.74304 0.0
H987 H 0.95697 0.36166 0.73166 0.0
H988 H 0.97689 0.412 0.7263 0.0
H989 H 0.95038 0.42389 0.73786 0.0
C990 C 0.85963 0.42944 0.71398 0.0
C991 C 0.86368 0.44463 0.70563 0.0
C992 C 0.87039 0.42278 0.72629 0.0
C993 C 0.88549 0.43111 0.73055 0.0
C994 C 0.88961 0.44635 0.72233 0.0
C995 C 0.87869 0.45317 0.71005 0.0
C996 C 0.89692 0.42332 0.74329 0.0
C997 C 0.91287 0.41743 0.73807 0.0
C998 C 0.89104 0.41937 0.75976 0.0
C999 C 0.87461 0.42595 0.76619 0.0
C1000 C 0.87094 0.44338 0.76547 0.0
C1001 C 0.85532 0.44948 0.77116 0.0
C1002 C 0.84326 0.43829 0.7777 0.0
C1003 C 0.84684 0.42098 0.77861 0.0
C1004 C 0.86245 0.41481 0.77292 0.0
C1005 C 0.94913 0.37955 0.792 0.0
C1006 C 0.93988 0.3654 0.79764 0.0
C1007 C 0.94165 0.3914 0.78104 0.0
C1008 C 0.92484 0.38921 0.77551 0.0
C1009 C 0.91584 0.37483 0.7808 0.0
C1010 C 0.92326 0.36308 0.7917 0.0
C1011 C 0.91622 0.40189 0.76455 0.0
C1012 C 0.90076 0.40871 0.77014 0.0
C1013 C 0.92252 0.40659 0.74843 0.0
C1014 C 0.93846 0.39945 0.74153 0.0
C1015 C 0.94042 0.38185 0.73959 0.0
C1016 C 0.9555 0.37522 0.73307 0.0
C1017 C 0.96864 0.38608 0.72832 0.0
C1018 C 0.96672 0.4036 0.73003 0.0
C1019 C 0.95167 0.41029 0.73656 0.0
H1020 H 0.9803 0.38092 0.72326 0.0
H1021 H 0.83116 0.44303 0.78207 0.0
H1022 H 0.61721 0.96265 0.79707 0.0
H1023 H 0.59784 0.95063 0.77578 0.0
H1024 H 0.63247 0.9091 0.76784 0.0
H1025 H 0.65163 0.92087 0.78897 0.0
H1026 H 0.6197 0.92189 0.73784 0.0
H1027 H 0.5992 0.90437 0.79346 0.0
H1028 H 0.58812 0.90975 0.82218 0.0
H1029 H 0.54588 0.9368 0.80111 0.0
H1030 H 0.55685 0.93176 0.77225 0.0
H1031 H 0.58179 0.84926 0.70829 0.0
H1032 H 0.59451 0.87025 0.72691 0.0
H1033 H 0.54962 0.90117 0.72321 0.0
H1034 H 0.5366 0.87994 0.70441 0.0
H1035 H 0.56373 0.9 0.75637 0.0
H1036 H 0.58173 0.91277 0.7004 0.0
H1037 H 0.59266 0.90664 0.67179 0.0
H1038 H 0.63944 0.88889 0.69314 0.0
H1039 H 0.6287 0.89466 0.72191 0.0
C1040 C 0.62074 0.95108 0.79059 0.0
C1041 C 0.63589 0.94266 0.79472 0.0
C1042 C 0.60965 0.9442 0.77852 0.0
C1043 C 0.61368 0.92891 0.77031 0.0
C1044 C 0.62911 0.92091 0.77399 0.0
C1045 C 0.64003 0.92763 0.78613 0.0
C1046 C 0.60177 0.92063 0.75834 0.0
C1047 C 0.60744 0.91715 0.74187 0.0
C1048 C 0.58554 0.9149 0.76342 0.0
C1049 C 0.57896 0.91789 0.78074 0.0
C1050 C 0.58763 0.9116 0.79497 0.0
C1051 C 0.58136 0.91455 0.81126 0.0
C1052 C 0.56634 0.92366 0.81347 0.0
C1053 C 0.55753 0.92979 0.79938 0.0
C1054 C 0.56377 0.92688 0.78306 0.0
C1055 C 0.57448 0.86042 0.71153 0.0
C1056 C 0.55823 0.86301 0.70473 0.0
C1057 C 0.58182 0.87245 0.72214 0.0
C1058 C 0.57316 0.88743 0.72615 0.0
C1059 C 0.55656 0.88974 0.72015 0.0
C1060 C 0.54914 0.8776 0.70945 0.0
C1061 C 0.58199 0.90073 0.73611 0.0
C1062 C 0.57576 0.90514 0.75217 0.0
C1063 C 0.59772 0.90739 0.73064 0.0
C1064 C 0.60436 0.90408 0.71334 0.0
C1065 C 0.59431 0.90747 0.69901 0.0
C1066 C 0.60048 0.90406 0.68276 0.0
C1067 C 0.61672 0.89736 0.68065 0.0
C1068 C 0.62685 0.89409 0.69479 0.0
C1069 C 0.62074 0.89745 0.71108 0.0
H1070 H 0.62147 0.89473 0.66806 0.0
H1071 H 0.56149 0.92593 0.8261 0.0
H1072 H 0.1836 0.07853 0.37614 0.0
H1073 H 0.20406 0.09199 0.39501 0.0
H1074 H 0.2414 0.05441 0.3814 0.0
H1075 H 0.22036 0.04023 0.36317 0.0
H1076 H 0.24609 0.06399 0.41353 0.0
H1077 H 0.2394 0.09283 0.3606 0.0
H1078 H 0.22365 0.10661 0.33739 0.0
H1079 H 0.20477 0.14405 0.37206 0.0
H1080 H 0.22024 0.13034 0.39553 0.0
H1081 H 0.30578 0.14317 0.41261 0.0
H1082 H 0.28535 0.12402 0.39996 0.0
H1083 H 0.26819 0.10914 0.44971 0.0
H1084 H 0.28939 0.12803 0.46259 0.0
H1085 H 0.25355 0.12491 0.39994 0.0
H1086 H 0.25058 0.06886 0.44715 0.0
H1087 H 0.26911 0.05407 0.46754 0.0
H1088 H 0.31298 0.0697 0.43941 0.0
H1089 H 0.2947 0.08438 0.41876 0.0
C1090 C 0.19609 0.07297 0.37745 0.0
C1091 C 0.20056 0.05853 0.36813 0.0
C1092 C 0.20778 0.08068 0.38818 0.0
C1093 C 0.22443 0.07452 0.38926 0.0
C1094 C 0.22866 0.05945 0.3807 0.0
C1095 C 0.21671 0.0514 0.37026 0.0
C1096 C 0.23762 0.08477 0.398 0.0
C1097 C 0.24775 0.07731 0.41059 0.0
C1098 C 0.24004 0.10209 0.39395 0.0
C1099 C 0.23085 0.11047 0.37984 0.0
C1100 C 0.23181 0.10394 0.36328 0.0
C1101 C 0.22295 0.11174 0.35009 0.0
C1102 C 0.21319 0.12617 0.35326 0.0
C1103 C 0.21232 0.13286 0.36963 0.0
C1104 C 0.22114 0.12509 0.38288 0.0
C1105 C 0.2977 0.13584 0.42093 0.0
C1106 C 0.29911 0.13721 0.43862 0.0
C1107 C 0.28599 0.12485 0.41364 0.0
C1108 C 0.27519 0.11507 0.42382 0.0
C1109 C 0.27654 0.11636 0.44156 0.0
C1110 C 0.28855 0.12723 0.44892 0.0
C1111 C 0.26217 0.10421 0.41553 0.0
C1112 C 0.25195 0.1116 0.403 0.0
C1113 C 0.26017 0.08675 0.41926 0.0
C1114 C 0.27127 0.07788 0.43154 0.0
C1115 C 0.26418 0.0691 0.44531 0.0
C1116 C 0.27464 0.06074 0.45691 0.0
C1117 C 0.29221 0.061 0.45481 0.0
C1118 C 0.29936 0.06957 0.44107 0.0
C1119 C 0.28896 0.07793 0.42943 0.0
H1120 H 0.30029 0.05453 0.46381 0.0
H1121 H 0.20633 0.13219 0.34302 0.0
H1122 H 0.88211 0.29792 0.46339 0.0
H1123 H 0.90114 0.2767 0.45075 0.0
H1124 H 0.86531 0.2688 0.41025 0.0
H1125 H 0.84643 0.28981 0.42268 0.0
H1126 H 0.87851 0.23897 0.42189 0.0
H1127 H 0.89872 0.29468 0.4049 0.0
H1128 H 0.9098 0.32339 0.41033 0.0
H1129 H 0.95256 0.30223 0.43649 0.0
H1130 H 0.94159 0.27338 0.4314 0.0
H1131 H 0.91717 0.2085 0.34969 0.0
H1132 H 0.90411 0.22759 0.37008 0.0
H1133 H 0.94855 0.22464 0.40172 0.0
H1134 H 0.9619 0.20541 0.38113 0.0
H1135 H 0.93442 0.2576 0.39997 0.0
H1136 H 0.9162 0.20155 0.41276 0.0
H1137 H 0.90518 0.173 0.40652 0.0
H1138 H 0.85868 0.19462 0.38835 0.0
H1139 H 0.86953 0.22333 0.39423 0.0
C1140 C 0.87823 0.29145 0.45193 0.0
C1141 C 0.86282 0.29557 0.44398 0.0
C1142 C 0.88913 0.27942 0.44468 0.0
C1143 C 0.8847 0.27128 0.42947 0.0
C1144 C 0.869 0.27491 0.42197 0.0
C1145 C 0.85823 0.28697 0.42908 0.0
C1146 C 0.89646 0.25946 0.42076 0.0
C1147 C 0.89074 0.24304 0.41712 0.0
C1148 C 0.91264 0.26459 0.41495 0.0
C1149 C 0.91923 0.2819 0.41797 0.0
C1150 C 0.9104 0.29616 0.41195 0.0
C1151 C 0.91668 0.31245 0.41493 0.0
C1152 C 0.93184 0.31463 0.4238 0.0
C1153 C 0.94079 0.30052 0.42966 0.0
C1154 C 0.93456 0.2842 0.42672 0.0
C1155 C 0.92431 0.21203 0.36087 0.0
C1156 C 0.94052 0.2053 0.36387 0.0
C1157 C 0.91678 0.22291 0.37256 0.0
C1158 C 0.92521 0.22725 0.38759 0.0
C1159 C 0.94179 0.22134 0.39025 0.0
C1160 C 0.94939 0.21039 0.37848 0.0
C1161 C 0.91617 0.23734 0.40064 0.0
C1162 C 0.92239 0.25339 0.40509 0.0
C1163 C 0.90041 0.23187 0.40724 0.0
C1164 C 0.89373 0.21461 0.40386 0.0
C1165 C 0.90367 0.20023 0.40734 0.0
C1166 C 0.89744 0.18401 0.40387 0.0
C1167 C 0.88125 0.182 0.39703 0.0
C1168 C 0.87122 0.1962 0.39366 0.0
C1169 C 0.8774 0.21245 0.39708 0.0
H1170 H 0.87645 0.16944 0.39435 0.0
H1171 H 0.93668 0.32725 0.4261 0.0
H1172 H 0.7051 0.8493 0.41697 0.0
H1173 H 0.72639 0.86785 0.40469 0.0
H1174 H 0.72674 0.89807 0.4502 0.0
H1175 H 0.70511 0.87937 0.46273 0.0
H1176 H 0.72538 0.91753 0.42015 0.0
H1177 H 0.75957 0.8736 0.44328 0.0
H1178 H 0.76801 0.84416 0.4494 0.0
H1179 H 0.77435 0.8346 0.39623 0.0
H1180 H 0.7657 0.86391 0.38976 0.0
H1181 H 0.79749 0.96027 0.38175 0.0
H1182 H 0.77797 0.94638 0.4016 0.0
H1183 H 0.77144 0.9052 0.36625 0.0
H1184 H 0.79104 0.91876 0.34667 0.0
H1185 H 0.77848 0.89337 0.39679 0.0
H1186 H 0.7404 0.93577 0.37366 0.0
H1187 H 0.73122 0.96493 0.3672 0.0
H1188 H 0.73208 0.97724 0.42019 0.0
H1189 H 0.74148 0.94819 0.42694 0.0
C1190 C 0.70972 0.85982 0.42448 0.0
C1191 C 0.70344 0.86283 0.44087 0.0
C1192 C 0.72195 0.8704 0.41743 0.0
C1193 C 0.72828 0.88426 0.42657 0.0
C1194 C 0.72205 0.88741 0.44295 0.0
C1195 C 0.70979 0.87668 0.45012 0.0
C1196 C 0.74122 0.89536 0.41861 0.0
C1197 C 0.73719 0.91239 0.41536 0.0
C1198 C 0.75652 0.88858 0.4122 0.0
C1199 C 0.7619 0.87096 0.41603 0.0
C1200 C 0.76267 0.8652 0.43288 0.0
C1201 C 0.7675 0.84853 0.43642 0.0
C1202 C 0.7717 0.83751 0.42322 0.0
C1203 C 0.7711 0.84315 0.40645 0.0
C1204 C 0.76626 0.8598 0.40284 0.0
C1205 C 0.79168 0.94838 0.37814 0.0
C1206 C 0.79586 0.94058 0.36267 0.0
C1207 C 0.78053 0.94045 0.38949 0.0
C1208 C 0.77325 0.9247 0.38545 0.0
C1209 C 0.77699 0.91726 0.36974 0.0
C1210 C 0.78816 0.92508 0.3585 0.0
C1211 C 0.76235 0.91537 0.39769 0.0
C1212 C 0.76683 0.89865 0.40181 0.0
C1213 C 0.7475 0.92245 0.40485 0.0
C1214 C 0.74184 0.93988 0.40078 0.0
C1215 C 0.73877 0.94474 0.38392 0.0
C1216 C 0.7335 0.96124 0.38021 0.0
C1217 C 0.73112 0.97295 0.39327 0.0
C1218 C 0.73396 0.96817 0.41008 0.0
C1219 C 0.73925 0.95169 0.41385 0.0
H1220 H 0.72703 0.98572 0.39037 0.0
H1221 H 0.77543 0.82461 0.42598 0.0
H1222 H 0.07855 0.78921 0.34918 0.0
H1223 H 0.0896 0.76791 0.36858 0.0
H1224 H 0.04817 0.77732 0.40293 0.0
H1225 H 0.03681 0.79877 0.38327 0.0
H1226 H 0.08152 0.77679 0.41847 0.0
H1227 H 0.04683 0.74186 0.38389 0.0
H1228 H 0.03468 0.73105 0.35723 0.0
H1229 H 0.08399 0.71483 0.34099 0.0
H1230 H 0.0965 0.72578 0.36744 0.0
H1231 H 0.119 0.70536 0.46403 0.0
H1232 H 0.09829 0.72482 0.45119 0.0
H1233 H 0.12645 0.72378 0.40437 0.0
H1234 H 0.14691 0.70449 0.41694 0.0
H1235 H 0.09309 0.71814 0.39906 0.0
H1236 H 0.12802 0.75765 0.4309 0.0
H1237 H 0.14078 0.7693 0.45694 0.0
H1238 H 0.09124 0.7771 0.47804 0.0
H1239 H 0.0782 0.76528 0.45218 0.0
C1240 C 0.07167 0.78669 0.36079 0.0
C1241 C 0.05679 0.79565 0.36469 0.0
C1242 C 0.07799 0.77448 0.37185 0.0
C1243 C 0.06967 0.77099 0.38716 0.0
C1244 C 0.05475 0.77983 0.39115 0.0
C1245 C 0.04824 0.79197 0.37989 0.0
C1246 C 0.0771 0.75831 0.39889 0.0
C1247 C 0.08368 0.76382 0.41448 0.0
C1248 C 0.08007 0.74147 0.39356 0.0
C1249 C 0.07261 0.73473 0.37765 0.0
C1250 C 0.05511 0.7361 0.37459 0.0
C1251 C 0.04815 0.72993 0.35952 0.0
C1252 C 0.05856 0.72228 0.34742 0.0
C1253 C 0.07594 0.72075 0.35038 0.0
C1254 C 0.08297 0.72692 0.36543 0.0
C1255 C 0.12082 0.70944 0.45107 0.0
C1256 C 0.13457 0.70333 0.44149 0.0
C1257 C 0.10899 0.72054 0.44375 0.0
C1258 C 0.11077 0.72568 0.42678 0.0
C1259 C 0.12471 0.71987 0.41742 0.0
C1260 C 0.13647 0.70888 0.42468 0.0
C1261 C 0.09813 0.7368 0.41833 0.0
C1262 C 0.09056 0.73096 0.40332 0.0
C1263 C 0.09431 0.75331 0.4242 0.0
C1264 C 0.10215 0.76037 0.43972 0.0
C1265 C 0.11986 0.7617 0.44116 0.0
C1266 C 0.12714 0.76836 0.45587 0.0
C1267 C 0.11683 0.77387 0.46916 0.0
C1268 C 0.09922 0.77278 0.46775 0.0
C1269 C 0.09187 0.76611 0.45308 0.0
H1270 H 0.12249 0.77904 0.48054 0.0
H1271 H 0.05315 0.71751 0.33575 0.0
H1272 H 0.20513 0.96287 0.62045 0.0
H1273 H 0.22655 0.95021 0.60174 0.0
H1274 H 0.2294 0.90661 0.63457 0.0
H1275 H 0.20829 0.91915 0.65324 0.0
H1276 H 0.26043 0.91664 0.62476 0.0
H1277 H 0.20581 0.90632 0.59805 0.0
H1278 H 0.17876 0.91515 0.5851 0.0
H1279 H 0.20576 0.94356 0.54738 0.0
H1280 H 0.23298 0.93506 0.56025 0.0
H1281 H 0.29042 0.84708 0.58145 0.0
H1282 H 0.27135 0.8672 0.59493 0.0
H1283 H 0.27946 0.90263 0.55413 0.0
H1284 H 0.2986 0.88223 0.54029 0.0
H1285 H 0.24578 0.90207 0.56537 0.0
H1286 H 0.30058 0.90865 0.58979 0.0
H1287 H 0.32745 0.89917 0.60258 0.0
H1288 H 0.3003 0.87796 0.64466 0.0
H1289 H 0.27323 0.88708 0.632 0.0
C1290 C 0.21048 0.95068 0.62375 0.0
C1291 C 0.20498 0.94199 0.6383 0.0
C1292 C 0.22264 0.94342 0.613 0.0
C1293 C 0.22946 0.92737 0.61667 0.0
C1294 C 0.22433 0.91899 0.63147 0.0
C1295 C 0.21221 0.92617 0.64213 0.0
C1296 C 0.24167 0.91889 0.60509 0.0
C1297 C 0.25721 0.91345 0.61178 0.0
C1298 C 0.23774 0.91519 0.58797 0.0
C1299 C 0.2214 0.92024 0.58023 0.0
C1300 C 0.20596 0.91456 0.58708 0.0
C1301 C 0.19061 0.91948 0.57974 0.0
C1302 C 0.19054 0.92996 0.56547 0.0
C1303 C 0.20583 0.93548 0.55846 0.0
C1304 C 0.22122 0.93062 0.56577 0.0
C1305 C 0.28804 0.85906 0.57519 0.0
C1306 C 0.29617 0.86314 0.55989 0.0
C1307 C 0.27716 0.87059 0.58296 0.0
C1308 C 0.2743 0.88657 0.57575 0.0
C1309 C 0.28162 0.8904 0.55998 0.0
C1310 C 0.29251 0.87875 0.55208 0.0
C1311 C 0.26422 0.8993 0.58529 0.0
C1312 C 0.24915 0.90557 0.57822 0.0
C1313 C 0.26857 0.90381 0.6021 0.0
C1314 C 0.28485 0.89848 0.60989 0.0
C1315 C 0.30032 0.90188 0.60172 0.0
C1316 C 0.3156 0.89657 0.60895 0.0
C1317 C 0.31558 0.88795 0.62441 0.0
C1318 C 0.30029 0.88464 0.63269 0.0
C1319 C 0.28498 0.8899 0.6255 0.0
H1320 H 0.32742 0.88385 0.62998 0.0
H1321 H 0.17864 0.93375 0.5598 0.0
H1322 H 0.03614 0.20339 0.61994 0.0
H1323 H 0.04801 0.22443 0.60019 0.0
H1324 H 0.091 0.23111 0.63326 0.0
H1325 H 0.07935 0.21033 0.65283 0.0
H1326 H 0.07898 0.2613 0.62152 0.0
H1327 H 0.09333 0.20557 0.59895 0.0
H1328 H 0.08636 0.17734 0.58749 0.0
H1329 H 0.05811 0.20042 0.54711 0.0
H1330 H 0.06475 0.22879 0.55847 0.0
H1331 H 0.15003 0.29034 0.58032 0.0
H1332 H 0.12955 0.27166 0.59378 0.0
H1333 H 0.09632 0.27659 0.55069 0.0
H1334 H 0.11706 0.29538 0.5369 0.0
H1335 H 0.09727 0.24338 0.56409 0.0
H1336 H 0.08736 0.29934 0.58412 0.0
H1337 H 0.0951 0.32741 0.5954 0.0
H1338 H 0.11472 0.3042 0.64052 0.0
H1339 H 0.10734 0.27595 0.6294 0.0
C1340 C 0.04801 0.20953 0.62305 0.0
C1341 C 0.05685 0.20517 0.6379 0.0
C1342 C 0.05482 0.22146 0.61173 0.0
C1343 C 0.07046 0.22925 0.6152 0.0
C1344 C 0.07892 0.22528 0.63031 0.0
C1345 C 0.07225 0.21334 0.64147 0.0
C1346 C 0.07857 0.24118 0.60311 0.0
C1347 C 0.08294 0.25739 0.60895 0.0
C1348 C 0.08329 0.2363 0.5865 0.0
C1349 C 0.07934 0.21927 0.57968 0.0
C1350 C 0.08551 0.20461 0.58771 0.0
C1351 C 0.08164 0.18859 0.58122 0.0
C1352 C 0.07175 0.18708 0.56661 0.0
C1353 C 0.06574 0.2016 0.55844 0.0
C1354 C 0.06955 0.21765 0.5649 0.0
C1355 C 0.13847 0.28734 0.57356 0.0
C1356 C 0.1351 0.29449 0.5576 0.0
C1357 C 0.12674 0.27668 0.58131 0.0
C1358 C 0.11124 0.27303 0.57341 0.0
C1359 C 0.10815 0.27936 0.55706 0.0
C1360 C 0.12001 0.29006 0.5492 0.0
C1361 C 0.09823 0.2632 0.58281 0.0
C1362 C 0.09293 0.24745 0.57647 0.0
C1363 C 0.0926 0.2685 0.599 0.0
C1364 C 0.09686 0.2855 0.60587 0.0
C1365 C 0.09341 0.3002 0.59641 0.0
C1366 C 0.09773 0.31616 0.60278 0.0
C1367 C 0.10542 0.31759 0.61866 0.0
C1368 C 0.10876 0.30307 0.62822 0.0
C1369 C 0.10449 0.28708 0.6219 0.0
H1370 H 0.10876 0.32995 0.62356 0.0
H1371 H 0.06877 0.17467 0.5616 0.0
H1372 H 0.79652 0.0404 0.62069 0.0
H1373 H 0.77538 0.05347 0.60188 0.0
H1374 H 0.76876 0.0942 0.63771 0.0
H1375 H 0.78973 0.08135 0.65638 0.0
H1376 H 0.73845 0.08273 0.62501 0.0
H1377 H 0.79401 0.09918 0.6039 0.0
H1378 H 0.82248 0.09343 0.59238 0.0
H1379 H 0.80038 0.06741 0.55002 0.0
H1380 H 0.77176 0.07283 0.56143 0.0
H1381 H 0.70713 0.1546 0.58616 0.0
H1382 H 0.72621 0.13427 0.59935 0.0
H1383 H 0.72376 0.10268 0.55485 0.0
H1384 H 0.70459 0.12322 0.54136 0.0
H1385 H 0.75636 0.10432 0.56873 0.0
H1386 H 0.70063 0.09162 0.58766 0.0
H1387 H 0.67217 0.09772 0.59898 0.0
H1388 H 0.69417 0.11608 0.64522 0.0
H1389 H 0.72279 0.11033 0.63408 0.0
C1390 C 0.79037 0.05202 0.62461 0.0
C1391 C 0.79481 0.05988 0.63998 0.0
C1392 C 0.77839 0.05951 0.61383 0.0
C1393 C 0.7706 0.07488 0.61834 0.0
C1394 C 0.7746 0.08235 0.63396 0.0
C1395 C 0.78663 0.075 0.64461 0.0
C1396 C 0.75869 0.08372 0.60677 0.0
C1397 C 0.74237 0.08745 0.61271 0.0
C1398 C 0.7636 0.08942 0.59048 0.0
C1399 C 0.78078 0.08621 0.58363 0.0
C1400 C 0.79523 0.0921 0.59221 0.0
C1401 C 0.81139 0.08893 0.58569 0.0
C1402 C 0.81324 0.08001 0.57051 0.0
C1403 C 0.79893 0.07429 0.5618 0.0
C1404 C 0.78274 0.07741 0.56828 0.0
C1405 C 0.71075 0.14343 0.57905 0.0
C1406 C 0.70421 0.14045 0.56276 0.0
C1407 C 0.72163 0.13178 0.58666 0.0
C1408 C 0.72612 0.11678 0.57823 0.0
C1409 C 0.72034 0.11412 0.56161 0.0
C1410 C 0.70942 0.12586 0.55393 0.0
C1411 C 0.73635 0.10382 0.58727 0.0
C1412 C 0.7523 0.09929 0.58086 0.0
C1413 C 0.73108 0.09729 0.60313 0.0
C1414 C 0.71387 0.10063 0.60998 0.0
C1415 C 0.69941 0.09705 0.6002 0.0
C1416 C 0.68324 0.10044 0.60659 0.0
C1417 C 0.68136 0.1073 0.6228 0.0
C1418 C 0.69565 0.11076 0.63266 0.0
C1419 C 0.71185 0.10742 0.62633 0.0
H1420 H 0.66883 0.10992 0.62772 0.0
H1421 H 0.82576 0.07757 0.56548 0.0
H1422 H 0.84957 0.71318 0.57707 0.0
H1423 H 0.86911 0.73433 0.58823 0.0
H1424 H 0.90492 0.72247 0.54871 0.0
H1425 H 0.88515 0.70122 0.53723 0.0
H1426 H 0.91894 0.72348 0.58277 0.0
H1427 H 0.88732 0.75841 0.54534 0.0
H1428 H 0.86167 0.76975 0.5316 0.0
H1429 H 0.84381 0.78825 0.57953 0.0
H1430 H 0.86923 0.77679 0.59362 0.0
H1431 H 0.96498 0.79491 0.62025 0.0
H1432 H 0.95263 0.77536 0.59929 0.0
H1433 H 0.90474 0.77766 0.62549 0.0
H1434 H 0.91681 0.7969 0.64623 0.0
H1435 H 0.90124 0.78316 0.59147 0.0
H1436 H 0.92977 0.74361 0.62913 0.0
H1437 H 0.95468 0.73146 0.64356 0.0
H1438 H 0.97799 0.72144 0.59544 0.0
H1439 H 0.95328 0.73376 0.58073 0.0
C1440 C 0.86153 0.71515 0.57062 0.0
C1441 C 0.86582 0.70557 0.55625 0.0
C1442 C 0.87267 0.72727 0.577 0.0
C1443 C 0.88844 0.73 0.56927 0.0
C1444 C 0.89279 0.72055 0.55484 0.0
C1445 C 0.88147 0.70853 0.54825 0.0
C1446 C 0.90028 0.74249 0.57682 0.0
C1447 C 0.91534 0.73666 0.5843 0.0
C1448 C 0.89546 0.75961 0.57897 0.0
C1449 C 0.88017 0.76666 0.57055 0.0
C1450 C 0.87788 0.7648 0.55298 0.0
C1451 C 0.86338 0.77126 0.54512 0.0
C1452 C 0.85111 0.7797 0.55468 0.0
C1453 C 0.85333 0.78172 0.57213 0.0
C1454 C 0.8678 0.77526 0.58006 0.0
C1455 C 0.95188 0.79108 0.62159 0.0
C1456 C 0.94188 0.79751 0.63487 0.0
C1457 C 0.94484 0.77995 0.60961 0.0
C1458 C 0.92771 0.77515 0.61077 0.0
C1459 C 0.91791 0.7813 0.62424 0.0
C1460 C 0.9249 0.79228 0.63615 0.0
C1461 C 0.91955 0.764 0.59799 0.0
C1462 C 0.90514 0.77012 0.58953 0.0
C1463 C 0.92496 0.74717 0.59501 0.0
C1464 C 0.9398 0.73982 0.60385 0.0
C1465 C 0.94028 0.73898 0.62164 0.0
C1466 C 0.95434 0.73202 0.62986 0.0
C1467 C 0.96794 0.72574 0.62042 0.0
C1468 C 0.96747 0.72636 0.60273 0.0
C1469 C 0.95344 0.73332 0.59445 0.0
H1470 H 0.97881 0.72035 0.62681 0.0
H1471 H 0.83989 0.7847 0.54858 0.0
H1472 H 0.4197 0.28963 0.15261 0.0
H1473 H 0.40809 0.26842 0.13347 0.0
H1474 H 0.45043 0.27536 0.09965 0.0
H1475 H 0.46229 0.2968 0.11898 0.0
H1476 H 0.41832 0.27563 0.0832 0.0
H1477 H 0.44926 0.24003 0.12062 0.0
H1478 H 0.45942 0.22948 0.14821 0.0
H1479 H 0.40851 0.21659 0.16237 0.0
H1480 H 0.39799 0.22729 0.13497 0.0
H1481 H 0.38025 0.20452 0.03783 0.0
H1482 H 0.40072 0.22387 0.05117 0.0
H1483 H 0.37013 0.22489 0.09645 0.0
H1484 H 0.34993 0.20564 0.0834 0.0
H1485 H 0.40265 0.21836 0.1038 0.0
H1486 H 0.37155 0.25833 0.06876 0.0
H1487 H 0.36087 0.26969 0.04168 0.0
H1488 H 0.41184 0.27454 0.0233 0.0
H1489 H 0.42281 0.263 0.05022 0.0
C1490 C 0.42666 0.28658 0.14118 0.0
C1491 C 0.44193 0.29487 0.13732 0.0
C1492 C 0.42002 0.27441 0.13026 0.0
C1493 C 0.42844 0.27023 0.11519 0.0
C1494 C 0.44376 0.27839 0.11125 0.0
C1495 C 0.45055 0.29053 0.12233 0.0
C1496 C 0.42072 0.25763 0.10357 0.0
C1497 C 0.41524 0.26294 0.0875 0.0
C1498 C 0.41656 0.24116 0.10928 0.0
C1499 C 0.42283 0.23454 0.12574 0.0
C1500 C 0.44021 0.23504 0.12966 0.0
C1501 C 0.44604 0.22902 0.14526 0.0
C1502 C 0.43462 0.22239 0.15704 0.0
C1503 C 0.41735 0.22173 0.15323 0.0
C1504 C 0.41145 0.22774 0.13765 0.0
C1505 C 0.37783 0.20907 0.05054 0.0
C1506 C 0.36352 0.20349 0.05958 0.0
C1507 C 0.38953 0.2201 0.05815 0.0
C1508 C 0.38701 0.22575 0.07486 0.0
C1509 C 0.37244 0.22057 0.08362 0.0
C1510 C 0.36085 0.2096 0.07609 0.0
C1511 C 0.3996 0.23659 0.08372 0.0
C1512 C 0.40604 0.2309 0.0993 0.0
C1513 C 0.40458 0.25268 0.07755 0.0
C1514 C 0.39798 0.25959 0.06139 0.0
C1515 C 0.38047 0.26167 0.05888 0.0
C1516 C 0.37436 0.26818 0.04358 0.0
C1517 C 0.38567 0.27278 0.03075 0.0
C1518 C 0.4031 0.27093 0.03323 0.0
C1519 C 0.40927 0.26442 0.0485 0.0
H1520 H 0.38092 0.27782 0.01891 0.0
H1521 H 0.43916 0.21774 0.16912 0.0
H1522 H 0.35857 0.7768 0.95614 0.0
H1523 H 0.37753 0.757 0.9413 0.0
H1524 H 0.40072 0.79906 0.91509 0.0
H1525 H 0.38131 0.81857 0.92932 0.0
H1526 H 0.39356 0.77697 0.89339 0.0
H1527 H 0.42186 0.7747 0.94654 0.0
H1528 H 0.42484 0.77119 0.97743 0.0
H1529 H 0.40738 0.71982 0.97356 0.0
H1530 H 0.40407 0.72309 0.94266 0.0
H1531 H 0.46233 0.7071 0.87611 0.0
H1532 H 0.45063 0.72915 0.89476 0.0
H1533 H 0.4017 0.72301 0.87122 0.0
H1534 H 0.41326 0.70148 0.85247 0.0
H1535 H 0.42588 0.72917 0.91829 0.0
H1536 H 0.38167 0.75971 0.86779 0.0
H1537 H 0.38142 0.76491 0.83697 0.0
H1538 H 0.43579 0.76356 0.83602 0.0
H1539 H 0.43638 0.7586 0.86686 0.0
C1540 C 0.36797 0.78172 0.94744 0.0
C1541 C 0.36865 0.7991 0.94385 0.0
C1542 C 0.37884 0.77046 0.939 0.0
C1543 C 0.39069 0.7765 0.92709 0.0
C1544 C 0.39169 0.79403 0.92412 0.0
C1545 C 0.38069 0.80518 0.93231 0.0
C1546 C 0.401 0.76463 0.91661 0.0
C1547 C 0.40068 0.7666 0.89892 0.0
C1548 C 0.41063 0.75123 0.92371 0.0
C1549 C 0.41259 0.74919 0.94229 0.0
C1550 C 0.41853 0.76269 0.95229 0.0
C1551 C 0.4203 0.76074 0.9698 0.0
C1552 C 0.41627 0.7453 0.97746 0.0
C1553 C 0.41049 0.73177 0.96761 0.0
C1554 C 0.40868 0.73366 0.95009 0.0
C1555 C 0.44912 0.71057 0.87487 0.0
C1556 C 0.43878 0.70266 0.8627 0.0
C1557 C 0.44243 0.72309 0.88558 0.0
C1558 C 0.42533 0.72789 0.88425 0.0
C1559 C 0.415 0.71978 0.87228 0.0
C1560 C 0.42165 0.70742 0.86156 0.0
C1561 C 0.41807 0.74141 0.8952 0.0
C1562 C 0.41889 0.73969 0.91289 0.0
C1563 C 0.40928 0.75537 0.88816 0.0
C1564 C 0.40905 0.75865 0.86963 0.0
C1565 C 0.39357 0.76062 0.86102 0.0
C1566 C 0.39337 0.7635 0.84355 0.0
C1567 C 0.40858 0.76452 0.83454 0.0
C1568 C 0.42402 0.76271 0.843 0.0
C1569 C 0.42429 0.75985 0.86048 0.0
H1570 H 0.4084 0.76673 0.82101 0.0
H1571 H 0.41765 0.74381 0.99102 0.0
H1572 H 0.29746 0.46147 0.88345 0.0
H1573 H 0.27628 0.44985 0.90318 0.0
H1574 H 0.26508 0.40996 0.86756 0.0
H1575 H 0.28607 0.42134 0.84801 0.0
H1576 H 0.23628 0.42339 0.88189 0.0
H1577 H 0.29183 0.40305 0.89973 0.0
H1578 H 0.32115 0.40689 0.90983 0.0
H1579 H 0.30285 0.43347 0.95364 0.0
H1580 H 0.27342 0.42996 0.94365 0.0
H1581 H 0.20567 0.35063 0.91886 0.0
H1582 H 0.22453 0.37136 0.90606 0.0
H1583 H 0.2231 0.4013 0.95173 0.0
H1584 H 0.20402 0.38037 0.96481 0.0
H1585 H 0.25596 0.39911 0.93647 0.0
H1586 H 0.19989 0.41458 0.92087 0.0
H1587 H 0.17071 0.40988 0.91078 0.0
H1588 H 0.18975 0.39267 0.86282 0.0
H1589 H 0.21907 0.39699 0.87272 0.0
C1590 C 0.29027 0.45037 0.87977 0.0
C1591 C 0.29345 0.44226 0.86423 0.0
C1592 C 0.27827 0.44371 0.89107 0.0
C1593 C 0.2692 0.42897 0.88688 0.0
C1594 C 0.27191 0.42134 0.87106 0.0
C1595 C 0.28396 0.42784 0.85991 0.0
C1596 C 0.25736 0.4208 0.89899 0.0
C1597 C 0.24056 0.41813 0.89385 0.0
C1598 C 0.2628 0.41438 0.91484 0.0
C1599 C 0.28046 0.41645 0.92083 0.0
C1600 C 0.29408 0.40984 0.91143 0.0
C1601 C 0.31071 0.41193 0.91715 0.0
C1602 C 0.31387 0.42047 0.93233 0.0
C1603 C 0.30039 0.42689 0.94186 0.0
C1604 C 0.28373 0.42486 0.93618 0.0
C1605 C 0.20945 0.36151 0.92631 0.0
C1606 C 0.20321 0.36393 0.94282 0.0
C1607 C 0.22021 0.37339 0.91893 0.0
C1608 C 0.22495 0.38803 0.92782 0.0
C1609 C 0.21948 0.39013 0.94462 0.0
C1610 C 0.20862 0.37818 0.95207 0.0
C1611 C 0.23509 0.40119 0.91902 0.0
C1612 C 0.25153 0.40478 0.92476 0.0
C1613 C 0.22933 0.40851 0.90369 0.0
C1614 C 0.2117 0.40604 0.89758 0.0
C1615 C 0.19786 0.40969 0.90821 0.0
C1616 C 0.18129 0.4071 0.90252 0.0
C1617 C 0.17838 0.40096 0.88618 0.0
C1618 C 0.19203 0.39743 0.87548 0.0
C1619 C 0.20863 0.39997 0.88111 0.0
H1620 H 0.16554 0.39896 0.8818 0.0
H1621 H 0.32675 0.42207 0.93675 0.0
H1622 H 0.62051 0.20275 0.9613 0.0
H1623 H 0.60107 0.22395 0.94924 0.0
H1624 H 0.63589 0.23233 0.90798 0.0
H1625 H 0.65514 0.21126 0.91979 0.0
H1626 H 0.62284 0.26221 0.92106 0.0
H1627 H 0.60287 0.20678 0.90265 0.0
H1628 H 0.59204 0.17787 0.90748 0.0
H1629 H 0.54946 0.19808 0.93465 0.0
H1630 H 0.56018 0.22712 0.93017 0.0
H1631 H 0.5835 0.2943 0.84994 0.0
H1632 H 0.59706 0.27528 0.87005 0.0
H1633 H 0.55224 0.27593 0.90129 0.0
H1634 H 0.53837 0.29506 0.88093 0.0
H1635 H 0.56692 0.24373 0.899 0.0
H1636 H 0.5845 0.29945 0.91332 0.0
H1637 H 0.59513 0.32836 0.90812 0.0
H1638 H 0.64197 0.30805 0.88934 0.0
H1639 H 0.63152 0.27901 0.89417 0.0
C1640 C 0.62407 0.2093 0.94978 0.0
C1641 C 0.63931 0.20532 0.94145 0.0
C1642 C 0.61294 0.22132 0.94287 0.0
C1643 C 0.617 0.22963 0.92765 0.0
C1644 C 0.6325 0.22609 0.91973 0.0
C1645 C 0.64348 0.214 0.92647 0.0
C1646 C 0.60507 0.24161 0.91942 0.0
C1647 C 0.61061 0.25819 0.91625 0.0
C1648 C 0.58887 0.23651 0.91362 0.0
C1649 C 0.58243 0.21909 0.91627 0.0
C1650 C 0.59128 0.20505 0.90979 0.0
C1651 C 0.58515 0.18864 0.91244 0.0
C1652 C 0.5701 0.18614 0.92142 0.0
C1653 C 0.56113 0.20004 0.92773 0.0
C1654 C 0.56723 0.21647 0.92514 0.0
C1655 C 0.57641 0.29032 0.86099 0.0
C1656 C 0.5599 0.29632 0.86391 0.0
C1657 C 0.58422 0.27948 0.87253 0.0
C1658 C 0.5758 0.27448 0.88736 0.0
C1659 C 0.55901 0.27976 0.88998 0.0
C1660 C 0.55111 0.29066 0.87835 0.0
C1661 C 0.58499 0.26414 0.90013 0.0
C1662 C 0.57895 0.24791 0.90416 0.0
C1663 C 0.60074 0.26957 0.90682 0.0
C1664 C 0.60717 0.28703 0.90403 0.0
C1665 C 0.59702 0.30114 0.90798 0.0
C1666 C 0.60302 0.31755 0.90511 0.0
C1667 C 0.6192 0.32004 0.89838 0.0
C1668 C 0.62944 0.30611 0.89455 0.0
C1669 C 0.62349 0.28966 0.89737 0.0
H1670 H 0.62382 0.33276 0.89617 0.0
H1671 H 0.56537 0.17343 0.92345 0.0
H1672 H 0.70045 0.5857 0.85625 0.0
H1673 H 0.72052 0.59794 0.87613 0.0
H1674 H 0.72776 0.54901 0.89935 0.0
H1675 H 0.7074 0.53651 0.87929 0.0
H1676 H 0.71953 0.59998 0.91073 0.0
H1677 H 0.77075 0.5488 0.9122 0.0
H1678 H 0.78145 0.5251 0.89481 0.0
H1679 H 0.76523 0.55064 0.84959 0.0
H1680 H 0.75464 0.57456 0.8667 0.0
H1681 H 0.78787 0.62845 0.9657 0.0
H1682 H 0.7667 0.60883 0.95376 0.0
H1683 H 0.78595 0.61864 0.90359 0.0
H1684 H 0.80666 0.63832 0.91524 0.0
H1685 H 0.7802 0.58354 0.91057 0.0
H1686 H 0.75285 0.63882 0.91448 0.0
H1687 H 0.74271 0.66399 0.93 0.0
H1688 H 0.71169 0.63234 0.96155 0.0
H1689 H 0.72184 0.60695 0.94633 0.0
C1690 C 0.7063 0.57745 0.86552 0.0
C1691 C 0.70234 0.56009 0.86614 0.0
C1692 C 0.7177 0.58453 0.87699 0.0
C1693 C 0.72558 0.57444 0.88929 0.0
C1694 C 0.72182 0.55703 0.88994 0.0
C1695 C 0.71024 0.5499 0.87846 0.0
C1696 C 0.73801 0.58238 0.90097 0.0
C1697 C 0.73274 0.59618 0.91092 0.0
C1698 C 0.75526 0.57751 0.9012 0.0
C1699 C 0.76171 0.56333 0.89075 0.0
C1700 C 0.7695 0.54935 0.89855 0.0
C1701 C 0.77555 0.53589 0.88874 0.0
C1702 C 0.77396 0.53634 0.87111 0.0
C1703 C 0.76638 0.55028 0.86325 0.0
C1704 C 0.76034 0.56377 0.873 0.0
C1705 C 0.78756 0.62635 0.95214 0.0
C1706 C 0.79882 0.635 0.94139 0.0
C1707 C 0.77553 0.61515 0.94536 0.0
C1708 C 0.77486 0.61223 0.9278 0.0
C1709 C 0.78634 0.6206 0.91717 0.0
C1710 C 0.79808 0.63197 0.92386 0.0
C1711 C 0.76172 0.60124 0.92008 0.0
C1712 C 0.76687 0.58693 0.91085 0.0
C1713 C 0.7444 0.60576 0.92034 0.0
C1714 C 0.73827 0.62099 0.92944 0.0
C1715 C 0.74399 0.63722 0.92483 0.0
C1716 C 0.73822 0.65152 0.93355 0.0
C1717 C 0.72661 0.64976 0.94679 0.0
C1718 C 0.72071 0.63368 0.95131 0.0
C1719 C 0.72647 0.61934 0.94265 0.0
H1720 H 0.72215 0.66085 0.95352 0.0
H1721 H 0.77863 0.5259 0.86354 0.0
H1722 H 0.53878 0.70569 0.11906 0.0
H1723 H 0.55091 0.72695 0.09975 0.0
H1724 H 0.59281 0.73412 0.1341 0.0
H1725 H 0.58087 0.71312 0.15327 0.0
H1726 H 0.58106 0.76413 0.12181 0.0
H1727 H 0.5963 0.7084 0.09988 0.0
H1728 H 0.5898 0.68006 0.08841 0.0
H1729 H 0.56239 0.70272 0.04723 0.0
H1730 H 0.56856 0.7312 0.0586 0.0
H1731 H 0.65285 0.79341 0.08189 0.0
H1732 H 0.63219 0.77475 0.09511 0.0
H1733 H 0.5998 0.77915 0.05133 0.0
H1734 H 0.6207 0.79793 0.03781 0.0
H1735 H 0.60079 0.74605 0.06491 0.0
H1736 H 0.58996 0.80201 0.0844 0.0
H1737 H 0.59718 0.83023 0.09569 0.0
H1738 H 0.61599 0.80745 0.14137 0.0
H1739 H 0.60913 0.77907 0.13025 0.0
C1740 C 0.55045 0.712 0.12256 0.0
C1741 C 0.55891 0.70769 0.13764 0.0
C1742 C 0.5574 0.72405 0.11149 0.0
C1743 C 0.57284 0.73202 0.11543 0.0
C1744 C 0.58089 0.72816 0.13079 0.0
C1745 C 0.57406 0.71609 0.14172 0.0
C1746 C 0.58122 0.74393 0.1035 0.0
C1747 C 0.58534 0.76019 0.10936 0.0
C1748 C 0.58635 0.73899 0.08703 0.0
C1749 C 0.58269 0.7219 0.0802 0.0
C1750 C 0.58876 0.70732 0.08846 0.0
C1751 C 0.58517 0.69125 0.08197 0.0
C1752 C 0.57564 0.68959 0.06714 0.0
C1753 C 0.56973 0.70402 0.05874 0.0
C1754 C 0.57328 0.72013 0.0652 0.0
C1755 C 0.64144 0.7903 0.07494 0.0
C1756 C 0.63834 0.79729 0.05886 0.0
C1757 C 0.6296 0.77966 0.08256 0.0
C1758 C 0.61429 0.77586 0.07437 0.0
C1759 C 0.61148 0.78205 0.05791 0.0
C1760 C 0.62343 0.79274 0.05021 0.0
C1761 C 0.60117 0.76598 0.08354 0.0
C1762 C 0.59614 0.75016 0.07717 0.0
C1763 C 0.59514 0.77132 0.09957 0.0
C1764 C 0.5991 0.78839 0.10644 0.0
C1765 C 0.59573 0.80301 0.09681 0.0
C1766 C 0.59975 0.81903 0.10318 0.0
C1767 C 0.60706 0.82063 0.11923 0.0
C1768 C 0.61032 0.8062 0.12894 0.0
C1769 C 0.60635 0.79013 0.12262 0.0
H1770 H 0.61018 0.83305 0.12413 0.0
H1771 H 0.57287 0.67713 0.06212 0.0
H1772 H 0.21155 0.65322 0.079 0.0
H1773 H 0.23317 0.6343 0.0902 0.0
H1774 H 0.22599 0.60058 0.04781 0.0
H1775 H 0.20414 0.61972 0.03635 0.0
H1776 H 0.22621 0.58415 0.08016 0.0
H1777 H 0.2611 0.62163 0.0485 0.0
H1778 H 0.27107 0.64933 0.03807 0.0
H1779 H 0.28459 0.66387 0.0887 0.0
H1780 H 0.27447 0.63635 0.0995 0.0
H1781 H 0.29747 0.53914 0.11798 0.0
H1782 H 0.27823 0.55247 0.0974 0.0
H1783 H 0.27749 0.59798 0.12766 0.0
H1784 H 0.29661 0.58493 0.14799 0.0
H1785 H 0.28355 0.60519 0.09498 0.0
H1786 H 0.24406 0.57046 0.12688 0.0
H1787 H 0.23285 0.54354 0.1381 0.0
H1788 H 0.22751 0.52434 0.08747 0.0
H1789 H 0.2389 0.5511 0.07597 0.0
C1790 C 0.21463 0.64187 0.07193 0.0
C1791 C 0.20615 0.63797 0.05677 0.0
C1792 C 0.22704 0.63108 0.07834 0.0
C1793 C 0.23127 0.61609 0.06979 0.0
C1794 C 0.22293 0.61212 0.05457 0.0
C1795 C 0.21055 0.62309 0.048 0.0
C1796 C 0.24408 0.60457 0.07734 0.0
C1797 C 0.23892 0.58853 0.08303 0.0
C1798 C 0.26055 0.61042 0.08127 0.0
C1799 C 0.26695 0.62691 0.07482 0.0
C1800 C 0.26611 0.63076 0.05743 0.0
C1801 C 0.2718 0.64643 0.05145 0.0
C1802 C 0.27844 0.65836 0.06272 0.0
C1803 C 0.27945 0.65461 0.07999 0.0
C1804 C 0.27377 0.63896 0.08604 0.0
C1805 C 0.29302 0.55191 0.12031 0.0
C1806 C 0.29861 0.56099 0.13459 0.0
C1807 C 0.28206 0.55952 0.10854 0.0
C1808 C 0.27649 0.57628 0.11094 0.0
C1809 C 0.28174 0.58512 0.12543 0.0
C1810 C 0.29263 0.57758 0.13711 0.0
C1811 C 0.26548 0.58502 0.09839 0.0
C1812 C 0.27101 0.60058 0.09175 0.0
C1813 C 0.24935 0.57874 0.09367 0.0
C1814 C 0.24254 0.56267 0.10058 0.0
C1815 C 0.24064 0.56043 0.11815 0.0
C1816 C 0.23422 0.54522 0.12456 0.0
C1817 C 0.22953 0.53221 0.11351 0.0
C1818 C 0.23119 0.53441 0.09602 0.0
C1819 C 0.23763 0.5496 0.08955 0.0
H1820 H 0.22455 0.52045 0.11849 0.0
H1821 H 0.28282 0.67049 0.05806 0.0
H1822 H 0.70243 0.41601 0.14943 0.0
H1823 H 0.72372 0.40373 0.13097 0.0
H1824 H 0.72949 0.45161 0.10527 0.0
H1825 H 0.70764 0.46409 0.12374 0.0
H1826 H 0.72841 0.42466 0.08288 0.0
H1827 H 0.75984 0.43892 0.13237 0.0
H1828 H 0.76564 0.4406 0.16302 0.0
H1829 H 0.76628 0.3863 0.16617 0.0
H1830 H 0.76024 0.38428 0.13559 0.0
H1831 H 0.80091 0.384 0.04245 0.0
H1832 H 0.78147 0.40397 0.05636 0.0
H1833 H 0.76853 0.36558 0.09309 0.0
H1834 H 0.78821 0.34598 0.07967 0.0
H1835 H 0.77656 0.39354 0.10862 0.0
H1836 H 0.74113 0.37959 0.06 0.0
H1837 H 0.73473 0.37787 0.02946 0.0
H1838 H 0.74181 0.4316 0.02467 0.0
H1839 H 0.74844 0.4336 0.05516 0.0
C1840 C 0.70823 0.42404 0.13994 0.0
C1841 C 0.70341 0.44109 0.13815 0.0
C1842 C 0.72047 0.41697 0.12939 0.0
C1843 C 0.72841 0.42679 0.11689 0.0
C1844 C 0.72357 0.44382 0.11489 0.0
C1845 C 0.71118 0.45095 0.12549 0.0
C1846 C 0.74165 0.41891 0.10604 0.0
C1847 C 0.73916 0.41813 0.08844 0.0
C1848 C 0.75561 0.41031 0.11329 0.0
C1849 C 0.75952 0.41146 0.13167 0.0
C1850 C 0.76114 0.42734 0.13961 0.0
C1851 C 0.76447 0.42835 0.15698 0.0
C1852 C 0.76632 0.41357 0.16654 0.0
C1853 C 0.76486 0.39774 0.15875 0.0
C1854 C 0.76151 0.39666 0.14139 0.0
C1855 C 0.79365 0.37979 0.05331 0.0
C1856 C 0.79611 0.36348 0.06004 0.0
C1857 C 0.78255 0.3912 0.06126 0.0
C1858 C 0.77354 0.38633 0.07585 0.0
C1859 C 0.77545 0.36974 0.08199 0.0
C1860 C 0.78666 0.3585 0.07425 0.0
C1861 C 0.76286 0.39851 0.08553 0.0
C1862 C 0.76597 0.40024 0.10297 0.0
C1863 C 0.74952 0.40794 0.07809 0.0
C1864 C 0.74547 0.40671 0.0598 0.0
C1865 C 0.74144 0.39102 0.0524 0.0
C1866 C 0.73775 0.39 0.03511 0.0
C1867 C 0.73792 0.40461 0.02512 0.0
C1868 C 0.74172 0.42029 0.03241 0.0
C1869 C 0.74543 0.42137 0.0497 0.0
H1870 H 0.73506 0.40379 0.01173 0.0
H1871 H 0.76888 0.41438 0.17998 0.0
H1872 H 0.96958 0.21562 0.31084 0.0
H1873 H 0.98225 0.2383 0.29371 0.0
H1874 H 0.98987 0.20309 0.25266 0.0
H1875 H 0.97717 0.18052 0.26946 0.0
H1876 H 0.01883 0.22252 0.26071 0.0
H1877 H 0.95868 0.23021 0.25007 0.0
H1878 H 0.92909 0.23541 0.25864 0.0
H1879 H 0.94364 0.28271 0.28124 0.0
H1880 H 0.97338 0.27767 0.27299 0.0
H1881 H 0.03346 0.26678 0.18586 0.0
H1882 H 0.02255 0.24936 0.20874 0.0
H1883 H 0.01357 0.29404 0.23888 0.0
H1884 H 0.02429 0.31181 0.21573 0.0
H1885 H 0.987 0.27288 0.24065 0.0
H1886 H 0.04617 0.26749 0.2487 0.0
H1887 H 0.07605 0.26287 0.24088 0.0
H1888 H 0.06433 0.21222 0.22486 0.0
H1889 H 0.03432 0.21661 0.23236 0.0
C1890 C 0.97389 0.21273 0.29814 0.0
C1891 C 0.97231 0.19622 0.29154 0.0
C1892 C 0.9811 0.22571 0.28837 0.0
C1893 C 0.98701 0.22236 0.27192 0.0
C1894 C 0.98544 0.20594 0.26534 0.0
C1895 C 0.97807 0.19306 0.27496 0.0
C1896 C 0.99503 0.23578 0.26145 0.0
C1897 C 0.01186 0.2335 0.25625 0.0
C1898 C 0.98614 0.25043 0.25619 0.0
C1899 C 0.96827 0.25346 0.26111 0.0
C1900 C 0.95559 0.24164 0.25701 0.0
C1901 C 0.93879 0.24458 0.26178 0.0
C1902 C 0.93449 0.25935 0.27053 0.0
C1903 C 0.94699 0.27125 0.27449 0.0
C1904 C 0.96382 0.26837 0.26977 0.0
C1905 C 0.02928 0.27301 0.19734 0.0
C1906 C 0.02984 0.29077 0.19889 0.0
C1907 C 0.0231 0.26296 0.2105 0.0
C1908 C 0.01746 0.27033 0.22567 0.0
C1909 C 0.01792 0.28806 0.22732 0.0
C1910 C 0.02411 0.29818 0.21409 0.0
C1911 C 0.01069 0.25936 0.23944 0.0
C1912 C 0.99411 0.26209 0.24531 0.0
C1913 C 0.01989 0.24519 0.24551 0.0
C1914 C 0.03795 0.24243 0.241 0.0
C1915 C 0.04994 0.25541 0.2434 0.0
C1916 C 0.0669 0.25282 0.23904 0.0
C1917 C 0.07208 0.23727 0.23235 0.0
C1918 C 0.0603 0.22426 0.23004 0.0
C1919 C 0.04331 0.22679 0.23437 0.0
H1920 H 0.08523 0.23529 0.22899 0.0
H1921 H 0.92148 0.26161 0.27421 0.0
H1922 H 0.81983 0.98263 0.27039 0.0
H1923 H 0.79689 0.99544 0.25418 0.0
H1924 H 0.76153 0.98309 0.29392 0.0
H1925 H 0.78461 0.97032 0.31051 0.0
H1926 H 0.75052 0.97502 0.25923 0.0
H1927 H 0.77111 0.02146 0.29199 0.0
H1928 H 0.79282 0.04022 0.30432 0.0
H1929 H 0.80876 0.05502 0.25447 0.0
H1930 H 0.78732 0.03613 0.24182 0.0
H1931 H 0.68905 0.02393 0.21311 0.0
H1932 H 0.70614 0.01312 0.23669 0.0
H1933 H 0.75174 0.02778 0.2104 0.0
H1934 H 0.73491 0.03876 0.18705 0.0
H1935 H 0.75413 0.03565 0.24298 0.0
H1936 H 0.73711 0.9866 0.21036 0.0
H1937 H 0.71655 0.9671 0.1972 0.0
H1938 H 0.6948 0.95671 0.24597 0.0
H1939 H 0.71511 0.97634 0.25938 0.0
C1940 C 0.80719 0.98254 0.27573 0.0
C1941 C 0.80409 0.97543 0.29178 0.0
C1942 C 0.79409 0.98994 0.26645 0.0
C1943 C 0.77755 0.99031 0.2729 0.0
C1944 C 0.77424 0.98296 0.28875 0.0
C1945 C 0.78745 0.97573 0.29822 0.0
C1946 C 0.76391 0.99849 0.26287 0.0
C1947 C 0.75104 0.98836 0.25597 0.0
C1948 C 0.7648 0.01582 0.25841 0.0
C1949 C 0.77767 0.02727 0.26595 0.0
C1950 C 0.77934 0.0286 0.28365 0.0
C1951 C 0.79158 0.03928 0.2907 0.0
C1952 C 0.80218 0.04878 0.28019 0.0
C1953 C 0.80054 0.04765 0.2626 0.0
C1954 C 0.78833 0.03697 0.25548 0.0
C1955 C 0.70271 0.02496 0.2124 0.0
C1956 C 0.71056 0.03215 0.19808 0.0
C1957 C 0.71247 0.01871 0.22587 0.0
C1958 C 0.73025 0.01948 0.22526 0.0
C1959 C 0.73805 0.02705 0.2112 0.0
C1960 C 0.72836 0.03328 0.19779 0.0
C1961 C 0.74096 0.01209 0.23892 0.0
C1962 C 0.75334 0.02238 0.24649 0.0
C1963 C 0.73968 0.99488 0.24388 0.0
C1964 C 0.72747 0.9831 0.23584 0.0
C1965 C 0.72785 0.98027 0.21825 0.0
C1966 C 0.71626 0.96917 0.21075 0.0
C1967 C 0.70434 0.96072 0.22073 0.0
C1968 C 0.70401 0.9633 0.23824 0.0
C1969 C 0.71556 0.97441 0.2458 0.0
H1970 H 0.69538 0.95212 0.2149 0.0
H1971 H 0.81165 0.05704 0.28567 0.0
H1972 H 0.98106 0.72966 0.18179 0.0
H1973 H 0.99342 0.74589 0.20501 0.0
H1974 H 0.98239 0.70521 0.23971 0.0
H1975 H 0.97018 0.68857 0.21636 0.0
H1976 H 0.97337 0.74151 0.25035 0.0
H1977 H 0.01954 0.70659 0.2312 0.0
H1978 H 0.03806 0.69372 0.20959 0.0
H1979 H 0.05388 0.74314 0.19329 0.0
H1980 H 0.03524 0.75633 0.21464 0.0
H1981 H 0.02222 0.78603 0.31277 0.0
H1982 H 0.01107 0.76269 0.29558 0.0
H1983 H 0.02857 0.78767 0.25025 0.0
H1984 H 0.03992 0.81074 0.26717 0.0
H1985 H 0.03476 0.75491 0.24824 0.0
H1986 H 0.98716 0.79008 0.26322 0.0
H1987 H 0.96778 0.80476 0.28284 0.0
H1988 H 0.9538 0.75712 0.30508 0.0
H1989 H 0.97331 0.74217 0.28573 0.0
C1990 C 0.98114 0.72413 0.19435 0.0
C1991 C 0.97464 0.70778 0.1972 0.0
C1992 C 0.98825 0.73344 0.2076 0.0
C1993 C 0.98884 0.72672 0.22402 0.0
C1994 C 0.98203 0.71058 0.22709 0.0
C1995 C 0.97514 0.7011 0.21373 0.0
C1996 C 0.99703 0.7366 0.23772 0.0
C1997 C 0.98686 0.74414 0.2502 0.0
C1998 C 0.01454 0.74033 0.23718 0.0
C1999 C 0.02589 0.73245 0.22444 0.0
C2000 C 0.02686 0.71472 0.22291 0.0
C2001 C 0.0374 0.70737 0.21073 0.0
C2002 C 0.04712 0.71761 0.20005 0.0
C2003 C 0.04634 0.73523 0.20157 0.0
C2004 C 0.03581 0.74265 0.21372 0.0
C2005 C 0.02385 0.78647 0.29916 0.0
C2006 C 0.0319 0.80037 0.29139 0.0
C2007 C 0.01738 0.77315 0.28934 0.0
C2008 C 0.01881 0.77351 0.27159 0.0
C2009 C 0.02731 0.78708 0.2639 0.0
C2010 C 0.03376 0.80034 0.27365 0.0
C2011 C 0.01109 0.76014 0.26078 0.0
C2012 C 0.02134 0.752 0.24874 0.0
C2013 C 0.99361 0.75609 0.26157 0.0
C2014 C 0.98185 0.76503 0.27318 0.0
C2015 C 0.98006 0.78275 0.27239 0.0
C2016 C 0.96904 0.79112 0.28344 0.0
C2017 C 0.9596 0.78189 0.29524 0.0
C2018 C 0.96115 0.76426 0.29596 0.0
C2019 C 0.97218 0.75583 0.28496 0.0
H2020 H 0.95107 0.78839 0.30378 0.0
H2021 H 0.05527 0.71189 0.19062 0.0
H2022 H 0.21367 0.02786 0.31335 0.0
H2023 H 0.23626 0.01561 0.29581 0.0
H2024 H 0.20559 0.02284 0.25121 0.0
H2025 H 0.18314 0.03506 0.2684 0.0
H2026 H 0.21799 0.99005 0.25441 0.0
H2027 H 0.23879 0.04795 0.25846 0.0
H2028 H 0.24868 0.07313 0.27409 0.0
H2029 H 0.2889 0.04393 0.29623 0.0
H2030 H 0.2791 0.01851 0.28089 0.0
H2031 H 0.26713 0.97856 0.18261 0.0
H2032 H 0.24987 0.98996 0.20537 0.0
H2033 H 0.29148 0.98399 0.2403 0.0
H2034 H 0.3092 0.97291 0.21724 0.0
H2035 H 0.27582 0.01323 0.24614 0.0
H2036 H 0.25759 0.95624 0.24073 0.0
H2037 H 0.24812 0.93029 0.22616 0.0
H2038 H 0.20356 0.95607 0.20857 0.0
H2039 H 0.21287 0.98226 0.22284 0.0
C2040 C 0.21181 0.02703 0.29978 0.0
C2041 C 0.19649 0.03241 0.29235 0.0
C2042 C 0.22475 0.02003 0.28978 0.0
C2043 C 0.22257 0.01825 0.27221 0.0
C2044 C 0.20751 0.02401 0.26475 0.0
C2045 C 0.19468 0.03106 0.27465 0.0
C2046 C 0.23547 0.00975 0.26145 0.0
C2047 C 0.23061 0.99518 0.25252 0.0
C2048 C 0.25217 0.01599 0.25956 0.0
C2049 C 0.25809 0.03129 0.26869 0.0
C2050 C 0.24965 0.04686 0.26678 0.0
C2051 C 0.25526 0.06119 0.27556 0.0
C2052 C 0.26938 0.06012 0.28619 0.0
C2053 C 0.27795 0.04473 0.28802 0.0
C2054 C 0.27238 0.03037 0.27928 0.0
C2055 C 0.27268 0.97956 0.19512 0.0
C2056 C 0.28955 0.97461 0.19808 0.0
C2057 C 0.26273 0.98607 0.20819 0.0
C2058 C 0.26921 0.9875 0.22469 0.0
C2059 C 0.28615 0.9829 0.2277 0.0
C2060 C 0.29625 0.97653 0.21451 0.0
C2061 C 0.2581 0.99386 0.23858 0.0
C2062 C 0.2633 0.00794 0.24818 0.0
C2063 C 0.24173 0.98702 0.24131 0.0
C2064 C 0.23599 0.97125 0.23278 0.0
C2065 C 0.24582 0.95641 0.23367 0.0
C2066 C 0.24047 0.94165 0.22547 0.0
C2067 C 0.22526 0.94154 0.21643 0.0
C2068 C 0.21534 0.95618 0.21559 0.0
C2069 C 0.22064 0.97098 0.22375 0.0
H2070 H 0.22115 0.9301 0.21008 0.0
H2071 H 0.2737 0.07122 0.29298 0.0
H2072 H 0.0105 0.69084 0.79476 0.0
H2073 H 0.99841 0.7088 0.77257 0.0
H2074 H 0.03901 0.74479 0.77969 0.0
H2075 H 0.05037 0.7274 0.80262 0.0
H2076 H 0.01277 0.76142 0.77834 0.0
H2077 H 0.03383 0.71746 0.74283 0.0
H2078 H 0.03813 0.68816 0.73284 0.0
H2079 H 0.9847 0.68301 0.72403 0.0
H2080 H 0.98004 0.7122 0.73419 0.0
H2081 H 0.98551 0.79128 0.6885 0.0
H2082 H 0.99866 0.7693 0.70604 0.0
H2083 H 0.96643 0.78341 0.74786 0.0
H2084 H 0.95375 0.80575 0.73066 0.0
H2085 H 0.9905 0.74189 0.72292 0.0
H2086 H 0.98733 0.78257 0.7843 0.0
H2087 H 0.9871 0.81274 0.79249 0.0
H2088 H 0.01246 0.82579 0.74617 0.0
H2089 H 0.01306 0.79569 0.73783 0.0
C2090 C 0.01694 0.70248 0.79139 0.0
C2091 C 0.03134 0.70777 0.80043 0.0
C2092 C 0.01008 0.71273 0.77862 0.0
C2093 C 0.01782 0.72819 0.77424 0.0
C2094 C 0.03266 0.73304 0.78284 0.0
C2095 C 0.03921 0.72306 0.7959 0.0
C2096 C 0.00987 0.73994 0.76169 0.0
C2097 C 0.008 0.75706 0.76621 0.0
C2098 C 0.00381 0.7345 0.74566 0.0
C2099 C 0.00657 0.71698 0.73941 0.0
C2100 C 0.02298 0.71004 0.73886 0.0
C2101 C 0.02549 0.69346 0.73316 0.0
C2102 C 0.0117 0.68372 0.72784 0.0
C2103 C 0.99537 0.69057 0.72817 0.0
C2104 C 0.99279 0.70714 0.73388 0.0
C2105 C 0.98108 0.78955 0.70137 0.0
C2106 C 0.96876 0.80044 0.70827 0.0
C2107 C 0.9886 0.77695 0.71138 0.0
C2108 C 0.98384 0.77493 0.72842 0.0
C2109 C 0.97067 0.785 0.73491 0.0
C2110 C 0.96337 0.79775 0.72503 0.0
C2111 C 0.99331 0.76316 0.73977 0.0
C2112 C 0.99539 0.74612 0.73504 0.0
C2113 C 1.00021 0.76877 0.75535 0.0
C2114 C 1.00008 0.78689 0.76038 0.0
C2115 C 0.99292 0.79187 0.7759 0.0
C2116 C 0.99271 0.80896 0.78056 0.0
C2117 C 0.99971 0.82118 0.76983 0.0
C2118 C 0.00699 0.81633 0.75444 0.0
C2119 C 0.00725 0.79926 0.74974 0.0
H2120 H 0.99952 0.8344 0.77346 0.0
H2121 H 0.01366 0.67088 0.72344 0.0
H2122 H 0.21444 0.97352 0.68909 0.0
H2123 H 0.23735 0.98615 0.70592 0.0
H2124 H 0.20314 0.99217 0.74806 0.0
H2125 H 0.18032 0.97958 0.73154 0.0
H2126 H 0.22161 0.02138 0.74082 0.0
H2127 H 0.23145 0.96098 0.74835 0.0
H2128 H 0.2373 0.93204 0.73812 0.0
H2129 H 0.28336 0.94928 0.71486 0.0
H2130 H 0.27765 0.97839 0.72477 0.0
H2131 H 0.26665 0.03388 0.81518 0.0
H2132 H 0.24931 0.02354 0.79204 0.0
H2133 H 0.29391 0.01684 0.76119 0.0
H2134 H 0.31165 0.0269 0.7847 0.0
H2135 H 0.2734 0.99017 0.758 0.0
H2136 H 0.26603 0.04953 0.75326 0.0
H2137 H 0.26065 0.07877 0.76282 0.0
H2138 H 0.21076 0.06458 0.77917 0.0
H2139 H 0.21591 0.03518 0.76994 0.0
C2140 C 0.21181 0.97748 0.70196 0.0
C2141 C 0.1955 0.97549 0.70894 0.0
C2142 C 0.22493 0.98466 0.71156 0.0
C2143 C 0.22194 0.99009 0.72825 0.0
C2144 C 0.20571 0.98811 0.7352 0.0
C2145 C 0.19269 0.98081 0.72573 0.0
C2146 C 0.23551 0.99804 0.7386 0.0
C2147 C 0.23291 0.01455 0.74464 0.0
C2148 C 0.25058 0.98938 0.74301 0.0
C2149 C 0.25402 0.97189 0.73712 0.0
C2150 C 0.24274 0.95863 0.74092 0.0
C2151 C 0.24605 0.94219 0.73521 0.0
C2152 C 0.26066 0.93884 0.72579 0.0
C2153 C 0.27202 0.9519 0.72212 0.0
C2154 C 0.26877 0.96837 0.72779 0.0
C2155 C 0.27289 0.03036 0.80348 0.0
C2156 C 0.29063 0.03135 0.80185 0.0
C2157 C 0.26288 0.02449 0.79017 0.0
C2158 C 0.27022 0.01969 0.77471 0.0
C2159 C 0.28793 0.02056 0.77296 0.0
C2160 C 0.29805 0.02637 0.7864 0.0
C2161 C 0.25922 0.01335 0.76074 0.0
C2162 C 0.26229 0.99717 0.75396 0.0
C2163 C 0.24463 0.0224 0.75547 0.0
C2164 C 0.24141 0.0401 0.76098 0.0
C2165 C 0.25395 0.05261 0.75899 0.0
C2166 C 0.25093 0.06922 0.76434 0.0
C2167 C 0.23538 0.07352 0.77162 0.0
C2168 C 0.2228 0.06123 0.77353 0.0
C2169 C 0.22575 0.04459 0.76822 0.0
H2170 H 0.23307 0.08639 0.77575 0.0
H2171 H 0.2632 0.9261 0.72139 0.0
H2172 H 0.02901 0.21721 0.69035 0.0
H2173 H 0.01591 0.24012 0.70692 0.0
H2174 H 0.01401 0.20743 0.75062 0.0
H2175 H 0.02718 0.18473 0.73444 0.0
H2176 H 0.98262 0.22371 0.74225 0.0
H2177 H 0.04256 0.23662 0.74986 0.0
H2178 H 0.07111 0.24388 0.73948 0.0
H2179 H 0.05139 0.28874 0.71583 0.0
H2180 H 0.02266 0.2816 0.7259 0.0
H2181 H 0.96792 0.26805 0.81664 0.0
H2182 H 0.97901 0.25121 0.79344 0.0
H2183 H 0.98372 0.29612 0.76268 0.0
H2184 H 0.97288 0.31334 0.78619 0.0
H2185 H 0.0113 0.27694 0.75942 0.0
H2186 H 0.95247 0.26694 0.75449 0.0
H2187 H 0.9234 0.26031 0.76379 0.0
H2188 H 0.93957 0.211 0.78014 0.0
H2189 H 0.9688 0.21742 0.77117 0.0
C2190 C 0.02593 0.21496 0.70353 0.0
C2191 C 0.02918 0.19909 0.71103 0.0
C2192 C 0.01846 0.22806 0.71297 0.0
C2193 C 0.01394 0.22542 0.72998 0.0
C2194 C 0.01734 0.2097 0.7375 0.0
C2195 C 0.02498 0.19675 0.72821 0.0
C2196 C 0.00526 0.23871 0.74007 0.0
C2197 C 0.98888 0.23534 0.74606 0.0
C2198 C 0.01318 0.25418 0.74443 0.0
C2199 C 0.03044 0.25846 0.73844 0.0
C2200 C 0.04429 0.24794 0.74231 0.0
C2201 C 0.06051 0.25205 0.73651 0.0
C2202 C 0.06306 0.26673 0.72695 0.0
C2203 C 0.04939 0.27736 0.72321 0.0
C2204 C 0.03314 0.27329 0.72896 0.0
C2205 C 0.97116 0.27444 0.80495 0.0
C2206 C 0.96938 0.29212 0.80334 0.0
C2207 C 0.97746 0.26472 0.7916 0.0
C2208 C 0.98195 0.27231 0.77616 0.0
C2209 C 0.98026 0.28996 0.77444 0.0
C2210 C 0.974 0.29977 0.78789 0.0
C2211 C 0.98882 0.26166 0.76217 0.0
C2212 C 0.00484 0.2655 0.75539 0.0
C2213 C 0.98046 0.24669 0.75685 0.0
C2214 C 0.96287 0.24271 0.76223 0.0
C2215 C 0.94986 0.25472 0.76017 0.0
C2216 C 0.93335 0.25099 0.76537 0.0
C2217 C 0.92965 0.23525 0.77257 0.0
C2218 C 0.94246 0.22319 0.77456 0.0
C2219 C 0.959 0.22686 0.76939 0.0
H2220 H 0.91686 0.23239 0.77659 0.0
H2221 H 0.07562 0.2699 0.72248 0.0
H2222 H 0.81926 0.02091 0.73266 0.0
H2223 H 0.79624 0.0083 0.74894 0.0
H2224 H 0.7612 0.01945 0.70857 0.0
H2225 H 0.78435 0.03195 0.6919 0.0
H2226 H 0.75027 0.02788 0.74438 0.0
H2227 H 0.77087 0.98205 0.70994 0.0
H2228 H 0.79298 0.9639 0.6974 0.0
H2229 H 0.80886 0.94843 0.74708 0.0
H2230 H 0.78701 0.96671 0.75993 0.0
H2231 H 0.68769 0.97788 0.78705 0.0
H2232 H 0.70544 0.98934 0.7643 0.0
H2233 H 0.75023 0.97265 0.79079 0.0
H2234 H 0.73274 0.961 0.81331 0.0
H2235 H 0.7534 0.96657 0.758 0.0
H2236 H 0.73647 0.01362 0.79278 0.0
H2237 H 0.71604 0.03244 0.80703 0.0
H2238 H 0.69502 0.04655 0.75887 0.0
H2239 H 0.71515 0.02751 0.74434 0.0
C2240 C 0.80667 0.02082 0.72722 0.0
C2241 C 0.80368 0.02743 0.71093 0.0
C2242 C 0.79353 0.01356 0.73655 0.0
C2243 C 0.77706 0.0129 0.72992 0.0
C2244 C 0.77385 0.01986 0.71388 0.0
C2245 C 0.78709 0.02692 0.70437 0.0
C2246 C 0.76347 0.00447 0.73978 0.0
C2247 C 0.75067 0.01441 0.74707 0.0
C2248 C 0.76432 0.98699 0.74358 0.0
C2249 C 0.77737 0.97585 0.7359 0.0
C2250 C 0.77916 0.97488 0.7182 0.0
C2251 C 0.79164 0.96455 0.71103 0.0
C2252 C 0.80234 0.95504 0.72143 0.0
C2253 C 0.80057 0.95581 0.73903 0.0
C2254 C 0.78812 0.96614 0.74626 0.0
C2255 C 0.70131 0.9765 0.78795 0.0
C2256 C 0.70875 0.96858 0.80211 0.0
C2257 C 0.71144 0.98313 0.77497 0.0
C2258 C 0.72919 0.98203 0.77592 0.0
C2259 C 0.73658 0.97366 0.78975 0.0
C2260 C 0.72651 0.96705 0.80268 0.0
C2261 C 0.74027 0.98999 0.76291 0.0
C2262 C 0.7527 0.97998 0.75506 0.0
C2263 C 0.73921 0.00745 0.75881 0.0
C2264 C 0.72716 0.01897 0.76749 0.0
C2265 C 0.72739 0.02062 0.78524 0.0
C2266 C 0.71589 0.03135 0.79336 0.0
C2267 C 0.70421 0.04067 0.78387 0.0
C2268 C 0.70405 0.03929 0.76621 0.0
C2269 C 0.7155 0.02853 0.75802 0.0
H2270 H 0.69532 0.04898 0.79019 0.0
H2271 H 0.81199 0.94705 0.71586 0.0
H2272 H 0.21537 0.31125 0.97222 0.0
H2273 H 0.23829 0.29456 0.98514 0.0
H2274 H 0.20474 0.25168 0.98934 0.0
H2275 H 0.18201 0.26798 0.97636 0.0
H2276 H 0.22228 0.26013 0.0198 0.0
H2277 H 0.23307 0.2513 0.95964 0.0
H2278 H 0.23954 0.26102 0.93066 0.0
H2279 H 0.2854 0.28429 0.94839 0.0
H2280 H 0.27907 0.2749 0.97755 0.0
H2281 H 0.26615 0.18526 0.03404 0.0
H2282 H 0.24921 0.2086 0.02339 0.0
H2283 H 0.29432 0.23867 0.01661 0.0
H2284 H 0.31163 0.21501 0.02699 0.0
H2285 H 0.27429 0.24171 0.98969 0.0
H2286 H 0.26627 0.24768 0.04875 0.0
H2287 H 0.26044 0.23889 0.07814 0.0
H2288 H 0.21043 0.22304 0.06379 0.0
H2289 H 0.21603 0.2315 0.03424 0.0
C2290 C 0.21292 0.29823 0.97579 0.0
C2291 C 0.19682 0.29098 0.97321 0.0
C2292 C 0.22603 0.28872 0.98316 0.0
C2293 C 0.22317 0.27191 0.98823 0.0
C2294 C 0.20719 0.26465 0.98557 0.0
C2295 C 0.19422 0.27401 0.97804 0.0
C2296 C 0.23657 0.26173 0.99665 0.0
C2297 C 0.23364 0.25605 0.01322 0.0
C2298 C 0.2517 0.257 0.9883 0.0
C2299 C 0.25549 0.2626 0.97079 0.0
C2300 C 0.24445 0.25864 0.95739 0.0
C2301 C 0.24811 0.26405 0.94092 0.0
C2302 C 0.26284 0.27332 0.93769 0.0
C2303 C 0.27397 0.27715 0.95092 0.0
C2304 C 0.27036 0.27178 0.96741 0.0
C2305 C 0.27257 0.19684 0.03045 0.0
C2306 C 0.29032 0.1982 0.03148 0.0
C2307 C 0.2628 0.21026 0.0244 0.0
C2308 C 0.27042 0.22554 0.01944 0.0
C2309 C 0.28813 0.22703 0.02044 0.0
C2310 C 0.298 0.21351 0.02644 0.0
C2311 C 0.25972 0.23956 0.0127 0.0
C2312 C 0.26313 0.24602 0.99646 0.0
C2313 C 0.24511 0.24522 0.02145 0.0
C2314 C 0.24162 0.24015 0.03924 0.0
C2315 C 0.25406 0.24222 0.05183 0.0
C2316 C 0.25079 0.23731 0.06853 0.0
C2317 C 0.23508 0.23039 0.07283 0.0
C2318 C 0.22259 0.2284 0.06044 0.0
C2319 C 0.2258 0.23328 0.04372 0.0
H2320 H 0.23257 0.22659 0.08576 0.0
H2321 H 0.26565 0.27749 0.92494 0.0
H2322 H 0.21598 0.68916 0.02505 0.0
H2323 H 0.2388 0.70601 0.01231 0.0
H2324 H 0.21009 0.75163 0.02116 0.0
H2325 H 0.18738 0.7351 0.03382 0.0
H2326 H 0.22157 0.74859 0.98803 0.0
H2327 H 0.24401 0.74217 0.04546 0.0
H2328 H 0.25371 0.72482 0.06958 0.0
H2329 H 0.29148 0.70161 0.03806 0.0
H2330 H 0.28189 0.71873 0.0137 0.0
H2331 H 0.27157 0.81951 0.97819 0.0
H2332 H 0.25432 0.7965 0.989 0.0
H2333 H 0.2955 0.76145 0.98106 0.0
H2334 H 0.31327 0.78481 0.97061 0.0
H2335 H 0.28013 0.75437 0.01015 0.0
H2336 H 0.26113 0.76215 0.9539 0.0
H2337 H 0.25163 0.7776 0.92847 0.0
H2338 H 0.20776 0.79536 0.95527 0.0
H2339 H 0.21711 0.78022 0.98095 0.0
C2340 C 0.21459 0.7028 0.02444 0.0
C2341 C 0.19975 0.71072 0.03043 0.0
C2342 C 0.22767 0.7124 0.01717 0.0
C2343 C 0.22612 0.73007 0.01575 0.0
C2344 C 0.21152 0.738 0.02205 0.0
C2345 C 0.19854 0.72849 0.02936 0.0
C2346 C 0.23923 0.74048 0.00714 0.0
C2347 C 0.23435 0.74995 0.99292 0.0
C2348 C 0.25614 0.74158 0.013 0.0
C2349 C 0.26213 0.7316 0.02774 0.0
C2350 C 0.25432 0.7333 0.04366 0.0
C2351 C 0.25981 0.72352 0.05737 0.0
C2352 C 0.27317 0.71208 0.05534 0.0
C2353 C 0.28113 0.71046 0.03961 0.0
C2354 C 0.27569 0.72022 0.02585 0.0
C2355 C 0.27703 0.80693 0.97861 0.0
C2356 C 0.29379 0.80402 0.97329 0.0
C2357 C 0.26708 0.79372 0.98479 0.0
C2358 C 0.27341 0.77711 0.98549 0.0
C2359 C 0.29026 0.77413 0.98052 0.0
C2360 C 0.30039 0.78748 0.9745 0.0
C2361 C 0.26221 0.76313 0.99146 0.0
C2362 C 0.26744 0.75289 0.00508 0.0
C2363 C 0.24565 0.76102 0.98484 0.0
C2364 C 0.23989 0.77011 0.96939 0.0
C2365 C 0.24951 0.76943 0.95441 0.0
C2366 C 0.24414 0.77813 0.93994 0.0
C2367 C 0.22911 0.78747 0.94026 0.0
C2368 C 0.2194 0.78811 0.95504 0.0
C2369 C 0.22471 0.77945 0.96955 0.0
H2370 H 0.22498 0.7942 0.92905 0.0
H2371 H 0.27738 0.70449 0.06596 0.0
H2372 H 0.81906 0.26799 0.02712 0.0
H2373 H 0.79659 0.25144 0.014 0.0
H2374 H 0.76271 0.29412 0.01743 0.0
H2375 H 0.78534 0.31106 0.03051 0.0
H2376 H 0.74875 0.26017 0.02751 0.0
H2377 H 0.7768 0.28834 0.9814 0.0
H2378 H 0.80165 0.29777 0.96499 0.0
H2379 H 0.81625 0.24601 0.95681 0.0
H2380 H 0.79162 0.23627 0.9734 0.0
H2381 H 0.69056 0.21452 0.97453 0.0
H2382 H 0.70778 0.23753 0.98627 0.0
H2383 H 0.75304 0.20821 0.9774 0.0
H2384 H 0.73612 0.18546 0.9654 0.0
H2385 H 0.75852 0.23969 0.96887 0.0
H2386 H 0.73397 0.21119 0.01701 0.0
H2387 H 0.71058 0.20023 0.03458 0.0
H2388 H 0.6908 0.2506 0.04016 0.0
H2389 H 0.71395 0.26183 0.02238 0.0
C2390 C 0.80682 0.27391 0.02526 0.0
C2391 C 0.80407 0.29093 0.02985 0.0
C2392 C 0.79399 0.2644 0.0177 0.0
C2393 C 0.77804 0.27159 0.01465 0.0
C2394 C 0.77496 0.28837 0.01968 0.0
C2395 C 0.78792 0.29803 0.02709 0.0
C2396 C 0.76497 0.26153 0.00564 0.0
C2397 C 0.75064 0.25597 0.01456 0.0
C2398 C 0.76769 0.25578 0.98889 0.0
C2399 C 0.78242 0.26159 0.97875 0.0
C2400 C 0.78538 0.27897 0.97621 0.0
C2401 C 0.79941 0.28437 0.96686 0.0
C2402 C 0.81054 0.2725 0.95989 0.0
C2403 C 0.80762 0.25519 0.96222 0.0
C2404 C 0.79361 0.24973 0.97158 0.0
C2405 C 0.70419 0.21302 0.97497 0.0
C2406 C 0.7119 0.19805 0.96904 0.0
C2407 C 0.71401 0.22617 0.98177 0.0
C2408 C 0.73172 0.22455 0.98291 0.0
C2409 C 0.73942 0.2098 0.97665 0.0
C2410 C 0.72967 0.19674 0.96981 0.0
C2411 C 0.7424 0.23794 0.99083 0.0
C2412 C 0.75636 0.24411 0.98171 0.0
C2413 C 0.73944 0.24404 0.00747 0.0
C2414 C 0.72556 0.23732 0.01819 0.0
C2415 C 0.72455 0.21991 0.02187 0.0
C2416 C 0.71136 0.21365 0.03188 0.0
C2417 C 0.69919 0.22471 0.03845 0.0
C2418 C 0.70022 0.24205 0.03504 0.0
C2419 C 0.71337 0.24837 0.02499 0.0
H2420 H 0.68899 0.21983 0.0462 0.0
H2421 H 0.8214 0.2767 0.95265 0.0
H2422 H 0.78589 0.68794 0.97277 0.0
H2423 H 0.76311 0.70484 0.98561 0.0
H2424 H 0.79335 0.74995 0.98 0.0
H2425 H 0.81595 0.73343 0.96716 0.0
H2426 H 0.78074 0.74464 0.01314 0.0
H2427 H 0.76073 0.74382 0.95443 0.0
H2428 H 0.75126 0.72888 0.92866 0.0
H2429 H 0.71098 0.70544 0.95671 0.0
H2430 H 0.72033 0.72012 0.9827 0.0
H2431 H 0.73425 0.81761 0.02556 0.0
H2432 H 0.75081 0.79431 0.01427 0.0
H2433 H 0.70736 0.76135 0.01764 0.0
H2434 H 0.69033 0.78501 0.02859 0.0
H2435 H 0.72374 0.75539 0.98891 0.0
H2436 H 0.74022 0.75798 0.04634 0.0
H2437 H 0.74923 0.77088 0.07331 0.0
H2438 H 0.79542 0.78782 0.05012 0.0
H2439 H 0.78658 0.77523 0.02292 0.0
C2440 C 0.78761 0.70149 0.97408 0.0
C2441 C 0.80285 0.70927 0.96897 0.0
C2442 C 0.77457 0.71112 0.98142 0.0
C2443 C 0.77659 0.72863 0.98383 0.0
C2444 C 0.79156 0.73644 0.97834 0.0
C2445 C 0.80448 0.72693 0.97092 0.0
C2446 C 0.76362 0.73898 0.99271 0.0
C2447 C 0.7683 0.74707 0.00782 0.0
C2448 C 0.74711 0.74146 0.9862 0.0
C2449 C 0.74133 0.73292 0.97052 0.0
C2450 C 0.74992 0.7354 0.95512 0.0
C2451 C 0.74456 0.727 0.94047 0.0
C2452 C 0.73055 0.71618 0.94106 0.0
C2453 C 0.72183 0.71381 0.95628 0.0
C2454 C 0.72714 0.72218 0.97096 0.0
C2455 C 0.72813 0.80542 0.02404 0.0
C2456 C 0.71094 0.8032 0.02819 0.0
C2457 C 0.73769 0.79203 0.0176 0.0
C2458 C 0.73049 0.77591 0.01543 0.0
C2459 C 0.71325 0.77363 0.0193 0.0
C2460 C 0.70355 0.78716 0.02561 0.0
C2461 C 0.74117 0.76172 0.00899 0.0
C2462 C 0.73606 0.75281 0.99443 0.0
C2463 C 0.75723 0.75817 0.01619 0.0
C2464 C 0.76268 0.76572 0.03255 0.0
C2465 C 0.75225 0.76455 0.04695 0.0
C2466 C 0.75733 0.7718 0.06229 0.0
C2467 C 0.77288 0.78019 0.06342 0.0
C2468 C 0.78338 0.78132 0.04922 0.0
C2469 C 0.77835 0.7741 0.03385 0.0
H2470 H 0.77679 0.78579 0.07531 0.0
H2471 H 0.72644 0.70966 0.92971 0.0
H2472 H 0.46634 0.71477 0.81035 0.0
H2473 H 0.47928 0.738 0.79409 0.0
H2474 H 0.48993 0.70345 0.75317 0.0
H2475 H 0.47689 0.68039 0.76902 0.0
H2476 H 0.51823 0.72416 0.76416 0.0
H2477 H 0.4586 0.7285 0.74823 0.0
H2478 H 0.42827 0.73234 0.7547 0.0
H2479 H 0.43897 0.78046 0.77771 0.0
H2480 H 0.46942 0.7768 0.77155 0.0
H2481 H 0.53557 0.76526 0.68835 0.0
H2482 H 0.52429 0.7486 0.71161 0.0
H2483 H 0.5109 0.79435 0.73831 0.0
H2484 H 0.52201 0.81133 0.71476 0.0
H2485 H 0.48542 0.77188 0.73968 0.0
H2486 H 0.54385 0.77037 0.75214 0.0
H2487 H 0.57449 0.76726 0.74697 0.0
H2488 H 0.56716 0.71521 0.73298 0.0
H2489 H 0.53642 0.71806 0.73781 0.0
C2490 C 0.47137 0.71217 0.79785 0.0
C2491 C 0.47051 0.69572 0.79097 0.0
C2492 C 0.47874 0.72544 0.78859 0.0
C2493 C 0.48559 0.7224 0.77245 0.0
C2494 C 0.48476 0.70604 0.76562 0.0
C2495 C 0.47719 0.69289 0.77469 0.0
C2496 C 0.49378 0.73608 0.7625 0.0
C2497 C 0.51108 0.73458 0.75876 0.0
C2498 C 0.48458 0.75004 0.75606 0.0
C2499 C 0.46629 0.75228 0.75963 0.0
C2500 C 0.4545 0.73983 0.75481 0.0
C2501 C 0.43729 0.74199 0.75838 0.0
C2502 C 0.4317 0.75661 0.76666 0.0
C2503 C 0.44332 0.76913 0.77132 0.0
C2504 C 0.46055 0.76702 0.76779 0.0
C2505 C 0.53035 0.77189 0.69917 0.0
C2506 C 0.52977 0.78971 0.69962 0.0
C2507 C 0.52396 0.76229 0.71255 0.0
C2508 C 0.51694 0.77018 0.72686 0.0
C2509 C 0.51632 0.78797 0.72744 0.0
C2510 C 0.52274 0.79765 0.71398 0.0
C2511 C 0.50982 0.75963 0.74078 0.0
C2512 C 0.49272 0.76169 0.74532 0.0
C2513 C 0.51929 0.7463 0.74819 0.0
C2514 C 0.53779 0.74447 0.74524 0.0
C2515 C 0.54874 0.75829 0.74784 0.0
C2516 C 0.56613 0.75657 0.74499 0.0
C2517 C 0.57276 0.74106 0.73962 0.0
C2518 C 0.562 0.72722 0.73713 0.0
C2519 C 0.54459 0.72888 0.73994 0.0
H2520 H 0.58623 0.73975 0.73743 0.0
H2521 H 0.41837 0.75825 0.76942 0.0
H2522 H 0.31688 0.47471 0.76903 0.0
H2523 H 0.29436 0.48826 0.75284 0.0
H2524 H 0.26075 0.48426 0.79569 0.0
H2525 H 0.28341 0.47074 0.81222 0.0
H2526 H 0.246 0.47439 0.76373 0.0
H2527 H 0.27513 0.52119 0.78825 0.0
H2528 H 0.29926 0.53931 0.79631 0.0
H2529 H 0.3121 0.54604 0.7439 0.0
H2530 H 0.2882 0.52774 0.73551 0.0
H2531 H 0.18747 0.52512 0.71521 0.0
H2532 H 0.20471 0.51458 0.73884 0.0
H2533 H 0.24982 0.52054 0.70857 0.0
H2534 H 0.23293 0.53138 0.68527 0.0
H2535 H 0.25565 0.53144 0.7392 0.0
H2536 H 0.22936 0.48127 0.71503 0.0
H2537 H 0.20511 0.46348 0.70656 0.0
H2538 H 0.18714 0.46306 0.75791 0.0
H2539 H 0.2112 0.48103 0.76664 0.0
C2540 C 0.3047 0.4766 0.77507 0.0
C2541 C 0.30199 0.47161 0.79197 0.0
C2542 C 0.29186 0.48444 0.76579 0.0
C2543 C 0.27594 0.48741 0.77311 0.0
C2544 C 0.27298 0.48213 0.78983 0.0
C2545 C 0.28595 0.47444 0.79926 0.0
C2546 C 0.26258 0.49604 0.76305 0.0
C2547 C 0.24791 0.48701 0.75862 0.0
C2548 C 0.26518 0.51241 0.75625 0.0
C2549 C 0.2799 0.52301 0.76126 0.0
C2550 C 0.28321 0.52636 0.77844 0.0
C2551 C 0.29682 0.53671 0.78307 0.0
C2552 C 0.30717 0.54385 0.77062 0.0
C2553 C 0.30404 0.54053 0.75352 0.0
C2554 C 0.29046 0.53018 0.74882 0.0
C2555 C 0.20107 0.52426 0.71363 0.0
C2556 C 0.20876 0.5291 0.69827 0.0
C2557 C 0.21091 0.51815 0.72713 0.0
C2558 C 0.22858 0.51659 0.72546 0.0
C2559 C 0.23624 0.52166 0.71024 0.0
C2560 C 0.2265 0.52784 0.69686 0.0
C2561 C 0.23935 0.50956 0.73928 0.0
C2562 C 0.25356 0.51893 0.74448 0.0
C2563 C 0.23636 0.49348 0.74668 0.0
C2564 C 0.22195 0.48265 0.74144 0.0
C2565 C 0.22016 0.47748 0.72449 0.0
C2566 C 0.20647 0.46735 0.71964 0.0
C2567 C 0.19456 0.46219 0.73168 0.0
C2568 C 0.19635 0.4671 0.74859 0.0
C2569 C 0.21002 0.47725 0.7535 0.0
H2570 H 0.18396 0.45435 0.72791 0.0
H2571 H 0.31756 0.55203 0.77421 0.0
H2572 H 0.52595 0.31607 0.76824 0.0
H2573 H 0.513 0.29308 0.75227 0.0
H2574 H 0.5165 0.2604 0.79586 0.0
H2575 H 0.52938 0.28357 0.81223 0.0
H2576 H 0.52668 0.24609 0.76095 0.0
H2577 H 0.48092 0.2739 0.7908 0.0
H2578 H 0.46513 0.29916 0.80026 0.0
H2579 H 0.45559 0.31292 0.7485 0.0
H2580 H 0.47157 0.28791 0.73873 0.0
H2581 H 0.47404 0.1873 0.71578 0.0
H2582 H 0.48577 0.20431 0.73898 0.0
H2583 H 0.47437 0.25001 0.71124 0.0
H2584 H 0.46235 0.23332 0.6884 0.0
H2585 H 0.46711 0.2548 0.74283 0.0
H2586 H 0.51473 0.23205 0.71226 0.0
H2587 H 0.53264 0.20951 0.70012 0.0
H2588 H 0.54052 0.18866 0.74975 0.0
H2589 H 0.52246 0.21098 0.76216 0.0
C2590 C 0.52418 0.30398 0.77448 0.0
C2591 C 0.52868 0.30174 0.7916 0.0
C2592 C 0.51673 0.29085 0.7653 0.0
C2593 C 0.51372 0.2751 0.77292 0.0
C2594 C 0.51874 0.27249 0.78978 0.0
C2595 C 0.52604 0.28576 0.79911 0.0
C2596 C 0.50456 0.26183 0.76327 0.0
C2597 C 0.51353 0.24771 0.7573 0.0
C2598 C 0.48757 0.26428 0.75816 0.0
C2599 C 0.47755 0.27908 0.76404 0.0
C2600 C 0.47554 0.28236 0.78144 0.0
C2601 C 0.46655 0.29664 0.78685 0.0
C2602 C 0.4594 0.30766 0.77498 0.0
C2603 C 0.46114 0.30438 0.75768 0.0
C2604 C 0.47015 0.29015 0.7522 0.0
C2605 C 0.47387 0.20098 0.7147 0.0
C2606 C 0.46729 0.20888 0.70012 0.0
C2607 C 0.48068 0.21069 0.72795 0.0
C2608 C 0.48116 0.22847 0.7268 0.0
C2609 C 0.47415 0.23634 0.71249 0.0
C2610 C 0.4673 0.22671 0.69935 0.0
C2611 C 0.48929 0.23909 0.74013 0.0
C2612 C 0.48013 0.25283 0.74678 0.0
C2613 C 0.50623 0.23647 0.74553 0.0
C2614 C 0.51707 0.22304 0.73811 0.0
C2615 C 0.52017 0.22257 0.72056 0.0
C2616 C 0.53037 0.20985 0.71364 0.0
C2617 C 0.53766 0.19762 0.72415 0.0
C2618 C 0.53482 0.19812 0.74162 0.0
C2619 C 0.52461 0.2108 0.74861 0.0
H2620 H 0.54556 0.18779 0.71876 0.0
H2621 H 0.45252 0.31874 0.77917 0.0
H2622 H 0.81287 0.47638 0.71663 0.0
H2623 H 0.7964 0.48952 0.73954 0.0
H2624 H 0.75066 0.48303 0.71041 0.0
H2625 H 0.76678 0.46991 0.68767 0.0
H2626 H 0.75577 0.5163 0.72246 0.0
H2627 H 0.75825 0.45783 0.74341 0.0
H2628 H 0.77413 0.43263 0.7529 0.0
H2629 H 0.79791 0.462 0.79203 0.0
H2630 H 0.78227 0.48742 0.78266 0.0
H2631 H 0.68328 0.52744 0.7696 0.0
H2632 H 0.70674 0.51666 0.75297 0.0
H2633 H 0.73992 0.52125 0.79616 0.0
H2634 H 0.71607 0.53166 0.81329 0.0
H2635 H 0.74662 0.49262 0.77996 0.0
H2636 H 0.74237 0.54972 0.76288 0.0
H2637 H 0.7287 0.57629 0.75379 0.0
H2638 H 0.71166 0.55223 0.70808 0.0
H2639 H 0.72501 0.52543 0.717 0.0
C2640 C 0.79928 0.47759 0.71518 0.0
C2641 C 0.7912 0.47212 0.70022 0.0
C2642 C 0.7899 0.48509 0.7283 0.0
C2643 C 0.77232 0.48731 0.72663 0.0
C2644 C 0.76423 0.48152 0.71192 0.0
C2645 C 0.7735 0.47394 0.69893 0.0
C2646 C 0.76217 0.49622 0.73973 0.0
C2647 C 0.7537 0.51111 0.73502 0.0
C2648 C 0.76018 0.48991 0.75639 0.0
C2649 C 0.76923 0.47454 0.76223 0.0
C2650 C 0.76693 0.45892 0.75398 0.0
C2651 C 0.77588 0.4446 0.75935 0.0
C2652 C 0.78707 0.44572 0.77302 0.0
C2653 C 0.78926 0.46115 0.78143 0.0
C2654 C 0.78034 0.47551 0.77611 0.0
C2655 C 0.69556 0.52632 0.77564 0.0
C2656 C 0.69778 0.53064 0.79279 0.0
C2657 C 0.70903 0.52016 0.76604 0.0
C2658 C 0.72525 0.51849 0.77314 0.0
C2659 C 0.72756 0.52254 0.79034 0.0
C2660 C 0.71393 0.52854 0.80009 0.0
C2661 C 0.73951 0.51231 0.76239 0.0
C2662 C 0.74885 0.49803 0.76753 0.0
C2663 C 0.74264 0.5194 0.74619 0.0
C2664 C 0.73464 0.53552 0.74067 0.0
C2665 C 0.73562 0.55006 0.75094 0.0
C2666 C 0.72794 0.56517 0.7458 0.0
C2667 C 0.7193 0.56594 0.73037 0.0
C2668 C 0.71836 0.55161 0.72003 0.0
C2669 C 0.72601 0.53646 0.72511 0.0
H2670 H 0.71336 0.57765 0.72642 0.0
H2671 H 0.79401 0.43463 0.77713 0.0
H2672 H 0.53391 0.19076 0.28452 0.0
H2673 H 0.52072 0.20702 0.26141 0.0
H2674 H 0.50936 0.24746 0.29631 0.0
H2675 H 0.52265 0.23162 0.31923 0.0
H2676 H 0.48138 0.23671 0.27541 0.0
H2677 H 0.54087 0.25279 0.27143 0.0
H2678 H 0.57128 0.24672 0.26765 0.0
H2679 H 0.56104 0.2242 0.21919 0.0
H2680 H 0.53051 0.22994 0.2228 0.0
H2681 H 0.46423 0.31277 0.23419 0.0
H2682 H 0.47538 0.28949 0.25097 0.0
H2683 H 0.48865 0.26254 0.20534 0.0
H2684 H 0.47763 0.28605 0.18826 0.0
H2685 H 0.51423 0.26145 0.22787 0.0
H2686 H 0.45577 0.24887 0.22927 0.0
H2687 H 0.42514 0.25408 0.23237 0.0
H2688 H 0.43249 0.26806 0.28442 0.0
H2689 H 0.46322 0.26318 0.28158 0.0
C2690 C 0.52866 0.20315 0.28723 0.0
C2691 C 0.52942 0.20991 0.30372 0.0
C2692 C 0.52114 0.2124 0.27403 0.0
C2693 C 0.51405 0.22842 0.27719 0.0
C2694 C 0.51472 0.23511 0.29362 0.0
C2695 C 0.52243 0.22605 0.30669 0.0
C2696 C 0.50585 0.23844 0.26354 0.0
C2697 C 0.48854 0.24217 0.26502 0.0
C2698 C 0.51507 0.24499 0.24965 0.0
C2699 C 0.5334 0.24158 0.24749 0.0
C2700 C 0.54509 0.24639 0.26004 0.0
C2701 C 0.56235 0.24304 0.25791 0.0
C2702 C 0.56809 0.23502 0.24321 0.0
C2703 C 0.55658 0.23038 0.23059 0.0
C2704 C 0.5393 0.23368 0.23267 0.0
C2705 C 0.46939 0.30189 0.22762 0.0
C2706 C 0.46998 0.30135 0.2098 0.0
C2707 C 0.47571 0.2885 0.23729 0.0
C2708 C 0.48268 0.27413 0.22945 0.0
C2709 C 0.48328 0.27346 0.21167 0.0
C2710 C 0.47691 0.2869 0.20193 0.0
C2711 C 0.48981 0.26024 0.24004 0.0
C2712 C 0.50692 0.25575 0.23802 0.0
C2713 C 0.48034 0.25279 0.25334 0.0
C2714 C 0.46184 0.25575 0.25517 0.0
C2715 C 0.45088 0.25318 0.24134 0.0
C2716 C 0.43349 0.25605 0.24306 0.0
C2717 C 0.42688 0.26142 0.25858 0.0
C2718 C 0.43764 0.2639 0.27241 0.0
C2719 C 0.45504 0.26106 0.27076 0.0
H2720 H 0.41341 0.26364 0.25988 0.0
H2721 H 0.58146 0.23245 0.24158 0.0
H2722 H 0.76751 0.53777 0.31246 0.0
H2723 H 0.75056 0.52479 0.29026 0.0
H2724 H 0.79593 0.50787 0.26503 0.0
H2725 H 0.81323 0.52095 0.28735 0.0
H2726 H 0.77 0.52033 0.24253 0.0
H2727 H 0.77631 0.48001 0.28747 0.0
H2728 H 0.77608 0.47048 0.31722 0.0
H2729 H 0.72313 0.48242 0.32092 0.0
H2730 H 0.7231 0.49225 0.29126 0.0
H2731 H 0.71587 0.46675 0.19166 0.0
H2732 H 0.73937 0.47726 0.20912 0.0
H2733 H 0.70391 0.49109 0.24838 0.0
H2734 H 0.6807 0.48007 0.23146 0.0
H2735 H 0.72928 0.47671 0.26227 0.0
H2736 H 0.72352 0.52039 0.21914 0.0
H2737 H 0.72336 0.53116 0.18979 0.0
H2738 H 0.77446 0.51382 0.18287 0.0
H2739 H 0.77485 0.50279 0.21213 0.0
C2740 C 0.77401 0.53145 0.30217 0.0
C2741 C 0.7918 0.53026 0.30186 0.0
C2742 C 0.76424 0.52401 0.28946 0.0
C2743 C 0.77197 0.51514 0.27614 0.0
C2744 C 0.78973 0.5146 0.27525 0.0
C2745 C 0.79958 0.52206 0.28804 0.0
C2746 C 0.76127 0.50574 0.26385 0.0
C2747 C 0.76128 0.51057 0.24674 0.0
C2748 C 0.74982 0.49312 0.26938 0.0
C2749 C 0.74973 0.48696 0.28716 0.0
C2750 C 0.76464 0.48069 0.29465 0.0
C2751 C 0.76455 0.47523 0.3115 0.0
C2752 C 0.74961 0.47587 0.32096 0.0
C2753 C 0.7347 0.48193 0.31358 0.0
C2754 C 0.73472 0.48743 0.29674 0.0
C2755 C 0.71314 0.47203 0.20403 0.0
C2756 C 0.69641 0.47248 0.21019 0.0
C2757 C 0.72657 0.47812 0.21397 0.0
C2758 C 0.72346 0.48513 0.23007 0.0
C2759 C 0.70674 0.48565 0.2361 0.0
C2760 C 0.69342 0.47934 0.22636 0.0
C2761 C 0.73738 0.49178 0.24099 0.0
C2762 C 0.73809 0.48632 0.25791 0.0
C2763 C 0.74936 0.5039 0.23526 0.0
C2764 C 0.74914 0.5106 0.21773 0.0
C2765 C 0.73468 0.51878 0.21131 0.0
C2766 C 0.73455 0.52494 0.19471 0.0
C2767 C 0.74887 0.52312 0.18446 0.0
C2768 C 0.76337 0.51519 0.19081 0.0
C2769 C 0.76355 0.50899 0.20741 0.0
H2770 H 0.74875 0.5279 0.1716 0.0
H2771 H 0.74957 0.47164 0.33401 0.0
H2772 H 0.52785 0.71655 0.18975 0.0
H2773 H 0.51459 0.73868 0.20715 0.0
H2774 H 0.51467 0.70497 0.25013 0.0
H2775 H 0.52788 0.68297 0.23306 0.0
H2776 H 0.48337 0.72037 0.24448 0.0
H2777 H 0.54291 0.73611 0.24787 0.0
H2778 H 0.57039 0.74455 0.23564 0.0
H2779 H 0.54722 0.7883 0.21307 0.0
H2780 H 0.51954 0.77999 0.225 0.0
H2781 H 0.46999 0.76625 0.31845 0.0
H2782 H 0.48104 0.74916 0.29539 0.0
H2783 H 0.48227 0.79314 0.26299 0.0
H2784 H 0.47153 0.81062 0.28634 0.0
H2785 H 0.51038 0.77525 0.25891 0.0
H2786 H 0.45185 0.76211 0.25766 0.0
H2787 H 0.42382 0.7542 0.26892 0.0
H2788 H 0.44366 0.70635 0.28554 0.0
H2789 H 0.47189 0.71406 0.27459 0.0
C2790 C 0.52514 0.71389 0.20294 0.0
C2791 C 0.52897 0.69793 0.20997 0.0
C2792 C 0.51758 0.72656 0.21286 0.0
C2793 C 0.51362 0.72345 0.22993 0.0
C2794 C 0.51755 0.70763 0.23697 0.0
C2795 C 0.52521 0.69507 0.22717 0.0
C2796 C 0.50507 0.7364 0.2406 0.0
C2797 C 0.4893 0.73234 0.24772 0.0
C2798 C 0.51248 0.75231 0.24424 0.0
C2799 C 0.52913 0.75732 0.23715 0.0
C2800 C 0.54365 0.74745 0.24018 0.0
C2801 C 0.55926 0.75222 0.23333 0.0
C2802 C 0.56054 0.76692 0.22354 0.0
C2803 C 0.54621 0.7769 0.22063 0.0
C2804 C 0.53056 0.77217 0.22744 0.0
C2805 C 0.47247 0.77237 0.30642 0.0
C2806 C 0.46973 0.78986 0.30429 0.0
C2807 C 0.47875 0.76251 0.29317 0.0
C2808 C 0.48222 0.76975 0.2773 0.0
C2809 C 0.47962 0.78723 0.27508 0.0
C2810 C 0.47342 0.7972 0.28844 0.0
C2811 C 0.4889 0.75897 0.26332 0.0
C2812 C 0.50428 0.76342 0.25551 0.0
C2813 C 0.48101 0.74348 0.25883 0.0
C2814 C 0.46403 0.73872 0.26539 0.0
C2815 C 0.45027 0.74995 0.26382 0.0
C2816 C 0.43434 0.74549 0.27013 0.0
C2817 C 0.43197 0.7298 0.27796 0.0
C2818 C 0.44552 0.71851 0.27947 0.0
C2819 C 0.46149 0.7229 0.27319 0.0
H2820 H 0.41962 0.72637 0.28285 0.0
H2821 H 0.57264 0.7706 0.21825 0.0
H2822 H 0.28626 0.52903 0.18689 0.0
H2823 H 0.26339 0.51619 0.20367 0.0
H2824 H 0.29608 0.51506 0.2474 0.0
H2825 H 0.31878 0.52787 0.231 0.0
H2826 H 0.28029 0.48393 0.24045 0.0
H2827 H 0.26584 0.54385 0.24505 0.0
H2828 H 0.25801 0.5717 0.23323 0.0
H2829 H 0.21397 0.54978 0.21 0.0
H2830 H 0.22167 0.52174 0.22152 0.0
H2831 H 0.23562 0.47122 0.31476 0.0
H2832 H 0.2523 0.48214 0.29138 0.0
H2833 H 0.2076 0.48418 0.26001 0.0
H2834 H 0.19051 0.47355 0.28374 0.0
H2835 H 0.22615 0.51207 0.25557 0.0
H2836 H 0.23777 0.45328 0.25365 0.0
H2837 H 0.24504 0.42494 0.26459 0.0
H2838 H 0.2936 0.44332 0.28079 0.0
H2839 H 0.28654 0.47184 0.27017 0.0
C2840 C 0.28853 0.52617 0.20011 0.0
C2841 C 0.30442 0.52949 0.20754 0.0
C2842 C 0.27544 0.51885 0.20968 0.0
C2843 C 0.27807 0.51462 0.22677 0.0
C2844 C 0.2938 0.51814 0.23422 0.0
C2845 C 0.30677 0.52556 0.22479 0.0
C2846 C 0.2648 0.5061 0.23703 0.0
C2847 C 0.26847 0.49009 0.24381 0.0
C2848 C 0.24907 0.51382 0.2408 0.0
C2849 C 0.24444 0.53067 0.23396 0.0
C2850 C 0.25457 0.54494 0.23729 0.0
C2851 C 0.25014 0.56077 0.23068 0.0
C2852 C 0.23553 0.5625 0.22082 0.0
C2853 C 0.2253 0.54841 0.21761 0.0
C2854 C 0.22968 0.53256 0.22418 0.0
C2855 C 0.22924 0.47384 0.3029 0.0
C2856 C 0.21168 0.47134 0.30116 0.0
C2857 C 0.23887 0.48006 0.28946 0.0
C2858 C 0.23131 0.48368 0.27377 0.0
C2859 C 0.21375 0.48138 0.27195 0.0
C2860 C 0.20401 0.47525 0.28552 0.0
C2861 C 0.24195 0.49015 0.25959 0.0
C2862 C 0.2378 0.50572 0.25199 0.0
C2863 C 0.25719 0.48191 0.25485 0.0
C2864 C 0.26157 0.46474 0.26118 0.0
C2865 C 0.24996 0.45131 0.25964 0.0
C2866 C 0.25405 0.4352 0.26577 0.0
C2867 C 0.26976 0.43233 0.2734 0.0
C2868 C 0.28144 0.44556 0.27488 0.0
C2869 C 0.2774 0.46169 0.26877 0.0
H2870 H 0.2729 0.41986 0.27815 0.0
H2871 H 0.23212 0.57476 0.21571 0.0
H2872 H 0.77016 0.68441 0.52385 0.0
H2873 H 0.75428 0.7071 0.51028 0.0
H2874 H 0.79734 0.74036 0.51477 0.0
H2875 H 0.81364 0.71746 0.52827 0.0
H2876 H 0.76315 0.75441 0.52462 0.0
H2877 H 0.79212 0.72773 0.47856 0.0
H2878 H 0.80226 0.7035 0.46166 0.0
H2879 H 0.75092 0.68838 0.45198 0.0
H2880 H 0.74045 0.71237 0.46906 0.0
H2881 H 0.71516 0.81229 0.47344 0.0
H2882 H 0.73914 0.79569 0.48408 0.0
H2883 H 0.71135 0.74956 0.47479 0.0
H2884 H 0.68763 0.76588 0.46387 0.0
H2885 H 0.74302 0.74539 0.46574 0.0
H2886 H 0.71414 0.76832 0.51479 0.0
H2887 H 0.70288 0.79115 0.53291 0.0
H2888 H 0.7528 0.81219 0.53789 0.0
H2889 H 0.76432 0.78958 0.51961 0.0
C2890 C 0.77631 0.69655 0.52212 0.0
C2891 C 0.79323 0.69907 0.52717 0.0
C2892 C 0.76719 0.7095 0.51428 0.0
C2893 C 0.77467 0.72535 0.51143 0.0
C2894 C 0.79138 0.72818 0.51685 0.0
C2895 C 0.80066 0.71508 0.52451 0.0
C2896 C 0.76485 0.73863 0.50247 0.0
C2897 C 0.75906 0.75271 0.51161 0.0
C2898 C 0.75929 0.73617 0.48562 0.0
C2899 C 0.76551 0.7218 0.4752 0.0
C2900 C 0.78299 0.71916 0.47295 0.0
C2901 C 0.7888 0.70548 0.46331 0.0
C2902 C 0.77724 0.69439 0.45578 0.0
C2903 C 0.75985 0.69698 0.45783 0.0
C2904 C 0.75398 0.71063 0.46747 0.0
C2905 C 0.7142 0.7986 0.47352 0.0
C2906 C 0.69936 0.79047 0.46786 0.0
C2907 C 0.72791 0.78913 0.47969 0.0
C2908 C 0.72699 0.77135 0.48045 0.0
C2909 C 0.71241 0.76324 0.47434 0.0
C2910 C 0.69878 0.77265 0.46812 0.0
C2911 C 0.74086 0.76101 0.48802 0.0
C2912 C 0.74739 0.74739 0.47862 0.0
C2913 C 0.74695 0.76382 0.50469 0.0
C2914 C 0.74005 0.7774 0.51566 0.0
C2915 C 0.72269 0.7779 0.51964 0.0
C2916 C 0.71626 0.79078 0.52995 0.0
C2917 C 0.72711 0.80315 0.5365 0.0
C2918 C 0.74441 0.80263 0.53278 0.0
C2919 C 0.75089 0.78978 0.52244 0.0
H2920 H 0.72211 0.81311 0.54449 0.0
H2921 H 0.78177 0.6838 0.44833 0.0
H2922 H 0.68198 0.23632 0.52997 0.0
H2923 H 0.70454 0.25307 0.51731 0.0
H2924 H 0.7373 0.20938 0.51707 0.0
H2925 H 0.71464 0.19229 0.52982 0.0
H2926 H 0.75345 0.24009 0.52787 0.0
H2927 H 0.7205 0.21968 0.48135 0.0
H2928 H 0.69421 0.21375 0.46555 0.0
H2929 H 0.68302 0.26696 0.46363 0.0
H2930 H 0.70912 0.27319 0.47965 0.0
H2931 H 0.81122 0.28748 0.47547 0.0
H2932 H 0.79323 0.26471 0.48655 0.0
H2933 H 0.74993 0.29801 0.48469 0.0
H2934 H 0.76756 0.32053 0.47333 0.0
H2935 H 0.74143 0.26829 0.47299 0.0
H2936 H 0.77193 0.28854 0.52225 0.0
H2937 H 0.7975 0.29504 0.539 0.0
H2938 H 0.81282 0.2429 0.53637 0.0
H2939 H 0.78743 0.23613 0.51942 0.0
C2940 C 0.69398 0.23019 0.52737 0.0
C2941 C 0.6964 0.21286 0.53086 0.0
C2942 C 0.70687 0.23982 0.52006 0.0
C2943 C 0.72251 0.23243 0.51606 0.0
C2944 C 0.72527 0.2153 0.52001 0.0
C2945 C 0.71229 0.20556 0.52725 0.0
C2946 C 0.73567 0.24268 0.50736 0.0
C2947 C 0.75101 0.24601 0.51571 0.0
C2948 C 0.73235 0.25056 0.49161 0.0
C2949 C 0.71672 0.24689 0.48181 0.0
C2950 C 0.71237 0.23011 0.47766 0.0
C2951 C 0.69751 0.22669 0.46865 0.0
C2952 C 0.68693 0.23997 0.46362 0.0
C2953 C 0.69122 0.25669 0.46755 0.0
C2954 C 0.70606 0.26017 0.47657 0.0
C2955 C 0.79786 0.28993 0.47739 0.0
C2956 C 0.79088 0.30589 0.47348 0.0
C2957 C 0.7876 0.27691 0.48379 0.0
C2958 C 0.77022 0.27966 0.48661 0.0
C2959 C 0.76326 0.29552 0.48259 0.0
C2960 C 0.77343 0.30844 0.4761 0.0
C2961 C 0.75906 0.2662 0.49373 0.0
C2962 C 0.74406 0.26221 0.48503 0.0
C2963 C 0.76267 0.25782 0.5092 0.0
C2964 C 0.7779 0.26188 0.5194 0.0
C2965 C 0.78082 0.27849 0.52513 0.0
C2966 C 0.79527 0.28222 0.53468 0.0
C2967 C 0.8068 0.2694 0.5387 0.0
C2968 C 0.80389 0.25282 0.53322 0.0
C2969 C 0.78948 0.24903 0.52365 0.0
H2970 H 0.81798 0.27231 0.54609 0.0
H2971 H 0.67543 0.2373 0.45665 0.0
H2972 H 0.31603 0.76863 0.52309 0.0
H2973 H 0.29264 0.75339 0.5099 0.0
H2974 H 0.2596 0.79601 0.51848 0.0
H2975 H 0.28318 0.81167 0.53154 0.0
H2976 H 0.2465 0.76077 0.52746 0.0
H2977 H 0.26952 0.79326 0.48175 0.0
H2978 H 0.29245 0.80495 0.46405 0.0
H2979 H 0.30764 0.75464 0.45 0.0
H2980 H 0.28497 0.74262 0.46784 0.0
H2981 H 0.18603 0.715 0.47707 0.0
H2982 H 0.20283 0.73871 0.48805 0.0
H2983 H 0.24879 0.7125 0.47436 0.0
H2984 H 0.23228 0.68909 0.46315 0.0
H2985 H 0.25171 0.74483 0.46687 0.0
H2986 H 0.23264 0.71235 0.51538 0.0
H2987 H 0.21121 0.69951 0.53415 0.0
H2988 H 0.18974 0.74859 0.54366 0.0
H2989 H 0.21093 0.76169 0.52476 0.0
C2990 C 0.30379 0.7748 0.52232 0.0
C2991 C 0.3015 0.79141 0.52838 0.0
C2992 C 0.29045 0.76606 0.51471 0.0
C2993 C 0.27445 0.77361 0.51315 0.0
C2994 C 0.27189 0.79 0.51956 0.0
C2995 C 0.28537 0.79892 0.52696 0.0
C2996 C 0.2607 0.76423 0.50446 0.0
C2997 C 0.24734 0.75761 0.51411 0.0
C2998 C 0.26205 0.75988 0.48713 0.0
C2999 C 0.27561 0.76704 0.47624 0.0
C3000 C 0.27784 0.78468 0.475 0.0
C3001 C 0.29077 0.79137 0.46492 0.0
C3002 C 0.30151 0.78054 0.45593 0.0
C3003 C 0.29931 0.76301 0.45697 0.0
C3004 C 0.2864 0.75625 0.46705 0.0
C3005 C 0.19971 0.71436 0.47625 0.0
C3006 C 0.20776 0.70003 0.4693 0.0
C3007 C 0.20931 0.72791 0.48261 0.0
C3008 C 0.22711 0.72733 0.48222 0.0
C3009 C 0.23509 0.71329 0.47481 0.0
C3010 C 0.22558 0.69983 0.46844 0.0
C3011 C 0.23767 0.74092 0.48995 0.0
C3012 C 0.25052 0.74831 0.48011 0.0
C3013 C 0.23593 0.74583 0.50714 0.0
C3014 C 0.22321 0.73797 0.51849 0.0
C3015 C 0.22326 0.72038 0.52136 0.0
C3016 C 0.21117 0.71306 0.53204 0.0
C3017 C 0.19908 0.72322 0.54004 0.0
C3018 C 0.19908 0.74073 0.53742 0.0
C3019 C 0.21112 0.74811 0.52673 0.0
H3020 H 0.18974 0.71753 0.54831 0.0
H3021 H 0.31152 0.78574 0.44814 0.0
H3022 H 0.22874 0.30503 0.54575 0.0
H3023 H 0.24703 0.2834 0.53328 0.0
H3024 H 0.2085 0.27216 0.49614 0.0
H3025 H 0.18977 0.29316 0.50926 0.0
H3026 H 0.22362 0.24446 0.503 0.0
H3027 H 0.2434 0.29941 0.4878 0.0
H3028 H 0.25289 0.32881 0.49243 0.0
H3029 H 0.29507 0.31088 0.52176 0.0
H3030 H 0.2857 0.28136 0.51748 0.0
H3031 H 0.30861 0.23146 0.45082 0.0
H3032 H 0.28564 0.24909 0.46172 0.0
H3033 H 0.27245 0.20979 0.49742 0.0
H3034 H 0.29479 0.19175 0.48579 0.0
H3035 H 0.28203 0.26315 0.48938 0.0
H3036 H 0.23232 0.21328 0.51142 0.0
H3037 H 0.22135 0.18544 0.50239 0.0
H3038 H 0.23653 0.19572 0.45118 0.0
H3039 H 0.24738 0.22371 0.45985 0.0
C3040 C 0.22409 0.29776 0.53507 0.0
C3041 C 0.20789 0.30088 0.52838 0.0
C3042 C 0.23459 0.28547 0.52786 0.0
C3043 C 0.2294 0.27645 0.51341 0.0
C3044 C 0.21289 0.27898 0.50721 0.0
C3045 C 0.20218 0.291 0.51471 0.0
C3046 C 0.24148 0.26505 0.50433 0.0
C3047 C 0.23639 0.24855 0.50001 0.0
C3048 C 0.25802 0.27046 0.49991 0.0
C3049 C 0.26376 0.28819 0.50245 0.0
C3050 C 0.25464 0.30174 0.49532 0.0
C3051 C 0.26001 0.31843 0.49787 0.0
C3052 C 0.27455 0.32171 0.50741 0.0
C3053 C 0.28379 0.30831 0.51439 0.0
C3054 C 0.27847 0.2916 0.51189 0.0
C3055 C 0.30061 0.22648 0.4608 0.0
C3056 C 0.30347 0.21021 0.46742 0.0
C3057 C 0.28751 0.2366 0.46709 0.0
C3058 C 0.27715 0.23085 0.4804 0.0
C3059 C 0.2799 0.21447 0.4869 0.0
C3060 C 0.29276 0.20416 0.48029 0.0
C3061 C 0.26429 0.24242 0.48811 0.0
C3062 C 0.26926 0.259 0.49227 0.0
C3063 C 0.24745 0.23728 0.49169 0.0
C3064 C 0.24082 0.22052 0.48633 0.0
C3065 C 0.23326 0.20962 0.49822 0.0
C3066 C 0.22707 0.19381 0.49317 0.0
C3067 C 0.2283 0.18879 0.47624 0.0
C3068 C 0.23565 0.1996 0.46431 0.0
C3069 C 0.24184 0.21543 0.46928 0.0
H3070 H 0.22351 0.17654 0.47236 0.0
H3071 H 0.27868 0.33464 0.50938 0.0
H3072 H 0.06877 0.31116 0.127 0.0
H3073 H 0.08402 0.31167 0.10009 0.0
H3074 H 0.08857 0.36606 0.10357 0.0
H3075 H 0.07271 0.36565 0.13021 0.0
H3076 H 0.0814 0.3582 0.07266 0.0
H3077 H 0.12277 0.33883 0.11173 0.0
H3078 H 0.13486 0.32139 0.13465 0.0
H3079 H 0.12938 0.27679 0.10398 0.0
H3080 H 0.11703 0.29393 0.08096 0.0
H3081 H 0.14327 0.35472 0.00385 0.0
H3082 H 0.13105 0.35971 0.03211 0.0
H3083 H 0.11053 0.3091 0.0322 0.0
H3084 H 0.1223 0.30411 0.00415 0.0
H3085 H 0.12902 0.3185 0.06234 0.0
H3086 H 0.08408 0.33897 0.02504 0.0
H3087 H 0.07238 0.35732 0.00266 0.0
H3088 H 0.08695 0.40151 0.03085 0.0
H3089 H 0.09877 0.38336 0.05343 0.0
C3090 C 0.07302 0.32323 0.12203 0.0
C3091 C 0.06961 0.33835 0.13074 0.0
C3092 C 0.08185 0.3235 0.10669 0.0
C3093 C 0.0878 0.33888 0.09993 0.0
C3094 C 0.0842 0.35403 0.10853 0.0
C3095 C 0.07515 0.35378 0.12377 0.0
C3096 C 0.09748 0.33908 0.08374 0.0
C3097 C 0.09203 0.34975 0.07057 0.0
C3098 C 0.11137 0.32805 0.08087 0.0
C3099 C 0.11886 0.31767 0.09466 0.0
C3100 C 0.12404 0.32529 0.10992 0.0
C3101 C 0.13095 0.31545 0.12292 0.0
C3102 C 0.13286 0.29799 0.12079 0.0
C3103 C 0.12789 0.29032 0.10562 0.0
C3104 C 0.12095 0.3001 0.09258 0.0
C3105 C 0.13611 0.3447 0.0099 0.0
C3106 C 0.13373 0.32904 0.0017 0.0
C3107 C 0.12913 0.34758 0.026 0.0
C3108 C 0.11992 0.33475 0.03421 0.0
C3109 C 0.11763 0.31914 0.02609 0.0
C3110 C 0.12431 0.31636 0.00999 0.0
C3111 C 0.11262 0.33727 0.05132 0.0
C3112 C 0.11857 0.32713 0.06464 0.0
C3113 C 0.09942 0.34895 0.0544 0.0
C3114 C 0.09249 0.35983 0.04079 0.0
C3115 C 0.08493 0.3526 0.02638 0.0
C3116 C 0.07824 0.36297 0.01368 0.0
C3117 C 0.07901 0.38059 0.01527 0.0
C3118 C 0.08641 0.38787 0.02961 0.0
C3119 C 0.09307 0.37755 0.04238 0.0
H3120 H 0.07381 0.3886 0.00544 0.0
H3121 H 0.13822 0.29039 0.13087 0.0
H3122 H 0.6371 0.07037 0.12519 0.0
H3123 H 0.63711 0.08555 0.09819 0.0
H3124 H 0.69177 0.08636 0.09863 0.0
H3125 H 0.69181 0.07159 0.12588 0.0
H3126 H 0.68038 0.11602 0.08912 0.0
H3127 H 0.66864 0.05854 0.07365 0.0
H3128 H 0.65345 0.0313 0.07444 0.0
H3129 H 0.60783 0.05591 0.05789 0.0
H3130 H 0.6227 0.08341 0.05732 0.0
H3131 H 0.69964 0.12518 0.00222 0.0
H3132 H 0.69466 0.11319 0.03023 0.0
H3133 H 0.64277 0.13012 0.02852 0.0
H3134 H 0.64773 0.1426 1.00036 0.0
H3135 H 0.64991 0.09356 0.03891 0.0
H3136 H 0.66409 0.15124 0.0523 0.0
H3137 H 0.68123 0.17729 0.05035 0.0
H3138 H 0.72454 0.15054 0.06955 0.0
H3139 H 0.70773 0.12425 0.07133 0.0
C3140 C 0.64912 0.07376 0.11952 0.0
C3141 C 0.66446 0.06975 0.12763 0.0
C3142 C 0.64911 0.0824 0.10405 0.0
C3143 C 0.66444 0.08696 0.09625 0.0
C3144 C 0.67978 0.08301 0.10439 0.0
C3145 C 0.67979 0.0745 0.11993 0.0
C3146 C 0.66457 0.09587 0.07963 0.0
C3147 C 0.67379 0.11102 0.07814 0.0
C3148 C 0.6557 0.08958 0.06533 0.0
C3149 C 0.64673 0.07307 0.06564 0.0
C3150 C 0.65533 0.05818 0.07032 0.0
C3151 C 0.64678 0.04268 0.0707 0.0
C3152 C 0.62967 0.04187 0.06624 0.0
C3153 C 0.62108 0.05656 0.06137 0.0
C3154 C 0.62956 0.07211 0.06102 0.0
C3155 C 0.68712 0.12635 0.00772 0.0
C3156 C 0.67405 0.13483 0.99903 0.0
C3157 C 0.68433 0.11953 0.02376 0.0
C3158 C 0.66839 0.12084 0.03142 0.0
C3159 C 0.65518 0.12904 0.02277 0.0
C3160 C 0.65804 0.13618 0.00675 0.0
C3161 C 0.66581 0.11351 0.04848 0.0
C3162 C 0.65622 0.09864 0.05002 0.0
C3163 C 0.67455 0.1199 0.06275 0.0
C3164 C 0.68467 0.13573 0.06182 0.0
C3165 C 0.6773 0.15087 0.05597 0.0
C3166 C 0.68695 0.16569 0.05492 0.0
C3167 C 0.70397 0.16556 0.0598 0.0
C3168 C 0.71136 0.15062 0.06576 0.0
C3169 C 0.70177 0.13576 0.06681 0.0
H3170 H 0.71142 0.17704 0.05899 0.0
H3171 H 0.62306 0.02986 0.06652 0.0
H3172 H 0.93283 0.68961 0.12627 0.0
H3173 H 0.91726 0.68983 0.09953 0.0
H3174 H 0.91275 0.63538 0.10156 0.0
H3175 H 0.92888 0.63505 0.12805 0.0
H3176 H 0.91965 0.64429 0.0707 0.0
H3177 H 0.8788 0.66224 0.11121 0.0
H3178 H 0.86716 0.6791 0.13479 0.0
H3179 H 0.87182 0.72443 0.10509 0.0
H3180 H 0.88372 0.70788 0.0814 0.0
H3181 H 0.85704 0.64701 0.00342 0.0
H3182 H 0.86956 0.64234 0.03159 0.0
H3183 H 0.88761 0.69389 0.03214 0.0
H3184 H 0.87546 0.69859 0.00416 0.0
H3185 H 0.87119 0.6835 0.06256 0.0
H3186 H 0.91446 0.66454 0.02305 0.0
H3187 H 0.92525 0.64683 0.99968 0.0
H3188 H 0.91421 0.60188 0.02828 0.0
H3189 H 0.90312 0.61935 0.05173 0.0
C3190 C 0.92853 0.67769 0.12102 0.0
C3191 C 0.932 0.66232 0.12929 0.0
C3192 C 0.91953 0.67783 0.10577 0.0
C3193 C 0.9135 0.66264 0.09866 0.0
C3194 C 0.91719 0.64726 0.1068 0.0
C3195 C 0.92638 0.6471 0.12196 0.0
C3196 C 0.90356 0.66288 0.08264 0.0
C3197 C 0.90886 0.65264 0.06906 0.0
C3198 C 0.8895 0.67382 0.08038 0.0
C3199 C 0.88228 0.68383 0.09457 0.0
C3200 C 0.87745 0.67582 0.10974 0.0
C3201 C 0.87079 0.68532 0.12313 0.0
C3202 C 0.86878 0.70283 0.12145 0.0
C3203 C 0.87339 0.71087 0.10637 0.0
C3204 C 0.88008 0.70143 0.09295 0.0
C3205 C 0.86364 0.65733 0.00959 0.0
C3206 C 0.86533 0.67313 0.00152 0.0
C3207 C 0.87081 0.65464 0.02563 0.0
C3208 C 0.87953 0.66778 0.03389 0.0
C3209 C 0.88092 0.68361 0.02599 0.0
C3210 C 0.87403 0.68622 0.00994 0.0
C3211 C 0.88753 0.6652 0.05068 0.0
C3212 C 0.88184 0.67499 0.06437 0.0
C3213 C 0.90105 0.65371 0.0531 0.0
C3214 C 0.90777 0.64324 0.03904 0.0
C3215 C 0.91419 0.65088 0.02428 0.0
C3216 C 0.92039 0.64088 0.01104 0.0
C3217 C 0.92036 0.62324 0.01247 0.0
C3218 C 0.91419 0.61555 0.02717 0.0
C3219 C 0.90795 0.62549 0.04044 0.0
H3220 H 0.92517 0.61552 0.0022 0.0
H3221 H 0.86362 0.71016 0.13183 0.0
H3222 H 0.34432 0.84687 0.01235 0.0
H3223 H 0.3477 0.8601 0.04028 0.0
H3224 H 0.32725 0.90684 0.02069 0.0
H3225 H 0.32387 0.89381 0.99287 0.0
H3226 H 0.35406 0.91245 0.04201 0.0
H3227 H 0.30196 0.88031 0.04145 0.0
H3228 H 0.28478 0.85448 0.03774 0.0
H3229 H 0.31327 0.8296 0.07686 0.0
H3230 H 0.33078 0.85524 0.08062 0.0
H3231 H 0.30925 0.9315 0.1278 0.0
H3232 H 0.31 0.91756 0.10009 0.0
H3233 H 0.3646 0.91615 0.10222 0.0
H3234 H 0.36394 0.93047 0.12966 0.0
H3235 H 0.32137 0.88758 0.08961 0.0
H3236 H 0.38066 0.92003 0.06258 0.0
H3237 H 0.39694 0.94643 0.06641 0.0
H3238 H 0.35173 0.97243 0.08188 0.0
H3239 H 0.33513 0.94622 0.07793 0.0
C3240 C 0.34079 0.86003 0.01394 0.0
C3241 C 0.33366 0.86922 1.00044 0.0
C3242 C 0.34265 0.86755 0.02991 0.0
C3243 C 0.33753 0.88439 0.0326 0.0
C3244 C 0.33124 0.89382 0.01892 0.0
C3245 C 0.32924 0.8863 0.00304 0.0
C3246 C 0.33776 0.89202 0.0498 0.0
C3247 C 0.347 0.90696 0.05245 0.0
C3248 C 0.32837 0.88498 0.06336 0.0
C3249 C 0.31779 0.86962 0.06119 0.0
C3250 C 0.30464 0.86929 0.04917 0.0
C3251 C 0.29483 0.85469 0.04707 0.0
C3252 C 0.29796 0.84039 0.05702 0.0
C3253 C 0.31088 0.84068 0.06913 0.0
C3254 C 0.32074 0.85524 0.07126 0.0
C3255 C 0.3214 0.92823 0.12235 0.0
C3256 C 0.33654 0.93219 0.13084 0.0
C3257 C 0.32182 0.92021 0.10654 0.0
C3258 C 0.33736 0.91598 0.09896 0.0
C3259 C 0.35247 0.91956 0.10764 0.0
C3260 C 0.35207 0.92771 0.12336 0.0
C3261 C 0.33774 0.90801 0.08189 0.0
C3262 C 0.32857 0.893 0.07924 0.0
C3263 C 0.34705 0.9151 0.06828 0.0
C3264 C 0.35671 0.93112 0.07011 0.0
C3265 C 0.37418 0.93141 0.06669 0.0
C3266 C 0.38346 0.94632 0.06891 0.0
C3267 C 0.37539 0.96105 0.07447 0.0
C3268 C 0.35798 0.96097 0.07765 0.0
C3269 C 0.34862 0.94609 0.07543 0.0
H3270 H 0.38266 0.97252 0.0763 0.0
H3271 H 0.29036 0.8291 0.05538 0.0
H3272 H 0.06606 0.69115 0.87551 0.0
H3273 H 0.08075 0.69194 0.90276 0.0
H3274 H 0.09036 0.6382 0.89922 0.0
H3275 H 0.07492 0.63725 0.87238 0.0
H3276 H 0.08262 0.64485 0.92986 0.0
H3277 H 0.12176 0.66961 0.89106 0.0
H3278 H 0.13164 0.68908 0.86872 0.0
H3279 H 0.12132 0.73171 0.9009 0.0
H3280 H 0.11116 0.7125 0.92336 0.0
H3281 H 0.1458 0.64953 0.99657 0.0
H3282 H 0.13268 0.6454 0.96862 0.0
H3283 H 0.10983 0.6949 0.97194 0.0
H3284 H 0.12257 0.69908 0.9997 0.0
H3285 H 0.12655 0.68843 0.94081 0.0
H3286 H 0.08607 0.66223 0.97901 0.0
H3287 H 0.07746 0.64185 0.00106 0.0
H3288 H 0.09258 0.60048 0.96913 0.0
H3289 H 0.10151 0.62065 0.94697 0.0
C3290 C 0.0713 0.67951 0.88057 0.0
C3291 C 0.06943 0.66416 0.87179 0.0
C3292 C 0.07981 0.67998 0.8961 0.0
C3293 C 0.08704 0.66519 0.90294 0.0
C3294 C 0.08497 0.6498 0.89424 0.0
C3295 C 0.07617 0.64928 0.87887 0.0
C3296 C 0.09663 0.66576 0.9192 0.0
C3297 C 0.09242 0.65421 0.9321 0.0
C3298 C 0.10939 0.67801 0.92229 0.0
C3299 C 0.11557 0.68961 0.90884 0.0
C3300 C 0.1215 0.68314 0.89333 0.0
C3301 C 0.12716 0.69413 0.88065 0.0
C3302 C 0.12707 0.71162 0.88337 0.0
C3303 C 0.12136 0.71816 0.8988 0.0
C3304 C 0.11567 0.70722 0.91152 0.0
C3305 C 0.13796 0.65951 0.99134 0.0
C3306 C 0.13522 0.67461 1.00042 0.0
C3307 C 0.13046 0.65711 0.97541 0.0
C3308 C 0.12029 0.66986 0.96825 0.0
C3309 C 0.11766 0.68493 0.97723 0.0
C3310 C 0.12491 0.68724 0.99317 0.0
C3311 C 0.11233 0.66772 0.95137 0.0
C3312 C 0.11686 0.67898 0.9384 0.0
C3313 C 0.1001 0.65505 0.94814 0.0
C3314 C 0.09465 0.64295 0.96142 0.0
C3315 C 0.0877 0.6488 0.97675 0.0
C3316 C 0.08273 0.63728 0.98926 0.0
C3317 C 0.08452 0.61988 0.98652 0.0
C3318 C 0.09123 0.61396 0.97125 0.0
C3319 C 0.09624 0.62543 0.95871 0.0
H3320 H 0.08066 0.61099 0.99622 0.0
H3321 H 0.13146 0.72011 0.87354 0.0
H3322 H 0.3654 0.06808 0.87429 0.0
H3323 H 0.36581 0.08373 0.90103 0.0
H3324 H 0.31119 0.08612 0.9005 0.0
H3325 H 0.31074 0.07089 0.87353 0.0
H3326 H 0.32358 0.11574 0.90895 0.0
H3327 H 0.33356 0.05827 0.92637 0.0
H3328 H 0.34817 0.03065 0.92652 0.0
H3329 H 0.39428 0.05481 0.94234 0.0
H3330 H 0.37999 0.08262 0.94204 0.0
H3331 H 0.30251 0.12702 0.99495 0.0
H3332 H 0.30793 0.11485 0.9671 0.0
H3333 H 0.36031 0.12993 0.97042 0.0
H3334 H 0.35491 0.14257 0.99844 0.0
H3335 H 0.35261 0.09372 0.96019 0.0
H3336 H 0.3404 0.15131 0.94525 0.0
H3337 H 0.32417 0.17799 0.94607 0.0
H3338 H 0.2804 0.15231 0.9265 0.0
H3339 H 0.29629 0.1254 0.92581 0.0
C3340 C 0.35348 0.0719 0.87991 0.0
C3341 C 0.33803 0.06823 0.87184 0.0
C3342 C 0.35373 0.0808 0.89523 0.0
C3343 C 0.33853 0.08598 0.90289 0.0
C3344 C 0.32309 0.0823 0.89482 0.0
C3345 C 0.32284 0.07353 0.87945 0.0
C3346 C 0.33862 0.09539 0.91922 0.0
C3347 C 0.32985 0.11084 0.92016 0.0
C3348 C 0.34715 0.08925 0.93378 0.0
C3349 C 0.35576 0.07255 0.93399 0.0
C3350 C 0.34685 0.05771 0.92974 0.0
C3351 C 0.35507 0.04202 0.92987 0.0
C3352 C 0.37215 0.04098 0.93438 0.0
C3353 C 0.38105 0.05563 0.93881 0.0
C3354 C 0.3729 0.07137 0.93867 0.0
C3355 C 0.31521 0.12779 0.98981 0.0
C3356 C 0.32831 0.13574 0.99892 0.0
C3357 C 0.31826 0.12086 0.97386 0.0
C3358 C 0.33449 0.12153 0.96673 0.0
C3359 C 0.34769 0.12933 0.97576 0.0
C3360 C 0.34457 0.13658 0.99169 0.0
C3361 C 0.33738 0.11384 0.94987 0.0
C3362 C 0.34662 0.09871 0.94886 0.0
C3363 C 0.3291 0.12013 0.93529 0.0
C3364 C 0.31951 0.13631 0.93561 0.0
C3365 C 0.32727 0.15132 0.94126 0.0
C3366 C 0.31814 0.16649 0.94168 0.0
C3367 C 0.30126 0.16684 0.93637 0.0
C3368 C 0.29348 0.15202 0.93061 0.0
C3369 C 0.30255 0.1368 0.93019 0.0
H3370 H 0.29421 0.1786 0.9367 0.0
H3371 H 0.37849 0.02882 0.93449 0.0
H3372 H 0.89146 0.31704 0.00852 0.0
H3373 H 0.90424 0.3221 0.98092 0.0
H3374 H 0.86089 0.35186 0.96605 0.0
H3375 H 0.8478 0.3467 0.99376 0.0
H3376 H 0.86956 0.32919 0.94173 0.0
H3377 H 0.89802 0.37121 0.97447 0.0
H3378 H 0.91421 0.38243 0.99871 0.0
H3379 H 0.95564 0.34926 0.98677 0.0
H3380 H 0.9396 0.33765 0.96259 0.0
H3381 H 0.93543 0.36596 0.87763 0.0
H3382 H 0.92109 0.36661 0.90508 0.0
H3383 H 0.91194 0.31283 0.90163 0.0
H3384 H 0.92616 0.31213 0.87406 0.0
H3385 H 0.92795 0.35136 0.93457 0.0
H3386 H 0.8738 0.30395 0.91997 0.0
H3387 H 0.85683 0.29439 0.89552 0.0
H3388 H 0.86527 0.34204 0.87066 0.0
H3389 H 0.88207 0.35197 0.89506 0.0
C3390 C 0.88463 0.32477 0.99947 0.0
C3391 C 0.86854 0.33143 0.00338 0.0
C3392 C 0.89202 0.32772 0.98369 0.0
C3393 C 0.88359 0.33745 0.97145 0.0
C3394 C 0.86763 0.34432 0.97533 0.0
C3395 C 0.86021 0.34143 0.9912 0.0
C3396 C 0.89126 0.33981 0.95442 0.0
C3397 C 0.88229 0.33412 0.94016 0.0
C3398 C 0.90779 0.34644 0.95232 0.0
C3399 C 0.91754 0.35348 0.96678 0.0
C3400 C 0.91054 0.36622 0.97708 0.0
C3401 C 0.9197 0.37266 0.9908 0.0
C3402 C 0.93593 0.36654 0.99429 0.0
C3403 C 0.94306 0.35398 0.98405 0.0
C3404 C 0.93394 0.34748 0.97032 0.0
C3405 C 0.93036 0.35427 0.88271 0.0
C3406 C 0.93185 0.339 0.87365 0.0
C3407 C 0.92221 0.35466 0.89842 0.0
C3408 C 0.91528 0.33982 0.90534 0.0
C3409 C 0.91696 0.3245 0.89642 0.0
C3410 C 0.92515 0.3241 0.8807 0.0
C3411 C 0.90641 0.34035 0.92194 0.0
C3412 C 0.91517 0.34654 0.93613 0.0
C3413 C 0.8896 0.3344 0.92393 0.0
C3414 C 0.87933 0.32863 0.90928 0.0
C3415 C 0.87197 0.31241 0.90932 0.0
C3416 C 0.86239 0.30692 0.89546 0.0
C3417 C 0.86002 0.31758 0.88153 0.0
C3418 C 0.86717 0.33377 0.88144 0.0
C3419 C 0.87674 0.33933 0.89527 0.0
H3420 H 0.85261 0.3133 0.87081 0.0
H3421 H 0.943 0.37154 0.00493 0.0
H3422 H 0.64654 0.85847 0.99868 0.0
H3423 H 0.64054 0.87254 0.97157 0.0
H3424 H 0.69148 0.89242 0.9707 0.0
H3425 H 0.69727 0.87907 0.99776 0.0
H3426 H 0.67129 0.9161 0.96187 0.0
H3427 H 0.67758 0.85719 0.94616 0.0
H3428 H 0.67079 0.8267 0.94697 0.0
H3429 H 0.6198 0.83736 0.93126 0.0
H3430 H 0.62625 0.86795 0.93056 0.0
H3431 H 0.68789 0.93288 0.87545 0.0
H3432 H 0.68714 0.91932 0.90333 0.0
H3433 H 0.63271 0.91576 0.90034 0.0
H3434 H 0.63332 0.9296 0.87251 0.0
H3435 H 0.65025 0.88501 0.91146 0.0
H3436 H 0.64628 0.94438 0.92418 0.0
H3437 H 0.65493 0.97431 0.92197 0.0
H3438 H 0.7038 0.96198 0.94245 0.0
H3439 H 0.69554 0.9319 0.9445 0.0
C3440 C 0.65642 0.86585 0.99266 0.0
C3441 C 0.67235 0.86769 1.00044 0.0
C3442 C 0.65301 0.87384 0.97715 0.0
C3443 C 0.6656 0.8835 0.96899 0.0
C3444 C 0.68149 0.88519 0.97675 0.0
C3445 C 0.6848 0.87748 0.99226 0.0
C3446 C 0.66251 0.89199 0.95243 0.0
C3447 C 0.66678 0.90922 0.95086 0.0
C3448 C 0.65622 0.88322 0.93808 0.0
C3449 C 0.65234 0.86486 0.93852 0.0
C3450 C 0.66489 0.85304 0.94301 0.0
C3451 C 0.66111 0.83574 0.94343 0.0
C3452 C 0.64486 0.8301 0.93923 0.0
C3453 C 0.63237 0.84175 0.93455 0.0
C3454 C 0.63608 0.85907 0.93414 0.0
C3455 C 0.67576 0.92922 0.88072 0.0
C3456 C 0.66066 0.93236 0.87185 0.0
C3457 C 0.67535 0.92149 0.89663 0.0
C3458 C 0.65986 0.91661 0.90388 0.0
C3459 C 0.64478 0.91944 0.89493 0.0
C3460 C 0.64516 0.9274 0.8791 0.0
C3461 C 0.65953 0.90883 0.92095 0.0
C3462 C 0.65457 0.89184 0.92258 0.0
C3463 C 0.66541 0.91772 0.93532 0.0
C3464 C 0.67032 0.93586 0.93437 0.0
C3465 C 0.65891 0.94803 0.9281 0.0
C3466 C 0.66374 0.96502 0.92688 0.0
C3467 C 0.67991 0.97004 0.93203 0.0
C3468 C 0.69127 0.95807 0.93845 0.0
C3469 C 0.68652 0.94105 0.93966 0.0
H3470 H 0.68363 0.9832 0.93107 0.0
H3471 H 0.64196 0.8167 0.93955 0.0
H3472 H 0.1205 0.05985 0.36685 0.0
H3473 H 0.09234 0.07284 0.36747 0.0
H3474 H 0.09885 0.08941 0.31578 0.0
H3475 H 0.12679 0.07607 0.31495 0.0
H3476 H 0.08107 0.10399 0.36436 0.0
H3477 H 0.06181 0.08811 0.29494 0.0
H3478 H 0.06728 0.06584 0.2737 0.0
H3479 H 0.07846 0.03032 0.31335 0.0
H3480 H 0.07278 0.05227 0.33483 0.0
H3481 H 0.01085 0.15452 0.3389 0.0
H3482 H 0.03791 0.13998 0.34324 0.0
H3483 H 0.01296 0.0917 0.33689 0.0
H3484 H 0.98618 0.10626 0.33164 0.0
H3485 H 0.0392 0.09085 0.31939 0.0
H3486 H 0.02909 0.10721 0.37659 0.0
H3487 H 0.02245 0.12646 0.40028 0.0
H3488 H 0.06715 0.15554 0.38956 0.0
H3489 H 0.07395 0.13659 0.36566 0.0
C3490 C 0.1159 0.06623 0.35561 0.0
C3491 C 0.12579 0.06685 0.34081 0.0
C3492 C 0.09984 0.07372 0.35601 0.0
C3493 C 0.09339 0.08195 0.34162 0.0
C3494 C 0.10342 0.08287 0.32694 0.0
C3495 C 0.11941 0.07528 0.3265 0.0
C3496 C 0.0761 0.08941 0.34184 0.0
C3497 C 0.07188 0.10112 0.35456 0.0
C3498 C 0.06393 0.0853 0.32934 0.0
C3499 C 0.06703 0.07191 0.31649 0.0
C3500 C 0.06535 0.07552 0.29913 0.0
C3501 C 0.06849 0.06296 0.28705 0.0
C3502 C 0.07326 0.04669 0.29217 0.0
C3503 C 0.07482 0.04293 0.3094 0.0
C3504 C 0.07164 0.05544 0.32153 0.0
C3505 C 0.01114 0.1408 0.33871 0.0
C3506 C 0.99647 0.13151 0.33488 0.0
C3507 C 0.0266 0.13247 0.34125 0.0
C3508 C 0.02755 0.11467 0.34051 0.0
C3509 C 0.01267 0.10541 0.3374 0.0
C3510 C 0.99734 0.11374 0.33447 0.0
C3511 C 0.04413 0.10571 0.3418 0.0
C3512 C 0.04828 0.09372 0.3293 0.0
C3513 C 0.05597 0.10913 0.35486 0.0
C3514 C 0.05194 0.12055 0.36924 0.0
C3515 C 0.03744 0.11778 0.37921 0.0
C3516 C 0.03366 0.12863 0.39269 0.0
C3517 C 0.04435 0.14224 0.3964 0.0
C3518 C 0.05887 0.145 0.38666 0.0
C3519 C 0.0627 0.1342 0.37316 0.0
H3520 H 0.0414 0.15062 0.40684 0.0
H3521 H 0.07572 0.03699 0.28279 0.0
H3522 H 0.93666 0.12433 0.36607 0.0
H3523 H 0.92398 0.09609 0.36686 0.0
H3524 H 0.91091 0.10045 0.31395 0.0
H3525 H 0.92405 0.12851 0.31297 0.0
H3526 H 0.89364 0.08418 0.36247 0.0
H3527 H 0.91334 0.06259 0.29472 0.0
H3528 H 0.93664 0.06748 0.27448 0.0
H3529 H 0.96991 0.0806 0.31547 0.0
H3530 H 0.94689 0.07555 0.33598 0.0
H3531 H 0.84558 0.01217 0.33772 0.0
H3532 H 0.85953 0.03954 0.34183 0.0
H3533 H 0.90839 0.01519 0.338 0.0
H3534 H 0.89441 0.98805 0.33286 0.0
H3535 H 0.9097 0.04083 0.31992 0.0
H3536 H 0.89102 0.03265 0.37665 0.0
H3537 H 0.87094 0.02654 0.39978 0.0
H3538 H 0.84144 0.07016 0.38608 0.0
H3539 H 0.86122 0.07641 0.36272 0.0
C3540 C 0.9311 0.11926 0.35459 0.0
C3541 C 0.93143 0.12859 0.33942 0.0
C3542 C 0.92379 0.10314 0.35509 0.0
C3543 C 0.91664 0.09603 0.34044 0.0
C3544 C 0.91663 0.10551 0.32535 0.0
C3545 C 0.92408 0.12157 0.32481 0.0
C3546 C 0.90937 0.07864 0.34087 0.0
C3547 C 0.89715 0.07467 0.35318 0.0
C3548 C 0.91431 0.06605 0.3291 0.0
C3549 C 0.92832 0.06885 0.31686 0.0
C3550 C 0.92564 0.06644 0.29942 0.0
C3551 C 0.9388 0.06925 0.2879 0.0
C3552 C 0.95473 0.0744 0.29368 0.0
C3553 C 0.95755 0.07668 0.31101 0.0
C3554 C 0.94445 0.07385 0.32258 0.0
C3555 C 0.85929 0.01266 0.33809 0.0
C3556 C 0.86893 0.99804 0.33497 0.0
C3557 C 0.86729 0.02831 0.34048 0.0
C3558 C 0.88509 0.02953 0.34035 0.0
C3559 C 0.89467 0.0147 0.33803 0.0
C3560 C 0.88669 0.99916 0.33519 0.0
C3561 C 0.89371 0.04632 0.34141 0.0
C3562 C 0.90619 0.05024 0.3293 0.0
C3563 C 0.88947 0.05861 0.3538 0.0
C3564 C 0.87753 0.05491 0.36784 0.0
C3565 C 0.88018 0.04087 0.37849 0.0
C3566 C 0.86886 0.0374 0.39166 0.0
C3567 C 0.8549 0.04793 0.39437 0.0
C3568 C 0.85225 0.062 0.38395 0.0
C3569 C 0.86352 0.06552 0.37076 0.0
H3570 H 0.84615 0.04522 0.40457 0.0
H3571 H 0.96488 0.07659 0.28474 0.0
H3572 H 0.87327 0.92799 0.36337 0.0
H3573 H 0.90022 0.91273 0.36284 0.0
H3574 H 0.90138 0.91658 0.30832 0.0
H3575 H 0.87417 0.93143 0.30876 0.0
H3576 H 0.91066 0.886 0.31754 0.0
H3577 H 0.9257 0.94237 0.3343 0.0
H3578 H 0.9242 0.96832 0.35164 0.0
H3579 H 0.93903 0.94005 0.3957 0.0
H3580 H 0.94035 0.91386 0.37866 0.0
H3581 H 0.99799 0.87552 0.30116 0.0
H3582 H 0.97006 0.88795 0.3055 0.0
H3583 H 0.96968 0.86974 0.35698 0.0
H3584 H 0.99776 0.85691 0.35268 0.0
H3585 H 0.95977 0.90581 0.35145 0.0
H3586 H 0.94657 0.84944 0.33269 0.0
H3587 H 0.94905 0.82462 0.31387 0.0
H3588 H 0.93179 0.85446 0.27179 0.0
H3589 H 0.92948 0.87955 0.2903 0.0
C3590 C 0.87927 0.9256 0.35127 0.0
C3591 C 0.87163 0.93096 0.3361 0.0
C3592 C 0.89472 0.91692 0.35099 0.0
C3593 C 0.90297 0.91367 0.33556 0.0
C3594 C 0.89527 0.91892 0.32038 0.0
C3595 C 0.87975 0.92747 0.32065 0.0
C3596 C 0.91961 0.90482 0.33518 0.0
C3597 C 0.92141 0.89044 0.32486 0.0
C3598 C 0.9336 0.91037 0.34499 0.0
C3599 C 0.93294 0.92612 0.35524 0.0
C3600 C 0.92851 0.94166 0.34772 0.0
C3601 C 0.92772 0.95641 0.35748 0.0
C3602 C 0.93148 0.95582 0.37477 0.0
C3603 C 0.93609 0.94048 0.38231 0.0
C3604 C 0.93687 0.92568 0.37261 0.0
C3605 C 0.99205 0.87416 0.31345 0.0
C3606 C 1.00013 0.86521 0.32659 0.0
C3607 C 0.97604 0.88124 0.31587 0.0
C3608 C 0.96781 0.87969 0.33151 0.0
C3609 C 0.97587 0.87103 0.3448 0.0
C3610 C 0.99185 0.86367 0.3423 0.0
C3611 C 0.95075 0.88717 0.33373 0.0
C3612 C 0.94891 0.9013 0.34433 0.0
C3613 C 0.93679 0.88154 0.324 0.0
C3614 C 0.93799 0.86642 0.31287 0.0
C3615 C 0.94344 0.85075 0.3194 0.0
C3616 C 0.94479 0.83663 0.30879 0.0
C3617 C 0.94061 0.83797 0.29164 0.0
C3618 C 0.93503 0.85344 0.28508 0.0
C3619 C 0.93369 0.86762 0.29562 0.0
H3620 H 0.94165 0.82702 0.28346 0.0
H3621 H 0.93086 0.96726 0.38231 0.0
H3622 H 0.1548 0.98961 0.34066 0.0
H3623 H 0.14207 0.96141 0.34345 0.0
H3624 H 0.09443 0.98111 0.32526 0.0
H3625 H 0.10715 0.00905 0.32195 0.0
H3626 H 0.11715 0.94732 0.36038 0.0
H3627 H 0.07496 0.95332 0.30027 0.0
H3628 H 0.07541 0.96796 0.27265 0.0
H3629 H 0.12973 0.97038 0.27451 0.0
H3630 H 0.12961 0.95555 0.30201 0.0
H3631 H 0.05702 0.88069 0.36033 0.0
H3632 H 0.07156 0.90805 0.35969 0.0
H3633 H 0.09662 0.89359 0.31325 0.0
H3634 H 0.08138 0.86665 0.31341 0.0
H3635 H 0.08771 0.9238 0.31007 0.0
H3636 H 0.11691 0.89436 0.35403 0.0
H3637 H 0.12004 0.87801 0.38047 0.0
H3638 H 0.09816 0.91901 0.40875 0.0
H3639 H 0.0947 0.93553 0.38244 0.0
C3640 C 0.14158 0.98793 0.3374 0.0
C3641 C 0.13206 0.00149 0.33084 0.0
C3642 C 0.13432 0.97182 0.33901 0.0
C3643 C 0.11739 0.96905 0.33422 0.0
C3644 C 0.10763 0.98282 0.32861 0.0
C3645 C 0.11492 0.99881 0.32677 0.0
C3646 C 0.11004 0.95171 0.33441 0.0
C3647 C 0.11072 0.94215 0.34939 0.0
C3648 C 0.10206 0.94474 0.31993 0.0
C3649 C 0.10225 0.95347 0.30328 0.0
C3650 C 0.087 0.95691 0.29474 0.0
C3651 C 0.0872 0.96525 0.27912 0.0
C3652 C 0.10258 0.97014 0.27186 0.0
C3653 C 0.11781 0.96664 0.28018 0.0
C3654 C 0.11769 0.95828 0.29579 0.0
C3655 C 0.06564 0.88339 0.35 0.0
C3656 C 0.0681 0.87157 0.33693 0.0
C3657 C 0.07406 0.89898 0.3497 0.0
C3658 C 0.08548 0.90284 0.33658 0.0
C3659 C 0.0879 0.89098 0.32352 0.0
C3660 C 0.0792 0.87556 0.32362 0.0
C3661 C 0.09453 0.9194 0.33615 0.0
C3662 C 0.09415 0.92887 0.32109 0.0
C3663 C 0.1033 0.92599 0.35038 0.0
C3664 C 0.10541 0.91612 0.36624 0.0
C3665 C 0.11267 0.89984 0.36587 0.0
C3666 C 0.11451 0.89055 0.38084 0.0
C3667 C 0.10926 0.89745 0.39627 0.0
C3668 C 0.1022 0.91367 0.39678 0.0
C3669 C 0.10031 0.92301 0.38185 0.0
H3670 H 0.1107 0.89023 0.40785 0.0
H3671 H 0.10271 0.97662 0.25977 0.0
H3672 H 0.00367 0.85555 0.64857 0.0
H3673 H 0.03089 0.86974 0.6438 0.0
H3674 H 0.02685 0.89395 0.69265 0.0
H3675 H 0.99964 0.88036 0.69725 0.0
H3676 H 0.03774 0.91593 0.6712 0.0
H3677 H 0.05281 0.85844 0.68489 0.0
H3678 H 0.05257 0.82736 0.68166 0.0
H3679 H 0.07253 0.83216 0.63128 0.0
H3680 H 0.07268 0.8633 0.63414 0.0
H3681 H 0.12352 0.93574 0.69 0.0
H3682 H 0.09584 0.92171 0.68978 0.0
H3683 H 0.1009 0.91217 0.63624 0.0
H3684 H 0.12848 0.92649 0.63627 0.0
H3685 H 0.08958 0.88333 0.657 0.0
H3686 H 0.07661 0.94175 0.64552 0.0
H3687 H 0.07845 0.97244 0.65102 0.0
H3688 H 0.05544 0.96536 0.69979 0.0
H3689 H 0.05377 0.93456 0.69472 0.0
C3690 C 0.00859 0.8639 0.65827 0.0
C3691 C 0.99944 0.86676 0.67329 0.0
C3692 C 0.02419 0.87198 0.65556 0.0
C3693 C 0.03106 0.88282 0.66794 0.0
C3694 C 0.02185 0.88573 0.68286 0.0
C3695 C 0.00625 0.87786 0.68549 0.0
C3696 C 0.04784 0.89115 0.66562 0.0
C3697 C 0.04906 0.90874 0.6682 0.0
C3698 C 0.06264 0.8819 0.6614 0.0
C3699 C 0.06256 0.86319 0.65965 0.0
C3700 C 0.05702 0.85287 0.67308 0.0
C3701 C 0.05692 0.83524 0.67132 0.0
C3702 C 0.06248 0.82779 0.65626 0.0
C3703 C 0.06819 0.83795 0.64293 0.0
C3704 C 0.06829 0.85558 0.64461 0.0
C3705 C 0.11876 0.93065 0.67818 0.0
C3706 C 0.12812 0.93227 0.66314 0.0
C3707 C 0.10295 0.92266 0.67808 0.0
C3708 C 0.09635 0.91596 0.66298 0.0
C3709 C 0.10581 0.91725 0.64801 0.0
C3710 C 0.1215 0.92549 0.64804 0.0
C3711 C 0.07939 0.90792 0.66286 0.0
C3712 C 0.07817 0.89046 0.65981 0.0
C3713 C 0.06463 0.91723 0.66689 0.0
C3714 C 0.0652 0.93581 0.66979 0.0
C3715 C 0.07205 0.94671 0.65747 0.0
C3716 C 0.07305 0.96414 0.6605 0.0
C3717 C 0.0671 0.97084 0.67576 0.0
C3718 C 0.06007 0.96014 0.68798 0.0
C3719 C 0.05908 0.9427 0.68503 0.0
H3720 H 0.06792 0.98433 0.67809 0.0
H3721 H 0.0624 0.81414 0.65492 0.0
H3722 H 0.15479 0.01263 0.66157 0.0
H3723 H 0.14129 0.04046 0.65805 0.0
H3724 H 0.09214 0.01757 0.66453 0.0
H3725 H 0.10554 0.98985 0.66863 0.0
H3726 H 0.09982 0.04637 0.63541 0.0
H3727 H 0.10029 0.03133 0.69645 0.0
H3728 H 0.11565 0.02167 0.72191 0.0
H3729 H 0.151 0.06266 0.71644 0.0
H3730 H 0.13597 0.07238 0.69078 0.0
H3731 H 0.04643 0.11635 0.65095 0.0
H3732 H 0.06015 0.08856 0.65033 0.0
H3733 H 0.10381 0.1097 0.67575 0.0
H3734 H 0.08927 0.13704 0.67774 0.0
H3735 H 0.10047 0.08149 0.68756 0.0
H3736 H 0.10068 0.09937 0.62978 0.0
H3737 H 0.08885 0.10982 0.60281 0.0
H3738 H 0.05711 0.06578 0.59933 0.0
H3739 H 0.0686 0.05516 0.62639 0.0
C3740 C 0.1411 0.01349 0.66185 0.0
C3741 C 0.1312 0.99913 0.66542 0.0
C3742 C 0.13343 0.02937 0.65989 0.0
C3743 C 0.11576 0.031 0.66107 0.0
C3744 C 0.10579 0.01651 0.66354 0.0
C3745 C 0.11346 0.00073 0.66592 0.0
C3746 C 0.10779 0.04796 0.66138 0.0
C3747 C 0.09978 0.05408 0.64679 0.0
C3748 C 0.10833 0.05813 0.67607 0.0
C3749 C 0.11715 0.05245 0.69162 0.0
C3750 C 0.11143 0.03818 0.7006 0.0
C3751 C 0.12005 0.03272 0.71508 0.0
C3752 C 0.13432 0.04152 0.72076 0.0
C3753 C 0.13996 0.05584 0.71201 0.0
C3754 C 0.1314 0.06133 0.69751 0.0
C3755 C 0.05893 0.11494 0.65645 0.0
C3756 C 0.06688 0.12872 0.66434 0.0
C3757 C 0.06689 0.09911 0.65593 0.0
C3758 C 0.08333 0.09698 0.66253 0.0
C3759 C 0.09118 0.11087 0.67052 0.0
C3760 C 0.08292 0.12652 0.67164 0.0
C3761 C 0.09218 0.08026 0.66148 0.0
C3762 C 0.10044 0.07405 0.67601 0.0
C3763 C 0.09228 0.07025 0.64651 0.0
C3764 C 0.0854 0.07655 0.63019 0.0
C3765 C 0.09111 0.09197 0.62331 0.0
C3766 C 0.08447 0.09791 0.608 0.0
C3767 C 0.07221 0.08849 0.59938 0.0
C3768 C 0.0666 0.07307 0.60603 0.0
C3769 C 0.07318 0.06708 0.62134 0.0
H3770 H 0.06708 0.09312 0.58754 0.0
H3771 H 0.14099 0.03727 0.73197 0.0
H3772 H 0.99841 0.12356 0.6998 0.0
H3773 H 0.97137 0.10975 0.69486 0.0
H3774 H 0.9705 0.12917 0.64377 0.0
H3775 H 0.99758 0.14367 0.64887 0.0
H3776 H 0.94006 0.13134 0.65695 0.0
H3777 H 0.98027 0.087 0.65231 0.0
H3778 H 0.00477 0.06935 0.6603 0.0
H3779 H 0.97916 0.05382 0.7057 0.0
H3780 H 0.9546 0.07158 0.69812 0.0
H3781 H 0.87233 0.07301 0.63753 0.0
H3782 H 0.90003 0.08705 0.63739 0.0
H3783 H 0.90358 0.08073 0.69154 0.0
H3784 H 0.8758 0.0669 0.69182 0.0
H3785 H 0.93324 0.07092 0.67298 0.0
H3786 H 0.8937 0.11789 0.67716 0.0
H3787 H 0.86941 0.13502 0.66753 0.0
H3788 H 0.89441 0.14433 0.62012 0.0
H3789 H 0.91876 0.12705 0.62939 0.0
C3790 C 0.99255 0.1249 0.68746 0.0
C3791 C 1.00026 0.13459 0.67466 0.0
C3792 C 0.97707 0.1169 0.68463 0.0
C3793 C 0.96906 0.11803 0.6688 0.0
C3794 C 0.97651 0.128 0.65605 0.0
C3795 C 0.99198 0.13626 0.65897 0.0
C3796 C 0.95283 0.1089 0.66588 0.0
C3797 C 0.93868 0.11804 0.66014 0.0
C3798 C 0.95091 0.09154 0.67011 0.0
C3799 C 0.96562 0.08073 0.67469 0.0
C3800 C 0.9799 0.07991 0.66406 0.0
C3801 C 0.9938 0.06987 0.6685 0.0
C3802 C 0.99354 0.06049 0.68351 0.0
C3803 C 0.97935 0.0611 0.69408 0.0
C3804 C 0.96543 0.07114 0.68971 0.0
C3805 C 0.87902 0.07462 0.64941 0.0
C3806 C 0.8719 0.06888 0.6647 0.0
C3807 C 0.8948 0.08267 0.6493 0.0
C3808 C 0.90379 0.08497 0.66446 0.0
C3809 C 0.89681 0.07906 0.67971 0.0
C3810 C 0.88094 0.07122 0.67986 0.0
C3811 C 0.92053 0.09348 0.6645 0.0
C3812 C 0.93475 0.08417 0.66963 0.0
C3813 C 0.92254 0.11055 0.65941 0.0
C3814 C 0.90796 0.12102 0.65389 0.0
C3815 C 0.89395 0.12347 0.66463 0.0
C3816 C 0.88018 0.13323 0.65924 0.0
C3817 C 0.88034 0.14072 0.6432 0.0
C3818 C 0.89429 0.1385 0.63253 0.0
C3819 C 0.90808 0.12873 0.63785 0.0
H3820 H 0.86967 0.14828 0.63906 0.0
H3821 H 0.00431 0.05272 0.68693 0.0
H3822 H 0.94009 0.87926 0.63773 0.0
H3823 H 0.92635 0.907 0.63783 0.0
H3824 H 0.90895 0.89822 0.68891 0.0
H3825 H 0.92317 0.87065 0.68906 0.0
H3826 H 0.89523 0.91728 0.64023 0.0
H3827 H 0.90724 0.93492 0.71059 0.0
H3828 H 0.92832 0.9293 0.73299 0.0
H3829 H 0.96636 0.91993 0.69524 0.0
H3830 H 0.94558 0.92575 0.67264 0.0
H3831 H 0.84488 0.98897 0.66351 0.0
H3832 H 0.85864 0.96137 0.65996 0.0
H3833 H 0.90744 0.98466 0.66825 0.0
H3834 H 0.89365 0.01198 0.6726 0.0
H3835 H 0.90621 0.95852 0.68633 0.0
H3836 H 0.89319 0.96904 0.62813 0.0
H3837 H 0.87519 0.97602 0.60356 0.0
H3838 H 0.84472 0.93196 0.61302 0.0
H3839 H 0.86242 0.92484 0.63778 0.0
C3840 C 0.93338 0.88326 0.64901 0.0
C3841 C 0.93279 0.87283 0.66343 0.0
C3842 C 0.92545 0.8991 0.64902 0.0
C3843 C 0.91672 0.90481 0.66342 0.0
C3844 C 0.91586 0.89425 0.67775 0.0
C3845 C 0.92395 0.87848 0.67781 0.0
C3846 C 0.90876 0.9219 0.66349 0.0
C3847 C 0.89762 0.92631 0.65032 0.0
C3848 C 0.91213 0.93386 0.67642 0.0
C3849 C 0.9248 0.9306 0.68994 0.0
C3850 C 0.92012 0.93174 0.70708 0.0
C3851 C 0.93201 0.92851 0.71981 0.0
C3852 C 0.94865 0.92421 0.71554 0.0
C3853 C 0.95345 0.9232 0.69853 0.0
C3854 C 0.94162 0.92645 0.68576 0.0
C3855 C 0.85856 0.9882 0.66425 0.0
C3856 C 0.8682 0.00259 0.66837 0.0
C3857 C 0.86644 0.97242 0.66221 0.0
C3858 C 0.88414 0.97086 0.6638 0.0
C3859 C 0.89378 0.98544 0.66712 0.0
C3860 C 0.8859 0.00108 0.66951 0.0
C3861 C 0.89261 0.95398 0.66307 0.0
C3862 C 0.90379 0.94955 0.6762 0.0
C3863 C 0.8897 0.94226 0.64979 0.0
C3864 C 0.87904 0.9465 0.63491 0.0
C3865 C 0.88258 0.96091 0.62504 0.0
C3866 C 0.87244 0.96488 0.61107 0.0
C3867 C 0.85879 0.95447 0.60676 0.0
C3868 C 0.85528 0.94003 0.61639 0.0
C3869 C 0.86537 0.93601 0.63039 0.0
H3870 H 0.85096 0.95756 0.59594 0.0
H3871 H 0.95783 0.92169 0.72541 0.0
H3872 H 0.31793 0.99322 0.10995 0.0
H3873 H 0.32327 0.0204 0.09652 0.0
H3874 H 0.35255 0.0363 0.13983 0.0
H3875 H 0.34697 0.00901 0.15365 0.0
H3876 H 0.33042 0.06032 0.13081 0.0
H3877 H 0.37207 0.02741 0.10194 0.0
H3878 H 0.38347 0.0033 0.0857 0.0
H3879 H 0.34919 0.0142 0.04488 0.0
H3880 H 0.33746 0.03829 0.06096 0.0
H3881 H 0.3649 0.12341 0.06277 0.0
H3882 H 0.36619 0.09627 0.07763 0.0
H3883 H 0.31263 0.09938 0.08807 0.0
H3884 H 0.31129 0.12666 0.07333 0.0
H3885 H 0.35114 0.06655 0.07179 0.0
H3886 H 0.30492 0.0818 0.12679 0.0
H3887 H 0.29555 0.10652 0.14347 0.0
H3888 H 0.34275 0.13159 0.13336 0.0
H3889 H 0.35249 0.10694 0.11682 0.0
C3890 C 0.32564 0.00239 0.11664 0.0
C3891 C 0.33194 0.99892 0.13296 0.0
C3892 C 0.32877 0.01793 0.10885 0.0
C3893 C 0.33842 0.03037 0.11708 0.0
C3894 C 0.34508 0.02687 0.13323 0.0
C3895 C 0.34195 0.01124 0.14107 0.0
C3896 C 0.34064 0.04729 0.10911 0.0
C3897 C 0.33505 0.06169 0.11794 0.0
C3898 C 0.34687 0.04915 0.09239 0.0
C3899 C 0.35382 0.0346 0.08271 0.0
C3900 C 0.36687 0.02459 0.08956 0.0
C3901 C 0.37341 0.01094 0.08036 0.0
C3902 C 0.36704 0.0072 0.06427 0.0
C3903 C 0.35411 0.01711 0.05734 0.0
C3904 C 0.34754 0.03079 0.06648 0.0
C3905 C 0.35339 0.11832 0.06821 0.0
C3906 C 0.338 0.1272 0.06694 0.0
C3907 C 0.35414 0.10278 0.07668 0.0
C3908 C 0.33956 0.09588 0.08413 0.0
C3909 C 0.32411 0.1046 0.08265 0.0
C3910 C 0.32333 0.12014 0.07415 0.0
C3911 C 0.3405 0.07948 0.09333 0.0
C3912 C 0.34664 0.06519 0.0847 0.0
C3913 C 0.33501 0.07777 0.11032 0.0
C3914 C 0.32936 0.09257 0.12044 0.0
C3915 C 0.31333 0.09256 0.12819 0.0
C3916 C 0.30795 0.10656 0.1376 0.0
C3917 C 0.31853 0.12063 0.13943 0.0
C3918 C 0.33454 0.12071 0.13188 0.0
C3919 C 0.33999 0.10673 0.12247 0.0
H3920 H 0.31433 0.13147 0.14671 0.0
H3921 H 0.37214 0.99666 0.05714 0.0
H3922 H 0.35478 0.99901 0.85869 0.0
H3923 H 0.3603 0.97212 0.87334 0.0
H3924 H 0.3083 0.97072 0.89021 0.0
H3925 H 0.30297 0.99766 0.8763 0.0
H3926 H 0.32706 0.96241 0.91514 0.0
H3927 H 0.32492 0.94566 0.85623 0.0
H3928 H 0.33356 0.9462 0.8262 0.0
H3929 H 0.3842 0.93212 0.84024 0.0
H3930 H 0.3759 0.9317 0.87039 0.0
H3931 H 0.3132 0.8759 0.93373 0.0
H3932 H 0.31338 0.90347 0.91956 0.0
H3933 H 0.36796 0.90223 0.91745 0.0
H3934 H 0.3679 0.87467 0.93182 0.0
H3935 H 0.35164 0.91225 0.88632 0.0
H3936 H 0.35178 0.92606 0.9455 0.0
H3937 H 0.34151 0.92381 0.97491 0.0
H3938 H 0.29277 0.94251 0.9596 0.0
H3939 H 0.30264 0.94454 0.93002 0.0
C3940 C 0.34455 0.99289 0.86548 0.0
C3941 C 0.32847 1.0005 0.86637 0.0
C3942 C 0.34769 0.9775 0.87382 0.0
C3943 C 0.33468 0.96927 0.88283 0.0
C3944 C 0.3186 0.97682 0.8835 0.0
C3945 C 0.31556 0.99225 0.87547 0.0
C3946 C 0.33757 0.95288 0.89177 0.0
C3947 C 0.33232 0.95145 0.90874 0.0
C3948 C 0.34484 0.9386 0.88366 0.0
C3949 C 0.34984 0.93885 0.86556 0.0
C3950 C 0.33793 0.94281 0.85292 0.0
C3951 C 0.34276 0.94307 0.83588 0.0
C3952 C 0.35943 0.93925 0.83132 0.0
C3953 C 0.3713 0.93511 0.84379 0.0
C3954 C 0.36654 0.93485 0.86085 0.0
C3955 C 0.32524 0.88148 0.93025 0.0
C3956 C 0.34054 0.87317 0.93395 0.0
C3957 C 0.32533 0.89723 0.92217 0.0
C3958 C 0.34069 0.90489 0.91753 0.0
C3959 C 0.35598 0.8965 0.92093 0.0
C3960 C 0.35592 0.88082 0.9292 0.0
C3961 C 0.34068 0.92181 0.90938 0.0
C3962 C 0.34653 0.92333 0.89267 0.0
C3963 C 0.33377 0.93612 0.91763 0.0
C3964 C 0.32792 0.93533 0.9355 0.0
C3965 C 0.33884 0.92959 0.94838 0.0
C3966 C 0.33309 0.92836 0.96509 0.0
C3967 C 0.31649 0.93298 0.96912 0.0
C3968 C 0.30562 0.93891 0.95646 0.0
C3969 C 0.31129 0.94012 0.93972 0.0
H3970 H 0.31206 0.932 0.98206 0.0
H3971 H 0.36315 0.93946 0.81813 0.0
H3972 H 0.00914 0.34487 0.84645 0.0
H3973 H 0.03708 0.34907 0.85949 0.0
H3974 H 0.01963 0.32428 0.90495 0.0
H3975 H 0.99187 0.32015 0.89218 0.0
H3976 H 0.03853 0.35174 0.91243 0.0
H3977 H 0.04215 0.30264 0.87593 0.0
H3978 H 0.04002 0.28751 0.84867 0.0
H3979 H 0.07698 0.32096 0.8269 0.0
H3980 H 0.07916 0.33643 0.85399 0.0
H3981 H 0.12602 0.31033 0.92986 0.0
H3982 H 0.09876 0.31096 0.91504 0.0
H3983 H 0.09806 0.36551 0.9185 0.0
H3984 H 0.12509 0.36493 0.93359 0.0
H3985 H 0.08855 0.32465 0.88566 0.0
H3986 H 0.05708 0.37873 0.92327 0.0
H3987 H 0.05882 0.39212 0.95146 0.0
H3988 H 0.07678 0.34541 0.97283 0.0
H3989 H 0.07485 0.33168 0.94485 0.0
C3990 C 0.01121 0.34052 0.8593 0.0
C3991 C 0.99831 0.33205 0.86821 0.0
C3992 C 0.0272 0.34285 0.8667 0.0
C3993 C 0.03048 0.33683 0.88314 0.0
C3994 C 0.0174 0.32902 0.89226 0.0
C3995 C 0.00154 0.32659 0.88487 0.0
C3996 C 0.04765 0.33788 0.89077 0.0
C3997 C 0.0495 0.34596 0.9065 0.0
C3998 C 0.06192 0.33013 0.88316 0.0
C3999 C 0.06067 0.3208 0.86691 0.0
C4000 C 0.04972 0.30685 0.86528 0.0
C4001 C 0.04852 0.2982 0.84987 0.0
C4002 C 0.05832 0.3033 0.83604 0.0
C4003 C 0.06937 0.31704 0.83761 0.0
C4004 C 0.0706 0.32575 0.85299 0.0
C4005 C 0.12003 0.32244 0.92748 0.0
C4006 C 0.12763 0.33757 0.933 0.0
C4007 C 0.1045 0.3228 0.91894 0.0
C4008 C 0.09628 0.33827 0.91577 0.0
C4009 C 0.10403 0.3534 0.921 0.0
C4010 C 0.11949 0.35305 0.92962 0.0
C4011 C 0.07944 0.3385 0.90735 0.0
C4012 C 0.07764 0.33066 0.89148 0.0
C4013 C 0.06515 0.34626 0.91495 0.0
C4014 C 0.066 0.35425 0.93193 0.0
C4015 C 0.06132 0.3713 0.93401 0.0
C4016 C 0.06234 0.37895 0.94995 0.0
C4017 C 0.06796 0.36965 0.96392 0.0
C4018 C 0.07247 0.35263 0.962 0.0
C4019 C 0.07143 0.34491 0.9461 0.0
H4020 H 0.06878 0.37563 0.97621 0.0
H4021 H 0.05738 0.29659 0.82413 0.0
H4022 H 0.63718 0.12679 0.9301 0.0
H4023 H 0.63656 0.09981 0.9149 0.0
H4024 H 0.69122 0.09909 0.91387 0.0
H4025 H 0.69189 0.12633 0.92865 0.0
H4026 H 0.67947 0.08997 0.88424 0.0
H4027 H 0.66758 0.0743 0.94175 0.0
H4028 H 0.65241 0.07523 0.96905 0.0
H4029 H 0.60635 0.06025 0.94428 0.0
H4030 H 0.6212 0.05947 0.91677 0.0
H4031 H 0.69697 0.00273 0.87481 0.0
H4032 H 0.69257 0.03083 0.8868 0.0
H4033 H 0.64061 0.03016 0.87 0.0
H4034 H 0.645 0.00189 0.8575 0.0
H4035 H 0.64806 0.0403 0.90658 0.0
H4036 H 0.66219 0.05361 0.84894 0.0
H4037 H 0.679 0.05183 0.82267 0.0
H4038 H 0.7228 0.07027 0.84912 0.0
H4039 H 0.70634 0.07188 0.87563 0.0
C4040 C 0.64907 0.12086 0.92666 0.0
C4041 C 0.66459 0.12865 0.93061 0.0
C4042 C 0.6487 0.1054 0.91802 0.0
C4043 C 0.66384 0.09728 0.91339 0.0
C4044 C 0.67936 0.1051 0.91729 0.0
C4045 C 0.67974 0.12064 0.92579 0.0
C4046 C 0.66357 0.08071 0.90441 0.0
C4047 C 0.67269 0.0791 0.88922 0.0
C4048 C 0.65441 0.06658 0.91066 0.0
C4049 C 0.64545 0.06702 0.92718 0.0
C4050 C 0.65418 0.07134 0.9421 0.0
C4051 C 0.64565 0.07182 0.95761 0.0
C4052 C 0.62842 0.06785 0.95839 0.0
C4053 C 0.61969 0.06336 0.94365 0.0
C4054 C 0.62816 0.06289 0.9281 0.0
C4055 C 0.68456 0.00848 0.87365 0.0
C4056 C 0.67131 1.00005 0.86521 0.0
C4057 C 0.68211 0.02457 0.88047 0.0
C4058 C 0.66631 0.03255 0.87921 0.0
C4059 C 0.65291 0.02416 0.87104 0.0
C4060 C 0.65545 0.00809 0.86389 0.0
C4061 C 0.66407 0.04963 0.88661 0.0
C4062 C 0.65458 0.05129 0.90152 0.0
C4063 C 0.67308 0.06375 0.88025 0.0
C4064 C 0.68305 0.06273 0.86432 0.0
C4065 C 0.67545 0.05712 0.84921 0.0
C4066 C 0.68491 0.05617 0.83426 0.0
C4067 C 0.70196 0.06092 0.83424 0.0
C4068 C 0.70959 0.0666 0.84916 0.0
C4069 C 0.7002 0.06754 0.86415 0.0
H4070 H 0.70925 0.06025 0.82264 0.0
H4071 H 0.62183 0.06822 0.97041 0.0
H4072 H 0.00689 0.68629 0.88895 0.0
H4073 H 0.9798 0.68077 0.90253 0.0
H4074 H 0.96618 0.6467 0.86205 0.0
H4075 H 0.99341 0.6523 0.84814 0.0
H4076 H 0.94063 0.66859 0.86937 0.0
H4077 H 0.97607 0.63089 0.90032 0.0
H4078 H 0.00115 0.62217 0.91678 0.0
H4079 H 0.98831 0.65784 0.95579 0.0
H4080 H 0.96328 0.66696 0.93945 0.0
H4081 H 0.87929 0.63551 0.93963 0.0
H4082 H 0.90652 0.63444 0.92484 0.0
H4083 H 0.90133 0.68714 0.91137 0.0
H4084 H 0.87403 0.68829 0.92606 0.0
H4085 H 0.9358 0.65127 0.92962 0.0
H4086 H 0.91779 0.69299 0.87184 0.0
H4087 H 0.8925 0.69986 0.85479 0.0
H4088 H 0.87009 0.65217 0.86829 0.0
H4089 H 0.89533 0.64491 0.88521 0.0
C4090 C 0.99823 0.67754 0.8829 0.0
C4091 C 0.00237 0.66977 0.86739 0.0
C4092 C 0.98274 0.67433 0.89077 0.0
C4093 C 0.97101 0.66322 0.8834 0.0
C4094 C 0.97508 0.6553 0.86798 0.0
C4095 C 0.99067 0.65845 0.86009 0.0
C4096 C 0.95428 0.66052 0.89158 0.0
C4097 C 0.93957 0.66471 0.88251 0.0
C4098 C 0.95286 0.6552 0.90866 0.0
C4099 C 0.96785 0.64969 0.91859 0.0
C4100 C 0.97866 0.63696 0.91235 0.0
C4101 C 0.99286 0.63193 0.92167 0.0
C4102 C 0.99634 0.63947 0.93731 0.0
C4103 C 0.9856 0.65202 0.94367 0.0
C4104 C 0.97139 0.65711 0.9344 0.0
C4105 C 0.88396 0.64688 0.93354 0.0
C4106 C 0.87449 0.66197 0.93394 0.0
C4107 C 0.89954 0.64625 0.92513 0.0
C4108 C 0.90586 0.66064 0.91683 0.0
C4109 C 0.89656 0.67581 0.91746 0.0
C4110 C 0.88101 0.67647 0.92593 0.0
C4111 C 0.92223 0.65984 0.90756 0.0
C4112 C 0.93686 0.65502 0.91644 0.0
C4113 C 0.92354 0.66432 0.89025 0.0
C4114 C 0.90839 0.66848 0.87991 0.0
C4115 C 0.90749 0.68394 0.87111 0.0
C4116 C 0.89316 0.68791 0.86148 0.0
C4117 C 0.87968 0.67648 0.8605 0.0
C4118 C 0.88052 0.66104 0.86911 0.0
C4119 C 0.89482 0.657 0.87873 0.0
H4120 H 0.86859 0.67959 0.85305 0.0
H4121 H 0.00734 0.63556 0.9445 0.0
H4122 H 0.69367 0.00398 0.1148 0.0
H4123 H 0.68879 0.9767 0.10163 0.0
H4124 H 0.64564 0.96839 0.1341 0.0
H4125 H 0.65072 0.99585 0.14785 0.0
H4126 H 0.66373 0.94033 0.13209 0.0
H4127 H 0.63997 0.97716 0.09157 0.0
H4128 H 0.63753 0.00192 0.07276 0.0
H4129 H 0.68132 0.98551 0.04496 0.0
H4130 H 0.68408 0.96064 0.0637 0.0
H4131 H 0.63857 0.87173 0.07514 0.0
H4132 H 0.63829 0.89921 0.08966 0.0
H4133 H 0.69113 0.90612 0.07777 0.0
H4134 H 0.69167 0.87838 0.06368 0.0
H4135 H 0.6642 0.93463 0.06946 0.0
H4136 H 0.68736 0.89781 0.11364 0.0
H4137 H 0.68629 0.87261 0.13208 0.0
H4138 H 0.63866 0.88923 0.15245 0.0
H4139 H 0.63935 0.91442 0.13392 0.0
C4140 C 0.68304 0.99649 0.11917 0.0
C4141 C 0.67255 0.00224 0.13241 0.0
C4142 C 0.68021 0.98085 0.1115 0.0
C4143 C 0.66666 0.97056 0.11662 0.0
C4144 C 0.65613 0.97615 0.12986 0.0
C4145 C 0.65902 0.99187 0.13768 0.0
C4146 C 0.66407 0.95381 0.10832 0.0
C4147 C 0.66353 0.93915 0.1184 0.0
C4148 C 0.6638 0.95215 0.09044 0.0
C4149 C 0.6623 0.9671 0.07913 0.0
C4150 C 0.64916 0.97889 0.08152 0.0
C4151 C 0.6477 0.99294 0.07085 0.0
C4152 C 0.6593 0.99534 0.0577 0.0
C4153 C 0.67235 0.98365 0.05516 0.0
C4154 C 0.67384 0.96954 0.06578 0.0
C4155 C 0.65014 0.87909 0.07566 0.0
C4156 C 0.66516 0.87294 0.0683 0.0
C4157 C 0.64995 0.89474 0.08398 0.0
C4158 C 0.66468 0.90461 0.08477 0.0
C4159 C 0.67965 0.89861 0.07728 0.0
C4160 C 0.67995 0.88278 0.06929 0.0
C4161 C 0.66441 0.92134 0.09323 0.0
C4162 C 0.6643 0.93594 0.08314 0.0
C4163 C 0.66364 0.92293 0.11105 0.0
C4164 C 0.6633 0.90787 0.12225 0.0
C4165 C 0.67658 0.89599 0.12192 0.0
C4166 C 0.67606 0.88174 0.13242 0.0
C4167 C 0.66239 0.87929 0.14339 0.0
C4168 C 0.64923 0.89113 0.14393 0.0
C4169 C 0.64968 0.9054 0.13344 0.0
H4170 H 0.66201 0.86825 0.15151 0.0
H4171 H 0.65815 0.00625 0.04947 0.0
H4172 H 0.98985 0.67292 0.10631 0.0
H4173 H 0.01708 0.66895 0.09225 0.0
H4174 H 0.04016 0.65679 0.14033 0.0
H4175 H 0.01265 0.66003 0.15434 0.0
H4176 H 0.0437 0.68627 0.09472 0.0
H4177 H 0.07594 0.63371 0.13498 0.0
H4178 H 0.06805 0.60787 0.1507 0.0
H4179 H 0.02389 0.60203 0.11946 0.0
H4180 H 0.03163 0.62769 0.10342 0.0
H4181 H 0.13149 0.68859 0.0785 0.0
H4182 H 0.10382 0.68785 0.09245 0.0
H4183 H 0.09469 0.63804 0.07182 0.0
H4184 H 0.12262 0.63846 0.05843 0.0
H4185 H 0.08378 0.63853 0.10259 0.0
H4186 H 0.0765 0.67462 0.05465 0.0
H4187 H 0.08297 0.69849 0.03557 0.0
H4188 H 0.07404 0.73367 0.0761 0.0
H4189 H 0.06775 0.70998 0.0955 0.0
C4190 C 0.00068 0.6691 0.11384 0.0
C4191 C 0.99913 0.66678 0.13142 0.0
C4192 C 0.01627 0.66691 0.1058 0.0
C4193 C 0.03077 0.66258 0.11517 0.0
C4194 C 0.02916 0.65983 0.13272 0.0
C4195 C 0.01343 0.66171 0.14074 0.0
C4196 C 0.04762 0.662 0.10667 0.0
C4197 C 0.05242 0.67578 0.09645 0.0
C4198 C 0.05899 0.64825 0.10863 0.0
C4199 C 0.05429 0.63273 0.11812 0.0
C4200 C 0.06458 0.62688 0.13143 0.0
C4201 C 0.06012 0.61227 0.1404 0.0
C4202 C 0.04545 0.60335 0.13612 0.0
C4203 C 0.03522 0.60899 0.12282 0.0
C4204 C 0.03962 0.62358 0.1138 0.0
C4205 C 0.12358 0.67749 0.07696 0.0
C4206 C 0.12918 0.66362 0.06733 0.0
C4207 C 0.10773 0.67709 0.08489 0.0
C4208 C 0.09702 0.66298 0.08301 0.0
C4209 C 0.1027 0.64906 0.0735 0.0
C4210 C 0.11864 0.64935 0.06579 0.0
C4211 C 0.07981 0.66281 0.09075 0.0
C4212 C 0.07501 0.64897 0.10087 0.0
C4213 C 0.06817 0.67621 0.08822 0.0
C4214 C 0.0718 0.69051 0.07657 0.0
C4215 C 0.07602 0.68744 0.05952 0.0
C4216 C 0.07965 0.70094 0.04865 0.0
C4217 C 0.07895 0.71759 0.05463 0.0
C4218 C 0.07459 0.72077 0.07149 0.0
C4219 C 0.07098 0.70731 0.08243 0.0
H4220 H 0.08177 0.72802 0.04619 0.0
H4221 H 0.04202 0.59205 0.14309 0.0
H4222 H 0.01164 0.32647 0.10865 0.0
H4223 H 0.98439 0.33079 0.09479 0.0
H4224 H 0.96198 0.344 0.14291 0.0
H4225 H 0.98954 0.34032 0.15674 0.0
H4226 H 0.95742 0.31396 0.09782 0.0
H4227 H 0.92674 0.36812 0.13726 0.0
H4228 H 0.93538 0.39411 0.15232 0.0
H4229 H 0.97945 0.39812 0.12068 0.0
H4230 H 0.97096 0.37229 0.1053 0.0
H4231 H 0.8698 0.31312 0.08152 0.0
H4232 H 0.89739 0.31362 0.09562 0.0
H4233 H 0.90731 0.36311 0.07457 0.0
H4234 H 0.8794 0.36297 0.06112 0.0
H4235 H 0.91853 0.36277 0.10506 0.0
H4236 H 0.92477 0.32573 0.05769 0.0
H4237 H 0.9176 0.30172 0.03903 0.0
H4238 H 0.92583 0.267 0.0801 0.0
H4239 H 0.93281 0.29084 0.09908 0.0
C4240 C 0.00097 0.33055 0.11624 0.0
C4241 C 0.00272 0.33301 0.13379 0.0
C4242 C 0.98535 0.33296 0.10831 0.0
C4243 C 0.97104 0.33769 0.11775 0.0
C4244 C 0.97285 0.34061 0.13525 0.0
C4245 C 0.98861 0.33848 0.14317 0.0
C4246 C 0.95414 0.33851 0.10936 0.0
C4247 C 0.94897 0.32467 0.09941 0.0
C4248 C 0.94313 0.35256 0.11113 0.0
C4249 C 0.9483 0.36816 0.12026 0.0
C4250 C 0.93824 0.37457 0.13349 0.0
C4251 C 0.94312 0.38928 0.14208 0.0
C4252 C 0.95799 0.39773 0.1375 0.0
C4253 C 0.96798 0.39152 0.12427 0.0
C4254 C 0.96315 0.37684 0.11563 0.0
C4255 C 0.87787 0.32411 0.07994 0.0
C4256 C 0.87251 0.33797 0.07016 0.0
C4257 C 0.89367 0.32437 0.08795 0.0
C4258 C 0.90461 0.33829 0.08596 0.0
C4259 C 0.89914 0.35223 0.07634 0.0
C4260 C 0.88321 0.3521 0.06858 0.0
C4261 C 0.92186 0.3382 0.09362 0.0
C4262 C 0.92704 0.35209 0.10348 0.0
C4263 C 0.93318 0.32448 0.09126 0.0
C4264 C 0.92917 0.31009 0.07984 0.0
C4265 C 0.92496 0.31298 0.06277 0.0
C4266 C 0.92093 0.29941 0.05213 0.0
C4267 C 0.92123 0.28285 0.05839 0.0
C4268 C 0.92559 0.27983 0.07528 0.0
C4269 C 0.92959 0.29337 0.08598 0.0
H4270 H 0.91811 0.27235 0.05014 0.0
H4271 H 0.96174 0.4091 0.14417 0.0
H4272 H 0.63171 0.79934 0.50681 0.0
H4273 H 0.61818 0.80376 0.53413 0.0
H4274 H 0.62546 0.85772 0.52922 0.0
H4275 H 0.63979 0.85324 0.50189 0.0
H4276 H 0.63019 0.8485 0.56113 0.0
H4277 H 0.58653 0.839 0.52073 0.0
H4278 H 0.5717 0.82458 0.49732 0.0
H4279 H 0.56648 0.77984 0.52781 0.0
H4280 H 0.58149 0.79391 0.55133 0.0
H4281 H 0.56844 0.86283 0.62658 0.0
H4282 H 0.5831 0.86273 0.59925 0.0
H4283 H 0.58518 0.80814 0.60051 0.0
H4284 H 0.57051 0.80814 0.62784 0.0
H4285 H 0.5744 0.82077 0.56962 0.0
H4286 H 0.61981 0.83118 0.60966 0.0
H4287 H 0.63371 0.8469 0.63281 0.0
H4288 H 0.63404 0.89198 0.60235 0.0
H4289 H 0.61992 0.87657 0.5791 0.0
C4290 C 0.63051 0.81217 0.51154 0.0
C4291 C 0.6366 0.82598 0.50209 0.0
C4292 C 0.62269 0.81469 0.52716 0.0
C4293 C 0.62031 0.83111 0.53353 0.0
C4294 C 0.627 0.84494 0.52448 0.0
C4295 C 0.63517 0.84238 0.50889 0.0
C4296 C 0.61051 0.83361 0.54945 0.0
C4297 C 0.61787 0.84268 0.56288 0.0
C4298 C 0.59443 0.82596 0.55183 0.0
C4299 C 0.58524 0.81748 0.53776 0.0
C4300 C 0.58231 0.82605 0.52241 0.0
C4301 C 0.57386 0.81794 0.50912 0.0
C4302 C 0.56818 0.80129 0.51107 0.0
C4303 C 0.57089 0.79273 0.52632 0.0
C4304 C 0.57935 0.80078 0.53965 0.0
C4305 C 0.57202 0.8508 0.62104 0.0
C4306 C 0.56835 0.83548 0.62937 0.0
C4307 C 0.58046 0.85078 0.60546 0.0
C4308 C 0.58536 0.83544 0.59792 0.0
C4309 C 0.58153 0.82012 0.60613 0.0
C4310 C 0.57319 0.82014 0.62175 0.0
C4311 C 0.59428 0.83525 0.58137 0.0
C4312 C 0.58668 0.82667 0.5678 0.0
C4313 C 0.60996 0.84357 0.57882 0.0
C4314 C 0.61866 0.85276 0.59271 0.0
C4315 C 0.62274 0.84447 0.60795 0.0
C4316 C 0.63068 0.85333 0.62108 0.0
C4317 C 0.63471 0.87044 0.61907 0.0
C4318 C 0.63089 0.87873 0.6039 0.0
C4319 C 0.62293 0.86994 0.59074 0.0
H4320 H 0.64084 0.87728 0.62926 0.0
H4321 H 0.56165 0.79503 0.50076 0.0
H4322 H 0.18933 0.56965 0.62664 0.0
H4323 H 0.18895 0.58552 0.60005 0.0
H4324 H 0.13442 0.58204 0.59858 0.0
H4325 H 0.13476 0.5658 0.625 0.0
H4326 H 0.14692 0.57664 0.56805 0.0
H4327 H 0.15434 0.61907 0.61023 0.0
H4328 H 0.16708 0.63283 0.63521 0.0
H4329 H 0.21473 0.63654 0.60924 0.0
H4330 H 0.20234 0.62257 0.58418 0.0
H4331 H 0.14472 0.64048 0.50159 0.0
H4332 H 0.13981 0.62702 0.52933 0.0
H4333 H 0.19325 0.6166 0.53376 0.0
H4334 H 0.19818 0.62958 0.50617 0.0
H4335 H 0.17775 0.63124 0.5635 0.0
H4336 H 0.1705 0.58547 0.52298 0.0
H4337 H 0.15753 0.57151 0.49825 0.0
H4338 H 0.10849 0.57519 0.52154 0.0
H4339 H 0.12122 0.58929 0.54641 0.0
C4340 C 0.17726 0.57223 0.62064 0.0
C4341 C 0.16207 0.56655 0.62795 0.0
C4342 C 0.17705 0.5814 0.60549 0.0
C4343 C 0.16163 0.58527 0.59746 0.0
C4344 C 0.14646 0.57929 0.60457 0.0
C4345 C 0.14668 0.57003 0.61968 0.0
C4346 C 0.16141 0.59544 0.58159 0.0
C4347 C 0.15338 0.58874 0.56718 0.0
C4348 C 0.16993 0.61119 0.58034 0.0
C4349 C 0.17744 0.61965 0.59537 0.0
C4350 C 0.16757 0.62271 0.60989 0.0
C4351 C 0.17472 0.63056 0.62406 0.0
C4352 C 0.19171 0.63552 0.62383 0.0
C4353 C 0.20157 0.63268 0.60941 0.0
C4354 C 0.19449 0.62481 0.5952 0.0
C4355 C 0.15539 0.63537 0.50855 0.0
C4356 C 0.17181 0.636 0.50167 0.0
C4357 C 0.15257 0.62767 0.52432 0.0
C4358 C 0.16619 0.62082 0.53354 0.0
C4359 C 0.18259 0.62182 0.52685 0.0
C4360 C 0.18536 0.62918 0.51104 0.0
C4361 C 0.16356 0.61226 0.55004 0.0
C4362 C 0.17106 0.61928 0.56454 0.0
C4363 C 0.15445 0.59691 0.55141 0.0
C4364 C 0.14676 0.58862 0.53643 0.0
C4365 C 0.15693 0.58346 0.52274 0.0
C4366 C 0.14963 0.57548 0.50872 0.0
C4367 C 0.13218 0.57253 0.50828 0.0
C4368 C 0.122 0.57752 0.52188 0.0
C4369 C 0.12925 0.58548 0.53595 0.0
H4370 H 0.12655 0.56631 0.49744 0.0
H4371 H 0.19723 0.6416 0.63481 0.0
H4372 H 0.34584 0.16034 0.50967 0.0
H4373 H 0.35858 0.15672 0.53779 0.0
H4374 H 0.40628 0.17524 0.51856 0.0
H4375 H 0.39355 0.17936 0.49072 0.0
H4376 H 0.38374 0.13963 0.55182 0.0
H4377 H 0.42517 0.2003 0.54686 0.0
H4378 H 0.42452 0.22809 0.53255 0.0
H4379 H 0.37025 0.22565 0.52966 0.0
H4380 H 0.37057 0.19798 0.54416 0.0
H4381 H 0.44283 0.14002 0.61953 0.0
H4382 H 0.42877 0.14062 0.59192 0.0
H4383 H 0.40272 0.18656 0.60622 0.0
H4384 H 0.41748 0.18646 0.63343 0.0
H4385 H 0.41217 0.1901 0.57622 0.0
H4386 H 0.38316 0.14541 0.60481 0.0
H4387 H 0.38029 0.11877 0.62088 0.0
H4388 H 0.40326 0.09126 0.57995 0.0
H4389 H 0.40647 0.11778 0.56372 0.0
C4390 C 0.35909 0.16346 0.51142 0.0
C4391 C 0.36861 0.1704 0.49807 0.0
C4392 C 0.36636 0.16137 0.52748 0.0
C4393 C 0.38329 0.16607 0.53039 0.0
C4394 C 0.39308 0.17195 0.51676 0.0
C4395 C 0.38578 0.17426 0.50083 0.0
C4396 C 0.39054 0.16573 0.54778 0.0
C4397 C 0.38996 0.15065 0.55718 0.0
C4398 C 0.39825 0.18024 0.55499 0.0
C4399 C 0.39793 0.19699 0.54644 0.0
C4400 C 0.4131 0.20573 0.54323 0.0
C4401 C 0.41279 0.22145 0.53507 0.0
C4402 C 0.39736 0.2286 0.53015 0.0
C4403 C 0.3822 0.22007 0.53342 0.0
C4404 C 0.38244 0.20436 0.54159 0.0
C4405 C 0.43409 0.15023 0.61675 0.0
C4406 C 0.43121 0.16318 0.62861 0.0
C4407 C 0.42595 0.1505 0.60101 0.0
C4408 C 0.4144 0.16347 0.59701 0.0
C4409 C 0.41156 0.17641 0.60892 0.0
C4410 C 0.41998 0.17634 0.6245 0.0
C4411 C 0.40565 0.16389 0.58029 0.0
C4412 C 0.40595 0.17903 0.57095 0.0
C4413 C 0.39718 0.1496 0.57343 0.0
C4414 C 0.39519 0.13361 0.58311 0.0
C4415 C 0.3877 0.1337 0.59928 0.0
C4416 C 0.386 0.11861 0.60841 0.0
C4417 C 0.39162 0.10334 0.60146 0.0
C4418 C 0.39892 0.10311 0.58533 0.0
C4419 C 0.40067 0.11816 0.57615 0.0
H4420 H 0.3903 0.09168 0.60855 0.0
H4421 H 0.39714 0.24077 0.52383 0.0
H4422 H 0.84671 0.34878 0.51027 0.0
H4423 H 0.85019 0.36174 0.53833 0.0
H4424 H 0.82526 0.407 0.52058 0.0
H4425 H 0.82166 0.39425 0.49272 0.0
H4426 H 0.86474 0.39078 0.55149 0.0
H4427 H 0.79683 0.41929 0.55005 0.0
H4428 H 0.76902 0.41285 0.53729 0.0
H4429 H 0.78226 0.36017 0.53432 0.0
H4430 H 0.81002 0.36624 0.54728 0.0
H4431 H 0.85754 0.44957 0.6188 0.0
H4432 H 0.85776 0.43521 0.59135 0.0
H4433 H 0.81761 0.40216 0.60841 0.0
H4434 H 0.81657 0.41741 0.63537 0.0
H4435 H 0.81115 0.40917 0.57873 0.0
H4436 H 0.86259 0.39033 0.6048 0.0
H4437 H 0.89023 0.39341 0.61906 0.0
H4438 H 0.90972 0.42048 0.5761 0.0
H4439 H 0.88214 0.41775 0.56166 0.0
C4440 C 0.84222 0.3616 0.51227 0.0
C4441 C 0.83365 0.37035 0.49932 0.0
C4442 C 0.84423 0.36898 0.52831 0.0
C4443 C 0.83769 0.3852 0.53162 0.0
C4444 C 0.83012 0.39435 0.5184 0.0
C4445 C 0.82807 0.38701 0.50246 0.0
C4446 C 0.83764 0.39226 0.54906 0.0
C4447 C 0.85306 0.39479 0.55752 0.0
C4448 C 0.82235 0.39704 0.55709 0.0
C4449 C 0.80557 0.39327 0.54947 0.0
C4450 C 0.79378 0.40633 0.54673 0.0
C4451 C 0.77802 0.40274 0.53946 0.0
C4452 C 0.7739 0.38612 0.53494 0.0
C4453 C 0.78549 0.37304 0.53775 0.0
C4454 C 0.80124 0.37656 0.54504 0.0
C4455 C 0.84875 0.43925 0.61662 0.0
C4456 C 0.83707 0.43454 0.62916 0.0
C4457 C 0.84899 0.43092 0.60098 0.0
C4458 C 0.838 0.41724 0.59783 0.0
C4459 C 0.82626 0.41262 0.61043 0.0
C4460 C 0.82567 0.42132 0.62586 0.0
C4461 C 0.83834 0.40808 0.58128 0.0
C4462 C 0.82291 0.40514 0.57289 0.0
C4463 C 0.85361 0.40243 0.57361 0.0
C4464 C 0.87026 0.40394 0.5822 0.0
C4465 C 0.87275 0.39701 0.59843 0.0
C4466 C 0.88841 0.39869 0.60654 0.0
C4467 C 0.90171 0.40716 0.59851 0.0
C4468 C 0.8994 0.41393 0.58231 0.0
C4469 C 0.88377 0.4123 0.57415 0.0
H4470 H 0.91382 0.40846 0.60482 0.0
H4471 H 0.76171 0.38338 0.52931 0.0
H4472 H 0.57913 0.19169 0.37155 0.0
H4473 H 0.59317 0.19198 0.3992 0.0
H4474 H 0.57897 0.13976 0.407 0.0
H4475 H 0.56545 0.13925 0.37917 0.0
H4476 H 0.58254 0.18864 0.42973 0.0
H4477 H 0.60772 0.11942 0.43124 0.0
H4478 H 0.61798 0.09769 0.41125 0.0
H4479 H 0.63217 0.13652 0.37589 0.0
H4480 H 0.62221 0.15848 0.39575 0.0
H4481 H 0.6068 0.17297 0.51339 0.0
H4482 H 0.59398 0.16903 0.48548 0.0
H4483 H 0.64375 0.16397 0.46336 0.0
H4484 H 0.65654 0.16695 0.49149 0.0
H4485 H 0.62375 0.14446 0.4471 0.0
H4486 H 0.62063 0.20277 0.46351 0.0
H4487 H 0.61349 0.22683 0.48213 0.0
H4488 H 0.56071 0.21408 0.47883 0.0
H4489 H 0.56756 0.18982 0.46034 0.0
C4490 C 0.57908 0.18026 0.37915 0.0
C4491 C 0.57129 0.16542 0.37315 0.0
C4492 C 0.58707 0.18044 0.39497 0.0
C4493 C 0.58736 0.16583 0.40515 0.0
C4494 C 0.57928 0.15109 0.39927 0.0
C4495 C 0.57147 0.15084 0.38338 0.0
C4496 C 0.59584 0.16609 0.422 0.0
C4497 C 0.59155 0.17897 0.43349 0.0
C4498 C 0.60787 0.15369 0.42689 0.0
C4499 C 0.61404 0.14057 0.41492 0.0
C4500 C 0.61308 0.12332 0.41922 0.0
C4501 C 0.61884 0.11096 0.40791 0.0
C4502 C 0.62567 0.11572 0.39228 0.0
C4503 C 0.62681 0.13284 0.38796 0.0
C4504 C 0.62109 0.14525 0.39924 0.0
C4505 C 0.61497 0.17073 0.50259 0.0
C4506 C 0.63265 0.1704 0.50455 0.0
C4507 C 0.60765 0.16861 0.48662 0.0
C4508 C 0.6179 0.16673 0.47217 0.0
C4509 C 0.63555 0.16551 0.47425 0.0
C4510 C 0.64286 0.1672 0.49033 0.0
C4511 C 0.61028 0.16689 0.45489 0.0
C4512 C 0.61471 0.1541 0.44333 0.0
C4513 C 0.59881 0.17972 0.4497 0.0
C4514 C 0.59463 0.19441 0.46066 0.0
C4515 C 0.60751 0.20506 0.46682 0.0
C4516 C 0.60352 0.21873 0.47735 0.0
C4517 C 0.58666 0.22195 0.48169 0.0
C4518 C 0.57376 0.21155 0.47547 0.0
C4519 C 0.57769 0.19785 0.46495 0.0
H4520 H 0.58359 0.23254 0.48985 0.0
H4521 H 0.63011 0.10613 0.38354 0.0
H4522 H 0.81085 0.56652 0.37599 0.0
H4523 H 0.81098 0.58143 0.40312 0.0
H4524 H 0.86506 0.58849 0.39909 0.0
H4525 H 0.86507 0.57286 0.37232 0.0
H4526 H 0.8582 0.58115 0.42991 0.0
H4527 H 0.83551 0.6213 0.39106 0.0
H4528 H 0.81668 0.63219 0.36863 0.0
H4529 H 0.77344 0.62427 0.40066 0.0
H4530 H 0.79198 0.61312 0.42321 0.0
H4531 H 0.85483 0.64428 0.49727 0.0
H4532 H 0.85914 0.63127 0.46927 0.0
H4533 H 0.80912 0.60949 0.47164 0.0
H4534 H 0.80478 0.62209 0.49942 0.0
H4535 H 0.81659 0.62697 0.44084 0.0
H4536 H 0.84074 0.58485 0.47885 0.0
H4537 H 0.86061 0.57519 0.50094 0.0
H4538 H 0.90277 0.5892 0.46955 0.0
H4539 H 0.88312 0.59916 0.44735 0.0
C4540 C 0.82276 0.57124 0.38091 0.0
C4541 C 0.83793 0.56861 0.37201 0.0
C4542 C 0.82282 0.57987 0.39637 0.0
C4543 C 0.83799 0.58645 0.40303 0.0
C4544 C 0.85319 0.58361 0.39423 0.0
C4545 C 0.85317 0.57471 0.37891 0.0
C4546 C 0.83797 0.59613 0.41923 0.0
C4547 C 0.84928 0.59137 0.43215 0.0
C4548 C 0.82634 0.60947 0.42228 0.0
C4549 C 0.81513 0.61625 0.40878 0.0
C4550 C 0.82197 0.62178 0.39328 0.0
C4551 C 0.81135 0.62801 0.38055 0.0
C4552 C 0.79387 0.62889 0.38321 0.0
C4553 C 0.78698 0.62357 0.39862 0.0
C4554 C 0.79754 0.61731 0.41139 0.0
C4555 C 0.8448 0.63666 0.49183 0.0
C4556 C 0.82949 0.6342 0.50063 0.0
C4557 C 0.84729 0.62924 0.47587 0.0
C4558 C 0.83442 0.61945 0.46843 0.0
C4559 C 0.81917 0.61703 0.47716 0.0
C4560 C 0.81678 0.6242 0.49312 0.0
C4561 C 0.83653 0.61172 0.45146 0.0
C4562 C 0.82562 0.61689 0.43843 0.0
C4563 C 0.84869 0.59899 0.44822 0.0
C4564 C 0.86047 0.59294 0.46154 0.0
C4565 C 0.85425 0.58602 0.47672 0.0
C4566 C 0.86547 0.58046 0.48925 0.0
C4567 C 0.88294 0.58163 0.48668 0.0
C4568 C 0.88923 0.58833 0.47154 0.0
C4569 C 0.87806 0.59392 0.45898 0.0
H4570 H 0.89161 0.57732 0.49639 0.0
H4571 H 0.78567 0.63372 0.37333 0.0
H4572 H 0.35934 0.85466 0.50076 0.0
H4573 H 0.37409 0.86034 0.47395 0.0
H4574 H 0.39166 0.80857 0.4727 0.0
H4575 H 0.37766 0.80307 0.49951 0.0
H4576 H 0.41629 0.82778 0.46385 0.0
H4577 H 0.35679 0.82445 0.44822 0.0
H4578 H 0.32675 0.83301 0.44942 0.0
H4579 H 0.34028 0.88357 0.43455 0.0
H4580 H 0.37043 0.87532 0.43343 0.0
H4581 H 0.43231 0.81093 0.3773 0.0
H4582 H 0.41937 0.81205 0.40547 0.0
H4583 H 0.41608 0.86647 0.40199 0.0
H4584 H 0.42923 0.86548 0.37388 0.0
H4585 H 0.3858 0.85032 0.41372 0.0
H4586 H 0.44509 0.85208 0.42582 0.0
H4587 H 0.47476 0.84261 0.42331 0.0
H4588 H 0.46136 0.79421 0.44421 0.0
H4589 H 0.43154 0.80327 0.44654 0.0
C4590 C 0.36636 0.84453 0.49473 0.0
C4591 C 0.36734 0.82844 0.5023 0.0
C4592 C 0.37476 0.84776 0.47938 0.0
C4593 C 0.38392 0.83484 0.47117 0.0
C4594 C 0.38482 0.8188 0.47878 0.0
C4595 C 0.37673 0.81567 0.49414 0.0
C4596 C 0.39252 0.83764 0.4546 0.0
C4597 C 0.40954 0.83262 0.45289 0.0
C4598 C 0.38397 0.8444 0.44033 0.0
C4599 C 0.36586 0.84932 0.44093 0.0
C4600 C 0.35336 0.83741 0.44532 0.0
C4601 C 0.33632 0.8422 0.44596 0.0
C4602 C 0.33162 0.85884 0.44212 0.0
C4603 C 0.34394 0.8707 0.43756 0.0
C4604 C 0.361 0.86597 0.43691 0.0
C4605 C 0.42883 0.82312 0.38252 0.0
C4606 C 0.43182 0.83811 0.37341 0.0
C4607 C 0.42148 0.82375 0.39862 0.0
C4608 C 0.41685 0.83935 0.40582 0.0
C4609 C 0.41957 0.85432 0.39664 0.0
C4610 C 0.42713 0.85372 0.38063 0.0
C4611 C 0.40925 0.83994 0.42298 0.0
C4612 C 0.39252 0.84566 0.42477 0.0
C4613 C 0.41802 0.83372 0.4373 0.0
C4614 C 0.43603 0.82832 0.43624 0.0
C4615 C 0.44844 0.83938 0.42978 0.0
C4616 C 0.4653 0.83409 0.4284 0.0
C4617 C 0.46994 0.81782 0.43358 0.0
C4618 C 0.45775 0.80681 0.44019 0.0
C4619 C 0.44086 0.81203 0.44156 0.0
H4620 H 0.48299 0.81375 0.43249 0.0
H4621 H 0.31842 0.86252 0.44263 0.0
H4622 H 0.19131 0.42257 0.36852 0.0
H4623 H 0.19101 0.40702 0.39532 0.0
H4624 H 0.14034 0.42504 0.40523 0.0
H4625 H 0.14035 0.44004 0.37814 0.0
H4626 H 0.18949 0.4159 0.42619 0.0
H4627 H 0.11817 0.39726 0.42881 0.0
H4628 H 0.09505 0.39004 0.40905 0.0
H4629 H 0.13143 0.37419 0.37184 0.0
H4630 H 0.15475 0.38109 0.39145 0.0
H4631 H 0.17279 0.3915 0.50923 0.0
H4632 H 0.1698 0.40493 0.48154 0.0
H4633 H 0.15985 0.35616 0.4589 0.0
H4634 H 0.16199 0.34277 0.48686 0.0
H4635 H 0.14194 0.37848 0.44323 0.0
H4636 H 0.20032 0.37503 0.45832 0.0
H4637 H 0.22554 0.37886 0.47637 0.0
H4638 H 0.21883 0.43283 0.47475 0.0
H4639 H 0.19343 0.4293 0.45687 0.0
C4640 C 0.18009 0.42316 0.3764 0.0
C4641 C 0.16582 0.43244 0.3712 0.0
C4642 C 0.17994 0.41429 0.39174 0.0
C4643 C 0.16556 0.41462 0.40225 0.0
C4644 C 0.15143 0.42421 0.3972 0.0
C4645 C 0.15149 0.43288 0.38175 0.0
C4646 C 0.16551 0.40526 0.41864 0.0
C4647 C 0.17908 0.40771 0.42987 0.0
C4648 C 0.15216 0.39422 0.42338 0.0
C4649 C 0.1382 0.38986 0.41155 0.0
C4650 C 0.12123 0.39217 0.41644 0.0
C4651 C 0.10809 0.38814 0.40525 0.0
C4652 C 0.11177 0.38171 0.38918 0.0
C4653 C 0.1286 0.37924 0.38427 0.0
C4654 C 0.14178 0.38322 0.39541 0.0
C4655 C 0.1697 0.38368 0.49838 0.0
C4656 C 0.16777 0.36608 0.50015 0.0
C4657 C 0.16811 0.39135 0.48253 0.0
C4658 C 0.16512 0.38151 0.468 0.0
C4659 C 0.16228 0.36402 0.46988 0.0
C4660 C 0.16349 0.35637 0.48586 0.0
C4661 C 0.16576 0.3894 0.45086 0.0
C4662 C 0.15233 0.38667 0.43951 0.0
C4663 C 0.17955 0.3997 0.44572 0.0
C4664 C 0.19489 0.40189 0.45637 0.0
C4665 C 0.20417 0.3877 0.4619 0.0
C4666 C 0.2185 0.38982 0.47209 0.0
C4667 C 0.22376 0.40607 0.47673 0.0
C4668 C 0.21473 0.42024 0.47115 0.0
C4669 C 0.20037 0.4182 0.46098 0.0
H4670 H 0.23486 0.40769 0.48463 0.0
H4671 H 0.10159 0.37862 0.38053 0.0
H4672 H 0.62685 0.57289 0.86595 0.0
H4673 H 0.59972 0.58781 0.86608 0.0
H4674 H 0.59494 0.57952 0.81222 0.0
H4675 H 0.6225 0.56537 0.81194 0.0
H4676 H 0.58573 0.60972 0.81848 0.0
H4677 H 0.5723 0.55615 0.84389 0.0
H4678 H 0.57518 0.53278 0.86441 0.0
H4679 H 0.56397 0.56689 0.90528 0.0
H4680 H 0.56128 0.59054 0.88501 0.0
H4681 H 0.49802 0.61671 0.80654 0.0
H4682 H 0.52588 0.60469 0.81169 0.0
H4683 H 0.52945 0.63222 0.8587 0.0
H4684 H 0.50132 0.64469 0.85358 0.0
H4685 H 0.53961 0.59484 0.85852 0.0
H4686 H 0.55077 0.64804 0.83055 0.0
H4687 H 0.54637 0.66953 0.80831 0.0
H4688 H 0.56026 0.6333 0.77018 0.0
H4689 H 0.5645 0.61151 0.79218 0.0
C4690 C 0.61997 0.57422 0.85415 0.0
C4691 C 0.62675 0.56793 0.83893 0.0
C4692 C 0.60441 0.58268 0.85425 0.0
C4693 C 0.59507 0.5846 0.8392 0.0
C4694 C 0.60186 0.57826 0.824 0.0
C4695 C 0.6176 0.57011 0.82385 0.0
C4696 C 0.57839 0.59345 0.83917 0.0
C4697 C 0.57565 0.60632 0.82719 0.0
C4698 C 0.56526 0.58937 0.85075 0.0
C4699 C 0.56677 0.57515 0.86295 0.0
C4700 C 0.57057 0.55869 0.85727 0.0
C4701 C 0.57215 0.54539 0.86885 0.0
C4702 C 0.5698 0.54835 0.88614 0.0
C4703 C 0.56582 0.56462 0.89188 0.0
C4704 C 0.56426 0.57798 0.88035 0.0
C4705 C 0.50458 0.62022 0.81808 0.0
C4706 C 0.49738 0.63176 0.82963 0.0
C4707 C 0.52056 0.61331 0.82096 0.0
C4708 C 0.52973 0.61764 0.8355 0.0
C4709 C 0.52252 0.62875 0.84738 0.0
C4710 C 0.5065 0.63589 0.8444 0.0
C4711 C 0.54705 0.61079 0.83773 0.0
C4712 C 0.54986 0.59831 0.85005 0.0
C4713 C 0.56015 0.61496 0.82626 0.0
C4714 C 0.55784 0.62811 0.81302 0.0
C4715 C 0.55277 0.64462 0.81742 0.0
C4716 C 0.55032 0.65686 0.80485 0.0
C4717 C 0.553 0.65277 0.78784 0.0
C4718 C 0.55818 0.63645 0.78336 0.0
C4719 C 0.56063 0.62416 0.79588 0.0
H4720 H 0.55109 0.66227 0.77812 0.0
H4721 H 0.57103 0.53802 0.89509 0.0
H4722 H 0.42188 0.62773 0.86272 0.0
H4723 H 0.40764 0.60025 0.86284 0.0
H4724 H 0.42236 0.59245 0.81072 0.0
H4725 H 0.43566 0.62043 0.81031 0.0
H4726 H 0.39255 0.58194 0.8137 0.0
H4727 H 0.44245 0.57252 0.84689 0.0
H4728 H 0.463 0.57762 0.86987 0.0
H4729 H 0.42421 0.56865 0.90694 0.0
H4730 H 0.40337 0.56371 0.88416 0.0
H4731 H 0.38545 0.49334 0.80936 0.0
H4732 H 0.39822 0.52108 0.8134 0.0
H4733 H 0.36567 0.53019 0.85627 0.0
H4734 H 0.35248 0.50227 0.85225 0.0
H4735 H 0.40272 0.54002 0.85945 0.0
H4736 H 0.35358 0.54724 0.82336 0.0
H4737 H 0.33592 0.53935 0.79885 0.0
H4738 H 0.37721 0.55037 0.76519 0.0
H4739 H 0.39526 0.55794 0.78956 0.0
C4740 C 0.42206 0.62012 0.8513 0.0
C4741 C 0.42992 0.62616 0.83652 0.0
C4742 C 0.41401 0.60435 0.8514 0.0
C4743 C 0.41418 0.59402 0.8369 0.0
C4744 C 0.42202 0.60012 0.82209 0.0
C4745 C 0.42967 0.6161 0.82186 0.0
C4746 C 0.40598 0.577 0.837 0.0
C4747 C 0.39496 0.57278 0.82366 0.0
C4748 C 0.4088 0.565 0.8501 0.0
C4749 C 0.42131 0.56793 0.86382 0.0
C4750 C 0.43828 0.57176 0.85995 0.0
C4751 C 0.44998 0.5746 0.87293 0.0
C4752 C 0.4449 0.57351 0.88985 0.0
C4753 C 0.42812 0.56952 0.89382 0.0
C4754 C 0.41636 0.56668 0.88088 0.0
C4755 C 0.38102 0.50109 0.81978 0.0
C4756 C 0.36777 0.49557 0.83039 0.0
C4757 C 0.38838 0.51697 0.82205 0.0
C4758 C 0.38278 0.52769 0.83502 0.0
C4759 C 0.37012 0.52204 0.84616 0.0
C4760 C 0.36258 0.50613 0.8438 0.0
C4761 C 0.3896 0.54513 0.83615 0.0
C4762 C 0.4003 0.54935 0.84966 0.0
C4763 C 0.38685 0.55699 0.82301 0.0
C4764 C 0.37581 0.55303 0.80831 0.0
C4765 C 0.35893 0.54788 0.81074 0.0
C4766 C 0.34885 0.54347 0.79687 0.0
C4767 C 0.35545 0.54433 0.78047 0.0
C4768 C 0.37212 0.54969 0.77791 0.0
C4769 C 0.38228 0.55405 0.79175 0.0
H4770 H 0.34766 0.54084 0.76973 0.0
H4771 H 0.45398 0.57571 0.89989 0.0
H4772 H 0.37309 0.43059 0.86547 0.0
H4773 H 0.4 0.41525 0.86589 0.0
H4774 H 0.39692 0.40824 0.81178 0.0
H4775 H 0.36985 0.42342 0.8113 0.0
H4776 H 0.40665 0.37943 0.82742 0.0
H4777 H 0.42262 0.43812 0.82883 0.0
H4778 H 0.42252 0.46737 0.83979 0.0
H4779 H 0.44192 0.44985 0.8875 0.0
H4780 H 0.44188 0.42043 0.8769 0.0
H4781 H 0.49213 0.36847 0.8031 0.0
H4782 H 0.46396 0.37999 0.80847 0.0
H4783 H 0.4704 0.37131 0.86201 0.0
H4784 H 0.49871 0.35924 0.85665 0.0
H4785 H 0.45875 0.4063 0.85017 0.0
H4786 H 0.44498 0.34748 0.84716 0.0
H4787 H 0.44524 0.31859 0.8353 0.0
H4788 H 0.42218 0.33685 0.78955 0.0
H4789 H 0.42204 0.36593 0.80102 0.0
C4790 C 0.37814 0.42578 0.85365 0.0
C4791 C 0.36938 0.42825 0.83833 0.0
C4792 C 0.39354 0.41705 0.85391 0.0
C4793 C 0.40056 0.41072 0.83885 0.0
C4794 C 0.39174 0.41301 0.82356 0.0
C4795 C 0.37631 0.42174 0.82329 0.0
C4796 C 0.41714 0.40181 0.83899 0.0
C4797 C 0.41805 0.38536 0.83229 0.0
C4798 C 0.43195 0.40937 0.84576 0.0
C4799 C 0.43206 0.42705 0.85214 0.0
C4800 C 0.42673 0.44048 0.84171 0.0
C4801 C 0.42672 0.4571 0.84785 0.0
C4802 C 0.43216 0.46046 0.86435 0.0
C4803 C 0.43767 0.44722 0.87473 0.0
C4804 C 0.43768 0.43057 0.86866 0.0
C4805 C 0.48758 0.36896 0.81604 0.0
C4806 C 0.49766 0.36302 0.82948 0.0
C4807 C 0.47146 0.37548 0.81906 0.0
C4808 C 0.46514 0.37647 0.83561 0.0
C4809 C 0.47511 0.37062 0.84914 0.0
C4810 C 0.4912 0.36369 0.84607 0.0
C4811 C 0.44822 0.38405 0.83845 0.0
C4812 C 0.44727 0.40029 0.84559 0.0
C4813 C 0.4334 0.37636 0.83198 0.0
C4814 C 0.43363 0.35893 0.82491 0.0
C4815 C 0.44013 0.34538 0.8345 0.0
C4816 C 0.44022 0.32896 0.82786 0.0
C4817 C 0.43372 0.32589 0.81169 0.0
C4818 C 0.42718 0.33925 0.80209 0.0
C4819 C 0.42709 0.35571 0.80865 0.0
H4820 H 0.43372 0.31315 0.80662 0.0
H4821 H 0.43215 0.47333 0.86908 0.0
H4822 H 0.56427 0.37691 0.81089 0.0
H4823 H 0.5795 0.40387 0.81126 0.0
H4824 H 0.58775 0.39859 0.86506 0.0
H4825 H 0.5718 0.37201 0.86485 0.0
H4826 H 0.58104 0.42978 0.85897 0.0
H4827 H 0.6197 0.39033 0.83449 0.0
H4828 H 0.62938 0.36801 0.81488 0.0
H4829 H 0.62098 0.40116 0.77257 0.0
H4830 H 0.61103 0.4236 0.79191 0.0
H4831 H 0.64436 0.49691 0.85493 0.0
H4832 H 0.63157 0.46879 0.85935 0.0
H4833 H 0.60933 0.47105 0.80951 0.0
H4834 H 0.62173 0.49886 0.80505 0.0
H4835 H 0.62613 0.44031 0.81648 0.0
H4836 H 0.58502 0.4786 0.84196 0.0
H4837 H 0.57621 0.50071 0.86219 0.0
H4838 H 0.59131 0.46905 0.90378 0.0
H4839 H 0.60036 0.4468 0.88375 0.0
C4840 C 0.56929 0.38153 0.82279 0.0
C4841 C 0.56694 0.37232 0.83782 0.0
C4842 C 0.57811 0.3969 0.82299 0.0
C4843 C 0.58517 0.40313 0.83813 0.0
C4844 C 0.58252 0.39406 0.85321 0.0
C4845 C 0.57342 0.37885 0.85307 0.0
C4846 C 0.59525 0.4191 0.8382 0.0
C4847 C 0.59111 0.43192 0.84986 0.0
C4848 C 0.60841 0.42203 0.82633 0.0
C4849 C 0.61451 0.4086 0.81465 0.0
C4850 C 0.61982 0.39282 0.821 0.0
C4851 C 0.62537 0.38016 0.80993 0.0
C4852 C 0.62577 0.38316 0.79249 0.0
C4853 C 0.62066 0.39885 0.78608 0.0
C4854 C 0.61509 0.41156 0.79709 0.0
C4855 C 0.63674 0.49139 0.84494 0.0
C4856 C 0.63404 0.50019 0.82967 0.0
C4857 C 0.62942 0.47537 0.8475 0.0
C4858 C 0.61951 0.46788 0.83473 0.0
C4859 C 0.61696 0.47658 0.81949 0.0
C4860 C 0.62402 0.49256 0.81703 0.0
C4861 C 0.61163 0.45097 0.83695 0.0
C4862 C 0.61623 0.43798 0.82573 0.0
C4863 C 0.5991 0.44783 0.84934 0.0
C4864 C 0.59355 0.46113 0.86137 0.0
C4865 C 0.58659 0.47642 0.85542 0.0
C4866 C 0.58153 0.48896 0.86685 0.0
C4867 C 0.58327 0.48632 0.88426 0.0
C4868 C 0.59 0.47109 0.89029 0.0
C4869 C 0.59509 0.4585 0.8789 0.0
H4870 H 0.57935 0.49606 0.89309 0.0
H4871 H 0.63006 0.37333 0.78394 0.0
H4872 H 0.51035 0.34466 0.16106 0.0
H4873 H 0.53819 0.35807 0.15787 0.0
H4874 H 0.51704 0.4058 0.17412 0.0
H4875 H 0.48948 0.39236 0.17794 0.0
H4876 H 0.55224 0.38243 0.14054 0.0
H4877 H 0.54397 0.4271 0.19853 0.0
H4878 H 0.52869 0.42763 0.2258 0.0
H4879 H 0.52724 0.37325 0.22635 0.0
H4880 H 0.54271 0.37239 0.19923 0.0
H4881 H 0.61887 0.44271 0.14002 0.0
H4882 H 0.59146 0.42825 0.14039 0.0
H4883 H 0.60422 0.40537 0.18842 0.0
H4884 H 0.63118 0.42056 0.1885 0.0
H4885 H 0.57398 0.41431 0.19015 0.0
H4886 H 0.6049 0.38329 0.14851 0.0
H4887 H 0.62209 0.37905 0.12277 0.0
H4888 H 0.58196 0.39949 0.09225 0.0
H4889 H 0.5646 0.40406 0.11784 0.0
C4890 C 0.51162 0.35805 0.16376 0.0
C4891 C 0.4978 0.3674 0.16999 0.0
C4892 C 0.52753 0.36571 0.16193 0.0
C4893 C 0.52983 0.38286 0.16614 0.0
C4894 C 0.51573 0.39244 0.17125 0.0
C4895 C 0.49996 0.38476 0.17337 0.0
C4896 C 0.54702 0.3906 0.16603 0.0
C4897 C 0.55701 0.38941 0.15137 0.0
C4898 C 0.55349 0.39931 0.18033 0.0
C4899 C 0.54435 0.3997 0.19676 0.0
C4900 C 0.54045 0.41526 0.20451 0.0
C4901 C 0.53174 0.41561 0.21993 0.0
C4902 C 0.52695 0.40048 0.22777 0.0
C4903 C 0.5309 0.38496 0.22024 0.0
C4904 C 0.53962 0.38453 0.20483 0.0
C4905 C 0.61578 0.43459 0.15065 0.0
C4906 C 0.62714 0.43272 0.16422 0.0
C4907 C 0.60016 0.42622 0.15079 0.0
C4908 C 0.59581 0.41543 0.16429 0.0
C4909 C 0.6072 0.41361 0.17786 0.0
C4910 C 0.62264 0.42227 0.17789 0.0
C4911 C 0.57924 0.40637 0.16456 0.0
C4912 C 0.5693 0.40734 0.17928 0.0
C4913 C 0.57314 0.39693 0.15053 0.0
C4914 C 0.58352 0.39416 0.13511 0.0
C4915 C 0.59979 0.38699 0.13632 0.0
C4916 C 0.60955 0.38451 0.12176 0.0
C4917 C 0.60314 0.38904 0.10589 0.0
C4918 C 0.58692 0.39601 0.10455 0.0
C4919 C 0.57711 0.39853 0.11908 0.0
H4920 H 0.61072 0.38711 0.09463 0.0
H4921 H 0.5202 0.40079 0.2397 0.0
H4922 H 0.60698 0.49223 0.17841 0.0
H4923 H 0.59391 0.51981 0.17394 0.0
H4924 H 0.64124 0.53925 0.1547 0.0
H4925 H 0.65434 0.51136 0.15874 0.0
H4926 H 0.60033 0.54774 0.18898 0.0
H4927 H 0.63349 0.57297 0.12827 0.0
H4928 H 0.64496 0.56194 0.10136 0.0
H4929 H 0.61187 0.51888 0.10457 0.0
H4930 H 0.60005 0.52977 0.13136 0.0
H4931 H 0.58446 0.63522 0.18541 0.0
H4932 H 0.5987 0.60771 0.18509 0.0
H4933 H 0.57239 0.59462 0.13895 0.0
H4934 H 0.55894 0.62256 0.13874 0.0
H4935 H 0.60224 0.58264 0.13678 0.0
H4936 H 0.55969 0.58035 0.18 0.0
H4937 H 0.5445 0.58987 0.20558 0.0
H4938 H 0.58976 0.58361 0.23513 0.0
H4939 H 0.60528 0.57427 0.20965 0.0
C4940 C 0.61459 0.5023 0.17303 0.0
C4941 C 0.63175 0.49962 0.16903 0.0
C4942 C 0.60709 0.5181 0.17053 0.0
C4943 C 0.61656 0.53168 0.16405 0.0
C4944 C 0.63359 0.52894 0.15954 0.0
C4945 C 0.64108 0.513 0.16187 0.0
C4946 C 0.60875 0.54883 0.16302 0.0
C4947 C 0.60077 0.55534 0.17754 0.0
C4948 C 0.60904 0.55872 0.14806 0.0
C4949 C 0.61604 0.5521 0.13193 0.0
C4950 C 0.62864 0.56117 0.12321 0.0
C4951 C 0.6352 0.55494 0.10798 0.0
C4952 C 0.6292 0.53969 0.1013 0.0
C4953 C 0.61657 0.53066 0.1098 0.0
C4954 C 0.60996 0.53684 0.12502 0.0
C4955 C 0.58179 0.62648 0.17518 0.0
C4956 C 0.57053 0.63094 0.16217 0.0
C4957 C 0.58987 0.61072 0.17503 0.0
C4958 C 0.58638 0.59886 0.16219 0.0
C4959 C 0.57532 0.60348 0.14901 0.0
C4960 C 0.56758 0.61942 0.14893 0.0
C4961 C 0.59385 0.58152 0.16274 0.0
C4962 C 0.60183 0.57502 0.1482 0.0
C4963 C 0.59304 0.57134 0.17751 0.0
C4964 C 0.58368 0.57674 0.19289 0.0
C4965 C 0.56642 0.58108 0.19193 0.0
C4966 C 0.55775 0.58645 0.20642 0.0
C4967 C 0.56617 0.58738 0.22196 0.0
C4968 C 0.58326 0.5829 0.22307 0.0
C4969 C 0.592 0.57755 0.20862 0.0
H4970 H 0.55944 0.59154 0.23316 0.0
H4971 H 0.63429 0.53489 0.08951 0.0
H4972 H 0.49206 0.65596 0.1576 0.0
H4973 H 0.46411 0.64285 0.15415 0.0
H4974 H 0.48366 0.59588 0.17413 0.0
H4975 H 0.51136 0.60896 0.17803 0.0
H4976 H 0.45041 0.61709 0.1377 0.0
H4977 H 0.45541 0.57752 0.1997 0.0
H4978 H 0.46943 0.5793 0.22759 0.0
H4979 H 0.47167 0.63349 0.22333 0.0
H4980 H 0.45746 0.63206 0.19555 0.0
H4981 H 0.38322 0.55753 0.13886 0.0
H4982 H 0.41069 0.57186 0.13934 0.0
H4983 H 0.3961 0.59817 0.18505 0.0
H4984 H 0.36911 0.58302 0.18513 0.0
H4985 H 0.42606 0.58969 0.18875 0.0
H4986 H 0.39739 0.61718 0.14314 0.0
H4987 H 0.38149 0.61925 0.11632 0.0
H4988 H 0.42287 0.59608 0.08967 0.0
H4989 H 0.43894 0.59369 0.11638 0.0
C4990 C 0.49044 0.64278 0.16105 0.0
C4991 C 0.50386 0.63358 0.16832 0.0
C4992 C 0.47446 0.6353 0.15907 0.0
C4993 C 0.47167 0.61849 0.16424 0.0
C4994 C 0.48537 0.609 0.17046 0.0
C4995 C 0.50123 0.61649 0.17263 0.0
C4996 C 0.45436 0.61106 0.16399 0.0
C4997 C 0.44506 0.6111 0.14884 0.0
C4998 C 0.44713 0.60367 0.17866 0.0
C4999 C 0.45553 0.60465 0.19547 0.0
C5000 C 0.45884 0.58982 0.20475 0.0
C5001 C 0.46683 0.59077 0.22054 0.0
C5002 C 0.47149 0.60649 0.2272 0.0
C5003 C 0.46811 0.62131 0.21813 0.0
C5004 C 0.46011 0.62044 0.20236 0.0
C5005 C 0.38593 0.56637 0.14899 0.0
C5006 C 0.37406 0.5692 0.16194 0.0
C5007 C 0.40158 0.57468 0.1492 0.0
C5008 C 0.40545 0.58642 0.16205 0.0
C5009 C 0.39352 0.5892 0.17499 0.0
C5010 C 0.37806 0.58056 0.17502 0.0
C5011 C 0.42206 0.59543 0.16235 0.0
C5012 C 0.4313 0.59568 0.17755 0.0
C5013 C 0.4289 0.60363 0.14788 0.0
C5014 C 0.41931 0.60513 0.13179 0.0
C5015 C 0.40306 0.61243 0.13158 0.0
C5016 C 0.39402 0.61367 0.11639 0.0
C5017 C 0.40115 0.60776 0.10131 0.0
C5018 C 0.41736 0.60064 0.10137 0.0
C5019 C 0.42644 0.59935 0.11652 0.0
H5020 H 0.39413 0.60873 0.08957 0.0
H5021 H 0.47768 0.6072 0.23942 0.0
H5022 H 0.42076 0.36828 0.18896 0.0
H5023 H 0.40583 0.39543 0.18881 0.0
H5024 H 0.42537 0.40592 0.13882 0.0
H5025 H 0.43968 0.37846 0.13865 0.0
H5026 H 0.41543 0.42589 0.18838 0.0
H5027 H 0.39924 0.43126 0.11663 0.0
H5028 H 0.39218 0.41248 0.09266 0.0
H5029 H 0.37402 0.37466 0.12727 0.0
H5030 H 0.38076 0.39329 0.15143 0.0
H5031 H 0.39431 0.51011 0.17313 0.0
H5032 H 0.40686 0.48204 0.16985 0.0
H5033 H 0.35764 0.46133 0.15812 0.0
H5034 H 0.34513 0.48966 0.16065 0.0
H5035 H 0.38009 0.44548 0.14021 0.0
H5036 H 0.37513 0.4589 0.19882 0.0
H5037 H 0.3786 0.476 0.22474 0.0
H5038 H 0.43269 0.47288 0.2199 0.0
H5039 H 0.42954 0.45596 0.1938 0.0
C5040 C 0.42179 0.37635 0.17791 0.0
C5041 C 0.43129 0.37121 0.16378 0.0
C5042 C 0.41328 0.39189 0.17784 0.0
C5043 C 0.41423 0.4027 0.16371 0.0
C5044 C 0.42403 0.39768 0.14971 0.0
C5045 C 0.43232 0.38202 0.14967 0.0
C5046 C 0.40537 0.41938 0.16385 0.0
C5047 C 0.4077 0.43012 0.17783 0.0
C5048 C 0.39492 0.42485 0.1503 0.0
C5049 C 0.39067 0.41362 0.13584 0.0
C5050 C 0.39369 0.41896 0.11912 0.0
C5051 C 0.38975 0.40834 0.1055 0.0
C5052 C 0.38271 0.39236 0.10844 0.0
C5053 C 0.37954 0.387 0.12501 0.0
C5054 C 0.38343 0.39758 0.13867 0.0
C5055 C 0.3862 0.49961 0.16961 0.0
C5056 C 0.36871 0.50203 0.16731 0.0
C5057 C 0.39337 0.48354 0.16784 0.0
C5058 C 0.38314 0.46944 0.16422 0.0
C5059 C 0.36579 0.47197 0.16103 0.0
C5060 C 0.35865 0.48816 0.16247 0.0
C5061 C 0.39045 0.45204 0.16459 0.0
C5062 C 0.38783 0.4412 0.15074 0.0
C5063 C 0.40013 0.44618 0.17854 0.0
C5064 C 0.4021 0.45629 0.19428 0.0
C5065 C 0.38776 0.46196 0.20322 0.0
C5066 C 0.38967 0.4716 0.21795 0.0
C5067 C 0.40586 0.47556 0.22394 0.0
C5068 C 0.42017 0.46983 0.21523 0.0
C5069 C 0.41833 0.46019 0.20048 0.0
H5070 H 0.40731 0.48303 0.23534 0.0
H5071 H 0.37968 0.38416 0.09788 0.0
H5072 H 0.80101 0.50471 0.62641 0.0
H5073 H 0.80579 0.53175 0.61251 0.0
H5074 H 0.85819 0.53071 0.62807 0.0
H5075 H 0.85328 0.50367 0.6427 0.0
H5076 H 0.84638 0.56161 0.63112 0.0
H5077 H 0.84597 0.52118 0.58661 0.0
H5078 H 0.83554 0.49706 0.56971 0.0
H5079 H 0.79023 0.52469 0.55773 0.0
H5080 H 0.80028 0.54889 0.57476 0.0
H5081 H 0.8654 0.62777 0.57102 0.0
H5082 H 0.86486 0.60032 0.58552 0.0
H5083 H 0.81033 0.59967 0.58233 0.0
H5084 H 0.81075 0.62721 0.56803 0.0
H5085 H 0.82645 0.56902 0.57195 0.0
H5086 H 0.82752 0.60896 0.61859 0.0
H5087 H 0.83941 0.6328 0.6349 0.0
H5088 H 0.88596 0.60542 0.64153 0.0
H5089 H 0.87441 0.58149 0.62504 0.0
C5090 C 0.8136 0.51017 0.62689 0.0
C5091 C 0.82683 0.50192 0.63551 0.0
C5092 C 0.81633 0.52564 0.61884 0.0
C5093 C 0.83247 0.5331 0.61882 0.0
C5094 C 0.84566 0.52514 0.62778 0.0
C5095 C 0.84285 0.50969 0.63612 0.0
C5096 C 0.83531 0.54922 0.60945 0.0
C5097 C 0.84231 0.56312 0.61808 0.0
C5098 C 0.8299 0.5513 0.59244 0.0
C5099 C 0.82384 0.53681 0.58207 0.0
C5100 C 0.83374 0.52207 0.58046 0.0
C5101 C 0.8279 0.50839 0.57085 0.0
C5102 C 0.81222 0.50933 0.56268 0.0
C5103 C 0.80237 0.52398 0.56407 0.0
C5104 C 0.80814 0.53769 0.57369 0.0
C5105 C 0.8533 0.62178 0.57343 0.0
C5106 C 0.83811 0.62964 0.56841 0.0
C5107 C 0.85301 0.60614 0.58175 0.0
C5108 C 0.83755 0.59802 0.58505 0.0
C5109 C 0.82239 0.60575 0.5799 0.0
C5110 C 0.82265 0.62149 0.57178 0.0
C5111 C 0.83713 0.58138 0.59375 0.0
C5112 C 0.83064 0.5674 0.58494 0.0
C5113 C 0.84327 0.57918 0.61045 0.0
C5114 C 0.85017 0.59352 0.62042 0.0
C5115 C 0.84035 0.60808 0.6234 0.0
C5116 C 0.84701 0.6216 0.6327 0.0
C5117 C 0.86345 0.62065 0.6392 0.0
C5118 C 0.87324 0.60615 0.63646 0.0
C5119 C 0.86664 0.59261 0.62714 0.0
H5120 H 0.86859 0.63113 0.6464 0.0
H5121 H 0.80772 0.49873 0.55525 0.0
H5122 H 0.85548 0.49911 0.3587 0.0
H5123 H 0.86091 0.47207 0.37311 0.0
H5124 H 0.80911 0.47106 0.39061 0.0
H5125 H 0.80385 0.4981 0.37691 0.0
H5126 H 0.82827 0.46233 0.41525 0.0
H5127 H 0.82475 0.44641 0.35613 0.0
H5128 H 0.83293 0.44723 0.32598 0.0
H5129 H 0.88351 0.432 0.33902 0.0
H5130 H 0.87566 0.43129 0.36928 0.0
H5131 H 0.81213 0.37625 0.43288 0.0
H5132 H 0.813 0.40391 0.41893 0.0
H5133 H 0.86746 0.40087 0.41589 0.0
H5134 H 0.86672 0.37319 0.43001 0.0
H5135 H 0.85109 0.41203 0.38527 0.0
H5136 H 0.85246 0.42475 0.44465 0.0
H5137 H 0.84253 0.42218 0.47415 0.0
H5138 H 0.79414 0.44256 0.45993 0.0
H5139 H 0.80366 0.44493 0.43025 0.0
C5140 C 0.84528 0.49307 0.36561 0.0
C5141 C 0.82927 0.5008 0.3667 0.0
C5142 C 0.84837 0.4776 0.3738 0.0
C5143 C 0.83538 0.46942 0.3829 0.0
C5144 C 0.8194 0.47712 0.38382 0.0
C5145 C 0.81639 0.49261 0.37592 0.0
C5146 C 0.83816 0.4529 0.39158 0.0
C5147 C 0.83317 0.45134 0.40861 0.0
C5148 C 0.84496 0.43858 0.38314 0.0
C5149 C 0.84968 0.439 0.36497 0.0
C5150 C 0.83765 0.44337 0.35257 0.0
C5151 C 0.84222 0.44379 0.33547 0.0
C5152 C 0.85875 0.43973 0.33059 0.0
C5153 C 0.87072 0.43518 0.34282 0.0
C5154 C 0.86622 0.43476 0.35994 0.0
C5155 C 0.82429 0.38144 0.42923 0.0
C5156 C 0.83936 0.3726 0.43261 0.0
C5157 C 0.82477 0.39724 0.42128 0.0
C5158 C 0.8403 0.40444 0.41648 0.0
C5159 C 0.85536 0.3955 0.4195 0.0
C5160 C 0.8549 0.37976 0.42763 0.0
C5161 C 0.84073 0.42149 0.40864 0.0
C5162 C 0.84638 0.42312 0.39187 0.0
C5163 C 0.83435 0.43584 0.41724 0.0
C5164 C 0.82874 0.4349 0.43518 0.0
C5165 C 0.83967 0.42859 0.44778 0.0
C5166 C 0.83411 0.42717 0.46454 0.0
C5167 C 0.81771 0.43218 0.46891 0.0
C5168 C 0.80684 0.43868 0.45653 0.0
C5169 C 0.81232 0.44007 0.43973 0.0
H5170 H 0.81342 0.43104 0.48188 0.0
H5171 H 0.86226 0.44006 0.31735 0.0
H5172 H 0.49179 0.81678 0.3921 0.0
H5173 H 0.51919 0.82142 0.4053 0.0
H5174 H 0.5353 0.85073 0.36208 0.0
H5175 H 0.50778 0.84581 0.34846 0.0
H5176 H 0.55925 0.8282 0.37131 0.0
H5177 H 0.5262 0.87027 0.39966 0.0
H5178 H 0.50125 0.88088 0.41518 0.0
H5179 H 0.51173 0.84657 0.45606 0.0
H5180 H 0.53665 0.83561 0.44071 0.0
H5181 H 0.62241 0.86384 0.4385 0.0
H5182 H 0.595 0.86472 0.42408 0.0
H5183 H 0.59834 0.81104 0.41435 0.0
H5184 H 0.6259 0.81012 0.42859 0.0
H5185 H 0.56524 0.84965 0.43011 0.0
H5186 H 0.58062 0.80256 0.37606 0.0
H5187 H 0.60537 0.79273 0.3597 0.0
H5188 H 0.63052 0.8401 0.36877 0.0
H5189 H 0.60584 0.8503 0.38498 0.0
C5190 C 0.50107 0.8243 0.38535 0.0
C5191 C 0.49756 0.83086 0.36913 0.0
C5192 C 0.51675 0.82703 0.39301 0.0
C5193 C 0.52928 0.83654 0.38476 0.0
C5194 C 0.5258 0.84336 0.36868 0.0
C5195 C 0.51003 0.84062 0.36096 0.0
C5196 C 0.54616 0.83873 0.39281 0.0
C5197 C 0.56058 0.833 0.38412 0.0
C5198 C 0.54794 0.84515 0.40947 0.0
C5199 C 0.53326 0.85207 0.41899 0.0
C5200 C 0.52316 0.86496 0.41194 0.0
C5201 C 0.50903 0.87103 0.42071 0.0
C5202 C 0.50491 0.8644 0.43659 0.0
C5203 C 0.51496 0.85171 0.44377 0.0
C5204 C 0.52911 0.84559 0.43505 0.0
C5205 C 0.6173 0.85221 0.43332 0.0
C5206 C 0.62636 0.83692 0.43459 0.0
C5207 C 0.60161 0.85273 0.42512 0.0
C5208 C 0.5947 0.83801 0.41795 0.0
C5209 C 0.60355 0.82263 0.41954 0.0
C5210 C 0.61926 0.8221 0.42774 0.0
C5211 C 0.57828 0.83875 0.40874 0.0
C5212 C 0.56395 0.84501 0.41724 0.0
C5213 C 0.57662 0.83302 0.39182 0.0
C5214 C 0.59143 0.82712 0.38186 0.0
C5215 C 0.5914 0.8109 0.37449 0.0
C5216 C 0.60543 0.80526 0.36526 0.0
C5217 C 0.61953 0.81576 0.36324 0.0
C5218 C 0.61961 0.83196 0.3704 0.0
C5219 C 0.60561 0.83766 0.37962 0.0
H5220 H 0.63038 0.81136 0.35611 0.0
H5221 H 0.49392 0.86907 0.44333 0.0
H5222 H 0.13556 0.62642 0.43034 0.0
H5223 H 0.13599 0.59958 0.4149 0.0
H5224 H 0.19052 0.59819 0.41882 0.0
H5225 H 0.19017 0.62537 0.43367 0.0
H5226 H 0.18185 0.58957 0.38847 0.0
H5227 H 0.16296 0.57349 0.44406 0.0
H5228 H 0.14451 0.57464 0.4692 0.0
H5229 H 0.10172 0.56024 0.43888 0.0
H5230 H 0.11986 0.55936 0.41343 0.0
H5231 H 0.19931 0.50288 0.37727 0.0
H5232 H 0.19406 0.53048 0.39001 0.0
H5233 H 0.14336 0.53052 0.36973 0.0
H5234 H 0.14858 0.50273 0.35658 0.0
H5235 H 0.14734 0.5401 0.40618 0.0
H5236 H 0.16784 0.55446 0.35079 0.0
H5237 H 0.18736 0.55268 0.32648 0.0
H5238 H 0.2285 0.56936 0.35792 0.0
H5239 H 0.20927 0.57098 0.38251 0.0
C5240 C 0.14764 0.62035 0.42796 0.0
C5241 C 0.16284 0.62797 0.43325 0.0
C5242 C 0.14786 0.60496 0.41918 0.0
C5243 C 0.16327 0.59669 0.41585 0.0
C5244 C 0.17847 0.6043 0.4212 0.0
C5245 C 0.17826 0.61981 0.42975 0.0
C5246 C 0.16368 0.58026 0.4066 0.0
C5247 C 0.1744 0.57875 0.39248 0.0
C5248 C 0.15362 0.56619 0.41149 0.0
C5249 C 0.14273 0.56655 0.4268 0.0
C5250 C 0.14959 0.57069 0.44272 0.0
C5251 C 0.13919 0.57128 0.45704 0.0
C5252 C 0.12194 0.56754 0.45565 0.0
C5253 C 0.11507 0.56316 0.43993 0.0
C5254 C 0.1254 0.56263 0.42555 0.0
C5255 C 0.18699 0.50866 0.37552 0.0
C5256 C 0.17435 0.50057 0.36588 0.0
C5257 C 0.18405 0.52448 0.38278 0.0
C5258 C 0.16837 0.53254 0.38074 0.0
C5259 C 0.15556 0.52446 0.37141 0.0
C5260 C 0.15858 0.50865 0.36387 0.0
C5261 C 0.16569 0.54948 0.38835 0.0
C5262 C 0.1546 0.55105 0.40214 0.0
C5263 C 0.17554 0.56356 0.38331 0.0
C5264 C 0.18713 0.5627 0.36853 0.0
C5265 C 0.18107 0.55761 0.35256 0.0
C5266 C 0.19208 0.55665 0.33872 0.0
C5267 C 0.20916 0.56087 0.34066 0.0
C5268 C 0.21526 0.56608 0.35644 0.0
C5269 C 0.20431 0.56704 0.37033 0.0
H5270 H 0.21766 0.56013 0.32993 0.0
H5271 H 0.11391 0.56801 0.46675 0.0
H5272 H 0.49545 0.15418 0.34932 0.0
H5273 H 0.4678 0.14953 0.36273 0.0
H5274 H 0.48277 0.18118 0.40469 0.0
H5275 H 0.51031 0.18562 0.39168 0.0
H5276 H 0.46546 0.15488 0.416 0.0
H5277 H 0.45898 0.19682 0.37191 0.0
H5278 H 0.46064 0.20761 0.34263 0.0
H5279 H 0.42708 0.1682 0.3259 0.0
H5280 H 0.4254 0.15704 0.35507 0.0
H5281 H 0.37458 0.19067 0.42552 0.0
H5282 H 0.40237 0.1903 0.41171 0.0
H5283 H 0.407 0.13687 0.42222 0.0
H5284 H 0.37929 0.13715 0.43609 0.0
H5285 H 0.41422 0.17277 0.38426 0.0
H5286 H 0.44898 0.12899 0.43162 0.0
H5287 H 0.44736 0.12098 0.4618 0.0
H5288 H 0.4247 0.169 0.47364 0.0
H5289 H 0.42646 0.17741 0.44361 0.0
C5290 C 0.49293 0.15995 0.36151 0.0
C5291 C 0.50506 0.17042 0.36931 0.0
C5292 C 0.47709 0.15735 0.36912 0.0
C5293 C 0.47313 0.16519 0.38462 0.0
C5294 C 0.4855 0.17501 0.39274 0.0
C5295 C 0.50125 0.17761 0.38519 0.0
C5296 C 0.4559 0.16405 0.39213 0.0
C5297 C 0.45424 0.15863 0.409 0.0
C5298 C 0.44127 0.16926 0.38313 0.0
C5299 C 0.44222 0.17599 0.36562 0.0
C5300 C 0.45206 0.19038 0.36196 0.0
C5301 C 0.45299 0.19658 0.34539 0.0
C5302 C 0.44401 0.18857 0.3324 0.0
C5303 C 0.43405 0.17437 0.33597 0.0
C5304 C 0.4331 0.16811 0.35251 0.0
C5305 C 0.38153 0.17885 0.42489 0.0
C5306 C 0.37479 0.16395 0.43193 0.0
C5307 C 0.39735 0.17864 0.41693 0.0
C5308 C 0.40677 0.16357 0.416 0.0
C5309 C 0.40001 0.14866 0.42292 0.0
C5310 C 0.38417 0.14885 0.43083 0.0
C5311 C 0.42382 0.16356 0.40808 0.0
C5312 C 0.42542 0.16876 0.39116 0.0
C5313 C 0.43844 0.15851 0.41715 0.0
C5314 C 0.43767 0.15373 0.43532 0.0
C5315 C 0.44372 0.13787 0.44068 0.0
C5316 C 0.44278 0.13325 0.45776 0.0
C5317 C 0.43588 0.14445 0.46962 0.0
C5318 C 0.42999 0.16032 0.46444 0.0
C5319 C 0.43095 0.16501 0.44738 0.0
H5320 H 0.43512 0.14084 0.48282 0.0
H5321 H 0.44475 0.19338 0.31959 0.0
H5322 H 0.19806 0.494 0.6272 0.0
H5323 H 0.1932 0.46696 0.61333 0.0
H5324 H 0.13992 0.47027 0.62511 0.0
H5325 H 0.1449 0.49734 0.63977 0.0
H5326 H 0.15024 0.43872 0.62877 0.0
H5327 H 0.15531 0.47932 0.58466 0.0
H5328 H 0.16783 0.50312 0.56875 0.0
H5329 H 0.21287 0.47391 0.55996 0.0
H5330 H 0.20072 0.45001 0.57602 0.0
H5331 H 0.13411 0.37239 0.56816 0.0
H5332 H 0.1341 0.39991 0.58252 0.0
H5333 H 0.18872 0.4004 0.58171 0.0
H5334 H 0.18884 0.37287 0.56742 0.0
H5335 H 0.17415 0.43088 0.57114 0.0
H5336 H 0.16842 0.39084 0.61743 0.0
H5337 H 0.15452 0.36725 0.63249 0.0
H5338 H 0.10848 0.39605 0.63566 0.0
H5339 H 0.12205 0.41973 0.62041 0.0
C5340 C 0.18528 0.48902 0.62687 0.0
C5341 C 0.17181 0.49794 0.63438 0.0
C5342 C 0.1825 0.47355 0.61885 0.0
C5343 C 0.16611 0.46677 0.6177 0.0
C5344 C 0.15266 0.47533 0.62568 0.0
C5345 C 0.1555 0.49078 0.63404 0.0
C5346 C 0.16329 0.4508 0.60805 0.0
C5347 C 0.15519 0.43712 0.61605 0.0
C5348 C 0.16981 0.44861 0.59145 0.0
C5349 C 0.17713 0.46291 0.58165 0.0
C5350 C 0.16792 0.47801 0.57942 0.0
C5351 C 0.17495 0.49151 0.57037 0.0
C5352 C 0.19114 0.49003 0.56337 0.0
C5353 C 0.20033 0.47503 0.56539 0.0
C5354 C 0.19337 0.4615 0.57444 0.0
C5355 C 0.14612 0.37837 0.57104 0.0
C5356 C 0.16149 0.37046 0.56669 0.0
C5357 C 0.14608 0.39405 0.5793 0.0
C5358 C 0.16141 0.40213 0.58328 0.0
C5359 C 0.17676 0.39436 0.57876 0.0
C5360 C 0.17681 0.37862 0.57064 0.0
C5361 C 0.16155 0.41877 0.59204 0.0
C5362 C 0.16907 0.43258 0.5838 0.0
C5363 C 0.15427 0.42112 0.60826 0.0
C5364 C 0.14619 0.40698 0.61762 0.0
C5365 C 0.1553 0.39209 0.62123 0.0
C5366 C 0.14748 0.37871 0.62982 0.0
C5367 C 0.13061 0.38013 0.63498 0.0
C5368 C 0.12154 0.39496 0.63163 0.0
C5369 C 0.12928 0.40837 0.62303 0.0
H5370 H 0.12458 0.36975 0.64161 0.0
H5371 H 0.19656 0.5005 0.55638 0.0
H5372 H 0.62284 0.13988 0.56654 0.0
H5373 H 0.59523 0.13993 0.58071 0.0
H5374 H 0.6017 0.19269 0.59335 0.0
H5375 H 0.62928 0.19277 0.57912 0.0
H5376 H 0.58921 0.17354 0.6204 0.0
H5377 H 0.5773 0.18356 0.5616 0.0
H5378 H 0.57888 0.17754 0.53099 0.0
H5379 H 0.55475 0.12944 0.53892 0.0
H5380 H 0.55321 0.1351 0.56964 0.0
H5381 H 0.49324 0.19024 0.61334 0.0
H5382 H 0.52103 0.18664 0.60058 0.0
H5383 H 0.53463 0.15096 0.63967 0.0
H5384 H 0.50673 0.1547 0.65283 0.0
H5385 H 0.53743 0.16066 0.58713 0.0
H5386 H 0.57728 0.15631 0.6482 0.0
H5387 H 0.57571 0.16505 0.67819 0.0
H5388 H 0.54358 0.20681 0.66463 0.0
H5389 H 0.54516 0.19846 0.63455 0.0
C5390 C 0.61839 0.15148 0.57237 0.0
C5391 C 0.62818 0.16634 0.57168 0.0
C5392 C 0.60263 0.15148 0.58045 0.0
C5393 C 0.59642 0.16632 0.58805 0.0
C5394 C 0.6063 0.18109 0.58762 0.0
C5395 C 0.622 0.18114 0.57941 0.0
C5396 C 0.57936 0.1666 0.59592 0.0
C5397 C 0.57788 0.17063 0.61318 0.0
C5398 C 0.5646 0.16304 0.58642 0.0
C5399 C 0.56531 0.15967 0.56794 0.0
C5400 C 0.57245 0.17164 0.55683 0.0
C5401 C 0.57332 0.16831 0.53946 0.0
C5402 C 0.56699 0.15309 0.53302 0.0
C5403 C 0.55969 0.14121 0.54393 0.0
C5404 C 0.55879 0.14448 0.56133 0.0
C5405 C 0.50206 0.18156 0.61928 0.0
C5406 C 0.49774 0.17286 0.63425 0.0
C5407 C 0.51796 0.17946 0.61187 0.0
C5408 C 0.52999 0.16865 0.61922 0.0
C5409 C 0.52561 0.15954 0.63389 0.0
C5410 C 0.50963 0.16164 0.64136 0.0
C5411 C 0.54721 0.1675 0.6117 0.0
C5412 C 0.54875 0.16333 0.59447 0.0
C5413 C 0.56199 0.17129 0.62116 0.0
C5414 C 0.56118 0.17663 0.63916 0.0
C5415 C 0.56993 0.16739 0.65162 0.0
C5416 C 0.56903 0.17227 0.66863 0.0
C5417 C 0.5595 0.18643 0.67332 0.0
C5418 C 0.5509 0.1958 0.66099 0.0
C5419 C 0.55179 0.19099 0.64396 0.0
H5420 H 0.5588 0.19018 0.68649 0.0
H5421 H 0.56769 0.15052 0.51957 0.0
H5422 H 0.49119 0.84333 0.65384 0.0
H5423 H 0.46345 0.8473 0.64037 0.0
H5424 H 0.48008 0.818 0.59735 0.0
H5425 H 0.50769 0.81415 0.6105 0.0
H5426 H 0.46205 0.84474 0.58716 0.0
H5427 H 0.45658 0.79992 0.62829 0.0
H5428 H 0.45829 0.78724 0.6568 0.0
H5429 H 0.423 0.82412 0.67561 0.0
H5430 H 0.42125 0.83717 0.64725 0.0
H5431 H 0.37164 0.80821 0.57438 0.0
H5432 H 0.3993 0.80785 0.58849 0.0
H5433 H 0.4036 0.86189 0.58155 0.0
H5434 H 0.3761 0.86232 0.56734 0.0
H5435 H 0.411 0.82336 0.61699 0.0
H5436 H 0.44519 0.87121 0.5733 0.0
H5437 H 0.44375 0.88137 0.54377 0.0
H5438 H 0.42223 0.8339 0.52818 0.0
H5439 H 0.42379 0.82337 0.55756 0.0
C5440 C 0.489 0.83793 0.64142 0.0
C5441 C 0.50163 0.82829 0.63333 0.0
C5442 C 0.47312 0.84013 0.63378 0.0
C5443 C 0.46963 0.83277 0.61793 0.0
C5444 C 0.48246 0.82377 0.60958 0.0
C5445 C 0.49824 0.82152 0.61719 0.0
C5446 C 0.45249 0.83372 0.61023 0.0
C5447 C 0.45087 0.8402 0.59374 0.0
C5448 C 0.43795 0.82748 0.61867 0.0
C5449 C 0.43894 0.81963 0.63571 0.0
C5450 C 0.44929 0.80541 0.63854 0.0
C5451 C 0.45025 0.79814 0.65466 0.0
C5452 C 0.4408 0.80491 0.66802 0.0
C5453 C 0.43033 0.81892 0.66527 0.0
C5454 C 0.42935 0.82625 0.64917 0.0
C5455 C 0.37849 0.82 0.57587 0.0
C5456 C 0.37175 0.83527 0.56968 0.0
C5457 C 0.39424 0.8198 0.584 0.0
C5458 C 0.40356 0.83483 0.58597 0.0
C5459 C 0.39672 0.85012 0.58 0.0
C5460 C 0.38099 0.85033 0.57189 0.0
C5461 C 0.42057 0.83449 0.59398 0.0
C5462 C 0.42215 0.82811 0.6105 0.0
C5463 C 0.43514 0.84051 0.58545 0.0
C5464 C 0.43444 0.84659 0.56767 0.0
C5465 C 0.44022 0.86292 0.56356 0.0
C5466 C 0.43937 0.86874 0.54685 0.0
C5467 C 0.43285 0.85831 0.53412 0.0
C5468 C 0.42723 0.84199 0.53806 0.0
C5469 C 0.42807 0.8361 0.55474 0.0
H5470 H 0.43218 0.86285 0.5212 0.0
H5471 H 0.44155 0.79926 0.68049 0.0
loop_
_geom_bond_atom_site_label_1
_geom_bond_atom_site_label_2
_geom_bond_distance
_geom_bond_site_symmetry_2
_ccdc_geom_bond_type
Co0 O1 2.216 . S
Co0 O2 2.091 . S
Co0 O4 2.004 . S
Co0 O10 2.021 . S
Co0 O12 2.137 . S
Co0 O13 2.244 . S
O1 Co0 2.216 . S
O1 C8 1.247 . S
O2 Co0 2.091 . S
O2 C8 1.261 . S
C3 O12 1.247 . S
C3 O13 1.272 . S
O4 Co0 2.004 . S
O4 C9 1.259 . S
Co5 O6 2.061 . S
Co5 O11 2.052 . S
Co5 O13 2.135 . S
O6 Co5 2.061 . S
O6 C9 1.235 . S
C7 O10 1.238 . S
C7 O11 1.241 . S
C8 O1 1.247 . S
C8 O2 1.261 . S
C9 O4 1.259 . S
C9 O6 1.235 . S
O10 Co0 2.021 . S
O10 C7 1.238 . S
O11 Co5 2.052 . S
O11 C7 1.241 . S
O12 Co0 2.137 . S
O12 C3 1.247 . S
O13 Co0 2.244 . S
O13 C3 1.272 . S
O13 Co5 2.135 . S
Co14 O15 2.216 . S
Co14 O16 2.091 . S
Co14 O18 2.004 . S
Co14 O24 2.021 . S
Co14 O26 2.137 . S
Co14 O27 2.244 . S
O15 Co14 2.216 . S
O15 C22 1.247 . S
O16 Co14 2.091 . S
O16 C22 1.261 . S
C17 O26 1.247 . S
C17 O27 1.272 . S
O18 Co14 2.004 . S
O18 C23 1.259 . S
Co19 O20 2.061 . S
Co19 O25 2.052 . S
Co19 O27 2.135 . S
O20 Co19 2.061 . S
O20 C23 1.235 . S
C21 O24 1.238 . S
C21 O25 1.241 . S
C22 O15 1.247 . S
C22 O16 1.261 . S
C23 O18 1.259 . S
C23 O20 1.235 . S
O24 Co14 2.021 . S
O24 C21 1.238 . S
O25 Co19 2.052 . S
O25 C21 1.241 . S
O26 Co14 2.137 . S
O26 C17 1.247 . S
O27 Co14 2.244 . S
O27 C17 1.272 . S
O27 Co19 2.135 . S
Co28 O29 2.216 . S
Co28 O30 2.091 . S
Co28 O32 2.004 . S
Co28 O38 2.021 . S
Co28 O40 2.137 . S
Co28 O41 2.244 . S
O29 Co28 2.216 . S
O29 C36 1.247 . S
O30 Co28 2.091 . S
O30 C36 1.261 . S
C31 O40 1.247 . S
C31 O41 1.272 . S
O32 Co28 2.004 . S
O32 C37 1.259 . S
Co33 O34 2.061 . S
Co33 O39 2.052 . S
Co33 O41 2.135 . S
O34 Co33 2.061 . S
O34 C37 1.235 . S
C35 O38 1.238 . S
C35 O39 1.241 . S
C36 O29 1.247 . S
C36 O30 1.261 . S
C37 O32 1.259 . S
C37 O34 1.235 . S
O38 Co28 2.021 . S
O38 C35 1.238 . S
O39 Co33 2.052 . S
O39 C35 1.241 . S
O40 Co28 2.137 . S
O40 C31 1.247 . S
O41 Co28 2.244 . S
O41 C31 1.272 . S
O41 Co33 2.135 . S
Co42 O43 2.216 . S
Co42 O44 2.091 . S
Co42 O46 2.004 . S
Co42 O52 2.021 . S
Co42 O54 2.137 . S
Co42 O55 2.244 . S
O43 Co42 2.216 . S
O43 C50 1.247 . S
O44 Co42 2.091 . S
O44 C50 1.261 . S
C45 O54 1.247 . S
C45 O55 1.272 . S
O46 Co42 2.004 . S
O46 C51 1.259 . S
Co47 O48 2.061 . S
Co47 O53 2.052 . S
Co47 O55 2.135 . S
O48 Co47 2.061 . S
O48 C51 1.235 . S
C49 O52 1.238 . S
C49 O53 1.241 . S
C50 O43 1.247 . S
C50 O44 1.261 . S
C51 O46 1.259 . S
C51 O48 1.235 . S
O52 Co42 2.021 . S
O52 C49 1.238 . S
O53 Co47 2.052 . S
O53 C49 1.241 . S
O54 Co42 2.137 . S
O54 C45 1.247 . S
O55 Co42 2.244 . S
O55 C45 1.272 . S
O55 Co47 2.135 . S
Co56 O57 2.216 . S
Co56 O58 2.091 . S
Co56 O60 2.004 . S
Co56 O66 2.021 . S
Co56 O68 2.137 . S
Co56 O69 2.244 . S
O57 Co56 2.216 . S
O57 C64 1.247 . S
O58 Co56 2.091 . S
O58 C64 1.261 . S
C59 O68 1.247 . S
C59 O69 1.272 . S
O60 Co56 2.004 . S
O60 C65 1.259 . S
Co61 O62 2.061 . S
Co61 O67 2.052 . S
Co61 O69 2.135 . S
O62 Co61 2.061 . S
O62 C65 1.235 . S
C63 O66 1.238 . S
C63 O67 1.241 . S
C64 O57 1.247 . S
C64 O58 1.261 . S
C65 O60 1.259 . S
C65 O62 1.235 . S
O66 Co56 2.021 . S
O66 C63 1.238 . S
O67 Co61 2.052 . S
O67 C63 1.241 . S
O68 Co56 2.137 . S
O68 C59 1.247 . S
O69 Co56 2.244 . S
O69 C59 1.272 . S
O69 Co61 2.135 . S
Co70 O71 2.216 . S
Co70 O72 2.091 . S
Co70 O74 2.004 . S
Co70 O80 2.021 . S
Co70 O82 2.137 . S
Co70 O83 2.244 . S
O71 Co70 2.216 . S
O71 C78 1.247 . S
O72 Co70 2.091 . S
O72 C78 1.261 . S
C73 O82 1.247 . S
C73 O83 1.272 . S
O74 Co70 2.004 . S
O74 C79 1.259 . S
Co75 O76 2.061 . S
Co75 O81 2.052 . S
Co75 O83 2.135 . S
O76 Co75 2.061 . S
O76 C79 1.235 . S
C77 O80 1.238 . S
C77 O81 1.241 . S
C78 O71 1.247 . S
C78 O72 1.261 . S
C79 O74 1.259 . S
C79 O76 1.235 . S
O80 Co70 2.021 . S
O80 C77 1.238 . S
O81 Co75 2.052 . S
O81 C77 1.241 . S
O82 Co70 2.137 . S
O82 C73 1.247 . S
O83 Co70 2.244 . S
O83 C73 1.272 . S
O83 Co75 2.135 . S
Co84 O85 2.216 . S
Co84 O86 2.091 . S
Co84 O88 2.004 . S
Co84 O94 2.021 . S
Co84 O96 2.137 . S
Co84 O97 2.244 . S
O85 Co84 2.216 . S
O85 C92 1.247 . S
O86 Co84 2.091 . S
O86 C92 1.261 . S
C87 O96 1.247 . S
C87 O97 1.272 . S
O88 Co84 2.004 . S
O88 C93 1.259 . S
Co89 O90 2.061 . S
Co89 O95 2.052 . S
Co89 O97 2.135 . S
O90 Co89 2.061 . S
O90 C93 1.235 . S
C91 O94 1.238 . S
C91 O95 1.241 . S
C92 O85 1.247 . S
C92 O86 1.261 . S
C93 O88 1.259 . S
C93 O90 1.235 . S
O94 Co84 2.021 . S
O94 C91 1.238 . S
O95 Co89 2.052 . S
O95 C91 1.241 . S
O96 Co84 2.137 . S
O96 C87 1.247 . S
O97 Co84 2.244 . S
O97 C87 1.272 . S
O97 Co89 2.135 . S
Co98 O99 2.216 . S
Co98 O100 2.091 . S
Co98 O102 2.004 . S
Co98 O108 2.021 . S
Co98 O110 2.137 . S
Co98 O111 2.244 . S
O99 Co98 2.216 . S
O99 C106 1.247 . S
O100 Co98 2.091 . S
O100 C106 1.261 . S
C101 O110 1.247 . S
C101 O111 1.272 . S
O102 Co98 2.004 . S
O102 C107 1.259 . S
Co103 O104 2.061 . S
Co103 O109 2.052 . S
Co103 O111 2.135 . S
O104 Co103 2.061 . S
O104 C107 1.235 . S
C105 O108 1.238 . S
C105 O109 1.241 . S
C106 O99 1.247 . S
C106 O100 1.261 . S
C107 O102 1.259 . S
C107 O104 1.235 . S
O108 Co98 2.021 . S
O108 C105 1.238 . S
O109 Co103 2.052 . S
O109 C105 1.241 . S
O110 Co98 2.137 . S
O110 C101 1.247 . S
O111 Co98 2.244 . S
O111 C101 1.272 . S
O111 Co103 2.135 . S
Co112 O113 2.216 . S
Co112 O114 2.091 . S
Co112 O116 2.004 . S
Co112 O122 2.021 . S
Co112 O124 2.137 . S
Co112 O125 2.244 . S
O113 Co112 2.216 . S
O113 C120 1.247 . S
O114 Co112 2.091 . S
O114 C120 1.261 . S
C115 O124 1.247 . S
C115 O125 1.272 . S
O116 Co112 2.004 . S
O116 C121 1.259 . S
Co117 O118 2.061 . S
Co117 O123 2.052 . S
Co117 O125 2.135 . S
O118 Co117 2.061 . S
O118 C121 1.235 . S
C119 O122 1.238 . S
C119 O123 1.241 . S
C120 O113 1.247 . S
C120 O114 1.261 . S
C121 O116 1.259 . S
C121 O118 1.235 . S
O122 Co112 2.021 . S
O122 C119 1.238 . S
O123 Co117 2.052 . S
O123 C119 1.241 . S
O124 Co112 2.137 . S
O124 C115 1.247 . S
O125 Co112 2.244 . S
O125 C115 1.272 . S
O125 Co117 2.135 . S
Co126 O127 2.216 . S
Co126 O128 2.091 . S
Co126 O130 2.004 . S
Co126 O136 2.021 . S
Co126 O138 2.137 . S
Co126 O139 2.244 . S
O127 Co126 2.216 . S
O127 C134 1.247 . S
O128 Co126 2.091 . S
O128 C134 1.261 . S
C129 O138 1.247 . S
C129 O139 1.272 . S
O130 Co126 2.004 . S
O130 C135 1.259 . S
Co131 O132 2.061 . S
Co131 O137 2.052 . S
Co131 O139 2.135 . S
O132 Co131 2.061 . S
O132 C135 1.235 . S
C133 O136 1.238 . S
C133 O137 1.241 . S
C134 O127 1.247 . S
C134 O128 1.261 . S
C135 O130 1.259 . S
C135 O132 1.235 . S
O136 Co126 2.021 . S
O136 C133 1.238 . S
O137 Co131 2.052 . S
O137 C133 1.241 . S
O138 Co126 2.137 . S
O138 C129 1.247 . S
O139 Co126 2.244 . S
O139 C129 1.272 . S
O139 Co131 2.135 . S
Co140 O141 2.216 . S
Co140 O142 2.091 . S
Co140 O144 2.004 . S
Co140 O150 2.021 . S
Co140 O152 2.137 . S
Co140 O153 2.244 . S
O141 Co140 2.216 . S
O141 C148 1.247 . S
O142 Co140 2.091 . S
O142 C148 1.261 . S
C143 O152 1.247 . S
C143 O153 1.272 . S
O144 Co140 2.004 . S
O144 C149 1.259 . S
Co145 O146 2.061 . S
Co145 O151 2.052 . S
Co145 O153 2.135 . S
O146 Co145 2.061 . S
O146 C149 1.235 . S
C147 O150 1.238 . S
C147 O151 1.241 . S
C148 O141 1.247 . S
C148 O142 1.261 . S
C149 O144 1.259 . S
C149 O146 1.235 . S
O150 Co140 2.021 . S
O150 C147 1.238 . S
O151 Co145 2.052 . S
O151 C147 1.241 . S
O152 Co140 2.137 . S
O152 C143 1.247 . S
O153 Co140 2.244 . S
O153 C143 1.272 . S
O153 Co145 2.135 . S
Co154 O155 2.216 . S
Co154 O156 2.091 . S
Co154 O158 2.004 . S
Co154 O164 2.021 . S
Co154 O166 2.137 . S
Co154 O167 2.244 . S
O155 Co154 2.216 . S
O155 C162 1.247 . S
O156 Co154 2.091 . S
O156 C162 1.261 . S
C157 O166 1.247 . S
C157 O167 1.272 . S
O158 Co154 2.004 . S
O158 C163 1.259 . S
Co159 O160 2.061 . S
Co159 O165 2.052 . S
Co159 O167 2.135 . S
O160 Co159 2.061 . S
O160 C163 1.235 . S
C161 O164 1.238 . S
C161 O165 1.241 . S
C162 O155 1.247 . S
C162 O156 1.261 . S
C163 O158 1.259 . S
C163 O160 1.235 . S
O164 Co154 2.021 . S
O164 C161 1.238 . S
O165 Co159 2.052 . S
O165 C161 1.241 . S
O166 Co154 2.137 . S
O166 C157 1.247 . S
O167 Co154 2.244 . S
O167 C157 1.272 . S
O167 Co159 2.135 . S
Co168 O169 2.216 . S
Co168 O170 2.091 . S
Co168 O172 2.004 . S
Co168 O178 2.021 . S
Co168 O180 2.137 . S
Co168 O181 2.244 . S
O169 Co168 2.216 . S
O169 C176 1.247 . S
O170 Co168 2.091 . S
O170 C176 1.261 . S
C171 O180 1.247 . S
C171 O181 1.272 . S
O172 Co168 2.004 . S
O172 C177 1.259 . S
Co173 O174 2.061 . S
Co173 O179 2.052 . S
Co173 O181 2.135 . S
O174 Co173 2.061 . S
O174 C177 1.235 . S
C175 O178 1.238 . S
C175 O179 1.241 . S
C176 O169 1.247 . S
C176 O170 1.261 . S
C177 O172 1.259 . S
C177 O174 1.235 . S
O178 Co168 2.021 . S
O178 C175 1.238 . S
O179 Co173 2.052 . S
O179 C175 1.241 . S
O180 Co168 2.137 . S
O180 C171 1.247 . S
O181 Co168 2.244 . S
O181 C171 1.272 . S
O181 Co173 2.135 . S
Co182 O183 2.216 . S
Co182 O184 2.091 . S
Co182 O186 2.004 . S
Co182 O192 2.021 . S
Co182 O194 2.137 . S
Co182 O195 2.244 . S
O183 Co182 2.216 . S
O183 C190 1.247 . S
O184 Co182 2.091 . S
O184 C190 1.261 . S
C185 O194 1.247 . S
C185 O195 1.272 . S
O186 Co182 2.004 . S
O186 C191 1.259 . S
Co187 O188 2.061 . S
Co187 O193 2.052 . S
Co187 O195 2.135 . S
O188 Co187 2.061 . S
O188 C191 1.235 . S
C189 O192 1.238 . S
C189 O193 1.241 . S
C190 O183 1.247 . S
C190 O184 1.261 . S
C191 O186 1.259 . S
C191 O188 1.235 . S
O192 Co182 2.021 . S
O192 C189 1.238 . S
O193 Co187 2.052 . S
O193 C189 1.241 . S
O194 Co182 2.137 . S
O194 C185 1.247 . S
O195 Co182 2.244 . S
O195 C185 1.272 . S
O195 Co187 2.135 . S
Co196 O197 2.216 . S
Co196 O198 2.091 . S
Co196 O200 2.004 . S
Co196 O206 2.021 . S
Co196 O208 2.137 . S
Co196 O209 2.244 . S
O197 Co196 2.216 . S
O197 C204 1.247 . S
O198 Co196 2.091 . S
O198 C204 1.261 . S
C199 O208 1.247 . S
C199 O209 1.272 . S
O200 Co196 2.004 . S
O200 C205 1.259 . S
Co201 O202 2.061 . S
Co201 O207 2.052 . S
Co201 O209 2.135 . S
O202 Co201 2.061 . S
O202 C205 1.235 . S
C203 O206 1.238 . S
C203 O207 1.241 . S
C204 O197 1.247 . S
C204 O198 1.261 . S
C205 O200 1.259 . S
C205 O202 1.235 . S
O206 Co196 2.021 . S
O206 C203 1.238 . S
O207 Co201 2.052 . S
O207 C203 1.241 . S
O208 Co196 2.137 . S
O208 C199 1.247 . S
O209 Co196 2.244 . S
O209 C199 1.272 . S
O209 Co201 2.135 . S
Co210 O211 2.216 . S
Co210 O212 2.091 . S
Co210 O214 2.004 . S
Co210 O220 2.021 . S
Co210 O222 2.137 . S
Co210 O223 2.244 . S
O211 Co210 2.216 . S
O211 C218 1.247 . S
O212 Co210 2.091 . S
O212 C218 1.261 . S
C213 O222 1.247 . S
C213 O223 1.272 . S
O214 Co210 2.004 . S
O214 C219 1.259 . S
Co215 O216 2.061 . S
Co215 O221 2.052 . S
Co215 O223 2.135 . S
O216 Co215 2.061 . S
O216 C219 1.235 . S
C217 O220 1.238 . S
C217 O221 1.241 . S
C218 O211 1.247 . S
C218 O212 1.261 . S
C219 O214 1.259 . S
C219 O216 1.235 . S
O220 Co210 2.021 . S
O220 C217 1.238 . S
O221 Co215 2.052 . S
O221 C217 1.241 . S
O222 Co210 2.137 . S
O222 C213 1.247 . S
O223 Co210 2.244 . S
O223 C213 1.272 . S
O223 Co215 2.135 . S
Co224 O225 2.216 . S
Co224 O226 2.091 . S
Co224 O228 2.004 . S
Co224 O234 2.021 . S
Co224 O236 2.137 . S
Co224 O237 2.244 . S
O225 Co224 2.216 . S
O225 C232 1.247 . S
O226 Co224 2.091 . S
O226 C232 1.261 . S
C227 O236 1.247 . S
C227 O237 1.272 . S
O228 Co224 2.004 . S
O228 C233 1.259 . S
Co229 O230 2.061 . S
Co229 O235 2.052 . S
Co229 O237 2.135 . S
O230 Co229 2.061 . S
O230 C233 1.235 . S
C231 O234 1.238 . S
C231 O235 1.241 . S
C232 O225 1.247 . S
C232 O226 1.261 . S
C233 O228 1.259 . S
C233 O230 1.235 . S
O234 Co224 2.021 . S
O234 C231 1.238 . S
O235 Co229 2.052 . S
O235 C231 1.241 . S
O236 Co224 2.137 . S
O236 C227 1.247 . S
O237 Co224 2.244 . S
O237 C227 1.272 . S
O237 Co229 2.135 . S
Co238 O239 2.216 . S
Co238 O240 2.091 . S
Co238 O242 2.004 . S
Co238 O248 2.021 . S
Co238 O250 2.137 . S
Co238 O251 2.244 . S
O239 Co238 2.216 . S
O239 C246 1.247 . S
O240 Co238 2.091 . S
O240 C246 1.261 . S
C241 O250 1.247 . S
C241 O251 1.272 . S
O242 Co238 2.004 . S
O242 C247 1.259 . S
Co243 O244 2.061 . S
Co243 O249 2.052 . S
Co243 O251 2.135 . S
O244 Co243 2.061 . S
O244 C247 1.235 . S
C245 O248 1.238 . S
C245 O249 1.241 . S
C246 O239 1.247 . S
C246 O240 1.261 . S
C247 O242 1.259 . S
C247 O244 1.235 . S
O248 Co238 2.021 . S
O248 C245 1.238 . S
O249 Co243 2.052 . S
O249 C245 1.241 . S
O250 Co238 2.137 . S
O250 C241 1.247 . S
O251 Co238 2.244 . S
O251 C241 1.272 . S
O251 Co243 2.135 . S
Co252 O253 2.216 . S
Co252 O254 2.091 . S
Co252 O256 2.004 . S
Co252 O262 2.021 . S
Co252 O264 2.137 . S
Co252 O265 2.244 . S
O253 Co252 2.216 . S
O253 C260 1.247 . S
O254 Co252 2.091 . S
O254 C260 1.261 . S
C255 O264 1.247 . S
C255 O265 1.272 . S
O256 Co252 2.004 . S
O256 C261 1.259 . S
Co257 O258 2.061 . S
Co257 O263 2.052 . S
Co257 O265 2.135 . S
O258 Co257 2.061 . S
O258 C261 1.235 . S
C259 O262 1.238 . S
C259 O263 1.241 . S
C260 O253 1.247 . S
C260 O254 1.261 . S
C261 O256 1.259 . S
C261 O258 1.235 . S
O262 Co252 2.021 . S
O262 C259 1.238 . S
O263 Co257 2.052 . S
O263 C259 1.241 . S
O264 Co252 2.137 . S
O264 C255 1.247 . S
O265 Co252 2.244 . S
O265 C255 1.272 . S
O265 Co257 2.135 . S
Co266 O267 2.216 . S
Co266 O268 2.091 . S
Co266 O270 2.004 . S
Co266 O276 2.021 . S
Co266 O278 2.137 . S
Co266 O279 2.244 . S
O267 Co266 2.216 . S
O267 C274 1.247 . S
O268 Co266 2.091 . S
O268 C274 1.261 . S
C269 O278 1.247 . S
C269 O279 1.272 . S
O270 Co266 2.004 . S
O270 C275 1.259 . S
Co271 O272 2.061 . S
Co271 O277 2.052 . S
Co271 O279 2.135 . S
O272 Co271 2.061 . S
O272 C275 1.235 . S
C273 O276 1.238 . S
C273 O277 1.241 . S
C274 O267 1.247 . S
C274 O268 1.261 . S
C275 O270 1.259 . S
C275 O272 1.235 . S
O276 Co266 2.021 . S
O276 C273 1.238 . S
O277 Co271 2.052 . S
O277 C273 1.241 . S
O278 Co266 2.137 . S
O278 C269 1.247 . S
O279 Co266 2.244 . S
O279 C269 1.272 . S
O279 Co271 2.135 . S
Co280 O281 2.216 . S
Co280 O282 2.091 . S
Co280 O284 2.004 . S
Co280 O290 2.021 . S
Co280 O292 2.137 . S
Co280 O293 2.244 . S
O281 Co280 2.216 . S
O281 C288 1.247 . S
O282 Co280 2.091 . S
O282 C288 1.261 . S
C283 O292 1.247 . S
C283 O293 1.272 . S
O284 Co280 2.004 . S
O284 C289 1.259 . S
Co285 O286 2.061 . S
Co285 O291 2.052 . S
Co285 O293 2.135 . S
O286 Co285 2.061 . S
O286 C289 1.235 . S
C287 O290 1.238 . S
C287 O291 1.241 . S
C288 O281 1.247 . S
C288 O282 1.261 . S
C289 O284 1.259 . S
C289 O286 1.235 . S
O290 Co280 2.021 . S
O290 C287 1.238 . S
O291 Co285 2.052 . S
O291 C287 1.241 . S
O292 Co280 2.137 . S
O292 C283 1.247 . S
O293 Co280 2.244 . S
O293 C283 1.272 . S
O293 Co285 2.135 . S
Co294 O295 2.216 . S
Co294 O296 2.091 . S
Co294 O298 2.004 . S
Co294 O304 2.021 . S
Co294 O306 2.137 . S
Co294 O307 2.244 . S
O295 Co294 2.216 . S
O295 C302 1.247 . S
O296 Co294 2.091 . S
O296 C302 1.261 . S
C297 O306 1.247 . S
C297 O307 1.272 . S
O298 Co294 2.004 . S
O298 C303 1.259 . S
Co299 O300 2.061 . S
Co299 O305 2.052 . S
Co299 O307 2.135 . S
O300 Co299 2.061 . S
O300 C303 1.235 . S
C301 O304 1.238 . S
C301 O305 1.241 . S
C302 O295 1.247 . S
C302 O296 1.261 . S
C303 O298 1.259 . S
C303 O300 1.235 . S
O304 Co294 2.021 . S
O304 C301 1.238 . S
O305 Co299 2.052 . S
O305 C301 1.241 . S
O306 Co294 2.137 . S
O306 C297 1.247 . S
O307 Co294 2.244 . S
O307 C297 1.272 . S
O307 Co299 2.135 . S
Co308 O309 2.216 . S
Co308 O310 2.091 . S
Co308 O312 2.004 . S
Co308 O318 2.021 . S
Co308 O320 2.137 . S
Co308 O321 2.244 . S
O309 Co308 2.216 . S
O309 C316 1.247 . S
O310 Co308 2.091 . S
O310 C316 1.261 . S
C311 O320 1.247 . S
C311 O321 1.272 . S
O312 Co308 2.004 . S
O312 C317 1.259 . S
Co313 O314 2.061 . S
Co313 O319 2.052 . S
Co313 O321 2.135 . S
O314 Co313 2.061 . S
O314 C317 1.235 . S
C315 O318 1.238 . S
C315 O319 1.241 . S
C316 O309 1.247 . S
C316 O310 1.261 . S
C317 O312 1.259 . S
C317 O314 1.235 . S
O318 Co308 2.021 . S
O318 C315 1.238 . S
O319 Co313 2.052 . S
O319 C315 1.241 . S
O320 Co308 2.137 . S
O320 C311 1.247 . S
O321 Co308 2.244 . S
O321 C311 1.272 . S
O321 Co313 2.135 . S
Co322 O323 2.216 . S
Co322 O324 2.091 . S
Co322 O326 2.004 . S
Co322 O332 2.021 . S
Co322 O334 2.137 . S
Co322 O335 2.244 . S
O323 Co322 2.216 . S
O323 C330 1.247 . S
O324 Co322 2.091 . S
O324 C330 1.261 . S
C325 O334 1.247 . S
C325 O335 1.272 . S
O326 Co322 2.004 . S
O326 C331 1.259 . S
Co327 O328 2.061 . S
Co327 O333 2.052 . S
Co327 O335 2.135 . S
O328 Co327 2.061 . S
O328 C331 1.235 . S
C329 O332 1.238 . S
C329 O333 1.241 . S
C330 O323 1.247 . S
C330 O324 1.261 . S
C331 O326 1.259 . S
C331 O328 1.235 . S
O332 Co322 2.021 . S
O332 C329 1.238 . S
O333 Co327 2.052 . S
O333 C329 1.241 . S
O334 Co322 2.137 . S
O334 C325 1.247 . S
O335 Co322 2.244 . S
O335 C325 1.272 . S
O335 Co327 2.135 . S
Co336 O337 2.216 . S
Co336 O338 2.091 . S
Co336 O340 2.004 . S
Co336 O346 2.021 . S
Co336 O348 2.137 . S
Co336 O349 2.244 . S
O337 Co336 2.216 . S
O337 C344 1.247 . S
O338 Co336 2.091 . S
O338 C344 1.261 . S
C339 O348 1.247 . S
C339 O349 1.272 . S
O340 Co336 2.004 . S
O340 C345 1.259 . S
Co341 O342 2.061 . S
Co341 O347 2.052 . S
Co341 O349 2.135 . S
O342 Co341 2.061 . S
O342 C345 1.235 . S
C343 O346 1.238 . S
C343 O347 1.241 . S
C344 O337 1.247 . S
C344 O338 1.261 . S
C345 O340 1.259 . S
C345 O342 1.235 . S
O346 Co336 2.021 . S
O346 C343 1.238 . S
O347 Co341 2.052 . S
O347 C343 1.241 . S
O348 Co336 2.137 . S
O348 C339 1.247 . S
O349 Co336 2.244 . S
O349 C339 1.272 . S
O349 Co341 2.135 . S
Co350 O351 2.216 . S
Co350 O352 2.091 . S
Co350 O354 2.004 . S
Co350 O360 2.021 . S
Co350 O362 2.137 . S
Co350 O363 2.244 . S
O351 Co350 2.216 . S
O351 C358 1.247 . S
O352 Co350 2.091 . S
O352 C358 1.261 . S
C353 O362 1.247 . S
C353 O363 1.272 . S
O354 Co350 2.004 . S
O354 C359 1.259 . S
Co355 O356 2.061 . S
Co355 O361 2.052 . S
Co355 O363 2.135 . S
O356 Co355 2.061 . S
O356 C359 1.235 . S
C357 O360 1.238 . S
C357 O361 1.241 . S
C358 O351 1.247 . S
C358 O352 1.261 . S
C359 O354 1.259 . S
C359 O356 1.235 . S
O360 Co350 2.021 . S
O360 C357 1.238 . S
O361 Co355 2.052 . S
O361 C357 1.241 . S
O362 Co350 2.137 . S
O362 C353 1.247 . S
O363 Co350 2.244 . S
O363 C353 1.272 . S
O363 Co355 2.135 . S
Co364 O365 2.216 . S
Co364 O366 2.091 . S
Co364 O368 2.004 . S
Co364 O374 2.021 . S
Co364 O376 2.137 . S
Co364 O377 2.244 . S
O365 Co364 2.216 . S
O365 C372 1.247 . S
O366 Co364 2.091 . S
O366 C372 1.261 . S
C367 O376 1.247 . S
C367 O377 1.272 . S
O368 Co364 2.004 . S
O368 C373 1.259 . S
Co369 O370 2.061 . S
Co369 O375 2.052 . S
Co369 O377 2.135 . S
O370 Co369 2.061 . S
O370 C373 1.235 . S
C371 O374 1.238 . S
C371 O375 1.241 . S
C372 O365 1.247 . S
C372 O366 1.261 . S
C373 O368 1.259 . S
C373 O370 1.235 . S
O374 Co364 2.021 . S
O374 C371 1.238 . S
O375 Co369 2.052 . S
O375 C371 1.241 . S
O376 Co364 2.137 . S
O376 C367 1.247 . S
O377 Co364 2.244 . S
O377 C367 1.272 . S
O377 Co369 2.135 . S
Co378 O379 2.216 . S
Co378 O380 2.091 . S
Co378 O382 2.004 . S
Co378 O388 2.021 . S
Co378 O390 2.137 . S
Co378 O391 2.244 . S
O379 Co378 2.216 . S
O379 C386 1.247 . S
O380 Co378 2.091 . S
O380 C386 1.261 . S
C381 O390 1.247 . S
C381 O391 1.272 . S
O382 Co378 2.004 . S
O382 C387 1.259 . S
Co383 O384 2.061 . S
Co383 O389 2.052 . S
Co383 O391 2.135 . S
O384 Co383 2.061 . S
O384 C387 1.235 . S
C385 O388 1.238 . S
C385 O389 1.241 . S
C386 O379 1.247 . S
C386 O380 1.261 . S
C387 O382 1.259 . S
C387 O384 1.235 . S
O388 Co378 2.021 . S
O388 C385 1.238 . S
O389 Co383 2.052 . S
O389 C385 1.241 . S
O390 Co378 2.137 . S
O390 C381 1.247 . S
O391 Co378 2.244 . S
O391 C381 1.272 . S
O391 Co383 2.135 . S
Co392 O393 2.216 . S
Co392 O394 2.091 . S
Co392 O396 2.004 . S
Co392 O402 2.021 . S
Co392 O404 2.137 . S
Co392 O405 2.244 . S
O393 Co392 2.216 . S
O393 C400 1.247 . S
O394 Co392 2.091 . S
O394 C400 1.261 . S
C395 O404 1.247 . S
C395 O405 1.272 . S
O396 Co392 2.004 . S
O396 C401 1.259 . S
Co397 O398 2.061 . S
Co397 O403 2.052 . S
Co397 O405 2.135 . S
O398 Co397 2.061 . S
O398 C401 1.235 . S
C399 O402 1.238 . S
C399 O403 1.241 . S
C400 O393 1.247 . S
C400 O394 1.261 . S
C401 O396 1.259 . S
C401 O398 1.235 . S
O402 Co392 2.021 . S
O402 C399 1.238 . S
O403 Co397 2.052 . S
O403 C399 1.241 . S
O404 Co392 2.137 . S
O404 C395 1.247 . S
O405 Co392 2.244 . S
O405 C395 1.272 . S
O405 Co397 2.135 . S
Co406 O407 2.216 . S
Co406 O408 2.091 . S
Co406 O410 2.004 . S
Co406 O416 2.021 . S
Co406 O418 2.137 . S
Co406 O419 2.244 . S
O407 Co406 2.216 . S
O407 C414 1.247 . S
O408 Co406 2.091 . S
O408 C414 1.261 . S
C409 O418 1.247 . S
C409 O419 1.272 . S
O410 Co406 2.004 . S
O410 C415 1.259 . S
Co411 O412 2.061 . S
Co411 O417 2.052 . S
Co411 O419 2.135 . S
O412 Co411 2.061 . S
O412 C415 1.235 . S
C413 O416 1.238 . S
C413 O417 1.241 . S
C414 O407 1.247 . S
C414 O408 1.261 . S
C415 O410 1.259 . S
C415 O412 1.235 . S
O416 Co406 2.021 . S
O416 C413 1.238 . S
O417 Co411 2.052 . S
O417 C413 1.241 . S
O418 Co406 2.137 . S
O418 C409 1.247 . S
O419 Co406 2.244 . S
O419 C409 1.272 . S
O419 Co411 2.135 . S
Co420 O421 2.216 . S
Co420 O422 2.091 . S
Co420 O424 2.004 . S
Co420 O430 2.021 . S
Co420 O432 2.137 . S
Co420 O433 2.244 . S
O421 Co420 2.216 . S
O421 C428 1.247 . S
O422 Co420 2.091 . S
O422 C428 1.261 . S
C423 O432 1.247 . S
C423 O433 1.272 . S
O424 Co420 2.004 . S
O424 C429 1.259 . S
Co425 O426 2.061 . S
Co425 O431 2.052 . S
Co425 O433 2.135 . S
O426 Co425 2.061 . S
O426 C429 1.235 . S
C427 O430 1.238 . S
C427 O431 1.241 . S
C428 O421 1.247 . S
C428 O422 1.261 . S
C429 O424 1.259 . S
C429 O426 1.235 . S
O430 Co420 2.021 . S
O430 C427 1.238 . S
O431 Co425 2.052 . S
O431 C427 1.241 . S
O432 Co420 2.137 . S
O432 C423 1.247 . S
O433 Co420 2.244 . S
O433 C423 1.272 . S
O433 Co425 2.135 . S
Co434 O435 2.216 . S
Co434 O436 2.091 . S
Co434 O438 2.004 . S
Co434 O444 2.021 . S
Co434 O446 2.137 . S
Co434 O447 2.244 . S
O435 Co434 2.216 . S
O435 C442 1.247 . S
O436 Co434 2.091 . S
O436 C442 1.261 . S
C437 O446 1.247 . S
C437 O447 1.272 . S
O438 Co434 2.004 . S
O438 C443 1.259 . S
Co439 O440 2.061 . S
Co439 O445 2.052 . S
Co439 O447 2.135 . S
O440 Co439 2.061 . S
O440 C443 1.235 . S
C441 O444 1.238 . S
C441 O445 1.241 . S
C442 O435 1.247 . S
C442 O436 1.261 . S
C443 O438 1.259 . S
C443 O440 1.235 . S
O444 Co434 2.021 . S
O444 C441 1.238 . S
O445 Co439 2.052 . S
O445 C441 1.241 . S
O446 Co434 2.137 . S
O446 C437 1.247 . S
O447 Co434 2.244 . S
O447 C437 1.272 . S
O447 Co439 2.135 . S
Co448 O449 2.216 . S
Co448 O450 2.091 . S
Co448 O452 2.004 . S
Co448 O458 2.021 . S
Co448 O460 2.137 . S
Co448 O461 2.244 . S
O449 Co448 2.216 . S
O449 C456 1.247 . S
O450 Co448 2.091 . S
O450 C456 1.261 . S
C451 O460 1.247 . S
C451 O461 1.272 . S
O452 Co448 2.004 . S
O452 C457 1.259 . S
Co453 O454 2.061 . S
Co453 O459 2.052 . S
Co453 O461 2.135 . S
O454 Co453 2.061 . S
O454 C457 1.235 . S
C455 O458 1.238 . S
C455 O459 1.241 . S
C456 O449 1.247 . S
C456 O450 1.261 . S
C457 O452 1.259 . S
C457 O454 1.235 . S
O458 Co448 2.021 . S
O458 C455 1.238 . S
O459 Co453 2.052 . S
O459 C455 1.241 . S
O460 Co448 2.137 . S
O460 C451 1.247 . S
O461 Co448 2.244 . S
O461 C451 1.272 . S
O461 Co453 2.135 . S
Co462 O463 2.216 . S
Co462 O464 2.091 . S
Co462 O466 2.004 . S
Co462 O472 2.021 . S
Co462 O474 2.137 . S
Co462 O475 2.244 . S
O463 Co462 2.216 . S
O463 C470 1.247 . S
O464 Co462 2.091 . S
O464 C470 1.261 . S
C465 O474 1.247 . S
C465 O475 1.272 . S
O466 Co462 2.004 . S
O466 C471 1.259 . S
Co467 O468 2.061 . S
Co467 O473 2.052 . S
Co467 O475 2.135 . S
O468 Co467 2.061 . S
O468 C471 1.235 . S
C469 O472 1.238 . S
C469 O473 1.241 . S
C470 O463 1.247 . S
C470 O464 1.261 . S
C471 O466 1.259 . S
C471 O468 1.235 . S
O472 Co462 2.021 . S
O472 C469 1.238 . S
O473 Co467 2.052 . S
O473 C469 1.241 . S
O474 Co462 2.137 . S
O474 C465 1.247 . S
O475 Co462 2.244 . S
O475 C465 1.272 . S
O475 Co467 2.135 . S
Co476 O477 2.216 . S
Co476 O478 2.091 . S
Co476 O480 2.004 . S
Co476 O486 2.021 . S
Co476 O488 2.137 . S
Co476 O489 2.244 . S
O477 Co476 2.216 . S
O477 C484 1.247 . S
O478 Co476 2.091 . S
O478 C484 1.261 . S
C479 O488 1.247 . S
C479 O489 1.272 . S
O480 Co476 2.004 . S
O480 C485 1.259 . S
Co481 O482 2.061 . S
Co481 O487 2.052 . S
Co481 O489 2.135 . S
O482 Co481 2.061 . S
O482 C485 1.235 . S
C483 O486 1.238 . S
C483 O487 1.241 . S
C484 O477 1.247 . S
C484 O478 1.261 . S
C485 O480 1.259 . S
C485 O482 1.235 . S
O486 Co476 2.021 . S
O486 C483 1.238 . S
O487 Co481 2.052 . S
O487 C483 1.241 . S
O488 Co476 2.137 . S
O488 C479 1.247 . S
O489 Co476 2.244 . S
O489 C479 1.272 . S
O489 Co481 2.135 . S
Co490 O491 2.216 . S
Co490 O492 2.091 . S
Co490 O494 2.004 . S
Co490 O500 2.021 . S
Co490 O502 2.137 . S
Co490 O503 2.244 . S
O491 Co490 2.216 . S
O491 C498 1.247 . S
O492 Co490 2.091 . S
O492 C498 1.261 . S
C493 O502 1.247 . S
C493 O503 1.272 . S
O494 Co490 2.004 . S
O494 C499 1.259 . S
Co495 O496 2.061 . S
Co495 O501 2.052 . S
Co495 O503 2.135 . S
O496 Co495 2.061 . S
O496 C499 1.235 . S
C497 O500 1.238 . S
C497 O501 1.241 . S
C498 O491 1.247 . S
C498 O492 1.261 . S
C499 O494 1.259 . S
C499 O496 1.235 . S
O500 Co490 2.021 . S
O500 C497 1.238 . S
O501 Co495 2.052 . S
O501 C497 1.241 . S
O502 Co490 2.137 . S
O502 C493 1.247 . S
O503 Co490 2.244 . S
O503 C493 1.272 . S
O503 Co495 2.135 . S
Co504 O505 2.216 . S
Co504 O506 2.091 . S
Co504 O508 2.004 . S
Co504 O514 2.021 . S
Co504 O516 2.137 . S
Co504 O517 2.244 . S
O505 Co504 2.216 . S
O505 C512 1.247 . S
O506 Co504 2.091 . S
O506 C512 1.261 . S
C507 O516 1.247 . S
C507 O517 1.272 . S
O508 Co504 2.004 . S
O508 C513 1.259 . S
Co509 O510 2.061 . S
Co509 O515 2.052 . S
Co509 O517 2.135 . S
O510 Co509 2.061 . S
O510 C513 1.235 . S
C511 O514 1.238 . S
C511 O515 1.241 . S
C512 O505 1.247 . S
C512 O506 1.261 . S
C513 O508 1.259 . S
C513 O510 1.235 . S
O514 Co504 2.021 . S
O514 C511 1.238 . S
O515 Co509 2.052 . S
O515 C511 1.241 . S
O516 Co504 2.137 . S
O516 C507 1.247 . S
O517 Co504 2.244 . S
O517 C507 1.272 . S
O517 Co509 2.135 . S
Co518 O519 2.216 . S
Co518 O520 2.091 . S
Co518 O522 2.004 . S
Co518 O528 2.021 . S
Co518 O530 2.137 . S
Co518 O531 2.244 . S
O519 Co518 2.216 . S
O519 C526 1.247 . S
O520 Co518 2.091 . S
O520 C526 1.261 . S
C521 O530 1.247 . S
C521 O531 1.272 . S
O522 Co518 2.004 . S
O522 C527 1.259 . S
Co523 O524 2.061 . S
Co523 O529 2.052 . S
Co523 O531 2.135 . S
O524 Co523 2.061 . S
O524 C527 1.235 . S
C525 O528 1.238 . S
C525 O529 1.241 . S
C526 O519 1.247 . S
C526 O520 1.261 . S
C527 O522 1.259 . S
C527 O524 1.235 . S
O528 Co518 2.021 . S
O528 C525 1.238 . S
O529 Co523 2.052 . S
O529 C525 1.241 . S
O530 Co518 2.137 . S
O530 C521 1.247 . S
O531 Co518 2.244 . S
O531 C521 1.272 . S
O531 Co523 2.135 . S
Co532 O533 2.216 . S
Co532 O534 2.091 . S
Co532 O536 2.004 . S
Co532 O542 2.021 . S
Co532 O544 2.137 . S
Co532 O545 2.244 . S
O533 Co532 2.216 . S
O533 C540 1.247 . S
O534 Co532 2.091 . S
O534 C540 1.261 . S
C535 O544 1.247 . S
C535 O545 1.272 . S
O536 Co532 2.004 . S
O536 C541 1.259 . S
Co537 O538 2.061 . S
Co537 O543 2.052 . S
Co537 O545 2.135 . S
O538 Co537 2.061 . S
O538 C541 1.235 . S
C539 O542 1.238 . S
C539 O543 1.241 . S
C540 O533 1.247 . S
C540 O534 1.261 . S
C541 O536 1.259 . S
C541 O538 1.235 . S
O542 Co532 2.021 . S
O542 C539 1.238 . S
O543 Co537 2.052 . S
O543 C539 1.241 . S
O544 Co532 2.137 . S
O544 C535 1.247 . S
O545 Co532 2.244 . S
O545 C535 1.272 . S
O545 Co537 2.135 . S
Co546 O547 2.216 . S
Co546 O548 2.091 . S
Co546 O550 2.004 . S
Co546 O556 2.021 . S
Co546 O558 2.137 . S
Co546 O559 2.244 . S
O547 Co546 2.216 . S
O547 C554 1.247 . S
O548 Co546 2.091 . S
O548 C554 1.261 . S
C549 O558 1.247 . S
C549 O559 1.272 . S
O550 Co546 2.004 . S
O550 C555 1.259 . S
Co551 O552 2.061 . S
Co551 O557 2.052 . S
Co551 O559 2.135 . S
O552 Co551 2.061 . S
O552 C555 1.235 . S
C553 O556 1.238 . S
C553 O557 1.241 . S
C554 O547 1.247 . S
C554 O548 1.261 . S
C555 O550 1.259 . S
C555 O552 1.235 . S
O556 Co546 2.021 . S
O556 C553 1.238 . S
O557 Co551 2.052 . S
O557 C553 1.241 . S
O558 Co546 2.137 . S
O558 C549 1.247 . S
O559 Co546 2.244 . S
O559 C549 1.272 . S
O559 Co551 2.135 . S
Co560 O561 2.216 . S
Co560 O562 2.091 . S
Co560 O564 2.004 . S
Co560 O570 2.021 . S
Co560 O572 2.137 . S
Co560 O573 2.244 . S
O561 Co560 2.216 . S
O561 C568 1.247 . S
O562 Co560 2.091 . S
O562 C568 1.261 . S
C563 O572 1.247 . S
C563 O573 1.272 . S
O564 Co560 2.004 . S
O564 C569 1.259 . S
Co565 O566 2.061 . S
Co565 O571 2.052 . S
Co565 O573 2.135 . S
O566 Co565 2.061 . S
O566 C569 1.235 . S
C567 O570 1.238 . S
C567 O571 1.241 . S
C568 O561 1.247 . S
C568 O562 1.261 . S
C569 O564 1.259 . S
C569 O566 1.235 . S
O570 Co560 2.021 . S
O570 C567 1.238 . S
O571 Co565 2.052 . S
O571 C567 1.241 . S
O572 Co560 2.137 . S
O572 C563 1.247 . S
O573 Co560 2.244 . S
O573 C563 1.272 . S
O573 Co565 2.135 . S
Co574 O575 2.216 . S
Co574 O576 2.091 . S
Co574 O578 2.004 . S
Co574 O584 2.021 . S
Co574 O586 2.137 . S
Co574 O587 2.244 . S
O575 Co574 2.216 . S
O575 C582 1.247 . S
O576 Co574 2.091 . S
O576 C582 1.261 . S
C577 O586 1.247 . S
C577 O587 1.272 . S
O578 Co574 2.004 . S
O578 C583 1.259 . S
Co579 O580 2.061 . S
Co579 O585 2.052 . S
Co579 O587 2.135 . S
O580 Co579 2.061 . S
O580 C583 1.235 . S
C581 O584 1.238 . S
C581 O585 1.241 . S
C582 O575 1.247 . S
C582 O576 1.261 . S
C583 O578 1.259 . S
C583 O580 1.235 . S
O584 Co574 2.021 . S
O584 C581 1.238 . S
O585 Co579 2.052 . S
O585 C581 1.241 . S
O586 Co574 2.137 . S
O586 C577 1.247 . S
O587 Co574 2.244 . S
O587 C577 1.272 . S
O587 Co579 2.135 . S
Co588 O589 2.216 . S
Co588 O590 2.091 . S
Co588 O592 2.004 . S
Co588 O598 2.021 . S
Co588 O600 2.137 . S
Co588 O601 2.244 . S
O589 Co588 2.216 . S
O589 C596 1.247 . S
O590 Co588 2.091 . S
O590 C596 1.261 . S
C591 O600 1.247 . S
C591 O601 1.272 . S
O592 Co588 2.004 . S
O592 C597 1.259 . S
Co593 O594 2.061 . S
Co593 O599 2.052 . S
Co593 O601 2.135 . S
O594 Co593 2.061 . S
O594 C597 1.235 . S
C595 O598 1.238 . S
C595 O599 1.241 . S
C596 O589 1.247 . S
C596 O590 1.261 . S
C597 O592 1.259 . S
C597 O594 1.235 . S
O598 Co588 2.021 . S
O598 C595 1.238 . S
O599 Co593 2.052 . S
O599 C595 1.241 . S
O600 Co588 2.137 . S
O600 C591 1.247 . S
O601 Co588 2.244 . S
O601 C591 1.272 . S
O601 Co593 2.135 . S
Co602 O603 2.216 . S
Co602 O604 2.091 . S
Co602 O606 2.004 . S
Co602 O612 2.021 . S
Co602 O614 2.137 . S
Co602 O615 2.244 . S
O603 Co602 2.216 . S
O603 C610 1.247 . S
O604 Co602 2.091 . S
O604 C610 1.261 . S
C605 O614 1.247 . S
C605 O615 1.272 . S
O606 Co602 2.004 . S
O606 C611 1.259 . S
Co607 O608 2.061 . S
Co607 O613 2.052 . S
Co607 O615 2.135 . S
O608 Co607 2.061 . S
O608 C611 1.235 . S
C609 O612 1.238 . S
C609 O613 1.241 . S
C610 O603 1.247 . S
C610 O604 1.261 . S
C611 O606 1.259 . S
C611 O608 1.235 . S
O612 Co602 2.021 . S
O612 C609 1.238 . S
O613 Co607 2.052 . S
O613 C609 1.241 . S
O614 Co602 2.137 . S
O614 C605 1.247 . S
O615 Co602 2.244 . S
O615 C605 1.272 . S
O615 Co607 2.135 . S
Co616 O617 2.216 . S
Co616 O618 2.091 . S
Co616 O620 2.004 . S
Co616 O626 2.021 . S
Co616 O628 2.137 . S
Co616 O629 2.244 . S
O617 Co616 2.216 . S
O617 C624 1.247 . S
O618 Co616 2.091 . S
O618 C624 1.261 . S
C619 O628 1.247 . S
C619 O629 1.272 . S
O620 Co616 2.004 . S
O620 C625 1.259 . S
Co621 O622 2.061 . S
Co621 O627 2.052 . S
Co621 O629 2.135 . S
O622 Co621 2.061 . S
O622 C625 1.235 . S
C623 O626 1.238 . S
C623 O627 1.241 . S
C624 O617 1.247 . S
C624 O618 1.261 . S
C625 O620 1.259 . S
C625 O622 1.235 . S
O626 Co616 2.021 . S
O626 C623 1.238 . S
O627 Co621 2.052 . S
O627 C623 1.241 . S
O628 Co616 2.137 . S
O628 C619 1.247 . S
O629 Co616 2.244 . S
O629 C619 1.272 . S
O629 Co621 2.135 . S
Co630 O631 2.216 . S
Co630 O632 2.091 . S
Co630 O634 2.004 . S
Co630 O640 2.021 . S
Co630 O642 2.137 . S
Co630 O643 2.244 . S
O631 Co630 2.216 . S
O631 C638 1.247 . S
O632 Co630 2.091 . S
O632 C638 1.261 . S
C633 O642 1.247 . S
C633 O643 1.272 . S
O634 Co630 2.004 . S
O634 C639 1.259 . S
Co635 O636 2.061 . S
Co635 O641 2.052 . S
Co635 O643 2.135 . S
O636 Co635 2.061 . S
O636 C639 1.235 . S
C637 O640 1.238 . S
C637 O641 1.241 . S
C638 O631 1.247 . S
C638 O632 1.261 . S
C639 O634 1.259 . S
C639 O636 1.235 . S
O640 Co630 2.021 . S
O640 C637 1.238 . S
O641 Co635 2.052 . S
O641 C637 1.241 . S
O642 Co630 2.137 . S
O642 C633 1.247 . S
O643 Co630 2.244 . S
O643 C633 1.272 . S
O643 Co635 2.135 . S
Co644 O645 2.216 . S
Co644 O646 2.091 . S
Co644 O648 2.004 . S
Co644 O654 2.021 . S
Co644 O656 2.137 . S
Co644 O657 2.244 . S
O645 Co644 2.216 . S
O645 C652 1.247 . S
O646 Co644 2.091 . S
O646 C652 1.261 . S
C647 O656 1.247 . S
C647 O657 1.272 . S
O648 Co644 2.004 . S
O648 C653 1.259 . S
Co649 O650 2.061 . S
Co649 O655 2.052 . S
Co649 O657 2.135 . S
O650 Co649 2.061 . S
O650 C653 1.235 . S
C651 O654 1.238 . S
C651 O655 1.241 . S
C652 O645 1.247 . S
C652 O646 1.261 . S
C653 O648 1.259 . S
C653 O650 1.235 . S
O654 Co644 2.021 . S
O654 C651 1.238 . S
O655 Co649 2.052 . S
O655 C651 1.241 . S
O656 Co644 2.137 . S
O656 C647 1.247 . S
O657 Co644 2.244 . S
O657 C647 1.272 . S
O657 Co649 2.135 . S
Co658 O659 2.216 . S
Co658 O660 2.091 . S
Co658 O662 2.004 . S
Co658 O668 2.021 . S
Co658 O670 2.137 . S
Co658 O671 2.244 . S
O659 Co658 2.216 . S
O659 C666 1.247 . S
O660 Co658 2.091 . S
O660 C666 1.261 . S
C661 O670 1.247 . S
C661 O671 1.272 . S
O662 Co658 2.004 . S
O662 C667 1.259 . S
Co663 O664 2.061 . S
Co663 O669 2.052 . S
Co663 O671 2.135 . S
O664 Co663 2.061 . S
O664 C667 1.235 . S
C665 O668 1.238 . S
C665 O669 1.241 . S
C666 O659 1.247 . S
C666 O660 1.261 . S
C667 O662 1.259 . S
C667 O664 1.235 . S
O668 Co658 2.021 . S
O668 C665 1.238 . S
O669 Co663 2.052 . S
O669 C665 1.241 . S
O670 Co658 2.137 . S
O670 C661 1.247 . S
O671 Co658 2.244 . S
O671 C661 1.272 . S
O671 Co663 2.135 . S
H672 C690 0.951 . S
H673 C692 0.951 . S
H674 C694 0.950 . S
H675 C695 0.950 . S
H676 C697 0.950 . S
H677 C700 0.950 . S
H678 C701 0.950 . S
H679 C703 0.950 . S
H680 C704 0.950 . S
H681 C705 0.951 . S
H682 C707 0.951 . S
H683 C709 0.950 . S
H684 C710 0.950 . S
H685 C712 0.950 . S
H686 C715 0.950 . S
H687 C716 0.950 . S
H688 C718 0.950 . S
H689 C719 0.950 . S
C690 H672 0.951 . S
C690 C691 1.366 . S
C690 C692 1.388 . S
C691 C690 1.366 . S
C691 C695 1.385 . S
C692 H673 0.951 . S
C692 C690 1.388 . S
C692 C693 1.366 . S
C693 C692 1.366 . S
C693 C694 1.414 . S
C693 C696 1.499 . S
C694 H674 0.950 . S
C694 C693 1.414 . S
C694 C695 1.374 . S
C695 H675 0.950 . S
C695 C691 1.385 . S
C695 C694 1.374 . S
C696 C693 1.499 . S
C696 C697 1.373 . S
C696 C698 1.389 . S
C697 H676 0.950 . S
C697 C696 1.373 . S
C697 C713 1.377 . S
C698 C696 1.389 . S
C698 C699 1.524 . S
C698 C712 1.377 . S
C699 C698 1.524 . S
C699 C700 1.397 . S
C699 C704 1.363 . S
C700 H677 0.950 . S
C700 C699 1.397 . S
C700 C701 1.334 . S
C701 H678 0.950 . S
C701 C700 1.334 . S
C701 C702 1.287 . S
C702 C701 1.287 . S
C702 C703 1.524 . S
C702 H721 0.913 . S
C703 H679 0.950 . S
C703 C702 1.524 . S
C703 C704 1.415 . S
C704 H680 0.950 . S
C704 C699 1.363 . S
C704 C703 1.415 . S
C705 H681 0.951 . S
C705 C706 1.366 . S
C705 C707 1.388 . S
C706 C705 1.366 . S
C706 C710 1.385 . S
C707 H682 0.951 . S
C707 C705 1.388 . S
C707 C708 1.366 . S
C708 C707 1.366 . S
C708 C709 1.414 . S
C708 C711 1.499 . S
C709 H683 0.950 . S
C709 C708 1.414 . S
C709 C710 1.374 . S
C710 H684 0.950 . S
C710 C706 1.385 . S
C710 C709 1.374 . S
C711 C708 1.499 . S
C711 C712 1.373 . S
C711 C713 1.389 . S
C712 H685 0.950 . S
C712 C698 1.377 . S
C712 C711 1.373 . S
C713 C697 1.377 . S
C713 C711 1.389 . S
C713 C714 1.524 . S
C714 C713 1.524 . S
C714 C715 1.397 . S
C714 C719 1.363 . S
C715 H686 0.950 . S
C715 C714 1.397 . S
C715 C716 1.334 . S
C716 H687 0.950 . S
C716 C715 1.334 . S
C716 C717 1.287 . S
C717 C716 1.287 . S
C717 C718 1.524 . S
C717 H720 0.999 . S
C718 H688 0.950 . S
C718 C717 1.524 . S
C718 C719 1.415 . S
C719 H689 0.950 . S
C719 C714 1.363 . S
C719 C718 1.415 . S
H720 C717 0.999 . S
H721 C702 0.913 . S
H722 C740 0.951 . S
H723 C742 0.951 . S
H724 C744 0.950 . S
H725 C745 0.950 . S
H726 C747 0.950 . S
H727 C750 0.950 . S
H728 C751 0.950 . S
H729 C753 0.950 . S
H730 C754 0.950 . S
H731 C755 0.951 . S
H732 C757 0.951 . S
H733 C759 0.950 . S
H734 C760 0.950 . S
H735 C762 0.950 . S
H736 C765 0.950 . S
H737 C766 0.950 . S
H738 C768 0.950 . S
H739 C769 0.950 . S
C740 H722 0.951 . S
C740 C741 1.366 . S
C740 C742 1.388 . S
C741 C740 1.366 . S
C741 C745 1.385 . S
C742 H723 0.951 . S
C742 C740 1.388 . S
C742 C743 1.366 . S
C743 C742 1.366 . S
C743 C744 1.414 . S
C743 C746 1.499 . S
C744 H724 0.950 . S
C744 C743 1.414 . S
C744 C745 1.374 . S
C745 H725 0.950 . S
C745 C741 1.385 . S
C745 C744 1.374 . S
C746 C743 1.499 . S
C746 C747 1.373 . S
C746 C748 1.389 . S
C747 H726 0.950 . S
C747 C746 1.373 . S
C747 C763 1.377 . S
C748 C746 1.389 . S
C748 C749 1.524 . S
C748 C762 1.377 . S
C749 C748 1.524 . S
C749 C750 1.397 . S
C749 C754 1.363 . S
C750 H727 0.950 . S
C750 C749 1.397 . S
C750 C751 1.334 . S
C751 H728 0.950 . S
C751 C750 1.334 . S
C751 C752 1.287 . S
C752 C751 1.287 . S
C752 C753 1.524 . S
C752 H771 0.913 . S
C753 H729 0.950 . S
C753 C752 1.524 . S
C753 C754 1.415 . S
C754 H730 0.950 . S
C754 C749 1.363 . S
C754 C753 1.415 . S
C755 H731 0.951 . S
C755 C756 1.366 . S
C755 C757 1.388 . S
C756 C755 1.366 . S
C756 C760 1.385 . S
C757 H732 0.951 . S
C757 C755 1.388 . S
C757 C758 1.366 . S
C758 C757 1.366 . S
C758 C759 1.414 . S
C758 C761 1.499 . S
C759 H733 0.950 . S
C759 C758 1.414 . S
C759 C760 1.374 . S
C760 H734 0.950 . S
C760 C756 1.385 . S
C760 C759 1.374 . S
C761 C758 1.499 . S
C761 C762 1.373 . S
C761 C763 1.389 . S
C762 H735 0.950 . S
C762 C748 1.377 . S
C762 C761 1.373 . S
C763 C747 1.377 . S
C763 C761 1.389 . S
C763 C764 1.524 . S
C764 C763 1.524 . S
C764 C765 1.397 . S
C764 C769 1.363 . S
C765 H736 0.950 . S
C765 C764 1.397 . S
C765 C766 1.334 . S
C766 H737 0.950 . S
C766 C765 1.334 . S
C766 C767 1.287 . S
C767 C766 1.287 . S
C767 C768 1.524 . S
C767 H770 0.999 . S
C768 H738 0.950 . S
C768 C767 1.524 . S
C768 C769 1.415 . S
C769 H739 0.950 . S
C769 C764 1.363 . S
C769 C768 1.415 . S
H770 C767 0.999 . S
H771 C752 0.913 . S
H772 C790 0.951 . S
H773 C792 0.951 . S
H774 C794 0.950 . S
H775 C795 0.950 . S
H776 C797 0.950 . S
H777 C800 0.950 . S
H778 C801 0.950 . S
H779 C803 0.950 . S
H780 C804 0.950 . S
H781 C805 0.951 . S
H782 C807 0.951 . S
H783 C809 0.950 . S
H784 C810 0.950 . S
H785 C812 0.950 . S
H786 C815 0.950 . S
H787 C816 0.950 . S
H788 C818 0.950 . S
H789 C819 0.950 . S
C790 H772 0.951 . S
C790 C791 1.366 . S
C790 C792 1.388 . S
C791 C790 1.366 . S
C791 C795 1.385 . S
C792 H773 0.951 . S
C792 C790 1.388 . S
C792 C793 1.366 . S
C793 C792 1.366 . S
C793 C794 1.414 . S
C793 C796 1.499 . S
C794 H774 0.950 . S
C794 C793 1.414 . S
C794 C795 1.374 . S
C795 H775 0.950 . S
C795 C791 1.385 . S
C795 C794 1.374 . S
C796 C793 1.499 . S
C796 C797 1.373 . S
C796 C798 1.389 . S
C797 H776 0.950 . S
C797 C796 1.373 . S
C797 C813 1.377 . S
C798 C796 1.389 . S
C798 C799 1.524 . S
C798 C812 1.377 . S
C799 C798 1.524 . S
C799 C800 1.397 . S
C799 C804 1.363 . S
C800 H777 0.950 . S
C800 C799 1.397 . S
C800 C801 1.334 . S
C801 H778 0.950 . S
C801 C800 1.334 . S
C801 C802 1.287 . S
C802 C801 1.287 . S
C802 C803 1.524 . S
C802 H821 0.913 . S
C803 H779 0.950 . S
C803 C802 1.524 . S
C803 C804 1.415 . S
C804 H780 0.950 . S
C804 C799 1.363 . S
C804 C803 1.415 . S
C805 H781 0.951 . S
C805 C806 1.366 . S
C805 C807 1.388 . S
C806 C805 1.366 . S
C806 C810 1.385 . S
C807 H782 0.951 . S
C807 C805 1.388 . S
C807 C808 1.366 . S
C808 C807 1.366 . S
C808 C809 1.414 . S
C808 C811 1.499 . S
C809 H783 0.950 . S
C809 C808 1.414 . S
C809 C810 1.374 . S
C810 H784 0.950 . S
C810 C806 1.385 . S
C810 C809 1.374 . S
C811 C808 1.499 . S
C811 C812 1.373 . S
C811 C813 1.389 . S
C812 H785 0.950 . S
C812 C798 1.377 . S
C812 C811 1.373 . S
C813 C797 1.377 . S
C813 C811 1.389 . S
C813 C814 1.524 . S
C814 C813 1.524 . S
C814 C815 1.397 . S
C814 C819 1.363 . S
C815 H786 0.950 . S
C815 C814 1.397 . S
C815 C816 1.334 . S
C816 H787 0.950 . S
C816 C815 1.334 . S
C816 C817 1.287 . S
C817 C816 1.287 . S
C817 C818 1.524 . S
C817 H820 0.999 . S
C818 H788 0.950 . S
C818 C817 1.524 . S
C818 C819 1.415 . S
C819 H789 0.950 . S
C819 C814 1.363 . S
C819 C818 1.415 . S
H820 C817 0.999 . S
H821 C802 0.913 . S
H822 C840 0.951 . S
H823 C842 0.951 . S
H824 C844 0.950 . S
H825 C845 0.950 . S
H826 C847 0.950 . S
H827 C850 0.950 . S
H828 C851 0.950 . S
H829 C853 0.950 . S
H830 C854 0.950 . S
H831 C855 0.951 . S
H832 C857 0.951 . S
H833 C859 0.950 . S
H834 C860 0.950 . S
H835 C862 0.950 . S
H836 C865 0.950 . S
H837 C866 0.950 . S
H838 C868 0.950 . S
H839 C869 0.950 . S
C840 H822 0.951 . S
C840 C841 1.366 . S
C840 C842 1.388 . S
C841 C840 1.366 . S
C841 C845 1.385 . S
C842 H823 0.951 . S
C842 C840 1.388 . S
C842 C843 1.366 . S
C843 C842 1.366 . S
C843 C844 1.414 . S
C843 C846 1.499 . S
C844 H824 0.950 . S
C844 C843 1.414 . S
C844 C845 1.374 . S
C845 H825 0.950 . S
C845 C841 1.385 . S
C845 C844 1.374 . S
C846 C843 1.499 . S
C846 C847 1.373 . S
C846 C848 1.389 . S
C847 H826 0.950 . S
C847 C846 1.373 . S
C847 C863 1.377 . S
C848 C846 1.389 . S
C848 C849 1.524 . S
C848 C862 1.377 . S
C849 C848 1.524 . S
C849 C850 1.397 . S
C849 C854 1.363 . S
C850 H827 0.950 . S
C850 C849 1.397 . S
C850 C851 1.334 . S
C851 H828 0.950 . S
C851 C850 1.334 . S
C851 C852 1.287 . S
C852 C851 1.287 . S
C852 C853 1.524 . S
C852 H871 0.913 . S
C853 H829 0.950 . S
C853 C852 1.524 . S
C853 C854 1.415 . S
C854 H830 0.950 . S
C854 C849 1.363 . S
C854 C853 1.415 . S
C855 H831 0.951 . S
C855 C856 1.366 . S
C855 C857 1.388 . S
C856 C855 1.366 . S
C856 C860 1.385 . S
C857 H832 0.951 . S
C857 C855 1.388 . S
C857 C858 1.366 . S
C858 C857 1.366 . S
C858 C859 1.414 . S
C858 C861 1.499 . S
C859 H833 0.950 . S
C859 C858 1.414 . S
C859 C860 1.374 . S
C860 H834 0.950 . S
C860 C856 1.385 . S
C860 C859 1.374 . S
C861 C858 1.499 . S
C861 C862 1.373 . S
C861 C863 1.389 . S
C862 H835 0.950 . S
C862 C848 1.377 . S
C862 C861 1.373 . S
C863 C847 1.377 . S
C863 C861 1.389 . S
C863 C864 1.524 . S
C864 C863 1.524 . S
C864 C865 1.397 . S
C864 C869 1.363 . S
C865 H836 0.950 . S
C865 C864 1.397 . S
C865 C866 1.334 . S
C866 H837 0.950 . S
C866 C865 1.334 . S
C866 C867 1.287 . S
C867 C866 1.287 . S
C867 C868 1.524 . S
C867 H870 0.999 . S
C868 H838 0.950 . S
C868 C867 1.524 . S
C868 C869 1.415 . S
C869 H839 0.950 . S
C869 C864 1.363 . S
C869 C868 1.415 . S
H870 C867 0.999 . S
H871 C852 0.913 . S
H872 C890 0.951 . S
H873 C892 0.951 . S
H874 C894 0.950 . S
H875 C895 0.950 . S
H876 C897 0.950 . S
H877 C900 0.950 . S
H878 C901 0.950 . S
H879 C903 0.950 . S
H880 C904 0.950 . S
H881 C905 0.951 . S
H882 C907 0.951 . S
H883 C909 0.950 . S
H884 C910 0.950 . S
H885 C912 0.950 . S
H886 C915 0.950 . S
H887 C916 0.950 . S
H888 C918 0.950 . S
H889 C919 0.950 . S
C890 H872 0.951 . S
C890 C891 1.366 . S
C890 C892 1.388 . S
C891 C890 1.366 . S
C891 C895 1.385 . S
C892 H873 0.951 . S
C892 C890 1.388 . S
C892 C893 1.366 . S
C893 C892 1.366 . S
C893 C894 1.414 . S
C893 C896 1.499 . S
C894 H874 0.950 . S
C894 C893 1.414 . S
C894 C895 1.374 . S
C895 H875 0.950 . S
C895 C891 1.385 . S
C895 C894 1.374 . S
C896 C893 1.499 . S
C896 C897 1.373 . S
C896 C898 1.389 . S
C897 H876 0.950 . S
C897 C896 1.373 . S
C897 C913 1.377 . S
C898 C896 1.389 . S
C898 C899 1.524 . S
C898 C912 1.377 . S
C899 C898 1.524 . S
C899 C900 1.397 . S
C899 C904 1.363 . S
C900 H877 0.950 . S
C900 C899 1.397 . S
C900 C901 1.334 . S
C901 H878 0.950 . S
C901 C900 1.334 . S
C901 C902 1.287 . S
C902 C901 1.287 . S
C902 C903 1.524 . S
C902 H921 0.913 . S
C903 H879 0.950 . S
C903 C902 1.524 . S
C903 C904 1.415 . S
C904 H880 0.950 . S
C904 C899 1.363 . S
C904 C903 1.415 . S
C905 H881 0.951 . S
C905 C906 1.366 . S
C905 C907 1.388 . S
C906 C905 1.366 . S
C906 C910 1.385 . S
C907 H882 0.951 . S
C907 C905 1.388 . S
C907 C908 1.366 . S
C908 C907 1.366 . S
C908 C909 1.414 . S
C908 C911 1.499 . S
C909 H883 0.950 . S
C909 C908 1.414 . S
C909 C910 1.374 . S
C910 H884 0.950 . S
C910 C906 1.385 . S
C910 C909 1.374 . S
C911 C908 1.499 . S
C911 C912 1.373 . S
C911 C913 1.389 . S
C912 H885 0.950 . S
C912 C898 1.377 . S
C912 C911 1.373 . S
C913 C897 1.377 . S
C913 C911 1.389 . S
C913 C914 1.524 . S
C914 C913 1.524 . S
C914 C915 1.397 . S
C914 C919 1.363 . S
C915 H886 0.950 . S
C915 C914 1.397 . S
C915 C916 1.334 . S
C916 H887 0.950 . S
C916 C915 1.334 . S
C916 C917 1.287 . S
C917 C916 1.287 . S
C917 C918 1.524 . S
C917 H920 0.999 . S
C918 H888 0.950 . S
C918 C917 1.524 . S
C918 C919 1.415 . S
C919 H889 0.950 . S
C919 C914 1.363 . S
C919 C918 1.415 . S
H920 C917 0.999 . S
H921 C902 0.913 . S
H922 C940 0.951 . S
H923 C942 0.951 . S
H924 C944 0.950 . S
H925 C945 0.950 . S
H926 C947 0.950 . S
H927 C950 0.950 . S
H928 C951 0.950 . S
H929 C953 0.950 . S
H930 C954 0.950 . S
H931 C955 0.951 . S
H932 C957 0.951 . S
H933 C959 0.950 . S
H934 C960 0.950 . S
H935 C962 0.950 . S
H936 C965 0.950 . S
H937 C966 0.950 . S
H938 C968 0.950 . S
H939 C969 0.950 . S
C940 H922 0.951 . S
C940 C941 1.366 . S
C940 C942 1.388 . S
C941 C940 1.366 . S
C941 C945 1.385 . S
C942 H923 0.951 . S
C942 C940 1.388 . S
C942 C943 1.366 . S
C943 C942 1.366 . S
C943 C944 1.414 . S
C943 C946 1.499 . S
C944 H924 0.950 . S
C944 C943 1.414 . S
C944 C945 1.374 . S
C945 H925 0.950 . S
C945 C941 1.385 . S
C945 C944 1.374 . S
C946 C943 1.499 . S
C946 C947 1.373 . S
C946 C948 1.389 . S
C947 H926 0.950 . S
C947 C946 1.373 . S
C947 C963 1.377 . S
C948 C946 1.389 . S
C948 C949 1.524 . S
C948 C962 1.377 . S
C949 C948 1.524 . S
C949 C950 1.397 . S
C949 C954 1.363 . S
C950 H927 0.950 . S
C950 C949 1.397 . S
C950 C951 1.334 . S
C951 H928 0.950 . S
C951 C950 1.334 . S
C951 C952 1.287 . S
C952 C951 1.287 . S
C952 C953 1.524 . S
C952 H971 0.913 . S
C953 H929 0.950 . S
C953 C952 1.524 . S
C953 C954 1.415 . S
C954 H930 0.950 . S
C954 C949 1.363 . S
C954 C953 1.415 . S
C955 H931 0.951 . S
C955 C956 1.366 . S
C955 C957 1.388 . S
C956 C955 1.366 . S
C956 C960 1.385 . S
C957 H932 0.951 . S
C957 C955 1.388 . S
C957 C958 1.366 . S
C958 C957 1.366 . S
C958 C959 1.414 . S
C958 C961 1.499 . S
C959 H933 0.950 . S
C959 C958 1.414 . S
C959 C960 1.374 . S
C960 H934 0.950 . S
C960 C956 1.385 . S
C960 C959 1.374 . S
C961 C958 1.499 . S
C961 C962 1.373 . S
C961 C963 1.389 . S
C962 H935 0.950 . S
C962 C948 1.377 . S
C962 C961 1.373 . S
C963 C947 1.377 . S
C963 C961 1.389 . S
C963 C964 1.524 . S
C964 C963 1.524 . S
C964 C965 1.397 . S
C964 C969 1.363 . S
C965 H936 0.950 . S
C965 C964 1.397 . S
C965 C966 1.334 . S
C966 H937 0.950 . S
C966 C965 1.334 . S
C966 C967 1.287 . S
C967 C966 1.287 . S
C967 C968 1.524 . S
C967 H970 0.999 . S
C968 H938 0.950 . S
C968 C967 1.524 . S
C968 C969 1.415 . S
C969 H939 0.950 . S
C969 C964 1.363 . S
C969 C968 1.415 . S
H970 C967 0.999 . S
H971 C952 0.913 . S
H972 C990 0.951 . S
H973 C992 0.951 . S
H974 C994 0.950 . S
H975 C995 0.950 . S
H976 C997 0.950 . S
H977 C1000 0.950 . S
H978 C1001 0.950 . S
H979 C1003 0.950 . S
H980 C1004 0.950 . S
H981 C1005 0.951 . S
H982 C1007 0.951 . S
H983 C1009 0.950 . S
H984 C1010 0.950 . S
H985 C1012 0.950 . S
H986 C1015 0.950 . S
H987 C1016 0.950 . S
H988 C1018 0.950 . S
H989 C1019 0.950 . S
C990 H972 0.951 . S
C990 C991 1.366 . S
C990 C992 1.388 . S
C991 C990 1.366 . S
C991 C995 1.385 . S
C992 H973 0.951 . S
C992 C990 1.388 . S
C992 C993 1.366 . S
C993 C992 1.366 . S
C993 C994 1.414 . S
C993 C996 1.499 . S
C994 H974 0.950 . S
C994 C993 1.414 . S
C994 C995 1.374 . S
C995 H975 0.950 . S
C995 C991 1.385 . S
C995 C994 1.374 . S
C996 C993 1.499 . S
C996 C997 1.373 . S
C996 C998 1.389 . S
C997 H976 0.950 . S
C997 C996 1.373 . S
C997 C1013 1.377 . S
C998 C996 1.389 . S
C998 C999 1.524 . S
C998 C1012 1.377 . S
C999 C998 1.524 . S
C999 C1000 1.397 . S
C999 C1004 1.363 . S
C1000 H977 0.950 . S
C1000 C999 1.397 . S
C1000 C1001 1.334 . S
C1001 H978 0.950 . S
C1001 C1000 1.334 . S
C1001 C1002 1.287 . S
C1002 C1001 1.287 . S
C1002 C1003 1.524 . S
C1002 H1021 0.913 . S
C1003 H979 0.950 . S
C1003 C1002 1.524 . S
C1003 C1004 1.415 . S
C1004 H980 0.950 . S
C1004 C999 1.363 . S
C1004 C1003 1.415 . S
C1005 H981 0.951 . S
C1005 C1006 1.366 . S
C1005 C1007 1.388 . S
C1006 C1005 1.366 . S
C1006 C1010 1.385 . S
C1007 H982 0.951 . S
C1007 C1005 1.388 . S
C1007 C1008 1.366 . S
C1008 C1007 1.366 . S
C1008 C1009 1.414 . S
C1008 C1011 1.499 . S
C1009 H983 0.950 . S
C1009 C1008 1.414 . S
C1009 C1010 1.374 . S
C1010 H984 0.950 . S
C1010 C1006 1.385 . S
C1010 C1009 1.374 . S
C1011 C1008 1.499 . S
C1011 C1012 1.373 . S
C1011 C1013 1.389 . S
C1012 H985 0.950 . S
C1012 C998 1.377 . S
C1012 C1011 1.373 . S
C1013 C997 1.377 . S
C1013 C1011 1.389 . S
C1013 C1014 1.524 . S
C1014 C1013 1.524 . S
C1014 C1015 1.397 . S
C1014 C1019 1.363 . S
C1015 H986 0.950 . S
C1015 C1014 1.397 . S
C1015 C1016 1.334 . S
C1016 H987 0.950 . S
C1016 C1015 1.334 . S
C1016 C1017 1.287 . S
C1017 C1016 1.287 . S
C1017 C1018 1.524 . S
C1017 H1020 0.999 . S
C1018 H988 0.950 . S
C1018 C1017 1.524 . S
C1018 C1019 1.415 . S
C1019 H989 0.950 . S
C1019 C1014 1.363 . S
C1019 C1018 1.415 . S
H1020 C1017 0.999 . S
H1021 C1002 0.913 . S
H1022 C1040 0.951 . S
H1023 C1042 0.951 . S
H1024 C1044 0.950 . S
H1025 C1045 0.950 . S
H1026 C1047 0.950 . S
H1027 C1050 0.950 . S
H1028 C1051 0.950 . S
H1029 C1053 0.950 . S
H1030 C1054 0.950 . S
H1031 C1055 0.951 . S
H1032 C1057 0.951 . S
H1033 C1059 0.950 . S
H1034 C1060 0.950 . S
H1035 C1062 0.950 . S
H1036 C1065 0.950 . S
H1037 C1066 0.950 . S
H1038 C1068 0.950 . S
H1039 C1069 0.950 . S
C1040 H1022 0.951 . S
C1040 C1041 1.366 . S
C1040 C1042 1.388 . S
C1041 C1040 1.366 . S
C1041 C1045 1.385 . S
C1042 H1023 0.951 . S
C1042 C1040 1.388 . S
C1042 C1043 1.366 . S
C1043 C1042 1.366 . S
C1043 C1044 1.414 . S
C1043 C1046 1.499 . S
C1044 H1024 0.950 . S
C1044 C1043 1.414 . S
C1044 C1045 1.374 . S
C1045 H1025 0.950 . S
C1045 C1041 1.385 . S
C1045 C1044 1.374 . S
C1046 C1043 1.499 . S
C1046 C1047 1.373 . S
C1046 C1048 1.389 . S
C1047 H1026 0.950 . S
C1047 C1046 1.373 . S
C1047 C1063 1.377 . S
C1048 C1046 1.389 . S
C1048 C1049 1.524 . S
C1048 C1062 1.377 . S
C1049 C1048 1.524 . S
C1049 C1050 1.397 . S
C1049 C1054 1.363 . S
C1050 H1027 0.950 . S
C1050 C1049 1.397 . S
C1050 C1051 1.334 . S
C1051 H1028 0.950 . S
C1051 C1050 1.334 . S
C1051 C1052 1.287 . S
C1052 C1051 1.287 . S
C1052 C1053 1.524 . S
C1052 H1071 0.913 . S
C1053 H1029 0.950 . S
C1053 C1052 1.524 . S
C1053 C1054 1.415 . S
C1054 H1030 0.950 . S
C1054 C1049 1.363 . S
C1054 C1053 1.415 . S
C1055 H1031 0.951 . S
C1055 C1056 1.366 . S
C1055 C1057 1.388 . S
C1056 C1055 1.366 . S
C1056 C1060 1.385 . S
C1057 H1032 0.951 . S
C1057 C1055 1.388 . S
C1057 C1058 1.366 . S
C1058 C1057 1.366 . S
C1058 C1059 1.414 . S
C1058 C1061 1.499 . S
C1059 H1033 0.950 . S
C1059 C1058 1.414 . S
C1059 C1060 1.374 . S
C1060 H1034 0.950 . S
C1060 C1056 1.385 . S
C1060 C1059 1.374 . S
C1061 C1058 1.499 . S
C1061 C1062 1.373 . S
C1061 C1063 1.389 . S
C1062 H1035 0.950 . S
C1062 C1048 1.377 . S
C1062 C1061 1.373 . S
C1063 C1047 1.377 . S
C1063 C1061 1.389 . S
C1063 C1064 1.524 . S
C1064 C1063 1.524 . S
C1064 C1065 1.397 . S
C1064 C1069 1.363 . S
C1065 H1036 0.950 . S
C1065 C1064 1.397 . S
C1065 C1066 1.334 . S
C1066 H1037 0.950 . S
C1066 C1065 1.334 . S
C1066 C1067 1.287 . S
C1067 C1066 1.287 . S
C1067 C1068 1.524 . S
C1067 H1070 0.999 . S
C1068 H1038 0.950 . S
C1068 C1067 1.524 . S
C1068 C1069 1.415 . S
C1069 H1039 0.950 . S
C1069 C1064 1.363 . S
C1069 C1068 1.415 . S
H1070 C1067 0.999 . S
H1071 C1052 0.913 . S
H1072 C1090 0.951 . S
H1073 C1092 0.951 . S
H1074 C1094 0.950 . S
H1075 C1095 0.950 . S
H1076 C1097 0.950 . S
H1077 C1100 0.950 . S
H1078 C1101 0.950 . S
H1079 C1103 0.950 . S
H1080 C1104 0.950 . S
H1081 C1105 0.951 . S
H1082 C1107 0.951 . S
H1083 C1109 0.950 . S
H1084 C1110 0.950 . S
H1085 C1112 0.950 . S
H1086 C1115 0.950 . S
H1087 C1116 0.950 . S
H1088 C1118 0.950 . S
H1089 C1119 0.950 . S
C1090 H1072 0.951 . S
C1090 C1091 1.366 . S
C1090 C1092 1.388 . S
C1091 C1090 1.366 . S
C1091 C1095 1.385 . S
C1092 H1073 0.951 . S
C1092 C1090 1.388 . S
C1092 C1093 1.366 . S
C1093 C1092 1.366 . S
C1093 C1094 1.414 . S
C1093 C1096 1.499 . S
C1094 H1074 0.950 . S
C1094 C1093 1.414 . S
C1094 C1095 1.374 . S
C1095 H1075 0.950 . S
C1095 C1091 1.385 . S
C1095 C1094 1.374 . S
C1096 C1093 1.499 . S
C1096 C1097 1.373 . S
C1096 C1098 1.389 . S
C1097 H1076 0.950 . S
C1097 C1096 1.373 . S
C1097 C1113 1.377 . S
C1098 C1096 1.389 . S
C1098 C1099 1.524 . S
C1098 C1112 1.377 . S
C1099 C1098 1.524 . S
C1099 C1100 1.397 . S
C1099 C1104 1.363 . S
C1100 H1077 0.950 . S
C1100 C1099 1.397 . S
C1100 C1101 1.334 . S
C1101 H1078 0.950 . S
C1101 C1100 1.334 . S
C1101 C1102 1.287 . S
C1102 C1101 1.287 . S
C1102 C1103 1.524 . S
C1102 H1121 0.913 . S
C1103 H1079 0.950 . S
C1103 C1102 1.524 . S
C1103 C1104 1.415 . S
C1104 H1080 0.950 . S
C1104 C1099 1.363 . S
C1104 C1103 1.415 . S
C1105 H1081 0.951 . S
C1105 C1106 1.366 . S
C1105 C1107 1.388 . S
C1106 C1105 1.366 . S
C1106 C1110 1.385 . S
C1107 H1082 0.951 . S
C1107 C1105 1.388 . S
C1107 C1108 1.366 . S
C1108 C1107 1.366 . S
C1108 C1109 1.414 . S
C1108 C1111 1.499 . S
C1109 H1083 0.950 . S
C1109 C1108 1.414 . S
C1109 C1110 1.374 . S
C1110 H1084 0.950 . S
C1110 C1106 1.385 . S
C1110 C1109 1.374 . S
C1111 C1108 1.499 . S
C1111 C1112 1.373 . S
C1111 C1113 1.389 . S
C1112 H1085 0.950 . S
C1112 C1098 1.377 . S
C1112 C1111 1.373 . S
C1113 C1097 1.377 . S
C1113 C1111 1.389 . S
C1113 C1114 1.524 . S
C1114 C1113 1.524 . S
C1114 C1115 1.397 . S
C1114 C1119 1.363 . S
C1115 H1086 0.950 . S
C1115 C1114 1.397 . S
C1115 C1116 1.334 . S
C1116 H1087 0.950 . S
C1116 C1115 1.334 . S
C1116 C1117 1.287 . S
C1117 C1116 1.287 . S
C1117 C1118 1.524 . S
C1117 H1120 0.999 . S
C1118 H1088 0.950 . S
C1118 C1117 1.524 . S
C1118 C1119 1.415 . S
C1119 H1089 0.950 . S
C1119 C1114 1.363 . S
C1119 C1118 1.415 . S
H1120 C1117 0.999 . S
H1121 C1102 0.913 . S
H1122 C1140 0.951 . S
H1123 C1142 0.951 . S
H1124 C1144 0.950 . S
H1125 C1145 0.950 . S
H1126 C1147 0.950 . S
H1127 C1150 0.950 . S
H1128 C1151 0.950 . S
H1129 C1153 0.950 . S
H1130 C1154 0.950 . S
H1131 C1155 0.951 . S
H1132 C1157 0.951 . S
H1133 C1159 0.950 . S
H1134 C1160 0.950 . S
H1135 C1162 0.950 . S
H1136 C1165 0.950 . S
H1137 C1166 0.950 . S
H1138 C1168 0.950 . S
H1139 C1169 0.950 . S
C1140 H1122 0.951 . S
C1140 C1141 1.366 . S
C1140 C1142 1.388 . S
C1141 C1140 1.366 . S
C1141 C1145 1.385 . S
C1142 H1123 0.951 . S
C1142 C1140 1.388 . S
C1142 C1143 1.366 . S
C1143 C1142 1.366 . S
C1143 C1144 1.414 . S
C1143 C1146 1.499 . S
C1144 H1124 0.950 . S
C1144 C1143 1.414 . S
C1144 C1145 1.374 . S
C1145 H1125 0.950 . S
C1145 C1141 1.385 . S
C1145 C1144 1.374 . S
C1146 C1143 1.499 . S
C1146 C1147 1.373 . S
C1146 C1148 1.389 . S
C1147 H1126 0.950 . S
C1147 C1146 1.373 . S
C1147 C1163 1.377 . S
C1148 C1146 1.389 . S
C1148 C1149 1.524 . S
C1148 C1162 1.377 . S
C1149 C1148 1.524 . S
C1149 C1150 1.397 . S
C1149 C1154 1.363 . S
C1150 H1127 0.950 . S
C1150 C1149 1.397 . S
C1150 C1151 1.334 . S
C1151 H1128 0.950 . S
C1151 C1150 1.334 . S
C1151 C1152 1.287 . S
C1152 C1151 1.287 . S
C1152 C1153 1.524 . S
C1152 H1171 0.913 . S
C1153 H1129 0.950 . S
C1153 C1152 1.524 . S
C1153 C1154 1.415 . S
C1154 H1130 0.950 . S
C1154 C1149 1.363 . S
C1154 C1153 1.415 . S
C1155 H1131 0.951 . S
C1155 C1156 1.366 . S
C1155 C1157 1.388 . S
C1156 C1155 1.366 . S
C1156 C1160 1.385 . S
C1157 H1132 0.951 . S
C1157 C1155 1.388 . S
C1157 C1158 1.366 . S
C1158 C1157 1.366 . S
C1158 C1159 1.414 . S
C1158 C1161 1.499 . S
C1159 H1133 0.950 . S
C1159 C1158 1.414 . S
C1159 C1160 1.374 . S
C1160 H1134 0.950 . S
C1160 C1156 1.385 . S
C1160 C1159 1.374 . S
C1161 C1158 1.499 . S
C1161 C1162 1.373 . S
C1161 C1163 1.389 . S
C1162 H1135 0.950 . S
C1162 C1148 1.377 . S
C1162 C1161 1.373 . S
C1163 C1147 1.377 . S
C1163 C1161 1.389 . S
C1163 C1164 1.524 . S
C1164 C1163 1.524 . S
C1164 C1165 1.397 . S
C1164 C1169 1.363 . S
C1165 H1136 0.950 . S
C1165 C1164 1.397 . S
C1165 C1166 1.334 . S
C1166 H1137 0.950 . S
C1166 C1165 1.334 . S
C1166 C1167 1.287 . S
C1167 C1166 1.287 . S
C1167 C1168 1.524 . S
C1167 H1170 0.999 . S
C1168 H1138 0.950 . S
C1168 C1167 1.524 . S
C1168 C1169 1.415 . S
C1169 H1139 0.950 . S
C1169 C1164 1.363 . S
C1169 C1168 1.415 . S
H1170 C1167 0.999 . S
H1171 C1152 0.913 . S
H1172 C1190 0.951 . S
H1173 C1192 0.951 . S
H1174 C1194 0.950 . S
H1175 C1195 0.950 . S
H1176 C1197 0.950 . S
H1177 C1200 0.950 . S
H1178 C1201 0.950 . S
H1179 C1203 0.950 . S
H1180 C1204 0.950 . S
H1181 C1205 0.951 . S
H1182 C1207 0.951 . S
H1183 C1209 0.950 . S
H1184 C1210 0.950 . S
H1185 C1212 0.950 . S
H1186 C1215 0.950 . S
H1187 C1216 0.950 . S
H1188 C1218 0.950 . S
H1189 C1219 0.950 . S
C1190 H1172 0.951 . S
C1190 C1191 1.366 . S
C1190 C1192 1.388 . S
C1191 C1190 1.366 . S
C1191 C1195 1.385 . S
C1192 H1173 0.951 . S
C1192 C1190 1.388 . S
C1192 C1193 1.366 . S
C1193 C1192 1.366 . S
C1193 C1194 1.414 . S
C1193 C1196 1.499 . S
C1194 H1174 0.950 . S
C1194 C1193 1.414 . S
C1194 C1195 1.374 . S
C1195 H1175 0.950 . S
C1195 C1191 1.385 . S
C1195 C1194 1.374 . S
C1196 C1193 1.499 . S
C1196 C1197 1.373 . S
C1196 C1198 1.389 . S
C1197 H1176 0.950 . S
C1197 C1196 1.373 . S
C1197 C1213 1.377 . S
C1198 C1196 1.389 . S
C1198 C1199 1.524 . S
C1198 C1212 1.377 . S
C1199 C1198 1.524 . S
C1199 C1200 1.397 . S
C1199 C1204 1.363 . S
C1200 H1177 0.950 . S
C1200 C1199 1.397 . S
C1200 C1201 1.334 . S
C1201 H1178 0.950 . S
C1201 C1200 1.334 . S
C1201 C1202 1.287 . S
C1202 C1201 1.287 . S
C1202 C1203 1.524 . S
C1202 H1221 0.913 . S
C1203 H1179 0.950 . S
C1203 C1202 1.524 . S
C1203 C1204 1.415 . S
C1204 H1180 0.950 . S
C1204 C1199 1.363 . S
C1204 C1203 1.415 . S
C1205 H1181 0.951 . S
C1205 C1206 1.366 . S
C1205 C1207 1.388 . S
C1206 C1205 1.366 . S
C1206 C1210 1.385 . S
C1207 H1182 0.951 . S
C1207 C1205 1.388 . S
C1207 C1208 1.366 . S
C1208 C1207 1.366 . S
C1208 C1209 1.414 . S
C1208 C1211 1.499 . S
C1209 H1183 0.950 . S
C1209 C1208 1.414 . S
C1209 C1210 1.374 . S
C1210 H1184 0.950 . S
C1210 C1206 1.385 . S
C1210 C1209 1.374 . S
C1211 C1208 1.499 . S
C1211 C1212 1.373 . S
C1211 C1213 1.389 . S
C1212 H1185 0.950 . S
C1212 C1198 1.377 . S
C1212 C1211 1.373 . S
C1213 C1197 1.377 . S
C1213 C1211 1.389 . S
C1213 C1214 1.524 . S
C1214 C1213 1.524 . S
C1214 C1215 1.397 . S
C1214 C1219 1.363 . S
C1215 H1186 0.950 . S
C1215 C1214 1.397 . S
C1215 C1216 1.334 . S
C1216 H1187 0.950 . S
C1216 C1215 1.334 . S
C1216 C1217 1.287 . S
C1217 C1216 1.287 . S
C1217 C1218 1.524 . S
C1217 H1220 0.999 . S
C1218 H1188 0.950 . S
C1218 C1217 1.524 . S
C1218 C1219 1.415 . S
C1219 H1189 0.950 . S
C1219 C1214 1.363 . S
C1219 C1218 1.415 . S
H1220 C1217 0.999 . S
H1221 C1202 0.913 . S
H1222 C1240 0.951 . S
H1223 C1242 0.951 . S
H1224 C1244 0.950 . S
H1225 C1245 0.950 . S
H1226 C1247 0.950 . S
H1227 C1250 0.950 . S
H1228 C1251 0.950 . S
H1229 C1253 0.950 . S
H1230 C1254 0.950 . S
H1231 C1255 0.951 . S
H1232 C1257 0.951 . S
H1233 C1259 0.950 . S
H1234 C1260 0.950 . S
H1235 C1262 0.950 . S
H1236 C1265 0.950 . S
H1237 C1266 0.950 . S
H1238 C1268 0.950 . S
H1239 C1269 0.950 . S
C1240 H1222 0.951 . S
C1240 C1241 1.366 . S
C1240 C1242 1.388 . S
C1241 C1240 1.366 . S
C1241 C1245 1.385 . S
C1242 H1223 0.951 . S
C1242 C1240 1.388 . S
C1242 C1243 1.366 . S
C1243 C1242 1.366 . S
C1243 C1244 1.414 . S
C1243 C1246 1.499 . S
C1244 H1224 0.950 . S
C1244 C1243 1.414 . S
C1244 C1245 1.374 . S
C1245 H1225 0.950 . S
C1245 C1241 1.385 . S
C1245 C1244 1.374 . S
C1246 C1243 1.499 . S
C1246 C1247 1.373 . S
C1246 C1248 1.389 . S
C1247 H1226 0.950 . S
C1247 C1246 1.373 . S
C1247 C1263 1.377 . S
C1248 C1246 1.389 . S
C1248 C1249 1.524 . S
C1248 C1262 1.377 . S
C1249 C1248 1.524 . S
C1249 C1250 1.397 . S
C1249 C1254 1.363 . S
C1250 H1227 0.950 . S
C1250 C1249 1.397 . S
C1250 C1251 1.334 . S
C1251 H1228 0.950 . S
C1251 C1250 1.334 . S
C1251 C1252 1.287 . S
C1252 C1251 1.287 . S
C1252 C1253 1.524 . S
C1252 H1271 0.913 . S
C1253 H1229 0.950 . S
C1253 C1252 1.524 . S
C1253 C1254 1.415 . S
C1254 H1230 0.950 . S
C1254 C1249 1.363 . S
C1254 C1253 1.415 . S
C1255 H1231 0.951 . S
C1255 C1256 1.366 . S
C1255 C1257 1.388 . S
C1256 C1255 1.366 . S
C1256 C1260 1.385 . S
C1257 H1232 0.951 . S
C1257 C1255 1.388 . S
C1257 C1258 1.366 . S
C1258 C1257 1.366 . S
C1258 C1259 1.414 . S
C1258 C1261 1.499 . S
C1259 H1233 0.950 . S
C1259 C1258 1.414 . S
C1259 C1260 1.374 . S
C1260 H1234 0.950 . S
C1260 C1256 1.385 . S
C1260 C1259 1.374 . S
C1261 C1258 1.499 . S
C1261 C1262 1.373 . S
C1261 C1263 1.389 . S
C1262 H1235 0.950 . S
C1262 C1248 1.377 . S
C1262 C1261 1.373 . S
C1263 C1247 1.377 . S
C1263 C1261 1.389 . S
C1263 C1264 1.524 . S
C1264 C1263 1.524 . S
C1264 C1265 1.397 . S
C1264 C1269 1.363 . S
C1265 H1236 0.950 . S
C1265 C1264 1.397 . S
C1265 C1266 1.334 . S
C1266 H1237 0.950 . S
C1266 C1265 1.334 . S
C1266 C1267 1.287 . S
C1267 C1266 1.287 . S
C1267 C1268 1.524 . S
C1267 H1270 0.999 . S
C1268 H1238 0.950 . S
C1268 C1267 1.524 . S
C1268 C1269 1.415 . S
C1269 H1239 0.950 . S
C1269 C1264 1.363 . S
C1269 C1268 1.415 . S
H1270 C1267 0.999 . S
H1271 C1252 0.913 . S
H1272 C1290 0.951 . S
H1273 C1292 0.951 . S
H1274 C1294 0.950 . S
H1275 C1295 0.950 . S
H1276 C1297 0.950 . S
H1277 C1300 0.950 . S
H1278 C1301 0.950 . S
H1279 C1303 0.950 . S
H1280 C1304 0.950 . S
H1281 C1305 0.951 . S
H1282 C1307 0.951 . S
H1283 C1309 0.950 . S
H1284 C1310 0.950 . S
H1285 C1312 0.950 . S
H1286 C1315 0.950 . S
H1287 C1316 0.950 . S
H1288 C1318 0.950 . S
H1289 C1319 0.950 . S
C1290 H1272 0.951 . S
C1290 C1291 1.366 . S
C1290 C1292 1.388 . S
C1291 C1290 1.366 . S
C1291 C1295 1.385 . S
C1292 H1273 0.951 . S
C1292 C1290 1.388 . S
C1292 C1293 1.366 . S
C1293 C1292 1.366 . S
C1293 C1294 1.414 . S
C1293 C1296 1.499 . S
C1294 H1274 0.950 . S
C1294 C1293 1.414 . S
C1294 C1295 1.374 . S
C1295 H1275 0.950 . S
C1295 C1291 1.385 . S
C1295 C1294 1.374 . S
C1296 C1293 1.499 . S
C1296 C1297 1.373 . S
C1296 C1298 1.389 . S
C1297 H1276 0.950 . S
C1297 C1296 1.373 . S
C1297 C1313 1.377 . S
C1298 C1296 1.389 . S
C1298 C1299 1.524 . S
C1298 C1312 1.377 . S
C1299 C1298 1.524 . S
C1299 C1300 1.397 . S
C1299 C1304 1.363 . S
C1300 H1277 0.950 . S
C1300 C1299 1.397 . S
C1300 C1301 1.334 . S
C1301 H1278 0.950 . S
C1301 C1300 1.334 . S
C1301 C1302 1.287 . S
C1302 C1301 1.287 . S
C1302 C1303 1.524 . S
C1302 H1321 0.913 . S
C1303 H1279 0.950 . S
C1303 C1302 1.524 . S
C1303 C1304 1.415 . S
C1304 H1280 0.950 . S
C1304 C1299 1.363 . S
C1304 C1303 1.415 . S
C1305 H1281 0.951 . S
C1305 C1306 1.366 . S
C1305 C1307 1.388 . S
C1306 C1305 1.366 . S
C1306 C1310 1.385 . S
C1307 H1282 0.951 . S
C1307 C1305 1.388 . S
C1307 C1308 1.366 . S
C1308 C1307 1.366 . S
C1308 C1309 1.414 . S
C1308 C1311 1.499 . S
C1309 H1283 0.950 . S
C1309 C1308 1.414 . S
C1309 C1310 1.374 . S
C1310 H1284 0.950 . S
C1310 C1306 1.385 . S
C1310 C1309 1.374 . S
C1311 C1308 1.499 . S
C1311 C1312 1.373 . S
C1311 C1313 1.389 . S
C1312 H1285 0.950 . S
C1312 C1298 1.377 . S
C1312 C1311 1.373 . S
C1313 C1297 1.377 . S
C1313 C1311 1.389 . S
C1313 C1314 1.524 . S
C1314 C1313 1.524 . S
C1314 C1315 1.397 . S
C1314 C1319 1.363 . S
C1315 H1286 0.950 . S
C1315 C1314 1.397 . S
C1315 C1316 1.334 . S
C1316 H1287 0.950 . S
C1316 C1315 1.334 . S
C1316 C1317 1.287 . S
C1317 C1316 1.287 . S
C1317 C1318 1.524 . S
C1317 H1320 0.999 . S
C1318 H1288 0.950 . S
C1318 C1317 1.524 . S
C1318 C1319 1.415 . S
C1319 H1289 0.950 . S
C1319 C1314 1.363 . S
C1319 C1318 1.415 . S
H1320 C1317 0.999 . S
H1321 C1302 0.913 . S
H1322 C1340 0.951 . S
H1323 C1342 0.951 . S
H1324 C1344 0.950 . S
H1325 C1345 0.950 . S
H1326 C1347 0.950 . S
H1327 C1350 0.950 . S
H1328 C1351 0.950 . S
H1329 C1353 0.950 . S
H1330 C1354 0.950 . S
H1331 C1355 0.951 . S
H1332 C1357 0.951 . S
H1333 C1359 0.950 . S
H1334 C1360 0.950 . S
H1335 C1362 0.950 . S
H1336 C1365 0.950 . S
H1337 C1366 0.950 . S
H1338 C1368 0.950 . S
H1339 C1369 0.950 . S
C1340 H1322 0.951 . S
C1340 C1341 1.366 . S
C1340 C1342 1.388 . S
C1341 C1340 1.366 . S
C1341 C1345 1.385 . S
C1342 H1323 0.951 . S
C1342 C1340 1.388 . S
C1342 C1343 1.366 . S
C1343 C1342 1.366 . S
C1343 C1344 1.414 . S
C1343 C1346 1.499 . S
C1344 H1324 0.950 . S
C1344 C1343 1.414 . S
C1344 C1345 1.374 . S
C1345 H1325 0.950 . S
C1345 C1341 1.385 . S
C1345 C1344 1.374 . S
C1346 C1343 1.499 . S
C1346 C1347 1.373 . S
C1346 C1348 1.389 . S
C1347 H1326 0.950 . S
C1347 C1346 1.373 . S
C1347 C1363 1.377 . S
C1348 C1346 1.389 . S
C1348 C1349 1.524 . S
C1348 C1362 1.377 . S
C1349 C1348 1.524 . S
C1349 C1350 1.397 . S
C1349 C1354 1.363 . S
C1350 H1327 0.950 . S
C1350 C1349 1.397 . S
C1350 C1351 1.334 . S
C1351 H1328 0.950 . S
C1351 C1350 1.334 . S
C1351 C1352 1.287 . S
C1352 C1351 1.287 . S
C1352 C1353 1.524 . S
C1352 H1371 0.913 . S
C1353 H1329 0.950 . S
C1353 C1352 1.524 . S
C1353 C1354 1.415 . S
C1354 H1330 0.950 . S
C1354 C1349 1.363 . S
C1354 C1353 1.415 . S
C1355 H1331 0.951 . S
C1355 C1356 1.366 . S
C1355 C1357 1.388 . S
C1356 C1355 1.366 . S
C1356 C1360 1.385 . S
C1357 H1332 0.951 . S
C1357 C1355 1.388 . S
C1357 C1358 1.366 . S
C1358 C1357 1.366 . S
C1358 C1359 1.414 . S
C1358 C1361 1.499 . S
C1359 H1333 0.950 . S
C1359 C1358 1.414 . S
C1359 C1360 1.374 . S
C1360 H1334 0.950 . S
C1360 C1356 1.385 . S
C1360 C1359 1.374 . S
C1361 C1358 1.499 . S
C1361 C1362 1.373 . S
C1361 C1363 1.389 . S
C1362 H1335 0.950 . S
C1362 C1348 1.377 . S
C1362 C1361 1.373 . S
C1363 C1347 1.377 . S
C1363 C1361 1.389 . S
C1363 C1364 1.524 . S
C1364 C1363 1.524 . S
C1364 C1365 1.397 . S
C1364 C1369 1.363 . S
C1365 H1336 0.950 . S
C1365 C1364 1.397 . S
C1365 C1366 1.334 . S
C1366 H1337 0.950 . S
C1366 C1365 1.334 . S
C1366 C1367 1.287 . S
C1367 C1366 1.287 . S
C1367 C1368 1.524 . S
C1367 H1370 0.999 . S
C1368 H1338 0.950 . S
C1368 C1367 1.524 . S
C1368 C1369 1.415 . S
C1369 H1339 0.950 . S
C1369 C1364 1.363 . S
C1369 C1368 1.415 . S
H1370 C1367 0.999 . S
H1371 C1352 0.913 . S
H1372 C1390 0.951 . S
H1373 C1392 0.951 . S
H1374 C1394 0.950 . S
H1375 C1395 0.950 . S
H1376 C1397 0.950 . S
H1377 C1400 0.950 . S
H1378 C1401 0.950 . S
H1379 C1403 0.950 . S
H1380 C1404 0.950 . S
H1381 C1405 0.951 . S
H1382 C1407 0.951 . S
H1383 C1409 0.950 . S
H1384 C1410 0.950 . S
H1385 C1412 0.950 . S
H1386 C1415 0.950 . S
H1387 C1416 0.950 . S
H1388 C1418 0.950 . S
H1389 C1419 0.950 . S
C1390 H1372 0.951 . S
C1390 C1391 1.366 . S
C1390 C1392 1.388 . S
C1391 C1390 1.366 . S
C1391 C1395 1.385 . S
C1392 H1373 0.951 . S
C1392 C1390 1.388 . S
C1392 C1393 1.366 . S
C1393 C1392 1.366 . S
C1393 C1394 1.414 . S
C1393 C1396 1.499 . S
C1394 H1374 0.950 . S
C1394 C1393 1.414 . S
C1394 C1395 1.374 . S
C1395 H1375 0.950 . S
C1395 C1391 1.385 . S
C1395 C1394 1.374 . S
C1396 C1393 1.499 . S
C1396 C1397 1.373 . S
C1396 C1398 1.389 . S
C1397 H1376 0.950 . S
C1397 C1396 1.373 . S
C1397 C1413 1.377 . S
C1398 C1396 1.389 . S
C1398 C1399 1.524 . S
C1398 C1412 1.377 . S
C1399 C1398 1.524 . S
C1399 C1400 1.397 . S
C1399 C1404 1.363 . S
C1400 H1377 0.950 . S
C1400 C1399 1.397 . S
C1400 C1401 1.334 . S
C1401 H1378 0.950 . S
C1401 C1400 1.334 . S
C1401 C1402 1.287 . S
C1402 C1401 1.287 . S
C1402 C1403 1.524 . S
C1402 H1421 0.913 . S
C1403 H1379 0.950 . S
C1403 C1402 1.524 . S
C1403 C1404 1.415 . S
C1404 H1380 0.950 . S
C1404 C1399 1.363 . S
C1404 C1403 1.415 . S
C1405 H1381 0.951 . S
C1405 C1406 1.366 . S
C1405 C1407 1.388 . S
C1406 C1405 1.366 . S
C1406 C1410 1.385 . S
C1407 H1382 0.951 . S
C1407 C1405 1.388 . S
C1407 C1408 1.366 . S
C1408 C1407 1.366 . S
C1408 C1409 1.414 . S
C1408 C1411 1.499 . S
C1409 H1383 0.950 . S
C1409 C1408 1.414 . S
C1409 C1410 1.374 . S
C1410 H1384 0.950 . S
C1410 C1406 1.385 . S
C1410 C1409 1.374 . S
C1411 C1408 1.499 . S
C1411 C1412 1.373 . S
C1411 C1413 1.389 . S
C1412 H1385 0.950 . S
C1412 C1398 1.377 . S
C1412 C1411 1.373 . S
C1413 C1397 1.377 . S
C1413 C1411 1.389 . S
C1413 C1414 1.524 . S
C1414 C1413 1.524 . S
C1414 C1415 1.397 . S
C1414 C1419 1.363 . S
C1415 H1386 0.950 . S
C1415 C1414 1.397 . S
C1415 C1416 1.334 . S
C1416 H1387 0.950 . S
C1416 C1415 1.334 . S
C1416 C1417 1.287 . S
C1417 C1416 1.287 . S
C1417 C1418 1.524 . S
C1417 H1420 0.999 . S
C1418 H1388 0.950 . S
C1418 C1417 1.524 . S
C1418 C1419 1.415 . S
C1419 H1389 0.950 . S
C1419 C1414 1.363 . S
C1419 C1418 1.415 . S
H1420 C1417 0.999 . S
H1421 C1402 0.913 . S
H1422 C1440 0.951 . S
H1423 C1442 0.951 . S
H1424 C1444 0.950 . S
H1425 C1445 0.950 . S
H1426 C1447 0.950 . S
H1427 C1450 0.950 . S
H1428 C1451 0.950 . S
H1429 C1453 0.950 . S
H1430 C1454 0.950 . S
H1431 C1455 0.951 . S
H1432 C1457 0.951 . S
H1433 C1459 0.950 . S
H1434 C1460 0.950 . S
H1435 C1462 0.950 . S
H1436 C1465 0.950 . S
H1437 C1466 0.950 . S
H1438 C1468 0.950 . S
H1439 C1469 0.950 . S
C1440 H1422 0.951 . S
C1440 C1441 1.366 . S
C1440 C1442 1.388 . S
C1441 C1440 1.366 . S
C1441 C1445 1.385 . S
C1442 H1423 0.951 . S
C1442 C1440 1.388 . S
C1442 C1443 1.366 . S
C1443 C1442 1.366 . S
C1443 C1444 1.414 . S
C1443 C1446 1.499 . S
C1444 H1424 0.950 . S
C1444 C1443 1.414 . S
C1444 C1445 1.374 . S
C1445 H1425 0.950 . S
C1445 C1441 1.385 . S
C1445 C1444 1.374 . S
C1446 C1443 1.499 . S
C1446 C1447 1.373 . S
C1446 C1448 1.389 . S
C1447 H1426 0.950 . S
C1447 C1446 1.373 . S
C1447 C1463 1.377 . S
C1448 C1446 1.389 . S
C1448 C1449 1.524 . S
C1448 C1462 1.377 . S
C1449 C1448 1.524 . S
C1449 C1450 1.397 . S
C1449 C1454 1.363 . S
C1450 H1427 0.950 . S
C1450 C1449 1.397 . S
C1450 C1451 1.334 . S
C1451 H1428 0.950 . S
C1451 C1450 1.334 . S
C1451 C1452 1.287 . S
C1452 C1451 1.287 . S
C1452 C1453 1.524 . S
C1452 H1471 0.913 . S
C1453 H1429 0.950 . S
C1453 C1452 1.524 . S
C1453 C1454 1.415 . S
C1454 H1430 0.950 . S
C1454 C1449 1.363 . S
C1454 C1453 1.415 . S
C1455 H1431 0.951 . S
C1455 C1456 1.366 . S
C1455 C1457 1.388 . S
C1456 C1455 1.366 . S
C1456 C1460 1.385 . S
C1457 H1432 0.951 . S
C1457 C1455 1.388 . S
C1457 C1458 1.366 . S
C1458 C1457 1.366 . S
C1458 C1459 1.414 . S
C1458 C1461 1.499 . S
C1459 H1433 0.950 . S
C1459 C1458 1.414 . S
C1459 C1460 1.374 . S
C1460 H1434 0.950 . S
C1460 C1456 1.385 . S
C1460 C1459 1.374 . S
C1461 C1458 1.499 . S
C1461 C1462 1.373 . S
C1461 C1463 1.389 . S
C1462 H1435 0.950 . S
C1462 C1448 1.377 . S
C1462 C1461 1.373 . S
C1463 C1447 1.377 . S
C1463 C1461 1.389 . S
C1463 C1464 1.524 . S
C1464 C1463 1.524 . S
C1464 C1465 1.397 . S
C1464 C1469 1.363 . S
C1465 H1436 0.950 . S
C1465 C1464 1.397 . S
C1465 C1466 1.334 . S
C1466 H1437 0.950 . S
C1466 C1465 1.334 . S
C1466 C1467 1.287 . S
C1467 C1466 1.287 . S
C1467 C1468 1.524 . S
C1467 H1470 0.999 . S
C1468 H1438 0.950 . S
C1468 C1467 1.524 . S
C1468 C1469 1.415 . S
C1469 H1439 0.950 . S
C1469 C1464 1.363 . S
C1469 C1468 1.415 . S
H1470 C1467 0.999 . S
H1471 C1452 0.913 . S
H1472 C1490 0.951 . S
H1473 C1492 0.951 . S
H1474 C1494 0.950 . S
H1475 C1495 0.950 . S
H1476 C1497 0.950 . S
H1477 C1500 0.950 . S
H1478 C1501 0.950 . S
H1479 C1503 0.950 . S
H1480 C1504 0.950 . S
H1481 C1505 0.951 . S
H1482 C1507 0.951 . S
H1483 C1509 0.950 . S
H1484 C1510 0.950 . S
H1485 C1512 0.950 . S
H1486 C1515 0.950 . S
H1487 C1516 0.950 . S
H1488 C1518 0.950 . S
H1489 C1519 0.950 . S
C1490 H1472 0.951 . S
C1490 C1491 1.366 . S
C1490 C1492 1.388 . S
C1491 C1490 1.366 . S
C1491 C1495 1.385 . S
C1492 H1473 0.951 . S
C1492 C1490 1.388 . S
C1492 C1493 1.366 . S
C1493 C1492 1.366 . S
C1493 C1494 1.414 . S
C1493 C1496 1.499 . S
C1494 H1474 0.950 . S
C1494 C1493 1.414 . S
C1494 C1495 1.374 . S
C1495 H1475 0.950 . S
C1495 C1491 1.385 . S
C1495 C1494 1.374 . S
C1496 C1493 1.499 . S
C1496 C1497 1.373 . S
C1496 C1498 1.389 . S
C1497 H1476 0.950 . S
C1497 C1496 1.373 . S
C1497 C1513 1.377 . S
C1498 C1496 1.389 . S
C1498 C1499 1.524 . S
C1498 C1512 1.377 . S
C1499 C1498 1.524 . S
C1499 C1500 1.397 . S
C1499 C1504 1.363 . S
C1500 H1477 0.950 . S
C1500 C1499 1.397 . S
C1500 C1501 1.334 . S
C1501 H1478 0.950 . S
C1501 C1500 1.334 . S
C1501 C1502 1.287 . S
C1502 C1501 1.287 . S
C1502 C1503 1.524 . S
C1502 H1521 0.913 . S
C1503 H1479 0.950 . S
C1503 C1502 1.524 . S
C1503 C1504 1.415 . S
C1504 H1480 0.950 . S
C1504 C1499 1.363 . S
C1504 C1503 1.415 . S
C1505 H1481 0.951 . S
C1505 C1506 1.366 . S
C1505 C1507 1.388 . S
C1506 C1505 1.366 . S
C1506 C1510 1.385 . S
C1507 H1482 0.951 . S
C1507 C1505 1.388 . S
C1507 C1508 1.366 . S
C1508 C1507 1.366 . S
C1508 C1509 1.414 . S
C1508 C1511 1.499 . S
C1509 H1483 0.950 . S
C1509 C1508 1.414 . S
C1509 C1510 1.374 . S
C1510 H1484 0.950 . S
C1510 C1506 1.385 . S
C1510 C1509 1.374 . S
C1511 C1508 1.499 . S
C1511 C1512 1.373 . S
C1511 C1513 1.389 . S
C1512 H1485 0.950 . S
C1512 C1498 1.377 . S
C1512 C1511 1.373 . S
C1513 C1497 1.377 . S
C1513 C1511 1.389 . S
C1513 C1514 1.524 . S
C1514 C1513 1.524 . S
C1514 C1515 1.397 . S
C1514 C1519 1.363 . S
C1515 H1486 0.950 . S
C1515 C1514 1.397 . S
C1515 C1516 1.334 . S
C1516 H1487 0.950 . S
C1516 C1515 1.334 . S
C1516 C1517 1.287 . S
C1517 C1516 1.287 . S
C1517 C1518 1.524 . S
C1517 H1520 0.999 . S
C1518 H1488 0.950 . S
C1518 C1517 1.524 . S
C1518 C1519 1.415 . S
C1519 H1489 0.950 . S
C1519 C1514 1.363 . S
C1519 C1518 1.415 . S
H1520 C1517 0.999 . S
H1521 C1502 0.913 . S
H1522 C1540 0.951 . S
H1523 C1542 0.951 . S
H1524 C1544 0.950 . S
H1525 C1545 0.950 . S
H1526 C1547 0.950 . S
H1527 C1550 0.950 . S
H1528 C1551 0.950 . S
H1529 C1553 0.950 . S
H1530 C1554 0.950 . S
H1531 C1555 0.951 . S
H1532 C1557 0.951 . S
H1533 C1559 0.950 . S
H1534 C1560 0.950 . S
H1535 C1562 0.950 . S
H1536 C1565 0.950 . S
H1537 C1566 0.950 . S
H1538 C1568 0.950 . S
H1539 C1569 0.950 . S
C1540 H1522 0.951 . S
C1540 C1541 1.366 . S
C1540 C1542 1.388 . S
C1541 C1540 1.366 . S
C1541 C1545 1.385 . S
C1542 H1523 0.951 . S
C1542 C1540 1.388 . S
C1542 C1543 1.366 . S
C1543 C1542 1.366 . S
C1543 C1544 1.414 . S
C1543 C1546 1.499 . S
C1544 H1524 0.950 . S
C1544 C1543 1.414 . S
C1544 C1545 1.374 . S
C1545 H1525 0.950 . S
C1545 C1541 1.385 . S
C1545 C1544 1.374 . S
C1546 C1543 1.499 . S
C1546 C1547 1.373 . S
C1546 C1548 1.389 . S
C1547 H1526 0.950 . S
C1547 C1546 1.373 . S
C1547 C1563 1.377 . S
C1548 C1546 1.389 . S
C1548 C1549 1.524 . S
C1548 C1562 1.377 . S
C1549 C1548 1.524 . S
C1549 C1550 1.397 . S
C1549 C1554 1.363 . S
C1550 H1527 0.950 . S
C1550 C1549 1.397 . S
C1550 C1551 1.334 . S
C1551 H1528 0.950 . S
C1551 C1550 1.334 . S
C1551 C1552 1.287 . S
C1552 C1551 1.287 . S
C1552 C1553 1.524 . S
C1552 H1571 0.913 . S
C1553 H1529 0.950 . S
C1553 C1552 1.524 . S
C1553 C1554 1.415 . S
C1554 H1530 0.950 . S
C1554 C1549 1.363 . S
C1554 C1553 1.415 . S
C1555 H1531 0.951 . S
C1555 C1556 1.366 . S
C1555 C1557 1.388 . S
C1556 C1555 1.366 . S
C1556 C1560 1.385 . S
C1557 H1532 0.951 . S
C1557 C1555 1.388 . S
C1557 C1558 1.366 . S
C1558 C1557 1.366 . S
C1558 C1559 1.414 . S
C1558 C1561 1.499 . S
C1559 H1533 0.950 . S
C1559 C1558 1.414 . S
C1559 C1560 1.374 . S
C1560 H1534 0.950 . S
C1560 C1556 1.385 . S
C1560 C1559 1.374 . S
C1561 C1558 1.499 . S
C1561 C1562 1.373 . S
C1561 C1563 1.389 . S
C1562 H1535 0.950 . S
C1562 C1548 1.377 . S
C1562 C1561 1.373 . S
C1563 C1547 1.377 . S
C1563 C1561 1.389 . S
C1563 C1564 1.524 . S
C1564 C1563 1.524 . S
C1564 C1565 1.397 . S
C1564 C1569 1.363 . S
C1565 H1536 0.950 . S
C1565 C1564 1.397 . S
C1565 C1566 1.334 . S
C1566 H1537 0.950 . S
C1566 C1565 1.334 . S
C1566 C1567 1.287 . S
C1567 C1566 1.287 . S
C1567 C1568 1.524 . S
C1567 H1570 0.999 . S
C1568 H1538 0.950 . S
C1568 C1567 1.524 . S
C1568 C1569 1.415 . S
C1569 H1539 0.950 . S
C1569 C1564 1.363 . S
C1569 C1568 1.415 . S
H1570 C1567 0.999 . S
H1571 C1552 0.913 . S
H1572 C1590 0.951 . S
H1573 C1592 0.951 . S
H1574 C1594 0.950 . S
H1575 C1595 0.950 . S
H1576 C1597 0.950 . S
H1577 C1600 0.950 . S
H1578 C1601 0.950 . S
H1579 C1603 0.950 . S
H1580 C1604 0.950 . S
H1581 C1605 0.951 . S
H1582 C1607 0.951 . S
H1583 C1609 0.950 . S
H1584 C1610 0.950 . S
H1585 C1612 0.950 . S
H1586 C1615 0.950 . S
H1587 C1616 0.950 . S
H1588 C1618 0.950 . S
H1589 C1619 0.950 . S
C1590 H1572 0.951 . S
C1590 C1591 1.366 . S
C1590 C1592 1.388 . S
C1591 C1590 1.366 . S
C1591 C1595 1.385 . S
C1592 H1573 0.951 . S
C1592 C1590 1.388 . S
C1592 C1593 1.366 . S
C1593 C1592 1.366 . S
C1593 C1594 1.414 . S
C1593 C1596 1.499 . S
C1594 H1574 0.950 . S
C1594 C1593 1.414 . S
C1594 C1595 1.374 . S
C1595 H1575 0.950 . S
C1595 C1591 1.385 . S
C1595 C1594 1.374 . S
C1596 C1593 1.499 . S
C1596 C1597 1.373 . S
C1596 C1598 1.389 . S
C1597 H1576 0.950 . S
C1597 C1596 1.373 . S
C1597 C1613 1.377 . S
C1598 C1596 1.389 . S
C1598 C1599 1.524 . S
C1598 C1612 1.377 . S
C1599 C1598 1.524 . S
C1599 C1600 1.397 . S
C1599 C1604 1.363 . S
C1600 H1577 0.950 . S
C1600 C1599 1.397 . S
C1600 C1601 1.334 . S
C1601 H1578 0.950 . S
C1601 C1600 1.334 . S
C1601 C1602 1.287 . S
C1602 C1601 1.287 . S
C1602 C1603 1.524 . S
C1602 H1621 0.913 . S
C1603 H1579 0.950 . S
C1603 C1602 1.524 . S
C1603 C1604 1.415 . S
C1604 H1580 0.950 . S
C1604 C1599 1.363 . S
C1604 C1603 1.415 . S
C1605 H1581 0.951 . S
C1605 C1606 1.366 . S
C1605 C1607 1.388 . S
C1606 C1605 1.366 . S
C1606 C1610 1.385 . S
C1607 H1582 0.951 . S
C1607 C1605 1.388 . S
C1607 C1608 1.366 . S
C1608 C1607 1.366 . S
C1608 C1609 1.414 . S
C1608 C1611 1.499 . S
C1609 H1583 0.950 . S
C1609 C1608 1.414 . S
C1609 C1610 1.374 . S
C1610 H1584 0.950 . S
C1610 C1606 1.385 . S
C1610 C1609 1.374 . S
C1611 C1608 1.499 . S
C1611 C1612 1.373 . S
C1611 C1613 1.389 . S
C1612 H1585 0.950 . S
C1612 C1598 1.377 . S
C1612 C1611 1.373 . S
C1613 C1597 1.377 . S
C1613 C1611 1.389 . S
C1613 C1614 1.524 . S
C1614 C1613 1.524 . S
C1614 C1615 1.397 . S
C1614 C1619 1.363 . S
C1615 H1586 0.950 . S
C1615 C1614 1.397 . S
C1615 C1616 1.334 . S
C1616 H1587 0.950 . S
C1616 C1615 1.334 . S
C1616 C1617 1.287 . S
C1617 C1616 1.287 . S
C1617 C1618 1.524 . S
C1617 H1620 0.999 . S
C1618 H1588 0.950 . S
C1618 C1617 1.524 . S
C1618 C1619 1.415 . S
C1619 H1589 0.950 . S
C1619 C1614 1.363 . S
C1619 C1618 1.415 . S
H1620 C1617 0.999 . S
H1621 C1602 0.913 . S
H1622 C1640 0.951 . S
H1623 C1642 0.951 . S
H1624 C1644 0.950 . S
H1625 C1645 0.950 . S
H1626 C1647 0.950 . S
H1627 C1650 0.950 . S
H1628 C1651 0.950 . S
H1629 C1653 0.950 . S
H1630 C1654 0.950 . S
H1631 C1655 0.951 . S
H1632 C1657 0.951 . S
H1633 C1659 0.950 . S
H1634 C1660 0.950 . S
H1635 C1662 0.950 . S
H1636 C1665 0.950 . S
H1637 C1666 0.950 . S
H1638 C1668 0.950 . S
H1639 C1669 0.950 . S
C1640 H1622 0.951 . S
C1640 C1641 1.366 . S
C1640 C1642 1.388 . S
C1641 C1640 1.366 . S
C1641 C1645 1.385 . S
C1642 H1623 0.951 . S
C1642 C1640 1.388 . S
C1642 C1643 1.366 . S
C1643 C1642 1.366 . S
C1643 C1644 1.414 . S
C1643 C1646 1.499 . S
C1644 H1624 0.950 . S
C1644 C1643 1.414 . S
C1644 C1645 1.374 . S
C1645 H1625 0.950 . S
C1645 C1641 1.385 . S
C1645 C1644 1.374 . S
C1646 C1643 1.499 . S
C1646 C1647 1.373 . S
C1646 C1648 1.389 . S
C1647 H1626 0.950 . S
C1647 C1646 1.373 . S
C1647 C1663 1.377 . S
C1648 C1646 1.389 . S
C1648 C1649 1.524 . S
C1648 C1662 1.377 . S
C1649 C1648 1.524 . S
C1649 C1650 1.397 . S
C1649 C1654 1.363 . S
C1650 H1627 0.950 . S
C1650 C1649 1.397 . S
C1650 C1651 1.334 . S
C1651 H1628 0.950 . S
C1651 C1650 1.334 . S
C1651 C1652 1.287 . S
C1652 C1651 1.287 . S
C1652 C1653 1.524 . S
C1652 H1671 0.913 . S
C1653 H1629 0.950 . S
C1653 C1652 1.524 . S
C1653 C1654 1.415 . S
C1654 H1630 0.950 . S
C1654 C1649 1.363 . S
C1654 C1653 1.415 . S
C1655 H1631 0.951 . S
C1655 C1656 1.366 . S
C1655 C1657 1.388 . S
C1656 C1655 1.366 . S
C1656 C1660 1.385 . S
C1657 H1632 0.951 . S
C1657 C1655 1.388 . S
C1657 C1658 1.366 . S
C1658 C1657 1.366 . S
C1658 C1659 1.414 . S
C1658 C1661 1.499 . S
C1659 H1633 0.950 . S
C1659 C1658 1.414 . S
C1659 C1660 1.374 . S
C1660 H1634 0.950 . S
C1660 C1656 1.385 . S
C1660 C1659 1.374 . S
C1661 C1658 1.499 . S
C1661 C1662 1.373 . S
C1661 C1663 1.389 . S
C1662 H1635 0.950 . S
C1662 C1648 1.377 . S
C1662 C1661 1.373 . S
C1663 C1647 1.377 . S
C1663 C1661 1.389 . S
C1663 C1664 1.524 . S
C1664 C1663 1.524 . S
C1664 C1665 1.397 . S
C1664 C1669 1.363 . S
C1665 H1636 0.950 . S
C1665 C1664 1.397 . S
C1665 C1666 1.334 . S
C1666 H1637 0.950 . S
C1666 C1665 1.334 . S
C1666 C1667 1.287 . S
C1667 C1666 1.287 . S
C1667 C1668 1.524 . S
C1667 H1670 0.999 . S
C1668 H1638 0.950 . S
C1668 C1667 1.524 . S
C1668 C1669 1.415 . S
C1669 H1639 0.950 . S
C1669 C1664 1.363 . S
C1669 C1668 1.415 . S
H1670 C1667 0.999 . S
H1671 C1652 0.913 . S
H1672 C1690 0.951 . S
H1673 C1692 0.951 . S
H1674 C1694 0.950 . S
H1675 C1695 0.950 . S
H1676 C1697 0.950 . S
H1677 C1700 0.950 . S
H1678 C1701 0.950 . S
H1679 C1703 0.950 . S
H1680 C1704 0.950 . S
H1681 C1705 0.951 . S
H1682 C1707 0.951 . S
H1683 C1709 0.950 . S
H1684 C1710 0.950 . S
H1685 C1712 0.950 . S
H1686 C1715 0.950 . S
H1687 C1716 0.950 . S
H1688 C1718 0.950 . S
H1689 C1719 0.950 . S
C1690 H1672 0.951 . S
C1690 C1691 1.366 . S
C1690 C1692 1.388 . S
C1691 C1690 1.366 . S
C1691 C1695 1.385 . S
C1692 H1673 0.951 . S
C1692 C1690 1.388 . S
C1692 C1693 1.366 . S
C1693 C1692 1.366 . S
C1693 C1694 1.414 . S
C1693 C1696 1.499 . S
C1694 H1674 0.950 . S
C1694 C1693 1.414 . S
C1694 C1695 1.374 . S
C1695 H1675 0.950 . S
C1695 C1691 1.385 . S
C1695 C1694 1.374 . S
C1696 C1693 1.499 . S
C1696 C1697 1.373 . S
C1696 C1698 1.389 . S
C1697 H1676 0.950 . S
C1697 C1696 1.373 . S
C1697 C1713 1.377 . S
C1698 C1696 1.389 . S
C1698 C1699 1.524 . S
C1698 C1712 1.377 . S
C1699 C1698 1.524 . S
C1699 C1700 1.397 . S
C1699 C1704 1.363 . S
C1700 H1677 0.950 . S
C1700 C1699 1.397 . S
C1700 C1701 1.334 . S
C1701 H1678 0.950 . S
C1701 C1700 1.334 . S
C1701 C1702 1.287 . S
C1702 C1701 1.287 . S
C1702 C1703 1.524 . S
C1702 H1721 0.913 . S
C1703 H1679 0.950 . S
C1703 C1702 1.524 . S
C1703 C1704 1.415 . S
C1704 H1680 0.950 . S
C1704 C1699 1.363 . S
C1704 C1703 1.415 . S
C1705 H1681 0.951 . S
C1705 C1706 1.366 . S
C1705 C1707 1.388 . S
C1706 C1705 1.366 . S
C1706 C1710 1.385 . S
C1707 H1682 0.951 . S
C1707 C1705 1.388 . S
C1707 C1708 1.366 . S
C1708 C1707 1.366 . S
C1708 C1709 1.414 . S
C1708 C1711 1.499 . S
C1709 H1683 0.950 . S
C1709 C1708 1.414 . S
C1709 C1710 1.374 . S
C1710 H1684 0.950 . S
C1710 C1706 1.385 . S
C1710 C1709 1.374 . S
C1711 C1708 1.499 . S
C1711 C1712 1.373 . S
C1711 C1713 1.389 . S
C1712 H1685 0.950 . S
C1712 C1698 1.377 . S
C1712 C1711 1.373 . S
C1713 C1697 1.377 . S
C1713 C1711 1.389 . S
C1713 C1714 1.524 . S
C1714 C1713 1.524 . S
C1714 C1715 1.397 . S
C1714 C1719 1.363 . S
C1715 H1686 0.950 . S
C1715 C1714 1.397 . S
C1715 C1716 1.334 . S
C1716 H1687 0.950 . S
C1716 C1715 1.334 . S
C1716 C1717 1.287 . S
C1717 C1716 1.287 . S
C1717 C1718 1.524 . S
C1717 H1720 0.999 . S
C1718 H1688 0.950 . S
C1718 C1717 1.524 . S
C1718 C1719 1.415 . S
C1719 H1689 0.950 . S
C1719 C1714 1.363 . S
C1719 C1718 1.415 . S
H1720 C1717 0.999 . S
H1721 C1702 0.913 . S
H1722 C1740 0.951 . S
H1723 C1742 0.951 . S
H1724 C1744 0.950 . S
H1725 C1745 0.950 . S
H1726 C1747 0.950 . S
H1727 C1750 0.950 . S
H1728 C1751 0.950 . S
H1729 C1753 0.950 . S
H1730 C1754 0.950 . S
H1731 C1755 0.951 . S
H1732 C1757 0.951 . S
H1733 C1759 0.950 . S
H1734 C1760 0.950 . S
H1735 C1762 0.950 . S
H1736 C1765 0.950 . S
H1737 C1766 0.950 . S
H1738 C1768 0.950 . S
H1739 C1769 0.950 . S
C1740 H1722 0.951 . S
C1740 C1741 1.366 . S
C1740 C1742 1.388 . S
C1741 C1740 1.366 . S
C1741 C1745 1.385 . S
C1742 H1723 0.951 . S
C1742 C1740 1.388 . S
C1742 C1743 1.366 . S
C1743 C1742 1.366 . S
C1743 C1744 1.414 . S
C1743 C1746 1.499 . S
C1744 H1724 0.950 . S
C1744 C1743 1.414 . S
C1744 C1745 1.374 . S
C1745 H1725 0.950 . S
C1745 C1741 1.385 . S
C1745 C1744 1.374 . S
C1746 C1743 1.499 . S
C1746 C1747 1.373 . S
C1746 C1748 1.389 . S
C1747 H1726 0.950 . S
C1747 C1746 1.373 . S
C1747 C1763 1.377 . S
C1748 C1746 1.389 . S
C1748 C1749 1.524 . S
C1748 C1762 1.377 . S
C1749 C1748 1.524 . S
C1749 C1750 1.397 . S
C1749 C1754 1.363 . S
C1750 H1727 0.950 . S
C1750 C1749 1.397 . S
C1750 C1751 1.334 . S
C1751 H1728 0.950 . S
C1751 C1750 1.334 . S
C1751 C1752 1.287 . S
C1752 C1751 1.287 . S
C1752 C1753 1.524 . S
C1752 H1771 0.913 . S
C1753 H1729 0.950 . S
C1753 C1752 1.524 . S
C1753 C1754 1.415 . S
C1754 H1730 0.950 . S
C1754 C1749 1.363 . S
C1754 C1753 1.415 . S
C1755 H1731 0.951 . S
C1755 C1756 1.366 . S
C1755 C1757 1.388 . S
C1756 C1755 1.366 . S
C1756 C1760 1.385 . S
C1757 H1732 0.951 . S
C1757 C1755 1.388 . S
C1757 C1758 1.366 . S
C1758 C1757 1.366 . S
C1758 C1759 1.414 . S
C1758 C1761 1.499 . S
C1759 H1733 0.950 . S
C1759 C1758 1.414 . S
C1759 C1760 1.374 . S
C1760 H1734 0.950 . S
C1760 C1756 1.385 . S
C1760 C1759 1.374 . S
C1761 C1758 1.499 . S
C1761 C1762 1.373 . S
C1761 C1763 1.389 . S
C1762 H1735 0.950 . S
C1762 C1748 1.377 . S
C1762 C1761 1.373 . S
C1763 C1747 1.377 . S
C1763 C1761 1.389 . S
C1763 C1764 1.524 . S
C1764 C1763 1.524 . S
C1764 C1765 1.397 . S
C1764 C1769 1.363 . S
C1765 H1736 0.950 . S
C1765 C1764 1.397 . S
C1765 C1766 1.334 . S
C1766 H1737 0.950 . S
C1766 C1765 1.334 . S
C1766 C1767 1.287 . S
C1767 C1766 1.287 . S
C1767 C1768 1.524 . S
C1767 H1770 0.999 . S
C1768 H1738 0.950 . S
C1768 C1767 1.524 . S
C1768 C1769 1.415 . S
C1769 H1739 0.950 . S
C1769 C1764 1.363 . S
C1769 C1768 1.415 . S
H1770 C1767 0.999 . S
H1771 C1752 0.913 . S
H1772 C1790 0.951 . S
H1773 C1792 0.951 . S
H1774 C1794 0.950 . S
H1775 C1795 0.950 . S
H1776 C1797 0.950 . S
H1777 C1800 0.950 . S
H1778 C1801 0.950 . S
H1779 C1803 0.950 . S
H1780 C1804 0.950 . S
H1781 C1805 0.951 . S
H1782 C1807 0.951 . S
H1783 C1809 0.950 . S
H1784 C1810 0.950 . S
H1785 C1812 0.950 . S
H1786 C1815 0.950 . S
H1787 C1816 0.950 . S
H1788 C1818 0.950 . S
H1789 C1819 0.950 . S
C1790 H1772 0.951 . S
C1790 C1791 1.366 . S
C1790 C1792 1.388 . S
C1791 C1790 1.366 . S
C1791 C1795 1.385 . S
C1792 H1773 0.951 . S
C1792 C1790 1.388 . S
C1792 C1793 1.366 . S
C1793 C1792 1.366 . S
C1793 C1794 1.414 . S
C1793 C1796 1.499 . S
C1794 H1774 0.950 . S
C1794 C1793 1.414 . S
C1794 C1795 1.374 . S
C1795 H1775 0.950 . S
C1795 C1791 1.385 . S
C1795 C1794 1.374 . S
C1796 C1793 1.499 . S
C1796 C1797 1.373 . S
C1796 C1798 1.389 . S
C1797 H1776 0.950 . S
C1797 C1796 1.373 . S
C1797 C1813 1.377 . S
C1798 C1796 1.389 . S
C1798 C1799 1.524 . S
C1798 C1812 1.377 . S
C1799 C1798 1.524 . S
C1799 C1800 1.397 . S
C1799 C1804 1.363 . S
C1800 H1777 0.950 . S
C1800 C1799 1.397 . S
C1800 C1801 1.334 . S
C1801 H1778 0.950 . S
C1801 C1800 1.334 . S
C1801 C1802 1.287 . S
C1802 C1801 1.287 . S
C1802 C1803 1.524 . S
C1802 H1821 0.913 . S
C1803 H1779 0.950 . S
C1803 C1802 1.524 . S
C1803 C1804 1.415 . S
C1804 H1780 0.950 . S
C1804 C1799 1.363 . S
C1804 C1803 1.415 . S
C1805 H1781 0.951 . S
C1805 C1806 1.366 . S
C1805 C1807 1.388 . S
C1806 C1805 1.366 . S
C1806 C1810 1.385 . S
C1807 H1782 0.951 . S
C1807 C1805 1.388 . S
C1807 C1808 1.366 . S
C1808 C1807 1.366 . S
C1808 C1809 1.414 . S
C1808 C1811 1.499 . S
C1809 H1783 0.950 . S
C1809 C1808 1.414 . S
C1809 C1810 1.374 . S
C1810 H1784 0.950 . S
C1810 C1806 1.385 . S
C1810 C1809 1.374 . S
C1811 C1808 1.499 . S
C1811 C1812 1.373 . S
C1811 C1813 1.389 . S
C1812 H1785 0.950 . S
C1812 C1798 1.377 . S
C1812 C1811 1.373 . S
C1813 C1797 1.377 . S
C1813 C1811 1.389 . S
C1813 C1814 1.524 . S
C1814 C1813 1.524 . S
C1814 C1815 1.397 . S
C1814 C1819 1.363 . S
C1815 H1786 0.950 . S
C1815 C1814 1.397 . S
C1815 C1816 1.334 . S
C1816 H1787 0.950 . S
C1816 C1815 1.334 . S
C1816 C1817 1.287 . S
C1817 C1816 1.287 . S
C1817 C1818 1.524 . S
C1817 H1820 0.999 . S
C1818 H1788 0.950 . S
C1818 C1817 1.524 . S
C1818 C1819 1.415 . S
C1819 H1789 0.950 . S
C1819 C1814 1.363 . S
C1819 C1818 1.415 . S
H1820 C1817 0.999 . S
H1821 C1802 0.913 . S
H1822 C1840 0.951 . S
H1823 C1842 0.951 . S
H1824 C1844 0.950 . S
H1825 C1845 0.950 . S
H1826 C1847 0.950 . S
H1827 C1850 0.950 . S
H1828 C1851 0.950 . S
H1829 C1853 0.950 . S
H1830 C1854 0.950 . S
H1831 C1855 0.951 . S
H1832 C1857 0.951 . S
H1833 C1859 0.950 . S
H1834 C1860 0.950 . S
H1835 C1862 0.950 . S
H1836 C1865 0.950 . S
H1837 C1866 0.950 . S
H1838 C1868 0.950 . S
H1839 C1869 0.950 . S
C1840 H1822 0.951 . S
C1840 C1841 1.366 . S
C1840 C1842 1.388 . S
C1841 C1840 1.366 . S
C1841 C1845 1.385 . S
C1842 H1823 0.951 . S
C1842 C1840 1.388 . S
C1842 C1843 1.366 . S
C1843 C1842 1.366 . S
C1843 C1844 1.414 . S
C1843 C1846 1.499 . S
C1844 H1824 0.950 . S
C1844 C1843 1.414 . S
C1844 C1845 1.374 . S
C1845 H1825 0.950 . S
C1845 C1841 1.385 . S
C1845 C1844 1.374 . S
C1846 C1843 1.499 . S
C1846 C1847 1.373 . S
C1846 C1848 1.389 . S
C1847 H1826 0.950 . S
C1847 C1846 1.373 . S
C1847 C1863 1.377 . S
C1848 C1846 1.389 . S
C1848 C1849 1.524 . S
C1848 C1862 1.377 . S
C1849 C1848 1.524 . S
C1849 C1850 1.397 . S
C1849 C1854 1.363 . S
C1850 H1827 0.950 . S
C1850 C1849 1.397 . S
C1850 C1851 1.334 . S
C1851 H1828 0.950 . S
C1851 C1850 1.334 . S
C1851 C1852 1.287 . S
C1852 C1851 1.287 . S
C1852 C1853 1.524 . S
C1852 H1871 0.913 . S
C1853 H1829 0.950 . S
C1853 C1852 1.524 . S
C1853 C1854 1.415 . S
C1854 H1830 0.950 . S
C1854 C1849 1.363 . S
C1854 C1853 1.415 . S
C1855 H1831 0.951 . S
C1855 C1856 1.366 . S
C1855 C1857 1.388 . S
C1856 C1855 1.366 . S
C1856 C1860 1.385 . S
C1857 H1832 0.951 . S
C1857 C1855 1.388 . S
C1857 C1858 1.366 . S
C1858 C1857 1.366 . S
C1858 C1859 1.414 . S
C1858 C1861 1.499 . S
C1859 H1833 0.950 . S
C1859 C1858 1.414 . S
C1859 C1860 1.374 . S
C1860 H1834 0.950 . S
C1860 C1856 1.385 . S
C1860 C1859 1.374 . S
C1861 C1858 1.499 . S
C1861 C1862 1.373 . S
C1861 C1863 1.389 . S
C1862 H1835 0.950 . S
C1862 C1848 1.377 . S
C1862 C1861 1.373 . S
C1863 C1847 1.377 . S
C1863 C1861 1.389 . S
C1863 C1864 1.524 . S
C1864 C1863 1.524 . S
C1864 C1865 1.397 . S
C1864 C1869 1.363 . S
C1865 H1836 0.950 . S
C1865 C1864 1.397 . S
C1865 C1866 1.334 . S
C1866 H1837 0.950 . S
C1866 C1865 1.334 . S
C1866 C1867 1.287 . S
C1867 C1866 1.287 . S
C1867 C1868 1.524 . S
C1867 H1870 0.999 . S
C1868 H1838 0.950 . S
C1868 C1867 1.524 . S
C1868 C1869 1.415 . S
C1869 H1839 0.950 . S
C1869 C1864 1.363 . S
C1869 C1868 1.415 . S
H1870 C1867 0.999 . S
H1871 C1852 0.913 . S
H1872 C1890 0.951 . S
H1873 C1892 0.951 . S
H1874 C1894 0.950 1_455 S
H1875 C1895 0.950 . S
H1876 C1897 0.950 . S
H1877 C1900 0.950 . S
H1878 C1901 0.950 . S
H1879 C1903 0.950 . S
H1880 C1904 0.950 . S
H1881 C1905 0.951 . S
H1882 C1907 0.951 . S
H1883 C1909 0.950 1_655 S
H1884 C1910 0.950 . S
H1885 C1912 0.950 . S
H1886 C1915 0.950 . S
H1887 C1916 0.950 . S
H1888 C1918 0.950 . S
H1889 C1919 0.950 . S
C1890 H1872 0.951 . S
C1890 C1891 1.366 . S
C1890 C1892 1.388 . S
C1891 C1890 1.366 . S
C1891 C1895 1.385 . S
C1892 H1873 0.951 . S
C1892 C1890 1.388 . S
C1892 C1893 1.366 . S
C1893 C1892 1.366 . S
C1893 C1894 1.414 . S
C1893 C1896 1.499 . S
C1894 H1874 0.950 1_655 S
C1894 C1893 1.414 . S
C1894 C1895 1.374 . S
C1895 H1875 0.950 . S
C1895 C1891 1.385 . S
C1895 C1894 1.374 . S
C1896 C1893 1.499 . S
C1896 C1897 1.373 1_655 S
C1896 C1898 1.389 . S
C1897 H1876 0.950 . S
C1897 C1896 1.373 1_455 S
C1897 C1913 1.377 . S
C1898 C1896 1.389 . S
C1898 C1899 1.524 . S
C1898 C1912 1.377 . S
C1899 C1898 1.524 . S
C1899 C1900 1.397 . S
C1899 C1904 1.363 . S
C1900 H1877 0.950 . S
C1900 C1899 1.397 . S
C1900 C1901 1.334 . S
C1901 H1878 0.950 . S
C1901 C1900 1.334 . S
C1901 C1902 1.287 . S
C1902 C1901 1.287 . S
C1902 C1903 1.524 . S
C1902 H1921 0.913 . S
C1903 H1879 0.950 . S
C1903 C1902 1.524 . S
C1903 C1904 1.415 . S
C1904 H1880 0.950 . S
C1904 C1899 1.363 . S
C1904 C1903 1.415 . S
C1905 H1881 0.951 . S
C1905 C1906 1.366 . S
C1905 C1907 1.388 . S
C1906 C1905 1.366 . S
C1906 C1910 1.385 . S
C1907 H1882 0.951 . S
C1907 C1905 1.388 . S
C1907 C1908 1.366 . S
C1908 C1907 1.366 . S
C1908 C1909 1.414 . S
C1908 C1911 1.499 . S
C1909 H1883 0.950 1_455 S
C1909 C1908 1.414 . S
C1909 C1910 1.374 . S
C1910 H1884 0.950 . S
C1910 C1906 1.385 . S
C1910 C1909 1.374 . S
C1911 C1908 1.499 . S
C1911 C1912 1.373 1_455 S
C1911 C1913 1.389 . S
C1912 H1885 0.950 . S
C1912 C1898 1.377 . S
C1912 C1911 1.373 1_655 S
C1913 C1897 1.377 . S
C1913 C1911 1.389 . S
C1913 C1914 1.524 . S
C1914 C1913 1.524 . S
C1914 C1915 1.397 . S
C1914 C1919 1.363 . S
C1915 H1886 0.950 . S
C1915 C1914 1.397 . S
C1915 C1916 1.334 . S
C1916 H1887 0.950 . S
C1916 C1915 1.334 . S
C1916 C1917 1.287 . S
C1917 C1916 1.287 . S
C1917 C1918 1.524 . S
C1917 H1920 0.999 . S
C1918 H1888 0.950 . S
C1918 C1917 1.524 . S
C1918 C1919 1.415 . S
C1919 H1889 0.950 . S
C1919 C1914 1.363 . S
C1919 C1918 1.415 . S
H1920 C1917 0.999 . S
H1921 C1902 0.913 . S
H1922 C1940 0.951 1_545 S
H1923 C1942 1.014 . S
H1924 C1944 0.950 . S
H1925 C1945 0.950 . S
H1926 C1947 0.950 . S
H1927 C1950 0.950 . S
H1928 C1951 0.950 . S
H1929 C1953 0.950 . S
H1930 C1954 0.950 . S
H1931 C1955 0.951 1_565 S
H1932 C1957 1.014 . S
H1933 C1959 0.950 . S
H1934 C1960 0.950 . S
H1935 C1962 0.950 . S
H1936 C1965 0.950 . S
H1937 C1966 0.950 . S
H1938 C1968 0.950 . S
H1939 C1969 0.950 . S
C1940 H1922 0.951 1_565 S
C1940 C1941 1.366 . S
C1940 C1942 1.370 1_565 S
C1941 C1940 1.366 . S
C1941 C1945 1.385 . S
C1942 H1923 1.014 . S
C1942 C1940 1.370 1_545 S
C1942 C1943 1.324 1_545 S
C1943 C1942 1.324 1_565 S
C1943 C1944 1.414 . S
C1943 C1946 1.499 . S
C1944 H1924 0.950 . S
C1944 C1943 1.414 . S
C1944 C1945 1.374 . S
C1945 H1925 0.950 . S
C1945 C1941 1.385 . S
C1945 C1944 1.374 . S
C1946 C1943 1.499 . S
C1946 C1947 1.373 . S
C1946 C1948 1.389 1_565 S
C1947 H1926 0.950 . S
C1947 C1946 1.373 . S
C1947 C1963 1.377 . S
C1948 C1946 1.389 1_545 S
C1948 C1949 1.524 . S
C1948 C1962 1.377 . S
C1949 C1948 1.524 . S
C1949 C1950 1.397 . S
C1949 C1954 1.363 . S
C1950 H1927 0.950 . S
C1950 C1949 1.397 . S
C1950 C1951 1.334 . S
C1951 H1928 0.950 . S
C1951 C1950 1.334 . S
C1951 C1952 1.287 . S
C1952 C1951 1.287 . S
C1952 C1953 1.524 . S
C1952 H1971 0.913 . S
C1953 H1929 0.950 . S
C1953 C1952 1.524 . S
C1953 C1954 1.415 . S
C1954 H1930 0.950 . S
C1954 C1949 1.363 . S
C1954 C1953 1.415 . S
C1955 H1931 0.951 1_545 S
C1955 C1956 1.366 . S
C1955 C1957 1.370 1_545 S
C1956 C1955 1.366 . S
C1956 C1960 1.385 . S
C1957 H1932 1.014 . S
C1957 C1955 1.370 1_565 S
C1957 C1958 1.324 1_565 S
C1958 C1957 1.324 1_545 S
C1958 C1959 1.414 . S
C1958 C1961 1.499 . S
C1959 H1933 0.950 . S
C1959 C1958 1.414 . S
C1959 C1960 1.374 . S
C1960 H1934 0.950 . S
C1960 C1956 1.385 . S
C1960 C1959 1.374 . S
C1961 C1958 1.499 . S
C1961 C1962 1.373 . S
C1961 C1963 1.389 1_545 S
C1962 H1935 0.950 . S
C1962 C1948 1.377 . S
C1962 C1961 1.373 . S
C1963 C1947 1.377 . S
C1963 C1961 1.389 1_565 S
C1963 C1964 1.524 . S
C1964 C1963 1.524 . S
C1964 C1965 1.397 . S
C1964 C1969 1.363 . S
C1965 H1936 0.950 . S
C1965 C1964 1.397 . S
C1965 C1966 1.334 . S
C1966 H1937 0.950 . S
C1966 C1965 1.334 . S
C1966 C1967 1.287 . S
C1967 C1966 1.287 . S
C1967 C1968 1.524 . S
C1967 H1970 0.999 . S
C1968 H1938 0.950 . S
C1968 C1967 1.524 . S
C1968 C1969 1.415 . S
C1969 H1939 0.950 . S
C1969 C1964 1.363 . S
C1969 C1968 1.415 . S
H1970 C1967 0.999 . S
H1971 C1952 0.913 . S
H1972 C1990 0.951 . S
H1973 C1992 0.951 . S
H1974 C1994 0.950 . S
H1975 C1995 0.950 . S
H1976 C1997 0.950 . S
H1977 C2000 0.950 . S
H1978 C2001 0.950 . S
H1979 C2003 0.950 . S
H1980 C2004 0.950 . S
H1981 C2005 0.951 . S
H1982 C2007 0.951 . S
H1983 C2009 0.950 . S
H1984 C2010 0.950 . S
H1985 C2012 0.950 . S
H1986 C2015 0.950 . S
H1987 C2016 0.950 . S
H1988 C2018 0.950 . S
H1989 C2019 0.950 . S
C1990 H1972 0.951 . S
C1990 C1991 1.366 . S
C1990 C1992 1.388 . S
C1991 C1990 1.366 . S
C1991 C1995 1.385 . S
C1992 H1973 0.951 . S
C1992 C1990 1.388 . S
C1992 C1993 1.366 . S
C1993 C1992 1.366 . S
C1993 C1994 1.414 . S
C1993 C1996 1.499 . S
C1994 H1974 0.950 . S
C1994 C1993 1.414 . S
C1994 C1995 1.374 . S
C1995 H1975 0.950 . S
C1995 C1991 1.385 . S
C1995 C1994 1.374 . S
C1996 C1993 1.499 . S
C1996 C1997 1.373 . S
C1996 C1998 1.389 1_655 S
C1997 H1976 0.950 . S
C1997 C1996 1.373 . S
C1997 C2013 1.377 . S
C1998 C1996 1.389 1_455 S
C1998 C1999 1.524 . S
C1998 C2012 1.377 . S
C1999 C1998 1.524 . S
C1999 C2000 1.397 . S
C1999 C2004 1.363 . S
C2000 H1977 0.950 . S
C2000 C1999 1.397 . S
C2000 C2001 1.334 . S
C2001 H1978 0.950 . S
C2001 C2000 1.334 . S
C2001 C2002 1.287 . S
C2002 C2001 1.287 . S
C2002 C2003 1.524 . S
C2002 H2021 0.913 . S
C2003 H1979 0.950 . S
C2003 C2002 1.524 . S
C2003 C2004 1.415 . S
C2004 H1980 0.950 . S
C2004 C1999 1.363 . S
C2004 C2003 1.415 . S
C2005 H1981 0.951 . S
C2005 C2006 1.366 . S
C2005 C2007 1.388 . S
C2006 C2005 1.366 . S
C2006 C2010 1.385 . S
C2007 H1982 0.951 . S
C2007 C2005 1.388 . S
C2007 C2008 1.366 . S
C2008 C2007 1.366 . S
C2008 C2009 1.414 . S
C2008 C2011 1.499 . S
C2009 H1983 0.950 . S
C2009 C2008 1.414 . S
C2009 C2010 1.374 . S
C2010 H1984 0.950 . S
C2010 C2006 1.385 . S
C2010 C2009 1.374 . S
C2011 C2008 1.499 . S
C2011 C2012 1.373 . S
C2011 C2013 1.389 1_455 S
C2012 H1985 0.950 . S
C2012 C1998 1.377 . S
C2012 C2011 1.373 . S
C2013 C1997 1.377 . S
C2013 C2011 1.389 1_655 S
C2013 C2014 1.524 . S
C2014 C2013 1.524 . S
C2014 C2015 1.397 . S
C2014 C2019 1.363 . S
C2015 H1986 0.950 . S
C2015 C2014 1.397 . S
C2015 C2016 1.334 . S
C2016 H1987 0.950 . S
C2016 C2015 1.334 . S
C2016 C2017 1.287 . S
C2017 C2016 1.287 . S
C2017 C2018 1.524 . S
C2017 H2020 0.999 . S
C2018 H1988 0.950 . S
C2018 C2017 1.524 . S
C2018 C2019 1.415 . S
C2019 H1989 0.950 . S
C2019 C2014 1.363 . S
C2019 C2018 1.415 . S
H2020 C2017 0.999 . S
H2021 C2002 0.913 . S
H2022 C2040 0.951 . S
H2023 C2042 0.951 1_565 S
H2024 C2044 0.950 . S
H2025 C2045 0.950 . S
H2026 C2047 0.950 . S
H2027 C2050 0.950 . S
H2028 C2051 0.950 . S
H2029 C2053 0.950 . S
H2030 C2054 0.950 1_565 S
H2031 C2055 0.951 . S
H2032 C2057 0.951 1_545 S
H2033 C2059 0.950 . S
H2034 C2060 0.950 . S
H2035 C2062 0.950 . S
H2036 C2065 0.950 . S
H2037 C2066 0.950 . S
H2038 C2068 0.950 . S
H2039 C2069 0.950 1_545 S
C2040 H2022 0.951 . S
C2040 C2041 1.366 . S
C2040 C2042 1.388 . S
C2041 C2040 1.366 . S
C2041 C2045 1.385 . S
C2042 H2023 0.951 1_545 S
C2042 C2040 1.388 . S
C2042 C2043 1.366 . S
C2043 C2042 1.366 . S
C2043 C2044 1.414 . S
C2043 C2046 1.499 . S
C2044 H2024 0.950 . S
C2044 C2043 1.414 . S
C2044 C2045 1.374 . S
C2045 H2025 0.950 . S
C2045 C2041 1.385 . S
C2045 C2044 1.374 . S
C2046 C2043 1.499 . S
C2046 C2047 1.373 1_545 S
C2046 C2048 1.389 . S
C2047 H2026 0.950 . S
C2047 C2046 1.373 1_565 S
C2047 C2063 1.377 . S
C2048 C2046 1.389 . S
C2048 C2049 1.524 . S
C2048 C2062 1.377 . S
C2049 C2048 1.524 . S
C2049 C2050 1.397 . S
C2049 C2054 1.363 . S
C2050 H2027 0.950 . S
C2050 C2049 1.397 . S
C2050 C2051 1.334 . S
C2051 H2028 0.950 . S
C2051 C2050 1.334 . S
C2051 C2052 1.287 . S
C2052 C2051 1.287 . S
C2052 C2053 1.524 . S
C2052 H2071 0.913 . S
C2053 H2029 0.950 . S
C2053 C2052 1.524 . S
C2053 C2054 1.415 . S
C2054 H2030 0.950 1_545 S
C2054 C2049 1.363 . S
C2054 C2053 1.415 . S
C2055 H2031 0.951 . S
C2055 C2056 1.366 . S
C2055 C2057 1.388 . S
C2056 C2055 1.366 . S
C2056 C2060 1.385 . S
C2057 H2032 0.951 1_565 S
C2057 C2055 1.388 . S
C2057 C2058 1.366 . S
C2058 C2057 1.366 . S
C2058 C2059 1.414 . S
C2058 C2061 1.499 . S
C2059 H2033 0.950 . S
C2059 C2058 1.414 . S
C2059 C2060 1.374 . S
C2060 H2034 0.950 . S
C2060 C2056 1.385 . S
C2060 C2059 1.374 . S
C2061 C2058 1.499 . S
C2061 C2062 1.373 1_565 S
C2061 C2063 1.389 . S
C2062 H2035 0.950 . S
C2062 C2048 1.377 . S
C2062 C2061 1.373 1_545 S
C2063 C2047 1.377 . S
C2063 C2061 1.389 . S
C2063 C2064 1.524 . S
C2064 C2063 1.524 . S
C2064 C2065 1.397 . S
C2064 C2069 1.363 . S
C2065 H2036 0.950 . S
C2065 C2064 1.397 . S
C2065 C2066 1.334 . S
C2066 H2037 0.950 . S
C2066 C2065 1.334 . S
C2066 C2067 1.287 . S
C2067 C2066 1.287 . S
C2067 C2068 1.524 . S
C2067 H2070 0.999 . S
C2068 H2038 0.950 . S
C2068 C2067 1.524 . S
C2068 C2069 1.415 . S
C2069 H2039 0.950 1_565 S
C2069 C2064 1.363 . S
C2069 C2068 1.415 . S
H2070 C2067 0.999 . S
H2071 C2052 0.913 . S
H2072 C2090 0.951 1_655 S
H2073 C2092 0.951 . S
H2074 C2094 0.950 . S
H2075 C2095 0.950 . S
H2076 C2097 0.950 . S
H2077 C2100 0.950 1_455 S
H2078 C2101 0.950 . S
H2079 C2103 0.950 . S
H2080 C2104 0.950 . S
H2081 C2105 0.951 1_455 S
H2082 C2107 0.951 . S
H2083 C2109 0.950 . S
H2084 C2110 0.950 . S
H2085 C2112 0.950 . S
H2086 C2115 0.950 1_655 S
H2087 C2116 0.950 . S
H2088 C2118 0.950 . S
H2089 C2119 0.950 . S
C2090 H2072 0.951 1_455 S
C2090 C2091 1.366 . S
C2090 C2092 1.388 1_455 S
C2091 C2090 1.366 . S
C2091 C2095 1.385 . S
C2092 H2073 0.951 . S
C2092 C2090 1.388 1_655 S
C2092 C2093 1.366 1_655 S
C2093 C2092 1.366 1_455 S
C2093 C2094 1.414 . S
C2093 C2096 1.499 . S
C2094 H2074 0.950 . S
C2094 C2093 1.414 . S
C2094 C2095 1.374 . S
C2095 H2075 0.950 . S
C2095 C2091 1.385 . S
C2095 C2094 1.374 . S
C2096 C2093 1.499 . S
C2096 C2097 1.373 . S
C2096 C2098 1.389 1_455 S
C2097 H2076 0.950 . S
C2097 C2096 1.373 . S
C2097 C2113 1.377 . S
C2098 C2096 1.389 1_655 S
C2098 C2099 1.524 . S
C2098 C2112 1.377 . S
C2099 C2098 1.524 . S
C2099 C2100 1.397 . S
C2099 C2104 1.363 . S
C2100 H2077 0.950 1_655 S
C2100 C2099 1.397 . S
C2100 C2101 1.334 . S
C2101 H2078 0.950 . S
C2101 C2100 1.334 . S
C2101 C2102 1.287 . S
C2102 C2101 1.287 . S
C2102 C2103 1.524 . S
C2102 H2121 0.913 . S
C2103 H2079 0.950 . S
C2103 C2102 1.524 . S
C2103 C2104 1.415 . S
C2104 H2080 0.950 . S
C2104 C2099 1.363 . S
C2104 C2103 1.415 . S
C2105 H2081 0.951 1_655 S
C2105 C2106 1.366 . S
C2105 C2107 1.388 1_655 S
C2106 C2105 1.366 . S
C2106 C2110 1.385 . S
C2107 H2082 0.951 . S
C2107 C2105 1.388 1_455 S
C2107 C2108 1.366 1_455 S
C2108 C2107 1.366 1_655 S
C2108 C2109 1.414 . S
C2108 C2111 1.499 . S
C2109 H2083 0.950 . S
C2109 C2108 1.414 . S
C2109 C2110 1.374 . S
C2110 H2084 0.950 . S
C2110 C2106 1.385 . S
C2110 C2109 1.374 . S
C2111 C2108 1.499 . S
C2111 C2112 1.373 . S
C2111 C2113 1.389 1_655 S
C2112 H2085 0.950 . S
C2112 C2098 1.377 . S
C2112 C2111 1.373 . S
C2113 C2097 1.377 . S
C2113 C2111 1.389 1_455 S
C2113 C2114 1.524 . S
C2114 C2113 1.524 . S
C2114 C2115 1.397 . S
C2114 C2119 1.363 . S
C2115 H2086 0.950 1_455 S
C2115 C2114 1.397 . S
C2115 C2116 1.334 . S
C2116 H2087 0.950 . S
C2116 C2115 1.334 . S
C2116 C2117 1.287 . S
C2117 C2116 1.287 . S
C2117 C2118 1.524 . S
C2117 H2120 0.999 . S
C2118 H2088 0.950 . S
C2118 C2117 1.524 . S
C2118 C2119 1.415 . S
C2119 H2089 0.950 . S
C2119 C2114 1.363 . S
C2119 C2118 1.415 . S
H2120 C2117 0.999 . S
H2121 C2102 0.913 . S
H2122 C2140 0.951 . S
H2123 C2142 0.951 . S
H2124 C2144 0.950 . S
H2125 C2145 0.950 . S
H2126 C2147 0.950 . S
H2127 C2150 0.950 . S
H2128 C2151 0.950 . S
H2129 C2153 0.950 . S
H2130 C2154 0.950 . S
H2131 C2155 0.951 . S
H2132 C2157 0.951 . S
H2133 C2159 0.950 . S
H2134 C2160 0.950 . S
H2135 C2162 0.950 . S
H2136 C2165 0.950 . S
H2137 C2166 0.950 . S
H2138 C2168 0.950 . S
H2139 C2169 0.950 . S
C2140 H2122 0.951 . S
C2140 C2141 1.366 . S
C2140 C2142 1.388 . S
C2141 C2140 1.366 . S
C2141 C2145 1.385 . S
C2142 H2123 0.951 . S
C2142 C2140 1.388 . S
C2142 C2143 1.366 . S
C2143 C2142 1.366 . S
C2143 C2144 1.414 . S
C2143 C2146 1.499 . S
C2144 H2124 0.950 . S
C2144 C2143 1.414 . S
C2144 C2145 1.374 . S
C2145 H2125 0.950 . S
C2145 C2141 1.385 . S
C2145 C2144 1.374 . S
C2146 C2143 1.499 . S
C2146 C2147 1.373 1_565 S
C2146 C2148 1.389 . S
C2147 H2126 0.950 . S
C2147 C2146 1.373 1_545 S
C2147 C2163 1.377 . S
C2148 C2146 1.389 . S
C2148 C2149 1.524 . S
C2148 C2162 1.377 . S
C2149 C2148 1.524 . S
C2149 C2150 1.397 . S
C2149 C2154 1.363 . S
C2150 H2127 0.950 . S
C2150 C2149 1.397 . S
C2150 C2151 1.334 . S
C2151 H2128 0.950 . S
C2151 C2150 1.334 . S
C2151 C2152 1.287 . S
C2152 C2151 1.287 . S
C2152 C2153 1.524 . S
C2152 H2171 0.913 . S
C2153 H2129 0.950 . S
C2153 C2152 1.524 . S
C2153 C2154 1.415 . S
C2154 H2130 0.950 . S
C2154 C2149 1.363 . S
C2154 C2153 1.415 . S
C2155 H2131 0.951 . S
C2155 C2156 1.366 . S
C2155 C2157 1.388 . S
C2156 C2155 1.366 . S
C2156 C2160 1.385 . S
C2157 H2132 0.951 . S
C2157 C2155 1.388 . S
C2157 C2158 1.366 . S
C2158 C2157 1.366 . S
C2158 C2159 1.414 . S
C2158 C2161 1.499 . S
C2159 H2133 0.950 . S
C2159 C2158 1.414 . S
C2159 C2160 1.374 . S
C2160 H2134 0.950 . S
C2160 C2156 1.385 . S
C2160 C2159 1.374 . S
C2161 C2158 1.499 . S
C2161 C2162 1.373 1_545 S
C2161 C2163 1.389 . S
C2162 H2135 0.950 . S
C2162 C2148 1.377 . S
C2162 C2161 1.373 1_565 S
C2163 C2147 1.377 . S
C2163 C2161 1.389 . S
C2163 C2164 1.524 . S
C2164 C2163 1.524 . S
C2164 C2165 1.397 . S
C2164 C2169 1.363 . S
C2165 H2136 0.950 . S
C2165 C2164 1.397 . S
C2165 C2166 1.334 . S
C2166 H2137 0.950 . S
C2166 C2165 1.334 . S
C2166 C2167 1.287 . S
C2167 C2166 1.287 . S
C2167 C2168 1.524 . S
C2167 H2170 0.999 . S
C2168 H2138 0.950 . S
C2168 C2167 1.524 . S
C2168 C2169 1.415 . S
C2169 H2139 0.950 . S
C2169 C2164 1.363 . S
C2169 C2168 1.415 . S
H2170 C2167 0.999 . S
H2171 C2152 0.913 . S
H2172 C2190 0.951 . S
H2173 C2192 0.951 . S
H2174 C2194 0.950 . S
H2175 C2195 0.950 . S
H2176 C2197 0.950 . S
H2177 C2200 0.950 . S
H2178 C2201 0.950 . S
H2179 C2203 0.950 . S
H2180 C2204 0.950 . S
H2181 C2205 0.951 . S
H2182 C2207 0.951 . S
H2183 C2209 0.950 . S
H2184 C2210 0.950 . S
H2185 C2212 0.950 . S
H2186 C2215 0.950 . S
H2187 C2216 0.950 . S
H2188 C2218 0.950 . S
H2189 C2219 0.950 . S
C2190 H2172 0.951 . S
C2190 C2191 1.366 . S
C2190 C2192 1.388 . S
C2191 C2190 1.366 . S
C2191 C2195 1.385 . S
C2192 H2173 0.951 . S
C2192 C2190 1.388 . S
C2192 C2193 1.366 . S
C2193 C2192 1.366 . S
C2193 C2194 1.414 . S
C2193 C2196 1.499 . S
C2194 H2174 0.950 . S
C2194 C2193 1.414 . S
C2194 C2195 1.374 . S
C2195 H2175 0.950 . S
C2195 C2191 1.385 . S
C2195 C2194 1.374 . S
C2196 C2193 1.499 . S
C2196 C2197 1.373 1_455 S
C2196 C2198 1.389 . S
C2197 H2176 0.950 . S
C2197 C2196 1.373 1_655 S
C2197 C2213 1.377 . S
C2198 C2196 1.389 . S
C2198 C2199 1.524 . S
C2198 C2212 1.377 . S
C2199 C2198 1.524 . S
C2199 C2200 1.397 . S
C2199 C2204 1.363 . S
C2200 H2177 0.950 . S
C2200 C2199 1.397 . S
C2200 C2201 1.334 . S
C2201 H2178 0.950 . S
C2201 C2200 1.334 . S
C2201 C2202 1.287 . S
C2202 C2201 1.287 . S
C2202 C2203 1.524 . S
C2202 H2221 0.913 . S
C2203 H2179 0.950 . S
C2203 C2202 1.524 . S
C2203 C2204 1.415 . S
C2204 H2180 0.950 . S
C2204 C2199 1.363 . S
C2204 C2203 1.415 . S
C2205 H2181 0.951 . S
C2205 C2206 1.366 . S
C2205 C2207 1.388 . S
C2206 C2205 1.366 . S
C2206 C2210 1.385 . S
C2207 H2182 0.951 . S
C2207 C2205 1.388 . S
C2207 C2208 1.366 . S
C2208 C2207 1.366 . S
C2208 C2209 1.414 . S
C2208 C2211 1.499 . S
C2209 H2183 0.950 . S
C2209 C2208 1.414 . S
C2209 C2210 1.374 . S
C2210 H2184 0.950 . S
C2210 C2206 1.385 . S
C2210 C2209 1.374 . S
C2211 C2208 1.499 . S
C2211 C2212 1.373 1_655 S
C2211 C2213 1.389 . S
C2212 H2185 0.950 . S
C2212 C2198 1.377 . S
C2212 C2211 1.373 1_455 S
C2213 C2197 1.377 . S
C2213 C2211 1.389 . S
C2213 C2214 1.524 . S
C2214 C2213 1.524 . S
C2214 C2215 1.397 . S
C2214 C2219 1.363 . S
C2215 H2186 0.950 . S
C2215 C2214 1.397 . S
C2215 C2216 1.334 . S
C2216 H2187 0.950 . S
C2216 C2215 1.334 . S
C2216 C2217 1.287 . S
C2217 C2216 1.287 . S
C2217 C2218 1.524 . S
C2217 H2220 0.999 . S
C2218 H2188 0.950 . S
C2218 C2217 1.524 . S
C2218 C2219 1.415 . S
C2219 H2189 0.950 . S
C2219 C2214 1.363 . S
C2219 C2218 1.415 . S
H2220 C2217 0.999 . S
H2221 C2202 0.913 . S
H2222 C2240 0.951 . S
H2223 C2242 0.951 . S
H2224 C2244 0.950 . S
H2225 C2245 0.950 . S
H2226 C2247 0.950 . S
H2227 C2250 0.950 . S
H2228 C2251 0.950 . S
H2229 C2253 0.950 . S
H2230 C2254 0.950 . S
H2231 C2255 0.951 . S
H2232 C2257 0.951 . S
H2233 C2259 0.950 . S
H2234 C2260 0.950 . S
H2235 C2262 0.950 . S
H2236 C2265 0.950 . S
H2237 C2266 0.950 . S
H2238 C2268 0.950 . S
H2239 C2269 0.950 . S
C2240 H2222 0.951 . S
C2240 C2241 1.366 . S
C2240 C2242 1.388 . S
C2241 C2240 1.366 . S
C2241 C2245 1.385 . S
C2242 H2223 0.951 . S
C2242 C2240 1.388 . S
C2242 C2243 1.366 . S
C2243 C2242 1.366 . S
C2243 C2244 1.414 . S
C2243 C2246 1.499 . S
C2244 H2224 0.950 . S
C2244 C2243 1.414 . S
C2244 C2245 1.374 . S
C2245 H2225 0.950 . S
C2245 C2241 1.385 . S
C2245 C2244 1.374 . S
C2246 C2243 1.499 . S
C2246 C2247 1.373 . S
C2246 C2248 1.389 1_545 S
C2247 H2226 0.950 . S
C2247 C2246 1.373 . S
C2247 C2263 1.377 . S
C2248 C2246 1.389 1_565 S
C2248 C2249 1.524 . S
C2248 C2262 1.377 . S
C2249 C2248 1.524 . S
C2249 C2250 1.397 . S
C2249 C2254 1.363 . S
C2250 H2227 0.950 . S
C2250 C2249 1.397 . S
C2250 C2251 1.334 . S
C2251 H2228 0.950 . S
C2251 C2250 1.334 . S
C2251 C2252 1.287 . S
C2252 C2251 1.287 . S
C2252 C2253 1.524 . S
C2252 H2271 0.913 . S
C2253 H2229 0.950 . S
C2253 C2252 1.524 . S
C2253 C2254 1.415 . S
C2254 H2230 0.950 . S
C2254 C2249 1.363 . S
C2254 C2253 1.415 . S
C2255 H2231 0.951 . S
C2255 C2256 1.366 . S
C2255 C2257 1.388 . S
C2256 C2255 1.366 . S
C2256 C2260 1.385 . S
C2257 H2232 0.951 . S
C2257 C2255 1.388 . S
C2257 C2258 1.366 . S
C2258 C2257 1.366 . S
C2258 C2259 1.414 . S
C2258 C2261 1.499 . S
C2259 H2233 0.950 . S
C2259 C2258 1.414 . S
C2259 C2260 1.374 . S
C2260 H2234 0.950 . S
C2260 C2256 1.385 . S
C2260 C2259 1.374 . S
C2261 C2258 1.499 . S
C2261 C2262 1.373 . S
C2261 C2263 1.389 1_565 S
C2262 H2235 0.950 . S
C2262 C2248 1.377 . S
C2262 C2261 1.373 . S
C2263 C2247 1.377 . S
C2263 C2261 1.389 1_545 S
C2263 C2264 1.524 . S
C2264 C2263 1.524 . S
C2264 C2265 1.397 . S
C2264 C2269 1.363 . S
C2265 H2236 0.950 . S
C2265 C2264 1.397 . S
C2265 C2266 1.334 . S
C2266 H2237 0.950 . S
C2266 C2265 1.334 . S
C2266 C2267 1.287 . S
C2267 C2266 1.287 . S
C2267 C2268 1.524 . S
C2267 H2270 0.999 . S
C2268 H2238 0.950 . S
C2268 C2267 1.524 . S
C2268 C2269 1.415 . S
C2269 H2239 0.950 . S
C2269 C2264 1.363 . S
C2269 C2268 1.415 . S
H2270 C2267 0.999 . S
H2271 C2252 0.913 . S
H2272 C2290 0.951 . S
H2273 C2292 0.951 . S
H2274 C2294 0.950 . S
H2275 C2295 0.950 . S
H2276 C2297 0.950 . S
H2277 C2300 0.950 . S
H2278 C2301 0.950 . S
H2279 C2303 0.950 . S
H2280 C2304 0.950 . S
H2281 C2305 0.951 . S
H2282 C2307 0.951 . S
H2283 C2309 0.950 . S
H2284 C2310 0.950 . S
H2285 C2312 0.950 . S
H2286 C2315 0.950 . S
H2287 C2316 0.950 . S
H2288 C2318 0.950 . S
H2289 C2319 0.950 . S
C2290 H2272 0.951 . S
C2290 C2291 1.366 . S
C2290 C2292 1.388 . S
C2291 C2290 1.366 . S
C2291 C2295 1.385 . S
C2292 H2273 0.951 . S
C2292 C2290 1.388 . S
C2292 C2293 1.366 . S
C2293 C2292 1.366 . S
C2293 C2294 1.414 . S
C2293 C2296 1.499 . S
C2294 H2274 0.950 . S
C2294 C2293 1.414 . S
C2294 C2295 1.374 . S
C2295 H2275 0.950 . S
C2295 C2291 1.385 . S
C2295 C2294 1.374 . S
C2296 C2293 1.499 . S
C2296 C2297 1.373 1_556 S
C2296 C2298 1.389 . S
C2297 H2276 0.950 . S
C2297 C2296 1.373 1_554 S
C2297 C2313 1.377 . S
C2298 C2296 1.389 . S
C2298 C2299 1.524 . S
C2298 C2312 1.377 . S
C2299 C2298 1.524 . S
C2299 C2300 1.397 . S
C2299 C2304 1.363 . S
C2300 H2277 0.950 . S
C2300 C2299 1.397 . S
C2300 C2301 1.334 . S
C2301 H2278 0.950 . S
C2301 C2300 1.334 . S
C2301 C2302 1.287 . S
C2302 C2301 1.287 . S
C2302 C2303 1.524 . S
C2302 H2321 0.913 . S
C2303 H2279 0.950 . S
C2303 C2302 1.524 . S
C2303 C2304 1.415 . S
C2304 H2280 0.950 . S
C2304 C2299 1.363 . S
C2304 C2303 1.415 . S
C2305 H2281 0.951 . S
C2305 C2306 1.366 . S
C2305 C2307 1.388 . S
C2306 C2305 1.366 . S
C2306 C2310 1.385 . S
C2307 H2282 0.951 . S
C2307 C2305 1.388 . S
C2307 C2308 1.366 . S
C2308 C2307 1.366 . S
C2308 C2309 1.414 . S
C2308 C2311 1.499 . S
C2309 H2283 0.950 . S
C2309 C2308 1.414 . S
C2309 C2310 1.374 . S
C2310 H2284 0.950 . S
C2310 C2306 1.385 . S
C2310 C2309 1.374 . S
C2311 C2308 1.499 . S
C2311 C2312 1.373 1_554 S
C2311 C2313 1.389 . S
C2312 H2285 0.950 . S
C2312 C2298 1.377 . S
C2312 C2311 1.373 1_556 S
C2313 C2297 1.377 . S
C2313 C2311 1.389 . S
C2313 C2314 1.524 . S
C2314 C2313 1.524 . S
C2314 C2315 1.397 . S
C2314 C2319 1.363 . S
C2315 H2286 0.950 . S
C2315 C2314 1.397 . S
C2315 C2316 1.334 . S
C2316 H2287 0.950 . S
C2316 C2315 1.334 . S
C2316 C2317 1.287 . S
C2317 C2316 1.287 . S
C2317 C2318 1.524 . S
C2317 H2320 0.999 . S
C2318 H2288 0.950 . S
C2318 C2317 1.524 . S
C2318 C2319 1.415 . S
C2319 H2289 0.950 . S
C2319 C2314 1.363 . S
C2319 C2318 1.415 . S
H2320 C2317 0.999 . S
H2321 C2302 0.913 . S
H2322 C2340 0.951 . S
H2323 C2342 0.951 . S
H2324 C2344 0.950 . S
H2325 C2345 0.950 . S
H2326 C2347 0.950 . S
H2327 C2350 0.950 . S
H2328 C2351 0.950 . S
H2329 C2353 0.950 . S
H2330 C2354 0.950 . S
H2331 C2355 0.951 . S
H2332 C2357 0.951 . S
H2333 C2359 0.950 . S
H2334 C2360 0.950 . S
H2335 C2362 0.950 . S
H2336 C2365 0.950 . S
H2337 C2366 0.950 . S
H2338 C2368 0.950 . S
H2339 C2369 0.950 . S
C2340 H2322 0.951 . S
C2340 C2341 1.366 . S
C2340 C2342 1.388 . S
C2341 C2340 1.366 . S
C2341 C2345 1.385 . S
C2342 H2323 0.951 . S
C2342 C2340 1.388 . S
C2342 C2343 1.366 . S
C2343 C2342 1.366 . S
C2343 C2344 1.414 . S
C2343 C2346 1.499 . S
C2344 H2324 0.950 . S
C2344 C2343 1.414 . S
C2344 C2345 1.374 . S
C2345 H2325 0.950 . S
C2345 C2341 1.385 . S
C2345 C2344 1.374 . S
C2346 C2343 1.499 . S
C2346 C2347 1.373 1_554 S
C2346 C2348 1.389 . S
C2347 H2326 0.950 . S
C2347 C2346 1.373 1_556 S
C2347 C2363 1.377 . S
C2348 C2346 1.389 . S
C2348 C2349 1.524 . S
C2348 C2362 1.377 . S
C2349 C2348 1.524 . S
C2349 C2350 1.397 . S
C2349 C2354 1.363 . S
C2350 H2327 0.950 . S
C2350 C2349 1.397 . S
C2350 C2351 1.334 . S
C2351 H2328 0.950 . S
C2351 C2350 1.334 . S
C2351 C2352 1.287 . S
C2352 C2351 1.287 . S
C2352 C2353 1.524 . S
C2352 H2371 0.913 . S
C2353 H2329 0.950 . S
C2353 C2352 1.524 . S
C2353 C2354 1.415 . S
C2354 H2330 0.950 . S
C2354 C2349 1.363 . S
C2354 C2353 1.415 . S
C2355 H2331 0.951 . S
C2355 C2356 1.366 . S
C2355 C2357 1.388 . S
C2356 C2355 1.366 . S
C2356 C2360 1.385 . S
C2357 H2332 0.951 . S
C2357 C2355 1.388 . S
C2357 C2358 1.366 . S
C2358 C2357 1.366 . S
C2358 C2359 1.414 . S
C2358 C2361 1.499 . S
C2359 H2333 0.950 . S
C2359 C2358 1.414 . S
C2359 C2360 1.374 . S
C2360 H2334 0.950 . S
C2360 C2356 1.385 . S
C2360 C2359 1.374 . S
C2361 C2358 1.499 . S
C2361 C2362 1.373 1_556 S
C2361 C2363 1.389 . S
C2362 H2335 0.950 . S
C2362 C2348 1.377 . S
C2362 C2361 1.373 1_554 S
C2363 C2347 1.377 . S
C2363 C2361 1.389 . S
C2363 C2364 1.524 . S
C2364 C2363 1.524 . S
C2364 C2365 1.397 . S
C2364 C2369 1.363 . S
C2365 H2336 0.950 . S
C2365 C2364 1.397 . S
C2365 C2366 1.334 . S
C2366 H2337 0.950 . S
C2366 C2365 1.334 . S
C2366 C2367 1.287 . S
C2367 C2366 1.287 . S
C2367 C2368 1.524 . S
C2367 H2370 0.999 . S
C2368 H2338 0.950 . S
C2368 C2367 1.524 . S
C2368 C2369 1.415 . S
C2369 H2339 0.950 . S
C2369 C2364 1.363 . S
C2369 C2368 1.415 . S
H2370 C2367 0.999 . S
H2371 C2352 0.913 . S
H2372 C2390 0.951 . S
H2373 C2392 0.951 . S
H2374 C2394 0.950 . S
H2375 C2395 0.950 . S
H2376 C2397 0.950 . S
H2377 C2400 0.950 . S
H2378 C2401 0.950 . S
H2379 C2403 0.950 . S
H2380 C2404 0.950 . S
H2381 C2405 0.951 . S
H2382 C2407 0.951 . S
H2383 C2409 0.950 . S
H2384 C2410 0.950 . S
H2385 C2412 0.950 . S
H2386 C2415 0.950 . S
H2387 C2416 0.950 . S
H2388 C2418 0.950 . S
H2389 C2419 0.950 . S
C2390 H2372 0.951 . S
C2390 C2391 1.366 . S
C2390 C2392 1.388 . S
C2391 C2390 1.366 . S
C2391 C2395 1.385 . S
C2392 H2373 0.951 . S
C2392 C2390 1.388 . S
C2392 C2393 1.366 . S
C2393 C2392 1.366 . S
C2393 C2394 1.414 . S
C2393 C2396 1.499 . S
C2394 H2374 0.950 . S
C2394 C2393 1.414 . S
C2394 C2395 1.374 . S
C2395 H2375 0.950 . S
C2395 C2391 1.385 . S
C2395 C2394 1.374 . S
C2396 C2393 1.499 . S
C2396 C2397 1.373 . S
C2396 C2398 1.389 1_554 S
C2397 H2376 0.950 . S
C2397 C2396 1.373 . S
C2397 C2413 1.377 . S
C2398 C2396 1.389 1_556 S
C2398 C2399 1.524 . S
C2398 C2412 1.377 . S
C2399 C2398 1.524 . S
C2399 C2400 1.397 . S
C2399 C2404 1.363 . S
C2400 H2377 0.950 . S
C2400 C2399 1.397 . S
C2400 C2401 1.334 . S
C2401 H2378 0.950 . S
C2401 C2400 1.334 . S
C2401 C2402 1.287 . S
C2402 C2401 1.287 . S
C2402 C2403 1.524 . S
C2402 H2421 0.913 . S
C2403 H2379 0.950 . S
C2403 C2402 1.524 . S
C2403 C2404 1.415 . S
C2404 H2380 0.950 . S
C2404 C2399 1.363 . S
C2404 C2403 1.415 . S
C2405 H2381 0.951 . S
C2405 C2406 1.366 . S
C2405 C2407 1.388 . S
C2406 C2405 1.366 . S
C2406 C2410 1.385 . S
C2407 H2382 0.951 . S
C2407 C2405 1.388 . S
C2407 C2408 1.366 . S
C2408 C2407 1.366 . S
C2408 C2409 1.414 . S
C2408 C2411 1.499 . S
C2409 H2383 0.950 . S
C2409 C2408 1.414 . S
C2409 C2410 1.374 . S
C2410 H2384 0.950 . S
C2410 C2406 1.385 . S
C2410 C2409 1.374 . S
C2411 C2408 1.499 . S
C2411 C2412 1.373 . S
C2411 C2413 1.389 1_556 S
C2412 H2385 0.950 . S
C2412 C2398 1.377 . S
C2412 C2411 1.373 . S
C2413 C2397 1.377 . S
C2413 C2411 1.389 1_554 S
C2413 C2414 1.524 . S
C2414 C2413 1.524 . S
C2414 C2415 1.397 . S
C2414 C2419 1.363 . S
C2415 H2386 0.950 . S
C2415 C2414 1.397 . S
C2415 C2416 1.334 . S
C2416 H2387 0.950 . S
C2416 C2415 1.334 . S
C2416 C2417 1.287 . S
C2417 C2416 1.287 . S
C2417 C2418 1.524 . S
C2417 H2420 0.999 . S
C2418 H2388 0.950 . S
C2418 C2417 1.524 . S
C2418 C2419 1.415 . S
C2419 H2389 0.950 . S
C2419 C2414 1.363 . S
C2419 C2418 1.415 . S
H2420 C2417 0.999 . S
H2421 C2402 0.913 . S
H2422 C2440 0.951 . S
H2423 C2442 0.951 . S
H2424 C2444 0.950 . S
H2425 C2445 0.950 . S
H2426 C2447 0.950 . S
H2427 C2450 0.950 . S
H2428 C2451 0.950 . S
H2429 C2453 0.950 . S
H2430 C2454 0.950 . S
H2431 C2455 0.951 . S
H2432 C2457 0.951 . S
H2433 C2459 0.950 . S
H2434 C2460 0.950 . S
H2435 C2462 0.950 . S
H2436 C2465 0.950 . S
H2437 C2466 0.950 . S
H2438 C2468 0.950 . S
H2439 C2469 0.950 . S
C2440 H2422 0.951 . S
C2440 C2441 1.366 . S
C2440 C2442 1.388 . S
C2441 C2440 1.366 . S
C2441 C2445 1.385 . S
C2442 H2423 0.951 . S
C2442 C2440 1.388 . S
C2442 C2443 1.366 . S
C2443 C2442 1.366 . S
C2443 C2444 1.414 . S
C2443 C2446 1.499 . S
C2444 H2424 0.950 . S
C2444 C2443 1.414 . S
C2444 C2445 1.374 . S
C2445 H2425 0.950 . S
C2445 C2441 1.385 . S
C2445 C2444 1.374 . S
C2446 C2443 1.499 . S
C2446 C2447 1.373 1_556 S
C2446 C2448 1.389 . S
C2447 H2426 0.950 . S
C2447 C2446 1.373 1_554 S
C2447 C2463 1.377 . S
C2448 C2446 1.389 . S
C2448 C2449 1.524 . S
C2448 C2462 1.377 . S
C2449 C2448 1.524 . S
C2449 C2450 1.397 . S
C2449 C2454 1.363 . S
C2450 H2427 0.950 . S
C2450 C2449 1.397 . S
C2450 C2451 1.334 . S
C2451 H2428 0.950 . S
C2451 C2450 1.334 . S
C2451 C2452 1.287 . S
C2452 C2451 1.287 . S
C2452 C2453 1.524 . S
C2452 H2471 0.913 . S
C2453 H2429 0.950 . S
C2453 C2452 1.524 . S
C2453 C2454 1.415 . S
C2454 H2430 0.950 . S
C2454 C2449 1.363 . S
C2454 C2453 1.415 . S
C2455 H2431 0.951 . S
C2455 C2456 1.366 . S
C2455 C2457 1.388 . S
C2456 C2455 1.366 . S
C2456 C2460 1.385 . S
C2457 H2432 0.951 . S
C2457 C2455 1.388 . S
C2457 C2458 1.366 . S
C2458 C2457 1.366 . S
C2458 C2459 1.414 . S
C2458 C2461 1.499 . S
C2459 H2433 0.950 . S
C2459 C2458 1.414 . S
C2459 C2460 1.374 . S
C2460 H2434 0.950 . S
C2460 C2456 1.385 . S
C2460 C2459 1.374 . S
C2461 C2458 1.499 . S
C2461 C2462 1.373 1_554 S
C2461 C2463 1.389 . S
C2462 H2435 0.950 . S
C2462 C2448 1.377 . S
C2462 C2461 1.373 1_556 S
C2463 C2447 1.377 . S
C2463 C2461 1.389 . S
C2463 C2464 1.524 . S
C2464 C2463 1.524 . S
C2464 C2465 1.397 . S
C2464 C2469 1.363 . S
C2465 H2436 0.950 . S
C2465 C2464 1.397 . S
C2465 C2466 1.334 . S
C2466 H2437 0.950 . S
C2466 C2465 1.334 . S
C2466 C2467 1.287 . S
C2467 C2466 1.287 . S
C2467 C2468 1.524 . S
C2467 H2470 0.999 . S
C2468 H2438 0.950 . S
C2468 C2467 1.524 . S
C2468 C2469 1.415 . S
C2469 H2439 0.950 . S
C2469 C2464 1.363 . S
C2469 C2468 1.415 . S
H2470 C2467 0.999 . S
H2471 C2452 0.913 . S
H2472 C2490 0.951 . S
H2473 C2492 0.951 . S
H2474 C2494 0.950 . S
H2475 C2495 0.950 . S
H2476 C2497 0.950 . S
H2477 C2500 0.950 . S
H2478 C2501 0.950 . S
H2479 C2503 0.950 . S
H2480 C2504 0.950 . S
H2481 C2505 0.951 . S
H2482 C2507 0.951 . S
H2483 C2509 0.950 . S
H2484 C2510 0.950 . S
H2485 C2512 0.950 . S
H2486 C2515 0.950 . S
H2487 C2516 0.950 . S
H2488 C2518 0.950 . S
H2489 C2519 0.950 . S
C2490 H2472 0.951 . S
C2490 C2491 1.366 . S
C2490 C2492 1.388 . S
C2491 C2490 1.366 . S
C2491 C2495 1.385 . S
C2492 H2473 0.951 . S
C2492 C2490 1.388 . S
C2492 C2493 1.366 . S
C2493 C2492 1.366 . S
C2493 C2494 1.414 . S
C2493 C2496 1.499 . S
C2494 H2474 0.950 . S
C2494 C2493 1.414 . S
C2494 C2495 1.374 . S
C2495 H2475 0.950 . S
C2495 C2491 1.385 . S
C2495 C2494 1.374 . S
C2496 C2493 1.499 . S
C2496 C2497 1.373 . S
C2496 C2498 1.389 . S
C2497 H2476 0.950 . S
C2497 C2496 1.373 . S
C2497 C2513 1.377 . S
C2498 C2496 1.389 . S
C2498 C2499 1.524 . S
C2498 C2512 1.377 . S
C2499 C2498 1.524 . S
C2499 C2500 1.397 . S
C2499 C2504 1.363 . S
C2500 H2477 0.950 . S
C2500 C2499 1.397 . S
C2500 C2501 1.334 . S
C2501 H2478 0.950 . S
C2501 C2500 1.334 . S
C2501 C2502 1.287 . S
C2502 C2501 1.287 . S
C2502 C2503 1.524 . S
C2502 H2521 0.913 . S
C2503 H2479 0.950 . S
C2503 C2502 1.524 . S
C2503 C2504 1.415 . S
C2504 H2480 0.950 . S
C2504 C2499 1.363 . S
C2504 C2503 1.415 . S
C2505 H2481 0.951 . S
C2505 C2506 1.366 . S
C2505 C2507 1.388 . S
C2506 C2505 1.366 . S
C2506 C2510 1.385 . S
C2507 H2482 0.951 . S
C2507 C2505 1.388 . S
C2507 C2508 1.366 . S
C2508 C2507 1.366 . S
C2508 C2509 1.414 . S
C2508 C2511 1.499 . S
C2509 H2483 0.950 . S
C2509 C2508 1.414 . S
C2509 C2510 1.374 . S
C2510 H2484 0.950 . S
C2510 C2506 1.385 . S
C2510 C2509 1.374 . S
C2511 C2508 1.499 . S
C2511 C2512 1.373 . S
C2511 C2513 1.389 . S
C2512 H2485 0.950 . S
C2512 C2498 1.377 . S
C2512 C2511 1.373 . S
C2513 C2497 1.377 . S
C2513 C2511 1.389 . S
C2513 C2514 1.524 . S
C2514 C2513 1.524 . S
C2514 C2515 1.397 . S
C2514 C2519 1.363 . S
C2515 H2486 0.950 . S
C2515 C2514 1.397 . S
C2515 C2516 1.334 . S
C2516 H2487 0.950 . S
C2516 C2515 1.334 . S
C2516 C2517 1.287 . S
C2517 C2516 1.287 . S
C2517 C2518 1.524 . S
C2517 H2520 0.999 . S
C2518 H2488 0.950 . S
C2518 C2517 1.524 . S
C2518 C2519 1.415 . S
C2519 H2489 0.950 . S
C2519 C2514 1.363 . S
C2519 C2518 1.415 . S
H2520 C2517 0.999 . S
H2521 C2502 0.913 . S
H2522 C2540 0.951 . S
H2523 C2542 0.951 . S
H2524 C2544 0.950 . S
H2525 C2545 0.950 . S
H2526 C2547 0.950 . S
H2527 C2550 0.950 . S
H2528 C2551 0.950 . S
H2529 C2553 0.950 . S
H2530 C2554 0.950 . S
H2531 C2555 0.951 . S
H2532 C2557 0.951 . S
H2533 C2559 0.950 . S
H2534 C2560 0.950 . S
H2535 C2562 0.950 . S
H2536 C2565 0.950 . S
H2537 C2566 0.950 . S
H2538 C2568 0.950 . S
H2539 C2569 0.950 . S
C2540 H2522 0.951 . S
C2540 C2541 1.366 . S
C2540 C2542 1.388 . S
C2541 C2540 1.366 . S
C2541 C2545 1.385 . S
C2542 H2523 0.951 . S
C2542 C2540 1.388 . S
C2542 C2543 1.366 . S
C2543 C2542 1.366 . S
C2543 C2544 1.414 . S
C2543 C2546 1.499 . S
C2544 H2524 0.950 . S
C2544 C2543 1.414 . S
C2544 C2545 1.374 . S
C2545 H2525 0.950 . S
C2545 C2541 1.385 . S
C2545 C2544 1.374 . S
C2546 C2543 1.499 . S
C2546 C2547 1.373 . S
C2546 C2548 1.389 . S
C2547 H2526 0.950 . S
C2547 C2546 1.373 . S
C2547 C2563 1.377 . S
C2548 C2546 1.389 . S
C2548 C2549 1.524 . S
C2548 C2562 1.377 . S
C2549 C2548 1.524 . S
C2549 C2550 1.397 . S
C2549 C2554 1.363 . S
C2550 H2527 0.950 . S
C2550 C2549 1.397 . S
C2550 C2551 1.334 . S
C2551 H2528 0.950 . S
C2551 C2550 1.334 . S
C2551 C2552 1.287 . S
C2552 C2551 1.287 . S
C2552 C2553 1.524 . S
C2552 H2571 0.913 . S
C2553 H2529 0.950 . S
C2553 C2552 1.524 . S
C2553 C2554 1.415 . S
C2554 H2530 0.950 . S
C2554 C2549 1.363 . S
C2554 C2553 1.415 . S
C2555 H2531 0.951 . S
C2555 C2556 1.366 . S
C2555 C2557 1.388 . S
C2556 C2555 1.366 . S
C2556 C2560 1.385 . S
C2557 H2532 0.951 . S
C2557 C2555 1.388 . S
C2557 C2558 1.366 . S
C2558 C2557 1.366 . S
C2558 C2559 1.414 . S
C2558 C2561 1.499 . S
C2559 H2533 0.950 . S
C2559 C2558 1.414 . S
C2559 C2560 1.374 . S
C2560 H2534 0.950 . S
C2560 C2556 1.385 . S
C2560 C2559 1.374 . S
C2561 C2558 1.499 . S
C2561 C2562 1.373 . S
C2561 C2563 1.389 . S
C2562 H2535 0.950 . S
C2562 C2548 1.377 . S
C2562 C2561 1.373 . S
C2563 C2547 1.377 . S
C2563 C2561 1.389 . S
C2563 C2564 1.524 . S
C2564 C2563 1.524 . S
C2564 C2565 1.397 . S
C2564 C2569 1.363 . S
C2565 H2536 0.950 . S
C2565 C2564 1.397 . S
C2565 C2566 1.334 . S
C2566 H2537 0.950 . S
C2566 C2565 1.334 . S
C2566 C2567 1.287 . S
C2567 C2566 1.287 . S
C2567 C2568 1.524 . S
C2567 H2570 0.999 . S
C2568 H2538 0.950 . S
C2568 C2567 1.524 . S
C2568 C2569 1.415 . S
C2569 H2539 0.950 . S
C2569 C2564 1.363 . S
C2569 C2568 1.415 . S
H2570 C2567 0.999 . S
H2571 C2552 0.913 . S
H2572 C2590 0.951 . S
H2573 C2592 0.951 . S
H2574 C2594 0.950 . S
H2575 C2595 0.950 . S
H2576 C2597 0.950 . S
H2577 C2600 0.950 . S
H2578 C2601 0.950 . S
H2579 C2603 0.950 . S
H2580 C2604 0.950 . S
H2581 C2605 0.951 . S
H2582 C2607 0.951 . S
H2583 C2609 0.950 . S
H2584 C2610 0.950 . S
H2585 C2612 0.950 . S
H2586 C2615 0.950 . S
H2587 C2616 0.950 . S
H2588 C2618 0.950 . S
H2589 C2619 0.950 . S
C2590 H2572 0.951 . S
C2590 C2591 1.366 . S
C2590 C2592 1.388 . S
C2591 C2590 1.366 . S
C2591 C2595 1.385 . S
C2592 H2573 0.951 . S
C2592 C2590 1.388 . S
C2592 C2593 1.366 . S
C2593 C2592 1.366 . S
C2593 C2594 1.414 . S
C2593 C2596 1.499 . S
C2594 H2574 0.950 . S
C2594 C2593 1.414 . S
C2594 C2595 1.374 . S
C2595 H2575 0.950 . S
C2595 C2591 1.385 . S
C2595 C2594 1.374 . S
C2596 C2593 1.499 . S
C2596 C2597 1.373 . S
C2596 C2598 1.389 . S
C2597 H2576 0.950 . S
C2597 C2596 1.373 . S
C2597 C2613 1.377 . S
C2598 C2596 1.389 . S
C2598 C2599 1.524 . S
C2598 C2612 1.377 . S
C2599 C2598 1.524 . S
C2599 C2600 1.397 . S
C2599 C2604 1.363 . S
C2600 H2577 0.950 . S
C2600 C2599 1.397 . S
C2600 C2601 1.334 . S
C2601 H2578 0.950 . S
C2601 C2600 1.334 . S
C2601 C2602 1.287 . S
C2602 C2601 1.287 . S
C2602 C2603 1.524 . S
C2602 H2621 0.913 . S
C2603 H2579 0.950 . S
C2603 C2602 1.524 . S
C2603 C2604 1.415 . S
C2604 H2580 0.950 . S
C2604 C2599 1.363 . S
C2604 C2603 1.415 . S
C2605 H2581 0.951 . S
C2605 C2606 1.366 . S
C2605 C2607 1.388 . S
C2606 C2605 1.366 . S
C2606 C2610 1.385 . S
C2607 H2582 0.951 . S
C2607 C2605 1.388 . S
C2607 C2608 1.366 . S
C2608 C2607 1.366 . S
C2608 C2609 1.414 . S
C2608 C2611 1.499 . S
C2609 H2583 0.950 . S
C2609 C2608 1.414 . S
C2609 C2610 1.374 . S
C2610 H2584 0.950 . S
C2610 C2606 1.385 . S
C2610 C2609 1.374 . S
C2611 C2608 1.499 . S
C2611 C2612 1.373 . S
C2611 C2613 1.389 . S
C2612 H2585 0.950 . S
C2612 C2598 1.377 . S
C2612 C2611 1.373 . S
C2613 C2597 1.377 . S
C2613 C2611 1.389 . S
C2613 C2614 1.524 . S
C2614 C2613 1.524 . S
C2614 C2615 1.397 . S
C2614 C2619 1.363 . S
C2615 H2586 0.950 . S
C2615 C2614 1.397 . S
C2615 C2616 1.334 . S
C2616 H2587 0.950 . S
C2616 C2615 1.334 . S
C2616 C2617 1.287 . S
C2617 C2616 1.287 . S
C2617 C2618 1.524 . S
C2617 H2620 0.999 . S
C2618 H2588 0.950 . S
C2618 C2617 1.524 . S
C2618 C2619 1.415 . S
C2619 H2589 0.950 . S
C2619 C2614 1.363 . S
C2619 C2618 1.415 . S
H2620 C2617 0.999 . S
H2621 C2602 0.913 . S
H2622 C2640 0.951 . S
H2623 C2642 0.951 . S
H2624 C2644 0.950 . S
H2625 C2645 0.950 . S
H2626 C2647 0.950 . S
H2627 C2650 0.950 . S
H2628 C2651 0.950 . S
H2629 C2653 0.950 . S
H2630 C2654 0.950 . S
H2631 C2655 0.951 . S
H2632 C2657 0.951 . S
H2633 C2659 0.950 . S
H2634 C2660 0.950 . S
H2635 C2662 0.950 . S
H2636 C2665 0.950 . S
H2637 C2666 0.950 . S
H2638 C2668 0.950 . S
H2639 C2669 0.950 . S
C2640 H2622 0.951 . S
C2640 C2641 1.366 . S
C2640 C2642 1.388 . S
C2641 C2640 1.366 . S
C2641 C2645 1.385 . S
C2642 H2623 0.951 . S
C2642 C2640 1.388 . S
C2642 C2643 1.366 . S
C2643 C2642 1.366 . S
C2643 C2644 1.414 . S
C2643 C2646 1.499 . S
C2644 H2624 0.950 . S
C2644 C2643 1.414 . S
C2644 C2645 1.374 . S
C2645 H2625 0.950 . S
C2645 C2641 1.385 . S
C2645 C2644 1.374 . S
C2646 C2643 1.499 . S
C2646 C2647 1.373 . S
C2646 C2648 1.389 . S
C2647 H2626 0.950 . S
C2647 C2646 1.373 . S
C2647 C2663 1.377 . S
C2648 C2646 1.389 . S
C2648 C2649 1.524 . S
C2648 C2662 1.377 . S
C2649 C2648 1.524 . S
C2649 C2650 1.397 . S
C2649 C2654 1.363 . S
C2650 H2627 0.950 . S
C2650 C2649 1.397 . S
C2650 C2651 1.334 . S
C2651 H2628 0.950 . S
C2651 C2650 1.334 . S
C2651 C2652 1.287 . S
C2652 C2651 1.287 . S
C2652 C2653 1.524 . S
C2652 H2671 0.913 . S
C2653 H2629 0.950 . S
C2653 C2652 1.524 . S
C2653 C2654 1.415 . S
C2654 H2630 0.950 . S
C2654 C2649 1.363 . S
C2654 C2653 1.415 . S
C2655 H2631 0.951 . S
C2655 C2656 1.366 . S
C2655 C2657 1.388 . S
C2656 C2655 1.366 . S
C2656 C2660 1.385 . S
C2657 H2632 0.951 . S
C2657 C2655 1.388 . S
C2657 C2658 1.366 . S
C2658 C2657 1.366 . S
C2658 C2659 1.414 . S
C2658 C2661 1.499 . S
C2659 H2633 0.950 . S
C2659 C2658 1.414 . S
C2659 C2660 1.374 . S
C2660 H2634 0.950 . S
C2660 C2656 1.385 . S
C2660 C2659 1.374 . S
C2661 C2658 1.499 . S
C2661 C2662 1.373 . S
C2661 C2663 1.389 . S
C2662 H2635 0.950 . S
C2662 C2648 1.377 . S
C2662 C2661 1.373 . S
C2663 C2647 1.377 . S
C2663 C2661 1.389 . S
C2663 C2664 1.524 . S
C2664 C2663 1.524 . S
C2664 C2665 1.397 . S
C2664 C2669 1.363 . S
C2665 H2636 0.950 . S
C2665 C2664 1.397 . S
C2665 C2666 1.334 . S
C2666 H2637 0.950 . S
C2666 C2665 1.334 . S
C2666 C2667 1.287 . S
C2667 C2666 1.287 . S
C2667 C2668 1.524 . S
C2667 H2670 0.999 . S
C2668 H2638 0.950 . S
C2668 C2667 1.524 . S
C2668 C2669 1.415 . S
C2669 H2639 0.950 . S
C2669 C2664 1.363 . S
C2669 C2668 1.415 . S
H2670 C2667 0.999 . S
H2671 C2652 0.913 . S
H2672 C2690 0.951 . S
H2673 C2692 0.951 . S
H2674 C2694 0.950 . S
H2675 C2695 0.950 . S
H2676 C2697 0.950 . S
H2677 C2700 0.950 . S
H2678 C2701 0.950 . S
H2679 C2703 0.950 . S
H2680 C2704 0.950 . S
H2681 C2705 0.951 . S
H2682 C2707 0.951 . S
H2683 C2709 0.950 . S
H2684 C2710 0.950 . S
H2685 C2712 0.950 . S
H2686 C2715 0.950 . S
H2687 C2716 0.950 . S
H2688 C2718 0.950 . S
H2689 C2719 0.950 . S
C2690 H2672 0.951 . S
C2690 C2691 1.366 . S
C2690 C2692 1.388 . S
C2691 C2690 1.366 . S
C2691 C2695 1.385 . S
C2692 H2673 0.951 . S
C2692 C2690 1.388 . S
C2692 C2693 1.366 . S
C2693 C2692 1.366 . S
C2693 C2694 1.414 . S
C2693 C2696 1.499 . S
C2694 H2674 0.950 . S
C2694 C2693 1.414 . S
C2694 C2695 1.374 . S
C2695 H2675 0.950 . S
C2695 C2691 1.385 . S
C2695 C2694 1.374 . S
C2696 C2693 1.499 . S
C2696 C2697 1.373 . S
C2696 C2698 1.389 . S
C2697 H2676 0.950 . S
C2697 C2696 1.373 . S
C2697 C2713 1.377 . S
C2698 C2696 1.389 . S
C2698 C2699 1.524 . S
C2698 C2712 1.377 . S
C2699 C2698 1.524 . S
C2699 C2700 1.397 . S
C2699 C2704 1.363 . S
C2700 H2677 0.950 . S
C2700 C2699 1.397 . S
C2700 C2701 1.334 . S
C2701 H2678 0.950 . S
C2701 C2700 1.334 . S
C2701 C2702 1.287 . S
C2702 C2701 1.287 . S
C2702 C2703 1.524 . S
C2702 H2721 0.913 . S
C2703 H2679 0.950 . S
C2703 C2702 1.524 . S
C2703 C2704 1.415 . S
C2704 H2680 0.950 . S
C2704 C2699 1.363 . S
C2704 C2703 1.415 . S
C2705 H2681 0.951 . S
C2705 C2706 1.366 . S
C2705 C2707 1.388 . S
C2706 C2705 1.366 . S
C2706 C2710 1.385 . S
C2707 H2682 0.951 . S
C2707 C2705 1.388 . S
C2707 C2708 1.366 . S
C2708 C2707 1.366 . S
C2708 C2709 1.414 . S
C2708 C2711 1.499 . S
C2709 H2683 0.950 . S
C2709 C2708 1.414 . S
C2709 C2710 1.374 . S
C2710 H2684 0.950 . S
C2710 C2706 1.385 . S
C2710 C2709 1.374 . S
C2711 C2708 1.499 . S
C2711 C2712 1.373 . S
C2711 C2713 1.389 . S
C2712 H2685 0.950 . S
C2712 C2698 1.377 . S
C2712 C2711 1.373 . S
C2713 C2697 1.377 . S
C2713 C2711 1.389 . S
C2713 C2714 1.524 . S
C2714 C2713 1.524 . S
C2714 C2715 1.397 . S
C2714 C2719 1.363 . S
C2715 H2686 0.950 . S
C2715 C2714 1.397 . S
C2715 C2716 1.334 . S
C2716 H2687 0.950 . S
C2716 C2715 1.334 . S
C2716 C2717 1.287 . S
C2717 C2716 1.287 . S
C2717 C2718 1.524 . S
C2717 H2720 0.999 . S
C2718 H2688 0.950 . S
C2718 C2717 1.524 . S
C2718 C2719 1.415 . S
C2719 H2689 0.950 . S
C2719 C2714 1.363 . S
C2719 C2718 1.415 . S
H2720 C2717 0.999 . S
H2721 C2702 0.913 . S
H2722 C2740 0.951 . S
H2723 C2742 0.951 . S
H2724 C2744 0.950 . S
H2725 C2745 0.950 . S
H2726 C2747 0.950 . S
H2727 C2750 0.950 . S
H2728 C2751 0.950 . S
H2729 C2753 0.950 . S
H2730 C2754 0.950 . S
H2731 C2755 0.951 . S
H2732 C2757 0.951 . S
H2733 C2759 0.950 . S
H2734 C2760 0.950 . S
H2735 C2762 0.950 . S
H2736 C2765 0.950 . S
H2737 C2766 0.950 . S
H2738 C2768 0.950 . S
H2739 C2769 0.950 . S
C2740 H2722 0.951 . S
C2740 C2741 1.366 . S
C2740 C2742 1.388 . S
C2741 C2740 1.366 . S
C2741 C2745 1.385 . S
C2742 H2723 0.951 . S
C2742 C2740 1.388 . S
C2742 C2743 1.366 . S
C2743 C2742 1.366 . S
C2743 C2744 1.414 . S
C2743 C2746 1.499 . S
C2744 H2724 0.950 . S
C2744 C2743 1.414 . S
C2744 C2745 1.374 . S
C2745 H2725 0.950 . S
C2745 C2741 1.385 . S
C2745 C2744 1.374 . S
C2746 C2743 1.499 . S
C2746 C2747 1.373 . S
C2746 C2748 1.389 . S
C2747 H2726 0.950 . S
C2747 C2746 1.373 . S
C2747 C2763 1.377 . S
C2748 C2746 1.389 . S
C2748 C2749 1.524 . S
C2748 C2762 1.377 . S
C2749 C2748 1.524 . S
C2749 C2750 1.397 . S
C2749 C2754 1.363 . S
C2750 H2727 0.950 . S
C2750 C2749 1.397 . S
C2750 C2751 1.334 . S
C2751 H2728 0.950 . S
C2751 C2750 1.334 . S
C2751 C2752 1.287 . S
C2752 C2751 1.287 . S
C2752 C2753 1.524 . S
C2752 H2771 0.913 . S
C2753 H2729 0.950 . S
C2753 C2752 1.524 . S
C2753 C2754 1.415 . S
C2754 H2730 0.950 . S
C2754 C2749 1.363 . S
C2754 C2753 1.415 . S
C2755 H2731 0.951 . S
C2755 C2756 1.366 . S
C2755 C2757 1.388 . S
C2756 C2755 1.366 . S
C2756 C2760 1.385 . S
C2757 H2732 0.951 . S
C2757 C2755 1.388 . S
C2757 C2758 1.366 . S
C2758 C2757 1.366 . S
C2758 C2759 1.414 . S
C2758 C2761 1.499 . S
C2759 H2733 0.950 . S
C2759 C2758 1.414 . S
C2759 C2760 1.374 . S
C2760 H2734 0.950 . S
C2760 C2756 1.385 . S
C2760 C2759 1.374 . S
C2761 C2758 1.499 . S
C2761 C2762 1.373 . S
C2761 C2763 1.389 . S
C2762 H2735 0.950 . S
C2762 C2748 1.377 . S
C2762 C2761 1.373 . S
C2763 C2747 1.377 . S
C2763 C2761 1.389 . S
C2763 C2764 1.524 . S
C2764 C2763 1.524 . S
C2764 C2765 1.397 . S
C2764 C2769 1.363 . S
C2765 H2736 0.950 . S
C2765 C2764 1.397 . S
C2765 C2766 1.334 . S
C2766 H2737 0.950 . S
C2766 C2765 1.334 . S
C2766 C2767 1.287 . S
C2767 C2766 1.287 . S
C2767 C2768 1.524 . S
C2767 H2770 0.999 . S
C2768 H2738 0.950 . S
C2768 C2767 1.524 . S
C2768 C2769 1.415 . S
C2769 H2739 0.950 . S
C2769 C2764 1.363 . S
C2769 C2768 1.415 . S
H2770 C2767 0.999 . S
H2771 C2752 0.913 . S
H2772 C2790 0.951 . S
H2773 C2792 0.951 . S
H2774 C2794 0.950 . S
H2775 C2795 0.950 . S
H2776 C2797 0.950 . S
H2777 C2800 0.950 . S
H2778 C2801 0.950 . S
H2779 C2803 0.950 . S
H2780 C2804 0.950 . S
H2781 C2805 0.951 . S
H2782 C2807 0.951 . S
H2783 C2809 0.950 . S
H2784 C2810 0.950 . S
H2785 C2812 0.950 . S
H2786 C2815 0.950 . S
H2787 C2816 0.950 . S
H2788 C2818 0.950 . S
H2789 C2819 0.950 . S
C2790 H2772 0.951 . S
C2790 C2791 1.366 . S
C2790 C2792 1.388 . S
C2791 C2790 1.366 . S
C2791 C2795 1.385 . S
C2792 H2773 0.951 . S
C2792 C2790 1.388 . S
C2792 C2793 1.366 . S
C2793 C2792 1.366 . S
C2793 C2794 1.414 . S
C2793 C2796 1.499 . S
C2794 H2774 0.950 . S
C2794 C2793 1.414 . S
C2794 C2795 1.374 . S
C2795 H2775 0.950 . S
C2795 C2791 1.385 . S
C2795 C2794 1.374 . S
C2796 C2793 1.499 . S
C2796 C2797 1.373 . S
C2796 C2798 1.389 . S
C2797 H2776 0.950 . S
C2797 C2796 1.373 . S
C2797 C2813 1.377 . S
C2798 C2796 1.389 . S
C2798 C2799 1.524 . S
C2798 C2812 1.377 . S
C2799 C2798 1.524 . S
C2799 C2800 1.397 . S
C2799 C2804 1.363 . S
C2800 H2777 0.950 . S
C2800 C2799 1.397 . S
C2800 C2801 1.334 . S
C2801 H2778 0.950 . S
C2801 C2800 1.334 . S
C2801 C2802 1.287 . S
C2802 C2801 1.287 . S
C2802 C2803 1.524 . S
C2802 H2821 0.913 . S
C2803 H2779 0.950 . S
C2803 C2802 1.524 . S
C2803 C2804 1.415 . S
C2804 H2780 0.950 . S
C2804 C2799 1.363 . S
C2804 C2803 1.415 . S
C2805 H2781 0.951 . S
C2805 C2806 1.366 . S
C2805 C2807 1.388 . S
C2806 C2805 1.366 . S
C2806 C2810 1.385 . S
C2807 H2782 0.951 . S
C2807 C2805 1.388 . S
C2807 C2808 1.366 . S
C2808 C2807 1.366 . S
C2808 C2809 1.414 . S
C2808 C2811 1.499 . S
C2809 H2783 0.950 . S
C2809 C2808 1.414 . S
C2809 C2810 1.374 . S
C2810 H2784 0.950 . S
C2810 C2806 1.385 . S
C2810 C2809 1.374 . S
C2811 C2808 1.499 . S
C2811 C2812 1.373 . S
C2811 C2813 1.389 . S
C2812 H2785 0.950 . S
C2812 C2798 1.377 . S
C2812 C2811 1.373 . S
C2813 C2797 1.377 . S
C2813 C2811 1.389 . S
C2813 C2814 1.524 . S
C2814 C2813 1.524 . S
C2814 C2815 1.397 . S
C2814 C2819 1.363 . S
C2815 H2786 0.950 . S
C2815 C2814 1.397 . S
C2815 C2816 1.334 . S
C2816 H2787 0.950 . S
C2816 C2815 1.334 . S
C2816 C2817 1.287 . S
C2817 C2816 1.287 . S
C2817 C2818 1.524 . S
C2817 H2820 0.999 . S
C2818 H2788 0.950 . S
C2818 C2817 1.524 . S
C2818 C2819 1.415 . S
C2819 H2789 0.950 . S
C2819 C2814 1.363 . S
C2819 C2818 1.415 . S
H2820 C2817 0.999 . S
H2821 C2802 0.913 . S
H2822 C2840 0.951 . S
H2823 C2842 0.951 . S
H2824 C2844 0.950 . S
H2825 C2845 0.950 . S
H2826 C2847 0.950 . S
H2827 C2850 0.950 . S
H2828 C2851 0.950 . S
H2829 C2853 0.950 . S
H2830 C2854 0.950 . S
H2831 C2855 0.951 . S
H2832 C2857 0.951 . S
H2833 C2859 0.950 . S
H2834 C2860 0.950 . S
H2835 C2862 0.950 . S
H2836 C2865 0.950 . S
H2837 C2866 0.950 . S
H2838 C2868 0.950 . S
H2839 C2869 0.950 . S
C2840 H2822 0.951 . S
C2840 C2841 1.366 . S
C2840 C2842 1.388 . S
C2841 C2840 1.366 . S
C2841 C2845 1.385 . S
C2842 H2823 0.951 . S
C2842 C2840 1.388 . S
C2842 C2843 1.366 . S
C2843 C2842 1.366 . S
C2843 C2844 1.414 . S
C2843 C2846 1.499 . S
C2844 H2824 0.950 . S
C2844 C2843 1.414 . S
C2844 C2845 1.374 . S
C2845 H2825 0.950 . S
C2845 C2841 1.385 . S
C2845 C2844 1.374 . S
C2846 C2843 1.499 . S
C2846 C2847 1.373 . S
C2846 C2848 1.389 . S
C2847 H2826 0.950 . S
C2847 C2846 1.373 . S
C2847 C2863 1.377 . S
C2848 C2846 1.389 . S
C2848 C2849 1.524 . S
C2848 C2862 1.377 . S
C2849 C2848 1.524 . S
C2849 C2850 1.397 . S
C2849 C2854 1.363 . S
C2850 H2827 0.950 . S
C2850 C2849 1.397 . S
C2850 C2851 1.334 . S
C2851 H2828 0.950 . S
C2851 C2850 1.334 . S
C2851 C2852 1.287 . S
C2852 C2851 1.287 . S
C2852 C2853 1.524 . S
C2852 H2871 0.913 . S
C2853 H2829 0.950 . S
C2853 C2852 1.524 . S
C2853 C2854 1.415 . S
C2854 H2830 0.950 . S
C2854 C2849 1.363 . S
C2854 C2853 1.415 . S
C2855 H2831 0.951 . S
C2855 C2856 1.366 . S
C2855 C2857 1.388 . S
C2856 C2855 1.366 . S
C2856 C2860 1.385 . S
C2857 H2832 0.951 . S
C2857 C2855 1.388 . S
C2857 C2858 1.366 . S
C2858 C2857 1.366 . S
C2858 C2859 1.414 . S
C2858 C2861 1.499 . S
C2859 H2833 0.950 . S
C2859 C2858 1.414 . S
C2859 C2860 1.374 . S
C2860 H2834 0.950 . S
C2860 C2856 1.385 . S
C2860 C2859 1.374 . S
C2861 C2858 1.499 . S
C2861 C2862 1.373 . S
C2861 C2863 1.389 . S
C2862 H2835 0.950 . S
C2862 C2848 1.377 . S
C2862 C2861 1.373 . S
C2863 C2847 1.377 . S
C2863 C2861 1.389 . S
C2863 C2864 1.524 . S
C2864 C2863 1.524 . S
C2864 C2865 1.397 . S
C2864 C2869 1.363 . S
C2865 H2836 0.950 . S
C2865 C2864 1.397 . S
C2865 C2866 1.334 . S
C2866 H2837 0.950 . S
C2866 C2865 1.334 . S
C2866 C2867 1.287 . S
C2867 C2866 1.287 . S
C2867 C2868 1.524 . S
C2867 H2870 0.999 . S
C2868 H2838 0.950 . S
C2868 C2867 1.524 . S
C2868 C2869 1.415 . S
C2869 H2839 0.950 . S
C2869 C2864 1.363 . S
C2869 C2868 1.415 . S
H2870 C2867 0.999 . S
H2871 C2852 0.913 . S
H2872 C2890 0.951 . S
H2873 C2892 0.951 . S
H2874 C2894 0.950 . S
H2875 C2895 0.950 . S
H2876 C2897 0.950 . S
H2877 C2900 0.950 . S
H2878 C2901 0.950 . S
H2879 C2903 0.950 . S
H2880 C2904 0.950 . S
H2881 C2905 0.951 . S
H2882 C2907 0.951 . S
H2883 C2909 0.950 . S
H2884 C2910 0.950 . S
H2885 C2912 0.950 . S
H2886 C2915 0.950 . S
H2887 C2916 0.950 . S
H2888 C2918 0.950 . S
H2889 C2919 0.950 . S
C2890 H2872 0.951 . S
C2890 C2891 1.366 . S
C2890 C2892 1.388 . S
C2891 C2890 1.366 . S
C2891 C2895 1.385 . S
C2892 H2873 0.951 . S
C2892 C2890 1.388 . S
C2892 C2893 1.366 . S
C2893 C2892 1.366 . S
C2893 C2894 1.414 . S
C2893 C2896 1.499 . S
C2894 H2874 0.950 . S
C2894 C2893 1.414 . S
C2894 C2895 1.374 . S
C2895 H2875 0.950 . S
C2895 C2891 1.385 . S
C2895 C2894 1.374 . S
C2896 C2893 1.499 . S
C2896 C2897 1.373 . S
C2896 C2898 1.389 . S
C2897 H2876 0.950 . S
C2897 C2896 1.373 . S
C2897 C2913 1.377 . S
C2898 C2896 1.389 . S
C2898 C2899 1.524 . S
C2898 C2912 1.377 . S
C2899 C2898 1.524 . S
C2899 C2900 1.397 . S
C2899 C2904 1.363 . S
C2900 H2877 0.950 . S
C2900 C2899 1.397 . S
C2900 C2901 1.334 . S
C2901 H2878 0.950 . S
C2901 C2900 1.334 . S
C2901 C2902 1.287 . S
C2902 C2901 1.287 . S
C2902 C2903 1.524 . S
C2902 H2921 0.913 . S
C2903 H2879 0.950 . S
C2903 C2902 1.524 . S
C2903 C2904 1.415 . S
C2904 H2880 0.950 . S
C2904 C2899 1.363 . S
C2904 C2903 1.415 . S
C2905 H2881 0.951 . S
C2905 C2906 1.366 . S
C2905 C2907 1.388 . S
C2906 C2905 1.366 . S
C2906 C2910 1.385 . S
C2907 H2882 0.951 . S
C2907 C2905 1.388 . S
C2907 C2908 1.366 . S
C2908 C2907 1.366 . S
C2908 C2909 1.414 . S
C2908 C2911 1.499 . S
C2909 H2883 0.950 . S
C2909 C2908 1.414 . S
C2909 C2910 1.374 . S
C2910 H2884 0.950 . S
C2910 C2906 1.385 . S
C2910 C2909 1.374 . S
C2911 C2908 1.499 . S
C2911 C2912 1.373 . S
C2911 C2913 1.389 . S
C2912 H2885 0.950 . S
C2912 C2898 1.377 . S
C2912 C2911 1.373 . S
C2913 C2897 1.377 . S
C2913 C2911 1.389 . S
C2913 C2914 1.524 . S
C2914 C2913 1.524 . S
C2914 C2915 1.397 . S
C2914 C2919 1.363 . S
C2915 H2886 0.950 . S
C2915 C2914 1.397 . S
C2915 C2916 1.334 . S
C2916 H2887 0.950 . S
C2916 C2915 1.334 . S
C2916 C2917 1.287 . S
C2917 C2916 1.287 . S
C2917 C2918 1.524 . S
C2917 H2920 0.999 . S
C2918 H2888 0.950 . S
C2918 C2917 1.524 . S
C2918 C2919 1.415 . S
C2919 H2889 0.950 . S
C2919 C2914 1.363 . S
C2919 C2918 1.415 . S
H2920 C2917 0.999 . S
H2921 C2902 0.913 . S
H2922 C2940 0.951 . S
H2923 C2942 0.951 . S
H2924 C2944 0.950 . S
H2925 C2945 0.950 . S
H2926 C2947 0.950 . S
H2927 C2950 0.950 . S
H2928 C2951 0.950 . S
H2929 C2953 0.950 . S
H2930 C2954 0.950 . S
H2931 C2955 0.951 . S
H2932 C2957 0.951 . S
H2933 C2959 0.950 . S
H2934 C2960 0.950 . S
H2935 C2962 0.950 . S
H2936 C2965 0.950 . S
H2937 C2966 0.950 . S
H2938 C2968 0.950 . S
H2939 C2969 0.950 . S
C2940 H2922 0.951 . S
C2940 C2941 1.366 . S
C2940 C2942 1.388 . S
C2941 C2940 1.366 . S
C2941 C2945 1.385 . S
C2942 H2923 0.951 . S
C2942 C2940 1.388 . S
C2942 C2943 1.366 . S
C2943 C2942 1.366 . S
C2943 C2944 1.414 . S
C2943 C2946 1.499 . S
C2944 H2924 0.950 . S
C2944 C2943 1.414 . S
C2944 C2945 1.374 . S
C2945 H2925 0.950 . S
C2945 C2941 1.385 . S
C2945 C2944 1.374 . S
C2946 C2943 1.499 . S
C2946 C2947 1.373 . S
C2946 C2948 1.389 . S
C2947 H2926 0.950 . S
C2947 C2946 1.373 . S
C2947 C2963 1.377 . S
C2948 C2946 1.389 . S
C2948 C2949 1.524 . S
C2948 C2962 1.377 . S
C2949 C2948 1.524 . S
C2949 C2950 1.397 . S
C2949 C2954 1.363 . S
C2950 H2927 0.950 . S
C2950 C2949 1.397 . S
C2950 C2951 1.334 . S
C2951 H2928 0.950 . S
C2951 C2950 1.334 . S
C2951 C2952 1.287 . S
C2952 C2951 1.287 . S
C2952 C2953 1.524 . S
C2952 H2971 0.913 . S
C2953 H2929 0.950 . S
C2953 C2952 1.524 . S
C2953 C2954 1.415 . S
C2954 H2930 0.950 . S
C2954 C2949 1.363 . S
C2954 C2953 1.415 . S
C2955 H2931 0.951 . S
C2955 C2956 1.366 . S
C2955 C2957 1.388 . S
C2956 C2955 1.366 . S
C2956 C2960 1.385 . S
C2957 H2932 0.951 . S
C2957 C2955 1.388 . S
C2957 C2958 1.366 . S
C2958 C2957 1.366 . S
C2958 C2959 1.414 . S
C2958 C2961 1.499 . S
C2959 H2933 0.950 . S
C2959 C2958 1.414 . S
C2959 C2960 1.374 . S
C2960 H2934 0.950 . S
C2960 C2956 1.385 . S
C2960 C2959 1.374 . S
C2961 C2958 1.499 . S
C2961 C2962 1.373 . S
C2961 C2963 1.389 . S
C2962 H2935 0.950 . S
C2962 C2948 1.377 . S
C2962 C2961 1.373 . S
C2963 C2947 1.377 . S
C2963 C2961 1.389 . S
C2963 C2964 1.524 . S
C2964 C2963 1.524 . S
C2964 C2965 1.397 . S
C2964 C2969 1.363 . S
C2965 H2936 0.950 . S
C2965 C2964 1.397 . S
C2965 C2966 1.334 . S
C2966 H2937 0.950 . S
C2966 C2965 1.334 . S
C2966 C2967 1.287 . S
C2967 C2966 1.287 . S
C2967 C2968 1.524 . S
C2967 H2970 0.999 . S
C2968 H2938 0.950 . S
C2968 C2967 1.524 . S
C2968 C2969 1.415 . S
C2969 H2939 0.950 . S
C2969 C2964 1.363 . S
C2969 C2968 1.415 . S
H2970 C2967 0.999 . S
H2971 C2952 0.913 . S
H2972 C2990 0.951 . S
H2973 C2992 0.951 . S
H2974 C2994 0.950 . S
H2975 C2995 0.950 . S
H2976 C2997 0.950 . S
H2977 C3000 0.950 . S
H2978 C3001 0.950 . S
H2979 C3003 0.950 . S
H2980 C3004 0.950 . S
H2981 C3005 0.951 . S
H2982 C3007 0.951 . S
H2983 C3009 0.950 . S
H2984 C3010 0.950 . S
H2985 C3012 0.950 . S
H2986 C3015 0.950 . S
H2987 C3016 0.950 . S
H2988 C3018 0.950 . S
H2989 C3019 0.950 . S
C2990 H2972 0.951 . S
C2990 C2991 1.366 . S
C2990 C2992 1.388 . S
C2991 C2990 1.366 . S
C2991 C2995 1.385 . S
C2992 H2973 0.951 . S
C2992 C2990 1.388 . S
C2992 C2993 1.366 . S
C2993 C2992 1.366 . S
C2993 C2994 1.414 . S
C2993 C2996 1.499 . S
C2994 H2974 0.950 . S
C2994 C2993 1.414 . S
C2994 C2995 1.374 . S
C2995 H2975 0.950 . S
C2995 C2991 1.385 . S
C2995 C2994 1.374 . S
C2996 C2993 1.499 . S
C2996 C2997 1.373 . S
C2996 C2998 1.389 . S
C2997 H2976 0.950 . S
C2997 C2996 1.373 . S
C2997 C3013 1.377 . S
C2998 C2996 1.389 . S
C2998 C2999 1.524 . S
C2998 C3012 1.377 . S
C2999 C2998 1.524 . S
C2999 C3000 1.397 . S
C2999 C3004 1.363 . S
C3000 H2977 0.950 . S
C3000 C2999 1.397 . S
C3000 C3001 1.334 . S
C3001 H2978 0.950 . S
C3001 C3000 1.334 . S
C3001 C3002 1.287 . S
C3002 C3001 1.287 . S
C3002 C3003 1.524 . S
C3002 H3021 0.913 . S
C3003 H2979 0.950 . S
C3003 C3002 1.524 . S
C3003 C3004 1.415 . S
C3004 H2980 0.950 . S
C3004 C2999 1.363 . S
C3004 C3003 1.415 . S
C3005 H2981 0.951 . S
C3005 C3006 1.366 . S
C3005 C3007 1.388 . S
C3006 C3005 1.366 . S
C3006 C3010 1.385 . S
C3007 H2982 0.951 . S
C3007 C3005 1.388 . S
C3007 C3008 1.366 . S
C3008 C3007 1.366 . S
C3008 C3009 1.414 . S
C3008 C3011 1.499 . S
C3009 H2983 0.950 . S
C3009 C3008 1.414 . S
C3009 C3010 1.374 . S
C3010 H2984 0.950 . S
C3010 C3006 1.385 . S
C3010 C3009 1.374 . S
C3011 C3008 1.499 . S
C3011 C3012 1.373 . S
C3011 C3013 1.389 . S
C3012 H2985 0.950 . S
C3012 C2998 1.377 . S
C3012 C3011 1.373 . S
C3013 C2997 1.377 . S
C3013 C3011 1.389 . S
C3013 C3014 1.524 . S
C3014 C3013 1.524 . S
C3014 C3015 1.397 . S
C3014 C3019 1.363 . S
C3015 H2986 0.950 . S
C3015 C3014 1.397 . S
C3015 C3016 1.334 . S
C3016 H2987 0.950 . S
C3016 C3015 1.334 . S
C3016 C3017 1.287 . S
C3017 C3016 1.287 . S
C3017 C3018 1.524 . S
C3017 H3020 0.999 . S
C3018 H2988 0.950 . S
C3018 C3017 1.524 . S
C3018 C3019 1.415 . S
C3019 H2989 0.950 . S
C3019 C3014 1.363 . S
C3019 C3018 1.415 . S
H3020 C3017 0.999 . S
H3021 C3002 0.913 . S
H3022 C3040 0.951 . S
H3023 C3042 0.951 . S
H3024 C3044 0.950 . S
H3025 C3045 0.950 . S
H3026 C3047 0.950 . S
H3027 C3050 0.950 . S
H3028 C3051 0.950 . S
H3029 C3053 0.950 . S
H3030 C3054 0.950 . S
H3031 C3055 0.951 . S
H3032 C3057 0.951 . S
H3033 C3059 0.950 . S
H3034 C3060 0.950 . S
H3035 C3062 0.950 . S
H3036 C3065 0.950 . S
H3037 C3066 0.950 . S
H3038 C3068 0.950 . S
H3039 C3069 0.950 . S
C3040 H3022 0.951 . S
C3040 C3041 1.366 . S
C3040 C3042 1.388 . S
C3041 C3040 1.366 . S
C3041 C3045 1.385 . S
C3042 H3023 0.951 . S
C3042 C3040 1.388 . S
C3042 C3043 1.366 . S
C3043 C3042 1.366 . S
C3043 C3044 1.414 . S
C3043 C3046 1.499 . S
C3044 H3024 0.950 . S
C3044 C3043 1.414 . S
C3044 C3045 1.374 . S
C3045 H3025 0.950 . S
C3045 C3041 1.385 . S
C3045 C3044 1.374 . S
C3046 C3043 1.499 . S
C3046 C3047 1.373 . S
C3046 C3048 1.389 . S
C3047 H3026 0.950 . S
C3047 C3046 1.373 . S
C3047 C3063 1.377 . S
C3048 C3046 1.389 . S
C3048 C3049 1.524 . S
C3048 C3062 1.377 . S
C3049 C3048 1.524 . S
C3049 C3050 1.397 . S
C3049 C3054 1.363 . S
C3050 H3027 0.950 . S
C3050 C3049 1.397 . S
C3050 C3051 1.334 . S
C3051 H3028 0.950 . S
C3051 C3050 1.334 . S
C3051 C3052 1.287 . S
C3052 C3051 1.287 . S
C3052 C3053 1.524 . S
C3052 H3071 0.913 . S
C3053 H3029 0.950 . S
C3053 C3052 1.524 . S
C3053 C3054 1.415 . S
C3054 H3030 0.950 . S
C3054 C3049 1.363 . S
C3054 C3053 1.415 . S
C3055 H3031 0.951 . S
C3055 C3056 1.366 . S
C3055 C3057 1.388 . S
C3056 C3055 1.366 . S
C3056 C3060 1.385 . S
C3057 H3032 0.951 . S
C3057 C3055 1.388 . S
C3057 C3058 1.366 . S
C3058 C3057 1.366 . S
C3058 C3059 1.414 . S
C3058 C3061 1.499 . S
C3059 H3033 0.950 . S
C3059 C3058 1.414 . S
C3059 C3060 1.374 . S
C3060 H3034 0.950 . S
C3060 C3056 1.385 . S
C3060 C3059 1.374 . S
C3061 C3058 1.499 . S
C3061 C3062 1.373 . S
C3061 C3063 1.389 . S
C3062 H3035 0.950 . S
C3062 C3048 1.377 . S
C3062 C3061 1.373 . S
C3063 C3047 1.377 . S
C3063 C3061 1.389 . S
C3063 C3064 1.524 . S
C3064 C3063 1.524 . S
C3064 C3065 1.397 . S
C3064 C3069 1.363 . S
C3065 H3036 0.950 . S
C3065 C3064 1.397 . S
C3065 C3066 1.334 . S
C3066 H3037 0.950 . S
C3066 C3065 1.334 . S
C3066 C3067 1.287 . S
C3067 C3066 1.287 . S
C3067 C3068 1.524 . S
C3067 H3070 0.999 . S
C3068 H3038 0.950 . S
C3068 C3067 1.524 . S
C3068 C3069 1.415 . S
C3069 H3039 0.950 . S
C3069 C3064 1.363 . S
C3069 C3068 1.415 . S
H3070 C3067 0.999 . S
H3071 C3052 0.913 . S
H3072 C3090 0.951 . S
H3073 C3092 0.951 . S
H3074 C3094 0.950 . S
H3075 C3095 0.950 . S
H3076 C3097 0.950 . S
H3077 C3100 0.950 . S
H3078 C3101 0.950 . S
H3079 C3103 0.950 . S
H3080 C3104 0.950 . S
H3081 C3105 0.951 . S
H3082 C3107 0.951 . S
H3083 C3109 0.950 . S
H3084 C3110 0.950 . S
H3085 C3112 0.950 . S
H3086 C3115 0.950 . S
H3087 C3116 0.950 . S
H3088 C3118 0.950 . S
H3089 C3119 0.950 . S
C3090 H3072 0.951 . S
C3090 C3091 1.366 . S
C3090 C3092 1.388 . S
C3091 C3090 1.366 . S
C3091 C3095 1.385 . S
C3092 H3073 0.951 . S
C3092 C3090 1.388 . S
C3092 C3093 1.366 . S
C3093 C3092 1.366 . S
C3093 C3094 1.414 . S
C3093 C3096 1.499 . S
C3094 H3074 0.950 . S
C3094 C3093 1.414 . S
C3094 C3095 1.374 . S
C3095 H3075 0.950 . S
C3095 C3091 1.385 . S
C3095 C3094 1.374 . S
C3096 C3093 1.499 . S
C3096 C3097 1.373 . S
C3096 C3098 1.389 . S
C3097 H3076 0.950 . S
C3097 C3096 1.373 . S
C3097 C3113 1.377 . S
C3098 C3096 1.389 . S
C3098 C3099 1.524 . S
C3098 C3112 1.377 . S
C3099 C3098 1.524 . S
C3099 C3100 1.397 . S
C3099 C3104 1.363 . S
C3100 H3077 0.950 . S
C3100 C3099 1.397 . S
C3100 C3101 1.334 . S
C3101 H3078 0.950 . S
C3101 C3100 1.334 . S
C3101 C3102 1.287 . S
C3102 C3101 1.287 . S
C3102 C3103 1.524 . S
C3102 H3121 0.913 . S
C3103 H3079 0.950 . S
C3103 C3102 1.524 . S
C3103 C3104 1.415 . S
C3104 H3080 0.950 . S
C3104 C3099 1.363 . S
C3104 C3103 1.415 . S
C3105 H3081 0.951 . S
C3105 C3106 1.366 . S
C3105 C3107 1.388 . S
C3106 C3105 1.366 . S
C3106 C3110 1.385 . S
C3107 H3082 0.951 . S
C3107 C3105 1.388 . S
C3107 C3108 1.366 . S
C3108 C3107 1.366 . S
C3108 C3109 1.414 . S
C3108 C3111 1.499 . S
C3109 H3083 0.950 . S
C3109 C3108 1.414 . S
C3109 C3110 1.374 . S
C3110 H3084 0.950 . S
C3110 C3106 1.385 . S
C3110 C3109 1.374 . S
C3111 C3108 1.499 . S
C3111 C3112 1.373 . S
C3111 C3113 1.389 . S
C3112 H3085 0.950 . S
C3112 C3098 1.377 . S
C3112 C3111 1.373 . S
C3113 C3097 1.377 . S
C3113 C3111 1.389 . S
C3113 C3114 1.524 . S
C3114 C3113 1.524 . S
C3114 C3115 1.397 . S
C3114 C3119 1.363 . S
C3115 H3086 0.950 . S
C3115 C3114 1.397 . S
C3115 C3116 1.334 . S
C3116 H3087 0.950 . S
C3116 C3115 1.334 . S
C3116 C3117 1.287 . S
C3117 C3116 1.287 . S
C3117 C3118 1.524 . S
C3117 H3120 0.999 . S
C3118 H3088 0.950 . S
C3118 C3117 1.524 . S
C3118 C3119 1.415 . S
C3119 H3089 0.950 . S
C3119 C3114 1.363 . S
C3119 C3118 1.415 . S
H3120 C3117 0.999 . S
H3121 C3102 0.913 . S
H3122 C3140 0.951 . S
H3123 C3142 0.951 . S
H3124 C3144 0.950 . S
H3125 C3145 0.950 . S
H3126 C3147 0.950 . S
H3127 C3150 0.950 . S
H3128 C3151 0.950 . S
H3129 C3153 0.950 . S
H3130 C3154 0.950 . S
H3131 C3155 0.951 . S
H3132 C3157 0.951 . S
H3133 C3159 0.950 . S
H3134 C3160 0.950 . S
H3135 C3162 0.950 . S
H3136 C3165 0.950 . S
H3137 C3166 0.950 . S
H3138 C3168 0.950 . S
H3139 C3169 0.950 . S
C3140 H3122 0.951 . S
C3140 C3141 1.366 . S
C3140 C3142 1.388 . S
C3141 C3140 1.366 . S
C3141 C3145 1.385 . S
C3142 H3123 0.951 . S
C3142 C3140 1.388 . S
C3142 C3143 1.366 . S
C3143 C3142 1.366 . S
C3143 C3144 1.414 . S
C3143 C3146 1.499 . S
C3144 H3124 0.950 . S
C3144 C3143 1.414 . S
C3144 C3145 1.374 . S
C3145 H3125 0.950 . S
C3145 C3141 1.385 . S
C3145 C3144 1.374 . S
C3146 C3143 1.499 . S
C3146 C3147 1.373 . S
C3146 C3148 1.389 . S
C3147 H3126 0.950 . S
C3147 C3146 1.373 . S
C3147 C3163 1.377 . S
C3148 C3146 1.389 . S
C3148 C3149 1.524 . S
C3148 C3162 1.377 . S
C3149 C3148 1.524 . S
C3149 C3150 1.397 . S
C3149 C3154 1.363 . S
C3150 H3127 0.950 . S
C3150 C3149 1.397 . S
C3150 C3151 1.334 . S
C3151 H3128 0.950 . S
C3151 C3150 1.334 . S
C3151 C3152 1.287 . S
C3152 C3151 1.287 . S
C3152 C3153 1.524 . S
C3152 H3171 0.913 . S
C3153 H3129 0.950 . S
C3153 C3152 1.524 . S
C3153 C3154 1.415 . S
C3154 H3130 0.950 . S
C3154 C3149 1.363 . S
C3154 C3153 1.415 . S
C3155 H3131 0.951 . S
C3155 C3156 1.366 . S
C3155 C3157 1.388 . S
C3156 C3155 1.366 . S
C3156 C3160 1.385 . S
C3157 H3132 0.951 . S
C3157 C3155 1.388 . S
C3157 C3158 1.366 . S
C3158 C3157 1.366 . S
C3158 C3159 1.414 . S
C3158 C3161 1.499 . S
C3159 H3133 0.950 . S
C3159 C3158 1.414 . S
C3159 C3160 1.374 . S
C3160 H3134 0.950 . S
C3160 C3156 1.385 . S
C3160 C3159 1.374 . S
C3161 C3158 1.499 . S
C3161 C3162 1.373 . S
C3161 C3163 1.389 . S
C3162 H3135 0.950 . S
C3162 C3148 1.377 . S
C3162 C3161 1.373 . S
C3163 C3147 1.377 . S
C3163 C3161 1.389 . S
C3163 C3164 1.524 . S
C3164 C3163 1.524 . S
C3164 C3165 1.397 . S
C3164 C3169 1.363 . S
C3165 H3136 0.950 . S
C3165 C3164 1.397 . S
C3165 C3166 1.334 . S
C3166 H3137 0.950 . S
C3166 C3165 1.334 . S
C3166 C3167 1.287 . S
C3167 C3166 1.287 . S
C3167 C3168 1.524 . S
C3167 H3170 0.999 . S
C3168 H3138 0.950 . S
C3168 C3167 1.524 . S
C3168 C3169 1.415 . S
C3169 H3139 0.950 . S
C3169 C3164 1.363 . S
C3169 C3168 1.415 . S
H3170 C3167 0.999 . S
H3171 C3152 0.913 . S
H3172 C3190 0.951 . S
H3173 C3192 0.951 . S
H3174 C3194 0.950 . S
H3175 C3195 0.950 . S
H3176 C3197 0.950 . S
H3177 C3200 0.950 . S
H3178 C3201 0.950 . S
H3179 C3203 0.950 . S
H3180 C3204 0.950 . S
H3181 C3205 0.951 . S
H3182 C3207 0.951 . S
H3183 C3209 0.950 . S
H3184 C3210 0.950 . S
H3185 C3212 0.950 . S
H3186 C3215 0.950 . S
H3187 C3216 0.950 . S
H3188 C3218 0.950 . S
H3189 C3219 0.950 . S
C3190 H3172 0.951 . S
C3190 C3191 1.366 . S
C3190 C3192 1.388 . S
C3191 C3190 1.366 . S
C3191 C3195 1.385 . S
C3192 H3173 0.951 . S
C3192 C3190 1.388 . S
C3192 C3193 1.366 . S
C3193 C3192 1.366 . S
C3193 C3194 1.414 . S
C3193 C3196 1.499 . S
C3194 H3174 0.950 . S
C3194 C3193 1.414 . S
C3194 C3195 1.374 . S
C3195 H3175 0.950 . S
C3195 C3191 1.385 . S
C3195 C3194 1.374 . S
C3196 C3193 1.499 . S
C3196 C3197 1.373 . S
C3196 C3198 1.389 . S
C3197 H3176 0.950 . S
C3197 C3196 1.373 . S
C3197 C3213 1.377 . S
C3198 C3196 1.389 . S
C3198 C3199 1.524 . S
C3198 C3212 1.377 . S
C3199 C3198 1.524 . S
C3199 C3200 1.397 . S
C3199 C3204 1.363 . S
C3200 H3177 0.950 . S
C3200 C3199 1.397 . S
C3200 C3201 1.334 . S
C3201 H3178 0.950 . S
C3201 C3200 1.334 . S
C3201 C3202 1.287 . S
C3202 C3201 1.287 . S
C3202 C3203 1.524 . S
C3202 H3221 0.913 . S
C3203 H3179 0.950 . S
C3203 C3202 1.524 . S
C3203 C3204 1.415 . S
C3204 H3180 0.950 . S
C3204 C3199 1.363 . S
C3204 C3203 1.415 . S
C3205 H3181 0.951 . S
C3205 C3206 1.366 . S
C3205 C3207 1.388 . S
C3206 C3205 1.366 . S
C3206 C3210 1.385 . S
C3207 H3182 0.951 . S
C3207 C3205 1.388 . S
C3207 C3208 1.366 . S
C3208 C3207 1.366 . S
C3208 C3209 1.414 . S
C3208 C3211 1.499 . S
C3209 H3183 0.950 . S
C3209 C3208 1.414 . S
C3209 C3210 1.374 . S
C3210 H3184 0.950 . S
C3210 C3206 1.385 . S
C3210 C3209 1.374 . S
C3211 C3208 1.499 . S
C3211 C3212 1.373 . S
C3211 C3213 1.389 . S
C3212 H3185 0.950 . S
C3212 C3198 1.377 . S
C3212 C3211 1.373 . S
C3213 C3197 1.377 . S
C3213 C3211 1.389 . S
C3213 C3214 1.524 . S
C3214 C3213 1.524 . S
C3214 C3215 1.397 . S
C3214 C3219 1.363 . S
C3215 H3186 0.950 . S
C3215 C3214 1.397 . S
C3215 C3216 1.334 . S
C3216 H3187 0.950 . S
C3216 C3215 1.334 . S
C3216 C3217 1.287 . S
C3217 C3216 1.287 . S
C3217 C3218 1.524 . S
C3217 H3220 0.999 . S
C3218 H3188 0.950 . S
C3218 C3217 1.524 . S
C3218 C3219 1.415 . S
C3219 H3189 0.950 . S
C3219 C3214 1.363 . S
C3219 C3218 1.415 . S
H3220 C3217 0.999 . S
H3221 C3202 0.913 . S
H3222 C3240 0.951 . S
H3223 C3242 0.951 . S
H3224 C3244 0.950 . S
H3225 C3245 0.950 . S
H3226 C3247 0.950 . S
H3227 C3250 0.950 . S
H3228 C3251 0.950 . S
H3229 C3253 0.950 . S
H3230 C3254 0.950 . S
H3231 C3255 0.951 . S
H3232 C3257 0.951 . S
H3233 C3259 0.950 . S
H3234 C3260 0.950 . S
H3235 C3262 0.950 . S
H3236 C3265 0.950 . S
H3237 C3266 0.950 . S
H3238 C3268 0.950 . S
H3239 C3269 0.950 . S
C3240 H3222 0.951 . S
C3240 C3241 1.366 . S
C3240 C3242 1.388 . S
C3241 C3240 1.366 . S
C3241 C3245 1.385 . S
C3242 H3223 0.951 . S
C3242 C3240 1.388 . S
C3242 C3243 1.366 . S
C3243 C3242 1.366 . S
C3243 C3244 1.414 . S
C3243 C3246 1.499 . S
C3244 H3224 0.950 . S
C3244 C3243 1.414 . S
C3244 C3245 1.374 . S
C3245 H3225 0.950 . S
C3245 C3241 1.385 . S
C3245 C3244 1.374 . S
C3246 C3243 1.499 . S
C3246 C3247 1.373 . S
C3246 C3248 1.389 . S
C3247 H3226 0.950 . S
C3247 C3246 1.373 . S
C3247 C3263 1.377 . S
C3248 C3246 1.389 . S
C3248 C3249 1.524 . S
C3248 C3262 1.377 . S
C3249 C3248 1.524 . S
C3249 C3250 1.397 . S
C3249 C3254 1.363 . S
C3250 H3227 0.950 . S
C3250 C3249 1.397 . S
C3250 C3251 1.334 . S
C3251 H3228 0.950 . S
C3251 C3250 1.334 . S
C3251 C3252 1.287 . S
C3252 C3251 1.287 . S
C3252 C3253 1.524 . S
C3252 H3271 0.913 . S
C3253 H3229 0.950 . S
C3253 C3252 1.524 . S
C3253 C3254 1.415 . S
C3254 H3230 0.950 . S
C3254 C3249 1.363 . S
C3254 C3253 1.415 . S
C3255 H3231 0.951 . S
C3255 C3256 1.366 . S
C3255 C3257 1.388 . S
C3256 C3255 1.366 . S
C3256 C3260 1.385 . S
C3257 H3232 0.951 . S
C3257 C3255 1.388 . S
C3257 C3258 1.366 . S
C3258 C3257 1.366 . S
C3258 C3259 1.414 . S
C3258 C3261 1.499 . S
C3259 H3233 0.950 . S
C3259 C3258 1.414 . S
C3259 C3260 1.374 . S
C3260 H3234 0.950 . S
C3260 C3256 1.385 . S
C3260 C3259 1.374 . S
C3261 C3258 1.499 . S
C3261 C3262 1.373 . S
C3261 C3263 1.389 . S
C3262 H3235 0.950 . S
C3262 C3248 1.377 . S
C3262 C3261 1.373 . S
C3263 C3247 1.377 . S
C3263 C3261 1.389 . S
C3263 C3264 1.524 . S
C3264 C3263 1.524 . S
C3264 C3265 1.397 . S
C3264 C3269 1.363 . S
C3265 H3236 0.950 . S
C3265 C3264 1.397 . S
C3265 C3266 1.334 . S
C3266 H3237 0.950 . S
C3266 C3265 1.334 . S
C3266 C3267 1.287 . S
C3267 C3266 1.287 . S
C3267 C3268 1.524 . S
C3267 H3270 0.999 . S
C3268 H3238 0.950 . S
C3268 C3267 1.524 . S
C3268 C3269 1.415 . S
C3269 H3239 0.950 . S
C3269 C3264 1.363 . S
C3269 C3268 1.415 . S
H3270 C3267 0.999 . S
H3271 C3252 0.913 . S
H3272 C3290 0.951 . S
H3273 C3292 0.951 . S
H3274 C3294 0.950 . S
H3275 C3295 0.950 . S
H3276 C3297 0.950 . S
H3277 C3300 0.950 . S
H3278 C3301 0.950 . S
H3279 C3303 0.950 . S
H3280 C3304 0.950 . S
H3281 C3305 0.951 . S
H3282 C3307 0.951 . S
H3283 C3309 0.950 . S
H3284 C3310 0.950 . S
H3285 C3312 0.950 . S
H3286 C3315 0.950 . S
H3287 C3316 0.950 . S
H3288 C3318 0.950 . S
H3289 C3319 0.950 . S
C3290 H3272 0.951 . S
C3290 C3291 1.366 . S
C3290 C3292 1.388 . S
C3291 C3290 1.366 . S
C3291 C3295 1.385 . S
C3292 H3273 0.951 . S
C3292 C3290 1.388 . S
C3292 C3293 1.366 . S
C3293 C3292 1.366 . S
C3293 C3294 1.414 . S
C3293 C3296 1.499 . S
C3294 H3274 0.950 . S
C3294 C3293 1.414 . S
C3294 C3295 1.374 . S
C3295 H3275 0.950 . S
C3295 C3291 1.385 . S
C3295 C3294 1.374 . S
C3296 C3293 1.499 . S
C3296 C3297 1.373 . S
C3296 C3298 1.389 . S
C3297 H3276 0.950 . S
C3297 C3296 1.373 . S
C3297 C3313 1.377 . S
C3298 C3296 1.389 . S
C3298 C3299 1.524 . S
C3298 C3312 1.377 . S
C3299 C3298 1.524 . S
C3299 C3300 1.397 . S
C3299 C3304 1.363 . S
C3300 H3277 0.950 . S
C3300 C3299 1.397 . S
C3300 C3301 1.334 . S
C3301 H3278 0.950 . S
C3301 C3300 1.334 . S
C3301 C3302 1.287 . S
C3302 C3301 1.287 . S
C3302 C3303 1.524 . S
C3302 H3321 0.913 . S
C3303 H3279 0.950 . S
C3303 C3302 1.524 . S
C3303 C3304 1.415 . S
C3304 H3280 0.950 . S
C3304 C3299 1.363 . S
C3304 C3303 1.415 . S
C3305 H3281 0.951 . S
C3305 C3306 1.366 . S
C3305 C3307 1.388 . S
C3306 C3305 1.366 . S
C3306 C3310 1.385 . S
C3307 H3282 0.951 . S
C3307 C3305 1.388 . S
C3307 C3308 1.366 . S
C3308 C3307 1.366 . S
C3308 C3309 1.414 . S
C3308 C3311 1.499 . S
C3309 H3283 0.950 . S
C3309 C3308 1.414 . S
C3309 C3310 1.374 . S
C3310 H3284 0.950 . S
C3310 C3306 1.385 . S
C3310 C3309 1.374 . S
C3311 C3308 1.499 . S
C3311 C3312 1.373 . S
C3311 C3313 1.389 . S
C3312 H3285 0.950 . S
C3312 C3298 1.377 . S
C3312 C3311 1.373 . S
C3313 C3297 1.377 . S
C3313 C3311 1.389 . S
C3313 C3314 1.524 . S
C3314 C3313 1.524 . S
C3314 C3315 1.397 . S
C3314 C3319 1.363 . S
C3315 H3286 0.950 . S
C3315 C3314 1.397 . S
C3315 C3316 1.334 . S
C3316 H3287 0.950 . S
C3316 C3315 1.334 . S
C3316 C3317 1.287 . S
C3317 C3316 1.287 . S
C3317 C3318 1.524 . S
C3317 H3320 0.999 . S
C3318 H3288 0.950 . S
C3318 C3317 1.524 . S
C3318 C3319 1.415 . S
C3319 H3289 0.950 . S
C3319 C3314 1.363 . S
C3319 C3318 1.415 . S
H3320 C3317 0.999 . S
H3321 C3302 0.913 . S
H3322 C3340 0.951 . S
H3323 C3342 0.951 . S
H3324 C3344 0.950 . S
H3325 C3345 0.950 . S
H3326 C3347 0.950 . S
H3327 C3350 0.950 . S
H3328 C3351 0.950 . S
H3329 C3353 0.950 . S
H3330 C3354 0.950 . S
H3331 C3355 0.951 . S
H3332 C3357 0.951 . S
H3333 C3359 0.950 . S
H3334 C3360 0.950 . S
H3335 C3362 0.950 . S
H3336 C3365 0.950 . S
H3337 C3366 0.950 . S
H3338 C3368 0.950 . S
H3339 C3369 0.950 . S
C3340 H3322 0.951 . S
C3340 C3341 1.366 . S
C3340 C3342 1.388 . S
C3341 C3340 1.366 . S
C3341 C3345 1.385 . S
C3342 H3323 0.951 . S
C3342 C3340 1.388 . S
C3342 C3343 1.366 . S
C3343 C3342 1.366 . S
C3343 C3344 1.414 . S
C3343 C3346 1.499 . S
C3344 H3324 0.950 . S
C3344 C3343 1.414 . S
C3344 C3345 1.374 . S
C3345 H3325 0.950 . S
C3345 C3341 1.385 . S
C3345 C3344 1.374 . S
C3346 C3343 1.499 . S
C3346 C3347 1.373 . S
C3346 C3348 1.389 . S
C3347 H3326 0.950 . S
C3347 C3346 1.373 . S
C3347 C3363 1.377 . S
C3348 C3346 1.389 . S
C3348 C3349 1.524 . S
C3348 C3362 1.377 . S
C3349 C3348 1.524 . S
C3349 C3350 1.397 . S
C3349 C3354 1.363 . S
C3350 H3327 0.950 . S
C3350 C3349 1.397 . S
C3350 C3351 1.334 . S
C3351 H3328 0.950 . S
C3351 C3350 1.334 . S
C3351 C3352 1.287 . S
C3352 C3351 1.287 . S
C3352 C3353 1.524 . S
C3352 H3371 0.913 . S
C3353 H3329 0.950 . S
C3353 C3352 1.524 . S
C3353 C3354 1.415 . S
C3354 H3330 0.950 . S
C3354 C3349 1.363 . S
C3354 C3353 1.415 . S
C3355 H3331 0.951 . S
C3355 C3356 1.366 . S
C3355 C3357 1.388 . S
C3356 C3355 1.366 . S
C3356 C3360 1.385 . S
C3357 H3332 0.951 . S
C3357 C3355 1.388 . S
C3357 C3358 1.366 . S
C3358 C3357 1.366 . S
C3358 C3359 1.414 . S
C3358 C3361 1.499 . S
C3359 H3333 0.950 . S
C3359 C3358 1.414 . S
C3359 C3360 1.374 . S
C3360 H3334 0.950 . S
C3360 C3356 1.385 . S
C3360 C3359 1.374 . S
C3361 C3358 1.499 . S
C3361 C3362 1.373 . S
C3361 C3363 1.389 . S
C3362 H3335 0.950 . S
C3362 C3348 1.377 . S
C3362 C3361 1.373 . S
C3363 C3347 1.377 . S
C3363 C3361 1.389 . S
C3363 C3364 1.524 . S
C3364 C3363 1.524 . S
C3364 C3365 1.397 . S
C3364 C3369 1.363 . S
C3365 H3336 0.950 . S
C3365 C3364 1.397 . S
C3365 C3366 1.334 . S
C3366 H3337 0.950 . S
C3366 C3365 1.334 . S
C3366 C3367 1.287 . S
C3367 C3366 1.287 . S
C3367 C3368 1.524 . S
C3367 H3370 0.999 . S
C3368 H3338 0.950 . S
C3368 C3367 1.524 . S
C3368 C3369 1.415 . S
C3369 H3339 0.950 . S
C3369 C3364 1.363 . S
C3369 C3368 1.415 . S
H3370 C3367 0.999 . S
H3371 C3352 0.913 . S
H3372 C3390 0.951 . S
H3373 C3392 0.951 . S
H3374 C3394 0.950 . S
H3375 C3395 0.950 . S
H3376 C3397 0.950 . S
H3377 C3400 0.950 . S
H3378 C3401 0.950 . S
H3379 C3403 0.950 . S
H3380 C3404 0.950 . S
H3381 C3405 0.951 . S
H3382 C3407 0.951 . S
H3383 C3409 0.950 . S
H3384 C3410 0.950 . S
H3385 C3412 0.950 . S
H3386 C3415 0.950 . S
H3387 C3416 0.950 . S
H3388 C3418 0.950 . S
H3389 C3419 0.950 . S
C3390 H3372 0.951 . S
C3390 C3391 1.366 . S
C3390 C3392 1.388 . S
C3391 C3390 1.366 . S
C3391 C3395 1.385 . S
C3392 H3373 0.951 . S
C3392 C3390 1.388 . S
C3392 C3393 1.366 . S
C3393 C3392 1.366 . S
C3393 C3394 1.414 . S
C3393 C3396 1.499 . S
C3394 H3374 0.950 . S
C3394 C3393 1.414 . S
C3394 C3395 1.374 . S
C3395 H3375 0.950 . S
C3395 C3391 1.385 . S
C3395 C3394 1.374 . S
C3396 C3393 1.499 . S
C3396 C3397 1.373 . S
C3396 C3398 1.389 . S
C3397 H3376 0.950 . S
C3397 C3396 1.373 . S
C3397 C3413 1.377 . S
C3398 C3396 1.389 . S
C3398 C3399 1.524 . S
C3398 C3412 1.377 . S
C3399 C3398 1.524 . S
C3399 C3400 1.397 . S
C3399 C3404 1.363 . S
C3400 H3377 0.950 . S
C3400 C3399 1.397 . S
C3400 C3401 1.334 . S
C3401 H3378 0.950 . S
C3401 C3400 1.334 . S
C3401 C3402 1.287 . S
C3402 C3401 1.287 . S
C3402 C3403 1.524 . S
C3402 H3421 0.913 . S
C3403 H3379 0.950 . S
C3403 C3402 1.524 . S
C3403 C3404 1.415 . S
C3404 H3380 0.950 . S
C3404 C3399 1.363 . S
C3404 C3403 1.415 . S
C3405 H3381 0.951 . S
C3405 C3406 1.366 . S
C3405 C3407 1.388 . S
C3406 C3405 1.366 . S
C3406 C3410 1.385 . S
C3407 H3382 0.951 . S
C3407 C3405 1.388 . S
C3407 C3408 1.366 . S
C3408 C3407 1.366 . S
C3408 C3409 1.414 . S
C3408 C3411 1.499 . S
C3409 H3383 0.950 . S
C3409 C3408 1.414 . S
C3409 C3410 1.374 . S
C3410 H3384 0.950 . S
C3410 C3406 1.385 . S
C3410 C3409 1.374 . S
C3411 C3408 1.499 . S
C3411 C3412 1.373 . S
C3411 C3413 1.389 . S
C3412 H3385 0.950 . S
C3412 C3398 1.377 . S
C3412 C3411 1.373 . S
C3413 C3397 1.377 . S
C3413 C3411 1.389 . S
C3413 C3414 1.524 . S
C3414 C3413 1.524 . S
C3414 C3415 1.397 . S
C3414 C3419 1.363 . S
C3415 H3386 0.950 . S
C3415 C3414 1.397 . S
C3415 C3416 1.334 . S
C3416 H3387 0.950 . S
C3416 C3415 1.334 . S
C3416 C3417 1.287 . S
C3417 C3416 1.287 . S
C3417 C3418 1.524 . S
C3417 H3420 0.999 . S
C3418 H3388 0.950 . S
C3418 C3417 1.524 . S
C3418 C3419 1.415 . S
C3419 H3389 0.950 . S
C3419 C3414 1.363 . S
C3419 C3418 1.415 . S
H3420 C3417 0.999 . S
H3421 C3402 0.913 . S
H3422 C3440 0.951 . S
H3423 C3442 0.951 . S
H3424 C3444 0.950 . S
H3425 C3445 0.950 . S
H3426 C3447 0.950 . S
H3427 C3450 0.950 . S
H3428 C3451 0.950 . S
H3429 C3453 0.950 . S
H3430 C3454 0.950 . S
H3431 C3455 0.951 . S
H3432 C3457 0.951 . S
H3433 C3459 0.950 . S
H3434 C3460 0.950 . S
H3435 C3462 0.950 . S
H3436 C3465 0.950 . S
H3437 C3466 0.950 . S
H3438 C3468 0.950 . S
H3439 C3469 0.950 . S
C3440 H3422 0.951 . S
C3440 C3441 1.366 . S
C3440 C3442 1.388 . S
C3441 C3440 1.366 . S
C3441 C3445 1.385 . S
C3442 H3423 0.951 . S
C3442 C3440 1.388 . S
C3442 C3443 1.366 . S
C3443 C3442 1.366 . S
C3443 C3444 1.414 . S
C3443 C3446 1.499 . S
C3444 H3424 0.950 . S
C3444 C3443 1.414 . S
C3444 C3445 1.374 . S
C3445 H3425 0.950 . S
C3445 C3441 1.385 . S
C3445 C3444 1.374 . S
C3446 C3443 1.499 . S
C3446 C3447 1.373 . S
C3446 C3448 1.389 . S
C3447 H3426 0.950 . S
C3447 C3446 1.373 . S
C3447 C3463 1.377 . S
C3448 C3446 1.389 . S
C3448 C3449 1.524 . S
C3448 C3462 1.377 . S
C3449 C3448 1.524 . S
C3449 C3450 1.397 . S
C3449 C3454 1.363 . S
C3450 H3427 0.950 . S
C3450 C3449 1.397 . S
C3450 C3451 1.334 . S
C3451 H3428 0.950 . S
C3451 C3450 1.334 . S
C3451 C3452 1.287 . S
C3452 C3451 1.287 . S
C3452 C3453 1.524 . S
C3452 H3471 0.913 . S
C3453 H3429 0.950 . S
C3453 C3452 1.524 . S
C3453 C3454 1.415 . S
C3454 H3430 0.950 . S
C3454 C3449 1.363 . S
C3454 C3453 1.415 . S
C3455 H3431 0.951 . S
C3455 C3456 1.366 . S
C3455 C3457 1.388 . S
C3456 C3455 1.366 . S
C3456 C3460 1.385 . S
C3457 H3432 0.951 . S
C3457 C3455 1.388 . S
C3457 C3458 1.366 . S
C3458 C3457 1.366 . S
C3458 C3459 1.414 . S
C3458 C3461 1.499 . S
C3459 H3433 0.950 . S
C3459 C3458 1.414 . S
C3459 C3460 1.374 . S
C3460 H3434 0.950 . S
C3460 C3456 1.385 . S
C3460 C3459 1.374 . S
C3461 C3458 1.499 . S
C3461 C3462 1.373 . S
C3461 C3463 1.389 . S
C3462 H3435 0.950 . S
C3462 C3448 1.377 . S
C3462 C3461 1.373 . S
C3463 C3447 1.377 . S
C3463 C3461 1.389 . S
C3463 C3464 1.524 . S
C3464 C3463 1.524 . S
C3464 C3465 1.397 . S
C3464 C3469 1.363 . S
C3465 H3436 0.950 . S
C3465 C3464 1.397 . S
C3465 C3466 1.334 . S
C3466 H3437 0.950 . S
C3466 C3465 1.334 . S
C3466 C3467 1.287 . S
C3467 C3466 1.287 . S
C3467 C3468 1.524 . S
C3467 H3470 0.999 . S
C3468 H3438 0.950 . S
C3468 C3467 1.524 . S
C3468 C3469 1.415 . S
C3469 H3439 0.950 . S
C3469 C3464 1.363 . S
C3469 C3468 1.415 . S
H3470 C3467 0.999 . S
H3471 C3452 0.913 . S
H3472 C3490 0.951 . S
H3473 C3492 0.951 . S
H3474 C3494 0.950 . S
H3475 C3495 0.950 . S
H3476 C3497 0.950 . S
H3477 C3500 0.950 . S
H3478 C3501 0.950 . S
H3479 C3503 0.950 . S
H3480 C3504 0.950 . S
H3481 C3505 0.951 . S
H3482 C3507 0.951 . S
H3483 C3509 0.950 . S
H3484 C3510 0.950 . S
H3485 C3512 0.950 . S
H3486 C3515 0.950 . S
H3487 C3516 0.950 . S
H3488 C3518 0.950 . S
H3489 C3519 0.950 . S
C3490 H3472 0.951 . S
C3490 C3491 1.366 . S
C3490 C3492 1.388 . S
C3491 C3490 1.366 . S
C3491 C3495 1.385 . S
C3492 H3473 0.951 . S
C3492 C3490 1.388 . S
C3492 C3493 1.366 . S
C3493 C3492 1.366 . S
C3493 C3494 1.414 . S
C3493 C3496 1.499 . S
C3494 H3474 0.950 . S
C3494 C3493 1.414 . S
C3494 C3495 1.374 . S
C3495 H3475 0.950 . S
C3495 C3491 1.385 . S
C3495 C3494 1.374 . S
C3496 C3493 1.499 . S
C3496 C3497 1.373 . S
C3496 C3498 1.389 . S
C3497 H3476 0.950 . S
C3497 C3496 1.373 . S
C3497 C3513 1.377 . S
C3498 C3496 1.389 . S
C3498 C3499 1.524 . S
C3498 C3512 1.377 . S
C3499 C3498 1.524 . S
C3499 C3500 1.397 . S
C3499 C3504 1.363 . S
C3500 H3477 0.950 . S
C3500 C3499 1.397 . S
C3500 C3501 1.334 . S
C3501 H3478 0.950 . S
C3501 C3500 1.334 . S
C3501 C3502 1.287 . S
C3502 C3501 1.287 . S
C3502 C3503 1.524 . S
C3502 H3521 0.913 . S
C3503 H3479 0.950 . S
C3503 C3502 1.524 . S
C3503 C3504 1.415 . S
C3504 H3480 0.950 . S
C3504 C3499 1.363 . S
C3504 C3503 1.415 . S
C3505 H3481 0.951 . S
C3505 C3506 1.366 . S
C3505 C3507 1.388 . S
C3506 C3505 1.366 . S
C3506 C3510 1.385 . S
C3507 H3482 0.951 . S
C3507 C3505 1.388 . S
C3507 C3508 1.366 . S
C3508 C3507 1.366 . S
C3508 C3509 1.414 . S
C3508 C3511 1.499 . S
C3509 H3483 0.950 . S
C3509 C3508 1.414 . S
C3509 C3510 1.374 . S
C3510 H3484 0.950 . S
C3510 C3506 1.385 . S
C3510 C3509 1.374 . S
C3511 C3508 1.499 . S
C3511 C3512 1.373 . S
C3511 C3513 1.389 . S
C3512 H3485 0.950 . S
C3512 C3498 1.377 . S
C3512 C3511 1.373 . S
C3513 C3497 1.377 . S
C3513 C3511 1.389 . S
C3513 C3514 1.524 . S
C3514 C3513 1.524 . S
C3514 C3515 1.397 . S
C3514 C3519 1.363 . S
C3515 H3486 0.950 . S
C3515 C3514 1.397 . S
C3515 C3516 1.334 . S
C3516 H3487 0.950 . S
C3516 C3515 1.334 . S
C3516 C3517 1.287 . S
C3517 C3516 1.287 . S
C3517 C3518 1.524 . S
C3517 H3520 0.999 . S
C3518 H3488 0.950 . S
C3518 C3517 1.524 . S
C3518 C3519 1.415 . S
C3519 H3489 0.950 . S
C3519 C3514 1.363 . S
C3519 C3518 1.415 . S
H3520 C3517 0.999 . S
H3521 C3502 0.913 . S
H3522 C3540 0.951 . S
H3523 C3542 0.951 . S
H3524 C3544 0.950 . S
H3525 C3545 0.950 . S
H3526 C3547 0.950 . S
H3527 C3550 0.950 . S
H3528 C3551 0.950 . S
H3529 C3553 0.950 . S
H3530 C3554 0.950 . S
H3531 C3555 0.951 . S
H3532 C3557 0.951 . S
H3533 C3559 0.950 . S
H3534 C3560 0.950 . S
H3535 C3562 0.950 . S
H3536 C3565 0.950 . S
H3537 C3566 0.950 . S
H3538 C3568 0.950 . S
H3539 C3569 0.950 . S
C3540 H3522 0.951 . S
C3540 C3541 1.366 . S
C3540 C3542 1.388 . S
C3541 C3540 1.366 . S
C3541 C3545 1.385 . S
C3542 H3523 0.951 . S
C3542 C3540 1.388 . S
C3542 C3543 1.366 . S
C3543 C3542 1.366 . S
C3543 C3544 1.414 . S
C3543 C3546 1.499 . S
C3544 H3524 0.950 . S
C3544 C3543 1.414 . S
C3544 C3545 1.374 . S
C3545 H3525 0.950 . S
C3545 C3541 1.385 . S
C3545 C3544 1.374 . S
C3546 C3543 1.499 . S
C3546 C3547 1.373 . S
C3546 C3548 1.389 . S
C3547 H3526 0.950 . S
C3547 C3546 1.373 . S
C3547 C3563 1.377 . S
C3548 C3546 1.389 . S
C3548 C3549 1.524 . S
C3548 C3562 1.377 . S
C3549 C3548 1.524 . S
C3549 C3550 1.397 . S
C3549 C3554 1.363 . S
C3550 H3527 0.950 . S
C3550 C3549 1.397 . S
C3550 C3551 1.334 . S
C3551 H3528 0.950 . S
C3551 C3550 1.334 . S
C3551 C3552 1.287 . S
C3552 C3551 1.287 . S
C3552 C3553 1.524 . S
C3552 H3571 0.913 . S
C3553 H3529 0.950 . S
C3553 C3552 1.524 . S
C3553 C3554 1.415 . S
C3554 H3530 0.950 . S
C3554 C3549 1.363 . S
C3554 C3553 1.415 . S
C3555 H3531 0.951 . S
C3555 C3556 1.366 . S
C3555 C3557 1.388 . S
C3556 C3555 1.366 . S
C3556 C3560 1.385 . S
C3557 H3532 0.951 . S
C3557 C3555 1.388 . S
C3557 C3558 1.366 . S
C3558 C3557 1.366 . S
C3558 C3559 1.414 . S
C3558 C3561 1.499 . S
C3559 H3533 0.950 . S
C3559 C3558 1.414 . S
C3559 C3560 1.374 . S
C3560 H3534 0.950 . S
C3560 C3556 1.385 . S
C3560 C3559 1.374 . S
C3561 C3558 1.499 . S
C3561 C3562 1.373 . S
C3561 C3563 1.389 . S
C3562 H3535 0.950 . S
C3562 C3548 1.377 . S
C3562 C3561 1.373 . S
C3563 C3547 1.377 . S
C3563 C3561 1.389 . S
C3563 C3564 1.524 . S
C3564 C3563 1.524 . S
C3564 C3565 1.397 . S
C3564 C3569 1.363 . S
C3565 H3536 0.950 . S
C3565 C3564 1.397 . S
C3565 C3566 1.334 . S
C3566 H3537 0.950 . S
C3566 C3565 1.334 . S
C3566 C3567 1.287 . S
C3567 C3566 1.287 . S
C3567 C3568 1.524 . S
C3567 H3570 0.999 . S
C3568 H3538 0.950 . S
C3568 C3567 1.524 . S
C3568 C3569 1.415 . S
C3569 H3539 0.950 . S
C3569 C3564 1.363 . S
C3569 C3568 1.415 . S
H3570 C3567 0.999 . S
H3571 C3552 0.913 . S
H3572 C3590 0.951 . S
H3573 C3592 0.951 . S
H3574 C3594 0.950 . S
H3575 C3595 0.950 . S
H3576 C3597 0.950 . S
H3577 C3600 0.950 . S
H3578 C3601 0.950 . S
H3579 C3603 0.950 . S
H3580 C3604 0.950 . S
H3581 C3605 0.951 . S
H3582 C3607 0.951 . S
H3583 C3609 0.950 . S
H3584 C3610 0.950 . S
H3585 C3612 0.950 . S
H3586 C3615 0.950 . S
H3587 C3616 0.950 . S
H3588 C3618 0.950 . S
H3589 C3619 0.950 . S
C3590 H3572 0.951 . S
C3590 C3591 1.366 . S
C3590 C3592 1.388 . S
C3591 C3590 1.366 . S
C3591 C3595 1.385 . S
C3592 H3573 0.951 . S
C3592 C3590 1.388 . S
C3592 C3593 1.366 . S
C3593 C3592 1.366 . S
C3593 C3594 1.414 . S
C3593 C3596 1.499 . S
C3594 H3574 0.950 . S
C3594 C3593 1.414 . S
C3594 C3595 1.374 . S
C3595 H3575 0.950 . S
C3595 C3591 1.385 . S
C3595 C3594 1.374 . S
C3596 C3593 1.499 . S
C3596 C3597 1.373 . S
C3596 C3598 1.389 . S
C3597 H3576 0.950 . S
C3597 C3596 1.373 . S
C3597 C3613 1.377 . S
C3598 C3596 1.389 . S
C3598 C3599 1.524 . S
C3598 C3612 1.377 . S
C3599 C3598 1.524 . S
C3599 C3600 1.397 . S
C3599 C3604 1.363 . S
C3600 H3577 0.950 . S
C3600 C3599 1.397 . S
C3600 C3601 1.334 . S
C3601 H3578 0.950 . S
C3601 C3600 1.334 . S
C3601 C3602 1.287 . S
C3602 C3601 1.287 . S
C3602 C3603 1.524 . S
C3602 H3621 0.913 . S
C3603 H3579 0.950 . S
C3603 C3602 1.524 . S
C3603 C3604 1.415 . S
C3604 H3580 0.950 . S
C3604 C3599 1.363 . S
C3604 C3603 1.415 . S
C3605 H3581 0.951 . S
C3605 C3606 1.366 . S
C3605 C3607 1.388 . S
C3606 C3605 1.366 . S
C3606 C3610 1.385 . S
C3607 H3582 0.951 . S
C3607 C3605 1.388 . S
C3607 C3608 1.366 . S
C3608 C3607 1.366 . S
C3608 C3609 1.414 . S
C3608 C3611 1.499 . S
C3609 H3583 0.950 . S
C3609 C3608 1.414 . S
C3609 C3610 1.374 . S
C3610 H3584 0.950 . S
C3610 C3606 1.385 . S
C3610 C3609 1.374 . S
C3611 C3608 1.499 . S
C3611 C3612 1.373 . S
C3611 C3613 1.389 . S
C3612 H3585 0.950 . S
C3612 C3598 1.377 . S
C3612 C3611 1.373 . S
C3613 C3597 1.377 . S
C3613 C3611 1.389 . S
C3613 C3614 1.524 . S
C3614 C3613 1.524 . S
C3614 C3615 1.397 . S
C3614 C3619 1.363 . S
C3615 H3586 0.950 . S
C3615 C3614 1.397 . S
C3615 C3616 1.334 . S
C3616 H3587 0.950 . S
C3616 C3615 1.334 . S
C3616 C3617 1.287 . S
C3617 C3616 1.287 . S
C3617 C3618 1.524 . S
C3617 H3620 0.999 . S
C3618 H3588 0.950 . S
C3618 C3617 1.524 . S
C3618 C3619 1.415 . S
C3619 H3589 0.950 . S
C3619 C3614 1.363 . S
C3619 C3618 1.415 . S
H3620 C3617 0.999 . S
H3621 C3602 0.913 . S
H3622 C3640 0.951 . S
H3623 C3642 0.951 . S
H3624 C3644 0.950 . S
H3625 C3645 0.950 . S
H3626 C3647 0.950 . S
H3627 C3650 0.950 . S
H3628 C3651 0.950 . S
H3629 C3653 0.950 . S
H3630 C3654 0.950 . S
H3631 C3655 0.951 . S
H3632 C3657 0.951 . S
H3633 C3659 0.950 . S
H3634 C3660 0.950 . S
H3635 C3662 0.950 . S
H3636 C3665 0.950 . S
H3637 C3666 0.950 . S
H3638 C3668 0.950 . S
H3639 C3669 0.950 . S
C3640 H3622 0.951 . S
C3640 C3641 1.366 . S
C3640 C3642 1.388 . S
C3641 C3640 1.366 . S
C3641 C3645 1.385 . S
C3642 H3623 0.951 . S
C3642 C3640 1.388 . S
C3642 C3643 1.366 . S
C3643 C3642 1.366 . S
C3643 C3644 1.414 . S
C3643 C3646 1.499 . S
C3644 H3624 0.950 . S
C3644 C3643 1.414 . S
C3644 C3645 1.374 . S
C3645 H3625 0.950 . S
C3645 C3641 1.385 . S
C3645 C3644 1.374 . S
C3646 C3643 1.499 . S
C3646 C3647 1.373 . S
C3646 C3648 1.389 . S
C3647 H3626 0.950 . S
C3647 C3646 1.373 . S
C3647 C3663 1.377 . S
C3648 C3646 1.389 . S
C3648 C3649 1.524 . S
C3648 C3662 1.377 . S
C3649 C3648 1.524 . S
C3649 C3650 1.397 . S
C3649 C3654 1.363 . S
C3650 H3627 0.950 . S
C3650 C3649 1.397 . S
C3650 C3651 1.334 . S
C3651 H3628 0.950 . S
C3651 C3650 1.334 . S
C3651 C3652 1.287 . S
C3652 C3651 1.287 . S
C3652 C3653 1.524 . S
C3652 H3671 0.913 . S
C3653 H3629 0.950 . S
C3653 C3652 1.524 . S
C3653 C3654 1.415 . S
C3654 H3630 0.950 . S
C3654 C3649 1.363 . S
C3654 C3653 1.415 . S
C3655 H3631 0.951 . S
C3655 C3656 1.366 . S
C3655 C3657 1.388 . S
C3656 C3655 1.366 . S
C3656 C3660 1.385 . S
C3657 H3632 0.951 . S
C3657 C3655 1.388 . S
C3657 C3658 1.366 . S
C3658 C3657 1.366 . S
C3658 C3659 1.414 . S
C3658 C3661 1.499 . S
C3659 H3633 0.950 . S
C3659 C3658 1.414 . S
C3659 C3660 1.374 . S
C3660 H3634 0.950 . S
C3660 C3656 1.385 . S
C3660 C3659 1.374 . S
C3661 C3658 1.499 . S
C3661 C3662 1.373 . S
C3661 C3663 1.389 . S
C3662 H3635 0.950 . S
C3662 C3648 1.377 . S
C3662 C3661 1.373 . S
C3663 C3647 1.377 . S
C3663 C3661 1.389 . S
C3663 C3664 1.524 . S
C3664 C3663 1.524 . S
C3664 C3665 1.397 . S
C3664 C3669 1.363 . S
C3665 H3636 0.950 . S
C3665 C3664 1.397 . S
C3665 C3666 1.334 . S
C3666 H3637 0.950 . S
C3666 C3665 1.334 . S
C3666 C3667 1.287 . S
C3667 C3666 1.287 . S
C3667 C3668 1.524 . S
C3667 H3670 0.999 . S
C3668 H3638 0.950 . S
C3668 C3667 1.524 . S
C3668 C3669 1.415 . S
C3669 H3639 0.950 . S
C3669 C3664 1.363 . S
C3669 C3668 1.415 . S
H3670 C3667 0.999 . S
H3671 C3652 0.913 . S
H3672 C3690 0.951 . S
H3673 C3692 0.951 . S
H3674 C3694 0.950 . S
H3675 C3695 0.950 . S
H3676 C3697 0.950 . S
H3677 C3700 0.950 . S
H3678 C3701 0.950 . S
H3679 C3703 0.950 . S
H3680 C3704 0.950 . S
H3681 C3705 0.951 . S
H3682 C3707 0.951 . S
H3683 C3709 0.950 . S
H3684 C3710 0.950 . S
H3685 C3712 0.950 . S
H3686 C3715 0.950 . S
H3687 C3716 0.950 . S
H3688 C3718 0.950 . S
H3689 C3719 0.950 . S
C3690 H3672 0.951 . S
C3690 C3691 1.366 . S
C3690 C3692 1.388 . S
C3691 C3690 1.366 . S
C3691 C3695 1.385 . S
C3692 H3673 0.951 . S
C3692 C3690 1.388 . S
C3692 C3693 1.366 . S
C3693 C3692 1.366 . S
C3693 C3694 1.414 . S
C3693 C3696 1.499 . S
C3694 H3674 0.950 . S
C3694 C3693 1.414 . S
C3694 C3695 1.374 . S
C3695 H3675 0.950 . S
C3695 C3691 1.385 . S
C3695 C3694 1.374 . S
C3696 C3693 1.499 . S
C3696 C3697 1.373 . S
C3696 C3698 1.389 . S
C3697 H3676 0.950 . S
C3697 C3696 1.373 . S
C3697 C3713 1.377 . S
C3698 C3696 1.389 . S
C3698 C3699 1.524 . S
C3698 C3712 1.377 . S
C3699 C3698 1.524 . S
C3699 C3700 1.397 . S
C3699 C3704 1.363 . S
C3700 H3677 0.950 . S
C3700 C3699 1.397 . S
C3700 C3701 1.334 . S
C3701 H3678 0.950 . S
C3701 C3700 1.334 . S
C3701 C3702 1.287 . S
C3702 C3701 1.287 . S
C3702 C3703 1.524 . S
C3702 H3721 0.913 . S
C3703 H3679 0.950 . S
C3703 C3702 1.524 . S
C3703 C3704 1.415 . S
C3704 H3680 0.950 . S
C3704 C3699 1.363 . S
C3704 C3703 1.415 . S
C3705 H3681 0.951 . S
C3705 C3706 1.366 . S
C3705 C3707 1.388 . S
C3706 C3705 1.366 . S
C3706 C3710 1.385 . S
C3707 H3682 0.951 . S
C3707 C3705 1.388 . S
C3707 C3708 1.366 . S
C3708 C3707 1.366 . S
C3708 C3709 1.414 . S
C3708 C3711 1.499 . S
C3709 H3683 0.950 . S
C3709 C3708 1.414 . S
C3709 C3710 1.374 . S
C3710 H3684 0.950 . S
C3710 C3706 1.385 . S
C3710 C3709 1.374 . S
C3711 C3708 1.499 . S
C3711 C3712 1.373 . S
C3711 C3713 1.389 . S
C3712 H3685 0.950 . S
C3712 C3698 1.377 . S
C3712 C3711 1.373 . S
C3713 C3697 1.377 . S
C3713 C3711 1.389 . S
C3713 C3714 1.524 . S
C3714 C3713 1.524 . S
C3714 C3715 1.397 . S
C3714 C3719 1.363 . S
C3715 H3686 0.950 . S
C3715 C3714 1.397 . S
C3715 C3716 1.334 . S
C3716 H3687 0.950 . S
C3716 C3715 1.334 . S
C3716 C3717 1.287 . S
C3717 C3716 1.287 . S
C3717 C3718 1.524 . S
C3717 H3720 0.999 . S
C3718 H3688 0.950 . S
C3718 C3717 1.524 . S
C3718 C3719 1.415 . S
C3719 H3689 0.950 . S
C3719 C3714 1.363 . S
C3719 C3718 1.415 . S
H3720 C3717 0.999 . S
H3721 C3702 0.913 . S
H3722 C3740 0.951 . S
H3723 C3742 0.951 . S
H3724 C3744 0.950 . S
H3725 C3745 0.950 . S
H3726 C3747 0.950 . S
H3727 C3750 0.950 . S
H3728 C3751 0.950 . S
H3729 C3753 0.950 . S
H3730 C3754 0.950 . S
H3731 C3755 0.951 . S
H3732 C3757 0.951 . S
H3733 C3759 0.950 . S
H3734 C3760 0.950 . S
H3735 C3762 0.950 . S
H3736 C3765 0.950 . S
H3737 C3766 0.950 . S
H3738 C3768 0.950 . S
H3739 C3769 0.950 . S
C3740 H3722 0.951 . S
C3740 C3741 1.366 . S
C3740 C3742 1.388 . S
C3741 C3740 1.366 . S
C3741 C3745 1.385 . S
C3742 H3723 0.951 . S
C3742 C3740 1.388 . S
C3742 C3743 1.366 . S
C3743 C3742 1.366 . S
C3743 C3744 1.414 . S
C3743 C3746 1.499 . S
C3744 H3724 0.950 . S
C3744 C3743 1.414 . S
C3744 C3745 1.374 . S
C3745 H3725 0.950 . S
C3745 C3741 1.385 . S
C3745 C3744 1.374 . S
C3746 C3743 1.499 . S
C3746 C3747 1.373 . S
C3746 C3748 1.389 . S
C3747 H3726 0.950 . S
C3747 C3746 1.373 . S
C3747 C3763 1.377 . S
C3748 C3746 1.389 . S
C3748 C3749 1.524 . S
C3748 C3762 1.377 . S
C3749 C3748 1.524 . S
C3749 C3750 1.397 . S
C3749 C3754 1.363 . S
C3750 H3727 0.950 . S
C3750 C3749 1.397 . S
C3750 C3751 1.334 . S
C3751 H3728 0.950 . S
C3751 C3750 1.334 . S
C3751 C3752 1.287 . S
C3752 C3751 1.287 . S
C3752 C3753 1.524 . S
C3752 H3771 0.913 . S
C3753 H3729 0.950 . S
C3753 C3752 1.524 . S
C3753 C3754 1.415 . S
C3754 H3730 0.950 . S
C3754 C3749 1.363 . S
C3754 C3753 1.415 . S
C3755 H3731 0.951 . S
C3755 C3756 1.366 . S
C3755 C3757 1.388 . S
C3756 C3755 1.366 . S
C3756 C3760 1.385 . S
C3757 H3732 0.951 . S
C3757 C3755 1.388 . S
C3757 C3758 1.366 . S
C3758 C3757 1.366 . S
C3758 C3759 1.414 . S
C3758 C3761 1.499 . S
C3759 H3733 0.950 . S
C3759 C3758 1.414 . S
C3759 C3760 1.374 . S
C3760 H3734 0.950 . S
C3760 C3756 1.385 . S
C3760 C3759 1.374 . S
C3761 C3758 1.499 . S
C3761 C3762 1.373 . S
C3761 C3763 1.389 . S
C3762 H3735 0.950 . S
C3762 C3748 1.377 . S
C3762 C3761 1.373 . S
C3763 C3747 1.377 . S
C3763 C3761 1.389 . S
C3763 C3764 1.524 . S
C3764 C3763 1.524 . S
C3764 C3765 1.397 . S
C3764 C3769 1.363 . S
C3765 H3736 0.950 . S
C3765 C3764 1.397 . S
C3765 C3766 1.334 . S
C3766 H3737 0.950 . S
C3766 C3765 1.334 . S
C3766 C3767 1.287 . S
C3767 C3766 1.287 . S
C3767 C3768 1.524 . S
C3767 H3770 0.999 . S
C3768 H3738 0.950 . S
C3768 C3767 1.524 . S
C3768 C3769 1.415 . S
C3769 H3739 0.950 . S
C3769 C3764 1.363 . S
C3769 C3768 1.415 . S
H3770 C3767 0.999 . S
H3771 C3752 0.913 . S
H3772 C3790 0.951 . S
H3773 C3792 0.951 . S
H3774 C3794 0.950 . S
H3775 C3795 0.950 . S
H3776 C3797 0.950 . S
H3777 C3800 0.950 . S
H3778 C3801 0.950 . S
H3779 C3803 0.950 . S
H3780 C3804 0.950 . S
H3781 C3805 0.951 . S
H3782 C3807 0.951 . S
H3783 C3809 0.950 . S
H3784 C3810 0.950 . S
H3785 C3812 0.950 . S
H3786 C3815 0.950 . S
H3787 C3816 0.950 . S
H3788 C3818 0.950 . S
H3789 C3819 0.950 . S
C3790 H3772 0.951 . S
C3790 C3791 1.366 . S
C3790 C3792 1.388 . S
C3791 C3790 1.366 . S
C3791 C3795 1.385 . S
C3792 H3773 0.951 . S
C3792 C3790 1.388 . S
C3792 C3793 1.366 . S
C3793 C3792 1.366 . S
C3793 C3794 1.414 . S
C3793 C3796 1.499 . S
C3794 H3774 0.950 . S
C3794 C3793 1.414 . S
C3794 C3795 1.374 . S
C3795 H3775 0.950 . S
C3795 C3791 1.385 . S
C3795 C3794 1.374 . S
C3796 C3793 1.499 . S
C3796 C3797 1.373 . S
C3796 C3798 1.389 . S
C3797 H3776 0.950 . S
C3797 C3796 1.373 . S
C3797 C3813 1.377 . S
C3798 C3796 1.389 . S
C3798 C3799 1.524 . S
C3798 C3812 1.377 . S
C3799 C3798 1.524 . S
C3799 C3800 1.397 . S
C3799 C3804 1.363 . S
C3800 H3777 0.950 . S
C3800 C3799 1.397 . S
C3800 C3801 1.334 . S
C3801 H3778 0.950 . S
C3801 C3800 1.334 . S
C3801 C3802 1.287 . S
C3802 C3801 1.287 . S
C3802 C3803 1.524 . S
C3802 H3821 0.913 . S
C3803 H3779 0.950 . S
C3803 C3802 1.524 . S
C3803 C3804 1.415 . S
C3804 H3780 0.950 . S
C3804 C3799 1.363 . S
C3804 C3803 1.415 . S
C3805 H3781 0.951 . S
C3805 C3806 1.366 . S
C3805 C3807 1.388 . S
C3806 C3805 1.366 . S
C3806 C3810 1.385 . S
C3807 H3782 0.951 . S
C3807 C3805 1.388 . S
C3807 C3808 1.366 . S
C3808 C3807 1.366 . S
C3808 C3809 1.414 . S
C3808 C3811 1.499 . S
C3809 H3783 0.950 . S
C3809 C3808 1.414 . S
C3809 C3810 1.374 . S
C3810 H3784 0.950 . S
C3810 C3806 1.385 . S
C3810 C3809 1.374 . S
C3811 C3808 1.499 . S
C3811 C3812 1.373 . S
C3811 C3813 1.389 . S
C3812 H3785 0.950 . S
C3812 C3798 1.377 . S
C3812 C3811 1.373 . S
C3813 C3797 1.377 . S
C3813 C3811 1.389 . S
C3813 C3814 1.524 . S
C3814 C3813 1.524 . S
C3814 C3815 1.397 . S
C3814 C3819 1.363 . S
C3815 H3786 0.950 . S
C3815 C3814 1.397 . S
C3815 C3816 1.334 . S
C3816 H3787 0.950 . S
C3816 C3815 1.334 . S
C3816 C3817 1.287 . S
C3817 C3816 1.287 . S
C3817 C3818 1.524 . S
C3817 H3820 0.999 . S
C3818 H3788 0.950 . S
C3818 C3817 1.524 . S
C3818 C3819 1.415 . S
C3819 H3789 0.950 . S
C3819 C3814 1.363 . S
C3819 C3818 1.415 . S
H3820 C3817 0.999 . S
H3821 C3802 0.913 . S
H3822 C3840 0.951 . S
H3823 C3842 0.951 . S
H3824 C3844 0.950 . S
H3825 C3845 0.950 . S
H3826 C3847 0.950 . S
H3827 C3850 0.950 . S
H3828 C3851 0.950 . S
H3829 C3853 0.950 . S
H3830 C3854 0.950 . S
H3831 C3855 0.951 . S
H3832 C3857 0.951 . S
H3833 C3859 0.950 . S
H3834 C3860 0.950 . S
H3835 C3862 0.950 . S
H3836 C3865 0.950 . S
H3837 C3866 0.950 . S
H3838 C3868 0.950 . S
H3839 C3869 0.950 . S
C3840 H3822 0.951 . S
C3840 C3841 1.366 . S
C3840 C3842 1.388 . S
C3841 C3840 1.366 . S
C3841 C3845 1.385 . S
C3842 H3823 0.951 . S
C3842 C3840 1.388 . S
C3842 C3843 1.366 . S
C3843 C3842 1.366 . S
C3843 C3844 1.414 . S
C3843 C3846 1.499 . S
C3844 H3824 0.950 . S
C3844 C3843 1.414 . S
C3844 C3845 1.374 . S
C3845 H3825 0.950 . S
C3845 C3841 1.385 . S
C3845 C3844 1.374 . S
C3846 C3843 1.499 . S
C3846 C3847 1.373 . S
C3846 C3848 1.389 . S
C3847 H3826 0.950 . S
C3847 C3846 1.373 . S
C3847 C3863 1.377 . S
C3848 C3846 1.389 . S
C3848 C3849 1.524 . S
C3848 C3862 1.377 . S
C3849 C3848 1.524 . S
C3849 C3850 1.397 . S
C3849 C3854 1.363 . S
C3850 H3827 0.950 . S
C3850 C3849 1.397 . S
C3850 C3851 1.334 . S
C3851 H3828 0.950 . S
C3851 C3850 1.334 . S
C3851 C3852 1.287 . S
C3852 C3851 1.287 . S
C3852 C3853 1.524 . S
C3852 H3871 0.913 . S
C3853 H3829 0.950 . S
C3853 C3852 1.524 . S
C3853 C3854 1.415 . S
C3854 H3830 0.950 . S
C3854 C3849 1.363 . S
C3854 C3853 1.415 . S
C3855 H3831 0.951 . S
C3855 C3856 1.366 . S
C3855 C3857 1.388 . S
C3856 C3855 1.366 . S
C3856 C3860 1.385 . S
C3857 H3832 0.951 . S
C3857 C3855 1.388 . S
C3857 C3858 1.366 . S
C3858 C3857 1.366 . S
C3858 C3859 1.414 . S
C3858 C3861 1.499 . S
C3859 H3833 0.950 . S
C3859 C3858 1.414 . S
C3859 C3860 1.374 . S
C3860 H3834 0.950 . S
C3860 C3856 1.385 . S
C3860 C3859 1.374 . S
C3861 C3858 1.499 . S
C3861 C3862 1.373 . S
C3861 C3863 1.389 . S
C3862 H3835 0.950 . S
C3862 C3848 1.377 . S
C3862 C3861 1.373 . S
C3863 C3847 1.377 . S
C3863 C3861 1.389 . S
C3863 C3864 1.524 . S
C3864 C3863 1.524 . S
C3864 C3865 1.397 . S
C3864 C3869 1.363 . S
C3865 H3836 0.950 . S
C3865 C3864 1.397 . S
C3865 C3866 1.334 . S
C3866 H3837 0.950 . S
C3866 C3865 1.334 . S
C3866 C3867 1.287 . S
C3867 C3866 1.287 . S
C3867 C3868 1.524 . S
C3867 H3870 0.999 . S
C3868 H3838 0.950 . S
C3868 C3867 1.524 . S
C3868 C3869 1.415 . S
C3869 H3839 0.950 . S
C3869 C3864 1.363 . S
C3869 C3868 1.415 . S
H3870 C3867 0.999 . S
H3871 C3852 0.913 . S
H3872 C3890 0.951 . S
H3873 C3892 0.951 . S
H3874 C3894 0.950 . S
H3875 C3895 0.950 . S
H3876 C3897 0.950 . S
H3877 C3900 0.950 . S
H3878 C3901 0.950 . S
H3879 C3903 0.950 . S
H3880 C3904 0.950 . S
H3881 C3905 0.951 . S
H3882 C3907 0.951 . S
H3883 C3909 0.950 . S
H3884 C3910 0.950 . S
H3885 C3912 0.950 . S
H3886 C3915 0.950 . S
H3887 C3916 0.950 . S
H3888 C3918 0.950 . S
H3889 C3919 0.950 . S
C3890 H3872 0.951 . S
C3890 C3891 1.366 . S
C3890 C3892 1.388 . S
C3891 C3890 1.366 . S
C3891 C3895 1.385 . S
C3892 H3873 0.951 . S
C3892 C3890 1.388 . S
C3892 C3893 1.366 . S
C3893 C3892 1.366 . S
C3893 C3894 1.414 . S
C3893 C3896 1.499 . S
C3894 H3874 0.950 . S
C3894 C3893 1.414 . S
C3894 C3895 1.374 . S
C3895 H3875 0.950 . S
C3895 C3891 1.385 . S
C3895 C3894 1.374 . S
C3896 C3893 1.499 . S
C3896 C3897 1.373 . S
C3896 C3898 1.389 . S
C3897 H3876 0.950 . S
C3897 C3896 1.373 . S
C3897 C3913 1.377 . S
C3898 C3896 1.389 . S
C3898 C3899 1.524 . S
C3898 C3912 1.377 . S
C3899 C3898 1.524 . S
C3899 C3900 1.397 . S
C3899 C3904 1.363 . S
C3900 H3877 0.950 . S
C3900 C3899 1.397 . S
C3900 C3901 1.334 . S
C3901 H3878 0.950 . S
C3901 C3900 1.334 . S
C3901 C3902 1.287 . S
C3902 C3901 1.287 . S
C3902 C3903 1.524 . S
C3902 H3921 0.913 . S
C3903 H3879 0.950 . S
C3903 C3902 1.524 . S
C3903 C3904 1.415 . S
C3904 H3880 0.950 . S
C3904 C3899 1.363 . S
C3904 C3903 1.415 . S
C3905 H3881 0.951 . S
C3905 C3906 1.366 . S
C3905 C3907 1.388 . S
C3906 C3905 1.366 . S
C3906 C3910 1.385 . S
C3907 H3882 0.951 . S
C3907 C3905 1.388 . S
C3907 C3908 1.366 . S
C3908 C3907 1.366 . S
C3908 C3909 1.414 . S
C3908 C3911 1.499 . S
C3909 H3883 0.950 . S
C3909 C3908 1.414 . S
C3909 C3910 1.374 . S
C3910 H3884 0.950 . S
C3910 C3906 1.385 . S
C3910 C3909 1.374 . S
C3911 C3908 1.499 . S
C3911 C3912 1.373 . S
C3911 C3913 1.389 . S
C3912 H3885 0.950 . S
C3912 C3898 1.377 . S
C3912 C3911 1.373 . S
C3913 C3897 1.377 . S
C3913 C3911 1.389 . S
C3913 C3914 1.524 . S
C3914 C3913 1.524 . S
C3914 C3915 1.397 . S
C3914 C3919 1.363 . S
C3915 H3886 0.950 . S
C3915 C3914 1.397 . S
C3915 C3916 1.334 . S
C3916 H3887 0.950 . S
C3916 C3915 1.334 . S
C3916 C3917 1.287 . S
C3917 C3916 1.287 . S
C3917 C3918 1.524 . S
C3917 H3920 0.999 . S
C3918 H3888 0.950 . S
C3918 C3917 1.524 . S
C3918 C3919 1.415 . S
C3919 H3889 0.950 . S
C3919 C3914 1.363 . S
C3919 C3918 1.415 . S
H3920 C3917 0.999 . S
H3921 C3902 0.913 . S
H3922 C3940 0.951 . S
H3923 C3942 0.951 . S
H3924 C3944 0.950 . S
H3925 C3945 0.950 . S
H3926 C3947 0.950 . S
H3927 C3950 0.950 . S
H3928 C3951 0.950 . S
H3929 C3953 0.950 . S
H3930 C3954 0.950 . S
H3931 C3955 0.951 . S
H3932 C3957 0.951 . S
H3933 C3959 0.950 . S
H3934 C3960 0.950 . S
H3935 C3962 0.950 . S
H3936 C3965 0.950 . S
H3937 C3966 0.950 . S
H3938 C3968 0.950 . S
H3939 C3969 0.950 . S
C3940 H3922 0.951 . S
C3940 C3941 1.366 . S
C3940 C3942 1.388 . S
C3941 C3940 1.366 . S
C3941 C3945 1.385 . S
C3942 H3923 0.951 . S
C3942 C3940 1.388 . S
C3942 C3943 1.366 . S
C3943 C3942 1.366 . S
C3943 C3944 1.414 . S
C3943 C3946 1.499 . S
C3944 H3924 0.950 . S
C3944 C3943 1.414 . S
C3944 C3945 1.374 . S
C3945 H3925 0.950 . S
C3945 C3941 1.385 . S
C3945 C3944 1.374 . S
C3946 C3943 1.499 . S
C3946 C3947 1.373 . S
C3946 C3948 1.389 . S
C3947 H3926 0.950 . S
C3947 C3946 1.373 . S
C3947 C3963 1.377 . S
C3948 C3946 1.389 . S
C3948 C3949 1.524 . S
C3948 C3962 1.377 . S
C3949 C3948 1.524 . S
C3949 C3950 1.397 . S
C3949 C3954 1.363 . S
C3950 H3927 0.950 . S
C3950 C3949 1.397 . S
C3950 C3951 1.334 . S
C3951 H3928 0.950 . S
C3951 C3950 1.334 . S
C3951 C3952 1.287 . S
C3952 C3951 1.287 . S
C3952 C3953 1.524 . S
C3952 H3971 0.913 . S
C3953 H3929 0.950 . S
C3953 C3952 1.524 . S
C3953 C3954 1.415 . S
C3954 H3930 0.950 . S
C3954 C3949 1.363 . S
C3954 C3953 1.415 . S
C3955 H3931 0.951 . S
C3955 C3956 1.366 . S
C3955 C3957 1.388 . S
C3956 C3955 1.366 . S
C3956 C3960 1.385 . S
C3957 H3932 0.951 . S
C3957 C3955 1.388 . S
C3957 C3958 1.366 . S
C3958 C3957 1.366 . S
C3958 C3959 1.414 . S
C3958 C3961 1.499 . S
C3959 H3933 0.950 . S
C3959 C3958 1.414 . S
C3959 C3960 1.374 . S
C3960 H3934 0.950 . S
C3960 C3956 1.385 . S
C3960 C3959 1.374 . S
C3961 C3958 1.499 . S
C3961 C3962 1.373 . S
C3961 C3963 1.389 . S
C3962 H3935 0.950 . S
C3962 C3948 1.377 . S
C3962 C3961 1.373 . S
C3963 C3947 1.377 . S
C3963 C3961 1.389 . S
C3963 C3964 1.524 . S
C3964 C3963 1.524 . S
C3964 C3965 1.397 . S
C3964 C3969 1.363 . S
C3965 H3936 0.950 . S
C3965 C3964 1.397 . S
C3965 C3966 1.334 . S
C3966 H3937 0.950 . S
C3966 C3965 1.334 . S
C3966 C3967 1.287 . S
C3967 C3966 1.287 . S
C3967 C3968 1.524 . S
C3967 H3970 0.999 . S
C3968 H3938 0.950 . S
C3968 C3967 1.524 . S
C3968 C3969 1.415 . S
C3969 H3939 0.950 . S
C3969 C3964 1.363 . S
C3969 C3968 1.415 . S
H3970 C3967 0.999 . S
H3971 C3952 0.913 . S
H3972 C3990 0.951 . S
H3973 C3992 0.951 . S
H3974 C3994 0.950 . S
H3975 C3995 0.950 . S
H3976 C3997 0.950 . S
H3977 C4000 0.950 . S
H3978 C4001 0.950 . S
H3979 C4003 0.950 . S
H3980 C4004 0.950 . S
H3981 C4005 0.951 . S
H3982 C4007 0.951 . S
H3983 C4009 0.950 . S
H3984 C4010 0.950 . S
H3985 C4012 0.950 . S
H3986 C4015 0.950 . S
H3987 C4016 0.950 . S
H3988 C4018 0.950 . S
H3989 C4019 0.950 . S
C3990 H3972 0.951 . S
C3990 C3991 1.366 . S
C3990 C3992 1.388 . S
C3991 C3990 1.366 . S
C3991 C3995 1.385 . S
C3992 H3973 0.951 . S
C3992 C3990 1.388 . S
C3992 C3993 1.366 . S
C3993 C3992 1.366 . S
C3993 C3994 1.414 . S
C3993 C3996 1.499 . S
C3994 H3974 0.950 . S
C3994 C3993 1.414 . S
C3994 C3995 1.374 . S
C3995 H3975 0.950 . S
C3995 C3991 1.385 . S
C3995 C3994 1.374 . S
C3996 C3993 1.499 . S
C3996 C3997 1.373 . S
C3996 C3998 1.389 . S
C3997 H3976 0.950 . S
C3997 C3996 1.373 . S
C3997 C4013 1.377 . S
C3998 C3996 1.389 . S
C3998 C3999 1.524 . S
C3998 C4012 1.377 . S
C3999 C3998 1.524 . S
C3999 C4000 1.397 . S
C3999 C4004 1.363 . S
C4000 H3977 0.950 . S
C4000 C3999 1.397 . S
C4000 C4001 1.334 . S
C4001 H3978 0.950 . S
C4001 C4000 1.334 . S
C4001 C4002 1.287 . S
C4002 C4001 1.287 . S
C4002 C4003 1.524 . S
C4002 H4021 0.913 . S
C4003 H3979 0.950 . S
C4003 C4002 1.524 . S
C4003 C4004 1.415 . S
C4004 H3980 0.950 . S
C4004 C3999 1.363 . S
C4004 C4003 1.415 . S
C4005 H3981 0.951 . S
C4005 C4006 1.366 . S
C4005 C4007 1.388 . S
C4006 C4005 1.366 . S
C4006 C4010 1.385 . S
C4007 H3982 0.951 . S
C4007 C4005 1.388 . S
C4007 C4008 1.366 . S
C4008 C4007 1.366 . S
C4008 C4009 1.414 . S
C4008 C4011 1.499 . S
C4009 H3983 0.950 . S
C4009 C4008 1.414 . S
C4009 C4010 1.374 . S
C4010 H3984 0.950 . S
C4010 C4006 1.385 . S
C4010 C4009 1.374 . S
C4011 C4008 1.499 . S
C4011 C4012 1.373 . S
C4011 C4013 1.389 . S
C4012 H3985 0.950 . S
C4012 C3998 1.377 . S
C4012 C4011 1.373 . S
C4013 C3997 1.377 . S
C4013 C4011 1.389 . S
C4013 C4014 1.524 . S
C4014 C4013 1.524 . S
C4014 C4015 1.397 . S
C4014 C4019 1.363 . S
C4015 H3986 0.950 . S
C4015 C4014 1.397 . S
C4015 C4016 1.334 . S
C4016 H3987 0.950 . S
C4016 C4015 1.334 . S
C4016 C4017 1.287 . S
C4017 C4016 1.287 . S
C4017 C4018 1.524 . S
C4017 H4020 0.999 . S
C4018 H3988 0.950 . S
C4018 C4017 1.524 . S
C4018 C4019 1.415 . S
C4019 H3989 0.950 . S
C4019 C4014 1.363 . S
C4019 C4018 1.415 . S
H4020 C4017 0.999 . S
H4021 C4002 0.913 . S
H4022 C4040 0.951 . S
H4023 C4042 0.951 . S
H4024 C4044 0.950 . S
H4025 C4045 0.950 . S
H4026 C4047 0.950 . S
H4027 C4050 0.950 . S
H4028 C4051 0.950 . S
H4029 C4053 0.950 . S
H4030 C4054 0.950 . S
H4031 C4055 0.951 . S
H4032 C4057 0.951 . S
H4033 C4059 0.950 . S
H4034 C4060 0.950 . S
H4035 C4062 0.950 . S
H4036 C4065 0.950 . S
H4037 C4066 0.950 . S
H4038 C4068 0.950 . S
H4039 C4069 0.950 . S
C4040 H4022 0.951 . S
C4040 C4041 1.366 . S
C4040 C4042 1.388 . S
C4041 C4040 1.366 . S
C4041 C4045 1.385 . S
C4042 H4023 0.951 . S
C4042 C4040 1.388 . S
C4042 C4043 1.366 . S
C4043 C4042 1.366 . S
C4043 C4044 1.414 . S
C4043 C4046 1.499 . S
C4044 H4024 0.950 . S
C4044 C4043 1.414 . S
C4044 C4045 1.374 . S
C4045 H4025 0.950 . S
C4045 C4041 1.385 . S
C4045 C4044 1.374 . S
C4046 C4043 1.499 . S
C4046 C4047 1.373 . S
C4046 C4048 1.389 . S
C4047 H4026 0.950 . S
C4047 C4046 1.373 . S
C4047 C4063 1.377 . S
C4048 C4046 1.389 . S
C4048 C4049 1.524 . S
C4048 C4062 1.377 . S
C4049 C4048 1.524 . S
C4049 C4050 1.397 . S
C4049 C4054 1.363 . S
C4050 H4027 0.950 . S
C4050 C4049 1.397 . S
C4050 C4051 1.334 . S
C4051 H4028 0.950 . S
C4051 C4050 1.334 . S
C4051 C4052 1.287 . S
C4052 C4051 1.287 . S
C4052 C4053 1.524 . S
C4052 H4071 0.913 . S
C4053 H4029 0.950 . S
C4053 C4052 1.524 . S
C4053 C4054 1.415 . S
C4054 H4030 0.950 . S
C4054 C4049 1.363 . S
C4054 C4053 1.415 . S
C4055 H4031 0.951 . S
C4055 C4056 1.366 . S
C4055 C4057 1.388 . S
C4056 C4055 1.366 . S
C4056 C4060 1.385 . S
C4057 H4032 0.951 . S
C4057 C4055 1.388 . S
C4057 C4058 1.366 . S
C4058 C4057 1.366 . S
C4058 C4059 1.414 . S
C4058 C4061 1.499 . S
C4059 H4033 0.950 . S
C4059 C4058 1.414 . S
C4059 C4060 1.374 . S
C4060 H4034 0.950 . S
C4060 C4056 1.385 . S
C4060 C4059 1.374 . S
C4061 C4058 1.499 . S
C4061 C4062 1.373 . S
C4061 C4063 1.389 . S
C4062 H4035 0.950 . S
C4062 C4048 1.377 . S
C4062 C4061 1.373 . S
C4063 C4047 1.377 . S
C4063 C4061 1.389 . S
C4063 C4064 1.524 . S
C4064 C4063 1.524 . S
C4064 C4065 1.397 . S
C4064 C4069 1.363 . S
C4065 H4036 0.950 . S
C4065 C4064 1.397 . S
C4065 C4066 1.334 . S
C4066 H4037 0.950 . S
C4066 C4065 1.334 . S
C4066 C4067 1.287 . S
C4067 C4066 1.287 . S
C4067 C4068 1.524 . S
C4067 H4070 0.999 . S
C4068 H4038 0.950 . S
C4068 C4067 1.524 . S
C4068 C4069 1.415 . S
C4069 H4039 0.950 . S
C4069 C4064 1.363 . S
C4069 C4068 1.415 . S
H4070 C4067 0.999 . S
H4071 C4052 0.913 . S
H4072 C4090 0.951 . S
H4073 C4092 0.951 . S
H4074 C4094 0.950 . S
H4075 C4095 0.950 . S
H4076 C4097 0.950 . S
H4077 C4100 0.950 . S
H4078 C4101 0.950 . S
H4079 C4103 0.950 . S
H4080 C4104 0.950 . S
H4081 C4105 0.951 . S
H4082 C4107 0.951 . S
H4083 C4109 0.950 . S
H4084 C4110 0.950 . S
H4085 C4112 0.950 . S
H4086 C4115 0.950 . S
H4087 C4116 0.950 . S
H4088 C4118 0.950 . S
H4089 C4119 0.950 . S
C4090 H4072 0.951 . S
C4090 C4091 1.366 . S
C4090 C4092 1.388 . S
C4091 C4090 1.366 . S
C4091 C4095 1.385 . S
C4092 H4073 0.951 . S
C4092 C4090 1.388 . S
C4092 C4093 1.366 . S
C4093 C4092 1.366 . S
C4093 C4094 1.414 . S
C4093 C4096 1.499 . S
C4094 H4074 0.950 . S
C4094 C4093 1.414 . S
C4094 C4095 1.374 . S
C4095 H4075 0.950 . S
C4095 C4091 1.385 . S
C4095 C4094 1.374 . S
C4096 C4093 1.499 . S
C4096 C4097 1.373 . S
C4096 C4098 1.389 . S
C4097 H4076 0.950 . S
C4097 C4096 1.373 . S
C4097 C4113 1.377 . S
C4098 C4096 1.389 . S
C4098 C4099 1.524 . S
C4098 C4112 1.377 . S
C4099 C4098 1.524 . S
C4099 C4100 1.397 . S
C4099 C4104 1.363 . S
C4100 H4077 0.950 . S
C4100 C4099 1.397 . S
C4100 C4101 1.334 . S
C4101 H4078 0.950 . S
C4101 C4100 1.334 . S
C4101 C4102 1.287 . S
C4102 C4101 1.287 . S
C4102 C4103 1.524 . S
C4102 H4121 0.913 . S
C4103 H4079 0.950 . S
C4103 C4102 1.524 . S
C4103 C4104 1.415 . S
C4104 H4080 0.950 . S
C4104 C4099 1.363 . S
C4104 C4103 1.415 . S
C4105 H4081 0.951 . S
C4105 C4106 1.366 . S
C4105 C4107 1.388 . S
C4106 C4105 1.366 . S
C4106 C4110 1.385 . S
C4107 H4082 0.951 . S
C4107 C4105 1.388 . S
C4107 C4108 1.366 . S
C4108 C4107 1.366 . S
C4108 C4109 1.414 . S
C4108 C4111 1.499 . S
C4109 H4083 0.950 . S
C4109 C4108 1.414 . S
C4109 C4110 1.374 . S
C4110 H4084 0.950 . S
C4110 C4106 1.385 . S
C4110 C4109 1.374 . S
C4111 C4108 1.499 . S
C4111 C4112 1.373 . S
C4111 C4113 1.389 . S
C4112 H4085 0.950 . S
C4112 C4098 1.377 . S
C4112 C4111 1.373 . S
C4113 C4097 1.377 . S
C4113 C4111 1.389 . S
C4113 C4114 1.524 . S
C4114 C4113 1.524 . S
C4114 C4115 1.397 . S
C4114 C4119 1.363 . S
C4115 H4086 0.950 . S
C4115 C4114 1.397 . S
C4115 C4116 1.334 . S
C4116 H4087 0.950 . S
C4116 C4115 1.334 . S
C4116 C4117 1.287 . S
C4117 C4116 1.287 . S
C4117 C4118 1.524 . S
C4117 H4120 0.999 . S
C4118 H4088 0.950 . S
C4118 C4117 1.524 . S
C4118 C4119 1.415 . S
C4119 H4089 0.950 . S
C4119 C4114 1.363 . S
C4119 C4118 1.415 . S
H4120 C4117 0.999 . S
H4121 C4102 0.913 . S
H4122 C4140 0.951 . S
H4123 C4142 0.951 . S
H4124 C4144 0.950 . S
H4125 C4145 0.950 . S
H4126 C4147 0.950 . S
H4127 C4150 0.950 . S
H4128 C4151 0.950 . S
H4129 C4153 0.950 . S
H4130 C4154 0.950 . S
H4131 C4155 0.951 . S
H4132 C4157 0.951 . S
H4133 C4159 0.950 . S
H4134 C4160 0.950 . S
H4135 C4162 0.950 . S
H4136 C4165 0.950 . S
H4137 C4166 0.950 . S
H4138 C4168 0.950 . S
H4139 C4169 0.950 . S
C4140 H4122 0.951 . S
C4140 C4141 1.366 . S
C4140 C4142 1.388 . S
C4141 C4140 1.366 . S
C4141 C4145 1.385 . S
C4142 H4123 0.951 . S
C4142 C4140 1.388 . S
C4142 C4143 1.366 . S
C4143 C4142 1.366 . S
C4143 C4144 1.414 . S
C4143 C4146 1.499 . S
C4144 H4124 0.950 . S
C4144 C4143 1.414 . S
C4144 C4145 1.374 . S
C4145 H4125 0.950 . S
C4145 C4141 1.385 . S
C4145 C4144 1.374 . S
C4146 C4143 1.499 . S
C4146 C4147 1.373 . S
C4146 C4148 1.389 . S
C4147 H4126 0.950 . S
C4147 C4146 1.373 . S
C4147 C4163 1.377 . S
C4148 C4146 1.389 . S
C4148 C4149 1.524 . S
C4148 C4162 1.377 . S
C4149 C4148 1.524 . S
C4149 C4150 1.397 . S
C4149 C4154 1.363 . S
C4150 H4127 0.950 . S
C4150 C4149 1.397 . S
C4150 C4151 1.334 . S
C4151 H4128 0.950 . S
C4151 C4150 1.334 . S
C4151 C4152 1.287 . S
C4152 C4151 1.287 . S
C4152 C4153 1.524 . S
C4152 H4171 0.913 . S
C4153 H4129 0.950 . S
C4153 C4152 1.524 . S
C4153 C4154 1.415 . S
C4154 H4130 0.950 . S
C4154 C4149 1.363 . S
C4154 C4153 1.415 . S
C4155 H4131 0.951 . S
C4155 C4156 1.366 . S
C4155 C4157 1.388 . S
C4156 C4155 1.366 . S
C4156 C4160 1.385 . S
C4157 H4132 0.951 . S
C4157 C4155 1.388 . S
C4157 C4158 1.366 . S
C4158 C4157 1.366 . S
C4158 C4159 1.414 . S
C4158 C4161 1.499 . S
C4159 H4133 0.950 . S
C4159 C4158 1.414 . S
C4159 C4160 1.374 . S
C4160 H4134 0.950 . S
C4160 C4156 1.385 . S
C4160 C4159 1.374 . S
C4161 C4158 1.499 . S
C4161 C4162 1.373 . S
C4161 C4163 1.389 . S
C4162 H4135 0.950 . S
C4162 C4148 1.377 . S
C4162 C4161 1.373 . S
C4163 C4147 1.377 . S
C4163 C4161 1.389 . S
C4163 C4164 1.524 . S
C4164 C4163 1.524 . S
C4164 C4165 1.397 . S
C4164 C4169 1.363 . S
C4165 H4136 0.950 . S
C4165 C4164 1.397 . S
C4165 C4166 1.334 . S
C4166 H4137 0.950 . S
C4166 C4165 1.334 . S
C4166 C4167 1.287 . S
C4167 C4166 1.287 . S
C4167 C4168 1.524 . S
C4167 H4170 0.999 . S
C4168 H4138 0.950 . S
C4168 C4167 1.524 . S
C4168 C4169 1.415 . S
C4169 H4139 0.950 . S
C4169 C4164 1.363 . S
C4169 C4168 1.415 . S
H4170 C4167 0.999 . S
H4171 C4152 0.913 . S
H4172 C4190 0.951 . S
H4173 C4192 0.951 . S
H4174 C4194 0.950 . S
H4175 C4195 0.950 . S
H4176 C4197 0.950 . S
H4177 C4200 0.950 . S
H4178 C4201 0.950 . S
H4179 C4203 0.950 . S
H4180 C4204 0.950 . S
H4181 C4205 0.951 . S
H4182 C4207 0.951 . S
H4183 C4209 0.950 . S
H4184 C4210 0.950 . S
H4185 C4212 0.950 . S
H4186 C4215 0.950 . S
H4187 C4216 0.950 . S
H4188 C4218 0.950 . S
H4189 C4219 0.950 . S
C4190 H4172 0.951 . S
C4190 C4191 1.366 . S
C4190 C4192 1.388 . S
C4191 C4190 1.366 . S
C4191 C4195 1.385 . S
C4192 H4173 0.951 . S
C4192 C4190 1.388 . S
C4192 C4193 1.366 . S
C4193 C4192 1.366 . S
C4193 C4194 1.414 . S
C4193 C4196 1.499 . S
C4194 H4174 0.950 . S
C4194 C4193 1.414 . S
C4194 C4195 1.374 . S
C4195 H4175 0.950 . S
C4195 C4191 1.385 . S
C4195 C4194 1.374 . S
C4196 C4193 1.499 . S
C4196 C4197 1.373 . S
C4196 C4198 1.389 . S
C4197 H4176 0.950 . S
C4197 C4196 1.373 . S
C4197 C4213 1.377 . S
C4198 C4196 1.389 . S
C4198 C4199 1.524 . S
C4198 C4212 1.377 . S
C4199 C4198 1.524 . S
C4199 C4200 1.397 . S
C4199 C4204 1.363 . S
C4200 H4177 0.950 . S
C4200 C4199 1.397 . S
C4200 C4201 1.334 . S
C4201 H4178 0.950 . S
C4201 C4200 1.334 . S
C4201 C4202 1.287 . S
C4202 C4201 1.287 . S
C4202 C4203 1.524 . S
C4202 H4221 0.913 . S
C4203 H4179 0.950 . S
C4203 C4202 1.524 . S
C4203 C4204 1.415 . S
C4204 H4180 0.950 . S
C4204 C4199 1.363 . S
C4204 C4203 1.415 . S
C4205 H4181 0.951 . S
C4205 C4206 1.366 . S
C4205 C4207 1.388 . S
C4206 C4205 1.366 . S
C4206 C4210 1.385 . S
C4207 H4182 0.951 . S
C4207 C4205 1.388 . S
C4207 C4208 1.366 . S
C4208 C4207 1.366 . S
C4208 C4209 1.414 . S
C4208 C4211 1.499 . S
C4209 H4183 0.950 . S
C4209 C4208 1.414 . S
C4209 C4210 1.374 . S
C4210 H4184 0.950 . S
C4210 C4206 1.385 . S
C4210 C4209 1.374 . S
C4211 C4208 1.499 . S
C4211 C4212 1.373 . S
C4211 C4213 1.389 . S
C4212 H4185 0.950 . S
C4212 C4198 1.377 . S
C4212 C4211 1.373 . S
C4213 C4197 1.377 . S
C4213 C4211 1.389 . S
C4213 C4214 1.524 . S
C4214 C4213 1.524 . S
C4214 C4215 1.397 . S
C4214 C4219 1.363 . S
C4215 H4186 0.950 . S
C4215 C4214 1.397 . S
C4215 C4216 1.334 . S
C4216 H4187 0.950 . S
C4216 C4215 1.334 . S
C4216 C4217 1.287 . S
C4217 C4216 1.287 . S
C4217 C4218 1.524 . S
C4217 H4220 0.999 . S
C4218 H4188 0.950 . S
C4218 C4217 1.524 . S
C4218 C4219 1.415 . S
C4219 H4189 0.950 . S
C4219 C4214 1.363 . S
C4219 C4218 1.415 . S
H4220 C4217 0.999 . S
H4221 C4202 0.913 . S
H4222 C4240 0.951 . S
H4223 C4242 0.951 . S
H4224 C4244 0.950 . S
H4225 C4245 0.950 . S
H4226 C4247 0.950 . S
H4227 C4250 0.950 . S
H4228 C4251 0.950 . S
H4229 C4253 0.950 . S
H4230 C4254 0.950 . S
H4231 C4255 0.951 . S
H4232 C4257 0.951 . S
H4233 C4259 0.950 . S
H4234 C4260 0.950 . S
H4235 C4262 0.950 . S
H4236 C4265 0.950 . S
H4237 C4266 0.950 . S
H4238 C4268 0.950 . S
H4239 C4269 0.950 . S
C4240 H4222 0.951 . S
C4240 C4241 1.366 . S
C4240 C4242 1.388 . S
C4241 C4240 1.366 . S
C4241 C4245 1.385 . S
C4242 H4223 0.951 . S
C4242 C4240 1.388 . S
C4242 C4243 1.366 . S
C4243 C4242 1.366 . S
C4243 C4244 1.414 . S
C4243 C4246 1.499 . S
C4244 H4224 0.950 . S
C4244 C4243 1.414 . S
C4244 C4245 1.374 . S
C4245 H4225 0.950 . S
C4245 C4241 1.385 . S
C4245 C4244 1.374 . S
C4246 C4243 1.499 . S
C4246 C4247 1.373 . S
C4246 C4248 1.389 . S
C4247 H4226 0.950 . S
C4247 C4246 1.373 . S
C4247 C4263 1.377 . S
C4248 C4246 1.389 . S
C4248 C4249 1.524 . S
C4248 C4262 1.377 . S
C4249 C4248 1.524 . S
C4249 C4250 1.397 . S
C4249 C4254 1.363 . S
C4250 H4227 0.950 . S
C4250 C4249 1.397 . S
C4250 C4251 1.334 . S
C4251 H4228 0.950 . S
C4251 C4250 1.334 . S
C4251 C4252 1.287 . S
C4252 C4251 1.287 . S
C4252 C4253 1.524 . S
C4252 H4271 0.913 . S
C4253 H4229 0.950 . S
C4253 C4252 1.524 . S
C4253 C4254 1.415 . S
C4254 H4230 0.950 . S
C4254 C4249 1.363 . S
C4254 C4253 1.415 . S
C4255 H4231 0.951 . S
C4255 C4256 1.366 . S
C4255 C4257 1.388 . S
C4256 C4255 1.366 . S
C4256 C4260 1.385 . S
C4257 H4232 0.951 . S
C4257 C4255 1.388 . S
C4257 C4258 1.366 . S
C4258 C4257 1.366 . S
C4258 C4259 1.414 . S
C4258 C4261 1.499 . S
C4259 H4233 0.950 . S
C4259 C4258 1.414 . S
C4259 C4260 1.374 . S
C4260 H4234 0.950 . S
C4260 C4256 1.385 . S
C4260 C4259 1.374 . S
C4261 C4258 1.499 . S
C4261 C4262 1.373 . S
C4261 C4263 1.389 . S
C4262 H4235 0.950 . S
C4262 C4248 1.377 . S
C4262 C4261 1.373 . S
C4263 C4247 1.377 . S
C4263 C4261 1.389 . S
C4263 C4264 1.524 . S
C4264 C4263 1.524 . S
C4264 C4265 1.397 . S
C4264 C4269 1.363 . S
C4265 H4236 0.950 . S
C4265 C4264 1.397 . S
C4265 C4266 1.334 . S
C4266 H4237 0.950 . S
C4266 C4265 1.334 . S
C4266 C4267 1.287 . S
C4267 C4266 1.287 . S
C4267 C4268 1.524 . S
C4267 H4270 0.999 . S
C4268 H4238 0.950 . S
C4268 C4267 1.524 . S
C4268 C4269 1.415 . S
C4269 H4239 0.950 . S
C4269 C4264 1.363 . S
C4269 C4268 1.415 . S
H4270 C4267 0.999 . S
H4271 C4252 0.913 . S
H4272 C4290 0.951 . S
H4273 C4292 0.951 . S
H4274 C4294 0.950 . S
H4275 C4295 0.950 . S
H4276 C4297 0.950 . S
H4277 C4300 0.950 . S
H4278 C4301 0.950 . S
H4279 C4303 0.950 . S
H4280 C4304 0.950 . S
H4281 C4305 0.951 . S
H4282 C4307 0.951 . S
H4283 C4309 0.950 . S
H4284 C4310 0.950 . S
H4285 C4312 0.950 . S
H4286 C4315 0.950 . S
H4287 C4316 0.950 . S
H4288 C4318 0.950 . S
H4289 C4319 0.950 . S
C4290 H4272 0.951 . S
C4290 C4291 1.366 . S
C4290 C4292 1.388 . S
C4291 C4290 1.366 . S
C4291 C4295 1.385 . S
C4292 H4273 0.951 . S
C4292 C4290 1.388 . S
C4292 C4293 1.366 . S
C4293 C4292 1.366 . S
C4293 C4294 1.414 . S
C4293 C4296 1.499 . S
C4294 H4274 0.950 . S
C4294 C4293 1.414 . S
C4294 C4295 1.374 . S
C4295 H4275 0.950 . S
C4295 C4291 1.385 . S
C4295 C4294 1.374 . S
C4296 C4293 1.499 . S
C4296 C4297 1.373 . S
C4296 C4298 1.389 . S
C4297 H4276 0.950 . S
C4297 C4296 1.373 . S
C4297 C4313 1.377 . S
C4298 C4296 1.389 . S
C4298 C4299 1.524 . S
C4298 C4312 1.377 . S
C4299 C4298 1.524 . S
C4299 C4300 1.397 . S
C4299 C4304 1.363 . S
C4300 H4277 0.950 . S
C4300 C4299 1.397 . S
C4300 C4301 1.334 . S
C4301 H4278 0.950 . S
C4301 C4300 1.334 . S
C4301 C4302 1.287 . S
C4302 C4301 1.287 . S
C4302 C4303 1.524 . S
C4302 H4321 0.913 . S
C4303 H4279 0.950 . S
C4303 C4302 1.524 . S
C4303 C4304 1.415 . S
C4304 H4280 0.950 . S
C4304 C4299 1.363 . S
C4304 C4303 1.415 . S
C4305 H4281 0.951 . S
C4305 C4306 1.366 . S
C4305 C4307 1.388 . S
C4306 C4305 1.366 . S
C4306 C4310 1.385 . S
C4307 H4282 0.951 . S
C4307 C4305 1.388 . S
C4307 C4308 1.366 . S
C4308 C4307 1.366 . S
C4308 C4309 1.414 . S
C4308 C4311 1.499 . S
C4309 H4283 0.950 . S
C4309 C4308 1.414 . S
C4309 C4310 1.374 . S
C4310 H4284 0.950 . S
C4310 C4306 1.385 . S
C4310 C4309 1.374 . S
C4311 C4308 1.499 . S
C4311 C4312 1.373 . S
C4311 C4313 1.389 . S
C4312 H4285 0.950 . S
C4312 C4298 1.377 . S
C4312 C4311 1.373 . S
C4313 C4297 1.377 . S
C4313 C4311 1.389 . S
C4313 C4314 1.524 . S
C4314 C4313 1.524 . S
C4314 C4315 1.397 . S
C4314 C4319 1.363 . S
C4315 H4286 0.950 . S
C4315 C4314 1.397 . S
C4315 C4316 1.334 . S
C4316 H4287 0.950 . S
C4316 C4315 1.334 . S
C4316 C4317 1.287 . S
C4317 C4316 1.287 . S
C4317 C4318 1.524 . S
C4317 H4320 0.999 . S
C4318 H4288 0.950 . S
C4318 C4317 1.524 . S
C4318 C4319 1.415 . S
C4319 H4289 0.950 . S
C4319 C4314 1.363 . S
C4319 C4318 1.415 . S
H4320 C4317 0.999 . S
H4321 C4302 0.913 . S
H4322 C4340 0.951 . S
H4323 C4342 0.951 . S
H4324 C4344 0.950 . S
H4325 C4345 0.950 . S
H4326 C4347 0.950 . S
H4327 C4350 0.950 . S
H4328 C4351 0.950 . S
H4329 C4353 0.950 . S
H4330 C4354 0.950 . S
H4331 C4355 0.951 . S
H4332 C4357 0.951 . S
H4333 C4359 0.950 . S
H4334 C4360 0.950 . S
H4335 C4362 0.950 . S
H4336 C4365 0.950 . S
H4337 C4366 0.950 . S
H4338 C4368 0.950 . S
H4339 C4369 0.950 . S
C4340 H4322 0.951 . S
C4340 C4341 1.366 . S
C4340 C4342 1.388 . S
C4341 C4340 1.366 . S
C4341 C4345 1.385 . S
C4342 H4323 0.951 . S
C4342 C4340 1.388 . S
C4342 C4343 1.366 . S
C4343 C4342 1.366 . S
C4343 C4344 1.414 . S
C4343 C4346 1.499 . S
C4344 H4324 0.950 . S
C4344 C4343 1.414 . S
C4344 C4345 1.374 . S
C4345 H4325 0.950 . S
C4345 C4341 1.385 . S
C4345 C4344 1.374 . S
C4346 C4343 1.499 . S
C4346 C4347 1.373 . S
C4346 C4348 1.389 . S
C4347 H4326 0.950 . S
C4347 C4346 1.373 . S
C4347 C4363 1.377 . S
C4348 C4346 1.389 . S
C4348 C4349 1.524 . S
C4348 C4362 1.377 . S
C4349 C4348 1.524 . S
C4349 C4350 1.397 . S
C4349 C4354 1.363 . S
C4350 H4327 0.950 . S
C4350 C4349 1.397 . S
C4350 C4351 1.334 . S
C4351 H4328 0.950 . S
C4351 C4350 1.334 . S
C4351 C4352 1.287 . S
C4352 C4351 1.287 . S
C4352 C4353 1.524 . S
C4352 H4371 0.913 . S
C4353 H4329 0.950 . S
C4353 C4352 1.524 . S
C4353 C4354 1.415 . S
C4354 H4330 0.950 . S
C4354 C4349 1.363 . S
C4354 C4353 1.415 . S
C4355 H4331 0.951 . S
C4355 C4356 1.366 . S
C4355 C4357 1.388 . S
C4356 C4355 1.366 . S
C4356 C4360 1.385 . S
C4357 H4332 0.951 . S
C4357 C4355 1.388 . S
C4357 C4358 1.366 . S
C4358 C4357 1.366 . S
C4358 C4359 1.414 . S
C4358 C4361 1.499 . S
C4359 H4333 0.950 . S
C4359 C4358 1.414 . S
C4359 C4360 1.374 . S
C4360 H4334 0.950 . S
C4360 C4356 1.385 . S
C4360 C4359 1.374 . S
C4361 C4358 1.499 . S
C4361 C4362 1.373 . S
C4361 C4363 1.389 . S
C4362 H4335 0.950 . S
C4362 C4348 1.377 . S
C4362 C4361 1.373 . S
C4363 C4347 1.377 . S
C4363 C4361 1.389 . S
C4363 C4364 1.524 . S
C4364 C4363 1.524 . S
C4364 C4365 1.397 . S
C4364 C4369 1.363 . S
C4365 H4336 0.950 . S
C4365 C4364 1.397 . S
C4365 C4366 1.334 . S
C4366 H4337 0.950 . S
C4366 C4365 1.334 . S
C4366 C4367 1.287 . S
C4367 C4366 1.287 . S
C4367 C4368 1.524 . S
C4367 H4370 0.999 . S
C4368 H4338 0.950 . S
C4368 C4367 1.524 . S
C4368 C4369 1.415 . S
C4369 H4339 0.950 . S
C4369 C4364 1.363 . S
C4369 C4368 1.415 . S
H4370 C4367 0.999 . S
H4371 C4352 0.913 . S
H4372 C4390 0.951 . S
H4373 C4392 0.951 . S
H4374 C4394 0.950 . S
H4375 C4395 0.950 . S
H4376 C4397 0.950 . S
H4377 C4400 0.950 . S
H4378 C4401 0.950 . S
H4379 C4403 0.950 . S
H4380 C4404 0.950 . S
H4381 C4405 0.951 . S
H4382 C4407 0.951 . S
H4383 C4409 0.950 . S
H4384 C4410 0.950 . S
H4385 C4412 0.950 . S
H4386 C4415 0.950 . S
H4387 C4416 0.950 . S
H4388 C4418 0.950 . S
H4389 C4419 0.950 . S
C4390 H4372 0.951 . S
C4390 C4391 1.366 . S
C4390 C4392 1.388 . S
C4391 C4390 1.366 . S
C4391 C4395 1.385 . S
C4392 H4373 0.951 . S
C4392 C4390 1.388 . S
C4392 C4393 1.366 . S
C4393 C4392 1.366 . S
C4393 C4394 1.414 . S
C4393 C4396 1.499 . S
C4394 H4374 0.950 . S
C4394 C4393 1.414 . S
C4394 C4395 1.374 . S
C4395 H4375 0.950 . S
C4395 C4391 1.385 . S
C4395 C4394 1.374 . S
C4396 C4393 1.499 . S
C4396 C4397 1.373 . S
C4396 C4398 1.389 . S
C4397 H4376 0.950 . S
C4397 C4396 1.373 . S
C4397 C4413 1.377 . S
C4398 C4396 1.389 . S
C4398 C4399 1.524 . S
C4398 C4412 1.377 . S
C4399 C4398 1.524 . S
C4399 C4400 1.397 . S
C4399 C4404 1.363 . S
C4400 H4377 0.950 . S
C4400 C4399 1.397 . S
C4400 C4401 1.334 . S
C4401 H4378 0.950 . S
C4401 C4400 1.334 . S
C4401 C4402 1.287 . S
C4402 C4401 1.287 . S
C4402 C4403 1.524 . S
C4402 H4421 0.913 . S
C4403 H4379 0.950 . S
C4403 C4402 1.524 . S
C4403 C4404 1.415 . S
C4404 H4380 0.950 . S
C4404 C4399 1.363 . S
C4404 C4403 1.415 . S
C4405 H4381 0.951 . S
C4405 C4406 1.366 . S
C4405 C4407 1.388 . S
C4406 C4405 1.366 . S
C4406 C4410 1.385 . S
C4407 H4382 0.951 . S
C4407 C4405 1.388 . S
C4407 C4408 1.366 . S
C4408 C4407 1.366 . S
C4408 C4409 1.414 . S
C4408 C4411 1.499 . S
C4409 H4383 0.950 . S
C4409 C4408 1.414 . S
C4409 C4410 1.374 . S
C4410 H4384 0.950 . S
C4410 C4406 1.385 . S
C4410 C4409 1.374 . S
C4411 C4408 1.499 . S
C4411 C4412 1.373 . S
C4411 C4413 1.389 . S
C4412 H4385 0.950 . S
C4412 C4398 1.377 . S
C4412 C4411 1.373 . S
C4413 C4397 1.377 . S
C4413 C4411 1.389 . S
C4413 C4414 1.524 . S
C4414 C4413 1.524 . S
C4414 C4415 1.397 . S
C4414 C4419 1.363 . S
C4415 H4386 0.950 . S
C4415 C4414 1.397 . S
C4415 C4416 1.334 . S
C4416 H4387 0.950 . S
C4416 C4415 1.334 . S
C4416 C4417 1.287 . S
C4417 C4416 1.287 . S
C4417 C4418 1.524 . S
C4417 H4420 0.999 . S
C4418 H4388 0.950 . S
C4418 C4417 1.524 . S
C4418 C4419 1.415 . S
C4419 H4389 0.950 . S
C4419 C4414 1.363 . S
C4419 C4418 1.415 . S
H4420 C4417 0.999 . S
H4421 C4402 0.913 . S
H4422 C4440 0.951 . S
H4423 C4442 0.951 . S
H4424 C4444 0.950 . S
H4425 C4445 0.950 . S
H4426 C4447 0.950 . S
H4427 C4450 0.950 . S
H4428 C4451 0.950 . S
H4429 C4453 0.950 . S
H4430 C4454 0.950 . S
H4431 C4455 0.951 . S
H4432 C4457 0.951 . S
H4433 C4459 0.950 . S
H4434 C4460 0.950 . S
H4435 C4462 0.950 . S
H4436 C4465 0.950 . S
H4437 C4466 0.950 . S
H4438 C4468 0.950 . S
H4439 C4469 0.950 . S
C4440 H4422 0.951 . S
C4440 C4441 1.366 . S
C4440 C4442 1.388 . S
C4441 C4440 1.366 . S
C4441 C4445 1.385 . S
C4442 H4423 0.951 . S
C4442 C4440 1.388 . S
C4442 C4443 1.366 . S
C4443 C4442 1.366 . S
C4443 C4444 1.414 . S
C4443 C4446 1.499 . S
C4444 H4424 0.950 . S
C4444 C4443 1.414 . S
C4444 C4445 1.374 . S
C4445 H4425 0.950 . S
C4445 C4441 1.385 . S
C4445 C4444 1.374 . S
C4446 C4443 1.499 . S
C4446 C4447 1.373 . S
C4446 C4448 1.389 . S
C4447 H4426 0.950 . S
C4447 C4446 1.373 . S
C4447 C4463 1.377 . S
C4448 C4446 1.389 . S
C4448 C4449 1.524 . S
C4448 C4462 1.377 . S
C4449 C4448 1.524 . S
C4449 C4450 1.397 . S
C4449 C4454 1.363 . S
C4450 H4427 0.950 . S
C4450 C4449 1.397 . S
C4450 C4451 1.334 . S
C4451 H4428 0.950 . S
C4451 C4450 1.334 . S
C4451 C4452 1.287 . S
C4452 C4451 1.287 . S
C4452 C4453 1.524 . S
C4452 H4471 0.913 . S
C4453 H4429 0.950 . S
C4453 C4452 1.524 . S
C4453 C4454 1.415 . S
C4454 H4430 0.950 . S
C4454 C4449 1.363 . S
C4454 C4453 1.415 . S
C4455 H4431 0.951 . S
C4455 C4456 1.366 . S
C4455 C4457 1.388 . S
C4456 C4455 1.366 . S
C4456 C4460 1.385 . S
C4457 H4432 0.951 . S
C4457 C4455 1.388 . S
C4457 C4458 1.366 . S
C4458 C4457 1.366 . S
C4458 C4459 1.414 . S
C4458 C4461 1.499 . S
C4459 H4433 0.950 . S
C4459 C4458 1.414 . S
C4459 C4460 1.374 . S
C4460 H4434 0.950 . S
C4460 C4456 1.385 . S
C4460 C4459 1.374 . S
C4461 C4458 1.499 . S
C4461 C4462 1.373 . S
C4461 C4463 1.389 . S
C4462 H4435 0.950 . S
C4462 C4448 1.377 . S
C4462 C4461 1.373 . S
C4463 C4447 1.377 . S
C4463 C4461 1.389 . S
C4463 C4464 1.524 . S
C4464 C4463 1.524 . S
C4464 C4465 1.397 . S
C4464 C4469 1.363 . S
C4465 H4436 0.950 . S
C4465 C4464 1.397 . S
C4465 C4466 1.334 . S
C4466 H4437 0.950 . S
C4466 C4465 1.334 . S
C4466 C4467 1.287 . S
C4467 C4466 1.287 . S
C4467 C4468 1.524 . S
C4467 H4470 0.999 . S
C4468 H4438 0.950 . S
C4468 C4467 1.524 . S
C4468 C4469 1.415 . S
C4469 H4439 0.950 . S
C4469 C4464 1.363 . S
C4469 C4468 1.415 . S
H4470 C4467 0.999 . S
H4471 C4452 0.913 . S
H4472 C4490 0.951 . S
H4473 C4492 0.951 . S
H4474 C4494 0.950 . S
H4475 C4495 0.950 . S
H4476 C4497 0.950 . S
H4477 C4500 0.950 . S
H4478 C4501 0.950 . S
H4479 C4503 0.950 . S
H4480 C4504 0.950 . S
H4481 C4505 0.951 . S
H4482 C4507 0.951 . S
H4483 C4509 0.950 . S
H4484 C4510 0.950 . S
H4485 C4512 0.950 . S
H4486 C4515 0.950 . S
H4487 C4516 0.950 . S
H4488 C4518 0.950 . S
H4489 C4519 0.950 . S
C4490 H4472 0.951 . S
C4490 C4491 1.366 . S
C4490 C4492 1.388 . S
C4491 C4490 1.366 . S
C4491 C4495 1.385 . S
C4492 H4473 0.951 . S
C4492 C4490 1.388 . S
C4492 C4493 1.366 . S
C4493 C4492 1.366 . S
C4493 C4494 1.414 . S
C4493 C4496 1.499 . S
C4494 H4474 0.950 . S
C4494 C4493 1.414 . S
C4494 C4495 1.374 . S
C4495 H4475 0.950 . S
C4495 C4491 1.385 . S
C4495 C4494 1.374 . S
C4496 C4493 1.499 . S
C4496 C4497 1.373 . S
C4496 C4498 1.389 . S
C4497 H4476 0.950 . S
C4497 C4496 1.373 . S
C4497 C4513 1.377 . S
C4498 C4496 1.389 . S
C4498 C4499 1.524 . S
C4498 C4512 1.377 . S
C4499 C4498 1.524 . S
C4499 C4500 1.397 . S
C4499 C4504 1.363 . S
C4500 H4477 0.950 . S
C4500 C4499 1.397 . S
C4500 C4501 1.334 . S
C4501 H4478 0.950 . S
C4501 C4500 1.334 . S
C4501 C4502 1.287 . S
C4502 C4501 1.287 . S
C4502 C4503 1.524 . S
C4502 H4521 0.913 . S
C4503 H4479 0.950 . S
C4503 C4502 1.524 . S
C4503 C4504 1.415 . S
C4504 H4480 0.950 . S
C4504 C4499 1.363 . S
C4504 C4503 1.415 . S
C4505 H4481 0.951 . S
C4505 C4506 1.366 . S
C4505 C4507 1.388 . S
C4506 C4505 1.366 . S
C4506 C4510 1.385 . S
C4507 H4482 0.951 . S
C4507 C4505 1.388 . S
C4507 C4508 1.366 . S
C4508 C4507 1.366 . S
C4508 C4509 1.414 . S
C4508 C4511 1.499 . S
C4509 H4483 0.950 . S
C4509 C4508 1.414 . S
C4509 C4510 1.374 . S
C4510 H4484 0.950 . S
C4510 C4506 1.385 . S
C4510 C4509 1.374 . S
C4511 C4508 1.499 . S
C4511 C4512 1.373 . S
C4511 C4513 1.389 . S
C4512 H4485 0.950 . S
C4512 C4498 1.377 . S
C4512 C4511 1.373 . S
C4513 C4497 1.377 . S
C4513 C4511 1.389 . S
C4513 C4514 1.524 . S
C4514 C4513 1.524 . S
C4514 C4515 1.397 . S
C4514 C4519 1.363 . S
C4515 H4486 0.950 . S
C4515 C4514 1.397 . S
C4515 C4516 1.334 . S
C4516 H4487 0.950 . S
C4516 C4515 1.334 . S
C4516 C4517 1.287 . S
C4517 C4516 1.287 . S
C4517 C4518 1.524 . S
C4517 H4520 0.999 . S
C4518 H4488 0.950 . S
C4518 C4517 1.524 . S
C4518 C4519 1.415 . S
C4519 H4489 0.950 . S
C4519 C4514 1.363 . S
C4519 C4518 1.415 . S
H4520 C4517 0.999 . S
H4521 C4502 0.913 . S
H4522 C4540 0.951 . S
H4523 C4542 0.951 . S
H4524 C4544 0.950 . S
H4525 C4545 0.950 . S
H4526 C4547 0.950 . S
H4527 C4550 0.950 . S
H4528 C4551 0.950 . S
H4529 C4553 0.950 . S
H4530 C4554 0.950 . S
H4531 C4555 0.951 . S
H4532 C4557 0.951 . S
H4533 C4559 0.950 . S
H4534 C4560 0.950 . S
H4535 C4562 0.950 . S
H4536 C4565 0.950 . S
H4537 C4566 0.950 . S
H4538 C4568 0.950 . S
H4539 C4569 0.950 . S
C4540 H4522 0.951 . S
C4540 C4541 1.366 . S
C4540 C4542 1.388 . S
C4541 C4540 1.366 . S
C4541 C4545 1.385 . S
C4542 H4523 0.951 . S
C4542 C4540 1.388 . S
C4542 C4543 1.366 . S
C4543 C4542 1.366 . S
C4543 C4544 1.414 . S
C4543 C4546 1.499 . S
C4544 H4524 0.950 . S
C4544 C4543 1.414 . S
C4544 C4545 1.374 . S
C4545 H4525 0.950 . S
C4545 C4541 1.385 . S
C4545 C4544 1.374 . S
C4546 C4543 1.499 . S
C4546 C4547 1.373 . S
C4546 C4548 1.389 . S
C4547 H4526 0.950 . S
C4547 C4546 1.373 . S
C4547 C4563 1.377 . S
C4548 C4546 1.389 . S
C4548 C4549 1.524 . S
C4548 C4562 1.377 . S
C4549 C4548 1.524 . S
C4549 C4550 1.397 . S
C4549 C4554 1.363 . S
C4550 H4527 0.950 . S
C4550 C4549 1.397 . S
C4550 C4551 1.334 . S
C4551 H4528 0.950 . S
C4551 C4550 1.334 . S
C4551 C4552 1.287 . S
C4552 C4551 1.287 . S
C4552 C4553 1.524 . S
C4552 H4571 0.913 . S
C4553 H4529 0.950 . S
C4553 C4552 1.524 . S
C4553 C4554 1.415 . S
C4554 H4530 0.950 . S
C4554 C4549 1.363 . S
C4554 C4553 1.415 . S
C4555 H4531 0.951 . S
C4555 C4556 1.366 . S
C4555 C4557 1.388 . S
C4556 C4555 1.366 . S
C4556 C4560 1.385 . S
C4557 H4532 0.951 . S
C4557 C4555 1.388 . S
C4557 C4558 1.366 . S
C4558 C4557 1.366 . S
C4558 C4559 1.414 . S
C4558 C4561 1.499 . S
C4559 H4533 0.950 . S
C4559 C4558 1.414 . S
C4559 C4560 1.374 . S
C4560 H4534 0.950 . S
C4560 C4556 1.385 . S
C4560 C4559 1.374 . S
C4561 C4558 1.499 . S
C4561 C4562 1.373 . S
C4561 C4563 1.389 . S
C4562 H4535 0.950 . S
C4562 C4548 1.377 . S
C4562 C4561 1.373 . S
C4563 C4547 1.377 . S
C4563 C4561 1.389 . S
C4563 C4564 1.524 . S
C4564 C4563 1.524 . S
C4564 C4565 1.397 . S
C4564 C4569 1.363 . S
C4565 H4536 0.950 . S
C4565 C4564 1.397 . S
C4565 C4566 1.334 . S
C4566 H4537 0.950 . S
C4566 C4565 1.334 . S
C4566 C4567 1.287 . S
C4567 C4566 1.287 . S
C4567 C4568 1.524 . S
C4567 H4570 0.999 . S
C4568 H4538 0.950 . S
C4568 C4567 1.524 . S
C4568 C4569 1.415 . S
C4569 H4539 0.950 . S
C4569 C4564 1.363 . S
C4569 C4568 1.415 . S
H4570 C4567 0.999 . S
H4571 C4552 0.913 . S
H4572 C4590 0.951 . S
H4573 C4592 0.951 . S
H4574 C4594 0.950 . S
H4575 C4595 0.950 . S
H4576 C4597 0.950 . S
H4577 C4600 0.950 . S
H4578 C4601 0.950 . S
H4579 C4603 0.950 . S
H4580 C4604 0.950 . S
H4581 C4605 0.951 . S
H4582 C4607 0.951 . S
H4583 C4609 0.950 . S
H4584 C4610 0.950 . S
H4585 C4612 0.950 . S
H4586 C4615 0.950 . S
H4587 C4616 0.950 . S
H4588 C4618 0.950 . S
H4589 C4619 0.950 . S
C4590 H4572 0.951 . S
C4590 C4591 1.366 . S
C4590 C4592 1.388 . S
C4591 C4590 1.366 . S
C4591 C4595 1.385 . S
C4592 H4573 0.951 . S
C4592 C4590 1.388 . S
C4592 C4593 1.366 . S
C4593 C4592 1.366 . S
C4593 C4594 1.414 . S
C4593 C4596 1.499 . S
C4594 H4574 0.950 . S
C4594 C4593 1.414 . S
C4594 C4595 1.374 . S
C4595 H4575 0.950 . S
C4595 C4591 1.385 . S
C4595 C4594 1.374 . S
C4596 C4593 1.499 . S
C4596 C4597 1.373 . S
C4596 C4598 1.389 . S
C4597 H4576 0.950 . S
C4597 C4596 1.373 . S
C4597 C4613 1.377 . S
C4598 C4596 1.389 . S
C4598 C4599 1.524 . S
C4598 C4612 1.377 . S
C4599 C4598 1.524 . S
C4599 C4600 1.397 . S
C4599 C4604 1.363 . S
C4600 H4577 0.950 . S
C4600 C4599 1.397 . S
C4600 C4601 1.334 . S
C4601 H4578 0.950 . S
C4601 C4600 1.334 . S
C4601 C4602 1.287 . S
C4602 C4601 1.287 . S
C4602 C4603 1.524 . S
C4602 H4621 0.913 . S
C4603 H4579 0.950 . S
C4603 C4602 1.524 . S
C4603 C4604 1.415 . S
C4604 H4580 0.950 . S
C4604 C4599 1.363 . S
C4604 C4603 1.415 . S
C4605 H4581 0.951 . S
C4605 C4606 1.366 . S
C4605 C4607 1.388 . S
C4606 C4605 1.366 . S
C4606 C4610 1.385 . S
C4607 H4582 0.951 . S
C4607 C4605 1.388 . S
C4607 C4608 1.366 . S
C4608 C4607 1.366 . S
C4608 C4609 1.414 . S
C4608 C4611 1.499 . S
C4609 H4583 0.950 . S
C4609 C4608 1.414 . S
C4609 C4610 1.374 . S
C4610 H4584 0.950 . S
C4610 C4606 1.385 . S
C4610 C4609 1.374 . S
C4611 C4608 1.499 . S
C4611 C4612 1.373 . S
C4611 C4613 1.389 . S
C4612 H4585 0.950 . S
C4612 C4598 1.377 . S
C4612 C4611 1.373 . S
C4613 C4597 1.377 . S
C4613 C4611 1.389 . S
C4613 C4614 1.524 . S
C4614 C4613 1.524 . S
C4614 C4615 1.397 . S
C4614 C4619 1.363 . S
C4615 H4586 0.950 . S
C4615 C4614 1.397 . S
C4615 C4616 1.334 . S
C4616 H4587 0.950 . S
C4616 C4615 1.334 . S
C4616 C4617 1.287 . S
C4617 C4616 1.287 . S
C4617 C4618 1.524 . S
C4617 H4620 0.999 . S
C4618 H4588 0.950 . S
C4618 C4617 1.524 . S
C4618 C4619 1.415 . S
C4619 H4589 0.950 . S
C4619 C4614 1.363 . S
C4619 C4618 1.415 . S
H4620 C4617 0.999 . S
H4621 C4602 0.913 . S
H4622 C4640 0.951 . S
H4623 C4642 0.951 . S
H4624 C4644 0.950 . S
H4625 C4645 0.950 . S
H4626 C4647 0.950 . S
H4627 C4650 0.950 . S
H4628 C4651 0.950 . S
H4629 C4653 0.950 . S
H4630 C4654 0.950 . S
H4631 C4655 0.951 . S
H4632 C4657 0.951 . S
H4633 C4659 0.950 . S
H4634 C4660 0.950 . S
H4635 C4662 0.950 . S
H4636 C4665 0.950 . S
H4637 C4666 0.950 . S
H4638 C4668 0.950 . S
H4639 C4669 0.950 . S
C4640 H4622 0.951 . S
C4640 C4641 1.366 . S
C4640 C4642 1.388 . S
C4641 C4640 1.366 . S
C4641 C4645 1.385 . S
C4642 H4623 0.951 . S
C4642 C4640 1.388 . S
C4642 C4643 1.366 . S
C4643 C4642 1.366 . S
C4643 C4644 1.414 . S
C4643 C4646 1.499 . S
C4644 H4624 0.950 . S
C4644 C4643 1.414 . S
C4644 C4645 1.374 . S
C4645 H4625 0.950 . S
C4645 C4641 1.385 . S
C4645 C4644 1.374 . S
C4646 C4643 1.499 . S
C4646 C4647 1.373 . S
C4646 C4648 1.389 . S
C4647 H4626 0.950 . S
C4647 C4646 1.373 . S
C4647 C4663 1.377 . S
C4648 C4646 1.389 . S
C4648 C4649 1.524 . S
C4648 C4662 1.377 . S
C4649 C4648 1.524 . S
C4649 C4650 1.397 . S
C4649 C4654 1.363 . S
C4650 H4627 0.950 . S
C4650 C4649 1.397 . S
C4650 C4651 1.334 . S
C4651 H4628 0.950 . S
C4651 C4650 1.334 . S
C4651 C4652 1.287 . S
C4652 C4651 1.287 . S
C4652 C4653 1.524 . S
C4652 H4671 0.913 . S
C4653 H4629 0.950 . S
C4653 C4652 1.524 . S
C4653 C4654 1.415 . S
C4654 H4630 0.950 . S
C4654 C4649 1.363 . S
C4654 C4653 1.415 . S
C4655 H4631 0.951 . S
C4655 C4656 1.366 . S
C4655 C4657 1.388 . S
C4656 C4655 1.366 . S
C4656 C4660 1.385 . S
C4657 H4632 0.951 . S
C4657 C4655 1.388 . S
C4657 C4658 1.366 . S
C4658 C4657 1.366 . S
C4658 C4659 1.414 . S
C4658 C4661 1.499 . S
C4659 H4633 0.950 . S
C4659 C4658 1.414 . S
C4659 C4660 1.374 . S
C4660 H4634 0.950 . S
C4660 C4656 1.385 . S
C4660 C4659 1.374 . S
C4661 C4658 1.499 . S
C4661 C4662 1.373 . S
C4661 C4663 1.389 . S
C4662 H4635 0.950 . S
C4662 C4648 1.377 . S
C4662 C4661 1.373 . S
C4663 C4647 1.377 . S
C4663 C4661 1.389 . S
C4663 C4664 1.524 . S
C4664 C4663 1.524 . S
C4664 C4665 1.397 . S
C4664 C4669 1.363 . S
C4665 H4636 0.950 . S
C4665 C4664 1.397 . S
C4665 C4666 1.334 . S
C4666 H4637 0.950 . S
C4666 C4665 1.334 . S
C4666 C4667 1.287 . S
C4667 C4666 1.287 . S
C4667 C4668 1.524 . S
C4667 H4670 0.999 . S
C4668 H4638 0.950 . S
C4668 C4667 1.524 . S
C4668 C4669 1.415 . S
C4669 H4639 0.950 . S
C4669 C4664 1.363 . S
C4669 C4668 1.415 . S
H4670 C4667 0.999 . S
H4671 C4652 0.913 . S
H4672 C4690 0.951 . S
H4673 C4692 0.951 . S
H4674 C4694 0.950 . S
H4675 C4695 0.950 . S
H4676 C4697 0.950 . S
H4677 C4700 0.950 . S
H4678 C4701 0.950 . S
H4679 C4703 0.950 . S
H4680 C4704 0.950 . S
H4681 C4705 0.951 . S
H4682 C4707 0.951 . S
H4683 C4709 0.950 . S
H4684 C4710 0.950 . S
H4685 C4712 0.950 . S
H4686 C4715 0.950 . S
H4687 C4716 0.950 . S
H4688 C4718 0.950 . S
H4689 C4719 0.950 . S
C4690 H4672 0.951 . S
C4690 C4691 1.366 . S
C4690 C4692 1.388 . S
C4691 C4690 1.366 . S
C4691 C4695 1.385 . S
C4692 H4673 0.951 . S
C4692 C4690 1.388 . S
C4692 C4693 1.366 . S
C4693 C4692 1.366 . S
C4693 C4694 1.414 . S
C4693 C4696 1.499 . S
C4694 H4674 0.950 . S
C4694 C4693 1.414 . S
C4694 C4695 1.374 . S
C4695 H4675 0.950 . S
C4695 C4691 1.385 . S
C4695 C4694 1.374 . S
C4696 C4693 1.499 . S
C4696 C4697 1.373 . S
C4696 C4698 1.389 . S
C4697 H4676 0.950 . S
C4697 C4696 1.373 . S
C4697 C4713 1.377 . S
C4698 C4696 1.389 . S
C4698 C4699 1.524 . S
C4698 C4712 1.377 . S
C4699 C4698 1.524 . S
C4699 C4700 1.397 . S
C4699 C4704 1.363 . S
C4700 H4677 0.950 . S
C4700 C4699 1.397 . S
C4700 C4701 1.334 . S
C4701 H4678 0.950 . S
C4701 C4700 1.334 . S
C4701 C4702 1.287 . S
C4702 C4701 1.287 . S
C4702 C4703 1.524 . S
C4702 H4721 0.913 . S
C4703 H4679 0.950 . S
C4703 C4702 1.524 . S
C4703 C4704 1.415 . S
C4704 H4680 0.950 . S
C4704 C4699 1.363 . S
C4704 C4703 1.415 . S
C4705 H4681 0.951 . S
C4705 C4706 1.366 . S
C4705 C4707 1.388 . S
C4706 C4705 1.366 . S
C4706 C4710 1.385 . S
C4707 H4682 0.951 . S
C4707 C4705 1.388 . S
C4707 C4708 1.366 . S
C4708 C4707 1.366 . S
C4708 C4709 1.414 . S
C4708 C4711 1.499 . S
C4709 H4683 0.950 . S
C4709 C4708 1.414 . S
C4709 C4710 1.374 . S
C4710 H4684 0.950 . S
C4710 C4706 1.385 . S
C4710 C4709 1.374 . S
C4711 C4708 1.499 . S
C4711 C4712 1.373 . S
C4711 C4713 1.389 . S
C4712 H4685 0.950 . S
C4712 C4698 1.377 . S
C4712 C4711 1.373 . S
C4713 C4697 1.377 . S
C4713 C4711 1.389 . S
C4713 C4714 1.524 . S
C4714 C4713 1.524 . S
C4714 C4715 1.397 . S
C4714 C4719 1.363 . S
C4715 H4686 0.950 . S
C4715 C4714 1.397 . S
C4715 C4716 1.334 . S
C4716 H4687 0.950 . S
C4716 C4715 1.334 . S
C4716 C4717 1.287 . S
C4717 C4716 1.287 . S
C4717 C4718 1.524 . S
C4717 H4720 0.999 . S
C4718 H4688 0.950 . S
C4718 C4717 1.524 . S
C4718 C4719 1.415 . S
C4719 H4689 0.950 . S
C4719 C4714 1.363 . S
C4719 C4718 1.415 . S
H4720 C4717 0.999 . S
H4721 C4702 0.913 . S
H4722 C4740 0.951 . S
H4723 C4742 0.951 . S
H4724 C4744 0.950 . S
H4725 C4745 0.950 . S
H4726 C4747 0.950 . S
H4727 C4750 0.950 . S
H4728 C4751 0.950 . S
H4729 C4753 0.950 . S
H4730 C4754 0.950 . S
H4731 C4755 0.951 . S
H4732 C4757 0.951 . S
H4733 C4759 0.950 . S
H4734 C4760 0.950 . S
H4735 C4762 0.950 . S
H4736 C4765 0.950 . S
H4737 C4766 0.950 . S
H4738 C4768 0.950 . S
H4739 C4769 0.950 . S
C4740 H4722 0.951 . S
C4740 C4741 1.366 . S
C4740 C4742 1.388 . S
C4741 C4740 1.366 . S
C4741 C4745 1.385 . S
C4742 H4723 0.951 . S
C4742 C4740 1.388 . S
C4742 C4743 1.366 . S
C4743 C4742 1.366 . S
C4743 C4744 1.414 . S
C4743 C4746 1.499 . S
C4744 H4724 0.950 . S
C4744 C4743 1.414 . S
C4744 C4745 1.374 . S
C4745 H4725 0.950 . S
C4745 C4741 1.385 . S
C4745 C4744 1.374 . S
C4746 C4743 1.499 . S
C4746 C4747 1.373 . S
C4746 C4748 1.389 . S
C4747 H4726 0.950 . S
C4747 C4746 1.373 . S
C4747 C4763 1.377 . S
C4748 C4746 1.389 . S
C4748 C4749 1.524 . S
C4748 C4762 1.377 . S
C4749 C4748 1.524 . S
C4749 C4750 1.397 . S
C4749 C4754 1.363 . S
C4750 H4727 0.950 . S
C4750 C4749 1.397 . S
C4750 C4751 1.334 . S
C4751 H4728 0.950 . S
C4751 C4750 1.334 . S
C4751 C4752 1.287 . S
C4752 C4751 1.287 . S
C4752 C4753 1.524 . S
C4752 H4771 0.913 . S
C4753 H4729 0.950 . S
C4753 C4752 1.524 . S
C4753 C4754 1.415 . S
C4754 H4730 0.950 . S
C4754 C4749 1.363 . S
C4754 C4753 1.415 . S
C4755 H4731 0.951 . S
C4755 C4756 1.366 . S
C4755 C4757 1.388 . S
C4756 C4755 1.366 . S
C4756 C4760 1.385 . S
C4757 H4732 0.951 . S
C4757 C4755 1.388 . S
C4757 C4758 1.366 . S
C4758 C4757 1.366 . S
C4758 C4759 1.414 . S
C4758 C4761 1.499 . S
C4759 H4733 0.950 . S
C4759 C4758 1.414 . S
C4759 C4760 1.374 . S
C4760 H4734 0.950 . S
C4760 C4756 1.385 . S
C4760 C4759 1.374 . S
C4761 C4758 1.499 . S
C4761 C4762 1.373 . S
C4761 C4763 1.389 . S
C4762 H4735 0.950 . S
C4762 C4748 1.377 . S
C4762 C4761 1.373 . S
C4763 C4747 1.377 . S
C4763 C4761 1.389 . S
C4763 C4764 1.524 . S
C4764 C4763 1.524 . S
C4764 C4765 1.397 . S
C4764 C4769 1.363 . S
C4765 H4736 0.950 . S
C4765 C4764 1.397 . S
C4765 C4766 1.334 . S
C4766 H4737 0.950 . S
C4766 C4765 1.334 . S
C4766 C4767 1.287 . S
C4767 C4766 1.287 . S
C4767 C4768 1.524 . S
C4767 H4770 0.999 . S
C4768 H4738 0.950 . S
C4768 C4767 1.524 . S
C4768 C4769 1.415 . S
C4769 H4739 0.950 . S
C4769 C4764 1.363 . S
C4769 C4768 1.415 . S
H4770 C4767 0.999 . S
H4771 C4752 0.913 . S
H4772 C4790 0.951 . S
H4773 C4792 0.951 . S
H4774 C4794 0.950 . S
H4775 C4795 0.950 . S
H4776 C4797 0.950 . S
H4777 C4800 0.950 . S
H4778 C4801 0.950 . S
H4779 C4803 0.950 . S
H4780 C4804 0.950 . S
H4781 C4805 0.951 . S
H4782 C4807 0.951 . S
H4783 C4809 0.950 . S
H4784 C4810 0.950 . S
H4785 C4812 0.950 . S
H4786 C4815 0.950 . S
H4787 C4816 0.950 . S
H4788 C4818 0.950 . S
H4789 C4819 0.950 . S
C4790 H4772 0.951 . S
C4790 C4791 1.366 . S
C4790 C4792 1.388 . S
C4791 C4790 1.366 . S
C4791 C4795 1.385 . S
C4792 H4773 0.951 . S
C4792 C4790 1.388 . S
C4792 C4793 1.366 . S
C4793 C4792 1.366 . S
C4793 C4794 1.414 . S
C4793 C4796 1.499 . S
C4794 H4774 0.950 . S
C4794 C4793 1.414 . S
C4794 C4795 1.374 . S
C4795 H4775 0.950 . S
C4795 C4791 1.385 . S
C4795 C4794 1.374 . S
C4796 C4793 1.499 . S
C4796 C4797 1.373 . S
C4796 C4798 1.389 . S
C4797 H4776 0.950 . S
C4797 C4796 1.373 . S
C4797 C4813 1.377 . S
C4798 C4796 1.389 . S
C4798 C4799 1.524 . S
C4798 C4812 1.377 . S
C4799 C4798 1.524 . S
C4799 C4800 1.397 . S
C4799 C4804 1.363 . S
C4800 H4777 0.950 . S
C4800 C4799 1.397 . S
C4800 C4801 1.334 . S
C4801 H4778 0.950 . S
C4801 C4800 1.334 . S
C4801 C4802 1.287 . S
C4802 C4801 1.287 . S
C4802 C4803 1.524 . S
C4802 H4821 0.913 . S
C4803 H4779 0.950 . S
C4803 C4802 1.524 . S
C4803 C4804 1.415 . S
C4804 H4780 0.950 . S
C4804 C4799 1.363 . S
C4804 C4803 1.415 . S
C4805 H4781 0.951 . S
C4805 C4806 1.366 . S
C4805 C4807 1.388 . S
C4806 C4805 1.366 . S
C4806 C4810 1.385 . S
C4807 H4782 0.951 . S
C4807 C4805 1.388 . S
C4807 C4808 1.366 . S
C4808 C4807 1.366 . S
C4808 C4809 1.414 . S
C4808 C4811 1.499 . S
C4809 H4783 0.950 . S
C4809 C4808 1.414 . S
C4809 C4810 1.374 . S
C4810 H4784 0.950 . S
C4810 C4806 1.385 . S
C4810 C4809 1.374 . S
C4811 C4808 1.499 . S
C4811 C4812 1.373 . S
C4811 C4813 1.389 . S
C4812 H4785 0.950 . S
C4812 C4798 1.377 . S
C4812 C4811 1.373 . S
C4813 C4797 1.377 . S
C4813 C4811 1.389 . S
C4813 C4814 1.524 . S
C4814 C4813 1.524 . S
C4814 C4815 1.397 . S
C4814 C4819 1.363 . S
C4815 H4786 0.950 . S
C4815 C4814 1.397 . S
C4815 C4816 1.334 . S
C4816 H4787 0.950 . S
C4816 C4815 1.334 . S
C4816 C4817 1.287 . S
C4817 C4816 1.287 . S
C4817 C4818 1.524 . S
C4817 H4820 0.999 . S
C4818 H4788 0.950 . S
C4818 C4817 1.524 . S
C4818 C4819 1.415 . S
C4819 H4789 0.950 . S
C4819 C4814 1.363 . S
C4819 C4818 1.415 . S
H4820 C4817 0.999 . S
H4821 C4802 0.913 . S
H4822 C4840 0.951 . S
H4823 C4842 0.951 . S
H4824 C4844 0.950 . S
H4825 C4845 0.950 . S
H4826 C4847 0.950 . S
H4827 C4850 0.950 . S
H4828 C4851 0.950 . S
H4829 C4853 0.950 . S
H4830 C4854 0.950 . S
H4831 C4855 0.951 . S
H4832 C4857 0.951 . S
H4833 C4859 0.950 . S
H4834 C4860 0.950 . S
H4835 C4862 0.950 . S
H4836 C4865 0.950 . S
H4837 C4866 0.950 . S
H4838 C4868 0.950 . S
H4839 C4869 0.950 . S
C4840 H4822 0.951 . S
C4840 C4841 1.366 . S
C4840 C4842 1.388 . S
C4841 C4840 1.366 . S
C4841 C4845 1.385 . S
C4842 H4823 0.951 . S
C4842 C4840 1.388 . S
C4842 C4843 1.366 . S
C4843 C4842 1.366 . S
C4843 C4844 1.414 . S
C4843 C4846 1.499 . S
C4844 H4824 0.950 . S
C4844 C4843 1.414 . S
C4844 C4845 1.374 . S
C4845 H4825 0.950 . S
C4845 C4841 1.385 . S
C4845 C4844 1.374 . S
C4846 C4843 1.499 . S
C4846 C4847 1.373 . S
C4846 C4848 1.389 . S
C4847 H4826 0.950 . S
C4847 C4846 1.373 . S
C4847 C4863 1.377 . S
C4848 C4846 1.389 . S
C4848 C4849 1.524 . S
C4848 C4862 1.377 . S
C4849 C4848 1.524 . S
C4849 C4850 1.397 . S
C4849 C4854 1.363 . S
C4850 H4827 0.950 . S
C4850 C4849 1.397 . S
C4850 C4851 1.334 . S
C4851 H4828 0.950 . S
C4851 C4850 1.334 . S
C4851 C4852 1.287 . S
C4852 C4851 1.287 . S
C4852 C4853 1.524 . S
C4852 H4871 0.913 . S
C4853 H4829 0.950 . S
C4853 C4852 1.524 . S
C4853 C4854 1.415 . S
C4854 H4830 0.950 . S
C4854 C4849 1.363 . S
C4854 C4853 1.415 . S
C4855 H4831 0.951 . S
C4855 C4856 1.366 . S
C4855 C4857 1.388 . S
C4856 C4855 1.366 . S
C4856 C4860 1.385 . S
C4857 H4832 0.951 . S
C4857 C4855 1.388 . S
C4857 C4858 1.366 . S
C4858 C4857 1.366 . S
C4858 C4859 1.414 . S
C4858 C4861 1.499 . S
C4859 H4833 0.950 . S
C4859 C4858 1.414 . S
C4859 C4860 1.374 . S
C4860 H4834 0.950 . S
C4860 C4856 1.385 . S
C4860 C4859 1.374 . S
C4861 C4858 1.499 . S
C4861 C4862 1.373 . S
C4861 C4863 1.389 . S
C4862 H4835 0.950 . S
C4862 C4848 1.377 . S
C4862 C4861 1.373 . S
C4863 C4847 1.377 . S
C4863 C4861 1.389 . S
C4863 C4864 1.524 . S
C4864 C4863 1.524 . S
C4864 C4865 1.397 . S
C4864 C4869 1.363 . S
C4865 H4836 0.950 . S
C4865 C4864 1.397 . S
C4865 C4866 1.334 . S
C4866 H4837 0.950 . S
C4866 C4865 1.334 . S
C4866 C4867 1.287 . S
C4867 C4866 1.287 . S
C4867 C4868 1.524 . S
C4867 H4870 0.999 . S
C4868 H4838 0.950 . S
C4868 C4867 1.524 . S
C4868 C4869 1.415 . S
C4869 H4839 0.950 . S
C4869 C4864 1.363 . S
C4869 C4868 1.415 . S
H4870 C4867 0.999 . S
H4871 C4852 0.913 . S
H4872 C4890 0.951 . S
H4873 C4892 0.951 . S
H4874 C4894 0.950 . S
H4875 C4895 0.950 . S
H4876 C4897 0.950 . S
H4877 C4900 0.950 . S
H4878 C4901 0.950 . S
H4879 C4903 0.950 . S
H4880 C4904 0.950 . S
H4881 C4905 0.951 . S
H4882 C4907 0.951 . S
H4883 C4909 0.950 . S
H4884 C4910 0.950 . S
H4885 C4912 0.950 . S
H4886 C4915 0.950 . S
H4887 C4916 0.950 . S
H4888 C4918 0.950 . S
H4889 C4919 0.950 . S
C4890 H4872 0.951 . S
C4890 C4891 1.366 . S
C4890 C4892 1.388 . S
C4891 C4890 1.366 . S
C4891 C4895 1.385 . S
C4892 H4873 0.951 . S
C4892 C4890 1.388 . S
C4892 C4893 1.366 . S
C4893 C4892 1.366 . S
C4893 C4894 1.414 . S
C4893 C4896 1.499 . S
C4894 H4874 0.950 . S
C4894 C4893 1.414 . S
C4894 C4895 1.374 . S
C4895 H4875 0.950 . S
C4895 C4891 1.385 . S
C4895 C4894 1.374 . S
C4896 C4893 1.499 . S
C4896 C4897 1.373 . S
C4896 C4898 1.389 . S
C4897 H4876 0.950 . S
C4897 C4896 1.373 . S
C4897 C4913 1.377 . S
C4898 C4896 1.389 . S
C4898 C4899 1.524 . S
C4898 C4912 1.377 . S
C4899 C4898 1.524 . S
C4899 C4900 1.397 . S
C4899 C4904 1.363 . S
C4900 H4877 0.950 . S
C4900 C4899 1.397 . S
C4900 C4901 1.334 . S
C4901 H4878 0.950 . S
C4901 C4900 1.334 . S
C4901 C4902 1.287 . S
C4902 C4901 1.287 . S
C4902 C4903 1.524 . S
C4902 H4921 0.913 . S
C4903 H4879 0.950 . S
C4903 C4902 1.524 . S
C4903 C4904 1.415 . S
C4904 H4880 0.950 . S
C4904 C4899 1.363 . S
C4904 C4903 1.415 . S
C4905 H4881 0.951 . S
C4905 C4906 1.366 . S
C4905 C4907 1.388 . S
C4906 C4905 1.366 . S
C4906 C4910 1.385 . S
C4907 H4882 0.951 . S
C4907 C4905 1.388 . S
C4907 C4908 1.366 . S
C4908 C4907 1.366 . S
C4908 C4909 1.414 . S
C4908 C4911 1.499 . S
C4909 H4883 0.950 . S
C4909 C4908 1.414 . S
C4909 C4910 1.374 . S
C4910 H4884 0.950 . S
C4910 C4906 1.385 . S
C4910 C4909 1.374 . S
C4911 C4908 1.499 . S
C4911 C4912 1.373 . S
C4911 C4913 1.389 . S
C4912 H4885 0.950 . S
C4912 C4898 1.377 . S
C4912 C4911 1.373 . S
C4913 C4897 1.377 . S
C4913 C4911 1.389 . S
C4913 C4914 1.524 . S
C4914 C4913 1.524 . S
C4914 C4915 1.397 . S
C4914 C4919 1.363 . S
C4915 H4886 0.950 . S
C4915 C4914 1.397 . S
C4915 C4916 1.334 . S
C4916 H4887 0.950 . S
C4916 C4915 1.334 . S
C4916 C4917 1.287 . S
C4917 C4916 1.287 . S
C4917 C4918 1.524 . S
C4917 H4920 0.999 . S
C4918 H4888 0.950 . S
C4918 C4917 1.524 . S
C4918 C4919 1.415 . S
C4919 H4889 0.950 . S
C4919 C4914 1.363 . S
C4919 C4918 1.415 . S
H4920 C4917 0.999 . S
H4921 C4902 0.913 . S
H4922 C4940 0.951 . S
H4923 C4942 0.951 . S
H4924 C4944 0.950 . S
H4925 C4945 0.950 . S
H4926 C4947 0.950 . S
H4927 C4950 0.950 . S
H4928 C4951 0.950 . S
H4929 C4953 0.950 . S
H4930 C4954 0.950 . S
H4931 C4955 0.951 . S
H4932 C4957 0.951 . S
H4933 C4959 0.950 . S
H4934 C4960 0.950 . S
H4935 C4962 0.950 . S
H4936 C4965 0.950 . S
H4937 C4966 0.950 . S
H4938 C4968 0.950 . S
H4939 C4969 0.950 . S
C4940 H4922 0.951 . S
C4940 C4941 1.366 . S
C4940 C4942 1.388 . S
C4941 C4940 1.366 . S
C4941 C4945 1.385 . S
C4942 H4923 0.951 . S
C4942 C4940 1.388 . S
C4942 C4943 1.366 . S
C4943 C4942 1.366 . S
C4943 C4944 1.414 . S
C4943 C4946 1.499 . S
C4944 H4924 0.950 . S
C4944 C4943 1.414 . S
C4944 C4945 1.374 . S
C4945 H4925 0.950 . S
C4945 C4941 1.385 . S
C4945 C4944 1.374 . S
C4946 C4943 1.499 . S
C4946 C4947 1.373 . S
C4946 C4948 1.389 . S
C4947 H4926 0.950 . S
C4947 C4946 1.373 . S
C4947 C4963 1.377 . S
C4948 C4946 1.389 . S
C4948 C4949 1.524 . S
C4948 C4962 1.377 . S
C4949 C4948 1.524 . S
C4949 C4950 1.397 . S
C4949 C4954 1.363 . S
C4950 H4927 0.950 . S
C4950 C4949 1.397 . S
C4950 C4951 1.334 . S
C4951 H4928 0.950 . S
C4951 C4950 1.334 . S
C4951 C4952 1.287 . S
C4952 C4951 1.287 . S
C4952 C4953 1.524 . S
C4952 H4971 0.913 . S
C4953 H4929 0.950 . S
C4953 C4952 1.524 . S
C4953 C4954 1.415 . S
C4954 H4930 0.950 . S
C4954 C4949 1.363 . S
C4954 C4953 1.415 . S
C4955 H4931 0.951 . S
C4955 C4956 1.366 . S
C4955 C4957 1.388 . S
C4956 C4955 1.366 . S
C4956 C4960 1.385 . S
C4957 H4932 0.951 . S
C4957 C4955 1.388 . S
C4957 C4958 1.366 . S
C4958 C4957 1.366 . S
C4958 C4959 1.414 . S
C4958 C4961 1.499 . S
C4959 H4933 0.950 . S
C4959 C4958 1.414 . S
C4959 C4960 1.374 . S
C4960 H4934 0.950 . S
C4960 C4956 1.385 . S
C4960 C4959 1.374 . S
C4961 C4958 1.499 . S
C4961 C4962 1.373 . S
C4961 C4963 1.389 . S
C4962 H4935 0.950 . S
C4962 C4948 1.377 . S
C4962 C4961 1.373 . S
C4963 C4947 1.377 . S
C4963 C4961 1.389 . S
C4963 C4964 1.524 . S
C4964 C4963 1.524 . S
C4964 C4965 1.397 . S
C4964 C4969 1.363 . S
C4965 H4936 0.950 . S
C4965 C4964 1.397 . S
C4965 C4966 1.334 . S
C4966 H4937 0.950 . S
C4966 C4965 1.334 . S
C4966 C4967 1.287 . S
C4967 C4966 1.287 . S
C4967 C4968 1.524 . S
C4967 H4970 0.999 . S
C4968 H4938 0.950 . S
C4968 C4967 1.524 . S
C4968 C4969 1.415 . S
C4969 H4939 0.950 . S
C4969 C4964 1.363 . S
C4969 C4968 1.415 . S
H4970 C4967 0.999 . S
H4971 C4952 0.913 . S
H4972 C4990 0.951 . S
H4973 C4992 0.951 . S
H4974 C4994 0.950 . S
H4975 C4995 0.950 . S
H4976 C4997 0.950 . S
H4977 C5000 0.950 . S
H4978 C5001 0.950 . S
H4979 C5003 0.950 . S
H4980 C5004 0.950 . S
H4981 C5005 0.951 . S
H4982 C5007 0.951 . S
H4983 C5009 0.950 . S
H4984 C5010 0.950 . S
H4985 C5012 0.950 . S
H4986 C5015 0.950 . S
H4987 C5016 0.950 . S
H4988 C5018 0.950 . S
H4989 C5019 0.950 . S
C4990 H4972 0.951 . S
C4990 C4991 1.366 . S
C4990 C4992 1.388 . S
C4991 C4990 1.366 . S
C4991 C4995 1.385 . S
C4992 H4973 0.951 . S
C4992 C4990 1.388 . S
C4992 C4993 1.366 . S
C4993 C4992 1.366 . S
C4993 C4994 1.414 . S
C4993 C4996 1.499 . S
C4994 H4974 0.950 . S
C4994 C4993 1.414 . S
C4994 C4995 1.374 . S
C4995 H4975 0.950 . S
C4995 C4991 1.385 . S
C4995 C4994 1.374 . S
C4996 C4993 1.499 . S
C4996 C4997 1.373 . S
C4996 C4998 1.389 . S
C4997 H4976 0.950 . S
C4997 C4996 1.373 . S
C4997 C5013 1.377 . S
C4998 C4996 1.389 . S
C4998 C4999 1.524 . S
C4998 C5012 1.377 . S
C4999 C4998 1.524 . S
C4999 C5000 1.397 . S
C4999 C5004 1.363 . S
C5000 H4977 0.950 . S
C5000 C4999 1.397 . S
C5000 C5001 1.334 . S
C5001 H4978 0.950 . S
C5001 C5000 1.334 . S
C5001 C5002 1.287 . S
C5002 C5001 1.287 . S
C5002 C5003 1.524 . S
C5002 H5021 0.913 . S
C5003 H4979 0.950 . S
C5003 C5002 1.524 . S
C5003 C5004 1.415 . S
C5004 H4980 0.950 . S
C5004 C4999 1.363 . S
C5004 C5003 1.415 . S
C5005 H4981 0.951 . S
C5005 C5006 1.366 . S
C5005 C5007 1.388 . S
C5006 C5005 1.366 . S
C5006 C5010 1.385 . S
C5007 H4982 0.951 . S
C5007 C5005 1.388 . S
C5007 C5008 1.366 . S
C5008 C5007 1.366 . S
C5008 C5009 1.414 . S
C5008 C5011 1.499 . S
C5009 H4983 0.950 . S
C5009 C5008 1.414 . S
C5009 C5010 1.374 . S
C5010 H4984 0.950 . S
C5010 C5006 1.385 . S
C5010 C5009 1.374 . S
C5011 C5008 1.499 . S
C5011 C5012 1.373 . S
C5011 C5013 1.389 . S
C5012 H4985 0.950 . S
C5012 C4998 1.377 . S
C5012 C5011 1.373 . S
C5013 C4997 1.377 . S
C5013 C5011 1.389 . S
C5013 C5014 1.524 . S
C5014 C5013 1.524 . S
C5014 C5015 1.397 . S
C5014 C5019 1.363 . S
C5015 H4986 0.950 . S
C5015 C5014 1.397 . S
C5015 C5016 1.334 . S
C5016 H4987 0.950 . S
C5016 C5015 1.334 . S
C5016 C5017 1.287 . S
C5017 C5016 1.287 . S
C5017 C5018 1.524 . S
C5017 H5020 0.999 . S
C5018 H4988 0.950 . S
C5018 C5017 1.524 . S
C5018 C5019 1.415 . S
C5019 H4989 0.950 . S
C5019 C5014 1.363 . S
C5019 C5018 1.415 . S
H5020 C5017 0.999 . S
H5021 C5002 0.913 . S
H5022 C5040 0.951 . S
H5023 C5042 0.951 . S
H5024 C5044 0.950 . S
H5025 C5045 0.950 . S
H5026 C5047 0.950 . S
H5027 C5050 0.950 . S
H5028 C5051 0.950 . S
H5029 C5053 0.950 . S
H5030 C5054 0.950 . S
H5031 C5055 0.951 . S
H5032 C5057 0.951 . S
H5033 C5059 0.950 . S
H5034 C5060 0.950 . S
H5035 C5062 0.950 . S
H5036 C5065 0.950 . S
H5037 C5066 0.950 . S
H5038 C5068 0.950 . S
H5039 C5069 0.950 . S
C5040 H5022 0.951 . S
C5040 C5041 1.366 . S
C5040 C5042 1.388 . S
C5041 C5040 1.366 . S
C5041 C5045 1.385 . S
C5042 H5023 0.951 . S
C5042 C5040 1.388 . S
C5042 C5043 1.366 . S
C5043 C5042 1.366 . S
C5043 C5044 1.414 . S
C5043 C5046 1.499 . S
C5044 H5024 0.950 . S
C5044 C5043 1.414 . S
C5044 C5045 1.374 . S
C5045 H5025 0.950 . S
C5045 C5041 1.385 . S
C5045 C5044 1.374 . S
C5046 C5043 1.499 . S
C5046 C5047 1.373 . S
C5046 C5048 1.389 . S
C5047 H5026 0.950 . S
C5047 C5046 1.373 . S
C5047 C5063 1.377 . S
C5048 C5046 1.389 . S
C5048 C5049 1.524 . S
C5048 C5062 1.377 . S
C5049 C5048 1.524 . S
C5049 C5050 1.397 . S
C5049 C5054 1.363 . S
C5050 H5027 0.950 . S
C5050 C5049 1.397 . S
C5050 C5051 1.334 . S
C5051 H5028 0.950 . S
C5051 C5050 1.334 . S
C5051 C5052 1.287 . S
C5052 C5051 1.287 . S
C5052 C5053 1.524 . S
C5052 H5071 0.913 . S
C5053 H5029 0.950 . S
C5053 C5052 1.524 . S
C5053 C5054 1.415 . S
C5054 H5030 0.950 . S
C5054 C5049 1.363 . S
C5054 C5053 1.415 . S
C5055 H5031 0.951 . S
C5055 C5056 1.366 . S
C5055 C5057 1.388 . S
C5056 C5055 1.366 . S
C5056 C5060 1.385 . S
C5057 H5032 0.951 . S
C5057 C5055 1.388 . S
C5057 C5058 1.366 . S
C5058 C5057 1.366 . S
C5058 C5059 1.414 . S
C5058 C5061 1.499 . S
C5059 H5033 0.950 . S
C5059 C5058 1.414 . S
C5059 C5060 1.374 . S
C5060 H5034 0.950 . S
C5060 C5056 1.385 . S
C5060 C5059 1.374 . S
C5061 C5058 1.499 . S
C5061 C5062 1.373 . S
C5061 C5063 1.389 . S
C5062 H5035 0.950 . S
C5062 C5048 1.377 . S
C5062 C5061 1.373 . S
C5063 C5047 1.377 . S
C5063 C5061 1.389 . S
C5063 C5064 1.524 . S
C5064 C5063 1.524 . S
C5064 C5065 1.397 . S
C5064 C5069 1.363 . S
C5065 H5036 0.950 . S
C5065 C5064 1.397 . S
C5065 C5066 1.334 . S
C5066 H5037 0.950 . S
C5066 C5065 1.334 . S
C5066 C5067 1.287 . S
C5067 C5066 1.287 . S
C5067 C5068 1.524 . S
C5067 H5070 0.999 . S
C5068 H5038 0.950 . S
C5068 C5067 1.524 . S
C5068 C5069 1.415 . S
C5069 H5039 0.950 . S
C5069 C5064 1.363 . S
C5069 C5068 1.415 . S
H5070 C5067 0.999 . S
H5071 C5052 0.913 . S
H5072 C5090 0.951 . S
H5073 C5092 0.951 . S
H5074 C5094 0.950 . S
H5075 C5095 0.950 . S
H5076 C5097 0.950 . S
H5077 C5100 0.950 . S
H5078 C5101 0.950 . S
H5079 C5103 0.950 . S
H5080 C5104 0.950 . S
H5081 C5105 0.951 . S
H5082 C5107 0.951 . S
H5083 C5109 0.950 . S
H5084 C5110 0.950 . S
H5085 C5112 0.950 . S
H5086 C5115 0.950 . S
H5087 C5116 0.950 . S
H5088 C5118 0.950 . S
H5089 C5119 0.950 . S
C5090 H5072 0.951 . S
C5090 C5091 1.366 . S
C5090 C5092 1.388 . S
C5091 C5090 1.366 . S
C5091 C5095 1.385 . S
C5092 H5073 0.951 . S
C5092 C5090 1.388 . S
C5092 C5093 1.366 . S
C5093 C5092 1.366 . S
C5093 C5094 1.414 . S
C5093 C5096 1.499 . S
C5094 H5074 0.950 . S
C5094 C5093 1.414 . S
C5094 C5095 1.374 . S
C5095 H5075 0.950 . S
C5095 C5091 1.385 . S
C5095 C5094 1.374 . S
C5096 C5093 1.499 . S
C5096 C5097 1.373 . S
C5096 C5098 1.389 . S
C5097 H5076 0.950 . S
C5097 C5096 1.373 . S
C5097 C5113 1.377 . S
C5098 C5096 1.389 . S
C5098 C5099 1.524 . S
C5098 C5112 1.377 . S
C5099 C5098 1.524 . S
C5099 C5100 1.397 . S
C5099 C5104 1.363 . S
C5100 H5077 0.950 . S
C5100 C5099 1.397 . S
C5100 C5101 1.334 . S
C5101 H5078 0.950 . S
C5101 C5100 1.334 . S
C5101 C5102 1.287 . S
C5102 C5101 1.287 . S
C5102 C5103 1.524 . S
C5102 H5121 0.913 . S
C5103 H5079 0.950 . S
C5103 C5102 1.524 . S
C5103 C5104 1.415 . S
C5104 H5080 0.950 . S
C5104 C5099 1.363 . S
C5104 C5103 1.415 . S
C5105 H5081 0.951 . S
C5105 C5106 1.366 . S
C5105 C5107 1.388 . S
C5106 C5105 1.366 . S
C5106 C5110 1.385 . S
C5107 H5082 0.951 . S
C5107 C5105 1.388 . S
C5107 C5108 1.366 . S
C5108 C5107 1.366 . S
C5108 C5109 1.414 . S
C5108 C5111 1.499 . S
C5109 H5083 0.950 . S
C5109 C5108 1.414 . S
C5109 C5110 1.374 . S
C5110 H5084 0.950 . S
C5110 C5106 1.385 . S
C5110 C5109 1.374 . S
C5111 C5108 1.499 . S
C5111 C5112 1.373 . S
C5111 C5113 1.389 . S
C5112 H5085 0.950 . S
C5112 C5098 1.377 . S
C5112 C5111 1.373 . S
C5113 C5097 1.377 . S
C5113 C5111 1.389 . S
C5113 C5114 1.524 . S
C5114 C5113 1.524 . S
C5114 C5115 1.397 . S
C5114 C5119 1.363 . S
C5115 H5086 0.950 . S
C5115 C5114 1.397 . S
C5115 C5116 1.334 . S
C5116 H5087 0.950 . S
C5116 C5115 1.334 . S
C5116 C5117 1.287 . S
C5117 C5116 1.287 . S
C5117 C5118 1.524 . S
C5117 H5120 0.999 . S
C5118 H5088 0.950 . S
C5118 C5117 1.524 . S
C5118 C5119 1.415 . S
C5119 H5089 0.950 . S
C5119 C5114 1.363 . S
C5119 C5118 1.415 . S
H5120 C5117 0.999 . S
H5121 C5102 0.913 . S
H5122 C5140 0.951 . S
H5123 C5142 0.951 . S
H5124 C5144 0.950 . S
H5125 C5145 0.950 . S
H5126 C5147 0.950 . S
H5127 C5150 0.950 . S
H5128 C5151 0.950 . S
H5129 C5153 0.950 . S
H5130 C5154 0.950 . S
H5131 C5155 0.951 . S
H5132 C5157 0.951 . S
H5133 C5159 0.950 . S
H5134 C5160 0.950 . S
H5135 C5162 0.950 . S
H5136 C5165 0.950 . S
H5137 C5166 0.950 . S
H5138 C5168 0.950 . S
H5139 C5169 0.950 . S
C5140 H5122 0.951 . S
C5140 C5141 1.366 . S
C5140 C5142 1.388 . S
C5141 C5140 1.366 . S
C5141 C5145 1.385 . S
C5142 H5123 0.951 . S
C5142 C5140 1.388 . S
C5142 C5143 1.366 . S
C5143 C5142 1.366 . S
C5143 C5144 1.414 . S
C5143 C5146 1.499 . S
C5144 H5124 0.950 . S
C5144 C5143 1.414 . S
C5144 C5145 1.374 . S
C5145 H5125 0.950 . S
C5145 C5141 1.385 . S
C5145 C5144 1.374 . S
C5146 C5143 1.499 . S
C5146 C5147 1.373 . S
C5146 C5148 1.389 . S
C5147 H5126 0.950 . S
C5147 C5146 1.373 . S
C5147 C5163 1.377 . S
C5148 C5146 1.389 . S
C5148 C5149 1.524 . S
C5148 C5162 1.377 . S
C5149 C5148 1.524 . S
C5149 C5150 1.397 . S
C5149 C5154 1.363 . S
C5150 H5127 0.950 . S
C5150 C5149 1.397 . S
C5150 C5151 1.334 . S
C5151 H5128 0.950 . S
C5151 C5150 1.334 . S
C5151 C5152 1.287 . S
C5152 C5151 1.287 . S
C5152 C5153 1.524 . S
C5152 H5171 0.913 . S
C5153 H5129 0.950 . S
C5153 C5152 1.524 . S
C5153 C5154 1.415 . S
C5154 H5130 0.950 . S
C5154 C5149 1.363 . S
C5154 C5153 1.415 . S
C5155 H5131 0.951 . S
C5155 C5156 1.366 . S
C5155 C5157 1.388 . S
C5156 C5155 1.366 . S
C5156 C5160 1.385 . S
C5157 H5132 0.951 . S
C5157 C5155 1.388 . S
C5157 C5158 1.366 . S
C5158 C5157 1.366 . S
C5158 C5159 1.414 . S
C5158 C5161 1.499 . S
C5159 H5133 0.950 . S
C5159 C5158 1.414 . S
C5159 C5160 1.374 . S
C5160 H5134 0.950 . S
C5160 C5156 1.385 . S
C5160 C5159 1.374 . S
C5161 C5158 1.499 . S
C5161 C5162 1.373 . S
C5161 C5163 1.389 . S
C5162 H5135 0.950 . S
C5162 C5148 1.377 . S
C5162 C5161 1.373 . S
C5163 C5147 1.377 . S
C5163 C5161 1.389 . S
C5163 C5164 1.524 . S
C5164 C5163 1.524 . S
C5164 C5165 1.397 . S
C5164 C5169 1.363 . S
C5165 H5136 0.950 . S
C5165 C5164 1.397 . S
C5165 C5166 1.334 . S
C5166 H5137 0.950 . S
C5166 C5165 1.334 . S
C5166 C5167 1.287 . S
C5167 C5166 1.287 . S
C5167 C5168 1.524 . S
C5167 H5170 0.999 . S
C5168 H5138 0.950 . S
C5168 C5167 1.524 . S
C5168 C5169 1.415 . S
C5169 H5139 0.950 . S
C5169 C5164 1.363 . S
C5169 C5168 1.415 . S
H5170 C5167 0.999 . S
H5171 C5152 0.913 . S
H5172 C5190 0.951 . S
H5173 C5192 0.951 . S
H5174 C5194 0.950 . S
H5175 C5195 0.950 . S
H5176 C5197 0.950 . S
H5177 C5200 0.950 . S
H5178 C5201 0.950 . S
H5179 C5203 0.950 . S
H5180 C5204 0.950 . S
H5181 C5205 0.951 . S
H5182 C5207 0.951 . S
H5183 C5209 0.950 . S
H5184 C5210 0.950 . S
H5185 C5212 0.950 . S
H5186 C5215 0.950 . S
H5187 C5216 0.950 . S
H5188 C5218 0.950 . S
H5189 C5219 0.950 . S
C5190 H5172 0.951 . S
C5190 C5191 1.366 . S
C5190 C5192 1.388 . S
C5191 C5190 1.366 . S
C5191 C5195 1.385 . S
C5192 H5173 0.951 . S
C5192 C5190 1.388 . S
C5192 C5193 1.366 . S
C5193 C5192 1.366 . S
C5193 C5194 1.414 . S
C5193 C5196 1.499 . S
C5194 H5174 0.950 . S
C5194 C5193 1.414 . S
C5194 C5195 1.374 . S
C5195 H5175 0.950 . S
C5195 C5191 1.385 . S
C5195 C5194 1.374 . S
C5196 C5193 1.499 . S
C5196 C5197 1.373 . S
C5196 C5198 1.389 . S
C5197 H5176 0.950 . S
C5197 C5196 1.373 . S
C5197 C5213 1.377 . S
C5198 C5196 1.389 . S
C5198 C5199 1.524 . S
C5198 C5212 1.377 . S
C5199 C5198 1.524 . S
C5199 C5200 1.397 . S
C5199 C5204 1.363 . S
C5200 H5177 0.950 . S
C5200 C5199 1.397 . S
C5200 C5201 1.334 . S
C5201 H5178 0.950 . S
C5201 C5200 1.334 . S
C5201 C5202 1.287 . S
C5202 C5201 1.287 . S
C5202 C5203 1.524 . S
C5202 H5221 0.913 . S
C5203 H5179 0.950 . S
C5203 C5202 1.524 . S
C5203 C5204 1.415 . S
C5204 H5180 0.950 . S
C5204 C5199 1.363 . S
C5204 C5203 1.415 . S
C5205 H5181 0.951 . S
C5205 C5206 1.366 . S
C5205 C5207 1.388 . S
C5206 C5205 1.366 . S
C5206 C5210 1.385 . S
C5207 H5182 0.951 . S
C5207 C5205 1.388 . S
C5207 C5208 1.366 . S
C5208 C5207 1.366 . S
C5208 C5209 1.414 . S
C5208 C5211 1.499 . S
C5209 H5183 0.950 . S
C5209 C5208 1.414 . S
C5209 C5210 1.374 . S
C5210 H5184 0.950 . S
C5210 C5206 1.385 . S
C5210 C5209 1.374 . S
C5211 C5208 1.499 . S
C5211 C5212 1.373 . S
C5211 C5213 1.389 . S
C5212 H5185 0.950 . S
C5212 C5198 1.377 . S
C5212 C5211 1.373 . S
C5213 C5197 1.377 . S
C5213 C5211 1.389 . S
C5213 C5214 1.524 . S
C5214 C5213 1.524 . S
C5214 C5215 1.397 . S
C5214 C5219 1.363 . S
C5215 H5186 0.950 . S
C5215 C5214 1.397 . S
C5215 C5216 1.334 . S
C5216 H5187 0.950 . S
C5216 C5215 1.334 . S
C5216 C5217 1.287 . S
C5217 C5216 1.287 . S
C5217 C5218 1.524 . S
C5217 H5220 0.999 . S
C5218 H5188 0.950 . S
C5218 C5217 1.524 . S
C5218 C5219 1.415 . S
C5219 H5189 0.950 . S
C5219 C5214 1.363 . S
C5219 C5218 1.415 . S
H5220 C5217 0.999 . S
H5221 C5202 0.913 . S
H5222 C5240 0.951 . S
H5223 C5242 0.951 . S
H5224 C5244 0.950 . S
H5225 C5245 0.950 . S
H5226 C5247 0.950 . S
H5227 C5250 0.950 . S
H5228 C5251 0.950 . S
H5229 C5253 0.950 . S
H5230 C5254 0.950 . S
H5231 C5255 0.951 . S
H5232 C5257 0.951 . S
H5233 C5259 0.950 . S
H5234 C5260 0.950 . S
H5235 C5262 0.950 . S
H5236 C5265 0.950 . S
H5237 C5266 0.950 . S
H5238 C5268 0.950 . S
H5239 C5269 0.950 . S
C5240 H5222 0.951 . S
C5240 C5241 1.366 . S
C5240 C5242 1.388 . S
C5241 C5240 1.366 . S
C5241 C5245 1.385 . S
C5242 H5223 0.951 . S
C5242 C5240 1.388 . S
C5242 C5243 1.366 . S
C5243 C5242 1.366 . S
C5243 C5244 1.414 . S
C5243 C5246 1.499 . S
C5244 H5224 0.950 . S
C5244 C5243 1.414 . S
C5244 C5245 1.374 . S
C5245 H5225 0.950 . S
C5245 C5241 1.385 . S
C5245 C5244 1.374 . S
C5246 C5243 1.499 . S
C5246 C5247 1.373 . S
C5246 C5248 1.389 . S
C5247 H5226 0.950 . S
C5247 C5246 1.373 . S
C5247 C5263 1.377 . S
C5248 C5246 1.389 . S
C5248 C5249 1.524 . S
C5248 C5262 1.377 . S
C5249 C5248 1.524 . S
C5249 C5250 1.397 . S
C5249 C5254 1.363 . S
C5250 H5227 0.950 . S
C5250 C5249 1.397 . S
C5250 C5251 1.334 . S
C5251 H5228 0.950 . S
C5251 C5250 1.334 . S
C5251 C5252 1.287 . S
C5252 C5251 1.287 . S
C5252 C5253 1.524 . S
C5252 H5271 0.913 . S
C5253 H5229 0.950 . S
C5253 C5252 1.524 . S
C5253 C5254 1.415 . S
C5254 H5230 0.950 . S
C5254 C5249 1.363 . S
C5254 C5253 1.415 . S
C5255 H5231 0.951 . S
C5255 C5256 1.366 . S
C5255 C5257 1.388 . S
C5256 C5255 1.366 . S
C5256 C5260 1.385 . S
C5257 H5232 0.951 . S
C5257 C5255 1.388 . S
C5257 C5258 1.366 . S
C5258 C5257 1.366 . S
C5258 C5259 1.414 . S
C5258 C5261 1.499 . S
C5259 H5233 0.950 . S
C5259 C5258 1.414 . S
C5259 C5260 1.374 . S
C5260 H5234 0.950 . S
C5260 C5256 1.385 . S
C5260 C5259 1.374 . S
C5261 C5258 1.499 . S
C5261 C5262 1.373 . S
C5261 C5263 1.389 . S
C5262 H5235 0.950 . S
C5262 C5248 1.377 . S
C5262 C5261 1.373 . S
C5263 C5247 1.377 . S
C5263 C5261 1.389 . S
C5263 C5264 1.524 . S
C5264 C5263 1.524 . S
C5264 C5265 1.397 . S
C5264 C5269 1.363 . S
C5265 H5236 0.950 . S
C5265 C5264 1.397 . S
C5265 C5266 1.334 . S
C5266 H5237 0.950 . S
C5266 C5265 1.334 . S
C5266 C5267 1.287 . S
C5267 C5266 1.287 . S
C5267 C5268 1.524 . S
C5267 H5270 0.999 . S
C5268 H5238 0.950 . S
C5268 C5267 1.524 . S
C5268 C5269 1.415 . S
C5269 H5239 0.950 . S
C5269 C5264 1.363 . S
C5269 C5268 1.415 . S
H5270 C5267 0.999 . S
H5271 C5252 0.913 . S
H5272 C5290 0.951 . S
H5273 C5292 0.951 . S
H5274 C5294 0.950 . S
H5275 C5295 0.950 . S
H5276 C5297 0.950 . S
H5277 C5300 0.950 . S
H5278 C5301 0.950 . S
H5279 C5303 0.950 . S
H5280 C5304 0.950 . S
H5281 C5305 0.951 . S
H5282 C5307 0.951 . S
H5283 C5309 0.950 . S
H5284 C5310 0.950 . S
H5285 C5312 0.950 . S
H5286 C5315 0.950 . S
H5287 C5316 0.950 . S
H5288 C5318 0.950 . S
H5289 C5319 0.950 . S
C5290 H5272 0.951 . S
C5290 C5291 1.366 . S
C5290 C5292 1.388 . S
C5291 C5290 1.366 . S
C5291 C5295 1.385 . S
C5292 H5273 0.951 . S
C5292 C5290 1.388 . S
C5292 C5293 1.366 . S
C5293 C5292 1.366 . S
C5293 C5294 1.414 . S
C5293 C5296 1.499 . S
C5294 H5274 0.950 . S
C5294 C5293 1.414 . S
C5294 C5295 1.374 . S
C5295 H5275 0.950 . S
C5295 C5291 1.385 . S
C5295 C5294 1.374 . S
C5296 C5293 1.499 . S
C5296 C5297 1.373 . S
C5296 C5298 1.389 . S
C5297 H5276 0.950 . S
C5297 C5296 1.373 . S
C5297 C5313 1.377 . S
C5298 C5296 1.389 . S
C5298 C5299 1.524 . S
C5298 C5312 1.377 . S
C5299 C5298 1.524 . S
C5299 C5300 1.397 . S
C5299 C5304 1.363 . S
C5300 H5277 0.950 . S
C5300 C5299 1.397 . S
C5300 C5301 1.334 . S
C5301 H5278 0.950 . S
C5301 C5300 1.334 . S
C5301 C5302 1.287 . S
C5302 C5301 1.287 . S
C5302 C5303 1.524 . S
C5302 H5321 0.913 . S
C5303 H5279 0.950 . S
C5303 C5302 1.524 . S
C5303 C5304 1.415 . S
C5304 H5280 0.950 . S
C5304 C5299 1.363 . S
C5304 C5303 1.415 . S
C5305 H5281 0.951 . S
C5305 C5306 1.366 . S
C5305 C5307 1.388 . S
C5306 C5305 1.366 . S
C5306 C5310 1.385 . S
C5307 H5282 0.951 . S
C5307 C5305 1.388 . S
C5307 C5308 1.366 . S
C5308 C5307 1.366 . S
C5308 C5309 1.414 . S
C5308 C5311 1.499 . S
C5309 H5283 0.950 . S
C5309 C5308 1.414 . S
C5309 C5310 1.374 . S
C5310 H5284 0.950 . S
C5310 C5306 1.385 . S
C5310 C5309 1.374 . S
C5311 C5308 1.499 . S
C5311 C5312 1.373 . S
C5311 C5313 1.389 . S
C5312 H5285 0.950 . S
C5312 C5298 1.377 . S
C5312 C5311 1.373 . S
C5313 C5297 1.377 . S
C5313 C5311 1.389 . S
C5313 C5314 1.524 . S
C5314 C5313 1.524 . S
C5314 C5315 1.397 . S
C5314 C5319 1.363 . S
C5315 H5286 0.950 . S
C5315 C5314 1.397 . S
C5315 C5316 1.334 . S
C5316 H5287 0.950 . S
C5316 C5315 1.334 . S
C5316 C5317 1.287 . S
C5317 C5316 1.287 . S
C5317 C5318 1.524 . S
C5317 H5320 0.999 . S
C5318 H5288 0.950 . S
C5318 C5317 1.524 . S
C5318 C5319 1.415 . S
C5319 H5289 0.950 . S
C5319 C5314 1.363 . S
C5319 C5318 1.415 . S
H5320 C5317 0.999 . S
H5321 C5302 0.913 . S
H5322 C5340 0.951 . S
H5323 C5342 0.951 . S
H5324 C5344 0.950 . S
H5325 C5345 0.950 . S
H5326 C5347 0.950 . S
H5327 C5350 0.950 . S
H5328 C5351 0.950 . S
H5329 C5353 0.950 . S
H5330 C5354 0.950 . S
H5331 C5355 0.951 . S
H5332 C5357 0.951 . S
H5333 C5359 0.950 . S
H5334 C5360 0.950 . S
H5335 C5362 0.950 . S
H5336 C5365 0.950 . S
H5337 C5366 0.950 . S
H5338 C5368 0.950 . S
H5339 C5369 0.950 . S
C5340 H5322 0.951 . S
C5340 C5341 1.366 . S
C5340 C5342 1.388 . S
C5341 C5340 1.366 . S
C5341 C5345 1.385 . S
C5342 H5323 0.951 . S
C5342 C5340 1.388 . S
C5342 C5343 1.366 . S
C5343 C5342 1.366 . S
C5343 C5344 1.414 . S
C5343 C5346 1.499 . S
C5344 H5324 0.950 . S
C5344 C5343 1.414 . S
C5344 C5345 1.374 . S
C5345 H5325 0.950 . S
C5345 C5341 1.385 . S
C5345 C5344 1.374 . S
C5346 C5343 1.499 . S
C5346 C5347 1.373 . S
C5346 C5348 1.389 . S
C5347 H5326 0.950 . S
C5347 C5346 1.373 . S
C5347 C5363 1.377 . S
C5348 C5346 1.389 . S
C5348 C5349 1.524 . S
C5348 C5362 1.377 . S
C5349 C5348 1.524 . S
C5349 C5350 1.397 . S
C5349 C5354 1.363 . S
C5350 H5327 0.950 . S
C5350 C5349 1.397 . S
C5350 C5351 1.334 . S
C5351 H5328 0.950 . S
C5351 C5350 1.334 . S
C5351 C5352 1.287 . S
C5352 C5351 1.287 . S
C5352 C5353 1.524 . S
C5352 H5371 0.913 . S
C5353 H5329 0.950 . S
C5353 C5352 1.524 . S
C5353 C5354 1.415 . S
C5354 H5330 0.950 . S
C5354 C5349 1.363 . S
C5354 C5353 1.415 . S
C5355 H5331 0.951 . S
C5355 C5356 1.366 . S
C5355 C5357 1.388 . S
C5356 C5355 1.366 . S
C5356 C5360 1.385 . S
C5357 H5332 0.951 . S
C5357 C5355 1.388 . S
C5357 C5358 1.366 . S
C5358 C5357 1.366 . S
C5358 C5359 1.414 . S
C5358 C5361 1.499 . S
C5359 H5333 0.950 . S
C5359 C5358 1.414 . S
C5359 C5360 1.374 . S
C5360 H5334 0.950 . S
C5360 C5356 1.385 . S
C5360 C5359 1.374 . S
C5361 C5358 1.499 . S
C5361 C5362 1.373 . S
C5361 C5363 1.389 . S
C5362 H5335 0.950 . S
C5362 C5348 1.377 . S
C5362 C5361 1.373 . S
C5363 C5347 1.377 . S
C5363 C5361 1.389 . S
C5363 C5364 1.524 . S
C5364 C5363 1.524 . S
C5364 C5365 1.397 . S
C5364 C5369 1.363 . S
C5365 H5336 0.950 . S
C5365 C5364 1.397 . S
C5365 C5366 1.334 . S
C5366 H5337 0.950 . S
C5366 C5365 1.334 . S
C5366 C5367 1.287 . S
C5367 C5366 1.287 . S
C5367 C5368 1.524 . S
C5367 H5370 0.999 . S
C5368 H5338 0.950 . S
C5368 C5367 1.524 . S
C5368 C5369 1.415 . S
C5369 H5339 0.950 . S
C5369 C5364 1.363 . S
C5369 C5368 1.415 . S
H5370 C5367 0.999 . S
H5371 C5352 0.913 . S
H5372 C5390 0.951 . S
H5373 C5392 0.951 . S
H5374 C5394 0.950 . S
H5375 C5395 0.950 . S
H5376 C5397 0.950 . S
H5377 C5400 0.950 . S
H5378 C5401 0.950 . S
H5379 C5403 0.950 . S
H5380 C5404 0.950 . S
H5381 C5405 0.951 . S
H5382 C5407 0.951 . S
H5383 C5409 0.950 . S
H5384 C5410 0.950 . S
H5385 C5412 0.950 . S
H5386 C5415 0.950 . S
H5387 C5416 0.950 . S
H5388 C5418 0.950 . S
H5389 C5419 0.950 . S
C5390 H5372 0.951 . S
C5390 C5391 1.366 . S
C5390 C5392 1.388 . S
C5391 C5390 1.366 . S
C5391 C5395 1.385 . S
C5392 H5373 0.951 . S
C5392 C5390 1.388 . S
C5392 C5393 1.366 . S
C5393 C5392 1.366 . S
C5393 C5394 1.414 . S
C5393 C5396 1.499 . S
C5394 H5374 0.950 . S
C5394 C5393 1.414 . S
C5394 C5395 1.374 . S
C5395 H5375 0.950 . S
C5395 C5391 1.385 . S
C5395 C5394 1.374 . S
C5396 C5393 1.499 . S
C5396 C5397 1.373 . S
C5396 C5398 1.389 . S
C5397 H5376 0.950 . S
C5397 C5396 1.373 . S
C5397 C5413 1.377 . S
C5398 C5396 1.389 . S
C5398 C5399 1.524 . S
C5398 C5412 1.377 . S
C5399 C5398 1.524 . S
C5399 C5400 1.397 . S
C5399 C5404 1.363 . S
C5400 H5377 0.950 . S
C5400 C5399 1.397 . S
C5400 C5401 1.334 . S
C5401 H5378 0.950 . S
C5401 C5400 1.334 . S
C5401 C5402 1.287 . S
C5402 C5401 1.287 . S
C5402 C5403 1.524 . S
C5402 H5421 0.913 . S
C5403 H5379 0.950 . S
C5403 C5402 1.524 . S
C5403 C5404 1.415 . S
C5404 H5380 0.950 . S
C5404 C5399 1.363 . S
C5404 C5403 1.415 . S
C5405 H5381 0.951 . S
C5405 C5406 1.366 . S
C5405 C5407 1.388 . S
C5406 C5405 1.366 . S
C5406 C5410 1.385 . S
C5407 H5382 0.951 . S
C5407 C5405 1.388 . S
C5407 C5408 1.366 . S
C5408 C5407 1.366 . S
C5408 C5409 1.414 . S
C5408 C5411 1.499 . S
C5409 H5383 0.950 . S
C5409 C5408 1.414 . S
C5409 C5410 1.374 . S
C5410 H5384 0.950 . S
C5410 C5406 1.385 . S
C5410 C5409 1.374 . S
C5411 C5408 1.499 . S
C5411 C5412 1.373 . S
C5411 C5413 1.389 . S
C5412 H5385 0.950 . S
C5412 C5398 1.377 . S
C5412 C5411 1.373 . S
C5413 C5397 1.377 . S
C5413 C5411 1.389 . S
C5413 C5414 1.524 . S
C5414 C5413 1.524 . S
C5414 C5415 1.397 . S
C5414 C5419 1.363 . S
C5415 H5386 0.950 . S
C5415 C5414 1.397 . S
C5415 C5416 1.334 . S
C5416 H5387 0.950 . S
C5416 C5415 1.334 . S
C5416 C5417 1.287 . S
C5417 C5416 1.287 . S
C5417 C5418 1.524 . S
C5417 H5420 0.999 . S
C5418 H5388 0.950 . S
C5418 C5417 1.524 . S
C5418 C5419 1.415 . S
C5419 H5389 0.950 . S
C5419 C5414 1.363 . S
C5419 C5418 1.415 . S
H5420 C5417 0.999 . S
H5421 C5402 0.913 . S
H5422 C5440 0.951 . S
H5423 C5442 0.951 . S
H5424 C5444 0.950 . S
H5425 C5445 0.950 . S
H5426 C5447 0.950 . S
H5427 C5450 0.950 . S
H5428 C5451 0.950 . S
H5429 C5453 0.950 . S
H5430 C5454 0.950 . S
H5431 C5455 0.951 . S
H5432 C5457 0.951 . S
H5433 C5459 0.950 . S
H5434 C5460 0.950 . S
H5435 C5462 0.950 . S
H5436 C5465 0.950 . S
H5437 C5466 0.950 . S
H5438 C5468 0.950 . S
H5439 C5469 0.950 . S
C5440 H5422 0.951 . S
C5440 C5441 1.366 . S
C5440 C5442 1.388 . S
C5441 C5440 1.366 . S
C5441 C5445 1.385 . S
C5442 H5423 0.951 . S
C5442 C5440 1.388 . S
C5442 C5443 1.366 . S
C5443 C5442 1.366 . S
C5443 C5444 1.414 . S
C5443 C5446 1.499 . S
C5444 H5424 0.950 . S
C5444 C5443 1.414 . S
C5444 C5445 1.374 . S
C5445 H5425 0.950 . S
C5445 C5441 1.385 . S
C5445 C5444 1.374 . S
C5446 C5443 1.499 . S
C5446 C5447 1.373 . S
C5446 C5448 1.389 . S
C5447 H5426 0.950 . S
C5447 C5446 1.373 . S
C5447 C5463 1.377 . S
C5448 C5446 1.389 . S
C5448 C5449 1.524 . S
C5448 C5462 1.377 . S
C5449 C5448 1.524 . S
C5449 C5450 1.397 . S
C5449 C5454 1.363 . S
C5450 H5427 0.950 . S
C5450 C5449 1.397 . S
C5450 C5451 1.334 . S
C5451 H5428 0.950 . S
C5451 C5450 1.334 . S
C5451 C5452 1.287 . S
C5452 C5451 1.287 . S
C5452 C5453 1.524 . S
C5452 H5471 0.913 . S
C5453 H5429 0.950 . S
C5453 C5452 1.524 . S
C5453 C5454 1.415 . S
C5454 H5430 0.950 . S
C5454 C5449 1.363 . S
C5454 C5453 1.415 . S
C5455 H5431 0.951 . S
C5455 C5456 1.366 . S
C5455 C5457 1.388 . S
C5456 C5455 1.366 . S
C5456 C5460 1.385 . S
C5457 H5432 0.951 . S
C5457 C5455 1.388 . S
C5457 C5458 1.366 . S
C5458 C5457 1.366 . S
C5458 C5459 1.414 . S
C5458 C5461 1.499 . S
C5459 H5433 0.950 . S
C5459 C5458 1.414 . S
C5459 C5460 1.374 . S
C5460 H5434 0.950 . S
C5460 C5456 1.385 . S
C5460 C5459 1.374 . S
C5461 C5458 1.499 . S
C5461 C5462 1.373 . S
C5461 C5463 1.389 . S
C5462 H5435 0.950 . S
C5462 C5448 1.377 . S
C5462 C5461 1.373 . S
C5463 C5447 1.377 . S
C5463 C5461 1.389 . S
C5463 C5464 1.524 . S
C5464 C5463 1.524 . S
C5464 C5465 1.397 . S
C5464 C5469 1.363 . S
C5465 H5436 0.950 . S
C5465 C5464 1.397 . S
C5465 C5466 1.334 . S
C5466 H5437 0.950 . S
C5466 C5465 1.334 . S
C5466 C5467 1.287 . S
C5467 C5466 1.287 . S
C5467 C5468 1.524 . S
C5467 H5470 0.999 . S
C5468 H5438 0.950 . S
C5468 C5467 1.524 . S
C5468 C5469 1.415 . S
C5469 H5439 0.950 . S
C5469 C5464 1.363 . S
C5469 C5468 1.415 . S
H5470 C5467 0.999 . S
H5471 C5452 0.913 . S
C691 C442 1.342 . S
C706 C8 1.342 . S
C741 C22 1.342 . S
C756 C400 1.342 . S
C791 C36 1.342 . S
C806 C414 1.342 . S
C841 C428 1.342 . S
C856 C50 1.342 . S
C891 C358 1.342 . S
C906 C64 1.342 . S
C941 C78 1.342 . S
C956 C372 1.342 . S
C991 C386 1.342 . S
C1006 C92 1.342 . S
C1041 C106 1.342 . S
C1056 C344 1.342 . S
C1091 C120 1.342 . S
C1106 C624 1.342 . S
C1141 C582 1.342 . S
C1156 C134 1.342 . S
C1191 C596 1.342 . S
C1206 C148 1.342 . S
C1241 C162 1.342 . S
C1256 C610 1.342 . S
C1291 C176 1.342 . S
C1306 C666 1.342 . S
C1341 C190 1.342 . S
C1356 C638 1.342 . S
C1391 C204 1.342 . S
C1406 C652 1.342 . S
C1441 C568 1.342 . S
C1456 C218 1.342 . S
C1491 C554 1.342 . S
C1506 C232 1.342 . S
C1541 C246 1.342 . S
C1556 C470 1.342 . S
C1591 C484 1.342 . S
C1606 C260 1.342 . S
C1641 C274 1.342 . S
C1656 C498 1.342 . S
C1691 C456 1.342 . S
C1706 C288 1.342 . S
C1741 C526 1.342 . S
C1756 C302 1.342 . S
C1791 C316 1.342 . S
C1806 C540 1.342 . S
C1841 C512 1.342 . S
C1856 C330 1.342 . S
C1891 C133 1.259 . S
C1906 C7 1.259 . S
C1941 C147 1.259 . S
C1956 C21 1.260 . S
C1991 C35 1.259 . S
C2006 C161 1.259 . S
C2041 C119 1.259 . S
C2056 C49 1.259 . S
C2091 C63 1.259 . S
C2106 C217 1.260 . S
C2141 C175 1.259 . S
C2156 C77 1.259 . S
C2191 C189 1.259 . S
C2206 C91 1.259 . S
C2241 C203 1.259 . S
C2256 C105 1.259 . S
C2291 C259 1.259 . S
C2306 C231 1.259 . S
C2341 C315 1.259 . S
C2356 C245 1.259 . S
C2391 C329 1.259 . S
C2406 C273 1.259 . S
C2441 C287 1.259 . S
C2456 C301 1.259 . S
C2491 C469 1.259 . S
C2506 C343 1.259 . S
C2541 C483 1.259 . S
C2556 C357 1.259 . S
C2591 C497 1.259 . S
C2606 C371 1.259 . S
C2641 C385 1.259 . S
C2656 C455 1.259 . S
C2691 C399 1.259 . S
C2706 C553 1.259 . S
C2741 C413 1.260 . S
C2756 C511 1.259 . S
C2791 C525 1.259 . S
C2806 C427 1.259 . S
C2841 C539 1.259 . S
C2856 C441 1.259 . S
C2891 C567 1.259 . S
C2906 C595 1.259 . S
C2941 C651 1.259 . S
C2956 C581 1.259 . S
C2991 C665 1.259 . S
C3006 C609 1.259 . S
C3041 C637 1.259 . S
C3056 C623 1.259 . S
C3091 C3 1.416 . S
C3106 C261 1.392 1_554 S
C3141 C17 1.416 . S
C3156 C275 1.391 1_554 S
C3191 C31 1.416 . S
C3206 C289 1.392 1_554 S
C3241 C247 1.392 1_554 S
C3256 C45 1.416 . S
C3291 C59 1.416 . S
C3306 C317 1.391 1_556 S
C3341 C73 1.416 . S
C3356 C233 1.391 1_556 S
C3391 C331 1.391 1_556 S
C3406 C87 1.416 . S
C3441 C303 1.391 1_556 S
C3456 C101 1.416 . S
C3491 C115 1.416 . S
C3506 C135 1.391 1_455 S
C3541 C129 1.416 . S
C3556 C149 1.391 1_545 S
C3591 C143 1.416 . S
C3606 C163 1.392 1_655 S
C3641 C121 1.392 1_565 S
C3656 C157 1.416 . S
C3691 C219 1.391 1_455 S
C3706 C171 1.416 . S
C3741 C177 1.392 1_545 S
C3756 C185 1.416 . S
C3791 C191 1.392 1_655 S
C3806 C199 1.416 . S
C3841 C213 1.416 . S
C3856 C205 1.391 1_565 S
C3891 C51 1.391 1_545 S
C3906 C227 1.416 . S
C3941 C79 1.391 1_565 S
C3956 C241 1.416 . S
C3991 C93 1.392 1_455 S
C4006 C255 1.416 . S
C4041 C269 1.416 . S
C4056 C107 1.391 1_545 S
C4091 C65 1.391 1_655 S
C4106 C283 1.416 . S
C4141 C23 1.391 1_565 S
C4156 C297 1.416 . S
C4191 C37 1.391 1_455 S
C4206 C311 1.416 . S
C4241 C9 1.391 1_655 S
C4256 C325 1.416 . S
C4291 C597 1.392 . S
C4306 C339 1.416 . S
C4341 C353 1.416 . S
C4356 C611 1.392 . S
C4391 C625 1.392 . S
C4406 C367 1.416 . S
C4441 C583 1.392 . S
C4456 C381 1.416 . S
C4491 C395 1.416 . S
C4506 C653 1.392 . S
C4541 C409 1.416 . S
C4556 C569 1.391 . S
C4591 C667 1.391 . S
C4606 C423 1.416 . S
C4641 C437 1.416 . S
C4656 C639 1.392 . S
C4691 C451 1.416 . S
C4706 C471 1.392 . S
C4741 C465 1.416 . S
C4756 C485 1.392 . S
C4791 C479 1.416 . S
C4806 C499 1.391 . S
C4841 C493 1.416 . S
C4856 C457 1.391 . S
C4891 C555 1.392 . S
C4906 C507 1.416 . S
C4941 C513 1.391 . S
C4956 C521 1.416 . S
C4991 C527 1.392 . S
C5006 C535 1.416 . S
C5041 C549 1.416 . S
C5056 C541 1.392 . S
C5091 C387 1.392 . S
C5106 C563 1.416 . S
C5141 C415 1.391 . S
C5156 C577 1.416 . S
C5191 C429 1.391 . S
C5206 C591 1.416 . S
C5241 C605 1.416 . S
C5256 C443 1.391 . S
C5291 C401 1.391 . S
C5306 C619 1.416 . S
C5341 C359 1.392 . S
C5356 C633 1.416 . S
C5391 C647 1.416 . S
C5406 C373 1.391 . S
C5441 C345 1.392 . S
C5456 C661 1.416 . S
