# Generated by pormake.
# Topology umd, (4)-cn, num edge types: 1
# Building blocks:
#     Node 0, Type 0, BuildingBlock: KOZSID_clean_sbu_0, # of connection points: 4
#     Node 1, Type 0, BuildingBlock: KOZSID_clean_sbu_0, # of connection points: 4
#     Node 2, Type 0, BuildingBlock: KOZSID_clean_sbu_0, # of connection points: 4
#     Node 3, Type 0, BuildingBlock: KOZSID_clean_sbu_0, # of connection points: 4
#     Node 4, Type 0, BuildingBlock: KOZSID_clean_sbu_0, # of connection points: 4
#     Node 5, Type 0, BuildingBlock: KOZSID_clean_sbu_0, # of connection points: 4
#     Node 6, Type 0, BuildingBlock: KOZSID_clean_sbu_0, # of connection points: 4
#     Node 7, Type 0, BuildingBlock: KOZSID_clean_sbu_0, # of connection points: 4
#     Node 8, Type 0, BuildingBlock: KOZSID_clean_sbu_0, # of connection points: 4
#     Node 9, Type 0, BuildingBlock: KOZSID_clean_sbu_0, # of connection points: 4
#     Node 10, Type 0, BuildingBlock: KOZSID_clean_sbu_0, # of connection points: 4
#     Node 11, Type 0, BuildingBlock: KOZSID_clean_sbu_0, # of connection points: 4
#     Node 12, Type 0, BuildingBlock: KOZSID_clean_sbu_0, # of connection points: 4
#     Node 13, Type 0, BuildingBlock: KOZSID_clean_sbu_0, # of connection points: 4
#     Node 14, Type 0, BuildingBlock: KOZSID_clean_sbu_0, # of connection points: 4
#     Node 15, Type 0, BuildingBlock: KOZSID_clean_sbu_0, # of connection points: 4
#     Edge 16, Type (0, 0), BuildingBlock: ZUJKAS_clean_linker_0, # of connection points: 2
#     Edge 17, Type (0, 0), BuildingBlock: ZUJKAS_clean_linker_0, # of connection points: 2
#     Edge 18, Type (0, 0), BuildingBlock: ZUJKAS_clean_linker_0, # of connection points: 2
#     Edge 19, Type (0, 0), BuildingBlock: ZUJKAS_clean_linker_0, # of connection points: 2
#     Edge 20, Type (0, 0), BuildingBlock: ZUJKAS_clean_linker_0, # of connection points: 2
#     Edge 21, Type (0, 0), BuildingBlock: ZUJKAS_clean_linker_0, # of connection points: 2
#     Edge 22, Type (0, 0), BuildingBlock: ZUJKAS_clean_linker_0, # of connection points: 2
#     Edge 23, Type (0, 0), BuildingBlock: ZUJKAS_clean_linker_0, # of connection points: 2
#     Edge 24, Type (0, 0), BuildingBlock: ZUJKAS_clean_linker_0, # of connection points: 2
#     Edge 25, Type (0, 0), BuildingBlock: ZUJKAS_clean_linker_0, # of connection points: 2
#     Edge 26, Type (0, 0), BuildingBlock: ZUJKAS_clean_linker_0, # of connection points: 2
#     Edge 27, Type (0, 0), BuildingBlock: ZUJKAS_clean_linker_0, # of connection points: 2
#     Edge 28, Type (0, 0), BuildingBlock: ZUJKAS_clean_linker_0, # of connection points: 2
#     Edge 29, Type (0, 0), BuildingBlock: ZUJKAS_clean_linker_0, # of connection points: 2
#     Edge 30, Type (0, 0), BuildingBlock: ZUJKAS_clean_linker_0, # of connection points: 2
#     Edge 31, Type (0, 0), BuildingBlock: ZUJKAS_clean_linker_0, # of connection points: 2
#     Edge 32, Type (0, 0), BuildingBlock: ZUJKAS_clean_linker_0, # of connection points: 2
#     Edge 33, Type (0, 0), BuildingBlock: ZUJKAS_clean_linker_0, # of connection points: 2
#     Edge 34, Type (0, 0), BuildingBlock: ZUJKAS_clean_linker_0, # of connection points: 2
#     Edge 35, Type (0, 0), BuildingBlock: ZUJKAS_clean_linker_0, # of connection points: 2
#     Edge 36, Type (0, 0), BuildingBlock: ZUJKAS_clean_linker_0, # of connection points: 2
#     Edge 37, Type (0, 0), BuildingBlock: ZUJKAS_clean_linker_0, # of connection points: 2
#     Edge 38, Type (0, 0), BuildingBlock: ZUJKAS_clean_linker_0, # of connection points: 2
#     Edge 39, Type (0, 0), BuildingBlock: ZUJKAS_clean_linker_0, # of connection points: 2
#     Edge 40, Type (0, 0), BuildingBlock: ZUJKAS_clean_linker_0, # of connection points: 2
#     Edge 41, Type (0, 0), BuildingBlock: ZUJKAS_clean_linker_0, # of connection points: 2
#     Edge 42, Type (0, 0), BuildingBlock: ZUJKAS_clean_linker_0, # of connection points: 2
#     Edge 43, Type (0, 0), BuildingBlock: ZUJKAS_clean_linker_0, # of connection points: 2
#     Edge 44, Type (0, 0), BuildingBlock: ZUJKAS_clean_linker_0, # of connection points: 2
#     Edge 45, Type (0, 0), BuildingBlock: ZUJKAS_clean_linker_0, # of connection points: 2
#     Edge 46, Type (0, 0), BuildingBlock: ZUJKAS_clean_linker_0, # of connection points: 2
#     Edge 47, Type (0, 0), BuildingBlock: ZUJKAS_clean_linker_0, # of connection points: 2
# Relax obj value: 0.058
# Max RMSD: 0.210
# Mean RMSD: 0.210
data_MOF--net-umd--node1-KOZSID_clean_sbu_0--edge1-ZUJKAS_clean_linker_0
_symmetry_space_group_name_H-M    P1
_symmetry_Int_Tables_number       1
_symmetry_cell_setting            triclinic
loop_
_symmetry_equiv_pos_as_xyz
'x, y, z'
_cell_length_a     66.381784
_cell_length_b     66.401507
_cell_length_c     79.591162
_cell_angle_alpha  89.949998
_cell_angle_beta   89.982348
_cell_angle_gamma 89.977631
loop_
_atom_site_label
_atom_site_type_symbol
_atom_site_fract_x
_atom_site_fract_y
_atom_site_fract_z
_atom_type_partial_charge
C0 C 0.16459 0.43134 0.17853 0.0
C1 C 0.15301 0.42116 0.19029 0.0
C2 C 0.14097 0.40815 0.18155 0.0
C3 C 0.14591 0.41102 0.16499 0.0
N4 N 0.16062 0.42472 0.16264 0.0
Co5 Co 0.1711 0.43392 0.14026 0.0
N6 N 0.15664 0.41205 0.12784 0.0
C7 C 0.1423 0.39997 0.1343 0.0
C8 C 0.13447 0.38668 0.12284 0.0
C9 C 0.1443 0.39072 0.1081 0.0
C10 C 0.15761 0.40632 0.11142 0.0
N11 N 0.18145 0.44335 0.11795 0.0
C12 C 0.18059 0.43471 0.10249 0.0
C13 C 0.18976 0.44676 0.09043 0.0
C14 C 0.1964 0.4636 0.09851 0.0
C15 C 0.19097 0.46091 0.11496 0.0
N16 N 0.1856 0.4559 0.15261 0.0
C17 C 0.19493 0.47178 0.14546 0.0
C18 C 0.20317 0.48494 0.15676 0.0
C19 C 0.19854 0.47718 0.17215 0.0
C20 C 0.18767 0.45961 0.16936 0.0
N21 N 0.19487 0.41584 0.14266 0.0
C22 C 0.22774 0.38821 0.14359 0.0
C23 C 0.23036 0.40839 0.13853 0.0
C24 C 0.21388 0.42187 0.13822 0.0
C25 C 0.20824 0.38259 0.14863 0.0
C26 C 0.19223 0.39641 0.14802 0.0
N27 N 0.14699 0.45141 0.13778 0.0
C28 C 0.12046 0.47121 0.15057 0.0
C29 C 0.10883 0.47052 0.13584 0.0
C30 C 0.11743 0.46099 0.1218 0.0
C31 C 0.13637 0.45166 0.12302 0.0
C32 C 0.1394 0.46182 0.15121 0.0
H33 H 0.14205 0.44414 0.11204 0.0
H34 H 0.14746 0.4625 0.16286 0.0
H35 H 0.21655 0.43708 0.13407 0.0
H36 H 0.17761 0.39109 0.15169 0.0
C37 C 0.13778 0.40047 0.15142 0.0
C38 C 0.1774 0.44865 0.18293 0.0
C39 C 0.1696 0.41626 0.09829 0.0
C40 C 0.19647 0.47347 0.12812 0.0
H41 H 0.15283 0.42338 0.20376 0.0
H42 H 0.12987 0.39791 0.18667 0.0
H43 H 0.12311 0.37527 0.12497 0.0
H44 H 0.14175 0.38329 0.09619 0.0
H45 H 0.19119 0.44386 0.0771 0.0
H46 H 0.20453 0.47615 0.09308 0.0
H47 H 0.21142 0.49864 0.15413 0.0
H48 H 0.20215 0.48418 0.18403 0.0
H49 H 0.24494 0.41374 0.13439 0.0
H50 H 0.20518 0.3675 0.15311 0.0
H51 H 0.11476 0.4783 0.16185 0.0
H52 H 0.10954 0.4605 0.10991 0.0
C53 C 0.58932 0.16659 0.67632 0.0
C54 C 0.60259 0.16031 0.68872 0.0
C55 C 0.62094 0.1575 0.68103 0.0
C56 C 0.6179 0.16213 0.66438 0.0
N57 N 0.59879 0.1676 0.66117 0.0
Co58 Co 0.58788 0.17496 0.63874 0.0
N59 N 0.61073 0.16219 0.62663 0.0
C60 C 0.62858 0.15732 0.63355 0.0
C61 C 0.64168 0.14894 0.62216 0.0
C62 C 0.6315 0.14878 0.60713 0.0
C63 C 0.6127 0.15717 0.61014 0.0
N64 N 0.57662 0.18242 0.61648 0.0
C65 C 0.58126 0.17561 0.60088 0.0
C66 C 0.57012 0.18576 0.58873 0.0
C67 C 0.55829 0.1994 0.59703 0.0
C68 C 0.56281 0.19692 0.61371 0.0
N69 N 0.56514 0.18796 0.65075 0.0
C70 C 0.55276 0.20206 0.64436 0.0
C71 C 0.53853 0.20854 0.65564 0.0
C72 C 0.54221 0.19786 0.67007 0.0
C73 C 0.55852 0.18539 0.66672 0.0
N74 N 0.60339 0.20058 0.63935 0.0
C75 C 0.63023 0.23392 0.64094 0.0
C76 C 0.62705 0.22328 0.62591 0.0
C77 C 0.61371 0.20688 0.62538 0.0
C78 C 0.61895 0.22776 0.65503 0.0
C79 C 0.60561 0.21126 0.65396 0.0
N80 N 0.57315 0.14911 0.63819 0.0
C81 C 0.543 0.12922 0.63387 0.0
C82 C 0.55332 0.11129 0.63793 0.0
C83 C 0.57383 0.11298 0.64192 0.0
C84 C 0.5833 0.13178 0.64208 0.0
C85 C 0.55317 0.14791 0.63406 0.0
H86 H 0.599 0.13219 0.64537 0.0
H87 H 0.54487 0.16139 0.63093 0.0
H88 H 0.61231 0.19889 0.61367 0.0
H89 H 0.59747 0.20684 0.66511 0.0
C90 C 0.63124 0.1581 0.65107 0.0
C91 C 0.56816 0.17241 0.67931 0.0
C92 C 0.59766 0.16148 0.59694 0.0
C93 C 0.55269 0.20602 0.62711 0.0
H94 H 0.59935 0.15795 0.7019 0.0
H95 H 0.6346 0.15186 0.68678 0.0
H96 H 0.65662 0.14308 0.62457 0.0
H97 H 0.63733 0.14326 0.5953 0.0
H98 H 0.57083 0.18392 0.57524 0.0
H99 H 0.54743 0.20965 0.59155 0.0
H100 H 0.52641 0.21913 0.65346 0.0
H101 H 0.5339 0.19918 0.68172 0.0
H102 H 0.63536 0.22709 0.61465 0.0
H103 H 0.62042 0.23558 0.6669 0.0
H104 H 0.52712 0.12894 0.6308 0.0
H105 H 0.58281 0.09979 0.64474 0.0
C106 C 0.85211 0.59051 0.17754 0.0
C107 C 0.85906 0.60376 0.18969 0.0
C108 C 0.86173 0.62205 0.18185 0.0
C109 C 0.85638 0.619 0.16536 0.0
N110 N 0.8506 0.59993 0.1624 0.0
Co111 Co 0.84261 0.58889 0.1402 0.0
N112 N 0.8555 0.61136 0.12771 0.0
C113 C 0.86067 0.62925 0.13437 0.0
C114 C 0.86906 0.64203 0.12272 0.0
C115 C 0.86893 0.63158 0.10782 0.0
C116 C 0.86039 0.61293 0.11117 0.0
N117 N 0.83454 0.57751 0.11817 0.0
C118 C 0.84133 0.5817 0.10248 0.0
C119 C 0.83087 0.57056 0.09055 0.0
C120 C 0.81703 0.55918 0.09911 0.0
C121 C 0.81973 0.56397 0.11572 0.0
N122 N 0.82956 0.56652 0.1526 0.0
C123 C 0.81506 0.55438 0.14656 0.0
C124 C 0.80869 0.54035 0.15809 0.0
C125 C 0.81989 0.54393 0.17225 0.0
C126 C 0.83256 0.55995 0.16853 0.0
N127 N 0.81724 0.60478 0.14103 0.0
C128 C 0.78397 0.6317 0.14274 0.0
C129 C 0.79446 0.62841 0.12766 0.0
C130 C 0.81083 0.61501 0.12706 0.0
C131 C 0.79029 0.62056 0.15687 0.0
C132 C 0.80678 0.60719 0.15573 0.0
N133 N 0.86818 0.57374 0.13938 0.0
C134 C 0.88741 0.54326 0.13478 0.0
C135 C 0.90556 0.55325 0.13866 0.0
C136 C 0.90434 0.57376 0.14271 0.0
C137 C 0.88573 0.58358 0.14305 0.0
C138 C 0.86893 0.55376 0.13522 0.0
H139 H 0.88564 0.5993 0.14631 0.0
H140 H 0.85524 0.54572 0.13226 0.0
H141 H 0.81867 0.61346 0.11528 0.0
H142 H 0.81133 0.59914 0.1669 0.0
C143 C 0.86027 0.63214 0.15187 0.0
C144 C 0.84622 0.56938 0.18072 0.0
C145 C 0.85587 0.59762 0.09827 0.0
C146 C 0.8107 0.55419 0.12937 0.0
H147 H 0.86205 0.60057 0.20278 0.0
H148 H 0.86782 0.63564 0.18737 0.0
H149 H 0.87515 0.65692 0.12488 0.0
H150 H 0.87438 0.6371 0.09586 0.0
H151 H 0.83271 0.57092 0.07704 0.0
H152 H 0.80656 0.54839 0.09386 0.0
H153 H 0.79785 0.5284 0.15621 0.0
H154 H 0.8188 0.53573 0.18398 0.0
H155 H 0.79055 0.63662 0.11637 0.0
H156 H 0.7826 0.62213 0.16879 0.0
H157 H 0.8874 0.5274 0.13165 0.0
H158 H 0.91775 0.58244 0.14541 0.0
C159 C 0.42956 0.85567 0.67808 0.0
C160 C 0.41622 0.86246 0.69024 0.0
C161 C 0.39795 0.86509 0.68239 0.0
C162 C 0.4011 0.85989 0.66588 0.0
N163 N 0.42022 0.85424 0.66291 0.0
Co164 Co 0.43132 0.84632 0.64069 0.0
N165 N 0.40866 0.8589 0.62821 0.0
C166 C 0.39074 0.86395 0.6349 0.0
C167 C 0.37783 0.87217 0.62328 0.0
C168 C 0.38822 0.87205 0.60834 0.0
C169 C 0.40696 0.86366 0.61165 0.0
N170 N 0.44278 0.83832 0.61865 0.0
C171 C 0.43843 0.84493 0.60293 0.0
C172 C 0.44965 0.83451 0.59102 0.0
C173 C 0.46126 0.8209 0.5996 0.0
C174 C 0.45652 0.82369 0.6162 0.0
N175 N 0.45387 0.83351 0.65308 0.0
C176 C 0.46619 0.81914 0.64702 0.0
C177 C 0.48021 0.81279 0.65854 0.0
C178 C 0.47646 0.82383 0.67274 0.0
C179 C 0.46033 0.83641 0.66905 0.0
N180 N 0.41572 0.82076 0.6416 0.0
C181 C 0.38905 0.78727 0.64339 0.0
C182 C 0.39232 0.79773 0.62828 0.0
C183 C 0.40558 0.8142 0.62764 0.0
C184 C 0.40011 0.79374 0.65751 0.0
C185 C 0.41335 0.81033 0.65634 0.0
N186 N 0.44617 0.8721 0.63976 0.0
C187 C 0.47635 0.89175 0.63486 0.0
C188 C 0.46583 0.90982 0.6378 0.0
C189 C 0.4454 0.90839 0.64201 0.0
C190 C 0.43599 0.88959 0.64303 0.0
C191 C 0.46622 0.87308 0.63577 0.0
H192 H 0.42031 0.88933 0.64643 0.0
H193 H 0.47453 0.85945 0.63315 0.0
H194 H 0.40708 0.822 0.61584 0.0
H195 H 0.42133 0.81499 0.66749 0.0
C196 C 0.38791 0.86361 0.65242 0.0
C197 C 0.45069 0.8498 0.68132 0.0
C198 C 0.42223 0.85917 0.59868 0.0
C199 C 0.46642 0.81479 0.62984 0.0
H200 H 0.41934 0.86533 0.70336 0.0
H201 H 0.38428 0.87102 0.68792 0.0
H202 H 0.36289 0.87815 0.62547 0.0
H203 H 0.3826 0.8774 0.59639 0.0
H204 H 0.44917 0.83619 0.5775 0.0
H205 H 0.47214 0.81051 0.59436 0.0
H206 H 0.49224 0.80202 0.65664 0.0
H207 H 0.48459 0.82267 0.68449 0.0
H208 H 0.38417 0.79372 0.61699 0.0
H209 H 0.39857 0.78609 0.66945 0.0
H210 H 0.49217 0.89204 0.63155 0.0
H211 H 0.43665 0.92178 0.64472 0.0
C212 C 0.16651 0.58923 0.33889 0.0
C213 C 0.16021 0.60251 0.3265 0.0
C214 C 0.15743 0.62085 0.3342 0.0
C215 C 0.16211 0.61779 0.35084 0.0
N216 N 0.16758 0.59868 0.35403 0.0
Co217 Co 0.17499 0.58774 0.37644 0.0
N218 N 0.16226 0.61058 0.38858 0.0
C219 C 0.15743 0.62845 0.38168 0.0
C220 C 0.14912 0.64155 0.3931 0.0
C221 C 0.14894 0.63133 0.40813 0.0
C222 C 0.15726 0.61251 0.40508 0.0
N223 N 0.18249 0.57646 0.39868 0.0
C224 C 0.17566 0.58103 0.41428 0.0
C225 C 0.18579 0.56987 0.42642 0.0
C226 C 0.19945 0.55806 0.4181 0.0
C227 C 0.19699 0.56264 0.40143 0.0
N228 N 0.18796 0.56502 0.3644 0.0
C229 C 0.20208 0.55264 0.37076 0.0
C230 C 0.20853 0.53842 0.35946 0.0
C231 C 0.19781 0.54212 0.34507 0.0
C232 C 0.18534 0.55842 0.34844 0.0
N233 N 0.20062 0.60324 0.37576 0.0
C234 C 0.23392 0.63012 0.37402 0.0
C235 C 0.22334 0.62694 0.38909 0.0
C236 C 0.20695 0.61356 0.3897 0.0
C237 C 0.22774 0.61881 0.35997 0.0
C238 C 0.21126 0.60545 0.36112 0.0
N239 N 0.14912 0.57302 0.37705 0.0
C240 C 0.12923 0.54282 0.38112 0.0
C241 C 0.11129 0.55318 0.37716 0.0
C242 C 0.11298 0.57376 0.37339 0.0
C243 C 0.13178 0.58322 0.37328 0.0
C244 C 0.14792 0.553 0.38103 0.0
H245 H 0.13219 0.59896 0.3701 0.0
H246 H 0.16141 0.54467 0.38407 0.0
H247 H 0.199 0.61215 0.40144 0.0
H248 H 0.20681 0.5973 0.35 0.0
C249 C 0.15816 0.63112 0.36415 0.0
C250 C 0.17232 0.56806 0.33589 0.0
C251 C 0.16148 0.59739 0.41824 0.0
C252 C 0.20607 0.55254 0.388 0.0
H253 H 0.15781 0.59929 0.31333 0.0
H254 H 0.1518 0.63452 0.32846 0.0
H255 H 0.14329 0.6565 0.39072 0.0
H256 H 0.14346 0.63713 0.41998 0.0
H257 H 0.1839 0.57052 0.43991 0.0
H258 H 0.20968 0.54717 0.42356 0.0
H259 H 0.21912 0.5263 0.36162 0.0
H260 H 0.1991 0.53383 0.33341 0.0
H261 H 0.22716 0.63527 0.40032 0.0
H262 H 0.23552 0.62026 0.34807 0.0
H263 H 0.12896 0.5269 0.38403 0.0
H264 H 0.09979 0.58278 0.37068 0.0
C265 C 0.43151 0.1651 0.83688 0.0
C266 C 0.42126 0.15359 0.82512 0.0
C267 C 0.40815 0.14166 0.83388 0.0
C268 C 0.41104 0.14657 0.85044 0.0
N269 N 0.42485 0.16118 0.85277 0.0
Co270 Co 0.43415 0.17154 0.87513 0.0
N271 N 0.41218 0.1572 0.88759 0.0
C272 C 0.39995 0.14301 0.88113 0.0
C273 C 0.38662 0.13524 0.89262 0.0
C274 C 0.3908 0.14494 0.90737 0.0
C275 C 0.4065 0.15813 0.90404 0.0
N276 N 0.44372 0.18172 0.89743 0.0
C277 C 0.43516 0.18078 0.91293 0.0
C278 C 0.44722 0.18996 0.92495 0.0
C279 C 0.46403 0.19663 0.91683 0.0
C280 C 0.4613 0.19124 0.90038 0.0
N281 N 0.45619 0.18595 0.86275 0.0
C282 C 0.47211 0.19524 0.86986 0.0
C283 C 0.48525 0.20349 0.85853 0.0
C284 C 0.47745 0.19893 0.84317 0.0
C285 C 0.45986 0.18808 0.84599 0.0
N286 N 0.41621 0.19543 0.87279 0.0
C287 C 0.389 0.22857 0.8714 0.0
C288 C 0.40906 0.231 0.87678 0.0
C289 C 0.42237 0.21439 0.87726 0.0
C290 C 0.38314 0.20911 0.86655 0.0
C291 C 0.39677 0.19295 0.86738 0.0
N292 N 0.45149 0.1473 0.87753 0.0
C293 C 0.47125 0.12085 0.86458 0.0
C294 C 0.47017 0.10894 0.87913 0.0
C295 C 0.46057 0.11733 0.89321 0.0
C296 C 0.45148 0.13641 0.89217 0.0
C297 C 0.46203 0.13987 0.86409 0.0
H298 H 0.44382 0.14192 0.90314 0.0
H299 H 0.46301 0.14817 0.85257 0.0
H300 H 0.43758 0.21695 0.88144 0.0
H301 H 0.39129 0.17834 0.86386 0.0
C302 C 0.40041 0.13852 0.86401 0.0
C303 C 0.44887 0.17785 0.83245 0.0
C304 C 0.41672 0.16979 0.91719 0.0
C305 C 0.47384 0.19675 0.8872 0.0
H306 H 0.42349 0.15341 0.81165 0.0
H307 H 0.39782 0.13064 0.82878 0.0
H308 H 0.37513 0.12396 0.89049 0.0
H309 H 0.38344 0.14234 0.91931 0.0
H310 H 0.44431 0.19142 0.93828 0.0
H311 H 0.47659 0.20478 0.92222 0.0
H312 H 0.49897 0.21172 0.86113 0.0
H313 H 0.48443 0.20256 0.83127 0.0
H314 H 0.41456 0.24568 0.88049 0.0
H315 H 0.36785 0.20616 0.86251 0.0
H316 H 0.479 0.11546 0.85349 0.0
H317 H 0.45932 0.10892 0.90482 0.0
C318 C 0.85555 0.42961 0.33738 0.0
C319 C 0.86235 0.41627 0.32524 0.0
C320 C 0.865 0.39801 0.33312 0.0
C321 C 0.85979 0.40117 0.34963 0.0
N322 N 0.85413 0.42028 0.35258 0.0
Co323 Co 0.8462 0.4314 0.37479 0.0
N324 N 0.85878 0.40876 0.38729 0.0
C325 C 0.86381 0.39082 0.38062 0.0
C326 C 0.87196 0.3779 0.39228 0.0
C327 C 0.87182 0.38829 0.40721 0.0
C328 C 0.86351 0.40705 0.40386 0.0
N329 N 0.83821 0.44288 0.39683 0.0
C330 C 0.84485 0.43856 0.41254 0.0
C331 C 0.83451 0.44985 0.42445 0.0
C332 C 0.82089 0.46145 0.41587 0.0
C333 C 0.8236 0.45664 0.39927 0.0
N334 N 0.83337 0.45393 0.36238 0.0
C335 C 0.81901 0.46625 0.36844 0.0
C336 C 0.81265 0.48026 0.35691 0.0
C337 C 0.82368 0.47649 0.34269 0.0
C338 C 0.83625 0.46037 0.34639 0.0
N339 N 0.82064 0.41579 0.37392 0.0
C340 C 0.78717 0.38909 0.37222 0.0
C341 C 0.79758 0.39245 0.38734 0.0
C342 C 0.81405 0.40572 0.38792 0.0
C343 C 0.79367 0.40007 0.35807 0.0
C344 C 0.81024 0.41333 0.35919 0.0
N345 N 0.87197 0.44625 0.37567 0.0
C346 C 0.89158 0.47646 0.38049 0.0
C347 C 0.90968 0.46597 0.37756 0.0
C348 C 0.90829 0.44553 0.3734 0.0
C349 C 0.88949 0.43609 0.37242 0.0
C350 C 0.87292 0.4663 0.37962 0.0
H351 H 0.88925 0.42041 0.36905 0.0
H352 H 0.85929 0.4746 0.38224 0.0
H353 H 0.82183 0.40727 0.39972 0.0
H354 H 0.81491 0.42127 0.34801 0.0
C355 C 0.8635 0.38799 0.36312 0.0
C356 C 0.84964 0.45072 0.3341 0.0
C357 C 0.85906 0.42234 0.41679 0.0
C358 C 0.81469 0.46652 0.38563 0.0
H359 H 0.86522 0.41937 0.31212 0.0
H360 H 0.87093 0.38434 0.32761 0.0
H361 H 0.8779 0.36294 0.39011 0.0
H362 H 0.87709 0.38266 0.41918 0.0
H363 H 0.83625 0.44941 0.43797 0.0
H364 H 0.81054 0.47237 0.42111 0.0
H365 H 0.80189 0.4923 0.3588 0.0
H366 H 0.82251 0.48461 0.33093 0.0
H367 H 0.79353 0.38436 0.39866 0.0
H368 H 0.78605 0.39845 0.34612 0.0
H369 H 0.89184 0.49228 0.38377 0.0
H370 H 0.9217 0.43681 0.3707 0.0
C371 C 0.59051 0.85252 0.83772 0.0
C372 C 0.60379 0.8595 0.82558 0.0
C373 C 0.62205 0.8622 0.83344 0.0
C374 C 0.61896 0.85685 0.84993 0.0
N375 N 0.59989 0.85103 0.85288 0.0
Co376 Co 0.58878 0.84306 0.87507 0.0
N377 N 0.61116 0.85602 0.88757 0.0
C378 C 0.62906 0.86125 0.88093 0.0
C379 C 0.64179 0.8697 0.89256 0.0
C380 C 0.63129 0.86955 0.90745 0.0
C381 C 0.61269 0.8609 0.90411 0.0
N382 N 0.57731 0.835 0.8971 0.0
C383 C 0.58144 0.84177 0.9128 0.0
C384 C 0.57028 0.83128 0.92472 0.0
C385 C 0.55895 0.81744 0.91615 0.0
C386 C 0.56378 0.82018 0.89955 0.0
N387 N 0.56648 0.82994 0.86266 0.0
C388 C 0.55434 0.81542 0.86869 0.0
C389 C 0.54036 0.80903 0.85716 0.0
C390 C 0.54397 0.82023 0.84298 0.0
C391 C 0.55996 0.83293 0.84672 0.0
N392 N 0.60475 0.81773 0.87434 0.0
C393 C 0.6323 0.78497 0.87272 0.0
C394 C 0.62857 0.79526 0.88783 0.0
C395 C 0.6149 0.81139 0.88837 0.0
C396 C 0.62104 0.79101 0.85858 0.0
C397 C 0.60739 0.80729 0.85966 0.0
N398 N 0.57356 0.86859 0.87582 0.0
C399 C 0.54308 0.88781 0.88053 0.0
C400 C 0.55303 0.90595 0.87657 0.0
C401 C 0.57352 0.90474 0.8724 0.0
C402 C 0.58336 0.88614 0.87205 0.0
C403 C 0.55358 0.86933 0.88005 0.0
H404 H 0.59907 0.88607 0.86874 0.0
H405 H 0.54557 0.85565 0.88307 0.0
H406 H 0.61304 0.8191 0.90017 0.0
H407 H 0.59943 0.8118 0.84844 0.0
C408 C 0.63203 0.86081 0.86343 0.0
C409 C 0.56939 0.84661 0.83453 0.0
C410 C 0.5974 0.85628 0.91704 0.0
C411 C 0.55408 0.8111 0.8859 0.0
H412 H 0.60063 0.8625 0.81249 0.0
H413 H 0.63564 0.86834 0.82794 0.0
H414 H 0.65666 0.87586 0.8904 0.0
H415 H 0.63677 0.87504 0.9194 0.0
H416 H 0.57063 0.83306 0.93822 0.0
H417 H 0.54818 0.80694 0.92139 0.0
H418 H 0.52841 0.79817 0.85904 0.0
H419 H 0.53581 0.81914 0.83125 0.0
H420 H 0.63627 0.79103 0.89929 0.0
H421 H 0.6232 0.78371 0.84656 0.0
H422 H 0.52723 0.8878 0.88375 0.0
H423 H 0.58215 0.91816 0.86961 0.0
C424 C 0.83733 0.55701 0.84745 0.0
C425 C 0.82536 0.54032 0.84419 0.0
C426 C 0.81468 0.53651 0.85858 0.0
C427 C 0.82074 0.55097 0.86981 0.0
N428 N 0.83461 0.5636 0.86342 0.0
Co429 Co 0.84743 0.58639 0.87551 0.0
N430 N 0.83979 0.57515 0.89776 0.0
C431 C 0.82537 0.56126 0.90046 0.0
C432 C 0.82277 0.55673 0.91713 0.0
C433 C 0.83626 0.56865 0.92549 0.0
C434 C 0.84644 0.57982 0.91339 0.0
N435 N 0.86012 0.60922 0.88766 0.0
C436 C 0.86498 0.61121 0.90418 0.0
C437 C 0.87331 0.63002 0.90723 0.0
C438 C 0.87327 0.64019 0.89218 0.0
C439 C 0.86504 0.62707 0.88075 0.0
N440 N 0.85489 0.59735 0.85312 0.0
C441 C 0.86015 0.61653 0.84992 0.0
C442 C 0.86463 0.61968 0.83325 0.0
C443 C 0.86192 0.60134 0.82554 0.0
C444 C 0.85597 0.58796 0.83796 0.0
N445 N 0.82177 0.60187 0.87477 0.0
C446 C 0.78865 0.629 0.87301 0.0
C447 C 0.79466 0.61751 0.85899 0.0
C448 C 0.81111 0.60408 0.86014 0.0
C449 C 0.79914 0.62566 0.88809 0.0
C450 C 0.81544 0.6122 0.8887 0.0
N451 N 0.87333 0.57171 0.87628 0.0
C452 C 0.90945 0.57231 0.87245 0.0
C453 C 0.91138 0.55239 0.87815 0.0
C454 C 0.89349 0.54224 0.88259 0.0
C455 C 0.87468 0.55211 0.88153 0.0
C456 C 0.89056 0.5816 0.87174 0.0
H457 H 0.86126 0.54399 0.88511 0.0
H458 H 0.89003 0.59699 0.86753 0.0
H459 H 0.81558 0.59595 0.849 0.0
H460 H 0.82329 0.61068 0.90047 0.0
C461 C 0.81661 0.55094 0.88702 0.0
C462 C 0.85018 0.56686 0.83486 0.0
C463 C 0.86053 0.59622 0.91739 0.0
C464 C 0.86418 0.62981 0.86324 0.0
H465 H 0.82443 0.53175 0.83266 0.0
H466 H 0.80441 0.52413 0.86081 0.0
H467 H 0.81259 0.54578 0.92255 0.0
H468 H 0.83802 0.56935 0.939 0.0
H469 H 0.87865 0.63588 0.9191 0.0
H470 H 0.87906 0.65516 0.8898 0.0
H471 H 0.87002 0.63342 0.82749 0.0
H472 H 0.86404 0.59816 0.81232 0.0
H473 H 0.78721 0.61935 0.84699 0.0
H474 H 0.79494 0.63354 0.89947 0.0
H475 H 0.92247 0.58083 0.86839 0.0
H476 H 0.89396 0.52689 0.88716 0.0
C477 C 0.46 0.83677 0.34724 0.0
C478 C 0.47628 0.82445 0.34348 0.0
C479 C 0.48014 0.8133 0.35763 0.0
C480 C 0.46604 0.81938 0.36919 0.0
N481 N 0.45358 0.83365 0.3632 0.0
Co482 Co 0.4311 0.84641 0.3757 0.0
N483 N 0.44275 0.83843 0.39768 0.0
C484 C 0.45656 0.82384 0.40006 0.0
C485 C 0.46146 0.82111 0.41665 0.0
C486 C 0.44987 0.83469 0.42527 0.0
C487 C 0.4385 0.84504 0.41341 0.0
N488 N 0.40851 0.85895 0.38828 0.0
C489 C 0.40691 0.86368 0.40484 0.0
C490 C 0.38815 0.87196 0.40826 0.0
C491 C 0.37765 0.87206 0.39338 0.0
C492 C 0.39051 0.86393 0.38168 0.0
N493 N 0.41981 0.85433 0.35356 0.0
C494 C 0.40064 0.85982 0.35065 0.0
C495 C 0.39735 0.86488 0.33411 0.0
C496 C 0.41561 0.86234 0.32619 0.0
C497 C 0.42907 0.85582 0.33836 0.0
N498 N 0.41553 0.82084 0.37492 0.0
C499 C 0.38894 0.78729 0.37337 0.0
C500 C 0.39981 0.7938 0.35916 0.0
C501 C 0.41303 0.81041 0.36021 0.0
C502 C 0.39234 0.79774 0.38845 0.0
C503 C 0.40556 0.81424 0.38896 0.0
N504 N 0.44593 0.87218 0.37651 0.0
C505 C 0.44524 0.90847 0.37408 0.0
C506 C 0.46575 0.90983 0.37805 0.0
C507 C 0.47623 0.89174 0.381 0.0
C508 C 0.46602 0.87311 0.38031 0.0
C509 C 0.43575 0.8897 0.37327 0.0
H510 H 0.47433 0.85948 0.38291 0.0
H511 H 0.42003 0.88945 0.37001 0.0
H512 H 0.42089 0.8151 0.34899 0.0
H513 H 0.40716 0.82204 0.40074 0.0
C514 C 0.46641 0.81501 0.38638 0.0
C515 C 0.45024 0.85024 0.33509 0.0
C516 C 0.42229 0.85923 0.41772 0.0
C517 C 0.38752 0.86352 0.36418 0.0
H518 H 0.48449 0.82359 0.33175 0.0
H519 H 0.49234 0.8027 0.35948 0.0
H520 H 0.47243 0.81078 0.42184 0.0
H521 H 0.44951 0.8364 0.43879 0.0
H522 H 0.38259 0.87724 0.42025 0.0
H523 H 0.36266 0.87796 0.39127 0.0
H524 H 0.3836 0.87062 0.3286 0.0
H525 H 0.41868 0.86504 0.31303 0.0
H526 H 0.39814 0.78616 0.34723 0.0
H527 H 0.38433 0.79369 0.3998 0.0
H528 H 0.43652 0.92188 0.37139 0.0
H529 H 0.4921 0.89198 0.38415 0.0
C530 C 0.18649 0.45934 0.84767 0.0
C531 C 0.19831 0.47617 0.84453 0.0
C532 C 0.20894 0.47992 0.85895 0.0
C533 C 0.20298 0.4653 0.87008 0.0
N534 N 0.18925 0.45259 0.86361 0.0
Co535 Co 0.17652 0.42962 0.8756 0.0
N536 N 0.18404 0.44073 0.89793 0.0
C537 C 0.19819 0.45487 0.9007 0.0
C538 C 0.20063 0.45937 0.91739 0.0
C539 C 0.18734 0.44716 0.92569 0.0
C540 C 0.17747 0.43581 0.91355 0.0
N541 N 0.16397 0.40657 0.88761 0.0
C542 C 0.15941 0.40421 0.90417 0.0
C543 C 0.15142 0.38523 0.90712 0.0
C544 C 0.15132 0.37534 0.89196 0.0
C545 C 0.15918 0.38877 0.88058 0.0
N546 N 0.16909 0.41888 0.85314 0.0
C547 C 0.16386 0.39974 0.84982 0.0
C548 C 0.15931 0.39678 0.83314 0.0
C549 C 0.16191 0.41522 0.82556 0.0
C550 C 0.16788 0.42846 0.83805 0.0
N551 N 0.20227 0.41427 0.87482 0.0
C552 C 0.23573 0.38754 0.87316 0.0
C553 C 0.22929 0.39854 0.85899 0.0
C554 C 0.21277 0.41188 0.86012 0.0
C555 C 0.22532 0.39092 0.88826 0.0
C556 C 0.20882 0.40416 0.88881 0.0
N557 N 0.15055 0.44419 0.87643 0.0
C558 C 0.11441 0.44347 0.87271 0.0
C559 C 0.11248 0.46347 0.87817 0.0
C560 C 0.13036 0.47371 0.88247 0.0
C561 C 0.14917 0.46384 0.8815 0.0
C562 C 0.13332 0.4342 0.87203 0.0
H563 H 0.16257 0.47203 0.88498 0.0
H564 H 0.13388 0.41878 0.86794 0.0
H565 H 0.20817 0.41988 0.84894 0.0
H566 H 0.20098 0.40562 0.90059 0.0
C567 C 0.20694 0.46532 0.88731 0.0
C568 C 0.17361 0.44961 0.83506 0.0
C569 C 0.16392 0.41894 0.91752 0.0
C570 C 0.15996 0.38627 0.86305 0.0
H571 H 0.19913 0.48492 0.83308 0.0
H572 H 0.21903 0.4924 0.86127 0.0
H573 H 0.21059 0.47047 0.92285 0.0
H574 H 0.18553 0.44635 0.93919 0.0
H575 H 0.14645 0.37908 0.91901 0.0
H576 H 0.14577 0.36031 0.8895 0.0
H577 H 0.15392 0.38309 0.82731 0.0
H578 H 0.15971 0.41856 0.81237 0.0
H579 H 0.23693 0.39685 0.84706 0.0
H580 H 0.22938 0.38282 0.89957 0.0
H581 H 0.10137 0.43489 0.8688 0.0
H582 H 0.12986 0.48912 0.88685 0.0
C583 C 0.55865 0.18483 0.34601 0.0
C584 C 0.54208 0.19696 0.34265 0.0
C585 C 0.53835 0.20778 0.35698 0.0
C586 C 0.55274 0.20164 0.36827 0.0
N587 N 0.56526 0.18762 0.36195 0.0
Co588 Co 0.58795 0.17469 0.37413 0.0
N589 N 0.57664 0.18235 0.39633 0.0
C590 C 0.56278 0.19682 0.39898 0.0
C591 C 0.55815 0.19936 0.41563 0.0
C592 C 0.56997 0.18578 0.42403 0.0
C593 C 0.5812 0.17562 0.41197 0.0
N594 N 0.61074 0.16199 0.38636 0.0
C595 C 0.61265 0.1571 0.40288 0.0
C596 C 0.63147 0.14877 0.40599 0.0
C597 C 0.6417 0.14884 0.39098 0.0
C598 C 0.62862 0.15709 0.3795 0.0
N599 N 0.59889 0.16708 0.3518 0.0
C600 C 0.61804 0.16169 0.34863 0.0
C601 C 0.62113 0.15702 0.33199 0.0
C602 C 0.60277 0.15973 0.32427 0.0
C603 C 0.58945 0.16587 0.33666 0.0
N604 N 0.60351 0.20028 0.37338 0.0
C605 C 0.63034 0.23365 0.3717 0.0
C606 C 0.61916 0.22738 0.35759 0.0
C607 C 0.60583 0.21086 0.35871 0.0
C608 C 0.62709 0.22308 0.38676 0.0
C609 C 0.61375 0.20667 0.38734 0.0
N610 N 0.57316 0.14889 0.37487 0.0
C611 C 0.57374 0.11273 0.37149 0.0
C612 C 0.55323 0.11115 0.37554 0.0
C613 C 0.54296 0.12916 0.37942 0.0
C614 C 0.55318 0.1478 0.37904 0.0
C615 C 0.58326 0.1315 0.37113 0.0
H616 H 0.54492 0.16134 0.38205 0.0
H617 H 0.59896 0.13183 0.36782 0.0
H618 H 0.59775 0.20635 0.34756 0.0
H619 H 0.61229 0.19876 0.39909 0.0
C620 C 0.55262 0.20573 0.38549 0.0
C621 C 0.56833 0.1717 0.33356 0.0
C622 C 0.59756 0.16147 0.41602 0.0
C623 C 0.63135 0.15778 0.36198 0.0
H624 H 0.53355 0.19788 0.33109 0.0
H625 H 0.52604 0.21815 0.35914 0.0
H626 H 0.5472 0.20957 0.42102 0.0
H627 H 0.57057 0.18395 0.43753 0.0
H628 H 0.63726 0.14339 0.41788 0.0
H629 H 0.65667 0.14301 0.38864 0.0
H630 H 0.63485 0.1515 0.32626 0.0
H631 H 0.59955 0.15747 0.31108 0.0
H632 H 0.62068 0.23513 0.34569 0.0
H633 H 0.63533 0.22695 0.39804 0.0
H634 H 0.58267 0.09948 0.36879 0.0
H635 H 0.52709 0.12896 0.38253 0.0
C636 C 0.83639 0.46048 0.66793 0.0
C637 C 0.82413 0.47686 0.67151 0.0
C638 C 0.81317 0.4807 0.65726 0.0
C639 C 0.8193 0.46647 0.64583 0.0
N640 N 0.83342 0.45397 0.65199 0.0
Co641 Co 0.84621 0.43135 0.6397 0.0
N642 N 0.83849 0.44286 0.61759 0.0
C643 C 0.82395 0.45669 0.61505 0.0
C644 C 0.82132 0.46143 0.59842 0.0
C645 C 0.83491 0.44971 0.58993 0.0
C646 C 0.84517 0.43844 0.60192 0.0
N647 N 0.85888 0.40868 0.62733 0.0
C648 C 0.86377 0.40694 0.6108 0.0
C649 C 0.87211 0.38817 0.60756 0.0
C650 C 0.87206 0.37778 0.62251 0.0
C651 C 0.8638 0.39073 0.63407 0.0
N652 N 0.85377 0.42015 0.66197 0.0
C653 C 0.85913 0.40097 0.66502 0.0
C654 C 0.86392 0.39774 0.68161 0.0
C655 C 0.86135 0.41604 0.68943 0.0
C656 C 0.85508 0.42947 0.67715 0.0
N657 N 0.82058 0.41587 0.64038 0.0
C658 C 0.78701 0.3893 0.64195 0.0
C659 C 0.79331 0.40041 0.65608 0.0
C660 C 0.80993 0.41361 0.65502 0.0
C661 C 0.79766 0.39248 0.62692 0.0
C662 C 0.81417 0.4057 0.6264 0.0
N663 N 0.87205 0.44608 0.63902 0.0
C664 C 0.90814 0.44564 0.64304 0.0
C665 C 0.90975 0.46599 0.63852 0.0
C666 C 0.89188 0.47612 0.63406 0.0
C667 C 0.87321 0.46594 0.63446 0.0
C668 C 0.88938 0.43608 0.64319 0.0
H669 H 0.85973 0.47411 0.63113 0.0
H670 H 0.88899 0.42044 0.6467 0.0
H671 H 0.81446 0.42163 0.66619 0.0
H672 H 0.82213 0.40713 0.61467 0.0
C673 C 0.81507 0.46671 0.62862 0.0
C674 C 0.84959 0.45068 0.68027 0.0
C675 C 0.85937 0.42216 0.59777 0.0
C676 C 0.86307 0.38781 0.65158 0.0
H677 H 0.82317 0.48514 0.6832 0.0
H678 H 0.80266 0.49293 0.65527 0.0
H679 H 0.81105 0.47237 0.59311 0.0
H680 H 0.83668 0.4492 0.57642 0.0
H681 H 0.8775 0.3825 0.59564 0.0
H682 H 0.8779 0.3628 0.62475 0.0
H683 H 0.86955 0.38399 0.68723 0.0
H684 H 0.8639 0.41915 0.7026 0.0
H685 H 0.7855 0.39894 0.66796 0.0
H686 H 0.79377 0.38429 0.61563 0.0
H687 H 0.92138 0.43693 0.64625 0.0
H688 H 0.89222 0.49187 0.63055 0.0
C689 C 0.55717 0.83762 0.16838 0.0
C690 C 0.54058 0.82556 0.17182 0.0
C691 C 0.53682 0.81464 0.15757 0.0
C692 C 0.55119 0.82066 0.14622 0.0
N693 N 0.56372 0.83474 0.15242 0.0
Co694 Co 0.58636 0.84757 0.14008 0.0
N695 N 0.57504 0.83959 0.11797 0.0
C696 C 0.56121 0.82506 0.11548 0.0
C697 C 0.55663 0.8222 0.09885 0.0
C698 C 0.56845 0.83564 0.0903 0.0
C699 C 0.57961 0.84606 0.10225 0.0
N700 N 0.6091 0.86017 0.1277 0.0
C701 C 0.61098 0.86485 0.11112 0.0
C702 C 0.62973 0.87327 0.10793 0.0
C703 C 0.63997 0.87345 0.12293 0.0
C704 C 0.62696 0.86526 0.13448 0.0
N705 N 0.59733 0.8555 0.16233 0.0
C706 C 0.61646 0.86102 0.1654 0.0
C707 C 0.61961 0.86583 0.182 0.0
C708 C 0.60132 0.86308 0.1898 0.0
C709 C 0.58797 0.85677 0.1775 0.0
N710 N 0.60197 0.82202 0.14104 0.0
C711 C 0.62863 0.78854 0.14293 0.0
C712 C 0.61746 0.79498 0.15699 0.0
C713 C 0.60422 0.81157 0.15577 0.0
C714 C 0.62548 0.79901 0.1278 0.0
C715 C 0.61221 0.81548 0.12712 0.0
N716 N 0.57149 0.87333 0.13912 0.0
C717 C 0.57208 0.90962 0.14156 0.0
C718 C 0.55163 0.91099 0.13737 0.0
C719 C 0.54122 0.89289 0.13431 0.0
C720 C 0.55145 0.87427 0.1351 0.0
C721 C 0.58158 0.89085 0.14247 0.0
H722 H 0.54319 0.86064 0.13241 0.0
H723 H 0.59725 0.89061 0.14589 0.0
H724 H 0.59615 0.81621 0.16689 0.0
H725 H 0.6108 0.82329 0.11532 0.0
C726 C 0.55107 0.81635 0.12905 0.0
C727 C 0.56695 0.85076 0.18077 0.0
C728 C 0.59594 0.86016 0.09802 0.0
C729 C 0.62971 0.86481 0.152 0.0
H730 H 0.53203 0.82475 0.18337 0.0
H731 H 0.5245 0.80427 0.15549 0.0
H732 H 0.54574 0.81186 0.09358 0.0
H733 H 0.5691 0.83718 0.07677 0.0
H734 H 0.63548 0.87857 0.096 0.0
H735 H 0.65489 0.87942 0.1252 0.0
H736 H 0.63334 0.87144 0.18764 0.0
H737 H 0.59816 0.86539 0.203 0.0
H738 H 0.61891 0.78732 0.16894 0.0
H739 H 0.63372 0.79501 0.11656 0.0
H740 H 0.58074 0.92302 0.14435 0.0
H741 H 0.52541 0.89313 0.13099 0.0
C742 C 0.185 0.55848 0.66896 0.0
C743 C 0.19742 0.54217 0.67241 0.0
C744 C 0.20835 0.53856 0.6581 0.0
C745 C 0.20205 0.55284 0.64676 0.0
N746 N 0.18784 0.56517 0.65304 0.0
Co747 Co 0.17485 0.58782 0.64091 0.0
N748 N 0.18257 0.57659 0.61872 0.0
C749 C 0.19719 0.56289 0.61605 0.0
C750 C 0.19973 0.55829 0.59939 0.0
C751 C 0.18599 0.56996 0.59101 0.0
C752 C 0.17575 0.58108 0.6031 0.0
N753 N 0.16199 0.61053 0.62871 0.0
C754 C 0.15703 0.61239 0.6122 0.0
C755 C 0.14861 0.63116 0.60907 0.0
C756 C 0.14865 0.6414 0.62408 0.0
C757 C 0.157 0.62838 0.63556 0.0
N758 N 0.16728 0.59873 0.66327 0.0
C759 C 0.16179 0.61784 0.66644 0.0
C760 C 0.15701 0.62086 0.68306 0.0
C761 C 0.15974 0.6025 0.69077 0.0
C762 C 0.16609 0.58925 0.67841 0.0
N763 N 0.20038 0.60349 0.64161 0.0
C764 C 0.23368 0.6304 0.6432 0.0
C765 C 0.22749 0.61917 0.65732 0.0
C766 C 0.211 0.6058 0.65625 0.0
C767 C 0.22307 0.62715 0.62817 0.0
C768 C 0.20669 0.61378 0.62764 0.0
N769 N 0.14911 0.57293 0.64021 0.0
C770 C 0.11301 0.57315 0.6442 0.0
C771 C 0.11148 0.55289 0.63944 0.0
C772 C 0.12941 0.5429 0.63492 0.0
C773 C 0.14804 0.55314 0.63546 0.0
C774 C 0.13173 0.58278 0.64447 0.0
H775 H 0.16156 0.54509 0.63206 0.0
H776 H 0.13205 0.59837 0.64813 0.0
H777 H 0.20656 0.59768 0.66741 0.0
H778 H 0.19873 0.61233 0.61591 0.0
C779 C 0.2062 0.5528 0.62954 0.0
C780 C 0.17177 0.56805 0.6814 0.0
C781 C 0.16141 0.59728 0.5991 0.0
C782 C 0.15774 0.63111 0.65308 0.0
H783 H 0.19851 0.5338 0.68405 0.0
H784 H 0.21895 0.52644 0.656 0.0
H785 H 0.21003 0.54744 0.59398 0.0
H786 H 0.18409 0.57054 0.57752 0.0
H787 H 0.14318 0.63691 0.59718 0.0
H788 H 0.14275 0.65634 0.6264 0.0
H789 H 0.15129 0.63451 0.68877 0.0
H790 H 0.15724 0.59924 0.70393 0.0
H791 H 0.23527 0.6207 0.6692 0.0
H792 H 0.22689 0.63543 0.61688 0.0
H793 H 0.09973 0.58176 0.64748 0.0
H794 H 0.12913 0.52721 0.63123 0.0
C795 C 0.45869 0.18561 0.16852 0.0
C796 C 0.47513 0.19776 0.17214 0.0
C797 C 0.47901 0.20878 0.15793 0.0
C798 C 0.46475 0.2028 0.14648 0.0
N799 N 0.45215 0.18872 0.15259 0.0
Co800 Co 0.42946 0.17612 0.14024 0.0
N801 N 0.441 0.18393 0.11813 0.0
C802 C 0.4551 0.19823 0.11567 0.0
C803 C 0.45986 0.20097 0.09906 0.0
C804 C 0.44787 0.18774 0.09048 0.0
C805 C 0.43637 0.17759 0.10239 0.0
N806 N 0.40661 0.16378 0.12784 0.0
C807 C 0.40457 0.15942 0.11123 0.0
C808 C 0.38566 0.1514 0.10801 0.0
C809 C 0.37549 0.15112 0.12304 0.0
C810 C 0.38869 0.15889 0.13463 0.0
N811 N 0.41834 0.16834 0.16249 0.0
C812 C 0.39918 0.16294 0.16556 0.0
C813 C 0.39603 0.15792 0.18213 0.0
C814 C 0.41438 0.16037 0.18991 0.0
C815 C 0.42774 0.1668 0.17764 0.0
N816 N 0.41406 0.20183 0.14106 0.0
C817 C 0.38732 0.23526 0.14269 0.0
C818 C 0.39797 0.22856 0.15695 0.0
C819 C 0.41133 0.21206 0.15585 0.0
C820 C 0.39105 0.22513 0.12753 0.0
C821 C 0.40429 0.20863 0.12699 0.0
N822 N 0.44409 0.15021 0.13941 0.0
C823 C 0.44331 0.11401 0.14262 0.0
C824 C 0.46391 0.11237 0.13886 0.0
C825 C 0.4743 0.13037 0.13519 0.0
C826 C 0.46414 0.14906 0.1355 0.0
C827 C 0.43385 0.13283 0.14292 0.0
H828 H 0.47251 0.16258 0.13266 0.0
H829 H 0.41809 0.13321 0.14604 0.0
H830 H 0.41907 0.20726 0.16709 0.0
H831 H 0.40601 0.201 0.11515 0.0
C832 C 0.46512 0.20699 0.12928 0.0
C833 C 0.44896 0.17225 0.18076 0.0
C834 C 0.41957 0.1641 0.09809 0.0
C835 C 0.38592 0.1593 0.15215 0.0
H836 H 0.48345 0.19856 0.18382 0.0
H837 H 0.49133 0.21918 0.15596 0.0
H838 H 0.47094 0.21114 0.09382 0.0
H839 H 0.44726 0.18622 0.07696 0.0
H840 H 0.37975 0.14648 0.09603 0.0
H841 H 0.36044 0.14544 0.12529 0.0
H842 H 0.3823 0.15226 0.18774 0.0
H843 H 0.41756 0.15767 0.20305 0.0
H844 H 0.39599 0.23599 0.16894 0.0
H845 H 0.38322 0.22941 0.11614 0.0
H846 H 0.43429 0.10078 0.14515 0.0
H847 H 0.49023 0.13014 0.13232 0.0
H848 H 0.07581 0.45671 0.11812 0.0
H849 H 0.04165 0.47034 0.11754 0.0
H850 H 0.05911 0.51651 0.15265 0.0
H851 H 0.09356 0.50377 0.15256 0.0
H852 H 0.01373 0.47388 0.14114 0.0
H853 H 0.0315 0.55058 0.11845 0.0
H854 H 0.04986 0.53056 0.1183 0.0
H855 H 0.04501 0.54452 0.13728 0.0
C856 C 0.07261 0.47005 0.12545 0.0
C857 C 0.0878 0.47913 0.13527 0.0
C858 C 0.05288 0.47774 0.12524 0.0
C859 C 0.04766 0.49475 0.13481 0.0
C860 C 0.06268 0.50371 0.14478 0.0
H861 H 0.93793 0.55929 0.1597 0.0
H862 H 0.97152 0.5445 0.15813 0.0
C863 C 0.08245 0.49614 0.14491 0.0
C864 C 0.02645 0.50272 0.13473 0.0
H865 H 0.99843 0.54565 0.12954 0.0
C866 C 0.01042 0.48954 0.13844 0.0
C867 C 0.02188 0.52316 0.13114 0.0
C868 C 0.03795 0.53796 0.1259 0.0
C869 C 0.99027 0.49631 0.13915 0.0
C870 C 0.98583 0.51682 0.13596 0.0
C871 C 1.00177 0.52995 0.13207 0.0
C872 C 0.96488 0.52514 0.13705 0.0
C873 C 0.97388 0.48158 0.14375 0.0
C874 C 0.94971 0.51921 0.12573 0.0
C875 C 0.93037 0.52789 0.12644 0.0
C876 C 0.9257 0.54277 0.13847 0.0
C877 C 0.94089 0.54827 0.14999 0.0
C878 C 0.96018 0.5397 0.1492 0.0
H879 H 0.98008 0.46733 0.14894 0.0
H880 H 0.96346 0.48829 0.15312 0.0
H881 H 0.96499 0.47789 0.13236 0.0
H882 H 0.95297 0.50819 0.11609 0.0
H883 H 0.91928 0.52336 0.11721 0.0
H884 H 0.50272 0.9221 0.65018 0.0
H885 H 0.51707 0.95622 0.65 0.0
H886 H 0.46582 0.97757 0.62189 0.0
H887 H 0.45126 0.9438 0.62246 0.0
H888 H 0.52931 0.98176 0.62655 0.0
H889 H 0.46494 0.01761 0.65897 0.0
H890 H 0.46731 0.99066 0.65717 0.0
H891 H 0.45729 1.00528 0.64 0.0
C892 C 0.49456 0.93406 0.6439 0.0
C893 C 0.47567 0.93017 0.63654 0.0
C894 C 0.50275 0.95364 0.64385 0.0
C895 C 0.49233 0.96983 0.63636 0.0
C896 C 0.47391 0.9657 0.62834 0.0
H897 H 0.52257 0.09705 0.61747 0.0
H898 H 0.50762 0.06324 0.61702 0.0
C899 C 0.46562 0.94626 0.62857 0.0
C900 C 0.50071 0.99092 0.63679 0.0
H901 H 0.48905 0.03985 0.64677 0.0
C902 C 0.52049 0.99439 0.63107 0.0
C903 C 0.48938 1.00763 0.64274 0.0
C904 C 0.46865 1.00511 0.65023 0.0
C905 C 0.52898 0.01389 0.63087 0.0
C906 C 0.51751 0.03055 0.63653 0.0
C907 C 0.4978 0.02717 0.64225 0.0
C908 C 0.52606 0.05144 0.63714 0.0
C909 C 0.55016 0.01665 0.62442 0.0
C910 C 0.54106 0.05634 0.64886 0.0
C911 C 0.54941 0.07575 0.64935 0.0
C912 C 0.54319 0.0909 0.63801 0.0
C913 C 0.52776 0.08602 0.6265 0.0
C914 C 0.51926 0.06658 0.62614 0.0
H915 H 0.55578 1.00303 0.61779 0.0
H916 H 0.55092 0.02971 0.61571 0.0
H917 H 0.56035 0.01979 0.63515 0.0
H918 H 0.54633 0.0451 0.65769 0.0
H919 H 0.56077 0.07884 0.65875 0.0
H920 H 0.09698 0.52199 0.39716 0.0
H921 H 0.0634 0.50668 0.39707 0.0
H922 H 0.04518 0.54687 0.35734 0.0
H923 H 0.07881 0.56122 0.35654 0.0
H924 H 0.02739 0.52121 0.40399 0.0
H925 H 0.02501 0.49595 0.33792 0.0
H926 H 0.04789 0.50488 0.34757 0.0
H927 H 0.02974 0.52246 0.33925 0.0
C928 C 0.08601 0.52731 0.38812 0.0
C929 C 0.09092 0.543 0.37688 0.0
C930 C 0.06664 0.51863 0.3882 0.0
C931 C 0.05158 0.52529 0.37701 0.0
C932 C 0.05645 0.54095 0.36584 0.0
H933 H 0.92179 0.50282 0.36501 0.0
H934 H 0.95581 0.51754 0.3654 0.0
C935 C 0.07579 0.54947 0.36562 0.0
C936 C 0.03067 0.51644 0.37737 0.0
H937 H 0.99344 0.49668 0.35242 0.0
C938 C 0.0201 0.51571 0.3927 0.0
C939 C 0.02089 0.50913 0.3627 0.0
C940 C 0.03156 0.50794 0.34598 0.0
C941 C 1.00015 0.50838 0.39369 0.0
C942 C 0.99031 0.50154 0.37898 0.0
C943 C 1.00083 0.50215 0.36368 0.0
C944 C 0.96937 0.49305 0.37933 0.0
C945 C 0.98956 0.50826 0.41045 0.0
C946 C 0.96554 0.4744 0.38702 0.0
C947 C 0.94618 0.46591 0.38671 0.0
C948 C 0.93 0.47588 0.37878 0.0
C949 C 0.93377 0.49478 0.37136 0.0
C950 C 0.95327 0.50317 0.37149 0.0
H951 H 0.99768 0.51739 0.41998 0.0
H952 H 0.97397 0.51414 0.40915 0.0
H953 H 0.98856 0.49254 0.41513 0.0
H954 H 0.97766 0.46619 0.39304 0.0
H955 H 0.94387 0.45142 0.39266 0.0
H956 H 0.55859 0.93811 0.85522 0.0
H957 H 0.54391 0.97174 0.85685 0.0
H958 H 0.50848 0.95355 0.89958 0.0
H959 H 0.52349 0.91977 0.89832 0.0
H960 H 0.48667 0.97682 0.8749 0.0
H961 H 0.55815 0.0141 0.8931 0.0
H962 H 0.55994 0.99868 0.87462 0.0
H963 H 0.55455 0.9872 0.89458 0.0
C964 C 0.54784 0.94119 0.86513 0.0
C965 C 0.54256 0.92609 0.87682 0.0
C966 C 0.5394 0.96053 0.866 0.0
C967 C 0.52535 0.96542 0.87854 0.0
C968 C 0.51939 0.95025 0.88985 0.0
H969 H 0.4897 0.08904 0.90495 0.0
H970 H 0.50214 0.05428 0.9054 0.0
C971 C 0.52793 0.93084 0.88904 0.0
C972 C 0.51706 0.98638 0.87978 0.0
H973 H 0.53101 0.03558 0.88549 0.0
C974 C 0.49636 0.98964 0.8773 0.0
C975 C 0.52959 1.00321 0.88311 0.0
C976 C 0.55177 1.0007 0.88666 0.0
C977 C 0.48799 1.0092 0.87758 0.0
C978 C 0.50065 0.0261 0.88029 0.0
C979 C 0.52126 0.02276 0.88325 0.0
C980 C 0.49286 0.04733 0.88001 0.0
C981 C 0.46558 0.01157 0.87515 0.0
C982 C 0.4837 0.05528 0.86553 0.0
C983 C 0.47653 0.07519 0.86524 0.0
C984 C 0.47836 0.08779 0.87941 0.0
C985 C 0.48774 0.07982 0.89385 0.0
C986 C 0.49499 0.05992 0.89411 0.0
H987 H 0.4574 0.99733 0.87784 0.0
H988 H 0.45946 0.02362 0.88336 0.0
H989 H 0.46253 0.01577 0.8619 0.0
H990 H 0.48217 0.04611 0.85436 0.0
H991 H 0.46925 0.08058 0.85392 0.0
H992 H 0.92223 0.51244 0.87314 0.0
H993 H 0.9559 0.49739 0.87456 0.0
H994 H 0.98118 0.55543 0.88638 0.0
H995 H 0.94772 0.57026 0.88607 0.0
H996 H 0.98881 0.50306 0.85649 0.0
H997 H 1.00798 0.52331 0.9219 0.0
H998 H 0.98285 0.52616 0.91364 0.0
H999 H 1.00169 0.54514 0.90974 0.0
C1000 C 0.93485 0.52198 0.8764 0.0
C1001 C 0.93193 0.5427 0.87946 0.0
C1002 C 0.95424 0.51334 0.87705 0.0
C1003 C 0.9713 0.5251 0.88086 0.0
C1004 C 0.96842 0.54576 0.88384 0.0
H1005 H 0.10165 0.50325 0.87226 0.0
H1006 H 0.06785 0.51827 0.87313 0.0
C1007 C 0.9491 0.55436 0.88335 0.0
C1008 C 0.99212 0.51602 0.88114 0.0
H1009 H 0.03536 0.51234 0.90461 0.0
C1010 C 0.99886 0.50502 0.8671 0.0
C1011 C 1.00549 0.51838 0.89495 0.0
C1012 C 0.99906 0.5287 0.91097 0.0
C1013 C 0.01847 0.49677 0.86638 0.0
C1014 C 0.03188 0.49958 0.87999 0.0
C1015 C 0.0252 0.51041 0.89407 0.0
C1016 C 0.05263 0.49069 0.88 0.0
C1017 C 0.02489 0.48516 0.85102 0.0
C1018 C 0.05547 0.47027 0.88385 0.0
C1019 C 0.07479 0.46167 0.88358 0.0
C1020 C 0.09194 0.4732 0.87931 0.0
C1021 C 0.08902 0.49382 0.87574 0.0
C1022 C 0.06963 0.50245 0.87613 0.0
H1023 H 0.01343 0.48577 0.84086 0.0
H1024 H 0.03934 0.49123 0.84614 0.0
H1025 H 0.02745 0.46917 0.85448 0.0
H1026 H 0.04266 0.46091 0.88704 0.0
H1027 H 0.07624 0.44591 0.88683 0.0
H1028 H 0.56054 0.07832 0.35514 0.0
H1029 H 0.54588 0.04469 0.35662 0.0
H1030 H 0.50743 0.06369 0.3972 0.0
H1031 H 0.52258 0.09737 0.39632 0.0
H1032 H 0.54445 0.01803 0.38733 0.0
H1033 H 0.46927 0.03666 0.36065 0.0
H1034 H 0.49117 0.05221 0.35698 0.0
H1035 H 0.47883 0.05274 0.37702 0.0
C1036 C 0.54915 0.07546 0.36457 0.0
C1037 C 0.54302 0.09082 0.37574 0.0
C1038 C 0.54065 0.05612 0.3653 0.0
C1039 C 0.52551 0.05155 0.37699 0.0
C1040 C 0.51899 0.06684 0.38795 0.0
H1041 H 0.45157 0.94417 0.39308 0.0
H1042 H 0.46664 0.97775 0.39342 0.0
C1043 C 0.52763 0.0862 0.38736 0.0
C1044 C 0.5169 0.0307 0.37784 0.0
H1045 H 0.47445 1.00323 0.3695 0.0
C1046 C 0.52914 0.01478 0.38344 0.0
C1047 C 0.4969 0.0264 0.37285 0.0
C1048 C 0.4832 0.0428 0.36642 0.0
C1049 C 0.52187 0.99481 0.38443 0.0
C1050 C 0.50194 0.99037 0.37913 0.0
C1051 C 0.48972 1.0064 0.37355 0.0
C1052 C 0.49331 0.96938 0.37942 0.0
C1053 C 0.53554 0.97885 0.39166 0.0
C1054 C 0.50312 0.95312 0.37147 0.0
C1055 C 0.49458 0.93371 0.37145 0.0
C1056 C 0.47576 0.93009 0.37905 0.0
C1057 C 0.46599 0.94636 0.38698 0.0
C1058 C 0.47463 0.96566 0.38718 0.0
H1059 H 0.54724 0.98552 0.39993 0.0
H1060 H 0.5269 0.96757 0.39903 0.0
H1061 H 0.54338 0.97097 0.38126 0.0
H1062 H 0.51721 0.9555 0.36493 0.0
H1063 H 0.5024 0.92167 0.365 0.0
H1064 H 0.94072 0.46141 0.66114 0.0
H1065 H 0.9744 0.47613 0.66037 0.0
H1066 H 0.95899 0.50833 0.61513 0.0
H1067 H 0.92511 0.4936 0.61582 0.0
H1068 H 1.00407 0.47267 0.63723 0.0
H1069 H 0.98283 0.5531 0.64322 0.0
H1070 H 0.96518 0.53294 0.64698 0.0
H1071 H 0.97106 0.54053 0.62585 0.0
C1072 C 0.94442 0.4716 0.65097 0.0
C1073 C 0.93002 0.47619 0.6385 0.0
C1074 C 0.96377 0.48008 0.65058 0.0
C1075 C 0.9694 0.49356 0.63778 0.0
C1076 C 0.95504 0.49834 0.62536 0.0
H1077 H 0.0963 0.52572 0.61635 0.0
H1078 H 0.06244 0.51097 0.61534 0.0
C1079 C 0.93559 0.48987 0.62577 0.0
C1080 C 0.99039 0.50207 0.63736 0.0
H1081 H 0.01722 0.54615 0.63776 0.0
C1082 C 1.0069 0.48876 0.63732 0.0
C1083 C 0.99429 0.52306 0.63767 0.0
C1084 C 0.97744 0.53827 0.63859 0.0
C1085 C 0.02699 0.49576 0.63755 0.0
C1086 C 0.0309 0.51675 0.63753 0.0
C1087 C 0.01438 0.53007 0.63761 0.0
C1088 C 0.05189 0.52526 0.63815 0.0
C1089 C 0.04384 0.48053 0.63832 0.0
C1090 C 0.05743 0.53846 0.65115 0.0
C1091 C 0.07677 0.54695 0.65172 0.0
C1092 C 0.09124 0.54264 0.63925 0.0
C1093 C 0.08576 0.52922 0.62631 0.0
C1094 C 0.06632 0.52074 0.62573 0.0
H1095 H 0.03842 0.4656 0.64272 0.0
H1096 H 0.05029 0.47855 0.62557 0.0
H1097 H 0.05605 0.48568 0.64682 0.0
H1098 H 0.04674 0.5422 0.66095 0.0
H1099 H 0.0804 0.55693 0.66204 0.0
H1100 H 0.45602 0.0794 0.15902 0.0
H1101 H 0.47072 0.04577 0.15773 0.0
H1102 H 0.51025 0.06497 0.11793 0.0
H1103 H 0.49507 0.09864 0.11861 0.0
H1104 H 0.47295 0.0192 0.12723 0.0
H1105 H 0.54758 0.0378 0.15489 0.0
H1106 H 0.52562 0.05341 0.15816 0.0
H1107 H 0.53843 0.05386 0.13832 0.0
C1108 C 0.46766 0.07658 0.14979 0.0
C1109 C 0.47408 0.09201 0.13878 0.0
C1110 C 0.47618 0.05724 0.14918 0.0
C1111 C 0.49165 0.05272 0.13777 0.0
C1112 C 0.49845 0.06807 0.12697 0.0
H1113 H 0.56604 0.94541 0.12257 0.0
H1114 H 0.55094 0.97898 0.12208 0.0
C1115 C 0.48978 0.08743 0.12744 0.0
C1116 C 0.50031 0.03187 0.13705 0.0
H1117 H 0.54265 1.00441 0.14589 0.0
C1118 C 0.4882 0.01594 0.1313 0.0
C1119 C 0.52022 0.02757 0.14228 0.0
C1120 C 0.53379 0.04396 0.14887 0.0
C1121 C 0.49551 0.99599 0.1304 0.0
C1122 C 0.51536 0.99154 0.13593 0.0
C1123 C 0.52745 1.00757 0.14166 0.0
C1124 C 0.52403 0.97055 0.13574 0.0
C1125 C 0.482 0.98003 0.123 0.0
C1126 C 0.5141 0.95426 0.14354 0.0
C1127 C 0.52266 0.93485 0.14364 0.0
C1128 C 0.54161 0.93126 0.13627 0.0
C1129 C 0.55151 0.94757 0.12849 0.0
C1130 C 0.54285 0.96686 0.12821 0.0
H1131 H 0.47042 0.98671 0.11459 0.0
H1132 H 0.49077 0.96878 0.11573 0.0
H1133 H 0.47398 0.97212 0.1333 0.0
H1134 H 0.49989 0.9566 0.14991 0.0
H1135 H 0.51474 0.92278 0.14998 0.0
H1136 H 0.1492 0.53513 0.32922 0.0
H1137 H 0.14839 0.5148 0.30347 0.0
H1138 H 0.1896 0.55624 0.27981 0.0
H1139 H 0.19006 0.57676 0.30552 0.0
H1140 H 0.16112 0.54407 0.25769 0.0
H1141 H 0.19262 0.47688 0.28945 0.0
H1142 H 0.16957 0.48545 0.2988 0.0
H1143 H 0.1916 0.50123 0.29943 0.0
C1144 C 0.15773 0.54009 0.31838 0.0
C1145 C 0.16939 0.55773 0.31929 0.0
C1146 C 0.15751 0.52831 0.30371 0.0
C1147 C 0.16928 0.53363 0.28967 0.0
C1148 C 0.18042 0.55167 0.2904 0.0
H1149 H 0.20593 0.45312 0.20766 0.0
H1150 H 0.20366 0.47349 0.2334 0.0
C1151 C 0.18056 0.56351 0.30506 0.0
C1152 C 0.17027 0.52028 0.2744 0.0
H1153 H 0.18118 0.47225 0.26144 0.0
C1154 C 0.16552 0.52837 0.25855 0.0
C1155 C 0.17638 0.49981 0.27529 0.0
C1156 C 0.18304 0.49035 0.29162 0.0
C1157 C 0.16636 0.51662 0.24377 0.0
C1158 C 0.17171 0.49594 0.24475 0.0
C1159 C 0.17679 0.48795 0.26057 0.0
C1160 C 0.17267 0.48254 0.2295 0.0
C1161 C 0.16202 0.5267 0.22716 0.0
C1162 C 0.15589 0.48015 0.21886 0.0
C1163 C 0.15722 0.46853 0.20415 0.0
C1164 C 0.17528 0.45876 0.19978 0.0
C1165 C 0.1918 0.4604 0.21075 0.0
C1166 C 0.1905 0.47211 0.22544 0.0
H1167 H 0.16401 0.54329 0.22793 0.0
H1168 H 0.17198 0.52081 0.21709 0.0
H1169 H 0.14615 0.52372 0.22356 0.0
H1170 H 0.14176 0.48749 0.22183 0.0
H1171 H 0.14425 0.4676 0.19592 0.0
H1172 H 0.53522 0.14932 0.6861 0.0
H1173 H 0.51491 0.14858 0.71189 0.0
H1174 H 0.55637 0.18987 0.73535 0.0
H1175 H 0.57686 0.19026 0.7096 0.0
H1176 H 0.54423 0.16143 0.75757 0.0
H1177 H 0.47698 0.19285 0.72585 0.0
H1178 H 0.48555 0.16979 0.71655 0.0
H1179 H 0.50134 0.19181 0.71583 0.0
C1180 C 0.54019 0.15789 0.69691 0.0
C1181 C 0.55783 0.16955 0.69593 0.0
C1182 C 0.52841 0.15771 0.71159 0.0
C1183 C 0.53375 0.16951 0.72559 0.0
C1184 C 0.55179 0.18066 0.7248 0.0
H1185 H 0.45335 0.20634 0.80766 0.0
H1186 H 0.4737 0.20402 0.7819 0.0
C1187 C 0.56362 0.18077 0.71012 0.0
C1188 C 0.52042 0.17054 0.74088 0.0
H1189 H 0.47239 0.18148 0.7539 0.0
C1190 C 0.52853 0.16582 0.75673 0.0
C1191 C 0.49994 0.17664 0.74001 0.0
C1192 C 0.49046 0.18327 0.72368 0.0
C1193 C 0.51679 0.1667 0.77153 0.0
C1194 C 0.4961 0.17205 0.77057 0.0
C1195 C 0.48809 0.17709 0.75475 0.0
C1196 C 0.48273 0.17303 0.78583 0.0
C1197 C 0.5269 0.16239 0.78813 0.0
C1198 C 0.48033 0.15627 0.7965 0.0
C1199 C 0.46872 0.15763 0.81124 0.0
C1200 C 0.45896 0.1757 0.81559 0.0
C1201 C 0.46061 0.19221 0.80459 0.0
C1202 C 0.47232 0.19088 0.78988 0.0
H1203 H 0.54349 0.16437 0.78733 0.0
H1204 H 0.52102 0.17238 0.79818 0.0
H1205 H 0.5239 0.14654 0.79178 0.0
H1206 H 0.48765 0.14214 0.79355 0.0
H1207 H 0.46777 0.14468 0.81948 0.0
H1208 H 0.86771 0.53495 0.18594 0.0
H1209 H 0.8701 0.5147 0.21172 0.0
H1210 H 0.83493 0.55913 0.23817 0.0
H1211 H 0.83215 0.57909 0.21227 0.0
H1212 H 0.88519 0.52117 0.24329 0.0
H1213 H 0.80286 0.50844 0.2473 0.0
H1214 H 0.81467 0.51922 0.22897 0.0
H1215 H 0.80965 0.5346 0.24709 0.0
C1216 C 0.86078 0.54053 0.19735 0.0
C1217 C 0.85008 0.55882 0.19714 0.0
C1218 C 0.86208 0.52891 0.2121 0.0
C1219 C 0.85245 0.53512 0.22698 0.0
C1220 C 0.84221 0.55371 0.22688 0.0
H1221 H 0.87084 0.48514 0.32812 0.0
H1222 H 0.8724 0.50502 0.30215 0.0
C1223 C 0.8409 0.56533 0.21211 0.0
C1224 C 0.8528 0.52194 0.24239 0.0
H1225 H 0.82235 0.4974 0.27054 0.0
C1226 C 0.87142 0.51598 0.24922 0.0
C1227 C 0.83491 0.51472 0.25008 0.0
C1228 C 0.81439 0.51938 0.24292 0.0
C1229 C 0.87264 0.50347 0.26357 0.0
C1230 C 0.85474 0.49684 0.27161 0.0
C1231 C 0.83613 0.50251 0.26459 0.0
C1232 C 0.8549 0.48408 0.28727 0.0
C1233 C 0.89317 0.49713 0.26974 0.0
C1234 C 0.84434 0.46569 0.28789 0.0
C1235 C 0.84342 0.45432 0.3028 0.0
C1236 C 0.85309 0.46101 0.3175 0.0
C1237 C 0.86372 0.47932 0.31689 0.0
C1238 C 0.86462 0.4907 0.30199 0.0
H1239 H 0.90469 0.49823 0.25965 0.0
H1240 H 0.89787 0.50723 0.28013 0.0
H1241 H 0.89296 0.48143 0.27455 0.0
H1242 H 0.83651 0.46025 0.27685 0.0
H1243 H 0.83455 0.44063 0.30301 0.0
H1244 H 0.57913 0.83269 0.80297 0.0
H1245 H 0.55933 0.83581 0.77701 0.0
H1246 H 0.51469 0.87052 0.80365 0.0
H1247 H 0.53477 0.86782 0.82944 0.0
H1248 H 0.52213 0.82205 0.77039 0.0
H1249 H 0.5214 0.90483 0.76223 0.0
H1250 H 0.53825 0.89235 0.77667 0.0
H1251 H 0.51247 0.89703 0.78249 0.0
C1252 C 0.56543 0.84154 0.80312 0.0
C1253 C 0.55884 0.85056 0.81814 0.0
C1254 C 0.55395 0.84313 0.78831 0.0
C1255 C 0.53556 0.85373 0.78813 0.0
C1256 C 0.52902 0.86275 0.80318 0.0
H1257 H 0.44059 0.83468 0.71244 0.0
H1258 H 0.46038 0.83636 0.73849 0.0
C1259 C 0.5405 0.86118 0.81796 0.0
C1260 C 0.52274 0.85435 0.77252 0.0
H1261 H 0.49844 0.88619 0.74526 0.0
C1262 C 0.51703 0.83611 0.7649 0.0
C1263 C 0.51614 0.87264 0.76509 0.0
C1264 C 0.52253 0.89283 0.77192 0.0
C1265 C 0.50481 0.83562 0.75038 0.0
C1266 C 0.49762 0.85388 0.74329 0.0
C1267 C 0.50361 0.87214 0.75073 0.0
C1268 C 0.48448 0.8543 0.72788 0.0
C1269 C 0.50011 0.81548 0.74255 0.0
C1270 C 0.49079 0.86457 0.71332 0.0
C1271 C 0.47926 0.8639 0.69851 0.0
C1272 C 0.46099 0.8532 0.69791 0.0
C1273 C 0.45435 0.84344 0.7126 0.0
C1274 C 0.46587 0.84412 0.72743 0.0
H1275 H 0.511 0.80371 0.74657 0.0
H1276 H 0.48486 0.8106 0.74655 0.0
H1277 H 0.50032 0.81642 0.72862 0.0
H1278 H 0.50501 0.87256 0.71322 0.0
H1279 H 0.48494 0.87126 0.68731 0.0
H1280 H 0.82342 0.56638 0.80874 0.0
H1281 H 0.8253 0.54662 0.78271 0.0
H1282 H 0.88449 0.52578 0.7968 0.0
H1283 H 0.88222 0.54508 0.8231 0.0
H1284 H 0.84865 0.54605 0.75588 0.0
H1285 H 0.85778 0.47282 0.78828 0.0
H1286 H 0.85167 0.49566 0.79942 0.0
H1287 H 0.87731 0.4904 0.79346 0.0
C1288 C 0.8369 0.55774 0.80614 0.0
C1289 C 0.85268 0.55726 0.81792 0.0
C1290 C 0.83797 0.54636 0.79128 0.0
C1291 C 0.85484 0.53418 0.7878 0.0
C1292 C 0.87102 0.53448 0.79928 0.0
H1293 H 0.87484 0.48199 0.6871 0.0
H1294 H 0.87727 0.5018 0.71307 0.0
C1295 C 0.86987 0.54575 0.81422 0.0
C1296 C 0.8553 0.52115 0.7723 0.0
H1297 H 0.86154 0.47256 0.75862 0.0
C1298 C 0.85149 0.52998 0.75653 0.0
C1299 C 0.8586 0.50003 0.77297 0.0
C1300 C 0.86136 0.48911 0.78944 0.0
C1301 C 0.85107 0.5185 0.7416 0.0
C1302 C 0.85511 0.4975 0.7422 0.0
C1303 C 0.85871 0.48863 0.75798 0.0
C1304 C 0.85501 0.48443 0.72673 0.0
C1305 C 0.84561 0.52897 0.72539 0.0
C1306 C 0.84253 0.4673 0.72582 0.0
C1307 C 0.84151 0.45569 0.71105 0.0
C1308 C 0.85305 0.46083 0.69687 0.0
C1309 C 0.86595 0.47756 0.6979 0.0
C1310 C 0.8671 0.48907 0.7127 0.0
H1311 H 0.83719 0.54316 0.72773 0.0
H1312 H 0.85961 0.53291 0.71851 0.0
H1313 H 0.83629 0.51913 0.71723 0.0
H1314 H 0.83306 0.46324 0.73637 0.0
H1315 H 0.83114 0.44312 0.7105 0.0
H1316 H 0.44254 0.83229 0.30471 0.0
H1317 H 0.46277 0.83435 0.27888 0.0
H1318 H 0.5016 0.87798 0.30254 0.0
H1319 H 0.48168 0.87541 0.32846 0.0
H1320 H 0.47249 0.86292 0.25681 0.0
H1321 H 0.54268 0.83765 0.28782 0.0
H1322 H 0.51856 0.83689 0.29823 0.0
H1323 H 0.53257 0.86007 0.29712 0.0
C1324 C 0.45518 0.84258 0.30424 0.0
C1325 C 0.46037 0.85391 0.31851 0.0
C1326 C 0.46685 0.84368 0.2895 0.0
C1327 C 0.4841 0.85601 0.28871 0.0
C1328 C 0.48878 0.86792 0.30282 0.0
H1329 H 0.54549 0.88305 0.19249 0.0
H1330 H 0.52614 0.8855 0.21877 0.0
C1331 C 0.47721 0.86669 0.31759 0.0
C1332 C 0.49727 0.85613 0.27328 0.0
H1333 H 0.54585 0.84931 0.25974 0.0
C1334 C 0.48853 0.85994 0.25749 0.0
C1335 C 0.51823 0.85188 0.27393 0.0
C1336 C 0.52855 0.84618 0.29015 0.0
C1337 C 0.50002 0.85982 0.24254 0.0
C1338 C 0.52112 0.85631 0.24327 0.0
C1339 C 0.52981 0.85231 0.25905 0.0
C1340 C 0.53423 0.85578 0.22781 0.0
C1341 C 0.48922 0.86279 0.22604 0.0
C1342 C 0.5463 0.83882 0.22437 0.0
C1343 C 0.55773 0.83766 0.20954 0.0
C1344 C 0.55739 0.85341 0.19772 0.0
C1345 C 0.54604 0.87071 0.20139 0.0
C1346 C 0.53473 0.87196 0.21632 0.0
H1347 H 0.47289 0.85937 0.22714 0.0
H1348 H 0.4907 0.87875 0.22208 0.0
H1349 H 0.49574 0.8531 0.21605 0.0
H1350 H 0.54642 0.82615 0.23295 0.0
H1351 H 0.56627 0.8241 0.20696 0.0
H1352 H 0.20047 0.45137 0.80902 0.0
H1353 H 0.19811 0.4715 0.78319 0.0
H1354 H 0.13824 0.49028 0.79728 0.0
H1355 H 0.14097 0.47061 0.82339 0.0
H1356 H 0.17497 0.47179 0.75629 0.0
H1357 H 0.16321 0.54419 0.78929 0.0
H1358 H 0.16997 0.5214 0.80026 0.0
H1359 H 0.14423 0.5259 0.7942 0.0
C1360 C 0.18674 0.45965 0.80646 0.0
C1361 C 0.1709 0.45945 0.81821 0.0
C1362 C 0.18539 0.47124 0.79171 0.0
C1363 C 0.16818 0.48296 0.7883 0.0
C1364 C 0.15196 0.48196 0.79972 0.0
H1365 H 0.14731 0.53601 0.68794 0.0
H1366 H 0.14526 0.51581 0.71375 0.0
C1367 C 0.15338 0.47048 0.81455 0.0
C1368 C 0.1674 0.49621 0.7729 0.0
H1369 H 0.15975 0.54479 0.75962 0.0
C1370 C 0.17162 0.48775 0.75708 0.0
C1371 C 0.16342 0.51721 0.77374 0.0
C1372 C 0.16016 0.52778 0.79029 0.0
C1373 C 0.1718 0.49947 0.74225 0.0
C1374 C 0.16709 0.52032 0.74301 0.0
C1375 C 0.16308 0.52883 0.75885 0.0
C1376 C 0.16692 0.53362 0.72764 0.0
C1377 C 0.1777 0.48942 0.72597 0.0
C1378 C 0.17892 0.55111 0.72691 0.0
C1379 C 0.17974 0.56292 0.71222 0.0
C1380 C 0.16844 0.55765 0.69794 0.0
C1381 C 0.15599 0.54055 0.69881 0.0
C1382 C 0.15506 0.52883 0.71352 0.0
H1383 H 0.18652 0.47544 0.72822 0.0
H1384 H 0.16389 0.48518 0.71897 0.0
H1385 H 0.18679 0.49966 0.71796 0.0
H1386 H 0.18821 0.55528 0.73753 0.0
H1387 H 0.18978 0.57576 0.71181 0.0
H1388 H 0.54482 0.14035 0.32302 0.0
H1389 H 0.52523 0.13777 0.29687 0.0
H1390 H 0.54863 0.19526 0.28084 0.0
H1391 H 0.56864 0.1974 0.30669 0.0
H1392 H 0.49547 0.15987 0.28544 0.0
H1393 H 0.55648 0.16467 0.23842 0.0
H1394 H 0.56149 0.16088 0.26047 0.0
H1395 H 0.55683 0.18582 0.25239 0.0
C1396 C 0.54613 0.15214 0.31367 0.0
C1397 C 0.55853 0.16888 0.31673 0.0
C1398 C 0.5348 0.15077 0.29876 0.0
C1399 C 0.53553 0.16615 0.28655 0.0
C1400 C 0.5481 0.18285 0.28965 0.0
H1401 H 0.44202 0.19069 0.21106 0.0
H1402 H 0.46235 0.18838 0.23676 0.0
C1403 C 0.55954 0.18412 0.30448 0.0
C1404 C 0.52244 0.16524 0.27108 0.0
H1405 H 0.52305 0.17016 0.2282 0.0
C1406 C 0.50159 0.16198 0.27293 0.0
C1407 C 0.53021 0.16766 0.25458 0.0
C1408 C 0.5525 0.16974 0.25131 0.0
C1409 C 0.48841 0.16152 0.25898 0.0
C1410 C 0.49605 0.16495 0.24257 0.0
C1411 C 0.51696 0.16776 0.24069 0.0
C1412 C 0.48278 0.16564 0.22719 0.0
C1413 C 0.46647 0.1569 0.26204 0.0
C1414 C 0.48745 0.154 0.21291 0.0
C1415 C 0.47588 0.15549 0.19815 0.0
C1416 C 0.45922 0.16852 0.19729 0.0
C1417 C 0.45438 0.18004 0.21155 0.0
C1418 C 0.46604 0.17869 0.22627 0.0
H1419 H 0.46432 0.14829 0.27389 0.0
H1420 H 0.458 0.17123 0.26325 0.0
H1421 H 0.4599 0.1481 0.25153 0.0
H1422 H 0.50027 0.14391 0.21308 0.0
H1423 H 0.48024 0.14679 0.18723 0.0
H1424 H 0.1378 0.43673 0.93955 0.0
H1425 H 0.13677 0.43277 0.97031 0.0
H1426 H 0.18274 0.38705 0.96725 0.0
H1427 H 0.18372 0.39101 0.93654 0.0
H1428 H 0.13081 0.397 0.99228 0.0
H1429 H 0.2066 0.43173 0.99849 0.0
H1430 H 0.19164 0.4341 0.97965 0.0
H1431 H 0.20474 0.41103 0.98403 0.0
C1432 C 0.14727 0.42548 0.94546 0.0
C1433 C 0.16059 0.41394 0.93567 0.0
C1434 C 0.14677 0.42329 0.96302 0.0
C1435 C 0.15982 0.40975 0.97117 0.0
C1436 C 0.17264 0.39771 0.96131 0.0
H1437 H 0.19357 0.39444 0.07703 0.0
H1438 H 0.19027 0.39101 0.04637 0.0
C1439 C 0.17305 0.39981 0.94376 0.0
C1440 C 0.16078 0.40896 0.98995 0.0
H1441 H 0.19147 0.41969 0.02331 0.0
C1442 C 0.14407 0.40195 0.99908 0.0
C1443 C 0.17808 0.41536 0.99888 0.0
C1444 C 0.19627 0.42364 0.98984 0.0
C1445 C 0.1443 0.40089 0.0168 0.0
C1446 C 0.16153 0.40756 0.02578 0.0
C1447 C 0.17826 0.41449 0.01658 0.0
C1448 C 0.16247 0.40798 0.04464 0.0
C1449 C 0.12621 0.39218 0.02568 0.0
C1450 C 0.14794 0.41851 0.05408 0.0
C1451 C 0.1497 0.42019 0.0716 0.0
C1452 C 0.16614 0.41157 0.08011 0.0
C1453 C 0.18057 0.40088 0.07079 0.0
C1454 C 0.17874 0.39907 0.05326 0.0
H1455 H 0.11758 0.38194 0.01732 0.0
H1456 H 0.13068 0.38371 0.03712 0.0
H1457 H 0.116 0.40461 0.02946 0.0
H1458 H 0.13558 0.42608 0.04785 0.0
H1459 H 0.13865 0.42893 0.07847 0.0
H1460 H 0.62684 0.17715 0.43635 0.0
H1461 H 0.62988 0.17387 0.467 0.0
H1462 H 0.57876 0.13382 0.46751 0.0
H1463 H 0.57599 0.13689 0.43684 0.0
H1464 H 0.60174 0.18522 0.4901 0.0
H1465 H 0.61737 0.10382 0.49813 0.0
H1466 H 0.61982 0.11641 0.47812 0.0
H1467 H 0.59541 0.10893 0.48568 0.0
C1468 C 0.6167 0.16714 0.44298 0.0
C1469 C 0.60151 0.15685 0.43417 0.0
C1470 C 0.6183 0.1654 0.46052 0.0
C1471 C 0.60476 0.15334 0.46969 0.0
C1472 C 0.58976 0.1428 0.46081 0.0
H1473 H 0.57588 0.13731 0.57594 0.0
H1474 H 0.57866 0.13466 0.54521 0.0
C1475 C 0.58815 0.14455 0.44327 0.0
C1476 C 0.60535 0.15307 0.48854 0.0
H1477 H 0.60851 0.12202 0.52287 0.0
C1478 C 0.60342 0.1714 0.49723 0.0
C1479 C 0.60737 0.13506 0.49798 0.0
C1480 C 0.6103 0.11495 0.48952 0.0
C1481 C 0.60302 0.17219 0.51493 0.0
C1482 C 0.60504 0.15419 0.52439 0.0
C1483 C 0.60702 0.13584 0.51571 0.0
C1484 C 0.60467 0.15416 0.54324 0.0
C1485 C 0.59973 0.1923 0.52332 0.0
C1486 C 0.61875 0.16541 0.55254 0.0
C1487 C 0.61719 0.16687 0.5701 0.0
C1488 C 0.6017 0.15685 0.5788 0.0
C1489 C 0.58816 0.14491 0.56959 0.0
C1490 C 0.58969 0.14348 0.55202 0.0
H1491 H 0.59314 0.20352 0.51453 0.0
H1492 H 0.58961 0.19083 0.53437 0.0
H1493 H 0.61442 0.19825 0.52773 0.0
H1494 H 0.63068 0.17351 0.54618 0.0
H1495 H 0.6276 0.17649 0.57682 0.0
H1496 H 0.84111 0.62633 0.0768 0.0
H1497 H 0.84523 0.628 0.04613 0.0
H1498 H 0.88555 0.57711 0.04806 0.0
H1499 H 0.88115 0.5753 0.07868 0.0
H1500 H 0.87765 0.63266 0.02443 0.0
H1501 H 0.84289 0.55751 0.01552 0.0
H1502 H 0.84215 0.57061 0.03536 0.0
H1503 H 0.86448 0.55722 0.02909 0.0
C1504 C 0.85121 0.61581 0.07068 0.0
C1505 C 0.86105 0.60086 0.08013 0.0
C1506 C 0.85347 0.61668 0.05313 0.0
C1507 C 0.86543 0.60247 0.04463 0.0
C1508 C 0.87591 0.58802 0.05419 0.0
H1509 H 0.88483 0.57445 0.93826 0.0
H1510 H 0.88766 0.5771 0.96897 0.0
C1511 C 0.8736 0.58712 0.07172 0.0
C1512 C 0.86635 0.60232 0.02579 0.0
H1513 H 0.8567 0.57298 0.99134 0.0
C1514 C 0.87304 0.61961 0.01721 0.0
C1515 C 0.86028 0.58535 0.01623 0.0
C1516 C 0.85186 0.56669 0.02448 0.0
C1517 C 0.87416 0.62025 0.99949 0.0
C1518 C 0.86813 0.60326 0.98996 0.0
C1519 C 0.86147 0.58598 0.99855 0.0
C1520 C 0.86813 0.60309 0.9711 0.0
C1521 C 0.88217 0.63901 0.99115 0.0
C1522 C 0.85641 0.6169 0.9619 0.0
C1523 C 0.85491 0.61545 0.94433 0.0
C1524 C 0.86513 0.60018 0.93554 0.0
C1525 C 0.87718 0.58663 0.94467 0.0
C1526 C 0.87865 0.58806 0.96224 0.0
H1527 H 0.89141 0.64814 0.99995 0.0
H1528 H 0.89146 0.63524 0.97999 0.0
H1529 H 0.86932 0.64845 0.98695 0.0
H1530 H 0.84769 0.6283 0.96836 0.0
H1531 H 0.84502 0.62569 0.93767 0.0
H1532 H 0.44473 0.88339 0.57831 0.0
H1533 H 0.44245 0.88698 0.54762 0.0
H1534 H 0.39078 0.84765 0.5472 0.0
H1535 H 0.393 0.84424 0.57786 0.0
H1536 H 0.44639 0.85689 0.52461 0.0
H1537 H 0.3715 0.89244 0.5165 0.0
H1538 H 0.38427 0.89166 0.53651 0.0
H1539 H 0.3709 0.86992 0.52898 0.0
C1540 C 0.43255 0.87601 0.57167 0.0
C1541 C 0.41873 0.86398 0.58051 0.0
C1542 C 0.43133 0.87793 0.55412 0.0
C1543 C 0.41624 0.86786 0.54498 0.0
C1544 C 0.40222 0.85605 0.55388 0.0
H1545 H 0.39361 0.84372 0.43881 0.0
H1546 H 0.39177 0.84702 0.46954 0.0
C1547 C 0.40346 0.85412 0.57143 0.0
C1548 C 0.41616 0.86845 0.52614 0.0
H1549 H 0.38692 0.8792 0.49179 0.0
C1550 C 0.43343 0.86196 0.51746 0.0
C1551 C 0.39923 0.8749 0.51669 0.0
C1552 C 0.38048 0.8828 0.52512 0.0
C1553 C 0.43412 0.86133 0.49976 0.0
C1554 C 0.4172 0.86777 0.4903 0.0
C1555 C 0.39992 0.8743 0.49896 0.0
C1556 C 0.41711 0.86739 0.47146 0.0
C1557 C 0.45279 0.85311 0.49138 0.0
C1558 C 0.4315 0.87824 0.46213 0.0
C1559 C 0.43247 0.87643 0.44457 0.0
C1560 C 0.41888 0.86398 0.43591 0.0
C1561 C 0.40398 0.85375 0.44514 0.0
C1562 C 0.40303 0.85554 0.46271 0.0
H1563 H 0.462 0.84394 0.50019 0.0
H1564 H 0.44884 0.84365 0.48036 0.0
H1565 H 0.46223 0.86583 0.48694 0.0
H1566 H 0.44231 0.88778 0.46848 0.0
H1567 H 0.44425 0.88426 0.43778 0.0
H1568 H 0.13684 0.57535 0.43861 0.0
H1569 H 0.13316 0.57782 0.46927 0.0
H1570 H 0.17295 0.62913 0.46959 0.0
H1571 H 0.17645 0.62671 0.43895 0.0
H1572 H 0.16325 0.57365 0.49227 0.0
H1573 H 0.1284 0.64885 0.50033 0.0
H1574 H 0.12902 0.63606 0.48033 0.0
H1575 H 0.15092 0.64921 0.48784 0.0
C1576 C 0.14428 0.58751 0.44521 0.0
C1577 C 0.1565 0.60116 0.43635 0.0
C1578 C 0.14232 0.58884 0.46275 0.0
C1579 C 0.15252 0.60386 0.47186 0.0
C1580 C 0.16446 0.61774 0.46293 0.0
H1581 H 0.17678 0.62619 0.57814 0.0
H1582 H 0.1734 0.62823 0.54742 0.0
C1583 C 0.16643 0.61639 0.44539 0.0
C1584 C 0.15194 0.60397 0.49072 0.0
H1585 H 0.14144 0.63329 0.52506 0.0
C1586 C 0.15829 0.58665 0.49941 0.0
C1587 C 0.14566 0.62095 0.50016 0.0
C1588 C 0.13793 0.63977 0.49172 0.0
C1589 C 0.15892 0.58595 0.51711 0.0
C1590 C 0.1526 0.6029 0.52657 0.0
C1591 C 0.14623 0.62024 0.5179 0.0
C1592 C 0.15294 0.60297 0.54542 0.0
C1593 C 0.167 0.56722 0.52549 0.0
C1594 C 0.14204 0.58859 0.55472 0.0
C1595 C 0.14391 0.5875 0.57227 0.0
C1596 C 0.15645 0.60096 0.58097 0.0
C1597 C 0.16668 0.6159 0.57179 0.0
C1598 C 0.16485 0.61697 0.55422 0.0
H1599 H 0.17615 0.55798 0.5167 0.0
H1600 H 0.17644 0.57107 0.53655 0.0
H1601 H 0.1542 0.55784 0.52987 0.0
H1602 H 0.13245 0.57785 0.54835 0.0
H1603 H 0.13608 0.57568 0.57902 0.0
H1604 H 0.43326 0.14112 0.93736 0.0
H1605 H 0.43048 0.13797 0.96798 0.0
H1606 H 0.38822 0.18732 0.96878 0.0
H1607 H 0.3915 0.19075 0.9381 0.0
H1608 H 0.41661 0.19255 0.992 0.0
H1609 H 0.38861 0.11448 0.99836 0.0
H1610 H 0.41134 0.11579 0.98624 0.0
H1611 H 0.38874 0.1276 0.97849 0.0
C1612 C 0.42301 0.15094 0.94408 0.0
C1613 C 0.41232 0.16595 0.93538 0.0
C1614 C 0.42136 0.14911 0.9616 0.0
C1615 C 0.40884 0.16215 0.97084 0.0
C1616 C 0.39787 0.17695 0.96203 0.0
H1617 H 0.39068 0.18259 0.07907 0.0
H1618 H 0.38669 0.18147 0.04839 0.0
C1619 C 0.3996 0.17884 0.94449 0.0
C1620 C 0.40837 0.16132 0.9897 0.0
H1621 H 0.40174 0.12969 0.02333 0.0
C1622 C 0.41312 0.17883 0.99881 0.0
C1623 C 0.40394 0.14343 0.99876 0.0
C1624 C 0.39767 0.12432 0.98996 0.0
C1625 C 0.41405 0.17885 0.01651 0.0
C1626 C 0.40985 0.16093 0.02553 0.0
C1627 C 0.40499 0.14343 0.01648 0.0
C1628 C 0.41082 0.16009 0.04433 0.0
C1629 C 0.42013 0.19797 0.02539 0.0
C1630 C 0.42514 0.14783 0.05244 0.0
C1631 C 0.42727 0.14833 0.07 0.0
C1632 C 0.41495 0.16086 0.07985 0.0
C1633 C 0.40013 0.17253 0.07181 0.0
C1634 C 0.39803 0.17208 0.05426 0.0
H1635 H 0.42742 0.20887 0.01671 0.0
H1636 H 0.40653 0.20526 0.03074 0.0
H1637 H 0.43067 0.1947 0.03588 0.0
H1638 H 0.43519 0.13844 0.04512 0.0
H1639 H 0.43903 0.13946 0.07587 0.0
H1640 H 0.84339 0.39372 0.43786 0.0
H1641 H 0.84673 0.39179 0.46858 0.0
H1642 H 0.88791 0.44198 0.46754 0.0
H1643 H 0.88433 0.44403 0.43686 0.0
H1644 H 0.8787 0.38656 0.49084 0.0
H1645 H 0.84448 0.46208 0.49932 0.0
H1646 H 0.84406 0.44901 0.47946 0.0
H1647 H 0.86639 0.46209 0.48611 0.0
C1648 C 0.85352 0.404 0.44419 0.0
C1649 C 0.86384 0.41884 0.43497 0.0
C1650 C 0.85533 0.40299 0.46176 0.0
C1651 C 0.86731 0.41695 0.47052 0.0
C1652 C 0.87826 0.43127 0.4612 0.0
H1653 H 0.88387 0.44431 0.57735 0.0
H1654 H 0.88737 0.44197 0.54667 0.0
C1655 C 0.87642 0.4323 0.44364 0.0
C1656 C 0.86771 0.41701 0.48937 0.0
H1657 H 0.85734 0.44629 0.52371 0.0
C1658 C 0.87401 0.39963 0.49801 0.0
C1659 C 0.86153 0.434 0.49886 0.0
C1660 C 0.85355 0.45279 0.4905 0.0
C1661 C 0.87463 0.3989 0.51575 0.0
C1662 C 0.86846 0.4159 0.52522 0.0
C1663 C 0.86221 0.43327 0.51655 0.0
C1664 C 0.86794 0.41598 0.54407 0.0
C1665 C 0.88228 0.38003 0.52416 0.0
C1666 C 0.856 0.4021 0.553 0.0
C1667 C 0.85413 0.40338 0.57056 0.0
C1668 C 0.86416 0.41854 0.5796 0.0
C1669 C 0.87634 0.43221 0.57073 0.0
C1670 C 0.87821 0.43095 0.55319 0.0
H1671 H 0.89178 0.37093 0.51552 0.0
H1672 H 0.89121 0.38366 0.53555 0.0
H1673 H 0.86926 0.37062 0.528 0.0
H1674 H 0.84744 0.39076 0.54635 0.0
H1675 H 0.84414 0.39304 0.577 0.0
H1676 H 0.57395 0.88357 0.07656 0.0
H1677 H 0.57677 0.88551 0.04579 0.0
H1678 H 0.62921 0.84722 0.04755 0.0
H1679 H 0.62606 0.84491 0.07823 0.0
H1680 H 0.60631 0.89796 0.02331 0.0
H1681 H 0.59238 0.81606 0.01634 0.0
H1682 H 0.58867 0.82911 0.03596 0.0
H1683 H 0.61359 0.8219 0.02943 0.0
C1684 C 0.58631 0.87594 0.07036 0.0
C1685 C 0.59995 0.86434 0.0798 0.0
C1686 C 0.58788 0.87696 0.05277 0.0
C1687 C 0.603 0.86623 0.04421 0.0
C1688 C 0.61717 0.85534 0.05374 0.0
H1689 H 0.62666 0.8415 0.93791 0.0
H1690 H 0.62919 0.84541 0.96852 0.0
C1691 C 0.61556 0.85427 0.07131 0.0
C1692 C 0.60344 0.86577 0.02537 0.0
H1693 H 0.60093 0.83392 0.99162 0.0
C1694 C 0.60512 0.88395 0.01639 0.0
C1695 C 0.60179 0.84753 0.01622 0.0
C1696 C 0.59881 0.82755 0.02494 0.0
C1697 C 0.60555 0.88434 0.99865 0.0
C1698 C 0.60394 0.86608 0.98952 0.0
C1699 C 0.6023 0.84793 0.99852 0.0
C1700 C 0.60353 0.86537 0.97068 0.0
C1701 C 0.60813 0.9043 0.98985 0.0
C1702 C 0.58837 0.87535 0.96153 0.0
C1703 C 0.58704 0.87324 0.944 0.0
C1704 C 0.60085 0.86113 0.93521 0.0
C1705 C 0.61616 0.85136 0.9443 0.0
C1706 C 0.61748 0.85345 0.96182 0.0
H1707 H 0.61483 0.9158 0.9983 0.0
H1708 H 0.61783 0.90276 0.97855 0.0
H1709 H 0.59315 0.90989 0.98576 0.0
H1710 H 0.57708 0.8842 0.968 0.0
H1711 H 0.57479 0.8805 0.93735 0.0
H1712 H 0.26865 0.39432 0.14932 0.0
H1713 H 0.29602 0.36959 0.14884 0.0
H1714 H 0.25331 0.32253 0.13806 0.0
H1715 H 0.22615 0.34714 0.13754 0.0
H1716 H 0.30478 0.33755 0.16737 0.0
H1717 H 0.29353 0.31057 0.10242 0.0
H1718 H 0.2808 0.33253 0.11046 0.0
H1719 H 0.27119 0.30769 0.11483 0.0
C1720 C 0.26501 0.37879 0.14654 0.0
C1721 C 0.24487 0.37304 0.14342 0.0
C1722 C 0.28079 0.36452 0.14643 0.0
C1723 C 0.27704 0.34401 0.14312 0.0
C1724 C 0.25695 0.3382 0.14024 0.0
H1725 H 0.35963 0.24375 0.1677 0.0
H1726 H 0.33372 0.26999 0.16816 0.0
C1727 C 0.24122 0.35242 0.14024 0.0
C1728 C 0.29395 0.32871 0.14298 0.0
H1729 H 0.31497 0.29058 0.11975 0.0
C1730 C 0.30702 0.32737 0.15689 0.0
C1731 C 0.29736 0.31545 0.12927 0.0
C1732 C 0.28512 0.31674 0.11333 0.0
C1733 C 0.32288 0.31311 0.15761 0.0
C1734 C 0.3257 0.29925 0.14421 0.0
C1735 C 0.31287 0.30087 0.13018 0.0
C1736 C 0.34198 0.28327 0.14427 0.0
C1737 C 0.33676 0.31347 0.1726 0.0
C1738 C 0.35526 0.2813 0.13056 0.0
C1739 C 0.37004 0.26609 0.13019 0.0
C1740 C 0.37211 0.25222 0.14353 0.0
C1741 C 0.35889 0.25427 0.15731 0.0
C1742 C 0.34398 0.26941 0.15761 0.0
H1743 H 0.33672 0.32845 0.17882 0.0
H1744 H 0.33154 0.30221 0.18194 0.0
H1745 H 0.35247 0.30974 0.16896 0.0
H1746 H 0.35424 0.29163 0.12005 0.0
H1747 H 0.37995 0.26526 0.11941 0.0
H1748 H 0.75868 0.37993 0.61764 0.0
H1749 H 0.73221 0.35439 0.6185 0.0
H1750 H 0.7497 0.33842 0.66889 0.0
H1751 H 0.77634 0.36387 0.66812 0.0
H1752 H 0.73441 0.31381 0.62201 0.0
H1753 H 0.68964 0.34416 0.675 0.0
H1754 H 0.70915 0.35859 0.66479 0.0
H1755 H 0.71559 0.33976 0.68015 0.0
C1756 C 0.75703 0.37102 0.62895 0.0
C1757 C 0.7699 0.37422 0.64282 0.0
C1758 C 0.74171 0.35637 0.62944 0.0
C1759 C 0.73854 0.34446 0.64384 0.0
C1760 C 0.7513 0.34762 0.65773 0.0
H1761 H 0.65563 0.24433 0.66719 0.0
H1762 H 0.68144 0.27069 0.66796 0.0
C1763 C 0.76665 0.36229 0.65727 0.0
C1764 C 0.72243 0.32837 0.64399 0.0
H1765 H 0.68044 0.31175 0.66506 0.0
C1766 C 0.72257 0.31348 0.6314 0.0
C1767 C 0.70689 0.32762 0.65625 0.0
C1768 C 0.70512 0.34348 0.66973 0.0
C1769 C 0.70802 0.29794 0.63085 0.0
C1770 C 0.69238 0.29728 0.64302 0.0
C1771 C 0.6923 0.31208 0.65569 0.0
C1772 C 0.67598 0.28149 0.64272 0.0
C1773 C 0.70993 0.28202 0.61743 0.0
C1774 C 0.6637 0.27884 0.62847 0.0
C1775 C 0.64881 0.26376 0.62801 0.0
C1776 C 0.64551 0.25084 0.64184 0.0
C1777 C 0.65744 0.25393 0.6563 0.0
C1778 C 0.67238 0.26903 0.65673 0.0
H1779 H 0.72554 0.28111 0.61246 0.0
H1780 H 0.70555 0.26697 0.62229 0.0
H1781 H 0.69983 0.28589 0.60679 0.0
H1782 H 0.66557 0.28852 0.61763 0.0
H1783 H 0.63976 0.26234 0.61676 0.0
H1784 H 0.77367 0.65722 0.16893 0.0
H1785 H 0.74682 0.68252 0.16995 0.0
H1786 H 0.72931 0.66702 0.11948 0.0
H1787 H 0.75553 0.64126 0.11857 0.0
H1788 H 0.74057 0.71625 0.15119 0.0
H1789 H 0.67528 0.66561 0.14236 0.0
H1790 H 0.70015 0.65623 0.14711 0.0
H1791 H 0.69365 0.66326 0.12594 0.0
C1792 C 0.76391 0.65887 0.15812 0.0
C1793 C 0.76696 0.6469 0.14368 0.0
C1794 C 0.74858 0.67356 0.15868 0.0
C1795 C 0.73563 0.67668 0.1449 0.0
C1796 C 0.73866 0.6648 0.13047 0.0
H1797 H 0.6381 0.75992 0.11889 0.0
H1798 H 0.66387 0.73366 0.11993 0.0
C1799 C 0.75397 0.65014 0.12989 0.0
C1800 C 0.71945 0.6927 0.14539 0.0
H1801 H 0.66882 0.70075 0.13973 0.0
C1802 C 0.72487 0.71278 0.14882 0.0
C1803 C 0.69883 0.68843 0.14227 0.0
C1804 C 0.69156 0.66719 0.13938 0.0
C1805 C 0.71054 0.72858 0.14875 0.0
C1806 C 0.68994 0.72433 0.1455 0.0
C1807 C 0.68451 0.70422 0.1422 0.0
C1808 C 0.6739 0.74049 0.14514 0.0
C1809 C 0.71781 0.74983 0.15161 0.0
C1810 C 0.67038 0.75313 0.15905 0.0
C1811 C 0.65562 0.76839 0.15846 0.0
C1812 C 0.64378 0.77149 0.14395 0.0
C1813 C 0.64703 0.75845 0.1302 0.0
C1814 C 0.66177 0.74321 0.13081 0.0
H1815 H 0.73423 0.75129 0.14921 0.0
H1816 H 0.70968 0.76065 0.1434 0.0
H1817 H 0.715 0.75407 0.16488 0.0
H1818 H 0.67907 0.7512 0.17045 0.0
H1819 H 0.65382 0.77804 0.16931 0.0
H1820 H 0.24409 0.65594 0.66936 0.0
H1821 H 0.27043 0.68179 0.67001 0.0
H1822 H 0.28828 0.66563 0.61977 0.0
H1823 H 0.26214 0.63978 0.61901 0.0
H1824 H 0.31149 0.68089 0.66714 0.0
H1825 H 0.2808 0.72551 0.61425 0.0
H1826 H 0.26669 0.70556 0.62417 0.0
H1827 H 0.28563 0.69977 0.60872 0.0
C1828 C 0.25369 0.6577 0.65846 0.0
C1829 C 0.25061 0.64568 0.64406 0.0
C1830 C 0.26878 0.67266 0.65883 0.0
C1831 C 0.28124 0.67619 0.6448 0.0
C1832 C 0.2786 0.66382 0.63062 0.0
H1833 H 0.37969 0.75872 0.61927 0.0
H1834 H 0.35414 0.73227 0.62028 0.0
C1835 C 0.26353 0.6489 0.63022 0.0
C1836 C 0.29701 0.69261 0.64501 0.0
H1837 H 0.31352 0.73447 0.62374 0.0
C1838 C 0.31182 0.69266 0.65769 0.0
C1839 C 0.29766 0.70816 0.63275 0.0
C1840 C 0.28174 0.70993 0.6193 0.0
C1841 C 0.32735 0.70728 0.65817 0.0
C1842 C 0.32809 0.72271 0.64581 0.0
C1843 C 0.3132 0.72272 0.63321 0.0
C1844 C 0.34418 0.73883 0.64556 0.0
C1845 C 0.34321 0.70564 0.67167 0.0
C1846 C 0.34732 0.75171 0.65937 0.0
C1847 C 0.362 0.76706 0.65882 0.0
C1848 C 0.37395 0.77018 0.64436 0.0
C1849 C 0.37076 0.75718 0.63058 0.0
C1850 C 0.3561 0.74186 0.63115 0.0
H1851 H 0.3439 0.69021 0.67706 0.0
H1852 H 0.35833 0.70963 0.66671 0.0
H1853 H 0.33949 0.7162 0.68201 0.0
H1854 H 0.33811 0.75022 0.67053 0.0
H1855 H 0.36356 0.77685 0.6696 0.0
H1856 H 0.36311 0.77677 0.34742 0.0
H1857 H 0.33759 0.75011 0.34689 0.0
H1858 H 0.35473 0.73209 0.39688 0.0
H1859 H 0.38029 0.75852 0.39749 0.0
H1860 H 0.33922 0.70885 0.34973 0.0
H1861 H 0.29469 0.73906 0.40285 0.0
H1862 H 0.3143 0.75344 0.39272 0.0
H1863 H 0.32058 0.73463 0.40814 0.0
C1864 C 0.36165 0.76706 0.35828 0.0
C1865 C 0.37386 0.77018 0.37257 0.0
C1866 C 0.34687 0.75179 0.35798 0.0
C1867 C 0.34372 0.73919 0.37199 0.0
C1868 C 0.35627 0.74187 0.38606 0.0
H1869 H 0.26227 0.64006 0.39816 0.0
H1870 H 0.28846 0.6659 0.39701 0.0
C1871 C 0.37101 0.75711 0.38638 0.0
C1872 C 0.32748 0.72323 0.37188 0.0
H1873 H 0.28598 0.70629 0.39338 0.0
C1874 C 0.32753 0.70841 0.35923 0.0
C1875 C 0.31205 0.72243 0.38422 0.0
C1876 C 0.31022 0.73834 0.39766 0.0
C1877 C 0.3131 0.69269 0.35886 0.0
C1878 C 0.29776 0.6918 0.37129 0.0
C1879 C 0.29766 0.70673 0.38386 0.0
C1880 C 0.28182 0.67555 0.37165 0.0
C1881 C 0.31487 0.67681 0.34541 0.0
C1882 C 0.26898 0.67214 0.35784 0.0
C1883 C 0.25381 0.65728 0.35847 0.0
C1884 C 0.25082 0.64543 0.373 0.0
C1885 C 0.26374 0.6489 0.38679 0.0
C1886 C 0.2789 0.66372 0.38613 0.0
H1887 H 0.33031 0.67624 0.34003 0.0
H1888 H 0.31101 0.66167 0.3504 0.0
H1889 H 0.30428 0.68041 0.33505 0.0
H1890 H 0.27037 0.68127 0.34663 0.0
H1891 H 0.24406 0.6555 0.34768 0.0
H1892 H 0.38446 0.25998 0.894 0.0
H1893 H 0.35921 0.28695 0.8939 0.0
H1894 H 0.33472 0.26388 0.84764 0.0
H1895 H 0.35965 0.23681 0.84779 0.0
H1896 H 0.3505 0.31751 0.87348 0.0
H1897 H 0.28393 0.26749 0.87413 0.0
H1898 H 0.3091 0.25811 0.87747 0.0
H1899 H 0.30002 0.26271 0.85648 0.0
C1900 C 0.37378 0.26065 0.88374 0.0
C1901 C 0.37414 0.24588 0.871 0.0
C1902 C 0.3592 0.27613 0.88373 0.0
C1903 C 0.34449 0.27739 0.87099 0.0
C1904 C 0.34527 0.26305 0.85798 0.0
H1905 H 0.24484 0.36069 0.84767 0.0
H1906 H 0.27134 0.33494 0.84696 0.0
C1907 C 0.35971 0.2475 0.85805 0.0
C1908 C 0.32861 0.29377 0.87119 0.0
H1909 H 0.27761 0.3022 0.86884 0.0
C1910 C 0.33458 0.31407 0.87257 0.0
C1911 C 0.30765 0.28959 0.87002 0.0
C1912 C 0.29975 0.26829 0.86962 0.0
C1913 C 0.32044 0.33005 0.87246 0.0
C1914 C 0.29954 0.32585 0.87112 0.0
C1915 C 0.29355 0.3056 0.86975 0.0
C1916 C 0.28366 0.34216 0.87138 0.0
C1917 C 0.3281 0.3514 0.8734 0.0
C1918 C 0.28145 0.35498 0.88533 0.0
C1919 C 0.26624 0.36978 0.88578 0.0
C1920 C 0.25269 0.37231 0.87227 0.0
C1921 C 0.25504 0.35953 0.85824 0.0
C1922 C 0.27018 0.34462 0.85786 0.0
H1923 H 0.34426 0.35242 0.86986 0.0
H1924 H 0.31927 0.36149 0.86505 0.0
H1925 H 0.32653 0.35695 0.88648 0.0
H1926 H 0.29131 0.35335 0.89608 0.0
H1927 H 0.26515 0.3793 0.89678 0.0
H1928 H 0.63995 0.26203 0.39588 0.0
H1929 H 0.66572 0.28827 0.39493 0.0
H1930 H 0.68161 0.27032 0.34465 0.0
H1931 H 0.6559 0.24393 0.34551 0.0
H1932 H 0.70618 0.28587 0.39159 0.0
H1933 H 0.67653 0.33028 0.3381 0.0
H1934 H 0.6619 0.31094 0.34835 0.0
H1935 H 0.6808 0.30427 0.33312 0.0
C1936 C 0.64889 0.26354 0.38458 0.0
C1937 C 0.64558 0.25062 0.37076 0.0
C1938 C 0.66367 0.27873 0.38404 0.0
C1939 C 0.67563 0.28171 0.36964 0.0
C1940 C 0.67238 0.26889 0.3558 0.0
H1941 H 0.77681 0.36339 0.34615 0.0
H1942 H 0.75021 0.33781 0.34544 0.0
C1943 C 0.65756 0.25368 0.35632 0.0
C1944 C 0.69187 0.29768 0.36942 0.0
H1945 H 0.70902 0.33925 0.34806 0.0
C1946 C 0.70668 0.29758 0.38209 0.0
C1947 C 0.69284 0.31307 0.35703 0.0
C1948 C 0.67708 0.31483 0.34346 0.0
C1949 C 0.72235 0.312 0.38259 0.0
C1950 C 0.72323 0.32748 0.37029 0.0
C1951 C 0.70852 0.32752 0.35754 0.0
C1952 C 0.73917 0.34374 0.37053 0.0
C1953 C 0.73814 0.31015 0.39613 0.0
C1954 C 0.74178 0.35621 0.38466 0.0
C1955 C 0.75699 0.37097 0.38509 0.0
C1956 C 0.7701 0.37395 0.37133 0.0
C1957 C 0.76706 0.36183 0.35698 0.0
C1958 C 0.75183 0.34702 0.35658 0.0
H1959 H 0.73887 0.2946 0.40128 0.0
H1960 H 0.75328 0.31431 0.39132 0.0
H1961 H 0.73429 0.32043 0.40663 0.0
H1962 H 0.73196 0.35458 0.39544 0.0
H1963 H 0.75834 0.38018 0.39624 0.0
H1964 H 0.78597 0.66556 0.88942 0.0
H1965 H 0.75907 0.69057 0.88838 0.0
H1966 H 0.72691 0.65411 0.85258 0.0
H1967 H 0.75346 0.62853 0.85405 0.0
H1968 H 0.74492 0.7136 0.86315 0.0
H1969 H 0.6824 0.66532 0.88569 0.0
H1970 H 0.70841 0.6576 0.88699 0.0
H1971 H 0.69497 0.65567 0.86743 0.0
C1972 C 0.77306 0.66255 0.88151 0.0
C1973 C 0.77202 0.64463 0.872 0.0
C1974 C 0.75766 0.67709 0.88082 0.0
C1975 C 0.74056 0.67429 0.87064 0.0
C1976 C 0.73958 0.65661 0.86088 0.0
H1977 H 0.63241 0.74984 0.85373 0.0
H1978 H 0.65837 0.72358 0.85241 0.0
C1979 C 0.75502 0.64201 0.86157 0.0
C1980 C 0.72418 0.69011 0.87006 0.0
H1981 H 0.67361 0.69804 0.87635 0.0
C1982 C 0.72935 0.71012 0.86609 0.0
C1983 C 0.70369 0.68583 0.87378 0.0
C1984 C 0.697 0.665 0.87887 0.0
C1985 C 0.71484 0.72572 0.86561 0.0
C1986 C 0.69441 0.72151 0.86956 0.0
C1987 C 0.68916 0.70146 0.87331 0.0
C1988 C 0.67845 0.73773 0.87026 0.0
C1989 C 0.72158 0.74655 0.86053 0.0
C1990 C 0.68069 0.75455 0.88084 0.0
C1991 C 0.66589 0.7697 0.88154 0.0
C1992 C 0.64815 0.76855 0.8718 0.0
C1993 C 0.64585 0.75158 0.86129 0.0
C1994 C 0.6607 0.73638 0.86061 0.0
H1995 H 0.73566 0.74606 0.85299 0.0
H1996 H 0.70979 0.7544 0.8531 0.0
H1997 H 0.72466 0.75554 0.87199 0.0
H1998 H 0.6939 0.75595 0.88872 0.0
H1999 H 0.66856 0.7825 0.88966 0.0
loop_
_geom_bond_atom_site_label_1
_geom_bond_atom_site_label_2
_geom_bond_distance
_geom_bond_site_symmetry_2
_ccdc_geom_bond_type
C0 C1 1.443 . S
C0 N4 1.376 . S
C0 C38 1.389 . S
C1 C0 1.443 . S
C1 C2 1.340 . S
C1 H41 0.951 . S
C2 C1 1.340 . S
C2 C3 1.439 . S
C2 H42 0.950 . S
C3 C2 1.439 . S
C3 N4 1.374 . S
C3 C37 1.395 . S
N4 C0 1.376 . S
N4 C3 1.374 . S
N4 Co5 2.008 . S
Co5 N4 2.008 . S
Co5 N6 1.995 . S
Co5 N11 2.008 . S
Co5 N16 1.995 . S
Co5 N21 2.282 . S
Co5 N27 2.282 . S
N6 Co5 1.995 . S
N6 C7 1.376 . S
N6 C10 1.383 . S
C7 N6 1.376 . S
C7 C8 1.446 . S
C7 C37 1.391 . S
C8 C7 1.446 . S
C8 C9 1.339 . S
C8 H43 0.949 . S
C9 C8 1.339 . S
C9 C10 1.439 . S
C9 H44 0.950 . S
C10 N6 1.383 . S
C10 C9 1.439 . S
C10 C39 1.392 . S
N11 Co5 2.008 . S
N11 C12 1.376 . S
N11 C15 1.374 . S
C12 N11 1.376 . S
C12 C13 1.443 . S
C12 C39 1.389 . S
C13 C12 1.443 . S
C13 C14 1.340 . S
C13 H45 0.951 . S
C14 C13 1.340 . S
C14 C15 1.439 . S
C14 H46 0.950 . S
C15 N11 1.374 . S
C15 C14 1.439 . S
C15 C40 1.395 . S
N16 Co5 1.995 . S
N16 C17 1.376 . S
N16 C20 1.383 . S
C17 N16 1.376 . S
C17 C18 1.446 . S
C17 C40 1.391 . S
C18 C17 1.446 . S
C18 C19 1.339 . S
C18 H47 0.949 . S
C19 C18 1.339 . S
C19 C20 1.439 . S
C19 H48 0.950 . S
C20 N16 1.383 . S
C20 C19 1.439 . S
C20 C38 1.392 . S
N21 Co5 2.282 . S
N21 C24 1.332 . S
N21 C26 1.332 . S
C22 C23 1.386 . S
C22 C25 1.388 . S
C23 C22 1.386 . S
C23 C24 1.382 . S
C23 H49 0.950 . S
C24 N21 1.332 . S
C24 C23 1.382 . S
C24 H35 0.952 . S
C25 C22 1.388 . S
C25 C26 1.382 . S
C25 H50 0.950 . S
C26 N21 1.332 . S
C26 C25 1.382 . S
C26 H36 0.948 . S
N27 Co5 2.282 . S
N27 C31 1.332 . S
N27 C32 1.332 . S
C28 C29 1.388 . S
C28 C32 1.382 . S
C28 H51 0.950 . S
C29 C28 1.388 . S
C29 C30 1.386 . S
C30 C29 1.386 . S
C30 C31 1.382 . S
C30 H52 0.950 . S
C31 N27 1.332 . S
C31 C30 1.382 . S
C31 H33 0.952 . S
C32 N27 1.332 . S
C32 C28 1.382 . S
C32 H34 0.948 . S
H33 C31 0.952 . S
H34 C32 0.948 . S
H35 C24 0.952 . S
H36 C26 0.948 . S
C37 C3 1.395 . S
C37 C7 1.391 . S
C38 C0 1.389 . S
C38 C20 1.392 . S
C39 C10 1.392 . S
C39 C12 1.389 . S
C40 C15 1.395 . S
C40 C17 1.391 . S
H41 C1 0.951 . S
H42 C2 0.950 . S
H43 C8 0.949 . S
H44 C9 0.950 . S
H45 C13 0.951 . S
H46 C14 0.950 . S
H47 C18 0.949 . S
H48 C19 0.950 . S
H49 C23 0.950 . S
H50 C25 0.950 . S
H51 C28 0.950 . S
H52 C30 0.950 . S
C53 C54 1.443 . S
C53 N57 1.376 . S
C53 C91 1.389 . S
C54 C53 1.443 . S
C54 C55 1.340 . S
C54 H94 0.951 . S
C55 C54 1.340 . S
C55 C56 1.439 . S
C55 H95 0.950 . S
C56 C55 1.439 . S
C56 N57 1.374 . S
C56 C90 1.395 . S
N57 C53 1.376 . S
N57 C56 1.374 . S
N57 Co58 2.008 . S
Co58 N57 2.008 . S
Co58 N59 1.995 . S
Co58 N64 2.008 . S
Co58 N69 1.995 . S
Co58 N74 2.282 . S
Co58 N80 2.282 . S
N59 Co58 1.995 . S
N59 C60 1.376 . S
N59 C63 1.383 . S
C60 N59 1.376 . S
C60 C61 1.446 . S
C60 C90 1.391 . S
C61 C60 1.446 . S
C61 C62 1.339 . S
C61 H96 0.949 . S
C62 C61 1.339 . S
C62 C63 1.439 . S
C62 H97 0.950 . S
C63 N59 1.383 . S
C63 C62 1.439 . S
C63 C92 1.392 . S
N64 Co58 2.008 . S
N64 C65 1.376 . S
N64 C68 1.374 . S
C65 N64 1.376 . S
C65 C66 1.443 . S
C65 C92 1.389 . S
C66 C65 1.443 . S
C66 C67 1.340 . S
C66 H98 0.951 . S
C67 C66 1.340 . S
C67 C68 1.439 . S
C67 H99 0.950 . S
C68 N64 1.374 . S
C68 C67 1.439 . S
C68 C93 1.395 . S
N69 Co58 1.995 . S
N69 C70 1.376 . S
N69 C73 1.383 . S
C70 N69 1.376 . S
C70 C71 1.446 . S
C70 C93 1.391 . S
C71 C70 1.446 . S
C71 C72 1.339 . S
C71 H100 0.949 . S
C72 C71 1.339 . S
C72 C73 1.439 . S
C72 H101 0.950 . S
C73 N69 1.383 . S
C73 C72 1.439 . S
C73 C91 1.392 . S
N74 Co58 2.282 . S
N74 C77 1.332 . S
N74 C79 1.332 . S
C75 C76 1.386 . S
C75 C78 1.388 . S
C76 C75 1.386 . S
C76 C77 1.382 . S
C76 H102 0.950 . S
C77 N74 1.332 . S
C77 C76 1.382 . S
C77 H88 0.952 . S
C78 C75 1.388 . S
C78 C79 1.382 . S
C78 H103 0.950 . S
C79 N74 1.332 . S
C79 C78 1.382 . S
C79 H89 0.948 . S
N80 Co58 2.282 . S
N80 C84 1.332 . S
N80 C85 1.332 . S
C81 C82 1.388 . S
C81 C85 1.382 . S
C81 H104 0.950 . S
C82 C81 1.388 . S
C82 C83 1.386 . S
C83 C82 1.386 . S
C83 C84 1.382 . S
C83 H105 0.950 . S
C84 N80 1.332 . S
C84 C83 1.382 . S
C84 H86 0.952 . S
C85 N80 1.332 . S
C85 C81 1.382 . S
C85 H87 0.948 . S
H86 C84 0.952 . S
H87 C85 0.948 . S
H88 C77 0.952 . S
H89 C79 0.948 . S
C90 C56 1.395 . S
C90 C60 1.391 . S
C91 C53 1.389 . S
C91 C73 1.392 . S
C92 C63 1.392 . S
C92 C65 1.389 . S
C93 C68 1.395 . S
C93 C70 1.391 . S
H94 C54 0.951 . S
H95 C55 0.950 . S
H96 C61 0.949 . S
H97 C62 0.950 . S
H98 C66 0.951 . S
H99 C67 0.950 . S
H100 C71 0.949 . S
H101 C72 0.950 . S
H102 C76 0.950 . S
H103 C78 0.950 . S
H104 C81 0.950 . S
H105 C83 0.950 . S
C106 C107 1.443 . S
C106 N110 1.376 . S
C106 C144 1.389 . S
C107 C106 1.443 . S
C107 C108 1.340 . S
C107 H147 0.951 . S
C108 C107 1.340 . S
C108 C109 1.439 . S
C108 H148 0.950 . S
C109 C108 1.439 . S
C109 N110 1.374 . S
C109 C143 1.395 . S
N110 C106 1.376 . S
N110 C109 1.374 . S
N110 Co111 2.008 . S
Co111 N110 2.008 . S
Co111 N112 1.995 . S
Co111 N117 2.008 . S
Co111 N122 1.995 . S
Co111 N127 2.282 . S
Co111 N133 2.282 . S
N112 Co111 1.995 . S
N112 C113 1.376 . S
N112 C116 1.383 . S
C113 N112 1.376 . S
C113 C114 1.446 . S
C113 C143 1.391 . S
C114 C113 1.446 . S
C114 C115 1.339 . S
C114 H149 0.949 . S
C115 C114 1.339 . S
C115 C116 1.439 . S
C115 H150 0.950 . S
C116 N112 1.383 . S
C116 C115 1.439 . S
C116 C145 1.392 . S
N117 Co111 2.008 . S
N117 C118 1.376 . S
N117 C121 1.374 . S
C118 N117 1.376 . S
C118 C119 1.443 . S
C118 C145 1.389 . S
C119 C118 1.443 . S
C119 C120 1.340 . S
C119 H151 0.951 . S
C120 C119 1.340 . S
C120 C121 1.439 . S
C120 H152 0.950 . S
C121 N117 1.374 . S
C121 C120 1.439 . S
C121 C146 1.395 . S
N122 Co111 1.995 . S
N122 C123 1.376 . S
N122 C126 1.383 . S
C123 N122 1.376 . S
C123 C124 1.446 . S
C123 C146 1.391 . S
C124 C123 1.446 . S
C124 C125 1.339 . S
C124 H153 0.949 . S
C125 C124 1.339 . S
C125 C126 1.439 . S
C125 H154 0.950 . S
C126 N122 1.383 . S
C126 C125 1.439 . S
C126 C144 1.392 . S
N127 Co111 2.282 . S
N127 C130 1.332 . S
N127 C132 1.332 . S
C128 C129 1.386 . S
C128 C131 1.388 . S
C129 C128 1.386 . S
C129 C130 1.382 . S
C129 H155 0.950 . S
C130 N127 1.332 . S
C130 C129 1.382 . S
C130 H141 0.952 . S
C131 C128 1.388 . S
C131 C132 1.382 . S
C131 H156 0.950 . S
C132 N127 1.332 . S
C132 C131 1.382 . S
C132 H142 0.948 . S
N133 Co111 2.282 . S
N133 C137 1.332 . S
N133 C138 1.332 . S
C134 C135 1.388 . S
C134 C138 1.382 . S
C134 H157 0.950 . S
C135 C134 1.388 . S
C135 C136 1.386 . S
C136 C135 1.386 . S
C136 C137 1.382 . S
C136 H158 0.950 . S
C137 N133 1.332 . S
C137 C136 1.382 . S
C137 H139 0.952 . S
C138 N133 1.332 . S
C138 C134 1.382 . S
C138 H140 0.948 . S
H139 C137 0.952 . S
H140 C138 0.948 . S
H141 C130 0.952 . S
H142 C132 0.948 . S
C143 C109 1.395 . S
C143 C113 1.391 . S
C144 C106 1.389 . S
C144 C126 1.392 . S
C145 C116 1.392 . S
C145 C118 1.389 . S
C146 C121 1.395 . S
C146 C123 1.391 . S
H147 C107 0.951 . S
H148 C108 0.950 . S
H149 C114 0.949 . S
H150 C115 0.950 . S
H151 C119 0.951 . S
H152 C120 0.950 . S
H153 C124 0.949 . S
H154 C125 0.950 . S
H155 C129 0.950 . S
H156 C131 0.950 . S
H157 C134 0.950 . S
H158 C136 0.950 . S
C159 C160 1.443 . S
C159 N163 1.376 . S
C159 C197 1.389 . S
C160 C159 1.443 . S
C160 C161 1.340 . S
C160 H200 0.951 . S
C161 C160 1.340 . S
C161 C162 1.439 . S
C161 H201 0.950 . S
C162 C161 1.439 . S
C162 N163 1.374 . S
C162 C196 1.395 . S
N163 C159 1.376 . S
N163 C162 1.374 . S
N163 Co164 2.008 . S
Co164 N163 2.008 . S
Co164 N165 1.995 . S
Co164 N170 2.008 . S
Co164 N175 1.995 . S
Co164 N180 2.282 . S
Co164 N186 2.282 . S
N165 Co164 1.995 . S
N165 C166 1.376 . S
N165 C169 1.383 . S
C166 N165 1.376 . S
C166 C167 1.446 . S
C166 C196 1.391 . S
C167 C166 1.446 . S
C167 C168 1.339 . S
C167 H202 0.949 . S
C168 C167 1.339 . S
C168 C169 1.439 . S
C168 H203 0.950 . S
C169 N165 1.383 . S
C169 C168 1.439 . S
C169 C198 1.392 . S
N170 Co164 2.008 . S
N170 C171 1.376 . S
N170 C174 1.374 . S
C171 N170 1.376 . S
C171 C172 1.443 . S
C171 C198 1.389 . S
C172 C171 1.443 . S
C172 C173 1.340 . S
C172 H204 0.951 . S
C173 C172 1.340 . S
C173 C174 1.439 . S
C173 H205 0.950 . S
C174 N170 1.374 . S
C174 C173 1.439 . S
C174 C199 1.395 . S
N175 Co164 1.995 . S
N175 C176 1.376 . S
N175 C179 1.383 . S
C176 N175 1.376 . S
C176 C177 1.446 . S
C176 C199 1.391 . S
C177 C176 1.446 . S
C177 C178 1.339 . S
C177 H206 0.949 . S
C178 C177 1.339 . S
C178 C179 1.439 . S
C178 H207 0.950 . S
C179 N175 1.383 . S
C179 C178 1.439 . S
C179 C197 1.392 . S
N180 Co164 2.282 . S
N180 C183 1.332 . S
N180 C185 1.332 . S
C181 C182 1.386 . S
C181 C184 1.388 . S
C182 C181 1.386 . S
C182 C183 1.382 . S
C182 H208 0.950 . S
C183 N180 1.332 . S
C183 C182 1.382 . S
C183 H194 0.952 . S
C184 C181 1.388 . S
C184 C185 1.382 . S
C184 H209 0.950 . S
C185 N180 1.332 . S
C185 C184 1.382 . S
C185 H195 0.948 . S
N186 Co164 2.282 . S
N186 C190 1.332 . S
N186 C191 1.332 . S
C187 C188 1.388 . S
C187 C191 1.382 . S
C187 H210 0.950 . S
C188 C187 1.388 . S
C188 C189 1.386 . S
C189 C188 1.386 . S
C189 C190 1.382 . S
C189 H211 0.950 . S
C190 N186 1.332 . S
C190 C189 1.382 . S
C190 H192 0.952 . S
C191 N186 1.332 . S
C191 C187 1.382 . S
C191 H193 0.948 . S
H192 C190 0.952 . S
H193 C191 0.948 . S
H194 C183 0.952 . S
H195 C185 0.948 . S
C196 C162 1.395 . S
C196 C166 1.391 . S
C197 C159 1.389 . S
C197 C179 1.392 . S
C198 C169 1.392 . S
C198 C171 1.389 . S
C199 C174 1.395 . S
C199 C176 1.391 . S
H200 C160 0.951 . S
H201 C161 0.950 . S
H202 C167 0.949 . S
H203 C168 0.950 . S
H204 C172 0.951 . S
H205 C173 0.950 . S
H206 C177 0.949 . S
H207 C178 0.950 . S
H208 C182 0.950 . S
H209 C184 0.950 . S
H210 C187 0.950 . S
H211 C189 0.950 . S
C212 C213 1.443 . S
C212 N216 1.376 . S
C212 C250 1.389 . S
C213 C212 1.443 . S
C213 C214 1.340 . S
C213 H253 0.951 . S
C214 C213 1.340 . S
C214 C215 1.439 . S
C214 H254 0.950 . S
C215 C214 1.439 . S
C215 N216 1.374 . S
C215 C249 1.395 . S
N216 C212 1.376 . S
N216 C215 1.374 . S
N216 Co217 2.008 . S
Co217 N216 2.008 . S
Co217 N218 1.995 . S
Co217 N223 2.008 . S
Co217 N228 1.995 . S
Co217 N233 2.282 . S
Co217 N239 2.282 . S
N218 Co217 1.995 . S
N218 C219 1.376 . S
N218 C222 1.383 . S
C219 N218 1.376 . S
C219 C220 1.446 . S
C219 C249 1.391 . S
C220 C219 1.446 . S
C220 C221 1.339 . S
C220 H255 0.949 . S
C221 C220 1.339 . S
C221 C222 1.439 . S
C221 H256 0.950 . S
C222 N218 1.383 . S
C222 C221 1.439 . S
C222 C251 1.392 . S
N223 Co217 2.008 . S
N223 C224 1.376 . S
N223 C227 1.374 . S
C224 N223 1.376 . S
C224 C225 1.443 . S
C224 C251 1.389 . S
C225 C224 1.443 . S
C225 C226 1.340 . S
C225 H257 0.951 . S
C226 C225 1.340 . S
C226 C227 1.439 . S
C226 H258 0.950 . S
C227 N223 1.374 . S
C227 C226 1.439 . S
C227 C252 1.395 . S
N228 Co217 1.995 . S
N228 C229 1.376 . S
N228 C232 1.383 . S
C229 N228 1.376 . S
C229 C230 1.446 . S
C229 C252 1.391 . S
C230 C229 1.446 . S
C230 C231 1.339 . S
C230 H259 0.949 . S
C231 C230 1.339 . S
C231 C232 1.439 . S
C231 H260 0.950 . S
C232 N228 1.383 . S
C232 C231 1.439 . S
C232 C250 1.392 . S
N233 Co217 2.282 . S
N233 C236 1.332 . S
N233 C238 1.332 . S
C234 C235 1.386 . S
C234 C237 1.388 . S
C235 C234 1.386 . S
C235 C236 1.382 . S
C235 H261 0.950 . S
C236 N233 1.332 . S
C236 C235 1.382 . S
C236 H247 0.952 . S
C237 C234 1.388 . S
C237 C238 1.382 . S
C237 H262 0.950 . S
C238 N233 1.332 . S
C238 C237 1.382 . S
C238 H248 0.948 . S
N239 Co217 2.282 . S
N239 C243 1.332 . S
N239 C244 1.332 . S
C240 C241 1.388 . S
C240 C244 1.382 . S
C240 H263 0.950 . S
C241 C240 1.388 . S
C241 C242 1.386 . S
C242 C241 1.386 . S
C242 C243 1.382 . S
C242 H264 0.950 . S
C243 N239 1.332 . S
C243 C242 1.382 . S
C243 H245 0.952 . S
C244 N239 1.332 . S
C244 C240 1.382 . S
C244 H246 0.948 . S
H245 C243 0.952 . S
H246 C244 0.948 . S
H247 C236 0.952 . S
H248 C238 0.948 . S
C249 C215 1.395 . S
C249 C219 1.391 . S
C250 C212 1.389 . S
C250 C232 1.392 . S
C251 C222 1.392 . S
C251 C224 1.389 . S
C252 C227 1.395 . S
C252 C229 1.391 . S
H253 C213 0.951 . S
H254 C214 0.950 . S
H255 C220 0.949 . S
H256 C221 0.950 . S
H257 C225 0.951 . S
H258 C226 0.950 . S
H259 C230 0.949 . S
H260 C231 0.950 . S
H261 C235 0.950 . S
H262 C237 0.950 . S
H263 C240 0.950 . S
H264 C242 0.950 . S
C265 C266 1.443 . S
C265 N269 1.376 . S
C265 C303 1.389 . S
C266 C265 1.443 . S
C266 C267 1.340 . S
C266 H306 0.951 . S
C267 C266 1.340 . S
C267 C268 1.439 . S
C267 H307 0.950 . S
C268 C267 1.439 . S
C268 N269 1.374 . S
C268 C302 1.395 . S
N269 C265 1.376 . S
N269 C268 1.374 . S
N269 Co270 2.008 . S
Co270 N269 2.008 . S
Co270 N271 1.995 . S
Co270 N276 2.008 . S
Co270 N281 1.995 . S
Co270 N286 2.282 . S
Co270 N292 2.282 . S
N271 Co270 1.995 . S
N271 C272 1.376 . S
N271 C275 1.383 . S
C272 N271 1.376 . S
C272 C273 1.446 . S
C272 C302 1.391 . S
C273 C272 1.446 . S
C273 C274 1.339 . S
C273 H308 0.949 . S
C274 C273 1.339 . S
C274 C275 1.439 . S
C274 H309 0.950 . S
C275 N271 1.383 . S
C275 C274 1.439 . S
C275 C304 1.392 . S
N276 Co270 2.008 . S
N276 C277 1.376 . S
N276 C280 1.374 . S
C277 N276 1.376 . S
C277 C278 1.443 . S
C277 C304 1.389 . S
C278 C277 1.443 . S
C278 C279 1.340 . S
C278 H310 0.951 . S
C279 C278 1.340 . S
C279 C280 1.439 . S
C279 H311 0.950 . S
C280 N276 1.374 . S
C280 C279 1.439 . S
C280 C305 1.395 . S
N281 Co270 1.995 . S
N281 C282 1.376 . S
N281 C285 1.383 . S
C282 N281 1.376 . S
C282 C283 1.446 . S
C282 C305 1.391 . S
C283 C282 1.446 . S
C283 C284 1.339 . S
C283 H312 0.949 . S
C284 C283 1.339 . S
C284 C285 1.439 . S
C284 H313 0.950 . S
C285 N281 1.383 . S
C285 C284 1.439 . S
C285 C303 1.392 . S
N286 Co270 2.282 . S
N286 C289 1.332 . S
N286 C291 1.332 . S
C287 C288 1.386 . S
C287 C290 1.388 . S
C288 C287 1.386 . S
C288 C289 1.382 . S
C288 H314 0.950 . S
C289 N286 1.332 . S
C289 C288 1.382 . S
C289 H300 0.952 . S
C290 C287 1.388 . S
C290 C291 1.382 . S
C290 H315 0.950 . S
C291 N286 1.332 . S
C291 C290 1.382 . S
C291 H301 0.948 . S
N292 Co270 2.282 . S
N292 C296 1.332 . S
N292 C297 1.332 . S
C293 C294 1.388 . S
C293 C297 1.382 . S
C293 H316 0.950 . S
C294 C293 1.388 . S
C294 C295 1.386 . S
C295 C294 1.386 . S
C295 C296 1.382 . S
C295 H317 0.950 . S
C296 N292 1.332 . S
C296 C295 1.382 . S
C296 H298 0.952 . S
C297 N292 1.332 . S
C297 C293 1.382 . S
C297 H299 0.948 . S
H298 C296 0.952 . S
H299 C297 0.948 . S
H300 C289 0.952 . S
H301 C291 0.948 . S
C302 C268 1.395 . S
C302 C272 1.391 . S
C303 C265 1.389 . S
C303 C285 1.392 . S
C304 C275 1.392 . S
C304 C277 1.389 . S
C305 C280 1.395 . S
C305 C282 1.391 . S
H306 C266 0.951 . S
H307 C267 0.950 . S
H308 C273 0.949 . S
H309 C274 0.950 . S
H310 C278 0.951 . S
H311 C279 0.950 . S
H312 C283 0.949 . S
H313 C284 0.950 . S
H314 C288 0.950 . S
H315 C290 0.950 . S
H316 C293 0.950 . S
H317 C295 0.950 . S
C318 C319 1.443 . S
C318 N322 1.376 . S
C318 C356 1.389 . S
C319 C318 1.443 . S
C319 C320 1.340 . S
C319 H359 0.951 . S
C320 C319 1.340 . S
C320 C321 1.439 . S
C320 H360 0.950 . S
C321 C320 1.439 . S
C321 N322 1.374 . S
C321 C355 1.395 . S
N322 C318 1.376 . S
N322 C321 1.374 . S
N322 Co323 2.008 . S
Co323 N322 2.008 . S
Co323 N324 1.995 . S
Co323 N329 2.008 . S
Co323 N334 1.995 . S
Co323 N339 2.282 . S
Co323 N345 2.282 . S
N324 Co323 1.995 . S
N324 C325 1.376 . S
N324 C328 1.383 . S
C325 N324 1.376 . S
C325 C326 1.446 . S
C325 C355 1.391 . S
C326 C325 1.446 . S
C326 C327 1.339 . S
C326 H361 0.949 . S
C327 C326 1.339 . S
C327 C328 1.439 . S
C327 H362 0.950 . S
C328 N324 1.383 . S
C328 C327 1.439 . S
C328 C357 1.392 . S
N329 Co323 2.008 . S
N329 C330 1.376 . S
N329 C333 1.374 . S
C330 N329 1.376 . S
C330 C331 1.443 . S
C330 C357 1.389 . S
C331 C330 1.443 . S
C331 C332 1.340 . S
C331 H363 0.951 . S
C332 C331 1.340 . S
C332 C333 1.439 . S
C332 H364 0.950 . S
C333 N329 1.374 . S
C333 C332 1.439 . S
C333 C358 1.395 . S
N334 Co323 1.995 . S
N334 C335 1.376 . S
N334 C338 1.383 . S
C335 N334 1.376 . S
C335 C336 1.446 . S
C335 C358 1.391 . S
C336 C335 1.446 . S
C336 C337 1.339 . S
C336 H365 0.949 . S
C337 C336 1.339 . S
C337 C338 1.439 . S
C337 H366 0.950 . S
C338 N334 1.383 . S
C338 C337 1.439 . S
C338 C356 1.392 . S
N339 Co323 2.282 . S
N339 C342 1.332 . S
N339 C344 1.332 . S
C340 C341 1.386 . S
C340 C343 1.388 . S
C341 C340 1.386 . S
C341 C342 1.382 . S
C341 H367 0.950 . S
C342 N339 1.332 . S
C342 C341 1.382 . S
C342 H353 0.952 . S
C343 C340 1.388 . S
C343 C344 1.382 . S
C343 H368 0.950 . S
C344 N339 1.332 . S
C344 C343 1.382 . S
C344 H354 0.948 . S
N345 Co323 2.282 . S
N345 C349 1.332 . S
N345 C350 1.332 . S
C346 C347 1.388 . S
C346 C350 1.382 . S
C346 H369 0.950 . S
C347 C346 1.388 . S
C347 C348 1.386 . S
C348 C347 1.386 . S
C348 C349 1.382 . S
C348 H370 0.950 . S
C349 N345 1.332 . S
C349 C348 1.382 . S
C349 H351 0.952 . S
C350 N345 1.332 . S
C350 C346 1.382 . S
C350 H352 0.948 . S
H351 C349 0.952 . S
H352 C350 0.948 . S
H353 C342 0.952 . S
H354 C344 0.948 . S
C355 C321 1.395 . S
C355 C325 1.391 . S
C356 C318 1.389 . S
C356 C338 1.392 . S
C357 C328 1.392 . S
C357 C330 1.389 . S
C358 C333 1.395 . S
C358 C335 1.391 . S
H359 C319 0.951 . S
H360 C320 0.950 . S
H361 C326 0.949 . S
H362 C327 0.950 . S
H363 C331 0.951 . S
H364 C332 0.950 . S
H365 C336 0.949 . S
H366 C337 0.950 . S
H367 C341 0.950 . S
H368 C343 0.950 . S
H369 C346 0.950 . S
H370 C348 0.950 . S
C371 C372 1.443 . S
C371 N375 1.376 . S
C371 C409 1.389 . S
C372 C371 1.443 . S
C372 C373 1.340 . S
C372 H412 0.951 . S
C373 C372 1.340 . S
C373 C374 1.439 . S
C373 H413 0.950 . S
C374 C373 1.439 . S
C374 N375 1.374 . S
C374 C408 1.395 . S
N375 C371 1.376 . S
N375 C374 1.374 . S
N375 Co376 2.008 . S
Co376 N375 2.008 . S
Co376 N377 1.995 . S
Co376 N382 2.008 . S
Co376 N387 1.995 . S
Co376 N392 2.282 . S
Co376 N398 2.282 . S
N377 Co376 1.995 . S
N377 C378 1.376 . S
N377 C381 1.383 . S
C378 N377 1.376 . S
C378 C379 1.446 . S
C378 C408 1.391 . S
C379 C378 1.446 . S
C379 C380 1.339 . S
C379 H414 0.949 . S
C380 C379 1.339 . S
C380 C381 1.439 . S
C380 H415 0.950 . S
C381 N377 1.383 . S
C381 C380 1.439 . S
C381 C410 1.392 . S
N382 Co376 2.008 . S
N382 C383 1.376 . S
N382 C386 1.374 . S
C383 N382 1.376 . S
C383 C384 1.443 . S
C383 C410 1.389 . S
C384 C383 1.443 . S
C384 C385 1.340 . S
C384 H416 0.951 . S
C385 C384 1.340 . S
C385 C386 1.439 . S
C385 H417 0.950 . S
C386 N382 1.374 . S
C386 C385 1.439 . S
C386 C411 1.395 . S
N387 Co376 1.995 . S
N387 C388 1.376 . S
N387 C391 1.383 . S
C388 N387 1.376 . S
C388 C389 1.446 . S
C388 C411 1.391 . S
C389 C388 1.446 . S
C389 C390 1.339 . S
C389 H418 0.949 . S
C390 C389 1.339 . S
C390 C391 1.439 . S
C390 H419 0.950 . S
C391 N387 1.383 . S
C391 C390 1.439 . S
C391 C409 1.392 . S
N392 Co376 2.282 . S
N392 C395 1.332 . S
N392 C397 1.332 . S
C393 C394 1.386 . S
C393 C396 1.388 . S
C394 C393 1.386 . S
C394 C395 1.382 . S
C394 H420 0.950 . S
C395 N392 1.332 . S
C395 C394 1.382 . S
C395 H406 0.952 . S
C396 C393 1.388 . S
C396 C397 1.382 . S
C396 H421 0.950 . S
C397 N392 1.332 . S
C397 C396 1.382 . S
C397 H407 0.948 . S
N398 Co376 2.282 . S
N398 C402 1.332 . S
N398 C403 1.332 . S
C399 C400 1.388 . S
C399 C403 1.382 . S
C399 H422 0.950 . S
C400 C399 1.388 . S
C400 C401 1.386 . S
C401 C400 1.386 . S
C401 C402 1.382 . S
C401 H423 0.950 . S
C402 N398 1.332 . S
C402 C401 1.382 . S
C402 H404 0.952 . S
C403 N398 1.332 . S
C403 C399 1.382 . S
C403 H405 0.948 . S
H404 C402 0.952 . S
H405 C403 0.948 . S
H406 C395 0.952 . S
H407 C397 0.948 . S
C408 C374 1.395 . S
C408 C378 1.391 . S
C409 C371 1.389 . S
C409 C391 1.392 . S
C410 C381 1.392 . S
C410 C383 1.389 . S
C411 C386 1.395 . S
C411 C388 1.391 . S
H412 C372 0.951 . S
H413 C373 0.950 . S
H414 C379 0.949 . S
H415 C380 0.950 . S
H416 C384 0.951 . S
H417 C385 0.950 . S
H418 C389 0.949 . S
H419 C390 0.950 . S
H420 C394 0.950 . S
H421 C396 0.950 . S
H422 C399 0.950 . S
H423 C401 0.950 . S
C424 C425 1.443 . S
C424 N428 1.376 . S
C424 C462 1.389 . S
C425 C424 1.443 . S
C425 C426 1.340 . S
C425 H465 0.951 . S
C426 C425 1.340 . S
C426 C427 1.439 . S
C426 H466 0.950 . S
C427 C426 1.439 . S
C427 N428 1.374 . S
C427 C461 1.395 . S
N428 C424 1.376 . S
N428 C427 1.374 . S
N428 Co429 2.008 . S
Co429 N428 2.008 . S
Co429 N430 1.995 . S
Co429 N435 2.008 . S
Co429 N440 1.995 . S
Co429 N445 2.282 . S
Co429 N451 2.282 . S
N430 Co429 1.995 . S
N430 C431 1.376 . S
N430 C434 1.383 . S
C431 N430 1.376 . S
C431 C432 1.446 . S
C431 C461 1.391 . S
C432 C431 1.446 . S
C432 C433 1.339 . S
C432 H467 0.949 . S
C433 C432 1.339 . S
C433 C434 1.439 . S
C433 H468 0.950 . S
C434 N430 1.383 . S
C434 C433 1.439 . S
C434 C463 1.392 . S
N435 Co429 2.008 . S
N435 C436 1.376 . S
N435 C439 1.374 . S
C436 N435 1.376 . S
C436 C437 1.443 . S
C436 C463 1.389 . S
C437 C436 1.443 . S
C437 C438 1.340 . S
C437 H469 0.951 . S
C438 C437 1.340 . S
C438 C439 1.439 . S
C438 H470 0.950 . S
C439 N435 1.374 . S
C439 C438 1.439 . S
C439 C464 1.395 . S
N440 Co429 1.995 . S
N440 C441 1.376 . S
N440 C444 1.383 . S
C441 N440 1.376 . S
C441 C442 1.446 . S
C441 C464 1.391 . S
C442 C441 1.446 . S
C442 C443 1.339 . S
C442 H471 0.949 . S
C443 C442 1.339 . S
C443 C444 1.439 . S
C443 H472 0.950 . S
C444 N440 1.383 . S
C444 C443 1.439 . S
C444 C462 1.392 . S
N445 Co429 2.282 . S
N445 C448 1.332 . S
N445 C450 1.332 . S
C446 C447 1.386 . S
C446 C449 1.388 . S
C447 C446 1.386 . S
C447 C448 1.382 . S
C447 H473 0.950 . S
C448 N445 1.332 . S
C448 C447 1.382 . S
C448 H459 0.952 . S
C449 C446 1.388 . S
C449 C450 1.382 . S
C449 H474 0.950 . S
C450 N445 1.332 . S
C450 C449 1.382 . S
C450 H460 0.948 . S
N451 Co429 2.282 . S
N451 C455 1.332 . S
N451 C456 1.332 . S
C452 C453 1.388 . S
C452 C456 1.382 . S
C452 H475 0.950 . S
C453 C452 1.388 . S
C453 C454 1.386 . S
C454 C453 1.386 . S
C454 C455 1.382 . S
C454 H476 0.950 . S
C455 N451 1.332 . S
C455 C454 1.382 . S
C455 H457 0.952 . S
C456 N451 1.332 . S
C456 C452 1.382 . S
C456 H458 0.948 . S
H457 C455 0.952 . S
H458 C456 0.948 . S
H459 C448 0.952 . S
H460 C450 0.948 . S
C461 C427 1.395 . S
C461 C431 1.391 . S
C462 C424 1.389 . S
C462 C444 1.392 . S
C463 C434 1.392 . S
C463 C436 1.389 . S
C464 C439 1.395 . S
C464 C441 1.391 . S
H465 C425 0.951 . S
H466 C426 0.950 . S
H467 C432 0.949 . S
H468 C433 0.950 . S
H469 C437 0.951 . S
H470 C438 0.950 . S
H471 C442 0.949 . S
H472 C443 0.950 . S
H473 C447 0.950 . S
H474 C449 0.950 . S
H475 C452 0.950 . S
H476 C454 0.950 . S
C477 C478 1.443 . S
C477 N481 1.376 . S
C477 C515 1.389 . S
C478 C477 1.443 . S
C478 C479 1.340 . S
C478 H518 0.951 . S
C479 C478 1.340 . S
C479 C480 1.439 . S
C479 H519 0.950 . S
C480 C479 1.439 . S
C480 N481 1.374 . S
C480 C514 1.395 . S
N481 C477 1.376 . S
N481 C480 1.374 . S
N481 Co482 2.008 . S
Co482 N481 2.008 . S
Co482 N483 1.995 . S
Co482 N488 2.008 . S
Co482 N493 1.995 . S
Co482 N498 2.282 . S
Co482 N504 2.282 . S
N483 Co482 1.995 . S
N483 C484 1.376 . S
N483 C487 1.383 . S
C484 N483 1.376 . S
C484 C485 1.446 . S
C484 C514 1.391 . S
C485 C484 1.446 . S
C485 C486 1.339 . S
C485 H520 0.949 . S
C486 C485 1.339 . S
C486 C487 1.439 . S
C486 H521 0.950 . S
C487 N483 1.383 . S
C487 C486 1.439 . S
C487 C516 1.392 . S
N488 Co482 2.008 . S
N488 C489 1.376 . S
N488 C492 1.374 . S
C489 N488 1.376 . S
C489 C490 1.443 . S
C489 C516 1.389 . S
C490 C489 1.443 . S
C490 C491 1.340 . S
C490 H522 0.951 . S
C491 C490 1.340 . S
C491 C492 1.439 . S
C491 H523 0.950 . S
C492 N488 1.374 . S
C492 C491 1.439 . S
C492 C517 1.395 . S
N493 Co482 1.995 . S
N493 C494 1.376 . S
N493 C497 1.383 . S
C494 N493 1.376 . S
C494 C495 1.446 . S
C494 C517 1.391 . S
C495 C494 1.446 . S
C495 C496 1.339 . S
C495 H524 0.949 . S
C496 C495 1.339 . S
C496 C497 1.439 . S
C496 H525 0.950 . S
C497 N493 1.383 . S
C497 C496 1.439 . S
C497 C515 1.392 . S
N498 Co482 2.282 . S
N498 C501 1.332 . S
N498 C503 1.332 . S
C499 C500 1.386 . S
C499 C502 1.388 . S
C500 C499 1.386 . S
C500 C501 1.382 . S
C500 H526 0.950 . S
C501 N498 1.332 . S
C501 C500 1.382 . S
C501 H512 0.952 . S
C502 C499 1.388 . S
C502 C503 1.382 . S
C502 H527 0.950 . S
C503 N498 1.332 . S
C503 C502 1.382 . S
C503 H513 0.948 . S
N504 Co482 2.282 . S
N504 C508 1.332 . S
N504 C509 1.332 . S
C505 C506 1.388 . S
C505 C509 1.382 . S
C505 H528 0.950 . S
C506 C505 1.388 . S
C506 C507 1.386 . S
C507 C506 1.386 . S
C507 C508 1.382 . S
C507 H529 0.950 . S
C508 N504 1.332 . S
C508 C507 1.382 . S
C508 H510 0.952 . S
C509 N504 1.332 . S
C509 C505 1.382 . S
C509 H511 0.948 . S
H510 C508 0.952 . S
H511 C509 0.948 . S
H512 C501 0.952 . S
H513 C503 0.948 . S
C514 C480 1.395 . S
C514 C484 1.391 . S
C515 C477 1.389 . S
C515 C497 1.392 . S
C516 C487 1.392 . S
C516 C489 1.389 . S
C517 C492 1.395 . S
C517 C494 1.391 . S
H518 C478 0.951 . S
H519 C479 0.950 . S
H520 C485 0.949 . S
H521 C486 0.950 . S
H522 C490 0.951 . S
H523 C491 0.950 . S
H524 C495 0.949 . S
H525 C496 0.950 . S
H526 C500 0.950 . S
H527 C502 0.950 . S
H528 C505 0.950 . S
H529 C507 0.950 . S
C530 C531 1.443 . S
C530 N534 1.376 . S
C530 C568 1.389 . S
C531 C530 1.443 . S
C531 C532 1.340 . S
C531 H571 0.951 . S
C532 C531 1.340 . S
C532 C533 1.439 . S
C532 H572 0.950 . S
C533 C532 1.439 . S
C533 N534 1.374 . S
C533 C567 1.395 . S
N534 C530 1.376 . S
N534 C533 1.374 . S
N534 Co535 2.008 . S
Co535 N534 2.008 . S
Co535 N536 1.995 . S
Co535 N541 2.008 . S
Co535 N546 1.995 . S
Co535 N551 2.282 . S
Co535 N557 2.282 . S
N536 Co535 1.995 . S
N536 C537 1.376 . S
N536 C540 1.383 . S
C537 N536 1.376 . S
C537 C538 1.446 . S
C537 C567 1.391 . S
C538 C537 1.446 . S
C538 C539 1.339 . S
C538 H573 0.949 . S
C539 C538 1.339 . S
C539 C540 1.439 . S
C539 H574 0.950 . S
C540 N536 1.383 . S
C540 C539 1.439 . S
C540 C569 1.392 . S
N541 Co535 2.008 . S
N541 C542 1.376 . S
N541 C545 1.374 . S
C542 N541 1.376 . S
C542 C543 1.443 . S
C542 C569 1.389 . S
C543 C542 1.443 . S
C543 C544 1.340 . S
C543 H575 0.951 . S
C544 C543 1.340 . S
C544 C545 1.439 . S
C544 H576 0.950 . S
C545 N541 1.374 . S
C545 C544 1.439 . S
C545 C570 1.395 . S
N546 Co535 1.995 . S
N546 C547 1.376 . S
N546 C550 1.383 . S
C547 N546 1.376 . S
C547 C548 1.446 . S
C547 C570 1.391 . S
C548 C547 1.446 . S
C548 C549 1.339 . S
C548 H577 0.949 . S
C549 C548 1.339 . S
C549 C550 1.439 . S
C549 H578 0.950 . S
C550 N546 1.383 . S
C550 C549 1.439 . S
C550 C568 1.392 . S
N551 Co535 2.282 . S
N551 C554 1.332 . S
N551 C556 1.332 . S
C552 C553 1.386 . S
C552 C555 1.388 . S
C553 C552 1.386 . S
C553 C554 1.382 . S
C553 H579 0.950 . S
C554 N551 1.332 . S
C554 C553 1.382 . S
C554 H565 0.952 . S
C555 C552 1.388 . S
C555 C556 1.382 . S
C555 H580 0.950 . S
C556 N551 1.332 . S
C556 C555 1.382 . S
C556 H566 0.948 . S
N557 Co535 2.282 . S
N557 C561 1.332 . S
N557 C562 1.332 . S
C558 C559 1.388 . S
C558 C562 1.382 . S
C558 H581 0.950 . S
C559 C558 1.388 . S
C559 C560 1.386 . S
C560 C559 1.386 . S
C560 C561 1.382 . S
C560 H582 0.950 . S
C561 N557 1.332 . S
C561 C560 1.382 . S
C561 H563 0.952 . S
C562 N557 1.332 . S
C562 C558 1.382 . S
C562 H564 0.948 . S
H563 C561 0.952 . S
H564 C562 0.948 . S
H565 C554 0.952 . S
H566 C556 0.948 . S
C567 C533 1.395 . S
C567 C537 1.391 . S
C568 C530 1.389 . S
C568 C550 1.392 . S
C569 C540 1.392 . S
C569 C542 1.389 . S
C570 C545 1.395 . S
C570 C547 1.391 . S
H571 C531 0.951 . S
H572 C532 0.950 . S
H573 C538 0.949 . S
H574 C539 0.950 . S
H575 C543 0.951 . S
H576 C544 0.950 . S
H577 C548 0.949 . S
H578 C549 0.950 . S
H579 C553 0.950 . S
H580 C555 0.950 . S
H581 C558 0.950 . S
H582 C560 0.950 . S
C583 C584 1.443 . S
C583 N587 1.376 . S
C583 C621 1.389 . S
C584 C583 1.443 . S
C584 C585 1.340 . S
C584 H624 0.951 . S
C585 C584 1.340 . S
C585 C586 1.439 . S
C585 H625 0.950 . S
C586 C585 1.439 . S
C586 N587 1.374 . S
C586 C620 1.395 . S
N587 C583 1.376 . S
N587 C586 1.374 . S
N587 Co588 2.008 . S
Co588 N587 2.008 . S
Co588 N589 1.995 . S
Co588 N594 2.008 . S
Co588 N599 1.995 . S
Co588 N604 2.282 . S
Co588 N610 2.282 . S
N589 Co588 1.995 . S
N589 C590 1.376 . S
N589 C593 1.383 . S
C590 N589 1.376 . S
C590 C591 1.446 . S
C590 C620 1.391 . S
C591 C590 1.446 . S
C591 C592 1.339 . S
C591 H626 0.949 . S
C592 C591 1.339 . S
C592 C593 1.439 . S
C592 H627 0.950 . S
C593 N589 1.383 . S
C593 C592 1.439 . S
C593 C622 1.392 . S
N594 Co588 2.008 . S
N594 C595 1.376 . S
N594 C598 1.374 . S
C595 N594 1.376 . S
C595 C596 1.443 . S
C595 C622 1.389 . S
C596 C595 1.443 . S
C596 C597 1.340 . S
C596 H628 0.951 . S
C597 C596 1.340 . S
C597 C598 1.439 . S
C597 H629 0.950 . S
C598 N594 1.374 . S
C598 C597 1.439 . S
C598 C623 1.395 . S
N599 Co588 1.995 . S
N599 C600 1.376 . S
N599 C603 1.383 . S
C600 N599 1.376 . S
C600 C601 1.446 . S
C600 C623 1.391 . S
C601 C600 1.446 . S
C601 C602 1.339 . S
C601 H630 0.949 . S
C602 C601 1.339 . S
C602 C603 1.439 . S
C602 H631 0.950 . S
C603 N599 1.383 . S
C603 C602 1.439 . S
C603 C621 1.392 . S
N604 Co588 2.282 . S
N604 C607 1.332 . S
N604 C609 1.332 . S
C605 C606 1.386 . S
C605 C608 1.388 . S
C606 C605 1.386 . S
C606 C607 1.382 . S
C606 H632 0.950 . S
C607 N604 1.332 . S
C607 C606 1.382 . S
C607 H618 0.952 . S
C608 C605 1.388 . S
C608 C609 1.382 . S
C608 H633 0.950 . S
C609 N604 1.332 . S
C609 C608 1.382 . S
C609 H619 0.948 . S
N610 Co588 2.282 . S
N610 C614 1.332 . S
N610 C615 1.332 . S
C611 C612 1.388 . S
C611 C615 1.382 . S
C611 H634 0.950 . S
C612 C611 1.388 . S
C612 C613 1.386 . S
C613 C612 1.386 . S
C613 C614 1.382 . S
C613 H635 0.950 . S
C614 N610 1.332 . S
C614 C613 1.382 . S
C614 H616 0.952 . S
C615 N610 1.332 . S
C615 C611 1.382 . S
C615 H617 0.948 . S
H616 C614 0.952 . S
H617 C615 0.948 . S
H618 C607 0.952 . S
H619 C609 0.948 . S
C620 C586 1.395 . S
C620 C590 1.391 . S
C621 C583 1.389 . S
C621 C603 1.392 . S
C622 C593 1.392 . S
C622 C595 1.389 . S
C623 C598 1.395 . S
C623 C600 1.391 . S
H624 C584 0.951 . S
H625 C585 0.950 . S
H626 C591 0.949 . S
H627 C592 0.950 . S
H628 C596 0.951 . S
H629 C597 0.950 . S
H630 C601 0.949 . S
H631 C602 0.950 . S
H632 C606 0.950 . S
H633 C608 0.950 . S
H634 C611 0.950 . S
H635 C613 0.950 . S
C636 C637 1.443 . S
C636 N640 1.376 . S
C636 C674 1.389 . S
C637 C636 1.443 . S
C637 C638 1.340 . S
C637 H677 0.951 . S
C638 C637 1.340 . S
C638 C639 1.439 . S
C638 H678 0.950 . S
C639 C638 1.439 . S
C639 N640 1.374 . S
C639 C673 1.395 . S
N640 C636 1.376 . S
N640 C639 1.374 . S
N640 Co641 2.008 . S
Co641 N640 2.008 . S
Co641 N642 1.995 . S
Co641 N647 2.008 . S
Co641 N652 1.995 . S
Co641 N657 2.282 . S
Co641 N663 2.282 . S
N642 Co641 1.995 . S
N642 C643 1.376 . S
N642 C646 1.383 . S
C643 N642 1.376 . S
C643 C644 1.446 . S
C643 C673 1.391 . S
C644 C643 1.446 . S
C644 C645 1.339 . S
C644 H679 0.949 . S
C645 C644 1.339 . S
C645 C646 1.439 . S
C645 H680 0.950 . S
C646 N642 1.383 . S
C646 C645 1.439 . S
C646 C675 1.392 . S
N647 Co641 2.008 . S
N647 C648 1.376 . S
N647 C651 1.374 . S
C648 N647 1.376 . S
C648 C649 1.443 . S
C648 C675 1.389 . S
C649 C648 1.443 . S
C649 C650 1.340 . S
C649 H681 0.951 . S
C650 C649 1.340 . S
C650 C651 1.439 . S
C650 H682 0.950 . S
C651 N647 1.374 . S
C651 C650 1.439 . S
C651 C676 1.395 . S
N652 Co641 1.995 . S
N652 C653 1.376 . S
N652 C656 1.383 . S
C653 N652 1.376 . S
C653 C654 1.446 . S
C653 C676 1.391 . S
C654 C653 1.446 . S
C654 C655 1.339 . S
C654 H683 0.949 . S
C655 C654 1.339 . S
C655 C656 1.439 . S
C655 H684 0.950 . S
C656 N652 1.383 . S
C656 C655 1.439 . S
C656 C674 1.392 . S
N657 Co641 2.282 . S
N657 C660 1.332 . S
N657 C662 1.332 . S
C658 C659 1.386 . S
C658 C661 1.388 . S
C659 C658 1.386 . S
C659 C660 1.382 . S
C659 H685 0.950 . S
C660 N657 1.332 . S
C660 C659 1.382 . S
C660 H671 0.952 . S
C661 C658 1.388 . S
C661 C662 1.382 . S
C661 H686 0.950 . S
C662 N657 1.332 . S
C662 C661 1.382 . S
C662 H672 0.948 . S
N663 Co641 2.282 . S
N663 C667 1.332 . S
N663 C668 1.332 . S
C664 C665 1.388 . S
C664 C668 1.382 . S
C664 H687 0.950 . S
C665 C664 1.388 . S
C665 C666 1.386 . S
C666 C665 1.386 . S
C666 C667 1.382 . S
C666 H688 0.950 . S
C667 N663 1.332 . S
C667 C666 1.382 . S
C667 H669 0.952 . S
C668 N663 1.332 . S
C668 C664 1.382 . S
C668 H670 0.948 . S
H669 C667 0.952 . S
H670 C668 0.948 . S
H671 C660 0.952 . S
H672 C662 0.948 . S
C673 C639 1.395 . S
C673 C643 1.391 . S
C674 C636 1.389 . S
C674 C656 1.392 . S
C675 C646 1.392 . S
C675 C648 1.389 . S
C676 C651 1.395 . S
C676 C653 1.391 . S
H677 C637 0.951 . S
H678 C638 0.950 . S
H679 C644 0.949 . S
H680 C645 0.950 . S
H681 C649 0.951 . S
H682 C650 0.950 . S
H683 C654 0.949 . S
H684 C655 0.950 . S
H685 C659 0.950 . S
H686 C661 0.950 . S
H687 C664 0.950 . S
H688 C666 0.950 . S
C689 C690 1.443 . S
C689 N693 1.376 . S
C689 C727 1.389 . S
C690 C689 1.443 . S
C690 C691 1.340 . S
C690 H730 0.951 . S
C691 C690 1.340 . S
C691 C692 1.439 . S
C691 H731 0.950 . S
C692 C691 1.439 . S
C692 N693 1.374 . S
C692 C726 1.395 . S
N693 C689 1.376 . S
N693 C692 1.374 . S
N693 Co694 2.008 . S
Co694 N693 2.008 . S
Co694 N695 1.995 . S
Co694 N700 2.008 . S
Co694 N705 1.995 . S
Co694 N710 2.282 . S
Co694 N716 2.282 . S
N695 Co694 1.995 . S
N695 C696 1.376 . S
N695 C699 1.383 . S
C696 N695 1.376 . S
C696 C697 1.446 . S
C696 C726 1.391 . S
C697 C696 1.446 . S
C697 C698 1.339 . S
C697 H732 0.949 . S
C698 C697 1.339 . S
C698 C699 1.439 . S
C698 H733 0.950 . S
C699 N695 1.383 . S
C699 C698 1.439 . S
C699 C728 1.392 . S
N700 Co694 2.008 . S
N700 C701 1.376 . S
N700 C704 1.374 . S
C701 N700 1.376 . S
C701 C702 1.443 . S
C701 C728 1.389 . S
C702 C701 1.443 . S
C702 C703 1.340 . S
C702 H734 0.951 . S
C703 C702 1.340 . S
C703 C704 1.439 . S
C703 H735 0.950 . S
C704 N700 1.374 . S
C704 C703 1.439 . S
C704 C729 1.395 . S
N705 Co694 1.995 . S
N705 C706 1.376 . S
N705 C709 1.383 . S
C706 N705 1.376 . S
C706 C707 1.446 . S
C706 C729 1.391 . S
C707 C706 1.446 . S
C707 C708 1.339 . S
C707 H736 0.949 . S
C708 C707 1.339 . S
C708 C709 1.439 . S
C708 H737 0.950 . S
C709 N705 1.383 . S
C709 C708 1.439 . S
C709 C727 1.392 . S
N710 Co694 2.282 . S
N710 C713 1.332 . S
N710 C715 1.332 . S
C711 C712 1.386 . S
C711 C714 1.388 . S
C712 C711 1.386 . S
C712 C713 1.382 . S
C712 H738 0.950 . S
C713 N710 1.332 . S
C713 C712 1.382 . S
C713 H724 0.952 . S
C714 C711 1.388 . S
C714 C715 1.382 . S
C714 H739 0.950 . S
C715 N710 1.332 . S
C715 C714 1.382 . S
C715 H725 0.948 . S
N716 Co694 2.282 . S
N716 C720 1.332 . S
N716 C721 1.332 . S
C717 C718 1.388 . S
C717 C721 1.382 . S
C717 H740 0.950 . S
C718 C717 1.388 . S
C718 C719 1.386 . S
C719 C718 1.386 . S
C719 C720 1.382 . S
C719 H741 0.950 . S
C720 N716 1.332 . S
C720 C719 1.382 . S
C720 H722 0.952 . S
C721 N716 1.332 . S
C721 C717 1.382 . S
C721 H723 0.948 . S
H722 C720 0.952 . S
H723 C721 0.948 . S
H724 C713 0.952 . S
H725 C715 0.948 . S
C726 C692 1.395 . S
C726 C696 1.391 . S
C727 C689 1.389 . S
C727 C709 1.392 . S
C728 C699 1.392 . S
C728 C701 1.389 . S
C729 C704 1.395 . S
C729 C706 1.391 . S
H730 C690 0.951 . S
H731 C691 0.950 . S
H732 C697 0.949 . S
H733 C698 0.950 . S
H734 C702 0.951 . S
H735 C703 0.950 . S
H736 C707 0.949 . S
H737 C708 0.950 . S
H738 C712 0.950 . S
H739 C714 0.950 . S
H740 C717 0.950 . S
H741 C719 0.950 . S
C742 C743 1.443 . S
C742 N746 1.376 . S
C742 C780 1.389 . S
C743 C742 1.443 . S
C743 C744 1.340 . S
C743 H783 0.951 . S
C744 C743 1.340 . S
C744 C745 1.439 . S
C744 H784 0.950 . S
C745 C744 1.439 . S
C745 N746 1.374 . S
C745 C779 1.395 . S
N746 C742 1.376 . S
N746 C745 1.374 . S
N746 Co747 2.008 . S
Co747 N746 2.008 . S
Co747 N748 1.995 . S
Co747 N753 2.008 . S
Co747 N758 1.995 . S
Co747 N763 2.282 . S
Co747 N769 2.282 . S
N748 Co747 1.995 . S
N748 C749 1.376 . S
N748 C752 1.383 . S
C749 N748 1.376 . S
C749 C750 1.446 . S
C749 C779 1.391 . S
C750 C749 1.446 . S
C750 C751 1.339 . S
C750 H785 0.949 . S
C751 C750 1.339 . S
C751 C752 1.439 . S
C751 H786 0.950 . S
C752 N748 1.383 . S
C752 C751 1.439 . S
C752 C781 1.392 . S
N753 Co747 2.008 . S
N753 C754 1.376 . S
N753 C757 1.374 . S
C754 N753 1.376 . S
C754 C755 1.443 . S
C754 C781 1.389 . S
C755 C754 1.443 . S
C755 C756 1.340 . S
C755 H787 0.951 . S
C756 C755 1.340 . S
C756 C757 1.439 . S
C756 H788 0.950 . S
C757 N753 1.374 . S
C757 C756 1.439 . S
C757 C782 1.395 . S
N758 Co747 1.995 . S
N758 C759 1.376 . S
N758 C762 1.383 . S
C759 N758 1.376 . S
C759 C760 1.446 . S
C759 C782 1.391 . S
C760 C759 1.446 . S
C760 C761 1.339 . S
C760 H789 0.949 . S
C761 C760 1.339 . S
C761 C762 1.439 . S
C761 H790 0.950 . S
C762 N758 1.383 . S
C762 C761 1.439 . S
C762 C780 1.392 . S
N763 Co747 2.282 . S
N763 C766 1.332 . S
N763 C768 1.332 . S
C764 C765 1.386 . S
C764 C767 1.388 . S
C765 C764 1.386 . S
C765 C766 1.382 . S
C765 H791 0.950 . S
C766 N763 1.332 . S
C766 C765 1.382 . S
C766 H777 0.952 . S
C767 C764 1.388 . S
C767 C768 1.382 . S
C767 H792 0.950 . S
C768 N763 1.332 . S
C768 C767 1.382 . S
C768 H778 0.948 . S
N769 Co747 2.282 . S
N769 C773 1.332 . S
N769 C774 1.332 . S
C770 C771 1.388 . S
C770 C774 1.382 . S
C770 H793 0.950 . S
C771 C770 1.388 . S
C771 C772 1.386 . S
C772 C771 1.386 . S
C772 C773 1.382 . S
C772 H794 0.950 . S
C773 N769 1.332 . S
C773 C772 1.382 . S
C773 H775 0.952 . S
C774 N769 1.332 . S
C774 C770 1.382 . S
C774 H776 0.948 . S
H775 C773 0.952 . S
H776 C774 0.948 . S
H777 C766 0.952 . S
H778 C768 0.948 . S
C779 C745 1.395 . S
C779 C749 1.391 . S
C780 C742 1.389 . S
C780 C762 1.392 . S
C781 C752 1.392 . S
C781 C754 1.389 . S
C782 C757 1.395 . S
C782 C759 1.391 . S
H783 C743 0.951 . S
H784 C744 0.950 . S
H785 C750 0.949 . S
H786 C751 0.950 . S
H787 C755 0.951 . S
H788 C756 0.950 . S
H789 C760 0.949 . S
H790 C761 0.950 . S
H791 C765 0.950 . S
H792 C767 0.950 . S
H793 C770 0.950 . S
H794 C772 0.950 . S
C795 C796 1.443 . S
C795 N799 1.376 . S
C795 C833 1.389 . S
C796 C795 1.443 . S
C796 C797 1.340 . S
C796 H836 0.951 . S
C797 C796 1.340 . S
C797 C798 1.439 . S
C797 H837 0.950 . S
C798 C797 1.439 . S
C798 N799 1.374 . S
C798 C832 1.395 . S
N799 C795 1.376 . S
N799 C798 1.374 . S
N799 Co800 2.008 . S
Co800 N799 2.008 . S
Co800 N801 1.995 . S
Co800 N806 2.008 . S
Co800 N811 1.995 . S
Co800 N816 2.282 . S
Co800 N822 2.282 . S
N801 Co800 1.995 . S
N801 C802 1.376 . S
N801 C805 1.383 . S
C802 N801 1.376 . S
C802 C803 1.446 . S
C802 C832 1.391 . S
C803 C802 1.446 . S
C803 C804 1.339 . S
C803 H838 0.949 . S
C804 C803 1.339 . S
C804 C805 1.439 . S
C804 H839 0.950 . S
C805 N801 1.383 . S
C805 C804 1.439 . S
C805 C834 1.392 . S
N806 Co800 2.008 . S
N806 C807 1.376 . S
N806 C810 1.374 . S
C807 N806 1.376 . S
C807 C808 1.443 . S
C807 C834 1.389 . S
C808 C807 1.443 . S
C808 C809 1.340 . S
C808 H840 0.951 . S
C809 C808 1.340 . S
C809 C810 1.439 . S
C809 H841 0.950 . S
C810 N806 1.374 . S
C810 C809 1.439 . S
C810 C835 1.395 . S
N811 Co800 1.995 . S
N811 C812 1.376 . S
N811 C815 1.383 . S
C812 N811 1.376 . S
C812 C813 1.446 . S
C812 C835 1.391 . S
C813 C812 1.446 . S
C813 C814 1.339 . S
C813 H842 0.949 . S
C814 C813 1.339 . S
C814 C815 1.439 . S
C814 H843 0.950 . S
C815 N811 1.383 . S
C815 C814 1.439 . S
C815 C833 1.392 . S
N816 Co800 2.282 . S
N816 C819 1.332 . S
N816 C821 1.332 . S
C817 C818 1.386 . S
C817 C820 1.388 . S
C818 C817 1.386 . S
C818 C819 1.382 . S
C818 H844 0.950 . S
C819 N816 1.332 . S
C819 C818 1.382 . S
C819 H830 0.952 . S
C820 C817 1.388 . S
C820 C821 1.382 . S
C820 H845 0.950 . S
C821 N816 1.332 . S
C821 C820 1.382 . S
C821 H831 0.948 . S
N822 Co800 2.282 . S
N822 C826 1.332 . S
N822 C827 1.332 . S
C823 C824 1.388 . S
C823 C827 1.382 . S
C823 H846 0.950 . S
C824 C823 1.388 . S
C824 C825 1.386 . S
C825 C824 1.386 . S
C825 C826 1.382 . S
C825 H847 0.950 . S
C826 N822 1.332 . S
C826 C825 1.382 . S
C826 H828 0.952 . S
C827 N822 1.332 . S
C827 C823 1.382 . S
C827 H829 0.948 . S
H828 C826 0.952 . S
H829 C827 0.948 . S
H830 C819 0.952 . S
H831 C821 0.948 . S
C832 C798 1.395 . S
C832 C802 1.391 . S
C833 C795 1.389 . S
C833 C815 1.392 . S
C834 C805 1.392 . S
C834 C807 1.389 . S
C835 C810 1.395 . S
C835 C812 1.391 . S
H836 C796 0.951 . S
H837 C797 0.950 . S
H838 C803 0.949 . S
H839 C804 0.950 . S
H840 C808 0.951 . S
H841 C809 0.950 . S
H842 C813 0.949 . S
H843 C814 0.950 . S
H844 C818 0.950 . S
H845 C820 0.950 . S
H846 C823 0.950 . S
H847 C825 0.950 . S
H848 C856 0.929 . S
H849 C858 0.930 . S
H850 C860 0.930 . S
H851 C863 0.929 . S
H852 C866 0.930 . S
H853 C868 0.960 . S
H854 C868 0.960 . S
H855 C868 0.960 . S
C856 H848 0.929 . S
C856 C857 1.377 . S
C856 C858 1.384 . S
C857 C856 1.377 . S
C857 C863 1.390 . S
C858 H849 0.930 . S
C858 C856 1.384 . S
C858 C859 1.372 . S
C859 C858 1.372 . S
C859 C860 1.400 . S
C859 C864 1.490 . S
C860 H850 0.930 . S
C860 C859 1.400 . S
C860 C863 1.386 . S
H861 C877 0.930 . S
H862 C878 0.931 . S
C863 H851 0.929 . S
C863 C857 1.390 . S
C863 C860 1.386 . S
C864 C859 1.490 . S
C864 C866 1.395 . S
C864 C867 1.403 . S
H865 C871 0.930 . S
C866 H852 0.930 . S
C866 C864 1.395 . S
C866 C869 1.403 1_455 S
C867 C864 1.403 . S
C867 C868 1.524 . S
C867 C871 1.400 1_455 S
C868 H853 0.960 . S
C868 H854 0.960 . S
C868 H855 0.960 . S
C868 C867 1.524 . S
C869 C866 1.403 1_655 S
C869 C870 1.392 . S
C869 C873 1.495 . S
C870 C869 1.392 . S
C870 C871 1.385 . S
C870 C872 1.478 . S
C871 H865 0.930 . S
C871 C867 1.400 1_655 S
C871 C870 1.385 . S
C872 C870 1.478 . S
C872 C874 1.381 . S
C872 C878 1.383 . S
C873 C869 1.495 . S
C873 H879 0.959 . S
C873 H880 0.961 . S
C873 H881 0.960 . S
C874 C872 1.381 . S
C874 C875 1.394 . S
C874 H882 0.930 . S
C875 C874 1.394 . S
C875 C876 1.383 . S
C875 H883 0.929 . S
C876 C875 1.383 . S
C876 C877 1.377 . S
C877 H861 0.930 . S
C877 C876 1.377 . S
C877 C878 1.379 . S
C878 H862 0.931 . S
C878 C872 1.383 . S
C878 C877 1.379 . S
H879 C873 0.959 . S
H880 C873 0.961 . S
H881 C873 0.960 . S
H882 C874 0.930 . S
H883 C875 0.929 . S
H884 C892 0.929 . S
H885 C894 0.930 . S
H886 C896 0.930 . S
H887 C899 0.929 . S
H888 C902 0.930 . S
H889 C904 0.960 1_545 S
H890 C904 0.960 . S
H891 C904 0.960 . S
C892 H884 0.929 . S
C892 C893 1.377 . S
C892 C894 1.384 . S
C893 C892 1.377 . S
C893 C899 1.390 . S
C894 H885 0.930 . S
C894 C892 1.384 . S
C894 C895 1.372 . S
C895 C894 1.372 . S
C895 C896 1.400 . S
C895 C900 1.490 . S
C896 H886 0.930 . S
C896 C895 1.400 . S
C896 C899 1.386 . S
H897 C913 0.930 . S
H898 C914 0.931 . S
C899 H887 0.929 . S
C899 C893 1.390 . S
C899 C896 1.386 . S
C900 C895 1.490 . S
C900 C902 1.395 . S
C900 C903 1.403 . S
H901 C907 0.930 . S
C902 H888 0.930 . S
C902 C900 1.395 . S
C902 C905 1.403 1_565 S
C903 C900 1.403 . S
C903 C904 1.524 . S
C903 C907 1.400 1_565 S
C904 H889 0.960 1_565 S
C904 H890 0.960 . S
C904 H891 0.960 . S
C904 C903 1.524 . S
C905 C902 1.403 1_545 S
C905 C906 1.392 . S
C905 C909 1.495 . S
C906 C905 1.392 . S
C906 C907 1.385 . S
C906 C908 1.478 . S
C907 H901 0.930 . S
C907 C903 1.400 1_545 S
C907 C906 1.385 . S
C908 C906 1.478 . S
C908 C910 1.381 . S
C908 C914 1.383 . S
C909 C905 1.495 . S
C909 H915 0.959 1_545 S
C909 H916 0.961 . S
C909 H917 0.960 . S
C910 C908 1.381 . S
C910 C911 1.394 . S
C910 H918 0.930 . S
C911 C910 1.394 . S
C911 C912 1.383 . S
C911 H919 0.929 . S
C912 C911 1.383 . S
C912 C913 1.377 . S
C913 H897 0.930 . S
C913 C912 1.377 . S
C913 C914 1.379 . S
C914 H898 0.931 . S
C914 C908 1.383 . S
C914 C913 1.379 . S
H915 C909 0.959 1_565 S
H916 C909 0.961 . S
H917 C909 0.960 . S
H918 C910 0.930 . S
H919 C911 0.929 . S
H920 C928 0.929 . S
H921 C930 0.930 . S
H922 C932 0.930 . S
H923 C935 0.929 . S
H924 C938 0.930 . S
H925 C940 0.960 . S
H926 C940 0.960 . S
H927 C940 0.960 . S
C928 H920 0.929 . S
C928 C929 1.377 . S
C928 C930 1.384 . S
C929 C928 1.377 . S
C929 C935 1.390 . S
C930 H921 0.930 . S
C930 C928 1.384 . S
C930 C931 1.372 . S
C931 C930 1.372 . S
C931 C932 1.400 . S
C931 C936 1.490 . S
C932 H922 0.930 . S
C932 C931 1.400 . S
C932 C935 1.386 . S
H933 C949 0.930 . S
H934 C950 0.931 . S
C935 H923 0.929 . S
C935 C929 1.390 . S
C935 C932 1.386 . S
C936 C931 1.490 . S
C936 C938 1.395 . S
C936 C939 1.403 . S
H937 C943 0.930 . S
C938 H924 0.930 . S
C938 C936 1.395 . S
C938 C941 1.403 1_455 S
C939 C936 1.403 . S
C939 C940 1.524 . S
C939 C943 1.400 1_455 S
C940 H925 0.960 . S
C940 H926 0.960 . S
C940 H927 0.960 . S
C940 C939 1.524 . S
C941 C938 1.403 1_655 S
C941 C942 1.392 . S
C941 C945 1.495 . S
C942 C941 1.392 . S
C942 C943 1.385 . S
C942 C944 1.478 . S
C943 H937 0.930 . S
C943 C939 1.400 1_655 S
C943 C942 1.385 . S
C944 C942 1.478 . S
C944 C946 1.381 . S
C944 C950 1.383 . S
C945 C941 1.495 . S
C945 H951 0.959 . S
C945 H952 0.961 . S
C945 H953 0.960 . S
C946 C944 1.381 . S
C946 C947 1.394 . S
C946 H954 0.930 . S
C947 C946 1.394 . S
C947 C948 1.383 . S
C947 H955 0.929 . S
C948 C947 1.383 . S
C948 C949 1.377 . S
C949 H933 0.930 . S
C949 C948 1.377 . S
C949 C950 1.379 . S
C950 H934 0.931 . S
C950 C944 1.383 . S
C950 C949 1.379 . S
H951 C945 0.959 . S
H952 C945 0.961 . S
H953 C945 0.960 . S
H954 C946 0.930 . S
H955 C947 0.929 . S
H956 C964 0.929 . S
H957 C966 0.930 . S
H958 C968 0.930 . S
H959 C971 0.929 . S
H960 C974 0.930 . S
H961 C976 0.960 1_545 S
H962 C976 0.960 . S
H963 C976 0.960 . S
C964 H956 0.929 . S
C964 C965 1.377 . S
C964 C966 1.384 . S
C965 C964 1.377 . S
C965 C971 1.390 . S
C966 H957 0.930 . S
C966 C964 1.384 . S
C966 C967 1.372 . S
C967 C966 1.372 . S
C967 C968 1.400 . S
C967 C972 1.490 . S
C968 H958 0.930 . S
C968 C967 1.400 . S
C968 C971 1.386 . S
H969 C985 0.930 . S
H970 C986 0.931 . S
C971 H959 0.929 . S
C971 C965 1.390 . S
C971 C968 1.386 . S
C972 C967 1.490 . S
C972 C974 1.395 . S
C972 C975 1.403 . S
H973 C979 0.930 . S
C974 H960 0.930 . S
C974 C972 1.395 . S
C974 C977 1.403 1_565 S
C975 C972 1.403 . S
C975 C976 1.524 . S
C975 C979 1.400 1_565 S
C976 H961 0.960 1_565 S
C976 H962 0.960 . S
C976 H963 0.960 . S
C976 C975 1.524 . S
C977 C974 1.403 1_545 S
C977 C978 1.392 . S
C977 C981 1.495 . S
C978 C977 1.392 . S
C978 C979 1.385 . S
C978 C980 1.478 . S
C979 H973 0.930 . S
C979 C975 1.400 1_545 S
C979 C978 1.385 . S
C980 C978 1.478 . S
C980 C982 1.381 . S
C980 C986 1.383 . S
C981 C977 1.495 . S
C981 H987 0.959 1_545 S
C981 H988 0.961 . S
C981 H989 0.960 . S
C982 C980 1.381 . S
C982 C983 1.394 . S
C982 H990 0.930 . S
C983 C982 1.394 . S
C983 C984 1.383 . S
C983 H991 0.929 . S
C984 C983 1.383 . S
C984 C985 1.377 . S
C985 H969 0.930 . S
C985 C984 1.377 . S
C985 C986 1.379 . S
C986 H970 0.931 . S
C986 C980 1.383 . S
C986 C985 1.379 . S
H987 C981 0.959 1_565 S
H988 C981 0.961 . S
H989 C981 0.960 . S
H990 C982 0.930 . S
H991 C983 0.929 . S
H992 C1000 0.929 . S
H993 C1002 0.930 . S
H994 C1004 0.930 . S
H995 C1007 0.929 . S
H996 C1010 0.930 . S
H997 C1012 1.004 . S
H998 C1012 0.960 . S
H999 C1012 0.960 . S
C1000 H992 0.929 . S
C1000 C1001 1.377 . S
C1000 C1002 1.384 . S
C1001 C1000 1.377 . S
C1001 C1007 1.390 . S
C1002 H993 0.930 . S
C1002 C1000 1.384 . S
C1002 C1003 1.372 . S
C1003 C1002 1.372 . S
C1003 C1004 1.400 . S
C1003 C1008 1.490 . S
C1004 H994 0.930 . S
C1004 C1003 1.400 . S
C1004 C1007 1.386 . S
H1005 C1021 0.930 . S
H1006 C1022 0.931 . S
C1007 H995 0.929 . S
C1007 C1001 1.390 . S
C1007 C1004 1.386 . S
C1008 C1003 1.490 . S
C1008 C1010 1.395 . S
C1008 C1011 1.403 . S
H1009 C1015 0.930 . S
C1010 H996 0.930 . S
C1010 C1008 1.395 . S
C1010 C1013 1.403 1_655 S
C1011 C1008 1.403 . S
C1011 C1012 1.524 . S
C1011 C1015 1.400 1_655 S
C1012 H997 1.004 . S
C1012 H998 0.960 . S
C1012 H999 0.960 . S
C1012 C1011 1.524 . S
C1013 C1010 1.403 1_455 S
C1013 C1014 1.392 . S
C1013 C1017 1.495 . S
C1014 C1013 1.392 . S
C1014 C1015 1.385 . S
C1014 C1016 1.478 . S
C1015 H1009 0.930 . S
C1015 C1011 1.400 1_455 S
C1015 C1014 1.385 . S
C1016 C1014 1.478 . S
C1016 C1018 1.381 . S
C1016 C1022 1.383 . S
C1017 C1013 1.495 . S
C1017 H1023 0.975 . S
C1017 H1024 0.961 . S
C1017 H1025 0.960 . S
C1018 C1016 1.381 . S
C1018 C1019 1.394 . S
C1018 H1026 0.930 . S
C1019 C1018 1.394 . S
C1019 C1020 1.383 . S
C1019 H1027 0.929 . S
C1020 C1019 1.383 . S
C1020 C1021 1.377 . S
C1021 H1005 0.930 . S
C1021 C1020 1.377 . S
C1021 C1022 1.379 . S
C1022 H1006 0.931 . S
C1022 C1016 1.383 . S
C1022 C1021 1.379 . S
H1023 C1017 0.975 . S
H1024 C1017 0.961 . S
H1025 C1017 0.960 . S
H1026 C1018 0.930 . S
H1027 C1019 0.929 . S
H1028 C1036 0.929 . S
H1029 C1038 0.930 . S
H1030 C1040 0.930 . S
H1031 C1043 0.929 . S
H1032 C1046 0.930 . S
H1033 C1048 0.960 . S
H1034 C1048 0.960 . S
H1035 C1048 0.960 . S
C1036 H1028 0.929 . S
C1036 C1037 1.377 . S
C1036 C1038 1.384 . S
C1037 C1036 1.377 . S
C1037 C1043 1.390 . S
C1038 H1029 0.930 . S
C1038 C1036 1.384 . S
C1038 C1039 1.372 . S
C1039 C1038 1.372 . S
C1039 C1040 1.400 . S
C1039 C1044 1.490 . S
C1040 H1030 0.930 . S
C1040 C1039 1.400 . S
C1040 C1043 1.386 . S
H1041 C1057 0.930 . S
H1042 C1058 0.931 . S
C1043 H1031 0.929 . S
C1043 C1037 1.390 . S
C1043 C1040 1.386 . S
C1044 C1039 1.490 . S
C1044 C1046 1.395 . S
C1044 C1047 1.403 . S
H1045 C1051 0.930 . S
C1046 H1032 0.930 . S
C1046 C1044 1.395 . S
C1046 C1049 1.403 1_545 S
C1047 C1044 1.403 . S
C1047 C1048 1.524 . S
C1047 C1051 1.400 1_545 S
C1048 H1033 0.960 . S
C1048 H1034 0.960 . S
C1048 H1035 0.960 . S
C1048 C1047 1.524 . S
C1049 C1046 1.403 1_565 S
C1049 C1050 1.392 . S
C1049 C1053 1.495 . S
C1050 C1049 1.392 . S
C1050 C1051 1.385 . S
C1050 C1052 1.478 . S
C1051 H1045 0.930 . S
C1051 C1047 1.400 1_565 S
C1051 C1050 1.385 . S
C1052 C1050 1.478 . S
C1052 C1054 1.381 . S
C1052 C1058 1.383 . S
C1053 C1049 1.495 . S
C1053 H1059 0.959 . S
C1053 H1060 0.961 . S
C1053 H1061 0.960 . S
C1054 C1052 1.381 . S
C1054 C1055 1.394 . S
C1054 H1062 0.930 . S
C1055 C1054 1.394 . S
C1055 C1056 1.383 . S
C1055 H1063 0.929 . S
C1056 C1055 1.383 . S
C1056 C1057 1.377 . S
C1057 H1041 0.930 . S
C1057 C1056 1.377 . S
C1057 C1058 1.379 . S
C1058 H1042 0.931 . S
C1058 C1052 1.383 . S
C1058 C1057 1.379 . S
H1059 C1053 0.959 . S
H1060 C1053 0.961 . S
H1061 C1053 0.960 . S
H1062 C1054 0.930 . S
H1063 C1055 0.929 . S
H1064 C1072 0.929 . S
H1065 C1074 0.930 . S
H1066 C1076 0.930 . S
H1067 C1079 0.929 . S
H1068 C1082 0.930 . S
H1069 C1084 0.960 . S
H1070 C1084 0.960 . S
H1071 C1084 0.960 . S
C1072 H1064 0.929 . S
C1072 C1073 1.377 . S
C1072 C1074 1.384 . S
C1073 C1072 1.377 . S
C1073 C1079 1.390 . S
C1074 H1065 0.930 . S
C1074 C1072 1.384 . S
C1074 C1075 1.372 . S
C1075 C1074 1.372 . S
C1075 C1076 1.400 . S
C1075 C1080 1.490 . S
C1076 H1066 0.930 . S
C1076 C1075 1.400 . S
C1076 C1079 1.386 . S
H1077 C1093 0.930 . S
H1078 C1094 0.931 . S
C1079 H1067 0.929 . S
C1079 C1073 1.390 . S
C1079 C1076 1.386 . S
C1080 C1075 1.490 . S
C1080 C1082 1.395 . S
C1080 C1083 1.403 . S
H1081 C1087 0.930 . S
C1082 H1068 0.930 . S
C1082 C1080 1.395 . S
C1082 C1085 1.403 1_655 S
C1083 C1080 1.403 . S
C1083 C1084 1.524 . S
C1083 C1087 1.400 1_655 S
C1084 H1069 0.960 . S
C1084 H1070 0.960 . S
C1084 H1071 0.960 . S
C1084 C1083 1.524 . S
C1085 C1082 1.403 1_455 S
C1085 C1086 1.392 . S
C1085 C1089 1.495 . S
C1086 C1085 1.392 . S
C1086 C1087 1.385 . S
C1086 C1088 1.478 . S
C1087 H1081 0.930 . S
C1087 C1083 1.400 1_455 S
C1087 C1086 1.385 . S
C1088 C1086 1.478 . S
C1088 C1090 1.381 . S
C1088 C1094 1.383 . S
C1089 C1085 1.495 . S
C1089 H1095 0.959 . S
C1089 H1096 0.961 . S
C1089 H1097 0.960 . S
C1090 C1088 1.381 . S
C1090 C1091 1.394 . S
C1090 H1098 0.930 . S
C1091 C1090 1.394 . S
C1091 C1092 1.383 . S
C1091 H1099 0.929 . S
C1092 C1091 1.383 . S
C1092 C1093 1.377 . S
C1093 H1077 0.930 . S
C1093 C1092 1.377 . S
C1093 C1094 1.379 . S
C1094 H1078 0.931 . S
C1094 C1088 1.383 . S
C1094 C1093 1.379 . S
H1095 C1089 0.959 . S
H1096 C1089 0.961 . S
H1097 C1089 0.960 . S
H1098 C1090 0.930 . S
H1099 C1091 0.929 . S
H1100 C1108 0.929 . S
H1101 C1110 0.930 . S
H1102 C1112 0.930 . S
H1103 C1115 0.929 . S
H1104 C1118 0.930 . S
H1105 C1120 0.960 . S
H1106 C1120 0.960 . S
H1107 C1120 0.960 . S
C1108 H1100 0.929 . S
C1108 C1109 1.377 . S
C1108 C1110 1.384 . S
C1109 C1108 1.377 . S
C1109 C1115 1.390 . S
C1110 H1101 0.930 . S
C1110 C1108 1.384 . S
C1110 C1111 1.372 . S
C1111 C1110 1.372 . S
C1111 C1112 1.400 . S
C1111 C1116 1.490 . S
C1112 H1102 0.930 . S
C1112 C1111 1.400 . S
C1112 C1115 1.386 . S
H1113 C1129 0.930 . S
H1114 C1130 0.931 . S
C1115 H1103 0.929 . S
C1115 C1109 1.390 . S
C1115 C1112 1.386 . S
C1116 C1111 1.490 . S
C1116 C1118 1.395 . S
C1116 C1119 1.403 . S
H1117 C1123 0.930 . S
C1118 H1104 0.930 . S
C1118 C1116 1.395 . S
C1118 C1121 1.403 1_545 S
C1119 C1116 1.403 . S
C1119 C1120 1.524 . S
C1119 C1123 1.400 1_545 S
C1120 H1105 0.960 . S
C1120 H1106 0.960 . S
C1120 H1107 0.960 . S
C1120 C1119 1.524 . S
C1121 C1118 1.403 1_565 S
C1121 C1122 1.392 . S
C1121 C1125 1.495 . S
C1122 C1121 1.392 . S
C1122 C1123 1.385 . S
C1122 C1124 1.478 . S
C1123 H1117 0.930 . S
C1123 C1119 1.400 1_565 S
C1123 C1122 1.385 . S
C1124 C1122 1.478 . S
C1124 C1126 1.381 . S
C1124 C1130 1.383 . S
C1125 C1121 1.495 . S
C1125 H1131 0.959 . S
C1125 H1132 0.961 . S
C1125 H1133 0.960 . S
C1126 C1124 1.381 . S
C1126 C1127 1.394 . S
C1126 H1134 0.930 . S
C1127 C1126 1.394 . S
C1127 C1128 1.383 . S
C1127 H1135 0.929 . S
C1128 C1127 1.383 . S
C1128 C1129 1.377 . S
C1129 H1113 0.930 . S
C1129 C1128 1.377 . S
C1129 C1130 1.379 . S
C1130 H1114 0.931 . S
C1130 C1124 1.383 . S
C1130 C1129 1.379 . S
H1131 C1125 0.959 . S
H1132 C1125 0.961 . S
H1133 C1125 0.960 . S
H1134 C1126 0.930 . S
H1135 C1127 0.929 . S
H1136 C1144 0.929 . S
H1137 C1146 0.930 . S
H1138 C1148 0.930 . S
H1139 C1151 0.929 . S
H1140 C1154 0.930 . S
H1141 C1156 0.960 . S
H1142 C1156 0.960 . S
H1143 C1156 0.960 . S
C1144 H1136 0.929 . S
C1144 C1145 1.377 . S
C1144 C1146 1.384 . S
C1145 C1144 1.377 . S
C1145 C1151 1.390 . S
C1146 H1137 0.930 . S
C1146 C1144 1.384 . S
C1146 C1147 1.372 . S
C1147 C1146 1.372 . S
C1147 C1148 1.400 . S
C1147 C1152 1.490 . S
C1148 H1138 0.930 . S
C1148 C1147 1.400 . S
C1148 C1151 1.386 . S
H1149 C1165 0.930 . S
H1150 C1166 0.931 . S
C1151 H1139 0.929 . S
C1151 C1145 1.390 . S
C1151 C1148 1.386 . S
C1152 C1147 1.490 . S
C1152 C1154 1.395 . S
C1152 C1155 1.403 . S
H1153 C1159 0.930 . S
C1154 H1140 0.930 . S
C1154 C1152 1.395 . S
C1154 C1157 1.403 . S
C1155 C1152 1.403 . S
C1155 C1156 1.524 . S
C1155 C1159 1.400 . S
C1156 H1141 0.960 . S
C1156 H1142 0.960 . S
C1156 H1143 0.960 . S
C1156 C1155 1.524 . S
C1157 C1154 1.403 . S
C1157 C1158 1.392 . S
C1157 C1161 1.495 . S
C1158 C1157 1.392 . S
C1158 C1159 1.385 . S
C1158 C1160 1.478 . S
C1159 H1153 0.930 . S
C1159 C1155 1.400 . S
C1159 C1158 1.385 . S
C1160 C1158 1.478 . S
C1160 C1162 1.381 . S
C1160 C1166 1.383 . S
C1161 C1157 1.495 . S
C1161 H1167 0.959 . S
C1161 H1168 0.961 . S
C1161 H1169 0.960 . S
C1162 C1160 1.381 . S
C1162 C1163 1.394 . S
C1162 H1170 0.930 . S
C1163 C1162 1.394 . S
C1163 C1164 1.383 . S
C1163 H1171 0.929 . S
C1164 C1163 1.383 . S
C1164 C1165 1.377 . S
C1165 H1149 0.930 . S
C1165 C1164 1.377 . S
C1165 C1166 1.379 . S
C1166 H1150 0.931 . S
C1166 C1160 1.383 . S
C1166 C1165 1.379 . S
H1167 C1161 0.959 . S
H1168 C1161 0.961 . S
H1169 C1161 0.960 . S
H1170 C1162 0.930 . S
H1171 C1163 0.929 . S
H1172 C1180 0.929 . S
H1173 C1182 0.930 . S
H1174 C1184 0.930 . S
H1175 C1187 0.929 . S
H1176 C1190 0.930 . S
H1177 C1192 0.960 . S
H1178 C1192 0.960 . S
H1179 C1192 0.960 . S
C1180 H1172 0.929 . S
C1180 C1181 1.377 . S
C1180 C1182 1.384 . S
C1181 C1180 1.377 . S
C1181 C1187 1.390 . S
C1182 H1173 0.930 . S
C1182 C1180 1.384 . S
C1182 C1183 1.372 . S
C1183 C1182 1.372 . S
C1183 C1184 1.400 . S
C1183 C1188 1.490 . S
C1184 H1174 0.930 . S
C1184 C1183 1.400 . S
C1184 C1187 1.386 . S
H1185 C1201 0.930 . S
H1186 C1202 0.931 . S
C1187 H1175 0.929 . S
C1187 C1181 1.390 . S
C1187 C1184 1.386 . S
C1188 C1183 1.490 . S
C1188 C1190 1.395 . S
C1188 C1191 1.403 . S
H1189 C1195 0.930 . S
C1190 H1176 0.930 . S
C1190 C1188 1.395 . S
C1190 C1193 1.403 . S
C1191 C1188 1.403 . S
C1191 C1192 1.524 . S
C1191 C1195 1.400 . S
C1192 H1177 0.960 . S
C1192 H1178 0.960 . S
C1192 H1179 0.960 . S
C1192 C1191 1.524 . S
C1193 C1190 1.403 . S
C1193 C1194 1.392 . S
C1193 C1197 1.495 . S
C1194 C1193 1.392 . S
C1194 C1195 1.385 . S
C1194 C1196 1.478 . S
C1195 H1189 0.930 . S
C1195 C1191 1.400 . S
C1195 C1194 1.385 . S
C1196 C1194 1.478 . S
C1196 C1198 1.381 . S
C1196 C1202 1.383 . S
C1197 C1193 1.495 . S
C1197 H1203 0.959 . S
C1197 H1204 0.961 . S
C1197 H1205 0.960 . S
C1198 C1196 1.381 . S
C1198 C1199 1.394 . S
C1198 H1206 0.930 . S
C1199 C1198 1.394 . S
C1199 C1200 1.383 . S
C1199 H1207 0.929 . S
C1200 C1199 1.383 . S
C1200 C1201 1.377 . S
C1201 H1185 0.930 . S
C1201 C1200 1.377 . S
C1201 C1202 1.379 . S
C1202 H1186 0.931 . S
C1202 C1196 1.383 . S
C1202 C1201 1.379 . S
H1203 C1197 0.959 . S
H1204 C1197 0.961 . S
H1205 C1197 0.960 . S
H1206 C1198 0.930 . S
H1207 C1199 0.929 . S
H1208 C1216 0.929 . S
H1209 C1218 0.930 . S
H1210 C1220 0.930 . S
H1211 C1223 0.929 . S
H1212 C1226 0.930 . S
H1213 C1228 0.960 . S
H1214 C1228 0.960 . S
H1215 C1228 0.960 . S
C1216 H1208 0.929 . S
C1216 C1217 1.377 . S
C1216 C1218 1.384 . S
C1217 C1216 1.377 . S
C1217 C1223 1.390 . S
C1218 H1209 0.930 . S
C1218 C1216 1.384 . S
C1218 C1219 1.372 . S
C1219 C1218 1.372 . S
C1219 C1220 1.400 . S
C1219 C1224 1.490 . S
C1220 H1210 0.930 . S
C1220 C1219 1.400 . S
C1220 C1223 1.386 . S
H1221 C1237 0.930 . S
H1222 C1238 0.931 . S
C1223 H1211 0.929 . S
C1223 C1217 1.390 . S
C1223 C1220 1.386 . S
C1224 C1219 1.490 . S
C1224 C1226 1.395 . S
C1224 C1227 1.403 . S
H1225 C1231 0.930 . S
C1226 H1212 0.930 . S
C1226 C1224 1.395 . S
C1226 C1229 1.403 . S
C1227 C1224 1.403 . S
C1227 C1228 1.524 . S
C1227 C1231 1.400 . S
C1228 H1213 0.960 . S
C1228 H1214 0.960 . S
C1228 H1215 0.960 . S
C1228 C1227 1.524 . S
C1229 C1226 1.403 . S
C1229 C1230 1.392 . S
C1229 C1233 1.495 . S
C1230 C1229 1.392 . S
C1230 C1231 1.385 . S
C1230 C1232 1.478 . S
C1231 H1225 0.930 . S
C1231 C1227 1.400 . S
C1231 C1230 1.385 . S
C1232 C1230 1.478 . S
C1232 C1234 1.381 . S
C1232 C1238 1.383 . S
C1233 C1229 1.495 . S
C1233 H1239 0.959 . S
C1233 H1240 0.961 . S
C1233 H1241 0.960 . S
C1234 C1232 1.381 . S
C1234 C1235 1.394 . S
C1234 H1242 0.930 . S
C1235 C1234 1.394 . S
C1235 C1236 1.383 . S
C1235 H1243 0.929 . S
C1236 C1235 1.383 . S
C1236 C1237 1.377 . S
C1237 H1221 0.930 . S
C1237 C1236 1.377 . S
C1237 C1238 1.379 . S
C1238 H1222 0.931 . S
C1238 C1232 1.383 . S
C1238 C1237 1.379 . S
H1239 C1233 0.959 . S
H1240 C1233 0.961 . S
H1241 C1233 0.960 . S
H1242 C1234 0.930 . S
H1243 C1235 0.929 . S
H1244 C1252 0.929 . S
H1245 C1254 0.930 . S
H1246 C1256 0.930 . S
H1247 C1259 0.929 . S
H1248 C1262 0.930 . S
H1249 C1264 0.960 . S
H1250 C1264 0.960 . S
H1251 C1264 0.960 . S
C1252 H1244 0.929 . S
C1252 C1253 1.377 . S
C1252 C1254 1.384 . S
C1253 C1252 1.377 . S
C1253 C1259 1.390 . S
C1254 H1245 0.930 . S
C1254 C1252 1.384 . S
C1254 C1255 1.372 . S
C1255 C1254 1.372 . S
C1255 C1256 1.400 . S
C1255 C1260 1.490 . S
C1256 H1246 0.930 . S
C1256 C1255 1.400 . S
C1256 C1259 1.386 . S
H1257 C1273 0.930 . S
H1258 C1274 0.931 . S
C1259 H1247 0.929 . S
C1259 C1253 1.390 . S
C1259 C1256 1.386 . S
C1260 C1255 1.490 . S
C1260 C1262 1.395 . S
C1260 C1263 1.403 . S
H1261 C1267 0.930 . S
C1262 H1248 0.930 . S
C1262 C1260 1.395 . S
C1262 C1265 1.403 . S
C1263 C1260 1.403 . S
C1263 C1264 1.524 . S
C1263 C1267 1.400 . S
C1264 H1249 0.960 . S
C1264 H1250 0.960 . S
C1264 H1251 0.960 . S
C1264 C1263 1.524 . S
C1265 C1262 1.403 . S
C1265 C1266 1.392 . S
C1265 C1269 1.495 . S
C1266 C1265 1.392 . S
C1266 C1267 1.385 . S
C1266 C1268 1.478 . S
C1267 H1261 0.930 . S
C1267 C1263 1.400 . S
C1267 C1266 1.385 . S
C1268 C1266 1.478 . S
C1268 C1270 1.381 . S
C1268 C1274 1.383 . S
C1269 C1265 1.495 . S
C1269 H1275 0.959 . S
C1269 H1276 0.961 . S
C1269 H1277 0.960 . S
C1270 C1268 1.381 . S
C1270 C1271 1.394 . S
C1270 H1278 0.930 . S
C1271 C1270 1.394 . S
C1271 C1272 1.383 . S
C1271 H1279 0.929 . S
C1272 C1271 1.383 . S
C1272 C1273 1.377 . S
C1273 H1257 0.930 . S
C1273 C1272 1.377 . S
C1273 C1274 1.379 . S
C1274 H1258 0.931 . S
C1274 C1268 1.383 . S
C1274 C1273 1.379 . S
H1275 C1269 0.959 . S
H1276 C1269 0.961 . S
H1277 C1269 0.960 . S
H1278 C1270 0.930 . S
H1279 C1271 0.929 . S
H1280 C1288 0.929 . S
H1281 C1290 0.930 . S
H1282 C1292 0.930 . S
H1283 C1295 0.929 . S
H1284 C1298 0.930 . S
H1285 C1300 0.960 . S
H1286 C1300 0.960 . S
H1287 C1300 0.960 . S
C1288 H1280 0.929 . S
C1288 C1289 1.377 . S
C1288 C1290 1.384 . S
C1289 C1288 1.377 . S
C1289 C1295 1.390 . S
C1290 H1281 0.930 . S
C1290 C1288 1.384 . S
C1290 C1291 1.372 . S
C1291 C1290 1.372 . S
C1291 C1292 1.400 . S
C1291 C1296 1.490 . S
C1292 H1282 0.930 . S
C1292 C1291 1.400 . S
C1292 C1295 1.386 . S
H1293 C1309 0.930 . S
H1294 C1310 0.931 . S
C1295 H1283 0.929 . S
C1295 C1289 1.390 . S
C1295 C1292 1.386 . S
C1296 C1291 1.490 . S
C1296 C1298 1.395 . S
C1296 C1299 1.403 . S
H1297 C1303 0.930 . S
C1298 H1284 0.930 . S
C1298 C1296 1.395 . S
C1298 C1301 1.403 . S
C1299 C1296 1.403 . S
C1299 C1300 1.524 . S
C1299 C1303 1.400 . S
C1300 H1285 0.960 . S
C1300 H1286 0.960 . S
C1300 H1287 0.960 . S
C1300 C1299 1.524 . S
C1301 C1298 1.403 . S
C1301 C1302 1.392 . S
C1301 C1305 1.495 . S
C1302 C1301 1.392 . S
C1302 C1303 1.385 . S
C1302 C1304 1.478 . S
C1303 H1297 0.930 . S
C1303 C1299 1.400 . S
C1303 C1302 1.385 . S
C1304 C1302 1.478 . S
C1304 C1306 1.381 . S
C1304 C1310 1.383 . S
C1305 C1301 1.495 . S
C1305 H1311 0.959 . S
C1305 H1312 0.961 . S
C1305 H1313 0.960 . S
C1306 C1304 1.381 . S
C1306 C1307 1.394 . S
C1306 H1314 0.930 . S
C1307 C1306 1.394 . S
C1307 C1308 1.383 . S
C1307 H1315 0.929 . S
C1308 C1307 1.383 . S
C1308 C1309 1.377 . S
C1309 H1293 0.930 . S
C1309 C1308 1.377 . S
C1309 C1310 1.379 . S
C1310 H1294 0.931 . S
C1310 C1304 1.383 . S
C1310 C1309 1.379 . S
H1311 C1305 0.959 . S
H1312 C1305 0.961 . S
H1313 C1305 0.960 . S
H1314 C1306 0.930 . S
H1315 C1307 0.929 . S
H1316 C1324 0.929 . S
H1317 C1326 0.930 . S
H1318 C1328 0.930 . S
H1319 C1331 0.929 . S
H1320 C1334 0.930 . S
H1321 C1336 0.960 . S
H1322 C1336 0.960 . S
H1323 C1336 0.960 . S
C1324 H1316 0.929 . S
C1324 C1325 1.377 . S
C1324 C1326 1.384 . S
C1325 C1324 1.377 . S
C1325 C1331 1.390 . S
C1326 H1317 0.930 . S
C1326 C1324 1.384 . S
C1326 C1327 1.372 . S
C1327 C1326 1.372 . S
C1327 C1328 1.400 . S
C1327 C1332 1.490 . S
C1328 H1318 0.930 . S
C1328 C1327 1.400 . S
C1328 C1331 1.386 . S
H1329 C1345 0.930 . S
H1330 C1346 0.931 . S
C1331 H1319 0.929 . S
C1331 C1325 1.390 . S
C1331 C1328 1.386 . S
C1332 C1327 1.490 . S
C1332 C1334 1.395 . S
C1332 C1335 1.403 . S
H1333 C1339 0.930 . S
C1334 H1320 0.930 . S
C1334 C1332 1.395 . S
C1334 C1337 1.403 . S
C1335 C1332 1.403 . S
C1335 C1336 1.524 . S
C1335 C1339 1.400 . S
C1336 H1321 0.960 . S
C1336 H1322 0.960 . S
C1336 H1323 0.960 . S
C1336 C1335 1.524 . S
C1337 C1334 1.403 . S
C1337 C1338 1.392 . S
C1337 C1341 1.495 . S
C1338 C1337 1.392 . S
C1338 C1339 1.385 . S
C1338 C1340 1.478 . S
C1339 H1333 0.930 . S
C1339 C1335 1.400 . S
C1339 C1338 1.385 . S
C1340 C1338 1.478 . S
C1340 C1342 1.381 . S
C1340 C1346 1.383 . S
C1341 C1337 1.495 . S
C1341 H1347 0.959 . S
C1341 H1348 0.961 . S
C1341 H1349 0.960 . S
C1342 C1340 1.381 . S
C1342 C1343 1.394 . S
C1342 H1350 0.930 . S
C1343 C1342 1.394 . S
C1343 C1344 1.383 . S
C1343 H1351 0.929 . S
C1344 C1343 1.383 . S
C1344 C1345 1.377 . S
C1345 H1329 0.930 . S
C1345 C1344 1.377 . S
C1345 C1346 1.379 . S
C1346 H1330 0.931 . S
C1346 C1340 1.383 . S
C1346 C1345 1.379 . S
H1347 C1341 0.959 . S
H1348 C1341 0.961 . S
H1349 C1341 0.960 . S
H1350 C1342 0.930 . S
H1351 C1343 0.929 . S
H1352 C1360 0.929 . S
H1353 C1362 0.930 . S
H1354 C1364 0.930 . S
H1355 C1367 0.929 . S
H1356 C1370 0.930 . S
H1357 C1372 0.960 . S
H1358 C1372 0.960 . S
H1359 C1372 0.960 . S
C1360 H1352 0.929 . S
C1360 C1361 1.377 . S
C1360 C1362 1.384 . S
C1361 C1360 1.377 . S
C1361 C1367 1.390 . S
C1362 H1353 0.930 . S
C1362 C1360 1.384 . S
C1362 C1363 1.372 . S
C1363 C1362 1.372 . S
C1363 C1364 1.400 . S
C1363 C1368 1.490 . S
C1364 H1354 0.930 . S
C1364 C1363 1.400 . S
C1364 C1367 1.386 . S
H1365 C1381 0.930 . S
H1366 C1382 0.931 . S
C1367 H1355 0.929 . S
C1367 C1361 1.390 . S
C1367 C1364 1.386 . S
C1368 C1363 1.490 . S
C1368 C1370 1.395 . S
C1368 C1371 1.403 . S
H1369 C1375 0.930 . S
C1370 H1356 0.930 . S
C1370 C1368 1.395 . S
C1370 C1373 1.403 . S
C1371 C1368 1.403 . S
C1371 C1372 1.524 . S
C1371 C1375 1.400 . S
C1372 H1357 0.960 . S
C1372 H1358 0.960 . S
C1372 H1359 0.960 . S
C1372 C1371 1.524 . S
C1373 C1370 1.403 . S
C1373 C1374 1.392 . S
C1373 C1377 1.495 . S
C1374 C1373 1.392 . S
C1374 C1375 1.385 . S
C1374 C1376 1.478 . S
C1375 H1369 0.930 . S
C1375 C1371 1.400 . S
C1375 C1374 1.385 . S
C1376 C1374 1.478 . S
C1376 C1378 1.381 . S
C1376 C1382 1.383 . S
C1377 C1373 1.495 . S
C1377 H1383 0.959 . S
C1377 H1384 0.961 . S
C1377 H1385 0.960 . S
C1378 C1376 1.381 . S
C1378 C1379 1.394 . S
C1378 H1386 0.930 . S
C1379 C1378 1.394 . S
C1379 C1380 1.383 . S
C1379 H1387 0.929 . S
C1380 C1379 1.383 . S
C1380 C1381 1.377 . S
C1381 H1365 0.930 . S
C1381 C1380 1.377 . S
C1381 C1382 1.379 . S
C1382 H1366 0.931 . S
C1382 C1376 1.383 . S
C1382 C1381 1.379 . S
H1383 C1377 0.959 . S
H1384 C1377 0.961 . S
H1385 C1377 0.960 . S
H1386 C1378 0.930 . S
H1387 C1379 0.929 . S
H1388 C1396 0.929 . S
H1389 C1398 0.930 . S
H1390 C1400 0.930 . S
H1391 C1403 0.929 . S
H1392 C1406 0.930 . S
H1393 C1408 0.960 . S
H1394 C1408 0.960 . S
H1395 C1408 0.960 . S
C1396 H1388 0.929 . S
C1396 C1397 1.377 . S
C1396 C1398 1.384 . S
C1397 C1396 1.377 . S
C1397 C1403 1.390 . S
C1398 H1389 0.930 . S
C1398 C1396 1.384 . S
C1398 C1399 1.372 . S
C1399 C1398 1.372 . S
C1399 C1400 1.400 . S
C1399 C1404 1.490 . S
C1400 H1390 0.930 . S
C1400 C1399 1.400 . S
C1400 C1403 1.386 . S
H1401 C1417 0.930 . S
H1402 C1418 0.931 . S
C1403 H1391 0.929 . S
C1403 C1397 1.390 . S
C1403 C1400 1.386 . S
C1404 C1399 1.490 . S
C1404 C1406 1.395 . S
C1404 C1407 1.403 . S
H1405 C1411 0.930 . S
C1406 H1392 0.930 . S
C1406 C1404 1.395 . S
C1406 C1409 1.403 . S
C1407 C1404 1.403 . S
C1407 C1408 1.524 . S
C1407 C1411 1.400 . S
C1408 H1393 0.960 . S
C1408 H1394 0.960 . S
C1408 H1395 0.960 . S
C1408 C1407 1.524 . S
C1409 C1406 1.403 . S
C1409 C1410 1.392 . S
C1409 C1413 1.495 . S
C1410 C1409 1.392 . S
C1410 C1411 1.385 . S
C1410 C1412 1.478 . S
C1411 H1405 0.930 . S
C1411 C1407 1.400 . S
C1411 C1410 1.385 . S
C1412 C1410 1.478 . S
C1412 C1414 1.381 . S
C1412 C1418 1.383 . S
C1413 C1409 1.495 . S
C1413 H1419 0.959 . S
C1413 H1420 0.961 . S
C1413 H1421 0.960 . S
C1414 C1412 1.381 . S
C1414 C1415 1.394 . S
C1414 H1422 0.930 . S
C1415 C1414 1.394 . S
C1415 C1416 1.383 . S
C1415 H1423 0.929 . S
C1416 C1415 1.383 . S
C1416 C1417 1.377 . S
C1417 H1401 0.930 . S
C1417 C1416 1.377 . S
C1417 C1418 1.379 . S
C1418 H1402 0.931 . S
C1418 C1412 1.383 . S
C1418 C1417 1.379 . S
H1419 C1413 0.959 . S
H1420 C1413 0.961 . S
H1421 C1413 0.960 . S
H1422 C1414 0.930 . S
H1423 C1415 0.929 . S
H1424 C1432 0.929 . S
H1425 C1434 0.930 . S
H1426 C1436 0.930 . S
H1427 C1439 0.929 . S
H1428 C1442 0.930 . S
H1429 C1444 0.960 . S
H1430 C1444 0.960 . S
H1431 C1444 0.960 . S
C1432 H1424 0.929 . S
C1432 C1433 1.377 . S
C1432 C1434 1.384 . S
C1433 C1432 1.377 . S
C1433 C1439 1.390 . S
C1434 H1425 0.930 . S
C1434 C1432 1.384 . S
C1434 C1435 1.372 . S
C1435 C1434 1.372 . S
C1435 C1436 1.400 . S
C1435 C1440 1.490 . S
C1436 H1426 0.930 . S
C1436 C1435 1.400 . S
C1436 C1439 1.386 . S
H1437 C1453 0.930 . S
H1438 C1454 0.931 . S
C1439 H1427 0.929 . S
C1439 C1433 1.390 . S
C1439 C1436 1.386 . S
C1440 C1435 1.490 . S
C1440 C1442 1.395 . S
C1440 C1443 1.403 . S
H1441 C1447 0.930 . S
C1442 H1428 0.930 . S
C1442 C1440 1.395 . S
C1442 C1445 1.403 1_556 S
C1443 C1440 1.403 . S
C1443 C1444 1.524 . S
C1443 C1447 1.400 1_556 S
C1444 H1429 0.960 . S
C1444 H1430 0.960 . S
C1444 H1431 0.960 . S
C1444 C1443 1.524 . S
C1445 C1442 1.403 1_554 S
C1445 C1446 1.392 . S
C1445 C1449 1.495 . S
C1446 C1445 1.392 . S
C1446 C1447 1.385 . S
C1446 C1448 1.478 . S
C1447 H1441 0.930 . S
C1447 C1443 1.400 1_554 S
C1447 C1446 1.385 . S
C1448 C1446 1.478 . S
C1448 C1450 1.381 . S
C1448 C1454 1.383 . S
C1449 C1445 1.495 . S
C1449 H1455 0.959 . S
C1449 H1456 0.961 . S
C1449 H1457 0.960 . S
C1450 C1448 1.381 . S
C1450 C1451 1.394 . S
C1450 H1458 0.930 . S
C1451 C1450 1.394 . S
C1451 C1452 1.383 . S
C1451 H1459 0.929 . S
C1452 C1451 1.383 . S
C1452 C1453 1.377 . S
C1453 H1437 0.930 . S
C1453 C1452 1.377 . S
C1453 C1454 1.379 . S
C1454 H1438 0.931 . S
C1454 C1448 1.383 . S
C1454 C1453 1.379 . S
H1455 C1449 0.959 . S
H1456 C1449 0.961 . S
H1457 C1449 0.960 . S
H1458 C1450 0.930 . S
H1459 C1451 0.929 . S
H1460 C1468 0.929 . S
H1461 C1470 0.930 . S
H1462 C1472 0.930 . S
H1463 C1475 0.929 . S
H1464 C1478 0.930 . S
H1465 C1480 0.960 . S
H1466 C1480 0.960 . S
H1467 C1480 0.960 . S
C1468 H1460 0.929 . S
C1468 C1469 1.377 . S
C1468 C1470 1.384 . S
C1469 C1468 1.377 . S
C1469 C1475 1.390 . S
C1470 H1461 0.930 . S
C1470 C1468 1.384 . S
C1470 C1471 1.372 . S
C1471 C1470 1.372 . S
C1471 C1472 1.400 . S
C1471 C1476 1.490 . S
C1472 H1462 0.930 . S
C1472 C1471 1.400 . S
C1472 C1475 1.386 . S
H1473 C1489 0.930 . S
H1474 C1490 0.931 . S
C1475 H1463 0.929 . S
C1475 C1469 1.390 . S
C1475 C1472 1.386 . S
C1476 C1471 1.490 . S
C1476 C1478 1.395 . S
C1476 C1479 1.403 . S
H1477 C1483 0.930 . S
C1478 H1464 0.930 . S
C1478 C1476 1.395 . S
C1478 C1481 1.403 . S
C1479 C1476 1.403 . S
C1479 C1480 1.524 . S
C1479 C1483 1.400 . S
C1480 H1465 0.960 . S
C1480 H1466 0.960 . S
C1480 H1467 0.960 . S
C1480 C1479 1.524 . S
C1481 C1478 1.403 . S
C1481 C1482 1.392 . S
C1481 C1485 1.495 . S
C1482 C1481 1.392 . S
C1482 C1483 1.385 . S
C1482 C1484 1.478 . S
C1483 H1477 0.930 . S
C1483 C1479 1.400 . S
C1483 C1482 1.385 . S
C1484 C1482 1.478 . S
C1484 C1486 1.381 . S
C1484 C1490 1.383 . S
C1485 C1481 1.495 . S
C1485 H1491 0.959 . S
C1485 H1492 0.961 . S
C1485 H1493 0.960 . S
C1486 C1484 1.381 . S
C1486 C1487 1.394 . S
C1486 H1494 0.930 . S
C1487 C1486 1.394 . S
C1487 C1488 1.383 . S
C1487 H1495 0.929 . S
C1488 C1487 1.383 . S
C1488 C1489 1.377 . S
C1489 H1473 0.930 . S
C1489 C1488 1.377 . S
C1489 C1490 1.379 . S
C1490 H1474 0.931 . S
C1490 C1484 1.383 . S
C1490 C1489 1.379 . S
H1491 C1485 0.959 . S
H1492 C1485 0.961 . S
H1493 C1485 0.960 . S
H1494 C1486 0.930 . S
H1495 C1487 0.929 . S
H1496 C1504 0.929 . S
H1497 C1506 0.930 . S
H1498 C1508 0.930 . S
H1499 C1511 0.929 . S
H1500 C1514 0.930 . S
H1501 C1516 0.960 . S
H1502 C1516 0.960 . S
H1503 C1516 0.960 . S
C1504 H1496 0.929 . S
C1504 C1505 1.377 . S
C1504 C1506 1.384 . S
C1505 C1504 1.377 . S
C1505 C1511 1.390 . S
C1506 H1497 0.930 . S
C1506 C1504 1.384 . S
C1506 C1507 1.372 . S
C1507 C1506 1.372 . S
C1507 C1508 1.400 . S
C1507 C1512 1.490 . S
C1508 H1498 0.930 . S
C1508 C1507 1.400 . S
C1508 C1511 1.386 . S
H1509 C1525 0.930 . S
H1510 C1526 0.931 . S
C1511 H1499 0.929 . S
C1511 C1505 1.390 . S
C1511 C1508 1.386 . S
C1512 C1507 1.490 . S
C1512 C1514 1.395 . S
C1512 C1515 1.403 . S
H1513 C1519 0.930 . S
C1514 H1500 0.930 . S
C1514 C1512 1.395 . S
C1514 C1517 1.403 1_554 S
C1515 C1512 1.403 . S
C1515 C1516 1.524 . S
C1515 C1519 1.400 1_554 S
C1516 H1501 0.960 . S
C1516 H1502 0.960 . S
C1516 H1503 0.960 . S
C1516 C1515 1.524 . S
C1517 C1514 1.403 1_556 S
C1517 C1518 1.392 . S
C1517 C1521 1.495 . S
C1518 C1517 1.392 . S
C1518 C1519 1.385 . S
C1518 C1520 1.478 . S
C1519 H1513 0.930 . S
C1519 C1515 1.400 1_556 S
C1519 C1518 1.385 . S
C1520 C1518 1.478 . S
C1520 C1522 1.381 . S
C1520 C1526 1.383 . S
C1521 C1517 1.495 . S
C1521 H1527 0.959 . S
C1521 H1528 0.961 . S
C1521 H1529 0.960 . S
C1522 C1520 1.381 . S
C1522 C1523 1.394 . S
C1522 H1530 0.930 . S
C1523 C1522 1.394 . S
C1523 C1524 1.383 . S
C1523 H1531 0.929 . S
C1524 C1523 1.383 . S
C1524 C1525 1.377 . S
C1525 H1509 0.930 . S
C1525 C1524 1.377 . S
C1525 C1526 1.379 . S
C1526 H1510 0.931 . S
C1526 C1520 1.383 . S
C1526 C1525 1.379 . S
H1527 C1521 0.959 . S
H1528 C1521 0.961 . S
H1529 C1521 0.960 . S
H1530 C1522 0.930 . S
H1531 C1523 0.929 . S
H1532 C1540 0.929 . S
H1533 C1542 0.930 . S
H1534 C1544 0.930 . S
H1535 C1547 0.929 . S
H1536 C1550 0.930 . S
H1537 C1552 0.960 . S
H1538 C1552 0.960 . S
H1539 C1552 0.960 . S
C1540 H1532 0.929 . S
C1540 C1541 1.377 . S
C1540 C1542 1.384 . S
C1541 C1540 1.377 . S
C1541 C1547 1.390 . S
C1542 H1533 0.930 . S
C1542 C1540 1.384 . S
C1542 C1543 1.372 . S
C1543 C1542 1.372 . S
C1543 C1544 1.400 . S
C1543 C1548 1.490 . S
C1544 H1534 0.930 . S
C1544 C1543 1.400 . S
C1544 C1547 1.386 . S
H1545 C1561 0.930 . S
H1546 C1562 0.931 . S
C1547 H1535 0.929 . S
C1547 C1541 1.390 . S
C1547 C1544 1.386 . S
C1548 C1543 1.490 . S
C1548 C1550 1.395 . S
C1548 C1551 1.403 . S
H1549 C1555 0.930 . S
C1550 H1536 0.930 . S
C1550 C1548 1.395 . S
C1550 C1553 1.403 . S
C1551 C1548 1.403 . S
C1551 C1552 1.524 . S
C1551 C1555 1.400 . S
C1552 H1537 0.960 . S
C1552 H1538 0.960 . S
C1552 H1539 0.960 . S
C1552 C1551 1.524 . S
C1553 C1550 1.403 . S
C1553 C1554 1.392 . S
C1553 C1557 1.495 . S
C1554 C1553 1.392 . S
C1554 C1555 1.385 . S
C1554 C1556 1.478 . S
C1555 H1549 0.930 . S
C1555 C1551 1.400 . S
C1555 C1554 1.385 . S
C1556 C1554 1.478 . S
C1556 C1558 1.381 . S
C1556 C1562 1.383 . S
C1557 C1553 1.495 . S
C1557 H1563 0.959 . S
C1557 H1564 0.961 . S
C1557 H1565 0.960 . S
C1558 C1556 1.381 . S
C1558 C1559 1.394 . S
C1558 H1566 0.930 . S
C1559 C1558 1.394 . S
C1559 C1560 1.383 . S
C1559 H1567 0.929 . S
C1560 C1559 1.383 . S
C1560 C1561 1.377 . S
C1561 H1545 0.930 . S
C1561 C1560 1.377 . S
C1561 C1562 1.379 . S
C1562 H1546 0.931 . S
C1562 C1556 1.383 . S
C1562 C1561 1.379 . S
H1563 C1557 0.959 . S
H1564 C1557 0.961 . S
H1565 C1557 0.960 . S
H1566 C1558 0.930 . S
H1567 C1559 0.929 . S
H1568 C1576 0.929 . S
H1569 C1578 0.930 . S
H1570 C1580 0.930 . S
H1571 C1583 0.929 . S
H1572 C1586 0.930 . S
H1573 C1588 0.960 . S
H1574 C1588 0.960 . S
H1575 C1588 0.960 . S
C1576 H1568 0.929 . S
C1576 C1577 1.377 . S
C1576 C1578 1.384 . S
C1577 C1576 1.377 . S
C1577 C1583 1.390 . S
C1578 H1569 0.930 . S
C1578 C1576 1.384 . S
C1578 C1579 1.372 . S
C1579 C1578 1.372 . S
C1579 C1580 1.400 . S
C1579 C1584 1.490 . S
C1580 H1570 0.930 . S
C1580 C1579 1.400 . S
C1580 C1583 1.386 . S
H1581 C1597 0.930 . S
H1582 C1598 0.931 . S
C1583 H1571 0.929 . S
C1583 C1577 1.390 . S
C1583 C1580 1.386 . S
C1584 C1579 1.490 . S
C1584 C1586 1.395 . S
C1584 C1587 1.403 . S
H1585 C1591 0.930 . S
C1586 H1572 0.930 . S
C1586 C1584 1.395 . S
C1586 C1589 1.403 . S
C1587 C1584 1.403 . S
C1587 C1588 1.524 . S
C1587 C1591 1.400 . S
C1588 H1573 0.960 . S
C1588 H1574 0.960 . S
C1588 H1575 0.960 . S
C1588 C1587 1.524 . S
C1589 C1586 1.403 . S
C1589 C1590 1.392 . S
C1589 C1593 1.495 . S
C1590 C1589 1.392 . S
C1590 C1591 1.385 . S
C1590 C1592 1.478 . S
C1591 H1585 0.930 . S
C1591 C1587 1.400 . S
C1591 C1590 1.385 . S
C1592 C1590 1.478 . S
C1592 C1594 1.381 . S
C1592 C1598 1.383 . S
C1593 C1589 1.495 . S
C1593 H1599 0.959 . S
C1593 H1600 0.961 . S
C1593 H1601 0.960 . S
C1594 C1592 1.381 . S
C1594 C1595 1.394 . S
C1594 H1602 0.930 . S
C1595 C1594 1.394 . S
C1595 C1596 1.383 . S
C1595 H1603 0.929 . S
C1596 C1595 1.383 . S
C1596 C1597 1.377 . S
C1597 H1581 0.930 . S
C1597 C1596 1.377 . S
C1597 C1598 1.379 . S
C1598 H1582 0.931 . S
C1598 C1592 1.383 . S
C1598 C1597 1.379 . S
H1599 C1593 0.959 . S
H1600 C1593 0.961 . S
H1601 C1593 0.960 . S
H1602 C1594 0.930 . S
H1603 C1595 0.929 . S
H1604 C1612 0.929 . S
H1605 C1614 0.930 . S
H1606 C1616 0.930 . S
H1607 C1619 0.929 . S
H1608 C1622 0.930 . S
H1609 C1624 0.960 . S
H1610 C1624 0.960 . S
H1611 C1624 0.960 . S
C1612 H1604 0.929 . S
C1612 C1613 1.377 . S
C1612 C1614 1.384 . S
C1613 C1612 1.377 . S
C1613 C1619 1.390 . S
C1614 H1605 0.930 . S
C1614 C1612 1.384 . S
C1614 C1615 1.372 . S
C1615 C1614 1.372 . S
C1615 C1616 1.400 . S
C1615 C1620 1.490 . S
C1616 H1606 0.930 . S
C1616 C1615 1.400 . S
C1616 C1619 1.386 . S
H1617 C1633 0.930 . S
H1618 C1634 0.931 . S
C1619 H1607 0.929 . S
C1619 C1613 1.390 . S
C1619 C1616 1.386 . S
C1620 C1615 1.490 . S
C1620 C1622 1.395 . S
C1620 C1623 1.403 . S
H1621 C1627 0.930 . S
C1622 H1608 0.930 . S
C1622 C1620 1.395 . S
C1622 C1625 1.403 1_556 S
C1623 C1620 1.403 . S
C1623 C1624 1.524 . S
C1623 C1627 1.400 1_556 S
C1624 H1609 0.960 . S
C1624 H1610 0.960 . S
C1624 H1611 0.960 . S
C1624 C1623 1.524 . S
C1625 C1622 1.403 1_554 S
C1625 C1626 1.392 . S
C1625 C1629 1.495 . S
C1626 C1625 1.392 . S
C1626 C1627 1.385 . S
C1626 C1628 1.478 . S
C1627 H1621 0.930 . S
C1627 C1623 1.400 1_554 S
C1627 C1626 1.385 . S
C1628 C1626 1.478 . S
C1628 C1630 1.381 . S
C1628 C1634 1.383 . S
C1629 C1625 1.495 . S
C1629 H1635 0.959 . S
C1629 H1636 0.961 . S
C1629 H1637 0.960 . S
C1630 C1628 1.381 . S
C1630 C1631 1.394 . S
C1630 H1638 0.930 . S
C1631 C1630 1.394 . S
C1631 C1632 1.383 . S
C1631 H1639 0.929 . S
C1632 C1631 1.383 . S
C1632 C1633 1.377 . S
C1633 H1617 0.930 . S
C1633 C1632 1.377 . S
C1633 C1634 1.379 . S
C1634 H1618 0.931 . S
C1634 C1628 1.383 . S
C1634 C1633 1.379 . S
H1635 C1629 0.959 . S
H1636 C1629 0.961 . S
H1637 C1629 0.960 . S
H1638 C1630 0.930 . S
H1639 C1631 0.929 . S
H1640 C1648 0.929 . S
H1641 C1650 0.930 . S
H1642 C1652 0.930 . S
H1643 C1655 0.929 . S
H1644 C1658 0.930 . S
H1645 C1660 0.960 . S
H1646 C1660 0.960 . S
H1647 C1660 0.960 . S
C1648 H1640 0.929 . S
C1648 C1649 1.377 . S
C1648 C1650 1.384 . S
C1649 C1648 1.377 . S
C1649 C1655 1.390 . S
C1650 H1641 0.930 . S
C1650 C1648 1.384 . S
C1650 C1651 1.372 . S
C1651 C1650 1.372 . S
C1651 C1652 1.400 . S
C1651 C1656 1.490 . S
C1652 H1642 0.930 . S
C1652 C1651 1.400 . S
C1652 C1655 1.386 . S
H1653 C1669 0.930 . S
H1654 C1670 0.931 . S
C1655 H1643 0.929 . S
C1655 C1649 1.390 . S
C1655 C1652 1.386 . S
C1656 C1651 1.490 . S
C1656 C1658 1.395 . S
C1656 C1659 1.403 . S
H1657 C1663 0.930 . S
C1658 H1644 0.930 . S
C1658 C1656 1.395 . S
C1658 C1661 1.403 . S
C1659 C1656 1.403 . S
C1659 C1660 1.524 . S
C1659 C1663 1.400 . S
C1660 H1645 0.960 . S
C1660 H1646 0.960 . S
C1660 H1647 0.960 . S
C1660 C1659 1.524 . S
C1661 C1658 1.403 . S
C1661 C1662 1.392 . S
C1661 C1665 1.495 . S
C1662 C1661 1.392 . S
C1662 C1663 1.385 . S
C1662 C1664 1.478 . S
C1663 H1657 0.930 . S
C1663 C1659 1.400 . S
C1663 C1662 1.385 . S
C1664 C1662 1.478 . S
C1664 C1666 1.381 . S
C1664 C1670 1.383 . S
C1665 C1661 1.495 . S
C1665 H1671 0.959 . S
C1665 H1672 0.961 . S
C1665 H1673 0.960 . S
C1666 C1664 1.381 . S
C1666 C1667 1.394 . S
C1666 H1674 0.930 . S
C1667 C1666 1.394 . S
C1667 C1668 1.383 . S
C1667 H1675 0.929 . S
C1668 C1667 1.383 . S
C1668 C1669 1.377 . S
C1669 H1653 0.930 . S
C1669 C1668 1.377 . S
C1669 C1670 1.379 . S
C1670 H1654 0.931 . S
C1670 C1664 1.383 . S
C1670 C1669 1.379 . S
H1671 C1665 0.959 . S
H1672 C1665 0.961 . S
H1673 C1665 0.960 . S
H1674 C1666 0.930 . S
H1675 C1667 0.929 . S
H1676 C1684 0.929 . S
H1677 C1686 0.930 . S
H1678 C1688 0.930 . S
H1679 C1691 0.929 . S
H1680 C1694 0.930 . S
H1681 C1696 0.960 . S
H1682 C1696 0.960 . S
H1683 C1696 0.960 . S
C1684 H1676 0.929 . S
C1684 C1685 1.377 . S
C1684 C1686 1.384 . S
C1685 C1684 1.377 . S
C1685 C1691 1.390 . S
C1686 H1677 0.930 . S
C1686 C1684 1.384 . S
C1686 C1687 1.372 . S
C1687 C1686 1.372 . S
C1687 C1688 1.400 . S
C1687 C1692 1.490 . S
C1688 H1678 0.930 . S
C1688 C1687 1.400 . S
C1688 C1691 1.386 . S
H1689 C1705 0.930 . S
H1690 C1706 0.931 . S
C1691 H1679 0.929 . S
C1691 C1685 1.390 . S
C1691 C1688 1.386 . S
C1692 C1687 1.490 . S
C1692 C1694 1.395 . S
C1692 C1695 1.403 . S
H1693 C1699 0.930 . S
C1694 H1680 0.930 . S
C1694 C1692 1.395 . S
C1694 C1697 1.403 1_554 S
C1695 C1692 1.403 . S
C1695 C1696 1.524 . S
C1695 C1699 1.400 1_554 S
C1696 H1681 0.960 . S
C1696 H1682 0.960 . S
C1696 H1683 0.960 . S
C1696 C1695 1.524 . S
C1697 C1694 1.403 1_556 S
C1697 C1698 1.392 . S
C1697 C1701 1.495 . S
C1698 C1697 1.392 . S
C1698 C1699 1.385 . S
C1698 C1700 1.478 . S
C1699 H1693 0.930 . S
C1699 C1695 1.400 1_556 S
C1699 C1698 1.385 . S
C1700 C1698 1.478 . S
C1700 C1702 1.381 . S
C1700 C1706 1.383 . S
C1701 C1697 1.495 . S
C1701 H1707 0.959 . S
C1701 H1708 0.961 . S
C1701 H1709 0.960 . S
C1702 C1700 1.381 . S
C1702 C1703 1.394 . S
C1702 H1710 0.930 . S
C1703 C1702 1.394 . S
C1703 C1704 1.383 . S
C1703 H1711 0.929 . S
C1704 C1703 1.383 . S
C1704 C1705 1.377 . S
C1705 H1689 0.930 . S
C1705 C1704 1.377 . S
C1705 C1706 1.379 . S
C1706 H1690 0.931 . S
C1706 C1700 1.383 . S
C1706 C1705 1.379 . S
H1707 C1701 0.959 . S
H1708 C1701 0.961 . S
H1709 C1701 0.960 . S
H1710 C1702 0.930 . S
H1711 C1703 0.929 . S
H1712 C1720 0.929 . S
H1713 C1722 0.930 . S
H1714 C1724 0.930 . S
H1715 C1727 0.929 . S
H1716 C1730 0.930 . S
H1717 C1732 0.960 . S
H1718 C1732 0.960 . S
H1719 C1732 0.960 . S
C1720 H1712 0.929 . S
C1720 C1721 1.377 . S
C1720 C1722 1.384 . S
C1721 C1720 1.377 . S
C1721 C1727 1.390 . S
C1722 H1713 0.930 . S
C1722 C1720 1.384 . S
C1722 C1723 1.372 . S
C1723 C1722 1.372 . S
C1723 C1724 1.400 . S
C1723 C1728 1.490 . S
C1724 H1714 0.930 . S
C1724 C1723 1.400 . S
C1724 C1727 1.386 . S
H1725 C1741 0.930 . S
H1726 C1742 0.931 . S
C1727 H1715 0.929 . S
C1727 C1721 1.390 . S
C1727 C1724 1.386 . S
C1728 C1723 1.490 . S
C1728 C1730 1.395 . S
C1728 C1731 1.403 . S
H1729 C1735 0.930 . S
C1730 H1716 0.930 . S
C1730 C1728 1.395 . S
C1730 C1733 1.403 . S
C1731 C1728 1.403 . S
C1731 C1732 1.524 . S
C1731 C1735 1.400 . S
C1732 H1717 0.960 . S
C1732 H1718 0.960 . S
C1732 H1719 0.960 . S
C1732 C1731 1.524 . S
C1733 C1730 1.403 . S
C1733 C1734 1.392 . S
C1733 C1737 1.495 . S
C1734 C1733 1.392 . S
C1734 C1735 1.385 . S
C1734 C1736 1.478 . S
C1735 H1729 0.930 . S
C1735 C1731 1.400 . S
C1735 C1734 1.385 . S
C1736 C1734 1.478 . S
C1736 C1738 1.381 . S
C1736 C1742 1.383 . S
C1737 C1733 1.495 . S
C1737 H1743 0.959 . S
C1737 H1744 0.961 . S
C1737 H1745 0.960 . S
C1738 C1736 1.381 . S
C1738 C1739 1.394 . S
C1738 H1746 0.930 . S
C1739 C1738 1.394 . S
C1739 C1740 1.383 . S
C1739 H1747 0.929 . S
C1740 C1739 1.383 . S
C1740 C1741 1.377 . S
C1741 H1725 0.930 . S
C1741 C1740 1.377 . S
C1741 C1742 1.379 . S
C1742 H1726 0.931 . S
C1742 C1736 1.383 . S
C1742 C1741 1.379 . S
H1743 C1737 0.959 . S
H1744 C1737 0.961 . S
H1745 C1737 0.960 . S
H1746 C1738 0.930 . S
H1747 C1739 0.929 . S
H1748 C1756 0.929 . S
H1749 C1758 0.930 . S
H1750 C1760 0.930 . S
H1751 C1763 0.929 . S
H1752 C1766 0.930 . S
H1753 C1768 0.960 . S
H1754 C1768 0.960 . S
H1755 C1768 0.960 . S
C1756 H1748 0.929 . S
C1756 C1757 1.377 . S
C1756 C1758 1.384 . S
C1757 C1756 1.377 . S
C1757 C1763 1.390 . S
C1758 H1749 0.930 . S
C1758 C1756 1.384 . S
C1758 C1759 1.372 . S
C1759 C1758 1.372 . S
C1759 C1760 1.400 . S
C1759 C1764 1.490 . S
C1760 H1750 0.930 . S
C1760 C1759 1.400 . S
C1760 C1763 1.386 . S
H1761 C1777 0.930 . S
H1762 C1778 0.931 . S
C1763 H1751 0.929 . S
C1763 C1757 1.390 . S
C1763 C1760 1.386 . S
C1764 C1759 1.490 . S
C1764 C1766 1.395 . S
C1764 C1767 1.403 . S
H1765 C1771 0.930 . S
C1766 H1752 0.930 . S
C1766 C1764 1.395 . S
C1766 C1769 1.403 . S
C1767 C1764 1.403 . S
C1767 C1768 1.524 . S
C1767 C1771 1.400 . S
C1768 H1753 0.960 . S
C1768 H1754 0.960 . S
C1768 H1755 0.960 . S
C1768 C1767 1.524 . S
C1769 C1766 1.403 . S
C1769 C1770 1.392 . S
C1769 C1773 1.495 . S
C1770 C1769 1.392 . S
C1770 C1771 1.385 . S
C1770 C1772 1.478 . S
C1771 H1765 0.930 . S
C1771 C1767 1.400 . S
C1771 C1770 1.385 . S
C1772 C1770 1.478 . S
C1772 C1774 1.381 . S
C1772 C1778 1.383 . S
C1773 C1769 1.495 . S
C1773 H1779 0.959 . S
C1773 H1780 0.961 . S
C1773 H1781 0.960 . S
C1774 C1772 1.381 . S
C1774 C1775 1.394 . S
C1774 H1782 0.930 . S
C1775 C1774 1.394 . S
C1775 C1776 1.383 . S
C1775 H1783 0.929 . S
C1776 C1775 1.383 . S
C1776 C1777 1.377 . S
C1777 H1761 0.930 . S
C1777 C1776 1.377 . S
C1777 C1778 1.379 . S
C1778 H1762 0.931 . S
C1778 C1772 1.383 . S
C1778 C1777 1.379 . S
H1779 C1773 0.959 . S
H1780 C1773 0.961 . S
H1781 C1773 0.960 . S
H1782 C1774 0.930 . S
H1783 C1775 0.929 . S
H1784 C1792 0.929 . S
H1785 C1794 0.930 . S
H1786 C1796 0.930 . S
H1787 C1799 0.929 . S
H1788 C1802 0.930 . S
H1789 C1804 0.960 . S
H1790 C1804 0.960 . S
H1791 C1804 0.960 . S
C1792 H1784 0.929 . S
C1792 C1793 1.377 . S
C1792 C1794 1.384 . S
C1793 C1792 1.377 . S
C1793 C1799 1.390 . S
C1794 H1785 0.930 . S
C1794 C1792 1.384 . S
C1794 C1795 1.372 . S
C1795 C1794 1.372 . S
C1795 C1796 1.400 . S
C1795 C1800 1.490 . S
C1796 H1786 0.930 . S
C1796 C1795 1.400 . S
C1796 C1799 1.386 . S
H1797 C1813 0.930 . S
H1798 C1814 0.931 . S
C1799 H1787 0.929 . S
C1799 C1793 1.390 . S
C1799 C1796 1.386 . S
C1800 C1795 1.490 . S
C1800 C1802 1.395 . S
C1800 C1803 1.403 . S
H1801 C1807 0.930 . S
C1802 H1788 0.930 . S
C1802 C1800 1.395 . S
C1802 C1805 1.403 . S
C1803 C1800 1.403 . S
C1803 C1804 1.524 . S
C1803 C1807 1.400 . S
C1804 H1789 0.960 . S
C1804 H1790 0.960 . S
C1804 H1791 0.960 . S
C1804 C1803 1.524 . S
C1805 C1802 1.403 . S
C1805 C1806 1.392 . S
C1805 C1809 1.495 . S
C1806 C1805 1.392 . S
C1806 C1807 1.385 . S
C1806 C1808 1.478 . S
C1807 H1801 0.930 . S
C1807 C1803 1.400 . S
C1807 C1806 1.385 . S
C1808 C1806 1.478 . S
C1808 C1810 1.381 . S
C1808 C1814 1.383 . S
C1809 C1805 1.495 . S
C1809 H1815 0.959 . S
C1809 H1816 0.961 . S
C1809 H1817 0.960 . S
C1810 C1808 1.381 . S
C1810 C1811 1.394 . S
C1810 H1818 0.930 . S
C1811 C1810 1.394 . S
C1811 C1812 1.383 . S
C1811 H1819 0.929 . S
C1812 C1811 1.383 . S
C1812 C1813 1.377 . S
C1813 H1797 0.930 . S
C1813 C1812 1.377 . S
C1813 C1814 1.379 . S
C1814 H1798 0.931 . S
C1814 C1808 1.383 . S
C1814 C1813 1.379 . S
H1815 C1809 0.959 . S
H1816 C1809 0.961 . S
H1817 C1809 0.960 . S
H1818 C1810 0.930 . S
H1819 C1811 0.929 . S
H1820 C1828 0.929 . S
H1821 C1830 0.930 . S
H1822 C1832 0.930 . S
H1823 C1835 0.929 . S
H1824 C1838 0.930 . S
H1825 C1840 0.960 . S
H1826 C1840 0.960 . S
H1827 C1840 0.960 . S
C1828 H1820 0.929 . S
C1828 C1829 1.377 . S
C1828 C1830 1.384 . S
C1829 C1828 1.377 . S
C1829 C1835 1.390 . S
C1830 H1821 0.930 . S
C1830 C1828 1.384 . S
C1830 C1831 1.372 . S
C1831 C1830 1.372 . S
C1831 C1832 1.400 . S
C1831 C1836 1.490 . S
C1832 H1822 0.930 . S
C1832 C1831 1.400 . S
C1832 C1835 1.386 . S
H1833 C1849 0.930 . S
H1834 C1850 0.931 . S
C1835 H1823 0.929 . S
C1835 C1829 1.390 . S
C1835 C1832 1.386 . S
C1836 C1831 1.490 . S
C1836 C1838 1.395 . S
C1836 C1839 1.403 . S
H1837 C1843 0.930 . S
C1838 H1824 0.930 . S
C1838 C1836 1.395 . S
C1838 C1841 1.403 . S
C1839 C1836 1.403 . S
C1839 C1840 1.524 . S
C1839 C1843 1.400 . S
C1840 H1825 0.960 . S
C1840 H1826 0.960 . S
C1840 H1827 0.960 . S
C1840 C1839 1.524 . S
C1841 C1838 1.403 . S
C1841 C1842 1.392 . S
C1841 C1845 1.495 . S
C1842 C1841 1.392 . S
C1842 C1843 1.385 . S
C1842 C1844 1.478 . S
C1843 H1837 0.930 . S
C1843 C1839 1.400 . S
C1843 C1842 1.385 . S
C1844 C1842 1.478 . S
C1844 C1846 1.381 . S
C1844 C1850 1.383 . S
C1845 C1841 1.495 . S
C1845 H1851 0.959 . S
C1845 H1852 0.961 . S
C1845 H1853 0.960 . S
C1846 C1844 1.381 . S
C1846 C1847 1.394 . S
C1846 H1854 0.930 . S
C1847 C1846 1.394 . S
C1847 C1848 1.383 . S
C1847 H1855 0.929 . S
C1848 C1847 1.383 . S
C1848 C1849 1.377 . S
C1849 H1833 0.930 . S
C1849 C1848 1.377 . S
C1849 C1850 1.379 . S
C1850 H1834 0.931 . S
C1850 C1844 1.383 . S
C1850 C1849 1.379 . S
H1851 C1845 0.959 . S
H1852 C1845 0.961 . S
H1853 C1845 0.960 . S
H1854 C1846 0.930 . S
H1855 C1847 0.929 . S
H1856 C1864 0.929 . S
H1857 C1866 0.930 . S
H1858 C1868 0.930 . S
H1859 C1871 0.929 . S
H1860 C1874 0.930 . S
H1861 C1876 0.960 . S
H1862 C1876 0.960 . S
H1863 C1876 0.960 . S
C1864 H1856 0.929 . S
C1864 C1865 1.377 . S
C1864 C1866 1.384 . S
C1865 C1864 1.377 . S
C1865 C1871 1.390 . S
C1866 H1857 0.930 . S
C1866 C1864 1.384 . S
C1866 C1867 1.372 . S
C1867 C1866 1.372 . S
C1867 C1868 1.400 . S
C1867 C1872 1.490 . S
C1868 H1858 0.930 . S
C1868 C1867 1.400 . S
C1868 C1871 1.386 . S
H1869 C1885 0.930 . S
H1870 C1886 0.931 . S
C1871 H1859 0.929 . S
C1871 C1865 1.390 . S
C1871 C1868 1.386 . S
C1872 C1867 1.490 . S
C1872 C1874 1.395 . S
C1872 C1875 1.403 . S
H1873 C1879 0.930 . S
C1874 H1860 0.930 . S
C1874 C1872 1.395 . S
C1874 C1877 1.403 . S
C1875 C1872 1.403 . S
C1875 C1876 1.524 . S
C1875 C1879 1.400 . S
C1876 H1861 0.960 . S
C1876 H1862 0.960 . S
C1876 H1863 0.960 . S
C1876 C1875 1.524 . S
C1877 C1874 1.403 . S
C1877 C1878 1.392 . S
C1877 C1881 1.495 . S
C1878 C1877 1.392 . S
C1878 C1879 1.385 . S
C1878 C1880 1.478 . S
C1879 H1873 0.930 . S
C1879 C1875 1.400 . S
C1879 C1878 1.385 . S
C1880 C1878 1.478 . S
C1880 C1882 1.381 . S
C1880 C1886 1.383 . S
C1881 C1877 1.495 . S
C1881 H1887 0.959 . S
C1881 H1888 0.961 . S
C1881 H1889 0.960 . S
C1882 C1880 1.381 . S
C1882 C1883 1.394 . S
C1882 H1890 0.930 . S
C1883 C1882 1.394 . S
C1883 C1884 1.383 . S
C1883 H1891 0.929 . S
C1884 C1883 1.383 . S
C1884 C1885 1.377 . S
C1885 H1869 0.930 . S
C1885 C1884 1.377 . S
C1885 C1886 1.379 . S
C1886 H1870 0.931 . S
C1886 C1880 1.383 . S
C1886 C1885 1.379 . S
H1887 C1881 0.959 . S
H1888 C1881 0.961 . S
H1889 C1881 0.960 . S
H1890 C1882 0.930 . S
H1891 C1883 0.929 . S
H1892 C1900 0.929 . S
H1893 C1902 0.930 . S
H1894 C1904 0.930 . S
H1895 C1907 0.929 . S
H1896 C1910 0.930 . S
H1897 C1912 0.960 . S
H1898 C1912 0.960 . S
H1899 C1912 0.960 . S
C1900 H1892 0.929 . S
C1900 C1901 1.377 . S
C1900 C1902 1.384 . S
C1901 C1900 1.377 . S
C1901 C1907 1.390 . S
C1902 H1893 0.930 . S
C1902 C1900 1.384 . S
C1902 C1903 1.372 . S
C1903 C1902 1.372 . S
C1903 C1904 1.400 . S
C1903 C1908 1.490 . S
C1904 H1894 0.930 . S
C1904 C1903 1.400 . S
C1904 C1907 1.386 . S
H1905 C1921 0.930 . S
H1906 C1922 0.931 . S
C1907 H1895 0.929 . S
C1907 C1901 1.390 . S
C1907 C1904 1.386 . S
C1908 C1903 1.490 . S
C1908 C1910 1.395 . S
C1908 C1911 1.403 . S
H1909 C1915 0.930 . S
C1910 H1896 0.930 . S
C1910 C1908 1.395 . S
C1910 C1913 1.403 . S
C1911 C1908 1.403 . S
C1911 C1912 1.524 . S
C1911 C1915 1.400 . S
C1912 H1897 0.960 . S
C1912 H1898 0.960 . S
C1912 H1899 0.960 . S
C1912 C1911 1.524 . S
C1913 C1910 1.403 . S
C1913 C1914 1.392 . S
C1913 C1917 1.495 . S
C1914 C1913 1.392 . S
C1914 C1915 1.385 . S
C1914 C1916 1.478 . S
C1915 H1909 0.930 . S
C1915 C1911 1.400 . S
C1915 C1914 1.385 . S
C1916 C1914 1.478 . S
C1916 C1918 1.381 . S
C1916 C1922 1.383 . S
C1917 C1913 1.495 . S
C1917 H1923 0.959 . S
C1917 H1924 0.961 . S
C1917 H1925 0.960 . S
C1918 C1916 1.381 . S
C1918 C1919 1.394 . S
C1918 H1926 0.930 . S
C1919 C1918 1.394 . S
C1919 C1920 1.383 . S
C1919 H1927 0.929 . S
C1920 C1919 1.383 . S
C1920 C1921 1.377 . S
C1921 H1905 0.930 . S
C1921 C1920 1.377 . S
C1921 C1922 1.379 . S
C1922 H1906 0.931 . S
C1922 C1916 1.383 . S
C1922 C1921 1.379 . S
H1923 C1917 0.959 . S
H1924 C1917 0.961 . S
H1925 C1917 0.960 . S
H1926 C1918 0.930 . S
H1927 C1919 0.929 . S
H1928 C1936 0.929 . S
H1929 C1938 0.930 . S
H1930 C1940 0.930 . S
H1931 C1943 0.929 . S
H1932 C1946 0.930 . S
H1933 C1948 0.960 . S
H1934 C1948 0.960 . S
H1935 C1948 0.960 . S
C1936 H1928 0.929 . S
C1936 C1937 1.377 . S
C1936 C1938 1.384 . S
C1937 C1936 1.377 . S
C1937 C1943 1.390 . S
C1938 H1929 0.930 . S
C1938 C1936 1.384 . S
C1938 C1939 1.372 . S
C1939 C1938 1.372 . S
C1939 C1940 1.400 . S
C1939 C1944 1.490 . S
C1940 H1930 0.930 . S
C1940 C1939 1.400 . S
C1940 C1943 1.386 . S
H1941 C1957 0.930 . S
H1942 C1958 0.931 . S
C1943 H1931 0.929 . S
C1943 C1937 1.390 . S
C1943 C1940 1.386 . S
C1944 C1939 1.490 . S
C1944 C1946 1.395 . S
C1944 C1947 1.403 . S
H1945 C1951 0.930 . S
C1946 H1932 0.930 . S
C1946 C1944 1.395 . S
C1946 C1949 1.403 . S
C1947 C1944 1.403 . S
C1947 C1948 1.524 . S
C1947 C1951 1.400 . S
C1948 H1933 0.960 . S
C1948 H1934 0.960 . S
C1948 H1935 0.960 . S
C1948 C1947 1.524 . S
C1949 C1946 1.403 . S
C1949 C1950 1.392 . S
C1949 C1953 1.495 . S
C1950 C1949 1.392 . S
C1950 C1951 1.385 . S
C1950 C1952 1.478 . S
C1951 H1945 0.930 . S
C1951 C1947 1.400 . S
C1951 C1950 1.385 . S
C1952 C1950 1.478 . S
C1952 C1954 1.381 . S
C1952 C1958 1.383 . S
C1953 C1949 1.495 . S
C1953 H1959 0.959 . S
C1953 H1960 0.961 . S
C1953 H1961 0.960 . S
C1954 C1952 1.381 . S
C1954 C1955 1.394 . S
C1954 H1962 0.930 . S
C1955 C1954 1.394 . S
C1955 C1956 1.383 . S
C1955 H1963 0.929 . S
C1956 C1955 1.383 . S
C1956 C1957 1.377 . S
C1957 H1941 0.930 . S
C1957 C1956 1.377 . S
C1957 C1958 1.379 . S
C1958 H1942 0.931 . S
C1958 C1952 1.383 . S
C1958 C1957 1.379 . S
H1959 C1953 0.959 . S
H1960 C1953 0.961 . S
H1961 C1953 0.960 . S
H1962 C1954 0.930 . S
H1963 C1955 0.929 . S
H1964 C1972 0.929 . S
H1965 C1974 0.930 . S
H1966 C1976 0.930 . S
H1967 C1979 0.929 . S
H1968 C1982 0.930 . S
H1969 C1984 0.960 . S
H1970 C1984 0.960 . S
H1971 C1984 0.960 . S
C1972 H1964 0.929 . S
C1972 C1973 1.377 . S
C1972 C1974 1.384 . S
C1973 C1972 1.377 . S
C1973 C1979 1.390 . S
C1974 H1965 0.930 . S
C1974 C1972 1.384 . S
C1974 C1975 1.372 . S
C1975 C1974 1.372 . S
C1975 C1976 1.400 . S
C1975 C1980 1.490 . S
C1976 H1966 0.930 . S
C1976 C1975 1.400 . S
C1976 C1979 1.386 . S
H1977 C1993 0.930 . S
H1978 C1994 0.931 . S
C1979 H1967 0.929 . S
C1979 C1973 1.390 . S
C1979 C1976 1.386 . S
C1980 C1975 1.490 . S
C1980 C1982 1.395 . S
C1980 C1983 1.403 . S
H1981 C1987 0.930 . S
C1982 H1968 0.930 . S
C1982 C1980 1.395 . S
C1982 C1985 1.403 . S
C1983 C1980 1.403 . S
C1983 C1984 1.524 . S
C1983 C1987 1.400 . S
C1984 H1969 0.960 . S
C1984 H1970 0.960 . S
C1984 H1971 0.960 . S
C1984 C1983 1.524 . S
C1985 C1982 1.403 . S
C1985 C1986 1.392 . S
C1985 C1989 1.495 . S
C1986 C1985 1.392 . S
C1986 C1987 1.385 . S
C1986 C1988 1.478 . S
C1987 H1981 0.930 . S
C1987 C1983 1.400 . S
C1987 C1986 1.385 . S
C1988 C1986 1.478 . S
C1988 C1990 1.381 . S
C1988 C1994 1.383 . S
C1989 C1985 1.495 . S
C1989 H1995 0.959 . S
C1989 H1996 0.961 . S
C1989 H1997 0.960 . S
C1990 C1988 1.381 . S
C1990 C1991 1.394 . S
C1990 H1998 0.930 . S
C1991 C1990 1.394 . S
C1991 C1992 1.383 . S
C1991 H1999 0.929 . S
C1992 C1991 1.383 . S
C1992 C1993 1.377 . S
C1993 H1977 0.930 . S
C1993 C1992 1.377 . S
C1993 C1994 1.379 . S
C1994 H1978 0.931 . S
C1994 C1988 1.383 . S
C1994 C1993 1.379 . S
H1995 C1989 0.959 . S
H1996 C1989 0.961 . S
H1997 C1989 0.960 . S
H1998 C1990 0.930 . S
H1999 C1991 0.929 . S
C857 C29 1.755 . S
C876 C135 1.764 . S
C893 C188 1.758 . S
C912 C82 1.740 . S
C929 C241 1.761 . S
C948 C347 1.748 . S
C965 C400 1.755 . S
C984 C294 1.747 . S
C1001 C453 1.754 . S
C1020 C559 1.747 . S
C1037 C612 1.756 . S
C1056 C506 1.765 . S
C1073 C665 1.756 . S
C1092 C771 1.764 . S
C1109 C824 1.754 . S
C1128 C718 1.759 . S
C1145 C250 1.909 . S
C1164 C38 1.903 . S
C1181 C91 1.912 . S
C1200 C303 1.895 . S
C1217 C144 1.909 . S
C1236 C356 1.909 . S
C1253 C409 1.914 . S
C1272 C197 1.904 . S
C1289 C462 1.902 . S
C1308 C674 1.887 . S
C1325 C515 1.904 . S
C1344 C727 1.894 . S
C1361 C568 1.902 . S
C1380 C780 1.892 . S
C1397 C621 1.907 . S
C1416 C833 1.914 . S
C1433 C569 1.868 . S
C1452 C39 1.872 . S
C1469 C622 1.873 . S
C1488 C92 1.850 . S
C1505 C145 1.865 . S
C1524 C463 1.881 . S
C1541 C198 1.867 . S
C1560 C516 1.857 . S
C1577 C251 1.869 . S
C1596 C781 1.854 . S
C1613 C304 1.864 . S
C1632 C834 1.869 . S
C1649 C357 1.864 . S
C1668 C675 1.878 . S
C1685 C728 1.870 . S
C1704 C410 1.858 . S
C1721 C22 1.660 . S
C1740 C817 1.649 . S
C1757 C658 1.661 . S
C1776 C75 1.662 . S
C1793 C128 1.659 . S
C1812 C711 1.649 . S
C1829 C764 1.659 . S
C1848 C181 1.660 . S
C1865 C499 1.660 . S
C1884 C234 1.648 . S
C1901 C287 1.659 . S
C1920 C552 1.660 . S
C1937 C605 1.659 . S
C1956 C340 1.663 . S
C1973 C446 1.662 . S
C1992 C393 1.648 . S
