# Generated by pormake.
# Topology wmi, (6)-cn, num edge types: 1
# Building blocks:
#     Node 0, Type 0, BuildingBlock: MIDCAF_clean_sbu_0, # of connection points: 6
#     Node 1, Type 0, BuildingBlock: MIDCAF_clean_sbu_0, # of connection points: 6
#     Node 2, Type 0, BuildingBlock: MIDCAF_clean_sbu_0, # of connection points: 6
#     Node 3, Type 0, BuildingBlock: MIDCAF_clean_sbu_0, # of connection points: 6
#     Node 4, Type 0, BuildingBlock: MIDCAF_clean_sbu_0, # of connection points: 6
#     Node 5, Type 0, BuildingBlock: MIDCAF_clean_sbu_0, # of connection points: 6
#     Node 6, Type 0, BuildingBlock: MIDCAF_clean_sbu_0, # of connection points: 6
#     Node 7, Type 0, BuildingBlock: MIDCAF_clean_sbu_0, # of connection points: 6
#     Node 8, Type 0, BuildingBlock: MIDCAF_clean_sbu_0, # of connection points: 6
#     Node 9, Type 0, BuildingBlock: MIDCAF_clean_sbu_0, # of connection points: 6
#     Node 10, Type 0, BuildingBlock: MIDCAF_clean_sbu_0, # of connection points: 6
#     Node 11, Type 0, BuildingBlock: MIDCAF_clean_sbu_0, # of connection points: 6
#     Node 12, Type 0, BuildingBlock: MIDCAF_clean_sbu_0, # of connection points: 6
#     Node 13, Type 0, BuildingBlock: MIDCAF_clean_sbu_0, # of connection points: 6
#     Node 14, Type 0, BuildingBlock: MIDCAF_clean_sbu_0, # of connection points: 6
#     Node 15, Type 0, BuildingBlock: MIDCAF_clean_sbu_0, # of connection points: 6
#     Node 16, Type 0, BuildingBlock: MIDCAF_clean_sbu_0, # of connection points: 6
#     Node 17, Type 0, BuildingBlock: MIDCAF_clean_sbu_0, # of connection points: 6
#     Edge 18, Type (0, 0), BuildingBlock: ZUJKAS_clean_linker_0, # of connection points: 2
#     Edge 19, Type (0, 0), BuildingBlock: ZUJKAS_clean_linker_0, # of connection points: 2
#     Edge 20, Type (0, 0), BuildingBlock: ZUJKAS_clean_linker_0, # of connection points: 2
#     Edge 21, Type (0, 0), BuildingBlock: ZUJKAS_clean_linker_0, # of connection points: 2
#     Edge 22, Type (0, 0), BuildingBlock: ZUJKAS_clean_linker_0, # of connection points: 2
#     Edge 23, Type (0, 0), BuildingBlock: ZUJKAS_clean_linker_0, # of connection points: 2
#     Edge 24, Type (0, 0), BuildingBlock: ZUJKAS_clean_linker_0, # of connection points: 2
#     Edge 25, Type (0, 0), BuildingBlock: ZUJKAS_clean_linker_0, # of connection points: 2
#     Edge 26, Type (0, 0), BuildingBlock: ZUJKAS_clean_linker_0, # of connection points: 2
#     Edge 27, Type (0, 0), BuildingBlock: ZUJKAS_clean_linker_0, # of connection points: 2
#     Edge 28, Type (0, 0), BuildingBlock: ZUJKAS_clean_linker_0, # of connection points: 2
#     Edge 29, Type (0, 0), BuildingBlock: ZUJKAS_clean_linker_0, # of connection points: 2
#     Edge 30, Type (0, 0), BuildingBlock: ZUJKAS_clean_linker_0, # of connection points: 2
#     Edge 31, Type (0, 0), BuildingBlock: ZUJKAS_clean_linker_0, # of connection points: 2
#     Edge 32, Type (0, 0), BuildingBlock: ZUJKAS_clean_linker_0, # of connection points: 2
#     Edge 33, Type (0, 0), BuildingBlock: ZUJKAS_clean_linker_0, # of connection points: 2
#     Edge 34, Type (0, 0), BuildingBlock: ZUJKAS_clean_linker_0, # of connection points: 2
#     Edge 35, Type (0, 0), BuildingBlock: ZUJKAS_clean_linker_0, # of connection points: 2
#     Edge 36, Type (0, 0), BuildingBlock: ZUJKAS_clean_linker_0, # of connection points: 2
#     Edge 37, Type (0, 0), BuildingBlock: ZUJKAS_clean_linker_0, # of connection points: 2
#     Edge 38, Type (0, 0), BuildingBlock: ZUJKAS_clean_linker_0, # of connection points: 2
#     Edge 39, Type (0, 0), BuildingBlock: ZUJKAS_clean_linker_0, # of connection points: 2
#     Edge 40, Type (0, 0), BuildingBlock: ZUJKAS_clean_linker_0, # of connection points: 2
#     Edge 41, Type (0, 0), BuildingBlock: ZUJKAS_clean_linker_0, # of connection points: 2
#     Edge 42, Type (0, 0), BuildingBlock: ZUJKAS_clean_linker_0, # of connection points: 2
#     Edge 43, Type (0, 0), BuildingBlock: ZUJKAS_clean_linker_0, # of connection points: 2
#     Edge 44, Type (0, 0), BuildingBlock: ZUJKAS_clean_linker_0, # of connection points: 2
#     Edge 45, Type (0, 0), BuildingBlock: ZUJKAS_clean_linker_0, # of connection points: 2
#     Edge 46, Type (0, 0), BuildingBlock: ZUJKAS_clean_linker_0, # of connection points: 2
#     Edge 47, Type (0, 0), BuildingBlock: ZUJKAS_clean_linker_0, # of connection points: 2
#     Edge 48, Type (0, 0), BuildingBlock: ZUJKAS_clean_linker_0, # of connection points: 2
#     Edge 49, Type (0, 0), BuildingBlock: ZUJKAS_clean_linker_0, # of connection points: 2
#     Edge 50, Type (0, 0), BuildingBlock: ZUJKAS_clean_linker_0, # of connection points: 2
#     Edge 51, Type (0, 0), BuildingBlock: ZUJKAS_clean_linker_0, # of connection points: 2
#     Edge 52, Type (0, 0), BuildingBlock: ZUJKAS_clean_linker_0, # of connection points: 2
#     Edge 53, Type (0, 0), BuildingBlock: ZUJKAS_clean_linker_0, # of connection points: 2
#     Edge 54, Type (0, 0), BuildingBlock: ZUJKAS_clean_linker_0, # of connection points: 2
#     Edge 55, Type (0, 0), BuildingBlock: ZUJKAS_clean_linker_0, # of connection points: 2
#     Edge 56, Type (0, 0), BuildingBlock: ZUJKAS_clean_linker_0, # of connection points: 2
#     Edge 57, Type (0, 0), BuildingBlock: ZUJKAS_clean_linker_0, # of connection points: 2
#     Edge 58, Type (0, 0), BuildingBlock: ZUJKAS_clean_linker_0, # of connection points: 2
#     Edge 59, Type (0, 0), BuildingBlock: ZUJKAS_clean_linker_0, # of connection points: 2
#     Edge 60, Type (0, 0), BuildingBlock: ZUJKAS_clean_linker_0, # of connection points: 2
#     Edge 61, Type (0, 0), BuildingBlock: ZUJKAS_clean_linker_0, # of connection points: 2
#     Edge 62, Type (0, 0), BuildingBlock: ZUJKAS_clean_linker_0, # of connection points: 2
#     Edge 63, Type (0, 0), BuildingBlock: ZUJKAS_clean_linker_0, # of connection points: 2
#     Edge 64, Type (0, 0), BuildingBlock: ZUJKAS_clean_linker_0, # of connection points: 2
#     Edge 65, Type (0, 0), BuildingBlock: ZUJKAS_clean_linker_0, # of connection points: 2
#     Edge 66, Type (0, 0), BuildingBlock: ZUJKAS_clean_linker_0, # of connection points: 2
#     Edge 67, Type (0, 0), BuildingBlock: ZUJKAS_clean_linker_0, # of connection points: 2
#     Edge 68, Type (0, 0), BuildingBlock: ZUJKAS_clean_linker_0, # of connection points: 2
#     Edge 69, Type (0, 0), BuildingBlock: ZUJKAS_clean_linker_0, # of connection points: 2
#     Edge 70, Type (0, 0), BuildingBlock: ZUJKAS_clean_linker_0, # of connection points: 2
#     Edge 71, Type (0, 0), BuildingBlock: ZUJKAS_clean_linker_0, # of connection points: 2
# Relax obj value: 0.342
# Max RMSD: 0.250
# Mean RMSD: 0.250
data_MOF--net-wmi--node1-MIDCAF_clean_sbu_0--edge1-ZUJKAS_clean_linker_0
_symmetry_space_group_name_H-M    P1
_symmetry_Int_Tables_number       1
_symmetry_cell_setting            triclinic
loop_
_symmetry_equiv_pos_as_xyz
'x, y, z'
_cell_length_a     35.939934
_cell_length_b     35.943915
_cell_length_c     116.30675
_cell_angle_alpha  90.090682
_cell_angle_beta   90.005094
_cell_angle_gamma 120.10966
loop_
_atom_site_label
_atom_site_type_symbol
_atom_site_fract_x
_atom_site_fract_y
_atom_site_fract_z
_atom_type_partial_charge
Zn0 Zn 0.46586 0.06291 0.09871 0.0
Zn1 Zn 0.39959 0.95324 0.07055 0.0
Zn2 Zn 0.43364 0.0056 0.08512 0.0
C3 C 0.45011 0.024 0.05913 0.0
C4 C 0.4523 0.93463 0.08452 0.0
O5 O 0.4378 0.97569 0.10143 0.0
O6 O 0.44195 0.02743 0.11257 0.0
C7 C 0.40337 0.0716 0.08679 0.0
O8 O 0.46974 0.02842 0.06874 0.0
O9 O 0.41065 0.99648 0.05839 0.0
O10 O 0.44321 0.93483 0.07401 0.0
O11 O 0.44097 0.95383 0.09186 0.0
O12 O 0.43878 0.09431 0.09188 0.0
O13 O 0.38969 0.03149 0.08491 0.0
O14 O 0.49762 0.05051 0.07777 0.0
O15 O 0.5257 0.07879 0.09459 0.0
C16 C 0.53083 0.07228 0.0842 0.0
O17 O 0.36446 0.98674 0.0854 0.0
O18 O 0.34272 0.92283 0.07784 0.0
C19 C 0.43661 0.99009 0.1115 0.0
C20 C 0.33437 0.94769 0.0835 0.0
Zn21 Zn 0.95494 0.40869 0.09929 0.0
Zn22 Zn 0.08049 0.48139 0.07563 0.0
Zn23 Zn 0.01386 0.44035 0.08697 0.0
C24 C 0.01343 0.4636 0.06073 0.0
C25 C 0.08858 0.5348 0.09368 0.0
O26 O 0.03621 0.46541 0.10467 0.0
O27 O 0.98728 0.4054 0.11271 0.0
C28 C 0.94783 0.34399 0.08594 0.0
O29 O 0.99268 0.45417 0.07032 0.0
O30 O 0.05276 0.47477 0.06061 0.0
O31 O 0.10444 0.53698 0.08386 0.0
O32 O 0.05679 0.49888 0.09725 0.0
O33 O 0.92321 0.35653 0.08985 0.0
O34 O 0.9888 0.36996 0.0859 0.0
O35 O 0.96905 0.45844 0.07954 0.0
O36 O 0.94591 0.45866 0.09701 0.0
C37 C 0.95013 0.47094 0.08667 0.0
O38 O 0.03464 0.39271 0.08526 0.0
O39 O 0.1003 0.4408 0.07969 0.0
C40 C 0.02298 0.43978 0.11337 0.0
C41 C 0.07391 0.40334 0.08316 0.0
Zn42 Zn 0.60192 0.5425 0.09921 0.0
Zn43 Zn 0.54791 0.61296 0.07745 0.0
Zn44 Zn 0.57751 0.5816 0.08793 0.0
C45 C 0.5744 0.57973 0.06166 0.0
C46 C 0.48371 0.54999 0.0902 0.0
O47 O 0.5476 0.57594 0.10509 0.0
O48 O 0.59741 0.56822 0.11396 0.0
C49 C 0.67289 0.61051 0.08846 0.0
O50 O 0.56306 0.55401 0.07032 0.0
O51 O 0.58053 0.61715 0.06318 0.0
O52 O 0.48921 0.56197 0.07983 0.0
O53 O 0.51678 0.56406 0.09684 0.0
O54 O 0.65888 0.57205 0.09154 0.0
O55 O 0.64743 0.62593 0.08818 0.0
O56 O 0.55815 0.5227 0.07804 0.0
O57 O 0.55601 0.48519 0.09329 0.0
C58 C 0.54639 0.48635 0.0829 0.0
O59 O 0.6261 0.65069 0.08783 0.0
O60 O 0.57154 0.6623 0.08814 0.0
C61 C 0.5684 0.57819 0.11435 0.0
C62 C 0.61096 0.67578 0.08985 0.0
Zn63 Zn 0.07069 0.48157 0.90504 0.0
Zn64 Zn 0.96539 0.4524 0.93052 0.0
Zn65 Zn 0.01372 0.45276 0.91776 0.0
C66 C 0.01745 0.43816 0.94369 0.0
C67 C 0.95556 0.48632 0.91125 0.0
O68 O 0.98062 0.43341 0.90083 0.0
O69 O 0.03921 0.44892 0.89112 0.0
C70 C 0.07849 0.42308 0.92028 0.0
O71 O 0.01597 0.41974 0.93405 0.0
O72 O 0.00475 0.46515 0.94402 0.0
O73 O 0.96219 0.49763 0.92169 0.0
O74 O 0.96367 0.45717 0.90769 0.0
O75 O 0.09957 0.45509 0.91374 0.0
O76 O 0.03946 0.41159 0.92303 0.0
O77 O 0.04553 0.51616 0.92444 0.0
O78 O 0.08064 0.54139 0.90829 0.0
C79 C 0.06845 0.54784 0.91792 0.0
O80 O 0.98737 0.38787 0.9242 0.0
O81 O 0.92697 0.38916 0.92549 0.0
C82 C 0.99877 0.43132 0.89151 0.0
C83 C 0.94593 0.3678 0.92404 0.0
Zn84 Zn 0.61618 0.55835 0.93066 0.0
Zn85 Zn 0.55525 0.61023 0.90378 0.0
Zn86 Zn 0.58663 0.58396 0.91713 0.0
C87 C 0.49035 0.55176 0.91802 0.0
C88 C 0.61575 0.67937 0.91669 0.0
O89 O 0.65554 0.63342 0.91774 0.0
O90 O 0.6723 0.58471 0.92296 0.0
C91 C 0.56105 0.49239 0.91584 0.0
O92 O 0.52352 0.56502 0.92456 0.0
O93 O 0.49571 0.56197 0.9075 0.0
O94 O 0.5794 0.66604 0.91207 0.0
O95 O 0.63083 0.65378 0.91779 0.0
O96 O 0.56885 0.49846 0.9265 0.0
O97 O 0.576 0.525 0.90908 0.0
O98 O 0.55043 0.56839 0.93365 0.0
O99 O 0.609 0.5891 0.94389 0.0
C100 C 0.57038 0.58019 0.94335 0.0
O101 O 0.58551 0.55348 0.90034 0.0
O102 O 0.58823 0.60695 0.89045 0.0
C103 C 0.68352 0.62122 0.91878 0.0
C104 C 0.59354 0.57487 0.8909 0.0
Zn105 Zn 0.41455 0.95713 0.90555 0.0
Zn106 Zn 0.47455 0.0766 0.92945 0.0
Zn107 Zn 0.44476 0.01865 0.91709 0.0
C108 C 0.45015 0.00969 0.94306 0.0
C109 C 0.5362 0.08092 0.91419 0.0
O110 O 0.47105 0.04256 0.89985 0.0
O111 O 0.41138 0.99071 0.89228 0.0
C112 C 0.35177 0.95505 0.91965 0.0
O113 O 0.46075 0.99904 0.93356 0.0
O114 O 0.44388 0.04118 0.94313 0.0
O115 O 0.53238 0.08492 0.92485 0.0
O116 O 0.50238 0.06332 0.90784 0.0
O117 O 0.36474 0.92984 0.91648 0.0
O118 O 0.37611 0.99574 0.91825 0.0
O119 O 0.46488 0.97571 0.92481 0.0
O120 O 0.46618 0.95009 0.90774 0.0
C121 C 0.47832 0.95641 0.91811 0.0
O122 O 0.39704 0.04008 0.91822 0.0
O123 O 0.44896 0.10661 0.92139 0.0
C124 C 0.44461 0.02735 0.89136 0.0
C125 C 0.4107 0.08073 0.91839 0.0
Zn126 Zn 0.13653 0.39438 0.43154 0.0
Zn127 Zn 0.06381 0.27841 0.40526 0.0
Zn128 Zn 0.09946 0.33397 0.41871 0.0
C129 C 0.11106 0.34752 0.39217 0.0
C130 C 0.11518 0.25923 0.41911 0.0
O131 O 0.10574 0.30655 0.43521 0.0
O132 O 0.11506 0.36147 0.44586 0.0
C133 C 0.06871 0.39876 0.42143 0.0
O134 O 0.1321 0.35767 0.40173 0.0
O135 O 0.074 0.31489 0.3917 0.0
O136 O 0.1029 0.25565 0.40878 0.0
O137 O 0.10921 0.28385 0.42596 0.0
O138 O 0.10646 0.42343 0.42506 0.0
O139 O 0.05512 0.35855 0.41996 0.0
O140 O 0.1622 0.37777 0.41023 0.0
O141 O 0.19487 0.40871 0.42645 0.0
C142 C 0.1971 0.40026 0.41604 0.0
O143 O 0.02992 0.31448 0.41927 0.0
O144 O 0.00623 0.24987 0.41191 0.0
C145 C 0.10671 0.323 0.44515 0.0
C146 C 0.99885 0.27597 0.41728 0.0
Zn147 Zn 0.74427 0.81052 0.41377 0.0
Zn148 Zn 0.61401 0.75421 0.43403 0.0
Zn149 Zn 0.67872 0.77672 0.42215 0.0
C150 C 0.61107 0.80188 0.41504 0.0
C151 C 0.61216 0.68011 0.42467 0.0
O152 O 0.69971 0.72892 0.42217 0.0
O153 O 0.76398 0.78434 0.42554 0.0
C154 C 0.74057 0.8721 0.42562 0.0
O155 O 0.64068 0.79491 0.41129 0.0
O156 O 0.59703 0.79136 0.4252 0.0
O157 O 0.58875 0.69347 0.42899 0.0
O158 O 0.65196 0.70671 0.42248 0.0
O159 O 0.75181 0.86917 0.41555 0.0
O160 O 0.71925 0.83754 0.43156 0.0
O161 O 0.67135 0.79253 0.40421 0.0
O162 O 0.72309 0.78081 0.39886 0.0
C163 C 0.69098 0.78438 0.3962 0.0
O164 O 0.7012 0.80575 0.43961 0.0
O165 O 0.6414 0.76901 0.44959 0.0
C166 C 0.73853 0.7442 0.42577 0.0
C167 C 0.68175 0.79322 0.44939 0.0
Zn168 Zn 0.19677 0.89142 0.40806 0.0
Zn169 Zn 0.2863 0.8932 0.43584 0.0
Zn170 Zn 0.24799 0.90767 0.42142 0.0
C171 C 0.22651 0.81533 0.42455 0.0
C172 C 0.34497 0.95035 0.41812 0.0
O173 O 0.27928 0.96677 0.41188 0.0
O174 O 0.21388 0.95556 0.4094 0.0
C175 C 0.15477 0.87312 0.42723 0.0
O176 O 0.22334 0.84204 0.41809 0.0
O177 O 0.25065 0.82867 0.43332 0.0
O178 O 0.3418 0.92887 0.42707 0.0
O179 O 0.31141 0.94986 0.41401 0.0
O180 O 0.15072 0.85038 0.41851 0.0
O181 O 0.19159 0.9065 0.42937 0.0
O182 O 0.27846 0.93064 0.40365 0.0
O183 O 0.2236 0.87479 0.39551 0.0
C184 C 0.26166 0.90605 0.39477 0.0
O185 O 0.23231 0.9319 0.43726 0.0
O186 O 0.27208 0.91889 0.44921 0.0
C187 C 0.25377 0.9819 0.41055 0.0
C188 C 0.24718 0.9336 0.44744 0.0
Zn189 Zn 0.57587 0.70178 0.26656 0.0
Zn190 Zn 0.72862 0.80527 0.23603 0.0
Zn191 Zn 0.66997 0.76181 0.24949 0.0
C192 C 0.72784 0.85983 0.25335 0.0
C193 C 0.7458 0.74405 0.2453 0.0
O194 O 0.66292 0.69873 0.2507 0.0
O195 O 0.62867 0.69699 0.26575 0.0
C196 C 0.58294 0.76076 0.2465 0.0
O197 O 0.70638 0.82382 0.25868 0.0
O198 O 0.73745 0.85998 0.24289 0.0
O199 O 0.76535 0.78085 0.24073 0.0
O200 O 0.70618 0.72749 0.2482 0.0
O201 O 0.56683 0.74074 0.25581 0.0
O202 O 0.61464 0.76006 0.24154 0.0
O203 O 0.6753 0.79043 0.26671 0.0
O204 O 0.61757 0.74658 0.27753 0.0
C205 C 0.65429 0.78019 0.2763 0.0
O206 O 0.63953 0.76021 0.23262 0.0
O207 O 0.69648 0.78443 0.22141 0.0
C208 C 0.63079 0.67683 0.2572 0.0
C209 C 0.65618 0.76653 0.22247 0.0
Zn210 Zn 0.28318 0.86087 0.25276 0.0
Zn211 Zn 0.24494 0.95254 0.23615 0.0
Zn212 Zn 0.26141 0.90785 0.24867 0.0
C213 C 0.16653 0.88417 0.24523 0.0
C214 C 0.28752 0.9996 0.25676 0.0
O215 O 0.32561 0.94885 0.25644 0.0
O216 O 0.34193 0.90522 0.24731 0.0
C217 C 0.20438 0.81037 0.24697 0.0
O218 O 0.19326 0.87757 0.25086 0.0
O219 O 0.18013 0.91302 0.23754 0.0
O220 O 0.2721 0.00195 0.24719 0.0
O221 O 0.28859 0.96548 0.25947 0.0
O222 O 0.23848 0.81385 0.24283 0.0
O223 O 0.20642 0.84295 0.25215 0.0
O224 O 0.2903 0.9302 0.26593 0.0
O225 O 0.2708 0.86335 0.27012 0.0
C226 C 0.28151 0.90093 0.27359 0.0
O227 O 0.28728 0.90482 0.23213 0.0
O228 O 0.27764 0.95146 0.22227 0.0
C229 C 0.35396 0.94166 0.25179 0.0
C230 C 0.29184 0.92572 0.22289 0.0
Zn231 Zn 0.07278 0.27928 0.23438 0.0
Zn232 Zn 0.1571 0.37405 0.26113 0.0
Zn233 Zn 0.1064 0.33528 0.24828 0.0
C234 C 0.09341 0.31979 0.2743 0.0
C235 C 0.19804 0.40142 0.24204 0.0
O236 O 0.11889 0.37194 0.2322 0.0
O237 O 0.08858 0.3166 0.22036 0.0
C238 C 0.00934 0.27634 0.25074 0.0
O239 O 0.07518 0.3264 0.26559 0.0
O240 O 0.13209 0.32869 0.27336 0.0
O241 O 0.20513 0.38436 0.25063 0.0
O242 O 0.15948 0.39358 0.24014 0.0
O243 O 0.0152 0.25922 0.24191 0.0
O244 O 0.04135 0.31006 0.25524 0.0
O245 O 0.13495 0.2976 0.25231 0.0
O246 O 0.1058 0.24921 0.23868 0.0
C247 C 0.13058 0.26418 0.24729 0.0
O248 O 0.07216 0.36114 0.25781 0.0
O249 O 0.13578 0.41808 0.26069 0.0
C250 C 0.10814 0.35684 0.22195 0.0
C251 C 0.09544 0.40193 0.25969 0.0
Zn252 Zn 0.67736 0.5817 0.72677 0.0
Zn253 Zn 0.77771 0.72603 0.76854 0.0
Zn254 Zn 0.74417 0.66553 0.75441 0.0
C255 C 0.84219 0.73491 0.75318 0.0
C256 C 0.72098 0.74042 0.75576 0.0
O257 O 0.67808 0.65332 0.75344 0.0
O258 O 0.67499 0.62917 0.73637 0.0
C259 C 0.72971 0.57299 0.74334 0.0
O260 O 0.80942 0.70621 0.74761 0.0
O261 O 0.83712 0.74671 0.76302 0.0
O262 O 0.74986 0.75854 0.7633 0.0
O263 O 0.7111 0.70302 0.75199 0.0
O264 O 0.70697 0.55121 0.73479 0.0
O265 O 0.72818 0.60635 0.74623 0.0
O266 O 0.78025 0.6767 0.738 0.0
O267 O 0.71589 0.6487 0.73045 0.0
C268 C 0.75631 0.66574 0.72893 0.0
O269 O 0.74281 0.63704 0.77104 0.0
O270 O 0.75874 0.69132 0.78266 0.0
C271 C 0.65637 0.6239 0.74603 0.0
C272 C 0.74665 0.65205 0.78122 0.0
Zn273 Zn 0.27064 0.07928 0.77235 0.0
Zn274 Zn 0.43438 0.11268 0.72969 0.0
Zn275 Zn 0.34278 0.09137 0.75557 0.0
C276 C 0.34714 0.10568 0.73104 0.0
C277 C 0.44497 0.17428 0.74761 0.0
O278 O 0.36311 0.11396 0.773 0.0
O279 O 0.30984 0.09817 0.78517 0.0
C280 C 0.26767 0.00547 0.75725 0.0
O281 O 0.32728 0.11226 0.73924 0.0
O282 O 0.36958 0.08889 0.73385 0.0
O283 O 0.46484 0.1685 0.73926 0.0
O284 O 0.40738 0.14381 0.75054 0.0
O285 O 0.2586 0.02808 0.76363 0.0
O286 O 0.30614 0.02127 0.75351 0.0
O287 O 0.30073 0.11389 0.74814 0.0
O288 O 0.26715 0.12253 0.76319 0.0
C289 C 0.278 0.12863 0.75272 0.0
O290 O 0.3552 0.03642 0.75517 0.0
O291 O 0.38583 0.06583 0.73931 0.0
C292 C 0.34939 0.11353 0.7832 0.0
C293 C 0.38592 0.04516 0.74815 0.0
Zn294 Zn 0.88765 0.29173 0.73875 0.0
Zn295 Zn 0.95257 0.23974 0.76426 0.0
Zn296 Zn 0.9201 0.26538 0.75125 0.0
C297 C 0.88422 0.16778 0.75441 0.0
C298 C 0.01279 0.28125 0.74794 0.0
O299 O 0.9291 0.32628 0.75868 0.0
O300 O 0.92562 0.35394 0.74216 0.0
C301 C 0.82035 0.22572 0.75001 0.0
O302 O 0.87296 0.19636 0.75317 0.0
O303 O 0.92132 0.17907 0.75822 0.0
O304 O 0.01219 0.27798 0.75875 0.0
O305 O 0.97771 0.27175 0.7426 0.0
O306 O 0.82859 0.2608 0.74539 0.0
O307 O 0.85093 0.21743 0.75163 0.0
O308 O 0.95074 0.27238 0.73388 0.0
O309 O 0.89616 0.26879 0.72429 0.0
C310 C 0.93041 0.26727 0.72433 0.0
O311 O 0.93457 0.30315 0.76754 0.0
O312 O 0.93689 0.2556 0.77908 0.0
C313 C 0.93445 0.35886 0.75275 0.0
C314 C 0.93538 0.28966 0.77776 0.0
Zn315 Zn 0.39185 0.1346 0.57214 0.0
Zn316 Zn 0.28384 0.06612 0.59885 0.0
Zn317 Zn 0.33576 0.1009 0.58507 0.0
C318 C 0.35022 0.11546 0.6115 0.0
C319 C 0.26761 0.12205 0.58528 0.0
O320 O 0.30407 0.1009 0.56839 0.0
O321 O 0.35651 0.10008 0.55886 0.0
C322 C 0.40557 0.07698 0.58425 0.0
O323 O 0.35593 0.13599 0.60198 0.0
O324 O 0.32373 0.07565 0.61175 0.0
O325 O 0.26627 0.11005 0.59557 0.0
O326 O 0.28629 0.11113 0.57766 0.0
O327 O 0.42735 0.11475 0.58038 0.0
O328 O 0.36435 0.0591 0.58484 0.0
O329 O 0.37877 0.16445 0.59282 0.0
O330 O 0.39901 0.19238 0.57559 0.0
C331 C 0.39574 0.19761 0.58621 0.0
O332 O 0.3193 0.03229 0.58471 0.0
O333 O 0.25422 0.00973 0.59153 0.0
C334 C 0.31848 0.09325 0.55904 0.0
C335 C 0.28031 0.00172 0.5864 0.0
Zn336 Zn 0.88339 0.28041 0.57025 0.0
Zn337 Zn 0.95849 0.21585 0.57977 0.0
Zn338 Zn 0.92015 0.25032 0.58033 0.0
C339 C 0.93029 0.21891 0.60266 0.0
C340 C 0.87576 0.1521 0.57998 0.0
O341 O 0.92532 0.23638 0.56247 0.0
O342 O 0.9024 0.27608 0.5543 0.0
C343 C 0.94517 0.34424 0.58537 0.0
O344 O 0.89833 0.21417 0.59647 0.0
O345 O 0.96347 0.22369 0.59748 0.0
O346 O 0.90767 0.16068 0.57361 0.0
O347 O 0.87683 0.18263 0.58607 0.0
O348 O 0.91536 0.33681 0.57835 0.0
O349 O 0.95487 0.31517 0.5875 0.0
O350 O 0.85767 0.21235 0.58894 0.0
O351 O 0.82613 0.23486 0.57666 0.0
C352 C 0.8235 0.21132 0.58508 0.0
O353 O 0.98746 0.29574 0.58489 0.0
O354 O 0.00233 0.26626 0.57047 0.0
C355 C 0.91947 0.25284 0.55343 0.0
C356 C 0.01507 0.29665 0.57769 0.0
Zn357 Zn 0.80076 0.73785 0.59665 0.0
Zn358 Zn 0.74834 0.6272 0.56904 0.0
Zn359 Zn 0.77334 0.68255 0.58399 0.0
C360 C 0.80204 0.61471 0.58434 0.0
C361 C 0.67637 0.6166 0.58167 0.0
O362 O 0.72323 0.70086 0.58679 0.0
O363 O 0.77468 0.76814 0.58902 0.0
C364 C 0.86623 0.74927 0.58245 0.0
O365 O 0.79272 0.6379 0.59084 0.0
O366 O 0.79026 0.60904 0.57392 0.0
O367 O 0.68879 0.59634 0.57534 0.0
O368 O 0.70332 0.65526 0.5849 0.0
O369 O 0.86062 0.75169 0.59307 0.0
O370 O 0.83309 0.73155 0.57581 0.0
O371 O 0.79175 0.66274 0.60019 0.0
O372 O 0.77191 0.70151 0.61032 0.0
C373 C 0.7811 0.67197 0.60991 0.0
O374 O 0.80259 0.71579 0.56726 0.0
O375 O 0.76028 0.66384 0.55527 0.0
C376 C 0.73573 0.74133 0.58698 0.0
C377 C 0.78821 0.70269 0.55698 0.0
H378 H 0.46498 0.91105 0.10605 0.0
H379 H 0.51142 0.88117 0.11101 0.0
H380 H 0.54836 0.88889 0.07544 0.0
H381 H 0.50206 0.91779 0.07041 0.0
H382 H 0.50258 0.8021 0.09935 0.0
H383 H 0.66459 0.94639 0.0945 0.0
H384 H 0.61703 0.94974 0.0976 0.0
H385 H 0.62665 0.93785 0.08328 0.0
C386 C 0.48314 0.90645 0.09932 0.0
C387 C 0.47958 0.9164 0.08784 0.0
C388 C 0.50975 0.88964 0.10216 0.0
C389 C 0.53386 0.88365 0.09361 0.0
C390 C 0.53062 0.89402 0.08219 0.0
H391 H 0.65083 0.74381 0.07567 0.0
H392 H 0.64284 0.80642 0.07909 0.0
C393 C 0.5037 0.91006 0.07933 0.0
C394 C 0.55951 0.86291 0.09622 0.0
H395 H 0.66119 0.87809 0.09451 0.0
C396 C 0.53736 0.81882 0.0986 0.0
C397 C 0.60475 0.88485 0.09498 0.0
C398 C 0.62985 0.93243 0.09253 0.0
C399 C 0.55896 0.79547 0.09922 0.0
C400 C 0.60428 0.81719 0.09782 0.0
C401 C 0.62665 0.86167 0.09578 0.0
C402 C 0.62732 0.79266 0.09712 0.0
C403 C 0.53261 0.74721 0.1006 0.0
C404 C 0.62612 0.76712 0.10639 0.0
C405 C 0.63099 0.73138 0.10443 0.0
C406 C 0.63704 0.72102 0.0932 0.0
C407 C 0.64657 0.75132 0.08443 0.0
C408 C 0.64134 0.78686 0.08636 0.0
H409 H 0.49766 0.73481 0.0994 0.0
H410 H 0.5429 0.73085 0.09432 0.0
H411 H 0.53745 0.73829 0.10938 0.0
H412 H 0.61602 0.77151 0.11482 0.0
H413 H 0.62308 0.70831 0.11132 0.0
H414 H 0.32517 0.92397 0.10559 0.0
H415 H 0.2657 0.85488 0.11179 0.0
H416 H 0.19154 0.85306 0.08241 0.0
H417 H 0.25317 0.92011 0.07558 0.0
H418 H 0.18417 0.80472 0.11653 0.0
H419 H 0.21427 0.76074 0.07302 0.0
H420 H 0.24561 0.81431 0.07866 0.0
H421 H 0.19283 0.79618 0.07275 0.0
C422 C 0.29535 0.90992 0.10077 0.0
C423 C 0.29397 0.92695 0.09003 0.0
C424 C 0.26134 0.87005 0.10427 0.0
C425 C 0.22489 0.84749 0.09723 0.0
C426 C 0.22017 0.86883 0.0877 0.0
H427 H 0.04166 0.56953 0.10178 0.0
H428 H 0.07031 0.64669 0.10528 0.0
C429 C 0.255 0.9078 0.08393 0.0
C430 C 0.19705 0.79996 0.09864 0.0
H431 H 0.16674 0.7049 0.0848 0.0
C432 C 0.17987 0.78291 0.10954 0.0
C433 C 0.19218 0.77118 0.0896 0.0
C434 C 0.2125 0.78642 0.0779 0.0
C435 C 0.15885 0.73826 0.11165 0.0
C436 C 0.15445 0.71009 0.10262 0.0
C437 C 0.17016 0.72683 0.09169 0.0
C438 C 0.13701 0.66333 0.10427 0.0
C439 C 0.14326 0.72142 0.12358 0.0
C440 C 0.16501 0.64699 0.10306 0.0
C441 C 0.14878 0.6033 0.10095 0.0
C442 C 0.10429 0.57513 0.10016 0.0
C443 C 0.07612 0.59057 0.1026 0.0
C444 C 0.09244 0.63463 0.10455 0.0
H445 H 0.15003 0.7476 0.12979 0.0
H446 H 0.10807 0.69856 0.12339 0.0
H447 H 0.15902 0.70345 0.12666 0.0
H448 H 0.19947 0.66864 0.10274 0.0
H449 H 0.17104 0.59216 0.09897 0.0
H450 H 0.08029 0.38188 0.10497 0.0
H451 H 0.14603 0.38462 0.11178 0.0
H452 H 0.18027 0.37517 0.07683 0.0
H453 H 0.11503 0.37313 0.07002 0.0
H454 H 0.21481 0.34141 0.09726 0.0
H455 H 0.24453 0.50941 0.09886 0.0
H456 H 0.1976 0.46773 0.10597 0.0
H457 H 0.20095 0.46799 0.09059 0.0
C458 C 0.10013 0.37703 0.09882 0.0
C459 C 0.09277 0.37747 0.08697 0.0
C460 C 0.13806 0.37919 0.10272 0.0
C461 C 0.16832 0.38092 0.09478 0.0
C462 C 0.15732 0.37388 0.08309 0.0
H463 H 0.42463 0.48318 0.07785 0.0
H464 H 0.34877 0.43639 0.08217 0.0
C465 C 0.11971 0.37221 0.0792 0.0
C466 C 0.21429 0.40096 0.09802 0.0
H467 H 0.30378 0.50008 0.10106 0.0
C468 C 0.23421 0.37597 0.09835 0.0
C469 C 0.23955 0.44615 0.09935 0.0
C470 C 0.21989 0.47467 0.09864 0.0
C471 C 0.27909 0.39528 0.09963 0.0
C472 C 0.30451 0.44065 0.10037 0.0
C473 C 0.28425 0.46532 0.10062 0.0
C474 C 0.35196 0.46374 0.09899 0.0
C475 C 0.29909 0.36711 0.09985 0.0
C476 C 0.37931 0.49489 0.10701 0.0
C477 C 0.42315 0.52179 0.10455 0.0
C478 C 0.43983 0.51832 0.09395 0.0
C479 C 0.41263 0.48632 0.08613 0.0
C480 C 0.36929 0.45924 0.08864 0.0
H481 H 0.27609 0.33452 0.10316 0.0
H482 H 0.30807 0.36342 0.09097 0.0
H483 H 0.32857 0.38147 0.10525 0.0
H484 H 0.36638 0.49948 0.11495 0.0
H485 H 0.44321 0.5469 0.11056 0.0
H486 H 0.98665 0.57106 0.91005 0.0
H487 H 0.94602 0.60588 0.90491 0.0
H488 H 0.84484 0.486 0.8911 0.0
H489 H 0.88535 0.45036 0.89677 0.0
H490 H 0.90628 0.62213 0.88806 0.0
H491 H 0.7857 0.50217 0.91827 0.0
H492 H 0.83706 0.50625 0.91585 0.0
H493 H 0.79448 0.47982 0.90547 0.0
C494 C 0.95651 0.55247 0.90549 0.0
C495 C 0.93887 0.50799 0.9039 0.0
C496 C 0.93318 0.57244 0.90257 0.0
C497 C 0.89168 0.54834 0.89797 0.0
C498 C 0.87633 0.50499 0.89496 0.0
H499 H 0.70172 0.62968 0.89615 0.0
H500 H 0.76087 0.62169 0.88858 0.0
C501 C 0.89971 0.48473 0.89801 0.0
C502 C 0.86303 0.56719 0.89826 0.0
H503 H 0.77459 0.55738 0.91204 0.0
C504 C 0.87706 0.60761 0.89314 0.0
C505 C 0.82544 0.54886 0.90516 0.0
C506 C 0.80986 0.50713 0.91159 0.0
C507 C 0.85499 0.63033 0.89492 0.0
C508 C 0.81795 0.61202 0.90189 0.0
C509 C 0.80317 0.57124 0.9067 0.0
C510 C 0.79417 0.63451 0.90486 0.0
C511 C 0.87218 0.67443 0.88982 0.0
C512 C 0.79516 0.64773 0.91627 0.0
C513 C 0.76148 0.65253 0.92056 0.0
C514 C 0.72635 0.64392 0.91351 0.0
C515 C 0.72888 0.63744 0.90168 0.0
C516 C 0.76246 0.63229 0.89738 0.0
H517 H 0.90207 0.68479 0.88479 0.0
H518 H 0.84749 0.67461 0.88412 0.0
H519 H 0.87897 0.69814 0.8968 0.0
H520 H 0.81923 0.64937 0.92219 0.0
H521 H 0.75992 0.65678 0.92974 0.0
H522 H 0.39936 0.09439 0.89627 0.0
H523 H 0.4039 0.16183 0.89047 0.0
H524 H 0.37621 0.18191 0.92522 0.0
H525 H 0.37225 0.11481 0.93105 0.0
H526 H 0.35659 0.22545 0.90092 0.0
H527 H 0.51899 0.252 0.91259 0.0
H528 H 0.48149 0.20426 0.90484 0.0
H529 H 0.47146 0.21066 0.91959 0.0
C530 C 0.39078 0.1114 0.90246 0.0
C531 C 0.38559 0.09963 0.9141 0.0
C532 C 0.39379 0.15023 0.89915 0.0
C533 C 0.39103 0.17704 0.90747 0.0
C534 C 0.37827 0.16153 0.91868 0.0
H535 H 0.48948 0.43283 0.92652 0.0
H536 H 0.44392 0.35721 0.92138 0.0
C537 C 0.37561 0.12291 0.92199 0.0
C538 C 0.4138 0.22401 0.90557 0.0
H539 H 0.51321 0.31272 0.90893 0.0
C540 C 0.3909 0.24459 0.90248 0.0
C541 C 0.45859 0.24875 0.90768 0.0
C542 C 0.48435 0.22809 0.91137 0.0
C543 C 0.41175 0.28975 0.90175 0.0
C544 C 0.45624 0.31438 0.9042 0.0
C545 C 0.47925 0.2936 0.90688 0.0
C546 C 0.47854 0.36152 0.90577 0.0
C547 C 0.38617 0.31106 0.89865 0.0
C548 C 0.51295 0.3891 0.89861 0.0
C549 C 0.53897 0.43264 0.9015 0.0
C550 C 0.53144 0.44851 0.91173 0.0
C551 C 0.49612 0.42115 0.91863 0.0
C552 C 0.46978 0.37811 0.91564 0.0
H553 H 0.35484 0.28804 0.89464 0.0
H554 H 0.37978 0.3243 0.90655 0.0
H555 H 0.40467 0.33823 0.89264 0.0
H556 H 0.52057 0.37656 0.89105 0.0
H557 H 0.56622 0.45319 0.89611 0.0
H558 H 0.57568 0.12977 0.89517 0.0
H559 H 0.65316 0.16497 0.89093 0.0
H560 H 0.66976 0.09676 0.91915 0.0
H561 H 0.59319 0.06204 0.92333 0.0
H562 H 0.70636 0.21748 0.90758 0.0
H563 H 0.75695 0.10006 0.89654 0.0
H564 H 0.70212 0.08844 0.89487 0.0
H565 H 0.72127 0.08227 0.90865 0.0
C566 C 0.59581 0.12123 0.90012 0.0
C567 C 0.57904 0.09385 0.90963 0.0
C568 C 0.63991 0.1412 0.89772 0.0
C569 C 0.66723 0.13321 0.90467 0.0
C570 C 0.64939 0.1028 0.91351 0.0
H571 H 0.89146 0.30475 0.93835 0.0
H572 H 0.82737 0.23881 0.93196 0.0
C573 C 0.60571 0.08339 0.91599 0.0
C574 C 0.71438 0.16276 0.90456 0.0
H575 H 0.81034 0.16485 0.90672 0.0
C576 C 0.72919 0.20616 0.90703 0.0
C577 C 0.74416 0.14795 0.90396 0.0
C578 C 0.7303 0.10217 0.90074 0.0
C579 C 0.7724 0.23449 0.90966 0.0
C580 C 0.8016 0.21899 0.90989 0.0
C581 C 0.78762 0.17634 0.90671 0.0
C582 C 0.84596 0.24712 0.91405 0.0
C583 C 0.78617 0.28046 0.91277 0.0
C584 C 0.87889 0.27154 0.9062 0.0
C585 C 0.91594 0.30877 0.9099 0.0
C586 C 0.91992 0.32187 0.92143 0.0
C587 C 0.88925 0.29475 0.92946 0.0
C588 C 0.85264 0.25724 0.92581 0.0
H589 H 0.76173 0.28921 0.91024 0.0
H590 H 0.79095 0.28476 0.92221 0.0
H591 H 0.81716 0.30305 0.90856 0.0
H592 H 0.87402 0.26442 0.89708 0.0
H593 H 0.93884 0.32983 0.90353 0.0
H594 H 0.23571 0.03323 0.39759 0.0
H595 H 0.23613 0.09783 0.40445 0.0
H596 H 0.29796 0.094 0.43583 0.0
H597 H 0.29923 0.03019 0.42875 0.0
H598 H 0.19991 0.07894 0.43408 0.0
H599 H 0.33553 0.23053 0.41681 0.0
H600 H 0.31338 0.18442 0.4074 0.0
H601 H 0.34049 0.18414 0.42033 0.0
C602 C 0.25154 0.04764 0.40565 0.0
C603 C 0.26796 0.02735 0.41258 0.0
C604 C 0.2516 0.08432 0.4096 0.0
C605 C 0.26717 0.10055 0.42062 0.0
C606 C 0.28643 0.08221 0.42724 0.0
H607 H 0.15778 0.2665 0.43956 0.0
H608 H 0.20168 0.23314 0.44406 0.0
C609 C 0.28741 0.04606 0.42314 0.0
C610 C 0.25523 0.13062 0.42578 0.0
H611 H 0.27095 0.23131 0.42169 0.0
C612 C 0.21629 0.1128 0.43184 0.0
C613 C 0.27667 0.1745 0.42278 0.0
C614 C 0.31906 0.19485 0.41653 0.0
C615 C 0.19595 0.13676 0.43389 0.0
C616 C 0.21534 0.17945 0.42986 0.0
C617 C 0.2564 0.19859 0.42486 0.0
C618 C 0.18894 0.19956 0.4278 0.0
C619 C 0.15168 0.11502 0.43917 0.0
C620 C 0.16704 0.1909 0.41733 0.0
C621 C 0.14206 0.20927 0.4148 0.0
C622 C 0.1385 0.23703 0.42268 0.0
C623 C 0.15982 0.24514 0.43334 0.0
C624 C 0.18504 0.22643 0.43589 0.0
H625 H 0.14404 0.08454 0.44355 0.0
H626 H 0.14887 0.13678 0.44545 0.0
H627 H 0.12742 0.10756 0.43231 0.0
H628 H 0.16959 0.17001 0.41103 0.0
H629 H 0.12612 0.20218 0.40652 0.0
H630 H 0.98298 0.27077 0.44014 0.0
H631 H 0.92169 0.20734 0.44864 0.0
H632 H 0.86012 0.17236 0.41543 0.0
H633 H 0.92106 0.2356 0.40699 0.0
H634 H 0.80087 0.1395 0.43469 0.0
H635 H 0.93622 0.1058 0.43709 0.0
H636 H 0.94234 0.15142 0.44507 0.0
H637 H 0.94108 0.15192 0.42963 0.0
C638 C 0.95497 0.25127 0.43484 0.0
C639 C 0.95674 0.25777 0.4229 0.0
C640 C 0.92021 0.2146 0.43967 0.0
C641 C 0.88702 0.18448 0.43258 0.0
C642 C 0.88552 0.19498 0.42105 0.0
H643 H 0.73603 0.93326 0.41355 0.0
H644 H 0.76416 0.00823 0.41883 0.0
C645 C 0.92023 0.23143 0.41623 0.0
C646 C 0.86027 0.13889 0.43616 0.0
H647 H 0.86698 0.048 0.43949 0.0
C648 C 0.81528 0.11961 0.43605 0.0
C649 C 0.87914 0.11282 0.43778 0.0
C650 C 0.92728 0.13124 0.43734 0.0
C651 C 0.78872 0.07477 0.43704 0.0
C652 C 0.80769 0.04864 0.43804 0.0
C653 C 0.85253 0.06815 0.43888 0.0
C654 C 0.78289 0.00149 0.43605 0.0
C655 C 0.7406 0.05553 0.43653 0.0
C656 C 0.7836 0.9724 0.44402 0.0
C657 C 0.76705 0.92902 0.44101 0.0
C658 C 0.75085 0.9148 0.4299 0.0
C659 C 0.74853 0.94355 0.42217 0.0
C660 C 0.76421 0.98634 0.42522 0.0
H661 H 0.73094 0.0786 0.43974 0.0
H662 H 0.72978 0.04771 0.42747 0.0
H663 H 0.72385 0.0255 0.44166 0.0
H664 H 0.79847 0.98363 0.45236 0.0
H665 H 0.76934 0.90741 0.44708 0.0
H666 H 0.11386 0.82002 0.44526 0.0
H667 H 0.03605 0.78496 0.44877 0.0
H668 H 0.02643 0.8672 0.42337 0.0
H669 H 0.10404 0.90345 0.42041 0.0
H670 H 0.97121 0.85184 0.43947 0.0
H671 H 0.95624 0.69628 0.42643 0.0
H672 H 0.98794 0.71894 0.43915 0.0
H673 H 0.00636 0.74647 0.42563 0.0
C674 C 0.09525 0.83195 0.44092 0.0
C675 C 0.1148 0.86496 0.43277 0.0
C676 C 0.05069 0.81121 0.44268 0.0
C677 C 0.02505 0.82232 0.43603 0.0
C678 C 0.0453 0.85773 0.42857 0.0
H679 H 0.771 0.7101 0.41097 0.0
H680 H 0.84138 0.71807 0.41494 0.0
C681 C 0.08978 0.87891 0.42699 0.0
C682 C 0.97719 0.79613 0.43621 0.0
H683 H 0.89171 0.69512 0.43124 0.0
C684 C 0.95394 0.81751 0.4378 0.0
C685 C 0.95449 0.75138 0.4337 0.0
C686 C 0.97747 0.72694 0.43101 0.0
C687 C 0.90899 0.79577 0.43687 0.0
C688 C 0.88625 0.75089 0.43476 0.0
C689 C 0.90922 0.72926 0.43318 0.0
C690 C 0.83887 0.72759 0.43322 0.0
C691 C 0.88627 0.82147 0.43765 0.0
C692 C 0.81237 0.7256 0.44234 0.0
C693 C 0.77196 0.72078 0.44007 0.0
C694 C 0.75789 0.71799 0.42867 0.0
C695 C 0.7809 0.71172 0.41985 0.0
C696 C 0.82153 0.71694 0.4221 0.0
H697 H 0.90902 0.85664 0.43707 0.0
H698 H 0.86207 0.81213 0.43067 0.0
H699 H 0.86916 0.81486 0.446 0.0
H700 H 0.82503 0.73329 0.45102 0.0
H701 H 0.75509 0.72621 0.44701 0.0
H702 H 0.40956 0.98962 0.23523 0.0
H703 H 0.47415 0.98454 0.23263 0.0
H704 H 0.46658 0.94554 0.26795 0.0
H705 H 0.40196 0.95075 0.27055 0.0
H706 H 0.56013 0.99373 0.24961 0.0
H707 H 0.40955 0.83876 0.24039 0.0
H708 H 0.41297 0.8896 0.23743 0.0
H709 H 0.41041 0.87238 0.25201 0.0
C710 C 0.4238 0.98368 0.24271 0.0
C711 C 0.40047 0.96983 0.25303 0.0
C712 C 0.46054 0.98024 0.24117 0.0
C713 C 0.47445 0.9637 0.25002 0.0
C714 C 0.45625 0.95833 0.26101 0.0
H715 H 0.60074 0.82455 0.26116 0.0
H716 H 0.58235 0.88088 0.25955 0.0
C717 C 0.41952 0.96188 0.26254 0.0
C718 C 0.49659 0.93971 0.247 0.0
H719 H 0.47424 0.83845 0.23985 0.0
C720 C 0.54156 0.95992 0.24737 0.0
C721 C 0.47214 0.89574 0.24392 0.0
C722 C 0.42359 0.87257 0.24336 0.0
C723 C 0.56269 0.93663 0.24509 0.0
C724 C 0.538 0.89211 0.24251 0.0
C725 C 0.49317 0.8726 0.2417 0.0
C726 C 0.55673 0.86354 0.24229 0.0
C727 C 0.61114 0.95974 0.2456 0.0
C728 C 0.54858 0.83482 0.23309 0.0
C729 C 0.55889 0.80207 0.23403 0.0
C730 C 0.57656 0.79739 0.24429 0.0
C731 C 0.58658 0.82737 0.25321 0.0
C732 C 0.57671 0.86001 0.25223 0.0
H733 H 0.62525 0.99433 0.24344 0.0
H734 H 0.62138 0.95782 0.25448 0.0
H735 H 0.62438 0.94511 0.23964 0.0
H736 H 0.53272 0.83674 0.22538 0.0
H737 H 0.5512 0.77935 0.22705 0.0
H738 H 0.14825 0.77187 0.26469 0.0
H739 H 0.10181 0.69392 0.26702 0.0
H740 H 0.1278 0.67444 0.23203 0.0
H741 H 0.17471 0.75197 0.22973 0.0
H742 H 0.03131 0.6096 0.25104 0.0
H743 H 0.19947 0.64424 0.25768 0.0
H744 H 0.18491 0.6852 0.25944 0.0
H745 H 0.18899 0.66754 0.24531 0.0
C746 C 0.14219 0.75108 0.25733 0.0
C747 C 0.16537 0.76762 0.24708 0.0
C748 C 0.11563 0.70657 0.25866 0.0
C749 C 0.11173 0.67855 0.24971 0.0
C750 C 0.13031 0.6956 0.239 0.0
H751 H 0.04756 0.41425 0.24375 0.0
H752 H 0.0402 0.4784 0.24234 0.0
C753 C 0.15727 0.73985 0.23773 0.0
C754 C 0.09936 0.63359 0.25235 0.0
H755 H 0.14485 0.57217 0.25803 0.0
C756 C 0.05591 0.6012 0.25264 0.0
C757 C 0.13171 0.62303 0.25444 0.0
C758 C 0.17893 0.65671 0.25428 0.0
C759 C 0.0441 0.5581 0.25491 0.0
C760 C 0.07664 0.54765 0.25689 0.0
C761 C 0.11992 0.58029 0.25662 0.0
C762 C 0.06781 0.5033 0.25909 0.0
C763 C 0.9972 0.52415 0.25527 0.0
C764 C 0.08433 0.49522 0.26913 0.0
C765 C 0.0893 0.45919 0.26983 0.0
C766 C 0.07702 0.43022 0.26061 0.0
C767 C 0.05637 0.43578 0.25107 0.0
C768 C 0.05212 0.47239 0.25026 0.0
H769 H 0.97608 0.53846 0.2557 0.0
H770 H 0.98888 0.50405 0.2474 0.0
H771 H 0.99055 0.50274 0.2628 0.0
H772 H 0.09689 0.51876 0.276 0.0
H773 H 0.10565 0.45566 0.27722 0.0
H774 H 0.56127 0.61755 0.26875 0.0
H775 H 0.48885 0.57095 0.26133 0.0
H776 H 0.53351 0.61522 0.2269 0.0
H777 H 0.60637 0.66293 0.23437 0.0
H778 H 0.45996 0.61766 0.23221 0.0
H779 H 0.43816 0.45901 0.24393 0.0
H780 H 0.45459 0.49457 0.25607 0.0
H781 H 0.49029 0.50726 0.24398 0.0
C782 C 0.55586 0.6167 0.25956 0.0
C783 C 0.5895 0.64371 0.25215 0.0
C784 C 0.51446 0.58997 0.25533 0.0
C785 C 0.50578 0.58915 0.24354 0.0
C786 C 0.53955 0.61519 0.23602 0.0
H787 H 0.24664 0.3889 0.22653 0.0
H788 H 0.3232 0.43899 0.22325 0.0
C789 C 0.58122 0.64211 0.24028 0.0
C790 C 0.46086 0.56278 0.23931 0.0
H791 H 0.37349 0.46193 0.24089 0.0
C792 C 0.44117 0.5834 0.23389 0.0
C793 C 0.43643 0.51805 0.24138 0.0
C794 C 0.45611 0.49338 0.24655 0.0
C795 C 0.39717 0.56085 0.23101 0.0
C796 C 0.3721 0.51666 0.23379 0.0
C797 C 0.39243 0.49578 0.23873 0.0
C798 C 0.32436 0.49173 0.23259 0.0
C799 C 0.37808 0.58479 0.22513 0.0
C800 C 0.29877 0.50546 0.23826 0.0
C801 C 0.25469 0.47715 0.2398 0.0
C802 C 0.23573 0.43455 0.23588 0.0
C803 C 0.26037 0.42196 0.22936 0.0
C804 C 0.30425 0.45044 0.22763 0.0
H805 H 0.40262 0.61176 0.21988 0.0
H806 H 0.35067 0.56324 0.21949 0.0
H807 H 0.36641 0.59879 0.23174 0.0
H808 H 0.31337 0.53658 0.24243 0.0
H809 H 0.23658 0.48708 0.24518 0.0
H810 H 0.75299 0.57532 0.76585 0.0
H811 H 0.80631 0.55812 0.77354 0.0
H812 H 0.83357 0.53384 0.73913 0.0
H813 H 0.78058 0.55111 0.73145 0.0
H814 H 0.79398 0.46461 0.7625 0.0
H815 H 0.95373 0.61447 0.76248 0.0
H816 H 0.90427 0.6147 0.76523 0.0
H817 H 0.91667 0.60577 0.75093 0.0
C818 C 0.77127 0.56755 0.75994 0.0
C819 C 0.76281 0.5646 0.74809 0.0
C820 C 0.80162 0.55772 0.76433 0.0
C821 C 0.82425 0.54548 0.75686 0.0
C822 C 0.81684 0.54391 0.74499 0.0
H823 H 0.96797 0.43723 0.74274 0.0
H824 H 0.95063 0.49203 0.74824 0.0
C825 C 0.78623 0.55321 0.74064 0.0
C826 C 0.85009 0.52726 0.76136 0.0
H827 H 0.95333 0.54834 0.76434 0.0
C828 C 0.82876 0.48289 0.76325 0.0
C829 C 0.89533 0.55151 0.76216 0.0
C830 C 0.91915 0.59937 0.76015 0.0
C831 C 0.85159 0.46128 0.76506 0.0
C832 C 0.89722 0.48515 0.76543 0.0
C833 C 0.91846 0.53017 0.76426 0.0
C834 C 0.92252 0.46291 0.76461 0.0
C835 C 0.82654 0.41268 0.76543 0.0
C836 C 0.91662 0.43078 0.7725 0.0
C837 C 0.92584 0.39871 0.76925 0.0
C838 C 0.94175 0.39916 0.75819 0.0
C839 C 0.9547 0.43554 0.75122 0.0
C840 C 0.94499 0.46712 0.75439 0.0
H841 H 0.79214 0.39934 0.76313 0.0
H842 H 0.84052 0.39901 0.7594 0.0
H843 H 0.82785 0.40164 0.77424 0.0
H844 H 0.90054 0.42776 0.7806 0.0
H845 H 0.91592 0.37135 0.77483 0.0
H846 H 0.63612 0.59059 0.76809 0.0
H847 H 0.59025 0.51479 0.77347 0.0
H848 H 0.5613 0.4808 0.73767 0.0
H849 H 0.60441 0.55618 0.73238 0.0
H850 H 0.49232 0.4338 0.75005 0.0
H851 H 0.62959 0.42945 0.77086 0.0
H852 H 0.61464 0.46569 0.77713 0.0
H853 H 0.63691 0.47555 0.76287 0.0
C854 C 0.61938 0.56698 0.7614 0.0
C855 C 0.62483 0.57935 0.74976 0.0
C856 C 0.59353 0.5235 0.76448 0.0
C857 C 0.5732 0.49157 0.75596 0.0
C858 C 0.57682 0.50447 0.74443 0.0
H859 H 0.52488 0.24319 0.74397 0.0
H860 H 0.5509 0.3182 0.74866 0.0
C861 C 0.60195 0.5477 0.74139 0.0
C862 C 0.54984 0.44455 0.7587 0.0
H863 H 0.56592 0.36388 0.76841 0.0
C864 C 0.50818 0.41854 0.75423 0.0
C865 C 0.57038 0.42444 0.76419 0.0
C866 C 0.61542 0.45004 0.76898 0.0
C867 C 0.48778 0.37331 0.75438 0.0
C868 C 0.50916 0.35325 0.75939 0.0
C869 C 0.54954 0.3792 0.76456 0.0
C870 C 0.49358 0.30639 0.7578 0.0
C871 C 0.44485 0.34757 0.74844 0.0
C872 C 0.45296 0.27408 0.76168 0.0
C873 C 0.43769 0.23062 0.75894 0.0
C874 C 0.46287 0.21868 0.7523 0.0
C875 C 0.50438 0.25097 0.74903 0.0
C876 C 0.51944 0.2941 0.75173 0.0
H877 H 0.43613 0.36823 0.74336 0.0
H878 H 0.44508 0.32322 0.7426 0.0
H879 H 0.41942 0.33035 0.75498 0.0
H880 H 0.43267 0.28251 0.7666 0.0
H881 H 0.40561 0.20667 0.76162 0.0
H882 H 0.40912 0.03167 0.76972 0.0
H883 H 0.48041 0.04493 0.77577 0.0
H884 H 0.52553 0.07641 0.74085 0.0
H885 H 0.45469 0.06189 0.73472 0.0
H886 H 0.55376 0.0238 0.75349 0.0
H887 H 0.58348 0.1718 0.77702 0.0
H888 H 0.53481 0.12156 0.77959 0.0
H889 H 0.54238 0.14844 0.76608 0.0
C890 C 0.43401 0.04061 0.76331 0.0
C891 C 0.42632 0.04648 0.75177 0.0
C892 C 0.47478 0.04841 0.76679 0.0
C893 C 0.50841 0.0622 0.75878 0.0
C894 C 0.50008 0.06583 0.74719 0.0
H895 H 0.74888 0.21046 0.73855 0.0
H896 H 0.67407 0.16326 0.74414 0.0
C897 C 0.45955 0.05788 0.74371 0.0
C898 C 0.55334 0.07636 0.7623 0.0
H899 H 0.64352 0.16641 0.7718 0.0
C900 C 0.57321 0.05423 0.75787 0.0
C901 C 0.57871 0.11602 0.76806 0.0
C902 C 0.55907 0.14111 0.77298 0.0
C903 C 0.61815 0.07259 0.75816 0.0
C904 C 0.64359 0.11412 0.76284 0.0
C905 C 0.62366 0.13443 0.76825 0.0
C906 C 0.68937 0.14073 0.75967 0.0
C907 C 0.63861 0.04941 0.75256 0.0
C908 C 0.72263 0.14332 0.76658 0.0
C909 C 0.76567 0.17029 0.76335 0.0
C910 C 0.7756 0.1948 0.75322 0.0
C911 C 0.74208 0.19181 0.74637 0.0
C912 C 0.69942 0.1649 0.74954 0.0
H913 H 0.61502 0.01482 0.75113 0.0
H914 H 0.65226 0.06452 0.74413 0.0
H915 H 0.66546 0.05226 0.75795 0.0
H916 H 0.71532 0.12496 0.77446 0.0
H917 H 0.79112 0.17267 0.76884 0.0
H918 H 0.05333 0.30236 0.59822 0.0
H919 H 0.11561 0.29244 0.59935 0.0
H920 H 0.14206 0.32508 0.56348 0.0
H921 H 0.08017 0.33539 0.56238 0.0
H922 H 0.09951 0.22361 0.58486 0.0
H923 H 0.26242 0.3623 0.57633 0.0
H924 H 0.21895 0.36876 0.58185 0.0
H925 H 0.22087 0.35787 0.56685 0.0
C926 C 0.07432 0.31073 0.59082 0.0
C927 C 0.0615 0.31887 0.58016 0.0
C928 C 0.10965 0.30437 0.59142 0.0
C929 C 0.133 0.30714 0.58144 0.0
C930 C 0.12477 0.32291 0.57131 0.0
H931 H 0.23977 0.13869 0.56469 0.0
H932 H 0.20988 0.18688 0.56198 0.0
C933 C 0.08946 0.32922 0.57071 0.0
C934 C 0.15687 0.28338 0.58081 0.0
H935 H 0.25418 0.29231 0.5748 0.0
C936 C 0.13338 0.23877 0.58269 0.0
C937 C 0.20078 0.30295 0.57773 0.0
C938 C 0.22743 0.35067 0.57565 0.0
C939 C 0.15266 0.21335 0.58175 0.0
C940 C 0.19662 0.23292 0.57886 0.0
C941 C 0.22022 0.2774 0.57683 0.0
C942 C 0.21927 0.20824 0.5797 0.0
C943 C 0.12628 0.16574 0.58414 0.0
C944 C 0.23449 0.20482 0.59047 0.0
C945 C 0.25055 0.17718 0.59206 0.0
C946 C 0.25211 0.1524 0.58288 0.0
C947 C 0.23866 0.15719 0.57191 0.0
C948 C 0.22188 0.18477 0.57035 0.0
H949 H 0.09159 0.15477 0.58527 0.0
H950 H 0.12987 0.1473 0.57698 0.0
H951 H 0.13826 0.15817 0.59209 0.0
H952 H 0.23256 0.22254 0.59778 0.0
H953 H 0.26144 0.17496 0.60058 0.0
H954 H 0.69313 0.75666 0.60372 0.0
H955 H 0.68684 0.8213 0.60367 0.0
H956 H 0.71547 0.83686 0.56741 0.0
H957 H 0.72065 0.77191 0.56747 0.0
H958 H 0.76173 0.89158 0.59939 0.0
H959 H 0.64251 0.89232 0.56967 0.0
H960 H 0.63793 0.84303 0.57504 0.0
H961 H 0.6718 0.87011 0.56287 0.0
C962 C 0.6947 0.772 0.59557 0.0
C963 C 0.70705 0.75909 0.58557 0.0
C964 C 0.69179 0.80944 0.59558 0.0
C965 C 0.70105 0.83439 0.58556 0.0
C966 C 0.70746 0.81808 0.57523 0.0
H967 H 0.85466 0.08759 0.56463 0.0
H968 H 0.80298 0.01123 0.56707 0.0
C969 C 0.71015 0.78056 0.57523 0.0
C970 C 0.71457 0.88088 0.5864 0.0
H971 H 0.70808 0.96149 0.57267 0.0
C972 C 0.74899 0.90668 0.5938 0.0
C973 C 0.6985 0.90085 0.57902 0.0
C974 C 0.66035 0.875 0.57129 0.0
C975 C 0.76948 0.95173 0.5935 0.0
C976 C 0.75486 0.97171 0.58569 0.0
C977 C 0.71912 0.94607 0.57868 0.0
C978 C 0.78025 0.01874 0.58363 0.0
C979 C 0.80863 0.97778 0.60094 0.0
C980 C 0.78367 0.04856 0.59201 0.0
C981 C 0.81323 0.09255 0.59061 0.0
C982 C 0.84007 0.10709 0.58089 0.0
C983 C 0.83482 0.07733 0.57228 0.0
C984 C 0.80508 0.03367 0.57362 0.0
H985 H 0.81836 0.95726 0.60571 0.0
H986 H 0.83615 1.00086 0.59558 0.0
H987 H 0.80174 0.99667 0.60727 0.0
H988 H 0.76465 0.03762 0.59979 0.0
H989 H 0.81649 0.11477 0.59737 0.0
H990 H 0.24658 0.92358 0.59643 0.0
H991 H 0.17854 0.86377 0.58956 0.0
H992 H 0.19706 0.92739 0.55696 0.0
H993 H 0.26543 0.98679 0.5638 0.0
H994 H 0.13121 0.92177 0.57757 0.0
H995 H 0.11289 0.76988 0.5595 0.0
H996 H 0.15142 0.79723 0.57087 0.0
H997 H 0.1605 0.82152 0.55695 0.0
C998 C 0.23795 0.92308 0.58748 0.0
C999 C 0.26132 0.95979 0.58062 0.0
C1000 C 0.1987 0.88904 0.58359 0.0
C1001 C 0.18259 0.89136 0.57279 0.0
C1002 C 0.20912 0.92475 0.56528 0.0
H1003 H 0.90276 0.7828 0.56126 0.0
H1004 H 0.97969 0.8149 0.55624 0.0
C1005 C 0.24866 0.95851 0.56913 0.0
C1006 C 0.13543 0.86797 0.57101 0.0
H1007 H 0.04871 0.7702 0.56433 0.0
C1008 C 0.11318 0.88896 0.5744 0.0
C1009 C 0.11221 0.82511 0.56706 0.0
C1010 C 0.13521 0.80181 0.56333 0.0
C1011 C 0.06815 0.86769 0.57434 0.0
C1012 C 0.04471 0.82442 0.57067 0.0
C1013 C 0.06689 0.80366 0.56694 0.0
C1014 C 0.99768 0.79915 0.5725 0.0
C1015 C 0.04568 0.89064 0.57889 0.0
C1016 C 0.98267 0.77933 0.58316 0.0
C1017 C 0.93958 0.76203 0.58608 0.0
C1018 C 0.91035 0.7638 0.57837 0.0
C1019 C 0.92471 0.78125 0.56737 0.0
C1020 C 0.96842 0.79933 0.56449 0.0
H1021 H 0.06843 0.92525 0.5806 0.0
H1022 H 0.021 0.88783 0.57266 0.0
H1023 H 0.0289 0.87526 0.58703 0.0
H1024 H 0.00478 0.7791 0.58946 0.0
H1025 H 0.92932 0.74811 0.59456 0.0
H1026 H 0.52235 0.02597 0.05138 0.0
H1027 H 0.54077 0.02796 0.03098 0.0
H1028 H 0.44496 0.06178 0.02207 0.0
H1029 H 0.42645 0.05951 0.04233 0.0
H1030 H 0.47266 0.9674 0.0169 0.0
H1031 H 0.54125 0.13173 0.99906 0.0
H1032 H 0.54289 0.12186 0.01424 0.0
H1033 H 0.49472 0.11624 0.00785 0.0
C1034 C 0.50701 0.03616 0.0451 0.0
C1035 C 0.47306 0.04262 0.04834 0.0
C1036 C 0.5172 0.03684 0.03346 0.0
C1037 C 0.49415 0.04491 0.02503 0.0
C1038 C 0.46357 0.05607 0.02843 0.0
H1039 H 0.39009 0.98085 0.95969 0.0
H1040 H 0.40489 0.981 0.98022 0.0
C1041 C 0.45305 0.05486 0.04001 0.0
C1042 C 0.49571 0.03399 0.01283 0.0
H1043 H 0.50508 0.07292 0.98562 0.0
C1044 C 0.48092 0.99068 0.01004 0.0
C1045 C 0.50583 0.06427 0.00393 0.0
C1046 C 0.52242 0.11121 0.00642 0.0
C1047 C 0.47382 0.97653 0.99857 0.0
C1048 C 0.48223 0.00652 0.98975 0.0
C1049 C 0.49895 0.0501 0.99248 0.0
C1050 C 0.46966 0.99314 0.97773 0.0
C1051 C 0.45537 0.92947 0.99591 0.0
C1052 C 0.50038 0.99727 0.96961 0.0
C1053 C 0.49162 0.99632 0.95785 0.0
C1054 C 0.45245 0.99211 0.95421 0.0
C1055 C 0.42032 0.98368 0.96234 0.0
C1056 C 0.42883 0.98403 0.97404 0.0
H1057 H 0.45428 0.91075 0.00362 0.0
H1058 H 0.42219 0.9161 0.99251 0.0
H1059 H 0.47479 0.92537 0.98913 0.0
H1060 H 0.53215 0.00461 0.97236 0.0
H1061 H 0.51707 0.00366 0.95171 0.0
H1062 H 0.96847 0.35961 0.95334 0.0
H1063 H 0.9589 0.34776 0.9742 0.0
H1064 H 0.06915 0.4732 0.98013 0.0
H1065 H 0.07824 0.48534 0.95937 0.0
H1066 H 0.04081 0.38623 0.99722 0.0
H1067 H 0.92946 0.44853 0.98819 0.0
H1068 H 0.93234 0.41059 0.97858 0.0
H1069 H 0.97639 0.46471 0.97936 0.0
C1070 C 0.99216 0.38347 0.9591 0.0
C1071 C 0.02433 0.42324 0.95481 0.0
C1072 C 0.98639 0.37688 0.97101 0.0
C1073 C 0.0131 0.40981 0.97866 0.0
C1074 C 0.04833 0.44738 0.97435 0.0
H1075 H 0.03221 0.51975 0.04327 0.0
H1076 H 0.02189 0.49974 0.02292 0.0
C1077 C 0.05375 0.45415 0.9625 0.0
C1078 C 1.00001 0.40925 0.99077 0.0
H1079 H 0.9447 0.44325 0.00757 0.0
C1080 C 0.01907 0.39773 0.99952 0.0
C1081 C 0.97202 0.4248 0.99368 0.0
C1082 C 0.95118 0.43795 0.98451 0.0
C1083 C 0.0118 0.40265 0.01117 0.0
C1084 C 0.98484 0.41952 0.01407 0.0
C1085 C 0.9649 0.42988 0.0053 0.0
C1086 C 0.98161 0.4316 0.02608 0.0
C1087 C 0.03467 0.39189 0.02032 0.0
C1088 C 0.95977 0.40021 0.03454 0.0
C1089 C 0.96463 0.41186 0.04619 0.0
C1090 C 0.9919 0.45486 0.04949 0.0
C1091 C 0.01032 0.48654 0.04094 0.0
C1092 C 0.00491 0.47504 0.02932 0.0
H1093 H 0.05763 0.38298 0.01661 0.0
H1094 H 0.0525 0.41972 0.0262 0.0
H1095 H 0.01064 0.3645 0.02553 0.0
H1096 H 0.94145 0.36652 0.03219 0.0
H1097 H 0.95097 0.38678 0.05262 0.0
H1098 H 0.50581 0.50717 0.95253 0.0
H1099 H 0.49245 0.49452 0.97326 0.0
H1100 H 0.57591 0.62994 0.97971 0.0
H1101 H 0.58996 0.64239 0.95909 0.0
H1102 H 0.57281 0.52294 0.98734 0.0
H1103 H 0.47133 0.58931 0.00274 0.0
H1104 H 0.46857 0.57044 0.98816 0.0
H1105 H 0.51258 0.62165 0.99252 0.0
C1106 C 0.51931 0.53444 0.95835 0.0
C1107 C 0.54839 0.57581 0.95429 0.0
C1108 C 0.51212 0.52714 0.97017 0.0
C1109 C 0.53325 0.5613 0.97798 0.0
C1110 C 0.55893 0.60326 0.97381 0.0
H1111 H 0.62848 0.62761 0.04475 0.0
H1112 H 0.61714 0.61363 0.02411 0.0
C1113 C 0.56667 0.61042 0.96204 0.0
C1114 C 0.5346 0.55285 0.99036 0.0
H1115 H 0.51196 0.57693 0.01688 0.0
C1116 C 0.55864 0.53374 0.99383 0.0
C1117 C 0.51669 0.56767 0.99874 0.0
C1118 C 0.49055 0.58819 0.99541 0.0
C1119 C 0.56671 0.53077 0.00551 0.0
C1120 C 0.5498 0.54671 0.01384 0.0
C1121 C 0.52446 0.56433 0.01041 0.0
C1122 C 0.56185 0.55003 0.02608 0.0
C1123 C 0.59495 0.51269 0.00891 0.0
C1124 C 0.53565 0.51789 0.03396 0.0
C1125 C 0.54243 0.52559 0.04581 0.0
C1126 C 0.57493 0.5658 0.0498 0.0
C1127 C 0.60311 0.59641 0.04186 0.0
C1128 C 0.59665 0.58854 0.03009 0.0
H1129 H 0.60318 0.49878 1.00146 0.0
H1130 H 0.62521 0.53863 0.01276 0.0
H1131 H 0.57859 0.48744 0.01555 0.0
H1132 H 0.50855 0.48802 0.03095 0.0
H1133 H 0.52014 0.50167 0.05178 0.0
H1134 H 0.16422 0.33638 0.37808 0.0
H1135 H 0.16134 0.34052 0.3571 0.0
H1136 H 0.09015 0.40714 0.36039 0.0
H1137 H 0.09263 0.40256 0.38136 0.0
H1138 H 0.06628 0.29767 0.3493 0.0
H1139 H 0.17436 0.46014 0.33088 0.0
H1140 H 0.18904 0.44147 0.34359 0.0
H1141 H 0.14786 0.45555 0.34442 0.0
C1142 C 0.15055 0.35444 0.37432 0.0
C1143 C 0.12922 0.36973 0.38129 0.0
C1144 C 0.14838 0.35628 0.36234 0.0
C1145 C 0.12534 0.37394 0.35722 0.0
C1146 C 0.10844 0.39379 0.36418 0.0
H1147 H 0.05491 0.3602 0.28448 0.0
H1148 H 0.0533 0.37092 0.30531 0.0
C1149 C 0.11031 0.39161 0.37616 0.0
C1150 C 0.11136 0.36364 0.34509 0.0
H1151 H 0.12794 0.40555 0.31805 0.0
C1152 C 0.07967 0.32125 0.34246 0.0
C1153 C 0.12808 0.39472 0.33629 0.0
C1154 C 0.16183 0.44062 0.33883 0.0
C1155 C 0.06498 0.30878 0.33116 0.0
C1156 C 0.08321 0.33929 0.3222 0.0
C1157 C 0.11386 0.38215 0.32492 0.0
C1158 C 0.07483 0.32642 0.30991 0.0
C1159 C 0.03015 0.26296 0.32893 0.0
C1160 C 0.08551 0.29646 0.30563 0.0
C1161 C 0.08608 0.29011 0.29381 0.0
C1162 C 0.07614 0.31369 0.28604 0.0
C1163 C 0.0618 0.34092 0.29031 0.0
C1164 C 0.06152 0.34754 0.30219 0.0
H1165 H 0.00938 0.24882 0.33661 0.0
H1166 H 0.00961 0.2608 0.32153 0.0
H1167 H 0.0452 0.24323 0.32698 0.0
H1168 H 0.09666 0.28036 0.31136 0.0
H1169 H 0.09793 0.26951 0.29072 0.0
H1170 H 0.71926 0.75471 0.37891 0.0
H1171 H 0.71133 0.76031 0.35842 0.0
H1172 H 0.62875 0.81319 0.36476 0.0
H1173 H 0.63779 0.80897 0.38563 0.0
H1174 H 0.64376 0.72716 0.34401 0.0
H1175 H 0.72302 0.90577 0.345 0.0
H1176 H 0.72273 0.87503 0.35728 0.0
H1177 H 0.67532 0.87721 0.35358 0.0
C1178 C 0.69918 0.76742 0.37602 0.0
C1179 C 0.67979 0.78221 0.38391 0.0
C1180 C 0.69457 0.77042 0.36426 0.0
C1181 C 0.67031 0.78808 0.36006 0.0
C1182 C 0.64856 0.80048 0.36786 0.0
H1183 H 0.62783 0.82494 0.2891 0.0
H1184 H 0.63653 0.83299 0.30998 0.0
C1185 C 0.65337 0.79767 0.37975 0.0
C1186 C 0.66988 0.79461 0.3475 0.0
H1187 H 0.70406 0.87238 0.32682 0.0
C1188 C 0.65673 0.75888 0.34025 0.0
C1189 C 0.68712 0.8361 0.34263 0.0
C1190 C 0.70321 0.87585 0.34999 0.0
C1191 C 0.66073 0.76351 0.32828 0.0
C1192 C 0.67884 0.80511 0.32344 0.0
C1193 C 0.69087 0.8407 0.33062 0.0
C1194 C 0.68294 0.81155 0.31085 0.0
C1195 C 0.64528 0.72375 0.32093 0.0
C1196 C 0.70881 0.80019 0.3044 0.0
C1197 C 0.70444 0.79641 0.29244 0.0
C1198 C 0.67412 0.80385 0.28689 0.0
C1199 C 0.65197 0.81986 0.29322 0.0
C1200 C 0.65654 0.82394 0.30514 0.0
H1201 H 0.62361 0.69394 0.32576 0.0
H1202 H 0.62795 0.72532 0.31321 0.0
H1203 H 0.67342 0.72143 0.31799 0.0
H1204 H 0.72978 0.79103 0.30867 0.0
H1205 H 0.72108 0.78306 0.28773 0.0
H1206 H 0.32018 0.98034 0.28423 0.0
H1207 H 0.33101 0.99525 0.305 0.0
H1208 H 0.26368 0.85906 0.31187 0.0
H1209 H 0.25353 0.844 0.29132 0.0
H1210 H 0.27247 0.97081 0.32365 0.0
H1211 H 0.37764 0.90059 0.32852 0.0
H1212 H 0.36515 0.91423 0.31467 0.0
H1213 H 0.32785 0.86436 0.32154 0.0
C1214 C 0.30774 0.95362 0.29019 0.0
C1215 C 0.28663 0.91095 0.28609 0.0
C1216 C 0.31392 0.9622 0.30205 0.0
C1217 C 0.29913 0.92827 0.31 0.0
C1218 C 0.27654 0.88579 0.30591 0.0
H1219 H 0.24984 0.84916 0.37801 0.0
H1220 H 0.26815 0.86385 0.35776 0.0
C1221 C 0.27063 0.87723 0.29413 0.0
C1222 C 0.307 0.93638 0.32259 0.0
H1223 H 0.34449 0.90687 0.34581 0.0
C1224 C 0.28899 0.95768 0.32851 0.0
C1225 C 0.32902 0.91971 0.32892 0.0
C1226 C 0.35141 0.89885 0.32307 0.0
C1227 C 0.28944 0.95964 0.34063 0.0
C1228 C 0.30894 0.94028 0.34697 0.0
C1229 C 0.32938 0.92156 0.34099 0.0
C1230 C 0.30286 0.93309 0.35963 0.0
C1231 C 0.26666 0.97995 0.34656 0.0
C1232 C 0.31784 0.96712 0.36762 0.0
C1233 C 0.30753 0.95867 0.37937 0.0
C1234 C 0.28198 0.9161 0.38323 0.0
C1235 C 0.26947 0.88231 0.37531 0.0
C1236 C 0.27985 0.89069 0.36369 0.0
H1237 H 0.24795 0.98793 0.34044 0.0
H1238 H 0.24449 0.95813 0.35326 0.0
H1239 H 0.29076 0.01012 0.35085 0.0
H1240 H 0.33642 1.00013 0.36475 0.0
H1241 H 0.31739 0.98534 0.38528 0.0
H1242 H 0.70669 0.62759 0.71026 0.0
H1243 H 0.72809 0.62988 0.69052 0.0
H1244 H 0.86151 0.70522 0.70023 0.0
H1245 H 0.84006 0.70309 0.72053 0.0
H1246 H 0.78571 0.71629 0.67867 0.0
H1247 H 0.84167 0.59704 0.67801 0.0
H1248 H 0.80364 0.59341 0.68874 0.0
H1249 H 0.85813 0.63682 0.68931 0.0
C1250 C 0.74078 0.64404 0.70841 0.0
C1251 C 0.77173 0.6646 0.71714 0.0
C1252 C 0.75288 0.64541 0.69701 0.0
C1253 C 0.79626 0.66744 0.69391 0.0
C1254 C 0.82776 0.6876 0.70251 0.0
H1255 H 0.85395 0.6817 0.6198 0.0
H1256 H 0.86444 0.67989 0.64065 0.0
C1257 C 0.81553 0.68619 0.71409 0.0
C1258 C 0.8067 0.67053 0.6815 0.0
H1259 H 0.82583 0.61698 0.66009 0.0
C1260 C 0.79558 0.69543 0.6746 0.0
C1261 C 0.8193 0.64312 0.67624 0.0
C1262 C 0.83147 0.61593 0.68339 0.0
C1263 C 0.79449 0.69193 0.66258 0.0
C1264 C 0.80403 0.66214 0.65732 0.0
C1265 C 0.81796 0.63931 0.66416 0.0
C1266 C 0.79713 0.65311 0.6448 0.0
C1267 C 0.78162 0.71914 0.65563 0.0
C1268 C 0.75554 0.63592 0.64023 0.0
C1269 C 0.74958 0.63693 0.6284 0.0
C1270 C 0.785 0.65435 0.62094 0.0
C1271 C 0.82606 0.66719 0.62538 0.0
C1272 C 0.83212 0.6666 0.63728 0.0
H1273 H 0.78687 0.74801 0.6605 0.0
H1274 H 0.79994 0.72975 0.64745 0.0
H1275 H 0.74687 0.69986 0.6535 0.0
H1276 H 0.72805 0.62485 0.64589 0.0
H1277 H 0.71775 0.62754 0.62518 0.0
H1278 H 0.38961 0.09388 0.62769 0.0
H1279 H 0.39081 0.10832 0.64829 0.0
H1280 H 0.34384 0.19537 0.64149 0.0
H1281 H 0.34322 0.18141 0.62073 0.0
H1282 H 0.42078 0.20692 0.66231 0.0
H1283 H 0.25393 0.06636 0.66114 0.0
H1284 H 0.29447 0.06648 0.65198 0.0
H1285 H 0.27588 0.10348 0.64924 0.0
C1286 C 0.38162 0.11775 0.63054 0.0
C1287 C 0.36678 0.13691 0.62265 0.0
C1288 C 0.38193 0.12565 0.64231 0.0
C1289 C 0.36698 0.15252 0.64638 0.0
C1290 C 0.35561 0.17463 0.63847 0.0
H1291 H 0.31632 0.15586 0.72147 0.0
H1292 H 0.31583 0.17207 0.70083 0.0
C1293 C 0.35576 0.16706 0.62663 0.0
C1294 C 0.35825 0.1526 0.65882 0.0
H1295 H 0.28561 0.09091 0.67943 0.0
C1296 C 0.39083 0.18237 0.66605 0.0
C1297 C 0.31927 0.12012 0.66365 0.0
C1298 C 0.28362 0.08719 0.65616 0.0
C1299 C 0.38602 0.17932 0.67807 0.0
C1300 C 0.3478 0.1458 0.68292 0.0
C1301 C 0.31452 0.11708 0.67567 0.0
C1302 C 0.34553 0.13551 0.6953 0.0
C1303 C 0.42275 0.21024 0.68562 0.0
C1304 C 0.36193 0.10948 0.6989 0.0
C1305 C 0.36245 0.10054 0.71051 0.0
C1306 C 0.34643 0.11729 0.71886 0.0
C1307 C 0.32906 0.14275 0.71525 0.0
C1308 C 0.32872 0.15193 0.7035 0.0
H1309 H 0.44818 0.23753 0.68065 0.0
H1310 H 0.41074 0.22307 0.69247 0.0
H1311 H 0.43726 0.1929 0.68988 0.0
H1312 H 0.37478 0.09634 0.6927 0.0
H1313 H 0.37531 0.08008 0.7129 0.0
H1314 H 0.99832 0.24137 0.61686 0.0
H1315 H 0.00147 0.24854 0.63771 0.0
H1316 H 0.86694 0.20957 0.63859 0.0
H1317 H 0.86329 0.20237 0.61745 0.0
H1318 H 0.94487 0.29671 0.65221 0.0
H1319 H 0.92571 0.13554 0.66074 0.0
H1320 H 0.95633 0.16569 0.64839 0.0
H1321 H 0.89943 0.14486 0.64875 0.0
C1322 C 0.96909 0.23382 0.62142 0.0
C1323 C 0.93032 0.22069 0.61545 0.0
C1324 C 0.97115 0.23825 0.63337 0.0
C1325 C 0.93453 0.22953 0.63968 0.0
C1326 C 0.89562 0.2165 0.63383 0.0
H1327 H 0.88334 0.19627 0.71187 0.0
H1328 H 0.88943 0.18808 0.69128 0.0
C1329 C 0.89352 0.21219 0.62178 0.0
C1330 C 0.93749 0.23357 0.6524 0.0
H1331 H 0.94135 0.18181 0.67658 0.0
C1332 C 0.94395 0.27162 0.65759 0.0
C1333 C 0.93654 0.20088 0.65933 0.0
C1334 C 0.92901 0.15924 0.65411 0.0
C1335 C 0.94903 0.27766 0.66958 0.0
C1336 C 0.94869 0.24508 0.67655 0.0
C1337 C 0.94231 0.20707 0.67128 0.0
C1338 C 0.94991 0.24759 0.68939 0.0
C1339 C 0.95329 0.31827 0.67468 0.0
C1340 C 0.98324 0.28248 0.69542 0.0
C1341 C 0.97977 0.28713 0.70733 0.0
C1342 C 0.94322 0.25663 0.71332 0.0
C1343 C 0.91208 0.21998 0.70745 0.0
C1344 C 0.91539 0.21546 0.69565 0.0
H1345 H 0.94287 0.33495 0.66855 0.0
H1346 H 0.93393 0.31123 0.68265 0.0
H1347 H 0.9875 0.34068 0.67687 0.0
H1348 H 0.01087 0.30711 0.69086 0.0
H1349 H 0.0039 0.31596 0.71164 0.0
H1350 H 0.26237 0.85268 0.21028 0.0
H1351 H 0.28799 0.84612 0.19115 0.0
H1352 H 0.39061 0.97802 0.19327 0.0
H1353 H 0.36428 0.98497 0.21219 0.0
H1354 H 0.30019 0.91442 0.17225 0.0
H1355 H 0.44245 0.89706 0.18169 0.0
H1356 H 0.39796 0.87955 0.19159 0.0
H1357 H 0.43603 0.93577 0.19003 0.0
C1358 C 0.29106 0.87978 0.20675 0.0
C1359 C 0.31177 0.91917 0.21265 0.0
C1360 C 0.30549 0.8761 0.19585 0.0
C1361 C 0.34133 0.91149 0.19088 0.0
C1362 C 0.36316 0.95027 0.19703 0.0
H1363 H 0.48073 0.01808 0.13124 0.0
H1364 H 0.45568 0.98759 0.15027 0.0
C1365 C 0.34821 0.9542 0.2078 0.0
C1366 C 0.35355 0.90971 0.17883 0.0
H1367 H 0.43381 0.9131 0.16239 0.0
C1368 C 0.32885 0.91316 0.17002 0.0
C1369 C 0.3912 0.9086 0.17606 0.0
C1370 C 0.41851 0.9048 0.1853 0.0
C1371 C 0.34204 0.91779 0.15849 0.0
C1372 C 0.38034 0.91763 0.1557 0.0
C1373 C 0.40412 0.91247 0.16451 0.0
C1374 C 0.39964 0.9299 0.14406 0.0
C1375 C 0.31653 0.92589 0.14953 0.0
C1376 C 0.37796 0.90627 0.13417 0.0
C1377 C 0.39268 0.92361 0.12319 0.0
C1378 C 0.42889 0.9648 0.12206 0.0
C1379 C 0.45263 0.98627 0.13191 0.0
C1380 C 0.43828 0.96891 0.14279 0.0
H1381 H 0.292 0.9322 0.15343 0.0
H1382 H 0.33818 0.95384 0.14408 0.0
H1383 H 0.29968 0.89728 0.14386 0.0
H1384 H 0.34843 0.87571 0.13497 0.0
H1385 H 0.37391 0.9065 0.11571 0.0
H1386 H 0.02643 0.38081 0.1268 0.0
H1387 H 0.05861 0.39098 0.14581 0.0
H1388 H 0.10828 0.52758 0.14341 0.0
H1389 H 0.07613 0.51759 0.12404 0.0
H1390 H 0.16307 0.47794 0.15374 0.0
H1391 H 0.0074 0.44473 0.17286 0.0
H1392 H 0.00524 0.41458 0.16024 0.0
H1393 H 0.02624 0.47145 0.15916 0.0
C1394 C 0.04466 0.41317 0.13023 0.0
C1395 C 0.04832 0.44839 0.12403 0.0
C1396 C 0.06313 0.41888 0.14107 0.0
C1397 C 0.0854 0.45989 0.14602 0.0
C1398 C 0.09113 0.49567 0.13968 0.0
H1399 H 0.1115 0.43484 0.22054 0.0
H1400 H 0.11563 0.4741 0.20278 0.0
C1401 C 0.07289 0.48998 0.12866 0.0
C1402 C 0.09906 0.46348 0.15816 0.0
H1403 H 0.05518 0.43517 0.18496 0.0
C1404 C 0.14005 0.46994 0.16065 0.0
C1405 C 0.06891 0.45296 0.16714 0.0
C1406 C 0.02446 0.44571 0.16481 0.0
C1407 C 0.15064 0.46329 0.17181 0.0
C1408 C 0.11918 0.44924 0.1806 0.0
C1409 C 0.07937 0.44606 0.17826 0.0
C1410 C 0.12388 0.43071 0.19154 0.0
C1411 C 0.19474 0.46946 0.17399 0.0
C1412 C 0.12749 0.39366 0.19112 0.0
C1413 C 0.12458 0.37112 0.20114 0.0
C1414 C 0.11821 0.3852 0.21184 0.0
C1415 C 0.11681 0.42355 0.2124 0.0
C1416 C 0.11906 0.44588 0.20228 0.0
H1417 H 0.21887 0.49377 0.16805 0.0
H1418 H 0.20524 0.47971 0.18299 0.0
H1419 H 0.19395 0.4386 0.17245 0.0
H1420 H 0.13023 0.38074 0.18294 0.0
H1421 H 0.12581 0.3417 0.20045 0.0
H1422 H 0.67945 0.79432 0.20059 0.0
H1423 H 0.64327 0.75708 0.18295 0.0
H1424 H 0.53758 0.66045 0.20274 0.0
H1425 H 0.57352 0.69838 0.22061 0.0
H1426 H 0.58797 0.63426 0.18619 0.0
H1427 H 0.52757 0.73419 0.16621 0.0
H1428 H 0.57942 0.76303 0.17306 0.0
H1429 H 0.53246 0.73076 0.1816 0.0
C1430 C 0.64789 0.76587 0.20122 0.0
C1431 C 0.62936 0.74925 0.212 0.0
C1432 C 0.62724 0.74464 0.19111 0.0
C1433 C 0.5877 0.70618 0.19154 0.0
C1434 C 0.56797 0.69034 0.20224 0.0
H1435 H 0.49406 0.56564 0.12504 0.0
H1436 H 0.48921 0.59291 0.14418 0.0
C1437 C 0.58842 0.71209 0.21243 0.0
C1438 C 0.57047 0.68074 0.18083 0.0
H1439 H 0.53858 0.68774 0.15362 0.0
C1440 C 0.57592 0.6451 0.17917 0.0
C1441 C 0.5551 0.69515 0.17167 0.0
C1442 C 0.54791 0.73272 0.17318 0.0
C1443 C 0.5691 0.62531 0.16835 0.0
C1444 C 0.55647 0.64155 0.15898 0.0
C1445 C 0.54819 0.67531 0.16082 0.0
C1446 C 0.55802 0.62786 0.14704 0.0
C1447 C 0.5778 0.58866 0.16684 0.0
C1448 C 0.59813 0.6396 0.14223 0.0
C1449 C 0.60082 0.62419 0.13146 0.0
C1450 C 0.56347 0.59696 0.12516 0.0
C1451 C 0.52323 0.58682 0.12968 0.0
C1452 C 0.52049 0.60216 0.14061 0.0
H1453 H 0.5767 0.57308 0.17518 0.0
H1454 H 0.55417 0.56404 0.16086 0.0
H1455 H 0.61038 0.60122 0.16312 0.0
H1456 H 0.62747 0.65995 0.14697 0.0
H1457 H 0.63236 0.63316 0.12811 0.0
H1458 H 0.9315 0.43424 0.88095 0.0
H1459 H 0.90344 0.40718 0.86147 0.0
H1460 H 0.98556 0.3519 0.85921 0.0
H1461 H 0.01325 0.37859 0.87839 0.0
H1462 H 0.95815 0.4327 0.84179 0.0
H1463 H 0.87224 0.25569 0.84642 0.0
H1464 H 0.88389 0.29134 0.85856 0.0
H1465 H 0.92451 0.28098 0.85295 0.0
C1466 C 0.94235 0.41513 0.87639 0.0
C1467 C 0.97444 0.40842 0.88112 0.0
C1468 C 0.92661 0.39996 0.86526 0.0
C1469 C 0.94214 0.37716 0.85892 0.0
C1470 C 0.97246 0.36863 0.86398 0.0
H1471 H 0.00162 0.33505 0.79229 0.0
H1472 H 0.99778 0.3602 0.81166 0.0
C1473 C 0.98842 0.38411 0.87493 0.0
C1474 C 0.93106 0.36621 0.84659 0.0
H1475 H 0.89971 0.28355 0.82744 0.0
C1476 C 0.9443 0.39997 0.83865 0.0
C1477 C 0.91329 0.32352 0.84249 0.0
C1478 C 0.89731 0.28578 0.85057 0.0
C1479 C 0.94262 0.39237 0.82674 0.0
C1480 C 0.92711 0.35007 0.82271 0.0
C1481 C 0.91165 0.31603 0.83059 0.0
C1482 C 0.93041 0.34086 0.81045 0.0
C1483 C 0.95902 0.42966 0.81852 0.0
C1484 C 0.894 0.32258 0.8033 0.0
C1485 C 0.89636 0.30883 0.79217 0.0
C1486 C 0.93508 0.31301 0.78812 0.0
C1487 C 0.97173 0.33248 0.79516 0.0
C1488 C 0.96949 0.3466 0.80621 0.0
H1489 H 0.96488 0.45971 0.82285 0.0
H1490 H 0.98965 0.43529 0.81465 0.0
H1491 H 0.93562 0.42205 0.81141 0.0
H1492 H 0.86349 0.31756 0.80647 0.0
H1493 H 0.8675 0.29292 0.78696 0.0
H1494 H 0.56402 0.49754 0.87969 0.0
H1495 H 0.5877 0.48727 0.86059 0.0
H1496 H 0.68622 0.62108 0.86009 0.0
H1497 H 0.6621 0.63161 0.87879 0.0
H1498 H 0.59582 0.55455 0.8406 0.0
H1499 H 0.74014 0.54011 0.84926 0.0
H1500 H 0.69562 0.5211 0.85923 0.0
H1501 H 0.73306 0.57762 0.85796 0.0
C1502 C 0.59149 0.52424 0.87561 0.0
C1503 C 0.61156 0.56522 0.8807 0.0
C1504 C 0.6048 0.51847 0.86472 0.0
C1505 C 0.63887 0.55342 0.85901 0.0
C1506 C 0.66019 0.59367 0.86441 0.0
H1507 H 0.78336 0.6748 0.80218 0.0
H1508 H 0.75366 0.63827 0.82032 0.0
C1509 C 0.64642 0.5996 0.87509 0.0
C1510 C 0.64974 0.55029 0.8469 0.0
H1511 H 0.73275 0.56079 0.83031 0.0
C1512 C 0.62499 0.55449 0.83824 0.0
C1513 C 0.68824 0.55111 0.84398 0.0
C1514 C 0.71587 0.54701 0.85306 0.0
C1515 C 0.63927 0.56251 0.82677 0.0
C1516 C 0.67881 0.56509 0.82388 0.0
C1517 C 0.70221 0.55826 0.83249 0.0
C1518 C 0.69986 0.58231 0.81259 0.0
C1519 C 0.61381 0.57185 0.81809 0.0
C1520 C 0.68066 0.56211 0.80211 0.0
C1521 C 0.69791 0.58307 0.79162 0.0
C1522 C 0.73437 0.62449 0.79154 0.0
C1523 C 0.75512 0.64297 0.80199 0.0
C1524 C 0.73817 0.62208 0.81238 0.0
H1525 H 0.58758 0.57506 0.82215 0.0
H1526 H 0.63516 0.60201 0.81336 0.0
H1527 H 0.59913 0.54524 0.81173 0.0
H1528 H 0.6514 0.5311 0.80207 0.0
H1529 H 0.68114 0.56824 0.78369 0.0
H1530 H 0.4248 0.11261 0.78453 0.0
H1531 H 0.46093 0.11101 0.80228 0.0
H1532 H 0.37176 0.13156 0.82227 0.0
H1533 H 0.33571 0.13337 0.80471 0.0
H1534 H 0.46926 0.17951 0.82906 0.0
H1535 H 0.38418 1.00091 0.82426 0.0
H1536 H 0.41056 0.03453 0.81199 0.0
H1537 H 0.36334 0.03236 0.8178 0.0
C1538 C 0.414 0.11845 0.79268 0.0
C1539 C 0.37769 0.12338 0.79324 0.0
C1540 C 0.43441 0.11718 0.80279 0.0
C1541 C 0.41885 0.12116 0.81351 0.0
C1542 C 0.38434 0.12879 0.81404 0.0
H1543 H 0.3823 0.03186 0.87994 0.0
H1544 H 0.38614 0.0615 0.86088 0.0
C1545 C 0.36387 0.12985 0.804 0.0
C1546 C 0.43488 0.11267 0.82427 0.0
H1547 H 0.41866 0.02999 0.84179 0.0
C1548 C 0.45929 0.147 0.83179 0.0
C1549 C 0.42099 0.07007 0.82776 0.0
C1550 C 0.39321 0.03212 0.8201 0.0
C1551 C 0.46885 0.13957 0.84297 0.0
C1552 C 0.45349 0.09686 0.84661 0.0
C1553 C 0.43075 0.06274 0.83888 0.0
C1554 C 0.45432 0.08593 0.85879 0.0
C1555 C 0.49281 0.17693 0.85107 0.0
C1556 C 0.49189 0.09136 0.86409 0.0
C1557 C 0.48986 0.07475 0.87515 0.0
C1558 C 0.4501 0.05203 0.8808 0.0
C1559 C 0.41324 0.0488 0.87567 0.0
C1560 C 0.41537 0.06574 0.86481 0.0
H1561 H 0.50223 0.20826 0.84692 0.0
H1562 H 0.47242 0.17297 0.85867 0.0
H1563 H 0.52225 0.17752 0.85421 0.0
H1564 H 0.52219 0.10669 0.8595 0.0
H1565 H 0.51861 0.0774 0.87895 0.0
H1566 H 0.93632 0.30422 0.53479 0.0
H1567 H 0.96703 0.30076 0.51647 0.0
H1568 H 0.97096 0.1887 0.52793 0.0
H1569 H 0.94175 0.19319 0.54666 0.0
H1570 H 0.04337 0.2427 0.51714 0.0
H1571 H 0.90811 0.2225 0.49011 0.0
H1572 H 0.92815 0.2698 0.49884 0.0
H1573 H 0.90402 0.21763 0.50556 0.0
C1574 C 0.94312 0.27841 0.5334 0.0
C1575 C 0.93585 0.24847 0.54212 0.0
C1576 C 0.96054 0.27636 0.52286 0.0
C1577 C 0.97007 0.24365 0.52064 0.0
C1578 C 0.96332 0.2139 0.52938 0.0
H1579 H 0.04013 0.24092 0.44848 0.0
H1580 H 0.00669 0.21015 0.46713 0.0
C1581 C 0.94652 0.21638 0.54006 0.0
C1582 C 0.98859 0.24194 0.50934 0.0
H1583 H 0.97616 0.24855 0.48045 0.0
C1584 C 0.02824 0.24311 0.50911 0.0
C1585 C 0.96865 0.2417 0.49881 0.0
C1586 C 0.92466 0.23736 0.49834 0.0
C1587 C 0.04962 0.24665 0.49869 0.0
C1588 C 0.03126 0.24994 0.48824 0.0
C1589 C 0.99046 0.24621 0.48843 0.0
C1590 C 0.05569 0.26257 0.47724 0.0
C1591 C 0.09202 0.24756 0.49903 0.0
C1592 C 0.095 0.30136 0.47672 0.0
C1593 C 0.11412 0.31857 0.46615 0.0
C1594 C 0.09425 0.2976 0.45584 0.0
C1595 C 0.05658 0.25722 0.45632 0.0
C1596 C 0.03725 0.23993 0.46696 0.0
H1597 H 0.09317 0.22844 0.50638 0.0
H1598 H 0.09794 0.23484 0.49096 0.0
H1599 H 0.11841 0.28121 0.50026 0.0
H1600 H 0.10937 0.32014 0.48442 0.0
H1601 H 0.14287 0.35004 0.466 0.0
H1602 H 0.76342 0.80743 0.45259 0.0
H1603 H 0.7952 0.80341 0.47093 0.0
H1604 H 0.6863 0.79418 0.4891 0.0
H1605 H 0.65402 0.79699 0.47088 0.0
H1606 H 0.81733 0.84834 0.49241 0.0
H1607 H 0.68222 0.68124 0.49702 0.0
H1608 H 0.6933 0.71077 0.48373 0.0
H1609 H 0.66429 0.71926 0.49507 0.0
C1610 C 0.74691 0.80582 0.46053 0.0
C1611 C 0.70609 0.8023 0.4603 0.0
C1612 C 0.76498 0.80325 0.47099 0.0
C1613 C 0.74261 0.79743 0.48136 0.0
C1614 C 0.70366 0.79763 0.48119 0.0
H1615 H 0.75933 0.75763 0.55308 0.0
H1616 H 0.75577 0.78668 0.53431 0.0
C1617 C 0.68539 0.79961 0.47077 0.0
C1618 C 0.75777 0.78785 0.49228 0.0
H1619 H 0.7254 0.71297 0.5137 0.0
C1620 C 0.79746 0.81861 0.49702 0.0
C1621 C 0.73219 0.74867 0.49821 0.0
C1622 C 0.69086 0.71289 0.4932 0.0
C1623 C 0.81109 0.81195 0.50781 0.0
C1624 C 0.78434 0.77383 0.51395 0.0
C1625 C 0.74553 0.74251 0.50902 0.0
C1626 C 0.79518 0.76561 0.52562 0.0
C1627 C 0.85344 0.84581 0.51275 0.0
C1628 C 0.81954 0.74526 0.52702 0.0
C1629 C 0.82138 0.7285 0.53774 0.0
C1630 C 0.79947 0.73248 0.54723 0.0
C1631 C 0.77771 0.75553 0.546 0.0
C1632 C 0.77535 0.77176 0.53526 0.0
H1633 H 0.87057 0.87397 0.50696 0.0
H1634 H 0.84796 0.85688 0.52117 0.0
H1635 H 0.87429 0.83171 0.51433 0.0
H1636 H 0.8346 0.73974 0.51965 0.0
H1637 H 0.83738 0.70983 0.53844 0.0
H1638 H 0.25426 0.01295 0.45012 0.0
H1639 H 0.25282 0.0461 0.4686 0.0
H1640 H 0.2139 0.92616 0.48591 0.0
H1641 H 0.21616 0.8935 0.46766 0.0
H1642 H 0.174 0.98674 0.49326 0.0
H1643 H 0.35162 0.0539 0.49306 0.0
H1644 H 0.32486 0.05631 0.4802 0.0
H1645 H 0.31617 0.00546 0.48522 0.0
C1646 C 0.24384 0.99337 0.45781 0.0
C1647 C 0.23509 0.95063 0.45748 0.0
C1648 C 0.24321 0.01232 0.46836 0.0
C1649 C 0.23318 0.98853 0.47863 0.0
C1650 C 0.22137 0.94501 0.4781 0.0
H1651 H 0.31067 0.02513 0.54758 0.0
H1652 H 0.28358 0.00178 0.5282 0.0
C1653 C 0.22266 0.92639 0.46767 0.0
C1654 C 0.24104 0.00969 0.49009 0.0
H1655 H 0.32065 0.06039 0.51008 0.0
C1656 C 0.20611 0.00368 0.4969 0.0
C1657 C 0.28287 0.03113 0.49486 0.0
C1658 C 0.32125 0.03722 0.48804 0.0
C1659 C 0.21195 0.01758 0.50847 0.0
C1660 C 0.2537 0.03785 0.51332 0.0
C1661 C 0.28865 0.04505 0.50636 0.0
C1662 C 0.26195 0.04759 0.52586 0.0
C1663 C 0.17333 0.00862 0.5156 0.0
C1664 C 0.25711 0.08001 0.53129 0.0
C1665 C 0.2719 0.09291 0.54265 0.0
C1666 C 0.29208 0.07381 0.5486 0.0
C1667 C 0.29467 0.04 0.5433 0.0
C1668 C 0.27952 0.02685 0.53215 0.0
H1669 H 0.14262 0.98811 0.51097 0.0
H1670 H 0.17317 0.99251 0.52376 0.0
H1671 H 0.17511 0.03948 0.51785 0.0
H1672 H 0.24418 0.09692 0.52657 0.0
H1673 H 0.27041 0.11969 0.54642 0.0
H1674 H 0.45993 0.43964 0.08275 0.0
H1675 H 0.4165 0.36267 0.07836 0.0
H1676 H 0.53014 0.36277 0.06646 0.0
H1677 H 0.57355 0.43996 0.0708 0.0
H1678 H 0.41609 0.29953 0.05645 0.0
H1679 H 0.47808 0.29616 0.10019 0.0
H1680 H 0.47185 0.34056 0.09549 0.0
H1681 H 0.51465 0.33409 0.08983 0.0
C1682 C 0.47507 0.42363 0.07861 0.0
C1683 C 0.51971 0.4455 0.0769 0.0
C1684 C 0.45033 0.37973 0.07613 0.0
C1685 C 0.47013 0.35721 0.07203 0.0
C1686 C 0.51426 0.37982 0.06946 0.0
H1687 H 0.41205 0.099 0.06496 0.0
H1688 H 0.4158 0.16645 0.05972 0.0
C1689 C 0.53898 0.42378 0.07192 0.0
C1690 C 0.44724 0.30979 0.0729 0.0
H1691 H 0.43629 0.23035 0.0909 0.0
C1692 C 0.42012 0.28414 0.06398 0.0
C1693 C 0.45227 0.2901 0.0828 0.0
C1694 C 0.4806 0.3164 0.09269 0.0
C1695 C 0.39842 0.23887 0.06467 0.0
C1696 C 0.4044 0.21914 0.07449 0.0
C1697 C 0.43104 0.24521 0.08344 0.0
C1698 C 0.38701 0.17196 0.07552 0.0
C1699 C 0.36935 0.21276 0.05493 0.0
C1700 C 0.36709 0.15093 0.08583 0.0
C1701 C 0.36571 0.11267 0.08891 0.0
C1702 C 0.38328 0.09441 0.08161 0.0
C1703 C 0.39734 0.11198 0.07061 0.0
C1704 C 0.39962 0.15078 0.06762 0.0
H1705 H 0.3564 0.23089 0.05031 0.0
H1706 H 0.38811 0.20547 0.04866 0.0
H1707 H 0.34205 0.18191 0.05803 0.0
H1708 H 0.35704 0.16657 0.09206 0.0
H1709 H 0.35554 0.10019 0.09752 0.0
H1710 H 0.56714 0.10678 0.06314 0.0
H1711 H 0.64428 0.141 0.05821 0.0
H1712 H 0.67025 0.10522 0.09133 0.0
H1713 H 0.59438 0.07228 0.09635 0.0
H1714 H 0.70949 0.20979 0.07634 0.0
H1715 H 0.73916 0.0764 0.06507 0.0
H1716 H 0.68874 0.07427 0.06202 0.0
H1717 H 0.70148 0.06724 0.07646 0.0
C1718 C 0.58932 0.10554 0.06922 0.0
C1719 C 0.57505 0.08735 0.08015 0.0
C1720 C 0.6332 0.12498 0.06641 0.0
C1721 C 0.66276 0.12518 0.07438 0.0
C1722 C 0.64792 0.10492 0.08502 0.0
H1723 H 0.91483 0.26949 0.09773 0.0
H1724 H 0.84636 0.2069 0.09219 0.0
C1725 C 0.60461 0.08642 0.08789 0.0
C1726 C 0.70977 0.15141 0.07253 0.0
H1727 H 0.80068 0.14414 0.0697 0.0
C1728 C 0.72945 0.19571 0.07457 0.0
C1729 C 0.73555 0.13257 0.07055 0.0
C1730 C 0.71538 0.085 0.06833 0.0
C1731 C 0.77435 0.22153 0.0751 0.0
C1732 C 0.80032 0.2027 0.0733 0.0
C1733 C 0.7807 0.15851 0.07095 0.0
C1734 C 0.84759 0.22883 0.07483 0.0
C1735 C 0.79382 0.2685 0.0782 0.0
C1736 C 0.8727 0.25981 0.06658 0.0
C1737 C 0.91232 0.29529 0.0697 0.0
C1738 C 0.92685 0.30032 0.08112 0.0
C1739 C 0.90477 0.26601 0.08882 0.0
C1740 C 0.86532 0.2304 0.08569 0.0
H1741 H 0.76902 0.27727 0.08028 0.0
H1742 H 0.81555 0.2764 0.08573 0.0
H1743 H 0.81338 0.28868 0.0709 0.0
H1744 H 0.85949 0.25924 0.05817 0.0
H1745 H 0.92828 0.32157 0.06367 0.0
H1746 H 0.74516 0.64903 0.10134 0.0
H1747 H 0.80971 0.64653 0.09605 0.0
H1748 H 0.76328 0.61422 0.06125 0.0
H1749 H 0.6991 0.6176 0.06649 0.0
H1750 H 0.76413 0.54724 0.08014 0.0
H1751 H 0.9188 0.69527 0.06975 0.0
H1752 H 0.88386 0.69789 0.08048 0.0
H1753 H 0.86734 0.68907 0.06573 0.0
C1754 C 0.75037 0.64479 0.09237 0.0
C1755 C 0.71742 0.63391 0.0843 0.0
C1756 C 0.78712 0.64295 0.08937 0.0
C1757 C 0.79115 0.63001 0.07827 0.0
C1758 C 0.76102 0.62479 0.06982 0.0
H1759 H 0.92976 0.48768 0.06503 0.0
H1760 H 0.89437 0.52984 0.06068 0.0
C1761 C 0.72452 0.62716 0.0728 0.0
C1762 C 0.81811 0.60998 0.07661 0.0
H1763 H 0.92131 0.63123 0.07302 0.0
C1764 C 0.79833 0.56543 0.07831 0.0
C1765 C 0.86267 0.63396 0.07437 0.0
C1766 C 0.88476 0.68175 0.07243 0.0
C1767 C 0.82223 0.54439 0.07828 0.0
C1768 C 0.86706 0.56844 0.07639 0.0
C1769 C 0.88679 0.61284 0.07429 0.0
C1770 C 0.89394 0.54856 0.07835 0.0
C1771 C 0.79991 0.49692 0.08093 0.0
C1772 C 0.90576 0.54585 0.08964 0.0
C1773 C 0.92521 0.5217 0.09213 0.0
C1774 C 0.93349 0.49971 0.08338 0.0
C1775 C 0.92365 0.50415 0.07194 0.0
C1776 C 0.90364 0.52827 0.06945 0.0
H1777 H 0.76432 0.48181 0.08073 0.0
H1778 H 0.80977 0.48007 0.07469 0.0
H1779 H 0.80957 0.49226 0.08964 0.0
H1780 H 0.89833 0.56108 0.09662 0.0
H1781 H 0.93289 0.51951 0.10102 0.0
H1782 H 0.46093 0.54094 0.94036 0.0
H1783 H 0.38577 0.49836 0.94685 0.0
H1784 H 0.34535 0.45789 0.91191 0.0
H1785 H 0.41946 0.49984 0.90544 0.0
H1786 H 0.32023 0.5134 0.93848 0.0
H1787 H 0.27734 0.34527 0.92995 0.0
H1788 H 0.33238 0.38831 0.93158 0.0
H1789 H 0.3048 0.38025 0.91808 0.0
C1790 C 0.43603 0.52232 0.93413 0.0
C1791 C 0.44608 0.52399 0.92239 0.0
C1792 C 0.39318 0.49799 0.93784 0.0
C1793 C 0.36004 0.4743 0.92989 0.0
C1794 C 0.3704 0.47502 0.91824 0.0
H1795 H 0.11706 0.38813 0.9083 0.0
H1796 H 0.18251 0.3896 0.91441 0.0
C1797 C 0.41283 0.49953 0.91454 0.0
C1798 C 0.31405 0.45323 0.93326 0.0
H1799 H 0.21844 0.36006 0.92951 0.0
C1800 C 0.2979 0.47957 0.9369 0.0
C1801 C 0.28513 0.40915 0.9311 0.0
C1802 C 0.30084 0.37901 0.92756 0.0
C1803 C 0.25345 0.46411 0.93738 0.0
C1804 C 0.22424 0.4205 0.93452 0.0
C1805 C 0.24061 0.39333 0.93177 0.0
C1806 C 0.17807 0.40535 0.93215 0.0
C1807 C 0.23851 0.49582 0.93986 0.0
C1808 C 0.15146 0.40965 0.94029 0.0
C1809 C 0.11372 0.40886 0.93675 0.0
C1810 C 0.10208 0.40307 0.92508 0.0
C1811 C 0.12528 0.3924 0.91736 0.0
C1812 C 0.16294 0.39352 0.92085 0.0
H1813 H 0.26556 0.52958 0.94002 0.0
H1814 H 0.21497 0.49332 0.93328 0.0
H1815 H 0.2226 0.48868 0.94839 0.0
H1816 H 0.16184 0.41754 0.94914 0.0
H1817 H 0.09663 0.41764 0.94285 0.0
H1818 H 0.53912 0.95187 0.90556 0.0
H1819 H 0.58112 0.91824 0.91088 0.0
H1820 H 0.52593 0.89327 0.94488 0.0
H1821 H 0.48371 0.92751 0.93958 0.0
H1822 H 0.64064 0.92971 0.93017 0.0
H1823 H 0.48669 0.773 0.92895 0.0
H1824 H 0.49199 0.82114 0.92258 0.0
H1825 H 0.48865 0.81486 0.9379 0.0
C1826 C 0.53638 0.93979 0.91424 0.0
C1827 C 0.50772 0.94164 0.92212 0.0
C1828 C 0.56067 0.92091 0.91729 0.0
C1829 C 0.55639 0.90302 0.92823 0.0
C1830 C 0.52957 0.90688 0.93637 0.0
H1831 H 0.61383 0.69881 0.93897 0.0
H1832 H 0.61073 0.76235 0.94514 0.0
C1833 C 0.50556 0.92642 0.93336 0.0
C1834 C 0.57592 0.87589 0.93043 0.0
H1835 H 0.55012 0.77074 0.93096 0.0
C1836 C 0.62095 0.89497 0.93059 0.0
C1837 C 0.5501 0.83059 0.9308 0.0
C1838 C 0.50167 0.80839 0.92998 0.0
C1839 C 0.64077 0.8697 0.93083 0.0
C1840 C 0.61488 0.82441 0.93083 0.0
C1841 C 0.56993 0.80552 0.93114 0.0
C1842 C 0.63257 0.79545 0.92888 0.0
C1843 C 0.68913 0.8914 0.93079 0.0
C1844 C 0.64855 0.79423 0.91795 0.0
C1845 C 0.65019 0.75786 0.91442 0.0
C1846 C 0.63633 0.72251 0.92181 0.0
C1847 C 0.62578 0.72614 0.93322 0.0
C1848 C 0.62357 0.76228 0.93671 0.0
H1849 H 0.70424 0.92538 0.9337 0.0
H1850 H 0.70025 0.87395 0.93641 0.0
H1851 H 0.70033 0.89112 0.92191 0.0
H1852 H 0.65496 0.81904 0.9117 0.0
H1853 H 0.65734 0.7553 0.9055 0.0
H1854 H 0.32827 0.92099 0.94074 0.0
H1855 H 0.25861 0.85734 0.94459 0.0
H1856 H 0.20901 0.878 0.91299 0.0
H1857 H 0.27891 0.94165 0.9091 0.0
H1858 H 0.15579 0.81644 0.94123 0.0
H1859 H 0.25201 0.78422 0.90928 0.0
H1860 H 0.27588 0.83133 0.91832 0.0
H1861 H 0.24344 0.82837 0.90623 0.0
C1862 C 0.30155 0.9137 0.93505 0.0
C1863 C 0.30868 0.93584 0.92462 0.0
C1864 C 0.26173 0.87727 0.93726 0.0
C1865 C 0.229 0.86274 0.92899 0.0
C1866 C 0.23393 0.88895 0.91949 0.0
H1867 H 0.07191 0.60854 0.90376 0.0
H1868 H 0.10116 0.68466 0.90791 0.0
C1869 C 0.27384 0.92541 0.91728 0.0
C1870 C 0.19826 0.81611 0.92823 0.0
H1871 H 0.18554 0.72659 0.91456 0.0
C1872 C 0.16186 0.79665 0.93536 0.0
C1873 C 0.20711 0.79046 0.92075 0.0
C1874 C 0.24682 0.80939 0.91325 0.0
C1875 C 0.13324 0.75189 0.9349 0.0
C1876 C 0.14189 0.72658 0.92724 0.0
C1877 C 0.17873 0.74621 0.92032 0.0
C1878 C 0.11364 0.67959 0.92588 0.0
C1879 C 0.09386 0.73207 0.94244 0.0
C1880 C 0.10922 0.65113 0.93475 0.0
C1881 C 0.09177 0.6072 0.93241 0.0
C1882 C 0.07979 0.59183 0.92112 0.0
C1883 C 0.08171 0.61989 0.91248 0.0
C1884 C 0.09803 0.66326 0.91487 0.0
H1885 H 0.08707 0.75669 0.94604 0.0
H1886 H 0.06529 0.708 0.93755 0.0
H1887 H 0.09902 0.71517 0.9497 0.0
H1888 H 0.12179 0.6632 0.94326 0.0
H1889 H 0.09041 0.58594 0.93919 0.0
H1890 H 0.2062 0.75026 0.43962 0.0
H1891 H 0.16043 0.6733 0.43622 0.0
H1892 H 0.14131 0.69811 0.40107 0.0
H1893 H 0.18618 0.77569 0.40452 0.0
H1894 H 0.06541 0.63516 0.41175 0.0
H1895 H 0.19951 0.60273 0.4181 0.0
H1896 H 0.19257 0.63013 0.43007 0.0
H1897 H 0.20849 0.65648 0.41633 0.0
C1898 C 0.19251 0.73938 0.43114 0.0
C1899 C 0.20017 0.76887 0.42228 0.0
C1900 C 0.16633 0.69543 0.42922 0.0
C1901 C 0.14813 0.68011 0.41835 0.0
C1902 C 0.1552 0.70942 0.40951 0.0
H1903 H 0.06086 0.42176 0.39999 0.0
H1904 H 0.06334 0.48988 0.39646 0.0
C1905 C 0.18097 0.75358 0.41147 0.0
C1906 C 0.12273 0.63334 0.41622 0.0
H1907 H 0.12868 0.54197 0.41816 0.0
C1908 C 0.07923 0.6147 0.41302 0.0
C1909 C 0.14111 0.60695 0.41776 0.0
C1910 C 0.18809 0.62513 0.42064 0.0
C1911 C 0.05316 0.56986 0.41181 0.0
C1912 C 0.07128 0.54368 0.41383 0.0
C1913 C 0.115 0.56246 0.41664 0.0
C1914 C 0.04612 0.49636 0.41385 0.0
C1915 C 0.00649 0.55046 0.40859 0.0
C1916 C 0.03167 0.47575 0.42449 0.0
C1917 C 0.03068 0.43701 0.42654 0.0
C1918 C 0.04368 0.41867 0.41792 0.0
C1919 C 0.05016 0.43514 0.40671 0.0
C1920 C 0.05168 0.47419 0.40469 0.0
H1921 H 0.99773 0.57538 0.40667 0.0
H1922 H 0.99933 0.52934 0.40096 0.0
H1923 H 0.9861 0.53007 0.41576 0.0
H1924 H 0.02766 0.49264 0.43167 0.0
H1925 H 0.0261 0.42503 0.43527 0.0
H1926 H 0.59909 0.65448 0.40246 0.0
H1927 H 0.5318 0.59232 0.39584 0.0
H1928 H 0.50266 0.545 0.43058 0.0
H1929 H 0.56934 0.60741 0.43723 0.0
H1930 H 0.47134 0.48438 0.40351 0.0
H1931 H 0.42797 0.60669 0.41714 0.0
H1932 H 0.48111 0.62209 0.41194 0.0
H1933 H 0.46467 0.59886 0.42595 0.0
C1934 C 0.57986 0.62925 0.40854 0.0
C1935 C 0.58949 0.6356 0.42035 0.0
C1936 C 0.54112 0.59392 0.40476 0.0
C1937 C 0.51209 0.56435 0.41274 0.0
C1938 C 0.52472 0.56738 0.42428 0.0
H1939 H 0.25544 0.38358 0.42525 0.0
H1940 H 0.33228 0.41958 0.4211 0.0
C1941 C 0.56309 0.60287 0.42807 0.0
C1942 C 0.46581 0.53775 0.40979 0.0
H1943 H 0.37119 0.53782 0.41244 0.0
C1944 C 0.44944 0.49616 0.40529 0.0
C1945 C 0.43738 0.55334 0.41207 0.0
C1946 C 0.4534 0.59773 0.417 0.0
C1947 C 0.4049 0.46917 0.40346 0.0
C1948 C 0.3764 0.48429 0.40618 0.0
C1949 C 0.39313 0.52649 0.41021 0.0
C1950 C 0.32903 0.45545 0.40661 0.0
C1951 C 0.38831 0.42434 0.39887 0.0
C1952 C 0.30131 0.46283 0.39965 0.0
C1953 C 0.2569 0.44165 0.40192 0.0
C1954 C 0.24015 0.41375 0.41135 0.0
C1955 C 0.26762 0.40472 0.41786 0.0
C1956 C 0.31153 0.42515 0.41548 0.0
H1957 H 0.41434 0.42057 0.39489 0.0
H1958 H 0.37415 0.40097 0.40603 0.0
H1959 H 0.36262 0.41626 0.39239 0.0
H1960 H 0.31433 0.48657 0.39285 0.0
H1961 H 0.2364 0.4495 0.3969 0.0
H1962 H 0.65354 0.88432 0.40728 0.0
H1963 H 0.61937 0.92651 0.40199 0.0
H1964 H 0.4951 0.81102 0.40253 0.0
H1965 H 0.52896 0.76926 0.40809 0.0
H1966 H 0.5424 0.9145 0.38451 0.0
H1967 H 0.51178 0.89449 0.43163 0.0
H1968 H 0.5538 0.88857 0.42492 0.0
H1969 H 0.4987 0.84657 0.42364 0.0
C1970 C 0.61919 0.86782 0.40571 0.0
C1971 C 0.59373 0.82368 0.40803 0.0
C1972 C 0.59971 0.89189 0.40271 0.0
C1973 C 0.55472 0.87184 0.40191 0.0
C1974 C 0.52986 0.82701 0.40305 0.0
H1975 H 0.35144 0.92331 0.39692 0.0
H1976 H 0.41248 0.91681 0.39068 0.0
C1977 C 0.54918 0.80318 0.40621 0.0
C1978 C 0.53308 0.89768 0.40245 0.0
H1979 H 0.47665 0.92366 0.42112 0.0
C1980 C 0.52843 0.91714 0.39251 0.0
C1981 C 0.51541 0.90145 0.41294 0.0
C1982 C 0.5203 0.88198 0.42393 0.0
C1983 C 0.50503 0.93905 0.39276 0.0
C1984 C 0.48564 0.94107 0.40318 0.0
C1985 C 0.49177 0.92271 0.41314 0.0
C1986 C 0.45546 0.95805 0.40403 0.0
C1987 C 0.50115 0.95957 0.38188 0.0
C1988 C 0.4597 0.98557 0.41318 0.0
C1989 C 0.42437 0.9888 0.41685 0.0
C1990 C 0.38448 0.96529 0.4113 0.0
C1991 C 0.38203 0.94283 0.40116 0.0
C1992 C 0.41713 0.93887 0.39761 0.0
H1993 H 0.52914 0.96882 0.37613 0.0
H1994 H 0.47179 0.93606 0.37717 0.0
H1995 H 0.49864 0.98853 0.38376 0.0
H1996 H 0.48892 1.00082 0.41826 0.0
H1997 H 0.42693 0.00577 0.42479 0.0
H1998 H 0.76614 0.73175 0.26678 0.0
H1999 H 0.83323 0.73304 0.27154 0.0
H2000 H 0.85191 0.71642 0.2357 0.0
H2001 H 0.78561 0.71618 0.23092 0.0
H2002 H 0.89392 0.68523 0.25453 0.0
H2003 H 0.92551 0.85398 0.25577 0.0
H2004 H 0.88349 0.81453 0.26475 0.0
H2005 H 0.87725 0.81105 0.24942 0.0
C2006 C 0.7832 0.72559 0.26004 0.0
C2007 C 0.77116 0.72405 0.24849 0.0
C2008 C 0.82153 0.72642 0.26277 0.0
C2009 C 0.84761 0.72533 0.25394 0.0
C2010 C 0.83208 0.71713 0.24262 0.0
H2011 H 0.10081 0.87741 0.23201 0.0
H2012 H 0.02384 0.83427 0.23581 0.0
C2013 C 0.79423 0.717 0.23989 0.0
C2014 C 0.89446 0.74524 0.25567 0.0
H2015 H 0.98483 0.84432 0.25547 0.0
C2016 C 0.914 0.71993 0.255 0.0
C2017 C 0.92029 0.79059 0.25612 0.0
C2018 C 0.90086 0.81937 0.25651 0.0
C2019 C 0.95903 0.7391 0.2543 0.0
C2020 C 0.98456 0.78449 0.25423 0.0
C2021 C 0.96499 0.80953 0.25548 0.0
C2022 C 0.03112 0.80724 0.2517 0.0
C2023 C 0.97885 0.71096 0.25302 0.0
C2024 C 0.06064 0.80613 0.25936 0.0
C2025 C 0.10478 0.83077 0.25719 0.0
C2026 C 0.11995 0.85709 0.24738 0.0
C2027 C 0.09018 0.85768 0.23968 0.0
C2028 C 0.04621 0.83294 0.24182 0.0
H2029 H 0.95425 0.67674 0.25151 0.0
H2030 H 0.00218 0.72234 0.2458 0.0
H2031 H 0.99668 0.71286 0.261 0.0
H2032 H 0.04965 0.78715 0.26715 0.0
H2033 H 0.127 0.82998 0.26334 0.0
H2034 H 0.22872 0.99107 0.2721 0.0
H2035 H 0.21511 0.04971 0.27579 0.0
H2036 H 0.34373 0.14087 0.26459 0.0
H2037 H 0.35534 0.08121 0.25958 0.0
H2038 H 0.23417 0.12189 0.2845 0.0
H2039 H 0.28113 0.15161 0.23838 0.0
H2040 H 0.28072 0.10847 0.24624 0.0
H2041 H 0.3249 0.16285 0.24781 0.0
C2042 C 0.25494 0.02378 0.271 0.0
C2043 C 0.29271 0.03169 0.26535 0.0
C2044 C 0.24698 0.05747 0.27301 0.0
C2045 C 0.27749 0.09964 0.26979 0.0
C2046 C 0.31878 0.10832 0.26652 0.0
H2047 H 0.18565 0.28667 0.26569 0.0
H2048 H 0.22425 0.25065 0.27236 0.0
C2049 C 0.32594 0.07433 0.26395 0.0
C2050 C 0.26296 0.13132 0.26771 0.0
H2051 H 0.25115 0.18975 0.24631 0.0
C2052 C 0.23834 0.13714 0.27619 0.0
C2053 C 0.26735 0.1505 0.25674 0.0
C2054 C 0.28955 0.14278 0.24674 0.0
C2055 C 0.21693 0.16007 0.27387 0.0
C2056 C 0.22177 0.17927 0.26296 0.0
C2057 C 0.24779 0.17515 0.25469 0.0
C2058 C 0.19729 0.20051 0.25944 0.0
C2059 C 0.18732 0.16139 0.28286 0.0
C2060 C 0.16987 0.18469 0.24987 0.0
C2061 C 0.14828 0.20539 0.24596 0.0
C2062 C 0.15363 0.24246 0.25154 0.0
C2063 C 0.18087 0.25817 0.26119 0.0
C2064 C 0.20266 0.23743 0.26509 0.0
H2065 H 0.17985 0.13727 0.28975 0.0
H2066 H 0.20292 0.19375 0.28688 0.0
H2067 H 0.15664 0.15536 0.2789 0.0
H2068 H 0.16533 0.1563 0.24536 0.0
H2069 H 0.1275 0.19235 0.23852 0.0
H2070 H 0.76365 0.89002 0.2748 0.0
H2071 H 0.80017 0.96589 0.2811 0.0
H2072 H 0.75981 1.00009 0.24987 0.0
H2073 H 0.72373 0.92543 0.24369 0.0
H2074 H 0.86733 0.02933 0.26895 0.0
H2075 H 0.74165 0.07377 0.27263 0.0
H2076 H 0.72931 0.01846 0.27276 0.0
H2077 H 0.73664 0.04632 0.25934 0.0
C2078 C 0.76142 0.91365 0.26952 0.0
C2079 C 0.74102 0.90197 0.25875 0.0
C2080 C 0.78242 0.95697 0.27308 0.0
C2081 C 0.78239 0.98884 0.26603 0.0
C2082 C 0.75958 0.97632 0.25562 0.0
H2083 H 0.92966 0.23532 0.24136 0.0
H2084 H 0.86998 0.16812 0.24859 0.0
C2085 C 0.73919 0.93353 0.25205 0.0
C2086 C 0.81095 0.03565 0.26844 0.0
H2087 H 0.81322 0.1319 0.26735 0.0
C2088 C 0.85548 0.05176 0.26898 0.0
C2089 C 0.79557 0.06504 0.26836 0.0
C2090 C 0.74811 0.04992 0.26835 0.0
C2091 C 0.88503 0.09619 0.26852 0.0
C2092 C 0.86969 0.12559 0.2678 0.0
C2093 C 0.8251 0.10956 0.26796 0.0
C2094 C 0.89932 0.17194 0.26512 0.0
C2095 C 0.93244 0.11101 0.26789 0.0
C2096 C 0.93407 0.19846 0.27236 0.0
C2097 C 0.96823 0.23741 0.26824 0.0
C2098 C 0.96804 0.25018 0.25683 0.0
C2099 C 0.93062 0.22639 0.2502 0.0
C2100 C 0.89657 0.1877 0.25431 0.0
H2101 H 0.93845 0.08383 0.26662 0.0
H2102 H 0.94787 0.13415 0.26072 0.0
H2103 H 0.94828 0.12755 0.27602 0.0
H2104 H 0.9365 0.18741 0.28083 0.0
H2105 H 0.99669 0.25468 0.27352 0.0
H2106 H 0.75435 0.78253 0.73608 0.0
H2107 H 0.76353 0.85317 0.73192 0.0
H2108 H 0.66904 0.83271 0.75775 0.0
H2109 H 0.66259 0.76333 0.76256 0.0
H2110 H 0.72766 0.90127 0.7271 0.0
H2111 H 0.77733 0.92179 0.77299 0.0
H2112 H 0.76235 0.87313 0.76514 0.0
H2113 H 0.72159 0.88315 0.77087 0.0
C2114 C 0.7339 0.79219 0.74046 0.0
C2115 C 0.70793 0.76777 0.74968 0.0
C2116 C 0.73938 0.83279 0.73812 0.0
C2117 C 0.7183 0.84902 0.74486 0.0
C2118 C 0.68678 0.82141 0.75273 0.0
H2119 H 0.7958 0.12159 0.75402 0.0
H2120 H 0.7498 0.04445 0.75 0.0
C2121 C 0.68245 0.78142 0.75535 0.0
C2122 C 0.73554 0.89628 0.74531 0.0
H2123 H 0.78534 0.98254 0.76348 0.0
C2124 C 0.73965 0.91895 0.73508 0.0
C2125 C 0.75265 0.91969 0.75567 0.0
C2126 C 0.75376 0.89834 0.76676 0.0
C2127 C 0.76035 0.96421 0.735 0.0
C2128 C 0.77656 0.98703 0.7454 0.0
C2129 C 0.77189 0.96456 0.75559 0.0
C2130 C 0.80279 0.03441 0.74586 0.0
C2131 C 0.76627 0.98768 0.72383 0.0
C2132 C 0.84755 0.05401 0.74486 0.0
C2133 C 0.87371 0.09756 0.74744 0.0
C2134 C 0.85557 0.12244 0.75099 0.0
C2135 C 0.81059 0.10322 0.75141 0.0
C2136 C 0.78433 0.05929 0.74902 0.0
H2137 H 0.74888 0.96538 0.7166 0.0
H2138 H 0.75478 0.01103 0.72473 0.0
H2139 H 0.80106 0.00627 0.7217 0.0
H2140 H 0.86232 0.03517 0.74253 0.0
H2141 H 0.90828 0.11164 0.74684 0.0
H2142 H 0.18543 0.98099 0.76189 0.0
H2143 H 0.12113 0.92256 0.75448 0.0
H2144 H 0.19379 0.87754 0.73543 0.0
H2145 H 0.26191 0.93954 0.74273 0.0
H2146 H 0.10253 0.90129 0.72842 0.0
H2147 H 0.09363 0.77796 0.75904 0.0
H2148 H 0.12535 0.83423 0.76266 0.0
H2149 H 0.14247 0.81282 0.75122 0.0
C2150 C 0.18902 0.95913 0.75619 0.0
C2151 C 0.22972 0.9653 0.75303 0.0
C2152 C 0.1515 0.92553 0.75188 0.0
C2153 C 0.15263 0.89597 0.74438 0.0
C2154 C 0.19261 0.90058 0.7412 0.0
H2155 H 0.87585 0.70115 0.73774 0.0
H2156 H 0.95207 0.73301 0.73211 0.0
C2157 C 0.2313 0.9356 0.74543 0.0
C2158 C 0.11047 0.86053 0.74053 0.0
H2159 H 0.02765 0.76921 0.75208 0.0
C2160 C 0.0864 0.87112 0.73309 0.0
C2161 C 0.08932 0.82217 0.74699 0.0
C2162 C 0.11379 0.81075 0.75545 0.0
C2163 C 0.04135 0.84619 0.73269 0.0
C2164 C 0.02002 0.80966 0.73982 0.0
C2165 C 0.04423 0.7969 0.74648 0.0
C2166 C 0.97365 0.79053 0.74235 0.0
C2167 C 0.01649 0.86114 0.72548 0.0
C2168 C 0.9609 0.81254 0.74985 0.0
C2169 C 0.91791 0.79483 0.75296 0.0
C2170 C 0.88653 0.75459 0.74863 0.0
C2171 C 0.89915 0.73268 0.74095 0.0
C2172 C 0.94261 0.75055 0.73785 0.0
H2173 H 0.03705 0.88456 0.71881 0.0
H2174 H 0.98876 0.83333 0.72124 0.0
H2175 H 0.00359 0.877 0.73111 0.0
H2176 H 0.98447 0.84326 0.75349 0.0
H2177 H 0.90938 0.81248 0.75894 0.0
H2178 H 0.24021 0.11477 0.73145 0.0
H2179 H 0.20682 0.15452 0.72341 0.0
H2180 H 0.25389 0.24166 0.75233 0.0
H2181 H 0.28762 0.20315 0.76009 0.0
H2182 H 0.14376 0.15812 0.73611 0.0
H2183 H 0.27281 0.3243 0.72673 0.0
H2184 H 0.28281 0.27988 0.72778 0.0
H2185 H 0.27876 0.30597 0.74056 0.0
C2186 C 0.24484 0.14356 0.73574 0.0
C2187 C 0.26655 0.15635 0.74629 0.0
C2188 C 0.22571 0.16606 0.73121 0.0
C2189 C 0.22862 0.20155 0.73717 0.0
C2190 C 0.25239 0.21538 0.74738 0.0
H2191 H 0.0944 0.32152 0.75612 0.0
H2192 H 0.15114 0.30796 0.74987 0.0
C2193 C 0.2713 0.19309 0.75187 0.0
C2194 C 0.20109 0.21967 0.73405 0.0
H2195 H 0.20262 0.31494 0.73126 0.0
C2196 C 0.15647 0.19219 0.73463 0.0
C2197 C 0.21799 0.26431 0.73249 0.0
C2198 C 0.26576 0.29524 0.73176 0.0
C2199 C 0.12825 0.20839 0.73444 0.0
C2200 C 0.14511 0.25322 0.73312 0.0
C2201 C 0.18972 0.28055 0.73203 0.0
C2202 C 0.1173 0.27233 0.73465 0.0
C2203 C 0.08102 0.17774 0.73664 0.0
C2204 C 0.08096 0.25975 0.72767 0.0
C2205 C 0.04807 0.26716 0.7313 0.0
C2206 C 0.05156 0.28743 0.7419 0.0
C2207 C 0.09059 0.30517 0.748 0.0
C2208 C 0.12317 0.29756 0.74442 0.0
H2209 H 0.07477 0.1458 0.73966 0.0
H2210 H 0.06843 0.19111 0.74319 0.0
H2211 H 0.06268 0.1728 0.72856 0.0
H2212 H 0.07637 0.24102 0.71995 0.0
H2213 H 0.01846 0.25329 0.7264 0.0
H2214 H 0.43646 0.08132 0.60563 0.0
H2215 H 0.50414 0.08274 0.60952 0.0
H2216 H 0.50078 0.03355 0.57549 0.0
H2217 H 0.43341 0.03265 0.57156 0.0
H2218 H 0.55031 0.02536 0.60412 0.0
H2219 H 0.59244 0.17189 0.57834 0.0
H2220 H 0.54224 0.14295 0.58602 0.0
H2221 H 0.54997 0.12151 0.57287 0.0
C2222 C 0.44866 0.06802 0.59928 0.0
C2223 C 0.42957 0.0564 0.58834 0.0
C2224 C 0.48751 0.06909 0.60149 0.0
C2225 C 0.5076 0.05854 0.59276 0.0
C2226 C 0.48561 0.04152 0.58237 0.0
H2227 H 0.76425 0.15092 0.57133 0.0
H2228 H 0.68727 0.10643 0.57504 0.0
C2229 C 0.44692 0.04069 0.58015 0.0
C2230 C 0.55473 0.0759 0.59326 0.0
H2231 H 0.64862 0.1593 0.58305 0.0
C2232 C 0.57193 0.05469 0.59957 0.0
C2233 C 0.58282 0.1145 0.58743 0.0
C2234 C 0.56621 0.13938 0.58083 0.0
C2235 C 0.61673 0.07065 0.59985 0.0
C2236 C 0.64447 0.10862 0.59375 0.0
C2237 C 0.62717 0.13012 0.5877 0.0
C2238 C 0.69149 0.12602 0.5928 0.0
C2239 C 0.63428 0.04657 0.60635 0.0
C2240 C 0.71968 0.15054 0.60172 0.0
C2241 C 0.76406 0.17599 0.59961 0.0
C2242 C 0.78023 0.17737 0.58854 0.0
C2243 C 0.75236 0.15035 0.57993 0.0
C2244 C 0.70845 0.12486 0.58205 0.0
H2245 H 0.60834 0.01609 0.61007 0.0
H2246 H 0.65427 0.03918 0.60054 0.0
H2247 H 0.65542 0.06714 0.61341 0.0
H2248 H 0.70709 0.15229 0.61004 0.0
H2249 H 0.78505 0.19687 0.60633 0.0
H2250 H 0.99179 0.4239 0.57653 0.0
H2251 H 0.98592 0.48472 0.58343 0.0
H2252 H 0.92846 0.41647 0.61486 0.0
H2253 H 0.93441 0.35535 0.60789 0.0
H2254 H 0.87303 0.42754 0.60141 0.0
H2255 H 0.02257 0.58444 0.60559 0.0
H2256 H 0.02265 0.55649 0.5928 0.0
H2257 H 0.02185 0.53389 0.60668 0.0
C2258 C 0.98078 0.42315 0.58525 0.0
C2259 C 0.96368 0.3851 0.5917 0.0
C2260 C 0.97725 0.45799 0.5892 0.0
C2261 C 0.95647 0.4552 0.59965 0.0
C2262 C 0.94477 0.41944 0.60679 0.0
H2263 H 0.82575 0.60919 0.60664 0.0
H2264 H 0.86622 0.57428 0.61303 0.0
C2265 C 0.94862 0.38465 0.60286 0.0
C2266 C 0.93701 0.48281 0.60142 0.0
H2267 H 0.95864 0.58669 0.59942 0.0
C2268 C 0.89187 0.46239 0.60141 0.0
C2269 C 0.9614 0.52829 0.60123 0.0
C2270 C 0.00983 0.55204 0.60169 0.0
C2271 C 0.87062 0.48596 0.6004 0.0
C2272 C 0.89502 0.53115 0.59947 0.0
C2273 C 0.94004 0.55197 0.6002 0.0
C2274 C 0.87423 0.55585 0.5959 0.0
C2275 C 0.82221 0.46228 0.59946 0.0
C2276 C 0.86567 0.55702 0.58421 0.0
C2277 C 0.84253 0.57641 0.58058 0.0
C2278 C 0.82741 0.59526 0.58856 0.0
C2279 C 0.8369 0.59498 0.60029 0.0
C2280 C 0.8601 0.57524 0.60394 0.0
H2281 H 0.80761 0.42803 0.60205 0.0
H2282 H 0.80864 0.478 0.6049 0.0
H2283 H 0.81295 0.46343 0.59042 0.0
H2284 H 0.87617 0.54203 0.5779 0.0
H2285 H 0.83626 0.57627 0.57147 0.0
H2286 H 0.39736 0.26301 0.57448 0.0
H2287 H 0.43383 0.33884 0.57966 0.0
H2288 H 0.46734 0.30924 0.61266 0.0
H2289 H 0.43044 0.23231 0.60744 0.0
H2290 H 0.42846 0.38838 0.59785 0.0
H2291 H 0.58425 0.38986 0.59694 0.0
H2292 H 0.53517 0.34539 0.59138 0.0
H2293 H 0.54375 0.35251 0.60662 0.0
C2294 C 0.41197 0.27246 0.58292 0.0
C2295 C 0.41173 0.24187 0.59049 0.0
C2296 C 0.4326 0.31586 0.5859 0.0
C2297 C 0.45388 0.32988 0.59647 0.0
C2298 C 0.45152 0.29914 0.60439 0.0
H2299 H 0.65839 0.59715 0.60417 0.0
H2300 H 0.59709 0.52982 0.61108 0.0
C2301 C 0.43031 0.25526 0.60144 0.0
C2302 C 0.48178 0.37689 0.59843 0.0
H2303 H 0.58733 0.45614 0.59821 0.0
C2304 C 0.4632 0.40324 0.59819 0.0
C2305 C 0.52713 0.39629 0.59872 0.0
C2306 C 0.54902 0.36979 0.59835 0.0
C2307 C 0.4888 0.44837 0.5978 0.0
C2308 C 0.53405 0.46757 0.59763 0.0
C2309 C 0.55258 0.44135 0.59848 0.0
C2310 C 0.56297 0.51377 0.59487 0.0
C2311 C 0.4674 0.47518 0.59721 0.0
C2312 C 0.56304 0.52823 0.58365 0.0
C2313 C 0.59818 0.56646 0.57968 0.0
C2314 C 0.63351 0.59115 0.58691 0.0
C2315 C 0.63107 0.57933 0.59851 0.0
C2316 C 0.59625 0.54058 0.60243 0.0
H2317 H 0.43377 0.45722 0.60042 0.0
H2318 H 0.48567 0.50524 0.60229 0.0
H2319 H 0.46664 0.48424 0.58813 0.0
H2320 H 0.53813 0.50784 0.57761 0.0
H2321 H 0.59977 0.57435 0.57064 0.0
loop_
_geom_bond_atom_site_label_1
_geom_bond_atom_site_label_2
_geom_bond_distance
_geom_bond_site_symmetry_2
_ccdc_geom_bond_type
Zn0 O6 1.920 . S
Zn0 O12 1.898 . S
Zn0 O15 1.905 . S
Zn1 O9 1.905 . S
Zn1 O10 1.898 . S
Zn1 O18 1.920 . S
Zn2 O5 2.080 . S
Zn2 O8 2.114 . S
Zn2 O11 2.120 1_545 S
Zn2 O13 2.120 . S
Zn2 O14 2.114 . S
Zn2 O17 2.080 1_545 S
C3 O8 1.166 1_565 S
C3 O9 1.182 . S
C4 O10 1.167 . S
C4 O11 1.299 . S
O5 Zn2 2.080 . S
O5 C19 1.305 . S
O6 Zn0 1.920 . S
O6 C19 1.234 . S
C7 O12 1.167 . S
C7 O13 1.299 . S
O8 Zn2 2.114 . S
O8 C3 1.166 1_545 S
O9 Zn1 1.905 . S
O9 C3 1.182 . S
O10 Zn1 1.898 . S
O10 C4 1.167 . S
O11 Zn2 2.120 1_565 S
O11 C4 1.299 . S
O12 Zn0 1.898 . S
O12 C7 1.167 . S
O13 Zn2 2.120 . S
O13 C7 1.299 . S
O14 Zn2 2.114 . S
O14 C16 1.166 . S
O15 Zn0 1.905 . S
O15 C16 1.182 . S
C16 O14 1.166 . S
C16 O15 1.182 . S
O17 Zn2 2.080 1_565 S
O17 C20 1.305 . S
O18 Zn1 1.920 . S
O18 C20 1.234 . S
C19 O5 1.305 . S
C19 O6 1.234 . S
C20 O17 1.305 . S
C20 O18 1.234 . S
Zn21 O27 1.920 . S
Zn21 O33 1.898 . S
Zn21 O36 1.905 . S
Zn22 O30 1.905 . S
Zn22 O31 1.898 . S
Zn22 O39 1.920 . S
Zn23 O26 2.080 . S
Zn23 O29 2.114 . S
Zn23 O32 2.120 . S
Zn23 O34 2.120 1_455 S
Zn23 O35 2.114 1_455 S
Zn23 O38 2.080 . S
C24 O29 1.166 . S
C24 O30 1.182 . S
C25 O31 1.167 . S
C25 O32 1.299 . S
O26 Zn23 2.080 . S
O26 C40 1.305 . S
O27 Zn21 1.920 . S
O27 C40 1.234 1_655 S
C28 O33 1.167 . S
C28 O34 1.299 . S
O29 Zn23 2.114 . S
O29 C24 1.166 . S
O30 Zn22 1.905 . S
O30 C24 1.182 . S
O31 Zn22 1.898 . S
O31 C25 1.167 . S
O32 Zn23 2.120 . S
O32 C25 1.299 . S
O33 Zn21 1.898 . S
O33 C28 1.167 . S
O34 Zn23 2.120 1_655 S
O34 C28 1.299 . S
O35 Zn23 2.114 1_655 S
O35 C37 1.166 . S
O36 Zn21 1.905 . S
O36 C37 1.182 . S
C37 O35 1.166 . S
C37 O36 1.182 . S
O38 Zn23 2.080 . S
O38 C41 1.305 . S
O39 Zn22 1.920 . S
O39 C41 1.234 . S
C40 O26 1.305 . S
C40 O27 1.234 1_455 S
C41 O38 1.305 . S
C41 O39 1.234 . S
Zn42 O48 1.920 . S
Zn42 O54 1.898 . S
Zn42 O57 1.905 . S
Zn43 O51 1.905 . S
Zn43 O52 1.898 . S
Zn43 O60 1.920 . S
Zn44 O47 2.080 . S
Zn44 O50 2.114 . S
Zn44 O53 2.120 . S
Zn44 O55 2.120 . S
Zn44 O56 2.114 . S
Zn44 O59 2.080 . S
C45 O50 1.166 . S
C45 O51 1.182 . S
C46 O52 1.167 . S
C46 O53 1.299 . S
O47 Zn44 2.080 . S
O47 C61 1.305 . S
O48 Zn42 1.920 . S
O48 C61 1.234 . S
C49 O54 1.167 . S
C49 O55 1.299 . S
O50 Zn44 2.114 . S
O50 C45 1.166 . S
O51 Zn43 1.905 . S
O51 C45 1.182 . S
O52 Zn43 1.898 . S
O52 C46 1.167 . S
O53 Zn44 2.120 . S
O53 C46 1.299 . S
O54 Zn42 1.898 . S
O54 C49 1.167 . S
O55 Zn44 2.120 . S
O55 C49 1.299 . S
O56 Zn44 2.114 . S
O56 C58 1.166 . S
O57 Zn42 1.905 . S
O57 C58 1.182 . S
C58 O56 1.166 . S
C58 O57 1.182 . S
O59 Zn44 2.080 . S
O59 C62 1.305 . S
O60 Zn43 1.920 . S
O60 C62 1.234 . S
C61 O47 1.305 . S
C61 O48 1.234 . S
C62 O59 1.305 . S
C62 O60 1.234 . S
Zn63 O69 1.920 . S
Zn63 O75 1.898 . S
Zn63 O78 1.905 . S
Zn64 O72 1.905 . S
Zn64 O73 1.898 . S
Zn64 O81 1.920 . S
Zn65 O68 2.080 . S
Zn65 O71 2.114 . S
Zn65 O74 2.120 1_455 S
Zn65 O76 2.120 . S
Zn65 O77 2.114 . S
Zn65 O80 2.080 1_455 S
C66 O71 1.166 1_655 S
C66 O72 1.182 . S
C67 O73 1.167 . S
C67 O74 1.299 . S
O68 Zn65 2.080 . S
O68 C82 1.305 . S
O69 Zn63 1.920 . S
O69 C82 1.234 . S
C70 O75 1.167 . S
C70 O76 1.299 . S
O71 Zn65 2.114 . S
O71 C66 1.166 1_455 S
O72 Zn64 1.905 . S
O72 C66 1.182 . S
O73 Zn64 1.898 . S
O73 C67 1.167 . S
O74 Zn65 2.120 1_655 S
O74 C67 1.299 . S
O75 Zn63 1.898 . S
O75 C70 1.167 . S
O76 Zn65 2.120 . S
O76 C70 1.299 . S
O77 Zn65 2.114 . S
O77 C79 1.166 . S
O78 Zn63 1.905 . S
O78 C79 1.182 . S
C79 O77 1.166 . S
C79 O78 1.182 . S
O80 Zn65 2.080 1_655 S
O80 C83 1.305 . S
O81 Zn64 1.920 . S
O81 C83 1.234 . S
C82 O68 1.305 . S
C82 O69 1.234 . S
C83 O80 1.305 . S
C83 O81 1.234 . S
Zn84 O90 1.920 . S
Zn84 O96 1.898 . S
Zn84 O99 1.905 . S
Zn85 O93 1.905 . S
Zn85 O94 1.898 . S
Zn85 O102 1.920 . S
Zn86 O89 2.080 . S
Zn86 O92 2.114 . S
Zn86 O95 2.120 . S
Zn86 O97 2.120 . S
Zn86 O98 2.114 . S
Zn86 O101 2.080 . S
C87 O92 1.166 . S
C87 O93 1.182 . S
C88 O94 1.167 . S
C88 O95 1.299 . S
O89 Zn86 2.080 . S
O89 C103 1.305 . S
O90 Zn84 1.920 . S
O90 C103 1.234 . S
C91 O96 1.167 . S
C91 O97 1.299 . S
O92 Zn86 2.114 . S
O92 C87 1.166 . S
O93 Zn85 1.905 . S
O93 C87 1.182 . S
O94 Zn85 1.898 . S
O94 C88 1.167 . S
O95 Zn86 2.120 . S
O95 C88 1.299 . S
O96 Zn84 1.898 . S
O96 C91 1.167 . S
O97 Zn86 2.120 . S
O97 C91 1.299 . S
O98 Zn86 2.114 . S
O98 C100 1.166 . S
O99 Zn84 1.905 . S
O99 C100 1.182 . S
C100 O98 1.166 . S
C100 O99 1.182 . S
O101 Zn86 2.080 . S
O101 C104 1.305 . S
O102 Zn85 1.920 . S
O102 C104 1.234 . S
C103 O89 1.305 . S
C103 O90 1.234 . S
C104 O101 1.305 . S
C104 O102 1.234 . S
Zn105 O111 1.920 . S
Zn105 O117 1.898 . S
Zn105 O120 1.905 . S
Zn106 O114 1.905 . S
Zn106 O115 1.898 . S
Zn106 O123 1.920 . S
Zn107 O110 2.080 . S
Zn107 O113 2.114 . S
Zn107 O116 2.120 . S
Zn107 O118 2.120 1_545 S
Zn107 O119 2.114 1_545 S
Zn107 O122 2.080 . S
C108 O113 1.166 . S
C108 O114 1.182 . S
C109 O115 1.167 . S
C109 O116 1.299 . S
O110 Zn107 2.080 . S
O110 C124 1.305 . S
O111 Zn105 1.920 . S
O111 C124 1.234 1_565 S
C112 O117 1.167 . S
C112 O118 1.299 . S
O113 Zn107 2.114 . S
O113 C108 1.166 . S
O114 Zn106 1.905 . S
O114 C108 1.182 . S
O115 Zn106 1.898 . S
O115 C109 1.167 . S
O116 Zn107 2.120 . S
O116 C109 1.299 . S
O117 Zn105 1.898 . S
O117 C112 1.167 . S
O118 Zn107 2.120 1_565 S
O118 C112 1.299 . S
O119 Zn107 2.114 1_565 S
O119 C121 1.166 . S
O120 Zn105 1.905 . S
O120 C121 1.182 . S
C121 O119 1.166 . S
C121 O120 1.182 . S
O122 Zn107 2.080 . S
O122 C125 1.305 . S
O123 Zn106 1.920 . S
O123 C125 1.234 . S
C124 O110 1.305 . S
C124 O111 1.234 1_545 S
C125 O122 1.305 . S
C125 O123 1.234 . S
Zn126 O132 1.920 . S
Zn126 O138 1.898 . S
Zn126 O141 1.905 . S
Zn127 O135 1.905 . S
Zn127 O136 1.898 . S
Zn127 O144 1.920 . S
Zn128 O131 2.080 . S
Zn128 O134 2.114 . S
Zn128 O137 2.120 . S
Zn128 O139 2.120 . S
Zn128 O140 2.114 . S
Zn128 O143 2.080 . S
C129 O134 1.166 . S
C129 O135 1.182 . S
C130 O136 1.167 . S
C130 O137 1.299 . S
O131 Zn128 2.080 . S
O131 C145 1.305 . S
O132 Zn126 1.920 . S
O132 C145 1.234 . S
C133 O138 1.167 . S
C133 O139 1.299 . S
O134 Zn128 2.114 . S
O134 C129 1.166 . S
O135 Zn127 1.905 . S
O135 C129 1.182 . S
O136 Zn127 1.898 . S
O136 C130 1.167 . S
O137 Zn128 2.120 . S
O137 C130 1.299 . S
O138 Zn126 1.898 . S
O138 C133 1.167 . S
O139 Zn128 2.120 . S
O139 C133 1.299 . S
O140 Zn128 2.114 . S
O140 C142 1.166 . S
O141 Zn126 1.905 . S
O141 C142 1.182 . S
C142 O140 1.166 . S
C142 O141 1.182 . S
O143 Zn128 2.080 . S
O143 C146 1.305 . S
O144 Zn127 1.920 . S
O144 C146 1.234 . S
C145 O131 1.305 . S
C145 O132 1.234 . S
C146 O143 1.305 . S
C146 O144 1.234 . S
Zn147 O153 1.920 . S
Zn147 O159 1.898 . S
Zn147 O162 1.905 . S
Zn148 O156 1.905 . S
Zn148 O157 1.898 . S
Zn148 O165 1.920 . S
Zn149 O152 2.080 . S
Zn149 O155 2.114 . S
Zn149 O158 2.120 . S
Zn149 O160 2.120 . S
Zn149 O161 2.114 . S
Zn149 O164 2.080 . S
C150 O155 1.166 . S
C150 O156 1.182 . S
C151 O157 1.167 . S
C151 O158 1.299 . S
O152 Zn149 2.080 . S
O152 C166 1.305 . S
O153 Zn147 1.920 . S
O153 C166 1.234 . S
C154 O159 1.167 . S
C154 O160 1.299 . S
O155 Zn149 2.114 . S
O155 C150 1.166 . S
O156 Zn148 1.905 . S
O156 C150 1.182 . S
O157 Zn148 1.898 . S
O157 C151 1.167 . S
O158 Zn149 2.120 . S
O158 C151 1.299 . S
O159 Zn147 1.898 . S
O159 C154 1.167 . S
O160 Zn149 2.120 . S
O160 C154 1.299 . S
O161 Zn149 2.114 . S
O161 C163 1.166 . S
O162 Zn147 1.905 . S
O162 C163 1.182 . S
C163 O161 1.166 . S
C163 O162 1.182 . S
O164 Zn149 2.080 . S
O164 C167 1.305 . S
O165 Zn148 1.920 . S
O165 C167 1.234 . S
C166 O152 1.305 . S
C166 O153 1.234 . S
C167 O164 1.305 . S
C167 O165 1.234 . S
Zn168 O174 1.921 1_565 S
Zn168 O180 1.898 . S
Zn168 O183 1.905 . S
Zn169 O177 1.905 . S
Zn169 O178 1.898 . S
Zn169 O186 1.920 . S
Zn170 O173 2.080 . S
Zn170 O176 2.114 . S
Zn170 O179 2.120 . S
Zn170 O181 2.120 . S
Zn170 O182 2.114 . S
Zn170 O185 2.080 . S
C171 O176 1.166 . S
C171 O177 1.182 . S
C172 O178 1.167 . S
C172 O179 1.299 . S
O173 Zn170 2.080 . S
O173 C187 1.305 1_565 S
O174 Zn168 1.921 1_545 S
O174 C187 1.235 . S
C175 O180 1.167 . S
C175 O181 1.299 . S
O176 Zn170 2.114 . S
O176 C171 1.166 . S
O177 Zn169 1.905 . S
O177 C171 1.182 . S
O178 Zn169 1.898 . S
O178 C172 1.167 . S
O179 Zn170 2.120 . S
O179 C172 1.299 . S
O180 Zn168 1.898 . S
O180 C175 1.167 . S
O181 Zn170 2.120 . S
O181 C175 1.299 . S
O182 Zn170 2.114 . S
O182 C184 1.166 . S
O183 Zn168 1.905 . S
O183 C184 1.182 . S
C184 O182 1.166 . S
C184 O183 1.182 . S
O185 Zn170 2.080 . S
O185 C188 1.305 . S
O186 Zn169 1.920 . S
O186 C188 1.234 . S
C187 O173 1.305 1_545 S
C187 O174 1.235 . S
C188 O185 1.305 . S
C188 O186 1.234 . S
Zn189 O195 1.920 . S
Zn189 O201 1.898 . S
Zn189 O204 1.905 . S
Zn190 O198 1.905 . S
Zn190 O199 1.898 . S
Zn190 O207 1.920 . S
Zn191 O194 2.080 . S
Zn191 O197 2.114 . S
Zn191 O200 2.120 . S
Zn191 O202 2.120 . S
Zn191 O203 2.114 . S
Zn191 O206 2.080 . S
C192 O197 1.166 . S
C192 O198 1.182 . S
C193 O199 1.167 . S
C193 O200 1.299 . S
O194 Zn191 2.080 . S
O194 C208 1.305 . S
O195 Zn189 1.920 . S
O195 C208 1.234 . S
C196 O201 1.167 . S
C196 O202 1.299 . S
O197 Zn191 2.114 . S
O197 C192 1.166 . S
O198 Zn190 1.905 . S
O198 C192 1.182 . S
O199 Zn190 1.898 . S
O199 C193 1.167 . S
O200 Zn191 2.120 . S
O200 C193 1.299 . S
O201 Zn189 1.898 . S
O201 C196 1.167 . S
O202 Zn191 2.120 . S
O202 C196 1.299 . S
O203 Zn191 2.114 . S
O203 C205 1.166 . S
O204 Zn189 1.905 . S
O204 C205 1.182 . S
C205 O203 1.166 . S
C205 O204 1.182 . S
O206 Zn191 2.080 . S
O206 C209 1.305 . S
O207 Zn190 1.920 . S
O207 C209 1.234 . S
C208 O194 1.305 . S
C208 O195 1.234 . S
C209 O206 1.305 . S
C209 O207 1.234 . S
Zn210 O216 1.920 . S
Zn210 O222 1.898 . S
Zn210 O225 1.905 . S
Zn211 O219 1.905 . S
Zn211 O220 1.898 1_565 S
Zn211 O228 1.920 . S
Zn212 O215 2.080 . S
Zn212 O218 2.114 . S
Zn212 O221 2.120 . S
Zn212 O223 2.120 . S
Zn212 O224 2.114 . S
Zn212 O227 2.080 . S
C213 O218 1.166 . S
C213 O219 1.182 . S
C214 O220 1.167 . S
C214 O221 1.299 1_545 S
O215 Zn212 2.080 . S
O215 C229 1.305 . S
O216 Zn210 1.920 . S
O216 C229 1.234 . S
C217 O222 1.167 . S
C217 O223 1.299 . S
O218 Zn212 2.114 . S
O218 C213 1.166 . S
O219 Zn211 1.905 . S
O219 C213 1.182 . S
O220 Zn211 1.898 1_545 S
O220 C214 1.167 . S
O221 Zn212 2.120 . S
O221 C214 1.299 1_565 S
O222 Zn210 1.898 . S
O222 C217 1.167 . S
O223 Zn212 2.120 . S
O223 C217 1.299 . S
O224 Zn212 2.114 . S
O224 C226 1.166 . S
O225 Zn210 1.905 . S
O225 C226 1.182 . S
C226 O224 1.166 . S
C226 O225 1.182 . S
O227 Zn212 2.080 . S
O227 C230 1.305 . S
O228 Zn211 1.920 . S
O228 C230 1.234 . S
C229 O215 1.305 . S
C229 O216 1.234 . S
C230 O227 1.305 . S
C230 O228 1.234 . S
Zn231 O237 1.920 . S
Zn231 O243 1.898 . S
Zn231 O246 1.905 . S
Zn232 O240 1.905 . S
Zn232 O241 1.898 . S
Zn232 O249 1.920 . S
Zn233 O236 2.080 . S
Zn233 O239 2.114 . S
Zn233 O242 2.120 . S
Zn233 O244 2.120 . S
Zn233 O245 2.114 . S
Zn233 O248 2.080 . S
C234 O239 1.166 . S
C234 O240 1.182 . S
C235 O241 1.167 . S
C235 O242 1.299 . S
O236 Zn233 2.080 . S
O236 C250 1.305 . S
O237 Zn231 1.920 . S
O237 C250 1.234 . S
C238 O243 1.167 . S
C238 O244 1.299 . S
O239 Zn233 2.114 . S
O239 C234 1.166 . S
O240 Zn232 1.905 . S
O240 C234 1.182 . S
O241 Zn232 1.898 . S
O241 C235 1.167 . S
O242 Zn233 2.120 . S
O242 C235 1.299 . S
O243 Zn231 1.898 . S
O243 C238 1.167 . S
O244 Zn233 2.120 . S
O244 C238 1.299 . S
O245 Zn233 2.114 . S
O245 C247 1.166 . S
O246 Zn231 1.905 . S
O246 C247 1.182 . S
C247 O245 1.166 . S
C247 O246 1.182 . S
O248 Zn233 2.080 . S
O248 C251 1.305 . S
O249 Zn232 1.920 . S
O249 C251 1.234 . S
C250 O236 1.305 . S
C250 O237 1.234 . S
C251 O248 1.305 . S
C251 O249 1.234 . S
Zn252 O258 1.920 . S
Zn252 O264 1.898 . S
Zn252 O267 1.905 . S
Zn253 O261 1.905 . S
Zn253 O262 1.898 . S
Zn253 O270 1.920 . S
Zn254 O257 2.080 . S
Zn254 O260 2.114 . S
Zn254 O263 2.120 . S
Zn254 O265 2.120 . S
Zn254 O266 2.114 . S
Zn254 O269 2.080 . S
C255 O260 1.166 . S
C255 O261 1.182 . S
C256 O262 1.167 . S
C256 O263 1.299 . S
O257 Zn254 2.080 . S
O257 C271 1.305 . S
O258 Zn252 1.920 . S
O258 C271 1.234 . S
C259 O264 1.167 . S
C259 O265 1.299 . S
O260 Zn254 2.114 . S
O260 C255 1.166 . S
O261 Zn253 1.905 . S
O261 C255 1.182 . S
O262 Zn253 1.898 . S
O262 C256 1.167 . S
O263 Zn254 2.120 . S
O263 C256 1.299 . S
O264 Zn252 1.898 . S
O264 C259 1.167 . S
O265 Zn254 2.120 . S
O265 C259 1.299 . S
O266 Zn254 2.114 . S
O266 C268 1.166 . S
O267 Zn252 1.905 . S
O267 C268 1.182 . S
C268 O266 1.166 . S
C268 O267 1.182 . S
O269 Zn254 2.080 . S
O269 C272 1.305 . S
O270 Zn253 1.920 . S
O270 C272 1.234 . S
C271 O257 1.305 . S
C271 O258 1.234 . S
C272 O269 1.305 . S
C272 O270 1.234 . S
Zn273 O279 1.920 . S
Zn273 O285 1.898 . S
Zn273 O288 1.905 . S
Zn274 O282 1.905 . S
Zn274 O283 1.898 . S
Zn274 O291 1.920 . S
Zn275 O278 2.080 . S
Zn275 O281 2.114 . S
Zn275 O284 2.120 . S
Zn275 O286 2.120 . S
Zn275 O287 2.114 . S
Zn275 O290 2.080 . S
C276 O281 1.166 . S
C276 O282 1.182 . S
C277 O283 1.167 . S
C277 O284 1.299 . S
O278 Zn275 2.080 . S
O278 C292 1.305 . S
O279 Zn273 1.920 . S
O279 C292 1.234 . S
C280 O285 1.167 . S
C280 O286 1.299 . S
O281 Zn275 2.114 . S
O281 C276 1.166 . S
O282 Zn274 1.905 . S
O282 C276 1.182 . S
O283 Zn274 1.898 . S
O283 C277 1.167 . S
O284 Zn275 2.120 . S
O284 C277 1.299 . S
O285 Zn273 1.898 . S
O285 C280 1.167 . S
O286 Zn275 2.120 . S
O286 C280 1.299 . S
O287 Zn275 2.114 . S
O287 C289 1.166 . S
O288 Zn273 1.905 . S
O288 C289 1.182 . S
C289 O287 1.166 . S
C289 O288 1.182 . S
O290 Zn275 2.080 . S
O290 C293 1.305 . S
O291 Zn274 1.920 . S
O291 C293 1.234 . S
C292 O278 1.305 . S
C292 O279 1.234 . S
C293 O290 1.305 . S
C293 O291 1.234 . S
Zn294 O300 1.920 . S
Zn294 O306 1.898 . S
Zn294 O309 1.905 . S
Zn295 O303 1.905 . S
Zn295 O304 1.898 1_655 S
Zn295 O312 1.920 . S
Zn296 O299 2.080 . S
Zn296 O302 2.114 . S
Zn296 O305 2.120 . S
Zn296 O307 2.120 . S
Zn296 O308 2.114 . S
Zn296 O311 2.080 . S
C297 O302 1.166 . S
C297 O303 1.182 . S
C298 O304 1.167 . S
C298 O305 1.299 1_455 S
O299 Zn296 2.080 . S
O299 C313 1.305 . S
O300 Zn294 1.920 . S
O300 C313 1.234 . S
C301 O306 1.167 . S
C301 O307 1.299 . S
O302 Zn296 2.114 . S
O302 C297 1.166 . S
O303 Zn295 1.905 . S
O303 C297 1.182 . S
O304 Zn295 1.898 1_455 S
O304 C298 1.167 . S
O305 Zn296 2.120 . S
O305 C298 1.299 1_655 S
O306 Zn294 1.898 . S
O306 C301 1.167 . S
O307 Zn296 2.120 . S
O307 C301 1.299 . S
O308 Zn296 2.114 . S
O308 C310 1.166 . S
O309 Zn294 1.905 . S
O309 C310 1.182 . S
C310 O308 1.166 . S
C310 O309 1.182 . S
O311 Zn296 2.080 . S
O311 C314 1.305 . S
O312 Zn295 1.920 . S
O312 C314 1.234 . S
C313 O299 1.305 . S
C313 O300 1.234 . S
C314 O311 1.305 . S
C314 O312 1.234 . S
Zn315 O321 1.920 . S
Zn315 O327 1.898 . S
Zn315 O330 1.905 . S
Zn316 O324 1.905 . S
Zn316 O325 1.898 . S
Zn316 O333 1.920 . S
Zn317 O320 2.080 . S
Zn317 O323 2.114 . S
Zn317 O326 2.120 . S
Zn317 O328 2.120 . S
Zn317 O329 2.114 . S
Zn317 O332 2.080 . S
C318 O323 1.166 . S
C318 O324 1.182 . S
C319 O325 1.167 . S
C319 O326 1.299 . S
O320 Zn317 2.080 . S
O320 C334 1.305 . S
O321 Zn315 1.920 . S
O321 C334 1.234 . S
C322 O327 1.167 . S
C322 O328 1.299 . S
O323 Zn317 2.114 . S
O323 C318 1.166 . S
O324 Zn316 1.905 . S
O324 C318 1.182 . S
O325 Zn316 1.898 . S
O325 C319 1.167 . S
O326 Zn317 2.120 . S
O326 C319 1.299 . S
O327 Zn315 1.898 . S
O327 C322 1.167 . S
O328 Zn317 2.120 . S
O328 C322 1.299 . S
O329 Zn317 2.114 . S
O329 C331 1.166 . S
O330 Zn315 1.905 . S
O330 C331 1.182 . S
C331 O329 1.166 . S
C331 O330 1.182 . S
O332 Zn317 2.080 . S
O332 C335 1.305 . S
O333 Zn316 1.920 . S
O333 C335 1.234 . S
C334 O320 1.305 . S
C334 O321 1.234 . S
C335 O332 1.305 . S
C335 O333 1.234 . S
Zn336 O342 1.920 . S
Zn336 O348 1.898 . S
Zn336 O351 1.905 . S
Zn337 O345 1.905 . S
Zn337 O346 1.898 . S
Zn337 O354 1.921 1_655 S
Zn338 O341 2.080 . S
Zn338 O344 2.114 . S
Zn338 O347 2.120 . S
Zn338 O349 2.120 . S
Zn338 O350 2.114 . S
Zn338 O353 2.080 . S
C339 O344 1.166 . S
C339 O345 1.182 . S
C340 O346 1.167 . S
C340 O347 1.299 . S
O341 Zn338 2.080 . S
O341 C355 1.305 . S
O342 Zn336 1.920 . S
O342 C355 1.234 . S
C343 O348 1.167 . S
C343 O349 1.299 . S
O344 Zn338 2.114 . S
O344 C339 1.166 . S
O345 Zn337 1.905 . S
O345 C339 1.182 . S
O346 Zn337 1.898 . S
O346 C340 1.167 . S
O347 Zn338 2.120 . S
O347 C340 1.299 . S
O348 Zn336 1.898 . S
O348 C343 1.167 . S
O349 Zn338 2.120 . S
O349 C343 1.299 . S
O350 Zn338 2.114 . S
O350 C352 1.166 . S
O351 Zn336 1.905 . S
O351 C352 1.182 . S
C352 O350 1.166 . S
C352 O351 1.182 . S
O353 Zn338 2.080 . S
O353 C356 1.305 1_655 S
O354 Zn337 1.921 1_455 S
O354 C356 1.235 . S
C355 O341 1.305 . S
C355 O342 1.234 . S
C356 O353 1.305 1_455 S
C356 O354 1.235 . S
Zn357 O363 1.920 . S
Zn357 O369 1.898 . S
Zn357 O372 1.905 . S
Zn358 O366 1.905 . S
Zn358 O367 1.898 . S
Zn358 O375 1.920 . S
Zn359 O362 2.080 . S
Zn359 O365 2.114 . S
Zn359 O368 2.120 . S
Zn359 O370 2.120 . S
Zn359 O371 2.114 . S
Zn359 O374 2.080 . S
C360 O365 1.166 . S
C360 O366 1.182 . S
C361 O367 1.167 . S
C361 O368 1.299 . S
O362 Zn359 2.080 . S
O362 C376 1.305 . S
O363 Zn357 1.920 . S
O363 C376 1.234 . S
C364 O369 1.167 . S
C364 O370 1.299 . S
O365 Zn359 2.114 . S
O365 C360 1.166 . S
O366 Zn358 1.905 . S
O366 C360 1.182 . S
O367 Zn358 1.898 . S
O367 C361 1.167 . S
O368 Zn359 2.120 . S
O368 C361 1.299 . S
O369 Zn357 1.898 . S
O369 C364 1.167 . S
O370 Zn359 2.120 . S
O370 C364 1.299 . S
O371 Zn359 2.114 . S
O371 C373 1.166 . S
O372 Zn357 1.905 . S
O372 C373 1.182 . S
C373 O371 1.166 . S
C373 O372 1.182 . S
O374 Zn359 2.080 . S
O374 C377 1.305 . S
O375 Zn358 1.920 . S
O375 C377 1.234 . S
C376 O362 1.305 . S
C376 O363 1.234 . S
C377 O374 1.305 . S
C377 O375 1.234 . S
H378 C386 0.929 . S
H379 C388 0.930 . S
H380 C390 0.930 . S
H381 C393 0.929 . S
H382 C396 0.930 . S
H383 C398 0.960 . S
H384 C398 0.960 . S
H385 C398 0.960 . S
C386 H378 0.929 . S
C386 C387 1.377 . S
C386 C388 1.384 . S
C387 C386 1.377 . S
C387 C393 1.390 . S
C388 H379 0.930 . S
C388 C386 1.384 . S
C388 C389 1.372 . S
C389 C388 1.372 . S
C389 C390 1.400 . S
C389 C394 1.490 . S
C390 H380 0.930 . S
C390 C389 1.400 . S
C390 C393 1.386 . S
H391 C407 0.930 . S
H392 C408 0.931 . S
C393 H381 0.929 . S
C393 C387 1.390 . S
C393 C390 1.386 . S
C394 C389 1.490 . S
C394 C396 1.395 . S
C394 C397 1.403 . S
H395 C401 0.930 . S
C396 H382 0.930 . S
C396 C394 1.395 . S
C396 C399 1.403 . S
C397 C394 1.403 . S
C397 C398 1.524 . S
C397 C401 1.400 . S
C398 H383 0.960 . S
C398 H384 0.960 . S
C398 H385 0.960 . S
C398 C397 1.524 . S
C399 C396 1.403 . S
C399 C400 1.392 . S
C399 C403 1.495 . S
C400 C399 1.392 . S
C400 C401 1.385 . S
C400 C402 1.478 . S
C401 H395 0.930 . S
C401 C397 1.400 . S
C401 C400 1.385 . S
C402 C400 1.478 . S
C402 C404 1.381 . S
C402 C408 1.383 . S
C403 C399 1.495 . S
C403 H409 0.959 . S
C403 H410 0.961 . S
C403 H411 0.960 . S
C404 C402 1.381 . S
C404 C405 1.394 . S
C404 H412 0.930 . S
C405 C404 1.394 . S
C405 C406 1.383 . S
C405 H413 0.929 . S
C406 C405 1.383 . S
C406 C407 1.377 . S
C407 H391 0.930 . S
C407 C406 1.377 . S
C407 C408 1.379 . S
C408 H392 0.931 . S
C408 C402 1.383 . S
C408 C407 1.379 . S
H409 C403 0.959 . S
H410 C403 0.961 . S
H411 C403 0.960 . S
H412 C404 0.930 . S
H413 C405 0.929 . S
H414 C422 0.929 . S
H415 C424 0.930 . S
H416 C426 0.930 . S
H417 C429 0.929 . S
H418 C432 0.930 . S
H419 C434 0.960 . S
H420 C434 0.960 . S
H421 C434 0.960 . S
C422 H414 0.929 . S
C422 C423 1.377 . S
C422 C424 1.384 . S
C423 C422 1.377 . S
C423 C429 1.390 . S
C424 H415 0.930 . S
C424 C422 1.384 . S
C424 C425 1.372 . S
C425 C424 1.372 . S
C425 C426 1.400 . S
C425 C430 1.490 . S
C426 H416 0.930 . S
C426 C425 1.400 . S
C426 C429 1.386 . S
H427 C443 0.930 . S
H428 C444 0.931 . S
C429 H417 0.929 . S
C429 C423 1.390 . S
C429 C426 1.386 . S
C430 C425 1.490 . S
C430 C432 1.395 . S
C430 C433 1.403 . S
H431 C437 0.930 . S
C432 H418 0.930 . S
C432 C430 1.395 . S
C432 C435 1.403 . S
C433 C430 1.403 . S
C433 C434 1.524 . S
C433 C437 1.400 . S
C434 H419 0.960 . S
C434 H420 0.960 . S
C434 H421 0.960 . S
C434 C433 1.524 . S
C435 C432 1.403 . S
C435 C436 1.392 . S
C435 C439 1.495 . S
C436 C435 1.392 . S
C436 C437 1.385 . S
C436 C438 1.478 . S
C437 H431 0.930 . S
C437 C433 1.400 . S
C437 C436 1.385 . S
C438 C436 1.478 . S
C438 C440 1.381 . S
C438 C444 1.383 . S
C439 C435 1.495 . S
C439 H445 0.959 . S
C439 H446 0.961 . S
C439 H447 0.960 . S
C440 C438 1.381 . S
C440 C441 1.394 . S
C440 H448 0.930 . S
C441 C440 1.394 . S
C441 C442 1.383 . S
C441 H449 0.929 . S
C442 C441 1.383 . S
C442 C443 1.377 . S
C443 H427 0.930 . S
C443 C442 1.377 . S
C443 C444 1.379 . S
C444 H428 0.931 . S
C444 C438 1.383 . S
C444 C443 1.379 . S
H445 C439 0.959 . S
H446 C439 0.961 . S
H447 C439 0.960 . S
H448 C440 0.930 . S
H449 C441 0.929 . S
H450 C458 0.929 . S
H451 C460 0.930 . S
H452 C462 0.930 . S
H453 C465 0.929 . S
H454 C468 0.930 . S
H455 C470 0.960 . S
H456 C470 0.960 . S
H457 C470 0.960 . S
C458 H450 0.929 . S
C458 C459 1.377 . S
C458 C460 1.384 . S
C459 C458 1.377 . S
C459 C465 1.390 . S
C460 H451 0.930 . S
C460 C458 1.384 . S
C460 C461 1.372 . S
C461 C460 1.372 . S
C461 C462 1.400 . S
C461 C466 1.490 . S
C462 H452 0.930 . S
C462 C461 1.400 . S
C462 C465 1.386 . S
H463 C479 0.930 . S
H464 C480 0.931 . S
C465 H453 0.929 . S
C465 C459 1.390 . S
C465 C462 1.386 . S
C466 C461 1.490 . S
C466 C468 1.395 . S
C466 C469 1.403 . S
H467 C473 0.930 . S
C468 H454 0.930 . S
C468 C466 1.395 . S
C468 C471 1.403 . S
C469 C466 1.403 . S
C469 C470 1.524 . S
C469 C473 1.400 . S
C470 H455 0.960 . S
C470 H456 0.960 . S
C470 H457 0.960 . S
C470 C469 1.524 . S
C471 C468 1.403 . S
C471 C472 1.392 . S
C471 C475 1.495 . S
C472 C471 1.392 . S
C472 C473 1.385 . S
C472 C474 1.478 . S
C473 H467 0.930 . S
C473 C469 1.400 . S
C473 C472 1.385 . S
C474 C472 1.478 . S
C474 C476 1.381 . S
C474 C480 1.383 . S
C475 C471 1.495 . S
C475 H481 0.959 . S
C475 H482 0.961 . S
C475 H483 0.960 . S
C476 C474 1.381 . S
C476 C477 1.394 . S
C476 H484 0.930 . S
C477 C476 1.394 . S
C477 C478 1.383 . S
C477 H485 0.929 . S
C478 C477 1.383 . S
C478 C479 1.377 . S
C479 H463 0.930 . S
C479 C478 1.377 . S
C479 C480 1.379 . S
C480 H464 0.931 . S
C480 C474 1.383 . S
C480 C479 1.379 . S
H481 C475 0.959 . S
H482 C475 0.961 . S
H483 C475 0.960 . S
H484 C476 0.930 . S
H485 C477 0.929 . S
H486 C494 0.929 . S
H487 C496 0.930 . S
H488 C498 0.930 . S
H489 C501 0.929 . S
H490 C504 0.930 . S
H491 C506 0.960 . S
H492 C506 0.960 . S
H493 C506 0.960 . S
C494 H486 0.929 . S
C494 C495 1.377 . S
C494 C496 1.384 . S
C495 C494 1.377 . S
C495 C501 1.390 . S
C496 H487 0.930 . S
C496 C494 1.384 . S
C496 C497 1.372 . S
C497 C496 1.372 . S
C497 C498 1.400 . S
C497 C502 1.490 . S
C498 H488 0.930 . S
C498 C497 1.400 . S
C498 C501 1.386 . S
H499 C515 0.930 . S
H500 C516 0.931 . S
C501 H489 0.929 . S
C501 C495 1.390 . S
C501 C498 1.386 . S
C502 C497 1.490 . S
C502 C504 1.395 . S
C502 C505 1.403 . S
H503 C509 0.930 . S
C504 H490 0.930 . S
C504 C502 1.395 . S
C504 C507 1.403 . S
C505 C502 1.403 . S
C505 C506 1.524 . S
C505 C509 1.400 . S
C506 H491 0.960 . S
C506 H492 0.960 . S
C506 H493 0.960 . S
C506 C505 1.524 . S
C507 C504 1.403 . S
C507 C508 1.392 . S
C507 C511 1.495 . S
C508 C507 1.392 . S
C508 C509 1.385 . S
C508 C510 1.478 . S
C509 H503 0.930 . S
C509 C505 1.400 . S
C509 C508 1.385 . S
C510 C508 1.478 . S
C510 C512 1.381 . S
C510 C516 1.383 . S
C511 C507 1.495 . S
C511 H517 0.959 . S
C511 H518 0.961 . S
C511 H519 0.960 . S
C512 C510 1.381 . S
C512 C513 1.394 . S
C512 H520 0.930 . S
C513 C512 1.394 . S
C513 C514 1.383 . S
C513 H521 0.929 . S
C514 C513 1.383 . S
C514 C515 1.377 . S
C515 H499 0.930 . S
C515 C514 1.377 . S
C515 C516 1.379 . S
C516 H500 0.931 . S
C516 C510 1.383 . S
C516 C515 1.379 . S
H517 C511 0.959 . S
H518 C511 0.961 . S
H519 C511 0.960 . S
H520 C512 0.930 . S
H521 C513 0.929 . S
H522 C530 0.929 . S
H523 C532 0.930 . S
H524 C534 0.930 . S
H525 C537 0.929 . S
H526 C540 0.930 . S
H527 C542 0.960 . S
H528 C542 0.960 . S
H529 C542 0.960 . S
C530 H522 0.929 . S
C530 C531 1.377 . S
C530 C532 1.384 . S
C531 C530 1.377 . S
C531 C537 1.390 . S
C532 H523 0.930 . S
C532 C530 1.384 . S
C532 C533 1.372 . S
C533 C532 1.372 . S
C533 C534 1.400 . S
C533 C538 1.490 . S
C534 H524 0.930 . S
C534 C533 1.400 . S
C534 C537 1.386 . S
H535 C551 0.930 . S
H536 C552 0.931 . S
C537 H525 0.929 . S
C537 C531 1.390 . S
C537 C534 1.386 . S
C538 C533 1.490 . S
C538 C540 1.395 . S
C538 C541 1.403 . S
H539 C545 0.930 . S
C540 H526 0.930 . S
C540 C538 1.395 . S
C540 C543 1.403 . S
C541 C538 1.403 . S
C541 C542 1.524 . S
C541 C545 1.400 . S
C542 H527 0.960 . S
C542 H528 0.960 . S
C542 H529 0.960 . S
C542 C541 1.524 . S
C543 C540 1.403 . S
C543 C544 1.392 . S
C543 C547 1.495 . S
C544 C543 1.392 . S
C544 C545 1.385 . S
C544 C546 1.478 . S
C545 H539 0.930 . S
C545 C541 1.400 . S
C545 C544 1.385 . S
C546 C544 1.478 . S
C546 C548 1.381 . S
C546 C552 1.383 . S
C547 C543 1.495 . S
C547 H553 0.959 . S
C547 H554 0.961 . S
C547 H555 0.960 . S
C548 C546 1.381 . S
C548 C549 1.394 . S
C548 H556 0.930 . S
C549 C548 1.394 . S
C549 C550 1.383 . S
C549 H557 0.929 . S
C550 C549 1.383 . S
C550 C551 1.377 . S
C551 H535 0.930 . S
C551 C550 1.377 . S
C551 C552 1.379 . S
C552 H536 0.931 . S
C552 C546 1.383 . S
C552 C551 1.379 . S
H553 C547 0.959 . S
H554 C547 0.961 . S
H555 C547 0.960 . S
H556 C548 0.930 . S
H557 C549 0.929 . S
H558 C566 0.929 . S
H559 C568 0.930 . S
H560 C570 0.930 . S
H561 C573 0.929 . S
H562 C576 0.930 . S
H563 C578 0.960 . S
H564 C578 0.960 . S
H565 C578 0.960 . S
C566 H558 0.929 . S
C566 C567 1.377 . S
C566 C568 1.384 . S
C567 C566 1.377 . S
C567 C573 1.390 . S
C568 H559 0.930 . S
C568 C566 1.384 . S
C568 C569 1.372 . S
C569 C568 1.372 . S
C569 C570 1.400 . S
C569 C574 1.490 . S
C570 H560 0.930 . S
C570 C569 1.400 . S
C570 C573 1.386 . S
H571 C587 0.930 . S
H572 C588 0.931 . S
C573 H561 0.929 . S
C573 C567 1.390 . S
C573 C570 1.386 . S
C574 C569 1.490 . S
C574 C576 1.395 . S
C574 C577 1.403 . S
H575 C581 0.930 . S
C576 H562 0.930 . S
C576 C574 1.395 . S
C576 C579 1.403 . S
C577 C574 1.403 . S
C577 C578 1.524 . S
C577 C581 1.400 . S
C578 H563 0.960 . S
C578 H564 0.960 . S
C578 H565 0.960 . S
C578 C577 1.524 . S
C579 C576 1.403 . S
C579 C580 1.392 . S
C579 C583 1.495 . S
C580 C579 1.392 . S
C580 C581 1.385 . S
C580 C582 1.478 . S
C581 H575 0.930 . S
C581 C577 1.400 . S
C581 C580 1.385 . S
C582 C580 1.478 . S
C582 C584 1.381 . S
C582 C588 1.383 . S
C583 C579 1.495 . S
C583 H589 0.959 . S
C583 H590 0.961 . S
C583 H591 0.960 . S
C584 C582 1.381 . S
C584 C585 1.394 . S
C584 H592 0.930 . S
C585 C584 1.394 . S
C585 C586 1.383 . S
C585 H593 0.929 . S
C586 C585 1.383 . S
C586 C587 1.377 . S
C587 H571 0.930 . S
C587 C586 1.377 . S
C587 C588 1.379 . S
C588 H572 0.931 . S
C588 C582 1.383 . S
C588 C587 1.379 . S
H589 C583 0.959 . S
H590 C583 0.961 . S
H591 C583 0.960 . S
H592 C584 0.930 . S
H593 C585 0.929 . S
H594 C602 0.929 1_565 S
H595 C604 0.930 . S
H596 C606 0.930 . S
H597 C609 0.929 . S
H598 C612 0.930 . S
H599 C614 0.960 . S
H600 C614 0.960 . S
H601 C614 0.960 . S
C602 H594 0.929 1_545 S
C602 C603 1.377 . S
C602 C604 1.384 . S
C603 C602 1.377 . S
C603 C609 1.390 . S
C604 H595 0.930 . S
C604 C602 1.384 . S
C604 C605 1.372 . S
C605 C604 1.372 . S
C605 C606 1.400 . S
C605 C610 1.490 . S
C606 H596 0.930 . S
C606 C605 1.400 . S
C606 C609 1.386 . S
H607 C623 0.930 . S
H608 C624 0.931 . S
C609 H597 0.929 . S
C609 C603 1.390 . S
C609 C606 1.386 . S
C610 C605 1.490 . S
C610 C612 1.395 . S
C610 C613 1.403 . S
H611 C617 0.930 . S
C612 H598 0.930 . S
C612 C610 1.395 . S
C612 C615 1.403 . S
C613 C610 1.403 . S
C613 C614 1.524 . S
C613 C617 1.400 . S
C614 H599 0.960 . S
C614 H600 0.960 . S
C614 H601 0.960 . S
C614 C613 1.524 . S
C615 C612 1.403 . S
C615 C616 1.392 . S
C615 C619 1.495 . S
C616 C615 1.392 . S
C616 C617 1.385 . S
C616 C618 1.478 . S
C617 H611 0.930 . S
C617 C613 1.400 . S
C617 C616 1.385 . S
C618 C616 1.478 . S
C618 C620 1.381 . S
C618 C624 1.383 . S
C619 C615 1.495 . S
C619 H625 0.959 . S
C619 H626 0.961 . S
C619 H627 0.960 . S
C620 C618 1.381 . S
C620 C621 1.394 . S
C620 H628 0.930 . S
C621 C620 1.394 . S
C621 C622 1.383 . S
C621 H629 0.929 . S
C622 C621 1.383 . S
C622 C623 1.377 . S
C623 H607 0.930 . S
C623 C622 1.377 . S
C623 C624 1.379 . S
C624 H608 0.931 . S
C624 C618 1.383 . S
C624 C623 1.379 . S
H625 C619 0.959 . S
H626 C619 0.961 . S
H627 C619 0.960 . S
H628 C620 0.930 . S
H629 C621 0.929 . S
H630 C638 0.929 . S
H631 C640 0.930 . S
H632 C642 0.930 . S
H633 C645 0.929 1_455 S
H634 C648 0.930 . S
H635 C650 0.960 . S
H636 C650 0.960 . S
H637 C650 0.960 . S
C638 H630 0.929 . S
C638 C639 1.377 . S
C638 C640 1.384 . S
C639 C638 1.377 . S
C639 C645 1.390 . S
C640 H631 0.930 . S
C640 C638 1.384 . S
C640 C641 1.372 . S
C641 C640 1.372 . S
C641 C642 1.400 . S
C641 C646 1.490 . S
C642 H632 0.930 . S
C642 C641 1.400 . S
C642 C645 1.386 . S
H643 C659 0.930 . S
H644 C660 0.931 . S
C645 H633 0.929 1_655 S
C645 C639 1.390 . S
C645 C642 1.386 . S
C646 C641 1.490 . S
C646 C648 1.395 . S
C646 C649 1.403 . S
H647 C653 0.930 . S
C648 H634 0.930 . S
C648 C646 1.395 . S
C648 C651 1.403 . S
C649 C646 1.403 . S
C649 C650 1.524 . S
C649 C653 1.400 . S
C650 H635 0.960 . S
C650 H636 0.960 . S
C650 H637 0.960 . S
C650 C649 1.524 . S
C651 C648 1.403 . S
C651 C652 1.392 . S
C651 C655 1.495 . S
C652 C651 1.392 . S
C652 C653 1.385 . S
C652 C654 1.478 1_545 S
C653 H647 0.930 . S
C653 C649 1.400 . S
C653 C652 1.385 . S
C654 C652 1.478 1_565 S
C654 C656 1.381 . S
C654 C660 1.383 . S
C655 C651 1.495 . S
C655 H661 0.959 . S
C655 H662 0.961 . S
C655 H663 0.960 . S
C656 C654 1.381 . S
C656 C657 1.394 . S
C656 H664 0.930 . S
C657 C656 1.394 . S
C657 C658 1.383 . S
C657 H665 0.929 . S
C658 C657 1.383 . S
C658 C659 1.377 . S
C659 H643 0.930 . S
C659 C658 1.377 . S
C659 C660 1.379 . S
C660 H644 0.931 . S
C660 C654 1.383 . S
C660 C659 1.379 . S
H661 C655 0.959 . S
H662 C655 0.961 . S
H663 C655 0.960 . S
H664 C656 0.930 . S
H665 C657 0.929 . S
H666 C674 0.929 . S
H667 C676 0.930 . S
H668 C678 0.930 . S
H669 C681 0.929 . S
H670 C684 0.930 1_455 S
H671 C686 0.960 . S
H672 C686 0.960 . S
H673 C686 0.960 . S
C674 H666 0.929 . S
C674 C675 1.377 . S
C674 C676 1.384 . S
C675 C674 1.377 . S
C675 C681 1.390 . S
C676 H667 0.930 . S
C676 C674 1.384 . S
C676 C677 1.372 . S
C677 C676 1.372 . S
C677 C678 1.400 . S
C677 C682 1.490 1_455 S
C678 H668 0.930 . S
C678 C677 1.400 . S
C678 C681 1.386 . S
H679 C695 0.930 . S
H680 C696 0.931 . S
C681 H669 0.929 . S
C681 C675 1.390 . S
C681 C678 1.386 . S
C682 C677 1.490 1_655 S
C682 C684 1.395 . S
C682 C685 1.403 . S
H683 C689 0.930 . S
C684 H670 0.930 1_655 S
C684 C682 1.395 . S
C684 C687 1.403 . S
C685 C682 1.403 . S
C685 C686 1.524 . S
C685 C689 1.400 . S
C686 H671 0.960 . S
C686 H672 0.960 . S
C686 H673 0.960 . S
C686 C685 1.524 . S
C687 C684 1.403 . S
C687 C688 1.392 . S
C687 C691 1.495 . S
C688 C687 1.392 . S
C688 C689 1.385 . S
C688 C690 1.478 . S
C689 H683 0.930 . S
C689 C685 1.400 . S
C689 C688 1.385 . S
C690 C688 1.478 . S
C690 C692 1.381 . S
C690 C696 1.383 . S
C691 C687 1.495 . S
C691 H697 0.959 . S
C691 H698 0.961 . S
C691 H699 0.960 . S
C692 C690 1.381 . S
C692 C693 1.394 . S
C692 H700 0.930 . S
C693 C692 1.394 . S
C693 C694 1.383 . S
C693 H701 0.929 . S
C694 C693 1.383 . S
C694 C695 1.377 . S
C695 H679 0.930 . S
C695 C694 1.377 . S
C695 C696 1.379 . S
C696 H680 0.931 . S
C696 C690 1.383 . S
C696 C695 1.379 . S
H697 C691 0.959 . S
H698 C691 0.961 . S
H699 C691 0.960 . S
H700 C692 0.930 . S
H701 C693 0.929 . S
H702 C710 0.929 . S
H703 C712 0.930 . S
H704 C714 0.930 . S
H705 C717 0.929 . S
H706 C720 0.930 . S
H707 C722 0.960 . S
H708 C722 0.960 . S
H709 C722 0.960 . S
C710 H702 0.929 . S
C710 C711 1.377 . S
C710 C712 1.384 . S
C711 C710 1.377 . S
C711 C717 1.390 . S
C712 H703 0.930 . S
C712 C710 1.384 . S
C712 C713 1.372 . S
C713 C712 1.372 . S
C713 C714 1.400 . S
C713 C718 1.490 . S
C714 H704 0.930 . S
C714 C713 1.400 . S
C714 C717 1.386 . S
H715 C731 0.930 . S
H716 C732 0.931 . S
C717 H705 0.929 . S
C717 C711 1.390 . S
C717 C714 1.386 . S
C718 C713 1.490 . S
C718 C720 1.395 . S
C718 C721 1.403 . S
H719 C725 0.930 . S
C720 H706 0.930 . S
C720 C718 1.395 . S
C720 C723 1.403 . S
C721 C718 1.403 . S
C721 C722 1.524 . S
C721 C725 1.400 . S
C722 H707 0.960 . S
C722 H708 0.960 . S
C722 H709 0.960 . S
C722 C721 1.524 . S
C723 C720 1.403 . S
C723 C724 1.392 . S
C723 C727 1.495 . S
C724 C723 1.392 . S
C724 C725 1.385 . S
C724 C726 1.478 . S
C725 H719 0.930 . S
C725 C721 1.400 . S
C725 C724 1.385 . S
C726 C724 1.478 . S
C726 C728 1.381 . S
C726 C732 1.383 . S
C727 C723 1.495 . S
C727 H733 0.959 . S
C727 H734 0.961 . S
C727 H735 0.960 . S
C728 C726 1.381 . S
C728 C729 1.394 . S
C728 H736 0.930 . S
C729 C728 1.394 . S
C729 C730 1.383 . S
C729 H737 0.929 . S
C730 C729 1.383 . S
C730 C731 1.377 . S
C731 H715 0.930 . S
C731 C730 1.377 . S
C731 C732 1.379 . S
C732 H716 0.931 . S
C732 C726 1.383 . S
C732 C731 1.379 . S
H733 C727 0.959 . S
H734 C727 0.961 . S
H735 C727 0.960 . S
H736 C728 0.930 . S
H737 C729 0.929 . S
H738 C746 0.929 . S
H739 C748 0.930 . S
H740 C750 0.930 . S
H741 C753 0.929 . S
H742 C756 0.930 . S
H743 C758 0.960 . S
H744 C758 0.960 . S
H745 C758 0.960 . S
C746 H738 0.929 . S
C746 C747 1.377 . S
C746 C748 1.384 . S
C747 C746 1.377 . S
C747 C753 1.390 . S
C748 H739 0.930 . S
C748 C746 1.384 . S
C748 C749 1.372 . S
C749 C748 1.372 . S
C749 C750 1.400 . S
C749 C754 1.490 . S
C750 H740 0.930 . S
C750 C749 1.400 . S
C750 C753 1.386 . S
H751 C767 0.930 . S
H752 C768 0.931 . S
C753 H741 0.929 . S
C753 C747 1.390 . S
C753 C750 1.386 . S
C754 C749 1.490 . S
C754 C756 1.395 . S
C754 C757 1.403 . S
H755 C761 0.930 . S
C756 H742 0.930 . S
C756 C754 1.395 . S
C756 C759 1.403 . S
C757 C754 1.403 . S
C757 C758 1.524 . S
C757 C761 1.400 . S
C758 H743 0.960 . S
C758 H744 0.960 . S
C758 H745 0.960 . S
C758 C757 1.524 . S
C759 C756 1.403 . S
C759 C760 1.392 . S
C759 C763 1.495 . S
C760 C759 1.392 . S
C760 C761 1.385 . S
C760 C762 1.478 . S
C761 H755 0.930 . S
C761 C757 1.400 . S
C761 C760 1.385 . S
C762 C760 1.478 . S
C762 C764 1.381 . S
C762 C768 1.383 . S
C763 C759 1.495 . S
C763 H769 0.959 . S
C763 H770 0.961 . S
C763 H771 0.960 . S
C764 C762 1.381 . S
C764 C765 1.394 . S
C764 H772 0.930 . S
C765 C764 1.394 . S
C765 C766 1.383 . S
C765 H773 0.929 . S
C766 C765 1.383 . S
C766 C767 1.377 . S
C767 H751 0.930 . S
C767 C766 1.377 . S
C767 C768 1.379 . S
C768 H752 0.931 . S
C768 C762 1.383 . S
C768 C767 1.379 . S
H769 C763 0.959 . S
H770 C763 0.961 . S
H771 C763 0.960 . S
H772 C764 0.930 . S
H773 C765 0.929 . S
H774 C782 0.929 . S
H775 C784 0.930 . S
H776 C786 0.930 . S
H777 C789 0.929 . S
H778 C792 0.930 . S
H779 C794 0.960 . S
H780 C794 0.960 . S
H781 C794 0.960 . S
C782 H774 0.929 . S
C782 C783 1.377 . S
C782 C784 1.384 . S
C783 C782 1.377 . S
C783 C789 1.390 . S
C784 H775 0.930 . S
C784 C782 1.384 . S
C784 C785 1.372 . S
C785 C784 1.372 . S
C785 C786 1.400 . S
C785 C790 1.490 . S
C786 H776 0.930 . S
C786 C785 1.400 . S
C786 C789 1.386 . S
H787 C803 0.930 . S
H788 C804 0.931 . S
C789 H777 0.929 . S
C789 C783 1.390 . S
C789 C786 1.386 . S
C790 C785 1.490 . S
C790 C792 1.395 . S
C790 C793 1.403 . S
H791 C797 0.930 . S
C792 H778 0.930 . S
C792 C790 1.395 . S
C792 C795 1.403 . S
C793 C790 1.403 . S
C793 C794 1.524 . S
C793 C797 1.400 . S
C794 H779 0.960 . S
C794 H780 0.960 . S
C794 H781 0.960 . S
C794 C793 1.524 . S
C795 C792 1.403 . S
C795 C796 1.392 . S
C795 C799 1.495 . S
C796 C795 1.392 . S
C796 C797 1.385 . S
C796 C798 1.478 . S
C797 H791 0.930 . S
C797 C793 1.400 . S
C797 C796 1.385 . S
C798 C796 1.478 . S
C798 C800 1.381 . S
C798 C804 1.383 . S
C799 C795 1.495 . S
C799 H805 0.959 . S
C799 H806 0.961 . S
C799 H807 0.960 . S
C800 C798 1.381 . S
C800 C801 1.394 . S
C800 H808 0.930 . S
C801 C800 1.394 . S
C801 C802 1.383 . S
C801 H809 0.929 . S
C802 C801 1.383 . S
C802 C803 1.377 . S
C803 H787 0.930 . S
C803 C802 1.377 . S
C803 C804 1.379 . S
C804 H788 0.931 . S
C804 C798 1.383 . S
C804 C803 1.379 . S
H805 C799 0.959 . S
H806 C799 0.961 . S
H807 C799 0.960 . S
H808 C800 0.930 . S
H809 C801 0.929 . S
H810 C818 0.929 . S
H811 C820 0.930 . S
H812 C822 0.930 . S
H813 C825 0.929 . S
H814 C828 0.930 . S
H815 C830 0.960 . S
H816 C830 0.960 . S
H817 C830 0.960 . S
C818 H810 0.929 . S
C818 C819 1.377 . S
C818 C820 1.384 . S
C819 C818 1.377 . S
C819 C825 1.390 . S
C820 H811 0.930 . S
C820 C818 1.384 . S
C820 C821 1.372 . S
C821 C820 1.372 . S
C821 C822 1.400 . S
C821 C826 1.490 . S
C822 H812 0.930 . S
C822 C821 1.400 . S
C822 C825 1.386 . S
H823 C839 0.930 . S
H824 C840 0.931 . S
C825 H813 0.929 . S
C825 C819 1.390 . S
C825 C822 1.386 . S
C826 C821 1.490 . S
C826 C828 1.395 . S
C826 C829 1.403 . S
H827 C833 0.930 . S
C828 H814 0.930 . S
C828 C826 1.395 . S
C828 C831 1.403 . S
C829 C826 1.403 . S
C829 C830 1.524 . S
C829 C833 1.400 . S
C830 H815 0.960 . S
C830 H816 0.960 . S
C830 H817 0.960 . S
C830 C829 1.524 . S
C831 C828 1.403 . S
C831 C832 1.392 . S
C831 C835 1.495 . S
C832 C831 1.392 . S
C832 C833 1.385 . S
C832 C834 1.478 . S
C833 H827 0.930 . S
C833 C829 1.400 . S
C833 C832 1.385 . S
C834 C832 1.478 . S
C834 C836 1.381 . S
C834 C840 1.383 . S
C835 C831 1.495 . S
C835 H841 0.959 . S
C835 H842 0.961 . S
C835 H843 0.960 . S
C836 C834 1.381 . S
C836 C837 1.394 . S
C836 H844 0.930 . S
C837 C836 1.394 . S
C837 C838 1.383 . S
C837 H845 0.929 . S
C838 C837 1.383 . S
C838 C839 1.377 . S
C839 H823 0.930 . S
C839 C838 1.377 . S
C839 C840 1.379 . S
C840 H824 0.931 . S
C840 C834 1.383 . S
C840 C839 1.379 . S
H841 C835 0.959 . S
H842 C835 0.961 . S
H843 C835 0.960 . S
H844 C836 0.930 . S
H845 C837 0.929 . S
H846 C854 0.929 . S
H847 C856 0.930 . S
H848 C858 0.930 . S
H849 C861 0.929 . S
H850 C864 0.930 . S
H851 C866 0.960 . S
H852 C866 0.960 . S
H853 C866 0.960 . S
C854 H846 0.929 . S
C854 C855 1.377 . S
C854 C856 1.384 . S
C855 C854 1.377 . S
C855 C861 1.390 . S
C856 H847 0.930 . S
C856 C854 1.384 . S
C856 C857 1.372 . S
C857 C856 1.372 . S
C857 C858 1.400 . S
C857 C862 1.490 . S
C858 H848 0.930 . S
C858 C857 1.400 . S
C858 C861 1.386 . S
H859 C875 0.930 . S
H860 C876 0.931 . S
C861 H849 0.929 . S
C861 C855 1.390 . S
C861 C858 1.386 . S
C862 C857 1.490 . S
C862 C864 1.395 . S
C862 C865 1.403 . S
H863 C869 0.930 . S
C864 H850 0.930 . S
C864 C862 1.395 . S
C864 C867 1.403 . S
C865 C862 1.403 . S
C865 C866 1.524 . S
C865 C869 1.400 . S
C866 H851 0.960 . S
C866 H852 0.960 . S
C866 H853 0.960 . S
C866 C865 1.524 . S
C867 C864 1.403 . S
C867 C868 1.392 . S
C867 C871 1.495 . S
C868 C867 1.392 . S
C868 C869 1.385 . S
C868 C870 1.478 . S
C869 H863 0.930 . S
C869 C865 1.400 . S
C869 C868 1.385 . S
C870 C868 1.478 . S
C870 C872 1.381 . S
C870 C876 1.383 . S
C871 C867 1.495 . S
C871 H877 0.959 . S
C871 H878 0.961 . S
C871 H879 0.960 . S
C872 C870 1.381 . S
C872 C873 1.394 . S
C872 H880 0.930 . S
C873 C872 1.394 . S
C873 C874 1.383 . S
C873 H881 0.929 . S
C874 C873 1.383 . S
C874 C875 1.377 . S
C875 H859 0.930 . S
C875 C874 1.377 . S
C875 C876 1.379 . S
C876 H860 0.931 . S
C876 C870 1.383 . S
C876 C875 1.379 . S
H877 C871 0.959 . S
H878 C871 0.961 . S
H879 C871 0.960 . S
H880 C872 0.930 . S
H881 C873 0.929 . S
H882 C890 0.929 . S
H883 C892 0.930 . S
H884 C894 0.930 . S
H885 C897 0.929 . S
H886 C900 0.930 . S
H887 C902 0.960 . S
H888 C902 0.960 . S
H889 C902 0.960 . S
C890 H882 0.929 . S
C890 C891 1.377 . S
C890 C892 1.384 . S
C891 C890 1.377 . S
C891 C897 1.390 . S
C892 H883 0.930 . S
C892 C890 1.384 . S
C892 C893 1.372 . S
C893 C892 1.372 . S
C893 C894 1.400 . S
C893 C898 1.490 . S
C894 H884 0.930 . S
C894 C893 1.400 . S
C894 C897 1.386 . S
H895 C911 0.930 . S
H896 C912 0.931 . S
C897 H885 0.929 . S
C897 C891 1.390 . S
C897 C894 1.386 . S
C898 C893 1.490 . S
C898 C900 1.395 . S
C898 C901 1.403 . S
H899 C905 0.930 . S
C900 H886 0.930 . S
C900 C898 1.395 . S
C900 C903 1.403 . S
C901 C898 1.403 . S
C901 C902 1.524 . S
C901 C905 1.400 . S
C902 H887 0.960 . S
C902 H888 0.960 . S
C902 H889 0.960 . S
C902 C901 1.524 . S
C903 C900 1.403 . S
C903 C904 1.392 . S
C903 C907 1.495 . S
C904 C903 1.392 . S
C904 C905 1.385 . S
C904 C906 1.478 . S
C905 H899 0.930 . S
C905 C901 1.400 . S
C905 C904 1.385 . S
C906 C904 1.478 . S
C906 C908 1.381 . S
C906 C912 1.383 . S
C907 C903 1.495 . S
C907 H913 0.959 . S
C907 H914 0.961 . S
C907 H915 0.960 . S
C908 C906 1.381 . S
C908 C909 1.394 . S
C908 H916 0.930 . S
C909 C908 1.394 . S
C909 C910 1.383 . S
C909 H917 0.929 . S
C910 C909 1.383 . S
C910 C911 1.377 . S
C911 H895 0.930 . S
C911 C910 1.377 . S
C911 C912 1.379 . S
C912 H896 0.931 . S
C912 C906 1.383 . S
C912 C911 1.379 . S
H913 C907 0.959 . S
H914 C907 0.961 . S
H915 C907 0.960 . S
H916 C908 0.930 . S
H917 C909 0.929 . S
H918 C926 0.929 . S
H919 C928 0.930 . S
H920 C930 0.930 . S
H921 C933 0.929 . S
H922 C936 0.930 . S
H923 C938 0.960 . S
H924 C938 0.960 . S
H925 C938 0.960 . S
C926 H918 0.929 . S
C926 C927 1.377 . S
C926 C928 1.384 . S
C927 C926 1.377 . S
C927 C933 1.390 . S
C928 H919 0.930 . S
C928 C926 1.384 . S
C928 C929 1.372 . S
C929 C928 1.372 . S
C929 C930 1.400 . S
C929 C934 1.490 . S
C930 H920 0.930 . S
C930 C929 1.400 . S
C930 C933 1.386 . S
H931 C947 0.930 . S
H932 C948 0.931 . S
C933 H921 0.929 . S
C933 C927 1.390 . S
C933 C930 1.386 . S
C934 C929 1.490 . S
C934 C936 1.395 . S
C934 C937 1.403 . S
H935 C941 0.930 . S
C936 H922 0.930 . S
C936 C934 1.395 . S
C936 C939 1.403 . S
C937 C934 1.403 . S
C937 C938 1.524 . S
C937 C941 1.400 . S
C938 H923 0.960 . S
C938 H924 0.960 . S
C938 H925 0.960 . S
C938 C937 1.524 . S
C939 C936 1.403 . S
C939 C940 1.392 . S
C939 C943 1.495 . S
C940 C939 1.392 . S
C940 C941 1.385 . S
C940 C942 1.478 . S
C941 H935 0.930 . S
C941 C937 1.400 . S
C941 C940 1.385 . S
C942 C940 1.478 . S
C942 C944 1.381 . S
C942 C948 1.383 . S
C943 C939 1.495 . S
C943 H949 0.959 . S
C943 H950 0.961 . S
C943 H951 0.960 . S
C944 C942 1.381 . S
C944 C945 1.394 . S
C944 H952 0.930 . S
C945 C944 1.394 . S
C945 C946 1.383 . S
C945 H953 0.929 . S
C946 C945 1.383 . S
C946 C947 1.377 . S
C947 H931 0.930 . S
C947 C946 1.377 . S
C947 C948 1.379 . S
C948 H932 0.931 . S
C948 C942 1.383 . S
C948 C947 1.379 . S
H949 C943 0.959 . S
H950 C943 0.961 . S
H951 C943 0.960 . S
H952 C944 0.930 . S
H953 C945 0.929 . S
H954 C962 0.929 . S
H955 C964 0.930 . S
H956 C966 0.930 . S
H957 C969 0.929 . S
H958 C972 0.930 . S
H959 C974 0.960 . S
H960 C974 0.960 . S
H961 C974 0.960 . S
C962 H954 0.929 . S
C962 C963 1.377 . S
C962 C964 1.384 . S
C963 C962 1.377 . S
C963 C969 1.390 . S
C964 H955 0.930 . S
C964 C962 1.384 . S
C964 C965 1.372 . S
C965 C964 1.372 . S
C965 C966 1.400 . S
C965 C970 1.490 . S
C966 H956 0.930 . S
C966 C965 1.400 . S
C966 C969 1.386 . S
H967 C983 0.930 . S
H968 C984 0.931 . S
C969 H957 0.929 . S
C969 C963 1.390 . S
C969 C966 1.386 . S
C970 C965 1.490 . S
C970 C972 1.395 . S
C970 C973 1.403 . S
H971 C977 0.930 . S
C972 H958 0.930 . S
C972 C970 1.395 . S
C972 C975 1.403 . S
C973 C970 1.403 . S
C973 C974 1.524 . S
C973 C977 1.400 . S
C974 H959 0.960 . S
C974 H960 0.960 . S
C974 H961 0.960 . S
C974 C973 1.524 . S
C975 C972 1.403 . S
C975 C976 1.392 . S
C975 C979 1.495 1_565 S
C976 C975 1.392 . S
C976 C977 1.385 . S
C976 C978 1.478 1_565 S
C977 H971 0.930 . S
C977 C973 1.400 . S
C977 C976 1.385 . S
C978 C976 1.478 1_545 S
C978 C980 1.381 . S
C978 C984 1.383 . S
C979 C975 1.495 1_545 S
C979 H985 0.959 1_545 S
C979 H986 0.961 . S
C979 H987 0.960 . S
C980 C978 1.381 . S
C980 C981 1.394 . S
C980 H988 0.930 . S
C981 C980 1.394 . S
C981 C982 1.383 . S
C981 H989 0.929 . S
C982 C981 1.383 . S
C982 C983 1.377 . S
C983 H967 0.930 . S
C983 C982 1.377 . S
C983 C984 1.379 . S
C984 H968 0.931 . S
C984 C978 1.383 . S
C984 C983 1.379 . S
H985 C979 0.959 1_565 S
H986 C979 0.961 . S
H987 C979 0.960 . S
H988 C980 0.930 . S
H989 C981 0.929 . S
H990 C998 0.929 . S
H991 C1000 0.930 . S
H992 C1002 0.930 . S
H993 C1005 0.929 . S
H994 C1008 0.930 . S
H995 C1010 0.960 . S
H996 C1010 0.960 . S
H997 C1010 0.960 . S
C998 H990 0.929 . S
C998 C999 1.377 . S
C998 C1000 1.384 . S
C999 C998 1.377 . S
C999 C1005 1.390 . S
C1000 H991 0.930 . S
C1000 C998 1.384 . S
C1000 C1001 1.372 . S
C1001 C1000 1.372 . S
C1001 C1002 1.400 . S
C1001 C1006 1.490 . S
C1002 H992 0.930 . S
C1002 C1001 1.400 . S
C1002 C1005 1.386 . S
H1003 C1019 0.930 . S
H1004 C1020 0.931 . S
C1005 H993 0.929 . S
C1005 C999 1.390 . S
C1005 C1002 1.386 . S
C1006 C1001 1.490 . S
C1006 C1008 1.395 . S
C1006 C1009 1.403 . S
H1007 C1013 0.930 . S
C1008 H994 0.930 . S
C1008 C1006 1.395 . S
C1008 C1011 1.403 . S
C1009 C1006 1.403 . S
C1009 C1010 1.524 . S
C1009 C1013 1.400 . S
C1010 H995 0.960 . S
C1010 H996 0.960 . S
C1010 H997 0.960 . S
C1010 C1009 1.524 . S
C1011 C1008 1.403 . S
C1011 C1012 1.392 . S
C1011 C1015 1.495 . S
C1012 C1011 1.392 . S
C1012 C1013 1.385 . S
C1012 C1014 1.478 1_455 S
C1013 H1007 0.930 . S
C1013 C1009 1.400 . S
C1013 C1012 1.385 . S
C1014 C1012 1.478 1_655 S
C1014 C1016 1.381 . S
C1014 C1020 1.383 . S
C1015 C1011 1.495 . S
C1015 H1021 0.959 . S
C1015 H1022 0.961 1_455 S
C1015 H1023 0.960 1_455 S
C1016 C1014 1.381 . S
C1016 C1017 1.394 . S
C1016 H1024 0.930 . S
C1017 C1016 1.394 . S
C1017 C1018 1.383 . S
C1017 H1025 0.929 . S
C1018 C1017 1.383 . S
C1018 C1019 1.377 . S
C1019 H1003 0.930 . S
C1019 C1018 1.377 . S
C1019 C1020 1.379 . S
C1020 H1004 0.931 . S
C1020 C1014 1.383 . S
C1020 C1019 1.379 . S
H1021 C1015 0.959 . S
H1022 C1015 0.961 1_655 S
H1023 C1015 0.960 1_655 S
H1024 C1016 0.930 . S
H1025 C1017 0.929 . S
H1026 C1034 0.929 . S
H1027 C1036 0.930 . S
H1028 C1038 0.930 . S
H1029 C1041 0.929 . S
H1030 C1044 0.930 . S
H1031 C1046 0.960 . S
H1032 C1046 0.960 . S
H1033 C1046 0.960 . S
C1034 H1026 0.929 . S
C1034 C1035 1.377 . S
C1034 C1036 1.384 . S
C1035 C1034 1.377 . S
C1035 C1041 1.390 . S
C1036 H1027 0.930 . S
C1036 C1034 1.384 . S
C1036 C1037 1.372 . S
C1037 C1036 1.372 . S
C1037 C1038 1.400 . S
C1037 C1042 1.490 . S
C1038 H1028 0.930 . S
C1038 C1037 1.400 . S
C1038 C1041 1.386 . S
H1039 C1055 0.927 . S
H1040 C1056 0.931 . S
C1041 H1029 0.929 . S
C1041 C1035 1.390 . S
C1041 C1038 1.386 . S
C1042 C1037 1.490 . S
C1042 C1044 1.395 1_545 S
C1042 C1045 1.403 . S
H1043 C1049 0.930 . S
C1044 H1030 0.930 . S
C1044 C1042 1.395 1_565 S
C1044 C1047 1.403 1_554 S
C1045 C1042 1.403 . S
C1045 C1046 1.524 . S
C1045 C1049 1.400 1_554 S
C1046 H1031 0.960 . S
C1046 H1032 0.960 . S
C1046 H1033 0.960 . S
C1046 C1045 1.524 . S
C1047 C1044 1.403 1_556 S
C1047 C1048 1.377 1_565 S
C1047 C1051 1.495 . S
C1048 C1047 1.377 1_545 S
C1048 C1049 1.402 . S
C1048 C1050 1.477 1_545 S
C1049 H1043 0.930 . S
C1049 C1045 1.400 1_556 S
C1049 C1048 1.402 . S
C1050 C1048 1.477 1_565 S
C1050 C1052 1.382 1_565 S
C1050 C1056 1.383 . S
C1051 C1047 1.495 . S
C1051 H1057 0.959 . S
C1051 H1058 0.961 . S
C1051 H1059 0.960 . S
C1052 C1050 1.382 1_545 S
C1052 C1053 1.394 . S
C1052 H1060 0.928 1_545 S
C1053 C1052 1.394 . S
C1053 C1054 1.383 . S
C1053 H1061 0.929 . S
C1054 C1053 1.383 . S
C1054 C1055 1.372 . S
C1055 H1039 0.927 . S
C1055 C1054 1.372 . S
C1055 C1056 1.379 1_545 S
C1056 H1040 0.931 . S
C1056 C1050 1.383 . S
C1056 C1055 1.379 1_565 S
H1057 C1051 0.959 . S
H1058 C1051 0.961 . S
H1059 C1051 0.960 . S
H1060 C1052 0.928 1_565 S
H1061 C1053 0.929 . S
H1062 C1070 0.929 . S
H1063 C1072 0.930 . S
H1064 C1074 0.930 . S
H1065 C1077 0.929 . S
H1066 C1080 0.930 . S
H1067 C1082 0.960 . S
H1068 C1082 0.960 . S
H1069 C1082 0.960 . S
C1070 H1062 0.929 . S
C1070 C1071 1.377 1_655 S
C1070 C1072 1.384 . S
C1071 C1070 1.377 1_455 S
C1071 C1077 1.390 . S
C1072 H1063 0.930 . S
C1072 C1070 1.384 . S
C1072 C1073 1.372 1_655 S
C1073 C1072 1.372 1_455 S
C1073 C1074 1.400 . S
C1073 C1078 1.490 . S
C1074 H1064 0.930 . S
C1074 C1073 1.400 . S
C1074 C1077 1.386 . S
H1075 C1091 0.930 . S
H1076 C1092 0.931 . S
C1077 H1065 0.929 . S
C1077 C1071 1.390 . S
C1077 C1074 1.386 . S
C1078 C1073 1.490 . S
C1078 C1080 1.395 . S
C1078 C1081 1.403 1_455 S
H1079 C1085 0.930 . S
C1080 H1066 0.930 . S
C1080 C1078 1.395 . S
C1080 C1083 1.403 1_556 S
C1081 C1078 1.403 1_655 S
C1081 C1082 1.524 . S
C1081 C1085 1.400 1_556 S
C1082 H1067 0.960 . S
C1082 H1068 0.960 . S
C1082 H1069 0.960 . S
C1082 C1081 1.524 . S
C1083 C1080 1.403 1_554 S
C1083 C1084 1.392 . S
C1083 C1087 1.495 . S
C1084 C1083 1.392 . S
C1084 C1085 1.385 1_455 S
C1084 C1086 1.478 . S
C1085 H1079 0.930 . S
C1085 C1081 1.400 1_554 S
C1085 C1084 1.385 1_655 S
C1086 C1084 1.478 . S
C1086 C1088 1.381 1_455 S
C1086 C1092 1.383 . S
C1087 C1083 1.495 . S
C1087 H1093 0.959 . S
C1087 H1094 0.961 . S
C1087 H1095 0.960 . S
C1088 C1086 1.381 1_655 S
C1088 C1089 1.394 . S
C1088 H1096 0.930 . S
C1089 C1088 1.394 . S
C1089 C1090 1.383 1_655 S
C1089 H1097 0.929 . S
C1090 C1089 1.383 1_455 S
C1090 C1091 1.377 . S
C1091 H1075 0.930 . S
C1091 C1090 1.377 . S
C1091 C1092 1.379 . S
C1092 H1076 0.931 . S
C1092 C1086 1.383 . S
C1092 C1091 1.379 . S
H1093 C1087 0.959 . S
H1094 C1087 0.961 . S
H1095 C1087 0.960 . S
H1096 C1088 0.930 . S
H1097 C1089 0.929 . S
H1098 C1106 0.929 . S
H1099 C1108 0.930 . S
H1100 C1110 0.930 . S
H1101 C1113 0.929 . S
H1102 C1116 0.930 . S
H1103 C1118 0.960 . S
H1104 C1118 0.960 . S
H1105 C1118 0.960 . S
C1106 H1098 0.929 . S
C1106 C1107 1.377 . S
C1106 C1108 1.384 . S
C1107 C1106 1.377 . S
C1107 C1113 1.390 . S
C1108 H1099 0.930 . S
C1108 C1106 1.384 . S
C1108 C1109 1.372 . S
C1109 C1108 1.372 . S
C1109 C1110 1.400 . S
C1109 C1114 1.490 . S
C1110 H1100 0.930 . S
C1110 C1109 1.400 . S
C1110 C1113 1.386 . S
H1111 C1127 0.930 . S
H1112 C1128 0.931 . S
C1113 H1101 0.929 . S
C1113 C1107 1.390 . S
C1113 C1110 1.386 . S
C1114 C1109 1.490 . S
C1114 C1116 1.395 . S
C1114 C1117 1.403 . S
H1115 C1121 0.930 . S
C1116 H1102 0.930 . S
C1116 C1114 1.395 . S
C1116 C1119 1.403 1_556 S
C1117 C1114 1.403 . S
C1117 C1118 1.524 . S
C1117 C1121 1.400 1_556 S
C1118 H1103 0.960 . S
C1118 H1104 0.960 . S
C1118 H1105 0.960 . S
C1118 C1117 1.524 . S
C1119 C1116 1.403 1_554 S
C1119 C1120 1.392 . S
C1119 C1123 1.495 . S
C1120 C1119 1.392 . S
C1120 C1121 1.385 . S
C1120 C1122 1.478 . S
C1121 H1115 0.930 . S
C1121 C1117 1.400 1_554 S
C1121 C1120 1.385 . S
C1122 C1120 1.478 . S
C1122 C1124 1.381 . S
C1122 C1128 1.383 . S
C1123 C1119 1.495 . S
C1123 H1129 0.959 . S
C1123 H1130 0.961 . S
C1123 H1131 0.960 . S
C1124 C1122 1.381 . S
C1124 C1125 1.394 . S
C1124 H1132 0.930 . S
C1125 C1124 1.394 . S
C1125 C1126 1.383 . S
C1125 H1133 0.929 . S
C1126 C1125 1.383 . S
C1126 C1127 1.377 . S
C1127 H1111 0.930 . S
C1127 C1126 1.377 . S
C1127 C1128 1.379 . S
C1128 H1112 0.931 . S
C1128 C1122 1.383 . S
C1128 C1127 1.379 . S
H1129 C1123 0.959 . S
H1130 C1123 0.961 . S
H1131 C1123 0.960 . S
H1132 C1124 0.930 . S
H1133 C1125 0.929 . S
H1134 C1142 0.929 . S
H1135 C1144 0.930 . S
H1136 C1146 0.930 . S
H1137 C1149 0.929 . S
H1138 C1152 0.930 . S
H1139 C1154 0.960 . S
H1140 C1154 0.960 . S
H1141 C1154 0.960 . S
C1142 H1134 0.929 . S
C1142 C1143 1.377 . S
C1142 C1144 1.384 . S
C1143 C1142 1.377 . S
C1143 C1149 1.390 . S
C1144 H1135 0.930 . S
C1144 C1142 1.384 . S
C1144 C1145 1.372 . S
C1145 C1144 1.372 . S
C1145 C1146 1.400 . S
C1145 C1150 1.490 . S
C1146 H1136 0.930 . S
C1146 C1145 1.400 . S
C1146 C1149 1.386 . S
H1147 C1163 0.930 . S
H1148 C1164 0.931 . S
C1149 H1137 0.929 . S
C1149 C1143 1.390 . S
C1149 C1146 1.386 . S
C1150 C1145 1.490 . S
C1150 C1152 1.395 . S
C1150 C1153 1.403 . S
H1151 C1157 0.930 . S
C1152 H1138 0.930 . S
C1152 C1150 1.395 . S
C1152 C1155 1.403 . S
C1153 C1150 1.403 . S
C1153 C1154 1.524 . S
C1153 C1157 1.400 . S
C1154 H1139 0.960 . S
C1154 H1140 0.960 . S
C1154 H1141 0.960 . S
C1154 C1153 1.524 . S
C1155 C1152 1.403 . S
C1155 C1156 1.392 . S
C1155 C1159 1.495 . S
C1156 C1155 1.392 . S
C1156 C1157 1.385 . S
C1156 C1158 1.478 . S
C1157 H1151 0.930 . S
C1157 C1153 1.400 . S
C1157 C1156 1.385 . S
C1158 C1156 1.478 . S
C1158 C1160 1.381 . S
C1158 C1164 1.383 . S
C1159 C1155 1.495 . S
C1159 H1165 0.959 . S
C1159 H1166 0.961 . S
C1159 H1167 0.960 . S
C1160 C1158 1.381 . S
C1160 C1161 1.394 . S
C1160 H1168 0.930 . S
C1161 C1160 1.394 . S
C1161 C1162 1.383 . S
C1161 H1169 0.929 . S
C1162 C1161 1.383 . S
C1162 C1163 1.377 . S
C1163 H1147 0.930 . S
C1163 C1162 1.377 . S
C1163 C1164 1.379 . S
C1164 H1148 0.931 . S
C1164 C1158 1.383 . S
C1164 C1163 1.379 . S
H1165 C1159 0.959 . S
H1166 C1159 0.961 . S
H1167 C1159 0.960 . S
H1168 C1160 0.930 . S
H1169 C1161 0.929 . S
H1170 C1178 0.929 . S
H1171 C1180 0.930 . S
H1172 C1182 0.930 . S
H1173 C1185 0.929 . S
H1174 C1188 0.930 . S
H1175 C1190 0.960 . S
H1176 C1190 0.960 . S
H1177 C1190 0.960 . S
C1178 H1170 0.929 . S
C1178 C1179 1.377 . S
C1178 C1180 1.384 . S
C1179 C1178 1.377 . S
C1179 C1185 1.390 . S
C1180 H1171 0.930 . S
C1180 C1178 1.384 . S
C1180 C1181 1.372 . S
C1181 C1180 1.372 . S
C1181 C1182 1.400 . S
C1181 C1186 1.490 . S
C1182 H1172 0.930 . S
C1182 C1181 1.400 . S
C1182 C1185 1.386 . S
H1183 C1199 0.930 . S
H1184 C1200 0.931 . S
C1185 H1173 0.929 . S
C1185 C1179 1.390 . S
C1185 C1182 1.386 . S
C1186 C1181 1.490 . S
C1186 C1188 1.395 . S
C1186 C1189 1.403 . S
H1187 C1193 0.930 . S
C1188 H1174 0.930 . S
C1188 C1186 1.395 . S
C1188 C1191 1.403 . S
C1189 C1186 1.403 . S
C1189 C1190 1.524 . S
C1189 C1193 1.400 . S
C1190 H1175 0.960 . S
C1190 H1176 0.960 . S
C1190 H1177 0.960 . S
C1190 C1189 1.524 . S
C1191 C1188 1.403 . S
C1191 C1192 1.392 . S
C1191 C1195 1.495 . S
C1192 C1191 1.392 . S
C1192 C1193 1.385 . S
C1192 C1194 1.478 . S
C1193 H1187 0.930 . S
C1193 C1189 1.400 . S
C1193 C1192 1.385 . S
C1194 C1192 1.478 . S
C1194 C1196 1.381 . S
C1194 C1200 1.383 . S
C1195 C1191 1.495 . S
C1195 H1201 0.959 . S
C1195 H1202 0.961 . S
C1195 H1203 0.960 . S
C1196 C1194 1.381 . S
C1196 C1197 1.394 . S
C1196 H1204 0.930 . S
C1197 C1196 1.394 . S
C1197 C1198 1.383 . S
C1197 H1205 0.929 . S
C1198 C1197 1.383 . S
C1198 C1199 1.377 . S
C1199 H1183 0.930 . S
C1199 C1198 1.377 . S
C1199 C1200 1.379 . S
C1200 H1184 0.931 . S
C1200 C1194 1.383 . S
C1200 C1199 1.379 . S
H1201 C1195 0.959 . S
H1202 C1195 0.961 . S
H1203 C1195 0.960 . S
H1204 C1196 0.930 . S
H1205 C1197 0.929 . S
H1206 C1214 0.929 . S
H1207 C1216 0.930 . S
H1208 C1218 0.930 . S
H1209 C1221 0.929 . S
H1210 C1224 0.930 . S
H1211 C1226 0.960 . S
H1212 C1226 0.960 . S
H1213 C1226 0.960 . S
C1214 H1206 0.929 . S
C1214 C1215 1.377 . S
C1214 C1216 1.384 . S
C1215 C1214 1.377 . S
C1215 C1221 1.390 . S
C1216 H1207 0.930 . S
C1216 C1214 1.384 . S
C1216 C1217 1.372 . S
C1217 C1216 1.372 . S
C1217 C1218 1.400 . S
C1217 C1222 1.490 . S
C1218 H1208 0.930 . S
C1218 C1217 1.400 . S
C1218 C1221 1.386 . S
H1219 C1235 0.930 . S
H1220 C1236 0.931 . S
C1221 H1209 0.929 . S
C1221 C1215 1.390 . S
C1221 C1218 1.386 . S
C1222 C1217 1.490 . S
C1222 C1224 1.395 . S
C1222 C1225 1.403 . S
H1223 C1229 0.930 . S
C1224 H1210 0.930 . S
C1224 C1222 1.395 . S
C1224 C1227 1.403 . S
C1225 C1222 1.403 . S
C1225 C1226 1.524 . S
C1225 C1229 1.400 . S
C1226 H1211 0.960 . S
C1226 H1212 0.960 . S
C1226 H1213 0.960 . S
C1226 C1225 1.524 . S
C1227 C1224 1.403 . S
C1227 C1228 1.392 . S
C1227 C1231 1.495 . S
C1228 C1227 1.392 . S
C1228 C1229 1.385 . S
C1228 C1230 1.478 . S
C1229 H1223 0.930 . S
C1229 C1225 1.400 . S
C1229 C1228 1.385 . S
C1230 C1228 1.478 . S
C1230 C1232 1.381 . S
C1230 C1236 1.383 . S
C1231 C1227 1.495 . S
C1231 H1237 0.959 1_565 S
C1231 H1238 0.961 . S
C1231 H1239 0.960 1_565 S
C1232 C1230 1.381 . S
C1232 C1233 1.394 . S
C1232 H1240 0.930 . S
C1233 C1232 1.394 . S
C1233 C1234 1.383 . S
C1233 H1241 0.929 . S
C1234 C1233 1.383 . S
C1234 C1235 1.377 . S
C1235 H1219 0.930 . S
C1235 C1234 1.377 . S
C1235 C1236 1.379 . S
C1236 H1220 0.931 . S
C1236 C1230 1.383 . S
C1236 C1235 1.379 . S
H1237 C1231 0.959 1_545 S
H1238 C1231 0.961 . S
H1239 C1231 0.960 1_545 S
H1240 C1232 0.930 . S
H1241 C1233 0.929 . S
H1242 C1250 0.929 . S
H1243 C1252 0.930 . S
H1244 C1254 0.930 . S
H1245 C1257 0.929 . S
H1246 C1260 0.930 . S
H1247 C1262 0.960 . S
H1248 C1262 0.960 . S
H1249 C1262 0.960 . S
C1250 H1242 0.929 . S
C1250 C1251 1.377 . S
C1250 C1252 1.384 . S
C1251 C1250 1.377 . S
C1251 C1257 1.390 . S
C1252 H1243 0.930 . S
C1252 C1250 1.384 . S
C1252 C1253 1.372 . S
C1253 C1252 1.372 . S
C1253 C1254 1.400 . S
C1253 C1258 1.490 . S
C1254 H1244 0.930 . S
C1254 C1253 1.400 . S
C1254 C1257 1.386 . S
H1255 C1271 0.930 . S
H1256 C1272 0.931 . S
C1257 H1245 0.929 . S
C1257 C1251 1.390 . S
C1257 C1254 1.386 . S
C1258 C1253 1.490 . S
C1258 C1260 1.395 . S
C1258 C1261 1.403 . S
H1259 C1265 0.930 . S
C1260 H1246 0.930 . S
C1260 C1258 1.395 . S
C1260 C1263 1.403 . S
C1261 C1258 1.403 . S
C1261 C1262 1.524 . S
C1261 C1265 1.400 . S
C1262 H1247 0.960 . S
C1262 H1248 0.960 . S
C1262 H1249 0.960 . S
C1262 C1261 1.524 . S
C1263 C1260 1.403 . S
C1263 C1264 1.392 . S
C1263 C1267 1.495 . S
C1264 C1263 1.392 . S
C1264 C1265 1.385 . S
C1264 C1266 1.478 . S
C1265 H1259 0.930 . S
C1265 C1261 1.400 . S
C1265 C1264 1.385 . S
C1266 C1264 1.478 . S
C1266 C1268 1.381 . S
C1266 C1272 1.383 . S
C1267 C1263 1.495 . S
C1267 H1273 0.959 . S
C1267 H1274 0.961 . S
C1267 H1275 0.960 . S
C1268 C1266 1.381 . S
C1268 C1269 1.394 . S
C1268 H1276 0.930 . S
C1269 C1268 1.394 . S
C1269 C1270 1.383 . S
C1269 H1277 0.929 . S
C1270 C1269 1.383 . S
C1270 C1271 1.377 . S
C1271 H1255 0.930 . S
C1271 C1270 1.377 . S
C1271 C1272 1.379 . S
C1272 H1256 0.931 . S
C1272 C1266 1.383 . S
C1272 C1271 1.379 . S
H1273 C1267 0.959 . S
H1274 C1267 0.961 . S
H1275 C1267 0.960 . S
H1276 C1268 0.930 . S
H1277 C1269 0.929 . S
H1278 C1286 0.929 . S
H1279 C1288 0.930 . S
H1280 C1290 0.930 . S
H1281 C1293 0.929 . S
H1282 C1296 0.930 . S
H1283 C1298 0.960 . S
H1284 C1298 0.960 . S
H1285 C1298 0.960 . S
C1286 H1278 0.929 . S
C1286 C1287 1.377 . S
C1286 C1288 1.384 . S
C1287 C1286 1.377 . S
C1287 C1293 1.390 . S
C1288 H1279 0.930 . S
C1288 C1286 1.384 . S
C1288 C1289 1.372 . S
C1289 C1288 1.372 . S
C1289 C1290 1.400 . S
C1289 C1294 1.490 . S
C1290 H1280 0.930 . S
C1290 C1289 1.400 . S
C1290 C1293 1.386 . S
H1291 C1307 0.930 . S
H1292 C1308 0.931 . S
C1293 H1281 0.929 . S
C1293 C1287 1.390 . S
C1293 C1290 1.386 . S
C1294 C1289 1.490 . S
C1294 C1296 1.395 . S
C1294 C1297 1.403 . S
H1295 C1301 0.930 . S
C1296 H1282 0.930 . S
C1296 C1294 1.395 . S
C1296 C1299 1.403 . S
C1297 C1294 1.403 . S
C1297 C1298 1.524 . S
C1297 C1301 1.400 . S
C1298 H1283 0.960 . S
C1298 H1284 0.960 . S
C1298 H1285 0.960 . S
C1298 C1297 1.524 . S
C1299 C1296 1.403 . S
C1299 C1300 1.392 . S
C1299 C1303 1.495 . S
C1300 C1299 1.392 . S
C1300 C1301 1.385 . S
C1300 C1302 1.478 . S
C1301 H1295 0.930 . S
C1301 C1297 1.400 . S
C1301 C1300 1.385 . S
C1302 C1300 1.478 . S
C1302 C1304 1.381 . S
C1302 C1308 1.383 . S
C1303 C1299 1.495 . S
C1303 H1309 0.959 . S
C1303 H1310 0.961 . S
C1303 H1311 0.960 . S
C1304 C1302 1.381 . S
C1304 C1305 1.394 . S
C1304 H1312 0.930 . S
C1305 C1304 1.394 . S
C1305 C1306 1.383 . S
C1305 H1313 0.929 . S
C1306 C1305 1.383 . S
C1306 C1307 1.377 . S
C1307 H1291 0.930 . S
C1307 C1306 1.377 . S
C1307 C1308 1.379 . S
C1308 H1292 0.931 . S
C1308 C1302 1.383 . S
C1308 C1307 1.379 . S
H1309 C1303 0.959 . S
H1310 C1303 0.961 . S
H1311 C1303 0.960 . S
H1312 C1304 0.930 . S
H1313 C1305 0.929 . S
H1314 C1322 0.929 . S
H1315 C1324 0.930 . S
H1316 C1326 0.930 . S
H1317 C1329 0.929 . S
H1318 C1332 0.930 . S
H1319 C1334 0.960 . S
H1320 C1334 0.960 . S
H1321 C1334 0.960 . S
C1322 H1314 0.929 . S
C1322 C1323 1.377 . S
C1322 C1324 1.384 . S
C1323 C1322 1.377 . S
C1323 C1329 1.390 . S
C1324 H1315 0.930 . S
C1324 C1322 1.384 . S
C1324 C1325 1.372 . S
C1325 C1324 1.372 . S
C1325 C1326 1.400 . S
C1325 C1330 1.490 . S
C1326 H1316 0.930 . S
C1326 C1325 1.400 . S
C1326 C1329 1.386 . S
H1327 C1343 0.930 . S
H1328 C1344 0.931 . S
C1329 H1317 0.929 . S
C1329 C1323 1.390 . S
C1329 C1326 1.386 . S
C1330 C1325 1.490 . S
C1330 C1332 1.395 . S
C1330 C1333 1.403 . S
H1331 C1337 0.930 . S
C1332 H1318 0.930 . S
C1332 C1330 1.395 . S
C1332 C1335 1.403 . S
C1333 C1330 1.403 . S
C1333 C1334 1.524 . S
C1333 C1337 1.400 . S
C1334 H1319 0.960 . S
C1334 H1320 0.960 . S
C1334 H1321 0.960 . S
C1334 C1333 1.524 . S
C1335 C1332 1.403 . S
C1335 C1336 1.392 . S
C1335 C1339 1.495 . S
C1336 C1335 1.392 . S
C1336 C1337 1.385 . S
C1336 C1338 1.478 . S
C1337 H1331 0.930 . S
C1337 C1333 1.400 . S
C1337 C1336 1.385 . S
C1338 C1336 1.478 . S
C1338 C1340 1.381 . S
C1338 C1344 1.383 . S
C1339 C1335 1.495 . S
C1339 H1345 0.959 . S
C1339 H1346 0.961 . S
C1339 H1347 0.960 . S
C1340 C1338 1.381 . S
C1340 C1341 1.394 . S
C1340 H1348 0.930 . S
C1341 C1340 1.394 . S
C1341 C1342 1.383 . S
C1341 H1349 0.929 . S
C1342 C1341 1.383 . S
C1342 C1343 1.377 . S
C1343 H1327 0.930 . S
C1343 C1342 1.377 . S
C1343 C1344 1.379 . S
C1344 H1328 0.931 . S
C1344 C1338 1.383 . S
C1344 C1343 1.379 . S
H1345 C1339 0.959 . S
H1346 C1339 0.961 . S
H1347 C1339 0.960 . S
H1348 C1340 0.930 . S
H1349 C1341 0.929 . S
H1350 C1358 0.929 . S
H1351 C1360 0.930 . S
H1352 C1362 0.926 1_545 S
H1353 C1365 0.929 . S
H1354 C1368 0.930 . S
H1355 C1370 0.960 . S
H1356 C1370 0.960 . S
H1357 C1370 0.960 . S
C1358 H1350 0.929 . S
C1358 C1359 1.377 . S
C1358 C1360 1.384 . S
C1359 C1358 1.377 . S
C1359 C1365 1.390 . S
C1360 H1351 0.930 . S
C1360 C1358 1.384 . S
C1360 C1361 1.372 . S
C1361 C1360 1.372 . S
C1361 C1362 1.400 . S
C1361 C1366 1.490 . S
C1362 H1352 0.926 1_565 S
C1362 C1361 1.400 . S
C1362 C1365 1.386 . S
H1363 C1379 0.930 . S
H1364 C1380 0.931 . S
C1365 H1353 0.929 . S
C1365 C1359 1.390 . S
C1365 C1362 1.386 . S
C1366 C1361 1.490 . S
C1366 C1368 1.395 . S
C1366 C1369 1.403 . S
H1367 C1373 0.930 . S
C1368 H1354 0.930 . S
C1368 C1366 1.395 . S
C1368 C1371 1.403 . S
C1369 C1366 1.403 . S
C1369 C1370 1.524 . S
C1369 C1373 1.400 . S
C1370 H1355 0.960 . S
C1370 H1356 0.960 . S
C1370 H1357 0.960 . S
C1370 C1369 1.524 . S
C1371 C1368 1.403 . S
C1371 C1372 1.392 . S
C1371 C1375 1.495 . S
C1372 C1371 1.392 . S
C1372 C1373 1.385 . S
C1372 C1374 1.478 . S
C1373 H1367 0.930 . S
C1373 C1369 1.400 . S
C1373 C1372 1.385 . S
C1374 C1372 1.478 . S
C1374 C1376 1.381 . S
C1374 C1380 1.383 1_565 S
C1375 C1371 1.495 . S
C1375 H1381 0.959 . S
C1375 H1382 0.961 1_565 S
C1375 H1383 0.960 . S
C1376 C1374 1.381 . S
C1376 C1377 1.394 . S
C1376 H1384 0.930 . S
C1377 C1376 1.394 . S
C1377 C1378 1.383 . S
C1377 H1385 0.929 . S
C1378 C1377 1.383 . S
C1378 C1379 1.377 1_565 S
C1379 H1363 0.930 . S
C1379 C1378 1.377 1_545 S
C1379 C1380 1.379 . S
C1380 H1364 0.931 . S
C1380 C1374 1.383 1_545 S
C1380 C1379 1.379 . S
H1381 C1375 0.959 . S
H1382 C1375 0.961 1_545 S
H1383 C1375 0.960 . S
H1384 C1376 0.930 . S
H1385 C1377 0.929 . S
H1386 C1394 0.929 . S
H1387 C1396 0.930 . S
H1388 C1398 0.930 . S
H1389 C1401 0.929 . S
H1390 C1404 0.930 . S
H1391 C1406 0.960 . S
H1392 C1406 0.960 . S
H1393 C1406 0.960 . S
C1394 H1386 0.929 . S
C1394 C1395 1.377 . S
C1394 C1396 1.384 . S
C1395 C1394 1.377 . S
C1395 C1401 1.390 . S
C1396 H1387 0.930 . S
C1396 C1394 1.384 . S
C1396 C1397 1.372 . S
C1397 C1396 1.372 . S
C1397 C1398 1.400 . S
C1397 C1402 1.490 . S
C1398 H1388 0.930 . S
C1398 C1397 1.400 . S
C1398 C1401 1.386 . S
H1399 C1415 0.930 . S
H1400 C1416 0.931 . S
C1401 H1389 0.929 . S
C1401 C1395 1.390 . S
C1401 C1398 1.386 . S
C1402 C1397 1.490 . S
C1402 C1404 1.395 . S
C1402 C1405 1.403 . S
H1403 C1409 0.930 . S
C1404 H1390 0.930 . S
C1404 C1402 1.395 . S
C1404 C1407 1.403 . S
C1405 C1402 1.403 . S
C1405 C1406 1.524 1_455 S
C1405 C1409 1.400 . S
C1406 H1391 0.960 . S
C1406 H1392 0.960 . S
C1406 H1393 0.960 . S
C1406 C1405 1.524 1_655 S
C1407 C1404 1.403 . S
C1407 C1408 1.392 . S
C1407 C1411 1.495 . S
C1408 C1407 1.392 . S
C1408 C1409 1.385 . S
C1408 C1410 1.478 . S
C1409 H1403 0.930 . S
C1409 C1405 1.400 . S
C1409 C1408 1.385 . S
C1410 C1408 1.478 . S
C1410 C1412 1.381 . S
C1410 C1416 1.383 . S
C1411 C1407 1.495 . S
C1411 H1417 0.959 . S
C1411 H1418 0.961 . S
C1411 H1419 0.960 . S
C1412 C1410 1.381 . S
C1412 C1413 1.394 . S
C1412 H1420 0.930 . S
C1413 C1412 1.394 . S
C1413 C1414 1.383 . S
C1413 H1421 0.929 . S
C1414 C1413 1.383 . S
C1414 C1415 1.377 . S
C1415 H1399 0.930 . S
C1415 C1414 1.377 . S
C1415 C1416 1.379 . S
C1416 H1400 0.931 . S
C1416 C1410 1.383 . S
C1416 C1415 1.379 . S
H1417 C1411 0.959 . S
H1418 C1411 0.961 . S
H1419 C1411 0.960 . S
H1420 C1412 0.930 . S
H1421 C1413 0.929 . S
H1422 C1430 0.929 . S
H1423 C1432 0.930 . S
H1424 C1434 0.930 . S
H1425 C1437 0.929 . S
H1426 C1440 0.930 . S
H1427 C1442 0.960 . S
H1428 C1442 0.960 . S
H1429 C1442 0.960 . S
C1430 H1422 0.929 . S
C1430 C1431 1.377 . S
C1430 C1432 1.384 . S
C1431 C1430 1.377 . S
C1431 C1437 1.390 . S
C1432 H1423 0.930 . S
C1432 C1430 1.384 . S
C1432 C1433 1.372 . S
C1433 C1432 1.372 . S
C1433 C1434 1.400 . S
C1433 C1438 1.490 . S
C1434 H1424 0.930 . S
C1434 C1433 1.400 . S
C1434 C1437 1.386 . S
H1435 C1451 0.930 . S
H1436 C1452 0.931 . S
C1437 H1425 0.929 . S
C1437 C1431 1.390 . S
C1437 C1434 1.386 . S
C1438 C1433 1.490 . S
C1438 C1440 1.395 . S
C1438 C1441 1.403 . S
H1439 C1445 0.930 . S
C1440 H1426 0.930 . S
C1440 C1438 1.395 . S
C1440 C1443 1.403 . S
C1441 C1438 1.403 . S
C1441 C1442 1.524 . S
C1441 C1445 1.400 . S
C1442 H1427 0.960 . S
C1442 H1428 0.960 . S
C1442 H1429 0.960 . S
C1442 C1441 1.524 . S
C1443 C1440 1.403 . S
C1443 C1444 1.392 . S
C1443 C1447 1.495 . S
C1444 C1443 1.392 . S
C1444 C1445 1.385 . S
C1444 C1446 1.478 . S
C1445 H1439 0.930 . S
C1445 C1441 1.400 . S
C1445 C1444 1.385 . S
C1446 C1444 1.478 . S
C1446 C1448 1.381 . S
C1446 C1452 1.383 . S
C1447 C1443 1.495 . S
C1447 H1453 0.959 . S
C1447 H1454 0.961 . S
C1447 H1455 0.960 . S
C1448 C1446 1.381 . S
C1448 C1449 1.394 . S
C1448 H1456 0.930 . S
C1449 C1448 1.394 . S
C1449 C1450 1.383 . S
C1449 H1457 0.929 . S
C1450 C1449 1.383 . S
C1450 C1451 1.377 . S
C1451 H1435 0.930 . S
C1451 C1450 1.377 . S
C1451 C1452 1.379 . S
C1452 H1436 0.931 . S
C1452 C1446 1.383 . S
C1452 C1451 1.379 . S
H1453 C1447 0.959 . S
H1454 C1447 0.961 . S
H1455 C1447 0.960 . S
H1456 C1448 0.930 . S
H1457 C1449 0.929 . S
H1458 C1466 0.929 . S
H1459 C1468 0.930 . S
H1460 C1470 0.930 . S
H1461 C1473 0.929 . S
H1462 C1476 0.930 . S
H1463 C1478 0.960 . S
H1464 C1478 0.960 . S
H1465 C1478 0.960 . S
C1466 H1458 0.929 . S
C1466 C1467 1.377 . S
C1466 C1468 1.384 . S
C1467 C1466 1.377 . S
C1467 C1473 1.390 1_655 S
C1468 H1459 0.930 . S
C1468 C1466 1.384 . S
C1468 C1469 1.372 . S
C1469 C1468 1.372 . S
C1469 C1470 1.400 1_655 S
C1469 C1474 1.490 . S
C1470 H1460 0.930 . S
C1470 C1469 1.400 1_455 S
C1470 C1473 1.386 . S
H1471 C1487 0.930 . S
H1472 C1488 0.931 1_455 S
C1473 H1461 0.929 . S
C1473 C1467 1.390 1_455 S
C1473 C1470 1.386 . S
C1474 C1469 1.490 . S
C1474 C1476 1.395 . S
C1474 C1477 1.403 . S
H1475 C1481 0.930 . S
C1476 H1462 0.930 . S
C1476 C1474 1.395 . S
C1476 C1479 1.403 . S
C1477 C1474 1.403 . S
C1477 C1478 1.524 . S
C1477 C1481 1.400 . S
C1478 H1463 0.960 . S
C1478 H1464 0.960 . S
C1478 H1465 0.960 . S
C1478 C1477 1.524 . S
C1479 C1476 1.403 . S
C1479 C1480 1.392 . S
C1479 C1483 1.495 . S
C1480 C1479 1.392 . S
C1480 C1481 1.385 . S
C1480 C1482 1.478 . S
C1481 H1475 0.930 . S
C1481 C1477 1.400 . S
C1481 C1480 1.385 . S
C1482 C1480 1.478 . S
C1482 C1484 1.381 . S
C1482 C1488 1.383 . S
C1483 C1479 1.495 . S
C1483 H1489 0.959 . S
C1483 H1490 0.961 1_655 S
C1483 H1491 0.960 . S
C1484 C1482 1.381 . S
C1484 C1485 1.394 . S
C1484 H1492 0.930 . S
C1485 C1484 1.394 . S
C1485 C1486 1.383 . S
C1485 H1493 0.929 . S
C1486 C1485 1.383 . S
C1486 C1487 1.377 . S
C1487 H1471 0.930 . S
C1487 C1486 1.377 . S
C1487 C1488 1.379 . S
C1488 H1472 0.931 1_655 S
C1488 C1482 1.383 . S
C1488 C1487 1.379 . S
H1489 C1483 0.959 . S
H1490 C1483 0.961 1_455 S
H1491 C1483 0.960 . S
H1492 C1484 0.930 . S
H1493 C1485 0.929 . S
H1494 C1502 0.929 . S
H1495 C1504 0.930 . S
H1496 C1506 0.930 . S
H1497 C1509 0.929 . S
H1498 C1512 0.930 . S
H1499 C1514 0.960 . S
H1500 C1514 0.960 . S
H1501 C1514 0.960 . S
C1502 H1494 0.929 . S
C1502 C1503 1.377 . S
C1502 C1504 1.384 . S
C1503 C1502 1.377 . S
C1503 C1509 1.390 . S
C1504 H1495 0.930 . S
C1504 C1502 1.384 . S
C1504 C1505 1.372 . S
C1505 C1504 1.372 . S
C1505 C1506 1.400 . S
C1505 C1510 1.490 . S
C1506 H1496 0.930 . S
C1506 C1505 1.400 . S
C1506 C1509 1.386 . S
H1507 C1523 0.930 . S
H1508 C1524 0.931 . S
C1509 H1497 0.929 . S
C1509 C1503 1.390 . S
C1509 C1506 1.386 . S
C1510 C1505 1.490 . S
C1510 C1512 1.395 . S
C1510 C1513 1.403 . S
H1511 C1517 0.930 . S
C1512 H1498 0.930 . S
C1512 C1510 1.395 . S
C1512 C1515 1.403 . S
C1513 C1510 1.403 . S
C1513 C1514 1.524 . S
C1513 C1517 1.400 . S
C1514 H1499 0.960 . S
C1514 H1500 0.960 . S
C1514 H1501 0.960 . S
C1514 C1513 1.524 . S
C1515 C1512 1.403 . S
C1515 C1516 1.392 . S
C1515 C1519 1.495 . S
C1516 C1515 1.392 . S
C1516 C1517 1.385 . S
C1516 C1518 1.478 . S
C1517 H1511 0.930 . S
C1517 C1513 1.400 . S
C1517 C1516 1.385 . S
C1518 C1516 1.478 . S
C1518 C1520 1.381 . S
C1518 C1524 1.383 . S
C1519 C1515 1.495 . S
C1519 H1525 0.959 . S
C1519 H1526 0.961 . S
C1519 H1527 0.960 . S
C1520 C1518 1.381 . S
C1520 C1521 1.394 . S
C1520 H1528 0.930 . S
C1521 C1520 1.394 . S
C1521 C1522 1.383 . S
C1521 H1529 0.929 . S
C1522 C1521 1.383 . S
C1522 C1523 1.377 . S
C1523 H1507 0.930 . S
C1523 C1522 1.377 . S
C1523 C1524 1.379 . S
C1524 H1508 0.931 . S
C1524 C1518 1.383 . S
C1524 C1523 1.379 . S
H1525 C1519 0.959 . S
H1526 C1519 0.961 . S
H1527 C1519 0.960 . S
H1528 C1520 0.930 . S
H1529 C1521 0.929 . S
H1530 C1538 0.929 . S
H1531 C1540 0.930 . S
H1532 C1542 0.930 . S
H1533 C1545 0.929 . S
H1534 C1548 0.930 . S
H1535 C1550 0.960 . S
H1536 C1550 0.960 . S
H1537 C1550 0.960 . S
C1538 H1530 0.929 . S
C1538 C1539 1.377 . S
C1538 C1540 1.384 . S
C1539 C1538 1.377 . S
C1539 C1545 1.390 . S
C1540 H1531 0.930 . S
C1540 C1538 1.384 . S
C1540 C1541 1.372 . S
C1541 C1540 1.372 . S
C1541 C1542 1.400 . S
C1541 C1546 1.490 . S
C1542 H1532 0.930 . S
C1542 C1541 1.400 . S
C1542 C1545 1.386 . S
H1543 C1559 0.930 . S
H1544 C1560 0.931 . S
C1545 H1533 0.929 . S
C1545 C1539 1.390 . S
C1545 C1542 1.386 . S
C1546 C1541 1.490 . S
C1546 C1548 1.395 . S
C1546 C1549 1.403 . S
H1547 C1553 0.930 1_565 S
C1548 H1534 0.930 . S
C1548 C1546 1.395 . S
C1548 C1551 1.403 . S
C1549 C1546 1.403 . S
C1549 C1550 1.524 1_545 S
C1549 C1553 1.400 . S
C1550 H1535 0.960 . S
C1550 H1536 0.960 . S
C1550 H1537 0.960 . S
C1550 C1549 1.524 1_565 S
C1551 C1548 1.403 . S
C1551 C1552 1.392 . S
C1551 C1555 1.495 . S
C1552 C1551 1.392 . S
C1552 C1553 1.385 . S
C1552 C1554 1.478 . S
C1553 H1547 0.930 1_545 S
C1553 C1549 1.400 . S
C1553 C1552 1.385 . S
C1554 C1552 1.478 . S
C1554 C1556 1.381 . S
C1554 C1560 1.383 . S
C1555 C1551 1.495 . S
C1555 H1561 0.959 . S
C1555 H1562 0.961 . S
C1555 H1563 0.960 . S
C1556 C1554 1.381 . S
C1556 C1557 1.394 . S
C1556 H1564 0.930 . S
C1557 C1556 1.394 . S
C1557 C1558 1.383 . S
C1557 H1565 0.929 . S
C1558 C1557 1.383 . S
C1558 C1559 1.377 . S
C1559 H1543 0.930 . S
C1559 C1558 1.377 . S
C1559 C1560 1.379 . S
C1560 H1544 0.931 . S
C1560 C1554 1.383 . S
C1560 C1559 1.379 . S
H1561 C1555 0.959 . S
H1562 C1555 0.961 . S
H1563 C1555 0.960 . S
H1564 C1556 0.930 . S
H1565 C1557 0.929 . S
H1566 C1574 0.929 1_455 S
H1567 C1576 0.930 . S
H1568 C1578 0.930 . S
H1569 C1581 0.929 . S
H1570 C1584 0.930 . S
H1571 C1586 0.960 . S
H1572 C1586 0.960 . S
H1573 C1586 0.960 . S
C1574 H1566 0.929 1_655 S
C1574 C1575 1.377 . S
C1574 C1576 1.384 1_655 S
C1575 C1574 1.377 . S
C1575 C1581 1.390 . S
C1576 H1567 0.930 . S
C1576 C1574 1.384 1_455 S
C1576 C1577 1.372 1_455 S
C1577 C1576 1.372 1_655 S
C1577 C1578 1.400 . S
C1577 C1582 1.490 . S
C1578 H1568 0.930 . S
C1578 C1577 1.400 . S
C1578 C1581 1.386 . S
H1579 C1595 0.930 . S
H1580 C1596 0.931 . S
C1581 H1569 0.929 . S
C1581 C1575 1.390 . S
C1581 C1578 1.386 . S
C1582 C1577 1.490 . S
C1582 C1584 1.395 1_655 S
C1582 C1585 1.403 . S
H1583 C1589 0.930 . S
C1584 H1570 0.930 . S
C1584 C1582 1.395 1_455 S
C1584 C1587 1.403 . S
C1585 C1582 1.403 . S
C1585 C1586 1.524 . S
C1585 C1589 1.400 . S
C1586 H1571 0.960 . S
C1586 H1572 0.960 . S
C1586 H1573 0.960 . S
C1586 C1585 1.524 . S
C1587 C1584 1.403 . S
C1587 C1588 1.392 . S
C1587 C1591 1.495 . S
C1588 C1587 1.392 . S
C1588 C1589 1.385 1_455 S
C1588 C1590 1.478 . S
C1589 H1583 0.930 . S
C1589 C1585 1.400 . S
C1589 C1588 1.385 1_655 S
C1590 C1588 1.478 . S
C1590 C1592 1.381 . S
C1590 C1596 1.383 . S
C1591 C1587 1.495 . S
C1591 H1597 0.959 . S
C1591 H1598 0.961 . S
C1591 H1599 0.960 . S
C1592 C1590 1.381 . S
C1592 C1593 1.394 . S
C1592 H1600 0.930 . S
C1593 C1592 1.394 . S
C1593 C1594 1.383 . S
C1593 H1601 0.929 . S
C1594 C1593 1.383 . S
C1594 C1595 1.377 . S
C1595 H1579 0.930 . S
C1595 C1594 1.377 . S
C1595 C1596 1.379 . S
C1596 H1580 0.931 . S
C1596 C1590 1.383 . S
C1596 C1595 1.379 . S
H1597 C1591 0.959 . S
H1598 C1591 0.961 . S
H1599 C1591 0.960 . S
H1600 C1592 0.930 . S
H1601 C1593 0.929 . S
H1602 C1610 0.929 . S
H1603 C1612 0.930 . S
H1604 C1614 0.930 . S
H1605 C1617 0.929 . S
H1606 C1620 0.930 . S
H1607 C1622 0.960 . S
H1608 C1622 0.960 . S
H1609 C1622 0.960 . S
C1610 H1602 0.929 . S
C1610 C1611 1.377 . S
C1610 C1612 1.384 . S
C1611 C1610 1.377 . S
C1611 C1617 1.390 . S
C1612 H1603 0.930 . S
C1612 C1610 1.384 . S
C1612 C1613 1.372 . S
C1613 C1612 1.372 . S
C1613 C1614 1.400 . S
C1613 C1618 1.490 . S
C1614 H1604 0.930 . S
C1614 C1613 1.400 . S
C1614 C1617 1.386 . S
H1615 C1631 0.930 . S
H1616 C1632 0.931 . S
C1617 H1605 0.929 . S
C1617 C1611 1.390 . S
C1617 C1614 1.386 . S
C1618 C1613 1.490 . S
C1618 C1620 1.395 . S
C1618 C1621 1.403 . S
H1619 C1625 0.930 . S
C1620 H1606 0.930 . S
C1620 C1618 1.395 . S
C1620 C1623 1.403 . S
C1621 C1618 1.403 . S
C1621 C1622 1.524 . S
C1621 C1625 1.400 . S
C1622 H1607 0.960 . S
C1622 H1608 0.960 . S
C1622 H1609 0.960 . S
C1622 C1621 1.524 . S
C1623 C1620 1.403 . S
C1623 C1624 1.392 . S
C1623 C1627 1.495 . S
C1624 C1623 1.392 . S
C1624 C1625 1.385 . S
C1624 C1626 1.478 . S
C1625 H1619 0.930 . S
C1625 C1621 1.400 . S
C1625 C1624 1.385 . S
C1626 C1624 1.478 . S
C1626 C1628 1.381 . S
C1626 C1632 1.383 . S
C1627 C1623 1.495 . S
C1627 H1633 0.959 . S
C1627 H1634 0.961 . S
C1627 H1635 0.960 . S
C1628 C1626 1.381 . S
C1628 C1629 1.394 . S
C1628 H1636 0.930 . S
C1629 C1628 1.394 . S
C1629 C1630 1.383 . S
C1629 H1637 0.929 . S
C1630 C1629 1.383 . S
C1630 C1631 1.377 . S
C1631 H1615 0.930 . S
C1631 C1630 1.377 . S
C1631 C1632 1.379 . S
C1632 H1616 0.931 . S
C1632 C1626 1.383 . S
C1632 C1631 1.379 . S
H1633 C1627 0.959 . S
H1634 C1627 0.961 . S
H1635 C1627 0.960 . S
H1636 C1628 0.930 . S
H1637 C1629 0.929 . S
H1638 C1646 0.929 1_545 S
H1639 C1648 0.930 . S
H1640 C1650 0.930 . S
H1641 C1653 0.929 . S
H1642 C1656 0.930 . S
H1643 C1658 0.960 . S
H1644 C1658 0.960 . S
H1645 C1658 0.960 1_565 S
C1646 H1638 0.929 1_565 S
C1646 C1647 1.377 . S
C1646 C1648 1.384 1_565 S
C1647 C1646 1.377 . S
C1647 C1653 1.390 . S
C1648 H1639 0.930 . S
C1648 C1646 1.384 1_545 S
C1648 C1649 1.372 1_545 S
C1649 C1648 1.372 1_565 S
C1649 C1650 1.400 . S
C1649 C1654 1.490 . S
C1650 H1640 0.930 . S
C1650 C1649 1.400 . S
C1650 C1653 1.386 . S
H1651 C1667 0.930 . S
H1652 C1668 0.931 1_565 S
C1653 H1641 0.929 . S
C1653 C1647 1.390 . S
C1653 C1650 1.386 . S
C1654 C1649 1.490 . S
C1654 C1656 1.395 . S
C1654 C1657 1.403 1_565 S
H1655 C1661 0.930 . S
C1656 H1642 0.930 . S
C1656 C1654 1.395 . S
C1656 C1659 1.403 1_565 S
C1657 C1654 1.403 1_545 S
C1657 C1658 1.524 . S
C1657 C1661 1.400 . S
C1658 H1643 0.960 . S
C1658 H1644 0.960 . S
C1658 H1645 0.960 1_545 S
C1658 C1657 1.524 . S
C1659 C1656 1.403 1_545 S
C1659 C1660 1.392 . S
C1659 C1663 1.495 . S
C1660 C1659 1.392 . S
C1660 C1661 1.385 . S
C1660 C1662 1.478 . S
C1661 H1655 0.930 . S
C1661 C1657 1.400 . S
C1661 C1660 1.385 . S
C1662 C1660 1.478 . S
C1662 C1664 1.381 . S
C1662 C1668 1.383 . S
C1663 C1659 1.495 . S
C1663 H1669 0.959 1_545 S
C1663 H1670 0.961 1_545 S
C1663 H1671 0.960 . S
C1664 C1662 1.381 . S
C1664 C1665 1.394 . S
C1664 H1672 0.930 . S
C1665 C1664 1.394 . S
C1665 C1666 1.383 . S
C1665 H1673 0.929 . S
C1666 C1665 1.383 . S
C1666 C1667 1.377 . S
C1667 H1651 0.930 . S
C1667 C1666 1.377 . S
C1667 C1668 1.379 . S
C1668 H1652 0.931 1_545 S
C1668 C1662 1.383 . S
C1668 C1667 1.379 . S
H1669 C1663 0.959 1_565 S
H1670 C1663 0.961 1_565 S
H1671 C1663 0.960 . S
H1672 C1664 0.930 . S
H1673 C1665 0.929 . S
H1674 C1682 0.929 . S
H1675 C1684 0.930 . S
H1676 C1686 0.930 . S
H1677 C1689 0.929 . S
H1678 C1692 0.930 . S
H1679 C1694 0.960 . S
H1680 C1694 0.960 . S
H1681 C1694 0.960 . S
C1682 H1674 0.929 . S
C1682 C1683 1.377 . S
C1682 C1684 1.384 . S
C1683 C1682 1.377 . S
C1683 C1689 1.390 . S
C1684 H1675 0.930 . S
C1684 C1682 1.384 . S
C1684 C1685 1.372 . S
C1685 C1684 1.372 . S
C1685 C1686 1.400 . S
C1685 C1690 1.490 . S
C1686 H1676 0.930 . S
C1686 C1685 1.400 . S
C1686 C1689 1.386 . S
H1687 C1703 0.930 . S
H1688 C1704 0.931 . S
C1689 H1677 0.929 . S
C1689 C1683 1.390 . S
C1689 C1686 1.386 . S
C1690 C1685 1.490 . S
C1690 C1692 1.395 . S
C1690 C1693 1.403 . S
H1691 C1697 0.930 . S
C1692 H1678 0.930 . S
C1692 C1690 1.395 . S
C1692 C1695 1.403 . S
C1693 C1690 1.403 . S
C1693 C1694 1.524 . S
C1693 C1697 1.400 . S
C1694 H1679 0.960 . S
C1694 H1680 0.960 . S
C1694 H1681 0.960 . S
C1694 C1693 1.524 . S
C1695 C1692 1.403 . S
C1695 C1696 1.392 . S
C1695 C1699 1.495 . S
C1696 C1695 1.392 . S
C1696 C1697 1.385 . S
C1696 C1698 1.478 . S
C1697 H1691 0.930 . S
C1697 C1693 1.400 . S
C1697 C1696 1.385 . S
C1698 C1696 1.478 . S
C1698 C1700 1.381 . S
C1698 C1704 1.383 . S
C1699 C1695 1.495 . S
C1699 H1705 0.959 . S
C1699 H1706 0.961 . S
C1699 H1707 0.960 . S
C1700 C1698 1.381 . S
C1700 C1701 1.394 . S
C1700 H1708 0.930 . S
C1701 C1700 1.394 . S
C1701 C1702 1.383 . S
C1701 H1709 0.929 . S
C1702 C1701 1.383 . S
C1702 C1703 1.377 . S
C1703 H1687 0.930 . S
C1703 C1702 1.377 . S
C1703 C1704 1.379 . S
C1704 H1688 0.931 . S
C1704 C1698 1.383 . S
C1704 C1703 1.379 . S
H1705 C1699 0.959 . S
H1706 C1699 0.961 . S
H1707 C1699 0.960 . S
H1708 C1700 0.930 . S
H1709 C1701 0.929 . S
H1710 C1718 0.929 . S
H1711 C1720 0.930 . S
H1712 C1722 0.930 . S
H1713 C1725 0.929 . S
H1714 C1728 0.930 . S
H1715 C1730 0.960 . S
H1716 C1730 0.960 . S
H1717 C1730 0.960 . S
C1718 H1710 0.929 . S
C1718 C1719 1.377 . S
C1718 C1720 1.384 . S
C1719 C1718 1.377 . S
C1719 C1725 1.390 . S
C1720 H1711 0.930 . S
C1720 C1718 1.384 . S
C1720 C1721 1.372 . S
C1721 C1720 1.372 . S
C1721 C1722 1.400 . S
C1721 C1726 1.490 . S
C1722 H1712 0.930 . S
C1722 C1721 1.400 . S
C1722 C1725 1.386 . S
H1723 C1739 0.930 . S
H1724 C1740 0.931 . S
C1725 H1713 0.929 . S
C1725 C1719 1.390 . S
C1725 C1722 1.386 . S
C1726 C1721 1.490 . S
C1726 C1728 1.395 . S
C1726 C1729 1.403 . S
H1727 C1733 0.930 . S
C1728 H1714 0.930 . S
C1728 C1726 1.395 . S
C1728 C1731 1.403 . S
C1729 C1726 1.403 . S
C1729 C1730 1.524 . S
C1729 C1733 1.400 . S
C1730 H1715 0.960 . S
C1730 H1716 0.960 . S
C1730 H1717 0.960 . S
C1730 C1729 1.524 . S
C1731 C1728 1.403 . S
C1731 C1732 1.392 . S
C1731 C1735 1.495 . S
C1732 C1731 1.392 . S
C1732 C1733 1.385 . S
C1732 C1734 1.478 . S
C1733 H1727 0.930 . S
C1733 C1729 1.400 . S
C1733 C1732 1.385 . S
C1734 C1732 1.478 . S
C1734 C1736 1.381 . S
C1734 C1740 1.383 . S
C1735 C1731 1.495 . S
C1735 H1741 0.959 . S
C1735 H1742 0.961 . S
C1735 H1743 0.960 . S
C1736 C1734 1.381 . S
C1736 C1737 1.394 . S
C1736 H1744 0.930 . S
C1737 C1736 1.394 . S
C1737 C1738 1.383 . S
C1737 H1745 0.929 . S
C1738 C1737 1.383 . S
C1738 C1739 1.377 . S
C1739 H1723 0.930 . S
C1739 C1738 1.377 . S
C1739 C1740 1.379 . S
C1740 H1724 0.931 . S
C1740 C1734 1.383 . S
C1740 C1739 1.379 . S
H1741 C1735 0.959 . S
H1742 C1735 0.961 . S
H1743 C1735 0.960 . S
H1744 C1736 0.930 . S
H1745 C1737 0.929 . S
H1746 C1754 0.929 . S
H1747 C1756 0.930 . S
H1748 C1758 0.930 . S
H1749 C1761 0.929 . S
H1750 C1764 0.930 . S
H1751 C1766 0.960 . S
H1752 C1766 0.960 . S
H1753 C1766 0.960 . S
C1754 H1746 0.929 . S
C1754 C1755 1.377 . S
C1754 C1756 1.384 . S
C1755 C1754 1.377 . S
C1755 C1761 1.390 . S
C1756 H1747 0.930 . S
C1756 C1754 1.384 . S
C1756 C1757 1.372 . S
C1757 C1756 1.372 . S
C1757 C1758 1.400 . S
C1757 C1762 1.490 . S
C1758 H1748 0.930 . S
C1758 C1757 1.400 . S
C1758 C1761 1.386 . S
H1759 C1775 0.930 . S
H1760 C1776 0.931 . S
C1761 H1749 0.929 . S
C1761 C1755 1.390 . S
C1761 C1758 1.386 . S
C1762 C1757 1.490 . S
C1762 C1764 1.395 . S
C1762 C1765 1.403 . S
H1763 C1769 0.930 . S
C1764 H1750 0.930 . S
C1764 C1762 1.395 . S
C1764 C1767 1.403 . S
C1765 C1762 1.403 . S
C1765 C1766 1.524 . S
C1765 C1769 1.400 . S
C1766 H1751 0.960 . S
C1766 H1752 0.960 . S
C1766 H1753 0.960 . S
C1766 C1765 1.524 . S
C1767 C1764 1.403 . S
C1767 C1768 1.392 . S
C1767 C1771 1.495 . S
C1768 C1767 1.392 . S
C1768 C1769 1.385 . S
C1768 C1770 1.478 . S
C1769 H1763 0.930 . S
C1769 C1765 1.400 . S
C1769 C1768 1.385 . S
C1770 C1768 1.478 . S
C1770 C1772 1.381 . S
C1770 C1776 1.383 . S
C1771 C1767 1.495 . S
C1771 H1777 0.959 . S
C1771 H1778 0.961 . S
C1771 H1779 0.960 . S
C1772 C1770 1.381 . S
C1772 C1773 1.394 . S
C1772 H1780 0.930 . S
C1773 C1772 1.394 . S
C1773 C1774 1.383 . S
C1773 H1781 0.929 . S
C1774 C1773 1.383 . S
C1774 C1775 1.377 . S
C1775 H1759 0.930 . S
C1775 C1774 1.377 . S
C1775 C1776 1.379 . S
C1776 H1760 0.931 . S
C1776 C1770 1.383 . S
C1776 C1775 1.379 . S
H1777 C1771 0.959 . S
H1778 C1771 0.961 . S
H1779 C1771 0.960 . S
H1780 C1772 0.930 . S
H1781 C1773 0.929 . S
H1782 C1790 0.929 . S
H1783 C1792 0.930 . S
H1784 C1794 0.930 . S
H1785 C1797 0.929 . S
H1786 C1800 0.930 . S
H1787 C1802 0.960 . S
H1788 C1802 0.960 . S
H1789 C1802 0.960 . S
C1790 H1782 0.929 . S
C1790 C1791 1.377 . S
C1790 C1792 1.384 . S
C1791 C1790 1.377 . S
C1791 C1797 1.390 . S
C1792 H1783 0.930 . S
C1792 C1790 1.384 . S
C1792 C1793 1.372 . S
C1793 C1792 1.372 . S
C1793 C1794 1.400 . S
C1793 C1798 1.490 . S
C1794 H1784 0.930 . S
C1794 C1793 1.400 . S
C1794 C1797 1.386 . S
H1795 C1811 0.930 . S
H1796 C1812 0.931 . S
C1797 H1785 0.929 . S
C1797 C1791 1.390 . S
C1797 C1794 1.386 . S
C1798 C1793 1.490 . S
C1798 C1800 1.395 . S
C1798 C1801 1.403 . S
H1799 C1805 0.930 . S
C1800 H1786 0.930 . S
C1800 C1798 1.395 . S
C1800 C1803 1.403 . S
C1801 C1798 1.403 . S
C1801 C1802 1.524 . S
C1801 C1805 1.400 . S
C1802 H1787 0.960 . S
C1802 H1788 0.960 . S
C1802 H1789 0.960 . S
C1802 C1801 1.524 . S
C1803 C1800 1.403 . S
C1803 C1804 1.392 . S
C1803 C1807 1.495 . S
C1804 C1803 1.392 . S
C1804 C1805 1.385 . S
C1804 C1806 1.478 . S
C1805 H1799 0.930 . S
C1805 C1801 1.400 . S
C1805 C1804 1.385 . S
C1806 C1804 1.478 . S
C1806 C1808 1.381 . S
C1806 C1812 1.383 . S
C1807 C1803 1.495 . S
C1807 H1813 0.959 . S
C1807 H1814 0.961 . S
C1807 H1815 0.960 . S
C1808 C1806 1.381 . S
C1808 C1809 1.394 . S
C1808 H1816 0.930 . S
C1809 C1808 1.394 . S
C1809 C1810 1.383 . S
C1809 H1817 0.929 . S
C1810 C1809 1.383 . S
C1810 C1811 1.377 . S
C1811 H1795 0.930 . S
C1811 C1810 1.377 . S
C1811 C1812 1.379 . S
C1812 H1796 0.931 . S
C1812 C1806 1.383 . S
C1812 C1811 1.379 . S
H1813 C1807 0.959 . S
H1814 C1807 0.961 . S
H1815 C1807 0.960 . S
H1816 C1808 0.930 . S
H1817 C1809 0.929 . S
H1818 C1826 0.929 . S
H1819 C1828 0.930 . S
H1820 C1830 0.930 . S
H1821 C1833 0.929 . S
H1822 C1836 0.930 . S
H1823 C1838 0.960 . S
H1824 C1838 0.960 . S
H1825 C1838 0.960 . S
C1826 H1818 0.929 . S
C1826 C1827 1.377 . S
C1826 C1828 1.384 . S
C1827 C1826 1.377 . S
C1827 C1833 1.390 . S
C1828 H1819 0.930 . S
C1828 C1826 1.384 . S
C1828 C1829 1.372 . S
C1829 C1828 1.372 . S
C1829 C1830 1.400 . S
C1829 C1834 1.490 . S
C1830 H1820 0.930 . S
C1830 C1829 1.400 . S
C1830 C1833 1.386 . S
H1831 C1847 0.930 . S
H1832 C1848 0.931 . S
C1833 H1821 0.929 . S
C1833 C1827 1.390 . S
C1833 C1830 1.386 . S
C1834 C1829 1.490 . S
C1834 C1836 1.395 . S
C1834 C1837 1.403 . S
H1835 C1841 0.930 . S
C1836 H1822 0.930 . S
C1836 C1834 1.395 . S
C1836 C1839 1.403 . S
C1837 C1834 1.403 . S
C1837 C1838 1.524 . S
C1837 C1841 1.400 . S
C1838 H1823 0.960 . S
C1838 H1824 0.960 . S
C1838 H1825 0.960 . S
C1838 C1837 1.524 . S
C1839 C1836 1.403 . S
C1839 C1840 1.392 . S
C1839 C1843 1.495 . S
C1840 C1839 1.392 . S
C1840 C1841 1.385 . S
C1840 C1842 1.478 . S
C1841 H1835 0.930 . S
C1841 C1837 1.400 . S
C1841 C1840 1.385 . S
C1842 C1840 1.478 . S
C1842 C1844 1.381 . S
C1842 C1848 1.383 . S
C1843 C1839 1.495 . S
C1843 H1849 0.959 . S
C1843 H1850 0.961 . S
C1843 H1851 0.960 . S
C1844 C1842 1.381 . S
C1844 C1845 1.394 . S
C1844 H1852 0.930 . S
C1845 C1844 1.394 . S
C1845 C1846 1.383 . S
C1845 H1853 0.929 . S
C1846 C1845 1.383 . S
C1846 C1847 1.377 . S
C1847 H1831 0.930 . S
C1847 C1846 1.377 . S
C1847 C1848 1.379 . S
C1848 H1832 0.931 . S
C1848 C1842 1.383 . S
C1848 C1847 1.379 . S
H1849 C1843 0.959 . S
H1850 C1843 0.961 . S
H1851 C1843 0.960 . S
H1852 C1844 0.930 . S
H1853 C1845 0.929 . S
H1854 C1862 0.929 . S
H1855 C1864 0.930 . S
H1856 C1866 0.930 . S
H1857 C1869 0.929 . S
H1858 C1872 0.930 . S
H1859 C1874 0.960 . S
H1860 C1874 0.960 . S
H1861 C1874 0.960 . S
C1862 H1854 0.929 . S
C1862 C1863 1.377 . S
C1862 C1864 1.384 . S
C1863 C1862 1.377 . S
C1863 C1869 1.390 . S
C1864 H1855 0.930 . S
C1864 C1862 1.384 . S
C1864 C1865 1.372 . S
C1865 C1864 1.372 . S
C1865 C1866 1.400 . S
C1865 C1870 1.490 . S
C1866 H1856 0.930 . S
C1866 C1865 1.400 . S
C1866 C1869 1.386 . S
H1867 C1883 0.930 . S
H1868 C1884 0.931 . S
C1869 H1857 0.929 . S
C1869 C1863 1.390 . S
C1869 C1866 1.386 . S
C1870 C1865 1.490 . S
C1870 C1872 1.395 . S
C1870 C1873 1.403 . S
H1871 C1877 0.930 . S
C1872 H1858 0.930 . S
C1872 C1870 1.395 . S
C1872 C1875 1.403 . S
C1873 C1870 1.403 . S
C1873 C1874 1.524 . S
C1873 C1877 1.400 . S
C1874 H1859 0.960 . S
C1874 H1860 0.960 . S
C1874 H1861 0.960 . S
C1874 C1873 1.524 . S
C1875 C1872 1.403 . S
C1875 C1876 1.392 . S
C1875 C1879 1.495 . S
C1876 C1875 1.392 . S
C1876 C1877 1.385 . S
C1876 C1878 1.478 . S
C1877 H1871 0.930 . S
C1877 C1873 1.400 . S
C1877 C1876 1.385 . S
C1878 C1876 1.478 . S
C1878 C1880 1.381 . S
C1878 C1884 1.383 . S
C1879 C1875 1.495 . S
C1879 H1885 0.959 . S
C1879 H1886 0.961 . S
C1879 H1887 0.960 . S
C1880 C1878 1.381 . S
C1880 C1881 1.394 . S
C1880 H1888 0.930 . S
C1881 C1880 1.394 . S
C1881 C1882 1.383 . S
C1881 H1889 0.929 . S
C1882 C1881 1.383 . S
C1882 C1883 1.377 . S
C1883 H1867 0.930 . S
C1883 C1882 1.377 . S
C1883 C1884 1.379 . S
C1884 H1868 0.931 . S
C1884 C1878 1.383 . S
C1884 C1883 1.379 . S
H1885 C1879 0.959 . S
H1886 C1879 0.961 . S
H1887 C1879 0.960 . S
H1888 C1880 0.930 . S
H1889 C1881 0.929 . S
H1890 C1898 0.929 . S
H1891 C1900 0.930 . S
H1892 C1902 0.930 . S
H1893 C1905 0.929 . S
H1894 C1908 0.930 . S
H1895 C1910 0.960 . S
H1896 C1910 0.960 . S
H1897 C1910 0.960 . S
C1898 H1890 0.929 . S
C1898 C1899 1.377 . S
C1898 C1900 1.384 . S
C1899 C1898 1.377 . S
C1899 C1905 1.390 . S
C1900 H1891 0.930 . S
C1900 C1898 1.384 . S
C1900 C1901 1.372 . S
C1901 C1900 1.372 . S
C1901 C1902 1.400 . S
C1901 C1906 1.490 . S
C1902 H1892 0.930 . S
C1902 C1901 1.400 . S
C1902 C1905 1.386 . S
H1903 C1919 0.930 . S
H1904 C1920 0.931 . S
C1905 H1893 0.929 . S
C1905 C1899 1.390 . S
C1905 C1902 1.386 . S
C1906 C1901 1.490 . S
C1906 C1908 1.395 . S
C1906 C1909 1.403 . S
H1907 C1913 0.930 . S
C1908 H1894 0.930 . S
C1908 C1906 1.395 . S
C1908 C1911 1.403 . S
C1909 C1906 1.403 . S
C1909 C1910 1.524 . S
C1909 C1913 1.400 . S
C1910 H1895 0.960 . S
C1910 H1896 0.960 . S
C1910 H1897 0.960 . S
C1910 C1909 1.524 . S
C1911 C1908 1.403 . S
C1911 C1912 1.392 . S
C1911 C1915 1.495 . S
C1912 C1911 1.392 . S
C1912 C1913 1.385 . S
C1912 C1914 1.478 . S
C1913 H1907 0.930 . S
C1913 C1909 1.400 . S
C1913 C1912 1.385 . S
C1914 C1912 1.478 . S
C1914 C1916 1.381 . S
C1914 C1920 1.383 . S
C1915 C1911 1.495 . S
C1915 H1921 0.959 . S
C1915 H1922 0.961 . S
C1915 H1923 0.960 . S
C1916 C1914 1.381 . S
C1916 C1917 1.394 . S
C1916 H1924 0.930 . S
C1917 C1916 1.394 . S
C1917 C1918 1.383 . S
C1917 H1925 0.929 . S
C1918 C1917 1.383 . S
C1918 C1919 1.377 . S
C1919 H1903 0.930 . S
C1919 C1918 1.377 . S
C1919 C1920 1.379 . S
C1920 H1904 0.931 . S
C1920 C1914 1.383 . S
C1920 C1919 1.379 . S
H1921 C1915 0.959 . S
H1922 C1915 0.961 . S
H1923 C1915 0.960 . S
H1924 C1916 0.930 . S
H1925 C1917 0.929 . S
H1926 C1934 0.929 . S
H1927 C1936 0.930 . S
H1928 C1938 0.930 . S
H1929 C1941 0.929 . S
H1930 C1944 0.930 . S
H1931 C1946 0.960 . S
H1932 C1946 0.960 . S
H1933 C1946 0.960 . S
C1934 H1926 0.929 . S
C1934 C1935 1.377 . S
C1934 C1936 1.384 . S
C1935 C1934 1.377 . S
C1935 C1941 1.390 . S
C1936 H1927 0.930 . S
C1936 C1934 1.384 . S
C1936 C1937 1.372 . S
C1937 C1936 1.372 . S
C1937 C1938 1.400 . S
C1937 C1942 1.490 . S
C1938 H1928 0.930 . S
C1938 C1937 1.400 . S
C1938 C1941 1.386 . S
H1939 C1955 0.930 . S
H1940 C1956 0.931 . S
C1941 H1929 0.929 . S
C1941 C1935 1.390 . S
C1941 C1938 1.386 . S
C1942 C1937 1.490 . S
C1942 C1944 1.395 . S
C1942 C1945 1.403 . S
H1943 C1949 0.930 . S
C1944 H1930 0.930 . S
C1944 C1942 1.395 . S
C1944 C1947 1.403 . S
C1945 C1942 1.403 . S
C1945 C1946 1.524 . S
C1945 C1949 1.400 . S
C1946 H1931 0.960 . S
C1946 H1932 0.960 . S
C1946 H1933 0.960 . S
C1946 C1945 1.524 . S
C1947 C1944 1.403 . S
C1947 C1948 1.392 . S
C1947 C1951 1.495 . S
C1948 C1947 1.392 . S
C1948 C1949 1.385 . S
C1948 C1950 1.478 . S
C1949 H1943 0.930 . S
C1949 C1945 1.400 . S
C1949 C1948 1.385 . S
C1950 C1948 1.478 . S
C1950 C1952 1.381 . S
C1950 C1956 1.383 . S
C1951 C1947 1.495 . S
C1951 H1957 0.959 . S
C1951 H1958 0.961 . S
C1951 H1959 0.960 . S
C1952 C1950 1.381 . S
C1952 C1953 1.394 . S
C1952 H1960 0.930 . S
C1953 C1952 1.394 . S
C1953 C1954 1.383 . S
C1953 H1961 0.929 . S
C1954 C1953 1.383 . S
C1954 C1955 1.377 . S
C1955 H1939 0.930 . S
C1955 C1954 1.377 . S
C1955 C1956 1.379 . S
C1956 H1940 0.931 . S
C1956 C1950 1.383 . S
C1956 C1955 1.379 . S
H1957 C1951 0.959 . S
H1958 C1951 0.961 . S
H1959 C1951 0.960 . S
H1960 C1952 0.930 . S
H1961 C1953 0.929 . S
H1962 C1970 0.929 . S
H1963 C1972 0.930 . S
H1964 C1974 0.930 . S
H1965 C1977 0.929 . S
H1966 C1980 0.930 . S
H1967 C1982 0.960 . S
H1968 C1982 0.960 . S
H1969 C1982 0.960 . S
C1970 H1962 0.929 . S
C1970 C1971 1.377 . S
C1970 C1972 1.384 . S
C1971 C1970 1.377 . S
C1971 C1977 1.390 . S
C1972 H1963 0.930 . S
C1972 C1970 1.384 . S
C1972 C1973 1.372 . S
C1973 C1972 1.372 . S
C1973 C1974 1.400 . S
C1973 C1978 1.490 . S
C1974 H1964 0.930 . S
C1974 C1973 1.400 . S
C1974 C1977 1.386 . S
H1975 C1991 0.930 . S
H1976 C1992 0.931 . S
C1977 H1965 0.929 . S
C1977 C1971 1.390 . S
C1977 C1974 1.386 . S
C1978 C1973 1.490 . S
C1978 C1980 1.395 . S
C1978 C1981 1.403 . S
H1979 C1985 0.930 . S
C1980 H1966 0.930 . S
C1980 C1978 1.395 . S
C1980 C1983 1.403 . S
C1981 C1978 1.403 . S
C1981 C1982 1.524 . S
C1981 C1985 1.400 . S
C1982 H1967 0.960 . S
C1982 H1968 0.960 . S
C1982 H1969 0.960 . S
C1982 C1981 1.524 . S
C1983 C1980 1.403 . S
C1983 C1984 1.392 . S
C1983 C1987 1.495 . S
C1984 C1983 1.392 . S
C1984 C1985 1.385 . S
C1984 C1986 1.478 . S
C1985 H1979 0.930 . S
C1985 C1981 1.400 . S
C1985 C1984 1.385 . S
C1986 C1984 1.478 . S
C1986 C1988 1.381 . S
C1986 C1992 1.383 . S
C1987 C1983 1.495 . S
C1987 H1993 0.959 . S
C1987 H1994 0.961 . S
C1987 H1995 0.960 . S
C1988 C1986 1.381 . S
C1988 C1989 1.394 . S
C1988 H1996 0.930 . S
C1989 C1988 1.394 . S
C1989 C1990 1.383 . S
C1989 H1997 0.929 . S
C1990 C1989 1.383 . S
C1990 C1991 1.377 . S
C1991 H1975 0.930 . S
C1991 C1990 1.377 . S
C1991 C1992 1.379 . S
C1992 H1976 0.931 . S
C1992 C1986 1.383 . S
C1992 C1991 1.379 . S
H1993 C1987 0.959 . S
H1994 C1987 0.961 . S
H1995 C1987 0.960 . S
H1996 C1988 0.930 . S
H1997 C1989 0.929 . S
H1998 C2006 0.929 . S
H1999 C2008 0.930 . S
H2000 C2010 0.930 . S
H2001 C2013 0.929 . S
H2002 C2016 0.930 . S
H2003 C2018 0.960 . S
H2004 C2018 0.960 . S
H2005 C2018 0.960 . S
C2006 H1998 0.929 . S
C2006 C2007 1.377 . S
C2006 C2008 1.384 . S
C2007 C2006 1.377 . S
C2007 C2013 1.390 . S
C2008 H1999 0.930 . S
C2008 C2006 1.384 . S
C2008 C2009 1.372 . S
C2009 C2008 1.372 . S
C2009 C2010 1.400 . S
C2009 C2014 1.490 . S
C2010 H2000 0.930 . S
C2010 C2009 1.400 . S
C2010 C2013 1.386 . S
H2011 C2027 0.930 . S
H2012 C2028 0.931 . S
C2013 H2001 0.929 . S
C2013 C2007 1.390 . S
C2013 C2010 1.386 . S
C2014 C2009 1.490 . S
C2014 C2016 1.395 . S
C2014 C2017 1.403 . S
H2015 C2021 0.930 1_455 S
C2016 H2002 0.930 . S
C2016 C2014 1.395 . S
C2016 C2019 1.403 . S
C2017 C2014 1.403 . S
C2017 C2018 1.524 . S
C2017 C2021 1.400 . S
C2018 H2003 0.960 . S
C2018 H2004 0.960 . S
C2018 H2005 0.960 . S
C2018 C2017 1.524 . S
C2019 C2016 1.403 . S
C2019 C2020 1.392 . S
C2019 C2023 1.495 . S
C2020 C2019 1.392 . S
C2020 C2021 1.385 . S
C2020 C2022 1.478 1_655 S
C2021 H2015 0.930 1_655 S
C2021 C2017 1.400 . S
C2021 C2020 1.385 . S
C2022 C2020 1.478 1_455 S
C2022 C2024 1.381 . S
C2022 C2028 1.383 . S
C2023 C2019 1.495 . S
C2023 H2029 0.959 . S
C2023 H2030 0.961 . S
C2023 H2031 0.960 . S
C2024 C2022 1.381 . S
C2024 C2025 1.394 . S
C2024 H2032 0.930 . S
C2025 C2024 1.394 . S
C2025 C2026 1.383 . S
C2025 H2033 0.929 . S
C2026 C2025 1.383 . S
C2026 C2027 1.377 . S
C2027 H2011 0.930 . S
C2027 C2026 1.377 . S
C2027 C2028 1.379 . S
C2028 H2012 0.931 . S
C2028 C2022 1.383 . S
C2028 C2027 1.379 . S
H2029 C2023 0.959 . S
H2030 C2023 0.961 . S
H2031 C2023 0.960 . S
H2032 C2024 0.930 . S
H2033 C2025 0.929 . S
H2034 C2042 0.929 1_565 S
H2035 C2044 0.930 . S
H2036 C2046 0.930 . S
H2037 C2049 0.929 . S
H2038 C2052 0.930 . S
H2039 C2054 0.960 . S
H2040 C2054 0.960 . S
H2041 C2054 0.960 . S
C2042 H2034 0.929 1_545 S
C2042 C2043 1.377 . S
C2042 C2044 1.384 . S
C2043 C2042 1.377 . S
C2043 C2049 1.390 . S
C2044 H2035 0.930 . S
C2044 C2042 1.384 . S
C2044 C2045 1.372 . S
C2045 C2044 1.372 . S
C2045 C2046 1.400 . S
C2045 C2050 1.490 . S
C2046 H2036 0.930 . S
C2046 C2045 1.400 . S
C2046 C2049 1.386 . S
H2047 C2063 0.930 . S
H2048 C2064 0.931 . S
C2049 H2037 0.929 . S
C2049 C2043 1.390 . S
C2049 C2046 1.386 . S
C2050 C2045 1.490 . S
C2050 C2052 1.395 . S
C2050 C2053 1.403 . S
H2051 C2057 0.930 . S
C2052 H2038 0.930 . S
C2052 C2050 1.395 . S
C2052 C2055 1.403 . S
C2053 C2050 1.403 . S
C2053 C2054 1.524 . S
C2053 C2057 1.400 . S
C2054 H2039 0.960 . S
C2054 H2040 0.960 . S
C2054 H2041 0.960 . S
C2054 C2053 1.524 . S
C2055 C2052 1.403 . S
C2055 C2056 1.392 . S
C2055 C2059 1.495 . S
C2056 C2055 1.392 . S
C2056 C2057 1.385 . S
C2056 C2058 1.478 . S
C2057 H2051 0.930 . S
C2057 C2053 1.400 . S
C2057 C2056 1.385 . S
C2058 C2056 1.478 . S
C2058 C2060 1.381 . S
C2058 C2064 1.383 . S
C2059 C2055 1.495 . S
C2059 H2065 0.959 . S
C2059 H2066 0.961 . S
C2059 H2067 0.960 . S
C2060 C2058 1.381 . S
C2060 C2061 1.394 . S
C2060 H2068 0.930 . S
C2061 C2060 1.394 . S
C2061 C2062 1.383 . S
C2061 H2069 0.929 . S
C2062 C2061 1.383 . S
C2062 C2063 1.377 . S
C2063 H2047 0.930 . S
C2063 C2062 1.377 . S
C2063 C2064 1.379 . S
C2064 H2048 0.931 . S
C2064 C2058 1.383 . S
C2064 C2063 1.379 . S
H2065 C2059 0.959 . S
H2066 C2059 0.961 . S
H2067 C2059 0.960 . S
H2068 C2060 0.930 . S
H2069 C2061 0.929 . S
H2070 C2078 0.929 . S
H2071 C2080 0.930 . S
H2072 C2082 0.930 . S
H2073 C2085 0.929 . S
H2074 C2088 0.930 . S
H2075 C2090 0.960 . S
H2076 C2090 0.960 . S
H2077 C2090 0.960 . S
C2078 H2070 0.929 . S
C2078 C2079 1.377 . S
C2078 C2080 1.384 . S
C2079 C2078 1.377 . S
C2079 C2085 1.390 . S
C2080 H2071 0.930 . S
C2080 C2078 1.384 . S
C2080 C2081 1.372 . S
C2081 C2080 1.372 . S
C2081 C2082 1.400 . S
C2081 C2086 1.490 1_565 S
C2082 H2072 0.930 . S
C2082 C2081 1.400 . S
C2082 C2085 1.386 . S
H2083 C2099 0.930 . S
H2084 C2100 0.931 . S
C2085 H2073 0.929 . S
C2085 C2079 1.390 . S
C2085 C2082 1.386 . S
C2086 C2081 1.490 1_545 S
C2086 C2088 1.395 . S
C2086 C2089 1.403 . S
H2087 C2093 0.930 . S
C2088 H2074 0.930 . S
C2088 C2086 1.395 . S
C2088 C2091 1.403 . S
C2089 C2086 1.403 . S
C2089 C2090 1.524 . S
C2089 C2093 1.400 . S
C2090 H2075 0.960 . S
C2090 H2076 0.960 . S
C2090 H2077 0.960 . S
C2090 C2089 1.524 . S
C2091 C2088 1.403 . S
C2091 C2092 1.392 . S
C2091 C2095 1.495 . S
C2092 C2091 1.392 . S
C2092 C2093 1.385 . S
C2092 C2094 1.478 . S
C2093 H2087 0.930 . S
C2093 C2089 1.400 . S
C2093 C2092 1.385 . S
C2094 C2092 1.478 . S
C2094 C2096 1.381 . S
C2094 C2100 1.383 . S
C2095 C2091 1.495 . S
C2095 H2101 0.959 . S
C2095 H2102 0.961 . S
C2095 H2103 0.960 . S
C2096 C2094 1.381 . S
C2096 C2097 1.394 . S
C2096 H2104 0.930 . S
C2097 C2096 1.394 . S
C2097 C2098 1.383 . S
C2097 H2105 0.929 1_655 S
C2098 C2097 1.383 . S
C2098 C2099 1.377 . S
C2099 H2083 0.930 . S
C2099 C2098 1.377 . S
C2099 C2100 1.379 . S
C2100 H2084 0.931 . S
C2100 C2094 1.383 . S
C2100 C2099 1.379 . S
H2101 C2095 0.959 . S
H2102 C2095 0.961 . S
H2103 C2095 0.960 . S
H2104 C2096 0.930 . S
H2105 C2097 0.929 1_455 S
H2106 C2114 0.929 . S
H2107 C2116 0.930 . S
H2108 C2118 0.930 . S
H2109 C2121 0.929 . S
H2110 C2124 0.930 . S
H2111 C2126 0.960 . S
H2112 C2126 0.960 . S
H2113 C2126 0.960 . S
C2114 H2106 0.929 . S
C2114 C2115 1.377 . S
C2114 C2116 1.384 . S
C2115 C2114 1.377 . S
C2115 C2121 1.390 . S
C2116 H2107 0.930 . S
C2116 C2114 1.384 . S
C2116 C2117 1.372 . S
C2117 C2116 1.372 . S
C2117 C2118 1.400 . S
C2117 C2122 1.490 . S
C2118 H2108 0.930 . S
C2118 C2117 1.400 . S
C2118 C2121 1.386 . S
H2119 C2135 0.930 . S
H2120 C2136 0.931 . S
C2121 H2109 0.929 . S
C2121 C2115 1.390 . S
C2121 C2118 1.386 . S
C2122 C2117 1.490 . S
C2122 C2124 1.395 . S
C2122 C2125 1.403 . S
H2123 C2129 0.930 . S
C2124 H2110 0.930 . S
C2124 C2122 1.395 . S
C2124 C2127 1.403 . S
C2125 C2122 1.403 . S
C2125 C2126 1.524 . S
C2125 C2129 1.400 . S
C2126 H2111 0.960 . S
C2126 H2112 0.960 . S
C2126 H2113 0.960 . S
C2126 C2125 1.524 . S
C2127 C2124 1.403 . S
C2127 C2128 1.392 . S
C2127 C2131 1.495 1_565 S
C2128 C2127 1.392 . S
C2128 C2129 1.385 . S
C2128 C2130 1.478 1_565 S
C2129 H2123 0.930 . S
C2129 C2125 1.400 . S
C2129 C2128 1.385 . S
C2130 C2128 1.478 1_545 S
C2130 C2132 1.381 . S
C2130 C2136 1.383 . S
C2131 C2127 1.495 1_545 S
C2131 H2137 0.959 1_545 S
C2131 H2138 0.961 . S
C2131 H2139 0.960 . S
C2132 C2130 1.381 . S
C2132 C2133 1.394 . S
C2132 H2140 0.930 . S
C2133 C2132 1.394 . S
C2133 C2134 1.383 . S
C2133 H2141 0.929 . S
C2134 C2133 1.383 . S
C2134 C2135 1.377 . S
C2135 H2119 0.930 . S
C2135 C2134 1.377 . S
C2135 C2136 1.379 . S
C2136 H2120 0.931 . S
C2136 C2130 1.383 . S
C2136 C2135 1.379 . S
H2137 C2131 0.959 1_565 S
H2138 C2131 0.961 . S
H2139 C2131 0.960 . S
H2140 C2132 0.930 . S
H2141 C2133 0.929 . S
H2142 C2150 0.929 . S
H2143 C2152 0.930 . S
H2144 C2154 0.930 . S
H2145 C2157 0.929 . S
H2146 C2160 0.930 . S
H2147 C2162 0.960 . S
H2148 C2162 0.960 . S
H2149 C2162 0.960 . S
C2150 H2142 0.929 . S
C2150 C2151 1.377 1_545 S
C2150 C2152 1.384 1_545 S
C2151 C2150 1.377 1_565 S
C2151 C2157 1.390 . S
C2152 H2143 0.930 . S
C2152 C2150 1.384 1_565 S
C2152 C2153 1.372 . S
C2153 C2152 1.372 . S
C2153 C2154 1.400 . S
C2153 C2158 1.490 . S
C2154 H2144 0.930 . S
C2154 C2153 1.400 . S
C2154 C2157 1.386 . S
H2155 C2171 0.930 . S
H2156 C2172 0.931 . S
C2157 H2145 0.929 . S
C2157 C2151 1.390 . S
C2157 C2154 1.386 . S
C2158 C2153 1.490 . S
C2158 C2160 1.395 . S
C2158 C2161 1.403 . S
H2159 C2165 0.930 . S
C2160 H2146 0.930 . S
C2160 C2158 1.395 . S
C2160 C2163 1.403 . S
C2161 C2158 1.403 . S
C2161 C2162 1.524 . S
C2161 C2165 1.400 . S
C2162 H2147 0.960 . S
C2162 H2148 0.960 . S
C2162 H2149 0.960 . S
C2162 C2161 1.524 . S
C2163 C2160 1.403 . S
C2163 C2164 1.392 . S
C2163 C2167 1.495 . S
C2164 C2163 1.392 . S
C2164 C2165 1.385 . S
C2164 C2166 1.478 1_455 S
C2165 H2159 0.930 . S
C2165 C2161 1.400 . S
C2165 C2164 1.385 . S
C2166 C2164 1.478 1_655 S
C2166 C2168 1.381 . S
C2166 C2172 1.383 . S
C2167 C2163 1.495 . S
C2167 H2173 0.959 . S
C2167 H2174 0.961 1_455 S
C2167 H2175 0.960 1_455 S
C2168 C2166 1.381 . S
C2168 C2169 1.394 . S
C2168 H2176 0.930 . S
C2169 C2168 1.394 . S
C2169 C2170 1.383 . S
C2169 H2177 0.929 . S
C2170 C2169 1.383 . S
C2170 C2171 1.377 . S
C2171 H2155 0.930 . S
C2171 C2170 1.377 . S
C2171 C2172 1.379 . S
C2172 H2156 0.931 . S
C2172 C2166 1.383 . S
C2172 C2171 1.379 . S
H2173 C2167 0.959 . S
H2174 C2167 0.961 1_655 S
H2175 C2167 0.960 1_655 S
H2176 C2168 0.930 . S
H2177 C2169 0.929 . S
H2178 C2186 0.929 . S
H2179 C2188 0.930 . S
H2180 C2190 0.930 . S
H2181 C2193 0.929 . S
H2182 C2196 0.930 . S
H2183 C2198 0.960 . S
H2184 C2198 0.960 . S
H2185 C2198 0.960 . S
C2186 H2178 0.929 . S
C2186 C2187 1.377 . S
C2186 C2188 1.384 . S
C2187 C2186 1.377 . S
C2187 C2193 1.390 . S
C2188 H2179 0.930 . S
C2188 C2186 1.384 . S
C2188 C2189 1.372 . S
C2189 C2188 1.372 . S
C2189 C2190 1.400 . S
C2189 C2194 1.490 . S
C2190 H2180 0.930 . S
C2190 C2189 1.400 . S
C2190 C2193 1.386 . S
H2191 C2207 0.930 . S
H2192 C2208 0.931 . S
C2193 H2181 0.929 . S
C2193 C2187 1.390 . S
C2193 C2190 1.386 . S
C2194 C2189 1.490 . S
C2194 C2196 1.395 . S
C2194 C2197 1.403 . S
H2195 C2201 0.930 . S
C2196 H2182 0.930 . S
C2196 C2194 1.395 . S
C2196 C2199 1.403 . S
C2197 C2194 1.403 . S
C2197 C2198 1.524 . S
C2197 C2201 1.400 . S
C2198 H2183 0.960 . S
C2198 H2184 0.960 . S
C2198 H2185 0.960 . S
C2198 C2197 1.524 . S
C2199 C2196 1.403 . S
C2199 C2200 1.392 . S
C2199 C2203 1.495 . S
C2200 C2199 1.392 . S
C2200 C2201 1.385 . S
C2200 C2202 1.478 . S
C2201 H2195 0.930 . S
C2201 C2197 1.400 . S
C2201 C2200 1.385 . S
C2202 C2200 1.478 . S
C2202 C2204 1.381 . S
C2202 C2208 1.383 . S
C2203 C2199 1.495 . S
C2203 H2209 0.959 . S
C2203 H2210 0.961 . S
C2203 H2211 0.960 . S
C2204 C2202 1.381 . S
C2204 C2205 1.394 . S
C2204 H2212 0.930 . S
C2205 C2204 1.394 . S
C2205 C2206 1.383 . S
C2205 H2213 0.930 1_455 S
C2206 C2205 1.383 . S
C2206 C2207 1.377 . S
C2207 H2191 0.930 . S
C2207 C2206 1.377 . S
C2207 C2208 1.379 . S
C2208 H2192 0.931 . S
C2208 C2202 1.383 . S
C2208 C2207 1.379 . S
H2209 C2203 0.959 . S
H2210 C2203 0.961 . S
H2211 C2203 0.960 . S
H2212 C2204 0.930 . S
H2213 C2205 0.930 1_655 S
H2214 C2222 0.929 . S
H2215 C2224 0.930 . S
H2216 C2226 0.930 . S
H2217 C2229 0.929 . S
H2218 C2232 0.930 . S
H2219 C2234 0.960 . S
H2220 C2234 0.960 . S
H2221 C2234 0.960 . S
C2222 H2214 0.929 . S
C2222 C2223 1.377 . S
C2222 C2224 1.384 . S
C2223 C2222 1.377 . S
C2223 C2229 1.390 . S
C2224 H2215 0.930 . S
C2224 C2222 1.384 . S
C2224 C2225 1.372 . S
C2225 C2224 1.372 . S
C2225 C2226 1.400 . S
C2225 C2230 1.490 . S
C2226 H2216 0.930 . S
C2226 C2225 1.400 . S
C2226 C2229 1.386 . S
H2227 C2243 0.930 . S
H2228 C2244 0.931 . S
C2229 H2217 0.929 . S
C2229 C2223 1.390 . S
C2229 C2226 1.386 . S
C2230 C2225 1.490 . S
C2230 C2232 1.395 . S
C2230 C2233 1.403 . S
H2231 C2237 0.930 . S
C2232 H2218 0.930 . S
C2232 C2230 1.395 . S
C2232 C2235 1.403 . S
C2233 C2230 1.403 . S
C2233 C2234 1.524 . S
C2233 C2237 1.400 . S
C2234 H2219 0.960 . S
C2234 H2220 0.960 . S
C2234 H2221 0.960 . S
C2234 C2233 1.524 . S
C2235 C2232 1.403 . S
C2235 C2236 1.392 . S
C2235 C2239 1.495 . S
C2236 C2235 1.392 . S
C2236 C2237 1.385 . S
C2236 C2238 1.478 . S
C2237 H2231 0.930 . S
C2237 C2233 1.400 . S
C2237 C2236 1.385 . S
C2238 C2236 1.478 . S
C2238 C2240 1.381 . S
C2238 C2244 1.383 . S
C2239 C2235 1.495 . S
C2239 H2245 0.959 . S
C2239 H2246 0.961 . S
C2239 H2247 0.960 . S
C2240 C2238 1.381 . S
C2240 C2241 1.394 . S
C2240 H2248 0.930 . S
C2241 C2240 1.394 . S
C2241 C2242 1.383 . S
C2241 H2249 0.929 . S
C2242 C2241 1.383 . S
C2242 C2243 1.377 . S
C2243 H2227 0.930 . S
C2243 C2242 1.377 . S
C2243 C2244 1.379 . S
C2244 H2228 0.931 . S
C2244 C2238 1.383 . S
C2244 C2243 1.379 . S
H2245 C2239 0.959 . S
H2246 C2239 0.961 . S
H2247 C2239 0.960 . S
H2248 C2240 0.930 . S
H2249 C2241 0.929 . S
H2250 C2258 0.929 . S
H2251 C2260 0.930 . S
H2252 C2262 0.930 . S
H2253 C2265 0.929 . S
H2254 C2268 0.930 . S
H2255 C2270 0.960 . S
H2256 C2270 0.960 . S
H2257 C2270 0.960 . S
C2258 H2250 0.929 . S
C2258 C2259 1.377 . S
C2258 C2260 1.384 . S
C2259 C2258 1.377 . S
C2259 C2265 1.390 . S
C2260 H2251 0.930 . S
C2260 C2258 1.384 . S
C2260 C2261 1.372 . S
C2261 C2260 1.372 . S
C2261 C2262 1.400 . S
C2261 C2266 1.490 . S
C2262 H2252 0.930 . S
C2262 C2261 1.400 . S
C2262 C2265 1.386 . S
H2263 C2279 0.930 . S
H2264 C2280 0.931 . S
C2265 H2253 0.929 . S
C2265 C2259 1.390 . S
C2265 C2262 1.386 . S
C2266 C2261 1.490 . S
C2266 C2268 1.395 . S
C2266 C2269 1.403 . S
H2267 C2273 0.930 . S
C2268 H2254 0.930 . S
C2268 C2266 1.395 . S
C2268 C2271 1.403 . S
C2269 C2266 1.403 . S
C2269 C2270 1.524 . S
C2269 C2273 1.400 . S
C2270 H2255 0.960 . S
C2270 H2256 0.960 . S
C2270 H2257 0.960 . S
C2270 C2269 1.524 . S
C2271 C2268 1.403 . S
C2271 C2272 1.392 . S
C2271 C2275 1.495 . S
C2272 C2271 1.392 . S
C2272 C2273 1.385 . S
C2272 C2274 1.478 . S
C2273 H2267 0.930 . S
C2273 C2269 1.400 . S
C2273 C2272 1.385 . S
C2274 C2272 1.478 . S
C2274 C2276 1.381 . S
C2274 C2280 1.383 . S
C2275 C2271 1.495 . S
C2275 H2281 0.959 . S
C2275 H2282 0.961 . S
C2275 H2283 0.960 . S
C2276 C2274 1.381 . S
C2276 C2277 1.394 . S
C2276 H2284 0.930 . S
C2277 C2276 1.394 . S
C2277 C2278 1.383 . S
C2277 H2285 0.929 . S
C2278 C2277 1.383 . S
C2278 C2279 1.377 . S
C2279 H2263 0.930 . S
C2279 C2278 1.377 . S
C2279 C2280 1.379 . S
C2280 H2264 0.931 . S
C2280 C2274 1.383 . S
C2280 C2279 1.379 . S
H2281 C2275 0.959 . S
H2282 C2275 0.961 . S
H2283 C2275 0.960 . S
H2284 C2276 0.930 . S
H2285 C2277 0.929 . S
H2286 C2294 0.929 . S
H2287 C2296 0.930 . S
H2288 C2298 0.930 . S
H2289 C2301 0.929 . S
H2290 C2304 0.930 . S
H2291 C2306 0.960 . S
H2292 C2306 0.960 . S
H2293 C2306 0.960 . S
C2294 H2286 0.929 . S
C2294 C2295 1.377 . S
C2294 C2296 1.384 . S
C2295 C2294 1.377 . S
C2295 C2301 1.390 . S
C2296 H2287 0.930 . S
C2296 C2294 1.384 . S
C2296 C2297 1.372 . S
C2297 C2296 1.372 . S
C2297 C2298 1.400 . S
C2297 C2302 1.490 . S
C2298 H2288 0.930 . S
C2298 C2297 1.400 . S
C2298 C2301 1.386 . S
H2299 C2315 0.930 . S
H2300 C2316 0.931 . S
C2301 H2289 0.929 . S
C2301 C2295 1.390 . S
C2301 C2298 1.386 . S
C2302 C2297 1.490 . S
C2302 C2304 1.395 . S
C2302 C2305 1.403 . S
H2303 C2309 0.930 . S
C2304 H2290 0.930 . S
C2304 C2302 1.395 . S
C2304 C2307 1.403 . S
C2305 C2302 1.403 . S
C2305 C2306 1.524 . S
C2305 C2309 1.400 . S
C2306 H2291 0.960 . S
C2306 H2292 0.960 . S
C2306 H2293 0.960 . S
C2306 C2305 1.524 . S
C2307 C2304 1.403 . S
C2307 C2308 1.392 . S
C2307 C2311 1.495 . S
C2308 C2307 1.392 . S
C2308 C2309 1.385 . S
C2308 C2310 1.478 . S
C2309 H2303 0.930 . S
C2309 C2305 1.400 . S
C2309 C2308 1.385 . S
C2310 C2308 1.478 . S
C2310 C2312 1.381 . S
C2310 C2316 1.383 . S
C2311 C2307 1.495 . S
C2311 H2317 0.959 . S
C2311 H2318 0.961 . S
C2311 H2319 0.960 . S
C2312 C2310 1.381 . S
C2312 C2313 1.394 . S
C2312 H2320 0.930 . S
C2313 C2312 1.394 . S
C2313 C2314 1.383 . S
C2313 H2321 0.929 . S
C2314 C2313 1.383 . S
C2314 C2315 1.377 . S
C2315 H2299 0.930 . S
C2315 C2314 1.377 . S
C2315 C2316 1.379 . S
C2316 H2300 0.931 . S
C2316 C2310 1.383 . S
C2316 C2315 1.379 . S
H2317 C2311 0.959 . S
H2318 C2311 0.961 . S
H2319 C2311 0.960 . S
H2320 C2312 0.930 . S
H2321 C2313 0.929 . S
C387 C4 0.814 . S
C406 C62 0.711 . S
C423 C20 0.764 . S
C442 C25 0.831 . S
C459 C41 0.784 . S
C478 C46 0.872 . S
C495 C67 0.794 . S
C514 C103 0.864 . S
C531 C125 0.779 . S
C550 C91 0.875 . S
C567 C109 0.809 . S
C586 C83 0.693 . S
C603 C187 0.774 . S
C622 C130 0.746 . S
C639 C146 0.785 1_655 S
C658 C154 0.871 . S
C675 C175 0.816 . S
C694 C166 0.722 . S
C711 C229 0.787 . S
C730 C196 0.869 . S
C747 C217 0.790 . S
C766 C251 0.845 . S
C783 C208 0.769 . S
C802 C235 0.763 . S
C819 C259 0.814 . S
C838 C313 0.711 . S
C855 C271 0.797 . S
C874 C277 0.841 . S
C891 C293 0.797 . S
C910 C301 0.839 . S
C927 C356 0.781 . S
C946 C319 0.730 . S
C963 C376 0.785 . S
C982 C340 0.728 . S
C999 C335 0.784 1_565 S
C1018 C364 0.728 . S
C1035 C3 1.326 1_545 S
C1054 C108 1.356 . S
C1071 C66 1.314 1_455 S
C1090 C24 1.299 . S
C1107 C100 1.321 . S
C1126 C45 1.365 . S
C1143 C129 1.320 . S
C1162 C234 1.365 . S
C1179 C163 1.312 . S
C1198 C205 1.327 . S
C1215 C226 1.318 . S
C1234 C184 1.280 . S
C1251 C268 1.312 . S
C1270 C373 1.312 . S
C1287 C318 1.325 . S
C1306 C276 1.274 . S
C1323 C339 1.313 . S
C1342 C310 1.302 . S
C1359 C230 1.362 . S
C1378 C19 1.356 1_565 S
C1395 C40 1.352 . S
C1414 C250 1.356 . S
C1431 C209 1.351 . S
C1450 C61 1.316 . S
C1467 C82 1.365 1_655 S
C1486 C314 1.384 . S
C1503 C104 1.362 . S
C1522 C272 1.354 . S
C1539 C292 1.362 . S
C1558 C124 1.390 . S
C1575 C355 1.351 . S
C1594 C145 1.347 . S
C1611 C167 1.358 . S
C1630 C377 1.382 . S
C1647 C188 1.361 . S
C1666 C334 1.389 . S
C1683 C58 0.999 . S
C1702 C7 0.964 . S
C1719 C16 0.995 . S
C1738 C28 0.807 . S
C1755 C49 0.880 . S
C1774 C37 0.937 . S
C1791 C87 1.004 . S
C1810 C70 0.877 . S
C1827 C121 0.989 . S
C1846 C88 0.951 . S
C1863 C112 0.881 . S
C1882 C79 1.039 . S
C1899 C171 0.990 . S
C1918 C133 0.954 . S
C1935 C151 0.884 . S
C1954 C142 1.043 . S
C1971 C150 0.999 . S
C1990 C172 0.962 . S
C2007 C193 0.889 . S
C2026 C213 1.046 . S
C2043 C214 0.872 . S
C2062 C247 0.947 . S
C2079 C192 1.001 . S
C2098 C238 0.839 1_655 S
C2115 C256 0.869 . S
C2134 C297 1.000 . S
C2151 C280 0.870 1_565 S
C2170 C255 0.956 . S
C2187 C289 0.997 . S
C2206 C298 0.818 . S
C2223 C322 0.884 . S
C2242 C352 1.043 . S
C2259 C343 0.878 . S
C2278 C360 0.937 . S
C2295 C331 0.989 . S
C2314 C361 0.948 . S
