# Generated by pormake.
# Topology wjf, (4)-cn, num edge types: 1
# Building blocks:
#     Node 0, Type 0, BuildingBlock: AZAVOO_clean_sbu_0, # of connection points: 4
#     Node 1, Type 0, BuildingBlock: AZAVOO_clean_sbu_0, # of connection points: 4
#     Node 2, Type 0, BuildingBlock: AZAVOO_clean_sbu_0, # of connection points: 4
#     Node 3, Type 0, BuildingBlock: AZAVOO_clean_sbu_0, # of connection points: 4
#     Node 4, Type 0, BuildingBlock: AZAVOO_clean_sbu_0, # of connection points: 4
#     Node 5, Type 0, BuildingBlock: AZAVOO_clean_sbu_0, # of connection points: 4
#     Node 6, Type 0, BuildingBlock: AZAVOO_clean_sbu_0, # of connection points: 4
#     Node 7, Type 0, BuildingBlock: AZAVOO_clean_sbu_0, # of connection points: 4
#     Node 8, Type 0, BuildingBlock: AZAVOO_clean_sbu_0, # of connection points: 4
#     Node 9, Type 0, BuildingBlock: AZAVOO_clean_sbu_0, # of connection points: 4
#     Node 10, Type 0, BuildingBlock: AZAVOO_clean_sbu_0, # of connection points: 4
#     Node 11, Type 0, BuildingBlock: AZAVOO_clean_sbu_0, # of connection points: 4
#     Edge 12, Type (0, 0), BuildingBlock: XIVTED_clean_linker_0, # of connection points: 2
#     Edge 13, Type (0, 0), BuildingBlock: XIVTED_clean_linker_0, # of connection points: 2
#     Edge 14, Type (0, 0), BuildingBlock: XIVTED_clean_linker_0, # of connection points: 2
#     Edge 15, Type (0, 0), BuildingBlock: XIVTED_clean_linker_0, # of connection points: 2
#     Edge 16, Type (0, 0), BuildingBlock: XIVTED_clean_linker_0, # of connection points: 2
#     Edge 17, Type (0, 0), BuildingBlock: XIVTED_clean_linker_0, # of connection points: 2
#     Edge 18, Type (0, 0), BuildingBlock: XIVTED_clean_linker_0, # of connection points: 2
#     Edge 19, Type (0, 0), BuildingBlock: XIVTED_clean_linker_0, # of connection points: 2
#     Edge 20, Type (0, 0), BuildingBlock: XIVTED_clean_linker_0, # of connection points: 2
#     Edge 21, Type (0, 0), BuildingBlock: XIVTED_clean_linker_0, # of connection points: 2
#     Edge 22, Type (0, 0), BuildingBlock: XIVTED_clean_linker_0, # of connection points: 2
#     Edge 23, Type (0, 0), BuildingBlock: XIVTED_clean_linker_0, # of connection points: 2
#     Edge 24, Type (0, 0), BuildingBlock: XIVTED_clean_linker_0, # of connection points: 2
#     Edge 25, Type (0, 0), BuildingBlock: XIVTED_clean_linker_0, # of connection points: 2
#     Edge 26, Type (0, 0), BuildingBlock: XIVTED_clean_linker_0, # of connection points: 2
#     Edge 27, Type (0, 0), BuildingBlock: XIVTED_clean_linker_0, # of connection points: 2
#     Edge 28, Type (0, 0), BuildingBlock: XIVTED_clean_linker_0, # of connection points: 2
#     Edge 29, Type (0, 0), BuildingBlock: XIVTED_clean_linker_0, # of connection points: 2
#     Edge 30, Type (0, 0), BuildingBlock: XIVTED_clean_linker_0, # of connection points: 2
#     Edge 31, Type (0, 0), BuildingBlock: XIVTED_clean_linker_0, # of connection points: 2
#     Edge 32, Type (0, 0), BuildingBlock: XIVTED_clean_linker_0, # of connection points: 2
#     Edge 33, Type (0, 0), BuildingBlock: XIVTED_clean_linker_0, # of connection points: 2
#     Edge 34, Type (0, 0), BuildingBlock: XIVTED_clean_linker_0, # of connection points: 2
#     Edge 35, Type (0, 0), BuildingBlock: XIVTED_clean_linker_0, # of connection points: 2
# Relax obj value: 0.276
# Max RMSD: 0.291
# Mean RMSD: 0.281
data_MOF--net-wjf--node1-AZAVOO_clean_sbu_0--edge1-XIVTED_clean_linker_0
_symmetry_space_group_name_H-M    P1
_symmetry_Int_Tables_number       1
_symmetry_cell_setting            triclinic
loop_
_symmetry_equiv_pos_as_xyz
'x, y, z'
_cell_length_a     50.06769
_cell_length_b     51.740982
_cell_length_c     26.309391
_cell_angle_alpha  89.882796
_cell_angle_beta   90.146641
_cell_angle_gamma 119.1225
loop_
_atom_site_label
_atom_site_type_symbol
_atom_site_fract_x
_atom_site_fract_y
_atom_site_fract_z
_atom_type_partial_charge
Mg0 Mg 0.31909 0.35974 0.16577 0.0
O1 O 0.32367 0.33423 0.09915 0.0
O2 O 0.36334 0.32645 0.11009 0.0
Mg3 Mg 0.38304 0.34533 0.18834 0.0
C4 C 0.34083 0.32407 0.08376 0.0
C5 C 0.27241 0.35776 0.08681 0.0
O6 O 0.29753 0.36774 0.05977 0.0
O7 O 0.29754 0.3176 0.21434 0.0
O8 O 0.33836 0.31144 0.22632 0.0
O9 O 0.35316 0.40215 0.12915 0.0
O10 O 0.3654 0.37688 0.18338 0.0
C11 C 0.3101 0.30334 0.23326 0.0
C12 C 0.37404 0.39909 0.15313 0.0
O13 O 0.27312 0.35162 0.13351 0.0
Mg14 Mg 0.92897 0.34373 0.40893 0.0
O15 O 0.94747 0.33506 0.33582 0.0
O16 O -0.00156 0.35869 0.33876 0.0
Mg17 Mg 0.01263 0.3831 0.41456 0.0
C18 C 0.9733 0.34198 0.31606 0.0
C19 C 0.86041 0.31475 0.38568 0.0
O20 O 0.86619 0.34067 0.40348 0.0
O21 O 0.94008 0.31189 0.45251 0.0
O22 O 0.99102 0.33867 0.45714 0.0
O23 O 0.93117 0.3838 0.37485 0.0
O24 O 0.96912 0.38413 0.41852 0.0
C25 C 0.96592 0.31537 0.4676 0.0
C26 C 0.9589 0.39837 0.3918 0.0
O27 O 0.88163 0.30793 0.38548 0.0
Mg28 Mg 0.65275 0.93804 0.7591 0.0
O29 O 0.61627 0.94831 0.72507 0.0
O30 O 0.60896 0.93469 0.64327 0.0
Mg31 Mg 0.63909 0.91442 0.62582 0.0
C32 C 0.60334 0.94595 0.68207 0.0
C33 C 0.64035 0.97102 0.84507 0.0
O34 O 0.64436 0.98843 0.80608 0.0
O35 O 0.61787 0.8889 0.76463 0.0
O36 O 0.61089 0.87765 0.68189 0.0
O37 O 0.68755 0.98222 0.73277 0.0
O38 O 0.6707 0.94147 0.68653 0.0
C39 C 0.6047 0.87056 0.72854 0.0
C40 C 0.68521 0.96996 0.68893 0.0
O41 O 0.64155 0.94728 0.83824 0.0
Mg42 Mg 0.65226 0.58417 0.14098 0.0
O43 O 0.64892 0.60698 0.06944 0.0
O44 O 0.61223 0.61926 0.07752 0.0
Mg45 Mg 0.59219 0.60454 0.15722 0.0
C46 C 0.63325 0.61829 0.05168 0.0
C47 C 0.69677 0.5677 0.08673 0.0
O48 O 0.67081 0.54283 0.08341 0.0
O49 O 0.67639 0.62799 0.18429 0.0
O50 O 0.6376 0.63731 0.19486 0.0
O51 O 0.61559 0.54097 0.10998 0.0
O52 O 0.60656 0.5704 0.15911 0.0
C53 C 0.66546 0.64387 0.20207 0.0
C54 C 0.59608 0.54658 0.13262 0.0
O55 O 0.69731 0.58942 0.11016 0.0
Mg56 Mg 0.08377 0.67023 0.43127 0.0
O57 O 0.05646 0.66988 0.36135 0.0
O58 O 0.00757 0.63544 0.37057 0.0
Mg59 Mg 0.00357 0.61346 0.44754 0.0
C60 C 0.02905 0.65591 0.34485 0.0
C61 C 0.1322 0.71694 0.35907 0.0
O62 O 0.11986 0.69394 0.3286 0.0
O63 O 0.06326 0.69328 0.47845 0.0
O64 O 0.01538 0.65671 0.48887 0.0
O65 O 0.09286 0.63626 0.39542 0.0
O66 O 0.05241 0.62583 0.443 0.0
C67 C 0.03646 0.68322 0.49697 0.0
C68 C 0.06678 0.61677 0.4138 0.0
O69 O 0.12283 0.71416 0.40471 0.0
Mg70 Mg 0.41711 0.04828 0.60907 0.0
O71 O 0.45387 0.0344 0.60934 0.0
O72 O 0.49403 0.0684 0.56628 0.0
Mg73 Mg 0.47935 0.0989 0.52626 0.0
C74 C 0.48129 0.04515 0.59373 0.0
C75 C 0.41 0.01769 0.71568 0.0
O76 O 0.43999 0.03308 0.71433 0.0
O77 O 0.44554 0.08836 0.65869 0.0
O78 O 0.47848 0.12018 0.60218 0.0
O79 O 0.39392 0.02064 0.54134 0.0
O80 O 0.4304 0.06718 0.53731 0.0
C81 C 0.46633 0.1143 0.64635 0.0
C82 C 0.41082 0.04377 0.51395 0.0
O83 O 0.3946 0.01912 0.67833 0.0
Mg84 Mg 0.574 0.63571 0.58648 0.0
O85 O 0.59871 0.63721 0.65992 0.0
O86 O 0.61799 0.6065 0.65542 0.0
Mg87 Mg 0.60452 0.5845 0.57737 0.0
C88 C 0.61355 0.62546 0.67943 0.0
C89 C 0.54898 0.67593 0.62761 0.0
O90 O 0.52279 0.65217 0.61804 0.0
O91 O 0.61919 0.66236 0.54441 0.0
O92 O 0.63472 0.62875 0.53708 0.0
O93 O 0.53123 0.59959 0.61823 0.0
O94 O 0.56461 0.59214 0.57444 0.0
C95 C 0.6382 0.6545 0.52826 0.0
C96 C 0.53988 0.58142 0.60111 0.0
O97 O 0.57384 0.67674 0.61486 0.0
Mg98 Mg 0.94723 0.60153 0.88274 0.0
O99 O 0.97082 0.62448 0.95644 0.0
O100 O 0.0206 0.639 0.95052 0.0
Mg101 Mg 0.02865 0.62395 0.87336 0.0
C102 C -0.00224 0.63711 0.97502 0.0
C103 C 0.87991 0.58075 0.90808 0.0
O104 O 0.87888 0.55646 0.89088 0.0
O105 O 0.96756 0.64564 0.84048 0.0
O106 O 0.01617 0.65591 0.83253 0.0
O107 O 0.9392 0.55824 0.91378 0.0
O108 O 0.98043 0.5886 0.87047 0.0
C109 C 0.99468 0.66195 0.82386 0.0
C110 C 0.96566 0.56434 0.89578 0.0
O111 O 0.90533 0.6046 0.90785 0.0
Mg112 Mg 0.30812 0.97626 0.15396 0.0
O113 O 0.34949 0.9812 0.20069 0.0
O114 O 0.34342 0.99172 0.28083 0.0
Mg115 Mg 0.29722 0.98997 0.28657 0.0
C116 C 0.35901 0.98768 0.24654 0.0
C117 C 0.3067 0.95212 0.04694 0.0
O118 O 0.27954 0.95008 0.04995 0.0
O119 O 0.27849 0.92923 0.18578 0.0
O120 O 0.27472 0.94138 0.26571 0.0
O121 O 0.33457 0.02523 0.14407 0.0
O122 O 0.30157 0.00298 0.20623 0.0
C123 C 0.26908 0.92201 0.23145 0.0
C124 C 0.32395 0.02683 0.18803 0.0
O125 O 0.32368 0.95998 0.08616 0.0
Mg126 Mg 0.39485 0.30761 0.61906 0.0
O127 O 0.36949 0.30138 0.69367 0.0
O128 O 0.34431 0.32698 0.69045 0.0
Mg129 Mg 0.35453 0.35067 0.61391 0.0
C130 C 0.35194 0.30989 0.71368 0.0
C131 C 0.43202 0.27782 0.65064 0.0
O132 O 0.45307 0.30526 0.64182 0.0
O133 O 0.35055 0.27707 0.57669 0.0
O134 O 0.32948 0.30643 0.57159 0.0
O135 O 0.43486 0.34722 0.65058 0.0
O136 O 0.39764 0.34903 0.60827 0.0
C137 C 0.32938 0.28227 0.56121 0.0
C138 C 0.42288 0.36268 0.63334 0.0
O139 O 0.40412 0.27032 0.64252 0.0
Mg140 Mg 0.05012 0.37442 0.86059 0.0
O141 O 0.02217 0.3501 0.93035 0.0
O142 O 0.97422 0.34164 0.92257 0.0
Mg143 Mg 0.97109 0.36022 0.8455 0.0
C144 C 0.99513 0.33987 0.94759 0.0
C145 C 0.09629 0.3715 0.93441 0.0
O146 O 0.0832 0.3832 0.96232 0.0
O147 O 0.02718 0.3319 0.8136 0.0
O148 O 0.98035 0.32644 0.80423 0.0
O149 O 0.06172 0.41791 0.89578 0.0
O150 O 0.02064 0.39201 0.84853 0.0
C151 C 5e-05 0.31806 0.79559 0.0
C152 C 0.03637 0.41471 0.877 0.0
O153 O 0.08812 0.36521 0.8882 0.0
Mg154 Mg 0.64903 0.07809 0.29227 0.0
O155 O 0.59823 0.0644 0.29787 0.0
O156 O 0.59066 0.08003 0.37262 0.0
Mg157 Mg 0.63598 0.10214 0.41606 0.0
C158 C 0.58069 0.06701 0.3301 0.0
C159 C 0.65284 0.04863 0.19677 0.0
O160 O 0.66563 0.0404 0.23229 0.0
O161 O 0.66277 0.12646 0.27902 0.0
O162 O 0.65847 0.13987 0.35808 0.0
O163 O 0.64122 0.03635 0.32982 0.0
O164 O 0.65326 0.07782 0.37072 0.0
C165 C 0.66651 0.14624 0.31163 0.0
C166 C 0.64728 0.0507 0.37229 0.0
O167 O 0.6433 0.06656 0.20832 0.0
H168 H 0.32041 0.25799 0.26041 0.0
H169 H 0.27517 0.27878 0.53232 0.0
H170 H 0.2637 0.29691 0.29626 0.0
H171 H 0.33564 0.24405 0.49646 0.0
H172 H 0.25338 0.26572 0.44719 0.0
H173 H 0.30842 0.23359 0.34308 0.0
C174 C 0.3046 0.26063 0.28507 0.0
C175 C 0.2939 0.28034 0.27226 0.0
C176 C 0.27075 0.26009 0.45833 0.0
C177 C 0.28078 0.25316 0.36752 0.0
C178 C 0.28316 0.26745 0.50713 0.0
C179 C 0.30815 0.26362 0.52078 0.0
C180 C 0.28383 0.24932 0.42283 0.0
C181 C 0.31697 0.24816 0.48711 0.0
C182 C 0.29782 0.24673 0.33242 0.0
C183 C 0.27299 0.2824 0.30507 0.0
N184 N 0.30552 0.24245 0.43904 0.0
N185 N 0.26787 0.26976 0.35195 0.0
H186 H 0.01498 0.30885 0.49573 0.0
H187 H 0.94368 0.27508 0.76426 0.0
H188 H 0.91943 0.27587 0.52852 0.0
H189 H 0.03979 0.31158 0.73223 0.0
H190 H 0.93185 0.25507 0.67834 0.0
H191 H 0.02092 0.29001 0.57751 0.0
C192 C 0.99501 0.29686 0.51949 0.0
C193 C 0.96694 0.29503 0.50622 0.0
C194 C 0.95552 0.26665 0.69047 0.0
C195 C 0.97376 0.27398 0.6004 0.0
C196 C 0.9623 0.27801 0.7397 0.0
C197 C 0.99281 0.29608 0.75465 0.0
C198 C 0.97946 0.274 0.65583 0.0
C199 C 0.01594 0.29846 0.72182 0.0
C200 C -0.00157 0.2861 0.5663 0.0
C201 C 0.9417 0.27853 0.5378 0.0
N202 N 0.00884 0.28844 0.67327 0.0
N203 N 0.94592 0.26945 0.58419 0.0
H204 H 0.63333 0.01837 0.87234 0.0
H205 H 0.66238 0.00361 0.16595 0.0
H206 H 0.64148 0.94542 0.93556 0.0
H207 H 0.63386 0.06497 0.11026 0.0
H208 H 0.65589 0.98293 0.08094 0.0
H209 H 0.63377 0.03631 0.95841 0.0
C210 C 0.63498 0.00599 0.90432 0.0
C211 C 0.63762 0.98048 0.89677 0.0
C212 C 0.65091 0.00083 0.08725 0.0
C213 C 0.63838 0.00103 -0.00485 0.0
C214 C 0.65477 0.01278 0.13578 0.0
C215 C 0.64879 0.03616 0.14515 0.0
C216 C 0.64127 0.01249 0.04751 0.0
C217 C 0.63878 0.04698 0.10463 0.0
C218 C 0.6352 0.01625 0.95341 0.0
C219 C 0.63951 0.96525 0.93957 0.0
N220 N 0.6355 0.03516 0.0574 0.0
N221 N 0.64014 0.97591 0.9869 0.0
H222 H 0.71312 0.64898 0.26099 0.0
H223 H 0.64078 0.70035 0.47163 0.0
H224 H 0.65609 0.68892 0.23532 0.0
H225 H 0.68786 0.65025 0.49591 0.0
H226 H 0.66606 0.71639 0.38939 0.0
H227 H 0.72423 0.66997 0.34639 0.0
C228 C 0.70389 0.66315 0.27246 0.0
C229 C 0.68253 0.66611 0.24184 0.0
C230 C 0.6716 0.70262 0.41338 0.0
C231 C 0.69458 0.68957 0.33985 0.0
C232 C 0.65724 0.69353 0.46058 0.0
C233 C 0.66122 0.67289 0.48973 0.0
C234 C 0.68977 0.69075 0.39527 0.0
C235 C 0.68326 0.66531 0.47377 0.0
C236 C 0.71008 0.67499 0.32151 0.0
C237 C 0.67177 0.68515 0.25849 0.0
N238 N 0.69606 0.67356 0.42699 0.0
N239 N 0.67714 0.69542 0.30696 0.0
H240 H 0.95256 0.66798 0.76531 0.0
H241 H 0.07864 0.72815 0.55646 0.0
H242 H 0.04963 0.70722 0.79193 0.0
H243 H 0.98155 0.67615 0.53002 0.0
H244 H 0.06819 0.74097 0.6406 0.0
H245 H 0.96311 0.69144 0.68175 0.0
C246 C 0.97611 0.68241 0.75446 0.0
C247 C 0.00027 0.6846 0.7847 0.0
C248 C 0.04914 0.72753 0.61576 0.0
C249 C 0.01243 0.71101 0.68885 0.0
C250 C 0.05511 0.72032 0.5675 0.0
C251 C 0.03091 0.70006 0.53706 0.0
C252 C 0.01885 0.71419 0.6335 0.0
C253 C 0.00091 0.691 0.55309 0.0
C254 C 0.98213 0.69571 0.70651 0.0
C255 C 0.03029 0.70404 0.76897 0.0
N256 N 0.99571 0.69746 0.60078 0.0
N257 N 0.03554 0.71581 0.7215 0.0
H258 H 0.27801 0.93953 0.95441 0.0
H259 H 0.43574 0.01095 0.80322 0.0
H260 H 0.36534 0.96485 0.02462 0.0
H261 H 0.34836 0.98612 0.73361 0.0
H262 H 0.4095 0.98735 0.88209 0.0
H263 H 0.30229 0.94891 0.87107 0.0
C264 C 0.3022 0.94658 0.95231 0.0
C265 C 0.31975 0.95189 -0.00335 0.0
C266 C 0.39604 0.98679 0.84941 0.0
C267 C 0.3478 0.96305 0.90129 0.0
C268 C 0.41102 0.00031 0.80434 0.0
C269 C 0.39427 0.0009 0.76192 0.0
C270 C 0.36406 0.97387 0.85221 0.0
C271 C 0.36225 0.9865 0.76551 0.0
C272 C 0.31608 0.95203 0.90466 0.0
C273 C 0.35095 0.96077 0.9915 0.0
N274 N 0.34823 0.97385 0.81001 0.0
N275 N 0.36406 0.96649 0.94473 0.0
H276 H 0.11001 0.37178 0.03486 0.0
H277 H 0.26074 0.36027 0.98597 0.0
H278 H 0.13709 0.35893 0.88553 0.0
H279 H 0.22053 0.35063 0.13452 0.0
H280 H 0.21623 0.36053 0.94829 0.0
H281 H 0.15093 0.36504 0.07193 0.0
C282 C 0.12455 0.3675 0.00982 0.0
C283 C 0.12025 0.36612 0.95694 0.0
C284 C 0.21702 0.35813 0.98908 0.0
C285 C 0.16728 0.35846 -0.00073 0.0
C286 C 0.24247 0.35805 0.01068 0.0
C287 C 0.24446 0.35562 0.06355 0.0
C288 C 0.1935 0.35611 0.0206 0.0
C289 C 0.21998 0.35259 0.09361 0.0
C290 C 0.14784 0.36352 0.03108 0.0
C291 C 0.13963 0.36022 0.92647 0.0
N292 N 0.19566 0.35322 0.07175 0.0
N293 N 0.16249 0.35687 0.94805 0.0
H294 H 0.80683 0.3159 0.39906 0.0
H295 H 0.71114 0.16811 0.239 0.0
H296 H 0.84518 0.26803 0.32173 0.0
H297 H 0.67264 0.19559 0.36027 0.0
H298 H 0.75835 0.21527 0.24558 0.0
H299 H 0.75643 0.28106 0.36449 0.0
C300 C 0.80469 0.2982 0.37454 0.0
C301 C 0.83008 0.29449 0.36398 0.0
C302 C 0.73923 0.21127 0.26975 0.0
C303 C 0.77283 0.25517 0.32349 0.0
C304 C 0.71207 0.1845 0.26557 0.0
C305 C 0.68821 0.17757 0.30018 0.0
C306 C 0.7423 0.23122 0.30835 0.0
C307 C 0.69077 0.19979 0.33363 0.0
C308 C 0.776 0.27847 0.35469 0.0
C309 C 0.82609 0.27136 0.33162 0.0
N310 N 0.71766 0.22543 0.33771 0.0
N311 N 0.79796 0.25249 0.31269 0.0
H312 H 0.61531 0.83606 0.79464 0.0
H313 H 0.50503 0.69279 0.63392 0.0
H314 H 0.55049 0.83359 0.68398 0.0
H315 H 0.59465 0.71422 0.68932 0.0
H316 H 0.50917 0.73613 0.6792 0.0
H317 H 0.59351 0.78236 0.78581 0.0
C318 C 0.59555 0.82399 0.77034 0.0
C319 C 0.58489 0.83905 0.7393 0.0
C320 C 0.52762 0.73093 0.68202 0.0
C321 C 0.56041 0.77829 0.72846 0.0
C322 C 0.52537 0.70642 0.65605 0.0
C323 C 0.54989 0.70053 0.65689 0.0
C324 C 0.55429 0.74911 0.70966 0.0
C325 C 0.57559 0.71853 0.68662 0.0
C326 C 0.58338 0.79348 0.76488 0.0
C327 C 0.55949 0.82259 0.70799 0.0
N328 N 0.57721 0.74214 0.71158 0.0
N329 N 0.54841 0.79305 0.70257 0.0
H330 H 0.7537 0.61684 0.07973 0.0
H331 H 0.82241 0.53333 0.91369 0.0
H332 H 0.70271 0.52512 0.03497 0.0
H333 H 0.87485 0.62533 0.95607 0.0
H334 H 0.77811 0.53059 0.9568 0.0
H335 H 0.79831 0.62092 0.03448 0.0
C336 C 0.7519 0.59755 0.06057 0.0
C337 C 0.72441 0.57058 0.06121 0.0
C338 C 0.79925 0.55144 0.9566 0.0
C339 C 0.77527 0.57514 0.0092 0.0
C340 C 0.82459 0.55304 0.93184 0.0
C341 C 0.85244 0.57959 0.93131 0.0
C342 C 0.80167 0.57656 0.98123 0.0
C343 C 0.85383 0.6044 0.9555 0.0
C344 C 0.77735 0.59992 0.03464 0.0
C345 C 0.72339 0.54635 0.03557 0.0
N346 N 0.82882 0.60225 0.97965 0.0
N347 N 0.7484 0.54922 0.01067 0.0
H348 H 0.16648 0.76718 0.41372 0.0
H349 H 0.24134 0.87169 0.17136 0.0
H350 H 0.15029 0.73333 0.26033 0.0
H351 H 0.2569 0.90068 0.32779 0.0
H352 H 0.2101 0.8204 0.20131 0.0
H353 H 0.20206 0.816 0.38123 0.0
C354 C 0.17052 0.77 0.37315 0.0
C355 C 0.15527 0.74618 0.33971 0.0
C356 C 0.22055 0.8381 0.22887 0.0
C357 C 0.19599 0.80229 0.30189 0.0
C358 C 0.23836 0.86731 0.21181 0.0
C359 C 0.25147 0.89059 0.24701 0.0
C360 C 0.21604 0.83235 0.28136 0.0
C361 C 0.24696 0.88363 0.29903 0.0
C362 C 0.19089 0.79794 0.3545 0.0
C363 C 0.16157 0.75114 0.28746 0.0
N364 N 0.22961 0.85529 0.31445 0.0
N365 N 0.18132 0.77874 0.27004 0.0
H366 H 0.42747 0.11509 0.71854 0.0
H367 H 0.48975 0.28534 0.65926 0.0
H368 H 0.51318 0.17147 0.64374 0.0
H369 H 0.39502 0.22128 0.68492 0.0
H370 H 0.50416 0.24811 0.68304 0.0
H371 H 0.4228 0.15865 0.73927 0.0
C372 C 0.44598 0.1367 0.70827 0.0
C373 C 0.47023 0.13958 0.67766 0.0
C374 C 0.48028 0.24238 0.6842 0.0
C375 C 0.46472 0.18927 0.70071 0.0
C376 C 0.47198 0.26353 0.67038 0.0
C377 C 0.44104 0.25616 0.66895 0.0
C378 C 0.45751 0.21371 0.69693 0.0
C379 C 0.41908 0.22771 0.68447 0.0
C380 C 0.44307 0.16154 0.71965 0.0
C381 C 0.49365 0.1682 0.66611 0.0
N382 N 0.42772 0.2074 0.69731 0.0
N383 N 0.48995 0.19194 0.67651 0.0
H384 H 0.30861 0.31655 0.76646 0.0
H385 H 0.37462 0.30359 0.03268 0.0
H386 H 0.37461 0.28611 0.78335 0.0
H387 H 0.29631 0.3169 0.01567 0.0
H388 H 0.3712 0.29144 0.94242 0.0
H389 H 0.2998 0.31128 0.85791 0.0
C390 C 0.32096 0.30839 0.7893 0.0
C391 C 0.34276 0.30225 0.76731 0.0
C392 C 0.35449 0.2966 0.95864 0.0
C393 C 0.33305 0.29648 0.87217 0.0
C394 C 0.35644 0.30356 0.01022 0.0
C395 C 0.33614 0.31192 0.03165 0.0
C396 C 0.33228 0.29829 0.92825 0.0
C397 C 0.31286 0.31116 0.00071 0.0
C398 C 0.31588 0.30532 0.84156 0.0
C399 C 0.3578 0.29138 0.79872 0.0
N400 N 0.31187 0.30496 0.95045 0.0
N401 N 0.35305 0.28933 0.84971 0.0
H402 H 0.92525 0.31247 0.25048 0.0
H403 H 0.03484 0.33616 0.01534 0.0
H404 H 0.02312 0.34877 0.26215 0.0
H405 H 0.94164 0.31909 0.00123 0.0
H406 H 0.02742 0.32789 0.10666 0.0
H407 H 0.92803 0.30235 0.16068 0.0
C408 C 0.94729 0.31797 0.23441 0.0
C409 C 0.97411 0.33206 0.26372 0.0
C410 C 0.00848 0.32555 0.08344 0.0
C411 C 0.97733 0.32047 0.16096 0.0
C412 C 0.01265 0.33023 0.03121 0.0
C413 C 0.98905 0.32908 0.00064 0.0
C414 C 0.98052 0.31961 0.10524 0.0
C415 C 0.96066 0.32076 0.02338 0.0
C416 C 0.94882 0.31219 0.1831 0.0
C417 C 0.00193 0.33836 0.24085 0.0
N418 N 0.95733 0.31676 0.07447 0.0
N419 N 0.00286 0.33281 0.19067 0.0
H420 H 0.68837 0.02391 0.67957 0.0
H421 H 0.64576 -0.00241 0.38534 0.0
H422 H 0.69006 0.95433 0.5918 0.0
H423 H 0.65976 0.07561 0.46676 0.0
H424 H 0.66069 0.98069 0.46157 0.0
H425 H 0.67989 0.04443 0.60161 0.0
C426 C 0.6878 0.01339 0.64372 0.0
C427 C 0.68935 0.98706 0.64213 0.0
C428 C 0.66041 0.00148 0.46274 0.0
C429 C 0.67877 0.0099 0.55313 0.0
C430 C 0.65153 0.01095 0.41945 0.0
C431 C 0.65145 0.03801 0.41977 0.0
C432 C 0.66912 0.01915 0.50662 0.0
C433 C 0.65939 0.05456 0.46485 0.0
C434 C 0.68255 0.0249 0.59927 0.0
C435 C 0.68831 0.97432 0.59469 0.0
N436 N 0.66796 0.04488 0.50647 0.0
N437 N 0.68257 0.98559 0.55205 0.0
H438 H 0.60051 0.65784 0.74735 0.0
H439 H 0.67206 0.6147 0.98248 0.0
H440 H 0.6491 0.60835 0.73404 0.0
H441 H 0.60433 0.64309 -0.00243 0.0
H442 H 0.67346 0.62321 0.89116 0.0
H443 H 0.61142 0.66317 0.83835 0.0
C444 C 0.61382 0.64841 0.76335 0.0
C445 C 0.62351 0.6322 0.73304 0.0
C446 C 0.65854 0.62788 0.91456 0.0
C447 C 0.63603 0.63831 0.83723 0.0
C448 C 0.65776 0.62311 0.9668 0.0
C449 C 0.63763 0.62771 -0.00222 0.0
C450 C 0.63917 0.63742 0.89304 0.0
C451 C 0.6199 0.63888 0.97515 0.0
C452 C 0.61995 0.65143 0.81536 0.0
C453 C 0.64083 0.62069 0.75598 0.0
N454 N 0.62087 0.64307 0.92404 0.0
N455 N 0.64632 0.62377 0.80679 0.0
H456 H 0.97376 0.6321 0.29562 0.0
H457 H 0.0518 0.67144 0.02488 0.0
H458 H 0.07014 0.69163 0.27312 0.0
H459 H 0.95393 0.62706 0.04628 0.0
H460 H 0.05865 0.68325 0.11531 0.0
H461 H 0.9654 0.63435 0.20472 0.0
C462 C 0.99312 0.64599 0.27175 0.0
C463 C 0.0228 0.66122 0.29198 0.0
C464 C 0.03567 0.67129 0.10012 0.0
C465 C 0.0134 0.66361 0.18774 0.0
C466 C 0.03174 0.66445 0.04846 0.0
C467 C 0.00225 0.64782 0.02807 0.0
C468 C 0.00994 0.66109 0.13177 0.0
C469 C 0.97711 0.63968 0.06039 0.0
C470 C 0.98831 0.64727 0.21979 0.0
C471 C 0.04692 0.67914 0.25921 0.0
N472 N 0.98154 0.64601 0.11079 0.0
N473 N 0.04176 0.67944 0.20859 0.0
H474 H 0.38644 0.05601 0.19346 0.0
H475 H 0.35604 0.01054 0.4683 0.0
H476 H 0.30614 0.04744 0.26862 0.0
H477 H 0.44696 0.08224 0.43931 0.0
H478 H 0.33953 0.01998 0.38649 0.0
H479 H 0.41315 0.06773 0.27531 0.0
C480 C 0.37497 0.05834 0.22657 0.0
C481 C 0.34364 0.04965 0.22482 0.0
C482 C 0.36311 0.03367 0.39812 0.0
C483 C 0.37361 0.06201 0.31781 0.0
C484 C 0.37271 0.02791 0.44428 0.0
C485 C 0.40291 0.04563 0.46056 0.0
C486 C 0.38399 0.0568 0.36728 0.0
C487 C 0.42345 0.0681 0.42798 0.0
C488 C 0.39016 0.06465 0.27339 0.0
C489 C 0.33002 0.05316 0.26878 0.0
N490 N 0.41368 0.07293 0.38235 0.0
N491 N 0.34465 0.0578 0.31405 0.0
H492 H 0.41903 0.41353 0.22274 0.0
H493 H 0.56334 0.50687 0.05721 0.0
H494 H 0.40337 0.43275 0.06935 0.0
H495 H 0.55364 0.53932 0.20311 0.0
H496 H 0.50816 0.47082 0.05834 0.0
H497 H 0.47311 0.4505 0.21431 0.0
C498 C 0.42707 0.42535 0.18712 0.0
C499 C 0.40681 0.42028 0.14673 0.0
C500 C 0.51829 0.48608 0.08972 0.0
C501 C 0.46846 0.46194 0.13672 0.0
C502 C 0.5496 0.50647 0.08924 0.0
C503 C 0.56292 0.52602 0.13014 0.0
C504 C 0.50075 0.48477 0.13213 0.0
C505 C 0.5442 0.52472 0.17074 0.0
C506 C 0.45778 0.44645 0.18251 0.0
C507 C 0.41834 0.43626 0.10143 0.0
N508 N 0.51415 0.50409 0.17113 0.0
N509 N 0.44863 0.45632 0.09737 0.0
H510 H 0.09582 0.58413 0.40357 0.0
H511 H 0.94104 0.43465 0.34544 0.0
H512 H 0.00718 0.57834 0.39186 0.0
H513 H 0.01878 0.43538 0.41831 0.0
H514 H 0.96947 0.48857 0.34096 0.0
H515 H 0.07175 0.53051 0.38831 0.0
C516 C 0.07136 0.57159 0.39731 0.0
C517 C 0.05327 0.58537 0.40005 0.0
C518 C 0.98039 0.47686 0.3574 0.0
C519 C 0.0259 0.52471 0.38194 0.0
C520 C 0.96425 0.44609 0.35984 0.0
C521 C 0.97745 0.4305 0.38281 0.0
C522 C 0.01002 0.49215 0.3777 0.0
C523 C 0.00766 0.44652 0.4006 0.0
C524 C 0.0577 0.54112 0.38881 0.0
C525 C 0.02177 0.56836 0.39153 0.0
N526 N 0.02291 0.47656 0.39798 0.0
N527 N 0.00905 0.53888 0.3829 0.0
H528 H 0.55043 0.92289 0.62771 0.0
H529 H 0.54294 0.0704 0.60918 0.0
H530 H 0.61045 -0.00196 0.71941 0.0
H531 H 0.45968 0.98648 0.61328 0.0
H532 H 0.57157 0.04538 0.63622 0.0
H533 H 0.5194 0.94673 0.60924 0.0
C534 C 0.55683 0.94428 0.64432 0.0
C535 C 0.58279 0.95851 0.67538 0.0
C536 C 0.54702 0.03257 0.63129 0.0
C537 C 0.54822 0.98609 0.65319 0.0
C538 C 0.53075 0.04672 0.61551 0.0
C539 C 0.49895 0.03042 0.60892 0.0
C540 C 0.53145 0.00188 0.63912 0.0
C541 C 0.48418 -0.00018 0.61806 0.0
C542 C 0.53919 0.95779 0.63383 0.0
C543 C 0.59033 0.98626 0.6958 0.0
N544 N 0.50062 0.98643 0.63211 0.0
N545 N 0.57337 -0.00056 0.68366 0.0
H546 H 0.47991 0.55008 0.62828 0.0
H547 H 0.48146 0.39804 0.66487 0.0
H548 H 0.55957 0.5404 0.60123 0.0
H549 H 0.40091 0.40115 0.61453 0.0
H550 H 0.50988 0.45208 0.66398 0.0
H551 H 0.45017 0.49672 0.64441 0.0
C552 C 0.49121 0.5368 0.62615 0.0
C553 C 0.52223 0.54963 0.61302 0.0
C554 C 0.48588 0.44084 0.65368 0.0
C555 C 0.4886 0.48906 0.63215 0.0
C556 C 0.4696 0.41006 0.65443 0.0
C557 C 0.43882 0.39508 0.63936 0.0
C558 C 0.47116 0.45672 0.6385 0.0
C559 C 0.42463 0.4118 0.62612 0.0
C560 C 0.47423 0.50646 0.63521 0.0
C561 C 0.53573 0.53146 0.61069 0.0
N562 N 0.44097 0.44182 0.62587 0.0
N563 N 0.51884 0.50206 0.62031 0.0
H564 H 0.02403 0.57438 0.87831 0.0
H565 H 0.97758 0.40538 0.87925 0.0
H566 H 0.93482 0.50676 0.92694 0.0
H567 H 0.07127 0.47328 0.89996 0.0
H568 H 0.9612 0.44226 0.89149 0.0
H569 H 0.04194 0.53809 0.88146 0.0
C570 C 0.00828 0.55203 0.89018 0.0
C571 C 0.97784 0.54361 0.90229 0.0
C572 C 0.98533 0.44905 0.89376 0.0
C573 C -0.00192 0.50189 0.90501 0.0
C574 C 0.99473 0.42801 0.88636 0.0
C575 C 0.02587 0.4363 0.88805 0.0
C576 C 0.00727 0.47873 0.90187 0.0
C577 C 0.04702 0.46597 0.89834 0.0
C578 C 0.01856 0.53134 0.89204 0.0
C579 C 0.95848 0.51424 0.91733 0.0
N580 N 0.03739 0.48625 0.90415 0.0
N581 N 0.9688 0.49433 0.91758 0.0
H582 H 0.53498 0.06273 0.39263 0.0
H583 H 0.40365 0.99086 0.18205 0.0
H584 H 0.55081 0.04099 0.24123 0.0
H585 H 0.38674 0.0004 0.33994 0.0
H586 H 0.45743 0.00852 0.20264 0.0
H587 H 0.48059 0.04043 0.37326 0.0
C588 C 0.52708 0.05331 0.35525 0.0
C589 C 0.54763 0.05385 0.31847 0.0
C590 C 0.44187 0.00652 0.23282 0.0
C591 C 0.48514 0.02809 0.29609 0.0
C592 C 0.4111 -0.00371 0.22115 0.0
C593 C 0.39059 -0.00565 0.25923 0.0
C594 C 0.45226 0.01503 0.28286 0.0
C595 C 0.40169 0.00182 0.30918 0.0
C596 C 0.49594 0.04044 0.3443 0.0
C597 C 0.53588 0.04113 0.27079 0.0
N598 N 0.43177 0.01206 0.31943 0.0
N599 N 0.50545 0.02887 0.26093 0.0
loop_
_geom_bond_atom_site_label_1
_geom_bond_atom_site_label_2
_geom_bond_distance
_geom_bond_site_symmetry_2
_ccdc_geom_bond_type
Mg0 O1 2.028 . S
Mg0 O7 1.986 . S
Mg0 O9 2.114 . S
Mg0 O10 2.251 . S
Mg0 O13 2.010 . S
O1 Mg0 2.028 . S
O1 C4 1.250 1_554 S
O2 Mg3 2.028 . S
O2 C4 1.248 1_554 S
Mg3 O2 2.028 . S
Mg3 O8 2.032 . S
Mg3 O10 2.079 . S
C4 O1 1.250 1_556 S
C4 O2 1.248 1_556 S
C5 O6 1.264 . S
C5 O13 1.249 . S
O6 C5 1.264 . S
O7 Mg0 1.986 . S
O7 C11 1.246 . S
O8 Mg3 2.032 . S
O8 C11 1.259 . S
O9 Mg0 2.114 . S
O9 C12 1.252 . S
O10 Mg0 2.251 . S
O10 Mg3 2.079 . S
O10 C12 1.273 . S
C11 O7 1.246 . S
C11 O8 1.259 . S
C12 O9 1.252 . S
C12 O10 1.273 . S
O13 Mg0 2.010 . S
O13 C5 1.249 . S
Mg14 O15 2.028 . S
Mg14 O21 1.986 . S
Mg14 O23 2.114 . S
Mg14 O24 2.251 . S
Mg14 O27 2.010 . S
O15 Mg14 2.028 . S
O15 C18 1.250 . S
O16 Mg17 2.028 . S
O16 C18 1.248 1_455 S
Mg17 O16 2.028 . S
Mg17 O22 2.032 . S
Mg17 O24 2.079 1_455 S
C18 O15 1.250 . S
C18 O16 1.248 1_655 S
C19 O20 1.264 . S
C19 O27 1.249 . S
O20 C19 1.264 . S
O21 Mg14 1.986 . S
O21 C25 1.246 . S
O22 Mg17 2.032 . S
O22 C25 1.259 1_455 S
O23 Mg14 2.114 . S
O23 C26 1.252 . S
O24 Mg14 2.251 . S
O24 Mg17 2.079 1_655 S
O24 C26 1.273 . S
C25 O21 1.246 . S
C25 O22 1.259 1_655 S
C26 O23 1.252 . S
C26 O24 1.273 . S
O27 Mg14 2.010 . S
O27 C19 1.249 . S
Mg28 O29 2.028 . S
Mg28 O35 1.986 . S
Mg28 O37 2.114 . S
Mg28 O38 2.251 . S
Mg28 O41 2.010 . S
O29 Mg28 2.028 . S
O29 C32 1.250 . S
O30 Mg31 2.028 . S
O30 C32 1.248 . S
Mg31 O30 2.028 . S
Mg31 O36 2.032 . S
Mg31 O38 2.079 . S
C32 O29 1.250 . S
C32 O30 1.248 . S
C33 O34 1.264 . S
C33 O41 1.249 . S
O34 C33 1.264 . S
O35 Mg28 1.986 . S
O35 C39 1.246 . S
O36 Mg31 2.032 . S
O36 C39 1.259 . S
O37 Mg28 2.114 . S
O37 C40 1.252 . S
O38 Mg28 2.251 . S
O38 Mg31 2.079 . S
O38 C40 1.273 . S
C39 O35 1.246 . S
C39 O36 1.259 . S
C40 O37 1.252 . S
C40 O38 1.273 . S
O41 Mg28 2.010 . S
O41 C33 1.249 . S
Mg42 O43 2.028 . S
Mg42 O49 1.986 . S
Mg42 O51 2.114 . S
Mg42 O52 2.251 . S
Mg42 O55 2.010 . S
O43 Mg42 2.028 . S
O43 C46 1.250 1_554 S
O44 Mg45 2.028 . S
O44 C46 1.248 1_554 S
Mg45 O44 2.028 . S
Mg45 O50 2.032 . S
Mg45 O52 2.079 . S
C46 O43 1.250 1_556 S
C46 O44 1.248 1_556 S
C47 O48 1.264 . S
C47 O55 1.249 . S
O48 C47 1.264 . S
O49 Mg42 1.986 . S
O49 C53 1.246 . S
O50 Mg45 2.032 . S
O50 C53 1.259 . S
O51 Mg42 2.114 . S
O51 C54 1.252 . S
O52 Mg42 2.251 . S
O52 Mg45 2.079 . S
O52 C54 1.273 . S
C53 O49 1.246 . S
C53 O50 1.259 . S
C54 O51 1.252 . S
C54 O52 1.273 . S
O55 Mg42 2.010 . S
O55 C47 1.249 . S
Mg56 O57 2.028 . S
Mg56 O63 1.986 . S
Mg56 O65 2.114 . S
Mg56 O66 2.251 . S
Mg56 O69 2.010 . S
O57 Mg56 2.028 . S
O57 C60 1.250 . S
O58 Mg59 2.028 . S
O58 C60 1.248 1_655 S
Mg59 O58 2.028 . S
Mg59 O64 2.032 . S
Mg59 O66 2.079 1_655 S
C60 O57 1.250 . S
C60 O58 1.248 1_455 S
C61 O62 1.264 . S
C61 O69 1.249 . S
O62 C61 1.264 . S
O63 Mg56 1.986 . S
O63 C67 1.246 . S
O64 Mg59 2.032 . S
O64 C67 1.259 1_655 S
O65 Mg56 2.114 . S
O65 C68 1.252 . S
O66 Mg56 2.251 . S
O66 Mg59 2.079 1_455 S
O66 C68 1.273 . S
C67 O63 1.246 . S
C67 O64 1.259 1_455 S
C68 O65 1.252 . S
C68 O66 1.273 . S
O69 Mg56 2.010 . S
O69 C61 1.249 . S
Mg70 O71 2.028 . S
Mg70 O77 1.986 . S
Mg70 O79 2.114 . S
Mg70 O80 2.251 . S
Mg70 O83 2.010 . S
O71 Mg70 2.028 . S
O71 C74 1.250 . S
O72 Mg73 2.028 . S
O72 C74 1.248 . S
Mg73 O72 2.028 . S
Mg73 O78 2.032 . S
Mg73 O80 2.079 . S
C74 O71 1.250 . S
C74 O72 1.248 . S
C75 O76 1.264 . S
C75 O83 1.249 . S
O76 C75 1.264 . S
O77 Mg70 1.986 . S
O77 C81 1.246 . S
O78 Mg73 2.032 . S
O78 C81 1.259 . S
O79 Mg70 2.114 . S
O79 C82 1.252 . S
O80 Mg70 2.251 . S
O80 Mg73 2.079 . S
O80 C82 1.273 . S
C81 O77 1.246 . S
C81 O78 1.259 . S
C82 O79 1.252 . S
C82 O80 1.273 . S
O83 Mg70 2.010 . S
O83 C75 1.249 . S
Mg84 O85 2.028 . S
Mg84 O91 1.986 . S
Mg84 O93 2.114 . S
Mg84 O94 2.251 . S
Mg84 O97 2.010 . S
O85 Mg84 2.028 . S
O85 C88 1.250 . S
O86 Mg87 2.028 . S
O86 C88 1.248 . S
Mg87 O86 2.028 . S
Mg87 O92 2.032 . S
Mg87 O94 2.079 . S
C88 O85 1.250 . S
C88 O86 1.248 . S
C89 O90 1.264 . S
C89 O97 1.249 . S
O90 C89 1.264 . S
O91 Mg84 1.986 . S
O91 C95 1.246 . S
O92 Mg87 2.032 . S
O92 C95 1.259 . S
O93 Mg84 2.114 . S
O93 C96 1.252 . S
O94 Mg84 2.251 . S
O94 Mg87 2.079 . S
O94 C96 1.273 . S
C95 O91 1.246 . S
C95 O92 1.259 . S
C96 O93 1.252 . S
C96 O94 1.273 . S
O97 Mg84 2.010 . S
O97 C89 1.249 . S
Mg98 O99 2.028 . S
Mg98 O105 1.986 . S
Mg98 O107 2.114 . S
Mg98 O108 2.251 . S
Mg98 O111 2.010 . S
O99 Mg98 2.028 . S
O99 C102 1.250 1_556 S
O100 Mg101 2.028 . S
O100 C102 1.248 1_456 S
Mg101 O100 2.028 . S
Mg101 O106 2.032 . S
Mg101 O108 2.079 1_455 S
C102 O99 1.250 1_554 S
C102 O100 1.248 1_654 S
C103 O104 1.264 . S
C103 O111 1.249 . S
O104 C103 1.264 . S
O105 Mg98 1.986 . S
O105 C109 1.246 . S
O106 Mg101 2.032 . S
O106 C109 1.259 1_455 S
O107 Mg98 2.114 . S
O107 C110 1.252 . S
O108 Mg98 2.251 . S
O108 Mg101 2.079 1_655 S
O108 C110 1.273 . S
C109 O105 1.246 . S
C109 O106 1.259 1_655 S
C110 O107 1.252 . S
C110 O108 1.273 . S
O111 Mg98 2.010 . S
O111 C103 1.249 . S
Mg112 O113 2.028 . S
Mg112 O119 1.986 . S
Mg112 O121 2.114 . S
Mg112 O122 2.251 . S
Mg112 O125 2.010 . S
O113 Mg112 2.028 . S
O113 C116 1.250 . S
O114 Mg115 2.028 . S
O114 C116 1.248 . S
Mg115 O114 2.028 . S
Mg115 O120 2.032 . S
Mg115 O122 2.079 . S
C116 O113 1.250 . S
C116 O114 1.248 . S
C117 O118 1.264 . S
C117 O125 1.249 . S
O118 C117 1.264 . S
O119 Mg112 1.986 . S
O119 C123 1.246 . S
O120 Mg115 2.032 . S
O120 C123 1.259 . S
O121 Mg112 2.114 . S
O121 C124 1.252 . S
O122 Mg112 2.251 . S
O122 Mg115 2.079 . S
O122 C124 1.273 . S
C123 O119 1.246 . S
C123 O120 1.259 . S
C124 O121 1.252 . S
C124 O122 1.273 . S
O125 Mg112 2.010 . S
O125 C117 1.249 . S
Mg126 O127 2.028 . S
Mg126 O133 1.986 . S
Mg126 O135 2.114 . S
Mg126 O136 2.251 . S
Mg126 O139 2.010 . S
O127 Mg126 2.028 . S
O127 C130 1.250 . S
O128 Mg129 2.028 . S
O128 C130 1.248 . S
Mg129 O128 2.028 . S
Mg129 O134 2.032 . S
Mg129 O136 2.079 . S
C130 O127 1.250 . S
C130 O128 1.248 . S
C131 O132 1.264 . S
C131 O139 1.249 . S
O132 C131 1.264 . S
O133 Mg126 1.986 . S
O133 C137 1.246 . S
O134 Mg129 2.032 . S
O134 C137 1.259 . S
O135 Mg126 2.114 . S
O135 C138 1.252 . S
O136 Mg126 2.251 . S
O136 Mg129 2.079 . S
O136 C138 1.273 . S
C137 O133 1.246 . S
C137 O134 1.259 . S
C138 O135 1.252 . S
C138 O136 1.273 . S
O139 Mg126 2.010 . S
O139 C131 1.249 . S
Mg140 O141 2.028 . S
Mg140 O147 1.986 . S
Mg140 O149 2.114 . S
Mg140 O150 2.251 . S
Mg140 O153 2.010 . S
O141 Mg140 2.028 . S
O141 C144 1.250 1_556 S
O142 Mg143 2.028 . S
O142 C144 1.248 1_656 S
Mg143 O142 2.028 . S
Mg143 O148 2.032 . S
Mg143 O150 2.079 1_655 S
C144 O141 1.250 1_554 S
C144 O142 1.248 1_454 S
C145 O146 1.264 . S
C145 O153 1.249 . S
O146 C145 1.264 . S
O147 Mg140 1.986 . S
O147 C151 1.246 . S
O148 Mg143 2.032 . S
O148 C151 1.259 1_655 S
O149 Mg140 2.114 . S
O149 C152 1.252 . S
O150 Mg140 2.251 . S
O150 Mg143 2.079 1_455 S
O150 C152 1.273 . S
C151 O147 1.246 . S
C151 O148 1.259 1_455 S
C152 O149 1.252 . S
C152 O150 1.273 . S
O153 Mg140 2.010 . S
O153 C145 1.249 . S
Mg154 O155 2.028 . S
Mg154 O161 1.986 . S
Mg154 O163 2.114 . S
Mg154 O164 2.251 . S
Mg154 O167 2.010 . S
O155 Mg154 2.028 . S
O155 C158 1.250 . S
O156 Mg157 2.028 . S
O156 C158 1.248 . S
Mg157 O156 2.028 . S
Mg157 O162 2.032 . S
Mg157 O164 2.079 . S
C158 O155 1.250 . S
C158 O156 1.248 . S
C159 O160 1.264 . S
C159 O167 1.249 . S
O160 C159 1.264 . S
O161 Mg154 1.986 . S
O161 C165 1.246 . S
O162 Mg157 2.032 . S
O162 C165 1.259 . S
O163 Mg154 2.114 . S
O163 C166 1.252 . S
O164 Mg154 2.251 . S
O164 Mg157 2.079 . S
O164 C166 1.273 . S
C165 O161 1.246 . S
C165 O162 1.259 . S
C166 O163 1.252 . S
C166 O164 1.273 . S
O167 Mg154 2.010 . S
O167 C159 1.249 . S
H168 C174 0.930 . S
H169 C178 0.930 . S
H170 C183 0.929 . S
H171 C181 0.929 . S
H172 C176 0.929 . S
H173 C182 0.929 . S
C174 H168 0.930 . S
C174 C175 1.367 . S
C174 C182 1.378 . S
C175 C174 1.367 . S
C175 C183 1.433 . S
C176 H172 0.929 . S
C176 C178 1.378 . S
C176 C180 1.350 . S
C177 C180 1.463 . S
C177 C182 1.350 . S
C177 N185 1.427 . S
C178 H169 0.930 . S
C178 C176 1.378 . S
C178 C179 1.367 . S
C179 C178 1.367 . S
C179 C181 1.433 . S
C180 C176 1.350 . S
C180 C177 1.463 . S
C180 N184 1.427 . S
C181 H171 0.929 . S
C181 C179 1.433 . S
C181 N184 1.384 . S
C182 H173 0.929 . S
C182 C174 1.378 . S
C182 C177 1.350 . S
C183 H170 0.929 . S
C183 C175 1.433 . S
C183 N185 1.384 . S
N184 C180 1.427 . S
N184 C181 1.384 . S
N185 C177 1.427 . S
N185 C183 1.384 . S
H186 C192 0.930 1_455 S
H187 C196 0.930 . S
H188 C201 0.929 . S
H189 C199 0.929 . S
H190 C194 0.929 . S
H191 C200 0.930 1_455 S
C192 H186 0.930 1_655 S
C192 C193 1.367 . S
C192 C200 1.381 . S
C193 C192 1.367 . S
C193 C201 1.433 . S
C194 H190 0.929 . S
C194 C196 1.378 . S
C194 C198 1.350 . S
C195 C198 1.463 . S
C195 C200 1.346 . S
C195 N203 1.427 . S
C196 H187 0.930 . S
C196 C194 1.378 . S
C196 C197 1.367 . S
C197 C196 1.367 . S
C197 C199 1.433 1_655 S
C198 C194 1.350 . S
C198 C195 1.463 . S
C198 N202 1.427 1_655 S
C199 H189 0.929 . S
C199 C197 1.433 1_455 S
C199 N202 1.384 . S
C200 H191 0.930 1_655 S
C200 C192 1.381 . S
C200 C195 1.346 . S
C201 H188 0.929 . S
C201 C193 1.433 . S
C201 N203 1.384 . S
N202 C198 1.427 1_455 S
N202 C199 1.384 . S
N203 C195 1.427 . S
N203 C201 1.384 . S
H204 C210 0.930 . S
H205 C214 0.930 . S
H206 C219 0.929 . S
H207 C217 0.929 . S
H208 C212 0.929 . S
H209 C218 0.929 . S
C210 H204 0.930 . S
C210 C211 1.367 1_545 S
C210 C218 1.378 . S
C211 C210 1.367 1_565 S
C211 C219 1.433 . S
C212 H208 0.929 . S
C212 C214 1.378 . S
C212 C216 1.350 1_565 S
C213 C216 1.463 1_566 S
C213 C218 1.350 1_565 S
C213 N221 1.427 . S
C214 H205 0.930 . S
C214 C212 1.378 . S
C214 C215 1.367 1_565 S
C215 C214 1.367 1_545 S
C215 C217 1.433 . S
C216 C212 1.350 1_545 S
C216 C213 1.463 1_544 S
C216 N220 1.427 . S
C217 H207 0.929 . S
C217 C215 1.433 . S
C217 N220 1.384 . S
C218 H209 0.929 . S
C218 C210 1.378 . S
C218 C213 1.350 1_545 S
C219 H206 0.929 . S
C219 C211 1.433 . S
C219 N221 1.384 . S
N220 C216 1.427 . S
N220 C217 1.384 . S
N221 C213 1.427 . S
N221 C219 1.384 . S
H222 C228 0.930 . S
H223 C232 0.930 . S
H224 C237 0.929 . S
H225 C235 0.929 . S
H226 C230 0.929 . S
H227 C236 0.929 . S
C228 H222 0.930 . S
C228 C229 1.367 . S
C228 C236 1.378 . S
C229 C228 1.367 . S
C229 C237 1.433 . S
C230 H226 0.929 . S
C230 C232 1.378 . S
C230 C234 1.350 . S
C231 C234 1.463 . S
C231 C236 1.350 . S
C231 N239 1.427 . S
C232 H223 0.930 . S
C232 C230 1.378 . S
C232 C233 1.367 . S
C233 C232 1.367 . S
C233 C235 1.433 . S
C234 C230 1.350 . S
C234 C231 1.463 . S
C234 N238 1.427 . S
C235 H225 0.929 . S
C235 C233 1.433 . S
C235 N238 1.384 . S
C236 H227 0.929 . S
C236 C228 1.378 . S
C236 C231 1.350 . S
C237 H224 0.929 . S
C237 C229 1.433 . S
C237 N239 1.384 . S
N238 C234 1.427 . S
N238 C235 1.384 . S
N239 C231 1.427 . S
N239 C237 1.384 . S
H240 C246 0.930 . S
H241 C250 0.930 . S
H242 C255 0.929 . S
H243 C253 0.929 . S
H244 C248 0.929 . S
H245 C254 0.929 . S
C246 H240 0.930 . S
C246 C247 1.367 1_655 S
C246 C254 1.378 . S
C247 C246 1.367 1_455 S
C247 C255 1.433 . S
C248 H244 0.929 . S
C248 C250 1.378 . S
C248 C252 1.350 . S
C249 C252 1.463 . S
C249 C254 1.350 1_455 S
C249 N257 1.427 . S
C250 H241 0.930 . S
C250 C248 1.378 . S
C250 C251 1.367 . S
C251 C250 1.367 . S
C251 C253 1.433 1_455 S
C252 C248 1.350 . S
C252 C249 1.463 . S
C252 N256 1.427 1_455 S
C253 H243 0.929 . S
C253 C251 1.433 1_655 S
C253 N256 1.384 . S
C254 H245 0.929 . S
C254 C246 1.378 . S
C254 C249 1.350 1_655 S
C255 H242 0.929 . S
C255 C247 1.433 . S
C255 N257 1.384 . S
N256 C252 1.427 1_655 S
N256 C253 1.384 . S
N257 C249 1.427 . S
N257 C255 1.384 . S
H258 C264 0.930 . S
H259 C268 0.930 . S
H260 C273 0.929 . S
H261 C271 0.929 . S
H262 C266 0.929 . S
H263 C272 0.929 . S
C264 H258 0.930 . S
C264 C265 1.367 1_545 S
C264 C272 1.378 . S
C265 C264 1.367 1_565 S
C265 C273 1.433 . S
C266 H262 0.929 . S
C266 C268 1.378 . S
C266 C270 1.350 1_565 S
C267 C270 1.463 1_564 S
C267 C272 1.350 1_565 S
C267 N275 1.427 . S
C268 H259 0.930 . S
C268 C266 1.378 . S
C268 C269 1.367 1_565 S
C269 C268 1.367 1_545 S
C269 C271 1.433 . S
C270 C266 1.350 1_545 S
C270 C267 1.463 1_546 S
C270 N274 1.427 . S
C271 H261 0.929 . S
C271 C269 1.433 . S
C271 N274 1.384 . S
C272 H263 0.929 . S
C272 C264 1.378 . S
C272 C267 1.350 1_545 S
C273 H260 0.929 . S
C273 C265 1.433 . S
C273 N275 1.384 . S
N274 C270 1.427 . S
N274 C271 1.384 . S
N275 C267 1.427 . S
N275 C273 1.384 . S
H276 C282 0.930 . S
H277 C286 0.930 . S
H278 C291 0.929 . S
H279 C289 0.929 . S
H280 C284 0.929 . S
H281 C290 0.929 . S
C282 H276 0.930 . S
C282 C283 1.367 1_554 S
C282 C290 1.378 . S
C283 C282 1.367 1_556 S
C283 C291 1.433 . S
C284 H280 0.929 . S
C284 C286 1.378 . S
C284 C288 1.350 1_556 S
C285 C288 1.463 1_556 S
C285 C290 1.350 1_556 S
C285 N293 1.427 . S
C286 H277 0.930 . S
C286 C284 1.378 . S
C286 C287 1.367 1_556 S
C287 C286 1.367 1_554 S
C287 C289 1.433 . S
C288 C284 1.350 1_554 S
C288 C285 1.463 1_554 S
C288 N292 1.427 . S
C289 H279 0.929 . S
C289 C287 1.433 . S
C289 N292 1.384 . S
C290 H281 0.929 . S
C290 C282 1.378 . S
C290 C285 1.350 1_554 S
C291 H278 0.929 . S
C291 C283 1.433 . S
C291 N293 1.384 . S
N292 C288 1.427 . S
N292 C289 1.384 . S
N293 C285 1.427 . S
N293 C291 1.384 . S
H294 C300 0.930 . S
H295 C304 0.930 . S
H296 C309 0.929 . S
H297 C307 0.929 . S
H298 C302 0.929 . S
H299 C308 0.929 . S
C300 H294 0.930 . S
C300 C301 1.367 . S
C300 C308 1.378 . S
C301 C300 1.367 . S
C301 C309 1.433 . S
C302 H298 0.929 . S
C302 C304 1.378 . S
C302 C306 1.350 . S
C303 C306 1.463 . S
C303 C308 1.350 . S
C303 N311 1.427 . S
C304 H295 0.930 . S
C304 C302 1.378 . S
C304 C305 1.367 . S
C305 C304 1.367 . S
C305 C307 1.433 . S
C306 C302 1.350 . S
C306 C303 1.463 . S
C306 N310 1.427 . S
C307 H297 0.929 . S
C307 C305 1.433 . S
C307 N310 1.384 . S
C308 H299 0.929 . S
C308 C300 1.378 . S
C308 C303 1.350 . S
C309 H296 0.929 . S
C309 C301 1.433 . S
C309 N311 1.384 . S
N310 C306 1.427 . S
N310 C307 1.384 . S
N311 C303 1.427 . S
N311 C309 1.384 . S
H312 C318 0.930 . S
H313 C322 0.930 . S
H314 C327 0.929 . S
H315 C325 0.929 . S
H316 C320 0.929 . S
H317 C326 0.929 . S
C318 H312 0.930 . S
C318 C319 1.367 . S
C318 C326 1.378 . S
C319 C318 1.367 . S
C319 C327 1.433 . S
C320 H316 0.929 . S
C320 C322 1.378 . S
C320 C324 1.350 . S
C321 C324 1.463 . S
C321 C326 1.350 . S
C321 N329 1.427 . S
C322 H313 0.930 . S
C322 C320 1.378 . S
C322 C323 1.367 . S
C323 C322 1.367 . S
C323 C325 1.433 . S
C324 C320 1.350 . S
C324 C321 1.463 . S
C324 N328 1.427 . S
C325 H315 0.929 . S
C325 C323 1.433 . S
C325 N328 1.384 . S
C326 H317 0.929 . S
C326 C318 1.378 . S
C326 C321 1.350 . S
C327 H314 0.929 . S
C327 C319 1.433 . S
C327 N329 1.384 . S
N328 C324 1.427 . S
N328 C325 1.384 . S
N329 C321 1.427 . S
N329 C327 1.384 . S
H330 C336 0.930 . S
H331 C340 0.930 . S
H332 C345 0.929 1_556 S
H333 C343 0.929 1_554 S
H334 C338 0.929 . S
H335 C344 0.929 . S
C336 H330 0.930 . S
C336 C337 1.367 . S
C336 C344 1.378 . S
C337 C336 1.367 . S
C337 C345 1.433 . S
C338 H334 0.929 . S
C338 C340 1.378 . S
C338 C342 1.350 . S
C339 C342 1.463 1_554 S
C339 C344 1.350 . S
C339 N347 1.427 1_554 S
C340 H331 0.930 . S
C340 C338 1.378 . S
C340 C341 1.367 . S
C341 C340 1.367 . S
C341 C343 1.433 . S
C342 C338 1.350 . S
C342 C339 1.463 1_556 S
C342 N346 1.427 1_556 S
C343 H333 0.929 1_556 S
C343 C341 1.433 . S
C343 N346 1.384 1_556 S
C344 H335 0.929 . S
C344 C336 1.378 . S
C344 C339 1.350 . S
C345 H332 0.929 1_554 S
C345 C337 1.433 . S
C345 N347 1.384 1_554 S
N346 C342 1.427 1_554 S
N346 C343 1.384 1_554 S
N347 C339 1.427 1_556 S
N347 C345 1.384 1_556 S
H348 C354 0.930 . S
H349 C358 0.930 . S
H350 C363 0.929 . S
H351 C361 0.929 . S
H352 C356 0.929 . S
H353 C362 0.929 . S
C354 H348 0.930 . S
C354 C355 1.367 . S
C354 C362 1.378 . S
C355 C354 1.367 . S
C355 C363 1.433 . S
C356 H352 0.929 . S
C356 C358 1.378 . S
C356 C360 1.350 . S
C357 C360 1.463 . S
C357 C362 1.350 . S
C357 N365 1.427 . S
C358 H349 0.930 . S
C358 C356 1.378 . S
C358 C359 1.367 . S
C359 C358 1.367 . S
C359 C361 1.433 . S
C360 C356 1.350 . S
C360 C357 1.463 . S
C360 N364 1.427 . S
C361 H351 0.929 . S
C361 C359 1.433 . S
C361 N364 1.384 . S
C362 H353 0.929 . S
C362 C354 1.378 . S
C362 C357 1.350 . S
C363 H350 0.929 . S
C363 C355 1.433 . S
C363 N365 1.384 . S
N364 C360 1.427 . S
N364 C361 1.384 . S
N365 C357 1.427 . S
N365 C363 1.384 . S
H366 C372 0.930 . S
H367 C376 0.930 . S
H368 C381 0.929 . S
H369 C379 0.929 . S
H370 C374 0.929 . S
H371 C380 0.929 . S
C372 H366 0.930 . S
C372 C373 1.367 . S
C372 C380 1.378 . S
C373 C372 1.367 . S
C373 C381 1.433 . S
C374 H370 0.929 . S
C374 C376 1.378 . S
C374 C378 1.350 . S
C375 C378 1.463 . S
C375 C380 1.350 . S
C375 N383 1.427 . S
C376 H367 0.930 . S
C376 C374 1.378 . S
C376 C377 1.367 . S
C377 C376 1.367 . S
C377 C379 1.433 . S
C378 C374 1.350 . S
C378 C375 1.463 . S
C378 N382 1.427 . S
C379 H369 0.929 . S
C379 C377 1.433 . S
C379 N382 1.384 . S
C380 H371 0.929 . S
C380 C372 1.378 . S
C380 C375 1.350 . S
C381 H368 0.929 . S
C381 C373 1.433 . S
C381 N383 1.384 . S
N382 C378 1.427 . S
N382 C379 1.384 . S
N383 C375 1.427 . S
N383 C381 1.384 . S
H384 C390 0.930 . S
H385 C394 0.930 . S
H386 C399 0.929 . S
H387 C397 0.929 . S
H388 C392 0.929 . S
H389 C398 0.929 . S
C390 H384 0.930 . S
C390 C391 1.367 . S
C390 C398 1.378 . S
C391 C390 1.367 . S
C391 C399 1.433 . S
C392 H388 0.929 . S
C392 C394 1.378 . S
C392 C396 1.350 . S
C393 C396 1.463 . S
C393 C398 1.350 . S
C393 N401 1.427 . S
C394 H385 0.930 . S
C394 C392 1.378 . S
C394 C395 1.367 . S
C395 C394 1.367 . S
C395 C397 1.433 . S
C396 C392 1.350 . S
C396 C393 1.463 . S
C396 N400 1.427 . S
C397 H387 0.929 . S
C397 C395 1.433 . S
C397 N400 1.384 . S
C398 H389 0.929 . S
C398 C390 1.378 . S
C398 C393 1.350 . S
C399 H386 0.929 . S
C399 C391 1.433 . S
C399 N401 1.384 . S
N400 C396 1.427 . S
N400 C397 1.384 . S
N401 C393 1.427 . S
N401 C399 1.384 . S
H402 C408 0.930 . S
H403 C412 0.930 . S
H404 C417 0.929 . S
H405 C415 0.929 . S
H406 C410 0.929 . S
H407 C416 0.929 . S
C408 H402 0.930 . S
C408 C409 1.367 . S
C408 C416 1.378 . S
C409 C408 1.367 . S
C409 C417 1.433 . S
C410 H406 0.929 . S
C410 C412 1.378 . S
C410 C414 1.350 . S
C411 C414 1.463 . S
C411 C416 1.350 . S
C411 N419 1.427 . S
C412 H403 0.930 . S
C412 C410 1.378 . S
C412 C413 1.367 . S
C413 C412 1.367 . S
C413 C415 1.433 . S
C414 C410 1.350 . S
C414 C411 1.463 . S
C414 N418 1.427 . S
C415 H405 0.929 . S
C415 C413 1.433 . S
C415 N418 1.384 . S
C416 H407 0.929 . S
C416 C408 1.378 . S
C416 C411 1.350 . S
C417 H404 0.929 . S
C417 C409 1.433 . S
C417 N419 1.384 . S
N418 C414 1.427 . S
N418 C415 1.384 . S
N419 C411 1.427 . S
N419 C417 1.384 . S
H420 C426 0.930 . S
H421 C430 0.930 . S
H422 C435 0.929 . S
H423 C433 0.929 . S
H424 C428 0.929 . S
H425 C434 0.929 . S
C426 H420 0.930 . S
C426 C427 1.367 1_545 S
C426 C434 1.378 . S
C427 C426 1.367 1_565 S
C427 C435 1.433 . S
C428 H424 0.929 . S
C428 C430 1.378 . S
C428 C432 1.328 1_565 S
C429 C432 1.460 1_565 S
C429 C434 1.328 1_565 S
C429 N437 1.454 . S
C430 H421 0.930 . S
C430 C428 1.378 . S
C430 C431 1.367 1_565 S
C431 C430 1.367 1_545 S
C431 C433 1.433 . S
C432 C428 1.328 1_545 S
C432 C429 1.460 1_545 S
C432 N436 1.454 . S
C433 H423 0.929 . S
C433 C431 1.433 . S
C433 N436 1.384 . S
C434 H425 0.929 . S
C434 C426 1.378 . S
C434 C429 1.328 1_545 S
C435 H422 0.929 . S
C435 C427 1.433 . S
C435 N437 1.384 . S
N436 C432 1.454 . S
N436 C433 1.384 . S
N437 C429 1.454 . S
N437 C435 1.384 . S
H438 C444 0.930 . S
H439 C448 0.930 . S
H440 C453 0.929 . S
H441 C451 0.929 . S
H442 C446 0.929 . S
H443 C452 0.929 . S
C444 H438 0.930 . S
C444 C445 1.367 . S
C444 C452 1.378 . S
C445 C444 1.367 . S
C445 C453 1.433 . S
C446 H442 0.929 . S
C446 C448 1.378 . S
C446 C450 1.350 . S
C447 C450 1.463 . S
C447 C452 1.350 . S
C447 N455 1.427 . S
C448 H439 0.930 . S
C448 C446 1.378 . S
C448 C449 1.367 . S
C449 C448 1.367 . S
C449 C451 1.433 . S
C450 C446 1.350 . S
C450 C447 1.463 . S
C450 N454 1.427 . S
C451 H441 0.929 . S
C451 C449 1.433 . S
C451 N454 1.384 . S
C452 H443 0.929 . S
C452 C444 1.378 . S
C452 C447 1.350 . S
C453 H440 0.929 . S
C453 C445 1.433 . S
C453 N455 1.384 . S
N454 C450 1.427 . S
N454 C451 1.384 . S
N455 C447 1.427 . S
N455 C453 1.384 . S
H456 C462 0.930 . S
H457 C466 0.930 . S
H458 C471 0.929 . S
H459 C469 0.929 . S
H460 C464 0.929 . S
H461 C470 0.929 . S
C462 H456 0.930 . S
C462 C463 1.367 1_655 S
C462 C470 1.378 . S
C463 C462 1.367 1_455 S
C463 C471 1.433 . S
C464 H460 0.929 . S
C464 C466 1.378 . S
C464 C468 1.350 . S
C465 C468 1.463 . S
C465 C470 1.350 1_455 S
C465 N473 1.427 . S
C466 H457 0.930 . S
C466 C464 1.378 . S
C466 C467 1.367 . S
C467 C466 1.367 . S
C467 C469 1.433 1_455 S
C468 C464 1.350 . S
C468 C465 1.463 . S
C468 N472 1.427 1_455 S
C469 H459 0.929 . S
C469 C467 1.433 1_655 S
C469 N472 1.384 . S
C470 H461 0.929 . S
C470 C462 1.378 . S
C470 C465 1.350 1_655 S
C471 H458 0.929 . S
C471 C463 1.433 . S
C471 N473 1.384 . S
N472 C468 1.427 1_655 S
N472 C469 1.384 . S
N473 C465 1.427 . S
N473 C471 1.384 . S
H474 C480 0.930 . S
H475 C484 0.930 . S
H476 C489 0.929 . S
H477 C487 0.929 . S
H478 C482 0.929 . S
H479 C488 0.929 . S
C480 H474 0.930 . S
C480 C481 1.367 1_545 S
C480 C488 1.378 . S
C481 C480 1.367 1_565 S
C481 C489 1.433 . S
C482 H478 0.929 . S
C482 C484 1.378 . S
C482 C486 1.350 1_565 S
C483 C486 1.463 1_565 S
C483 C488 1.350 1_565 S
C483 N491 1.427 . S
C484 H475 0.930 . S
C484 C482 1.378 . S
C484 C485 1.367 1_565 S
C485 C484 1.367 1_545 S
C485 C487 1.433 . S
C486 C482 1.350 1_545 S
C486 C483 1.463 1_545 S
C486 N490 1.427 . S
C487 H477 0.929 . S
C487 C485 1.433 . S
C487 N490 1.384 . S
C488 H479 0.929 . S
C488 C480 1.378 . S
C488 C483 1.350 1_545 S
C489 H476 0.929 . S
C489 C481 1.433 . S
C489 N491 1.384 . S
N490 C486 1.427 . S
N490 C487 1.384 . S
N491 C483 1.427 . S
N491 C489 1.384 . S
H492 C498 0.930 . S
H493 C502 0.930 1_556 S
H494 C507 0.929 1_556 S
H495 C505 0.929 . S
H496 C500 0.929 1_556 S
H497 C506 0.929 . S
C498 H492 0.930 . S
C498 C499 1.367 . S
C498 C506 1.378 . S
C499 C498 1.367 . S
C499 C507 1.433 . S
C500 H496 0.929 1_554 S
C500 C502 1.378 . S
C500 C504 1.350 . S
C501 C504 1.463 . S
C501 C506 1.350 . S
C501 N509 1.427 . S
C502 H493 0.930 1_554 S
C502 C500 1.378 . S
C502 C503 1.367 . S
C503 C502 1.367 . S
C503 C505 1.433 . S
C504 C500 1.350 . S
C504 C501 1.463 . S
C504 N508 1.427 . S
C505 H495 0.929 . S
C505 C503 1.433 . S
C505 N508 1.384 . S
C506 H497 0.929 . S
C506 C498 1.378 . S
C506 C501 1.350 . S
C507 H494 0.929 1_554 S
C507 C499 1.433 . S
C507 N509 1.384 . S
N508 C504 1.427 . S
N508 C505 1.384 . S
N509 C501 1.427 . S
N509 C507 1.384 . S
H510 C516 0.930 . S
H511 C520 0.930 . S
H512 C525 0.929 . S
H513 C523 0.929 . S
H514 C518 0.929 . S
H515 C524 0.929 . S
C516 H510 0.930 . S
C516 C517 1.367 . S
C516 C524 1.378 . S
C517 C516 1.367 . S
C517 C525 1.433 . S
C518 H514 0.929 . S
C518 C520 1.378 . S
C518 C522 1.350 . S
C519 C522 1.463 1_455 S
C519 C524 1.350 . S
C519 N527 1.448 . S
C520 H511 0.930 . S
C520 C518 1.378 . S
C520 C521 1.367 . S
C521 C520 1.367 . S
C521 C523 1.433 . S
C522 C518 1.350 . S
C522 C519 1.463 1_655 S
C522 N526 1.448 . S
C523 H513 0.929 . S
C523 C521 1.433 . S
C523 N526 1.385 . S
C524 H515 0.929 . S
C524 C516 1.378 . S
C524 C519 1.350 . S
C525 H512 0.929 . S
C525 C517 1.433 . S
C525 N527 1.385 . S
N526 C522 1.448 . S
N526 C523 1.385 . S
N527 C519 1.448 . S
N527 C525 1.385 . S
H528 C534 0.930 . S
H529 C538 0.930 . S
H530 C543 0.929 . S
H531 C541 0.929 . S
H532 C536 0.929 . S
H533 C542 0.929 . S
C534 H528 0.930 . S
C534 C535 1.367 . S
C534 C542 1.378 . S
C535 C534 1.367 . S
C535 C543 1.433 . S
C536 H532 0.929 . S
C536 C538 1.378 . S
C536 C540 1.350 . S
C537 C540 1.463 1_565 S
C537 C542 1.350 . S
C537 N545 1.427 . S
C538 H529 0.930 . S
C538 C536 1.378 . S
C538 C539 1.367 . S
C539 C538 1.367 . S
C539 C541 1.433 . S
C540 C536 1.350 . S
C540 C537 1.463 1_545 S
C540 N544 1.427 . S
C541 H531 0.929 . S
C541 C539 1.433 . S
C541 N544 1.384 . S
C542 H533 0.929 . S
C542 C534 1.378 . S
C542 C537 1.350 . S
C543 H530 0.929 . S
C543 C535 1.433 . S
C543 N545 1.384 . S
N544 C540 1.427 . S
N544 C541 1.384 . S
N545 C537 1.427 . S
N545 C543 1.384 . S
H546 C552 0.930 . S
H547 C556 0.930 . S
H548 C561 0.929 . S
H549 C559 0.929 . S
H550 C554 0.929 . S
H551 C560 0.929 . S
C552 H546 0.930 . S
C552 C553 1.367 . S
C552 C560 1.378 . S
C553 C552 1.367 . S
C553 C561 1.433 . S
C554 H550 0.929 . S
C554 C556 1.378 . S
C554 C558 1.350 . S
C555 C558 1.463 . S
C555 C560 1.350 . S
C555 N563 1.427 . S
C556 H547 0.930 . S
C556 C554 1.378 . S
C556 C557 1.367 . S
C557 C556 1.367 . S
C557 C559 1.433 . S
C558 C554 1.350 . S
C558 C555 1.463 . S
C558 N562 1.427 . S
C559 H549 0.929 . S
C559 C557 1.433 . S
C559 N562 1.384 . S
C560 H551 0.929 . S
C560 C552 1.378 . S
C560 C555 1.350 . S
C561 H548 0.929 . S
C561 C553 1.433 . S
C561 N563 1.384 . S
N562 C558 1.427 . S
N562 C559 1.384 . S
N563 C555 1.427 . S
N563 C561 1.384 . S
H564 C570 0.930 1_455 S
H565 C574 0.930 1_655 S
H566 C579 0.929 . S
H567 C577 0.929 . S
H568 C572 0.929 . S
H569 C578 0.929 . S
C570 H564 0.930 1_655 S
C570 C571 1.367 . S
C570 C578 1.378 1_655 S
C571 C570 1.367 . S
C571 C579 1.433 . S
C572 H568 0.929 . S
C572 C574 1.378 1_655 S
C572 C576 1.350 1_655 S
C573 C576 1.463 1_655 S
C573 C578 1.350 1_655 S
C573 N581 1.427 . S
C574 H565 0.930 1_455 S
C574 C572 1.378 1_455 S
C574 C575 1.367 . S
C575 C574 1.367 . S
C575 C577 1.433 . S
C576 C572 1.350 1_455 S
C576 C573 1.463 1_455 S
C576 N580 1.427 . S
C577 H567 0.929 . S
C577 C575 1.433 . S
C577 N580 1.384 . S
C578 H569 0.929 . S
C578 C570 1.378 1_455 S
C578 C573 1.350 1_455 S
C579 H566 0.929 . S
C579 C571 1.433 . S
C579 N581 1.384 . S
N580 C576 1.427 . S
N580 C577 1.384 . S
N581 C573 1.427 . S
N581 C579 1.384 . S
H582 C588 0.930 . S
H583 C592 0.930 . S
H584 C597 0.929 . S
H585 C595 0.929 . S
H586 C590 0.929 . S
H587 C596 0.929 . S
C588 H582 0.930 . S
C588 C589 1.367 . S
C588 C596 1.378 . S
C589 C588 1.367 . S
C589 C597 1.433 . S
C590 H586 0.929 . S
C590 C592 1.378 . S
C590 C594 1.350 . S
C591 C594 1.463 1_545 S
C591 C596 1.350 . S
C591 N599 1.427 1_545 S
C592 H583 0.930 . S
C592 C590 1.378 . S
C592 C593 1.367 . S
C593 C592 1.367 . S
C593 C595 1.433 . S
C594 C590 1.350 . S
C594 C591 1.463 1_565 S
C594 N598 1.427 1_565 S
C595 H585 0.929 . S
C595 C593 1.433 . S
C595 N598 1.384 1_565 S
C596 H587 0.929 . S
C596 C588 1.378 . S
C596 C591 1.350 . S
C597 H584 0.929 . S
C597 C589 1.433 . S
C597 N599 1.384 1_545 S
N598 C594 1.427 1_545 S
N598 C595 1.384 1_545 S
N599 C591 1.427 1_565 S
N599 C597 1.384 1_565 S
C175 C11 1.491 . S
C179 C137 1.492 . S
C193 C25 1.489 . S
C197 C151 1.494 1_655 S
C211 C33 1.003 . S
C215 C159 0.996 . S
C229 C53 1.481 . S
C233 C95 1.499 . S
C247 C109 1.484 1_455 S
C251 C67 1.497 . S
C265 C117 0.998 . S
C269 C75 1.001 . S
C283 C145 1.166 . S
C287 C5 1.168 . S
C301 C19 1.141 . S
C305 C165 1.247 . S
C319 C39 1.258 . S
C323 C89 1.120 . S
C337 C47 1.157 . S
C341 C103 1.141 . S
C355 C61 1.134 . S
C359 C123 1.259 . S
C373 C81 1.250 . S
C377 C131 1.134 . S
C391 C130 0.813 . S
C395 C4 0.828 . S
C409 C18 0.807 . S
C413 C144 0.831 1_655 S
C427 C40 0.591 . S
C431 C166 0.585 . S
C445 C88 0.824 . S
C449 C46 0.811 . S
C463 C60 0.810 . S
C467 C102 0.830 1_455 S
C481 C124 0.578 . S
C485 C82 0.590 . S
C499 C12 1.351 . S
C503 C54 1.352 . S
C517 C68 1.396 . S
C521 C26 1.395 . S
C535 C32 1.337 . S
C539 C74 1.327 . S
C553 C96 1.394 . S
C557 C138 1.392 . S
C571 C110 1.347 . S
C575 C152 1.347 . S
C589 C158 1.330 . S
C593 C116 1.337 . S
