# Generated by pormake.
# Topology ukh, (4)-cn, num edge types: 1
# Building blocks:
#     Node 0, Type 0, BuildingBlock: QUQFOY_clean_sbu_3, # of connection points: 4
#     Node 1, Type 0, BuildingBlock: QUQFOY_clean_sbu_3, # of connection points: 4
#     Node 2, Type 0, BuildingBlock: QUQFOY_clean_sbu_3, # of connection points: 4
#     Node 3, Type 0, BuildingBlock: QUQFOY_clean_sbu_3, # of connection points: 4
#     Node 4, Type 0, BuildingBlock: QUQFOY_clean_sbu_3, # of connection points: 4
#     Node 5, Type 0, BuildingBlock: QUQFOY_clean_sbu_3, # of connection points: 4
#     Node 6, Type 0, BuildingBlock: QUQFOY_clean_sbu_3, # of connection points: 4
#     Node 7, Type 0, BuildingBlock: QUQFOY_clean_sbu_3, # of connection points: 4
#     Node 8, Type 0, BuildingBlock: QUQFOY_clean_sbu_3, # of connection points: 4
#     Node 9, Type 0, BuildingBlock: QUQFOY_clean_sbu_3, # of connection points: 4
#     Node 10, Type 0, BuildingBlock: QUQFOY_clean_sbu_3, # of connection points: 4
#     Node 11, Type 0, BuildingBlock: QUQFOY_clean_sbu_3, # of connection points: 4
#     Edge 12, Type (0, 0), BuildingBlock: KIFKEQ_clean_linker_1, # of connection points: 2
#     Edge 13, Type (0, 0), BuildingBlock: KIFKEQ_clean_linker_1, # of connection points: 2
#     Edge 14, Type (0, 0), BuildingBlock: KIFKEQ_clean_linker_1, # of connection points: 2
#     Edge 15, Type (0, 0), BuildingBlock: KIFKEQ_clean_linker_1, # of connection points: 2
#     Edge 16, Type (0, 0), BuildingBlock: KIFKEQ_clean_linker_1, # of connection points: 2
#     Edge 17, Type (0, 0), BuildingBlock: KIFKEQ_clean_linker_1, # of connection points: 2
#     Edge 18, Type (0, 0), BuildingBlock: KIFKEQ_clean_linker_1, # of connection points: 2
#     Edge 19, Type (0, 0), BuildingBlock: KIFKEQ_clean_linker_1, # of connection points: 2
#     Edge 20, Type (0, 0), BuildingBlock: KIFKEQ_clean_linker_1, # of connection points: 2
#     Edge 21, Type (0, 0), BuildingBlock: KIFKEQ_clean_linker_1, # of connection points: 2
#     Edge 22, Type (0, 0), BuildingBlock: KIFKEQ_clean_linker_1, # of connection points: 2
#     Edge 23, Type (0, 0), BuildingBlock: KIFKEQ_clean_linker_1, # of connection points: 2
#     Edge 24, Type (0, 0), BuildingBlock: KIFKEQ_clean_linker_1, # of connection points: 2
#     Edge 25, Type (0, 0), BuildingBlock: KIFKEQ_clean_linker_1, # of connection points: 2
#     Edge 26, Type (0, 0), BuildingBlock: KIFKEQ_clean_linker_1, # of connection points: 2
#     Edge 27, Type (0, 0), BuildingBlock: KIFKEQ_clean_linker_1, # of connection points: 2
#     Edge 28, Type (0, 0), BuildingBlock: KIFKEQ_clean_linker_1, # of connection points: 2
#     Edge 29, Type (0, 0), BuildingBlock: KIFKEQ_clean_linker_1, # of connection points: 2
#     Edge 30, Type (0, 0), BuildingBlock: KIFKEQ_clean_linker_1, # of connection points: 2
#     Edge 31, Type (0, 0), BuildingBlock: KIFKEQ_clean_linker_1, # of connection points: 2
#     Edge 32, Type (0, 0), BuildingBlock: KIFKEQ_clean_linker_1, # of connection points: 2
#     Edge 33, Type (0, 0), BuildingBlock: KIFKEQ_clean_linker_1, # of connection points: 2
#     Edge 34, Type (0, 0), BuildingBlock: KIFKEQ_clean_linker_1, # of connection points: 2
#     Edge 35, Type (0, 0), BuildingBlock: KIFKEQ_clean_linker_1, # of connection points: 2
# Relax obj value: 0.081
# Max RMSD: 0.104
# Mean RMSD: 0.098
data_MOF--net-ukh--node1-QUQFOY_clean_sbu_3--edge1-KIFKEQ_clean_linker_1
_symmetry_space_group_name_H-M    P1
_symmetry_Int_Tables_number       1
_symmetry_cell_setting            triclinic
loop_
_symmetry_equiv_pos_as_xyz
'x, y, z'
_cell_length_a     33.517932
_cell_length_b     34.219998
_cell_length_c     67.428343
_cell_angle_alpha  90.149861
_cell_angle_beta   89.880026
_cell_angle_gamma 119.29205
loop_
_atom_site_label
_atom_site_type_symbol
_atom_site_fract_x
_atom_site_fract_y
_atom_site_fract_z
_atom_type_partial_charge
C0 C 0.18818 0.18416 0.03119 0.0
O1 O 0.17519 0.15592 0.04524 0.0
Cd2 Cd 0.22685 0.1432 0.06501 0.0
O3 O 0.23059 0.20884 0.02742 0.0
Cd4 Cd 0.30615 0.22321 0.03991 0.0
C5 C 0.27614 0.11657 0.02613 0.0
O6 O 0.28725 0.21443 0.07481 0.0
O7 O 0.34752 0.21028 0.06731 0.0
O8 O 0.32604 0.3014 0.0374 0.0
C9 C 0.32144 0.2114 0.0807 0.0
O10 O 0.25304 0.10507 0.04216 0.0
C11 C 0.36425 0.31526 0.02877 0.0
O12 O 0.29669 0.1574 0.02044 0.0
O13 O 0.37588 0.28585 0.02468 0.0
C14 C 0.14247 0.31968 0.33771 0.0
O15 O 0.12957 0.33894 0.32525 0.0
Cd16 Cd 0.06167 0.34458 0.33105 0.0
O17 O 0.12153 0.30603 0.35417 0.0
Cd18 Cd 0.05847 0.30551 0.37342 0.0
C19 C -0.0151 0.23349 0.33974 0.0
O20 O 0.06548 0.37745 0.36312 0.0
O21 O 0.00298 0.33099 0.37802 0.0
O22 O 0.11057 0.32609 0.40152 0.0
C23 C 0.0275 0.36959 0.37066 0.0
O24 O -0.00145 0.26742 0.32841 0.0
C25 C 0.08173 0.29716 0.41332 0.0
O26 O 0.00269 0.23724 0.35679 0.0
O27 O 0.04177 0.27192 0.40659 0.0
C28 C 0.80885 0.16777 0.66953 0.0
O29 O 0.77707 0.15703 0.65695 0.0
Cd30 Cd 0.70433 0.09059 0.66199 0.0
O31 O 0.80091 0.14613 0.6857 0.0
Cd32 Cd 0.73675 0.08522 0.70385 0.0
C33 C 0.73887 0.01257 0.67118 0.0
O34 O 0.66861 0.08886 0.69324 0.0
O35 O 0.65826 0.02549 0.70476 0.0
O36 O 0.75134 0.13305 0.73262 0.0
C37 C 0.64105 0.04927 0.69901 0.0
O38 O 0.71947 0.02764 0.65965 0.0
C39 C 0.75984 0.10933 0.74447 0.0
O40 O 0.75211 0.02933 0.6884 0.0
O41 O 0.75774 0.07386 0.73743 0.0
C42 C 0.75027 0.77756 0.03027 0.0
O43 O 0.7655 0.80498 0.04468 0.0
Cd44 Cd 0.71831 0.823 0.06526 0.0
O45 O 0.70746 0.75511 0.0268 0.0
Cd46 Cd 0.63264 0.74088 0.04027 0.0
C47 C 0.66504 0.84875 0.02723 0.0
O48 O 0.65654 0.75283 0.07431 0.0
O49 O 0.59168 0.74959 0.06924 0.0
O50 O 0.61333 0.6629 0.03724 0.0
C51 C 0.62229 0.754 0.08152 0.0
O52 O 0.69112 0.86014 0.04237 0.0
C53 C 0.57472 0.6489 0.02898 0.0
O54 O 0.64165 0.8077 0.02193 0.0
O55 O 0.56264 0.67815 0.02534 0.0
C56 C 0.79603 0.64064 0.337 0.0
O57 O 0.8087 0.62117 0.32446 0.0
Cd58 Cd 0.87724 0.61649 0.3299 0.0
O59 O 0.8176 0.65498 0.35327 0.0
Cd60 Cd 0.88163 0.65667 0.37204 0.0
C61 C 0.95389 0.72794 0.33784 0.0
O62 O 0.87488 0.58453 0.36199 0.0
O63 O 0.9378 0.63203 0.37631 0.0
O64 O 0.83011 0.63625 0.40037 0.0
C65 C 0.91321 0.59302 0.36931 0.0
O66 O 0.94003 0.69366 0.32667 0.0
C67 C 0.85901 0.66542 0.41208 0.0
O68 O 0.9366 0.72466 0.35501 0.0
O69 O 0.89881 0.69081 0.4052 0.0
C70 C 0.1299 0.79275 0.66987 0.0
O71 O 0.16175 0.80348 0.65729 0.0
Cd72 Cd 0.2343 0.8701 0.6623 0.0
O73 O 0.13775 0.81442 0.68607 0.0
Cd74 Cd 0.20201 0.87537 0.70423 0.0
C75 C 0.19924 0.94774 0.67183 0.0
O76 O 0.27028 0.87207 0.69342 0.0
O77 O 0.28038 0.93543 0.70499 0.0
O78 O 0.18821 0.82768 0.73289 0.0
C79 C 0.29773 0.91174 0.69919 0.0
O80 O 0.21866 0.93273 0.66021 0.0
C81 C 0.17957 0.85122 0.74487 0.0
O82 O 0.18622 0.93107 0.68907 0.0
O83 O 0.18115 0.88649 0.73795 0.0
C84 C 0.80356 0.64125 0.62945 0.0
O85 O 0.7713 0.62196 0.64191 0.0
Cd86 Cd 0.6978 0.61637 0.6362 0.0
O87 O 0.79642 0.65506 0.61303 0.0
Cd88 Cd 0.73392 0.65581 0.59392 0.0
C89 C 0.73166 0.72743 0.62775 0.0
O90 O 0.66895 0.58368 0.60411 0.0
O91 O 0.65297 0.63026 0.58936 0.0
O92 O 0.76559 0.63561 0.56564 0.0
C93 C 0.63887 0.59159 0.59662 0.0
O94 O 0.7114 0.69339 0.63903 0.0
C95 C 0.76568 0.66468 0.55396 0.0
O96 O 0.74594 0.72388 0.61069 0.0
O97 O 0.7509 0.68982 0.56083 0.0
C98 C -0.01565 0.77563 0.93752 0.0
O99 O -0.00358 0.80281 0.92305 0.0
Cd100 Cd 0.06171 0.82099 0.90259 0.0
O101 O 0.00486 0.75335 0.94108 0.0
Cd102 Cd 0.06567 0.73927 0.92763 0.0
C103 C 0.14029 0.84728 0.94089 0.0
O104 O 0.05381 0.75095 0.89356 0.0
O105 O 0.11579 0.74848 0.89878 0.0
O106 O 0.00742 0.66117 0.93051 0.0
C107 C 0.08947 0.75247 0.88644 0.0
O108 O 0.12567 0.85845 0.92568 0.0
C109 C 0.03227 0.64732 0.93867 0.0
O110 O 0.12287 0.80628 0.94617 0.0
O111 O 0.07349 0.67673 0.94237 0.0
C112 C 0.31543 0.16579 0.29695 0.0
O113 O 0.3374 0.15575 0.30933 0.0
Cd114 Cd 0.34397 0.08962 0.30392 0.0
O115 O 0.30164 0.14406 0.28077 0.0
Cd116 Cd 0.30686 0.08477 0.26191 0.0
C117 C 0.23122 0.01201 0.29386 0.0
O118 O 0.37917 0.08971 0.2728 0.0
O119 O 0.32735 0.02627 0.26081 0.0
O120 O 0.33678 0.13824 0.23493 0.0
C121 C 0.36801 0.0504 0.26685 0.0
O122 O 0.26559 0.02692 0.30546 0.0
C123 C 0.31004 0.11215 0.22173 0.0
O124 O 0.23489 0.02892 0.27669 0.0
O125 O 0.28104 0.07272 0.22716 0.0
C126 C 0.13589 0.31966 0.63009 0.0
O127 O 0.16789 0.33903 0.64264 0.0
Cd128 Cd 0.24119 0.34387 0.63711 0.0
O129 O 0.14336 0.30563 0.61375 0.0
Cd130 Cd 0.20613 0.30461 0.59489 0.0
C131 C 0.20675 0.23262 0.62871 0.0
O132 O 0.27138 0.37659 0.60516 0.0
O133 O 0.28696 0.32926 0.59066 0.0
O134 O 0.17539 0.32558 0.5667 0.0
C135 C 0.30129 0.36817 0.59778 0.0
O136 O 0.22695 0.26668 0.64002 0.0
C137 C 0.17522 0.29657 0.55488 0.0
O138 O 0.19297 0.23625 0.61157 0.0
O139 O 0.18957 0.27106 0.56163 0.0
C140 C 0.95237 0.17995 0.93788 0.0
O141 O 0.93628 0.14978 0.92457 0.0
Cd142 Cd 0.87342 0.13547 0.90327 0.0
O143 O 0.93594 0.20619 0.94058 0.0
Cd144 Cd 0.87584 0.22124 0.92726 0.0
C145 C 0.79657 0.11476 0.94132 0.0
O146 O 0.88658 0.20698 0.89329 0.0
O147 O 0.82661 0.21325 0.89832 0.0
O148 O 0.93488 0.29937 0.92983 0.0
C149 C 0.852 0.20737 0.88607 0.0
O150 O 0.80862 0.10144 0.92593 0.0
C151 C 0.91042 0.31361 0.93812 0.0
O152 O 0.81715 0.15608 0.94641 0.0
O153 O 0.86919 0.2845 0.94197 0.0
C154 C 0.62143 0.79282 0.29802 0.0
O155 O 0.60051 0.80366 0.31069 0.0
Cd156 Cd 0.59516 0.87067 0.30589 0.0
O157 O 0.63541 0.81468 0.28192 0.0
Cd158 Cd 0.63277 0.87616 0.26405 0.0
C159 C 0.70791 0.94802 0.29666 0.0
O160 O 0.56136 0.87325 0.27479 0.0
O161 O 0.61497 0.93659 0.26349 0.0
O162 O 0.59884 0.8288 0.23525 0.0
C163 C 0.57386 0.91302 0.26914 0.0
O164 O 0.67346 0.93308 0.30824 0.0
C165 C 0.63108 0.8523 0.22333 0.0
O166 O 0.70426 0.9314 0.27939 0.0
O167 O 0.66484 0.88741 0.23036 0.0
H168 H 0.48725 0.60637 0.01398 0.0
H169 H 0.59428 0.58136 0.03506 0.0
H170 H 0.4364 0.52568 0.01029 0.0
H171 H 0.54348 0.50118 0.03184 0.0
H172 H 0.45154 0.3577 0.01347 0.0
H173 H 0.50245 0.43841 0.0099 0.0
H174 H 0.3958 0.46302 0.0322 0.0
H175 H 0.34496 0.38287 0.03532 0.0
C176 C 0.50005 0.58373 0.01767 0.0
C177 C 0.54474 0.60037 0.02493 0.0
C178 C 0.47084 0.53744 0.01567 0.0
C179 C 0.48567 0.50674 0.02087 0.0
C180 C 0.53094 0.52364 0.02744 0.0
C181 C 0.56004 0.56977 0.02944 0.0
C182 C 0.43885 0.38038 0.01735 0.0
C183 C 0.39427 0.36378 0.0248 0.0
C184 C 0.4681 0.42668 0.01542 0.0
C185 C 0.4534 0.45741 0.02086 0.0
C186 C 0.40824 0.44055 0.02762 0.0
C187 C 0.37911 0.39443 0.02956 0.0
H188 H 0.07337 0.45616 0.35733 0.0
H189 H 0.94416 0.35731 0.3822 0.0
H190 H 0.04546 0.5101 0.35614 0.0
H191 H 0.91653 0.4112 0.38113 0.0
H192 H 0.86702 0.5055 0.35709 0.0
H193 H 0.89496 0.45155 0.35659 0.0
H194 H 0.02473 0.55245 0.38008 0.0
H195 H -0.00292 0.60635 0.38046 0.0
C196 C 0.03908 0.44597 0.36255 0.0
C197 C 0.01102 0.40253 0.36989 0.0
C198 C 0.02316 0.47687 0.36193 0.0
C199 C -0.02123 0.46484 0.36852 0.0
C200 C 0.95067 0.42129 0.37572 0.0
C201 C 0.96665 0.39053 0.37645 0.0
C202 C 0.90151 0.51614 0.36211 0.0
C203 C 0.92979 0.56014 0.36884 0.0
C204 C 0.91745 0.48522 0.3619 0.0
C205 C 0.96207 0.4978 0.36828 0.0
C206 C -0.00959 0.54191 0.37485 0.0
C207 C -0.02559 0.57269 0.37518 0.0
H208 H 0.35964 -0.00276 0.68974 0.0
H209 H 0.34787 0.86993 0.70542 0.0
H210 H 0.44229 0.03047 0.68779 0.0
H211 H 0.43086 0.90363 0.70526 0.0
H212 H 0.57909 0.96393 0.68931 0.0
H213 H 0.49646 0.93079 0.68744 0.0
H214 H 0.50802 0.05755 0.70547 0.0
H215 H 0.59102 0.09117 0.70555 0.0
C216 C 0.37503 0.97654 0.69298 0.0
C217 C 0.34764 0.93111 0.69771 0.0
C218 C 0.42254 -0.00435 0.69207 0.0
C219 C 0.44393 0.97011 0.69652 0.0
C220 C 0.41606 0.92442 0.70129 0.0
C221 C 0.3684 0.90499 0.70156 0.0
C222 C 0.56374 -0.01536 0.69269 0.0
C223 C 0.59116 0.03002 0.69755 0.0
C224 C 0.51624 0.96557 0.69183 0.0
C225 C 0.49489 -0.00889 0.69648 0.0
C226 C 0.52279 0.03677 0.70136 0.0
C227 C 0.57045 0.05615 0.70158 0.0
H228 H 0.56789 0.60395 0.58518 0.0
H229 H 0.59813 0.50487 0.60978 0.0
H230 H 0.48642 0.55005 0.58621 0.0
H231 H 0.51632 0.45092 0.61094 0.0
H232 H 0.37193 0.3549 0.58656 0.0
H233 H 0.45345 0.40876 0.58699 0.0
H234 H 0.42432 0.50951 0.61071 0.0
H235 H 0.34247 0.45559 0.61016 0.0
C236 C 0.55715 0.57067 0.59085 0.0
C237 C 0.58948 0.55863 0.59736 0.0
C238 C 0.51042 0.53991 0.59157 0.0
C239 C 0.49495 0.49629 0.59869 0.0
C240 C 0.52726 0.4842 0.60521 0.0
C241 C 0.57407 0.51511 0.60462 0.0
C242 C 0.38286 0.38852 0.5919 0.0
C243 C 0.35073 0.40104 0.59828 0.0
C244 C 0.42961 0.41927 0.59226 0.0
C245 C 0.44531 0.46334 0.5989 0.0
C246 C 0.4132 0.47588 0.60534 0.0
C247 C 0.36638 0.44498 0.6051 0.0
H248 H 0.86582 0.35615 0.95359 0.0
H249 H -0.00287 0.38129 0.93126 0.0
H250 H 0.89546 0.43681 0.95724 0.0
H251 H 0.02632 0.46151 0.93443 0.0
H252 H 0.07792 0.60501 0.95312 0.0
H253 H 0.04863 0.52433 0.95644 0.0
H254 H 0.9165 0.49939 0.93545 0.0
H255 H 0.94533 0.57952 0.9326 0.0
C256 C 0.90107 0.37882 0.9496 0.0
C257 C 0.92897 0.36222 0.94202 0.0
C258 C 0.91803 0.4251 0.95158 0.0
C259 C 0.96329 0.45585 0.94603 0.0
C260 C -0.00847 0.43901 0.93909 0.0
C261 C -0.02539 0.39287 0.93713 0.0
C262 C 0.04248 0.58227 0.94948 0.0
C263 C 0.01409 0.59878 0.9425 0.0
C264 C 0.02572 0.53598 0.95126 0.0
C265 C -0.01982 0.50516 0.94612 0.0
C266 C 0.95151 0.52193 0.9398 0.0
C267 C 0.96822 0.56804 0.93802 0.0
H268 H 0.46014 0.09246 0.2609 0.0
H269 H 0.34475 0.96555 0.27714 0.0
H270 H 0.50968 0.05895 0.26169 0.0
H271 H 0.39431 0.9326 0.27972 0.0
H272 H 0.48211 0.87127 0.26254 0.0
H273 H 0.43293 0.90509 0.26221 0.0
H274 H 0.548 0.03211 0.27985 0.0
H275 H 0.59736 -0.0013 0.27841 0.0
C276 C 0.44571 0.05755 0.26503 0.0
C277 C 0.3988 0.03143 0.26882 0.0
C278 C 0.47406 0.03825 0.26566 0.0
C279 C 0.45627 -0.00729 0.27072 0.0
C280 C 0.40933 0.96726 0.27518 0.0
C281 C 0.38086 -0.01378 0.27392 0.0
C282 C 0.49659 0.90639 0.26635 0.0
C283 C 0.54336 0.93249 0.2704 0.0
C284 C 0.46841 0.92589 0.26634 0.0
C285 C 0.48619 0.97166 0.271 0.0
C286 C 0.533 -0.00278 0.27565 0.0
C287 C 0.56135 0.978 0.27504 0.0
H288 H 0.34757 0.19802 0.20859 0.0
H289 H 0.27967 0.06068 0.18822 0.0
H290 H 0.3532 0.22378 0.17437 0.0
H291 H 0.28645 0.08676 0.15388 0.0
H292 H 0.36083 0.16378 0.09523 0.0
H293 H 0.35903 0.13955 0.1296 0.0
H294 H 0.28766 0.2101 0.14742 0.0
H295 H 0.28828 0.23332 0.11307 0.0
C296 C 0.33405 0.17337 0.19679 0.0
C297 C 0.31305 0.12734 0.20103 0.0
C298 C 0.33725 0.18814 0.17727 0.0
C299 C 0.32044 0.1572 0.1616 0.0
C300 C 0.29995 0.11119 0.16576 0.0
C301 C 0.29581 0.09633 0.18536 0.0
C302 C 0.34519 0.17444 0.10654 0.0
C303 C 0.3247 0.20041 0.10155 0.0
C304 C 0.34389 0.16034 0.1261 0.0
C305 C 0.32309 0.17293 0.14101 0.0
C306 C 0.30398 0.20011 0.13614 0.0
C307 C 0.30432 0.21331 0.11654 0.0
H308 H 0.16716 0.32655 0.4283 0.0
H309 H 0.02439 0.2598 0.4449 0.0
H310 H 0.18811 0.32263 0.46269 0.0
H311 H 0.04563 0.25692 0.47941 0.0
H312 H 0.11962 0.32639 0.53988 0.0
H313 H 0.09507 0.32279 0.50546 0.0
H314 H 0.17155 0.25667 0.48868 0.0
H315 H 0.19535 0.25923 0.52324 0.0
C316 C 0.1403 0.31102 0.43929 0.0
C317 C 0.09415 0.29354 0.43396 0.0
C318 C 0.15229 0.3086 0.4589 0.0
C319 C 0.11843 0.2895 0.4736 0.0
C320 C 0.07229 0.2719 0.4683 0.0
C321 C 0.0602 0.27344 0.44859 0.0
C322 C 0.13097 0.31085 0.52887 0.0
C323 C 0.15944 0.29315 0.5342 0.0
C324 C 0.11674 0.30861 0.50924 0.0
C325 C 0.13149 0.28947 0.49452 0.0
C326 C 0.15987 0.27168 0.49981 0.0
C327 C 0.17332 0.27304 0.51954 0.0
H328 H 0.76019 0.17978 0.76362 0.0
H329 H 0.78677 0.06962 0.77264 0.0
H330 H 0.78179 0.20357 0.79788 0.0
H331 H 0.80803 0.0933 0.80702 0.0
H332 H 0.89438 0.18149 0.85872 0.0
H333 H 0.87092 0.15717 0.8247 0.0
H334 H 0.75489 0.17837 0.83222 0.0
H335 H 0.77862 0.20317 0.86634 0.0
C336 C 0.77048 0.16053 0.77294 0.0
C337 C 0.77192 0.12288 0.76541 0.0
C338 C 0.78258 0.17404 0.7926 0.0
C339 C 0.79666 0.15036 0.80513 0.0
C340 C 0.7978 0.11251 0.79764 0.0
C341 C 0.78543 0.09882 0.778 0.0
C342 C 0.86393 0.18113 0.85312 0.0
C343 C 0.83832 0.19426 0.86522 0.0
C344 C 0.85032 0.16685 0.83367 0.0
C345 C 0.81093 0.1656 0.82582 0.0
C346 C 0.78559 0.17926 0.83783 0.0
C347 C 0.79908 0.19333 0.85737 0.0
H348 H 0.55443 0.76071 0.10133 0.0
H349 H 0.69006 0.77775 0.10881 0.0
H350 H 0.5562 0.78575 0.13549 0.0
H351 H 0.69162 0.80234 0.14286 0.0
H352 H 0.69783 0.89099 0.19506 0.0
H353 H 0.69467 0.86739 0.16059 0.0
H354 H 0.55691 0.75954 0.16982 0.0
H355 H 0.55985 0.78322 0.20416 0.0
C356 C 0.58447 0.76959 0.11028 0.0
C357 C 0.62208 0.76728 0.10238 0.0
C358 C 0.58545 0.78379 0.12984 0.0
C359 C 0.62417 0.79624 0.14181 0.0
C360 C 0.66159 0.79362 0.13391 0.0
C361 C 0.66051 0.77918 0.11445 0.0
C362 C 0.66685 0.86234 0.1897 0.0
C363 C 0.62917 0.8389 0.20234 0.0
C364 C 0.66511 0.8487 0.17001 0.0
C365 C 0.62556 0.81154 0.16253 0.0
C366 C 0.58768 0.78854 0.1751 0.0
C367 C 0.58951 0.80197 0.19481 0.0
H368 H 0.74559 0.70229 0.52258 0.0
H369 H 0.82181 0.63552 0.53868 0.0
H370 H 0.76958 0.7054 0.48798 0.0
H371 H 0.84656 0.63967 0.50421 0.0
H372 H 0.91668 0.70299 0.44354 0.0
H373 H 0.89572 0.70569 0.47818 0.0
H374 H 0.75307 0.63962 0.46182 0.0
H375 H 0.77375 0.63588 0.42733 0.0
C376 C 0.76779 0.6887 0.51876 0.0
C377 C 0.78172 0.66851 0.53327 0.0
C378 C 0.78135 0.69038 0.499 0.0
C379 C 0.80991 0.67283 0.49354 0.0
C380 C 0.82477 0.65367 0.50812 0.0
C381 C 0.81042 0.65111 0.52778 0.0
C382 C 0.8809 0.68925 0.44735 0.0
C383 C 0.84682 0.66909 0.43279 0.0
C384 C 0.86896 0.69067 0.46712 0.0
C385 C 0.82285 0.67292 0.47256 0.0
C386 C 0.78887 0.65378 0.45794 0.0
C387 C 0.80071 0.65146 0.43826 0.0
H388 H 0.16433 0.75955 0.86675 0.0
H389 H 0.04533 0.77587 0.85908 0.0
H390 H 0.1877 0.78464 0.83264 0.0
H391 H 0.0685 0.80055 0.8251 0.0
H392 H 0.15119 0.88969 0.77319 0.0
H393 H 0.13057 0.86593 0.80759 0.0
H394 H 0.16093 0.7583 0.7982 0.0
H395 H 0.18181 0.78212 0.76392 0.0
C396 C 0.14309 0.76828 0.85777 0.0
C397 C 0.10303 0.76576 0.8656 0.0
C398 C 0.15639 0.78252 0.83824 0.0
C399 C 0.13004 0.79479 0.82625 0.0
C400 C 0.08985 0.79195 0.83407 0.0
C401 C 0.07642 0.77746 0.8535 0.0
C402 C 0.15358 0.86106 0.7785 0.0
C403 C 0.16798 0.83771 0.76583 0.0
C404 C 0.14158 0.84732 0.79815 0.0
C405 C 0.14405 0.81018 0.80557 0.0
C406 C 0.15909 0.78728 0.79297 0.0
C407 C 0.17077 0.80079 0.7733 0.0
H408 H 0.21181 0.92655 0.92895 0.0
H409 H 0.14374 0.85103 0.9813 0.0
H410 H 0.25792 -0.00759 0.94927 0.0
H411 H 0.18721 0.91736 0.00164 0.0
H412 H 0.27193 0.11263 -0.01426 0.0
H413 H 0.24859 0.04654 0.96519 0.0
H414 H 0.25147 0.97254 0.01663 0.0
H415 H 0.27176 0.03815 0.03725 0.0
C416 C 0.2072 0.92399 0.9449 0.0
C417 C 0.17416 0.88375 0.95356 0.0
C418 C 0.23322 0.96194 0.95657 0.0
C419 C 0.22592 0.96102 0.97718 0.0
C420 C 0.19456 0.91975 -0.01408 0.0
C421 C 0.16936 0.88147 0.97425 0.0
C422 C 0.26861 0.08251 -0.00748 0.0
C423 C 0.2733 0.08043 0.01309 0.0
C424 C 0.25526 0.04436 0.98072 0.0
C425 C 0.24723 0.00341 -0.01083 0.0
C426 C 0.25577 0.00274 0.00958 0.0
C427 C 0.26801 0.04057 0.02141 0.0
H428 H 0.17579 0.27608 0.36036 0.0
H429 H 0.19202 0.33907 0.30319 0.0
H430 H 0.227 0.24854 0.35011 0.0
H431 H 0.24449 0.31238 0.2931 0.0
H432 H 0.26568 0.19263 0.27441 0.0
H433 H 0.23336 0.2394 0.2845 0.0
H434 H 0.30274 0.26399 0.34089 0.0
H435 H 0.33426 0.21596 0.33096 0.0
C436 C 0.19103 0.28488 0.34573 0.0
C437 C 0.17921 0.30924 0.33249 0.0
C438 C 0.22078 0.26934 0.3399 0.0
C439 C 0.23961 0.27791 0.32071 0.0
C440 C 0.22995 0.30455 0.30787 0.0
C441 C 0.20005 0.32004 0.3137 0.0
C442 C 0.27468 0.2085 0.28886 0.0
C443 C 0.30204 0.19997 0.30199 0.0
C444 C 0.25638 0.2357 0.2946 0.0
C445 C 0.26511 0.25519 0.31359 0.0
C446 C 0.29472 0.24885 0.32628 0.0
C447 C 0.31297 0.2215 0.32055 0.0
H448 H 0.88492 0.19616 0.6926 0.0
H449 H 0.84059 0.21706 0.63538 0.0
H450 H 0.96411 0.24263 0.68275 0.0
H451 H 0.92025 0.26484 0.62569 0.0
H452 H 0.05925 0.27553 0.60728 0.0
H453 H -0.01952 0.24888 0.61714 0.0
H454 H 0.02631 0.31484 0.67388 0.0
H455 H 0.10549 0.3406 0.66418 0.0
C456 C 0.89201 0.21149 0.67806 0.0
C457 C 0.85635 0.20228 0.66467 0.0
C458 C 0.93757 0.23852 0.67245 0.0
C459 C 0.94864 0.25718 0.65334 0.0
C460 C 0.9129 0.25032 0.64039 0.0
C461 C 0.86723 0.22314 0.64599 0.0
C462 C 0.0527 0.28498 0.62176 0.0
C463 C 0.08873 0.30966 0.63505 0.0
C464 C 0.00739 0.26995 0.62737 0.0
C465 C -0.00305 0.27939 0.64638 0.0
C466 C 0.03313 0.30635 0.65924 0.0
C467 C 0.07854 0.3213 0.65365 0.0
H468 H 0.66311 0.85171 -0.01316 0.0
H469 H 0.67348 0.92833 0.03933 0.0
H470 H 0.68479 0.91761 0.96647 0.0
H471 H 0.69207 -0.00621 0.01901 0.0
H472 H 0.79758 0.11269 0.9817 0.0
H473 H 0.75475 0.04746 0.0026 0.0
H474 H 0.67525 0.97266 0.95173 0.0
H475 H 0.72069 0.03736 0.93074 0.0
C476 C 0.66832 0.8823 -0.00607 0.0
C477 C 0.66701 0.88502 0.01466 0.0
C478 C 0.6807 0.92034 0.98225 0.0
C479 C 0.69111 0.96181 -0.009 0.0
C480 C 0.68588 0.96315 0.01168 0.0
C481 C 0.67464 0.92544 0.02336 0.0
C482 C 0.77011 0.08264 0.97514 0.0
C483 C 0.76269 0.07998 0.9546 0.0
C484 C 0.74529 0.04496 -0.01287 0.0
C485 C 0.71173 0.00396 0.97892 0.0
C486 C 0.70169 0.00289 0.95859 0.0
C487 C 0.7273 0.04021 0.94655 0.0
H488 H 0.60304 0.74285 0.33199 0.0
H489 H 0.66906 0.76436 0.27481 0.0
H490 H 0.63455 0.6947 0.34153 0.0
H491 H 0.70142 0.71753 0.28452 0.0
H492 H 0.74498 0.61967 0.3029 0.0
H493 H 0.69141 0.64524 0.29327 0.0
H494 H 0.71065 0.71072 0.35011 0.0
H495 H 0.76291 0.68427 0.35991 0.0
C496 C 0.62369 0.73682 0.32135 0.0
C497 C 0.63403 0.75798 0.30274 0.0
C498 C 0.64196 0.70942 0.32686 0.0
C499 C 0.671 0.70267 0.3139 0.0
C500 C 0.67889 0.72158 0.29484 0.0
C501 C 0.66055 0.74881 0.28931 0.0
C502 C 0.73709 0.63881 0.31347 0.0
C503 C 0.75873 0.65041 0.33208 0.0
C504 C 0.70655 0.65365 0.30791 0.0
C505 C 0.69705 0.68044 0.32082 0.0
C506 C 0.71671 0.68978 0.33985 0.0
C507 C 0.74708 0.67488 0.34542 0.0
H508 H 0.09857 0.74303 0.63576 0.0
H509 H 0.05347 0.76493 0.69275 0.0
H510 H 0.01905 0.69548 0.62588 0.0
H511 H -0.02561 0.71866 0.68271 0.0
H512 H 0.83318 0.6207 0.66375 0.0
H513 H 0.91212 0.64644 0.67375 0.0
H514 H 0.95928 0.71181 0.61705 0.0
H515 H 0.88074 0.6852 0.6069 0.0
C516 C 0.07178 0.73722 0.64628 0.0
C517 C 0.08242 0.7583 0.66495 0.0
C518 C 0.02619 0.71017 0.64057 0.0
C519 C -0.00972 0.70367 0.65339 0.0
C520 C 0.00107 0.72252 0.6725 0.0
C521 C 0.04657 0.74942 0.67822 0.0
C522 C 0.86037 0.63988 0.6533 0.0
C523 C 0.85062 0.65134 0.63461 0.0
C524 C 0.90564 0.65482 0.65906 0.0
C525 C 0.94212 0.68158 0.64629 0.0
C526 C 0.93212 0.69088 0.62721 0.0
C527 C 0.88695 0.67588 0.62143 0.0
H528 H -0.02223 0.11653 0.94414 0.0
H529 H 0.00951 0.25038 0.96152 0.0
H530 H 0.03519 0.11981 0.96727 0.0
H531 H 0.06751 0.25365 -0.01546 0.0
H532 H 0.20124 0.24999 0.00475 0.0
H533 H 0.14482 0.25106 0.98209 0.0
H534 H 0.04134 0.12468 0.00581 0.0
H535 H 0.09723 0.12361 0.02858 0.0
C536 C -0.00274 0.14679 0.95276 0.0
C537 C -0.01095 0.18317 0.95105 0.0
C538 C 0.02988 0.14851 0.96607 0.0
C539 C 0.05544 0.18686 0.97772 0.0
C540 C 0.04822 0.22375 0.97567 0.0
C541 C 0.01499 0.22177 0.96257 0.0
C542 C 0.16636 0.22262 0.00523 0.0
C543 C 0.15371 0.18664 0.01841 0.0
C544 C 0.13415 0.22335 -0.00768 0.0
C545 C 0.08898 0.18779 -0.00784 0.0
C546 C 0.07614 0.15226 0.00554 0.0
C547 C 0.10808 0.15183 0.01864 0.0
H548 H 0.78599 -0.00371 0.27476 0.0
H549 H 0.72914 -0.01295 0.33329 0.0
H550 H 0.85605 0.0631 0.28504 0.0
H551 H 0.79866 0.05391 0.34338 0.0
H552 H 0.94392 0.15469 0.36047 0.0
H553 H 0.88033 0.08304 0.3499 0.0
H554 H 0.87726 0.14103 0.29349 0.0
H555 H 0.94119 0.21246 0.30388 0.0
C556 C 0.78852 0.00825 0.28984 0.0
C557 C 0.75184 -0.01357 0.30316 0.0
C558 C 0.82854 0.04667 0.29568 0.0
C559 C 0.8328 0.06387 0.315 0.0
C560 C 0.79667 0.04125 0.32847 0.0
C561 C 0.75666 0.00304 0.32262 0.0
C562 C 0.9299 0.15213 0.34577 0.0
C563 C 0.94751 0.18944 0.33308 0.0
C564 C 0.89335 0.1111 0.33975 0.0
C565 C 0.87371 0.10642 0.32089 0.0
C566 C 0.89199 0.14341 0.30803 0.0
C567 C 0.92843 0.18447 0.31406 0.0
H568 H 0.70871 0.74812 0.66371 0.0
H569 H 0.76877 0.80623 0.60704 0.0
H570 H 0.71554 0.8193 0.67418 0.0
H571 H 0.77613 0.87761 0.6177 0.0
H572 H 0.76867 0.96422 0.69296 0.0
H573 H 0.77193 0.89738 0.68259 0.0
H574 H 0.72313 0.90625 0.62445 0.0
H575 H 0.72043 0.97313 0.63462 0.0
C576 C 0.7237 0.77614 0.65353 0.0
C577 C 0.7379 0.77133 0.63447 0.0
C578 C 0.72792 0.81705 0.65961 0.0
C579 C 0.7463 0.85405 0.64676 0.0
C580 C 0.76134 0.84954 0.62785 0.0
C581 C 0.75727 0.80867 0.62178 0.0
C582 C 0.75908 0.95216 0.6779 0.0
C583 C 0.7441 0.97394 0.66465 0.0
C584 C 0.7607 0.91374 0.67201 0.0
C585 C 0.74764 0.89647 0.65272 0.0
C586 C 0.73389 0.91897 0.63934 0.0
C587 C 0.73208 0.95719 0.64523 0.0
H588 H 0.83997 0.80313 0.03738 0.0
H589 H 0.73381 0.74086 -0.00686 0.0
H590 H 0.89437 0.79818 0.01477 0.0
H591 H 0.7885 0.73638 0.97053 0.0
H592 H 0.91989 0.80063 0.93019 0.0
H593 H 0.86108 0.79673 0.95283 0.0
H594 H 0.90617 0.73691 -0.00249 0.0
H595 H 0.96483 0.74034 0.97486 0.0
C596 C 0.82821 0.78822 0.02288 0.0
C597 C 0.78265 0.77253 0.01701 0.0
C598 C 0.85927 0.78517 0.01001 0.0
C599 C 0.84554 0.76697 -0.00906 0.0
C600 C 0.79992 0.75079 -0.01487 0.0
C601 C 0.76866 0.75321 -0.00189 0.0
C602 C 0.91707 0.78636 0.94479 0.0
C603 C 0.94708 0.77093 0.95077 0.0
C604 C 0.88327 0.78391 0.95768 0.0
C605 C 0.87927 0.76661 0.97688 0.0
C606 C 0.90881 0.75064 0.9828 0.0
C607 C 0.94217 0.75243 0.96981 0.0
H608 H -0.00486 0.80744 0.35818 0.0
H609 H -0.00309 0.74786 0.30178 0.0
H610 H 0.05876 0.87864 0.34726 0.0
H611 H 0.06089 0.81887 0.29105 0.0
H612 H 0.15323 0.96336 0.27193 0.0
H613 H 0.08295 0.89687 0.28232 0.0
H614 H 0.1402 0.90683 0.34066 0.0
H615 H 0.20987 0.9733 0.33047 0.0
C616 C 0.00894 0.80951 0.34344 0.0
C617 C -0.00891 0.7718 0.33092 0.0
C618 C 0.0455 0.85029 0.33722 0.0
C619 C 0.06496 0.85433 0.31832 0.0
C620 C 0.04634 0.81698 0.30561 0.0
C621 C 0.00987 0.77617 0.31184 0.0
C622 C 0.15062 0.95161 0.28703 0.0
C623 C 0.18728 0.97356 0.30033 0.0
C624 C 0.11047 0.91339 0.29294 0.0
C625 C 0.10608 0.89655 0.3123 0.0
C626 C 0.14227 0.91923 0.32572 0.0
C627 C 0.18238 0.95721 0.31981 0.0
H628 H 0.16944 -0.00389 0.69381 0.0
H629 H 0.21702 -0.01325 0.63527 0.0
H630 H 0.16586 0.06275 0.68356 0.0
H631 H 0.21403 0.05342 0.62522 0.0
H632 H 0.16897 0.15356 0.60804 0.0
H633 H 0.16117 0.08209 0.61868 0.0
H634 H 0.22205 0.14073 0.67511 0.0
H635 H 0.22929 0.21198 0.66466 0.0
C636 C 0.17881 0.00802 0.67874 0.0
C637 C 0.19373 -0.01381 0.6654 0.0
C638 C 0.177 0.04633 0.67291 0.0
C639 C 0.1898 0.06342 0.6536 0.0
C640 C 0.20345 0.04083 0.64013 0.0
C641 C 0.20545 0.00273 0.64595 0.0
C642 C 0.18043 0.15117 0.62277 0.0
C643 C 0.20004 0.18863 0.63544 0.0
C644 C 0.17609 0.11025 0.62883 0.0
C645 C 0.19113 0.10581 0.64771 0.0
C646 C 0.20967 0.14292 0.66056 0.0
C647 C 0.21413 0.18387 0.65449 0.0
loop_
_geom_bond_atom_site_label_1
_geom_bond_atom_site_label_2
_geom_bond_distance
_geom_bond_site_symmetry_2
_ccdc_geom_bond_type
C0 O1 1.306 . S
C0 O3 1.160 . S
O1 C0 1.306 . S
O1 Cd2 2.228 . S
Cd2 O1 2.228 . S
Cd2 O6 2.273 . S
Cd2 O10 2.277 . S
O3 C0 1.160 . S
O3 Cd4 2.203 . S
Cd4 O3 2.203 . S
Cd4 O6 2.411 . S
Cd4 O7 2.333 . S
Cd4 O8 2.352 . S
Cd4 O12 2.277 . S
Cd4 O13 2.356 . S
C5 O10 1.209 . S
C5 O12 1.226 . S
O6 Cd2 2.273 . S
O6 Cd4 2.411 . S
O6 C9 1.320 . S
O7 Cd4 2.333 . S
O7 C9 1.214 . S
O8 Cd4 2.352 . S
O8 C11 1.258 . S
C9 O6 1.320 . S
C9 O7 1.214 . S
O10 Cd2 2.277 . S
O10 C5 1.209 . S
C11 O8 1.258 . S
C11 O13 1.282 . S
O12 Cd4 2.277 . S
O12 C5 1.226 . S
O13 Cd4 2.356 . S
O13 C11 1.282 . S
C14 O15 1.306 . S
C14 O17 1.160 . S
O15 C14 1.306 . S
O15 Cd16 2.228 . S
Cd16 O15 2.228 . S
Cd16 O20 2.273 . S
Cd16 O24 2.277 . S
O17 C14 1.160 . S
O17 Cd18 2.203 . S
Cd18 O17 2.203 . S
Cd18 O20 2.411 . S
Cd18 O21 2.333 . S
Cd18 O22 2.352 . S
Cd18 O26 2.277 . S
Cd18 O27 2.356 . S
C19 O24 1.209 . S
C19 O26 1.226 . S
O20 Cd16 2.273 . S
O20 Cd18 2.411 . S
O20 C23 1.320 . S
O21 Cd18 2.333 . S
O21 C23 1.214 . S
O22 Cd18 2.352 . S
O22 C25 1.258 . S
C23 O20 1.320 . S
C23 O21 1.214 . S
O24 Cd16 2.277 . S
O24 C19 1.209 . S
C25 O22 1.258 . S
C25 O27 1.282 . S
O26 Cd18 2.277 . S
O26 C19 1.226 . S
O27 Cd18 2.356 . S
O27 C25 1.282 . S
C28 O29 1.306 . S
C28 O31 1.160 . S
O29 C28 1.306 . S
O29 Cd30 2.228 . S
Cd30 O29 2.228 . S
Cd30 O34 2.273 . S
Cd30 O38 2.277 . S
O31 C28 1.160 . S
O31 Cd32 2.203 . S
Cd32 O31 2.203 . S
Cd32 O34 2.411 . S
Cd32 O35 2.333 . S
Cd32 O36 2.352 . S
Cd32 O40 2.277 . S
Cd32 O41 2.356 . S
C33 O38 1.209 . S
C33 O40 1.226 . S
O34 Cd30 2.273 . S
O34 Cd32 2.411 . S
O34 C37 1.320 . S
O35 Cd32 2.333 . S
O35 C37 1.214 . S
O36 Cd32 2.352 . S
O36 C39 1.258 . S
C37 O34 1.320 . S
C37 O35 1.214 . S
O38 Cd30 2.277 . S
O38 C33 1.209 . S
C39 O36 1.258 . S
C39 O41 1.282 . S
O40 Cd32 2.277 . S
O40 C33 1.226 . S
O41 Cd32 2.356 . S
O41 C39 1.282 . S
C42 O43 1.306 . S
C42 O45 1.160 . S
O43 C42 1.306 . S
O43 Cd44 2.228 . S
Cd44 O43 2.228 . S
Cd44 O48 2.273 . S
Cd44 O52 2.277 . S
O45 C42 1.160 . S
O45 Cd46 2.203 . S
Cd46 O45 2.203 . S
Cd46 O48 2.411 . S
Cd46 O49 2.333 . S
Cd46 O50 2.352 . S
Cd46 O54 2.277 . S
Cd46 O55 2.356 . S
C47 O52 1.209 . S
C47 O54 1.226 . S
O48 Cd44 2.273 . S
O48 Cd46 2.411 . S
O48 C51 1.320 . S
O49 Cd46 2.333 . S
O49 C51 1.214 . S
O50 Cd46 2.352 . S
O50 C53 1.258 . S
C51 O48 1.320 . S
C51 O49 1.214 . S
O52 Cd44 2.277 . S
O52 C47 1.209 . S
C53 O50 1.258 . S
C53 O55 1.282 . S
O54 Cd46 2.277 . S
O54 C47 1.226 . S
O55 Cd46 2.356 . S
O55 C53 1.282 . S
C56 O57 1.306 . S
C56 O59 1.160 . S
O57 C56 1.306 . S
O57 Cd58 2.228 . S
Cd58 O57 2.228 . S
Cd58 O62 2.273 . S
Cd58 O66 2.277 . S
O59 C56 1.160 . S
O59 Cd60 2.203 . S
Cd60 O59 2.203 . S
Cd60 O62 2.411 . S
Cd60 O63 2.333 . S
Cd60 O64 2.352 . S
Cd60 O68 2.277 . S
Cd60 O69 2.356 . S
C61 O66 1.209 . S
C61 O68 1.226 . S
O62 Cd58 2.273 . S
O62 Cd60 2.411 . S
O62 C65 1.320 . S
O63 Cd60 2.333 . S
O63 C65 1.214 . S
O64 Cd60 2.352 . S
O64 C67 1.258 . S
C65 O62 1.320 . S
C65 O63 1.214 . S
O66 Cd58 2.277 . S
O66 C61 1.209 . S
C67 O64 1.258 . S
C67 O69 1.282 . S
O68 Cd60 2.277 . S
O68 C61 1.226 . S
O69 Cd60 2.356 . S
O69 C67 1.282 . S
C70 O71 1.306 . S
C70 O73 1.160 . S
O71 C70 1.306 . S
O71 Cd72 2.228 . S
Cd72 O71 2.228 . S
Cd72 O76 2.273 . S
Cd72 O80 2.277 . S
O73 C70 1.160 . S
O73 Cd74 2.203 . S
Cd74 O73 2.203 . S
Cd74 O76 2.411 . S
Cd74 O77 2.333 . S
Cd74 O78 2.352 . S
Cd74 O82 2.277 . S
Cd74 O83 2.356 . S
C75 O80 1.209 . S
C75 O82 1.226 . S
O76 Cd72 2.273 . S
O76 Cd74 2.411 . S
O76 C79 1.320 . S
O77 Cd74 2.333 . S
O77 C79 1.214 . S
O78 Cd74 2.352 . S
O78 C81 1.258 . S
C79 O76 1.320 . S
C79 O77 1.214 . S
O80 Cd72 2.277 . S
O80 C75 1.209 . S
C81 O78 1.258 . S
C81 O83 1.282 . S
O82 Cd74 2.277 . S
O82 C75 1.226 . S
O83 Cd74 2.356 . S
O83 C81 1.282 . S
C84 O85 1.306 . S
C84 O87 1.160 . S
O85 C84 1.306 . S
O85 Cd86 2.228 . S
Cd86 O85 2.228 . S
Cd86 O90 2.273 . S
Cd86 O94 2.277 . S
O87 C84 1.160 . S
O87 Cd88 2.203 . S
Cd88 O87 2.203 . S
Cd88 O90 2.411 . S
Cd88 O91 2.333 . S
Cd88 O92 2.352 . S
Cd88 O96 2.277 . S
Cd88 O97 2.356 . S
C89 O94 1.209 . S
C89 O96 1.226 . S
O90 Cd86 2.273 . S
O90 Cd88 2.411 . S
O90 C93 1.320 . S
O91 Cd88 2.333 . S
O91 C93 1.214 . S
O92 Cd88 2.352 . S
O92 C95 1.258 . S
C93 O90 1.320 . S
C93 O91 1.214 . S
O94 Cd86 2.277 . S
O94 C89 1.209 . S
C95 O92 1.258 . S
C95 O97 1.282 . S
O96 Cd88 2.277 . S
O96 C89 1.226 . S
O97 Cd88 2.356 . S
O97 C95 1.282 . S
C98 O99 1.306 . S
C98 O101 1.160 . S
O99 C98 1.306 . S
O99 Cd100 2.228 . S
Cd100 O99 2.228 . S
Cd100 O104 2.273 . S
Cd100 O108 2.277 . S
O101 C98 1.160 . S
O101 Cd102 2.203 . S
Cd102 O101 2.203 . S
Cd102 O104 2.411 . S
Cd102 O105 2.333 . S
Cd102 O106 2.352 . S
Cd102 O110 2.277 . S
Cd102 O111 2.356 . S
C103 O108 1.209 . S
C103 O110 1.226 . S
O104 Cd100 2.273 . S
O104 Cd102 2.411 . S
O104 C107 1.320 . S
O105 Cd102 2.333 . S
O105 C107 1.214 . S
O106 Cd102 2.352 . S
O106 C109 1.258 . S
C107 O104 1.320 . S
C107 O105 1.214 . S
O108 Cd100 2.277 . S
O108 C103 1.209 . S
C109 O106 1.258 . S
C109 O111 1.282 . S
O110 Cd102 2.277 . S
O110 C103 1.226 . S
O111 Cd102 2.356 . S
O111 C109 1.282 . S
C112 O113 1.306 . S
C112 O115 1.160 . S
O113 C112 1.306 . S
O113 Cd114 2.228 . S
Cd114 O113 2.228 . S
Cd114 O118 2.273 . S
Cd114 O122 2.277 . S
O115 C112 1.160 . S
O115 Cd116 2.203 . S
Cd116 O115 2.203 . S
Cd116 O118 2.411 . S
Cd116 O119 2.333 . S
Cd116 O120 2.352 . S
Cd116 O124 2.277 . S
Cd116 O125 2.356 . S
C117 O122 1.209 . S
C117 O124 1.226 . S
O118 Cd114 2.273 . S
O118 Cd116 2.411 . S
O118 C121 1.320 . S
O119 Cd116 2.333 . S
O119 C121 1.214 . S
O120 Cd116 2.352 . S
O120 C123 1.258 . S
C121 O118 1.320 . S
C121 O119 1.214 . S
O122 Cd114 2.277 . S
O122 C117 1.209 . S
C123 O120 1.258 . S
C123 O125 1.282 . S
O124 Cd116 2.277 . S
O124 C117 1.226 . S
O125 Cd116 2.356 . S
O125 C123 1.282 . S
C126 O127 1.306 . S
C126 O129 1.160 . S
O127 C126 1.306 . S
O127 Cd128 2.228 . S
Cd128 O127 2.228 . S
Cd128 O132 2.273 . S
Cd128 O136 2.277 . S
O129 C126 1.160 . S
O129 Cd130 2.203 . S
Cd130 O129 2.203 . S
Cd130 O132 2.411 . S
Cd130 O133 2.333 . S
Cd130 O134 2.352 . S
Cd130 O138 2.277 . S
Cd130 O139 2.356 . S
C131 O136 1.209 . S
C131 O138 1.226 . S
O132 Cd128 2.273 . S
O132 Cd130 2.411 . S
O132 C135 1.320 . S
O133 Cd130 2.333 . S
O133 C135 1.214 . S
O134 Cd130 2.352 . S
O134 C137 1.258 . S
C135 O132 1.320 . S
C135 O133 1.214 . S
O136 Cd128 2.277 . S
O136 C131 1.209 . S
C137 O134 1.258 . S
C137 O139 1.282 . S
O138 Cd130 2.277 . S
O138 C131 1.226 . S
O139 Cd130 2.356 . S
O139 C137 1.282 . S
C140 O141 1.306 . S
C140 O143 1.160 . S
O141 C140 1.306 . S
O141 Cd142 2.228 . S
Cd142 O141 2.228 . S
Cd142 O146 2.273 . S
Cd142 O150 2.277 . S
O143 C140 1.160 . S
O143 Cd144 2.203 . S
Cd144 O143 2.203 . S
Cd144 O146 2.411 . S
Cd144 O147 2.333 . S
Cd144 O148 2.352 . S
Cd144 O152 2.277 . S
Cd144 O153 2.356 . S
C145 O150 1.209 . S
C145 O152 1.226 . S
O146 Cd142 2.273 . S
O146 Cd144 2.411 . S
O146 C149 1.320 . S
O147 Cd144 2.333 . S
O147 C149 1.214 . S
O148 Cd144 2.352 . S
O148 C151 1.258 . S
C149 O146 1.320 . S
C149 O147 1.214 . S
O150 Cd142 2.277 . S
O150 C145 1.209 . S
C151 O148 1.258 . S
C151 O153 1.282 . S
O152 Cd144 2.277 . S
O152 C145 1.226 . S
O153 Cd144 2.356 . S
O153 C151 1.282 . S
C154 O155 1.306 . S
C154 O157 1.160 . S
O155 C154 1.306 . S
O155 Cd156 2.228 . S
Cd156 O155 2.228 . S
Cd156 O160 2.273 . S
Cd156 O164 2.277 . S
O157 C154 1.160 . S
O157 Cd158 2.203 . S
Cd158 O157 2.203 . S
Cd158 O160 2.411 . S
Cd158 O161 2.333 . S
Cd158 O162 2.352 . S
Cd158 O166 2.277 . S
Cd158 O167 2.356 . S
C159 O164 1.209 . S
C159 O166 1.226 . S
O160 Cd156 2.273 . S
O160 Cd158 2.411 . S
O160 C163 1.320 . S
O161 Cd158 2.333 . S
O161 C163 1.214 . S
O162 Cd158 2.352 . S
O162 C165 1.258 . S
C163 O160 1.320 . S
C163 O161 1.214 . S
O164 Cd156 2.277 . S
O164 C159 1.209 . S
C165 O162 1.258 . S
C165 O167 1.282 . S
O166 Cd158 2.277 . S
O166 C159 1.226 . S
O167 Cd158 2.356 . S
O167 C165 1.282 . S
H168 C176 0.950 . S
H169 C181 0.950 . S
H170 C178 0.950 . S
H171 C180 0.950 . S
H172 C182 0.950 . S
H173 C184 0.950 . S
H174 C186 0.950 . S
H175 C187 0.950 . S
C176 H168 0.950 . S
C176 C177 1.386 . S
C176 C178 1.391 . S
C177 C176 1.386 . S
C177 C181 1.393 . S
C178 H170 0.950 . S
C178 C176 1.391 . S
C178 C179 1.400 . S
C179 C178 1.400 . S
C179 C180 1.398 . S
C179 C185 1.491 . S
C180 H171 0.950 . S
C180 C179 1.398 . S
C180 C181 1.391 . S
C181 H169 0.950 . S
C181 C177 1.393 . S
C181 C180 1.391 . S
C182 H172 0.950 . S
C182 C183 1.386 . S
C182 C184 1.391 . S
C183 C182 1.386 . S
C183 C187 1.393 . S
C184 H173 0.950 . S
C184 C182 1.391 . S
C184 C185 1.400 . S
C185 C179 1.491 . S
C185 C184 1.400 . S
C185 C186 1.398 . S
C186 H174 0.950 . S
C186 C185 1.398 . S
C186 C187 1.391 . S
C187 H175 0.950 . S
C187 C183 1.393 . S
C187 C186 1.391 . S
H188 C196 0.950 . S
H189 C201 0.950 . S
H190 C198 0.950 . S
H191 C200 0.950 . S
H192 C202 0.950 . S
H193 C204 0.950 . S
H194 C206 0.950 . S
H195 C207 0.950 . S
C196 H188 0.950 . S
C196 C197 1.386 . S
C196 C198 1.391 . S
C197 C196 1.386 . S
C197 C201 1.393 . S
C198 H190 0.950 . S
C198 C196 1.391 . S
C198 C199 1.400 . S
C199 C198 1.400 . S
C199 C200 1.398 1_455 S
C199 C205 1.491 1_455 S
C200 H191 0.950 . S
C200 C199 1.398 1_655 S
C200 C201 1.391 1_655 S
C201 H189 0.950 . S
C201 C197 1.393 . S
C201 C200 1.391 1_455 S
C202 H192 0.950 . S
C202 C203 1.386 . S
C202 C204 1.391 . S
C203 C202 1.386 . S
C203 C207 1.393 . S
C204 H193 0.950 . S
C204 C202 1.391 . S
C204 C205 1.400 . S
C205 C199 1.491 1_655 S
C205 C204 1.400 . S
C205 C206 1.398 1_655 S
C206 H194 0.950 . S
C206 C205 1.398 1_455 S
C206 C207 1.391 1_455 S
C207 H195 0.950 . S
C207 C203 1.393 . S
C207 C206 1.391 1_655 S
H208 C216 0.950 1_545 S
H209 C221 0.950 . S
H210 C218 0.950 . S
H211 C220 0.950 . S
H212 C222 0.950 1_565 S
H213 C224 0.950 . S
H214 C226 0.950 . S
H215 C227 0.950 . S
C216 H208 0.950 1_565 S
C216 C217 1.386 . S
C216 C218 1.391 1_565 S
C217 C216 1.386 . S
C217 C221 1.393 . S
C218 H210 0.950 . S
C218 C216 1.391 1_545 S
C218 C219 1.400 1_545 S
C219 C218 1.400 1_565 S
C219 C220 1.398 . S
C219 C225 1.491 1_565 S
C220 H211 0.950 . S
C220 C219 1.398 . S
C220 C221 1.391 . S
C221 H209 0.950 . S
C221 C217 1.393 . S
C221 C220 1.391 . S
C222 H212 0.950 1_545 S
C222 C223 1.386 . S
C222 C224 1.391 1_545 S
C223 C222 1.386 . S
C223 C227 1.393 . S
C224 H213 0.950 . S
C224 C222 1.391 1_565 S
C224 C225 1.400 1_565 S
C225 C219 1.491 1_545 S
C225 C224 1.400 1_545 S
C225 C226 1.398 . S
C226 H214 0.950 . S
C226 C225 1.398 . S
C226 C227 1.391 . S
C227 H215 0.950 . S
C227 C223 1.393 . S
C227 C226 1.391 . S
H228 C236 0.950 . S
H229 C241 0.950 . S
H230 C238 0.950 . S
H231 C240 0.950 . S
H232 C242 0.950 . S
H233 C244 0.950 . S
H234 C246 0.950 . S
H235 C247 0.950 . S
C236 H228 0.950 . S
C236 C237 1.386 . S
C236 C238 1.391 . S
C237 C236 1.386 . S
C237 C241 1.393 . S
C238 H230 0.950 . S
C238 C236 1.391 . S
C238 C239 1.400 . S
C239 C238 1.400 . S
C239 C240 1.398 . S
C239 C245 1.491 . S
C240 H231 0.950 . S
C240 C239 1.398 . S
C240 C241 1.391 . S
C241 H229 0.950 . S
C241 C237 1.393 . S
C241 C240 1.391 . S
C242 H232 0.950 . S
C242 C243 1.386 . S
C242 C244 1.391 . S
C243 C242 1.386 . S
C243 C247 1.393 . S
C244 H233 0.950 . S
C244 C242 1.391 . S
C244 C245 1.400 . S
C245 C239 1.491 . S
C245 C244 1.400 . S
C245 C246 1.398 . S
C246 H234 0.950 . S
C246 C245 1.398 . S
C246 C247 1.391 . S
C247 H235 0.950 . S
C247 C243 1.393 . S
C247 C246 1.391 . S
H248 C256 0.950 . S
H249 C261 0.950 . S
H250 C258 0.950 . S
H251 C260 0.950 1_455 S
H252 C262 0.950 . S
H253 C264 0.950 . S
H254 C266 0.950 1_655 S
H255 C267 0.950 . S
C256 H248 0.950 . S
C256 C257 1.386 . S
C256 C258 1.391 . S
C257 C256 1.386 . S
C257 C261 1.393 . S
C258 H250 0.950 . S
C258 C256 1.391 . S
C258 C259 1.400 . S
C259 C258 1.400 . S
C259 C260 1.398 . S
C259 C265 1.491 1_655 S
C260 H251 0.950 1_655 S
C260 C259 1.398 . S
C260 C261 1.391 . S
C261 H249 0.950 . S
C261 C257 1.393 . S
C261 C260 1.391 . S
C262 H252 0.950 . S
C262 C263 1.386 . S
C262 C264 1.391 . S
C263 C262 1.386 . S
C263 C267 1.393 . S
C264 H253 0.950 . S
C264 C262 1.391 . S
C264 C265 1.400 . S
C265 C259 1.491 1_455 S
C265 C264 1.400 . S
C265 C266 1.398 . S
C266 H254 0.950 1_455 S
C266 C265 1.398 . S
C266 C267 1.391 . S
C267 H255 0.950 . S
C267 C263 1.393 . S
C267 C266 1.391 . S
H268 C276 0.950 . S
H269 C281 0.950 . S
H270 C278 0.950 . S
H271 C280 0.950 . S
H272 C282 0.950 . S
H273 C284 0.950 . S
H274 C286 0.950 . S
H275 C287 0.950 . S
C276 H268 0.950 . S
C276 C277 1.386 . S
C276 C278 1.391 . S
C277 C276 1.386 . S
C277 C281 1.393 . S
C278 H270 0.950 . S
C278 C276 1.391 . S
C278 C279 1.400 . S
C279 C278 1.400 . S
C279 C280 1.398 1_545 S
C279 C285 1.491 1_545 S
C280 H271 0.950 . S
C280 C279 1.398 1_565 S
C280 C281 1.391 1_565 S
C281 H269 0.950 . S
C281 C277 1.393 . S
C281 C280 1.391 1_545 S
C282 H272 0.950 . S
C282 C283 1.386 . S
C282 C284 1.391 . S
C283 C282 1.386 . S
C283 C287 1.393 . S
C284 H273 0.950 . S
C284 C282 1.391 . S
C284 C285 1.400 . S
C285 C279 1.491 1_565 S
C285 C284 1.400 . S
C285 C286 1.398 1_565 S
C286 H274 0.950 . S
C286 C285 1.398 1_545 S
C286 C287 1.391 1_545 S
C287 H275 0.950 . S
C287 C283 1.393 . S
C287 C286 1.391 1_565 S
H288 C296 0.950 . S
H289 C301 0.950 . S
H290 C298 0.950 . S
H291 C300 0.950 . S
H292 C302 0.950 . S
H293 C304 0.950 . S
H294 C306 0.950 . S
H295 C307 0.950 . S
C296 H288 0.950 . S
C296 C297 1.386 . S
C296 C298 1.391 . S
C297 C296 1.386 . S
C297 C301 1.393 . S
C298 H290 0.950 . S
C298 C296 1.391 . S
C298 C299 1.400 . S
C299 C298 1.400 . S
C299 C300 1.398 . S
C299 C305 1.491 . S
C300 H291 0.950 . S
C300 C299 1.398 . S
C300 C301 1.391 . S
C301 H289 0.950 . S
C301 C297 1.393 . S
C301 C300 1.391 . S
C302 H292 0.950 . S
C302 C303 1.386 . S
C302 C304 1.391 . S
C303 C302 1.386 . S
C303 C307 1.393 . S
C304 H293 0.950 . S
C304 C302 1.391 . S
C304 C305 1.400 . S
C305 C299 1.491 . S
C305 C304 1.400 . S
C305 C306 1.398 . S
C306 H294 0.950 . S
C306 C305 1.398 . S
C306 C307 1.391 . S
C307 H295 0.950 . S
C307 C303 1.393 . S
C307 C306 1.391 . S
H308 C316 0.950 . S
H309 C321 0.950 . S
H310 C318 0.950 . S
H311 C320 0.950 . S
H312 C322 0.950 . S
H313 C324 0.950 . S
H314 C326 0.950 . S
H315 C327 0.950 . S
C316 H308 0.950 . S
C316 C317 1.386 . S
C316 C318 1.391 . S
C317 C316 1.386 . S
C317 C321 1.393 . S
C318 H310 0.950 . S
C318 C316 1.391 . S
C318 C319 1.400 . S
C319 C318 1.400 . S
C319 C320 1.398 . S
C319 C325 1.491 . S
C320 H311 0.950 . S
C320 C319 1.398 . S
C320 C321 1.391 . S
C321 H309 0.950 . S
C321 C317 1.393 . S
C321 C320 1.391 . S
C322 H312 0.950 . S
C322 C323 1.386 . S
C322 C324 1.391 . S
C323 C322 1.386 . S
C323 C327 1.393 . S
C324 H313 0.950 . S
C324 C322 1.391 . S
C324 C325 1.400 . S
C325 C319 1.491 . S
C325 C324 1.400 . S
C325 C326 1.398 . S
C326 H314 0.950 . S
C326 C325 1.398 . S
C326 C327 1.391 . S
C327 H315 0.950 . S
C327 C323 1.393 . S
C327 C326 1.391 . S
H328 C336 0.950 . S
H329 C341 0.950 . S
H330 C338 0.950 . S
H331 C340 0.950 . S
H332 C342 0.950 . S
H333 C344 0.950 . S
H334 C346 0.950 . S
H335 C347 0.950 . S
C336 H328 0.950 . S
C336 C337 1.386 . S
C336 C338 1.391 . S
C337 C336 1.386 . S
C337 C341 1.393 . S
C338 H330 0.950 . S
C338 C336 1.391 . S
C338 C339 1.400 . S
C339 C338 1.400 . S
C339 C340 1.398 . S
C339 C345 1.491 . S
C340 H331 0.950 . S
C340 C339 1.398 . S
C340 C341 1.391 . S
C341 H329 0.950 . S
C341 C337 1.393 . S
C341 C340 1.391 . S
C342 H332 0.950 . S
C342 C343 1.386 . S
C342 C344 1.391 . S
C343 C342 1.386 . S
C343 C347 1.393 . S
C344 H333 0.950 . S
C344 C342 1.391 . S
C344 C345 1.400 . S
C345 C339 1.491 . S
C345 C344 1.400 . S
C345 C346 1.398 . S
C346 H334 0.950 . S
C346 C345 1.398 . S
C346 C347 1.391 . S
C347 H335 0.950 . S
C347 C343 1.393 . S
C347 C346 1.391 . S
H348 C356 0.950 . S
H349 C361 0.950 . S
H350 C358 0.950 . S
H351 C360 0.950 . S
H352 C362 0.950 . S
H353 C364 0.950 . S
H354 C366 0.950 . S
H355 C367 0.950 . S
C356 H348 0.950 . S
C356 C357 1.386 . S
C356 C358 1.391 . S
C357 C356 1.386 . S
C357 C361 1.393 . S
C358 H350 0.950 . S
C358 C356 1.391 . S
C358 C359 1.400 . S
C359 C358 1.400 . S
C359 C360 1.398 . S
C359 C365 1.491 . S
C360 H351 0.950 . S
C360 C359 1.398 . S
C360 C361 1.391 . S
C361 H349 0.950 . S
C361 C357 1.393 . S
C361 C360 1.391 . S
C362 H352 0.950 . S
C362 C363 1.386 . S
C362 C364 1.391 . S
C363 C362 1.386 . S
C363 C367 1.393 . S
C364 H353 0.950 . S
C364 C362 1.391 . S
C364 C365 1.400 . S
C365 C359 1.491 . S
C365 C364 1.400 . S
C365 C366 1.398 . S
C366 H354 0.950 . S
C366 C365 1.398 . S
C366 C367 1.391 . S
C367 H355 0.950 . S
C367 C363 1.393 . S
C367 C366 1.391 . S
H368 C376 0.950 . S
H369 C381 0.950 . S
H370 C378 0.950 . S
H371 C380 0.950 . S
H372 C382 0.950 . S
H373 C384 0.950 . S
H374 C386 0.950 . S
H375 C387 0.950 . S
C376 H368 0.950 . S
C376 C377 1.386 . S
C376 C378 1.391 . S
C377 C376 1.386 . S
C377 C381 1.393 . S
C378 H370 0.950 . S
C378 C376 1.391 . S
C378 C379 1.400 . S
C379 C378 1.400 . S
C379 C380 1.398 . S
C379 C385 1.491 . S
C380 H371 0.950 . S
C380 C379 1.398 . S
C380 C381 1.391 . S
C381 H369 0.950 . S
C381 C377 1.393 . S
C381 C380 1.391 . S
C382 H372 0.950 . S
C382 C383 1.386 . S
C382 C384 1.391 . S
C383 C382 1.386 . S
C383 C387 1.393 . S
C384 H373 0.950 . S
C384 C382 1.391 . S
C384 C385 1.400 . S
C385 C379 1.491 . S
C385 C384 1.400 . S
C385 C386 1.398 . S
C386 H374 0.950 . S
C386 C385 1.398 . S
C386 C387 1.391 . S
C387 H375 0.950 . S
C387 C383 1.393 . S
C387 C386 1.391 . S
H388 C396 0.950 . S
H389 C401 0.950 . S
H390 C398 0.950 . S
H391 C400 0.950 . S
H392 C402 0.950 . S
H393 C404 0.950 . S
H394 C406 0.950 . S
H395 C407 0.950 . S
C396 H388 0.950 . S
C396 C397 1.386 . S
C396 C398 1.391 . S
C397 C396 1.386 . S
C397 C401 1.393 . S
C398 H390 0.950 . S
C398 C396 1.391 . S
C398 C399 1.400 . S
C399 C398 1.400 . S
C399 C400 1.398 . S
C399 C405 1.491 . S
C400 H391 0.950 . S
C400 C399 1.398 . S
C400 C401 1.391 . S
C401 H389 0.950 . S
C401 C397 1.393 . S
C401 C400 1.391 . S
C402 H392 0.950 . S
C402 C403 1.386 . S
C402 C404 1.391 . S
C403 C402 1.386 . S
C403 C407 1.393 . S
C404 H393 0.950 . S
C404 C402 1.391 . S
C404 C405 1.400 . S
C405 C399 1.491 . S
C405 C404 1.400 . S
C405 C406 1.398 . S
C406 H394 0.950 . S
C406 C405 1.398 . S
C406 C407 1.391 . S
C407 H395 0.950 . S
C407 C403 1.393 . S
C407 C406 1.391 . S
H408 C416 0.950 . S
H409 C421 0.950 . S
H410 C418 0.950 . S
H411 C420 0.950 . S
H412 C422 0.950 . S
H413 C424 0.950 . S
H414 C426 0.950 . S
H415 C427 0.950 . S
C416 H408 0.950 . S
C416 C417 1.386 . S
C416 C418 1.391 . S
C417 C416 1.386 . S
C417 C421 1.393 . S
C418 H410 0.950 . S
C418 C416 1.391 . S
C418 C419 1.400 . S
C419 C418 1.400 . S
C419 C420 1.398 . S
C419 C425 1.491 1_566 S
C420 H411 0.950 . S
C420 C419 1.398 . S
C420 C421 1.391 . S
C421 H409 0.950 . S
C421 C417 1.393 . S
C421 C420 1.391 . S
C422 H412 0.950 . S
C422 C423 1.386 . S
C422 C424 1.391 . S
C423 C422 1.386 . S
C423 C427 1.393 . S
C424 H413 0.950 . S
C424 C422 1.391 . S
C424 C425 1.400 . S
C425 C419 1.491 1_544 S
C425 C424 1.400 . S
C425 C426 1.398 . S
C426 H414 0.950 . S
C426 C425 1.398 . S
C426 C427 1.391 . S
C427 H415 0.950 . S
C427 C423 1.393 . S
C427 C426 1.391 . S
H428 C436 0.950 . S
H429 C441 0.950 . S
H430 C438 0.950 . S
H431 C440 0.950 . S
H432 C442 0.950 . S
H433 C444 0.950 . S
H434 C446 0.950 . S
H435 C447 0.950 . S
C436 H428 0.950 . S
C436 C437 1.386 . S
C436 C438 1.391 . S
C437 C436 1.386 . S
C437 C441 1.393 . S
C438 H430 0.950 . S
C438 C436 1.391 . S
C438 C439 1.400 . S
C439 C438 1.400 . S
C439 C440 1.398 . S
C439 C445 1.491 . S
C440 H431 0.950 . S
C440 C439 1.398 . S
C440 C441 1.391 . S
C441 H429 0.950 . S
C441 C437 1.393 . S
C441 C440 1.391 . S
C442 H432 0.950 . S
C442 C443 1.386 . S
C442 C444 1.391 . S
C443 C442 1.386 . S
C443 C447 1.393 . S
C444 H433 0.950 . S
C444 C442 1.391 . S
C444 C445 1.400 . S
C445 C439 1.491 . S
C445 C444 1.400 . S
C445 C446 1.398 . S
C446 H434 0.950 . S
C446 C445 1.398 . S
C446 C447 1.391 . S
C447 H435 0.950 . S
C447 C443 1.393 . S
C447 C446 1.391 . S
H448 C456 0.950 . S
H449 C461 0.950 . S
H450 C458 0.950 . S
H451 C460 0.950 . S
H452 C462 0.950 . S
H453 C464 0.950 . S
H454 C466 0.950 . S
H455 C467 0.950 . S
C456 H448 0.950 . S
C456 C457 1.386 . S
C456 C458 1.391 . S
C457 C456 1.386 . S
C457 C461 1.393 . S
C458 H450 0.950 . S
C458 C456 1.391 . S
C458 C459 1.400 . S
C459 C458 1.400 . S
C459 C460 1.398 . S
C459 C465 1.491 1_655 S
C460 H451 0.950 . S
C460 C459 1.398 . S
C460 C461 1.391 . S
C461 H449 0.950 . S
C461 C457 1.393 . S
C461 C460 1.391 . S
C462 H452 0.950 . S
C462 C463 1.386 . S
C462 C464 1.391 . S
C463 C462 1.386 . S
C463 C467 1.393 . S
C464 H453 0.950 . S
C464 C462 1.391 . S
C464 C465 1.400 . S
C465 C459 1.491 1_455 S
C465 C464 1.400 . S
C465 C466 1.398 . S
C466 H454 0.950 . S
C466 C465 1.398 . S
C466 C467 1.391 . S
C467 H455 0.950 . S
C467 C463 1.393 . S
C467 C466 1.391 . S
H468 C476 0.951 1_556 S
H469 C481 0.950 . S
H470 C478 0.950 . S
H471 C480 0.950 . S
H472 C482 0.951 1_554 S
H473 C484 0.950 . S
H474 C486 0.950 . S
H475 C487 0.950 . S
C476 H468 0.951 1_554 S
C476 C477 1.383 . S
C476 C478 1.392 1_554 S
C477 C476 1.383 . S
C477 C481 1.393 . S
C478 H470 0.950 . S
C478 C476 1.392 1_556 S
C478 C479 1.400 1_556 S
C479 C478 1.400 1_554 S
C479 C480 1.398 . S
C479 C485 1.491 1_564 S
C480 H471 0.950 . S
C480 C479 1.398 . S
C480 C481 1.391 . S
C481 H469 0.950 . S
C481 C477 1.393 . S
C481 C480 1.391 . S
C482 H472 0.951 1_556 S
C482 C483 1.383 . S
C482 C484 1.392 1_556 S
C483 C482 1.383 . S
C483 C487 1.393 . S
C484 H473 0.950 . S
C484 C482 1.392 1_554 S
C484 C485 1.400 1_554 S
C485 C479 1.491 1_546 S
C485 C484 1.400 1_556 S
C485 C486 1.398 . S
C486 H474 0.950 . S
C486 C485 1.398 . S
C486 C487 1.391 . S
C487 H475 0.950 . S
C487 C483 1.393 . S
C487 C486 1.391 . S
H488 C496 0.950 . S
H489 C501 0.950 . S
H490 C498 0.950 . S
H491 C500 0.950 . S
H492 C502 0.950 . S
H493 C504 0.950 . S
H494 C506 0.950 . S
H495 C507 0.950 . S
C496 H488 0.950 . S
C496 C497 1.386 . S
C496 C498 1.391 . S
C497 C496 1.386 . S
C497 C501 1.393 . S
C498 H490 0.950 . S
C498 C496 1.391 . S
C498 C499 1.400 . S
C499 C498 1.400 . S
C499 C500 1.398 . S
C499 C505 1.491 . S
C500 H491 0.950 . S
C500 C499 1.398 . S
C500 C501 1.391 . S
C501 H489 0.950 . S
C501 C497 1.393 . S
C501 C500 1.391 . S
C502 H492 0.950 . S
C502 C503 1.386 . S
C502 C504 1.391 . S
C503 C502 1.386 . S
C503 C507 1.393 . S
C504 H493 0.950 . S
C504 C502 1.391 . S
C504 C505 1.400 . S
C505 C499 1.491 . S
C505 C504 1.400 . S
C505 C506 1.398 . S
C506 H494 0.950 . S
C506 C505 1.398 . S
C506 C507 1.391 . S
C507 H495 0.950 . S
C507 C503 1.393 . S
C507 C506 1.391 . S
H508 C516 0.950 . S
H509 C521 0.950 . S
H510 C518 0.950 . S
H511 C520 0.950 . S
H512 C522 0.950 . S
H513 C524 0.950 . S
H514 C526 0.950 . S
H515 C527 0.950 . S
C516 H508 0.950 . S
C516 C517 1.386 . S
C516 C518 1.391 . S
C517 C516 1.386 . S
C517 C521 1.393 . S
C518 H510 0.950 . S
C518 C516 1.391 . S
C518 C519 1.400 . S
C519 C518 1.400 . S
C519 C520 1.398 . S
C519 C525 1.491 1_455 S
C520 H511 0.950 . S
C520 C519 1.398 . S
C520 C521 1.391 . S
C521 H509 0.950 . S
C521 C517 1.393 . S
C521 C520 1.391 . S
C522 H512 0.950 . S
C522 C523 1.386 . S
C522 C524 1.391 . S
C523 C522 1.386 . S
C523 C527 1.393 . S
C524 H513 0.950 . S
C524 C522 1.391 . S
C524 C525 1.400 . S
C525 C519 1.491 1_655 S
C525 C524 1.400 . S
C525 C526 1.398 . S
C526 H514 0.950 . S
C526 C525 1.398 . S
C526 C527 1.391 . S
C527 H515 0.950 . S
C527 C523 1.393 . S
C527 C526 1.391 . S
H528 C536 0.950 1_654 S
H529 C541 0.950 . S
H530 C538 0.950 . S
H531 C540 0.950 . S
H532 C542 0.950 1_556 S
H533 C544 0.950 . S
H534 C546 0.950 . S
H535 C547 0.950 . S
C536 H528 0.950 1_456 S
C536 C537 1.386 . S
C536 C538 1.391 1_556 S
C537 C536 1.386 . S
C537 C541 1.393 . S
C538 H530 0.950 . S
C538 C536 1.391 1_554 S
C538 C539 1.400 1_554 S
C539 C538 1.400 1_556 S
C539 C540 1.398 . S
C539 C545 1.491 1_556 S
C540 H531 0.950 . S
C540 C539 1.398 . S
C540 C541 1.391 . S
C541 H529 0.950 . S
C541 C537 1.393 . S
C541 C540 1.391 . S
C542 H532 0.950 1_554 S
C542 C543 1.386 . S
C542 C544 1.391 1_554 S
C543 C542 1.386 . S
C543 C547 1.393 . S
C544 H533 0.950 . S
C544 C542 1.391 1_556 S
C544 C545 1.400 1_556 S
C545 C539 1.491 1_554 S
C545 C544 1.400 1_554 S
C545 C546 1.398 . S
C546 H534 0.950 . S
C546 C545 1.398 . S
C546 C547 1.391 . S
C547 H535 0.950 . S
C547 C543 1.393 . S
C547 C546 1.391 . S
H548 C556 0.950 . S
H549 C561 0.950 . S
H550 C558 0.950 . S
H551 C560 0.950 . S
H552 C562 0.950 . S
H553 C564 0.950 . S
H554 C566 0.950 . S
H555 C567 0.944 1_455 S
C556 H548 0.950 . S
C556 C557 1.386 . S
C556 C558 1.391 . S
C557 C556 1.386 . S
C557 C561 1.393 . S
C558 H550 0.950 . S
C558 C556 1.391 . S
C558 C559 1.400 . S
C559 C558 1.400 . S
C559 C560 1.398 . S
C559 C565 1.491 . S
C560 H551 0.950 . S
C560 C559 1.398 . S
C560 C561 1.391 . S
C561 H549 0.950 . S
C561 C557 1.393 . S
C561 C560 1.391 . S
C562 H552 0.950 . S
C562 C563 1.386 . S
C562 C564 1.391 . S
C563 C562 1.386 . S
C563 C567 1.393 . S
C564 H553 0.950 . S
C564 C562 1.391 . S
C564 C565 1.400 . S
C565 C559 1.491 . S
C565 C564 1.400 . S
C565 C566 1.398 . S
C566 H554 0.950 . S
C566 C565 1.398 . S
C566 C567 1.391 . S
C567 H555 0.944 1_655 S
C567 C563 1.393 . S
C567 C566 1.391 . S
H568 C576 0.950 . S
H569 C581 0.950 . S
H570 C578 0.950 . S
H571 C580 0.950 . S
H572 C582 0.950 . S
H573 C584 0.950 . S
H574 C586 0.950 . S
H575 C587 0.950 . S
C576 H568 0.950 . S
C576 C577 1.386 . S
C576 C578 1.391 . S
C577 C576 1.386 . S
C577 C581 1.393 . S
C578 H570 0.950 . S
C578 C576 1.391 . S
C578 C579 1.400 . S
C579 C578 1.400 . S
C579 C580 1.398 . S
C579 C585 1.491 . S
C580 H571 0.950 . S
C580 C579 1.398 . S
C580 C581 1.391 . S
C581 H569 0.950 . S
C581 C577 1.393 . S
C581 C580 1.391 . S
C582 H572 0.950 . S
C582 C583 1.386 . S
C582 C584 1.391 . S
C583 C582 1.386 . S
C583 C587 1.393 . S
C584 H573 0.950 . S
C584 C582 1.391 . S
C584 C585 1.400 . S
C585 C579 1.491 . S
C585 C584 1.400 . S
C585 C586 1.398 . S
C586 H574 0.950 . S
C586 C585 1.398 . S
C586 C587 1.391 . S
C587 H575 0.950 . S
C587 C583 1.393 . S
C587 C586 1.391 . S
H588 C596 0.950 . S
H589 C601 0.950 . S
H590 C598 0.950 . S
H591 C600 0.951 1_556 S
H592 C602 0.950 . S
H593 C604 0.950 . S
H594 C606 0.951 1_554 S
H595 C607 0.950 . S
C596 H588 0.950 . S
C596 C597 1.386 . S
C596 C598 1.391 . S
C597 C596 1.386 . S
C597 C601 1.393 . S
C598 H590 0.950 . S
C598 C596 1.391 . S
C598 C599 1.400 . S
C599 C598 1.400 . S
C599 C600 1.398 . S
C599 C605 1.491 1_554 S
C600 H591 0.951 1_554 S
C600 C599 1.398 . S
C600 C601 1.390 . S
C601 H589 0.950 . S
C601 C597 1.393 . S
C601 C600 1.390 . S
C602 H592 0.950 . S
C602 C603 1.386 . S
C602 C604 1.391 . S
C603 C602 1.386 . S
C603 C607 1.393 . S
C604 H593 0.950 . S
C604 C602 1.391 . S
C604 C605 1.400 . S
C605 C599 1.491 1_556 S
C605 C604 1.400 . S
C605 C606 1.398 . S
C606 H594 0.951 1_556 S
C606 C605 1.398 . S
C606 C607 1.390 . S
C607 H595 0.950 . S
C607 C603 1.393 . S
C607 C606 1.390 . S
H608 C616 0.950 . S
H609 C621 0.950 1_655 S
H610 C618 0.950 . S
H611 C620 0.950 . S
H612 C622 0.950 . S
H613 C624 0.950 . S
H614 C626 0.950 . S
H615 C627 0.950 . S
C616 H608 0.950 . S
C616 C617 1.386 . S
C616 C618 1.391 . S
C617 C616 1.386 . S
C617 C621 1.393 . S
C618 H610 0.950 . S
C618 C616 1.391 . S
C618 C619 1.400 . S
C619 C618 1.400 . S
C619 C620 1.398 . S
C619 C625 1.491 . S
C620 H611 0.950 . S
C620 C619 1.398 . S
C620 C621 1.391 . S
C621 H609 0.950 1_455 S
C621 C617 1.393 . S
C621 C620 1.391 . S
C622 H612 0.950 . S
C622 C623 1.386 . S
C622 C624 1.391 . S
C623 C622 1.386 . S
C623 C627 1.393 . S
C624 H613 0.950 . S
C624 C622 1.391 . S
C624 C625 1.400 . S
C625 C619 1.491 . S
C625 C624 1.400 . S
C625 C626 1.398 . S
C626 H614 0.950 . S
C626 C625 1.398 . S
C626 C627 1.391 . S
C627 H615 0.950 . S
C627 C623 1.393 . S
C627 C626 1.391 . S
H628 C636 0.950 . S
H629 C641 0.950 . S
H630 C638 0.950 . S
H631 C640 0.950 . S
H632 C642 0.950 . S
H633 C644 0.950 . S
H634 C646 0.950 . S
H635 C647 0.950 . S
C636 H628 0.950 . S
C636 C637 1.386 . S
C636 C638 1.391 . S
C637 C636 1.386 . S
C637 C641 1.393 . S
C638 H630 0.950 . S
C638 C636 1.391 . S
C638 C639 1.400 . S
C639 C638 1.400 . S
C639 C640 1.398 . S
C639 C645 1.491 . S
C640 H631 0.950 . S
C640 C639 1.398 . S
C640 C641 1.391 . S
C641 H629 0.950 . S
C641 C637 1.393 . S
C641 C640 1.391 . S
C642 H632 0.950 . S
C642 C643 1.386 . S
C642 C644 1.391 . S
C643 C642 1.386 . S
C643 C647 1.393 . S
C644 H633 0.950 . S
C644 C642 1.391 . S
C644 C645 1.400 . S
C645 C639 1.491 . S
C645 C644 1.400 . S
C645 C646 1.398 . S
C646 H634 0.950 . S
C646 C645 1.398 . S
C646 C647 1.391 . S
C647 H635 0.950 . S
C647 C643 1.393 . S
C647 C646 1.391 . S
C177 C53 1.299 . S
C183 C11 1.298 . S
C197 C23 1.409 . S
C203 C65 1.401 . S
C217 C79 1.314 . S
C223 C37 1.327 . S
C237 C93 1.419 . S
C243 C135 1.424 . S
C257 C151 1.300 . S
C263 C109 1.299 . S
C277 C121 1.320 . S
C283 C163 1.310 . S
C297 C123 1.633 . S
C303 C9 1.639 . S
C317 C25 1.662 . S
C323 C137 1.654 . S
C337 C39 1.625 . S
C343 C149 1.636 . S
C357 C51 1.638 . S
C363 C165 1.631 . S
C377 C95 1.657 . S
C383 C67 1.663 . S
C397 C107 1.636 . S
C403 C81 1.627 . S
C417 C103 1.202 . S
C423 C5 1.204 . S
C437 C14 1.325 . S
C443 C112 1.349 . S
C457 C28 1.333 . S
C463 C126 1.344 . S
C477 C47 1.217 . S
C483 C145 1.198 . S
C497 C154 1.348 . S
C503 C56 1.328 . S
C517 C70 1.345 . S
C523 C84 1.328 . S
C537 C140 1.314 1_455 S
C543 C0 1.324 . S
C557 C159 1.488 1_545 S
C563 C19 1.481 1_655 S
C577 C89 1.485 . S
C583 C33 1.485 1_565 S
C597 C42 1.325 . S
C603 C98 1.320 1_655 S
C617 C61 1.487 1_455 S
C623 C117 1.484 1_565 S
C637 C75 1.487 1_545 S
C643 C131 1.481 . S
