# Generated by pormake.
# Topology wkj, (6)-cn, num edge types: 1
# Building blocks:
#     Node 0, Type 0, BuildingBlock: BETFEN_clean_sbu_0, # of connection points: 6
#     Node 1, Type 0, BuildingBlock: BETFEN_clean_sbu_0, # of connection points: 6
#     Node 2, Type 0, BuildingBlock: BETFEN_clean_sbu_0, # of connection points: 6
#     Node 3, Type 0, BuildingBlock: BETFEN_clean_sbu_0, # of connection points: 6
#     Node 4, Type 0, BuildingBlock: BETFEN_clean_sbu_0, # of connection points: 6
#     Node 5, Type 0, BuildingBlock: BETFEN_clean_sbu_0, # of connection points: 6
#     Node 6, Type 0, BuildingBlock: BETFEN_clean_sbu_0, # of connection points: 6
#     Node 7, Type 0, BuildingBlock: BETFEN_clean_sbu_0, # of connection points: 6
#     Node 8, Type 0, BuildingBlock: BETFEN_clean_sbu_0, # of connection points: 6
#     Node 9, Type 0, BuildingBlock: BETFEN_clean_sbu_0, # of connection points: 6
#     Node 10, Type 0, BuildingBlock: BETFEN_clean_sbu_0, # of connection points: 6
#     Node 11, Type 0, BuildingBlock: BETFEN_clean_sbu_0, # of connection points: 6
#     Edge 12, Type (0, 0), BuildingBlock: UVAHIK_clean_linker_0, # of connection points: 2
#     Edge 13, Type (0, 0), BuildingBlock: UVAHIK_clean_linker_0, # of connection points: 2
#     Edge 14, Type (0, 0), BuildingBlock: UVAHIK_clean_linker_0, # of connection points: 2
#     Edge 15, Type (0, 0), BuildingBlock: UVAHIK_clean_linker_0, # of connection points: 2
#     Edge 16, Type (0, 0), BuildingBlock: UVAHIK_clean_linker_0, # of connection points: 2
#     Edge 17, Type (0, 0), BuildingBlock: UVAHIK_clean_linker_0, # of connection points: 2
#     Edge 18, Type (0, 0), BuildingBlock: UVAHIK_clean_linker_0, # of connection points: 2
#     Edge 19, Type (0, 0), BuildingBlock: UVAHIK_clean_linker_0, # of connection points: 2
#     Edge 20, Type (0, 0), BuildingBlock: UVAHIK_clean_linker_0, # of connection points: 2
#     Edge 21, Type (0, 0), BuildingBlock: UVAHIK_clean_linker_0, # of connection points: 2
#     Edge 22, Type (0, 0), BuildingBlock: UVAHIK_clean_linker_0, # of connection points: 2
#     Edge 23, Type (0, 0), BuildingBlock: UVAHIK_clean_linker_0, # of connection points: 2
#     Edge 24, Type (0, 0), BuildingBlock: UVAHIK_clean_linker_0, # of connection points: 2
#     Edge 25, Type (0, 0), BuildingBlock: UVAHIK_clean_linker_0, # of connection points: 2
#     Edge 26, Type (0, 0), BuildingBlock: UVAHIK_clean_linker_0, # of connection points: 2
#     Edge 27, Type (0, 0), BuildingBlock: UVAHIK_clean_linker_0, # of connection points: 2
#     Edge 28, Type (0, 0), BuildingBlock: UVAHIK_clean_linker_0, # of connection points: 2
#     Edge 29, Type (0, 0), BuildingBlock: UVAHIK_clean_linker_0, # of connection points: 2
#     Edge 30, Type (0, 0), BuildingBlock: UVAHIK_clean_linker_0, # of connection points: 2
#     Edge 31, Type (0, 0), BuildingBlock: UVAHIK_clean_linker_0, # of connection points: 2
#     Edge 32, Type (0, 0), BuildingBlock: UVAHIK_clean_linker_0, # of connection points: 2
#     Edge 33, Type (0, 0), BuildingBlock: UVAHIK_clean_linker_0, # of connection points: 2
#     Edge 34, Type (0, 0), BuildingBlock: UVAHIK_clean_linker_0, # of connection points: 2
#     Edge 35, Type (0, 0), BuildingBlock: UVAHIK_clean_linker_0, # of connection points: 2
#     Edge 36, Type (0, 0), BuildingBlock: UVAHIK_clean_linker_0, # of connection points: 2
#     Edge 37, Type (0, 0), BuildingBlock: UVAHIK_clean_linker_0, # of connection points: 2
#     Edge 38, Type (0, 0), BuildingBlock: UVAHIK_clean_linker_0, # of connection points: 2
#     Edge 39, Type (0, 0), BuildingBlock: UVAHIK_clean_linker_0, # of connection points: 2
#     Edge 40, Type (0, 0), BuildingBlock: UVAHIK_clean_linker_0, # of connection points: 2
#     Edge 41, Type (0, 0), BuildingBlock: UVAHIK_clean_linker_0, # of connection points: 2
#     Edge 42, Type (0, 0), BuildingBlock: UVAHIK_clean_linker_0, # of connection points: 2
#     Edge 43, Type (0, 0), BuildingBlock: UVAHIK_clean_linker_0, # of connection points: 2
#     Edge 44, Type (0, 0), BuildingBlock: UVAHIK_clean_linker_0, # of connection points: 2
#     Edge 45, Type (0, 0), BuildingBlock: UVAHIK_clean_linker_0, # of connection points: 2
#     Edge 46, Type (0, 0), BuildingBlock: UVAHIK_clean_linker_0, # of connection points: 2
#     Edge 47, Type (0, 0), BuildingBlock: UVAHIK_clean_linker_0, # of connection points: 2
# Relax obj value: 0.583
# Max RMSD: 0.175
# Mean RMSD: 0.175
data_MOF--net-wkj--node1-BETFEN_clean_sbu_0--edge1-UVAHIK_clean_linker_0
_symmetry_space_group_name_H-M    P1
_symmetry_Int_Tables_number       1
_symmetry_cell_setting            triclinic
loop_
_symmetry_equiv_pos_as_xyz
'x, y, z'
_cell_length_a     61.471746
_cell_length_b     61.408427
_cell_length_c     39.177034
_cell_angle_alpha  90.365573
_cell_angle_beta   89.910529
_cell_angle_gamma 120.11202
loop_
_atom_site_label
_atom_site_type_symbol
_atom_site_fract_x
_atom_site_fract_y
_atom_site_fract_z
_atom_type_partial_charge
Pr0 Pr 0.47294 0.09238 0.33406 0.0
Pr1 Pr 0.52034 0.09912 0.31797 0.0
C2 C 0.42418 0.07838 0.34409 0.0
C3 C 0.40663 0.07229 0.37262 0.0
C4 C 0.38109 0.05468 0.36786 0.0
C5 C 0.3643 0.04806 0.39512 0.0
C6 C 0.37283 0.05914 0.42744 0.0
C7 C 0.3984 0.07712 0.43192 0.0
C8 C 0.41519 0.08355 0.40477 0.0
C9 C 0.50525 0.14282 0.31545 0.0
C10 C 0.51133 0.10382 0.40298 0.0
C11 C 0.57041 0.1234 0.30847 0.0
C12 C 0.587 0.14688 0.2901 0.0
C13 C 0.60528 0.14819 0.26745 0.0
C14 C 0.61895 0.16956 0.24721 0.0
C15 C 0.6145 0.1899 0.24939 0.0
C16 C 0.59714 0.18901 0.27347 0.0
C17 C 0.58342 0.1677 0.29341 0.0
C18 C 0.48733 0.05062 0.34392 0.0
C19 C 0.48127 0.07211 0.25432 0.0
O20 O 0.43174 0.06235 0.33768 0.0
O21 O 0.44217 0.10177 0.34187 0.0
O22 O 0.50315 0.12378 0.29918 0.0
O23 O 0.49257 0.13575 0.34362 0.0
O24 O 0.52811 0.10939 0.37825 0.0
O25 O 0.48743 0.09491 0.39327 0.0
O26 O 0.55977 0.12608 0.33575 0.0
O27 O 0.55496 0.10397 0.28984 0.0
O28 O 0.49051 0.07117 0.35436 0.0
O29 O 0.50375 0.0545 0.32018 0.0
O30 O 0.46503 0.0706 0.27832 0.0
O31 O 0.50544 0.0851 0.26179 0.0
H32 H 0.37421 0.04582 0.34317 0.0
H33 H 0.34469 0.03415 0.39102 0.0
H34 H 0.40558 0.08559 0.45672 0.0
H35 H 0.43491 0.09703 0.40901 0.0
H36 H 0.60828 0.13234 0.26445 0.0
H37 H 0.63197 0.16954 0.22856 0.0
H38 H 0.59346 0.20445 0.27598 0.0
H39 H 0.56937 0.16725 0.31059 0.0
Pr40 Pr 0.3827 0.46991 0.66872 0.0
Pr41 Pr 0.42188 0.51764 0.65265 0.0
C42 C 0.34959 0.42042 0.67743 0.0
C43 C 0.34198 0.40128 0.70385 0.0
C44 C 0.32491 0.37603 0.69595 0.0
C45 C 0.31744 0.35762 0.7211 0.0
C46 C 0.32689 0.36432 0.75449 0.0
C47 C 0.34412 0.38973 0.76215 0.0
C48 C 0.35162 0.40806 0.737 0.0
C49 C 0.36191 0.49983 0.6502 0.0
C50 C 0.40961 0.50899 0.73758 0.0
C51 C 0.4464 0.56757 0.64182 0.0
C52 C 0.43953 0.58206 0.61909 0.0
C53 C 0.45717 0.60647 0.60876 0.0
C54 C 0.45004 0.61944 0.58622 0.0
C55 C 0.42513 0.60813 0.57402 0.0
C56 C 0.4075 0.58385 0.58519 0.0
C57 C 0.41466 0.57096 0.60734 0.0
C58 C 0.43924 0.48619 0.67919 0.0
C59 C 0.41086 0.4788 0.58903 0.0
O60 O 0.37205 0.42893 0.66475 0.0
O61 O 0.34421 0.43813 0.68321 0.0
O62 O 0.37966 0.49925 0.6339 0.0
O63 O 0.35684 0.48682 0.67788 0.0
O64 O 0.42007 0.52578 0.71282 0.0
O65 O 0.39531 0.48487 0.72786 0.0
O66 O 0.43075 0.55683 0.66704 0.0
O67 O 0.4529 0.55256 0.6269 0.0
O68 O 0.42143 0.4886 0.68944 0.0
O69 O 0.45106 0.50247 0.65511 0.0
O70 O 0.39678 0.46244 0.61313 0.0
O71 O 0.42114 0.50296 0.59634 0.0
H72 H 0.31735 0.37059 0.67036 0.0
H73 H 0.30412 0.33822 0.71455 0.0
H74 H 0.35212 0.39539 0.78748 0.0
H75 H 0.36496 0.42751 0.74337 0.0
H76 H 0.47644 0.61531 0.61768 0.0
H77 H 0.46403 0.6381 0.57795 0.0
H78 H 0.38836 0.57428 0.57567 0.0
H79 H 0.40081 0.55206 0.61494 0.0
Pr80 Pr 0.91842 0.38893 1.00055 0.0
Pr81 Pr 0.91528 0.43153 0.98655 0.0
C82 C 0.92983 0.3522 1.00921 0.0
C83 C 0.93847 0.34235 1.03671 0.0
C84 C 0.94891 0.32723 1.02886 0.0
C85 C 0.95763 0.31812 1.05494 0.0
C86 C 0.95583 0.32392 0.08921 0.0
C87 C 0.94519 0.339 0.09689 0.0
C88 C 0.93666 0.34822 1.07083 0.0
C89 C 0.86876 0.37378 0.9812 0.0
C90 C 0.90862 0.41661 1.07045 0.0
C91 C 0.89407 0.46022 0.97759 0.0
C92 C 0.87018 0.45379 0.96066 0.0
C93 C 0.86896 0.47045 0.93751 0.0
C94 C 0.84728 0.46273 0.91781 0.0
C95 C 0.82656 0.43819 0.92098 0.0
C96 C 0.82735 0.42215 0.94569 0.0
C97 C 0.84896 0.42978 0.96514 0.0
C98 C 0.96286 0.44391 1.01369 0.0
C99 C 0.94053 0.41828 0.92179 0.0
O100 O 0.94601 0.37469 0.99836 0.0
O101 O 0.90716 0.34868 1.01243 0.0
O102 O 0.88834 0.39032 0.9657 0.0
O103 O 0.87499 0.36688 1.00889 0.0
O104 O 0.90359 0.42834 1.04606 0.0
O105 O 0.917 0.40126 1.0602 0.0
O106 O 0.8919 0.44796 1.00562 0.0
O107 O 0.912 0.4619 0.95784 0.0
O108 O 0.94177 0.42705 1.02315 0.0
O109 O 0.96011 0.4574 0.99041 0.0
O110 O 0.93923 0.40124 0.94414 0.0
O111 O 0.93059 0.43208 0.93097 0.0
H112 H 0.95046 0.3226 1.00256 0.0
H113 H 0.96572 0.30653 1.04836 0.0
H114 H 0.94403 0.34421 0.12302 0.0
H115 H 0.92884 0.36008 1.07726 0.0
H116 H 0.88515 0.48897 0.93356 0.0
H117 H 0.84737 0.47541 0.89866 0.0
H118 H 0.81163 0.40323 0.94892 0.0
H119 H 0.84936 0.41641 0.98269 0.0
Pr120 Pr 0.53837 0.92042 0.32858 0.0
Pr121 Pr 0.48958 0.90999 0.31433 0.0
C122 C 0.585 0.93222 0.34916 0.0
C123 C 0.59863 0.93376 0.38051 0.0
C124 C 0.62483 0.94912 0.38149 0.0
C125 C 0.63812 0.95072 0.41118 0.0
C126 C 0.62532 0.93681 0.44018 0.0
C127 C 0.59904 0.92123 0.43893 0.0
C128 C 0.58576 0.9198 0.40935 0.0
C129 C 0.51185 0.87351 0.29495 0.0
C130 C 0.49756 0.90796 0.39722 0.0
C131 C 0.44226 0.8873 0.28965 0.0
C132 C 0.42743 0.86205 0.27462 0.0
C133 C 0.40941 0.85719 0.24942 0.0
C134 C 0.39888 0.83465 0.23076 0.0
C135 C 0.40647 0.81686 0.23693 0.0
C136 C 0.42325 0.82113 0.2638 0.0
C137 C 0.43366 0.84355 0.28244 0.0
C138 C 0.51916 0.95905 0.34083 0.0
C139 C 0.53121 0.94017 0.25101 0.0
O140 O 0.57811 0.94898 0.34535 0.0
O141 O 0.56779 0.90972 0.33958 0.0
O142 O 0.50299 0.88034 0.31967 0.0
O143 O 0.53304 0.89226 0.28498 0.0
O144 O 0.48059 0.90317 0.3734 0.0
O145 O 0.52079 0.91438 0.38698 0.0
O146 O 0.44742 0.88797 0.32201 0.0
O147 O 0.46174 0.90307 0.27183 0.0
O148 O 0.52615 0.94874 0.31923 0.0
O149 O 0.49539 0.94479 0.34726 0.0
O150 O 0.54801 0.94245 0.27436 0.0
O151 O 0.50706 0.92666 0.25915 0.0
H152 H 0.63499 0.95995 0.35935 0.0
H153 H 0.65836 0.96288 0.41153 0.0
H154 H 0.58867 0.91071 0.46115 0.0
H155 H 0.56548 0.90795 0.40904 0.0
H156 H 0.40455 0.87134 0.2429 0.0
H157 H 0.38625 0.83201 0.20987 0.0
H158 H 0.42937 0.80774 0.26914 0.0
H159 H 0.44761 0.84705 0.30178 0.0
Pr160 Pr 0.62124 0.53614 0.66524 0.0
Pr161 Pr 0.5828 0.48772 0.65082 0.0
C162 C 0.65584 0.58248 0.68762 0.0
C163 C 0.66097 0.60051 0.71568 0.0
C164 C 0.68174 0.60748 0.7371 0.0
C165 C 0.68727 0.62494 0.7634 0.0
C166 C 0.67224 0.63595 0.76858 0.0
C167 C 0.65163 0.62917 0.74677 0.0
C168 C 0.64599 0.61157 0.72067 0.0
C169 C 0.64159 0.50992 0.63079 0.0
C170 C 0.59163 0.49569 0.73386 0.0
C171 C 0.55806 0.44029 0.6261 0.0
C172 C 0.56892 0.42532 0.6133 0.0
C173 C 0.55501 0.4043 0.59223 0.0
C174 C 0.56693 0.3928 0.57581 0.0
C175 C 0.59293 0.40244 0.58004 0.0
C176 C 0.60639 0.42252 0.60286 0.0
C177 C 0.59447 0.43384 0.61937 0.0
C178 C 0.56377 0.51802 0.67627 0.0
C179 C 0.59457 0.52913 0.5872 0.0
O180 O 0.63779 0.57826 0.66641 0.0
O181 O 0.65679 0.56223 0.69472 0.0
O182 O 0.62594 0.50086 0.65537 0.0
O183 O 0.64489 0.53165 0.62231 0.0
O184 O 0.58117 0.47832 0.70984 0.0
O185 O 0.60703 0.51932 0.72359 0.0
O186 O 0.5612 0.44552 0.65862 0.0
O187 O 0.56297 0.45985 0.60769 0.0
O188 O 0.58103 0.5245 0.65506 0.0
O189 O 0.55402 0.49432 0.6833 0.0
O190 O 0.60933 0.54592 0.61062 0.0
O191 O 0.58348 0.50497 0.59548 0.0
H192 H 0.69367 0.59933 0.73357 0.0
H193 H 0.70305 0.62943 0.78004 0.0
H194 H 0.63987 0.63755 0.74976 0.0
H195 H 0.62994 0.60674 0.7044 0.0
H196 H 0.53532 0.39758 0.58717 0.0
H197 H 0.55622 0.37758 0.55793 0.0
H198 H 0.62643 0.43031 0.60651 0.0
H199 H 0.6055 0.45008 0.63558 0.0
Pr200 Pr 0.09468 0.62459 0.99745 0.0
Pr201 Pr 0.10541 0.58636 0.98111 0.0
C202 C 0.0835 0.65991 1.01809 0.0
C203 C 0.07738 0.66981 1.04833 0.0
C204 C 0.07587 0.69174 1.04554 0.0
C205 C 0.06975 0.70139 1.07397 0.0
C206 C 0.06497 0.68916 0.1056 0.0
C207 C 0.0668 0.66726 0.10824 0.0
C208 C 0.07309 0.65774 1.07985 0.0
C209 C 0.14064 0.64507 0.96188 0.0
C210 C 0.10564 0.59444 1.06474 0.0
C211 C 0.12808 0.56174 0.95641 0.0
C212 C 0.14952 0.57022 0.93325 0.0
C213 C 0.16144 0.55607 0.92866 0.0
C214 C 0.18301 0.56537 0.90833 0.0
C215 C 0.19299 0.58904 0.89261 0.0
C216 C 0.18094 0.60314 0.89766 0.0
C217 C 0.15947 0.59384 0.91783 0.0
C218 C 0.05645 0.5665 1.00755 0.0
C219 C 0.07571 0.59884 0.91897 0.0
O220 O 0.0666 0.63744 1.00775 0.0
O221 O 0.10636 0.66383 1.01637 0.0
O222 O 0.13456 0.62964 0.98657 0.0
O223 O 0.12173 0.64758 0.95324 0.0
O224 O 0.11071 0.58271 1.0404 0.0
O225 O 0.09936 0.61146 1.05527 0.0
O226 O 0.13377 0.57346 0.98574 0.0
O227 O 0.10744 0.55932 0.94321 0.0
O228 O 0.06676 0.58405 0.98658 0.0
O229 O 0.07078 0.55708 1.01379 0.0
O230 O 0.07161 0.61117 0.94397 0.0
O231 O 0.09115 0.59014 0.92542 0.0
H232 H 0.07935 0.70134 1.02132 0.0
H233 H 0.06877 0.71842 1.07119 0.0
H234 H 0.06283 0.65711 0.13207 0.0
H235 H 0.07441 0.64089 1.08243 0.0
H236 H 0.15419 0.53798 0.94094 0.0
H237 H 0.19191 0.5541 0.90499 0.0
H238 H 0.18773 0.62116 0.88537 0.0
H239 H 0.15064 0.60516 0.92153 0.0
Pr240 Pr 0.91776 0.5373 0.50661 0.0
Pr241 Pr 0.90742 0.48821 0.52139 0.0
C242 C 0.92848 0.58379 0.4872 0.0
C243 C 0.93475 0.59991 0.45727 0.0
C244 C 0.93697 0.62365 0.46068 0.0
C245 C 0.94327 0.6395 0.43252 0.0
C246 C 0.94751 0.6318 0.40055 0.0
C247 C 0.94497 0.60776 0.3973 0.0
C248 C 0.9385 0.59189 0.42542 0.0
C249 C 0.87202 0.51107 0.54253 0.0
C250 C 0.90694 0.49639 0.43805 0.0
C251 C 0.88417 0.44129 0.54653 0.0
C252 C 0.86346 0.43083 0.57112 0.0
C253 C 0.84858 0.40483 0.57617 0.0
C254 C 0.82742 0.39536 0.59742 0.0
C255 C 0.8208 0.41183 0.61341 0.0
C256 C 0.83587 0.43786 0.60802 0.0
C257 C 0.85692 0.44722 0.58711 0.0
C258 C 0.95633 0.51815 0.49529 0.0
C259 C 0.93703 0.53037 0.58442 0.0
O260 O 0.94549 0.57858 0.49768 0.0
O261 O 0.90573 0.5645 0.48826 0.0
O262 O 0.87814 0.50206 0.51726 0.0
O263 O 0.89078 0.53269 0.55133 0.0
O264 O 0.90214 0.47946 0.46188 0.0
O265 O 0.91306 0.51963 0.44828 0.0
O266 O 0.87821 0.44697 0.51731 0.0
O267 O 0.90587 0.45905 0.55816 0.0
O268 O 0.94579 0.52494 0.51668 0.0
O269 O 0.94224 0.49432 0.48832 0.0
O270 O 0.94094 0.54696 0.55999 0.0
O271 O 0.9218 0.50617 0.57735 0.0
H272 H 0.93391 0.62997 0.48518 0.0
H273 H 0.94481 0.65775 0.43579 0.0
H274 H 0.94853 0.60139 0.3732 0.0
H275 H 0.93663 0.57349 0.42235 0.0
H276 H 0.85315 0.39192 0.56346 0.0
H277 H 0.81617 0.37523 0.60113 0.0
H278 H 0.83172 0.45115 0.62053 0.0
H279 H 0.86802 0.46735 0.58311 0.0
Pr280 Pr 0.38807 0.91905 0.832 0.0
Pr281 Pr 0.42911 0.9131 0.84877 0.0
C282 C 0.3532 0.93275 0.82143 0.0
C283 C 0.34402 0.94137 0.79309 0.0
C284 C 0.32825 0.95126 0.7996 0.0
C285 C 0.31956 0.95971 0.77268 0.0
C286 C 0.32647 0.95822 0.7389 0.0
C287 C 0.34225 0.94817 0.73259 0.0
C288 C 0.35101 0.93987 0.75949 0.0
C289 C 0.37042 0.86909 0.85232 0.0
C290 C 0.41609 0.90806 0.76352 0.0
C291 C 0.45507 0.8894 0.86062 0.0
C292 C 0.4495 0.86929 0.88505 0.0
C293 C 0.46511 0.85886 0.88837 0.0
C294 C 0.45813 0.83831 0.91005 0.0
C295 C 0.43528 0.8278 0.92811 0.0
C296 C 0.41991 0.83856 0.92472 0.0
C297 C 0.42698 0.85911 0.90352 0.0
C298 C 0.44402 0.96118 0.82165 0.0
C299 C 0.41602 0.93962 0.91198 0.0
O300 O 0.37599 0.94837 0.83203 0.0
O301 O 0.34841 0.90955 0.81941 0.0
O302 O 0.38726 0.8885 0.86807 0.0
O303 O 0.36443 0.87553 0.82402 0.0
O304 O 0.42762 0.90311 0.78842 0.0
O305 O 0.40065 0.9165 0.77304 0.0
O306 O 0.43823 0.8827 0.83646 0.0
O307 O 0.46166 0.91155 0.87368 0.0
O308 O 0.42682 0.94038 0.81158 0.0
O309 O 0.45663 0.95783 0.84577 0.0
O310 O 0.40155 0.94111 0.88765 0.0
O311 O 0.42726 0.92665 0.90488 0.0
H312 H 0.32272 0.95251 0.82549 0.0
H313 H 0.3074 0.96732 0.77823 0.0
H314 H 0.34828 0.94724 0.70689 0.0
H315 H 0.36335 0.93243 0.75413 0.0
H316 H 0.48245 0.86641 0.87402 0.0
H317 H 0.47038 0.83045 0.91241 0.0
H318 H 0.40253 0.83132 0.93893 0.0
H319 H 0.41466 0.8669 0.90116 0.0
Pr320 Pr 0.47054 0.38618 0.16955 0.0
Pr321 Pr 0.52001 0.42316 0.1859 0.0
C322 C 0.424 0.35217 0.14711 0.0
C323 C 0.41087 0.34081 0.11498 0.0
C324 C 0.3914 0.31565 0.11466 0.0
C325 C 0.37907 0.30421 1.08418 0.0
C326 C 0.38601 0.31783 1.05353 0.0
C327 C 0.40563 0.34309 1.05408 0.0
C328 C 0.41806 0.35441 1.08447 0.0
C329 C 0.49507 0.36423 0.20371 0.0
C330 C 0.51217 0.41533 0.10198 0.0
C331 C 0.56705 0.44524 0.21137 0.0
C332 C 0.5788 0.43374 0.23135 0.0
C333 C 0.60091 0.44844 0.25002 0.0
C334 C 0.61064 0.43681 0.27075 0.0
C335 C 0.59822 0.41038 0.27306 0.0
C336 C 0.57668 0.39582 0.25312 0.0
C337 C 0.56705 0.4074 0.23255 0.0
C338 C 0.49251 0.44492 0.16057 0.0
C339 C 0.47772 0.41161 0.24852 0.0
O340 O 0.43128 0.37586 0.15246 0.0
O341 O 0.44068 0.34624 0.15647 0.0
O342 O 0.50465 0.3798 0.17917 0.0
O343 O 0.47396 0.3623 0.21299 0.0
O344 O 0.529 0.42716 0.1263 0.0
O345 O 0.48886 0.39829 0.11167 0.0
O346 O 0.56146 0.43695 0.18005 0.0
O347 O 0.54884 0.44664 0.22651 0.0
O348 O 0.4845 0.42699 0.1811 0.0
O349 O 0.51626 0.45379 0.15463 0.0
O350 O 0.46113 0.39958 0.22353 0.0
O351 O 0.50182 0.41998 0.24172 0.0
H352 H 0.38583 0.3048 0.13799 0.0
H353 H 0.36425 0.28468 1.0846 0.0
H354 H 0.41118 0.35432 1.03111 0.0
H355 H 0.43324 0.37376 1.08407 0.0
H356 H 0.6102 0.46879 0.24932 0.0
H357 H 0.6271 0.44846 0.28622 0.0
H358 H 0.56681 0.37544 0.25426 0.0
H359 H 0.55002 0.39578 0.21815 0.0
Pr360 Pr 0.08829 0.46905 0.49683 0.0
Pr361 Pr 0.09788 0.51759 0.51304 0.0
C362 C 0.07131 0.41962 0.48589 0.0
C363 C 0.066 0.40252 0.45686 0.0
C364 C 0.049 0.37675 0.46063 0.0
C365 C 0.04332 0.36036 0.43287 0.0
C366 C 0.05472 0.36956 0.40102 0.0
C367 C 0.07206 0.3954 0.39756 0.0
C368 C 0.07758 0.41178 0.42523 0.0
C369 C 0.13914 0.49882 0.5148 0.0
C370 C 0.10198 0.5084 0.4281 0.0
C371 C 0.12448 0.56742 0.52458 0.0
C372 C 0.14383 0.58143 0.55051 0.0
C373 C 0.14272 0.56989 0.58173 0.0
C374 C 0.16345 0.58013 0.60345 0.0
C375 C 0.18585 0.60199 0.59428 0.0
C376 C 0.18658 0.61426 0.56377 0.0
C377 C 0.1657 0.60393 0.5419 0.0
C378 C 0.04922 0.48666 0.48537 0.0
C379 C 0.06975 0.47915 0.57679 0.0
O380 O 0.0564 0.42887 0.48971 0.0
O381 O 0.09491 0.43624 0.49112 0.0
O382 O 0.12105 0.49857 0.53138 0.0
O383 O 0.13088 0.48572 0.4869 0.0
O384 O 0.10739 0.52523 0.45288 0.0
O385 O 0.0927 0.48438 0.43765 0.0
O386 O 0.13108 0.55595 0.50222 0.0
O387 O 0.10135 0.55337 0.53544 0.0
O388 O 0.06941 0.48867 0.47576 0.0
O389 O 0.05367 0.50302 0.50961 0.0
O390 O 0.06768 0.4624 0.55307 0.0
O391 O 0.08315 0.50321 0.56896 0.0
H392 H 0.03994 0.36935 0.48495 0.0
H393 H 0.02991 0.34053 0.43621 0.0
H394 H 0.08075 0.40309 0.37315 0.0
H395 H 0.09064 0.43169 0.42184 0.0
H396 H 0.12623 0.55227 0.58867 0.0
H397 H 0.16209 0.57059 0.62719 0.0
H398 H 0.20358 0.63116 0.55616 0.0
H399 H 0.16705 0.6128 0.51757 0.0
Pr400 Pr 0.62565 0.09627 0.83664 0.0
Pr401 Pr 0.5874 0.10582 0.85169 0.0
C402 C 0.66003 0.08464 0.81335 0.0
C403 C 0.66127 0.06484 0.79394 0.0
C404 C 0.68248 0.07115 0.77394 0.0
C405 C 0.68368 0.0528 0.75418 0.0
C406 C 0.66362 0.0278 0.75414 0.0
C407 C 0.6426 0.02144 0.77495 0.0
C408 C 0.64142 0.03984 0.79466 0.0
C409 C 0.64664 0.14335 0.87039 0.0
C410 C 0.59469 0.106 0.7686 0.0
C411 C 0.56306 0.12824 0.87777 0.0
C412 C 0.57322 0.14944 0.90185 0.0
C413 C 0.56164 0.16388 0.90677 0.0
C414 C 0.57316 0.18549 0.92747 0.0
C415 C 0.59652 0.19299 0.94311 0.0
C416 C 0.60796 0.17835 0.93782 0.0
C417 C 0.59646 0.15687 0.91738 0.0
C418 C 0.56826 0.05684 0.82446 0.0
C419 C 0.59907 0.07586 0.91387 0.0
O420 O 0.64989 0.0786 0.84354 0.0
O421 O 0.65339 0.09861 0.79647 0.0
O422 O 0.63045 0.1363 0.84645 0.0
O423 O 0.65067 0.12533 0.87818 0.0
O424 O 0.58316 0.11139 0.79275 0.0
O425 O 0.61141 0.09944 0.77857 0.0
O426 O 0.57409 0.13396 0.84809 0.0
O427 O 0.5601 0.10706 0.88964 0.0
O428 O 0.58549 0.06712 0.84601 0.0
O429 O 0.55877 0.0711 0.81793 0.0
O430 O 0.6112 0.07164 0.88876 0.0
O431 O 0.59072 0.09155 0.9074 0.0
H432 H 0.69794 0.0904 0.77312 0.0
H433 H 0.69991 0.05842 0.73797 0.0
H434 H 0.62694 1.00232 0.77566 0.0
H435 H 0.6249 0.0346 0.8101 0.0
H436 H 0.54392 0.15863 0.89436 0.0
H437 H 0.5639 0.1964 0.93108 0.0
H438 H 0.62562 0.18316 0.95005 0.0
H439 H 0.60586 0.14613 0.91342 0.0
Pr440 Pr 0.53406 0.62494 0.16943 0.0
Pr441 Pr 0.48742 0.58274 0.18495 0.0
C442 C 0.58257 0.66109 0.16101 0.0
C443 C 0.60187 0.67308 0.13446 0.0
C444 C 0.6257 0.67583 0.1396 0.0
C445 C 0.64413 0.68657 0.11436 0.0
C446 C 0.63904 0.69496 1.08374 0.0
C447 C 0.61534 0.69273 1.07903 0.0
C448 C 0.59687 0.68179 0.1041 0.0
C449 C 0.50064 0.64108 0.1901 0.0
C450 C 0.49578 0.59634 0.10032 0.0
C451 C 0.43756 0.55569 0.19561 0.0
C452 C 0.42211 0.56121 0.21869 0.0
C453 C 0.39787 0.54258 0.22827 0.0
C454 C 0.3838 0.54852 0.25075 0.0
C455 C 0.39379 0.57322 0.26354 0.0
C456 C 0.41794 0.59181 0.25326 0.0
C457 C 0.43197 0.58583 0.23124 0.0
C458 C 0.52199 0.56955 0.15805 0.0
C459 C 0.52643 0.59566 0.24829 0.0
O460 O 0.57574 0.63788 0.16877 0.0
O461 O 0.56382 0.66539 0.16046 0.0
O462 O 0.50352 0.62437 0.20533 0.0
O463 O 0.51316 0.64747 0.16178 0.0
O464 O 0.47931 0.58409 0.12493 0.0
O465 O 0.51948 0.6126 0.11005 0.0
O466 O 0.44772 0.57176 0.17073 0.0
O467 O 0.45336 0.5502 0.21014 0.0
O468 O 0.51791 0.58637 0.14817 0.0
O469 O 0.50567 0.55624 0.18147 0.0
O470 O 0.54238 0.6117 0.22512 0.0
O471 O 0.50236 0.58311 0.24038 0.0
H472 H 0.62994 0.66933 0.16296 0.0
H473 H 0.66224 0.68806 0.11858 0.0
H474 H 0.61074 0.69857 1.05538 0.0
H475 H 0.57859 0.67981 0.09945 0.0
H476 H 0.38999 0.5235 0.21874 0.0
H477 H 0.36528 0.53381 0.25843 0.0
H478 H 0.42649 0.61082 0.2633 0.0
H479 H 0.45073 0.60046 0.2243 0.0
C480 C 0.50763 0.1708 0.26567 0.0
C481 C 0.51178 0.16789 0.3003 0.0
C482 C 0.50928 0.19337 0.25385 0.0
C483 C 0.50876 0.25117 0.28832 0.0
H484 H 0.52203 0.27349 0.19447 0.0
C485 C 0.48752 0.32782 0.24079 0.0
C486 C 0.50155 0.34452 0.21441 0.0
C487 C 0.49107 0.30777 0.25015 0.0
C488 C 0.51854 0.26781 0.22093 0.0
H489 H 0.52238 0.18728 0.34896 0.0
H490 H 0.52668 0.2265 0.32852 0.0
H491 H 0.52485 0.23679 0.21191 0.0
H492 H 0.53093 0.35293 0.17753 0.0
H493 H 0.5377 0.31815 0.1944 0.0
H494 H 0.50323 0.28237 0.29782 0.0
C495 C 0.521 0.21124 0.31037 0.0
C496 C 0.51983 0.24633 0.23095 0.0
C497 C 0.51893 0.18867 0.32217 0.0
C498 C 0.51978 0.34062 0.19802 0.0
C499 C 0.52346 0.3204 0.20758 0.0
C500 C 0.50768 0.2726 0.27842 0.0
C501 C 0.51539 0.21391 0.27621 0.0
C502 C 0.51482 0.23741 0.26492 0.0
C503 C 0.50906 0.30346 0.23384 0.0
C504 C 0.51216 0.28128 0.24443 0.0
H505 H 0.50177 0.15516 0.24807 0.0
H506 H 0.50468 0.19421 0.22743 0.0
H507 H 0.50425 0.24517 0.31454 0.0
H508 H 0.47319 0.32989 0.25407 0.0
H509 H 0.47904 0.29522 0.26986 0.0
C510 C 0.32104 0.49975 0.65523 0.0
C511 C 0.34254 0.50555 0.63564 0.0
C512 C 0.30128 0.50253 0.64226 0.0
C513 C 0.27463 0.51192 0.55986 0.0
H514 H 0.22837 0.51657 0.62272 0.0
C515 C 0.17773 0.49455 0.51197 0.0
C516 C 0.16411 0.50405 0.52937 0.0
C517 C 0.20035 0.4975 0.52485 0.0
C518 C 0.24107 0.51559 0.60445 0.0
H519 H 0.35991 0.51968 0.58654 0.0
H520 H 0.3261 0.52585 0.56426 0.0
H521 H 0.26608 0.51827 0.64429 0.0
H522 H 0.16467 0.52496 0.57434 0.0
H523 H 0.20487 0.53122 0.59637 0.0
H524 H 0.25048 0.51083 0.51986 0.0
C525 C 0.32406 0.51826 0.58965 0.0
C526 C 0.26284 0.51608 0.61704 0.0
C527 C 0.34382 0.51503 0.60258 0.0
C528 C 0.17442 0.51724 0.56015 0.0
C529 C 0.19755 0.52063 0.57292 0.0
C530 C 0.25313 0.51191 0.54723 0.0
C531 C 0.30212 0.51177 0.60913 0.0
C532 C 0.27987 0.51362 0.59515 0.0
C533 C 0.211 0.51066 0.55557 0.0
C534 C 0.23543 0.51309 0.56924 0.0
H535 H 0.31902 0.49229 0.68075 0.0
H536 H 0.28496 0.49659 0.65831 0.0
H537 H 0.28678 0.50993 0.54166 0.0
H538 H 0.1706 0.48409 0.48833 0.0
H539 H 0.20907 0.48873 0.51073 0.0
C540 C 0.82214 0.34501 0.98619 0.0
C541 C 0.84357 0.35643 0.96524 0.0
C542 C 0.79917 0.32495 0.97425 0.0
C543 C 0.76475 0.28579 0.89565 0.0
H544 H 0.72519 0.23695 0.96469 0.0
C545 C 0.66975 0.19154 0.86316 0.0
C546 C 0.66532 0.16994 0.88129 0.0
C547 C 0.68985 0.21575 0.87246 0.0
C548 C 0.73594 0.25012 0.94475 0.0
H549 H 0.85718 0.35574 0.91454 0.0
H550 H 0.81739 0.32031 0.89376 0.0
H551 H 0.76294 0.27514 0.98102 0.0
H552 H 0.67843 0.15741 0.92408 0.0
H553 H 0.71276 0.19848 0.93971 0.0
H554 H 0.73801 0.2597 0.85919 0.0
C555 C 0.81801 0.32721 0.91943 0.0
C556 C 0.7577 0.27262 0.95433 0.0
C557 C 0.84101 0.34773 0.9313 0.0
C558 C 0.68104 0.17344 0.9094 0.0
C559 C 0.70088 0.19733 0.91862 0.0
C560 C 0.74294 0.26303 0.88598 0.0
C561 C 0.79675 0.31488 0.94102 0.0
C562 C 0.77276 0.291 0.93008 0.0
C563 C 0.70597 0.21906 0.9003 0.0
C564 C 0.72825 0.24454 0.91034 0.0
H565 H 0.82335 0.35115 1.01245 0.0
H566 H 0.7834 0.31703 0.99166 0.0
H567 H 0.77532 0.29928 0.87595 0.0
H568 H 0.65821 0.1897 0.84126 0.0
H569 H 0.69276 0.23184 0.85773 0.0
C570 C 0.48485 0.67174 0.18674 0.0
C571 C 0.4941 0.65919 0.20684 0.0
C572 C 0.48284 0.6921 0.19984 0.0
C573 C 0.51292 0.74427 0.26197 0.0
H574 H 0.45693 0.75496 0.24388 0.0
C575 C 0.52209 0.84322 0.26535 0.0
C576 C 0.5055 0.84689 0.28639 0.0
C577 C 0.51838 0.8191 0.25853 0.0
C578 C 0.47265 0.75222 0.24938 0.0
H579 H 0.5083 0.65842 0.25705 0.0
H580 H 0.50541 0.69437 0.27977 0.0
H581 H 0.45423 0.71493 0.22732 0.0
H582 H 0.47141 0.82705 0.31619 0.0
H583 H 0.46409 0.78453 0.3026 0.0
H584 H 0.53182 0.78195 0.28245 0.0
C585 C 0.4993 0.68813 0.25382 0.0
C586 C 0.47118 0.72928 0.2397 0.0
C587 C 0.50071 0.66728 0.24092 0.0
C588 C 0.48448 0.8252 0.29961 0.0
C589 C 0.48035 0.80077 0.29192 0.0
C590 C 0.51461 0.76737 0.27084 0.0
C591 C 0.49068 0.70115 0.23332 0.0
C592 C 0.49135 0.72493 0.24569 0.0
C593 C 0.49756 0.79743 0.27173 0.0
C594 C 0.49459 0.77183 0.26457 0.0
H595 H 0.47987 0.66629 0.16028 0.0
H596 H 0.47629 0.70157 0.18308 0.0
H597 H 0.52895 0.7419 0.26678 0.0
H598 H 0.53852 0.85919 0.2545 0.0
H599 H 0.53191 0.8174 0.24267 0.0
C600 C 0.66499 0.4851 0.63759 0.0
C601 C 0.66078 0.5027 0.62012 0.0
C602 C 0.68564 0.48182 0.62895 0.0
C603 C 0.74955 0.5183 0.59103 0.0
H604 H 0.74932 0.45532 0.58133 0.0
C605 C 0.84289 0.51777 0.58046 0.0
C606 C 0.84574 0.50388 0.55379 0.0
C607 C 0.81927 0.51448 0.58918 0.0
C608 C 0.7497 0.47308 0.58383 0.0
H609 H 0.67458 0.52945 0.57854 0.0
H610 H 0.70994 0.52398 0.56411 0.0
H611 H 0.70999 0.45505 0.5953 0.0
H612 H 0.825 0.47427 0.51671 0.0
H613 H 0.78331 0.46813 0.53244 0.0
H614 H 0.78896 0.53646 0.57999 0.0
C615 C 0.69769 0.51288 0.58471 0.0
C616 C 0.72715 0.47293 0.59217 0.0
C617 C 0.67716 0.51593 0.593 0.0
C618 C 0.82369 0.4854 0.53731 0.0
C619 C 0.79975 0.48189 0.54638 0.0
C620 C 0.77197 0.51846 0.58332 0.0
C621 C 0.70276 0.49625 0.60294 0.0
C622 C 0.72668 0.4956 0.59563 0.0
C623 C 0.79728 0.49694 0.57188 0.0
C624 C 0.77257 0.49592 0.57949 0.0
H625 H 0.65291 0.47455 0.65862 0.0
H626 H 0.6888 0.46877 0.6436 0.0
H627 H 0.75021 0.53619 0.59368 0.0
H628 H 0.8592 0.53197 0.59419 0.0
H629 H 0.81831 0.5261 0.60937 0.0
C630 C 0.33987 0.82282 0.84616 0.0
C631 C 0.3525 0.84393 0.86778 0.0
C632 C 0.31969 0.79998 0.85791 0.0
C633 C 0.28247 0.76481 0.93676 0.0
H634 H 0.23149 0.72711 0.86855 0.0
C635 C 0.18892 0.66913 0.96829 0.0
C636 C 0.16689 0.66468 0.95116 0.0
C637 C 0.2128 0.68966 0.95913 0.0
C638 C 0.24524 0.73733 0.88831 0.0
H639 H 0.35384 0.85702 0.91954 0.0
H640 H 0.31815 0.81743 0.94006 0.0
H641 H 0.26942 0.76492 0.85242 0.0
H642 H 0.15329 0.6785 0.91044 0.0
H643 H 0.19376 0.71364 0.89522 0.0
H644 H 0.25726 0.73745 0.97295 0.0
C645 C 0.32418 0.81825 0.91391 0.0
C646 C 0.2676 0.75913 0.87878 0.0
C647 C 0.34483 0.84112 0.90217 0.0
C648 C 0.16964 0.68103 0.9243 0.0
C649 C 0.19321 0.70135 0.9153 0.0
C650 C 0.25984 0.74295 0.9464 0.0
C651 C 0.3107 0.79735 0.89171 0.0
C652 C 0.28681 0.77349 0.90268 0.0
C653 C 0.21539 0.70631 0.93248 0.0
C654 C 0.24059 0.72887 0.92239 0.0
H655 H 0.34522 0.82416 0.81955 0.0
H656 H 0.31088 0.78448 0.83995 0.0
H657 H 0.29659 0.77484 0.95617 0.0
H658 H 0.18768 0.65712 0.98921 0.0
H659 H 0.22923 0.69243 0.97297 0.0
C660 C 0.5934 0.21738 0.99236 0.0
C661 C 0.60819 0.21454 0.96735 0.0
C662 C 0.60474 0.23289 1.02069 0.0
C663 C 0.63303 0.26552 1.08154 0.0
H664 H 0.66809 0.23271 0.11674 0.0
C665 C 0.65004 0.2205 0.21212 0.0
C666 C 0.62515 0.2102 0.2236 0.0
C667 C 0.6583 0.23623 0.18359 0.0
C668 C 0.65919 0.24295 0.10763 0.0
H669 H 0.6464 0.2286 0.94969 0.0
H670 H 0.66617 0.25519 0.99973 0.0
H671 H 0.66371 0.2349 1.05598 0.0
H672 H 0.58996 0.20965 0.21559 0.0
H673 H 0.60386 0.2361 0.16595 0.0
H674 H 0.62733 0.27231 0.1335 0.0
C675 C 0.64586 0.24525 0.99758 0.0
C676 C 0.65663 0.24418 1.07246 0.0
C677 C 0.63452 0.22987 0.96912 0.0
C678 C 0.60934 0.21744 0.20765 0.0
C679 C 0.61746 0.23288 0.17909 0.0
C680 C 0.63595 0.26467 0.1168 0.0
C681 C 0.63104 0.2457 1.02458 0.0
C682 C 0.64189 0.25374 1.05922 0.0
C683 C 0.64168 0.24159 0.16571 0.0
C684 C 0.64725 0.2515 0.13025 0.0
H685 H 0.57309 0.20587 0.99178 0.0
H686 H 0.59277 0.23269 1.04116 0.0
H687 H 0.622 0.27346 1.07192 0.0
H688 H 0.66278 0.2156 0.22434 0.0
H689 H 0.67725 0.24303 0.17446 0.0
C690 C 0.38191 0.60284 0.2908 0.0
C691 C 0.38084 0.57941 0.29059 0.0
C692 C 0.37639 0.6118 0.32052 0.0
C693 C 0.35638 0.59539 0.41153 0.0
H694 H 0.41764 0.6585 0.42973 0.0
C695 C 0.43331 0.62973 0.5178 0.0
C696 C 0.41786 0.61978 0.54657 0.0
C697 C 0.42381 0.63406 0.48791 0.0
C698 C 0.40019 0.64109 0.42507 0.0
H699 H 0.37035 0.54581 0.32 0.0
H700 H 0.36088 0.5613 0.37164 0.0
H701 H 0.40536 0.64469 0.37115 0.0
H702 H 0.3816 0.60994 0.56823 0.0
H703 H 0.36493 0.61741 0.51582 0.0
H704 H 0.35267 0.59052 0.46549 0.0
C705 C 0.36581 0.57285 0.349 0.0
C706 C 0.39295 0.63324 0.3914 0.0
C707 C 0.37131 0.5639 0.31931 0.0
C708 C 0.39373 0.61706 0.54611 0.0
C709 C 0.38419 0.62137 0.51616 0.0
C710 C 0.3637 0.60317 0.44521 0.0
C711 C 0.36971 0.59747 0.35053 0.0
C712 C 0.3719 0.60948 0.38436 0.0
C713 C 0.39866 0.62853 0.48619 0.0
C714 C 0.38662 0.62527 0.45227 0.0
H715 H 0.3887 0.61497 0.2687 0.0
H716 H 0.37908 0.63063 0.32068 0.0
H717 H 0.33974 0.57727 0.40689 0.0
H718 H 0.45193 0.63194 0.51724 0.0
H719 H 0.43548 0.6394 0.4653 0.0
C720 C 0.79608 0.44282 0.88314 0.0
C721 C 0.80602 0.42815 0.89533 0.0
C722 C 0.78033 0.43499 0.85447 0.0
C723 C 0.77354 0.428 0.77856 0.0
H724 H 0.74218 0.35961 0.74366 0.0
C725 C 0.79694 0.38524 0.66322 0.0
C726 C 0.7997 0.40262 0.63806 0.0
C727 C 0.78199 0.38175 0.69182 0.0
C728 C 0.75038 0.37877 0.75305 0.0
H729 H 0.80586 0.39298 0.88851 0.0
H730 H 0.77943 0.37982 0.83857 0.0
H731 H 0.74367 0.36701 0.80514 0.0
H732 H 0.78606 0.42706 0.62048 0.0
H733 H 0.7604 0.42139 0.67091 0.0
H734 H 0.78144 0.43983 0.72679 0.0
C735 C 0.78294 0.397 0.85125 0.0
C736 C 0.75143 0.38306 0.78826 0.0
C737 C 0.79836 0.40466 0.88 0.0
C738 C 0.78483 0.41407 0.64 0.0
C739 C 0.76999 0.4107 0.6687 0.0
C740 C 0.77211 0.42369 0.74345 0.0
C741 C 0.77464 0.41258 0.8371 0.0
C742 C 0.76482 0.40777 0.80146 0.0
C743 C 0.76966 0.39568 0.6958 0.0
C744 C 0.76218 0.39912 0.7305 0.0
H745 H 0.80132 0.46082 0.89488 0.0
H746 H 0.77382 0.44721 0.84479 0.0
H747 H 0.78398 0.44731 0.78745 0.0
H748 H 0.80812 0.37611 0.66249 0.0
H749 H 0.78226 0.37016 0.71235 0.0
C750 C 0.4026 0.78743 0.95421 0.0
C751 C 0.42784 0.80682 0.95237 0.0
C752 C 0.39401 0.7715 0.98239 0.0
C753 C 0.38134 0.76815 1.05707 0.0
H754 H 0.41928 0.74923 0.11662 0.0
C755 C 0.42036 0.79428 0.19762 0.0
C756 C 0.40061 0.79664 0.21163 0.0
C757 C 0.41674 0.78048 0.1677 0.0
C758 C 0.40833 0.75433 0.10035 0.0
H759 H 0.46445 0.82287 0.97639 0.0
H760 H 0.44948 0.79523 1.02572 0.0
H761 H 0.4276 0.75303 1.05533 0.0
H762 H 0.36079 0.78362 0.20826 0.0
H763 H 0.35404 0.75842 0.1567 0.0
H764 H 0.364 0.77228 0.10158 0.0
C765 C 0.43631 0.79216 1.00538 0.0
C766 C 0.41301 0.75631 1.06521 0.0
C767 C 0.4449 0.80811 0.97716 0.0
C768 C 0.37644 0.78248 0.19751 0.0
C769 C 0.37267 0.76818 0.16787 0.0
C770 C 0.377 0.76664 0.0921 0.0
C771 C 0.41052 0.77471 1.0092 0.0
C772 C 0.40053 0.76462 1.04354 0.0
C773 C 0.39317 0.76844 0.15127 0.0
C774 C 0.3916 0.76132 0.11449 0.0
H775 H 0.38915 0.78568 0.935 0.0
H776 H 0.37411 0.75798 0.98445 0.0
H777 H 0.37143 0.77471 1.04114 0.0
H778 H 0.43925 0.80504 0.20788 0.0
H779 H 0.43314 0.78142 0.15597 0.0
C780 C 0.63081 0.40516 0.30507 0.0
C781 C 0.60556 0.39811 0.29944 0.0
C782 C 0.63751 0.39572 0.33315 0.0
C783 C 0.64785 0.39298 0.40777 0.0
H784 H 0.59389 0.3396 0.45918 0.0
C785 C 0.62638 0.41344 0.53695 0.0
C786 C 0.60659 0.39484 0.55611 0.0
C787 C 0.6355 0.40691 0.50848 0.0
C788 C 0.60975 0.35434 0.44569 0.0
H789 H 0.56745 0.37494 0.31774 0.0
H790 H 0.57881 0.35966 0.36686 0.0
H791 H 0.59239 0.33812 0.39795 0.0
H792 H 0.58304 0.35474 0.56356 0.0
H793 H 0.60007 0.34301 0.51511 0.0
H794 H 0.66607 0.40833 0.45533 0.0
C795 C 0.59371 0.37152 0.34944 0.0
C796 C 0.60856 0.35372 0.4101 0.0
C797 C 0.58706 0.38052 0.3212 0.0
C798 C 0.59801 0.36943 0.54866 0.0
C799 C 0.60768 0.36281 0.52061 0.0
C800 C 0.64968 0.39294 0.44331 0.0
C801 C 0.61912 0.37956 0.3566 0.0
C802 C 0.62608 0.3745 0.391 0.0
C803 C 0.62534 0.38148 0.49864 0.0
C804 C 0.62923 0.37525 0.46289 0.0
H805 H 0.64541 0.41846 0.2883 0.0
H806 H 0.6572 0.40195 0.33713 0.0
H807 H 0.6624 0.40897 0.39422 0.0
H808 H 0.63332 0.43322 0.54206 0.0
H809 H 0.64887 0.42219 0.49276 0.0
C810 C 0.23221 0.62411 0.86653 0.0
C811 C 0.21443 0.59827 0.86848 0.0
C812 C 0.2482 0.63367 0.8384 0.0
C813 C 0.26506 0.61577 0.75525 0.0
H814 H 0.24071 0.65808 0.71875 0.0
C815 C 0.21386 0.5942 0.63195 0.0
C816 C 0.20816 0.61139 0.6168 0.0
C817 C 0.231 0.60169 0.65877 0.0
C818 C 0.24865 0.64703 0.72816 0.0
H819 H 0.20168 0.56186 0.84466 0.0
H820 H 0.22939 0.5784 0.79582 0.0
H821 H 0.24256 0.65418 0.77952 0.0
H822 H 0.21855 0.65067 0.6144 0.0
H823 H 0.24922 0.66409 0.66076 0.0
H824 H 0.26973 0.60751 0.70354 0.0
C825 C 0.23116 0.59138 0.81593 0.0
C826 C 0.24968 0.64476 0.7634 0.0
C827 C 0.21511 0.58185 0.84396 0.0
C828 C 0.22227 0.63692 0.62606 0.0
C829 C 0.23972 0.64454 0.65278 0.0
C830 C 0.26442 0.61836 0.71989 0.0
C831 C 0.24673 0.61752 0.81182 0.0
C832 C 0.25592 0.62752 0.77718 0.0
C833 C 0.24309 0.62669 0.67092 0.0
C834 C 0.25406 0.63227 0.70596 0.0
H835 H 0.23262 0.63716 0.8856 0.0
H836 H 0.26027 0.65386 0.83613 0.0
H837 H 0.27053 0.6028 0.76527 0.0
H838 H 0.20384 0.57451 0.62451 0.0
H839 H 0.23289 0.58723 0.67179 0.0
C840 C 0.41846 0.97463 0.95314 0.0
C841 C 0.4206 0.95294 0.94736 0.0
C842 C 0.4244 0.98749 0.98547 0.0
C843 C 0.43186 0.97965 1.08105 0.0
H844 H 0.46886 0.05247 0.08552 0.0
C845 C 0.44887 0.03728 0.21284 0.0
C846 C 0.47282 0.05878 0.21892 0.0
C847 C 0.44213 0.02443 0.1805 0.0
C848 C 0.45847 0.0321 0.08518 0.0
H849 H 0.4307 0.92828 0.97348 0.0
H850 H 0.43976 0.9496 1.02912 0.0
H851 H 0.45787 0.03083 1.02989 0.0
H852 H 0.50802 0.0831 0.19329 0.0
H853 H 0.4961 0.0618 0.13762 0.0
H854 H 0.43195 0.98092 0.13632 0.0
C855 C 0.43379 0.95706 1.0085 0.0
C856 C 0.45194 0.01949 1.05275 0.0
C857 C 0.42855 0.94467 0.97603 0.0
C858 C 0.48937 0.06686 0.19051 0.0
C859 C 0.48241 0.05448 0.15802 0.0
C860 C 0.43778 0.99226 0.11347 0.0
C861 C 0.43215 0.97903 1.01425 0.0
C862 C 0.43861 0.99285 1.0496 0.0
C863 C 0.45866 0.0327 0.15199 0.0
C864 C 0.45149 0.0189 0.11662 0.0
H865 H 0.41269 0.98212 0.93232 0.0
H866 H 0.4226 1.00408 0.98796 0.0
H867 H 0.42156 0.95927 1.08071 0.0
H868 H 0.43533 0.02994 0.23343 0.0
H869 H 0.42361 0.00799 0.17778 0.0
C870 C 0.44666 0.41658 0.28901 0.0
C871 C 0.46976 0.41709 0.2838 0.0
C872 C 0.44004 0.42283 0.32121 0.0
C873 C 0.45435 0.42888 0.41721 0.0
H874 H 0.42032 0.46749 0.4207 0.0
C875 C 0.41368 0.44654 0.54788 0.0
C876 C 0.41609 0.47047 0.55384 0.0
C877 C 0.41998 0.43981 0.51576 0.0
C878 C 0.42983 0.45668 0.42065 0.0
H879 H 0.50361 0.42471 0.31077 0.0
H880 H 0.49185 0.4345 0.36629 0.0
H881 H 0.43117 0.45644 0.36544 0.0
H882 H 0.42718 0.50569 0.52829 0.0
H883 H 0.43703 0.49384 0.47299 0.0
H884 H 0.45255 0.42869 0.47242 0.0
C885 C 0.47875 0.42949 0.34528 0.0
C886 C 0.436 0.45009 0.38841 0.0
C887 C 0.48563 0.42385 0.3129 0.0
C888 C 0.42478 0.48706 0.52557 0.0
C889 C 0.43047 0.48013 0.49329 0.0
C890 C 0.44761 0.43492 0.44944 0.0
C891 C 0.45583 0.42939 0.35044 0.0
C892 C 0.44863 0.43613 0.38562 0.0
C893 C 0.42848 0.45638 0.48737 0.0
C894 C 0.43529 0.44919 0.45223 0.0
H895 H 0.43368 0.41172 0.26787 0.0
H896 H 0.42217 0.42219 0.32323 0.0
H897 H 0.46385 0.41806 0.41714 0.0
H898 H 0.40731 0.43299 0.5684 0.0
H899 H 0.41785 0.42129 0.51311 0.0
C900 C 0.05945 0.4899 0.63672 0.0
C901 C 0.0566 0.47146 0.61231 0.0
C902 C 0.04727 0.4836 0.66919 0.0
C903 C 0.00921 0.42825 0.73195 0.0
H904 H 0.99848 0.47767 0.77879 0.0
C905 C 0.96584 0.40996 0.87416 0.0
C906 C 0.95357 0.42287 0.88624 0.0
C907 C 0.97805 0.41514 0.84148 0.0
C908 C 1.00087 0.46319 0.76652 0.0
H909 H 0.03761 0.43105 0.60533 0.0
H910 H 0.01645 0.42007 0.66103 0.0
H911 H 0.01845 0.48714 0.72326 0.0
H912 H 0.94519 0.4517 0.87085 0.0
H913 H 0.9655 0.46025 0.81538 0.0
H914 H 0.99105 0.4041 0.77516 0.0
C915 C 0.02851 0.43981 0.65532 0.0
C916 C 0.013 0.46893 0.73397 0.0
C917 C 0.04077 0.44616 0.62266 0.0
C918 C 0.95422 0.44111 0.86354 0.0
C919 C 0.96635 0.44627 0.83106 0.0
C920 C 0.99706 0.4225 0.76463 0.0
C921 C 0.03123 0.45834 0.67974 0.0
C922 C 0.01769 0.45172 0.71541 0.0
C923 C 0.97884 0.4336 0.81878 0.0
C924 C 0.99238 0.43976 0.78312 0.0
H925 H 0.07132 0.50965 0.63077 0.0
H926 H 0.05089 0.49897 0.68625 0.0
H927 H 0.01218 0.41407 0.71986 0.0
H928 H 0.9662 0.39582 0.89012 0.0
H929 H 0.98728 0.40472 0.83436 0.0
C930 C 0.56441 0.96844 0.20554 0.0
C931 C 0.53903 0.95378 0.21612 0.0
C932 C 0.57122 0.98125 0.1735 0.0
C933 C 0.54498 1.00274 0.09929 0.0
H934 H 0.60631 0.01661 1.05322 0.0
C935 C 0.57866 0.06553 0.97386 0.0
C936 C 0.59326 0.0621 0.94863 0.0
C937 C 0.57251 0.0526 1.00566 0.0
C938 C 0.58894 0.01292 1.06523 0.0
H939 H 0.50113 0.94183 0.19912 0.0
H940 H 0.51265 0.96353 0.14445 0.0
H941 H 0.59512 0.99429 0.10756 0.0
H942 H 0.61266 0.04143 0.93912 0.0
H943 H 0.60217 0.01916 0.99382 0.0
H944 H 0.53857 0.02102 1.05689 0.0
C945 C 0.52768 0.96557 0.16091 0.0
C946 C 0.58254 1.00012 0.09725 0.0
C947 C 0.52091 0.9527 0.19276 0.0
C948 C 0.60151 0.04503 0.95726 0.0
C949 C 0.59546 0.03215 0.98925 0.0
C950 C 0.55145 0.01566 1.06744 0.0
C951 C 0.55306 0.98034 0.15016 0.0
C952 C 0.56029 0.99453 0.11534 0.0
C953 C 0.58064 0.03541 1.01448 0.0
C954 C 0.57364 0.0212 1.04927 0.0
H955 H 0.57925 0.97018 0.22219 0.0
H956 H 0.591 0.99233 0.1674 0.0
H957 H 0.52783 0.99952 0.11153 0.0
H958 H 0.57174 0.07833 0.96903 0.0
H959 H 0.56149 0.0565 1.02361 0.0
C960 C 0.57286 0.51884 0.52785 0.0
C961 C 0.58904 0.537 0.55209 0.0
C962 C 0.567 0.52561 0.49579 0.0
C963 C 0.58585 0.58155 0.43407 0.0
H964 H 0.5237 0.53449 0.38893 0.0
C965 C 0.56041 0.60177 0.29379 0.0
C966 C 0.53496 0.59055 0.28321 0.0
C967 C 0.56747 0.59594 0.32588 0.0
C968 C 0.54114 0.5483 0.4008 0.0
H969 H 0.61158 0.57731 0.55946 0.0
H970 H 0.60146 0.58908 0.50451 0.0
H971 H 0.53419 0.52393 0.44368 0.0
H972 H 0.49728 0.56406 0.30044 0.0
H973 H 0.50914 0.55443 0.35498 0.0
H974 H 0.59246 0.60614 0.39128 0.0
C975 C 0.5933 0.56926 0.50996 0.0
C976 C 0.5475 0.54191 0.4328 0.0
C977 C 0.59915 0.56244 0.54215 0.0
C978 C 0.5171 0.57333 0.30668 0.0
C979 C 0.5241 0.56751 0.33854 0.0
C980 C 0.5795 0.58794 0.40194 0.0
C981 C 0.5769 0.55106 0.48569 0.0
C982 C 0.57007 0.55828 0.45064 0.0
C983 C 0.54951 0.57846 0.3493 0.0
C984 C 0.55685 0.57156 0.38421 0.0
H985 H 0.56448 0.49902 0.53364 0.0
H986 H 0.55473 0.51051 0.47869 0.0
H987 H 0.60355 0.59504 0.4457 0.0
H988 H 0.57508 0.61502 0.27709 0.0
H989 H 0.5873 0.60497 0.33194 0.0
C990 C 0.07011 0.58545 0.85524 0.0
C991 C 0.06188 0.59322 0.88426 0.0
C992 C 0.05705 0.57951 0.8234 0.0
C993 C 0.99346 0.56002 0.7827 0.0
H994 H 0.0301 0.5789 0.69735 0.0
C995 C 0.94273 0.52214 0.64768 0.0
C996 C 0.95086 0.53845 0.61917 0.0
C997 C 0.9558 0.52909 0.67953 0.0
C998 C 0.01931 0.5734 0.72075 0.0
H999 H 0.03229 0.60016 0.9009 0.0
H1000 H 0.00937 0.58925 0.84635 0.0
H1001 H 0.05297 0.59001 0.75178 0.0
H1002 H 0.98029 0.57534 0.60345 0.0
H1003 H 1.00322 0.58708 0.65801 0.0
H1004 H 0.9598 0.54294 0.75166 0.0
C1005 C 0.02628 0.58799 0.84803 0.0
C1006 C 0.03262 0.5797 0.75244 0.0
C1007 C 0.03968 0.5945 0.87968 0.0
C1008 C 0.97297 0.56205 0.62427 0.0
C1009 C 0.98638 0.56879 0.65592 0.0
C1010 C 0.98015 0.5532 0.751 0.0
C1011 C 0.03461 0.58038 0.81888 0.0
C1012 C 0.02011 0.57334 0.78439 0.0
C1013 C 0.97815 0.55254 0.68456 0.0
C1014 C 0.99266 0.55982 0.71905 0.0
H1015 H 0.0869 0.58398 0.85704 0.0
H1016 H 0.06439 0.57365 0.80234 0.0
H1017 H 0.98267 0.55438 0.8061 0.0
H1018 H 0.92602 0.50376 0.64547 0.0
H1019 H 0.94854 0.51566 0.70018 0.0
C1020 C 0.46393 0.03102 0.39713 0.0
C1021 C 0.4756 0.02886 0.36725 0.0
C1022 C 0.46252 0.01745 0.42626 0.0
C1023 C 0.48511 0.97609 0.46046 0.0
H1024 H 0.54603 0.04057 0.46952 0.0
C1025 C 0.53473 1.00066 0.36819 0.0
C1026 C 0.53622 0.97882 0.36486 0.0
C1027 C 0.53989 0.01307 0.39968 0.0
C1028 C 0.52915 0.02221 0.4695 0.0
H1029 H 0.48806 0.00599 0.34123 0.0
H1030 H 0.48405 0.98088 0.39149 0.0
H1031 H 0.50596 0.03878 0.46601 0.0
H1032 H 0.55151 0.95746 0.38794 0.0
H1033 H 0.55661 0.97631 0.44426 0.0
H1034 H 0.50868 0.96005 0.46065 0.0
C1035 C 0.47764 0.99437 0.39327 0.0
C1036 C 0.50589 0.02111 0.4671 0.0
C1037 C 0.48018 0.00882 0.36442 0.0
C1038 C 0.54812 0.97291 0.39081 0.0
C1039 C 0.55194 0.98436 0.42292 0.0
C1040 C 0.50831 0.97732 0.46432 0.0
C1041 C 0.47178 1.0008 0.42534 0.0
C1042 C 0.48476 0.99854 0.4558 0.0
C1043 C 0.54461 1.00235 0.42856 0.0
C1044 C 0.53045 1.00078 0.46016 0.0
H1045 H 0.45885 0.04549 0.39951 0.0
H1046 H 0.45743 0.02245 0.45035 0.0
H1047 H 0.46878 0.95814 0.45395 0.0
H1048 H 0.52682 0.00637 0.34785 0.0
H1049 H 0.53523 0.02782 0.40247 0.0
C1050 C 0.47505 0.48082 0.69966 0.0
C1051 C 0.45035 0.47583 0.70306 0.0
C1052 C 0.48786 0.4795 0.72842 0.0
C1053 C 0.49111 0.5102 0.80085 0.0
H1054 H 0.555 0.51325 0.79507 0.0
C1055 C 0.58007 0.54961 0.72359 0.0
C1056 C 0.56141 0.53589 0.69904 0.0
C1057 C 0.57327 0.55523 0.75515 0.0
C1058 C 0.53737 0.51282 0.79857 0.0
H1059 H 0.41776 0.45937 0.7366 0.0
H1060 H 0.44103 0.46062 0.78723 0.0
H1061 H 0.51697 0.47307 0.78919 0.0
H1062 H 0.52417 0.52581 0.68225 0.0
H1063 H 0.51263 0.53753 0.73553 0.0
H1064 H 0.51182 0.55041 0.80226 0.0
C1065 C 0.45048 0.46501 0.76275 0.0
C1066 C 0.51538 0.48947 0.79512 0.0
C1067 C 0.43738 0.46496 0.73371 0.0
C1068 C 0.53827 0.53475 0.70199 0.0
C1069 C 0.53193 0.54189 0.73261 0.0
C1070 C 0.51332 0.53357 0.80281 0.0
C1071 C 0.47644 0.47466 0.76095 0.0
C1072 C 0.49245 0.48885 0.79047 0.0
C1073 C 0.548 0.548 0.76122 0.0
C1074 C 0.53601 0.53483 0.79356 0.0
H1075 H 0.48508 0.48797 0.6759 0.0
H1076 H 0.50772 0.48595 0.72604 0.0
H1077 H 0.47347 0.51014 0.79959 0.0
H1078 H 0.59902 0.55328 0.72021 0.0
H1079 H 0.58657 0.56121 0.7761 0.0
C1080 C 1.00517 0.47705 1.03553 0.0
C1081 C 0.98406 0.45304 1.03807 0.0
C1082 C 0.01922 0.48896 1.06488 0.0
C1083 C 0.9908 0.49279 0.13579 0.0
H1084 H 0.05269 0.55589 0.12925 0.0
C1085 C 0.04153 0.5818 1.05623 0.0
C1086 C 0.03643 0.56343 1.03111 0.0
C1087 C 0.02964 0.57468 0.08799 0.0
C1088 C 0.03518 0.53854 0.13298 0.0
H1089 H 0.9652 0.42012 1.07065 0.0
H1090 H 0.98767 0.44184 0.12215 0.0
H1091 H 0.05377 0.5172 0.12676 0.0
H1092 H 0.00973 0.52587 1.01434 0.0
H1093 H 0.9872 0.51368 1.06807 0.0
H1094 H 0.97209 0.51416 0.13409 0.0
C1095 C 0.99371 0.45154 0.09797 0.0
C1096 C 0.03591 0.51615 0.13155 0.0
C1097 C 0.98047 0.43934 1.06841 0.0
C1098 C 0.01489 0.53986 1.0343 0.0
C1099 C 1.00185 0.53313 1.06517 0.0
C1100 C 0.99022 0.51529 0.13585 0.0
C1101 C 0.01136 0.47728 0.09708 0.0
C1102 C 0.01332 0.4934 0.12663 0.0
C1103 C 0.01168 0.54934 0.0938 0.0
C1104 C 0.01214 0.53756 0.12662 0.0
H1105 H 0.0092 0.48747 1.01197 0.0
H1106 H 0.03353 0.50863 1.06309 0.0
H1107 H 0.97296 0.47531 0.13461 0.0
H1108 H 0.05662 0.60083 1.05297 0.0
H1109 H 0.03705 0.58793 0.10909 0.0
C1110 C 0.00799 0.48114 0.46472 0.0
C1111 C 0.02806 0.47677 0.46079 0.0
C1112 C 0.9939 0.48014 0.43606 0.0
C1113 C 0.02155 0.51283 0.36575 0.0
H1114 H 0.95998 0.51435 0.37339 0.0
C1115 C 0.97089 0.54931 0.44812 0.0
C1116 C 0.97618 0.53567 0.47205 0.0
C1117 C 0.98301 0.55521 0.41646 0.0
C1118 C 0.9774 0.51442 0.36943 0.0
H1119 H 0.045 0.46173 0.42597 0.0
H1120 H 0.02295 0.46349 0.37576 0.0
H1121 H 0.95853 0.47439 0.37514 0.0
H1122 H 1.00339 0.52534 0.48736 0.0
H1123 H 0.02615 0.53743 0.43381 0.0
H1124 H 0.04053 0.553 0.36813 0.0
C1125 C 0.01758 0.46715 0.40056 0.0
C1126 C 0.97644 0.4912 0.37042 0.0
C1127 C 0.03065 0.46683 0.42941 0.0
C1128 C 0.99805 0.53439 0.46819 0.0
C1129 C 0.01124 0.54174 0.43745 0.0
C1130 C 0.02233 0.53601 0.36627 0.0
C1131 C 1.00085 0.47623 0.40317 0.0
C1132 C 0.99894 0.4909 0.37462 0.0
C1133 C 1.0012 0.54835 0.40954 0.0
C1134 C 1.00055 0.53644 0.37609 0.0
H1135 H 1.00473 0.48753 0.48898 0.0
H1136 H 0.9802 0.48617 0.43903 0.0
H1137 H 0.0393 0.51308 0.36656 0.0
H1138 H 0.95551 0.55269 0.45205 0.0
H1139 H 0.97548 0.56131 0.39603 0.0
C1140 C 0.44035 0.97967 0.76734 0.0
C1141 C 0.45392 0.9826 0.79773 0.0
C1142 C 0.45273 0.99298 0.73812 0.0
C1143 C 0.51694 0.03528 0.70481 0.0
H1144 H 0.51546 0.97173 0.69825 0.0
C1145 C 0.54228 0.01468 0.79837 0.0
C1146 C 0.5655 0.03673 0.80112 0.0
C1147 C 0.5355 1.0012 0.76768 0.0
C1148 C 0.51636 0.9898 0.69754 0.0
H1149 H 0.48869 0.00664 0.82429 0.0
H1150 H 0.51004 0.03152 0.77382 0.0
H1151 H 0.47644 0.97218 0.70069 0.0
H1152 H 0.60271 0.05727 0.77899 0.0
H1153 H 0.58945 0.03691 0.72312 0.0
H1154 H 0.5567 0.05238 0.70493 0.0
C1155 C 0.49031 0.01746 0.77177 0.0
C1156 C 0.49377 0.99012 0.69935 0.0
C1157 C 0.47826 1.00318 0.80074 0.0
C1158 C 0.58374 0.04188 0.77595 0.0
C1159 C 0.57648 0.0295 0.74436 0.0
C1160 C 0.53934 0.03478 0.70148 0.0
C1161 C 0.47853 0.01024 0.73944 0.0
C1162 C 0.49442 0.01251 0.70966 0.0
C1163 C 0.5512 0.01118 0.7388 0.0
C1164 C 0.53874 0.01178 0.7066 0.0
H1165 H 0.42094 0.96485 0.76477 0.0
H1166 H 0.44299 0.9874 0.71381 0.0
H1167 H 0.51797 0.05305 0.71063 0.0
H1168 H 0.52846 0.00945 0.81844 0.0
H1169 H 0.51618 0.98615 0.76506 0.0
C1170 C 0.54617 0.57496 0.10495 0.0
C1171 C 0.53486 0.56073 0.13457 0.0
C1172 C 0.5485 0.56332 1.07562 0.0
C1173 C 0.52741 0.4994 1.04059 0.0
H1174 H 0.46562 0.50124 1.03409 0.0
C1175 C 0.47893 0.47274 0.13436 0.0
C1176 C 0.47634 0.4489 0.13674 0.0
C1177 C 0.47392 0.48054 0.10343 0.0
C1178 C 0.48271 0.50022 1.03338 0.0
H1179 H 0.52435 0.52581 0.16008 0.0
H1180 H 0.52975 0.50563 0.10941 0.0
H1181 H 0.50532 0.54015 1.03625 0.0
H1182 H 0.45968 0.41233 0.11268 0.0
H1183 H 0.45525 0.427 1.05689 0.0
H1184 H 0.50445 0.4596 1.04108 0.0
C1185 C 0.53519 0.52532 0.10794 0.0
C1186 C 0.50577 0.52274 1.035 0.0
C1187 C 0.5318 0.53667 0.13702 0.0
C1188 C 0.46387 0.43143 0.11036 0.0
C1189 C 0.46042 0.43961 1.07867 0.0
C1190 C 0.50438 0.47701 1.03746 0.0
C1191 C 0.54037 0.53758 1.07603 0.0
C1192 C 0.52734 0.52201 1.04558 0.0
C1193 C 0.46838 0.46516 1.07403 0.0
C1194 C 0.48205 0.47779 1.04233 0.0
H1195 H 0.55017 0.59419 0.10291 0.0
H1196 H 0.55315 0.57344 1.0517 0.0
H1197 H 0.54406 0.49831 1.04648 0.0
H1198 H 0.48734 0.48614 0.15509 0.0
H1199 H 0.47915 0.50015 0.10133 0.0
C1200 C 0.32037 0.99192 0.71282 0.0
C1201 C 0.31836 0.96814 0.71029 0.0
C1202 C 0.31644 1.00292 0.68414 0.0
C1203 C 0.3322 0.02797 0.61519 0.0
H1204 H 0.28677 0.99157 0.54051 0.0
C1205 C 0.34062 0.02475 0.46366 0.0
C1206 C 0.35577 0.05058 0.45722 0.0
C1207 C 0.32791 0.01651 0.49462 0.0
C1208 C 0.29951 1.00206 0.56118 0.0
H1209 H 0.30851 0.9363 0.67677 0.0
H1210 H 0.30209 0.95562 0.62662 0.0
H1211 H 0.2785 0.97281 0.59727 0.0
H1212 H 0.36766 0.08805 0.47654 0.0
H1213 H 0.34509 0.07367 0.53055 0.0
H1214 H 0.3542 0.05639 0.57905 0.0
C1215 C 0.30656 0.96577 0.65067 0.0
C1216 C 0.29473 0.99134 0.59366 0.0
C1217 C 0.31058 0.95483 0.67926 0.0
C1218 C 0.35642 0.06801 0.48118 0.0
C1219 C 0.34352 0.05977 0.51205 0.0
C1220 C 0.33704 0.03861 0.58278 0.0
C1221 C 0.31032 0.99029 0.65251 0.0
C1222 C 0.31163 1.00375 0.62062 0.0
C1223 C 0.32997 0.03395 0.51971 0.0
C1224 C 0.32135 0.02531 0.55507 0.0
H1225 H 0.32638 1.00262 0.73642 0.0
H1226 H 0.31926 0.02176 0.68635 0.0
H1227 H 0.34575 0.03792 0.63531 0.0
H1228 H 0.33992 0.0109 0.44574 0.0
H1229 H 0.31796 0.9965 0.49973 0.0
C1230 C 0.38544 0.31228 0.99011 0.0
C1231 C 0.37239 0.30625 1.02122 0.0
C1232 C 0.37241 0.30475 0.95926 0.0
C1233 C 0.31147 0.29159 0.92592 0.0
H1234 H 0.34462 0.29274 0.84121 0.0
C1235 C 0.31934 0.32239 0.77474 0.0
C1236 C 0.31955 0.34502 0.78132 0.0
C1237 C 0.31622 0.30608 0.80147 0.0
C1238 C 0.33452 0.29166 0.86438 0.0
H1239 H 0.33542 0.28555 1.04436 0.0
H1240 H 0.3127 0.27157 0.99047 0.0
H1241 H 0.35799 0.28255 0.89399 0.0
H1242 H 0.31422 0.36715 0.8202 0.0
H1243 H 0.30968 0.33946 0.86675 0.0
H1244 H 0.28819 0.30098 0.89635 0.0
C1245 C 0.33302 0.2828 0.9899 0.0
C1246 C 0.34249 0.28619 0.89483 0.0
C1247 C 0.34609 0.29063 1.02085 0.0
C1248 C 0.31466 0.35009 0.81453 0.0
C1249 C 0.31162 0.33391 0.84116 0.0
C1250 C 0.30319 0.29659 0.89541 0.0
C1251 C 0.34596 0.29066 0.95871 0.0
C1252 C 0.3323 0.28792 0.92621 0.0
C1253 C 0.31326 0.31215 0.8352 0.0
C1254 C 0.31585 0.29852 0.86469 0.0
H1255 H 0.40576 0.32373 0.98949 0.0
H1256 H 0.38315 0.31145 0.93592 0.0
H1257 H 0.30294 0.29292 0.94944 0.0
H1258 H 0.323 0.31798 0.74932 0.0
H1259 H 0.31724 0.28932 0.79595 0.0
C1260 C 0.99033 0.3186 0.11426 0.0
C1261 C 0.96615 0.31553 0.11701 0.0
C1262 C 1.00171 0.31464 0.14254 0.0
C1263 C 0.02644 0.33017 0.21198 0.0
H1264 H 0.99126 0.28316 0.28508 0.0
C1265 C 0.02155 0.33674 0.36346 0.0
C1266 C 0.04714 0.35283 0.37069 0.0
C1267 C 0.01408 0.3242 0.33213 0.0
C1268 C 1.00143 0.29635 0.26485 0.0
H1269 H 0.93403 0.3037 0.15032 0.0
H1270 H 0.95396 0.29721 0.19978 0.0
H1271 H 0.97275 0.27473 0.22796 0.0
H1272 H 0.08508 0.36658 0.35235 0.0
H1273 H 0.07206 0.34436 0.29764 0.0
H1274 H 0.05419 0.35273 0.24897 0.0
C1275 C 0.96416 0.30254 0.17588 0.0
C1276 C 0.99086 0.29148 0.23217 0.0
C1277 C 0.95284 0.30658 0.14769 0.0
C1278 C 0.06519 0.35462 0.34711 0.0
C1279 C 0.05773 0.3419 0.31584 0.0
C1280 C 0.03693 0.3351 0.2446 0.0
C1281 C 0.98905 0.30744 0.17398 0.0
C1282 C 1.00275 0.30892 0.2058 0.0
C1283 C 0.03207 0.32737 0.30744 0.0
C1284 C 0.024 0.31882 0.27177 0.0
H1285 H 1.00103 0.32551 0.0909 0.0
H1286 H 0.02084 0.31836 0.14027 0.0
H1287 H 0.03598 0.34414 0.19236 0.0
H1288 H 0.00722 0.33515 0.38105 0.0
H1289 H 0.99416 0.31347 0.32644 0.0
C1290 C 0.68594 0.00856 0.72352 0.0
C1291 C 0.66372 0.0091 0.73014 0.0
C1292 C 0.68675 0.9935 0.69719 0.0
C1293 C 0.64636 0.94372 0.63397 0.0
H1294 H 0.70089 0.98349 0.57152 0.0
C1295 C 0.63357 0.91907 0.49278 0.0
C1296 C 0.63892 0.93998 0.47258 0.0
C1297 C 0.64335 0.92244 0.5258 0.0
C1298 C 0.68563 0.972 0.58874 0.0
H1299 H 0.62466 0.99343 0.71535 0.0
H1300 H 0.62603 0.96745 0.6697 0.0
H1301 H 0.70345 0.99757 0.63028 0.0
H1302 H 0.65986 0.9807 0.47008 0.0
H1303 H 0.67627 0.9867 0.52768 0.0
H1304 H 0.62736 0.91955 0.59176 0.0
C1305 C 0.64277 0.97819 0.68509 0.0
C1306 C 0.68724 0.9799 0.6226 0.0
C1307 C 0.64198 0.9932 0.71129 0.0
C1308 C 0.65556 0.96424 0.48503 0.0
C1309 C 0.66511 0.96763 0.51809 0.0
C1310 C 0.64461 0.93599 0.60005 0.0
C1311 C 0.66533 0.9787 0.67706 0.0
C1312 C 0.66695 0.96659 0.64502 0.0
C1313 C 0.65837 0.94681 0.53936 0.0
C1314 C 0.6636 0.95084 0.57658 0.0
H1315 H 0.70291 0.02033 0.73802 0.0
H1316 H 0.70432 0.99408 0.69185 0.0
H1317 H 0.63071 0.93273 0.6509 0.0
H1318 H 0.62111 0.90013 0.48347 0.0
H1319 H 0.63819 0.90599 0.54124 0.0
C1320 C 0.66786 0.68898 1.04504 0.0
C1321 C 0.65719 0.70352 1.0552 0.0
C1322 C 0.68038 0.69351 1.01391 0.0
C1323 C 0.67457 0.71548 0.93054 0.0
H1324 H 0.71966 0.69095 0.90617 0.0
C1325 C 0.6573 0.65215 0.81652 0.0
C1326 C 0.67736 0.65359 0.79752 0.0
C1327 C 0.66186 0.66755 0.84497 0.0
C1328 C 0.7075 0.69844 0.91237 0.0
H1329 H 0.65371 0.73599 1.04294 0.0
H1330 H 0.67602 0.74426 0.98863 0.0
H1331 H 0.71862 0.7038 0.96491 0.0
H1332 H 0.71803 0.67304 0.79288 0.0
H1333 H 0.72597 0.69966 0.84341 0.0
H1334 H 0.66278 0.70924 0.87835 0.0
C1335 C 0.67413 0.72892 1.00426 0.0
C1336 C 0.70672 0.70558 0.9461 0.0
C1337 C 0.66138 0.72422 1.0353 0.0
C1338 C 0.70216 0.67122 0.80729 0.0
C1339 C 0.70673 0.68656 0.83603 0.0
C1340 C 0.67545 0.7085 0.89689 0.0
C1341 C 0.6826 0.71279 0.9924 0.0
C1342 C 0.68919 0.71278 0.95591 0.0
C1343 C 0.68659 0.68469 0.8553 0.0
C1344 C 0.69085 0.69854 0.88794 0.0
H1345 H 0.6648 0.67282 1.05979 0.0
H1346 H 0.68637 0.6805 1.00556 0.0
H1347 H 0.66078 0.72087 0.93702 0.0
H1348 H 0.638 0.63846 0.8102 0.0
H1349 H 0.64593 0.6652 0.85978 0.0
C1350 C 0.06522 0.69708 0.16837 0.0
C1351 C 0.05699 0.69839 0.13546 0.0
C1352 C 0.05487 0.70208 0.19693 0.0
C1353 C 0.99517 0.69699 0.22143 0.0
H1354 H 0.02795 0.71208 0.30976 0.0
C1355 C 0.94718 0.6396 0.338 0.0
C1356 C 0.95574 0.64907 0.37097 0.0
C1357 C 0.95779 0.65486 0.30959 0.0
C1358 C 0.01839 0.70841 0.28542 0.0
H1359 H 0.03289 0.70799 0.10658 0.0
H1360 H 0.01542 0.71755 0.15649 0.0
H1361 H 0.05325 0.72528 0.25841 0.0
H1362 H 0.98068 0.68264 0.40017 0.0
H1363 H 0.99861 0.70954 0.35055 0.0
H1364 H 0.96031 0.67993 0.24844 0.0
C1365 C 0.02943 0.71203 0.16024 0.0
C1366 C 0.03298 0.71568 0.25586 0.0
C1367 C 0.03964 0.70677 0.13161 0.0
C1368 C 0.97367 0.67472 0.37508 0.0
C1369 C 0.98414 0.6901 0.34661 0.0
C1370 C 0.98059 0.69013 0.25099 0.0
C1371 C 0.03621 0.70878 0.19328 0.0
C1372 C 0.02151 0.70851 0.22358 0.0
C1373 C 0.97705 0.68008 0.31347 0.0
C1374 C 0.992 0.69421 0.28326 0.0
H1375 H 0.07899 0.69124 0.17216 0.0
H1376 H 0.06044 0.69908 0.22187 0.0
H1377 H 0.98558 0.69124 0.19707 0.0
H1378 H 0.93295 0.62007 0.33402 0.0
H1379 H 0.95194 0.64629 0.28457 0.0
C1380 C 0.54499 0.11493 0.45032 0.0
C1381 C 0.51936 0.10454 0.44093 0.0
C1382 C 0.55286 0.1148 0.48462 0.0
C1383 C 0.52923 0.10064 0.57888 0.0
H1384 H 0.59545 0.11017 0.59577 0.0
C1385 C 0.5674 0.11052 0.7218 0.0
C1386 C 0.58718 0.10599 0.73056 0.0
C1387 C 0.55942 0.10998 0.68741 0.0
C1388 C 0.57673 0.10726 0.59223 0.0
H1389 H 0.4821 0.0852 0.46294 0.0
H1390 H 0.49538 0.08465 0.52174 0.0
H1391 H 0.58138 0.10929 0.53759 0.0
H1392 H 0.61367 0.09707 0.70712 0.0
H1393 H 0.60001 0.09598 0.64794 0.0
H1394 H 0.52428 0.09785 0.63344 0.0
C1395 C 0.50989 0.0936 0.50265 0.0
C1396 C 0.56854 0.10708 0.55792 0.0
C1397 C 0.50203 0.09385 0.46822 0.0
C1398 C 0.59859 0.10094 0.70243 0.0
C1399 C 0.59058 0.10039 0.66781 0.0
C1400 C 0.5374 0.10076 0.61317 0.0
C1401 C 0.53566 0.10406 0.51218 0.0
C1402 C 0.5445 0.10388 0.54988 0.0
C1403 C 0.5706 0.10482 0.65901 0.0
C1404 C 0.56153 0.10422 0.62123 0.0
H1405 H 0.55935 0.12336 0.43086 0.0
H1406 H 0.57284 0.12355 0.48931 0.0
H1407 H 0.51071 0.09825 0.57543 0.0
H1408 H 0.55772 0.11449 0.74184 0.0
H1409 H 0.54441 0.11401 0.68336 0.0
C1410 C 0.43311 0.54304 0.78425 0.0
C1411 C 0.41743 0.51731 0.77532 0.0
C1412 C 0.44164 0.55123 0.81835 0.0
C1413 C 0.43185 0.52931 0.91273 0.0
H1414 H 0.4922 0.59356 0.92796 0.0
C1415 C 0.46243 0.57102 1.05383 0.0
C1416 C 0.48774 0.58864 1.06248 0.0
C1417 C 0.4545 0.56252 1.01967 0.0
C1418 C 0.47535 0.57543 0.92482 0.0
H1419 H 0.39922 0.48022 0.79778 0.0
H1420 H 0.41384 0.49413 0.85643 0.0
H1421 H 0.47805 0.57869 0.87 0.0
H1422 H 0.52442 0.61047 1.03933 0.0
H1423 H 0.51093 0.59591 0.98047 0.0
H1424 H 0.42945 0.52577 0.96751 0.0
C1425 C 0.41939 0.5084 0.83704 0.0
C1426 C 0.46683 0.56681 0.89074 0.0
C1427 C 0.41084 0.5002 0.80278 0.0
C1428 C 0.50472 0.59725 1.0346 0.0
C1429 C 0.49676 0.58873 1.00023 0.0
C1430 C 0.44034 0.53794 0.9468 0.0
C1431 C 0.43517 0.53425 0.84604 0.0
C1432 C 0.4447 0.54347 0.88342 0.0
C1433 C 0.47133 0.57097 0.99156 0.0
C1434 C 0.46235 0.56138 0.95414 0.0
H1435 H 0.43902 0.55721 0.76461 0.0
H1436 H 0.45324 0.57125 0.82283 0.0
H1437 H 0.41473 0.51139 0.90962 0.0
H1438 H 0.44837 0.56351 1.07377 0.0
H1439 H 0.43475 0.54934 1.01549 0.0
C1440 C 0.91849 0.41685 0.13572 0.0
C1441 C 0.9079 0.42369 0.10859 0.0
C1442 C 0.91875 0.42481 0.17035 0.0
C1443 C 0.9051 0.46967 0.22672 0.0
H1444 H 0.915 0.43473 0.30137 0.0
C1445 C 0.91107 0.50532 0.372 0.0
C1446 C 0.90664 0.48892 0.39982 0.0
C1447 C 0.91153 0.49796 0.3372 0.0
C1448 C 0.91189 0.4449 0.28136 0.0
H1449 H 0.88925 0.44502 0.09902 0.0
H1450 H 0.88902 0.45801 0.15776 0.0
H1451 H 0.91459 0.42099 0.24307 0.0
H1452 H 0.89902 0.45115 0.41034 0.0
H1453 H 0.89928 0.43847 0.35157 0.0
H1454 H 0.90179 0.4932 0.26511 0.0
C1455 C 0.89771 0.44678 0.15284 0.0
C1456 C 0.91201 0.43699 0.24689 0.0
C1457 C 0.8976 0.43894 0.11834 0.0
C1458 C 0.90253 0.46475 0.39056 0.0
C1459 C 0.90295 0.45741 0.35599 0.0
C1460 C 0.9049 0.47753 0.26121 0.0
C1461 C 0.90837 0.44013 0.18025 0.0
C1462 C 0.90854 0.44899 0.21817 0.0
C1463 C 0.90759 0.47371 0.3279 0.0
C1464 C 0.90818 0.46539 0.28992 0.0
H1465 H 0.92707 0.40554 0.13016 0.0
H1466 H 0.92764 0.41912 0.18929 0.0
H1467 H 0.90272 0.48029 0.20666 0.0
H1468 H 0.91459 0.52417 0.37708 0.0
H1469 H 0.91551 0.51178 0.31761 0.0
C1470 C 0.5068 0.91296 0.46332 0.0
C1471 C 0.49007 0.90737 0.43543 0.0
C1472 C 0.49936 0.9133 0.49806 0.0
C1473 C 0.44517 0.91131 0.55329 0.0
H1474 H 0.48177 0.90444 0.62857 0.0
C1475 C 0.41644 0.91767 0.6983 0.0
C1476 C 0.4236 0.90751 0.72561 0.0
C1477 C 0.42463 0.91808 0.66384 0.0
C1478 C 0.47082 0.90616 0.60832 0.0
H1479 H 0.45167 0.89769 0.42469 0.0
H1480 H 0.4389 0.89776 0.48332 0.0
H1481 H 0.495 0.9038 0.57024 0.0
H1482 H 0.4458 0.88986 0.73571 0.0
H1483 H 0.45925 0.88993 0.67717 0.0
H1484 H 0.42065 0.91308 0.59122 0.0
C1485 C 0.45812 0.90239 0.47902 0.0
C1486 C 0.47884 0.90612 0.57394 0.0
C1487 C 0.46553 0.90207 0.44454 0.0
C1488 C 0.43945 0.89784 0.71623 0.0
C1489 C 0.44753 0.89813 0.68188 0.0
C1490 C 0.43712 0.91128 0.58764 0.0
C1491 C 0.47471 0.90812 0.50719 0.0
C1492 C 0.46627 0.90858 0.54505 0.0
C1493 C 0.44052 0.90831 0.6543 0.0
C1494 C 0.44956 0.90863 0.61654 0.0
H1495 H 0.52594 0.91747 0.45835 0.0
H1496 H 0.51339 0.91817 0.51775 0.0
H1497 H 0.43464 0.91376 0.53312 0.0
H1498 H 0.40467 0.92577 0.70358 0.0
H1499 H 0.41864 0.9266 0.64475 0.0
C1500 C 0.59503 0.50516 0.80007 0.0
C1501 C 0.5845 0.48819 0.7721 0.0
C1502 C 0.5873 0.4977 0.8348 0.0
C1503 C 0.53721 0.44166 0.89047 0.0
H1504 H 0.5779 0.48276 0.96572 0.0
C1505 C 0.54456 0.44132 1.05464 0.0
C1506 C 0.51978 0.4226 1.0638 0.0
C1507 C 0.55198 0.44913 1.02015 0.0
C1508 C 0.56601 0.47049 0.94556 0.0
H1509 H 0.55699 0.44924 0.7614 0.0
H1510 H 0.54428 0.43641 0.81997 0.0
H1511 H 0.59139 0.49575 0.90751 0.0
H1512 H 0.48346 0.39801 1.04085 0.0
H1513 H 0.49591 0.41138 0.98174 0.0
H1514 H 0.51214 0.4161 0.9285 0.0
C1515 C 0.55831 0.45587 0.81577 0.0
C1516 C 0.57385 0.47837 0.91109 0.0
C1517 C 0.56595 0.46333 0.78125 0.0
C1518 C 0.50281 0.41217 1.03591 0.0
C1519 C 0.51022 0.42005 1.00123 0.0
C1520 C 0.52943 0.43372 0.92494 0.0
C1521 C 0.56855 0.47272 0.84404 0.0
C1522 C 0.55983 0.46425 0.88207 0.0
C1523 C 0.53514 0.43891 0.99196 0.0
C1524 C 0.54353 0.44776 0.95395 0.0
H1525 H 0.60915 0.52453 0.79516 0.0
H1526 H 0.59603 0.51201 0.85437 0.0
H1527 H 0.52496 0.42974 0.87033 0.0
H1528 H 0.55863 0.45027 1.07445 0.0
H1529 H 0.57139 0.46327 1.0159 0.0
C1530 C 0.09189 0.49936 0.36271 0.0
C1531 C 0.10294 0.51656 0.39028 0.0
C1532 C 0.09179 0.50749 0.32845 0.0
C1533 C 0.1064 0.56685 0.2746 0.0
H1534 H 0.09636 0.52281 0.19801 0.0
C1535 C 0.10083 0.59821 0.13093 0.0
C1536 C 0.10573 0.58682 0.1026 0.0
C1537 C 0.10017 0.58994 0.16536 0.0
C1538 C 0.09952 0.53587 0.21862 0.0
H1539 H 0.1226 0.55657 0.4011 0.0
H1540 H 0.12307 0.57049 0.34297 0.0
H1541 H 0.09647 0.50866 0.25569 0.0
H1542 H 0.11385 0.55713 0.09066 0.0
H1543 H 0.1132 0.5434 0.14882 0.0
H1544 H 0.11003 0.59427 0.23742 0.0
C1545 C 0.11389 0.55044 0.34728 0.0
C1546 C 0.09922 0.52736 0.25268 0.0
C1547 C 0.11387 0.54231 0.38139 0.0
C1548 C 0.11002 0.56681 0.1109 0.0
C1549 C 0.10937 0.55858 0.14509 0.0
C1550 C 0.10677 0.57538 0.24051 0.0
C1551 C 0.10277 0.53338 0.31945 0.0
C1552 C 0.10274 0.54255 0.28202 0.0
C1553 C 0.1043 0.56969 0.17368 0.0
C1554 C 0.10346 0.56026 0.21118 0.0
H1555 H 0.08282 0.47935 0.36764 0.0
H1556 H 0.08253 0.4931 0.30908 0.0
H1557 H 0.10881 0.57964 0.29524 0.0
H1558 H 0.09713 0.61345 0.12656 0.0
H1559 H 0.09586 0.59934 0.18543 0.0
loop_
_geom_bond_atom_site_label_1
_geom_bond_atom_site_label_2
_geom_bond_distance
_geom_bond_site_symmetry_2
_ccdc_geom_bond_type
Pr0 C2 2.880 . S
Pr0 O20 2.562 . S
Pr0 O21 2.490 . S
Pr0 O22 2.695 . S
Pr0 O23 2.512 . S
Pr0 O25 2.437 . S
Pr0 O28 2.436 . S
Pr0 O30 2.438 . S
Pr1 C11 2.880 . S
Pr1 O22 2.436 . S
Pr1 O24 2.438 . S
Pr1 O26 2.562 . S
Pr1 O27 2.490 . S
Pr1 O28 2.695 . S
Pr1 O29 2.512 . S
Pr1 O31 2.437 . S
C2 Pr0 2.880 . S
C2 C3 1.491 . S
C2 O20 1.254 . S
C2 O21 1.225 . S
C3 C2 1.491 . S
C3 C4 1.392 . S
C3 C8 1.356 . S
C4 C3 1.392 . S
C4 C5 1.368 . S
C4 H32 0.929 . S
C5 C4 1.368 . S
C5 C6 1.386 . S
C5 H33 0.929 . S
C6 C5 1.386 . S
C6 C7 1.373 . S
C7 C6 1.373 . S
C7 C8 1.409 . S
C7 H34 0.931 . S
C8 C3 1.356 . S
C8 C7 1.409 . S
C8 H35 0.930 . S
C9 O22 1.270 . S
C9 O23 1.248 . S
C10 O24 1.267 . S
C10 O25 1.278 . S
C11 Pr1 2.880 . S
C11 C12 1.491 . S
C11 O26 1.254 . S
C11 O27 1.225 . S
C12 C11 1.491 . S
C12 C13 1.392 . S
C12 C17 1.356 . S
C13 C12 1.392 . S
C13 C14 1.368 . S
C13 H36 0.929 . S
C14 C13 1.368 . S
C14 C15 1.386 . S
C14 H37 0.929 . S
C15 C14 1.386 . S
C15 C16 1.373 . S
C16 C15 1.373 . S
C16 C17 1.409 . S
C16 H38 0.931 . S
C17 C12 1.356 . S
C17 C16 1.409 . S
C17 H39 0.930 . S
C18 O28 1.270 . S
C18 O29 1.248 . S
C19 O30 1.267 . S
C19 O31 1.278 . S
O20 Pr0 2.562 . S
O20 C2 1.254 . S
O21 Pr0 2.490 . S
O21 C2 1.225 . S
O22 Pr0 2.695 . S
O22 Pr1 2.436 . S
O22 C9 1.270 . S
O23 Pr0 2.512 . S
O23 C9 1.248 . S
O24 Pr1 2.438 . S
O24 C10 1.267 . S
O25 Pr0 2.437 . S
O25 C10 1.278 . S
O26 Pr1 2.562 . S
O26 C11 1.254 . S
O27 Pr1 2.490 . S
O27 C11 1.225 . S
O28 Pr0 2.436 . S
O28 Pr1 2.695 . S
O28 C18 1.270 . S
O29 Pr1 2.512 . S
O29 C18 1.248 . S
O30 Pr0 2.438 . S
O30 C19 1.267 . S
O31 Pr1 2.437 . S
O31 C19 1.278 . S
H32 C4 0.929 . S
H33 C5 0.929 . S
H34 C7 0.931 . S
H35 C8 0.930 . S
H36 C13 0.929 . S
H37 C14 0.929 . S
H38 C16 0.931 . S
H39 C17 0.930 . S
Pr40 C42 2.880 . S
Pr40 O60 2.562 . S
Pr40 O61 2.490 . S
Pr40 O62 2.695 . S
Pr40 O63 2.512 . S
Pr40 O65 2.437 . S
Pr40 O68 2.436 . S
Pr40 O70 2.438 . S
Pr41 C51 2.880 . S
Pr41 O62 2.436 . S
Pr41 O64 2.438 . S
Pr41 O66 2.562 . S
Pr41 O67 2.490 . S
Pr41 O68 2.695 . S
Pr41 O69 2.512 . S
Pr41 O71 2.437 . S
C42 Pr40 2.880 . S
C42 C43 1.491 . S
C42 O60 1.254 . S
C42 O61 1.225 . S
C43 C42 1.491 . S
C43 C44 1.392 . S
C43 C48 1.356 . S
C44 C43 1.392 . S
C44 C45 1.368 . S
C44 H72 0.929 . S
C45 C44 1.368 . S
C45 C46 1.386 . S
C45 H73 0.929 . S
C46 C45 1.386 . S
C46 C47 1.373 . S
C47 C46 1.373 . S
C47 C48 1.409 . S
C47 H74 0.931 . S
C48 C43 1.356 . S
C48 C47 1.409 . S
C48 H75 0.930 . S
C49 O62 1.270 . S
C49 O63 1.248 . S
C50 O64 1.267 . S
C50 O65 1.278 . S
C51 Pr41 2.880 . S
C51 C52 1.491 . S
C51 O66 1.254 . S
C51 O67 1.225 . S
C52 C51 1.491 . S
C52 C53 1.392 . S
C52 C57 1.356 . S
C53 C52 1.392 . S
C53 C54 1.368 . S
C53 H76 0.929 . S
C54 C53 1.368 . S
C54 C55 1.386 . S
C54 H77 0.929 . S
C55 C54 1.386 . S
C55 C56 1.373 . S
C56 C55 1.373 . S
C56 C57 1.409 . S
C56 H78 0.931 . S
C57 C52 1.356 . S
C57 C56 1.409 . S
C57 H79 0.930 . S
C58 O68 1.270 . S
C58 O69 1.248 . S
C59 O70 1.267 . S
C59 O71 1.278 . S
O60 Pr40 2.562 . S
O60 C42 1.254 . S
O61 Pr40 2.490 . S
O61 C42 1.225 . S
O62 Pr40 2.695 . S
O62 Pr41 2.436 . S
O62 C49 1.270 . S
O63 Pr40 2.512 . S
O63 C49 1.248 . S
O64 Pr41 2.438 . S
O64 C50 1.267 . S
O65 Pr40 2.437 . S
O65 C50 1.278 . S
O66 Pr41 2.562 . S
O66 C51 1.254 . S
O67 Pr41 2.490 . S
O67 C51 1.225 . S
O68 Pr40 2.436 . S
O68 Pr41 2.695 . S
O68 C58 1.270 . S
O69 Pr41 2.512 . S
O69 C58 1.248 . S
O70 Pr40 2.438 . S
O70 C59 1.267 . S
O71 Pr41 2.437 . S
O71 C59 1.278 . S
H72 C44 0.929 . S
H73 C45 0.929 . S
H74 C47 0.931 . S
H75 C48 0.930 . S
H76 C53 0.929 . S
H77 C54 0.929 . S
H78 C56 0.931 . S
H79 C57 0.930 . S
Pr80 C82 2.880 . S
Pr80 O100 2.562 . S
Pr80 O101 2.490 . S
Pr80 O102 2.695 . S
Pr80 O103 2.512 . S
Pr80 O105 2.437 . S
Pr80 O108 2.436 . S
Pr80 O110 2.438 . S
Pr81 C91 2.880 . S
Pr81 O102 2.436 . S
Pr81 O104 2.438 . S
Pr81 O106 2.562 . S
Pr81 O107 2.490 . S
Pr81 O108 2.695 . S
Pr81 O109 2.512 . S
Pr81 O111 2.437 . S
C82 Pr80 2.880 . S
C82 C83 1.491 1_556 S
C82 O100 1.254 . S
C82 O101 1.225 . S
C83 C82 1.491 1_554 S
C83 C84 1.392 . S
C83 C88 1.356 . S
C84 C83 1.392 . S
C84 C85 1.368 . S
C84 H112 0.929 . S
C85 C84 1.368 . S
C85 C86 1.386 . S
C85 H113 0.929 . S
C86 C85 1.386 . S
C86 C87 1.373 . S
C87 C86 1.373 . S
C87 C88 1.409 . S
C87 H114 0.931 . S
C88 C83 1.356 . S
C88 C87 1.409 . S
C88 H115 0.930 . S
C89 O102 1.270 . S
C89 O103 1.248 . S
C90 O104 1.267 . S
C90 O105 1.278 . S
C91 Pr81 2.880 . S
C91 C92 1.491 . S
C91 O106 1.254 . S
C91 O107 1.225 . S
C92 C91 1.491 . S
C92 C93 1.392 . S
C92 C97 1.356 . S
C93 C92 1.392 . S
C93 C94 1.368 . S
C93 H116 0.929 . S
C94 C93 1.368 . S
C94 C95 1.386 . S
C94 H117 0.929 . S
C95 C94 1.386 . S
C95 C96 1.373 . S
C96 C95 1.373 . S
C96 C97 1.409 . S
C96 H118 0.931 . S
C97 C92 1.356 . S
C97 C96 1.409 . S
C97 H119 0.930 . S
C98 O108 1.270 . S
C98 O109 1.248 . S
C99 O110 1.267 . S
C99 O111 1.278 . S
O100 Pr80 2.562 . S
O100 C82 1.254 . S
O101 Pr80 2.490 . S
O101 C82 1.225 . S
O102 Pr80 2.695 . S
O102 Pr81 2.436 . S
O102 C89 1.270 . S
O103 Pr80 2.512 . S
O103 C89 1.248 . S
O104 Pr81 2.438 . S
O104 C90 1.267 . S
O105 Pr80 2.437 . S
O105 C90 1.278 . S
O106 Pr81 2.562 . S
O106 C91 1.254 . S
O107 Pr81 2.490 . S
O107 C91 1.225 . S
O108 Pr80 2.436 . S
O108 Pr81 2.695 . S
O108 C98 1.270 . S
O109 Pr81 2.512 . S
O109 C98 1.248 . S
O110 Pr80 2.438 . S
O110 C99 1.267 . S
O111 Pr81 2.437 . S
O111 C99 1.278 . S
H112 C84 0.929 . S
H113 C85 0.929 . S
H114 C87 0.931 . S
H115 C88 0.930 . S
H116 C93 0.929 . S
H117 C94 0.929 . S
H118 C96 0.931 . S
H119 C97 0.930 . S
Pr120 C122 2.880 . S
Pr120 O140 2.562 . S
Pr120 O141 2.490 . S
Pr120 O142 2.695 . S
Pr120 O143 2.512 . S
Pr120 O145 2.437 . S
Pr120 O148 2.436 . S
Pr120 O150 2.438 . S
Pr121 C131 2.880 . S
Pr121 O142 2.436 . S
Pr121 O144 2.438 . S
Pr121 O146 2.562 . S
Pr121 O147 2.490 . S
Pr121 O148 2.695 . S
Pr121 O149 2.512 . S
Pr121 O151 2.437 . S
C122 Pr120 2.880 . S
C122 C123 1.491 . S
C122 O140 1.254 . S
C122 O141 1.225 . S
C123 C122 1.491 . S
C123 C124 1.392 . S
C123 C128 1.356 . S
C124 C123 1.392 . S
C124 C125 1.368 . S
C124 H152 0.929 . S
C125 C124 1.368 . S
C125 C126 1.386 . S
C125 H153 0.929 . S
C126 C125 1.386 . S
C126 C127 1.373 . S
C127 C126 1.373 . S
C127 C128 1.409 . S
C127 H154 0.931 . S
C128 C123 1.356 . S
C128 C127 1.409 . S
C128 H155 0.930 . S
C129 O142 1.270 . S
C129 O143 1.248 . S
C130 O144 1.267 . S
C130 O145 1.278 . S
C131 Pr121 2.880 . S
C131 C132 1.491 . S
C131 O146 1.254 . S
C131 O147 1.225 . S
C132 C131 1.491 . S
C132 C133 1.392 . S
C132 C137 1.356 . S
C133 C132 1.392 . S
C133 C134 1.368 . S
C133 H156 0.929 . S
C134 C133 1.368 . S
C134 C135 1.386 . S
C134 H157 0.929 . S
C135 C134 1.386 . S
C135 C136 1.373 . S
C136 C135 1.373 . S
C136 C137 1.409 . S
C136 H158 0.931 . S
C137 C132 1.356 . S
C137 C136 1.409 . S
C137 H159 0.930 . S
C138 O148 1.270 . S
C138 O149 1.248 . S
C139 O150 1.267 . S
C139 O151 1.278 . S
O140 Pr120 2.562 . S
O140 C122 1.254 . S
O141 Pr120 2.490 . S
O141 C122 1.225 . S
O142 Pr120 2.695 . S
O142 Pr121 2.436 . S
O142 C129 1.270 . S
O143 Pr120 2.512 . S
O143 C129 1.248 . S
O144 Pr121 2.438 . S
O144 C130 1.267 . S
O145 Pr120 2.437 . S
O145 C130 1.278 . S
O146 Pr121 2.562 . S
O146 C131 1.254 . S
O147 Pr121 2.490 . S
O147 C131 1.225 . S
O148 Pr120 2.436 . S
O148 Pr121 2.695 . S
O148 C138 1.270 . S
O149 Pr121 2.512 . S
O149 C138 1.248 . S
O150 Pr120 2.438 . S
O150 C139 1.267 . S
O151 Pr121 2.437 . S
O151 C139 1.278 . S
H152 C124 0.929 . S
H153 C125 0.929 . S
H154 C127 0.931 . S
H155 C128 0.930 . S
H156 C133 0.929 . S
H157 C134 0.929 . S
H158 C136 0.931 . S
H159 C137 0.930 . S
Pr160 C162 2.880 . S
Pr160 O180 2.562 . S
Pr160 O181 2.490 . S
Pr160 O182 2.695 . S
Pr160 O183 2.512 . S
Pr160 O185 2.437 . S
Pr160 O188 2.436 . S
Pr160 O190 2.438 . S
Pr161 C171 2.880 . S
Pr161 O182 2.436 . S
Pr161 O184 2.438 . S
Pr161 O186 2.562 . S
Pr161 O187 2.490 . S
Pr161 O188 2.695 . S
Pr161 O189 2.512 . S
Pr161 O191 2.437 . S
C162 Pr160 2.880 . S
C162 C163 1.491 . S
C162 O180 1.254 . S
C162 O181 1.225 . S
C163 C162 1.491 . S
C163 C164 1.392 . S
C163 C168 1.356 . S
C164 C163 1.392 . S
C164 C165 1.368 . S
C164 H192 0.929 . S
C165 C164 1.368 . S
C165 C166 1.386 . S
C165 H193 0.929 . S
C166 C165 1.386 . S
C166 C167 1.373 . S
C167 C166 1.373 . S
C167 C168 1.409 . S
C167 H194 0.931 . S
C168 C163 1.356 . S
C168 C167 1.409 . S
C168 H195 0.930 . S
C169 O182 1.270 . S
C169 O183 1.248 . S
C170 O184 1.267 . S
C170 O185 1.278 . S
C171 Pr161 2.880 . S
C171 C172 1.491 . S
C171 O186 1.254 . S
C171 O187 1.225 . S
C172 C171 1.491 . S
C172 C173 1.392 . S
C172 C177 1.356 . S
C173 C172 1.392 . S
C173 C174 1.368 . S
C173 H196 0.929 . S
C174 C173 1.368 . S
C174 C175 1.386 . S
C174 H197 0.929 . S
C175 C174 1.386 . S
C175 C176 1.373 . S
C176 C175 1.373 . S
C176 C177 1.409 . S
C176 H198 0.931 . S
C177 C172 1.356 . S
C177 C176 1.409 . S
C177 H199 0.930 . S
C178 O188 1.270 . S
C178 O189 1.248 . S
C179 O190 1.267 . S
C179 O191 1.278 . S
O180 Pr160 2.562 . S
O180 C162 1.254 . S
O181 Pr160 2.490 . S
O181 C162 1.225 . S
O182 Pr160 2.695 . S
O182 Pr161 2.436 . S
O182 C169 1.270 . S
O183 Pr160 2.512 . S
O183 C169 1.248 . S
O184 Pr161 2.438 . S
O184 C170 1.267 . S
O185 Pr160 2.437 . S
O185 C170 1.278 . S
O186 Pr161 2.562 . S
O186 C171 1.254 . S
O187 Pr161 2.490 . S
O187 C171 1.225 . S
O188 Pr160 2.436 . S
O188 Pr161 2.695 . S
O188 C178 1.270 . S
O189 Pr161 2.512 . S
O189 C178 1.248 . S
O190 Pr160 2.438 . S
O190 C179 1.267 . S
O191 Pr161 2.437 . S
O191 C179 1.278 . S
H192 C164 0.929 . S
H193 C165 0.929 . S
H194 C167 0.931 . S
H195 C168 0.930 . S
H196 C173 0.929 . S
H197 C174 0.929 . S
H198 C176 0.931 . S
H199 C177 0.930 . S
Pr200 C202 2.880 . S
Pr200 O220 2.562 . S
Pr200 O221 2.490 . S
Pr200 O222 2.695 . S
Pr200 O223 2.512 . S
Pr200 O225 2.437 . S
Pr200 O228 2.436 . S
Pr200 O230 2.438 . S
Pr201 C211 2.880 . S
Pr201 O222 2.436 . S
Pr201 O224 2.438 . S
Pr201 O226 2.562 . S
Pr201 O227 2.490 . S
Pr201 O228 2.695 . S
Pr201 O229 2.512 . S
Pr201 O231 2.437 . S
C202 Pr200 2.880 . S
C202 C203 1.491 1_556 S
C202 O220 1.254 . S
C202 O221 1.225 . S
C203 C202 1.491 1_554 S
C203 C204 1.392 . S
C203 C208 1.356 . S
C204 C203 1.392 . S
C204 C205 1.368 . S
C204 H232 0.929 . S
C205 C204 1.368 . S
C205 C206 1.386 . S
C205 H233 0.929 . S
C206 C205 1.386 . S
C206 C207 1.373 . S
C207 C206 1.373 . S
C207 C208 1.409 . S
C207 H234 0.931 . S
C208 C203 1.356 . S
C208 C207 1.409 . S
C208 H235 0.930 . S
C209 O222 1.270 . S
C209 O223 1.248 . S
C210 O224 1.267 . S
C210 O225 1.278 . S
C211 Pr201 2.880 . S
C211 C212 1.491 . S
C211 O226 1.254 . S
C211 O227 1.225 . S
C212 C211 1.491 . S
C212 C213 1.392 . S
C212 C217 1.356 . S
C213 C212 1.392 . S
C213 C214 1.368 . S
C213 H236 0.929 . S
C214 C213 1.368 . S
C214 C215 1.386 . S
C214 H237 0.929 . S
C215 C214 1.386 . S
C215 C216 1.373 . S
C216 C215 1.373 . S
C216 C217 1.409 . S
C216 H238 0.931 . S
C217 C212 1.356 . S
C217 C216 1.409 . S
C217 H239 0.930 . S
C218 O228 1.270 . S
C218 O229 1.248 . S
C219 O230 1.267 . S
C219 O231 1.278 . S
O220 Pr200 2.562 . S
O220 C202 1.254 . S
O221 Pr200 2.490 . S
O221 C202 1.225 . S
O222 Pr200 2.695 . S
O222 Pr201 2.436 . S
O222 C209 1.270 . S
O223 Pr200 2.512 . S
O223 C209 1.248 . S
O224 Pr201 2.438 . S
O224 C210 1.267 . S
O225 Pr200 2.437 . S
O225 C210 1.278 . S
O226 Pr201 2.562 . S
O226 C211 1.254 . S
O227 Pr201 2.490 . S
O227 C211 1.225 . S
O228 Pr200 2.436 . S
O228 Pr201 2.695 . S
O228 C218 1.270 . S
O229 Pr201 2.512 . S
O229 C218 1.248 . S
O230 Pr200 2.438 . S
O230 C219 1.267 . S
O231 Pr201 2.437 . S
O231 C219 1.278 . S
H232 C204 0.929 . S
H233 C205 0.929 . S
H234 C207 0.931 . S
H235 C208 0.930 . S
H236 C213 0.929 . S
H237 C214 0.929 . S
H238 C216 0.931 . S
H239 C217 0.930 . S
Pr240 C242 2.880 . S
Pr240 O260 2.562 . S
Pr240 O261 2.490 . S
Pr240 O262 2.695 . S
Pr240 O263 2.512 . S
Pr240 O265 2.437 . S
Pr240 O268 2.436 . S
Pr240 O270 2.438 . S
Pr241 C251 2.880 . S
Pr241 O262 2.436 . S
Pr241 O264 2.438 . S
Pr241 O266 2.562 . S
Pr241 O267 2.490 . S
Pr241 O268 2.695 . S
Pr241 O269 2.512 . S
Pr241 O271 2.437 . S
C242 Pr240 2.880 . S
C242 C243 1.491 . S
C242 O260 1.254 . S
C242 O261 1.225 . S
C243 C242 1.491 . S
C243 C244 1.392 . S
C243 C248 1.356 . S
C244 C243 1.392 . S
C244 C245 1.368 . S
C244 H272 0.929 . S
C245 C244 1.368 . S
C245 C246 1.386 . S
C245 H273 0.929 . S
C246 C245 1.386 . S
C246 C247 1.373 . S
C247 C246 1.373 . S
C247 C248 1.409 . S
C247 H274 0.931 . S
C248 C243 1.356 . S
C248 C247 1.409 . S
C248 H275 0.930 . S
C249 O262 1.270 . S
C249 O263 1.248 . S
C250 O264 1.267 . S
C250 O265 1.278 . S
C251 Pr241 2.880 . S
C251 C252 1.491 . S
C251 O266 1.254 . S
C251 O267 1.225 . S
C252 C251 1.491 . S
C252 C253 1.392 . S
C252 C257 1.356 . S
C253 C252 1.392 . S
C253 C254 1.368 . S
C253 H276 0.929 . S
C254 C253 1.368 . S
C254 C255 1.386 . S
C254 H277 0.929 . S
C255 C254 1.386 . S
C255 C256 1.373 . S
C256 C255 1.373 . S
C256 C257 1.409 . S
C256 H278 0.931 . S
C257 C252 1.356 . S
C257 C256 1.409 . S
C257 H279 0.930 . S
C258 O268 1.270 . S
C258 O269 1.248 . S
C259 O270 1.267 . S
C259 O271 1.278 . S
O260 Pr240 2.562 . S
O260 C242 1.254 . S
O261 Pr240 2.490 . S
O261 C242 1.225 . S
O262 Pr240 2.695 . S
O262 Pr241 2.436 . S
O262 C249 1.270 . S
O263 Pr240 2.512 . S
O263 C249 1.248 . S
O264 Pr241 2.438 . S
O264 C250 1.267 . S
O265 Pr240 2.437 . S
O265 C250 1.278 . S
O266 Pr241 2.562 . S
O266 C251 1.254 . S
O267 Pr241 2.490 . S
O267 C251 1.225 . S
O268 Pr240 2.436 . S
O268 Pr241 2.695 . S
O268 C258 1.270 . S
O269 Pr241 2.512 . S
O269 C258 1.248 . S
O270 Pr240 2.438 . S
O270 C259 1.267 . S
O271 Pr241 2.437 . S
O271 C259 1.278 . S
H272 C244 0.929 . S
H273 C245 0.929 . S
H274 C247 0.931 . S
H275 C248 0.930 . S
H276 C253 0.929 . S
H277 C254 0.929 . S
H278 C256 0.931 . S
H279 C257 0.930 . S
Pr280 C282 2.880 . S
Pr280 O300 2.562 . S
Pr280 O301 2.490 . S
Pr280 O302 2.695 . S
Pr280 O303 2.512 . S
Pr280 O305 2.437 . S
Pr280 O308 2.436 . S
Pr280 O310 2.438 . S
Pr281 C291 2.880 . S
Pr281 O302 2.436 . S
Pr281 O304 2.438 . S
Pr281 O306 2.562 . S
Pr281 O307 2.490 . S
Pr281 O308 2.695 . S
Pr281 O309 2.512 . S
Pr281 O311 2.437 . S
C282 Pr280 2.880 . S
C282 C283 1.491 . S
C282 O300 1.254 . S
C282 O301 1.225 . S
C283 C282 1.491 . S
C283 C284 1.392 . S
C283 C288 1.356 . S
C284 C283 1.392 . S
C284 C285 1.368 . S
C284 H312 0.929 . S
C285 C284 1.368 . S
C285 C286 1.386 . S
C285 H313 0.929 . S
C286 C285 1.386 . S
C286 C287 1.373 . S
C287 C286 1.373 . S
C287 C288 1.409 . S
C287 H314 0.931 . S
C288 C283 1.356 . S
C288 C287 1.409 . S
C288 H315 0.930 . S
C289 O302 1.270 . S
C289 O303 1.248 . S
C290 O304 1.267 . S
C290 O305 1.278 . S
C291 Pr281 2.880 . S
C291 C292 1.491 . S
C291 O306 1.254 . S
C291 O307 1.225 . S
C292 C291 1.491 . S
C292 C293 1.392 . S
C292 C297 1.356 . S
C293 C292 1.392 . S
C293 C294 1.368 . S
C293 H316 0.929 . S
C294 C293 1.368 . S
C294 C295 1.386 . S
C294 H317 0.929 . S
C295 C294 1.386 . S
C295 C296 1.373 . S
C296 C295 1.373 . S
C296 C297 1.409 . S
C296 H318 0.931 . S
C297 C292 1.356 . S
C297 C296 1.409 . S
C297 H319 0.930 . S
C298 O308 1.270 . S
C298 O309 1.248 . S
C299 O310 1.267 . S
C299 O311 1.278 . S
O300 Pr280 2.562 . S
O300 C282 1.254 . S
O301 Pr280 2.490 . S
O301 C282 1.225 . S
O302 Pr280 2.695 . S
O302 Pr281 2.436 . S
O302 C289 1.270 . S
O303 Pr280 2.512 . S
O303 C289 1.248 . S
O304 Pr281 2.438 . S
O304 C290 1.267 . S
O305 Pr280 2.437 . S
O305 C290 1.278 . S
O306 Pr281 2.562 . S
O306 C291 1.254 . S
O307 Pr281 2.490 . S
O307 C291 1.225 . S
O308 Pr280 2.436 . S
O308 Pr281 2.695 . S
O308 C298 1.270 . S
O309 Pr281 2.512 . S
O309 C298 1.248 . S
O310 Pr280 2.438 . S
O310 C299 1.267 . S
O311 Pr281 2.437 . S
O311 C299 1.278 . S
H312 C284 0.929 . S
H313 C285 0.929 . S
H314 C287 0.931 . S
H315 C288 0.930 . S
H316 C293 0.929 . S
H317 C294 0.929 . S
H318 C296 0.931 . S
H319 C297 0.930 . S
Pr320 C322 2.880 . S
Pr320 O340 2.562 . S
Pr320 O341 2.490 . S
Pr320 O342 2.695 . S
Pr320 O343 2.512 . S
Pr320 O345 2.437 . S
Pr320 O348 2.436 . S
Pr320 O350 2.438 . S
Pr321 C331 2.880 . S
Pr321 O342 2.436 . S
Pr321 O344 2.438 . S
Pr321 O346 2.562 . S
Pr321 O347 2.490 . S
Pr321 O348 2.695 . S
Pr321 O349 2.512 . S
Pr321 O351 2.437 . S
C322 Pr320 2.880 . S
C322 C323 1.491 1_554 S
C322 O340 1.254 . S
C322 O341 1.225 . S
C323 C322 1.491 1_556 S
C323 C324 1.392 . S
C323 C328 1.356 . S
C324 C323 1.392 . S
C324 C325 1.368 . S
C324 H352 0.929 . S
C325 C324 1.368 . S
C325 C326 1.386 . S
C325 H353 0.929 . S
C326 C325 1.386 . S
C326 C327 1.373 . S
C327 C326 1.373 . S
C327 C328 1.409 . S
C327 H354 0.931 . S
C328 C323 1.356 . S
C328 C327 1.409 . S
C328 H355 0.930 . S
C329 O342 1.270 . S
C329 O343 1.248 . S
C330 O344 1.267 . S
C330 O345 1.278 . S
C331 Pr321 2.880 . S
C331 C332 1.491 . S
C331 O346 1.254 . S
C331 O347 1.225 . S
C332 C331 1.491 . S
C332 C333 1.392 . S
C332 C337 1.356 . S
C333 C332 1.392 . S
C333 C334 1.368 . S
C333 H356 0.929 . S
C334 C333 1.368 . S
C334 C335 1.386 . S
C334 H357 0.929 . S
C335 C334 1.386 . S
C335 C336 1.373 . S
C336 C335 1.373 . S
C336 C337 1.409 . S
C336 H358 0.931 . S
C337 C332 1.356 . S
C337 C336 1.409 . S
C337 H359 0.930 . S
C338 O348 1.270 . S
C338 O349 1.248 . S
C339 O350 1.267 . S
C339 O351 1.278 . S
O340 Pr320 2.562 . S
O340 C322 1.254 . S
O341 Pr320 2.490 . S
O341 C322 1.225 . S
O342 Pr320 2.695 . S
O342 Pr321 2.436 . S
O342 C329 1.270 . S
O343 Pr320 2.512 . S
O343 C329 1.248 . S
O344 Pr321 2.438 . S
O344 C330 1.267 . S
O345 Pr320 2.437 . S
O345 C330 1.278 . S
O346 Pr321 2.562 . S
O346 C331 1.254 . S
O347 Pr321 2.490 . S
O347 C331 1.225 . S
O348 Pr320 2.436 . S
O348 Pr321 2.695 . S
O348 C338 1.270 . S
O349 Pr321 2.512 . S
O349 C338 1.248 . S
O350 Pr320 2.438 . S
O350 C339 1.267 . S
O351 Pr321 2.437 . S
O351 C339 1.278 . S
H352 C324 0.929 . S
H353 C325 0.929 . S
H354 C327 0.931 . S
H355 C328 0.930 . S
H356 C333 0.929 . S
H357 C334 0.929 . S
H358 C336 0.931 . S
H359 C337 0.930 . S
Pr360 C362 2.880 . S
Pr360 O380 2.562 . S
Pr360 O381 2.490 . S
Pr360 O382 2.695 . S
Pr360 O383 2.512 . S
Pr360 O385 2.437 . S
Pr360 O388 2.436 . S
Pr360 O390 2.438 . S
Pr361 C371 2.880 . S
Pr361 O382 2.436 . S
Pr361 O384 2.438 . S
Pr361 O386 2.562 . S
Pr361 O387 2.490 . S
Pr361 O388 2.695 . S
Pr361 O389 2.512 . S
Pr361 O391 2.437 . S
C362 Pr360 2.880 . S
C362 C363 1.491 . S
C362 O380 1.254 . S
C362 O381 1.225 . S
C363 C362 1.491 . S
C363 C364 1.392 . S
C363 C368 1.356 . S
C364 C363 1.392 . S
C364 C365 1.368 . S
C364 H392 0.929 . S
C365 C364 1.368 . S
C365 C366 1.386 . S
C365 H393 0.929 . S
C366 C365 1.386 . S
C366 C367 1.373 . S
C367 C366 1.373 . S
C367 C368 1.409 . S
C367 H394 0.931 . S
C368 C363 1.356 . S
C368 C367 1.409 . S
C368 H395 0.930 . S
C369 O382 1.270 . S
C369 O383 1.248 . S
C370 O384 1.267 . S
C370 O385 1.278 . S
C371 Pr361 2.880 . S
C371 C372 1.491 . S
C371 O386 1.254 . S
C371 O387 1.225 . S
C372 C371 1.491 . S
C372 C373 1.392 . S
C372 C377 1.356 . S
C373 C372 1.392 . S
C373 C374 1.368 . S
C373 H396 0.929 . S
C374 C373 1.368 . S
C374 C375 1.386 . S
C374 H397 0.929 . S
C375 C374 1.386 . S
C375 C376 1.373 . S
C376 C375 1.373 . S
C376 C377 1.409 . S
C376 H398 0.931 . S
C377 C372 1.356 . S
C377 C376 1.409 . S
C377 H399 0.930 . S
C378 O388 1.270 . S
C378 O389 1.248 . S
C379 O390 1.267 . S
C379 O391 1.278 . S
O380 Pr360 2.562 . S
O380 C362 1.254 . S
O381 Pr360 2.490 . S
O381 C362 1.225 . S
O382 Pr360 2.695 . S
O382 Pr361 2.436 . S
O382 C369 1.270 . S
O383 Pr360 2.512 . S
O383 C369 1.248 . S
O384 Pr361 2.438 . S
O384 C370 1.267 . S
O385 Pr360 2.437 . S
O385 C370 1.278 . S
O386 Pr361 2.562 . S
O386 C371 1.254 . S
O387 Pr361 2.490 . S
O387 C371 1.225 . S
O388 Pr360 2.436 . S
O388 Pr361 2.695 . S
O388 C378 1.270 . S
O389 Pr361 2.512 . S
O389 C378 1.248 . S
O390 Pr360 2.438 . S
O390 C379 1.267 . S
O391 Pr361 2.437 . S
O391 C379 1.278 . S
H392 C364 0.929 . S
H393 C365 0.929 . S
H394 C367 0.931 . S
H395 C368 0.930 . S
H396 C373 0.929 . S
H397 C374 0.929 . S
H398 C376 0.931 . S
H399 C377 0.930 . S
Pr400 C402 2.880 . S
Pr400 O420 2.562 . S
Pr400 O421 2.490 . S
Pr400 O422 2.695 . S
Pr400 O423 2.512 . S
Pr400 O425 2.437 . S
Pr400 O428 2.436 . S
Pr400 O430 2.438 . S
Pr401 C411 2.880 . S
Pr401 O422 2.436 . S
Pr401 O424 2.438 . S
Pr401 O426 2.562 . S
Pr401 O427 2.490 . S
Pr401 O428 2.695 . S
Pr401 O429 2.512 . S
Pr401 O431 2.437 . S
C402 Pr400 2.880 . S
C402 C403 1.491 . S
C402 O420 1.254 . S
C402 O421 1.225 . S
C403 C402 1.491 . S
C403 C404 1.392 . S
C403 C408 1.356 . S
C404 C403 1.392 . S
C404 C405 1.368 . S
C404 H432 0.929 . S
C405 C404 1.368 . S
C405 C406 1.386 . S
C405 H433 0.929 . S
C406 C405 1.386 . S
C406 C407 1.373 . S
C407 C406 1.373 . S
C407 C408 1.409 . S
C407 H434 0.931 . S
C408 C403 1.356 . S
C408 C407 1.409 . S
C408 H435 0.930 . S
C409 O422 1.270 . S
C409 O423 1.248 . S
C410 O424 1.267 . S
C410 O425 1.278 . S
C411 Pr401 2.880 . S
C411 C412 1.491 . S
C411 O426 1.254 . S
C411 O427 1.225 . S
C412 C411 1.491 . S
C412 C413 1.392 . S
C412 C417 1.356 . S
C413 C412 1.392 . S
C413 C414 1.368 . S
C413 H436 0.929 . S
C414 C413 1.368 . S
C414 C415 1.386 . S
C414 H437 0.929 . S
C415 C414 1.386 . S
C415 C416 1.373 . S
C416 C415 1.373 . S
C416 C417 1.409 . S
C416 H438 0.931 . S
C417 C412 1.356 . S
C417 C416 1.409 . S
C417 H439 0.930 . S
C418 O428 1.270 . S
C418 O429 1.248 . S
C419 O430 1.267 . S
C419 O431 1.278 . S
O420 Pr400 2.562 . S
O420 C402 1.254 . S
O421 Pr400 2.490 . S
O421 C402 1.225 . S
O422 Pr400 2.695 . S
O422 Pr401 2.436 . S
O422 C409 1.270 . S
O423 Pr400 2.512 . S
O423 C409 1.248 . S
O424 Pr401 2.438 . S
O424 C410 1.267 . S
O425 Pr400 2.437 . S
O425 C410 1.278 . S
O426 Pr401 2.562 . S
O426 C411 1.254 . S
O427 Pr401 2.490 . S
O427 C411 1.225 . S
O428 Pr400 2.436 . S
O428 Pr401 2.695 . S
O428 C418 1.270 . S
O429 Pr401 2.512 . S
O429 C418 1.248 . S
O430 Pr400 2.438 . S
O430 C419 1.267 . S
O431 Pr401 2.437 . S
O431 C419 1.278 . S
H432 C404 0.929 . S
H433 C405 0.929 . S
H434 C407 0.931 . S
H435 C408 0.930 . S
H436 C413 0.929 . S
H437 C414 0.929 . S
H438 C416 0.931 . S
H439 C417 0.930 . S
Pr440 C442 2.880 . S
Pr440 O460 2.562 . S
Pr440 O461 2.490 . S
Pr440 O462 2.695 . S
Pr440 O463 2.512 . S
Pr440 O465 2.437 . S
Pr440 O468 2.436 . S
Pr440 O470 2.438 . S
Pr441 C451 2.880 . S
Pr441 O462 2.436 . S
Pr441 O464 2.438 . S
Pr441 O466 2.562 . S
Pr441 O467 2.490 . S
Pr441 O468 2.695 . S
Pr441 O469 2.512 . S
Pr441 O471 2.437 . S
C442 Pr440 2.880 . S
C442 C443 1.491 1_554 S
C442 O460 1.254 . S
C442 O461 1.225 . S
C443 C442 1.491 1_556 S
C443 C444 1.392 . S
C443 C448 1.356 . S
C444 C443 1.392 . S
C444 C445 1.368 . S
C444 H472 0.929 . S
C445 C444 1.368 . S
C445 C446 1.386 . S
C445 H473 0.929 . S
C446 C445 1.386 . S
C446 C447 1.373 . S
C447 C446 1.373 . S
C447 C448 1.409 . S
C447 H474 0.931 . S
C448 C443 1.356 . S
C448 C447 1.409 . S
C448 H475 0.930 . S
C449 O462 1.270 . S
C449 O463 1.248 . S
C450 O464 1.267 . S
C450 O465 1.278 . S
C451 Pr441 2.880 . S
C451 C452 1.491 . S
C451 O466 1.254 . S
C451 O467 1.225 . S
C452 C451 1.491 . S
C452 C453 1.392 . S
C452 C457 1.356 . S
C453 C452 1.392 . S
C453 C454 1.368 . S
C453 H476 0.929 . S
C454 C453 1.368 . S
C454 C455 1.386 . S
C454 H477 0.929 . S
C455 C454 1.386 . S
C455 C456 1.373 . S
C456 C455 1.373 . S
C456 C457 1.409 . S
C456 H478 0.931 . S
C457 C452 1.356 . S
C457 C456 1.409 . S
C457 H479 0.930 . S
C458 O468 1.270 . S
C458 O469 1.248 . S
C459 O470 1.267 . S
C459 O471 1.278 . S
O460 Pr440 2.562 . S
O460 C442 1.254 . S
O461 Pr440 2.490 . S
O461 C442 1.225 . S
O462 Pr440 2.695 . S
O462 Pr441 2.436 . S
O462 C449 1.270 . S
O463 Pr440 2.512 . S
O463 C449 1.248 . S
O464 Pr441 2.438 . S
O464 C450 1.267 . S
O465 Pr440 2.437 . S
O465 C450 1.278 . S
O466 Pr441 2.562 . S
O466 C451 1.254 . S
O467 Pr441 2.490 . S
O467 C451 1.225 . S
O468 Pr440 2.436 . S
O468 Pr441 2.695 . S
O468 C458 1.270 . S
O469 Pr441 2.512 . S
O469 C458 1.248 . S
O470 Pr440 2.438 . S
O470 C459 1.267 . S
O471 Pr441 2.437 . S
O471 C459 1.278 . S
H472 C444 0.929 . S
H473 C445 0.929 . S
H474 C447 0.931 . S
H475 C448 0.930 . S
H476 C453 0.929 . S
H477 C454 0.929 . S
H478 C456 0.931 . S
H479 C457 0.930 . S
C480 C481 1.349 . S
C480 C482 1.327 . S
C480 H505 0.950 . S
C481 C480 1.349 . S
C481 C497 1.349 . S
C482 C480 1.327 . S
C482 C501 1.429 . S
C482 H506 0.950 . S
C483 C500 1.574 . S
C483 C502 1.368 . S
C483 H507 0.949 . S
H484 C488 0.949 . S
C485 C486 1.349 . S
C485 C487 1.327 . S
C485 H508 0.950 . S
C486 C485 1.349 . S
C486 C498 1.349 . S
C487 C485 1.327 . S
C487 C503 1.429 . S
C487 H509 0.950 . S
C488 H484 0.949 . S
C488 C496 1.574 . S
C488 C504 1.368 . S
H489 C497 0.950 . S
H490 C495 0.950 . S
H491 C496 0.949 . S
H492 C498 0.950 . S
H493 C499 0.950 . S
H494 C500 0.949 . S
C495 H490 0.950 . S
C495 C497 1.327 . S
C495 C501 1.429 . S
C496 C488 1.574 . S
C496 H491 0.949 . S
C496 C502 1.368 . S
C497 C481 1.349 . S
C497 H489 0.950 . S
C497 C495 1.327 . S
C498 C486 1.349 . S
C498 H492 0.950 . S
C498 C499 1.327 . S
C499 H493 0.950 . S
C499 C498 1.327 . S
C499 C503 1.429 . S
C500 C483 1.574 . S
C500 H494 0.949 . S
C500 C504 1.368 . S
C501 C482 1.429 . S
C501 C495 1.429 . S
C501 C502 1.523 . S
C502 C483 1.368 . S
C502 C496 1.368 . S
C502 C501 1.523 . S
C503 C487 1.429 . S
C503 C499 1.429 . S
C503 C504 1.523 . S
C504 C488 1.368 . S
C504 C500 1.368 . S
C504 C503 1.523 . S
H505 C480 0.950 . S
H506 C482 0.950 . S
H507 C483 0.949 . S
H508 C485 0.950 . S
H509 C487 0.950 . S
C510 C511 1.349 . S
C510 C512 1.327 . S
C510 H535 0.950 . S
C511 C510 1.349 . S
C511 C527 1.349 . S
C512 C510 1.327 . S
C512 C531 1.429 . S
C512 H536 0.950 . S
C513 C530 1.574 . S
C513 C532 1.368 . S
C513 H537 0.949 . S
H514 C518 0.949 . S
C515 C516 1.349 . S
C515 C517 1.327 . S
C515 H538 0.950 . S
C516 C515 1.349 . S
C516 C528 1.349 . S
C517 C515 1.327 . S
C517 C533 1.429 . S
C517 H539 0.950 . S
C518 H514 0.949 . S
C518 C526 1.574 . S
C518 C534 1.368 . S
H519 C527 0.950 . S
H520 C525 0.950 . S
H521 C526 0.949 . S
H522 C528 0.950 . S
H523 C529 0.950 . S
H524 C530 0.949 . S
C525 H520 0.950 . S
C525 C527 1.327 . S
C525 C531 1.429 . S
C526 C518 1.574 . S
C526 H521 0.949 . S
C526 C532 1.368 . S
C527 C511 1.349 . S
C527 H519 0.950 . S
C527 C525 1.327 . S
C528 C516 1.349 . S
C528 H522 0.950 . S
C528 C529 1.327 . S
C529 H523 0.950 . S
C529 C528 1.327 . S
C529 C533 1.429 . S
C530 C513 1.574 . S
C530 H524 0.949 . S
C530 C534 1.368 . S
C531 C512 1.429 . S
C531 C525 1.429 . S
C531 C532 1.523 . S
C532 C513 1.368 . S
C532 C526 1.368 . S
C532 C531 1.523 . S
C533 C517 1.429 . S
C533 C529 1.429 . S
C533 C534 1.523 . S
C534 C518 1.368 . S
C534 C530 1.368 . S
C534 C533 1.523 . S
H535 C510 0.950 . S
H536 C512 0.950 . S
H537 C513 0.949 . S
H538 C515 0.950 . S
H539 C517 0.950 . S
C540 C541 1.349 . S
C540 C542 1.327 . S
C540 H565 0.950 . S
C541 C540 1.349 . S
C541 C557 1.349 . S
C542 C540 1.327 . S
C542 C561 1.429 . S
C542 H566 0.950 . S
C543 C560 1.574 . S
C543 C562 1.368 . S
C543 H567 0.949 . S
H544 C548 0.949 . S
C545 C546 1.349 . S
C545 C547 1.327 . S
C545 H568 0.950 . S
C546 C545 1.349 . S
C546 C558 1.349 . S
C547 C545 1.327 . S
C547 C563 1.429 . S
C547 H569 0.950 . S
C548 H544 0.949 . S
C548 C556 1.574 . S
C548 C564 1.368 . S
H549 C557 0.950 . S
H550 C555 0.950 . S
H551 C556 0.949 . S
H552 C558 0.950 . S
H553 C559 0.950 . S
H554 C560 0.949 . S
C555 H550 0.950 . S
C555 C557 1.327 . S
C555 C561 1.429 . S
C556 C548 1.574 . S
C556 H551 0.949 . S
C556 C562 1.368 . S
C557 C541 1.349 . S
C557 H549 0.950 . S
C557 C555 1.327 . S
C558 C546 1.349 . S
C558 H552 0.950 . S
C558 C559 1.327 . S
C559 H553 0.950 . S
C559 C558 1.327 . S
C559 C563 1.429 . S
C560 C543 1.574 . S
C560 H554 0.949 . S
C560 C564 1.368 . S
C561 C542 1.429 . S
C561 C555 1.429 . S
C561 C562 1.523 . S
C562 C543 1.368 . S
C562 C556 1.368 . S
C562 C561 1.523 . S
C563 C547 1.429 . S
C563 C559 1.429 . S
C563 C564 1.523 . S
C564 C548 1.368 . S
C564 C560 1.368 . S
C564 C563 1.523 . S
H565 C540 0.950 . S
H566 C542 0.950 . S
H567 C543 0.949 . S
H568 C545 0.950 . S
H569 C547 0.950 . S
C570 C571 1.349 . S
C570 C572 1.327 . S
C570 H595 0.950 . S
C571 C570 1.349 . S
C571 C587 1.349 . S
C572 C570 1.327 . S
C572 C591 1.429 . S
C572 H596 0.950 . S
C573 C590 1.574 . S
C573 C592 1.368 . S
C573 H597 0.949 . S
H574 C578 0.949 . S
C575 C576 1.349 . S
C575 C577 1.327 . S
C575 H598 0.950 . S
C576 C575 1.349 . S
C576 C588 1.349 . S
C577 C575 1.327 . S
C577 C593 1.429 . S
C577 H599 0.950 . S
C578 H574 0.949 . S
C578 C586 1.574 . S
C578 C594 1.368 . S
H579 C587 0.950 . S
H580 C585 0.950 . S
H581 C586 0.949 . S
H582 C588 0.950 . S
H583 C589 0.950 . S
H584 C590 0.949 . S
C585 H580 0.950 . S
C585 C587 1.327 . S
C585 C591 1.429 . S
C586 C578 1.574 . S
C586 H581 0.949 . S
C586 C592 1.368 . S
C587 C571 1.349 . S
C587 H579 0.950 . S
C587 C585 1.327 . S
C588 C576 1.349 . S
C588 H582 0.950 . S
C588 C589 1.327 . S
C589 H583 0.950 . S
C589 C588 1.327 . S
C589 C593 1.429 . S
C590 C573 1.574 . S
C590 H584 0.949 . S
C590 C594 1.368 . S
C591 C572 1.429 . S
C591 C585 1.429 . S
C591 C592 1.523 . S
C592 C573 1.368 . S
C592 C586 1.368 . S
C592 C591 1.523 . S
C593 C577 1.429 . S
C593 C589 1.429 . S
C593 C594 1.523 . S
C594 C578 1.368 . S
C594 C590 1.368 . S
C594 C593 1.523 . S
H595 C570 0.950 . S
H596 C572 0.950 . S
H597 C573 0.949 . S
H598 C575 0.950 . S
H599 C577 0.950 . S
C600 C601 1.349 . S
C600 C602 1.327 . S
C600 H625 0.950 . S
C601 C600 1.349 . S
C601 C617 1.349 . S
C602 C600 1.327 . S
C602 C621 1.429 . S
C602 H626 0.950 . S
C603 C620 1.574 . S
C603 C622 1.368 . S
C603 H627 0.949 . S
H604 C608 0.949 . S
C605 C606 1.349 . S
C605 C607 1.327 . S
C605 H628 0.950 . S
C606 C605 1.349 . S
C606 C618 1.349 . S
C607 C605 1.327 . S
C607 C623 1.429 . S
C607 H629 0.950 . S
C608 H604 0.949 . S
C608 C616 1.574 . S
C608 C624 1.368 . S
H609 C617 0.950 . S
H610 C615 0.950 . S
H611 C616 0.949 . S
H612 C618 0.950 . S
H613 C619 0.950 . S
H614 C620 0.949 . S
C615 H610 0.950 . S
C615 C617 1.327 . S
C615 C621 1.429 . S
C616 C608 1.574 . S
C616 H611 0.949 . S
C616 C622 1.368 . S
C617 C601 1.349 . S
C617 H609 0.950 . S
C617 C615 1.327 . S
C618 C606 1.349 . S
C618 H612 0.950 . S
C618 C619 1.327 . S
C619 H613 0.950 . S
C619 C618 1.327 . S
C619 C623 1.429 . S
C620 C603 1.574 . S
C620 H614 0.949 . S
C620 C624 1.368 . S
C621 C602 1.429 . S
C621 C615 1.429 . S
C621 C622 1.523 . S
C622 C603 1.368 . S
C622 C616 1.368 . S
C622 C621 1.523 . S
C623 C607 1.429 . S
C623 C619 1.429 . S
C623 C624 1.523 . S
C624 C608 1.368 . S
C624 C620 1.368 . S
C624 C623 1.523 . S
H625 C600 0.950 . S
H626 C602 0.950 . S
H627 C603 0.949 . S
H628 C605 0.950 . S
H629 C607 0.950 . S
C630 C631 1.349 . S
C630 C632 1.327 . S
C630 H655 0.950 . S
C631 C630 1.349 . S
C631 C647 1.349 . S
C632 C630 1.327 . S
C632 C651 1.429 . S
C632 H656 0.950 . S
C633 C650 1.574 . S
C633 C652 1.368 . S
C633 H657 0.949 . S
H634 C638 0.949 . S
C635 C636 1.349 . S
C635 C637 1.327 . S
C635 H658 0.950 . S
C636 C635 1.349 . S
C636 C648 1.349 . S
C637 C635 1.327 . S
C637 C653 1.429 . S
C637 H659 0.950 . S
C638 H634 0.949 . S
C638 C646 1.574 . S
C638 C654 1.368 . S
H639 C647 0.950 . S
H640 C645 0.950 . S
H641 C646 0.949 . S
H642 C648 0.950 . S
H643 C649 0.950 . S
H644 C650 0.949 . S
C645 H640 0.950 . S
C645 C647 1.327 . S
C645 C651 1.429 . S
C646 C638 1.574 . S
C646 H641 0.949 . S
C646 C652 1.368 . S
C647 C631 1.349 . S
C647 H639 0.950 . S
C647 C645 1.327 . S
C648 C636 1.349 . S
C648 H642 0.950 . S
C648 C649 1.327 . S
C649 H643 0.950 . S
C649 C648 1.327 . S
C649 C653 1.429 . S
C650 C633 1.574 . S
C650 H644 0.949 . S
C650 C654 1.368 . S
C651 C632 1.429 . S
C651 C645 1.429 . S
C651 C652 1.523 . S
C652 C633 1.368 . S
C652 C646 1.368 . S
C652 C651 1.523 . S
C653 C637 1.429 . S
C653 C649 1.429 . S
C653 C654 1.523 . S
C654 C638 1.368 . S
C654 C650 1.368 . S
C654 C653 1.523 . S
H655 C630 0.950 . S
H656 C632 0.950 . S
H657 C633 0.949 . S
H658 C635 0.950 . S
H659 C637 0.950 . S
C660 C661 1.349 . S
C660 C662 1.327 . S
C660 H685 0.950 . S
C661 C660 1.349 . S
C661 C677 1.349 . S
C662 C660 1.327 . S
C662 C681 1.429 . S
C662 H686 0.950 . S
C663 C680 1.574 1_556 S
C663 C682 1.368 . S
C663 H687 0.949 . S
H664 C668 0.949 . S
C665 C666 1.349 . S
C665 C667 1.327 . S
C665 H688 0.950 . S
C666 C665 1.349 . S
C666 C678 1.349 . S
C667 C665 1.327 . S
C667 C683 1.429 . S
C667 H689 0.950 . S
C668 H664 0.949 . S
C668 C676 1.574 1_554 S
C668 C684 1.368 . S
H669 C677 0.950 . S
H670 C675 0.950 . S
H671 C676 0.949 . S
H672 C678 0.950 . S
H673 C679 0.950 . S
H674 C680 0.949 . S
C675 H670 0.950 . S
C675 C677 1.327 . S
C675 C681 1.429 . S
C676 C668 1.574 1_556 S
C676 H671 0.949 . S
C676 C682 1.368 . S
C677 C661 1.349 . S
C677 H669 0.950 . S
C677 C675 1.327 . S
C678 C666 1.349 . S
C678 H672 0.950 . S
C678 C679 1.327 . S
C679 H673 0.950 . S
C679 C678 1.327 . S
C679 C683 1.429 . S
C680 C663 1.574 1_554 S
C680 H674 0.949 . S
C680 C684 1.368 . S
C681 C662 1.429 . S
C681 C675 1.429 . S
C681 C682 1.523 . S
C682 C663 1.368 . S
C682 C676 1.368 . S
C682 C681 1.523 . S
C683 C667 1.429 . S
C683 C679 1.429 . S
C683 C684 1.523 . S
C684 C668 1.368 . S
C684 C680 1.368 . S
C684 C683 1.523 . S
H685 C660 0.950 . S
H686 C662 0.950 . S
H687 C663 0.949 . S
H688 C665 0.950 . S
H689 C667 0.950 . S
C690 C691 1.349 . S
C690 C692 1.327 . S
C690 H715 0.950 . S
C691 C690 1.349 . S
C691 C707 1.349 . S
C692 C690 1.327 . S
C692 C711 1.429 . S
C692 H716 0.950 . S
C693 C710 1.574 . S
C693 C712 1.368 . S
C693 H717 0.949 . S
H694 C698 0.949 . S
C695 C696 1.349 . S
C695 C697 1.327 . S
C695 H718 0.950 . S
C696 C695 1.349 . S
C696 C708 1.349 . S
C697 C695 1.327 . S
C697 C713 1.429 . S
C697 H719 0.950 . S
C698 H694 0.949 . S
C698 C706 1.574 . S
C698 C714 1.368 . S
H699 C707 0.950 . S
H700 C705 0.950 . S
H701 C706 0.949 . S
H702 C708 0.950 . S
H703 C709 0.950 . S
H704 C710 0.949 . S
C705 H700 0.950 . S
C705 C707 1.327 . S
C705 C711 1.429 . S
C706 C698 1.574 . S
C706 H701 0.949 . S
C706 C712 1.368 . S
C707 C691 1.349 . S
C707 H699 0.950 . S
C707 C705 1.327 . S
C708 C696 1.349 . S
C708 H702 0.950 . S
C708 C709 1.327 . S
C709 H703 0.950 . S
C709 C708 1.327 . S
C709 C713 1.429 . S
C710 C693 1.574 . S
C710 H704 0.949 . S
C710 C714 1.368 . S
C711 C692 1.429 . S
C711 C705 1.429 . S
C711 C712 1.523 . S
C712 C693 1.368 . S
C712 C706 1.368 . S
C712 C711 1.523 . S
C713 C697 1.429 . S
C713 C709 1.429 . S
C713 C714 1.523 . S
C714 C698 1.368 . S
C714 C710 1.368 . S
C714 C713 1.523 . S
H715 C690 0.950 . S
H716 C692 0.950 . S
H717 C693 0.949 . S
H718 C695 0.950 . S
H719 C697 0.950 . S
C720 C721 1.349 . S
C720 C722 1.327 . S
C720 H745 0.950 . S
C721 C720 1.349 . S
C721 C737 1.349 . S
C722 C720 1.327 . S
C722 C741 1.429 . S
C722 H746 0.950 . S
C723 C740 1.574 . S
C723 C742 1.368 . S
C723 H747 0.949 . S
H724 C728 0.949 . S
C725 C726 1.349 . S
C725 C727 1.327 . S
C725 H748 0.950 . S
C726 C725 1.349 . S
C726 C738 1.349 . S
C727 C725 1.327 . S
C727 C743 1.429 . S
C727 H749 0.950 . S
C728 H724 0.949 . S
C728 C736 1.574 . S
C728 C744 1.368 . S
H729 C737 0.950 . S
H730 C735 0.950 . S
H731 C736 0.949 . S
H732 C738 0.950 . S
H733 C739 0.950 . S
H734 C740 0.949 . S
C735 H730 0.950 . S
C735 C737 1.327 . S
C735 C741 1.429 . S
C736 C728 1.574 . S
C736 H731 0.949 . S
C736 C742 1.368 . S
C737 C721 1.349 . S
C737 H729 0.950 . S
C737 C735 1.327 . S
C738 C726 1.349 . S
C738 H732 0.950 . S
C738 C739 1.327 . S
C739 H733 0.950 . S
C739 C738 1.327 . S
C739 C743 1.429 . S
C740 C723 1.574 . S
C740 H734 0.949 . S
C740 C744 1.368 . S
C741 C722 1.429 . S
C741 C735 1.429 . S
C741 C742 1.523 . S
C742 C723 1.368 . S
C742 C736 1.368 . S
C742 C741 1.523 . S
C743 C727 1.429 . S
C743 C739 1.429 . S
C743 C744 1.523 . S
C744 C728 1.368 . S
C744 C740 1.368 . S
C744 C743 1.523 . S
H745 C720 0.950 . S
H746 C722 0.950 . S
H747 C723 0.949 . S
H748 C725 0.950 . S
H749 C727 0.950 . S
C750 C751 1.349 . S
C750 C752 1.327 . S
C750 H775 0.950 . S
C751 C750 1.349 . S
C751 C767 1.349 . S
C752 C750 1.327 . S
C752 C771 1.429 . S
C752 H776 0.950 . S
C753 C770 1.574 1_556 S
C753 C772 1.368 . S
C753 H777 0.949 . S
H754 C758 0.949 . S
C755 C756 1.349 . S
C755 C757 1.327 . S
C755 H778 0.950 . S
C756 C755 1.349 . S
C756 C768 1.349 . S
C757 C755 1.327 . S
C757 C773 1.429 . S
C757 H779 0.950 . S
C758 H754 0.949 . S
C758 C766 1.574 1_554 S
C758 C774 1.368 . S
H759 C767 0.950 . S
H760 C765 0.950 . S
H761 C766 0.949 . S
H762 C768 0.950 . S
H763 C769 0.950 . S
H764 C770 0.949 . S
C765 H760 0.950 . S
C765 C767 1.327 . S
C765 C771 1.429 . S
C766 C758 1.574 1_556 S
C766 H761 0.949 . S
C766 C772 1.368 . S
C767 C751 1.349 . S
C767 H759 0.950 . S
C767 C765 1.327 . S
C768 C756 1.349 . S
C768 H762 0.950 . S
C768 C769 1.327 . S
C769 H763 0.950 . S
C769 C768 1.327 . S
C769 C773 1.429 . S
C770 C753 1.574 1_554 S
C770 H764 0.949 . S
C770 C774 1.368 . S
C771 C752 1.429 . S
C771 C765 1.429 . S
C771 C772 1.523 . S
C772 C753 1.368 . S
C772 C766 1.368 . S
C772 C771 1.523 . S
C773 C757 1.429 . S
C773 C769 1.429 . S
C773 C774 1.523 . S
C774 C758 1.368 . S
C774 C770 1.368 . S
C774 C773 1.523 . S
H775 C750 0.950 . S
H776 C752 0.950 . S
H777 C753 0.949 . S
H778 C755 0.950 . S
H779 C757 0.950 . S
C780 C781 1.349 . S
C780 C782 1.327 . S
C780 H805 0.950 . S
C781 C780 1.349 . S
C781 C797 1.349 . S
C782 C780 1.327 . S
C782 C801 1.429 . S
C782 H806 0.950 . S
C783 C800 1.574 . S
C783 C802 1.368 . S
C783 H807 0.949 . S
H784 C788 0.949 . S
C785 C786 1.349 . S
C785 C787 1.327 . S
C785 H808 0.950 . S
C786 C785 1.349 . S
C786 C798 1.349 . S
C787 C785 1.327 . S
C787 C803 1.429 . S
C787 H809 0.950 . S
C788 H784 0.949 . S
C788 C796 1.574 . S
C788 C804 1.368 . S
H789 C797 0.950 . S
H790 C795 0.950 . S
H791 C796 0.949 . S
H792 C798 0.950 . S
H793 C799 0.950 . S
H794 C800 0.949 . S
C795 H790 0.950 . S
C795 C797 1.327 . S
C795 C801 1.429 . S
C796 C788 1.574 . S
C796 H791 0.949 . S
C796 C802 1.368 . S
C797 C781 1.349 . S
C797 H789 0.950 . S
C797 C795 1.327 . S
C798 C786 1.349 . S
C798 H792 0.950 . S
C798 C799 1.327 . S
C799 H793 0.950 . S
C799 C798 1.327 . S
C799 C803 1.429 . S
C800 C783 1.574 . S
C800 H794 0.949 . S
C800 C804 1.368 . S
C801 C782 1.429 . S
C801 C795 1.429 . S
C801 C802 1.523 . S
C802 C783 1.368 . S
C802 C796 1.368 . S
C802 C801 1.523 . S
C803 C787 1.429 . S
C803 C799 1.429 . S
C803 C804 1.523 . S
C804 C788 1.368 . S
C804 C800 1.368 . S
C804 C803 1.523 . S
H805 C780 0.950 . S
H806 C782 0.950 . S
H807 C783 0.949 . S
H808 C785 0.950 . S
H809 C787 0.950 . S
C810 C811 1.349 . S
C810 C812 1.327 . S
C810 H835 0.950 . S
C811 C810 1.349 . S
C811 C827 1.349 . S
C812 C810 1.327 . S
C812 C831 1.429 . S
C812 H836 0.950 . S
C813 C830 1.574 . S
C813 C832 1.368 . S
C813 H837 0.949 . S
H814 C818 0.949 . S
C815 C816 1.349 . S
C815 C817 1.327 . S
C815 H838 0.950 . S
C816 C815 1.349 . S
C816 C828 1.349 . S
C817 C815 1.327 . S
C817 C833 1.429 . S
C817 H839 0.950 . S
C818 H814 0.949 . S
C818 C826 1.574 . S
C818 C834 1.368 . S
H819 C827 0.950 . S
H820 C825 0.950 . S
H821 C826 0.949 . S
H822 C828 0.950 . S
H823 C829 0.950 . S
H824 C830 0.949 . S
C825 H820 0.950 . S
C825 C827 1.327 . S
C825 C831 1.429 . S
C826 C818 1.574 . S
C826 H821 0.949 . S
C826 C832 1.368 . S
C827 C811 1.349 . S
C827 H819 0.950 . S
C827 C825 1.327 . S
C828 C816 1.349 . S
C828 H822 0.950 . S
C828 C829 1.327 . S
C829 H823 0.950 . S
C829 C828 1.327 . S
C829 C833 1.429 . S
C830 C813 1.574 . S
C830 H824 0.949 . S
C830 C834 1.368 . S
C831 C812 1.429 . S
C831 C825 1.429 . S
C831 C832 1.523 . S
C832 C813 1.368 . S
C832 C826 1.368 . S
C832 C831 1.523 . S
C833 C817 1.429 . S
C833 C829 1.429 . S
C833 C834 1.523 . S
C834 C818 1.368 . S
C834 C830 1.368 . S
C834 C833 1.523 . S
H835 C810 0.950 . S
H836 C812 0.950 . S
H837 C813 0.949 . S
H838 C815 0.950 . S
H839 C817 0.950 . S
C840 C841 1.349 . S
C840 C842 1.327 . S
C840 H865 0.950 . S
C841 C840 1.349 . S
C841 C857 1.349 . S
C842 C840 1.327 . S
C842 C861 1.429 . S
C842 H866 0.950 1_565 S
C843 C860 1.574 1_556 S
C843 C862 1.368 . S
C843 H867 0.949 . S
H844 C848 0.949 . S
C845 C846 1.349 . S
C845 C847 1.327 . S
C845 H868 0.950 . S
C846 C845 1.349 . S
C846 C858 1.349 . S
C847 C845 1.327 . S
C847 C863 1.429 . S
C847 H869 0.950 1_545 S
C848 H844 0.949 . S
C848 C856 1.574 1_554 S
C848 C864 1.368 . S
H849 C857 0.950 . S
H850 C855 0.950 . S
H851 C856 0.949 . S
H852 C858 0.950 . S
H853 C859 0.950 . S
H854 C860 0.949 . S
C855 H850 0.950 . S
C855 C857 1.327 . S
C855 C861 1.429 . S
C856 C848 1.574 1_556 S
C856 H851 0.949 . S
C856 C862 1.368 1_545 S
C857 C841 1.349 . S
C857 H849 0.950 . S
C857 C855 1.327 . S
C858 C846 1.349 . S
C858 H852 0.950 . S
C858 C859 1.327 . S
C859 H853 0.950 . S
C859 C858 1.327 . S
C859 C863 1.429 . S
C860 C843 1.574 1_554 S
C860 H854 0.949 . S
C860 C864 1.368 1_565 S
C861 C842 1.429 . S
C861 C855 1.429 . S
C861 C862 1.523 . S
C862 C843 1.368 . S
C862 C856 1.368 1_565 S
C862 C861 1.523 . S
C863 C847 1.429 . S
C863 C859 1.429 . S
C863 C864 1.523 . S
C864 C848 1.368 . S
C864 C860 1.368 1_545 S
C864 C863 1.523 . S
H865 C840 0.950 . S
H866 C842 0.950 1_545 S
H867 C843 0.949 . S
H868 C845 0.950 . S
H869 C847 0.950 1_565 S
C870 C871 1.349 . S
C870 C872 1.327 . S
C870 H895 0.950 . S
C871 C870 1.349 . S
C871 C887 1.349 . S
C872 C870 1.327 . S
C872 C891 1.429 . S
C872 H896 0.950 . S
C873 C890 1.574 . S
C873 C892 1.368 . S
C873 H897 0.949 . S
H874 C878 0.949 . S
C875 C876 1.349 . S
C875 C877 1.327 . S
C875 H898 0.950 . S
C876 C875 1.349 . S
C876 C888 1.349 . S
C877 C875 1.327 . S
C877 C893 1.429 . S
C877 H899 0.950 . S
C878 H874 0.949 . S
C878 C886 1.574 . S
C878 C894 1.368 . S
H879 C887 0.950 . S
H880 C885 0.950 . S
H881 C886 0.949 . S
H882 C888 0.950 . S
H883 C889 0.950 . S
H884 C890 0.949 . S
C885 H880 0.950 . S
C885 C887 1.327 . S
C885 C891 1.429 . S
C886 C878 1.574 . S
C886 H881 0.949 . S
C886 C892 1.368 . S
C887 C871 1.349 . S
C887 H879 0.950 . S
C887 C885 1.327 . S
C888 C876 1.349 . S
C888 H882 0.950 . S
C888 C889 1.327 . S
C889 H883 0.950 . S
C889 C888 1.327 . S
C889 C893 1.429 . S
C890 C873 1.574 . S
C890 H884 0.949 . S
C890 C894 1.368 . S
C891 C872 1.429 . S
C891 C885 1.429 . S
C891 C892 1.523 . S
C892 C873 1.368 . S
C892 C886 1.368 . S
C892 C891 1.523 . S
C893 C877 1.429 . S
C893 C889 1.429 . S
C893 C894 1.523 . S
C894 C878 1.368 . S
C894 C890 1.368 . S
C894 C893 1.523 . S
H895 C870 0.950 . S
H896 C872 0.950 . S
H897 C873 0.949 . S
H898 C875 0.950 . S
H899 C877 0.950 . S
C900 C901 1.349 . S
C900 C902 1.327 . S
C900 H925 0.950 . S
C901 C900 1.349 . S
C901 C917 1.349 . S
C902 C900 1.327 . S
C902 C921 1.429 . S
C902 H926 0.950 . S
C903 C920 1.574 1_455 S
C903 C922 1.368 . S
C903 H927 0.949 . S
H904 C908 0.949 . S
C905 C906 1.349 . S
C905 C907 1.327 . S
C905 H928 0.950 . S
C906 C905 1.349 . S
C906 C918 1.349 . S
C907 C905 1.327 . S
C907 C923 1.429 . S
C907 H929 0.950 . S
C908 H904 0.949 . S
C908 C916 1.574 1_655 S
C908 C924 1.368 . S
H909 C917 0.950 . S
H910 C915 0.950 . S
H911 C916 0.949 . S
H912 C918 0.950 . S
H913 C919 0.950 . S
H914 C920 0.949 . S
C915 H910 0.950 . S
C915 C917 1.327 . S
C915 C921 1.429 . S
C916 C908 1.574 1_455 S
C916 H911 0.949 . S
C916 C922 1.368 . S
C917 C901 1.349 . S
C917 H909 0.950 . S
C917 C915 1.327 . S
C918 C906 1.349 . S
C918 H912 0.950 . S
C918 C919 1.327 . S
C919 H913 0.950 . S
C919 C918 1.327 . S
C919 C923 1.429 . S
C920 C903 1.574 1_655 S
C920 H914 0.949 . S
C920 C924 1.368 . S
C921 C902 1.429 . S
C921 C915 1.429 . S
C921 C922 1.523 . S
C922 C903 1.368 . S
C922 C916 1.368 . S
C922 C921 1.523 . S
C923 C907 1.429 . S
C923 C919 1.429 . S
C923 C924 1.523 . S
C924 C908 1.368 . S
C924 C920 1.368 . S
C924 C923 1.523 . S
H925 C900 0.950 . S
H926 C902 0.950 . S
H927 C903 0.949 . S
H928 C905 0.950 . S
H929 C907 0.950 . S
C930 C931 1.349 . S
C930 C932 1.327 . S
C930 H955 0.950 . S
C931 C930 1.349 . S
C931 C947 1.349 . S
C932 C930 1.327 . S
C932 C951 1.429 . S
C932 H956 0.950 . S
C933 C950 1.585 1_554 S
C933 C952 1.368 . S
C933 H957 0.949 . S
H934 C938 0.949 . S
C935 C936 1.349 . S
C935 C937 1.327 . S
C935 H958 0.950 . S
C936 C935 1.349 . S
C936 C948 1.349 . S
C937 C935 1.327 . S
C937 C953 1.429 . S
C937 H959 0.950 . S
C938 H934 0.949 . S
C938 C946 1.584 1_556 S
C938 C954 1.368 . S
H939 C947 0.950 . S
H940 C945 0.950 . S
H941 C946 0.951 . S
H942 C948 0.950 . S
H943 C949 0.950 . S
H944 C950 0.951 . S
C945 H940 0.950 . S
C945 C947 1.327 . S
C945 C951 1.429 . S
C946 C938 1.584 1_554 S
C946 H941 0.951 . S
C946 C952 1.369 1_545 S
C947 C931 1.349 . S
C947 H939 0.950 . S
C947 C945 1.327 . S
C948 C936 1.349 . S
C948 H942 0.950 . S
C948 C949 1.327 . S
C949 H943 0.950 . S
C949 C948 1.327 . S
C949 C953 1.429 . S
C950 C933 1.585 1_556 S
C950 H944 0.951 . S
C950 C954 1.369 1_565 S
C951 C932 1.429 . S
C951 C945 1.429 . S
C951 C952 1.523 . S
C952 C933 1.368 . S
C952 C946 1.369 1_565 S
C952 C951 1.523 . S
C953 C937 1.429 . S
C953 C949 1.429 . S
C953 C954 1.523 . S
C954 C938 1.368 . S
C954 C950 1.369 1_545 S
C954 C953 1.523 . S
H955 C930 0.950 . S
H956 C932 0.950 . S
H957 C933 0.949 . S
H958 C935 0.950 . S
H959 C937 0.950 . S
C960 C961 1.349 . S
C960 C962 1.327 . S
C960 H985 0.950 . S
C961 C960 1.349 . S
C961 C977 1.349 . S
C962 C960 1.327 . S
C962 C981 1.429 . S
C962 H986 0.950 . S
C963 C980 1.574 . S
C963 C982 1.368 . S
C963 H987 0.949 . S
H964 C968 0.949 . S
C965 C966 1.349 . S
C965 C967 1.327 . S
C965 H988 0.950 . S
C966 C965 1.349 . S
C966 C978 1.349 . S
C967 C965 1.327 . S
C967 C983 1.429 . S
C967 H989 0.950 . S
C968 H964 0.949 . S
C968 C976 1.574 . S
C968 C984 1.368 . S
H969 C977 0.950 . S
H970 C975 0.950 . S
H971 C976 0.949 . S
H972 C978 0.950 . S
H973 C979 0.950 . S
H974 C980 0.949 . S
C975 H970 0.950 . S
C975 C977 1.327 . S
C975 C981 1.429 . S
C976 C968 1.574 . S
C976 H971 0.949 . S
C976 C982 1.368 . S
C977 C961 1.349 . S
C977 H969 0.950 . S
C977 C975 1.327 . S
C978 C966 1.349 . S
C978 H972 0.950 . S
C978 C979 1.327 . S
C979 H973 0.950 . S
C979 C978 1.327 . S
C979 C983 1.429 . S
C980 C963 1.574 . S
C980 H974 0.949 . S
C980 C984 1.368 . S
C981 C962 1.429 . S
C981 C975 1.429 . S
C981 C982 1.523 . S
C982 C963 1.368 . S
C982 C976 1.368 . S
C982 C981 1.523 . S
C983 C967 1.429 . S
C983 C979 1.429 . S
C983 C984 1.523 . S
C984 C968 1.368 . S
C984 C980 1.368 . S
C984 C983 1.523 . S
H985 C960 0.950 . S
H986 C962 0.950 . S
H987 C963 0.949 . S
H988 C965 0.950 . S
H989 C967 0.950 . S
C990 C991 1.349 . S
C990 C992 1.327 . S
C990 H1015 0.950 . S
C991 C990 1.349 . S
C991 C1007 1.349 . S
C992 C990 1.327 . S
C992 C1011 1.429 . S
C992 H1016 0.950 . S
C993 C1010 1.574 . S
C993 C1012 1.368 1_655 S
C993 H1017 0.949 . S
H994 C998 0.949 . S
C995 C996 1.349 . S
C995 C997 1.327 . S
C995 H1018 0.950 . S
C996 C995 1.349 . S
C996 C1008 1.349 . S
C997 C995 1.327 . S
C997 C1013 1.429 . S
C997 H1019 0.950 . S
C998 H994 0.949 . S
C998 C1006 1.574 . S
C998 C1014 1.368 1_455 S
H999 C1007 0.950 . S
H1000 C1005 0.950 1_655 S
H1001 C1006 0.949 . S
H1002 C1008 0.950 . S
H1003 C1009 0.950 1_455 S
H1004 C1010 0.949 . S
C1005 H1000 0.950 1_455 S
C1005 C1007 1.327 . S
C1005 C1011 1.429 . S
C1006 C998 1.574 . S
C1006 H1001 0.949 . S
C1006 C1012 1.368 . S
C1007 C991 1.349 . S
C1007 H999 0.950 . S
C1007 C1005 1.327 . S
C1008 C996 1.349 . S
C1008 H1002 0.950 . S
C1008 C1009 1.327 . S
C1009 H1003 0.950 1_655 S
C1009 C1008 1.327 . S
C1009 C1013 1.429 . S
C1010 C993 1.574 . S
C1010 H1004 0.949 . S
C1010 C1014 1.368 . S
C1011 C992 1.429 . S
C1011 C1005 1.429 . S
C1011 C1012 1.523 . S
C1012 C993 1.368 1_455 S
C1012 C1006 1.368 . S
C1012 C1011 1.523 . S
C1013 C997 1.429 . S
C1013 C1009 1.429 . S
C1013 C1014 1.523 . S
C1014 C998 1.368 1_655 S
C1014 C1010 1.368 . S
C1014 C1013 1.523 . S
H1015 C990 0.950 . S
H1016 C992 0.950 . S
H1017 C993 0.949 . S
H1018 C995 0.950 . S
H1019 C997 0.950 . S
C1020 C1021 1.349 . S
C1020 C1022 1.327 . S
C1020 H1045 0.950 . S
C1021 C1020 1.349 . S
C1021 C1037 1.349 . S
C1022 C1020 1.327 . S
C1022 C1041 1.429 . S
C1022 H1046 0.950 . S
C1023 C1040 1.607 . S
C1023 C1042 1.368 . S
C1023 H1047 0.949 . S
H1024 C1028 0.949 . S
C1025 C1026 1.349 . S
C1025 C1027 1.327 . S
C1025 H1048 0.950 . S
C1026 C1025 1.349 . S
C1026 C1038 1.349 . S
C1027 C1025 1.327 . S
C1027 C1043 1.429 . S
C1027 H1049 0.950 . S
C1028 H1024 0.949 . S
C1028 C1036 1.607 . S
C1028 C1044 1.368 . S
H1029 C1037 0.950 . S
H1030 C1035 0.950 . S
H1031 C1036 0.950 . S
H1032 C1038 0.950 . S
H1033 C1039 0.950 . S
H1034 C1040 0.950 . S
C1035 H1030 0.950 . S
C1035 C1037 1.327 . S
C1035 C1041 1.429 . S
C1036 C1028 1.607 . S
C1036 H1031 0.950 . S
C1036 C1042 1.350 1_565 S
C1037 C1021 1.349 . S
C1037 H1029 0.950 . S
C1037 C1035 1.327 . S
C1038 C1026 1.349 . S
C1038 H1032 0.950 . S
C1038 C1039 1.327 . S
C1039 H1033 0.950 . S
C1039 C1038 1.327 . S
C1039 C1043 1.429 . S
C1040 C1023 1.607 . S
C1040 H1034 0.950 . S
C1040 C1044 1.350 1_545 S
C1041 C1022 1.429 . S
C1041 C1035 1.429 . S
C1041 C1042 1.523 . S
C1042 C1023 1.368 . S
C1042 C1036 1.350 1_545 S
C1042 C1041 1.523 . S
C1043 C1027 1.429 . S
C1043 C1039 1.429 . S
C1043 C1044 1.523 . S
C1044 C1028 1.368 . S
C1044 C1040 1.350 1_565 S
C1044 C1043 1.523 . S
H1045 C1020 0.950 . S
H1046 C1022 0.950 . S
H1047 C1023 0.949 . S
H1048 C1025 0.950 . S
H1049 C1027 0.950 . S
C1050 C1051 1.349 . S
C1050 C1052 1.327 . S
C1050 H1075 0.950 . S
C1051 C1050 1.349 . S
C1051 C1067 1.349 . S
C1052 C1050 1.327 . S
C1052 C1071 1.429 . S
C1052 H1076 0.950 . S
C1053 C1070 1.574 . S
C1053 C1072 1.368 . S
C1053 H1077 0.949 . S
H1054 C1058 0.949 . S
C1055 C1056 1.349 . S
C1055 C1057 1.327 . S
C1055 H1078 0.950 . S
C1056 C1055 1.349 . S
C1056 C1068 1.349 . S
C1057 C1055 1.327 . S
C1057 C1073 1.429 . S
C1057 H1079 0.950 . S
C1058 H1054 0.949 . S
C1058 C1066 1.574 . S
C1058 C1074 1.368 . S
H1059 C1067 0.950 . S
H1060 C1065 0.950 . S
H1061 C1066 0.949 . S
H1062 C1068 0.950 . S
H1063 C1069 0.950 . S
H1064 C1070 0.949 . S
C1065 H1060 0.950 . S
C1065 C1067 1.327 . S
C1065 C1071 1.429 . S
C1066 C1058 1.574 . S
C1066 H1061 0.949 . S
C1066 C1072 1.368 . S
C1067 C1051 1.349 . S
C1067 H1059 0.950 . S
C1067 C1065 1.327 . S
C1068 C1056 1.349 . S
C1068 H1062 0.950 . S
C1068 C1069 1.327 . S
C1069 H1063 0.950 . S
C1069 C1068 1.327 . S
C1069 C1073 1.429 . S
C1070 C1053 1.574 . S
C1070 H1064 0.949 . S
C1070 C1074 1.368 . S
C1071 C1052 1.429 . S
C1071 C1065 1.429 . S
C1071 C1072 1.523 . S
C1072 C1053 1.368 . S
C1072 C1066 1.368 . S
C1072 C1071 1.523 . S
C1073 C1057 1.429 . S
C1073 C1069 1.429 . S
C1073 C1074 1.523 . S
C1074 C1058 1.368 . S
C1074 C1070 1.368 . S
C1074 C1073 1.523 . S
H1075 C1050 0.950 . S
H1076 C1052 0.950 . S
H1077 C1053 0.949 . S
H1078 C1055 0.950 . S
H1079 C1057 0.950 . S
C1080 C1081 1.349 . S
C1080 C1082 1.327 . S
C1080 H1105 0.950 . S
C1081 C1080 1.349 . S
C1081 C1097 1.349 . S
C1082 C1080 1.327 . S
C1082 C1101 1.429 . S
C1082 H1106 0.950 . S
C1083 C1100 1.581 . S
C1083 C1102 1.347 1_455 S
C1083 H1107 0.948 . S
H1084 C1088 0.948 . S
C1085 C1086 1.349 . S
C1085 C1087 1.327 . S
C1085 H1108 0.950 . S
C1086 C1085 1.349 . S
C1086 C1098 1.349 . S
C1087 C1085 1.327 . S
C1087 C1103 1.429 . S
C1087 H1109 0.950 . S
C1088 H1084 0.948 . S
C1088 C1096 1.581 . S
C1088 C1104 1.347 1_655 S
H1089 C1097 0.950 . S
H1090 C1095 0.950 . S
H1091 C1096 0.949 . S
H1092 C1098 0.950 . S
H1093 C1099 0.950 . S
H1094 C1100 0.949 . S
C1095 H1090 0.950 . S
C1095 C1097 1.327 . S
C1095 C1101 1.429 . S
C1096 C1088 1.581 . S
C1096 H1091 0.949 . S
C1096 C1102 1.368 . S
C1097 C1081 1.349 . S
C1097 H1089 0.950 . S
C1097 C1095 1.327 . S
C1098 C1086 1.349 . S
C1098 H1092 0.950 . S
C1098 C1099 1.327 . S
C1099 H1093 0.950 . S
C1099 C1098 1.327 . S
C1099 C1103 1.429 . S
C1100 C1083 1.581 . S
C1100 H1094 0.949 . S
C1100 C1104 1.368 . S
C1101 C1082 1.429 . S
C1101 C1095 1.429 . S
C1101 C1102 1.523 . S
C1102 C1083 1.347 1_655 S
C1102 C1096 1.368 . S
C1102 C1101 1.523 . S
C1103 C1087 1.429 . S
C1103 C1099 1.429 . S
C1103 C1104 1.523 . S
C1104 C1088 1.347 1_455 S
C1104 C1100 1.368 . S
C1104 C1103 1.523 . S
H1105 C1080 0.950 . S
H1106 C1082 0.950 . S
H1107 C1083 0.948 . S
H1108 C1085 0.950 . S
H1109 C1087 0.950 . S
C1110 C1111 1.349 . S
C1110 C1112 1.327 . S
C1110 H1135 0.950 . S
C1111 C1110 1.349 . S
C1111 C1127 1.349 . S
C1112 C1110 1.327 . S
C1112 C1131 1.429 . S
C1112 H1136 0.950 . S
C1113 C1130 1.607 . S
C1113 C1132 1.350 1_655 S
C1113 H1137 0.950 . S
H1114 C1118 0.950 . S
C1115 C1116 1.349 . S
C1115 C1117 1.327 . S
C1115 H1138 0.950 . S
C1116 C1115 1.349 . S
C1116 C1128 1.349 . S
C1117 C1115 1.327 . S
C1117 C1133 1.429 . S
C1117 H1139 0.950 . S
C1118 H1114 0.950 . S
C1118 C1126 1.607 . S
C1118 C1134 1.350 1_455 S
H1119 C1127 0.950 . S
H1120 C1125 0.950 . S
H1121 C1126 0.949 . S
H1122 C1128 0.950 . S
H1123 C1129 0.950 . S
H1124 C1130 0.949 . S
C1125 H1120 0.950 . S
C1125 C1127 1.327 . S
C1125 C1131 1.429 . S
C1126 C1118 1.607 . S
C1126 H1121 0.949 . S
C1126 C1132 1.368 . S
C1127 C1111 1.349 . S
C1127 H1119 0.950 . S
C1127 C1125 1.327 . S
C1128 C1116 1.349 . S
C1128 H1122 0.950 . S
C1128 C1129 1.327 . S
C1129 H1123 0.950 . S
C1129 C1128 1.327 . S
C1129 C1133 1.429 . S
C1130 C1113 1.607 . S
C1130 H1124 0.949 . S
C1130 C1134 1.368 . S
C1131 C1112 1.429 . S
C1131 C1125 1.429 . S
C1131 C1132 1.523 . S
C1132 C1113 1.350 1_455 S
C1132 C1126 1.368 . S
C1132 C1131 1.523 . S
C1133 C1117 1.429 . S
C1133 C1129 1.429 . S
C1133 C1134 1.523 . S
C1134 C1118 1.350 1_655 S
C1134 C1130 1.368 . S
C1134 C1133 1.523 . S
H1135 C1110 0.950 . S
H1136 C1112 0.950 . S
H1137 C1113 0.950 . S
H1138 C1115 0.950 . S
H1139 C1117 0.950 . S
C1140 C1141 1.349 . S
C1140 C1142 1.327 . S
C1140 H1165 0.950 . S
C1141 C1140 1.349 . S
C1141 C1157 1.349 . S
C1142 C1140 1.327 . S
C1142 C1161 1.429 . S
C1142 H1166 0.950 . S
C1143 C1160 1.581 . S
C1143 C1162 1.368 . S
C1143 H1167 0.949 . S
H1144 C1148 0.949 . S
C1145 C1146 1.349 . S
C1145 C1147 1.327 . S
C1145 H1168 0.950 . S
C1146 C1145 1.349 . S
C1146 C1158 1.349 . S
C1147 C1145 1.327 . S
C1147 C1163 1.429 . S
C1147 H1169 0.950 . S
C1148 H1144 0.949 . S
C1148 C1156 1.581 . S
C1148 C1164 1.368 . S
H1149 C1157 0.950 . S
H1150 C1155 0.950 . S
H1151 C1156 0.948 . S
H1152 C1158 0.950 . S
H1153 C1159 0.950 . S
H1154 C1160 0.948 . S
C1155 H1150 0.950 . S
C1155 C1157 1.327 . S
C1155 C1161 1.429 . S
C1156 C1148 1.581 . S
C1156 H1151 0.948 . S
C1156 C1162 1.347 1_545 S
C1157 C1141 1.349 . S
C1157 H1149 0.950 . S
C1157 C1155 1.327 . S
C1158 C1146 1.349 . S
C1158 H1152 0.950 . S
C1158 C1159 1.327 . S
C1159 H1153 0.950 . S
C1159 C1158 1.327 . S
C1159 C1163 1.429 . S
C1160 C1143 1.581 . S
C1160 H1154 0.948 . S
C1160 C1164 1.347 1_565 S
C1161 C1142 1.429 . S
C1161 C1155 1.429 . S
C1161 C1162 1.523 . S
C1162 C1143 1.368 . S
C1162 C1156 1.347 1_565 S
C1162 C1161 1.523 . S
C1163 C1147 1.429 . S
C1163 C1159 1.429 . S
C1163 C1164 1.523 . S
C1164 C1148 1.368 . S
C1164 C1160 1.347 1_545 S
C1164 C1163 1.523 . S
H1165 C1140 0.950 . S
H1166 C1142 0.950 . S
H1167 C1143 0.949 . S
H1168 C1145 0.950 . S
H1169 C1147 0.950 . S
C1170 C1171 1.349 . S
C1170 C1172 1.327 . S
C1170 H1195 0.950 . S
C1171 C1170 1.349 . S
C1171 C1187 1.349 . S
C1172 C1170 1.327 . S
C1172 C1191 1.429 . S
C1172 H1196 0.950 . S
C1173 C1190 1.574 . S
C1173 C1192 1.368 . S
C1173 H1197 0.949 . S
H1174 C1178 0.949 . S
C1175 C1176 1.349 . S
C1175 C1177 1.327 . S
C1175 H1198 0.950 . S
C1176 C1175 1.349 . S
C1176 C1188 1.349 . S
C1177 C1175 1.327 . S
C1177 C1193 1.429 . S
C1177 H1199 0.950 . S
C1178 H1174 0.949 . S
C1178 C1186 1.574 . S
C1178 C1194 1.368 . S
H1179 C1187 0.950 . S
H1180 C1185 0.950 . S
H1181 C1186 0.949 . S
H1182 C1188 0.950 . S
H1183 C1189 0.950 . S
H1184 C1190 0.949 . S
C1185 H1180 0.950 . S
C1185 C1187 1.327 . S
C1185 C1191 1.429 . S
C1186 C1178 1.574 . S
C1186 H1181 0.949 . S
C1186 C1192 1.368 . S
C1187 C1171 1.349 . S
C1187 H1179 0.950 . S
C1187 C1185 1.327 . S
C1188 C1176 1.349 . S
C1188 H1182 0.950 . S
C1188 C1189 1.327 . S
C1189 H1183 0.950 . S
C1189 C1188 1.327 . S
C1189 C1193 1.429 . S
C1190 C1173 1.574 . S
C1190 H1184 0.949 . S
C1190 C1194 1.368 . S
C1191 C1172 1.429 . S
C1191 C1185 1.429 . S
C1191 C1192 1.523 . S
C1192 C1173 1.368 . S
C1192 C1186 1.368 . S
C1192 C1191 1.523 . S
C1193 C1177 1.429 . S
C1193 C1189 1.429 . S
C1193 C1194 1.523 . S
C1194 C1178 1.368 . S
C1194 C1190 1.368 . S
C1194 C1193 1.523 . S
H1195 C1170 0.950 . S
H1196 C1172 0.950 . S
H1197 C1173 0.949 . S
H1198 C1175 0.950 . S
H1199 C1177 0.950 . S
C1200 C1201 1.349 . S
C1200 C1202 1.327 . S
C1200 H1225 0.950 . S
C1201 C1200 1.349 . S
C1201 C1217 1.349 . S
C1202 C1200 1.327 . S
C1202 C1221 1.429 . S
C1202 H1226 0.950 . S
C1203 C1220 1.604 . S
C1203 C1222 1.368 . S
C1203 H1227 0.949 . S
H1204 C1208 0.949 . S
C1205 C1206 1.349 . S
C1205 C1207 1.327 . S
C1205 H1228 0.950 . S
C1206 C1205 1.349 . S
C1206 C1218 1.349 . S
C1207 C1205 1.327 . S
C1207 C1223 1.429 . S
C1207 H1229 0.950 . S
C1208 H1204 0.949 . S
C1208 C1216 1.574 . S
C1208 C1224 1.368 . S
H1209 C1217 0.950 . S
H1210 C1215 0.950 . S
H1211 C1216 0.949 . S
H1212 C1218 0.950 . S
H1213 C1219 0.950 . S
H1214 C1220 0.969 . S
C1215 H1210 0.950 . S
C1215 C1217 1.327 . S
C1215 C1221 1.429 . S
C1216 C1208 1.574 . S
C1216 H1211 0.949 . S
C1216 C1222 1.368 1_545 S
C1217 C1201 1.349 . S
C1217 H1209 0.950 . S
C1217 C1215 1.327 . S
C1218 C1206 1.349 . S
C1218 H1212 0.950 . S
C1218 C1219 1.327 . S
C1219 H1213 0.950 . S
C1219 C1218 1.327 . S
C1219 C1223 1.429 . S
C1220 C1203 1.604 . S
C1220 H1214 0.969 . S
C1220 C1224 1.318 1_565 S
C1221 C1202 1.429 . S
C1221 C1215 1.429 . S
C1221 C1222 1.523 . S
C1222 C1203 1.368 . S
C1222 C1216 1.368 1_565 S
C1222 C1221 1.523 . S
C1223 C1207 1.429 . S
C1223 C1219 1.429 . S
C1223 C1224 1.523 . S
C1224 C1208 1.368 . S
C1224 C1220 1.318 1_545 S
C1224 C1223 1.523 . S
H1225 C1200 0.950 . S
H1226 C1202 0.950 . S
H1227 C1203 0.949 . S
H1228 C1205 0.950 . S
H1229 C1207 0.950 . S
C1230 C1231 1.349 . S
C1230 C1232 1.327 . S
C1230 H1255 0.950 . S
C1231 C1230 1.349 . S
C1231 C1247 1.349 . S
C1232 C1230 1.327 . S
C1232 C1251 1.429 . S
C1232 H1256 0.950 . S
C1233 C1250 1.574 . S
C1233 C1252 1.368 . S
C1233 H1257 0.949 . S
H1234 C1238 0.949 . S
C1235 C1236 1.349 . S
C1235 C1237 1.327 . S
C1235 H1258 0.950 . S
C1236 C1235 1.349 . S
C1236 C1248 1.349 . S
C1237 C1235 1.327 . S
C1237 C1253 1.429 . S
C1237 H1259 0.950 . S
C1238 H1234 0.949 . S
C1238 C1246 1.574 . S
C1238 C1254 1.368 . S
H1239 C1247 0.950 . S
H1240 C1245 0.950 . S
H1241 C1246 0.949 . S
H1242 C1248 0.950 . S
H1243 C1249 0.950 . S
H1244 C1250 0.949 . S
C1245 H1240 0.950 . S
C1245 C1247 1.327 . S
C1245 C1251 1.429 . S
C1246 C1238 1.574 . S
C1246 H1241 0.949 . S
C1246 C1252 1.368 . S
C1247 C1231 1.349 . S
C1247 H1239 0.950 . S
C1247 C1245 1.327 . S
C1248 C1236 1.349 . S
C1248 H1242 0.950 . S
C1248 C1249 1.327 . S
C1249 H1243 0.950 . S
C1249 C1248 1.327 . S
C1249 C1253 1.429 . S
C1250 C1233 1.574 . S
C1250 H1244 0.949 . S
C1250 C1254 1.368 . S
C1251 C1232 1.429 . S
C1251 C1245 1.429 . S
C1251 C1252 1.523 . S
C1252 C1233 1.368 . S
C1252 C1246 1.368 . S
C1252 C1251 1.523 . S
C1253 C1237 1.429 . S
C1253 C1249 1.429 . S
C1253 C1254 1.523 . S
C1254 C1238 1.368 . S
C1254 C1250 1.368 . S
C1254 C1253 1.523 . S
H1255 C1230 0.950 . S
H1256 C1232 0.950 . S
H1257 C1233 0.949 . S
H1258 C1235 0.950 . S
H1259 C1237 0.950 . S
C1260 C1261 1.349 . S
C1260 C1262 1.327 . S
C1260 H1285 0.950 . S
C1261 C1260 1.349 . S
C1261 C1277 1.349 . S
C1262 C1260 1.327 . S
C1262 C1281 1.429 . S
C1262 H1286 0.950 . S
C1263 C1280 1.574 . S
C1263 C1282 1.368 . S
C1263 H1287 0.949 . S
H1264 C1268 0.949 . S
C1265 C1266 1.349 . S
C1265 C1267 1.327 . S
C1265 H1288 0.950 . S
C1266 C1265 1.349 . S
C1266 C1278 1.349 . S
C1267 C1265 1.327 . S
C1267 C1283 1.429 . S
C1267 H1289 0.950 . S
C1268 H1264 0.949 . S
C1268 C1276 1.574 . S
C1268 C1284 1.368 . S
H1269 C1277 0.950 . S
H1270 C1275 0.950 . S
H1271 C1276 0.949 . S
H1272 C1278 0.950 . S
H1273 C1279 0.950 . S
H1274 C1280 0.949 . S
C1275 H1270 0.950 . S
C1275 C1277 1.327 . S
C1275 C1281 1.429 . S
C1276 C1268 1.574 . S
C1276 H1271 0.949 . S
C1276 C1282 1.368 1_455 S
C1277 C1261 1.349 . S
C1277 H1269 0.950 . S
C1277 C1275 1.327 . S
C1278 C1266 1.349 . S
C1278 H1272 0.950 . S
C1278 C1279 1.327 . S
C1279 H1273 0.950 . S
C1279 C1278 1.327 . S
C1279 C1283 1.429 . S
C1280 C1263 1.574 . S
C1280 H1274 0.949 . S
C1280 C1284 1.368 1_655 S
C1281 C1262 1.429 . S
C1281 C1275 1.429 . S
C1281 C1282 1.523 . S
C1282 C1263 1.368 . S
C1282 C1276 1.368 1_655 S
C1282 C1281 1.523 . S
C1283 C1267 1.429 . S
C1283 C1279 1.429 . S
C1283 C1284 1.523 . S
C1284 C1268 1.368 . S
C1284 C1280 1.368 1_455 S
C1284 C1283 1.523 . S
H1285 C1260 0.950 . S
H1286 C1262 0.950 . S
H1287 C1263 0.949 . S
H1288 C1265 0.950 . S
H1289 C1267 0.950 . S
C1290 C1291 1.349 . S
C1290 C1292 1.327 . S
C1290 H1315 0.950 . S
C1291 C1290 1.349 . S
C1291 C1307 1.349 . S
C1292 C1290 1.327 . S
C1292 C1311 1.429 . S
C1292 H1316 0.950 . S
C1293 C1310 1.574 1_545 S
C1293 C1312 1.368 . S
C1293 H1317 0.949 . S
H1294 C1298 0.949 . S
C1295 C1296 1.349 . S
C1295 C1297 1.327 . S
C1295 H1318 0.950 . S
C1296 C1295 1.349 . S
C1296 C1308 1.349 . S
C1297 C1295 1.327 . S
C1297 C1313 1.429 . S
C1297 H1319 0.950 . S
C1298 H1294 0.949 . S
C1298 C1306 1.574 1_565 S
C1298 C1314 1.368 . S
H1299 C1307 0.950 . S
H1300 C1305 0.950 . S
H1301 C1306 0.949 . S
H1302 C1308 0.950 . S
H1303 C1309 0.950 . S
H1304 C1310 0.949 . S
C1305 H1300 0.950 . S
C1305 C1307 1.327 . S
C1305 C1311 1.429 . S
C1306 C1298 1.574 1_545 S
C1306 H1301 0.949 . S
C1306 C1312 1.368 . S
C1307 C1291 1.349 . S
C1307 H1299 0.950 . S
C1307 C1305 1.327 . S
C1308 C1296 1.349 . S
C1308 H1302 0.950 . S
C1308 C1309 1.327 . S
C1309 H1303 0.950 . S
C1309 C1308 1.327 . S
C1309 C1313 1.429 . S
C1310 C1293 1.574 1_565 S
C1310 H1304 0.949 . S
C1310 C1314 1.368 . S
C1311 C1292 1.429 . S
C1311 C1305 1.429 . S
C1311 C1312 1.523 . S
C1312 C1293 1.368 . S
C1312 C1306 1.368 . S
C1312 C1311 1.523 . S
C1313 C1297 1.429 . S
C1313 C1309 1.429 . S
C1313 C1314 1.523 . S
C1314 C1298 1.368 . S
C1314 C1310 1.368 . S
C1314 C1313 1.523 . S
H1315 C1290 0.950 . S
H1316 C1292 0.950 . S
H1317 C1293 0.949 . S
H1318 C1295 0.950 . S
H1319 C1297 0.950 . S
C1320 C1321 1.349 . S
C1320 C1322 1.327 . S
C1320 H1345 0.950 . S
C1321 C1320 1.349 . S
C1321 C1337 1.349 . S
C1322 C1320 1.327 . S
C1322 C1341 1.429 . S
C1322 H1346 0.950 . S
C1323 C1340 1.574 . S
C1323 C1342 1.368 . S
C1323 H1347 0.949 . S
H1324 C1328 0.949 . S
C1325 C1326 1.349 . S
C1325 C1327 1.327 . S
C1325 H1348 0.950 . S
C1326 C1325 1.349 . S
C1326 C1338 1.349 . S
C1327 C1325 1.327 . S
C1327 C1343 1.429 . S
C1327 H1349 0.950 . S
C1328 H1324 0.949 . S
C1328 C1336 1.574 . S
C1328 C1344 1.368 . S
H1329 C1337 0.950 . S
H1330 C1335 0.950 . S
H1331 C1336 0.949 . S
H1332 C1338 0.950 . S
H1333 C1339 0.950 . S
H1334 C1340 0.949 . S
C1335 H1330 0.950 . S
C1335 C1337 1.327 . S
C1335 C1341 1.429 . S
C1336 C1328 1.574 . S
C1336 H1331 0.949 . S
C1336 C1342 1.368 . S
C1337 C1321 1.349 . S
C1337 H1329 0.950 . S
C1337 C1335 1.327 . S
C1338 C1326 1.349 . S
C1338 H1332 0.950 . S
C1338 C1339 1.327 . S
C1339 H1333 0.950 . S
C1339 C1338 1.327 . S
C1339 C1343 1.429 . S
C1340 C1323 1.574 . S
C1340 H1334 0.949 . S
C1340 C1344 1.368 . S
C1341 C1322 1.429 . S
C1341 C1335 1.429 . S
C1341 C1342 1.523 . S
C1342 C1323 1.368 . S
C1342 C1336 1.368 . S
C1342 C1341 1.523 . S
C1343 C1327 1.429 . S
C1343 C1339 1.429 . S
C1343 C1344 1.523 . S
C1344 C1328 1.368 . S
C1344 C1340 1.368 . S
C1344 C1343 1.523 . S
H1345 C1320 0.950 . S
H1346 C1322 0.950 . S
H1347 C1323 0.949 . S
H1348 C1325 0.950 . S
H1349 C1327 0.950 . S
C1350 C1351 1.349 . S
C1350 C1352 1.327 . S
C1350 H1375 0.950 . S
C1351 C1350 1.349 . S
C1351 C1367 1.349 . S
C1352 C1350 1.327 . S
C1352 C1371 1.429 . S
C1352 H1376 0.950 . S
C1353 C1370 1.574 . S
C1353 C1372 1.368 1_655 S
C1353 H1377 0.949 . S
H1354 C1358 0.949 . S
C1355 C1356 1.349 . S
C1355 C1357 1.327 . S
C1355 H1378 0.950 . S
C1356 C1355 1.349 . S
C1356 C1368 1.349 . S
C1357 C1355 1.327 . S
C1357 C1373 1.429 . S
C1357 H1379 0.950 . S
C1358 H1354 0.949 . S
C1358 C1366 1.574 . S
C1358 C1374 1.368 1_455 S
H1359 C1367 0.950 . S
H1360 C1365 0.950 . S
H1361 C1366 0.949 . S
H1362 C1368 0.950 . S
H1363 C1369 0.950 . S
H1364 C1370 0.949 . S
C1365 H1360 0.950 . S
C1365 C1367 1.327 . S
C1365 C1371 1.429 . S
C1366 C1358 1.574 . S
C1366 H1361 0.949 . S
C1366 C1372 1.368 . S
C1367 C1351 1.349 . S
C1367 H1359 0.950 . S
C1367 C1365 1.327 . S
C1368 C1356 1.349 . S
C1368 H1362 0.950 . S
C1368 C1369 1.327 . S
C1369 H1363 0.950 . S
C1369 C1368 1.327 . S
C1369 C1373 1.429 . S
C1370 C1353 1.574 . S
C1370 H1364 0.949 . S
C1370 C1374 1.368 . S
C1371 C1352 1.429 . S
C1371 C1365 1.429 . S
C1371 C1372 1.523 . S
C1372 C1353 1.368 1_455 S
C1372 C1366 1.368 . S
C1372 C1371 1.523 . S
C1373 C1357 1.429 . S
C1373 C1369 1.429 . S
C1373 C1374 1.523 . S
C1374 C1358 1.368 1_655 S
C1374 C1370 1.368 . S
C1374 C1373 1.523 . S
H1375 C1350 0.950 . S
H1376 C1352 0.950 . S
H1377 C1353 0.949 . S
H1378 C1355 0.950 . S
H1379 C1357 0.950 . S
C1380 C1381 1.349 . S
C1380 C1382 1.327 . S
C1380 H1405 0.950 . S
C1381 C1380 1.349 . S
C1381 C1397 1.349 . S
C1382 C1380 1.327 . S
C1382 C1401 1.429 . S
C1382 H1406 0.950 . S
C1383 C1400 1.574 . S
C1383 C1402 1.368 . S
C1383 H1407 0.949 . S
H1384 C1388 0.949 . S
C1385 C1386 1.349 . S
C1385 C1387 1.327 . S
C1385 H1408 0.950 . S
C1386 C1385 1.349 . S
C1386 C1398 1.349 . S
C1387 C1385 1.327 . S
C1387 C1403 1.429 . S
C1387 H1409 0.950 . S
C1388 H1384 0.949 . S
C1388 C1396 1.574 . S
C1388 C1404 1.368 . S
H1389 C1397 0.950 . S
H1390 C1395 0.950 . S
H1391 C1396 0.949 . S
H1392 C1398 0.950 . S
H1393 C1399 0.950 . S
H1394 C1400 0.949 . S
C1395 H1390 0.950 . S
C1395 C1397 1.327 . S
C1395 C1401 1.429 . S
C1396 C1388 1.574 . S
C1396 H1391 0.949 . S
C1396 C1402 1.368 . S
C1397 C1381 1.349 . S
C1397 H1389 0.950 . S
C1397 C1395 1.327 . S
C1398 C1386 1.349 . S
C1398 H1392 0.950 . S
C1398 C1399 1.327 . S
C1399 H1393 0.950 . S
C1399 C1398 1.327 . S
C1399 C1403 1.429 . S
C1400 C1383 1.574 . S
C1400 H1394 0.949 . S
C1400 C1404 1.368 . S
C1401 C1382 1.429 . S
C1401 C1395 1.429 . S
C1401 C1402 1.523 . S
C1402 C1383 1.368 . S
C1402 C1396 1.368 . S
C1402 C1401 1.523 . S
C1403 C1387 1.429 . S
C1403 C1399 1.429 . S
C1403 C1404 1.523 . S
C1404 C1388 1.368 . S
C1404 C1400 1.368 . S
C1404 C1403 1.523 . S
H1405 C1380 0.950 . S
H1406 C1382 0.950 . S
H1407 C1383 0.949 . S
H1408 C1385 0.950 . S
H1409 C1387 0.950 . S
C1410 C1411 1.349 . S
C1410 C1412 1.327 . S
C1410 H1435 0.950 . S
C1411 C1410 1.349 . S
C1411 C1427 1.349 . S
C1412 C1410 1.327 . S
C1412 C1431 1.429 . S
C1412 H1436 0.950 . S
C1413 C1430 1.574 . S
C1413 C1432 1.368 . S
C1413 H1437 0.949 . S
H1414 C1418 0.949 . S
C1415 C1416 1.349 . S
C1415 C1417 1.327 . S
C1415 H1438 0.950 . S
C1416 C1415 1.349 . S
C1416 C1428 1.349 . S
C1417 C1415 1.327 . S
C1417 C1433 1.429 . S
C1417 H1439 0.950 . S
C1418 H1414 0.949 . S
C1418 C1426 1.574 . S
C1418 C1434 1.368 . S
H1419 C1427 0.950 . S
H1420 C1425 0.950 . S
H1421 C1426 0.949 . S
H1422 C1428 0.950 . S
H1423 C1429 0.950 . S
H1424 C1430 0.949 . S
C1425 H1420 0.950 . S
C1425 C1427 1.327 . S
C1425 C1431 1.429 . S
C1426 C1418 1.574 . S
C1426 H1421 0.949 . S
C1426 C1432 1.368 . S
C1427 C1411 1.349 . S
C1427 H1419 0.950 . S
C1427 C1425 1.327 . S
C1428 C1416 1.349 . S
C1428 H1422 0.950 . S
C1428 C1429 1.327 . S
C1429 H1423 0.950 . S
C1429 C1428 1.327 . S
C1429 C1433 1.429 . S
C1430 C1413 1.574 . S
C1430 H1424 0.949 . S
C1430 C1434 1.368 . S
C1431 C1412 1.429 . S
C1431 C1425 1.429 . S
C1431 C1432 1.523 . S
C1432 C1413 1.368 . S
C1432 C1426 1.368 . S
C1432 C1431 1.523 . S
C1433 C1417 1.429 . S
C1433 C1429 1.429 . S
C1433 C1434 1.523 . S
C1434 C1418 1.368 . S
C1434 C1430 1.368 . S
C1434 C1433 1.523 . S
H1435 C1410 0.950 . S
H1436 C1412 0.950 . S
H1437 C1413 0.949 . S
H1438 C1415 0.950 . S
H1439 C1417 0.950 . S
C1440 C1441 1.349 . S
C1440 C1442 1.327 . S
C1440 H1465 0.950 . S
C1441 C1440 1.349 . S
C1441 C1457 1.349 . S
C1442 C1440 1.327 . S
C1442 C1461 1.429 . S
C1442 H1466 0.950 . S
C1443 C1460 1.574 . S
C1443 C1462 1.368 . S
C1443 H1467 0.949 . S
H1444 C1448 0.949 . S
C1445 C1446 1.349 . S
C1445 C1447 1.327 . S
C1445 H1468 0.950 . S
C1446 C1445 1.349 . S
C1446 C1458 1.349 . S
C1447 C1445 1.327 . S
C1447 C1463 1.429 . S
C1447 H1469 0.950 . S
C1448 H1444 0.949 . S
C1448 C1456 1.574 . S
C1448 C1464 1.368 . S
H1449 C1457 0.950 . S
H1450 C1455 0.950 . S
H1451 C1456 0.949 . S
H1452 C1458 0.950 . S
H1453 C1459 0.950 . S
H1454 C1460 0.949 . S
C1455 H1450 0.950 . S
C1455 C1457 1.327 . S
C1455 C1461 1.429 . S
C1456 C1448 1.574 . S
C1456 H1451 0.949 . S
C1456 C1462 1.368 . S
C1457 C1441 1.349 . S
C1457 H1449 0.950 . S
C1457 C1455 1.327 . S
C1458 C1446 1.349 . S
C1458 H1452 0.950 . S
C1458 C1459 1.327 . S
C1459 H1453 0.950 . S
C1459 C1458 1.327 . S
C1459 C1463 1.429 . S
C1460 C1443 1.574 . S
C1460 H1454 0.949 . S
C1460 C1464 1.368 . S
C1461 C1442 1.429 . S
C1461 C1455 1.429 . S
C1461 C1462 1.523 . S
C1462 C1443 1.368 . S
C1462 C1456 1.368 . S
C1462 C1461 1.523 . S
C1463 C1447 1.429 . S
C1463 C1459 1.429 . S
C1463 C1464 1.523 . S
C1464 C1448 1.368 . S
C1464 C1460 1.368 . S
C1464 C1463 1.523 . S
H1465 C1440 0.950 . S
H1466 C1442 0.950 . S
H1467 C1443 0.949 . S
H1468 C1445 0.950 . S
H1469 C1447 0.950 . S
C1470 C1471 1.349 . S
C1470 C1472 1.327 . S
C1470 H1495 0.950 . S
C1471 C1470 1.349 . S
C1471 C1487 1.349 . S
C1472 C1470 1.327 . S
C1472 C1491 1.429 . S
C1472 H1496 0.950 . S
C1473 C1490 1.574 . S
C1473 C1492 1.368 . S
C1473 H1497 0.949 . S
H1474 C1478 0.949 . S
C1475 C1476 1.349 . S
C1475 C1477 1.327 . S
C1475 H1498 0.950 . S
C1476 C1475 1.349 . S
C1476 C1488 1.349 . S
C1477 C1475 1.327 . S
C1477 C1493 1.429 . S
C1477 H1499 0.950 . S
C1478 H1474 0.949 . S
C1478 C1486 1.574 . S
C1478 C1494 1.368 . S
H1479 C1487 0.950 . S
H1480 C1485 0.950 . S
H1481 C1486 0.949 . S
H1482 C1488 0.950 . S
H1483 C1489 0.950 . S
H1484 C1490 0.949 . S
C1485 H1480 0.950 . S
C1485 C1487 1.327 . S
C1485 C1491 1.429 . S
C1486 C1478 1.574 . S
C1486 H1481 0.949 . S
C1486 C1492 1.368 . S
C1487 C1471 1.349 . S
C1487 H1479 0.950 . S
C1487 C1485 1.327 . S
C1488 C1476 1.349 . S
C1488 H1482 0.950 . S
C1488 C1489 1.327 . S
C1489 H1483 0.950 . S
C1489 C1488 1.327 . S
C1489 C1493 1.429 . S
C1490 C1473 1.574 . S
C1490 H1484 0.949 . S
C1490 C1494 1.368 . S
C1491 C1472 1.429 . S
C1491 C1485 1.429 . S
C1491 C1492 1.523 . S
C1492 C1473 1.368 . S
C1492 C1486 1.368 . S
C1492 C1491 1.523 . S
C1493 C1477 1.429 . S
C1493 C1489 1.429 . S
C1493 C1494 1.523 . S
C1494 C1478 1.368 . S
C1494 C1490 1.368 . S
C1494 C1493 1.523 . S
H1495 C1470 0.950 . S
H1496 C1472 0.950 . S
H1497 C1473 0.949 . S
H1498 C1475 0.950 . S
H1499 C1477 0.950 . S
C1500 C1501 1.349 . S
C1500 C1502 1.327 . S
C1500 H1525 0.950 . S
C1501 C1500 1.349 . S
C1501 C1517 1.349 . S
C1502 C1500 1.327 . S
C1502 C1521 1.429 . S
C1502 H1526 0.950 . S
C1503 C1520 1.574 . S
C1503 C1522 1.368 . S
C1503 H1527 0.949 . S
H1504 C1508 0.949 . S
C1505 C1506 1.349 . S
C1505 C1507 1.327 . S
C1505 H1528 0.950 . S
C1506 C1505 1.349 . S
C1506 C1518 1.349 . S
C1507 C1505 1.327 . S
C1507 C1523 1.429 . S
C1507 H1529 0.950 . S
C1508 H1504 0.949 . S
C1508 C1516 1.574 . S
C1508 C1524 1.368 . S
H1509 C1517 0.950 . S
H1510 C1515 0.950 . S
H1511 C1516 0.949 . S
H1512 C1518 0.950 . S
H1513 C1519 0.950 . S
H1514 C1520 0.949 . S
C1515 H1510 0.950 . S
C1515 C1517 1.327 . S
C1515 C1521 1.429 . S
C1516 C1508 1.574 . S
C1516 H1511 0.949 . S
C1516 C1522 1.368 . S
C1517 C1501 1.349 . S
C1517 H1509 0.950 . S
C1517 C1515 1.327 . S
C1518 C1506 1.349 . S
C1518 H1512 0.950 . S
C1518 C1519 1.327 . S
C1519 H1513 0.950 . S
C1519 C1518 1.327 . S
C1519 C1523 1.429 . S
C1520 C1503 1.574 . S
C1520 H1514 0.949 . S
C1520 C1524 1.368 . S
C1521 C1502 1.429 . S
C1521 C1515 1.429 . S
C1521 C1522 1.523 . S
C1522 C1503 1.368 . S
C1522 C1516 1.368 . S
C1522 C1521 1.523 . S
C1523 C1507 1.429 . S
C1523 C1519 1.429 . S
C1523 C1524 1.523 . S
C1524 C1508 1.368 . S
C1524 C1520 1.368 . S
C1524 C1523 1.523 . S
H1525 C1500 0.950 . S
H1526 C1502 0.950 . S
H1527 C1503 0.949 . S
H1528 C1505 0.950 . S
H1529 C1507 0.950 . S
C1530 C1531 1.349 . S
C1530 C1532 1.327 . S
C1530 H1555 0.950 . S
C1531 C1530 1.349 . S
C1531 C1547 1.349 . S
C1532 C1530 1.327 . S
C1532 C1551 1.429 . S
C1532 H1556 0.950 . S
C1533 C1550 1.574 . S
C1533 C1552 1.368 . S
C1533 H1557 0.949 . S
H1534 C1538 0.949 . S
C1535 C1536 1.349 . S
C1535 C1537 1.327 . S
C1535 H1558 0.950 . S
C1536 C1535 1.349 . S
C1536 C1548 1.349 . S
C1537 C1535 1.327 . S
C1537 C1553 1.429 . S
C1537 H1559 0.950 . S
C1538 H1534 0.949 . S
C1538 C1546 1.574 . S
C1538 C1554 1.368 . S
H1539 C1547 0.950 . S
H1540 C1545 0.950 . S
H1541 C1546 0.949 . S
H1542 C1548 0.950 . S
H1543 C1549 0.950 . S
H1544 C1550 0.949 . S
C1545 H1540 0.950 . S
C1545 C1547 1.327 . S
C1545 C1551 1.429 . S
C1546 C1538 1.574 . S
C1546 H1541 0.949 . S
C1546 C1552 1.368 . S
C1547 C1531 1.349 . S
C1547 H1539 0.950 . S
C1547 C1545 1.327 . S
C1548 C1536 1.349 . S
C1548 H1542 0.950 . S
C1548 C1549 1.327 . S
C1549 H1543 0.950 . S
C1549 C1548 1.327 . S
C1549 C1553 1.429 . S
C1550 C1533 1.574 . S
C1550 H1544 0.949 . S
C1550 C1554 1.368 . S
C1551 C1532 1.429 . S
C1551 C1545 1.429 . S
C1551 C1552 1.523 . S
C1552 C1533 1.368 . S
C1552 C1546 1.368 . S
C1552 C1551 1.523 . S
C1553 C1537 1.429 . S
C1553 C1549 1.429 . S
C1553 C1554 1.523 . S
C1554 C1538 1.368 . S
C1554 C1550 1.368 . S
C1554 C1553 1.523 . S
H1555 C1530 0.950 . S
H1556 C1532 0.950 . S
H1557 C1533 0.949 . S
H1558 C1535 0.950 . S
H1559 C1537 0.950 . S
C481 C9 0.978 . S
C486 C329 0.978 . S
C511 C49 0.978 . S
C516 C369 0.978 . S
C541 C89 0.979 . S
C546 C409 0.979 . S
C571 C449 0.978 . S
C576 C129 0.978 . S
C601 C169 0.978 . S
C606 C249 0.978 . S
C631 C289 0.979 . S
C636 C209 0.979 . S
C661 C415 1.581 . S
C666 C15 1.581 . S
C691 C455 1.581 . S
C696 C55 1.581 . S
C721 C95 1.581 . S
C726 C255 1.581 . S
C751 C295 1.581 . S
C756 C135 1.581 . S
C781 C335 1.581 . S
C786 C175 1.581 . S
C811 C215 1.581 . S
C816 C375 1.581 . S
C841 C299 4.144 . S
C846 C19 4.144 . S
C871 C339 4.144 . S
C876 C59 4.144 . S
C901 C379 4.144 . S
C906 C99 4.144 . S
C931 C139 4.144 . S
C936 C419 4.144 . S
C961 C179 4.144 . S
C966 C459 4.144 . S
C991 C219 4.144 . S
C996 C259 4.144 . S
C1021 C18 0.831 . S
C1026 C138 0.831 . S
C1051 C58 0.831 . S
C1056 C178 0.831 . S
C1081 C98 0.830 . S
C1086 C218 0.830 . S
C1111 C378 0.831 . S
C1116 C258 0.831 . S
C1141 C298 0.830 . S
C1146 C418 0.830 . S
C1171 C458 0.831 . S
C1176 C338 0.831 . S
C1201 C286 0.733 . S
C1206 C6 0.733 . S
C1231 C326 0.733 . S
C1236 C46 0.733 . S
C1261 C86 0.733 . S
C1266 C366 0.733 . S
C1291 C406 0.733 . S
C1296 C126 0.733 . S
C1321 C446 0.733 . S
C1326 C166 0.733 . S
C1351 C206 0.733 . S
C1356 C246 0.733 . S
C1381 C10 4.721 . S
C1386 C410 4.721 . S
C1411 C50 4.720 . S
C1416 C450 4.720 1_556 S
C1441 C90 4.721 1_554 S
C1446 C250 4.721 . S
C1471 C130 4.721 . S
C1476 C290 4.721 . S
C1501 C170 4.720 . S
C1506 C330 4.720 1_556 S
C1531 C370 4.721 . S
C1536 C210 4.721 1_554 S
