# Generated by pormake.
# Topology vbb, (4)-cn, num edge types: 1
# Building blocks:
#     Node 0, Type 0, BuildingBlock: ESEHIV_clean_sbu_0, # of connection points: 4
#     Node 1, Type 0, BuildingBlock: ESEHIV_clean_sbu_0, # of connection points: 4
#     Node 2, Type 0, BuildingBlock: ESEHIV_clean_sbu_0, # of connection points: 4
#     Node 3, Type 0, BuildingBlock: ESEHIV_clean_sbu_0, # of connection points: 4
#     Node 4, Type 0, BuildingBlock: ESEHIV_clean_sbu_0, # of connection points: 4
#     Node 5, Type 0, BuildingBlock: ESEHIV_clean_sbu_0, # of connection points: 4
#     Node 6, Type 0, BuildingBlock: ESEHIV_clean_sbu_0, # of connection points: 4
#     Node 7, Type 0, BuildingBlock: ESEHIV_clean_sbu_0, # of connection points: 4
#     Node 8, Type 0, BuildingBlock: ESEHIV_clean_sbu_0, # of connection points: 4
#     Node 9, Type 0, BuildingBlock: ESEHIV_clean_sbu_0, # of connection points: 4
#     Node 10, Type 0, BuildingBlock: ESEHIV_clean_sbu_0, # of connection points: 4
#     Node 11, Type 0, BuildingBlock: ESEHIV_clean_sbu_0, # of connection points: 4
#     Node 12, Type 0, BuildingBlock: ESEHIV_clean_sbu_0, # of connection points: 4
#     Node 13, Type 0, BuildingBlock: ESEHIV_clean_sbu_0, # of connection points: 4
#     Node 14, Type 0, BuildingBlock: ESEHIV_clean_sbu_0, # of connection points: 4
#     Node 15, Type 0, BuildingBlock: ESEHIV_clean_sbu_0, # of connection points: 4
#     Node 16, Type 0, BuildingBlock: ESEHIV_clean_sbu_0, # of connection points: 4
#     Node 17, Type 0, BuildingBlock: ESEHIV_clean_sbu_0, # of connection points: 4
#     Node 18, Type 0, BuildingBlock: ESEHIV_clean_sbu_0, # of connection points: 4
#     Node 19, Type 0, BuildingBlock: ESEHIV_clean_sbu_0, # of connection points: 4
#     Node 20, Type 0, BuildingBlock: ESEHIV_clean_sbu_0, # of connection points: 4
#     Node 21, Type 0, BuildingBlock: ESEHIV_clean_sbu_0, # of connection points: 4
#     Node 22, Type 0, BuildingBlock: ESEHIV_clean_sbu_0, # of connection points: 4
#     Node 23, Type 0, BuildingBlock: ESEHIV_clean_sbu_0, # of connection points: 4
#     Node 24, Type 0, BuildingBlock: ESEHIV_clean_sbu_0, # of connection points: 4
#     Node 25, Type 0, BuildingBlock: ESEHIV_clean_sbu_0, # of connection points: 4
#     Node 26, Type 0, BuildingBlock: ESEHIV_clean_sbu_0, # of connection points: 4
#     Node 27, Type 0, BuildingBlock: ESEHIV_clean_sbu_0, # of connection points: 4
#     Node 28, Type 0, BuildingBlock: ESEHIV_clean_sbu_0, # of connection points: 4
#     Node 29, Type 0, BuildingBlock: ESEHIV_clean_sbu_0, # of connection points: 4
#     Node 30, Type 0, BuildingBlock: ESEHIV_clean_sbu_0, # of connection points: 4
#     Node 31, Type 0, BuildingBlock: ESEHIV_clean_sbu_0, # of connection points: 4
#     Edge 32, Type (0, 0), BuildingBlock: UVAHIK_clean_linker_0, # of connection points: 2
#     Edge 33, Type (0, 0), BuildingBlock: UVAHIK_clean_linker_0, # of connection points: 2
#     Edge 34, Type (0, 0), BuildingBlock: UVAHIK_clean_linker_0, # of connection points: 2
#     Edge 35, Type (0, 0), BuildingBlock: UVAHIK_clean_linker_0, # of connection points: 2
#     Edge 36, Type (0, 0), BuildingBlock: UVAHIK_clean_linker_0, # of connection points: 2
#     Edge 37, Type (0, 0), BuildingBlock: UVAHIK_clean_linker_0, # of connection points: 2
#     Edge 38, Type (0, 0), BuildingBlock: UVAHIK_clean_linker_0, # of connection points: 2
#     Edge 39, Type (0, 0), BuildingBlock: UVAHIK_clean_linker_0, # of connection points: 2
#     Edge 40, Type (0, 0), BuildingBlock: UVAHIK_clean_linker_0, # of connection points: 2
#     Edge 41, Type (0, 0), BuildingBlock: UVAHIK_clean_linker_0, # of connection points: 2
#     Edge 42, Type (0, 0), BuildingBlock: UVAHIK_clean_linker_0, # of connection points: 2
#     Edge 43, Type (0, 0), BuildingBlock: UVAHIK_clean_linker_0, # of connection points: 2
#     Edge 44, Type (0, 0), BuildingBlock: UVAHIK_clean_linker_0, # of connection points: 2
#     Edge 45, Type (0, 0), BuildingBlock: UVAHIK_clean_linker_0, # of connection points: 2
#     Edge 46, Type (0, 0), BuildingBlock: UVAHIK_clean_linker_0, # of connection points: 2
#     Edge 47, Type (0, 0), BuildingBlock: UVAHIK_clean_linker_0, # of connection points: 2
#     Edge 48, Type (0, 0), BuildingBlock: UVAHIK_clean_linker_0, # of connection points: 2
#     Edge 49, Type (0, 0), BuildingBlock: UVAHIK_clean_linker_0, # of connection points: 2
#     Edge 50, Type (0, 0), BuildingBlock: UVAHIK_clean_linker_0, # of connection points: 2
#     Edge 51, Type (0, 0), BuildingBlock: UVAHIK_clean_linker_0, # of connection points: 2
#     Edge 52, Type (0, 0), BuildingBlock: UVAHIK_clean_linker_0, # of connection points: 2
#     Edge 53, Type (0, 0), BuildingBlock: UVAHIK_clean_linker_0, # of connection points: 2
#     Edge 54, Type (0, 0), BuildingBlock: UVAHIK_clean_linker_0, # of connection points: 2
#     Edge 55, Type (0, 0), BuildingBlock: UVAHIK_clean_linker_0, # of connection points: 2
#     Edge 56, Type (0, 0), BuildingBlock: UVAHIK_clean_linker_0, # of connection points: 2
#     Edge 57, Type (0, 0), BuildingBlock: UVAHIK_clean_linker_0, # of connection points: 2
#     Edge 58, Type (0, 0), BuildingBlock: UVAHIK_clean_linker_0, # of connection points: 2
#     Edge 59, Type (0, 0), BuildingBlock: UVAHIK_clean_linker_0, # of connection points: 2
#     Edge 60, Type (0, 0), BuildingBlock: UVAHIK_clean_linker_0, # of connection points: 2
#     Edge 61, Type (0, 0), BuildingBlock: UVAHIK_clean_linker_0, # of connection points: 2
#     Edge 62, Type (0, 0), BuildingBlock: UVAHIK_clean_linker_0, # of connection points: 2
#     Edge 63, Type (0, 0), BuildingBlock: UVAHIK_clean_linker_0, # of connection points: 2
#     Edge 64, Type (0, 0), BuildingBlock: UVAHIK_clean_linker_0, # of connection points: 2
#     Edge 65, Type (0, 0), BuildingBlock: UVAHIK_clean_linker_0, # of connection points: 2
#     Edge 66, Type (0, 0), BuildingBlock: UVAHIK_clean_linker_0, # of connection points: 2
#     Edge 67, Type (0, 0), BuildingBlock: UVAHIK_clean_linker_0, # of connection points: 2
#     Edge 68, Type (0, 0), BuildingBlock: UVAHIK_clean_linker_0, # of connection points: 2
#     Edge 69, Type (0, 0), BuildingBlock: UVAHIK_clean_linker_0, # of connection points: 2
#     Edge 70, Type (0, 0), BuildingBlock: UVAHIK_clean_linker_0, # of connection points: 2
#     Edge 71, Type (0, 0), BuildingBlock: UVAHIK_clean_linker_0, # of connection points: 2
#     Edge 72, Type (0, 0), BuildingBlock: UVAHIK_clean_linker_0, # of connection points: 2
#     Edge 73, Type (0, 0), BuildingBlock: UVAHIK_clean_linker_0, # of connection points: 2
#     Edge 74, Type (0, 0), BuildingBlock: UVAHIK_clean_linker_0, # of connection points: 2
#     Edge 75, Type (0, 0), BuildingBlock: UVAHIK_clean_linker_0, # of connection points: 2
#     Edge 76, Type (0, 0), BuildingBlock: UVAHIK_clean_linker_0, # of connection points: 2
#     Edge 77, Type (0, 0), BuildingBlock: UVAHIK_clean_linker_0, # of connection points: 2
#     Edge 78, Type (0, 0), BuildingBlock: UVAHIK_clean_linker_0, # of connection points: 2
#     Edge 79, Type (0, 0), BuildingBlock: UVAHIK_clean_linker_0, # of connection points: 2
#     Edge 80, Type (0, 0), BuildingBlock: UVAHIK_clean_linker_0, # of connection points: 2
#     Edge 81, Type (0, 0), BuildingBlock: UVAHIK_clean_linker_0, # of connection points: 2
#     Edge 82, Type (0, 0), BuildingBlock: UVAHIK_clean_linker_0, # of connection points: 2
#     Edge 83, Type (0, 0), BuildingBlock: UVAHIK_clean_linker_0, # of connection points: 2
#     Edge 84, Type (0, 0), BuildingBlock: UVAHIK_clean_linker_0, # of connection points: 2
#     Edge 85, Type (0, 0), BuildingBlock: UVAHIK_clean_linker_0, # of connection points: 2
#     Edge 86, Type (0, 0), BuildingBlock: UVAHIK_clean_linker_0, # of connection points: 2
#     Edge 87, Type (0, 0), BuildingBlock: UVAHIK_clean_linker_0, # of connection points: 2
#     Edge 88, Type (0, 0), BuildingBlock: UVAHIK_clean_linker_0, # of connection points: 2
#     Edge 89, Type (0, 0), BuildingBlock: UVAHIK_clean_linker_0, # of connection points: 2
#     Edge 90, Type (0, 0), BuildingBlock: UVAHIK_clean_linker_0, # of connection points: 2
#     Edge 91, Type (0, 0), BuildingBlock: UVAHIK_clean_linker_0, # of connection points: 2
#     Edge 92, Type (0, 0), BuildingBlock: UVAHIK_clean_linker_0, # of connection points: 2
#     Edge 93, Type (0, 0), BuildingBlock: UVAHIK_clean_linker_0, # of connection points: 2
#     Edge 94, Type (0, 0), BuildingBlock: UVAHIK_clean_linker_0, # of connection points: 2
#     Edge 95, Type (0, 0), BuildingBlock: UVAHIK_clean_linker_0, # of connection points: 2
# Relax obj value: 0.030
# Max RMSD: 0.075
# Mean RMSD: 0.075
data_MOF--net-vbb--node1-ESEHIV_clean_sbu_0--edge1-UVAHIK_clean_linker_0
_symmetry_space_group_name_H-M    P1
_symmetry_Int_Tables_number       1
_symmetry_cell_setting            triclinic
loop_
_symmetry_equiv_pos_as_xyz
'x, y, z'
_cell_length_a     73.01919
_cell_length_b     45.769546
_cell_length_c     141.71899
_cell_angle_alpha  89.933994
_cell_angle_beta   89.986694
_cell_angle_gamma 89.975134
loop_
_atom_site_label
_atom_site_type_symbol
_atom_site_fract_x
_atom_site_fract_y
_atom_site_fract_z
_atom_type_partial_charge
Cu0 Cu 0.52047 0.00527 0.08807 0.0
N1 N 0.54597 0.00459 0.08916 0.0
N2 N 0.57472 0.02083 0.09069 0.0
C3 C 0.55674 0.02725 0.09159 0.0
C4 C 0.57523 0.99285 0.08768 0.0
C5 C 0.55748 0.98291 0.08674 0.0
O6 O 0.51077 0.03057 0.09786 0.0
C7 C 0.52399 0.02937 0.06958 0.0
O8 O 0.5382 0.04317 0.07309 0.0
H9 H 0.55147 0.04854 0.09346 0.0
H10 H 0.55324 0.96171 0.08418 0.0
N11 N 0.51071 0.96857 0.0907 0.0
N12 N 0.48928 0.93416 0.09239 0.0
C13 C 0.49407 0.95913 0.08797 0.0
C14 C 0.51672 0.94884 0.09703 0.0
C15 C 0.50349 0.92756 0.0981 0.0
C16 C 0.51178 0.0582 0.0986 0.0
O17 O 0.51855 0.07367 0.09161 0.0
H18 H 0.48512 0.97146 0.08336 0.0
H19 H 0.52935 0.95071 0.10097 0.0
O20 O 0.5138 0.01448 0.07508 0.0
H21 H 0.58751 0.98056 0.08608 0.0
H22 H 0.50399 0.90927 0.10294 0.0
Cu23 Cu 0.77595 0.24347 0.08905 0.0
N24 N 0.75045 0.24474 0.09008 0.0
N25 N 0.72159 0.22893 0.09148 0.0
C26 C 0.73951 0.22222 0.09244 0.0
C27 C 0.7213 0.25697 0.0885 0.0
C28 C 0.73913 0.26665 0.08764 0.0
O29 O 0.78519 0.21768 0.09884 0.0
C30 C 0.77239 0.21935 0.07059 0.0
O31 O 0.7581 0.20576 0.0741 0.0
H32 H 0.74463 0.2008 0.09429 0.0
H33 H 0.74354 0.28781 0.08511 0.0
N34 N 0.78608 0.27986 0.09172 0.0
N35 N 0.80785 0.31374 0.09337 0.0
C36 C 0.80274 0.28902 0.08892 0.0
C37 C 0.78038 0.29952 0.09813 0.0
C38 C 0.79382 0.32047 0.09918 0.0
C39 C 0.7843 0.18998 0.09934 0.0
O40 O 0.77802 0.17502 0.09213 0.0
H41 H 0.81149 0.27663 0.08422 0.0
H42 H 0.76782 0.29781 0.10214 0.0
O43 O 0.78262 0.23415 0.07607 0.0
H44 H 0.70912 0.26947 0.08685 0.0
H45 H 0.79359 0.33861 0.10408 0.0
Cu46 Cu 0.51964 0.24187 0.20111 0.0
N47 N 0.54513 0.24308 0.20008 0.0
N48 N 0.57399 0.22725 0.19865 0.0
C49 C 0.55607 0.22055 0.19772 0.0
C50 C 0.57429 0.25529 0.20162 0.0
C51 C 0.55646 0.26498 0.20249 0.0
O52 O 0.51036 0.21617 0.19133 0.0
C53 C 0.52312 0.21746 0.21956 0.0
O54 O 0.53729 0.20359 0.21602 0.0
H55 H 0.55093 0.19914 0.19588 0.0
H56 H 0.55205 0.28615 0.205 0.0
N57 N 0.50956 0.27832 0.19844 0.0
N58 N 0.48784 0.31232 0.1968 0.0
C59 C 0.49294 0.28757 0.20127 0.0
C60 C 0.51525 0.29793 0.192 0.0
C61 C 0.50184 0.31896 0.19096 0.0
C62 C 0.51124 0.18848 0.19083 0.0
O63 O 0.51755 0.17344 0.19803 0.0
H64 H 0.4842 0.27523 0.20599 0.0
H65 H 0.52777 0.29614 0.18796 0.0
O66 O 0.51299 0.23253 0.21409 0.0
H67 H 0.58647 0.26778 0.20322 0.0
H68 H 0.50205 0.33708 0.18604 0.0
Cu69 Cu 0.7756 0.0053 0.20203 0.0
N70 N 0.75012 0.00412 0.20089 0.0
N71 N 0.72127 0.01986 0.19929 0.0
C72 C 0.73921 0.02656 0.1984 0.0
C73 C 0.72094 0.99192 0.20237 0.0
C74 C 0.73876 0.98228 0.20334 0.0
O75 O 0.78514 0.03084 0.19225 0.0
C76 C 0.77178 0.02951 0.22047 0.0
O77 O 0.75756 0.04316 0.2169 0.0
H78 H 0.74435 0.04791 0.1965 0.0
H79 H 0.74313 0.96119 0.20596 0.0
N80 N 0.78567 0.96881 0.19943 0.0
N81 N 0.80742 0.93489 0.19776 0.0
C82 C 0.80237 0.9597 0.20219 0.0
C83 C 0.77989 0.94904 0.19308 0.0
C84 C 0.79332 0.92806 0.19202 0.0
C85 C 0.78394 0.05846 0.19151 0.0
O86 O 0.77706 0.07376 0.19851 0.0
H87 H 0.81119 0.97218 0.20681 0.0
H88 H 0.76728 0.9507 0.18911 0.0
O89 O 0.78207 0.01464 0.21503 0.0
H90 H 0.70874 0.97946 0.20398 0.0
H91 H 0.79304 0.90986 0.18715 0.0
Cu92 Cu 0.52516 0.99381 0.95115 0.0
N93 N 0.49965 0.99441 0.9501 0.0
N94 N 0.4709 0.97814 0.94866 0.0
C95 C 0.48886 0.97171 0.94774 0.0
C96 C 0.47041 0.00618 0.95163 0.0
C97 C 0.48817 0.01613 0.9525 0.0
O98 O 0.53483 0.96827 0.94141 0.0
C99 C 0.52179 0.96994 0.96967 0.0
O100 O 0.50763 0.95594 0.96619 0.0
H101 H 0.49413 0.95038 0.94591 0.0
H102 H 0.49243 0.03738 0.95501 0.0
N103 N 0.5348 0.03052 0.94843 0.0
N104 N 0.55598 0.06532 0.94672 0.0
C105 C 0.55137 0.04026 0.95115 0.0
C106 C 0.52864 0.05012 0.9421 0.0
C107 C 0.54171 0.07164 0.94101 0.0
C108 C 0.53387 0.9406 0.94078 0.0
O109 O 0.52716 0.92539 0.94785 0.0
H110 H 0.5604 0.02814 0.95578 0.0
H111 H 0.516 0.04805 0.93818 0.0
O112 O 0.5319 0.98488 0.96415 0.0
H113 H 0.45815 0.0185 0.95322 0.0
H114 H 0.54106 0.08992 0.93617 0.0
Cu115 Cu 0.26992 0.75485 0.95156 0.0
N116 N 0.29542 0.75386 0.95048 0.0
N117 N 0.32423 0.76978 0.94895 0.0
C118 C 0.30629 0.77637 0.94802 0.0
C119 C 0.32461 0.74184 0.95203 0.0
C120 C 0.30682 0.7321 0.95296 0.0
O121 O 0.26038 0.78025 0.94173 0.0
C122 C 0.27357 0.77884 0.97004 0.0
O123 O 0.28787 0.79241 0.96652 0.0
H124 H 0.30111 0.79769 0.94611 0.0
H125 H 0.30248 0.71098 0.95557 0.0
N126 N 0.26002 0.71825 0.94896 0.0
N127 N 0.23853 0.68393 0.94733 0.0
C128 C 0.24338 0.70889 0.95173 0.0
C129 C 0.26597 0.69849 0.94264 0.0
C130 C 0.2527 0.67727 0.94161 0.0
C131 C 0.26153 0.80787 0.94097 0.0
O132 O 0.26833 0.82327 0.94795 0.0
H133 H 0.23448 0.72125 0.95635 0.0
H134 H 0.27859 0.70029 0.93868 0.0
O135 O 0.26328 0.76416 0.96455 0.0
H136 H 0.33684 0.72946 0.95367 0.0
H137 H 0.25314 0.65897 0.93678 0.0
Cu138 Cu 0.52623 0.75275 0.83901 0.0
N139 N 0.50071 0.75213 0.83994 0.0
N140 N 0.47195 0.76851 0.84125 0.0
C141 C 0.4899 0.77483 0.8423 0.0
C142 C 0.47149 0.74056 0.8382 0.0
C143 C 0.48925 0.73054 0.8374 0.0
O144 O 0.53559 0.7785 0.84876 0.0
C145 C 0.52313 0.77692 0.82053 0.0
O146 O 0.50907 0.79116 0.82403 0.0
H147 H 0.49517 0.79607 0.84423 0.0
H148 H 0.49354 0.70936 0.83484 0.0
N149 N 0.53587 0.71606 0.84179 0.0
N150 N 0.55691 0.68103 0.84358 0.0
C151 C 0.55265 0.70653 0.83932 0.0
C152 C 0.52922 0.69587 0.84778 0.0
C153 C 0.54219 0.67421 0.84891 0.0
C154 C 0.53491 0.80623 0.84915 0.0
O155 O 0.5288 0.82108 0.84186 0.0
H156 H 0.56198 0.71899 0.83494 0.0
H157 H 0.51622 0.6975 0.85141 0.0
O158 O 0.5331 0.76168 0.82603 0.0
H159 H 0.45925 0.72836 0.83649 0.0
H160 H 0.54109 0.65535 0.85349 0.0
Cu161 Cu 0.27096 0.99201 0.83843 0.0
N162 N 0.29644 0.99303 0.83953 0.0
N163 N 0.32525 0.97705 0.84106 0.0
C164 C 0.3073 0.97042 0.84192 0.0
C165 C 0.32564 0.00513 0.83811 0.0
C166 C 0.30785 0.01491 0.83718 0.0
O167 O 0.2615 0.96619 0.84815 0.0
C168 C 0.27466 0.9684 0.81989 0.0
O169 O 0.28892 0.95466 0.82339 0.0
H170 H 0.3021 0.94902 0.84372 0.0
H171 H 0.30352 0.03614 0.83466 0.0
N172 N 0.26096 0.02845 0.84115 0.0
N173 N 0.23931 0.06253 0.84282 0.0
C174 C 0.24439 0.0379 0.8383 0.0
C175 C 0.26663 0.04783 0.84765 0.0
C176 C 0.25326 0.0689 0.84871 0.0
C177 C 0.26236 0.93849 0.84867 0.0
O178 O 0.26879 0.92348 0.8415 0.0
H179 H 0.23568 0.02576 0.83352 0.0
H180 H 0.2791 0.04582 0.85172 0.0
O181 O 0.26439 0.98306 0.8254 0.0
H182 H 0.33787 0.01758 0.83656 0.0
H183 H 0.25346 0.08686 0.85368 0.0
Cu184 Cu 0.51976 0.50656 0.58895 0.0
N185 N 0.54527 0.50541 0.58993 0.0
N186 N 0.57414 0.5212 0.59131 0.0
C187 C 0.55622 0.5279 0.5923 0.0
C188 C 0.57442 0.49321 0.58829 0.0
C189 C 0.55659 0.48355 0.58745 0.0
O190 O 0.5104 0.53183 0.59883 0.0
C191 C 0.52314 0.53096 0.57048 0.0
O192 O 0.53747 0.54453 0.57395 0.0
H193 H 0.55111 0.54927 0.59418 0.0
H194 H 0.55217 0.46242 0.58491 0.0
N195 N 0.50977 0.46998 0.59153 0.0
N196 N 0.48811 0.43589 0.59311 0.0
C197 C 0.49315 0.46076 0.5887 0.0
C198 C 0.51552 0.45022 0.5979 0.0
C199 C 0.50215 0.42914 0.59891 0.0
C200 C 0.51152 0.55945 0.59959 0.0
O201 O 0.51819 0.57492 0.59258 0.0
H202 H 0.48437 0.4732 0.58403 0.0
H203 H 0.52806 0.45195 0.60193 0.0
O204 O 0.51296 0.51616 0.57601 0.0
H205 H 0.58659 0.48074 0.58663 0.0
H206 H 0.50242 0.41091 0.60378 0.0
Cu207 Cu 0.77575 0.74317 0.58811 0.0
N208 N 0.75028 0.74433 0.58925 0.0
N209 N 0.72146 0.72846 0.59082 0.0
C210 C 0.7394 0.72178 0.59168 0.0
C211 C 0.72108 0.7565 0.58784 0.0
C212 C 0.73887 0.76621 0.58688 0.0
O213 O 0.7852 0.71729 0.59782 0.0
C214 C 0.77195 0.71924 0.56963 0.0
O215 O 0.75778 0.70545 0.5732 0.0
H216 H 0.74459 0.70038 0.5935 0.0
H217 H 0.74322 0.78739 0.58434 0.0
N218 N 0.78587 0.77956 0.5908 0.0
N219 N 0.80764 0.8134 0.59251 0.0
C220 C 0.80255 0.78871 0.58803 0.0
C221 C 0.78014 0.79917 0.59722 0.0
C222 C 0.79358 0.8201 0.5983 0.0
C223 C 0.78429 0.6896 0.59833 0.0
O224 O 0.77781 0.67466 0.59116 0.0
H225 H 0.81132 0.77635 0.58334 0.0
H226 H 0.76755 0.79743 0.60121 0.0
O227 O 0.78221 0.73409 0.57508 0.0
H228 H 0.70885 0.76897 0.58628 0.0
H229 H 0.79333 0.83819 0.60322 0.0
Cu230 Cu 0.52083 0.74333 0.70202 0.0
N231 N 0.5463 0.74447 0.70086 0.0
N232 N 0.57512 0.72857 0.69927 0.0
C233 C 0.55717 0.72193 0.69843 0.0
C234 C 0.5755 0.75658 0.70227 0.0
C235 C 0.55771 0.76631 0.70324 0.0
O236 O 0.51137 0.71749 0.69232 0.0
C237 C 0.52466 0.71929 0.7205 0.0
O238 O 0.53882 0.70549 0.71693 0.0
H239 H 0.55198 0.70056 0.6966 0.0
H240 H 0.55337 0.78747 0.70579 0.0
N241 N 0.51072 0.77973 0.69931 0.0
N242 N 0.48894 0.81359 0.69756 0.0
C243 C 0.49402 0.78886 0.70205 0.0
C244 C 0.51649 0.7994 0.69291 0.0
C245 C 0.50304 0.82034 0.6918 0.0
C246 C 0.51229 0.68979 0.69183 0.0
O247 O 0.51878 0.67482 0.699 0.0
H248 H 0.48522 0.77645 0.70672 0.0
H249 H 0.5291 0.7977 0.68894 0.0
O250 O 0.51439 0.73421 0.71505 0.0
H251 H 0.58773 0.76901 0.70383 0.0
H252 H 0.50331 0.83847 0.68689 0.0
Cu253 Cu 0.77651 0.50585 0.70122 0.0
N254 N 0.751 0.50478 0.70023 0.0
N255 N 0.72215 0.52068 0.69883 0.0
C256 C 0.74007 0.52731 0.69784 0.0
C257 C 0.72184 0.49269 0.70187 0.0
C258 C 0.73966 0.48296 0.70272 0.0
O259 O 0.78591 0.53118 0.69135 0.0
C260 C 0.77309 0.53008 0.71968 0.0
O261 O 0.75876 0.54369 0.71621 0.0
H262 H 0.74521 0.54866 0.69594 0.0
H263 H 0.74406 0.46182 0.70528 0.0
N264 N 0.78647 0.46927 0.69864 0.0
N265 N 0.80812 0.43517 0.69702 0.0
C266 C 0.80313 0.46005 0.70142 0.0
C267 C 0.78064 0.44949 0.6923 0.0
C268 C 0.79402 0.42841 0.69127 0.0
C269 C 0.7848 0.55881 0.69059 0.0
O270 O 0.77811 0.57424 0.6976 0.0
H271 H 0.81196 0.4725 0.70605 0.0
H272 H 0.76805 0.45122 0.68831 0.0
O273 O 0.78328 0.51531 0.71417 0.0
H274 H 0.70965 0.48028 0.70354 0.0
H275 H 0.7937 0.41017 0.68641 0.0
Cu276 Cu 0.52754 0.48367 0.45192 0.0
N277 N 0.50222 0.48724 0.45072 0.0
N278 N 0.47307 0.47318 0.44911 0.0
C279 C 0.49083 0.46524 0.44845 0.0
C280 C 0.47335 0.50145 0.45184 0.0
C281 C 0.49138 0.51008 0.45282 0.0
O282 O 0.53434 0.45058 0.44407 0.0
C283 C 0.52321 0.46572 0.47094 0.0
O284 O 0.50984 0.44978 0.46749 0.0
H285 H 0.49554 0.44336 0.44687 0.0
H286 H 0.49624 0.53116 0.45518 0.0
N287 N 0.53918 0.51683 0.44718 0.0
N288 N 0.56134 0.54933 0.44436 0.0
C289 C 0.55513 0.52823 0.45021 0.0
C290 C 0.53504 0.53135 0.43921 0.0
C291 C 0.54871 0.55141 0.43744 0.0
C292 C 0.54964 0.44811 0.43984 0.0
O293 O 0.56305 0.46602 0.44198 0.0
H294 H 0.56261 0.51988 0.45624 0.0
H295 H 0.52335 0.52671 0.43477 0.0
O296 O 0.53335 0.4801 0.46529 0.0
H297 H 0.46141 0.51482 0.4532 0.0
H298 H 0.54956 0.56582 0.43139 0.0
Cu299 Cu 0.26909 0.25596 0.45168 0.0
N300 N 0.29459 0.25463 0.45063 0.0
N301 N 0.3235 0.27018 0.44923 0.0
C302 C 0.30561 0.27705 0.44827 0.0
C303 C 0.3237 0.24214 0.45222 0.0
C304 C 0.30584 0.23263 0.45308 0.0
O305 O 0.25971 0.28148 0.44185 0.0
C306 C 0.27278 0.27996 0.47015 0.0
O307 O 0.28705 0.29358 0.46663 0.0
H308 H 0.30057 0.29851 0.44641 0.0
H309 H 0.30135 0.21152 0.45562 0.0
N310 N 0.25904 0.21949 0.44906 0.0
N311 N 0.23735 0.1855 0.44741 0.0
C312 C 0.24238 0.2103 0.45185 0.0
C313 C 0.26482 0.19978 0.44268 0.0
C314 C 0.25143 0.17876 0.44164 0.0
C315 C 0.26099 0.30908 0.44107 0.0
O316 O 0.26785 0.32444 0.44805 0.0
H317 H 0.23357 0.22271 0.45651 0.0
H318 H 0.2774 0.20151 0.43869 0.0
O319 O 0.26248 0.26528 0.46467 0.0
H320 H 0.33583 0.22955 0.45386 0.0
H321 H 0.25171 0.16058 0.43676 0.0
Cu322 Cu 0.52774 0.26483 0.33817 0.0
N323 N 0.50246 0.26104 0.33945 0.0
N324 N 0.47328 0.2749 0.3411 0.0
C325 C 0.49101 0.28297 0.34172 0.0
C326 C 0.47362 0.24663 0.33837 0.0
C327 C 0.49168 0.23813 0.33737 0.0
O328 O 0.53448 0.29819 0.34592 0.0
C329 C 0.52321 0.28245 0.31913 0.0
O330 O 0.50981 0.29838 0.32257 0.0
H331 H 0.49565 0.30489 0.34329 0.0
H332 H 0.49659 0.21709 0.33499 0.0
N333 N 0.53958 0.23188 0.34293 0.0
N334 N 0.56199 0.1998 0.34573 0.0
C335 C 0.55555 0.22067 0.33986 0.0
C336 C 0.53566 0.21747 0.35096 0.0
C337 C 0.54949 0.19767 0.35271 0.0
C338 C 0.54976 0.3008 0.35016 0.0
O339 O 0.56317 0.28273 0.34813 0.0
H340 H 0.5629 0.22904 0.33379 0.0
H341 H 0.52401 0.22205 0.35544 0.0
O342 O 0.53341 0.26821 0.32478 0.0
H343 H 0.46172 0.2332 0.33702 0.0
H344 H 0.55054 0.18344 0.35879 0.0
Cu345 Cu 0.26948 0.49298 0.33838 0.0
N346 N 0.29497 0.49408 0.33937 0.0
N347 N 0.32383 0.47825 0.34075 0.0
C348 C 0.30592 0.47153 0.34172 0.0
C349 C 0.32411 0.5063 0.33777 0.0
C350 C 0.30629 0.51598 0.33693 0.0
O351 O 0.26018 0.46722 0.34817 0.0
C352 C 0.27295 0.46912 0.31988 0.0
O353 O 0.28716 0.45527 0.32338 0.0
H354 H 0.3008 0.45013 0.34358 0.0
H355 H 0.30186 0.53716 0.33442 0.0
N356 N 0.25955 0.52948 0.34111 0.0
N357 N 0.23808 0.56382 0.34281 0.0
C358 C 0.24294 0.53896 0.33835 0.0
C359 C 0.26548 0.54904 0.34749 0.0
C360 C 0.25223 0.57028 0.34857 0.0
C361 C 0.26111 0.43953 0.34871 0.0
O362 O 0.26747 0.4245 0.34153 0.0
H363 H 0.23406 0.52677 0.33367 0.0
H364 H 0.27809 0.5471 0.35145 0.0
O365 O 0.26276 0.48394 0.32538 0.0
H366 H 0.33628 0.51879 0.33614 0.0
H367 H 0.25266 0.58845 0.35344 0.0
Cu368 Cu 1.02014 0.00553 0.5884 0.0
N369 N 0.04564 0.00457 0.58948 0.0
N370 N 0.07445 0.02053 0.59099 0.0
C371 C 0.05651 0.02712 0.5919 0.0
C372 C 0.07485 0.99255 0.58797 0.0
C373 C 0.05706 0.98279 0.58705 0.0
O374 O 1.01059 0.03097 0.59819 0.0
C375 C 0.0238 0.02927 0.56987 0.0
O376 O 0.03816 0.04277 0.57333 0.0
H377 H 0.05132 0.04846 0.59378 0.0
H378 H 0.05273 0.96164 0.58448 0.0
N379 N 1.01025 0.96893 0.59105 0.0
N380 N 0.98875 0.93461 0.5927 0.0
C381 C 0.99364 0.95953 0.58827 0.0
C382 C 1.01614 0.94925 0.59742 0.0
C383 C 1.00287 0.92803 0.59846 0.0
C384 C 1.01173 0.0586 0.59892 0.0
O385 O 1.01851 0.07396 0.59191 0.0
H386 H 0.98478 0.97183 0.5836 0.0
H387 H 0.02873 0.9511 0.6014 0.0
O388 O 1.01349 0.01474 0.5754 0.0
H389 H 0.08708 0.98016 0.58636 0.0
H390 H 1.00328 0.90978 0.60333 0.0
Cu391 Cu 0.27571 0.24348 0.58856 0.0
N392 N 0.25021 0.24442 0.58966 0.0
N393 N 0.22139 0.22844 0.59115 0.0
C394 C 0.23934 0.22184 0.59206 0.0
C395 C 0.221 0.25646 0.58815 0.0
C396 C 0.23879 0.26624 0.58724 0.0
O397 O 0.2853 0.21797 0.59834 0.0
C398 C 0.27203 0.21967 0.57006 0.0
O399 O 0.25779 0.20595 0.57358 0.0
H400 H 0.24453 0.20047 0.59392 0.0
H401 H 0.24313 0.28742 0.58469 0.0
N402 N 0.28559 0.28006 0.5912 0.0
N403 N 0.30709 0.31436 0.59288 0.0
C404 C 0.30223 0.28946 0.58845 0.0
C405 C 0.27965 0.29974 0.59755 0.0
C406 C 0.29292 0.32095 0.59861 0.0
C407 C 0.28417 0.19034 0.59908 0.0
O408 O 0.27736 0.175 0.59208 0.0
H409 H 0.31113 0.27715 0.58381 0.0
H410 H 0.26703 0.2979 0.60151 0.0
O411 O 0.2823 0.23436 0.57555 0.0
H412 H 0.20878 0.26887 0.58654 0.0
H413 H 0.29248 0.33919 0.60346 0.0
Cu414 Cu 1.02094 0.24372 0.70112 0.0
N415 N 0.04641 0.2447 0.69999 0.0
N416 N 0.0752 0.22863 0.6985 0.0
C417 C 0.05725 0.22207 0.69762 0.0
C418 C 0.07562 0.25668 0.70144 0.0
C419 C 0.05784 0.26652 0.70235 0.0
O420 O 1.01143 0.2178 0.69146 0.0
C421 C 0.02472 0.22003 0.71965 0.0
O422 O 0.0388 0.20596 0.71609 0.0
H423 H 0.05204 0.20068 0.69582 0.0
H424 H 0.05353 0.28774 0.70487 0.0
N425 N 1.01094 0.28017 0.69837 0.0
N426 N 0.98937 0.31439 0.69669 0.0
C427 C 0.99435 0.28961 0.70118 0.0
C428 C 1.01674 0.29968 0.69193 0.0
C429 C 1.00342 0.32085 0.69086 0.0
C430 C 1.01231 0.1901 0.69099 0.0
O431 O 1.01877 0.17518 0.69818 0.0
H432 H 0.98556 0.27742 0.70592 0.0
H433 H 0.02929 0.29776 0.68792 0.0
O434 O 1.01448 0.23489 0.71417 0.0
H435 H 0.08786 0.26907 0.70302 0.0
H436 H 1.00375 0.33897 0.68595 0.0
Cu437 Cu 0.27614 0.00507 0.70145 0.0
N438 N 0.25065 0.00404 0.70037 0.0
N439 N 0.22185 0.02004 0.69885 0.0
C440 C 0.23979 0.02661 0.69794 0.0
C441 C 0.22145 0.99205 0.70188 0.0
C442 C 0.23924 0.98226 0.70281 0.0
O443 O 0.28554 0.03094 0.69172 0.0
C444 C 0.27246 0.02872 0.71998 0.0
O445 O 0.2582 0.04245 0.71648 0.0
H446 H 0.245 0.04795 0.69606 0.0
H447 H 0.24357 0.9611 0.70539 0.0
N448 N 0.28613 0.96862 0.69873 0.0
N449 N 0.30768 0.93437 0.69707 0.0
C450 C 0.30273 0.95917 0.70154 0.0
C451 C 0.28031 0.94908 0.69231 0.0
C452 C 0.29362 0.92791 0.69126 0.0
C453 C 0.28463 0.05864 0.69123 0.0
O454 O 0.27823 0.07355 0.69843 0.0
H455 H 0.31152 0.97136 0.70625 0.0
H456 H 0.26775 0.951 0.68831 0.0
O457 O 0.28273 0.01404 0.71447 0.0
H458 H 0.20922 0.97968 0.7035 0.0
H459 H 0.29327 0.90977 0.68637 0.0
Cu460 Cu 0.02509 0.99296 0.45146 0.0
N461 N 0.99959 0.99388 0.45039 0.0
N462 N 0.97079 0.9779 0.44886 0.0
C463 C 0.98874 0.97133 0.44795 0.0
C464 C 0.97038 0.00586 0.45189 0.0
C465 C 0.98816 0.01564 0.45283 0.0
O466 O 0.03466 0.96759 0.44164 0.0
C467 C 1.02146 0.96919 0.46999 0.0
O468 O 1.00709 0.95571 0.46653 0.0
H469 H 0.99395 0.95001 0.44607 0.0
H470 H 0.99248 0.03679 0.45539 0.0
N471 N 0.03492 0.0296 0.44883 0.0
N472 N 0.05635 0.06403 0.44721 0.0
C473 C 0.0515 0.03908 0.45163 0.0
C474 C 0.029 0.04927 0.44246 0.0
C475 C 0.04223 0.07056 0.44143 0.0
C476 C 0.03355 0.93997 0.4409 0.0
O477 O 0.02678 0.92454 0.4479 0.0
H478 H 0.06038 0.02681 0.4563 0.0
H479 H 1.01644 0.04736 0.43847 0.0
O480 O 0.03177 0.98372 0.46445 0.0
H481 H 0.95814 0.01824 0.4535 0.0
H482 H 0.04181 0.08882 0.43657 0.0
Cu483 Cu 0.77008 0.7535 0.45113 0.0
N484 N 0.7956 0.75289 0.45014 0.0
N485 N 0.82436 0.76919 0.44873 0.0
C486 C 0.8064 0.77552 0.44771 0.0
C487 C 0.82483 0.74128 0.45184 0.0
C488 C 0.80708 0.73131 0.4527 0.0
O489 O 0.7605 0.77905 0.44135 0.0
C490 C 0.77336 0.77763 0.4696 0.0
O491 O 0.78745 0.79172 0.46607 0.0
H492 H 0.80113 0.79676 0.44575 0.0
H493 H 0.8028 0.71018 0.45532 0.0
N494 N 0.76045 0.71676 0.44845 0.0
N495 N 0.73935 0.68189 0.44664 0.0
C496 C 0.74359 0.70745 0.45085 0.0
C497 C 0.76718 0.69638 0.44256 0.0
C498 C 0.75417 0.67481 0.44142 0.0
C499 C 0.76148 0.80672 0.44073 0.0
O500 O 0.76812 0.82187 0.44782 0.0
H501 H 0.73419 0.72011 0.45511 0.0
H502 H 0.78025 0.69783 0.439 0.0
O503 O 0.7633 0.76251 0.46412 0.0
H504 H 0.83708 0.72908 0.45356 0.0
H505 H 0.7553 0.65586 0.43689 0.0
Cu506 Cu 0.02521 0.75552 0.33849 0.0
N507 N 0.99973 0.75431 0.33962 0.0
N508 N 0.97091 0.77012 0.34122 0.0
C509 C 0.98885 0.77679 0.34208 0.0
C510 C 0.97055 0.74215 0.33818 0.0
C511 C 0.98835 0.73247 0.33721 0.0
O512 O 0.0346 0.7814 0.34821 0.0
C513 C 1.02135 0.77908 0.31995 0.0
O514 O 1.00703 0.79264 0.32345 0.0
H515 H 0.99402 0.79815 0.34394 0.0
H516 H 0.99272 0.71135 0.33463 0.0
N517 N 0.0353 0.71913 0.34122 0.0
N518 N 0.05701 0.68515 0.34291 0.0
C519 C 0.05193 0.70986 0.33842 0.0
C520 C 0.02958 0.69956 0.34767 0.0
C521 C 0.04299 0.67855 0.34874 0.0
C522 C 0.03361 0.80909 0.34871 0.0
O523 O 0.02712 0.82403 0.34153 0.0
H524 H 0.06068 0.72216 0.33369 0.0
H525 H 1.01703 0.70138 0.35169 0.0
O526 O 0.03171 0.76455 0.32546 0.0
H527 H 0.95833 0.72972 0.33659 0.0
H528 H 0.04275 0.66047 0.35367 0.0
Cu529 Cu 0.77051 0.99557 0.33903 0.0
N530 N 0.79602 0.99597 0.33998 0.0
N531 N 0.82472 0.97938 0.34135 0.0
C532 C 0.80674 0.9732 0.34237 0.0
C533 C 0.82528 0.00733 0.33828 0.0
C534 C 0.80756 0.01747 0.33743 0.0
O535 O 0.76102 0.96979 0.34877 0.0
C536 C 0.77361 0.97165 0.32053 0.0
O537 O 0.78765 0.95736 0.32403 0.0
H538 H 0.8014 0.95199 0.34431 0.0
H539 H 0.80335 0.03869 0.33485 0.0
N540 N 0.761 0.03233 0.34182 0.0
N541 N 0.74011 0.06755 0.34363 0.0
C542 C 0.74423 0.04197 0.33939 0.0
C543 C 0.7678 0.0525 0.34775 0.0
C544 C 0.75493 0.07429 0.34889 0.0
C545 C 0.76162 0.94205 0.34914 0.0
O546 O 0.76774 0.92725 0.34186 0.0
H547 H 0.73481 0.02957 0.33507 0.0
H548 H 0.78085 0.0508 0.35133 0.0
O549 O 0.76364 0.98684 0.32604 0.0
H550 H 0.83757 0.01944 0.33658 0.0
H551 H 0.75616 0.0932 0.35343 0.0
Cu552 Cu 1.02041 0.50574 0.08856 0.0
N553 N 0.04591 0.5048 0.08965 0.0
N554 N 0.0747 0.52085 0.09114 0.0
C555 C 0.05674 0.52742 0.09202 0.0
C556 C 0.07512 0.4928 0.08818 0.0
C557 C 0.05734 0.48298 0.08727 0.0
O558 O 1.01095 0.5316 0.09826 0.0
C559 C 0.02411 0.52903 0.06996 0.0
O560 O 0.03844 0.54266 0.07342 0.0
H561 H 0.05152 0.54879 0.09384 0.0
H562 H 0.05303 0.46177 0.08475 0.0
N563 N 1.01047 0.46927 0.09133 0.0
N564 N 0.98894 0.43505 0.0931 0.0
C565 C 0.99384 0.45985 0.0886 0.0
C566 C 1.01638 0.44973 0.09775 0.0
C567 C 1.00309 0.42857 0.09886 0.0
C568 C 1.01186 0.55929 0.09876 0.0
O569 O 1.0183 0.57427 0.09158 0.0
H570 H 0.98497 0.47205 0.0839 0.0
H571 H 0.02899 0.45163 0.1017 0.0
O572 O 1.0138 0.51459 0.07552 0.0
H573 H 0.08736 0.4804 0.0866 0.0
H574 H 1.00351 0.41043 0.10377 0.0
Cu575 Cu 0.2761 0.74292 0.08852 0.0
N576 N 0.25063 0.74427 0.08966 0.0
N577 N 0.22177 0.72855 0.09119 0.0
C578 C 0.23969 0.72179 0.09208 0.0
C579 C 0.22146 0.75657 0.08819 0.0
C580 C 0.23928 0.76619 0.08726 0.0
O581 O 0.28545 0.71693 0.09823 0.0
C582 C 0.27217 0.71937 0.07 0.0
O583 O 0.25787 0.70584 0.07352 0.0
H584 H 0.24483 0.70037 0.09392 0.0
H585 H 0.24368 0.78733 0.0847 0.0
N586 N 0.28632 0.77923 0.09123 0.0
N587 N 0.30815 0.813 0.09289 0.0
C588 C 0.30296 0.78837 0.0884 0.0
C589 C 0.2807 0.79879 0.09769 0.0
C590 C 0.29418 0.81967 0.09874 0.0
C591 C 0.28443 0.68924 0.09872 0.0
O592 O 0.27794 0.67439 0.09153 0.0
H593 H 0.31165 0.77604 0.08365 0.0
H594 H 0.26818 0.79705 0.10173 0.0
O595 O 0.28256 0.73388 0.07549 0.0
H596 H 0.20927 0.76908 0.0866 0.0
H597 H 0.29403 0.83772 0.10367 0.0
Cu598 Cu 1.02001 0.74304 0.20153 0.0
N599 N 0.04551 0.74398 0.20045 0.0
N600 N 0.07432 0.72802 0.19892 0.0
C601 C 0.05638 0.72144 0.19801 0.0
C602 C 0.07471 0.75599 0.20195 0.0
C603 C 0.05692 0.76576 0.20289 0.0
O604 O 1.01046 0.71766 0.19172 0.0
C605 C 0.02367 0.71913 0.22004 0.0
O606 O 0.03798 0.70554 0.21655 0.0
H607 H 0.05119 0.70011 0.19614 0.0
H608 H 0.05258 0.7869 0.20546 0.0
N609 N 1.01014 0.77966 0.19891 0.0
N610 N 0.98866 0.81405 0.1973 0.0
C611 C 0.99356 0.78913 0.20173 0.0
C612 C 1.016 0.79931 0.19252 0.0
C613 C 1.00274 0.82058 0.1915 0.0
C614 C 1.01161 0.69003 0.19097 0.0
O615 O 1.01841 0.67461 0.19797 0.0
H616 H 0.98472 0.77686 0.20641 0.0
H617 H 0.02855 0.79741 0.18851 0.0
O618 O 1.01338 0.73378 0.21453 0.0
H619 H 0.08694 0.76837 0.20356 0.0
H620 H 1.00312 0.83882 0.18664 0.0
Cu621 Cu 0.27539 0.50457 0.20144 0.0
N622 N 0.24989 0.50367 0.20036 0.0
N623 N 0.22109 0.5197 0.19886 0.0
C624 C 0.23903 0.52625 0.19793 0.0
C625 C 0.22069 0.49172 0.20189 0.0
C626 C 0.23847 0.48191 0.20281 0.0
O627 O 0.28497 0.52999 0.19163 0.0
C628 C 0.27177 0.52855 0.21992 0.0
O629 O 0.25753 0.54229 0.2164 0.0
H630 H 0.24423 0.54758 0.19605 0.0
H631 H 0.2428 0.46075 0.20539 0.0
N632 N 0.28524 0.46794 0.19881 0.0
N633 N 0.30671 0.43357 0.19715 0.0
C634 C 0.30188 0.45853 0.20156 0.0
C635 C 0.27927 0.44823 0.19249 0.0
C636 C 0.29252 0.42697 0.19144 0.0
C637 C 0.28388 0.55762 0.19089 0.0
O638 O 0.2771 0.57301 0.19789 0.0
H639 H 0.31081 0.47085 0.20618 0.0
H640 H 0.26664 0.45008 0.18855 0.0
O641 O 0.28202 0.51377 0.21443 0.0
H642 H 0.20846 0.47935 0.20352 0.0
H643 H 0.29205 0.40869 0.1866 0.0
Cu644 Cu 0.0259 0.49154 0.95157 0.0
N645 N 1.00042 0.49269 0.95041 0.0
N646 N 0.97158 0.47699 0.94876 0.0
C647 C 0.98952 0.4702 0.94797 0.0
C648 C 0.97123 0.50503 0.95172 0.0
C649 C 0.98904 0.51464 0.95273 0.0
O650 O 0.03547 0.466 0.94179 0.0
C651 C 1.02199 0.46806 0.97013 0.0
O652 O 1.00756 0.45475 0.96666 0.0
H653 H 0.99467 0.44879 0.94616 0.0
H654 H 0.99339 0.53582 0.95525 0.0
N655 N 0.03593 0.52805 0.94892 0.0
N656 N 0.05759 0.56211 0.94728 0.0
C657 C 0.05255 0.53732 0.95173 0.0
C658 C 0.03018 0.5477 0.94251 0.0
C659 C 0.04355 0.56876 0.94146 0.0
C660 C 0.03415 0.4384 0.94103 0.0
O661 O 0.02719 0.42307 0.948 0.0
H662 H 0.06133 0.52496 0.95643 0.0
H663 H 1.01764 0.5459 0.93848 0.0
O664 O 0.03242 0.48236 0.96459 0.0
H665 H 0.95902 0.51761 0.95321 0.0
H666 H 0.04329 0.58691 0.93656 0.0
Cu667 Cu 0.76809 0.26246 0.9519 0.0
N668 N 0.79347 0.25956 0.95023 0.0
N669 N 0.82271 0.273 0.94828 0.0
C670 C 0.80496 0.28075 0.9473 0.0
C671 C 0.82234 0.24561 0.95183 0.0
C672 C 0.80431 0.23741 0.95301 0.0
O673 O 0.75826 0.29188 0.94336 0.0
C674 C 0.77399 0.2815 0.97077 0.0
O675 O 0.78828 0.29495 0.96719 0.0
H676 H 0.80046 0.30207 0.94503 0.0
H677 H 0.79942 0.21722 0.95609 0.0
N678 N 0.75699 0.22749 0.94839 0.0
N679 N 0.735 0.19426 0.94624 0.0
C680 C 0.74031 0.21814 0.95111 0.0
C681 C 0.76248 0.20885 0.94162 0.0
C682 C 0.74891 0.18832 0.94027 0.0
C683 C 0.76231 0.31889 0.94314 0.0
O684 O 0.77258 0.33009 0.94982 0.0
H685 H 0.73181 0.22963 0.95614 0.0
H686 H 0.7751 0.21084 0.93768 0.0
O687 O 0.76294 0.26842 0.96526 0.0
H688 H 0.83422 0.2327 0.9537 0.0
H689 H 0.74905 0.17084 0.93513 0.0
Cu690 Cu 0.02771 0.2568 0.83777 0.0
N691 N 1.00219 0.25599 0.83842 0.0
N692 N 0.97341 0.27251 0.83931 0.0
C693 C 0.9913 0.27869 0.84066 0.0
C694 C 0.97306 0.24462 0.8362 0.0
C695 C 0.99084 0.2345 0.83566 0.0
O696 O 0.03663 0.28206 0.84777 0.0
C697 C 0.02517 0.28183 0.81939 0.0
O698 O 1.01119 0.29627 0.82288 0.0
H699 H 0.9965 0.29989 0.84267 0.0
H700 H 0.99524 0.21338 0.8331 0.0
N701 N 0.03738 0.22008 0.84045 0.0
N702 N 0.05863 0.1854 0.84217 0.0
C703 C 0.05401 0.21049 0.83776 0.0
C704 C 0.03119 0.20034 0.84673 0.0
C705 C 0.04432 0.17889 0.84782 0.0
C706 C 0.03579 0.30974 0.84839 0.0
O707 O 0.02989 0.32513 0.84117 0.0
H708 H 0.06306 0.22275 0.83318 0.0
H709 H 1.01849 0.20227 0.85061 0.0
O710 O 0.03497 0.26629 0.82488 0.0
H711 H 0.9609 0.23255 0.83426 0.0
H712 H 0.04367 0.16052 0.85262 0.0
Cu713 Cu 0.7707 0.48702 0.83823 0.0
N714 N 0.79599 0.49192 0.83891 0.0
N715 N 0.82537 0.47857 0.84 0.0
C716 C 0.80776 0.47042 0.84117 0.0
C717 C 0.82461 0.50652 0.83692 0.0
C718 C 0.80642 0.5147 0.83627 0.0
O719 O 0.76541 0.45443 0.84661 0.0
C720 C 0.77417 0.46696 0.81941 0.0
O721 O 0.78781 0.4516 0.82286 0.0
H722 H 0.80337 0.44862 0.84308 0.0
H723 H 0.80117 0.53535 0.83372 0.0
N724 N 0.75857 0.51992 0.8428 0.0
N725 N 0.73583 0.55147 0.84549 0.0
C726 C 0.74233 0.53028 0.83977 0.0
C727 C 0.76258 0.53519 0.85063 0.0
C728 C 0.74854 0.55467 0.85232 0.0
C729 C 0.75061 0.45115 0.85124 0.0
O730 O 0.73637 0.46755 0.84922 0.0
H731 H 0.7349 0.52114 0.83387 0.0
H732 H 0.77445 0.53143 0.85504 0.0
O733 O 0.76418 0.4817 0.82502 0.0
H734 H 0.83629 0.51988 0.83508 0.0
H735 H 0.74751 0.56945 0.85826 0.0
C736 C 0.50391 0.05424 0.11576 0.0
C737 C 0.5077 0.07193 0.10786 0.0
C738 C 0.50204 0.06647 0.12473 0.0
C739 C 0.49253 0.13421 0.1377 0.0
H740 H 0.52175 0.09859 0.15745 0.0
C741 C 0.50476 0.19107 0.17349 0.0
C742 C 0.5074 0.17405 0.18165 0.0
C743 C 0.50293 0.17795 0.16464 0.0
C744 C 0.51319 0.10854 0.15211 0.0
H745 H 0.51173 0.11661 0.10321 0.0
H746 H 0.50813 0.13808 0.11893 0.0
H747 H 0.5217 0.07744 0.14171 0.0
H748 H 0.50942 0.12971 0.18692 0.0
H749 H 0.50556 0.10667 0.17152 0.0
H750 H 0.48375 0.16507 0.14808 0.0
C751 C 0.50673 0.11466 0.11812 0.0
C752 C 0.51326 0.09646 0.14304 0.0
C753 C 0.50882 0.10236 0.10912 0.0
C754 C 0.50751 0.14348 0.18078 0.0
C755 C 0.50545 0.13029 0.17191 0.0
C756 C 0.49225 0.1461 0.1468 0.0
C757 C 0.50369 0.09675 0.12605 0.0
C758 C 0.50306 0.10929 0.13572 0.0
C759 C 0.50346 0.14737 0.16369 0.0
C760 C 0.50274 0.13362 0.15412 0.0
H761 H 0.5029 0.03072 0.11508 0.0
H762 H 0.49948 0.05216 0.13068 0.0
H763 H 0.48437 0.14437 0.13222 0.0
H764 H 0.50471 0.2147 0.17386 0.0
H765 H 0.50174 0.19197 0.15852 0.0
C766 C 0.79179 0.0548 0.17434 0.0
C767 C 0.78794 0.07235 0.18225 0.0
C768 C 0.7936 0.06718 0.16538 0.0
C769 C 0.8029 0.13516 0.15247 0.0
H770 H 0.77383 0.09963 0.13267 0.0
C771 C 0.79066 0.1924 0.11669 0.0
C772 C 0.7881 0.17546 0.10852 0.0
C773 C 0.79247 0.17919 0.12554 0.0
C774 C 0.78235 0.10956 0.13803 0.0
H775 H 0.78374 0.11693 0.18694 0.0
H776 H 0.78725 0.13865 0.17123 0.0
H777 H 0.77391 0.07826 0.1484 0.0
H778 H 0.7862 0.13118 0.10323 0.0
H779 H 0.79002 0.10798 0.11863 0.0
H780 H 0.81162 0.16621 0.14211 0.0
C781 C 0.78874 0.11523 0.17202 0.0
C782 C 0.78229 0.09736 0.14708 0.0
C783 C 0.78669 0.10278 0.18101 0.0
C784 C 0.78805 0.14488 0.10938 0.0
C785 C 0.79009 0.1316 0.11824 0.0
C786 C 0.80317 0.14717 0.14338 0.0
C787 C 0.79184 0.09746 0.16409 0.0
C788 C 0.79244 0.11015 0.15442 0.0
C789 C 0.79201 0.1486 0.12648 0.0
C790 C 0.79273 0.13473 0.13604 0.0
H791 H 0.79288 0.03129 0.175 0.0
H792 H 0.79622 0.05297 0.15942 0.0
H793 H 0.81102 0.14529 0.15796 0.0
H794 H 0.79067 0.21604 0.11633 0.0
H795 H 0.79361 0.19314 0.13167 0.0
C796 C 0.54119 0.80432 0.86652 0.0
C797 C 0.53872 0.821 0.85827 0.0
C798 C 0.54298 0.81781 0.87531 0.0
C799 C 0.53284 0.88789 0.88749 0.0
H800 H 0.56134 0.85279 0.90763 0.0
C801 C 0.54178 0.94383 0.92361 0.0
C802 C 0.53798 0.92648 0.93158 0.0
C803 C 0.54371 0.93119 0.91469 0.0
C804 C 0.55327 0.86274 0.90208 0.0
H805 H 0.53698 0.86513 0.8528 0.0
H806 H 0.54075 0.88881 0.8681 0.0
H807 H 0.56205 0.83131 0.89188 0.0
H808 H 0.53398 0.882 0.93644 0.0
H809 H 0.53765 0.85984 0.92083 0.0
H810 H 0.52431 0.91954 0.89771 0.0
C811 C 0.54076 0.86517 0.86781 0.0
C812 C 0.5536 0.85041 0.89304 0.0
C813 C 0.53875 0.85161 0.85901 0.0
C814 C 0.53689 0.896 0.93046 0.0
C815 C 0.53904 0.8833 0.92152 0.0
C816 C 0.53271 0.9004 0.89649 0.0
C817 C 0.54258 0.84844 0.87612 0.0
C818 C 0.54323 0.86263 0.88563 0.0
C819 C 0.54209 0.90085 0.91352 0.0
C820 C 0.54279 0.88785 0.90391 0.0
H821 H 0.54114 0.78067 0.86626 0.0
H822 H 0.54404 0.80406 0.88151 0.0
H823 H 0.52437 0.89765 0.88207 0.0
H824 H 0.54276 0.96737 0.92417 0.0
H825 H 0.54629 0.94523 0.90868 0.0
C826 C 0.25847 0.89344 0.85872 0.0
C827 C 0.25839 0.92402 0.85784 0.0
C828 C 0.25629 0.88023 0.86759 0.0
C829 C 0.24277 0.89598 0.89266 0.0
H830 H 0.27205 0.82718 0.89786 0.0
C831 C 0.25881 0.85206 0.9304 0.0
C832 C 0.25761 0.82164 0.93168 0.0
C833 C 0.25685 0.86439 0.92139 0.0
C834 C 0.26365 0.84624 0.89649 0.0
H835 H 0.25561 0.96465 0.86561 0.0
H836 H 0.25243 0.94186 0.88095 0.0
H837 H 0.27232 0.84839 0.88211 0.0
H838 H 0.25282 0.78047 0.92447 0.0
H839 H 0.24964 0.80196 0.90884 0.0
H840 H 0.23471 0.89423 0.90722 0.0
C841 C 0.25369 0.92786 0.87483 0.0
C842 C 0.26371 0.85835 0.88743 0.0
C843 C 0.25565 0.94101 0.86599 0.0
C844 C 0.25388 0.80398 0.92378 0.0
C845 C 0.25216 0.81624 0.91479 0.0
C846 C 0.24292 0.88406 0.90177 0.0
C847 C 0.25419 0.89728 0.8758 0.0
C848 C 0.25333 0.88349 0.88537 0.0
C849 C 0.25388 0.84651 0.91347 0.0
C850 C 0.25339 0.85909 0.90379 0.0
H851 H 0.26046 0.8797 0.85259 0.0
H852 H 0.25638 0.85661 0.86799 0.0
H853 H 0.23431 0.91499 0.89134 0.0
H854 H 0.26167 0.86629 0.93632 0.0
H855 H 0.25831 0.8878 0.92057 0.0
C856 C 0.50875 0.60357 0.61014 0.0
C857 C 0.50766 0.57314 0.60889 0.0
C858 C 0.50681 0.61585 0.61915 0.0
C859 C 0.51382 0.59773 0.64405 0.0
H860 H 0.48415 0.66608 0.64921 0.0
C861 C 0.50853 0.64473 0.6818 0.0
C862 C 0.50832 0.67531 0.68267 0.0
C863 C 0.50637 0.63152 0.67295 0.0
C864 C 0.49269 0.64718 0.64789 0.0
H865 H 0.50311 0.5319 0.61613 0.0
H866 H 0.49995 0.55331 0.63175 0.0
H867 H 0.48459 0.64538 0.63334 0.0
H868 H 0.50535 0.71593 0.67489 0.0
H869 H 0.5022 0.69315 0.65956 0.0
H870 H 0.52253 0.59994 0.65842 0.0
C871 C 0.50236 0.56764 0.62579 0.0
C872 C 0.49287 0.6353 0.63879 0.0
C873 C 0.50408 0.55542 0.6168 0.0
C874 C 0.50548 0.69229 0.67452 0.0
C875 C 0.50355 0.67915 0.66569 0.0
C876 C 0.51385 0.60981 0.65311 0.0
C877 C 0.50397 0.59792 0.62709 0.0
C878 C 0.50346 0.61047 0.63677 0.0
C879 C 0.50417 0.64857 0.66473 0.0
C880 C 0.50334 0.6348 0.65517 0.0
H881 H 0.5115 0.61785 0.60421 0.0
H882 H 0.50817 0.63928 0.61996 0.0
H883 H 0.5223 0.57878 0.64268 0.0
H884 H 0.5106 0.631 0.68794 0.0
H885 H 0.50656 0.6079 0.67256 0.0
C886 C 0.78758 0.60301 0.68004 0.0
C887 C 0.7887 0.57257 0.6813 0.0
C888 C 0.78955 0.61535 0.67103 0.0
C889 C 0.78265 0.59736 0.64614 0.0
H890 H 0.81227 0.66576 0.64099 0.0
C891 C 0.78804 0.64451 0.60837 0.0
C892 C 0.78822 0.67509 0.60749 0.0
C893 C 0.79018 0.63127 0.61723 0.0
C894 C 0.80374 0.64686 0.6423 0.0
H895 H 0.79332 0.53138 0.67407 0.0
H896 H 0.79652 0.5529 0.65845 0.0
H897 H 0.81179 0.64499 0.65686 0.0
H898 H 0.79114 0.71569 0.61526 0.0
H899 H 0.79424 0.69286 0.6306 0.0
H900 H 0.77398 0.59963 0.63176 0.0
C901 C 0.79407 0.56718 0.66441 0.0
C902 C 0.80354 0.63493 0.65141 0.0
C903 C 0.79233 0.55491 0.67339 0.0
C904 C 0.79103 0.69205 0.61564 0.0
C905 C 0.79293 0.67888 0.62448 0.0
C906 C 0.78264 0.60949 0.63707 0.0
C907 C 0.79244 0.59747 0.6631 0.0
C908 C 0.79297 0.61008 0.65342 0.0
C909 C 0.79233 0.6483 0.62545 0.0
C910 C 0.79313 0.6345 0.63501 0.0
H911 H 0.7848 0.61724 0.68597 0.0
H912 H 0.78817 0.63878 0.67022 0.0
H913 H 0.77417 0.5784 0.6475 0.0
H914 H 0.78601 0.6308 0.60224 0.0
H915 H 0.79 0.60765 0.61764 0.0
C916 C 0.5351 0.41802 0.42711 0.0
C917 C 0.55103 0.42934 0.43133 0.0
C918 C 0.53594 0.40424 0.41832 0.0
C919 C 0.56586 0.36655 0.40155 0.0
H920 H 0.53196 0.39578 0.38271 0.0
C921 C 0.56807 0.32449 0.36307 0.0
C922 C 0.55119 0.32018 0.35852 0.0
C923 C 0.56897 0.33957 0.37166 0.0
C924 C 0.54137 0.38699 0.38789 0.0
H925 H 0.58046 0.43363 0.42981 0.0
H926 H 0.58194 0.40879 0.41453 0.0
H927 H 0.53151 0.41611 0.39857 0.0
H928 H 0.52204 0.32901 0.35935 0.0
H929 H 0.52348 0.35438 0.37434 0.0
H930 H 0.57533 0.33671 0.39102 0.0
C931 C 0.5688 0.41095 0.41802 0.0
C932 C 0.54113 0.39876 0.39698 0.0
C933 C 0.56794 0.42517 0.42676 0.0
C934 C 0.53531 0.33212 0.3626 0.0
C935 C 0.53617 0.34683 0.37123 0.0
C936 C 0.56592 0.35441 0.39248 0.0
C937 C 0.55274 0.40104 0.4136 0.0
C938 C 0.55329 0.38857 0.40393 0.0
C939 C 0.55297 0.35041 0.37597 0.0
C940 C 0.55359 0.36434 0.38552 0.0
H941 H 0.52183 0.42087 0.4304 0.0
H942 H 0.52337 0.39647 0.41513 0.0
H943 H 0.57533 0.3582 0.40678 0.0
H944 H 0.58057 0.31567 0.3601 0.0
H945 H 0.58222 0.34241 0.37496 0.0
C946 C 0.25739 0.39455 0.3588 0.0
C947 C 0.25728 0.42512 0.3579 0.0
C948 C 0.25533 0.38138 0.36768 0.0
C949 C 0.2421 0.39724 0.39278 0.0
H950 H 0.27139 0.32841 0.39793 0.0
C951 C 0.25834 0.35328 0.4305 0.0
C952 C 0.25709 0.32286 0.43178 0.0
C953 C 0.25637 0.36562 0.42149 0.0
C954 C 0.263 0.34748 0.39658 0.0
H955 H 0.2546 0.46579 0.36565 0.0
H956 H 0.25163 0.44308 0.38102 0.0
H957 H 0.27153 0.3496 0.38217 0.0
H958 H 0.25224 0.28171 0.42457 0.0
H959 H 0.24904 0.30322 0.40895 0.0
H960 H 0.23417 0.39552 0.40736 0.0
C961 C 0.25282 0.42905 0.37491 0.0
C962 C 0.26298 0.35958 0.38751 0.0
C963 C 0.25465 0.44215 0.36605 0.0
C964 C 0.25333 0.30522 0.42388 0.0
C965 C 0.2516 0.31749 0.4149 0.0
C966 C 0.24233 0.38534 0.4019 0.0
C967 C 0.25333 0.39847 0.37589 0.0
C968 C 0.25258 0.38472 0.38547 0.0
C969 C 0.25335 0.34776 0.41357 0.0
C970 C 0.2528 0.36035 0.40389 0.0
H971 H 0.2593 0.38077 0.35267 0.0
H972 H 0.25543 0.35776 0.3681 0.0
H973 H 0.23364 0.41625 0.39149 0.0
H974 H 0.26122 0.3675 0.43642 0.0
H975 H 0.25785 0.38903 0.42068 0.0
C976 C 1.00412 0.05481 0.61612 0.0
C977 C 1.00779 0.07242 0.60819 0.0
C978 C 1.00237 0.06715 0.62509 0.0
C979 C 0.99298 0.13504 0.638 0.0
H980 H 1.02245 0.09972 0.65771 0.0
C981 C 1.00557 0.19241 0.67367 0.0
C982 C 1.00835 0.17552 0.68185 0.0
C983 C 1.00364 0.17917 0.66485 0.0
C984 C 1.01382 0.10959 0.65238 0.0
H985 H 1.01176 0.11705 0.60347 0.0
H986 H 1.00837 0.13869 0.61918 0.0
H987 H 1.02223 0.07835 0.642 0.0
H988 H 1.0105 0.13126 0.68718 0.0
H989 H 1.00647 0.10799 0.67182 0.0
H990 H 0.9843 0.16601 0.64837 0.0
C991 C 1.00696 0.11526 0.61841 0.0
C992 C 1.01379 0.09738 0.64334 0.0
C993 C 1.00894 0.10286 0.60941 0.0
C994 C 1.00849 0.14493 0.68102 0.0
C995 C 1.00633 0.13162 0.67218 0.0
C996 C 0.9928 0.14704 0.64709 0.0
C997 C 1.00403 0.09744 0.62636 0.0
C998 C 1.00351 0.1101 0.63602 0.0
C999 C 1.0042 0.14858 0.66394 0.0
C1000 C 1.00338 0.13468 0.6544 0.0
H1001 H 1.00311 0.03129 0.61547 0.0
H1002 H 0.99989 0.0529 0.63106 0.0
H1003 H 0.98475 0.14511 0.63253 0.0
H1004 H 1.00549 0.21605 0.67401 0.0
H1005 H 1.00235 0.1931 0.65871 0.0
C1006 C 0.28705 0.14603 0.60958 0.0
C1007 C 0.28818 0.17647 0.60834 0.0
C1008 C 0.28911 0.13359 0.61857 0.0
C1009 C 0.28253 0.15136 0.64351 0.0
H1010 H 0.31207 0.08271 0.64848 0.0
C1011 C 0.28831 0.10379 0.68121 0.0
C1012 C 0.28846 0.0732 0.68206 0.0
C1013 C 0.29035 0.1171 0.67235 0.0
C1014 C 0.30356 0.10168 0.64722 0.0
H1015 H 0.29294 0.21757 0.6156 0.0
H1016 H 0.2963 0.19589 0.63119 0.0
H1017 H 0.31145 0.10366 0.63263 0.0
H1018 H 0.29122 0.03267 0.67425 0.0
H1019 H 0.29416 0.05562 0.65891 0.0
H1020 H 0.27404 0.14899 0.65792 0.0
C1021 C 0.29376 0.18167 0.62522 0.0
C1022 C 0.30328 0.11371 0.63812 0.0
C1023 C 0.29193 0.19404 0.61626 0.0
C1024 C 0.29113 0.05631 0.67389 0.0
C1025 C 0.29294 0.06955 0.66505 0.0
C1026 C 0.28261 0.13914 0.65256 0.0
C1027 C 0.29211 0.15137 0.62651 0.0
C1028 C 0.29274 0.13866 0.63617 0.0
C1029 C 0.29237 0.10014 0.66411 0.0
C1030 C 0.29307 0.11403 0.65456 0.0
H1031 H 0.28418 0.13186 0.60364 0.0
H1032 H 0.28771 0.11015 0.61935 0.0
H1033 H 0.27408 0.1704 0.64219 0.0
H1034 H 0.28637 0.11746 0.68736 0.0
H1035 H 0.2902 0.14072 0.67197 0.0
C1036 C 0.04022 0.80664 0.36604 0.0
C1037 C 0.03746 0.82359 0.35787 0.0
C1038 C 0.04205 0.81981 0.37488 0.0
C1039 C 0.03166 0.88923 0.3874 0.0
H1040 H 0.0607 0.8537 0.40727 0.0
C1041 C 0.04116 0.94386 0.4237 0.0
C1042 C 0.0375 0.9262 0.43162 0.0
C1043 C 0.04294 0.93157 0.41473 0.0
C1044 C 0.05247 0.86377 0.40179 0.0
H1045 H 0.03524 0.86789 0.35259 0.0
H1046 H 0.0391 0.89103 0.36798 0.0
H1047 H 0.06125 0.8329 0.39141 0.0
H1048 H 0.03361 0.88153 0.43632 0.0
H1049 H 0.03705 0.85998 0.4206 0.0
H1050 H 1.02316 0.92037 0.3978 0.0
C1051 C 0.0393 0.86741 0.36759 0.0
C1052 C 0.05272 0.85182 0.3927 0.0
C1053 C 0.03724 0.85417 0.35873 0.0
C1054 C 0.03641 0.89577 0.43038 0.0
C1055 C 0.03842 0.88341 0.42139 0.0
C1056 C 0.03163 0.90138 0.39646 0.0
C1057 C 0.04142 0.85038 0.37582 0.0
C1058 C 0.04215 0.86419 0.38538 0.0
C1059 C 0.04133 0.90128 0.41344 0.0
C1060 C 0.0419 0.88866 0.40377 0.0
H1061 H 0.04036 0.783 0.36567 0.0
H1062 H 0.04334 0.80582 0.38101 0.0
H1063 H 1.02304 0.8991 0.38207 0.0
H1064 H 0.04213 0.96738 0.42436 0.0
H1065 H 0.0454 0.94586 0.40876 0.0
C1066 C 0.75377 0.80367 0.42353 0.0
C1067 C 0.75749 0.82093 0.43152 0.0
C1068 C 0.75196 0.8164 0.41462 0.0
C1069 C 0.74263 0.88503 0.402 0.0
H1070 H 0.77168 0.85021 0.38205 0.0
C1071 C 0.7552 0.9438 0.3665 0.0
C1072 C 0.75771 0.9272 0.35825 0.0
C1073 C 0.7533 0.93022 0.37529 0.0
C1074 C 0.76316 0.85995 0.38745 0.0
H1075 H 0.76147 0.86535 0.43641 0.0
H1076 H 0.758 0.88768 0.42079 0.0
H1077 H 0.77153 0.82814 0.39768 0.0
H1078 H 0.75941 0.88313 0.35276 0.0
H1079 H 0.75545 0.8593 0.36804 0.0
H1080 H 0.73402 0.91662 0.39179 0.0
C1081 C 0.75659 0.86421 0.42147 0.0
C1082 C 0.76317 0.84734 0.39645 0.0
C1083 C 0.75862 0.85142 0.43041 0.0
C1084 C 0.7576 0.89658 0.35897 0.0
C1085 C 0.75549 0.88294 0.36777 0.0
C1086 C 0.74242 0.89746 0.39297 0.0
C1087 C 0.75361 0.84675 0.41345 0.0
C1088 C 0.75303 0.85985 0.40384 0.0
C1089 C 0.75363 0.89958 0.37608 0.0
C1090 C 0.75284 0.88529 0.38557 0.0
H1091 H 0.75277 0.78012 0.42409 0.0
H1092 H 0.74944 0.80242 0.40859 0.0
H1093 H 0.73451 0.89496 0.40754 0.0
H1094 H 0.75531 0.96746 0.36625 0.0
H1095 H 0.75221 0.9439 0.38149 0.0
C1096 C 1.00883 0.64584 0.18045 0.0
C1097 C 1.00767 0.67627 0.1817 0.0
C1098 C 1.00684 0.6335 0.17145 0.0
C1099 C 1.01359 0.65155 0.14652 0.0
H1100 H 0.98413 0.58294 0.14147 0.0
C1101 C 1.0081 0.60435 0.10879 0.0
C1102 C 1.00796 0.57377 0.10793 0.0
C1103 C 1.00601 0.61757 0.11765 0.0
C1104 C 0.99262 0.6019 0.14276 0.0
H1105 H 1.00296 0.71745 0.17444 0.0
H1106 H 0.99972 0.69595 0.15884 0.0
H1107 H 0.98463 0.60372 0.15733 0.0
H1108 H 1.00515 0.53316 0.11573 0.0
H1109 H 1.00211 0.55596 0.13106 0.0
H1110 H 1.02218 0.64933 0.13213 0.0
C1111 C 1.00222 0.68166 0.1648 0.0
C1112 C 0.99283 0.61384 0.15186 0.0
C1113 C 1.00398 0.69393 0.17378 0.0
C1114 C 1.00524 0.5568 0.11609 0.0
C1115 C 1.00337 0.56995 0.12493 0.0
C1116 C 1.01358 0.63942 0.13747 0.0
C1117 C 1.00389 0.65137 0.16351 0.0
C1118 C 1.00334 0.63877 0.15384 0.0
C1119 C 1.00393 0.60053 0.12588 0.0
C1120 C 1.00315 0.61433 0.13544 0.0
H1121 H 1.01166 0.63161 0.18638 0.0
H1122 H 1.00825 0.61008 0.17066 0.0
H1123 H 1.02201 0.67057 0.14786 0.0
H1124 H 1.01008 0.61808 0.10265 0.0
H1125 H 1.00615 0.64119 0.11804 0.0
C1126 C 0.29155 0.55383 0.1737 0.0
C1127 C 0.28788 0.57144 0.18162 0.0
C1128 C 0.29338 0.56618 0.16473 0.0
C1129 C 0.30307 0.63401 0.15181 0.0
H1130 H 0.27364 0.59902 0.13205 0.0
C1131 C 0.29102 0.6915 0.11605 0.0
C1132 C 0.28825 0.67463 0.10788 0.0
C1133 C 0.29281 0.67825 0.12489 0.0
C1134 C 0.28226 0.60879 0.1374 0.0
H1135 H 0.28402 0.61609 0.18631 0.0
H1136 H 0.28755 0.63775 0.1706 0.0
H1137 H 0.27366 0.57763 0.14778 0.0
H1138 H 0.28597 0.63039 0.10259 0.0
H1139 H 0.28977 0.6071 0.11798 0.0
H1140 H 0.31194 0.66491 0.14144 0.0
C1141 C 0.28889 0.61431 0.17138 0.0
C1142 C 0.28217 0.59658 0.14645 0.0
C1143 C 0.28683 0.60189 0.18038 0.0
C1144 C 0.28798 0.64405 0.10874 0.0
C1145 C 0.29 0.63072 0.1176 0.0
C1146 C 0.30337 0.64603 0.14271 0.0
C1147 C 0.29181 0.59649 0.16344 0.0
C1148 C 0.29245 0.60918 0.15378 0.0
C1149 C 0.29212 0.64767 0.12583 0.0
C1150 C 0.29281 0.63378 0.13539 0.0
H1151 H 0.29249 0.5303 0.17436 0.0
H1152 H 0.29585 0.55193 0.15876 0.0
H1153 H 0.31129 0.64399 0.15729 0.0
H1154 H 0.29119 0.71515 0.11569 0.0
H1155 H 0.2941 0.69217 0.13102 0.0
C1156 C 0.0413 0.30644 0.86581 0.0
C1157 C 0.03919 0.32378 0.85768 0.0
C1158 C 0.04279 0.31922 0.87473 0.0
C1159 C 0.03266 0.3885 0.88742 0.0
H1160 H 0.06069 0.35166 0.90741 0.0
C1161 C 0.04201 0.44227 0.92386 0.0
C1162 C 0.03807 0.42463 0.93175 0.0
C1163 C 0.04375 0.43004 0.91487 0.0
C1164 C 0.05274 0.36209 0.9019 0.0
H1165 H 0.03767 0.36833 0.85256 0.0
H1166 H 0.04093 0.39077 0.86809 0.0
H1167 H 0.06145 0.33119 0.89152 0.0
H1168 H 0.03361 0.38002 0.93637 0.0
H1169 H 0.03699 0.35856 0.92064 0.0
H1170 H 0.02423 0.41967 0.89781 0.0
C1171 C 0.04091 0.36716 0.86761 0.0
C1172 C 0.0531 0.35034 0.89278 0.0
C1173 C 0.0392 0.35432 0.85867 0.0
C1174 C 0.03664 0.39424 0.93046 0.0
C1175 C 0.03861 0.38194 0.92146 0.0
C1176 C 0.0325 0.40045 0.8965 0.0
C1177 C 0.04243 0.34977 0.87579 0.0
C1178 C 0.04293 0.36322 0.88541 0.0
C1179 C 0.04182 0.39981 0.91354 0.0
C1180 C 0.04243 0.38728 0.90386 0.0
H1181 H 0.04123 0.28282 0.86535 0.0
H1182 H 0.04361 0.30498 0.88082 0.0
H1183 H 0.02433 0.39876 0.88203 0.0
H1184 H 0.04324 0.46575 0.92455 0.0
H1185 H 0.04646 0.44432 0.90893 0.0
C1186 C 0.74355 0.32812 0.92863 0.0
C1187 C 0.75846 0.33567 0.93442 0.0
C1188 C 0.74137 0.3411 0.91974 0.0
C1189 C 0.76746 0.36662 0.90024 0.0
H1190 H 0.72568 0.41274 0.8923 0.0
C1191 C 0.7674 0.42723 0.86455 0.0
C1192 C 0.75074 0.43343 0.86001 0.0
C1193 C 0.76764 0.41417 0.87347 0.0
C1194 C 0.7373 0.39939 0.89428 0.0
H1195 H 0.78259 0.36302 0.93551 0.0
H1196 H 0.77905 0.38501 0.91984 0.0
H1197 H 0.7269 0.39331 0.90835 0.0
H1198 H 0.72126 0.42949 0.8611 0.0
H1199 H 0.72164 0.40504 0.8764 0.0
H1200 H 0.77763 0.37117 0.8862 0.0
C1201 C 0.76893 0.36944 0.92228 0.0
C1202 C 0.73803 0.38856 0.90353 0.0
C1203 C 0.77086 0.35702 0.93126 0.0
C1204 C 0.73433 0.42508 0.86443 0.0
C1205 C 0.73457 0.41137 0.87328 0.0
C1206 C 0.76656 0.3768 0.89094 0.0
C1207 C 0.75431 0.36129 0.91641 0.0
C1208 C 0.75323 0.37244 0.90661 0.0
C1209 C 0.75124 0.40626 0.87804 0.0
C1210 C 0.75159 0.39374 0.88783 0.0
H1211 H 0.73383 0.31165 0.93087 0.0
H1212 H 0.73003 0.33445 0.91532 0.0
H1213 H 0.77921 0.35383 0.90243 0.0
H1214 H 0.78031 0.43372 0.86142 0.0
H1215 H 0.78077 0.41132 0.87689 0.0
C1216 C 0.33431 0.83696 0.10076 0.0
C1217 C 0.32594 0.82652 0.09249 0.0
C1218 C 0.3521 0.84826 0.10049 0.0
C1219 C 0.38576 0.88344 0.08539 0.0
H1220 H 0.42186 0.85073 0.10245 0.0
C1221 C 0.46175 0.91869 0.0836 0.0
C1222 C 0.47162 0.92015 0.09208 0.0
C1223 C 0.44424 0.90625 0.08337 0.0
C1224 C 0.41195 0.86054 0.09774 0.0
H1225 H 0.32936 0.82043 0.07746 0.0
H1226 H 0.36037 0.84107 0.07692 0.0
H1227 H 0.39054 0.83243 0.10273 0.0
H1228 H 0.47085 0.91019 0.107 0.0
H1229 H 0.44015 0.88959 0.10675 0.0
H1230 H 0.40678 0.91239 0.08062 0.0
C1231 C 0.3532 0.84014 0.08361 0.0
C1232 C 0.39401 0.84987 0.09787 0.0
C1233 C 0.33555 0.82826 0.08392 0.0
C1234 C 0.46367 0.90889 0.10034 0.0
C1235 C 0.44604 0.89696 0.10016 0.0
C1236 C 0.40362 0.89455 0.08537 0.0
C1237 C 0.36173 0.84988 0.09192 0.0
C1238 C 0.38075 0.86121 0.0917 0.0
C1239 C 0.43602 0.89549 0.09168 0.0
C1240 C 0.41701 0.88328 0.09155 0.0
H1241 H 0.32731 0.83558 0.10747 0.0
H1242 H 0.35834 0.85577 0.10698 0.0
H1243 H 0.37574 0.89269 0.0806 0.0
H1244 H 0.46765 0.92702 0.07712 0.0
H1245 H 0.43723 0.90501 0.07666 0.0
C1246 C 0.8339 0.33795 0.10126 0.0
C1247 C 0.82563 0.32732 0.093 0.0
C1248 C 0.85168 0.3493 0.10102 0.0
C1249 C 0.88549 0.3842 0.08593 0.0
H1250 H 0.92141 0.35193 0.10318 0.0
C1251 C 0.96149 0.41941 0.08427 0.0
C1252 C 0.97127 0.42109 0.09277 0.0
C1253 C 0.94398 0.40699 0.08402 0.0
C1254 C 0.91154 0.36163 0.09841 0.0
H1255 H 0.8292 0.32094 0.07798 0.0
H1256 H 0.8602 0.34164 0.07749 0.0
H1257 H 0.89009 0.33361 0.10341 0.0
H1258 H 0.97034 0.41152 0.10772 0.0
H1259 H 0.93964 0.39093 0.10744 0.0
H1260 H 0.90654 0.41305 0.08115 0.0
C1261 C 0.85296 0.34083 0.08416 0.0
C1262 C 0.89361 0.35094 0.09852 0.0
C1263 C 0.83532 0.32892 0.08445 0.0
C1264 C 0.96323 0.41005 0.10103 0.0
C1265 C 0.9456 0.39814 0.10084 0.0
C1266 C 0.90334 0.39532 0.08593 0.0
C1267 C 0.8614 0.35077 0.09247 0.0
C1268 C 0.88042 0.36211 0.09229 0.0
C1269 C 0.93567 0.39644 0.09233 0.0
C1270 C 0.91667 0.38422 0.09218 0.0
H1271 H 0.82683 0.33669 0.10796 0.0
H1272 H 0.85785 0.35695 0.10751 0.0
H1273 H 0.87551 0.39333 0.08109 0.0
H1274 H 0.96747 0.42756 0.07779 0.0
H1275 H 0.93704 0.40557 0.07729 0.0
C1276 C 0.46174 0.3365 0.18892 0.0
C1277 C 0.47007 0.32595 0.19719 0.0
C1278 C 0.44396 0.34785 0.18918 0.0
C1279 C 0.41024 0.38293 0.20424 0.0
H1280 H 0.37421 0.35024 0.18717 0.0
C1281 C 0.33423 0.41809 0.20597 0.0
C1282 C 0.32438 0.41959 0.19748 0.0
C1283 C 0.35174 0.40567 0.20621 0.0
C1284 C 0.3841 0.36005 0.19189 0.0
H1285 H 0.46661 0.31972 0.21222 0.0
H1286 H 0.43561 0.34045 0.21273 0.0
H1287 H 0.40554 0.33197 0.18692 0.0
H1288 H 0.3252 0.40971 0.18256 0.0
H1289 H 0.35592 0.38914 0.18284 0.0
H1290 H 0.38919 0.41185 0.20899 0.0
C1291 C 0.4428 0.33957 0.20605 0.0
C1292 C 0.40205 0.34939 0.19177 0.0
C1293 C 0.46045 0.32765 0.20576 0.0
C1294 C 0.33236 0.40838 0.18923 0.0
C1295 C 0.35 0.39647 0.18943 0.0
C1296 C 0.39237 0.39402 0.20425 0.0
C1297 C 0.43431 0.34941 0.19774 0.0
C1298 C 0.41528 0.36073 0.19794 0.0
C1299 C 0.36 0.39496 0.19792 0.0
C1300 C 0.37901 0.38276 0.19806 0.0
H1301 H 0.46877 0.33516 0.18221 0.0
H1302 H 0.43774 0.35544 0.18268 0.0
H1303 H 0.42025 0.39217 0.20903 0.0
H1304 H 0.32829 0.42638 0.21244 0.0
H1305 H 0.35874 0.40439 0.21293 0.0
C1306 C 0.83504 0.91986 0.20658 0.0
C1307 C 0.82523 0.92137 0.19806 0.0
C1308 C 0.85272 0.90802 0.2068 0.0
C1309 C 0.89318 0.8981 0.1923 0.0
H1310 H 0.90645 0.83589 0.20957 0.0
C1311 C 0.96285 0.83918 0.18949 0.0
C1312 C 0.97101 0.82806 0.19771 0.0
C1313 C 0.94522 0.85108 0.18976 0.0
C1314 C 0.90316 0.85365 0.20482 0.0
H1315 H 0.82623 0.91194 0.1831 0.0
H1316 H 0.8573 0.89181 0.18344 0.0
H1317 H 0.87538 0.85551 0.20976 0.0
H1318 H 0.96741 0.82145 0.2127 0.0
H1319 H 0.93697 0.84344 0.21333 0.0
H1320 H 0.92092 0.89724 0.18754 0.0
C1321 C 0.85121 0.89947 0.18995 0.0
C1322 C 0.88528 0.86471 0.20489 0.0
C1323 C 0.8334 0.91074 0.18977 0.0
C1324 C 0.96134 0.82966 0.20625 0.0
C1325 C 0.94383 0.84208 0.20657 0.0
C1326 C 0.91114 0.88747 0.19234 0.0
C1327 C 0.86105 0.89808 0.19846 0.0
C1328 C 0.88009 0.88682 0.19857 0.0
C1329 C 0.9354 0.85268 0.1983 0.0
C1330 C 0.91638 0.86485 0.19853 0.0
H1331 H 0.82901 0.92785 0.21306 0.0
H1332 H 0.86005 0.90727 0.21344 0.0
H1333 H 0.88957 0.91544 0.18743 0.0
H1334 H 0.96988 0.83776 0.18278 0.0
H1335 H 0.93916 0.85833 0.18319 0.0
C1336 C 0.70906 0.1699 0.93833 0.0
C1337 C 0.71736 0.18024 0.94661 0.0
C1338 C 0.69161 0.1574 0.9386 0.0
C1339 C 0.65009 0.15106 0.95394 0.0
H1340 H 0.63741 0.0902 0.93608 0.0
C1341 C 0.5834 0.08128 0.95553 0.0
C1342 C 0.57351 0.0797 0.94704 0.0
C1343 C 0.60081 0.09406 0.95575 0.0
C1344 C 0.64076 0.10728 0.94108 0.0
H1345 H 0.71414 0.18499 0.9617 0.0
H1346 H 0.68399 0.16203 0.96231 0.0
H1347 H 0.66833 0.11015 0.93614 0.0
H1348 H 0.57411 0.09003 0.93212 0.0
H1349 H 0.6047 0.11186 0.93246 0.0
H1350 H 0.62251 0.14719 0.95904 0.0
C1351 C 0.69062 0.16441 0.95552 0.0
C1352 C 0.65846 0.1189 0.94109 0.0
C1353 C 0.70796 0.17742 0.9552 0.0
C1354 C 0.58134 0.09124 0.93878 0.0
C1355 C 0.59888 0.10349 0.93896 0.0
C1356 C 0.63247 0.13901 0.95403 0.0
C1357 C 0.6821 0.15439 0.9472 0.0
C1358 C 0.66336 0.14121 0.94745 0.0
C1359 C 0.60881 0.10493 0.94743 0.0
C1360 C 0.62759 0.11723 0.94754 0.0
H1361 H 0.71587 0.17225 0.93158 0.0
H1362 H 0.68545 0.15066 0.93201 0.0
H1363 H 0.65313 0.16851 0.95884 0.0
H1364 H 0.57763 0.07262 0.96199 0.0
H1365 H 0.60822 0.09483 0.96236 0.0
C1366 C 0.21105 0.66849 0.9562 0.0
C1367 C 0.22086 0.66998 0.94769 0.0
C1368 C 0.19356 0.65604 0.95647 0.0
C1369 C 0.16121 0.61027 0.9422 0.0
H1370 H 0.12509 0.6422 0.95942 0.0
C1371 C 0.0836 0.58642 0.93937 0.0
C1372 C 0.07534 0.57578 0.94764 0.0
C1373 C 0.10136 0.59785 0.9396 0.0
C1374 C 0.13509 0.63301 0.95461 0.0
H1375 H 0.21997 0.66006 0.93278 0.0
H1376 H 0.18928 0.63945 0.93311 0.0
H1377 H 0.1561 0.66203 0.95932 0.0
H1378 H 0.0789 0.56949 0.96266 0.0
H1379 H 0.10986 0.59034 0.96313 0.0
H1380 H 0.1398 0.5821 0.93727 0.0
C1381 C 0.19522 0.64681 0.93968 0.0
C1382 C 0.15293 0.64419 0.95458 0.0
C1383 C 0.21284 0.65874 0.93946 0.0
C1384 C 0.08501 0.57747 0.95619 0.0
C1385 C 0.10263 0.58947 0.95646 0.0
C1386 C 0.14328 0.59953 0.94212 0.0
C1387 C 0.18527 0.64529 0.94819 0.0
C1388 C 0.16628 0.633 0.94837 0.0
C1389 C 0.11106 0.5994 0.94814 0.0
C1390 C 0.13006 0.61079 0.94831 0.0
H1391 H 0.21702 0.67681 0.96265 0.0
H1392 H 0.1866 0.65477 0.9632 0.0
H1393 H 0.17109 0.60051 0.93747 0.0
H1394 H 0.07654 0.58509 0.93267 0.0
H1395 H 0.10752 0.60549 0.9331 0.0
C1396 C 0.58125 0.65247 0.85144 0.0
C1397 C 0.57435 0.66627 0.84334 0.0
C1398 C 0.5986 0.63952 0.85137 0.0
C1399 C 0.64241 0.63866 0.83778 0.0
H1400 H 0.65207 0.57042 0.85324 0.0
C1401 C 0.70992 0.57121 0.83623 0.0
C1402 C 0.71806 0.5651 0.845 0.0
C1403 C 0.69242 0.58365 0.83576 0.0
C1404 C 0.64958 0.58957 0.84892 0.0
H1405 H 0.57993 0.67658 0.82872 0.0
H1406 H 0.60993 0.65307 0.82842 0.0
H1407 H 0.62126 0.59077 0.85268 0.0
H1408 H 0.71418 0.56691 0.86014 0.0
H1409 H 0.68351 0.58824 0.85933 0.0
H1410 H 0.67077 0.63675 0.83386 0.0
C1411 C 0.60226 0.653 0.83496 0.0
C1412 C 0.63192 0.60138 0.84863 0.0
C1413 C 0.58501 0.66635 0.83509 0.0
C1414 C 0.70834 0.57167 0.85329 0.0
C1415 C 0.69074 0.58361 0.85283 0.0
C1416 C 0.66001 0.62654 0.83796 0.0
C1417 C 0.6094 0.63963 0.84313 0.0
C1418 C 0.6281 0.6263 0.84313 0.0
C1419 C 0.68258 0.58969 0.84406 0.0
C1420 C 0.6638 0.60205 0.84361 0.0
H1421 H 0.57347 0.65249 0.85795 0.0
H1422 H 0.60368 0.63005 0.85786 0.0
H1423 H 0.64017 0.65812 0.83359 0.0
H1424 H 0.71714 0.56648 0.82974 0.0
H1425 H 0.68642 0.58801 0.82891 0.0
C1426 C 0.08403 0.15964 0.85012 0.0
C1427 C 0.07622 0.17116 0.84187 0.0
C1428 C 0.10162 0.14754 0.84997 0.0
C1429 C 0.14419 0.14515 0.8353 0.0
H1430 H 0.15692 0.08247 0.85252 0.0
C1431 C 0.21206 0.07833 0.83383 0.0
C1432 C 0.22158 0.07628 0.84242 0.0
C1433 C 0.19445 0.09037 0.83352 0.0
C1434 C 0.15355 0.10007 0.84771 0.0
H1435 H 0.08037 0.17826 0.82694 0.0
H1436 H 0.11072 0.15595 0.82651 0.0
H1437 H 0.12565 0.10102 0.85221 0.0
H1438 H 0.22012 0.08498 0.85742 0.0
H1439 H 0.18915 0.10548 0.85691 0.0
H1440 H 0.17212 0.14322 0.83061 0.0
C1441 C 0.10364 0.15714 0.8332 0.0
C1442 C 0.13564 0.11088 0.84755 0.0
C1443 C 0.08617 0.16974 0.83341 0.0
C1444 C 0.21318 0.0866 0.85069 0.0
C1445 C 0.19543 0.09808 0.85041 0.0
C1446 C 0.16202 0.13392 0.83534 0.0
C1447 C 0.11173 0.14615 0.84151 0.0
C1448 C 0.13071 0.13381 0.84141 0.0
C1449 C 0.18588 0.09999 0.84183 0.0
C1450 C 0.1669 0.11148 0.84161 0.0
H1451 H 0.07678 0.16089 0.85677 0.0
H1452 H 0.10741 0.13997 0.85656 0.0
H1453 H 0.14113 0.16315 0.83059 0.0
H1454 H 0.21828 0.07058 0.82736 0.0
H1455 H 0.18734 0.09153 0.82682 0.0
C1456 C 0.46068 0.4207 0.58417 0.0
C1457 C 0.47036 0.42224 0.59273 0.0
C1458 C 0.44305 0.40874 0.58388 0.0
C1459 C 0.40239 0.39857 0.59821 0.0
H1460 H 0.38952 0.33634 0.58092 0.0
C1461 C 0.33278 0.33944 0.60078 0.0
C1462 C 0.32476 0.32832 0.59253 0.0
C1463 C 0.3504 0.35136 0.60057 0.0
C1464 C 0.3927 0.3541 0.58568 0.0
H1465 H 0.46915 0.41271 0.60769 0.0
H1466 H 0.43815 0.39239 0.60722 0.0
H1467 H 0.42055 0.3561 0.58085 0.0
H1468 H 0.32861 0.32167 0.57756 0.0
H1469 H 0.35903 0.34369 0.57704 0.0
H1470 H 0.37457 0.39758 0.60286 0.0
C1471 C 0.44432 0.40012 0.60073 0.0
C1472 C 0.41055 0.36524 0.58567 0.0
C1473 C 0.46209 0.4115 0.60098 0.0
C1474 C 0.33457 0.3299 0.58403 0.0
C1475 C 0.35207 0.34234 0.58377 0.0
C1476 C 0.38445 0.38786 0.59811 0.0
C1477 C 0.43461 0.39872 0.59219 0.0
C1478 C 0.4156 0.38736 0.592 0.0
C1479 C 0.36036 0.35298 0.59207 0.0
C1480 C 0.37936 0.36523 0.59191 0.0
H1481 H 0.4668 0.42877 0.57771 0.0
H1482 H 0.43582 0.40799 0.57721 0.0
H1483 H 0.40588 0.41592 0.60308 0.0
H1484 H 0.32565 0.33805 0.60746 0.0
H1485 H 0.35635 0.35864 0.60716 0.0
C1486 C 0.83366 0.83745 0.60048 0.0
C1487 C 0.82543 0.82694 0.59219 0.0
C1488 C 0.85145 0.84877 0.60027 0.0
C1489 C 0.88534 0.88386 0.58529 0.0
H1490 H 0.92117 0.8513 0.60254 0.0
C1491 C 0.96135 0.91911 0.5838 0.0
C1492 C 0.97109 0.92064 0.59232 0.0
C1493 C 0.94385 0.90668 0.58351 0.0
C1494 C 0.91133 0.86107 0.59777 0.0
H1495 H 0.82909 0.82073 0.57717 0.0
H1496 H 0.86011 0.8414 0.57676 0.0
H1497 H 0.88985 0.83298 0.6027 0.0
H1498 H 0.97008 0.9108 0.60725 0.0
H1499 H 0.93938 0.89021 0.60689 0.0
H1500 H 0.90643 0.91279 0.58059 0.0
C1501 C 0.85283 0.84052 0.58341 0.0
C1502 C 0.8934 0.85039 0.59784 0.0
C1503 C 0.83517 0.82862 0.58365 0.0
C1504 C 0.96301 0.90945 0.60055 0.0
C1505 C 0.94538 0.89753 0.60031 0.0
C1506 C 0.9032 0.89498 0.58534 0.0
C1507 C 0.86122 0.85034 0.59175 0.0
C1508 C 0.88024 0.86167 0.59161 0.0
C1509 C 0.93549 0.89599 0.59179 0.0
C1510 C 0.91649 0.88376 0.59159 0.0
H1511 H 0.82655 0.83612 0.60716 0.0
H1512 H 0.85758 0.85634 0.60679 0.0
H1513 H 0.8754 0.89307 0.58046 0.0
H1514 H 0.96736 0.92738 0.57734 0.0
H1515 H 0.93694 0.90538 0.57677 0.0
C1516 C 0.46296 0.8377 0.68956 0.0
C1517 C 0.47114 0.82711 0.69786 0.0
C1518 C 0.44516 0.84898 0.68973 0.0
C1519 C 0.41108 0.88377 0.70466 0.0
H1520 H 0.37546 0.85135 0.6873 0.0
C1521 C 0.33501 0.91872 0.70602 0.0
C1522 C 0.32535 0.9204 0.69747 0.0
C1523 C 0.35252 0.90632 0.70633 0.0
C1524 C 0.38524 0.86108 0.6921 0.0
H1525 H 0.46737 0.82073 0.71287 0.0
H1526 H 0.43632 0.84132 0.71322 0.0
H1527 H 0.40681 0.83314 0.6872 0.0
H1528 H 0.32651 0.91086 0.68253 0.0
H1529 H 0.35723 0.89032 0.68295 0.0
H1530 H 0.3899 0.91255 0.70933 0.0
C1531 C 0.44365 0.84053 0.70658 0.0
C1532 C 0.4032 0.85046 0.69206 0.0
C1533 C 0.46133 0.82868 0.70638 0.0
C1534 C 0.33352 0.90939 0.68925 0.0
C1535 C 0.35116 0.8975 0.68952 0.0
C1536 C 0.3932 0.89483 0.70458 0.0
C1537 C 0.43532 0.85042 0.69823 0.0
C1538 C 0.41628 0.8617 0.69834 0.0
C1539 C 0.36097 0.89582 0.69806 0.0
C1540 C 0.37999 0.88366 0.69829 0.0
H1541 H 0.47013 0.83645 0.68288 0.0
H1542 H 0.43907 0.8566 0.6832 0.0
H1543 H 0.42097 0.89294 0.70952 0.0
H1544 H 0.32892 0.92685 0.71247 0.0
H1545 H 0.35937 0.9049 0.71309 0.0
C1546 C 0.8357 0.42009 0.70587 0.0
C1547 C 0.8259 0.42155 0.69735 0.0
C1548 C 0.85336 0.40821 0.7061 0.0
C1549 C 0.89382 0.39814 0.69161 0.0
H1550 H 0.90715 0.33622 0.70898 0.0
C1551 C 0.96351 0.33928 0.68885 0.0
C1552 C 0.9717 0.32833 0.69709 0.0
C1553 C 0.94586 0.35114 0.68911 0.0
C1554 C 0.90384 0.35389 0.70419 0.0
H1555 H 0.8269 0.41195 0.6824 0.0
H1556 H 0.85795 0.39174 0.68276 0.0
H1557 H 0.87607 0.35579 0.70914 0.0
H1558 H 0.96815 0.32197 0.71209 0.0
H1559 H 0.93769 0.34388 0.7127 0.0
H1560 H 0.92155 0.39725 0.68684 0.0
C1561 C 0.85186 0.39948 0.68927 0.0
C1562 C 0.88595 0.36493 0.70426 0.0
C1563 C 0.83406 0.41079 0.68907 0.0
C1564 C 0.96205 0.33005 0.70563 0.0
C1565 C 0.94453 0.34243 0.70594 0.0
C1566 C 0.91178 0.38754 0.69166 0.0
C1567 C 0.86169 0.39818 0.69778 0.0
C1568 C 0.88074 0.38693 0.6979 0.0
C1569 C 0.93606 0.35287 0.69766 0.0
C1570 C 0.91704 0.36502 0.69788 0.0
H1571 H 0.82967 0.42818 0.71234 0.0
H1572 H 0.86069 0.40753 0.71274 0.0
H1573 H 0.89019 0.41541 0.68672 0.0
H1574 H 0.97051 0.33777 0.68214 0.0
H1575 H 0.93978 0.35827 0.68254 0.0
C1576 C 0.58675 0.57077 0.45357 0.0
C1577 C 0.57882 0.56387 0.44482 0.0
C1578 C 0.60396 0.58418 0.45401 0.0
C1579 C 0.63815 0.62394 0.4391 0.0
H1580 H 0.67137 0.60373 0.45943 0.0
C1581 C 0.71505 0.65368 0.43863 0.0
C1582 C 0.72183 0.66739 0.44678 0.0
C1583 C 0.69759 0.64113 0.4386 0.0
C1584 C 0.66218 0.60969 0.45375 0.0
H1585 H 0.58285 0.56504 0.42969 0.0
H1586 H 0.613 0.58748 0.43041 0.0
H1587 H 0.64092 0.58185 0.45893 0.0
H1588 H 0.71588 0.67801 0.46134 0.0
H1589 H 0.68541 0.65551 0.46135 0.0
H1590 H 0.65975 0.65107 0.43379 0.0
C1591 C 0.60577 0.58356 0.43696 0.0
C1592 C 0.64466 0.5973 0.45347 0.0
C1593 C 0.58847 0.57058 0.43653 0.0
C1594 C 0.71094 0.66772 0.45496 0.0
C1595 C 0.69359 0.65473 0.45497 0.0
C1596 C 0.65575 0.63595 0.4393 0.0
C1597 C 0.61379 0.59059 0.4457 0.0
C1598 C 0.63238 0.60421 0.44613 0.0
C1599 C 0.68665 0.64162 0.44676 0.0
C1600 C 0.66795 0.62893 0.44662 0.0
H1601 H 0.57953 0.56607 0.46007 0.0
H1602 H 0.60946 0.58971 0.46087 0.0
H1603 H 0.62903 0.63039 0.43344 0.0
H1604 H 0.72305 0.65335 0.4322 0.0
H1605 H 0.69263 0.63099 0.43218 0.0
C1606 C 0.08208 0.08926 0.43937 0.0
C1607 C 0.07399 0.07807 0.44759 0.0
C1608 C 0.09969 0.10121 0.43962 0.0
C1609 C 0.14183 0.10383 0.45461 0.0
H1610 H 0.15519 0.16581 0.43725 0.0
C1611 C 0.20982 0.17029 0.45628 0.0
C1612 C 0.21958 0.1719 0.44775 0.0
C1613 C 0.19218 0.15838 0.45653 0.0
C1614 C 0.15164 0.14841 0.44211 0.0
H1615 H 0.07767 0.07136 0.46258 0.0
H1616 H 0.10808 0.09344 0.46317 0.0
H1617 H 0.12387 0.14749 0.4374 0.0
H1618 H 0.21849 0.16255 0.43278 0.0
H1619 H 0.18747 0.14229 0.43317 0.0
H1620 H 0.16963 0.10575 0.4595 0.0
C1621 C 0.10119 0.09211 0.45642 0.0
C1622 C 0.13371 0.13772 0.44217 0.0
C1623 C 0.0837 0.07964 0.45612 0.0
C1624 C 0.21137 0.16128 0.43947 0.0
C1625 C 0.19359 0.14993 0.43968 0.0
C1626 C 0.15969 0.11495 0.45466 0.0
C1627 C 0.10956 0.10279 0.44815 0.0
C1628 C 0.12855 0.11503 0.44835 0.0
C1629 C 0.18381 0.14846 0.4482 0.0
C1630 C 0.16479 0.13713 0.44834 0.0
H1631 H 0.07503 0.08787 0.43266 0.0
H1632 H 0.10571 0.10853 0.43304 0.0
H1633 H 0.1386 0.08602 0.45936 0.0
H1634 H 0.21589 0.17828 0.46276 0.0
H1635 H 0.18489 0.15756 0.46318 0.0
C1636 C 0.71193 0.08228 0.33521 0.0
C1637 C 0.72274 0.08249 0.34341 0.0
C1638 C 0.69473 0.09579 0.33511 0.0
C1639 C 0.66556 0.14824 0.34867 0.0
H1640 H 0.62626 0.11263 0.33432 0.0
C1641 C 0.58948 0.17955 0.35353 0.0
C1642 C 0.57961 0.18568 0.34525 0.0
C1643 C 0.60698 0.16723 0.35306 0.0
C1644 C 0.63715 0.12291 0.33831 0.0
H1645 H 0.72391 0.09672 0.35796 0.0
H1646 H 0.6938 0.11949 0.35792 0.0
H1647 H 0.65676 0.09089 0.334 0.0
H1648 H 0.58015 0.18313 0.33 0.0
H1649 H 0.6107 0.16099 0.32916 0.0
H1650 H 0.64566 0.17968 0.3532 0.0
C1651 C 0.69874 0.10975 0.35145 0.0
C1652 C 0.65469 0.11057 0.3381 0.0
C1653 C 0.71603 0.09661 0.35149 0.0
C1654 C 0.58749 0.17874 0.33648 0.0
C1655 C 0.60489 0.16596 0.33601 0.0
C1656 C 0.64797 0.16029 0.34899 0.0
C1657 C 0.6878 0.10949 0.34326 0.0
C1658 C 0.66916 0.12302 0.3433 0.0
C1659 C 0.61488 0.16037 0.34429 0.0
C1660 C 0.63359 0.14772 0.34383 0.0
H1661 H 0.71686 0.07181 0.32885 0.0
H1662 H 0.68694 0.0956 0.32862 0.0
H1663 H 0.67636 0.1589 0.35261 0.0
H1664 H 0.58385 0.18495 0.36037 0.0
H1665 H 0.61432 0.16296 0.35955 0.0
C1666 C 0.21067 0.57951 0.33395 0.0
C1667 C 0.22043 0.57785 0.34246 0.0
C1668 C 0.19316 0.59195 0.33368 0.0
C1669 C 0.1607 0.6374 0.34799 0.0
H1670 H 0.12468 0.6054 0.33076 0.0
C1671 C 0.08306 0.66099 0.35084 0.0
C1672 C 0.07477 0.67152 0.34256 0.0
C1673 C 0.10084 0.64964 0.3506 0.0
C1674 C 0.13465 0.61461 0.33557 0.0
H1675 H 0.21949 0.58751 0.35739 0.0
H1676 H 0.18879 0.60814 0.35707 0.0
H1677 H 0.15573 0.58574 0.33084 0.0
H1678 H 0.07831 0.67772 0.32753 0.0
H1679 H 0.10932 0.65702 0.32706 0.0
H1680 H 0.13923 0.66545 0.35294 0.0
C1681 C 0.19476 0.60089 0.35049 0.0
C1682 C 0.15252 0.60352 0.33559 0.0
C1683 C 0.21239 0.58896 0.3507 0.0
C1684 C 0.08444 0.66981 0.334 0.0
C1685 C 0.10209 0.6579 0.33373 0.0
C1686 C 0.14276 0.64806 0.34809 0.0
C1687 C 0.18484 0.60254 0.34198 0.0
C1688 C 0.16584 0.61474 0.34181 0.0
C1689 C 0.11054 0.64808 0.34206 0.0
C1690 C 0.12957 0.63677 0.34189 0.0
H1691 H 0.21665 0.57131 0.32748 0.0
H1692 H 0.18622 0.59334 0.32695 0.0
H1693 H 0.17057 0.64717 0.35274 0.0
H1694 H 0.076 0.66234 0.35754 0.0
H1695 H 0.10703 0.64207 0.35711 0.0
C1696 C 0.5088 0.00774 0.05527 0.0
C1697 C 0.52188 0.02676 0.05918 0.0
C1698 C 0.50857 0.00214 0.04556 0.0
C1699 C 0.53908 0.00398 0.0247 0.0
H1700 H 0.494 0.99309 1.01071 0.0
C1701 C 0.53696 0.99178 0.98395 0.0
C1702 C 0.52391 0.97266 0.98006 0.0
C1703 C 0.5372 0.99745 0.99366 0.0
C1704 C 0.50673 0.99567 1.01453 0.0
H1705 H 0.54441 0.05589 0.05583 0.0
H1706 H 0.54379 0.0465 0.03892 0.0
H1707 H 0.4927 0.00647 0.02734 0.0
H1708 H 0.50144 0.94345 0.98345 0.0
H1709 H 0.50207 0.95298 1.00036 0.0
H1710 H 0.55311 0.99318 1.01189 0.0
C1711 C 0.53396 0.0354 0.04338 0.0
C1712 C 0.50598 0.00342 0.02408 0.0
C1713 C 0.53419 0.041 0.05309 0.0
C1714 C 0.51163 0.95841 0.98618 0.0
C1715 C 0.51187 0.96409 0.99588 0.0
C1716 C 0.53983 0.99623 1.01515 0.0
C1717 C 0.5214 0.01543 0.03951 0.0
C1718 C 0.52214 0.0077 0.02929 0.0
C1719 C 0.5244 0.98415 0.99972 0.0
C1720 C 0.52367 0.99194 1.00994 0.0
H1721 H 0.49915 0.9963 0.05975 0.0
H1722 H 0.49878 0.98649 0.04285 0.0
H1723 H 0.55181 0.00654 0.02852 0.0
H1724 H 0.54658 0.00323 0.97946 0.0
H1725 H 0.54697 0.01316 0.99635 0.0
C1726 C 0.78791 0.24039 0.05626 0.0
C1727 C 0.77456 0.22185 0.06019 0.0
C1728 C 0.78822 0.24595 0.04654 0.0
C1729 C 0.7576 0.24557 0.02576 0.0
H1730 H 0.8027 0.25429 1.01162 0.0
C1731 C 0.75909 0.25918 0.98507 0.0
C1732 C 0.77243 0.27775 0.98116 0.0
C1733 C 0.75905 0.25292 0.99474 0.0
C1734 C 0.78997 0.25232 1.01549 0.0
H1735 H 0.75163 0.19353 0.05687 0.0
H1736 H 0.75235 0.20291 0.03995 0.0
H1737 H 0.80393 0.2407 0.02825 0.0
H1738 H 0.79576 0.30524 0.98447 0.0
H1739 H 0.79548 0.29475 1.00133 0.0
H1740 H 0.74363 0.25729 1.01302 0.0
C1741 C 0.76236 0.21362 0.0444 0.0
C1742 C 0.79068 0.24444 0.02503 0.0
C1743 C 0.76205 0.20804 0.05411 0.0
C1744 C 0.78532 0.29074 0.98722 0.0
C1745 C 0.78527 0.2845 0.99689 0.0
C1746 C 0.75688 0.25348 1.01622 0.0
C1747 C 0.77518 0.23313 0.04051 0.0
C1748 C 0.7745 0.24095 0.03029 0.0
C1749 C 0.77235 0.2651 1.00076 0.0
C1750 C 0.77306 0.257 1.01096 0.0
H1751 H 0.79772 0.25148 0.06073 0.0
H1752 H 0.79823 0.26122 0.04381 0.0
H1753 H 0.74486 0.24362 0.02963 0.0
H1754 H 0.749 0.24869 0.98061 0.0
H1755 H 0.74897 0.23772 0.99745 0.0
C1756 C 0.53326 0.2054 0.23603 0.0
C1757 C 0.52103 0.21993 0.22996 0.0
C1758 C 0.53308 0.21091 0.24574 0.0
C1759 C 0.50549 0.24365 0.2651 0.0
H1760 H 0.55282 0.25327 0.27712 0.0
C1761 C 0.51227 0.29153 0.3026 0.0
C1762 C 0.52461 0.27772 0.30878 0.0
C1763 C 0.51212 0.28467 0.29298 0.0
C1764 C 0.53949 0.25037 0.27391 0.0
H1765 H 0.49849 0.25079 0.22944 0.0
H1766 H 0.49824 0.26048 0.24635 0.0
H1767 H 0.55125 0.23936 0.26054 0.0
H1768 H 0.54688 0.24644 0.3096 0.0
H1769 H 0.5466 0.23444 0.29283 0.0
H1770 H 0.49373 0.2548 0.27846 0.0
C1771 C 0.50791 0.24466 0.24362 0.0
C1772 C 0.53858 0.24231 0.26439 0.0
C1773 C 0.50808 0.23913 0.2339 0.0
C1774 C 0.53723 0.25758 0.30504 0.0
C1775 C 0.53709 0.25073 0.29541 0.0
C1776 C 0.5064 0.25173 0.27461 0.0
C1777 C 0.52068 0.2311 0.24964 0.0
C1778 C 0.52157 0.23888 0.25985 0.0
C1779 C 0.52432 0.26383 0.28928 0.0
C1780 C 0.52341 0.25528 0.27914 0.0
H1781 H 0.54337 0.19037 0.23326 0.0
H1782 H 0.54286 0.19961 0.25018 0.0
H1783 H 0.49216 0.24083 0.26188 0.0
H1784 H 0.50239 0.30722 0.30521 0.0
H1785 H 0.50234 0.2956 0.28844 0.0
C1786 C 0.76146 0.04146 0.23691 0.0
C1787 C 0.7738 0.02707 0.23088 0.0
C1788 C 0.76163 0.03607 0.24663 0.0
C1789 C 0.78952 0.00434 0.26606 0.0
H1790 H 0.74234 0.99478 0.27827 0.0
C1791 C 0.78366 0.95982 0.30404 0.0
C1792 C 0.77148 0.97433 0.31014 0.0
C1793 C 0.78343 0.9654 0.29433 0.0
C1794 C 0.75563 0.99763 0.275 0.0
H1795 H 0.79651 0.99653 0.23043 0.0
H1796 H 0.79677 0.98706 0.24736 0.0
H1797 H 0.7437 0.00779 0.2616 0.0
H1798 H 0.74898 0.00525 0.3107 0.0
H1799 H 0.74861 0.015 0.29378 0.0
H1800 H 0.80145 0.99413 0.27946 0.0
C1801 C 0.78701 0.00268 0.24459 0.0
C1802 C 0.75642 0.00519 0.26543 0.0
C1803 C 0.78684 0.00809 0.23486 0.0
C1804 C 0.75853 0.99361 0.30622 0.0
C1805 C 0.7583 0.99918 0.2965 0.0
C1806 C 0.78873 0.99677 0.27563 0.0
C1807 C 0.77415 0.01615 0.25058 0.0
C1808 C 0.77338 0.00866 0.26083 0.0
C1809 C 0.77101 0.98562 0.29045 0.0
C1810 C 0.77177 0.99327 0.28022 0.0
H1811 H 0.75127 0.05632 0.23411 0.0
H1812 H 0.75178 0.0473 0.25105 0.0
H1813 H 0.80281 0.00721 0.2628 0.0
H1814 H 0.79377 0.94473 0.30679 0.0
H1815 H 0.79317 0.95411 0.28987 0.0
C1816 C 0.28397 0.79003 0.98652 0.0
C1817 C 0.27147 0.7762 0.98044 0.0
C1818 C 0.28371 0.78436 0.99623 0.0
C1819 C 0.26904 0.7278 1.01328 0.0
H1820 H 0.27917 0.78771 0.03187 0.0
C1821 C 0.26168 0.70835 0.05352 0.0
C1822 C 0.27422 0.72211 0.0596 0.0
C1823 C 0.26191 0.71405 0.04381 0.0
C1824 C 0.27657 0.77061 0.02676 0.0
H1825 H 0.24834 0.74653 0.9799 0.0
H1826 H 0.24771 0.73702 0.99684 0.0
H1827 H 0.27732 0.80084 1.01522 0.0
H1828 H 0.29737 0.75174 0.06013 0.0
H1829 H 0.29794 0.76134 0.04319 0.0
H1830 H 0.26829 0.69758 0.02482 0.0
C1831 C 0.25796 0.75183 0.99408 0.0
C1832 C 0.27546 0.77818 1.01721 0.0
C1833 C 0.2582 0.75752 0.98436 0.0
C1834 C 0.28748 0.74079 0.05567 0.0
C1835 C 0.28769 0.74653 0.04596 0.0
C1836 C 0.27016 0.72024 0.02283 0.0
C1837 C 0.27095 0.76472 1.00011 0.0
C1838 C 0.27167 0.75688 1.01033 0.0
C1839 C 0.27468 0.73369 0.03993 0.0
C1840 C 0.27395 0.74154 0.02971 0.0
H1841 H 0.29441 0.8045 0.98376 0.0
H1842 H 0.29401 0.79454 1.00063 0.0
H1843 H 0.26645 0.71071 1.00817 0.0
H1844 H 0.25124 0.69387 0.05628 0.0
H1845 H 0.2516 0.70391 0.03941 0.0
C1846 C 0.53499 0.70733 0.73694 0.0
C1847 C 0.52267 0.72179 0.7309 0.0
C1848 C 0.53485 0.71274 0.74666 0.0
C1849 C 0.50707 0.74462 0.76608 0.0
H1850 H 0.55429 0.75396 0.77824 0.0
C1851 C 0.51307 0.78892 0.80404 0.0
C1852 C 0.52524 0.77434 0.81013 0.0
C1853 C 0.51327 0.78341 0.79434 0.0
C1854 C 0.54099 0.75117 0.77499 0.0
H1855 H 0.50003 0.75247 0.73045 0.0
H1856 H 0.49983 0.76197 0.74737 0.0
H1857 H 0.55287 0.74098 0.76158 0.0
H1858 H 0.54771 0.74335 0.81068 0.0
H1859 H 0.54804 0.73372 0.79376 0.0
H1860 H 0.49519 0.75485 0.77948 0.0
C1861 C 0.50955 0.74628 0.7446 0.0
C1862 C 0.54016 0.74363 0.76542 0.0
C1863 C 0.50969 0.74086 0.73488 0.0
C1864 C 0.53816 0.75505 0.80621 0.0
C1865 C 0.53837 0.74955 0.79648 0.0
C1866 C 0.50789 0.75217 0.77564 0.0
C1867 C 0.52238 0.73275 0.7506 0.0
C1868 C 0.52319 0.74025 0.76084 0.0
C1869 C 0.52566 0.76318 0.79045 0.0
C1870 C 0.52486 0.75558 0.78022 0.0
H1871 H 0.54514 0.6924 0.73414 0.0
H1872 H 0.54468 0.70147 0.75108 0.0
H1873 H 0.49377 0.74182 0.76283 0.0
H1874 H 0.50297 0.80402 0.8068 0.0
H1875 H 0.50353 0.79476 0.78988 0.0
C1876 C 0.28769 0.007 0.73428 0.0
C1877 C 0.27454 0.02596 0.73037 0.0
C1878 C 0.28792 0.00128 0.74399 0.0
C1879 C 0.25738 0.00263 0.76485 0.0
H1880 H 0.30248 0.9921 0.77886 0.0
C1881 C 0.25943 0.99015 0.8056 0.0
C1882 C 0.27257 0.97118 0.8095 0.0
C1883 C 0.2592 0.99589 0.79588 0.0
C1884 C 0.28974 0.99457 0.77503 0.0
H1885 H 0.2519 0.05485 0.73373 0.0
H1886 H 0.25252 0.04526 0.75064 0.0
H1887 H 0.30375 0.00559 0.76223 0.0
H1888 H 0.29521 0.94229 0.80614 0.0
H1889 H 0.2946 0.95192 0.78923 0.0
H1890 H 0.24337 0.99161 0.77765 0.0
C1891 C 0.2624 0.0343 0.74617 0.0
C1892 C 0.29048 0.00239 0.76548 0.0
C1893 C 0.26217 0.04002 0.73647 0.0
C1894 C 0.28495 0.95713 0.8034 0.0
C1895 C 0.28471 0.96287 0.7937 0.0
C1896 C 0.25664 0.99481 0.77439 0.0
C1897 C 0.27502 0.01439 0.75004 0.0
C1898 C 0.27431 0.00655 0.76026 0.0
C1899 C 0.27209 0.98279 0.78983 0.0
C1900 C 0.27281 0.99065 0.77961 0.0
H1901 H 0.29739 0.9957 0.7298 0.0
H1902 H 0.29777 0.98569 0.7467 0.0
H1903 H 0.24464 0.0051 0.76102 0.0
H1904 H 0.24973 0.00145 0.81008 0.0
H1905 H 0.24935 0.01149 0.79318 0.0
C1906 C 0.53731 0.49031 0.48505 0.0
C1907 C 0.52463 0.47033 0.48129 0.0
C1908 C 0.53719 0.49703 0.49469 0.0
C1909 C 0.52012 0.47115 0.51798 0.0
H1910 H 0.52606 0.55233 0.52516 0.0
C1911 C 0.50772 0.50939 0.55624 0.0
C1912 C 0.52091 0.52833 0.5601 0.0
C1913 C 0.50744 0.50356 0.54655 0.0
C1914 C 0.52452 0.52953 0.52329 0.0
H1915 H 0.50226 0.44111 0.48482 0.0
H1916 H 0.502 0.45291 0.50155 0.0
H1917 H 0.52802 0.53855 0.50857 0.0
H1918 H 0.54359 0.55705 0.55666 0.0
H1919 H 0.54309 0.54688 0.5398 0.0
H1920 H 0.51661 0.46213 0.53269 0.0
C1921 C 0.51214 0.46326 0.49709 0.0
C1922 C 0.52571 0.52159 0.51377 0.0
C1923 C 0.51226 0.45654 0.48746 0.0
C1924 C 0.53323 0.54236 0.55395 0.0
C1925 C 0.53292 0.53657 0.54426 0.0
C1926 C 0.51891 0.4791 0.52749 0.0
C1927 C 0.52442 0.48392 0.50082 0.0
C1928 C 0.52353 0.49229 0.51098 0.0
C1929 C 0.5203 0.51658 0.54046 0.0
C1930 C 0.52109 0.50839 0.53028 0.0
H1931 H 0.54705 0.50132 0.48052 0.0
H1932 H 0.54706 0.51267 0.49734 0.0
H1933 H 0.51864 0.44833 0.51613 0.0
H1934 H 0.49799 0.49824 0.56075 0.0
H1935 H 0.49731 0.48847 0.54384 0.0
C1936 C 0.7616 0.70748 0.55318 0.0
C1937 C 0.77394 0.72181 0.55922 0.0
C1938 C 0.76174 0.71299 0.54347 0.0
C1939 C 0.78954 0.74487 0.52404 0.0
H1940 H 0.74232 0.75469 0.51192 0.0
C1941 C 0.78355 0.78943 0.48607 0.0
C1942 C 0.77129 0.77501 0.48 0.0
C1943 C 0.78338 0.78386 0.49578 0.0
C1944 C 0.75562 0.75176 0.51516 0.0
H1945 H 0.79664 0.75235 0.55968 0.0
H1946 H 0.79685 0.76201 0.54277 0.0
H1947 H 0.74374 0.74155 0.52858 0.0
H1948 H 0.74871 0.74426 0.47949 0.0
H1949 H 0.74843 0.73453 0.49641 0.0
H1950 H 0.80142 0.7551 0.51063 0.0
C1951 C 0.7871 0.74636 0.54553 0.0
C1952 C 0.75645 0.74414 0.52472 0.0
C1953 C 0.78696 0.74084 0.55525 0.0
C1954 C 0.75832 0.75584 0.48395 0.0
C1955 C 0.75814 0.75028 0.49367 0.0
C1956 C 0.78871 0.7525 0.51448 0.0
C1957 C 0.77424 0.73296 0.53953 0.0
C1958 C 0.77342 0.74057 0.52929 0.0
C1959 C 0.77093 0.76375 0.49968 0.0
C1960 C 0.77174 0.75608 0.50992 0.0
H1961 H 0.75143 0.69258 0.55598 0.0
H1962 H 0.75189 0.70181 0.53905 0.0
H1963 H 0.80285 0.74193 0.52728 0.0
H1964 H 0.79368 0.80443 0.4833 0.0
H1965 H 0.79317 0.79509 0.50022 0.0
C1966 C 0.7847 0.45691 0.80287 0.0
C1967 C 0.77239 0.47085 0.80903 0.0
C1968 C 0.7846 0.46323 0.79321 0.0
C1969 C 0.77064 0.52106 0.7764 0.0
H1970 H 0.77983 0.46138 0.7576 0.0
C1971 C 0.76295 0.54141 0.73621 0.0
C1972 C 0.7753 0.52742 0.73007 0.0
C1973 C 0.76328 0.53565 0.74591 0.0
C1974 C 0.7775 0.4784 0.76277 0.0
H1975 H 0.74981 0.50158 0.80977 0.0
H1976 H 0.74943 0.51223 0.79289 0.0
H1977 H 0.77795 0.44782 0.77421 0.0
H1978 H 0.79827 0.49738 0.72944 0.0
H1979 H 0.79897 0.48765 0.74637 0.0
H1980 H 0.77014 0.55163 0.76495 0.0
C1981 C 0.75942 0.49681 0.79556 0.0
C1982 C 0.77637 0.4706 0.7723 0.0
C1983 C 0.75952 0.49048 0.80524 0.0
C1984 C 0.78851 0.5085 0.73394 0.0
C1985 C 0.78881 0.50269 0.74364 0.0
C1986 C 0.77175 0.52887 0.76687 0.0
C1987 C 0.77217 0.48365 0.78945 0.0
C1988 C 0.77293 0.49182 0.77925 0.0
C1989 C 0.77594 0.51572 0.74972 0.0
C1990 C 0.77521 0.50764 0.75992 0.0
H1991 H 0.79484 0.44174 0.80554 0.0
H1992 H 0.79472 0.45285 0.78875 0.0
H1993 H 0.76831 0.53809 0.78157 0.0
H1994 H 0.75257 0.55607 0.73348 0.0
H1995 H 0.75309 0.54594 0.75035 0.0
C1996 C 0.28325 0.29109 0.48663 0.0
C1997 C 0.27075 0.27723 0.48056 0.0
C1998 C 0.28307 0.28533 0.49633 0.0
C1999 C 0.2687 0.22848 0.51335 0.0
H2000 H 0.27871 0.28829 0.53199 0.0
C2001 C 0.26158 0.20858 0.55358 0.0
C2002 C 0.27407 0.22245 0.55966 0.0
C2003 C 0.26177 0.21435 0.54388 0.0
C2004 C 0.27615 0.27122 0.52687 0.0
H2005 H 0.24769 0.24739 0.48003 0.0
H2006 H 0.24722 0.2377 0.49696 0.0
H2007 H 0.27673 0.30157 0.51535 0.0
H2008 H 0.2971 0.25233 0.5602 0.0
H2009 H 0.2976 0.26204 0.54327 0.0
H2010 H 0.26813 0.19813 0.52486 0.0
C2011 C 0.2574 0.25262 0.49419 0.0
C2012 C 0.27496 0.27887 0.51732 0.0
C2013 C 0.25755 0.25842 0.48449 0.0
C2014 C 0.28725 0.24129 0.55574 0.0
C2015 C 0.28742 0.2471 0.54603 0.0
C2016 C 0.2699 0.22083 0.52289 0.0
C2017 C 0.27039 0.26555 0.50022 0.0
C2018 C 0.27121 0.25761 0.51043 0.0
C2019 C 0.27444 0.23415 0.54 0.0
C2020 C 0.27364 0.2421 0.52979 0.0
H2021 H 0.29363 0.30566 0.48386 0.0
H2022 H 0.29336 0.29554 0.50073 0.0
H2023 H 0.26614 0.21141 0.50823 0.0
H2024 H 0.25121 0.19398 0.55634 0.0
H2025 H 0.25149 0.20413 0.53947 0.0
C2026 C 0.28325 0.45781 0.30338 0.0
C2027 C 0.27086 0.47186 0.30948 0.0
C2028 C 0.28302 0.46351 0.29368 0.0
C2029 C 0.26871 0.52037 0.27665 0.0
H2030 H 0.27839 0.46028 0.25805 0.0
C2031 C 0.26142 0.5399 0.2364 0.0
C2032 C 0.27384 0.52588 0.23032 0.0
C2033 C 0.26163 0.53423 0.24611 0.0
C2034 C 0.27592 0.47742 0.26316 0.0
H2035 H 0.24794 0.50199 0.31004 0.0
H2036 H 0.24736 0.51157 0.29311 0.0
H2037 H 0.27648 0.44719 0.2747 0.0
H2038 H 0.29681 0.49582 0.22979 0.0
H2039 H 0.29735 0.48629 0.24673 0.0
H2040 H 0.26815 0.55061 0.2651 0.0
C2041 C 0.2575 0.49654 0.29586 0.0
C2042 C 0.27477 0.46988 0.27271 0.0
C2043 C 0.25772 0.49081 0.30557 0.0
C2044 C 0.287 0.50698 0.23425 0.0
C2045 C 0.2872 0.50128 0.24396 0.0
C2046 C 0.26987 0.52792 0.26709 0.0
C2047 C 0.27039 0.48341 0.28981 0.0
C2048 C 0.27114 0.49125 0.27959 0.0
C2049 C 0.27427 0.51438 0.24999 0.0
C2050 C 0.2735 0.50655 0.26021 0.0
H2051 H 0.29359 0.44312 0.30614 0.0
H2052 H 0.29323 0.45314 0.28927 0.0
H2053 H 0.26625 0.53752 0.28176 0.0
H2054 H 0.25107 0.55454 0.23364 0.0
H2055 H 0.25139 0.54458 0.25052 0.0
C2056 C 1.01116 0.95821 0.48652 0.0
C2057 C 0.02364 0.97192 0.48038 0.0
C2058 C 1.0115 0.96395 0.49621 0.0
C2059 C 0.02639 0.02058 0.51315 0.0
H2060 H 1.01633 0.96084 0.53185 0.0
C2061 C 0.03412 0.04025 0.55334 0.0
C2062 C 1.02164 0.02654 0.55947 0.0
C2063 C 0.03379 0.03451 0.54365 0.0
C2064 C 1.01891 0.97788 0.52671 0.0
H2065 H 0.04682 0.0015 0.47975 0.0
H2066 H 0.04758 0.01116 0.49667 0.0
H2067 H 1.01802 0.94759 0.51521 0.0
H2068 H 0.99845 0.99697 0.5601 0.0
H2069 H 0.99771 0.98731 0.54318 0.0
H2070 H 0.02729 0.05087 0.52464 0.0
C2071 C 0.03729 0.99636 0.49395 0.0
C2072 C 1.01994 0.97025 0.51716 0.0
C2073 C 0.03697 0.99058 0.48425 0.0
C2074 C 1.00831 0.00788 0.55561 0.0
C2075 C 1.008 0.00211 0.5459 0.0
C2076 C 0.02537 0.02821 0.52269 0.0
C2077 C 0.02433 0.98357 0.50004 0.0
C2078 C 0.0237 0.99149 0.51025 0.0
C2079 C 1.02097 0.01489 0.53982 0.0
C2080 C 1.0216 0.00697 0.52961 0.0
H2081 H 1.00068 0.94376 0.4838 0.0
H2082 H 1.00122 0.95385 0.50066 0.0
H2083 H 0.02897 0.03763 0.50801 0.0
H2084 H 0.0446 0.0547 0.55606 0.0
H2085 H 0.04407 0.0446 0.53921 0.0
C2086 C 0.03523 0.20866 0.73611 0.0
C2087 C 1.02289 0.22299 0.73005 0.0
C2088 C 0.03529 0.21457 0.74579 0.0
C2089 C 1.00809 0.24791 0.76518 0.0
H2090 H 0.05561 0.25717 0.77703 0.0
C2091 C 1.01507 0.29372 0.8029 0.0
C2092 C 0.02722 0.2791 0.80899 0.0
C2093 C 1.01509 0.2879 0.79321 0.0
C2094 C 0.04222 0.25441 0.77386 0.0
H2095 H 1.0004 0.25396 0.72953 0.0
H2096 H 1.00055 0.26432 0.7464 0.0
H2097 H 0.05377 0.24336 0.76045 0.0
H2098 H 0.04951 0.24778 0.80955 0.0
H2099 H 0.04954 0.23764 0.79266 0.0
H2100 H 0.99654 0.25899 0.77859 0.0
C2101 C 1.01014 0.24836 0.74368 0.0
C2102 C 0.04116 0.2464 0.76434 0.0
C2103 C 1.01007 0.24243 0.73399 0.0
C2104 C 0.03998 0.25952 0.80508 0.0
C2105 C 0.04001 0.25371 0.79537 0.0
C2106 C 1.00915 0.25594 0.77469 0.0
C2107 C 1.02301 0.23497 0.74968 0.0
C2108 C 0.02407 0.24301 0.75987 0.0
C2109 C 0.02729 0.26734 0.78935 0.0
C2110 C 0.02624 0.25932 0.77916 0.0
H2111 H 0.04524 0.19346 0.73334 0.0
H2112 H 0.04514 0.20339 0.75023 0.0
H2113 H 0.9947 0.24513 0.76201 0.0
H2114 H 1.0051 0.30904 0.80565 0.0
H2115 H 1.00536 0.29926 0.78876 0.0
C2116 C 0.03397 0.70783 0.23655 0.0
C2117 C 1.02156 0.72182 0.23044 0.0
C2118 C 0.03372 0.71352 0.24624 0.0
C2119 C 1.00556 0.74518 0.26555 0.0
H2120 H 0.05265 0.75627 0.27769 0.0
C2121 C 1.01098 0.79029 0.30345 0.0
C2122 C 0.02342 0.77635 0.30955 0.0
C2123 C 1.01122 0.7846 0.29375 0.0
C2124 C 0.03938 0.75298 0.27444 0.0
H2125 H 0.99862 0.75192 0.22986 0.0
H2126 H 0.99822 0.76188 0.24676 0.0
H2127 H 0.0514 0.74282 0.26107 0.0
H2128 H 0.04638 0.7463 0.31013 0.0
H2129 H 0.04676 0.73632 0.29323 0.0
H2130 H 0.99354 0.75533 0.27893 0.0
C2131 C 1.00811 0.74636 0.24405 0.0
C2132 C 0.03866 0.74518 0.2649 0.0
C2133 C 1.00836 0.74067 0.23434 0.0
C2134 C 0.03663 0.75751 0.30565 0.0
C2135 C 0.03686 0.75181 0.29594 0.0
C2136 C 1.00629 0.75297 0.27509 0.0
C2137 C 1.02104 0.73334 0.2501 0.0
C2138 C 1.02174 0.74115 0.26032 0.0
C2139 C 0.02391 0.76481 0.28989 0.0
C2140 C 0.02321 0.757 0.27967 0.0
H2141 H 0.04428 0.69308 0.23381 0.0
H2142 H 0.04364 0.70263 0.25071 0.0
H2143 H 0.9923 0.74189 0.2623 0.0
H2144 H 1.00067 0.80503 0.3062 0.0
H2145 H 1.00129 0.79547 0.28929 0.0
C2146 C 0.03747 0.48949 0.98439 0.0
C2147 C 0.02412 0.47087 0.98052 0.0
C2148 C 0.03776 0.49534 0.99409 0.0
C2149 C 1.0203 0.46946 1.0173 0.0
H2150 H 0.02771 0.55011 0.02473 0.0
C2151 C 1.00868 0.50739 0.05572 0.0
C2152 C 1.02198 0.52612 0.05958 0.0
C2153 C 1.00838 0.5015 0.04603 0.0
C2154 C 0.02577 0.52744 0.0228 0.0
H2155 H 1.00109 0.44284 0.98393 0.0
H2156 H 1.00159 0.45305 1.00079 0.0
H2157 H 0.02942 0.53675 1.00811 0.0
H2158 H 0.04493 0.55429 0.05614 0.0
H2159 H 0.04443 0.54399 0.03929 0.0
H2160 H 1.01667 0.46014 0.03199 0.0
C2161 C 1.0119 0.46307 0.99635 0.0
C2162 C 0.02681 0.51974 1.01325 0.0
C2163 C 1.01158 0.45726 0.98665 0.0
C2164 C 0.03447 0.53978 0.05343 0.0
C2165 C 0.03415 0.53393 0.04374 0.0
C2166 C 1.01927 0.47716 0.02685 0.0
C2167 C 0.02475 0.48265 1.00017 0.0
C2168 C 0.0241 0.49064 1.01037 0.0
C2169 C 1.02135 0.51425 0.03993 0.0
C2170 C 1.02198 0.50625 0.02973 0.0
H2171 H 0.04736 0.50033 0.97989 0.0
H2172 H 0.04806 0.51011 0.99681 0.0
H2173 H 1.01836 0.44679 1.01537 0.0
H2174 H 0.99883 0.49651 0.06023 0.0
H2175 H 0.9981 0.48666 0.04332 0.0
C2176 C 0.60626 0.03666 0.0867 0.0
C2177 C 0.58991 0.04077 0.09178 0.0
C2178 C 0.62055 0.05691 0.08735 0.0
C2179 C 0.6523 0.09529 0.09361 0.0
H2180 H 0.64006 0.17775 0.09371 0.0
C2181 C 0.70755 0.18443 0.09832 0.0
C2182 C 0.70627 0.20916 0.09246 0.0
C2183 C 0.69319 0.16427 0.09883 0.0
C2184 C 0.64373 0.15482 0.09364 0.0
H2185 H 0.57614 0.069 0.10181 0.0
H2186 H 0.60105 0.10424 0.10296 0.0
H2187 H 0.61564 0.14146 0.09336 0.0
H2188 H 0.6887 0.23205 0.08257 0.0
H2189 H 0.66371 0.19697 0.08344 0.0
H2190 H 0.68038 0.10865 0.09362 0.0
C2191 C 0.60268 0.08562 0.09832 0.0
C2192 C 0.62971 0.13398 0.09355 0.0
C2193 C 0.58839 0.06538 0.09767 0.0
C2194 C 0.69009 0.21353 0.08726 0.0
C2195 C 0.67573 0.19335 0.08776 0.0
C2196 C 0.66631 0.11613 0.0937 0.0
C2197 C 0.61888 0.08179 0.0931 0.0
C2198 C 0.63382 0.10395 0.09349 0.0
C2199 C 0.67717 0.16831 0.09347 0.0
C2200 C 0.66221 0.14616 0.09367 0.0
H2201 H 0.60784 0.01825 0.08199 0.0
H2202 H 0.63271 0.05346 0.08312 0.0
H2203 H 0.65596 0.07236 0.09366 0.0
H2204 H 0.71966 0.18062 0.10255 0.0
H2205 H 0.69463 0.14553 0.10344 0.0
C2206 C 0.60552 0.21184 0.20281 0.0
C2207 C 0.5893 0.20749 0.19765 0.0
C2208 C 0.6199 0.19169 0.20228 0.0
C2209 C 0.65188 0.15328 0.1963 0.0
H2210 H 0.63978 0.07079 0.19638 0.0
C2211 C 0.70735 0.06411 0.19221 0.0
C2212 C 0.70597 0.03958 0.19816 0.0
C2213 C 0.69298 0.08423 0.19156 0.0
C2214 C 0.6434 0.09373 0.1964 0.0
H2215 H 0.57585 0.17898 0.1876 0.0
H2216 H 0.6009 0.14391 0.18666 0.0
H2217 H 0.6153 0.10701 0.19646 0.0
H2218 H 0.6882 0.017 0.20803 0.0
H2219 H 0.66319 0.05201 0.20689 0.0
H2220 H 0.67999 0.14 0.19651 0.0
C2221 C 0.60237 0.16264 0.19126 0.0
C2222 C 0.62936 0.11452 0.19634 0.0
C2223 C 0.58799 0.18278 0.19179 0.0
C2224 C 0.68968 0.03537 0.20328 0.0
C2225 C 0.67531 0.0555 0.20263 0.0
C2226 C 0.66593 0.13249 0.19636 0.0
C2227 C 0.61843 0.16668 0.19657 0.0
C2228 C 0.63341 0.14457 0.19634 0.0
C2229 C 0.67685 0.08034 0.19683 0.0
C2230 C 0.66187 0.10244 0.19646 0.0
H2231 H 0.60694 0.23036 0.20749 0.0
H2232 H 0.63196 0.19531 0.20657 0.0
H2233 H 0.65551 0.17622 0.19621 0.0
H2234 H 0.71956 0.06779 0.18805 0.0
H2235 H 0.69451 0.10282 0.18689 0.0
C2236 C 0.43941 0.96239 0.95278 0.0
C2237 C 0.4557 0.95819 0.94765 0.0
C2238 C 0.42512 0.94212 0.95221 0.0
C2239 C 0.41595 0.86491 0.94623 0.0
H2240 H 0.36525 0.89013 0.94627 0.0
C2241 C 0.33811 0.81412 0.94191 0.0
C2242 C 0.3395 0.78958 0.94786 0.0
C2243 C 0.35244 0.8343 0.94129 0.0
C2244 C 0.37933 0.88269 0.94616 0.0
H2245 H 0.46937 0.92977 0.93764 0.0
H2246 H 0.44445 0.89449 0.93664 0.0
H2247 H 0.38964 0.92647 0.94604 0.0
H2248 H 0.35723 0.76708 0.95776 0.0
H2249 H 0.38217 0.80221 0.95668 0.0
H2250 H 0.40564 0.82112 0.94624 0.0
C2251 C 0.44287 0.91321 0.94124 0.0
C2252 C 0.39332 0.90355 0.94614 0.0
C2253 C 0.45716 0.93348 0.94181 0.0
C2254 C 0.35575 0.78545 0.95301 0.0
C2255 C 0.37008 0.80565 0.9524 0.0
C2256 C 0.40195 0.84404 0.94625 0.0
C2257 C 0.42673 0.91713 0.94651 0.0
C2258 C 0.41181 0.89494 0.94622 0.0
C2259 C 0.36853 0.83049 0.94659 0.0
C2260 C 0.38346 0.85266 0.94626 0.0
H2261 H 0.43787 0.98089 0.95745 0.0
H2262 H 0.413 0.94564 0.95647 0.0
H2263 H 0.43003 0.85747 0.94639 0.0
H2264 H 0.32594 0.81775 0.93772 0.0
H2265 H 0.35091 0.85289 0.93662 0.0
C2266 C 0.44058 0.78451 0.837 0.0
C2267 C 0.45676 0.78852 0.84223 0.0
C2268 C 0.42629 0.80482 0.83754 0.0
C2269 C 0.41699 0.88185 0.84373 0.0
H2270 H 0.36631 0.85665 0.8434 0.0
C2271 C 0.33907 0.93247 0.84796 0.0
C2272 C 0.34051 0.95722 0.84211 0.0
C2273 C 0.3534 0.91227 0.84855 0.0
C2274 C 0.38038 0.86408 0.84359 0.0
H2275 H 0.47023 0.81662 0.85239 0.0
H2276 H 0.44533 0.85196 0.85335 0.0
H2277 H 0.39071 0.8203 0.8436 0.0
H2278 H 0.35835 0.9801 0.83235 0.0
H2279 H 0.3833 0.94494 0.83338 0.0
H2280 H 0.40665 0.92564 0.84382 0.0
C2281 C 0.44383 0.83337 0.84869 0.0
C2282 C 0.39438 0.84322 0.84359 0.0
C2283 C 0.45812 0.81308 0.84815 0.0
C2284 C 0.35683 0.96155 0.83702 0.0
C2285 C 0.37116 0.94134 0.83761 0.0
C2286 C 0.40298 0.90272 0.84371 0.0
C2287 C 0.4278 0.82964 0.84333 0.0
C2288 C 0.41287 0.85183 0.84361 0.0
C2289 C 0.36956 0.91629 0.84331 0.0
C2290 C 0.3845 0.89411 0.8436 0.0
H2291 H 0.43912 0.76614 0.83227 0.0
H2292 H 0.41426 0.80144 0.83321 0.0
H2293 H 0.43106 0.88929 0.84365 0.0
H2294 H 0.32685 0.92868 0.8521 0.0
H2295 H 0.35183 0.89351 0.85315 0.0
C2296 C 0.68985 0.71304 0.58684 0.0
C2297 C 0.70618 0.70868 0.59191 0.0
C2298 C 0.67549 0.69289 0.58746 0.0
C2299 C 0.64363 0.65456 0.59365 0.0
H2300 H 0.65569 0.57204 0.59362 0.0
C2301 C 0.58821 0.56555 0.5982 0.0
C2302 C 0.58946 0.54093 0.5923 0.0
C2303 C 0.60259 0.58565 0.59874 0.0
C2304 C 0.65207 0.59499 0.59359 0.0
H2305 H 0.71984 0.68015 0.60191 0.0
H2306 H 0.69482 0.64511 0.60301 0.0
H2307 H 0.68018 0.60821 0.59335 0.0
H2308 H 0.60702 0.5182 0.58238 0.0
H2309 H 0.63205 0.55319 0.5833 0.0
H2310 H 0.61551 0.64135 0.59363 0.0
C2311 C 0.69325 0.66383 0.5984 0.0
C2312 C 0.66613 0.61575 0.59355 0.0
C2313 C 0.70761 0.68397 0.59778 0.0
C2314 C 0.60564 0.53664 0.5871 0.0
C2315 C 0.62002 0.55676 0.58762 0.0
C2316 C 0.62957 0.6338 0.5937 0.0
C2317 C 0.67707 0.66789 0.59318 0.0
C2318 C 0.66209 0.64581 0.59353 0.0
C2319 C 0.61861 0.58167 0.59338 0.0
C2320 C 0.63361 0.60374 0.59362 0.0
H2321 H 0.68833 0.73155 0.58215 0.0
H2322 H 0.66334 0.69652 0.58324 0.0
H2323 H 0.64001 0.67751 0.59373 0.0
H2324 H 0.57609 0.5693 0.60243 0.0
H2325 H 0.60116 0.6043 0.60337 0.0
C2326 C 0.58894 0.68413 0.6923 0.0
C2327 C 0.59039 0.70877 0.69818 0.0
C2328 C 0.60328 0.66395 0.69168 0.0
C2329 C 0.63031 0.6157 0.69656 0.0
H2330 H 0.68097 0.64103 0.69647 0.0
C2331 C 0.69068 0.53626 0.70304 0.0
C2332 C 0.70686 0.54048 0.69783 0.0
C2333 C 0.67633 0.55646 0.70251 0.0
C2334 C 0.6669 0.63356 0.6964 0.0
H2335 H 0.60824 0.73149 0.70795 0.0
H2336 H 0.63321 0.69638 0.70686 0.0
H2337 H 0.65653 0.67733 0.69636 0.0
H2338 H 0.72025 0.56879 0.68767 0.0
H2339 H 0.69523 0.60393 0.68672 0.0
H2340 H 0.64068 0.57194 0.69649 0.0
C2341 C 0.62105 0.69284 0.70263 0.0
C2342 C 0.65288 0.6544 0.69645 0.0
C2343 C 0.60671 0.71303 0.70325 0.0
C2344 C 0.70814 0.56509 0.69191 0.0
C2345 C 0.69379 0.58528 0.69137 0.0
C2346 C 0.64433 0.59487 0.69652 0.0
C2347 C 0.61945 0.66789 0.69691 0.0
C2348 C 0.6344 0.64574 0.69657 0.0
C2349 C 0.67777 0.58138 0.69673 0.0
C2350 C 0.66281 0.60352 0.69648 0.0
H2351 H 0.5767 0.6804 0.68817 0.0
H2352 H 0.6017 0.64527 0.68706 0.0
H2353 H 0.61624 0.60823 0.69675 0.0
H2354 H 0.68928 0.51783 0.70777 0.0
H2355 H 0.6643 0.55295 0.70683 0.0
C2356 C 0.44113 0.45958 0.45308 0.0
C2357 C 0.45737 0.45431 0.44803 0.0
C2358 C 0.42642 0.44005 0.45254 0.0
C2359 C 0.41606 0.36302 0.44677 0.0
H2360 H 0.36571 0.38992 0.44679 0.0
C2361 C 0.33774 0.31447 0.44235 0.0
C2362 C 0.33889 0.28979 0.44825 0.0
C2363 C 0.35223 0.33439 0.44181 0.0
C2364 C 0.37969 0.38202 0.44669 0.0
H2365 H 0.47049 0.42503 0.43809 0.0
H2366 H 0.44487 0.39112 0.4371 0.0
H2367 H 0.39059 0.42546 0.44651 0.0
H2368 H 0.35633 0.2668 0.45817 0.0
H2369 H 0.38154 0.30144 0.45723 0.0
H2370 H 0.4052 0.3196 0.44683 0.0
C2371 C 0.44364 0.40999 0.44166 0.0
C2372 C 0.39396 0.40242 0.44664 0.0
C2373 C 0.45833 0.42947 0.44222 0.0
C2374 C 0.35504 0.28527 0.45346 0.0
C2375 C 0.36952 0.3052 0.45291 0.0
C2376 C 0.40181 0.34263 0.44682 0.0
C2377 C 0.42758 0.41481 0.44691 0.0
C2378 C 0.41233 0.39318 0.44672 0.0
C2379 C 0.36825 0.33014 0.44714 0.0
C2380 C 0.38344 0.35186 0.44682 0.0
H2381 H 0.43998 0.47827 0.45771 0.0
H2382 H 0.41436 0.44428 0.45677 0.0
H2383 H 0.43004 0.35509 0.44695 0.0
H2384 H 0.32564 0.3184 0.43813 0.0
H2385 H 0.3509 0.35307 0.43716 0.0
C2386 C 0.45843 0.31851 0.348 0.0
C2387 C 0.45753 0.2937 0.34218 0.0
C2388 C 0.44372 0.33798 0.34854 0.0
C2389 C 0.39409 0.34564 0.34345 0.0
H2390 H 0.40538 0.42843 0.34326 0.0
C2391 C 0.35534 0.46292 0.33654 0.0
C2392 C 0.33916 0.45851 0.34173 0.0
C2393 C 0.36978 0.44291 0.3371 0.0
C2394 C 0.40198 0.4054 0.34327 0.0
H2395 H 0.44023 0.26972 0.33247 0.0
H2396 H 0.41456 0.3037 0.33338 0.0
H2397 H 0.4302 0.39286 0.3432 0.0
H2398 H 0.32581 0.42999 0.35184 0.0
H2399 H 0.351 0.39518 0.35285 0.0
H2400 H 0.36585 0.35823 0.34325 0.0
C2401 C 0.4266 0.30793 0.33763 0.0
C2402 C 0.41622 0.38498 0.34335 0.0
C2403 C 0.44132 0.28841 0.3371 0.0
C2404 C 0.33793 0.43384 0.34763 0.0
C2405 C 0.35238 0.41384 0.3482 0.0
C2406 C 0.37984 0.36608 0.34337 0.0
C2407 C 0.4277 0.33317 0.34326 0.0
C2408 C 0.41247 0.35483 0.34341 0.0
C2409 C 0.36844 0.418 0.34288 0.0
C2410 C 0.3836 0.39623 0.34323 0.0
H2411 H 0.47057 0.32296 0.35214 0.0
H2412 H 0.4449 0.35685 0.3531 0.0
H2413 H 0.3907 0.32261 0.34359 0.0
H2414 H 0.35668 0.48139 0.33182 0.0
H2415 H 0.38183 0.4466 0.3328 0.0
C2416 C 0.106 0.03614 0.58693 0.0
C2417 C 0.08971 0.04034 0.59206 0.0
C2418 C 0.12033 0.05633 0.58754 0.0
C2419 C 0.1522 0.09468 0.59367 0.0
H2420 H 0.13999 0.17715 0.59377 0.0
C2421 C 0.20752 0.18391 0.59807 0.0
C2422 C 0.20613 0.2086 0.59219 0.0
C2423 C 0.19319 0.16372 0.59865 0.0
C2424 C 0.14365 0.15422 0.5937 0.0
H2425 H 0.07611 0.06861 0.60214 0.0
H2426 H 0.1011 0.10373 0.60321 0.0
H2427 H 0.11556 0.14088 0.59355 0.0
H2428 H 0.18838 0.23137 0.58236 0.0
H2429 H 0.16344 0.19624 0.58336 0.0
H2430 H 0.18029 0.10803 0.59355 0.0
C2431 C 0.10264 0.0851 0.59858 0.0
C2432 C 0.12963 0.13339 0.59369 0.0
C2433 C 0.08831 0.06493 0.59797 0.0
C2434 C 0.18987 0.21288 0.58706 0.0
C2435 C 0.17553 0.19268 0.58763 0.0
C2436 C 0.16622 0.11551 0.59369 0.0
C2437 C 0.11877 0.08122 0.5933 0.0
C2438 C 0.13372 0.10335 0.59362 0.0
C2439 C 0.17708 0.16769 0.59336 0.0
C2440 C 0.16213 0.14555 0.59365 0.0
H2441 H 0.10749 0.01773 0.58222 0.0
H2442 H 0.13244 0.05283 0.58327 0.0
H2443 H 0.15586 0.07175 0.59371 0.0
H2444 H 0.21971 0.18016 0.60224 0.0
H2445 H 0.19472 0.14501 0.60327 0.0
C2446 C 0.19033 0.03576 0.70292 0.0
C2447 C 0.2066 0.03989 0.69777 0.0
C2448 C 0.17602 0.05601 0.70231 0.0
C2449 C 0.14418 0.09451 0.69617 0.0
H2450 H 0.15652 0.17691 0.69597 0.0
C2451 C 0.08901 0.184 0.69164 0.0
C2452 C 0.09044 0.20872 0.69749 0.0
C2453 C 0.10331 0.16373 0.6911 0.0
C2454 C 0.15283 0.154 0.69607 0.0
H2455 H 0.2202 0.06808 0.68765 0.0
H2456 H 0.19525 0.10329 0.68657 0.0
H2457 H 0.1809 0.14051 0.69622 0.0
H2458 H 0.10821 0.23147 0.70729 0.0
H2459 H 0.1331 0.1962 0.70635 0.0
H2460 H 0.11611 0.10801 0.69628 0.0
C2461 C 0.1937 0.08468 0.69122 0.0
C2462 C 0.16682 0.1331 0.6961 0.0
C2463 C 0.20801 0.06445 0.69184 0.0
C2464 C 0.1067 0.21295 0.70262 0.0
C2465 C 0.121 0.19267 0.70208 0.0
C2466 C 0.13019 0.11541 0.69613 0.0
C2467 C 0.17759 0.08088 0.69652 0.0
C2468 C 0.16267 0.10309 0.6962 0.0
C2469 C 0.11942 0.16765 0.69638 0.0
C2470 C 0.13434 0.14543 0.69613 0.0
H2471 H 0.18884 0.01736 0.70765 0.0
H2472 H 0.16392 0.05257 0.70659 0.0
H2473 H 0.14049 0.0716 0.69615 0.0
H2474 H 0.07683 0.18028 0.68747 0.0
H2475 H 0.10176 0.145 0.68651 0.0
C2476 C 0.93925 0.96223 0.45289 0.0
C2477 C 0.95555 0.95807 0.44777 0.0
C2478 C 0.92494 0.942 0.45227 0.0
C2479 C 0.91582 0.86488 0.44619 0.0
H2480 H 0.8651 0.88994 0.44622 0.0
C2481 C 0.83813 0.81372 0.44176 0.0
C2482 C 0.83955 0.78917 0.4477 0.0
C2483 C 0.8524 0.83403 0.44118 0.0
C2484 C 0.87919 0.88255 0.44612 0.0
H2485 H 0.96921 0.92983 0.4377 0.0
H2486 H 0.94427 0.89463 0.43662 0.0
H2487 H 0.88945 0.92637 0.44605 0.0
H2488 H 0.85727 0.7668 0.45765 0.0
H2489 H 0.8821 0.80211 0.45662 0.0
H2490 H 0.90557 0.82106 0.44617 0.0
C2491 C 0.94269 0.91326 0.44125 0.0
C2492 C 0.89315 0.90346 0.44613 0.0
C2493 C 0.957 0.93348 0.44187 0.0
C2494 C 0.85577 0.78516 0.4529 0.0
C2495 C 0.87003 0.80547 0.45231 0.0
C2496 C 0.90185 0.84397 0.4462 0.0
C2497 C 0.92655 0.91711 0.44652 0.0
C2498 C 0.91165 0.89489 0.44621 0.0
C2499 C 0.86847 0.8303 0.44651 0.0
C2500 C 0.88336 0.85254 0.44621 0.0
H2501 H 0.93772 0.98064 0.4576 0.0
H2502 H 0.91281 0.94547 0.45653 0.0
H2503 H 0.92991 0.85748 0.44636 0.0
H2504 H 0.82598 0.81727 0.43754 0.0
H2505 H 0.85085 0.85262 0.43651 0.0
C2506 C 0.93935 0.78574 0.33721 0.0
C2507 C 0.95564 0.78989 0.34233 0.0
C2508 C 0.92503 0.80598 0.33782 0.0
C2509 C 0.91597 0.88313 0.3439 0.0
H2510 H 0.86521 0.85831 0.34382 0.0
C2511 C 0.83836 0.9347 0.34829 0.0
C2512 C 0.83985 0.95926 0.34237 0.0
C2513 C 0.85258 0.91429 0.34887 0.0
C2514 C 0.87931 0.86563 0.34394 0.0
H2515 H 0.96926 0.81806 0.35241 0.0
H2516 H 0.94431 0.85327 0.3535 0.0
H2517 H 0.88951 0.82176 0.34401 0.0
H2518 H 0.85763 0.98155 0.33243 0.0
H2519 H 0.88238 0.94606 0.33345 0.0
H2520 H 0.90577 0.92699 0.34392 0.0
C2521 C 0.94275 0.83466 0.34886 0.0
C2522 C 0.89325 0.84465 0.34394 0.0
C2523 C 0.95706 0.81443 0.34825 0.0
C2524 C 0.85608 0.96317 0.33717 0.0
C2525 C 0.8703 0.94276 0.33775 0.0
C2526 C 0.90203 0.9041 0.34389 0.0
C2527 C 0.92663 0.83086 0.34358 0.0
C2528 C 0.91176 0.85313 0.34388 0.0
C2529 C 0.86867 0.91793 0.34354 0.0
C2530 C 0.88352 0.89562 0.34386 0.0
H2531 H 0.93784 0.76735 0.33248 0.0
H2532 H 0.91292 0.80255 0.33356 0.0
H2533 H 0.93006 0.89046 0.34375 0.0
H2534 H 0.8262 0.93122 0.35251 0.0
H2535 H 0.85099 0.89569 0.35353 0.0
C2536 C 0.19021 0.71315 0.0871 0.0
C2537 C 0.20646 0.70882 0.09225 0.0
C2538 C 0.17584 0.69301 0.08768 0.0
C2539 C 0.14389 0.65461 0.09372 0.0
H2540 H 0.15606 0.57213 0.09382 0.0
C2541 C 0.08851 0.5654 0.09803 0.0
C2542 C 0.08994 0.54071 0.09218 0.0
C2543 C 0.10284 0.58559 0.09862 0.0
C2544 C 0.15242 0.59506 0.09375 0.0
H2545 H 0.21997 0.68037 0.10232 0.0
H2546 H 0.19492 0.64534 0.10335 0.0
H2547 H 0.18051 0.60836 0.09365 0.0
H2548 H 0.10775 0.51796 0.08238 0.0
H2549 H 0.13269 0.55309 0.0834 0.0
H2550 H 0.1158 0.6413 0.09355 0.0
C2551 C 0.19343 0.66403 0.09872 0.0
C2552 C 0.16645 0.61587 0.09377 0.0
C2553 C 0.20779 0.68416 0.09814 0.0
C2554 C 0.10624 0.53645 0.08706 0.0
C2555 C 0.12056 0.55665 0.08765 0.0
C2556 C 0.12986 0.6338 0.09371 0.0
C2557 C 0.17734 0.66803 0.09342 0.0
C2558 C 0.16237 0.64592 0.0937 0.0
C2559 C 0.11898 0.58163 0.09337 0.0
C2560 C 0.13394 0.60375 0.09367 0.0
H2561 H 0.18877 0.73163 0.0824 0.0
H2562 H 0.16376 0.6966 0.0834 0.0
H2563 H 0.14024 0.67755 0.09376 0.0
H2564 H 0.0763 0.56913 0.10219 0.0
H2565 H 0.10128 0.60428 0.10323 0.0
C2566 C 0.10586 0.71235 0.20298 0.0
C2567 C 0.08958 0.70819 0.19784 0.0
C2568 C 0.12018 0.69213 0.20237 0.0
C2569 C 0.15203 0.65365 0.19625 0.0
H2570 H 0.13973 0.57124 0.1962 0.0
C2571 C 0.20724 0.56418 0.19189 0.0
C2572 C 0.20584 0.53956 0.1978 0.0
C2573 C 0.19293 0.58441 0.1913 0.0
C2574 C 0.14341 0.59415 0.19625 0.0
H2575 H 0.07598 0.67997 0.18776 0.0
H2576 H 0.10095 0.64479 0.18669 0.0
H2577 H 0.11534 0.60761 0.1964 0.0
H2578 H 0.18808 0.51696 0.20767 0.0
H2579 H 0.16316 0.55216 0.20664 0.0
H2580 H 0.1801 0.6402 0.19637 0.0
C2581 C 0.1025 0.66341 0.19133 0.0
C2582 C 0.12941 0.61503 0.19625 0.0
C2583 C 0.08817 0.68362 0.19194 0.0
C2584 C 0.18958 0.53539 0.20295 0.0
C2585 C 0.17526 0.55564 0.20236 0.0
C2586 C 0.16603 0.63277 0.19624 0.0
C2587 C 0.11862 0.66725 0.19661 0.0
C2588 C 0.13354 0.64506 0.1963 0.0
C2589 C 0.17682 0.58055 0.19659 0.0
C2590 C 0.1619 0.60275 0.19629 0.0
H2591 H 0.10735 0.73075 0.2077 0.0
H2592 H 0.13229 0.69559 0.20664 0.0
H2593 H 0.15571 0.67657 0.19619 0.0
H2594 H 0.21943 0.56785 0.18771 0.0
H2595 H 0.19447 0.60307 0.18666 0.0
C2596 C 0.85445 0.28743 0.95239 0.0
C2597 C 0.83845 0.29177 0.94704 0.0
C2598 C 0.86909 0.30704 0.95176 0.0
C2599 C 0.87938 0.38341 0.94523 0.0
H2600 H 0.92983 0.35715 0.94629 0.0
C2601 C 0.95778 0.4325 0.9418 0.0
C2602 C 0.95626 0.45734 0.94759 0.0
C2603 C 0.94336 0.41251 0.9411 0.0
C2604 C 0.91582 0.36486 0.9459 0.0
H2605 H 0.82573 0.31954 0.9365 0.0
H2606 H 0.85125 0.35368 0.93539 0.0
H2607 H 0.90514 0.32129 0.94593 0.0
H2608 H 0.93817 0.48057 0.95714 0.0
H2609 H 0.91306 0.44583 0.9559 0.0
H2610 H 0.89007 0.42697 0.94512 0.0
C2611 C 0.85233 0.3354 0.94022 0.0
C2612 C 0.90166 0.34429 0.9458 0.0
C2613 C 0.83769 0.31578 0.94085 0.0
C2614 C 0.93978 0.46196 0.95251 0.0
C2615 C 0.92535 0.44198 0.95181 0.0
C2616 C 0.89354 0.40398 0.94535 0.0
C2617 C 0.86811 0.33149 0.94576 0.0
C2618 C 0.88325 0.35331 0.94551 0.0
C2619 C 0.92702 0.41686 0.94616 0.0
C2620 C 0.91194 0.39497 0.94573 0.0
H2621 H 0.85545 0.26946 0.95733 0.0
H2622 H 0.88094 0.30355 0.95621 0.0
H2623 H 0.86537 0.39115 0.94511 0.0
H2624 H 0.97013 0.42847 0.93779 0.0
H2625 H 0.945 0.39368 0.93656 0.0
C2626 C 0.94237 0.28887 0.83457 0.0
C2627 C 0.95826 0.2927 0.84004 0.0
C2628 C 0.92815 0.30933 0.8349 0.0
C2629 C 0.91851 0.38628 0.84102 0.0
H2630 H 0.86793 0.36059 0.84103 0.0
C2631 C 0.84077 0.43527 0.84679 0.0
C2632 C 0.84123 0.4599 0.84084 0.0
C2633 C 0.85541 0.41563 0.84703 0.0
C2634 C 0.88198 0.36814 0.84111 0.0
H2635 H 0.97129 0.3207 0.85039 0.0
H2636 H 0.9465 0.35633 0.85096 0.0
H2637 H 0.89246 0.32446 0.84093 0.0
H2638 H 0.85778 0.48346 0.83066 0.0
H2639 H 0.88341 0.44923 0.83112 0.0
H2640 H 0.90799 0.43 0.84129 0.0
C2641 C 0.9452 0.33775 0.84628 0.0
C2642 C 0.89605 0.34742 0.84094 0.0
C2643 C 0.95941 0.31728 0.84596 0.0
C2644 C 0.85701 0.46491 0.83538 0.0
C2645 C 0.87171 0.44525 0.83564 0.0
C2646 C 0.90443 0.40703 0.84115 0.0
C2647 C 0.92945 0.33413 0.84071 0.0
C2648 C 0.91449 0.35622 0.84091 0.0
C2649 C 0.87094 0.42012 0.84135 0.0
C2650 C 0.88599 0.3982 0.84122 0.0
H2651 H 0.94109 0.2705 0.82982 0.0
H2652 H 0.9163 0.30606 0.83043 0.0
H2653 H 0.93257 0.39381 0.8409 0.0
H2654 H 0.82902 0.43104 0.85123 0.0
H2655 H 0.85454 0.39684 0.85166 0.0
loop_
_geom_bond_atom_site_label_1
_geom_bond_atom_site_label_2
_geom_bond_distance
_geom_bond_site_symmetry_2
_ccdc_geom_bond_type
Cu0 N1 1.999 . S
Cu0 O6 1.974 . S
Cu0 N11 1.985 1_545 S
Cu0 O20 1.959 1_545 S
N1 Cu0 1.999 . S
N1 C3 1.263 . S
N1 C5 1.389 . S
N2 C3 1.358 . S
N2 C4 1.400 . S
C3 N1 1.263 . S
C3 N2 1.358 . S
C3 H9 0.930 . S
C4 N2 1.400 . S
C4 C5 1.351 . S
C4 H21 0.930 . S
C5 N1 1.389 . S
C5 C4 1.351 . S
C5 H10 0.930 1_545 S
O6 Cu0 1.974 . S
O6 C16 1.282 . S
C7 O8 1.261 . S
C7 O20 1.251 1_545 S
O8 C7 1.261 . S
H9 C3 0.930 . S
H10 C5 0.930 1_565 S
N11 Cu0 1.985 1_565 S
N11 C13 1.335 . S
N11 C14 1.390 1_565 S
N12 C13 1.345 . S
N12 C15 1.336 . S
C13 N11 1.335 . S
C13 N12 1.345 . S
C13 H18 0.930 . S
C14 N11 1.390 1_545 S
C14 C15 1.346 1_545 S
C14 H19 0.930 . S
C15 N12 1.336 . S
C15 C14 1.346 1_565 S
C15 H22 0.929 . S
C16 O6 1.282 . S
C16 O17 1.216 . S
O17 C16 1.216 . S
H18 C13 0.930 . S
H19 C14 0.930 . S
O20 Cu0 1.959 1_565 S
O20 C7 1.251 1_565 S
H21 C4 0.930 . S
H22 C15 0.929 . S
Cu23 N24 1.999 . S
Cu23 O29 1.974 . S
Cu23 N34 1.985 . S
Cu23 O43 1.959 . S
N24 Cu23 1.999 . S
N24 C26 1.263 . S
N24 C28 1.389 . S
N25 C26 1.358 . S
N25 C27 1.400 . S
C26 N24 1.263 . S
C26 N25 1.358 . S
C26 H32 0.930 . S
C27 N25 1.400 . S
C27 C28 1.351 . S
C27 H44 0.930 . S
C28 N24 1.389 . S
C28 C27 1.351 . S
C28 H33 0.930 . S
O29 Cu23 1.974 . S
O29 C39 1.282 . S
C30 O31 1.261 . S
C30 O43 1.251 . S
O31 C30 1.261 . S
H32 C26 0.930 . S
H33 C28 0.930 . S
N34 Cu23 1.985 . S
N34 C36 1.335 . S
N34 C37 1.390 . S
N35 C36 1.345 . S
N35 C38 1.336 . S
C36 N34 1.335 . S
C36 N35 1.345 . S
C36 H41 0.930 . S
C37 N34 1.390 . S
C37 C38 1.346 . S
C37 H42 0.930 . S
C38 N35 1.336 . S
C38 C37 1.346 . S
C38 H45 0.929 . S
C39 O29 1.282 . S
C39 O40 1.216 . S
O40 C39 1.216 . S
H41 C36 0.930 . S
H42 C37 0.930 . S
O43 Cu23 1.959 . S
O43 C30 1.251 . S
H44 C27 0.930 . S
H45 C38 0.929 . S
Cu46 N47 1.999 . S
Cu46 O52 1.974 . S
Cu46 N57 1.985 . S
Cu46 O66 1.959 . S
N47 Cu46 1.999 . S
N47 C49 1.263 . S
N47 C51 1.389 . S
N48 C49 1.358 . S
N48 C50 1.400 . S
C49 N47 1.263 . S
C49 N48 1.358 . S
C49 H55 0.930 . S
C50 N48 1.400 . S
C50 C51 1.351 . S
C50 H67 0.930 . S
C51 N47 1.389 . S
C51 C50 1.351 . S
C51 H56 0.930 . S
O52 Cu46 1.974 . S
O52 C62 1.282 . S
C53 O54 1.261 . S
C53 O66 1.251 . S
O54 C53 1.261 . S
H55 C49 0.930 . S
H56 C51 0.930 . S
N57 Cu46 1.985 . S
N57 C59 1.335 . S
N57 C60 1.390 . S
N58 C59 1.345 . S
N58 C61 1.336 . S
C59 N57 1.335 . S
C59 N58 1.345 . S
C59 H64 0.930 . S
C60 N57 1.390 . S
C60 C61 1.346 . S
C60 H65 0.930 . S
C61 N58 1.336 . S
C61 C60 1.346 . S
C61 H68 0.929 . S
C62 O52 1.282 . S
C62 O63 1.216 . S
O63 C62 1.216 . S
H64 C59 0.930 . S
H65 C60 0.930 . S
O66 Cu46 1.959 . S
O66 C53 1.251 . S
H67 C50 0.930 . S
H68 C61 0.929 . S
Cu69 N70 1.999 . S
Cu69 O75 1.974 . S
Cu69 N80 1.985 1_545 S
Cu69 O89 1.959 1_545 S
N70 Cu69 1.999 . S
N70 C72 1.263 . S
N70 C74 1.389 . S
N71 C72 1.358 . S
N71 C73 1.400 . S
C72 N70 1.263 . S
C72 N71 1.358 . S
C72 H78 0.930 . S
C73 N71 1.400 . S
C73 C74 1.351 . S
C73 H90 0.930 . S
C74 N70 1.389 . S
C74 C73 1.351 . S
C74 H79 0.930 1_545 S
O75 Cu69 1.974 . S
O75 C85 1.282 . S
C76 O77 1.261 . S
C76 O89 1.251 1_545 S
O77 C76 1.261 . S
H78 C72 0.930 . S
H79 C74 0.930 1_565 S
N80 Cu69 1.985 1_565 S
N80 C82 1.335 . S
N80 C83 1.390 1_565 S
N81 C82 1.345 . S
N81 C84 1.336 . S
C82 N80 1.335 . S
C82 N81 1.345 . S
C82 H87 0.930 . S
C83 N80 1.390 1_545 S
C83 C84 1.346 1_545 S
C83 H88 0.930 . S
C84 N81 1.336 . S
C84 C83 1.346 1_565 S
C84 H91 0.929 . S
C85 O75 1.282 . S
C85 O86 1.216 . S
O86 C85 1.216 . S
H87 C82 0.930 . S
H88 C83 0.930 . S
O89 Cu69 1.959 1_565 S
O89 C76 1.251 1_565 S
H90 C73 0.930 . S
H91 C84 0.929 . S
Cu92 N93 1.999 . S
Cu92 O98 1.974 . S
Cu92 N103 1.985 1_565 S
Cu92 O112 1.959 1_565 S
N93 Cu92 1.999 . S
N93 C95 1.263 . S
N93 C97 1.389 . S
N94 C95 1.358 . S
N94 C96 1.400 . S
C95 N93 1.263 . S
C95 N94 1.358 . S
C95 H101 0.930 . S
C96 N94 1.400 . S
C96 C97 1.351 . S
C96 H113 0.930 . S
C97 N93 1.389 . S
C97 C96 1.351 . S
C97 H102 0.930 1_565 S
O98 Cu92 1.974 . S
O98 C108 1.282 . S
C99 O100 1.261 . S
C99 O112 1.251 1_565 S
O100 C99 1.261 . S
H101 C95 0.930 . S
H102 C97 0.930 1_545 S
N103 Cu92 1.985 1_545 S
N103 C105 1.335 . S
N103 C106 1.390 1_545 S
N104 C105 1.345 . S
N104 C107 1.336 . S
C105 N103 1.335 . S
C105 N104 1.345 . S
C105 H110 0.930 . S
C106 N103 1.390 1_565 S
C106 C107 1.346 1_565 S
C106 H111 0.930 . S
C107 N104 1.336 . S
C107 C106 1.346 1_545 S
C107 H114 0.929 . S
C108 O98 1.282 . S
C108 O109 1.216 . S
O109 C108 1.216 . S
H110 C105 0.930 . S
H111 C106 0.930 . S
O112 Cu92 1.959 1_545 S
O112 C99 1.251 1_545 S
H113 C96 0.930 . S
H114 C107 0.929 . S
Cu115 N116 1.999 . S
Cu115 O121 1.974 . S
Cu115 N126 1.985 . S
Cu115 O135 1.959 . S
N116 Cu115 1.999 . S
N116 C118 1.263 . S
N116 C120 1.389 . S
N117 C118 1.358 . S
N117 C119 1.400 . S
C118 N116 1.263 . S
C118 N117 1.358 . S
C118 H124 0.930 . S
C119 N117 1.400 . S
C119 C120 1.351 . S
C119 H136 0.930 . S
C120 N116 1.389 . S
C120 C119 1.351 . S
C120 H125 0.930 . S
O121 Cu115 1.974 . S
O121 C131 1.282 . S
C122 O123 1.261 . S
C122 O135 1.251 . S
O123 C122 1.261 . S
H124 C118 0.930 . S
H125 C120 0.930 . S
N126 Cu115 1.985 . S
N126 C128 1.335 . S
N126 C129 1.390 . S
N127 C128 1.345 . S
N127 C130 1.336 . S
C128 N126 1.335 . S
C128 N127 1.345 . S
C128 H133 0.930 . S
C129 N126 1.390 . S
C129 C130 1.346 . S
C129 H134 0.930 . S
C130 N127 1.336 . S
C130 C129 1.346 . S
C130 H137 0.929 . S
C131 O121 1.282 . S
C131 O132 1.216 . S
O132 C131 1.216 . S
H133 C128 0.930 . S
H134 C129 0.930 . S
O135 Cu115 1.959 . S
O135 C122 1.251 . S
H136 C119 0.930 . S
H137 C130 0.929 . S
Cu138 N139 1.999 . S
Cu138 O144 1.974 . S
Cu138 N149 1.985 . S
Cu138 O158 1.959 . S
N139 Cu138 1.999 . S
N139 C141 1.263 . S
N139 C143 1.389 . S
N140 C141 1.358 . S
N140 C142 1.400 . S
C141 N139 1.263 . S
C141 N140 1.358 . S
C141 H147 0.930 . S
C142 N140 1.400 . S
C142 C143 1.351 . S
C142 H159 0.930 . S
C143 N139 1.389 . S
C143 C142 1.351 . S
C143 H148 0.930 . S
O144 Cu138 1.974 . S
O144 C154 1.282 . S
C145 O146 1.261 . S
C145 O158 1.251 . S
O146 C145 1.261 . S
H147 C141 0.930 . S
H148 C143 0.930 . S
N149 Cu138 1.985 . S
N149 C151 1.335 . S
N149 C152 1.390 . S
N150 C151 1.345 . S
N150 C153 1.336 . S
C151 N149 1.335 . S
C151 N150 1.345 . S
C151 H156 0.930 . S
C152 N149 1.390 . S
C152 C153 1.346 . S
C152 H157 0.930 . S
C153 N150 1.336 . S
C153 C152 1.346 . S
C153 H160 0.929 . S
C154 O144 1.282 . S
C154 O155 1.216 . S
O155 C154 1.216 . S
H156 C151 0.930 . S
H157 C152 0.930 . S
O158 Cu138 1.959 . S
O158 C145 1.251 . S
H159 C142 0.930 . S
H160 C153 0.929 . S
Cu161 N162 1.999 . S
Cu161 O167 1.974 . S
Cu161 N172 1.985 1_565 S
Cu161 O181 1.959 1_565 S
N162 Cu161 1.999 . S
N162 C164 1.263 . S
N162 C166 1.389 . S
N163 C164 1.358 . S
N163 C165 1.400 . S
C164 N162 1.263 . S
C164 N163 1.358 . S
C164 H170 0.930 . S
C165 N163 1.400 . S
C165 C166 1.351 . S
C165 H182 0.930 . S
C166 N162 1.389 . S
C166 C165 1.351 . S
C166 H171 0.930 1_565 S
O167 Cu161 1.974 . S
O167 C177 1.282 . S
C168 O169 1.261 . S
C168 O181 1.251 1_565 S
O169 C168 1.261 . S
H170 C164 0.930 . S
H171 C166 0.930 1_545 S
N172 Cu161 1.985 1_545 S
N172 C174 1.335 . S
N172 C175 1.390 1_545 S
N173 C174 1.345 . S
N173 C176 1.336 . S
C174 N172 1.335 . S
C174 N173 1.345 . S
C174 H179 0.930 . S
C175 N172 1.390 1_565 S
C175 C176 1.346 1_565 S
C175 H180 0.930 . S
C176 N173 1.336 . S
C176 C175 1.346 1_545 S
C176 H183 0.929 . S
C177 O167 1.282 . S
C177 O178 1.216 . S
O178 C177 1.216 . S
H179 C174 0.930 . S
H180 C175 0.930 . S
O181 Cu161 1.959 1_545 S
O181 C168 1.251 1_545 S
H182 C165 0.930 . S
H183 C176 0.929 . S
Cu184 N185 1.999 . S
Cu184 O190 1.974 . S
Cu184 N195 1.985 . S
Cu184 O204 1.959 . S
N185 Cu184 1.999 . S
N185 C187 1.263 . S
N185 C189 1.389 . S
N186 C187 1.358 . S
N186 C188 1.400 . S
C187 N185 1.263 . S
C187 N186 1.358 . S
C187 H193 0.930 . S
C188 N186 1.400 . S
C188 C189 1.351 . S
C188 H205 0.930 . S
C189 N185 1.389 . S
C189 C188 1.351 . S
C189 H194 0.930 . S
O190 Cu184 1.974 . S
O190 C200 1.282 . S
C191 O192 1.261 . S
C191 O204 1.251 . S
O192 C191 1.261 . S
H193 C187 0.930 . S
H194 C189 0.930 . S
N195 Cu184 1.985 . S
N195 C197 1.335 . S
N195 C198 1.390 . S
N196 C197 1.345 . S
N196 C199 1.336 . S
C197 N195 1.335 . S
C197 N196 1.345 . S
C197 H202 0.930 . S
C198 N195 1.390 . S
C198 C199 1.346 . S
C198 H203 0.930 . S
C199 N196 1.336 . S
C199 C198 1.346 . S
C199 H206 0.929 . S
C200 O190 1.282 . S
C200 O201 1.216 . S
O201 C200 1.216 . S
H202 C197 0.930 . S
H203 C198 0.930 . S
O204 Cu184 1.959 . S
O204 C191 1.251 . S
H205 C188 0.930 . S
H206 C199 0.929 . S
Cu207 N208 1.999 . S
Cu207 O213 1.974 . S
Cu207 N218 1.985 . S
Cu207 O227 1.959 . S
N208 Cu207 1.999 . S
N208 C210 1.263 . S
N208 C212 1.389 . S
N209 C210 1.358 . S
N209 C211 1.400 . S
C210 N208 1.263 . S
C210 N209 1.358 . S
C210 H216 0.930 . S
C211 N209 1.400 . S
C211 C212 1.351 . S
C211 H228 0.930 . S
C212 N208 1.389 . S
C212 C211 1.351 . S
C212 H217 0.930 . S
O213 Cu207 1.974 . S
O213 C223 1.282 . S
C214 O215 1.261 . S
C214 O227 1.251 . S
O215 C214 1.261 . S
H216 C210 0.930 . S
H217 C212 0.930 . S
N218 Cu207 1.985 . S
N218 C220 1.335 . S
N218 C221 1.390 . S
N219 C220 1.345 . S
N219 C222 1.336 . S
C220 N218 1.335 . S
C220 N219 1.345 . S
C220 H225 0.930 . S
C221 N218 1.390 . S
C221 C222 1.346 . S
C221 H226 0.930 . S
C222 N219 1.336 . S
C222 C221 1.346 . S
C222 H229 0.929 . S
C223 O213 1.282 . S
C223 O224 1.216 . S
O224 C223 1.216 . S
H225 C220 0.930 . S
H226 C221 0.930 . S
O227 Cu207 1.959 . S
O227 C214 1.251 . S
H228 C211 0.930 . S
H229 C222 0.929 . S
Cu230 N231 1.999 . S
Cu230 O236 1.974 . S
Cu230 N241 1.985 . S
Cu230 O250 1.959 . S
N231 Cu230 1.999 . S
N231 C233 1.263 . S
N231 C235 1.389 . S
N232 C233 1.358 . S
N232 C234 1.400 . S
C233 N231 1.263 . S
C233 N232 1.358 . S
C233 H239 0.930 . S
C234 N232 1.400 . S
C234 C235 1.351 . S
C234 H251 0.930 . S
C235 N231 1.389 . S
C235 C234 1.351 . S
C235 H240 0.930 . S
O236 Cu230 1.974 . S
O236 C246 1.282 . S
C237 O238 1.261 . S
C237 O250 1.251 . S
O238 C237 1.261 . S
H239 C233 0.930 . S
H240 C235 0.930 . S
N241 Cu230 1.985 . S
N241 C243 1.335 . S
N241 C244 1.390 . S
N242 C243 1.345 . S
N242 C245 1.336 . S
C243 N241 1.335 . S
C243 N242 1.345 . S
C243 H248 0.930 . S
C244 N241 1.390 . S
C244 C245 1.346 . S
C244 H249 0.930 . S
C245 N242 1.336 . S
C245 C244 1.346 . S
C245 H252 0.929 . S
C246 O236 1.282 . S
C246 O247 1.216 . S
O247 C246 1.216 . S
H248 C243 0.930 . S
H249 C244 0.930 . S
O250 Cu230 1.959 . S
O250 C237 1.251 . S
H251 C234 0.930 . S
H252 C245 0.929 . S
Cu253 N254 1.999 . S
Cu253 O259 1.974 . S
Cu253 N264 1.985 . S
Cu253 O273 1.959 . S
N254 Cu253 1.999 . S
N254 C256 1.263 . S
N254 C258 1.389 . S
N255 C256 1.358 . S
N255 C257 1.400 . S
C256 N254 1.263 . S
C256 N255 1.358 . S
C256 H262 0.930 . S
C257 N255 1.400 . S
C257 C258 1.351 . S
C257 H274 0.930 . S
C258 N254 1.389 . S
C258 C257 1.351 . S
C258 H263 0.930 . S
O259 Cu253 1.974 . S
O259 C269 1.282 . S
C260 O261 1.261 . S
C260 O273 1.251 . S
O261 C260 1.261 . S
H262 C256 0.930 . S
H263 C258 0.930 . S
N264 Cu253 1.985 . S
N264 C266 1.335 . S
N264 C267 1.390 . S
N265 C266 1.345 . S
N265 C268 1.336 . S
C266 N264 1.335 . S
C266 N265 1.345 . S
C266 H271 0.930 . S
C267 N264 1.390 . S
C267 C268 1.346 . S
C267 H272 0.930 . S
C268 N265 1.336 . S
C268 C267 1.346 . S
C268 H275 0.929 . S
C269 O259 1.282 . S
C269 O270 1.216 . S
O270 C269 1.216 . S
H271 C266 0.930 . S
H272 C267 0.930 . S
O273 Cu253 1.959 . S
O273 C260 1.251 . S
H274 C257 0.930 . S
H275 C268 0.929 . S
Cu276 N277 1.999 . S
Cu276 O282 1.974 . S
Cu276 N287 1.985 . S
Cu276 O296 1.959 . S
N277 Cu276 1.999 . S
N277 C279 1.263 . S
N277 C281 1.389 . S
N278 C279 1.358 . S
N278 C280 1.400 . S
C279 N277 1.263 . S
C279 N278 1.358 . S
C279 H285 0.930 . S
C280 N278 1.400 . S
C280 C281 1.351 . S
C280 H297 0.930 . S
C281 N277 1.389 . S
C281 C280 1.351 . S
C281 H286 0.930 . S
O282 Cu276 1.974 . S
O282 C292 1.282 . S
C283 O284 1.261 . S
C283 O296 1.251 . S
O284 C283 1.261 . S
H285 C279 0.930 . S
H286 C281 0.930 . S
N287 Cu276 1.985 . S
N287 C289 1.335 . S
N287 C290 1.390 . S
N288 C289 1.345 . S
N288 C291 1.336 . S
C289 N287 1.335 . S
C289 N288 1.345 . S
C289 H294 0.930 . S
C290 N287 1.390 . S
C290 C291 1.346 . S
C290 H295 0.930 . S
C291 N288 1.336 . S
C291 C290 1.346 . S
C291 H298 0.929 . S
C292 O282 1.282 . S
C292 O293 1.216 . S
O293 C292 1.216 . S
H294 C289 0.930 . S
H295 C290 0.930 . S
O296 Cu276 1.959 . S
O296 C283 1.251 . S
H297 C280 0.930 . S
H298 C291 0.929 . S
Cu299 N300 1.999 . S
Cu299 O305 1.974 . S
Cu299 N310 1.985 . S
Cu299 O319 1.959 . S
N300 Cu299 1.999 . S
N300 C302 1.263 . S
N300 C304 1.389 . S
N301 C302 1.358 . S
N301 C303 1.400 . S
C302 N300 1.263 . S
C302 N301 1.358 . S
C302 H308 0.930 . S
C303 N301 1.400 . S
C303 C304 1.351 . S
C303 H320 0.930 . S
C304 N300 1.389 . S
C304 C303 1.351 . S
C304 H309 0.930 . S
O305 Cu299 1.974 . S
O305 C315 1.282 . S
C306 O307 1.261 . S
C306 O319 1.251 . S
O307 C306 1.261 . S
H308 C302 0.930 . S
H309 C304 0.930 . S
N310 Cu299 1.985 . S
N310 C312 1.335 . S
N310 C313 1.390 . S
N311 C312 1.345 . S
N311 C314 1.336 . S
C312 N310 1.335 . S
C312 N311 1.345 . S
C312 H317 0.930 . S
C313 N310 1.390 . S
C313 C314 1.346 . S
C313 H318 0.930 . S
C314 N311 1.336 . S
C314 C313 1.346 . S
C314 H321 0.929 . S
C315 O305 1.282 . S
C315 O316 1.216 . S
O316 C315 1.216 . S
H317 C312 0.930 . S
H318 C313 0.930 . S
O319 Cu299 1.959 . S
O319 C306 1.251 . S
H320 C303 0.930 . S
H321 C314 0.929 . S
Cu322 N323 1.999 . S
Cu322 O328 1.974 . S
Cu322 N333 1.985 . S
Cu322 O342 1.959 . S
N323 Cu322 1.999 . S
N323 C325 1.263 . S
N323 C327 1.389 . S
N324 C325 1.358 . S
N324 C326 1.400 . S
C325 N323 1.263 . S
C325 N324 1.358 . S
C325 H331 0.930 . S
C326 N324 1.400 . S
C326 C327 1.351 . S
C326 H343 0.930 . S
C327 N323 1.389 . S
C327 C326 1.351 . S
C327 H332 0.930 . S
O328 Cu322 1.974 . S
O328 C338 1.282 . S
C329 O330 1.261 . S
C329 O342 1.251 . S
O330 C329 1.261 . S
H331 C325 0.930 . S
H332 C327 0.930 . S
N333 Cu322 1.985 . S
N333 C335 1.335 . S
N333 C336 1.390 . S
N334 C335 1.345 . S
N334 C337 1.336 . S
C335 N333 1.335 . S
C335 N334 1.345 . S
C335 H340 0.930 . S
C336 N333 1.390 . S
C336 C337 1.346 . S
C336 H341 0.930 . S
C337 N334 1.336 . S
C337 C336 1.346 . S
C337 H344 0.929 . S
C338 O328 1.282 . S
C338 O339 1.216 . S
O339 C338 1.216 . S
H340 C335 0.930 . S
H341 C336 0.930 . S
O342 Cu322 1.959 . S
O342 C329 1.251 . S
H343 C326 0.930 . S
H344 C337 0.929 . S
Cu345 N346 1.999 . S
Cu345 O351 1.974 . S
Cu345 N356 1.985 . S
Cu345 O365 1.959 . S
N346 Cu345 1.999 . S
N346 C348 1.263 . S
N346 C350 1.389 . S
N347 C348 1.358 . S
N347 C349 1.400 . S
C348 N346 1.263 . S
C348 N347 1.358 . S
C348 H354 0.930 . S
C349 N347 1.400 . S
C349 C350 1.351 . S
C349 H366 0.930 . S
C350 N346 1.389 . S
C350 C349 1.351 . S
C350 H355 0.930 . S
O351 Cu345 1.974 . S
O351 C361 1.282 . S
C352 O353 1.261 . S
C352 O365 1.251 . S
O353 C352 1.261 . S
H354 C348 0.930 . S
H355 C350 0.930 . S
N356 Cu345 1.985 . S
N356 C358 1.335 . S
N356 C359 1.390 . S
N357 C358 1.345 . S
N357 C360 1.336 . S
C358 N356 1.335 . S
C358 N357 1.345 . S
C358 H363 0.930 . S
C359 N356 1.390 . S
C359 C360 1.346 . S
C359 H364 0.930 . S
C360 N357 1.336 . S
C360 C359 1.346 . S
C360 H367 0.929 . S
C361 O351 1.282 . S
C361 O362 1.216 . S
O362 C361 1.216 . S
H363 C358 0.930 . S
H364 C359 0.930 . S
O365 Cu345 1.959 . S
O365 C352 1.251 . S
H366 C349 0.930 . S
H367 C360 0.929 . S
Cu368 N369 1.999 . S
Cu368 O374 1.974 . S
Cu368 N379 1.985 1_445 S
Cu368 O388 1.959 1_545 S
N369 Cu368 1.999 . S
N369 C371 1.263 . S
N369 C373 1.389 . S
N370 C371 1.358 . S
N370 C372 1.400 . S
C371 N369 1.263 . S
C371 N370 1.358 . S
C371 H377 0.930 . S
C372 N370 1.400 . S
C372 C373 1.351 . S
C372 H389 0.930 . S
C373 N369 1.389 . S
C373 C372 1.351 . S
C373 H378 0.930 1_545 S
O374 Cu368 1.974 . S
O374 C384 1.282 1_455 S
C375 O376 1.261 . S
C375 O388 1.251 1_645 S
O376 C375 1.261 . S
H377 C371 0.930 . S
H378 C373 0.930 1_565 S
N379 Cu368 1.985 1_665 S
N379 C381 1.335 . S
N379 C382 1.390 1_565 S
N380 C381 1.345 . S
N380 C383 1.336 . S
C381 N379 1.335 . S
C381 N380 1.345 . S
C381 H386 0.930 . S
C382 N379 1.390 1_545 S
C382 C383 1.346 1_545 S
C382 H387 0.930 . S
C383 N380 1.336 . S
C383 C382 1.346 1_565 S
C383 H390 0.929 . S
C384 O374 1.282 1_655 S
C384 O385 1.216 . S
O385 C384 1.216 . S
H386 C381 0.930 . S
H387 C382 0.930 . S
O388 Cu368 1.959 1_565 S
O388 C375 1.251 1_465 S
H389 C372 0.930 . S
H390 C383 0.929 . S
Cu391 N392 1.999 . S
Cu391 O397 1.974 . S
Cu391 N402 1.985 . S
Cu391 O411 1.959 . S
N392 Cu391 1.999 . S
N392 C394 1.263 . S
N392 C396 1.389 . S
N393 C394 1.358 . S
N393 C395 1.400 . S
C394 N392 1.263 . S
C394 N393 1.358 . S
C394 H400 0.930 . S
C395 N393 1.400 . S
C395 C396 1.351 . S
C395 H412 0.930 . S
C396 N392 1.389 . S
C396 C395 1.351 . S
C396 H401 0.930 . S
O397 Cu391 1.974 . S
O397 C407 1.282 . S
C398 O399 1.261 . S
C398 O411 1.251 . S
O399 C398 1.261 . S
H400 C394 0.930 . S
H401 C396 0.930 . S
N402 Cu391 1.985 . S
N402 C404 1.335 . S
N402 C405 1.390 . S
N403 C404 1.345 . S
N403 C406 1.336 . S
C404 N402 1.335 . S
C404 N403 1.345 . S
C404 H409 0.930 . S
C405 N402 1.390 . S
C405 C406 1.346 . S
C405 H410 0.930 . S
C406 N403 1.336 . S
C406 C405 1.346 . S
C406 H413 0.929 . S
C407 O397 1.282 . S
C407 O408 1.216 . S
O408 C407 1.216 . S
H409 C404 0.930 . S
H410 C405 0.930 . S
O411 Cu391 1.959 . S
O411 C398 1.251 . S
H412 C395 0.930 . S
H413 C406 0.929 . S
Cu414 N415 1.999 . S
Cu414 O420 1.974 . S
Cu414 N425 1.985 1_455 S
Cu414 O434 1.959 . S
N415 Cu414 1.999 . S
N415 C417 1.263 . S
N415 C419 1.389 . S
N416 C417 1.358 . S
N416 C418 1.400 . S
C417 N415 1.263 . S
C417 N416 1.358 . S
C417 H423 0.930 . S
C418 N416 1.400 . S
C418 C419 1.351 . S
C418 H435 0.930 . S
C419 N415 1.389 . S
C419 C418 1.351 . S
C419 H424 0.930 . S
O420 Cu414 1.974 . S
O420 C430 1.282 1_455 S
C421 O422 1.261 . S
C421 O434 1.251 1_655 S
O422 C421 1.261 . S
H423 C417 0.930 . S
H424 C419 0.930 . S
N425 Cu414 1.985 1_655 S
N425 C427 1.335 . S
N425 C428 1.390 . S
N426 C427 1.345 . S
N426 C429 1.336 . S
C427 N425 1.335 . S
C427 N426 1.345 . S
C427 H432 0.930 . S
C428 N425 1.390 . S
C428 C429 1.346 . S
C428 H433 0.930 . S
C429 N426 1.336 . S
C429 C428 1.346 . S
C429 H436 0.929 . S
C430 O420 1.282 1_655 S
C430 O431 1.216 . S
O431 C430 1.216 . S
H432 C427 0.930 . S
H433 C428 0.930 . S
O434 Cu414 1.959 . S
O434 C421 1.251 1_455 S
H435 C418 0.930 . S
H436 C429 0.929 . S
Cu437 N438 1.999 . S
Cu437 O443 1.974 . S
Cu437 N448 1.985 1_545 S
Cu437 O457 1.959 1_545 S
N438 Cu437 1.999 . S
N438 C440 1.263 . S
N438 C442 1.389 . S
N439 C440 1.358 . S
N439 C441 1.400 . S
C440 N438 1.263 . S
C440 N439 1.358 . S
C440 H446 0.930 . S
C441 N439 1.400 . S
C441 C442 1.351 . S
C441 H458 0.930 . S
C442 N438 1.389 . S
C442 C441 1.351 . S
C442 H447 0.930 1_545 S
O443 Cu437 1.974 . S
O443 C453 1.282 . S
C444 O445 1.261 . S
C444 O457 1.251 1_545 S
O445 C444 1.261 . S
H446 C440 0.930 . S
H447 C442 0.930 1_565 S
N448 Cu437 1.985 1_565 S
N448 C450 1.335 . S
N448 C451 1.390 1_565 S
N449 C450 1.345 . S
N449 C452 1.336 . S
C450 N448 1.335 . S
C450 N449 1.345 . S
C450 H455 0.930 . S
C451 N448 1.390 1_545 S
C451 C452 1.346 1_545 S
C451 H456 0.930 . S
C452 N449 1.336 . S
C452 C451 1.346 1_565 S
C452 H459 0.929 . S
C453 O443 1.282 . S
C453 O454 1.216 . S
O454 C453 1.216 . S
H455 C450 0.930 . S
H456 C451 0.930 . S
O457 Cu437 1.959 1_565 S
O457 C444 1.251 1_565 S
H458 C441 0.930 . S
H459 C452 0.929 . S
Cu460 N461 1.999 . S
Cu460 O466 1.974 . S
Cu460 N471 1.985 1_665 S
Cu460 O480 1.959 1_565 S
N461 Cu460 1.999 . S
N461 C463 1.263 . S
N461 C465 1.389 . S
N462 C463 1.358 . S
N462 C464 1.400 . S
C463 N461 1.263 . S
C463 N462 1.358 . S
C463 H469 0.930 . S
C464 N462 1.400 . S
C464 C465 1.351 . S
C464 H481 0.930 . S
C465 N461 1.389 . S
C465 C464 1.351 . S
C465 H470 0.930 1_565 S
O466 Cu460 1.974 . S
O466 C476 1.282 1_655 S
C467 O468 1.261 . S
C467 O480 1.251 1_465 S
O468 C467 1.261 . S
H469 C463 0.930 . S
H470 C465 0.930 1_545 S
N471 Cu460 1.985 1_445 S
N471 C473 1.335 . S
N471 C474 1.390 1_545 S
N472 C473 1.345 . S
N472 C475 1.336 . S
C473 N471 1.335 . S
C473 N472 1.345 . S
C473 H478 0.930 . S
C474 N471 1.390 1_565 S
C474 C475 1.346 1_565 S
C474 H479 0.930 . S
C475 N472 1.336 . S
C475 C474 1.346 1_545 S
C475 H482 0.929 . S
C476 O466 1.282 1_455 S
C476 O477 1.216 . S
O477 C476 1.216 . S
H478 C473 0.930 . S
H479 C474 0.930 . S
O480 Cu460 1.959 1_545 S
O480 C467 1.251 1_645 S
H481 C464 0.930 . S
H482 C475 0.929 . S
Cu483 N484 1.999 . S
Cu483 O489 1.974 . S
Cu483 N494 1.985 . S
Cu483 O503 1.959 . S
N484 Cu483 1.999 . S
N484 C486 1.263 . S
N484 C488 1.389 . S
N485 C486 1.358 . S
N485 C487 1.400 . S
C486 N484 1.263 . S
C486 N485 1.358 . S
C486 H492 0.930 . S
C487 N485 1.400 . S
C487 C488 1.351 . S
C487 H504 0.930 . S
C488 N484 1.389 . S
C488 C487 1.351 . S
C488 H493 0.930 . S
O489 Cu483 1.974 . S
O489 C499 1.282 . S
C490 O491 1.261 . S
C490 O503 1.251 . S
O491 C490 1.261 . S
H492 C486 0.930 . S
H493 C488 0.930 . S
N494 Cu483 1.985 . S
N494 C496 1.335 . S
N494 C497 1.390 . S
N495 C496 1.345 . S
N495 C498 1.336 . S
C496 N494 1.335 . S
C496 N495 1.345 . S
C496 H501 0.930 . S
C497 N494 1.390 . S
C497 C498 1.346 . S
C497 H502 0.930 . S
C498 N495 1.336 . S
C498 C497 1.346 . S
C498 H505 0.929 . S
C499 O489 1.282 . S
C499 O500 1.216 . S
O500 C499 1.216 . S
H501 C496 0.930 . S
H502 C497 0.930 . S
O503 Cu483 1.959 . S
O503 C490 1.251 . S
H504 C487 0.930 . S
H505 C498 0.929 . S
Cu506 N507 1.999 . S
Cu506 O512 1.974 . S
Cu506 N517 1.985 1_655 S
Cu506 O526 1.959 . S
N507 Cu506 1.999 . S
N507 C509 1.263 . S
N507 C511 1.389 . S
N508 C509 1.358 . S
N508 C510 1.400 . S
C509 N507 1.263 . S
C509 N508 1.358 . S
C509 H515 0.930 . S
C510 N508 1.400 . S
C510 C511 1.351 . S
C510 H527 0.930 . S
C511 N507 1.389 . S
C511 C510 1.351 . S
C511 H516 0.930 . S
O512 Cu506 1.974 . S
O512 C522 1.282 1_655 S
C513 O514 1.261 . S
C513 O526 1.251 1_455 S
O514 C513 1.261 . S
H515 C509 0.930 . S
H516 C511 0.930 . S
N517 Cu506 1.985 1_455 S
N517 C519 1.335 . S
N517 C520 1.390 . S
N518 C519 1.345 . S
N518 C521 1.336 . S
C519 N517 1.335 . S
C519 N518 1.345 . S
C519 H524 0.930 . S
C520 N517 1.390 . S
C520 C521 1.346 . S
C520 H525 0.930 . S
C521 N518 1.336 . S
C521 C520 1.346 . S
C521 H528 0.929 . S
C522 O512 1.282 1_455 S
C522 O523 1.216 . S
O523 C522 1.216 . S
H524 C519 0.930 . S
H525 C520 0.930 . S
O526 Cu506 1.959 . S
O526 C513 1.251 1_655 S
H527 C510 0.930 . S
H528 C521 0.929 . S
Cu529 N530 1.999 . S
Cu529 O535 1.974 . S
Cu529 N540 1.985 1_565 S
Cu529 O549 1.959 1_565 S
N530 Cu529 1.999 . S
N530 C532 1.263 . S
N530 C534 1.389 . S
N531 C532 1.358 . S
N531 C533 1.400 . S
C532 N530 1.263 . S
C532 N531 1.358 . S
C532 H538 0.930 . S
C533 N531 1.400 . S
C533 C534 1.351 . S
C533 H550 0.930 . S
C534 N530 1.389 . S
C534 C533 1.351 . S
C534 H539 0.930 1_565 S
O535 Cu529 1.974 . S
O535 C545 1.282 . S
C536 O537 1.261 . S
C536 O549 1.251 1_565 S
O537 C536 1.261 . S
H538 C532 0.930 . S
H539 C534 0.930 1_545 S
N540 Cu529 1.985 1_545 S
N540 C542 1.335 . S
N540 C543 1.390 1_545 S
N541 C542 1.345 . S
N541 C544 1.336 . S
C542 N540 1.335 . S
C542 N541 1.345 . S
C542 H547 0.930 . S
C543 N540 1.390 1_565 S
C543 C544 1.346 1_565 S
C543 H548 0.930 . S
C544 N541 1.336 . S
C544 C543 1.346 1_545 S
C544 H551 0.929 . S
C545 O535 1.282 . S
C545 O546 1.216 . S
O546 C545 1.216 . S
H547 C542 0.930 . S
H548 C543 0.930 . S
O549 Cu529 1.959 1_545 S
O549 C536 1.251 1_545 S
H550 C533 0.930 . S
H551 C544 0.929 . S
Cu552 N553 1.999 . S
Cu552 O558 1.974 . S
Cu552 N563 1.985 1_455 S
Cu552 O572 1.959 . S
N553 Cu552 1.999 . S
N553 C555 1.263 . S
N553 C557 1.389 . S
N554 C555 1.358 . S
N554 C556 1.400 . S
C555 N553 1.263 . S
C555 N554 1.358 . S
C555 H561 0.930 . S
C556 N554 1.400 . S
C556 C557 1.351 . S
C556 H573 0.930 . S
C557 N553 1.389 . S
C557 C556 1.351 . S
C557 H562 0.930 . S
O558 Cu552 1.974 . S
O558 C568 1.282 1_455 S
C559 O560 1.261 . S
C559 O572 1.251 1_655 S
O560 C559 1.261 . S
H561 C555 0.930 . S
H562 C557 0.930 . S
N563 Cu552 1.985 1_655 S
N563 C565 1.335 . S
N563 C566 1.390 . S
N564 C565 1.345 . S
N564 C567 1.336 . S
C565 N563 1.335 . S
C565 N564 1.345 . S
C565 H570 0.930 . S
C566 N563 1.390 . S
C566 C567 1.346 . S
C566 H571 0.930 . S
C567 N564 1.336 . S
C567 C566 1.346 . S
C567 H574 0.929 . S
C568 O558 1.282 1_655 S
C568 O569 1.216 . S
O569 C568 1.216 . S
H570 C565 0.930 . S
H571 C566 0.930 . S
O572 Cu552 1.959 . S
O572 C559 1.251 1_455 S
H573 C556 0.930 . S
H574 C567 0.929 . S
Cu575 N576 1.999 . S
Cu575 O581 1.974 . S
Cu575 N586 1.985 . S
Cu575 O595 1.959 . S
N576 Cu575 1.999 . S
N576 C578 1.263 . S
N576 C580 1.389 . S
N577 C578 1.358 . S
N577 C579 1.400 . S
C578 N576 1.263 . S
C578 N577 1.358 . S
C578 H584 0.930 . S
C579 N577 1.400 . S
C579 C580 1.351 . S
C579 H596 0.930 . S
C580 N576 1.389 . S
C580 C579 1.351 . S
C580 H585 0.930 . S
O581 Cu575 1.974 . S
O581 C591 1.282 . S
C582 O583 1.261 . S
C582 O595 1.251 . S
O583 C582 1.261 . S
H584 C578 0.930 . S
H585 C580 0.930 . S
N586 Cu575 1.985 . S
N586 C588 1.335 . S
N586 C589 1.390 . S
N587 C588 1.345 . S
N587 C590 1.336 . S
C588 N586 1.335 . S
C588 N587 1.345 . S
C588 H593 0.930 . S
C589 N586 1.390 . S
C589 C590 1.346 . S
C589 H594 0.930 . S
C590 N587 1.336 . S
C590 C589 1.346 . S
C590 H597 0.929 . S
C591 O581 1.282 . S
C591 O592 1.216 . S
O592 C591 1.216 . S
H593 C588 0.930 . S
H594 C589 0.930 . S
O595 Cu575 1.959 . S
O595 C582 1.251 . S
H596 C579 0.930 . S
H597 C590 0.929 . S
Cu598 N599 1.999 . S
Cu598 O604 1.974 . S
Cu598 N609 1.985 1_455 S
Cu598 O618 1.959 . S
N599 Cu598 1.999 . S
N599 C601 1.263 . S
N599 C603 1.389 . S
N600 C601 1.358 . S
N600 C602 1.400 . S
C601 N599 1.263 . S
C601 N600 1.358 . S
C601 H607 0.930 . S
C602 N600 1.400 . S
C602 C603 1.351 . S
C602 H619 0.930 . S
C603 N599 1.389 . S
C603 C602 1.351 . S
C603 H608 0.930 . S
O604 Cu598 1.974 . S
O604 C614 1.282 1_455 S
C605 O606 1.261 . S
C605 O618 1.251 1_655 S
O606 C605 1.261 . S
H607 C601 0.930 . S
H608 C603 0.930 . S
N609 Cu598 1.985 1_655 S
N609 C611 1.335 . S
N609 C612 1.390 . S
N610 C611 1.345 . S
N610 C613 1.336 . S
C611 N609 1.335 . S
C611 N610 1.345 . S
C611 H616 0.930 . S
C612 N609 1.390 . S
C612 C613 1.346 . S
C612 H617 0.930 . S
C613 N610 1.336 . S
C613 C612 1.346 . S
C613 H620 0.929 . S
C614 O604 1.282 1_655 S
C614 O615 1.216 . S
O615 C614 1.216 . S
H616 C611 0.930 . S
H617 C612 0.930 . S
O618 Cu598 1.959 . S
O618 C605 1.251 1_455 S
H619 C602 0.930 . S
H620 C613 0.929 . S
Cu621 N622 1.999 . S
Cu621 O627 1.974 . S
Cu621 N632 1.985 . S
Cu621 O641 1.959 . S
N622 Cu621 1.999 . S
N622 C624 1.263 . S
N622 C626 1.389 . S
N623 C624 1.358 . S
N623 C625 1.400 . S
C624 N622 1.263 . S
C624 N623 1.358 . S
C624 H630 0.930 . S
C625 N623 1.400 . S
C625 C626 1.351 . S
C625 H642 0.930 . S
C626 N622 1.389 . S
C626 C625 1.351 . S
C626 H631 0.930 . S
O627 Cu621 1.974 . S
O627 C637 1.282 . S
C628 O629 1.261 . S
C628 O641 1.251 . S
O629 C628 1.261 . S
H630 C624 0.930 . S
H631 C626 0.930 . S
N632 Cu621 1.985 . S
N632 C634 1.335 . S
N632 C635 1.390 . S
N633 C634 1.345 . S
N633 C636 1.336 . S
C634 N632 1.335 . S
C634 N633 1.345 . S
C634 H639 0.930 . S
C635 N632 1.390 . S
C635 C636 1.346 . S
C635 H640 0.930 . S
C636 N633 1.336 . S
C636 C635 1.346 . S
C636 H643 0.929 . S
C637 O627 1.282 . S
C637 O638 1.216 . S
O638 C637 1.216 . S
H639 C634 0.930 . S
H640 C635 0.930 . S
O641 Cu621 1.959 . S
O641 C628 1.251 . S
H642 C625 0.930 . S
H643 C636 0.929 . S
Cu644 N645 1.999 . S
Cu644 O650 1.974 . S
Cu644 N655 1.985 1_655 S
Cu644 O664 1.959 . S
N645 Cu644 1.999 . S
N645 C647 1.263 . S
N645 C649 1.389 . S
N646 C647 1.358 . S
N646 C648 1.400 . S
C647 N645 1.263 . S
C647 N646 1.358 . S
C647 H653 0.930 . S
C648 N646 1.400 . S
C648 C649 1.351 . S
C648 H665 0.930 . S
C649 N645 1.389 . S
C649 C648 1.351 . S
C649 H654 0.930 . S
O650 Cu644 1.974 . S
O650 C660 1.282 1_655 S
C651 O652 1.261 . S
C651 O664 1.251 1_455 S
O652 C651 1.261 . S
H653 C647 0.930 . S
H654 C649 0.930 . S
N655 Cu644 1.985 1_455 S
N655 C657 1.335 . S
N655 C658 1.390 . S
N656 C657 1.345 . S
N656 C659 1.336 . S
C657 N655 1.335 . S
C657 N656 1.345 . S
C657 H662 0.930 . S
C658 N655 1.390 . S
C658 C659 1.346 . S
C658 H663 0.930 . S
C659 N656 1.336 . S
C659 C658 1.346 . S
C659 H666 0.929 . S
C660 O650 1.282 1_455 S
C660 O661 1.216 . S
O661 C660 1.216 . S
H662 C657 0.930 . S
H663 C658 0.930 . S
O664 Cu644 1.959 . S
O664 C651 1.251 1_655 S
H665 C648 0.930 . S
H666 C659 0.929 . S
Cu667 N668 1.999 . S
Cu667 O673 1.974 . S
Cu667 N678 1.985 . S
Cu667 O687 1.959 . S
N668 Cu667 1.999 . S
N668 C670 1.263 . S
N668 C672 1.389 . S
N669 C670 1.358 . S
N669 C671 1.400 . S
C670 N668 1.263 . S
C670 N669 1.358 . S
C670 H676 0.930 . S
C671 N669 1.400 . S
C671 C672 1.351 . S
C671 H688 0.930 . S
C672 N668 1.389 . S
C672 C671 1.351 . S
C672 H677 0.930 . S
O673 Cu667 1.974 . S
O673 C683 1.282 . S
C674 O675 1.261 . S
C674 O687 1.251 . S
O675 C674 1.261 . S
H676 C670 0.930 . S
H677 C672 0.930 . S
N678 Cu667 1.985 . S
N678 C680 1.335 . S
N678 C681 1.390 . S
N679 C680 1.345 . S
N679 C682 1.336 . S
C680 N678 1.335 . S
C680 N679 1.345 . S
C680 H685 0.930 . S
C681 N678 1.390 . S
C681 C682 1.346 . S
C681 H686 0.930 . S
C682 N679 1.336 . S
C682 C681 1.346 . S
C682 H689 0.929 . S
C683 O673 1.282 . S
C683 O684 1.216 . S
O684 C683 1.216 . S
H685 C680 0.930 . S
H686 C681 0.930 . S
O687 Cu667 1.959 . S
O687 C674 1.251 . S
H688 C671 0.930 . S
H689 C682 0.929 . S
Cu690 N691 1.999 . S
Cu690 O696 1.974 . S
Cu690 N701 1.985 1_655 S
Cu690 O710 1.959 . S
N691 Cu690 1.999 . S
N691 C693 1.263 . S
N691 C695 1.389 . S
N692 C693 1.358 . S
N692 C694 1.400 . S
C693 N691 1.263 . S
C693 N692 1.358 . S
C693 H699 0.930 . S
C694 N692 1.400 . S
C694 C695 1.351 . S
C694 H711 0.930 . S
C695 N691 1.389 . S
C695 C694 1.351 . S
C695 H700 0.930 . S
O696 Cu690 1.974 . S
O696 C706 1.282 1_655 S
C697 O698 1.261 . S
C697 O710 1.251 1_455 S
O698 C697 1.261 . S
H699 C693 0.930 . S
H700 C695 0.930 . S
N701 Cu690 1.985 1_455 S
N701 C703 1.335 . S
N701 C704 1.390 . S
N702 C703 1.345 . S
N702 C705 1.336 . S
C703 N701 1.335 . S
C703 N702 1.345 . S
C703 H708 0.930 . S
C704 N701 1.390 . S
C704 C705 1.346 . S
C704 H709 0.930 . S
C705 N702 1.336 . S
C705 C704 1.346 . S
C705 H712 0.929 . S
C706 O696 1.282 1_455 S
C706 O707 1.216 . S
O707 C706 1.216 . S
H708 C703 0.930 . S
H709 C704 0.930 . S
O710 Cu690 1.959 . S
O710 C697 1.251 1_655 S
H711 C694 0.930 . S
H712 C705 0.929 . S
Cu713 N714 1.999 . S
Cu713 O719 1.974 . S
Cu713 N724 1.985 . S
Cu713 O733 1.959 . S
N714 Cu713 1.999 . S
N714 C716 1.263 . S
N714 C718 1.389 . S
N715 C716 1.358 . S
N715 C717 1.400 . S
C716 N714 1.263 . S
C716 N715 1.358 . S
C716 H722 0.930 . S
C717 N715 1.400 . S
C717 C718 1.351 . S
C717 H734 0.930 . S
C718 N714 1.389 . S
C718 C717 1.351 . S
C718 H723 0.930 . S
O719 Cu713 1.974 . S
O719 C729 1.282 . S
C720 O721 1.261 . S
C720 O733 1.251 . S
O721 C720 1.261 . S
H722 C716 0.930 . S
H723 C718 0.930 . S
N724 Cu713 1.985 . S
N724 C726 1.335 . S
N724 C727 1.390 . S
N725 C726 1.345 . S
N725 C728 1.336 . S
C726 N724 1.335 . S
C726 N725 1.345 . S
C726 H731 0.930 . S
C727 N724 1.390 . S
C727 C728 1.346 . S
C727 H732 0.930 . S
C728 N725 1.336 . S
C728 C727 1.346 . S
C728 H735 0.929 . S
C729 O719 1.282 . S
C729 O730 1.216 . S
O730 C729 1.216 . S
H731 C726 0.930 . S
H732 C727 0.930 . S
O733 Cu713 1.959 . S
O733 C720 1.251 . S
H734 C717 0.930 . S
H735 C728 0.929 . S
C736 C737 1.349 . S
C736 C738 1.327 . S
C736 H761 0.950 . S
C737 C736 1.349 . S
C737 C753 1.349 . S
C738 C736 1.327 . S
C738 C757 1.429 . S
C738 H762 0.950 . S
C739 C756 1.574 . S
C739 C758 1.368 . S
C739 H763 0.949 . S
H740 C744 0.949 . S
C741 C742 1.349 . S
C741 C743 1.327 . S
C741 H764 0.950 . S
C742 C741 1.349 . S
C742 C754 1.349 . S
C743 C741 1.327 . S
C743 C759 1.429 . S
C743 H765 0.950 . S
C744 H740 0.949 . S
C744 C752 1.574 . S
C744 C760 1.368 . S
H745 C753 0.950 . S
H746 C751 0.950 . S
H747 C752 0.949 . S
H748 C754 0.950 . S
H749 C755 0.950 . S
H750 C756 0.949 . S
C751 H746 0.950 . S
C751 C753 1.327 . S
C751 C757 1.429 . S
C752 C744 1.574 . S
C752 H747 0.949 . S
C752 C758 1.368 . S
C753 C737 1.349 . S
C753 H745 0.950 . S
C753 C751 1.327 . S
C754 C742 1.349 . S
C754 H748 0.950 . S
C754 C755 1.327 . S
C755 H749 0.950 . S
C755 C754 1.327 . S
C755 C759 1.429 . S
C756 C739 1.574 . S
C756 H750 0.949 . S
C756 C760 1.368 . S
C757 C738 1.429 . S
C757 C751 1.429 . S
C757 C758 1.523 . S
C758 C739 1.368 . S
C758 C752 1.368 . S
C758 C757 1.523 . S
C759 C743 1.429 . S
C759 C755 1.429 . S
C759 C760 1.523 . S
C760 C744 1.368 . S
C760 C756 1.368 . S
C760 C759 1.523 . S
H761 C736 0.950 . S
H762 C738 0.950 . S
H763 C739 0.949 . S
H764 C741 0.950 . S
H765 C743 0.950 . S
C766 C767 1.349 . S
C766 C768 1.327 . S
C766 H791 0.950 . S
C767 C766 1.349 . S
C767 C783 1.349 . S
C768 C766 1.327 . S
C768 C787 1.429 . S
C768 H792 0.950 . S
C769 C786 1.574 . S
C769 C788 1.368 . S
C769 H793 0.949 . S
H770 C774 0.949 . S
C771 C772 1.349 . S
C771 C773 1.327 . S
C771 H794 0.950 . S
C772 C771 1.349 . S
C772 C784 1.349 . S
C773 C771 1.327 . S
C773 C789 1.429 . S
C773 H795 0.950 . S
C774 H770 0.949 . S
C774 C782 1.574 . S
C774 C790 1.368 . S
H775 C783 0.950 . S
H776 C781 0.950 . S
H777 C782 0.949 . S
H778 C784 0.950 . S
H779 C785 0.950 . S
H780 C786 0.949 . S
C781 H776 0.950 . S
C781 C783 1.327 . S
C781 C787 1.429 . S
C782 C774 1.574 . S
C782 H777 0.949 . S
C782 C788 1.368 . S
C783 C767 1.349 . S
C783 H775 0.950 . S
C783 C781 1.327 . S
C784 C772 1.349 . S
C784 H778 0.950 . S
C784 C785 1.327 . S
C785 H779 0.950 . S
C785 C784 1.327 . S
C785 C789 1.429 . S
C786 C769 1.574 . S
C786 H780 0.949 . S
C786 C790 1.368 . S
C787 C768 1.429 . S
C787 C781 1.429 . S
C787 C788 1.523 . S
C788 C769 1.368 . S
C788 C782 1.368 . S
C788 C787 1.523 . S
C789 C773 1.429 . S
C789 C785 1.429 . S
C789 C790 1.523 . S
C790 C774 1.368 . S
C790 C786 1.368 . S
C790 C789 1.523 . S
H791 C766 0.950 . S
H792 C768 0.950 . S
H793 C769 0.949 . S
H794 C771 0.950 . S
H795 C773 0.950 . S
C796 C797 1.349 . S
C796 C798 1.327 . S
C796 H821 0.950 . S
C797 C796 1.349 . S
C797 C813 1.349 . S
C798 C796 1.327 . S
C798 C817 1.429 . S
C798 H822 0.950 . S
C799 C816 1.574 . S
C799 C818 1.368 . S
C799 H823 0.949 . S
H800 C804 0.949 . S
C801 C802 1.349 . S
C801 C803 1.327 . S
C801 H824 0.950 . S
C802 C801 1.349 . S
C802 C814 1.349 . S
C803 C801 1.327 . S
C803 C819 1.429 . S
C803 H825 0.950 . S
C804 H800 0.949 . S
C804 C812 1.574 . S
C804 C820 1.368 . S
H805 C813 0.950 . S
H806 C811 0.950 . S
H807 C812 0.949 . S
H808 C814 0.950 . S
H809 C815 0.950 . S
H810 C816 0.949 . S
C811 H806 0.950 . S
C811 C813 1.327 . S
C811 C817 1.429 . S
C812 C804 1.574 . S
C812 H807 0.949 . S
C812 C818 1.368 . S
C813 C797 1.349 . S
C813 H805 0.950 . S
C813 C811 1.327 . S
C814 C802 1.349 . S
C814 H808 0.950 . S
C814 C815 1.327 . S
C815 H809 0.950 . S
C815 C814 1.327 . S
C815 C819 1.429 . S
C816 C799 1.574 . S
C816 H810 0.949 . S
C816 C820 1.368 . S
C817 C798 1.429 . S
C817 C811 1.429 . S
C817 C818 1.523 . S
C818 C799 1.368 . S
C818 C812 1.368 . S
C818 C817 1.523 . S
C819 C803 1.429 . S
C819 C815 1.429 . S
C819 C820 1.523 . S
C820 C804 1.368 . S
C820 C816 1.368 . S
C820 C819 1.523 . S
H821 C796 0.950 . S
H822 C798 0.950 . S
H823 C799 0.949 . S
H824 C801 0.950 . S
H825 C803 0.950 . S
C826 C827 1.349 . S
C826 C828 1.327 . S
C826 H851 0.950 . S
C827 C826 1.349 . S
C827 C843 1.349 . S
C828 C826 1.327 . S
C828 C847 1.429 . S
C828 H852 0.950 . S
C829 C846 1.574 . S
C829 C848 1.368 . S
C829 H853 0.949 . S
H830 C834 0.949 . S
C831 C832 1.349 . S
C831 C833 1.327 . S
C831 H854 0.950 . S
C832 C831 1.349 . S
C832 C844 1.349 . S
C833 C831 1.327 . S
C833 C849 1.429 . S
C833 H855 0.950 . S
C834 H830 0.949 . S
C834 C842 1.574 . S
C834 C850 1.368 . S
H835 C843 0.950 . S
H836 C841 0.950 . S
H837 C842 0.949 . S
H838 C844 0.950 . S
H839 C845 0.950 . S
H840 C846 0.949 . S
C841 H836 0.950 . S
C841 C843 1.327 . S
C841 C847 1.429 . S
C842 C834 1.574 . S
C842 H837 0.949 . S
C842 C848 1.368 . S
C843 C827 1.349 . S
C843 H835 0.950 . S
C843 C841 1.327 . S
C844 C832 1.349 . S
C844 H838 0.950 . S
C844 C845 1.327 . S
C845 H839 0.950 . S
C845 C844 1.327 . S
C845 C849 1.429 . S
C846 C829 1.574 . S
C846 H840 0.949 . S
C846 C850 1.368 . S
C847 C828 1.429 . S
C847 C841 1.429 . S
C847 C848 1.523 . S
C848 C829 1.368 . S
C848 C842 1.368 . S
C848 C847 1.523 . S
C849 C833 1.429 . S
C849 C845 1.429 . S
C849 C850 1.523 . S
C850 C834 1.368 . S
C850 C846 1.368 . S
C850 C849 1.523 . S
H851 C826 0.950 . S
H852 C828 0.950 . S
H853 C829 0.949 . S
H854 C831 0.950 . S
H855 C833 0.950 . S
C856 C857 1.349 . S
C856 C858 1.327 . S
C856 H881 0.950 . S
C857 C856 1.349 . S
C857 C873 1.349 . S
C858 C856 1.327 . S
C858 C877 1.429 . S
C858 H882 0.950 . S
C859 C876 1.574 . S
C859 C878 1.368 . S
C859 H883 0.949 . S
H860 C864 0.949 . S
C861 C862 1.349 . S
C861 C863 1.327 . S
C861 H884 0.950 . S
C862 C861 1.349 . S
C862 C874 1.349 . S
C863 C861 1.327 . S
C863 C879 1.429 . S
C863 H885 0.950 . S
C864 H860 0.949 . S
C864 C872 1.574 . S
C864 C880 1.368 . S
H865 C873 0.950 . S
H866 C871 0.950 . S
H867 C872 0.949 . S
H868 C874 0.950 . S
H869 C875 0.950 . S
H870 C876 0.949 . S
C871 H866 0.950 . S
C871 C873 1.327 . S
C871 C877 1.429 . S
C872 C864 1.574 . S
C872 H867 0.949 . S
C872 C878 1.368 . S
C873 C857 1.349 . S
C873 H865 0.950 . S
C873 C871 1.327 . S
C874 C862 1.349 . S
C874 H868 0.950 . S
C874 C875 1.327 . S
C875 H869 0.950 . S
C875 C874 1.327 . S
C875 C879 1.429 . S
C876 C859 1.574 . S
C876 H870 0.949 . S
C876 C880 1.368 . S
C877 C858 1.429 . S
C877 C871 1.429 . S
C877 C878 1.523 . S
C878 C859 1.368 . S
C878 C872 1.368 . S
C878 C877 1.523 . S
C879 C863 1.429 . S
C879 C875 1.429 . S
C879 C880 1.523 . S
C880 C864 1.368 . S
C880 C876 1.368 . S
C880 C879 1.523 . S
H881 C856 0.950 . S
H882 C858 0.950 . S
H883 C859 0.949 . S
H884 C861 0.950 . S
H885 C863 0.950 . S
C886 C887 1.349 . S
C886 C888 1.327 . S
C886 H911 0.950 . S
C887 C886 1.349 . S
C887 C903 1.349 . S
C888 C886 1.327 . S
C888 C907 1.429 . S
C888 H912 0.950 . S
C889 C906 1.574 . S
C889 C908 1.368 . S
C889 H913 0.949 . S
H890 C894 0.949 . S
C891 C892 1.349 . S
C891 C893 1.327 . S
C891 H914 0.950 . S
C892 C891 1.349 . S
C892 C904 1.349 . S
C893 C891 1.327 . S
C893 C909 1.429 . S
C893 H915 0.950 . S
C894 H890 0.949 . S
C894 C902 1.574 . S
C894 C910 1.368 . S
H895 C903 0.950 . S
H896 C901 0.950 . S
H897 C902 0.949 . S
H898 C904 0.950 . S
H899 C905 0.950 . S
H900 C906 0.949 . S
C901 H896 0.950 . S
C901 C903 1.327 . S
C901 C907 1.429 . S
C902 C894 1.574 . S
C902 H897 0.949 . S
C902 C908 1.368 . S
C903 C887 1.349 . S
C903 H895 0.950 . S
C903 C901 1.327 . S
C904 C892 1.349 . S
C904 H898 0.950 . S
C904 C905 1.327 . S
C905 H899 0.950 . S
C905 C904 1.327 . S
C905 C909 1.429 . S
C906 C889 1.574 . S
C906 H900 0.949 . S
C906 C910 1.368 . S
C907 C888 1.429 . S
C907 C901 1.429 . S
C907 C908 1.523 . S
C908 C889 1.368 . S
C908 C902 1.368 . S
C908 C907 1.523 . S
C909 C893 1.429 . S
C909 C905 1.429 . S
C909 C910 1.523 . S
C910 C894 1.368 . S
C910 C906 1.368 . S
C910 C909 1.523 . S
H911 C886 0.950 . S
H912 C888 0.950 . S
H913 C889 0.949 . S
H914 C891 0.950 . S
H915 C893 0.950 . S
C916 C917 1.349 . S
C916 C918 1.327 . S
C916 H941 0.950 . S
C917 C916 1.349 . S
C917 C933 1.349 . S
C918 C916 1.327 . S
C918 C937 1.429 . S
C918 H942 0.950 . S
C919 C936 1.574 . S
C919 C938 1.368 . S
C919 H943 0.949 . S
H920 C924 0.949 . S
C921 C922 1.349 . S
C921 C923 1.327 . S
C921 H944 0.950 . S
C922 C921 1.349 . S
C922 C934 1.349 . S
C923 C921 1.327 . S
C923 C939 1.429 . S
C923 H945 0.950 . S
C924 H920 0.949 . S
C924 C932 1.574 . S
C924 C940 1.368 . S
H925 C933 0.950 . S
H926 C931 0.950 . S
H927 C932 0.949 . S
H928 C934 0.950 . S
H929 C935 0.950 . S
H930 C936 0.949 . S
C931 H926 0.950 . S
C931 C933 1.327 . S
C931 C937 1.429 . S
C932 C924 1.574 . S
C932 H927 0.949 . S
C932 C938 1.368 . S
C933 C917 1.349 . S
C933 H925 0.950 . S
C933 C931 1.327 . S
C934 C922 1.349 . S
C934 H928 0.950 . S
C934 C935 1.327 . S
C935 H929 0.950 . S
C935 C934 1.327 . S
C935 C939 1.429 . S
C936 C919 1.574 . S
C936 H930 0.949 . S
C936 C940 1.368 . S
C937 C918 1.429 . S
C937 C931 1.429 . S
C937 C938 1.523 . S
C938 C919 1.368 . S
C938 C932 1.368 . S
C938 C937 1.523 . S
C939 C923 1.429 . S
C939 C935 1.429 . S
C939 C940 1.523 . S
C940 C924 1.368 . S
C940 C936 1.368 . S
C940 C939 1.523 . S
H941 C916 0.950 . S
H942 C918 0.950 . S
H943 C919 0.949 . S
H944 C921 0.950 . S
H945 C923 0.950 . S
C946 C947 1.349 . S
C946 C948 1.327 . S
C946 H971 0.950 . S
C947 C946 1.349 . S
C947 C963 1.349 . S
C948 C946 1.327 . S
C948 C967 1.429 . S
C948 H972 0.950 . S
C949 C966 1.574 . S
C949 C968 1.368 . S
C949 H973 0.949 . S
H950 C954 0.949 . S
C951 C952 1.349 . S
C951 C953 1.327 . S
C951 H974 0.950 . S
C952 C951 1.349 . S
C952 C964 1.349 . S
C953 C951 1.327 . S
C953 C969 1.429 . S
C953 H975 0.950 . S
C954 H950 0.949 . S
C954 C962 1.574 . S
C954 C970 1.368 . S
H955 C963 0.950 . S
H956 C961 0.950 . S
H957 C962 0.949 . S
H958 C964 0.950 . S
H959 C965 0.950 . S
H960 C966 0.949 . S
C961 H956 0.950 . S
C961 C963 1.327 . S
C961 C967 1.429 . S
C962 C954 1.574 . S
C962 H957 0.949 . S
C962 C968 1.368 . S
C963 C947 1.349 . S
C963 H955 0.950 . S
C963 C961 1.327 . S
C964 C952 1.349 . S
C964 H958 0.950 . S
C964 C965 1.327 . S
C965 H959 0.950 . S
C965 C964 1.327 . S
C965 C969 1.429 . S
C966 C949 1.574 . S
C966 H960 0.949 . S
C966 C970 1.368 . S
C967 C948 1.429 . S
C967 C961 1.429 . S
C967 C968 1.523 . S
C968 C949 1.368 . S
C968 C962 1.368 . S
C968 C967 1.523 . S
C969 C953 1.429 . S
C969 C965 1.429 . S
C969 C970 1.523 . S
C970 C954 1.368 . S
C970 C966 1.368 . S
C970 C969 1.523 . S
H971 C946 0.950 . S
H972 C948 0.950 . S
H973 C949 0.949 . S
H974 C951 0.950 . S
H975 C953 0.950 . S
C976 C977 1.348 1_455 S
C976 C978 1.327 . S
C976 H1001 0.950 . S
C977 C976 1.348 1_655 S
C977 C993 1.350 . S
C978 C976 1.327 . S
C978 C997 1.427 1_455 S
C978 H1002 0.950 . S
C979 C996 1.574 . S
C979 C998 1.370 . S
C979 H1003 0.949 . S
H980 C984 0.949 . S
C981 C982 1.350 . S
C981 C983 1.327 . S
C981 H1004 0.950 . S
C982 C981 1.350 . S
C982 C994 1.348 1_655 S
C983 C981 1.327 . S
C983 C999 1.430 . S
C983 H1005 0.950 . S
C984 H980 0.949 . S
C984 C992 1.574 . S
C984 C1000 1.367 1_455 S
H985 C993 0.950 . S
H986 C991 0.950 . S
H987 C992 0.949 . S
H988 C994 0.950 . S
H989 C995 0.950 . S
H990 C996 0.949 . S
C991 H986 0.950 . S
C991 C993 1.327 . S
C991 C997 1.430 . S
C992 C984 1.574 . S
C992 H987 0.949 . S
C992 C998 1.367 1_455 S
C993 C977 1.350 . S
C993 H985 0.950 . S
C993 C991 1.327 . S
C994 C982 1.348 1_455 S
C994 H988 0.950 . S
C994 C995 1.327 . S
C995 H989 0.950 . S
C995 C994 1.327 . S
C995 C999 1.427 1_455 S
C996 C979 1.574 . S
C996 H990 0.949 . S
C996 C1000 1.370 . S
C997 C978 1.427 1_655 S
C997 C991 1.430 . S
C997 C998 1.523 . S
C998 C979 1.370 . S
C998 C992 1.367 1_655 S
C998 C997 1.523 . S
C999 C983 1.430 . S
C999 C995 1.427 1_655 S
C999 C1000 1.523 . S
C1000 C984 1.367 1_655 S
C1000 C996 1.370 . S
C1000 C999 1.523 . S
H1001 C976 0.950 . S
H1002 C978 0.950 . S
H1003 C979 0.949 . S
H1004 C981 0.950 . S
H1005 C983 0.950 . S
C1006 C1007 1.349 . S
C1006 C1008 1.327 . S
C1006 H1031 0.950 . S
C1007 C1006 1.349 . S
C1007 C1023 1.349 . S
C1008 C1006 1.327 . S
C1008 C1027 1.429 . S
C1008 H1032 0.950 . S
C1009 C1026 1.574 . S
C1009 C1028 1.368 . S
C1009 H1033 0.949 . S
H1010 C1014 0.949 . S
C1011 C1012 1.349 . S
C1011 C1013 1.327 . S
C1011 H1034 0.950 . S
C1012 C1011 1.349 . S
C1012 C1024 1.349 . S
C1013 C1011 1.327 . S
C1013 C1029 1.429 . S
C1013 H1035 0.950 . S
C1014 H1010 0.949 . S
C1014 C1022 1.574 . S
C1014 C1030 1.368 . S
H1015 C1023 0.950 . S
H1016 C1021 0.950 . S
H1017 C1022 0.949 . S
H1018 C1024 0.950 . S
H1019 C1025 0.950 . S
H1020 C1026 0.949 . S
C1021 H1016 0.950 . S
C1021 C1023 1.327 . S
C1021 C1027 1.429 . S
C1022 C1014 1.574 . S
C1022 H1017 0.949 . S
C1022 C1028 1.368 . S
C1023 C1007 1.349 . S
C1023 H1015 0.950 . S
C1023 C1021 1.327 . S
C1024 C1012 1.349 . S
C1024 H1018 0.950 . S
C1024 C1025 1.327 . S
C1025 H1019 0.950 . S
C1025 C1024 1.327 . S
C1025 C1029 1.429 . S
C1026 C1009 1.574 . S
C1026 H1020 0.949 . S
C1026 C1030 1.368 . S
C1027 C1008 1.429 . S
C1027 C1021 1.429 . S
C1027 C1028 1.523 . S
C1028 C1009 1.368 . S
C1028 C1022 1.368 . S
C1028 C1027 1.523 . S
C1029 C1013 1.429 . S
C1029 C1025 1.429 . S
C1029 C1030 1.523 . S
C1030 C1014 1.368 . S
C1030 C1026 1.368 . S
C1030 C1029 1.523 . S
H1031 C1006 0.950 . S
H1032 C1008 0.950 . S
H1033 C1009 0.949 . S
H1034 C1011 0.950 . S
H1035 C1013 0.950 . S
C1036 C1037 1.350 . S
C1036 C1038 1.327 . S
C1036 H1061 0.950 . S
C1037 C1036 1.350 . S
C1037 C1053 1.348 1_455 S
C1038 C1036 1.327 . S
C1038 C1057 1.430 . S
C1038 H1062 0.950 . S
C1039 C1056 1.574 . S
C1039 C1058 1.367 1_655 S
C1039 H1063 0.949 . S
H1040 C1044 0.949 . S
C1041 C1042 1.348 1_655 S
C1041 C1043 1.327 . S
C1041 H1064 0.950 . S
C1042 C1041 1.348 1_455 S
C1042 C1054 1.350 . S
C1043 C1041 1.327 . S
C1043 C1059 1.427 1_655 S
C1043 H1065 0.950 . S
C1044 H1040 0.949 . S
C1044 C1052 1.574 . S
C1044 C1060 1.370 . S
H1045 C1053 0.950 . S
H1046 C1051 0.950 . S
H1047 C1052 0.949 . S
H1048 C1054 0.950 . S
H1049 C1055 0.950 . S
H1050 C1056 0.949 . S
C1051 H1046 0.950 . S
C1051 C1053 1.327 . S
C1051 C1057 1.427 1_655 S
C1052 C1044 1.574 . S
C1052 H1047 0.949 . S
C1052 C1058 1.370 . S
C1053 C1037 1.348 1_655 S
C1053 H1045 0.950 . S
C1053 C1051 1.327 . S
C1054 C1042 1.350 . S
C1054 H1048 0.950 . S
C1054 C1055 1.327 . S
C1055 H1049 0.950 . S
C1055 C1054 1.327 . S
C1055 C1059 1.430 . S
C1056 C1039 1.574 . S
C1056 H1050 0.949 . S
C1056 C1060 1.367 1_655 S
C1057 C1038 1.430 . S
C1057 C1051 1.427 1_455 S
C1057 C1058 1.523 . S
C1058 C1039 1.367 1_455 S
C1058 C1052 1.370 . S
C1058 C1057 1.523 . S
C1059 C1043 1.427 1_455 S
C1059 C1055 1.430 . S
C1059 C1060 1.523 . S
C1060 C1044 1.370 . S
C1060 C1056 1.367 1_455 S
C1060 C1059 1.523 . S
H1061 C1036 0.950 . S
H1062 C1038 0.950 . S
H1063 C1039 0.949 . S
H1064 C1041 0.950 . S
H1065 C1043 0.950 . S
C1066 C1067 1.349 . S
C1066 C1068 1.327 . S
C1066 H1091 0.950 . S
C1067 C1066 1.349 . S
C1067 C1083 1.349 . S
C1068 C1066 1.327 . S
C1068 C1087 1.429 . S
C1068 H1092 0.950 . S
C1069 C1086 1.574 . S
C1069 C1088 1.368 . S
C1069 H1093 0.949 . S
H1070 C1074 0.949 . S
C1071 C1072 1.349 . S
C1071 C1073 1.327 . S
C1071 H1094 0.950 . S
C1072 C1071 1.349 . S
C1072 C1084 1.349 . S
C1073 C1071 1.327 . S
C1073 C1089 1.429 . S
C1073 H1095 0.950 . S
C1074 H1070 0.949 . S
C1074 C1082 1.574 . S
C1074 C1090 1.368 . S
H1075 C1083 0.950 . S
H1076 C1081 0.950 . S
H1077 C1082 0.949 . S
H1078 C1084 0.950 . S
H1079 C1085 0.950 . S
H1080 C1086 0.949 . S
C1081 H1076 0.950 . S
C1081 C1083 1.327 . S
C1081 C1087 1.429 . S
C1082 C1074 1.574 . S
C1082 H1077 0.949 . S
C1082 C1088 1.368 . S
C1083 C1067 1.349 . S
C1083 H1075 0.950 . S
C1083 C1081 1.327 . S
C1084 C1072 1.349 . S
C1084 H1078 0.950 . S
C1084 C1085 1.327 . S
C1085 H1079 0.950 . S
C1085 C1084 1.327 . S
C1085 C1089 1.429 . S
C1086 C1069 1.574 . S
C1086 H1080 0.949 . S
C1086 C1090 1.368 . S
C1087 C1068 1.429 . S
C1087 C1081 1.429 . S
C1087 C1088 1.523 . S
C1088 C1069 1.368 . S
C1088 C1082 1.368 . S
C1088 C1087 1.523 . S
C1089 C1073 1.429 . S
C1089 C1085 1.429 . S
C1089 C1090 1.523 . S
C1090 C1074 1.368 . S
C1090 C1086 1.368 . S
C1090 C1089 1.523 . S
H1091 C1066 0.950 . S
H1092 C1068 0.950 . S
H1093 C1069 0.949 . S
H1094 C1071 0.950 . S
H1095 C1073 0.950 . S
C1096 C1097 1.351 . S
C1096 C1098 1.327 . S
C1096 H1121 0.950 . S
C1097 C1096 1.351 . S
C1097 C1113 1.347 1_655 S
C1098 C1096 1.327 . S
C1098 C1117 1.430 . S
C1098 H1122 0.950 . S
C1099 C1116 1.574 . S
C1099 C1118 1.367 1_455 S
C1099 H1123 0.949 . S
H1100 C1104 0.949 . S
C1101 C1102 1.347 1_455 S
C1101 C1103 1.327 . S
C1101 H1124 0.950 . S
C1102 C1101 1.347 1_655 S
C1102 C1114 1.351 . S
C1103 C1101 1.327 . S
C1103 C1119 1.427 1_455 S
C1103 H1125 0.950 . S
C1104 H1100 0.949 . S
C1104 C1112 1.574 . S
C1104 C1120 1.370 . S
H1105 C1113 0.950 . S
H1106 C1111 0.950 . S
H1107 C1112 0.949 . S
H1108 C1114 0.950 . S
H1109 C1115 0.950 . S
H1110 C1116 0.949 . S
C1111 H1106 0.950 . S
C1111 C1113 1.327 . S
C1111 C1117 1.427 1_455 S
C1112 C1104 1.574 . S
C1112 H1107 0.949 . S
C1112 C1118 1.370 . S
C1113 C1097 1.347 1_455 S
C1113 H1105 0.950 . S
C1113 C1111 1.327 . S
C1114 C1102 1.351 . S
C1114 H1108 0.950 . S
C1114 C1115 1.327 . S
C1115 H1109 0.950 . S
C1115 C1114 1.327 . S
C1115 C1119 1.430 . S
C1116 C1099 1.574 . S
C1116 H1110 0.949 . S
C1116 C1120 1.367 1_455 S
C1117 C1098 1.430 . S
C1117 C1111 1.427 1_655 S
C1117 C1118 1.523 . S
C1118 C1099 1.367 1_655 S
C1118 C1112 1.370 . S
C1118 C1117 1.523 . S
C1119 C1103 1.427 1_655 S
C1119 C1115 1.430 . S
C1119 C1120 1.523 . S
C1120 C1104 1.370 . S
C1120 C1116 1.367 1_655 S
C1120 C1119 1.523 . S
H1121 C1096 0.950 . S
H1122 C1098 0.950 . S
H1123 C1099 0.949 . S
H1124 C1101 0.950 . S
H1125 C1103 0.950 . S
C1126 C1127 1.349 . S
C1126 C1128 1.327 . S
C1126 H1151 0.950 . S
C1127 C1126 1.349 . S
C1127 C1143 1.349 . S
C1128 C1126 1.327 . S
C1128 C1147 1.429 . S
C1128 H1152 0.950 . S
C1129 C1146 1.574 . S
C1129 C1148 1.368 . S
C1129 H1153 0.949 . S
H1130 C1134 0.949 . S
C1131 C1132 1.349 . S
C1131 C1133 1.327 . S
C1131 H1154 0.950 . S
C1132 C1131 1.349 . S
C1132 C1144 1.349 . S
C1133 C1131 1.327 . S
C1133 C1149 1.429 . S
C1133 H1155 0.950 . S
C1134 H1130 0.949 . S
C1134 C1142 1.574 . S
C1134 C1150 1.368 . S
H1135 C1143 0.950 . S
H1136 C1141 0.950 . S
H1137 C1142 0.949 . S
H1138 C1144 0.950 . S
H1139 C1145 0.950 . S
H1140 C1146 0.949 . S
C1141 H1136 0.950 . S
C1141 C1143 1.327 . S
C1141 C1147 1.429 . S
C1142 C1134 1.574 . S
C1142 H1137 0.949 . S
C1142 C1148 1.368 . S
C1143 C1127 1.349 . S
C1143 H1135 0.950 . S
C1143 C1141 1.327 . S
C1144 C1132 1.349 . S
C1144 H1138 0.950 . S
C1144 C1145 1.327 . S
C1145 H1139 0.950 . S
C1145 C1144 1.327 . S
C1145 C1149 1.429 . S
C1146 C1129 1.574 . S
C1146 H1140 0.949 . S
C1146 C1150 1.368 . S
C1147 C1128 1.429 . S
C1147 C1141 1.429 . S
C1147 C1148 1.523 . S
C1148 C1129 1.368 . S
C1148 C1142 1.368 . S
C1148 C1147 1.523 . S
C1149 C1133 1.429 . S
C1149 C1145 1.429 . S
C1149 C1150 1.523 . S
C1150 C1134 1.368 . S
C1150 C1146 1.368 . S
C1150 C1149 1.523 . S
H1151 C1126 0.950 . S
H1152 C1128 0.950 . S
H1153 C1129 0.949 . S
H1154 C1131 0.950 . S
H1155 C1133 0.950 . S
C1156 C1157 1.350 . S
C1156 C1158 1.327 . S
C1156 H1181 0.950 . S
C1157 C1156 1.350 . S
C1157 C1173 1.348 1_455 S
C1158 C1156 1.327 . S
C1158 C1177 1.429 . S
C1158 H1182 0.950 . S
C1159 C1176 1.574 . S
C1159 C1178 1.367 1_655 S
C1159 H1183 0.949 . S
H1160 C1164 0.949 . S
C1161 C1162 1.348 1_655 S
C1161 C1163 1.327 . S
C1161 H1184 0.950 . S
C1162 C1161 1.348 1_455 S
C1162 C1174 1.350 . S
C1163 C1161 1.327 . S
C1163 C1179 1.428 1_655 S
C1163 H1185 0.950 . S
C1164 H1160 0.949 . S
C1164 C1172 1.574 . S
C1164 C1180 1.369 . S
H1165 C1173 0.950 . S
H1166 C1171 0.950 . S
H1167 C1172 0.949 . S
H1168 C1174 0.950 . S
H1169 C1175 0.950 . S
H1170 C1176 0.949 . S
C1171 H1166 0.950 . S
C1171 C1173 1.327 . S
C1171 C1177 1.428 1_655 S
C1172 C1164 1.574 . S
C1172 H1167 0.949 . S
C1172 C1178 1.369 . S
C1173 C1157 1.348 1_655 S
C1173 H1165 0.950 . S
C1173 C1171 1.327 . S
C1174 C1162 1.350 . S
C1174 H1168 0.950 . S
C1174 C1175 1.327 . S
C1175 H1169 0.950 . S
C1175 C1174 1.327 . S
C1175 C1179 1.429 . S
C1176 C1159 1.574 . S
C1176 H1170 0.949 . S
C1176 C1180 1.367 1_655 S
C1177 C1158 1.429 . S
C1177 C1171 1.428 1_455 S
C1177 C1178 1.523 . S
C1178 C1159 1.367 1_455 S
C1178 C1172 1.369 . S
C1178 C1177 1.523 . S
C1179 C1163 1.428 1_455 S
C1179 C1175 1.429 . S
C1179 C1180 1.523 . S
C1180 C1164 1.369 . S
C1180 C1176 1.367 1_455 S
C1180 C1179 1.523 . S
H1181 C1156 0.950 . S
H1182 C1158 0.950 . S
H1183 C1159 0.949 . S
H1184 C1161 0.950 . S
H1185 C1163 0.950 . S
C1186 C1187 1.349 . S
C1186 C1188 1.327 . S
C1186 H1211 0.950 . S
C1187 C1186 1.349 . S
C1187 C1203 1.349 . S
C1188 C1186 1.327 . S
C1188 C1207 1.429 . S
C1188 H1212 0.950 . S
C1189 C1206 1.574 . S
C1189 C1208 1.368 . S
C1189 H1213 0.949 . S
H1190 C1194 0.949 . S
C1191 C1192 1.349 . S
C1191 C1193 1.327 . S
C1191 H1214 0.950 . S
C1192 C1191 1.349 . S
C1192 C1204 1.349 . S
C1193 C1191 1.327 . S
C1193 C1209 1.429 . S
C1193 H1215 0.950 . S
C1194 H1190 0.949 . S
C1194 C1202 1.574 . S
C1194 C1210 1.368 . S
H1195 C1203 0.950 . S
H1196 C1201 0.950 . S
H1197 C1202 0.949 . S
H1198 C1204 0.950 . S
H1199 C1205 0.950 . S
H1200 C1206 0.949 . S
C1201 H1196 0.950 . S
C1201 C1203 1.327 . S
C1201 C1207 1.429 . S
C1202 C1194 1.574 . S
C1202 H1197 0.949 . S
C1202 C1208 1.368 . S
C1203 C1187 1.349 . S
C1203 H1195 0.950 . S
C1203 C1201 1.327 . S
C1204 C1192 1.349 . S
C1204 H1198 0.950 . S
C1204 C1205 1.327 . S
C1205 H1199 0.950 . S
C1205 C1204 1.327 . S
C1205 C1209 1.429 . S
C1206 C1189 1.574 . S
C1206 H1200 0.949 . S
C1206 C1210 1.368 . S
C1207 C1188 1.429 . S
C1207 C1201 1.429 . S
C1207 C1208 1.523 . S
C1208 C1189 1.368 . S
C1208 C1202 1.368 . S
C1208 C1207 1.523 . S
C1209 C1193 1.429 . S
C1209 C1205 1.429 . S
C1209 C1210 1.523 . S
C1210 C1194 1.368 . S
C1210 C1206 1.368 . S
C1210 C1209 1.523 . S
H1211 C1186 0.950 . S
H1212 C1188 0.950 . S
H1213 C1189 0.949 . S
H1214 C1191 0.950 . S
H1215 C1193 0.950 . S
C1216 C1217 1.349 . S
C1216 C1218 1.327 . S
C1216 H1241 0.950 . S
C1217 C1216 1.349 . S
C1217 C1233 1.349 . S
C1218 C1216 1.327 . S
C1218 C1237 1.429 . S
C1218 H1242 0.950 . S
C1219 C1236 1.574 . S
C1219 C1238 1.368 . S
C1219 H1243 0.949 . S
H1220 C1224 0.949 . S
C1221 C1222 1.349 . S
C1221 C1223 1.327 . S
C1221 H1244 0.950 . S
C1222 C1221 1.349 . S
C1222 C1234 1.349 . S
C1223 C1221 1.327 . S
C1223 C1239 1.429 . S
C1223 H1245 0.950 . S
C1224 H1220 0.949 . S
C1224 C1232 1.574 . S
C1224 C1240 1.368 . S
H1225 C1233 0.950 . S
H1226 C1231 0.950 . S
H1227 C1232 0.949 . S
H1228 C1234 0.950 . S
H1229 C1235 0.950 . S
H1230 C1236 0.949 . S
C1231 H1226 0.950 . S
C1231 C1233 1.327 . S
C1231 C1237 1.429 . S
C1232 C1224 1.574 . S
C1232 H1227 0.949 . S
C1232 C1238 1.368 . S
C1233 C1217 1.349 . S
C1233 H1225 0.950 . S
C1233 C1231 1.327 . S
C1234 C1222 1.349 . S
C1234 H1228 0.950 . S
C1234 C1235 1.327 . S
C1235 H1229 0.950 . S
C1235 C1234 1.327 . S
C1235 C1239 1.429 . S
C1236 C1219 1.574 . S
C1236 H1230 0.949 . S
C1236 C1240 1.368 . S
C1237 C1218 1.429 . S
C1237 C1231 1.429 . S
C1237 C1238 1.523 . S
C1238 C1219 1.368 . S
C1238 C1232 1.368 . S
C1238 C1237 1.523 . S
C1239 C1223 1.429 . S
C1239 C1235 1.429 . S
C1239 C1240 1.523 . S
C1240 C1224 1.368 . S
C1240 C1236 1.368 . S
C1240 C1239 1.523 . S
H1241 C1216 0.950 . S
H1242 C1218 0.950 . S
H1243 C1219 0.949 . S
H1244 C1221 0.950 . S
H1245 C1223 0.950 . S
C1246 C1247 1.349 . S
C1246 C1248 1.327 . S
C1246 H1271 0.950 . S
C1247 C1246 1.349 . S
C1247 C1263 1.349 . S
C1248 C1246 1.327 . S
C1248 C1267 1.429 . S
C1248 H1272 0.950 . S
C1249 C1266 1.574 . S
C1249 C1268 1.368 . S
C1249 H1273 0.949 . S
H1250 C1254 0.949 . S
C1251 C1252 1.349 . S
C1251 C1253 1.327 . S
C1251 H1274 0.950 . S
C1252 C1251 1.349 . S
C1252 C1264 1.349 . S
C1253 C1251 1.327 . S
C1253 C1269 1.429 . S
C1253 H1275 0.950 . S
C1254 H1250 0.949 . S
C1254 C1262 1.574 . S
C1254 C1270 1.368 . S
H1255 C1263 0.950 . S
H1256 C1261 0.950 . S
H1257 C1262 0.949 . S
H1258 C1264 0.950 . S
H1259 C1265 0.950 . S
H1260 C1266 0.949 . S
C1261 H1256 0.950 . S
C1261 C1263 1.327 . S
C1261 C1267 1.429 . S
C1262 C1254 1.574 . S
C1262 H1257 0.949 . S
C1262 C1268 1.368 . S
C1263 C1247 1.349 . S
C1263 H1255 0.950 . S
C1263 C1261 1.327 . S
C1264 C1252 1.349 . S
C1264 H1258 0.950 . S
C1264 C1265 1.327 . S
C1265 H1259 0.950 . S
C1265 C1264 1.327 . S
C1265 C1269 1.429 . S
C1266 C1249 1.574 . S
C1266 H1260 0.949 . S
C1266 C1270 1.368 . S
C1267 C1248 1.429 . S
C1267 C1261 1.429 . S
C1267 C1268 1.523 . S
C1268 C1249 1.368 . S
C1268 C1262 1.368 . S
C1268 C1267 1.523 . S
C1269 C1253 1.429 . S
C1269 C1265 1.429 . S
C1269 C1270 1.523 . S
C1270 C1254 1.368 . S
C1270 C1266 1.368 . S
C1270 C1269 1.523 . S
H1271 C1246 0.950 . S
H1272 C1248 0.950 . S
H1273 C1249 0.949 . S
H1274 C1251 0.950 . S
H1275 C1253 0.950 . S
C1276 C1277 1.349 . S
C1276 C1278 1.327 . S
C1276 H1301 0.950 . S
C1277 C1276 1.349 . S
C1277 C1293 1.349 . S
C1278 C1276 1.327 . S
C1278 C1297 1.429 . S
C1278 H1302 0.950 . S
C1279 C1296 1.574 . S
C1279 C1298 1.368 . S
C1279 H1303 0.949 . S
H1280 C1284 0.949 . S
C1281 C1282 1.349 . S
C1281 C1283 1.327 . S
C1281 H1304 0.950 . S
C1282 C1281 1.349 . S
C1282 C1294 1.349 . S
C1283 C1281 1.327 . S
C1283 C1299 1.429 . S
C1283 H1305 0.950 . S
C1284 H1280 0.949 . S
C1284 C1292 1.574 . S
C1284 C1300 1.368 . S
H1285 C1293 0.950 . S
H1286 C1291 0.950 . S
H1287 C1292 0.949 . S
H1288 C1294 0.950 . S
H1289 C1295 0.950 . S
H1290 C1296 0.949 . S
C1291 H1286 0.950 . S
C1291 C1293 1.327 . S
C1291 C1297 1.429 . S
C1292 C1284 1.574 . S
C1292 H1287 0.949 . S
C1292 C1298 1.368 . S
C1293 C1277 1.349 . S
C1293 H1285 0.950 . S
C1293 C1291 1.327 . S
C1294 C1282 1.349 . S
C1294 H1288 0.950 . S
C1294 C1295 1.327 . S
C1295 H1289 0.950 . S
C1295 C1294 1.327 . S
C1295 C1299 1.429 . S
C1296 C1279 1.574 . S
C1296 H1290 0.949 . S
C1296 C1300 1.368 . S
C1297 C1278 1.429 . S
C1297 C1291 1.429 . S
C1297 C1298 1.523 . S
C1298 C1279 1.368 . S
C1298 C1292 1.368 . S
C1298 C1297 1.523 . S
C1299 C1283 1.429 . S
C1299 C1295 1.429 . S
C1299 C1300 1.523 . S
C1300 C1284 1.368 . S
C1300 C1296 1.368 . S
C1300 C1299 1.523 . S
H1301 C1276 0.950 . S
H1302 C1278 0.950 . S
H1303 C1279 0.949 . S
H1304 C1281 0.950 . S
H1305 C1283 0.950 . S
C1306 C1307 1.349 . S
C1306 C1308 1.327 . S
C1306 H1331 0.950 . S
C1307 C1306 1.349 . S
C1307 C1323 1.349 . S
C1308 C1306 1.327 . S
C1308 C1327 1.429 . S
C1308 H1332 0.950 . S
C1309 C1326 1.574 . S
C1309 C1328 1.368 . S
C1309 H1333 0.949 . S
H1310 C1314 0.949 . S
C1311 C1312 1.349 . S
C1311 C1313 1.327 . S
C1311 H1334 0.950 . S
C1312 C1311 1.349 . S
C1312 C1324 1.349 . S
C1313 C1311 1.327 . S
C1313 C1329 1.429 . S
C1313 H1335 0.950 . S
C1314 H1310 0.949 . S
C1314 C1322 1.574 . S
C1314 C1330 1.368 . S
H1315 C1323 0.950 . S
H1316 C1321 0.950 . S
H1317 C1322 0.949 . S
H1318 C1324 0.950 . S
H1319 C1325 0.950 . S
H1320 C1326 0.949 . S
C1321 H1316 0.950 . S
C1321 C1323 1.327 . S
C1321 C1327 1.429 . S
C1322 C1314 1.574 . S
C1322 H1317 0.949 . S
C1322 C1328 1.368 . S
C1323 C1307 1.349 . S
C1323 H1315 0.950 . S
C1323 C1321 1.327 . S
C1324 C1312 1.349 . S
C1324 H1318 0.950 . S
C1324 C1325 1.327 . S
C1325 H1319 0.950 . S
C1325 C1324 1.327 . S
C1325 C1329 1.429 . S
C1326 C1309 1.574 . S
C1326 H1320 0.949 . S
C1326 C1330 1.368 . S
C1327 C1308 1.429 . S
C1327 C1321 1.429 . S
C1327 C1328 1.523 . S
C1328 C1309 1.368 . S
C1328 C1322 1.368 . S
C1328 C1327 1.523 . S
C1329 C1313 1.429 . S
C1329 C1325 1.429 . S
C1329 C1330 1.523 . S
C1330 C1314 1.368 . S
C1330 C1326 1.368 . S
C1330 C1329 1.523 . S
H1331 C1306 0.950 . S
H1332 C1308 0.950 . S
H1333 C1309 0.949 . S
H1334 C1311 0.950 . S
H1335 C1313 0.950 . S
C1336 C1337 1.349 . S
C1336 C1338 1.327 . S
C1336 H1361 0.950 . S
C1337 C1336 1.349 . S
C1337 C1353 1.349 . S
C1338 C1336 1.327 . S
C1338 C1357 1.429 . S
C1338 H1362 0.950 . S
C1339 C1356 1.574 . S
C1339 C1358 1.368 . S
C1339 H1363 0.949 . S
H1340 C1344 0.949 . S
C1341 C1342 1.349 . S
C1341 C1343 1.327 . S
C1341 H1364 0.950 . S
C1342 C1341 1.349 . S
C1342 C1354 1.349 . S
C1343 C1341 1.327 . S
C1343 C1359 1.429 . S
C1343 H1365 0.950 . S
C1344 H1340 0.949 . S
C1344 C1352 1.574 . S
C1344 C1360 1.368 . S
H1345 C1353 0.950 . S
H1346 C1351 0.950 . S
H1347 C1352 0.949 . S
H1348 C1354 0.950 . S
H1349 C1355 0.950 . S
H1350 C1356 0.949 . S
C1351 H1346 0.950 . S
C1351 C1353 1.327 . S
C1351 C1357 1.429 . S
C1352 C1344 1.574 . S
C1352 H1347 0.949 . S
C1352 C1358 1.368 . S
C1353 C1337 1.349 . S
C1353 H1345 0.950 . S
C1353 C1351 1.327 . S
C1354 C1342 1.349 . S
C1354 H1348 0.950 . S
C1354 C1355 1.327 . S
C1355 H1349 0.950 . S
C1355 C1354 1.327 . S
C1355 C1359 1.429 . S
C1356 C1339 1.574 . S
C1356 H1350 0.949 . S
C1356 C1360 1.368 . S
C1357 C1338 1.429 . S
C1357 C1351 1.429 . S
C1357 C1358 1.523 . S
C1358 C1339 1.368 . S
C1358 C1352 1.368 . S
C1358 C1357 1.523 . S
C1359 C1343 1.429 . S
C1359 C1355 1.429 . S
C1359 C1360 1.523 . S
C1360 C1344 1.368 . S
C1360 C1356 1.368 . S
C1360 C1359 1.523 . S
H1361 C1336 0.950 . S
H1362 C1338 0.950 . S
H1363 C1339 0.949 . S
H1364 C1341 0.950 . S
H1365 C1343 0.950 . S
C1366 C1367 1.349 . S
C1366 C1368 1.327 . S
C1366 H1391 0.950 . S
C1367 C1366 1.349 . S
C1367 C1383 1.349 . S
C1368 C1366 1.327 . S
C1368 C1387 1.429 . S
C1368 H1392 0.950 . S
C1369 C1386 1.574 . S
C1369 C1388 1.368 . S
C1369 H1393 0.949 . S
H1370 C1374 0.949 . S
C1371 C1372 1.349 . S
C1371 C1373 1.327 . S
C1371 H1394 0.950 . S
C1372 C1371 1.349 . S
C1372 C1384 1.349 . S
C1373 C1371 1.327 . S
C1373 C1389 1.429 . S
C1373 H1395 0.950 . S
C1374 H1370 0.949 . S
C1374 C1382 1.574 . S
C1374 C1390 1.368 . S
H1375 C1383 0.950 . S
H1376 C1381 0.950 . S
H1377 C1382 0.949 . S
H1378 C1384 0.950 . S
H1379 C1385 0.950 . S
H1380 C1386 0.949 . S
C1381 H1376 0.950 . S
C1381 C1383 1.327 . S
C1381 C1387 1.429 . S
C1382 C1374 1.574 . S
C1382 H1377 0.949 . S
C1382 C1388 1.368 . S
C1383 C1367 1.349 . S
C1383 H1375 0.950 . S
C1383 C1381 1.327 . S
C1384 C1372 1.349 . S
C1384 H1378 0.950 . S
C1384 C1385 1.327 . S
C1385 H1379 0.950 . S
C1385 C1384 1.327 . S
C1385 C1389 1.429 . S
C1386 C1369 1.574 . S
C1386 H1380 0.949 . S
C1386 C1390 1.368 . S
C1387 C1368 1.429 . S
C1387 C1381 1.429 . S
C1387 C1388 1.523 . S
C1388 C1369 1.368 . S
C1388 C1382 1.368 . S
C1388 C1387 1.523 . S
C1389 C1373 1.429 . S
C1389 C1385 1.429 . S
C1389 C1390 1.523 . S
C1390 C1374 1.368 . S
C1390 C1386 1.368 . S
C1390 C1389 1.523 . S
H1391 C1366 0.950 . S
H1392 C1368 0.950 . S
H1393 C1369 0.949 . S
H1394 C1371 0.950 . S
H1395 C1373 0.950 . S
C1396 C1397 1.349 . S
C1396 C1398 1.327 . S
C1396 H1421 0.950 . S
C1397 C1396 1.349 . S
C1397 C1413 1.349 . S
C1398 C1396 1.327 . S
C1398 C1417 1.429 . S
C1398 H1422 0.950 . S
C1399 C1416 1.574 . S
C1399 C1418 1.368 . S
C1399 H1423 0.949 . S
H1400 C1404 0.949 . S
C1401 C1402 1.349 . S
C1401 C1403 1.327 . S
C1401 H1424 0.950 . S
C1402 C1401 1.349 . S
C1402 C1414 1.349 . S
C1403 C1401 1.327 . S
C1403 C1419 1.429 . S
C1403 H1425 0.950 . S
C1404 H1400 0.949 . S
C1404 C1412 1.574 . S
C1404 C1420 1.368 . S
H1405 C1413 0.950 . S
H1406 C1411 0.950 . S
H1407 C1412 0.949 . S
H1408 C1414 0.950 . S
H1409 C1415 0.950 . S
H1410 C1416 0.949 . S
C1411 H1406 0.950 . S
C1411 C1413 1.327 . S
C1411 C1417 1.429 . S
C1412 C1404 1.574 . S
C1412 H1407 0.949 . S
C1412 C1418 1.368 . S
C1413 C1397 1.349 . S
C1413 H1405 0.950 . S
C1413 C1411 1.327 . S
C1414 C1402 1.349 . S
C1414 H1408 0.950 . S
C1414 C1415 1.327 . S
C1415 H1409 0.950 . S
C1415 C1414 1.327 . S
C1415 C1419 1.429 . S
C1416 C1399 1.574 . S
C1416 H1410 0.949 . S
C1416 C1420 1.368 . S
C1417 C1398 1.429 . S
C1417 C1411 1.429 . S
C1417 C1418 1.523 . S
C1418 C1399 1.368 . S
C1418 C1412 1.368 . S
C1418 C1417 1.523 . S
C1419 C1403 1.429 . S
C1419 C1415 1.429 . S
C1419 C1420 1.523 . S
C1420 C1404 1.368 . S
C1420 C1416 1.368 . S
C1420 C1419 1.523 . S
H1421 C1396 0.950 . S
H1422 C1398 0.950 . S
H1423 C1399 0.949 . S
H1424 C1401 0.950 . S
H1425 C1403 0.950 . S
C1426 C1427 1.349 . S
C1426 C1428 1.327 . S
C1426 H1451 0.950 . S
C1427 C1426 1.349 . S
C1427 C1443 1.349 . S
C1428 C1426 1.327 . S
C1428 C1447 1.429 . S
C1428 H1452 0.950 . S
C1429 C1446 1.574 . S
C1429 C1448 1.368 . S
C1429 H1453 0.949 . S
H1430 C1434 0.949 . S
C1431 C1432 1.349 . S
C1431 C1433 1.327 . S
C1431 H1454 0.950 . S
C1432 C1431 1.349 . S
C1432 C1444 1.349 . S
C1433 C1431 1.327 . S
C1433 C1449 1.429 . S
C1433 H1455 0.950 . S
C1434 H1430 0.949 . S
C1434 C1442 1.574 . S
C1434 C1450 1.368 . S
H1435 C1443 0.950 . S
H1436 C1441 0.950 . S
H1437 C1442 0.949 . S
H1438 C1444 0.950 . S
H1439 C1445 0.950 . S
H1440 C1446 0.949 . S
C1441 H1436 0.950 . S
C1441 C1443 1.327 . S
C1441 C1447 1.429 . S
C1442 C1434 1.574 . S
C1442 H1437 0.949 . S
C1442 C1448 1.368 . S
C1443 C1427 1.349 . S
C1443 H1435 0.950 . S
C1443 C1441 1.327 . S
C1444 C1432 1.349 . S
C1444 H1438 0.950 . S
C1444 C1445 1.327 . S
C1445 H1439 0.950 . S
C1445 C1444 1.327 . S
C1445 C1449 1.429 . S
C1446 C1429 1.574 . S
C1446 H1440 0.949 . S
C1446 C1450 1.368 . S
C1447 C1428 1.429 . S
C1447 C1441 1.429 . S
C1447 C1448 1.523 . S
C1448 C1429 1.368 . S
C1448 C1442 1.368 . S
C1448 C1447 1.523 . S
C1449 C1433 1.429 . S
C1449 C1445 1.429 . S
C1449 C1450 1.523 . S
C1450 C1434 1.368 . S
C1450 C1446 1.368 . S
C1450 C1449 1.523 . S
H1451 C1426 0.950 . S
H1452 C1428 0.950 . S
H1453 C1429 0.949 . S
H1454 C1431 0.950 . S
H1455 C1433 0.950 . S
C1456 C1457 1.349 . S
C1456 C1458 1.327 . S
C1456 H1481 0.950 . S
C1457 C1456 1.349 . S
C1457 C1473 1.349 . S
C1458 C1456 1.327 . S
C1458 C1477 1.429 . S
C1458 H1482 0.950 . S
C1459 C1476 1.574 . S
C1459 C1478 1.368 . S
C1459 H1483 0.949 . S
H1460 C1464 0.949 . S
C1461 C1462 1.349 . S
C1461 C1463 1.327 . S
C1461 H1484 0.950 . S
C1462 C1461 1.349 . S
C1462 C1474 1.349 . S
C1463 C1461 1.327 . S
C1463 C1479 1.429 . S
C1463 H1485 0.950 . S
C1464 H1460 0.949 . S
C1464 C1472 1.574 . S
C1464 C1480 1.368 . S
H1465 C1473 0.950 . S
H1466 C1471 0.950 . S
H1467 C1472 0.949 . S
H1468 C1474 0.950 . S
H1469 C1475 0.950 . S
H1470 C1476 0.949 . S
C1471 H1466 0.950 . S
C1471 C1473 1.327 . S
C1471 C1477 1.429 . S
C1472 C1464 1.574 . S
C1472 H1467 0.949 . S
C1472 C1478 1.368 . S
C1473 C1457 1.349 . S
C1473 H1465 0.950 . S
C1473 C1471 1.327 . S
C1474 C1462 1.349 . S
C1474 H1468 0.950 . S
C1474 C1475 1.327 . S
C1475 H1469 0.950 . S
C1475 C1474 1.327 . S
C1475 C1479 1.429 . S
C1476 C1459 1.574 . S
C1476 H1470 0.949 . S
C1476 C1480 1.368 . S
C1477 C1458 1.429 . S
C1477 C1471 1.429 . S
C1477 C1478 1.523 . S
C1478 C1459 1.368 . S
C1478 C1472 1.368 . S
C1478 C1477 1.523 . S
C1479 C1463 1.429 . S
C1479 C1475 1.429 . S
C1479 C1480 1.523 . S
C1480 C1464 1.368 . S
C1480 C1476 1.368 . S
C1480 C1479 1.523 . S
H1481 C1456 0.950 . S
H1482 C1458 0.950 . S
H1483 C1459 0.949 . S
H1484 C1461 0.950 . S
H1485 C1463 0.950 . S
C1486 C1487 1.349 . S
C1486 C1488 1.327 . S
C1486 H1511 0.950 . S
C1487 C1486 1.349 . S
C1487 C1503 1.349 . S
C1488 C1486 1.327 . S
C1488 C1507 1.429 . S
C1488 H1512 0.950 . S
C1489 C1506 1.574 . S
C1489 C1508 1.368 . S
C1489 H1513 0.949 . S
H1490 C1494 0.949 . S
C1491 C1492 1.349 . S
C1491 C1493 1.327 . S
C1491 H1514 0.950 . S
C1492 C1491 1.349 . S
C1492 C1504 1.349 . S
C1493 C1491 1.327 . S
C1493 C1509 1.429 . S
C1493 H1515 0.950 . S
C1494 H1490 0.949 . S
C1494 C1502 1.574 . S
C1494 C1510 1.368 . S
H1495 C1503 0.950 . S
H1496 C1501 0.950 . S
H1497 C1502 0.949 . S
H1498 C1504 0.950 . S
H1499 C1505 0.950 . S
H1500 C1506 0.949 . S
C1501 H1496 0.950 . S
C1501 C1503 1.327 . S
C1501 C1507 1.429 . S
C1502 C1494 1.574 . S
C1502 H1497 0.949 . S
C1502 C1508 1.368 . S
C1503 C1487 1.349 . S
C1503 H1495 0.950 . S
C1503 C1501 1.327 . S
C1504 C1492 1.349 . S
C1504 H1498 0.950 . S
C1504 C1505 1.327 . S
C1505 H1499 0.950 . S
C1505 C1504 1.327 . S
C1505 C1509 1.429 . S
C1506 C1489 1.574 . S
C1506 H1500 0.949 . S
C1506 C1510 1.368 . S
C1507 C1488 1.429 . S
C1507 C1501 1.429 . S
C1507 C1508 1.523 . S
C1508 C1489 1.368 . S
C1508 C1502 1.368 . S
C1508 C1507 1.523 . S
C1509 C1493 1.429 . S
C1509 C1505 1.429 . S
C1509 C1510 1.523 . S
C1510 C1494 1.368 . S
C1510 C1506 1.368 . S
C1510 C1509 1.523 . S
H1511 C1486 0.950 . S
H1512 C1488 0.950 . S
H1513 C1489 0.949 . S
H1514 C1491 0.950 . S
H1515 C1493 0.950 . S
C1516 C1517 1.349 . S
C1516 C1518 1.327 . S
C1516 H1541 0.950 . S
C1517 C1516 1.349 . S
C1517 C1533 1.349 . S
C1518 C1516 1.327 . S
C1518 C1537 1.429 . S
C1518 H1542 0.950 . S
C1519 C1536 1.574 . S
C1519 C1538 1.368 . S
C1519 H1543 0.949 . S
H1520 C1524 0.949 . S
C1521 C1522 1.349 . S
C1521 C1523 1.327 . S
C1521 H1544 0.950 . S
C1522 C1521 1.349 . S
C1522 C1534 1.349 . S
C1523 C1521 1.327 . S
C1523 C1539 1.429 . S
C1523 H1545 0.950 . S
C1524 H1520 0.949 . S
C1524 C1532 1.574 . S
C1524 C1540 1.368 . S
H1525 C1533 0.950 . S
H1526 C1531 0.950 . S
H1527 C1532 0.949 . S
H1528 C1534 0.950 . S
H1529 C1535 0.950 . S
H1530 C1536 0.949 . S
C1531 H1526 0.950 . S
C1531 C1533 1.327 . S
C1531 C1537 1.429 . S
C1532 C1524 1.574 . S
C1532 H1527 0.949 . S
C1532 C1538 1.368 . S
C1533 C1517 1.349 . S
C1533 H1525 0.950 . S
C1533 C1531 1.327 . S
C1534 C1522 1.349 . S
C1534 H1528 0.950 . S
C1534 C1535 1.327 . S
C1535 H1529 0.950 . S
C1535 C1534 1.327 . S
C1535 C1539 1.429 . S
C1536 C1519 1.574 . S
C1536 H1530 0.949 . S
C1536 C1540 1.368 . S
C1537 C1518 1.429 . S
C1537 C1531 1.429 . S
C1537 C1538 1.523 . S
C1538 C1519 1.368 . S
C1538 C1532 1.368 . S
C1538 C1537 1.523 . S
C1539 C1523 1.429 . S
C1539 C1535 1.429 . S
C1539 C1540 1.523 . S
C1540 C1524 1.368 . S
C1540 C1536 1.368 . S
C1540 C1539 1.523 . S
H1541 C1516 0.950 . S
H1542 C1518 0.950 . S
H1543 C1519 0.949 . S
H1544 C1521 0.950 . S
H1545 C1523 0.950 . S
C1546 C1547 1.349 . S
C1546 C1548 1.327 . S
C1546 H1571 0.950 . S
C1547 C1546 1.349 . S
C1547 C1563 1.349 . S
C1548 C1546 1.327 . S
C1548 C1567 1.429 . S
C1548 H1572 0.950 . S
C1549 C1566 1.574 . S
C1549 C1568 1.368 . S
C1549 H1573 0.949 . S
H1550 C1554 0.949 . S
C1551 C1552 1.349 . S
C1551 C1553 1.327 . S
C1551 H1574 0.950 . S
C1552 C1551 1.349 . S
C1552 C1564 1.349 . S
C1553 C1551 1.327 . S
C1553 C1569 1.429 . S
C1553 H1575 0.950 . S
C1554 H1550 0.949 . S
C1554 C1562 1.574 . S
C1554 C1570 1.368 . S
H1555 C1563 0.950 . S
H1556 C1561 0.950 . S
H1557 C1562 0.949 . S
H1558 C1564 0.950 . S
H1559 C1565 0.950 . S
H1560 C1566 0.949 . S
C1561 H1556 0.950 . S
C1561 C1563 1.327 . S
C1561 C1567 1.429 . S
C1562 C1554 1.574 . S
C1562 H1557 0.949 . S
C1562 C1568 1.368 . S
C1563 C1547 1.349 . S
C1563 H1555 0.950 . S
C1563 C1561 1.327 . S
C1564 C1552 1.349 . S
C1564 H1558 0.950 . S
C1564 C1565 1.327 . S
C1565 H1559 0.950 . S
C1565 C1564 1.327 . S
C1565 C1569 1.429 . S
C1566 C1549 1.574 . S
C1566 H1560 0.949 . S
C1566 C1570 1.368 . S
C1567 C1548 1.429 . S
C1567 C1561 1.429 . S
C1567 C1568 1.523 . S
C1568 C1549 1.368 . S
C1568 C1562 1.368 . S
C1568 C1567 1.523 . S
C1569 C1553 1.429 . S
C1569 C1565 1.429 . S
C1569 C1570 1.523 . S
C1570 C1554 1.368 . S
C1570 C1566 1.368 . S
C1570 C1569 1.523 . S
H1571 C1546 0.950 . S
H1572 C1548 0.950 . S
H1573 C1549 0.949 . S
H1574 C1551 0.950 . S
H1575 C1553 0.950 . S
C1576 C1577 1.349 . S
C1576 C1578 1.327 . S
C1576 H1601 0.950 . S
C1577 C1576 1.349 . S
C1577 C1593 1.349 . S
C1578 C1576 1.327 . S
C1578 C1597 1.429 . S
C1578 H1602 0.950 . S
C1579 C1596 1.574 . S
C1579 C1598 1.368 . S
C1579 H1603 0.949 . S
H1580 C1584 0.949 . S
C1581 C1582 1.349 . S
C1581 C1583 1.327 . S
C1581 H1604 0.950 . S
C1582 C1581 1.349 . S
C1582 C1594 1.349 . S
C1583 C1581 1.327 . S
C1583 C1599 1.429 . S
C1583 H1605 0.950 . S
C1584 H1580 0.949 . S
C1584 C1592 1.574 . S
C1584 C1600 1.368 . S
H1585 C1593 0.950 . S
H1586 C1591 0.950 . S
H1587 C1592 0.949 . S
H1588 C1594 0.950 . S
H1589 C1595 0.950 . S
H1590 C1596 0.949 . S
C1591 H1586 0.950 . S
C1591 C1593 1.327 . S
C1591 C1597 1.429 . S
C1592 C1584 1.574 . S
C1592 H1587 0.949 . S
C1592 C1598 1.368 . S
C1593 C1577 1.349 . S
C1593 H1585 0.950 . S
C1593 C1591 1.327 . S
C1594 C1582 1.349 . S
C1594 H1588 0.950 . S
C1594 C1595 1.327 . S
C1595 H1589 0.950 . S
C1595 C1594 1.327 . S
C1595 C1599 1.429 . S
C1596 C1579 1.574 . S
C1596 H1590 0.949 . S
C1596 C1600 1.368 . S
C1597 C1578 1.429 . S
C1597 C1591 1.429 . S
C1597 C1598 1.523 . S
C1598 C1579 1.368 . S
C1598 C1592 1.368 . S
C1598 C1597 1.523 . S
C1599 C1583 1.429 . S
C1599 C1595 1.429 . S
C1599 C1600 1.523 . S
C1600 C1584 1.368 . S
C1600 C1596 1.368 . S
C1600 C1599 1.523 . S
H1601 C1576 0.950 . S
H1602 C1578 0.950 . S
H1603 C1579 0.949 . S
H1604 C1581 0.950 . S
H1605 C1583 0.950 . S
C1606 C1607 1.349 . S
C1606 C1608 1.327 . S
C1606 H1631 0.950 . S
C1607 C1606 1.349 . S
C1607 C1623 1.349 . S
C1608 C1606 1.327 . S
C1608 C1627 1.429 . S
C1608 H1632 0.950 . S
C1609 C1626 1.574 . S
C1609 C1628 1.368 . S
C1609 H1633 0.949 . S
H1610 C1614 0.949 . S
C1611 C1612 1.349 . S
C1611 C1613 1.327 . S
C1611 H1634 0.950 . S
C1612 C1611 1.349 . S
C1612 C1624 1.349 . S
C1613 C1611 1.327 . S
C1613 C1629 1.429 . S
C1613 H1635 0.950 . S
C1614 H1610 0.949 . S
C1614 C1622 1.574 . S
C1614 C1630 1.368 . S
H1615 C1623 0.950 . S
H1616 C1621 0.950 . S
H1617 C1622 0.949 . S
H1618 C1624 0.950 . S
H1619 C1625 0.950 . S
H1620 C1626 0.949 . S
C1621 H1616 0.950 . S
C1621 C1623 1.327 . S
C1621 C1627 1.429 . S
C1622 C1614 1.574 . S
C1622 H1617 0.949 . S
C1622 C1628 1.368 . S
C1623 C1607 1.349 . S
C1623 H1615 0.950 . S
C1623 C1621 1.327 . S
C1624 C1612 1.349 . S
C1624 H1618 0.950 . S
C1624 C1625 1.327 . S
C1625 H1619 0.950 . S
C1625 C1624 1.327 . S
C1625 C1629 1.429 . S
C1626 C1609 1.574 . S
C1626 H1620 0.949 . S
C1626 C1630 1.368 . S
C1627 C1608 1.429 . S
C1627 C1621 1.429 . S
C1627 C1628 1.523 . S
C1628 C1609 1.368 . S
C1628 C1622 1.368 . S
C1628 C1627 1.523 . S
C1629 C1613 1.429 . S
C1629 C1625 1.429 . S
C1629 C1630 1.523 . S
C1630 C1614 1.368 . S
C1630 C1626 1.368 . S
C1630 C1629 1.523 . S
H1631 C1606 0.950 . S
H1632 C1608 0.950 . S
H1633 C1609 0.949 . S
H1634 C1611 0.950 . S
H1635 C1613 0.950 . S
C1636 C1637 1.349 . S
C1636 C1638 1.327 . S
C1636 H1661 0.950 . S
C1637 C1636 1.349 . S
C1637 C1653 1.349 . S
C1638 C1636 1.327 . S
C1638 C1657 1.429 . S
C1638 H1662 0.950 . S
C1639 C1656 1.574 . S
C1639 C1658 1.368 . S
C1639 H1663 0.949 . S
H1640 C1644 0.949 . S
C1641 C1642 1.349 . S
C1641 C1643 1.327 . S
C1641 H1664 0.950 . S
C1642 C1641 1.349 . S
C1642 C1654 1.349 . S
C1643 C1641 1.327 . S
C1643 C1659 1.429 . S
C1643 H1665 0.950 . S
C1644 H1640 0.949 . S
C1644 C1652 1.574 . S
C1644 C1660 1.368 . S
H1645 C1653 0.950 . S
H1646 C1651 0.950 . S
H1647 C1652 0.949 . S
H1648 C1654 0.950 . S
H1649 C1655 0.950 . S
H1650 C1656 0.949 . S
C1651 H1646 0.950 . S
C1651 C1653 1.327 . S
C1651 C1657 1.429 . S
C1652 C1644 1.574 . S
C1652 H1647 0.949 . S
C1652 C1658 1.368 . S
C1653 C1637 1.349 . S
C1653 H1645 0.950 . S
C1653 C1651 1.327 . S
C1654 C1642 1.349 . S
C1654 H1648 0.950 . S
C1654 C1655 1.327 . S
C1655 H1649 0.950 . S
C1655 C1654 1.327 . S
C1655 C1659 1.429 . S
C1656 C1639 1.574 . S
C1656 H1650 0.949 . S
C1656 C1660 1.368 . S
C1657 C1638 1.429 . S
C1657 C1651 1.429 . S
C1657 C1658 1.523 . S
C1658 C1639 1.368 . S
C1658 C1652 1.368 . S
C1658 C1657 1.523 . S
C1659 C1643 1.429 . S
C1659 C1655 1.429 . S
C1659 C1660 1.523 . S
C1660 C1644 1.368 . S
C1660 C1656 1.368 . S
C1660 C1659 1.523 . S
H1661 C1636 0.950 . S
H1662 C1638 0.950 . S
H1663 C1639 0.949 . S
H1664 C1641 0.950 . S
H1665 C1643 0.950 . S
C1666 C1667 1.349 . S
C1666 C1668 1.327 . S
C1666 H1691 0.950 . S
C1667 C1666 1.349 . S
C1667 C1683 1.349 . S
C1668 C1666 1.327 . S
C1668 C1687 1.429 . S
C1668 H1692 0.950 . S
C1669 C1686 1.574 . S
C1669 C1688 1.368 . S
C1669 H1693 0.949 . S
H1670 C1674 0.949 . S
C1671 C1672 1.349 . S
C1671 C1673 1.327 . S
C1671 H1694 0.950 . S
C1672 C1671 1.349 . S
C1672 C1684 1.349 . S
C1673 C1671 1.327 . S
C1673 C1689 1.429 . S
C1673 H1695 0.950 . S
C1674 H1670 0.949 . S
C1674 C1682 1.574 . S
C1674 C1690 1.368 . S
H1675 C1683 0.950 . S
H1676 C1681 0.950 . S
H1677 C1682 0.949 . S
H1678 C1684 0.950 . S
H1679 C1685 0.950 . S
H1680 C1686 0.949 . S
C1681 H1676 0.950 . S
C1681 C1683 1.327 . S
C1681 C1687 1.429 . S
C1682 C1674 1.574 . S
C1682 H1677 0.949 . S
C1682 C1688 1.368 . S
C1683 C1667 1.349 . S
C1683 H1675 0.950 . S
C1683 C1681 1.327 . S
C1684 C1672 1.349 . S
C1684 H1678 0.950 . S
C1684 C1685 1.327 . S
C1685 H1679 0.950 . S
C1685 C1684 1.327 . S
C1685 C1689 1.429 . S
C1686 C1669 1.574 . S
C1686 H1680 0.949 . S
C1686 C1690 1.368 . S
C1687 C1668 1.429 . S
C1687 C1681 1.429 . S
C1687 C1688 1.523 . S
C1688 C1669 1.368 . S
C1688 C1682 1.368 . S
C1688 C1687 1.523 . S
C1689 C1673 1.429 . S
C1689 C1685 1.429 . S
C1689 C1690 1.523 . S
C1690 C1674 1.368 . S
C1690 C1686 1.368 . S
C1690 C1689 1.523 . S
H1691 C1666 0.950 . S
H1692 C1668 0.950 . S
H1693 C1669 0.949 . S
H1694 C1671 0.950 . S
H1695 C1673 0.950 . S
C1696 C1697 1.349 1_565 S
C1696 C1698 1.327 . S
C1696 H1721 0.950 . S
C1697 C1696 1.349 1_545 S
C1697 C1713 1.349 . S
C1698 C1696 1.327 . S
C1698 C1717 1.429 1_565 S
C1698 H1722 0.950 . S
C1699 C1716 1.574 1_554 S
C1699 C1718 1.391 . S
C1699 H1723 0.949 . S
H1700 C1704 0.949 . S
C1701 C1702 1.349 1_545 S
C1701 C1703 1.327 . S
C1701 H1724 0.950 . S
C1702 C1701 1.349 1_565 S
C1702 C1714 1.349 . S
C1703 C1701 1.327 . S
C1703 C1719 1.429 1_545 S
C1703 H1725 0.950 . S
C1704 H1700 0.949 . S
C1704 C1712 1.574 1_556 S
C1704 C1720 1.391 . S
H1705 C1713 0.950 . S
H1706 C1711 0.950 . S
H1707 C1712 0.949 . S
H1708 C1714 0.950 . S
H1709 C1715 0.950 . S
H1710 C1716 0.949 . S
C1711 H1706 0.950 . S
C1711 C1713 1.327 . S
C1711 C1717 1.429 . S
C1712 C1704 1.574 1_554 S
C1712 H1707 0.949 . S
C1712 C1718 1.345 1_565 S
C1713 C1697 1.349 . S
C1713 H1705 0.950 . S
C1713 C1711 1.327 . S
C1714 C1702 1.349 . S
C1714 H1708 0.950 . S
C1714 C1715 1.327 . S
C1715 H1709 0.950 . S
C1715 C1714 1.327 . S
C1715 C1719 1.429 . S
C1716 C1699 1.574 1_556 S
C1716 H1710 0.949 . S
C1716 C1720 1.345 1_545 S
C1717 C1698 1.429 1_545 S
C1717 C1711 1.429 . S
C1717 C1718 1.524 . S
C1718 C1699 1.391 . S
C1718 C1712 1.345 1_545 S
C1718 C1717 1.524 . S
C1719 C1703 1.429 1_565 S
C1719 C1715 1.429 . S
C1719 C1720 1.524 . S
C1720 C1704 1.391 . S
C1720 C1716 1.345 1_565 S
C1720 C1719 1.524 . S
H1721 C1696 0.950 . S
H1722 C1698 0.950 . S
H1723 C1699 0.949 . S
H1724 C1701 0.950 . S
H1725 C1703 0.950 . S
C1726 C1727 1.349 . S
C1726 C1728 1.327 . S
C1726 H1751 0.950 . S
C1727 C1726 1.349 . S
C1727 C1743 1.349 . S
C1728 C1726 1.327 . S
C1728 C1747 1.429 . S
C1728 H1752 0.950 . S
C1729 C1746 1.574 1_554 S
C1729 C1748 1.368 . S
C1729 H1753 0.949 . S
H1730 C1734 0.949 . S
C1731 C1732 1.349 . S
C1731 C1733 1.327 . S
C1731 H1754 0.950 . S
C1732 C1731 1.349 . S
C1732 C1744 1.349 . S
C1733 C1731 1.327 . S
C1733 C1749 1.429 . S
C1733 H1755 0.950 . S
C1734 H1730 0.949 . S
C1734 C1742 1.574 1_556 S
C1734 C1750 1.368 . S
H1735 C1743 0.950 . S
H1736 C1741 0.950 . S
H1737 C1742 0.949 . S
H1738 C1744 0.950 . S
H1739 C1745 0.950 . S
H1740 C1746 0.949 . S
C1741 H1736 0.950 . S
C1741 C1743 1.327 . S
C1741 C1747 1.429 . S
C1742 C1734 1.574 1_554 S
C1742 H1737 0.949 . S
C1742 C1748 1.368 . S
C1743 C1727 1.349 . S
C1743 H1735 0.950 . S
C1743 C1741 1.327 . S
C1744 C1732 1.349 . S
C1744 H1738 0.950 . S
C1744 C1745 1.327 . S
C1745 H1739 0.950 . S
C1745 C1744 1.327 . S
C1745 C1749 1.429 . S
C1746 C1729 1.574 1_556 S
C1746 H1740 0.949 . S
C1746 C1750 1.368 . S
C1747 C1728 1.429 . S
C1747 C1741 1.429 . S
C1747 C1748 1.523 . S
C1748 C1729 1.368 . S
C1748 C1742 1.368 . S
C1748 C1747 1.523 . S
C1749 C1733 1.429 . S
C1749 C1745 1.429 . S
C1749 C1750 1.523 . S
C1750 C1734 1.368 . S
C1750 C1746 1.368 . S
C1750 C1749 1.523 . S
H1751 C1726 0.950 . S
H1752 C1728 0.950 . S
H1753 C1729 0.949 . S
H1754 C1731 0.950 . S
H1755 C1733 0.950 . S
C1756 C1757 1.349 . S
C1756 C1758 1.327 . S
C1756 H1781 0.950 . S
C1757 C1756 1.349 . S
C1757 C1773 1.349 . S
C1758 C1756 1.327 . S
C1758 C1777 1.429 . S
C1758 H1782 0.950 . S
C1759 C1776 1.574 . S
C1759 C1778 1.368 . S
C1759 H1783 0.949 . S
H1760 C1764 0.949 . S
C1761 C1762 1.349 . S
C1761 C1763 1.327 . S
C1761 H1784 0.950 . S
C1762 C1761 1.349 . S
C1762 C1774 1.349 . S
C1763 C1761 1.327 . S
C1763 C1779 1.429 . S
C1763 H1785 0.950 . S
C1764 H1760 0.949 . S
C1764 C1772 1.574 . S
C1764 C1780 1.368 . S
H1765 C1773 0.950 . S
H1766 C1771 0.950 . S
H1767 C1772 0.949 . S
H1768 C1774 0.950 . S
H1769 C1775 0.950 . S
H1770 C1776 0.949 . S
C1771 H1766 0.950 . S
C1771 C1773 1.327 . S
C1771 C1777 1.429 . S
C1772 C1764 1.574 . S
C1772 H1767 0.949 . S
C1772 C1778 1.368 . S
C1773 C1757 1.349 . S
C1773 H1765 0.950 . S
C1773 C1771 1.327 . S
C1774 C1762 1.349 . S
C1774 H1768 0.950 . S
C1774 C1775 1.327 . S
C1775 H1769 0.950 . S
C1775 C1774 1.327 . S
C1775 C1779 1.429 . S
C1776 C1759 1.574 . S
C1776 H1770 0.949 . S
C1776 C1780 1.368 . S
C1777 C1758 1.429 . S
C1777 C1771 1.429 . S
C1777 C1778 1.523 . S
C1778 C1759 1.368 . S
C1778 C1772 1.368 . S
C1778 C1777 1.523 . S
C1779 C1763 1.429 . S
C1779 C1775 1.429 . S
C1779 C1780 1.523 . S
C1780 C1764 1.368 . S
C1780 C1776 1.368 . S
C1780 C1779 1.523 . S
H1781 C1756 0.950 . S
H1782 C1758 0.950 . S
H1783 C1759 0.949 . S
H1784 C1761 0.950 . S
H1785 C1763 0.950 . S
C1786 C1787 1.349 . S
C1786 C1788 1.327 . S
C1786 H1811 0.950 . S
C1787 C1786 1.349 . S
C1787 C1803 1.349 1_545 S
C1788 C1786 1.327 . S
C1788 C1807 1.429 . S
C1788 H1812 0.950 . S
C1789 C1806 1.574 . S
C1789 C1808 1.368 1_565 S
C1789 H1813 0.949 . S
H1790 C1794 0.949 . S
C1791 C1792 1.349 . S
C1791 C1793 1.327 . S
C1791 H1814 0.950 . S
C1792 C1791 1.349 . S
C1792 C1804 1.349 1_565 S
C1793 C1791 1.327 . S
C1793 C1809 1.429 . S
C1793 H1815 0.950 . S
C1794 H1790 0.949 . S
C1794 C1802 1.574 . S
C1794 C1810 1.358 1_545 S
H1795 C1803 0.950 . S
H1796 C1801 0.950 . S
H1797 C1802 0.949 . S
H1798 C1804 0.950 . S
H1799 C1805 0.950 . S
H1800 C1806 0.949 . S
C1801 H1796 0.950 . S
C1801 C1803 1.327 . S
C1801 C1807 1.429 1_565 S
C1802 C1794 1.574 . S
C1802 H1797 0.949 . S
C1802 C1808 1.368 . S
C1803 C1787 1.349 1_565 S
C1803 H1795 0.950 . S
C1803 C1801 1.327 . S
C1804 C1792 1.349 1_545 S
C1804 H1798 0.950 . S
C1804 C1805 1.327 . S
C1805 H1799 0.950 . S
C1805 C1804 1.327 . S
C1805 C1809 1.429 1_545 S
C1806 C1789 1.574 . S
C1806 H1800 0.949 . S
C1806 C1810 1.378 . S
C1807 C1788 1.429 . S
C1807 C1801 1.429 1_545 S
C1807 C1808 1.523 . S
C1808 C1789 1.368 1_545 S
C1808 C1802 1.368 . S
C1808 C1807 1.523 . S
C1809 C1793 1.429 . S
C1809 C1805 1.429 1_565 S
C1809 C1810 1.523 . S
C1810 C1794 1.358 1_565 S
C1810 C1806 1.378 . S
C1810 C1809 1.523 . S
H1811 C1786 0.950 . S
H1812 C1788 0.950 . S
H1813 C1789 0.949 . S
H1814 C1791 0.950 . S
H1815 C1793 0.950 . S
C1816 C1817 1.349 . S
C1816 C1818 1.327 . S
C1816 H1841 0.950 . S
C1817 C1816 1.349 . S
C1817 C1833 1.349 . S
C1818 C1816 1.327 . S
C1818 C1837 1.429 . S
C1818 H1842 0.950 . S
C1819 C1836 1.574 1_556 S
C1819 C1838 1.368 . S
C1819 H1843 0.949 . S
H1820 C1824 0.949 . S
C1821 C1822 1.349 . S
C1821 C1823 1.327 . S
C1821 H1844 0.950 . S
C1822 C1821 1.349 . S
C1822 C1834 1.349 . S
C1823 C1821 1.327 . S
C1823 C1839 1.429 . S
C1823 H1845 0.950 . S
C1824 H1820 0.949 . S
C1824 C1832 1.574 1_554 S
C1824 C1840 1.368 . S
H1825 C1833 0.950 . S
H1826 C1831 0.950 . S
H1827 C1832 0.949 . S
H1828 C1834 0.950 . S
H1829 C1835 0.950 . S
H1830 C1836 0.949 . S
C1831 H1826 0.950 . S
C1831 C1833 1.327 . S
C1831 C1837 1.429 . S
C1832 C1824 1.574 1_556 S
C1832 H1827 0.949 . S
C1832 C1838 1.368 . S
C1833 C1817 1.349 . S
C1833 H1825 0.950 . S
C1833 C1831 1.327 . S
C1834 C1822 1.349 . S
C1834 H1828 0.950 . S
C1834 C1835 1.327 . S
C1835 H1829 0.950 . S
C1835 C1834 1.327 . S
C1835 C1839 1.429 . S
C1836 C1819 1.574 1_554 S
C1836 H1830 0.949 . S
C1836 C1840 1.368 . S
C1837 C1818 1.429 . S
C1837 C1831 1.429 . S
C1837 C1838 1.523 . S
C1838 C1819 1.368 . S
C1838 C1832 1.368 . S
C1838 C1837 1.523 . S
C1839 C1823 1.429 . S
C1839 C1835 1.429 . S
C1839 C1840 1.523 . S
C1840 C1824 1.368 . S
C1840 C1836 1.368 . S
C1840 C1839 1.523 . S
H1841 C1816 0.950 . S
H1842 C1818 0.950 . S
H1843 C1819 0.949 . S
H1844 C1821 0.950 . S
H1845 C1823 0.950 . S
C1846 C1847 1.349 . S
C1846 C1848 1.327 . S
C1846 H1871 0.950 . S
C1847 C1846 1.349 . S
C1847 C1863 1.349 . S
C1848 C1846 1.327 . S
C1848 C1867 1.429 . S
C1848 H1872 0.950 . S
C1849 C1866 1.574 . S
C1849 C1868 1.368 . S
C1849 H1873 0.949 . S
H1850 C1854 0.949 . S
C1851 C1852 1.349 . S
C1851 C1853 1.327 . S
C1851 H1874 0.950 . S
C1852 C1851 1.349 . S
C1852 C1864 1.349 . S
C1853 C1851 1.327 . S
C1853 C1869 1.429 . S
C1853 H1875 0.950 . S
C1854 H1850 0.949 . S
C1854 C1862 1.574 . S
C1854 C1870 1.368 . S
H1855 C1863 0.950 . S
H1856 C1861 0.950 . S
H1857 C1862 0.949 . S
H1858 C1864 0.950 . S
H1859 C1865 0.950 . S
H1860 C1866 0.949 . S
C1861 H1856 0.950 . S
C1861 C1863 1.327 . S
C1861 C1867 1.429 . S
C1862 C1854 1.574 . S
C1862 H1857 0.949 . S
C1862 C1868 1.368 . S
C1863 C1847 1.349 . S
C1863 H1855 0.950 . S
C1863 C1861 1.327 . S
C1864 C1852 1.349 . S
C1864 H1858 0.950 . S
C1864 C1865 1.327 . S
C1865 H1859 0.950 . S
C1865 C1864 1.327 . S
C1865 C1869 1.429 . S
C1866 C1849 1.574 . S
C1866 H1860 0.949 . S
C1866 C1870 1.368 . S
C1867 C1848 1.429 . S
C1867 C1861 1.429 . S
C1867 C1868 1.523 . S
C1868 C1849 1.368 . S
C1868 C1862 1.368 . S
C1868 C1867 1.523 . S
C1869 C1853 1.429 . S
C1869 C1865 1.429 . S
C1869 C1870 1.523 . S
C1870 C1854 1.368 . S
C1870 C1866 1.368 . S
C1870 C1869 1.523 . S
H1871 C1846 0.950 . S
H1872 C1848 0.950 . S
H1873 C1849 0.949 . S
H1874 C1851 0.950 . S
H1875 C1853 0.950 . S
C1876 C1877 1.349 1_565 S
C1876 C1878 1.327 . S
C1876 H1901 0.950 . S
C1877 C1876 1.349 1_545 S
C1877 C1893 1.349 . S
C1878 C1876 1.327 . S
C1878 C1897 1.429 1_565 S
C1878 H1902 0.950 . S
C1879 C1896 1.574 . S
C1879 C1898 1.379 . S
C1879 H1903 0.949 . S
H1880 C1884 0.949 . S
C1881 C1882 1.349 1_545 S
C1881 C1883 1.327 . S
C1881 H1904 0.950 . S
C1882 C1881 1.349 1_565 S
C1882 C1894 1.349 . S
C1883 C1881 1.327 . S
C1883 C1899 1.429 1_545 S
C1883 H1905 0.950 . S
C1884 H1880 0.949 . S
C1884 C1892 1.574 . S
C1884 C1900 1.368 . S
H1885 C1893 0.950 . S
H1886 C1891 0.950 . S
H1887 C1892 0.949 . S
H1888 C1894 0.950 . S
H1889 C1895 0.950 . S
H1890 C1896 0.949 . S
C1891 H1886 0.950 . S
C1891 C1893 1.327 . S
C1891 C1897 1.429 . S
C1892 C1884 1.574 . S
C1892 H1887 0.949 . S
C1892 C1898 1.358 1_565 S
C1893 C1877 1.349 . S
C1893 H1885 0.950 . S
C1893 C1891 1.327 . S
C1894 C1882 1.349 . S
C1894 H1888 0.950 . S
C1894 C1895 1.327 . S
C1895 H1889 0.950 . S
C1895 C1894 1.327 . S
C1895 C1899 1.429 . S
C1896 C1879 1.574 . S
C1896 H1890 0.949 . S
C1896 C1900 1.368 1_545 S
C1897 C1878 1.429 1_545 S
C1897 C1891 1.429 . S
C1897 C1898 1.523 . S
C1898 C1879 1.379 . S
C1898 C1892 1.358 1_545 S
C1898 C1897 1.523 . S
C1899 C1883 1.429 1_565 S
C1899 C1895 1.429 . S
C1899 C1900 1.523 . S
C1900 C1884 1.368 . S
C1900 C1896 1.368 1_565 S
C1900 C1899 1.523 . S
H1901 C1876 0.950 . S
H1902 C1878 0.950 . S
H1903 C1879 0.949 . S
H1904 C1881 0.950 . S
H1905 C1883 0.950 . S
C1906 C1907 1.349 . S
C1906 C1908 1.327 . S
C1906 H1931 0.950 . S
C1907 C1906 1.349 . S
C1907 C1923 1.349 . S
C1908 C1906 1.327 . S
C1908 C1927 1.429 . S
C1908 H1932 0.950 . S
C1909 C1926 1.574 . S
C1909 C1928 1.368 . S
C1909 H1933 0.949 . S
H1910 C1914 0.949 . S
C1911 C1912 1.349 . S
C1911 C1913 1.327 . S
C1911 H1934 0.950 . S
C1912 C1911 1.349 . S
C1912 C1924 1.349 . S
C1913 C1911 1.327 . S
C1913 C1929 1.429 . S
C1913 H1935 0.950 . S
C1914 H1910 0.949 . S
C1914 C1922 1.574 . S
C1914 C1930 1.368 . S
H1915 C1923 0.950 . S
H1916 C1921 0.950 . S
H1917 C1922 0.949 . S
H1918 C1924 0.950 . S
H1919 C1925 0.950 . S
H1920 C1926 0.949 . S
C1921 H1916 0.950 . S
C1921 C1923 1.327 . S
C1921 C1927 1.429 . S
C1922 C1914 1.574 . S
C1922 H1917 0.949 . S
C1922 C1928 1.368 . S
C1923 C1907 1.349 . S
C1923 H1915 0.950 . S
C1923 C1921 1.327 . S
C1924 C1912 1.349 . S
C1924 H1918 0.950 . S
C1924 C1925 1.327 . S
C1925 H1919 0.950 . S
C1925 C1924 1.327 . S
C1925 C1929 1.429 . S
C1926 C1909 1.574 . S
C1926 H1920 0.949 . S
C1926 C1930 1.368 . S
C1927 C1908 1.429 . S
C1927 C1921 1.429 . S
C1927 C1928 1.523 . S
C1928 C1909 1.368 . S
C1928 C1922 1.368 . S
C1928 C1927 1.523 . S
C1929 C1913 1.429 . S
C1929 C1925 1.429 . S
C1929 C1930 1.523 . S
C1930 C1914 1.368 . S
C1930 C1926 1.368 . S
C1930 C1929 1.523 . S
H1931 C1906 0.950 . S
H1932 C1908 0.950 . S
H1933 C1909 0.949 . S
H1934 C1911 0.950 . S
H1935 C1913 0.950 . S
C1936 C1937 1.349 . S
C1936 C1938 1.327 . S
C1936 H1961 0.950 . S
C1937 C1936 1.349 . S
C1937 C1953 1.349 . S
C1938 C1936 1.327 . S
C1938 C1957 1.429 . S
C1938 H1962 0.950 . S
C1939 C1956 1.574 . S
C1939 C1958 1.368 . S
C1939 H1963 0.949 . S
H1940 C1944 0.949 . S
C1941 C1942 1.349 . S
C1941 C1943 1.327 . S
C1941 H1964 0.950 . S
C1942 C1941 1.349 . S
C1942 C1954 1.349 . S
C1943 C1941 1.327 . S
C1943 C1959 1.429 . S
C1943 H1965 0.950 . S
C1944 H1940 0.949 . S
C1944 C1952 1.574 . S
C1944 C1960 1.368 . S
H1945 C1953 0.950 . S
H1946 C1951 0.950 . S
H1947 C1952 0.949 . S
H1948 C1954 0.950 . S
H1949 C1955 0.950 . S
H1950 C1956 0.949 . S
C1951 H1946 0.950 . S
C1951 C1953 1.327 . S
C1951 C1957 1.429 . S
C1952 C1944 1.574 . S
C1952 H1947 0.949 . S
C1952 C1958 1.368 . S
C1953 C1937 1.349 . S
C1953 H1945 0.950 . S
C1953 C1951 1.327 . S
C1954 C1942 1.349 . S
C1954 H1948 0.950 . S
C1954 C1955 1.327 . S
C1955 H1949 0.950 . S
C1955 C1954 1.327 . S
C1955 C1959 1.429 . S
C1956 C1939 1.574 . S
C1956 H1950 0.949 . S
C1956 C1960 1.368 . S
C1957 C1938 1.429 . S
C1957 C1951 1.429 . S
C1957 C1958 1.523 . S
C1958 C1939 1.368 . S
C1958 C1952 1.368 . S
C1958 C1957 1.523 . S
C1959 C1943 1.429 . S
C1959 C1955 1.429 . S
C1959 C1960 1.523 . S
C1960 C1944 1.368 . S
C1960 C1956 1.368 . S
C1960 C1959 1.523 . S
H1961 C1936 0.950 . S
H1962 C1938 0.950 . S
H1963 C1939 0.949 . S
H1964 C1941 0.950 . S
H1965 C1943 0.950 . S
C1966 C1967 1.349 . S
C1966 C1968 1.327 . S
C1966 H1991 0.950 . S
C1967 C1966 1.349 . S
C1967 C1983 1.349 . S
C1968 C1966 1.327 . S
C1968 C1987 1.429 . S
C1968 H1992 0.950 . S
C1969 C1986 1.574 . S
C1969 C1988 1.368 . S
C1969 H1993 0.949 . S
H1970 C1974 0.949 . S
C1971 C1972 1.349 . S
C1971 C1973 1.327 . S
C1971 H1994 0.950 . S
C1972 C1971 1.349 . S
C1972 C1984 1.349 . S
C1973 C1971 1.327 . S
C1973 C1989 1.429 . S
C1973 H1995 0.950 . S
C1974 H1970 0.949 . S
C1974 C1982 1.574 . S
C1974 C1990 1.368 . S
H1975 C1983 0.950 . S
H1976 C1981 0.950 . S
H1977 C1982 0.949 . S
H1978 C1984 0.950 . S
H1979 C1985 0.950 . S
H1980 C1986 0.949 . S
C1981 H1976 0.950 . S
C1981 C1983 1.327 . S
C1981 C1987 1.429 . S
C1982 C1974 1.574 . S
C1982 H1977 0.949 . S
C1982 C1988 1.368 . S
C1983 C1967 1.349 . S
C1983 H1975 0.950 . S
C1983 C1981 1.327 . S
C1984 C1972 1.349 . S
C1984 H1978 0.950 . S
C1984 C1985 1.327 . S
C1985 H1979 0.950 . S
C1985 C1984 1.327 . S
C1985 C1989 1.429 . S
C1986 C1969 1.574 . S
C1986 H1980 0.949 . S
C1986 C1990 1.368 . S
C1987 C1968 1.429 . S
C1987 C1981 1.429 . S
C1987 C1988 1.523 . S
C1988 C1969 1.368 . S
C1988 C1982 1.368 . S
C1988 C1987 1.523 . S
C1989 C1973 1.429 . S
C1989 C1985 1.429 . S
C1989 C1990 1.523 . S
C1990 C1974 1.368 . S
C1990 C1986 1.368 . S
C1990 C1989 1.523 . S
H1991 C1966 0.950 . S
H1992 C1968 0.950 . S
H1993 C1969 0.949 . S
H1994 C1971 0.950 . S
H1995 C1973 0.950 . S
C1996 C1997 1.349 . S
C1996 C1998 1.327 . S
C1996 H2021 0.950 . S
C1997 C1996 1.349 . S
C1997 C2013 1.349 . S
C1998 C1996 1.327 . S
C1998 C2017 1.429 . S
C1998 H2022 0.950 . S
C1999 C2016 1.574 . S
C1999 C2018 1.368 . S
C1999 H2023 0.949 . S
H2000 C2004 0.949 . S
C2001 C2002 1.349 . S
C2001 C2003 1.327 . S
C2001 H2024 0.950 . S
C2002 C2001 1.349 . S
C2002 C2014 1.349 . S
C2003 C2001 1.327 . S
C2003 C2019 1.429 . S
C2003 H2025 0.950 . S
C2004 H2000 0.949 . S
C2004 C2012 1.574 . S
C2004 C2020 1.368 . S
H2005 C2013 0.950 . S
H2006 C2011 0.950 . S
H2007 C2012 0.949 . S
H2008 C2014 0.950 . S
H2009 C2015 0.950 . S
H2010 C2016 0.949 . S
C2011 H2006 0.950 . S
C2011 C2013 1.327 . S
C2011 C2017 1.429 . S
C2012 C2004 1.574 . S
C2012 H2007 0.949 . S
C2012 C2018 1.368 . S
C2013 C1997 1.349 . S
C2013 H2005 0.950 . S
C2013 C2011 1.327 . S
C2014 C2002 1.349 . S
C2014 H2008 0.950 . S
C2014 C2015 1.327 . S
C2015 H2009 0.950 . S
C2015 C2014 1.327 . S
C2015 C2019 1.429 . S
C2016 C1999 1.574 . S
C2016 H2010 0.949 . S
C2016 C2020 1.368 . S
C2017 C1998 1.429 . S
C2017 C2011 1.429 . S
C2017 C2018 1.523 . S
C2018 C1999 1.368 . S
C2018 C2012 1.368 . S
C2018 C2017 1.523 . S
C2019 C2003 1.429 . S
C2019 C2015 1.429 . S
C2019 C2020 1.523 . S
C2020 C2004 1.368 . S
C2020 C2016 1.368 . S
C2020 C2019 1.523 . S
H2021 C1996 0.950 . S
H2022 C1998 0.950 . S
H2023 C1999 0.949 . S
H2024 C2001 0.950 . S
H2025 C2003 0.950 . S
C2026 C2027 1.349 . S
C2026 C2028 1.327 . S
C2026 H2051 0.950 . S
C2027 C2026 1.349 . S
C2027 C2043 1.349 . S
C2028 C2026 1.327 . S
C2028 C2047 1.429 . S
C2028 H2052 0.950 . S
C2029 C2046 1.574 . S
C2029 C2048 1.368 . S
C2029 H2053 0.949 . S
H2030 C2034 0.949 . S
C2031 C2032 1.349 . S
C2031 C2033 1.327 . S
C2031 H2054 0.950 . S
C2032 C2031 1.349 . S
C2032 C2044 1.349 . S
C2033 C2031 1.327 . S
C2033 C2049 1.429 . S
C2033 H2055 0.950 . S
C2034 H2030 0.949 . S
C2034 C2042 1.574 . S
C2034 C2050 1.368 . S
H2035 C2043 0.950 . S
H2036 C2041 0.950 . S
H2037 C2042 0.949 . S
H2038 C2044 0.950 . S
H2039 C2045 0.950 . S
H2040 C2046 0.949 . S
C2041 H2036 0.950 . S
C2041 C2043 1.327 . S
C2041 C2047 1.429 . S
C2042 C2034 1.574 . S
C2042 H2037 0.949 . S
C2042 C2048 1.368 . S
C2043 C2027 1.349 . S
C2043 H2035 0.950 . S
C2043 C2041 1.327 . S
C2044 C2032 1.349 . S
C2044 H2038 0.950 . S
C2044 C2045 1.327 . S
C2045 H2039 0.950 . S
C2045 C2044 1.327 . S
C2045 C2049 1.429 . S
C2046 C2029 1.574 . S
C2046 H2040 0.949 . S
C2046 C2050 1.368 . S
C2047 C2028 1.429 . S
C2047 C2041 1.429 . S
C2047 C2048 1.523 . S
C2048 C2029 1.368 . S
C2048 C2042 1.368 . S
C2048 C2047 1.523 . S
C2049 C2033 1.429 . S
C2049 C2045 1.429 . S
C2049 C2050 1.523 . S
C2050 C2034 1.368 . S
C2050 C2046 1.368 . S
C2050 C2049 1.523 . S
H2051 C2026 0.950 . S
H2052 C2028 0.950 . S
H2053 C2029 0.949 . S
H2054 C2031 0.950 . S
H2055 C2033 0.950 . S
C2056 C2057 1.349 . S
C2056 C2058 1.327 . S
C2056 H2081 0.950 . S
C2057 C2056 1.349 . S
C2057 C2073 1.349 1_465 S
C2058 C2056 1.327 . S
C2058 C2077 1.429 . S
C2058 H2082 0.950 . S
C2059 C2076 1.574 . S
C2059 C2078 1.308 1_645 S
C2059 H2083 0.949 . S
H2060 C2064 0.949 . S
C2061 C2062 1.349 . S
C2061 C2063 1.327 . S
C2061 H2084 0.950 . S
C2062 C2061 1.349 . S
C2062 C2074 1.349 1_645 S
C2063 C2061 1.327 . S
C2063 C2079 1.429 . S
C2063 H2085 0.950 . S
C2064 H2060 0.949 . S
C2064 C2072 1.574 . S
C2064 C2080 1.316 1_465 S
H2065 C2073 0.950 . S
H2066 C2071 0.950 . S
H2067 C2072 0.949 . S
H2068 C2074 0.950 . S
H2069 C2075 0.950 . S
H2070 C2076 0.949 . S
C2071 H2066 0.950 . S
C2071 C2073 1.327 . S
C2071 C2077 1.429 1_645 S
C2072 C2064 1.574 . S
C2072 H2067 0.949 . S
C2072 C2078 1.427 . S
C2073 C2057 1.349 1_645 S
C2073 H2065 0.950 . S
C2073 C2071 1.327 . S
C2074 C2062 1.349 1_465 S
C2074 H2068 0.950 . S
C2074 C2075 1.327 . S
C2075 H2069 0.950 . S
C2075 C2074 1.327 . S
C2075 C2079 1.429 1_465 S
C2076 C2059 1.574 . S
C2076 H2070 0.949 . S
C2076 C2080 1.419 . S
C2077 C2058 1.429 . S
C2077 C2071 1.429 1_465 S
C2077 C2078 1.529 . S
C2078 C2059 1.308 1_465 S
C2078 C2072 1.427 . S
C2078 C2077 1.529 . S
C2079 C2063 1.429 . S
C2079 C2075 1.429 1_645 S
C2079 C2080 1.527 . S
C2080 C2064 1.316 1_645 S
C2080 C2076 1.419 . S
C2080 C2079 1.527 . S
H2081 C2056 0.950 . S
H2082 C2058 0.950 . S
H2083 C2059 0.949 . S
H2084 C2061 0.950 . S
H2085 C2063 0.950 . S
C2086 C2087 1.349 1_455 S
C2086 C2088 1.327 . S
C2086 H2111 0.950 . S
C2087 C2086 1.349 1_655 S
C2087 C2103 1.349 . S
C2088 C2086 1.327 . S
C2088 C2107 1.429 1_455 S
C2088 H2112 0.950 . S
C2089 C2106 1.574 . S
C2089 C2108 1.400 . S
C2089 H2113 0.949 . S
H2090 C2094 0.949 . S
C2091 C2092 1.349 1_655 S
C2091 C2093 1.327 . S
C2091 H2114 0.950 . S
C2092 C2091 1.349 1_455 S
C2092 C2104 1.349 . S
C2093 C2091 1.327 . S
C2093 C2109 1.429 1_655 S
C2093 H2115 0.950 . S
C2094 H2090 0.949 . S
C2094 C2102 1.574 . S
C2094 C2110 1.392 . S
H2095 C2103 0.950 . S
H2096 C2101 0.950 . S
H2097 C2102 0.949 . S
H2098 C2104 0.950 . S
H2099 C2105 0.950 . S
H2100 C2106 0.949 . S
C2101 H2096 0.950 . S
C2101 C2103 1.327 . S
C2101 C2107 1.429 . S
C2102 C2094 1.574 . S
C2102 H2097 0.949 . S
C2102 C2108 1.336 1_455 S
C2103 C2087 1.349 . S
C2103 H2095 0.950 . S
C2103 C2101 1.327 . S
C2104 C2092 1.349 . S
C2104 H2098 0.950 . S
C2104 C2105 1.327 . S
C2105 H2099 0.950 . S
C2105 C2104 1.327 . S
C2105 C2109 1.429 . S
C2106 C2089 1.574 . S
C2106 H2100 0.949 . S
C2106 C2110 1.344 1_655 S
C2107 C2088 1.429 1_655 S
C2107 C2101 1.429 . S
C2107 C2108 1.527 . S
C2108 C2089 1.400 . S
C2108 C2102 1.336 1_655 S
C2108 C2107 1.527 . S
C2109 C2093 1.429 1_455 S
C2109 C2105 1.429 . S
C2109 C2110 1.526 . S
C2110 C2094 1.392 . S
C2110 C2106 1.344 1_455 S
C2110 C2109 1.526 . S
H2111 C2086 0.950 . S
H2112 C2088 0.950 . S
H2113 C2089 0.949 . S
H2114 C2091 0.950 . S
H2115 C2093 0.950 . S
C2116 C2117 1.349 1_455 S
C2116 C2118 1.327 . S
C2116 H2141 0.950 . S
C2117 C2116 1.349 1_655 S
C2117 C2133 1.349 . S
C2118 C2116 1.327 . S
C2118 C2137 1.429 1_455 S
C2118 H2142 0.950 . S
C2119 C2136 1.574 . S
C2119 C2138 1.400 . S
C2119 H2143 0.949 . S
H2120 C2124 0.949 . S
C2121 C2122 1.349 1_655 S
C2121 C2123 1.327 . S
C2121 H2144 0.950 . S
C2122 C2121 1.349 1_455 S
C2122 C2134 1.349 . S
C2123 C2121 1.327 . S
C2123 C2139 1.429 1_655 S
C2123 H2145 0.950 . S
C2124 H2120 0.949 . S
C2124 C2132 1.574 . S
C2124 C2140 1.392 . S
H2125 C2133 0.950 . S
H2126 C2131 0.950 . S
H2127 C2132 0.949 . S
H2128 C2134 0.950 . S
H2129 C2135 0.950 . S
H2130 C2136 0.949 . S
C2131 H2126 0.950 . S
C2131 C2133 1.327 . S
C2131 C2137 1.429 . S
C2132 C2124 1.574 . S
C2132 H2127 0.949 . S
C2132 C2138 1.337 1_455 S
C2133 C2117 1.349 . S
C2133 H2125 0.950 . S
C2133 C2131 1.327 . S
C2134 C2122 1.349 . S
C2134 H2128 0.950 . S
C2134 C2135 1.327 . S
C2135 H2129 0.950 . S
C2135 C2134 1.327 . S
C2135 C2139 1.429 . S
C2136 C2119 1.574 . S
C2136 H2130 0.949 . S
C2136 C2140 1.344 1_655 S
C2137 C2118 1.429 1_655 S
C2137 C2131 1.429 . S
C2137 C2138 1.527 . S
C2138 C2119 1.400 . S
C2138 C2132 1.337 1_655 S
C2138 C2137 1.527 . S
C2139 C2123 1.429 1_455 S
C2139 C2135 1.429 . S
C2139 C2140 1.526 . S
C2140 C2124 1.392 . S
C2140 C2136 1.344 1_455 S
C2140 C2139 1.526 . S
H2141 C2116 0.950 . S
H2142 C2118 0.950 . S
H2143 C2119 0.949 . S
H2144 C2121 0.950 . S
H2145 C2123 0.950 . S
C2146 C2147 1.349 1_655 S
C2146 C2148 1.327 . S
C2146 H2171 0.950 . S
C2147 C2146 1.349 1_455 S
C2147 C2163 1.349 . S
C2148 C2146 1.327 . S
C2148 C2167 1.429 1_655 S
C2148 H2172 0.950 . S
C2149 C2166 1.574 1_556 S
C2149 C2168 1.399 . S
C2149 H2173 0.949 . S
H2150 C2154 0.949 . S
C2151 C2152 1.349 1_455 S
C2151 C2153 1.327 . S
C2151 H2174 0.950 . S
C2152 C2151 1.349 1_655 S
C2152 C2164 1.349 . S
C2153 C2151 1.327 . S
C2153 C2169 1.429 1_455 S
C2153 H2175 0.950 . S
C2154 H2150 0.949 . S
C2154 C2162 1.574 1_554 S
C2154 C2170 1.391 . S
H2155 C2163 0.950 . S
H2156 C2161 0.950 . S
H2157 C2162 0.949 . S
H2158 C2164 0.950 . S
H2159 C2165 0.950 . S
H2160 C2166 0.949 . S
C2161 H2156 0.950 . S
C2161 C2163 1.327 . S
C2161 C2167 1.429 . S
C2162 C2154 1.574 1_556 S
C2162 H2157 0.949 . S
C2162 C2168 1.337 1_655 S
C2163 C2147 1.349 . S
C2163 H2155 0.950 . S
C2163 C2161 1.327 . S
C2164 C2152 1.349 . S
C2164 H2158 0.950 . S
C2164 C2165 1.327 . S
C2165 H2159 0.950 . S
C2165 C2164 1.327 . S
C2165 C2169 1.429 . S
C2166 C2149 1.574 1_554 S
C2166 H2160 0.949 . S
C2166 C2170 1.345 1_455 S
C2167 C2148 1.429 1_455 S
C2167 C2161 1.429 . S
C2167 C2168 1.527 . S
C2168 C2149 1.399 . S
C2168 C2162 1.337 1_455 S
C2168 C2167 1.527 . S
C2169 C2153 1.429 1_655 S
C2169 C2165 1.429 . S
C2169 C2170 1.526 . S
C2170 C2154 1.391 . S
C2170 C2166 1.345 1_655 S
C2170 C2169 1.526 . S
H2171 C2146 0.950 . S
H2172 C2148 0.950 . S
H2173 C2149 0.949 . S
H2174 C2151 0.950 . S
H2175 C2153 0.950 . S
C2176 C2177 1.349 . S
C2176 C2178 1.327 . S
C2176 H2201 0.950 . S
C2177 C2176 1.349 . S
C2177 C2193 1.349 . S
C2178 C2176 1.327 . S
C2178 C2197 1.429 . S
C2178 H2202 0.950 . S
C2179 C2196 1.574 . S
C2179 C2198 1.368 . S
C2179 H2203 0.949 . S
H2180 C2184 0.949 . S
C2181 C2182 1.349 . S
C2181 C2183 1.327 . S
C2181 H2204 0.950 . S
C2182 C2181 1.349 . S
C2182 C2194 1.349 . S
C2183 C2181 1.327 . S
C2183 C2199 1.429 . S
C2183 H2205 0.950 . S
C2184 H2180 0.949 . S
C2184 C2192 1.574 . S
C2184 C2200 1.368 . S
H2185 C2193 0.950 . S
H2186 C2191 0.950 . S
H2187 C2192 0.949 . S
H2188 C2194 0.950 . S
H2189 C2195 0.950 . S
H2190 C2196 0.949 . S
C2191 H2186 0.950 . S
C2191 C2193 1.327 . S
C2191 C2197 1.429 . S
C2192 C2184 1.574 . S
C2192 H2187 0.949 . S
C2192 C2198 1.368 . S
C2193 C2177 1.349 . S
C2193 H2185 0.950 . S
C2193 C2191 1.327 . S
C2194 C2182 1.349 . S
C2194 H2188 0.950 . S
C2194 C2195 1.327 . S
C2195 H2189 0.950 . S
C2195 C2194 1.327 . S
C2195 C2199 1.429 . S
C2196 C2179 1.574 . S
C2196 H2190 0.949 . S
C2196 C2200 1.368 . S
C2197 C2178 1.429 . S
C2197 C2191 1.429 . S
C2197 C2198 1.523 . S
C2198 C2179 1.368 . S
C2198 C2192 1.368 . S
C2198 C2197 1.523 . S
C2199 C2183 1.429 . S
C2199 C2195 1.429 . S
C2199 C2200 1.523 . S
C2200 C2184 1.368 . S
C2200 C2196 1.368 . S
C2200 C2199 1.523 . S
H2201 C2176 0.950 . S
H2202 C2178 0.950 . S
H2203 C2179 0.949 . S
H2204 C2181 0.950 . S
H2205 C2183 0.950 . S
C2206 C2207 1.349 . S
C2206 C2208 1.327 . S
C2206 H2231 0.950 . S
C2207 C2206 1.349 . S
C2207 C2223 1.349 . S
C2208 C2206 1.327 . S
C2208 C2227 1.429 . S
C2208 H2232 0.950 . S
C2209 C2226 1.574 . S
C2209 C2228 1.368 . S
C2209 H2233 0.949 . S
H2210 C2214 0.949 . S
C2211 C2212 1.349 . S
C2211 C2213 1.327 . S
C2211 H2234 0.950 . S
C2212 C2211 1.349 . S
C2212 C2224 1.349 . S
C2213 C2211 1.327 . S
C2213 C2229 1.429 . S
C2213 H2235 0.950 . S
C2214 H2210 0.949 . S
C2214 C2222 1.574 . S
C2214 C2230 1.368 . S
H2215 C2223 0.950 . S
H2216 C2221 0.950 . S
H2217 C2222 0.949 . S
H2218 C2224 0.950 . S
H2219 C2225 0.950 . S
H2220 C2226 0.949 . S
C2221 H2216 0.950 . S
C2221 C2223 1.327 . S
C2221 C2227 1.429 . S
C2222 C2214 1.574 . S
C2222 H2217 0.949 . S
C2222 C2228 1.368 . S
C2223 C2207 1.349 . S
C2223 H2215 0.950 . S
C2223 C2221 1.327 . S
C2224 C2212 1.349 . S
C2224 H2218 0.950 . S
C2224 C2225 1.327 . S
C2225 H2219 0.950 . S
C2225 C2224 1.327 . S
C2225 C2229 1.429 . S
C2226 C2209 1.574 . S
C2226 H2220 0.949 . S
C2226 C2230 1.368 . S
C2227 C2208 1.429 . S
C2227 C2221 1.429 . S
C2227 C2228 1.523 . S
C2228 C2209 1.368 . S
C2228 C2222 1.368 . S
C2228 C2227 1.523 . S
C2229 C2213 1.429 . S
C2229 C2225 1.429 . S
C2229 C2230 1.523 . S
C2230 C2214 1.368 . S
C2230 C2226 1.368 . S
C2230 C2229 1.523 . S
H2231 C2206 0.950 . S
H2232 C2208 0.950 . S
H2233 C2209 0.949 . S
H2234 C2211 0.950 . S
H2235 C2213 0.950 . S
C2236 C2237 1.349 . S
C2236 C2238 1.327 . S
C2236 H2261 0.950 . S
C2237 C2236 1.349 . S
C2237 C2253 1.349 . S
C2238 C2236 1.327 . S
C2238 C2257 1.429 . S
C2238 H2262 0.950 . S
C2239 C2256 1.574 . S
C2239 C2258 1.368 . S
C2239 H2263 0.949 . S
H2240 C2244 0.949 . S
C2241 C2242 1.349 . S
C2241 C2243 1.327 . S
C2241 H2264 0.950 . S
C2242 C2241 1.349 . S
C2242 C2254 1.349 . S
C2243 C2241 1.327 . S
C2243 C2259 1.429 . S
C2243 H2265 0.950 . S
C2244 H2240 0.949 . S
C2244 C2252 1.574 . S
C2244 C2260 1.368 . S
H2245 C2253 0.950 . S
H2246 C2251 0.950 . S
H2247 C2252 0.949 . S
H2248 C2254 0.950 . S
H2249 C2255 0.950 . S
H2250 C2256 0.949 . S
C2251 H2246 0.950 . S
C2251 C2253 1.327 . S
C2251 C2257 1.429 . S
C2252 C2244 1.574 . S
C2252 H2247 0.949 . S
C2252 C2258 1.368 . S
C2253 C2237 1.349 . S
C2253 H2245 0.950 . S
C2253 C2251 1.327 . S
C2254 C2242 1.349 . S
C2254 H2248 0.950 . S
C2254 C2255 1.327 . S
C2255 H2249 0.950 . S
C2255 C2254 1.327 . S
C2255 C2259 1.429 . S
C2256 C2239 1.574 . S
C2256 H2250 0.949 . S
C2256 C2260 1.368 . S
C2257 C2238 1.429 . S
C2257 C2251 1.429 . S
C2257 C2258 1.523 . S
C2258 C2239 1.368 . S
C2258 C2252 1.368 . S
C2258 C2257 1.523 . S
C2259 C2243 1.429 . S
C2259 C2255 1.429 . S
C2259 C2260 1.523 . S
C2260 C2244 1.368 . S
C2260 C2256 1.368 . S
C2260 C2259 1.523 . S
H2261 C2236 0.950 . S
H2262 C2238 0.950 . S
H2263 C2239 0.949 . S
H2264 C2241 0.950 . S
H2265 C2243 0.950 . S
C2266 C2267 1.349 . S
C2266 C2268 1.327 . S
C2266 H2291 0.950 . S
C2267 C2266 1.349 . S
C2267 C2283 1.349 . S
C2268 C2266 1.327 . S
C2268 C2287 1.429 . S
C2268 H2292 0.950 . S
C2269 C2286 1.574 . S
C2269 C2288 1.368 . S
C2269 H2293 0.949 . S
H2270 C2274 0.949 . S
C2271 C2272 1.349 . S
C2271 C2273 1.327 . S
C2271 H2294 0.950 . S
C2272 C2271 1.349 . S
C2272 C2284 1.349 . S
C2273 C2271 1.327 . S
C2273 C2289 1.429 . S
C2273 H2295 0.950 . S
C2274 H2270 0.949 . S
C2274 C2282 1.574 . S
C2274 C2290 1.368 . S
H2275 C2283 0.950 . S
H2276 C2281 0.950 . S
H2277 C2282 0.949 . S
H2278 C2284 0.950 . S
H2279 C2285 0.950 . S
H2280 C2286 0.949 . S
C2281 H2276 0.950 . S
C2281 C2283 1.327 . S
C2281 C2287 1.429 . S
C2282 C2274 1.574 . S
C2282 H2277 0.949 . S
C2282 C2288 1.368 . S
C2283 C2267 1.349 . S
C2283 H2275 0.950 . S
C2283 C2281 1.327 . S
C2284 C2272 1.349 . S
C2284 H2278 0.950 . S
C2284 C2285 1.327 . S
C2285 H2279 0.950 . S
C2285 C2284 1.327 . S
C2285 C2289 1.429 . S
C2286 C2269 1.574 . S
C2286 H2280 0.949 . S
C2286 C2290 1.368 . S
C2287 C2268 1.429 . S
C2287 C2281 1.429 . S
C2287 C2288 1.523 . S
C2288 C2269 1.368 . S
C2288 C2282 1.368 . S
C2288 C2287 1.523 . S
C2289 C2273 1.429 . S
C2289 C2285 1.429 . S
C2289 C2290 1.523 . S
C2290 C2274 1.368 . S
C2290 C2286 1.368 . S
C2290 C2289 1.523 . S
H2291 C2266 0.950 . S
H2292 C2268 0.950 . S
H2293 C2269 0.949 . S
H2294 C2271 0.950 . S
H2295 C2273 0.950 . S
C2296 C2297 1.349 . S
C2296 C2298 1.327 . S
C2296 H2321 0.950 . S
C2297 C2296 1.349 . S
C2297 C2313 1.349 . S
C2298 C2296 1.327 . S
C2298 C2317 1.429 . S
C2298 H2322 0.950 . S
C2299 C2316 1.574 . S
C2299 C2318 1.368 . S
C2299 H2323 0.949 . S
H2300 C2304 0.949 . S
C2301 C2302 1.349 . S
C2301 C2303 1.327 . S
C2301 H2324 0.950 . S
C2302 C2301 1.349 . S
C2302 C2314 1.349 . S
C2303 C2301 1.327 . S
C2303 C2319 1.429 . S
C2303 H2325 0.950 . S
C2304 H2300 0.949 . S
C2304 C2312 1.574 . S
C2304 C2320 1.368 . S
H2305 C2313 0.950 . S
H2306 C2311 0.950 . S
H2307 C2312 0.949 . S
H2308 C2314 0.950 . S
H2309 C2315 0.950 . S
H2310 C2316 0.949 . S
C2311 H2306 0.950 . S
C2311 C2313 1.327 . S
C2311 C2317 1.429 . S
C2312 C2304 1.574 . S
C2312 H2307 0.949 . S
C2312 C2318 1.368 . S
C2313 C2297 1.349 . S
C2313 H2305 0.950 . S
C2313 C2311 1.327 . S
C2314 C2302 1.349 . S
C2314 H2308 0.950 . S
C2314 C2315 1.327 . S
C2315 H2309 0.950 . S
C2315 C2314 1.327 . S
C2315 C2319 1.429 . S
C2316 C2299 1.574 . S
C2316 H2310 0.949 . S
C2316 C2320 1.368 . S
C2317 C2298 1.429 . S
C2317 C2311 1.429 . S
C2317 C2318 1.523 . S
C2318 C2299 1.368 . S
C2318 C2312 1.368 . S
C2318 C2317 1.523 . S
C2319 C2303 1.429 . S
C2319 C2315 1.429 . S
C2319 C2320 1.523 . S
C2320 C2304 1.368 . S
C2320 C2316 1.368 . S
C2320 C2319 1.523 . S
H2321 C2296 0.950 . S
H2322 C2298 0.950 . S
H2323 C2299 0.949 . S
H2324 C2301 0.950 . S
H2325 C2303 0.950 . S
C2326 C2327 1.349 . S
C2326 C2328 1.327 . S
C2326 H2351 0.950 . S
C2327 C2326 1.349 . S
C2327 C2343 1.349 . S
C2328 C2326 1.327 . S
C2328 C2347 1.429 . S
C2328 H2352 0.950 . S
C2329 C2346 1.574 . S
C2329 C2348 1.368 . S
C2329 H2353 0.949 . S
H2330 C2334 0.949 . S
C2331 C2332 1.349 . S
C2331 C2333 1.327 . S
C2331 H2354 0.950 . S
C2332 C2331 1.349 . S
C2332 C2344 1.349 . S
C2333 C2331 1.327 . S
C2333 C2349 1.429 . S
C2333 H2355 0.950 . S
C2334 H2330 0.949 . S
C2334 C2342 1.574 . S
C2334 C2350 1.368 . S
H2335 C2343 0.950 . S
H2336 C2341 0.950 . S
H2337 C2342 0.949 . S
H2338 C2344 0.950 . S
H2339 C2345 0.950 . S
H2340 C2346 0.949 . S
C2341 H2336 0.950 . S
C2341 C2343 1.327 . S
C2341 C2347 1.429 . S
C2342 C2334 1.574 . S
C2342 H2337 0.949 . S
C2342 C2348 1.368 . S
C2343 C2327 1.349 . S
C2343 H2335 0.950 . S
C2343 C2341 1.327 . S
C2344 C2332 1.349 . S
C2344 H2338 0.950 . S
C2344 C2345 1.327 . S
C2345 H2339 0.950 . S
C2345 C2344 1.327 . S
C2345 C2349 1.429 . S
C2346 C2329 1.574 . S
C2346 H2340 0.949 . S
C2346 C2350 1.368 . S
C2347 C2328 1.429 . S
C2347 C2341 1.429 . S
C2347 C2348 1.523 . S
C2348 C2329 1.368 . S
C2348 C2342 1.368 . S
C2348 C2347 1.523 . S
C2349 C2333 1.429 . S
C2349 C2345 1.429 . S
C2349 C2350 1.523 . S
C2350 C2334 1.368 . S
C2350 C2346 1.368 . S
C2350 C2349 1.523 . S
H2351 C2326 0.950 . S
H2352 C2328 0.950 . S
H2353 C2329 0.949 . S
H2354 C2331 0.950 . S
H2355 C2333 0.950 . S
C2356 C2357 1.349 . S
C2356 C2358 1.327 . S
C2356 H2381 0.950 . S
C2357 C2356 1.349 . S
C2357 C2373 1.349 . S
C2358 C2356 1.327 . S
C2358 C2377 1.429 . S
C2358 H2382 0.950 . S
C2359 C2376 1.574 . S
C2359 C2378 1.368 . S
C2359 H2383 0.949 . S
H2360 C2364 0.949 . S
C2361 C2362 1.349 . S
C2361 C2363 1.327 . S
C2361 H2384 0.950 . S
C2362 C2361 1.349 . S
C2362 C2374 1.349 . S
C2363 C2361 1.327 . S
C2363 C2379 1.429 . S
C2363 H2385 0.950 . S
C2364 H2360 0.949 . S
C2364 C2372 1.574 . S
C2364 C2380 1.368 . S
H2365 C2373 0.950 . S
H2366 C2371 0.950 . S
H2367 C2372 0.949 . S
H2368 C2374 0.950 . S
H2369 C2375 0.950 . S
H2370 C2376 0.949 . S
C2371 H2366 0.950 . S
C2371 C2373 1.327 . S
C2371 C2377 1.429 . S
C2372 C2364 1.574 . S
C2372 H2367 0.949 . S
C2372 C2378 1.368 . S
C2373 C2357 1.349 . S
C2373 H2365 0.950 . S
C2373 C2371 1.327 . S
C2374 C2362 1.349 . S
C2374 H2368 0.950 . S
C2374 C2375 1.327 . S
C2375 H2369 0.950 . S
C2375 C2374 1.327 . S
C2375 C2379 1.429 . S
C2376 C2359 1.574 . S
C2376 H2370 0.949 . S
C2376 C2380 1.368 . S
C2377 C2358 1.429 . S
C2377 C2371 1.429 . S
C2377 C2378 1.523 . S
C2378 C2359 1.368 . S
C2378 C2372 1.368 . S
C2378 C2377 1.523 . S
C2379 C2363 1.429 . S
C2379 C2375 1.429 . S
C2379 C2380 1.523 . S
C2380 C2364 1.368 . S
C2380 C2376 1.368 . S
C2380 C2379 1.523 . S
H2381 C2356 0.950 . S
H2382 C2358 0.950 . S
H2383 C2359 0.949 . S
H2384 C2361 0.950 . S
H2385 C2363 0.950 . S
C2386 C2387 1.349 . S
C2386 C2388 1.327 . S
C2386 H2411 0.950 . S
C2387 C2386 1.349 . S
C2387 C2403 1.349 . S
C2388 C2386 1.327 . S
C2388 C2407 1.429 . S
C2388 H2412 0.950 . S
C2389 C2406 1.574 . S
C2389 C2408 1.368 . S
C2389 H2413 0.949 . S
H2390 C2394 0.949 . S
C2391 C2392 1.349 . S
C2391 C2393 1.327 . S
C2391 H2414 0.950 . S
C2392 C2391 1.349 . S
C2392 C2404 1.349 . S
C2393 C2391 1.327 . S
C2393 C2409 1.429 . S
C2393 H2415 0.950 . S
C2394 H2390 0.949 . S
C2394 C2402 1.574 . S
C2394 C2410 1.368 . S
H2395 C2403 0.950 . S
H2396 C2401 0.950 . S
H2397 C2402 0.949 . S
H2398 C2404 0.950 . S
H2399 C2405 0.950 . S
H2400 C2406 0.949 . S
C2401 H2396 0.950 . S
C2401 C2403 1.327 . S
C2401 C2407 1.429 . S
C2402 C2394 1.574 . S
C2402 H2397 0.949 . S
C2402 C2408 1.368 . S
C2403 C2387 1.349 . S
C2403 H2395 0.950 . S
C2403 C2401 1.327 . S
C2404 C2392 1.349 . S
C2404 H2398 0.950 . S
C2404 C2405 1.327 . S
C2405 H2399 0.950 . S
C2405 C2404 1.327 . S
C2405 C2409 1.429 . S
C2406 C2389 1.574 . S
C2406 H2400 0.949 . S
C2406 C2410 1.368 . S
C2407 C2388 1.429 . S
C2407 C2401 1.429 . S
C2407 C2408 1.523 . S
C2408 C2389 1.368 . S
C2408 C2402 1.368 . S
C2408 C2407 1.523 . S
C2409 C2393 1.429 . S
C2409 C2405 1.429 . S
C2409 C2410 1.523 . S
C2410 C2394 1.368 . S
C2410 C2406 1.368 . S
C2410 C2409 1.523 . S
H2411 C2386 0.950 . S
H2412 C2388 0.950 . S
H2413 C2389 0.949 . S
H2414 C2391 0.950 . S
H2415 C2393 0.950 . S
C2416 C2417 1.349 . S
C2416 C2418 1.327 . S
C2416 H2441 0.950 . S
C2417 C2416 1.349 . S
C2417 C2433 1.349 . S
C2418 C2416 1.327 . S
C2418 C2437 1.429 . S
C2418 H2442 0.950 . S
C2419 C2436 1.574 . S
C2419 C2438 1.368 . S
C2419 H2443 0.949 . S
H2420 C2424 0.949 . S
C2421 C2422 1.349 . S
C2421 C2423 1.327 . S
C2421 H2444 0.950 . S
C2422 C2421 1.349 . S
C2422 C2434 1.349 . S
C2423 C2421 1.327 . S
C2423 C2439 1.429 . S
C2423 H2445 0.950 . S
C2424 H2420 0.949 . S
C2424 C2432 1.574 . S
C2424 C2440 1.368 . S
H2425 C2433 0.950 . S
H2426 C2431 0.950 . S
H2427 C2432 0.949 . S
H2428 C2434 0.950 . S
H2429 C2435 0.950 . S
H2430 C2436 0.949 . S
C2431 H2426 0.950 . S
C2431 C2433 1.327 . S
C2431 C2437 1.429 . S
C2432 C2424 1.574 . S
C2432 H2427 0.949 . S
C2432 C2438 1.368 . S
C2433 C2417 1.349 . S
C2433 H2425 0.950 . S
C2433 C2431 1.327 . S
C2434 C2422 1.349 . S
C2434 H2428 0.950 . S
C2434 C2435 1.327 . S
C2435 H2429 0.950 . S
C2435 C2434 1.327 . S
C2435 C2439 1.429 . S
C2436 C2419 1.574 . S
C2436 H2430 0.949 . S
C2436 C2440 1.368 . S
C2437 C2418 1.429 . S
C2437 C2431 1.429 . S
C2437 C2438 1.523 . S
C2438 C2419 1.368 . S
C2438 C2432 1.368 . S
C2438 C2437 1.523 . S
C2439 C2423 1.429 . S
C2439 C2435 1.429 . S
C2439 C2440 1.523 . S
C2440 C2424 1.368 . S
C2440 C2436 1.368 . S
C2440 C2439 1.523 . S
H2441 C2416 0.950 . S
H2442 C2418 0.950 . S
H2443 C2419 0.949 . S
H2444 C2421 0.950 . S
H2445 C2423 0.950 . S
C2446 C2447 1.349 . S
C2446 C2448 1.327 . S
C2446 H2471 0.950 . S
C2447 C2446 1.349 . S
C2447 C2463 1.349 . S
C2448 C2446 1.327 . S
C2448 C2467 1.429 . S
C2448 H2472 0.950 . S
C2449 C2466 1.574 . S
C2449 C2468 1.368 . S
C2449 H2473 0.949 . S
H2450 C2454 0.949 . S
C2451 C2452 1.349 . S
C2451 C2453 1.327 . S
C2451 H2474 0.950 . S
C2452 C2451 1.349 . S
C2452 C2464 1.349 . S
C2453 C2451 1.327 . S
C2453 C2469 1.429 . S
C2453 H2475 0.950 . S
C2454 H2450 0.949 . S
C2454 C2462 1.574 . S
C2454 C2470 1.368 . S
H2455 C2463 0.950 . S
H2456 C2461 0.950 . S
H2457 C2462 0.949 . S
H2458 C2464 0.950 . S
H2459 C2465 0.950 . S
H2460 C2466 0.949 . S
C2461 H2456 0.950 . S
C2461 C2463 1.327 . S
C2461 C2467 1.429 . S
C2462 C2454 1.574 . S
C2462 H2457 0.949 . S
C2462 C2468 1.368 . S
C2463 C2447 1.349 . S
C2463 H2455 0.950 . S
C2463 C2461 1.327 . S
C2464 C2452 1.349 . S
C2464 H2458 0.950 . S
C2464 C2465 1.327 . S
C2465 H2459 0.950 . S
C2465 C2464 1.327 . S
C2465 C2469 1.429 . S
C2466 C2449 1.574 . S
C2466 H2460 0.949 . S
C2466 C2470 1.368 . S
C2467 C2448 1.429 . S
C2467 C2461 1.429 . S
C2467 C2468 1.523 . S
C2468 C2449 1.368 . S
C2468 C2462 1.368 . S
C2468 C2467 1.523 . S
C2469 C2453 1.429 . S
C2469 C2465 1.429 . S
C2469 C2470 1.523 . S
C2470 C2454 1.368 . S
C2470 C2466 1.368 . S
C2470 C2469 1.523 . S
H2471 C2446 0.950 . S
H2472 C2448 0.950 . S
H2473 C2449 0.949 . S
H2474 C2451 0.950 . S
H2475 C2453 0.950 . S
C2476 C2477 1.349 . S
C2476 C2478 1.327 . S
C2476 H2501 0.950 . S
C2477 C2476 1.349 . S
C2477 C2493 1.349 . S
C2478 C2476 1.327 . S
C2478 C2497 1.429 . S
C2478 H2502 0.950 . S
C2479 C2496 1.574 . S
C2479 C2498 1.368 . S
C2479 H2503 0.949 . S
H2480 C2484 0.949 . S
C2481 C2482 1.349 . S
C2481 C2483 1.327 . S
C2481 H2504 0.950 . S
C2482 C2481 1.349 . S
C2482 C2494 1.349 . S
C2483 C2481 1.327 . S
C2483 C2499 1.429 . S
C2483 H2505 0.950 . S
C2484 H2480 0.949 . S
C2484 C2492 1.574 . S
C2484 C2500 1.368 . S
H2485 C2493 0.950 . S
H2486 C2491 0.950 . S
H2487 C2492 0.949 . S
H2488 C2494 0.950 . S
H2489 C2495 0.950 . S
H2490 C2496 0.949 . S
C2491 H2486 0.950 . S
C2491 C2493 1.327 . S
C2491 C2497 1.429 . S
C2492 C2484 1.574 . S
C2492 H2487 0.949 . S
C2492 C2498 1.368 . S
C2493 C2477 1.349 . S
C2493 H2485 0.950 . S
C2493 C2491 1.327 . S
C2494 C2482 1.349 . S
C2494 H2488 0.950 . S
C2494 C2495 1.327 . S
C2495 H2489 0.950 . S
C2495 C2494 1.327 . S
C2495 C2499 1.429 . S
C2496 C2479 1.574 . S
C2496 H2490 0.949 . S
C2496 C2500 1.368 . S
C2497 C2478 1.429 . S
C2497 C2491 1.429 . S
C2497 C2498 1.523 . S
C2498 C2479 1.368 . S
C2498 C2492 1.368 . S
C2498 C2497 1.523 . S
C2499 C2483 1.429 . S
C2499 C2495 1.429 . S
C2499 C2500 1.523 . S
C2500 C2484 1.368 . S
C2500 C2496 1.368 . S
C2500 C2499 1.523 . S
H2501 C2476 0.950 . S
H2502 C2478 0.950 . S
H2503 C2479 0.949 . S
H2504 C2481 0.950 . S
H2505 C2483 0.950 . S
C2506 C2507 1.349 . S
C2506 C2508 1.327 . S
C2506 H2531 0.950 . S
C2507 C2506 1.349 . S
C2507 C2523 1.349 . S
C2508 C2506 1.327 . S
C2508 C2527 1.429 . S
C2508 H2532 0.950 . S
C2509 C2526 1.574 . S
C2509 C2528 1.368 . S
C2509 H2533 0.949 . S
H2510 C2514 0.949 . S
C2511 C2512 1.349 . S
C2511 C2513 1.327 . S
C2511 H2534 0.950 . S
C2512 C2511 1.349 . S
C2512 C2524 1.349 . S
C2513 C2511 1.327 . S
C2513 C2529 1.429 . S
C2513 H2535 0.950 . S
C2514 H2510 0.949 . S
C2514 C2522 1.574 . S
C2514 C2530 1.368 . S
H2515 C2523 0.950 . S
H2516 C2521 0.950 . S
H2517 C2522 0.949 . S
H2518 C2524 0.950 . S
H2519 C2525 0.950 . S
H2520 C2526 0.949 . S
C2521 H2516 0.950 . S
C2521 C2523 1.327 . S
C2521 C2527 1.429 . S
C2522 C2514 1.574 . S
C2522 H2517 0.949 . S
C2522 C2528 1.368 . S
C2523 C2507 1.349 . S
C2523 H2515 0.950 . S
C2523 C2521 1.327 . S
C2524 C2512 1.349 . S
C2524 H2518 0.950 . S
C2524 C2525 1.327 . S
C2525 H2519 0.950 . S
C2525 C2524 1.327 . S
C2525 C2529 1.429 . S
C2526 C2509 1.574 . S
C2526 H2520 0.949 . S
C2526 C2530 1.368 . S
C2527 C2508 1.429 . S
C2527 C2521 1.429 . S
C2527 C2528 1.523 . S
C2528 C2509 1.368 . S
C2528 C2522 1.368 . S
C2528 C2527 1.523 . S
C2529 C2513 1.429 . S
C2529 C2525 1.429 . S
C2529 C2530 1.523 . S
C2530 C2514 1.368 . S
C2530 C2526 1.368 . S
C2530 C2529 1.523 . S
H2531 C2506 0.950 . S
H2532 C2508 0.950 . S
H2533 C2509 0.949 . S
H2534 C2511 0.950 . S
H2535 C2513 0.950 . S
C2536 C2537 1.349 . S
C2536 C2538 1.327 . S
C2536 H2561 0.950 . S
C2537 C2536 1.349 . S
C2537 C2553 1.349 . S
C2538 C2536 1.327 . S
C2538 C2557 1.429 . S
C2538 H2562 0.950 . S
C2539 C2556 1.574 . S
C2539 C2558 1.368 . S
C2539 H2563 0.949 . S
H2540 C2544 0.949 . S
C2541 C2542 1.349 . S
C2541 C2543 1.327 . S
C2541 H2564 0.950 . S
C2542 C2541 1.349 . S
C2542 C2554 1.349 . S
C2543 C2541 1.327 . S
C2543 C2559 1.429 . S
C2543 H2565 0.950 . S
C2544 H2540 0.949 . S
C2544 C2552 1.574 . S
C2544 C2560 1.368 . S
H2545 C2553 0.950 . S
H2546 C2551 0.950 . S
H2547 C2552 0.949 . S
H2548 C2554 0.950 . S
H2549 C2555 0.950 . S
H2550 C2556 0.949 . S
C2551 H2546 0.950 . S
C2551 C2553 1.327 . S
C2551 C2557 1.429 . S
C2552 C2544 1.574 . S
C2552 H2547 0.949 . S
C2552 C2558 1.368 . S
C2553 C2537 1.349 . S
C2553 H2545 0.950 . S
C2553 C2551 1.327 . S
C2554 C2542 1.349 . S
C2554 H2548 0.950 . S
C2554 C2555 1.327 . S
C2555 H2549 0.950 . S
C2555 C2554 1.327 . S
C2555 C2559 1.429 . S
C2556 C2539 1.574 . S
C2556 H2550 0.949 . S
C2556 C2560 1.368 . S
C2557 C2538 1.429 . S
C2557 C2551 1.429 . S
C2557 C2558 1.523 . S
C2558 C2539 1.368 . S
C2558 C2552 1.368 . S
C2558 C2557 1.523 . S
C2559 C2543 1.429 . S
C2559 C2555 1.429 . S
C2559 C2560 1.523 . S
C2560 C2544 1.368 . S
C2560 C2556 1.368 . S
C2560 C2559 1.523 . S
H2561 C2536 0.950 . S
H2562 C2538 0.950 . S
H2563 C2539 0.949 . S
H2564 C2541 0.950 . S
H2565 C2543 0.950 . S
C2566 C2567 1.349 . S
C2566 C2568 1.327 . S
C2566 H2591 0.950 . S
C2567 C2566 1.349 . S
C2567 C2583 1.349 . S
C2568 C2566 1.327 . S
C2568 C2587 1.429 . S
C2568 H2592 0.950 . S
C2569 C2586 1.574 . S
C2569 C2588 1.368 . S
C2569 H2593 0.949 . S
H2570 C2574 0.949 . S
C2571 C2572 1.349 . S
C2571 C2573 1.327 . S
C2571 H2594 0.950 . S
C2572 C2571 1.349 . S
C2572 C2584 1.349 . S
C2573 C2571 1.327 . S
C2573 C2589 1.429 . S
C2573 H2595 0.950 . S
C2574 H2570 0.949 . S
C2574 C2582 1.574 . S
C2574 C2590 1.368 . S
H2575 C2583 0.950 . S
H2576 C2581 0.950 . S
H2577 C2582 0.949 . S
H2578 C2584 0.950 . S
H2579 C2585 0.950 . S
H2580 C2586 0.949 . S
C2581 H2576 0.950 . S
C2581 C2583 1.327 . S
C2581 C2587 1.429 . S
C2582 C2574 1.574 . S
C2582 H2577 0.949 . S
C2582 C2588 1.368 . S
C2583 C2567 1.349 . S
C2583 H2575 0.950 . S
C2583 C2581 1.327 . S
C2584 C2572 1.349 . S
C2584 H2578 0.950 . S
C2584 C2585 1.327 . S
C2585 H2579 0.950 . S
C2585 C2584 1.327 . S
C2585 C2589 1.429 . S
C2586 C2569 1.574 . S
C2586 H2580 0.949 . S
C2586 C2590 1.368 . S
C2587 C2568 1.429 . S
C2587 C2581 1.429 . S
C2587 C2588 1.523 . S
C2588 C2569 1.368 . S
C2588 C2582 1.368 . S
C2588 C2587 1.523 . S
C2589 C2573 1.429 . S
C2589 C2585 1.429 . S
C2589 C2590 1.523 . S
C2590 C2574 1.368 . S
C2590 C2586 1.368 . S
C2590 C2589 1.523 . S
H2591 C2566 0.950 . S
H2592 C2568 0.950 . S
H2593 C2569 0.949 . S
H2594 C2571 0.950 . S
H2595 C2573 0.950 . S
C2596 C2597 1.349 . S
C2596 C2598 1.327 . S
C2596 H2621 0.950 . S
C2597 C2596 1.349 . S
C2597 C2613 1.349 . S
C2598 C2596 1.327 . S
C2598 C2617 1.429 . S
C2598 H2622 0.950 . S
C2599 C2616 1.574 . S
C2599 C2618 1.368 . S
C2599 H2623 0.949 . S
H2600 C2604 0.949 . S
C2601 C2602 1.349 . S
C2601 C2603 1.327 . S
C2601 H2624 0.950 . S
C2602 C2601 1.349 . S
C2602 C2614 1.349 . S
C2603 C2601 1.327 . S
C2603 C2619 1.429 . S
C2603 H2625 0.950 . S
C2604 H2600 0.949 . S
C2604 C2612 1.574 . S
C2604 C2620 1.368 . S
H2605 C2613 0.950 . S
H2606 C2611 0.950 . S
H2607 C2612 0.949 . S
H2608 C2614 0.950 . S
H2609 C2615 0.950 . S
H2610 C2616 0.949 . S
C2611 H2606 0.950 . S
C2611 C2613 1.327 . S
C2611 C2617 1.429 . S
C2612 C2604 1.574 . S
C2612 H2607 0.949 . S
C2612 C2618 1.368 . S
C2613 C2597 1.349 . S
C2613 H2605 0.950 . S
C2613 C2611 1.327 . S
C2614 C2602 1.349 . S
C2614 H2608 0.950 . S
C2614 C2615 1.327 . S
C2615 H2609 0.950 . S
C2615 C2614 1.327 . S
C2615 C2619 1.429 . S
C2616 C2599 1.574 . S
C2616 H2610 0.949 . S
C2616 C2620 1.368 . S
C2617 C2598 1.429 . S
C2617 C2611 1.429 . S
C2617 C2618 1.523 . S
C2618 C2599 1.368 . S
C2618 C2612 1.368 . S
C2618 C2617 1.523 . S
C2619 C2603 1.429 . S
C2619 C2615 1.429 . S
C2619 C2620 1.523 . S
C2620 C2604 1.368 . S
C2620 C2616 1.368 . S
C2620 C2619 1.523 . S
H2621 C2596 0.950 . S
H2622 C2598 0.950 . S
H2623 C2599 0.949 . S
H2624 C2601 0.950 . S
H2625 C2603 0.950 . S
C2626 C2627 1.349 . S
C2626 C2628 1.327 . S
C2626 H2651 0.950 . S
C2627 C2626 1.349 . S
C2627 C2643 1.349 . S
C2628 C2626 1.327 . S
C2628 C2647 1.429 . S
C2628 H2652 0.950 . S
C2629 C2646 1.574 . S
C2629 C2648 1.368 . S
C2629 H2653 0.949 . S
H2630 C2634 0.949 . S
C2631 C2632 1.349 . S
C2631 C2633 1.327 . S
C2631 H2654 0.950 . S
C2632 C2631 1.349 . S
C2632 C2644 1.349 . S
C2633 C2631 1.327 . S
C2633 C2649 1.429 . S
C2633 H2655 0.950 . S
C2634 H2630 0.949 . S
C2634 C2642 1.574 . S
C2634 C2650 1.368 . S
H2635 C2643 0.950 . S
H2636 C2641 0.950 . S
H2637 C2642 0.949 . S
H2638 C2644 0.950 . S
H2639 C2645 0.950 . S
H2640 C2646 0.949 . S
C2641 H2636 0.950 . S
C2641 C2643 1.327 . S
C2641 C2647 1.429 . S
C2642 C2634 1.574 . S
C2642 H2637 0.949 . S
C2642 C2648 1.368 . S
C2643 C2627 1.349 . S
C2643 H2635 0.950 . S
C2643 C2641 1.327 . S
C2644 C2632 1.349 . S
C2644 H2638 0.950 . S
C2644 C2645 1.327 . S
C2645 H2639 0.950 . S
C2645 C2644 1.327 . S
C2645 C2649 1.429 . S
C2646 C2629 1.574 . S
C2646 H2640 0.949 . S
C2646 C2650 1.368 . S
C2647 C2628 1.429 . S
C2647 C2641 1.429 . S
C2647 C2648 1.523 . S
C2648 C2629 1.368 . S
C2648 C2642 1.368 . S
C2648 C2647 1.523 . S
C2649 C2633 1.429 . S
C2649 C2645 1.429 . S
C2649 C2650 1.523 . S
C2650 C2634 1.368 . S
C2650 C2646 1.368 . S
C2650 C2649 1.523 . S
H2651 C2626 0.950 . S
H2652 C2628 0.950 . S
H2653 C2629 0.949 . S
H2654 C2631 0.950 . S
H2655 C2633 0.950 . S
C737 C16 1.600 . S
C742 C62 1.600 . S
C767 C85 1.594 . S
C772 C39 1.594 . S
C797 C154 1.600 . S
C802 C108 1.600 . S
C827 C177 1.594 . S
C832 C131 1.594 . S
C857 C200 1.600 . S
C862 C246 1.600 . S
C887 C269 1.594 . S
C892 C223 1.594 . S
C917 C292 1.600 . S
C922 C338 1.600 . S
C947 C361 1.594 . S
C952 C315 1.594 . S
C977 C384 1.591 . S
C982 C430 1.591 . S
C1007 C407 1.596 . S
C1012 C453 1.596 . S
C1037 C522 1.591 . S
C1042 C476 1.591 . S
C1067 C499 1.596 . S
C1072 C545 1.596 . S
C1097 C614 1.591 . S
C1102 C568 1.591 . S
C1127 C637 1.596 . S
C1132 C591 1.596 . S
C1157 C706 1.592 . S
C1162 C660 1.592 . S
C1187 C683 1.596 . S
C1192 C729 1.596 . S
C1217 N587 1.914 . S
C1222 N12 1.914 . S
C1247 N35 1.911 . S
C1252 N564 1.905 . S
C1277 N58 1.914 . S
C1282 N633 1.914 . S
C1307 N81 1.911 . S
C1312 N610 1.905 . S
C1337 N679 1.914 . S
C1342 N104 1.914 . S
C1367 N127 1.911 . S
C1372 N656 1.905 . S
C1397 N150 1.914 . S
C1402 N725 1.914 . S
C1427 N702 1.911 . S
C1432 N173 1.905 . S
C1457 N196 1.914 . S
C1462 N403 1.914 . S
C1487 N219 1.911 . S
C1492 N380 1.905 . S
C1517 N242 1.914 . S
C1522 N449 1.914 . S
C1547 N265 1.911 . S
C1552 N426 1.905 . S
C1577 N288 1.914 . S
C1582 N495 1.914 . S
C1607 N472 1.911 . S
C1612 N311 1.905 . S
C1637 N541 1.914 . S
C1642 N334 1.914 . S
C1667 N357 1.911 . S
C1672 N518 1.905 . S
C1697 C7 1.628 . S
C1702 C99 1.628 . S
C1727 C30 1.623 . S
C1732 C674 1.623 . S
C1757 C53 1.628 . S
C1762 C329 1.628 . S
C1787 C76 1.623 . S
C1792 C536 1.623 . S
C1817 C122 1.623 . S
C1822 C582 1.623 . S
C1847 C237 1.628 . S
C1852 C145 1.628 . S
C1877 C444 1.623 . S
C1882 C168 1.623 . S
C1907 C283 1.628 . S
C1912 C191 1.628 . S
C1937 C214 1.623 . S
C1942 C490 1.623 . S
C1967 C720 1.623 . S
C1972 C260 1.623 . S
C1997 C306 1.623 . S
C2002 C398 1.623 . S
C2027 C352 1.623 . S
C2032 C628 1.623 . S
C2057 C467 1.621 . S
C2062 C375 1.621 . S
C2087 C421 1.621 . S
C2092 C697 1.621 . S
C2117 C605 1.621 . S
C2122 C513 1.621 . S
C2147 C651 1.621 . S
C2152 C559 1.621 . S
C2177 N2 1.007 . S
C2182 N25 1.007 . S
C2207 N48 1.007 . S
C2212 N71 1.007 . S
C2237 N94 1.007 . S
C2242 N117 1.007 . S
C2267 N140 1.007 . S
C2272 N163 1.007 . S
C2297 N209 1.007 . S
C2302 N186 1.007 . S
C2327 N232 1.007 . S
C2332 N255 1.007 . S
C2357 N278 1.007 . S
C2362 N301 1.007 . S
C2387 N324 1.007 . S
C2392 N347 1.007 . S
C2417 N370 1.011 . S
C2422 N393 1.016 . S
C2447 N439 1.011 . S
C2452 N416 1.016 . S
C2477 N462 1.011 . S
C2482 N485 1.016 . S
C2507 N508 1.011 . S
C2512 N531 1.016 . S
C2537 N577 1.011 . S
C2542 N554 1.016 . S
C2567 N600 1.011 . S
C2572 N623 1.016 . S
C2597 N669 1.011 . S
C2602 N646 1.016 . S
C2627 N692 1.011 . S
C2632 N715 1.016 . S
