# Generated by pormake.
# Topology wmc, (6)-cn, num edge types: 1
# Building blocks:
#     Node 0, Type 0, BuildingBlock: VOLQOD_clean_sbu_1, # of connection points: 6
#     Node 1, Type 0, BuildingBlock: VOLQOD_clean_sbu_1, # of connection points: 6
#     Node 2, Type 0, BuildingBlock: VOLQOD_clean_sbu_1, # of connection points: 6
#     Node 3, Type 0, BuildingBlock: VOLQOD_clean_sbu_1, # of connection points: 6
#     Node 4, Type 0, BuildingBlock: VOLQOD_clean_sbu_1, # of connection points: 6
#     Node 5, Type 0, BuildingBlock: VOLQOD_clean_sbu_1, # of connection points: 6
#     Node 6, Type 0, BuildingBlock: VOLQOD_clean_sbu_1, # of connection points: 6
#     Node 7, Type 0, BuildingBlock: VOLQOD_clean_sbu_1, # of connection points: 6
#     Node 8, Type 0, BuildingBlock: VOLQOD_clean_sbu_1, # of connection points: 6
#     Node 9, Type 0, BuildingBlock: VOLQOD_clean_sbu_1, # of connection points: 6
#     Node 10, Type 0, BuildingBlock: VOLQOD_clean_sbu_1, # of connection points: 6
#     Node 11, Type 0, BuildingBlock: VOLQOD_clean_sbu_1, # of connection points: 6
#     Node 12, Type 0, BuildingBlock: VOLQOD_clean_sbu_1, # of connection points: 6
#     Node 13, Type 0, BuildingBlock: VOLQOD_clean_sbu_1, # of connection points: 6
#     Node 14, Type 0, BuildingBlock: VOLQOD_clean_sbu_1, # of connection points: 6
#     Node 15, Type 0, BuildingBlock: VOLQOD_clean_sbu_1, # of connection points: 6
#     Node 16, Type 0, BuildingBlock: VOLQOD_clean_sbu_1, # of connection points: 6
#     Node 17, Type 0, BuildingBlock: VOLQOD_clean_sbu_1, # of connection points: 6
#     Edge 18, Type (0, 0), BuildingBlock: XUDNAN_clean_linker_2, # of connection points: 2
#     Edge 19, Type (0, 0), BuildingBlock: XUDNAN_clean_linker_2, # of connection points: 2
#     Edge 20, Type (0, 0), BuildingBlock: XUDNAN_clean_linker_2, # of connection points: 2
#     Edge 21, Type (0, 0), BuildingBlock: XUDNAN_clean_linker_2, # of connection points: 2
#     Edge 22, Type (0, 0), BuildingBlock: XUDNAN_clean_linker_2, # of connection points: 2
#     Edge 23, Type (0, 0), BuildingBlock: XUDNAN_clean_linker_2, # of connection points: 2
#     Edge 24, Type (0, 0), BuildingBlock: XUDNAN_clean_linker_2, # of connection points: 2
#     Edge 25, Type (0, 0), BuildingBlock: XUDNAN_clean_linker_2, # of connection points: 2
#     Edge 26, Type (0, 0), BuildingBlock: XUDNAN_clean_linker_2, # of connection points: 2
#     Edge 27, Type (0, 0), BuildingBlock: XUDNAN_clean_linker_2, # of connection points: 2
#     Edge 28, Type (0, 0), BuildingBlock: XUDNAN_clean_linker_2, # of connection points: 2
#     Edge 29, Type (0, 0), BuildingBlock: XUDNAN_clean_linker_2, # of connection points: 2
#     Edge 30, Type (0, 0), BuildingBlock: XUDNAN_clean_linker_2, # of connection points: 2
#     Edge 31, Type (0, 0), BuildingBlock: XUDNAN_clean_linker_2, # of connection points: 2
#     Edge 32, Type (0, 0), BuildingBlock: XUDNAN_clean_linker_2, # of connection points: 2
#     Edge 33, Type (0, 0), BuildingBlock: XUDNAN_clean_linker_2, # of connection points: 2
#     Edge 34, Type (0, 0), BuildingBlock: XUDNAN_clean_linker_2, # of connection points: 2
#     Edge 35, Type (0, 0), BuildingBlock: XUDNAN_clean_linker_2, # of connection points: 2
#     Edge 36, Type (0, 0), BuildingBlock: XUDNAN_clean_linker_2, # of connection points: 2
#     Edge 37, Type (0, 0), BuildingBlock: XUDNAN_clean_linker_2, # of connection points: 2
#     Edge 38, Type (0, 0), BuildingBlock: XUDNAN_clean_linker_2, # of connection points: 2
#     Edge 39, Type (0, 0), BuildingBlock: XUDNAN_clean_linker_2, # of connection points: 2
#     Edge 40, Type (0, 0), BuildingBlock: XUDNAN_clean_linker_2, # of connection points: 2
#     Edge 41, Type (0, 0), BuildingBlock: XUDNAN_clean_linker_2, # of connection points: 2
#     Edge 42, Type (0, 0), BuildingBlock: XUDNAN_clean_linker_2, # of connection points: 2
#     Edge 43, Type (0, 0), BuildingBlock: XUDNAN_clean_linker_2, # of connection points: 2
#     Edge 44, Type (0, 0), BuildingBlock: XUDNAN_clean_linker_2, # of connection points: 2
#     Edge 45, Type (0, 0), BuildingBlock: XUDNAN_clean_linker_2, # of connection points: 2
#     Edge 46, Type (0, 0), BuildingBlock: XUDNAN_clean_linker_2, # of connection points: 2
#     Edge 47, Type (0, 0), BuildingBlock: XUDNAN_clean_linker_2, # of connection points: 2
#     Edge 48, Type (0, 0), BuildingBlock: XUDNAN_clean_linker_2, # of connection points: 2
#     Edge 49, Type (0, 0), BuildingBlock: XUDNAN_clean_linker_2, # of connection points: 2
#     Edge 50, Type (0, 0), BuildingBlock: XUDNAN_clean_linker_2, # of connection points: 2
#     Edge 51, Type (0, 0), BuildingBlock: XUDNAN_clean_linker_2, # of connection points: 2
#     Edge 52, Type (0, 0), BuildingBlock: XUDNAN_clean_linker_2, # of connection points: 2
#     Edge 53, Type (0, 0), BuildingBlock: XUDNAN_clean_linker_2, # of connection points: 2
#     Edge 54, Type (0, 0), BuildingBlock: XUDNAN_clean_linker_2, # of connection points: 2
#     Edge 55, Type (0, 0), BuildingBlock: XUDNAN_clean_linker_2, # of connection points: 2
#     Edge 56, Type (0, 0), BuildingBlock: XUDNAN_clean_linker_2, # of connection points: 2
#     Edge 57, Type (0, 0), BuildingBlock: XUDNAN_clean_linker_2, # of connection points: 2
#     Edge 58, Type (0, 0), BuildingBlock: XUDNAN_clean_linker_2, # of connection points: 2
#     Edge 59, Type (0, 0), BuildingBlock: XUDNAN_clean_linker_2, # of connection points: 2
#     Edge 60, Type (0, 0), BuildingBlock: XUDNAN_clean_linker_2, # of connection points: 2
#     Edge 61, Type (0, 0), BuildingBlock: XUDNAN_clean_linker_2, # of connection points: 2
#     Edge 62, Type (0, 0), BuildingBlock: XUDNAN_clean_linker_2, # of connection points: 2
#     Edge 63, Type (0, 0), BuildingBlock: XUDNAN_clean_linker_2, # of connection points: 2
#     Edge 64, Type (0, 0), BuildingBlock: XUDNAN_clean_linker_2, # of connection points: 2
#     Edge 65, Type (0, 0), BuildingBlock: XUDNAN_clean_linker_2, # of connection points: 2
#     Edge 66, Type (0, 0), BuildingBlock: XUDNAN_clean_linker_2, # of connection points: 2
#     Edge 67, Type (0, 0), BuildingBlock: XUDNAN_clean_linker_2, # of connection points: 2
#     Edge 68, Type (0, 0), BuildingBlock: XUDNAN_clean_linker_2, # of connection points: 2
#     Edge 69, Type (0, 0), BuildingBlock: XUDNAN_clean_linker_2, # of connection points: 2
#     Edge 70, Type (0, 0), BuildingBlock: XUDNAN_clean_linker_2, # of connection points: 2
#     Edge 71, Type (0, 0), BuildingBlock: XUDNAN_clean_linker_2, # of connection points: 2
# Relax obj value: 0.292
# Max RMSD: 0.168
# Mean RMSD: 0.168
data_MOF--net-wmc--node1-VOLQOD_clean_sbu_1--edge1-XUDNAN_clean_linker_2
_symmetry_space_group_name_H-M    P1
_symmetry_Int_Tables_number       1
_symmetry_cell_setting            triclinic
loop_
_symmetry_equiv_pos_as_xyz
'x, y, z'
_cell_length_a     49.53483
_cell_length_b     49.660863
_cell_length_c     31.230631
_cell_angle_alpha  89.960875
_cell_angle_beta   89.913193
_cell_angle_gamma 119.97273
loop_
_atom_site_label
_atom_site_type_symbol
_atom_site_fract_x
_atom_site_fract_y
_atom_site_fract_z
_atom_type_partial_charge
O0 O 0.67652 0.17143 0.95117 0.0
Zn1 Zn 0.64699 0.12536 0.95948 0.0
O2 O 0.61176 0.11904 -0.007 0.0
Zn3 Zn 0.57571 0.10778 0.95947 0.0
Zn4 Zn 0.62311 0.15712 0.0207 0.0
Zn5 Zn 0.59939 0.08486 0.03234 0.0
O6 O 0.53811 0.07312 0.98771 0.0
O7 O 0.56019 0.04561 0.00582 0.0
O8 O 0.63222 0.10354 0.9025 0.0
O9 O 0.58247 0.09204 0.90441 0.0
O10 O 0.56752 0.14321 0.94869 0.0
O11 O 0.60091 0.17721 -0.00505 0.0
O12 O 0.60881 0.14852 0.08075 0.0
O13 O 0.6719 0.11141 -0.00566 0.0
O14 O 0.58592 0.09687 0.0867 0.0
O15 O 0.63995 0.08444 0.0479 0.0
C16 C 0.68444 0.19271 0.97928 0.0
C17 C 0.53592 0.04687 -0.00574 0.0
C18 C 0.57979 0.16962 0.9669 0.0
C19 C 0.60503 0.09117 0.88615 0.0
C20 C 0.59266 0.12342 0.10161 0.0
C21 C 0.66688 0.09708 0.02993 0.0
O22 O 0.66829 0.18816 0.01313 0.0
O23 O 0.84402 0.50587 0.96559 0.0
Zn24 Zn 0.89069 0.52268 0.96849 0.0
O25 O 0.89929 0.49474 0.00049 0.0
Zn26 Zn 0.90906 0.46993 0.96506 0.0
Zn27 Zn 0.86309 0.46904 0.03322 0.0
Zn28 Zn 0.93541 0.51735 0.03551 0.0
O29 O 0.94649 0.46858 0.98609 0.0
O30 O 0.97356 0.51835 0.00413 0.0
O31 O 0.9104 0.52976 0.90947 0.0
O32 O 0.92153 0.49134 0.90911 0.0
O33 O 0.87306 0.42651 0.95852 0.0
O34 O 0.84076 0.42593 0.00829 0.0
O35 O 0.87564 0.46498 0.09249 0.0
O36 O 0.90581 0.56174 0.00343 0.0
O37 O 0.92758 0.49149 0.08873 0.0
O38 O 0.93528 0.55768 0.05401 0.0
C39 C 0.82637 0.49609 -0.0015 0.0
C40 C 0.97258 0.49323 0.99134 0.0
C41 C 0.84741 0.41236 0.97895 0.0
C42 C 0.92186 0.5146 0.8915 0.0
C43 C 0.90233 0.47304 0.10823 0.0
C44 C 0.92143 0.57141 0.03801 0.0
O45 O 0.83355 0.48561 0.03122 0.0
O46 O 0.50807 0.33984 0.95178 0.0
Zn47 Zn 0.49403 0.37117 0.96111 0.0
O48 O 0.52626 0.40717 0.98845 0.0
Zn49 Zn 0.55144 0.43602 0.94539 0.0
Zn50 Zn 0.55036 0.39474 0.02184 0.0
Zn51 Zn 0.50849 0.42423 0.02695 0.0
O52 O 0.54737 0.4738 0.95076 0.0
O53 O 0.51144 0.46435 0.00077 0.0
O54 O 0.48404 0.3833 0.90441 0.0
O55 O 0.53317 0.41892 0.88835 0.0
O56 O 0.59754 0.4496 0.95056 0.0
O57 O 0.59513 0.42374 0.00988 0.0
O58 O 0.54671 0.40061 0.08455 0.0
O59 O 0.45821 0.35084 0.00163 0.0
O60 O 0.53747 0.43972 0.07653 0.0
O61 O 0.46713 0.38693 0.05059 0.0
C62 C 0.52602 0.33428 0.97468 0.0
C63 C 0.53049 0.48188 0.97161 0.0
C64 C 0.61076 0.44334 0.98084 0.0
C65 C 0.50475 0.40137 0.87784 0.0
C66 C 0.54824 0.4255 0.09816 0.0
C67 C 0.45116 0.35891 0.03672 0.0
O68 O 0.54165 0.35215 0.00542 0.0
O69 O 0.83586 0.33838 0.49668 0.0
Zn70 Zn 0.88123 0.36743 0.48115 0.0
O71 O 0.89874 0.40626 0.5117 0.0
Zn72 Zn 0.89912 0.43727 0.47424 0.0
Zn73 Zn 0.87095 0.39822 0.55892 0.0
Zn74 Zn 0.94031 0.41911 0.53388 0.0
O75 O 0.94254 0.47385 0.47066 0.0
O76 O 0.97349 0.4586 0.50111 0.0
O77 O 0.88585 0.37452 0.41743 0.0
O78 O 0.88821 0.42049 0.41502 0.0
O79 O 0.86934 0.45153 0.4936 0.0
O80 O 0.84971 0.42273 0.55207 0.0
O81 O 0.89377 0.41449 0.61305 0.0
O82 O 0.90275 0.34526 0.50125 0.0
O83 O 0.94335 0.43606 0.59349 0.0
O84 O 0.94418 0.37911 0.53906 0.0
C85 C 0.82371 0.33407 0.53388 0.0
C86 C 0.96961 0.47876 0.4803 0.0
C87 C 0.85133 0.44313 0.52604 0.0
C88 C 0.88591 0.39659 0.39658 0.0
C89 C 0.92259 0.43159 0.62108 0.0
C90 C 0.92622 0.35162 0.5245 0.0
O91 O 0.83734 0.35373 0.56368 0.0
O92 O 0.67862 0.49642 0.48573 0.0
Zn93 Zn 0.65002 0.51242 0.46882 0.0
O94 O 0.6115 0.49201 0.50005 0.0
Zn95 Zn 0.57937 0.46383 0.46259 0.0
Zn96 Zn 0.61737 0.46833 0.54373 0.0
Zn97 Zn 0.60179 0.52215 0.52565 0.0
O98 O 0.54646 0.47543 0.45828 0.0
O99 O 0.56421 0.5207 0.49244 0.0
O100 O 0.64409 0.50832 0.40534 0.0
O101 O 0.59644 0.467 0.40409 0.0
O102 O 0.56047 0.41939 0.48145 0.0
O103 O 0.5939 0.4227 0.53109 0.0
O104 O 0.59813 0.47152 0.59702 0.0
O105 O 0.67368 0.55615 0.48704 0.0
O106 O 0.58286 0.50582 0.58398 0.0
O107 O 0.64458 0.5638 0.53447 0.0
C108 C 0.68261 0.48856 0.52296 0.0
C109 C 0.54358 0.49852 0.46931 0.0
C110 C 0.57024 0.40655 0.50763 0.0
C111 C 0.62145 0.48648 0.38525 0.0
C112 C 0.58366 0.48551 0.60803 0.0
C113 C 0.67074 0.57292 0.51531 0.0
O114 O 0.66205 0.48097 0.55203 0.0
O115 O 0.50745 0.17504 0.49024 0.0
Zn116 Zn 0.50029 0.13338 0.47366 0.0
O117 O 0.52178 0.12055 0.51205 0.0
Zn118 Zn 0.55397 0.11643 0.48411 0.0
Zn119 Zn 0.53878 0.14934 0.5586 0.0
Zn120 Zn 0.49108 0.08025 0.53237 0.0
O121 O 0.54646 0.07313 0.49183 0.0
O122 O 0.49451 0.0476 0.49313 0.0
O123 O 0.51385 0.1339 0.4136 0.0
O124 O 0.55105 0.12153 0.4211 0.0
O125 O 0.59713 0.14862 0.50415 0.0
O126 O 0.58531 0.17238 0.55491 0.0
O127 O 0.53024 0.1253 0.61302 0.0
O128 O 0.45418 0.10638 0.4786 0.0
O129 O 0.50553 0.07614 0.59053 0.0
O130 O 0.45089 0.08374 0.54057 0.0
C131 C 0.515 0.19013 0.52524 0.0
C132 C 0.52052 0.04826 0.48632 0.0
C133 C 0.60532 0.16945 0.5329 0.0
C134 C 0.53422 0.12832 0.39778 0.0
C135 C 0.52004 0.09642 0.61938 0.0
C136 C 0.44051 0.09624 0.51435 0.0
O137 O 0.52522 0.18175 0.55708 0.0
O138 O 0.34556 0.52125 0.32291 0.0
Zn139 Zn 0.31897 0.47658 0.3051 0.0
O140 O 0.28094 0.45785 0.33722 0.0
Zn141 Zn 0.24847 0.45858 0.30595 0.0
Zn142 Zn 0.28917 0.48055 0.38925 0.0
Zn143 Zn 0.26891 0.41561 0.34926 0.0
O144 O 0.21118 0.41538 0.30182 0.0
O145 O 0.23408 0.38657 0.30666 0.0
O146 O 0.30931 0.47288 0.24214 0.0
O147 O 0.26323 0.47062 0.24597 0.0
O148 O 0.23691 0.48888 0.33065 0.0
O149 O 0.26433 0.50243 0.39083 0.0
O150 O 0.27557 0.45136 0.43916 0.0
O151 O 0.34442 0.45748 0.32293 0.0
O152 O 0.24832 0.40549 0.40679 0.0
O153 O 0.31022 0.41507 0.35832 0.0
C154 C 0.35129 0.53111 0.3614 0.0
C155 C 0.21049 0.38955 0.29677 0.0
C156 C 0.24522 0.50426 0.36545 0.0
C157 C 0.28625 0.47312 0.22447 0.0
C158 C 0.25633 0.42223 0.4403 0.0
C159 C 0.33831 0.43432 0.34677 0.0
O160 O 0.33381 0.51487 0.39226 0.0
O161 O 0.51215 0.84447 0.28717 0.0
Zn162 Zn 0.55783 0.85759 0.2936 0.0
O163 O 0.56344 0.83318 0.33588 0.0
Zn164 Zn 0.56595 0.80069 0.30774 0.0
Zn165 Zn 0.52809 0.81734 0.37298 0.0
Zn166 Zn 0.59964 0.85825 0.37034 0.0
O167 O 0.60893 0.8072 0.31477 0.0
O168 O 0.63695 0.85333 0.34677 0.0
O169 O 0.57513 0.85402 0.23683 0.0
O170 O 0.56231 0.80449 0.24507 0.0
O171 O 0.53302 0.75822 0.32842 0.0
O172 O 0.5059 0.77089 0.37265 0.0
O173 O 0.54094 0.82837 0.43347 0.0
O174 O 0.57622 0.90052 0.31668 0.0
O175 O 0.58899 0.83655 0.42753 0.0
O176 O 0.60063 0.901 0.37683 0.0
C177 C 0.4933 0.83867 0.31821 0.0
C178 C 0.63498 0.8294 0.32767 0.0
C179 C 0.51055 0.7506 0.35455 0.0
C180 C 0.57107 0.82844 0.22161 0.0
C181 C 0.56402 0.82722 0.44908 0.0
C182 C 0.58944 0.91356 0.35173 0.0
O183 O 0.49846 0.83152 0.35521 0.0
O184 O 0.18892 0.67628 0.32448 0.0
Zn185 Zn 0.16976 0.70299 0.31041 0.0
O186 O 0.19404 0.74447 0.335 0.0
Zn187 Zn 0.21529 0.77401 0.29018 0.0
Zn188 Zn 0.22498 0.74398 0.37192 0.0
Zn189 Zn 0.16759 0.75647 0.36697 0.0
O190 O 0.20846 0.80976 0.2954 0.0
O191 O 0.16751 0.79474 0.33848 0.0
O192 O 0.16445 0.70445 0.24614 0.0
O193 O 0.19698 0.75482 0.23498 0.0
O194 O 0.26166 0.79051 0.28867 0.0
O195 O 0.26776 0.76847 0.34692 0.0
O196 O 0.22745 0.76514 0.42681 0.0
O197 O 0.12845 0.68069 0.34025 0.0
O198 O 0.18873 0.77532 0.42259 0.0
O199 O 0.12642 0.71569 0.38283 0.0
C200 C 0.20429 0.67706 0.35765 0.0
C201 C 0.18826 0.81476 0.31303 0.0
C202 C 0.27884 0.78579 0.31417 0.0
C203 C 0.1773 0.72798 0.22135 0.0
C204 C 0.21221 0.77731 0.44199 0.0
C205 C 0.11494 0.68761 0.36938 0.0
O206 O 0.2167 0.70076 0.38198 0.0
O207 O 0.50432 0.67055 0.81354 0.0
Zn208 Zn 0.54963 0.69969 0.7977 0.0
O209 O 0.56637 0.73979 0.826 0.0
Zn210 Zn 0.56696 0.76965 0.78674 0.0
Zn211 Zn 0.53906 0.73391 0.87299 0.0
Zn212 Zn 0.60804 0.75445 0.84862 0.0
O213 O 0.60943 0.80675 0.78341 0.0
O214 O 0.64135 0.79305 0.81439 0.0
O215 O 0.55316 0.7044 0.73325 0.0
O216 O 0.5594 0.75201 0.72863 0.0
O217 O 0.53619 0.78363 0.80215 0.0
O218 O 0.52107 0.76167 0.86624 0.0
O219 O 0.56151 0.74571 0.92823 0.0
O220 O 0.57148 0.67853 0.82203 0.0
O221 O 0.61092 0.77228 0.90733 0.0
O222 O 0.61128 0.71481 0.85978 0.0
C223 C 0.49078 0.66891 0.84896 0.0
C224 C 0.63675 0.81247 0.79285 0.0
C225 C 0.52093 0.77927 0.83677 0.0
C226 C 0.55601 0.72735 0.71139 0.0
C227 C 0.59015 0.76396 0.93621 0.0
C228 C 0.59406 0.68642 0.84794 0.0
O229 O 0.50319 0.69064 0.87641 0.0
O230 O 0.34706 0.83505 0.80614 0.0
Zn231 Zn 0.31609 0.85045 0.80341 0.0
O232 O 0.27792 0.8239 0.83358 0.0
Zn233 Zn 0.24585 0.80068 0.793 0.0
Zn234 Zn 0.28738 0.79638 0.86349 0.0
Zn235 Zn 0.26555 0.84583 0.87423 0.0
O236 O 0.20794 0.8026 0.80778 0.0
O237 O 0.22432 0.84359 0.85128 0.0
O238 O 0.30862 0.85855 0.74256 0.0
O239 O 0.25867 0.82207 0.73707 0.0
O240 O 0.23646 0.75614 0.78674 0.0
O241 O 0.27068 0.75637 0.83269 0.0
O242 O 0.26543 0.78486 0.91867 0.0
O243 O 0.33704 0.88952 0.83599 0.0
O244 O 0.25007 0.81947 0.92825 0.0
O245 O 0.30628 0.88885 0.88873 0.0
C246 C 0.35308 0.82547 0.84073 0.0
C247 C 0.20312 0.82214 0.82776 0.0
C248 C 0.24962 0.74263 0.80462 0.0
C249 C 0.28333 0.8446 0.7215 0.0
C250 C 0.25102 0.79539 0.94024 0.0
C251 C 0.33264 0.90192 0.8689 0.0
O252 O 0.33308 0.81405 0.87075 0.0
O253 O 0.18929 0.50476 0.78334 0.0
Zn254 Zn 0.17027 0.45874 0.79055 0.0
O255 O 0.19164 0.45124 0.8347 0.0
Zn256 Zn 0.2229 0.44329 0.81387 0.0
Zn257 Zn 0.20812 0.48482 0.87324 0.0
Zn258 Zn 0.16186 0.41465 0.8629 0.0
O259 O 0.21471 0.40167 0.83527 0.0
O260 O 0.16324 0.37858 0.83 0.0
O261 O 0.17294 0.43803 0.73635 0.0
O262 O 0.21679 0.43754 0.75114 0.0
O263 O 0.2665 0.4776 0.8286 0.0
O264 O 0.25452 0.50462 0.8738 0.0
O265 O 0.19476 0.46857 0.93302 0.0
O266 O 0.12755 0.44671 0.81165 0.0
O267 O 0.1805 0.41902 0.9208 0.0
O268 O 0.12237 0.41928 0.87034 0.0
C269 C 0.19585 0.52438 0.81352 0.0
C270 C 0.18867 0.37761 0.82691 0.0
C271 C 0.27459 0.50007 0.85467 0.0
C272 C 0.19506 0.43326 0.72539 0.0
C273 C 0.19074 0.44237 0.94581 0.0
C274 C 0.11348 0.43452 0.84669 0.0
O275 O 0.19919 0.51802 0.85216 0.0
O276 O 1.00833 0.84264 0.65975 0.0
Zn277 Zn 0.97964 0.79637 0.6503 0.0
O278 O 0.93993 0.78224 0.67794 0.0
Zn279 Zn 0.90812 0.77292 0.63736 0.0
Zn280 Zn 0.94413 0.81537 0.71296 0.0
Zn281 Zn 0.92633 0.7445 0.71053 0.0
O282 O 0.86948 0.73375 0.65242 0.0
O283 O 0.89185 0.70718 0.67486 0.0
O284 O 0.97392 0.78546 0.58687 0.0
O285 O 0.9227 0.76683 0.58106 0.0
O286 O 0.89779 0.80669 0.63117 0.0
O287 O 0.92433 0.83752 0.6851 0.0
O288 O 0.92131 0.79837 0.76741 0.0
O289 O 1.00176 0.77799 0.68223 0.0
O290 O 0.90439 0.74766 0.76385 0.0
O291 O 0.96717 0.74523 0.72964 0.0
C292 C 1.01096 0.857 0.69475 0.0
C293 C 0.86824 0.70796 0.65922 0.0
C294 C 0.90627 0.83114 0.65311 0.0
C295 C 0.94878 0.77294 0.56509 0.0
C296 C 0.90537 0.77101 0.7825 0.0
C297 C 0.99512 0.76025 0.7148 0.0
O298 O 0.989 0.84647 0.72225 0.0
O299 O 0.16022 0.15075 0.66497 0.0
Zn300 Zn 0.20504 0.17001 0.64778 0.0
O301 O 0.22601 0.15415 0.68141 0.0
Zn302 Zn 0.23099 0.12391 0.64993 0.0
Zn303 Zn 0.19988 0.13524 0.72997 0.0
Zn304 Zn 0.26675 0.18714 0.69846 0.0
O305 O 0.27494 0.13267 0.65449 0.0
O306 O 0.29994 0.18441 0.65898 0.0
O307 O 0.20818 0.16319 0.58539 0.0
O308 O 0.22472 0.12896 0.58808 0.0
O309 O 0.20056 0.07981 0.66836 0.0
O310 O 0.17975 0.08919 0.72539 0.0
O311 O 0.22592 0.14525 0.78172 0.0
O312 O 0.22235 0.21446 0.66205 0.0
O313 O 0.27429 0.17492 0.75723 0.0
O314 O 0.2638 0.22816 0.70338 0.0
C315 C 0.14905 0.14566 0.70278 0.0
C316 C 0.29978 0.15889 0.65066 0.0
C317 C 0.18192 0.07029 0.70014 0.0
C318 C 0.21629 0.14546 0.567 0.0
C319 C 0.25531 0.15834 0.78661 0.0
C320 C 0.24386 0.23421 0.68607 0.0
O321 O 0.16452 0.14414 0.73436 0.0
O322 O 0.83366 0.99824 0.61042 0.0
Zn323 Zn 0.82252 0.03203 0.61131 0.0
O324 O 0.85028 0.06406 0.6486 0.0
Zn325 Zn 0.88496 0.09128 0.61563 0.0
Zn326 Zn 0.86229 0.04594 0.69238 0.0
Zn327 Zn 0.83001 0.08367 0.67592 0.0
O328 O 0.88353 0.13026 0.60936 0.0
O329 O 0.84097 0.1248 0.64212 0.0
O330 O 0.82805 0.05019 0.55209 0.0
O331 O 0.87977 0.07448 0.55628 0.0
O332 O 0.92571 0.10012 0.64212 0.0
O333 O 0.90858 0.06964 0.69942 0.0
O334 O 0.84469 0.04929 0.74782 0.0
O335 O 0.78001 0.01225 0.63787 0.0
O336 O 0.84973 0.09537 0.73432 0.0
O337 O 0.78537 0.0471 0.68715 0.0
C338 C 0.84275 0.9882 0.64159 0.0
C339 C 0.86528 0.14056 0.61853 0.0
C340 C 0.93085 0.08991 0.67679 0.0
C341 C 0.85487 0.06421 0.53433 0.0
C342 C 0.85088 0.07615 0.76031 0.0
C343 C 0.76992 0.01982 0.67066 0.0
O344 O 0.85112 1.00274 0.67703 0.0
O345 O 0.18632 0.01001 0.11944 0.0
Zn346 Zn 0.23203 0.04145 0.1294 0.0
O347 O 0.23685 0.07768 0.15971 0.0
Zn348 Zn 0.24657 0.11047 0.1199 0.0
Zn349 Zn 0.19731 0.06569 0.18534 0.0
Zn350 Zn 0.2692 0.09142 0.20343 0.0
O351 O 0.28535 0.14802 0.13671 0.0
O352 O 0.30888 0.13355 0.18478 0.0
O353 O 0.25516 0.05362 0.07269 0.0
O354 O 0.25809 0.09966 0.06478 0.0
O355 O 0.21285 0.12181 0.11301 0.0
O356 O 0.17883 0.08947 0.16041 0.0
O357 O 0.20185 0.07718 0.2465 0.0
O358 O 0.24617 0.01914 0.16867 0.0
O359 O 0.25318 0.10198 0.25636 0.0
O360 O 0.2718 0.05239 0.22146 0.0
C361 C 0.16367 1.00316 0.145 0.0
C362 C 0.30897 0.15401 0.15935 0.0
C363 C 0.18702 0.11098 0.13286 0.0
C364 C 0.26275 0.07822 0.05115 0.0
C365 C 0.22571 0.09354 0.26941 0.0
C366 C 0.26009 0.02524 0.20465 0.0
O367 O 0.16636 0.02103 0.1759 0.0
O368 O 0.01958 0.1835 0.11557 0.0
Zn369 Zn 0.98495 0.1927 0.10914 0.0
O370 O 0.95244 0.16877 0.14999 0.0
Zn371 Zn 0.9168 0.13587 0.12188 0.0
Zn372 Zn 0.96827 0.1523 0.19286 0.0
Zn373 Zn 0.94215 0.19702 0.17792 0.0
O374 O 0.88128 0.14386 0.1267 0.0
O375 O 0.90145 0.19263 0.1507 0.0
O376 O 0.96977 0.18227 0.04886 0.0
O377 O 0.92489 0.1382 0.05931 0.0
O378 O 0.90556 0.0928 0.14407 0.0
O379 O 0.94314 0.10605 0.19208 0.0
O380 O 0.96076 0.16267 0.25223 0.0
O381 O 1.00499 0.23815 0.12107 0.0
O382 O 0.92897 0.18074 0.23707 0.0
O383 O 0.9849 0.2382 0.18439 0.0
C384 C 0.02874 0.17354 0.14663 0.0
C385 C 0.8787 0.16759 0.13494 0.0
C386 C 0.91919 0.08546 0.17256 0.0
C387 C 0.94556 0.15846 0.03476 0.0
C388 C 0.94008 0.16936 0.26354 0.0
C389 C 1.00773 0.25024 0.15788 0.0
O390 O 0.01262 0.16313 0.18078 0.0
O391 O 0.85462 0.85284 0.15672 0.0
Zn392 Zn 0.83479 0.80613 0.14902 0.0
O393 O 0.86069 0.79095 0.17404 0.0
Zn394 Zn 0.8824 0.78315 0.129 0.0
Zn395 Zn 0.89067 0.82371 0.21034 0.0
Zn396 Zn 0.83578 0.75316 0.2074 0.0
O397 O 0.8773 0.741 0.13519 0.0
O398 O 0.83648 0.71502 0.17867 0.0
O399 O 0.82572 0.79428 0.08623 0.0
O400 O 0.86243 0.78181 0.07375 0.0
O401 O 0.92822 0.81527 0.12583 0.0
O402 O 0.93288 0.84344 0.18328 0.0
O403 O 0.89514 0.80697 0.26688 0.0
O404 O 0.79538 0.78916 0.18318 0.0
O405 O 0.85877 0.75724 0.26197 0.0
O406 O 0.79458 0.75273 0.22581 0.0
C407 C 0.86915 0.86862 0.18964 0.0
C408 C 0.85731 0.71581 0.15311 0.0
C409 C 0.94472 0.83802 0.15055 0.0
C410 C 0.84012 0.78549 0.06115 0.0
C411 C 0.8814 0.77939 0.28174 0.0
C412 C 0.78286 0.76942 0.21333 0.0
O413 O 0.88057 0.858 0.217 0.0
H414 H 0.60095 0.22689 0.00187 0.0
H415 H 0.53297 0.16197 0.91169 0.0
H416 H 0.5125 0.19797 0.90131 0.0
H417 H 0.55133 0.24819 0.05261 0.0
H418 H 0.58102 0.28821 0.06014 0.0
H419 H 0.59162 0.25848 0.05757 0.0
H420 H 0.63001 0.28778 -0.00461 0.0
H421 H 0.61971 0.31776 -0.00206 0.0
H422 H 0.61606 0.29787 0.94818 0.0
H423 H 0.49817 0.24076 0.90398 0.0
H424 H 0.49158 0.28609 0.91902 0.0
H425 H 0.56876 0.32101 0.00856 0.0
C426 C 0.58198 0.22023 0.97949 0.0
C427 C 0.56859 0.19159 0.95753 0.0
C428 C 0.54367 0.18385 0.92877 0.0
C429 C 0.5319 0.20413 0.9227 0.0
C430 C 0.54538 0.23196 0.94557 0.0
C431 C 0.56997 0.23998 0.97325 0.0
C432 C 0.57972 0.27046 -0.00451 0.0
C433 C 0.57566 0.26605 0.04433 0.0
C434 C 0.61336 0.29491 0.98351 0.0
C435 C 0.55651 0.2783 0.97646 0.0
C436 C 0.53699 0.25604 0.94752 0.0
C437 C 0.51344 0.25837 0.92645 0.0
C438 C 0.50985 0.28417 0.93523 0.0
C439 C 0.52959 0.30707 0.96506 0.0
C440 C 0.55317 0.30392 0.98572 0.0
H441 H 0.70089 0.24575 0.02438 0.0
H442 H 0.72955 0.21026 0.917 0.0
H443 H 0.77417 0.26303 0.90394 0.0
H444 H 0.71936 0.31832 0.97614 0.0
H445 H 0.73258 0.33978 0.0255 0.0
H446 H 0.70336 0.2992 0.02654 0.0
H447 H 0.73764 0.28797 0.07798 0.0
H448 H 0.76688 0.32853 0.0773 0.0
H449 H 0.77713 0.29964 0.06285 0.0
H450 H 0.81599 0.32 0.90344 0.0
H451 H 0.85152 0.37611 0.91564 0.0
H452 H 0.79386 0.37332 0.0224 0.0
C453 C 0.7166 0.2489 -0.00177 0.0
C454 C 0.71181 0.22383 0.97181 0.0
C455 C 0.73279 0.22914 0.93768 0.0
C456 C 0.75816 0.25901 0.93001 0.0
C457 C 0.76201 0.28323 0.95657 0.0
C458 C 0.74175 0.27844 0.98995 0.0
C459 C 0.75071 0.30825 0.0137 0.0
C460 C 0.72498 0.31689 0.01024 0.0
C461 C 0.75857 0.30595 0.06073 0.0
C462 C 0.77941 0.33062 0.98872 0.0
C463 C 0.7856 0.31585 0.95587 0.0
C464 C 0.81131 0.33182 0.92899 0.0
C465 C 0.83134 0.36368 0.93618 0.0
C466 C 0.82547 0.37917 0.96992 0.0
C467 C 0.79897 0.3623 -0.00383 0.0
H468 H 0.65628 0.45278 0.922 0.0
H469 H 0.64119 0.47187 0.05259 0.0
H470 H 0.69718 0.49476 0.06763 0.0
H471 H 0.7069 0.42693 0.94731 0.0
H472 H 0.73258 0.4433 0.90191 0.0
H473 H 0.69267 0.43415 0.898 0.0
H474 H 0.71066 0.49089 0.87558 0.0
H475 H 0.75075 0.5002 0.8791 0.0
H476 H 0.73757 0.52249 0.90907 0.0
H477 H 0.75133 0.50713 0.07278 0.0
H478 H 0.80226 0.50987 0.06715 0.0
H479 H 0.78454 0.48372 0.93328 0.0
C480 C 0.66516 0.46289 0.95314 0.0
C481 C 0.64476 0.46104 0.98607 0.0
C482 C 0.6567 0.47337 0.02699 0.0
C483 C 0.68842 0.48651 0.03577 0.0
C484 C 0.70794 0.48711 0.00326 0.0
C485 C 0.69698 0.47587 0.96263 0.0
C486 C 0.72249 0.47612 0.9353 0.0
C487 C 0.71309 0.44317 0.91974 0.0
C488 C 0.73086 0.49878 0.89752 0.0
C489 C 0.74889 0.48793 0.96753 0.0
C490 C 0.73997 0.49449 0.0063 0.0
C491 C 0.75893 0.50279 0.04236 0.0
C492 C 0.78768 0.50408 0.03895 0.0
C493 C 0.79728 0.49728 -0.00026 0.0
C494 C 0.77794 0.48971 0.96333 0.0
H495 H 0.72588 0.49098 0.46589 0.0
H496 H 0.70367 0.48336 0.60155 0.0
H497 H 0.74951 0.47809 0.61734 0.0
H498 H 0.74626 0.43399 0.46388 0.0
H499 H 0.77765 0.45297 0.4258 0.0
H500 H 0.74604 0.46098 0.42542 0.0
H501 H 0.78527 0.51984 0.43388 0.0
H502 H 0.8171 0.512 0.43424 0.0
H503 H 0.81242 0.5331 0.47785 0.0
H504 H 0.79289 0.46728 0.61803 0.0
H505 H 0.8312 0.4506 0.60349 0.0
H506 H 0.82613 0.46545 0.46746 0.0
C507 C 0.73106 0.4889 0.499 0.0
C508 C 0.71126 0.48763 0.53251 0.0
C509 C 0.71849 0.48433 0.57535 0.0
C510 C 0.74459 0.48156 0.58469 0.0
C511 C 0.76328 0.4823 0.55087 0.0
C512 C 0.75697 0.48598 0.50888 0.0
C513 C 0.77906 0.48301 0.47823 0.0
C514 C 0.76118 0.45613 0.44649 0.0
C515 C 0.79969 0.51383 0.45467 0.0
C516 C 0.79792 0.4758 0.50949 0.0
C517 C 0.78871 0.47603 0.55126 0.0
C518 C 0.80072 0.46754 0.58558 0.0
C519 C 0.8223 0.45793 0.57697 0.0
C520 C 0.83157 0.45687 0.53437 0.0
C521 C 0.81982 0.46665 0.50034 0.0
H522 H 0.55259 0.24333 0.57005 0.0
H523 H 0.4741 0.20175 0.48286 0.0
H524 H 0.47592 0.25203 0.47583 0.0
H525 H 0.53366 0.30118 0.6204 0.0
H526 H 0.57426 0.3306 0.6225 0.0
H527 H 0.56294 0.29013 0.62753 0.0
H528 H 0.59954 0.29614 0.56434 0.0
H529 H 0.61063 0.33639 0.55873 0.0
H530 H 0.59471 0.31056 0.5136 0.0
H531 H 0.49086 0.30745 0.46945 0.0
H532 H 0.517 0.36461 0.46607 0.0
H533 H 0.58659 0.37093 0.55634 0.0
C534 C 0.53511 0.24464 0.55081 0.0
C535 C 0.51304 0.21871 0.5273 0.0
C536 C 0.49111 0.22139 0.50127 0.0
C537 C 0.49189 0.2498 0.49717 0.0
C538 C 0.51476 0.27531 0.51931 0.0
C539 C 0.53582 0.27302 0.54596 0.0
C540 C 0.56015 0.30468 0.56227 0.0
C541 C 0.55759 0.30676 0.61108 0.0
C542 C 0.5932 0.31238 0.54891 0.0
C543 C 0.55023 0.32513 0.53917 0.0
C544 C 0.52371 0.30767 0.51513 0.0
C545 C 0.51131 0.3214 0.48875 0.0
C546 C 0.52645 0.3539 0.48684 0.0
C547 C 0.55383 0.37229 0.51097 0.0
C548 C 0.56557 0.35757 0.53777 0.0
H549 H 0.6544 0.19337 0.47612 0.0
H550 H 0.63097 0.19382 0.60995 0.0
H551 H 0.68578 0.23227 0.62551 0.0
H552 H 0.73396 0.20554 0.49292 0.0
H553 H 0.74977 0.23111 0.44738 0.0
H554 H 0.70955 0.20058 0.44742 0.0
H555 H 0.69236 0.24117 0.4327 0.0
H556 H 0.73245 0.27177 0.43271 0.0
H557 H 0.70486 0.27379 0.46836 0.0
H558 H 0.7413 0.27306 0.62601 0.0
H559 H 0.7944 0.31567 0.61127 0.0
H560 H 0.78255 0.29079 0.47646 0.0
C561 C 0.66107 0.20111 0.5088 0.0
C562 C 0.63862 0.19057 0.54194 0.0
C563 C 0.64788 0.2017 0.58415 0.0
C564 C 0.67896 0.22337 0.59334 0.0
C565 C 0.70045 0.23383 0.5599 0.0
C566 C 0.69202 0.2232 0.51844 0.0
C567 C 0.71926 0.24039 0.48792 0.0
C568 C 0.72869 0.21807 0.46773 0.0
C569 C 0.71178 0.25781 0.4534 0.0
C570 C 0.74402 0.26277 0.5186 0.0
C571 C 0.73271 0.25818 0.56002 0.0
C572 C 0.75057 0.27675 0.59379 0.0
C573 C 0.78071 0.30099 0.58501 0.0
C574 C 0.79272 0.30667 0.54268 0.0
C575 C 0.77419 0.28693 0.50919 0.0
H576 H 0.19388 0.62794 0.30598 0.0
H577 H 0.22321 0.66535 0.43396 0.0
H578 H 0.23128 0.62162 0.45201 0.0
H579 H 0.15447 0.54493 0.33619 0.0
H580 H 0.16793 0.53423 0.28902 0.0
H581 H 0.16119 0.56668 0.28726 0.0
H582 H 0.21779 0.60247 0.26071 0.0
H583 H 0.22464 0.57016 0.26227 0.0
H584 H 0.24978 0.60514 0.29156 0.0
H585 H 0.24011 0.57669 0.4548 0.0
H586 H 0.25122 0.53433 0.44113 0.0
H587 H 0.21657 0.52583 0.31127 0.0
C588 C 0.20151 0.62665 0.33801 0.0
C589 C 0.20783 0.65003 0.36858 0.0
C590 C 0.21828 0.64777 0.40994 0.0
C591 C 0.22275 0.6229 0.42063 0.0
C592 C 0.21664 0.60045 0.38966 0.0
C593 C 0.20631 0.60205 0.34917 0.0
C594 C 0.2038 0.57612 0.32089 0.0
C595 C 0.16982 0.55419 0.30757 0.0
C596 C 0.22529 0.58926 0.28155 0.0
C597 C 0.21512 0.56023 0.35154 0.0
C598 C 0.22198 0.57442 0.39119 0.0
C599 C 0.23449 0.56512 0.42405 0.0
C600 C 0.24078 0.54107 0.41593 0.0
C601 C 0.23468 0.52668 0.37518 0.0
C602 C 0.22107 0.53604 0.34293 0.0
H603 H 0.49077 0.70005 0.30186 0.0
H604 H 0.48242 0.72723 0.431 0.0
H605 H 0.44473 0.67265 0.44873 0.0
H606 H 0.41123 0.64733 0.28883 0.0
H607 H 0.41613 0.61947 0.25782 0.0
H608 H 0.44579 0.65984 0.25677 0.0
H609 H 0.48703 0.64531 0.28047 0.0
H610 H 0.45744 0.6048 0.28152 0.0
H611 H 0.48059 0.62272 0.32852 0.0
H612 H 0.40571 0.61645 0.45129 0.0
H613 H 0.36508 0.56235 0.4375 0.0
H614 H 0.39647 0.57147 0.30552 0.0
C615 C 0.48146 0.6943 0.33408 0.0
C616 C 0.4896 0.71767 0.36523 0.0
C617 C 0.47643 0.70957 0.40675 0.0
C618 C 0.45517 0.67864 0.41718 0.0
C619 C 0.44715 0.65616 0.3856 0.0
C620 C 0.45971 0.66354 0.34481 0.0
C621 C 0.4448 0.63537 0.31577 0.0
C622 C 0.42852 0.64084 0.27756 0.0
C623 C 0.46891 0.62653 0.30069 0.0
C624 C 0.42144 0.61129 0.34636 0.0
C625 C 0.42365 0.62367 0.38665 0.0
C626 C 0.40387 0.60636 0.41997 0.0
C627 C 0.38084 0.57563 0.41177 0.0
C628 C 0.37751 0.56263 0.37039 0.0
C629 C 0.39843 0.58067 0.3375 0.0
H630 H 0.44428 0.80565 0.26426 0.0
H631 H 0.4795 0.87688 0.36209 0.0
H632 H 0.4297 0.87699 0.36188 0.0
H633 H 0.39191 0.83006 0.20794 0.0
H634 H 0.36204 0.7902 0.19974 0.0
H635 H 0.40251 0.80055 0.20026 0.0
H636 H 0.39066 0.75987 0.25999 0.0
H637 H 0.35034 0.74955 0.25984 0.0
H638 H 0.37235 0.76189 0.3089 0.0
H639 H 0.37491 0.86391 0.36002 0.0
H640 H 0.3174 0.83736 0.35788 0.0
H641 H 0.31592 0.77321 0.26281 0.0
C642 C 0.44171 0.82204 0.28426 0.0
C643 C 0.4656 0.84172 0.31258 0.0
C644 C 0.46138 0.86201 0.33982 0.0
C645 C 0.4333 0.86231 0.33976 0.0
C646 C 0.40968 0.84199 0.31242 0.0
C647 C 0.4135 0.82221 0.28508 0.0
C648 C 0.38301 0.79971 0.26352 0.0
C649 C 0.38499 0.80549 0.21498 0.0
C650 C 0.37354 0.76576 0.27371 0.0
C651 C 0.36124 0.80891 0.28462 0.0
C652 C 0.37733 0.83387 0.31193 0.0
C653 C 0.36212 0.8449 0.33798 0.0
C654 C 0.32957 0.82973 0.33664 0.0
C655 C 0.31272 0.80387 0.30959 0.0
C656 C 0.32862 0.79357 0.28277 0.0
H657 H 0.49027 0.79445 0.77664 0.0
H658 H 0.50886 0.79732 0.91278 0.0
H659 H 0.47301 0.81713 0.92677 0.0
H660 H 0.47826 0.86375 0.77372 0.0
H661 H 0.44689 0.84524 0.7357 0.0
H662 H 0.47834 0.83682 0.73509 0.0
H663 H 0.43845 0.77805 0.74258 0.0
H664 H 0.40698 0.78626 0.74344 0.0
H665 H 0.41133 0.76473 0.78676 0.0
H666 H 0.43046 0.82872 0.92784 0.0
H667 H 0.38291 0.8317 0.91585 0.0
H668 H 0.39064 0.82164 0.77907 0.0
C669 C 0.48746 0.80023 0.80916 0.0
C670 C 0.50239 0.79459 0.84364 0.0
C671 C 0.49758 0.8015 0.88596 0.0
C672 C 0.47745 0.81296 0.8942 0.0
C673 C 0.46231 0.81739 0.85976 0.0
C674 C 0.46707 0.8114 0.81802 0.0
C675 C 0.44508 0.81476 0.78762 0.0
C676 C 0.46323 0.84176 0.75618 0.0
C677 C 0.42423 0.78413 0.76372 0.0
C678 C 0.42641 0.82223 0.81908 0.0
C679 C 0.43718 0.82412 0.86041 0.0
C680 C 0.42215 0.82794 0.89558 0.0
C681 C 0.39507 0.82939 0.88849 0.0
C682 C 0.38331 0.82704 0.84656 0.0
C683 C 0.39956 0.82412 0.81134 0.0
H684 H 0.22739 0.57716 0.86089 0.0
H685 H 0.17478 0.54166 0.7433 0.0
H686 H 0.18286 0.59398 0.72692 0.0
H687 H 0.20022 0.62944 0.8883 0.0
H688 H 0.23747 0.65883 0.90855 0.0
H689 H 0.22688 0.61851 0.91078 0.0
H690 H 0.2772 0.63116 0.86903 0.0
H691 H 0.28789 0.67151 0.86654 0.0
H692 H 0.28482 0.6506 0.81796 0.0
H693 H 0.19584 0.65067 0.72508 0.0
H694 H 0.21445 0.70669 0.73669 0.0
H695 H 0.26016 0.7037 0.85364 0.0
C696 C 0.2174 0.58029 0.83179 0.0
C697 C 0.20033 0.55538 0.80347 0.0
C698 C 0.188 0.56053 0.76541 0.0
C699 C 0.19241 0.5901 0.75589 0.0
C700 C 0.20948 0.61423 0.78453 0.0
C701 C 0.22192 0.60959 0.82155 0.0
C702 C 0.2399 0.63926 0.84674 0.0
C703 C 0.22523 0.63632 0.89121 0.0
C704 C 0.2745 0.64868 0.85024 0.0
C705 C 0.2355 0.66135 0.81831 0.0
C706 C 0.21776 0.64663 0.78269 0.0
C707 C 0.20996 0.66249 0.75271 0.0
C708 C 0.22058 0.69422 0.75954 0.0
C709 C 0.239 0.70962 0.79578 0.0
C710 C 0.24653 0.69281 0.82523 0.0
H711 H 0.3242 0.52086 0.79901 0.0
H712 H 0.29937 0.52903 0.92974 0.0
H713 H 0.35359 0.56962 0.94382 0.0
H714 H 0.40514 0.53742 0.82163 0.0
H715 H 0.42047 0.55996 0.77334 0.0
H716 H 0.38078 0.52829 0.77491 0.0
H717 H 0.36148 0.56579 0.75115 0.0
H718 H 0.40101 0.59756 0.74978 0.0
H719 H 0.37231 0.60039 0.78202 0.0
H720 H 0.40803 0.61204 0.94239 0.0
H721 H 0.4604 0.65506 0.9256 0.0
H722 H 0.45108 0.62144 0.79495 0.0
C723 C 0.3305 0.53067 0.83085 0.0
C724 C 0.30778 0.52173 0.86345 0.0
C725 C 0.31651 0.53559 0.90441 0.0
C726 C 0.34725 0.55854 0.91277 0.0
C727 C 0.36897 0.56746 0.87976 0.0
C728 C 0.36115 0.55403 0.83961 0.0
C729 C 0.38847 0.57009 0.8089 0.0
C730 C 0.39936 0.54759 0.79381 0.0
C731 C 0.38032 0.5843 0.77072 0.0
C732 C 0.41247 0.59509 0.83784 0.0
C733 C 0.40073 0.59276 0.87868 0.0
C734 C 0.41767 0.61396 0.91068 0.0
C735 C 0.44739 0.63844 0.90069 0.0
C736 C 0.45993 0.64171 0.85891 0.0
C737 C 0.44228 0.61945 0.82725 0.0
H738 H 0.87012 0.96686 0.69698 0.0
H739 H 0.82427 0.94782 0.57325 0.0
H740 H 0.83461 0.90436 0.56273 0.0
H741 H 0.93101 0.9545 0.6652 0.0
H742 H 0.93248 0.93714 0.71521 0.0
H743 H 0.91928 0.96495 0.71422 0.0
H744 H 0.86745 0.92506 0.75083 0.0
H745 H 0.88062 0.89721 0.75237 0.0
H746 H 0.84405 0.88719 0.72724 0.0
H747 H 0.85189 0.8641 0.56535 0.0
H748 H 0.87417 0.83033 0.581 0.0
H749 H 0.90975 0.87822 0.70191 0.0
C750 C 0.86178 0.95336 0.66785 0.0
C751 C 0.84626 0.96063 0.63599 0.0
C752 C 0.83614 0.94256 0.59815 0.0
C753 C 0.84191 0.91789 0.59189 0.0
C754 C 0.85786 0.91182 0.62374 0.0
C755 C 0.86754 0.92904 0.66099 0.0
C756 C 0.88535 0.9189 0.68961 0.0
C757 C 0.91902 0.94545 0.69643 0.0
C758 C 0.86834 0.90633 0.73254 0.0
C759 C 0.8844 0.89331 0.66257 0.0
C760 C 0.86832 0.88936 0.62481 0.0
C761 C 0.86447 0.86695 0.59486 0.0
C762 C 0.87724 0.84795 0.604 0.0
C763 C 0.89379 0.85175 0.64261 0.0
C764 C 0.89744 0.87485 0.67199 0.0
H765 H 0.15695 0.02299 0.64115 0.0
H766 H 0.16029 0.04242 0.7771 0.0
H767 H 0.12104 0.98771 0.79085 0.0
H768 H 0.07724 0.97611 0.63538 0.0
H769 H 0.07682 0.94867 0.59725 0.0
H770 H 0.10909 0.98784 0.59822 0.0
H771 H 0.1475 0.96724 0.60837 0.0
H772 H 0.1153 0.92789 0.60707 0.0
H773 H 0.14164 0.94102 0.65195 0.0
H774 H 0.07722 0.93404 0.78937 0.0
H775 H 0.03136 0.88335 0.77299 0.0
H776 H 0.05525 0.89745 0.63783 0.0
C777 C 0.15007 0.0154 0.67388 0.0
C778 C 0.16167 0.03677 0.70812 0.0
C779 C 0.15159 0.02634 0.75045 0.0
C780 C 0.12946 0.9953 0.75861 0.0
C781 C 0.11765 0.97499 0.72409 0.0
C782 C 0.12766 0.98443 0.68257 0.0
C783 C 0.10883 0.95853 0.651 0.0
C784 C 0.092 0.96839 0.61858 0.0
C785 C 0.12956 0.94805 0.62826 0.0
C786 C 0.08598 0.93359 0.68119 0.0
C787 C 0.09186 0.94352 0.72322 0.0
C788 C 0.07265 0.92572 0.7567 0.0
C789 C 0.04653 0.89706 0.747 0.0
C790 C 0.03979 0.88645 0.70415 0.0
C791 C 0.0601 0.90478 0.67093 0.0
H792 H 0.98417 0.1192 0.62845 0.0
H793 H 0.95043 0.08479 0.75661 0.0
H794 H 1.00378 0.0998 0.77906 0.0
H795 H 0.03565 0.09061 0.62238 0.0
H796 H 0.0654 0.12308 0.59272 0.0
H797 H 0.02531 0.11322 0.58801 0.0
H798 H 0.04004 0.16917 0.61047 0.0
H799 H 0.08028 0.17925 0.61513 0.0
H800 H 0.06067 0.18489 0.65995 0.0
H801 H 0.05991 0.11485 0.78622 0.0
H802 H 0.11454 0.12757 0.77688 0.0
H803 H 0.11126 0.15105 0.64369 0.0
C804 C 0.9881 0.1154 0.66146 0.0
C805 C 0.96317 0.10098 0.69083 0.0
C806 C 0.96917 0.09583 0.73353 0.0
C807 C 0.99943 0.10439 0.74667 0.0
C808 C 0.02341 0.11804 0.71672 0.0
C809 C 0.01812 0.12354 0.675 0.0
C810 C 0.04748 0.13628 0.64828 0.0
C811 C 0.04319 0.11449 0.61065 0.0
C812 C 0.05772 0.16937 0.63254 0.0
C813 C 0.06988 0.13639 0.68124 0.0
C814 C 0.05569 0.12621 0.72065 0.0
C815 C 0.07141 0.12315 0.75562 0.0
C816 C 0.10241 0.1304 0.74998 0.0
C817 C 0.1172 0.14028 0.70957 0.0
C818 C 0.1007 0.14364 0.67503 0.0
H819 H 0.13529 0.09819 0.17901 0.0
H820 H 0.19353 0.15553 0.07433 0.0
H821 H 0.16069 0.18006 0.06853 0.0
H822 H 0.06258 0.0848 0.13793 0.0
H823 H 0.04763 0.08648 0.18992 0.0
H824 H 0.07577 0.0738 0.18506 0.0
H825 H 0.11175 0.11633 0.239 0.0
H826 H 0.08386 0.12938 0.24366 0.0
H827 H 0.12352 0.15641 0.22841 0.0
H828 H 0.12046 0.19735 0.07392 0.0
H829 H 0.0757 0.20501 0.08851 0.0
H830 H 0.04585 0.13716 0.19132 0.0
C831 C 0.1412 0.11578 0.15459 0.0
C832 C 0.16694 0.12486 0.12695 0.0
C833 C 0.17386 0.14815 0.09575 0.0
C834 C 0.15542 0.16226 0.09235 0.0
C835 C 0.13044 0.15293 0.1206 0.0
C836 C 0.12336 0.13018 0.15105 0.0
C837 C 0.09533 0.12409 0.17759 0.0
C838 C 0.06876 0.0903 0.17228 0.0
C839 C 0.10416 0.13203 0.22497 0.0
C840 C 0.08739 0.14677 0.15707 0.0
C841 C 0.10789 0.16326 0.1243 0.0
C842 C 0.1044 0.18469 0.09965 0.0
C843 C 0.07892 0.18887 0.10818 0.0
C844 C 0.0574 0.17176 0.14117 0.0
C845 C 0.06214 0.15091 0.16633 0.0
H846 H 0.86151 0.90603 0.13114 0.0
H847 H 0.88717 0.90265 0.26317 0.0
H848 H 0.8975 0.95601 0.27422 0.0
H849 H 0.92017 0.98303 0.11138 0.0
H850 H 0.89678 0.99305 0.07812 0.0
H851 H 0.88803 0.95331 0.08135 0.0
H852 H 0.8315 0.93625 0.10466 0.0
H853 H 0.84009 0.97601 0.1015 0.0
H854 H 0.82496 0.95432 0.15048 0.0
H855 H 0.90945 0.01042 0.27001 0.0
H856 H 0.9232 0.06378 0.25043 0.0
H857 H 0.88977 0.03332 0.1212 0.0
C858 C 0.86877 0.91633 0.16257 0.0
C859 C 0.87345 0.90006 0.19633 0.0
C860 C 0.88346 0.91459 0.23678 0.0
C861 C 0.88925 0.94487 0.24348 0.0
C862 C 0.88486 0.9604 0.20947 0.0
C863 C 0.87483 0.94674 0.1698 0.0
C864 C 0.87411 0.96954 0.13801 0.0
C865 C 0.89609 0.97505 0.09998 0.0
C866 C 0.84067 0.95836 0.12277 0.0
C867 C 0.88607 0.99831 0.16581 0.0
C868 C 0.89179 0.99227 0.20702 0.0
C869 C 0.90473 0.01538 0.23803 0.0
C870 C 0.91256 0.04564 0.22652 0.0
C871 C 0.90742 0.05262 0.18437 0.0
C872 C 0.89342 0.0285 0.15384 0.0
H873 H 0.11221 0.98197 0.19563 0.0
H874 H 0.14581 0.96003 0.07974 0.0
H875 H 0.09347 0.91402 0.06861 0.0
H876 H 0.06202 0.90313 0.2311 0.0
H877 H 0.03288 0.91145 0.25138 0.0
H878 H 0.07324 0.94149 0.25049 0.0
H879 H 0.05883 0.9768 0.20641 0.0
H880 H 0.01848 0.94685 0.20699 0.0
H881 H 0.03797 0.96262 0.15672 0.0
H882 H 0.03591 0.87113 0.06962 0.0
H883 H 0.97964 0.83559 0.08317 0.0
H884 H 0.98597 0.88749 0.19821 0.0
C885 C 0.10882 0.96749 0.16795 0.0
C886 C 0.13316 0.97466 0.13852 0.0
C887 C 0.12752 0.95497 0.10278 0.0
C888 C 0.09787 0.92882 0.09619 0.0
C889 C 0.07431 0.92274 0.12572 0.0
C890 C 0.07964 0.94154 0.16096 0.0
C891 C 0.05059 0.93074 0.18765 0.0
C892 C 0.05495 0.92112 0.23282 0.0
C893 C 0.04091 0.95574 0.18952 0.0
C894 C 0.02783 0.90298 0.16182 0.0
C895 C 0.04177 0.89852 0.12626 0.0
C896 C 0.02485 0.87437 0.09749 0.0
C897 C 0.99291 0.85434 0.10542 0.0
C898 C 0.97834 0.85871 0.14176 0.0
C899 C 0.99626 0.88338 0.17014 0.0
H900 H 0.55518 0.0965 0.35018 0.0
H901 H 0.52219 0.16252 0.34084 0.0
H902 H 0.53086 0.16589 0.26267 0.0
H903 H 0.61527 0.13104 0.274 0.0
H904 H 0.60923 0.09496 0.25174 0.0
H905 H 0.59891 0.09643 0.30661 0.0
H906 H 0.54256 0.05208 0.29217 0.0
H907 H 0.55268 0.05036 0.23718 0.0
H908 H 0.5204 0.05619 0.2495 0.0
H909 H 0.54793 0.16623 0.18826 0.0
H910 H 0.56884 0.16055 0.11926 0.0
H911 H 0.58733 0.09148 0.17549 0.0
C912 C 0.5497 0.11157 0.33158 0.0
C913 C 0.53828 0.12947 0.35124 0.0
C914 C 0.53094 0.14864 0.32611 0.0
C915 C 0.53577 0.15068 0.28184 0.0
C916 C 0.54734 0.13295 0.26346 0.0
C917 C 0.55382 0.11345 0.28733 0.0
C918 C 0.56644 0.09723 0.25966 0.0
C919 C 0.59942 0.10543 0.27385 0.0
C920 C 0.54418 0.06187 0.25963 0.0
C921 C 0.56691 0.11143 0.21664 0.0
C922 C 0.55584 0.13201 0.2197 0.0
C923 C 0.55614 0.14982 0.18516 0.0
C924 C 0.5682 0.14658 0.14633 0.0
C925 C 0.57938 0.12546 0.14244 0.0
C926 C 0.57837 0.10736 0.17776 0.0
H927 H 0.85102 0.40997 0.3441 0.0
H928 H 0.92401 0.38612 0.34505 0.0
H929 H 0.93472 0.4006 0.26839 0.0
H930 H 0.82444 0.3834 0.23071 0.0
H931 H 0.81645 0.41467 0.22245 0.0
H932 H 0.81173 0.3977 0.2749 0.0
H933 H 0.84897 0.45243 0.30573 0.0
H934 H 0.8546 0.46949 0.25337 0.0
H935 H 0.88777 0.47496 0.28401 0.0
H936 H 0.94393 0.42751 0.19701 0.0
H937 H 0.94448 0.45551 0.13103 0.0
H938 H 0.86295 0.45813 0.17593 0.0
C939 C 0.86837 0.40664 0.32755 0.0
C940 C 0.88658 0.39678 0.34981 0.0
C941 C 0.90953 0.39314 0.32791 0.0
C942 C 0.91588 0.40153 0.28462 0.0
C943 C 0.89846 0.41267 0.26395 0.0
C944 C 0.87448 0.41424 0.28433 0.0
C945 C 0.86028 0.42847 0.25587 0.0
C946 C 0.82621 0.40463 0.24535 0.0
C947 C 0.8631 0.45809 0.27596 0.0
C948 C 0.88093 0.436 0.21697 0.0
C949 C 0.90292 0.42687 0.22221 0.0
C950 C 0.92632 0.43402 0.19204 0.0
C951 C 0.9267 0.45022 0.15504 0.0
C952 C 0.90363 0.45866 0.14861 0.0
C953 C 0.88056 0.45148 0.17996 0.0
H954 H 0.59728 0.4335 0.33943 0.0
H955 H 0.64748 0.53388 0.32721 0.0
H956 H 0.63929 0.52883 0.24878 0.0
H957 H 0.62375 0.41717 0.23302 0.0
H958 H 0.58626 0.38287 0.22539 0.0
H959 H 0.60168 0.39461 0.27865 0.0
H960 H 0.55128 0.39469 0.30079 0.0
H961 H 0.53599 0.38373 0.24758 0.0
H962 H 0.5396 0.41844 0.27137 0.0
H963 H 0.61562 0.51298 0.17656 0.0
H964 H 0.58458 0.48737 0.11211 0.0
H965 H 0.55231 0.39707 0.17054 0.0
C966 C 0.60746 0.45435 0.31993 0.0
C967 C 0.62291 0.48404 0.33879 0.0
C968 C 0.63583 0.51096 0.31288 0.0
C969 C 0.63124 0.50828 0.26849 0.0
C970 C 0.61447 0.47855 0.25099 0.0
C971 C 0.60353 0.45203 0.27575 0.0
C972 C 0.58392 0.42292 0.24994 0.0
C973 C 0.59987 0.40324 0.24654 0.0
C974 C 0.55075 0.40386 0.26854 0.0
C975 C 0.58384 0.43726 0.20739 0.0
C976 C 0.60175 0.46936 0.20857 0.0
C977 C 0.6023 0.48787 0.17476 0.0
C978 C 0.58431 0.47316 0.13864 0.0
C979 C 0.56628 0.44034 0.13671 0.0
C980 C 0.56636 0.42219 0.17121 0.0
H981 H 0.8871 0.50464 0.82145 0.0
H982 H 0.9806 0.53404 0.86467 0.0
H983 H 0.99409 0.52287 0.79327 0.0
H984 H 0.87624 0.44106 0.77737 0.0
H985 H 0.85332 0.4395 0.73167 0.0
H986 H 0.85355 0.46032 0.77868 0.0
H987 H 0.87201 0.51084 0.73485 0.0
H988 H 0.87056 0.48987 0.68699 0.0
H989 H 0.90592 0.52496 0.70097 0.0
H990 H 0.99349 0.49703 0.72425 0.0
H991 H 0.9797 0.46216 0.66132 0.0
H992 H 0.88508 0.4457 0.66733 0.0
C993 C 0.91098 0.51087 0.81461 0.0
C994 C 0.9332 0.52118 0.84751 0.0
C995 C 0.96374 0.52717 0.83899 0.0
C996 C 0.97148 0.52066 0.79867 0.0
C997 C 0.94826 0.50799 0.76761 0.0
C998 C 0.9187 0.50367 0.77487 0.0
C999 C 0.89629 0.48432 0.73996 0.0
C1000 C 0.86824 0.45456 0.75804 0.0
C1001 C 0.88558 0.50366 0.71415 0.0
C1002 C 0.91726 0.47687 0.71359 0.0
C1003 C 0.94732 0.49131 0.72916 0.0
C1004 C 0.97016 0.48609 0.71124 0.0
C1005 C 0.96208 0.46601 0.67593 0.0
C1006 C 0.93126 0.45089 0.65994 0.0
C1007 C 0.90876 0.45654 0.67916 0.0
H1008 H 0.5689 0.43303 0.65214 0.0
H1009 H 0.55261 0.51119 0.64982 0.0
H1010 H 0.51764 0.48909 0.71274 0.0
H1011 H 0.48979 0.37351 0.6881 0.0
H1012 H 0.50537 0.35445 0.72053 0.0
H1013 H 0.52497 0.37401 0.67182 0.0
H1014 H 0.57629 0.40773 0.71382 0.0
H1015 H 0.55708 0.38763 0.76199 0.0
H1016 H 0.57576 0.42944 0.75976 0.0
H1017 H 0.49142 0.46256 0.78135 0.0
H1018 H 0.48202 0.43811 0.85285 0.0
H1019 H 0.51391 0.37663 0.80733 0.0
C1020 C 0.55789 0.44557 0.66448 0.0
C1021 C 0.56369 0.474 0.64636 0.0
C1022 C 0.54859 0.48942 0.66344 0.0
C1023 C 0.5284 0.47683 0.69871 0.0
C1024 C 0.52314 0.44854 0.7156 0.0
C1025 C 0.53759 0.43322 0.69892 0.0
C1026 C 0.53125 0.40518 0.72521 0.0
C1027 C 0.51167 0.375 0.69989 0.0
C1028 C 0.56189 0.40769 0.74116 0.0
C1029 C 0.51261 0.40814 0.76122 0.0
C1030 C 0.50725 0.4327 0.75454 0.0
C1031 C 0.49447 0.44267 0.78633 0.0
C1032 C 0.48889 0.42849 0.82668 0.0
C1033 C 0.49637 0.40496 0.83451 0.0
C1034 C 0.50675 0.39361 0.80103 0.0
H1035 H 0.62939 0.12711 0.81737 0.0
H1036 H 0.56589 0.03275 0.85745 0.0
H1037 H 0.54049 0.02121 0.78657 0.0
H1038 H 0.57635 0.13923 0.77706 0.0
H1039 H 0.59731 0.1632 0.73183 0.0
H1040 H 0.61834 0.16177 0.77765 0.0
H1041 H 0.6501 0.14436 0.73096 0.0
H1042 H 0.63023 0.14713 0.68429 0.0
H1043 H 0.63003 0.11145 0.69576 0.0
H1044 H 0.51477 0.02367 0.719 0.0
H1045 H 0.4935 0.0389 0.65773 0.0
H1046 H 0.57145 0.13315 0.66622 0.0
C1047 C 0.61168 0.10348 0.80987 0.0
C1048 C 0.59994 0.08054 0.8419 0.0
C1049 C 0.57546 0.05028 0.83257 0.0
C1050 C 0.56088 0.04363 0.79251 0.0
C1051 C 0.57117 0.0676 0.76256 0.0
C1052 C 0.59647 0.09684 0.77048 0.0
C1053 C 0.59929 0.12013 0.73703 0.0
C1054 C 0.5977 0.14766 0.75713 0.0
C1055 C 0.62918 0.13142 0.71042 0.0
C1056 C 0.57067 0.09996 0.71074 0.0
C1057 C 0.55516 0.06959 0.72508 0.0
C1058 C 0.52706 0.04726 0.70697 0.0
C1059 C 0.51496 0.05616 0.67264 0.0
C1060 C 0.53058 0.08726 0.65783 0.0
C1061 C 0.55869 0.1093 0.67731 0.0
H1062 H 0.28242 0.42999 0.51829 0.0
H1063 H 0.19387 0.38706 0.45222 0.0
H1064 H 0.16636 0.37796 0.52154 0.0
H1065 H 0.2517 0.37893 0.61992 0.0
H1066 H 0.2778 0.41164 0.65241 0.0
H1067 H 0.28926 0.40744 0.59912 0.0
H1068 H 0.29982 0.46281 0.58066 0.0
H1069 H 0.28765 0.46689 0.63319 0.0
H1070 H 0.26885 0.47164 0.58675 0.0
H1071 H 0.15057 0.3863 0.59461 0.0
H1072 H 0.14702 0.40382 0.66765 0.0
H1073 H 0.24582 0.43836 0.68547 0.0
C1074 C 0.25717 0.41734 0.51885 0.0
C1075 C 0.24007 0.409 0.48058 0.0
C1076 C 0.20715 0.39308 0.48168 0.0
C1077 C 0.1914 0.38792 0.5208 0.0
C1078 C 0.20906 0.39804 0.55815 0.0
C1079 C 0.2412 0.41143 0.55758 0.0
C1080 C 0.25511 0.42315 0.60123 0.0
C1081 C 0.2693 0.40414 0.61923 0.0
C1082 C 0.27925 0.45818 0.60035 0.0
C1083 C 0.22616 0.4166 0.62558 0.0
C1084 C 0.19971 0.40177 0.60059 0.0
C1085 C 0.17093 0.39695 0.61498 0.0
C1086 C 0.16919 0.40731 0.65617 0.0
C1087 C 0.19611 0.42223 0.68212 0.0
C1088 C 0.22471 0.4265 0.66663 0.0
H1089 H 0.60642 0.82951 0.50766 0.0
H1090 H 0.50859 0.77796 0.47283 0.0
H1091 H 0.49926 0.73873 0.52774 0.0
H1092 H 0.61562 0.7627 0.53701 0.0
H1093 H 0.63987 0.78223 0.58255 0.0
H1094 H 0.64033 0.80438 0.5365 0.0
H1095 H 0.62625 0.83838 0.58432 0.0
H1096 H 0.62695 0.81704 0.63032 0.0
H1097 H 0.59266 0.81966 0.61896 0.0
H1098 H 0.4993 0.70687 0.58838 0.0
H1099 H 0.50627 0.69169 0.66116 0.0
H1100 H 0.60299 0.76447 0.65924 0.0
C1101 C 0.58309 0.80993 0.51171 0.0
C1102 C 0.55829 0.8067 0.48605 0.0
C1103 C 0.52794 0.78101 0.49243 0.0
C1104 C 0.52248 0.75829 0.52301 0.0
C1105 C 0.54752 0.76175 0.54729 0.0
C1106 C 0.57705 0.78734 0.54285 0.0
C1107 C 0.59884 0.78767 0.57694 0.0
C1108 C 0.62523 0.78402 0.55704 0.0
C1109 C 0.6119 0.81742 0.60425 0.0
C1110 C 0.57656 0.75895 0.60214 0.0
C1111 C 0.54737 0.74365 0.5835 0.0
C1112 C 0.52215 0.7182 0.60299 0.0
C1113 C 0.52632 0.70946 0.64401 0.0
C1114 C 0.55529 0.72656 0.6648 0.0
C1115 C 0.58099 0.7505 0.64295 0.0
H1116 H 0.31072 0.83519 0.65329 0.0
H1117 H 0.24877 0.86853 0.69192 0.0
H1118 H 0.22992 0.86354 0.61773 0.0
H1119 H 0.32296 0.86474 0.5349 0.0
H1120 H 0.32196 0.82962 0.51768 0.0
H1121 H 0.33861 0.8465 0.56885 0.0
H1122 H 0.30131 0.79384 0.60516 0.0
H1123 H 0.28371 0.77706 0.55473 0.0
H1124 H 0.2598 0.77696 0.59837 0.0
H1125 H 0.20791 0.84174 0.54726 0.0
H1126 H 0.18786 0.80953 0.48234 0.0
H1127 H 0.26269 0.7881 0.48991 0.0
C1128 C 0.29487 0.84348 0.64515 0.0
C1129 C 0.28177 0.85312 0.67736 0.0
C1130 C 0.2596 0.86202 0.66693 0.0
C1131 C 0.24873 0.85912 0.62497 0.0
C1132 C 0.2603 0.84723 0.59418 0.0
C1133 C 0.28343 0.84015 0.60347 0.0
C1134 C 0.28766 0.8224 0.5672 0.0
C1135 C 0.3197 0.84199 0.54588 0.0
C1136 C 0.2828 0.79071 0.5823 0.0
C1137 C 0.26177 0.81853 0.53781 0.0
C1138 C 0.24678 0.83365 0.55335 0.0
C1139 C 0.22004 0.83059 0.53402 0.0
C1140 C 0.2086 0.81192 0.4975 0.0
C1141 C 0.22369 0.79627 0.48109 0.0
C1142 C 0.25072 0.79991 0.50148 0.0
H1143 H 0.56212 0.73718 0.01084 0.0
H1144 H 0.63484 0.82342 0.95618 0.0
H1145 H 0.63912 0.85035 0.0248 0.0
H1146 H 0.5234 0.76743 0.06452 0.0
H1147 H 0.51363 0.7428 0.11108 0.0
H1148 H 0.51947 0.72942 0.0603 0.0
H1149 H 0.56213 0.71987 0.09293 0.0
H1150 H 0.55571 0.73227 0.14424 0.0
H1151 H 0.5943 0.75085 0.12136 0.0
H1152 H 0.62956 0.86876 0.0965 0.0
H1153 H 0.61276 0.87527 0.16884 0.0
H1154 H 0.54682 0.77625 0.17396 0.0
C1155 C 0.57959 0.76153 0.01377 0.0
C1156 C 0.59818 0.77833 0.97865 0.0
C1157 C 0.62068 0.81017 0.98321 0.0
C1158 C 0.62307 0.82565 0.02183 0.0
C1159 C 0.60316 0.80866 0.05534 0.0
C1160 C 0.58243 0.7771 0.05191 0.0
C1161 C 0.56261 0.76421 0.09149 0.0
C1162 C 0.52773 0.75015 0.0812 0.0
C1163 C 0.5691 0.7404 0.11383 0.0
C1164 C 0.57468 0.79357 0.11732 0.0
C1165 C 0.59803 0.81906 0.0962 0.0
C1166 C 0.61164 0.84887 0.11361 0.0
C1167 C 0.60173 0.85242 0.15433 0.0
C1168 C 0.57863 0.82622 0.17679 0.0
C1169 C 0.56474 0.79665 0.15762 0.0
H1170 H 0.22577 0.81362 0.00452 0.0
H1171 H 0.2346 0.73562 0.95971 0.0
H1172 H 0.20398 0.70451 0.02129 0.0
H1173 H 0.23887 0.8061 0.10996 0.0
H1174 H 0.2119 0.81715 0.13111 0.0
H1175 H 0.22904 0.83077 0.07931 0.0
H1176 H 0.17366 0.80723 0.04657 0.0
H1177 H 0.15646 0.79292 0.09852 0.0
H1178 H 0.14603 0.7665 0.05399 0.0
H1179 H 0.17949 0.68438 0.09184 0.0
H1180 H 0.1697 0.68014 0.1699 0.0
H1181 H 0.17599 0.77033 0.16906 0.0
C1182 C 0.22071 0.78981 0.00729 0.0
C1183 C 0.23257 0.77711 0.97739 0.0
C1184 C 0.22593 0.74599 0.98241 0.0
C1185 C 0.20812 0.7279 0.01695 0.0
C1186 C 0.19694 0.74113 0.04613 0.0
C1187 C 0.20314 0.77146 0.04183 0.0
C1188 C 0.19237 0.78162 0.0807 0.0
C1189 C 0.21966 0.81058 0.10149 0.0
C1190 C 0.16553 0.7874 0.06924 0.0
C1191 C 0.18105 0.753 0.10851 0.0
C1192 C 0.18281 0.72945 0.08748 0.0
C1193 C 0.17723 0.70227 0.10845 0.0
C1194 C 0.17151 0.69992 0.15268 0.0
C1195 C 0.17205 0.72488 0.17502 0.0
C1196 C 0.17509 0.7508 0.15229 0.0
H1197 H 0.20166 0.47971 0.0154 0.0
H1198 H 0.21245 0.40349 0.96776 0.0
H1199 H 0.24465 0.40815 0.03054 0.0
H1200 H 0.27803 0.52543 0.05893 0.0
H1201 H 0.26522 0.53726 0.10567 0.0
H1202 H 0.2433 0.5285 0.05664 0.0
H1203 H 0.19324 0.48745 0.0958 0.0
H1204 H 0.21477 0.49689 0.14511 0.0
H1205 H 0.1943 0.45725 0.12654 0.0
H1206 H 0.27739 0.4225 0.09686 0.0
H1207 H 0.29831 0.43758 0.17029 0.0
H1208 H 0.26412 0.50261 0.17541 0.0
C1209 C 0.2105 0.46377 0.01848 0.0
C1210 C 0.20465 0.44131 0.98683 0.0
C1211 C 0.21644 0.42071 0.99194 0.0
C1212 C 0.23513 0.42346 0.0271 0.0
C1213 C 0.24146 0.44668 0.05691 0.0
C1214 C 0.2288 0.46589 0.05359 0.0
C1215 C 0.23748 0.48757 0.09139 0.0
C1216 C 0.25718 0.52171 0.07729 0.0
C1217 C 0.20821 0.48193 0.11618 0.0
C1218 C 0.25671 0.47729 0.11674 0.0
C1219 C 0.25945 0.45426 0.09581 0.0
C1220 C 0.2755 0.44057 0.11359 0.0
C1221 C 0.28761 0.4495 0.15497 0.0
C1222 C 0.2829 0.47134 0.17792 0.0
C1223 C 0.26827 0.48613 0.15804 0.0
H1224 H 0.90746 0.81625 0.83397 0.0
H1225 H 0.8603 0.71604 0.81846 0.0
H1226 H 0.82827 0.70988 0.88254 0.0
H1227 H 0.91506 0.81665 0.94306 0.0
H1228 H 0.90961 0.84949 0.95197 0.0
H1229 H 0.92463 0.84535 0.90163 0.0
H1230 H 0.87995 0.84834 0.8626 0.0
H1231 H 0.86438 0.8517 0.91326 0.0
H1232 H 0.84001 0.82122 0.87647 0.0
H1233 H 0.80654 0.71453 0.95259 0.0
H1234 H 0.80238 0.7291 0.02691 0.0
H1235 H 0.86308 0.82604 -0.00414 0.0
C1236 C 0.89006 0.79295 0.84351 0.0
C1237 C 0.88631 0.76661 0.8211 0.0
C1238 C 0.86362 0.73657 0.83518 0.0
C1239 C 0.84505 0.73288 0.87119 0.0
C1240 C 0.84932 0.75945 0.89241 0.0
C1241 C 0.87148 0.7889 0.87919 0.0
C1242 C 0.87441 0.81355 0.91023 0.0
C1243 C 0.90789 0.83232 0.92777 0.0
C1244 C 0.86406 0.83496 0.88938 0.0
C1245 C 0.85155 0.7933 0.94432 0.0
C1246 C 0.83658 0.7622 0.93287 0.0
C1247 C 0.81735 0.7388 0.96142 0.0
C1248 C 0.81483 0.74725 0.0034 0.0
C1249 C 0.83153 0.77872 0.01618 0.0
C1250 C 0.84893 0.80204 0.98594 0.0
H1251 H 0.22341 0.10378 0.8284 0.0
H1252 H 0.31286 0.18902 0.82606 0.0
H1253 H 0.33041 0.16935 0.8869 0.0
H1254 H 0.21353 0.09645 0.93564 0.0
H1255 H 0.19513 0.05464 0.93634 0.0
H1256 H 0.19285 0.07403 0.88929 0.0
H1257 H 0.21649 0.0466 0.84491 0.0
H1258 H 0.2197 0.02783 0.89253 0.0
H1259 H 0.25365 0.0511 0.85996 0.0
H1260 H 0.33373 0.14476 0.95497 0.0
H1261 H 0.32103 0.12032 0.02643 0.0
H1262 H 0.23117 0.04922 0.9806 0.0
C1263 C 0.24681 0.11838 0.84049 0.0
C1264 C 0.26664 0.14818 0.82325 0.0
C1265 C 0.29725 0.16623 0.83928 0.0
C1266 C 0.30747 0.15505 0.87333 0.0
C1267 C 0.2871 0.12545 0.8897 0.0
C1268 C 0.25744 0.10737 0.87351 0.0
C1269 C 0.23864 0.07795 0.8991 0.0
C1270 C 0.2083 0.07569 0.91612 0.0
C1271 C 0.23173 0.04917 0.87253 0.0
C1272 C 0.26146 0.08329 0.93458 0.0
C1273 C 0.28968 0.11039 0.92794 0.0
C1274 C 0.31232 0.12295 0.95979 0.0
C1275 C 0.30508 0.10878 0.00018 0.0
C1276 C 0.27557 0.08241 0.00805 0.0
C1277 C 0.25441 0.06841 0.97433 0.0
H1278 H 0.84574 0.11242 0.82253 0.0
H1279 H 0.89736 0.06671 0.78557 0.0
H1280 H 0.93272 0.09054 0.84666 0.0
H1281 H 0.91049 0.18355 0.86665 0.0
H1282 H 0.88826 0.18489 0.91154 0.0
H1283 H 0.86898 0.16757 0.8618 0.0
H1284 H 0.83139 0.11626 0.90139 0.0
H1285 H 0.85019 0.13383 0.9511 0.0
H1286 H 0.84734 0.09777 0.93432 0.0
H1287 H 0.96195 0.11821 0.91103 0.0
H1288 H 0.977 0.13957 0.98424 0.0
H1289 H 0.90345 0.16267 0.9845 0.0
C1290 C 0.86457 0.10762 0.82749 0.0
C1291 C 0.86923 0.08814 0.79941 0.0
C1292 C 0.89363 0.08173 0.80688 0.0
C1293 C 0.91399 0.09538 0.84115 0.0
C1294 C 0.90913 0.11478 0.86813 0.0
C1295 C 0.88453 0.12022 0.86258 0.0
C1296 C 0.88239 0.13887 0.89937 0.0
C1297 C 0.88787 0.17061 0.88389 0.0
C1298 C 0.85098 0.12057 0.92294 0.0
C1299 C 0.90922 0.14244 0.92664 0.0
C1300 C 0.92495 0.12928 0.90723 0.0
C1301 C 0.95003 0.12879 0.92659 0.0
C1302 C 0.95853 0.14106 0.96783 0.0
C1303 C 0.94152 0.15291 0.98898 0.0
C1304 C 0.91702 0.15418 0.96811 0.0
H1305 H 0.25974 0.10329 0.3422 0.0
H1306 H 0.18137 0.1083 0.28947 0.0
H1307 H 0.17346 0.12708 0.35894 0.0
H1308 H 0.22421 0.07271 0.44217 0.0
H1309 H 0.25966 0.09338 0.47268 0.0
H1310 H 0.26126 0.08364 0.41761 0.0
H1311 H 0.29961 0.14173 0.4007 0.0
H1312 H 0.29798 0.15162 0.45578 0.0
H1313 H 0.28874 0.17043 0.41354 0.0
H1314 H 0.1734 0.14421 0.43401 0.0
H1315 H 0.17749 0.15285 0.51234 0.0
H1316 H 0.2535 0.13314 0.5167 0.0
C1317 C 0.24121 0.10874 0.34529 0.0
C1318 C 0.22126 0.10461 0.31079 0.0
C1319 C 0.1968 0.11129 0.31586 0.0
C1320 C 0.1923 0.12219 0.35496 0.0
C1321 C 0.21227 0.1259 0.38855 0.0
C1322 C 0.23598 0.11902 0.38432 0.0
C1323 C 0.25232 0.12232 0.42641 0.0
C1324 C 0.24915 0.09116 0.44054 0.0
C1325 C 0.2867 0.14807 0.42394 0.0
C1326 C 0.23376 0.13166 0.45499 0.0
C1327 C 0.21123 0.13427 0.43241 0.0
C1328 C 0.19098 0.14231 0.45213 0.0
C1329 C 0.1935 0.14723 0.49644 0.0
C1330 C 0.21564 0.14341 0.52022 0.0
C1331 C 0.23623 0.13597 0.49913 0.0
H1332 H 0.95601 0.14255 0.32794 0.0
H1333 H 0.88803 0.16963 0.29284 0.0
H1334 H 0.85624 0.14158 0.35575 0.0
H1335 H 0.90246 0.06665 0.36249 0.0
H1336 H 0.92584 0.06671 0.40669 0.0
H1337 H 0.94432 0.09019 0.36008 0.0
H1338 H 0.97247 0.13973 0.4071 0.0
H1339 H 0.95488 0.11624 0.45395 0.0
H1340 H 0.94991 0.14916 0.4431 0.0
H1341 H 0.83021 0.10774 0.42009 0.0
H1342 H 0.81678 0.07853 0.48843 0.0
H1343 H 0.902 0.07427 0.48059 0.0
C1344 C 0.93475 0.14312 0.33382 0.0
C1345 C 0.92451 0.15821 0.30536 0.0
C1346 C 0.89646 0.15831 0.31426 0.0
C1347 C 0.87805 0.14219 0.34968 0.0
C1348 C 0.88814 0.12632 0.37591 0.0
C1349 C 0.91616 0.12726 0.36896 0.0
C1350 C 0.92198 0.10867 0.4022 0.0
C1351 C 0.92374 0.08145 0.38162 0.0
C1352 C 0.95155 0.12971 0.42813 0.0
C1353 C 0.89288 0.0972 0.42905 0.0
C1354 C 0.87339 0.10721 0.41308 0.0
C1355 C 0.84529 0.09978 0.43298 0.0
C1356 C 0.83765 0.08289 0.47141 0.0
C1357 C 0.85833 0.07413 0.48943 0.0
C1358 C 0.88573 0.08057 0.46725 0.0
H1359 H 0.925 0.82068 0.33808 0.0
H1360 H 0.86471 0.72202 0.31431 0.0
H1361 H 0.88499 0.70989 0.37896 0.0
H1362 H 0.99132 0.81543 0.38457 0.0
H1363 H 0.99905 0.84495 0.42393 0.0
H1364 H 0.98317 0.84617 0.37251 0.0
H1365 H 0.9366 0.84679 0.40968 0.0
H1366 H 0.95273 0.84626 0.46093 0.0
H1367 H 0.91344 0.8168 0.44799 0.0
H1368 H 0.90613 0.70818 0.44976 0.0
H1369 H 0.92295 0.71742 0.52532 0.0
H1370 H 0.97089 0.81668 0.50324 0.0
C1371 C 0.91638 0.79652 0.34614 0.0
C1372 C 0.8933 0.77233 0.32105 0.0
C1373 C 0.88232 0.74101 0.33305 0.0
C1374 C 0.89397 0.73384 0.36946 0.0
C1375 C 0.91674 0.75822 0.39344 0.0
C1376 C 0.9277 0.78894 0.38248 0.0
C1377 C 0.94962 0.81072 0.41625 0.0
C1378 C 0.98276 0.83048 0.39822 0.0
C1379 C 0.93735 0.83132 0.43481 0.0
C1380 C 0.94814 0.78739 0.44882 0.0
C1381 C 0.92959 0.75721 0.43452 0.0
C1382 C 0.92148 0.73162 0.46089 0.0
C1383 C 0.9313 0.73701 0.50359 0.0
C1384 C 0.94914 0.76767 0.51917 0.0
C1385 C 0.95864 0.79309 0.49118 0.0
H1386 H 0.35474 0.91984 0.95312 0.0
H1387 H 0.37658 0.94682 0.81972 0.0
H1388 H 0.43121 0.98203 0.83857 0.0
H1389 H 0.41023 1.00131 -0.00555 0.0
H1390 H 0.42035 0.98683 0.04106 0.0
H1391 H 0.38212 0.96462 0.0178 0.0
H1392 H 0.39066 0.91746 0.01143 0.0
H1393 H 0.42933 0.93984 0.03328 0.0
H1394 H 0.42372 0.9214 0.98181 0.0
H1395 H 0.48428 1.00679 0.86803 0.0
H1396 H 0.53197 0.03585 0.91061 0.0
H1397 H 0.47825 1.00153 0.02759 0.0
C1398 C 0.37074 0.9342 0.92827 0.0
C1399 C 0.36115 0.93025 0.8847 0.0
C1400 C 0.38317 0.94921 0.85318 0.0
C1401 C 0.41446 0.96909 0.86347 0.0
C1402 C 0.42364 0.97082 0.90587 0.0
C1403 C 0.40241 0.95528 0.93826 0.0
C1404 C 0.41915 0.96309 0.98144 0.0
C1405 C 0.40726 0.97997 0.01041 0.0
C1406 C 0.41548 0.93369 0.00327 0.0
C1407 C 0.45295 0.98471 0.96775 0.0
C1408 C 0.45475 0.98785 0.92374 0.0
C1409 C 0.48313 1.005 0.90259 0.0
C1410 C 0.51026 0.02102 0.92704 0.0
C1411 C 0.50914 0.02059 0.9723 0.0
C1412 C 0.48003 1.00171 -0.00697 0.0
H1413 H 0.98581 0.44575 -0.0034 0.0
H1414 H 0.02088 0.5384 0.94483 0.0
H1415 H 0.05981 0.53248 0.90232 0.0
H1416 H 0.06368 0.4507 0.0031 0.0
H1417 H 0.04769 0.4103 0.98945 0.0
H1418 H 0.0242 0.42278 0.01796 0.0
H1419 H 0.98201 0.3981 0.95918 0.0
H1420 H 1.00562 0.38614 0.92998 0.0
H1421 H 0.99237 0.40992 0.9042 0.0
H1422 H 0.08939 0.5137 0.85818 0.0
H1423 H 0.11583 0.48851 0.82517 0.0
H1424 H 0.0661 0.40889 0.90963 0.0
C1425 C 1.00237 0.46517 0.97731 0.0
C1426 C 1.00052 0.49278 0.97444 0.0
C1427 C 0.02223 0.5174 0.94831 0.0
C1428 C 0.04419 0.51404 0.92365 0.0
C1429 C 0.04464 0.48615 0.92611 0.0
C1430 C 0.02498 0.46247 0.95327 0.0
C1431 C 0.03049 0.43493 0.94984 0.0
C1432 C 0.04222 0.42935 -0.00737 0.0
C1433 C 1.00085 0.40553 0.93491 0.0
C1434 C 0.05582 0.44648 0.91566 0.0
C1435 C 0.06313 0.47592 0.90214 0.0
C1436 C 0.08422 0.49091 0.86909 0.0
C1437 C 0.0989 0.47603 0.85014 0.0
C1438 C 0.09317 0.44639 0.86441 0.0
C1439 C 0.07113 0.43143 0.89781 0.0
H1440 H 0.57625 0.62754 0.81968 0.0
H1441 H 0.60859 0.68602 0.93247 0.0
H1442 H 0.59284 0.63948 0.97756 0.0
H1443 H 0.50996 0.56576 0.8644 0.0
H1444 H 0.51306 0.53533 0.83742 0.0
H1445 H 0.52937 0.57324 0.81327 0.0
H1446 H 0.58364 0.57759 0.80847 0.0
H1447 H 0.56718 0.53922 0.83119 0.0
H1448 H 0.60058 0.5714 0.85588 0.0
H1449 H 0.56689 0.58489 0.0114 0.0
H1450 H 0.54436 0.52888 0.02883 0.0
H1451 H 0.53177 0.50692 0.89358 0.0
C1452 C 0.58107 0.63071 0.85368 0.0
C1453 C 0.59404 0.66062 0.87237 0.0
C1454 C 0.59938 0.66357 0.91717 0.0
C1455 C 0.59001 0.63713 0.94317 0.0
C1456 C 0.57578 0.60785 0.92391 0.0
C1457 C 0.57231 0.60465 0.87996 0.0
C1458 C 0.55648 0.57069 0.867 0.0
C1459 C 0.52538 0.56069 0.84418 0.0
C1460 C 0.57827 0.56435 0.839 0.0
C1461 C 0.55117 0.5552 0.91048 0.0
C1462 C 0.56195 0.5769 0.94306 0.0
C1463 C 0.55868 0.56779 0.98603 0.0
C1464 C 0.5454 0.5359 -0.00426 0.0
C1465 C 0.53593 0.51356 0.96264 0.0
C1466 C 0.53844 0.52346 0.91958 0.0
H1467 H 0.98835 0.50783 0.40231 0.0
H1468 H 1.00874 0.5216 0.53791 0.0
H1469 H 0.04452 0.57784 0.52498 0.0
H1470 H 0.06895 0.56322 0.36757 0.0
H1471 H 0.05599 0.57539 0.32137 0.0
H1472 H 0.03262 0.53655 0.34207 0.0
H1473 H 0.98573 0.5458 0.34836 0.0
H1474 H 1.00924 0.58499 0.3289 0.0
H1475 H 0.98954 0.57798 0.37974 0.0
H1476 H 0.07445 0.63393 0.49725 0.0
H1477 H 0.10558 0.68252 0.45603 0.0
H1478 H 0.0695 0.6314 0.33774 0.0
C1479 C 1.00103 0.52261 0.42907 0.0
C1480 C 0.99616 0.51032 0.4711 0.0
C1481 C 0.01269 0.53042 0.50541 0.0
C1482 C 0.0327 0.56247 0.49838 0.0
C1483 C 0.03638 0.57405 0.45669 0.0
C1484 C 0.02178 0.55451 0.42242 0.0
C1485 C 0.03081 0.57251 0.38053 0.0
C1486 C 0.04813 0.56126 0.35116 0.0
C1487 C 1.00211 0.57017 0.35807 0.0
C1488 C 0.0524 0.60531 0.39653 0.0
C1489 C 0.05479 0.60584 0.44064 0.0
C1490 C 0.07292 0.63366 0.46268 0.0
C1491 C 0.09019 0.66131 0.439 0.0
C1492 C 0.08979 0.66097 0.39363 0.0
C1493 C 0.07003 0.63257 0.37238 0.0
H1494 H 0.51995 0.49989 0.39057 0.0
H1495 H 0.49732 0.48676 0.52568 0.0
H1496 H 0.4414 0.4647 0.50833 0.0
H1497 H 0.46006 0.52213 0.36234 0.0
H1498 H 0.45287 0.5033 0.31095 0.0
H1499 H 0.49089 0.51978 0.33498 0.0
H1500 H 0.48796 0.46642 0.3278 0.0
H1501 H 0.44946 0.44948 0.30525 0.0
H1502 H 0.45605 0.43259 0.35237 0.0
H1503 H 0.38714 0.43747 0.47513 0.0
H1504 H 0.34005 0.42006 0.43072 0.0
H1505 H 0.39806 0.4551 0.31727 0.0
C1506 C 0.50332 0.49362 0.41651 0.0
C1507 C 0.51304 0.4958 0.4596 0.0
C1508 C 0.49049 0.48626 0.49262 0.0
C1509 C 0.45862 0.47319 0.48295 0.0
C1510 C 0.44964 0.47024 0.44005 0.0
C1511 C 0.47146 0.48129 0.40742 0.0
C1512 C 0.45572 0.47596 0.36404 0.0
C1513 C 0.46545 0.50715 0.34177 0.0
C1514 C 0.46273 0.45486 0.33571 0.0
C1515 C 0.42162 0.45963 0.37725 0.0
C1516 C 0.41859 0.45597 0.42118 0.0
C1517 C 0.38933 0.44061 0.44076 0.0
C1518 C 0.36259 0.43027 0.41511 0.0
C1519 C 0.36518 0.43582 0.37035 0.0
C1520 C 0.3952 0.45011 0.35127 0.0
H1521 H 0.58939 0.93546 0.43456 0.0
H1522 H 0.57649 0.95003 0.30073 0.0
H1523 H 0.55323 0.98156 0.32188 0.0
H1524 H 0.52052 0.92984 0.47508 0.0
H1525 H 0.53707 0.95205 0.52319 0.0
H1526 H 0.5545 0.93152 0.49875 0.0
H1527 H 0.60769 0.98242 0.49354 0.0
H1528 H 0.59067 1.00291 0.51923 0.0
H1529 H 0.60982 0.01603 0.46812 0.0
H1530 H 0.52524 1.00608 0.35657 0.0
H1531 H 0.50699 0.03422 0.4028 0.0
H1532 H 0.54215 0.00976 0.51432 0.0
C1533 C 0.58271 0.94617 0.4097 0.0
C1534 C 0.58474 0.93983 0.36579 0.0
C1535 C 0.57517 0.95416 0.33453 0.0
C1536 C 0.56159 0.97199 0.3462 0.0
C1537 C 0.55821 0.97621 0.38947 0.0
C1538 C 0.56957 0.96484 0.42082 0.0
C1539 C 0.5638 0.97403 0.46502 0.0
C1540 C 0.54272 0.94513 0.4921 0.0
C1541 C 0.59484 0.99511 0.48782 0.0
C1542 C 0.54708 0.99181 0.4534 0.0
C1543 C 0.54352 0.99209 0.40959 0.0
C1544 C 0.52808 1.00619 0.39093 0.0
C1545 C 0.51727 0.02168 0.41749 0.0
C1546 C 0.52229 0.02344 0.46222 0.0
C1547 C 0.53716 0.008 0.48037 0.0
H1548 H 0.14969 0.37639 0.30371 0.0
H1549 H 0.20771 0.34547 0.24129 0.0
H1550 H 0.16229 0.30788 0.1987 0.0
H1551 H 0.07944 0.29852 0.30983 0.0
H1552 H 0.05321 0.31325 0.30105 0.0
H1553 H 0.09006 0.33719 0.32716 0.0
H1554 H 0.10376 0.38028 0.27063 0.0
H1555 H 0.06718 0.35632 0.24394 0.0
H1556 H 0.10324 0.3713 0.2146 0.0
H1557 H 0.11248 0.27796 0.15791 0.0
H1558 H 0.05944 0.25036 0.12946 0.0
H1559 H 0.03043 0.29589 0.2226 0.0
C1560 C 0.1527 0.36136 0.28149 0.0
C1561 C 0.18237 0.3639 0.27579 0.0
C1562 C 0.18529 0.34379 0.2465 0.0
C1563 C 0.15964 0.32255 0.22194 0.0
C1564 C 0.13098 0.32118 0.22764 0.0
C1565 C 0.1271 0.33944 0.25746 0.0
C1566 C 0.09348 0.33268 0.25789 0.0
C1567 C 0.07814 0.31963 0.30158 0.0
C1568 C 0.09183 0.36189 0.24606 0.0
C1569 C 0.07913 0.30812 0.22304 0.0
C1570 C 0.10149 0.30236 0.2057 0.0
C1571 C 0.09475 0.28201 0.17165 0.0
C1572 C 0.06437 0.26662 0.15541 0.0
C1573 C 0.04037 0.27087 0.17346 0.0
C1574 C 0.04803 0.29205 0.20796 0.0
H1575 H 0.65653 0.82286 0.25032 0.0
H1576 H 0.67353 0.82452 0.38645 0.0
H1577 H 0.71049 0.80535 0.37271 0.0
H1578 H 0.65814 0.75488 0.22488 0.0
H1579 H 0.67836 0.76873 0.17458 0.0
H1580 H 0.65463 0.78399 0.19482 0.0
H1581 H 0.70149 0.84009 0.19102 0.0
H1582 H 0.72514 0.82513 0.16952 0.0
H1583 H 0.73758 0.84908 0.21681 0.0
H1584 H 0.74234 0.78092 0.34306 0.0
H1585 H 0.7737 0.76421 0.3005 0.0
H1586 H 0.73794 0.78173 0.18361 0.0
C1587 C 0.6688 0.8201 0.27713 0.0
C1588 C 0.66265 0.82581 0.31946 0.0
C1589 C 0.67852 0.82113 0.35376 0.0
C1590 C 0.6992 0.8098 0.34619 0.0
C1591 C 0.70406 0.80353 0.30406 0.0
C1592 C 0.68991 0.8094 0.27004 0.0
C1593 C 0.69939 0.80146 0.22771 0.0
C1594 C 0.67093 0.77574 0.20413 0.0
C1595 C 0.71695 0.83068 0.19961 0.0
C1596 C 0.72085 0.78983 0.24303 0.0
C1597 C 0.7229 0.79066 0.28721 0.0
C1598 C 0.741 0.78045 0.30846 0.0
C1599 C 0.75843 0.77051 0.284 0.0
C1600 C 0.75813 0.77124 0.23863 0.0
C1601 C 0.73849 0.78051 0.21821 0.0
H1602 H 0.20042 0.84496 0.23685 0.0
H1603 H 0.18738 0.85579 0.37157 0.0
H1604 H 0.20789 0.91227 0.35982 0.0
H1605 H 0.27089 0.91357 0.22283 0.0
H1606 H 0.26243 0.92224 0.17016 0.0
H1607 H 0.24429 0.88255 0.1883 0.0
H1608 H 0.18948 0.87508 0.17418 0.0
H1609 H 0.20741 0.9144 0.15455 0.0
H1610 H 0.17911 0.90198 0.19719 0.0
H1611 H 0.23528 0.96935 0.33306 0.0
H1612 H 0.25674 0.0187 0.29237 0.0
H1613 H 0.2505 0.96914 0.17521 0.0
C1614 C 0.20096 0.85905 0.26367 0.0
C1615 C 0.19186 0.8459 0.30506 0.0
C1616 C 0.19347 0.8652 0.33945 0.0
C1617 C 0.20557 0.8974 0.33311 0.0
C1618 C 0.21564 0.90983 0.29209 0.0
C1619 C 0.21259 0.89096 0.25778 0.0
C1620 C 0.22493 0.90964 0.21684 0.0
C1621 C 0.25226 0.90682 0.19848 0.0
C1622 C 0.19867 0.89969 0.18375 0.0
C1623 C 0.23586 0.94216 0.23332 0.0
C1624 C 0.23068 0.94199 0.27687 0.0
C1625 C 0.23919 0.96958 0.29893 0.0
C1626 C 0.25185 0.99766 0.27561 0.0
C1627 C 0.25565 0.99803 0.23054 0.0
C1628 C 0.24822 0.96985 0.20963 0.0
H1629 H 0.72252 0.96287 0.64304 0.0
H1630 H 0.76548 0.0162 0.7579 0.0
H1631 H 0.73852 0.96826 0.80113 0.0
H1632 H 0.64637 0.90816 0.69549 0.0
H1633 H 0.64134 0.87598 0.66308 0.0
H1634 H 0.66215 0.91494 0.64197 0.0
H1635 H 0.7093 0.9076 0.62569 0.0
H1636 H 0.689 0.86893 0.64778 0.0
H1637 H 0.72668 0.89706 0.66844 0.0
H1638 H 0.7127 0.91287 0.83058 0.0
H1639 H 0.67945 0.85661 0.8464 0.0
H1640 H 0.64998 0.83988 0.71389 0.0
C1641 C 0.72532 0.96467 0.67748 0.0
C1642 C 0.746 0.99358 0.69695 0.0
C1643 C 0.74937 0.99465 0.74213 0.0
C1644 C 0.7345 0.96736 0.76697 0.0
C1645 C 0.71569 0.93907 0.74646 0.0
C1646 C 0.71009 0.93771 0.70293 0.0
C1647 C 0.68845 0.90439 0.68882 0.0
C1648 C 0.65775 0.90065 0.67132 0.0
C1649 C 0.70432 0.8939 0.65573 0.0
C1650 C 0.68335 0.8872 0.73096 0.0
C1651 C 0.69971 0.90753 0.76372 0.0
C1652 C 0.6995 0.89683 0.80522 0.0
C1653 C 0.68097 0.86478 0.81383 0.0
C1654 C 0.66256 0.84386 0.7813 0.0
C1655 C 0.6642 0.8553 0.73925 0.0
H1656 H 0.05387 0.77781 0.68537 0.0
H1657 H 0.99832 0.75125 0.80148 0.0
H1658 H 0.04615 0.76789 0.8444 0.0
H1659 H 0.10904 0.75342 0.7203 0.0
H1660 H 0.14117 0.78535 0.69295 0.0
H1661 H 0.10218 0.76956 0.67259 0.0
H1662 H 0.10861 0.82463 0.67525 0.0
H1663 H 0.14725 0.84038 0.69691 0.0
H1664 H 0.11842 0.84553 0.72522 0.0
H1665 H 0.10233 0.79199 0.87508 0.0
H1666 H 0.15866 0.8119 0.88866 0.0
H1667 H 0.17603 0.82121 0.75209 0.0
C1668 C 0.05155 0.77475 0.71978 0.0
C1669 C 0.02208 0.76291 0.73988 0.0
C1670 C 0.02039 0.75969 0.7851 0.0
C1671 C 0.04759 0.76953 0.80983 0.0
C1672 C 0.07641 0.78233 0.78898 0.0
C1673 C 0.07833 0.78421 0.7448 0.0
C1674 C 0.11184 0.79853 0.72975 0.0
C1675 C 0.11632 0.77533 0.70229 0.0
C1676 C 0.12212 0.82907 0.70534 0.0
C1677 C 0.12864 0.80455 0.77224 0.0
C1678 C 0.10801 0.79552 0.80623 0.0
C1679 C 0.11856 0.79905 0.84856 0.0
C1680 C 0.15067 0.81083 0.85611 0.0
C1681 C 0.17181 0.81872 0.82151 0.0
C1682 C 0.16051 0.81597 0.77922 0.0
H1683 H 0.25871 0.26737 0.76314 0.0
H1684 H 0.21982 0.26207 0.63693 0.0
H1685 H 0.19943 0.29563 0.6608 0.0
H1686 H 0.19833 0.26538 0.82314 0.0
H1687 H 0.22209 0.29387 0.8626 0.0
H1688 H 0.23654 0.27156 0.83559 0.0
H1689 H 0.28533 0.322 0.80993 0.0
H1690 H 0.2715 0.34448 0.83797 0.0
H1691 H 0.28053 0.351 0.78167 0.0
H1692 H 0.17643 0.32333 0.70051 0.0
H1693 H 0.16325 0.35443 0.74909 0.0
H1694 H 0.2203 0.34693 0.84821 0.0
C1695 C 0.24703 0.27429 0.74009 0.0
C1696 C 0.24096 0.26187 0.69799 0.0
C1697 C 0.22485 0.27112 0.66927 0.0
C1698 C 0.21288 0.29004 0.68263 0.0
C1699 C 0.21756 0.30031 0.72482 0.0
C1700 C 0.2352 0.2938 0.75279 0.0
C1701 C 0.23678 0.3083 0.79637 0.0
C1702 C 0.22259 0.28328 0.83149 0.0
C1703 C 0.27054 0.33291 0.80711 0.0
C1704 C 0.21673 0.32319 0.78861 0.0
C1705 C 0.20547 0.31779 0.74725 0.0
C1706 C 0.18538 0.32799 0.73287 0.0
C1707 C 0.17757 0.34521 0.76092 0.0
C1708 C 0.19019 0.35261 0.80269 0.0
C1709 C 0.20986 0.34117 0.81669 0.0
H1710 H 0.68838 0.59815 0.59759 0.0
H1711 H 0.72209 0.6072 0.467 0.0
H1712 H 0.77604 0.63738 0.49238 0.0
H1713 H 0.75055 0.67935 0.62902 0.0
H1714 H 0.75294 0.66736 0.6827 0.0
H1715 H 0.71663 0.64775 0.65394 0.0
H1716 H 0.7149 0.59545 0.66718 0.0
H1717 H 0.75181 0.61505 0.69451 0.0
H1718 H 0.74682 0.59064 0.64906 0.0
H1719 H 0.82626 0.65932 0.53174 0.0
H1720 H 0.87083 0.6878 0.58056 0.0
H1721 H 0.80705 0.67169 0.68533 0.0
C1722 C 0.70703 0.60762 0.5742 0.0
C1723 C 0.70073 0.59995 0.53015 0.0
C1724 C 0.72609 0.61251 0.50084 0.0
C1725 C 0.75698 0.62943 0.51498 0.0
C1726 C 0.7625 0.63463 0.55864 0.0
C1727 C 0.73839 0.62552 0.58774 0.0
C1728 C 0.75143 0.6357 0.63274 0.0
C1729 C 0.74235 0.65893 0.65066 0.0
C1730 C 0.74058 0.60752 0.66263 0.0
C1731 C 0.78639 0.6513 0.62419 0.0
C1732 C 0.79202 0.64952 0.58128 0.0
C1733 C 0.82218 0.66118 0.56538 0.0
C1734 C 0.84739 0.67678 0.59352 0.0
C1735 C 0.84248 0.68119 0.63695 0.0
C1736 C 0.81149 0.66777 0.65261 0.0
H1737 H 0.31907 0.11666 0.66531 0.0
H1738 H 0.34062 0.19842 0.5901 0.0
H1739 H 0.37802 0.1903 0.547 0.0
H1740 H 0.39996 0.12949 0.66522 0.0
H1741 H 0.38653 0.08845 0.66273 0.0
H1742 H 0.36313 0.102 0.68903 0.0
H1743 H 0.3167 0.06644 0.64013 0.0
H1744 H 0.3401 0.05327 0.61303 0.0
H1745 H 0.32141 0.07031 0.5828 0.0
H1746 H 0.4074 0.16912 0.5064 0.0
H1747 H 0.43488 0.14324 0.47884 0.0
H1748 H 0.39889 0.07721 0.58418 0.0
C1749 C 0.33231 0.13335 0.64047 0.0
C1750 C 0.32707 0.15841 0.63127 0.0
C1751 C 0.34459 0.17948 0.59825 0.0
C1752 C 0.36563 0.17478 0.57332 0.0
C1753 C 0.36941 0.14926 0.58235 0.0
C1754 C 0.35394 0.1294 0.61595 0.0
C1755 C 0.36241 0.10386 0.61901 0.0
C1756 C 0.379 0.10609 0.66152 0.0
C1757 C 0.33342 0.07156 0.61341 0.0
C1758 C 0.38456 0.11197 0.58119 0.0
C1759 C 0.3878 0.13801 0.56025 0.0
C1760 C 0.40541 0.14908 0.52303 0.0
C1761 C 0.4208 0.13386 0.50741 0.0
C1762 C 0.41936 0.10797 0.52919 0.0
C1763 C 0.40067 0.09685 0.56665 0.0
H1764 H 0.90619 0.31937 0.59959 0.0
H1765 H 0.94745 0.32062 0.47677 0.0
H1766 H 0.93502 0.26635 0.48812 0.0
H1767 H 0.92966 0.26704 0.65621 0.0
H1768 H 0.89346 0.24751 0.68552 0.0
H1769 H 0.90964 0.28771 0.67044 0.0
H1770 H 0.85777 0.27384 0.63288 0.0
H1771 H 0.84173 0.23346 0.64664 0.0
H1772 H 0.843 0.2447 0.59146 0.0
H1773 H 0.91229 0.21088 0.50759 0.0
H1774 H 0.8885 0.15873 0.53925 0.0
H1775 H 0.86149 0.19132 0.65151 0.0
C1776 C 0.91409 0.30866 0.57628 0.0
C1777 C 0.92904 0.32461 0.53801 0.0
C1778 C 0.93723 0.30927 0.50693 0.0
C1779 C 0.9298 0.27829 0.51289 0.0
C1780 C 0.91392 0.26281 0.55006 0.0
C1781 C 0.90673 0.27756 0.58178 0.0
C1782 C 0.88818 0.25483 0.61761 0.0
C1783 C 0.90632 0.26487 0.65996 0.0
C1784 C 0.85575 0.25153 0.62241 0.0
C1785 C 0.88575 0.22492 0.60076 0.0
C1786 C 0.90063 0.23028 0.56154 0.0
C1787 C 0.90107 0.20655 0.53859 0.0
C1788 C 0.88727 0.17689 0.55687 0.0
C1789 C 0.8732 0.17079 0.59805 0.0
C1790 C 0.87177 0.19508 0.6199 0.0
H1791 H 0.33191 0.18071 0.0829 0.0
H1792 H 0.34637 0.19866 0.21896 0.0
H1793 H 0.38295 0.25468 0.20345 0.0
H1794 H 0.41132 0.2365 0.04786 0.0
H1795 H 0.39742 0.24603 0.00013 0.0
H1796 H 0.37543 0.20784 0.02333 0.0
H1797 H 0.32698 0.21471 0.02682 0.0
H1798 H 0.34902 0.25332 0.00495 0.0
H1799 H 0.32922 0.24725 0.05555 0.0
H1800 H 0.41551 0.31072 0.17053 0.0
H1801 H 0.44513 0.35761 0.12505 0.0
H1802 H 0.40643 0.30087 0.01165 0.0
C1803 C 0.34346 0.19626 0.10951 0.0
C1804 C 0.33668 0.18525 0.15216 0.0
C1805 C 0.35181 0.20642 0.18605 0.0
C1806 C 0.37226 0.23835 0.17743 0.0
C1807 C 0.3773 0.24862 0.13479 0.0
C1808 C 0.36364 0.22785 0.10147 0.0
C1809 C 0.37184 0.24413 0.05846 0.0
C1810 C 0.3901 0.23297 0.03083 0.0
C1811 C 0.34252 0.23957 0.0351 0.0
C1812 C 0.3922 0.27753 0.07238 0.0
C1813 C 0.39513 0.27995 0.11644 0.0
C1814 C 0.41328 0.30887 0.13604 0.0
C1815 C 0.42973 0.33554 0.10993 0.0
C1816 C 0.42802 0.33318 0.06462 0.0
C1817 C 0.4082 0.30374 0.04609 0.0
H1818 H 0.84806 0.15343 0.05881 0.0
H1819 H 0.83849 0.17081 0.19225 0.0
H1820 H 0.78202 0.15109 0.18101 0.0
H1821 H 0.79239 0.17623 0.01716 0.0
H1822 H 0.77859 0.14696 0.97594 0.0
H1823 H 0.81809 0.16394 -0.00517 0.0
H1824 H 0.80869 0.10889 0.01222 0.0
H1825 H 0.769 0.09186 -0.00588 0.0
H1826 H 0.77713 0.08386 0.0474 0.0
H1827 H 0.72503 0.12368 0.156 0.0
H1828 H 0.67512 0.10215 0.11688 0.0
H1829 H 0.72281 0.10596 -0.00147 0.0
C1830 C 0.83423 0.15405 0.0853 0.0
C1831 C 0.84772 0.16424 0.12626 0.0
C1832 C 0.82879 0.16394 0.16042 0.0
C1833 C 0.79661 0.15231 0.15439 0.0
C1834 C 0.78381 0.14142 0.11386 0.0
C1835 C 0.80229 0.14311 0.0796 0.0
C1836 C 0.78306 0.13039 0.03912 0.0
C1837 C 0.79366 0.1559 0.00474 0.0
C1838 C 0.78457 0.10207 0.02224 0.0
C1839 C 0.75074 0.12094 0.05591 0.0
C1840 C 0.75153 0.12692 0.09927 0.0
C1841 C 0.7243 0.11926 0.12198 0.0
C1842 C 0.69589 0.10657 0.09953 0.0
C1843 C 0.69482 0.10207 0.05459 0.0
C1844 C 0.72269 0.10884 0.03288 0.0
H1845 H 0.90778 0.61561 0.0087 0.0
H1846 H 0.92345 0.5783 0.12558 0.0
H1847 H 0.905 0.60808 0.16806 0.0
H1848 H 0.93295 0.69359 0.05142 0.0
H1849 H 0.9043 0.6975 0.02074 0.0
H1850 H 0.91989 0.67405 0.00066 0.0
H1851 H 0.86371 0.62745 -0.0061 0.0
H1852 H 0.84802 0.65051 0.01514 0.0
H1853 H 0.83881 0.61427 0.04046 0.0
H1854 H 0.87985 0.63921 0.19766 0.0
H1855 H 0.86081 0.67619 0.21158 0.0
H1856 H 0.86455 0.69494 0.07563 0.0
C1857 C 0.90806 0.61423 0.04329 0.0
C1858 C 0.9174 0.59466 0.06366 0.0
C1859 C 0.91701 0.59343 0.10906 0.0
C1860 C 0.90611 0.61 0.1335 0.0
C1861 C 0.89599 0.62814 0.11226 0.0
C1862 C 0.89773 0.63097 0.06815 0.0
C1863 C 0.88617 0.65248 0.05292 0.0
C1864 C 0.91239 0.68111 0.0301 0.0
C1865 C 0.85748 0.63513 0.02389 0.0
C1866 C 0.87749 0.66125 0.09521 0.0
C1867 C 0.88275 0.64659 0.12914 0.0
C1868 C 0.87586 0.65089 0.17123 0.0
C1869 C 0.86461 0.6716 0.17887 0.0
C1870 C 0.86073 0.68812 0.14471 0.0
C1871 C 0.86686 0.68234 0.10238 0.0
loop_
_geom_bond_atom_site_label_1
_geom_bond_atom_site_label_2
_geom_bond_distance
_geom_bond_site_symmetry_2
_ccdc_geom_bond_type
O0 Zn1 1.953 . S
O0 C16 1.225 1_556 S
Zn1 O0 1.953 . S
Zn1 O2 1.949 1_556 S
Zn1 O8 1.919 . S
Zn1 O13 1.924 . S
O2 Zn1 1.949 1_554 S
O2 Zn3 1.923 1_554 S
O2 Zn4 1.950 . S
O2 Zn5 1.945 . S
Zn3 O2 1.923 1_556 S
Zn3 O6 1.933 . S
Zn3 O9 1.941 . S
Zn3 O10 1.965 . S
Zn4 O2 1.950 . S
Zn4 O11 1.938 . S
Zn4 O12 1.906 . S
Zn4 O22 1.953 . S
Zn5 O2 1.945 . S
Zn5 O7 1.932 . S
Zn5 O14 1.977 . S
Zn5 O15 1.910 . S
O6 Zn3 1.933 . S
O6 C17 1.226 . S
O7 Zn5 1.932 . S
O7 C17 1.307 1_554 S
O8 Zn1 1.919 . S
O8 C19 1.253 . S
O9 Zn3 1.941 . S
O9 C19 1.283 . S
O10 Zn3 1.965 . S
O10 C18 1.303 1_556 S
O11 Zn4 1.938 . S
O11 C18 1.247 . S
O12 Zn4 1.906 . S
O12 C20 1.304 . S
O13 Zn1 1.924 . S
O13 C21 1.311 1_556 S
O14 Zn5 1.977 . S
O14 C20 1.272 . S
O15 Zn5 1.910 . S
O15 C21 1.231 . S
C16 O0 1.225 1_554 S
C16 O22 1.298 . S
C17 O6 1.226 . S
C17 O7 1.307 1_556 S
C18 O10 1.303 1_554 S
C18 O11 1.247 . S
C19 O8 1.253 . S
C19 O9 1.283 . S
C20 O12 1.304 . S
C20 O14 1.272 . S
C21 O13 1.311 1_554 S
C21 O15 1.231 . S
O22 Zn4 1.953 . S
O22 C16 1.298 . S
O23 Zn24 1.953 . S
O23 C39 1.225 1_556 S
Zn24 O23 1.953 . S
Zn24 O25 1.949 1_556 S
Zn24 O31 1.919 . S
Zn24 O36 1.924 . S
O25 Zn24 1.949 1_554 S
O25 Zn26 1.923 1_554 S
O25 Zn27 1.950 . S
O25 Zn28 1.945 . S
Zn26 O25 1.923 1_556 S
Zn26 O29 1.933 . S
Zn26 O32 1.941 . S
Zn26 O33 1.965 . S
Zn27 O25 1.950 . S
Zn27 O34 1.938 . S
Zn27 O35 1.906 . S
Zn27 O45 1.953 . S
Zn28 O25 1.945 . S
Zn28 O30 1.932 . S
Zn28 O37 1.977 . S
Zn28 O38 1.910 . S
O29 Zn26 1.933 . S
O29 C40 1.226 . S
O30 Zn28 1.932 . S
O30 C40 1.307 1_554 S
O31 Zn24 1.919 . S
O31 C42 1.253 . S
O32 Zn26 1.941 . S
O32 C42 1.283 . S
O33 Zn26 1.965 . S
O33 C41 1.303 1_556 S
O34 Zn27 1.938 . S
O34 C41 1.247 . S
O35 Zn27 1.906 . S
O35 C43 1.304 . S
O36 Zn24 1.924 . S
O36 C44 1.311 1_556 S
O37 Zn28 1.977 . S
O37 C43 1.272 . S
O38 Zn28 1.910 . S
O38 C44 1.231 . S
C39 O23 1.225 1_554 S
C39 O45 1.298 . S
C40 O29 1.226 . S
C40 O30 1.307 1_556 S
C41 O33 1.303 1_554 S
C41 O34 1.247 . S
C42 O31 1.253 . S
C42 O32 1.283 . S
C43 O35 1.304 . S
C43 O37 1.272 . S
C44 O36 1.311 1_554 S
C44 O38 1.231 . S
O45 Zn27 1.953 . S
O45 C39 1.298 . S
O46 Zn47 1.953 . S
O46 C62 1.225 1_556 S
Zn47 O46 1.953 . S
Zn47 O48 1.949 1_556 S
Zn47 O54 1.919 . S
Zn47 O59 1.924 . S
O48 Zn47 1.949 1_554 S
O48 Zn49 1.923 1_554 S
O48 Zn50 1.950 . S
O48 Zn51 1.945 . S
Zn49 O48 1.923 1_556 S
Zn49 O52 1.933 . S
Zn49 O55 1.941 . S
Zn49 O56 1.965 . S
Zn50 O48 1.950 . S
Zn50 O57 1.938 . S
Zn50 O58 1.906 . S
Zn50 O68 1.953 . S
Zn51 O48 1.945 . S
Zn51 O53 1.932 . S
Zn51 O60 1.977 . S
Zn51 O61 1.910 . S
O52 Zn49 1.933 . S
O52 C63 1.226 . S
O53 Zn51 1.932 . S
O53 C63 1.307 1_554 S
O54 Zn47 1.919 . S
O54 C65 1.253 . S
O55 Zn49 1.941 . S
O55 C65 1.283 . S
O56 Zn49 1.965 . S
O56 C64 1.303 1_556 S
O57 Zn50 1.938 . S
O57 C64 1.247 . S
O58 Zn50 1.906 . S
O58 C66 1.304 . S
O59 Zn47 1.924 . S
O59 C67 1.311 1_556 S
O60 Zn51 1.977 . S
O60 C66 1.272 . S
O61 Zn51 1.910 . S
O61 C67 1.231 . S
C62 O46 1.225 1_554 S
C62 O68 1.298 . S
C63 O52 1.226 . S
C63 O53 1.307 1_556 S
C64 O56 1.303 1_554 S
C64 O57 1.247 . S
C65 O54 1.253 . S
C65 O55 1.283 . S
C66 O58 1.304 . S
C66 O60 1.272 . S
C67 O59 1.311 1_554 S
C67 O61 1.231 . S
O68 Zn50 1.953 . S
O68 C62 1.298 . S
O69 Zn70 1.953 . S
O69 C85 1.225 . S
Zn70 O69 1.953 . S
Zn70 O71 1.949 . S
Zn70 O77 1.919 . S
Zn70 O82 1.924 . S
O71 Zn70 1.949 . S
O71 Zn72 1.923 . S
O71 Zn73 1.950 . S
O71 Zn74 1.945 . S
Zn72 O71 1.923 . S
Zn72 O75 1.933 . S
Zn72 O78 1.941 . S
Zn72 O79 1.965 . S
Zn73 O71 1.950 . S
Zn73 O80 1.938 . S
Zn73 O81 1.906 . S
Zn73 O91 1.953 . S
Zn74 O71 1.945 . S
Zn74 O76 1.932 . S
Zn74 O83 1.977 . S
Zn74 O84 1.910 . S
O75 Zn72 1.933 . S
O75 C86 1.226 . S
O76 Zn74 1.932 . S
O76 C86 1.307 . S
O77 Zn70 1.919 . S
O77 C88 1.253 . S
O78 Zn72 1.941 . S
O78 C88 1.283 . S
O79 Zn72 1.965 . S
O79 C87 1.303 . S
O80 Zn73 1.938 . S
O80 C87 1.247 . S
O81 Zn73 1.906 . S
O81 C89 1.304 . S
O82 Zn70 1.924 . S
O82 C90 1.311 . S
O83 Zn74 1.977 . S
O83 C89 1.272 . S
O84 Zn74 1.910 . S
O84 C90 1.231 . S
C85 O69 1.225 . S
C85 O91 1.298 . S
C86 O75 1.226 . S
C86 O76 1.307 . S
C87 O79 1.303 . S
C87 O80 1.247 . S
C88 O77 1.253 . S
C88 O78 1.283 . S
C89 O81 1.304 . S
C89 O83 1.272 . S
C90 O82 1.311 . S
C90 O84 1.231 . S
O91 Zn73 1.953 . S
O91 C85 1.298 . S
O92 Zn93 1.953 . S
O92 C108 1.225 . S
Zn93 O92 1.953 . S
Zn93 O94 1.949 . S
Zn93 O100 1.919 . S
Zn93 O105 1.924 . S
O94 Zn93 1.949 . S
O94 Zn95 1.923 . S
O94 Zn96 1.950 . S
O94 Zn97 1.945 . S
Zn95 O94 1.923 . S
Zn95 O98 1.933 . S
Zn95 O101 1.941 . S
Zn95 O102 1.965 . S
Zn96 O94 1.950 . S
Zn96 O103 1.938 . S
Zn96 O104 1.906 . S
Zn96 O114 1.953 . S
Zn97 O94 1.945 . S
Zn97 O99 1.932 . S
Zn97 O106 1.977 . S
Zn97 O107 1.910 . S
O98 Zn95 1.933 . S
O98 C109 1.226 . S
O99 Zn97 1.932 . S
O99 C109 1.307 . S
O100 Zn93 1.919 . S
O100 C111 1.253 . S
O101 Zn95 1.941 . S
O101 C111 1.283 . S
O102 Zn95 1.965 . S
O102 C110 1.303 . S
O103 Zn96 1.938 . S
O103 C110 1.247 . S
O104 Zn96 1.906 . S
O104 C112 1.304 . S
O105 Zn93 1.924 . S
O105 C113 1.311 . S
O106 Zn97 1.977 . S
O106 C112 1.272 . S
O107 Zn97 1.910 . S
O107 C113 1.231 . S
C108 O92 1.225 . S
C108 O114 1.298 . S
C109 O98 1.226 . S
C109 O99 1.307 . S
C110 O102 1.303 . S
C110 O103 1.247 . S
C111 O100 1.253 . S
C111 O101 1.283 . S
C112 O104 1.304 . S
C112 O106 1.272 . S
C113 O105 1.311 . S
C113 O107 1.231 . S
O114 Zn96 1.953 . S
O114 C108 1.298 . S
O115 Zn116 1.953 . S
O115 C131 1.225 . S
Zn116 O115 1.953 . S
Zn116 O117 1.949 . S
Zn116 O123 1.919 . S
Zn116 O128 1.924 . S
O117 Zn116 1.949 . S
O117 Zn118 1.923 . S
O117 Zn119 1.950 . S
O117 Zn120 1.945 . S
Zn118 O117 1.923 . S
Zn118 O121 1.933 . S
Zn118 O124 1.941 . S
Zn118 O125 1.965 . S
Zn119 O117 1.950 . S
Zn119 O126 1.938 . S
Zn119 O127 1.906 . S
Zn119 O137 1.953 . S
Zn120 O117 1.945 . S
Zn120 O122 1.932 . S
Zn120 O129 1.977 . S
Zn120 O130 1.910 . S
O121 Zn118 1.933 . S
O121 C132 1.226 . S
O122 Zn120 1.932 . S
O122 C132 1.307 . S
O123 Zn116 1.919 . S
O123 C134 1.253 . S
O124 Zn118 1.941 . S
O124 C134 1.283 . S
O125 Zn118 1.965 . S
O125 C133 1.303 . S
O126 Zn119 1.938 . S
O126 C133 1.247 . S
O127 Zn119 1.906 . S
O127 C135 1.304 . S
O128 Zn116 1.924 . S
O128 C136 1.311 . S
O129 Zn120 1.977 . S
O129 C135 1.272 . S
O130 Zn120 1.910 . S
O130 C136 1.231 . S
C131 O115 1.225 . S
C131 O137 1.298 . S
C132 O121 1.226 . S
C132 O122 1.307 . S
C133 O125 1.303 . S
C133 O126 1.247 . S
C134 O123 1.253 . S
C134 O124 1.283 . S
C135 O127 1.304 . S
C135 O129 1.272 . S
C136 O128 1.311 . S
C136 O130 1.231 . S
O137 Zn119 1.953 . S
O137 C131 1.298 . S
O138 Zn139 1.953 . S
O138 C154 1.225 . S
Zn139 O138 1.953 . S
Zn139 O140 1.949 . S
Zn139 O146 1.919 . S
Zn139 O151 1.924 . S
O140 Zn139 1.949 . S
O140 Zn141 1.923 . S
O140 Zn142 1.950 . S
O140 Zn143 1.945 . S
Zn141 O140 1.923 . S
Zn141 O144 1.933 . S
Zn141 O147 1.941 . S
Zn141 O148 1.965 . S
Zn142 O140 1.950 . S
Zn142 O149 1.938 . S
Zn142 O150 1.906 . S
Zn142 O160 1.953 . S
Zn143 O140 1.945 . S
Zn143 O145 1.932 . S
Zn143 O152 1.977 . S
Zn143 O153 1.910 . S
O144 Zn141 1.933 . S
O144 C155 1.226 . S
O145 Zn143 1.932 . S
O145 C155 1.307 . S
O146 Zn139 1.919 . S
O146 C157 1.253 . S
O147 Zn141 1.941 . S
O147 C157 1.283 . S
O148 Zn141 1.965 . S
O148 C156 1.303 . S
O149 Zn142 1.938 . S
O149 C156 1.247 . S
O150 Zn142 1.906 . S
O150 C158 1.304 . S
O151 Zn139 1.924 . S
O151 C159 1.311 . S
O152 Zn143 1.977 . S
O152 C158 1.272 . S
O153 Zn143 1.910 . S
O153 C159 1.231 . S
C154 O138 1.225 . S
C154 O160 1.298 . S
C155 O144 1.226 . S
C155 O145 1.307 . S
C156 O148 1.303 . S
C156 O149 1.247 . S
C157 O146 1.253 . S
C157 O147 1.283 . S
C158 O150 1.304 . S
C158 O152 1.272 . S
C159 O151 1.311 . S
C159 O153 1.231 . S
O160 Zn142 1.953 . S
O160 C154 1.298 . S
O161 Zn162 1.953 . S
O161 C177 1.225 . S
Zn162 O161 1.953 . S
Zn162 O163 1.949 . S
Zn162 O169 1.919 . S
Zn162 O174 1.924 . S
O163 Zn162 1.949 . S
O163 Zn164 1.923 . S
O163 Zn165 1.950 . S
O163 Zn166 1.945 . S
Zn164 O163 1.923 . S
Zn164 O167 1.933 . S
Zn164 O170 1.941 . S
Zn164 O171 1.965 . S
Zn165 O163 1.950 . S
Zn165 O172 1.938 . S
Zn165 O173 1.906 . S
Zn165 O183 1.953 . S
Zn166 O163 1.945 . S
Zn166 O168 1.932 . S
Zn166 O175 1.977 . S
Zn166 O176 1.910 . S
O167 Zn164 1.933 . S
O167 C178 1.226 . S
O168 Zn166 1.932 . S
O168 C178 1.307 . S
O169 Zn162 1.919 . S
O169 C180 1.253 . S
O170 Zn164 1.941 . S
O170 C180 1.283 . S
O171 Zn164 1.965 . S
O171 C179 1.303 . S
O172 Zn165 1.938 . S
O172 C179 1.247 . S
O173 Zn165 1.906 . S
O173 C181 1.304 . S
O174 Zn162 1.924 . S
O174 C182 1.311 . S
O175 Zn166 1.977 . S
O175 C181 1.272 . S
O176 Zn166 1.910 . S
O176 C182 1.231 . S
C177 O161 1.225 . S
C177 O183 1.298 . S
C178 O167 1.226 . S
C178 O168 1.307 . S
C179 O171 1.303 . S
C179 O172 1.247 . S
C180 O169 1.253 . S
C180 O170 1.283 . S
C181 O173 1.304 . S
C181 O175 1.272 . S
C182 O174 1.311 . S
C182 O176 1.231 . S
O183 Zn165 1.953 . S
O183 C177 1.298 . S
O184 Zn185 1.953 . S
O184 C200 1.225 . S
Zn185 O184 1.953 . S
Zn185 O186 1.949 . S
Zn185 O192 1.919 . S
Zn185 O197 1.924 . S
O186 Zn185 1.949 . S
O186 Zn187 1.923 . S
O186 Zn188 1.950 . S
O186 Zn189 1.945 . S
Zn187 O186 1.923 . S
Zn187 O190 1.933 . S
Zn187 O193 1.941 . S
Zn187 O194 1.965 . S
Zn188 O186 1.950 . S
Zn188 O195 1.938 . S
Zn188 O196 1.906 . S
Zn188 O206 1.953 . S
Zn189 O186 1.945 . S
Zn189 O191 1.932 . S
Zn189 O198 1.977 . S
Zn189 O199 1.910 . S
O190 Zn187 1.933 . S
O190 C201 1.226 . S
O191 Zn189 1.932 . S
O191 C201 1.307 . S
O192 Zn185 1.919 . S
O192 C203 1.253 . S
O193 Zn187 1.941 . S
O193 C203 1.283 . S
O194 Zn187 1.965 . S
O194 C202 1.303 . S
O195 Zn188 1.938 . S
O195 C202 1.247 . S
O196 Zn188 1.906 . S
O196 C204 1.304 . S
O197 Zn185 1.924 . S
O197 C205 1.311 . S
O198 Zn189 1.977 . S
O198 C204 1.272 . S
O199 Zn189 1.910 . S
O199 C205 1.231 . S
C200 O184 1.225 . S
C200 O206 1.298 . S
C201 O190 1.226 . S
C201 O191 1.307 . S
C202 O194 1.303 . S
C202 O195 1.247 . S
C203 O192 1.253 . S
C203 O193 1.283 . S
C204 O196 1.304 . S
C204 O198 1.272 . S
C205 O197 1.311 . S
C205 O199 1.231 . S
O206 Zn188 1.953 . S
O206 C200 1.298 . S
O207 Zn208 1.953 . S
O207 C223 1.225 . S
Zn208 O207 1.953 . S
Zn208 O209 1.949 . S
Zn208 O215 1.919 . S
Zn208 O220 1.924 . S
O209 Zn208 1.949 . S
O209 Zn210 1.923 . S
O209 Zn211 1.950 . S
O209 Zn212 1.945 . S
Zn210 O209 1.923 . S
Zn210 O213 1.933 . S
Zn210 O216 1.941 . S
Zn210 O217 1.965 . S
Zn211 O209 1.950 . S
Zn211 O218 1.938 . S
Zn211 O219 1.906 . S
Zn211 O229 1.953 . S
Zn212 O209 1.945 . S
Zn212 O214 1.932 . S
Zn212 O221 1.977 . S
Zn212 O222 1.910 . S
O213 Zn210 1.933 . S
O213 C224 1.226 . S
O214 Zn212 1.932 . S
O214 C224 1.307 . S
O215 Zn208 1.919 . S
O215 C226 1.253 . S
O216 Zn210 1.941 . S
O216 C226 1.283 . S
O217 Zn210 1.965 . S
O217 C225 1.303 . S
O218 Zn211 1.938 . S
O218 C225 1.247 . S
O219 Zn211 1.906 . S
O219 C227 1.304 . S
O220 Zn208 1.924 . S
O220 C228 1.311 . S
O221 Zn212 1.977 . S
O221 C227 1.272 . S
O222 Zn212 1.910 . S
O222 C228 1.231 . S
C223 O207 1.225 . S
C223 O229 1.298 . S
C224 O213 1.226 . S
C224 O214 1.307 . S
C225 O217 1.303 . S
C225 O218 1.247 . S
C226 O215 1.253 . S
C226 O216 1.283 . S
C227 O219 1.304 . S
C227 O221 1.272 . S
C228 O220 1.311 . S
C228 O222 1.231 . S
O229 Zn211 1.953 . S
O229 C223 1.298 . S
O230 Zn231 1.953 . S
O230 C246 1.225 . S
Zn231 O230 1.953 . S
Zn231 O232 1.949 . S
Zn231 O238 1.919 . S
Zn231 O243 1.924 . S
O232 Zn231 1.949 . S
O232 Zn233 1.923 . S
O232 Zn234 1.950 . S
O232 Zn235 1.945 . S
Zn233 O232 1.923 . S
Zn233 O236 1.933 . S
Zn233 O239 1.941 . S
Zn233 O240 1.965 . S
Zn234 O232 1.950 . S
Zn234 O241 1.938 . S
Zn234 O242 1.906 . S
Zn234 O252 1.953 . S
Zn235 O232 1.945 . S
Zn235 O237 1.932 . S
Zn235 O244 1.977 . S
Zn235 O245 1.910 . S
O236 Zn233 1.933 . S
O236 C247 1.226 . S
O237 Zn235 1.932 . S
O237 C247 1.307 . S
O238 Zn231 1.919 . S
O238 C249 1.253 . S
O239 Zn233 1.941 . S
O239 C249 1.283 . S
O240 Zn233 1.965 . S
O240 C248 1.303 . S
O241 Zn234 1.938 . S
O241 C248 1.247 . S
O242 Zn234 1.906 . S
O242 C250 1.304 . S
O243 Zn231 1.924 . S
O243 C251 1.311 . S
O244 Zn235 1.977 . S
O244 C250 1.272 . S
O245 Zn235 1.910 . S
O245 C251 1.231 . S
C246 O230 1.225 . S
C246 O252 1.298 . S
C247 O236 1.226 . S
C247 O237 1.307 . S
C248 O240 1.303 . S
C248 O241 1.247 . S
C249 O238 1.253 . S
C249 O239 1.283 . S
C250 O242 1.304 . S
C250 O244 1.272 . S
C251 O243 1.311 . S
C251 O245 1.231 . S
O252 Zn234 1.953 . S
O252 C246 1.298 . S
O253 Zn254 1.953 . S
O253 C269 1.225 . S
Zn254 O253 1.953 . S
Zn254 O255 1.949 . S
Zn254 O261 1.919 . S
Zn254 O266 1.924 . S
O255 Zn254 1.949 . S
O255 Zn256 1.923 . S
O255 Zn257 1.950 . S
O255 Zn258 1.945 . S
Zn256 O255 1.923 . S
Zn256 O259 1.933 . S
Zn256 O262 1.941 . S
Zn256 O263 1.965 . S
Zn257 O255 1.950 . S
Zn257 O264 1.938 . S
Zn257 O265 1.906 . S
Zn257 O275 1.953 . S
Zn258 O255 1.945 . S
Zn258 O260 1.932 . S
Zn258 O267 1.977 . S
Zn258 O268 1.910 . S
O259 Zn256 1.933 . S
O259 C270 1.226 . S
O260 Zn258 1.932 . S
O260 C270 1.307 . S
O261 Zn254 1.919 . S
O261 C272 1.253 . S
O262 Zn256 1.941 . S
O262 C272 1.283 . S
O263 Zn256 1.965 . S
O263 C271 1.303 . S
O264 Zn257 1.938 . S
O264 C271 1.247 . S
O265 Zn257 1.906 . S
O265 C273 1.304 . S
O266 Zn254 1.924 . S
O266 C274 1.311 . S
O267 Zn258 1.977 . S
O267 C273 1.272 . S
O268 Zn258 1.910 . S
O268 C274 1.231 . S
C269 O253 1.225 . S
C269 O275 1.298 . S
C270 O259 1.226 . S
C270 O260 1.307 . S
C271 O263 1.303 . S
C271 O264 1.247 . S
C272 O261 1.253 . S
C272 O262 1.283 . S
C273 O265 1.304 . S
C273 O267 1.272 . S
C274 O266 1.311 . S
C274 O268 1.231 . S
O275 Zn257 1.953 . S
O275 C269 1.298 . S
O276 Zn277 1.953 . S
O276 C292 1.225 . S
Zn277 O276 1.953 . S
Zn277 O278 1.949 . S
Zn277 O284 1.919 . S
Zn277 O289 1.924 . S
O278 Zn277 1.949 . S
O278 Zn279 1.923 . S
O278 Zn280 1.950 . S
O278 Zn281 1.945 . S
Zn279 O278 1.923 . S
Zn279 O282 1.933 . S
Zn279 O285 1.941 . S
Zn279 O286 1.965 . S
Zn280 O278 1.950 . S
Zn280 O287 1.938 . S
Zn280 O288 1.906 . S
Zn280 O298 1.953 . S
Zn281 O278 1.945 . S
Zn281 O283 1.932 . S
Zn281 O290 1.977 . S
Zn281 O291 1.910 . S
O282 Zn279 1.933 . S
O282 C293 1.226 . S
O283 Zn281 1.932 . S
O283 C293 1.307 . S
O284 Zn277 1.919 . S
O284 C295 1.253 . S
O285 Zn279 1.941 . S
O285 C295 1.283 . S
O286 Zn279 1.965 . S
O286 C294 1.303 . S
O287 Zn280 1.938 . S
O287 C294 1.247 . S
O288 Zn280 1.906 . S
O288 C296 1.304 . S
O289 Zn277 1.924 . S
O289 C297 1.311 . S
O290 Zn281 1.977 . S
O290 C296 1.272 . S
O291 Zn281 1.910 . S
O291 C297 1.231 . S
C292 O276 1.225 . S
C292 O298 1.298 . S
C293 O282 1.226 . S
C293 O283 1.307 . S
C294 O286 1.303 . S
C294 O287 1.247 . S
C295 O284 1.253 . S
C295 O285 1.283 . S
C296 O288 1.304 . S
C296 O290 1.272 . S
C297 O289 1.311 . S
C297 O291 1.231 . S
O298 Zn280 1.953 . S
O298 C292 1.298 . S
O299 Zn300 1.953 . S
O299 C315 1.225 . S
Zn300 O299 1.953 . S
Zn300 O301 1.949 . S
Zn300 O307 1.919 . S
Zn300 O312 1.924 . S
O301 Zn300 1.949 . S
O301 Zn302 1.923 . S
O301 Zn303 1.950 . S
O301 Zn304 1.945 . S
Zn302 O301 1.923 . S
Zn302 O305 1.933 . S
Zn302 O308 1.941 . S
Zn302 O309 1.965 . S
Zn303 O301 1.950 . S
Zn303 O310 1.938 . S
Zn303 O311 1.906 . S
Zn303 O321 1.953 . S
Zn304 O301 1.945 . S
Zn304 O306 1.932 . S
Zn304 O313 1.977 . S
Zn304 O314 1.910 . S
O305 Zn302 1.933 . S
O305 C316 1.226 . S
O306 Zn304 1.932 . S
O306 C316 1.307 . S
O307 Zn300 1.919 . S
O307 C318 1.253 . S
O308 Zn302 1.941 . S
O308 C318 1.283 . S
O309 Zn302 1.965 . S
O309 C317 1.303 . S
O310 Zn303 1.938 . S
O310 C317 1.247 . S
O311 Zn303 1.906 . S
O311 C319 1.304 . S
O312 Zn300 1.924 . S
O312 C320 1.311 . S
O313 Zn304 1.977 . S
O313 C319 1.272 . S
O314 Zn304 1.910 . S
O314 C320 1.231 . S
C315 O299 1.225 . S
C315 O321 1.298 . S
C316 O305 1.226 . S
C316 O306 1.307 . S
C317 O309 1.303 . S
C317 O310 1.247 . S
C318 O307 1.253 . S
C318 O308 1.283 . S
C319 O311 1.304 . S
C319 O313 1.272 . S
C320 O312 1.311 . S
C320 O314 1.231 . S
O321 Zn303 1.953 . S
O321 C315 1.298 . S
O322 Zn323 1.953 . S
O322 C338 1.225 . S
Zn323 O322 1.953 . S
Zn323 O324 1.949 . S
Zn323 O330 1.919 . S
Zn323 O335 1.924 . S
O324 Zn323 1.949 . S
O324 Zn325 1.923 . S
O324 Zn326 1.950 . S
O324 Zn327 1.945 . S
Zn325 O324 1.923 . S
Zn325 O328 1.933 . S
Zn325 O331 1.941 . S
Zn325 O332 1.965 . S
Zn326 O324 1.950 . S
Zn326 O333 1.938 . S
Zn326 O334 1.906 . S
Zn326 O344 1.953 . S
Zn327 O324 1.945 . S
Zn327 O329 1.932 . S
Zn327 O336 1.977 . S
Zn327 O337 1.910 . S
O328 Zn325 1.933 . S
O328 C339 1.226 . S
O329 Zn327 1.932 . S
O329 C339 1.307 . S
O330 Zn323 1.919 . S
O330 C341 1.253 . S
O331 Zn325 1.941 . S
O331 C341 1.283 . S
O332 Zn325 1.965 . S
O332 C340 1.303 . S
O333 Zn326 1.938 . S
O333 C340 1.247 . S
O334 Zn326 1.906 . S
O334 C342 1.304 . S
O335 Zn323 1.924 . S
O335 C343 1.311 . S
O336 Zn327 1.977 . S
O336 C342 1.272 . S
O337 Zn327 1.910 . S
O337 C343 1.231 . S
C338 O322 1.225 . S
C338 O344 1.298 . S
C339 O328 1.226 . S
C339 O329 1.307 . S
C340 O332 1.303 . S
C340 O333 1.247 . S
C341 O330 1.253 . S
C341 O331 1.283 . S
C342 O334 1.304 . S
C342 O336 1.272 . S
C343 O335 1.311 . S
C343 O337 1.231 . S
O344 Zn326 1.953 . S
O344 C338 1.298 . S
O345 Zn346 1.953 . S
O345 C361 1.225 . S
Zn346 O345 1.953 . S
Zn346 O347 1.949 . S
Zn346 O353 1.919 . S
Zn346 O358 1.924 . S
O347 Zn346 1.949 . S
O347 Zn348 1.923 . S
O347 Zn349 1.950 . S
O347 Zn350 1.945 . S
Zn348 O347 1.923 . S
Zn348 O351 1.933 . S
Zn348 O354 1.941 . S
Zn348 O355 1.965 . S
Zn349 O347 1.950 . S
Zn349 O356 1.938 . S
Zn349 O357 1.906 . S
Zn349 O367 1.953 . S
Zn350 O347 1.945 . S
Zn350 O352 1.932 . S
Zn350 O359 1.977 . S
Zn350 O360 1.910 . S
O351 Zn348 1.933 . S
O351 C362 1.226 . S
O352 Zn350 1.932 . S
O352 C362 1.307 . S
O353 Zn346 1.919 . S
O353 C364 1.253 . S
O354 Zn348 1.941 . S
O354 C364 1.283 . S
O355 Zn348 1.965 . S
O355 C363 1.303 . S
O356 Zn349 1.938 . S
O356 C363 1.247 . S
O357 Zn349 1.906 . S
O357 C365 1.304 . S
O358 Zn346 1.924 . S
O358 C366 1.311 . S
O359 Zn350 1.977 . S
O359 C365 1.272 . S
O360 Zn350 1.910 . S
O360 C366 1.231 . S
C361 O345 1.225 . S
C361 O367 1.298 . S
C362 O351 1.226 . S
C362 O352 1.307 . S
C363 O355 1.303 . S
C363 O356 1.247 . S
C364 O353 1.253 . S
C364 O354 1.283 . S
C365 O357 1.304 . S
C365 O359 1.272 . S
C366 O358 1.311 . S
C366 O360 1.231 . S
O367 Zn349 1.953 . S
O367 C361 1.298 . S
O368 Zn369 1.953 . S
O368 C384 1.225 . S
Zn369 O368 1.953 . S
Zn369 O370 1.949 . S
Zn369 O376 1.919 . S
Zn369 O381 1.924 . S
O370 Zn369 1.949 . S
O370 Zn371 1.923 . S
O370 Zn372 1.950 . S
O370 Zn373 1.945 . S
Zn371 O370 1.923 . S
Zn371 O374 1.933 . S
Zn371 O377 1.941 . S
Zn371 O378 1.965 . S
Zn372 O370 1.950 . S
Zn372 O379 1.938 . S
Zn372 O380 1.906 . S
Zn372 O390 1.953 . S
Zn373 O370 1.945 . S
Zn373 O375 1.932 . S
Zn373 O382 1.977 . S
Zn373 O383 1.910 . S
O374 Zn371 1.933 . S
O374 C385 1.226 . S
O375 Zn373 1.932 . S
O375 C385 1.307 . S
O376 Zn369 1.919 . S
O376 C387 1.253 . S
O377 Zn371 1.941 . S
O377 C387 1.283 . S
O378 Zn371 1.965 . S
O378 C386 1.303 . S
O379 Zn372 1.938 . S
O379 C386 1.247 . S
O380 Zn372 1.906 . S
O380 C388 1.304 . S
O381 Zn369 1.924 . S
O381 C389 1.311 . S
O382 Zn373 1.977 . S
O382 C388 1.272 . S
O383 Zn373 1.910 . S
O383 C389 1.231 . S
C384 O368 1.225 . S
C384 O390 1.298 . S
C385 O374 1.226 . S
C385 O375 1.307 . S
C386 O378 1.303 . S
C386 O379 1.247 . S
C387 O376 1.253 . S
C387 O377 1.283 . S
C388 O380 1.304 . S
C388 O382 1.272 . S
C389 O381 1.311 . S
C389 O383 1.231 . S
O390 Zn372 1.953 . S
O390 C384 1.298 . S
O391 Zn392 1.953 . S
O391 C407 1.225 . S
Zn392 O391 1.953 . S
Zn392 O393 1.949 . S
Zn392 O399 1.919 . S
Zn392 O404 1.924 . S
O393 Zn392 1.949 . S
O393 Zn394 1.923 . S
O393 Zn395 1.950 . S
O393 Zn396 1.945 . S
Zn394 O393 1.923 . S
Zn394 O397 1.933 . S
Zn394 O400 1.941 . S
Zn394 O401 1.965 . S
Zn395 O393 1.950 . S
Zn395 O402 1.938 . S
Zn395 O403 1.906 . S
Zn395 O413 1.953 . S
Zn396 O393 1.945 . S
Zn396 O398 1.932 . S
Zn396 O405 1.977 . S
Zn396 O406 1.910 . S
O397 Zn394 1.933 . S
O397 C408 1.226 . S
O398 Zn396 1.932 . S
O398 C408 1.307 . S
O399 Zn392 1.919 . S
O399 C410 1.253 . S
O400 Zn394 1.941 . S
O400 C410 1.283 . S
O401 Zn394 1.965 . S
O401 C409 1.303 . S
O402 Zn395 1.938 . S
O402 C409 1.247 . S
O403 Zn395 1.906 . S
O403 C411 1.304 . S
O404 Zn392 1.924 . S
O404 C412 1.311 . S
O405 Zn396 1.977 . S
O405 C411 1.272 . S
O406 Zn396 1.910 . S
O406 C412 1.231 . S
C407 O391 1.225 . S
C407 O413 1.298 . S
C408 O397 1.226 . S
C408 O398 1.307 . S
C409 O401 1.303 . S
C409 O402 1.247 . S
C410 O399 1.253 . S
C410 O400 1.283 . S
C411 O403 1.304 . S
C411 O405 1.272 . S
C412 O404 1.311 . S
C412 O406 1.231 . S
O413 Zn395 1.953 . S
O413 C407 1.298 . S
H414 C426 0.930 . S
H415 C428 0.930 . S
H416 C429 0.930 . S
H417 C433 0.959 . S
H418 C433 0.959 . S
H419 C433 0.961 . S
H420 C434 0.960 . S
H421 C434 0.961 . S
H422 C434 0.959 1_556 S
H423 C437 0.929 . S
H424 C438 0.931 . S
H425 C440 0.930 . S
C426 H414 0.930 . S
C426 C427 1.399 1_554 S
C426 C431 1.399 . S
C427 C426 1.399 1_556 S
C427 C428 1.376 . S
C428 H415 0.930 . S
C428 C427 1.376 . S
C428 C429 1.388 . S
C429 H416 0.930 . S
C429 C428 1.388 . S
C429 C430 1.390 . S
C430 C429 1.390 . S
C430 C431 1.394 1_556 S
C430 C436 1.465 . S
C431 C426 1.399 . S
C431 C430 1.394 1_554 S
C431 C432 1.516 . S
C432 C431 1.516 . S
C432 C433 1.502 . S
C432 C434 1.561 . S
C432 C435 1.526 . S
C433 H417 0.959 . S
C433 H418 0.959 . S
C433 H419 0.961 . S
C433 C432 1.502 . S
C434 H420 0.960 . S
C434 H421 0.961 . S
C434 H422 0.959 1_554 S
C434 C432 1.561 . S
C435 C432 1.526 . S
C435 C436 1.396 1_554 S
C435 C440 1.390 . S
C436 C430 1.465 . S
C436 C435 1.396 1_556 S
C436 C437 1.399 . S
C437 H423 0.929 . S
C437 C436 1.399 . S
C437 C438 1.385 . S
C438 H424 0.931 . S
C438 C437 1.385 . S
C438 C439 1.389 1_556 S
C439 C438 1.389 1_554 S
C439 C440 1.387 . S
C440 H425 0.930 . S
C440 C435 1.390 . S
C440 C439 1.387 . S
H441 C453 0.930 . S
H442 C455 0.930 . S
H443 C456 0.930 . S
H444 C460 0.959 . S
H445 C460 0.959 . S
H446 C460 0.961 . S
H447 C461 0.960 . S
H448 C461 0.961 . S
H449 C461 0.959 . S
H450 C464 0.929 . S
H451 C465 0.931 . S
H452 C467 0.930 . S
C453 H441 0.930 . S
C453 C454 1.399 . S
C453 C458 1.399 . S
C454 C453 1.399 . S
C454 C455 1.376 1_554 S
C455 H442 0.930 . S
C455 C454 1.376 1_556 S
C455 C456 1.388 . S
C456 H443 0.930 . S
C456 C455 1.388 . S
C456 C457 1.390 . S
C457 C456 1.390 . S
C457 C458 1.394 1_556 S
C457 C463 1.465 . S
C458 C453 1.399 . S
C458 C457 1.394 1_554 S
C458 C459 1.516 . S
C459 C458 1.516 . S
C459 C460 1.502 . S
C459 C461 1.561 . S
C459 C462 1.526 . S
C460 H444 0.959 . S
C460 H445 0.959 . S
C460 H446 0.961 . S
C460 C459 1.502 . S
C461 H447 0.960 . S
C461 H448 0.961 . S
C461 H449 0.959 . S
C461 C459 1.561 . S
C462 C459 1.526 . S
C462 C463 1.396 1_554 S
C462 C467 1.390 . S
C463 C457 1.465 . S
C463 C462 1.396 1_556 S
C463 C464 1.399 . S
C464 H450 0.929 . S
C464 C463 1.399 . S
C464 C465 1.385 . S
C465 H451 0.931 . S
C465 C464 1.385 . S
C465 C466 1.389 . S
C466 C465 1.389 . S
C466 C467 1.387 1_556 S
C467 H452 0.930 . S
C467 C462 1.390 . S
C467 C466 1.387 1_554 S
H468 C480 0.930 . S
H469 C482 0.930 . S
H470 C483 0.930 . S
H471 C487 0.959 . S
H472 C487 0.959 . S
H473 C487 0.961 . S
H474 C488 0.960 . S
H475 C488 0.961 . S
H476 C488 0.959 . S
H477 C491 0.929 . S
H478 C492 0.931 . S
H479 C494 0.930 . S
C480 H468 0.930 . S
C480 C481 1.392 1_556 S
C480 C485 1.399 . S
C481 C480 1.392 1_554 S
C481 C482 1.386 . S
C482 H469 0.930 . S
C482 C481 1.386 . S
C482 C483 1.388 . S
C483 H470 0.930 . S
C483 C482 1.388 . S
C483 C484 1.390 . S
C484 C483 1.390 . S
C484 C485 1.394 1_554 S
C484 C490 1.465 . S
C485 C480 1.399 . S
C485 C484 1.394 1_556 S
C485 C486 1.516 . S
C486 C485 1.516 . S
C486 C487 1.502 . S
C486 C488 1.561 . S
C486 C489 1.526 . S
C487 H471 0.959 . S
C487 H472 0.959 . S
C487 H473 0.961 . S
C487 C486 1.502 . S
C488 H474 0.960 . S
C488 H475 0.961 . S
C488 H476 0.959 . S
C488 C486 1.561 . S
C489 C486 1.526 . S
C489 C490 1.396 1_556 S
C489 C494 1.390 . S
C490 C484 1.465 . S
C490 C489 1.396 1_554 S
C490 C491 1.399 . S
C491 H477 0.929 . S
C491 C490 1.399 . S
C491 C492 1.385 . S
C492 H478 0.931 . S
C492 C491 1.385 . S
C492 C493 1.389 . S
C493 C492 1.389 . S
C493 C494 1.387 1_554 S
C494 H479 0.930 . S
C494 C489 1.390 . S
C494 C493 1.387 1_556 S
H495 C507 0.930 . S
H496 C509 0.930 . S
H497 C510 0.930 . S
H498 C514 0.959 . S
H499 C514 0.959 . S
H500 C514 0.961 . S
H501 C515 0.960 . S
H502 C515 0.961 . S
H503 C515 0.959 . S
H504 C518 0.929 . S
H505 C519 0.931 . S
H506 C521 0.930 . S
C507 H495 0.930 . S
C507 C508 1.399 . S
C507 C512 1.399 . S
C508 C507 1.399 . S
C508 C509 1.376 . S
C509 H496 0.930 . S
C509 C508 1.376 . S
C509 C510 1.388 . S
C510 H497 0.930 . S
C510 C509 1.388 . S
C510 C511 1.390 . S
C511 C510 1.390 . S
C511 C512 1.394 . S
C511 C517 1.465 . S
C512 C507 1.399 . S
C512 C511 1.394 . S
C512 C513 1.516 . S
C513 C512 1.516 . S
C513 C514 1.502 . S
C513 C515 1.561 . S
C513 C516 1.526 . S
C514 H498 0.959 . S
C514 H499 0.959 . S
C514 H500 0.961 . S
C514 C513 1.502 . S
C515 H501 0.960 . S
C515 H502 0.961 . S
C515 H503 0.959 . S
C515 C513 1.561 . S
C516 C513 1.526 . S
C516 C517 1.396 . S
C516 C521 1.390 . S
C517 C511 1.465 . S
C517 C516 1.396 . S
C517 C518 1.399 . S
C518 H504 0.929 . S
C518 C517 1.399 . S
C518 C519 1.385 . S
C519 H505 0.931 . S
C519 C518 1.385 . S
C519 C520 1.389 . S
C520 C519 1.389 . S
C520 C521 1.387 . S
C521 H506 0.930 . S
C521 C516 1.390 . S
C521 C520 1.387 . S
H522 C534 0.930 . S
H523 C536 0.930 . S
H524 C537 0.930 . S
H525 C541 0.959 . S
H526 C541 0.959 . S
H527 C541 0.961 . S
H528 C542 0.960 . S
H529 C542 0.961 . S
H530 C542 0.959 . S
H531 C545 0.929 . S
H532 C546 0.931 . S
H533 C548 0.930 . S
C534 H522 0.930 . S
C534 C535 1.399 . S
C534 C539 1.399 . S
C535 C534 1.399 . S
C535 C536 1.376 . S
C536 H523 0.930 . S
C536 C535 1.376 . S
C536 C537 1.388 . S
C537 H524 0.930 . S
C537 C536 1.388 . S
C537 C538 1.390 . S
C538 C537 1.390 . S
C538 C539 1.394 . S
C538 C544 1.465 . S
C539 C534 1.399 . S
C539 C538 1.394 . S
C539 C540 1.516 . S
C540 C539 1.516 . S
C540 C541 1.502 . S
C540 C542 1.561 . S
C540 C543 1.526 . S
C541 H525 0.959 . S
C541 H526 0.959 . S
C541 H527 0.961 . S
C541 C540 1.502 . S
C542 H528 0.960 . S
C542 H529 0.961 . S
C542 H530 0.959 . S
C542 C540 1.561 . S
C543 C540 1.526 . S
C543 C544 1.396 . S
C543 C548 1.390 . S
C544 C538 1.465 . S
C544 C543 1.396 . S
C544 C545 1.399 . S
C545 H531 0.929 . S
C545 C544 1.399 . S
C545 C546 1.385 . S
C546 H532 0.931 . S
C546 C545 1.385 . S
C546 C547 1.389 . S
C547 C546 1.389 . S
C547 C548 1.387 . S
C548 H533 0.930 . S
C548 C543 1.390 . S
C548 C547 1.387 . S
H549 C561 0.930 . S
H550 C563 0.930 . S
H551 C564 0.930 . S
H552 C568 0.959 . S
H553 C568 0.959 . S
H554 C568 0.961 . S
H555 C569 0.960 . S
H556 C569 0.961 . S
H557 C569 0.959 . S
H558 C572 0.929 . S
H559 C573 0.931 . S
H560 C575 0.930 . S
C561 H549 0.930 . S
C561 C562 1.399 . S
C561 C566 1.399 . S
C562 C561 1.399 . S
C562 C563 1.376 . S
C563 H550 0.930 . S
C563 C562 1.376 . S
C563 C564 1.388 . S
C564 H551 0.930 . S
C564 C563 1.388 . S
C564 C565 1.390 . S
C565 C564 1.390 . S
C565 C566 1.394 . S
C565 C571 1.465 . S
C566 C561 1.399 . S
C566 C565 1.394 . S
C566 C567 1.516 . S
C567 C566 1.516 . S
C567 C568 1.502 . S
C567 C569 1.561 . S
C567 C570 1.526 . S
C568 H552 0.959 . S
C568 H553 0.959 . S
C568 H554 0.961 . S
C568 C567 1.502 . S
C569 H555 0.960 . S
C569 H556 0.961 . S
C569 H557 0.959 . S
C569 C567 1.561 . S
C570 C567 1.526 . S
C570 C571 1.396 . S
C570 C575 1.390 . S
C571 C565 1.465 . S
C571 C570 1.396 . S
C571 C572 1.399 . S
C572 H558 0.929 . S
C572 C571 1.399 . S
C572 C573 1.385 . S
C573 H559 0.931 . S
C573 C572 1.385 . S
C573 C574 1.389 . S
C574 C573 1.389 . S
C574 C575 1.387 . S
C575 H560 0.930 . S
C575 C570 1.390 . S
C575 C574 1.387 . S
H576 C588 0.930 . S
H577 C590 0.930 . S
H578 C591 0.930 . S
H579 C595 0.959 . S
H580 C595 0.959 . S
H581 C595 0.961 . S
H582 C596 0.960 . S
H583 C596 0.961 . S
H584 C596 0.959 . S
H585 C599 0.929 . S
H586 C600 0.931 . S
H587 C602 0.930 . S
C588 H576 0.930 . S
C588 C589 1.399 . S
C588 C593 1.399 . S
C589 C588 1.399 . S
C589 C590 1.376 . S
C590 H577 0.930 . S
C590 C589 1.376 . S
C590 C591 1.388 . S
C591 H578 0.930 . S
C591 C590 1.388 . S
C591 C592 1.390 . S
C592 C591 1.390 . S
C592 C593 1.394 . S
C592 C598 1.465 . S
C593 C588 1.399 . S
C593 C592 1.394 . S
C593 C594 1.516 . S
C594 C593 1.516 . S
C594 C595 1.502 . S
C594 C596 1.561 . S
C594 C597 1.526 . S
C595 H579 0.959 . S
C595 H580 0.959 . S
C595 H581 0.961 . S
C595 C594 1.502 . S
C596 H582 0.960 . S
C596 H583 0.961 . S
C596 H584 0.959 . S
C596 C594 1.561 . S
C597 C594 1.526 . S
C597 C598 1.396 . S
C597 C602 1.390 . S
C598 C592 1.465 . S
C598 C597 1.396 . S
C598 C599 1.399 . S
C599 H585 0.929 . S
C599 C598 1.399 . S
C599 C600 1.385 . S
C600 H586 0.931 . S
C600 C599 1.385 . S
C600 C601 1.389 . S
C601 C600 1.389 . S
C601 C602 1.387 . S
C602 H587 0.930 . S
C602 C597 1.390 . S
C602 C601 1.387 . S
H603 C615 0.930 . S
H604 C617 0.930 . S
H605 C618 0.930 . S
H606 C622 0.959 . S
H607 C622 0.959 . S
H608 C622 0.961 . S
H609 C623 0.960 . S
H610 C623 0.961 . S
H611 C623 0.959 . S
H612 C626 0.929 . S
H613 C627 0.931 . S
H614 C629 0.930 . S
C615 H603 0.930 . S
C615 C616 1.399 . S
C615 C620 1.399 . S
C616 C615 1.399 . S
C616 C617 1.376 . S
C617 H604 0.930 . S
C617 C616 1.376 . S
C617 C618 1.388 . S
C618 H605 0.930 . S
C618 C617 1.388 . S
C618 C619 1.390 . S
C619 C618 1.390 . S
C619 C620 1.394 . S
C619 C625 1.465 . S
C620 C615 1.399 . S
C620 C619 1.394 . S
C620 C621 1.516 . S
C621 C620 1.516 . S
C621 C622 1.502 . S
C621 C623 1.561 . S
C621 C624 1.526 . S
C622 H606 0.959 . S
C622 H607 0.959 . S
C622 H608 0.961 . S
C622 C621 1.502 . S
C623 H609 0.960 . S
C623 H610 0.961 . S
C623 H611 0.959 . S
C623 C621 1.561 . S
C624 C621 1.526 . S
C624 C625 1.396 . S
C624 C629 1.390 . S
C625 C619 1.465 . S
C625 C624 1.396 . S
C625 C626 1.399 . S
C626 H612 0.929 . S
C626 C625 1.399 . S
C626 C627 1.385 . S
C627 H613 0.931 . S
C627 C626 1.385 . S
C627 C628 1.389 . S
C628 C627 1.389 . S
C628 C629 1.387 . S
C629 H614 0.930 . S
C629 C624 1.390 . S
C629 C628 1.387 . S
H630 C642 0.930 . S
H631 C644 0.930 . S
H632 C645 0.930 . S
H633 C649 0.959 . S
H634 C649 0.959 . S
H635 C649 0.961 . S
H636 C650 0.960 . S
H637 C650 0.961 . S
H638 C650 0.959 . S
H639 C653 0.929 . S
H640 C654 0.931 . S
H641 C656 0.930 . S
C642 H630 0.930 . S
C642 C643 1.399 . S
C642 C647 1.399 . S
C643 C642 1.399 . S
C643 C644 1.376 . S
C644 H631 0.930 . S
C644 C643 1.376 . S
C644 C645 1.388 . S
C645 H632 0.930 . S
C645 C644 1.388 . S
C645 C646 1.390 . S
C646 C645 1.390 . S
C646 C647 1.394 . S
C646 C652 1.465 . S
C647 C642 1.399 . S
C647 C646 1.394 . S
C647 C648 1.516 . S
C648 C647 1.516 . S
C648 C649 1.502 . S
C648 C650 1.561 . S
C648 C651 1.526 . S
C649 H633 0.959 . S
C649 H634 0.959 . S
C649 H635 0.961 . S
C649 C648 1.502 . S
C650 H636 0.960 . S
C650 H637 0.961 . S
C650 H638 0.959 . S
C650 C648 1.561 . S
C651 C648 1.526 . S
C651 C652 1.396 . S
C651 C656 1.390 . S
C652 C646 1.465 . S
C652 C651 1.396 . S
C652 C653 1.399 . S
C653 H639 0.929 . S
C653 C652 1.399 . S
C653 C654 1.385 . S
C654 H640 0.931 . S
C654 C653 1.385 . S
C654 C655 1.389 . S
C655 C654 1.389 . S
C655 C656 1.387 . S
C656 H641 0.930 . S
C656 C651 1.390 . S
C656 C655 1.387 . S
H657 C669 0.930 . S
H658 C671 0.930 . S
H659 C672 0.930 . S
H660 C676 0.959 . S
H661 C676 0.959 . S
H662 C676 0.961 . S
H663 C677 0.960 . S
H664 C677 0.961 . S
H665 C677 0.959 . S
H666 C680 0.929 . S
H667 C681 0.931 . S
H668 C683 0.930 . S
C669 H657 0.930 . S
C669 C670 1.399 . S
C669 C674 1.399 . S
C670 C669 1.399 . S
C670 C671 1.376 . S
C671 H658 0.930 . S
C671 C670 1.376 . S
C671 C672 1.388 . S
C672 H659 0.930 . S
C672 C671 1.388 . S
C672 C673 1.390 . S
C673 C672 1.390 . S
C673 C674 1.394 . S
C673 C679 1.465 . S
C674 C669 1.399 . S
C674 C673 1.394 . S
C674 C675 1.516 . S
C675 C674 1.516 . S
C675 C676 1.502 . S
C675 C677 1.561 . S
C675 C678 1.526 . S
C676 H660 0.959 . S
C676 H661 0.959 . S
C676 H662 0.961 . S
C676 C675 1.502 . S
C677 H663 0.960 . S
C677 H664 0.961 . S
C677 H665 0.959 . S
C677 C675 1.561 . S
C678 C675 1.526 . S
C678 C679 1.396 . S
C678 C683 1.390 . S
C679 C673 1.465 . S
C679 C678 1.396 . S
C679 C680 1.399 . S
C680 H666 0.929 . S
C680 C679 1.399 . S
C680 C681 1.385 . S
C681 H667 0.931 . S
C681 C680 1.385 . S
C681 C682 1.389 . S
C682 C681 1.389 . S
C682 C683 1.387 . S
C683 H668 0.930 . S
C683 C678 1.390 . S
C683 C682 1.387 . S
H684 C696 0.930 . S
H685 C698 0.930 . S
H686 C699 0.930 . S
H687 C703 0.959 . S
H688 C703 0.959 . S
H689 C703 0.961 . S
H690 C704 0.960 . S
H691 C704 0.961 . S
H692 C704 0.959 . S
H693 C707 0.929 . S
H694 C708 0.931 . S
H695 C710 0.930 . S
C696 H684 0.930 . S
C696 C697 1.399 . S
C696 C701 1.399 . S
C697 C696 1.399 . S
C697 C698 1.376 . S
C698 H685 0.930 . S
C698 C697 1.376 . S
C698 C699 1.388 . S
C699 H686 0.930 . S
C699 C698 1.388 . S
C699 C700 1.390 . S
C700 C699 1.390 . S
C700 C701 1.394 . S
C700 C706 1.465 . S
C701 C696 1.399 . S
C701 C700 1.394 . S
C701 C702 1.516 . S
C702 C701 1.516 . S
C702 C703 1.502 . S
C702 C704 1.561 . S
C702 C705 1.526 . S
C703 H687 0.959 . S
C703 H688 0.959 . S
C703 H689 0.961 . S
C703 C702 1.502 . S
C704 H690 0.960 . S
C704 H691 0.961 . S
C704 H692 0.959 . S
C704 C702 1.561 . S
C705 C702 1.526 . S
C705 C706 1.396 . S
C705 C710 1.390 . S
C706 C700 1.465 . S
C706 C705 1.396 . S
C706 C707 1.399 . S
C707 H693 0.929 . S
C707 C706 1.399 . S
C707 C708 1.385 . S
C708 H694 0.931 . S
C708 C707 1.385 . S
C708 C709 1.389 . S
C709 C708 1.389 . S
C709 C710 1.387 . S
C710 H695 0.930 . S
C710 C705 1.390 . S
C710 C709 1.387 . S
H711 C723 0.930 . S
H712 C725 0.930 . S
H713 C726 0.930 . S
H714 C730 0.959 . S
H715 C730 0.959 . S
H716 C730 0.961 . S
H717 C731 0.960 . S
H718 C731 0.961 . S
H719 C731 0.959 . S
H720 C734 0.929 . S
H721 C735 0.931 . S
H722 C737 0.930 . S
C723 H711 0.930 . S
C723 C724 1.399 . S
C723 C728 1.399 . S
C724 C723 1.399 . S
C724 C725 1.376 . S
C725 H712 0.930 . S
C725 C724 1.376 . S
C725 C726 1.388 . S
C726 H713 0.930 . S
C726 C725 1.388 . S
C726 C727 1.390 . S
C727 C726 1.390 . S
C727 C728 1.394 . S
C727 C733 1.465 . S
C728 C723 1.399 . S
C728 C727 1.394 . S
C728 C729 1.516 . S
C729 C728 1.516 . S
C729 C730 1.502 . S
C729 C731 1.561 . S
C729 C732 1.526 . S
C730 H714 0.959 . S
C730 H715 0.959 . S
C730 H716 0.961 . S
C730 C729 1.502 . S
C731 H717 0.960 . S
C731 H718 0.961 . S
C731 H719 0.959 . S
C731 C729 1.561 . S
C732 C729 1.526 . S
C732 C733 1.396 . S
C732 C737 1.390 . S
C733 C727 1.465 . S
C733 C732 1.396 . S
C733 C734 1.399 . S
C734 H720 0.929 . S
C734 C733 1.399 . S
C734 C735 1.385 . S
C735 H721 0.931 . S
C735 C734 1.385 . S
C735 C736 1.389 . S
C736 C735 1.389 . S
C736 C737 1.387 . S
C737 H722 0.930 . S
C737 C732 1.390 . S
C737 C736 1.387 . S
H738 C750 0.930 . S
H739 C752 0.930 . S
H740 C753 0.930 . S
H741 C757 0.959 . S
H742 C757 0.959 . S
H743 C757 0.961 . S
H744 C758 0.960 . S
H745 C758 0.961 . S
H746 C758 0.959 . S
H747 C761 0.929 . S
H748 C762 0.931 . S
H749 C764 0.930 . S
C750 H738 0.930 . S
C750 C751 1.399 . S
C750 C755 1.399 . S
C751 C750 1.399 . S
C751 C752 1.376 . S
C752 H739 0.930 . S
C752 C751 1.376 . S
C752 C753 1.388 . S
C753 H740 0.930 . S
C753 C752 1.388 . S
C753 C754 1.390 . S
C754 C753 1.390 . S
C754 C755 1.394 . S
C754 C760 1.465 . S
C755 C750 1.399 . S
C755 C754 1.394 . S
C755 C756 1.516 . S
C756 C755 1.516 . S
C756 C757 1.502 . S
C756 C758 1.561 . S
C756 C759 1.526 . S
C757 H741 0.959 . S
C757 H742 0.959 . S
C757 H743 0.961 . S
C757 C756 1.502 . S
C758 H744 0.960 . S
C758 H745 0.961 . S
C758 H746 0.959 . S
C758 C756 1.561 . S
C759 C756 1.526 . S
C759 C760 1.396 . S
C759 C764 1.390 . S
C760 C754 1.465 . S
C760 C759 1.396 . S
C760 C761 1.399 . S
C761 H747 0.929 . S
C761 C760 1.399 . S
C761 C762 1.385 . S
C762 H748 0.931 . S
C762 C761 1.385 . S
C762 C763 1.389 . S
C763 C762 1.389 . S
C763 C764 1.387 . S
C764 H749 0.930 . S
C764 C759 1.390 . S
C764 C763 1.387 . S
H765 C777 0.930 . S
H766 C779 0.930 . S
H767 C780 0.930 . S
H768 C784 0.959 . S
H769 C784 0.959 . S
H770 C784 0.961 . S
H771 C785 0.960 . S
H772 C785 0.961 . S
H773 C785 0.959 . S
H774 C788 0.929 . S
H775 C789 0.931 . S
H776 C791 0.930 . S
C777 H765 0.930 . S
C777 C778 1.399 . S
C777 C782 1.399 1_545 S
C778 C777 1.399 . S
C778 C779 1.376 . S
C779 H766 0.930 . S
C779 C778 1.376 . S
C779 C780 1.388 1_545 S
C780 H767 0.930 . S
C780 C779 1.388 1_565 S
C780 C781 1.390 . S
C781 C780 1.390 . S
C781 C782 1.394 . S
C781 C787 1.465 . S
C782 C777 1.399 1_565 S
C782 C781 1.394 . S
C782 C783 1.516 . S
C783 C782 1.516 . S
C783 C784 1.502 . S
C783 C785 1.561 . S
C783 C786 1.526 . S
C784 H768 0.959 . S
C784 H769 0.959 . S
C784 H770 0.961 . S
C784 C783 1.502 . S
C785 H771 0.960 . S
C785 H772 0.961 . S
C785 H773 0.959 . S
C785 C783 1.561 . S
C786 C783 1.526 . S
C786 C787 1.396 . S
C786 C791 1.390 . S
C787 C781 1.465 . S
C787 C786 1.396 . S
C787 C788 1.399 . S
C788 H774 0.929 . S
C788 C787 1.399 . S
C788 C789 1.385 . S
C789 H775 0.931 . S
C789 C788 1.385 . S
C789 C790 1.389 . S
C790 C789 1.389 . S
C790 C791 1.387 . S
C791 H776 0.930 . S
C791 C786 1.390 . S
C791 C790 1.387 . S
H792 C804 0.930 . S
H793 C806 0.930 . S
H794 C807 0.930 . S
H795 C811 0.959 . S
H796 C811 0.959 . S
H797 C811 0.961 . S
H798 C812 0.960 . S
H799 C812 0.961 . S
H800 C812 0.959 . S
H801 C815 0.929 . S
H802 C816 0.931 . S
H803 C818 0.930 . S
C804 H792 0.930 . S
C804 C805 1.399 . S
C804 C809 1.399 1_655 S
C805 C804 1.399 . S
C805 C806 1.376 . S
C806 H793 0.930 . S
C806 C805 1.376 . S
C806 C807 1.388 . S
C807 H794 0.930 . S
C807 C806 1.388 . S
C807 C808 1.390 1_655 S
C808 C807 1.390 1_455 S
C808 C809 1.394 . S
C808 C814 1.465 . S
C809 C804 1.399 1_455 S
C809 C808 1.394 . S
C809 C810 1.516 . S
C810 C809 1.516 . S
C810 C811 1.502 . S
C810 C812 1.561 . S
C810 C813 1.526 . S
C811 H795 0.959 . S
C811 H796 0.959 . S
C811 H797 0.961 . S
C811 C810 1.502 . S
C812 H798 0.960 . S
C812 H799 0.961 . S
C812 H800 0.959 . S
C812 C810 1.561 . S
C813 C810 1.526 . S
C813 C814 1.396 . S
C813 C818 1.390 . S
C814 C808 1.465 . S
C814 C813 1.396 . S
C814 C815 1.399 . S
C815 H801 0.929 . S
C815 C814 1.399 . S
C815 C816 1.385 . S
C816 H802 0.931 . S
C816 C815 1.385 . S
C816 C817 1.389 . S
C817 C816 1.389 . S
C817 C818 1.387 . S
C818 H803 0.930 . S
C818 C813 1.390 . S
C818 C817 1.387 . S
H819 C831 0.930 . S
H820 C833 0.930 . S
H821 C834 0.930 . S
H822 C838 0.959 . S
H823 C838 0.959 . S
H824 C838 0.961 . S
H825 C839 0.960 . S
H826 C839 0.961 . S
H827 C839 0.959 . S
H828 C842 0.929 . S
H829 C843 0.931 . S
H830 C845 0.930 . S
C831 H819 0.930 . S
C831 C832 1.399 . S
C831 C836 1.399 . S
C832 C831 1.399 . S
C832 C833 1.376 . S
C833 H820 0.930 . S
C833 C832 1.376 . S
C833 C834 1.388 . S
C834 H821 0.930 . S
C834 C833 1.388 . S
C834 C835 1.390 . S
C835 C834 1.390 . S
C835 C836 1.394 . S
C835 C841 1.465 . S
C836 C831 1.399 . S
C836 C835 1.394 . S
C836 C837 1.516 . S
C837 C836 1.516 . S
C837 C838 1.502 . S
C837 C839 1.561 . S
C837 C840 1.526 . S
C838 H822 0.959 . S
C838 H823 0.959 . S
C838 H824 0.961 . S
C838 C837 1.502 . S
C839 H825 0.960 . S
C839 H826 0.961 . S
C839 H827 0.959 . S
C839 C837 1.561 . S
C840 C837 1.526 . S
C840 C841 1.396 . S
C840 C845 1.390 . S
C841 C835 1.465 . S
C841 C840 1.396 . S
C841 C842 1.399 . S
C842 H828 0.929 . S
C842 C841 1.399 . S
C842 C843 1.385 . S
C843 H829 0.931 . S
C843 C842 1.385 . S
C843 C844 1.389 . S
C844 C843 1.389 . S
C844 C845 1.387 . S
C845 H830 0.930 . S
C845 C840 1.390 . S
C845 C844 1.387 . S
H846 C858 0.930 . S
H847 C860 0.930 . S
H848 C861 0.930 . S
H849 C865 0.959 . S
H850 C865 0.959 . S
H851 C865 0.961 . S
H852 C866 0.960 . S
H853 C866 0.961 . S
H854 C866 0.959 . S
H855 C869 0.929 . S
H856 C870 0.931 . S
H857 C872 0.930 . S
C858 H846 0.930 . S
C858 C859 1.399 . S
C858 C863 1.399 . S
C859 C858 1.399 . S
C859 C860 1.376 . S
C860 H847 0.930 . S
C860 C859 1.376 . S
C860 C861 1.388 . S
C861 H848 0.930 . S
C861 C860 1.388 . S
C861 C862 1.390 . S
C862 C861 1.390 . S
C862 C863 1.394 . S
C862 C868 1.465 . S
C863 C858 1.399 . S
C863 C862 1.394 . S
C863 C864 1.516 . S
C864 C863 1.516 . S
C864 C865 1.502 . S
C864 C866 1.561 . S
C864 C867 1.526 . S
C865 H849 0.959 . S
C865 H850 0.959 . S
C865 H851 0.961 . S
C865 C864 1.502 . S
C866 H852 0.960 . S
C866 H853 0.961 . S
C866 H854 0.959 . S
C866 C864 1.561 . S
C867 C864 1.526 . S
C867 C868 1.396 . S
C867 C872 1.390 1_565 S
C868 C862 1.465 . S
C868 C867 1.396 . S
C868 C869 1.399 . S
C869 H855 0.929 . S
C869 C868 1.399 . S
C869 C870 1.385 1_565 S
C870 H856 0.931 . S
C870 C869 1.385 1_545 S
C870 C871 1.389 . S
C871 C870 1.389 . S
C871 C872 1.387 . S
C872 H857 0.930 . S
C872 C867 1.390 1_545 S
C872 C871 1.387 . S
H873 C885 0.930 . S
H874 C887 0.930 1_545 S
H875 C888 0.930 . S
H876 C892 0.959 . S
H877 C892 0.959 . S
H878 C892 0.961 . S
H879 C893 0.960 . S
H880 C893 0.961 . S
H881 C893 0.959 . S
H882 C896 0.929 . S
H883 C897 0.931 . S
H884 C899 0.930 . S
C885 H873 0.930 . S
C885 C886 1.399 . S
C885 C890 1.399 . S
C886 C885 1.399 . S
C886 C887 1.376 . S
C887 H874 0.930 1_565 S
C887 C886 1.376 . S
C887 C888 1.388 . S
C888 H875 0.930 . S
C888 C887 1.388 . S
C888 C889 1.390 . S
C889 C888 1.390 . S
C889 C890 1.394 . S
C889 C895 1.465 . S
C890 C885 1.399 . S
C890 C889 1.394 . S
C890 C891 1.516 . S
C891 C890 1.516 . S
C891 C892 1.502 . S
C891 C893 1.561 . S
C891 C894 1.526 . S
C892 H876 0.959 . S
C892 H877 0.959 . S
C892 H878 0.961 . S
C892 C891 1.502 . S
C893 H879 0.960 . S
C893 H880 0.961 . S
C893 H881 0.959 . S
C893 C891 1.561 . S
C894 C891 1.526 . S
C894 C895 1.396 . S
C894 C899 1.390 1_455 S
C895 C889 1.465 . S
C895 C894 1.396 . S
C895 C896 1.399 1_455 S
C896 H882 0.929 . S
C896 C895 1.399 1_655 S
C896 C897 1.385 . S
C897 H883 0.931 . S
C897 C896 1.385 . S
C897 C898 1.389 . S
C898 C897 1.389 . S
C898 C899 1.387 . S
C899 H884 0.930 . S
C899 C894 1.390 1_655 S
C899 C898 1.387 . S
H900 C912 0.930 . S
H901 C914 0.930 . S
H902 C915 0.930 . S
H903 C919 0.959 . S
H904 C919 0.959 . S
H905 C919 0.961 . S
H906 C920 0.960 . S
H907 C920 0.961 . S
H908 C920 0.959 . S
H909 C923 0.929 . S
H910 C924 0.931 . S
H911 C926 0.930 . S
C912 H900 0.930 . S
C912 C913 1.399 . S
C912 C917 1.399 . S
C913 C912 1.399 . S
C913 C914 1.376 . S
C914 H901 0.930 . S
C914 C913 1.376 . S
C914 C915 1.388 . S
C915 H902 0.930 . S
C915 C914 1.388 . S
C915 C916 1.390 . S
C916 C915 1.390 . S
C916 C917 1.394 . S
C916 C922 1.465 . S
C917 C912 1.399 . S
C917 C916 1.394 . S
C917 C918 1.516 . S
C918 C917 1.516 . S
C918 C919 1.502 . S
C918 C920 1.561 . S
C918 C921 1.526 . S
C919 H903 0.959 . S
C919 H904 0.959 . S
C919 H905 0.961 . S
C919 C918 1.502 . S
C920 H906 0.960 . S
C920 H907 0.961 . S
C920 H908 0.959 . S
C920 C918 1.561 . S
C921 C918 1.526 . S
C921 C922 1.396 . S
C921 C926 1.390 . S
C922 C916 1.465 . S
C922 C921 1.396 . S
C922 C923 1.399 . S
C923 H909 0.929 . S
C923 C922 1.399 . S
C923 C924 1.385 . S
C924 H910 0.931 . S
C924 C923 1.385 . S
C924 C925 1.389 . S
C925 C924 1.389 . S
C925 C926 1.387 . S
C926 H911 0.930 . S
C926 C921 1.390 . S
C926 C925 1.387 . S
H927 C939 0.930 . S
H928 C941 0.930 . S
H929 C942 0.930 . S
H930 C946 0.959 . S
H931 C946 0.959 . S
H932 C946 0.961 . S
H933 C947 0.960 . S
H934 C947 0.961 . S
H935 C947 0.959 . S
H936 C950 0.929 . S
H937 C951 0.931 . S
H938 C953 0.930 . S
C939 H927 0.930 . S
C939 C940 1.399 . S
C939 C944 1.399 . S
C940 C939 1.399 . S
C940 C941 1.376 . S
C941 H928 0.930 . S
C941 C940 1.376 . S
C941 C942 1.388 . S
C942 H929 0.930 . S
C942 C941 1.388 . S
C942 C943 1.390 . S
C943 C942 1.390 . S
C943 C944 1.394 . S
C943 C949 1.465 . S
C944 C939 1.399 . S
C944 C943 1.394 . S
C944 C945 1.516 . S
C945 C944 1.516 . S
C945 C946 1.502 . S
C945 C947 1.561 . S
C945 C948 1.526 . S
C946 H930 0.959 . S
C946 H931 0.959 . S
C946 H932 0.961 . S
C946 C945 1.502 . S
C947 H933 0.960 . S
C947 H934 0.961 . S
C947 H935 0.959 . S
C947 C945 1.561 . S
C948 C945 1.526 . S
C948 C949 1.396 . S
C948 C953 1.390 . S
C949 C943 1.465 . S
C949 C948 1.396 . S
C949 C950 1.399 . S
C950 H936 0.929 . S
C950 C949 1.399 . S
C950 C951 1.385 . S
C951 H937 0.931 . S
C951 C950 1.385 . S
C951 C952 1.389 . S
C952 C951 1.389 . S
C952 C953 1.387 . S
C953 H938 0.930 . S
C953 C948 1.390 . S
C953 C952 1.387 . S
H954 C966 0.930 . S
H955 C968 0.930 . S
H956 C969 0.930 . S
H957 C973 0.959 . S
H958 C973 0.959 . S
H959 C973 0.961 . S
H960 C974 0.960 . S
H961 C974 0.961 . S
H962 C974 0.959 . S
H963 C977 0.929 . S
H964 C978 0.931 . S
H965 C980 0.930 . S
C966 H954 0.930 . S
C966 C967 1.399 . S
C966 C971 1.399 . S
C967 C966 1.399 . S
C967 C968 1.376 . S
C968 H955 0.930 . S
C968 C967 1.376 . S
C968 C969 1.388 . S
C969 H956 0.930 . S
C969 C968 1.388 . S
C969 C970 1.390 . S
C970 C969 1.390 . S
C970 C971 1.394 . S
C970 C976 1.465 . S
C971 C966 1.399 . S
C971 C970 1.394 . S
C971 C972 1.516 . S
C972 C971 1.516 . S
C972 C973 1.502 . S
C972 C974 1.561 . S
C972 C975 1.526 . S
C973 H957 0.959 . S
C973 H958 0.959 . S
C973 H959 0.961 . S
C973 C972 1.502 . S
C974 H960 0.960 . S
C974 H961 0.961 . S
C974 H962 0.959 . S
C974 C972 1.561 . S
C975 C972 1.526 . S
C975 C976 1.396 . S
C975 C980 1.390 . S
C976 C970 1.465 . S
C976 C975 1.396 . S
C976 C977 1.399 . S
C977 H963 0.929 . S
C977 C976 1.399 . S
C977 C978 1.385 . S
C978 H964 0.931 . S
C978 C977 1.385 . S
C978 C979 1.389 . S
C979 C978 1.389 . S
C979 C980 1.387 . S
C980 H965 0.930 . S
C980 C975 1.390 . S
C980 C979 1.387 . S
H981 C993 0.930 . S
H982 C995 0.930 . S
H983 C996 0.930 . S
H984 C1000 0.959 . S
H985 C1000 0.959 . S
H986 C1000 0.961 . S
H987 C1001 0.960 . S
H988 C1001 0.961 . S
H989 C1001 0.959 . S
H990 C1004 0.929 . S
H991 C1005 0.931 . S
H992 C1007 0.930 . S
C993 H981 0.930 . S
C993 C994 1.399 . S
C993 C998 1.399 . S
C994 C993 1.399 . S
C994 C995 1.376 . S
C995 H982 0.930 . S
C995 C994 1.376 . S
C995 C996 1.388 . S
C996 H983 0.930 . S
C996 C995 1.388 . S
C996 C997 1.390 . S
C997 C996 1.390 . S
C997 C998 1.394 . S
C997 C1003 1.465 . S
C998 C993 1.399 . S
C998 C997 1.394 . S
C998 C999 1.516 . S
C999 C998 1.516 . S
C999 C1000 1.502 . S
C999 C1001 1.561 . S
C999 C1002 1.526 . S
C1000 H984 0.959 . S
C1000 H985 0.959 . S
C1000 H986 0.961 . S
C1000 C999 1.502 . S
C1001 H987 0.960 . S
C1001 H988 0.961 . S
C1001 H989 0.959 . S
C1001 C999 1.561 . S
C1002 C999 1.526 . S
C1002 C1003 1.396 . S
C1002 C1007 1.390 . S
C1003 C997 1.465 . S
C1003 C1002 1.396 . S
C1003 C1004 1.399 . S
C1004 H990 0.929 . S
C1004 C1003 1.399 . S
C1004 C1005 1.385 . S
C1005 H991 0.931 . S
C1005 C1004 1.385 . S
C1005 C1006 1.389 . S
C1006 C1005 1.389 . S
C1006 C1007 1.387 . S
C1007 H992 0.930 . S
C1007 C1002 1.390 . S
C1007 C1006 1.387 . S
H1008 C1020 0.930 . S
H1009 C1022 0.930 . S
H1010 C1023 0.930 . S
H1011 C1027 0.959 . S
H1012 C1027 0.959 . S
H1013 C1027 0.961 . S
H1014 C1028 0.960 . S
H1015 C1028 0.961 . S
H1016 C1028 0.959 . S
H1017 C1031 0.929 . S
H1018 C1032 0.931 . S
H1019 C1034 0.930 . S
C1020 H1008 0.930 . S
C1020 C1021 1.399 . S
C1020 C1025 1.399 . S
C1021 C1020 1.399 . S
C1021 C1022 1.376 . S
C1022 H1009 0.930 . S
C1022 C1021 1.376 . S
C1022 C1023 1.388 . S
C1023 H1010 0.930 . S
C1023 C1022 1.388 . S
C1023 C1024 1.390 . S
C1024 C1023 1.390 . S
C1024 C1025 1.394 . S
C1024 C1030 1.465 . S
C1025 C1020 1.399 . S
C1025 C1024 1.394 . S
C1025 C1026 1.516 . S
C1026 C1025 1.516 . S
C1026 C1027 1.502 . S
C1026 C1028 1.561 . S
C1026 C1029 1.526 . S
C1027 H1011 0.959 . S
C1027 H1012 0.959 . S
C1027 H1013 0.961 . S
C1027 C1026 1.502 . S
C1028 H1014 0.960 . S
C1028 H1015 0.961 . S
C1028 H1016 0.959 . S
C1028 C1026 1.561 . S
C1029 C1026 1.526 . S
C1029 C1030 1.396 . S
C1029 C1034 1.390 . S
C1030 C1024 1.465 . S
C1030 C1029 1.396 . S
C1030 C1031 1.399 . S
C1031 H1017 0.929 . S
C1031 C1030 1.399 . S
C1031 C1032 1.385 . S
C1032 H1018 0.931 . S
C1032 C1031 1.385 . S
C1032 C1033 1.389 . S
C1033 C1032 1.389 . S
C1033 C1034 1.387 . S
C1034 H1019 0.930 . S
C1034 C1029 1.390 . S
C1034 C1033 1.387 . S
H1035 C1047 0.930 . S
H1036 C1049 0.930 . S
H1037 C1050 0.930 . S
H1038 C1054 0.959 . S
H1039 C1054 0.959 . S
H1040 C1054 0.961 . S
H1041 C1055 0.960 . S
H1042 C1055 0.961 . S
H1043 C1055 0.959 . S
H1044 C1058 0.929 . S
H1045 C1059 0.931 . S
H1046 C1061 0.930 . S
C1047 H1035 0.930 . S
C1047 C1048 1.399 . S
C1047 C1052 1.399 . S
C1048 C1047 1.399 . S
C1048 C1049 1.376 . S
C1049 H1036 0.930 . S
C1049 C1048 1.376 . S
C1049 C1050 1.388 . S
C1050 H1037 0.930 . S
C1050 C1049 1.388 . S
C1050 C1051 1.390 . S
C1051 C1050 1.390 . S
C1051 C1052 1.394 . S
C1051 C1057 1.465 . S
C1052 C1047 1.399 . S
C1052 C1051 1.394 . S
C1052 C1053 1.516 . S
C1053 C1052 1.516 . S
C1053 C1054 1.502 . S
C1053 C1055 1.561 . S
C1053 C1056 1.526 . S
C1054 H1038 0.959 . S
C1054 H1039 0.959 . S
C1054 H1040 0.961 . S
C1054 C1053 1.502 . S
C1055 H1041 0.960 . S
C1055 H1042 0.961 . S
C1055 H1043 0.959 . S
C1055 C1053 1.561 . S
C1056 C1053 1.526 . S
C1056 C1057 1.396 . S
C1056 C1061 1.390 . S
C1057 C1051 1.465 . S
C1057 C1056 1.396 . S
C1057 C1058 1.399 . S
C1058 H1044 0.929 . S
C1058 C1057 1.399 . S
C1058 C1059 1.385 . S
C1059 H1045 0.931 . S
C1059 C1058 1.385 . S
C1059 C1060 1.389 . S
C1060 C1059 1.389 . S
C1060 C1061 1.387 . S
C1061 H1046 0.930 . S
C1061 C1056 1.390 . S
C1061 C1060 1.387 . S
H1062 C1074 0.930 . S
H1063 C1076 0.930 . S
H1064 C1077 0.930 . S
H1065 C1081 0.959 . S
H1066 C1081 0.959 . S
H1067 C1081 0.961 . S
H1068 C1082 0.960 . S
H1069 C1082 0.961 . S
H1070 C1082 0.959 . S
H1071 C1085 0.929 . S
H1072 C1086 0.931 . S
H1073 C1088 0.930 . S
C1074 H1062 0.930 . S
C1074 C1075 1.399 . S
C1074 C1079 1.399 . S
C1075 C1074 1.399 . S
C1075 C1076 1.376 . S
C1076 H1063 0.930 . S
C1076 C1075 1.376 . S
C1076 C1077 1.388 . S
C1077 H1064 0.930 . S
C1077 C1076 1.388 . S
C1077 C1078 1.390 . S
C1078 C1077 1.390 . S
C1078 C1079 1.394 . S
C1078 C1084 1.465 . S
C1079 C1074 1.399 . S
C1079 C1078 1.394 . S
C1079 C1080 1.516 . S
C1080 C1079 1.516 . S
C1080 C1081 1.502 . S
C1080 C1082 1.561 . S
C1080 C1083 1.526 . S
C1081 H1065 0.959 . S
C1081 H1066 0.959 . S
C1081 H1067 0.961 . S
C1081 C1080 1.502 . S
C1082 H1068 0.960 . S
C1082 H1069 0.961 . S
C1082 H1070 0.959 . S
C1082 C1080 1.561 . S
C1083 C1080 1.526 . S
C1083 C1084 1.396 . S
C1083 C1088 1.390 . S
C1084 C1078 1.465 . S
C1084 C1083 1.396 . S
C1084 C1085 1.399 . S
C1085 H1071 0.929 . S
C1085 C1084 1.399 . S
C1085 C1086 1.385 . S
C1086 H1072 0.931 . S
C1086 C1085 1.385 . S
C1086 C1087 1.389 . S
C1087 C1086 1.389 . S
C1087 C1088 1.387 . S
C1088 H1073 0.930 . S
C1088 C1083 1.390 . S
C1088 C1087 1.387 . S
H1089 C1101 0.930 . S
H1090 C1103 0.930 . S
H1091 C1104 0.930 . S
H1092 C1108 0.959 . S
H1093 C1108 0.959 . S
H1094 C1108 0.961 . S
H1095 C1109 0.960 . S
H1096 C1109 0.961 . S
H1097 C1109 0.959 . S
H1098 C1112 0.929 . S
H1099 C1113 0.931 . S
H1100 C1115 0.930 . S
C1101 H1089 0.930 . S
C1101 C1102 1.399 . S
C1101 C1106 1.399 . S
C1102 C1101 1.399 . S
C1102 C1103 1.376 . S
C1103 H1090 0.930 . S
C1103 C1102 1.376 . S
C1103 C1104 1.388 . S
C1104 H1091 0.930 . S
C1104 C1103 1.388 . S
C1104 C1105 1.390 . S
C1105 C1104 1.390 . S
C1105 C1106 1.394 . S
C1105 C1111 1.465 . S
C1106 C1101 1.399 . S
C1106 C1105 1.394 . S
C1106 C1107 1.516 . S
C1107 C1106 1.516 . S
C1107 C1108 1.502 . S
C1107 C1109 1.561 . S
C1107 C1110 1.526 . S
C1108 H1092 0.959 . S
C1108 H1093 0.959 . S
C1108 H1094 0.961 . S
C1108 C1107 1.502 . S
C1109 H1095 0.960 . S
C1109 H1096 0.961 . S
C1109 H1097 0.959 . S
C1109 C1107 1.561 . S
C1110 C1107 1.526 . S
C1110 C1111 1.396 . S
C1110 C1115 1.390 . S
C1111 C1105 1.465 . S
C1111 C1110 1.396 . S
C1111 C1112 1.399 . S
C1112 H1098 0.929 . S
C1112 C1111 1.399 . S
C1112 C1113 1.385 . S
C1113 H1099 0.931 . S
C1113 C1112 1.385 . S
C1113 C1114 1.389 . S
C1114 C1113 1.389 . S
C1114 C1115 1.387 . S
C1115 H1100 0.930 . S
C1115 C1110 1.390 . S
C1115 C1114 1.387 . S
H1116 C1128 0.930 . S
H1117 C1130 0.930 . S
H1118 C1131 0.930 . S
H1119 C1135 0.959 . S
H1120 C1135 0.959 . S
H1121 C1135 0.961 . S
H1122 C1136 0.960 . S
H1123 C1136 0.961 . S
H1124 C1136 0.959 . S
H1125 C1139 0.929 . S
H1126 C1140 0.931 . S
H1127 C1142 0.930 . S
C1128 H1116 0.930 . S
C1128 C1129 1.399 . S
C1128 C1133 1.399 . S
C1129 C1128 1.399 . S
C1129 C1130 1.376 . S
C1130 H1117 0.930 . S
C1130 C1129 1.376 . S
C1130 C1131 1.388 . S
C1131 H1118 0.930 . S
C1131 C1130 1.388 . S
C1131 C1132 1.390 . S
C1132 C1131 1.390 . S
C1132 C1133 1.394 . S
C1132 C1138 1.465 . S
C1133 C1128 1.399 . S
C1133 C1132 1.394 . S
C1133 C1134 1.516 . S
C1134 C1133 1.516 . S
C1134 C1135 1.502 . S
C1134 C1136 1.561 . S
C1134 C1137 1.526 . S
C1135 H1119 0.959 . S
C1135 H1120 0.959 . S
C1135 H1121 0.961 . S
C1135 C1134 1.502 . S
C1136 H1122 0.960 . S
C1136 H1123 0.961 . S
C1136 H1124 0.959 . S
C1136 C1134 1.561 . S
C1137 C1134 1.526 . S
C1137 C1138 1.396 . S
C1137 C1142 1.390 . S
C1138 C1132 1.465 . S
C1138 C1137 1.396 . S
C1138 C1139 1.399 . S
C1139 H1125 0.929 . S
C1139 C1138 1.399 . S
C1139 C1140 1.385 . S
C1140 H1126 0.931 . S
C1140 C1139 1.385 . S
C1140 C1141 1.389 . S
C1141 C1140 1.389 . S
C1141 C1142 1.387 . S
C1142 H1127 0.930 . S
C1142 C1137 1.390 . S
C1142 C1141 1.387 . S
H1143 C1155 0.930 . S
H1144 C1157 0.930 . S
H1145 C1158 0.930 . S
H1146 C1162 0.959 . S
H1147 C1162 0.959 . S
H1148 C1162 0.961 . S
H1149 C1163 0.960 . S
H1150 C1163 0.961 . S
H1151 C1163 0.959 . S
H1152 C1166 0.929 . S
H1153 C1167 0.931 . S
H1154 C1169 0.930 . S
C1155 H1143 0.930 . S
C1155 C1156 1.399 1_554 S
C1155 C1160 1.399 . S
C1156 C1155 1.399 1_556 S
C1156 C1157 1.376 . S
C1157 H1144 0.930 . S
C1157 C1156 1.376 . S
C1157 C1158 1.388 1_556 S
C1158 H1145 0.930 . S
C1158 C1157 1.388 1_554 S
C1158 C1159 1.390 . S
C1159 C1158 1.390 . S
C1159 C1160 1.394 . S
C1159 C1165 1.465 . S
C1160 C1155 1.399 . S
C1160 C1159 1.394 . S
C1160 C1161 1.516 . S
C1161 C1160 1.516 . S
C1161 C1162 1.502 . S
C1161 C1163 1.561 . S
C1161 C1164 1.526 . S
C1162 H1146 0.959 . S
C1162 H1147 0.959 . S
C1162 H1148 0.961 . S
C1162 C1161 1.502 . S
C1163 H1149 0.960 . S
C1163 H1150 0.961 . S
C1163 H1151 0.959 . S
C1163 C1161 1.561 . S
C1164 C1161 1.526 . S
C1164 C1165 1.396 . S
C1164 C1169 1.390 . S
C1165 C1159 1.465 . S
C1165 C1164 1.396 . S
C1165 C1166 1.399 . S
C1166 H1152 0.929 . S
C1166 C1165 1.399 . S
C1166 C1167 1.385 . S
C1167 H1153 0.931 . S
C1167 C1166 1.385 . S
C1167 C1168 1.389 . S
C1168 C1167 1.389 . S
C1168 C1169 1.387 . S
C1169 H1154 0.930 . S
C1169 C1164 1.390 . S
C1169 C1168 1.387 . S
H1170 C1182 0.930 . S
H1171 C1184 0.930 . S
H1172 C1185 0.930 . S
H1173 C1189 0.959 . S
H1174 C1189 0.959 . S
H1175 C1189 0.961 . S
H1176 C1190 0.960 . S
H1177 C1190 0.961 . S
H1178 C1190 0.959 . S
H1179 C1193 0.929 . S
H1180 C1194 0.931 . S
H1181 C1196 0.930 . S
C1182 H1170 0.930 . S
C1182 C1183 1.399 1_554 S
C1182 C1187 1.399 . S
C1183 C1182 1.399 1_556 S
C1183 C1184 1.376 . S
C1184 H1171 0.930 . S
C1184 C1183 1.376 . S
C1184 C1185 1.388 1_556 S
C1185 H1172 0.930 . S
C1185 C1184 1.388 1_554 S
C1185 C1186 1.390 . S
C1186 C1185 1.390 . S
C1186 C1187 1.394 . S
C1186 C1192 1.465 . S
C1187 C1182 1.399 . S
C1187 C1186 1.394 . S
C1187 C1188 1.516 . S
C1188 C1187 1.516 . S
C1188 C1189 1.502 . S
C1188 C1190 1.561 . S
C1188 C1191 1.526 . S
C1189 H1173 0.959 . S
C1189 H1174 0.959 . S
C1189 H1175 0.961 . S
C1189 C1188 1.502 . S
C1190 H1176 0.960 . S
C1190 H1177 0.961 . S
C1190 H1178 0.959 . S
C1190 C1188 1.561 . S
C1191 C1188 1.526 . S
C1191 C1192 1.396 . S
C1191 C1196 1.390 . S
C1192 C1186 1.465 . S
C1192 C1191 1.396 . S
C1192 C1193 1.399 . S
C1193 H1179 0.929 . S
C1193 C1192 1.399 . S
C1193 C1194 1.385 . S
C1194 H1180 0.931 . S
C1194 C1193 1.385 . S
C1194 C1195 1.389 . S
C1195 C1194 1.389 . S
C1195 C1196 1.387 . S
C1196 H1181 0.930 . S
C1196 C1191 1.390 . S
C1196 C1195 1.387 . S
H1197 C1209 0.930 1_556 S
H1198 C1211 0.930 1_556 S
H1199 C1212 0.930 . S
H1200 C1216 0.959 . S
H1201 C1216 0.959 . S
H1202 C1216 0.961 . S
H1203 C1217 0.960 . S
H1204 C1217 0.961 . S
H1205 C1217 0.959 . S
H1206 C1220 0.929 . S
H1207 C1221 0.931 . S
H1208 C1223 0.930 . S
C1209 H1197 0.930 1_554 S
C1209 C1210 1.399 1_554 S
C1209 C1214 1.399 . S
C1210 C1209 1.399 1_556 S
C1210 C1211 1.376 1_556 S
C1211 H1198 0.930 1_554 S
C1211 C1210 1.376 1_554 S
C1211 C1212 1.388 . S
C1212 H1199 0.930 . S
C1212 C1211 1.388 . S
C1212 C1213 1.390 . S
C1213 C1212 1.390 . S
C1213 C1214 1.394 . S
C1213 C1219 1.465 . S
C1214 C1209 1.399 . S
C1214 C1213 1.394 . S
C1214 C1215 1.516 . S
C1215 C1214 1.516 . S
C1215 C1216 1.502 . S
C1215 C1217 1.561 . S
C1215 C1218 1.526 . S
C1216 H1200 0.959 . S
C1216 H1201 0.959 . S
C1216 H1202 0.961 . S
C1216 C1215 1.502 . S
C1217 H1203 0.960 . S
C1217 H1204 0.961 . S
C1217 H1205 0.959 . S
C1217 C1215 1.561 . S
C1218 C1215 1.526 . S
C1218 C1219 1.396 . S
C1218 C1223 1.390 . S
C1219 C1213 1.465 . S
C1219 C1218 1.396 . S
C1219 C1220 1.399 . S
C1220 H1206 0.929 . S
C1220 C1219 1.399 . S
C1220 C1221 1.385 . S
C1221 H1207 0.931 . S
C1221 C1220 1.385 . S
C1221 C1222 1.389 . S
C1222 C1221 1.389 . S
C1222 C1223 1.387 . S
C1223 H1208 0.930 . S
C1223 C1218 1.390 . S
C1223 C1222 1.387 . S
H1224 C1236 0.930 . S
H1225 C1238 0.930 . S
H1226 C1239 0.930 . S
H1227 C1243 0.959 . S
H1228 C1243 0.959 . S
H1229 C1243 0.961 . S
H1230 C1244 0.960 . S
H1231 C1244 0.961 . S
H1232 C1244 0.959 . S
H1233 C1247 0.929 . S
H1234 C1248 0.931 . S
H1235 C1250 0.930 . S
C1236 H1224 0.930 . S
C1236 C1237 1.399 . S
C1236 C1241 1.399 . S
C1237 C1236 1.399 . S
C1237 C1238 1.376 . S
C1238 H1225 0.930 . S
C1238 C1237 1.376 . S
C1238 C1239 1.388 . S
C1239 H1226 0.930 . S
C1239 C1238 1.388 . S
C1239 C1240 1.390 . S
C1240 C1239 1.390 . S
C1240 C1241 1.394 . S
C1240 C1246 1.465 . S
C1241 C1236 1.399 . S
C1241 C1240 1.394 . S
C1241 C1242 1.516 . S
C1242 C1241 1.516 . S
C1242 C1243 1.502 . S
C1242 C1244 1.561 . S
C1242 C1245 1.526 . S
C1243 H1227 0.959 . S
C1243 H1228 0.959 . S
C1243 H1229 0.961 . S
C1243 C1242 1.502 . S
C1244 H1230 0.960 . S
C1244 H1231 0.961 . S
C1244 H1232 0.959 . S
C1244 C1242 1.561 . S
C1245 C1242 1.526 . S
C1245 C1246 1.396 . S
C1245 C1250 1.390 1_556 S
C1246 C1240 1.465 . S
C1246 C1245 1.396 . S
C1246 C1247 1.399 . S
C1247 H1233 0.929 . S
C1247 C1246 1.399 . S
C1247 C1248 1.385 1_556 S
C1248 H1234 0.931 . S
C1248 C1247 1.385 1_554 S
C1248 C1249 1.389 . S
C1249 C1248 1.389 . S
C1249 C1250 1.387 . S
C1250 H1235 0.930 . S
C1250 C1245 1.390 1_554 S
C1250 C1249 1.387 . S
H1251 C1263 0.930 . S
H1252 C1265 0.930 . S
H1253 C1266 0.930 . S
H1254 C1270 0.959 . S
H1255 C1270 0.959 . S
H1256 C1270 0.961 . S
H1257 C1271 0.960 . S
H1258 C1271 0.961 . S
H1259 C1271 0.959 . S
H1260 C1274 0.929 . S
H1261 C1275 0.931 . S
H1262 C1277 0.930 . S
C1263 H1251 0.930 . S
C1263 C1264 1.399 . S
C1263 C1268 1.399 . S
C1264 C1263 1.399 . S
C1264 C1265 1.376 . S
C1265 H1252 0.930 . S
C1265 C1264 1.376 . S
C1265 C1266 1.388 . S
C1266 H1253 0.930 . S
C1266 C1265 1.388 . S
C1266 C1267 1.390 . S
C1267 C1266 1.390 . S
C1267 C1268 1.394 . S
C1267 C1273 1.465 . S
C1268 C1263 1.399 . S
C1268 C1267 1.394 . S
C1268 C1269 1.516 . S
C1269 C1268 1.516 . S
C1269 C1270 1.502 . S
C1269 C1271 1.561 . S
C1269 C1272 1.526 . S
C1270 H1254 0.959 . S
C1270 H1255 0.959 . S
C1270 H1256 0.961 . S
C1270 C1269 1.502 . S
C1271 H1257 0.960 . S
C1271 H1258 0.961 . S
C1271 H1259 0.959 . S
C1271 C1269 1.561 . S
C1272 C1269 1.526 . S
C1272 C1273 1.396 . S
C1272 C1277 1.390 . S
C1273 C1267 1.465 . S
C1273 C1272 1.396 . S
C1273 C1274 1.399 . S
C1274 H1260 0.929 . S
C1274 C1273 1.399 . S
C1274 C1275 1.385 1_556 S
C1275 H1261 0.931 . S
C1275 C1274 1.385 1_554 S
C1275 C1276 1.389 . S
C1276 C1275 1.389 . S
C1276 C1277 1.387 1_554 S
C1277 H1262 0.930 . S
C1277 C1272 1.390 . S
C1277 C1276 1.387 1_556 S
H1278 C1290 0.930 . S
H1279 C1292 0.930 . S
H1280 C1293 0.930 . S
H1281 C1297 0.959 . S
H1282 C1297 0.959 . S
H1283 C1297 0.961 . S
H1284 C1298 0.960 . S
H1285 C1298 0.961 . S
H1286 C1298 0.959 . S
H1287 C1301 0.929 . S
H1288 C1302 0.931 . S
H1289 C1304 0.930 . S
C1290 H1278 0.930 . S
C1290 C1291 1.399 . S
C1290 C1295 1.399 . S
C1291 C1290 1.399 . S
C1291 C1292 1.376 . S
C1292 H1279 0.930 . S
C1292 C1291 1.376 . S
C1292 C1293 1.388 . S
C1293 H1280 0.930 . S
C1293 C1292 1.388 . S
C1293 C1294 1.390 . S
C1294 C1293 1.390 . S
C1294 C1295 1.394 . S
C1294 C1300 1.465 . S
C1295 C1290 1.399 . S
C1295 C1294 1.394 . S
C1295 C1296 1.516 . S
C1296 C1295 1.516 . S
C1296 C1297 1.502 . S
C1296 C1298 1.561 . S
C1296 C1299 1.526 . S
C1297 H1281 0.959 . S
C1297 H1282 0.959 . S
C1297 H1283 0.961 . S
C1297 C1296 1.502 . S
C1298 H1284 0.960 . S
C1298 H1285 0.961 . S
C1298 H1286 0.959 . S
C1298 C1296 1.561 . S
C1299 C1296 1.526 . S
C1299 C1300 1.396 . S
C1299 C1304 1.390 . S
C1300 C1294 1.465 . S
C1300 C1299 1.396 . S
C1300 C1301 1.399 . S
C1301 H1287 0.929 . S
C1301 C1300 1.399 . S
C1301 C1302 1.385 1_556 S
C1302 H1288 0.931 . S
C1302 C1301 1.385 1_554 S
C1302 C1303 1.389 . S
C1303 C1302 1.389 . S
C1303 C1304 1.387 1_554 S
C1304 H1289 0.930 . S
C1304 C1299 1.390 . S
C1304 C1303 1.387 1_556 S
H1305 C1317 0.930 . S
H1306 C1319 0.930 . S
H1307 C1320 0.930 . S
H1308 C1324 0.959 . S
H1309 C1324 0.959 . S
H1310 C1324 0.961 . S
H1311 C1325 0.960 . S
H1312 C1325 0.961 . S
H1313 C1325 0.959 . S
H1314 C1328 0.929 . S
H1315 C1329 0.931 . S
H1316 C1331 0.930 . S
C1317 H1305 0.930 . S
C1317 C1318 1.399 . S
C1317 C1322 1.399 . S
C1318 C1317 1.399 . S
C1318 C1319 1.376 . S
C1319 H1306 0.930 . S
C1319 C1318 1.376 . S
C1319 C1320 1.388 . S
C1320 H1307 0.930 . S
C1320 C1319 1.388 . S
C1320 C1321 1.390 . S
C1321 C1320 1.390 . S
C1321 C1322 1.394 . S
C1321 C1327 1.465 . S
C1322 C1317 1.399 . S
C1322 C1321 1.394 . S
C1322 C1323 1.516 . S
C1323 C1322 1.516 . S
C1323 C1324 1.502 . S
C1323 C1325 1.561 . S
C1323 C1326 1.526 . S
C1324 H1308 0.959 . S
C1324 H1309 0.959 . S
C1324 H1310 0.961 . S
C1324 C1323 1.502 . S
C1325 H1311 0.960 . S
C1325 H1312 0.961 . S
C1325 H1313 0.959 . S
C1325 C1323 1.561 . S
C1326 C1323 1.526 . S
C1326 C1327 1.396 . S
C1326 C1331 1.390 . S
C1327 C1321 1.465 . S
C1327 C1326 1.396 . S
C1327 C1328 1.399 . S
C1328 H1314 0.929 . S
C1328 C1327 1.399 . S
C1328 C1329 1.385 . S
C1329 H1315 0.931 . S
C1329 C1328 1.385 . S
C1329 C1330 1.389 . S
C1330 C1329 1.389 . S
C1330 C1331 1.387 . S
C1331 H1316 0.930 . S
C1331 C1326 1.390 . S
C1331 C1330 1.387 . S
H1332 C1344 0.930 . S
H1333 C1346 0.930 . S
H1334 C1347 0.930 . S
H1335 C1351 0.959 . S
H1336 C1351 0.959 . S
H1337 C1351 0.961 . S
H1338 C1352 0.960 . S
H1339 C1352 0.961 . S
H1340 C1352 0.959 . S
H1341 C1355 0.929 . S
H1342 C1356 0.931 . S
H1343 C1358 0.930 . S
C1344 H1332 0.930 . S
C1344 C1345 1.399 . S
C1344 C1349 1.399 . S
C1345 C1344 1.399 . S
C1345 C1346 1.376 . S
C1346 H1333 0.930 . S
C1346 C1345 1.376 . S
C1346 C1347 1.388 . S
C1347 H1334 0.930 . S
C1347 C1346 1.388 . S
C1347 C1348 1.390 . S
C1348 C1347 1.390 . S
C1348 C1349 1.394 . S
C1348 C1354 1.465 . S
C1349 C1344 1.399 . S
C1349 C1348 1.394 . S
C1349 C1350 1.516 . S
C1350 C1349 1.516 . S
C1350 C1351 1.502 . S
C1350 C1352 1.561 . S
C1350 C1353 1.526 . S
C1351 H1335 0.959 . S
C1351 H1336 0.959 . S
C1351 H1337 0.961 . S
C1351 C1350 1.502 . S
C1352 H1338 0.960 . S
C1352 H1339 0.961 . S
C1352 H1340 0.959 . S
C1352 C1350 1.561 . S
C1353 C1350 1.526 . S
C1353 C1354 1.396 . S
C1353 C1358 1.390 . S
C1354 C1348 1.465 . S
C1354 C1353 1.396 . S
C1354 C1355 1.399 . S
C1355 H1341 0.929 . S
C1355 C1354 1.399 . S
C1355 C1356 1.385 . S
C1356 H1342 0.931 . S
C1356 C1355 1.385 . S
C1356 C1357 1.389 . S
C1357 C1356 1.389 . S
C1357 C1358 1.387 . S
C1358 H1343 0.930 . S
C1358 C1353 1.390 . S
C1358 C1357 1.387 . S
H1359 C1371 0.930 . S
H1360 C1373 0.930 . S
H1361 C1374 0.930 . S
H1362 C1378 0.959 . S
H1363 C1378 0.959 . S
H1364 C1378 0.961 . S
H1365 C1379 0.960 . S
H1366 C1379 0.961 . S
H1367 C1379 0.959 . S
H1368 C1382 0.929 . S
H1369 C1383 0.931 . S
H1370 C1385 0.930 . S
C1371 H1359 0.930 . S
C1371 C1372 1.399 . S
C1371 C1376 1.399 . S
C1372 C1371 1.399 . S
C1372 C1373 1.376 . S
C1373 H1360 0.930 . S
C1373 C1372 1.376 . S
C1373 C1374 1.388 . S
C1374 H1361 0.930 . S
C1374 C1373 1.388 . S
C1374 C1375 1.390 . S
C1375 C1374 1.390 . S
C1375 C1376 1.394 . S
C1375 C1381 1.465 . S
C1376 C1371 1.399 . S
C1376 C1375 1.394 . S
C1376 C1377 1.516 . S
C1377 C1376 1.516 . S
C1377 C1378 1.502 . S
C1377 C1379 1.561 . S
C1377 C1380 1.526 . S
C1378 H1362 0.959 . S
C1378 H1363 0.959 . S
C1378 H1364 0.961 . S
C1378 C1377 1.502 . S
C1379 H1365 0.960 . S
C1379 H1366 0.961 . S
C1379 H1367 0.959 . S
C1379 C1377 1.561 . S
C1380 C1377 1.526 . S
C1380 C1381 1.396 . S
C1380 C1385 1.390 . S
C1381 C1375 1.465 . S
C1381 C1380 1.396 . S
C1381 C1382 1.399 . S
C1382 H1368 0.929 . S
C1382 C1381 1.399 . S
C1382 C1383 1.385 . S
C1383 H1369 0.931 . S
C1383 C1382 1.385 . S
C1383 C1384 1.389 . S
C1384 C1383 1.389 . S
C1384 C1385 1.387 . S
C1385 H1370 0.930 . S
C1385 C1380 1.390 . S
C1385 C1384 1.387 . S
H1386 C1398 0.930 . S
H1387 C1400 0.930 . S
H1388 C1401 0.930 . S
H1389 C1405 0.959 . S
H1390 C1405 0.959 . S
H1391 C1405 0.961 . S
H1392 C1406 0.960 . S
H1393 C1406 0.961 . S
H1394 C1406 0.959 . S
H1395 C1409 0.929 . S
H1396 C1410 0.931 . S
H1397 C1412 0.930 1_554 S
C1398 H1386 0.930 . S
C1398 C1399 1.399 . S
C1398 C1403 1.399 . S
C1399 C1398 1.399 . S
C1399 C1400 1.376 . S
C1400 H1387 0.930 . S
C1400 C1399 1.376 . S
C1400 C1401 1.388 . S
C1401 H1388 0.930 . S
C1401 C1400 1.388 . S
C1401 C1402 1.390 . S
C1402 C1401 1.390 . S
C1402 C1403 1.394 . S
C1402 C1408 1.465 . S
C1403 C1398 1.399 . S
C1403 C1402 1.394 . S
C1403 C1404 1.516 . S
C1404 C1403 1.516 . S
C1404 C1405 1.502 1_556 S
C1404 C1406 1.561 . S
C1404 C1407 1.526 . S
C1405 H1389 0.959 . S
C1405 H1390 0.959 . S
C1405 H1391 0.961 . S
C1405 C1404 1.502 1_554 S
C1406 H1392 0.960 . S
C1406 H1393 0.961 . S
C1406 H1394 0.959 . S
C1406 C1404 1.561 . S
C1407 C1404 1.526 . S
C1407 C1408 1.396 . S
C1407 C1412 1.390 . S
C1408 C1402 1.465 . S
C1408 C1407 1.396 . S
C1408 C1409 1.399 1_565 S
C1409 H1395 0.929 . S
C1409 C1408 1.399 1_545 S
C1409 C1410 1.385 . S
C1410 H1396 0.931 . S
C1410 C1409 1.385 . S
C1410 C1411 1.389 . S
C1411 C1410 1.389 . S
C1411 C1412 1.387 1_545 S
C1412 H1397 0.930 1_556 S
C1412 C1407 1.390 . S
C1412 C1411 1.387 1_565 S
H1413 C1425 0.930 . S
H1414 C1427 0.930 . S
H1415 C1428 0.930 . S
H1416 C1432 0.970 . S
H1417 C1432 0.959 . S
H1418 C1432 0.961 1_554 S
H1419 C1433 0.960 . S
H1420 C1433 0.961 . S
H1421 C1433 0.959 . S
H1422 C1436 0.929 . S
H1423 C1437 0.931 . S
H1424 C1439 0.930 . S
C1425 H1413 0.930 . S
C1425 C1426 1.399 . S
C1425 C1430 1.399 1_655 S
C1426 C1425 1.399 . S
C1426 C1427 1.376 . S
C1427 H1414 0.930 . S
C1427 C1426 1.376 . S
C1427 C1428 1.388 1_655 S
C1428 H1415 0.930 . S
C1428 C1427 1.388 1_455 S
C1428 C1429 1.390 . S
C1429 C1428 1.390 . S
C1429 C1430 1.394 . S
C1429 C1435 1.465 . S
C1430 C1425 1.399 1_455 S
C1430 C1429 1.394 . S
C1430 C1431 1.516 . S
C1431 C1430 1.516 . S
C1431 C1432 1.502 . S
C1431 C1433 1.561 1_455 S
C1431 C1434 1.526 . S
C1432 H1416 0.970 . S
C1432 H1417 0.959 . S
C1432 H1418 0.961 1_556 S
C1432 C1431 1.502 . S
C1433 H1419 0.960 . S
C1433 H1420 0.961 . S
C1433 H1421 0.959 . S
C1433 C1431 1.561 1_655 S
C1434 C1431 1.526 . S
C1434 C1435 1.396 . S
C1434 C1439 1.390 . S
C1435 C1429 1.465 . S
C1435 C1434 1.396 . S
C1435 C1436 1.399 . S
C1436 H1422 0.929 . S
C1436 C1435 1.399 . S
C1436 C1437 1.385 . S
C1437 H1423 0.931 . S
C1437 C1436 1.385 . S
C1437 C1438 1.389 . S
C1438 C1437 1.389 . S
C1438 C1439 1.387 . S
C1439 H1424 0.930 . S
C1439 C1434 1.390 . S
C1439 C1438 1.387 . S
H1440 C1452 0.930 . S
H1441 C1454 0.930 . S
H1442 C1455 0.930 . S
H1443 C1459 0.959 . S
H1444 C1459 0.959 . S
H1445 C1459 0.961 . S
H1446 C1460 0.960 . S
H1447 C1460 0.961 . S
H1448 C1460 0.959 . S
H1449 C1463 0.929 . S
H1450 C1464 0.931 1_554 S
H1451 C1466 0.930 . S
C1452 H1440 0.930 . S
C1452 C1453 1.399 . S
C1452 C1457 1.399 . S
C1453 C1452 1.399 . S
C1453 C1454 1.376 . S
C1454 H1441 0.930 . S
C1454 C1453 1.376 . S
C1454 C1455 1.388 . S
C1455 H1442 0.930 . S
C1455 C1454 1.388 . S
C1455 C1456 1.390 . S
C1456 C1455 1.390 . S
C1456 C1457 1.394 . S
C1456 C1462 1.465 . S
C1457 C1452 1.399 . S
C1457 C1456 1.394 . S
C1457 C1458 1.516 . S
C1458 C1457 1.516 . S
C1458 C1459 1.502 . S
C1458 C1460 1.561 . S
C1458 C1461 1.526 . S
C1459 H1443 0.959 . S
C1459 H1444 0.959 . S
C1459 H1445 0.961 . S
C1459 C1458 1.502 . S
C1460 H1446 0.960 . S
C1460 H1447 0.961 . S
C1460 H1448 0.959 . S
C1460 C1458 1.561 . S
C1461 C1458 1.526 . S
C1461 C1462 1.396 . S
C1461 C1466 1.390 . S
C1462 C1456 1.465 . S
C1462 C1461 1.396 . S
C1462 C1463 1.399 . S
C1463 H1449 0.929 . S
C1463 C1462 1.399 . S
C1463 C1464 1.385 . S
C1464 H1450 0.931 1_556 S
C1464 C1463 1.385 . S
C1464 C1465 1.389 . S
C1465 C1464 1.389 . S
C1465 C1466 1.387 . S
C1466 H1451 0.930 . S
C1466 C1461 1.390 . S
C1466 C1465 1.387 . S
H1467 C1479 0.930 . S
H1468 C1481 0.930 . S
H1469 C1482 0.930 . S
H1470 C1486 0.959 . S
H1471 C1486 0.959 . S
H1472 C1486 0.961 . S
H1473 C1487 0.960 . S
H1474 C1487 0.960 . S
H1475 C1487 0.959 . S
H1476 C1490 0.929 . S
H1477 C1491 0.931 . S
H1478 C1493 0.930 . S
C1479 H1467 0.930 . S
C1479 C1480 1.399 . S
C1479 C1484 1.399 1_655 S
C1480 C1479 1.399 . S
C1480 C1481 1.376 . S
C1481 H1468 0.930 . S
C1481 C1480 1.376 . S
C1481 C1482 1.388 1_655 S
C1482 H1469 0.930 . S
C1482 C1481 1.388 1_455 S
C1482 C1483 1.390 . S
C1483 C1482 1.390 . S
C1483 C1484 1.394 . S
C1483 C1489 1.465 . S
C1484 C1479 1.399 1_455 S
C1484 C1483 1.394 . S
C1484 C1485 1.516 . S
C1485 C1484 1.516 . S
C1485 C1486 1.502 . S
C1485 C1487 1.561 1_455 S
C1485 C1488 1.526 . S
C1486 H1470 0.959 . S
C1486 H1471 0.959 . S
C1486 H1472 0.961 . S
C1486 C1485 1.502 . S
C1487 H1473 0.960 . S
C1487 H1474 0.960 . S
C1487 H1475 0.959 . S
C1487 C1485 1.561 1_655 S
C1488 C1485 1.526 . S
C1488 C1489 1.396 . S
C1488 C1493 1.390 . S
C1489 C1483 1.465 . S
C1489 C1488 1.396 . S
C1489 C1490 1.399 . S
C1490 H1476 0.929 . S
C1490 C1489 1.399 . S
C1490 C1491 1.385 . S
C1491 H1477 0.931 . S
C1491 C1490 1.385 . S
C1491 C1492 1.389 . S
C1492 C1491 1.389 . S
C1492 C1493 1.387 . S
C1493 H1478 0.930 . S
C1493 C1488 1.390 . S
C1493 C1492 1.387 . S
H1494 C1506 0.930 . S
H1495 C1508 0.930 . S
H1496 C1509 0.930 . S
H1497 C1513 0.959 . S
H1498 C1513 0.959 . S
H1499 C1513 0.961 . S
H1500 C1514 0.960 . S
H1501 C1514 0.961 . S
H1502 C1514 0.959 . S
H1503 C1517 0.929 . S
H1504 C1518 0.931 . S
H1505 C1520 0.930 . S
C1506 H1494 0.930 . S
C1506 C1507 1.399 . S
C1506 C1511 1.399 . S
C1507 C1506 1.399 . S
C1507 C1508 1.376 . S
C1508 H1495 0.930 . S
C1508 C1507 1.376 . S
C1508 C1509 1.388 . S
C1509 H1496 0.930 . S
C1509 C1508 1.388 . S
C1509 C1510 1.390 . S
C1510 C1509 1.390 . S
C1510 C1511 1.394 . S
C1510 C1516 1.465 . S
C1511 C1506 1.399 . S
C1511 C1510 1.394 . S
C1511 C1512 1.516 . S
C1512 C1511 1.516 . S
C1512 C1513 1.502 . S
C1512 C1514 1.561 . S
C1512 C1515 1.526 . S
C1513 H1497 0.959 . S
C1513 H1498 0.959 . S
C1513 H1499 0.961 . S
C1513 C1512 1.502 . S
C1514 H1500 0.960 . S
C1514 H1501 0.961 . S
C1514 H1502 0.959 . S
C1514 C1512 1.561 . S
C1515 C1512 1.526 . S
C1515 C1516 1.396 . S
C1515 C1520 1.390 . S
C1516 C1510 1.465 . S
C1516 C1515 1.396 . S
C1516 C1517 1.399 . S
C1517 H1503 0.929 . S
C1517 C1516 1.399 . S
C1517 C1518 1.385 . S
C1518 H1504 0.931 . S
C1518 C1517 1.385 . S
C1518 C1519 1.389 . S
C1519 C1518 1.389 . S
C1519 C1520 1.387 . S
C1520 H1505 0.930 . S
C1520 C1515 1.390 . S
C1520 C1519 1.387 . S
H1521 C1533 0.930 . S
H1522 C1535 0.930 . S
H1523 C1536 0.930 . S
H1524 C1540 0.959 . S
H1525 C1540 0.959 . S
H1526 C1540 0.961 . S
H1527 C1541 0.960 . S
H1528 C1541 0.961 . S
H1529 C1541 0.959 . S
H1530 C1544 0.929 . S
H1531 C1545 0.931 . S
H1532 C1547 0.934 . S
C1533 H1521 0.930 . S
C1533 C1534 1.399 . S
C1533 C1538 1.399 . S
C1534 C1533 1.399 . S
C1534 C1535 1.376 . S
C1535 H1522 0.930 . S
C1535 C1534 1.376 . S
C1535 C1536 1.388 . S
C1536 H1523 0.930 . S
C1536 C1535 1.388 . S
C1536 C1537 1.390 . S
C1537 C1536 1.390 . S
C1537 C1538 1.394 . S
C1537 C1543 1.465 . S
C1538 C1533 1.399 . S
C1538 C1537 1.394 . S
C1538 C1539 1.516 . S
C1539 C1538 1.516 . S
C1539 C1540 1.502 . S
C1539 C1541 1.561 . S
C1539 C1542 1.526 . S
C1540 H1524 0.959 . S
C1540 H1525 0.959 . S
C1540 H1526 0.961 . S
C1540 C1539 1.502 . S
C1541 H1527 0.960 . S
C1541 H1528 0.961 . S
C1541 H1529 0.959 . S
C1541 C1539 1.561 . S
C1542 C1539 1.526 . S
C1542 C1543 1.396 . S
C1542 C1547 1.390 1_565 S
C1543 C1537 1.465 . S
C1543 C1542 1.396 . S
C1543 C1544 1.399 1_565 S
C1544 H1530 0.929 . S
C1544 C1543 1.399 1_545 S
C1544 C1545 1.385 . S
C1545 H1531 0.931 . S
C1545 C1544 1.385 . S
C1545 C1546 1.389 . S
C1546 C1545 1.389 . S
C1546 C1547 1.387 . S
C1547 H1532 0.934 . S
C1547 C1542 1.390 1_545 S
C1547 C1546 1.387 . S
H1548 C1560 0.930 . S
H1549 C1562 0.930 . S
H1550 C1563 0.930 . S
H1551 C1567 0.959 . S
H1552 C1567 0.959 . S
H1553 C1567 0.961 . S
H1554 C1568 0.960 . S
H1555 C1568 0.961 . S
H1556 C1568 0.959 . S
H1557 C1571 0.929 . S
H1558 C1572 0.931 . S
H1559 C1574 0.930 . S
C1560 H1548 0.930 . S
C1560 C1561 1.399 . S
C1560 C1565 1.399 . S
C1561 C1560 1.399 . S
C1561 C1562 1.376 . S
C1562 H1549 0.930 . S
C1562 C1561 1.376 . S
C1562 C1563 1.388 . S
C1563 H1550 0.930 . S
C1563 C1562 1.388 . S
C1563 C1564 1.390 . S
C1564 C1563 1.390 . S
C1564 C1565 1.394 . S
C1564 C1570 1.465 . S
C1565 C1560 1.399 . S
C1565 C1564 1.394 . S
C1565 C1566 1.516 . S
C1566 C1565 1.516 . S
C1566 C1567 1.502 . S
C1566 C1568 1.561 . S
C1566 C1569 1.526 . S
C1567 H1551 0.959 . S
C1567 H1552 0.959 . S
C1567 H1553 0.961 . S
C1567 C1566 1.502 . S
C1568 H1554 0.960 . S
C1568 H1555 0.961 . S
C1568 H1556 0.959 . S
C1568 C1566 1.561 . S
C1569 C1566 1.526 . S
C1569 C1570 1.396 . S
C1569 C1574 1.390 . S
C1570 C1564 1.465 . S
C1570 C1569 1.396 . S
C1570 C1571 1.399 . S
C1571 H1557 0.929 . S
C1571 C1570 1.399 . S
C1571 C1572 1.385 . S
C1572 H1558 0.931 . S
C1572 C1571 1.385 . S
C1572 C1573 1.389 . S
C1573 C1572 1.389 . S
C1573 C1574 1.387 . S
C1574 H1559 0.930 . S
C1574 C1569 1.390 . S
C1574 C1573 1.387 . S
H1575 C1587 0.930 . S
H1576 C1589 0.930 . S
H1577 C1590 0.930 . S
H1578 C1594 0.959 . S
H1579 C1594 0.959 . S
H1580 C1594 0.961 . S
H1581 C1595 0.960 . S
H1582 C1595 0.961 . S
H1583 C1595 0.959 . S
H1584 C1598 0.929 . S
H1585 C1599 0.931 . S
H1586 C1601 0.930 . S
C1587 H1575 0.930 . S
C1587 C1588 1.399 . S
C1587 C1592 1.399 . S
C1588 C1587 1.399 . S
C1588 C1589 1.376 . S
C1589 H1576 0.930 . S
C1589 C1588 1.376 . S
C1589 C1590 1.388 . S
C1590 H1577 0.930 . S
C1590 C1589 1.388 . S
C1590 C1591 1.390 . S
C1591 C1590 1.390 . S
C1591 C1592 1.394 . S
C1591 C1597 1.465 . S
C1592 C1587 1.399 . S
C1592 C1591 1.394 . S
C1592 C1593 1.516 . S
C1593 C1592 1.516 . S
C1593 C1594 1.502 . S
C1593 C1595 1.561 . S
C1593 C1596 1.526 . S
C1594 H1578 0.959 . S
C1594 H1579 0.959 . S
C1594 H1580 0.961 . S
C1594 C1593 1.502 . S
C1595 H1581 0.960 . S
C1595 H1582 0.961 . S
C1595 H1583 0.959 . S
C1595 C1593 1.561 . S
C1596 C1593 1.526 . S
C1596 C1597 1.396 . S
C1596 C1601 1.390 . S
C1597 C1591 1.465 . S
C1597 C1596 1.396 . S
C1597 C1598 1.399 . S
C1598 H1584 0.929 . S
C1598 C1597 1.399 . S
C1598 C1599 1.385 . S
C1599 H1585 0.931 . S
C1599 C1598 1.385 . S
C1599 C1600 1.389 . S
C1600 C1599 1.389 . S
C1600 C1601 1.387 . S
C1601 H1586 0.930 . S
C1601 C1596 1.390 . S
C1601 C1600 1.387 . S
H1602 C1614 0.930 . S
H1603 C1616 0.930 . S
H1604 C1617 0.930 . S
H1605 C1621 0.959 . S
H1606 C1621 0.959 . S
H1607 C1621 0.961 . S
H1608 C1622 0.960 . S
H1609 C1622 0.961 . S
H1610 C1622 0.959 . S
H1611 C1625 0.929 . S
H1612 C1626 0.931 . S
H1613 C1628 0.930 . S
C1614 H1602 0.930 . S
C1614 C1615 1.399 . S
C1614 C1619 1.399 . S
C1615 C1614 1.399 . S
C1615 C1616 1.376 . S
C1616 H1603 0.930 . S
C1616 C1615 1.376 . S
C1616 C1617 1.388 . S
C1617 H1604 0.930 . S
C1617 C1616 1.388 . S
C1617 C1618 1.390 . S
C1618 C1617 1.390 . S
C1618 C1619 1.394 . S
C1618 C1624 1.465 . S
C1619 C1614 1.399 . S
C1619 C1618 1.394 . S
C1619 C1620 1.516 . S
C1620 C1619 1.516 . S
C1620 C1621 1.502 . S
C1620 C1622 1.561 . S
C1620 C1623 1.526 . S
C1621 H1605 0.959 . S
C1621 H1606 0.959 . S
C1621 H1607 0.961 . S
C1621 C1620 1.502 . S
C1622 H1608 0.960 . S
C1622 H1609 0.961 . S
C1622 H1610 0.959 . S
C1622 C1620 1.561 . S
C1623 C1620 1.526 . S
C1623 C1624 1.396 . S
C1623 C1628 1.390 . S
C1624 C1618 1.465 . S
C1624 C1623 1.396 . S
C1624 C1625 1.399 . S
C1625 H1611 0.929 . S
C1625 C1624 1.399 . S
C1625 C1626 1.385 . S
C1626 H1612 0.931 . S
C1626 C1625 1.385 . S
C1626 C1627 1.389 . S
C1627 C1626 1.389 . S
C1627 C1628 1.387 . S
C1628 H1613 0.930 . S
C1628 C1623 1.390 . S
C1628 C1627 1.387 . S
H1629 C1641 0.930 . S
H1630 C1643 0.930 . S
H1631 C1644 0.930 . S
H1632 C1648 0.959 . S
H1633 C1648 0.959 . S
H1634 C1648 0.961 . S
H1635 C1649 0.960 . S
H1636 C1649 0.961 . S
H1637 C1649 0.959 . S
H1638 C1652 0.929 . S
H1639 C1653 0.931 . S
H1640 C1655 0.930 . S
C1641 H1629 0.930 . S
C1641 C1642 1.399 . S
C1641 C1646 1.399 . S
C1642 C1641 1.399 . S
C1642 C1643 1.376 . S
C1643 H1630 0.930 . S
C1643 C1642 1.376 . S
C1643 C1644 1.388 . S
C1644 H1631 0.930 . S
C1644 C1643 1.388 . S
C1644 C1645 1.390 . S
C1645 C1644 1.390 . S
C1645 C1646 1.394 . S
C1645 C1651 1.465 . S
C1646 C1641 1.399 . S
C1646 C1645 1.394 . S
C1646 C1647 1.516 . S
C1647 C1646 1.516 . S
C1647 C1648 1.502 . S
C1647 C1649 1.561 . S
C1647 C1650 1.526 . S
C1648 H1632 0.959 . S
C1648 H1633 0.959 . S
C1648 H1634 0.961 . S
C1648 C1647 1.502 . S
C1649 H1635 0.960 . S
C1649 H1636 0.961 . S
C1649 H1637 0.959 . S
C1649 C1647 1.561 . S
C1650 C1647 1.526 . S
C1650 C1651 1.396 . S
C1650 C1655 1.390 . S
C1651 C1645 1.465 . S
C1651 C1650 1.396 . S
C1651 C1652 1.399 . S
C1652 H1638 0.929 . S
C1652 C1651 1.399 . S
C1652 C1653 1.385 . S
C1653 H1639 0.931 . S
C1653 C1652 1.385 . S
C1653 C1654 1.389 . S
C1654 C1653 1.389 . S
C1654 C1655 1.387 . S
C1655 H1640 0.930 . S
C1655 C1650 1.390 . S
C1655 C1654 1.387 . S
H1656 C1668 0.930 . S
H1657 C1670 0.930 . S
H1658 C1671 0.930 . S
H1659 C1675 0.959 . S
H1660 C1675 0.959 . S
H1661 C1675 0.961 . S
H1662 C1676 0.960 . S
H1663 C1676 0.961 . S
H1664 C1676 0.959 . S
H1665 C1679 0.929 . S
H1666 C1680 0.931 . S
H1667 C1682 0.930 . S
C1668 H1656 0.930 . S
C1668 C1669 1.399 . S
C1668 C1673 1.399 . S
C1669 C1668 1.399 . S
C1669 C1670 1.376 . S
C1670 H1657 0.930 . S
C1670 C1669 1.376 . S
C1670 C1671 1.388 . S
C1671 H1658 0.930 . S
C1671 C1670 1.388 . S
C1671 C1672 1.390 . S
C1672 C1671 1.390 . S
C1672 C1673 1.394 . S
C1672 C1678 1.465 . S
C1673 C1668 1.399 . S
C1673 C1672 1.394 . S
C1673 C1674 1.516 . S
C1674 C1673 1.516 . S
C1674 C1675 1.502 . S
C1674 C1676 1.561 . S
C1674 C1677 1.526 . S
C1675 H1659 0.959 . S
C1675 H1660 0.959 . S
C1675 H1661 0.961 . S
C1675 C1674 1.502 . S
C1676 H1662 0.960 . S
C1676 H1663 0.961 . S
C1676 H1664 0.959 . S
C1676 C1674 1.561 . S
C1677 C1674 1.526 . S
C1677 C1678 1.396 . S
C1677 C1682 1.390 . S
C1678 C1672 1.465 . S
C1678 C1677 1.396 . S
C1678 C1679 1.399 . S
C1679 H1665 0.929 . S
C1679 C1678 1.399 . S
C1679 C1680 1.385 . S
C1680 H1666 0.931 . S
C1680 C1679 1.385 . S
C1680 C1681 1.389 . S
C1681 C1680 1.389 . S
C1681 C1682 1.387 . S
C1682 H1667 0.930 . S
C1682 C1677 1.390 . S
C1682 C1681 1.387 . S
H1683 C1695 0.930 . S
H1684 C1697 0.930 . S
H1685 C1698 0.930 . S
H1686 C1702 0.959 . S
H1687 C1702 0.959 . S
H1688 C1702 0.961 . S
H1689 C1703 0.960 . S
H1690 C1703 0.961 . S
H1691 C1703 0.959 . S
H1692 C1706 0.929 . S
H1693 C1707 0.931 . S
H1694 C1709 0.930 . S
C1695 H1683 0.930 . S
C1695 C1696 1.399 . S
C1695 C1700 1.399 . S
C1696 C1695 1.399 . S
C1696 C1697 1.376 . S
C1697 H1684 0.930 . S
C1697 C1696 1.376 . S
C1697 C1698 1.388 . S
C1698 H1685 0.930 . S
C1698 C1697 1.388 . S
C1698 C1699 1.390 . S
C1699 C1698 1.390 . S
C1699 C1700 1.394 . S
C1699 C1705 1.465 . S
C1700 C1695 1.399 . S
C1700 C1699 1.394 . S
C1700 C1701 1.516 . S
C1701 C1700 1.516 . S
C1701 C1702 1.502 . S
C1701 C1703 1.561 . S
C1701 C1704 1.526 . S
C1702 H1686 0.959 . S
C1702 H1687 0.959 . S
C1702 H1688 0.961 . S
C1702 C1701 1.502 . S
C1703 H1689 0.960 . S
C1703 H1690 0.961 . S
C1703 H1691 0.959 . S
C1703 C1701 1.561 . S
C1704 C1701 1.526 . S
C1704 C1705 1.396 . S
C1704 C1709 1.390 . S
C1705 C1699 1.465 . S
C1705 C1704 1.396 . S
C1705 C1706 1.399 . S
C1706 H1692 0.929 . S
C1706 C1705 1.399 . S
C1706 C1707 1.385 . S
C1707 H1693 0.931 . S
C1707 C1706 1.385 . S
C1707 C1708 1.389 . S
C1708 C1707 1.389 . S
C1708 C1709 1.387 . S
C1709 H1694 0.930 . S
C1709 C1704 1.390 . S
C1709 C1708 1.387 . S
H1710 C1722 0.930 . S
H1711 C1724 0.930 . S
H1712 C1725 0.930 . S
H1713 C1729 0.959 . S
H1714 C1729 0.959 . S
H1715 C1729 0.961 . S
H1716 C1730 0.960 . S
H1717 C1730 0.961 . S
H1718 C1730 0.959 . S
H1719 C1733 0.929 . S
H1720 C1734 0.931 . S
H1721 C1736 0.930 . S
C1722 H1710 0.930 . S
C1722 C1723 1.399 . S
C1722 C1727 1.399 . S
C1723 C1722 1.399 . S
C1723 C1724 1.376 . S
C1724 H1711 0.930 . S
C1724 C1723 1.376 . S
C1724 C1725 1.388 . S
C1725 H1712 0.930 . S
C1725 C1724 1.388 . S
C1725 C1726 1.390 . S
C1726 C1725 1.390 . S
C1726 C1727 1.394 . S
C1726 C1732 1.465 . S
C1727 C1722 1.399 . S
C1727 C1726 1.394 . S
C1727 C1728 1.516 . S
C1728 C1727 1.516 . S
C1728 C1729 1.502 . S
C1728 C1730 1.561 . S
C1728 C1731 1.526 . S
C1729 H1713 0.959 . S
C1729 H1714 0.959 . S
C1729 H1715 0.961 . S
C1729 C1728 1.502 . S
C1730 H1716 0.960 . S
C1730 H1717 0.961 . S
C1730 H1718 0.959 . S
C1730 C1728 1.561 . S
C1731 C1728 1.526 . S
C1731 C1732 1.396 . S
C1731 C1736 1.390 . S
C1732 C1726 1.465 . S
C1732 C1731 1.396 . S
C1732 C1733 1.399 . S
C1733 H1719 0.929 . S
C1733 C1732 1.399 . S
C1733 C1734 1.385 . S
C1734 H1720 0.931 . S
C1734 C1733 1.385 . S
C1734 C1735 1.389 . S
C1735 C1734 1.389 . S
C1735 C1736 1.387 . S
C1736 H1721 0.930 . S
C1736 C1731 1.390 . S
C1736 C1735 1.387 . S
H1737 C1749 0.930 . S
H1738 C1751 0.930 . S
H1739 C1752 0.930 . S
H1740 C1756 0.959 . S
H1741 C1756 0.959 . S
H1742 C1756 0.961 . S
H1743 C1757 0.960 . S
H1744 C1757 0.961 . S
H1745 C1757 0.959 . S
H1746 C1760 0.929 . S
H1747 C1761 0.931 . S
H1748 C1763 0.930 . S
C1749 H1737 0.930 . S
C1749 C1750 1.399 . S
C1749 C1754 1.399 . S
C1750 C1749 1.399 . S
C1750 C1751 1.376 . S
C1751 H1738 0.930 . S
C1751 C1750 1.376 . S
C1751 C1752 1.388 . S
C1752 H1739 0.930 . S
C1752 C1751 1.388 . S
C1752 C1753 1.390 . S
C1753 C1752 1.390 . S
C1753 C1754 1.394 . S
C1753 C1759 1.465 . S
C1754 C1749 1.399 . S
C1754 C1753 1.394 . S
C1754 C1755 1.516 . S
C1755 C1754 1.516 . S
C1755 C1756 1.502 . S
C1755 C1757 1.561 . S
C1755 C1758 1.526 . S
C1756 H1740 0.959 . S
C1756 H1741 0.959 . S
C1756 H1742 0.961 . S
C1756 C1755 1.502 . S
C1757 H1743 0.960 . S
C1757 H1744 0.961 . S
C1757 H1745 0.959 . S
C1757 C1755 1.561 . S
C1758 C1755 1.526 . S
C1758 C1759 1.396 . S
C1758 C1763 1.390 . S
C1759 C1753 1.465 . S
C1759 C1758 1.396 . S
C1759 C1760 1.399 . S
C1760 H1746 0.929 . S
C1760 C1759 1.399 . S
C1760 C1761 1.385 . S
C1761 H1747 0.931 . S
C1761 C1760 1.385 . S
C1761 C1762 1.389 . S
C1762 C1761 1.389 . S
C1762 C1763 1.387 . S
C1763 H1748 0.930 . S
C1763 C1758 1.390 . S
C1763 C1762 1.387 . S
H1764 C1776 0.930 . S
H1765 C1778 0.930 . S
H1766 C1779 0.930 . S
H1767 C1783 0.959 . S
H1768 C1783 0.959 . S
H1769 C1783 0.961 . S
H1770 C1784 0.960 . S
H1771 C1784 0.961 . S
H1772 C1784 0.959 . S
H1773 C1787 0.929 . S
H1774 C1788 0.931 . S
H1775 C1790 0.930 . S
C1776 H1764 0.930 . S
C1776 C1777 1.399 . S
C1776 C1781 1.399 . S
C1777 C1776 1.399 . S
C1777 C1778 1.376 . S
C1778 H1765 0.930 . S
C1778 C1777 1.376 . S
C1778 C1779 1.388 . S
C1779 H1766 0.930 . S
C1779 C1778 1.388 . S
C1779 C1780 1.390 . S
C1780 C1779 1.390 . S
C1780 C1781 1.394 . S
C1780 C1786 1.465 . S
C1781 C1776 1.399 . S
C1781 C1780 1.394 . S
C1781 C1782 1.516 . S
C1782 C1781 1.516 . S
C1782 C1783 1.502 . S
C1782 C1784 1.561 . S
C1782 C1785 1.526 . S
C1783 H1767 0.959 . S
C1783 H1768 0.959 . S
C1783 H1769 0.961 . S
C1783 C1782 1.502 . S
C1784 H1770 0.960 . S
C1784 H1771 0.961 . S
C1784 H1772 0.959 . S
C1784 C1782 1.561 . S
C1785 C1782 1.526 . S
C1785 C1786 1.396 . S
C1785 C1790 1.390 . S
C1786 C1780 1.465 . S
C1786 C1785 1.396 . S
C1786 C1787 1.399 . S
C1787 H1773 0.929 . S
C1787 C1786 1.399 . S
C1787 C1788 1.385 . S
C1788 H1774 0.931 . S
C1788 C1787 1.385 . S
C1788 C1789 1.389 . S
C1789 C1788 1.389 . S
C1789 C1790 1.387 . S
C1790 H1775 0.930 . S
C1790 C1785 1.390 . S
C1790 C1789 1.387 . S
H1791 C1803 0.930 . S
H1792 C1805 0.930 . S
H1793 C1806 0.930 . S
H1794 C1810 0.959 . S
H1795 C1810 0.959 . S
H1796 C1810 0.961 . S
H1797 C1811 0.960 . S
H1798 C1811 0.961 . S
H1799 C1811 0.959 . S
H1800 C1814 0.929 . S
H1801 C1815 0.931 1_556 S
H1802 C1817 0.930 . S
C1803 H1791 0.930 . S
C1803 C1804 1.399 . S
C1803 C1808 1.399 . S
C1804 C1803 1.399 . S
C1804 C1805 1.376 . S
C1805 H1792 0.930 . S
C1805 C1804 1.376 . S
C1805 C1806 1.388 . S
C1806 H1793 0.930 . S
C1806 C1805 1.388 . S
C1806 C1807 1.390 . S
C1807 C1806 1.390 . S
C1807 C1808 1.394 . S
C1807 C1813 1.465 . S
C1808 C1803 1.399 . S
C1808 C1807 1.394 . S
C1808 C1809 1.516 . S
C1809 C1808 1.516 . S
C1809 C1810 1.502 . S
C1809 C1811 1.561 . S
C1809 C1812 1.526 . S
C1810 H1794 0.959 . S
C1810 H1795 0.959 . S
C1810 H1796 0.961 . S
C1810 C1809 1.502 . S
C1811 H1797 0.960 . S
C1811 H1798 0.961 . S
C1811 H1799 0.959 . S
C1811 C1809 1.561 . S
C1812 C1809 1.526 . S
C1812 C1813 1.396 . S
C1812 C1817 1.390 . S
C1813 C1807 1.465 . S
C1813 C1812 1.396 . S
C1813 C1814 1.399 . S
C1814 H1800 0.929 . S
C1814 C1813 1.399 . S
C1814 C1815 1.385 . S
C1815 H1801 0.931 1_554 S
C1815 C1814 1.385 . S
C1815 C1816 1.389 . S
C1816 C1815 1.389 . S
C1816 C1817 1.387 . S
C1817 H1802 0.930 . S
C1817 C1812 1.390 . S
C1817 C1816 1.387 . S
H1818 C1830 0.930 . S
H1819 C1832 0.930 . S
H1820 C1833 0.930 . S
H1821 C1837 0.959 . S
H1822 C1837 0.959 . S
H1823 C1837 0.961 . S
H1824 C1838 0.960 . S
H1825 C1838 0.961 . S
H1826 C1838 0.959 . S
H1827 C1841 0.929 . S
H1828 C1842 0.931 . S
H1829 C1844 0.930 . S
C1830 H1818 0.930 . S
C1830 C1831 1.399 . S
C1830 C1835 1.399 . S
C1831 C1830 1.399 . S
C1831 C1832 1.376 . S
C1832 H1819 0.930 . S
C1832 C1831 1.376 . S
C1832 C1833 1.388 . S
C1833 H1820 0.930 . S
C1833 C1832 1.388 . S
C1833 C1834 1.390 . S
C1834 C1833 1.390 . S
C1834 C1835 1.394 . S
C1834 C1840 1.465 . S
C1835 C1830 1.399 . S
C1835 C1834 1.394 . S
C1835 C1836 1.516 . S
C1836 C1835 1.516 . S
C1836 C1837 1.502 . S
C1836 C1838 1.561 . S
C1836 C1839 1.526 . S
C1837 H1821 0.959 . S
C1837 H1822 0.959 . S
C1837 H1823 0.961 . S
C1837 C1836 1.502 . S
C1838 H1824 0.960 . S
C1838 H1825 0.961 . S
C1838 H1826 0.959 . S
C1838 C1836 1.561 . S
C1839 C1836 1.526 . S
C1839 C1840 1.396 . S
C1839 C1844 1.390 . S
C1840 C1834 1.465 . S
C1840 C1839 1.396 . S
C1840 C1841 1.399 . S
C1841 H1827 0.929 . S
C1841 C1840 1.399 . S
C1841 C1842 1.385 . S
C1842 H1828 0.931 . S
C1842 C1841 1.385 . S
C1842 C1843 1.389 . S
C1843 C1842 1.389 . S
C1843 C1844 1.387 . S
C1844 H1829 0.930 . S
C1844 C1839 1.390 . S
C1844 C1843 1.387 . S
H1845 C1857 0.930 . S
H1846 C1859 0.930 1_556 S
H1847 C1860 0.930 1_556 S
H1848 C1864 0.959 . S
H1849 C1864 0.959 . S
H1850 C1864 0.961 . S
H1851 C1865 0.960 . S
H1852 C1865 0.961 . S
H1853 C1865 0.959 . S
H1854 C1868 0.929 . S
H1855 C1869 0.931 . S
H1856 C1871 0.930 . S
C1857 H1845 0.930 . S
C1857 C1858 1.399 . S
C1857 C1862 1.399 . S
C1858 C1857 1.399 . S
C1858 C1859 1.376 . S
C1859 H1846 0.930 1_554 S
C1859 C1858 1.376 . S
C1859 C1860 1.388 . S
C1860 H1847 0.930 1_554 S
C1860 C1859 1.388 . S
C1860 C1861 1.390 . S
C1861 C1860 1.390 . S
C1861 C1862 1.394 . S
C1861 C1867 1.465 . S
C1862 C1857 1.399 . S
C1862 C1861 1.394 . S
C1862 C1863 1.516 . S
C1863 C1862 1.516 . S
C1863 C1864 1.502 . S
C1863 C1865 1.561 . S
C1863 C1866 1.526 . S
C1864 H1848 0.959 . S
C1864 H1849 0.959 . S
C1864 H1850 0.961 . S
C1864 C1863 1.502 . S
C1865 H1851 0.960 . S
C1865 H1852 0.961 . S
C1865 H1853 0.959 . S
C1865 C1863 1.561 . S
C1866 C1863 1.526 . S
C1866 C1867 1.396 . S
C1866 C1871 1.390 . S
C1867 C1861 1.465 . S
C1867 C1866 1.396 . S
C1867 C1868 1.399 . S
C1868 H1854 0.929 . S
C1868 C1867 1.399 . S
C1868 C1869 1.385 . S
C1869 H1855 0.931 . S
C1869 C1868 1.385 . S
C1869 C1870 1.389 . S
C1870 C1869 1.389 . S
C1870 C1871 1.387 . S
C1871 H1856 0.930 . S
C1871 C1866 1.390 . S
C1871 C1870 1.387 . S
C427 C18 0.888 1_556 S
C439 C62 0.823 . S
C454 C16 0.816 . S
C466 C41 0.890 1_556 S
C481 C64 0.798 . S
C493 C39 0.866 . S
C508 C108 0.868 . S
C520 C87 0.781 . S
C535 C131 0.829 . S
C547 C110 0.870 . S
C562 C133 0.797 . S
C574 C85 0.862 . S
C589 C200 0.861 . S
C601 C156 0.781 . S
C616 C179 0.803 . S
C628 C154 0.865 . S
C643 C177 0.868 . S
C655 C202 0.784 . S
C670 C225 0.834 . S
C682 C246 0.847 . S
C697 C269 0.821 . S
C709 C248 0.883 . S
C724 C271 0.794 . S
C736 C223 0.863 . S
C751 C338 0.818 1_565 S
C763 C294 0.890 . S
C778 C317 0.795 . S
C790 C292 0.866 1_455 S
C805 C340 0.788 . S
C817 C315 0.855 . S
C832 C363 0.857 . S
C844 C384 0.828 1_455 S
C859 C407 0.862 . S
C871 C386 0.786 . S
C886 C361 0.862 1_565 S
C898 C409 0.799 . S
C913 C134 0.950 . S
C925 C20 0.961 . S
C940 C88 0.954 . S
C952 C43 0.992 . S
C967 C111 1.036 . S
C979 C66 1.034 . S
C994 C42 1.016 . S
C1006 C89 1.021 . S
C1021 C112 0.973 . S
C1033 C65 0.959 . S
C1048 C19 1.037 . S
C1060 C135 1.034 . S
C1075 C158 1.030 . S
C1087 C272 1.038 . S
C1102 C181 0.970 . S
C1114 C226 0.938 . S
C1129 C249 1.037 . S
C1141 C204 1.034 . S
C1156 C227 1.035 . S
C1168 C180 1.037 . S
C1183 C250 1.022 . S
C1195 C203 1.017 . S
C1210 C273 0.976 . S
C1222 C157 0.963 . S
C1237 C296 1.030 . S
C1249 C410 1.038 . S
C1264 C319 1.020 . S
C1276 C364 0.992 . S
C1291 C342 0.991 . S
C1303 C387 0.954 . S
C1318 C365 0.961 . S
C1330 C318 0.937 . S
C1345 C388 0.968 . S
C1357 C341 0.951 . S
C1372 C411 1.020 . S
C1384 C295 1.020 . S
C1399 C251 2.131 . S
C1411 C17 2.070 . S
C1426 C40 2.085 . S
C1438 C274 2.118 . S
C1453 C228 2.105 . S
C1465 C63 2.114 . S
C1480 C86 2.099 . S
C1492 C205 2.110 . S
C1507 C109 2.073 . S
C1519 C159 2.127 . S
C1534 C182 2.133 . S
C1546 C132 2.075 . S
C1561 C155 2.070 . S
C1573 C389 2.131 1_455 S
C1588 C178 2.101 . S
C1600 C412 2.117 . S
C1615 C201 2.077 . S
C1627 C366 2.124 1_565 S
C1642 C343 2.104 1_565 S
C1654 C224 2.113 . S
C1669 C297 2.124 1_455 S
C1681 C247 2.090 . S
C1696 C320 2.134 . S
C1708 C270 2.070 . S
C1723 C113 2.124 . S
C1735 C293 2.078 . S
C1750 C316 2.084 . S
C1762 C136 2.119 . S
C1777 C90 2.117 . S
C1789 C339 2.088 . S
C1804 C362 2.094 . S
C1816 C67 2.122 . S
C1831 C385 2.072 . S
C1843 C21 2.129 . S
C1858 C44 2.132 . S
C1870 C408 2.077 . S
