# Generated by pormake.
# Topology sxi, (6)-cn, num edge types: 1
# Building blocks:
#     Node 0, Type 0, BuildingBlock: IZENUY_clean_sbu_0, # of connection points: 6
#     Node 1, Type 0, BuildingBlock: IZENUY_clean_sbu_0, # of connection points: 6
#     Node 2, Type 0, BuildingBlock: IZENUY_clean_sbu_0, # of connection points: 6
#     Node 3, Type 0, BuildingBlock: IZENUY_clean_sbu_0, # of connection points: 6
#     Node 4, Type 0, BuildingBlock: IZENUY_clean_sbu_0, # of connection points: 6
#     Node 5, Type 0, BuildingBlock: IZENUY_clean_sbu_0, # of connection points: 6
#     Node 6, Type 0, BuildingBlock: IZENUY_clean_sbu_0, # of connection points: 6
#     Node 7, Type 0, BuildingBlock: IZENUY_clean_sbu_0, # of connection points: 6
#     Node 8, Type 0, BuildingBlock: IZENUY_clean_sbu_0, # of connection points: 6
#     Node 9, Type 0, BuildingBlock: IZENUY_clean_sbu_0, # of connection points: 6
#     Node 10, Type 0, BuildingBlock: IZENUY_clean_sbu_0, # of connection points: 6
#     Node 11, Type 0, BuildingBlock: IZENUY_clean_sbu_0, # of connection points: 6
#     Node 12, Type 0, BuildingBlock: IZENUY_clean_sbu_0, # of connection points: 6
#     Node 13, Type 0, BuildingBlock: IZENUY_clean_sbu_0, # of connection points: 6
#     Node 14, Type 0, BuildingBlock: IZENUY_clean_sbu_0, # of connection points: 6
#     Node 15, Type 0, BuildingBlock: IZENUY_clean_sbu_0, # of connection points: 6
#     Node 16, Type 0, BuildingBlock: IZENUY_clean_sbu_0, # of connection points: 6
#     Node 17, Type 0, BuildingBlock: IZENUY_clean_sbu_0, # of connection points: 6
#     Node 18, Type 0, BuildingBlock: IZENUY_clean_sbu_0, # of connection points: 6
#     Node 19, Type 0, BuildingBlock: IZENUY_clean_sbu_0, # of connection points: 6
#     Node 20, Type 0, BuildingBlock: IZENUY_clean_sbu_0, # of connection points: 6
#     Node 21, Type 0, BuildingBlock: IZENUY_clean_sbu_0, # of connection points: 6
#     Node 22, Type 0, BuildingBlock: IZENUY_clean_sbu_0, # of connection points: 6
#     Node 23, Type 0, BuildingBlock: IZENUY_clean_sbu_0, # of connection points: 6
#     Edge 24, Type (0, 0), BuildingBlock: CIFDUS_clean_linker_0, # of connection points: 2
#     Edge 25, Type (0, 0), BuildingBlock: CIFDUS_clean_linker_0, # of connection points: 2
#     Edge 26, Type (0, 0), BuildingBlock: CIFDUS_clean_linker_0, # of connection points: 2
#     Edge 27, Type (0, 0), BuildingBlock: CIFDUS_clean_linker_0, # of connection points: 2
#     Edge 28, Type (0, 0), BuildingBlock: CIFDUS_clean_linker_0, # of connection points: 2
#     Edge 29, Type (0, 0), BuildingBlock: CIFDUS_clean_linker_0, # of connection points: 2
#     Edge 30, Type (0, 0), BuildingBlock: CIFDUS_clean_linker_0, # of connection points: 2
#     Edge 31, Type (0, 0), BuildingBlock: CIFDUS_clean_linker_0, # of connection points: 2
#     Edge 32, Type (0, 0), BuildingBlock: CIFDUS_clean_linker_0, # of connection points: 2
#     Edge 33, Type (0, 0), BuildingBlock: CIFDUS_clean_linker_0, # of connection points: 2
#     Edge 34, Type (0, 0), BuildingBlock: CIFDUS_clean_linker_0, # of connection points: 2
#     Edge 35, Type (0, 0), BuildingBlock: CIFDUS_clean_linker_0, # of connection points: 2
#     Edge 36, Type (0, 0), BuildingBlock: CIFDUS_clean_linker_0, # of connection points: 2
#     Edge 37, Type (0, 0), BuildingBlock: CIFDUS_clean_linker_0, # of connection points: 2
#     Edge 38, Type (0, 0), BuildingBlock: CIFDUS_clean_linker_0, # of connection points: 2
#     Edge 39, Type (0, 0), BuildingBlock: CIFDUS_clean_linker_0, # of connection points: 2
#     Edge 40, Type (0, 0), BuildingBlock: CIFDUS_clean_linker_0, # of connection points: 2
#     Edge 41, Type (0, 0), BuildingBlock: CIFDUS_clean_linker_0, # of connection points: 2
#     Edge 42, Type (0, 0), BuildingBlock: CIFDUS_clean_linker_0, # of connection points: 2
#     Edge 43, Type (0, 0), BuildingBlock: CIFDUS_clean_linker_0, # of connection points: 2
#     Edge 44, Type (0, 0), BuildingBlock: CIFDUS_clean_linker_0, # of connection points: 2
#     Edge 45, Type (0, 0), BuildingBlock: CIFDUS_clean_linker_0, # of connection points: 2
#     Edge 46, Type (0, 0), BuildingBlock: CIFDUS_clean_linker_0, # of connection points: 2
#     Edge 47, Type (0, 0), BuildingBlock: CIFDUS_clean_linker_0, # of connection points: 2
#     Edge 48, Type (0, 0), BuildingBlock: CIFDUS_clean_linker_0, # of connection points: 2
#     Edge 49, Type (0, 0), BuildingBlock: CIFDUS_clean_linker_0, # of connection points: 2
#     Edge 50, Type (0, 0), BuildingBlock: CIFDUS_clean_linker_0, # of connection points: 2
#     Edge 51, Type (0, 0), BuildingBlock: CIFDUS_clean_linker_0, # of connection points: 2
#     Edge 52, Type (0, 0), BuildingBlock: CIFDUS_clean_linker_0, # of connection points: 2
#     Edge 53, Type (0, 0), BuildingBlock: CIFDUS_clean_linker_0, # of connection points: 2
#     Edge 54, Type (0, 0), BuildingBlock: CIFDUS_clean_linker_0, # of connection points: 2
#     Edge 55, Type (0, 0), BuildingBlock: CIFDUS_clean_linker_0, # of connection points: 2
#     Edge 56, Type (0, 0), BuildingBlock: CIFDUS_clean_linker_0, # of connection points: 2
#     Edge 57, Type (0, 0), BuildingBlock: CIFDUS_clean_linker_0, # of connection points: 2
#     Edge 58, Type (0, 0), BuildingBlock: CIFDUS_clean_linker_0, # of connection points: 2
#     Edge 59, Type (0, 0), BuildingBlock: CIFDUS_clean_linker_0, # of connection points: 2
#     Edge 60, Type (0, 0), BuildingBlock: CIFDUS_clean_linker_0, # of connection points: 2
#     Edge 61, Type (0, 0), BuildingBlock: CIFDUS_clean_linker_0, # of connection points: 2
#     Edge 62, Type (0, 0), BuildingBlock: CIFDUS_clean_linker_0, # of connection points: 2
#     Edge 63, Type (0, 0), BuildingBlock: CIFDUS_clean_linker_0, # of connection points: 2
#     Edge 64, Type (0, 0), BuildingBlock: CIFDUS_clean_linker_0, # of connection points: 2
#     Edge 65, Type (0, 0), BuildingBlock: CIFDUS_clean_linker_0, # of connection points: 2
#     Edge 66, Type (0, 0), BuildingBlock: CIFDUS_clean_linker_0, # of connection points: 2
#     Edge 67, Type (0, 0), BuildingBlock: CIFDUS_clean_linker_0, # of connection points: 2
#     Edge 68, Type (0, 0), BuildingBlock: CIFDUS_clean_linker_0, # of connection points: 2
#     Edge 69, Type (0, 0), BuildingBlock: CIFDUS_clean_linker_0, # of connection points: 2
#     Edge 70, Type (0, 0), BuildingBlock: CIFDUS_clean_linker_0, # of connection points: 2
#     Edge 71, Type (0, 0), BuildingBlock: CIFDUS_clean_linker_0, # of connection points: 2
#     Edge 72, Type (0, 0), BuildingBlock: CIFDUS_clean_linker_0, # of connection points: 2
#     Edge 73, Type (0, 0), BuildingBlock: CIFDUS_clean_linker_0, # of connection points: 2
#     Edge 74, Type (0, 0), BuildingBlock: CIFDUS_clean_linker_0, # of connection points: 2
#     Edge 75, Type (0, 0), BuildingBlock: CIFDUS_clean_linker_0, # of connection points: 2
#     Edge 76, Type (0, 0), BuildingBlock: CIFDUS_clean_linker_0, # of connection points: 2
#     Edge 77, Type (0, 0), BuildingBlock: CIFDUS_clean_linker_0, # of connection points: 2
#     Edge 78, Type (0, 0), BuildingBlock: CIFDUS_clean_linker_0, # of connection points: 2
#     Edge 79, Type (0, 0), BuildingBlock: CIFDUS_clean_linker_0, # of connection points: 2
#     Edge 80, Type (0, 0), BuildingBlock: CIFDUS_clean_linker_0, # of connection points: 2
#     Edge 81, Type (0, 0), BuildingBlock: CIFDUS_clean_linker_0, # of connection points: 2
#     Edge 82, Type (0, 0), BuildingBlock: CIFDUS_clean_linker_0, # of connection points: 2
#     Edge 83, Type (0, 0), BuildingBlock: CIFDUS_clean_linker_0, # of connection points: 2
#     Edge 84, Type (0, 0), BuildingBlock: CIFDUS_clean_linker_0, # of connection points: 2
#     Edge 85, Type (0, 0), BuildingBlock: CIFDUS_clean_linker_0, # of connection points: 2
#     Edge 86, Type (0, 0), BuildingBlock: CIFDUS_clean_linker_0, # of connection points: 2
#     Edge 87, Type (0, 0), BuildingBlock: CIFDUS_clean_linker_0, # of connection points: 2
#     Edge 88, Type (0, 0), BuildingBlock: CIFDUS_clean_linker_0, # of connection points: 2
#     Edge 89, Type (0, 0), BuildingBlock: CIFDUS_clean_linker_0, # of connection points: 2
#     Edge 90, Type (0, 0), BuildingBlock: CIFDUS_clean_linker_0, # of connection points: 2
#     Edge 91, Type (0, 0), BuildingBlock: CIFDUS_clean_linker_0, # of connection points: 2
#     Edge 92, Type (0, 0), BuildingBlock: CIFDUS_clean_linker_0, # of connection points: 2
#     Edge 93, Type (0, 0), BuildingBlock: CIFDUS_clean_linker_0, # of connection points: 2
#     Edge 94, Type (0, 0), BuildingBlock: CIFDUS_clean_linker_0, # of connection points: 2
#     Edge 95, Type (0, 0), BuildingBlock: CIFDUS_clean_linker_0, # of connection points: 2
# Relax obj value: 0.412
# Max RMSD: 0.249
# Mean RMSD: 0.249
data_MOF--net-sxi--node1-IZENUY_clean_sbu_0--edge1-CIFDUS_clean_linker_0
_symmetry_space_group_name_H-M    P1
_symmetry_Int_Tables_number       1
_symmetry_cell_setting            triclinic
loop_
_symmetry_equiv_pos_as_xyz
'x, y, z'
_cell_length_a     41.156604
_cell_length_b     41.114349
_cell_length_c     41.153679
_cell_angle_alpha  90.08678
_cell_angle_beta   89.984771
_cell_angle_gamma 90.093584
loop_
_atom_site_label
_atom_site_type_symbol
_atom_site_fract_x
_atom_site_fract_y
_atom_site_fract_z
_atom_type_partial_charge
Fe0 Fe 0.0178 0.32274 0.41653 0.0
Fe1 Fe 0.0802 0.34308 0.38052 0.0
O2 O 0.04305 0.35334 0.39977 0.0
Fe3 Fe 0.03033 0.39415 0.40272 0.0
O4 O 0.02938 0.39227 0.4471 0.0
O5 O 0.9998 0.34816 0.44843 0.0
O6 O 0.04874 0.31178 0.44511 0.0
C7 C 0.07656 0.30183 0.43706 0.0
C8 C 0.97373 0.36052 0.38639 0.0
O9 O 0.08876 0.30894 0.40932 0.0
C10 C 0.05477 0.39596 0.34105 0.0
O11 O 0.03041 0.29067 0.38906 0.0
O12 O 0.05926 0.31505 0.35141 0.0
O13 O 0.98765 0.38443 0.39964 0.0
O14 O 0.9858 0.33245 0.38809 0.0
C15 C 0.09685 0.39883 0.41522 0.0
O16 O 0.07781 0.37659 0.34908 0.0
O17 O 0.03022 0.39864 0.35916 0.0
C18 C 0.04101 0.29162 0.36049 0.0
O19 O 0.10352 0.36941 0.40869 0.0
O20 O 0.07072 0.41134 0.40569 0.0
C21 C 0.01138 0.37279 0.46263 0.0
Fe22 Fe 0.92242 0.8307 0.62451 0.0
Fe23 Fe 0.87419 0.78174 0.65308 0.0
O24 O 0.91476 0.79554 0.64863 0.0
Fe25 Fe 0.9458 0.77363 0.66911 0.0
O26 O 0.96851 0.80918 0.6821 0.0
O27 O 0.94605 0.85061 0.65656 0.0
O28 O 0.8861 0.85248 0.64204 0.0
C29 C 0.86888 0.84579 0.66732 0.0
C30 C 0.97655 0.78762 0.61014 0.0
O31 O 0.86539 0.81685 0.67713 0.0
C32 C 0.90514 0.72645 0.638 0.0
O33 O 0.89903 0.81533 0.58876 0.0
O34 O 0.85731 0.80125 0.6175 0.0
O35 O 0.97027 0.76907 0.63346 0.0
O36 O 0.96009 0.81355 0.60497 0.0
C37 C 0.89882 0.76098 0.71353 0.0
O38 O 0.88324 0.74609 0.62907 0.0
O39 O 0.92731 0.73479 0.65802 0.0
C40 C 0.8694 0.80709 0.59025 0.0
O41 O 0.87947 0.75843 0.69018 0.0
O42 O 0.92549 0.77506 0.70884 0.0
C43 C 0.96521 0.83937 0.6778 0.0
Fe44 Fe 0.50368 0.69536 0.92268 0.0
Fe45 Fe 0.4408 0.67404 0.88726 0.0
O46 O 0.47623 0.66465 0.91011 0.0
Fe47 Fe 0.48378 0.62395 0.92122 0.0
O48 O 0.50582 0.63308 0.95877 0.0
O49 O 0.4994 0.68542 0.96549 0.0
O50 O 0.47207 0.72631 0.92922 0.0
C51 C 0.44159 0.7235 0.93306 0.0
C52 C 0.54332 0.64303 0.90168 0.0
O53 O 0.42595 0.70059 0.91962 0.0
C54 C 0.45943 0.61699 0.85732 0.0
O55 O 0.51071 0.70801 0.88157 0.0
O56 O 0.45981 0.70965 0.86546 0.0
O57 O 0.52064 0.62285 0.898 0.0
O58 O 0.53948 0.66923 0.91765 0.0
C59 C 0.41958 0.62663 0.93351 0.0
O60 O 0.45335 0.64706 0.85321 0.0
O61 O 0.46332 0.60618 0.88583 0.0
C62 C 0.4894 0.71881 0.86277 0.0
O63 O 0.41562 0.64083 0.90615 0.0
O64 O 0.44757 0.62364 0.94521 0.0
C65 C 0.50483 0.6577 0.97704 0.0
Fe66 Fe 0.59705 0.1911 0.12798 0.0
Fe67 Fe 0.64408 0.23646 0.16353 0.0
O68 O 0.60381 0.22592 0.15279 0.0
Fe69 Fe 0.57176 0.25014 0.16828 0.0
O70 O 0.54424 0.2161 0.17654 0.0
O71 O 0.57011 0.17287 0.15798 0.0
O72 O 0.63063 0.16759 0.14799 0.0
C73 C 0.64473 0.17222 0.17544 0.0
C74 C 0.54825 0.2373 0.10676 0.0
O75 O 0.6465 0.20038 0.18765 0.0
C76 C 0.61956 0.29334 0.1434 0.0
O77 O 0.62459 0.20577 0.09514 0.0
O78 O 0.6638 0.21641 0.12909 0.0
O79 O 0.55466 0.25708 0.129 0.0
O80 O 0.56178 0.20933 0.10533 0.0
C81 C 0.61134 0.25775 0.2202 0.0
O82 O 0.64178 0.27265 0.13947 0.0
O83 O 0.59488 0.28781 0.1613 0.0
C84 C 0.65443 0.21188 0.10027 0.0
O85 O 0.63455 0.25988 0.20042 0.0
O86 O 0.58502 0.24601 0.2104 0.0
C87 C 0.54802 0.18557 0.17518 0.0
Fe88 Fe 0.52843 0.20059 0.6023 0.0
Fe89 Fe 0.58312 0.17472 0.64563 0.0
O90 O 0.54853 0.16741 0.62107 0.0
Fe91 Fe 0.53343 0.12779 0.61517 0.0
O92 O 0.5365 0.13118 0.57099 0.0
O93 O 0.5114 0.17774 0.56798 0.0
O94 O 0.56378 0.20864 0.57802 0.0
C95 C 0.59118 0.21535 0.59012 0.0
C96 C 0.47805 0.16612 0.62628 0.0
O97 O 0.59754 0.20895 0.61982 0.0
C98 C 0.55177 0.12131 0.67875 0.0
O99 O 0.54103 0.23091 0.63204 0.0
O100 O 0.55867 0.20195 0.67273 0.0
O101 O 0.49151 0.14082 0.61517 0.0
O102 O 0.49236 0.1933 0.6263 0.0
C103 C 0.60098 0.12008 0.61013 0.0
O104 O 0.57577 0.14043 0.67452 0.0
O105 O 0.52894 0.1208 0.65836 0.0
C106 C 0.54422 0.22725 0.66214 0.0
O107 O 0.60864 0.1484 0.61983 0.0
O108 O 0.57295 0.10859 0.61459 0.0
C109 C 0.52099 0.15192 0.55461 0.0
Fe110 Fe 0.0943 0.33173 0.89024 0.0
Fe111 Fe 0.14504 0.28487 0.8625 0.0
O112 O 0.10406 0.29606 0.86801 0.0
Fe113 Fe 0.07313 0.2715 0.85063 0.0
O114 O 0.04502 0.30541 0.8422 0.0
O115 O 0.07349 0.34868 0.85545 0.0
O116 O 0.13106 0.35486 0.87607 0.0
C117 C 0.14902 0.34964 0.85127 0.0
C118 C 0.044 0.28534 0.90807 0.0
O119 O 0.15269 0.32135 0.84037 0.0
C120 C 0.11941 0.22622 0.87418 0.0
O121 O 0.11579 0.31788 0.92692 0.0
O122 O 0.15986 0.30269 0.90094 0.0
O123 O 0.05566 0.26377 0.88992 0.0
O124 O 0.05506 0.3145 0.90699 0.0
C125 C 0.1168 0.26871 0.80137 0.0
O126 O 0.1389 0.24747 0.88428 0.0
O127 O 0.09593 0.23362 0.8557 0.0
C128 C 0.14588 0.3109 0.92715 0.0
O129 O 0.13892 0.2652 0.82252 0.0
O130 O 0.08854 0.27687 0.80968 0.0
C131 C 0.051 0.33551 0.83928 0.0
Fe132 Fe 0.98111 0.89801 0.11132 0.0
Fe133 Fe 0.99782 0.82717 0.09525 0.0
O134 O 0.97151 0.85594 0.11373 0.0
Fe135 Fe 0.93607 0.84207 0.13391 0.0
O136 O 0.90974 0.86665 0.10758 0.0
O137 O 0.93929 0.9115 0.10771 0.0
O138 O 0.98255 0.89689 0.06688 0.0
C139 C 1.00153 0.87903 0.05068 0.0
C140 C 0.95695 0.89661 0.17373 0.0
O141 O 0.01368 0.85417 0.06368 0.0
C142 C 0.9787 0.79323 0.15132 0.0
O143 O 0.02469 0.89124 0.11467 0.0
O144 O 0.0302 0.83846 0.12277 0.0
O145 O 0.93676 0.87443 0.16565 0.0
O146 O 0.98036 0.9037 0.15521 0.0
C147 C 0.93933 0.80349 0.07594 0.0
O148 O 0.98798 0.79337 0.12221 0.0
O149 O 0.96028 0.81583 0.16162 0.0
C150 C 0.04081 0.86723 0.1251 0.0
O151 O 0.96642 0.81501 0.0672 0.0
O152 O 0.92882 0.80806 0.10479 0.0
C153 C 0.91349 0.89647 0.10083 0.0
Fe154 Fe 0.37773 0.74303 0.36709 0.0
Fe155 Fe 0.45007 0.74669 0.34986 0.0
O156 O 0.41729 0.72667 0.36987 0.0
Fe157 Fe 0.42491 0.69078 0.39253 0.0
O158 O 0.39654 0.66676 0.36702 0.0
O159 O 0.35794 0.70391 0.36517 0.0
O160 O 0.37852 0.74246 0.32257 0.0
C161 C 0.39896 0.75734 0.30518 0.0
C162 C 0.37301 0.72068 0.42981 0.0
O163 O 0.4261 0.76514 0.31704 0.0
C164 C 0.47917 0.72831 0.40802 0.0
O165 O 0.39177 0.78487 0.36896 0.0
O166 O 0.44486 0.78199 0.3752 0.0
O167 O 0.39214 0.69718 0.42352 0.0
O168 O 0.37225 0.74492 0.41099 0.0
C169 C 0.46378 0.68411 0.33536 0.0
O170 O 0.48141 0.73322 0.378 0.0
O171 O 0.45438 0.71322 0.41924 0.0
C172 C 0.41836 0.79692 0.3787 0.0
O173 O 0.45689 0.71182 0.32406 0.0
O174 O 0.4576 0.67692 0.36486 0.0
C175 C 0.36768 0.67527 0.36006 0.0
Fe176 Fe 0.40057 0.03581 0.39414 0.0
Fe177 Fe 0.42089 0.02876 0.32323 0.0
O178 O 0.39981 0.05119 0.35377 0.0
Fe179 Fe 0.3785 0.0879 0.3455 0.0
O180 O 0.39636 0.10832 0.38253 0.0
O181 O 0.42529 0.06917 0.40625 0.0
O182 O 0.43739 0.01179 0.39008 0.0
C183 C 0.46223 0.01463 0.37257 0.0
C184 C 0.33959 0.06674 0.39648 0.0
O185 O 0.45962 0.02874 0.3456 0.0
C186 C 0.36343 0.04542 0.29106 0.0
O187 O 0.37585 1.00152 0.38207 0.0
O188 O 0.40796 0.99 0.34052 0.0
O189 O 0.34115 0.07543 0.36712 0.0
O190 O 0.36457 0.056 0.40997 0.0
C191 C 0.43241 0.09398 0.30334 0.0
O192 O 0.38592 0.02587 0.29754 0.0
O193 O 0.3591 0.07166 0.30739 0.0
C194 C 0.38633 0.98169 0.36104 0.0
O195 O 0.43606 0.06367 0.30079 0.0
O196 O 0.41197 0.10606 0.32276 0.0
C197 C 0.41917 0.09891 0.40178 0.0
Fe198 Fe 0.24389 0.17278 0.5729 0.0
Fe199 Fe 0.18483 0.13262 0.59444 0.0
O200 O 0.22004 0.1554 0.60425 0.0
Fe201 Fe 0.23221 0.16114 0.64497 0.0
O202 O 0.23049 0.20538 0.64096 0.0
O203 O 0.26 0.20668 0.59693 0.0
O204 O 0.21097 0.19863 0.56106 0.0
C205 C 0.18404 0.18775 0.55125 0.0
C206 C 0.29001 0.14761 0.61173 0.0
O207 O 0.17439 0.15914 0.55897 0.0
C208 C 0.21183 0.09793 0.64969 0.0
O209 O 0.23298 0.14335 0.54176 0.0
O210 O 0.20898 0.10414 0.56852 0.0
O211 O 0.27519 0.16018 0.63549 0.0
O212 O 0.27771 0.14712 0.58369 0.0
C213 C 0.1646 0.16859 0.64801 0.0
O214 O 0.18899 0.10313 0.62925 0.0
O215 O 0.23497 0.1179 0.65219 0.0
C216 C 0.2257 0.11381 0.54427 0.0
O217 O 0.15888 0.1598 0.619 0.0
O218 O 0.19141 0.1626 0.66139 0.0
C219 C 0.248 0.22101 0.62119 0.0
Fe220 Fe 0.10345 0.99367 0.81543 0.0
Fe221 Fe 0.1418 0.93442 0.83876 0.0
O222 O 0.12395 0.97263 0.84737 0.0
Fe223 Fe 0.12634 0.98953 0.88706 0.0
O224 O 0.08266 0.99527 0.88933 0.0
O225 O 0.07378 0.01483 0.84082 0.0
O226 O 0.07419 0.96082 0.81027 0.0
C227 C 0.08287 0.93236 0.80257 0.0
C228 C 0.13914 0.04215 0.84426 0.0
O229 O 0.11199 0.92324 0.80718 0.0
C230 C 0.18569 0.95915 0.88785 0.0
O231 O 0.12887 0.97744 0.78313 0.0
O232 O 0.16945 0.95388 0.80831 0.0
O233 O 0.13289 0.03055 0.87209 0.0
O234 O 0.13149 0.02736 0.81845 0.0
C235 C 0.10847 0.92433 0.89689 0.0
O236 O 0.17445 0.93694 0.86959 0.0
O237 O 0.17048 0.9856 0.89056 0.0
C238 C 0.15847 0.97002 0.78415 0.0
O239 O 0.11454 0.91433 0.86822 0.0
O240 O 0.11979 0.95092 0.90742 0.0
C241 C 0.06479 1.01037 0.86966 0.0
Fe242 Fe 0.33559 0.8898 0.09064 0.0
Fe243 Fe 0.28648 0.87304 0.14466 0.0
O244 O 0.2983 0.87245 0.10318 0.0
Fe245 Fe 0.2726 0.8539 0.0738 0.0
O246 O 0.30329 0.82389 0.06403 0.0
O247 O 0.34266 0.85963 0.05764 0.0
O248 O 0.35868 0.8621 0.11766 0.0
C249 C 0.35262 0.85703 0.14757 0.0
C250 C 0.29512 0.90844 0.03987 0.0
O251 O 0.32726 0.86808 0.16066 0.0
C252 C 0.2288 0.88717 0.11017 0.0
O253 O 0.3358 0.9224 0.12201 0.0
O254 O 0.28942 0.91722 0.14795 0.0
O255 O 0.28537 0.87943 0.03993 0.0
O256 O 0.31397 0.91828 0.06251 0.0
C257 C 0.26442 0.81224 0.12739 0.0
O258 O 0.24362 0.87802 0.13546 0.0
O259 O 0.24076 0.88308 0.0822 0.0
C260 C 0.3149 0.93335 0.14208 0.0
O261 O 0.28279 0.82878 0.14562 0.0
O262 O 0.25414 0.82411 0.10117 0.0
C263 C 0.33113 0.83116 0.05325 0.0
Fe264 Fe 0.90616 0.48686 0.62691 0.0
Fe265 Fe 0.92177 0.48913 0.69971 0.0
O266 O 0.90176 0.47046 0.66627 0.0
Fe267 Fe 0.87715 0.43578 0.67337 0.0
O268 O 0.90267 0.41084 0.64639 0.0
O269 O 0.90752 0.44743 0.60714 0.0
O270 O 0.95045 0.48503 0.62875 0.0
C271 C 0.96785 0.49928 0.64958 0.0
C272 C 0.84288 0.46691 0.62053 0.0
O273 O 0.95591 0.50673 0.67679 0.0
C274 C 0.86175 0.4744 0.72637 0.0
O275 O 0.90518 0.52868 0.64132 0.0
O276 O 0.89823 0.52546 0.69444 0.0
O277 O 0.84784 0.44301 0.63946 0.0
O278 O 0.86263 0.49035 0.62035 0.0
C279 C 0.93291 0.42614 0.71376 0.0
O280 O 0.89203 0.47619 0.73009 0.0
O281 O 0.8506 0.46035 0.70101 0.0
C282 C 0.89544 0.54063 0.66799 0.0
O283 O 0.94575 0.45303 0.70617 0.0
O284 O 0.90298 0.4207 0.7074 0.0
C285 C 0.91217 0.41916 0.6182 0.0
Fe286 Fe 0.7691 0.66569 0.9445 0.0
Fe287 Fe 0.8326 0.63094 0.92604 0.0
O288 O 0.79699 0.65235 0.91462 0.0
Fe289 Fe 0.78975 0.66108 0.8733 0.0
O290 O 0.76881 0.69994 0.88072 0.0
O291 O 0.77346 0.70812 0.9333 0.0
O292 O 0.80025 0.67329 0.97579 0.0
C293 C 0.83043 0.67881 0.97261 0.0
C294 C 0.72922 0.64479 0.89229 0.0
O295 O 0.8465 0.66546 0.95006 0.0
C296 C 0.81577 0.59652 0.87103 0.0
O297 O 0.76222 0.62442 0.95776 0.0
O298 O 0.8136 0.61177 0.96305 0.0
O299 O 0.75215 0.63864 0.87312 0.0
O300 O 0.73366 0.66081 0.9182 0.0
C301 C 0.85435 0.67306 0.87559 0.0
O302 O 0.82096 0.59521 0.90155 0.0
O303 O 0.80934 0.62365 0.85772 0.0
C304 C 0.78389 0.60778 0.97125 0.0
O305 O 0.85794 0.64701 0.89187 0.0
O306 O 0.82649 0.68459 0.87143 0.0
C307 C 0.7687 0.71881 0.90507 0.0
Fe308 Fe 0.60103 0.52672 0.20382 0.0
Fe309 Fe 0.64229 0.58319 0.17777 0.0
O310 O 0.61747 0.54864 0.17044 0.0
Fe311 Fe 0.60889 0.53506 0.13079 0.0
O312 O 0.56507 0.53696 0.13762 0.0
O313 O 0.56606 0.50905 0.18244 0.0
O314 O 0.57629 0.56112 0.21457 0.0
C315 C 0.58811 0.58882 0.22106 0.0
C316 C 0.62546 0.47887 0.16587 0.0
O317 O 0.6174 0.5961 0.21338 0.0
C318 C 0.67227 0.55445 0.12101 0.0
O319 O 0.63167 0.53923 0.23301 0.0
O320 O 0.67079 0.55848 0.20297 0.0
O321 O 0.61122 0.49237 0.14214 0.0
O322 O 0.6259 0.49192 0.1937 0.0
C323 C 0.6039 0.60336 0.12606 0.0
O324 O 0.6698 0.57711 0.14203 0.0
O325 O 0.65138 0.53202 0.12003 0.0
C326 C 0.66147 0.54359 0.22842 0.0
O327 O 0.61581 0.6097 0.15372 0.0
O328 O 0.60572 0.57543 0.11351 0.0
C329 C 0.55057 0.51984 0.15844 0.0
Fe330 Fe 0.72807 0.365 0.37272 0.0
Fe331 Fe 0.74349 0.34732 0.44352 0.0
O332 O 0.71843 0.36742 0.41475 0.0
Fe333 Fe 0.68399 0.38924 0.42822 0.0
O334 O 0.65702 0.36338 0.40327 0.0
O335 O 0.68633 0.36482 0.35865 0.0
O336 O 0.72663 0.32053 0.3732 0.0
C337 C 0.74483 0.3031 0.39074 0.0
C338 C 0.70774 0.42838 0.37478 0.0
O339 O 0.75721 0.31486 0.41622 0.0
C340 C 0.72749 0.40464 0.47746 0.0
O341 O 0.77141 0.36524 0.37972 0.0
O342 O 0.77726 0.37308 0.43238 0.0
O343 O 0.6865 0.42089 0.39606 0.0
O344 O 0.73042 0.4089 0.36807 0.0
C345 C 0.68358 0.33166 0.46625 0.0
O346 O 0.7354 0.3751 0.47701 0.0
O347 O 0.70898 0.41591 0.4553 0.0
C348 C 0.78753 0.37569 0.40362 0.0
O349 O 0.71051 0.32102 0.45608 0.0
O350 O 0.67511 0.361 0.46168 0.0
C351 C 0.66056 0.35732 0.37328 0.0
Fe352 Fe 0.34449 0.37958 0.08531 0.0
Fe353 Fe 0.39282 0.41176 0.03853 0.0
O354 O 0.35233 0.40411 0.05073 0.0
Fe355 Fe 0.32028 0.42189 0.028 0.0
O356 O 0.29272 0.4276 0.06259 0.0
O357 O 0.32114 0.41154 0.10475 0.0
O358 O 0.38043 0.39596 0.10861 0.0
C359 C 0.39725 0.42174 0.10351 0.0
C360 C 0.29469 0.36141 0.03834 0.0
O361 O 0.40055 0.43298 0.07536 0.0
C362 C 0.36608 0.40161 0.98049 0.0
O363 O 0.36803 0.34508 0.06953 0.0
O364 O 0.41026 0.37372 0.05457 0.0
O365 O 0.30315 0.38293 0.01843 0.0
O366 O 0.30692 0.36028 0.06703 0.0
C367 C 0.3624 0.47242 0.0264 0.0
O368 O 0.38615 0.39085 1.00076 0.0
O369 O 0.34242 0.41927 0.98938 0.0
C370 C 0.39782 0.34658 0.06198 0.0
O371 O 0.38466 0.45206 0.02039 0.0
O372 O 0.33487 0.46287 0.03559 0.0
C373 C 0.29823 0.42791 0.09282 0.0
Fe374 Fe 0.82314 0.10146 0.99893 0.0
Fe375 Fe 0.84431 0.13465 0.93491 0.0
O376 O 0.85356 0.11287 0.97113 0.0
Fe377 Fe 0.89368 0.10106 0.97823 0.0
O378 O 0.88462 0.06383 1.00077 0.0
O379 O 0.83205 0.05808 0.99605 0.0
O380 O 0.79238 0.09445 0.96727 0.0
C381 C 0.79568 0.08842 0.93712 0.0
C382 C 0.87652 0.12159 0.03769 0.0
O383 O 0.8186 0.10116 0.9208 0.0
C384 C 0.9007 0.16521 0.95379 0.0
O385 O 0.81173 0.14343 1.00456 0.0
O386 O 0.80757 0.15563 0.95295 0.0
O387 O 0.89636 0.12461 0.01475 0.0
O388 O 0.84974 0.10656 0.0343 0.0
C389 C 0.89408 0.08989 0.91522 0.0
O390 O 0.87062 0.16938 0.94743 0.0
O391 O 0.91146 0.13658 0.95767 0.0
C392 C 0.79892 0.1601 0.98253 0.0
O393 O 0.87906 0.11668 0.91041 0.0
O394 O 0.89103 0.07662 0.94229 0.0
C395 C 0.85966 0.04606 1.00116 0.0
Fe396 Fe 0.12993 0.59615 0.18817 0.0
Fe397 Fe 0.14633 0.64438 0.24274 0.0
O398 O 0.14755 0.60447 0.22671 0.0
Fe399 Fe 0.16688 0.57381 0.25018 0.0
O400 O 0.18267 0.55038 0.21563 0.0
O401 O 0.16679 0.57775 0.17271 0.0
O402 O 0.14548 0.63522 0.17008 0.0
C403 C 0.16712 0.65496 0.18094 0.0
C404 C 0.11326 0.54038 0.22848 0.0
O405 O 0.17207 0.65821 0.21096 0.0
C406 C 0.13081 0.611 0.29615 0.0
O407 O 0.09039 0.61455 0.19868 0.0
O408 O 0.11029 0.65829 0.22111 0.0
O409 O 0.1306 0.54984 0.25171 0.0
O410 O 0.1134 0.5552 0.20102 0.0
C411 C 0.20803 0.62317 0.26509 0.0
O412 O 0.1204 0.63117 0.27563 0.0
O413 O 0.1535 0.5914 0.28876 0.0
C414 C 0.08689 0.64377 0.20789 0.0
O415 O 0.18288 0.64055 0.26761 0.0
O416 O 0.20586 0.59573 0.25145 0.0
C417 C 0.18405 0.556 0.18547 0.0
Fe418 Fe 0.70102 0.92096 0.50046 0.0
Fe419 Fe 0.67852 0.88625 0.43817 0.0
O420 O 0.66963 0.90358 0.47662 0.0
Fe421 Fe 0.62958 0.90397 0.49172 0.0
O422 O 0.62973 0.94822 0.49484 0.0
O423 O 0.67558 0.95107 0.52133 0.0
O424 O 0.70895 0.9511 0.46976 0.0
C425 C 0.71796 0.94403 0.4413 0.0
C426 C 0.66754 0.88671 0.54572 0.0
O427 O 0.7117 0.91603 0.42916 0.0
C428 C 0.62674 0.84444 0.46307 0.0
O429 O 0.73303 0.89506 0.4847 0.0
O430 O 0.70783 0.85703 0.45679 0.0
O431 O 0.64187 0.89878 0.53391 0.0
O432 O 0.69461 0.89116 0.53206 0.0
C433 C 0.62139 0.91912 0.42534 0.0
O434 O 0.64526 0.85439 0.44008 0.0
O435 O 0.62622 0.86003 0.48945 0.0
C436 C 0.73223 0.8666 0.47349 0.0
O437 O 0.65081 0.91469 0.41734 0.0
O438 O 0.61076 0.90892 0.45223 0.0
C439 C 0.64963 0.96426 0.51183 0.0
Fe440 Fe 0.35775 0.4479 0.75578 0.0
Fe441 Fe 0.38899 0.42705 0.69123 0.0
O442 O 0.37035 0.41705 0.72875 0.0
Fe443 Fe 0.36384 0.37592 0.73938 0.0
O444 O 0.32688 0.38335 0.76375 0.0
O445 O 0.31573 0.43469 0.75465 0.0
O446 O 0.347 0.47737 0.72387 0.0
C447 C 0.34043 0.47299 0.69408 0.0
C448 C 0.3859 0.40016 0.79595 0.0
O449 O 0.35344 0.45002 0.67836 0.0
C450 C 0.42555 0.37344 0.70819 0.0
O451 O 0.39853 0.46301 0.75937 0.0
O452 O 0.40905 0.46535 0.7072 0.0
O453 O 0.39004 0.37917 0.77417 0.0
O454 O 0.36654 0.42378 0.79187 0.0
C455 C 0.34562 0.37492 0.67624 0.0
O456 O 0.42588 0.40365 0.70135 0.0
O457 O 0.39925 0.36002 0.71704 0.0
C458 C 0.41407 0.47531 0.73629 0.0
O459 O 0.37094 0.39146 0.66907 0.0
O460 O 0.3374 0.37101 0.70536 0.0
C461 C 0.30677 0.40663 0.7628 0.0
Fe462 Fe 0.12735 0.61725 0.53594 0.0
Fe463 Fe 0.19846 0.59807 0.52396 0.0
O464 O 0.16859 0.61698 0.54872 0.0
Fe465 Fe 0.18055 0.63494 0.58598 0.0
O466 O 0.1531 0.60757 0.6089 0.0
O467 O 0.11066 0.6119 0.57638 0.0
O468 O 0.12646 0.57293 0.5321 0.0
C469 C 0.14516 0.55617 0.5145 0.0
C470 C 0.1288 0.67775 0.56435 0.0
O471 O 0.17158 0.56813 0.5048 0.0
C472 C 0.23224 0.65286 0.54609 0.0
O473 O 0.13769 0.62274 0.49332 0.0
O474 O 0.19104 0.62714 0.49214 0.0
O475 O 0.14915 0.66752 0.58533 0.0
O476 O 0.12353 0.66137 0.53892 0.0
C477 C 0.21751 0.57607 0.58307 0.0
O478 O 0.23214 0.62361 0.53715 0.0
O479 O 0.20949 0.66313 0.56463 0.0
C480 C 0.16353 0.63245 0.47971 0.0
O481 O 0.20722 0.56836 0.55516 0.0
O482 O 0.21323 0.6048 0.59399 0.0
C483 C 0.12348 0.60167 0.60222 0.0
Fe484 Fe 0.65886 0.87348 0.78754 0.0
Fe485 Fe 0.66408 0.94485 0.76841 0.0
O486 O 0.65198 0.91483 0.79668 0.0
Fe487 Fe 0.63334 0.92597 0.83403 0.0
O488 O 0.65136 0.89135 0.85748 0.0
O489 O 0.68499 0.86983 0.82202 0.0
O490 O 0.69609 0.88042 0.7636 0.0
C491 C 0.71578 0.90412 0.76323 0.0
C492 C 0.59697 0.87168 0.81852 0.0
O493 O 0.70638 0.9325 0.76977 0.0
C494 C 0.60753 0.97207 0.78765 0.0
O495 O 0.63317 0.87513 0.75215 0.0
O496 O 0.6563 0.91924 0.73291 0.0
O497 O 0.5965 0.90197 0.82495 0.0
O498 O 0.62326 0.85822 0.80984 0.0
C499 C 0.68142 0.97238 0.82911 0.0
O500 O 0.62284 0.95914 0.76463 0.0
O501 O 0.61314 0.96325 0.8169 0.0
C502 C 0.6388 0.89419 0.72904 0.0
O503 O 0.67445 0.97553 0.79928 0.0
O504 O 0.66875 0.94992 0.84588 0.0
C505 C 0.67647 0.87436 0.85096 0.0
Fe506 Fe 0.88919 0.0959 0.32726 0.0
Fe507 Fe 0.86733 0.14173 0.27281 0.0
O508 O 0.86961 0.10254 0.28969 0.0
Fe509 Fe 0.85214 0.06931 0.26842 0.0
O510 O 0.82356 0.06265 0.30076 0.0
O511 O 0.86104 0.06201 0.33916 0.0
O512 O 0.86052 0.12351 0.34824 0.0
C513 C 0.85291 0.15182 0.33841 0.0
C514 C 0.90911 0.04215 0.29158 0.0
O515 O 0.86327 0.16241 0.31159 0.0
C516 C 0.8845 0.10119 0.22085 0.0
O517 O 0.91964 0.12984 0.32263 0.0
O518 O 0.91103 0.14686 0.27295 0.0
O519 O 0.87946 0.03891 0.28514 0.0
O520 O 0.91857 0.06748 0.307 0.0
C521 C 0.80711 0.11856 0.25679 0.0
O522 O 0.8714 0.12706 0.23124 0.0
O523 O 0.88058 0.07463 0.23556 0.0
C524 C 0.92795 0.14745 0.29844 0.0
O525 O 0.82322 0.13981 0.27185 0.0
O526 O 0.82071 0.09281 0.2473 0.0
C527 C 0.83245 0.0549 0.32904 0.0
H528 H 0.93432 0.40665 0.40913 0.0
H529 H 0.93694 0.32214 0.34658 0.0
H530 H 0.87759 0.32351 0.34212 0.0
H531 H 0.82607 0.3435 0.36311 0.0
H532 H 0.82426 0.42198 0.43289 0.0
H533 H 0.88321 0.42846 0.42757 0.0
C534 C 0.92204 0.38887 0.39395 0.0
C535 C 0.93955 0.36405 0.37846 0.0
C536 C 0.88843 0.38861 0.39329 0.0
C537 C 0.92354 0.34116 0.35894 0.0
C538 C 0.88984 0.34192 0.35651 0.0
C539 C 0.83862 0.36244 0.37662 0.0
C540 C 0.82157 0.3823 0.39838 0.0
C541 C 0.87217 0.36471 0.37469 0.0
C542 C 0.83752 0.40645 0.41624 0.0
C543 C 0.87092 0.41011 0.41313 0.0
H544 H 0.87737 0.57844 0.61761 0.0
H545 H 0.89692 0.58003 0.72089 0.0
H546 H 0.90056 0.63892 0.71976 0.0
H547 H 0.90801 0.68734 0.6882 0.0
H548 H 0.88448 0.68937 0.58618 0.0
H549 H 0.87395 0.63029 0.5875 0.0
C550 C 0.88177 0.59183 0.63992 0.0
C551 C 0.88815 0.5752 0.66902 0.0
C552 C 0.88419 0.62561 0.63905 0.0
C553 C 0.89262 0.59245 0.6981 0.0
C554 C 0.89497 0.62601 0.69745 0.0
C555 C 0.89983 0.6751 0.66635 0.0
C556 C 0.89752 0.69202 0.63704 0.0
C557 C 0.89248 0.6424 0.66782 0.0
C558 C 0.88691 0.6762 0.60883 0.0
C559 C 0.88071 0.64277 0.60971 0.0
H560 H 0.68636 0.59613 0.90037 0.0
H561 H 0.69918 0.69138 0.85884 0.0
H562 H 0.64043 0.69761 0.85329 0.0
H563 H 0.58628 0.68014 0.87042 0.0
H564 H 0.57277 0.58509 0.91226 0.0
H565 H 0.63101 0.574 0.90715 0.0
C566 C 0.67607 0.61755 0.88896 0.0
C567 C 0.69632 0.6433 0.87999 0.0
C568 C 0.64239 0.62114 0.88651 0.0
C569 C 0.68346 0.67131 0.86557 0.0
C570 C 0.65004 0.67497 0.86272 0.0
C571 C 0.59617 0.65677 0.87764 0.0
C572 C 0.57604 0.63368 0.89226 0.0
C573 C 0.62936 0.65075 0.87468 0.0
C574 C 0.58836 0.60318 0.90114 0.0
C575 C 0.62152 0.59694 0.89835 0.0
H576 H 0.65728 0.3314 0.17896 0.0
H577 H 0.5975 0.32894 0.0931 0.0
H578 H 0.6001 0.38837 0.08917 0.0
H579 H 0.61092 0.43968 0.11578 0.0
H580 H 0.66255 0.44239 0.20721 0.0
H581 H 0.67177 0.3837 0.20369 0.0
C582 C 0.64554 0.34413 0.15908 0.0
C583 C 0.62722 0.32676 0.13634 0.0
C584 C 0.64522 0.37796 0.15852 0.0
C585 C 0.61179 0.34254 0.1106 0.0
C586 C 0.6131 0.37626 0.10859 0.0
C587 C 0.62465 0.42762 0.13476 0.0
C588 C 0.63545 0.44499 0.16209 0.0
C589 C 0.62842 0.39411 0.13331 0.0
C590 C 0.65349 0.42918 0.18628 0.0
C591 C 0.6588 0.39579 0.18423 0.0
H592 H 0.43788 0.12253 0.60005 0.0
H593 H 0.44056 0.20668 0.66311 0.0
H594 H 0.38112 0.20541 0.66716 0.0
H595 H 0.32949 0.18311 0.64879 0.0
H596 H 0.32735 0.10278 0.58105 0.0
H597 H 0.38674 0.09944 0.583 0.0
C598 C 0.42558 0.14035 0.61514 0.0
C599 C 0.44317 0.16471 0.63133 0.0
C600 C 0.39199 0.14008 0.61634 0.0
C601 C 0.42711 0.1879 0.65038 0.0
C602 C 0.39339 0.18712 0.65268 0.0
C603 C 0.34206 0.16447 0.63495 0.0
C604 C 0.32467 0.14301 0.61493 0.0
C605 C 0.37572 0.16369 0.63521 0.0
C606 C 0.34076 0.1194 0.59652 0.0
C607 C 0.37443 0.11757 0.59764 0.0
H608 H 0.12646 0.18936 0.8217 0.0
H609 H 0.13923 0.18991 0.92567 0.0
H610 H 0.15488 0.1323 0.92423 0.0
H611 H 0.15657 0.08114 0.89413 0.0
H612 H 0.14137 0.0808 0.79019 0.0
H613 H 0.13688 0.13989 0.79053 0.0
C614 C 0.13272 0.17672 0.84399 0.0
C615 C 0.13058 0.1928 0.87392 0.0
C616 C 0.14172 0.14416 0.84282 0.0
C617 C 0.14001 0.17721 0.90259 0.0
C618 C 0.14908 0.14458 0.90168 0.0
C619 C 0.15293 0.09402 0.87143 0.0
C620 C 0.14784 0.07669 0.84242 0.0
C621 C 0.14888 0.12763 0.87203 0.0
C622 C 0.14449 0.09363 0.81299 0.0
C623 C 0.1416 0.12734 0.81319 0.0
H624 H 0.07984 0.90818 0.09332 0.0
H625 H 0.07842 0.83637 0.16968 0.0
H626 H 0.13758 0.84076 0.17508 0.0
H627 H 0.18903 0.86035 0.15379 0.0
H628 H 0.19103 0.92616 0.07217 0.0
H629 H 0.13152 0.92929 0.0732 0.0
C630 C 0.09249 0.89402 0.1116 0.0
C631 C 0.07527 0.87213 0.13129 0.0
C632 C 0.12623 0.89555 0.11335 0.0
C633 C 0.09159 0.85331 0.1544 0.0
C634 C 0.12519 0.85582 0.1574 0.0
C635 C 0.17648 0.87598 0.13669 0.0
C636 C 0.19402 0.89322 0.11303 0.0
C637 C 0.1427 0.87623 0.13642 0.0
C638 C 0.17769 0.9128 0.09054 0.0
C639 C 0.14387 0.91447 0.09111 0.0
H640 H 0.36748 0.83478 0.39541 0.0
H641 H 0.47109 0.83677 0.37771 0.0
H642 H 0.46919 0.89536 0.37092 0.0
H643 H 0.43712 0.94284 0.36027 0.0
H644 H 0.33454 0.94453 0.38159 0.0
H645 H 0.33655 0.88617 0.39524 0.0
C646 C 0.38972 0.84823 0.39081 0.0
C647 C 0.41913 0.83164 0.38568 0.0
C648 C 0.38837 0.88178 0.38637 0.0
C649 C 0.44806 0.84908 0.38101 0.0
C650 C 0.44696 0.88246 0.37681 0.0
C651 C 0.4152 0.9307 0.36841 0.0
C652 C 0.38557 0.94733 0.36929 0.0
C653 C 0.41703 0.8985 0.37766 0.0
C654 C 0.35741 0.9316 0.38015 0.0
C655 C 0.3587 0.8986 0.3882 0.0
H656 H 0.38148 0.35396 0.93794 0.0
H657 H 0.37817 0.45796 0.95093 0.0
H658 H 0.39441 0.46638 0.89475 0.0
H659 H 0.39962 0.44448 0.84062 0.0
H660 H 0.39564 0.3409 0.82471 0.0
H661 H 0.39405 0.33157 0.88346 0.0
C662 C 0.38463 0.37828 0.92822 0.0
C663 C 0.37759 0.40537 0.94751 0.0
C664 C 0.393 0.38288 0.89563 0.0
C665 C 0.38233 0.43694 0.93563 0.0
C666 C 0.39197 0.44174 0.90379 0.0
C667 C 0.39923 0.41985 0.85016 0.0
C668 C 0.3967 0.39349 0.82894 0.0
C669 C 0.39593 0.41493 0.88332 0.0
C670 C 0.39719 0.36157 0.841 0.0
C671 C 0.3958 0.35627 0.87446 0.0
H672 H 0.89811 0.07411 0.07468 0.0
H673 H 0.88237 0.1776 0.07192 0.0
H674 H 0.89271 0.1813 0.13056 0.0
H675 H 0.89441 0.15314 0.18247 0.0
H676 H 0.90416 0.04851 0.18524 0.0
H677 H 0.9096 0.04712 0.12627 0.0
C678 C 0.8978 0.09747 0.08705 0.0
C679 C 0.889 0.12548 0.07012 0.0
C680 C 0.9026 0.09903 0.12042 0.0
C681 C 0.88883 0.15588 0.08532 0.0
C682 C 0.89466 0.15789 0.11857 0.0
C683 C 0.89832 0.13008 0.17023 0.0
C684 C 0.89725 0.10084 0.18772 0.0
C685 C 0.89976 0.12933 0.13649 0.0
C686 C 0.90379 0.07125 0.17196 0.0
C687 C 0.90679 0.07041 0.13833 0.0
H688 H 0.1815 0.62144 0.33327 0.0
H689 H 0.07692 0.62283 0.33413 0.0
H690 H 0.07774 0.63684 0.39247 0.0
H691 H 0.10934 0.64161 0.44326 0.0
H692 H 0.21441 0.64309 0.43887 0.0
H693 H 0.21229 0.63756 0.3803 0.0
C694 C 0.15887 0.62566 0.34594 0.0
C695 C 0.12927 0.62059 0.33011 0.0
C696 C 0.15975 0.63485 0.37823 0.0
C697 C 0.09995 0.62603 0.34647 0.0
C698 C 0.1005 0.63425 0.37949 0.0
C699 C 0.13174 0.64161 0.42938 0.0
C700 C 0.16201 0.64117 0.44532 0.0
C701 C 0.13041 0.63782 0.39571 0.0
C702 C 0.19084 0.64248 0.42716 0.0
C703 C 0.18969 0.63911 0.39371 0.0
H704 H 0.61408 0.87701 0.58239 0.0
H705 H 0.71878 0.8689 0.58414 0.0
H706 H 0.71756 0.86357 0.64313 0.0
H707 H 0.68801 0.87347 0.69362 0.0
H708 H 0.5843 0.88727 0.69221 0.0
H709 H 0.58356 0.87791 0.63323 0.0
C710 C 0.63661 0.87347 0.5956 0.0
C711 C 0.66657 0.87467 0.57924 0.0
C712 C 0.63582 0.8719 0.62941 0.0
C713 C 0.69548 0.86891 0.59639 0.0
C714 C 0.69481 0.86598 0.63007 0.0
C715 C 0.66523 0.87354 0.68031 0.0
C716 C 0.63631 0.88143 0.69634 0.0
C717 C 0.66534 0.86939 0.64677 0.0
C718 C 0.60671 0.88135 0.67972 0.0
C719 C 0.6064 0.87618 0.64621 0.0
H720 H 0.1768 0.51621 0.47115 0.0
H721 H 0.09042 0.52213 0.53057 0.0
H722 H 0.07203 0.46997 0.50945 0.0
H723 H 0.07725 0.42607 0.46998 0.0
H724 H 0.15981 0.42119 0.40636 0.0
H725 H 0.18361 0.46903 0.43368 0.0
C726 C 0.15407 0.50598 0.47972 0.0
C727 C 0.135 0.52338 0.50255 0.0
C728 C 0.14316 0.47603 0.46679 0.0
C729 C 0.10566 0.50954 0.51323 0.0
C730 C 0.09509 0.47961 0.5011 0.0
C731 C 0.10091 0.43484 0.46283 0.0
C732 C 0.11691 0.41981 0.43661 0.0
C733 C 0.11328 0.46306 0.47746 0.0
C734 C 0.14736 0.4318 0.42699 0.0
C735 C 0.16061 0.45951 0.44228 0.0
H736 H 0.8526 0.84755 0.73011 0.0
H737 H 0.83431 0.89592 0.63915 0.0
H738 H 0.78621 0.92231 0.66284 0.0
H739 H 0.74459 0.9241 0.70702 0.0
H740 H 0.76128 0.86987 0.79495 0.0
H741 H 0.8146 0.85302 0.775 0.0
C742 C 0.83856 0.86458 0.71569 0.0
C743 C 0.84689 0.8697 0.6829 0.0
C744 C 0.81023 0.87803 0.72888 0.0
C745 C 0.82861 0.89184 0.66452 0.0
C746 C 0.80082 0.9065 0.67796 0.0
C747 C 0.76039 0.90923 0.72195 0.0
C748 C 0.74939 0.89831 0.75248 0.0
C749 C 0.79064 0.89867 0.7097 0.0
C750 C 0.76949 0.87856 0.7715 0.0
C751 C 0.79989 0.86894 0.76007 0.0
H752 H 0.41472 0.61192 0.99668 0.0
H753 H 0.37049 0.59164 0.90391 0.0
H754 H 0.3443 0.54308 0.92684 0.0
H755 H 0.3424 0.50145 0.97069 0.0
H756 H 0.39373 0.51918 0.06021 0.0
H757 H 0.40904 0.57351 0.04133 0.0
C758 C 0.39858 0.59737 0.98168 0.0
C759 C 0.39472 0.60526 0.94857 0.0
C760 C 0.3856 0.56854 0.99439 0.0
C761 C 0.37363 0.58633 0.92949 0.0
C762 C 0.35915 0.55823 0.9425 0.0
C763 C 0.35648 0.51757 0.98613 0.0
C764 C 0.36708 0.50659 0.01676 0.0
C765 C 0.36627 0.54829 0.97446 0.0
C766 C 0.38536 0.52732 0.03665 0.0
C767 C 0.3941 0.5583 0.0258 0.0
H768 H 0.66518 0.1694 0.23717 0.0
H769 H 0.67787 0.12325 0.14389 0.0
H770 H 0.72882 0.09883 0.16278 0.0
H771 H 0.77418 0.099 0.2026 0.0
H772 H 0.76304 0.15152 0.29274 0.0
H773 H 0.70751 0.16583 0.27808 0.0
C774 C 0.67869 0.15332 0.22118 0.0
C775 C 0.668 0.14847 0.18906 0.0
C776 C 0.70885 0.14148 0.23136 0.0
C777 C 0.68548 0.12728 0.16877 0.0
C778 C 0.71492 0.11381 0.1794 0.0
C779 C 0.75937 0.11325 0.21911 0.0
C780 C 0.77283 0.12483 0.24842 0.0
C781 C 0.7276 0.12212 0.21007 0.0
C782 C 0.75348 0.14314 0.2697 0.0
C783 C 0.72163 0.15103 0.26147 0.0
H784 H 0.67724 0.99852 0.56186 0.0
H785 H 0.60352 1.0049 0.48745 0.0
H786 H 0.58741 0.05823 0.50782 0.0
H787 H 0.58986 0.09968 0.55018 0.0
H788 H 0.65876 0.0916 0.62829 0.0
H789 H 0.6823 0.04299 0.60245 0.0
C790 C 0.65787 0.01174 0.5499 0.0
C791 C 0.64131 0.99747 0.52335 0.0
C792 C 0.64822 0.04224 0.56223 0.0
C793 C 0.61632 0.015 0.50815 0.0
C794 C 0.60722 0.0456 0.51968 0.0
C795 C 0.61072 0.08783 0.56096 0.0
C796 C 0.62286 0.09931 0.59079 0.0
C797 C 0.62247 0.05903 0.54709 0.0
C798 C 0.64955 0.08362 0.60494 0.0
C799 C 0.66251 0.05549 0.59044 0.0
H800 H 0.27756 0.42416 0.81969 0.0
H801 H 0.26076 0.37563 0.72839 0.0
H802 H 0.20603 0.36049 0.74577 0.0
H803 H 0.16629 0.35487 0.78908 0.0
H804 H 0.1844 0.39699 0.88326 0.0
H805 H 0.23448 0.42225 0.86248 0.0
C806 C 0.26154 0.41076 0.80357 0.0
C807 C 0.2729 0.40089 0.7728 0.0
C808 C 0.23033 0.4013 0.81426 0.0
C809 C 0.25236 0.38332 0.75209 0.0
C810 C 0.22111 0.37476 0.76204 0.0
C811 C 0.18073 0.37039 0.80484 0.0
C812 C 0.17174 0.37403 0.83766 0.0
C813 C 0.21024 0.38285 0.79333 0.0
C814 C 0.19057 0.39417 0.85783 0.0
C815 C 0.21952 0.40807 0.84606 0.0
H816 H 0.91915 0.91209 0.03852 0.0
H817 H 0.8571 0.92492 0.12165 0.0
H818 H 0.83006 0.97088 0.0948 0.0
H819 H 0.83161 0.01338 0.05174 0.0
H820 H 0.89875 1.00268 0.97209 0.0
H821 H 0.91611 0.94995 0.99301 0.0
C822 C 0.89872 0.92412 0.05009 0.0
C823 C 0.88957 0.91485 0.08162 0.0
C824 C 0.88471 0.95141 0.03524 0.0
C825 C 0.86387 0.93116 0.09699 0.0
C826 C 0.84883 0.95776 0.08181 0.0
C827 C 0.84919 0.99886 0.03852 0.0
C828 C 0.86376 0.01161 0.01029 0.0
C829 C 0.86005 0.96901 0.05152 0.0
C830 C 0.88714 0.99313 0.99372 0.0
C831 C 0.89715 0.96308 1.00575 0.0
H832 H 0.30412 0.67976 0.36882 0.0
H833 H 0.37503 0.62238 0.31747 0.0
H834 H 0.33112 0.59832 0.28407 0.0
H835 H 0.27209 0.59917 0.26564 0.0
H836 H 0.20835 0.66936 0.31143 0.0
H837 H 0.24997 0.68372 0.34943 0.0
C838 C 0.31027 0.66182 0.35043 0.0
C839 C 0.3429 0.65315 0.34556 0.0
C840 C 0.28591 0.65099 0.32953 0.0
C841 C 0.35007 0.62935 0.32202 0.0
C842 C 0.32499 0.6161 0.30252 0.0
C843 C 0.26747 0.61757 0.28393 0.0
C844 C 0.23643 0.63236 0.28583 0.0
C845 C 0.29277 0.62767 0.30528 0.0
C846 C 0.23139 0.65685 0.30929 0.0
C847 C 0.25529 0.66522 0.33138 0.0
H848 H 0.48102 0.09196 0.41983 0.0
H849 H 0.39809 0.15434 0.43375 0.0
H850 H 0.42473 0.17913 0.48129 0.0
H851 H 0.46797 0.17663 0.5233 0.0
H852 H 0.54715 0.10889 0.51145 0.0
H853 H 0.52534 0.09209 0.45892 0.0
C854 C 0.469 0.11153 0.43285 0.0
C855 C 0.43752 0.12121 0.4234 0.0
C856 C 0.48351 0.124 0.46101 0.0
C857 C 0.42239 0.14669 0.4403 0.0
C858 C 0.43745 0.16042 0.46778 0.0
C859 C 0.48071 0.15853 0.50899 0.0
C860 C 0.50917 0.14385 0.52145 0.0
C861 C 0.46741 0.14828 0.4791 0.0
C862 C 0.52519 0.12031 0.50268 0.0
C863 C 0.51275 0.1108 0.47256 0.0
H864 H 0.17595 0.22904 0.66686 0.0
H865 H 0.1056 0.15219 0.67526 0.0
H866 H 0.0812 0.17962 0.72254 0.0
H867 H 0.0863 0.22102 0.76673 0.0
H868 H 0.16272 0.2926 0.7612 0.0
H869 H 0.17874 0.2719 0.70784 0.0
C870 C 0.15457 0.21895 0.67841 0.0
C871 C 0.14225 0.18902 0.66732 0.0
C872 C 0.14243 0.23365 0.70667 0.0
C873 C 0.11495 0.17565 0.6828 0.0
C874 C 0.10147 0.19107 0.71021 0.0
C875 C 0.10596 0.23241 0.75336 0.0
C876 C 0.12327 0.25843 0.76759 0.0
C877 C 0.11592 0.21937 0.72318 0.0
C878 C 0.14913 0.27264 0.75058 0.0
C879 C 0.15825 0.26079 0.72012 0.0
H880 H 0.05736 0.95029 0.92726 0.0
H881 H 0.11008 0.86039 0.91742 0.0
H882 H 0.0792 0.83734 0.96323 0.0
H883 H 0.0416 0.84548 1.00957 0.0
H884 H 0.98981 0.93636 0.01885 0.0
H885 H 0.01588 0.95634 0.96942 0.0
C886 C 0.0617 0.9254 0.93474 0.0
C887 C 0.08603 0.90704 0.91911 0.0
C888 C 0.0443 0.91276 0.96119 0.0
C889 C 0.0913 0.87483 0.92889 0.0
C890 C 0.07386 0.86187 0.95527 0.0
C891 C 0.03571 0.86956 1.00064 0.0
C892 C 0.01407 0.8896 0.01838 0.0
C893 C 0.05098 0.88099 0.97219 0.0
C894 C 1.00649 0.92052 1.00605 0.0
C895 C 0.02145 0.93198 0.97776 0.0
H896 H 0.33584 0.79915 0.17131 0.0
H897 H 0.41284 0.86974 0.174 0.0
H898 H 0.43574 0.84309 0.22236 0.0
H899 H 0.42926 0.80397 0.26798 0.0
H900 H 0.34839 0.73693 0.26711 0.0
H901 H 0.3313 0.75797 0.2144 0.0
C902 C 0.3581 0.8081 0.18205 0.0
C903 C 0.37288 0.83601 0.16875 0.0
C904 C 0.36986 0.79373 0.21076 0.0
C905 C 0.40152 0.84778 0.18312 0.0
C906 C 0.41421 0.83284 0.21116 0.0
C907 C 0.40808 0.79369 0.25612 0.0
C908 C 0.39001 0.76891 0.27187 0.0
C909 C 0.39789 0.80649 0.22588 0.0
C910 C 0.3626 0.75611 0.25596 0.0
C911 C 0.35284 0.76812 0.22568 0.0
H912 H 0.96159 0.34448 0.49633 0.0
H913 H 0.03541 0.41879 0.50436 0.0
H914 H 0.01493 0.43398 0.55763 0.0
H915 H 0.97227 0.43086 0.59865 0.0
H916 H 0.89434 0.36172 0.58867 0.0
H917 H 0.92072 0.33874 0.54012 0.0
C918 C 0.97344 0.36379 0.50986 0.0
C919 C 1.00003 0.38066 0.49603 0.0
C920 C 0.96085 0.37304 0.54031 0.0
C921 C 0.01495 0.40556 0.51404 0.0
C922 C 1.00323 0.41422 0.54465 0.0
C923 C 0.96161 0.41012 0.58633 0.0
C924 C 0.93168 0.39774 0.59722 0.0
C925 C 0.97577 0.39869 0.55759 0.0
C926 C 0.91774 0.37112 0.58107 0.0
C927 C 0.93255 0.35847 0.55301 0.0
H928 H 0.85332 0.65559 0.81422 0.0
H929 H 0.9045 0.71723 0.88136 0.0
H930 H 0.92658 0.74922 0.83579 0.0
H931 H 0.92381 0.76446 0.77659 0.0
H932 H 0.85991 0.70829 0.71467 0.0
H933 H 0.85015 0.67009 0.75776 0.0
C934 C 0.87042 0.67524 0.81874 0.0
C935 C 0.87806 0.68348 0.85087 0.0
C936 C 0.87987 0.69535 0.79303 0.0
C937 C 0.89915 0.70978 0.85668 0.0
C938 C 0.9111 0.72851 0.83063 0.0
C939 C 0.90794 0.74376 0.77264 0.0
C940 C 0.89322 0.73921 0.74195 0.0
C941 C 0.90039 0.72243 0.79867 0.0
C942 C 0.87209 0.71253 0.73762 0.0
C943 C 0.86639 0.69039 0.76234 0.0
H944 H 0.54163 0.59845 0.11072 0.0
H945 H 0.62533 0.65987 0.09767 0.0
H946 H 0.59839 0.6873 0.05195 0.0
H947 H 0.55528 0.68573 1.00952 0.0
H948 H 0.47528 0.61885 0.02033 0.0
H949 H 0.49602 0.60172 0.0732 0.0
C950 C 0.5534 0.61872 0.09857 0.0
C951 C 0.58516 0.62742 0.10749 0.0
C952 C 0.53851 0.63287 0.07149 0.0
C953 C 0.60061 0.65325 0.09147 0.0
C954 C 0.58537 0.66851 0.06505 0.0
C955 C 0.54199 0.66821 0.02408 0.0
C956 C 0.51377 0.65357 0.01138 0.0
C957 C 0.55496 0.65742 0.05389 0.0
C958 C 0.49696 0.6304 0.02988 0.0
C959 C 0.50889 0.62055 0.05997 0.0
H960 H 0.63529 0.3738 0.3157 0.0
H961 H 0.63639 0.29686 0.3864 0.0
H962 H 0.61762 0.25801 0.34504 0.0
H963 H 0.61053 0.24455 0.28603 0.0
H964 H 0.61141 0.32268 0.21638 0.0
H965 H 0.61985 0.36228 0.25958 0.0
C966 C 0.62998 0.34881 0.32235 0.0
C967 C 0.63685 0.33827 0.35408 0.0
C968 C 0.62056 0.32655 0.29819 0.0
C969 C 0.63055 0.30571 0.36232 0.0
C970 C 0.62047 0.28336 0.33844 0.0
C971 C 0.61191 0.27031 0.28059 0.0
C972 C 0.61109 0.28071 0.24799 0.0
C973 C 0.61689 0.2932 0.30589 0.0
C974 C 0.61277 0.31411 0.24117 0.0
C975 C 0.61738 0.33681 0.26592 0.0
H976 H 0.52354 0.46205 0.17697 0.0
H977 H 0.50245 0.55106 0.1257 0.0
H978 H 0.44855 0.53035 0.11168 0.0
H979 H 0.41067 0.48501 0.10814 0.0
H980 H 0.43425 0.39275 0.15155 0.0
H981 H 0.48311 0.41702 0.17615 0.0
C982 C 0.50691 0.47707 0.16315 0.0
C983 C 0.51703 0.50808 0.15223 0.0
C984 C 0.4763 0.46445 0.15415 0.0
C985 C 0.49538 0.52711 0.1341 0.0
C986 C 0.46452 0.51531 0.12623 0.0
C987 C 0.42607 0.47038 0.12373 0.0
C988 C 0.4189 0.43708 0.12795 0.0
C989 C 0.45513 0.48377 0.1354 0.0
C990 C 0.43893 0.41846 0.14826 0.0
C991 C 0.46721 0.43225 0.16174 0.0
H992 H 0.01336 0.03477 0.83415 0.0
H993 H 0.04854 0.02207 0.93233 0.0
H994 H 1.00098 0.04976 0.95336 0.0
H995 H 0.94969 0.07586 0.9449 0.0
H996 H 0.90869 0.08465 0.84888 0.0
H997 H 0.95907 0.06147 0.8257 0.0
C998 C 0.01052 0.03808 0.86013 0.0
C999 C 0.03463 0.0262 0.88163 0.0
C1000 C 0.98243 0.05368 0.87234 0.0
C1001 C 0.03048 0.03062 0.91521 0.0
C1002 C 1.00334 0.04668 0.9273 0.0
C1003 C 0.95146 0.07275 0.91875 0.0
C1004 C 0.92515 0.0816 0.89865 0.0
C1005 C 0.97925 0.05807 0.90616 0.0
C1006 C 0.92851 0.07813 0.86489 0.0
C1007 C 0.95716 0.06453 0.85178 0.0
H1008 H 0.22542 0.68027 0.19387 0.0
H1009 H 0.14879 0.68331 0.12249 0.0
H1010 H 0.17425 0.73152 0.09764 0.0
H1011 H 0.21477 0.77637 0.10093 0.0
H1012 H 0.28599 0.77543 0.17799 0.0
H1013 H 0.26578 0.72303 0.19634 0.0
C1014 C 0.21434 0.6912 0.17258 0.0
C1015 C 0.18503 0.67842 0.16022 0.0
C1016 C 0.22791 0.71966 0.15991 0.0
C1017 C 0.17139 0.69253 0.13236 0.0
C1018 C 0.18574 0.72035 0.11851 0.0
C1019 C 0.22606 0.76457 0.12159 0.0
C1020 C 0.25224 0.77987 0.1379 0.0
C1021 C 0.21339 0.73476 0.13283 0.0
C1022 C 0.26624 0.76427 0.16476 0.0
C1023 C 0.25459 0.73426 0.17532 0.0
H1024 H 0.52763 0.01804 0.35293 0.0
H1025 H 0.46022 0.96254 0.41174 0.0
H1026 H 0.50218 0.92486 0.42583 0.0
H1027 H 0.55766 0.90899 0.42594 0.0
H1028 H 0.63034 0.96736 0.37823 0.0
H1029 H 0.58707 1.00155 0.35454 0.0
C1030 C 0.52228 0.99763 0.36871 0.0
C1031 C 0.49031 0.99315 0.38062 0.0
C1032 C 0.54755 0.9763 0.37868 0.0
C1033 C 0.48414 0.96681 0.40163 0.0
C1034 C 0.50824 0.94495 0.40987 0.0
C1035 C 0.56434 0.92908 0.4102 0.0
C1036 C 0.59724 0.93573 0.4042 0.0
C1037 C 0.53994 0.94968 0.399 0.0
C1038 C 0.60516 0.96151 0.38316 0.0
C1039 C 0.58039 0.98134 0.37003 0.0
H1040 H 0.28284 0.35866 0.67778 0.0
H1041 H 0.37085 0.34158 0.62376 0.0
H1042 H 0.3461 0.29321 0.59872 0.0
H1043 H 0.30288 0.25128 0.59972 0.0
H1044 H 0.2183 0.26593 0.65999 0.0
H1045 H 0.23853 0.31942 0.67589 0.0
C1046 C 0.29637 0.34473 0.65996 0.0
C1047 C 0.32869 0.35346 0.65284 0.0
C1048 C 0.28287 0.316 0.64766 0.0
C1049 C 0.34586 0.33554 0.62943 0.0
C1050 C 0.33187 0.30757 0.61562 0.0
C1051 C 0.28864 0.26638 0.61598 0.0
C1052 C 0.25912 0.25446 0.62891 0.0
C1053 C 0.30097 0.2968 0.62575 0.0
C1054 C 0.24113 0.27426 0.65004 0.0
C1055 C 0.25265 0.30494 0.65899 0.0
H1056 H 1.00599 0.54453 0.68106 0.0
H1057 H 1.00461 0.4809 0.59749 0.0
H1058 H 0.05644 0.50308 0.57947 0.0
H1059 H 0.09887 0.54465 0.58379 0.0
H1060 H 0.09886 0.61206 0.66377 0.0
H1061 H 0.05161 0.5839 0.68747 0.0
C1062 C 0.01724 0.53518 0.65914 0.0
C1063 C 1.00109 0.511 0.64061 0.0
C1064 C 0.04696 0.54876 0.64836 0.0
C1065 C 0.01615 0.49943 0.61221 0.0
C1066 C 0.04591 0.51217 0.60184 0.0
C1067 C 0.08902 0.55262 0.60686 0.0
C1068 C 0.10257 0.58012 0.62221 0.0
C1069 C 0.06109 0.53733 0.61926 0.0
C1070 C 0.08939 0.59051 0.6519 0.0
C1071 C 0.06203 0.57469 0.6651 0.0
H1072 H 0.71559 0.75034 0.9288 0.0
H1073 H 0.80085 0.76312 0.86932 0.0
H1074 H 0.78255 0.81749 0.85387 0.0
H1075 H 0.73902 0.85723 0.85073 0.0
H1076 H 0.64984 0.84212 0.90343 0.0
H1077 H 0.67324 0.7937 0.92937 0.0
C1078 C 0.73038 0.76551 0.9131 0.0
C1079 C 0.75957 0.75307 0.90022 0.0
C1080 C 0.71893 0.79628 0.90323 0.0
C1081 C 0.77838 0.7724 0.87944 0.0
C1082 C 0.76791 0.80341 0.87064 0.0
C1083 C 0.72499 0.84381 0.86859 0.0
C1084 C 0.69269 0.85307 0.87499 0.0
C1085 C 0.73777 0.81507 0.8815 0.0
C1086 C 0.67483 0.83568 0.8983 0.0
C1087 C 0.68806 0.80767 0.91267 0.0
H1088 H 0.78158 0.25812 0.42337 0.0
H1089 H 0.73661 0.27649 0.33032 0.0
H1090 H 0.76415 0.22924 0.30745 0.0
H1091 H 0.80554 0.18721 0.31199 0.0
H1092 H 0.85023 0.16645 0.40428 0.0
H1093 H 0.81819 0.21038 0.42953 0.0
C1094 C 0.77744 0.25156 0.39818 0.0
C1095 C 0.75732 0.27133 0.37847 0.0
C1096 C 0.79353 0.22423 0.38506 0.0
C1097 C 0.75199 0.26206 0.34604 0.0
C1098 C 0.76788 0.23507 0.33288 0.0
C1099 C 0.80778 0.19168 0.33784 0.0
C1100 C 0.83032 0.17363 0.35624 0.0
C1101 C 0.78935 0.21665 0.3519 0.0
C1102 C 0.83298 0.17986 0.38966 0.0
C1103 C 0.81481 0.20512 0.40395 0.0
H1104 H 0.05584 0.52561 0.25781 0.0
H1105 H 0.14106 0.48211 0.21601 0.0
H1106 H 0.13085 0.43182 0.24626 0.0
H1107 H 0.10176 0.40299 0.29157 0.0
H1108 H 0.01461 0.44721 0.33008 0.0
H1109 H 0.02148 0.49332 0.29457 0.0
C1110 C 0.07117 0.50452 0.25392 0.0
C1111 C 0.09866 0.50757 0.23376 0.0
C1112 C 0.06541 0.47571 0.27191 0.0
C1113 C 0.11904 0.48023 0.23034 0.0
C1114 C 0.11358 0.45158 0.2483 0.0
C1115 C 0.08394 0.42236 0.29178 0.0
C1116 C 0.05798 0.42117 0.31439 0.0
C1117 C 0.0875 0.4494 0.2703 0.0
C1118 C 0.03513 0.44686 0.31361 0.0
C1119 C 0.03893 0.47366 0.2931 0.0
H1120 H 0.86918 0.84317 0.53213 0.0
H1121 H 0.81534 0.77051 0.5853 0.0
H1122 H 0.76896 0.77753 0.54971 0.0
H1123 H 0.7397 0.81112 0.50959 0.0
H1124 H 0.79301 0.88223 0.45451 0.0
H1125 H 0.84289 0.86842 0.4835 0.0
C1126 C 0.84774 0.82816 0.53529 0.0
C1127 C 0.84591 0.80686 0.56214 0.0
C1128 C 0.8205 0.83212 0.51424 0.0
C1129 C 0.81757 0.78767 0.56546 0.0
C1130 C 0.79075 0.7916 0.54499 0.0
C1131 C 0.76256 0.82228 0.50263 0.0
C1132 C 0.76242 0.84736 0.47939 0.0
C1133 C 0.79133 0.81467 0.52006 0.0
C1134 C 0.79236 0.86233 0.47175 0.0
C1135 C 0.82094 0.85485 0.48884 0.0
H1136 H 0.46368 0.486 0.77786 0.0
H1137 H 0.39575 0.53605 0.71646 0.0
H1138 H 0.40525 0.58675 0.74669 0.0
H1139 H 0.42677 0.61467 0.79696 0.0
H1140 H 0.49504 0.56237 0.85692 0.0
H1141 H 0.49179 0.51567 0.82113 0.0
C1142 C 0.45216 0.50838 0.77005 0.0
C1143 C 0.42964 0.50718 0.74432 0.0
C1144 C 0.45715 0.53723 0.78813 0.0
C1145 C 0.41405 0.53632 0.73539 0.0
C1146 C 0.41901 0.56529 0.75322 0.0
C1147 C 0.4415 0.59338 0.80171 0.0
C1148 C 0.46066 0.5922 0.8303 0.0
C1149 C 0.43958 0.56581 0.7806 0.0
C1150 C 0.47953 0.5641 0.83571 0.0
C1151 C 0.47781 0.53716 0.81511 0.0
H1152 H 0.65762 0.17963 0.03938 0.0
H1153 H 0.71176 0.24311 0.10329 0.0
H1154 H 0.75991 0.23652 0.07023 0.0
H1155 H 0.78956 0.20729 0.02762 0.0
H1156 H 0.73748 0.14539 0.96133 0.0
H1157 H 0.6864 0.15715 0.98996 0.0
C1158 C 0.67969 0.1926 0.04562 0.0
C1159 C 0.68072 0.21137 0.07457 0.0
C1160 C 0.70815 0.18891 0.02596 0.0
C1161 C 0.70992 0.22794 0.0818 0.0
C1162 C 0.73778 0.22428 0.06278 0.0
C1163 C 0.76682 0.19745 0.01856 0.0
C1164 C 0.7675 0.17602 0.99183 0.0
C1165 C 0.73757 0.20408 0.03541 0.0
C1166 C 0.73775 0.16275 0.98116 0.0
C1167 C 0.70848 0.16907 0.99798 0.0
H1168 H 0.55623 0.98407 0.74787 0.0
H1169 H 0.62809 0.03195 0.80694 0.0
H1170 H 0.61673 0.08375 0.77975 0.0
H1171 H 0.59105 0.11392 0.73361 0.0
H1172 H 0.51634 0.06544 0.67784 0.0
H1173 H 0.52384 0.01624 0.70925 0.0
C1174 C 0.56841 1.00614 0.75574 0.0
C1175 C 0.59257 1.00413 0.77986 0.0
C1176 C 0.5617 0.03591 0.73996 0.0
C1177 C 0.60875 0.03288 0.78911 0.0
C1178 C 0.60261 0.06249 0.77312 0.0
C1179 C 0.57595 0.09283 0.72877 0.0
C1180 C 0.5534 0.09378 0.70282 0.0
C1181 C 0.57986 0.06413 0.74765 0.0
C1182 C 0.53399 0.06595 0.69735 0.0
C1183 C 0.53829 0.03745 0.71533 0.0
H1184 H 0.22971 0.37361 0.0408 0.0
H1185 H 0.29955 0.30401 1.006 0.0
H1186 H 0.25853 0.2803 0.96987 0.0
H1187 H 0.20508 0.28445 0.9425 0.0
H1188 H 0.13484 0.35396 0.97729 0.0
H1189 H 0.17325 0.37225 0.019 0.0
C1190 C 0.23547 0.35224 0.02645 0.0
C1191 C 0.2676 0.33997 0.02703 0.0
C1192 C 0.21175 0.33921 1.00499 0.0
C1193 C 0.27492 0.31322 1.00705 0.0
C1194 C 0.25151 0.30002 0.98588 0.0
C1195 C 0.19786 0.30318 0.9596 0.0
C1196 C 0.1669 0.31788 0.95635 0.0
C1197 C 0.22018 0.31356 0.98376 0.0
C1198 C 0.15821 0.34202 0.97902 0.0
C1199 C 0.18036 0.35265 1.00288 0.0
H1200 H 0.89717 0.97767 0.29036 0.0
H1201 H 0.96726 0.04859 0.2584 0.0
H1202 H 0.99048 1.00841 0.22061 0.0
H1203 H 0.98555 0.95531 0.19122 0.0
H1204 H 0.91259 0.88642 0.22226 0.0
H1205 H 0.89593 0.92344 0.26548 0.0
C1206 C 0.91831 0.98408 0.27594 0.0
C1207 C 0.93069 0.0162 0.27776 0.0
C1208 C 0.93053 0.96126 0.25335 0.0
C1209 C 0.9577 0.02403 0.25835 0.0
C1210 C 0.97056 1.00111 0.23621 0.0
C1211 C 0.96639 0.94806 0.20778 0.0
C1212 C 0.95031 0.91777 0.20301 0.0
C1213 C 0.95642 0.96996 0.23264 0.0
C1214 C 0.92542 0.9093 0.22489 0.0
C1215 C 0.91582 0.93058 0.24975 0.0
H1216 H 0.23792 0.706 0.50507 0.0
H1217 H 0.29423 0.63893 0.56207 0.0
H1218 H 0.34336 0.65408 0.53238 0.0
H1219 H 0.36962 0.68141 0.48514 0.0
H1220 H 0.31379 0.75062 0.42986 0.0
H1221 H 0.26626 0.73984 0.46346 0.0
C1222 C 0.26119 0.69588 0.5121 0.0
C1223 C 0.26212 0.67184 0.53667 0.0
C1224 C 0.28976 0.70449 0.49436 0.0
C1225 C 0.29262 0.6581 0.54409 0.0
C1226 C 0.32083 0.66639 0.52664 0.0
C1227 C 0.34729 0.69464 0.48079 0.0
C1228 C 0.34585 0.71685 0.45454 0.0
C1229 C 0.31962 0.68877 0.5009 0.0
C1230 C 0.31626 0.73356 0.44973 0.0
C1231 C 0.28871 0.72729 0.469 0.0
H1232 H 0.22388 0.12511 0.47959 0.0
H1233 H 0.26015 0.05679 0.54998 0.0
H1234 H 0.29713 0.03416 0.50891 0.0
H1235 H 0.32461 0.03942 0.4554 0.0
H1236 H 0.28853 0.10861 0.38546 0.0
H1237 H 0.24603 0.12509 0.42375 0.0
C1238 C 0.23902 0.1044 0.48564 0.0
C1239 C 0.2388 0.0924 0.51792 0.0
C1240 C 0.26086 0.0922 0.46207 0.0
C1241 C 0.25906 0.06599 0.52535 0.0
C1242 C 0.28069 0.05347 0.50191 0.0
C1243 C 0.30714 0.05777 0.44823 0.0
C1244 C 0.31022 0.07298 0.41741 0.0
C1245 C 0.28267 0.06723 0.47056 0.0
C1246 C 0.287 0.09644 0.40874 0.0
C1247 C 0.2627 0.10599 0.43079 0.0
H1248 H 0.20299 0.01904 0.7823 0.0
H1249 H 0.15269 0.95021 0.72166 0.0
H1250 H 0.16428 0.98326 0.67362 0.0
H1251 H 0.18281 0.03604 0.64952 0.0
H1252 H 0.23413 0.10376 0.71125 0.0
H1253 H 0.22789 0.06752 0.75729 0.0
C1254 C 0.19613 1.01036 0.75835 0.0
C1255 C 0.17792 0.98141 0.75572 0.0
C1256 C 0.20206 0.03017 0.73075 0.0
C1257 C 0.16777 0.97166 0.72444 0.0
C1258 C 0.17379 0.99103 0.69692 0.0
C1259 C 0.19292 0.04268 0.67292 0.0
C1260 C 0.20884 0.073 0.67645 0.0
C1261 C 0.18988 0.02107 0.69985 0.0
C1262 C 0.22188 0.08076 0.70727 0.0
C1263 C 0.21834 0.05993 0.73392 0.0
H1264 H 0.2059 0.99037 0.9448 0.0
H1265 H 0.22861 0.90904 0.88235 0.0
H1266 H 0.26789 0.88935 0.92186 0.0
H1267 H 0.29123 0.89095 0.97667 0.0
H1268 H 0.26891 0.97053 0.04092 0.0
H1269 H 0.23502 0.99533 0.99834 0.0
C1270 C 0.21995 0.96874 0.93946 0.0
C1271 C 0.21379 0.95125 0.91023 0.0
C1272 C 0.2427 0.95705 0.96286 0.0
C1273 C 0.23234 0.92309 0.90432 0.0
C1274 C 0.25493 0.91168 0.92708 0.0
C1275 C 0.27979 0.9143 0.9811 0.0
C1276 C 0.28316 0.92896 0.01207 0.0
C1277 C 0.2597 0.9279 0.95676 0.0
C1278 C 0.26759 0.95896 0.01729 0.0
C1279 C 0.2477 0.97289 0.99297 0.0
H1280 H 0.28199 0.95854 0.19551 0.0
H1281 H 0.3679 0.97329 0.13705 0.0
H1282 H 0.38739 0.014 0.17546 0.0
H1283 H 0.3841 0.04006 0.22925 0.0
H1284 H 0.29981 0.02498 0.2892 0.0
H1285 H 0.27543 0.99074 0.24663 0.0
C1286 C 0.30466 0.9711 0.19074 0.0
C1287 C 0.32346 0.96225 0.16315 0.0
C1288 C 0.31611 0.99467 0.21339 0.0
C1289 C 0.35282 0.97908 0.15784 0.0
C1290 C 0.36411 1.00249 0.17995 0.0
C1291 C 0.35974 0.03043 0.23242 0.0
C1292 C 0.34349 0.03592 0.2622 0.0
C1293 C 0.34646 1.00985 0.20824 0.0
C1294 C 0.31244 0.0222 0.26627 0.0
C1295 C 0.29879 1.00204 0.24206 0.0
H1296 H 0.76951 0.45682 0.4845 0.0
H1297 H 0.71019 0.38981 0.53874 0.0
H1298 H 0.73931 0.40355 0.5886 0.0
H1299 H 0.78674 0.4293 0.61587 0.0
H1300 H 0.84442 0.49849 0.56221 0.0
H1301 H 0.81123 0.48945 0.51403 0.0
C1302 C 0.76194 0.4464 0.50748 0.0
C1303 C 0.737 0.42274 0.50769 0.0
C1304 C 0.77929 0.45419 0.53643 0.0
C1305 C 0.72863 0.40864 0.53778 0.0
C1306 C 0.7457 0.41613 0.56637 0.0
C1307 C 0.79169 0.44289 0.59387 0.0
C1308 C 0.81849 0.46445 0.59312 0.0
C1309 C 0.77191 0.43802 0.56589 0.0
C1310 C 0.82412 0.48179 0.56404 0.0
C1311 C 0.80511 0.47654 0.53615 0.0
H1312 H 0.86955 0.47491 0.79193 0.0
H1313 H 0.81123 0.51696 0.71602 0.0
H1314 H 0.79075 0.5579 0.75445 0.0
H1315 H 0.79425 0.58548 0.80843 0.0
H1316 H 0.85179 0.54192 0.88436 0.0
H1317 H 0.86751 0.49806 0.84739 0.0
C1318 C 0.85149 0.49236 0.784 0.0
C1319 C 0.84162 0.49235 0.75101 0.0
C1320 C 0.84014 0.5161 0.80626 0.0
C1321 C 0.81866 0.51564 0.74124 0.0
C1322 C 0.80736 0.53947 0.76321 0.0
C1323 C 0.80991 0.56618 0.81709 0.0
C1324 C 0.82199 0.56748 0.84941 0.0
C1325 C 0.81866 0.54055 0.79558 0.0
C1326 C 0.84203 0.54188 0.85993 0.0
C1327 C 0.85114 0.51671 0.83864 0.0
H1328 H 0.72957 0.59095 0.11376 0.0
H1329 H 0.6671 0.52317 0.06316 0.0
H1330 H 0.69803 0.53056 0.01375 0.0
H1331 H 0.73912 0.56048 0.98234 0.0
H1332 H 0.8048 0.62527 0.03174 0.0
H1333 H 0.77713 0.61448 0.08348 0.0
C1334 C 0.72307 0.57739 0.09211 0.0
C1335 C 0.69551 0.5567 0.0927 0.0
C1336 C 0.74171 0.58116 0.06314 0.0
C1337 C 0.68792 0.53929 0.06406 0.0
C1338 C 0.70564 0.54353 0.03541 0.0
C1339 C 0.74818 0.57124 1.00465 0.0
C1340 C 0.77445 0.59317 1.00311 0.0
C1341 C 0.73214 0.56486 0.03438 0.0
C1342 C 0.78526 0.60758 0.03224 0.0
C1343 C 0.76903 0.60179 0.06185 0.0
H1344 H 0.73558 0.44247 0.31524 0.0
H1345 H 0.66741 0.48002 0.38565 0.0
H1346 H 0.65209 0.52315 0.34806 0.0
H1347 H 0.65243 0.5458 0.29307 0.0
H1348 H 0.71723 0.50701 0.22063 0.0
H1349 H 0.74015 0.46961 0.2612 0.0
C1350 C 0.71785 0.46047 0.32268 0.0
C1351 C 0.70257 0.45762 0.3535 0.0
C1352 C 0.70854 0.48511 0.30044 0.0
C1353 C 0.6795 0.48124 0.3623 0.0
C1354 C 0.67068 0.50601 0.34071 0.0
C1355 C 0.67238 0.52991 0.28637 0.0
C1356 C 0.68331 0.52957 0.25379 0.0
C1357 C 0.6843 0.50761 0.30944 0.0
C1358 C 0.70884 0.50846 0.24554 0.0
C1359 C 0.7215 0.48662 0.2687 0.0
H1360 H 0.48324 0.22948 0.1146 0.0
H1361 H 0.55453 0.27435 0.05264 0.0
H1362 H 0.51316 0.31132 0.03125 0.0
H1363 H 0.45871 0.33643 0.03646 0.0
H1364 H 0.38731 0.29186 0.09895 0.0
H1365 H 0.4263 0.24945 0.11356 0.0
C1366 C 0.4893 0.24619 0.09513 0.0
C1367 C 0.52192 0.24822 0.08444 0.0
C1368 C 0.46541 0.26826 0.08376 0.0
C1369 C 0.52955 0.27125 0.06039 0.0
C1370 C 0.50593 0.29293 0.04866 0.0
C1371 C 0.45141 0.31713 0.05286 0.0
C1372 C 0.41993 0.3178 0.06679 0.0
C1373 C 0.47408 0.29256 0.06113 0.0
C1374 C 0.41114 0.29226 0.08779 0.0
C1375 C 0.43358 0.26793 0.09627 0.0
H1376 H 0.03299 0.2427 0.95699 0.0
H1377 H 0.98346 0.30482 0.88933 0.0
H1378 H 0.93249 0.27513 0.8988 0.0
H1379 H 0.90385 0.22543 0.92064 0.0
H1380 H 0.95528 0.16527 0.9894 0.0
H1381 H 1.00262 0.20009 0.98556 0.0
C1382 C 0.01069 0.25074 0.94548 0.0
C1383 C 0.01208 0.2766 0.92312 0.0
C1384 C 0.98157 0.23314 0.95067 0.0
C1385 C 0.98304 0.28579 0.90751 0.0
C1386 C 0.9539 0.26832 0.9125 0.0
C1387 C 0.92508 0.22045 0.93538 0.0
C1388 C 0.92578 0.19204 0.95484 0.0
C1389 C 0.95303 0.24104 0.93319 0.0
C1390 C 0.95386 0.18635 0.97368 0.0
C1391 C 0.98121 0.20637 0.97159 0.0
H1392 H 0.9836 0.72978 0.13376 0.0
H1393 H 1.00291 0.79477 0.2137 0.0
H1394 H 0.03575 0.75248 0.24005 0.0
H1395 H 0.06485 0.69968 0.23654 0.0
H1396 H 0.0449 0.63472 0.15656 0.0
H1397 H 1.00618 0.67404 0.13434 0.0
C1398 C 0.99424 0.73441 0.15744 0.0
C1399 C 0.99061 0.76557 0.17176 0.0
C1400 C 0.01337 0.71002 0.17221 0.0
C1401 C 1.00475 0.77107 0.20233 0.0
C1402 C 0.02391 0.74692 0.21718 0.0
C1403 C 0.05152 0.69375 0.21458 0.0
C1404 C 0.05815 0.66409 0.19818 0.0
C1405 C 0.02927 0.71669 0.20183 0.0
C1406 C 0.04039 0.65701 0.16987 0.0
C1407 C 0.01836 0.67971 0.15699 0.0
H1408 H 0.48486 0.7864 0.43925 0.0
H1409 H 0.53854 0.69998 0.41555 0.0
H1410 H 0.58968 0.72764 0.42905 0.0
H1411 H 0.62021 0.77889 0.44335 0.0
H1412 H 0.56483 0.8644 0.46787 0.0
H1413 H 0.51432 0.83529 0.45795 0.0
C1414 C 0.5076 0.7731 0.43854 0.0
C1415 C 0.50737 0.74045 0.42779 0.0
C1416 C 0.53718 0.78964 0.44542 0.0
C1417 C 0.53756 0.72449 0.42518 0.0
C1418 C 0.56703 0.74065 0.43226 0.0
C1419 C 0.59711 0.7911 0.44648 0.0
C1420 C 0.59677 0.8243 0.45586 0.0
C1421 C 0.56737 0.77363 0.4416 0.0
C1422 C 0.56624 0.83922 0.46027 0.0
C1423 C 0.53708 0.82243 0.45482 0.0
H1424 H 0.54494 0.29253 0.6531 0.0
H1425 H 0.50428 0.21868 0.71517 0.0
H1426 H 0.46481 0.25821 0.7363 0.0
H1427 H 0.4376 0.3121 0.73197 0.0
H1428 H 0.47888 0.3857 0.66967 0.0
H1429 H 0.52222 0.34812 0.65395 0.0
C1430 C 0.52816 0.28532 0.67212 0.0
C1431 C 0.52805 0.25256 0.68283 0.0
C1432 C 0.50509 0.3081 0.68359 0.0
C1433 C 0.50567 0.2437 0.70705 0.0
C1434 C 0.48266 0.26628 0.7187 0.0
C1435 C 0.45629 0.32015 0.71523 0.0
C1436 C 0.4545 0.35191 0.70179 0.0
C1437 C 0.48144 0.29828 0.70636 0.0
C1438 C 0.47933 0.36168 0.68043 0.0
C1439 C 0.50417 0.34006 0.67135 0.0
H1440 H 0.03812 0.78285 0.63173 0.0
H1441 H 0.97962 0.76572 0.5468 0.0
H1442 H 0.02313 0.73204 0.52341 0.0
H1443 H 0.075 0.70126 0.53078 0.0
H1444 H 0.13197 0.71809 0.6173 0.0
H1445 H 0.09232 0.75787 0.63604 0.0
C1446 C 0.03541 0.77285 0.60747 0.0
C1447 C 1.00576 0.77769 0.59074 0.0
C1448 C 0.06018 0.75263 0.59473 0.0
C1449 C 1.00237 0.76348 0.55982 0.0
C1450 C 0.02715 0.74365 0.54672 0.0
C1451 C 0.07918 0.71407 0.55344 0.0
C1452 C 0.10682 0.70611 0.57258 0.0
C1453 C 0.05578 0.73709 0.56445 0.0
C1454 C 0.11126 0.72322 0.60193 0.0
C1455 C 0.0884 0.7461 0.61279 0.0
H1456 H 0.48461 0.78329 0.8772 0.0
H1457 H 0.52233 0.71665 0.80585 0.0
H1458 H 0.55738 0.75949 0.78397 0.0
H1459 H 0.58302 0.81336 0.79022 0.0
H1460 H 0.54657 0.88037 0.8621 0.0
H1461 H 0.50534 0.84037 0.87844 0.0
C1462 C 0.49935 0.77866 0.85584 0.0
C1463 C 0.49995 0.74691 0.84248 0.0
C1464 C 0.52041 0.80336 0.84406 0.0
C1465 C 0.52045 0.74098 0.81583 0.0
C1466 C 0.54097 0.76541 0.8037 0.0
C1467 C 0.56573 0.81951 0.80913 0.0
C1468 C 0.56829 0.84994 0.82508 0.0
C1469 C 0.54207 0.79631 0.8184 0.0
C1470 C 0.54534 0.85735 0.84931 0.0
C1471 C 0.52178 0.83432 0.85878 0.0
H1472 H 0.98646 0.15225 0.33297 0.0
H1473 H 0.92086 0.20766 0.27302 0.0
H1474 H 0.95302 0.25651 0.28178 0.0
H1475 H 0.99655 0.28564 0.31143 0.0
H1476 H 0.06395 0.23079 0.3693 0.0
H1477 H 0.03546 0.18032 0.3557 0.0
C1478 C 0.97949 0.17489 0.32148 0.0
C1479 C 0.95091 0.17586 0.30244 0.0
C1480 C 0.99883 0.20336 0.32593 0.0
C1481 C 0.94263 0.2057 0.28767 0.0
C1482 C 0.96108 0.23394 0.29269 0.0
C1483 C 1.00607 0.26247 0.31961 0.0
C1484 C 0.03317 0.26219 0.34058 0.0
C1485 C 0.98899 0.23333 0.31217 0.0
C1486 C 0.04396 0.23181 0.3522 0.0
C1487 C 0.02716 0.20287 0.34496 0.0
H1488 H 0.14047 0.28313 0.43948 0.0
H1489 H 0.04696 0.26563 0.48375 0.0
H1490 H 0.07101 0.22673 0.52097 0.0
H1491 H 0.1192 0.19917 0.54333 0.0
H1492 H 0.21311 0.21898 0.5014 0.0
H1493 H 0.1885 0.25473 0.46112 0.0
C1494 C 0.1254 0.27067 0.45716 0.0
C1495 C 0.09205 0.27761 0.45883 0.0
C1496 C 0.13948 0.24851 0.47912 0.0
C1497 C 0.07285 0.2612 0.48203 0.0
C1498 C 0.08651 0.23873 0.50338 0.0
C1499 C 0.13407 0.21103 0.52508 0.0
C1500 C 0.16781 0.20653 0.52536 0.0
C1501 C 0.11987 0.2324 0.50245 0.0
C1502 C 0.187 0.22229 0.50179 0.0
C1503 C 0.17298 0.24277 0.47873 0.0
H1504 H 0.03314 0.9502 0.76182 0.0
H1505 H 0.08447 0.86666 0.79887 0.0
H1506 H 0.05273 0.8309 0.76375 0.0
H1507 H 0.01189 0.82323 0.72158 0.0
H1508 H 0.961 0.90614 0.68251 0.0
H1509 H 0.99127 0.9422 0.71907 0.0
C1510 C 0.03705 0.92413 0.76245 0.0
C1511 C 0.06111 0.91112 0.78307 0.0
C1512 C 0.0191 0.90361 0.74154 0.0
C1513 C 0.06619 0.87732 0.78324 0.0
C1514 C 0.04809 0.85684 0.7631 0.0
C1515 C 1.00729 0.84919 0.72092 0.0
C1516 C 0.98413 0.86183 0.69911 0.0
C1517 C 0.02477 0.86972 0.74191 0.0
C1518 C 0.97875 0.89563 0.69881 0.0
C1519 C 0.99599 0.91629 0.71985 0.0
H1520 H 0.38209 0.71756 0.96201 0.0
H1521 H 0.46255 0.78405 0.95104 0.0
H1522 H 0.43594 0.82296 0.98715 0.0
H1523 H 0.39003 0.83808 0.02261 0.0
H1524 H 0.31035 0.7707 0.03465 0.0
H1525 H 0.33647 0.73246 0.99774 0.0
C1526 C 0.39368 0.74069 0.96727 0.0
C1527 C 0.42426 0.74782 0.95359 0.0
C1528 C 0.37846 0.76285 0.98856 0.0
C1529 C 0.43906 0.77779 0.96115 0.0
C1530 C 0.42385 0.80012 0.98188 0.0
C1531 C 0.37837 0.81502 0.01724 0.0
C1532 C 0.34813 0.80752 0.03153 0.0
C1533 C 0.39362 0.79286 0.99592 0.0
C1534 C 0.33356 0.77735 0.02416 0.0
C1535 C 0.34847 0.75537 1.00292 0.0
H1536 H 0.50439 0.20365 0.22211 0.0
H1537 H 0.54442 0.11906 0.17444 0.0
H1538 H 0.51266 0.08368 0.20987 0.0
H1539 H 0.47432 0.07646 0.25493 0.0
H1540 H 0.43438 0.16079 0.30308 0.0
H1541 H 0.46542 0.19636 0.26702 0.0
C1542 C 0.50601 0.17748 0.21922 0.0
C1543 C 0.52683 0.16418 0.1954 0.0
C1544 C 0.48785 0.15712 0.23998 0.0
C1545 C 0.52866 0.13013 0.1924 0.0
C1546 C 0.51053 0.1098 0.21275 0.0
C1547 C 0.47239 0.10262 0.2577 0.0
C1548 C 0.45198 0.11578 0.28193 0.0
C1549 C 0.49024 0.123 0.23678 0.0
C1550 C 0.44984 0.14983 0.28481 0.0
C1551 C 0.46759 0.17025 0.26411 0.0
H1552 H 0.57482 0.25663 0.54224 0.0
H1553 H 0.65765 0.21879 0.59395 0.0
H1554 H 0.69421 0.25039 0.55884 0.0
H1555 H 0.70215 0.28884 0.51307 0.0
H1556 H 0.61824 0.32871 0.46472 0.0
H1557 H 0.58236 0.29586 0.49874 0.0
C1558 C 0.60089 0.25518 0.54584 0.0
C1559 C 0.61361 0.23525 0.57044 0.0
C1560 C 0.62145 0.27363 0.52605 0.0
C1561 C 0.64737 0.23407 0.57517 0.0
C1562 C 0.6682 0.25198 0.55504 0.0
C1563 C 0.67601 0.29004 0.50996 0.0
C1564 C 0.66268 0.31083 0.48638 0.0
C1565 C 0.65549 0.27177 0.5303 0.0
C1566 C 0.62886 0.3128 0.48279 0.0
C1567 C 0.60841 0.29408 0.50219 0.0
H1568 H 0.98922 0.43934 0.74532 0.0
H1569 H 0.91792 0.36343 0.7319 0.0
H1570 H 0.94797 0.3284 0.76956 0.0
H1571 H 0.99461 0.31972 0.80684 0.0
H1572 H 0.06404 0.3975 0.82054 0.0
H1573 H 0.03439 0.43132 0.78241 0.0
C1574 C 0.98019 0.41507 0.75039 0.0
C1575 C 0.95135 0.40405 0.7356 0.0
C1576 C 0.9972 0.3954 0.77237 0.0
C1577 C 0.94005 0.37258 0.74288 0.0
C1578 C 0.95721 0.35255 0.76446 0.0
C1579 C 1.00319 0.34409 0.80152 0.0
C1580 C 0.03157 0.35596 0.81674 0.0
C1581 C 0.9858 0.36376 0.77949 0.0
C1582 C 0.04223 0.38767 0.80951 0.0
C1583 C 0.02535 0.40708 0.78754 0.0
H1584 H 0.88112 0.77182 0.08471 0.0
H1585 H 0.95937 0.78418 0.01579 0.0
H1586 H 0.93342 0.7461 0.97878 0.0
H1587 H 0.88861 0.70926 0.96536 0.0
H1588 H 0.8092 0.69764 0.03283 0.0
H1589 H 0.83553 0.73513 0.07079 0.0
C1590 C 0.89247 0.76622 0.06159 0.0
C1591 C 0.92228 0.78093 0.0533 0.0
C1592 C 0.87728 0.74423 0.04006 0.0
C1593 C 0.93649 0.77336 0.02306 0.0
C1594 C 0.9217 0.75145 1.00176 0.0
C1595 C 0.87717 0.7147 0.98848 0.0
C1596 C 0.84707 0.70047 0.99625 0.0
C1597 C 0.89216 0.73668 1.01 0.0
C1598 C 0.83238 0.70823 0.02617 0.0
C1599 C 0.84742 0.72971 0.04792 0.0
H1600 H 0.51078 0.70083 0.29223 0.0
H1601 H 0.46307 0.61804 0.33546 0.0
H1602 H 0.49742 0.58122 0.30373 0.0
H1603 H 0.54079 0.57271 0.26381 0.0
H1604 H 0.59127 0.65521 0.22316 0.0
H1605 H 0.55623 0.69219 0.25408 0.0
C1606 C 0.50782 0.67471 0.2945 0.0
C1607 C 0.48422 0.66205 0.31581 0.0
C1608 C 0.52825 0.65377 0.27688 0.0
C1609 C 0.48103 0.62824 0.31912 0.0
C1610 C 0.50064 0.60724 0.30101 0.0
C1611 C 0.54415 0.5988 0.26171 0.0
C1612 C 0.56844 0.61127 0.24108 0.0
C1613 C 0.52432 0.61975 0.27987 0.0
C1614 C 0.57282 0.64507 0.23898 0.0
C1615 C 0.55269 0.66618 0.25651 0.0
H1616 H 0.25774 0.4773 0.07569 0.0
H1617 H 0.29322 0.42472 0.1591 0.0
H1618 H 0.26152 0.45975 0.19511 0.0
H1619 H 0.22391 0.50567 0.20304 0.0
H1620 H 0.18988 0.559 0.11937 0.0
H1621 H 0.22093 0.5235 0.08361 0.0
C1622 C 0.25836 0.47329 0.10173 0.0
C1623 C 0.2777 0.4482 0.11457 0.0
C1624 C 0.24048 0.49388 0.12238 0.0
C1625 C 0.27851 0.44376 0.14846 0.0
C1626 C 0.26042 0.46384 0.16912 0.0
C1627 C 0.22336 0.50965 0.177 0.0
C1628 C 0.20446 0.5351 0.16408 0.0
C1629 C 0.24141 0.4891 0.15638 0.0
C1630 C 0.20415 0.53974 0.13018 0.0
C1631 C 0.22187 0.51935 0.10959 0.0
H1632 H 0.7856 0.07785 0.87194 0.0
H1633 H 0.75176 0.04883 0.9669 0.0
H1634 H 0.71381 1.01063 0.94228 0.0
H1635 H 0.69055 0.98439 0.89388 0.0
H1636 H 0.72275 0.01449 0.79875 0.0
H1637 H 0.76067 0.05305 0.82328 0.0
C1638 C 0.76986 0.06326 0.88724 0.0
C1639 C 0.7717 0.06636 0.92127 0.0
C1640 C 0.74768 0.04133 0.87289 0.0
C1641 C 0.7509 0.04723 0.94064 0.0
C1642 C 0.72917 0.0252 0.92659 0.0
C1643 C 0.70583 0.9994 0.8785 0.0
C1644 C 0.70376 0.99638 0.84449 0.0
C1645 C 0.72742 0.02189 0.89275 0.0
C1646 C 0.72366 0.01628 0.825 0.0
C1647 C 0.74547 0.03836 0.83901 0.0
H1648 H 0.8186 0.05124 0.39409 0.0
H1649 H 0.79989 1.00454 0.30211 0.0
H1650 H 0.76355 0.96571 0.32826 0.0
H1651 H 0.73569 0.94548 0.37715 0.0
H1652 H 0.7517 0.99423 0.46872 0.0
H1653 H 0.78989 0.03143 0.44305 0.0
C1654 C 0.80671 0.03239 0.37995 0.0
C1655 C 0.81195 0.0308 0.34628 0.0
C1656 C 0.78501 1.01049 0.39504 0.0
C1657 C 0.7961 1.00643 0.3281 0.0
C1658 C 0.7753 0.98415 0.34301 0.0
C1659 C 0.74754 0.96422 0.39146 0.0
C1660 C 0.74065 0.9669 0.4248 0.0
C1661 C 0.76928 0.98606 0.37644 0.0
C1662 C 0.75622 0.99156 0.44292 0.0
C1663 C 0.77827 0.01289 0.42831 0.0
H1664 H 0.30948 0.4646 0.63601 0.0
H1665 H 0.32095 0.5332 0.71465 0.0
H1666 H 0.28369 0.57075 0.68786 0.0
H1667 H 0.24788 0.58444 0.64183 0.0
H1668 H 0.23568 0.51505 0.56388 0.0
H1669 H 0.27285 0.47771 0.59072 0.0
C1670 C 0.30398 0.48784 0.64723 0.0
C1671 C 0.31823 0.49604 0.67726 0.0
C1672 C 0.28218 0.50925 0.63185 0.0
C1673 C 0.31041 0.52615 0.69157 0.0
C1674 C 0.28905 0.5477 0.67625 0.0
C1675 C 0.25323 0.56112 0.63074 0.0
C1676 C 0.23894 0.55281 0.60071 0.0
C1677 C 0.27473 0.53953 0.64638 0.0
C1678 C 0.24623 0.52232 0.58688 0.0
C1679 C 0.26761 0.50086 0.60221 0.0
loop_
_geom_bond_atom_site_label_1
_geom_bond_atom_site_label_2
_geom_bond_distance
_geom_bond_site_symmetry_2
_ccdc_geom_bond_type
Fe0 O2 1.918 . S
Fe0 O5 1.997 1_455 S
Fe0 O6 2.002 . S
Fe0 O11 1.976 . S
Fe0 O14 1.996 1_455 S
Fe1 O2 1.918 . S
Fe1 O9 1.997 . S
Fe1 O12 1.996 . S
Fe1 O16 1.976 . S
Fe1 O19 2.002 . S
O2 Fe0 1.918 . S
O2 Fe1 1.918 . S
O2 Fe3 1.918 . S
Fe3 O2 1.918 . S
Fe3 O4 2.002 . S
Fe3 O13 1.976 1_455 S
Fe3 O17 1.996 . S
Fe3 O20 1.997 . S
O4 Fe3 2.002 . S
O4 C21 1.295 1_455 S
O5 Fe0 1.997 1_655 S
O5 C21 1.235 . S
O6 Fe0 2.002 . S
O6 C7 1.295 . S
C7 O6 1.295 . S
C7 O9 1.235 . S
C8 O13 1.287 . S
C8 O14 1.255 . S
O9 Fe1 1.997 . S
O9 C7 1.235 . S
C10 O16 1.287 . S
C10 O17 1.255 . S
O11 Fe0 1.976 . S
O11 C18 1.287 . S
O12 Fe1 1.996 . S
O12 C18 1.255 . S
O13 Fe3 1.976 1_655 S
O13 C8 1.287 . S
O14 Fe0 1.996 1_655 S
O14 C8 1.255 . S
C15 O19 1.295 . S
C15 O20 1.235 . S
O16 Fe1 1.976 . S
O16 C10 1.287 . S
O17 Fe3 1.996 . S
O17 C10 1.255 . S
C18 O11 1.287 . S
C18 O12 1.255 . S
O19 Fe1 2.002 . S
O19 C15 1.295 . S
O20 Fe3 1.997 . S
O20 C15 1.235 . S
C21 O4 1.295 1_655 S
C21 O5 1.235 . S
Fe22 O24 1.918 . S
Fe22 O27 1.997 . S
Fe22 O28 2.002 . S
Fe22 O33 1.976 . S
Fe22 O36 1.996 . S
Fe23 O24 1.918 . S
Fe23 O31 1.997 . S
Fe23 O34 1.996 . S
Fe23 O38 1.976 . S
Fe23 O41 2.002 . S
O24 Fe22 1.918 . S
O24 Fe23 1.918 . S
O24 Fe25 1.918 . S
Fe25 O24 1.918 . S
Fe25 O26 2.002 . S
Fe25 O35 1.976 . S
Fe25 O39 1.996 . S
Fe25 O42 1.997 . S
O26 Fe25 2.002 . S
O26 C43 1.295 . S
O27 Fe22 1.997 . S
O27 C43 1.235 . S
O28 Fe22 2.002 . S
O28 C29 1.295 . S
C29 O28 1.295 . S
C29 O31 1.235 . S
C30 O35 1.287 . S
C30 O36 1.255 . S
O31 Fe23 1.997 . S
O31 C29 1.235 . S
C32 O38 1.287 . S
C32 O39 1.255 . S
O33 Fe22 1.976 . S
O33 C40 1.287 . S
O34 Fe23 1.996 . S
O34 C40 1.255 . S
O35 Fe25 1.976 . S
O35 C30 1.287 . S
O36 Fe22 1.996 . S
O36 C30 1.255 . S
C37 O41 1.295 . S
C37 O42 1.235 . S
O38 Fe23 1.976 . S
O38 C32 1.287 . S
O39 Fe25 1.996 . S
O39 C32 1.255 . S
C40 O33 1.287 . S
C40 O34 1.255 . S
O41 Fe23 2.002 . S
O41 C37 1.295 . S
O42 Fe25 1.997 . S
O42 C37 1.235 . S
C43 O26 1.295 . S
C43 O27 1.235 . S
Fe44 O46 1.918 . S
Fe44 O49 1.997 . S
Fe44 O50 2.002 . S
Fe44 O55 1.976 . S
Fe44 O58 1.996 . S
Fe45 O46 1.918 . S
Fe45 O53 1.997 . S
Fe45 O56 1.996 . S
Fe45 O60 1.976 . S
Fe45 O63 2.002 . S
O46 Fe44 1.918 . S
O46 Fe45 1.918 . S
O46 Fe47 1.918 . S
Fe47 O46 1.918 . S
Fe47 O48 2.002 . S
Fe47 O57 1.976 . S
Fe47 O61 1.996 . S
Fe47 O64 1.997 . S
O48 Fe47 2.002 . S
O48 C65 1.295 . S
O49 Fe44 1.997 . S
O49 C65 1.235 . S
O50 Fe44 2.002 . S
O50 C51 1.295 . S
C51 O50 1.295 . S
C51 O53 1.235 . S
C52 O57 1.287 . S
C52 O58 1.255 . S
O53 Fe45 1.997 . S
O53 C51 1.235 . S
C54 O60 1.287 . S
C54 O61 1.255 . S
O55 Fe44 1.976 . S
O55 C62 1.287 . S
O56 Fe45 1.996 . S
O56 C62 1.255 . S
O57 Fe47 1.976 . S
O57 C52 1.287 . S
O58 Fe44 1.996 . S
O58 C52 1.255 . S
C59 O63 1.295 . S
C59 O64 1.235 . S
O60 Fe45 1.976 . S
O60 C54 1.287 . S
O61 Fe47 1.996 . S
O61 C54 1.255 . S
C62 O55 1.287 . S
C62 O56 1.255 . S
O63 Fe45 2.002 . S
O63 C59 1.295 . S
O64 Fe47 1.997 . S
O64 C59 1.235 . S
C65 O48 1.295 . S
C65 O49 1.235 . S
Fe66 O68 1.918 . S
Fe66 O71 1.997 . S
Fe66 O72 2.002 . S
Fe66 O77 1.976 . S
Fe66 O80 1.996 . S
Fe67 O68 1.918 . S
Fe67 O75 1.997 . S
Fe67 O78 1.996 . S
Fe67 O82 1.976 . S
Fe67 O85 2.002 . S
O68 Fe66 1.918 . S
O68 Fe67 1.918 . S
O68 Fe69 1.918 . S
Fe69 O68 1.918 . S
Fe69 O70 2.002 . S
Fe69 O79 1.976 . S
Fe69 O83 1.996 . S
Fe69 O86 1.997 . S
O70 Fe69 2.002 . S
O70 C87 1.295 . S
O71 Fe66 1.997 . S
O71 C87 1.235 . S
O72 Fe66 2.002 . S
O72 C73 1.295 . S
C73 O72 1.295 . S
C73 O75 1.235 . S
C74 O79 1.287 . S
C74 O80 1.255 . S
O75 Fe67 1.997 . S
O75 C73 1.235 . S
C76 O82 1.287 . S
C76 O83 1.255 . S
O77 Fe66 1.976 . S
O77 C84 1.287 . S
O78 Fe67 1.996 . S
O78 C84 1.255 . S
O79 Fe69 1.976 . S
O79 C74 1.287 . S
O80 Fe66 1.996 . S
O80 C74 1.255 . S
C81 O85 1.295 . S
C81 O86 1.235 . S
O82 Fe67 1.976 . S
O82 C76 1.287 . S
O83 Fe69 1.996 . S
O83 C76 1.255 . S
C84 O77 1.287 . S
C84 O78 1.255 . S
O85 Fe67 2.002 . S
O85 C81 1.295 . S
O86 Fe69 1.997 . S
O86 C81 1.235 . S
C87 O70 1.295 . S
C87 O71 1.235 . S
Fe88 O90 1.918 . S
Fe88 O93 1.997 . S
Fe88 O94 2.002 . S
Fe88 O99 1.976 . S
Fe88 O102 1.996 . S
Fe89 O90 1.918 . S
Fe89 O97 1.997 . S
Fe89 O100 1.996 . S
Fe89 O104 1.976 . S
Fe89 O107 2.002 . S
O90 Fe88 1.918 . S
O90 Fe89 1.918 . S
O90 Fe91 1.918 . S
Fe91 O90 1.918 . S
Fe91 O92 2.002 . S
Fe91 O101 1.976 . S
Fe91 O105 1.996 . S
Fe91 O108 1.997 . S
O92 Fe91 2.002 . S
O92 C109 1.295 . S
O93 Fe88 1.997 . S
O93 C109 1.235 . S
O94 Fe88 2.002 . S
O94 C95 1.295 . S
C95 O94 1.295 . S
C95 O97 1.235 . S
C96 O101 1.287 . S
C96 O102 1.255 . S
O97 Fe89 1.997 . S
O97 C95 1.235 . S
C98 O104 1.287 . S
C98 O105 1.255 . S
O99 Fe88 1.976 . S
O99 C106 1.287 . S
O100 Fe89 1.996 . S
O100 C106 1.255 . S
O101 Fe91 1.976 . S
O101 C96 1.287 . S
O102 Fe88 1.996 . S
O102 C96 1.255 . S
C103 O107 1.295 . S
C103 O108 1.235 . S
O104 Fe89 1.976 . S
O104 C98 1.287 . S
O105 Fe91 1.996 . S
O105 C98 1.255 . S
C106 O99 1.287 . S
C106 O100 1.255 . S
O107 Fe89 2.002 . S
O107 C103 1.295 . S
O108 Fe91 1.997 . S
O108 C103 1.235 . S
C109 O92 1.295 . S
C109 O93 1.235 . S
Fe110 O112 1.918 . S
Fe110 O115 1.997 . S
Fe110 O116 2.002 . S
Fe110 O121 1.976 . S
Fe110 O124 1.996 . S
Fe111 O112 1.918 . S
Fe111 O119 1.997 . S
Fe111 O122 1.996 . S
Fe111 O126 1.976 . S
Fe111 O129 2.002 . S
O112 Fe110 1.918 . S
O112 Fe111 1.918 . S
O112 Fe113 1.918 . S
Fe113 O112 1.918 . S
Fe113 O114 2.002 . S
Fe113 O123 1.976 . S
Fe113 O127 1.996 . S
Fe113 O130 1.997 . S
O114 Fe113 2.002 . S
O114 C131 1.295 . S
O115 Fe110 1.997 . S
O115 C131 1.235 . S
O116 Fe110 2.002 . S
O116 C117 1.295 . S
C117 O116 1.295 . S
C117 O119 1.235 . S
C118 O123 1.287 . S
C118 O124 1.255 . S
O119 Fe111 1.997 . S
O119 C117 1.235 . S
C120 O126 1.287 . S
C120 O127 1.255 . S
O121 Fe110 1.976 . S
O121 C128 1.287 . S
O122 Fe111 1.996 . S
O122 C128 1.255 . S
O123 Fe113 1.976 . S
O123 C118 1.287 . S
O124 Fe110 1.996 . S
O124 C118 1.255 . S
C125 O129 1.295 . S
C125 O130 1.235 . S
O126 Fe111 1.976 . S
O126 C120 1.287 . S
O127 Fe113 1.996 . S
O127 C120 1.255 . S
C128 O121 1.287 . S
C128 O122 1.255 . S
O129 Fe111 2.002 . S
O129 C125 1.295 . S
O130 Fe113 1.997 . S
O130 C125 1.235 . S
C131 O114 1.295 . S
C131 O115 1.235 . S
Fe132 O134 1.918 . S
Fe132 O137 1.997 . S
Fe132 O138 2.002 . S
Fe132 O143 1.976 1_655 S
Fe132 O146 1.996 . S
Fe133 O134 1.918 . S
Fe133 O141 1.997 1_655 S
Fe133 O144 1.996 1_655 S
Fe133 O148 1.976 . S
Fe133 O151 2.002 . S
O134 Fe132 1.918 . S
O134 Fe133 1.918 . S
O134 Fe135 1.918 . S
Fe135 O134 1.918 . S
Fe135 O136 2.002 . S
Fe135 O145 1.976 . S
Fe135 O149 1.996 . S
Fe135 O152 1.997 . S
O136 Fe135 2.002 . S
O136 C153 1.295 . S
O137 Fe132 1.997 . S
O137 C153 1.235 . S
O138 Fe132 2.002 . S
O138 C139 1.295 1_655 S
C139 O138 1.295 1_455 S
C139 O141 1.235 . S
C140 O145 1.287 . S
C140 O146 1.255 . S
O141 Fe133 1.997 1_455 S
O141 C139 1.235 . S
C142 O148 1.287 . S
C142 O149 1.255 . S
O143 Fe132 1.976 1_455 S
O143 C150 1.287 . S
O144 Fe133 1.996 1_455 S
O144 C150 1.255 . S
O145 Fe135 1.976 . S
O145 C140 1.287 . S
O146 Fe132 1.996 . S
O146 C140 1.255 . S
C147 O151 1.295 . S
C147 O152 1.235 . S
O148 Fe133 1.976 . S
O148 C142 1.287 . S
O149 Fe135 1.996 . S
O149 C142 1.255 . S
C150 O143 1.287 . S
C150 O144 1.255 . S
O151 Fe133 2.002 . S
O151 C147 1.295 . S
O152 Fe135 1.997 . S
O152 C147 1.235 . S
C153 O136 1.295 . S
C153 O137 1.235 . S
Fe154 O156 1.918 . S
Fe154 O159 1.997 . S
Fe154 O160 2.002 . S
Fe154 O165 1.976 . S
Fe154 O168 1.996 . S
Fe155 O156 1.918 . S
Fe155 O163 1.997 . S
Fe155 O166 1.996 . S
Fe155 O170 1.976 . S
Fe155 O173 2.002 . S
O156 Fe154 1.918 . S
O156 Fe155 1.918 . S
O156 Fe157 1.918 . S
Fe157 O156 1.918 . S
Fe157 O158 2.002 . S
Fe157 O167 1.976 . S
Fe157 O171 1.996 . S
Fe157 O174 1.997 . S
O158 Fe157 2.002 . S
O158 C175 1.295 . S
O159 Fe154 1.997 . S
O159 C175 1.235 . S
O160 Fe154 2.002 . S
O160 C161 1.295 . S
C161 O160 1.295 . S
C161 O163 1.235 . S
C162 O167 1.287 . S
C162 O168 1.255 . S
O163 Fe155 1.997 . S
O163 C161 1.235 . S
C164 O170 1.287 . S
C164 O171 1.255 . S
O165 Fe154 1.976 . S
O165 C172 1.287 . S
O166 Fe155 1.996 . S
O166 C172 1.255 . S
O167 Fe157 1.976 . S
O167 C162 1.287 . S
O168 Fe154 1.996 . S
O168 C162 1.255 . S
C169 O173 1.295 . S
C169 O174 1.235 . S
O170 Fe155 1.976 . S
O170 C164 1.287 . S
O171 Fe157 1.996 . S
O171 C164 1.255 . S
C172 O165 1.287 . S
C172 O166 1.255 . S
O173 Fe155 2.002 . S
O173 C169 1.295 . S
O174 Fe157 1.997 . S
O174 C169 1.235 . S
C175 O158 1.295 . S
C175 O159 1.235 . S
Fe176 O178 1.918 . S
Fe176 O181 1.997 . S
Fe176 O182 2.002 . S
Fe176 O187 1.976 1_545 S
Fe176 O190 1.996 . S
Fe177 O178 1.918 . S
Fe177 O185 1.997 1_545 S
Fe177 O188 1.996 1_545 S
Fe177 O192 1.976 . S
Fe177 O195 2.002 . S
O178 Fe176 1.918 . S
O178 Fe177 1.918 . S
O178 Fe179 1.918 . S
Fe179 O178 1.918 . S
Fe179 O180 2.002 . S
Fe179 O189 1.976 . S
Fe179 O193 1.996 . S
Fe179 O196 1.997 . S
O180 Fe179 2.002 . S
O180 C197 1.295 . S
O181 Fe176 1.997 . S
O181 C197 1.235 . S
O182 Fe176 2.002 . S
O182 C183 1.295 1_545 S
C183 O182 1.295 1_565 S
C183 O185 1.235 . S
C184 O189 1.287 . S
C184 O190 1.255 . S
O185 Fe177 1.997 1_565 S
O185 C183 1.235 . S
C186 O192 1.287 . S
C186 O193 1.255 . S
O187 Fe176 1.976 1_565 S
O187 C194 1.287 . S
O188 Fe177 1.996 1_565 S
O188 C194 1.255 . S
O189 Fe179 1.976 . S
O189 C184 1.287 . S
O190 Fe176 1.996 . S
O190 C184 1.255 . S
C191 O195 1.295 . S
C191 O196 1.235 . S
O192 Fe177 1.976 . S
O192 C186 1.287 . S
O193 Fe179 1.996 . S
O193 C186 1.255 . S
C194 O187 1.287 . S
C194 O188 1.255 . S
O195 Fe177 2.002 . S
O195 C191 1.295 . S
O196 Fe179 1.997 . S
O196 C191 1.235 . S
C197 O180 1.295 . S
C197 O181 1.235 . S
Fe198 O200 1.918 . S
Fe198 O203 1.997 . S
Fe198 O204 2.002 . S
Fe198 O209 1.976 . S
Fe198 O212 1.996 . S
Fe199 O200 1.918 . S
Fe199 O207 1.997 . S
Fe199 O210 1.996 . S
Fe199 O214 1.976 . S
Fe199 O217 2.002 . S
O200 Fe198 1.918 . S
O200 Fe199 1.918 . S
O200 Fe201 1.918 . S
Fe201 O200 1.918 . S
Fe201 O202 2.002 . S
Fe201 O211 1.976 . S
Fe201 O215 1.996 . S
Fe201 O218 1.997 . S
O202 Fe201 2.002 . S
O202 C219 1.295 . S
O203 Fe198 1.997 . S
O203 C219 1.235 . S
O204 Fe198 2.002 . S
O204 C205 1.295 . S
C205 O204 1.295 . S
C205 O207 1.235 . S
C206 O211 1.287 . S
C206 O212 1.255 . S
O207 Fe199 1.997 . S
O207 C205 1.235 . S
C208 O214 1.287 . S
C208 O215 1.255 . S
O209 Fe198 1.976 . S
O209 C216 1.287 . S
O210 Fe199 1.996 . S
O210 C216 1.255 . S
O211 Fe201 1.976 . S
O211 C206 1.287 . S
O212 Fe198 1.996 . S
O212 C206 1.255 . S
C213 O217 1.295 . S
C213 O218 1.235 . S
O214 Fe199 1.976 . S
O214 C208 1.287 . S
O215 Fe201 1.996 . S
O215 C208 1.255 . S
C216 O209 1.287 . S
C216 O210 1.255 . S
O217 Fe199 2.002 . S
O217 C213 1.295 . S
O218 Fe201 1.997 . S
O218 C213 1.235 . S
C219 O202 1.295 . S
C219 O203 1.235 . S
Fe220 O222 1.918 . S
Fe220 O225 1.997 1_565 S
Fe220 O226 2.002 . S
Fe220 O231 1.976 . S
Fe220 O234 1.996 1_565 S
Fe221 O222 1.918 . S
Fe221 O229 1.997 . S
Fe221 O232 1.996 . S
Fe221 O236 1.976 . S
Fe221 O239 2.002 . S
O222 Fe220 1.918 . S
O222 Fe221 1.918 . S
O222 Fe223 1.918 . S
Fe223 O222 1.918 . S
Fe223 O224 2.002 . S
Fe223 O233 1.976 1_565 S
Fe223 O237 1.996 . S
Fe223 O240 1.997 . S
O224 Fe223 2.002 . S
O224 C241 1.295 1_565 S
O225 Fe220 1.997 1_545 S
O225 C241 1.235 . S
O226 Fe220 2.002 . S
O226 C227 1.295 . S
C227 O226 1.295 . S
C227 O229 1.235 . S
C228 O233 1.287 . S
C228 O234 1.255 . S
O229 Fe221 1.997 . S
O229 C227 1.235 . S
C230 O236 1.287 . S
C230 O237 1.255 . S
O231 Fe220 1.976 . S
O231 C238 1.287 . S
O232 Fe221 1.996 . S
O232 C238 1.255 . S
O233 Fe223 1.976 1_545 S
O233 C228 1.287 . S
O234 Fe220 1.996 1_545 S
O234 C228 1.255 . S
C235 O239 1.295 . S
C235 O240 1.235 . S
O236 Fe221 1.976 . S
O236 C230 1.287 . S
O237 Fe223 1.996 . S
O237 C230 1.255 . S
C238 O231 1.287 . S
C238 O232 1.255 . S
O239 Fe221 2.002 . S
O239 C235 1.295 . S
O240 Fe223 1.997 . S
O240 C235 1.235 . S
C241 O224 1.295 1_545 S
C241 O225 1.235 . S
Fe242 O244 1.918 . S
Fe242 O247 1.997 . S
Fe242 O248 2.002 . S
Fe242 O253 1.976 . S
Fe242 O256 1.996 . S
Fe243 O244 1.918 . S
Fe243 O251 1.997 . S
Fe243 O254 1.996 . S
Fe243 O258 1.976 . S
Fe243 O261 2.002 . S
O244 Fe242 1.918 . S
O244 Fe243 1.918 . S
O244 Fe245 1.918 . S
Fe245 O244 1.918 . S
Fe245 O246 2.002 . S
Fe245 O255 1.976 . S
Fe245 O259 1.996 . S
Fe245 O262 1.997 . S
O246 Fe245 2.002 . S
O246 C263 1.295 . S
O247 Fe242 1.997 . S
O247 C263 1.235 . S
O248 Fe242 2.002 . S
O248 C249 1.295 . S
C249 O248 1.295 . S
C249 O251 1.235 . S
C250 O255 1.287 . S
C250 O256 1.255 . S
O251 Fe243 1.997 . S
O251 C249 1.235 . S
C252 O258 1.287 . S
C252 O259 1.255 . S
O253 Fe242 1.976 . S
O253 C260 1.287 . S
O254 Fe243 1.996 . S
O254 C260 1.255 . S
O255 Fe245 1.976 . S
O255 C250 1.287 . S
O256 Fe242 1.996 . S
O256 C250 1.255 . S
C257 O261 1.295 . S
C257 O262 1.235 . S
O258 Fe243 1.976 . S
O258 C252 1.287 . S
O259 Fe245 1.996 . S
O259 C252 1.255 . S
C260 O253 1.287 . S
C260 O254 1.255 . S
O261 Fe243 2.002 . S
O261 C257 1.295 . S
O262 Fe245 1.997 . S
O262 C257 1.235 . S
C263 O246 1.295 . S
C263 O247 1.235 . S
Fe264 O266 1.918 . S
Fe264 O269 1.997 . S
Fe264 O270 2.002 . S
Fe264 O275 1.976 . S
Fe264 O278 1.996 . S
Fe265 O266 1.918 . S
Fe265 O273 1.997 . S
Fe265 O276 1.996 . S
Fe265 O280 1.976 . S
Fe265 O283 2.002 . S
O266 Fe264 1.918 . S
O266 Fe265 1.918 . S
O266 Fe267 1.918 . S
Fe267 O266 1.918 . S
Fe267 O268 2.002 . S
Fe267 O277 1.976 . S
Fe267 O281 1.996 . S
Fe267 O284 1.997 . S
O268 Fe267 2.002 . S
O268 C285 1.295 . S
O269 Fe264 1.997 . S
O269 C285 1.235 . S
O270 Fe264 2.002 . S
O270 C271 1.295 . S
C271 O270 1.295 . S
C271 O273 1.235 . S
C272 O277 1.287 . S
C272 O278 1.255 . S
O273 Fe265 1.997 . S
O273 C271 1.235 . S
C274 O280 1.287 . S
C274 O281 1.255 . S
O275 Fe264 1.976 . S
O275 C282 1.287 . S
O276 Fe265 1.996 . S
O276 C282 1.255 . S
O277 Fe267 1.976 . S
O277 C272 1.287 . S
O278 Fe264 1.996 . S
O278 C272 1.255 . S
C279 O283 1.295 . S
C279 O284 1.235 . S
O280 Fe265 1.976 . S
O280 C274 1.287 . S
O281 Fe267 1.996 . S
O281 C274 1.255 . S
C282 O275 1.287 . S
C282 O276 1.255 . S
O283 Fe265 2.002 . S
O283 C279 1.295 . S
O284 Fe267 1.997 . S
O284 C279 1.235 . S
C285 O268 1.295 . S
C285 O269 1.235 . S
Fe286 O288 1.918 . S
Fe286 O291 1.997 . S
Fe286 O292 2.002 . S
Fe286 O297 1.976 . S
Fe286 O300 1.996 . S
Fe287 O288 1.918 . S
Fe287 O295 1.997 . S
Fe287 O298 1.996 . S
Fe287 O302 1.976 . S
Fe287 O305 2.002 . S
O288 Fe286 1.918 . S
O288 Fe287 1.918 . S
O288 Fe289 1.918 . S
Fe289 O288 1.918 . S
Fe289 O290 2.002 . S
Fe289 O299 1.976 . S
Fe289 O303 1.996 . S
Fe289 O306 1.997 . S
O290 Fe289 2.002 . S
O290 C307 1.295 . S
O291 Fe286 1.997 . S
O291 C307 1.235 . S
O292 Fe286 2.002 . S
O292 C293 1.295 . S
C293 O292 1.295 . S
C293 O295 1.235 . S
C294 O299 1.287 . S
C294 O300 1.255 . S
O295 Fe287 1.997 . S
O295 C293 1.235 . S
C296 O302 1.287 . S
C296 O303 1.255 . S
O297 Fe286 1.976 . S
O297 C304 1.287 . S
O298 Fe287 1.996 . S
O298 C304 1.255 . S
O299 Fe289 1.976 . S
O299 C294 1.287 . S
O300 Fe286 1.996 . S
O300 C294 1.255 . S
C301 O305 1.295 . S
C301 O306 1.235 . S
O302 Fe287 1.976 . S
O302 C296 1.287 . S
O303 Fe289 1.996 . S
O303 C296 1.255 . S
C304 O297 1.287 . S
C304 O298 1.255 . S
O305 Fe287 2.002 . S
O305 C301 1.295 . S
O306 Fe289 1.997 . S
O306 C301 1.235 . S
C307 O290 1.295 . S
C307 O291 1.235 . S
Fe308 O310 1.918 . S
Fe308 O313 1.997 . S
Fe308 O314 2.002 . S
Fe308 O319 1.976 . S
Fe308 O322 1.996 . S
Fe309 O310 1.918 . S
Fe309 O317 1.997 . S
Fe309 O320 1.996 . S
Fe309 O324 1.976 . S
Fe309 O327 2.002 . S
O310 Fe308 1.918 . S
O310 Fe309 1.918 . S
O310 Fe311 1.918 . S
Fe311 O310 1.918 . S
Fe311 O312 2.002 . S
Fe311 O321 1.976 . S
Fe311 O325 1.996 . S
Fe311 O328 1.997 . S
O312 Fe311 2.002 . S
O312 C329 1.295 . S
O313 Fe308 1.997 . S
O313 C329 1.235 . S
O314 Fe308 2.002 . S
O314 C315 1.295 . S
C315 O314 1.295 . S
C315 O317 1.235 . S
C316 O321 1.287 . S
C316 O322 1.255 . S
O317 Fe309 1.997 . S
O317 C315 1.235 . S
C318 O324 1.287 . S
C318 O325 1.255 . S
O319 Fe308 1.976 . S
O319 C326 1.287 . S
O320 Fe309 1.996 . S
O320 C326 1.255 . S
O321 Fe311 1.976 . S
O321 C316 1.287 . S
O322 Fe308 1.996 . S
O322 C316 1.255 . S
C323 O327 1.295 . S
C323 O328 1.235 . S
O324 Fe309 1.976 . S
O324 C318 1.287 . S
O325 Fe311 1.996 . S
O325 C318 1.255 . S
C326 O319 1.287 . S
C326 O320 1.255 . S
O327 Fe309 2.002 . S
O327 C323 1.295 . S
O328 Fe311 1.997 . S
O328 C323 1.235 . S
C329 O312 1.295 . S
C329 O313 1.235 . S
Fe330 O332 1.918 . S
Fe330 O335 1.997 . S
Fe330 O336 2.002 . S
Fe330 O341 1.976 . S
Fe330 O344 1.996 . S
Fe331 O332 1.918 . S
Fe331 O339 1.997 . S
Fe331 O342 1.996 . S
Fe331 O346 1.976 . S
Fe331 O349 2.002 . S
O332 Fe330 1.918 . S
O332 Fe331 1.918 . S
O332 Fe333 1.918 . S
Fe333 O332 1.918 . S
Fe333 O334 2.002 . S
Fe333 O343 1.976 . S
Fe333 O347 1.996 . S
Fe333 O350 1.997 . S
O334 Fe333 2.002 . S
O334 C351 1.295 . S
O335 Fe330 1.997 . S
O335 C351 1.235 . S
O336 Fe330 2.002 . S
O336 C337 1.295 . S
C337 O336 1.295 . S
C337 O339 1.235 . S
C338 O343 1.287 . S
C338 O344 1.255 . S
O339 Fe331 1.997 . S
O339 C337 1.235 . S
C340 O346 1.287 . S
C340 O347 1.255 . S
O341 Fe330 1.976 . S
O341 C348 1.287 . S
O342 Fe331 1.996 . S
O342 C348 1.255 . S
O343 Fe333 1.976 . S
O343 C338 1.287 . S
O344 Fe330 1.996 . S
O344 C338 1.255 . S
C345 O349 1.295 . S
C345 O350 1.235 . S
O346 Fe331 1.976 . S
O346 C340 1.287 . S
O347 Fe333 1.996 . S
O347 C340 1.255 . S
C348 O341 1.287 . S
C348 O342 1.255 . S
O349 Fe331 2.002 . S
O349 C345 1.295 . S
O350 Fe333 1.997 . S
O350 C345 1.235 . S
C351 O334 1.295 . S
C351 O335 1.235 . S
Fe352 O354 1.918 . S
Fe352 O357 1.997 . S
Fe352 O358 2.002 . S
Fe352 O363 1.976 . S
Fe352 O366 1.996 . S
Fe353 O354 1.918 . S
Fe353 O361 1.997 . S
Fe353 O364 1.996 . S
Fe353 O368 1.976 1_554 S
Fe353 O371 2.002 . S
O354 Fe352 1.918 . S
O354 Fe353 1.918 . S
O354 Fe355 1.918 . S
Fe355 O354 1.918 . S
Fe355 O356 2.002 . S
Fe355 O365 1.976 . S
Fe355 O369 1.996 1_554 S
Fe355 O372 1.997 1_554 S
O356 Fe355 2.002 . S
O356 C373 1.295 . S
O357 Fe352 1.997 . S
O357 C373 1.235 . S
O358 Fe352 2.002 . S
O358 C359 1.295 . S
C359 O358 1.295 . S
C359 O361 1.235 . S
C360 O365 1.287 . S
C360 O366 1.255 . S
O361 Fe353 1.997 . S
O361 C359 1.235 . S
C362 O368 1.287 . S
C362 O369 1.255 . S
O363 Fe352 1.976 . S
O363 C370 1.287 . S
O364 Fe353 1.996 . S
O364 C370 1.255 . S
O365 Fe355 1.976 . S
O365 C360 1.287 . S
O366 Fe352 1.996 . S
O366 C360 1.255 . S
C367 O371 1.295 1_556 S
C367 O372 1.235 . S
O368 Fe353 1.976 1_556 S
O368 C362 1.287 . S
O369 Fe355 1.996 1_556 S
O369 C362 1.255 . S
C370 O363 1.287 . S
C370 O364 1.255 . S
O371 Fe353 2.002 . S
O371 C367 1.295 1_554 S
O372 Fe355 1.997 1_556 S
O372 C367 1.235 . S
C373 O356 1.295 . S
C373 O357 1.235 . S
Fe374 O376 1.918 . S
Fe374 O379 1.997 1_556 S
Fe374 O380 2.002 . S
Fe374 O385 1.976 . S
Fe374 O388 1.996 1_556 S
Fe375 O376 1.918 . S
Fe375 O383 1.997 . S
Fe375 O386 1.996 . S
Fe375 O390 1.976 . S
Fe375 O393 2.002 . S
O376 Fe374 1.918 . S
O376 Fe375 1.918 . S
O376 Fe377 1.918 . S
Fe377 O376 1.918 . S
Fe377 O378 2.002 . S
Fe377 O387 1.976 1_556 S
Fe377 O391 1.996 . S
Fe377 O394 1.997 . S
O378 Fe377 2.002 . S
O378 C395 1.295 1_556 S
O379 Fe374 1.997 1_554 S
O379 C395 1.235 . S
O380 Fe374 2.002 . S
O380 C381 1.295 . S
C381 O380 1.295 . S
C381 O383 1.235 . S
C382 O387 1.287 . S
C382 O388 1.255 . S
O383 Fe375 1.997 . S
O383 C381 1.235 . S
C384 O390 1.287 . S
C384 O391 1.255 . S
O385 Fe374 1.976 . S
O385 C392 1.287 . S
O386 Fe375 1.996 . S
O386 C392 1.255 . S
O387 Fe377 1.976 1_554 S
O387 C382 1.287 . S
O388 Fe374 1.996 1_554 S
O388 C382 1.255 . S
C389 O393 1.295 . S
C389 O394 1.235 . S
O390 Fe375 1.976 . S
O390 C384 1.287 . S
O391 Fe377 1.996 . S
O391 C384 1.255 . S
C392 O385 1.287 . S
C392 O386 1.255 . S
O393 Fe375 2.002 . S
O393 C389 1.295 . S
O394 Fe377 1.997 . S
O394 C389 1.235 . S
C395 O378 1.295 1_554 S
C395 O379 1.235 . S
Fe396 O398 1.918 . S
Fe396 O401 1.997 . S
Fe396 O402 2.002 . S
Fe396 O407 1.976 . S
Fe396 O410 1.996 . S
Fe397 O398 1.918 . S
Fe397 O405 1.997 . S
Fe397 O408 1.996 . S
Fe397 O412 1.976 . S
Fe397 O415 2.002 . S
O398 Fe396 1.918 . S
O398 Fe397 1.918 . S
O398 Fe399 1.918 . S
Fe399 O398 1.918 . S
Fe399 O400 2.002 . S
Fe399 O409 1.976 . S
Fe399 O413 1.996 . S
Fe399 O416 1.997 . S
O400 Fe399 2.002 . S
O400 C417 1.295 . S
O401 Fe396 1.997 . S
O401 C417 1.235 . S
O402 Fe396 2.002 . S
O402 C403 1.295 . S
C403 O402 1.295 . S
C403 O405 1.235 . S
C404 O409 1.287 . S
C404 O410 1.255 . S
O405 Fe397 1.997 . S
O405 C403 1.235 . S
C406 O412 1.287 . S
C406 O413 1.255 . S
O407 Fe396 1.976 . S
O407 C414 1.287 . S
O408 Fe397 1.996 . S
O408 C414 1.255 . S
O409 Fe399 1.976 . S
O409 C404 1.287 . S
O410 Fe396 1.996 . S
O410 C404 1.255 . S
C411 O415 1.295 . S
C411 O416 1.235 . S
O412 Fe397 1.976 . S
O412 C406 1.287 . S
O413 Fe399 1.996 . S
O413 C406 1.255 . S
C414 O407 1.287 . S
C414 O408 1.255 . S
O415 Fe397 2.002 . S
O415 C411 1.295 . S
O416 Fe399 1.997 . S
O416 C411 1.235 . S
C417 O400 1.295 . S
C417 O401 1.235 . S
Fe418 O420 1.918 . S
Fe418 O423 1.997 . S
Fe418 O424 2.002 . S
Fe418 O429 1.976 . S
Fe418 O432 1.996 . S
Fe419 O420 1.918 . S
Fe419 O427 1.997 . S
Fe419 O430 1.996 . S
Fe419 O434 1.976 . S
Fe419 O437 2.002 . S
O420 Fe418 1.918 . S
O420 Fe419 1.918 . S
O420 Fe421 1.918 . S
Fe421 O420 1.918 . S
Fe421 O422 2.002 . S
Fe421 O431 1.976 . S
Fe421 O435 1.996 . S
Fe421 O438 1.997 . S
O422 Fe421 2.002 . S
O422 C439 1.295 . S
O423 Fe418 1.997 . S
O423 C439 1.235 . S
O424 Fe418 2.002 . S
O424 C425 1.295 . S
C425 O424 1.295 . S
C425 O427 1.235 . S
C426 O431 1.287 . S
C426 O432 1.255 . S
O427 Fe419 1.997 . S
O427 C425 1.235 . S
C428 O434 1.287 . S
C428 O435 1.255 . S
O429 Fe418 1.976 . S
O429 C436 1.287 . S
O430 Fe419 1.996 . S
O430 C436 1.255 . S
O431 Fe421 1.976 . S
O431 C426 1.287 . S
O432 Fe418 1.996 . S
O432 C426 1.255 . S
C433 O437 1.295 . S
C433 O438 1.235 . S
O434 Fe419 1.976 . S
O434 C428 1.287 . S
O435 Fe421 1.996 . S
O435 C428 1.255 . S
C436 O429 1.287 . S
C436 O430 1.255 . S
O437 Fe419 2.002 . S
O437 C433 1.295 . S
O438 Fe421 1.997 . S
O438 C433 1.235 . S
C439 O422 1.295 . S
C439 O423 1.235 . S
Fe440 O442 1.918 . S
Fe440 O445 1.997 . S
Fe440 O446 2.002 . S
Fe440 O451 1.976 . S
Fe440 O454 1.996 . S
Fe441 O442 1.918 . S
Fe441 O449 1.997 . S
Fe441 O452 1.996 . S
Fe441 O456 1.976 . S
Fe441 O459 2.002 . S
O442 Fe440 1.918 . S
O442 Fe441 1.918 . S
O442 Fe443 1.918 . S
Fe443 O442 1.918 . S
Fe443 O444 2.002 . S
Fe443 O453 1.976 . S
Fe443 O457 1.996 . S
Fe443 O460 1.997 . S
O444 Fe443 2.002 . S
O444 C461 1.295 . S
O445 Fe440 1.997 . S
O445 C461 1.235 . S
O446 Fe440 2.002 . S
O446 C447 1.295 . S
C447 O446 1.295 . S
C447 O449 1.235 . S
C448 O453 1.287 . S
C448 O454 1.255 . S
O449 Fe441 1.997 . S
O449 C447 1.235 . S
C450 O456 1.287 . S
C450 O457 1.255 . S
O451 Fe440 1.976 . S
O451 C458 1.287 . S
O452 Fe441 1.996 . S
O452 C458 1.255 . S
O453 Fe443 1.976 . S
O453 C448 1.287 . S
O454 Fe440 1.996 . S
O454 C448 1.255 . S
C455 O459 1.295 . S
C455 O460 1.235 . S
O456 Fe441 1.976 . S
O456 C450 1.287 . S
O457 Fe443 1.996 . S
O457 C450 1.255 . S
C458 O451 1.287 . S
C458 O452 1.255 . S
O459 Fe441 2.002 . S
O459 C455 1.295 . S
O460 Fe443 1.997 . S
O460 C455 1.235 . S
C461 O444 1.295 . S
C461 O445 1.235 . S
Fe462 O464 1.918 . S
Fe462 O467 1.997 . S
Fe462 O468 2.002 . S
Fe462 O473 1.976 . S
Fe462 O476 1.996 . S
Fe463 O464 1.918 . S
Fe463 O471 1.997 . S
Fe463 O474 1.996 . S
Fe463 O478 1.976 . S
Fe463 O481 2.002 . S
O464 Fe462 1.918 . S
O464 Fe463 1.918 . S
O464 Fe465 1.918 . S
Fe465 O464 1.918 . S
Fe465 O466 2.002 . S
Fe465 O475 1.976 . S
Fe465 O479 1.996 . S
Fe465 O482 1.997 . S
O466 Fe465 2.002 . S
O466 C483 1.295 . S
O467 Fe462 1.997 . S
O467 C483 1.235 . S
O468 Fe462 2.002 . S
O468 C469 1.295 . S
C469 O468 1.295 . S
C469 O471 1.235 . S
C470 O475 1.287 . S
C470 O476 1.255 . S
O471 Fe463 1.997 . S
O471 C469 1.235 . S
C472 O478 1.287 . S
C472 O479 1.255 . S
O473 Fe462 1.976 . S
O473 C480 1.287 . S
O474 Fe463 1.996 . S
O474 C480 1.255 . S
O475 Fe465 1.976 . S
O475 C470 1.287 . S
O476 Fe462 1.996 . S
O476 C470 1.255 . S
C477 O481 1.295 . S
C477 O482 1.235 . S
O478 Fe463 1.976 . S
O478 C472 1.287 . S
O479 Fe465 1.996 . S
O479 C472 1.255 . S
C480 O473 1.287 . S
C480 O474 1.255 . S
O481 Fe463 2.002 . S
O481 C477 1.295 . S
O482 Fe465 1.997 . S
O482 C477 1.235 . S
C483 O466 1.295 . S
C483 O467 1.235 . S
Fe484 O486 1.918 . S
Fe484 O489 1.997 . S
Fe484 O490 2.002 . S
Fe484 O495 1.976 . S
Fe484 O498 1.996 . S
Fe485 O486 1.918 . S
Fe485 O493 1.997 . S
Fe485 O496 1.996 . S
Fe485 O500 1.976 . S
Fe485 O503 2.002 . S
O486 Fe484 1.918 . S
O486 Fe485 1.918 . S
O486 Fe487 1.918 . S
Fe487 O486 1.918 . S
Fe487 O488 2.002 . S
Fe487 O497 1.976 . S
Fe487 O501 1.996 . S
Fe487 O504 1.997 . S
O488 Fe487 2.002 . S
O488 C505 1.295 . S
O489 Fe484 1.997 . S
O489 C505 1.235 . S
O490 Fe484 2.002 . S
O490 C491 1.295 . S
C491 O490 1.295 . S
C491 O493 1.235 . S
C492 O497 1.287 . S
C492 O498 1.255 . S
O493 Fe485 1.997 . S
O493 C491 1.235 . S
C494 O500 1.287 . S
C494 O501 1.255 . S
O495 Fe484 1.976 . S
O495 C502 1.287 . S
O496 Fe485 1.996 . S
O496 C502 1.255 . S
O497 Fe487 1.976 . S
O497 C492 1.287 . S
O498 Fe484 1.996 . S
O498 C492 1.255 . S
C499 O503 1.295 . S
C499 O504 1.235 . S
O500 Fe485 1.976 . S
O500 C494 1.287 . S
O501 Fe487 1.996 . S
O501 C494 1.255 . S
C502 O495 1.287 . S
C502 O496 1.255 . S
O503 Fe485 2.002 . S
O503 C499 1.295 . S
O504 Fe487 1.997 . S
O504 C499 1.235 . S
C505 O488 1.295 . S
C505 O489 1.235 . S
Fe506 O508 1.918 . S
Fe506 O511 1.997 . S
Fe506 O512 2.002 . S
Fe506 O517 1.976 . S
Fe506 O520 1.996 . S
Fe507 O508 1.918 . S
Fe507 O515 1.997 . S
Fe507 O518 1.996 . S
Fe507 O522 1.976 . S
Fe507 O525 2.002 . S
O508 Fe506 1.918 . S
O508 Fe507 1.918 . S
O508 Fe509 1.918 . S
Fe509 O508 1.918 . S
Fe509 O510 2.002 . S
Fe509 O519 1.976 . S
Fe509 O523 1.996 . S
Fe509 O526 1.997 . S
O510 Fe509 2.002 . S
O510 C527 1.295 . S
O511 Fe506 1.997 . S
O511 C527 1.235 . S
O512 Fe506 2.002 . S
O512 C513 1.295 . S
C513 O512 1.295 . S
C513 O515 1.235 . S
C514 O519 1.287 . S
C514 O520 1.255 . S
O515 Fe507 1.997 . S
O515 C513 1.235 . S
C516 O522 1.287 . S
C516 O523 1.255 . S
O517 Fe506 1.976 . S
O517 C524 1.287 . S
O518 Fe507 1.996 . S
O518 C524 1.255 . S
O519 Fe509 1.976 . S
O519 C514 1.287 . S
O520 Fe506 1.996 . S
O520 C514 1.255 . S
C521 O525 1.295 . S
C521 O526 1.235 . S
O522 Fe507 1.976 . S
O522 C516 1.287 . S
O523 Fe509 1.996 . S
O523 C516 1.255 . S
C524 O517 1.287 . S
C524 O518 1.255 . S
O525 Fe507 2.002 . S
O525 C521 1.295 . S
O526 Fe509 1.997 . S
O526 C521 1.235 . S
C527 O510 1.295 . S
C527 O511 1.235 . S
H528 C534 0.930 . S
H529 C537 0.930 . S
H530 C538 0.930 . S
H531 C539 0.930 . S
H532 C542 0.930 . S
H533 C543 0.930 . S
C534 H528 0.930 . S
C534 C535 1.355 . S
C534 C536 1.415 . S
C535 C534 1.355 . S
C535 C537 1.419 . S
C536 C534 1.415 . S
C536 C541 1.425 . S
C536 C543 1.409 . S
C537 H529 0.930 . S
C537 C535 1.419 . S
C537 C538 1.362 . S
C538 H530 0.930 . S
C538 C537 1.362 . S
C538 C541 1.409 . S
C539 H531 0.930 . S
C539 C540 1.355 . S
C539 C541 1.415 . S
C540 C539 1.355 . S
C540 C542 1.419 . S
C541 C536 1.425 . S
C541 C538 1.409 . S
C541 C539 1.415 . S
C542 H532 0.930 . S
C542 C540 1.419 . S
C542 C543 1.362 . S
C543 H533 0.930 . S
C543 C536 1.409 . S
C543 C542 1.362 . S
H544 C550 0.930 . S
H545 C553 0.930 . S
H546 C554 0.930 . S
H547 C555 0.930 . S
H548 C558 0.930 . S
H549 C559 0.930 . S
C550 H544 0.930 . S
C550 C551 1.355 . S
C550 C552 1.415 . S
C551 C550 1.355 . S
C551 C553 1.419 . S
C552 C550 1.415 . S
C552 C557 1.425 . S
C552 C559 1.409 . S
C553 H545 0.930 . S
C553 C551 1.419 . S
C553 C554 1.362 . S
C554 H546 0.930 . S
C554 C553 1.362 . S
C554 C557 1.409 . S
C555 H547 0.930 . S
C555 C556 1.355 . S
C555 C557 1.415 . S
C556 C555 1.355 . S
C556 C558 1.419 . S
C557 C552 1.425 . S
C557 C554 1.409 . S
C557 C555 1.415 . S
C558 H548 0.930 . S
C558 C556 1.419 . S
C558 C559 1.362 . S
C559 H549 0.930 . S
C559 C552 1.409 . S
C559 C558 1.362 . S
H560 C566 0.930 . S
H561 C569 0.930 . S
H562 C570 0.930 . S
H563 C571 0.930 . S
H564 C574 0.930 . S
H565 C575 0.930 . S
C566 H560 0.930 . S
C566 C567 1.355 . S
C566 C568 1.415 . S
C567 C566 1.355 . S
C567 C569 1.419 . S
C568 C566 1.415 . S
C568 C573 1.425 . S
C568 C575 1.409 . S
C569 H561 0.930 . S
C569 C567 1.419 . S
C569 C570 1.362 . S
C570 H562 0.930 . S
C570 C569 1.362 . S
C570 C573 1.409 . S
C571 H563 0.930 . S
C571 C572 1.355 . S
C571 C573 1.415 . S
C572 C571 1.355 . S
C572 C574 1.419 . S
C573 C568 1.425 . S
C573 C570 1.409 . S
C573 C571 1.415 . S
C574 H564 0.930 . S
C574 C572 1.419 . S
C574 C575 1.362 . S
C575 H565 0.930 . S
C575 C568 1.409 . S
C575 C574 1.362 . S
H576 C582 0.930 . S
H577 C585 0.930 . S
H578 C586 0.930 . S
H579 C587 0.930 . S
H580 C590 0.930 . S
H581 C591 0.930 . S
C582 H576 0.930 . S
C582 C583 1.355 . S
C582 C584 1.415 . S
C583 C582 1.355 . S
C583 C585 1.419 . S
C584 C582 1.415 . S
C584 C589 1.425 . S
C584 C591 1.409 . S
C585 H577 0.930 . S
C585 C583 1.419 . S
C585 C586 1.362 . S
C586 H578 0.930 . S
C586 C585 1.362 . S
C586 C589 1.409 . S
C587 H579 0.930 . S
C587 C588 1.355 . S
C587 C589 1.415 . S
C588 C587 1.355 . S
C588 C590 1.419 . S
C589 C584 1.425 . S
C589 C586 1.409 . S
C589 C587 1.415 . S
C590 H580 0.930 . S
C590 C588 1.419 . S
C590 C591 1.362 . S
C591 H581 0.930 . S
C591 C584 1.409 . S
C591 C590 1.362 . S
H592 C598 0.930 . S
H593 C601 0.930 . S
H594 C602 0.930 . S
H595 C603 0.930 . S
H596 C606 0.930 . S
H597 C607 0.930 . S
C598 H592 0.930 . S
C598 C599 1.355 . S
C598 C600 1.415 . S
C599 C598 1.355 . S
C599 C601 1.419 . S
C600 C598 1.415 . S
C600 C605 1.425 . S
C600 C607 1.409 . S
C601 H593 0.930 . S
C601 C599 1.419 . S
C601 C602 1.362 . S
C602 H594 0.930 . S
C602 C601 1.362 . S
C602 C605 1.409 . S
C603 H595 0.930 . S
C603 C604 1.355 . S
C603 C605 1.415 . S
C604 C603 1.355 . S
C604 C606 1.419 . S
C605 C600 1.425 . S
C605 C602 1.409 . S
C605 C603 1.415 . S
C606 H596 0.930 . S
C606 C604 1.419 . S
C606 C607 1.362 . S
C607 H597 0.930 . S
C607 C600 1.409 . S
C607 C606 1.362 . S
H608 C614 0.930 . S
H609 C617 0.930 . S
H610 C618 0.930 . S
H611 C619 0.930 . S
H612 C622 0.930 . S
H613 C623 0.930 . S
C614 H608 0.930 . S
C614 C615 1.355 . S
C614 C616 1.415 . S
C615 C614 1.355 . S
C615 C617 1.419 . S
C616 C614 1.415 . S
C616 C621 1.425 . S
C616 C623 1.409 . S
C617 H609 0.930 . S
C617 C615 1.419 . S
C617 C618 1.362 . S
C618 H610 0.930 . S
C618 C617 1.362 . S
C618 C621 1.409 . S
C619 H611 0.930 . S
C619 C620 1.355 . S
C619 C621 1.415 . S
C620 C619 1.355 . S
C620 C622 1.419 . S
C621 C616 1.425 . S
C621 C618 1.409 . S
C621 C619 1.415 . S
C622 H612 0.930 . S
C622 C620 1.419 . S
C622 C623 1.362 . S
C623 H613 0.930 . S
C623 C616 1.409 . S
C623 C622 1.362 . S
H624 C630 0.930 . S
H625 C633 0.930 . S
H626 C634 0.930 . S
H627 C635 0.930 . S
H628 C638 0.930 . S
H629 C639 0.930 . S
C630 H624 0.930 . S
C630 C631 1.355 . S
C630 C632 1.415 . S
C631 C630 1.355 . S
C631 C633 1.419 . S
C632 C630 1.415 . S
C632 C637 1.425 . S
C632 C639 1.409 . S
C633 H625 0.930 . S
C633 C631 1.419 . S
C633 C634 1.362 . S
C634 H626 0.930 . S
C634 C633 1.362 . S
C634 C637 1.409 . S
C635 H627 0.930 . S
C635 C636 1.355 . S
C635 C637 1.415 . S
C636 C635 1.355 . S
C636 C638 1.419 . S
C637 C632 1.425 . S
C637 C634 1.409 . S
C637 C635 1.415 . S
C638 H628 0.930 . S
C638 C636 1.419 . S
C638 C639 1.362 . S
C639 H629 0.930 . S
C639 C632 1.409 . S
C639 C638 1.362 . S
H640 C646 0.930 . S
H641 C649 0.930 . S
H642 C650 0.930 . S
H643 C651 0.930 . S
H644 C654 0.930 . S
H645 C655 0.930 . S
C646 H640 0.930 . S
C646 C647 1.355 . S
C646 C648 1.415 . S
C647 C646 1.355 . S
C647 C649 1.419 . S
C648 C646 1.415 . S
C648 C653 1.425 . S
C648 C655 1.409 . S
C649 H641 0.930 . S
C649 C647 1.419 . S
C649 C650 1.362 . S
C650 H642 0.930 . S
C650 C649 1.362 . S
C650 C653 1.409 . S
C651 H643 0.930 . S
C651 C652 1.355 . S
C651 C653 1.415 . S
C652 C651 1.355 . S
C652 C654 1.419 . S
C653 C648 1.425 . S
C653 C650 1.409 . S
C653 C651 1.415 . S
C654 H644 0.930 . S
C654 C652 1.419 . S
C654 C655 1.362 . S
C655 H645 0.930 . S
C655 C648 1.409 . S
C655 C654 1.362 . S
H656 C662 0.930 . S
H657 C665 0.930 . S
H658 C666 0.930 . S
H659 C667 0.930 . S
H660 C670 0.930 . S
H661 C671 0.930 . S
C662 H656 0.930 . S
C662 C663 1.355 . S
C662 C664 1.415 . S
C663 C662 1.355 . S
C663 C665 1.419 . S
C664 C662 1.415 . S
C664 C669 1.425 . S
C664 C671 1.409 . S
C665 H657 0.930 . S
C665 C663 1.419 . S
C665 C666 1.362 . S
C666 H658 0.930 . S
C666 C665 1.362 . S
C666 C669 1.409 . S
C667 H659 0.930 . S
C667 C668 1.355 . S
C667 C669 1.415 . S
C668 C667 1.355 . S
C668 C670 1.419 . S
C669 C664 1.425 . S
C669 C666 1.409 . S
C669 C667 1.415 . S
C670 H660 0.930 . S
C670 C668 1.419 . S
C670 C671 1.362 . S
C671 H661 0.930 . S
C671 C664 1.409 . S
C671 C670 1.362 . S
H672 C678 0.930 . S
H673 C681 0.930 . S
H674 C682 0.930 . S
H675 C683 0.930 . S
H676 C686 0.930 . S
H677 C687 0.930 . S
C678 H672 0.930 . S
C678 C679 1.355 . S
C678 C680 1.415 . S
C679 C678 1.355 . S
C679 C681 1.419 . S
C680 C678 1.415 . S
C680 C685 1.425 . S
C680 C687 1.409 . S
C681 H673 0.930 . S
C681 C679 1.419 . S
C681 C682 1.362 . S
C682 H674 0.930 . S
C682 C681 1.362 . S
C682 C685 1.409 . S
C683 H675 0.930 . S
C683 C684 1.355 . S
C683 C685 1.415 . S
C684 C683 1.355 . S
C684 C686 1.419 . S
C685 C680 1.425 . S
C685 C682 1.409 . S
C685 C683 1.415 . S
C686 H676 0.930 . S
C686 C684 1.419 . S
C686 C687 1.362 . S
C687 H677 0.930 . S
C687 C680 1.409 . S
C687 C686 1.362 . S
H688 C694 0.930 . S
H689 C697 0.930 . S
H690 C698 0.930 . S
H691 C699 0.930 . S
H692 C702 0.930 . S
H693 C703 0.930 . S
C694 H688 0.930 . S
C694 C695 1.355 . S
C694 C696 1.415 . S
C695 C694 1.355 . S
C695 C697 1.419 . S
C696 C694 1.415 . S
C696 C701 1.425 . S
C696 C703 1.409 . S
C697 H689 0.930 . S
C697 C695 1.419 . S
C697 C698 1.362 . S
C698 H690 0.930 . S
C698 C697 1.362 . S
C698 C701 1.409 . S
C699 H691 0.930 . S
C699 C700 1.355 . S
C699 C701 1.415 . S
C700 C699 1.355 . S
C700 C702 1.419 . S
C701 C696 1.425 . S
C701 C698 1.409 . S
C701 C699 1.415 . S
C702 H692 0.930 . S
C702 C700 1.419 . S
C702 C703 1.362 . S
C703 H693 0.930 . S
C703 C696 1.409 . S
C703 C702 1.362 . S
H704 C710 0.930 . S
H705 C713 0.930 . S
H706 C714 0.930 . S
H707 C715 0.930 . S
H708 C718 0.930 . S
H709 C719 0.930 . S
C710 H704 0.930 . S
C710 C711 1.355 . S
C710 C712 1.415 . S
C711 C710 1.355 . S
C711 C713 1.419 . S
C712 C710 1.415 . S
C712 C717 1.425 . S
C712 C719 1.409 . S
C713 H705 0.930 . S
C713 C711 1.419 . S
C713 C714 1.362 . S
C714 H706 0.930 . S
C714 C713 1.362 . S
C714 C717 1.409 . S
C715 H707 0.930 . S
C715 C716 1.355 . S
C715 C717 1.415 . S
C716 C715 1.355 . S
C716 C718 1.419 . S
C717 C712 1.425 . S
C717 C714 1.409 . S
C717 C715 1.415 . S
C718 H708 0.930 . S
C718 C716 1.419 . S
C718 C719 1.362 . S
C719 H709 0.930 . S
C719 C712 1.409 . S
C719 C718 1.362 . S
H720 C726 0.930 . S
H721 C729 0.930 . S
H722 C730 0.930 . S
H723 C731 0.930 . S
H724 C734 0.930 . S
H725 C735 0.930 . S
C726 H720 0.930 . S
C726 C727 1.355 . S
C726 C728 1.415 . S
C727 C726 1.355 . S
C727 C729 1.419 . S
C728 C726 1.415 . S
C728 C733 1.425 . S
C728 C735 1.409 . S
C729 H721 0.930 . S
C729 C727 1.419 . S
C729 C730 1.362 . S
C730 H722 0.930 . S
C730 C729 1.362 . S
C730 C733 1.409 . S
C731 H723 0.930 . S
C731 C732 1.355 . S
C731 C733 1.415 . S
C732 C731 1.355 . S
C732 C734 1.419 . S
C733 C728 1.425 . S
C733 C730 1.409 . S
C733 C731 1.415 . S
C734 H724 0.930 . S
C734 C732 1.419 . S
C734 C735 1.362 . S
C735 H725 0.930 . S
C735 C728 1.409 . S
C735 C734 1.362 . S
H736 C742 0.930 . S
H737 C745 0.930 . S
H738 C746 0.930 . S
H739 C747 0.930 . S
H740 C750 0.930 . S
H741 C751 0.930 . S
C742 H736 0.930 . S
C742 C743 1.355 . S
C742 C744 1.415 . S
C743 C742 1.355 . S
C743 C745 1.419 . S
C744 C742 1.415 . S
C744 C749 1.425 . S
C744 C751 1.409 . S
C745 H737 0.930 . S
C745 C743 1.419 . S
C745 C746 1.362 . S
C746 H738 0.930 . S
C746 C745 1.362 . S
C746 C749 1.409 . S
C747 H739 0.930 . S
C747 C748 1.355 . S
C747 C749 1.415 . S
C748 C747 1.355 . S
C748 C750 1.419 . S
C749 C744 1.425 . S
C749 C746 1.409 . S
C749 C747 1.415 . S
C750 H740 0.930 . S
C750 C748 1.419 . S
C750 C751 1.362 . S
C751 H741 0.930 . S
C751 C744 1.409 . S
C751 C750 1.362 . S
H752 C758 0.930 . S
H753 C761 0.930 . S
H754 C762 0.930 . S
H755 C763 0.930 . S
H756 C766 0.930 . S
H757 C767 0.930 1_554 S
C758 H752 0.930 . S
C758 C759 1.355 . S
C758 C760 1.415 . S
C759 C758 1.355 . S
C759 C761 1.419 . S
C760 C758 1.415 . S
C760 C765 1.425 . S
C760 C767 1.409 . S
C761 H753 0.930 . S
C761 C759 1.419 . S
C761 C762 1.362 . S
C762 H754 0.930 . S
C762 C761 1.362 . S
C762 C765 1.409 . S
C763 H755 0.930 . S
C763 C764 1.355 . S
C763 C765 1.415 . S
C764 C763 1.355 . S
C764 C766 1.419 1_556 S
C765 C760 1.425 . S
C765 C762 1.409 . S
C765 C763 1.415 . S
C766 H756 0.930 . S
C766 C764 1.419 1_554 S
C766 C767 1.362 1_554 S
C767 H757 0.930 1_556 S
C767 C760 1.409 . S
C767 C766 1.362 1_556 S
H768 C774 0.930 . S
H769 C777 0.930 . S
H770 C778 0.930 . S
H771 C779 0.930 . S
H772 C782 0.930 . S
H773 C783 0.930 . S
C774 H768 0.930 . S
C774 C775 1.355 . S
C774 C776 1.415 . S
C775 C774 1.355 . S
C775 C777 1.419 . S
C776 C774 1.415 . S
C776 C781 1.425 . S
C776 C783 1.409 . S
C777 H769 0.930 . S
C777 C775 1.419 . S
C777 C778 1.362 . S
C778 H770 0.930 . S
C778 C777 1.362 . S
C778 C781 1.409 . S
C779 H771 0.930 . S
C779 C780 1.355 . S
C779 C781 1.415 . S
C780 C779 1.355 . S
C780 C782 1.419 . S
C781 C776 1.425 . S
C781 C778 1.409 . S
C781 C779 1.415 . S
C782 H772 0.930 . S
C782 C780 1.419 . S
C782 C783 1.362 . S
C783 H773 0.930 . S
C783 C776 1.409 . S
C783 C782 1.362 . S
H784 C790 0.930 . S
H785 C793 0.930 . S
H786 C794 0.930 . S
H787 C795 0.930 . S
H788 C798 0.930 . S
H789 C799 0.930 . S
C790 H784 0.930 . S
C790 C791 1.355 1_545 S
C790 C792 1.415 . S
C791 C790 1.355 1_565 S
C791 C793 1.419 . S
C792 C790 1.415 . S
C792 C797 1.425 . S
C792 C799 1.409 . S
C793 H785 0.930 . S
C793 C791 1.419 . S
C793 C794 1.362 1_565 S
C794 H786 0.930 . S
C794 C793 1.362 1_545 S
C794 C797 1.409 . S
C795 H787 0.930 . S
C795 C796 1.355 . S
C795 C797 1.415 . S
C796 C795 1.355 . S
C796 C798 1.419 . S
C797 C792 1.425 . S
C797 C794 1.409 . S
C797 C795 1.415 . S
C798 H788 0.930 . S
C798 C796 1.419 . S
C798 C799 1.362 . S
C799 H789 0.930 . S
C799 C792 1.409 . S
C799 C798 1.362 . S
H800 C806 0.930 . S
H801 C809 0.930 . S
H802 C810 0.930 . S
H803 C811 0.930 . S
H804 C814 0.930 . S
H805 C815 0.930 . S
C806 H800 0.930 . S
C806 C807 1.355 . S
C806 C808 1.415 . S
C807 C806 1.355 . S
C807 C809 1.419 . S
C808 C806 1.415 . S
C808 C813 1.425 . S
C808 C815 1.409 . S
C809 H801 0.930 . S
C809 C807 1.419 . S
C809 C810 1.362 . S
C810 H802 0.930 . S
C810 C809 1.362 . S
C810 C813 1.409 . S
C811 H803 0.930 . S
C811 C812 1.355 . S
C811 C813 1.415 . S
C812 C811 1.355 . S
C812 C814 1.419 . S
C813 C808 1.425 . S
C813 C810 1.409 . S
C813 C811 1.415 . S
C814 H804 0.930 . S
C814 C812 1.419 . S
C814 C815 1.362 . S
C815 H805 0.930 . S
C815 C808 1.409 . S
C815 C814 1.362 . S
H816 C822 0.930 . S
H817 C825 0.930 . S
H818 C826 0.930 . S
H819 C827 0.930 . S
H820 C830 0.930 . S
H821 C831 0.930 . S
C822 H816 0.930 . S
C822 C823 1.355 . S
C822 C824 1.415 . S
C823 C822 1.355 . S
C823 C825 1.419 . S
C824 C822 1.415 . S
C824 C829 1.425 . S
C824 C831 1.409 . S
C825 H817 0.930 . S
C825 C823 1.419 . S
C825 C826 1.362 . S
C826 H818 0.930 . S
C826 C825 1.362 . S
C826 C829 1.409 . S
C827 H819 0.930 . S
C827 C828 1.355 1_565 S
C827 C829 1.415 . S
C828 C827 1.355 1_545 S
C828 C830 1.419 . S
C829 C824 1.425 . S
C829 C826 1.409 . S
C829 C827 1.415 . S
C830 H820 0.930 . S
C830 C828 1.419 . S
C830 C831 1.362 1_545 S
C831 H821 0.930 . S
C831 C824 1.409 . S
C831 C830 1.362 1_565 S
H832 C838 0.930 . S
H833 C841 0.930 . S
H834 C842 0.930 . S
H835 C843 0.930 . S
H836 C846 0.930 . S
H837 C847 0.930 . S
C838 H832 0.930 . S
C838 C839 1.355 . S
C838 C840 1.415 . S
C839 C838 1.355 . S
C839 C841 1.419 . S
C840 C838 1.415 . S
C840 C845 1.425 . S
C840 C847 1.409 . S
C841 H833 0.930 . S
C841 C839 1.419 . S
C841 C842 1.362 . S
C842 H834 0.930 . S
C842 C841 1.362 . S
C842 C845 1.409 . S
C843 H835 0.930 . S
C843 C844 1.355 . S
C843 C845 1.415 . S
C844 C843 1.355 . S
C844 C846 1.419 . S
C845 C840 1.425 . S
C845 C842 1.409 . S
C845 C843 1.415 . S
C846 H836 0.930 . S
C846 C844 1.419 . S
C846 C847 1.362 . S
C847 H837 0.930 . S
C847 C840 1.409 . S
C847 C846 1.362 . S
H848 C854 0.930 . S
H849 C857 0.930 . S
H850 C858 0.930 . S
H851 C859 0.930 . S
H852 C862 0.930 . S
H853 C863 0.930 . S
C854 H848 0.930 . S
C854 C855 1.355 . S
C854 C856 1.415 . S
C855 C854 1.355 . S
C855 C857 1.419 . S
C856 C854 1.415 . S
C856 C861 1.425 . S
C856 C863 1.409 . S
C857 H849 0.930 . S
C857 C855 1.419 . S
C857 C858 1.362 . S
C858 H850 0.930 . S
C858 C857 1.362 . S
C858 C861 1.409 . S
C859 H851 0.930 . S
C859 C860 1.355 . S
C859 C861 1.415 . S
C860 C859 1.355 . S
C860 C862 1.419 . S
C861 C856 1.425 . S
C861 C858 1.409 . S
C861 C859 1.415 . S
C862 H852 0.930 . S
C862 C860 1.419 . S
C862 C863 1.362 . S
C863 H853 0.930 . S
C863 C856 1.409 . S
C863 C862 1.362 . S
H864 C870 0.930 . S
H865 C873 0.930 . S
H866 C874 0.930 . S
H867 C875 0.930 . S
H868 C878 0.930 . S
H869 C879 0.930 . S
C870 H864 0.930 . S
C870 C871 1.355 . S
C870 C872 1.415 . S
C871 C870 1.355 . S
C871 C873 1.419 . S
C872 C870 1.415 . S
C872 C877 1.425 . S
C872 C879 1.409 . S
C873 H865 0.930 . S
C873 C871 1.419 . S
C873 C874 1.362 . S
C874 H866 0.930 . S
C874 C873 1.362 . S
C874 C877 1.409 . S
C875 H867 0.930 . S
C875 C876 1.355 . S
C875 C877 1.415 . S
C876 C875 1.355 . S
C876 C878 1.419 . S
C877 C872 1.425 . S
C877 C874 1.409 . S
C877 C875 1.415 . S
C878 H868 0.930 . S
C878 C876 1.419 . S
C878 C879 1.362 . S
C879 H869 0.930 . S
C879 C872 1.409 . S
C879 C878 1.362 . S
H880 C886 0.930 . S
H881 C889 0.930 . S
H882 C890 0.964 . S
H883 C891 0.930 1_655 S
H884 C894 0.930 . S
H885 C895 0.930 1_554 S
C886 H880 0.930 . S
C886 C887 1.355 . S
C886 C888 1.415 . S
C887 C886 1.355 . S
C887 C889 1.419 . S
C888 C886 1.415 . S
C888 C893 1.425 . S
C888 C895 1.409 . S
C889 H881 0.930 . S
C889 C887 1.419 . S
C889 C890 1.362 . S
C890 H882 0.964 . S
C890 C889 1.362 . S
C890 C893 1.409 . S
C891 H883 0.930 1_455 S
C891 C892 1.355 1_556 S
C891 C893 1.415 . S
C892 C891 1.355 1_554 S
C892 C894 1.419 . S
C893 C888 1.425 . S
C893 C890 1.409 . S
C893 C891 1.415 . S
C894 H884 0.930 . S
C894 C892 1.419 . S
C894 C895 1.362 1_554 S
C895 H885 0.930 1_556 S
C895 C888 1.409 . S
C895 C894 1.362 1_556 S
H896 C902 0.930 . S
H897 C905 0.930 . S
H898 C906 0.930 . S
H899 C907 0.930 . S
H900 C910 0.930 . S
H901 C911 0.930 . S
C902 H896 0.930 . S
C902 C903 1.355 . S
C902 C904 1.415 . S
C903 C902 1.355 . S
C903 C905 1.419 . S
C904 C902 1.415 . S
C904 C909 1.425 . S
C904 C911 1.409 . S
C905 H897 0.930 . S
C905 C903 1.419 . S
C905 C906 1.362 . S
C906 H898 0.930 . S
C906 C905 1.362 . S
C906 C909 1.409 . S
C907 H899 0.930 . S
C907 C908 1.355 . S
C907 C909 1.415 . S
C908 C907 1.355 . S
C908 C910 1.419 . S
C909 C904 1.425 . S
C909 C906 1.409 . S
C909 C907 1.415 . S
C910 H900 0.930 . S
C910 C908 1.419 . S
C910 C911 1.362 . S
C911 H901 0.930 . S
C911 C904 1.409 . S
C911 C910 1.362 . S
H912 C918 0.930 . S
H913 C921 0.930 . S
H914 C922 0.930 . S
H915 C923 0.930 . S
H916 C926 0.930 . S
H917 C927 0.930 . S
C918 H912 0.930 . S
C918 C919 1.355 . S
C918 C920 1.415 . S
C919 C918 1.355 . S
C919 C921 1.419 . S
C920 C918 1.415 . S
C920 C925 1.425 . S
C920 C927 1.409 . S
C921 H913 0.930 . S
C921 C919 1.419 . S
C921 C922 1.362 . S
C922 H914 0.930 . S
C922 C921 1.362 . S
C922 C925 1.409 . S
C923 H915 0.930 . S
C923 C924 1.355 . S
C923 C925 1.415 . S
C924 C923 1.355 . S
C924 C926 1.419 . S
C925 C920 1.425 . S
C925 C922 1.409 . S
C925 C923 1.415 . S
C926 H916 0.930 . S
C926 C924 1.419 . S
C926 C927 1.362 . S
C927 H917 0.930 . S
C927 C920 1.409 . S
C927 C926 1.362 . S
H928 C934 0.930 . S
H929 C937 0.930 . S
H930 C938 0.930 . S
H931 C939 0.930 . S
H932 C942 0.930 . S
H933 C943 0.930 . S
C934 H928 0.930 . S
C934 C935 1.355 . S
C934 C936 1.415 . S
C935 C934 1.355 . S
C935 C937 1.419 . S
C936 C934 1.415 . S
C936 C941 1.425 . S
C936 C943 1.409 . S
C937 H929 0.930 . S
C937 C935 1.419 . S
C937 C938 1.362 . S
C938 H930 0.930 . S
C938 C937 1.362 . S
C938 C941 1.409 . S
C939 H931 0.930 . S
C939 C940 1.355 . S
C939 C941 1.415 . S
C940 C939 1.355 . S
C940 C942 1.419 . S
C941 C936 1.425 . S
C941 C938 1.409 . S
C941 C939 1.415 . S
C942 H932 0.930 . S
C942 C940 1.419 . S
C942 C943 1.362 . S
C943 H933 0.930 . S
C943 C936 1.409 . S
C943 C942 1.362 . S
H944 C950 0.930 . S
H945 C953 0.930 . S
H946 C954 0.930 . S
H947 C955 0.930 . S
H948 C958 0.930 . S
H949 C959 0.930 . S
C950 H944 0.930 . S
C950 C951 1.355 . S
C950 C952 1.415 . S
C951 C950 1.355 . S
C951 C953 1.419 . S
C952 C950 1.415 . S
C952 C957 1.425 . S
C952 C959 1.409 . S
C953 H945 0.930 . S
C953 C951 1.419 . S
C953 C954 1.362 . S
C954 H946 0.930 . S
C954 C953 1.362 . S
C954 C957 1.409 . S
C955 H947 0.930 . S
C955 C956 1.355 1_554 S
C955 C957 1.415 . S
C956 C955 1.355 1_556 S
C956 C958 1.419 . S
C957 C952 1.425 . S
C957 C954 1.409 . S
C957 C955 1.415 . S
C958 H948 0.930 . S
C958 C956 1.419 . S
C958 C959 1.362 1_556 S
C959 H949 0.930 . S
C959 C952 1.409 . S
C959 C958 1.362 1_554 S
H960 C966 0.930 . S
H961 C969 0.930 . S
H962 C970 0.930 . S
H963 C971 0.930 . S
H964 C974 0.930 . S
H965 C975 0.930 . S
C966 H960 0.930 . S
C966 C967 1.355 . S
C966 C968 1.415 . S
C967 C966 1.355 . S
C967 C969 1.419 . S
C968 C966 1.415 . S
C968 C973 1.425 . S
C968 C975 1.409 . S
C969 H961 0.930 . S
C969 C967 1.419 . S
C969 C970 1.362 . S
C970 H962 0.930 . S
C970 C969 1.362 . S
C970 C973 1.409 . S
C971 H963 0.930 . S
C971 C972 1.355 . S
C971 C973 1.415 . S
C972 C971 1.355 . S
C972 C974 1.419 . S
C973 C968 1.425 . S
C973 C970 1.409 . S
C973 C971 1.415 . S
C974 H964 0.930 . S
C974 C972 1.419 . S
C974 C975 1.362 . S
C975 H965 0.930 . S
C975 C968 1.409 . S
C975 C974 1.362 . S
H976 C982 0.930 . S
H977 C985 0.930 . S
H978 C986 0.930 . S
H979 C987 0.930 . S
H980 C990 0.930 . S
H981 C991 0.930 . S
C982 H976 0.930 . S
C982 C983 1.355 . S
C982 C984 1.415 . S
C983 C982 1.355 . S
C983 C985 1.419 . S
C984 C982 1.415 . S
C984 C989 1.425 . S
C984 C991 1.409 . S
C985 H977 0.930 . S
C985 C983 1.419 . S
C985 C986 1.362 . S
C986 H978 0.930 . S
C986 C985 1.362 . S
C986 C989 1.409 . S
C987 H979 0.930 . S
C987 C988 1.355 . S
C987 C989 1.415 . S
C988 C987 1.355 . S
C988 C990 1.419 . S
C989 C984 1.425 . S
C989 C986 1.409 . S
C989 C987 1.415 . S
C990 H980 0.930 . S
C990 C988 1.419 . S
C990 C991 1.362 . S
C991 H981 0.930 . S
C991 C984 1.409 . S
C991 C990 1.362 . S
H992 C998 0.930 1_565 S
H993 C1001 0.930 . S
H994 C1002 0.930 . S
H995 C1003 0.930 . S
H996 C1006 0.930 . S
H997 C1007 0.930 . S
C998 H992 0.930 1_545 S
C998 C999 1.355 1_655 S
C998 C1000 1.415 . S
C999 C998 1.355 1_455 S
C999 C1001 1.419 . S
C1000 C998 1.415 . S
C1000 C1005 1.425 . S
C1000 C1007 1.409 . S
C1001 H993 0.930 . S
C1001 C999 1.419 . S
C1001 C1002 1.362 . S
C1002 H994 0.930 . S
C1002 C1001 1.362 . S
C1002 C1005 1.409 1_455 S
C1003 H995 0.930 . S
C1003 C1004 1.355 . S
C1003 C1005 1.415 . S
C1004 C1003 1.355 . S
C1004 C1006 1.419 . S
C1005 C1000 1.425 . S
C1005 C1002 1.409 1_655 S
C1005 C1003 1.415 . S
C1006 H996 0.930 . S
C1006 C1004 1.419 . S
C1006 C1007 1.362 . S
C1007 H997 0.930 . S
C1007 C1000 1.409 . S
C1007 C1006 1.362 . S
H1008 C1014 0.930 . S
H1009 C1017 0.930 . S
H1010 C1018 0.930 . S
H1011 C1019 0.930 . S
H1012 C1022 0.930 . S
H1013 C1023 0.930 . S
C1014 H1008 0.930 . S
C1014 C1015 1.355 . S
C1014 C1016 1.415 . S
C1015 C1014 1.355 . S
C1015 C1017 1.419 . S
C1016 C1014 1.415 . S
C1016 C1021 1.425 . S
C1016 C1023 1.409 . S
C1017 H1009 0.930 . S
C1017 C1015 1.419 . S
C1017 C1018 1.362 . S
C1018 H1010 0.930 . S
C1018 C1017 1.362 . S
C1018 C1021 1.409 . S
C1019 H1011 0.930 . S
C1019 C1020 1.355 . S
C1019 C1021 1.415 . S
C1020 C1019 1.355 . S
C1020 C1022 1.419 . S
C1021 C1016 1.425 . S
C1021 C1018 1.409 . S
C1021 C1019 1.415 . S
C1022 H1012 0.930 . S
C1022 C1020 1.419 . S
C1022 C1023 1.362 . S
C1023 H1013 0.930 . S
C1023 C1016 1.409 . S
C1023 C1022 1.362 . S
H1024 C1030 0.930 1_545 S
H1025 C1033 0.930 . S
H1026 C1034 0.930 . S
H1027 C1035 0.930 . S
H1028 C1038 0.930 . S
H1029 C1039 0.930 . S
C1030 H1024 0.930 1_565 S
C1030 C1031 1.355 . S
C1030 C1032 1.415 . S
C1031 C1030 1.355 . S
C1031 C1033 1.419 . S
C1032 C1030 1.415 . S
C1032 C1037 1.425 . S
C1032 C1039 1.409 . S
C1033 H1025 0.930 . S
C1033 C1031 1.419 . S
C1033 C1034 1.362 . S
C1034 H1026 0.930 . S
C1034 C1033 1.362 . S
C1034 C1037 1.409 . S
C1035 H1027 0.930 . S
C1035 C1036 1.355 . S
C1035 C1037 1.415 . S
C1036 C1035 1.355 . S
C1036 C1038 1.419 . S
C1037 C1032 1.425 . S
C1037 C1034 1.409 . S
C1037 C1035 1.415 . S
C1038 H1028 0.930 . S
C1038 C1036 1.419 . S
C1038 C1039 1.362 . S
C1039 H1029 0.930 . S
C1039 C1032 1.409 . S
C1039 C1038 1.362 . S
H1040 C1046 0.930 . S
H1041 C1049 0.930 . S
H1042 C1050 0.930 . S
H1043 C1051 0.930 . S
H1044 C1054 0.930 . S
H1045 C1055 0.930 . S
C1046 H1040 0.930 . S
C1046 C1047 1.355 . S
C1046 C1048 1.415 . S
C1047 C1046 1.355 . S
C1047 C1049 1.419 . S
C1048 C1046 1.415 . S
C1048 C1053 1.425 . S
C1048 C1055 1.409 . S
C1049 H1041 0.930 . S
C1049 C1047 1.419 . S
C1049 C1050 1.362 . S
C1050 H1042 0.930 . S
C1050 C1049 1.362 . S
C1050 C1053 1.409 . S
C1051 H1043 0.930 . S
C1051 C1052 1.355 . S
C1051 C1053 1.415 . S
C1052 C1051 1.355 . S
C1052 C1054 1.419 . S
C1053 C1048 1.425 . S
C1053 C1050 1.409 . S
C1053 C1051 1.415 . S
C1054 H1044 0.930 . S
C1054 C1052 1.419 . S
C1054 C1055 1.362 . S
C1055 H1045 0.930 . S
C1055 C1048 1.409 . S
C1055 C1054 1.362 . S
H1056 C1062 0.930 . S
H1057 C1065 0.930 . S
H1058 C1066 0.930 . S
H1059 C1067 0.930 . S
H1060 C1070 0.930 . S
H1061 C1071 0.930 . S
C1062 H1056 0.930 . S
C1062 C1063 1.355 . S
C1062 C1064 1.415 1_655 S
C1063 C1062 1.355 . S
C1063 C1065 1.419 . S
C1064 C1062 1.415 1_455 S
C1064 C1069 1.425 . S
C1064 C1071 1.409 . S
C1065 H1057 0.930 . S
C1065 C1063 1.419 . S
C1065 C1066 1.362 1_655 S
C1066 H1058 0.930 . S
C1066 C1065 1.362 1_455 S
C1066 C1069 1.409 . S
C1067 H1059 0.930 . S
C1067 C1068 1.355 . S
C1067 C1069 1.415 . S
C1068 C1067 1.355 . S
C1068 C1070 1.419 . S
C1069 C1064 1.425 . S
C1069 C1066 1.409 . S
C1069 C1067 1.415 . S
C1070 H1060 0.930 . S
C1070 C1068 1.419 . S
C1070 C1071 1.362 . S
C1071 H1061 0.930 . S
C1071 C1064 1.409 . S
C1071 C1070 1.362 . S
H1072 C1078 0.930 . S
H1073 C1081 0.930 . S
H1074 C1082 0.930 . S
H1075 C1083 0.930 . S
H1076 C1086 0.930 . S
H1077 C1087 0.930 . S
C1078 H1072 0.930 . S
C1078 C1079 1.355 . S
C1078 C1080 1.415 . S
C1079 C1078 1.355 . S
C1079 C1081 1.419 . S
C1080 C1078 1.415 . S
C1080 C1085 1.425 . S
C1080 C1087 1.409 . S
C1081 H1073 0.930 . S
C1081 C1079 1.419 . S
C1081 C1082 1.362 . S
C1082 H1074 0.930 . S
C1082 C1081 1.362 . S
C1082 C1085 1.409 . S
C1083 H1075 0.930 . S
C1083 C1084 1.355 . S
C1083 C1085 1.415 . S
C1084 C1083 1.355 . S
C1084 C1086 1.419 . S
C1085 C1080 1.425 . S
C1085 C1082 1.409 . S
C1085 C1083 1.415 . S
C1086 H1076 0.930 . S
C1086 C1084 1.419 . S
C1086 C1087 1.362 . S
C1087 H1077 0.930 . S
C1087 C1080 1.409 . S
C1087 C1086 1.362 . S
H1088 C1094 0.930 . S
H1089 C1097 0.930 . S
H1090 C1098 0.930 . S
H1091 C1099 0.930 . S
H1092 C1102 0.930 . S
H1093 C1103 0.930 . S
C1094 H1088 0.930 . S
C1094 C1095 1.355 . S
C1094 C1096 1.415 . S
C1095 C1094 1.355 . S
C1095 C1097 1.419 . S
C1096 C1094 1.415 . S
C1096 C1101 1.425 . S
C1096 C1103 1.409 . S
C1097 H1089 0.930 . S
C1097 C1095 1.419 . S
C1097 C1098 1.362 . S
C1098 H1090 0.930 . S
C1098 C1097 1.362 . S
C1098 C1101 1.409 . S
C1099 H1091 0.930 . S
C1099 C1100 1.355 . S
C1099 C1101 1.415 . S
C1100 C1099 1.355 . S
C1100 C1102 1.419 . S
C1101 C1096 1.425 . S
C1101 C1098 1.409 . S
C1101 C1099 1.415 . S
C1102 H1092 0.930 . S
C1102 C1100 1.419 . S
C1102 C1103 1.362 . S
C1103 H1093 0.930 . S
C1103 C1096 1.409 . S
C1103 C1102 1.362 . S
H1104 C1110 0.930 . S
H1105 C1113 0.930 . S
H1106 C1114 0.930 . S
H1107 C1115 0.930 . S
H1108 C1118 0.930 . S
H1109 C1119 0.930 . S
C1110 H1104 0.930 . S
C1110 C1111 1.355 . S
C1110 C1112 1.415 . S
C1111 C1110 1.355 . S
C1111 C1113 1.419 . S
C1112 C1110 1.415 . S
C1112 C1117 1.425 . S
C1112 C1119 1.409 . S
C1113 H1105 0.930 . S
C1113 C1111 1.419 . S
C1113 C1114 1.362 . S
C1114 H1106 0.930 . S
C1114 C1113 1.362 . S
C1114 C1117 1.409 . S
C1115 H1107 0.930 . S
C1115 C1116 1.355 . S
C1115 C1117 1.415 . S
C1116 C1115 1.355 . S
C1116 C1118 1.419 . S
C1117 C1112 1.425 . S
C1117 C1114 1.409 . S
C1117 C1115 1.415 . S
C1118 H1108 0.930 . S
C1118 C1116 1.419 . S
C1118 C1119 1.362 . S
C1119 H1109 0.930 . S
C1119 C1112 1.409 . S
C1119 C1118 1.362 . S
H1120 C1126 0.930 . S
H1121 C1129 0.930 . S
H1122 C1130 0.930 . S
H1123 C1131 0.930 . S
H1124 C1134 0.930 . S
H1125 C1135 0.930 . S
C1126 H1120 0.930 . S
C1126 C1127 1.355 . S
C1126 C1128 1.415 . S
C1127 C1126 1.355 . S
C1127 C1129 1.419 . S
C1128 C1126 1.415 . S
C1128 C1133 1.425 . S
C1128 C1135 1.409 . S
C1129 H1121 0.930 . S
C1129 C1127 1.419 . S
C1129 C1130 1.362 . S
C1130 H1122 0.930 . S
C1130 C1129 1.362 . S
C1130 C1133 1.409 . S
C1131 H1123 0.930 . S
C1131 C1132 1.355 . S
C1131 C1133 1.415 . S
C1132 C1131 1.355 . S
C1132 C1134 1.419 . S
C1133 C1128 1.425 . S
C1133 C1130 1.409 . S
C1133 C1131 1.415 . S
C1134 H1124 0.930 . S
C1134 C1132 1.419 . S
C1134 C1135 1.362 . S
C1135 H1125 0.930 . S
C1135 C1128 1.409 . S
C1135 C1134 1.362 . S
H1136 C1142 0.930 . S
H1137 C1145 0.930 . S
H1138 C1146 0.930 . S
H1139 C1147 0.930 . S
H1140 C1150 0.930 . S
H1141 C1151 0.930 . S
C1142 H1136 0.930 . S
C1142 C1143 1.355 . S
C1142 C1144 1.415 . S
C1143 C1142 1.355 . S
C1143 C1145 1.419 . S
C1144 C1142 1.415 . S
C1144 C1149 1.425 . S
C1144 C1151 1.409 . S
C1145 H1137 0.930 . S
C1145 C1143 1.419 . S
C1145 C1146 1.362 . S
C1146 H1138 0.930 . S
C1146 C1145 1.362 . S
C1146 C1149 1.409 . S
C1147 H1139 0.930 . S
C1147 C1148 1.355 . S
C1147 C1149 1.415 . S
C1148 C1147 1.355 . S
C1148 C1150 1.419 . S
C1149 C1144 1.425 . S
C1149 C1146 1.409 . S
C1149 C1147 1.415 . S
C1150 H1140 0.930 . S
C1150 C1148 1.419 . S
C1150 C1151 1.362 . S
C1151 H1141 0.930 . S
C1151 C1144 1.409 . S
C1151 C1150 1.362 . S
H1152 C1158 0.930 . S
H1153 C1161 0.930 . S
H1154 C1162 0.930 . S
H1155 C1163 0.930 . S
H1156 C1166 0.930 . S
H1157 C1167 0.930 . S
C1158 H1152 0.930 . S
C1158 C1159 1.355 . S
C1158 C1160 1.415 . S
C1159 C1158 1.355 . S
C1159 C1161 1.419 . S
C1160 C1158 1.415 . S
C1160 C1165 1.425 . S
C1160 C1167 1.409 1_554 S
C1161 H1153 0.930 . S
C1161 C1159 1.419 . S
C1161 C1162 1.362 . S
C1162 H1154 0.930 . S
C1162 C1161 1.362 . S
C1162 C1165 1.409 . S
C1163 H1155 0.930 . S
C1163 C1164 1.355 1_554 S
C1163 C1165 1.415 . S
C1164 C1163 1.355 1_556 S
C1164 C1166 1.419 . S
C1165 C1160 1.425 . S
C1165 C1162 1.409 . S
C1165 C1163 1.415 . S
C1166 H1156 0.930 . S
C1166 C1164 1.419 . S
C1166 C1167 1.362 . S
C1167 H1157 0.930 . S
C1167 C1160 1.409 1_556 S
C1167 C1166 1.362 . S
H1168 C1174 0.930 1_565 S
H1169 C1177 0.930 . S
H1170 C1178 0.930 . S
H1171 C1179 0.930 . S
H1172 C1182 0.930 . S
H1173 C1183 0.930 . S
C1174 H1168 0.930 1_545 S
C1174 C1175 1.355 1_545 S
C1174 C1176 1.415 . S
C1175 C1174 1.355 1_565 S
C1175 C1177 1.419 1_565 S
C1176 C1174 1.415 . S
C1176 C1181 1.425 . S
C1176 C1183 1.409 . S
C1177 H1169 0.930 . S
C1177 C1175 1.419 1_545 S
C1177 C1178 1.362 . S
C1178 H1170 0.930 . S
C1178 C1177 1.362 . S
C1178 C1181 1.409 . S
C1179 H1171 0.930 . S
C1179 C1180 1.355 . S
C1179 C1181 1.415 . S
C1180 C1179 1.355 . S
C1180 C1182 1.419 . S
C1181 C1176 1.425 . S
C1181 C1178 1.409 . S
C1181 C1179 1.415 . S
C1182 H1172 0.930 . S
C1182 C1180 1.419 . S
C1182 C1183 1.362 . S
C1183 H1173 0.930 . S
C1183 C1176 1.409 . S
C1183 C1182 1.362 . S
H1184 C1190 0.930 . S
H1185 C1193 0.930 . S
H1186 C1194 0.930 . S
H1187 C1195 0.930 . S
H1188 C1198 0.930 . S
H1189 C1199 0.930 . S
C1190 H1184 0.930 . S
C1190 C1191 1.355 . S
C1190 C1192 1.397 1_554 S
C1191 C1190 1.355 . S
C1191 C1193 1.419 1_554 S
C1192 C1190 1.397 1_556 S
C1192 C1197 1.446 . S
C1192 C1199 1.407 1_556 S
C1193 H1185 0.930 . S
C1193 C1191 1.419 1_556 S
C1193 C1194 1.362 . S
C1194 H1186 0.930 . S
C1194 C1193 1.362 . S
C1194 C1197 1.409 . S
C1195 H1187 0.930 . S
C1195 C1196 1.355 . S
C1195 C1197 1.415 . S
C1196 C1195 1.355 . S
C1196 C1198 1.419 . S
C1197 C1192 1.446 . S
C1197 C1194 1.409 . S
C1197 C1195 1.415 . S
C1198 H1188 0.930 . S
C1198 C1196 1.419 . S
C1198 C1199 1.362 1_556 S
C1199 H1189 0.930 . S
C1199 C1192 1.407 1_554 S
C1199 C1198 1.362 1_554 S
H1200 C1206 0.930 . S
H1201 C1209 0.930 . S
H1202 C1210 0.930 . S
H1203 C1211 0.930 . S
H1204 C1214 0.930 . S
H1205 C1215 0.930 . S
C1206 H1200 0.930 . S
C1206 C1207 1.355 1_565 S
C1206 C1208 1.415 . S
C1207 C1206 1.355 1_545 S
C1207 C1209 1.419 . S
C1208 C1206 1.415 . S
C1208 C1213 1.425 . S
C1208 C1215 1.409 . S
C1209 H1201 0.930 . S
C1209 C1207 1.419 . S
C1209 C1210 1.362 1_545 S
C1210 H1202 0.930 . S
C1210 C1209 1.362 1_565 S
C1210 C1213 1.409 . S
C1211 H1203 0.930 . S
C1211 C1212 1.355 . S
C1211 C1213 1.415 . S
C1212 C1211 1.355 . S
C1212 C1214 1.419 . S
C1213 C1208 1.425 . S
C1213 C1210 1.409 . S
C1213 C1211 1.415 . S
C1214 H1204 0.930 . S
C1214 C1212 1.419 . S
C1214 C1215 1.362 . S
C1215 H1205 0.930 . S
C1215 C1208 1.409 . S
C1215 C1214 1.362 . S
H1216 C1222 0.930 . S
H1217 C1225 0.930 . S
H1218 C1226 0.930 . S
H1219 C1227 0.930 . S
H1220 C1230 0.930 . S
H1221 C1231 0.930 . S
C1222 H1216 0.930 . S
C1222 C1223 1.355 . S
C1222 C1224 1.415 . S
C1223 C1222 1.355 . S
C1223 C1225 1.419 . S
C1224 C1222 1.415 . S
C1224 C1229 1.425 . S
C1224 C1231 1.409 . S
C1225 H1217 0.930 . S
C1225 C1223 1.419 . S
C1225 C1226 1.362 . S
C1226 H1218 0.930 . S
C1226 C1225 1.362 . S
C1226 C1229 1.409 . S
C1227 H1219 0.930 . S
C1227 C1228 1.355 . S
C1227 C1229 1.415 . S
C1228 C1227 1.355 . S
C1228 C1230 1.419 . S
C1229 C1224 1.425 . S
C1229 C1226 1.409 . S
C1229 C1227 1.415 . S
C1230 H1220 0.930 . S
C1230 C1228 1.419 . S
C1230 C1231 1.362 . S
C1231 H1221 0.930 . S
C1231 C1224 1.409 . S
C1231 C1230 1.362 . S
H1232 C1238 0.930 . S
H1233 C1241 0.930 . S
H1234 C1242 0.930 . S
H1235 C1243 0.930 . S
H1236 C1246 0.930 . S
H1237 C1247 0.930 . S
C1238 H1232 0.930 . S
C1238 C1239 1.355 . S
C1238 C1240 1.415 . S
C1239 C1238 1.355 . S
C1239 C1241 1.419 . S
C1240 C1238 1.415 . S
C1240 C1245 1.425 . S
C1240 C1247 1.409 . S
C1241 H1233 0.930 . S
C1241 C1239 1.419 . S
C1241 C1242 1.362 . S
C1242 H1234 0.930 . S
C1242 C1241 1.362 . S
C1242 C1245 1.409 . S
C1243 H1235 0.930 . S
C1243 C1244 1.355 . S
C1243 C1245 1.415 . S
C1244 C1243 1.355 . S
C1244 C1246 1.419 . S
C1245 C1240 1.425 . S
C1245 C1242 1.409 . S
C1245 C1243 1.415 . S
C1246 H1236 0.930 . S
C1246 C1244 1.419 . S
C1246 C1247 1.362 . S
C1247 H1237 0.930 . S
C1247 C1240 1.409 . S
C1247 C1246 1.362 . S
H1248 C1254 0.930 . S
H1249 C1257 0.930 . S
H1250 C1258 0.930 . S
H1251 C1259 0.930 . S
H1252 C1262 0.930 . S
H1253 C1263 0.930 . S
C1254 H1248 0.930 . S
C1254 C1255 1.355 1_545 S
C1254 C1256 1.415 . S
C1255 C1254 1.355 1_565 S
C1255 C1257 1.419 . S
C1256 C1254 1.415 . S
C1256 C1261 1.425 . S
C1256 C1263 1.409 . S
C1257 H1249 0.930 . S
C1257 C1255 1.419 . S
C1257 C1258 1.362 . S
C1258 H1250 0.930 . S
C1258 C1257 1.362 . S
C1258 C1261 1.409 1_565 S
C1259 H1251 0.930 . S
C1259 C1260 1.355 . S
C1259 C1261 1.415 . S
C1260 C1259 1.355 . S
C1260 C1262 1.419 . S
C1261 C1256 1.425 . S
C1261 C1258 1.409 1_545 S
C1261 C1259 1.415 . S
C1262 H1252 0.930 . S
C1262 C1260 1.419 . S
C1262 C1263 1.362 . S
C1263 H1253 0.930 . S
C1263 C1256 1.409 . S
C1263 C1262 1.362 . S
H1264 C1270 0.930 . S
H1265 C1273 0.930 . S
H1266 C1274 0.930 . S
H1267 C1275 0.930 1_554 S
H1268 C1278 0.930 . S
H1269 C1279 0.930 . S
C1270 H1264 0.930 . S
C1270 C1271 1.355 . S
C1270 C1272 1.415 . S
C1271 C1270 1.355 . S
C1271 C1273 1.419 . S
C1272 C1270 1.415 . S
C1272 C1277 1.425 . S
C1272 C1279 1.409 . S
C1273 H1265 0.930 . S
C1273 C1271 1.419 . S
C1273 C1274 1.362 . S
C1274 H1266 0.930 . S
C1274 C1273 1.362 . S
C1274 C1277 1.409 . S
C1275 H1267 0.930 1_556 S
C1275 C1276 1.355 1_556 S
C1275 C1277 1.415 . S
C1276 C1275 1.355 1_554 S
C1276 C1278 1.419 1_554 S
C1277 C1272 1.425 . S
C1277 C1274 1.409 . S
C1277 C1275 1.415 . S
C1278 H1268 0.930 . S
C1278 C1276 1.419 1_556 S
C1278 C1279 1.362 . S
C1279 H1269 0.930 . S
C1279 C1272 1.409 . S
C1279 C1278 1.362 . S
H1280 C1286 0.930 . S
H1281 C1289 0.930 . S
H1282 C1290 0.930 . S
H1283 C1291 0.930 . S
H1284 C1294 0.930 . S
H1285 C1295 0.930 . S
C1286 H1280 0.930 . S
C1286 C1287 1.355 . S
C1286 C1288 1.415 . S
C1287 C1286 1.355 . S
C1287 C1289 1.419 . S
C1288 C1286 1.415 . S
C1288 C1293 1.425 . S
C1288 C1295 1.409 1_565 S
C1289 H1281 0.930 . S
C1289 C1287 1.419 . S
C1289 C1290 1.362 . S
C1290 H1282 0.930 . S
C1290 C1289 1.362 . S
C1290 C1293 1.409 . S
C1291 H1283 0.930 . S
C1291 C1292 1.355 1_565 S
C1291 C1293 1.415 . S
C1292 C1291 1.355 1_545 S
C1292 C1294 1.419 . S
C1293 C1288 1.425 . S
C1293 C1290 1.409 . S
C1293 C1291 1.415 . S
C1294 H1284 0.930 . S
C1294 C1292 1.419 . S
C1294 C1295 1.362 . S
C1295 H1285 0.930 . S
C1295 C1288 1.409 1_545 S
C1295 C1294 1.362 . S
H1296 C1302 0.930 . S
H1297 C1305 0.930 . S
H1298 C1306 0.930 . S
H1299 C1307 0.930 . S
H1300 C1310 0.930 . S
H1301 C1311 0.930 . S
C1302 H1296 0.930 . S
C1302 C1303 1.355 . S
C1302 C1304 1.415 . S
C1303 C1302 1.355 . S
C1303 C1305 1.419 . S
C1304 C1302 1.415 . S
C1304 C1309 1.425 . S
C1304 C1311 1.409 . S
C1305 H1297 0.930 . S
C1305 C1303 1.419 . S
C1305 C1306 1.362 . S
C1306 H1298 0.930 . S
C1306 C1305 1.362 . S
C1306 C1309 1.409 . S
C1307 H1299 0.930 . S
C1307 C1308 1.355 . S
C1307 C1309 1.415 . S
C1308 C1307 1.355 . S
C1308 C1310 1.419 . S
C1309 C1304 1.425 . S
C1309 C1306 1.409 . S
C1309 C1307 1.415 . S
C1310 H1300 0.930 . S
C1310 C1308 1.419 . S
C1310 C1311 1.362 . S
C1311 H1301 0.930 . S
C1311 C1304 1.409 . S
C1311 C1310 1.362 . S
H1312 C1318 0.930 . S
H1313 C1321 0.930 . S
H1314 C1322 0.930 . S
H1315 C1323 0.930 . S
H1316 C1326 0.930 . S
H1317 C1327 0.930 . S
C1318 H1312 0.930 . S
C1318 C1319 1.355 . S
C1318 C1320 1.415 . S
C1319 C1318 1.355 . S
C1319 C1321 1.419 . S
C1320 C1318 1.415 . S
C1320 C1325 1.425 . S
C1320 C1327 1.409 . S
C1321 H1313 0.930 . S
C1321 C1319 1.419 . S
C1321 C1322 1.362 . S
C1322 H1314 0.930 . S
C1322 C1321 1.362 . S
C1322 C1325 1.409 . S
C1323 H1315 0.930 . S
C1323 C1324 1.355 . S
C1323 C1325 1.415 . S
C1324 C1323 1.355 . S
C1324 C1326 1.419 . S
C1325 C1320 1.425 . S
C1325 C1322 1.409 . S
C1325 C1323 1.415 . S
C1326 H1316 0.930 . S
C1326 C1324 1.419 . S
C1326 C1327 1.362 . S
C1327 H1317 0.930 . S
C1327 C1320 1.409 . S
C1327 C1326 1.362 . S
H1328 C1334 0.930 . S
H1329 C1337 0.930 . S
H1330 C1338 0.930 . S
H1331 C1339 0.930 . S
H1332 C1342 0.930 1_556 S
H1333 C1343 0.930 . S
C1334 H1328 0.930 . S
C1334 C1335 1.355 . S
C1334 C1336 1.415 . S
C1335 C1334 1.355 . S
C1335 C1337 1.419 . S
C1336 C1334 1.415 . S
C1336 C1341 1.425 . S
C1336 C1343 1.409 . S
C1337 H1329 0.930 . S
C1337 C1335 1.419 . S
C1337 C1338 1.362 . S
C1338 H1330 0.930 . S
C1338 C1337 1.362 . S
C1338 C1341 1.409 . S
C1339 H1331 0.930 . S
C1339 C1340 1.355 1_554 S
C1339 C1341 1.415 . S
C1340 C1339 1.355 1_556 S
C1340 C1342 1.419 1_556 S
C1341 C1336 1.425 . S
C1341 C1338 1.409 . S
C1341 C1339 1.415 . S
C1342 H1332 0.930 1_554 S
C1342 C1340 1.419 1_554 S
C1342 C1343 1.362 . S
C1343 H1333 0.930 . S
C1343 C1336 1.409 . S
C1343 C1342 1.362 . S
H1344 C1350 0.930 . S
H1345 C1353 0.930 . S
H1346 C1354 0.930 . S
H1347 C1355 0.930 . S
H1348 C1358 0.930 . S
H1349 C1359 0.930 . S
C1350 H1344 0.930 . S
C1350 C1351 1.355 . S
C1350 C1352 1.415 . S
C1351 C1350 1.355 . S
C1351 C1353 1.419 . S
C1352 C1350 1.415 . S
C1352 C1357 1.425 . S
C1352 C1359 1.409 . S
C1353 H1345 0.930 . S
C1353 C1351 1.419 . S
C1353 C1354 1.362 . S
C1354 H1346 0.930 . S
C1354 C1353 1.362 . S
C1354 C1357 1.409 . S
C1355 H1347 0.930 . S
C1355 C1356 1.355 . S
C1355 C1357 1.415 . S
C1356 C1355 1.355 . S
C1356 C1358 1.419 . S
C1357 C1352 1.425 . S
C1357 C1354 1.409 . S
C1357 C1355 1.415 . S
C1358 H1348 0.930 . S
C1358 C1356 1.419 . S
C1358 C1359 1.362 . S
C1359 H1349 0.930 . S
C1359 C1352 1.409 . S
C1359 C1358 1.362 . S
H1360 C1366 0.930 . S
H1361 C1369 0.930 . S
H1362 C1370 0.930 . S
H1363 C1371 0.930 . S
H1364 C1374 0.930 . S
H1365 C1375 0.930 . S
C1366 H1360 0.930 . S
C1366 C1367 1.355 . S
C1366 C1368 1.415 . S
C1367 C1366 1.355 . S
C1367 C1369 1.419 . S
C1368 C1366 1.415 . S
C1368 C1373 1.425 . S
C1368 C1375 1.409 . S
C1369 H1361 0.930 . S
C1369 C1367 1.419 . S
C1369 C1370 1.362 . S
C1370 H1362 0.930 . S
C1370 C1369 1.362 . S
C1370 C1373 1.409 . S
C1371 H1363 0.930 . S
C1371 C1372 1.355 . S
C1371 C1373 1.415 . S
C1372 C1371 1.355 . S
C1372 C1374 1.419 . S
C1373 C1368 1.425 . S
C1373 C1370 1.409 . S
C1373 C1371 1.415 . S
C1374 H1364 0.930 . S
C1374 C1372 1.419 . S
C1374 C1375 1.362 . S
C1375 H1365 0.930 . S
C1375 C1368 1.409 . S
C1375 C1374 1.362 . S
H1376 C1382 0.930 . S
H1377 C1385 0.930 1_455 S
H1378 C1386 0.930 . S
H1379 C1387 0.930 . S
H1380 C1390 0.930 . S
H1381 C1391 0.930 . S
C1382 H1376 0.930 . S
C1382 C1383 1.355 1_655 S
C1382 C1384 1.415 . S
C1383 C1382 1.355 1_455 S
C1383 C1385 1.419 1_455 S
C1384 C1382 1.415 . S
C1384 C1389 1.425 . S
C1384 C1391 1.409 . S
C1385 H1377 0.930 1_655 S
C1385 C1383 1.419 1_655 S
C1385 C1386 1.362 . S
C1386 H1378 0.930 . S
C1386 C1385 1.362 . S
C1386 C1389 1.409 . S
C1387 H1379 0.930 . S
C1387 C1388 1.355 . S
C1387 C1389 1.415 . S
C1388 C1387 1.355 . S
C1388 C1390 1.419 . S
C1389 C1384 1.425 . S
C1389 C1386 1.409 . S
C1389 C1387 1.415 . S
C1390 H1380 0.930 . S
C1390 C1388 1.419 . S
C1390 C1391 1.362 . S
C1391 H1381 0.930 . S
C1391 C1384 1.409 . S
C1391 C1390 1.362 . S
H1392 C1398 0.930 . S
H1393 C1401 0.930 . S
H1394 C1402 0.930 . S
H1395 C1403 0.930 . S
H1396 C1406 0.930 . S
H1397 C1407 0.930 . S
C1398 H1392 0.930 . S
C1398 C1399 1.355 1_455 S
C1398 C1400 1.415 . S
C1399 C1398 1.355 1_655 S
C1399 C1401 1.419 . S
C1400 C1398 1.415 . S
C1400 C1405 1.425 . S
C1400 C1407 1.409 . S
C1401 H1393 0.930 . S
C1401 C1399 1.419 . S
C1401 C1402 1.362 . S
C1402 H1394 0.930 . S
C1402 C1401 1.362 . S
C1402 C1405 1.409 1_655 S
C1403 H1395 0.930 . S
C1403 C1404 1.355 . S
C1403 C1405 1.415 . S
C1404 C1403 1.355 . S
C1404 C1406 1.419 . S
C1405 C1400 1.425 . S
C1405 C1402 1.409 1_455 S
C1405 C1403 1.415 . S
C1406 H1396 0.930 . S
C1406 C1404 1.419 . S
C1406 C1407 1.362 . S
C1407 H1397 0.930 . S
C1407 C1400 1.409 . S
C1407 C1406 1.362 . S
H1408 C1414 0.930 . S
H1409 C1417 0.930 . S
H1410 C1418 0.930 . S
H1411 C1419 0.930 . S
H1412 C1422 0.930 . S
H1413 C1423 0.930 . S
C1414 H1408 0.930 . S
C1414 C1415 1.355 . S
C1414 C1416 1.415 . S
C1415 C1414 1.355 . S
C1415 C1417 1.419 . S
C1416 C1414 1.415 . S
C1416 C1421 1.425 . S
C1416 C1423 1.409 . S
C1417 H1409 0.930 . S
C1417 C1415 1.419 . S
C1417 C1418 1.362 . S
C1418 H1410 0.930 . S
C1418 C1417 1.362 . S
C1418 C1421 1.409 . S
C1419 H1411 0.930 . S
C1419 C1420 1.355 . S
C1419 C1421 1.415 . S
C1420 C1419 1.355 . S
C1420 C1422 1.419 . S
C1421 C1416 1.425 . S
C1421 C1418 1.409 . S
C1421 C1419 1.415 . S
C1422 H1412 0.930 . S
C1422 C1420 1.419 . S
C1422 C1423 1.362 . S
C1423 H1413 0.930 . S
C1423 C1416 1.409 . S
C1423 C1422 1.362 . S
H1424 C1430 0.930 . S
H1425 C1433 0.930 . S
H1426 C1434 0.930 . S
H1427 C1435 0.930 . S
H1428 C1438 0.930 . S
H1429 C1439 0.930 . S
C1430 H1424 0.930 . S
C1430 C1431 1.355 . S
C1430 C1432 1.415 . S
C1431 C1430 1.355 . S
C1431 C1433 1.419 . S
C1432 C1430 1.415 . S
C1432 C1437 1.425 . S
C1432 C1439 1.409 . S
C1433 H1425 0.930 . S
C1433 C1431 1.419 . S
C1433 C1434 1.362 . S
C1434 H1426 0.930 . S
C1434 C1433 1.362 . S
C1434 C1437 1.409 . S
C1435 H1427 0.930 . S
C1435 C1436 1.355 . S
C1435 C1437 1.415 . S
C1436 C1435 1.355 . S
C1436 C1438 1.419 . S
C1437 C1432 1.425 . S
C1437 C1434 1.409 . S
C1437 C1435 1.415 . S
C1438 H1428 0.930 . S
C1438 C1436 1.419 . S
C1438 C1439 1.362 . S
C1439 H1429 0.930 . S
C1439 C1432 1.409 . S
C1439 C1438 1.362 . S
H1440 C1446 0.930 . S
H1441 C1449 0.930 1_655 S
H1442 C1450 0.930 . S
H1443 C1451 0.930 . S
H1444 C1454 0.930 . S
H1445 C1455 0.930 . S
C1446 H1440 0.930 . S
C1446 C1447 1.355 1_455 S
C1446 C1448 1.415 . S
C1447 C1446 1.355 1_655 S
C1447 C1449 1.419 1_655 S
C1448 C1446 1.415 . S
C1448 C1453 1.425 . S
C1448 C1455 1.409 . S
C1449 H1441 0.930 1_455 S
C1449 C1447 1.419 1_455 S
C1449 C1450 1.362 . S
C1450 H1442 0.930 . S
C1450 C1449 1.362 . S
C1450 C1453 1.409 . S
C1451 H1443 0.930 . S
C1451 C1452 1.355 . S
C1451 C1453 1.415 . S
C1452 C1451 1.355 . S
C1452 C1454 1.419 . S
C1453 C1448 1.425 . S
C1453 C1450 1.409 . S
C1453 C1451 1.415 . S
C1454 H1444 0.930 . S
C1454 C1452 1.419 . S
C1454 C1455 1.362 . S
C1455 H1445 0.930 . S
C1455 C1448 1.409 . S
C1455 C1454 1.362 . S
H1456 C1462 0.930 . S
H1457 C1465 0.930 . S
H1458 C1466 0.930 . S
H1459 C1467 0.930 . S
H1460 C1470 0.930 . S
H1461 C1471 0.930 . S
C1462 H1456 0.930 . S
C1462 C1463 1.355 . S
C1462 C1464 1.415 . S
C1463 C1462 1.355 . S
C1463 C1465 1.419 . S
C1464 C1462 1.415 . S
C1464 C1469 1.425 . S
C1464 C1471 1.409 . S
C1465 H1457 0.930 . S
C1465 C1463 1.419 . S
C1465 C1466 1.362 . S
C1466 H1458 0.930 . S
C1466 C1465 1.362 . S
C1466 C1469 1.409 . S
C1467 H1459 0.930 . S
C1467 C1468 1.355 . S
C1467 C1469 1.415 . S
C1468 C1467 1.355 . S
C1468 C1470 1.419 . S
C1469 C1464 1.425 . S
C1469 C1466 1.409 . S
C1469 C1467 1.415 . S
C1470 H1460 0.930 . S
C1470 C1468 1.419 . S
C1470 C1471 1.362 . S
C1471 H1461 0.930 . S
C1471 C1464 1.409 . S
C1471 C1470 1.362 . S
H1472 C1478 0.930 . S
H1473 C1481 0.930 . S
H1474 C1482 0.930 . S
H1475 C1483 0.930 . S
H1476 C1486 0.930 . S
H1477 C1487 0.930 . S
C1478 H1472 0.930 . S
C1478 C1479 1.355 . S
C1478 C1480 1.415 . S
C1479 C1478 1.355 . S
C1479 C1481 1.419 . S
C1480 C1478 1.415 . S
C1480 C1485 1.425 . S
C1480 C1487 1.409 1_655 S
C1481 H1473 0.930 . S
C1481 C1479 1.419 . S
C1481 C1482 1.362 . S
C1482 H1474 0.930 . S
C1482 C1481 1.362 . S
C1482 C1485 1.409 . S
C1483 H1475 0.930 . S
C1483 C1484 1.355 1_655 S
C1483 C1485 1.415 . S
C1484 C1483 1.355 1_455 S
C1484 C1486 1.419 . S
C1485 C1480 1.425 . S
C1485 C1482 1.409 . S
C1485 C1483 1.415 . S
C1486 H1476 0.930 . S
C1486 C1484 1.419 . S
C1486 C1487 1.362 . S
C1487 H1477 0.930 . S
C1487 C1480 1.409 1_455 S
C1487 C1486 1.362 . S
H1488 C1494 0.930 . S
H1489 C1497 0.930 . S
H1490 C1498 0.930 . S
H1491 C1499 0.930 . S
H1492 C1502 0.930 . S
H1493 C1503 0.930 . S
C1494 H1488 0.930 . S
C1494 C1495 1.355 . S
C1494 C1496 1.415 . S
C1495 C1494 1.355 . S
C1495 C1497 1.419 . S
C1496 C1494 1.415 . S
C1496 C1501 1.425 . S
C1496 C1503 1.409 . S
C1497 H1489 0.930 . S
C1497 C1495 1.419 . S
C1497 C1498 1.362 . S
C1498 H1490 0.930 . S
C1498 C1497 1.362 . S
C1498 C1501 1.409 . S
C1499 H1491 0.930 . S
C1499 C1500 1.355 . S
C1499 C1501 1.415 . S
C1500 C1499 1.355 . S
C1500 C1502 1.419 . S
C1501 C1496 1.425 . S
C1501 C1498 1.409 . S
C1501 C1499 1.415 . S
C1502 H1492 0.930 . S
C1502 C1500 1.419 . S
C1502 C1503 1.362 . S
C1503 H1493 0.930 . S
C1503 C1496 1.409 . S
C1503 C1502 1.362 . S
H1504 C1510 0.930 . S
H1505 C1513 0.930 . S
H1506 C1514 0.930 . S
H1507 C1515 0.930 . S
H1508 C1518 0.930 . S
H1509 C1519 0.930 . S
C1510 H1504 0.930 . S
C1510 C1511 1.355 . S
C1510 C1512 1.415 . S
C1511 C1510 1.355 . S
C1511 C1513 1.419 . S
C1512 C1510 1.415 . S
C1512 C1517 1.425 . S
C1512 C1519 1.409 1_455 S
C1513 H1505 0.930 . S
C1513 C1511 1.419 . S
C1513 C1514 1.362 . S
C1514 H1506 0.930 . S
C1514 C1513 1.362 . S
C1514 C1517 1.409 . S
C1515 H1507 0.930 . S
C1515 C1516 1.355 1_455 S
C1515 C1517 1.415 . S
C1516 C1515 1.355 1_655 S
C1516 C1518 1.419 . S
C1517 C1512 1.425 . S
C1517 C1514 1.409 . S
C1517 C1515 1.415 . S
C1518 H1508 0.930 . S
C1518 C1516 1.419 . S
C1518 C1519 1.362 . S
C1519 H1509 0.930 . S
C1519 C1512 1.409 1_655 S
C1519 C1518 1.362 . S
H1520 C1526 0.930 . S
H1521 C1529 0.930 . S
H1522 C1530 0.930 . S
H1523 C1531 0.930 . S
H1524 C1534 0.930 . S
H1525 C1535 0.930 . S
C1526 H1520 0.930 . S
C1526 C1527 1.355 . S
C1526 C1528 1.415 . S
C1527 C1526 1.355 . S
C1527 C1529 1.419 . S
C1528 C1526 1.415 . S
C1528 C1533 1.425 . S
C1528 C1535 1.409 . S
C1529 H1521 0.930 . S
C1529 C1527 1.419 . S
C1529 C1530 1.362 . S
C1530 H1522 0.930 . S
C1530 C1529 1.362 . S
C1530 C1533 1.409 . S
C1531 H1523 0.930 . S
C1531 C1532 1.355 . S
C1531 C1533 1.415 1_554 S
C1532 C1531 1.355 . S
C1532 C1534 1.419 . S
C1533 C1528 1.425 . S
C1533 C1530 1.409 . S
C1533 C1531 1.415 1_556 S
C1534 H1524 0.930 . S
C1534 C1532 1.419 . S
C1534 C1535 1.362 1_554 S
C1535 H1525 0.930 . S
C1535 C1528 1.409 . S
C1535 C1534 1.362 1_556 S
H1536 C1542 0.930 . S
H1537 C1545 0.930 . S
H1538 C1546 0.930 . S
H1539 C1547 0.930 . S
H1540 C1550 0.930 . S
H1541 C1551 0.930 . S
C1542 H1536 0.930 . S
C1542 C1543 1.355 . S
C1542 C1544 1.415 . S
C1543 C1542 1.355 . S
C1543 C1545 1.419 . S
C1544 C1542 1.415 . S
C1544 C1549 1.425 . S
C1544 C1551 1.409 . S
C1545 H1537 0.930 . S
C1545 C1543 1.419 . S
C1545 C1546 1.362 . S
C1546 H1538 0.930 . S
C1546 C1545 1.362 . S
C1546 C1549 1.409 . S
C1547 H1539 0.930 . S
C1547 C1548 1.355 . S
C1547 C1549 1.415 . S
C1548 C1547 1.355 . S
C1548 C1550 1.419 . S
C1549 C1544 1.425 . S
C1549 C1546 1.409 . S
C1549 C1547 1.415 . S
C1550 H1540 0.930 . S
C1550 C1548 1.419 . S
C1550 C1551 1.362 . S
C1551 H1541 0.930 . S
C1551 C1544 1.409 . S
C1551 C1550 1.362 . S
H1552 C1558 0.930 . S
H1553 C1561 0.930 . S
H1554 C1562 0.930 . S
H1555 C1563 0.930 . S
H1556 C1566 0.930 . S
H1557 C1567 0.930 . S
C1558 H1552 0.930 . S
C1558 C1559 1.355 . S
C1558 C1560 1.415 . S
C1559 C1558 1.355 . S
C1559 C1561 1.419 . S
C1560 C1558 1.415 . S
C1560 C1565 1.425 . S
C1560 C1567 1.409 . S
C1561 H1553 0.930 . S
C1561 C1559 1.419 . S
C1561 C1562 1.362 . S
C1562 H1554 0.930 . S
C1562 C1561 1.362 . S
C1562 C1565 1.409 . S
C1563 H1555 0.930 . S
C1563 C1564 1.355 . S
C1563 C1565 1.415 . S
C1564 C1563 1.355 . S
C1564 C1566 1.419 . S
C1565 C1560 1.425 . S
C1565 C1562 1.409 . S
C1565 C1563 1.415 . S
C1566 H1556 0.930 . S
C1566 C1564 1.419 . S
C1566 C1567 1.362 . S
C1567 H1557 0.930 . S
C1567 C1560 1.409 . S
C1567 C1566 1.362 . S
H1568 C1574 0.930 . S
H1569 C1577 0.930 . S
H1570 C1578 0.930 . S
H1571 C1579 0.930 . S
H1572 C1582 0.930 . S
H1573 C1583 0.930 . S
C1574 H1568 0.930 . S
C1574 C1575 1.355 . S
C1574 C1576 1.415 . S
C1575 C1574 1.355 . S
C1575 C1577 1.419 . S
C1576 C1574 1.415 . S
C1576 C1581 1.425 . S
C1576 C1583 1.409 1_655 S
C1577 H1569 0.930 . S
C1577 C1575 1.419 . S
C1577 C1578 1.362 . S
C1578 H1570 0.930 . S
C1578 C1577 1.362 . S
C1578 C1581 1.409 . S
C1579 H1571 0.930 . S
C1579 C1580 1.355 1_655 S
C1579 C1581 1.415 . S
C1580 C1579 1.355 1_455 S
C1580 C1582 1.419 . S
C1581 C1576 1.425 . S
C1581 C1578 1.409 . S
C1581 C1579 1.415 . S
C1582 H1572 0.930 . S
C1582 C1580 1.419 . S
C1582 C1583 1.362 . S
C1583 H1573 0.930 . S
C1583 C1576 1.409 1_455 S
C1583 C1582 1.362 . S
H1584 C1590 0.930 . S
H1585 C1593 0.930 . S
H1586 C1594 0.951 . S
H1587 C1595 0.930 . S
H1588 C1598 0.930 . S
H1589 C1599 0.930 . S
C1590 H1584 0.930 . S
C1590 C1591 1.355 . S
C1590 C1592 1.415 . S
C1591 C1590 1.355 . S
C1591 C1593 1.419 . S
C1592 C1590 1.415 . S
C1592 C1597 1.433 . S
C1592 C1599 1.409 . S
C1593 H1585 0.930 . S
C1593 C1591 1.419 . S
C1593 C1594 1.343 1_554 S
C1594 H1586 0.951 . S
C1594 C1593 1.343 1_556 S
C1594 C1597 1.408 1_556 S
C1595 H1587 0.930 . S
C1595 C1596 1.355 . S
C1595 C1597 1.408 1_556 S
C1596 C1595 1.355 . S
C1596 C1598 1.419 1_556 S
C1597 C1592 1.433 . S
C1597 C1594 1.408 1_554 S
C1597 C1595 1.408 1_554 S
C1598 H1588 0.930 . S
C1598 C1596 1.419 1_554 S
C1598 C1599 1.362 . S
C1599 H1589 0.930 . S
C1599 C1592 1.409 . S
C1599 C1598 1.362 . S
H1600 C1606 0.930 . S
H1601 C1609 0.930 . S
H1602 C1610 0.930 . S
H1603 C1611 0.930 . S
H1604 C1614 0.930 . S
H1605 C1615 0.930 . S
C1606 H1600 0.930 . S
C1606 C1607 1.355 . S
C1606 C1608 1.415 . S
C1607 C1606 1.355 . S
C1607 C1609 1.419 . S
C1608 C1606 1.415 . S
C1608 C1613 1.425 . S
C1608 C1615 1.409 . S
C1609 H1601 0.930 . S
C1609 C1607 1.419 . S
C1609 C1610 1.362 . S
C1610 H1602 0.930 . S
C1610 C1609 1.362 . S
C1610 C1613 1.409 . S
C1611 H1603 0.930 . S
C1611 C1612 1.355 . S
C1611 C1613 1.415 . S
C1612 C1611 1.355 . S
C1612 C1614 1.419 . S
C1613 C1608 1.425 . S
C1613 C1610 1.409 . S
C1613 C1611 1.415 . S
C1614 H1604 0.930 . S
C1614 C1612 1.419 . S
C1614 C1615 1.362 . S
C1615 H1605 0.930 . S
C1615 C1608 1.409 . S
C1615 C1614 1.362 . S
H1616 C1622 0.930 . S
H1617 C1625 0.930 . S
H1618 C1626 0.930 . S
H1619 C1627 0.930 . S
H1620 C1630 0.930 . S
H1621 C1631 0.930 . S
C1622 H1616 0.930 . S
C1622 C1623 1.355 . S
C1622 C1624 1.415 . S
C1623 C1622 1.355 . S
C1623 C1625 1.419 . S
C1624 C1622 1.415 . S
C1624 C1629 1.425 . S
C1624 C1631 1.409 . S
C1625 H1617 0.930 . S
C1625 C1623 1.419 . S
C1625 C1626 1.362 . S
C1626 H1618 0.930 . S
C1626 C1625 1.362 . S
C1626 C1629 1.409 . S
C1627 H1619 0.930 . S
C1627 C1628 1.355 . S
C1627 C1629 1.415 . S
C1628 C1627 1.355 . S
C1628 C1630 1.419 . S
C1629 C1624 1.425 . S
C1629 C1626 1.409 . S
C1629 C1627 1.415 . S
C1630 H1620 0.930 . S
C1630 C1628 1.419 . S
C1630 C1631 1.362 . S
C1631 H1621 0.930 . S
C1631 C1624 1.409 . S
C1631 C1630 1.362 . S
H1632 C1638 0.930 . S
H1633 C1641 0.930 . S
H1634 C1642 0.930 . S
H1635 C1643 0.930 . S
H1636 C1646 0.930 . S
H1637 C1647 0.930 . S
C1638 H1632 0.930 . S
C1638 C1639 1.355 . S
C1638 C1640 1.415 . S
C1639 C1638 1.355 . S
C1639 C1641 1.419 . S
C1640 C1638 1.415 . S
C1640 C1645 1.425 . S
C1640 C1647 1.409 1_545 S
C1641 H1633 0.930 . S
C1641 C1639 1.419 . S
C1641 C1642 1.362 . S
C1642 H1634 0.930 . S
C1642 C1641 1.362 . S
C1642 C1645 1.409 . S
C1643 H1635 0.930 . S
C1643 C1644 1.355 . S
C1643 C1645 1.415 1_565 S
C1644 C1643 1.355 . S
C1644 C1646 1.419 . S
C1645 C1640 1.425 . S
C1645 C1642 1.409 . S
C1645 C1643 1.415 1_545 S
C1646 H1636 0.930 . S
C1646 C1644 1.419 . S
C1646 C1647 1.362 . S
C1647 H1637 0.930 . S
C1647 C1640 1.409 1_565 S
C1647 C1646 1.362 . S
H1648 C1654 0.930 . S
H1649 C1657 0.930 . S
H1650 C1658 0.930 . S
H1651 C1659 0.930 . S
H1652 C1662 0.930 . S
H1653 C1663 0.930 . S
C1654 H1648 0.930 . S
C1654 C1655 1.355 . S
C1654 C1656 1.415 1_545 S
C1655 C1654 1.355 . S
C1655 C1657 1.419 . S
C1656 C1654 1.415 1_565 S
C1656 C1661 1.425 . S
C1656 C1663 1.409 . S
C1657 H1649 0.930 . S
C1657 C1655 1.419 . S
C1657 C1658 1.362 1_545 S
C1658 H1650 0.930 . S
C1658 C1657 1.362 1_565 S
C1658 C1661 1.409 . S
C1659 H1651 0.930 . S
C1659 C1660 1.355 . S
C1659 C1661 1.415 . S
C1660 C1659 1.355 . S
C1660 C1662 1.419 . S
C1661 C1656 1.425 . S
C1661 C1658 1.409 . S
C1661 C1659 1.415 . S
C1662 H1652 0.930 . S
C1662 C1660 1.419 . S
C1662 C1663 1.362 . S
C1663 H1653 0.930 . S
C1663 C1656 1.409 . S
C1663 C1662 1.362 . S
H1664 C1670 0.930 . S
H1665 C1673 0.930 . S
H1666 C1674 0.930 . S
H1667 C1675 0.930 . S
H1668 C1678 0.930 . S
H1669 C1679 0.930 . S
C1670 H1664 0.930 . S
C1670 C1671 1.355 . S
C1670 C1672 1.415 . S
C1671 C1670 1.355 . S
C1671 C1673 1.419 . S
C1672 C1670 1.415 . S
C1672 C1677 1.425 . S
C1672 C1679 1.409 . S
C1673 H1665 0.930 . S
C1673 C1671 1.419 . S
C1673 C1674 1.362 . S
C1674 H1666 0.930 . S
C1674 C1673 1.362 . S
C1674 C1677 1.409 . S
C1675 H1667 0.930 . S
C1675 C1676 1.355 . S
C1675 C1677 1.415 . S
C1676 C1675 1.355 . S
C1676 C1678 1.419 . S
C1677 C1672 1.425 . S
C1677 C1674 1.409 . S
C1677 C1675 1.415 . S
C1678 H1668 0.930 . S
C1678 C1676 1.419 . S
C1678 C1679 1.362 . S
C1679 H1669 0.930 . S
C1679 C1672 1.409 . S
C1679 C1678 1.362 . S
C535 C8 1.054 . S
C540 C348 1.021 . S
C551 C282 0.973 . S
C556 C32 1.030 . S
C567 C294 0.981 . S
C572 C52 0.972 . S
C583 C76 1.045 . S
C588 C316 0.988 . S
C599 C96 0.994 . S
C604 C206 0.966 . S
C615 C120 1.052 . S
C620 C228 1.003 . S
C631 C150 0.997 . S
C636 C252 1.050 . S
C647 C172 0.971 . S
C652 C194 1.028 . S
C663 C362 0.991 . S
C668 C448 0.967 . S
C679 C382 1.026 . S
C684 C516 0.970 . S
C695 C406 1.047 . S
C700 C480 0.991 . S
C711 C426 0.965 . S
C716 C502 1.008 . S
C727 C469 1.304 . S
C732 C15 1.332 . S
C743 C29 1.279 . S
C748 C491 1.347 . S
C759 C59 1.278 . S
C764 C367 1.347 . S
C775 C73 1.253 . S
C780 C521 1.331 . S
C791 C439 1.304 . S
C796 C103 1.261 . S
C807 C461 1.341 . S
C812 C117 1.263 . S
C823 C153 1.334 . S
C828 C395 1.318 . S
C839 C175 1.330 . S
C844 C411 1.301 . S
C855 C197 1.332 . S
C860 C109 1.303 . S
C871 C213 1.332 . S
C876 C125 1.323 . S
C887 C235 1.295 . S
C892 C139 1.289 . S
C903 C249 1.315 . S
C908 C161 1.340 . S
C919 C21 1.333 . S
C924 C285 1.255 . S
C935 C301 1.274 . S
C940 C37 1.295 . S
C951 C323 1.330 . S
C956 C65 1.327 . S
C967 C351 1.260 . S
C972 C81 1.305 . S
C983 C329 1.347 . S
C988 C359 1.277 . S
C999 C241 1.289 . S
C1004 C389 1.305 . S
C1015 C403 1.277 . S
C1020 C257 1.347 . S
C1031 C183 1.303 . S
C1036 C433 1.262 . S
C1047 C455 1.287 . S
C1052 C219 1.348 . S
C1063 C271 1.324 . S
C1068 C483 1.332 . S
C1079 C307 1.327 . S
C1084 C505 1.330 . S
C1095 C337 1.295 . S
C1100 C513 1.273 . S
C1111 C404 1.429 . S
C1116 C10 1.516 . S
C1127 C40 1.473 . S
C1132 C436 1.505 . S
C1143 C458 1.426 . S
C1148 C54 1.522 . S
C1159 C84 1.474 . S
C1164 C392 1.487 . S
C1175 C494 1.429 . S
C1180 C98 1.516 . S
C1191 C360 1.468 . S
C1196 C128 1.520 . S
C1207 C514 1.432 . S
C1212 C140 1.532 . S
C1223 C472 1.430 . S
C1228 C162 1.532 . S
C1239 C216 1.465 . S
C1244 C184 1.522 . S
C1255 C238 1.486 . S
C1260 C208 1.474 . S
C1271 C230 1.478 . S
C1276 C250 1.507 . S
C1287 C260 1.495 . S
C1292 C186 1.499 . S
C1303 C340 1.463 . S
C1308 C272 1.486 . S
C1319 C274 1.448 . S
C1324 C296 1.530 . S
C1335 C318 1.508 . S
C1340 C304 1.436 . S
C1351 C338 1.515 . S
C1356 C326 1.430 . S
C1367 C74 1.505 . S
C1372 C370 1.485 . S
C1383 C118 1.426 . S
C1388 C384 1.523 . S
C1399 C142 1.488 . S
C1404 C414 1.474 . S
C1415 C164 1.430 . S
C1420 C428 1.514 . S
C1431 C106 1.438 . S
C1436 C450 1.532 . S
C1447 C30 1.507 . S
C1452 C470 1.480 . S
C1463 C62 1.507 . S
C1468 C492 1.478 . S
C1479 C524 1.473 . S
C1484 C18 1.504 . S
C1495 C7 1.602 . S
C1500 C205 1.606 . S
C1511 C227 1.611 . S
C1516 C43 1.610 . S
C1527 C51 1.601 . S
C1532 C263 1.607 . S
C1543 C87 1.611 . S
C1548 C191 1.599 . S
C1559 C95 1.607 . S
C1564 C345 1.614 . S
C1575 C279 1.600 . S
C1580 C131 1.615 . S
C1591 C147 1.604 . S
C1596 C293 1.603 . S
C1607 C169 1.611 . S
C1612 C315 1.599 . S
C1623 C373 1.607 . S
C1628 C417 1.614 . S
C1639 C381 1.599 . S
C1644 C499 1.613 . S
C1655 C527 1.605 . S
C1660 C425 1.602 . S
C1671 C447 1.599 . S
C1676 C477 1.614 . S
