# Generated by pormake.
# Topology ukg, (4)-cn, num edge types: 1
# Building blocks:
#     Node 0, Type 0, BuildingBlock: KOZSID_clean_sbu_0, # of connection points: 4
#     Node 1, Type 0, BuildingBlock: KOZSID_clean_sbu_0, # of connection points: 4
#     Node 2, Type 0, BuildingBlock: KOZSID_clean_sbu_0, # of connection points: 4
#     Node 3, Type 0, BuildingBlock: KOZSID_clean_sbu_0, # of connection points: 4
#     Node 4, Type 0, BuildingBlock: KOZSID_clean_sbu_0, # of connection points: 4
#     Node 5, Type 0, BuildingBlock: KOZSID_clean_sbu_0, # of connection points: 4
#     Node 6, Type 0, BuildingBlock: KOZSID_clean_sbu_0, # of connection points: 4
#     Node 7, Type 0, BuildingBlock: KOZSID_clean_sbu_0, # of connection points: 4
#     Edge 8, Type (0, 0), BuildingBlock: UVAHIK_clean_linker_0, # of connection points: 2
#     Edge 9, Type (0, 0), BuildingBlock: UVAHIK_clean_linker_0, # of connection points: 2
#     Edge 10, Type (0, 0), BuildingBlock: UVAHIK_clean_linker_0, # of connection points: 2
#     Edge 11, Type (0, 0), BuildingBlock: UVAHIK_clean_linker_0, # of connection points: 2
#     Edge 12, Type (0, 0), BuildingBlock: UVAHIK_clean_linker_0, # of connection points: 2
#     Edge 13, Type (0, 0), BuildingBlock: UVAHIK_clean_linker_0, # of connection points: 2
#     Edge 14, Type (0, 0), BuildingBlock: UVAHIK_clean_linker_0, # of connection points: 2
#     Edge 15, Type (0, 0), BuildingBlock: UVAHIK_clean_linker_0, # of connection points: 2
#     Edge 16, Type (0, 0), BuildingBlock: UVAHIK_clean_linker_0, # of connection points: 2
#     Edge 17, Type (0, 0), BuildingBlock: UVAHIK_clean_linker_0, # of connection points: 2
#     Edge 18, Type (0, 0), BuildingBlock: UVAHIK_clean_linker_0, # of connection points: 2
#     Edge 19, Type (0, 0), BuildingBlock: UVAHIK_clean_linker_0, # of connection points: 2
#     Edge 20, Type (0, 0), BuildingBlock: UVAHIK_clean_linker_0, # of connection points: 2
#     Edge 21, Type (0, 0), BuildingBlock: UVAHIK_clean_linker_0, # of connection points: 2
#     Edge 22, Type (0, 0), BuildingBlock: UVAHIK_clean_linker_0, # of connection points: 2
#     Edge 23, Type (0, 0), BuildingBlock: UVAHIK_clean_linker_0, # of connection points: 2
# Relax obj value: 0.106
# Max RMSD: 0.260
# Mean RMSD: 0.246
data_MOF--net-ukg--node1-KOZSID_clean_sbu_0--edge1-UVAHIK_clean_linker_0
_symmetry_space_group_name_H-M    P1
_symmetry_Int_Tables_number       1
_symmetry_cell_setting            triclinic
loop_
_symmetry_equiv_pos_as_xyz
'x, y, z'
_cell_length_a     44.809939
_cell_length_b     44.834283
_cell_length_c     61.362574
_cell_angle_alpha  90.48306
_cell_angle_beta   89.505235
_cell_angle_gamma 90.037997
loop_
_atom_site_label
_atom_site_type_symbol
_atom_site_fract_x
_atom_site_fract_y
_atom_site_fract_z
_atom_type_partial_charge
C0 C 0.95902 0.65591 0.1563 0.0
C1 C 0.9351 0.67034 0.14684 0.0
C2 C 0.94688 0.6918 0.13363 0.0
C3 C 0.97721 0.68933 0.13583 0.0
N4 N 0.98555 0.6673 0.14941 0.0
Co5 Co 0.02736 0.65779 0.15867 0.0
N6 N 0.04482 0.68975 0.13959 0.0
C7 C 0.02973 0.70716 0.12554 0.0
C8 C 0.04757 0.72691 0.11452 0.0
C9 C 0.07575 0.72183 0.12193 0.0
C10 C 0.07351 0.69918 0.13714 0.0
N11 N 0.06893 0.64927 0.16883 0.0
C12 C 0.09517 0.66319 0.16428 0.0
C13 C 0.11876 0.65034 0.17534 0.0
C14 C 0.10702 0.62786 0.18752 0.0
C15 C 0.07709 0.62818 0.18321 0.0
N16 N 0.01027 0.6249 0.17692 0.0
C17 C 0.0257 0.60516 0.18894 0.0
C18 C 0.00811 0.58473 0.19945 0.0
C19 C 0.97964 0.59189 0.19389 0.0
C20 C 0.98156 0.61647 0.18031 0.0
N21 N 0.03182 0.62878 0.13397 0.0
C22 C 0.03144 0.5858 0.09997 0.0
C23 C 0.04675 0.58048 0.11933 0.0
C24 C 0.04659 0.60213 0.13607 0.0
C25 C 0.01775 0.61345 0.09755 0.0
C26 C 0.01844 0.63442 0.11443 0.0
N27 N 0.02188 0.68669 0.18318 0.0
C28 C 0.01101 0.69623 0.2214 0.0
C29 C 0.99974 0.72449 0.21653 0.0
C30 C 1.00258 0.73445 0.19514 0.0
C31 C 0.01382 0.71553 0.17895 0.0
C32 C 0.02216 0.67781 0.20454 0.0
H33 H 0.01453 0.72449 0.16297 0.0
H34 H 0.02983 0.65609 0.20896 0.0
H35 H 0.05808 0.59662 0.15066 0.0
H36 H 0.00745 0.65485 0.11128 0.0
C37 C 0.9985 0.7067 0.12495 0.0
C38 C 0.95541 0.63172 0.1719 0.0
C39 C 0.09903 0.68831 0.14949 0.0
C40 C 0.05635 0.60817 0.19169 0.0
H41 H 0.91158 0.66586 0.14933 0.0
H42 H 0.93478 0.7074 0.12365 0.0
H43 H 0.04075 0.74371 0.10302 0.0
H44 H 0.09559 0.73391 0.11706 0.0
H45 H 0.14211 0.65643 0.1746 0.0
H46 H 0.11892 0.61289 0.19812 0.0
H47 H 0.0151 0.56729 0.21038 0.0
H48 H 0.95968 0.58069 0.19958 0.0
H49 H 0.05796 0.55941 0.12184 0.0
H50 H 1.0063 0.61894 0.08263 0.0
H51 H 0.00993 0.68783 0.23789 0.0
H52 H 0.99525 0.75661 0.19072 0.0
C53 C 0.39423 0.50182 0.62265 0.0
C54 C 0.42055 0.51756 0.62599 0.0
C55 C 0.41597 0.53552 0.64398 0.0
C56 C 0.38735 0.52958 0.65085 0.0
N57 N 0.37396 0.50868 0.63843 0.0
Co58 Co 0.33284 0.49381 0.64276 0.0
N59 N 0.33189 0.50757 0.67338 0.0
C60 C 0.34808 0.5302 0.68148 0.0
C61 C 0.33936 0.53796 0.70227 0.0
C62 C 0.31641 0.51874 0.7074 0.0
C63 C 0.31323 0.4994 0.68974 0.0
N64 N 0.29163 0.47945 0.64697 0.0
C65 C 0.2765 0.47462 0.66575 0.0
C66 C 0.24619 0.47153 0.66161 0.0
C67 C 0.24295 0.4723 0.63935 0.0
C68 C 0.27116 0.47707 0.63121 0.0
N69 N 0.33337 0.48008 0.61212 0.0
C70 C 0.30904 0.47519 0.59986 0.0
C71 C 0.31609 0.46725 0.57879 0.0
C72 C 0.34671 0.46756 0.57774 0.0
C73 C 0.35674 0.47571 0.59833 0.0
N74 N 0.34837 0.45538 0.65225 0.0
C75 C 0.3675 0.40134 0.67003 0.0
C76 C 0.34439 0.40192 0.65472 0.0
C77 C 0.33533 0.42918 0.64587 0.0
C78 C 0.38119 0.42834 0.67576 0.0
C79 C 0.37128 0.45496 0.66679 0.0
N80 N 0.31725 0.53276 0.63369 0.0
C81 C 0.32061 0.57667 0.61134 0.0
C82 C 0.29755 0.59035 0.62334 0.0
C83 C 0.28414 0.57428 0.64026 0.0
C84 C 0.29437 0.54576 0.64522 0.0
C85 C 0.32991 0.54779 0.61661 0.0
H86 H 0.28409 0.53453 0.6588 0.0
H87 H 0.34774 0.53787 0.60713 0.0
H88 H 0.31731 0.42923 0.6343 0.0
H89 H 0.3816 0.47541 0.6722 0.0
C90 C 0.37368 0.54004 0.67022 0.0
C91 C 0.38804 0.48291 0.60337 0.0
C92 C 0.29043 0.47572 0.68744 0.0
C93 C 0.2803 0.47555 0.60928 0.0
H94 H 0.44079 0.51664 0.61627 0.0
H95 H 0.4319 0.55052 0.65144 0.0
H96 H 0.34873 0.5552 0.7126 0.0
H97 H 0.30312 0.5196 0.72219 0.0
H98 H 0.22824 0.46925 0.6734 0.0
H99 H 0.22256 0.46932 0.63026 0.0
H100 H 0.30086 0.46169 0.56578 0.0
H101 H 0.36002 0.46329 0.56325 0.0
H102 H 0.33333 0.38154 0.64971 0.0
H103 H 0.39878 0.4291 0.68775 0.0
H104 H 0.33141 0.58821 0.59798 0.0
H105 H 0.26648 0.58406 0.65013 0.0
C106 C 0.53899 0.84424 0.15019 0.0
C107 C 0.56283 0.83364 0.13784 0.0
C108 C 0.55153 0.8126 0.12393 0.0
C109 C 0.52153 0.81159 0.12852 0.0
N110 N 0.51295 0.8309 0.14443 0.0
Co111 Co 0.47154 0.83619 0.15661 0.0
N112 N 0.45558 0.80222 0.13846 0.0
C113 C 0.47127 0.78505 0.12418 0.0
C114 C 0.45447 0.76342 0.1142 0.0
C115 C 0.42635 0.76691 0.12259 0.0
C116 C 0.42759 0.79058 0.13727 0.0
N117 N 0.43007 0.84183 0.16857 0.0
C118 C 0.40437 0.82691 0.16423 0.0
C119 C 0.38048 0.83837 0.17619 0.0
C120 C 0.39131 0.86148 0.18831 0.0
C121 C 0.42108 0.86279 0.18317 0.0
N122 N 0.4875 0.86958 0.1752 0.0
C123 C 0.4718 0.88683 0.18939 0.0
C124 C 0.48882 0.90703 0.20061 0.0
C125 C 0.51726 0.90218 0.19342 0.0
C126 C 0.51589 0.87925 0.17807 0.0
N127 N 0.46277 0.86492 0.13271 0.0
C128 C 0.45681 0.90678 0.09869 0.0
C129 C 0.45126 0.91493 0.1204 0.0
C130 C 0.45391 0.89371 0.13699 0.0
C131 C 0.46426 0.87713 0.09429 0.0
C132 C 0.46715 0.85689 0.11129 0.0
N133 N 0.48109 0.80769 0.18026 0.0
C134 C 0.48583 0.79585 0.21859 0.0
C135 C 0.50358 0.77099 0.21351 0.0
C136 C 0.50808 0.76387 0.19156 0.0
C137 C 0.49667 0.78218 0.17542 0.0
C138 C 0.4748 0.8138 0.20177 0.0
H139 H 0.50155 0.77561 0.15911 0.0
H140 H 0.46193 0.83291 0.20647 0.0
H141 H 0.449 0.90123 0.15316 0.0
H142 H 0.47354 0.83502 0.10655 0.0
C143 C 0.50152 0.79068 0.1199 0.0
C144 C 0.5423 0.86658 0.16747 0.0
C145 C 0.40138 0.80174 0.14913 0.0
C146 C 0.44122 0.88286 0.19229 0.0
H147 H 0.58603 0.84011 0.13905 0.0
H148 H 0.56389 0.79895 0.11236 0.0
H149 H 0.46172 0.74728 0.10205 0.0
H150 H 0.40701 0.75378 0.1182 0.0
H151 H 0.35756 0.83075 0.17625 0.0
H152 H 0.379 0.87553 0.19965 0.0
H153 H 0.48151 0.92293 0.21291 0.0
H154 H 0.53684 0.91382 0.19921 0.0
H155 H 0.44488 0.93758 0.12459 0.0
H156 H 0.46891 0.86967 0.07776 0.0
H157 H 0.48137 0.80203 0.2354 0.0
H158 H 0.52081 0.74432 0.18674 0.0
C159 C 0.09653 0.97852 0.61614 0.0
C160 C 0.07108 0.96086 0.61677 0.0
C161 C 0.07328 0.94336 0.63495 0.0
C162 C 0.09988 0.9512 0.64438 0.0
N163 N 0.11436 0.97268 0.63332 0.0
Co164 Co 0.15373 0.98979 0.64095 0.0
N165 N 0.15049 0.97562 0.67138 0.0
C166 C 0.13222 0.95396 0.67858 0.0
C167 C 0.13459 0.94952 0.70063 0.0
C168 C 0.15576 0.96957 0.70761 0.0
C169 C 0.16525 0.98507 0.68933 0.0
N170 N 0.19311 1.00678 0.64851 0.0
C171 C 0.20434 0.01358 0.66832 0.0
C172 C 0.2331 0.02488 0.6664 0.0
C173 C 0.23987 0.02517 0.64454 0.0
C174 C 0.21502 0.01398 0.63438 0.0
N175 N 0.1572 1.00388 0.61053 0.0
C176 C 0.18265 0.01196 0.60035 0.0
C177 C 0.17813 0.02111 0.57935 0.0
C178 C 0.14802 0.01833 0.57608 0.0
C179 C 0.13581 0.00732 0.59529 0.0
N180 N 0.13449 0.02719 0.64976 0.0
C181 C 0.1111 0.07994 0.66783 0.0
C182 C 0.13581 0.08068 0.65364 0.0
C183 C 0.147 0.05409 0.64464 0.0
C184 C 0.09762 0.05233 0.67192 0.0
C185 C 0.10961 0.02635 0.66278 0.0
N186 N 0.173 0.95204 0.63257 0.0
C187 C 0.17548 0.90808 0.60971 0.0
C188 C 0.19716 0.89556 0.6232 0.0
C189 C 0.20708 0.91233 0.64108 0.0
C190 C 0.19467 0.94032 0.64553 0.0
C191 C 0.16393 0.93643 0.61454 0.0
H192 H 0.20216 0.95215 0.65983 0.0
H193 H 0.1472 0.94543 0.60392 0.0
H194 H 0.16637 0.05516 0.63411 0.0
H195 H 0.09937 1.00542 0.66699 0.0
C196 C 0.10963 0.94266 0.66511 0.0
C197 C 0.10441 0.99841 0.59805 0.0
C198 C 0.18919 0.00753 0.6891 0.0
C199 C 0.20919 0.01529 0.61203 0.0
H200 H 0.05303 0.96041 0.60516 0.0
H201 H 0.05698 0.92752 0.64092 0.0
H202 H 0.12152 0.93456 0.71065 0.0
H203 H 0.16318 0.97249 0.72422 0.0
H204 H 0.24768 0.03206 0.6794 0.0
H205 H 0.25998 0.03374 0.63696 0.0
H206 H 0.19454 0.02985 0.56804 0.0
H207 H 0.13651 0.0237 0.5612 0.0
H208 H 0.1467 0.10157 0.64977 0.0
H209 H 0.07869 0.05054 0.68293 0.0
H210 H 0.16742 0.89602 0.59557 0.0
H211 H 0.2236 0.90346 0.65205 0.0
C212 C 1.0041 0.35661 0.91689 0.0
C213 C 0.01407 0.34477 0.93637 0.0
C214 C 0.02028 0.31545 0.93242 0.0
C215 C 0.01368 0.31099 0.91089 0.0
N216 N 1.00323 0.33558 0.90086 0.0
Co217 Co 0.99153 0.33893 0.86949 0.0
N218 N 1.00349 0.29662 0.8633 0.0
C219 C 0.01235 0.27611 0.8779 0.0
C220 C 0.01959 0.24906 0.86873 0.0
C221 C 0.01554 0.25264 0.8469 0.0
C222 C 1.00616 0.28184 0.84404 0.0
N223 N 0.98083 0.34253 0.83789 0.0
C224 C 0.98643 0.32361 0.82096 0.0
C225 C 0.9774 0.33551 0.80129 0.0
C226 C 0.96605 0.36314 0.80591 0.0
C227 C 0.96889 0.36655 0.82802 0.0
N228 N 0.97911 0.38119 0.87583 0.0
C229 C 0.96634 0.40036 0.86176 0.0
C230 C 0.96107 0.42808 0.87054 0.0
C231 C 0.97116 0.42663 0.89142 0.0
C232 C 0.98195 0.39791 0.89428 0.0
N233 N 0.03251 0.35242 0.86204 0.0
C234 C 0.08953 0.36749 0.84556 0.0
C235 C 0.06454 0.38502 0.84119 0.0
C236 C 0.03664 0.3773 0.8496 0.0
C237 C 0.08561 0.34293 0.85928 0.0
C238 C 0.0571 0.33597 0.86744 0.0
N239 N 0.95004 0.32507 0.87656 0.0
C240 C 0.89699 0.32656 0.86918 0.0
C241 C 0.89154 0.30233 0.88275 0.0
C242 C 0.91571 0.29052 0.89406 0.0
C243 C 0.94452 0.30212 0.89075 0.0
C244 C 0.92592 0.33753 0.86648 0.0
H245 H 0.9619 0.29182 0.89964 0.0
H246 H 0.92802 0.35595 0.85591 0.0
H247 H 0.01854 0.3913 0.8452 0.0
H248 H 0.05521 0.31682 0.87767 0.0
C249 C 0.0172 0.28404 0.89961 0.0
C250 C 0.99567 0.38791 0.91452 0.0
C251 C 1.00155 0.29494 0.82269 0.0
C252 C 0.96246 0.39266 0.8398 0.0
H253 H 0.01664 0.35614 0.95187 0.0
H254 H 0.02878 0.29935 0.94385 0.0
H255 H 0.02808 0.22951 0.87683 0.0
H256 H 0.01988 0.23597 0.83441 0.0
H257 H 0.97951 0.32557 0.78523 0.0
H258 H 0.95769 0.37923 0.79441 0.0
H259 H 0.95198 0.44739 0.86247 0.0
H260 H 0.9712 0.44493 0.90302 0.0
H261 H 0.06608 0.4041 0.83053 0.0
H262 H 0.10434 0.32895 0.86355 0.0
H263 H 0.87891 0.33712 0.86052 0.0
H264 H 0.91262 0.27184 0.90493 0.0
C265 C 0.61504 0.5147 0.33694 0.0
C266 C 0.59048 0.51554 0.32329 0.0
C267 C 0.58428 0.48678 0.31758 0.0
C268 C 0.60528 0.47008 0.32798 0.0
N269 N 0.6245 0.48634 0.3401 0.0
Co270 Co 0.6582 0.4706 0.35799 0.0
N271 N 0.65103 0.42867 0.34754 0.0
C272 C 0.63061 0.41979 0.33276 0.0
C273 C 0.63166 0.38995 0.32786 0.0
C274 C 0.65423 0.37902 0.34018 0.0
C275 C 0.66555 0.40291 0.35209 0.0
N276 N 0.6909 0.45446 0.37678 0.0
C277 C 0.70093 0.42608 0.3793 0.0
C278 C 0.72338 0.42469 0.39468 0.0
C279 C 0.72786 0.45317 0.40205 0.0
C280 C 0.70784 0.47027 0.39091 0.0
N281 N 0.66644 0.51279 0.36745 0.0
C282 C 0.68833 0.52201 0.38097 0.0
C283 C 0.68994 0.55241 0.38329 0.0
C284 C 0.66806 0.56332 0.37019 0.0
C285 C 0.65429 0.53884 0.36065 0.0
N286 N 0.62963 0.4652 0.38279 0.0
C287 C 0.58766 0.46222 0.41742 0.0
C288 C 0.61414 0.47828 0.41954 0.0
C289 C 0.63462 0.47928 0.40234 0.0
C290 C 0.58297 0.44662 0.39789 0.0
C291 C 0.60405 0.44852 0.38084 0.0
N292 N 0.68674 0.47686 0.33337 0.0
C293 C 0.73429 0.49647 0.32124 0.0
C294 C 0.72424 0.49862 0.29985 0.0
C295 C 0.69592 0.48714 0.29514 0.0
C296 C 0.67768 0.47622 0.31205 0.0
C297 C 0.7155 0.4855 0.33752 0.0
H298 H 0.656 0.46829 0.30766 0.0
H299 H 0.72456 0.4853 0.35347 0.0
H300 H 0.65421 0.49194 0.40529 0.0
H301 H 0.59902 0.43666 0.36615 0.0
C302 C 0.60969 0.43966 0.32468 0.0
C303 C 0.62971 0.54149 0.34529 0.0
C304 C 0.69001 0.39984 0.36749 0.0
C305 C 0.70637 0.50144 0.39171 0.0
H306 H 0.57875 0.53494 0.31745 0.0
H307 H 0.56725 0.47908 0.30645 0.0
H308 H 0.61751 0.37758 0.31679 0.0
H309 H 0.66146 0.356 0.3404 0.0
H310 H 0.73547 0.40514 0.39987 0.0
H311 H 0.74423 0.46061 0.41377 0.0
H312 H 0.70522 0.56514 0.39328 0.0
H313 H 0.66283 0.58664 0.36787 0.0
H314 H 0.61913 0.49017 0.43452 0.0
H315 H 0.56279 0.43372 0.39555 0.0
H316 H 0.75648 0.50393 0.32559 0.0
H317 H 0.68734 0.48776 0.27871 0.0
C318 C 0.47539 0.13552 0.91694 0.0
C319 C 0.4652 0.14797 0.93645 0.0
C320 C 0.46233 0.17801 0.93308 0.0
C321 C 0.47055 0.18226 0.91174 0.0
N322 N 0.47813 0.1567 0.90143 0.0
Co323 Co 0.49068 0.15287 0.87049 0.0
N324 N 0.47358 0.19228 0.86338 0.0
C325 C 0.46717 0.21433 0.87766 0.0
C326 C 0.45561 0.23913 0.86783 0.0
C327 C 0.45481 0.23218 0.84601 0.0
C328 C 0.46588 0.20337 0.8438 0.0
N329 N 0.50327 0.14926 0.83955 0.0
C330 C 0.49305 0.16392 0.8219 0.0
C331 C 0.50757 0.15418 0.80309 0.0
C332 C 0.5278 0.13295 0.80938 0.0
C333 C 0.52443 0.13079 0.83159 0.0
N334 N 0.50792 0.11349 0.87768 0.0
C335 C 0.52874 0.09881 0.86583 0.0
C336 C 0.53701 0.07233 0.87511 0.0
C337 C 0.52054 0.07043 0.89403 0.0
C338 C 0.503 0.09592 0.89522 0.0
N339 N 0.4527 0.13382 0.8632 0.0
C340 C 0.39917 0.11161 0.8461 0.0
C341 C 0.42644 0.09753 0.84153 0.0
C342 C 0.45279 0.10891 0.85021 0.0
C343 C 0.39916 0.13619 0.86043 0.0
C344 C 0.42613 0.14677 0.86896 0.0
N345 N 0.52902 0.17195 0.87725 0.0
C346 C 0.56889 0.20474 0.86625 0.0
C347 C 0.58697 0.1946 0.88321 0.0
C348 C 0.57465 0.17391 0.89781 0.0
C349 C 0.54564 0.16302 0.89462 0.0
C350 C 0.54025 0.19314 0.86353 0.0
H351 H 0.53704 0.14667 0.90584 0.0
H352 H 0.5275 0.2008 0.84986 0.0
H353 H 0.47345 0.0983 0.84551 0.0
H354 H 0.42562 0.16612 0.87952 0.0
C355 C 0.46682 0.20869 0.90006 0.0
C356 C 0.48425 0.10411 0.91412 0.0
C357 C 0.47082 0.18802 0.82286 0.0
C358 C 0.53625 0.10829 0.84473 0.0
H359 H 0.46042 0.13666 0.95158 0.0
H360 H 0.45411 0.19455 0.94459 0.0
H361 H 0.44747 0.25931 0.87563 0.0
H362 H 0.44704 0.24666 0.83323 0.0
H363 H 0.50391 0.1615 0.78657 0.0
H364 H 0.54218 0.11971 0.79886 0.0
H365 H 0.55248 0.05593 0.86862 0.0
H366 H 0.52163 0.05257 0.90575 0.0
H367 H 0.42771 0.07867 0.83041 0.0
H368 H 0.37856 0.1475 0.86472 0.0
H369 H 0.57689 0.22132 0.85489 0.0
H370 H 0.58761 0.16534 0.91118 0.0
C371 C 0.87789 0.98148 0.33525 0.0
C372 C 0.90091 0.97938 0.32001 0.0
C373 C 0.90659 0.00764 0.31308 0.0
C374 C 0.88677 0.02525 0.3244 0.0
N375 N 0.86909 0.01011 0.33844 0.0
Co376 Co 0.8361 0.02694 0.35715 0.0
N377 N 0.84256 0.06808 0.34538 0.0
C378 C 0.86441 0.07664 0.33144 0.0
C379 C 0.86418 0.10647 0.32687 0.0
C380 C 0.84079 0.11778 0.3386 0.0
C381 C 0.82787 0.09402 0.3496 0.0
N382 N 0.80226 0.04372 0.37522 0.0
C383 C 0.79074 0.07177 0.37619 0.0
C384 C 0.76661 0.07345 0.39047 0.0
C385 C 0.76288 0.04563 0.39898 0.0
C386 C 0.78471 0.0285 0.38934 0.0
N387 N 0.83019 0.98592 0.3693 0.0
C388 C 0.81112 0.97807 0.38546 0.0
C389 C 0.81177 0.94819 0.39009 0.0
C390 C 0.83232 0.93622 0.37594 0.0
C391 C 0.84302 0.95957 0.36344 0.0
N392 N 0.86497 0.03556 0.38116 0.0
C393 C 0.90696 0.03939 0.41536 0.0
C394 C 0.87669 0.03488 0.41968 0.0
C395 C 0.85637 0.03308 0.4026 0.0
C396 C 0.91568 0.04348 0.39365 0.0
C397 C 0.89445 0.04194 0.37698 0.0
N398 N 0.80754 0.01749 0.33346 0.0
C399 C 0.76404 0.99005 0.32172 0.0
C400 C 0.77106 0.99495 0.29984 0.0
C401 C 0.79567 0.01313 0.29507 0.0
C402 C 0.81354 0.02416 0.31208 0.0
C403 C 0.78224 1.00151 0.33806 0.0
H404 H 0.83255 0.03733 0.30764 0.0
H405 H 0.77583 0.99635 0.35432 0.0
H406 H 0.83396 0.02897 0.40734 0.0
H407 H 0.90258 0.04554 0.36086 0.0
C408 C 0.88396 0.05598 0.3221 0.0
C409 C 0.86458 0.95554 0.3457 0.0
C410 C 0.80189 0.09743 0.36399 0.0
C411 C 0.7903 0.99846 0.39391 0.0
H412 H 0.91217 0.95943 0.31426 0.0
H413 H 0.92289 0.01447 0.30099 0.0
H414 H 0.87912 0.11853 0.31614 0.0
H415 H 0.83406 0.14095 0.339 0.0
H416 H 0.75317 0.09283 0.39442 0.0
H417 H 0.74638 0.03876 0.41091 0.0
H418 H 0.79804 0.93631 0.40174 0.0
H419 H 0.83829 0.91288 0.3746 0.0
H420 H 0.86871 0.03156 0.4362 0.0
H421 H 0.93883 0.04774 0.3895 0.0
H422 H 0.74469 0.97693 0.32629 0.0
H423 H 0.80175 0.01788 0.27834 0.0
C424 C 0.97549 0.42101 0.9445 0.0
C425 C 1.00009 0.40906 0.93314 0.0
C426 C 0.9797 0.43987 0.96252 0.0
C427 C 0.03391 0.45951 1.00525 0.0
H428 H 0.98649 0.5314 0.01121 0.0
C429 C 0.05382 0.54768 0.07407 0.0
C430 C 0.02872 0.56286 0.0824 0.0
C431 C 0.05111 0.52821 0.05613 0.0
C432 C 0.99964 0.51119 0.01006 0.0
H433 H 0.04829 0.40703 0.93172 0.0
H434 H 0.05579 0.43988 0.9634 0.0
H435 H 0.9801 0.49923 0.97946 0.0
H436 H 0.98091 0.56823 0.07932 0.0
H437 H 0.97598 0.53386 0.04871 0.0
H438 H 0.05311 0.47117 0.03604 0.0
C439 C 0.03324 0.43475 0.95837 0.0
C440 C 0.99602 0.49279 0.99175 0.0
C441 C 0.029 0.41614 0.9402 0.0
C442 C 1.00076 0.55725 0.07301 0.0
C443 C 0.99799 0.53766 0.05533 0.0
C444 C 0.03736 0.47781 0.02371 0.0
C445 C 0.00863 0.44687 0.96976 0.0
C446 C 0.013 0.46666 0.98913 0.0
C447 C 0.02318 0.52329 0.04629 0.0
C448 C 0.02014 0.50385 0.02646 0.0
H449 H 0.953 0.41549 0.93953 0.0
H450 H 0.96026 0.44852 0.97107 0.0
H451 H 0.04716 0.43938 1.00383 0.0
H452 H 0.07567 0.55168 0.0809 0.0
H453 H 0.07107 0.51777 0.04959 0.0
C454 C 0.42144 0.50427 0.57434 0.0
C455 C 0.41087 0.47928 0.5857 0.0
C456 C 0.44106 0.50085 0.55664 0.0
C457 C 0.46457 0.44771 0.51385 0.0
H458 H 0.53293 0.50019 0.50841 0.0
C459 C 0.55236 0.4362 0.44339 0.0
C460 C 0.56526 0.46263 0.43551 0.0
C461 C 0.53334 0.43685 0.46171 0.0
C462 C 0.51372 0.48559 0.50943 0.0
H463 H 0.4115 0.43111 0.587 0.0
H464 H 0.44581 0.42496 0.55581 0.0
H465 H 0.50077 0.50387 0.54046 0.0
H466 H 0.56696 0.5106 0.43988 0.0
H467 H 0.53338 0.51192 0.47119 0.0
H468 H 0.47712 0.42987 0.48257 0.0
C469 C 0.43923 0.44724 0.56082 0.0
C470 C 0.49534 0.48764 0.52792 0.0
C471 C 0.41985 0.45072 0.57874 0.0
C472 C 0.55781 0.48977 0.4458 0.0
C473 C 0.53866 0.49048 0.46389 0.0
C474 C 0.48284 0.44583 0.4952 0.0
C475 C 0.4501 0.47229 0.54957 0.0
C476 C 0.47039 0.46892 0.53031 0.0
C477 C 0.52659 0.464 0.47243 0.0
C478 C 0.50753 0.46498 0.49261 0.0
H479 H 0.41405 0.52647 0.57893 0.0
H480 H 0.44853 0.52058 0.54811 0.0
H481 H 0.44536 0.43312 0.5151 0.0
H482 H 0.55781 0.41493 0.43586 0.0
H483 H 0.52468 0.41596 0.46784 0.0
C484 C 0.47059 0.95656 0.08276 0.0
C485 C 0.45609 0.92888 0.08067 0.0
C486 C 0.47269 0.97595 0.065 0.0
C487 C 0.43962 0.99375 0.0116 0.0
H488 H 0.51734 0.02764 0.99878 0.0
C489 C 0.46262 0.0583 0.9316 0.0
C490 C 0.48152 0.08318 0.9328 0.0
C491 C 0.45946 0.03918 0.94946 0.0
C492 C 0.49533 0.0188 1.00222 0.0
H493 H 0.43132 0.90046 0.05852 0.0
H494 H 0.43471 0.93437 0.02763 0.0
H495 H 0.51069 0.99648 0.03077 0.0
H496 H 0.51292 0.10704 0.95306 0.0
H497 H 0.50679 0.07455 0.98447 0.0
H498 H 0.42405 0.01641 0.98331 0.0
C499 C 0.44459 0.94105 0.04296 0.0
C500 C 0.49156 1.00085 0.02061 0.0
C501 C 0.44281 0.92154 0.06063 0.0
C502 C 0.49788 0.08817 0.95189 0.0
C503 C 0.49455 0.06931 0.96979 0.0
C504 C 0.4433 0.01198 0.99332 0.0
C505 C 0.46 0.96827 0.0448 0.0
C506 C 0.46368 0.98805 0.02552 0.0
C507 C 0.47516 0.04457 0.96893 0.0
C508 C 0.47124 0.02478 0.98832 0.0
H509 H 0.48124 0.96279 0.09791 0.0
H510 H 0.48444 0.99689 0.06703 0.0
H511 H 0.41778 0.98445 0.01502 0.0
H512 H 0.45011 0.05381 0.9169 0.0
H513 H 0.44482 0.02008 0.94792 0.0
C514 C 0.92277 0.05217 0.45363 0.0
C515 C 0.92905 0.03843 0.4334 0.0
C516 C 0.94216 0.04892 0.47123 0.0
C517 C 0.99912 0.99794 0.49253 0.0
H518 H 0.01872 0.06382 0.53115 0.0
C519 C 0.08733 0.98636 0.56015 0.0
C520 C 0.0832 1.00229 0.57972 0.0
C521 C 0.06831 0.99088 0.54252 0.0
C522 C 0.01315 0.04503 0.52076 0.0
H523 H 0.96101 0.01092 0.41577 0.0
H524 H 0.99494 1.00532 0.44647 0.0
H525 H 0.98688 0.07236 0.49976 0.0
H526 H 0.05529 0.03425 0.59676 0.0
H527 H 0.02131 0.04173 0.56617 0.0
H528 H 0.0248 0.97043 0.51361 0.0
C529 C 0.97488 0.0185 0.44873 0.0
C530 C 0.99497 0.05 0.50267 0.0
C531 C 0.95561 0.02199 0.43106 0.0
C532 C 0.05906 0.02203 0.58168 0.0
C533 C 0.03982 0.02643 0.56409 0.0
C534 C 0.01707 0.99291 0.5107 0.0
C535 C 0.96822 0.03162 0.46911 0.0
C536 C 0.98783 0.02653 0.48827 0.0
C537 C 0.04434 0.01112 0.54415 0.0
C538 C 0.02449 0.0164 0.52505 0.0
H539 H 0.90262 0.06518 0.45594 0.0
H540 H 0.93626 0.05921 0.4867 0.0
H541 H 0.99362 0.97924 0.48201 0.0
H542 H 0.10568 0.97078 0.55838 0.0
H543 H 0.07285 0.97891 0.52746 0.0
C544 C 0.14117 0.71877 0.16473 0.0
C545 C 0.12909 0.70251 0.14725 0.0
C546 C 0.17049 0.72957 0.16366 0.0
C547 C 0.23311 0.74651 0.12542 0.0
H548 H 0.28102 0.74014 0.17749 0.0
C549 C 0.34932 0.80311 0.13424 0.0
C550 C 0.37139 0.78793 0.14586 0.0
C551 C 0.32019 0.79178 0.1331 0.0
C552 C 0.26811 0.74185 0.16272 0.0
H553 H 0.13786 0.68508 0.11489 0.0
H554 H 0.18917 0.70403 0.11286 0.0
H555 H 0.22949 0.72286 0.17801 0.0
H556 H 0.38074 0.74885 0.16498 0.0
H557 H 0.32997 0.72867 0.16283 0.0
H558 H 0.27196 0.76521 0.11008 0.0
C559 C 0.17598 0.70872 0.12735 0.0
C560 C 0.23833 0.7323 0.1631 0.0
C561 C 0.14663 0.69783 0.12847 0.0
C562 C 0.36407 0.76085 0.15587 0.0
C563 C 0.33493 0.74952 0.15478 0.0
C564 C 0.26291 0.75619 0.12507 0.0
C565 C 0.18849 0.72438 0.14508 0.0
C566 C 0.22034 0.73457 0.1445 0.0
C567 C 0.31243 0.76504 0.14364 0.0
C568 C 0.28085 0.75404 0.14373 0.0
H569 H 0.12805 0.72256 0.1794 0.0
H570 H 0.1791 0.74193 0.17749 0.0
H571 H 0.21995 0.7488 0.11082 0.0
H572 H 0.35445 0.82418 0.12655 0.0
H573 H 0.3035 0.80455 0.12458 0.0
C574 C 0.25772 0.62922 0.61865 0.0
C575 C 0.28815 0.62159 0.61902 0.0
C576 C 0.24885 0.65896 0.61636 0.0
C577 C 0.27462 0.7351 0.62725 0.0
H578 H 0.20955 0.75856 0.58988 0.0
C579 C 0.23924 0.85855 0.6209 0.0
C580 C 0.20861 0.86479 0.6193 0.0
C581 C 0.24981 0.82929 0.6187 0.0
C582 C 0.22753 0.75241 0.60062 0.0
H583 H 0.33312 0.63919 0.61696 0.0
H584 H 0.31763 0.69122 0.61311 0.0
H585 H 0.22617 0.70673 0.58996 0.0
H586 H 0.16507 0.84518 0.61402 0.0
H587 H 0.18324 0.79409 0.61075 0.0
H588 H 0.27546 0.78029 0.63857 0.0
C589 C 0.30064 0.67413 0.61457 0.0
C590 C 0.23713 0.72267 0.60057 0.0
C591 C 0.30951 0.64432 0.61658 0.0
C592 C 0.18884 0.84114 0.61507 0.0
C593 C 0.19934 0.8118 0.61314 0.0
C594 C 0.26482 0.76474 0.62751 0.0
C595 C 0.27021 0.68183 0.61466 0.0
C596 C 0.26073 0.71365 0.61394 0.0
C597 C 0.22997 0.80537 0.61514 0.0
C598 C 0.24104 0.77386 0.61425 0.0
H599 H 0.24073 0.61218 0.62037 0.0
H600 H 0.22525 0.66415 0.61662 0.0
H601 H 0.29256 0.72879 0.63799 0.0
H602 H 0.25508 0.87635 0.62389 0.0
H603 H 0.27359 0.82547 0.61984 0.0
C604 C 0.63217 0.20975 0.90532 0.0
C605 C 0.61865 0.20487 0.88495 0.0
C606 C 0.66178 0.21987 0.9066 0.0
C607 C 0.71872 0.26018 0.87448 0.0
H608 H 0.77607 0.22516 0.91368 0.0
C609 C 0.84373 0.28557 0.86558 0.0
C610 C 0.86094 0.28939 0.88444 0.0
C611 C 0.81449 0.27489 0.86688 0.0
C612 C 0.76026 0.23549 0.90284 0.0
H613 H 0.62656 0.20561 0.84999 0.0
H614 H 0.67754 0.22368 0.85227 0.0
H615 H 0.72432 0.20761 0.91399 0.0
H616 H 0.86096 0.28434 0.91952 0.0
H617 H 0.80952 0.26599 0.9219 0.0
H618 H 0.7542 0.28821 0.8634 0.0
C619 C 0.66513 0.22018 0.86726 0.0
C620 C 0.73059 0.22538 0.90301 0.0
C621 C 0.63575 0.20989 0.86597 0.0
C622 C 0.84834 0.28152 0.90467 0.0
C623 C 0.81885 0.27097 0.90601 0.0
C624 C 0.74819 0.27039 0.8744 0.0
C625 C 0.67848 0.22553 0.88756 0.0
C626 C 0.70959 0.2373 0.88857 0.0
C627 C 0.80139 0.26789 0.88713 0.0
C628 C 0.76956 0.25788 0.8883 0.0
H629 H 0.61972 0.20635 0.92029 0.0
H630 H 0.67137 0.22392 0.9225 0.0
H631 H 0.70298 0.2703 0.86346 0.0
H632 H 0.85295 0.29077 0.84968 0.0
H633 H 0.80215 0.27204 0.85191 0.0
C634 C 0.73126 0.36275 0.36108 0.0
C635 C 0.7037 0.36987 0.37079 0.0
C636 C 0.74245 0.33358 0.36195 0.0
C637 C 0.73396 0.26075 0.39041 0.0
H638 H 0.76934 0.22878 0.33729 0.0
C639 C 0.79159 0.14431 0.38567 0.0
C640 C 0.78768 0.12743 0.36654 0.0
C641 C 0.78083 0.17365 0.38717 0.0
C642 C 0.75932 0.23722 0.35224 0.0
H643 H 0.66647 0.35258 0.38942 0.0
H644 H 0.68585 0.30157 0.39101 0.0
H645 H 0.75248 0.28039 0.33849 0.0
H646 H 0.76902 0.12749 0.33418 0.0
H647 H 0.74984 0.17853 0.33676 0.0
H648 H 0.74035 0.21731 0.404 0.0
C649 C 0.69909 0.31843 0.38289 0.0
C650 C 0.75 0.26704 0.35302 0.0
C651 C 0.68792 0.34759 0.38197 0.0
C652 C 0.77223 0.14011 0.34911 0.0
C653 C 0.76154 0.16942 0.35056 0.0
C654 C 0.7434 0.23091 0.38965 0.0
C655 C 0.72629 0.31086 0.37256 0.0
C656 C 0.73709 0.27925 0.37209 0.0
C657 C 0.76604 0.18679 0.36949 0.0
C658 C 0.75607 0.21866 0.3705 0.0
H659 H 0.74374 0.3796 0.35231 0.0
H660 H 0.76366 0.32877 0.35411 0.0
H661 H 0.72435 0.26939 0.40543 0.0
H662 H 0.8037 0.13505 0.39924 0.0
H663 H 0.78496 0.18635 0.40193 0.0
C664 C 0.74677 0.50234 0.26199 0.0
C665 C 0.74299 0.51401 0.28317 0.0
C666 C 0.76589 0.51642 0.24699 0.0
C667 C 0.80506 0.58839 0.23638 0.0
H668 H 0.86107 0.53939 0.2036 0.0
C669 C 0.91463 0.63496 0.19984 0.0
C670 C 0.9254 0.62292 0.18015 0.0
C671 C 0.88893 0.62327 0.20971 0.0
C672 C 0.84528 0.55345 0.21231 0.0
H673 H 0.75525 0.55043 0.30481 0.0
H674 H 0.78857 0.57457 0.27899 0.0
H675 H 0.82232 0.5157 0.2256 0.0
H676 H 0.91788 0.58986 0.15497 0.0
H677 H 0.87253 0.56955 0.17196 0.0
H678 H 0.82839 0.62613 0.22348 0.0
C679 C 0.77686 0.55463 0.27381 0.0
C680 C 0.82301 0.53982 0.22495 0.0
C681 C 0.75799 0.54054 0.28875 0.0
C682 C 0.90964 0.59965 0.17006 0.0
C683 C 0.88395 0.58787 0.17993 0.0
C684 C 0.8273 0.602 0.22375 0.0
C685 C 0.78133 0.54267 0.25279 0.0
C686 C 0.80297 0.5571 0.2375 0.0
C687 C 0.87357 0.59913 0.20012 0.0
C688 C 0.84807 0.58473 0.21185 0.0
H689 H 0.73556 0.48194 0.25718 0.0
H690 H 0.76861 0.50673 0.23087 0.0
H691 H 0.78967 0.60243 0.24549 0.0
H692 H 0.92682 0.6526 0.20804 0.0
H693 H 0.88193 0.63227 0.22536 0.0
C694 C 0.35526 0.35333 0.68917 0.0
C695 C 0.3767 0.37324 0.68087 0.0
C696 C 0.36396 0.32882 0.70164 0.0
C697 C 0.42962 0.28249 0.71661 0.0
H698 H 0.38557 0.2702 0.77043 0.0
C699 C 0.47875 0.21945 0.78974 0.0
C700 C 0.45958 0.20223 0.80274 0.0
C701 C 0.46744 0.23635 0.77263 0.0
C702 C 0.39786 0.27288 0.7553 0.0
H703 H 0.42415 0.38211 0.67821 0.0
H704 H 0.43928 0.33969 0.70003 0.0
H705 H 0.36778 0.30653 0.74429 0.0
H706 H 0.41377 0.18898 0.80825 0.0
H707 H 0.39383 0.21812 0.77805 0.0
H708 H 0.46004 0.24926 0.72784 0.0
C709 C 0.41575 0.34284 0.6969 0.0
C710 C 0.38763 0.29377 0.74028 0.0
C711 C 0.40706 0.36736 0.68455 0.0
C712 C 0.42897 0.2018 0.79818 0.0
C713 C 0.4176 0.21871 0.78105 0.0
C714 C 0.43984 0.26157 0.73162 0.0
C715 C 0.39431 0.32355 0.70597 0.0
C716 C 0.40364 0.29922 0.7209 0.0
C717 C 0.43663 0.23659 0.76826 0.0
C718 C 0.42436 0.25683 0.75134 0.0
H719 H 0.33169 0.35734 0.68676 0.0
H720 H 0.34688 0.31422 0.70817 0.0
H721 H 0.44226 0.28575 0.70169 0.0
H722 H 0.50234 0.22072 0.79337 0.0
H723 H 0.48271 0.25023 0.76343 0.0
C724 C 0.58678 0.85822 0.19095 0.0
C725 C 0.5723 0.87562 0.17541 0.0
C726 C 0.6119 0.86926 0.20178 0.0
C727 C 0.66926 0.92991 0.20204 0.0
H728 H 0.66742 0.91632 0.26433 0.0
C729 C 0.7426 0.99591 0.2644 0.0
C730 C 0.753 0.98016 0.28254 0.0
C731 C 0.72313 0.98223 0.24951 0.0
C732 C 0.66864 0.92003 0.24693 0.0
H733 H 0.57309 0.91746 0.15818 0.0
H734 H 0.61698 0.937 0.17709 0.0
H735 H 0.62985 0.89339 0.2414 0.0
H736 H 0.75288 0.9371 0.29835 0.0
H737 H 0.71949 0.9133 0.27246 0.0
H738 H 0.70797 0.95702 0.20781 0.0
C739 C 0.60931 0.9147 0.18084 0.0
C740 C 0.64703 0.90677 0.23372 0.0
C741 C 0.5842 0.90358 0.16998 0.0
C742 C 0.74471 0.95009 0.28484 0.0
C743 C 0.72547 0.93644 0.27 0.0
C744 C 0.69098 0.94323 0.21532 0.0
C745 C 0.62296 0.89805 0.19737 0.0
C746 C 0.64699 0.91145 0.21109 0.0
C747 C 0.71379 0.95247 0.25242 0.0
C748 C 0.69097 0.93841 0.23796 0.0
H749 H 0.57781 0.83665 0.19544 0.0
H750 H 0.62215 0.85556 0.21408 0.0
H751 H 0.67005 0.93388 0.18467 0.0
H752 H 0.74855 0.01911 0.26221 0.0
H753 H 0.71452 0.9953 0.23622 0.0
C754 C 0.04354 0.27813 0.79855 0.0
C755 C 0.01282 0.27892 0.80299 0.0
C756 C 0.05478 0.26028 0.78158 0.0
C757 C 0.03294 0.21682 0.73215 0.0
H758 H 0.10426 0.17155 0.74497 0.0
C759 C 0.06969 0.11228 0.68277 0.0
C760 C 0.10039 0.10726 0.67947 0.0
C761 C 0.05969 0.13613 0.69573 0.0
C762 C 0.08461 0.18435 0.74093 0.0
H763 H 0.9696 0.26223 0.79339 0.0
H764 H 0.9891 0.23069 0.76374 0.0
H765 H 0.08552 0.20783 0.77139 0.0
H766 H 0.14462 0.124 0.68678 0.0
H767 H 0.12719 0.1659 0.7091 0.0
H768 H 0.03177 0.19274 0.70184 0.0
C769 C 1.00458 0.24422 0.77301 0.0
C770 C 0.07383 0.20522 0.75612 0.0
C771 C 0.99336 0.26216 0.78997 0.0
C772 C 0.12082 0.12734 0.68882 0.0
C773 C 0.11083 0.15116 0.70184 0.0
C774 C 0.04371 0.19587 0.71696 0.0
C775 C 0.03551 0.24266 0.76882 0.0
C776 C 0.04772 0.22159 0.75202 0.0
C777 C 0.08015 0.15555 0.70578 0.0
C778 C 0.06956 0.17919 0.72124 0.0
H779 H 0.05888 0.29083 0.80855 0.0
H780 H 0.07864 0.26001 0.77863 0.0
H781 H 0.01302 0.22932 0.7283 0.0
H782 H 0.05334 0.0974 0.67563 0.0
H783 H 0.03593 0.13868 0.69851 0.0
C784 C 0.12736 0.40397 0.8311 0.0
C785 C 0.11877 0.37426 0.83483 0.0
C786 C 0.15241 0.41055 0.81831 0.0
C787 C 0.20013 0.37668 0.77497 0.0
H788 H 0.24217 0.45177 0.78112 0.0
C789 C 0.25856 0.4333 0.70249 0.0
C790 C 0.28011 0.4558 0.70595 0.0
C791 C 0.2448 0.41876 0.71995 0.0
C792 C 0.23122 0.43039 0.77925 0.0
H793 H 0.13113 0.32811 0.82895 0.0
H794 H 0.17564 0.33955 0.80746 0.0
H795 H 0.20833 0.43572 0.80974 0.0
H796 H 0.31083 0.47195 0.73078 0.0
H797 H 0.28676 0.44736 0.761 0.0
H798 H 0.22363 0.37094 0.74477 0.0
C799 C 0.1624 0.35786 0.81387 0.0
C800 C 0.21127 0.42139 0.7956 0.0
C801 C 0.13706 0.35126 0.82651 0.0
C802 C 0.29152 0.4585 0.72725 0.0
C803 C 0.27803 0.44367 0.74479 0.0
C804 C 0.22044 0.38545 0.75878 0.0
C805 C 0.17 0.38762 0.80909 0.0
C806 C 0.19463 0.3949 0.79336 0.0
C807 C 0.25336 0.4248 0.74151 0.0
C808 C 0.23553 0.41295 0.7603 0.0
H809 H 0.11422 0.42232 0.83758 0.0
H810 H 0.15713 0.43375 0.81493 0.0
H811 H 0.18779 0.35619 0.77248 0.0
H812 H 0.25162 0.42683 0.68635 0.0
H813 H 0.22661 0.40365 0.7164 0.0
C814 C 0.63784 0.58431 0.32003 0.0
C815 C 0.62081 0.57106 0.33659 0.0
C816 C 0.62705 0.60931 0.30908 0.0
C817 C 0.56835 0.66863 0.31022 0.0
H818 H 0.57951 0.66523 0.24755 0.0
C819 C 0.50262 0.74287 0.24912 0.0
C820 C 0.51826 0.75269 0.23054 0.0
C821 C 0.51609 0.72316 0.26376 0.0
C822 C 0.57648 0.66685 0.26505 0.0
H823 H 0.57997 0.57396 0.35547 0.0
H824 H 0.5608 0.61754 0.33629 0.0
H825 H 0.60197 0.6273 0.27011 0.0
H826 H 0.56098 0.75126 0.2137 0.0
H827 H 0.58436 0.71738 0.23912 0.0
H828 H 0.54234 0.7081 0.30491 0.0
C829 C 0.58263 0.609 0.33183 0.0
C830 C 0.58948 0.64505 0.27805 0.0
C831 C 0.59352 0.58404 0.34282 0.0
C832 C 0.54805 0.74356 0.22755 0.0
C833 C 0.56146 0.72405 0.24213 0.0
C834 C 0.55526 0.69052 0.29715 0.0
C835 C 0.59887 0.62148 0.31439 0.0
C836 C 0.58568 0.6456 0.30082 0.0
C837 C 0.54549 0.71299 0.26016 0.0
C838 C 0.55924 0.68994 0.27438 0.0
H839 H 0.65893 0.57456 0.31496 0.0
H840 H 0.64048 0.61865 0.29607 0.0
H841 H 0.5651 0.66993 0.32771 0.0
H842 H 0.47964 0.74946 0.25186 0.0
H843 H 0.50309 0.71503 0.27743 0.0
C844 C 0.35185 0.1228 0.82591 0.0
C845 C 0.37154 0.10176 0.83472 0.0
C846 C 0.32788 0.11361 0.81297 0.0
C847 C 0.28263 0.04726 0.79678 0.0
H848 H 0.27109 0.0915 0.7435 0.0
C849 C 0.22048 0.9989 0.72213 0.0
C850 C 0.20323 0.01828 0.70957 0.0
C851 C 0.23724 0.00989 0.73958 0.0
C852 C 0.27358 0.07914 0.75846 0.0
H853 H 0.38045 0.05444 0.83771 0.0
H854 H 0.33907 0.03847 0.81493 0.0
H855 H 0.3069 0.10931 0.7702 0.0
H856 H 0.18979 0.0641 0.70519 0.0
H857 H 0.21873 0.08347 0.73594 0.0
H858 H 0.24973 0.01672 0.78473 0.0
C859 C 0.34197 0.06209 0.81809 0.0
C860 C 0.29417 0.08939 0.77382 0.0
C861 C 0.36593 0.07127 0.83099 0.0
C862 C 0.20263 0.04874 0.71491 0.0
C863 C 0.21942 0.05979 0.73234 0.0
C864 C 0.26203 0.03699 0.78139 0.0
C865 C 0.32296 0.08315 0.80854 0.0
C866 C 0.29927 0.0734 0.79307 0.0
C867 C 0.23735 0.04057 0.74469 0.0
C868 C 0.25751 0.0526 0.7619 0.0
H869 H 0.35563 0.14646 0.82828 0.0
H870 H 0.31347 0.13045 0.80615 0.0
H871 H 0.28561 0.03462 0.81156 0.0
H872 H 0.22188 0.97543 0.7179 0.0
H873 H 0.25114 0.99451 0.74845 0.0
C874 C 0.95631 0.75649 0.22718 0.0
C875 C 0.98352 0.74323 0.2329 0.0
C876 C 0.94173 0.77614 0.24143 0.0
C877 C 0.93778 0.80369 0.29874 0.0
H878 H 0.90403 0.87343 0.2713 0.0
C879 C 0.8976 0.9104 0.34567 0.0
C880 C 0.87272 0.92537 0.33738 0.0
C881 C 0.90918 0.88525 0.33482 0.0
C882 C 0.91288 0.8539 0.27925 0.0
H883 H 0.01613 0.73922 0.25853 0.0
H884 H 0.99078 0.77418 0.28354 0.0
H885 H 0.92853 0.83563 0.24903 0.0
H886 H 0.83966 0.92556 0.31196 0.0
H887 H 0.85932 0.88129 0.29319 0.0
H888 H 0.92241 0.82261 0.32911 0.0
C889 C 0.98063 0.76911 0.26799 0.0
C890 C 0.92701 0.83214 0.26644 0.0
C891 C 0.99521 0.74914 0.25368 0.0
C892 C 0.8587 0.91409 0.31873 0.0
C893 C 0.87021 0.88901 0.30788 0.0
C894 C 0.92365 0.82563 0.31164 0.0
C895 C 0.954 0.78336 0.26182 0.0
C896 C 0.93947 0.8066 0.27593 0.0
C897 C 0.89617 0.87481 0.31539 0.0
C898 C 0.91083 0.85093 0.302 0.0
H899 H 0.94636 0.75184 0.21148 0.0
H900 H 0.92086 0.78593 0.23633 0.0
H901 H 0.94694 0.78425 0.30661 0.0
H902 H 0.90899 0.91913 0.35986 0.0
H903 H 0.92928 0.87504 0.34098 0.0
loop_
_geom_bond_atom_site_label_1
_geom_bond_atom_site_label_2
_geom_bond_distance
_geom_bond_site_symmetry_2
_ccdc_geom_bond_type
C0 C1 1.443 . S
C0 N4 1.376 . S
C0 C38 1.389 . S
C1 C0 1.443 . S
C1 C2 1.340 . S
C1 H41 0.951 . S
C2 C1 1.340 . S
C2 C3 1.439 . S
C2 H42 0.950 . S
C3 C2 1.439 . S
C3 N4 1.374 . S
C3 C37 1.395 . S
N4 C0 1.376 . S
N4 C3 1.374 . S
N4 Co5 2.008 1_655 S
Co5 N4 2.008 1_455 S
Co5 N6 1.995 . S
Co5 N11 2.008 . S
Co5 N16 1.995 1_455 S
Co5 N21 2.282 . S
Co5 N27 2.282 1_455 S
N6 Co5 1.995 . S
N6 C7 1.376 1_455 S
N6 C10 1.383 . S
C7 N6 1.376 1_655 S
C7 C8 1.446 1_655 S
C7 C37 1.391 . S
C8 C7 1.446 1_455 S
C8 C9 1.339 . S
C8 H43 0.949 . S
C9 C8 1.339 . S
C9 C10 1.439 . S
C9 H44 0.950 . S
C10 N6 1.383 . S
C10 C9 1.439 . S
C10 C39 1.392 . S
N11 Co5 2.008 . S
N11 C12 1.376 . S
N11 C15 1.374 . S
C12 N11 1.376 . S
C12 C13 1.443 . S
C12 C39 1.389 . S
C13 C12 1.443 . S
C13 C14 1.340 . S
C13 H45 0.951 . S
C14 C13 1.340 . S
C14 C15 1.439 . S
C14 H46 0.950 . S
C15 N11 1.374 . S
C15 C14 1.439 . S
C15 C40 1.395 . S
N16 Co5 1.995 1_655 S
N16 C17 1.376 1_655 S
N16 C20 1.383 . S
C17 N16 1.376 1_455 S
C17 C18 1.446 1_455 S
C17 C40 1.391 . S
C18 C17 1.446 1_655 S
C18 C19 1.339 . S
C18 H47 0.949 . S
C19 C18 1.339 . S
C19 C20 1.439 . S
C19 H48 0.950 . S
C20 N16 1.383 . S
C20 C19 1.439 . S
C20 C38 1.392 . S
N21 Co5 2.282 . S
N21 C24 1.332 . S
N21 C26 1.332 . S
C22 C23 1.386 . S
C22 C25 1.388 . S
C23 C22 1.386 . S
C23 C24 1.382 . S
C23 H49 0.950 . S
C24 N21 1.332 . S
C24 C23 1.382 . S
C24 H35 0.952 . S
C25 C22 1.388 . S
C25 C26 1.382 . S
C25 H50 0.950 . S
C26 N21 1.332 . S
C26 C25 1.382 . S
C26 H36 0.948 1_455 S
N27 Co5 2.282 1_655 S
N27 C31 1.332 . S
N27 C32 1.332 . S
C28 C29 1.388 . S
C28 C32 1.382 . S
C28 H51 0.950 . S
C29 C28 1.388 . S
C29 C30 1.386 . S
C30 C29 1.386 . S
C30 C31 1.382 . S
C30 H52 0.950 . S
C31 N27 1.332 . S
C31 C30 1.382 . S
C31 H33 0.952 . S
C32 N27 1.332 . S
C32 C28 1.382 . S
C32 H34 0.948 1_655 S
H33 C31 0.952 . S
H34 C32 0.948 1_455 S
H35 C24 0.952 . S
H36 C26 0.948 1_655 S
C37 C3 1.395 . S
C37 C7 1.391 . S
C38 C0 1.389 . S
C38 C20 1.392 . S
C39 C10 1.392 . S
C39 C12 1.389 . S
C40 C15 1.395 . S
C40 C17 1.391 . S
H41 C1 0.951 . S
H42 C2 0.950 . S
H43 C8 0.949 . S
H44 C9 0.950 . S
H45 C13 0.951 . S
H46 C14 0.950 . S
H47 C18 0.949 . S
H48 C19 0.950 . S
H49 C23 0.950 . S
H50 C25 0.950 . S
H51 C28 0.950 . S
H52 C30 0.950 . S
C53 C54 1.443 . S
C53 N57 1.376 . S
C53 C91 1.389 . S
C54 C53 1.443 . S
C54 C55 1.340 . S
C54 H94 0.951 . S
C55 C54 1.340 . S
C55 C56 1.439 . S
C55 H95 0.950 . S
C56 C55 1.439 . S
C56 N57 1.374 . S
C56 C90 1.395 . S
N57 C53 1.376 . S
N57 C56 1.374 . S
N57 Co58 2.008 . S
Co58 N57 2.008 . S
Co58 N59 1.995 . S
Co58 N64 2.008 . S
Co58 N69 1.995 . S
Co58 N74 2.282 . S
Co58 N80 2.282 . S
N59 Co58 1.995 . S
N59 C60 1.376 . S
N59 C63 1.383 . S
C60 N59 1.376 . S
C60 C61 1.446 . S
C60 C90 1.391 . S
C61 C60 1.446 . S
C61 C62 1.339 . S
C61 H96 0.949 . S
C62 C61 1.339 . S
C62 C63 1.439 . S
C62 H97 0.950 . S
C63 N59 1.383 . S
C63 C62 1.439 . S
C63 C92 1.392 . S
N64 Co58 2.008 . S
N64 C65 1.376 . S
N64 C68 1.374 . S
C65 N64 1.376 . S
C65 C66 1.443 . S
C65 C92 1.389 . S
C66 C65 1.443 . S
C66 C67 1.340 . S
C66 H98 0.951 . S
C67 C66 1.340 . S
C67 C68 1.439 . S
C67 H99 0.950 . S
C68 N64 1.374 . S
C68 C67 1.439 . S
C68 C93 1.395 . S
N69 Co58 1.995 . S
N69 C70 1.376 . S
N69 C73 1.383 . S
C70 N69 1.376 . S
C70 C71 1.446 . S
C70 C93 1.391 . S
C71 C70 1.446 . S
C71 C72 1.339 . S
C71 H100 0.949 . S
C72 C71 1.339 . S
C72 C73 1.439 . S
C72 H101 0.950 . S
C73 N69 1.383 . S
C73 C72 1.439 . S
C73 C91 1.392 . S
N74 Co58 2.282 . S
N74 C77 1.332 . S
N74 C79 1.332 . S
C75 C76 1.386 . S
C75 C78 1.388 . S
C76 C75 1.386 . S
C76 C77 1.382 . S
C76 H102 0.950 . S
C77 N74 1.332 . S
C77 C76 1.382 . S
C77 H88 0.952 . S
C78 C75 1.388 . S
C78 C79 1.382 . S
C78 H103 0.950 . S
C79 N74 1.332 . S
C79 C78 1.382 . S
C79 H89 0.948 . S
N80 Co58 2.282 . S
N80 C84 1.332 . S
N80 C85 1.332 . S
C81 C82 1.388 . S
C81 C85 1.382 . S
C81 H104 0.950 . S
C82 C81 1.388 . S
C82 C83 1.386 . S
C83 C82 1.386 . S
C83 C84 1.382 . S
C83 H105 0.950 . S
C84 N80 1.332 . S
C84 C83 1.382 . S
C84 H86 0.952 . S
C85 N80 1.332 . S
C85 C81 1.382 . S
C85 H87 0.948 . S
H86 C84 0.952 . S
H87 C85 0.948 . S
H88 C77 0.952 . S
H89 C79 0.948 . S
C90 C56 1.395 . S
C90 C60 1.391 . S
C91 C53 1.389 . S
C91 C73 1.392 . S
C92 C63 1.392 . S
C92 C65 1.389 . S
C93 C68 1.395 . S
C93 C70 1.391 . S
H94 C54 0.951 . S
H95 C55 0.950 . S
H96 C61 0.949 . S
H97 C62 0.950 . S
H98 C66 0.951 . S
H99 C67 0.950 . S
H100 C71 0.949 . S
H101 C72 0.950 . S
H102 C76 0.950 . S
H103 C78 0.950 . S
H104 C81 0.950 . S
H105 C83 0.950 . S
C106 C107 1.443 . S
C106 N110 1.376 . S
C106 C144 1.389 . S
C107 C106 1.443 . S
C107 C108 1.340 . S
C107 H147 0.951 . S
C108 C107 1.340 . S
C108 C109 1.439 . S
C108 H148 0.950 . S
C109 C108 1.439 . S
C109 N110 1.374 . S
C109 C143 1.395 . S
N110 C106 1.376 . S
N110 C109 1.374 . S
N110 Co111 2.008 . S
Co111 N110 2.008 . S
Co111 N112 1.995 . S
Co111 N117 2.008 . S
Co111 N122 1.995 . S
Co111 N127 2.282 . S
Co111 N133 2.282 . S
N112 Co111 1.995 . S
N112 C113 1.376 . S
N112 C116 1.383 . S
C113 N112 1.376 . S
C113 C114 1.446 . S
C113 C143 1.391 . S
C114 C113 1.446 . S
C114 C115 1.339 . S
C114 H149 0.949 . S
C115 C114 1.339 . S
C115 C116 1.439 . S
C115 H150 0.950 . S
C116 N112 1.383 . S
C116 C115 1.439 . S
C116 C145 1.392 . S
N117 Co111 2.008 . S
N117 C118 1.376 . S
N117 C121 1.374 . S
C118 N117 1.376 . S
C118 C119 1.443 . S
C118 C145 1.389 . S
C119 C118 1.443 . S
C119 C120 1.340 . S
C119 H151 0.951 . S
C120 C119 1.340 . S
C120 C121 1.439 . S
C120 H152 0.950 . S
C121 N117 1.374 . S
C121 C120 1.439 . S
C121 C146 1.395 . S
N122 Co111 1.995 . S
N122 C123 1.376 . S
N122 C126 1.383 . S
C123 N122 1.376 . S
C123 C124 1.446 . S
C123 C146 1.391 . S
C124 C123 1.446 . S
C124 C125 1.339 . S
C124 H153 0.949 . S
C125 C124 1.339 . S
C125 C126 1.439 . S
C125 H154 0.950 . S
C126 N122 1.383 . S
C126 C125 1.439 . S
C126 C144 1.392 . S
N127 Co111 2.282 . S
N127 C130 1.332 . S
N127 C132 1.332 . S
C128 C129 1.386 . S
C128 C131 1.388 . S
C129 C128 1.386 . S
C129 C130 1.382 . S
C129 H155 0.950 . S
C130 N127 1.332 . S
C130 C129 1.382 . S
C130 H141 0.952 . S
C131 C128 1.388 . S
C131 C132 1.382 . S
C131 H156 0.950 . S
C132 N127 1.332 . S
C132 C131 1.382 . S
C132 H142 0.948 . S
N133 Co111 2.282 . S
N133 C137 1.332 . S
N133 C138 1.332 . S
C134 C135 1.388 . S
C134 C138 1.382 . S
C134 H157 0.950 . S
C135 C134 1.388 . S
C135 C136 1.386 . S
C136 C135 1.386 . S
C136 C137 1.382 . S
C136 H158 0.950 . S
C137 N133 1.332 . S
C137 C136 1.382 . S
C137 H139 0.952 . S
C138 N133 1.332 . S
C138 C134 1.382 . S
C138 H140 0.948 . S
H139 C137 0.952 . S
H140 C138 0.948 . S
H141 C130 0.952 . S
H142 C132 0.948 . S
C143 C109 1.395 . S
C143 C113 1.391 . S
C144 C106 1.389 . S
C144 C126 1.392 . S
C145 C116 1.392 . S
C145 C118 1.389 . S
C146 C121 1.395 . S
C146 C123 1.391 . S
H147 C107 0.951 . S
H148 C108 0.950 . S
H149 C114 0.949 . S
H150 C115 0.950 . S
H151 C119 0.951 . S
H152 C120 0.950 . S
H153 C124 0.949 . S
H154 C125 0.950 . S
H155 C129 0.950 . S
H156 C131 0.950 . S
H157 C134 0.950 . S
H158 C136 0.950 . S
C159 C160 1.443 . S
C159 N163 1.376 . S
C159 C197 1.389 . S
C160 C159 1.443 . S
C160 C161 1.340 . S
C160 H200 0.951 . S
C161 C160 1.340 . S
C161 C162 1.439 . S
C161 H201 0.950 . S
C162 C161 1.439 . S
C162 N163 1.374 . S
C162 C196 1.395 . S
N163 C159 1.376 . S
N163 C162 1.374 . S
N163 Co164 2.008 . S
Co164 N163 2.008 . S
Co164 N165 1.995 . S
Co164 N170 2.008 1_565 S
Co164 N175 1.995 1_565 S
Co164 N180 2.282 1_565 S
Co164 N186 2.282 . S
N165 Co164 1.995 . S
N165 C166 1.376 . S
N165 C169 1.383 . S
C166 N165 1.376 . S
C166 C167 1.446 . S
C166 C196 1.391 . S
C167 C166 1.446 . S
C167 C168 1.339 . S
C167 H202 0.949 . S
C168 C167 1.339 . S
C168 C169 1.439 . S
C168 H203 0.950 . S
C169 N165 1.383 . S
C169 C168 1.439 . S
C169 C198 1.392 1_565 S
N170 Co164 2.008 1_545 S
N170 C171 1.376 . S
N170 C174 1.374 . S
C171 N170 1.376 . S
C171 C172 1.443 . S
C171 C198 1.389 . S
C172 C171 1.443 . S
C172 C173 1.340 . S
C172 H204 0.951 . S
C173 C172 1.340 . S
C173 C174 1.439 . S
C173 H205 0.950 . S
C174 N170 1.374 . S
C174 C173 1.439 . S
C174 C199 1.395 . S
N175 Co164 1.995 1_545 S
N175 C176 1.376 . S
N175 C179 1.383 . S
C176 N175 1.376 . S
C176 C177 1.446 . S
C176 C199 1.391 . S
C177 C176 1.446 . S
C177 C178 1.339 . S
C177 H206 0.949 . S
C178 C177 1.339 . S
C178 C179 1.439 . S
C178 H207 0.950 . S
C179 N175 1.383 . S
C179 C178 1.439 . S
C179 C197 1.392 1_545 S
N180 Co164 2.282 1_545 S
N180 C183 1.332 . S
N180 C185 1.332 . S
C181 C182 1.386 . S
C181 C184 1.388 . S
C182 C181 1.386 . S
C182 C183 1.382 . S
C182 H208 0.950 . S
C183 N180 1.332 . S
C183 C182 1.382 . S
C183 H194 0.952 . S
C184 C181 1.388 . S
C184 C185 1.382 . S
C184 H209 0.950 . S
C185 N180 1.332 . S
C185 C184 1.382 . S
C185 H195 0.948 . S
N186 Co164 2.282 . S
N186 C190 1.332 . S
N186 C191 1.332 . S
C187 C188 1.388 . S
C187 C191 1.382 . S
C187 H210 0.950 . S
C188 C187 1.388 . S
C188 C189 1.386 . S
C189 C188 1.386 . S
C189 C190 1.382 . S
C189 H211 0.950 . S
C190 N186 1.332 . S
C190 C189 1.382 . S
C190 H192 0.952 . S
C191 N186 1.332 . S
C191 C187 1.382 . S
C191 H193 0.948 . S
H192 C190 0.952 . S
H193 C191 0.948 . S
H194 C183 0.952 . S
H195 C185 0.948 . S
C196 C162 1.395 . S
C196 C166 1.391 . S
C197 C159 1.389 . S
C197 C179 1.392 1_565 S
C198 C169 1.392 1_545 S
C198 C171 1.389 . S
C199 C174 1.395 . S
C199 C176 1.391 . S
H200 C160 0.951 . S
H201 C161 0.950 . S
H202 C167 0.949 . S
H203 C168 0.950 . S
H204 C172 0.951 . S
H205 C173 0.950 . S
H206 C177 0.949 . S
H207 C178 0.950 . S
H208 C182 0.950 . S
H209 C184 0.950 . S
H210 C187 0.950 . S
H211 C189 0.950 . S
C212 C213 1.437 1_655 S
C212 N216 1.367 1_655 S
C212 C250 1.405 . S
C213 C212 1.437 1_455 S
C213 C214 1.340 . S
C213 H253 0.951 . S
C214 C213 1.340 . S
C214 C215 1.439 . S
C214 H254 0.950 . S
C215 C214 1.439 . S
C215 N216 1.374 . S
C215 C249 1.395 . S
N216 C212 1.367 1_455 S
N216 C215 1.374 . S
N216 Co217 2.008 1_455 S
Co217 N216 2.008 1_655 S
Co217 N218 1.995 1_655 S
Co217 N223 2.008 . S
Co217 N228 1.995 . S
Co217 N233 2.282 1_655 S
Co217 N239 2.282 . S
N218 Co217 1.995 1_455 S
N218 C219 1.376 . S
N218 C222 1.383 . S
C219 N218 1.376 . S
C219 C220 1.446 . S
C219 C249 1.391 . S
C220 C219 1.446 . S
C220 C221 1.339 . S
C220 H255 0.949 . S
C221 C220 1.339 . S
C221 C222 1.439 . S
C221 H256 0.950 . S
C222 N218 1.383 . S
C222 C221 1.439 . S
C222 C251 1.392 . S
N223 Co217 2.008 . S
N223 C224 1.369 1_655 S
N223 C227 1.374 . S
C224 N223 1.369 1_455 S
C224 C225 1.439 1_455 S
C224 C251 1.400 . S
C225 C224 1.439 1_655 S
C225 C226 1.340 . S
C225 H257 0.951 . S
C226 C225 1.340 . S
C226 C227 1.439 . S
C226 H258 0.950 . S
C227 N223 1.374 . S
C227 C226 1.439 . S
C227 C252 1.395 . S
N228 Co217 1.995 . S
N228 C229 1.376 . S
N228 C232 1.383 . S
C229 N228 1.376 . S
C229 C230 1.446 . S
C229 C252 1.391 . S
C230 C229 1.446 . S
C230 C231 1.339 . S
C230 H259 0.949 . S
C231 C230 1.339 . S
C231 C232 1.439 . S
C231 H260 0.950 . S
C232 N228 1.383 . S
C232 C231 1.439 . S
C232 C250 1.392 . S
N233 Co217 2.282 1_455 S
N233 C236 1.332 . S
N233 C238 1.332 . S
C234 C235 1.386 . S
C234 C237 1.388 . S
C235 C234 1.386 . S
C235 C236 1.382 . S
C235 H261 0.950 . S
C236 N233 1.332 . S
C236 C235 1.382 . S
C236 H247 0.952 . S
C237 C234 1.388 . S
C237 C238 1.382 . S
C237 H262 0.950 . S
C238 N233 1.332 . S
C238 C237 1.382 . S
C238 H248 0.948 . S
N239 Co217 2.282 . S
N239 C243 1.332 . S
N239 C244 1.332 . S
C240 C241 1.388 . S
C240 C244 1.382 . S
C240 H263 0.950 . S
C241 C240 1.388 . S
C241 C242 1.386 . S
C242 C241 1.386 . S
C242 C243 1.382 . S
C242 H264 0.950 . S
C243 N239 1.332 . S
C243 C242 1.382 . S
C243 H245 0.952 . S
C244 N239 1.332 . S
C244 C240 1.382 . S
C244 H246 0.948 . S
H245 C243 0.952 . S
H246 C244 0.948 . S
H247 C236 0.952 . S
H248 C238 0.948 . S
C249 C215 1.395 . S
C249 C219 1.391 . S
C250 C212 1.405 . S
C250 C232 1.392 . S
C251 C222 1.392 . S
C251 C224 1.400 . S
C252 C227 1.395 . S
C252 C229 1.391 . S
H253 C213 0.951 . S
H254 C214 0.950 . S
H255 C220 0.949 . S
H256 C221 0.950 . S
H257 C225 0.951 . S
H258 C226 0.950 . S
H259 C230 0.949 . S
H260 C231 0.950 . S
H261 C235 0.950 . S
H262 C237 0.950 . S
H263 C240 0.950 . S
H264 C242 0.950 . S
C265 C266 1.443 . S
C265 N269 1.376 . S
C265 C303 1.389 . S
C266 C265 1.443 . S
C266 C267 1.340 . S
C266 H306 0.951 . S
C267 C266 1.340 . S
C267 C268 1.439 . S
C267 H307 0.950 . S
C268 C267 1.439 . S
C268 N269 1.374 . S
C268 C302 1.395 . S
N269 C265 1.376 . S
N269 C268 1.374 . S
N269 Co270 2.008 . S
Co270 N269 2.008 . S
Co270 N271 1.995 . S
Co270 N276 2.008 . S
Co270 N281 1.995 . S
Co270 N286 2.282 . S
Co270 N292 2.282 . S
N271 Co270 1.995 . S
N271 C272 1.376 . S
N271 C275 1.383 . S
C272 N271 1.376 . S
C272 C273 1.446 . S
C272 C302 1.391 . S
C273 C272 1.446 . S
C273 C274 1.339 . S
C273 H308 0.949 . S
C274 C273 1.339 . S
C274 C275 1.439 . S
C274 H309 0.950 . S
C275 N271 1.383 . S
C275 C274 1.439 . S
C275 C304 1.392 . S
N276 Co270 2.008 . S
N276 C277 1.376 . S
N276 C280 1.374 . S
C277 N276 1.376 . S
C277 C278 1.443 . S
C277 C304 1.389 . S
C278 C277 1.443 . S
C278 C279 1.340 . S
C278 H310 0.951 . S
C279 C278 1.340 . S
C279 C280 1.439 . S
C279 H311 0.950 . S
C280 N276 1.374 . S
C280 C279 1.439 . S
C280 C305 1.395 . S
N281 Co270 1.995 . S
N281 C282 1.376 . S
N281 C285 1.383 . S
C282 N281 1.376 . S
C282 C283 1.446 . S
C282 C305 1.391 . S
C283 C282 1.446 . S
C283 C284 1.339 . S
C283 H312 0.949 . S
C284 C283 1.339 . S
C284 C285 1.439 . S
C284 H313 0.950 . S
C285 N281 1.383 . S
C285 C284 1.439 . S
C285 C303 1.392 . S
N286 Co270 2.282 . S
N286 C289 1.332 . S
N286 C291 1.332 . S
C287 C288 1.386 . S
C287 C290 1.388 . S
C288 C287 1.386 . S
C288 C289 1.382 . S
C288 H314 0.950 . S
C289 N286 1.332 . S
C289 C288 1.382 . S
C289 H300 0.952 . S
C290 C287 1.388 . S
C290 C291 1.382 . S
C290 H315 0.950 . S
C291 N286 1.332 . S
C291 C290 1.382 . S
C291 H301 0.948 . S
N292 Co270 2.282 . S
N292 C296 1.332 . S
N292 C297 1.332 . S
C293 C294 1.388 . S
C293 C297 1.382 . S
C293 H316 0.950 . S
C294 C293 1.388 . S
C294 C295 1.386 . S
C295 C294 1.386 . S
C295 C296 1.382 . S
C295 H317 0.950 . S
C296 N292 1.332 . S
C296 C295 1.382 . S
C296 H298 0.952 . S
C297 N292 1.332 . S
C297 C293 1.382 . S
C297 H299 0.948 . S
H298 C296 0.952 . S
H299 C297 0.948 . S
H300 C289 0.952 . S
H301 C291 0.948 . S
C302 C268 1.395 . S
C302 C272 1.391 . S
C303 C265 1.389 . S
C303 C285 1.392 . S
C304 C275 1.392 . S
C304 C277 1.389 . S
C305 C280 1.395 . S
C305 C282 1.391 . S
H306 C266 0.951 . S
H307 C267 0.950 . S
H308 C273 0.949 . S
H309 C274 0.950 . S
H310 C278 0.951 . S
H311 C279 0.950 . S
H312 C283 0.949 . S
H313 C284 0.950 . S
H314 C288 0.950 . S
H315 C290 0.950 . S
H316 C293 0.950 . S
H317 C295 0.950 . S
C318 C319 1.443 . S
C318 N322 1.376 . S
C318 C356 1.389 . S
C319 C318 1.443 . S
C319 C320 1.340 . S
C319 H359 0.951 . S
C320 C319 1.340 . S
C320 C321 1.439 . S
C320 H360 0.950 . S
C321 C320 1.439 . S
C321 N322 1.374 . S
C321 C355 1.395 . S
N322 C318 1.376 . S
N322 C321 1.374 . S
N322 Co323 2.008 . S
Co323 N322 2.008 . S
Co323 N324 1.995 . S
Co323 N329 2.008 . S
Co323 N334 1.995 . S
Co323 N339 2.282 . S
Co323 N345 2.282 . S
N324 Co323 1.995 . S
N324 C325 1.376 . S
N324 C328 1.383 . S
C325 N324 1.376 . S
C325 C326 1.446 . S
C325 C355 1.391 . S
C326 C325 1.446 . S
C326 C327 1.339 . S
C326 H361 0.949 . S
C327 C326 1.339 . S
C327 C328 1.439 . S
C327 H362 0.950 . S
C328 N324 1.383 . S
C328 C327 1.439 . S
C328 C357 1.392 . S
N329 Co323 2.008 . S
N329 C330 1.376 . S
N329 C333 1.374 . S
C330 N329 1.376 . S
C330 C331 1.443 . S
C330 C357 1.389 . S
C331 C330 1.443 . S
C331 C332 1.340 . S
C331 H363 0.951 . S
C332 C331 1.340 . S
C332 C333 1.439 . S
C332 H364 0.950 . S
C333 N329 1.374 . S
C333 C332 1.439 . S
C333 C358 1.395 . S
N334 Co323 1.995 . S
N334 C335 1.376 . S
N334 C338 1.383 . S
C335 N334 1.376 . S
C335 C336 1.446 . S
C335 C358 1.391 . S
C336 C335 1.446 . S
C336 C337 1.339 . S
C336 H365 0.949 . S
C337 C336 1.339 . S
C337 C338 1.439 . S
C337 H366 0.950 . S
C338 N334 1.383 . S
C338 C337 1.439 . S
C338 C356 1.392 . S
N339 Co323 2.282 . S
N339 C342 1.332 . S
N339 C344 1.332 . S
C340 C341 1.386 . S
C340 C343 1.388 . S
C341 C340 1.386 . S
C341 C342 1.382 . S
C341 H367 0.950 . S
C342 N339 1.332 . S
C342 C341 1.382 . S
C342 H353 0.952 . S
C343 C340 1.388 . S
C343 C344 1.382 . S
C343 H368 0.950 . S
C344 N339 1.332 . S
C344 C343 1.382 . S
C344 H354 0.948 . S
N345 Co323 2.282 . S
N345 C349 1.332 . S
N345 C350 1.332 . S
C346 C347 1.388 . S
C346 C350 1.382 . S
C346 H369 0.950 . S
C347 C346 1.388 . S
C347 C348 1.386 . S
C348 C347 1.386 . S
C348 C349 1.382 . S
C348 H370 0.950 . S
C349 N345 1.332 . S
C349 C348 1.382 . S
C349 H351 0.952 . S
C350 N345 1.332 . S
C350 C346 1.382 . S
C350 H352 0.948 . S
H351 C349 0.952 . S
H352 C350 0.948 . S
H353 C342 0.952 . S
H354 C344 0.948 . S
C355 C321 1.395 . S
C355 C325 1.391 . S
C356 C318 1.389 . S
C356 C338 1.392 . S
C357 C328 1.392 . S
C357 C330 1.389 . S
C358 C333 1.395 . S
C358 C335 1.391 . S
H359 C319 0.951 . S
H360 C320 0.950 . S
H361 C326 0.949 . S
H362 C327 0.950 . S
H363 C331 0.951 . S
H364 C332 0.950 . S
H365 C336 0.949 . S
H366 C337 0.950 . S
H367 C341 0.950 . S
H368 C343 0.950 . S
H369 C346 0.950 . S
H370 C348 0.950 . S
C371 C372 1.443 . S
C371 N375 1.376 . S
C371 C409 1.389 . S
C372 C371 1.443 . S
C372 C373 1.340 . S
C372 H412 0.951 . S
C373 C372 1.340 . S
C373 C374 1.439 1_565 S
C373 H413 0.950 . S
C374 C373 1.439 1_545 S
C374 N375 1.374 1_545 S
C374 C408 1.395 . S
N375 C371 1.376 . S
N375 C374 1.374 1_565 S
N375 Co376 2.008 1_565 S
Co376 N375 2.008 1_545 S
Co376 N377 1.995 . S
Co376 N382 2.008 . S
Co376 N387 1.995 1_545 S
Co376 N392 2.282 . S
Co376 N398 2.282 1_545 S
N377 Co376 1.995 . S
N377 C378 1.376 . S
N377 C381 1.383 . S
C378 N377 1.376 . S
C378 C379 1.446 . S
C378 C408 1.391 . S
C379 C378 1.446 . S
C379 C380 1.339 . S
C379 H414 0.949 . S
C380 C379 1.339 . S
C380 C381 1.439 . S
C380 H415 0.950 . S
C381 N377 1.383 . S
C381 C380 1.439 . S
C381 C410 1.392 . S
N382 Co376 2.008 . S
N382 C383 1.376 . S
N382 C386 1.374 1_545 S
C383 N382 1.376 . S
C383 C384 1.443 . S
C383 C410 1.389 . S
C384 C383 1.443 . S
C384 C385 1.340 . S
C384 H416 0.951 . S
C385 C384 1.340 . S
C385 C386 1.439 1_545 S
C385 H417 0.950 . S
C386 N382 1.374 1_565 S
C386 C385 1.439 1_565 S
C386 C411 1.395 . S
N387 Co376 1.995 1_565 S
N387 C388 1.376 . S
N387 C391 1.383 . S
C388 N387 1.376 . S
C388 C389 1.446 . S
C388 C411 1.391 . S
C389 C388 1.446 . S
C389 C390 1.339 . S
C389 H418 0.949 . S
C390 C389 1.339 . S
C390 C391 1.439 . S
C390 H419 0.950 . S
C391 N387 1.383 . S
C391 C390 1.439 . S
C391 C409 1.392 . S
N392 Co376 2.282 . S
N392 C395 1.332 1_545 S
N392 C397 1.332 . S
C393 C394 1.386 . S
C393 C396 1.388 . S
C394 C393 1.386 . S
C394 C395 1.382 1_545 S
C394 H420 0.950 1_545 S
C395 N392 1.332 1_565 S
C395 C394 1.382 1_565 S
C395 H406 0.952 . S
C396 C393 1.388 . S
C396 C397 1.382 . S
C396 H421 0.950 . S
C397 N392 1.332 . S
C397 C396 1.382 . S
C397 H407 0.948 . S
N398 Co376 2.282 1_565 S
N398 C402 1.332 1_565 S
N398 C403 1.332 . S
C399 C400 1.388 . S
C399 C403 1.382 . S
C399 H422 0.950 . S
C400 C399 1.388 . S
C400 C401 1.386 . S
C401 C400 1.386 . S
C401 C402 1.382 1_565 S
C401 H423 0.950 1_565 S
C402 N398 1.332 1_545 S
C402 C401 1.382 1_545 S
C402 H404 0.952 . S
C403 N398 1.332 . S
C403 C399 1.382 . S
C403 H405 0.948 . S
H404 C402 0.952 . S
H405 C403 0.948 . S
H406 C395 0.952 . S
H407 C397 0.948 . S
C408 C374 1.395 . S
C408 C378 1.391 . S
C409 C371 1.389 . S
C409 C391 1.392 . S
C410 C381 1.392 . S
C410 C383 1.389 . S
C411 C386 1.395 . S
C411 C388 1.391 . S
H412 C372 0.951 . S
H413 C373 0.950 . S
H414 C379 0.949 . S
H415 C380 0.950 . S
H416 C384 0.951 . S
H417 C385 0.950 . S
H418 C389 0.949 . S
H419 C390 0.950 . S
H420 C394 0.950 1_565 S
H421 C396 0.950 . S
H422 C399 0.950 . S
H423 C401 0.950 1_545 S
C424 C425 1.349 . S
C424 C426 1.327 . S
C424 H449 0.950 . S
C425 C424 1.349 . S
C425 C441 1.335 1_655 S
C426 C424 1.327 . S
C426 C445 1.429 . S
C426 H450 0.950 . S
C427 C444 1.574 1_556 S
C427 C446 1.368 . S
C427 H451 0.948 1_556 S
H428 C432 0.949 . S
C429 C430 1.349 . S
C429 C431 1.327 . S
C429 H452 0.950 . S
C430 C429 1.349 . S
C430 C442 1.349 . S
C431 C429 1.327 . S
C431 C447 1.429 . S
C431 H453 0.950 . S
C432 H428 0.949 . S
C432 C440 1.574 . S
C432 C448 1.368 1_656 S
H433 C441 0.959 . S
H434 C439 0.950 . S
H435 C440 0.949 . S
H436 C442 0.950 . S
H437 C443 0.950 1_655 S
H438 C444 0.949 . S
C439 H434 0.950 . S
C439 C441 1.332 . S
C439 C445 1.429 1_455 S
C440 C432 1.574 . S
C440 H435 0.949 . S
C440 C446 1.368 1_655 S
C441 C425 1.335 1_455 S
C441 H433 0.959 . S
C441 C439 1.332 . S
C442 C430 1.349 . S
C442 H436 0.950 . S
C442 C443 1.327 . S
C443 H437 0.950 1_455 S
C443 C442 1.327 . S
C443 C447 1.429 . S
C444 C427 1.574 1_554 S
C444 H438 0.949 . S
C444 C448 1.368 . S
C445 C426 1.429 . S
C445 C439 1.429 1_655 S
C445 C446 1.523 1_655 S
C446 C427 1.368 . S
C446 C440 1.368 1_455 S
C446 C445 1.523 1_455 S
C447 C431 1.429 . S
C447 C443 1.429 . S
C447 C448 1.523 . S
C448 C432 1.368 1_454 S
C448 C444 1.368 . S
C448 C447 1.523 . S
H449 C424 0.950 . S
H450 C426 0.950 . S
H451 C427 0.948 1_554 S
H452 C429 0.950 . S
H453 C431 0.950 . S
C454 C455 1.349 . S
C454 C456 1.327 . S
C454 H479 0.950 . S
C455 C454 1.349 . S
C455 C471 1.349 . S
C456 C454 1.327 . S
C456 C475 1.429 . S
C456 H480 0.950 . S
C457 C474 1.574 . S
C457 C476 1.368 . S
C457 H481 0.949 . S
H458 C462 0.949 . S
C459 C460 1.349 . S
C459 C461 1.327 . S
C459 H482 0.950 . S
C460 C459 1.349 . S
C460 C472 1.349 . S
C461 C459 1.327 . S
C461 C477 1.429 . S
C461 H483 0.950 . S
C462 H458 0.949 . S
C462 C470 1.574 . S
C462 C478 1.368 . S
H463 C471 0.950 . S
H464 C469 0.950 . S
H465 C470 0.949 . S
H466 C472 0.950 . S
H467 C473 0.950 . S
H468 C474 0.949 . S
C469 H464 0.950 . S
C469 C471 1.327 . S
C469 C475 1.429 . S
C470 C462 1.574 . S
C470 H465 0.949 . S
C470 C476 1.368 . S
C471 C455 1.349 . S
C471 H463 0.950 . S
C471 C469 1.327 . S
C472 C460 1.349 . S
C472 H466 0.950 . S
C472 C473 1.327 . S
C473 H467 0.950 . S
C473 C472 1.327 . S
C473 C477 1.429 . S
C474 C457 1.574 . S
C474 H468 0.949 . S
C474 C478 1.368 . S
C475 C456 1.429 . S
C475 C469 1.429 . S
C475 C476 1.523 . S
C476 C457 1.368 . S
C476 C470 1.368 . S
C476 C475 1.523 . S
C477 C461 1.429 . S
C477 C473 1.429 . S
C477 C478 1.523 . S
C478 C462 1.368 . S
C478 C474 1.368 . S
C478 C477 1.523 . S
H479 C454 0.950 . S
H480 C456 0.950 . S
H481 C457 0.949 . S
H482 C459 0.950 . S
H483 C461 0.950 . S
C484 C485 1.349 . S
C484 C486 1.327 . S
C484 H509 0.950 . S
C485 C484 1.349 . S
C485 C501 1.349 . S
C486 C484 1.327 . S
C486 C505 1.429 . S
C486 H510 0.950 . S
C487 C504 1.574 . S
C487 C506 1.368 1_556 S
C487 H511 0.949 . S
H488 C492 0.946 1_554 S
C489 C490 1.349 . S
C489 C491 1.327 . S
C489 H512 0.950 . S
C490 C489 1.349 . S
C490 C502 1.349 . S
C491 C489 1.327 . S
C491 C507 1.429 . S
C491 H513 0.950 . S
C492 H488 0.946 1_556 S
C492 C500 1.561 1_546 S
C492 C508 1.385 . S
H493 C501 0.950 . S
H494 C499 0.950 . S
H495 C500 0.949 . S
H496 C502 0.950 . S
H497 C503 0.950 . S
H498 C504 0.949 . S
C499 H494 0.950 . S
C499 C501 1.327 . S
C499 C505 1.429 . S
C500 C492 1.561 1_564 S
C500 H495 0.949 . S
C500 C506 1.368 . S
C501 C485 1.349 . S
C501 H493 0.950 . S
C501 C499 1.327 . S
C502 C490 1.349 . S
C502 H496 0.950 . S
C502 C503 1.327 . S
C503 H497 0.950 . S
C503 C502 1.327 . S
C503 C507 1.429 . S
C504 C487 1.574 . S
C504 H498 0.949 . S
C504 C508 1.368 1_565 S
C505 C486 1.429 . S
C505 C499 1.429 . S
C505 C506 1.523 . S
C506 C487 1.368 1_554 S
C506 C500 1.368 . S
C506 C505 1.523 . S
C507 C491 1.429 . S
C507 C503 1.429 . S
C507 C508 1.523 . S
C508 C492 1.385 . S
C508 C504 1.368 1_545 S
C508 C507 1.523 . S
H509 C484 0.950 . S
H510 C486 0.950 . S
H511 C487 0.949 . S
H512 C489 0.950 . S
H513 C491 0.950 . S
C514 C515 1.349 . S
C514 C516 1.327 . S
C514 H539 0.950 . S
C515 C514 1.349 . S
C515 C531 1.349 . S
C516 C514 1.327 . S
C516 C535 1.429 . S
C516 H540 0.950 . S
C517 C534 1.574 1_655 S
C517 C536 1.368 1_565 S
C517 H541 0.949 . S
H518 C522 0.951 . S
C519 C520 1.349 . S
C519 C521 1.327 . S
C519 H542 0.950 . S
C520 C519 1.349 . S
C520 C532 1.349 1_565 S
C521 C519 1.327 . S
C521 C537 1.429 . S
C521 H543 0.950 . S
C522 H518 0.951 . S
C522 C530 1.560 1_455 S
C522 C538 1.380 . S
H523 C531 0.950 1_565 S
H524 C529 0.923 1_565 S
H525 C530 0.949 . S
H526 C532 0.950 . S
H527 C533 0.950 . S
H528 C534 0.949 . S
C529 H524 0.923 1_545 S
C529 C531 1.335 . S
C529 C535 1.448 . S
C530 C522 1.560 1_655 S
C530 H525 0.949 . S
C530 C536 1.368 . S
C531 C515 1.349 . S
C531 H523 0.950 1_545 S
C531 C529 1.335 . S
C532 C520 1.349 1_545 S
C532 H526 0.950 . S
C532 C533 1.327 . S
C533 H527 0.950 . S
C533 C532 1.327 . S
C533 C537 1.429 1_545 S
C534 C517 1.574 1_455 S
C534 H528 0.949 . S
C534 C538 1.368 1_565 S
C535 C516 1.429 . S
C535 C529 1.448 . S
C535 C536 1.523 . S
C536 C517 1.368 1_545 S
C536 C530 1.368 . S
C536 C535 1.523 . S
C537 C521 1.429 . S
C537 C533 1.429 1_565 S
C537 C538 1.523 1_565 S
C538 C522 1.380 . S
C538 C534 1.368 1_545 S
C538 C537 1.523 1_545 S
H539 C514 0.950 . S
H540 C516 0.950 . S
H541 C517 0.949 . S
H542 C519 0.950 . S
H543 C521 0.950 . S
C544 C545 1.349 . S
C544 C546 1.327 . S
C544 H569 0.950 . S
C545 C544 1.349 . S
C545 C561 1.349 . S
C546 C544 1.327 . S
C546 C565 1.429 . S
C546 H570 0.950 . S
C547 C564 1.574 . S
C547 C566 1.368 . S
C547 H571 0.949 . S
H548 C552 0.949 . S
C549 C550 1.349 . S
C549 C551 1.327 . S
C549 H572 0.950 . S
C550 C549 1.349 . S
C550 C562 1.349 . S
C551 C549 1.327 . S
C551 C567 1.429 . S
C551 H573 0.950 . S
C552 H548 0.949 . S
C552 C560 1.574 . S
C552 C568 1.368 . S
H553 C561 0.950 . S
H554 C559 0.950 . S
H555 C560 0.949 . S
H556 C562 0.950 . S
H557 C563 0.950 . S
H558 C564 0.949 . S
C559 H554 0.950 . S
C559 C561 1.327 . S
C559 C565 1.429 . S
C560 C552 1.574 . S
C560 H555 0.949 . S
C560 C566 1.368 . S
C561 C545 1.349 . S
C561 H553 0.950 . S
C561 C559 1.327 . S
C562 C550 1.349 . S
C562 H556 0.950 . S
C562 C563 1.327 . S
C563 H557 0.950 . S
C563 C562 1.327 . S
C563 C567 1.429 . S
C564 C547 1.574 . S
C564 H558 0.949 . S
C564 C568 1.368 . S
C565 C546 1.429 . S
C565 C559 1.429 . S
C565 C566 1.523 . S
C566 C547 1.368 . S
C566 C560 1.368 . S
C566 C565 1.523 . S
C567 C551 1.429 . S
C567 C563 1.429 . S
C567 C568 1.523 . S
C568 C552 1.368 . S
C568 C564 1.368 . S
C568 C567 1.523 . S
H569 C544 0.950 . S
H570 C546 0.950 . S
H571 C547 0.949 . S
H572 C549 0.950 . S
H573 C551 0.950 . S
C574 C575 1.349 . S
C574 C576 1.327 . S
C574 H599 0.950 . S
C575 C574 1.349 . S
C575 C591 1.349 . S
C576 C574 1.327 . S
C576 C595 1.429 . S
C576 H600 0.950 . S
C577 C594 1.574 . S
C577 C596 1.368 . S
C577 H601 0.949 . S
H578 C582 0.949 . S
C579 C580 1.349 . S
C579 C581 1.327 . S
C579 H602 0.950 . S
C580 C579 1.349 . S
C580 C592 1.349 . S
C581 C579 1.327 . S
C581 C597 1.429 . S
C581 H603 0.950 . S
C582 H578 0.949 . S
C582 C590 1.574 . S
C582 C598 1.368 . S
H583 C591 0.950 . S
H584 C589 0.950 . S
H585 C590 0.949 . S
H586 C592 0.950 . S
H587 C593 0.950 . S
H588 C594 0.949 . S
C589 H584 0.950 . S
C589 C591 1.327 . S
C589 C595 1.429 . S
C590 C582 1.574 . S
C590 H585 0.949 . S
C590 C596 1.368 . S
C591 C575 1.349 . S
C591 H583 0.950 . S
C591 C589 1.327 . S
C592 C580 1.349 . S
C592 H586 0.950 . S
C592 C593 1.327 . S
C593 H587 0.950 . S
C593 C592 1.327 . S
C593 C597 1.429 . S
C594 C577 1.574 . S
C594 H588 0.949 . S
C594 C598 1.368 . S
C595 C576 1.429 . S
C595 C589 1.429 . S
C595 C596 1.523 . S
C596 C577 1.368 . S
C596 C590 1.368 . S
C596 C595 1.523 . S
C597 C581 1.429 . S
C597 C593 1.429 . S
C597 C598 1.523 . S
C598 C582 1.368 . S
C598 C594 1.368 . S
C598 C597 1.523 . S
H599 C574 0.950 . S
H600 C576 0.950 . S
H601 C577 0.949 . S
H602 C579 0.950 . S
H603 C581 0.950 . S
C604 C605 1.349 . S
C604 C606 1.327 . S
C604 H629 0.950 . S
C605 C604 1.349 . S
C605 C621 1.349 . S
C606 C604 1.327 . S
C606 C625 1.429 . S
C606 H630 0.950 . S
C607 C624 1.574 . S
C607 C626 1.368 . S
C607 H631 0.949 . S
H608 C612 0.949 . S
C609 C610 1.349 . S
C609 C611 1.327 . S
C609 H632 0.950 . S
C610 C609 1.349 . S
C610 C622 1.349 . S
C611 C609 1.327 . S
C611 C627 1.429 . S
C611 H633 0.950 . S
C612 H608 0.949 . S
C612 C620 1.574 . S
C612 C628 1.368 . S
H613 C621 0.950 . S
H614 C619 0.950 . S
H615 C620 0.949 . S
H616 C622 0.950 . S
H617 C623 0.950 . S
H618 C624 0.949 . S
C619 H614 0.950 . S
C619 C621 1.327 . S
C619 C625 1.429 . S
C620 C612 1.574 . S
C620 H615 0.949 . S
C620 C626 1.368 . S
C621 C605 1.349 . S
C621 H613 0.950 . S
C621 C619 1.327 . S
C622 C610 1.349 . S
C622 H616 0.950 . S
C622 C623 1.327 . S
C623 H617 0.950 . S
C623 C622 1.327 . S
C623 C627 1.429 . S
C624 C607 1.574 . S
C624 H618 0.949 . S
C624 C628 1.368 . S
C625 C606 1.429 . S
C625 C619 1.429 . S
C625 C626 1.523 . S
C626 C607 1.368 . S
C626 C620 1.368 . S
C626 C625 1.523 . S
C627 C611 1.429 . S
C627 C623 1.429 . S
C627 C628 1.523 . S
C628 C612 1.368 . S
C628 C624 1.368 . S
C628 C627 1.523 . S
H629 C604 0.950 . S
H630 C606 0.950 . S
H631 C607 0.949 . S
H632 C609 0.950 . S
H633 C611 0.950 . S
C634 C635 1.349 . S
C634 C636 1.327 . S
C634 H659 0.950 . S
C635 C634 1.349 . S
C635 C651 1.349 . S
C636 C634 1.327 . S
C636 C655 1.429 . S
C636 H660 0.950 . S
C637 C654 1.574 . S
C637 C656 1.368 . S
C637 H661 0.949 . S
H638 C642 0.949 . S
C639 C640 1.349 . S
C639 C641 1.327 . S
C639 H662 0.950 . S
C640 C639 1.349 . S
C640 C652 1.349 . S
C641 C639 1.327 . S
C641 C657 1.429 . S
C641 H663 0.950 . S
C642 H638 0.949 . S
C642 C650 1.574 . S
C642 C658 1.368 . S
H643 C651 0.950 . S
H644 C649 0.950 . S
H645 C650 0.949 . S
H646 C652 0.950 . S
H647 C653 0.950 . S
H648 C654 0.949 . S
C649 H644 0.950 . S
C649 C651 1.327 . S
C649 C655 1.429 . S
C650 C642 1.574 . S
C650 H645 0.949 . S
C650 C656 1.368 . S
C651 C635 1.349 . S
C651 H643 0.950 . S
C651 C649 1.327 . S
C652 C640 1.349 . S
C652 H646 0.950 . S
C652 C653 1.327 . S
C653 H647 0.950 . S
C653 C652 1.327 . S
C653 C657 1.429 . S
C654 C637 1.574 . S
C654 H648 0.949 . S
C654 C658 1.368 . S
C655 C636 1.429 . S
C655 C649 1.429 . S
C655 C656 1.523 . S
C656 C637 1.368 . S
C656 C650 1.368 . S
C656 C655 1.523 . S
C657 C641 1.429 . S
C657 C653 1.429 . S
C657 C658 1.523 . S
C658 C642 1.368 . S
C658 C654 1.368 . S
C658 C657 1.523 . S
H659 C634 0.950 . S
H660 C636 0.950 . S
H661 C637 0.949 . S
H662 C639 0.950 . S
H663 C641 0.950 . S
C664 C665 1.349 . S
C664 C666 1.327 . S
C664 H689 0.950 . S
C665 C664 1.349 . S
C665 C681 1.349 . S
C666 C664 1.327 . S
C666 C685 1.429 . S
C666 H690 0.950 . S
C667 C684 1.574 . S
C667 C686 1.368 . S
C667 H691 0.949 . S
H668 C672 0.949 . S
C669 C670 1.349 . S
C669 C671 1.327 . S
C669 H692 0.950 . S
C670 C669 1.349 . S
C670 C682 1.349 . S
C671 C669 1.327 . S
C671 C687 1.429 . S
C671 H693 0.950 . S
C672 H668 0.949 . S
C672 C680 1.574 . S
C672 C688 1.368 . S
H673 C681 0.950 . S
H674 C679 0.950 . S
H675 C680 0.949 . S
H676 C682 0.950 . S
H677 C683 0.950 . S
H678 C684 0.949 . S
C679 H674 0.950 . S
C679 C681 1.327 . S
C679 C685 1.429 . S
C680 C672 1.574 . S
C680 H675 0.949 . S
C680 C686 1.368 . S
C681 C665 1.349 . S
C681 H673 0.950 . S
C681 C679 1.327 . S
C682 C670 1.349 . S
C682 H676 0.950 . S
C682 C683 1.327 . S
C683 H677 0.950 . S
C683 C682 1.327 . S
C683 C687 1.429 . S
C684 C667 1.574 . S
C684 H678 0.949 . S
C684 C688 1.368 . S
C685 C666 1.429 . S
C685 C679 1.429 . S
C685 C686 1.523 . S
C686 C667 1.368 . S
C686 C680 1.368 . S
C686 C685 1.523 . S
C687 C671 1.429 . S
C687 C683 1.429 . S
C687 C688 1.523 . S
C688 C672 1.368 . S
C688 C684 1.368 . S
C688 C687 1.523 . S
H689 C664 0.950 . S
H690 C666 0.950 . S
H691 C667 0.949 . S
H692 C669 0.950 . S
H693 C671 0.950 . S
C694 C695 1.349 . S
C694 C696 1.327 . S
C694 H719 0.950 . S
C695 C694 1.349 . S
C695 C711 1.349 . S
C696 C694 1.327 . S
C696 C715 1.429 . S
C696 H720 0.950 . S
C697 C714 1.574 . S
C697 C716 1.368 . S
C697 H721 0.949 . S
H698 C702 0.949 . S
C699 C700 1.349 . S
C699 C701 1.327 . S
C699 H722 0.950 . S
C700 C699 1.349 . S
C700 C712 1.349 . S
C701 C699 1.327 . S
C701 C717 1.429 . S
C701 H723 0.950 . S
C702 H698 0.949 . S
C702 C710 1.574 . S
C702 C718 1.368 . S
H703 C711 0.950 . S
H704 C709 0.950 . S
H705 C710 0.949 . S
H706 C712 0.950 . S
H707 C713 0.950 . S
H708 C714 0.949 . S
C709 H704 0.950 . S
C709 C711 1.327 . S
C709 C715 1.429 . S
C710 C702 1.574 . S
C710 H705 0.949 . S
C710 C716 1.368 . S
C711 C695 1.349 . S
C711 H703 0.950 . S
C711 C709 1.327 . S
C712 C700 1.349 . S
C712 H706 0.950 . S
C712 C713 1.327 . S
C713 H707 0.950 . S
C713 C712 1.327 . S
C713 C717 1.429 . S
C714 C697 1.574 . S
C714 H708 0.949 . S
C714 C718 1.368 . S
C715 C696 1.429 . S
C715 C709 1.429 . S
C715 C716 1.523 . S
C716 C697 1.368 . S
C716 C710 1.368 . S
C716 C715 1.523 . S
C717 C701 1.429 . S
C717 C713 1.429 . S
C717 C718 1.523 . S
C718 C702 1.368 . S
C718 C714 1.368 . S
C718 C717 1.523 . S
H719 C694 0.950 . S
H720 C696 0.950 . S
H721 C697 0.949 . S
H722 C699 0.950 . S
H723 C701 0.950 . S
C724 C725 1.349 . S
C724 C726 1.327 . S
C724 H749 0.950 . S
C725 C724 1.349 . S
C725 C741 1.349 . S
C726 C724 1.327 . S
C726 C745 1.429 . S
C726 H750 0.950 . S
C727 C744 1.574 . S
C727 C746 1.368 . S
C727 H751 0.949 . S
H728 C732 0.949 . S
C729 C730 1.349 . S
C729 C731 1.327 . S
C729 H752 0.950 . S
C730 C729 1.349 . S
C730 C742 1.349 . S
C731 C729 1.327 . S
C731 C747 1.429 . S
C731 H753 0.950 . S
C732 H728 0.949 . S
C732 C740 1.574 . S
C732 C748 1.368 . S
H733 C741 0.950 . S
H734 C739 0.950 . S
H735 C740 0.949 . S
H736 C742 0.950 . S
H737 C743 0.950 . S
H738 C744 0.949 . S
C739 H734 0.950 . S
C739 C741 1.327 . S
C739 C745 1.429 . S
C740 C732 1.574 . S
C740 H735 0.949 . S
C740 C746 1.368 . S
C741 C725 1.349 . S
C741 H733 0.950 . S
C741 C739 1.327 . S
C742 C730 1.349 . S
C742 H736 0.950 . S
C742 C743 1.327 . S
C743 H737 0.950 . S
C743 C742 1.327 . S
C743 C747 1.429 . S
C744 C727 1.574 . S
C744 H738 0.949 . S
C744 C748 1.368 . S
C745 C726 1.429 . S
C745 C739 1.429 . S
C745 C746 1.523 . S
C746 C727 1.368 . S
C746 C740 1.368 . S
C746 C745 1.523 . S
C747 C731 1.429 . S
C747 C743 1.429 . S
C747 C748 1.523 . S
C748 C732 1.368 . S
C748 C744 1.368 . S
C748 C747 1.523 . S
H749 C724 0.950 . S
H750 C726 0.950 . S
H751 C727 0.949 . S
H752 C729 0.950 . S
H753 C731 0.950 . S
C754 C755 1.349 . S
C754 C756 1.327 . S
C754 H779 0.950 . S
C755 C754 1.349 . S
C755 C771 1.349 . S
C756 C754 1.327 . S
C756 C775 1.429 . S
C756 H780 0.950 . S
C757 C774 1.574 . S
C757 C776 1.368 . S
C757 H781 0.949 . S
H758 C762 0.949 . S
C759 C760 1.349 . S
C759 C761 1.327 . S
C759 H782 0.950 . S
C760 C759 1.349 . S
C760 C772 1.349 . S
C761 C759 1.327 . S
C761 C777 1.429 . S
C761 H783 0.950 . S
C762 H758 0.949 . S
C762 C770 1.574 . S
C762 C778 1.368 . S
H763 C771 0.950 1_655 S
H764 C769 0.950 . S
H765 C770 0.949 . S
H766 C772 0.950 . S
H767 C773 0.950 . S
H768 C774 0.949 . S
C769 H764 0.950 . S
C769 C771 1.327 . S
C769 C775 1.429 . S
C770 C762 1.574 . S
C770 H765 0.949 . S
C770 C776 1.368 . S
C771 C755 1.349 . S
C771 H763 0.950 1_455 S
C771 C769 1.327 . S
C772 C760 1.349 . S
C772 H766 0.950 . S
C772 C773 1.327 . S
C773 H767 0.950 . S
C773 C772 1.327 . S
C773 C777 1.429 . S
C774 C757 1.574 . S
C774 H768 0.949 . S
C774 C778 1.368 . S
C775 C756 1.429 . S
C775 C769 1.429 . S
C775 C776 1.523 . S
C776 C757 1.368 . S
C776 C770 1.368 . S
C776 C775 1.523 . S
C777 C761 1.429 . S
C777 C773 1.429 . S
C777 C778 1.523 . S
C778 C762 1.368 . S
C778 C774 1.368 . S
C778 C777 1.523 . S
H779 C754 0.950 . S
H780 C756 0.950 . S
H781 C757 0.949 . S
H782 C759 0.950 . S
H783 C761 0.950 . S
C784 C785 1.349 . S
C784 C786 1.327 . S
C784 H809 0.950 . S
C785 C784 1.349 . S
C785 C801 1.349 . S
C786 C784 1.327 . S
C786 C805 1.429 . S
C786 H810 0.950 . S
C787 C804 1.574 . S
C787 C806 1.368 . S
C787 H811 0.949 . S
H788 C792 0.949 . S
C789 C790 1.349 . S
C789 C791 1.327 . S
C789 H812 0.950 . S
C790 C789 1.349 . S
C790 C802 1.349 . S
C791 C789 1.327 . S
C791 C807 1.429 . S
C791 H813 0.950 . S
C792 H788 0.949 . S
C792 C800 1.574 . S
C792 C808 1.368 . S
H793 C801 0.950 . S
H794 C799 0.950 . S
H795 C800 0.949 . S
H796 C802 0.950 . S
H797 C803 0.950 . S
H798 C804 0.949 . S
C799 H794 0.950 . S
C799 C801 1.327 . S
C799 C805 1.429 . S
C800 C792 1.574 . S
C800 H795 0.949 . S
C800 C806 1.368 . S
C801 C785 1.349 . S
C801 H793 0.950 . S
C801 C799 1.327 . S
C802 C790 1.349 . S
C802 H796 0.950 . S
C802 C803 1.327 . S
C803 H797 0.950 . S
C803 C802 1.327 . S
C803 C807 1.429 . S
C804 C787 1.574 . S
C804 H798 0.949 . S
C804 C808 1.368 . S
C805 C786 1.429 . S
C805 C799 1.429 . S
C805 C806 1.523 . S
C806 C787 1.368 . S
C806 C800 1.368 . S
C806 C805 1.523 . S
C807 C791 1.429 . S
C807 C803 1.429 . S
C807 C808 1.523 . S
C808 C792 1.368 . S
C808 C804 1.368 . S
C808 C807 1.523 . S
H809 C784 0.950 . S
H810 C786 0.950 . S
H811 C787 0.949 . S
H812 C789 0.950 . S
H813 C791 0.950 . S
C814 C815 1.349 . S
C814 C816 1.327 . S
C814 H839 0.950 . S
C815 C814 1.349 . S
C815 C831 1.349 . S
C816 C814 1.327 . S
C816 C835 1.429 . S
C816 H840 0.950 . S
C817 C834 1.574 . S
C817 C836 1.368 . S
C817 H841 0.949 . S
H818 C822 0.949 . S
C819 C820 1.349 . S
C819 C821 1.327 . S
C819 H842 0.950 . S
C820 C819 1.349 . S
C820 C832 1.349 . S
C821 C819 1.327 . S
C821 C837 1.429 . S
C821 H843 0.950 . S
C822 H818 0.949 . S
C822 C830 1.574 . S
C822 C838 1.368 . S
H823 C831 0.950 . S
H824 C829 0.950 . S
H825 C830 0.949 . S
H826 C832 0.950 . S
H827 C833 0.950 . S
H828 C834 0.949 . S
C829 H824 0.950 . S
C829 C831 1.327 . S
C829 C835 1.429 . S
C830 C822 1.574 . S
C830 H825 0.949 . S
C830 C836 1.368 . S
C831 C815 1.349 . S
C831 H823 0.950 . S
C831 C829 1.327 . S
C832 C820 1.349 . S
C832 H826 0.950 . S
C832 C833 1.327 . S
C833 H827 0.950 . S
C833 C832 1.327 . S
C833 C837 1.429 . S
C834 C817 1.574 . S
C834 H828 0.949 . S
C834 C838 1.368 . S
C835 C816 1.429 . S
C835 C829 1.429 . S
C835 C836 1.523 . S
C836 C817 1.368 . S
C836 C830 1.368 . S
C836 C835 1.523 . S
C837 C821 1.429 . S
C837 C833 1.429 . S
C837 C838 1.523 . S
C838 C822 1.368 . S
C838 C834 1.368 . S
C838 C837 1.523 . S
H839 C814 0.950 . S
H840 C816 0.950 . S
H841 C817 0.949 . S
H842 C819 0.950 . S
H843 C821 0.950 . S
C844 C845 1.349 . S
C844 C846 1.327 . S
C844 H869 0.950 . S
C845 C844 1.349 . S
C845 C861 1.349 . S
C846 C844 1.327 . S
C846 C865 1.429 . S
C846 H870 0.950 . S
C847 C864 1.574 . S
C847 C866 1.368 . S
C847 H871 0.949 . S
H848 C852 0.949 . S
C849 C850 1.349 . S
C849 C851 1.327 . S
C849 H872 0.950 1_545 S
C850 C849 1.349 . S
C850 C862 1.349 . S
C851 C849 1.327 . S
C851 C867 1.429 . S
C851 H873 0.950 . S
C852 H848 0.949 . S
C852 C860 1.574 . S
C852 C868 1.368 . S
H853 C861 0.950 . S
H854 C859 0.950 . S
H855 C860 0.949 . S
H856 C862 0.950 . S
H857 C863 0.950 . S
H858 C864 0.949 . S
C859 H854 0.950 . S
C859 C861 1.327 . S
C859 C865 1.429 . S
C860 C852 1.574 . S
C860 H855 0.949 . S
C860 C866 1.368 . S
C861 C845 1.349 . S
C861 H853 0.950 . S
C861 C859 1.327 . S
C862 C850 1.349 . S
C862 H856 0.950 . S
C862 C863 1.327 . S
C863 H857 0.950 . S
C863 C862 1.327 . S
C863 C867 1.429 . S
C864 C847 1.574 . S
C864 H858 0.949 . S
C864 C868 1.368 . S
C865 C846 1.429 . S
C865 C859 1.429 . S
C865 C866 1.523 . S
C866 C847 1.368 . S
C866 C860 1.368 . S
C866 C865 1.523 . S
C867 C851 1.429 . S
C867 C863 1.429 . S
C867 C868 1.523 . S
C868 C852 1.368 . S
C868 C864 1.368 . S
C868 C867 1.523 . S
H869 C844 0.950 . S
H870 C846 0.950 . S
H871 C847 0.949 . S
H872 C849 0.950 1_565 S
H873 C851 0.950 . S
C874 C875 1.349 . S
C874 C876 1.327 . S
C874 H899 0.950 . S
C875 C874 1.349 . S
C875 C891 1.349 . S
C876 C874 1.327 . S
C876 C895 1.429 . S
C876 H900 0.950 . S
C877 C894 1.574 . S
C877 C896 1.368 . S
C877 H901 0.949 . S
H878 C882 0.949 . S
C879 C880 1.349 . S
C879 C881 1.327 . S
C879 H902 0.950 . S
C880 C879 1.349 . S
C880 C892 1.349 . S
C881 C879 1.327 . S
C881 C897 1.429 . S
C881 H903 0.950 . S
C882 H878 0.949 . S
C882 C890 1.574 . S
C882 C898 1.368 . S
H883 C891 0.950 . S
H884 C889 0.950 . S
H885 C890 0.949 . S
H886 C892 0.950 . S
H887 C893 0.950 . S
H888 C894 0.949 . S
C889 H884 0.950 . S
C889 C891 1.327 . S
C889 C895 1.429 . S
C890 C882 1.574 . S
C890 H885 0.949 . S
C890 C896 1.368 . S
C891 C875 1.349 . S
C891 H883 0.950 . S
C891 C889 1.327 . S
C892 C880 1.349 . S
C892 H886 0.950 . S
C892 C893 1.327 . S
C893 H887 0.950 . S
C893 C892 1.327 . S
C893 C897 1.429 . S
C894 C877 1.574 . S
C894 H888 0.949 . S
C894 C898 1.368 . S
C895 C876 1.429 . S
C895 C889 1.429 . S
C895 C896 1.523 . S
C896 C877 1.368 . S
C896 C890 1.368 . S
C896 C895 1.523 . S
C897 C881 1.429 . S
C897 C893 1.429 . S
C897 C898 1.523 . S
C898 C882 1.368 . S
C898 C894 1.368 . S
C898 C897 1.523 . S
H899 C874 0.950 . S
H900 C876 0.950 . S
H901 C877 0.949 . S
H902 C879 0.950 . S
H903 C881 0.950 . S
C425 C250 2.116 . S
C430 C22 2.113 . S
C455 C91 2.048 . S
C460 C287 2.046 . S
C485 C128 1.908 . S
C490 C356 1.910 . S
C515 C393 1.995 . S
C520 C197 1.999 . S
C545 C39 2.963 . S
C550 C145 2.960 . S
C575 C82 2.596 . S
C580 C188 2.604 . S
C605 C347 2.590 . S
C610 C241 2.583 . S
C635 C304 2.974 . S
C640 C410 2.983 . S
C665 C294 1.531 . S
C670 C38 1.497 . S
C695 C75 1.516 . S
C700 C357 1.588 . S
C725 C144 1.561 . S
C730 C400 1.599 . S
C755 C251 1.402 . S
C760 C181 1.358 . S
C785 C234 1.418 . S
C790 C92 1.472 . S
C815 C303 1.563 . S
C820 C135 1.617 . S
C845 C340 1.467 . S
C850 C198 1.527 . S
C875 C29 1.510 . S
C880 C409 1.478 . S
