# Generated by pormake.
# Topology qtz-e, (6)-cn, num edge types: 1
# Building blocks:
#     Node 0, Type 0, BuildingBlock: GEDQOX_clean_sbu_0, # of connection points: 6
#     Node 1, Type 0, BuildingBlock: GEDQOX_clean_sbu_0, # of connection points: 6
#     Node 2, Type 0, BuildingBlock: GEDQOX_clean_sbu_0, # of connection points: 6
#     Node 3, Type 0, BuildingBlock: GEDQOX_clean_sbu_0, # of connection points: 6
#     Node 4, Type 0, BuildingBlock: GEDQOX_clean_sbu_0, # of connection points: 6
#     Node 5, Type 0, BuildingBlock: GEDQOX_clean_sbu_0, # of connection points: 6
#     Edge 6, Type (0, 0), BuildingBlock: EZIPEK_clean_linker_0, # of connection points: 2
#     Edge 7, Type (0, 0), BuildingBlock: EZIPEK_clean_linker_0, # of connection points: 2
#     Edge 8, Type (0, 0), BuildingBlock: EZIPEK_clean_linker_0, # of connection points: 2
#     Edge 9, Type (0, 0), BuildingBlock: EZIPEK_clean_linker_0, # of connection points: 2
#     Edge 10, Type (0, 0), BuildingBlock: EZIPEK_clean_linker_0, # of connection points: 2
#     Edge 11, Type (0, 0), BuildingBlock: EZIPEK_clean_linker_0, # of connection points: 2
#     Edge 12, Type (0, 0), BuildingBlock: EZIPEK_clean_linker_0, # of connection points: 2
#     Edge 13, Type (0, 0), BuildingBlock: EZIPEK_clean_linker_0, # of connection points: 2
#     Edge 14, Type (0, 0), BuildingBlock: EZIPEK_clean_linker_0, # of connection points: 2
#     Edge 15, Type (0, 0), BuildingBlock: EZIPEK_clean_linker_0, # of connection points: 2
#     Edge 16, Type (0, 0), BuildingBlock: EZIPEK_clean_linker_0, # of connection points: 2
#     Edge 17, Type (0, 0), BuildingBlock: EZIPEK_clean_linker_0, # of connection points: 2
#     Edge 18, Type (0, 0), BuildingBlock: EZIPEK_clean_linker_0, # of connection points: 2
#     Edge 19, Type (0, 0), BuildingBlock: EZIPEK_clean_linker_0, # of connection points: 2
#     Edge 20, Type (0, 0), BuildingBlock: EZIPEK_clean_linker_0, # of connection points: 2
#     Edge 21, Type (0, 0), BuildingBlock: EZIPEK_clean_linker_0, # of connection points: 2
#     Edge 22, Type (0, 0), BuildingBlock: EZIPEK_clean_linker_0, # of connection points: 2
#     Edge 23, Type (0, 0), BuildingBlock: EZIPEK_clean_linker_0, # of connection points: 2
# Relax obj value: 0.079
# Max RMSD: 0.175
# Mean RMSD: 0.175
data_MOF--net-qtz-e--node1-GEDQOX_clean_sbu_0--edge1-EZIPEK_clean_linker_0
_symmetry_space_group_name_H-M    P1
_symmetry_Int_Tables_number       1
_symmetry_cell_setting            triclinic
loop_
_symmetry_equiv_pos_as_xyz
'x, y, z'
_cell_length_a     19.699186
_cell_length_b     19.650687
_cell_length_c     42.356275
_cell_angle_alpha  89.909127
_cell_angle_beta   90.023373
_cell_angle_gamma 120.26526
loop_
_atom_site_label
_atom_site_type_symbol
_atom_site_fract_x
_atom_site_fract_y
_atom_site_fract_z
_atom_type_partial_charge
Nd0 Nd 0.1653 0.36024 0.07882 0.0
Nd1 Nd 0.29242 0.52147 0.0563 0.0
C2 C 0.04801 0.24903 0.11278 0.0
C3 C 0.01905 0.24016 0.14605 0.0
C4 C 0.0083 0.29835 0.16081 0.0
C5 C 0.97914 0.28771 0.19186 0.0
C6 C 0.96048 0.21898 0.20896 0.0
C7 C 0.97231 0.16148 0.19445 0.0
C8 C 0.00116 0.17194 0.16338 0.0
C9 C 0.31657 0.38685 0.07849 0.0
C10 C 0.25486 0.50746 0.12866 0.0
C11 C 0.4113 0.6393 0.02714 0.0
C12 C 0.41633 0.66256 0.99399 0.0
C13 C 0.48382 0.68167 0.97631 0.0
C14 C 0.48415 0.69282 0.94372 0.0
C15 C 0.41712 0.68506 0.92874 0.0
C16 C 0.35004 0.66678 0.94637 0.0
C17 C 0.34945 0.65518 0.97879 0.0
C18 C 0.14848 0.50838 0.06015 0.0
C19 C 0.20574 0.37037 1.00508 0.0
O20 O 0.04043 0.29845 0.0944 0.0
O21 O 0.11492 0.25148 0.10844 0.0
O22 O 0.25705 0.32021 0.06945 0.0
O23 O 0.29456 0.43295 0.08761 0.0
O24 O 0.18836 0.44468 0.12037 0.0
O25 O 0.31482 0.54142 0.10909 0.0
O26 O 0.40645 0.5712 0.0315 0.0
O27 O 0.36174 0.64849 0.04462 0.0
O28 O 0.21375 0.57161 0.06693 0.0
O29 O 0.15997 0.45462 0.04944 0.0
O30 O 0.26587 0.44081 1.01229 0.0
O31 O 0.15021 0.32817 0.02606 0.0
H32 H 0.02187 0.3519 0.14832 0.0
H33 H 0.97052 0.33288 0.20249 0.0
H34 H 0.95819 0.10793 0.20705 0.0
H35 H 0.0089 0.12621 0.15274 0.0
H36 H 0.53518 0.68573 0.98754 0.0
H37 H 0.53596 0.70635 0.93009 0.0
H38 H 0.29789 0.66031 0.93494 0.0
H39 H 0.29596 0.63841 0.99182 0.0
Nd40 Nd 0.77959 0.14845 0.40898 0.0
Nd41 Nd 0.75511 0.28289 0.37821 0.0
C42 C 0.75054 0.02667 0.44562 0.0
C43 C 0.73392 0.0053 0.48006 0.0
C44 C 0.66042 0.98402 0.49375 0.0
C45 C 0.64455 0.96088 0.52566 0.0
C46 C 0.70155 0.95825 0.54485 0.0
C47 C 0.7751 0.98021 0.5314 0.0
C48 C 0.79098 0.0032 0.49948 0.0
C49 C 0.90162 0.30011 0.41301 0.0
C50 C 0.7109 0.24367 0.45185 0.0
C51 C 0.77871 0.40853 0.34743 0.0
C52 C 0.76888 0.41113 0.31353 0.0
C53 C 0.79881 0.48257 0.29725 0.0
C54 C 0.79167 0.48199 0.26442 0.0
C55 C 0.75576 0.41009 0.24805 0.0
C56 C 0.72641 0.33901 0.26438 0.0
C57 C 0.73278 0.33951 0.29698 0.0
C58 C 0.62556 0.1385 0.37504 0.0
C59 C 0.82876 0.19165 0.33507 0.0
O60 O 0.69633 0.03052 0.429 0.0
O61 O 0.82185 0.08168 0.43768 0.0
O62 O 0.91385 0.24108 0.41021 0.0
O63 O 0.83019 0.27697 0.41568 0.0
O64 O 0.72425 0.18465 0.44839 0.0
O65 O 0.7235 0.29447 0.42897 0.0
O66 O 0.83584 0.39629 0.35531 0.0
O67 O 0.71345 0.36327 0.36283 0.0
O68 O 0.6237 0.20309 0.37168 0.0
O69 O 0.69546 0.1517 0.37358 0.0
O70 O 0.81736 0.25203 0.33917 0.0
O71 O 0.81158 0.13706 0.35725 0.0
H72 H 0.61459 0.98431 0.47973 0.0
H73 H 0.58726 0.94403 0.53531 0.0
H74 H 0.82001 0.97843 0.54553 0.0
H75 H 0.8479 0.01853 0.48987 0.0
H76 H 0.82774 0.53813 0.30979 0.0
H77 H 0.81401 0.53717 0.25178 0.0
H78 H 0.69824 0.28341 0.25186 0.0
H79 H 0.70996 0.2839 0.30935 0.0
Nd80 Nd 0.61675 0.81304 0.74968 0.0
Nd81 Nd 0.45764 0.7742 0.72378 0.0
C82 C 0.72606 0.80845 0.78502 0.0
C83 C 0.73373 0.78898 0.81848 0.0
C84 C 0.67596 0.71894 0.83304 0.0
C85 C 0.68567 0.70066 0.86421 0.0
C86 C 0.75303 0.75212 0.88163 0.0
C87 C 0.81006 0.82266 0.86739 0.0
C88 C 0.80054 0.84079 0.83616 0.0
C89 C 0.58388 0.93301 0.74957 0.0
C90 C 0.45999 0.74461 0.7967 0.0
C91 C 0.34167 0.77227 0.69266 0.0
C92 C 0.32959 0.76093 0.65882 0.0
C93 C 0.37889 0.74218 0.64166 0.0
C94 C 0.37255 0.73474 0.60914 0.0
C95 C 0.31564 0.7445 0.59359 0.0
C96 C 0.26476 0.76132 0.61059 0.0
C97 C 0.27221 0.77036 0.64332 0.0
C98 C 0.47689 0.6471 0.72658 0.0
C99 C 0.61551 0.84847 0.6755 0.0
O100 O 0.67756 0.75057 0.76669 0.0
O101 O 0.72363 0.87291 0.78007 0.0
O102 O 0.6528 0.94472 0.74171 0.0
O103 O 0.53901 0.86321 0.75749 0.0
O104 O 0.52784 0.74896 0.79046 0.0
O105 O 0.42389 0.76394 0.77549 0.0
O106 O 0.40514 0.83766 0.7006 0.0
O107 O 0.33404 0.71076 0.70778 0.0
O108 O 0.41156 0.64496 0.73264 0.0
O109 O 0.53014 0.7148 0.71749 0.0
O110 O 0.54284 0.83299 0.6811 0.0
O111 O 0.65729 0.83831 0.69762 0.0
H112 H 0.62353 0.67784 0.8203 0.0
H113 H 0.64095 0.64585 0.87465 0.0
H114 H 0.86258 0.86312 0.88029 0.0
H115 H 0.84594 0.89513 0.82567 0.0
H116 H 0.42242 0.73335 0.65345 0.0
H117 H 0.41142 0.72094 0.59613 0.0
H118 H 0.21981 0.76747 0.59843 0.0
H119 H 0.23373 0.78454 0.65641 0.0
Nd120 Nd 0.80817 0.63602 0.08223 0.0
Nd121 Nd 0.70835 0.46905 0.04491 0.0
C122 C 0.90195 0.74493 0.1237 0.0
C123 C 0.93968 0.74864 0.155 0.0
C124 C 0.00892 0.74449 0.15737 0.0
C125 C 0.04361 0.74876 0.18694 0.0
C126 C 0.01051 0.75805 0.21492 0.0
C127 C 0.94197 0.76298 0.21261 0.0
C128 C 0.9072 0.75856 0.1831 0.0
C129 C 0.64867 0.57009 0.07676 0.0
C130 C 0.74313 0.46186 0.11826 0.0
C131 C 0.59435 0.35301 1.01373 0.0
C132 C 0.59108 0.34093 0.97977 0.0
C133 C 0.52022 0.28915 0.96479 0.0
C134 C 0.51733 0.28471 0.93189 0.0
C135 C 0.58512 0.3326 0.91407 0.0
C136 C 0.65591 0.38421 0.92909 0.0
C137 C 0.65886 0.38836 0.96183 0.0
C138 C 0.86643 0.52041 0.0415 0.0
C139 C 0.77705 0.64155 1.00682 0.0
O140 O 0.92834 0.72754 0.09833 0.0
O141 O 0.82541 0.71291 0.12342 0.0
O142 O 0.69576 0.6462 0.07639 0.0
O143 O 0.68571 0.53503 0.08176 0.0
O144 O 0.79149 0.53908 0.11754 0.0
O145 O 0.69861 0.42081 0.09433 0.0
O146 O 0.59253 0.41633 1.02185 0.0
O147 O 0.64881 0.34548 0.0285 0.0
O148 O 0.81233 0.45544 0.02876 0.0
O149 O 0.83427 0.55509 0.05428 0.0
O150 O 0.7281 0.56426 1.00803 0.0
O151 O 0.82161 0.68309 0.03112 0.0
H152 H 0.03643 0.73789 0.13639 0.0
H153 H 0.09626 0.74445 0.18803 0.0
H154 H 0.915 0.76978 0.23374 0.0
H155 H 0.85453 0.76287 0.18229 0.0
H156 H 0.46732 0.25347 0.97843 0.0
H157 H 0.46235 0.24477 0.9203 0.0
H158 H 0.70841 0.42141 0.91547 0.0
H159 H 0.7137 0.42973 0.97319 0.0
Nd160 Nd 0.1644 0.79249 0.41628 0.0
Nd161 Nd 0.22758 0.69007 0.39003 0.0
C162 C 0.14956 0.89595 0.45216 0.0
C163 C 0.17358 0.93075 0.48472 0.0
C164 C 0.25266 0.98367 0.49253 0.0
C165 C 0.2743 0.01525 0.52313 0.0
C166 C 0.21727 -0.0035 0.54677 0.0
C167 C 0.13794 0.94496 0.53888 0.0
C168 C 0.11652 0.91221 0.5084 0.0
C169 C 0.06161 0.63359 0.41612 0.0
C170 C 0.25553 0.72634 0.4624 0.0
C171 C 0.235 0.57734 0.36028 0.0
C172 C 0.24641 0.56889 0.32677 0.0
C173 C 0.1949 0.4985 0.31126 0.0
C174 C 0.19942 0.49334 0.27861 0.0
C175 C 0.25568 0.55851 0.26138 0.0
C176 C 0.30769 0.62855 0.27684 0.0
C177 C 0.30274 0.63397 0.30937 0.0
C178 C 0.34047 0.84302 0.39414 0.0
C179 C 0.14193 0.75813 0.34042 0.0
O180 O 0.20407 0.91643 0.43052 0.0
O181 O 0.09618 0.82132 0.45032 0.0
O182 O 0.03921 0.68381 0.40922 0.0
O183 O 0.13256 0.66778 0.42353 0.0
O184 O 0.23803 0.7817 0.45643 0.0
O185 O 0.2463 0.67362 0.44129 0.0
O186 O 0.1683 0.57343 0.36705 0.0
O187 O 0.29533 0.63414 0.37512 0.0
O188 O 0.35283 0.7847 0.39832 0.0
O189 O 0.27034 0.82032 0.38546 0.0
O190 O 0.18237 0.72192 0.34504 0.0
O191 O 0.12781 0.79346 0.36423 0.0
H192 H 0.29799 0.00142 0.47494 0.0
H193 H 0.33579 0.0553 0.52828 0.0
H194 H 0.09248 0.92985 0.5564 0.0
H195 H 0.05495 0.87256 0.50327 0.0
H196 H 0.15031 0.44832 0.32429 0.0
H197 H 0.15918 0.43882 0.26673 0.0
H198 H 0.35153 0.67896 0.26368 0.0
H199 H 0.34209 0.68946 0.32077 0.0
Nd200 Nd 0.34081 0.17849 0.74678 0.0
Nd201 Nd 0.50691 0.24228 0.70956 0.0
C202 C 0.23098 0.16931 0.78602 0.0
C203 C 0.22769 0.20074 0.81759 0.0
C204 C 0.29543 0.26157 0.83212 0.0
C205 C 0.29124 0.28898 0.86231 0.0
C206 C 0.21936 0.25557 0.87868 0.0
C207 C 0.15182 0.19461 0.86423 0.0
C208 C 0.15597 0.16759 0.83399 0.0
C209 C 0.4007 0.08033 0.74172 0.0
C210 C 0.51429 0.27907 0.78411 0.0
C211 C 0.62809 0.24935 0.68125 0.0
C212 C 0.64877 0.26654 0.64821 0.0
C213 C 0.60233 0.28548 0.62913 0.0
C214 C 0.61282 0.29115 0.59667 0.0
C215 C 0.67028 0.2786 0.58319 0.0
C216 C 0.71915 0.26302 0.6023 0.0
C217 C 0.70808 0.25656 0.63491 0.0
C218 C 0.45907 0.3515 0.70582 0.0
C219 C 0.33573 0.13913 0.67103 0.0
O220 O 0.25911 0.21931 0.76243 0.0
O221 O 0.25481 0.11806 0.78548 0.0
O222 O 0.32515 0.05331 0.74223 0.0
O223 O 0.43839 0.15303 0.74625 0.0
O224 O 0.43713 0.2492 0.78405 0.0
O225 O 0.55435 0.2785 0.75934 0.0
O226 O 0.56233 0.18281 0.68596 0.0
O227 O 0.63312 0.30845 0.69752 0.0
O228 O 0.52284 0.36112 0.69271 0.0
O229 O 0.42349 0.28456 0.71868 0.0
O230 O 0.41284 0.1673 0.67208 0.0
O231 O 0.29487 0.14299 0.69541 0.0
H232 H 0.35166 0.28755 0.8203 0.0
H233 H 0.34417 0.3359 0.87299 0.0
H234 H 0.09583 0.1679 0.87638 0.0
H235 H 0.10304 0.1203 0.82347 0.0
H236 H 0.55562 0.29238 0.63925 0.0
H237 H 0.57434 0.30222 0.58198 0.0
H238 H 0.76299 0.25218 0.59181 0.0
H239 H 0.74343 0.24097 0.64948 0.0
C240 C 0.29274 0.50517 0.21574 0.0
C241 C 0.26233 0.55209 0.22712 0.0
C242 C 0.24472 0.58435 0.17312 0.0
C243 C 0.26502 0.52901 0.16207 0.0
N244 N 0.295 0.42623 0.17274 0.0
N245 N 0.20057 0.62965 0.21753 0.0
C246 C 0.28573 0.48669 0.18331 0.0
C247 C 0.2363 0.59048 0.20607 0.0
N248 N 0.32941 0.47936 0.23583 0.0
N249 N 0.23368 0.63079 0.15213 0.0
H250 H 0.19342 0.63532 0.24159 0.0
H251 H 0.17266 0.65133 0.20325 0.0
H252 H 0.23946 0.62723 0.1278 0.0
H253 H 0.22542 0.67705 0.15887 0.0
H254 H 0.35977 0.45179 0.22812 0.0
H255 H 0.33603 0.49212 0.25992 0.0
H256 H 0.30127 0.38765 0.18773 0.0
H257 H 0.28938 0.41018 0.14908 0.0
C258 C 0.63141 0.19665 0.53481 0.0
C259 C 0.67278 0.27211 0.54882 0.0
C260 C 0.7347 0.33197 0.49868 0.0
C261 C 0.69102 0.25664 0.48402 0.0
N262 N 0.5859 0.12036 0.48702 0.0
N263 N 0.7479 0.41334 0.54378 0.0
C264 C 0.63546 0.19 0.50175 0.0
C265 C 0.71867 0.34042 0.53055 0.0
N266 N 0.59027 0.13098 0.55325 0.0
N267 N 0.79615 0.39384 0.4835 0.0
H268 H 0.73981 0.42164 0.56751 0.0
H269 H 0.77407 0.46527 0.53064 0.0
H270 H 0.81434 0.39126 0.46076 0.0
H271 H 0.83511 0.44648 0.4947 0.0
H272 H 0.56833 0.07375 0.54499 0.0
H273 H 0.58211 0.13339 0.57746 0.0
H274 H 0.53799 0.07333 0.49808 0.0
H275 H 0.58863 0.11099 0.46305 0.0
C276 C 0.39972 0.63282 0.87372 0.0
C277 C 0.41695 0.69639 0.89435 0.0
C278 C 0.43271 0.78152 0.84954 0.0
C279 C 0.42839 0.72267 0.82903 0.0
N280 N 0.39252 0.5883 0.81956 0.0
N281 N 0.45319 0.83194 0.9029 0.0
C282 C 0.40698 0.64673 0.84059 0.0
C283 C 0.43333 0.77067 0.88256 0.0
N284 N 0.37657 0.55982 0.886 0.0
N285 N 0.43459 0.84693 0.83749 0.0
H286 H 0.45302 0.8261 0.92739 0.0
H287 H 0.47538 0.88993 0.89557 0.0
H288 H 0.43246 0.85606 0.81341 0.0
H289 H 0.42947 0.88793 0.85129 0.0
H290 H 0.36065 0.50966 0.87264 0.0
H291 H 0.37079 0.54823 0.9102 0.0
H292 H 0.38192 0.53254 0.82562 0.0
H293 H 0.38969 0.59588 0.7953 0.0
C294 C 0.80805 0.41631 0.19391 0.0
C295 C 0.74632 0.40841 0.21365 0.0
C296 C 0.66912 0.40424 0.16781 0.0
C297 C 0.73509 0.423 0.14866 0.0
N298 N 0.85468 0.42171 0.14031 0.0
N299 N 0.61797 0.39355 0.22076 0.0
C300 C 0.80089 0.4212 0.16081 0.0
C301 C 0.67597 0.4003 0.20096 0.0
N302 N 0.87455 0.42276 0.20701 0.0
N303 N 0.60012 0.38956 0.1542 0.0
H304 H 0.62019 0.38872 0.24522 0.0
H305 H 0.56944 0.39704 0.21338 0.0
H306 H 0.59335 0.39192 0.12992 0.0
H307 H 0.54747 0.36816 0.16644 0.0
H308 H 0.92538 0.43754 0.19433 0.0
H309 H 0.88036 0.41657 0.23117 0.0
H310 H 0.90086 0.41355 0.14704 0.0
H311 H 0.84823 0.42281 0.11587 0.0
C312 C 0.25448 0.66131 0.54637 0.0
C313 C 0.30864 0.73563 0.55927 0.0
C314 C 0.34688 0.79213 0.50665 0.0
C315 C 0.28235 0.72279 0.49429 0.0
N316 N 0.17346 0.59001 0.50182 0.0
N317 N 0.40687 0.87286 0.55281 0.0
C318 C 0.23664 0.6562 0.51381 0.0
C319 C 0.35574 0.80136 0.53973 0.0
N320 N 0.22043 0.59589 0.56528 0.0
N321 N 0.40029 0.84797 0.48657 0.0
H322 H 0.41646 0.88128 0.57708 0.0
H323 H 0.4361 0.92487 0.53981 0.0
H324 H 0.39648 0.84038 0.46213 0.0
H325 H 0.45218 0.89721 0.49403 0.0
H326 H 0.18724 0.53873 0.55665 0.0
H327 H 0.23077 0.59799 0.58952 0.0
H328 H 0.13221 0.54409 0.51578 0.0
H329 H 0.15915 0.58206 0.47797 0.0
C330 C 0.5688 0.38143 0.86184 0.0
C331 C 0.58221 0.32796 0.87946 0.0
C332 C 0.57398 0.25488 0.83168 0.0
C333 C 0.55469 0.30495 0.81463 0.0
N334 N 0.56533 0.43147 0.80997 0.0
N335 N 0.61791 0.22738 0.88121 0.0
C336 C 0.56186 0.37324 0.82865 0.0
C337 C 0.59181 0.26913 0.86431 0.0
N338 N 0.55964 0.43781 0.87687 0.0
N339 N 0.5726 0.19251 0.81689 0.0
H340 H 0.63015 0.23584 0.90532 0.0
H341 H 0.63296 0.18845 0.87126 0.0
H342 H 0.56417 0.18306 0.79267 0.0
H343 H 0.57818 0.14904 0.82854 0.0
H344 H 0.54083 0.47238 0.86544 0.0
H345 H 0.5662 0.44682 0.90121 0.0
H346 H 0.57998 0.4868 0.81858 0.0
H347 H 0.56346 0.42733 0.78537 0.0
C348 C 0.44067 0.44419 0.04768 0.0
C349 C 0.40104 0.41274 0.07649 0.0
C350 C 0.52322 0.49174 0.10583 0.0
C351 C 0.56196 0.52726 0.07712 0.0
N352 N 0.5565 0.54797 1.02145 0.0
N353 N 0.4066 0.3868 0.13126 0.0
C354 C 0.52038 0.50639 0.04816 0.0
C355 C 0.44318 0.43092 0.10514 0.0
N356 N 0.40221 0.41268 1.02 0.0
N357 N 0.56238 0.519 0.1338 0.0
H358 H 0.34929 0.3389 0.13019 0.0
H359 H 0.43433 0.39235 0.1528 0.0
H360 H 0.62074 0.56467 0.13496 0.0
H361 H 0.53586 0.50108 0.15584 0.0
H362 H 0.42857 0.42876 0.99786 0.0
H363 H 0.34544 0.36401 1.01971 0.0
H364 H 0.52801 0.54003 0.99991 0.0
H365 H 0.61372 0.59581 1.0217 0.0
C366 C -0.00028 0.50714 0.38682 0.0
C367 C 0.01326 0.54689 0.4159 0.0
C368 C 0.97 0.4228 0.44438 0.0
C369 C 0.96039 0.38454 0.415 0.0
N370 N 0.98572 0.39266 0.35938 0.0
N371 N 0.00721 0.54481 0.47258 0.0
C372 C 0.98208 0.4278 0.38659 0.0
C373 C -0.00223 0.5053 0.44489 0.0
N374 N 0.00028 0.5442 0.3595 0.0
N375 N 0.95166 0.3792 0.47151 0.0
H376 H 0.02343 0.60421 0.47321 0.0
H377 H -0.0016 0.51976 0.49491 0.0
H378 H 0.93464 0.31954 0.47133 0.0
H379 H 0.95392 0.40095 0.49406 0.0
H380 H 0.98205 0.51507 0.33794 0.0
H381 H 0.01069 0.60174 0.35911 0.0
H382 H 0.00695 0.42286 0.33813 0.0
H383 H 0.97469 0.33488 0.35913 0.0
C384 C 0.46902 0.01862 0.71567 0.0
C385 C 0.43993 0.03354 0.7437 0.0
C386 C 0.52526 0.00323 0.77544 0.0
C387 C 0.55429 0.98837 0.74734 0.0
N388 N 0.56981 0.00035 0.69108 0.0
N389 N 0.42905 0.0289 0.80026 0.0
C390 C 0.5312 0.00204 0.7175 0.0
C391 C 0.46503 0.0228 0.77369 0.0
N392 N 0.43431 0.01667 0.6875 0.0
N393 N 0.55775 0.00065 0.80362 0.0
H394 H 0.38385 0.04191 0.79935 0.0
H395 H 0.4398 0.01623 0.82293 0.0
H396 H 0.60391 0.98905 0.80496 0.0
H397 H 0.54316 0.01446 0.82531 0.0
H398 H 0.44788 -0.00041 0.66628 0.0
H399 H 0.38601 0.02474 0.68609 0.0
H400 H 0.56023 0.01548 0.66863 0.0
H401 H 0.61757 0.99159 0.69242 0.0
C402 C 0.47396 0.52717 0.74583 0.0
C403 C 0.47561 0.57314 0.71995 0.0
C404 C 0.45327 0.46681 0.68402 0.0
C405 C 0.44551 0.41843 0.71034 0.0
N406 N 0.41948 0.39568 0.76619 0.0
N407 N 0.44137 0.57669 0.66549 0.0
C408 C 0.44654 0.44623 0.74127 0.0
C409 C 0.45787 0.54024 0.68924 0.0
N410 N 0.49972 0.56109 0.77471 0.0
N411 N 0.45665 0.44314 0.65407 0.0
H412 H 0.44077 0.62884 0.66893 0.0
H413 H 0.42084 0.55122 0.6434 0.0
H414 H 0.44918 0.38793 0.64908 0.0
H415 H 0.47128 0.48023 0.63452 0.0
H416 H 0.50356 0.53099 0.79422 0.0
H417 H 0.52385 0.62135 0.77828 0.0
H418 H 0.41323 0.41265 0.78881 0.0
H419 H 0.39329 0.3354 0.76323 0.0
C420 C 0.05376 0.51824 1.02361 0.0
C421 C 0.07716 0.51341 0.05475 0.0
C422 C 0.98281 0.54836 0.07546 0.0
C423 C 0.9485 0.53691 0.04503 0.0
N424 N 0.95169 0.50979 0.98951 0.0
N425 N 0.06079 0.51878 0.11092 0.0
C426 C 0.98423 0.52156 1.01891 0.0
C427 C 0.04087 0.52726 0.08086 0.0
N428 N 0.10035 0.52456 0.99861 0.0
N429 N 0.96157 0.58083 0.09906 0.0
H430 H 0.10274 0.50296 0.11577 0.0
H431 H 0.03132 0.52077 0.13097 0.0
H432 H 0.92402 0.60233 0.09526 0.0
H433 H -0.01132 0.59585 0.12108 0.0
H434 H 0.09032 0.53616 0.9756 0.0
H435 H 0.15406 0.52717 1.00144 0.0
H436 H 0.96879 0.48777 0.97067 0.0
H437 H 0.90514 0.51872 0.98428 0.0
C438 C 0.45769 0.92959 0.3615 0.0
C439 C 0.40767 0.92137 0.38705 0.0
C440 C 0.49752 0.05676 0.40288 0.0
C441 C 0.55322 0.06185 0.38012 0.0
N442 N 0.58906 -0.00152 0.33973 0.0
N443 N 0.38819 0.97123 0.43594 0.0
C444 C 0.53445 -0.00329 0.36011 0.0
C445 C 0.42942 0.98337 0.40864 0.0
N446 N 0.43076 0.87415 0.33812 0.0
N447 N 0.50841 0.12151 0.4192 0.0
H448 H 0.33616 0.91919 0.44074 0.0
H449 H 0.41028 0.01028 0.45487 0.0
H450 H 0.56083 0.1751 0.41977 0.0
H451 H 0.46358 0.12187 0.43219 0.0
H452 H 0.46147 0.88034 0.31729 0.0
H453 H 0.37387 0.82556 0.33808 0.0
H454 H 0.58096 0.9493 0.32727 0.0
H455 H 0.64502 0.04703 0.33696 0.0
C456 C 0.20589 0.35126 0.91437 0.0
C457 C 0.21455 0.28422 0.91103 0.0
C458 C 0.20719 0.26741 0.96894 0.0
C459 C 0.20413 0.33803 0.97258 0.0
N460 N 0.21 0.45232 0.94833 0.0
N461 N 0.23511 0.1849 0.93485 0.0
C462 C 0.20642 0.38144 0.94512 0.0
C463 C 0.21805 0.2439 0.93826 0.0
N464 N 0.19485 0.38494 0.88804 0.0
N465 N 0.20021 0.2226 0.99479 0.0
H466 H 0.24215 0.16531 0.91288 0.0
H467 H 0.24851 0.15943 0.95361 0.0
H468 H 0.1982 0.23961 1.01783 0.0
H469 H 0.1916 0.16591 0.99341 0.0
H470 H 0.17886 0.42795 0.88873 0.0
H471 H 0.19618 0.36593 0.86518 0.0
H472 H 0.22245 0.49182 0.92982 0.0
H473 H 0.20497 0.47415 0.96996 0.0
C474 C 0.81202 0.17341 0.27594 0.0
C475 C 0.85923 0.18605 0.30322 0.0
C476 C 0.9735 0.2214 0.26876 0.0
C477 C 0.92546 0.20576 0.24156 0.0
N478 N 0.79635 0.15369 0.21914 0.0
N479 N 0.98155 0.20979 0.32569 0.0
C480 C 0.84386 0.17774 0.24518 0.0
C481 C 0.93887 0.2058 0.2996 0.0
N482 N 0.73688 0.15898 0.2794 0.0
N483 N 0.05291 0.25438 0.26511 0.0
H484 H 0.95863 0.20024 0.3485 0.0
H485 H 0.0373 0.2163 0.32468 0.0
H486 H 0.07997 0.26567 0.24303 0.0
H487 H 0.09274 0.27601 0.28374 0.0
H488 H 0.7023 0.15855 0.26074 0.0
H489 H 0.71007 0.15166 0.30132 0.0
H490 H 0.73528 0.12447 0.22021 0.0
H491 H 0.81761 0.15731 0.19627 0.0
C492 C 0.61625 0.82056 0.61706 0.0
C493 C 0.64761 0.87486 0.64255 0.0
C494 C 0.71358 0.98388 0.60413 0.0
C495 C 0.68335 0.92949 0.57862 0.0
N496 N 0.61609 0.79483 0.56081 0.0
N497 N 0.74175 0.00521 0.66033 0.0
C498 C 0.6374 0.84738 0.58514 0.0
C499 C 0.70118 0.95564 0.63604 0.0
N500 N 0.56635 0.74277 0.62356 0.0
N501 N 0.7515 0.06289 0.59791 0.0
H502 H 0.73512 0.98606 0.68369 0.0
H503 H 0.78704 0.06304 0.65712 0.0
H504 H 0.76181 0.08566 0.57502 0.0
H505 H 0.76689 0.10564 0.61528 0.0
H506 H 0.53258 0.70076 0.60669 0.0
H507 H 0.55762 0.72064 0.64647 0.0
H508 H 0.58932 0.73417 0.56382 0.0
H509 H 0.63001 0.81216 0.5373 0.0
C510 C 0.73885 0.75326 0.94121 0.0
C511 C 0.76551 0.73022 0.91427 0.0
C512 C 0.80848 0.6577 0.94862 0.0
C513 C 0.78203 0.6806 0.97569 0.0
N514 N 0.7304 0.75734 0.99856 0.0
N515 N 0.83665 0.67148 0.89233 0.0
C516 C 0.75026 0.73114 0.9722 0.0
C517 C 0.80357 0.68564 0.91804 0.0
N518 N 0.7006 0.79448 0.93695 0.0
N519 N 0.83712 0.60765 0.95223 0.0
H520 H 0.83244 0.689 0.8695 0.0
H521 H 0.87278 0.64713 0.89362 0.0
H522 H 0.84818 0.59197 0.97431 0.0
H523 H 0.84704 0.57915 0.93365 0.0
H524 H 0.67289 0.80752 0.95485 0.0
H525 H 0.69293 0.81286 0.91478 0.0
H526 H 0.71295 0.7992 0.99837 0.0
H527 H 0.73563 0.74039 1.02134 0.0
C528 C 0.07694 0.69002 0.28771 0.0
C529 C 0.11284 0.75951 0.30713 0.0
C530 C 0.08975 0.83088 0.26367 0.0
C531 C 0.04582 0.75929 0.2467 0.0
N532 N 0.98646 0.61836 0.24515 0.0
N533 N 0.15796 0.89856 0.31164 0.0
C534 C 0.03666 0.68852 0.25944 0.0
C535 C 0.11988 0.83045 0.29456 0.0
N536 N 0.08249 0.62522 0.2951 0.0
N537 N 0.10584 0.90009 0.24954 0.0
H538 H 0.19306 0.90531 0.33113 0.0
H539 H 0.15453 0.94865 0.3067 0.0
H540 H 0.08473 0.90245 0.22721 0.0
H541 H 0.14432 0.95559 0.25865 0.0
H542 H 0.06823 0.5795 0.27923 0.0
H543 H 0.10677 0.61776 0.31552 0.0
H544 H 0.96885 0.56376 0.25547 0.0
H545 H 0.95614 0.61413 0.22437 0.0
C546 C 0.30943 0.15049 0.61319 0.0
C547 C 0.29512 0.10236 0.64032 0.0
C548 C 0.22928 0.98426 0.60638 0.0
C549 C 0.24089 0.0324 0.57941 0.0
N550 N 0.27534 0.16034 0.55892 0.0
N551 N 0.22829 0.97303 0.66368 0.0
C552 C 0.27627 0.11531 0.58337 0.0
C553 C 0.25034 0.01905 0.63719 0.0
N554 N 0.35582 0.23032 0.61584 0.0
N555 N 0.20197 0.90566 0.60243 0.0
H556 H 0.2441 -0.00366 0.68635 0.0
H557 H 0.18897 0.91259 0.66354 0.0
H558 H 0.18866 0.8784 0.5804 0.0
H559 H 0.19836 0.86844 0.62063 0.0
H560 H 0.3773 0.2683 0.59653 0.0
H561 H 0.37651 0.25812 0.63751 0.0
H562 H 0.29277 0.21969 0.56114 0.0
H563 H 0.24993 0.13669 0.5371 0.0
loop_
_geom_bond_atom_site_label_1
_geom_bond_atom_site_label_2
_geom_bond_distance
_geom_bond_site_symmetry_2
_ccdc_geom_bond_type
Nd0 C2 2.836 . S
Nd0 O20 2.500 . S
Nd0 O21 2.492 . S
Nd0 O22 2.487 . S
Nd0 O23 2.682 . S
Nd0 O24 2.410 . S
Nd0 O29 2.414 . S
Nd0 O31 2.424 . S
Nd1 C11 2.836 1_554 S
Nd1 O23 2.414 . S
Nd1 O25 2.424 . S
Nd1 O26 2.500 1_554 S
Nd1 O27 2.492 1_554 S
Nd1 O28 2.487 . S
Nd1 O29 2.682 . S
Nd1 O30 2.410 1_554 S
C2 Nd0 2.836 . S
C2 C3 1.498 . S
C2 O20 1.258 . S
C2 O21 1.239 . S
C3 C2 1.498 . S
C3 C4 1.370 . S
C3 C8 1.407 . S
C4 C3 1.370 . S
C4 C5 1.391 1_455 S
C4 H32 0.927 1_455 S
C5 C4 1.391 1_655 S
C5 C6 1.398 . S
C5 H33 0.929 . S
C6 C5 1.398 . S
C6 C7 1.352 1_655 S
C7 C6 1.352 1_455 S
C7 C8 1.384 . S
C7 H34 0.930 . S
C8 C3 1.407 . S
C8 C7 1.384 . S
C8 H35 0.929 . S
C9 O22 1.241 . S
C9 O23 1.273 . S
C10 O24 1.251 . S
C10 O25 1.268 . S
C11 Nd1 2.836 1_556 S
C11 C12 1.498 . S
C11 O26 1.258 . S
C11 O27 1.239 . S
C12 C11 1.498 . S
C12 C13 1.366 . S
C12 C17 1.407 . S
C13 C12 1.366 . S
C13 C14 1.392 . S
C13 H36 0.930 . S
C14 C13 1.392 . S
C14 C15 1.398 . S
C14 H37 0.929 . S
C15 C14 1.398 . S
C15 C16 1.352 . S
C16 C15 1.352 . S
C16 C17 1.384 . S
C16 H38 0.930 . S
C17 C12 1.407 . S
C17 C16 1.384 . S
C17 H39 0.929 . S
C18 O28 1.241 . S
C18 O29 1.273 . S
C19 O30 1.251 . S
C19 O31 1.268 1_556 S
O20 Nd0 2.500 . S
O20 C2 1.258 . S
O21 Nd0 2.492 . S
O21 C2 1.239 . S
O22 Nd0 2.487 . S
O22 C9 1.241 . S
O23 Nd0 2.682 . S
O23 Nd1 2.414 . S
O23 C9 1.273 . S
O24 Nd0 2.410 . S
O24 C10 1.251 . S
O25 Nd1 2.424 . S
O25 C10 1.268 . S
O26 Nd1 2.500 1_556 S
O26 C11 1.258 . S
O27 Nd1 2.492 1_556 S
O27 C11 1.239 . S
O28 Nd1 2.487 . S
O28 C18 1.241 . S
O29 Nd0 2.414 . S
O29 Nd1 2.682 . S
O29 C18 1.273 . S
O30 Nd1 2.410 1_556 S
O30 C19 1.251 . S
O31 Nd0 2.424 . S
O31 C19 1.268 1_554 S
H32 C4 0.927 1_655 S
H33 C5 0.929 . S
H34 C7 0.930 . S
H35 C8 0.929 . S
H36 C13 0.930 . S
H37 C14 0.929 . S
H38 C16 0.930 . S
H39 C17 0.929 . S
Nd40 C42 2.836 . S
Nd40 O60 2.500 . S
Nd40 O61 2.492 . S
Nd40 O62 2.487 . S
Nd40 O63 2.682 . S
Nd40 O64 2.410 . S
Nd40 O69 2.414 . S
Nd40 O71 2.424 . S
Nd41 C51 2.836 . S
Nd41 O63 2.414 . S
Nd41 O65 2.424 . S
Nd41 O66 2.500 . S
Nd41 O67 2.492 . S
Nd41 O68 2.487 . S
Nd41 O69 2.682 . S
Nd41 O70 2.410 . S
C42 Nd40 2.836 . S
C42 C43 1.498 . S
C42 O60 1.258 . S
C42 O61 1.239 . S
C43 C42 1.498 . S
C43 C44 1.368 . S
C43 C48 1.407 . S
C44 C43 1.368 . S
C44 C45 1.390 1_545 S
C44 H72 0.930 1_545 S
C45 C44 1.390 1_565 S
C45 C46 1.398 . S
C45 H73 0.929 . S
C46 C45 1.398 . S
C46 C47 1.352 1_565 S
C47 C46 1.352 1_545 S
C47 C48 1.384 . S
C47 H74 0.930 . S
C48 C43 1.407 . S
C48 C47 1.384 . S
C48 H75 0.929 . S
C49 O62 1.241 . S
C49 O63 1.273 . S
C50 O64 1.251 . S
C50 O65 1.268 . S
C51 Nd41 2.836 . S
C51 C52 1.498 . S
C51 O66 1.258 . S
C51 O67 1.239 . S
C52 C51 1.498 . S
C52 C53 1.366 . S
C52 C57 1.407 . S
C53 C52 1.366 . S
C53 C54 1.392 . S
C53 H76 0.930 . S
C54 C53 1.392 . S
C54 C55 1.398 . S
C54 H77 0.929 . S
C55 C54 1.398 . S
C55 C56 1.352 . S
C56 C55 1.352 . S
C56 C57 1.384 . S
C56 H78 0.930 . S
C57 C52 1.407 . S
C57 C56 1.384 . S
C57 H79 0.929 . S
C58 O68 1.241 . S
C58 O69 1.273 . S
C59 O70 1.251 . S
C59 O71 1.268 . S
O60 Nd40 2.500 . S
O60 C42 1.258 . S
O61 Nd40 2.492 . S
O61 C42 1.239 . S
O62 Nd40 2.487 . S
O62 C49 1.241 . S
O63 Nd40 2.682 . S
O63 Nd41 2.414 . S
O63 C49 1.273 . S
O64 Nd40 2.410 . S
O64 C50 1.251 . S
O65 Nd41 2.424 . S
O65 C50 1.268 . S
O66 Nd41 2.500 . S
O66 C51 1.258 . S
O67 Nd41 2.492 . S
O67 C51 1.239 . S
O68 Nd41 2.487 . S
O68 C58 1.241 . S
O69 Nd40 2.414 . S
O69 Nd41 2.682 . S
O69 C58 1.273 . S
O70 Nd41 2.410 . S
O70 C59 1.251 . S
O71 Nd40 2.424 . S
O71 C59 1.268 . S
H72 C44 0.930 1_565 S
H73 C45 0.929 . S
H74 C47 0.930 . S
H75 C48 0.929 . S
H76 C53 0.930 . S
H77 C54 0.929 . S
H78 C56 0.930 . S
H79 C57 0.929 . S
Nd80 C82 2.836 . S
Nd80 O100 2.500 . S
Nd80 O101 2.492 . S
Nd80 O102 2.487 . S
Nd80 O103 2.682 . S
Nd80 O104 2.410 . S
Nd80 O109 2.414 . S
Nd80 O111 2.424 . S
Nd81 C91 2.836 . S
Nd81 O103 2.414 . S
Nd81 O105 2.424 . S
Nd81 O106 2.500 . S
Nd81 O107 2.492 . S
Nd81 O108 2.487 . S
Nd81 O109 2.682 . S
Nd81 O110 2.410 . S
C82 Nd80 2.836 . S
C82 C83 1.498 . S
C82 O100 1.258 . S
C82 O101 1.239 . S
C83 C82 1.498 . S
C83 C84 1.366 . S
C83 C88 1.407 . S
C84 C83 1.366 . S
C84 C85 1.392 . S
C84 H112 0.930 . S
C85 C84 1.392 . S
C85 C86 1.398 . S
C85 H113 0.929 . S
C86 C85 1.398 . S
C86 C87 1.352 . S
C87 C86 1.352 . S
C87 C88 1.384 . S
C87 H114 0.930 . S
C88 C83 1.407 . S
C88 C87 1.384 . S
C88 H115 0.929 . S
C89 O102 1.241 . S
C89 O103 1.273 . S
C90 O104 1.251 . S
C90 O105 1.268 . S
C91 Nd81 2.836 . S
C91 C92 1.498 . S
C91 O106 1.258 . S
C91 O107 1.239 . S
C92 C91 1.498 . S
C92 C93 1.366 . S
C92 C97 1.407 . S
C93 C92 1.366 . S
C93 C94 1.392 . S
C93 H116 0.930 . S
C94 C93 1.392 . S
C94 C95 1.398 . S
C94 H117 0.929 . S
C95 C94 1.398 . S
C95 C96 1.352 . S
C96 C95 1.352 . S
C96 C97 1.384 . S
C96 H118 0.930 . S
C97 C92 1.407 . S
C97 C96 1.384 . S
C97 H119 0.929 . S
C98 O108 1.241 . S
C98 O109 1.273 . S
C99 O110 1.251 . S
C99 O111 1.268 . S
O100 Nd80 2.500 . S
O100 C82 1.258 . S
O101 Nd80 2.492 . S
O101 C82 1.239 . S
O102 Nd80 2.487 . S
O102 C89 1.241 . S
O103 Nd80 2.682 . S
O103 Nd81 2.414 . S
O103 C89 1.273 . S
O104 Nd80 2.410 . S
O104 C90 1.251 . S
O105 Nd81 2.424 . S
O105 C90 1.268 . S
O106 Nd81 2.500 . S
O106 C91 1.258 . S
O107 Nd81 2.492 . S
O107 C91 1.239 . S
O108 Nd81 2.487 . S
O108 C98 1.241 . S
O109 Nd80 2.414 . S
O109 Nd81 2.682 . S
O109 C98 1.273 . S
O110 Nd81 2.410 . S
O110 C99 1.251 . S
O111 Nd80 2.424 . S
O111 C99 1.268 . S
H112 C84 0.930 . S
H113 C85 0.929 . S
H114 C87 0.930 . S
H115 C88 0.929 . S
H116 C93 0.930 . S
H117 C94 0.929 . S
H118 C96 0.930 . S
H119 C97 0.929 . S
Nd120 C122 2.836 . S
Nd120 O140 2.500 . S
Nd120 O141 2.492 . S
Nd120 O142 2.487 . S
Nd120 O143 2.682 . S
Nd120 O144 2.410 . S
Nd120 O149 2.414 . S
Nd120 O151 2.424 . S
Nd121 C131 2.836 1_554 S
Nd121 O143 2.414 . S
Nd121 O145 2.424 . S
Nd121 O146 2.500 1_554 S
Nd121 O147 2.492 1_554 S
Nd121 O148 2.487 . S
Nd121 O149 2.682 . S
Nd121 O150 2.410 1_554 S
C122 Nd120 2.836 . S
C122 C123 1.498 . S
C122 O140 1.258 . S
C122 O141 1.239 . S
C123 C122 1.498 . S
C123 C124 1.370 . S
C123 C128 1.407 . S
C124 C123 1.370 . S
C124 C125 1.391 1_655 S
C124 H152 0.927 1_655 S
C125 C124 1.391 1_455 S
C125 C126 1.398 . S
C125 H153 0.929 . S
C126 C125 1.398 . S
C126 C127 1.352 1_455 S
C127 C126 1.352 1_655 S
C127 C128 1.384 . S
C127 H154 0.930 . S
C128 C123 1.407 . S
C128 C127 1.384 . S
C128 H155 0.929 . S
C129 O142 1.241 . S
C129 O143 1.273 . S
C130 O144 1.251 . S
C130 O145 1.268 . S
C131 Nd121 2.836 1_556 S
C131 C132 1.498 . S
C131 O146 1.258 . S
C131 O147 1.239 . S
C132 C131 1.498 . S
C132 C133 1.366 . S
C132 C137 1.407 . S
C133 C132 1.366 . S
C133 C134 1.392 . S
C133 H156 0.930 . S
C134 C133 1.392 . S
C134 C135 1.398 . S
C134 H157 0.929 . S
C135 C134 1.398 . S
C135 C136 1.352 . S
C136 C135 1.352 . S
C136 C137 1.384 . S
C136 H158 0.930 . S
C137 C132 1.407 . S
C137 C136 1.384 . S
C137 H159 0.929 . S
C138 O148 1.241 . S
C138 O149 1.273 . S
C139 O150 1.251 . S
C139 O151 1.268 1_556 S
O140 Nd120 2.500 . S
O140 C122 1.258 . S
O141 Nd120 2.492 . S
O141 C122 1.239 . S
O142 Nd120 2.487 . S
O142 C129 1.241 . S
O143 Nd120 2.682 . S
O143 Nd121 2.414 . S
O143 C129 1.273 . S
O144 Nd120 2.410 . S
O144 C130 1.251 . S
O145 Nd121 2.424 . S
O145 C130 1.268 . S
O146 Nd121 2.500 1_556 S
O146 C131 1.258 . S
O147 Nd121 2.492 1_556 S
O147 C131 1.239 . S
O148 Nd121 2.487 . S
O148 C138 1.241 . S
O149 Nd120 2.414 . S
O149 Nd121 2.682 . S
O149 C138 1.273 . S
O150 Nd121 2.410 1_556 S
O150 C139 1.251 . S
O151 Nd120 2.424 . S
O151 C139 1.268 1_554 S
H152 C124 0.927 1_455 S
H153 C125 0.929 . S
H154 C127 0.930 . S
H155 C128 0.929 . S
H156 C133 0.930 . S
H157 C134 0.929 . S
H158 C136 0.930 . S
H159 C137 0.929 . S
Nd160 C162 2.836 . S
Nd160 O180 2.500 . S
Nd160 O181 2.492 . S
Nd160 O182 2.487 . S
Nd160 O183 2.682 . S
Nd160 O184 2.410 . S
Nd160 O189 2.414 . S
Nd160 O191 2.424 . S
Nd161 C171 2.836 . S
Nd161 O183 2.414 . S
Nd161 O185 2.424 . S
Nd161 O186 2.500 . S
Nd161 O187 2.492 . S
Nd161 O188 2.487 . S
Nd161 O189 2.682 . S
Nd161 O190 2.410 . S
C162 Nd160 2.836 . S
C162 C163 1.498 . S
C162 O180 1.258 . S
C162 O181 1.239 . S
C163 C162 1.498 . S
C163 C164 1.368 . S
C163 C168 1.407 . S
C164 C163 1.368 . S
C164 C165 1.390 1_565 S
C164 H192 0.930 1_565 S
C165 C164 1.390 1_545 S
C165 C166 1.398 . S
C165 H193 0.929 . S
C166 C165 1.398 . S
C166 C167 1.352 1_545 S
C167 C166 1.352 1_565 S
C167 C168 1.384 . S
C167 H194 0.930 . S
C168 C163 1.407 . S
C168 C167 1.384 . S
C168 H195 0.929 . S
C169 O182 1.241 . S
C169 O183 1.273 . S
C170 O184 1.251 . S
C170 O185 1.268 . S
C171 Nd161 2.836 . S
C171 C172 1.498 . S
C171 O186 1.258 . S
C171 O187 1.239 . S
C172 C171 1.498 . S
C172 C173 1.366 . S
C172 C177 1.407 . S
C173 C172 1.366 . S
C173 C174 1.392 . S
C173 H196 0.930 . S
C174 C173 1.392 . S
C174 C175 1.398 . S
C174 H197 0.929 . S
C175 C174 1.398 . S
C175 C176 1.352 . S
C176 C175 1.352 . S
C176 C177 1.384 . S
C176 H198 0.930 . S
C177 C172 1.407 . S
C177 C176 1.384 . S
C177 H199 0.929 . S
C178 O188 1.241 . S
C178 O189 1.273 . S
C179 O190 1.251 . S
C179 O191 1.268 . S
O180 Nd160 2.500 . S
O180 C162 1.258 . S
O181 Nd160 2.492 . S
O181 C162 1.239 . S
O182 Nd160 2.487 . S
O182 C169 1.241 . S
O183 Nd160 2.682 . S
O183 Nd161 2.414 . S
O183 C169 1.273 . S
O184 Nd160 2.410 . S
O184 C170 1.251 . S
O185 Nd161 2.424 . S
O185 C170 1.268 . S
O186 Nd161 2.500 . S
O186 C171 1.258 . S
O187 Nd161 2.492 . S
O187 C171 1.239 . S
O188 Nd161 2.487 . S
O188 C178 1.241 . S
O189 Nd160 2.414 . S
O189 Nd161 2.682 . S
O189 C178 1.273 . S
O190 Nd161 2.410 . S
O190 C179 1.251 . S
O191 Nd160 2.424 . S
O191 C179 1.268 . S
H192 C164 0.930 1_545 S
H193 C165 0.929 . S
H194 C167 0.930 . S
H195 C168 0.929 . S
H196 C173 0.930 . S
H197 C174 0.929 . S
H198 C176 0.930 . S
H199 C177 0.929 . S
Nd200 C202 2.836 . S
Nd200 O220 2.500 . S
Nd200 O221 2.492 . S
Nd200 O222 2.487 . S
Nd200 O223 2.682 . S
Nd200 O224 2.410 . S
Nd200 O229 2.414 . S
Nd200 O231 2.424 . S
Nd201 C211 2.836 . S
Nd201 O223 2.414 . S
Nd201 O225 2.424 . S
Nd201 O226 2.500 . S
Nd201 O227 2.492 . S
Nd201 O228 2.487 . S
Nd201 O229 2.682 . S
Nd201 O230 2.410 . S
C202 Nd200 2.836 . S
C202 C203 1.498 . S
C202 O220 1.258 . S
C202 O221 1.239 . S
C203 C202 1.498 . S
C203 C204 1.366 . S
C203 C208 1.407 . S
C204 C203 1.366 . S
C204 C205 1.392 . S
C204 H232 0.930 . S
C205 C204 1.392 . S
C205 C206 1.398 . S
C205 H233 0.929 . S
C206 C205 1.398 . S
C206 C207 1.352 . S
C207 C206 1.352 . S
C207 C208 1.384 . S
C207 H234 0.930 . S
C208 C203 1.407 . S
C208 C207 1.384 . S
C208 H235 0.929 . S
C209 O222 1.241 . S
C209 O223 1.273 . S
C210 O224 1.251 . S
C210 O225 1.268 . S
C211 Nd201 2.836 . S
C211 C212 1.498 . S
C211 O226 1.258 . S
C211 O227 1.239 . S
C212 C211 1.498 . S
C212 C213 1.366 . S
C212 C217 1.407 . S
C213 C212 1.366 . S
C213 C214 1.392 . S
C213 H236 0.930 . S
C214 C213 1.392 . S
C214 C215 1.398 . S
C214 H237 0.929 . S
C215 C214 1.398 . S
C215 C216 1.352 . S
C216 C215 1.352 . S
C216 C217 1.384 . S
C216 H238 0.930 . S
C217 C212 1.407 . S
C217 C216 1.384 . S
C217 H239 0.929 . S
C218 O228 1.241 . S
C218 O229 1.273 . S
C219 O230 1.251 . S
C219 O231 1.268 . S
O220 Nd200 2.500 . S
O220 C202 1.258 . S
O221 Nd200 2.492 . S
O221 C202 1.239 . S
O222 Nd200 2.487 . S
O222 C209 1.241 . S
O223 Nd200 2.682 . S
O223 Nd201 2.414 . S
O223 C209 1.273 . S
O224 Nd200 2.410 . S
O224 C210 1.251 . S
O225 Nd201 2.424 . S
O225 C210 1.268 . S
O226 Nd201 2.500 . S
O226 C211 1.258 . S
O227 Nd201 2.492 . S
O227 C211 1.239 . S
O228 Nd201 2.487 . S
O228 C218 1.241 . S
O229 Nd200 2.414 . S
O229 Nd201 2.682 . S
O229 C218 1.273 . S
O230 Nd201 2.410 . S
O230 C219 1.251 . S
O231 Nd200 2.424 . S
O231 C219 1.268 . S
H232 C204 0.930 . S
H233 C205 0.929 . S
H234 C207 0.930 . S
H235 C208 0.929 . S
H236 C213 0.930 . S
H237 C214 0.929 . S
H238 C216 0.930 . S
H239 C217 0.929 . S
C240 C241 1.363 . S
C240 C246 1.379 . S
C240 N248 1.356 . S
C241 C240 1.363 . S
C241 C247 1.363 . S
C242 C243 1.363 . S
C242 C247 1.379 . S
C242 N249 1.356 . S
C243 C242 1.363 . S
C243 C246 1.363 . S
N244 C246 1.356 . S
N244 H256 0.984 . S
N244 H257 0.985 . S
N245 C247 1.356 . S
N245 H250 0.984 . S
N245 H251 0.985 . S
C246 C240 1.379 . S
C246 C243 1.363 . S
C246 N244 1.356 . S
C247 C241 1.363 . S
C247 C242 1.379 . S
C247 N245 1.356 . S
N248 C240 1.356 . S
N248 H254 0.984 . S
N248 H255 0.984 . S
N249 C242 1.356 . S
N249 H252 0.984 . S
N249 H253 0.985 . S
H250 N245 0.984 . S
H251 N245 0.985 . S
H252 N249 0.984 . S
H253 N249 0.985 . S
H254 N248 0.984 . S
H255 N248 0.984 . S
H256 N244 0.984 . S
H257 N244 0.985 . S
C258 C259 1.363 . S
C258 C264 1.379 . S
C258 N266 1.356 . S
C259 C258 1.363 . S
C259 C265 1.363 . S
C260 C261 1.363 . S
C260 C265 1.379 . S
C260 N267 1.356 . S
C261 C260 1.363 . S
C261 C264 1.363 . S
N262 C264 1.356 . S
N262 H274 0.984 . S
N262 H275 0.985 . S
N263 C265 1.356 . S
N263 H268 0.984 . S
N263 H269 0.985 . S
C264 C258 1.379 . S
C264 C261 1.363 . S
C264 N262 1.356 . S
C265 C259 1.363 . S
C265 C260 1.379 . S
C265 N263 1.356 . S
N266 C258 1.356 . S
N266 H272 0.984 . S
N266 H273 0.984 . S
N267 C260 1.356 . S
N267 H270 0.984 . S
N267 H271 0.985 . S
H268 N263 0.984 . S
H269 N263 0.985 . S
H270 N267 0.984 . S
H271 N267 0.985 . S
H272 N266 0.984 . S
H273 N266 0.984 . S
H274 N262 0.984 . S
H275 N262 0.985 . S
C276 C277 1.363 . S
C276 C282 1.379 . S
C276 N284 1.356 . S
C277 C276 1.363 . S
C277 C283 1.363 . S
C278 C279 1.363 . S
C278 C283 1.379 . S
C278 N285 1.356 . S
C279 C278 1.363 . S
C279 C282 1.363 . S
N280 C282 1.356 . S
N280 H292 0.984 . S
N280 H293 0.985 . S
N281 C283 1.356 . S
N281 H286 0.984 . S
N281 H287 0.985 . S
C282 C276 1.379 . S
C282 C279 1.363 . S
C282 N280 1.356 . S
C283 C277 1.363 . S
C283 C278 1.379 . S
C283 N281 1.356 . S
N284 C276 1.356 . S
N284 H290 0.984 . S
N284 H291 0.984 . S
N285 C278 1.356 . S
N285 H288 0.984 . S
N285 H289 0.985 . S
H286 N281 0.984 . S
H287 N281 0.985 . S
H288 N285 0.984 . S
H289 N285 0.985 . S
H290 N284 0.984 . S
H291 N284 0.984 . S
H292 N280 0.984 . S
H293 N280 0.985 . S
C294 C295 1.363 . S
C294 C300 1.379 . S
C294 N302 1.356 . S
C295 C294 1.363 . S
C295 C301 1.363 . S
C296 C297 1.363 . S
C296 C301 1.379 . S
C296 N303 1.356 . S
C297 C296 1.363 . S
C297 C300 1.363 . S
N298 C300 1.356 . S
N298 H310 0.984 . S
N298 H311 0.985 . S
N299 C301 1.356 . S
N299 H304 0.984 . S
N299 H305 0.985 . S
C300 C294 1.379 . S
C300 C297 1.363 . S
C300 N298 1.356 . S
C301 C295 1.363 . S
C301 C296 1.379 . S
C301 N299 1.356 . S
N302 C294 1.356 . S
N302 H308 0.984 . S
N302 H309 0.984 . S
N303 C296 1.356 . S
N303 H306 0.984 . S
N303 H307 0.985 . S
H304 N299 0.984 . S
H305 N299 0.985 . S
H306 N303 0.984 . S
H307 N303 0.985 . S
H308 N302 0.984 . S
H309 N302 0.984 . S
H310 N298 0.984 . S
H311 N298 0.985 . S
C312 C313 1.363 . S
C312 C318 1.379 . S
C312 N320 1.356 . S
C313 C312 1.363 . S
C313 C319 1.363 . S
C314 C315 1.363 . S
C314 C319 1.379 . S
C314 N321 1.356 . S
C315 C314 1.363 . S
C315 C318 1.363 . S
N316 C318 1.356 . S
N316 H328 0.984 . S
N316 H329 0.985 . S
N317 C319 1.356 . S
N317 H322 0.984 . S
N317 H323 0.985 . S
C318 C312 1.379 . S
C318 C315 1.363 . S
C318 N316 1.356 . S
C319 C313 1.363 . S
C319 C314 1.379 . S
C319 N317 1.356 . S
N320 C312 1.356 . S
N320 H326 0.984 . S
N320 H327 0.984 . S
N321 C314 1.356 . S
N321 H324 0.984 . S
N321 H325 0.985 . S
H322 N317 0.984 . S
H323 N317 0.985 . S
H324 N321 0.984 . S
H325 N321 0.985 . S
H326 N320 0.984 . S
H327 N320 0.984 . S
H328 N316 0.984 . S
H329 N316 0.985 . S
C330 C331 1.363 . S
C330 C336 1.379 . S
C330 N338 1.356 . S
C331 C330 1.363 . S
C331 C337 1.363 . S
C332 C333 1.363 . S
C332 C337 1.379 . S
C332 N339 1.356 . S
C333 C332 1.363 . S
C333 C336 1.363 . S
N334 C336 1.356 . S
N334 H346 0.984 . S
N334 H347 0.985 . S
N335 C337 1.356 . S
N335 H340 0.984 . S
N335 H341 0.985 . S
C336 C330 1.379 . S
C336 C333 1.363 . S
C336 N334 1.356 . S
C337 C331 1.363 . S
C337 C332 1.379 . S
C337 N335 1.356 . S
N338 C330 1.356 . S
N338 H344 0.984 . S
N338 H345 0.984 . S
N339 C332 1.356 . S
N339 H342 0.984 . S
N339 H343 0.985 . S
H340 N335 0.984 . S
H341 N335 0.985 . S
H342 N339 0.984 . S
H343 N339 0.985 . S
H344 N338 0.984 . S
H345 N338 0.984 . S
H346 N334 0.984 . S
H347 N334 0.985 . S
C348 C349 1.363 . S
C348 C354 1.379 . S
C348 N356 1.356 . S
C349 C348 1.363 . S
C349 C355 1.363 . S
C350 C351 1.363 . S
C350 C355 1.379 . S
C350 N357 1.356 . S
C351 C350 1.363 . S
C351 C354 1.363 . S
N352 C354 1.356 . S
N352 H364 0.984 1_554 S
N352 H365 0.985 . S
N353 C355 1.356 . S
N353 H358 0.984 . S
N353 H359 0.985 . S
C354 C348 1.379 . S
C354 C351 1.363 . S
C354 N352 1.356 . S
C355 C349 1.363 . S
C355 C350 1.379 . S
C355 N353 1.356 . S
N356 C348 1.356 . S
N356 H362 0.984 1_554 S
N356 H363 0.984 . S
N357 C350 1.356 . S
N357 H360 0.984 . S
N357 H361 0.985 . S
H358 N353 0.984 . S
H359 N353 0.985 . S
H360 N357 0.984 . S
H361 N357 0.985 . S
H362 N356 0.984 1_556 S
H363 N356 0.984 . S
H364 N352 0.984 1_556 S
H365 N352 0.985 . S
C366 C367 1.363 1_655 S
C366 C372 1.379 . S
C366 N374 1.356 . S
C367 C366 1.363 1_455 S
C367 C373 1.363 . S
C368 C369 1.363 1_455 S
C368 C373 1.379 . S
C368 N375 1.356 . S
C369 C368 1.363 1_655 S
C369 C372 1.363 . S
N370 C372 1.356 . S
N370 H382 0.984 . S
N370 H383 0.985 . S
N371 C373 1.356 . S
N371 H376 0.984 . S
N371 H377 0.985 . S
C372 C366 1.379 . S
C372 C369 1.363 . S
C372 N370 1.356 . S
C373 C367 1.363 . S
C373 C368 1.379 . S
C373 N371 1.356 . S
N374 C366 1.356 . S
N374 H380 0.984 . S
N374 H381 0.984 . S
N375 C368 1.356 . S
N375 H378 0.984 . S
N375 H379 0.985 . S
H376 N371 0.984 . S
H377 N371 0.985 . S
H378 N375 0.984 . S
H379 N375 0.985 . S
H380 N374 0.984 . S
H381 N374 0.984 . S
H382 N370 0.984 . S
H383 N370 0.985 . S
C384 C385 1.363 1_565 S
C384 C390 1.379 . S
C384 N392 1.356 . S
C385 C384 1.363 1_545 S
C385 C391 1.363 . S
C386 C387 1.363 1_545 S
C386 C391 1.379 . S
C386 N393 1.356 . S
C387 C386 1.363 1_565 S
C387 C390 1.363 . S
N388 C390 1.356 . S
N388 H400 0.984 . S
N388 H401 0.985 . S
N389 C391 1.356 . S
N389 H394 0.984 . S
N389 H395 0.985 . S
C390 C384 1.379 . S
C390 C387 1.363 . S
C390 N388 1.356 . S
C391 C385 1.363 . S
C391 C386 1.379 . S
C391 N389 1.356 . S
N392 C384 1.356 . S
N392 H398 0.984 . S
N392 H399 0.984 . S
N393 C386 1.356 . S
N393 H396 0.984 . S
N393 H397 0.985 . S
H394 N389 0.984 . S
H395 N389 0.985 . S
H396 N393 0.984 . S
H397 N393 0.985 . S
H398 N392 0.984 . S
H399 N392 0.984 . S
H400 N388 0.984 . S
H401 N388 0.985 . S
C402 C403 1.363 . S
C402 C408 1.379 . S
C402 N410 1.356 . S
C403 C402 1.363 . S
C403 C409 1.363 . S
C404 C405 1.363 . S
C404 C409 1.379 . S
C404 N411 1.356 . S
C405 C404 1.363 . S
C405 C408 1.363 . S
N406 C408 1.356 . S
N406 H418 0.984 . S
N406 H419 0.985 . S
N407 C409 1.356 . S
N407 H412 0.984 . S
N407 H413 0.985 . S
C408 C402 1.379 . S
C408 C405 1.363 . S
C408 N406 1.356 . S
C409 C403 1.363 . S
C409 C404 1.379 . S
C409 N407 1.356 . S
N410 C402 1.356 . S
N410 H416 0.984 . S
N410 H417 0.984 . S
N411 C404 1.356 . S
N411 H414 0.984 . S
N411 H415 0.985 . S
H412 N407 0.984 . S
H413 N407 0.985 . S
H414 N411 0.984 . S
H415 N411 0.985 . S
H416 N410 0.984 . S
H417 N410 0.984 . S
H418 N406 0.984 . S
H419 N406 0.985 . S
C420 C421 1.363 . S
C420 C426 1.379 . S
C420 N428 1.356 1_554 S
C421 C420 1.363 . S
C421 C427 1.363 1_455 S
C422 C423 1.363 . S
C422 C427 1.379 . S
C422 N429 1.356 . S
C423 C422 1.363 . S
C423 C426 1.363 1_655 S
N424 C426 1.356 1_556 S
N424 H436 0.984 . S
N424 H437 0.985 1_556 S
N425 C427 1.356 . S
N425 H430 0.984 . S
N425 H431 0.985 . S
C426 C420 1.379 . S
C426 C423 1.363 1_455 S
C426 N424 1.356 1_554 S
C427 C421 1.363 1_655 S
C427 C422 1.379 . S
C427 N425 1.356 . S
N428 C420 1.356 1_556 S
N428 H434 0.984 . S
N428 H435 0.985 1_556 S
N429 C422 1.356 . S
N429 H432 0.984 . S
N429 H433 0.985 . S
H430 N425 0.984 . S
H431 N425 0.985 . S
H432 N429 0.984 . S
H433 N429 0.985 . S
H434 N428 0.984 . S
H435 N428 0.985 1_554 S
H436 N424 0.984 . S
H437 N424 0.985 1_554 S
C438 C439 1.363 . S
C438 C444 1.379 . S
C438 N446 1.356 . S
C439 C438 1.363 . S
C439 C445 1.363 1_565 S
C440 C441 1.363 . S
C440 C445 1.379 . S
C440 N447 1.356 . S
C441 C440 1.363 . S
C441 C444 1.363 1_545 S
N442 C444 1.356 . S
N442 H454 0.984 . S
N442 H455 0.985 . S
N443 C445 1.356 . S
N443 H448 0.984 . S
N443 H449 0.985 . S
C444 C438 1.379 . S
C444 C441 1.363 1_565 S
C444 N442 1.356 . S
C445 C439 1.363 1_545 S
C445 C440 1.379 . S
C445 N443 1.356 . S
N446 C438 1.356 . S
N446 H452 0.984 . S
N446 H453 0.984 . S
N447 C440 1.356 . S
N447 H450 0.984 . S
N447 H451 0.985 . S
H448 N443 0.984 . S
H449 N443 0.985 . S
H450 N447 0.984 . S
H451 N447 0.985 . S
H452 N446 0.984 . S
H453 N446 0.984 . S
H454 N442 0.984 . S
H455 N442 0.985 . S
C456 C457 1.363 . S
C456 C462 1.379 . S
C456 N464 1.356 . S
C457 C456 1.363 . S
C457 C463 1.363 . S
C458 C459 1.363 . S
C458 C463 1.379 . S
C458 N465 1.356 . S
C459 C458 1.363 . S
C459 C462 1.363 . S
N460 C462 1.356 . S
N460 H472 0.984 . S
N460 H473 0.985 . S
N461 C463 1.356 . S
N461 H466 0.984 . S
N461 H467 0.985 . S
C462 C456 1.379 . S
C462 C459 1.363 . S
C462 N460 1.356 . S
C463 C457 1.363 . S
C463 C458 1.379 . S
C463 N461 1.356 . S
N464 C456 1.356 . S
N464 H470 0.984 . S
N464 H471 0.984 . S
N465 C458 1.356 . S
N465 H468 0.963 1_556 S
N465 H469 0.985 . S
H466 N461 0.984 . S
H467 N461 0.985 . S
H468 N465 0.963 1_554 S
H469 N465 0.985 . S
H470 N464 0.984 . S
H471 N464 0.984 . S
H472 N460 0.984 . S
H473 N460 0.985 . S
C474 C475 1.363 . S
C474 C480 1.379 . S
C474 N482 1.356 . S
C475 C474 1.363 . S
C475 C481 1.363 . S
C476 C477 1.363 . S
C476 C481 1.379 . S
C476 N483 1.356 1_655 S
C477 C476 1.363 . S
C477 C480 1.363 . S
N478 C480 1.356 . S
N478 H490 0.984 1_545 S
N478 H491 0.985 . S
N479 C481 1.356 . S
N479 H484 0.984 . S
N479 H485 0.985 1_655 S
C480 C474 1.379 . S
C480 C477 1.363 . S
C480 N478 1.356 . S
C481 C475 1.363 . S
C481 C476 1.379 . S
C481 N479 1.356 . S
N482 C474 1.356 . S
N482 H488 0.984 . S
N482 H489 0.984 . S
N483 C476 1.356 1_455 S
N483 H486 0.984 . S
N483 H487 0.985 . S
H484 N479 0.984 . S
H485 N479 0.985 1_455 S
H486 N483 0.984 . S
H487 N483 0.985 . S
H488 N482 0.984 . S
H489 N482 0.984 . S
H490 N478 0.984 1_565 S
H491 N478 0.985 . S
C492 C493 1.363 . S
C492 C498 1.379 . S
C492 N500 1.356 . S
C493 C492 1.363 . S
C493 C499 1.363 . S
C494 C495 1.363 . S
C494 C499 1.379 . S
C494 N501 1.356 1_565 S
C495 C494 1.363 . S
C495 C498 1.363 . S
N496 C498 1.356 . S
N496 H508 0.984 . S
N496 H509 0.985 . S
N497 C499 1.356 . S
N497 H502 0.984 . S
N497 H503 0.985 1_565 S
C498 C492 1.379 . S
C498 C495 1.363 . S
C498 N496 1.356 . S
C499 C493 1.363 . S
C499 C494 1.379 . S
C499 N497 1.356 . S
N500 C492 1.356 . S
N500 H506 0.984 . S
N500 H507 0.984 . S
N501 C494 1.356 1_545 S
N501 H504 0.984 . S
N501 H505 0.985 . S
H502 N497 0.984 . S
H503 N497 0.985 1_545 S
H504 N501 0.984 . S
H505 N501 0.985 . S
H506 N500 0.984 . S
H507 N500 0.984 . S
H508 N496 0.984 . S
H509 N496 0.985 . S
C510 C511 1.363 . S
C510 C516 1.379 . S
C510 N518 1.356 . S
C511 C510 1.363 . S
C511 C517 1.363 . S
C512 C513 1.363 . S
C512 C517 1.379 . S
C512 N519 1.356 . S
C513 C512 1.363 . S
C513 C516 1.363 . S
N514 C516 1.356 . S
N514 H526 0.984 . S
N514 H527 0.971 1_556 S
N515 C517 1.356 . S
N515 H520 0.984 . S
N515 H521 0.985 . S
C516 C510 1.379 . S
C516 C513 1.363 . S
C516 N514 1.356 . S
C517 C511 1.363 . S
C517 C512 1.379 . S
C517 N515 1.356 . S
N518 C510 1.356 . S
N518 H524 0.984 . S
N518 H525 0.984 . S
N519 C512 1.356 . S
N519 H522 0.984 . S
N519 H523 0.985 . S
H520 N515 0.984 . S
H521 N515 0.985 . S
H522 N519 0.984 . S
H523 N519 0.985 . S
H524 N518 0.984 . S
H525 N518 0.984 . S
H526 N514 0.984 . S
H527 N514 0.971 1_554 S
C528 C529 1.363 . S
C528 C534 1.379 . S
C528 N536 1.356 . S
C529 C528 1.363 . S
C529 C535 1.363 . S
C530 C531 1.363 . S
C530 C535 1.379 . S
C530 N537 1.356 . S
C531 C530 1.363 . S
C531 C534 1.363 . S
N532 C534 1.356 . S
N532 H544 0.984 . S
N532 H545 0.985 . S
N533 C535 1.356 . S
N533 H538 0.984 . S
N533 H539 0.985 . S
C534 C528 1.379 . S
C534 C531 1.363 . S
C534 N532 1.356 . S
C535 C529 1.363 . S
C535 C530 1.379 . S
C535 N533 1.356 . S
N536 C528 1.356 . S
N536 H542 0.984 . S
N536 H543 0.984 . S
N537 C530 1.356 . S
N537 H540 0.984 . S
N537 H541 0.985 . S
H538 N533 0.984 . S
H539 N533 0.985 . S
H540 N537 0.984 . S
H541 N537 0.985 . S
H542 N536 0.984 . S
H543 N536 0.984 . S
H544 N532 0.984 . S
H545 N532 0.985 . S
C546 C547 1.363 . S
C546 C552 1.379 . S
C546 N554 1.356 . S
C547 C546 1.363 . S
C547 C553 1.363 . S
C548 C549 1.363 1_565 S
C548 C553 1.379 1_565 S
C548 N555 1.356 . S
C549 C548 1.363 1_545 S
C549 C552 1.363 . S
N550 C552 1.356 . S
N550 H562 0.984 . S
N550 H563 0.985 . S
N551 C553 1.356 . S
N551 H556 0.984 . S
N551 H557 0.985 1_545 S
C552 C546 1.379 . S
C552 C549 1.363 . S
C552 N550 1.356 . S
C553 C547 1.363 . S
C553 C548 1.379 1_545 S
C553 N551 1.356 . S
N554 C546 1.356 . S
N554 H560 0.984 . S
N554 H561 0.984 . S
N555 C548 1.356 . S
N555 H558 0.984 . S
N555 H559 0.985 . S
H556 N551 0.984 . S
H557 N551 0.985 1_565 S
H558 N555 0.984 . S
H559 N555 0.985 . S
H560 N554 0.984 . S
H561 N554 0.984 . S
H562 N550 0.984 . S
H563 N550 0.985 . S
C241 C175 1.248 . S
C243 C10 1.235 . S
C259 C215 1.248 . S
C261 C50 1.235 . S
C277 C15 1.248 . S
C279 C90 1.235 . S
C295 C55 1.248 . S
C297 C130 1.235 . S
C313 C95 1.248 . S
C315 C170 1.235 . S
C331 C135 1.248 . S
C333 C210 1.235 . S
C349 C9 1.542 . S
C351 C129 1.542 . S
C367 C169 1.542 . S
C369 C49 1.542 . S
C385 C209 1.542 . S
C387 C89 1.542 . S
C403 C98 1.300 . S
C405 C218 1.300 . S
C421 C18 1.299 . S
C423 C138 1.299 . S
C439 C178 1.300 . S
C441 C58 1.300 . S
C457 C206 1.425 . S
C459 C19 1.470 . S
C475 C59 1.470 . S
C477 C6 1.424 . S
C493 C99 1.470 . S
C495 C46 1.425 . S
C511 C86 1.425 . S
C513 C139 1.470 . S
C529 C179 1.470 . S
C531 C126 1.424 . S
C547 C219 1.470 . S
C549 C166 1.425 . S
