# Generated by pormake.
# Topology wiu, (6)-cn, num edge types: 1
# Building blocks:
#     Node 0, Type 0, BuildingBlock: UKALOJ_clean_sbu_0, # of connection points: 6
#     Node 1, Type 0, BuildingBlock: UKALOJ_clean_sbu_0, # of connection points: 6
#     Node 2, Type 0, BuildingBlock: UKALOJ_clean_sbu_0, # of connection points: 6
#     Node 3, Type 0, BuildingBlock: UKALOJ_clean_sbu_0, # of connection points: 6
#     Node 4, Type 0, BuildingBlock: UKALOJ_clean_sbu_0, # of connection points: 6
#     Node 5, Type 0, BuildingBlock: UKALOJ_clean_sbu_0, # of connection points: 6
#     Node 6, Type 0, BuildingBlock: UKALOJ_clean_sbu_0, # of connection points: 6
#     Node 7, Type 0, BuildingBlock: UKALOJ_clean_sbu_0, # of connection points: 6
#     Node 8, Type 0, BuildingBlock: UKALOJ_clean_sbu_0, # of connection points: 6
#     Node 9, Type 0, BuildingBlock: UKALOJ_clean_sbu_0, # of connection points: 6
#     Node 10, Type 0, BuildingBlock: UKALOJ_clean_sbu_0, # of connection points: 6
#     Node 11, Type 0, BuildingBlock: UKALOJ_clean_sbu_0, # of connection points: 6
#     Node 12, Type 0, BuildingBlock: UKALOJ_clean_sbu_0, # of connection points: 6
#     Node 13, Type 0, BuildingBlock: UKALOJ_clean_sbu_0, # of connection points: 6
#     Node 14, Type 0, BuildingBlock: UKALOJ_clean_sbu_0, # of connection points: 6
#     Node 15, Type 0, BuildingBlock: UKALOJ_clean_sbu_0, # of connection points: 6
#     Edge 16, Type (0, 0), None
#     Edge 17, Type (0, 0), None
#     Edge 18, Type (0, 0), None
#     Edge 19, Type (0, 0), None
#     Edge 20, Type (0, 0), None
#     Edge 21, Type (0, 0), None
#     Edge 22, Type (0, 0), None
#     Edge 23, Type (0, 0), None
#     Edge 24, Type (0, 0), None
#     Edge 25, Type (0, 0), None
#     Edge 26, Type (0, 0), None
#     Edge 27, Type (0, 0), None
#     Edge 28, Type (0, 0), None
#     Edge 29, Type (0, 0), None
#     Edge 30, Type (0, 0), None
#     Edge 31, Type (0, 0), None
#     Edge 32, Type (0, 0), None
#     Edge 33, Type (0, 0), None
#     Edge 34, Type (0, 0), None
#     Edge 35, Type (0, 0), None
#     Edge 36, Type (0, 0), None
#     Edge 37, Type (0, 0), None
#     Edge 38, Type (0, 0), None
#     Edge 39, Type (0, 0), None
#     Edge 40, Type (0, 0), None
#     Edge 41, Type (0, 0), None
#     Edge 42, Type (0, 0), None
#     Edge 43, Type (0, 0), None
#     Edge 44, Type (0, 0), None
#     Edge 45, Type (0, 0), None
#     Edge 46, Type (0, 0), None
#     Edge 47, Type (0, 0), None
#     Edge 48, Type (0, 0), None
#     Edge 49, Type (0, 0), None
#     Edge 50, Type (0, 0), None
#     Edge 51, Type (0, 0), None
#     Edge 52, Type (0, 0), None
#     Edge 53, Type (0, 0), None
#     Edge 54, Type (0, 0), None
#     Edge 55, Type (0, 0), None
#     Edge 56, Type (0, 0), None
#     Edge 57, Type (0, 0), None
#     Edge 58, Type (0, 0), None
#     Edge 59, Type (0, 0), None
#     Edge 60, Type (0, 0), None
#     Edge 61, Type (0, 0), None
#     Edge 62, Type (0, 0), None
#     Edge 63, Type (0, 0), None
# Relax obj value: 0.727
# Max RMSD: 0.234
# Mean RMSD: 0.234
data_MOF--net-wiu--node1-UKALOJ_clean_sbu_0--edge1-none
_symmetry_space_group_name_H-M    P1
_symmetry_Int_Tables_number       1
_symmetry_cell_setting            triclinic
loop_
_symmetry_equiv_pos_as_xyz
'x, y, z'
_cell_length_a     13.134828
_cell_length_b     13.134864
_cell_length_c     36.9485
_cell_angle_alpha  90.0
_cell_angle_beta   90.0
_cell_angle_gamma 90.000564
loop_
_atom_site_label
_atom_site_type_symbol
_atom_site_fract_x
_atom_site_fract_y
_atom_site_fract_z
_atom_type_partial_charge
Zn0 Zn 0.31071 0.10268 0.1651 0.0
O1 O 0.22085 0.20034 0.20349 0.0
C2 C 0.12757 0.02002 0.17568 0.0
Zn3 Zn 0.25667 0.1594 0.11873 0.0
C4 C 0.19622 0.28689 0.19132 0.0
O5 O 0.20264 0.29617 0.15676 0.0
C6 C 0.42569 -0.00435 0.08536 0.0
O7 O 0.37188 0.24401 0.09888 0.0
O8 O 0.38038 0.23429 0.15617 0.0
N9 N 0.17907 0.22148 0.08257 0.0
C10 C 0.20475 0.24411 1.04847 0.0
C11 C 0.05447 0.29822 1.05826 0.0
N12 N 0.08818 0.25956 0.0895 0.0
N13 N 0.12547 0.28784 1.03236 0.0
C14 C 0.41541 0.10587 0.2359 0.0
C15 C 0.55608 0.04324 0.21926 0.0
N16 N 0.40745 0.07723 0.20139 0.0
N17 N 0.49444 0.03773 0.19089 0.0
N18 N 0.51153 0.08985 0.24711 0.0
H19 H 0.29831 0.19973 0.25959 0.0
H20 H 0.34 0.10405 0.28917 0.0
H21 H 0.26096 0.07024 0.25164 0.0
C22 C 0.32447 0.12014 0.26045 0.0
C23 C 0.29507 0.203 1.02715 0.0
H24 H 0.36633 0.19133 1.0419 0.0
H25 H 0.31402 0.25557 1.00469 0.0
H26 H 0.27529 0.12844 1.01505 0.0
O27 O 0.33859 0.03401 0.07546 0.0
O28 O 0.43299 0.00265 0.12064 0.0
C29 C 0.42377 0.24476 0.12679 0.0
O30 O 0.21725 -0.00904 0.18447 0.0
O31 O 0.11932 0.07198 0.14598 0.0
Zn32 Zn 0.53195 0.50668 0.36873 0.0
O33 O 0.44736 0.6219 0.34887 0.0
C34 C 0.69569 0.67573 0.33537 0.0
Zn35 Zn 0.5886 0.56074 0.41511 0.0
C36 C 0.44653 0.67377 0.37678 0.0
O37 O 0.45697 0.63038 0.40616 0.0
C38 C 0.67129 0.37759 0.4257 0.0
O39 O 0.49096 0.47088 0.45349 0.0
O40 O 0.39515 0.45264 0.40675 0.0
N41 N 0.61402 0.65746 0.45139 0.0
C42 C 0.5854 0.66541 0.48591 0.0
C43 C 0.64802 0.80609 0.46927 0.0
N44 N 0.65352 0.74447 0.4409 0.0
N45 N 0.60143 0.76152 0.49712 0.0
C46 C 0.44726 0.45473 0.29848 0.0
C47 C 0.3931 0.30447 0.30827 0.0
N48 N 0.46988 0.42906 0.33257 0.0
N49 N 0.43179 0.33818 0.33951 0.0
N50 N 0.40351 0.37544 0.28237 0.0
H51 H 0.50003 0.61631 0.29189 0.0
H52 H 0.43587 0.56394 0.25467 0.0
H53 H 0.56299 0.52524 0.26507 0.0
C54 C 0.4884 0.54502 0.27714 0.0
C55 C 0.57115 0.57445 0.51045 0.0
H56 H 0.49156 0.54827 0.50959 0.0
H57 H 0.58723 0.58997 0.53918 0.0
H58 H 0.62105 0.51096 0.50164 0.0
O59 O 0.7003 0.46729 0.43448 0.0
O60 O 0.61936 0.36932 0.39599 0.0
C61 C 0.40441 0.44624 0.44131 0.0
O62 O 0.65737 0.5886 0.32546 0.0
O63 O 0.68864 0.68304 0.37065 0.0
Zn64 Zn 0.13061 0.83863 0.6651 0.0
O65 O 0.22046 0.74097 0.70349 0.0
C66 C 0.31375 0.92129 0.67568 0.0
Zn67 Zn 0.18464 0.78191 0.61873 0.0
C68 C 0.24509 0.65442 0.69132 0.0
O69 O 0.23867 0.64514 0.65676 0.0
C70 C 0.01562 0.94566 0.58536 0.0
O71 O 0.06943 0.6973 0.59888 0.0
O72 O 0.06094 0.70702 0.65617 0.0
N73 N 0.26224 0.71983 0.58257 0.0
C74 C 0.23657 0.6972 0.54847 0.0
C75 C 0.38684 0.64309 0.55826 0.0
N76 N 0.35314 0.68176 0.5895 0.0
N77 N 0.31585 0.65348 0.53236 0.0
C78 C 0.0259 0.83544 0.7359 0.0
C79 C 0.88523 0.89807 0.71926 0.0
N80 N 0.03387 0.86408 0.70139 0.0
N81 N 0.94687 0.90358 0.69089 0.0
N82 N 0.92979 0.85146 0.74711 0.0
H83 H 0.14301 0.74158 0.75959 0.0
H84 H 0.10132 0.83727 0.78917 0.0
H85 H 0.18035 0.87107 0.75164 0.0
C86 C 0.11685 0.82118 0.76045 0.0
C87 C 0.14624 0.73832 0.52715 0.0
H88 H 0.07498 0.74998 0.5419 0.0
H89 H 0.12729 0.68574 0.50469 0.0
H90 H 0.16602 0.81287 0.51505 0.0
O91 O 0.10272 0.9073 0.57546 0.0
O92 O 0.00832 0.93866 0.62064 0.0
C93 C 0.01755 0.69655 0.62679 0.0
O94 O 0.22406 0.95035 0.68447 0.0
O95 O 0.32199 0.86933 0.64598 0.0
Zn96 Zn 0.85272 0.38058 0.91511 0.0
O97 O 0.95036 0.47043 0.95349 0.0
C98 C 0.77002 0.56372 0.9257 0.0
Zn99 Zn 0.90936 0.43463 0.86873 0.0
C100 C 0.0369 0.49507 0.94131 0.0
O101 O 0.04617 0.48867 0.90675 0.0
C102 C 0.74562 0.26559 0.83537 0.0
O103 O -0.00605 0.31942 0.84887 0.0
O104 O -0.01566 0.31093 0.90616 0.0
N105 N -0.02857 0.51225 0.83257 0.0
C106 C -0.00594 0.48659 0.79848 0.0
C107 C 0.04821 0.63684 0.80827 0.0
N108 N 0.00952 0.60313 0.83951 0.0
N109 N 0.03781 0.56587 0.78237 0.0
C110 C 0.85592 0.27591 0.98591 0.0
C111 C 0.79329 0.13523 0.96927 0.0
N112 N 0.82729 0.28385 0.95139 0.0
N113 N 0.7878 0.19684 0.9409 0.0
N114 N 0.83989 0.1798 0.99712 0.0
H115 H 0.94976 0.39304 1.00959 0.0
H116 H 0.85409 0.35135 1.03918 0.0
H117 H 0.82026 0.43035 1.00164 0.0
C118 C 0.87017 0.36686 1.01045 0.0
C119 C 0.95291 0.39629 0.77714 0.0
H120 H 0.94128 0.32501 0.79189 0.0
H121 H 0.00544 0.37737 0.75467 0.0
H122 H 0.87833 0.41607 0.76507 0.0
O123 O 0.78394 0.35271 0.82546 0.0
O124 O 0.75267 0.25827 0.87065 0.0
C125 C -0.00522 0.26754 0.87678 0.0
O126 O 0.74102 0.47402 0.93448 0.0
O127 O 0.82195 0.57199 0.89599 0.0
Zn128 Zn 0.63061 0.83863 0.97716 0.0
O129 O 0.72047 0.74097 0.93877 0.0
C130 C 0.81375 0.92129 0.96658 0.0
Zn131 Zn 0.68464 0.7819 1.02353 0.0
C132 C 0.74507 0.65441 0.95095 0.0
O133 O 0.73867 0.64514 0.98551 0.0
C134 C 0.51562 0.94566 1.0569 0.0
O135 O 0.56943 0.6973 1.04339 0.0
O136 O 0.56094 0.70702 0.9861 0.0
N137 N 0.76224 0.71982 1.0597 0.0
C138 C 0.73657 0.6972 0.09379 0.0
C139 C 0.88684 0.64309 0.08401 0.0
N140 N 0.85314 0.68175 1.05276 0.0
N141 N 0.81585 0.65347 0.1099 0.0
C142 C 0.5259 0.83544 0.90636 0.0
C143 C 0.38524 0.89809 0.923 0.0
N144 N 0.53387 0.86409 0.94088 0.0
N145 N 0.44688 0.90359 0.95137 0.0
N146 N 0.42979 0.85147 0.89516 0.0
H147 H 0.643 0.74158 0.88267 0.0
H148 H 0.60131 0.83726 0.85309 0.0
H149 H 0.68035 0.87107 0.89063 0.0
C150 C 0.61684 0.82117 0.88182 0.0
C151 C 0.64624 0.73831 0.11512 0.0
H152 H 0.57498 0.74998 0.10036 0.0
H153 H 0.62729 0.68573 0.13757 0.0
H154 H 0.66602 0.81286 0.12721 0.0
O155 O 0.60273 0.9073 1.06681 0.0
O156 O 0.50832 0.93866 1.02163 0.0
C157 C 0.51755 0.69655 1.01547 0.0
O158 O 0.72407 0.95035 0.9578 0.0
O159 O 0.82199 0.86933 0.99628 0.0
Zn160 Zn 0.40936 0.43463 0.77353 0.0
O161 O 0.49395 0.31942 0.79339 0.0
C162 C 0.24562 0.26559 0.8069 0.0
Zn163 Zn 0.35272 0.38058 0.72716 0.0
C164 C 0.49478 0.26754 0.76548 0.0
O165 O 0.48434 0.31093 0.7361 0.0
C166 C 0.27003 0.56372 0.71657 0.0
O167 O 0.45036 0.47043 0.68878 0.0
O168 O 0.54617 0.48867 0.73552 0.0
N169 N 0.32729 0.28385 0.69087 0.0
C170 C 0.35592 0.27591 0.65636 0.0
C171 C 0.2933 0.13523 0.67299 0.0
N172 N 0.2878 0.19685 0.70137 0.0
N173 N 0.33989 0.1798 0.64515 0.0
C174 C 0.49406 0.48658 0.84379 0.0
C175 C 0.54821 0.63684 0.83399 0.0
N176 N 0.47143 0.51225 0.8097 0.0
N177 N 0.50952 0.60313 0.80275 0.0
N178 N 0.53781 0.56586 0.85989 0.0
H179 H 0.44127 0.325 0.85037 0.0
H180 H 0.50545 0.37735 0.88759 0.0
H181 H 0.37833 0.41607 0.8772 0.0
C182 C 0.45291 0.39628 0.86512 0.0
C183 C 0.37017 0.36686 0.63182 0.0
H184 H 0.44975 0.39304 0.63267 0.0
H185 H 0.35408 0.35135 0.60309 0.0
H186 H 0.32026 0.43035 0.64063 0.0
O187 O 0.24102 0.47403 0.70778 0.0
O188 O 0.32195 0.57199 0.74627 0.0
C189 C 0.5369 0.49507 0.70096 0.0
O190 O 0.28394 0.35271 0.8168 0.0
O191 O 0.25267 0.25827 0.77162 0.0
Zn192 Zn 0.8107 0.10268 0.47716 0.0
O193 O 0.72085 0.20034 0.43877 0.0
C194 C 0.62756 0.02002 0.46658 0.0
Zn195 Zn 0.75667 0.15941 0.52353 0.0
C196 C 0.69624 0.2869 0.45095 0.0
O197 O 0.70264 0.29617 0.48551 0.0
C198 C 0.92569 -0.00435 0.5569 0.0
O199 O 0.87188 0.24401 0.54339 0.0
O200 O 0.88038 0.23429 0.4861 0.0
N201 N 0.67907 0.22149 0.5597 0.0
C202 C 0.70475 0.24412 0.59379 0.0
C203 C 0.55447 0.29823 0.58401 0.0
N204 N 0.58818 0.25956 0.55276 0.0
N205 N 0.62546 0.28784 0.6099 0.0
C206 C 0.91541 0.10587 0.40636 0.0
C207 C 0.05607 0.04322 0.423 0.0
N208 N 0.90744 0.07723 0.44088 0.0
N209 N -0.00556 0.03772 0.45137 0.0
N210 N 0.01153 0.08984 0.39516 0.0
H211 H 0.79831 0.19973 0.38267 0.0
H212 H 0.84 0.10405 0.35309 0.0
H213 H 0.76096 0.07024 0.39063 0.0
C214 C 0.82447 0.12014 0.38182 0.0
C215 C 0.79507 0.203 0.61512 0.0
H216 H 0.86633 0.19133 0.60036 0.0
H217 H 0.81402 0.25558 0.63757 0.0
H218 H 0.77529 0.12845 0.62721 0.0
O219 O 0.83859 0.03401 0.56681 0.0
O220 O 0.93299 0.00265 0.52163 0.0
C221 C 0.92377 0.24476 0.51547 0.0
O222 O 0.71725 -0.00903 0.4578 0.0
O223 O 0.61932 0.07198 0.49628 0.0
Zn224 Zn 0.0886 0.56073 0.22716 0.0
O225 O -0.00905 0.47088 0.18878 0.0
C226 C 0.17128 0.37759 0.21657 0.0
Zn227 Zn 0.03195 0.50668 0.27353 0.0
C228 C 0.90441 0.44624 0.20096 0.0
O229 O 0.89515 0.45264 0.23552 0.0
C230 C 0.19569 0.67572 0.3069 0.0
O231 O 0.94736 0.6219 0.29339 0.0
O232 O 0.95697 0.63038 0.2361 0.0
N233 N 0.96988 0.42906 0.3097 0.0
C234 C 0.94726 0.45473 0.34379 0.0
C235 C 0.89311 0.30447 0.33399 0.0
N236 N 0.93179 0.33818 0.30275 0.0
N237 N 0.90351 0.37545 0.35989 0.0
C238 C 0.0854 0.6654 0.15636 0.0
C239 C 0.14802 0.80609 0.17299 0.0
N240 N 0.11402 0.65746 0.19087 0.0
N241 N 0.15351 0.74447 0.20137 0.0
N242 N 0.10142 0.76152 0.14515 0.0
H243 H -0.00844 0.54827 0.13267 0.0
H244 H 0.08723 0.58997 0.10309 0.0
H245 H 0.12105 0.51096 0.14063 0.0
C246 C 0.07115 0.57445 0.13182 0.0
C247 C -0.0116 0.54503 0.36512 0.0
H248 H 4e-05 0.61631 0.35037 0.0
H249 H 0.93586 0.56396 0.38759 0.0
H250 H 0.06298 0.52524 0.3772 0.0
O251 O 0.15737 0.5886 0.3168 0.0
O252 O 0.18864 0.68304 0.27162 0.0
C253 C 0.94653 0.67377 0.26548 0.0
O254 O 0.2003 0.46728 0.20778 0.0
O255 O 0.11936 0.36932 0.24627 0.0
Zn256 Zn 0.81073 0.60281 0.66511 0.0
O257 O 0.72094 0.70035 0.70352 0.0
C258 C 0.62759 0.52002 0.67571 0.0
Zn259 Zn 0.75659 0.65927 0.61873 0.0
C260 C 0.69623 0.78685 0.69133 0.0
O261 O 0.70256 0.79607 0.65677 0.0
C262 C 0.92568 0.49565 0.58536 0.0
O263 O 0.87175 0.74381 0.59886 0.0
O264 O 0.88036 0.73449 0.65618 0.0
N265 N 0.67892 0.72136 0.58259 0.0
C266 C 0.70448 0.74386 0.54847 0.0
C267 C 0.55424 0.7982 0.55833 0.0
N268 N 0.58809 0.75956 0.58956 0.0
N269 N 0.62512 0.78756 0.53241 0.0
C270 C 0.91543 0.6057 0.73592 0.0
C271 C 0.05612 0.54309 0.7192 0.0
N272 N 0.90748 0.57734 0.70138 0.0
N273 N -0.00553 0.53788 0.69084 0.0
N274 N 0.01151 0.58942 0.74709 0.0
H275 H 0.79829 0.69946 0.75964 0.0
H276 H 0.84004 0.60371 0.78919 0.0
H277 H 0.761 0.56999 0.75165 0.0
C278 C 0.82449 0.61988 0.76048 0.0
C279 C 0.79474 0.7027 0.52713 0.0
H280 H 0.86605 0.69115 0.54187 0.0
H281 H 0.81363 0.75519 0.50464 0.0
H282 H 0.77496 0.62808 0.51508 0.0
O283 O 0.8385 0.53384 0.57546 0.0
O284 O 0.93305 0.50283 0.62063 0.0
C285 C 0.92358 0.74512 0.62678 0.0
O286 O 0.7173 0.49106 0.68449 0.0
O287 O 0.61928 0.57188 0.64599 0.0
Zn288 Zn 0.032 0.00658 0.86873 0.0
O289 O 0.94744 0.12174 0.84887 0.0
C290 C 0.19563 0.17565 0.83535 0.0
Zn291 Zn 0.08853 0.0607 0.91511 0.0
C292 C 0.94621 0.17357 0.87679 0.0
O293 O 0.95687 0.13035 0.90619 0.0
C294 C 0.1713 0.87756 0.92569 0.0
O295 O -0.00902 -0.0291 0.95353 0.0
O296 O 0.89523 0.95255 0.90678 0.0
N297 N 0.11404 0.15746 0.95137 0.0
C298 C 0.08566 0.16543 0.98591 0.0
C299 C 0.14829 0.30611 0.96919 0.0
N300 N 0.15352 0.24444 0.94083 0.0
N301 N 0.10194 0.26152 0.99708 0.0
C302 C 0.94739 0.9545 0.79847 0.0
C303 C 0.8931 0.80424 0.80832 0.0
N304 N 0.9699 0.92892 0.83259 0.0
N305 N 0.93171 0.83807 0.83955 0.0
N306 N 0.90372 0.87513 0.7824 0.0
H307 H 0.0001 0.11607 0.79188 0.0
H308 H 0.93599 0.06369 0.75466 0.0
H309 H 0.06312 0.02501 0.76506 0.0
C310 C -0.01148 0.04478 0.77713 0.0
C311 C 0.07146 0.07451 1.01047 0.0
H312 H -0.00812 0.04833 1.00964 0.0
H313 H 0.08763 0.09007 1.03919 0.0
H314 H 0.12133 0.01101 1.00165 0.0
O315 O 0.20031 0.96726 0.93447 0.0
O316 O 0.1194 0.86927 0.89598 0.0
C317 C 0.90446 0.94622 0.94134 0.0
O318 O 0.1574 0.08848 0.82545 0.0
O319 O 0.1885 0.183 0.87062 0.0
Zn320 Zn 0.63058 0.3385 0.16511 0.0
O321 O 0.72037 0.24096 0.20352 0.0
C322 C 0.81373 0.42129 0.17571 0.0
Zn323 Zn 0.68472 0.28204 0.11873 0.0
C324 C 0.74509 0.15446 0.19133 0.0
O325 O 0.73876 0.14524 0.15677 0.0
C326 C 0.51563 0.44566 0.08536 0.0
O327 O 0.56956 0.1975 0.09886 0.0
O328 O 0.56096 0.20682 0.15618 0.0
N329 N 0.7624 0.21995 0.08259 0.0
C330 C 0.73683 0.19745 1.04847 0.0
C331 C 0.88707 0.14311 1.05833 0.0
N332 N 0.85323 0.18175 0.08956 0.0
N333 N 0.8162 0.15375 1.03241 0.0
C334 C 0.52589 0.33561 0.23592 0.0
C335 C 0.38519 0.39822 0.2192 0.0
N336 N 0.53384 0.36397 0.20138 0.0
N337 N 0.44685 0.40343 0.19084 0.0
N338 N 0.4298 0.35189 0.24709 0.0
H339 H 0.64303 0.24186 0.25964 0.0
H340 H 0.60128 0.3376 0.28919 0.0
H341 H 0.68031 0.37132 0.25165 0.0
C342 C 0.61682 0.32143 0.26048 0.0
C343 C 0.64658 0.23861 1.02713 0.0
H344 H 0.57527 0.25016 1.04187 0.0
H345 H 0.62769 0.18612 1.00464 0.0
H346 H 0.66635 0.31323 1.01508 0.0
O347 O 0.60282 0.40747 0.07546 0.0
O348 O 0.50826 0.43848 0.12063 0.0
C349 C 0.51773 0.19619 0.12678 0.0
O350 O 0.72401 0.45025 0.18449 0.0
O351 O 0.82204 0.36943 0.14599 0.0
Zn352 Zn 0.35278 0.88061 0.41511 0.0
O353 O 0.45033 0.97041 0.45353 0.0
C354 C 0.27001 0.06375 0.42569 0.0
Zn355 Zn 0.40931 0.93473 0.36873 0.0
C356 C 0.53685 -0.00491 0.44134 0.0
O357 O 0.54608 -0.01124 0.40678 0.0
C358 C 0.24569 0.76567 0.33535 0.0
O359 O 0.49387 0.81958 0.34887 0.0
O360 O 0.48444 0.81096 0.40619 0.0
N361 N 0.47142 0.01239 0.33259 0.0
C362 C 0.49392 -0.01319 0.29847 0.0
C363 C 0.54822 0.13707 0.30832 0.0
N364 N 0.5096 0.10324 0.33955 0.0
N365 N 0.53759 0.06618 0.2824 0.0
C366 C 0.35565 0.77588 0.48591 0.0
C367 C 0.29302 0.6352 0.46919 0.0
N368 N 0.32728 0.78386 0.45137 0.0
N369 N 0.2878 0.69688 0.44083 0.0
N370 N 0.33937 0.67979 0.49708 0.0
H371 H 0.44944 0.89299 0.50964 0.0
H372 H 0.35368 0.85124 0.53919 0.0
H373 H 0.31998 0.9303 0.50165 0.0
C374 C 0.36985 0.8668 0.51047 0.0
C375 C 0.45279 0.89654 0.27713 0.0
H376 H 0.44121 0.82524 0.29188 0.0
H377 H 0.50533 0.87762 0.25466 0.0
H378 H 0.3782 0.9163 0.26506 0.0
O379 O 0.28391 0.85284 0.32545 0.0
O380 O 0.25281 0.75831 0.37062 0.0
C381 C 0.4951 0.76775 0.37679 0.0
O382 O 0.241 -0.02595 0.43447 0.0
O383 O 0.32191 0.07204 0.39598 0.0
Zn384 Zn 0.13058 0.3385 0.47715 0.0
O385 O 0.22038 0.24096 0.43874 0.0
C386 C 0.31373 0.42129 0.46656 0.0
Zn387 Zn 0.18473 0.28204 0.52353 0.0
C388 C 0.24506 0.15445 0.45093 0.0
O389 O 0.23875 0.14523 0.4855 0.0
C390 C 0.01563 0.44565 0.55691 0.0
O391 O 0.06956 0.1975 0.5434 0.0
O392 O 0.06096 0.20682 0.48608 0.0
N393 N 0.2624 0.21995 0.55968 0.0
C394 C 0.23683 0.19745 0.59379 0.0
C395 C 0.38707 0.14311 0.58393 0.0
N396 N 0.35323 0.18174 0.5527 0.0
N397 N 0.3162 0.15375 0.60985 0.0
C398 C 0.02589 0.33561 0.40635 0.0
C399 C 0.8852 0.39823 0.42306 0.0
N400 N 0.03384 0.36397 0.44089 0.0
N401 N 0.94685 0.40344 0.45143 0.0
N402 N 0.9298 0.3519 0.39518 0.0
H403 H 0.14302 0.24185 0.38262 0.0
H404 H 0.10127 0.3376 0.35307 0.0
H405 H 0.18031 0.37132 0.39062 0.0
C406 C 0.11682 0.32143 0.38179 0.0
C407 C 0.14658 0.2386 0.61514 0.0
H408 H 0.07527 0.25016 0.60039 0.0
H409 H 0.12769 0.18611 0.63762 0.0
H410 H 0.16635 0.31322 0.62718 0.0
O411 O 0.10282 0.40747 0.56681 0.0
O412 O 0.00827 0.43848 0.52164 0.0
C413 C 0.01773 0.19619 0.51548 0.0
O414 O 0.22401 0.45025 0.45778 0.0
O415 O 0.32204 0.36942 0.49627 0.0
Zn416 Zn 0.90931 0.93473 0.27353 0.0
O417 O -0.00613 0.81958 0.2934 0.0
C418 C 0.74568 0.76567 0.30691 0.0
Zn419 Zn 0.85278 0.88061 0.22715 0.0
C420 C -0.0049 0.76775 0.26548 0.0
O421 O -0.01556 0.81096 0.23607 0.0
C422 C 0.77002 0.06376 0.21657 0.0
O423 O 0.95033 0.97041 0.18873 0.0
O424 O 0.04608 -0.01124 0.23549 0.0
N425 N 0.82727 0.78386 0.19089 0.0
C426 C 0.85565 0.77588 0.15635 0.0
C427 C 0.79302 0.6352 0.17307 0.0
N428 N 0.7878 0.69688 0.20144 0.0
N429 N 0.83937 0.67979 0.14519 0.0
C430 C -0.00608 -0.01319 0.34379 0.0
C431 C 0.04822 0.13707 0.33395 0.0
N432 N -0.02858 0.01239 0.30968 0.0
N433 N 0.0096 0.10324 0.30271 0.0
N434 N 0.03759 0.06618 0.35986 0.0
H435 H 0.9412 0.82524 0.35038 0.0
H436 H 0.00533 0.87761 0.3876 0.0
H437 H 0.8782 0.9163 0.37721 0.0
C438 C 0.95279 0.89653 0.36513 0.0
C439 C 0.86985 0.8668 0.13179 0.0
H440 H 0.94943 0.89299 0.13262 0.0
H441 H 0.85368 0.85124 0.10307 0.0
H442 H 0.81998 0.9303 0.14061 0.0
O443 O 0.741 -0.02594 0.20779 0.0
O444 O 0.82192 0.07204 0.24628 0.0
C445 C 0.03685 -0.00491 0.20092 0.0
O446 O 0.78391 0.85284 0.31681 0.0
O447 O 0.75281 0.75831 0.27164 0.0
Zn448 Zn 0.25659 0.65927 1.02353 0.0
O449 O 0.37175 0.74381 1.0434 0.0
C450 C 0.42568 0.49566 1.05691 0.0
Zn451 Zn 0.31073 0.60281 0.97715 0.0
C452 C 0.42358 0.74512 1.01548 0.0
O453 O 0.38036 0.73449 0.98608 0.0
C454 C 0.12758 0.52002 0.96656 0.0
O455 O 0.22093 0.70035 0.93874 0.0
O456 O 0.20256 0.79608 0.9855 0.0
N457 N 0.40747 0.57734 0.94089 0.0
C458 C 0.41543 0.6057 0.90635 0.0
C459 C 0.55612 0.54308 0.92306 0.0
N460 N 0.49446 0.53787 0.95143 0.0
N461 N 0.51151 0.58941 0.89518 0.0
C462 C 0.20448 0.74387 0.09379 0.0
C463 C 0.05424 0.7982 0.08393 0.0
N464 N 0.17892 0.72136 1.05968 0.0
N465 N 0.08808 0.75957 1.0527 0.0
N466 N 0.12512 0.78756 0.10985 0.0
H467 H 0.36604 0.69116 0.10039 0.0
H468 H 0.31363 0.7552 0.13762 0.0
H469 H 0.27496 0.62809 0.12718 0.0
C470 C 0.29474 0.70271 0.11514 0.0
C471 C 0.3245 0.61988 0.88179 0.0
H472 H 0.29829 0.69946 0.88262 0.0
H473 H 0.34004 0.60372 0.85307 0.0
H474 H 0.261 0.56999 0.89062 0.0
O475 O 0.2173 0.49106 0.95778 0.0
O476 O 0.11927 0.57189 0.99627 0.0
C477 C 0.19625 0.78686 0.95093 0.0
O478 O 0.33849 0.53385 1.06681 0.0
O479 O 0.43305 0.50283 1.02164 0.0
Zn480 Zn 0.58854 0.0607 0.72715 0.0
O481 O 0.49098 -0.0291 0.68873 0.0
C482 C 0.6713 0.87756 0.71657 0.0
Zn483 Zn 0.532 0.00658 0.77353 0.0
C484 C 0.40446 0.94622 0.70092 0.0
O485 O 0.39523 0.95255 0.73549 0.0
C486 C 0.69563 0.17564 0.80691 0.0
O487 O 0.44745 0.12174 0.7934 0.0
O488 O 0.45687 0.13035 0.73607 0.0
N489 N 0.4699 0.92892 0.80968 0.0
C490 C 0.44739 0.9545 0.84379 0.0
C491 C 0.3931 0.80424 0.83395 0.0
N492 N 0.43171 0.83808 0.80271 0.0
N493 N 0.40372 0.87513 0.85986 0.0
C494 C 0.58566 0.16543 0.65635 0.0
C495 C 0.64829 0.30611 0.67307 0.0
N496 N 0.61404 0.15745 0.69089 0.0
N497 N 0.65351 0.24444 0.70144 0.0
N498 N 0.60194 0.26152 0.64519 0.0
H499 H 0.49188 0.04832 0.63262 0.0
H500 H 0.58763 0.09007 0.60307 0.0
H501 H 0.62134 0.01101 0.64061 0.0
C502 C 0.57146 0.07451 0.63179 0.0
C503 C 0.48852 0.04478 0.86513 0.0
H504 H 0.50011 0.11607 0.85038 0.0
H505 H 0.43598 0.0637 0.8876 0.0
H506 H 0.56311 0.02501 0.87721 0.0
O507 O 0.6574 0.08847 0.81681 0.0
O508 O 0.6885 0.183 0.77164 0.0
C509 C 0.44621 0.17356 0.76548 0.0
O510 O 0.70031 0.96726 0.70779 0.0
O511 O 0.6194 0.86927 0.74628 0.0
loop_
_geom_bond_atom_site_label_1
_geom_bond_atom_site_label_2
_geom_bond_distance
_geom_bond_site_symmetry_2
_ccdc_geom_bond_type
Zn0 O1 2.055 . S
Zn0 O8 2.046 . S
Zn0 N16 2.036 . S
Zn0 O28 2.053 . S
Zn0 O30 2.066 . S
O1 Zn0 2.055 . S
O1 C4 1.259 . S
C2 O30 1.256 . S
C2 O31 1.244 . S
Zn3 O5 2.046 . S
Zn3 O7 2.055 . S
Zn3 N9 2.036 . S
Zn3 O27 2.066 . S
Zn3 O31 2.053 . S
C4 O1 1.259 . S
C4 O5 1.254 . S
O5 Zn3 2.046 . S
O5 C4 1.254 . S
C6 O27 1.256 . S
C6 O28 1.244 . S
O7 Zn3 2.055 . S
O7 C29 1.259 . S
O8 Zn0 2.046 . S
O8 C29 1.254 . S
N9 Zn3 2.036 . S
N9 C10 1.298 1_554 S
N9 N12 1.398 . S
C10 N9 1.298 1_556 S
C10 N13 1.367 . S
C10 C23 1.481 . S
C11 N12 1.299 1_556 S
C11 N13 1.379 . S
N12 N9 1.398 . S
N12 C11 1.299 1_554 S
N13 C10 1.367 . S
N13 C11 1.379 . S
C14 N16 1.298 . S
C14 N18 1.367 . S
C14 C22 1.481 . S
C15 N17 1.299 . S
C15 N18 1.379 . S
N16 Zn0 2.036 . S
N16 C14 1.298 . S
N16 N17 1.398 . S
N17 C15 1.299 . S
N17 N16 1.398 . S
N18 C14 1.367 . S
N18 C15 1.379 . S
H19 C22 0.980 . S
H20 C22 0.981 . S
H21 C22 0.981 . S
C22 C14 1.481 . S
C22 H19 0.980 . S
C22 H20 0.981 . S
C22 H21 0.981 . S
C23 C10 1.481 . S
C23 H24 0.980 . S
C23 H25 0.981 . S
C23 H26 0.981 . S
H24 C23 0.980 . S
H25 C23 0.981 . S
H26 C23 0.981 . S
O27 Zn3 2.066 . S
O27 C6 1.256 . S
O28 Zn0 2.053 . S
O28 C6 1.244 . S
C29 O7 1.259 . S
C29 O8 1.254 . S
O30 Zn0 2.066 . S
O30 C2 1.256 . S
O31 C2 1.244 . S
O31 Zn3 2.053 . S
Zn32 O33 2.055 . S
Zn32 O40 2.046 . S
Zn32 N48 2.036 . S
Zn32 O60 2.053 . S
Zn32 O62 2.066 . S
O33 Zn32 2.055 . S
O33 C36 1.259 . S
C34 O62 1.256 . S
C34 O63 1.244 . S
Zn35 O37 2.046 . S
Zn35 O39 2.055 . S
Zn35 N41 2.036 . S
Zn35 O59 2.066 . S
Zn35 O63 2.053 . S
C36 O33 1.259 . S
C36 O37 1.254 . S
O37 Zn35 2.046 . S
O37 C36 1.254 . S
C38 O59 1.256 . S
C38 O60 1.244 . S
O39 Zn35 2.055 . S
O39 C61 1.259 . S
O40 Zn32 2.046 . S
O40 C61 1.254 . S
N41 Zn35 2.036 . S
N41 C42 1.298 . S
N41 N44 1.398 . S
C42 N41 1.298 . S
C42 N45 1.367 . S
C42 C55 1.481 . S
C43 N44 1.299 . S
C43 N45 1.379 . S
N44 N41 1.398 . S
N44 C43 1.299 . S
N45 C42 1.367 . S
N45 C43 1.379 . S
C46 N48 1.298 . S
C46 N50 1.367 . S
C46 C54 1.481 . S
C47 N49 1.299 . S
C47 N50 1.379 . S
N48 Zn32 2.036 . S
N48 C46 1.298 . S
N48 N49 1.398 . S
N49 C47 1.299 . S
N49 N48 1.398 . S
N50 C46 1.367 . S
N50 C47 1.379 . S
H51 C54 0.980 . S
H52 C54 0.981 . S
H53 C54 0.981 . S
C54 C46 1.481 . S
C54 H51 0.980 . S
C54 H52 0.981 . S
C54 H53 0.981 . S
C55 C42 1.481 . S
C55 H56 0.980 . S
C55 H57 0.981 . S
C55 H58 0.981 . S
H56 C55 0.980 . S
H57 C55 0.981 . S
H58 C55 0.981 . S
O59 Zn35 2.066 . S
O59 C38 1.256 . S
O60 Zn32 2.053 . S
O60 C38 1.244 . S
C61 O39 1.259 . S
C61 O40 1.254 . S
O62 Zn32 2.066 . S
O62 C34 1.256 . S
O63 C34 1.244 . S
O63 Zn35 2.053 . S
Zn64 O65 2.055 . S
Zn64 O72 2.046 1_455 S
Zn64 N80 2.036 1_455 S
Zn64 O92 2.053 . S
Zn64 O94 2.066 . S
O65 Zn64 2.055 . S
O65 C68 1.259 . S
C66 O94 1.256 . S
C66 O95 1.244 . S
Zn67 O69 2.046 . S
Zn67 O71 2.055 . S
Zn67 N73 2.036 . S
Zn67 O91 2.066 . S
Zn67 O95 2.053 . S
C68 O65 1.259 . S
C68 O69 1.254 . S
O69 Zn67 2.046 . S
O69 C68 1.254 . S
C70 O91 1.256 . S
C70 O92 1.244 . S
O71 Zn67 2.055 . S
O71 C93 1.259 1_455 S
O72 Zn64 2.046 1_655 S
O72 C93 1.254 . S
N73 Zn67 2.036 . S
N73 C74 1.298 . S
N73 N76 1.398 . S
C74 N73 1.298 . S
C74 N77 1.367 . S
C74 C87 1.481 . S
C75 N76 1.299 . S
C75 N77 1.379 . S
N76 N73 1.398 . S
N76 C75 1.299 . S
N77 C74 1.367 . S
N77 C75 1.379 . S
C78 N80 1.298 1_455 S
C78 N82 1.367 1_455 S
C78 C86 1.481 . S
C79 N81 1.299 . S
C79 N82 1.379 . S
N80 Zn64 2.036 1_655 S
N80 C78 1.298 1_655 S
N80 N81 1.398 . S
N81 C79 1.299 . S
N81 N80 1.398 . S
N82 C78 1.367 1_655 S
N82 C79 1.379 . S
H83 C86 0.980 . S
H84 C86 0.981 . S
H85 C86 0.981 . S
C86 C78 1.481 . S
C86 H83 0.980 . S
C86 H84 0.981 . S
C86 H85 0.981 . S
C87 C74 1.481 . S
C87 H88 0.980 . S
C87 H89 0.981 . S
C87 H90 0.981 . S
H88 C87 0.980 . S
H89 C87 0.981 . S
H90 C87 0.981 . S
O91 Zn67 2.066 . S
O91 C70 1.256 . S
O92 Zn64 2.053 . S
O92 C70 1.244 . S
C93 O71 1.259 1_655 S
C93 O72 1.254 . S
O94 Zn64 2.066 . S
O94 C66 1.256 . S
O95 C66 1.244 . S
O95 Zn67 2.053 . S
Zn96 O97 2.055 1_655 S
Zn96 O104 2.046 1_655 S
Zn96 N112 2.036 . S
Zn96 O124 2.053 . S
Zn96 O126 2.066 . S
O97 Zn96 2.055 1_455 S
O97 C100 1.259 . S
C98 O126 1.256 . S
C98 O127 1.244 . S
Zn99 O101 2.047 . S
Zn99 O103 2.056 . S
Zn99 N105 2.037 . S
Zn99 O123 2.065 1_455 S
Zn99 O127 2.051 1_455 S
C100 O97 1.259 . S
C100 O101 1.254 . S
O101 Zn99 2.047 . S
O101 C100 1.254 . S
C102 O123 1.256 . S
C102 O124 1.244 . S
O103 Zn99 2.056 . S
O103 C125 1.259 . S
O104 Zn96 2.046 1_455 S
O104 C125 1.254 . S
N105 Zn99 2.037 . S
N105 C106 1.298 . S
N105 N108 1.398 . S
C106 N105 1.298 . S
C106 N109 1.367 . S
C106 C119 1.481 . S
C107 N108 1.299 . S
C107 N109 1.379 . S
N108 N105 1.398 . S
N108 C107 1.299 . S
N109 C106 1.367 . S
N109 C107 1.379 . S
C110 N112 1.298 . S
C110 N114 1.367 . S
C110 C118 1.481 . S
C111 N113 1.299 . S
C111 N114 1.379 . S
N112 Zn96 2.036 . S
N112 C110 1.298 . S
N112 N113 1.398 . S
N113 C111 1.299 . S
N113 N112 1.398 . S
N114 C110 1.367 . S
N114 C111 1.379 . S
H115 C118 0.980 . S
H116 C118 0.981 . S
H117 C118 0.981 . S
C118 C110 1.481 . S
C118 H115 0.980 . S
C118 H116 0.981 . S
C118 H117 0.981 . S
C119 C106 1.481 . S
C119 H120 0.980 . S
C119 H121 0.981 . S
C119 H122 0.981 . S
H120 C119 0.980 . S
H121 C119 0.981 . S
H122 C119 0.981 . S
O123 Zn99 2.065 1_655 S
O123 C102 1.256 . S
O124 Zn96 2.053 . S
O124 C102 1.244 . S
C125 O103 1.259 . S
C125 O104 1.254 . S
O126 Zn96 2.066 . S
O126 C98 1.256 . S
O127 C98 1.244 . S
O127 Zn99 2.051 1_655 S
Zn128 O129 2.055 . S
Zn128 O136 2.046 . S
Zn128 N144 2.036 . S
Zn128 O156 2.053 . S
Zn128 O158 2.066 . S
O129 Zn128 2.055 . S
O129 C132 1.259 . S
C130 O158 1.256 . S
C130 O159 1.244 . S
Zn131 O133 2.046 . S
Zn131 O135 2.055 . S
Zn131 N137 2.036 . S
Zn131 O155 2.066 . S
Zn131 O159 2.053 . S
C132 O129 1.259 . S
C132 O133 1.254 . S
O133 Zn131 2.046 . S
O133 C132 1.254 . S
C134 O155 1.256 . S
C134 O156 1.244 . S
O135 Zn131 2.055 . S
O135 C157 1.259 . S
O136 Zn128 2.046 . S
O136 C157 1.254 . S
N137 Zn131 2.036 . S
N137 C138 1.298 1_556 S
N137 N140 1.398 . S
C138 N137 1.298 1_554 S
C138 N141 1.367 . S
C138 C151 1.481 . S
C139 N140 1.299 1_554 S
C139 N141 1.379 . S
N140 N137 1.398 . S
N140 C139 1.299 1_556 S
N141 C138 1.367 . S
N141 C139 1.379 . S
C142 N144 1.298 . S
C142 N146 1.367 . S
C142 C150 1.481 . S
C143 N145 1.299 . S
C143 N146 1.379 . S
N144 Zn128 2.036 . S
N144 C142 1.298 . S
N144 N145 1.398 . S
N145 C143 1.299 . S
N145 N144 1.398 . S
N146 C142 1.367 . S
N146 C143 1.379 . S
H147 C150 0.980 . S
H148 C150 0.981 . S
H149 C150 0.981 . S
C150 C142 1.481 . S
C150 H147 0.980 . S
C150 H148 0.981 . S
C150 H149 0.981 . S
C151 C138 1.481 . S
C151 H152 0.980 . S
C151 H153 0.981 . S
C151 H154 0.981 . S
H152 C151 0.980 . S
H153 C151 0.981 . S
H154 C151 0.981 . S
O155 Zn131 2.066 . S
O155 C134 1.256 . S
O156 Zn128 2.053 . S
O156 C134 1.244 . S
C157 O135 1.259 . S
C157 O136 1.254 . S
O158 Zn128 2.066 . S
O158 C130 1.256 . S
O159 C130 1.244 . S
O159 Zn131 2.053 . S
Zn160 O161 2.055 . S
Zn160 O168 2.046 . S
Zn160 N176 2.036 . S
Zn160 O188 2.053 . S
Zn160 O190 2.066 . S
O161 Zn160 2.055 . S
O161 C164 1.259 . S
C162 O190 1.256 . S
C162 O191 1.244 . S
Zn163 O165 2.046 . S
Zn163 O167 2.055 . S
Zn163 N169 2.036 . S
Zn163 O187 2.066 . S
Zn163 O191 2.053 . S
C164 O161 1.259 . S
C164 O165 1.254 . S
O165 Zn163 2.046 . S
O165 C164 1.254 . S
C166 O187 1.256 . S
C166 O188 1.244 . S
O167 Zn163 2.055 . S
O167 C189 1.259 . S
O168 Zn160 2.046 . S
O168 C189 1.254 . S
N169 Zn163 2.036 . S
N169 C170 1.298 . S
N169 N172 1.398 . S
C170 N169 1.298 . S
C170 N173 1.367 . S
C170 C183 1.481 . S
C171 N172 1.299 . S
C171 N173 1.379 . S
N172 N169 1.398 . S
N172 C171 1.299 . S
N173 C170 1.367 . S
N173 C171 1.379 . S
C174 N176 1.298 . S
C174 N178 1.367 . S
C174 C182 1.481 . S
C175 N177 1.299 . S
C175 N178 1.379 . S
N176 Zn160 2.036 . S
N176 C174 1.298 . S
N176 N177 1.398 . S
N177 C175 1.299 . S
N177 N176 1.398 . S
N178 C174 1.367 . S
N178 C175 1.379 . S
H179 C182 0.980 . S
H180 C182 0.981 . S
H181 C182 0.981 . S
C182 C174 1.481 . S
C182 H179 0.980 . S
C182 H180 0.981 . S
C182 H181 0.981 . S
C183 C170 1.481 . S
C183 H184 0.980 . S
C183 H185 0.981 . S
C183 H186 0.981 . S
H184 C183 0.980 . S
H185 C183 0.981 . S
H186 C183 0.981 . S
O187 Zn163 2.066 . S
O187 C166 1.256 . S
O188 Zn160 2.053 . S
O188 C166 1.244 . S
C189 O167 1.259 . S
C189 O168 1.254 . S
O190 Zn160 2.066 . S
O190 C162 1.256 . S
O191 C162 1.244 . S
O191 Zn163 2.053 . S
Zn192 O193 2.055 . S
Zn192 O200 2.046 1_655 S
Zn192 N208 2.036 1_655 S
Zn192 O220 2.053 . S
Zn192 O222 2.066 . S
O193 Zn192 2.055 . S
O193 C196 1.259 . S
C194 O222 1.256 . S
C194 O223 1.244 . S
Zn195 O197 2.046 . S
Zn195 O199 2.055 . S
Zn195 N201 2.036 . S
Zn195 O219 2.066 . S
Zn195 O223 2.053 . S
C196 O193 1.259 . S
C196 O197 1.254 . S
O197 Zn195 2.046 . S
O197 C196 1.254 . S
C198 O219 1.256 . S
C198 O220 1.244 . S
O199 Zn195 2.055 . S
O199 C221 1.259 1_655 S
O200 Zn192 2.046 1_455 S
O200 C221 1.254 . S
N201 Zn195 2.036 . S
N201 C202 1.298 . S
N201 N204 1.398 . S
C202 N201 1.298 . S
C202 N205 1.367 . S
C202 C215 1.481 . S
C203 N204 1.299 . S
C203 N205 1.379 . S
N204 N201 1.398 . S
N204 C203 1.299 . S
N205 C202 1.367 . S
N205 C203 1.379 . S
C206 N208 1.298 1_655 S
C206 N210 1.367 1_655 S
C206 C214 1.481 . S
C207 N209 1.299 . S
C207 N210 1.379 . S
N208 Zn192 2.036 1_455 S
N208 C206 1.298 1_455 S
N208 N209 1.398 . S
N209 C207 1.299 . S
N209 N208 1.398 . S
N210 C206 1.367 1_455 S
N210 C207 1.379 . S
H211 C214 0.980 . S
H212 C214 0.981 . S
H213 C214 0.981 . S
C214 C206 1.481 . S
C214 H211 0.980 . S
C214 H212 0.981 . S
C214 H213 0.981 . S
C215 C202 1.481 . S
C215 H216 0.980 . S
C215 H217 0.981 . S
C215 H218 0.981 . S
H216 C215 0.980 . S
H217 C215 0.981 . S
H218 C215 0.981 . S
O219 Zn195 2.066 . S
O219 C198 1.256 . S
O220 Zn192 2.053 . S
O220 C198 1.244 . S
C221 O199 1.259 1_455 S
C221 O200 1.254 . S
O222 Zn192 2.066 . S
O222 C194 1.256 . S
O223 C194 1.244 . S
O223 Zn195 2.053 . S
Zn224 O225 2.055 1_455 S
Zn224 O232 2.046 1_455 S
Zn224 N240 2.036 . S
Zn224 O252 2.053 . S
Zn224 O254 2.066 . S
O225 Zn224 2.055 1_655 S
O225 C228 1.259 . S
C226 O254 1.256 . S
C226 O255 1.244 . S
Zn227 O229 2.047 . S
Zn227 O231 2.056 . S
Zn227 N233 2.037 . S
Zn227 O251 2.065 1_655 S
Zn227 O255 2.051 1_655 S
C228 O225 1.259 . S
C228 O229 1.254 . S
O229 Zn227 2.047 . S
O229 C228 1.254 . S
C230 O251 1.256 . S
C230 O252 1.244 . S
O231 Zn227 2.056 . S
O231 C253 1.259 . S
O232 Zn224 2.046 1_655 S
O232 C253 1.254 . S
N233 Zn227 2.037 . S
N233 C234 1.298 . S
N233 N236 1.398 . S
C234 N233 1.298 . S
C234 N237 1.367 . S
C234 C247 1.481 . S
C235 N236 1.299 . S
C235 N237 1.379 . S
N236 N233 1.398 . S
N236 C235 1.299 . S
N237 C234 1.367 . S
N237 C235 1.379 . S
C238 N240 1.298 . S
C238 N242 1.367 . S
C238 C246 1.481 . S
C239 N241 1.299 . S
C239 N242 1.379 . S
N240 Zn224 2.036 . S
N240 C238 1.298 . S
N240 N241 1.398 . S
N241 C239 1.299 . S
N241 N240 1.398 . S
N242 C238 1.367 . S
N242 C239 1.379 . S
H243 C246 0.980 . S
H244 C246 0.981 . S
H245 C246 0.981 . S
C246 C238 1.481 . S
C246 H243 0.980 . S
C246 H244 0.981 . S
C246 H245 0.981 . S
C247 C234 1.481 . S
C247 H248 0.980 . S
C247 H249 0.981 . S
C247 H250 0.981 . S
H248 C247 0.980 . S
H249 C247 0.981 . S
H250 C247 0.981 . S
O251 Zn227 2.065 1_455 S
O251 C230 1.256 . S
O252 Zn224 2.053 . S
O252 C230 1.244 . S
C253 O231 1.259 . S
C253 O232 1.254 . S
O254 Zn224 2.066 . S
O254 C226 1.256 . S
O255 C226 1.244 . S
O255 Zn227 2.051 1_455 S
Zn256 O257 2.055 . S
Zn256 O264 2.046 1_655 S
Zn256 N272 2.036 1_655 S
Zn256 O284 2.053 . S
Zn256 O286 2.066 . S
O257 Zn256 2.055 . S
O257 C260 1.259 . S
C258 O286 1.256 . S
C258 O287 1.244 . S
Zn259 O261 2.046 . S
Zn259 O263 2.055 . S
Zn259 N265 2.036 . S
Zn259 O283 2.066 . S
Zn259 O287 2.053 . S
C260 O257 1.259 . S
C260 O261 1.254 . S
O261 Zn259 2.046 . S
O261 C260 1.254 . S
C262 O283 1.256 . S
C262 O284 1.244 . S
O263 Zn259 2.055 . S
O263 C285 1.259 1_655 S
O264 Zn256 2.046 1_455 S
O264 C285 1.254 . S
N265 Zn259 2.036 . S
N265 C266 1.298 . S
N265 N268 1.398 . S
C266 N265 1.298 . S
C266 N269 1.367 . S
C266 C279 1.481 . S
C267 N268 1.299 . S
C267 N269 1.379 . S
N268 N265 1.398 . S
N268 C267 1.299 . S
N269 C266 1.367 . S
N269 C267 1.379 . S
C270 N272 1.298 1_655 S
C270 N274 1.367 1_655 S
C270 C278 1.481 . S
C271 N273 1.299 . S
C271 N274 1.379 . S
N272 Zn256 2.036 1_455 S
N272 C270 1.298 1_455 S
N272 N273 1.398 . S
N273 C271 1.299 . S
N273 N272 1.398 . S
N274 C270 1.367 1_455 S
N274 C271 1.379 . S
H275 C278 0.980 . S
H276 C278 0.981 . S
H277 C278 0.981 . S
C278 C270 1.481 . S
C278 H275 0.980 . S
C278 H276 0.981 . S
C278 H277 0.981 . S
C279 C266 1.481 . S
C279 H280 0.980 . S
C279 H281 0.981 . S
C279 H282 0.981 . S
H280 C279 0.980 . S
H281 C279 0.981 . S
H282 C279 0.981 . S
O283 Zn259 2.066 . S
O283 C262 1.256 . S
O284 Zn256 2.053 . S
O284 C262 1.244 . S
C285 O263 1.259 1_455 S
C285 O264 1.254 . S
O286 Zn256 2.066 . S
O286 C258 1.256 . S
O287 C258 1.244 . S
O287 Zn259 2.053 . S
Zn288 O289 2.056 . S
Zn288 O296 2.047 . S
Zn288 N304 2.037 1_545 S
Zn288 O316 2.051 1_645 S
Zn288 O318 2.065 1_655 S
O289 Zn288 2.056 . S
O289 C292 1.259 . S
C290 O318 1.256 . S
C290 O319 1.244 . S
Zn291 O293 2.046 1_455 S
Zn291 O295 2.055 1_455 S
Zn291 N297 2.036 . S
Zn291 O315 2.066 . S
Zn291 O319 2.053 . S
C292 O289 1.259 . S
C292 O293 1.254 . S
O293 Zn291 2.046 1_655 S
O293 C292 1.254 . S
C294 O315 1.256 1_565 S
C294 O316 1.244 . S
O295 Zn291 2.055 1_655 S
O295 C317 1.259 . S
O296 Zn288 2.047 . S
O296 C317 1.254 . S
N297 Zn291 2.036 . S
N297 C298 1.298 . S
N297 N300 1.398 . S
C298 N297 1.298 . S
C298 N301 1.367 . S
C298 C311 1.481 . S
C299 N300 1.299 . S
C299 N301 1.379 . S
N300 N297 1.398 . S
N300 C299 1.299 . S
N301 C298 1.367 . S
N301 C299 1.379 . S
C302 N304 1.298 1_545 S
C302 N306 1.367 1_545 S
C302 C310 1.481 . S
C303 N305 1.299 . S
C303 N306 1.379 . S
N304 Zn288 2.037 1_565 S
N304 C302 1.298 1_565 S
N304 N305 1.398 . S
N305 C303 1.299 . S
N305 N304 1.398 . S
N306 C302 1.367 1_565 S
N306 C303 1.379 . S
H307 C310 0.980 . S
H308 C310 0.981 . S
H309 C310 0.981 . S
C310 C302 1.481 . S
C310 H307 0.980 . S
C310 H308 0.981 . S
C310 H309 0.981 . S
C311 C298 1.481 . S
C311 H312 0.980 . S
C311 H313 0.981 . S
C311 H314 0.981 . S
H312 C311 0.980 . S
H313 C311 0.981 . S
H314 C311 0.981 . S
O315 Zn291 2.066 . S
O315 C294 1.256 1_545 S
O316 Zn288 2.051 1_465 S
O316 C294 1.244 . S
C317 O295 1.259 . S
C317 O296 1.254 . S
O318 Zn288 2.065 1_455 S
O318 C290 1.256 . S
O319 C290 1.244 . S
O319 Zn291 2.053 . S
Zn320 O321 2.055 . S
Zn320 O328 2.046 . S
Zn320 N336 2.036 . S
Zn320 O348 2.053 . S
Zn320 O350 2.066 . S
O321 Zn320 2.055 . S
O321 C324 1.259 . S
C322 O350 1.256 . S
C322 O351 1.244 . S
Zn323 O325 2.046 . S
Zn323 O327 2.055 . S
Zn323 N329 2.036 . S
Zn323 O347 2.066 . S
Zn323 O351 2.053 . S
C324 O321 1.259 . S
C324 O325 1.254 . S
O325 Zn323 2.046 . S
O325 C324 1.254 . S
C326 O347 1.256 . S
C326 O348 1.244 . S
O327 Zn323 2.055 . S
O327 C349 1.259 . S
O328 Zn320 2.046 . S
O328 C349 1.254 . S
N329 Zn323 2.036 . S
N329 C330 1.298 1_554 S
N329 N332 1.398 . S
C330 N329 1.298 1_556 S
C330 N333 1.367 . S
C330 C343 1.481 . S
C331 N332 1.299 1_556 S
C331 N333 1.379 . S
N332 N329 1.398 . S
N332 C331 1.299 1_554 S
N333 C330 1.367 . S
N333 C331 1.379 . S
C334 N336 1.298 . S
C334 N338 1.367 . S
C334 C342 1.481 . S
C335 N337 1.299 . S
C335 N338 1.379 . S
N336 Zn320 2.036 . S
N336 C334 1.298 . S
N336 N337 1.398 . S
N337 C335 1.299 . S
N337 N336 1.398 . S
N338 C334 1.367 . S
N338 C335 1.379 . S
H339 C342 0.980 . S
H340 C342 0.981 . S
H341 C342 0.981 . S
C342 C334 1.481 . S
C342 H339 0.980 . S
C342 H340 0.981 . S
C342 H341 0.981 . S
C343 C330 1.481 . S
C343 H344 0.980 . S
C343 H345 0.981 . S
C343 H346 0.981 . S
H344 C343 0.980 . S
H345 C343 0.981 . S
H346 C343 0.981 . S
O347 Zn323 2.066 . S
O347 C326 1.256 . S
O348 Zn320 2.053 . S
O348 C326 1.244 . S
C349 O327 1.259 . S
C349 O328 1.254 . S
O350 Zn320 2.066 . S
O350 C322 1.256 . S
O351 C322 1.244 . S
O351 Zn323 2.053 . S
Zn352 O353 2.055 . S
Zn352 O360 2.046 . S
Zn352 N368 2.036 . S
Zn352 O380 2.053 . S
Zn352 O382 2.066 . S
O353 Zn352 2.055 . S
O353 C356 1.259 . S
C354 O382 1.256 1_545 S
C354 O383 1.244 . S
Zn355 O357 2.046 . S
Zn355 O359 2.055 . S
Zn355 N361 2.036 1_565 S
Zn355 O379 2.066 . S
Zn355 O383 2.053 1_565 S
C356 O353 1.259 . S
C356 O357 1.254 . S
O357 Zn355 2.046 . S
O357 C356 1.254 . S
C358 O379 1.256 . S
C358 O380 1.244 . S
O359 Zn355 2.055 . S
O359 C381 1.259 . S
O360 Zn352 2.046 . S
O360 C381 1.254 . S
N361 Zn355 2.036 1_545 S
N361 C362 1.298 1_545 S
N361 N364 1.398 . S
C362 N361 1.298 1_565 S
C362 N365 1.367 1_565 S
C362 C375 1.481 . S
C363 N364 1.299 . S
C363 N365 1.379 . S
N364 N361 1.398 . S
N364 C363 1.299 . S
N365 C362 1.367 1_545 S
N365 C363 1.379 . S
C366 N368 1.298 . S
C366 N370 1.367 . S
C366 C374 1.481 . S
C367 N369 1.299 . S
C367 N370 1.379 . S
N368 Zn352 2.036 . S
N368 C366 1.298 . S
N368 N369 1.398 . S
N369 C367 1.299 . S
N369 N368 1.398 . S
N370 C366 1.367 . S
N370 C367 1.379 . S
H371 C374 0.980 . S
H372 C374 0.981 . S
H373 C374 0.981 . S
C374 C366 1.481 . S
C374 H371 0.980 . S
C374 H372 0.981 . S
C374 H373 0.981 . S
C375 C362 1.481 . S
C375 H376 0.980 . S
C375 H377 0.981 . S
C375 H378 0.981 . S
H376 C375 0.980 . S
H377 C375 0.981 . S
H378 C375 0.981 . S
O379 Zn355 2.066 . S
O379 C358 1.256 . S
O380 Zn352 2.053 . S
O380 C358 1.244 . S
C381 O359 1.259 . S
C381 O360 1.254 . S
O382 Zn352 2.066 . S
O382 C354 1.256 1_565 S
O383 C354 1.244 . S
O383 Zn355 2.053 1_545 S
Zn384 O385 2.055 . S
Zn384 O392 2.046 1_455 S
Zn384 N400 2.036 1_455 S
Zn384 O412 2.053 . S
Zn384 O414 2.066 . S
O385 Zn384 2.055 . S
O385 C388 1.259 . S
C386 O414 1.256 . S
C386 O415 1.244 . S
Zn387 O389 2.046 . S
Zn387 O391 2.055 . S
Zn387 N393 2.036 . S
Zn387 O411 2.066 . S
Zn387 O415 2.053 . S
C388 O385 1.259 . S
C388 O389 1.254 . S
O389 Zn387 2.046 . S
O389 C388 1.254 . S
C390 O411 1.256 . S
C390 O412 1.244 . S
O391 Zn387 2.055 . S
O391 C413 1.259 1_455 S
O392 Zn384 2.046 1_655 S
O392 C413 1.254 . S
N393 Zn387 2.036 . S
N393 C394 1.298 . S
N393 N396 1.398 . S
C394 N393 1.298 . S
C394 N397 1.367 . S
C394 C407 1.481 . S
C395 N396 1.299 . S
C395 N397 1.379 . S
N396 N393 1.398 . S
N396 C395 1.299 . S
N397 C394 1.367 . S
N397 C395 1.379 . S
C398 N400 1.298 1_455 S
C398 N402 1.367 1_455 S
C398 C406 1.481 . S
C399 N401 1.299 . S
C399 N402 1.379 . S
N400 Zn384 2.036 1_655 S
N400 C398 1.298 1_655 S
N400 N401 1.398 . S
N401 C399 1.299 . S
N401 N400 1.398 . S
N402 C398 1.367 1_655 S
N402 C399 1.379 . S
H403 C406 0.980 . S
H404 C406 0.981 . S
H405 C406 0.981 . S
C406 C398 1.481 . S
C406 H403 0.980 . S
C406 H404 0.981 . S
C406 H405 0.981 . S
C407 C394 1.481 . S
C407 H408 0.980 . S
C407 H409 0.981 . S
C407 H410 0.981 . S
H408 C407 0.980 . S
H409 C407 0.981 . S
H410 C407 0.981 . S
O411 Zn387 2.066 . S
O411 C390 1.256 . S
O412 Zn384 2.053 . S
O412 C390 1.244 . S
C413 O391 1.259 1_655 S
C413 O392 1.254 . S
O414 Zn384 2.066 . S
O414 C386 1.256 . S
O415 C386 1.244 . S
O415 Zn387 2.053 . S
Zn416 O417 2.056 . S
Zn416 O424 2.047 . S
Zn416 N432 2.037 1_565 S
Zn416 O444 2.051 1_465 S
Zn416 O446 2.065 1_455 S
O417 Zn416 2.056 . S
O417 C420 1.259 . S
C418 O446 1.256 . S
C418 O447 1.244 . S
Zn419 O421 2.046 1_655 S
Zn419 O423 2.055 1_655 S
Zn419 N425 2.036 . S
Zn419 O443 2.066 . S
Zn419 O447 2.053 . S
C420 O417 1.259 . S
C420 O421 1.254 . S
O421 Zn419 2.046 1_455 S
O421 C420 1.254 . S
C422 O443 1.256 1_545 S
C422 O444 1.244 . S
O423 Zn419 2.055 1_455 S
O423 C445 1.259 . S
O424 Zn416 2.047 . S
O424 C445 1.254 . S
N425 Zn419 2.036 . S
N425 C426 1.298 . S
N425 N428 1.398 . S
C426 N425 1.298 . S
C426 N429 1.367 . S
C426 C439 1.481 . S
C427 N428 1.299 . S
C427 N429 1.379 . S
N428 N425 1.398 . S
N428 C427 1.299 . S
N429 C426 1.367 . S
N429 C427 1.379 . S
C430 N432 1.298 1_565 S
C430 N434 1.367 1_565 S
C430 C438 1.481 . S
C431 N433 1.299 . S
C431 N434 1.379 . S
N432 Zn416 2.037 1_545 S
N432 C430 1.298 1_545 S
N432 N433 1.398 . S
N433 C431 1.299 . S
N433 N432 1.398 . S
N434 C430 1.367 1_545 S
N434 C431 1.379 . S
H435 C438 0.980 . S
H436 C438 0.981 . S
H437 C438 0.981 . S
C438 C430 1.481 . S
C438 H435 0.980 . S
C438 H436 0.981 . S
C438 H437 0.981 . S
C439 C426 1.481 . S
C439 H440 0.980 . S
C439 H441 0.981 . S
C439 H442 0.981 . S
H440 C439 0.980 . S
H441 C439 0.981 . S
H442 C439 0.981 . S
O443 Zn419 2.066 . S
O443 C422 1.256 1_565 S
O444 Zn416 2.051 1_645 S
O444 C422 1.244 . S
C445 O423 1.259 . S
C445 O424 1.254 . S
O446 Zn416 2.065 1_655 S
O446 C418 1.256 . S
O447 C418 1.244 . S
O447 Zn419 2.053 . S
Zn448 O449 2.055 . S
Zn448 O456 2.046 . S
Zn448 N464 2.036 . S
Zn448 O476 2.053 . S
Zn448 O478 2.066 . S
O449 Zn448 2.055 . S
O449 C452 1.259 . S
C450 O478 1.256 . S
C450 O479 1.244 . S
Zn451 O453 2.046 . S
Zn451 O455 2.055 . S
Zn451 N457 2.036 . S
Zn451 O475 2.066 . S
Zn451 O479 2.053 . S
C452 O449 1.259 . S
C452 O453 1.254 . S
O453 Zn451 2.046 . S
O453 C452 1.254 . S
C454 O475 1.256 . S
C454 O476 1.244 . S
O455 Zn451 2.055 . S
O455 C477 1.259 . S
O456 Zn448 2.046 . S
O456 C477 1.254 . S
N457 Zn451 2.036 . S
N457 C458 1.298 . S
N457 N460 1.398 . S
C458 N457 1.298 . S
C458 N461 1.367 . S
C458 C471 1.481 . S
C459 N460 1.299 . S
C459 N461 1.379 . S
N460 N457 1.398 . S
N460 C459 1.299 . S
N461 C458 1.367 . S
N461 C459 1.379 . S
C462 N464 1.298 1_554 S
C462 N466 1.367 . S
C462 C470 1.481 . S
C463 N465 1.299 1_554 S
C463 N466 1.379 . S
N464 Zn448 2.036 . S
N464 C462 1.298 1_556 S
N464 N465 1.398 . S
N465 C463 1.299 1_556 S
N465 N464 1.398 . S
N466 C462 1.367 . S
N466 C463 1.379 . S
H467 C470 0.980 . S
H468 C470 0.981 . S
H469 C470 0.981 . S
C470 C462 1.481 . S
C470 H467 0.980 . S
C470 H468 0.981 . S
C470 H469 0.981 . S
C471 C458 1.481 . S
C471 H472 0.980 . S
C471 H473 0.981 . S
C471 H474 0.981 . S
H472 C471 0.980 . S
H473 C471 0.981 . S
H474 C471 0.981 . S
O475 Zn451 2.066 . S
O475 C454 1.256 . S
O476 Zn448 2.053 . S
O476 C454 1.244 . S
C477 O455 1.259 . S
C477 O456 1.254 . S
O478 Zn448 2.066 . S
O478 C450 1.256 . S
O479 C450 1.244 . S
O479 Zn451 2.053 . S
Zn480 O481 2.055 . S
Zn480 O488 2.046 . S
Zn480 N496 2.036 . S
Zn480 O508 2.053 . S
Zn480 O510 2.066 . S
O481 Zn480 2.055 . S
O481 C484 1.259 . S
C482 O510 1.256 1_565 S
C482 O511 1.244 . S
Zn483 O485 2.046 . S
Zn483 O487 2.055 . S
Zn483 N489 2.036 1_545 S
Zn483 O507 2.066 . S
Zn483 O511 2.053 1_545 S
C484 O481 1.259 . S
C484 O485 1.254 . S
O485 Zn483 2.046 . S
O485 C484 1.254 . S
C486 O507 1.256 . S
C486 O508 1.244 . S
O487 Zn483 2.055 . S
O487 C509 1.259 . S
O488 Zn480 2.046 . S
O488 C509 1.254 . S
N489 Zn483 2.036 1_565 S
N489 C490 1.298 1_565 S
N489 N492 1.398 . S
C490 N489 1.298 1_545 S
C490 N493 1.367 1_545 S
C490 C503 1.481 . S
C491 N492 1.299 . S
C491 N493 1.379 . S
N492 N489 1.398 . S
N492 C491 1.299 . S
N493 C490 1.367 1_565 S
N493 C491 1.379 . S
C494 N496 1.298 . S
C494 N498 1.367 . S
C494 C502 1.481 . S
C495 N497 1.299 . S
C495 N498 1.379 . S
N496 Zn480 2.036 . S
N496 C494 1.298 . S
N496 N497 1.398 . S
N497 C495 1.299 . S
N497 N496 1.398 . S
N498 C494 1.367 . S
N498 C495 1.379 . S
H499 C502 0.980 . S
H500 C502 0.981 . S
H501 C502 0.981 . S
C502 C494 1.481 . S
C502 H499 0.980 . S
C502 H500 0.981 . S
C502 H501 0.981 . S
C503 C490 1.481 . S
C503 H504 0.980 . S
C503 H505 0.981 . S
C503 H506 0.981 . S
H504 C503 0.980 . S
H505 C503 0.981 . S
H506 C503 0.981 . S
O507 Zn483 2.066 . S
O507 C486 1.256 . S
O508 Zn480 2.053 . S
O508 C486 1.244 . S
C509 O487 1.259 . S
C509 O488 1.254 . S
O510 Zn480 2.066 . S
O510 C482 1.256 1_545 S
O511 C482 1.244 . S
O511 Zn483 2.053 1_565 S
C29 C349 2.089 . S
C36 C381 2.087 . S
C93 C285 2.089 1_655 S
C292 C125 2.087 1_655 S
C157 C452 2.089 . S
C509 C164 2.087 . S
C413 C221 2.089 1_655 S
C253 C420 2.087 1_655 S
C6 C134 4.220 1_544 S
C34 C418 4.219 . S
C70 C198 4.220 1_465 S
C102 C486 4.219 . S
C162 C290 4.219 . S
C358 C230 4.219 . S
C390 C262 4.220 1_455 S
C326 C450 4.220 1_554 S
C4 C226 2.776 . S
C61 C386 2.775 . S
C68 C166 2.777 . S
C100 C454 2.776 . S
C98 C132 2.776 . S
C189 C258 2.775 . S
C196 C38 2.777 . S
C322 C228 2.776 . S
C260 C482 2.776 . S
C130 C317 2.776 1_565 S
C422 C324 2.776 . S
C194 C356 2.776 1_545 S
C388 C354 2.776 . S
C445 C2 2.776 1_565 S
C294 C477 2.776 . S
C484 C66 2.776 1_545 S
N13 N301 0.588 . S
N338 N50 0.588 . S
N77 N370 0.588 . S
N274 N109 0.588 . S
N429 N141 0.588 . S
N461 N178 0.588 . S
N498 N205 0.588 . S
N402 N237 0.588 . S
N45 N269 0.588 . S
N82 N306 0.588 . S
N114 N333 0.588 . S
N365 N18 0.588 . S
N173 N397 0.588 . S
N210 N434 0.588 . S
N242 N466 0.588 . S
N146 N493 0.588 . S
