# Generated by pormake.
# Topology qtz-x, (6)-cn, num edge types: 1
# Building blocks:
#     Node 0, Type 0, BuildingBlock: LEVNOQ01_clean_sbu_1, # of connection points: 6
#     Node 1, Type 0, BuildingBlock: LEVNOQ01_clean_sbu_1, # of connection points: 6
#     Node 2, Type 0, BuildingBlock: LEVNOQ01_clean_sbu_1, # of connection points: 6
#     Edge 3, Type (0, 0), BuildingBlock: TEMPAE_clean_linker_10, # of connection points: 2
#     Edge 4, Type (0, 0), BuildingBlock: TEMPAE_clean_linker_10, # of connection points: 2
#     Edge 5, Type (0, 0), BuildingBlock: TEMPAE_clean_linker_10, # of connection points: 2
#     Edge 6, Type (0, 0), BuildingBlock: TEMPAE_clean_linker_10, # of connection points: 2
#     Edge 7, Type (0, 0), BuildingBlock: TEMPAE_clean_linker_10, # of connection points: 2
#     Edge 8, Type (0, 0), BuildingBlock: TEMPAE_clean_linker_10, # of connection points: 2
#     Edge 9, Type (0, 0), BuildingBlock: TEMPAE_clean_linker_10, # of connection points: 2
#     Edge 10, Type (0, 0), BuildingBlock: TEMPAE_clean_linker_10, # of connection points: 2
#     Edge 11, Type (0, 0), BuildingBlock: TEMPAE_clean_linker_10, # of connection points: 2
# Relax obj value: 0.267
# Max RMSD: 0.266
# Mean RMSD: 0.263
data_MOF--net-qtz-x--node1-LEVNOQ01_clean_sbu_1--edge1-TEMPAE_clean_linker_10
_symmetry_space_group_name_H-M    P1
_symmetry_Int_Tables_number       1
_symmetry_cell_setting            triclinic
loop_
_symmetry_equiv_pos_as_xyz
'x, y, z'
_cell_length_a     15.441384
_cell_length_b     15.586097
_cell_length_c     38.925649
_cell_angle_alpha  95.050517
_cell_angle_beta   94.72277
_cell_angle_gamma 119.96042
loop_
_atom_site_label
_atom_site_type_symbol
_atom_site_fract_x
_atom_site_fract_y
_atom_site_fract_z
_atom_type_partial_charge
O0 O 0.89362 0.32062 0.05921 0.0
Mg1 Mg 0.02586 0.31692 0.07617 0.0
O2 O 0.87364 0.37783 0.11061 0.0
Mg3 Mg 0.01991 0.41891 0.14738 0.0
O4 O 0.01477 0.27634 0.12382 0.0
O5 O 0.01539 0.18197 0.07732 0.0
O6 O 0.16849 0.46644 0.18358 0.0
O7 O 0.92452 0.29839 0.18496 0.0
Mg8 Mg 0.97515 0.46246 0.19574 0.0
O9 O 0.02659 0.57501 0.16864 0.0
O10 O 0.08627 0.44817 0.22796 0.0
O11 O 0.81926 0.34916 0.18257 0.0
O12 O 0.97245 0.57834 0.2206 0.0
C13 C 0.17451 0.52354 0.08818 0.0
C14 C 0.8437 0.34512 0.07805 0.0
C15 C 0.01194 0.196 0.11024 0.0
C16 C 0.1655 0.46311 0.21599 0.0
C17 C 0.84214 0.28812 0.19295 0.0
C18 C 0.00729 0.62058 0.19396 0.0
O19 O 0.16978 0.44198 0.07797 0.0
O20 O 0.11555 0.52531 0.10897 0.0
O21 O 0.51589 0.15139 0.42 0.0
Mg22 Mg 0.4127 0.00826 0.42986 0.0
O23 O 0.63423 0.12849 0.44519 0.0
Mg24 Mg 0.57823 0.04042 0.49182 0.0
O25 O 0.41741 0.00553 0.48136 0.0
O26 O 0.28115 0.98016 0.44754 0.0
O27 O 0.53312 0.96071 0.53908 0.0
O28 O 0.6054 0.18493 0.52785 0.0
Mg29 Mg 0.75332 0.16012 0.54182 0.0
O30 O 0.73565 0.05594 0.50283 0.0
O31 O 0.66074 0.07727 0.57855 0.0
O32 O 0.76457 0.29416 0.53029 0.0
O33 O 0.88052 0.15595 0.53925 0.0
C34 C 0.47963 0.85156 0.42558 0.0
C35 C 0.60576 0.1694 0.42345 0.0
C36 C 0.32486 0.98431 0.47786 0.0
C37 C 0.57652 -0.00458 0.57056 0.0
C38 C 0.67878 0.27453 0.53699 0.0
C39 C 0.8281 0.08245 0.51423 0.0
O40 O 0.42941 0.88651 0.41114 0.0
O41 O 0.53623 0.8929 0.45512 0.0
O42 O 0.3816 0.70761 0.85442 0.0
Mg43 Mg 0.47898 0.65434 0.86907 0.0
O44 O 0.30929 0.54945 0.85722 0.0
Mg45 Mg 0.42354 0.52784 0.82289 0.0
O46 O 0.58608 0.68247 0.83861 0.0
O47 O 0.6113 0.76935 0.8917 0.0
O48 O 0.5127 0.49054 0.78393 0.0
O49 O 0.37908 0.59735 0.77901 0.0
Mg50 Mg 0.26142 0.36422 0.75493 0.0
O51 O 0.28714 0.37615 0.8066 0.0
O52 O 0.39624 0.37938 0.73993 0.0
O53 O 0.23633 0.48134 0.74569 0.0
O54 O 0.16011 0.23872 0.77533 0.0
C55 C 0.46348 0.48106 0.89759 0.0
C56 C 0.30934 0.63137 0.86311 0.0
C57 C 0.64539 0.75384 0.86419 0.0
C58 C 0.48744 0.4335 0.75461 0.0
C59 C 0.30681 0.57184 0.75436 0.0
C60 C 0.21204 0.28701 0.80531 0.0
O61 O 0.44673 0.55104 0.90604 0.0
O62 O 0.47123 0.46113 0.866 0.0
C63 C 0.94549 0.73782 0.20467 0.0
C64 C 0.01573 0.71729 0.19116 0.0
C65 C 0.94259 0.82328 0.19841 0.0
C66 C 0.01345 0.89036 0.17901 0.0
C67 C 0.08976 0.87397 0.16782 0.0
C68 C 0.08879 0.78615 0.17348 0.0
C69 C 0.85826 0.83654 0.20978 0.0
C70 C 0.16801 0.94562 0.14773 0.0
C71 C 0.94454 0.0179 0.11421 0.0
C72 C -0.00202 0.11725 0.13077 0.0
C73 C 0.9426 0.94177 0.13095 0.0
C74 C -0.0026 0.96662 0.16478 0.0
C75 C 0.04509 0.06573 0.18271 0.0
C76 C 0.04409 0.14052 0.16542 0.0
C77 C 0.88769 0.83607 0.11142 0.0
C78 C 0.10327 0.09422 0.21894 0.0
H79 H 0.88857 0.68387 0.21826 0.0
H80 H 0.14371 0.77037 0.16349 0.0
H81 H 0.88588 0.91606 0.21981 0.0
H82 H 0.79919 0.81352 0.18698 0.0
H83 H 0.82263 0.79013 0.23022 0.0
H84 H 0.23079 0.93064 0.14586 0.0
H85 H 0.13199 0.93822 0.12091 0.0
H86 H 0.19988 0.02415 0.16024 0.0
H87 H 0.90683 9e-05 0.08761 0.0
H88 H 0.08456 0.2177 0.17816 0.0
H89 H 0.84057 0.78198 0.12822 0.0
H90 H 0.9435 0.81558 0.10385 0.0
H91 H 0.83832 0.82759 0.08737 0.0
H92 H 0.06153 0.03727 0.23572 0.0
H93 H 0.11903 0.16838 0.23152 0.0
H94 H 0.17642 0.0978 0.21741 0.0
C95 C 0.17702 0.85806 0.49871 0.0
C96 C 0.2635 0.95368 0.50574 0.0
C97 C 0.08438 0.84412 0.50631 0.0
C98 C 0.08163 0.92744 0.52222 0.0
C99 C 0.173 0.01584 0.53725 0.0
C100 C 0.26431 0.02858 0.5284 0.0
C101 C 0.98933 0.74696 0.49126 0.0
C102 C 0.17313 0.10388 0.5568 0.0
C103 C 0.92405 0.02329 0.48214 0.0
C104 C 0.863 0.01249 0.50772 0.0
C105 C 0.98754 0.98345 0.48424 0.0
C106 C -0.00843 0.93578 0.51337 0.0
C107 C 0.92099 0.9148 0.53683 0.0
C108 C 0.85655 0.95313 0.53349 0.0
C109 C 0.05817 0.00256 0.45746 0.0
C110 C 0.92109 0.86332 0.56787 0.0
H111 H 0.17801 0.79945 0.48179 0.0
H112 H 0.33228 0.10194 0.53443 0.0
H113 H 0.92517 0.73362 0.50535 0.0
H114 H 0.96818 0.74951 0.46357 0.0
H115 H 0.002 0.68291 0.49196 0.0
H116 H 0.24628 0.1542 0.57389 0.0
H117 H 0.16148 0.14767 0.53783 0.0
H118 H 0.11123 0.07857 0.57295 0.0
H119 H 0.92825 0.06951 0.46234 0.0
H120 H 0.80845 0.94543 0.55325 0.0
H121 H 0.06232 0.93479 0.44942 0.0
H122 H 0.13531 0.06392 0.46892 0.0
H123 H 0.03388 0.02482 0.43385 0.0
H124 H 0.9523 0.81345 0.56354 0.0
H125 H 0.84336 0.81878 0.57436 0.0
H126 H 0.9682 0.92099 0.59079 0.0
C127 C 0.82232 0.85916 0.89313 0.0
C128 C 0.75264 0.82051 0.86235 0.0
C129 C 0.92196 0.93601 0.89349 0.0
C130 C 0.95074 0.97668 0.86257 0.0
C131 C 0.88253 0.93259 0.83083 0.0
C132 C 0.7841 0.85374 0.83108 0.0
C133 C -0.0064 0.97724 0.9274 0.0
C134 C 0.91091 0.9732 0.79707 0.0
C135 C 0.11492 0.2447 0.85366 0.0
C136 C 0.18571 0.2367 0.83574 0.0
C137 C 0.04401 0.16259 0.86769 0.0
C138 C 0.04611 0.0724 0.86351 0.0
C139 C 0.12952 0.0716 0.85143 0.0
C140 C 0.19859 0.15437 0.83723 0.0
C141 C 0.95792 0.16742 0.8816 0.0
C142 C 0.13746 0.9787 0.84848 0.0
H143 H 0.79798 0.83144 0.91725 0.0
H144 H 0.72996 0.82301 0.80736 0.0
H145 H 0.07283 0.005 0.92304 0.0
H146 H 0.99006 0.04087 0.9409 0.0
H147 H 0.97247 0.91962 0.94499 0.0
H148 H 0.85024 0.92794 0.77463 0.0
H149 H 0.92654 0.05133 0.79952 0.0
H150 H 0.98068 0.97467 0.79123 0.0
H151 H 0.10585 0.30909 0.85237 0.0
H152 H 0.25433 0.14922 0.82335 0.0
H153 H 0.93958 0.13045 0.90519 0.0
H154 H 0.88957 0.12714 0.86156 0.0
H155 H 0.97573 0.2459 0.88819 0.0
H156 H 0.10681 0.93546 0.87007 0.0
H157 H 0.21714 -0.00211 0.84858 0.0
H158 H 0.09305 0.92982 0.82354 0.0
C159 C 0.30958 0.74207 0.91323 0.0
C160 C 0.2622 0.64681 0.89279 0.0
C161 C 0.29764 0.75258 0.94835 0.0
C162 C 0.23364 0.66641 0.96273 0.0
C163 C 0.17311 0.57314 0.94069 0.0
C164 C 0.18906 0.56414 0.90595 0.0
C165 C 0.36362 0.8533 0.9708 0.0
C166 C 0.10044 0.48007 0.95478 0.0
C167 C 0.29864 0.60725 0.04886 0.0
C168 C 0.2204 0.60206 0.06608 0.0
C169 C 0.31119 0.63901 0.01622 0.0
C170 C 0.24466 0.6676 0.00099 0.0
C171 C 0.17724 0.67852 0.02092 0.0
C172 C 0.16603 0.64572 0.05359 0.0
C173 C 0.38618 0.62858 -0.00377 0.0
C174 C 0.10763 0.71212 0.00615 0.0
H175 H 0.36532 0.80715 0.90319 0.0
H176 H 0.15099 0.49081 0.89013 0.0
H177 H 0.32485 0.86488 0.99192 0.0
H178 H 0.43309 0.85713 0.98317 0.0
H179 H 0.38687 0.91546 0.95508 0.0
H180 H 0.04773 0.41859 0.93356 0.0
H181 H 0.14365 0.45356 0.97028 0.0
H182 H 0.05559 0.4964 0.97227 0.0
H183 H 0.34174 0.57486 0.05889 0.0
H184 H 0.10602 0.64274 0.06704 0.0
H185 H 0.42811 0.6947 0.98297 0.0
H186 H 0.34512 0.56152 0.97585 0.0
H187 H 0.44145 0.61972 0.01342 0.0
H188 H 0.14428 0.76879 0.98872 0.0
H189 H 0.08291 0.74393 0.02725 0.0
H190 H 0.03932 0.64661 0.9906 0.0
C191 C 0.74038 0.18912 0.38826 0.0
C192 C 0.66431 0.20996 0.39487 0.0
C193 C 0.77618 0.20032 0.35607 0.0
C194 C 0.73524 0.23364 0.33019 0.0
C195 C 0.66436 0.26231 0.33771 0.0
C196 C 0.63007 0.25053 0.37008 0.0
C197 C 0.85418 0.17204 0.34915 0.0
C198 C 0.62112 0.30093 0.31102 0.0
C199 C 0.87376 0.34366 0.25596 0.0
C200 C 0.82017 0.26521 0.22807 0.0
C201 C 0.85 0.33263 0.2896 0.0
C202 C 0.76819 0.24124 0.29544 0.0
C203 C 0.71412 0.16043 0.26759 0.0
C204 C 0.74094 0.17345 0.23391 0.0
C205 C 0.90934 0.42084 0.31843 0.0
C206 C 0.62585 0.06204 0.27319 0.0
H207 H 0.76739 0.15789 0.40729 0.0
H208 H 0.57198 0.26772 0.37519 0.0
H209 H 0.82063 0.10639 0.32826 0.0
H210 H 0.91915 0.23436 0.33981 0.0
H211 H 0.88272 0.15311 0.37273 0.0
H212 H 0.56952 0.3235 0.32155 0.0
H213 H 0.68283 0.36638 0.30173 0.0
H214 H 0.57857 0.242 0.28804 0.0
H215 H 0.93196 0.41606 0.25138 0.0
H216 H 0.69836 0.11367 0.21216 0.0
H217 H 0.93353 0.39747 0.34169 0.0
H218 H 0.86077 0.45039 0.32646 0.0
H219 H 0.97753 0.48263 0.31022 0.0
H220 H 0.64861 0.03269 0.29497 0.0
H221 H 0.59584 0.0048 0.24947 0.0
H222 H 0.5642 0.0737 0.28061 0.0
C223 C 0.3742 0.74368 0.73846 0.0
C224 C 0.32184 0.63971 0.72862 0.0
C225 C 0.40658 0.80767 0.71315 0.0
C226 C 0.39021 0.76599 0.67773 0.0
C227 C 0.33436 0.66106 0.66766 0.0
C228 C 0.29881 0.59932 0.69318 0.0
C229 C 0.46291 0.91955 0.72443 0.0
C230 C 0.31987 0.6135 0.63046 0.0
C231 C 0.43055 0.91281 0.60235 0.0
C232 C 0.52953 0.93934 0.59832 0.0
C233 C 0.38548 0.86026 0.62933 0.0
C234 C 0.43991 0.83078 0.65158 0.0
C235 C 0.53988 0.85676 0.64718 0.0
C236 C 0.58438 0.91294 0.62093 0.0
C237 C 0.27964 0.83548 0.63382 0.0
C238 C 0.59849 0.82232 0.66929 0.0
H239 H 0.39237 0.77469 0.76587 0.0
H240 H 0.26018 0.51883 0.6855 0.0
H241 H 0.54433 0.95105 0.72265 0.0
H242 H 0.43476 0.95564 0.70692 0.0
H243 H 0.45535 0.93947 0.75168 0.0
H244 H 0.26845 0.53094 0.62663 0.0
H245 H 0.28897 0.64546 0.61215 0.0
H246 H 0.39415 0.62956 0.62335 0.0
H247 H 0.38923 0.93459 0.58475 0.0
H248 H 0.66097 0.93359 0.61732 0.0
H249 H 0.27804 0.86184 0.66106 0.0
H250 H 0.22761 0.75317 0.62889 0.0
H251 H 0.25065 0.87 0.61584 0.0
H252 H 0.60742 0.85126 0.6972 0.0
H253 H 0.67472 0.84759 0.66194 0.0
H254 H 0.55636 0.7393 0.66656 0.0
C255 C 0.59483 0.45604 0.92696 0.0
C256 C 0.49789 0.44234 0.92532 0.0
C257 C 0.63788 0.43579 0.9559 0.0
C258 C 0.58061 0.3966 0.98315 0.0
C259 C 0.48112 0.37974 0.98109 0.0
C260 C 0.44173 0.40538 0.95248 0.0
C261 C 0.74573 0.45883 0.95764 0.0
C262 C 0.41687 0.33542 0.0091 0.0
C263 C 0.69257 0.26978 0.03283 0.0
C264 C 0.75644 0.34619 0.06026 0.0
C265 C 0.62595 0.28092 0.00954 0.0
C266 C 0.62601 0.37211 0.01315 0.0
C267 C 0.68454 0.44626 0.04251 0.0
C268 C 0.74844 0.43174 0.06605 0.0
C269 C 0.56253 0.19877 0.97925 0.0
C270 C 0.68841 0.54538 0.04709 0.0
H271 H 0.63905 0.48753 0.90633 0.0
H272 H 0.36726 0.39659 0.95128 0.0
H273 H 0.79166 0.50963 0.98211 0.0
H274 H 0.74799 0.38889 0.9579 0.0
H275 H 0.78158 0.49471 0.93526 0.0
H276 H 0.33902 0.3213 0.00249 0.0
H277 H 0.41238 0.2638 0.01318 0.0
H278 H 0.45195 0.38686 0.03416 0.0
H279 H 0.69866 0.20341 0.02849 0.0
H280 H 0.79871 0.49126 0.0871 0.0
H281 H 0.59738 0.22045 0.95527 0.0
H282 H 0.48538 0.18738 0.97452 0.0
H283 H 0.55651 0.12665 0.98369 0.0
H284 H 0.73579 0.59277 0.02872 0.0
H285 H 0.7216 0.58633 0.07401 0.0
H286 H 0.61204 0.53496 0.04104 0.0
C287 C 0.30291 0.61042 0.25332 0.0
C288 C 0.25814 0.50824 0.24125 0.0
C289 C 0.36287 0.65241 0.28599 0.0
C290 C 0.38197 0.59102 0.30648 0.0
C291 C 0.34792 0.4906 0.29215 0.0
C292 C 0.28332 0.44921 0.26001 0.0
C293 C 0.39489 0.75925 0.30008 0.0
C294 C 0.37235 0.4241 0.31161 0.0
C295 C 0.54463 0.76778 0.38726 0.0
C296 C 0.46873 0.76062 0.40628 0.0
C297 C 0.5201 0.70027 0.35658 0.0
C298 C 0.41748 0.6273 0.34454 0.0
C299 C 0.34402 0.61057 0.36678 0.0
C300 C 0.37091 0.67765 0.39751 0.0
C301 C 0.6019 0.71487 0.33504 0.0
C302 C 0.23402 0.53156 0.35577 0.0
H303 H 0.28167 0.65521 0.23888 0.0
H304 H 0.24792 0.36975 0.25071 0.0
H305 H 0.35745 0.76034 0.32314 0.0
H306 H 0.47758 0.80398 0.30859 0.0
H307 H 0.3751 0.79674 0.28049 0.0
H308 H 0.38764 0.37623 0.29322 0.0
H309 H 0.43875 0.46767 0.33227 0.0
H310 H 0.30616 0.37329 0.32372 0.0
H311 H 0.62054 0.83197 0.39409 0.0
H312 H 0.31252 0.67227 0.41245 0.0
H313 H 0.6075 0.76557 0.31595 0.0
H314 H 0.58471 0.64247 0.32035 0.0
H315 H 0.67651 0.74952 0.35173 0.0
H316 H 0.20199 0.552 0.3335 0.0
H317 H 0.18841 0.52303 0.37724 0.0
H318 H 0.22625 0.45814 0.34705 0.0
C319 C 0.61002 0.52212 0.71546 0.0
C320 C 0.56359 0.43969 0.73323 0.0
C321 C 0.64631 0.51407 0.68412 0.0
C322 C 0.63703 0.42181 0.6708 0.0
C323 C 0.60017 0.3421 0.6908 0.0
C324 C 0.56253 0.35164 0.72159 0.0
C325 C 0.68388 0.60046 0.66354 0.0
C326 C 0.59145 0.24327 0.6781 0.0
C327 C 0.58035 0.32155 0.57431 0.0
C328 C 0.67356 0.33461 0.56759 0.0
C329 C 0.56947 0.35678 0.6072 0.0
C330 C 0.6531 0.4033 0.63433 0.0
C331 C 0.74874 0.42207 0.62711 0.0
C332 C 0.7582 0.38894 0.59367 0.0
C333 C 0.46661 0.33782 0.61352 0.0
C334 C 0.83915 0.46948 0.6554 0.0
H335 H 0.60812 0.58924 0.72402 0.0
H336 H 0.52468 0.28739 0.73505 0.0
H337 H 0.75042 0.61063 0.65152 0.0
H338 H 0.62336 0.58435 0.64212 0.0
H339 H 0.70443 0.6717 0.68004 0.0
H340 H 0.5761 0.19524 0.69893 0.0
H341 H 0.52865 0.20214 0.65608 0.0
H342 H 0.66176 0.25553 0.6684 0.0
H343 H 0.51478 0.27946 0.55435 0.0
H344 H 0.83051 0.39852 0.58894 0.0
H345 H 0.47293 0.40499 0.62862 0.0
H346 H 0.43218 0.27545 0.62902 0.0
H347 H 0.415 0.31738 0.58873 0.0
H348 H 0.84797 0.53843 0.66999 0.0
H349 H 0.9103 0.48856 0.64483 0.0
H350 H 0.82746 0.41671 0.67433 0.0
loop_
_geom_bond_atom_site_label_1
_geom_bond_atom_site_label_2
_geom_bond_distance
_geom_bond_site_symmetry_2
_ccdc_geom_bond_type
O0 Mg1 2.001 . S
O0 C14 1.253 . S
Mg1 O0 2.001 . S
Mg1 O4 2.180 1_655 S
Mg1 O5 2.117 . S
Mg1 O19 2.028 1_655 S
O2 Mg3 2.072 1_655 S
O2 C14 1.260 . S
Mg3 O2 2.072 1_455 S
Mg3 O4 2.099 . S
Mg3 O6 2.079 . S
Mg3 O7 2.072 1_455 S
Mg3 O9 2.099 . S
Mg3 O20 2.079 . S
O4 Mg1 2.180 1_455 S
O4 Mg3 2.099 . S
O4 C15 1.279 1_455 S
O5 Mg1 2.117 . S
O5 C15 1.250 . S
O6 Mg3 2.079 . S
O6 C16 1.264 . S
O7 Mg3 2.072 1_655 S
O7 C17 1.260 . S
Mg8 O9 2.180 . S
Mg8 O10 2.030 . S
Mg8 O11 1.990 1_455 S
Mg8 O12 2.117 1_455 S
O9 Mg3 2.099 . S
O9 Mg8 2.180 . S
O9 C18 1.279 1_455 S
O10 Mg8 2.030 . S
O10 C16 1.248 . S
O11 Mg8 1.990 1_655 S
O11 C17 1.253 . S
O12 Mg8 2.117 1_655 S
O12 C18 1.250 . S
C13 O19 1.248 . S
C13 O20 1.264 . S
C14 O0 1.253 . S
C14 O2 1.260 . S
C15 O4 1.279 1_655 S
C15 O5 1.250 . S
C16 O6 1.264 . S
C16 O10 1.248 . S
C17 O7 1.260 . S
C17 O11 1.253 . S
C18 O9 1.279 1_655 S
C18 O12 1.250 . S
O19 Mg1 2.028 1_455 S
O19 C13 1.248 . S
O20 Mg3 2.079 . S
O20 C13 1.264 . S
O21 Mg22 1.990 . S
O21 C35 1.253 . S
Mg22 O21 1.990 . S
Mg22 O25 2.180 1_545 S
Mg22 O26 2.117 . S
Mg22 O40 2.030 1_545 S
O23 Mg24 2.072 1_545 S
O23 C35 1.260 . S
Mg24 O23 2.072 1_565 S
Mg24 O25 2.099 . S
Mg24 O27 2.079 . S
Mg24 O28 2.072 1_565 S
Mg24 O30 2.099 . S
Mg24 O41 2.079 . S
O25 Mg22 2.180 1_565 S
O25 Mg24 2.099 . S
O25 C36 1.279 1_565 S
O26 Mg22 2.117 . S
O26 C36 1.250 . S
O27 Mg24 2.079 . S
O27 C37 1.264 . S
O28 Mg24 2.072 1_545 S
O28 C38 1.260 . S
Mg29 O30 2.180 1_545 S
Mg29 O31 2.030 1_545 S
Mg29 O32 1.990 . S
Mg29 O33 2.117 . S
O30 Mg24 2.099 . S
O30 Mg29 2.180 1_565 S
O30 C39 1.279 1_565 S
O31 Mg29 2.030 1_565 S
O31 C37 1.248 . S
O32 Mg29 1.990 . S
O32 C38 1.253 . S
O33 Mg29 2.117 . S
O33 C39 1.250 . S
C34 O40 1.248 . S
C34 O41 1.264 . S
C35 O21 1.253 . S
C35 O23 1.260 . S
C36 O25 1.279 1_545 S
C36 O26 1.250 . S
C37 O27 1.264 . S
C37 O31 1.248 . S
C38 O28 1.260 . S
C38 O32 1.253 . S
C39 O30 1.279 1_545 S
C39 O33 1.250 . S
O40 Mg22 2.030 1_565 S
O40 C34 1.248 . S
O41 Mg24 2.079 . S
O41 C34 1.264 . S
O42 Mg43 1.990 . S
O42 C56 1.253 . S
Mg43 O42 1.990 . S
Mg43 O46 2.180 . S
Mg43 O47 2.117 . S
Mg43 O61 2.030 . S
O44 Mg45 2.072 . S
O44 C56 1.260 . S
Mg45 O44 2.072 . S
Mg45 O46 2.099 . S
Mg45 O48 2.079 . S
Mg45 O49 2.072 . S
Mg45 O51 2.099 . S
Mg45 O62 2.079 . S
O46 Mg43 2.180 . S
O46 Mg45 2.099 . S
O46 C57 1.279 . S
O47 Mg43 2.117 . S
O47 C57 1.250 . S
O48 Mg45 2.079 . S
O48 C58 1.264 . S
O49 Mg45 2.072 . S
O49 C59 1.260 . S
Mg50 O51 2.180 . S
Mg50 O52 2.030 . S
Mg50 O53 1.990 . S
Mg50 O54 2.117 . S
O51 Mg45 2.099 . S
O51 Mg50 2.180 . S
O51 C60 1.279 . S
O52 Mg50 2.030 . S
O52 C58 1.248 . S
O53 Mg50 1.990 . S
O53 C59 1.253 . S
O54 Mg50 2.117 . S
O54 C60 1.250 . S
C55 O61 1.248 . S
C55 O62 1.264 . S
C56 O42 1.253 . S
C56 O44 1.260 . S
C57 O46 1.279 . S
C57 O47 1.250 . S
C58 O48 1.264 . S
C58 O52 1.248 . S
C59 O49 1.260 . S
C59 O53 1.253 . S
C60 O51 1.279 . S
C60 O54 1.250 . S
O61 Mg43 2.030 . S
O61 C55 1.248 . S
O62 Mg45 2.079 . S
O62 C55 1.264 . S
C63 C64 1.391 . S
C63 C65 1.394 . S
C63 H79 0.931 . S
C64 C63 1.391 . S
C64 C68 1.376 1_655 S
C65 C63 1.394 . S
C65 C66 1.369 . S
C65 C69 1.531 . S
C66 C65 1.369 . S
C66 C67 1.410 1_655 S
C66 C74 1.503 1_565 S
C67 C66 1.410 1_455 S
C67 C68 1.392 . S
C67 C70 1.511 1_565 S
C68 C64 1.376 1_455 S
C68 C67 1.392 . S
C68 H80 0.929 . S
C69 C65 1.531 . S
C69 H81 0.960 . S
C69 H82 0.962 . S
C69 H83 0.960 . S
C70 C67 1.511 1_545 S
C70 H84 0.961 1_545 S
C70 H85 0.961 . S
C70 H86 0.961 . S
C71 C72 1.370 . S
C71 C73 1.363 . S
C71 H87 0.931 . S
C72 C71 1.370 . S
C72 C76 1.408 1_655 S
C73 C71 1.363 . S
C73 C74 1.370 . S
C73 C77 1.524 1_545 S
C74 C66 1.503 1_545 S
C74 C73 1.370 . S
C74 C75 1.403 1_655 S
C75 C74 1.403 1_455 S
C75 C76 1.404 . S
C75 C78 1.539 . S
C76 C72 1.408 1_455 S
C76 C75 1.404 . S
C76 H88 0.930 . S
C77 C73 1.524 1_565 S
C77 H89 0.956 . S
C77 H90 0.961 . S
C77 H91 0.961 . S
C78 C75 1.539 . S
C78 H92 0.958 . S
C78 H93 0.961 . S
C78 H94 0.960 . S
H79 C63 0.931 . S
H80 C68 0.929 . S
H81 C69 0.960 . S
H82 C69 0.962 . S
H83 C69 0.960 . S
H84 C70 0.961 1_565 S
H85 C70 0.961 . S
H86 C70 0.961 . S
H87 C71 0.931 . S
H88 C76 0.930 . S
H89 C77 0.956 . S
H90 C77 0.961 . S
H91 C77 0.961 . S
H92 C78 0.958 . S
H93 C78 0.961 . S
H94 C78 0.960 . S
C95 C96 1.391 1_565 S
C95 C97 1.394 . S
C95 H111 0.931 . S
C96 C95 1.391 1_545 S
C96 C100 1.376 . S
C97 C95 1.394 . S
C97 C98 1.369 1_565 S
C97 C101 1.531 . S
C98 C97 1.369 1_545 S
C98 C99 1.410 . S
C98 C106 1.503 . S
C99 C98 1.410 . S
C99 C100 1.392 . S
C99 C102 1.511 . S
C100 C96 1.376 . S
C100 C99 1.392 . S
C100 H112 0.929 . S
C101 C97 1.531 . S
C101 H113 0.960 1_455 S
C101 H114 0.962 . S
C101 H115 0.960 . S
C102 C99 1.511 . S
C102 H116 0.961 . S
C102 H117 0.961 . S
C102 H118 0.961 . S
C103 C104 1.370 . S
C103 C105 1.363 . S
C103 H119 0.931 . S
C104 C103 1.370 . S
C104 C108 1.408 1_545 S
C105 C103 1.363 . S
C105 C106 1.370 1_655 S
C105 C109 1.524 1_655 S
C106 C98 1.503 . S
C106 C105 1.370 1_455 S
C106 C107 1.403 1_445 S
C107 C106 1.403 1_665 S
C107 C108 1.404 . S
C107 C110 1.539 . S
C108 C104 1.408 1_565 S
C108 C107 1.404 . S
C108 H120 0.930 . S
C109 C105 1.524 1_455 S
C109 H121 0.956 . S
C109 H122 0.961 . S
C109 H123 0.961 . S
C110 C107 1.539 . S
C110 H124 0.958 . S
C110 H125 0.961 . S
C110 H126 0.960 1_655 S
H111 C95 0.931 . S
H112 C100 0.929 . S
H113 C101 0.960 1_655 S
H114 C101 0.962 . S
H115 C101 0.960 . S
H116 C102 0.961 . S
H117 C102 0.961 . S
H118 C102 0.961 . S
H119 C103 0.931 . S
H120 C108 0.930 . S
H121 C109 0.956 . S
H122 C109 0.961 . S
H123 C109 0.961 . S
H124 C110 0.958 . S
H125 C110 0.961 . S
H126 C110 0.960 1_455 S
C127 C128 1.391 . S
C127 C129 1.394 . S
C127 H143 0.931 . S
C128 C127 1.391 . S
C128 C132 1.376 . S
C129 C127 1.394 . S
C129 C130 1.369 . S
C129 C133 1.531 1_565 S
C130 C129 1.369 . S
C130 C131 1.410 . S
C130 C138 1.503 1_665 S
C131 C130 1.410 . S
C131 C132 1.392 . S
C131 C134 1.511 . S
C132 C128 1.376 . S
C132 C131 1.392 . S
C132 H144 0.929 . S
C133 C129 1.531 1_545 S
C133 H145 0.960 1_655 S
C133 H146 0.962 . S
C133 H147 0.960 1_545 S
C134 C131 1.511 . S
C134 H148 0.961 . S
C134 H149 0.961 1_565 S
C134 H150 0.961 . S
C135 C136 1.370 . S
C135 C137 1.363 . S
C135 H151 0.931 . S
C136 C135 1.370 . S
C136 C140 1.408 . S
C137 C135 1.363 . S
C137 C138 1.370 . S
C137 C141 1.524 1_455 S
C138 C130 1.503 1_445 S
C138 C137 1.370 . S
C138 C139 1.403 . S
C139 C138 1.403 . S
C139 C140 1.404 . S
C139 C142 1.539 . S
C140 C136 1.408 . S
C140 C139 1.404 . S
C140 H152 0.930 . S
C141 C137 1.524 1_655 S
C141 H153 0.956 . S
C141 H154 0.961 . S
C141 H155 0.961 . S
C142 C139 1.539 . S
C142 H156 0.958 1_545 S
C142 H157 0.961 . S
C142 H158 0.960 1_545 S
H143 C127 0.931 . S
H144 C132 0.929 . S
H145 C133 0.960 1_455 S
H146 C133 0.962 . S
H147 C133 0.960 1_565 S
H148 C134 0.961 . S
H149 C134 0.961 1_545 S
H150 C134 0.961 . S
H151 C135 0.931 . S
H152 C140 0.930 . S
H153 C141 0.956 . S
H154 C141 0.961 . S
H155 C141 0.961 . S
H156 C142 0.958 1_565 S
H157 C142 0.961 . S
H158 C142 0.960 1_565 S
C159 C160 1.391 . S
C159 C161 1.394 . S
C159 H175 0.931 . S
C160 C159 1.391 . S
C160 C164 1.376 . S
C161 C159 1.394 . S
C161 C162 1.369 . S
C161 C165 1.531 1_556 S
C162 C161 1.369 . S
C162 C163 1.410 . S
C162 C170 1.503 1_556 S
C163 C162 1.410 . S
C163 C164 1.392 . S
C163 C166 1.511 . S
C164 C160 1.376 . S
C164 C163 1.392 . S
C164 H176 0.929 . S
C165 C161 1.531 1_554 S
C165 H177 0.960 . S
C165 H178 0.962 . S
C165 H179 0.960 . S
C166 C163 1.511 . S
C166 H180 0.961 . S
C166 H181 0.961 . S
C166 H182 0.961 . S
C167 C168 1.370 . S
C167 C169 1.363 . S
C167 H183 0.931 . S
C168 C167 1.370 . S
C168 C172 1.408 . S
C169 C167 1.363 . S
C169 C170 1.370 . S
C169 C173 1.524 . S
C170 C162 1.503 1_554 S
C170 C169 1.370 . S
C170 C171 1.403 . S
C171 C170 1.403 . S
C171 C172 1.404 . S
C171 C174 1.539 . S
C172 C168 1.408 . S
C172 C171 1.404 . S
C172 H184 0.930 . S
C173 C169 1.524 . S
C173 H185 0.956 . S
C173 H186 0.961 1_554 S
C173 H187 0.961 . S
C174 C171 1.539 . S
C174 H188 0.958 . S
C174 H189 0.961 . S
C174 H190 0.960 1_554 S
H175 C159 0.931 . S
H176 C164 0.929 . S
H177 C165 0.960 . S
H178 C165 0.962 . S
H179 C165 0.960 . S
H180 C166 0.961 . S
H181 C166 0.961 . S
H182 C166 0.961 . S
H183 C167 0.931 . S
H184 C172 0.930 . S
H185 C173 0.956 . S
H186 C173 0.961 1_556 S
H187 C173 0.961 . S
H188 C174 0.958 . S
H189 C174 0.961 . S
H190 C174 0.960 1_556 S
C191 C192 1.391 . S
C191 C193 1.394 . S
C191 H207 0.931 . S
C192 C191 1.391 . S
C192 C196 1.376 . S
C193 C191 1.394 . S
C193 C194 1.369 . S
C193 C197 1.531 . S
C194 C193 1.369 . S
C194 C195 1.410 . S
C194 C202 1.503 . S
C195 C194 1.410 . S
C195 C196 1.392 . S
C195 C198 1.511 . S
C196 C192 1.376 . S
C196 C195 1.392 . S
C196 H208 0.929 . S
C197 C193 1.531 . S
C197 H209 0.960 . S
C197 H210 0.962 . S
C197 H211 0.960 . S
C198 C195 1.511 . S
C198 H212 0.961 . S
C198 H213 0.961 . S
C198 H214 0.961 . S
C199 C200 1.370 . S
C199 C201 1.363 . S
C199 H215 0.931 . S
C200 C199 1.370 . S
C200 C204 1.408 . S
C201 C199 1.363 . S
C201 C202 1.370 . S
C201 C205 1.524 . S
C202 C194 1.503 . S
C202 C201 1.370 . S
C202 C203 1.403 . S
C203 C202 1.403 . S
C203 C204 1.404 . S
C203 C206 1.539 . S
C204 C200 1.408 . S
C204 C203 1.404 . S
C204 H216 0.930 . S
C205 C201 1.524 . S
C205 H217 0.956 . S
C205 H218 0.961 . S
C205 H219 0.961 . S
C206 C203 1.539 . S
C206 H220 0.958 . S
C206 H221 0.961 . S
C206 H222 0.960 . S
H207 C191 0.931 . S
H208 C196 0.929 . S
H209 C197 0.960 . S
H210 C197 0.962 . S
H211 C197 0.960 . S
H212 C198 0.961 . S
H213 C198 0.961 . S
H214 C198 0.961 . S
H215 C199 0.931 . S
H216 C204 0.930 . S
H217 C205 0.956 . S
H218 C205 0.961 . S
H219 C205 0.961 . S
H220 C206 0.958 . S
H221 C206 0.961 . S
H222 C206 0.960 . S
C223 C224 1.391 . S
C223 C225 1.394 . S
C223 H239 0.931 . S
C224 C223 1.391 . S
C224 C228 1.376 . S
C225 C223 1.394 . S
C225 C226 1.369 . S
C225 C229 1.531 . S
C226 C225 1.369 . S
C226 C227 1.410 . S
C226 C234 1.503 . S
C227 C226 1.410 . S
C227 C228 1.392 . S
C227 C230 1.511 . S
C228 C224 1.376 . S
C228 C227 1.392 . S
C228 H240 0.929 . S
C229 C225 1.531 . S
C229 H241 0.960 . S
C229 H242 0.962 . S
C229 H243 0.960 . S
C230 C227 1.511 . S
C230 H244 0.961 . S
C230 H245 0.961 . S
C230 H246 0.961 . S
C231 C232 1.370 . S
C231 C233 1.363 . S
C231 H247 0.931 . S
C232 C231 1.370 . S
C232 C236 1.408 . S
C233 C231 1.363 . S
C233 C234 1.370 . S
C233 C237 1.524 . S
C234 C226 1.503 . S
C234 C233 1.370 . S
C234 C235 1.403 . S
C235 C234 1.403 . S
C235 C236 1.404 . S
C235 C238 1.539 . S
C236 C232 1.408 . S
C236 C235 1.404 . S
C236 H248 0.930 . S
C237 C233 1.524 . S
C237 H249 0.956 . S
C237 H250 0.961 . S
C237 H251 0.961 . S
C238 C235 1.539 . S
C238 H252 0.958 . S
C238 H253 0.961 . S
C238 H254 0.960 . S
H239 C223 0.931 . S
H240 C228 0.929 . S
H241 C229 0.960 . S
H242 C229 0.962 . S
H243 C229 0.960 . S
H244 C230 0.961 . S
H245 C230 0.961 . S
H246 C230 0.961 . S
H247 C231 0.931 . S
H248 C236 0.930 . S
H249 C237 0.956 . S
H250 C237 0.961 . S
H251 C237 0.961 . S
H252 C238 0.958 . S
H253 C238 0.961 . S
H254 C238 0.960 . S
C255 C256 1.391 . S
C255 C257 1.394 . S
C255 H271 0.931 . S
C256 C255 1.391 . S
C256 C260 1.376 . S
C257 C255 1.394 . S
C257 C258 1.369 . S
C257 C261 1.531 . S
C258 C257 1.369 . S
C258 C259 1.410 . S
C258 C266 1.503 1_556 S
C259 C258 1.410 . S
C259 C260 1.392 . S
C259 C262 1.511 1_556 S
C260 C256 1.376 . S
C260 C259 1.392 . S
C260 H272 0.929 . S
C261 C257 1.531 . S
C261 H273 0.960 . S
C261 H274 0.962 . S
C261 H275 0.960 . S
C262 C259 1.511 1_554 S
C262 H276 0.961 . S
C262 H277 0.961 . S
C262 H278 0.961 . S
C263 C264 1.370 . S
C263 C265 1.363 . S
C263 H279 0.931 . S
C264 C263 1.370 . S
C264 C268 1.408 . S
C265 C263 1.363 . S
C265 C266 1.370 . S
C265 C269 1.524 1_554 S
C266 C258 1.503 1_554 S
C266 C265 1.370 . S
C266 C267 1.403 . S
C267 C266 1.403 . S
C267 C268 1.404 . S
C267 C270 1.539 . S
C268 C264 1.408 . S
C268 C267 1.404 . S
C268 H280 0.930 . S
C269 C265 1.524 1_556 S
C269 H281 0.956 . S
C269 H282 0.961 . S
C269 H283 0.961 . S
C270 C267 1.539 . S
C270 H284 0.958 . S
C270 H285 0.961 . S
C270 H286 0.960 . S
H271 C255 0.931 . S
H272 C260 0.929 . S
H273 C261 0.960 . S
H274 C261 0.962 . S
H275 C261 0.960 . S
H276 C262 0.961 . S
H277 C262 0.961 . S
H278 C262 0.961 . S
H279 C263 0.931 . S
H280 C268 0.930 . S
H281 C269 0.956 . S
H282 C269 0.961 . S
H283 C269 0.961 . S
H284 C270 0.958 . S
H285 C270 0.961 . S
H286 C270 0.960 . S
C287 C288 1.391 . S
C287 C289 1.394 . S
C287 H303 0.931 . S
C288 C287 1.391 . S
C288 C292 1.376 . S
C289 C287 1.394 . S
C289 C290 1.369 . S
C289 C293 1.531 . S
C290 C289 1.369 . S
C290 C291 1.410 . S
C290 C298 1.503 . S
C291 C290 1.410 . S
C291 C292 1.392 . S
C291 C294 1.511 . S
C292 C288 1.376 . S
C292 C291 1.392 . S
C292 H304 0.929 . S
C293 C289 1.531 . S
C293 H305 0.960 . S
C293 H306 0.962 . S
C293 H307 0.960 . S
C294 C291 1.511 . S
C294 H308 0.961 . S
C294 H309 0.961 . S
C294 H310 0.961 . S
C295 C296 1.370 . S
C295 C297 1.363 . S
C295 H311 0.931 . S
C296 C295 1.370 . S
C296 C300 1.408 . S
C297 C295 1.363 . S
C297 C298 1.370 . S
C297 C301 1.524 . S
C298 C290 1.503 . S
C298 C297 1.370 . S
C298 C299 1.403 . S
C299 C298 1.403 . S
C299 C300 1.404 . S
C299 C302 1.539 . S
C300 C296 1.408 . S
C300 C299 1.404 . S
C300 H312 0.930 . S
C301 C297 1.524 . S
C301 H313 0.956 . S
C301 H314 0.961 . S
C301 H315 0.961 . S
C302 C299 1.539 . S
C302 H316 0.958 . S
C302 H317 0.961 . S
C302 H318 0.960 . S
H303 C287 0.931 . S
H304 C292 0.929 . S
H305 C293 0.960 . S
H306 C293 0.962 . S
H307 C293 0.960 . S
H308 C294 0.961 . S
H309 C294 0.961 . S
H310 C294 0.961 . S
H311 C295 0.931 . S
H312 C300 0.930 . S
H313 C301 0.956 . S
H314 C301 0.961 . S
H315 C301 0.961 . S
H316 C302 0.958 . S
H317 C302 0.961 . S
H318 C302 0.960 . S
C319 C320 1.391 . S
C319 C321 1.394 . S
C319 H335 0.931 . S
C320 C319 1.391 . S
C320 C324 1.376 . S
C321 C319 1.394 . S
C321 C322 1.369 . S
C321 C325 1.531 . S
C322 C321 1.369 . S
C322 C323 1.410 . S
C322 C330 1.503 . S
C323 C322 1.410 . S
C323 C324 1.392 . S
C323 C326 1.511 . S
C324 C320 1.376 . S
C324 C323 1.392 . S
C324 H336 0.929 . S
C325 C321 1.531 . S
C325 H337 0.960 . S
C325 H338 0.962 . S
C325 H339 0.960 . S
C326 C323 1.511 . S
C326 H340 0.961 . S
C326 H341 0.961 . S
C326 H342 0.961 . S
C327 C328 1.370 . S
C327 C329 1.363 . S
C327 H343 0.931 . S
C328 C327 1.370 . S
C328 C332 1.408 . S
C329 C327 1.363 . S
C329 C330 1.370 . S
C329 C333 1.524 . S
C330 C322 1.503 . S
C330 C329 1.370 . S
C330 C331 1.403 . S
C331 C330 1.403 . S
C331 C332 1.404 . S
C331 C334 1.539 . S
C332 C328 1.408 . S
C332 C331 1.404 . S
C332 H344 0.930 . S
C333 C329 1.524 . S
C333 H345 0.956 . S
C333 H346 0.961 . S
C333 H347 0.961 . S
C334 C331 1.539 . S
C334 H348 0.958 . S
C334 H349 0.961 . S
C334 H350 0.960 . S
H335 C319 0.931 . S
H336 C324 0.929 . S
H337 C325 0.960 . S
H338 C325 0.962 . S
H339 C325 0.960 . S
H340 C326 0.961 . S
H341 C326 0.961 . S
H342 C326 0.961 . S
H343 C327 0.931 . S
H344 C332 0.930 . S
H345 C333 0.956 . S
H346 C333 0.961 . S
H347 C333 0.961 . S
H348 C334 0.958 . S
H349 C334 0.961 . S
H350 C334 0.960 . S
C64 C18 1.133 . S
C72 C15 1.224 . S
C96 C36 1.252 . S
C104 C39 1.174 . S
C128 C57 1.206 . S
C136 C60 1.212 . S
C160 C56 1.145 . S
C168 C13 1.092 . S
C192 C35 1.405 . S
C200 C17 1.451 . S
C224 C59 1.114 . S
C232 C37 1.064 . S
C256 C55 1.029 . S
C264 C14 1.151 . S
C288 C16 0.779 . S
C296 C34 0.815 . S
C320 C58 1.138 . S
C328 C38 1.131 . S
