# Generated by pormake.
# Topology cab, (5)-cn, num edge types: 1
# Building blocks:
#     Node 0, Type 0, BuildingBlock: XOMCOT_clean_sbu_1, # of connection points: 5
#     Node 1, Type 0, BuildingBlock: XOMCOT_clean_sbu_1, # of connection points: 5
#     Node 2, Type 0, BuildingBlock: XOMCOT_clean_sbu_1, # of connection points: 5
#     Node 3, Type 0, BuildingBlock: XOMCOT_clean_sbu_1, # of connection points: 5
#     Node 4, Type 0, BuildingBlock: XOMCOT_clean_sbu_1, # of connection points: 5
#     Node 5, Type 0, BuildingBlock: XOMCOT_clean_sbu_1, # of connection points: 5
#     Edge 6, Type (0, 0), BuildingBlock: FUNLAD_clean_linker_0, # of connection points: 2
#     Edge 7, Type (0, 0), BuildingBlock: FUNLAD_clean_linker_0, # of connection points: 2
#     Edge 8, Type (0, 0), BuildingBlock: FUNLAD_clean_linker_0, # of connection points: 2
#     Edge 9, Type (0, 0), BuildingBlock: FUNLAD_clean_linker_0, # of connection points: 2
#     Edge 10, Type (0, 0), BuildingBlock: FUNLAD_clean_linker_0, # of connection points: 2
#     Edge 11, Type (0, 0), BuildingBlock: FUNLAD_clean_linker_0, # of connection points: 2
#     Edge 12, Type (0, 0), BuildingBlock: FUNLAD_clean_linker_0, # of connection points: 2
#     Edge 13, Type (0, 0), BuildingBlock: FUNLAD_clean_linker_0, # of connection points: 2
#     Edge 14, Type (0, 0), BuildingBlock: FUNLAD_clean_linker_0, # of connection points: 2
#     Edge 15, Type (0, 0), BuildingBlock: FUNLAD_clean_linker_0, # of connection points: 2
#     Edge 16, Type (0, 0), BuildingBlock: FUNLAD_clean_linker_0, # of connection points: 2
#     Edge 17, Type (0, 0), BuildingBlock: FUNLAD_clean_linker_0, # of connection points: 2
#     Edge 18, Type (0, 0), BuildingBlock: FUNLAD_clean_linker_0, # of connection points: 2
#     Edge 19, Type (0, 0), BuildingBlock: FUNLAD_clean_linker_0, # of connection points: 2
#     Edge 20, Type (0, 0), BuildingBlock: FUNLAD_clean_linker_0, # of connection points: 2
# Relax obj value: 0.858
# Max RMSD: 0.207
# Mean RMSD: 0.205
data_MOF--net-cab--node1-XOMCOT_clean_sbu_1--edge1-FUNLAD_clean_linker_0
_symmetry_space_group_name_H-M    P1
_symmetry_Int_Tables_number       1
_symmetry_cell_setting            triclinic
loop_
_symmetry_equiv_pos_as_xyz
'x, y, z'
_cell_length_a     40.856601
_cell_length_b     41.077649
_cell_length_c     40.964652
_cell_angle_alpha  79.972396
_cell_angle_beta   69.800912
_cell_angle_gamma 80.168634
loop_
_atom_site_label
_atom_site_type_symbol
_atom_site_fract_x
_atom_site_fract_y
_atom_site_fract_z
_atom_type_partial_charge
C0 C 0.9622 0.9765 0.46693 0.0
C1 C 0.9774 0.94395 0.46494 0.0
N2 N -0.00129 0.94147 0.43175 0.0
N3 N 0.9739 0.99427 0.43515 0.0
C4 C 0.99601 0.97231 0.41429 0.0
H5 H 0.94316 0.98643 0.48979 0.0
Co6 Co 0.95905 0.03817 0.42242 0.0
C7 C 0.02359 0.06694 0.37629 0.0
O8 O 0.0122 0.094 0.39195 0.0
N9 N 0.94269 0.08263 0.4087 0.0
C10 C 0.91579 0.13435 0.40348 0.0
C11 C 0.92083 0.10691 0.42664 0.0
C12 C 0.94904 0.09563 0.37471 0.0
N13 N 0.93383 0.1272 0.37075 0.0
O14 O 0.94267 0.02485 0.38946 0.0
H15 H 0.90832 0.10519 0.45459 0.0
H16 H 0.96449 0.08186 0.35307 0.0
O17 O 0.00497 0.0427 0.38578 0.0
C18 C 0.91061 0.02043 0.39821 0.0
O19 O 0.89077 0.02123 0.43111 0.0
N20 N 0.97471 0.0508 0.45611 0.0
C21 C 0.99665 0.07808 0.50123 0.0
C22 C 0.02098 0.05981 0.47554 0.0
C23 C 0.00928 0.04532 0.454 0.0
C24 C 0.95034 0.06357 0.48455 0.0
C25 C 0.96074 0.07824 0.50714 0.0
H26 H 0.0283 0.03065 0.43485 0.0
H27 H 0.92274 0.06303 0.48929 0.0
H28 H 0.0085 0.97845 0.38638 0.0
H29 H 0.97267 0.92362 0.48606 0.0
H30 H 0.90029 0.1578 0.41035 0.0
H31 H 0.04885 0.05722 0.47178 0.0
H32 H 0.94106 0.09056 0.52806 0.0
C33 C 0.12933 0.05007 0.75382 0.0
C34 C 0.09361 0.05191 0.77026 0.0
N35 N 0.08505 0.07002 0.79714 0.0
N36 N 0.14323 0.06706 0.77009 0.0
C37 C 0.1157 0.0788 0.79647 0.0
H38 H 0.14435 0.03696 0.73157 0.0
Co39 Co 0.19065 0.07084 0.7572 0.0
C40 C 0.19426 0.13337 0.78247 0.0
O41 O 0.21976 0.14121 0.75344 0.0
N42 N 0.23908 0.07322 0.74421 0.0
C43 C 0.29694 0.07167 0.71757 0.0
C44 C 0.26522 0.07008 0.71337 0.0
C45 C 0.25578 0.07576 0.76676 0.0
N46 N 0.29067 0.07562 0.75115 0.0
O47 O 0.19332 0.03938 0.7963 0.0
H48 H 0.26202 0.06641 0.68928 0.0
H49 H 0.24252 0.07754 0.7944 0.0
O50 O 0.18055 0.10658 0.78652 0.0
C51 C 0.1986 0.00881 0.79193 0.0
O52 O 0.20406 0.00099 0.76054 0.0
N53 N 0.18655 0.10046 0.71801 0.0
C54 C 0.16584 0.13192 0.66092 0.0
C55 C 0.15736 0.1476 0.69105 0.0
C56 C 0.16695 0.13103 0.71968 0.0
C57 C 0.19605 0.08539 0.68846 0.0
C58 C 0.18639 0.10079 0.65948 0.0
H59 H 0.15557 0.14175 0.74388 0.0
H60 H 0.20834 0.0599 0.68855 0.0
H61 H 0.11803 0.09359 0.81475 0.0
H62 H 0.07554 0.04014 0.7634 0.0
H63 H 0.3225 0.07041 0.69751 0.0
H64 H 0.14114 0.17141 0.69357 0.0
H65 H 0.19237 0.087 0.63746 0.0
C66 C 0.37875 0.04485 0.14118 0.0
C67 C 0.34983 0.04517 0.17105 0.0
N68 N 0.3228 0.03641 0.16401 0.0
N69 N 0.37008 0.03572 0.11552 0.0
C70 C 0.33595 0.03092 0.13007 0.0
H71 H 0.40423 0.05153 0.13809 0.0
Co72 Co 0.39816 0.03394 0.06937 0.0
C73 C 0.37983 0.97653 0.04766 0.0
O74 O 0.41308 0.96878 0.02988 0.0
N75 N 0.42635 0.03333 0.02172 0.0
C76 C 0.46776 0.03064 0.96932 0.0
C77 C 0.46131 0.02688 0.00502 0.0
C78 C 0.41248 0.04107 0.99539 0.0
N79 N 0.4369 0.03983 0.96349 0.0
O80 O 0.36688 0.06933 0.05601 0.0
H81 H 0.48135 0.0198 0.01728 0.0
H82 H 0.38459 0.04672 -0.00044 0.0
O83 O 0.37062 0.00182 0.0645 0.0
C84 C 0.37339 0.09899 0.05361 0.0
O85 O 0.40226 0.10379 0.0585 0.0
N86 N 0.42867 0.00034 0.08489 0.0
C87 C 0.47128 0.96015 0.12004 0.0
C88 C 0.43987 0.94999 0.12128 0.0
C89 C 0.41871 0.97061 0.10369 0.0
C90 C 0.45856 0.01095 0.08463 0.0
C91 C 0.48082 0.99083 0.10108 0.0
H92 H 0.39321 0.96366 0.1076 0.0
H93 H 0.46433 0.0359 0.07288 0.0
H94 H 0.32097 0.02406 0.11571 0.0
H95 H 0.34869 0.05238 0.19562 0.0
H96 H 0.49315 0.02736 0.94926 0.0
H97 H 0.43104 0.92708 0.13696 0.0
H98 H 0.5041 0.00018 0.10099 0.0
C99 C 0.09498 0.37093 0.07633 0.0
C100 C 0.12514 0.35156 0.07919 0.0
N101 N 0.12667 0.32191 0.06854 0.0
N102 N 0.07785 0.35365 0.06362 0.0
C103 C 0.09758 0.32384 0.05946 0.0
H104 H 0.08616 0.39605 0.0829 0.0
Co105 Co 0.03623 0.36851 0.05409 0.0
C106 C 0.04259 0.33679 0.99231 0.0
O107 O 0.02843 0.36446 0.97848 0.0
N108 N 0.99293 0.38337 0.04529 0.0
C109 C 0.94772 0.40972 0.02827 0.0
C110 C 0.98158 0.41128 0.02715 0.0
C111 C 0.96531 0.36546 0.05691 0.0
N112 N 0.93764 0.38098 0.04743 0.0
O113 O 0.01416 0.33664 0.09118 0.0
H114 H 0.99679 0.43136 0.01301 0.0
H115 H 0.96548 0.34076 0.07126 0.0
O116 O 0.04729 0.33575 0.02172 0.0
C117 C 0.00041 0.34543 0.12173 0.0
O118 O 0.00169 0.37605 0.12618 0.0
N119 N 0.05959 0.40058 0.01949 0.0
C120 C 0.10546 0.44823 0.98617 0.0
C121 C 0.11223 0.41678 0.97475 0.0
C122 C 0.08906 0.39312 0.99197 0.0
C123 C 0.05216 0.43139 0.03014 0.0
C124 C 0.07429 0.45582 0.01337 0.0
H125 H 0.09692 0.36801 0.98537 0.0
H126 H 0.0302 0.43621 0.05346 0.0
H127 H 0.09102 0.30404 0.04946 0.0
H128 H 0.14421 0.35868 0.08869 0.0
H129 H 0.93179 0.4282 0.01611 0.0
H130 H 0.13643 0.40978 0.95437 0.0
H131 H 0.06863 0.4794 0.02381 0.0
C132 C 0.71017 0.13952 0.11787 0.0
C133 C 0.71313 0.1731 0.11154 0.0
N134 N 0.74729 0.17696 0.09619 0.0
N135 N 0.74245 0.12207 0.10674 0.0
C136 C 0.76437 0.1459 0.09392 0.0
H137 H 0.68567 0.12916 0.1301 0.0
Co138 Co 0.75742 0.07572 0.1063 0.0
C139 C 0.80196 0.08475 0.03702 0.0
O140 O 0.77484 0.07922 0.0294 0.0
N141 N 0.77235 0.03072 0.10474 0.0
C142 C 0.77541 0.97804 0.097 0.0
C143 C 0.75792 0.00954 0.09359 0.0
C144 C 0.79869 0.01184 0.11441 0.0
N145 N 0.801 0.97957 0.11025 0.0
O146 O 0.78214 0.07687 0.13879 0.0
H147 H 0.73581 0.01655 0.08399 0.0
H148 H 0.81614 0.0216 0.12395 0.0
O149 O 0.7991 0.08487 0.06888 0.0
C150 C 0.77554 0.09311 0.16466 0.0
O151 O 0.74652 0.11377 0.17373 0.0
N152 N 0.71648 0.06439 0.14248 0.0
C153 C 0.65769 0.0343 0.18608 0.0
C154 C 0.65793 0.05236 0.15366 0.0
C155 C 0.68796 0.06644 0.1319 0.0
C156 C 0.71665 0.04682 0.17407 0.0
C157 C 0.68734 0.03188 0.19642 0.0
H158 H 0.68916 0.07795 0.10572 0.0
H159 H 0.74022 0.04171 0.18121 0.0
H160 H 0.79266 0.14071 0.0837 0.0
H161 H 0.69178 0.19309 0.11733 0.0
H162 H 0.76928 0.9557 0.09084 0.0
H163 H 0.63602 0.05363 0.14414 0.0
H164 H 0.6885 0.01716 0.22074 0.0
C165 C 0.09624 0.73725 0.06871 0.0
C166 C 0.10129 0.7541 0.03552 0.0
N167 N 0.11493 0.78233 0.03354 0.0
N168 N 0.10678 0.75474 0.08742 0.0
C169 C 0.11764 0.78219 0.06547 0.0
H170 H 0.08615 0.71349 0.07844 0.0
Co171 Co 0.10691 0.74221 0.13309 0.0
C172 C 0.16589 0.77258 0.13692 0.0
O173 O 0.1763 0.74503 0.15413 0.0
N174 N 0.10619 0.7297 0.18031 0.0
C175 C 0.11513 0.70629 0.23058 0.0
C176 C 0.12209 0.70283 0.19586 0.0
C177 C 0.08966 0.7488 0.20647 0.0
N178 N 0.09445 0.73512 0.23704 0.0
O179 O 0.06907 0.77617 0.14715 0.0
H180 H 0.13899 0.68245 0.18293 0.0
H181 H 0.07538 0.77316 0.20322 0.0
O182 O 0.13935 0.77395 0.12687 0.0
C183 C 0.03815 0.76906 0.15391 0.0
O184 O 0.03378 0.73826 0.15317 0.0
N185 N 0.14279 0.70814 0.11683 0.0
C186 C 0.18025 0.65807 0.07572 0.0
C187 C 0.19302 0.68883 0.07007 0.0
C188 C 0.17374 0.71372 0.09079 0.0
C189 C 0.13089 0.67786 0.12361 0.0
C190 C 0.14956 0.65224 0.10386 0.0
H191 H 0.18186 0.73834 0.08311 0.0
H192 H 0.10525 0.67447 0.14259 0.0
H193 H 0.12723 0.80184 0.07276 0.0
H194 H 0.09615 0.74576 0.01431 0.0
H195 H 0.12468 0.68917 0.24949 0.0
H196 H 0.21623 0.69446 0.04815 0.0
H197 H 0.1382 0.62921 0.10847 0.0
C198 C 0.98292 0.28852 0.14734 0.0
C199 C 0.98406 0.32137 0.15196 0.0
C200 C 0.96924 0.26532 0.17621 0.0
C201 C 0.95664 0.27447 0.21035 0.0
C202 C 0.95643 0.30764 0.21474 0.0
C203 C 0.97012 0.33083 0.18589 0.0
C204 C 0.94439 0.2501 0.24203 0.0
C205 C 0.95646 0.21743 0.24303 0.0
C206 C 0.94864 0.19375 0.2758 0.0
C207 C 0.973 0.16563 0.27798 0.0
C208 C 0.96792 0.14367 0.30889 0.0
C209 C 0.93804 0.14908 0.33833 0.0
H210 H 0.89817 0.2195 0.30376 0.0
C211 C 0.91299 0.17664 0.33579 0.0
C212 C 0.91816 0.19873 0.30482 0.0
H213 H 0.88934 0.18114 0.35769 0.0
H214 H 0.99296 0.28059 0.12145 0.0
H215 H 0.96867 0.24031 0.1716 0.0
H216 H 0.94655 0.31546 0.24069 0.0
H217 H 0.9703 0.35603 0.19032 0.0
H218 H 0.92779 0.26003 0.26605 0.0
H219 H 0.97567 0.20811 0.21976 0.0
H220 H 0.99663 0.1611 0.25599 0.0
H221 H 0.98801 0.123 0.30991 0.0
C222 C 0.78555 0.09476 0.2212 0.0
C223 C 0.79744 0.08426 0.18777 0.0
C224 C 0.80464 0.08384 0.24432 0.0
C225 C 0.83603 0.06211 0.23448 0.0
C226 C 0.84869 0.05283 0.20054 0.0
C227 C 0.82952 0.06364 0.17745 0.0
C228 C 0.85655 0.04952 0.25868 0.0
C229 C 0.8414 0.04488 0.29377 0.0
C230 C 0.86107 0.03441 0.31911 0.0
C231 C 0.84213 0.02489 0.35438 0.0
C232 C 0.85862 0.01853 0.37995 0.0
C233 C 0.89448 0.02159 0.37076 0.0
H234 H 0.91302 0.04393 0.28313 0.0
C235 C 0.91387 0.02957 0.33528 0.0
C236 C 0.89736 0.03612 0.30974 0.0
H237 H 0.94153 0.03237 0.32734 0.0
H238 H 0.76111 0.11089 0.22985 0.0
H239 H 0.79478 0.09262 0.26978 0.0
H240 H 0.87311 0.03661 0.19209 0.0
H241 H 0.83971 0.05552 0.15167 0.0
H242 H 0.88456 0.04277 0.24693 0.0
H243 H 0.81294 0.04889 0.30473 0.0
H244 H 0.81418 0.02335 0.36241 0.0
H245 H 0.84295 0.01241 0.40706 0.0
C246 C 0.00361 0.88109 0.42927 0.0
C247 C 0.01728 0.91171 0.41672 0.0
C248 C 0.01946 0.85309 0.41202 0.0
C249 C 0.04943 0.8552 0.38198 0.0
C250 C 0.06436 0.8852 0.37086 0.0
C251 C 0.04828 0.91328 0.38785 0.0
C252 C 0.06434 0.8274 0.36036 0.0
C253 C 0.0438 0.80761 0.35544 0.0
C254 C 0.05671 0.78568 0.32734 0.0
C255 C 0.0343 0.78296 0.30886 0.0
C256 C 0.04654 0.7656 0.27974 0.0
C257 C 0.08114 0.74985 0.26912 0.0
H258 H 0.10868 0.77 0.33177 0.0
C259 C 0.10305 0.75082 0.28875 0.0
C260 C 0.09104 0.76887 0.31754 0.0
H261 H 0.12985 0.73883 0.2809 0.0
H262 H 0.97979 0.87912 0.45148 0.0
H263 H 0.00784 0.83005 0.42182 0.0
H264 H 0.08764 0.88737 0.34799 0.0
H265 H 0.05973 0.93641 0.37802 0.0
H266 H 0.09186 0.82637 0.34427 0.0
H267 H 0.01562 0.81113 0.36875 0.0
H268 H 0.0077 0.7955 0.31605 0.0
H269 H 0.02917 0.76487 0.26508 0.0
C270 C 0.27894 0.03349 0.22369 0.0
C271 C 0.28707 0.03484 0.18722 0.0
C272 C 0.24425 0.03324 0.24601 0.0
C273 C 0.21681 0.03423 0.23241 0.0
C274 C 0.22491 0.03435 0.19625 0.0
C275 C 0.25954 0.03495 0.17385 0.0
C276 C 0.17957 0.03537 0.25528 0.0
C277 C 0.16723 0.05172 0.28369 0.0
C278 C 0.12976 0.05538 0.30585 0.0
C279 C 0.11674 0.08335 0.32388 0.0
C280 C 0.08202 0.08742 0.34595 0.0
C281 C 0.0596 0.06325 0.351 0.0
H282 H 0.11672 0.00901 0.29757 0.0
C283 C 0.07253 0.03517 0.33294 0.0
C284 C 0.1073 0.03128 0.31047 0.0
H285 H 0.05596 0.01601 0.33646 0.0
H286 H 0.29931 0.03248 0.23519 0.0
H287 H 0.23903 0.03203 0.27394 0.0
H288 H 0.20424 0.03491 0.18516 0.0
H289 H 0.26438 0.03621 0.14604 0.0
H290 H 0.16152 0.02494 0.2469 0.0
H291 H 0.18486 0.06499 0.28974 0.0
H292 H 0.13353 0.10219 0.32091 0.0
H293 H 0.07303 0.10928 0.35957 0.0
C294 C 0.1519 0.82667 7e-05 0.0
C295 C 0.12568 0.80694 0.00343 0.0
C296 C 0.16242 0.85051 0.97093 0.0
C297 C 0.14681 0.85529 0.94449 0.0
C298 C 0.12101 0.83526 0.94759 0.0
C299 C 0.11045 0.81143 0.97677 0.0
C300 C 0.15738 0.88015 0.91291 0.0
C301 C 0.17192 0.90753 0.91202 0.0
C302 C 0.18094 0.93281 0.88063 0.0
C303 C 0.18029 0.96605 0.88511 0.0
C304 C 0.18691 0.99074 0.85623 0.0
C305 C 0.19472 0.98253 0.82223 0.0
H306 H 0.19227 0.89887 0.84185 0.0
C307 C 0.19693 0.94903 0.81761 0.0
C308 C 0.19019 0.92441 0.84647 0.0
H309 H 0.20328 0.9418 0.79173 0.0
H310 H 0.16486 0.82332 0.01963 0.0
H311 H 0.18327 0.86456 0.96899 0.0
H312 H 0.10871 0.83825 0.9275 0.0
H313 H 0.09007 0.79683 0.9786 0.0
H314 H 0.15103 0.87661 0.89021 0.0
H315 H 0.17513 0.91297 0.93567 0.0
H316 H 0.17371 0.97311 0.91111 0.0
H317 H 0.18521 0.01631 0.86065 0.0
C318 C 0.4504 0.029 0.90238 0.0
C319 C 0.43047 0.04693 0.93047 0.0
C320 C 0.44155 0.03389 0.87162 0.0
C321 C 0.4131 0.05721 0.86819 0.0
C322 C 0.39393 0.07583 0.89604 0.0
C323 C 0.40263 0.07079 0.92668 0.0
C324 C 0.40129 0.05895 0.83739 0.0
C325 C 0.38195 0.08597 0.82682 0.0
C326 C 0.36102 0.08498 0.80391 0.0
C327 C 0.32862 0.10509 0.81002 0.0
C328 C 0.30588 0.10234 0.79222 0.0
C329 C 0.3154 0.07992 0.76737 0.0
H330 H 0.39646 0.04817 0.77202 0.0
C331 C 0.34865 0.06113 0.75963 0.0
C332 C 0.37127 0.06344 0.77795 0.0
H333 H 0.35653 0.04383 0.74038 0.0
H334 H 0.47183 0.01026 0.90479 0.0
H335 H 0.45643 0.0189 0.85078 0.0
H336 H 0.3711 0.09324 0.89515 0.0
H337 H 0.38704 0.08517 0.94781 0.0
H338 H 0.40619 0.03632 0.82526 0.0
H339 H 0.3776 0.10862 0.83876 0.0
H340 H 0.32021 0.12205 0.82968 0.0
H341 H 0.28062 0.11752 0.79811 0.0
C342 C 0.15097 0.14985 0.83923 0.0
C343 C 0.17828 0.15767 0.80802 0.0
C344 C 0.13413 0.17378 0.86201 0.0
C345 C 0.14442 0.20601 0.85407 0.0
C346 C 0.17208 0.21356 0.82319 0.0
C347 C 0.18898 0.18964 0.80052 0.0
C348 C 0.12581 0.23297 0.87608 0.0
C349 C 0.10716 0.2276 0.91039 0.0
C350 C 0.08907 0.25535 0.93142 0.0
C351 C 0.08576 0.25143 0.96708 0.0
C352 C 0.07013 0.27768 0.98711 0.0
C353 C 0.05703 0.30824 0.97191 0.0
H354 H 0.07585 0.289 0.88941 0.0
C355 C 0.05903 0.31166 0.93657 0.0
C356 C 0.07487 0.28552 0.91652 0.0
H357 H 0.0489 0.33474 0.92414 0.0
H358 H 0.14212 0.12543 0.84581 0.0
H359 H 0.11241 0.16717 0.88512 0.0
H360 H 0.18046 0.23821 0.81636 0.0
H361 H 0.2099 0.19653 0.7767 0.0
H362 H 0.12881 0.2584 0.86365 0.0
H363 H 0.10682 0.20245 0.92405 0.0
H364 H 0.09604 0.22827 0.97929 0.0
H365 H 0.0686 0.27409 0.01439 0.0
C366 C 0.84072 0.08512 0.97438 0.0
C367 C 0.83628 0.08825 0.0093 0.0
C368 C 0.87381 0.08595 0.94871 0.0
C369 C 0.90317 0.09018 0.95743 0.0
C370 C 0.89849 0.09388 0.99224 0.0
C371 C 0.86544 0.09308 0.01786 0.0
C372 C 0.93938 0.08849 0.93181 0.0
C373 C 0.94664 0.09398 0.89674 0.0
C374 C 0.98281 0.08936 0.87129 0.0
C375 C 0.98688 0.08348 0.83728 0.0
C376 C 0.02031 0.07751 0.81291 0.0
C377 C 0.05056 0.07749 0.82189 0.0
H378 H 0.01124 0.09599 0.90543 0.0
C379 C 0.04651 0.08444 0.85559 0.0
C380 C 0.01306 0.09043 0.87998 0.0
H381 H 0.06915 0.08465 0.86347 0.0
H382 H 0.81883 0.08116 0.96697 0.0
H383 H 0.87627 0.08204 0.9225 0.0
H384 H 0.92061 0.09699 -0.00022 0.0
H385 H 0.86295 0.09559 0.04453 0.0
H386 H 0.9607 0.08174 0.94269 0.0
H387 H 0.9253 0.10078 0.8859 0.0
H388 H 0.9641 0.08294 0.82967 0.0
H389 H 0.02238 0.07298 0.787 0.0
C390 C 0.31438 0.12251 0.04838 0.0
C391 C 0.34749 0.1276 0.04851 0.0
C392 C 0.2889 0.14956 0.04648 0.0
C393 C 0.29603 0.18228 0.04475 0.0
C394 C 0.32962 0.18736 0.04333 0.0
C395 C 0.35503 0.16033 0.04539 0.0
C396 C 0.26923 0.2117 0.04454 0.0
C397 C 0.23442 0.21016 0.0594 0.0
C398 C 0.2074 0.23968 0.06115 0.0
C399 C 0.17279 0.23466 0.06613 0.0
C400 C 0.14637 0.26153 0.0686 0.0
C401 C 0.15387 0.29413 0.06649 0.0
H402 H 0.24089 0.27724 0.05677 0.0
C403 C 0.18841 0.29917 0.06202 0.0
C404 C 0.21488 0.27228 0.05945 0.0
H405 H 0.19511 0.32394 0.06016 0.0
H406 H 0.30788 0.09759 0.05039 0.0
H407 H 0.26379 0.14463 0.0463 0.0
H408 H 0.33597 0.21231 0.04155 0.0
H409 H 0.38038 0.16513 0.04514 0.0
H410 H 0.27887 0.2355 0.03297 0.0
H411 H 0.22493 0.18629 0.07103 0.0
H412 H 0.16614 0.20981 0.06801 0.0
H413 H 0.11996 0.25665 0.07264 0.0
C414 C 0.31901 0.95976 0.0736 0.0
C415 C 0.35427 0.95307 0.05278 0.0
C416 C 0.29583 0.93594 0.0815 0.0
C417 C 0.30746 0.90497 0.06852 0.0
C418 C 0.34239 0.89875 0.04689 0.0
C419 C 0.36551 0.92257 0.03892 0.0
C420 C 0.28499 0.8776 0.07916 0.0
C421 C 0.24964 0.88228 0.09111 0.0
C422 C 0.22828 0.85404 0.10337 0.0
C423 C 0.19505 0.85793 0.09935 0.0
C424 C 0.17461 0.83155 0.11041 0.0
C425 C 0.18684 0.80091 0.12624 0.0
H426 H 0.26516 0.82015 0.12451 0.0
C427 C 0.21967 0.79738 0.13118 0.0
C428 C 0.24019 0.82364 0.11988 0.0
H429 H 0.22975 0.77421 0.14353 0.0
H430 H 0.30949 0.98301 0.08468 0.0
H431 H 0.26935 0.94146 0.0989 0.0
H432 H 0.35207 0.87508 0.03663 0.0
H433 H 0.39247 0.91659 0.02276 0.0
H434 H 0.29832 0.85246 0.07646 0.0
H435 H 0.2358 0.9073 0.09069 0.0
H436 H 0.18511 0.88126 0.08714 0.0
H437 H 0.14926 0.83518 0.10654 0.0
C438 C 0.74814 0.2356 0.10234 0.0
C439 C 0.76278 0.20763 0.08439 0.0
C440 C 0.76473 0.26458 0.09217 0.0
C441 C 0.79618 0.26609 0.06371 0.0
C442 C 0.8097 0.23874 0.04473 0.0
C443 C 0.79335 0.20972 0.05511 0.0
C444 C 0.81674 0.29481 0.05418 0.0
C445 C 0.81802 0.31263 0.07827 0.0
C446 C 0.84572 0.33454 0.07073 0.0
C447 C 0.86035 0.33507 0.09693 0.0
C448 C 0.88982 0.35138 0.0895 0.0
C449 C 0.90474 0.36815 0.05596 0.0
H450 H 0.84818 0.35353 0.01713 0.0
C451 C 0.88868 0.36975 0.03038 0.0
C452 C 0.85946 0.35285 0.03762 0.0
H453 H 0.89977 0.38263 0.00438 0.0
H454 H 0.7245 0.2347 0.12489 0.0
H455 H 0.75308 0.28555 0.10682 0.0
H456 H 0.8337 0.23935 0.02252 0.0
H457 H 0.80478 0.1888 0.04033 0.0
H458 H 0.83519 0.29809 0.02771 0.0
H459 H 0.80218 0.30704 0.10552 0.0
H460 H 0.85009 0.3214 0.1227 0.0
H461 H 0.90159 0.35023 0.10972 0.0
C462 C 0.97448 0.78798 0.16305 0.0
C463 C 0.00816 0.79564 0.15835 0.0
C464 C 0.94692 0.81334 0.16317 0.0
C465 C 0.95257 0.84694 0.15837 0.0
C466 C 0.98568 0.85449 0.15577 0.0
C467 C 0.01329 0.82912 0.15559 0.0
C468 C 0.92487 0.87462 0.15506 0.0
C469 C 0.89992 0.87168 0.14151 0.0
C470 C 0.87409 0.8998 0.13452 0.0
C471 C 0.85855 0.89788 0.10934 0.0
C472 C 0.8346 0.92394 0.10142 0.0
C473 C 0.82542 0.95249 0.1187 0.0
H474 H 0.87482 0.93009 0.17281 0.0
C475 C 0.84044 0.95416 0.14444 0.0
C476 C 0.86442 0.92809 0.15237 0.0
H477 H 0.8333 0.97541 0.15889 0.0
H478 H 0.96952 0.76241 0.16577 0.0
H479 H 0.92138 0.80649 0.16668 0.0
H480 H 0.99059 0.88015 0.15257 0.0
H481 H 0.03887 0.83583 0.15224 0.0
H482 H 0.92722 0.89873 0.1609 0.0
H483 H 0.89993 0.84827 0.13259 0.0
H484 H 0.86536 0.87631 0.09533 0.0
H485 H 0.82373 0.92191 0.08132 0.0
C486 C 0.16512 0.1395 0.59895 0.0
C487 C 0.14819 0.1446 0.63422 0.0
C488 C 0.14594 0.14405 0.5758 0.0
C489 C 0.10954 0.15369 0.58748 0.0
C490 C 0.09341 0.16241 0.6216 0.0
C491 C 0.11246 0.15762 0.64482 0.0
C492 C 0.08892 0.15069 0.56484 0.0
C493 C 0.05577 0.14259 0.57823 0.0
C494 C 0.03813 0.12983 0.55767 0.0
C495 C 0.0105 0.11049 0.5758 0.0
C496 C 0.99607 0.09437 0.55758 0.0
C497 C 0.00918 0.09726 0.5209 0.0
H498 H 0.06957 0.15027 0.50569 0.0
C499 C 0.03537 0.11807 0.50266 0.0
C500 C 0.04949 0.13447 0.5208 0.0
H501 H 0.04517 0.12138 0.47425 0.0
H502 H 0.19279 0.13027 0.58972 0.0
H503 H 0.15918 0.13783 0.54937 0.0
H504 H 0.06572 0.1714 0.63108 0.0
H505 H 0.09841 0.16192 0.67172 0.0
H506 H 0.10338 0.14993 0.53721 0.0
H507 H 0.0426 0.14082 0.60636 0.0
H508 H 0.00094 0.10675 0.6042 0.0
H509 H 0.9757 0.07863 0.57218 0.0
C510 C 0.59372 0.02845 0.21219 0.0
C511 C 0.6287 0.01421 0.20606 0.0
C512 C 0.5668 0.00817 0.22317 0.0
C513 C 0.57456 0.97336 0.22738 0.0
C514 C 0.60909 0.9593 0.22482 0.0
C515 C 0.636 0.97965 0.21428 0.0
C516 C 0.5477 0.95319 0.22751 0.0
C517 C 0.55646 0.92918 0.2063 0.0
C518 C 0.5335 0.9261 0.18612 0.0
C519 C 0.49667 0.9299 0.2008 0.0
C520 C 0.47587 0.93768 0.179 0.0
C521 C 0.4917 0.94189 0.14241 0.0
H522 H 0.57722 0.92302 0.13781 0.0
C523 C 0.52818 0.93437 0.12796 0.0
C524 C 0.5489 0.92608 0.14973 0.0
H525 H 0.54083 0.9373 0.09979 0.0
H526 H 0.58747 0.05507 0.20638 0.0
H527 H 0.54034 0.01963 0.22521 0.0
H528 H 0.61569 0.93255 0.22867 0.0
H529 H 0.66281 0.96808 0.20983 0.0
H530 H 0.52062 0.96467 0.23616 0.0
H531 H 0.58395 0.91946 0.19553 0.0
H532 H 0.48411 0.92936 0.22886 0.0
H533 H 0.44771 0.94336 0.19067 0.0
C534 C 0.19734 0.60018 0.05924 0.0
C535 C 0.19429 0.63468 0.04899 0.0
C536 C 0.20129 0.57814 0.03538 0.0
C537 C 0.20219 0.59026 0.00072 0.0
C538 C 0.20218 0.62459 0.98982 0.0
C539 C 0.19845 0.64661 0.01365 0.0
C540 C 0.19584 0.56904 0.9781 0.0
C541 C 0.20033 0.53556 0.98346 0.0
C542 C 0.18007 0.51444 0.97343 0.0
C543 C 0.19007 0.47991 0.97574 0.0
C544 C 0.1669 0.45826 0.97634 0.0
C545 C 0.13311 0.47078 0.97496 0.0
H546 H 0.13834 0.55336 0.96722 0.0
C547 C 0.1243 0.50535 0.96936 0.0
C548 C 0.14751 0.52703 0.96857 0.0
H549 H 0.09845 0.51562 0.96808 0.0
H550 H 0.19428 0.59037 0.08631 0.0
H551 H 0.20056 0.55199 0.04522 0.0
H552 H 0.20258 0.63465 0.96343 0.0
H553 H 0.1958 0.67311 0.00505 0.0
H554 H 0.18313 0.58155 0.95922 0.0
H555 H 0.21617 0.52307 -0.00046 0.0
H556 H 0.21485 0.46951 0.97968 0.0
H557 H 0.17433 0.4317 0.98101 0.0
loop_
_geom_bond_atom_site_label_1
_geom_bond_atom_site_label_2
_geom_bond_distance
_geom_bond_site_symmetry_2
_ccdc_geom_bond_type
C0 C1 1.351 . S
C0 N3 1.368 1_655 S
C0 H5 0.931 . S
C1 C0 1.351 . S
C1 N2 1.373 1_655 S
C1 H29 0.930 . S
N2 C1 1.373 1_455 S
N2 C4 1.340 . S
N3 C0 1.368 1_455 S
N3 C4 1.321 . S
N3 Co6 2.135 1_565 S
C4 N2 1.340 . S
C4 N3 1.321 . S
C4 H28 0.930 . S
H5 C0 0.931 . S
Co6 N3 2.135 1_545 S
Co6 N9 2.121 . S
Co6 O14 2.055 1_455 S
Co6 O17 2.039 . S
Co6 N20 2.140 . S
C7 O8 1.227 . S
C7 O17 1.265 . S
O8 C7 1.227 . S
N9 Co6 2.121 . S
N9 C11 1.375 . S
N9 C12 1.313 1_455 S
C10 C11 1.338 . S
C10 N13 1.377 1_455 S
C10 H30 0.930 . S
C11 N9 1.375 . S
C11 C10 1.338 . S
C11 H15 0.931 . S
C12 N9 1.313 1_655 S
C12 N13 1.344 . S
C12 H16 0.930 . S
N13 C10 1.377 1_655 S
N13 C12 1.344 . S
O14 Co6 2.055 1_655 S
O14 C18 1.253 . S
H15 C11 0.931 . S
H16 C12 0.930 . S
O17 Co6 2.039 . S
O17 C7 1.265 . S
C18 O14 1.253 . S
C18 O19 1.227 . S
O19 C18 1.227 . S
N20 Co6 2.140 . S
N20 C23 1.327 1_545 S
N20 C24 1.345 1_455 S
C21 C22 1.371 1_545 S
C21 C25 1.391 1_455 S
C22 C21 1.371 1_565 S
C22 C23 1.367 . S
C22 H31 0.942 . S
C23 N20 1.327 1_565 S
C23 C22 1.367 . S
C23 H26 0.956 . S
C24 N20 1.345 1_655 S
C24 C25 1.371 . S
C24 H27 0.931 . S
C25 C21 1.391 1_655 S
C25 C24 1.371 . S
C25 H32 0.930 . S
H26 C23 0.956 . S
H27 C24 0.931 . S
H28 C4 0.930 . S
H29 C1 0.930 . S
H30 C10 0.930 . S
H31 C22 0.942 . S
H32 C25 0.930 . S
C33 C34 1.351 . S
C33 N36 1.368 . S
C33 H38 0.931 . S
C34 C33 1.351 . S
C34 N35 1.373 . S
C34 H62 0.930 . S
N35 C34 1.373 . S
N35 C37 1.340 . S
N36 C33 1.368 . S
N36 C37 1.321 . S
N36 Co39 2.135 . S
C37 N35 1.340 . S
C37 N36 1.321 . S
C37 H61 0.930 . S
H38 C33 0.931 . S
Co39 N36 2.135 . S
Co39 N42 2.121 . S
Co39 O47 2.055 . S
Co39 O50 2.039 . S
Co39 N53 2.140 . S
C40 O41 1.227 . S
C40 O50 1.265 . S
O41 C40 1.227 . S
N42 Co39 2.121 . S
N42 C44 1.375 . S
N42 C45 1.313 . S
C43 C44 1.338 . S
C43 N46 1.377 . S
C43 H63 0.930 . S
C44 N42 1.375 . S
C44 C43 1.338 . S
C44 H48 0.931 . S
C45 N42 1.313 . S
C45 N46 1.344 . S
C45 H49 0.930 . S
N46 C43 1.377 . S
N46 C45 1.344 . S
O47 Co39 2.055 . S
O47 C51 1.253 . S
H48 C44 0.931 . S
H49 C45 0.930 . S
O50 Co39 2.039 . S
O50 C40 1.265 . S
C51 O47 1.253 . S
C51 O52 1.227 . S
O52 C51 1.227 . S
N53 Co39 2.140 . S
N53 C56 1.346 . S
N53 C57 1.345 . S
C54 C55 1.387 . S
C54 C58 1.391 . S
C55 C54 1.387 . S
C55 C56 1.369 . S
C55 H64 0.929 . S
C56 N53 1.346 . S
C56 C55 1.369 . S
C56 H59 0.928 . S
C57 N53 1.345 . S
C57 C58 1.371 . S
C57 H60 0.931 . S
C58 C54 1.391 . S
C58 C57 1.371 . S
C58 H65 0.930 . S
H59 C56 0.928 . S
H60 C57 0.931 . S
H61 C37 0.930 . S
H62 C34 0.930 . S
H63 C43 0.930 . S
H64 C55 0.929 . S
H65 C58 0.930 . S
C66 C67 1.351 . S
C66 N69 1.368 . S
C66 H71 0.931 . S
C67 C66 1.351 . S
C67 N68 1.373 . S
C67 H95 0.930 . S
N68 C67 1.373 . S
N68 C70 1.340 . S
N69 C66 1.368 . S
N69 C70 1.321 . S
N69 Co72 2.135 . S
C70 N68 1.340 . S
C70 N69 1.321 . S
C70 H94 0.930 1_545 S
H71 C66 0.931 . S
Co72 N69 2.135 . S
Co72 N75 2.121 1_554 S
Co72 O80 2.055 . S
Co72 O83 2.039 1_545 S
Co72 N86 2.140 . S
C73 O74 1.227 . S
C73 O83 1.265 . S
O74 C73 1.227 . S
N75 Co72 2.121 1_556 S
N75 C77 1.375 1_545 S
N75 C78 1.313 . S
C76 C77 1.338 1_545 S
C76 N79 1.377 . S
C76 H96 0.930 1_545 S
C77 N75 1.375 1_565 S
C77 C76 1.338 1_565 S
C77 H81 0.931 . S
C78 N75 1.313 . S
C78 N79 1.344 . S
C78 H82 0.930 . S
N79 C76 1.377 . S
N79 C78 1.344 . S
O80 Co72 2.055 . S
O80 C84 1.253 1_554 S
H81 C77 0.931 . S
H82 C78 0.930 . S
O83 Co72 2.039 1_565 S
O83 C73 1.265 . S
C84 O80 1.253 1_556 S
C84 O85 1.227 . S
O85 C84 1.227 . S
N86 Co72 2.140 . S
N86 C89 1.346 . S
N86 C90 1.345 1_554 S
C87 C88 1.387 . S
C87 C91 1.391 1_554 S
C88 C87 1.387 . S
C88 C89 1.369 . S
C88 H97 0.935 . S
C89 N86 1.346 . S
C89 C88 1.369 . S
C89 H92 0.940 . S
C90 N86 1.345 1_556 S
C90 C91 1.371 . S
C90 H93 0.931 . S
C91 C87 1.391 1_556 S
C91 C90 1.371 . S
C91 H98 0.930 . S
H92 C89 0.940 . S
H93 C90 0.931 . S
H94 C70 0.930 1_565 S
H95 C67 0.930 . S
H96 C76 0.930 1_565 S
H97 C88 0.935 . S
H98 C91 0.930 . S
C99 C100 1.351 . S
C99 N102 1.368 . S
C99 H104 0.931 . S
C100 C99 1.351 . S
C100 N101 1.373 . S
C100 H128 0.930 . S
N101 C100 1.373 . S
N101 C103 1.340 . S
N102 C99 1.368 . S
N102 C103 1.321 . S
N102 Co105 2.135 . S
C103 N101 1.340 . S
C103 N102 1.321 . S
C103 H127 0.930 1_554 S
H104 C99 0.931 . S
Co105 N102 2.135 . S
Co105 N108 2.121 1_455 S
Co105 O113 2.055 . S
Co105 O116 2.029 1_554 S
Co105 N119 2.140 . S
C106 O107 1.227 . S
C106 O116 1.273 . S
O107 C106 1.227 . S
N108 Co105 2.121 1_655 S
N108 C110 1.375 . S
N108 C111 1.313 . S
C109 C110 1.338 . S
C109 N112 1.377 . S
C109 H129 0.930 . S
C110 N108 1.375 . S
C110 C109 1.338 . S
C110 H114 0.931 1_554 S
C111 N108 1.313 . S
C111 N112 1.344 . S
C111 H115 0.930 . S
N112 C109 1.377 . S
N112 C111 1.344 . S
O113 Co105 2.055 . S
O113 C117 1.253 . S
H114 C110 0.931 1_556 S
H115 C111 0.930 . S
O116 Co105 2.029 1_556 S
O116 C106 1.273 . S
C117 O113 1.253 . S
C117 O118 1.227 . S
O118 C117 1.227 . S
N119 Co105 2.140 . S
N119 C122 1.346 . S
N119 C123 1.345 . S
C120 C121 1.387 . S
C120 C124 1.391 . S
C121 C120 1.387 . S
C121 C122 1.369 . S
C121 H130 0.929 . S
C122 N119 1.346 . S
C122 C121 1.369 . S
C122 H125 0.928 . S
C123 N119 1.345 . S
C123 C124 1.371 . S
C123 H126 0.931 1_455 S
C124 C120 1.391 . S
C124 C123 1.371 . S
C124 H131 0.930 1_455 S
H125 C122 0.928 . S
H126 C123 0.931 1_655 S
H127 C103 0.930 1_556 S
H128 C100 0.930 . S
H129 C109 0.930 . S
H130 C121 0.929 . S
H131 C124 0.930 1_655 S
C132 C133 1.351 . S
C132 N135 1.368 . S
C132 H137 0.931 . S
C133 C132 1.351 . S
C133 N134 1.373 . S
C133 H161 0.930 . S
N134 C133 1.373 . S
N134 C136 1.340 . S
N135 C132 1.368 . S
N135 C136 1.321 . S
N135 Co138 2.135 . S
C136 N134 1.340 . S
C136 N135 1.321 . S
C136 H160 0.930 . S
H137 C132 0.931 . S
Co138 N135 2.135 . S
Co138 N141 2.121 . S
Co138 O146 2.055 . S
Co138 O149 2.039 . S
Co138 N152 2.140 . S
C139 O140 1.227 . S
C139 O149 1.265 . S
O140 C139 1.227 . S
N141 Co138 2.121 . S
N141 C143 1.375 . S
N141 C144 1.313 . S
C142 C143 1.338 1_565 S
C142 N145 1.377 . S
C142 H162 0.930 . S
C143 N141 1.375 . S
C143 C142 1.338 1_545 S
C143 H147 0.931 . S
C144 N141 1.313 . S
C144 N145 1.344 1_545 S
C144 H148 0.930 . S
N145 C142 1.377 . S
N145 C144 1.344 1_565 S
O146 Co138 2.055 . S
O146 C150 1.253 . S
H147 C143 0.931 . S
H148 C144 0.930 . S
O149 Co138 2.039 . S
O149 C139 1.265 . S
C150 O146 1.253 . S
C150 O151 1.227 . S
O151 C150 1.227 . S
N152 Co138 2.140 . S
N152 C155 1.346 . S
N152 C156 1.345 . S
C153 C154 1.387 . S
C153 C157 1.391 . S
C154 C153 1.387 . S
C154 C155 1.369 . S
C154 H163 0.929 . S
C155 N152 1.346 . S
C155 C154 1.369 . S
C155 H158 0.928 . S
C156 N152 1.345 . S
C156 C157 1.371 . S
C156 H159 0.931 . S
C157 C153 1.391 . S
C157 C156 1.371 . S
C157 H164 0.930 . S
H158 C155 0.928 . S
H159 C156 0.931 . S
H160 C136 0.930 . S
H161 C133 0.930 . S
H162 C142 0.930 . S
H163 C154 0.929 . S
H164 C157 0.930 . S
C165 C166 1.351 . S
C165 N168 1.368 . S
C165 H170 0.931 . S
C166 C165 1.351 . S
C166 N167 1.373 . S
C166 H194 0.930 . S
N167 C166 1.373 . S
N167 C169 1.340 . S
N168 C165 1.368 . S
N168 C169 1.321 . S
N168 Co171 2.135 . S
C169 N167 1.340 . S
C169 N168 1.321 . S
C169 H193 0.930 . S
H170 C165 0.931 . S
Co171 N168 2.135 . S
Co171 N174 2.121 . S
Co171 O179 2.055 . S
Co171 O182 2.039 . S
Co171 N185 2.140 . S
C172 O173 1.227 . S
C172 O182 1.265 . S
O173 C172 1.227 . S
N174 Co171 2.121 . S
N174 C176 1.375 . S
N174 C177 1.313 . S
C175 C176 1.338 . S
C175 N178 1.377 . S
C175 H195 0.930 . S
C176 N174 1.375 . S
C176 C175 1.338 . S
C176 H180 0.931 . S
C177 N174 1.313 . S
C177 N178 1.344 . S
C177 H181 0.930 . S
N178 C175 1.377 . S
N178 C177 1.344 . S
O179 Co171 2.055 . S
O179 C183 1.253 . S
H180 C176 0.931 . S
H181 C177 0.930 . S
O182 Co171 2.039 . S
O182 C172 1.265 . S
C183 O179 1.253 . S
C183 O184 1.227 . S
O184 C183 1.227 . S
N185 Co171 2.140 . S
N185 C188 1.346 . S
N185 C189 1.345 . S
C186 C187 1.387 . S
C186 C190 1.391 . S
C187 C186 1.387 . S
C187 C188 1.369 . S
C187 H196 0.929 . S
C188 N185 1.346 . S
C188 C187 1.369 . S
C188 H191 0.928 . S
C189 N185 1.345 . S
C189 C190 1.371 . S
C189 H192 0.931 . S
C190 C186 1.391 . S
C190 C189 1.371 . S
C190 H197 0.930 . S
H191 C188 0.928 . S
H192 C189 0.931 . S
H193 C169 0.930 . S
H194 C166 0.930 . S
H195 C175 0.930 . S
H196 C187 0.929 . S
H197 C190 0.930 . S
C198 C199 1.386 . S
C198 C200 1.383 . S
C198 H214 0.951 . S
C199 C198 1.386 . S
C199 C203 1.383 1_455 S
C200 C198 1.383 . S
C200 C201 1.402 1_455 S
C200 H215 0.951 . S
C201 C200 1.402 1_655 S
C201 C202 1.375 . S
C201 C204 1.481 . S
C202 C201 1.375 . S
C202 C203 1.367 . S
C202 H216 0.951 . S
C203 C199 1.383 1_655 S
C203 C202 1.367 . S
C203 H217 0.950 . S
C204 C201 1.481 . S
C204 C205 1.297 1_655 S
C204 H218 0.950 . S
C205 C204 1.297 1_455 S
C205 C206 1.479 . S
C205 H219 0.950 . S
C206 C205 1.479 . S
C206 C207 1.375 . S
C206 C212 1.404 1_455 S
C207 C206 1.375 . S
C207 C208 1.369 . S
C207 H220 0.950 . S
C208 C207 1.369 . S
C208 C209 1.392 1_455 S
C208 H221 0.951 . S
C209 C208 1.392 1_655 S
C209 C211 1.384 . S
H210 C212 0.949 . S
C211 C209 1.384 . S
C211 C212 1.385 . S
C211 H213 0.950 . S
C212 C206 1.404 1_655 S
C212 H210 0.949 . S
C212 C211 1.385 . S
H213 C211 0.950 . S
H214 C198 0.951 . S
H215 C200 0.951 . S
H216 C202 0.951 . S
H217 C203 0.950 . S
H218 C204 0.950 . S
H219 C205 0.950 . S
H220 C207 0.950 . S
H221 C208 0.951 . S
C222 C223 1.386 . S
C222 C224 1.383 . S
C222 H238 0.951 . S
C223 C222 1.386 . S
C223 C227 1.383 . S
C224 C222 1.383 . S
C224 C225 1.402 . S
C224 H239 0.951 . S
C225 C224 1.402 . S
C225 C226 1.375 . S
C225 C228 1.481 . S
C226 C225 1.375 . S
C226 C227 1.367 . S
C226 H240 0.951 . S
C227 C223 1.383 . S
C227 C226 1.367 . S
C227 H241 0.950 . S
C228 C225 1.481 . S
C228 C229 1.297 . S
C228 H242 0.950 . S
C229 C228 1.297 . S
C229 C230 1.479 . S
C229 H243 0.950 . S
C230 C229 1.479 . S
C230 C231 1.375 . S
C230 C236 1.404 . S
C231 C230 1.375 . S
C231 C232 1.369 . S
C231 H244 0.950 . S
C232 C231 1.369 . S
C232 C233 1.392 . S
C232 H245 0.951 . S
C233 C232 1.392 . S
C233 C235 1.384 . S
H234 C236 0.949 . S
C235 C233 1.384 . S
C235 C236 1.385 . S
C235 H237 0.950 . S
C236 C230 1.404 . S
C236 H234 0.949 . S
C236 C235 1.385 . S
H237 C235 0.950 . S
H238 C222 0.951 . S
H239 C224 0.951 . S
H240 C226 0.951 . S
H241 C227 0.950 . S
H242 C228 0.950 . S
H243 C229 0.950 . S
H244 C231 0.950 . S
H245 C232 0.951 . S
C246 C247 1.386 . S
C246 C248 1.383 . S
C246 H262 0.951 1_455 S
C247 C246 1.386 . S
C247 C251 1.383 . S
C248 C246 1.383 . S
C248 C249 1.402 . S
C248 H263 0.951 . S
C249 C248 1.402 . S
C249 C250 1.375 . S
C249 C252 1.481 . S
C250 C249 1.375 . S
C250 C251 1.367 . S
C250 H264 0.951 . S
C251 C247 1.383 . S
C251 C250 1.367 . S
C251 H265 0.950 . S
C252 C249 1.481 . S
C252 C253 1.297 . S
C252 H266 0.950 . S
C253 C252 1.297 . S
C253 C254 1.479 . S
C253 H267 0.950 . S
C254 C253 1.479 . S
C254 C255 1.375 . S
C254 C260 1.404 . S
C255 C254 1.375 . S
C255 C256 1.369 . S
C255 H268 0.950 . S
C256 C255 1.369 . S
C256 C257 1.392 . S
C256 H269 0.951 . S
C257 C256 1.392 . S
C257 C259 1.384 . S
H258 C260 0.949 . S
C259 C257 1.384 . S
C259 C260 1.385 . S
C259 H261 0.950 . S
C260 C254 1.404 . S
C260 H258 0.949 . S
C260 C259 1.385 . S
H261 C259 0.950 . S
H262 C246 0.951 1_655 S
H263 C248 0.951 . S
H264 C250 0.951 . S
H265 C251 0.950 . S
H266 C252 0.950 . S
H267 C253 0.950 . S
H268 C255 0.950 . S
H269 C256 0.951 . S
C270 C271 1.386 . S
C270 C272 1.383 . S
C270 H286 0.951 . S
C271 C270 1.386 . S
C271 C275 1.383 . S
C272 C270 1.383 . S
C272 C273 1.402 . S
C272 H287 0.951 . S
C273 C272 1.402 . S
C273 C274 1.375 . S
C273 C276 1.481 . S
C274 C273 1.375 . S
C274 C275 1.367 . S
C274 H288 0.951 . S
C275 C271 1.383 . S
C275 C274 1.367 . S
C275 H289 0.950 . S
C276 C273 1.481 . S
C276 C277 1.297 . S
C276 H290 0.950 . S
C277 C276 1.297 . S
C277 C278 1.479 . S
C277 H291 0.950 . S
C278 C277 1.479 . S
C278 C279 1.375 . S
C278 C284 1.404 . S
C279 C278 1.375 . S
C279 C280 1.369 . S
C279 H292 0.950 . S
C280 C279 1.369 . S
C280 C281 1.392 . S
C280 H293 0.951 . S
C281 C280 1.392 . S
C281 C283 1.384 . S
H282 C284 0.949 . S
C283 C281 1.384 . S
C283 C284 1.385 . S
C283 H285 0.950 . S
C284 C278 1.404 . S
C284 H282 0.949 . S
C284 C283 1.385 . S
H285 C283 0.950 . S
H286 C270 0.951 . S
H287 C272 0.951 . S
H288 C274 0.951 . S
H289 C275 0.950 . S
H290 C276 0.950 . S
H291 C277 0.950 . S
H292 C279 0.950 . S
H293 C280 0.951 . S
C294 C295 1.389 1_556 S
C294 C296 1.383 . S
C294 H310 0.951 1_556 S
C295 C294 1.389 1_554 S
C295 C299 1.360 1_554 S
C296 C294 1.383 . S
C296 C297 1.402 . S
C296 H311 0.951 . S
C297 C296 1.402 . S
C297 C298 1.375 . S
C297 C300 1.481 . S
C298 C297 1.375 . S
C298 C299 1.367 . S
C298 H312 0.951 . S
C299 C295 1.360 1_556 S
C299 C298 1.367 . S
C299 H313 0.950 . S
C300 C297 1.481 . S
C300 C301 1.297 . S
C300 H314 0.950 . S
C301 C300 1.297 . S
C301 C302 1.479 . S
C301 H315 0.950 . S
C302 C301 1.479 . S
C302 C303 1.375 . S
C302 C308 1.404 . S
C303 C302 1.375 . S
C303 C304 1.369 . S
C303 H316 0.950 . S
C304 C303 1.369 . S
C304 C305 1.392 . S
C304 H317 0.951 . S
C305 C304 1.392 . S
C305 C307 1.384 . S
H306 C308 0.949 . S
C307 C305 1.384 . S
C307 C308 1.385 . S
C307 H309 0.950 . S
C308 C302 1.404 . S
C308 H306 0.949 . S
C308 C307 1.385 . S
H309 C307 0.950 . S
H310 C294 0.951 1_554 S
H311 C296 0.951 . S
H312 C298 0.951 . S
H313 C299 0.950 . S
H314 C300 0.950 . S
H315 C301 0.950 . S
H316 C303 0.950 . S
H317 C304 0.951 . S
C318 C319 1.386 . S
C318 C320 1.383 . S
C318 H334 0.951 . S
C319 C318 1.386 . S
C319 C323 1.383 . S
C320 C318 1.383 . S
C320 C321 1.402 . S
C320 H335 0.951 . S
C321 C320 1.402 . S
C321 C322 1.375 . S
C321 C324 1.481 . S
C322 C321 1.375 . S
C322 C323 1.367 . S
C322 H336 0.951 . S
C323 C319 1.383 . S
C323 C322 1.367 . S
C323 H337 0.950 . S
C324 C321 1.481 . S
C324 C325 1.297 . S
C324 H338 0.950 . S
C325 C324 1.297 . S
C325 C326 1.479 . S
C325 H339 0.950 . S
C326 C325 1.479 . S
C326 C327 1.375 . S
C326 C332 1.404 . S
C327 C326 1.375 . S
C327 C328 1.369 . S
C327 H340 0.950 . S
C328 C327 1.369 . S
C328 C329 1.392 . S
C328 H341 0.951 . S
C329 C328 1.392 . S
C329 C331 1.384 . S
H330 C332 0.949 . S
C331 C329 1.384 . S
C331 C332 1.385 . S
C331 H333 0.950 . S
C332 C326 1.404 . S
C332 H330 0.949 . S
C332 C331 1.385 . S
H333 C331 0.950 . S
H334 C318 0.951 . S
H335 C320 0.951 . S
H336 C322 0.951 . S
H337 C323 0.950 . S
H338 C324 0.950 . S
H339 C325 0.950 . S
H340 C327 0.950 . S
H341 C328 0.951 . S
C342 C343 1.386 . S
C342 C344 1.383 . S
C342 H358 0.951 . S
C343 C342 1.386 . S
C343 C347 1.383 . S
C344 C342 1.383 . S
C344 C345 1.402 . S
C344 H359 0.951 . S
C345 C344 1.402 . S
C345 C346 1.375 . S
C345 C348 1.481 . S
C346 C345 1.375 . S
C346 C347 1.367 . S
C346 H360 0.951 . S
C347 C343 1.383 . S
C347 C346 1.367 . S
C347 H361 0.950 . S
C348 C345 1.481 . S
C348 C349 1.297 . S
C348 H362 0.950 . S
C349 C348 1.297 . S
C349 C350 1.479 . S
C349 H363 0.950 . S
C350 C349 1.479 . S
C350 C351 1.375 . S
C350 C356 1.404 . S
C351 C350 1.375 . S
C351 C352 1.369 . S
C351 H364 0.950 . S
C352 C351 1.369 . S
C352 C353 1.392 . S
C352 H365 0.951 . S
C353 C352 1.392 . S
C353 C355 1.384 . S
H354 C356 0.949 . S
C355 C353 1.384 . S
C355 C356 1.385 . S
C355 H357 0.950 . S
C356 C350 1.404 . S
C356 H354 0.949 . S
C356 C355 1.385 . S
H357 C355 0.950 . S
H358 C342 0.951 . S
H359 C344 0.951 . S
H360 C346 0.951 . S
H361 C347 0.950 . S
H362 C348 0.950 . S
H363 C349 0.950 . S
H364 C351 0.950 . S
H365 C352 0.951 . S
C366 C367 1.386 . S
C366 C368 1.383 . S
C366 H382 0.951 . S
C367 C366 1.386 . S
C367 C371 1.383 . S
C368 C366 1.383 . S
C368 C369 1.402 1_554 S
C368 H383 0.951 1_554 S
C369 C368 1.402 1_556 S
C369 C370 1.375 1_556 S
C369 C372 1.481 . S
C370 C369 1.375 1_554 S
C370 C371 1.367 . S
C370 H384 0.951 . S
C371 C367 1.383 . S
C371 C370 1.367 . S
C371 H385 0.950 . S
C372 C369 1.481 . S
C372 C373 1.297 . S
C372 H386 0.950 . S
C373 C372 1.297 . S
C373 C374 1.479 . S
C373 H387 0.950 . S
C374 C373 1.479 . S
C374 C375 1.375 . S
C374 C380 1.404 . S
C375 C374 1.375 . S
C375 C376 1.369 . S
C375 H388 0.950 . S
C376 C375 1.369 . S
C376 C377 1.392 1_655 S
C376 H389 0.951 . S
C377 C376 1.392 1_455 S
C377 C379 1.384 . S
H378 C380 0.949 . S
C379 C377 1.384 . S
C379 C380 1.385 1_455 S
C379 H381 0.950 . S
C380 C374 1.404 . S
C380 H378 0.949 . S
C380 C379 1.385 1_655 S
H381 C379 0.950 . S
H382 C366 0.951 . S
H383 C368 0.951 1_556 S
H384 C370 0.951 . S
H385 C371 0.950 . S
H386 C372 0.950 . S
H387 C373 0.950 . S
H388 C375 0.950 . S
H389 C376 0.951 . S
C390 C391 1.386 1_554 S
C390 C392 1.383 . S
C390 H406 0.951 . S
C391 C390 1.386 1_556 S
C391 C395 1.383 . S
C392 C390 1.383 . S
C392 C393 1.402 . S
C392 H407 0.951 . S
C393 C392 1.402 . S
C393 C394 1.375 1_554 S
C393 C396 1.481 . S
C394 C393 1.375 1_556 S
C394 C395 1.367 . S
C394 H408 0.951 . S
C395 C391 1.383 . S
C395 C394 1.367 . S
C395 H409 0.950 . S
C396 C393 1.481 . S
C396 C397 1.297 . S
C396 H410 0.950 1_554 S
C397 C396 1.297 . S
C397 C398 1.479 . S
C397 H411 0.950 . S
C398 C397 1.479 . S
C398 C399 1.375 . S
C398 C404 1.404 . S
C399 C398 1.375 . S
C399 C400 1.369 . S
C399 H412 0.950 . S
C400 C399 1.369 . S
C400 C401 1.392 . S
C400 H413 0.951 . S
C401 C400 1.392 . S
C401 C403 1.384 1_554 S
H402 C404 0.949 1_556 S
C403 C401 1.384 1_556 S
C403 C404 1.385 1_556 S
C403 H405 0.950 . S
C404 C398 1.404 . S
C404 H402 0.949 1_554 S
C404 C403 1.385 1_554 S
H405 C403 0.950 . S
H406 C390 0.951 . S
H407 C392 0.951 . S
H408 C394 0.951 . S
H409 C395 0.950 . S
H410 C396 0.950 1_556 S
H411 C397 0.950 . S
H412 C399 0.950 . S
H413 C400 0.951 . S
C414 C415 1.386 . S
C414 C416 1.383 . S
C414 H430 0.951 . S
C415 C414 1.386 . S
C415 C419 1.382 . S
C416 C414 1.383 . S
C416 C417 1.402 . S
C416 H431 0.951 . S
C417 C416 1.402 . S
C417 C418 1.375 . S
C417 C420 1.481 . S
C418 C417 1.375 . S
C418 C419 1.367 . S
C418 H432 0.951 1_554 S
C419 C415 1.382 . S
C419 C418 1.367 . S
C419 H433 0.950 1_554 S
C420 C417 1.481 . S
C420 C421 1.297 . S
C420 H434 0.950 . S
C421 C420 1.297 . S
C421 C422 1.479 . S
C421 H435 0.950 . S
C422 C421 1.479 . S
C422 C423 1.375 . S
C422 C428 1.404 . S
C423 C422 1.375 . S
C423 C424 1.369 . S
C423 H436 0.950 . S
C424 C423 1.369 . S
C424 C425 1.392 . S
C424 H437 0.951 . S
C425 C424 1.392 . S
C425 C427 1.384 . S
H426 C428 0.949 . S
C427 C425 1.384 . S
C427 C428 1.385 . S
C427 H429 0.950 . S
C428 C422 1.404 . S
C428 H426 0.949 . S
C428 C427 1.385 . S
H429 C427 0.950 . S
H430 C414 0.951 . S
H431 C416 0.951 . S
H432 C418 0.951 1_556 S
H433 C419 0.950 1_556 S
H434 C420 0.950 . S
H435 C421 0.950 . S
H436 C423 0.950 . S
H437 C424 0.951 . S
C438 C439 1.386 . S
C438 C440 1.383 . S
C438 H454 0.951 . S
C439 C438 1.386 . S
C439 C443 1.383 . S
C440 C438 1.383 . S
C440 C441 1.402 . S
C440 H455 0.951 . S
C441 C440 1.402 . S
C441 C442 1.375 . S
C441 C444 1.481 . S
C442 C441 1.375 . S
C442 C443 1.367 . S
C442 H456 0.951 . S
C443 C439 1.383 . S
C443 C442 1.367 . S
C443 H457 0.950 . S
C444 C441 1.481 . S
C444 C445 1.297 . S
C444 H458 0.950 . S
C445 C444 1.297 . S
C445 C446 1.479 . S
C445 H459 0.950 . S
C446 C445 1.479 . S
C446 C447 1.375 . S
C446 C452 1.404 . S
C447 C446 1.375 . S
C447 C448 1.369 . S
C447 H460 0.950 . S
C448 C447 1.369 . S
C448 C449 1.392 . S
C448 H461 0.951 . S
C449 C448 1.392 . S
C449 C451 1.384 . S
H450 C452 0.949 . S
C451 C449 1.384 . S
C451 C452 1.385 . S
C451 H453 0.950 . S
C452 C446 1.404 . S
C452 H450 0.949 . S
C452 C451 1.385 . S
H453 C451 0.950 . S
H454 C438 0.951 . S
H455 C440 0.951 . S
H456 C442 0.951 . S
H457 C443 0.950 . S
H458 C444 0.950 . S
H459 C445 0.950 . S
H460 C447 0.950 . S
H461 C448 0.951 . S
C462 C463 1.386 . S
C462 C464 1.383 1_455 S
C462 H478 0.951 . S
C463 C462 1.386 . S
C463 C467 1.383 . S
C464 C462 1.383 1_655 S
C464 C465 1.402 . S
C464 H479 0.951 . S
C465 C464 1.402 . S
C465 C466 1.375 . S
C465 C468 1.481 . S
C466 C465 1.375 . S
C466 C467 1.367 1_655 S
C466 H480 0.951 . S
C467 C463 1.383 . S
C467 C466 1.367 1_455 S
C467 H481 0.950 . S
C468 C465 1.481 . S
C468 C469 1.297 . S
C468 H482 0.950 . S
C469 C468 1.297 . S
C469 C470 1.479 . S
C469 H483 0.950 . S
C470 C469 1.479 . S
C470 C471 1.375 . S
C470 C476 1.404 . S
C471 C470 1.375 . S
C471 C472 1.369 . S
C471 H484 0.950 . S
C472 C471 1.369 . S
C472 C473 1.392 . S
C472 H485 0.951 . S
C473 C472 1.392 . S
C473 C475 1.384 . S
H474 C476 0.949 . S
C475 C473 1.384 . S
C475 C476 1.385 . S
C475 H477 0.950 . S
C476 C470 1.404 . S
C476 H474 0.949 . S
C476 C475 1.385 . S
H477 C475 0.950 . S
H478 C462 0.951 . S
H479 C464 0.951 . S
H480 C466 0.951 . S
H481 C467 0.950 . S
H482 C468 0.950 . S
H483 C469 0.950 . S
H484 C471 0.950 . S
H485 C472 0.951 . S
C486 C487 1.386 . S
C486 C488 1.383 . S
C486 H502 0.951 . S
C487 C486 1.386 . S
C487 C491 1.383 . S
C488 C486 1.383 . S
C488 C489 1.402 . S
C488 H503 0.951 . S
C489 C488 1.402 . S
C489 C490 1.375 . S
C489 C492 1.481 . S
C490 C489 1.375 . S
C490 C491 1.367 . S
C490 H504 0.951 . S
C491 C487 1.383 . S
C491 C490 1.367 . S
C491 H505 0.950 . S
C492 C489 1.481 . S
C492 C493 1.297 . S
C492 H506 0.950 . S
C493 C492 1.297 . S
C493 C494 1.479 . S
C493 H507 0.950 . S
C494 C493 1.479 . S
C494 C495 1.375 . S
C494 C500 1.404 . S
C495 C494 1.375 . S
C495 C496 1.366 1_545 S
C495 H508 0.950 1_545 S
C496 C495 1.366 1_565 S
C496 C497 1.388 1_565 S
C496 H509 0.958 . S
C497 C496 1.388 1_545 S
C497 C499 1.384 . S
H498 C500 0.949 . S
C499 C497 1.384 . S
C499 C500 1.385 . S
C499 H501 0.950 1_455 S
C500 C494 1.404 . S
C500 H498 0.949 . S
C500 C499 1.385 . S
H501 C499 0.950 1_655 S
H502 C486 0.951 . S
H503 C488 0.951 . S
H504 C490 0.951 . S
H505 C491 0.950 . S
H506 C492 0.950 . S
H507 C493 0.950 . S
H508 C495 0.950 1_565 S
H509 C496 0.958 . S
C510 C511 1.386 . S
C510 C512 1.383 . S
C510 H526 0.951 . S
C511 C510 1.386 . S
C511 C515 1.383 . S
C512 C510 1.383 . S
C512 C513 1.402 . S
C512 H527 0.951 . S
C513 C512 1.402 . S
C513 C514 1.375 . S
C513 C516 1.481 . S
C514 C513 1.375 . S
C514 C515 1.367 . S
C514 H528 0.951 . S
C515 C511 1.383 . S
C515 C514 1.367 . S
C515 H529 0.950 . S
C516 C513 1.481 . S
C516 C517 1.297 . S
C516 H530 0.950 . S
C517 C516 1.297 . S
C517 C518 1.479 . S
C517 H531 0.950 . S
C518 C517 1.479 . S
C518 C519 1.375 . S
C518 C524 1.404 . S
C519 C518 1.375 . S
C519 C520 1.369 . S
C519 H532 0.950 . S
C520 C519 1.369 . S
C520 C521 1.392 . S
C520 H533 0.951 1_554 S
C521 C520 1.392 . S
C521 C523 1.384 . S
H522 C524 0.949 . S
C523 C521 1.384 . S
C523 C524 1.385 . S
C523 H525 0.950 1_545 S
C524 C518 1.404 . S
C524 H522 0.949 . S
C524 C523 1.385 . S
H525 C523 0.950 1_565 S
H526 C510 0.951 . S
H527 C512 0.951 . S
H528 C514 0.951 . S
H529 C515 0.950 . S
H530 C516 0.950 . S
H531 C517 0.950 . S
H532 C519 0.950 . S
H533 C520 0.951 1_556 S
C534 C535 1.386 . S
C534 C536 1.383 . S
C534 H550 0.951 . S
C535 C534 1.386 . S
C535 C539 1.383 . S
C536 C534 1.383 . S
C536 C537 1.402 . S
C536 H551 0.951 . S
C537 C536 1.402 . S
C537 C538 1.375 . S
C537 C540 1.481 . S
C538 C537 1.375 . S
C538 C539 1.367 . S
C538 H552 0.951 . S
C539 C535 1.383 . S
C539 C538 1.367 . S
C539 H553 0.950 . S
C540 C537 1.481 . S
C540 C541 1.297 . S
C540 H554 0.950 . S
C541 C540 1.297 . S
C541 C542 1.479 . S
C541 H555 0.950 . S
C542 C541 1.479 . S
C542 C543 1.375 . S
C542 C548 1.404 . S
C543 C542 1.375 . S
C543 C544 1.369 . S
C543 H556 0.950 . S
C544 C543 1.369 . S
C544 C545 1.392 . S
C544 H557 0.951 . S
C545 C544 1.392 . S
C545 C547 1.384 . S
H546 C548 0.949 . S
C547 C545 1.384 . S
C547 C548 1.385 . S
C547 H549 0.950 1_455 S
C548 C542 1.404 . S
C548 H546 0.949 . S
C548 C547 1.385 . S
H549 C547 0.950 1_655 S
H550 C534 0.951 . S
H551 C536 0.951 . S
H552 C538 0.951 . S
H553 C539 0.950 . S
H554 C540 0.950 . S
H555 C541 0.950 . S
H556 C543 0.950 . S
H557 C544 0.951 . S
C199 C117 1.445 . S
C209 N13 1.286 . S
C223 C150 0.473 . S
C233 C18 0.610 . S
C247 N2 0.599 . S
C257 N178 0.387 . S
C271 N68 1.083 . S
C281 C7 1.288 . S
C295 N167 1.209 . S
C305 C51 1.320 1_565 S
C319 N79 0.688 . S
C329 N46 0.428 . S
C343 C40 0.796 . S
C353 C106 0.658 . S
C367 C139 1.292 . S
C377 N35 1.240 . S
C391 C84 1.314 . S
C401 N101 1.126 . S
C415 C73 0.780 . S
C425 C172 0.645 . S
C439 N134 0.502 . S
C449 N112 0.539 . S
C463 C183 1.451 . S
C473 N145 1.349 . S
C487 C54 0.906 . S
C497 C21 1.024 . S
C511 C153 0.933 . S
C521 C87 1.021 . S
C535 C186 0.901 . S
C545 C120 0.847 . S
