# Generated by pormake.
# Topology umf, (4)-cn, num edge types: 1
# Building blocks:
#     Node 0, Type 0, BuildingBlock: CEKHIL_clean_sbu_0, # of connection points: 4
#     Node 1, Type 0, BuildingBlock: CEKHIL_clean_sbu_0, # of connection points: 4
#     Node 2, Type 0, BuildingBlock: CEKHIL_clean_sbu_0, # of connection points: 4
#     Node 3, Type 0, BuildingBlock: CEKHIL_clean_sbu_0, # of connection points: 4
#     Node 4, Type 0, BuildingBlock: CEKHIL_clean_sbu_0, # of connection points: 4
#     Node 5, Type 0, BuildingBlock: CEKHIL_clean_sbu_0, # of connection points: 4
#     Node 6, Type 0, BuildingBlock: CEKHIL_clean_sbu_0, # of connection points: 4
#     Node 7, Type 0, BuildingBlock: CEKHIL_clean_sbu_0, # of connection points: 4
#     Edge 8, Type (0, 0), BuildingBlock: XIVTED_clean_linker_0, # of connection points: 2
#     Edge 9, Type (0, 0), BuildingBlock: XIVTED_clean_linker_0, # of connection points: 2
#     Edge 10, Type (0, 0), BuildingBlock: XIVTED_clean_linker_0, # of connection points: 2
#     Edge 11, Type (0, 0), BuildingBlock: XIVTED_clean_linker_0, # of connection points: 2
#     Edge 12, Type (0, 0), BuildingBlock: XIVTED_clean_linker_0, # of connection points: 2
#     Edge 13, Type (0, 0), BuildingBlock: XIVTED_clean_linker_0, # of connection points: 2
#     Edge 14, Type (0, 0), BuildingBlock: XIVTED_clean_linker_0, # of connection points: 2
#     Edge 15, Type (0, 0), BuildingBlock: XIVTED_clean_linker_0, # of connection points: 2
#     Edge 16, Type (0, 0), BuildingBlock: XIVTED_clean_linker_0, # of connection points: 2
#     Edge 17, Type (0, 0), BuildingBlock: XIVTED_clean_linker_0, # of connection points: 2
#     Edge 18, Type (0, 0), BuildingBlock: XIVTED_clean_linker_0, # of connection points: 2
#     Edge 19, Type (0, 0), BuildingBlock: XIVTED_clean_linker_0, # of connection points: 2
#     Edge 20, Type (0, 0), BuildingBlock: XIVTED_clean_linker_0, # of connection points: 2
#     Edge 21, Type (0, 0), BuildingBlock: XIVTED_clean_linker_0, # of connection points: 2
#     Edge 22, Type (0, 0), BuildingBlock: XIVTED_clean_linker_0, # of connection points: 2
#     Edge 23, Type (0, 0), BuildingBlock: XIVTED_clean_linker_0, # of connection points: 2
# Relax obj value: 0.165
# Max RMSD: 0.289
# Mean RMSD: 0.281
data_MOF--net-umf--node1-CEKHIL_clean_sbu_0--edge1-XIVTED_clean_linker_0
_symmetry_space_group_name_H-M    P1
_symmetry_Int_Tables_number       1
_symmetry_cell_setting            triclinic
loop_
_symmetry_equiv_pos_as_xyz
'x, y, z'
_cell_length_a     28.009983
_cell_length_b     26.578085
_cell_length_c     52.700745
_cell_angle_alpha  89.998302
_cell_angle_beta   90.002409
_cell_angle_gamma 90.003946
loop_
_atom_site_label
_atom_site_type_symbol
_atom_site_fract_x
_atom_site_fract_y
_atom_site_fract_z
_atom_type_partial_charge
Co0 Co 0.05515 0.24325 0.14893 0.0
O1 O 0.07839 0.26977 0.18014 0.0
O2 O 0.11837 0.21576 0.15637 0.0
C3 C 0.02988 0.31649 0.13325 0.0
O4 O 0.03902 0.21124 0.11444 0.0
Co5 Co 0.94598 0.24823 0.14347 0.0
O6 O 0.96111 0.22902 0.10812 0.0
C7 C 0.98591 0.16999 0.17534 0.0
C8 C 0.116 0.24241 0.17718 0.0
C9 C 0.00107 0.21191 0.10038 0.0
O10 O 0.02685 0.18502 0.1677 0.0
O11 O 0.94711 0.19216 0.16915 0.0
O12 O 0.07428 0.30317 0.1311 0.0
O13 O 0.00373 0.28819 0.14773 0.0
Co14 Co 0.73913 0.09013 0.63848 0.0
O15 O 0.67431 0.10664 0.63142 0.0
O16 O 0.70176 0.02896 0.63628 0.0
C17 C 0.75093 0.14481 0.67006 0.0
O18 O 0.80538 0.0618 0.64702 0.0
Co19 Co 0.81313 0.16982 0.62452 0.0
O20 O 0.85237 0.13042 0.6483 0.0
C21 C 0.7805 0.10281 0.58449 0.0
C22 C 0.6657 0.05883 0.632 0.0
C23 C 0.84496 0.08405 0.65285 0.0
O24 O 0.75246 0.08406 0.60116 0.0
O25 O 0.80905 0.13907 0.58945 0.0
O26 O 0.72926 0.1025 0.67387 0.0
O27 O 0.75779 0.157 0.64632 0.0
Co28 Co 0.92661 0.74687 0.14522 0.0
O29 O 0.89843 0.72108 0.17548 0.0
O30 O 0.86508 0.77917 0.15114 0.0
C31 C 0.94921 0.67247 0.12987 0.0
O32 O 0.94779 0.77883 0.11151 0.0
Co33 Co 0.03566 0.7355 0.14223 0.0
O34 O 0.02488 0.75624 0.10665 0.0
C35 C 0.9975 0.81489 0.17395 0.0
C36 C 0.86352 0.75188 0.17176 0.0
C37 C 0.98661 0.77613 0.09823 0.0
O38 O 0.9565 0.80246 0.16528 0.0
O39 O 0.03563 0.79095 0.16828 0.0
O40 O 0.90589 0.68856 0.12644 0.0
O41 O 0.97547 0.69904 0.14509 0.0
Co42 Co 0.25534 0.90667 0.6369 0.0
O43 O 0.3202 0.89041 0.62978 0.0
O44 O 0.29271 0.96791 0.63525 0.0
C45 C 0.24335 0.85103 0.66804 0.0
O46 O 0.18905 0.93464 0.64561 0.0
Co47 Co 0.18174 0.82717 0.62203 0.0
O48 O 0.14203 0.86597 0.64586 0.0
C49 C 0.21484 0.8952 0.58259 0.0
C50 C 0.3288 0.9382 0.63079 0.0
C51 C 0.14939 0.91212 0.65099 0.0
O52 O 0.24211 0.91394 0.59963 0.0
O53 O 0.18676 0.85831 0.58708 0.0
O54 O 0.26511 0.89316 0.67221 0.0
O55 O 0.23665 0.83959 0.6442 0.0
Co56 Co 0.06387 0.74889 0.86364 0.0
O57 O 0.09053 0.72297 0.83301 0.0
O58 O 0.12609 0.77942 0.85745 0.0
C59 C 0.03974 0.67494 0.8789 0.0
O60 O 0.0445 0.78068 0.89771 0.0
Co61 Co 0.95459 0.74041 0.86745 0.0
O62 O 0.96695 0.76027 0.90301 0.0
C63 C 0.99391 0.81978 0.83605 0.0
C64 C 0.12641 0.75254 0.83669 0.0
C65 C 0.00595 0.77887 0.91124 0.0
O66 O 0.03489 0.80588 0.84417 0.0
O67 O 0.95539 0.7967 0.84189 0.0
O68 O 0.0836 0.68963 0.88195 0.0
O69 O 0.01378 0.70246 0.86397 0.0
Co70 Co 0.26337 0.08668 0.3719 0.0
O71 O 0.32844 0.10023 0.37976 0.0
O72 O 0.29793 0.02375 0.37561 0.0
C73 C 0.2578 0.14074 0.33943 0.0
O74 O 0.19623 0.06135 0.36283 0.0
Co75 Co 0.19239 0.17063 0.38282 0.0
O76 O 0.15259 0.13188 0.35901 0.0
C77 C 0.22034 0.10604 0.42487 0.0
C78 C 0.33505 0.0521 0.38001 0.0
C79 C 0.1579 0.08475 0.3559 0.0
O80 O 0.248 0.08411 0.40904 0.0
O81 O 0.19373 0.14317 0.41868 0.0
O82 O 0.27587 0.09631 0.33656 0.0
O83 O 0.24921 0.15428 0.36281 0.0
Co84 Co 0.9297 0.24586 0.86561 0.0
O85 O 0.90236 0.27182 0.83517 0.0
O86 O 0.86732 0.21535 0.8598 0.0
C87 C 0.9542 0.31986 0.88064 0.0
O88 O 0.94986 0.21405 0.89955 0.0
Co89 Co 0.03901 0.25423 0.86879 0.0
O90 O 0.02729 0.23515 0.90452 0.0
C91 C -0.00103 0.17512 0.83747 0.0
C92 C 0.86656 0.24225 0.83905 0.0
C93 C 0.98854 0.21634 0.91296 0.0
O94 O 0.95819 0.18891 0.84592 0.0
O95 O 0.03763 0.19817 0.84309 0.0
O96 O 0.91044 0.30514 0.88404 0.0
O97 O 0.97981 0.29226 0.86558 0.0
Co98 Co 0.74621 0.9021 0.37426 0.0
O99 O 0.68088 0.88631 0.38043 0.0
O100 O 0.70941 0.96375 0.37667 0.0
C101 C 0.75818 0.84829 0.34235 0.0
O102 O 0.81332 0.92956 0.36672 0.0
Co103 Co 0.8181 0.82046 0.38834 0.0
O104 O 0.85927 0.86014 0.36562 0.0
C105 C 0.78487 0.88643 0.42862 0.0
C106 C 0.67282 0.93422 0.38028 0.0
C107 C 0.85287 0.90677 0.36131 0.0
O108 O 0.75807 0.90651 0.41177 0.0
O109 O 0.81285 0.84969 0.42368 0.0
O110 O 0.73767 0.89127 0.33864 0.0
O111 O 0.76392 0.83513 0.36603 0.0
H112 H 0.9403 0.35804 0.13533 0.0
H113 H 0.03816 0.6301 0.13009 0.0
H114 H 0.08458 0.38767 0.11057 0.0
H115 H 0.8909 0.59951 0.1114 0.0
H116 H 0.05671 0.54113 0.12297 0.0
H117 H 0.9201 0.44614 0.12654 0.0
C118 C 0.9674 0.38283 0.12767 0.0
C119 C 0.01429 0.36601 0.12412 0.0
C120 C 0.02053 0.55423 0.11997 0.0
C121 C 0.99187 0.46606 0.11445 0.0
C122 C 0.00999 0.6048 0.12411 0.0
C123 C 0.96292 0.62175 0.12169 0.0
C124 C 0.98348 0.52062 0.11398 0.0
C125 C 0.92764 0.58772 0.11371 0.0
C126 C 0.95591 0.4329 0.12259 0.0
C127 C 0.04811 0.39938 0.11394 0.0
N128 N 0.93842 0.53839 0.11067 0.0
N129 N 0.03651 0.4482 0.10997 0.0
H130 H 0.40828 0.88179 0.62304 0.0
H131 H 0.58633 0.11547 0.62441 0.0
H132 H 0.36165 0.03565 0.63199 0.0
H133 H 0.63284 0.96134 0.6323 0.0
H134 H 0.5041 0.08675 0.62154 0.0
H135 H 0.49056 0.91059 0.62078 0.0
C136 C 0.41531 0.92177 0.62441 0.0
C137 C 0.37808 0.95647 0.62789 0.0
C138 C 0.53224 0.05917 0.62383 0.0
C139 C 0.47239 0.98952 0.62531 0.0
C140 C 0.57928 0.07545 0.62542 0.0
C141 C 0.61647 0.04065 0.62878 0.0
C142 C 0.5222 0.00767 0.6255 0.0
C143 C 0.60519 0.98937 0.62984 0.0
C144 C 0.46238 0.93809 0.62317 0.0
C145 C 0.38934 0.0077 0.62941 0.0
N146 N 0.55889 0.97437 0.62827 0.0
N147 N 0.43566 0.02274 0.62818 0.0
H148 H 0.04399 0.36036 0.87932 0.0
H149 H 0.94991 0.63439 0.87813 0.0
H150 H 0.89846 0.3935 0.90057 0.0
H151 H 0.09564 0.60194 0.89927 0.0
H152 H 0.92928 0.5463 0.88646 0.0
H153 H 0.06466 0.44873 0.88676 0.0
C154 C 0.01666 0.38606 0.88592 0.0
C155 C 0.96941 0.37004 0.88895 0.0
C156 C 0.96555 0.55886 0.88973 0.0
C157 C 0.99237 0.47049 0.89705 0.0
C158 C 0.97729 0.60891 0.88488 0.0
C159 C 0.02459 0.62502 0.88762 0.0
C160 C 0.00165 0.52491 0.89677 0.0
C161 C 0.05879 0.5908 0.89664 0.0
C162 C 0.02842 0.43629 0.89025 0.0
C163 C 0.93528 0.40456 0.89774 0.0
N164 N 0.04687 0.54197 0.90039 0.0
N165 N 0.9472 0.45354 0.90097 0.0
H166 H 0.36569 0.95365 0.37852 0.0
H167 H 0.6412 0.0321 0.38227 0.0
H168 H 0.41501 0.10585 0.39022 0.0
H169 H 0.59241 0.87807 0.38522 0.0
H170 H 0.55802 0.0601 0.38533 0.0
H171 H 0.44866 0.92451 0.38137 0.0
C172 C 0.39385 0.98077 0.3819 0.0
C173 C 0.38356 0.03217 0.3839 0.0
C174 C 0.56566 0.02017 0.38547 0.0
C175 C 0.47807 -0.00048 0.38696 0.0
C176 C 0.61306 0.00428 0.38368 0.0
C177 C 0.62364 0.95281 0.38334 0.0
C178 C 0.52879 0.98423 0.38672 0.0
C179 C 0.58587 0.91821 0.3853 0.0
C180 C 0.44113 0.96424 0.3835 0.0
C181 C 0.42133 0.06585 0.38833 0.0
N182 N 0.54013 0.93454 0.38673 0.0
N183 N 0.46688 0.04899 0.3895 0.0
H184 H 0.91252 0.19795 0.94519 0.0
H185 H 0.07884 0.20364 0.06828 0.0
H186 H 0.06658 0.19704 0.94234 0.0
H187 H 0.92597 0.18373 0.07083 0.0
H188 H 0.07604 0.192 0.02208 0.0
H189 H 0.9169 0.18373 0.99114 0.0
C190 C 0.94717 0.19393 0.95409 0.0
C191 C 0.98915 0.19951 0.93986 0.0
C192 C 0.0432 0.18948 0.03284 0.0
C193 C 0.99458 0.18387 0.99246 0.0
C194 C 0.04491 0.19584 0.05925 0.0
C195 C 0.00258 0.19547 0.07345 0.0
C196 C -0.00116 0.18293 0.02062 0.0
C197 C 0.95951 0.18528 0.06064 0.0
C198 C 0.94973 0.186 0.98036 0.0
C199 C 0.03315 0.19393 0.95252 0.0
N200 N 0.95868 0.18013 0.03503 0.0
N201 N 0.03469 0.18709 0.97803 0.0
H202 H 0.70488 0.06364 0.55918 0.0
H203 H 0.86077 0.90327 0.46088 0.0
H204 H 0.85761 0.08072 0.5539 0.0
H205 H 0.70947 0.92865 0.45294 0.0
H206 H 0.86109 0.9593 0.49819 0.0
H207 H 0.70657 0.00782 0.52246 0.0
C208 C 0.73876 0.05632 0.54995 0.0
C209 C 0.7811 0.07737 0.55944 0.0
C210 C 0.82782 0.95212 0.48837 0.0
C211 C 0.78356 0.01179 0.51771 0.0
C212 C 0.82749 0.91958 0.46735 0.0
C213 C 0.78496 0.91102 0.4539 0.0
C214 C 0.7852 0.97562 0.4961 0.0
C215 C 0.74304 0.93405 0.46278 0.0
C216 C 0.73975 0.02413 0.52907 0.0
C217 C 0.82406 0.06599 0.54691 0.0
N218 N 0.74424 0.96513 0.48322 0.0
N219 N 0.8243 0.03349 0.52683 0.0
H220 H 0.9114 0.79429 0.06547 0.0
H221 H 0.08214 0.79134 0.94402 0.0
H222 H 0.0653 0.79707 0.06968 0.0
H223 H 0.92871 0.80412 0.93995 0.0
H224 H 0.07737 0.80416 0.99008 0.0
H225 H 0.91702 0.80858 0.01956 0.0
C226 C 0.94626 0.7988 0.05688 0.0
C227 C 0.98786 0.79362 0.07145 0.0
C228 C 0.04481 0.80486 0.97901 0.0
C229 C 0.99473 0.80931 0.01891 0.0
C230 C 0.04762 0.79781 0.95269 0.0
C231 C 0.00579 0.79582 0.93811 0.0
C232 C -0.00015 0.80978 0.99079 0.0
C233 C 0.96193 0.80439 0.95044 0.0
C234 C 0.94954 0.80673 0.03063 0.0
C235 C 0.03217 0.79983 0.05919 0.0
N236 N 0.96008 0.81031 0.97601 0.0
N237 N 0.03442 0.80666 0.03369 0.0
H238 H 0.29521 0.07647 0.45359 0.0
H239 H 0.14004 0.9087 0.54901 0.0
H240 H 0.14145 0.08112 0.45344 0.0
H241 H 0.28899 0.94351 0.56009 0.0
H242 H 0.1394 0.96468 0.51168 0.0
H243 H 0.29313 0.02348 0.49136 0.0
C244 C 0.26095 0.06716 0.46192 0.0
C245 C 0.21848 0.08381 0.45061 0.0
C246 C 0.17221 0.9597 0.52225 0.0
C247 C 0.21562 0.02119 0.49344 0.0
C248 C 0.17276 0.92722 0.54331 0.0
C249 C 0.2147 0.92117 0.55762 0.0
C250 C 0.21403 0.98571 0.51536 0.0
C251 C 0.25585 0.94693 0.54964 0.0
C252 C 0.25972 0.03652 0.48337 0.0
C253 C 0.17501 0.06986 0.46191 0.0
N254 N 0.25445 0.97786 0.52915 0.0
N255 N 0.17463 0.0388 0.48257 0.0
H256 H 0.18847 0.17344 0.18435 0.0
H257 H 0.19304 0.21865 0.33269 0.0
H258 H 0.11962 0.30128 0.21918 0.0
H259 H 0.29872 0.12952 0.29358 0.0
H260 H 0.16729 0.25281 0.29143 0.0
H261 H 0.23192 0.1588 0.22411 0.0
C262 C 0.18328 0.199 0.20012 0.0
C263 C 0.15003 0.23819 0.19853 0.0
C264 C 0.1967 0.22641 0.29203 0.0
C265 C 0.19848 0.22119 0.24414 0.0
C266 C 0.21145 0.20719 0.31556 0.0
C267 C 0.24745 0.1707 0.31648 0.0
C268 C 0.21799 0.2085 0.26951 0.0
C269 C 0.27012 0.15694 0.2937 0.0
C270 C 0.20785 0.19058 0.22286 0.0
C271 C 0.14447 0.2701 0.21965 0.0
N272 N 0.25457 0.17517 0.27118 0.0
N273 N 0.16775 0.26041 0.24169 0.0
H274 H 0.83333 0.31103 0.80527 0.0
H275 H 0.80772 0.09738 0.70288 0.0
H276 H 0.82905 0.15294 0.82333 0.0
H277 H 0.74334 0.24196 0.68869 0.0
H278 H 0.8269 0.12358 0.74576 0.0
H279 H 0.80434 0.29202 0.7624 0.0
C280 C 0.82456 0.27248 0.80047 0.0
C281 C 0.83344 0.2334 0.81783 0.0
C282 C 0.80905 0.14996 0.73328 0.0
C283 C 0.80258 0.21144 0.76869 0.0
C284 C 0.79902 0.13546 0.70858 0.0
C285 C 0.7746 0.16789 0.69209 0.0
C286 C 0.79455 0.19741 0.74181 0.0
C287 C 0.76308 0.2163 0.7007 0.0
C288 C 0.80854 0.26172 0.77596 0.0
C289 C 0.82219 0.18416 0.81064 0.0
N290 N 0.77304 0.22972 0.72518 0.0
N291 N 0.80834 0.17446 0.7864 0.0
H292 H 0.81913 0.89209 0.31035 0.0
H293 H 0.82671 0.68354 0.20467 0.0
H294 H 0.74333 0.75313 0.3227 0.0
H295 H 0.83124 0.84249 0.18871 0.0
H296 H 0.80027 0.70214 0.24805 0.0
H297 H 0.83537 0.86681 0.26692 0.0
C298 C 0.80738 0.85526 0.30413 0.0
C299 C 0.78061 0.8242 0.32025 0.0
C300 C 0.8058 0.73281 0.23485 0.0
C301 C 0.79715 0.796 0.26999 0.0
C302 C 0.82031 0.72231 0.21004 0.0
C303 C 0.831 0.76164 0.19313 0.0
C304 C 0.80324 0.78297 0.24284 0.0
C305 C 0.82291 0.81112 0.20106 0.0
C306 C 0.81571 0.84141 0.27914 0.0
C307 C 0.76503 0.77755 0.31098 0.0
N308 N 0.81058 0.82044 0.22557 0.0
N309 N 0.7734 0.76477 0.28627 0.0
H310 H 0.18608 0.89812 0.70075 0.0
H311 H 0.15851 0.68378 0.80257 0.0
H312 H 0.25036 0.75357 0.68635 0.0
H313 H 0.16444 0.84164 0.82102 0.0
H314 H 0.18761 0.7029 0.75973 0.0
H315 H 0.16623 0.87143 0.74344 0.0
C316 C 0.19457 0.85993 0.70634 0.0
C317 C 0.21916 0.82765 0.68984 0.0
C318 C 0.18373 0.73311 0.77337 0.0
C319 C 0.19849 0.79759 0.7394 0.0
C320 C 0.16763 0.72229 0.79785 0.0
C321 C 0.15922 0.7613 0.81532 0.0
C322 C 0.19024 0.78338 0.76623 0.0
C323 C 0.17092 0.81048 0.80824 0.0
C324 C 0.18418 0.84516 0.73095 0.0
C325 C 0.23048 0.77911 0.69836 0.0
N326 N 0.18485 0.82026 0.78403 0.0
N327 N 0.22017 0.76544 0.72275 0.0
H328 H 0.90881 0.10825 0.18467 0.0
H329 H 0.07545 0.8757 0.18274 0.0
H330 H 0.06089 0.12007 0.1968 0.0
H331 H 0.9242 0.86383 0.19732 0.0
H332 H 0.07219 0.96426 0.19521 0.0
H333 H 0.91294 0.01946 0.19655 0.0
C334 C 0.94282 0.0926 0.19045 0.0
C335 C 0.98473 0.12125 0.18894 0.0
C336 C 0.03991 0.94194 0.19628 0.0
C337 C 0.98995 0.01958 0.20205 0.0
C338 C 0.04186 0.89126 0.18924 0.0
C339 C -0.0002 0.86278 0.18821 0.0
C340 C 0.99552 0.96414 0.20194 0.0
C341 C 0.9573 0.88487 0.19705 0.0
C342 C 0.94524 0.0418 0.19719 0.0
C343 C 0.02779 0.09901 0.19692 0.0
N344 N 0.95598 0.93453 0.20291 0.0
N345 N 0.0295 0.04923 0.2025 0.0
H346 H 0.13461 0.01469 0.65352 0.0
H347 H 0.85967 0.98139 0.65391 0.0
H348 H 0.07024 0.87211 0.673 0.0
H349 H 0.92429 0.12277 0.67529 0.0
H350 H 0.93599 0.93943 0.66246 0.0
H351 H 0.05842 0.05615 0.66304 0.0
C352 C 0.10491 0.9923 0.66028 0.0
C353 C 0.1084 0.93982 0.66176 0.0
C354 C 0.933 0.97953 0.66573 0.0
C355 C 0.02144 0.9865 0.6722 0.0
C356 C 0.88945 0.00338 0.6609 0.0
C357 C 0.88597 0.05575 0.66319 0.0
C358 C 0.97311 0.00851 0.6725 0.0
C359 C 0.92572 0.08244 0.6725 0.0
C360 C 0.06145 0.01586 0.66568 0.0
C361 C 0.06878 0.91259 0.67083 0.0
N362 N 0.96794 0.05874 0.67624 0.0
N363 N 0.02665 0.93607 0.67513 0.0
H364 H 0.92439 0.12636 0.815 0.0
H365 H 0.06792 0.86915 0.81337 0.0
H366 H 0.07602 0.11326 0.82827 0.0
H367 H 0.9166 0.88176 0.82774 0.0
H368 H 0.07007 0.95801 0.80201 0.0
H369 H 0.92195 0.0379 0.80287 0.0
C370 C 0.95746 0.10521 0.81483 0.0
C371 C 0.00033 0.12689 0.82345 0.0
C372 C 0.03623 0.94104 0.80709 0.0
C373 C 0.99749 0.02562 0.80948 0.0
C374 C 0.03484 0.89029 0.81359 0.0
C375 C 0.99218 0.86832 0.82232 0.0
C376 C 0.99469 0.97005 0.80922 0.0
C377 C 0.95038 0.89729 0.82155 0.0
C378 C 0.95591 0.05469 0.80789 0.0
C379 C 0.0421 0.09793 0.82218 0.0
N380 N 0.95285 0.94705 0.81564 0.0
N381 N 0.03948 0.04839 0.81585 0.0
H382 H 0.93289 0.86665 0.3402 0.0
H383 H 0.07606 0.12432 0.33619 0.0
H384 H 0.86899 0.00945 0.35972 0.0
H385 H 0.14144 0.98224 0.35574 0.0
H386 H -9e-05 0.08167 0.3306 0.0
H387 H 0.00806 0.90918 0.3317 0.0
C388 C 0.93437 0.90714 0.34242 0.0
C389 C 0.89473 0.93444 0.35139 0.0
C390 C 0.0311 0.05983 0.33574 0.0
C391 C 0.9809 0.98312 0.34121 0.0
C392 C 0.07474 0.08395 0.33892 0.0
C393 C 0.1152 0.05694 0.34708 0.0
C394 C 0.02787 0.00817 0.3403 0.0
C395 C 0.11121 0.00463 0.34974 0.0
C396 C 0.97742 0.93121 0.33752 0.0
C397 C 0.8987 0.98688 0.35317 0.0
N398 N 0.06804 0.98194 0.34661 0.0
N399 N 0.94137 0.00957 0.3484 0.0
loop_
_geom_bond_atom_site_label_1
_geom_bond_atom_site_label_2
_geom_bond_distance
_geom_bond_site_symmetry_2
_ccdc_geom_bond_type
Co0 O1 2.216 . S
Co0 O2 2.091 . S
Co0 O4 2.004 . S
Co0 O10 2.021 . S
Co0 O12 2.137 . S
Co0 O13 2.244 . S
O1 Co0 2.216 . S
O1 C8 1.247 . S
O2 Co0 2.091 . S
O2 C8 1.261 . S
C3 O12 1.247 . S
C3 O13 1.272 . S
O4 Co0 2.004 . S
O4 C9 1.259 . S
Co5 O6 2.061 1_655 S
Co5 O11 2.052 1_655 S
Co5 O13 2.135 1_655 S
O6 Co5 2.061 1_455 S
O6 C9 1.235 . S
C7 O10 1.238 . S
C7 O11 1.241 . S
C8 O1 1.247 . S
C8 O2 1.261 . S
C9 O4 1.259 . S
C9 O6 1.235 . S
O10 Co0 2.021 . S
O10 C7 1.238 . S
O11 Co5 2.052 1_455 S
O11 C7 1.241 . S
O12 Co0 2.137 . S
O12 C3 1.247 . S
O13 Co0 2.244 . S
O13 C3 1.272 . S
O13 Co5 2.135 1_455 S
Co14 O15 2.216 . S
Co14 O16 2.091 . S
Co14 O18 2.004 . S
Co14 O24 2.021 . S
Co14 O26 2.137 . S
Co14 O27 2.244 . S
O15 Co14 2.216 . S
O15 C22 1.247 . S
O16 Co14 2.091 . S
O16 C22 1.261 . S
C17 O26 1.247 . S
C17 O27 1.272 . S
O18 Co14 2.004 . S
O18 C23 1.259 . S
Co19 O20 2.061 . S
Co19 O25 2.052 . S
Co19 O27 2.135 . S
O20 Co19 2.061 . S
O20 C23 1.235 . S
C21 O24 1.238 . S
C21 O25 1.241 . S
C22 O15 1.247 . S
C22 O16 1.261 . S
C23 O18 1.259 . S
C23 O20 1.235 . S
O24 Co14 2.021 . S
O24 C21 1.238 . S
O25 Co19 2.052 . S
O25 C21 1.241 . S
O26 Co14 2.137 . S
O26 C17 1.247 . S
O27 Co14 2.244 . S
O27 C17 1.272 . S
O27 Co19 2.135 . S
Co28 O29 2.216 . S
Co28 O30 2.091 . S
Co28 O32 2.004 . S
Co28 O38 2.021 . S
Co28 O40 2.137 . S
Co28 O41 2.244 . S
O29 Co28 2.216 . S
O29 C36 1.247 . S
O30 Co28 2.091 . S
O30 C36 1.261 . S
C31 O40 1.247 . S
C31 O41 1.272 . S
O32 Co28 2.004 . S
O32 C37 1.259 . S
Co33 O34 2.061 1_455 S
Co33 O39 2.052 1_455 S
Co33 O41 2.135 1_455 S
O34 Co33 2.061 1_655 S
O34 C37 1.235 . S
C35 O38 1.238 . S
C35 O39 1.241 . S
C36 O29 1.247 . S
C36 O30 1.261 . S
C37 O32 1.259 . S
C37 O34 1.235 . S
O38 Co28 2.021 . S
O38 C35 1.238 . S
O39 Co33 2.052 1_655 S
O39 C35 1.241 . S
O40 Co28 2.137 . S
O40 C31 1.247 . S
O41 Co28 2.244 . S
O41 C31 1.272 . S
O41 Co33 2.135 1_655 S
Co42 O43 2.216 . S
Co42 O44 2.091 . S
Co42 O46 2.004 . S
Co42 O52 2.021 . S
Co42 O54 2.137 . S
Co42 O55 2.244 . S
O43 Co42 2.216 . S
O43 C50 1.247 . S
O44 Co42 2.091 . S
O44 C50 1.261 . S
C45 O54 1.247 . S
C45 O55 1.272 . S
O46 Co42 2.004 . S
O46 C51 1.259 . S
Co47 O48 2.061 . S
Co47 O53 2.052 . S
Co47 O55 2.135 . S
O48 Co47 2.061 . S
O48 C51 1.235 . S
C49 O52 1.238 . S
C49 O53 1.241 . S
C50 O43 1.247 . S
C50 O44 1.261 . S
C51 O46 1.259 . S
C51 O48 1.235 . S
O52 Co42 2.021 . S
O52 C49 1.238 . S
O53 Co47 2.052 . S
O53 C49 1.241 . S
O54 Co42 2.137 . S
O54 C45 1.247 . S
O55 Co42 2.244 . S
O55 C45 1.272 . S
O55 Co47 2.135 . S
Co56 O57 2.216 . S
Co56 O58 2.091 . S
Co56 O60 2.004 . S
Co56 O66 2.021 . S
Co56 O68 2.137 . S
Co56 O69 2.244 . S
O57 Co56 2.216 . S
O57 C64 1.247 . S
O58 Co56 2.091 . S
O58 C64 1.261 . S
C59 O68 1.247 . S
C59 O69 1.272 . S
O60 Co56 2.004 . S
O60 C65 1.259 . S
Co61 O62 2.061 1_655 S
Co61 O67 2.052 1_655 S
Co61 O69 2.135 1_655 S
O62 Co61 2.061 1_455 S
O62 C65 1.235 . S
C63 O66 1.238 . S
C63 O67 1.241 . S
C64 O57 1.247 . S
C64 O58 1.261 . S
C65 O60 1.259 . S
C65 O62 1.235 . S
O66 Co56 2.021 . S
O66 C63 1.238 . S
O67 Co61 2.052 1_455 S
O67 C63 1.241 . S
O68 Co56 2.137 . S
O68 C59 1.247 . S
O69 Co56 2.244 . S
O69 C59 1.272 . S
O69 Co61 2.135 1_455 S
Co70 O71 2.216 . S
Co70 O72 2.091 . S
Co70 O74 2.004 . S
Co70 O80 2.021 . S
Co70 O82 2.137 . S
Co70 O83 2.244 . S
O71 Co70 2.216 . S
O71 C78 1.247 . S
O72 Co70 2.091 . S
O72 C78 1.261 . S
C73 O82 1.247 . S
C73 O83 1.272 . S
O74 Co70 2.004 . S
O74 C79 1.259 . S
Co75 O76 2.061 . S
Co75 O81 2.052 . S
Co75 O83 2.135 . S
O76 Co75 2.061 . S
O76 C79 1.235 . S
C77 O80 1.238 . S
C77 O81 1.241 . S
C78 O71 1.247 . S
C78 O72 1.261 . S
C79 O74 1.259 . S
C79 O76 1.235 . S
O80 Co70 2.021 . S
O80 C77 1.238 . S
O81 Co75 2.052 . S
O81 C77 1.241 . S
O82 Co70 2.137 . S
O82 C73 1.247 . S
O83 Co70 2.244 . S
O83 C73 1.272 . S
O83 Co75 2.135 . S
Co84 O85 2.216 . S
Co84 O86 2.091 . S
Co84 O88 2.004 . S
Co84 O94 2.021 . S
Co84 O96 2.137 . S
Co84 O97 2.244 . S
O85 Co84 2.216 . S
O85 C92 1.247 . S
O86 Co84 2.091 . S
O86 C92 1.261 . S
C87 O96 1.247 . S
C87 O97 1.272 . S
O88 Co84 2.004 . S
O88 C93 1.259 . S
Co89 O90 2.061 1_455 S
Co89 O95 2.052 1_455 S
Co89 O97 2.135 1_455 S
O90 Co89 2.061 1_655 S
O90 C93 1.235 . S
C91 O94 1.238 . S
C91 O95 1.241 . S
C92 O85 1.247 . S
C92 O86 1.261 . S
C93 O88 1.259 . S
C93 O90 1.235 . S
O94 Co84 2.021 . S
O94 C91 1.238 . S
O95 Co89 2.052 1_655 S
O95 C91 1.241 . S
O96 Co84 2.137 . S
O96 C87 1.247 . S
O97 Co84 2.244 . S
O97 C87 1.272 . S
O97 Co89 2.135 1_655 S
Co98 O99 2.216 . S
Co98 O100 2.091 . S
Co98 O102 2.004 . S
Co98 O108 2.021 . S
Co98 O110 2.137 . S
Co98 O111 2.244 . S
O99 Co98 2.216 . S
O99 C106 1.247 . S
O100 Co98 2.091 . S
O100 C106 1.261 . S
C101 O110 1.247 . S
C101 O111 1.272 . S
O102 Co98 2.004 . S
O102 C107 1.259 . S
Co103 O104 2.061 . S
Co103 O109 2.052 . S
Co103 O111 2.135 . S
O104 Co103 2.061 . S
O104 C107 1.235 . S
C105 O108 1.238 . S
C105 O109 1.241 . S
C106 O99 1.247 . S
C106 O100 1.261 . S
C107 O102 1.259 . S
C107 O104 1.235 . S
O108 Co98 2.021 . S
O108 C105 1.238 . S
O109 Co103 2.052 . S
O109 C105 1.241 . S
O110 Co98 2.137 . S
O110 C101 1.247 . S
O111 Co98 2.244 . S
O111 C101 1.272 . S
O111 Co103 2.135 . S
H112 C118 0.930 . S
H113 C122 0.930 . S
H114 C127 0.929 . S
H115 C125 0.929 . S
H116 C120 0.929 . S
H117 C126 0.929 . S
C118 H112 0.930 . S
C118 C119 1.367 . S
C118 C126 1.378 1_455 S
C119 C118 1.367 . S
C119 C127 1.433 . S
C120 H116 0.929 . S
C120 C122 1.378 1_455 S
C120 C124 1.350 1_455 S
C121 C124 1.463 1_455 S
C121 C126 1.350 1_455 S
C121 N129 1.427 . S
C122 H113 0.930 . S
C122 C120 1.378 1_655 S
C122 C123 1.367 . S
C123 C122 1.367 . S
C123 C125 1.433 . S
C124 C120 1.350 1_655 S
C124 C121 1.463 1_655 S
C124 N128 1.427 . S
C125 H115 0.929 . S
C125 C123 1.433 . S
C125 N128 1.384 . S
C126 H117 0.929 . S
C126 C118 1.378 1_655 S
C126 C121 1.350 1_655 S
C127 H114 0.929 . S
C127 C119 1.433 . S
C127 N129 1.384 . S
N128 C124 1.427 . S
N128 C125 1.384 . S
N129 C121 1.427 . S
N129 C127 1.384 . S
H130 C136 0.930 . S
H131 C140 0.930 . S
H132 C145 0.929 . S
H133 C143 0.929 . S
H134 C138 0.929 . S
H135 C144 0.929 . S
C136 H130 0.930 . S
C136 C137 1.367 . S
C136 C144 1.378 . S
C137 C136 1.367 . S
C137 C145 1.433 1_565 S
C138 H134 0.929 . S
C138 C140 1.378 . S
C138 C142 1.350 . S
C139 C142 1.463 1_565 S
C139 C144 1.350 . S
C139 N147 1.427 1_565 S
C140 H131 0.930 . S
C140 C138 1.378 . S
C140 C141 1.367 . S
C141 C140 1.367 . S
C141 C143 1.433 1_545 S
C142 C138 1.350 . S
C142 C139 1.463 1_545 S
C142 N146 1.427 1_545 S
C143 H133 0.929 . S
C143 C141 1.433 1_565 S
C143 N146 1.384 . S
C144 H135 0.929 . S
C144 C136 1.378 . S
C144 C139 1.350 . S
C145 H132 0.929 . S
C145 C137 1.433 1_545 S
C145 N147 1.384 . S
N146 C142 1.427 1_565 S
N146 C143 1.384 . S
N147 C139 1.427 1_545 S
N147 C145 1.384 . S
H148 C154 0.930 . S
H149 C158 0.930 . S
H150 C163 0.929 . S
H151 C161 0.929 . S
H152 C156 0.929 . S
H153 C162 0.941 . S
C154 H148 0.930 . S
C154 C155 1.367 . S
C154 C162 1.370 1_655 S
C155 C154 1.367 . S
C155 C163 1.433 . S
C156 H152 0.929 . S
C156 C158 1.378 1_655 S
C156 C160 1.350 1_655 S
C157 C160 1.463 1_655 S
C157 C162 1.346 1_655 S
C157 N165 1.427 . S
C158 H149 0.930 . S
C158 C156 1.378 1_455 S
C158 C159 1.367 . S
C159 C158 1.367 . S
C159 C161 1.433 . S
C160 C156 1.350 1_455 S
C160 C157 1.463 1_455 S
C160 N164 1.427 . S
C161 H151 0.929 . S
C161 C159 1.433 . S
C161 N164 1.384 . S
C162 H153 0.941 . S
C162 C154 1.370 1_455 S
C162 C157 1.346 1_455 S
C163 H150 0.929 . S
C163 C155 1.433 . S
C163 N165 1.384 . S
N164 C160 1.427 . S
N164 C161 1.384 . S
N165 C157 1.427 . S
N165 C163 1.384 . S
H166 C172 0.938 . S
H167 C176 0.938 . S
H168 C181 0.929 . S
H169 C179 0.929 . S
H170 C174 0.929 . S
H171 C180 0.929 . S
C172 H166 0.938 . S
C172 C173 1.354 1_565 S
C172 C180 1.383 . S
C173 C172 1.354 1_545 S
C173 C181 1.433 . S
C174 H170 0.929 . S
C174 C176 1.383 . S
C174 C178 1.350 1_545 S
C175 C178 1.463 1_545 S
C175 C180 1.350 1_545 S
C175 N183 1.427 . S
C176 H167 0.938 . S
C176 C174 1.383 . S
C176 C177 1.354 1_545 S
C177 C176 1.354 1_565 S
C177 C179 1.433 . S
C178 C174 1.350 1_565 S
C178 C175 1.463 1_565 S
C178 N182 1.427 . S
C179 H169 0.929 . S
C179 C177 1.433 . S
C179 N182 1.384 . S
C180 H171 0.929 . S
C180 C172 1.383 . S
C180 C175 1.350 1_565 S
C181 H168 0.929 . S
C181 C173 1.433 . S
C181 N183 1.384 . S
N182 C178 1.427 . S
N182 C179 1.384 . S
N183 C175 1.427 . S
N183 C181 1.384 . S
H184 C190 0.930 . S
H185 C194 0.930 . S
H186 C199 0.929 . S
H187 C197 0.929 . S
H188 C192 0.929 . S
H189 C198 0.929 . S
C190 H184 0.930 . S
C190 C191 1.367 . S
C190 C198 1.378 . S
C191 C190 1.367 . S
C191 C199 1.433 . S
C192 H188 0.929 . S
C192 C194 1.378 . S
C192 C196 1.350 . S
C193 C196 1.463 1_656 S
C193 C198 1.350 . S
C193 N201 1.427 . S
C194 H185 0.930 . S
C194 C192 1.378 . S
C194 C195 1.367 . S
C195 C194 1.367 . S
C195 C197 1.433 . S
C196 C192 1.350 . S
C196 C193 1.463 1_454 S
C196 N200 1.427 . S
C197 H187 0.929 . S
C197 C195 1.433 . S
C197 N200 1.384 . S
C198 H189 0.929 . S
C198 C190 1.378 . S
C198 C193 1.350 . S
C199 H186 0.929 . S
C199 C191 1.433 . S
C199 N201 1.384 . S
N200 C196 1.427 . S
N200 C197 1.384 . S
N201 C193 1.427 . S
N201 C199 1.384 . S
H202 C208 0.930 . S
H203 C212 0.930 . S
H204 C217 0.929 . S
H205 C215 0.929 . S
H206 C210 0.922 1_545 S
H207 C216 0.921 1_565 S
C208 H202 0.930 . S
C208 C209 1.367 . S
C208 C216 1.383 . S
C209 C208 1.367 . S
C209 C217 1.433 . S
C210 H206 0.922 1_565 S
C210 C212 1.382 . S
C210 C214 1.352 . S
C211 C214 1.463 1_545 S
C211 C216 1.352 . S
C211 N219 1.427 . S
C212 H203 0.930 . S
C212 C210 1.382 . S
C212 C213 1.367 . S
C213 C212 1.367 . S
C213 C215 1.433 . S
C214 C210 1.352 . S
C214 C211 1.463 1_565 S
C214 N218 1.427 . S
C215 H205 0.929 . S
C215 C213 1.433 . S
C215 N218 1.384 . S
C216 H207 0.921 1_545 S
C216 C208 1.383 . S
C216 C211 1.352 . S
C217 H204 0.929 . S
C217 C209 1.433 . S
C217 N219 1.384 . S
N218 C214 1.427 . S
N218 C215 1.384 . S
N219 C211 1.427 . S
N219 C217 1.384 . S
H220 C226 0.930 . S
H221 C230 0.930 . S
H222 C235 0.929 . S
H223 C233 0.929 . S
H224 C228 0.929 1_655 S
H225 C234 0.929 1_455 S
C226 H220 0.930 . S
C226 C227 1.367 . S
C226 C234 1.378 . S
C227 C226 1.367 . S
C227 C235 1.433 . S
C228 H224 0.929 1_455 S
C228 C230 1.378 . S
C228 C232 1.350 . S
C229 C232 1.463 1_654 S
C229 C234 1.350 . S
C229 N237 1.427 . S
C230 H221 0.930 . S
C230 C228 1.378 . S
C230 C231 1.367 . S
C231 C230 1.367 . S
C231 C233 1.433 . S
C232 C228 1.350 . S
C232 C229 1.463 1_456 S
C232 N236 1.427 . S
C233 H223 0.929 . S
C233 C231 1.433 . S
C233 N236 1.384 . S
C234 H225 0.929 1_655 S
C234 C226 1.378 . S
C234 C229 1.350 . S
C235 H222 0.929 . S
C235 C227 1.433 . S
C235 N237 1.384 . S
N236 C232 1.427 . S
N236 C233 1.384 . S
N237 C229 1.427 . S
N237 C235 1.384 . S
H238 C244 0.930 . S
H239 C248 0.930 . S
H240 C253 0.929 . S
H241 C251 0.929 . S
H242 C246 0.929 1_545 S
H243 C252 0.929 1_565 S
C244 H238 0.930 . S
C244 C245 1.367 . S
C244 C252 1.378 . S
C245 C244 1.367 . S
C245 C253 1.433 . S
C246 H242 0.929 1_565 S
C246 C248 1.378 . S
C246 C250 1.350 . S
C247 C250 1.463 1_545 S
C247 C252 1.350 . S
C247 N255 1.427 . S
C248 H239 0.930 . S
C248 C246 1.378 . S
C248 C249 1.367 . S
C249 C248 1.367 . S
C249 C251 1.433 . S
C250 C246 1.350 . S
C250 C247 1.463 1_565 S
C250 N254 1.427 . S
C251 H241 0.929 . S
C251 C249 1.433 . S
C251 N254 1.384 . S
C252 H243 0.929 1_545 S
C252 C244 1.378 . S
C252 C247 1.350 . S
C253 H240 0.929 . S
C253 C245 1.433 . S
C253 N255 1.384 . S
N254 C250 1.427 . S
N254 C251 1.384 . S
N255 C247 1.427 . S
N255 C253 1.384 . S
H256 C262 0.930 . S
H257 C266 0.930 . S
H258 C271 0.929 . S
H259 C269 0.929 . S
H260 C264 0.929 . S
H261 C270 0.929 . S
C262 H256 0.930 . S
C262 C263 1.367 . S
C262 C270 1.378 . S
C263 C262 1.367 . S
C263 C271 1.433 . S
C264 H260 0.929 . S
C264 C266 1.378 . S
C264 C268 1.350 . S
C265 C268 1.463 . S
C265 C270 1.350 . S
C265 N273 1.427 . S
C266 H257 0.930 . S
C266 C264 1.378 . S
C266 C267 1.367 . S
C267 C266 1.367 . S
C267 C269 1.433 . S
C268 C264 1.350 . S
C268 C265 1.463 . S
C268 N272 1.427 . S
C269 H259 0.929 . S
C269 C267 1.433 . S
C269 N272 1.384 . S
C270 H261 0.929 . S
C270 C262 1.378 . S
C270 C265 1.350 . S
C271 H258 0.929 . S
C271 C263 1.433 . S
C271 N273 1.384 . S
N272 C268 1.427 . S
N272 C269 1.384 . S
N273 C265 1.427 . S
N273 C271 1.384 . S
H274 C280 0.930 . S
H275 C284 0.930 . S
H276 C289 0.929 . S
H277 C287 0.929 . S
H278 C282 0.929 . S
H279 C288 0.929 . S
C280 H274 0.930 . S
C280 C281 1.367 . S
C280 C288 1.378 . S
C281 C280 1.367 . S
C281 C289 1.433 . S
C282 H278 0.929 . S
C282 C284 1.378 . S
C282 C286 1.350 . S
C283 C286 1.463 . S
C283 C288 1.350 . S
C283 N291 1.427 . S
C284 H275 0.930 . S
C284 C282 1.378 . S
C284 C285 1.367 . S
C285 C284 1.367 . S
C285 C287 1.433 . S
C286 C282 1.350 . S
C286 C283 1.463 . S
C286 N290 1.427 . S
C287 H277 0.929 . S
C287 C285 1.433 . S
C287 N290 1.384 . S
C288 H279 0.929 . S
C288 C280 1.378 . S
C288 C283 1.350 . S
C289 H276 0.929 . S
C289 C281 1.433 . S
C289 N291 1.384 . S
N290 C286 1.427 . S
N290 C287 1.384 . S
N291 C283 1.427 . S
N291 C289 1.384 . S
H292 C298 0.930 . S
H293 C302 0.930 . S
H294 C307 0.929 . S
H295 C305 0.929 . S
H296 C300 0.929 . S
H297 C306 0.929 . S
C298 H292 0.930 . S
C298 C299 1.367 . S
C298 C306 1.378 . S
C299 C298 1.367 . S
C299 C307 1.433 . S
C300 H296 0.929 . S
C300 C302 1.378 . S
C300 C304 1.350 . S
C301 C304 1.463 . S
C301 C306 1.350 . S
C301 N309 1.427 . S
C302 H293 0.930 . S
C302 C300 1.378 . S
C302 C303 1.367 . S
C303 C302 1.367 . S
C303 C305 1.433 . S
C304 C300 1.350 . S
C304 C301 1.463 . S
C304 N308 1.427 . S
C305 H295 0.929 . S
C305 C303 1.433 . S
C305 N308 1.384 . S
C306 H297 0.929 . S
C306 C298 1.378 . S
C306 C301 1.350 . S
C307 H294 0.929 . S
C307 C299 1.433 . S
C307 N309 1.384 . S
N308 C304 1.427 . S
N308 C305 1.384 . S
N309 C301 1.427 . S
N309 C307 1.384 . S
H310 C316 0.930 . S
H311 C320 0.930 . S
H312 C325 0.929 . S
H313 C323 0.929 . S
H314 C318 0.929 . S
H315 C324 0.929 . S
C316 H310 0.930 . S
C316 C317 1.367 . S
C316 C324 1.378 . S
C317 C316 1.367 . S
C317 C325 1.433 . S
C318 H314 0.929 . S
C318 C320 1.378 . S
C318 C322 1.350 . S
C319 C322 1.463 . S
C319 C324 1.350 . S
C319 N327 1.427 . S
C320 H311 0.930 . S
C320 C318 1.378 . S
C320 C321 1.367 . S
C321 C320 1.367 . S
C321 C323 1.433 . S
C322 C318 1.350 . S
C322 C319 1.463 . S
C322 N326 1.427 . S
C323 H313 0.929 . S
C323 C321 1.433 . S
C323 N326 1.384 . S
C324 H315 0.929 . S
C324 C316 1.378 . S
C324 C319 1.350 . S
C325 H312 0.929 . S
C325 C317 1.433 . S
C325 N327 1.384 . S
N326 C322 1.427 . S
N326 C323 1.384 . S
N327 C319 1.427 . S
N327 C325 1.384 . S
H328 C334 0.930 . S
H329 C338 0.930 . S
H330 C343 0.929 . S
H331 C341 0.929 . S
H332 C336 0.929 . S
H333 C342 0.929 . S
C334 H328 0.930 . S
C334 C335 1.367 1_655 S
C334 C342 1.378 . S
C335 C334 1.367 1_455 S
C335 C343 1.433 . S
C336 H332 0.929 . S
C336 C338 1.378 . S
C336 C340 1.350 1_455 S
C337 C340 1.463 1_445 S
C337 C342 1.350 1_455 S
C337 N345 1.427 . S
C338 H329 0.930 . S
C338 C336 1.378 . S
C338 C339 1.367 1_455 S
C339 C338 1.367 1_655 S
C339 C341 1.433 . S
C340 C336 1.350 1_655 S
C340 C337 1.463 1_665 S
C340 N344 1.427 . S
C341 H331 0.929 . S
C341 C339 1.433 . S
C341 N344 1.384 . S
C342 H333 0.929 . S
C342 C334 1.378 . S
C342 C337 1.350 1_655 S
C343 H330 0.929 . S
C343 C335 1.433 . S
C343 N345 1.384 . S
N344 C340 1.427 . S
N344 C341 1.384 . S
N345 C337 1.427 . S
N345 C343 1.384 . S
H346 C352 0.930 . S
H347 C356 0.930 . S
H348 C361 0.929 . S
H349 C359 0.929 . S
H350 C354 0.929 . S
H351 C360 0.929 . S
C352 H346 0.930 . S
C352 C353 1.367 1_545 S
C352 C360 1.378 . S
C353 C352 1.367 1_565 S
C353 C361 1.433 . S
C354 H350 0.929 . S
C354 C356 1.378 . S
C354 C358 1.350 1_565 S
C355 C358 1.463 1_465 S
C355 C360 1.350 1_565 S
C355 N363 1.427 . S
C356 H347 0.930 . S
C356 C354 1.378 . S
C356 C357 1.367 1_565 S
C357 C356 1.367 1_545 S
C357 C359 1.433 . S
C358 C354 1.350 1_545 S
C358 C355 1.463 1_645 S
C358 N362 1.427 . S
C359 H349 0.929 . S
C359 C357 1.433 . S
C359 N362 1.384 . S
C360 H351 0.929 . S
C360 C352 1.378 . S
C360 C355 1.350 1_545 S
C361 H348 0.929 . S
C361 C353 1.433 . S
C361 N363 1.384 . S
N362 C358 1.427 . S
N362 C359 1.384 . S
N363 C355 1.427 . S
N363 C361 1.384 . S
H364 C370 0.930 . S
H365 C374 0.930 . S
H366 C379 0.929 . S
H367 C377 0.929 . S
H368 C372 0.929 . S
H369 C378 0.929 . S
C370 H364 0.930 . S
C370 C371 1.367 . S
C370 C378 1.378 . S
C371 C370 1.367 . S
C371 C379 1.433 . S
C372 H368 0.929 . S
C372 C374 1.378 . S
C372 C376 1.350 . S
C373 C376 1.463 1_645 S
C373 C378 1.350 . S
C373 N381 1.430 . S
C374 H365 0.930 . S
C374 C372 1.378 . S
C374 C375 1.367 . S
C375 C374 1.367 . S
C375 C377 1.433 . S
C376 C372 1.350 . S
C376 C373 1.463 1_465 S
C376 N380 1.430 . S
C377 H367 0.929 . S
C377 C375 1.433 . S
C377 N380 1.389 . S
C378 H369 0.929 . S
C378 C370 1.378 . S
C378 C373 1.350 . S
C379 H366 0.929 . S
C379 C371 1.433 . S
C379 N381 1.389 . S
N380 C376 1.430 . S
N380 C377 1.389 . S
N381 C373 1.430 . S
N381 C379 1.389 . S
H382 C388 0.930 . S
H383 C392 0.930 . S
H384 C397 0.929 . S
H385 C395 0.929 . S
H386 C390 0.929 . S
H387 C396 0.929 . S
C388 H382 0.930 . S
C388 C389 1.367 . S
C388 C396 1.378 . S
C389 C388 1.367 . S
C389 C397 1.433 . S
C390 H386 0.929 . S
C390 C392 1.378 . S
C390 C394 1.350 . S
C391 C394 1.463 1_665 S
C391 C396 1.350 . S
C391 N399 1.429 . S
C392 H383 0.930 . S
C392 C390 1.378 . S
C392 C393 1.367 . S
C393 C392 1.367 . S
C393 C395 1.433 . S
C394 C390 1.350 . S
C394 C391 1.463 1_445 S
C394 N398 1.429 . S
C395 H385 0.929 . S
C395 C393 1.433 . S
C395 N398 1.387 . S
C396 H387 0.929 . S
C396 C388 1.378 . S
C396 C391 1.350 . S
C397 H384 0.929 . S
C397 C389 1.433 . S
C397 N399 1.387 . S
N398 C394 1.429 . S
N398 C395 1.387 . S
N399 C391 1.429 . S
N399 C397 1.387 . S
C119 C3 1.377 . S
C123 C31 1.381 . S
C137 C50 1.404 . S
C141 C22 1.403 . S
C155 C87 1.377 . S
C159 C59 1.381 . S
C173 C78 1.405 . S
C177 C106 1.403 . S
C191 C93 1.524 . S
C195 C9 1.524 . S
C209 C21 1.601 . S
C213 C105 1.598 . S
C227 C37 1.517 . S
C231 C65 1.517 . S
C245 C77 1.604 . S
C249 C49 1.598 . S
C263 C8 1.463 . S
C267 C73 1.431 . S
C281 C92 1.462 . S
C285 C17 1.413 . S
C299 C101 1.413 . S
C303 C36 1.461 . S
C317 C45 1.413 . S
C321 C64 1.463 . S
C335 C7 0.948 . S
C339 C35 0.942 . S
C353 C51 0.956 . S
C357 C23 0.960 . S
C371 C91 0.942 . S
C375 C63 0.954 . S
C389 C107 0.946 . S
C393 C79 0.951 . S
