# Generated by pormake.
# Topology uma, (4)-cn, num edge types: 1
# Building blocks:
#     Node 0, Type 0, BuildingBlock: KOZSID_clean_sbu_0, # of connection points: 4
#     Node 1, Type 0, BuildingBlock: KOZSID_clean_sbu_0, # of connection points: 4
#     Node 2, Type 0, BuildingBlock: KOZSID_clean_sbu_0, # of connection points: 4
#     Node 3, Type 0, BuildingBlock: KOZSID_clean_sbu_0, # of connection points: 4
#     Node 4, Type 0, BuildingBlock: KOZSID_clean_sbu_0, # of connection points: 4
#     Node 5, Type 0, BuildingBlock: KOZSID_clean_sbu_0, # of connection points: 4
#     Node 6, Type 0, BuildingBlock: KOZSID_clean_sbu_0, # of connection points: 4
#     Node 7, Type 0, BuildingBlock: KOZSID_clean_sbu_0, # of connection points: 4
#     Node 8, Type 0, BuildingBlock: KOZSID_clean_sbu_0, # of connection points: 4
#     Node 9, Type 0, BuildingBlock: KOZSID_clean_sbu_0, # of connection points: 4
#     Node 10, Type 0, BuildingBlock: KOZSID_clean_sbu_0, # of connection points: 4
#     Node 11, Type 0, BuildingBlock: KOZSID_clean_sbu_0, # of connection points: 4
#     Node 12, Type 0, BuildingBlock: KOZSID_clean_sbu_0, # of connection points: 4
#     Node 13, Type 0, BuildingBlock: KOZSID_clean_sbu_0, # of connection points: 4
#     Node 14, Type 0, BuildingBlock: KOZSID_clean_sbu_0, # of connection points: 4
#     Node 15, Type 0, BuildingBlock: KOZSID_clean_sbu_0, # of connection points: 4
#     Node 16, Type 0, BuildingBlock: KOZSID_clean_sbu_0, # of connection points: 4
#     Node 17, Type 0, BuildingBlock: KOZSID_clean_sbu_0, # of connection points: 4
#     Node 18, Type 0, BuildingBlock: KOZSID_clean_sbu_0, # of connection points: 4
#     Node 19, Type 0, BuildingBlock: KOZSID_clean_sbu_0, # of connection points: 4
#     Node 20, Type 0, BuildingBlock: KOZSID_clean_sbu_0, # of connection points: 4
#     Node 21, Type 0, BuildingBlock: KOZSID_clean_sbu_0, # of connection points: 4
#     Node 22, Type 0, BuildingBlock: KOZSID_clean_sbu_0, # of connection points: 4
#     Node 23, Type 0, BuildingBlock: KOZSID_clean_sbu_0, # of connection points: 4
#     Node 24, Type 0, BuildingBlock: KOZSID_clean_sbu_0, # of connection points: 4
#     Node 25, Type 0, BuildingBlock: KOZSID_clean_sbu_0, # of connection points: 4
#     Node 26, Type 0, BuildingBlock: KOZSID_clean_sbu_0, # of connection points: 4
#     Node 27, Type 0, BuildingBlock: KOZSID_clean_sbu_0, # of connection points: 4
#     Node 28, Type 0, BuildingBlock: KOZSID_clean_sbu_0, # of connection points: 4
#     Node 29, Type 0, BuildingBlock: KOZSID_clean_sbu_0, # of connection points: 4
#     Node 30, Type 0, BuildingBlock: KOZSID_clean_sbu_0, # of connection points: 4
#     Node 31, Type 0, BuildingBlock: KOZSID_clean_sbu_0, # of connection points: 4
#     Node 32, Type 0, BuildingBlock: KOZSID_clean_sbu_0, # of connection points: 4
#     Node 33, Type 0, BuildingBlock: KOZSID_clean_sbu_0, # of connection points: 4
#     Node 34, Type 0, BuildingBlock: KOZSID_clean_sbu_0, # of connection points: 4
#     Node 35, Type 0, BuildingBlock: KOZSID_clean_sbu_0, # of connection points: 4
#     Edge 36, Type (0, 0), BuildingBlock: XIVTED_clean_linker_0, # of connection points: 2
#     Edge 37, Type (0, 0), BuildingBlock: XIVTED_clean_linker_0, # of connection points: 2
#     Edge 38, Type (0, 0), BuildingBlock: XIVTED_clean_linker_0, # of connection points: 2
#     Edge 39, Type (0, 0), BuildingBlock: XIVTED_clean_linker_0, # of connection points: 2
#     Edge 40, Type (0, 0), BuildingBlock: XIVTED_clean_linker_0, # of connection points: 2
#     Edge 41, Type (0, 0), BuildingBlock: XIVTED_clean_linker_0, # of connection points: 2
#     Edge 42, Type (0, 0), BuildingBlock: XIVTED_clean_linker_0, # of connection points: 2
#     Edge 43, Type (0, 0), BuildingBlock: XIVTED_clean_linker_0, # of connection points: 2
#     Edge 44, Type (0, 0), BuildingBlock: XIVTED_clean_linker_0, # of connection points: 2
#     Edge 45, Type (0, 0), BuildingBlock: XIVTED_clean_linker_0, # of connection points: 2
#     Edge 46, Type (0, 0), BuildingBlock: XIVTED_clean_linker_0, # of connection points: 2
#     Edge 47, Type (0, 0), BuildingBlock: XIVTED_clean_linker_0, # of connection points: 2
#     Edge 48, Type (0, 0), BuildingBlock: XIVTED_clean_linker_0, # of connection points: 2
#     Edge 49, Type (0, 0), BuildingBlock: XIVTED_clean_linker_0, # of connection points: 2
#     Edge 50, Type (0, 0), BuildingBlock: XIVTED_clean_linker_0, # of connection points: 2
#     Edge 51, Type (0, 0), BuildingBlock: XIVTED_clean_linker_0, # of connection points: 2
#     Edge 52, Type (0, 0), BuildingBlock: XIVTED_clean_linker_0, # of connection points: 2
#     Edge 53, Type (0, 0), BuildingBlock: XIVTED_clean_linker_0, # of connection points: 2
#     Edge 54, Type (0, 0), BuildingBlock: XIVTED_clean_linker_0, # of connection points: 2
#     Edge 55, Type (0, 0), BuildingBlock: XIVTED_clean_linker_0, # of connection points: 2
#     Edge 56, Type (0, 0), BuildingBlock: XIVTED_clean_linker_0, # of connection points: 2
#     Edge 57, Type (0, 0), BuildingBlock: XIVTED_clean_linker_0, # of connection points: 2
#     Edge 58, Type (0, 0), BuildingBlock: XIVTED_clean_linker_0, # of connection points: 2
#     Edge 59, Type (0, 0), BuildingBlock: XIVTED_clean_linker_0, # of connection points: 2
#     Edge 60, Type (0, 0), BuildingBlock: XIVTED_clean_linker_0, # of connection points: 2
#     Edge 61, Type (0, 0), BuildingBlock: XIVTED_clean_linker_0, # of connection points: 2
#     Edge 62, Type (0, 0), BuildingBlock: XIVTED_clean_linker_0, # of connection points: 2
#     Edge 63, Type (0, 0), BuildingBlock: XIVTED_clean_linker_0, # of connection points: 2
#     Edge 64, Type (0, 0), BuildingBlock: XIVTED_clean_linker_0, # of connection points: 2
#     Edge 65, Type (0, 0), BuildingBlock: XIVTED_clean_linker_0, # of connection points: 2
#     Edge 66, Type (0, 0), BuildingBlock: XIVTED_clean_linker_0, # of connection points: 2
#     Edge 67, Type (0, 0), BuildingBlock: XIVTED_clean_linker_0, # of connection points: 2
#     Edge 68, Type (0, 0), BuildingBlock: XIVTED_clean_linker_0, # of connection points: 2
#     Edge 69, Type (0, 0), BuildingBlock: XIVTED_clean_linker_0, # of connection points: 2
#     Edge 70, Type (0, 0), BuildingBlock: XIVTED_clean_linker_0, # of connection points: 2
#     Edge 71, Type (0, 0), BuildingBlock: XIVTED_clean_linker_0, # of connection points: 2
#     Edge 72, Type (0, 0), BuildingBlock: XIVTED_clean_linker_0, # of connection points: 2
#     Edge 73, Type (0, 0), BuildingBlock: XIVTED_clean_linker_0, # of connection points: 2
#     Edge 74, Type (0, 0), BuildingBlock: XIVTED_clean_linker_0, # of connection points: 2
#     Edge 75, Type (0, 0), BuildingBlock: XIVTED_clean_linker_0, # of connection points: 2
#     Edge 76, Type (0, 0), BuildingBlock: XIVTED_clean_linker_0, # of connection points: 2
#     Edge 77, Type (0, 0), BuildingBlock: XIVTED_clean_linker_0, # of connection points: 2
#     Edge 78, Type (0, 0), BuildingBlock: XIVTED_clean_linker_0, # of connection points: 2
#     Edge 79, Type (0, 0), BuildingBlock: XIVTED_clean_linker_0, # of connection points: 2
#     Edge 80, Type (0, 0), BuildingBlock: XIVTED_clean_linker_0, # of connection points: 2
#     Edge 81, Type (0, 0), BuildingBlock: XIVTED_clean_linker_0, # of connection points: 2
#     Edge 82, Type (0, 0), BuildingBlock: XIVTED_clean_linker_0, # of connection points: 2
#     Edge 83, Type (0, 0), BuildingBlock: XIVTED_clean_linker_0, # of connection points: 2
#     Edge 84, Type (0, 0), BuildingBlock: XIVTED_clean_linker_0, # of connection points: 2
#     Edge 85, Type (0, 0), BuildingBlock: XIVTED_clean_linker_0, # of connection points: 2
#     Edge 86, Type (0, 0), BuildingBlock: XIVTED_clean_linker_0, # of connection points: 2
#     Edge 87, Type (0, 0), BuildingBlock: XIVTED_clean_linker_0, # of connection points: 2
#     Edge 88, Type (0, 0), BuildingBlock: XIVTED_clean_linker_0, # of connection points: 2
#     Edge 89, Type (0, 0), BuildingBlock: XIVTED_clean_linker_0, # of connection points: 2
#     Edge 90, Type (0, 0), BuildingBlock: XIVTED_clean_linker_0, # of connection points: 2
#     Edge 91, Type (0, 0), BuildingBlock: XIVTED_clean_linker_0, # of connection points: 2
#     Edge 92, Type (0, 0), BuildingBlock: XIVTED_clean_linker_0, # of connection points: 2
#     Edge 93, Type (0, 0), BuildingBlock: XIVTED_clean_linker_0, # of connection points: 2
#     Edge 94, Type (0, 0), BuildingBlock: XIVTED_clean_linker_0, # of connection points: 2
#     Edge 95, Type (0, 0), BuildingBlock: XIVTED_clean_linker_0, # of connection points: 2
#     Edge 96, Type (0, 0), BuildingBlock: XIVTED_clean_linker_0, # of connection points: 2
#     Edge 97, Type (0, 0), BuildingBlock: XIVTED_clean_linker_0, # of connection points: 2
#     Edge 98, Type (0, 0), BuildingBlock: XIVTED_clean_linker_0, # of connection points: 2
#     Edge 99, Type (0, 0), BuildingBlock: XIVTED_clean_linker_0, # of connection points: 2
#     Edge 100, Type (0, 0), BuildingBlock: XIVTED_clean_linker_0, # of connection points: 2
#     Edge 101, Type (0, 0), BuildingBlock: XIVTED_clean_linker_0, # of connection points: 2
#     Edge 102, Type (0, 0), BuildingBlock: XIVTED_clean_linker_0, # of connection points: 2
#     Edge 103, Type (0, 0), BuildingBlock: XIVTED_clean_linker_0, # of connection points: 2
#     Edge 104, Type (0, 0), BuildingBlock: XIVTED_clean_linker_0, # of connection points: 2
#     Edge 105, Type (0, 0), BuildingBlock: XIVTED_clean_linker_0, # of connection points: 2
#     Edge 106, Type (0, 0), BuildingBlock: XIVTED_clean_linker_0, # of connection points: 2
#     Edge 107, Type (0, 0), BuildingBlock: XIVTED_clean_linker_0, # of connection points: 2
# Relax obj value: 0.141
# Max RMSD: 0.174
# Mean RMSD: 0.156
data_MOF--net-uma--node1-KOZSID_clean_sbu_0--edge1-XIVTED_clean_linker_0
_symmetry_space_group_name_H-M    P1
_symmetry_Int_Tables_number       1
_symmetry_cell_setting            triclinic
loop_
_symmetry_equiv_pos_as_xyz
'x, y, z'
_cell_length_a     103.2342
_cell_length_b     107.37621
_cell_length_c     44.496057
_cell_angle_alpha  87.856894
_cell_angle_beta   89.990366
_cell_angle_gamma 118.87319
loop_
_atom_site_label
_atom_site_type_symbol
_atom_site_fract_x
_atom_site_fract_y
_atom_site_fract_z
_atom_type_partial_charge
C0 C 0.09081 0.37519 0.0756 0.0
C1 C 0.08497 0.36573 0.10031 0.0
C2 C 0.08357 0.35299 0.09183 0.0
C3 C 0.08845 0.35524 0.06242 0.0
N4 N 0.0928 0.36861 0.05185 0.0
Co5 Co 0.09958 0.37587 0.00979 0.0
N6 N 0.09036 0.35636 0.99408 0.0
C7 C 0.08628 0.34435 0.01103 0.0
C8 C 0.08072 0.33239 0.99444 0.0
C9 C 0.08149 0.33717 0.96514 0.0
C10 C 0.08746 0.35186 0.96541 0.0
N11 N 0.10646 0.38315 0.96777 0.0
C12 C 0.10231 0.37652 0.94114 0.0
C13 C 0.11021 0.3859 0.91735 0.0
C14 C 0.11982 0.3986 0.92956 0.0
C15 C 0.11724 0.3964 0.96008 0.0
N16 N 0.10855 0.39526 0.02577 0.0
C17 C 0.11918 0.40714 0.01182 0.0
C18 C 0.12291 0.41909 0.0278 0.0
C19 C 0.11404 0.41439 0.05332 0.0
C20 C 0.10529 0.39978 0.0515 0.0
N21 N 0.11799 0.37516 0.01682 0.0
C22 C 0.14504 0.37524 0.02518 0.0
C23 C 0.1369 0.37005 0.99905 0.0
C24 C 0.12347 0.37005 0.99538 0.0
C25 C 0.13921 0.38029 0.04721 0.0
C26 C 0.1257 0.38015 0.04261 0.0
N27 N 0.08152 0.37681 1.00283 0.0
C28 C 0.06969 0.39049 0.98738 0.0
C29 C 0.05642 0.38001 1.0004 0.0
C30 C 0.05571 0.36762 0.01339 0.0
C31 C 0.06836 0.36615 0.01402 0.0
C32 C 0.08219 0.38873 0.98905 0.0
H33 H 0.06761 0.35657 0.02432 0.0
H34 H 0.09248 0.3972 0.97997 0.0
H35 H 0.11764 0.36606 0.97487 0.0
H36 H 0.12153 0.38417 0.05987 0.0
C37 C 0.08604 0.34456 0.0425 0.0
C38 C 0.09481 0.39042 0.0755 0.0
C39 C 0.0918 0.36119 0.93785 0.0
C40 C 0.12301 0.40692 0.9816 0.0
H41 H 0.08175 0.36763 0.12204 0.0
H42 H 0.07869 0.34304 0.10501 0.0
H43 H 0.07636 0.32146 1.00266 0.0
H44 H 0.07835 0.33061 0.94575 0.0
H45 H 0.10925 0.38381 0.89364 0.0
H46 H 0.12743 0.40839 0.9175 0.0
H47 H 0.13062 0.43001 0.02105 0.0
H48 H 0.11398 0.42093 0.07117 0.0
H49 H 0.14098 0.36624 0.98111 0.0
H50 H 0.14495 0.38424 0.06798 0.0
H51 H 0.07048 0.40008 0.97675 0.0
H52 H 0.04542 0.35914 0.02295 0.0
C53 C 0.62734 0.71061 0.07326 0.0
C54 C 0.63725 0.71412 0.09666 0.0
C55 C 0.65081 0.72378 0.08504 0.0
C56 C 0.64857 0.7256 0.05524 0.0
N57 N 0.63431 0.71785 0.04714 0.0
Co58 Co 0.6267 0.71653 1.00506 0.0
N59 N 0.64722 0.72746 0.98678 0.0
C60 C 0.65999 0.73317 1.00208 0.0
C61 C 0.67243 0.73979 0.984 0.0
C62 C 0.66735 0.73809 0.95532 0.0
C63 C 0.65201 0.73044 0.95748 0.0
N64 N 0.61911 0.7155 0.96306 0.0
C65 C 0.62642 0.71993 0.93588 0.0
C66 C 0.61658 0.71691 0.91252 0.0
C67 C 0.60268 0.71047 0.92524 0.0
C68 C 0.60472 0.70984 0.95559 0.0
N69 N 0.60626 0.70488 0.0233 0.0
C70 C 0.59342 0.69977 0.00831 0.0
C71 C 0.5812 0.69109 0.02586 0.0
C72 C 0.58656 0.69027 0.05354 0.0
C73 C 0.60184 0.69849 0.05134 0.0
N74 N 0.62587 0.73462 0.00968 0.0
C75 C 0.62496 0.76054 0.01113 0.0
C76 C 0.61235 0.74781 1.00507 0.0
C77 C 0.61302 0.73514 1.0047 0.0
C78 C 0.63793 0.76001 0.01763 0.0
C79 C 0.63814 0.74707 0.01675 0.0
N80 N 0.62728 0.69866 1.00052 0.0
C81 C 0.61499 0.67403 0.98735 0.0
C82 C 0.62562 0.67189 1.0024 0.0
C83 C 0.63753 0.68349 0.01499 0.0
C84 C 0.63826 0.69677 0.01342 0.0
C85 C 0.61601 0.68745 0.98675 0.0
H86 H 0.64761 0.70532 0.02327 0.0
H87 H 0.60739 0.68844 0.97562 0.0
H88 H 0.60294 0.72597 1.00006 0.0
H89 H 0.64844 0.74754 0.02151 0.0
C90 C 0.65989 0.73218 0.03349 0.0
C91 C 0.61165 0.6997 0.07643 0.0
C92 C 0.64257 0.72661 0.93097 0.0
C93 C 0.59339 0.70255 0.97725 0.0
H94 H 0.63518 0.70971 0.11947 0.0
H95 H 0.66126 0.72816 0.0965 0.0
H96 H 0.68384 0.74521 0.99086 0.0
H97 H 0.67419 0.74211 0.93511 0.0
H98 H 0.61913 0.71886 0.88866 0.0
H99 H 0.59229 0.70627 0.91362 0.0
H100 H 0.56977 0.68559 0.01907 0.0
H101 H 0.58 0.68407 0.07297 0.0
H102 H 0.60192 0.74759 1.00064 0.0
H103 H 0.64801 0.7696 0.02255 0.0
H104 H 0.60579 0.66534 0.97674 0.0
H105 H 0.64631 0.68233 0.02584 0.0
C106 C 0.29212 0.91473 0.09238 0.0
C107 C 0.28667 0.91777 0.11798 0.0
C108 C 0.27448 0.91892 0.10946 0.0
C109 C 0.27306 0.91642 0.07926 0.0
N110 N 0.28356 0.91372 0.06838 0.0
Co111 Co 0.28546 0.90959 0.026 0.0
N112 N 0.27361 0.91855 0.01083 0.0
C113 C 0.2646 0.92129 0.02795 0.0
C114 C 0.25775 0.92751 0.01177 0.0
C115 C 0.26258 0.92857 0.98258 0.0
C116 C 0.27206 0.92279 0.98241 0.0
N117 N 0.28726 0.90533 0.98357 0.0
C118 C 0.28445 0.91043 0.95728 0.0
C119 C 0.28673 0.90394 0.93297 0.0
C120 C 0.29102 0.89447 0.94446 0.0
C121 C 0.29109 0.89562 0.97511 0.0
N122 N 0.29753 0.90095 0.0415 0.0
C123 C 0.30054 0.89198 0.02653 0.0
C124 C 0.3103 0.88881 0.0415 0.0
C125 C 0.31357 0.89624 0.06744 0.0
C126 C 0.30546 0.90346 0.06724 0.0
N127 N 0.26734 0.89114 0.03105 0.0
C128 C 0.24191 0.8641 0.03578 0.0
C129 C 0.25286 0.8685 0.05779 0.0
C130 C 0.26537 0.88206 0.05517 0.0
C131 C 0.24393 0.87384 0.0119 0.0
C132 C 0.25669 0.88707 0.00973 0.0
N133 N 0.30346 0.9277 0.02093 0.0
C134 C 0.32904 0.94089 1.00552 0.0
C135 C 0.33017 0.95297 0.0186 0.0
C136 C 0.3176 0.95229 0.03221 0.0
C137 C 0.3043 0.93958 0.03289 0.0
C138 C 0.31559 0.92833 0.00705 0.0
H139 H 0.29476 0.93928 0.04347 0.0
H140 H 0.3151 0.91906 0.99748 0.0
H141 H 0.27357 0.88513 0.07244 0.0
H142 H 0.25793 0.89395 0.99046 0.0
C143 C 0.26439 0.91957 0.05942 0.0
C144 C 0.30495 0.91218 0.09194 0.0
C145 C 0.27822 0.92027 0.95466 0.0
C146 C 0.29682 0.88955 0.99613 0.0
H147 H 0.29109 0.91913 0.14039 0.0
H148 H 0.26796 0.92199 0.12331 0.0
H149 H 0.25041 0.93117 0.02026 0.0
H150 H 0.2593 0.9329 0.96359 0.0
H151 H 0.28522 0.9057 0.90942 0.0
H152 H 0.2941 0.88784 0.93187 0.0
H153 H 0.31526 0.88263 0.03358 0.0
H154 H 0.32133 0.8965 0.08398 0.0
H155 H 0.25202 0.86147 0.07665 0.0
H156 H 0.23572 0.87138 0.99473 0.0
H157 H 0.33852 0.94109 0.99459 0.0
H158 H 0.31798 0.96158 0.04187 0.0
C159 C 0.37996 0.08958 0.92408 0.0
C160 C 0.37099 0.08625 0.89914 0.0
C161 C 0.35788 0.08539 0.90847 0.0
C162 C 0.35956 0.08833 0.93845 0.0
N163 N 0.3729 0.09101 0.94846 0.0
Co164 Co 0.37973 0.09577 0.99026 0.0
N165 N 0.35918 0.08728 0.00687 0.0
C166 C 0.34721 0.08468 0.99057 0.0
C167 C 0.33445 0.07922 0.00776 0.0
C168 C 0.33867 0.07849 0.03673 0.0
C169 C 0.35384 0.08354 0.0357 0.0
N170 N 0.38658 0.10062 0.03216 0.0
C171 C 0.37907 0.09591 0.05903 0.0
C172 C 0.38848 0.1023 0.08263 0.0
C173 C 0.40213 0.11148 0.07007 0.0
C174 C 0.40041 0.11018 0.03955 0.0
N175 N 0.40019 0.10403 0.97329 0.0
C176 C 0.41254 0.11308 0.9873 0.0
C177 C 0.42518 0.11595 0.97152 0.0
C178 C 0.42047 0.10824 0.94605 0.0
C179 C 0.40511 0.10117 0.94731 0.0
N180 N 0.38032 0.11426 0.9844 0.0
C181 C 0.38255 0.1414 0.97821 0.0
C182 C 0.37595 0.13257 1.0039 0.0
C183 C 0.37494 0.11914 0.00653 0.0
C184 C 0.38766 0.13614 0.95525 0.0
C185 C 0.38647 0.12258 0.9588 0.0
N186 N 0.37935 0.07761 0.9961 0.0
C187 C 0.39167 0.06436 0.0112 0.0
C188 C 0.3803 0.05217 0.99916 0.0
C189 C 0.36825 0.05281 0.98634 0.0
C190 C 0.36791 0.06562 0.98531 0.0
C191 C 0.39102 0.07701 0.00927 0.0
H192 H 0.35854 0.0659 0.97533 0.0
H193 H 0.40011 0.08637 0.01793 0.0
H194 H 0.36994 0.11277 0.02679 0.0
H195 H 0.39072 0.1189 0.94102 0.0
C196 C 0.34816 0.08583 0.959 0.0
C197 C 0.39539 0.0922 0.92336 0.0
C198 C 0.36294 0.08624 0.06282 0.0
C199 C 0.41185 0.11585 0.01769 0.0
H200 H 0.37363 0.0846 0.87661 0.0
H201 H 0.34806 0.0823 0.89528 0.0
H202 H 0.32335 0.07593 1.00012 0.0
H203 H 0.33145 0.07499 0.05645 0.0
H204 H 0.38581 0.10057 0.10645 0.0
H205 H 0.41221 0.11794 0.08189 0.0
H206 H 0.43649 0.1221 0.97865 0.0
H207 H 0.42765 0.10768 0.92915 0.0
H208 H 0.37154 0.13598 0.02199 0.0
H209 H 0.39288 0.14257 0.93501 0.0
H210 H 0.40108 0.06417 0.02152 0.0
H211 H 0.35906 0.04345 0.9775 0.0
C212 C 0.9183 0.29239 0.93803 0.0
C213 C 0.9221 0.28733 0.91315 0.0
C214 C 0.92373 0.27593 0.92329 0.0
C215 C 0.92072 0.27456 0.95368 0.0
N216 N 0.91727 0.28435 0.96322 0.0
Co217 Co 0.91212 0.28597 1.00541 0.0
N218 N 0.92166 0.27496 0.02205 0.0
C219 C 0.92522 0.26662 1.00598 0.0
C220 C 0.93161 0.2602 0.02297 0.0
C221 C 0.93189 0.26459 0.05162 0.0
C222 C 0.92549 0.27338 0.05069 0.0
N223 N 0.90688 0.28751 0.04768 0.0
C224 C 0.91176 0.2848 0.07433 0.0
C225 C 0.90444 0.28677 0.09833 0.0
C226 C 0.89465 0.29072 0.0863 0.0
C227 C 0.89644 0.29092 0.05567 0.0
N228 N 0.90281 0.29708 0.98839 0.0
C229 C 0.89304 0.29968 1.00307 0.0
C230 C 0.88952 0.30873 0.98684 0.0
C231 C 0.89754 0.31197 0.96033 0.0
C232 C 0.90545 0.30455 0.96151 0.0
N233 N 0.89333 0.26826 1.00264 0.0
C234 C 0.86564 0.24363 1.00065 0.0
C235 C 0.87083 0.25374 0.97652 0.0
C236 C 0.88467 0.26596 0.97797 0.0
C237 C 0.87483 0.24599 0.02538 0.0
C238 C 0.88855 0.25828 0.02592 0.0
N239 N 0.93056 0.30362 0.00806 0.0
C240 C 0.94298 0.32856 0.01769 0.0
C241 C 0.95563 0.33021 1.0028 0.0
C242 C 0.95581 0.31821 0.99199 0.0
C243 C 0.94319 0.30496 0.99519 0.0
C244 C 0.93052 0.31516 0.01997 0.0
H245 H 0.94348 0.29588 0.98636 0.0
H246 H 0.92069 0.31427 0.03039 0.0
H247 H 0.88827 0.27367 0.95931 0.0
H248 H 0.89519 0.25976 0.04548 0.0
C249 C 0.92402 0.26646 0.97458 0.0
C250 C 0.91495 0.3043 0.93666 0.0
C251 C 0.92198 0.27886 0.07779 0.0
C252 C 0.89019 0.29615 0.03396 0.0
H253 H 0.92362 0.29147 0.89012 0.0
H254 H 0.9274 0.26986 0.91029 0.0
H255 H 0.93586 0.25339 0.01534 0.0
H256 H 0.93612 0.26145 0.07103 0.0
H257 H 0.90582 0.28523 0.12205 0.0
H258 H 0.88733 0.29342 0.09849 0.0
H259 H 0.88271 0.31322 0.99418 0.0
H260 H 0.89773 0.31926 0.94272 0.0
H261 H 0.86411 0.25241 0.95697 0.0
H262 H 0.87147 0.23837 0.0443 0.0
H263 H 0.94257 0.33761 0.02669 0.0
H264 H 0.96562 0.31907 0.98115 0.0
C265 C 0.71816 0.62643 0.93701 0.0
C266 C 0.72281 0.6348 0.91057 0.0
C267 C 0.73464 0.64757 0.91767 0.0
C268 C 0.73666 0.64629 0.94791 0.0
N269 N 0.72686 0.63351 0.96019 0.0
Co270 Co 0.7261 0.62737 1.0031 0.0
N271 N 0.73736 0.64731 0.01616 0.0
C272 C 0.74563 0.65873 0.99779 0.0
C273 C 0.75229 0.67121 0.01267 0.0
C274 C 0.74811 0.6674 0.04232 0.0
C275 C 0.73919 0.65271 0.04402 0.0
N276 N 0.72544 0.62122 0.04608 0.0
C277 C 0.72832 0.6287 0.07159 0.0
C278 C 0.72692 0.62005 0.09671 0.0
C279 C 0.72314 0.60682 0.08653 0.0
C280 C 0.72246 0.60807 0.0558 0.0
N281 N 0.71469 0.60751 0.98969 0.0
C282 C 0.7126 0.59582 1.00578 0.0
C283 C 0.70317 0.58348 0.99211 0.0
C284 C 0.69914 0.58771 0.96582 0.0
C285 C 0.70648 0.60249 0.96454 0.0
N286 N 0.74469 0.62688 0.99726 0.0
C287 C 0.77087 0.62518 0.99022 0.0
C288 C 0.75964 0.6196 0.96895 0.0
C289 C 0.74671 0.62061 0.97281 0.0
C290 C 0.76871 0.63181 0.01485 0.0
C291 C 0.75561 0.6325 0.01799 0.0
N292 N 0.70759 0.62758 0.00879 0.0
C293 C 0.68187 0.61492 0.02342 0.0
C294 C 0.67958 0.6252 0.00793 0.0
C295 C 0.69169 0.6371 0.99434 0.0
C296 C 0.70566 0.63817 0.99533 0.0
C297 C 0.69598 0.61629 0.02349 0.0
H298 H 0.71479 0.64729 0.98429 0.0
H299 H 0.69735 0.60791 0.03445 0.0
H300 H 0.73827 0.61615 0.95613 0.0
H301 H 0.75431 0.63753 0.0374 0.0
C302 C 0.7453 0.65751 0.96647 0.0
C303 C 0.70603 0.61158 0.93894 0.0
C304 C 0.73382 0.6442 0.07264 0.0
C305 C 0.7169 0.59683 0.03596 0.0
H306 H 0.71812 0.632 0.8885 0.0
H307 H 0.74055 0.6569 0.90283 0.0
H308 H 0.75906 0.68186 1.00305 0.0
H309 H 0.75145 0.67462 0.06058 0.0
H310 H 0.72867 0.62304 0.11992 0.0
H311 H 0.72076 0.59733 0.10003 0.0
H312 H 0.69894 0.57268 1.00107 0.0
H313 H 0.6914 0.58062 0.95001 0.0
H314 H 0.76064 0.61424 0.94968 0.0
H315 H 0.77713 0.63656 0.03162 0.0
H316 H 0.67277 0.60569 0.03454 0.0
H317 H 0.69036 0.6455 0.98295 0.0
C318 C 0.8796 0.63747 0.95162 0.0
C319 C 0.87733 0.64761 0.93568 0.0
C320 C 0.89095 0.6584 0.92716 0.0
C321 C 0.90074 0.65433 0.93844 0.0
N322 N 0.89422 0.64147 0.95327 0.0
Co323 Co 0.90441 0.63205 0.97519 0.0
N324 N 0.92442 0.64891 0.96641 0.0
C325 C 0.92738 0.66099 0.95042 0.0
C326 C 0.94212 0.67076 0.94833 0.0
C327 C 0.94904 0.66456 0.96384 0.0
C328 C 0.93807 0.65126 0.97442 0.0
N329 N 0.91458 0.62266 0.99736 0.0
C330 C 0.92917 0.62752 1.00261 0.0
C331 C 0.93148 0.61752 0.01891 0.0
C332 C 0.91789 0.60594 0.02424 0.0
C333 C 0.90808 0.60949 0.01091 0.0
N334 N 0.88437 0.61522 0.98399 0.0
C335 C 0.88139 0.60276 0.99837 0.0
C336 C 0.86656 0.59344 1.00208 0.0
C337 C 0.85964 0.60046 0.98983 0.0
C338 C 0.87069 0.61372 0.97943 0.0
N339 N 0.90617 0.62359 0.93734 0.0
C340 C 0.91316 0.61263 0.88687 0.0
C341 C 0.90666 0.6041 0.91281 0.0
C342 C 0.90317 0.6097 0.93735 0.0
C343 C 0.91526 0.62651 0.88596 0.0
C344 C 0.91161 0.6317 0.91117 0.0
N345 N 0.90286 0.64043 0.01298 0.0
C346 C 0.89791 0.63796 0.06653 0.0
C347 C 0.90294 0.65253 0.06801 0.0
C348 C 0.90733 0.66087 0.04123 0.0
C349 C 0.90711 0.65462 0.01409 0.0
C350 C 0.89796 0.63219 0.03905 0.0
H351 H 0.91064 0.66149 0.99437 0.0
H352 H 0.8943 0.62107 0.0396 0.0
H353 H 0.89846 0.60262 0.95632 0.0
H354 H 0.91361 0.64238 0.9091 0.0
C355 C 0.91606 0.66294 0.93797 0.0
C356 C 0.86764 0.62469 0.9664 0.0
C357 C 0.94123 0.64134 0.99211 0.0
C358 C 0.89273 0.60069 0.01065 0.0
H359 H 0.86697 0.64752 0.93145 0.0
H360 H 0.89344 0.66831 0.91529 0.0
H361 H 0.94721 0.68118 0.937 0.0
H362 H 0.96085 0.66934 0.96705 0.0
H363 H 0.94193 0.61846 0.02604 0.0
H364 H 0.91545 0.59609 0.0363 0.0
H365 H 0.8614 0.58301 0.01336 0.0
H366 H 0.8478 0.59643 0.98928 0.0
H367 H 0.90477 0.59327 0.91484 0.0
H368 H 0.91985 0.63343 0.86603 0.0
H369 H 0.89452 0.63106 0.08667 0.0
H370 H 0.91109 0.67219 0.04124 0.0
C371 C 0.39774 0.29616 0.94514 0.0
C372 C 0.41282 0.30542 0.94698 0.0
C373 C 0.41713 0.30254 0.97439 0.0
C374 C 0.40449 0.29184 0.98791 0.0
N375 N 0.39257 0.28788 0.97061 0.0
Co376 Co 0.37201 0.27366 0.98182 0.0
N377 N 0.37648 0.27549 0.02508 0.0
C378 C 0.39 0.28059 0.03698 0.0
C379 C 0.3896 0.28028 0.06784 0.0
C380 C 0.3749 0.27454 0.07572 0.0
C381 C 0.36714 0.27169 0.04908 0.0
N382 N 0.35145 0.25934 0.99295 0.0
C383 C 0.34415 0.25682 0.01964 0.0
C384 C 0.32977 0.24576 0.01772 0.0
C385 C 0.32821 0.24113 0.98887 0.0
C386 C 0.34166 0.24963 0.97473 0.0
N387 N 0.36769 0.27195 0.93853 0.0
C388 C 0.35638 0.26095 0.92565 0.0
C389 C 0.35617 0.26323 0.89505 0.0
C390 C 0.36808 0.27647 0.88858 0.0
C391 C 0.37486 0.28153 0.91568 0.0
N392 N 0.37723 0.25836 0.98049 0.0
C393 C 0.38263 0.23516 0.97762 0.0
C394 C 0.38783 0.24591 0.95473 0.0
C395 C 0.38513 0.25748 0.95672 0.0
C396 C 0.37487 0.23643 1.00207 0.0
C397 C 0.37227 0.24801 1.00304 0.0
N398 N 0.36653 0.28871 0.98322 0.0
C399 C 0.34914 0.29696 0.97136 0.0
C400 C 0.3574 0.30933 0.98715 0.0
C401 C 0.37052 0.31126 1.00056 0.0
C402 C 0.37492 0.30086 0.9982 0.0
C403 C 0.35386 0.28683 0.96971 0.0
H404 H 0.38501 0.30253 0.00879 0.0
H405 H 0.34707 0.27733 0.95787 0.0
H406 H 0.38923 0.26561 0.93884 0.0
H407 H 0.36596 0.24839 0.02191 0.0
C408 C 0.40274 0.28773 0.01857 0.0
C409 C 0.38848 0.29505 0.91915 0.0
C410 C 0.35093 0.26412 0.04735 0.0
C411 C 0.34468 0.25054 0.94363 0.0
H412 H 0.42 0.31361 0.93077 0.0
H413 H 0.42798 0.30824 0.98405 0.0
H414 H 0.39888 0.28421 0.08282 0.0
H415 H 0.37043 0.27251 0.09846 0.0
H416 H 0.3213 0.24145 0.03527 0.0
H417 H 0.31828 0.23295 0.9791 0.0
H418 H 0.3479 0.25647 0.87954 0.0
H419 H 0.37136 0.28182 0.8666 0.0
H420 H 0.394 0.24543 0.93553 0.0
H421 H 0.37044 0.22832 0.02009 0.0
H422 H 0.33882 0.29484 0.96105 0.0
H423 H 0.37732 0.32071 0.01278 0.0
C424 C 0.70862 0.10637 0.97484 0.0
C425 C 0.6984 0.11128 0.97407 0.0
C426 C 0.69927 0.11738 1.00112 0.0
C427 C 0.70985 0.11578 0.01689 0.0
N428 N 0.71564 0.10909 1.00131 0.0
Co429 Co 0.73054 0.10385 0.01543 0.0
N430 N 0.72572 0.10491 0.05788 0.0
C431 C 0.7189 0.11198 0.06796 0.0
C432 C 0.7174 0.1111 0.09873 0.0
C433 C 0.72379 0.1031 0.1085 0.0
C434 C 0.72885 0.09951 0.08301 0.0
N435 N 0.74559 0.09874 0.02948 0.0
C436 C 0.74715 0.09392 0.05704 0.0
C437 C 0.75939 0.09178 0.05733 0.0
C438 C 0.76576 0.09566 0.02901 0.0
C439 C 0.75708 0.09988 0.01297 0.0
N440 N 0.73525 0.10288 0.9729 0.0
C441 C 0.74778 0.10372 0.9619 0.0
C442 C 0.74725 0.10198 0.93134 0.0
C443 C 0.73352 0.09989 0.92293 0.0
C444 C 0.72647 0.10046 0.94893 0.0
N445 N 0.74556 0.12402 0.01468 0.0
C446 C 0.76917 0.15198 0.01106 0.0
C447 C 0.76696 0.14306 0.03656 0.0
C448 C 0.75515 0.12919 0.03792 0.0
C449 C 0.75896 0.14672 0.98782 0.0
C450 C 0.7472 0.13277 0.99016 0.0
N451 N 0.71574 0.08367 0.01585 0.0
C452 C 0.70873 0.06008 1.00022 0.0
C453 C 0.69449 0.05496 0.01242 0.0
C454 C 0.69115 0.06444 0.02702 0.0
C455 C 0.70191 0.07882 0.02824 0.0
C456 C 0.71919 0.07435 1.00248 0.0
H457 H 0.69904 0.08605 0.03887 0.0
H458 H 0.73006 0.07789 0.99298 0.0
H459 H 0.75407 0.12252 0.0575 0.0
H460 H 0.73962 0.12893 0.97177 0.0
C461 C 0.7121 0.1173 0.04788 0.0
C462 C 0.71178 0.09935 0.95048 0.0
C463 C 0.73793 0.09238 0.08362 0.0
C464 C 0.75789 0.10271 0.98166 0.0
H465 H 0.69092 0.11037 0.95626 0.0
H466 H 0.69233 0.12162 0.00901 0.0
H467 H 0.71195 0.1154 0.11239 0.0
H468 H 0.72484 0.10046 0.13176 0.0
H469 H 0.76337 0.08795 0.07606 0.0
H470 H 0.77529 0.09499 0.02088 0.0
H471 H 0.75545 0.1014 0.91717 0.0
H472 H 0.72914 0.09803 0.90047 0.0
H473 H 0.77461 0.14656 0.05497 0.0
H474 H 0.76008 0.1533 0.96789 0.0
H475 H 0.71183 0.05304 0.98923 0.0
H476 H 0.68026 0.06084 0.03685 0.0
C477 C 0.60738 0.89791 0.04032 0.0
C478 C 0.59216 0.89249 0.04225 0.0
C479 C 0.58662 0.88632 0.01539 0.0
C480 C 0.59872 0.8884 0.99858 0.0
N481 N 0.61144 0.89545 0.01333 0.0
Co482 Co 0.63153 0.9013 0.99766 0.0
N483 N 0.62488 0.89991 0.95571 0.0
C484 C 0.61082 0.89247 0.94657 0.0
C485 C 0.60966 0.89327 0.91592 0.0
C486 C 0.62387 0.90163 0.90521 0.0
C487 C 0.63296 0.90548 0.93006 0.0
N488 N 0.65163 0.907 0.98203 0.0
C489 C 0.65749 0.91188 0.9541 0.0
C490 C 0.67202 0.91446 0.95259 0.0
C491 C 0.67518 0.91084 0.98053 0.0
C492 C 0.66247 0.9063 0.99757 0.0
N493 N 0.638 0.9026 0.03971 0.0
C494 C 0.65012 0.90225 0.04962 0.0
C495 C 0.65178 0.90399 0.08012 0.0
C496 C 0.63996 0.90554 0.08968 0.0
C497 C 0.63179 0.90468 0.06437 0.0
N498 N 0.62698 0.88132 0.99827 0.0
C499 C 0.62376 0.85383 1.00186 0.0
C500 C 0.61899 0.85894 0.02563 0.0
C501 C 0.62057 0.87264 0.02328 0.0
C502 C 0.62963 0.8626 0.97582 0.0
C503 C 0.63118 0.87626 0.97451 0.0
N504 N 0.63632 0.9213 0.9974 0.0
C505 C 0.65267 0.9451 0.01234 0.0
C506 C 0.64304 0.94977 1.0011 0.0
C507 C 0.63007 0.93996 0.9873 0.0
C508 C 0.62683 0.9257 0.98595 0.0
C509 C 0.64922 0.93095 0.00995 0.0
H510 H 0.61661 0.91821 0.97597 0.0
H511 H 0.65696 0.92777 0.01869 0.0
H512 H 0.61697 0.87636 0.04206 0.0
H513 H 0.63621 0.88289 0.95454 0.0
C514 C 0.599 0.88687 0.9675 0.0
C515 C 0.61784 0.90511 0.06418 0.0
C516 C 0.64919 0.91309 0.92831 0.0
C517 C 0.66105 0.90357 0.02893 0.0
H518 H 0.58572 0.89307 0.06076 0.0
H519 H 0.57525 0.8817 0.00833 0.0
H520 H 0.59966 0.8887 0.90296 0.0
H521 H 0.62717 0.90435 0.88176 0.0
H522 H 0.67951 0.91844 0.9333 0.0
H523 H 0.68564 0.91187 0.98777 0.0
H524 H 0.66091 0.90488 0.09354 0.0
H525 H 0.63765 0.90722 0.11247 0.0
H526 H 0.61416 0.85244 0.04599 0.0
H527 H 0.63355 0.85914 0.95696 0.0
H528 H 0.66293 0.95241 0.02268 0.0
H529 H 0.62237 0.9432 0.97823 0.0
C530 C 0.10168 0.70925 0.07869 0.0
C531 C 0.1082 0.70073 0.08375 0.0
C532 C 0.11652 0.70226 0.05832 0.0
C533 C 0.11461 0.71163 0.03933 0.0
N534 N 0.10568 0.71604 0.05145 0.0
Co535 Co 0.09967 0.72925 0.03254 0.0
N536 N 0.10392 0.72509 0.99198 0.0
C537 C 0.1128 0.71958 0.98541 0.0
C538 C 0.11381 0.71816 0.95509 0.0
C539 C 0.10511 0.72319 0.94191 0.0
C540 C 0.09923 0.72739 0.96505 0.0
N541 N 0.09387 0.74269 0.0136 0.0
C542 C 0.09017 0.74369 0.9848 0.0
C543 C 0.08675 0.75466 0.98098 0.0
C544 C 0.08866 0.76081 0.00835 0.0
C545 C 0.09305 0.75324 0.0274 0.0
N546 N 0.09535 0.73313 0.07336 0.0
C547 C 0.09429 0.74456 0.0813 0.0
C548 C 0.08996 0.74349 0.11095 0.0
C549 C 0.0882 0.73061 0.12206 0.0
C550 C 0.09167 0.72454 0.09852 0.0
N551 N 0.12007 0.74492 0.03456 0.0
C552 C 0.14784 0.76957 0.03815 0.0
C553 C 0.14138 0.76016 0.06329 0.0
C554 C 0.12763 0.74783 0.0609 0.0
C555 C 0.1403 0.7658 0.01089 0.0
C556 C 0.12647 0.7537 0.00972 0.0
N557 N 0.07922 0.71388 0.03042 0.0
C558 C 0.05326 0.70591 0.03779 0.0
C559 C 0.04962 0.69264 0.02656 0.0
C560 C 0.06117 0.69019 0.01737 0.0
C561 C 0.07592 0.70092 0.01972 0.0
C562 C 0.06802 0.71633 0.03938 0.0
H563 H 0.08466 0.69881 0.01271 0.0
H564 H 0.07033 0.72648 0.04764 0.0
H565 H 0.12288 0.74088 0.08065 0.0
H566 H 0.1208 0.7517 0.98867 0.0
C567 C 0.11801 0.7139 0.00839 0.0
C568 C 0.0919 0.71095 0.10002 0.0
C569 C 0.09064 0.73491 0.96061 0.0
C570 C 0.09377 0.75392 0.05894 0.0
H571 H 0.10688 0.69398 0.10349 0.0
H572 H 0.12246 0.69654 0.05359 0.0
H573 H 0.11978 0.71363 0.94392 0.0
H574 H 0.1035 0.72391 0.91801 0.0
H575 H 0.08323 0.7579 0.96064 0.0
H576 H 0.08646 0.76934 0.01393 0.0
H577 H 0.08736 0.75071 0.12258 0.0
H578 H 0.08453 0.72617 0.14461 0.0
H579 H 0.14659 0.76242 0.08495 0.0
H580 H 0.14489 0.7722 0.99036 0.0
H581 H 0.04474 0.70841 0.04463 0.0
H582 H 0.05884 0.68005 0.00862 0.0
C583 C 0.2427 0.36493 0.06232 0.0
C584 C 0.23067 0.35545 0.08014 0.0
C585 C 0.23337 0.34465 0.0891 0.0
C586 C 0.24687 0.34819 0.07643 0.0
N587 N 0.25313 0.36075 0.06045 0.0
Co588 Co 0.27245 0.36972 0.03746 0.0
N589 N 0.27531 0.35277 0.04654 0.0
C590 C 0.2662 0.34088 0.0632 0.0
C591 C 0.2709 0.33095 0.06515 0.0
C592 C 0.28384 0.33683 0.04889 0.0
C593 C 0.28635 0.35014 0.03806 0.0
N594 N 0.29174 0.37867 0.01425 0.0
C595 C 0.30128 0.37363 0.0089 0.0
C596 C 0.31354 0.38341 0.992 0.0
C597 C 0.31168 0.39502 0.98639 0.0
C598 C 0.29847 0.39172 1.00018 0.0
N599 N 0.26944 0.38662 0.02832 0.0
C600 C 0.27887 0.39886 0.01308 0.0
C601 C 0.27335 0.40809 0.00855 0.0
C602 C 0.25945 0.40125 0.02113 0.0
C603 C 0.2573 0.38821 0.0328 0.0
N604 N 0.28334 0.37854 0.07459 0.0
C605 C 0.3024 0.38982 0.12364 0.0
C606 C 0.30405 0.39814 0.09755 0.0
C607 C 0.29441 0.39241 0.07376 0.0
C608 C 0.29041 0.37601 0.12546 0.0
C609 C 0.28106 0.37066 0.10097 0.0
N610 N 0.26188 0.36095 1.00037 0.0
C611 C 0.25887 0.36279 0.94684 0.0
C612 C 0.24899 0.34824 0.94624 0.0
C613 C 0.2452 0.34023 0.97346 0.0
C614 C 0.25164 0.34679 1.00016 0.0
C615 C 0.26511 0.36887 0.97387 0.0
H616 H 0.24837 0.3402 0.02029 0.0
H617 H 0.27279 0.37995 0.97264 0.0
H618 H 0.29649 0.39935 0.05465 0.0
H619 H 0.27229 0.36003 0.10375 0.0
C620 C 0.25326 0.33933 0.07665 0.0
C621 C 0.24328 0.37728 0.04621 0.0
C622 C 0.2994 0.35985 0.01991 0.0
C623 C 0.29209 0.40064 1.00035 0.0
H624 H 0.22075 0.35607 0.0853 0.0
H625 H 0.22609 0.33508 0.10222 0.0
H626 H 0.26555 0.32064 0.07695 0.0
H627 H 0.29064 0.33185 0.04543 0.0
H628 H 0.32291 0.3823 0.98468 0.0
H629 H 0.3191 0.40474 0.97387 0.0
H630 H 0.27853 0.41827 0.99625 0.0
H631 H 0.25162 0.40524 0.02077 0.0
H632 H 0.31309 0.40892 0.0948 0.0
H633 H 0.28829 0.36924 0.14555 0.0
H634 H 0.26226 0.36944 0.92633 0.0
H635 H 0.23741 0.32894 0.97417 0.0
C636 C 0.76002 0.7115 0.40798 0.0
C637 C 0.756 0.7029 0.43411 0.0
C638 C 0.75494 0.69015 0.42659 0.0
C639 C 0.75846 0.69166 0.39642 0.0
N640 N 0.76168 0.70456 0.38457 0.0
Co641 Co 0.76741 0.71102 0.34187 0.0
N642 N 0.75849 0.69119 0.32811 0.0
C643 C 0.75528 0.67965 0.34606 0.0
C644 C 0.74972 0.66733 0.33065 0.0
C645 C 0.74956 0.67138 0.3011 0.0
C646 C 0.75504 0.68602 0.30003 0.0
N647 N 0.77322 0.71747 0.29908 0.0
C648 C 0.76867 0.71022 0.27325 0.0
C649 C 0.77581 0.71918 0.2484 0.0
C650 C 0.78533 0.73228 0.25909 0.0
C651 C 0.78346 0.7307 0.28981 0.0
N652 N 0.7761 0.73076 0.35605 0.0
C653 C 0.7859 0.74253 0.34036 0.0
C654 C 0.78891 0.75479 0.35443 0.0
C655 C 0.78051 0.75043 0.38055 0.0
C656 C 0.7729 0.73565 0.38137 0.0
N657 N 0.78632 0.71116 0.34786 0.0
C658 C 0.81366 0.71175 0.35555 0.0
C659 C 0.80524 0.7061 0.32991 0.0
C660 C 0.79167 0.70585 0.32659 0.0
C661 C 0.80802 0.71711 0.37728 0.0
C662 C 0.79439 0.71674 0.373 0.0
N663 N 0.74883 0.71108 0.33601 0.0
C664 C 0.73589 0.72372 0.32074 0.0
C665 C 0.72312 0.71328 0.3355 0.0
C666 C 0.7232 0.70138 0.34924 0.0
C667 C 0.73613 0.70039 0.34888 0.0
C668 C 0.7487 0.72246 0.32144 0.0
H669 H 0.73601 0.6912 0.35982 0.0
H670 H 0.75859 0.73094 0.31101 0.0
H671 H 0.78556 0.70142 0.30658 0.0
H672 H 0.79036 0.72098 0.39006 0.0
C673 C 0.75597 0.6806 0.37747 0.0
C674 C 0.7631 0.72645 0.40662 0.0
C675 C 0.75846 0.69473 0.27167 0.0
C676 C 0.78919 0.74174 0.3101 0.0
H677 H 0.75404 0.70555 0.45627 0.0
H678 H 0.75135 0.6807 0.44112 0.0
H679 H 0.74599 0.65663 0.33983 0.0
H680 H 0.74618 0.6644 0.28239 0.0
H681 H 0.77436 0.71656 0.22497 0.0
H682 H 0.79236 0.74192 0.24592 0.0
H683 H 0.79561 0.76564 0.34579 0.0
H684 H 0.77987 0.75744 0.39652 0.0
H685 H 0.80916 0.70205 0.31216 0.0
H686 H 0.81397 0.72143 0.39767 0.0
H687 H 0.73607 0.73293 0.3095 0.0
H688 H 0.71331 0.6929 0.36012 0.0
C689 C 0.2935 0.04589 0.40923 0.0
C690 C 0.30228 0.05104 0.43424 0.0
C691 C 0.31536 0.06245 0.4242 0.0
C692 C 0.31385 0.06375 0.39375 0.0
N693 N 0.30062 0.0539 0.38408 0.0
Co694 Co 0.29402 0.05221 0.34179 0.0
N695 N 0.31468 0.06319 0.32545 0.0
C696 C 0.32655 0.07157 0.34163 0.0
C697 C 0.33946 0.07793 0.32484 0.0
C698 C 0.33546 0.07346 0.29618 0.0
C699 C 0.32022 0.06468 0.29692 0.0
N700 N 0.28739 0.05064 0.29943 0.0
C701 C 0.2951 0.05337 0.2729 0.0
C702 C 0.2859 0.0514 0.24874 0.0
C703 C 0.27209 0.04743 0.26053 0.0
C704 C 0.27356 0.04722 0.29119 0.0
N705 N 0.27349 0.04104 0.35853 0.0
C706 C 0.26115 0.03839 0.34363 0.0
C707 C 0.2485 0.02928 0.35968 0.0
C708 C 0.2532 0.02606 0.38631 0.0
C709 C 0.26855 0.03354 0.38538 0.0
N710 N 0.29296 0.06992 0.34418 0.0
C711 C 0.28975 0.09452 0.34462 0.0
C712 C 0.28384 0.08405 0.36813 0.0
C713 C 0.28572 0.07196 0.36765 0.0
C714 C 0.29774 0.09249 0.32156 0.0
C715 C 0.299 0.08014 0.32151 0.0
N716 N 0.29481 0.03459 0.33935 0.0
C717 C 0.28267 0.0098 0.32845 0.0
C718 C 0.29407 0.00834 0.34204 0.0
C719 C 0.3061 0.02037 0.35335 0.0
C720 C 0.3063 0.03342 0.35162 0.0
C721 C 0.28325 0.02303 0.32735 0.0
H722 H 0.31558 0.04251 0.36073 0.0
H723 H 0.27414 0.02379 0.31745 0.0
H724 H 0.28105 0.06411 0.386 0.0
H725 H 0.30474 0.07885 0.30273 0.0
C726 C 0.32537 0.07182 0.37299 0.0
C727 C 0.27824 0.03388 0.41043 0.0
C728 C 0.3113 0.05923 0.26971 0.0
C729 C 0.26196 0.04194 0.31272 0.0
H730 H 0.29955 0.04693 0.45728 0.0
H731 H 0.32507 0.06857 0.43733 0.0
H732 H 0.35052 0.08476 0.33259 0.0
H733 H 0.3429 0.07657 0.27689 0.0
H734 H 0.28891 0.05293 0.22506 0.0
H735 H 0.26211 0.04471 0.24817 0.0
H736 H 0.23721 0.02474 0.35217 0.0
H737 H 0.24603 0.01874 0.40384 0.0
H738 H 0.27751 0.08494 0.38649 0.0
H739 H 0.30304 0.10035 0.30336 0.0
H740 H 0.27324 1.00076 0.31926 0.0
H741 H 0.31537 0.01975 0.36324 0.0
C742 C 0.95949 0.24715 0.42307 0.0
C743 C 0.95358 0.25004 0.44819 0.0
C744 C 0.94115 0.25058 0.43898 0.0
C745 C 0.94006 0.24791 0.40887 0.0
N746 N 0.95101 0.24569 0.39867 0.0
Co747 Co 0.95345 0.24151 0.35661 0.0
N748 N 0.94103 0.24964 0.34043 0.0
C749 C 0.93136 0.25174 0.3569 0.0
C750 C 0.92387 0.25705 0.33997 0.0
C751 C 0.92902 0.25822 0.31099 0.0
C752 C 0.93944 0.25356 0.31176 0.0
N753 N 0.95585 0.23726 0.31445 0.0
C754 C 0.95301 0.24207 0.2878 0.0
C755 C 0.95637 0.23612 0.26386 0.0
C756 C 0.96111 0.22711 0.27597 0.0
C757 C 0.9605 0.22806 0.30657 0.0
N758 N 0.966 0.2336 0.37314 0.0
C759 C 0.96966 0.22493 0.35869 0.0
C760 C 0.97958 0.22224 0.37432 0.0
C761 C 0.98228 0.22966 0.40015 0.0
C762 C 0.97368 0.23639 0.39923 0.0
N763 N 0.93578 0.22271 0.36164 0.0
C764 C 0.91103 0.19535 0.36702 0.0
C765 C 0.91329 0.20428 0.34152 0.0
C766 C 0.92563 0.21782 0.33929 0.0
C767 C 0.92133 0.20059 0.39015 0.0
C768 C 0.93362 0.21425 0.38699 0.0
N769 N 0.97099 0.26 0.35163 0.0
C770 C 0.99662 0.27406 0.3371 0.0
C771 C 0.99699 0.28593 0.34971 0.0
C772 C 0.98403 0.28471 0.36257 0.0
C773 C 0.9711 0.27167 0.363 0.0
C774 C 0.98351 0.26115 0.33847 0.0
H775 H 0.96124 0.27097 0.37298 0.0
H776 H 0.9836 0.25205 0.32936 0.0
H777 H 0.92698 0.22428 0.31922 0.0
H778 H 0.94149 0.21793 0.40491 0.0
C779 C 0.93104 0.25029 0.38845 0.0
C780 C 0.97257 0.24497 0.42357 0.0
C781 C 0.94617 0.2514 0.28448 0.0
C782 C 0.9664 0.22243 0.32815 0.0
H783 H 0.95783 0.25162 0.47077 0.0
H784 H 0.93419 0.25331 0.45235 0.0
H785 H 0.91581 0.25997 0.3478 0.0
H786 H 0.92525 0.26175 0.29143 0.0
H787 H 0.95545 0.23802 0.24011 0.0
H788 H 0.96503 0.22098 0.26382 0.0
H789 H 0.98502 0.21641 0.36689 0.0
H790 H 0.99003 0.23027 0.41708 0.0
H791 H 0.90552 0.20087 0.3233 0.0
H792 H 0.9201 0.19407 0.41025 0.0
H793 H 0.00643 0.27469 0.32673 0.0
H794 H 0.98385 0.29381 0.37184 0.0
C795 C 0.04369 0.42214 0.25409 0.0
C796 C 0.03379 0.41745 0.23064 0.0
C797 C 0.02083 0.41654 0.24112 0.0
C798 C 0.02338 0.42054 0.27041 0.0
N799 N 0.03714 0.4239 0.27895 0.0
Co800 Co 0.04486 0.42905 0.32019 0.0
N801 N 0.02468 0.42043 0.3387 0.0
C802 C 0.0123 0.41752 0.32362 0.0
C803 C 0.99993 0.41207 0.342 0.0
C804 C 0.00485 0.41166 0.37046 0.0
C805 C 0.02003 0.41686 0.36794 0.0
N806 N 0.05265 0.43418 0.36142 0.0
C807 C 0.04578 0.42947 0.3889 0.0
C808 C 0.05567 0.43611 0.41165 0.0
C809 C 0.06898 0.44544 0.39791 0.0
C810 C 0.06658 0.44399 0.36757 0.0
N811 N 0.06492 0.43751 0.30143 0.0
C812 C 0.07747 0.4471 0.31395 0.0
C813 C 0.08976 0.45066 0.29614 0.0
C814 C 0.08455 0.44276 0.27097 0.0
C815 C 0.06933 0.43473 0.27482 0.0
N816 N 0.04496 0.44736 0.31479 0.0
C817 C 0.04535 0.47381 0.30842 0.0
C818 C 0.04095 0.46564 0.33561 0.0
C819 C 0.04059 0.45249 0.33812 0.0
C820 C 0.04964 0.4683 0.28445 0.0
C821 C 0.04951 0.45518 0.28819 0.0
N822 N 0.04491 0.41105 0.32556 0.0
C823 C 0.05777 0.39811 0.33902 0.0
C824 C 0.04615 0.38576 0.32813 0.0
C825 C 0.03372 0.38616 0.31672 0.0
C826 C 0.03325 0.39889 0.31596 0.0
C827 C 0.05698 0.41071 0.33729 0.0
H828 H 0.02356 0.39895 0.30715 0.0
H829 H 0.06626 0.42022 0.34498 0.0
H830 H 0.03685 0.44654 0.35925 0.0
H831 H 0.05307 0.45136 0.26952 0.0
C832 C 0.01246 0.41816 0.29205 0.0
C833 C 0.05931 0.42526 0.25208 0.0
C834 C 0.02974 0.41969 0.39406 0.0
C835 C 0.07749 0.44994 0.34455 0.0
H836 H 0.03551 0.41466 0.20848 0.0
H837 H 0.01049 0.41252 0.22935 0.0
H838 H 0.98862 0.40851 0.33544 0.0
H839 H 0.99808 0.40821 0.39081 0.0
H840 H 0.05352 0.43449 0.43566 0.0
H841 H 0.07927 0.45216 0.40882 0.0
H842 H 0.10121 0.45756 0.30149 0.0
H843 H 0.09118 0.44282 0.25205 0.0
H844 H 0.03794 0.46936 0.3553 0.0
H845 H 0.05297 0.47394 0.26278 0.0
H846 H 0.06745 0.39808 0.34829 0.0
H847 H 0.02437 0.37666 0.30878 0.0
C848 C 0.58335 0.62436 0.27072 0.0
C849 C 0.58921 0.62047 0.24701 0.0
C850 C 0.59289 0.61065 0.25844 0.0
C851 C 0.58924 0.60912 0.28845 0.0
N852 N 0.58318 0.61718 0.29684 0.0
Co853 Co 0.57762 0.61899 0.33919 0.0
N854 N 0.58714 0.60796 0.35705 0.0
C855 C 0.59398 0.60215 0.34143 0.0
C856 C 0.6003 0.59595 0.35922 0.0
C857 C 0.59745 0.59799 0.38803 0.0
C858 C 0.58937 0.60523 0.38625 0.0
N859 N 0.57179 0.62052 0.38146 0.0
C860 C 0.57501 0.61631 0.4085 0.0
C861 C 0.56832 0.6193 0.43213 0.0
C862 C 0.5608 0.62571 0.41974 0.0
C863 C 0.56319 0.62624 0.38929 0.0
N864 N 0.56896 0.63076 0.32133 0.0
C865 C 0.56158 0.63612 0.33665 0.0
C866 C 0.55817 0.64493 0.31929 0.0
C867 C 0.56409 0.64556 0.2914 0.0
C868 C 0.57085 0.63711 0.29329 0.0
N869 N 0.55836 0.60099 0.33581 0.0
C870 C 0.53111 0.57529 0.33543 0.0
C871 C 0.53159 0.5882 0.34092 0.0
C872 C 0.54513 0.60077 0.34077 0.0
C873 C 0.54448 0.57551 0.32911 0.0
C874 C 0.55784 0.58833 0.32947 0.0
N875 N 0.59639 0.63675 0.34245 0.0
C876 C 0.60926 0.66152 0.35454 0.0
C877 C 0.6217 0.66346 0.33844 0.0
C878 C 0.62162 0.6517 0.32585 0.0
C879 C 0.60898 0.63845 0.32849 0.0
C880 C 0.59675 0.64813 0.35621 0.0
H881 H 0.60946 0.62977 0.31856 0.0
H882 H 0.58739 0.6473 0.36811 0.0
H883 H 0.54447 0.61009 0.34493 0.0
H884 H 0.56755 0.58762 0.32487 0.0
C885 C 0.59427 0.60274 0.30999 0.0
C886 C 0.5791 0.63562 0.26789 0.0
C887 C 0.5842 0.60936 0.41299 0.0
C888 C 0.55904 0.63349 0.36781 0.0
H889 H 0.59138 0.62475 0.2241 0.0
H890 H 0.59864 0.60605 0.24671 0.0
H891 H 0.6064 0.5907 0.35208 0.0
H892 H 0.60105 0.59461 0.40805 0.0
H893 H 0.56893 0.61717 0.4559 0.0
H894 H 0.55467 0.62989 0.43162 0.0
H895 H 0.55253 0.65064 0.32634 0.0
H896 H 0.56376 0.6518 0.27203 0.0
H897 H 0.52151 0.58867 0.34523 0.0
H898 H 0.5447 0.56576 0.32467 0.0
H899 H 0.60905 0.67034 0.36515 0.0
H900 H 0.63132 0.65271 0.31419 0.0
C901 C 0.38542 0.95989 0.27101 0.0
C902 C 0.3903 0.96832 0.24468 0.0
C903 C 0.40225 0.98096 0.25204 0.0
C904 C 0.4041 0.97955 0.28232 0.0
N905 N 0.39409 0.96681 0.29438 0.0
Co906 Co 0.39297 0.96052 0.33731 0.0
N907 N 0.40447 0.9804 0.35062 0.0
C908 C 0.41302 0.99179 0.33243 0.0
C909 C 0.41981 0.00423 0.34744 0.0
C910 C 0.41543 1.00041 0.37699 0.0
C911 C 0.40626 0.98576 0.37852 0.0
N912 N 0.39186 0.95422 0.38032 0.0
C913 C 0.39469 0.96166 0.40589 0.0
C914 C 0.39291 0.95288 0.43102 0.0
C915 C 0.38894 0.93962 0.42078 0.0
C916 C 0.38854 0.94098 0.39002 0.0
N917 N 0.38137 0.94074 0.32362 0.0
C918 C 0.37897 0.92894 0.33969 0.0
C919 C 0.36948 0.9167 0.3258 0.0
C920 C 0.36572 0.9211 0.29939 0.0
C921 C 0.37329 0.93588 0.29826 0.0
N922 N 0.41141 0.9597 0.33203 0.0
C923 C 0.43776 0.95831 0.32499 0.0
C924 C 0.43519 0.96423 0.35038 0.0
C925 C 0.42206 0.96487 0.3534 0.0
C926 C 0.42675 0.95307 0.3032 0.0
C927 C 0.41369 0.95384 0.30717 0.0
N928 N 0.37463 0.96112 0.34241 0.0
C929 C 0.34882 0.94898 0.35641 0.0
C930 C 0.347 0.95959 0.34111 0.0
C931 C 0.35937 0.97135 0.32786 0.0
C932 C 0.37313 0.97199 0.32908 0.0
C933 C 0.36275 0.94992 0.3567 0.0
H934 H 0.38248 0.98103 0.31835 0.0
H935 H 0.36378 0.94133 0.36755 0.0
H936 H 0.42052 0.96951 0.37322 0.0
H937 H 0.40544 0.9497 0.29004 0.0
C938 C 0.41281 0.99065 0.30108 0.0
C939 C 0.37311 0.94511 0.27267 0.0
C940 C 0.40056 0.97722 0.40704 0.0
C941 C 0.38298 0.9298 0.37003 0.0
H942 H 0.38569 0.96564 0.22252 0.0
H943 H 0.40837 0.9903 0.23733 0.0
H944 H 0.4268 0.01487 0.33796 0.0
H945 H 0.41878 0.0076 0.39531 0.0
H946 H 0.39456 0.95582 0.45427 0.0
H947 H 0.38629 0.93006 0.43426 0.0
H948 H 0.365 0.90586 0.3347 0.0
H949 H 0.35799 0.91413 0.28341 0.0
H950 H 0.44317 0.9682 0.36815 0.0
H951 H 0.42824 0.94856 0.28298 0.0
H952 H 0.3395 0.93985 0.36728 0.0
H953 H 0.3584 0.97998 0.31662 0.0
C954 C 0.54588 0.96964 0.28453 0.0
C955 C 0.54299 0.97897 0.26707 0.0
C956 C 0.55638 0.98986 0.25747 0.0
C957 C 0.56661 0.98651 0.26942 0.0
N958 N 0.56056 0.974 0.28554 0.0
Co959 Co 0.57132 0.96522 0.30748 0.0
N960 N 0.591 0.98246 0.29821 0.0
C961 C 0.59346 0.99441 0.28223 0.0
C962 C 0.60805 0.00457 0.28008 0.0
C963 C 0.6154 0.9988 0.29557 0.0
C964 C 0.60482 0.98533 0.30616 0.0
N965 N 0.58212 0.9564 0.32929 0.0
C966 C 0.59682 0.96164 0.33397 0.0
C967 C 0.59963 0.95184 0.34975 0.0
C968 C 0.58627 0.93999 0.35528 0.0
C969 C 0.57607 0.94319 0.34257 0.0
N970 N 0.55155 0.94813 0.31723 0.0
C971 C 0.54902 0.93594 0.33224 0.0
C972 C 0.53432 0.92664 0.33772 0.0
C973 C 0.527 0.93339 0.3261 0.0
C974 C 0.53771 0.94645 0.31398 0.0
N975 N 0.57315 0.9567 0.26976 0.0
C976 C 0.58036 0.9455 0.21998 0.0
C977 C 0.57318 0.93694 0.24549 0.0
C978 C 0.56957 0.94265 0.26966 0.0
C979 C 0.583 0.95956 0.21903 0.0
C980 C 0.57923 0.96487 0.24387 0.0
N981 N 0.5697 0.97365 0.34509 0.0
C982 C 0.56537 0.97145 0.39879 0.0
C983 C 0.5692 0.98579 0.39964 0.0
C984 C 0.57279 0.99387 0.37253 0.0
C985 C 0.57286 0.98758 0.3456 0.0
C986 C 0.56571 0.96567 0.37155 0.0
H987 H 0.57569 0.9942 0.32552 0.0
H988 H 0.563 0.95476 0.37257 0.0
H989 H 0.56431 0.9355 0.28828 0.0
H990 H 0.58168 0.97568 0.24177 0.0
C991 C 0.58184 0.99567 0.26908 0.0
C992 C 0.53438 0.95732 0.30132 0.0
C993 C 0.6085 0.97567 0.32345 0.0
C994 C 0.56074 0.93418 0.34344 0.0
H995 H 0.53234 0.97823 0.26268 0.0
H996 H 0.55843 0.99941 0.24458 0.0
H997 H 0.61279 0.01493 0.26856 0.0
H998 H 0.62724 0.00394 0.29862 0.0
H999 H 0.61027 0.95311 0.35645 0.0
H1000 H 0.58422 0.93023 0.36724 0.0
H1001 H 0.52952 0.91644 0.34995 0.0
H1002 H 0.51517 0.92933 0.32735 0.0
H1003 H 0.57083 0.92596 0.24752 0.0
H1004 H 0.58812 0.96654 0.19937 0.0
H1005 H 0.56269 0.96481 0.41923 0.0
H1006 H 0.57568 0.005 0.37213 0.0
C1007 C 0.06081 0.62892 0.26928 0.0
C1008 C 0.07599 0.63755 0.26614 0.0
C1009 C 0.08204 0.63541 0.29209 0.0
C1010 C 0.07022 0.62559 0.30945 0.0
N1011 N 0.05725 0.62148 0.29584 0.0
Co1012 Co 0.03746 0.60796 0.31229 0.0
N1013 N 0.04469 0.61108 0.35384 0.0
C1014 C 0.05889 0.6163 0.36198 0.0
C1015 C 0.06048 0.61697 0.39261 0.0
C1016 C 0.04641 0.61174 0.4043 0.0
C1017 C 0.03697 0.60817 0.38004 0.0
N1018 N 0.01758 0.59438 0.32872 0.0
C1019 C 0.01208 0.59282 0.35704 0.0
C1020 C 0.99755 0.58188 0.35902 0.0
C1021 C 0.99403 0.57635 0.33095 0.0
C1022 C 0.00654 0.58421 0.31338 0.0
N1023 N 0.03048 0.60493 0.27051 0.0
C1024 C 0.01818 0.59372 0.26089 0.0
C1025 C 0.0158 0.59535 0.23094 0.0
C1026 C 0.02729 0.60839 0.22143 0.0
C1027 C 0.03615 0.61396 0.24614 0.0
N1028 N 0.04207 0.59226 0.3101 0.0
C1029 C 0.04644 0.56836 0.30644 0.0
C1030 C 0.0514 0.57901 0.28322 0.0
C1031 C 0.04902 0.59078 0.28539 0.0
C1032 C 0.03946 0.57023 0.33163 0.0
C1033 C 0.03763 0.58223 0.33321 0.0
N1034 N 0.03256 0.6234 0.31464 0.0
C1035 C 0.01506 0.63185 0.30621 0.0
C1036 C 0.02443 0.6447 0.3195 0.0
C1037 C 0.0381 0.64671 0.33006 0.0
C1038 C 0.042 0.63597 0.32723 0.0
C1039 C 0.01928 0.62139 0.30411 0.0
H1040 H 0.05256 0.63774 0.33545 0.0
H1041 H 0.01165 0.61156 0.29428 0.0
H1042 H 0.05265 0.59862 0.26693 0.0
H1043 H 0.03224 0.58317 0.35304 0.0
C1044 C 0.07042 0.62252 0.34033 0.0
C1045 C 0.04999 0.62759 0.2466 0.0
C1046 C 0.02075 0.60078 0.38266 0.0
C1047 C 0.00755 0.58407 0.28187 0.0
H1048 H 0.08199 0.64474 0.2473 0.0
H1049 H 0.09355 0.64099 0.29824 0.0
H1050 H 0.07066 0.62117 0.40495 0.0
H1051 H 0.04344 0.61052 0.42797 0.0
H1052 H 0.99029 0.5782 0.37869 0.0
H1053 H 0.98345 0.56797 0.32399 0.0
H1054 H 0.00628 0.58844 0.21808 0.0
H1055 H 0.02865 0.61324 0.19914 0.0
H1056 H 0.05707 0.57833 0.26342 0.0
H1057 H 0.035 0.56234 0.35 0.0
H1058 H 0.0043 0.62969 0.29819 0.0
H1059 H 0.04572 0.65651 0.34035 0.0
C1060 C 0.37515 0.43763 0.30646 0.0
C1061 C 0.36506 0.44265 0.30389 0.0
C1062 C 0.36518 0.44868 0.33066 0.0
C1063 C 0.37524 0.44694 0.34804 0.0
N1064 N 0.38141 0.44023 0.33374 0.0
Co1065 Co 0.39592 0.43497 0.35037 0.0
N1066 N 0.39009 0.43612 0.39205 0.0
C1067 C 0.38292 0.4431 0.40061 0.0
C1068 C 0.38066 0.4423 0.43118 0.0
C1069 C 0.38694 0.43444 0.44249 0.0
C1070 C 0.39269 0.43087 0.41806 0.0
N1071 N 0.41064 0.42992 0.36692 0.0
C1072 C 0.41168 0.42533 0.3951 0.0
C1073 C 0.42395 0.42327 0.39719 0.0
C1074 C 0.43089 0.42696 0.36941 0.0
C1075 C 0.4225 0.43101 0.35186 0.0
N1076 N 0.40158 0.43379 0.30858 0.0
C1077 C 0.41431 0.43451 0.29928 0.0
C1078 C 0.41458 0.43277 0.26884 0.0
C1079 C 0.40116 0.43083 0.25864 0.0
C1080 C 0.39347 0.43147 0.28353 0.0
N1081 N 0.41098 0.45513 0.34992 0.0
C1082 C 0.43525 0.48273 0.34613 0.0
C1083 C 0.4255 0.47741 0.32217 0.0
C1084 C 0.41337 0.46367 0.32462 0.0
C1085 C 0.43214 0.47416 0.37254 0.0
C1086 C 0.42001 0.46045 0.37396 0.0
N1087 N 0.38112 0.41479 0.35035 0.0
C1088 C 0.37468 0.39126 0.33533 0.0
C1089 C 0.35982 0.38632 0.34325 0.0
C1090 C 0.35594 0.39583 0.35614 0.0
C1091 C 0.36677 0.41006 0.35944 0.0
C1092 C 0.38508 0.40541 0.33913 0.0
H1093 H 0.36351 0.41732 0.36859 0.0
H1094 H 0.39633 0.40885 0.33212 0.0
H1095 H 0.4062 0.45977 0.30563 0.0
H1096 H 0.41831 0.45396 0.39419 0.0
C1097 C 0.37664 0.4484 0.3792 0.0
C1098 C 0.37889 0.43066 0.28289 0.0
C1099 C 0.40194 0.42394 0.42063 0.0
C1100 C 0.42396 0.43363 0.32047 0.0
H1101 H 0.35815 0.44186 0.28501 0.0
H1102 H 0.35809 0.45298 0.33727 0.0
H1103 H 0.37483 0.44658 0.4437 0.0
H1104 H 0.38747 0.43189 0.46606 0.0
H1105 H 0.42758 0.41962 0.41678 0.0
H1106 H 0.4406 0.42631 0.36261 0.0
H1107 H 0.42312 0.43218 0.25587 0.0
H1108 H 0.39741 0.42907 0.23569 0.0
H1109 H 0.42731 0.48375 0.30153 0.0
H1110 H 0.43938 0.47778 0.3916 0.0
H1111 H 0.37828 0.38423 0.326 0.0
H1112 H 0.34458 0.39243 0.36272 0.0
C1113 C 0.26692 0.23011 0.37024 0.0
C1114 C 0.25175 0.22483 0.37319 0.0
C1115 C 0.2457 0.21832 0.34689 0.0
C1116 C 0.25747 0.22005 0.32938 0.0
N1117 N 0.27046 0.22721 0.34317 0.0
Co1118 Co 0.29022 0.23256 0.32622 0.0
N1119 N 0.28289 0.23072 0.28471 0.0
C1120 C 0.26866 0.22346 0.27658 0.0
C1121 C 0.26701 0.22395 0.24602 0.0
C1122 C 0.28109 0.23189 0.23427 0.0
C1123 C 0.29059 0.23582 0.25845 0.0
N1124 N 0.30992 0.23753 0.30935 0.0
C1125 C 0.31533 0.24176 0.28093 0.0
C1126 C 0.32968 0.2439 0.27861 0.0
C1127 C 0.33319 0.24066 0.30657 0.0
C1128 C 0.32086 0.23678 0.32442 0.0
N1129 N 0.29745 0.23461 0.36778 0.0
C1130 C 0.30967 0.23431 0.37715 0.0
C1131 C 0.31194 0.23672 0.40735 0.0
C1132 C 0.30042 0.23865 0.41729 0.0
C1133 C 0.29179 0.23732 0.3925 0.0
N1134 N 0.28532 0.21246 0.32806 0.0
C1135 C 0.28277 0.18513 0.33295 0.0
C1136 C 0.27909 0.19088 0.35734 0.0
C1137 C 0.28019 0.2044 0.35426 0.0
C1138 C 0.28681 0.19314 0.30555 0.0
C1139 C 0.28825 0.20675 0.30374 0.0
N1140 N 0.29543 0.25269 0.32465 0.0
C1141 C 0.31343 0.27695 0.33322 0.0
C1142 C 0.30347 0.28158 0.32413 0.0
C1143 C 0.28933 0.27151 0.31535 0.0
C1144 C 0.28555 0.25706 0.3155 0.0
C1145 C 0.30918 0.26251 0.33356 0.0
H1146 H 0.27469 0.24944 0.3083 0.0
H1147 H 0.31707 0.25931 0.34119 0.0
H1148 H 0.27745 0.20856 0.37352 0.0
H1149 H 0.29223 0.21282 0.28276 0.0
C1150 C 0.2572 0.21822 0.29832 0.0
C1151 C 0.27783 0.23777 0.39304 0.0
C1152 C 0.30679 0.24291 0.25553 0.0
C1153 C 0.32004 0.23484 0.35597 0.0
H1154 H 0.24567 0.22577 0.39195 0.0
H1155 H 0.23422 0.21373 0.34059 0.0
H1156 H 0.25679 0.2194 0.23376 0.0
H1157 H 0.28404 0.23426 0.21061 0.0
H1158 H 0.33684 0.24736 0.25881 0.0
H1159 H 0.34368 0.24157 0.31329 0.0
H1160 H 0.32126 0.23773 0.42027 0.0
H1161 H 0.29857 0.24082 0.44 0.0
H1162 H 0.27589 0.18529 0.37908 0.0
H1163 H 0.28916 0.18913 0.2855 0.0
H1164 H 0.32445 0.28447 0.34022 0.0
H1165 H 0.28138 0.27479 0.30803 0.0
C1166 C 0.77056 0.04069 0.40158 0.0
C1167 C 0.77617 0.03124 0.40152 0.0
C1168 C 0.78353 0.0335 0.37446 0.0
C1169 C 0.78189 0.04402 0.35939 0.0
N1170 N 0.77395 0.04847 0.37538 0.0
Co1171 Co 0.76805 0.06268 0.36181 0.0
N1172 N 0.77095 0.05996 0.3192 0.0
C1173 C 0.77927 0.05446 0.30877 0.0
C1174 C 0.77938 0.05415 0.27796 0.0
C1175 C 0.77067 0.05991 0.26855 0.0
C1176 C 0.76569 0.0634 0.2943 0.0
N1177 N 0.76225 0.07699 0.3483 0.0
C1178 C 0.75777 0.07909 0.32092 0.0
C1179 C 0.75477 0.09038 0.321 0.0
C1180 C 0.75771 0.09556 0.34943 0.0
C1181 C 0.76228 0.08716 0.36515 0.0
N1182 N 0.76521 0.06529 0.4045 0.0
C1183 C 0.76505 0.07664 0.41586 0.0
C1184 C 0.76235 0.07499 0.44644 0.0
C1185 C 0.76073 0.06179 0.45451 0.0
C1186 C 0.76249 0.05613 0.42832 0.0
N1187 N 0.78873 0.07784 0.36306 0.0
C1188 C 0.8174 0.1011 0.36608 0.0
C1189 C 0.81155 0.09066 0.38956 0.0
C1190 C 0.79725 0.07906 0.3875 0.0
C1191 C 0.80866 0.09943 0.34089 0.0
C1192 C 0.79445 0.08782 0.33984 0.0
N1193 N 0.74734 0.04779 0.36052 0.0
C1194 C 0.7217 0.04007 0.37165 0.0
C1195 C 0.71737 0.02736 0.35706 0.0
C1196 C 0.72845 0.02503 0.34447 0.0
C1197 C 0.74338 0.03533 0.34664 0.0
C1198 C 0.73663 0.0501 0.37303 0.0
H1199 H 0.75171 0.03331 0.33683 0.0
H1200 H 0.73949 0.05986 0.38391 0.0
H1201 H 0.79297 0.0712 0.40591 0.0
H1202 H 0.78797 0.08715 0.32039 0.0
C1203 C 0.78454 0.04753 0.32853 0.0
C1204 C 0.76238 0.04246 0.42663 0.0
C1205 C 0.75727 0.07117 0.29427 0.0
C1206 C 0.76413 0.08682 0.39646 0.0
H1207 H 0.77493 0.02335 0.4187 0.0
H1208 H 0.78861 0.0275 0.36607 0.0
H1209 H 0.7847 0.04982 0.26403 0.0
H1210 H 0.76841 0.06152 0.2454 0.0
H1211 H 0.75093 0.09447 0.30249 0.0
H1212 H 0.75612 0.10406 0.35789 0.0
H1213 H 0.7609 0.08213 0.46088 0.0
H1214 H 0.75844 0.05687 0.47694 0.0
H1215 H 0.81796 0.09141 0.40934 0.0
H1216 H 0.81257 0.10728 0.32236 0.0
H1217 H 0.71357 0.04248 0.38127 0.0
H1218 H 0.72562 0.01532 0.33314 0.0
C1219 C 0.91057 0.70038 0.39386 0.0
C1220 C 0.89805 0.69033 0.40969 0.0
C1221 C 0.90066 0.6794 0.41803 0.0
C1222 C 0.91459 0.68343 0.40706 0.0
N1223 N 0.92117 0.6964 0.39269 0.0
Co1224 Co 0.94134 0.70631 0.37317 0.0
N1225 N 0.94415 0.68921 0.38077 0.0
C1226 C 0.93449 0.67673 0.39488 0.0
C1227 C 0.93921 0.6668 0.39604 0.0
C1228 C 0.95269 0.67329 0.38177 0.0
C1229 C 0.95548 0.68692 0.37284 0.0
N1230 N 0.96161 0.71627 0.3538 0.0
C1231 C 0.9714 0.71149 0.34873 0.0
C1232 C 0.98433 0.72197 0.33489 0.0
C1233 C 0.98265 0.73378 0.33097 0.0
C1234 C 0.96886 0.72989 0.34265 0.0
N1235 N 0.9383 0.72327 0.36498 0.0
C1236 C 0.94813 0.73598 0.35188 0.0
C1237 C 0.94253 0.74513 0.34711 0.0
C1238 C 0.92819 0.73777 0.35724 0.0
C1239 C 0.92587 0.72451 0.36786 0.0
N1240 N 0.95039 0.71378 0.41261 0.0
C1241 C 0.96712 0.72405 0.46497 0.0
C1242 C 0.96863 0.73322 0.44056 0.0
C1243 C 0.96018 0.72795 0.41509 0.0
C1244 C 0.95639 0.70974 0.46346 0.0
C1245 C 0.94812 0.7049 0.43738 0.0
N1246 N 0.93264 0.69895 0.33385 0.0
C1247 C 0.93237 0.70292 0.28023 0.0
C1248 C 0.92268 0.68851 0.27657 0.0
C1249 C 0.91739 0.67949 0.30238 0.0
C1250 C 0.92243 0.68494 0.33072 0.0
C1251 C 0.93721 0.70784 0.30869 0.0
H1252 H 0.91818 0.67763 0.34975 0.0
H1253 H 0.94488 0.71886 0.30968 0.0
H1254 H 0.96218 0.73559 0.39747 0.0
H1255 H 0.94022 0.6939 0.43764 0.0
C1256 C 0.92109 0.67468 0.40694 0.0
C1257 C 0.91151 0.71316 0.379 0.0
C1258 C 0.96902 0.69722 0.35683 0.0
C1259 C 0.96213 0.73852 0.34213 0.0
H1260 H 0.88791 0.69067 0.41397 0.0
H1261 H 0.89306 0.66944 0.42959 0.0
H1262 H 0.9335 0.6561 0.40599 0.0
H1263 H 0.95966 0.66849 0.37829 0.0
H1264 H 0.99396 0.72114 0.32828 0.0
H1265 H 0.99048 0.74395 0.32053 0.0
H1266 H 0.94804 0.75569 0.33642 0.0
H1267 H 0.92025 0.74161 0.35607 0.0
H1268 H 0.97677 0.7444 0.4404 0.0
H1269 H 0.95449 0.70225 0.48214 0.0
H1270 H 0.93642 0.71044 0.2611 0.0
H1271 H 0.90979 0.66824 0.30071 0.0
C1272 C 0.42649 0.04402 0.74284 0.0
C1273 C 0.42257 0.03542 0.76897 0.0
C1274 C 0.42164 0.02273 0.76142 0.0
C1275 C 0.42513 0.02427 0.73123 0.0
N1276 N 0.42822 0.03714 0.7194 0.0
Co1277 Co 0.43398 0.04364 0.67675 0.0
N1278 N 0.42524 0.02383 0.66294 0.0
C1279 C 0.4221 0.0123 0.68087 0.0
C1280 C 0.41661 0.99999 0.66543 0.0
C1281 C 0.41643 0.00405 0.63588 0.0
C1282 C 0.42183 0.01867 0.63485 0.0
N1283 N 0.43987 0.05014 0.634 0.0
C1284 C 0.43542 0.04289 0.60816 0.0
C1285 C 0.44259 0.05187 0.58335 0.0
C1286 C 0.452 0.06499 0.59411 0.0
C1287 C 0.45005 0.0634 0.62482 0.0
N1288 N 0.44242 0.06337 0.69093 0.0
C1289 C 0.45216 0.0752 0.6753 0.0
C1290 C 0.455 0.08741 0.68936 0.0
C1291 C 0.44656 0.08296 0.71544 0.0
C1292 C 0.4391 0.06818 0.71623 0.0
N1293 N 0.45299 0.04402 0.68292 0.0
C1294 C 0.48086 0.04569 0.69011 0.0
C1295 C 0.4751 0.05106 0.7116 0.0
C1296 C 0.46118 0.05009 0.70765 0.0
C1297 C 0.47215 0.03924 0.66525 0.0
C1298 C 0.45837 0.03856 0.66204 0.0
N1299 N 0.41531 0.04351 0.67067 0.0
C1300 C 0.40227 0.056 0.655 0.0
C1301 C 0.38946 0.04549 0.66955 0.0
C1302 C 0.3896 0.03364 0.68344 0.0
C1303 C 0.40262 0.03277 0.68343 0.0
C1304 C 0.41512 0.05484 0.65597 0.0
H1305 H 0.40255 0.02364 0.6945 0.0
H1306 H 0.42501 0.06336 0.64563 0.0
H1307 H 0.45712 0.05441 0.72445 0.0
H1308 H 0.45212 0.03368 0.64243 0.0
C1309 C 0.42276 0.01324 0.71228 0.0
C1310 C 0.42938 0.05891 0.7415 0.0
C1311 C 0.42523 0.0274 0.60652 0.0
C1312 C 0.45559 0.07445 0.6451 0.0
H1313 H 0.42059 0.03804 0.79115 0.0
H1314 H 0.41814 0.0133 0.77593 0.0
H1315 H 0.41294 0.98931 0.67458 0.0
H1316 H 0.4131 0.99708 0.61715 0.0
H1317 H 0.44122 0.04927 0.55992 0.0
H1318 H 0.459 0.07466 0.58098 0.0
H1319 H 0.46163 0.09827 0.68076 0.0
H1320 H 0.4458 0.08992 0.73141 0.0
H1321 H 0.4814 0.05626 0.73109 0.0
H1322 H 0.47588 0.03463 0.64831 0.0
H1323 H 0.40245 0.0652 0.64372 0.0
H1324 H 0.37972 0.02511 0.69419 0.0
C1325 C 0.96233 0.37936 0.74216 0.0
C1326 C 0.97119 0.38444 0.76707 0.0
C1327 C 0.98427 0.39583 0.75695 0.0
C1328 C 0.98266 0.39718 0.72654 0.0
N1329 N 0.96939 0.38738 0.71699 0.0
Co1330 Co 0.96266 0.3857 0.67477 0.0
N1331 N 0.98326 0.39667 0.6582 0.0
C1332 C 0.99519 0.40503 0.67428 0.0
C1333 C 0.00804 0.41144 0.65732 0.0
C1334 C 0.00395 0.40704 0.62867 0.0
C1335 C 0.98871 0.39825 0.62957 0.0
N1336 N 0.95589 0.3841 0.63247 0.0
C1337 C 0.96352 0.38682 0.60584 0.0
C1338 C 0.95424 0.38484 0.58181 0.0
C1339 C 0.94047 0.38087 0.5938 0.0
C1340 C 0.94203 0.38068 0.62443 0.0
N1341 N 0.94217 0.37461 0.69176 0.0
C1342 C 0.9298 0.372 0.67704 0.0
C1343 C 0.91718 0.36297 0.69328 0.0
C1344 C 0.92194 0.35974 0.71983 0.0
C1345 C 0.93729 0.36715 0.71865 0.0
N1346 N 0.96166 0.40341 0.67731 0.0
C1347 C 0.95847 0.42791 0.67851 0.0
C1348 C 0.95355 0.41792 0.70286 0.0
C1349 C 0.95523 0.40575 0.7018 0.0
C1350 C 0.96542 0.42554 0.65405 0.0
C1351 C 0.96692 0.41332 0.65391 0.0
N1352 N 0.96336 0.36805 0.67228 0.0
C1353 C 0.95089 0.34318 0.66205 0.0
C1354 C 0.96196 0.34155 0.67668 0.0
C1355 C 0.97408 0.35351 0.68788 0.0
C1356 C 0.97465 0.36672 0.68512 0.0
C1357 C 0.95176 0.35652 0.66022 0.0
H1358 H 0.98401 0.37578 0.69412 0.0
H1359 H 0.9428 0.35739 0.64989 0.0
H1360 H 0.95109 0.3981 0.72057 0.0
H1361 H 0.97216 0.41183 0.6345 0.0
C1362 C 0.99412 0.40525 0.70566 0.0
C1363 C 0.94704 0.3674 0.74348 0.0
C1364 C 0.97973 0.39281 0.60243 0.0
C1365 C 0.93052 0.37549 0.64612 0.0
H1366 H 0.96853 0.38029 0.7901 0.0
H1367 H 0.99403 0.40191 0.76997 0.0
H1368 H 0.01913 0.41827 0.66496 0.0
H1369 H 0.01133 0.41019 0.60927 0.0
H1370 H 0.95718 0.38638 0.5581 0.0
H1371 H 0.93045 0.37817 0.58157 0.0
H1372 H 0.90587 0.35847 0.68593 0.0
H1373 H 0.91481 0.35248 0.73746 0.0
H1374 H 0.94808 0.41929 0.72224 0.0
H1375 H 0.9697 0.43309 0.63501 0.0
H1376 H 0.94148 0.33415 0.65277 0.0
H1377 H 0.98307 0.35267 0.69856 0.0
C1378 C 0.62544 0.58032 0.7572 0.0
C1379 C 0.61968 0.58329 0.78245 0.0
C1380 C 0.60722 0.58384 0.77352 0.0
C1381 C 0.60597 0.5811 0.74344 0.0
N1382 N 0.61684 0.57883 0.73298 0.0
Co1383 Co 0.61896 0.57442 0.69091 0.0
N1384 N 0.60642 0.58249 0.67501 0.0
C1385 C 0.5969 0.58469 0.69173 0.0
C1386 C 0.58924 0.58987 0.67499 0.0
C1387 C 0.5941 0.59083 0.64586 0.0
C1388 C 0.60454 0.5862 0.64635 0.0
N1389 N 0.62101 0.56992 0.64874 0.0
C1390 C 0.6179 0.57454 0.62213 0.0
C1391 C 0.62113 0.5685 0.59818 0.0
C1392 C 0.62602 0.5596 0.61025 0.0
C1393 C 0.62565 0.56072 0.64083 0.0
N1394 N 0.63163 0.56659 0.70718 0.0
C1395 C 0.63522 0.55787 0.69269 0.0
C1396 C 0.64523 0.55524 0.7081 0.0
C1397 C 0.64808 0.56275 0.73384 0.0
C1398 C 0.63947 0.56946 0.73309 0.0
N1399 N 0.60132 0.55568 0.69664 0.0
C1400 C 0.57586 0.52896 0.70405 0.0
C1401 C 0.57817 0.53763 0.67811 0.0
C1402 C 0.59088 0.55084 0.67484 0.0
C1403 C 0.58672 0.53391 0.72615 0.0
C1404 C 0.59933 0.54732 0.72207 0.0
N1405 N 0.63646 0.59288 0.6852 0.0
C1406 C 0.66188 0.60694 0.66918 0.0
C1407 C 0.6623 0.61891 0.68134 0.0
C1408 C 0.64948 0.61772 0.69485 0.0
C1409 C 0.63663 0.60463 0.69628 0.0
C1410 C 0.64886 0.59397 0.67154 0.0
H1411 H 0.62687 0.60395 0.70669 0.0
H1412 H 0.6489 0.58481 0.66268 0.0
H1413 H 0.59221 0.55713 0.65451 0.0
H1414 H 0.60744 0.55096 0.73953 0.0
C1415 C 0.59682 0.5834 0.72326 0.0
C1416 C 0.63849 0.5781 0.75745 0.0
C1417 C 0.61093 0.58377 0.61889 0.0
C1418 C 0.63174 0.55523 0.66229 0.0
H1419 H 0.62403 0.5849 0.80494 0.0
H1420 H 0.60034 0.5866 0.78704 0.0
H1421 H 0.58123 0.59281 0.68303 0.0
H1422 H 0.5901 0.59418 0.62639 0.0
H1423 H 0.62001 0.57025 0.57445 0.0
H1424 H 0.62989 0.55344 0.59807 0.0
H1425 H 0.65062 0.54938 0.70058 0.0
H1426 H 0.65592 0.56341 0.75061 0.0
H1427 H 0.57026 0.53417 0.66014 0.0
H1428 H 0.58538 0.52761 0.74665 0.0
H1429 H 0.67159 0.60755 0.65835 0.0
H1430 H 0.64934 0.62689 0.70384 0.0
C1431 C 0.71286 0.75795 0.58622 0.0
C1432 C 0.70433 0.75508 0.5607 0.0
C1433 C 0.69128 0.75457 0.5692 0.0
C1434 C 0.69257 0.75725 0.59932 0.0
N1435 N 0.70562 0.75945 0.61017 0.0
Co1436 Co 0.71185 0.76357 0.65247 0.0
N1437 N 0.69111 0.75554 0.66777 0.0
C1438 C 0.67948 0.7533 0.6507 0.0
C1439 C 0.66643 0.74768 0.66698 0.0
C1440 C 0.67012 0.74648 0.69617 0.0
C1441 C 0.6853 0.75158 0.69624 0.0
N1442 N 0.71811 0.76773 0.69484 0.0
C1443 C 0.71017 0.76287 0.72118 0.0
C1444 C 0.71915 0.76909 0.74544 0.0
C1445 C 0.73307 0.77814 0.73384 0.0
C1446 C 0.73187 0.77702 0.70319 0.0
N1447 N 0.73248 0.77142 0.63682 0.0
C1448 C 0.7447 0.78011 0.65164 0.0
C1449 C 0.75746 0.78276 0.6366 0.0
C1450 C 0.75295 0.77528 0.61077 0.0
C1451 C 0.73759 0.76857 0.6111 0.0
N1452 N 0.7132 0.78241 0.64715 0.0
C1453 C 0.71626 0.8099 0.64166 0.0
C1454 C 0.70924 0.80092 0.66694 0.0
C1455 C 0.70781 0.78731 0.66921 0.0
C1456 C 0.72141 0.80464 0.61877 0.0
C1457 C 0.71981 0.79091 0.62198 0.0
N1458 N 0.71071 0.74506 0.6578 0.0
C1459 C 0.72214 0.73105 0.67315 0.0
C1460 C 0.71066 0.71913 0.66051 0.0
C1461 C 0.699 0.72032 0.64717 0.0
C1462 C 0.69917 0.73337 0.64628 0.0
C1463 C 0.72199 0.74393 0.67145 0.0
H1464 H 0.69011 0.73407 0.63586 0.0
H1465 H 0.73115 0.75305 0.68068 0.0
H1466 H 0.70244 0.78082 0.68913 0.0
H1467 H 0.7241 0.78722 0.60428 0.0
C1468 C 0.68093 0.75477 0.6192 0.0
C1469 C 0.72806 0.75995 0.58657 0.0
C1470 C 0.69396 0.75363 0.72389 0.0
C1471 C 0.74366 0.78268 0.68205 0.0
H1472 H 0.70719 0.75344 0.53834 0.0
H1473 H 0.68171 0.75182 0.55541 0.0
H1474 H 0.65548 0.74445 0.65855 0.0
H1475 H 0.66247 0.74245 0.7152 0.0
H1476 H 0.71593 0.76745 0.76901 0.0
H1477 H 0.74294 0.78447 0.74635 0.0
H1478 H 0.76868 0.7886 0.64442 0.0
H1479 H 0.76023 0.77464 0.59423 0.0
H1480 H 0.7048 0.80434 0.68495 0.0
H1481 H 0.72696 0.81119 0.59885 0.0
H1482 H 0.73128 0.73047 0.68382 0.0
H1483 H 0.68973 0.7112 0.63781 0.0
C1484 C 0.25099 0.95962 0.60705 0.0
C1485 C 0.25506 0.95439 0.58283 0.0
C1486 C 0.25673 0.94315 0.59392 0.0
C1487 C 0.2535 0.94204 0.62417 0.0
N1488 N 0.24988 0.95186 0.63274 0.0
Co1489 Co 0.24444 0.95385 0.67445 0.0
N1490 N 0.25412 0.94324 0.69244 0.0
C1491 C 0.25759 0.93458 0.67731 0.0
C1492 C 0.26354 0.92805 0.69527 0.0
C1493 C 0.26365 0.93272 0.72358 0.0
C1494 C 0.25775 0.94193 0.72139 0.0
N1495 N 0.23898 0.95585 0.71627 0.0
C1496 C 0.24384 0.95356 0.74337 0.0
C1497 C 0.23676 0.95625 0.76675 0.0
C1498 C 0.22693 0.95995 0.75392 0.0
C1499 C 0.22857 0.95943 0.72345 0.0
N1500 N 0.23491 0.96449 0.656 0.0
C1501 C 0.22501 0.96716 0.66994 0.0
C1502 C 0.22138 0.97589 0.6528 0.0
C1503 C 0.22951 0.97888 0.6265 0.0
C1504 C 0.23757 0.97164 0.6287 0.0
N1505 N 0.22583 0.93591 0.67216 0.0
C1506 C 0.19885 0.91033 0.67018 0.0
C1507 C 0.20742 0.91396 0.69615 0.0
C1508 C 0.22085 0.92655 0.69649 0.0
C1509 C 0.20423 0.91997 0.64512 0.0
C1510 C 0.21761 0.93272 0.64669 0.0
N1511 N 0.26273 0.97167 0.67668 0.0
C1512 C 0.27511 0.99666 0.68584 0.0
C1513 C 0.28801 0.99813 0.67243 0.0
C1514 C 0.28824 0.98604 0.66233 0.0
C1515 C 0.27552 0.97287 0.665 0.0
C1516 C 0.26254 0.98332 0.68759 0.0
H1517 H 0.2759 0.96371 0.6569 0.0
H1518 H 0.25257 0.98255 0.69701 0.0
H1519 H 0.22712 0.92871 0.71675 0.0
H1520 H 0.22131 0.94 0.62727 0.0
C1521 C 0.2566 0.9341 0.64587 0.0
C1522 C 0.24735 0.97133 0.60452 0.0
C1523 C 0.2541 0.94767 0.74783 0.0
C1524 C 0.22224 0.96419 0.70099 0.0
H1525 H 0.25666 0.95829 0.55961 0.0
H1526 H 0.26053 0.93698 0.5816 0.0
H1527 H 0.26748 0.92086 0.68857 0.0
H1528 H 0.26724 0.92938 0.74367 0.0
H1529 H 0.23837 0.95548 0.79063 0.0
H1530 H 0.21976 0.96304 0.76545 0.0
H1531 H 0.21449 0.9804 0.65944 0.0
H1532 H 0.22969 0.98594 0.60838 0.0
H1533 H 0.20379 0.90728 0.71654 0.0
H1534 H 0.19827 0.91772 0.62428 0.0
H1535 H 0.27466 0.00579 0.69424 0.0
H1536 H 0.29822 0.98676 0.65261 0.0
C1537 C 0.05248 0.29349 0.60267 0.0
C1538 C 0.05706 0.30185 0.57621 0.0
C1539 C 0.06889 0.31464 0.58324 0.0
C1540 C 0.07098 0.31338 0.61346 0.0
N1541 N 0.06122 0.3006 0.62578 0.0
Co1542 Co 0.06057 0.29447 0.66867 0.0
N1543 N 0.07179 0.31442 0.68169 0.0
C1544 C 0.08003 0.32583 0.6633 0.0
C1545 C 0.08664 0.33832 0.67818 0.0
C1546 C 0.08247 0.33451 0.70783 0.0
C1547 C 0.07358 0.31982 0.70954 0.0
N1548 N 0.06002 0.28834 0.71161 0.0
C1549 C 0.06283 0.29582 0.73712 0.0
C1550 C 0.0615 0.2872 0.76224 0.0
C1551 C 0.05782 0.27399 0.75206 0.0
C1552 C 0.05714 0.27522 0.72133 0.0
N1553 N 0.0492 0.27461 0.65531 0.0
C1554 C 0.04719 0.26293 0.67137 0.0
C1555 C 0.03775 0.25058 0.65776 0.0
C1556 C 0.03362 0.25478 0.63156 0.0
C1557 C 0.04093 0.26956 0.63024 0.0
N1558 N 0.07921 0.29407 0.66265 0.0
C1559 C 0.10558 0.29276 0.6551 0.0
C1560 C 0.09429 0.28709 0.63395 0.0
C1561 C 0.08126 0.28789 0.63808 0.0
C1562 C 0.10334 0.29921 0.67995 0.0
C1563 C 0.09015 0.29972 0.68333 0.0
N1564 N 0.04204 0.29461 0.67459 0.0
C1565 C 0.01653 0.28221 0.69075 0.0
C1566 C 0.01417 0.29253 0.67567 0.0
C1567 C 0.02612 0.30425 0.6612 0.0
C1568 C 0.04003 0.30518 0.66125 0.0
C1569 C 0.03055 0.2834 0.68976 0.0
H1570 H 0.04907 0.31423 0.6498 0.0
H1571 H 0.03197 0.275 0.70051 0.0
H1572 H 0.07278 0.28338 0.62148 0.0
H1573 H 0.08881 0.30467 0.70285 0.0
C1574 C 0.07965 0.32461 0.63198 0.0
C1575 C 0.04037 0.27862 0.60469 0.0
C1576 C 0.06815 0.31129 0.73812 0.0
C1577 C 0.05157 0.26397 0.7015 0.0
H1578 H 0.05233 0.29904 0.55418 0.0
H1579 H 0.07476 0.32396 0.56837 0.0
H1580 H 0.09338 0.34897 0.66855 0.0
H1581 H 0.08577 0.34173 0.72609 0.0
H1582 H 0.0632 0.2902 0.78545 0.0
H1583 H 0.05549 0.26452 0.76558 0.0
H1584 H 0.03357 0.23979 0.66673 0.0
H1585 H 0.02585 0.24767 0.61582 0.0
H1586 H 0.09536 0.28185 0.61452 0.0
H1587 H 0.11178 0.304 0.69666 0.0
H1588 H 0.00753 0.27313 0.70251 0.0
H1589 H 0.02472 0.31265 0.65004 0.0
C1590 C 0.21574 0.30837 0.6189 0.0
C1591 C 0.21364 0.31861 0.60301 0.0
C1592 C 0.22733 0.32881 0.59251 0.0
C1593 C 0.237 0.32431 0.6027 0.0
N1594 N 0.23022 0.31193 0.61892 0.0
Co1595 Co 0.23996 0.30189 0.63875 0.0
N1596 N 0.25946 0.31946 0.6373 0.0
C1597 C 0.26316 0.33118 0.61955 0.0
C1598 C 0.2775 0.34161 0.62298 0.0
C1599 C 0.28324 0.33603 0.64387 0.0
C1600 C 0.27203 0.32242 0.65206 0.0
N1601 N 0.24964 0.2917 0.65823 0.0
C1602 C 0.26317 0.2969 0.67063 0.0
C1603 C 0.26571 0.28589 0.68079 0.0
C1604 C 0.25345 0.27343 0.67394 0.0
C1605 C 0.2441 0.27747 0.66011 0.0
N1606 N 0.22039 0.28446 0.64021 0.0
C1607 C 0.21791 0.27099 0.64364 0.0
C1608 C 0.20309 0.26121 0.64434 0.0
C1609 C 0.19586 0.26908 0.64114 0.0
C1610 C 0.20673 0.28324 0.63874 0.0
N1611 N 0.24434 0.29698 0.59945 0.0
C1612 C 0.2504 0.28713 0.54677 0.0
C1613 C 0.2363 0.28555 0.55231 0.0
C1614 C 0.23356 0.29077 0.57862 0.0
C1615 C 0.26148 0.29419 0.5675 0.0
C1616 C 0.25822 0.29891 0.59364 0.0
N1617 N 0.23579 0.30667 0.67818 0.0
C1618 C 0.22863 0.29974 0.7301 0.0
C1619 C 0.23286 0.31384 0.73671 0.0
C1620 C 0.23785 0.32414 0.71293 0.0
C1621 C 0.23915 0.32031 0.68383 0.0
C1622 C 0.23024 0.29641 0.70086 0.0
H1623 H 0.24333 0.32849 0.66608 0.0
H1624 H 0.22736 0.28556 0.6968 0.0
H1625 H 0.22262 0.2894 0.58255 0.0
H1626 H 0.2669 0.30365 0.60961 0.0
C1627 C 0.2524 0.33269 0.60311 0.0
C1628 C 0.20388 0.29523 0.63311 0.0
C1629 C 0.27439 0.31202 0.67035 0.0
C1630 C 0.22945 0.26831 0.65211 0.0
H1631 H 0.20339 0.31885 0.59965 0.0
H1632 H 0.22998 0.33873 0.58045 0.0
H1633 H 0.28305 0.35211 0.61203 0.0
H1634 H 0.29453 0.34124 0.65152 0.0
H1635 H 0.27553 0.28679 0.69148 0.0
H1636 H 0.25149 0.26271 0.67899 0.0
H1637 H 0.1981 0.2498 0.6482 0.0
H1638 H 0.184 0.26491 0.64065 0.0
H1639 H 0.22746 0.2802 0.53664 0.0
H1640 H 0.27247 0.29548 0.56427 0.0
H1641 H 0.22435 0.29133 0.7475 0.0
H1642 H 0.24131 0.33519 0.71686 0.0
C1643 C 0.7322 0.96494 0.60914 0.0
C1644 C 0.74732 0.97431 0.60927 0.0
C1645 C 0.75236 0.97195 0.63629 0.0
C1646 C 0.7401 0.96145 0.65127 0.0
N1647 N 0.72771 0.95711 0.63527 0.0
Co1648 Co 0.70749 0.94293 0.64872 0.0
N1649 N 0.71311 0.94546 0.69137 0.0
C1650 C 0.72695 0.95087 0.70179 0.0
C1651 C 0.72736 0.95101 0.73261 0.0
C1652 C 0.71288 0.94524 0.74205 0.0
C1653 C 0.7044 0.94191 0.71632 0.0
N1654 N 0.68727 0.92864 0.66211 0.0
C1655 C 0.68068 0.92641 0.68954 0.0
C1656 C 0.66631 0.91519 0.68929 0.0
C1657 C 0.66403 0.91016 0.66073 0.0
C1658 C 0.67705 0.91859 0.6451 0.0
N1659 N 0.70204 0.9405 0.60599 0.0
C1660 C 0.69044 0.92924 0.5945 0.0
C1661 C 0.68946 0.93097 0.56393 0.0
C1662 C 0.70117 0.94413 0.55599 0.0
C1663 C 0.70861 0.9497 0.58225 0.0
N1664 N 0.71283 0.92771 0.6471 0.0
C1665 C 0.71806 0.90441 0.64361 0.0
C1666 C 0.72274 0.91493 0.62029 0.0
C1667 C 0.72013 0.92655 0.62258 0.0
C1668 C 0.71099 0.90601 0.66887 0.0
C1669 C 0.70848 0.91764 0.67015 0.0
N1670 N 0.70186 0.95789 0.65039 0.0
C1671 C 0.6841 0.96581 0.63956 0.0
C1672 C 0.69261 0.97845 0.65433 0.0
C1673 C 0.70599 0.98064 0.66686 0.0
C1674 C 0.71047 0.97028 0.66446 0.0
C1675 C 0.68886 0.95571 0.63795 0.0
H1676 H 0.72081 0.97219 0.67422 0.0
H1677 H 0.68187 0.94601 0.62692 0.0
H1678 H 0.72378 0.93447 0.6043 0.0
H1679 H 0.70267 0.91826 0.68966 0.0
C1680 C 0.73919 0.95782 0.68207 0.0
C1681 C 0.72231 0.96329 0.58404 0.0
C1682 C 0.68816 0.93411 0.71639 0.0
C1683 C 0.67926 0.91903 0.61378 0.0
H1684 H 0.75405 0.98221 0.59212 0.0
H1685 H 0.76346 0.97785 0.64471 0.0
H1686 H 0.73704 0.95524 0.74654 0.0
H1687 H 0.70901 0.9435 0.76523 0.0
H1688 H 0.65835 0.91102 0.70779 0.0
H1689 H 0.65389 0.90173 0.65215 0.0
H1690 H 0.68083 0.9239 0.54941 0.0
H1691 H 0.70388 0.9491 0.5336 0.0
H1692 H 0.7284 0.91423 0.60046 0.0
H1693 H 0.70697 0.8981 0.68729 0.0
H1694 H 0.67357 0.9635 0.62998 0.0
H1695 H 0.71298 0.9903 0.67832 0.0
C1696 C 0.04173 0.77331 0.64747 0.0
C1697 C 0.03165 0.77835 0.6488 0.0
C1698 C 0.03298 0.7839 0.67669 0.0
C1699 C 0.04368 0.78186 0.69083 0.0
N1700 N 0.0491 0.7754 0.67346 0.0
Co1701 Co 0.06399 0.76966 0.68486 0.0
N1702 N 0.05986 0.76997 0.72803 0.0
C1703 C 0.0535 0.77707 0.74008 0.0
C1704 C 0.05249 0.77564 0.7709 0.0
C1705 C 0.0587 0.76722 0.77859 0.0
C1706 C 0.06313 0.76393 0.75188 0.0
N1707 N 0.07891 0.7639 0.69622 0.0
C1708 C 0.08052 0.75823 0.72271 0.0
C1709 C 0.09247 0.7557 0.7211 0.0
C1710 C 0.09863 0.76021 0.6927 0.0
C1711 C 0.09009 0.76517 0.67849 0.0
N1712 N 0.06812 0.76956 0.64164 0.0
C1713 C 0.08045 0.77049 0.62926 0.0
C1714 C 0.07958 0.76953 0.59849 0.0
C1715 C 0.06586 0.76787 0.59141 0.0
C1716 C 0.05914 0.76789 0.61835 0.0
N1717 N 0.07926 0.7897 0.68531 0.0
C1718 C 0.10317 0.81762 0.68278 0.0
C1719 C 0.09198 0.81315 0.6613 0.0
C1720 C 0.08024 0.79917 0.66283 0.0
C1721 C 0.1017 0.80781 0.70612 0.0
C1722 C 0.08964 0.79409 0.70721 0.0
N1723 N 0.04892 0.74962 0.68408 0.0
C1724 C 0.04131 0.72629 0.6661 0.0
C1725 C 0.02738 0.72107 0.67987 0.0
C1726 C 0.02448 0.73038 0.69629 0.0
C1727 C 0.03538 0.74468 0.69787 0.0
C1728 C 0.05192 0.74048 0.66873 0.0
H1729 H 0.03285 0.75178 0.71003 0.0
H1730 H 0.06257 0.74408 0.65807 0.0
H1731 H 0.0721 0.79593 0.64542 0.0
H1732 H 0.089 0.78688 0.72538 0.0
C1733 C 0.04649 0.78284 0.72172 0.0
C1734 C 0.04454 0.76688 0.62149 0.0
C1735 C 0.07158 0.7562 0.75007 0.0
C1736 C 0.09063 0.76878 0.64759 0.0
H1737 H 0.024 0.77793 0.63178 0.0
H1738 H 0.02629 0.7881 0.68612 0.0
H1739 H 0.04743 0.77982 0.78594 0.0
H1740 H 0.05998 0.76404 0.80128 0.0
H1741 H 0.0964 0.75116 0.73859 0.0
H1742 H 0.10787 0.75945 0.68325 0.0
H1743 H 0.08755 0.76917 0.58322 0.0
H1744 H 0.06126 0.76663 0.56917 0.0
H1745 H 0.09227 0.8203 0.64319 0.0
H1746 H 0.11001 0.81043 0.7231 0.0
H1747 H 0.04409 0.71938 0.65368 0.0
H1748 H 0.01383 0.7267 0.70735 0.0
C1749 C 0.93853 0.56454 0.70431 0.0
C1750 C 0.92335 0.55948 0.70527 0.0
C1751 C 0.91809 0.55343 0.67817 0.0
C1752 C 0.9303 0.5552 0.66221 0.0
N1753 N 0.94283 0.56196 0.6777 0.0
Co1754 Co 0.96301 0.56729 0.66335 0.0
N1755 N 0.95702 0.5661 0.62095 0.0
C1756 C 0.94308 0.55895 0.61101 0.0
C1757 C 0.94239 0.55977 0.58025 0.0
C1758 C 0.95678 0.56782 0.57032 0.0
C1759 C 0.9655 0.57151 0.59572 0.0
N1760 N 0.9832 0.57252 0.64905 0.0
C1761 C 0.98952 0.57735 0.62143 0.0
C1762 C 0.00395 0.57961 0.62098 0.0
C1763 C 0.00655 0.57581 0.64927 0.0
C1764 C 0.99364 0.57151 0.66544 0.0
N1765 N 0.96883 0.56839 0.70584 0.0
C1766 C 0.98061 0.56766 0.71665 0.0
C1767 C 0.98184 0.56928 0.74723 0.0
C1768 C 0.9701 0.57115 0.75589 0.0
C1769 C 0.96241 0.57059 0.73 0.0
N1770 N 0.9579 0.54717 0.66433 0.0
C1771 C 0.9537 0.51932 0.66867 0.0
C1772 C 0.94863 0.5246 0.69162 0.0
C1773 C 0.95076 0.53849 0.68894 0.0
C1774 C 0.9604 0.52815 0.64301 0.0
C1775 C 0.96237 0.54196 0.64127 0.0
N1776 N 0.96831 0.58742 0.66279 0.0
C1777 C 0.98479 0.61105 0.67846 0.0
C1778 C 0.97548 0.61599 0.66667 0.0
C1779 C 0.96264 0.60642 0.65212 0.0
C1780 C 0.95919 0.59212 0.65065 0.0
C1781 C 0.98112 0.59684 0.67599 0.0
H1782 H 0.94905 0.58481 0.64012 0.0
H1783 H 0.98857 0.59342 0.68529 0.0
H1784 H 0.94697 0.54235 0.70719 0.0
H1785 H 0.96794 0.54858 0.62159 0.0
C1786 C 0.93098 0.55364 0.63122 0.0
C1787 C 0.94868 0.57144 0.7288 0.0
C1788 C 0.98175 0.5788 0.59494 0.0
C1789 C 0.99171 0.56873 0.69676 0.0
H1790 H 0.91678 0.56023 0.72331 0.0
H1791 H 0.90685 0.54907 0.67042 0.0
H1792 H 0.93258 0.5554 0.56669 0.0
H1793 H 0.96044 0.57046 0.54703 0.0
H1794 H 0.01175 0.58349 0.60218 0.0
H1795 H 0.0168 0.57658 0.65729 0.0
H1796 H 0.99066 0.56988 0.76129 0.0
H1797 H 0.96755 0.57284 0.77847 0.0
H1798 H 0.94316 0.5181 0.71164 0.0
H1799 H 0.96462 0.52462 0.62478 0.0
H1800 H 0.99496 0.61817 0.68936 0.0
H1801 H 0.9552 0.60989 0.6426 0.0
C1802 C 0.437 0.37312 0.73767 0.0
C1803 C 0.44239 0.36351 0.73712 0.0
C1804 C 0.44916 0.36543 0.70948 0.0
C1805 C 0.44742 0.37594 0.6946 0.0
N1806 N 0.43998 0.3807 0.71127 0.0
Co1807 Co 0.43418 0.39507 0.69829 0.0
N1808 N 0.43613 0.39195 0.65542 0.0
C1809 C 0.44397 0.38608 0.64432 0.0
C1810 C 0.44355 0.38559 0.61354 0.0
C1811 C 0.43501 0.39164 0.60483 0.0
C1812 C 0.43065 0.39546 0.63093 0.0
N1813 N 0.42852 0.40957 0.68536 0.0
C1814 C 0.42376 0.41173 0.65831 0.0
C1815 C 0.42108 0.42321 0.65886 0.0
C1816 C 0.42456 0.42849 0.68714 0.0
C1817 C 0.4291 0.41994 0.70235 0.0
N1818 N 0.43224 0.39804 0.74122 0.0
C1819 C 0.43253 0.40957 0.75269 0.0
C1820 C 0.43039 0.40815 0.78342 0.0
C1821 C 0.42864 0.39491 0.79149 0.0
C1822 C 0.42978 0.38898 0.76514 0.0
N1823 N 0.45497 0.41001 0.69801 0.0
C1824 C 0.48271 0.4344 0.70155 0.0
C1825 C 0.47767 0.42362 0.72434 0.0
C1826 C 0.46377 0.41148 0.72209 0.0
C1827 C 0.47403 0.43215 0.67604 0.0
C1828 C 0.46029 0.41996 0.6747 0.0
N1829 N 0.41336 0.38046 0.6987 0.0
C1830 C 0.38814 0.37341 0.71224 0.0
C1831 C 0.38321 0.36032 0.69888 0.0
C1832 C 0.39379 0.35749 0.68552 0.0
C1833 C 0.40883 0.36769 0.68577 0.0
C1834 C 0.40314 0.38325 0.7119 0.0
H1835 H 0.41679 0.36532 0.67537 0.0
H1836 H 0.40644 0.39325 0.7221 0.0
H1837 H 0.45986 0.40358 0.74045 0.0
H1838 H 0.45369 0.41896 0.65526 0.0
C1839 C 0.44944 0.37915 0.66358 0.0
C1840 C 0.42938 0.37518 0.76335 0.0
C1841 C 0.42274 0.40373 0.63144 0.0
C1842 C 0.4315 0.41974 0.73347 0.0
H1843 H 0.44137 0.35574 0.7544 0.0
H1844 H 0.4539 0.35923 0.70065 0.0
H1845 H 0.44847 0.38101 0.59919 0.0
H1846 H 0.43251 0.39325 0.58186 0.0
H1847 H 0.41712 0.4274 0.64073 0.0
H1848 H 0.42339 0.43718 0.69585 0.0
H1849 H 0.42938 0.41548 0.79803 0.0
H1850 H 0.42668 0.39012 0.81403 0.0
H1851 H 0.48405 0.42485 0.7444 0.0
H1852 H 0.47762 0.43998 0.65747 0.0
H1853 H 0.38042 0.37626 0.72227 0.0
H1854 H 0.3905 0.34748 0.67504 0.0
C1855 C 0.57664 0.03228 0.72615 0.0
C1856 C 0.56388 0.02178 0.74061 0.0
C1857 C 0.56654 0.01084 0.74838 0.0
C1858 C 0.58065 0.01519 0.73818 0.0
N1859 N 0.58729 0.02834 0.72465 0.0
Co1860 Co 0.60753 0.03841 0.70526 0.0
N1861 N 0.61046 0.02137 0.71261 0.0
C1862 C 0.6008 0.00878 0.72634 0.0
C1863 C 0.60567 0.99896 0.72765 0.0
C1864 C 0.61927 0.00564 0.71389 0.0
C1865 C 0.62196 0.01926 0.70509 0.0
N1866 N 0.62785 0.04853 0.68608 0.0
C1867 C 0.63779 0.04391 0.68132 0.0
C1868 C 0.65072 0.05448 0.66763 0.0
C1869 C 0.64889 0.06619 0.66354 0.0
C1870 C 0.63502 0.06216 0.67496 0.0
N1871 N 0.60442 0.05534 0.69733 0.0
C1872 C 0.61421 0.06811 0.68444 0.0
C1873 C 0.6087 0.07739 0.68072 0.0
C1874 C 0.59444 0.07004 0.69136 0.0
C1875 C 0.59206 0.05663 0.70093 0.0
N1876 N 0.61645 0.04574 0.74481 0.0
C1877 C 0.63313 0.05595 0.79719 0.0
C1878 C 0.63454 0.06516 0.77295 0.0
C1879 C 0.62613 0.05992 0.74747 0.0
C1880 C 0.62254 0.0416 0.79551 0.0
C1881 C 0.61426 0.03679 0.76941 0.0
N1882 N 0.59893 0.03119 0.66577 0.0
C1883 C 0.59854 0.03549 0.61229 0.0
C1884 C 0.58892 0.0211 0.60827 0.0
C1885 C 0.58377 0.0119 0.63383 0.0
C1886 C 0.58883 0.01717 0.66228 0.0
C1887 C 0.60343 0.04023 0.64084 0.0
H1888 H 0.58467 0.00973 0.68108 0.0
H1889 H 0.61104 0.05124 0.64204 0.0
H1890 H 0.62809 0.0676 0.72996 0.0
H1891 H 0.60639 0.02576 0.76947 0.0
C1892 C 0.58729 0.00656 0.73801 0.0
C1893 C 0.57779 0.04541 0.71266 0.0
C1894 C 0.6356 0.02973 0.6897 0.0
C1895 C 0.62824 0.07074 0.67461 0.0
H1896 H 0.55352 0.02176 0.74434 0.0
H1897 H 0.55885 1.00065 0.759 0.0
H1898 H 0.59999 0.98823 0.73742 0.0
H1899 H 0.6264 1.00099 0.71071 0.0
H1900 H 0.66046 0.05377 0.6613 0.0
H1901 H 0.6567 0.07642 0.65327 0.0
H1902 H 0.61426 0.08809 0.67074 0.0
H1903 H 0.58659 0.07399 0.6916 0.0
H1904 H 0.6426 0.07637 0.77292 0.0
H1905 H 0.62076 0.03409 0.81406 0.0
H1906 H 0.60249 0.04315 0.5934 0.0
H1907 H 0.57625 1.00065 0.63189 0.0
H1908 H 0.97167 0.34318 0.95162 0.0
H1909 H 0.04034 0.38054 0.048 0.0
H1910 H 0.96967 0.349 0.0465 0.0
H1911 H 0.0421 0.38239 0.95113 0.0
H1912 H 0.01471 0.37573 0.04662 0.0
H1913 H 0.99661 0.36347 0.94877 0.0
C1914 C 0.97644 0.34896 0.97172 0.0
C1915 C 0.96894 0.34423 0.99951 0.0
C1916 C 0.02077 0.3776 0.02557 0.0
C1917 C 0.99743 0.36718 0.99668 0.0
C1918 C 0.03537 0.38033 0.02644 0.0
C1919 C 0.04302 0.38145 0.99964 0.0
C1920 C 0.01373 0.37549 0.99774 0.0
C1921 C 0.03635 0.38133 0.97223 0.0
C1922 C 0.99062 0.36059 0.97011 0.0
C1923 C 0.97529 0.35222 0.02477 0.0
N1924 N 0.02188 0.37794 0.97193 0.0
N1925 N 0.98938 0.36311 0.02294 0.0
H1926 H 0.66012 0.6197 0.05451 0.0
H1927 H 0.62228 0.65482 0.95591 0.0
H1928 H 0.66545 0.62775 0.95842 0.0
H1929 H 0.62747 0.65732 0.052 0.0
H1930 H 0.62796 0.63515 0.9571 0.0
H1931 H 0.63852 0.62342 0.05332 0.0
C1932 C 0.65646 0.62185 0.03307 0.0
C1933 C 0.66477 0.62394 0.00665 0.0
C1934 C 0.6274 0.63972 0.97804 0.0
C1935 C 0.64034 0.62827 1.00515 0.0
C1936 C 0.62415 0.6509 0.97736 0.0
C1937 C 0.62493 0.6579 1.00378 0.0
C1938 C 0.63152 0.6357 1.00528 0.0
C1939 C 0.62725 0.65241 0.03106 0.0
C1940 C 0.64417 0.62396 0.03239 0.0
C1941 C 0.65955 0.62655 0.97939 0.0
N1942 N 0.63078 0.64179 0.03105 0.0
N1943 N 0.64781 0.62894 0.97939 0.0
H1944 H 0.38485 0.03931 0.04889 0.0
H1945 H 0.34765 0.96584 0.96886 0.0
H1946 H 0.37604 0.03418 0.95414 0.0
H1947 H 0.34415 0.97089 0.06373 0.0
H1948 H 0.3673 0.99061 0.96378 0.0
H1949 H 0.37939 0.01445 0.05407 0.0
C1950 C 0.38218 0.03304 0.02905 0.0
C1951 C 0.38046 0.03855 1.00122 0.0
C1952 C 0.36249 0.98617 0.98584 0.0
C1953 C 0.37418 0.01033 0.00694 0.0
C1954 C 0.35133 0.97206 0.98875 0.0
C1955 C 0.34407 0.96655 0.01659 0.0
C1956 C 0.3663 0.99471 0.01093 0.0
C1957 C 0.34925 0.97496 0.04173 0.0
C1958 C 0.37904 0.01889 0.03201 0.0
C1959 C 0.37706 0.03011 0.97613 0.0
N1960 N 0.3599 0.98875 0.03821 0.0
N1961 N 0.37377 0.01629 0.97967 0.0
H1962 H 0.03611 0.67604 0.97862 0.0
H1963 H 0.95449 0.6496 0.04612 0.0
H1964 H 0.02699 0.68486 0.06761 0.0
H1965 H 0.96322 0.64311 0.95507 0.0
H1966 H 0.98091 0.65957 0.05668 0.0
H1967 H 0.00946 0.66092 0.97184 0.0
C1968 C 0.02852 0.67459 0.99692 0.0
C1969 C 0.03378 0.68185 0.02359 0.0
C1970 C 0.97706 0.65582 0.03446 0.0
C1971 C 0.00327 0.66471 0.01589 0.0
C1972 C 0.962 0.65009 0.02855 0.0
C1973 C 0.95681 0.6456 0.99975 0.0
C1974 C 0.98699 0.65712 0.01131 0.0
C1975 C 0.96691 0.64649 0.97757 0.0
C1976 C 0.01331 0.66604 0.99297 0.0
C1977 C 0.02342 0.67967 0.04647 0.0
N1978 N 0.98155 0.65227 0.98372 0.0
N1979 N 0.0087 0.6714 0.04201 0.0
H1980 H 0.35759 0.32352 0.03744 0.0
H1981 H 0.3049 0.35178 0.96611 0.0
H1982 H 0.34432 0.31864 0.94477 0.0
H1983 H 0.31908 0.35779 0.05791 0.0
H1984 H 0.32138 0.34179 0.95641 0.0
H1985 H 0.34582 0.33831 0.04402 0.0
C1986 C 0.35241 0.32573 0.01834 0.0
C1987 C 0.35183 0.31968 0.99059 0.0
C1988 C 0.32104 0.34543 0.97861 0.0
C1989 C 0.33811 0.33646 0.9981 0.0
C1990 C 0.3117 0.35116 0.98404 0.0
C1991 C 0.3107 0.35553 0.0128 0.0
C1992 C 0.32935 0.34397 1.00221 0.0
C1993 C 0.31961 0.35449 0.03545 0.0
C1994 C 0.3456 0.33411 0.02217 0.0
C1995 C 0.3448 0.32283 0.96674 0.0
N1996 N 0.32847 0.3487 0.02976 0.0
N1997 N 0.33813 0.33088 0.97111 0.0
H1998 H 0.65028 0.96514 0.05165 0.0
H1999 H 0.68616 0.03957 0.96186 0.0
H2000 H 0.64495 0.96881 0.95622 0.0
H2001 H 0.67819 0.03566 0.05771 0.0
H2002 H 0.67068 0.01375 0.95907 0.0
H2003 H 0.66001 0.99086 0.0546 0.0
C2004 C 0.65101 0.97138 0.03138 0.0
C2005 C 0.6469 0.9649 1.00362 0.0
C2006 C 0.67212 0.01854 0.98067 0.0
C2007 C 0.65823 0.99434 0.0067 0.0
C2008 C 0.68098 0.03325 0.98227 0.0
C2009 C 0.68349 0.0397 0.01009 0.0
C2010 C 0.66596 0.01015 0.00717 0.0
C2011 C 0.67648 0.03108 0.03583 0.0
C2012 C 0.65652 0.98604 0.03307 0.0
C2013 C 0.64797 0.97341 0.97805 0.0
N2014 N 0.66821 0.01671 0.03383 0.0
N2015 N 0.65375 0.98774 0.98011 0.0
H2016 H 0.70693 0.71259 0.38421 0.0
H2017 H 0.63763 0.67744 0.28777 0.0
H2018 H 0.7083 0.71597 0.28733 0.0
H2019 H 0.6361 0.68113 0.38368 0.0
H2020 H 0.66273 0.69748 0.28578 0.0
H2021 H 0.68124 0.70765 0.38395 0.0
C2022 C 0.70185 0.71263 0.36291 0.0
C2023 C 0.70942 0.71425 0.33573 0.0
C2024 C 0.65682 0.69419 0.3072 0.0
C2025 C 0.68009 0.70822 0.33508 0.0
C2026 C 0.64254 0.68271 0.30831 0.0
C2027 C 0.6351 0.67744 0.33604 0.0
C2028 C 0.66378 0.70009 0.33417 0.0
C2029 C 0.64165 0.68477 0.36194 0.0
C2030 C 0.68722 0.70985 0.3627 0.0
C2031 C 0.70262 0.71451 0.30871 0.0
N2032 N 0.65582 0.69552 0.36051 0.0
N2033 N 0.68814 0.7111 0.309 0.0
H2034 H 0.33334 0.9627 0.29149 0.0
H2035 H 0.28686 0.98939 0.2973 0.0
H2036 H 0.32781 0.955 0.3876 0.0
H2037 H 0.30072 0.99578 0.3895 0.0
H2038 H 0.29208 0.96952 0.29635 0.0
H2039 H 0.31278 0.96768 0.29096 0.0
C2040 C 0.32744 0.96167 0.31238 0.0
C2041 C 0.33243 0.95887 0.33972 0.0
C2042 C 0.29391 0.97521 0.31684 0.0
C2043 C 0.3088 0.96443 0.33952 0.0
C2044 C 0.29077 0.98644 0.3175 0.0
C2045 C 0.29397 0.99455 0.34315 0.0
C2046 C 0.30054 0.97235 0.34182 0.0
C2047 C 0.29872 0.99013 0.36888 0.0
C2048 C 0.31553 0.96433 0.31211 0.0
C2049 C 0.32435 0.95736 0.36613 0.0
N2050 N 0.30216 0.97949 0.36737 0.0
N2051 N 0.31316 0.96057 0.36551 0.0
H2052 H 0.01023 0.30369 0.39539 0.0
H2053 H 0.04253 0.36826 0.28263 0.0
H2054 H 0.01429 0.29964 0.30028 0.0
H2055 H 0.05002 0.37251 0.37787 0.0
H2056 H 0.03698 0.34345 0.2881 0.0
H2057 H 0.02923 0.32865 0.39019 0.0
C2058 C 0.01538 0.30805 0.37352 0.0
C2059 C 0.01052 0.29982 0.34808 0.0
C2060 C 0.04022 0.34987 0.30774 0.0
C2061 C 0.03199 0.32828 0.34178 0.0
C2062 C 0.04332 0.36398 0.30458 0.0
C2063 C 0.04639 0.37219 0.32997 0.0
C2064 C 0.03976 0.3439 0.33662 0.0
C2065 C 0.04752 0.36638 0.35787 0.0
C2066 C 0.02627 0.32225 0.37054 0.0
C2067 C 0.01766 0.30576 0.32034 0.0
N2068 N 0.04383 0.35242 0.36063 0.0
N2069 N 0.02781 0.31977 0.31776 0.0
H2070 H 0.62998 0.97772 0.28465 0.0
H2071 H 0.69528 0.01869 0.39994 0.0
H2072 H 0.62273 0.98441 0.37653 0.0
H2073 H 0.70285 0.01259 0.30761 0.0
H2074 H 0.66869 0.004 0.39322 0.0
H2075 H 0.65659 0.98817 0.29394 0.0
C2076 C 0.63404 0.98121 0.30691 0.0
C2077 C 0.62428 0.98025 0.3299 0.0
C2078 C 0.67615 0.00577 0.37447 0.0
C2079 C 0.6546 0.99235 0.34071 0.0
C2080 C 0.69135 0.0142 0.37826 0.0
C2081 C 0.70134 0.01703 0.3542 0.0
C2082 C 0.67079 1.00012 0.34633 0.0
C2083 C 0.69559 0.01067 0.32681 0.0
C2084 C 0.64919 0.98722 0.31221 0.0
C2085 C 0.62997 0.98497 0.35831 0.0
N2086 N 0.68071 0.00265 0.32354 0.0
N2087 N 0.64478 0.99091 0.36287 0.0
H2088 H 0.97441 0.68985 0.30214 0.0
H2089 H 0.02701 0.66031 0.36892 0.0
H2090 H 0.98861 0.69442 0.39393 0.0
H2091 H 0.01035 0.65357 0.27872 0.0
H2092 H 0.01602 0.67574 0.37651 0.0
H2093 H 0.9904 0.67946 0.29112 0.0
C2094 C 0.98114 0.68888 0.31978 0.0
C2095 C 0.98027 0.69294 0.34891 0.0
C2096 C 0.01489 0.67099 0.35495 0.0
C2097 C 0.99837 0.6809 0.33681 0.0
C2098 C 0.02126 0.66225 0.35054 0.0
C2099 C 0.01947 0.6555 0.32325 0.0
C2100 C 0.0067 0.67303 0.33188 0.0
C2101 C 0.01177 0.65833 0.30033 0.0
C2102 C 0.99019 0.68289 0.3136 0.0
C2103 C 0.98906 0.6914 0.37117 0.0
N2104 N 0.00559 0.66677 0.30523 0.0
N2105 N 0.99766 0.68539 0.36474 0.0
H2106 H 0.35718 0.37179 0.29263 0.0
H2107 H 0.29541 0.29618 0.36229 0.0
H2108 H 0.33708 0.36678 0.38038 0.0
H2109 H 0.32314 0.30182 0.28504 0.0
H2110 H 0.30695 0.32227 0.36502 0.0
H2111 H 0.34112 0.34653 0.28522 0.0
C2112 C 0.34933 0.36536 0.31034 0.0
C2113 C 0.34869 0.37136 0.33743 0.0
C2114 C 0.31033 0.31779 0.3472 0.0
C2115 C 0.33012 0.34231 0.329 0.0
C2116 C 0.30369 0.30296 0.34553 0.0
C2117 C 0.30833 0.29698 0.32329 0.0
C2118 C 0.32161 0.32659 0.32637 0.0
C2119 C 0.31924 0.3061 0.30239 0.0
C2120 C 0.34012 0.35093 0.30606 0.0
C2121 C 0.33799 0.36258 0.35922 0.0
N2122 N 0.32554 0.32043 0.30449 0.0
N2123 N 0.32923 0.34844 0.35469 0.0
H2124 H 0.30154 0.0164 0.71721 0.0
H2125 H 0.37578 0.05002 0.6213 0.0
H2126 H 0.30511 0.01117 0.6225 0.0
H2127 H 0.3721 0.04312 0.71772 0.0
H2128 H 0.35023 0.04577 0.62061 0.0
H2129 H 0.32707 0.03593 0.71561 0.0
C2130 C 0.30757 0.0197 0.6959 0.0
C2131 C 0.30153 0.012 0.67013 0.0
C2132 C 0.35517 0.04561 0.64199 0.0
C2133 C 0.3305 0.03405 0.66818 0.0
C2134 C 0.3697 0.04803 0.64238 0.0
C2135 C 0.37573 0.04645 0.66951 0.0
C2136 C 0.34676 0.04156 0.6689 0.0
C2137 C 0.36757 0.04398 0.69628 0.0
C2138 C 0.3221 0.03079 0.695 0.0
C2139 C 0.30965 0.01666 0.643 0.0
N2140 N 0.35335 0.04134 0.69527 0.0
N2141 N 0.32388 0.02724 0.64283 0.0
H2142 H 0.96501 0.32806 0.72694 0.0
H2143 H 0.99845 0.29365 0.62768 0.0
H2144 H 0.95774 0.32357 0.63164 0.0
H2145 H 0.99686 0.28947 0.7245 0.0
H2146 H 0.97757 0.29832 0.62923 0.0
H2147 H 0.97025 0.30819 0.72817 0.0
C2148 C 0.96422 0.32263 0.7064 0.0
C2149 C 0.96144 0.32764 0.67899 0.0
C2150 C 0.98147 0.29601 0.65017 0.0
C2151 C 0.96769 0.30521 0.67996 0.0
C2152 C 0.99342 0.29341 0.64923 0.0
C2153 C 0.99954 0.29164 0.67604 0.0
C2154 C 0.97601 0.29729 0.67817 0.0
C2155 C 0.99254 0.29107 0.7034 0.0
C2156 C 0.96713 0.31126 0.70707 0.0
C2157 C 0.96014 0.32013 0.65311 0.0
N2158 N 0.98137 0.2943 0.70383 0.0
N2159 N 0.96369 0.3095 0.65404 0.0
H2160 H 0.71525 0.70609 0.70993 0.0
H2161 H 0.67873 0.63219 0.63067 0.0
H2162 H 0.70532 0.70077 0.6156 0.0
H2163 H 0.67609 0.63726 0.72578 0.0
H2164 H 0.69733 0.65737 0.62473 0.0
H2165 H 0.70988 0.68127 0.71491 0.0
C2166 C 0.7123 0.69978 0.69014 0.0
C2167 C 0.71033 0.70527 0.66249 0.0
C2168 C 0.69295 0.65287 0.647 0.0
C2169 C 0.70414 0.67706 0.66802 0.0
C2170 C 0.6824 0.63854 0.65039 0.0
C2171 C 0.6757 0.63287 0.67862 0.0
C2172 C 0.69672 0.66145 0.67204 0.0
C2173 C 0.6808 0.64143 0.70354 0.0
C2174 C 0.70921 0.68565 0.69299 0.0
C2175 C 0.70655 0.69673 0.63747 0.0
N2176 N 0.69087 0.6554 0.6996 0.0
N2177 N 0.70334 0.68294 0.64092 0.0
H2178 H 0.36215 0.35368 0.74331 0.0
H2179 H 0.29404 0.30784 0.63756 0.0
H2180 H 0.36731 0.34389 0.65234 0.0
H2181 H 0.28979 0.32568 0.71965 0.0
H2182 H 0.32051 0.31723 0.6467 0.0
H2183 H 0.33533 0.33975 0.73895 0.0
C2184 C 0.35766 0.34854 0.72244 0.0
C2185 C 0.36705 0.35018 0.69796 0.0
C2186 C 0.31378 0.31894 0.66295 0.0
C2187 C 0.33626 0.33406 0.69298 0.0
C2188 C 0.29871 0.31352 0.65782 0.0
C2189 C 0.28985 0.31595 0.67807 0.0
C2190 C 0.32002 0.32686 0.68849 0.0
C2191 C 0.29632 0.32353 0.70373 0.0
C2192 C 0.34233 0.34055 0.72003 0.0
C2193 C 0.36056 0.34293 0.67181 0.0
N2194 N 0.31106 0.32878 0.70818 0.0
N2195 N 0.34557 0.3353 0.66992 0.0
H2196 H 0.67938 0.98741 0.61169 0.0
H2197 H 0.65525 0.0279 0.72817 0.0
H2198 H 0.69307 0.99315 0.70403 0.0
H2199 H 0.64156 0.02186 0.63608 0.0
H2200 H 0.67152 0.01768 0.71838 0.0
H2201 H 0.66776 0.00226 0.61873 0.0
C2202 C 0.68001 0.99185 0.63344 0.0
C2203 C 0.68708 0.98887 0.6574 0.0
C2204 C 0.66514 0.01876 0.70015 0.0
C2205 C 0.67378 0.00598 0.66564 0.0
C2206 C 0.65594 0.02465 0.70573 0.0
C2207 C 0.64717 0.02571 0.68282 0.0
C2208 C 0.66547 0.0138 0.67149 0.0
C2209 C 0.64825 0.02125 0.65421 0.0
C2210 C 0.67341 1.00039 0.63741 0.0
C2211 C 0.68779 0.99518 0.68489 0.0
N2212 N 0.65714 0.01537 0.6494 0.0
N2213 N 0.68109 0.0033 0.68834 0.0
H2214 H 0.01824 0.70596 0.62898 0.0
H2215 H 0.98284 0.63114 0.71754 0.0
H2216 H 0.0116 0.70156 0.72526 0.0
H2217 H 0.97753 0.63528 0.62224 0.0
H2218 H 0.99264 0.65683 0.72108 0.0
H2219 H 1.00266 0.68019 0.62583 0.0
C2220 C 0.01333 0.69955 0.64943 0.0
C2221 C 0.01627 0.70585 0.67745 0.0
C2222 C 0.98915 0.65212 0.69944 0.0
C2223 C 0.9986 0.67635 0.6741 0.0
C2224 C 0.9836 0.63748 0.69741 0.0
C2225 C 0.97949 0.63114 0.66951 0.0
C2226 C 0.99085 0.66055 0.67328 0.0
C2227 C 0.98057 0.63978 0.64416 0.0
C2228 C 0.00442 0.68485 0.64762 0.0
C2229 C 0.00957 0.69711 0.70323 0.0
N2230 N 0.98636 0.65409 0.64656 0.0
N2231 N 1.00123 0.68276 0.70099 0.0
H2232 H 0.23535 0.39589 0.07032 0.0
H2233 H 0.15285 0.35539 0.00803 0.0
H2234 H 0.21943 0.35991 0.01383 0.0
H2235 H 0.17041 0.39555 0.05119 0.0
H2236 H 0.17686 0.35639 0.01226 0.0
H2237 H 0.21148 0.39564 0.06557 0.0
C2238 C 0.22686 0.38806 0.05663 0.0
C2239 C 0.22934 0.37802 0.04209 0.0
C2240 C 0.17549 0.365 0.0208 0.0
C2241 C 0.20199 0.37742 0.03709 0.0
C2242 C 0.16175 0.36448 0.01828 0.0
C2243 C 0.15953 0.37546 0.02905 0.0
C2244 C 0.18719 0.37656 0.03437 0.0
C2245 C 0.17149 0.38676 0.04279 0.0
C2246 C 0.21324 0.38786 0.05403 0.0
C2247 C 0.21793 0.36789 0.02514 0.0
N2248 N 0.18479 0.38703 0.04502 0.0
N2249 N 0.20475 0.36782 0.02316 0.0
H2250 H 0.61183 0.76985 0.96923 0.0
H2251 H 0.63132 0.84209 0.04995 0.0
H2252 H 0.63715 0.78241 0.05026 0.0
H2253 H 0.61504 0.83347 0.95964 0.0
H2254 H 0.63142 0.81931 0.05286 0.0
H2255 H 0.61093 0.79218 0.96765 0.0
C2256 C 0.61714 0.77728 0.98681 0.0
C2257 C 0.62454 0.77422 0.00997 0.0
C2258 C 0.62781 0.8224 0.03243 0.0
C2259 C 0.6236 0.79991 0.00822 0.0
C2260 C 0.62763 0.83534 0.03084 0.0
C2261 C 0.62317 0.83971 1.00449 0.0
C2262 C 0.62335 0.81365 0.00761 0.0
C2263 C 0.6187 0.83061 0.98028 0.0
C2264 C 0.61669 0.79008 0.98578 0.0
C2265 C 0.63142 0.78437 0.03187 0.0
N2266 N 0.61888 0.81802 0.98244 0.0
N2267 N 0.63073 0.79673 0.03053 0.0
H2268 H 0.17157 0.77655 0.0764 0.0
H2269 H 0.22607 0.8479 0.98867 0.0
H2270 H 0.15671 0.79466 1.00475 0.0
H2271 H 0.22714 0.84651 0.08587 0.0
H2272 H 0.20342 0.82518 0.99102 0.0
H2273 H 0.1946 0.7993 0.07778 0.0
C2274 C 0.17299 0.78519 0.06101 0.0
C2275 C 0.16202 0.78338 0.04007 0.0
C2276 C 0.20867 0.82988 0.01179 0.0
C2277 C 0.18867 0.80927 0.04107 0.0
C2278 C 0.22158 0.84299 0.01059 0.0
C2279 C 0.22855 0.84955 0.03716 0.0
C2280 C 0.20276 0.82291 0.03965 0.0
C2281 C 0.22234 0.84201 0.0647 0.0
C2282 C 0.18622 0.79815 0.0618 0.0
C2283 C 0.16485 0.79511 0.02057 0.0
N2284 N 0.20981 0.82908 0.06524 0.0
N2285 N 0.1779 0.8074 0.02131 0.0
H2286 H 0.39053 0.22243 0.02306 0.0
H2287 H 0.37879 0.15563 0.92885 0.0
H2288 H 0.37974 0.21886 0.92902 0.0
H2289 H 0.39023 0.16063 0.02254 0.0
H2290 H 0.38048 0.17925 0.92705 0.0
H2291 H 0.39183 0.20038 0.02196 0.0
C2292 C 0.38846 0.21701 1.00211 0.0
C2293 C 0.38488 0.22247 0.97616 0.0
C2294 C 0.38267 0.17518 0.94795 0.0
C2295 C 0.38636 0.19706 0.97469 0.0
C2296 C 0.38177 0.16172 0.94897 0.0
C2297 C 0.38421 0.15602 0.97598 0.0
C2298 C 0.38609 0.18305 0.97411 0.0
C2299 C 0.38794 0.1644 1.00137 0.0
C2300 C 0.38925 0.20441 1.00146 0.0
C2301 C 0.38259 0.21509 0.94953 0.0
N2302 N 0.38871 0.1774 0.99982 0.0
N2303 N 0.38324 0.2027 0.94954 0.0
H2304 H 0.85162 0.22642 0.95359 0.0
H2305 H 0.78141 0.17151 0.05485 0.0
H2306 H 0.84553 0.23156 0.04738 0.0
H2307 H 0.78719 0.16539 0.9615 0.0
H2308 H 0.80423 0.19425 0.05142 0.0
H2309 H 0.82742 0.20487 0.95484 0.0
C2310 C 0.84517 0.2231 0.97438 0.0
C2311 C 0.85072 0.23079 1.00049 0.0
C2312 C 0.80049 0.18799 0.03161 0.0
C2313 C 0.82302 0.20605 1.00212 0.0
C2314 C 0.78747 0.17495 0.03359 0.0
C2315 C 0.78238 0.16643 0.00849 0.0
C2316 C 0.80862 0.19261 1.00434 0.0
C2317 C 0.7906 0.17162 0.98138 0.0
C2318 C 0.83137 0.21075 0.97511 0.0
C2319 C 0.84187 0.22586 0.02684 0.0
N2320 N 0.80335 0.18432 0.98008 0.0
N2321 N 0.82853 0.21383 0.02699 0.0
H2322 H 0.84756 0.62054 0.92235 0.0
H2323 H 0.78709 0.62099 0.03472 0.0
H2324 H 0.85367 0.62545 0.01774 0.0
H2325 H 0.78629 0.6267 0.93827 0.0
H2326 H 0.81005 0.61994 0.02909 0.0
H2327 H 0.82351 0.61982 0.92792 0.0
C2328 C 0.84375 0.6214 0.94447 0.0
C2329 C 0.85259 0.62323 0.96959 0.0
C2330 C 0.80484 0.62141 0.00916 0.0
C2331 C 0.82516 0.62229 0.97627 0.0
C2332 C 0.79174 0.62211 0.01234 0.0
C2333 C 0.78469 0.62406 0.98696 0.0
C2334 C 0.81097 0.62255 0.98036 0.0
C2335 C 0.79116 0.62504 0.95851 0.0
C2336 C 0.83008 0.62102 0.94766 0.0
C2337 C 0.84716 0.62412 0.99784 0.0
N2338 N 0.80391 0.62429 0.95601 0.0
N2339 N 0.83381 0.62368 1.00043 0.0
H2340 H 0.82144 0.69178 0.3389 0.0
H2341 H 0.90325 0.7313 0.40423 0.0
H2342 H 0.83915 0.73222 0.38099 0.0
H2343 H 0.88823 0.69663 0.34431 0.0
H2344 H 0.87955 0.73131 0.39858 0.0
H2345 H 0.84541 0.69271 0.34351 0.0
C2346 C 0.83037 0.70093 0.34894 0.0
C2347 C 0.82819 0.712 0.35934 0.0
C2348 C 0.88147 0.72377 0.38648 0.0
C2349 C 0.85578 0.71298 0.36519 0.0
C2350 C 0.895 0.72383 0.38959 0.0
C2351 C 0.89769 0.71408 0.37437 0.0
C2352 C 0.87051 0.71374 0.36836 0.0
C2353 C 0.88657 0.70438 0.3562 0.0
C2354 C 0.84407 0.70141 0.35169 0.0
C2355 C 0.84018 0.72336 0.3729 0.0
N2356 N 0.87346 0.70442 0.35378 0.0
N2357 N 0.85343 0.72355 0.37544 0.0
H2358 H 0.26635 0.16169 0.37196 0.0
H2359 H 0.28794 0.10962 0.29473 0.0
H2360 H 0.30008 0.17665 0.30157 0.0
H2361 H 0.28605 0.10882 0.39195 0.0
H2362 H 0.28613 0.13138 0.29318 0.0
H2363 H 0.26763 0.1395 0.37653 0.0
C2364 C 0.27404 0.16047 0.35748 0.0
C2365 C 0.28301 0.17126 0.33607 0.0
C2366 C 0.28608 0.12637 0.3148 0.0
C2367 C 0.28401 0.14555 0.34067 0.0
C2368 C 0.28728 0.11398 0.31585 0.0
C2369 C 0.28754 0.10736 0.3436 0.0
C2370 C 0.28466 0.13207 0.34157 0.0
C2371 C 0.28586 0.11337 0.36998 0.0
C2372 C 0.27466 0.14772 0.36009 0.0
C2373 C 0.29252 0.16867 0.31773 0.0
N2374 N 0.28445 0.12537 0.36832 0.0
N2375 N 0.29263 0.15608 0.32023 0.0
H2376 H 0.83856 0.11376 0.32132 0.0
H2377 H 0.89285 0.18088 0.41608 0.0
H2378 H 0.83027 0.11777 0.41454 0.0
H2379 H 0.89966 0.17624 0.32238 0.0
H2380 H 0.87092 0.15719 0.41748 0.0
H2381 H 0.86186 0.13595 0.32276 0.0
C2382 C 0.84165 0.1193 0.34216 0.0
C2383 C 0.83232 0.11391 0.36777 0.0
C2384 C 0.87726 0.16135 0.39666 0.0
C2385 C 0.85919 0.13948 0.36963 0.0
C2386 C 0.88983 0.17485 0.39587 0.0
C2387 C 0.89808 0.18067 0.36899 0.0
C2388 C 0.87291 0.15355 0.3704 0.0
C2389 C 0.89352 0.17237 0.34347 0.0
C2390 C 0.85502 0.13198 0.34299 0.0
C2391 C 0.83712 0.12146 0.39428 0.0
N2392 N 0.88128 0.15931 0.34481 0.0
N2393 N 0.85015 0.13391 0.39447 0.0
H2394 H 0.02785 0.48245 0.33878 0.0
H2395 H 0.04757 0.55445 0.2557 0.0
H2396 H 0.06287 0.49763 0.27113 0.0
H2397 H 0.04911 0.55187 0.35278 0.0
H2398 H 0.0482 0.53193 0.25416 0.0
H2399 H 0.02965 0.50588 0.33738 0.0
C2400 C 0.03603 0.49062 0.32376 0.0
C2401 C 0.04549 0.48789 0.30561 0.0
C2402 C 0.04844 0.53643 0.27567 0.0
C2403 C 0.0469 0.51474 0.30291 0.0
C2404 C 0.04817 0.54935 0.27669 0.0
C2405 C 0.04801 0.55519 0.30449 0.0
C2406 C 0.04816 0.52908 0.30259 0.0
C2407 C 0.04861 0.54774 0.33078 0.0
C2408 C 0.03689 0.504 0.32284 0.0
C2409 C 0.05526 0.499 0.28554 0.0
N2410 N 0.04838 0.53502 0.32917 0.0
N2411 N 0.05567 0.51192 0.28464 0.0
H2412 H 0.50853 0.56662 0.37703 0.0
H2413 H 0.45479 0.49397 0.29821 0.0
H2414 H 0.52101 0.55307 0.29713 0.0
H2415 H 0.44705 0.50348 0.38766 0.0
H2416 H 0.47795 0.51658 0.29497 0.0
H2417 H 0.48495 0.54451 0.37895 0.0
C2418 C 0.50628 0.55903 0.35977 0.0
C2419 C 0.51678 0.56175 0.33683 0.0
C2420 C 0.47117 0.51373 0.31528 0.0
C2421 C 0.48974 0.53631 0.33897 0.0
C2422 C 0.45788 0.50088 0.31706 0.0
C2423 C 0.44894 0.4968 0.34326 0.0
C2424 C 0.47553 0.52267 0.33978 0.0
C2425 C 0.45364 0.50611 0.36714 0.0
C2426 C 0.49284 0.54635 0.36099 0.0
C2427 C 0.51331 0.55138 0.31536 0.0
N2428 N 0.46658 0.51859 0.3648 0.0
N2429 N 0.50008 0.53916 0.31687 0.0
H2430 H 0.44197 0.93725 0.30042 0.0
H2431 H 0.52867 0.97478 0.33493 0.0
H2432 H 0.46582 0.97791 0.34132 0.0
H2433 H 0.50724 0.93859 0.27931 0.0
H2434 H 0.50511 0.97485 0.3411 0.0
H2435 H 0.46517 0.93649 0.2953 0.0
C2436 C 0.45205 0.94607 0.30817 0.0
C2437 C 0.45183 0.95766 0.32139 0.0
C2438 C 0.50549 0.96682 0.32768 0.0
C2439 C 0.47847 0.9567 0.31603 0.0
C2440 C 0.51891 0.96676 0.3243 0.0
C2441 C 0.51978 0.95657 0.30691 0.0
C2442 C 0.49282 0.95661 0.31352 0.0
C2443 C 0.50691 0.94648 0.29326 0.0
C2444 C 0.4653 0.94557 0.3054 0.0
C2445 C 0.4653 0.96862 0.33147 0.0
N2446 N 0.49393 0.94674 0.29687 0.0
N2447 N 0.47801 0.96785 0.32862 0.0
H2448 H 0.56163 0.04879 0.75737 0.0
H2449 H 0.50148 0.05043 0.64565 0.0
H2450 H 0.56351 0.04584 0.66139 0.0
H2451 H 0.49458 0.04367 0.74192 0.0
H2452 H 0.52544 0.05136 0.65107 0.0
H2453 H 0.53844 0.04979 0.75223 0.0
C2454 C 0.55714 0.04843 0.73522 0.0
C2455 C 0.56431 0.04707 0.70978 0.0
C2456 C 0.51869 0.04969 0.67101 0.0
C2457 C 0.53795 0.04831 0.70361 0.0
C2458 C 0.50492 0.04906 0.66795 0.0
C2459 C 0.49581 0.04682 0.69333 0.0
C2460 C 0.52356 0.04819 0.6997 0.0
C2461 C 0.50119 0.04554 0.72168 0.0
C2462 C 0.54393 0.04896 0.73227 0.0
C2463 C 0.55822 0.0468 0.68152 0.0
N2464 N 0.51466 0.04621 0.72408 0.0
N2465 N 0.54536 0.04737 0.67918 0.0
H2466 H 0.95003 0.43922 0.63123 0.0
H2467 H 0.95822 0.50637 0.719 0.0
H2468 H 0.96164 0.44553 0.7247 0.0
H2469 H 0.94686 0.49958 0.62547 0.0
H2470 H 0.95803 0.48349 0.72268 0.0
H2471 H 0.94761 0.46072 0.62973 0.0
C2472 C 0.95212 0.44516 0.65146 0.0
C2473 C 0.95622 0.44061 0.67806 0.0
C2474 C 0.9555 0.48697 0.70139 0.0
C2475 C 0.9533 0.46529 0.67657 0.0
C2476 C 0.95551 0.5 0.69931 0.0
C2477 C 0.95261 0.50498 0.67182 0.0
C2478 C 0.95258 0.47881 0.67581 0.0
C2479 C 0.94939 0.49632 0.647 0.0
C2480 C 0.95065 0.45741 0.65063 0.0
C2481 C 0.95842 0.44858 0.70374 0.0
N2482 N 0.94951 0.48372 0.64957 0.0
N2483 N 0.95703 0.46058 0.70231 0.0
H2484 H 0.57269 0.5032 0.72602 0.0
H2485 H 0.48651 0.4609 0.68744 0.0
H2486 H 0.54761 0.52273 0.69034 0.0
H2487 H 0.50995 0.43976 0.72348 0.0
H2488 H 0.50886 0.48369 0.69069 0.0
H2489 H 0.54996 0.48006 0.72816 0.0
C2490 C 0.5624 0.50266 0.71891 0.0
C2491 C 0.56211 0.51494 0.70768 0.0
C2492 C 0.5092 0.47411 0.69794 0.0
C2493 C 0.53612 0.48849 0.70987 0.0
C2494 C 0.49641 0.46104 0.69589 0.0
C2495 C 0.49637 0.44833 0.70475 0.0
C2496 C 0.52219 0.47463 0.70894 0.0
C2497 C 0.50947 0.44928 0.71635 0.0
C2498 C 0.54945 0.48943 0.71999 0.0
C2499 C 0.54847 0.51355 0.6986 0.0
N2500 N 0.5219 0.4622 0.71792 0.0
N2501 N 0.5361 0.50062 0.6998 0.0
H2502 H 0.72648 0.89163 0.68811 0.0
H2503 H 0.71311 0.82465 0.59256 0.0
H2504 H 0.71417 0.88787 0.5949 0.0
H2505 H 0.7241 0.82888 0.68651 0.0
H2506 H 0.71523 0.84845 0.59135 0.0
H2507 H 0.7274 0.8694 0.68637 0.0
C2508 C 0.72399 0.88614 0.66721 0.0
C2509 C 0.72009 0.8916 0.6417 0.0
C2510 C 0.71723 0.84417 0.61218 0.0
C2511 C 0.72117 0.86599 0.63948 0.0
C2512 C 0.71609 0.83061 0.61286 0.0
C2513 C 0.71827 0.82465 0.63977 0.0
C2514 C 0.72065 0.85188 0.63856 0.0
C2515 C 0.72201 0.83287 0.6654 0.0
C2516 C 0.72456 0.87343 0.6662 0.0
C2517 C 0.71728 0.88411 0.61509 0.0
N2518 N 0.72303 0.84598 0.66417 0.0
N2519 N 0.71776 0.87165 0.61473 0.0
H2520 H 0.12038 0.834 0.7286 0.0
H2521 H 0.17377 0.90415 0.63703 0.0
H2522 H 0.11677 0.83479 0.63175 0.0
H2523 H 0.19073 0.88495 0.70205 0.0
H2524 H 0.15018 0.88193 0.63862 0.0
H2525 H 0.14352 0.85633 0.72396 0.0
C2526 C 0.12436 0.83872 0.70632 0.0
C2527 C 0.11654 0.83212 0.68049 0.0
C2528 C 0.15915 0.88273 0.65248 0.0
C2529 C 0.14284 0.85822 0.67543 0.0
C2530 C 0.1727 0.89536 0.65149 0.0
C2531 C 0.18445 0.8967 0.6697 0.0
C2532 C 0.15717 0.87148 0.67236 0.0
C2533 C 0.18204 0.88483 0.68832 0.0
C2534 C 0.13755 0.85157 0.70382 0.0
C2535 C 0.12217 0.83936 0.65243 0.0
N2536 N 0.16866 0.87285 0.68945 0.0
N2537 N 0.13496 0.85203 0.65066 0.0
H2538 H 0.18922 0.29352 0.68528 0.0
H2539 H 0.12102 0.29509 0.60273 0.0
H2540 H 0.18414 0.29235 0.58924 0.0
H2541 H 0.12225 0.28872 0.69887 0.0
H2542 H 0.14415 0.2943 0.59735 0.0
H2543 H 0.16474 0.29188 0.69097 0.0
C2544 C 0.18286 0.29285 0.66545 0.0
C2545 C 0.18869 0.29329 0.63677 0.0
C2546 C 0.13933 0.29302 0.61962 0.0
C2547 C 0.16082 0.29147 0.64289 0.0
C2548 C 0.12604 0.2934 0.62273 0.0
C2549 C 0.11959 0.29201 0.65134 0.0
C2550 C 0.14635 0.29133 0.64529 0.0
C2551 C 0.12687 0.29011 0.67639 0.0
C2552 C 0.16894 0.29193 0.66863 0.0
C2553 C 0.18006 0.29227 0.6117 0.0
N2554 N 0.13985 0.28988 0.67279 0.0
N2555 N 0.16661 0.29153 0.6153 0.0
H2556 H 0.05995 0.43262 0.19138 0.0
H2557 H 0.10232 0.391 0.13541 0.0
H2558 H 0.07308 0.40875 0.25203 0.0
H2559 H 0.07821 0.4043 0.07537 0.0
H2560 H 0.09416 0.39969 0.17791 0.0
H2561 H 0.06881 0.42467 0.14871 0.0
C2562 C 0.06456 0.42557 0.19575 0.0
C2563 C 0.06531 0.42102 0.22548 0.0
C2564 C 0.09061 0.4007 0.15549 0.0
C2565 C 0.07609 0.41221 0.17635 0.0
C2566 C 0.09523 0.39568 0.13115 0.0
C2567 C 0.09065 0.39655 0.10171 0.0
C2568 C 0.08154 0.407 0.15057 0.0
C2569 C 0.08188 0.40322 0.09763 0.0
C2570 C 0.06972 0.4211 0.1713 0.0
C2571 C 0.07204 0.41239 0.22959 0.0
N2572 N 0.07761 0.40813 0.12164 0.0
N2573 N 0.0771 0.40827 0.20547 0.0
H2574 H 0.56983 0.62804 0.20975 0.0
H2575 H 0.61078 0.7075 0.13476 0.0
H2576 H 0.59632 0.66483 0.26099 0.0
H2577 H 0.59862 0.67041 0.08333 0.0
H2578 H 0.60251 0.69221 0.18103 0.0
H2579 H 0.57712 0.64336 0.16352 0.0
C2580 C 0.5772 0.63935 0.2113 0.0
C2581 C 0.58269 0.64505 0.2394 0.0
C2582 C 0.60164 0.68738 0.15966 0.0
C2583 C 0.59081 0.66287 0.18626 0.0
C2584 C 0.60638 0.69613 0.13318 0.0
C2585 C 0.6057 0.69032 0.10499 0.0
C2586 C 0.59574 0.67255 0.1582 0.0
C2587 C 0.5995 0.67542 0.10446 0.0
C2588 C 0.58135 0.64811 0.18484 0.0
C2589 C 0.5919 0.6599 0.23991 0.0
N2590 N 0.59479 0.66711 0.13048 0.0
N2591 N 0.59565 0.66824 0.21391 0.0
H2592 H 0.31193 0.8956 0.13162 0.0
H2593 H 0.3556 0.9557 0.24927 0.0
H2594 H 0.32107 0.93884 0.11427 0.0
H2595 H 0.36708 0.92275 0.23501 0.0
H2596 H 0.33949 0.94795 0.20532 0.0
H2597 H 0.32864 0.90341 0.17449 0.0
C2598 C 0.31773 0.90681 0.13621 0.0
C2599 C 0.31549 0.91665 0.11819 0.0
C2600 C 0.34539 0.9423 0.21205 0.0
C2601 C 0.33399 0.92555 0.16907 0.0
C2602 C 0.35456 0.94668 0.23725 0.0
C2603 C 0.36244 0.93963 0.24675 0.0
C2604 C 0.3438 0.93058 0.19611 0.0
C2605 C 0.36078 0.92815 0.22969 0.0
C2606 C 0.32713 0.91123 0.16109 0.0
C2607 C 0.32262 0.93088 0.12699 0.0
N2608 N 0.35159 0.92391 0.20559 0.0
N2609 N 0.3314 0.93486 0.15172 0.0
H2610 H 0.41835 0.10874 0.88233 0.0
H2611 H 0.40123 0.04865 0.76476 0.0
H2612 H 0.38456 0.06543 0.9013 0.0
H2613 H 0.44601 0.08102 0.77958 0.0
H2614 H 0.39306 0.05646 0.80887 0.0
H2615 H 0.42693 0.10083 0.83916 0.0
C2616 C 0.41294 0.09751 0.87799 0.0
C2617 C 0.40108 0.08768 0.8966 0.0
C2618 C 0.40465 0.06197 0.80221 0.0
C2619 C 0.41028 0.07866 0.84539 0.0
C2620 C 0.40933 0.05756 0.77692 0.0
C2621 C 0.42431 0.06444 0.76752 0.0
C2622 C 0.41493 0.07357 0.8183 0.0
C2623 C 0.43428 0.07578 0.78478 0.0
C2624 C 0.41774 0.09303 0.85296 0.0
C2625 C 0.39392 0.07339 0.88812 0.0
N2626 N 0.42942 0.08006 0.80892 0.0
N2627 N 0.39854 0.06935 0.86323 0.0
H2628 H 0.89705 0.30946 0.89671 0.0
H2629 H 0.95861 0.35124 0.76851 0.0
H2630 H 0.94259 0.32059 0.91065 0.0
H2631 H 0.92384 0.36168 0.78378 0.0
H2632 H 0.95107 0.33639 0.81548 0.0
H2633 H 0.90461 0.32496 0.85077 0.0
C2634 C 0.90869 0.31543 0.89066 0.0
C2635 C 0.91924 0.31411 0.90859 0.0
C2636 C 0.94497 0.34178 0.80833 0.0
C2637 C 0.92788 0.3312 0.85433 0.0
C2638 C 0.94922 0.35023 0.78141 0.0
C2639 C 0.9416 0.35744 0.77133 0.0
C2640 C 0.93278 0.34024 0.82544 0.0
C2641 C 0.92966 0.35586 0.78956 0.0
C2642 C 0.91297 0.32413 0.86406 0.0
C2643 C 0.93406 0.32144 0.89802 0.0
N2644 N 0.92555 0.34736 0.81536 0.0
N2645 N 0.9379 0.32952 0.87168 0.0
H2646 H 0.68813 0.62176 0.91578 0.0
H2647 H 0.64529 0.56163 0.79772 0.0
H2648 H 0.70022 0.58923 0.90142 0.0
H2649 H 0.65411 0.60476 0.78017 0.0
H2650 H 0.66176 0.56953 0.84096 0.0
H2651 H 0.67205 0.61386 0.87181 0.0
C2652 C 0.68722 0.61279 0.90375 0.0
C2653 C 0.69528 0.60591 0.9132 0.0
C2654 C 0.66022 0.57729 0.82747 0.0
C2655 C 0.67668 0.59669 0.86255 0.0
C2656 C 0.65095 0.57283 0.8024 0.0
C2657 C 0.64873 0.58262 0.78418 0.0
C2658 C 0.66694 0.59161 0.83543 0.0
C2659 C 0.65567 0.59684 0.79304 0.0
C2660 C 0.67807 0.60833 0.87853 0.0
C2661 C 0.69379 0.59449 0.89614 0.0
N2662 N 0.66433 0.60087 0.81794 0.0
N2663 N 0.68461 0.59018 0.87202 0.0
H2664 H 0.93827 0.62708 0.85128 0.0
H2665 H 0.92828 0.55715 0.77362 0.0
H2666 H 0.89986 0.58566 0.86538 0.0
H2667 H 0.9592 0.59939 0.73967 0.0
H2668 H 0.9195 0.56746 0.81162 0.0
H2669 H 0.94746 0.61729 0.8131 0.0
C2670 C 0.93166 0.61598 0.84615 0.0
C2671 C 0.91828 0.60718 0.86178 0.0
C2672 C 0.92822 0.5745 0.79591 0.0
C2673 C 0.92896 0.59586 0.81864 0.0
C2674 C 0.93323 0.56862 0.77441 0.0
C2675 C 0.94428 0.5775 0.75354 0.0
C2676 C 0.93445 0.58936 0.79669 0.0
C2677 C 0.95057 0.59227 0.75546 0.0
C2678 C 0.93699 0.61039 0.82451 0.0
C2679 C 0.91036 0.59281 0.85443 0.0
N2680 N 0.94553 0.59778 0.77667 0.0
N2681 N 0.91586 0.5876 0.83357 0.0
H2682 H 0.37551 0.31103 0.90218 0.0
H2683 H 0.44446 0.36718 0.80311 0.0
H2684 H 0.41262 0.30472 0.88122 0.0
H2685 H 0.40048 0.35906 0.7813 0.0
H2686 H 0.43386 0.34731 0.84067 0.0
H2687 H 0.38502 0.3312 0.86484 0.0
C2688 C 0.38566 0.31393 0.88969 0.0
C2689 C 0.39356 0.30655 0.89526 0.0
C2690 C 0.42653 0.34989 0.82769 0.0
C2691 C 0.40453 0.32951 0.85329 0.0
C2692 C 0.43256 0.36119 0.80637 0.0
C2693 C 0.42326 0.3644 0.78866 0.0
C2694 C 0.41112 0.34203 0.83192 0.0
C2695 C 0.40795 0.3567 0.79434 0.0
C2696 C 0.39106 0.32539 0.86854 0.0
C2697 C 0.4065 0.31049 0.87828 0.0
N2698 N 0.4023 0.34579 0.81551 0.0
N2699 N 0.41171 0.32185 0.85839 0.0
H2700 H 0.69564 0.07101 0.94147 0.0
H2701 H 0.64305 0.08143 0.82411 0.0
H2702 H 0.70327 0.11197 0.9063 0.0
H2703 H 0.64653 0.04291 0.82884 0.0
H2704 H 0.66253 0.09167 0.8609 0.0
H2705 H 0.67559 0.05946 0.90538 0.0
C2706 C 0.69312 0.07752 0.92591 0.0
C2707 C 0.70085 0.09238 0.92687 0.0
C2708 C 0.65901 0.08096 0.85394 0.0
C2709 C 0.67801 0.07942 0.88635 0.0
C2710 C 0.64787 0.07509 0.83294 0.0
C2711 C 0.64329 0.06136 0.82293 0.0
C2712 C 0.66554 0.07302 0.86543 0.0
C2713 C 0.64967 0.05351 0.83593 0.0
C2714 C 0.68171 0.07097 0.90551 0.0
C2715 C 0.69734 0.10045 0.90641 0.0
N2716 N 0.66054 0.05948 0.85645 0.0
N2717 N 0.68604 0.09387 0.88717 0.0
H2718 H 0.62853 0.9332 0.07363 0.0
H2719 H 0.56666 0.91866 0.19789 0.0
H2720 H 0.59787 0.89136 0.11002 0.0
H2721 H 0.60612 0.95947 0.18611 0.0
H2722 H 0.57661 0.909 0.1613 0.0
H2723 H 0.6196 0.94363 0.11137 0.0
C2724 C 0.62002 0.92627 0.08985 0.0
C2725 C 0.61375 0.91147 0.08879 0.0
C2726 C 0.58309 0.92007 0.16674 0.0
C2727 C 0.60337 0.92314 0.13129 0.0
C2728 C 0.57743 0.92561 0.18768 0.0
C2729 C 0.58561 0.93989 0.19543 0.0
C2730 C 0.59699 0.92888 0.15309 0.0
C2731 C 0.59934 0.94844 0.18071 0.0
C2732 C 0.6149 0.93217 0.11121 0.0
C2733 C 0.60279 0.90283 0.11008 0.0
N2734 N 0.60461 0.9428 0.16026 0.0
N2735 N 0.59782 0.90879 0.1303 0.0
H2736 H 0.05616 0.65439 0.25902 0.0
H2737 H 0.07144 0.68406 0.08792 0.0
H2738 H 0.05324 0.62848 0.18496 0.0
H2739 H 0.0932 0.71068 0.16193 0.0
H2740 H 0.05939 0.66345 0.12345 0.0
H2741 H 0.06471 0.67513 0.22375 0.0
C2742 C 0.05704 0.65304 0.23522 0.0
C2743 C 0.05361 0.63966 0.22471 0.0
C2744 C 0.0666 0.67385 0.13194 0.0
C2745 C 0.06337 0.66323 0.18443 0.0
C2746 C 0.07339 0.68559 0.11177 0.0
C2747 C 0.08304 0.69911 0.12215 0.0
C2748 C 0.06942 0.67566 0.16276 0.0
C2749 C 0.08543 0.70054 0.15315 0.0
C2750 C 0.06195 0.66485 0.21521 0.0
C2751 C 0.05518 0.63847 0.19381 0.0
N2752 N 0.07865 0.68894 0.17242 0.0
N2753 N 0.0599 0.6501 0.17472 0.0
H2754 H 0.37425 0.44503 0.23607 0.0
H2755 H 0.31285 0.37528 0.15946 0.0
H2756 H 0.36102 0.40272 0.2721 0.0
H2757 H 0.31739 0.41714 0.14344 0.0
H2758 H 0.33204 0.38498 0.19726 0.0
H2759 H 0.35559 0.4349 0.1971 0.0
C2760 C 0.36746 0.43358 0.23547 0.0
C2761 C 0.36896 0.42464 0.25723 0.0
C2762 C 0.32879 0.39201 0.18547 0.0
C2763 C 0.3477 0.41298 0.21302 0.0
C2764 C 0.31773 0.38646 0.16403 0.0
C2765 C 0.31344 0.39538 0.14804 0.0
C2766 C 0.33575 0.40661 0.1908 0.0
C2767 C 0.32046 0.40987 0.15467 0.0
C2768 C 0.35679 0.42781 0.21342 0.0
C2769 C 0.36007 0.40989 0.2556 0.0
N2770 N 0.33128 0.41501 0.17539 0.0
N2771 N 0.34974 0.40448 0.23388 0.0
H2772 H 0.71641 0.73305 0.56514 0.0
H2773 H 0.78022 0.74835 0.4446 0.0
H2774 H 0.75187 0.77564 0.54658 0.0
H2775 H 0.73505 0.71675 0.43026 0.0
H2776 H 0.77185 0.75682 0.48713 0.0
H2777 H 0.72461 0.72508 0.52135 0.0
C2778 C 0.72607 0.7407 0.55221 0.0
C2779 C 0.73372 0.75499 0.5605 0.0
C2780 C 0.76374 0.74813 0.47448 0.0
C2781 C 0.74329 0.74583 0.51005 0.0
C2782 C 0.76849 0.74339 0.44981 0.0
C2783 C 0.75829 0.73216 0.43271 0.0
C2784 C 0.74869 0.74127 0.4832 0.0
C2785 C 0.74332 0.72561 0.44226 0.0
C2786 C 0.73071 0.73614 0.5271 0.0
C2787 C 0.74601 0.76441 0.54227 0.0
N2788 N 0.73902 0.73016 0.46679 0.0
N2789 N 0.75049 0.75966 0.51831 0.0
H2790 H 0.25484 0.02826 0.44998 0.0
H2791 H 0.27517 0.98777 0.57958 0.0
H2792 H 0.28987 0.01797 0.43684 0.0
H2793 H 0.22969 0.9761 0.56302 0.0
H2794 H 0.28244 0.00241 0.53231 0.0
H2795 H 0.24692 0.01277 0.49591 0.0
C2796 C 0.26065 0.02247 0.45618 0.0
C2797 C 0.2727 0.02403 0.43846 0.0
C2798 C 0.27088 0.99679 0.53924 0.0
C2799 C 0.26426 0.00695 0.49277 0.0
C2800 C 0.26672 0.98845 0.56632 0.0
C2801 C 0.25181 0.98098 0.57616 0.0
C2802 C 0.26014 0.99795 0.52173 0.0
C2803 C 0.24137 0.98214 0.55745 0.0
C2804 C 0.25623 0.01377 0.48278 0.0
C2805 C 0.28035 0.01693 0.44927 0.0
N2806 N 0.24573 0.99055 0.53153 0.0
N2807 N 0.27611 0.00885 0.47563 0.0
H2808 H 0.02242 0.28878 0.58172 0.0
H2809 H 0.97933 0.22853 0.464 0.0
H2810 H 0.03447 0.25623 0.56718 0.0
H2811 H 0.9881 0.27164 0.44634 0.0
H2812 H 0.99584 0.23647 0.50718 0.0
H2813 H 0.00623 0.28084 0.53792 0.0
C2814 C 0.02148 0.2798 0.56969 0.0
C2815 C 0.02956 0.27293 0.57905 0.0
C2816 C 0.99427 0.24422 0.49368 0.0
C2817 C 0.01082 0.26366 0.5286 0.0
C2818 C 0.98498 0.23973 0.46866 0.0
C2819 C 0.98275 0.24951 0.4504 0.0
C2820 C 1.00101 0.25855 0.50158 0.0
C2821 C 0.98967 0.26374 0.45923 0.0
C2822 C 0.01226 0.27531 0.54457 0.0
C2823 C 0.02801 0.26149 0.56199 0.0
N2824 N 0.99837 0.26778 0.48409 0.0
N2825 N 0.01877 0.25715 0.53797 0.0
H2826 H 0.25855 0.22572 0.44076 0.0
H2827 H 0.27373 0.29956 0.50675 0.0
H2828 H 0.28931 0.26623 0.39879 0.0
H2829 H 0.23458 0.25976 0.5291 0.0
H2830 H 0.28074 0.28767 0.46917 0.0
H2831 H 0.25111 0.23802 0.47666 0.0
C2832 C 0.26376 0.23723 0.43934 0.0
C2833 C 0.2744 0.24504 0.41684 0.0
C2834 C 0.27054 0.28157 0.48207 0.0
C2835 C 0.26608 0.25916 0.45758 0.0
C2836 C 0.26653 0.28835 0.50343 0.0
C2837 C 0.25355 0.28062 0.52096 0.0
C2838 C 0.26163 0.2669 0.47857 0.0
C2839 C 0.24459 0.26612 0.51583 0.0
C2840 C 0.25949 0.24424 0.45962 0.0
C2841 C 0.28103 0.25991 0.41593 0.0
N2842 N 0.24889 0.25968 0.49532 0.0
N2843 N 0.27675 0.26652 0.43602 0.0
H2844 H 0.7451 0.97091 0.54365 0.0
H2845 H 0.73324 0.02658 0.44287 0.0
H2846 H 0.71001 0.97987 0.56697 0.0
H2847 H 0.77666 0.03381 0.46711 0.0
H2848 H 0.72233 0.00679 0.4811 0.0
H2849 H 0.75457 0.99082 0.50617 0.0
C2850 C 0.73941 0.97711 0.54078 0.0
C2851 C 0.72709 0.97414 0.55891 0.0
C2852 C 0.73424 0.01275 0.47796 0.0
C2853 C 0.7375 0.99649 0.51568 0.0
C2854 C 0.74043 0.024 0.45634 0.0
C2855 C 0.7558 0.03148 0.45145 0.0
C2856 C 0.74353 0.00895 0.49427 0.0
C2857 C 0.76472 0.02795 0.46962 0.0
C2858 C 0.74479 0.98841 0.5195 0.0
C2859 C 0.71972 0.98207 0.55364 0.0
N2860 N 0.75845 0.01676 0.48988 0.0
N2861 N 0.72505 0.99296 0.53244 0.0
H2862 H 0.0355 0.78057 0.58075 0.0
H2863 H 0.97981 0.71056 0.49739 0.0
H2864 H 0.02866 0.73895 0.60873 0.0
H2865 H 0.97777 0.74982 0.49131 0.0
H2866 H 0.99858 0.72068 0.53598 0.0
H2867 H 0.0158 0.76964 0.54415 0.0
C2868 C 0.02977 0.7691 0.57911 0.0
C2869 C 0.0334 0.76056 0.59792 0.0
C2870 C 0.99393 0.72702 0.52628 0.0
C2871 C 0.01109 0.748 0.55608 0.0
C2872 C 0.98312 0.72122 0.50442 0.0
C2873 C 0.97725 0.72938 0.49081 0.0
C2874 C 0.99901 0.74112 0.53439 0.0
C2875 C 0.98218 0.74322 0.50061 0.0
C2876 C 0.01855 0.76287 0.55833 0.0
C2877 C 0.026 0.74582 0.59462 0.0
N2878 N 0.99284 0.74867 0.52157 0.0
N2879 N 0.01514 0.73996 0.57408 0.0
H2880 H 0.11121 0.36029 0.89629 0.0
H2881 H 0.04853 0.31153 0.77988 0.0
H2882 H 0.06487 0.34617 0.91061 0.0
H2883 H 0.09511 0.32727 0.76462 0.0
H2884 H 0.05407 0.32375 0.82782 0.0
H2885 H 0.10551 0.34829 0.8483 0.0
C2886 C 0.09984 0.35484 0.88912 0.0
C2887 C 0.08855 0.35455 0.90735 0.0
C2888 C 0.06311 0.32458 0.81402 0.0
C2889 C 0.0818 0.34032 0.8523 0.0
C2890 C 0.05993 0.31757 0.78663 0.0
C2891 C 0.07137 0.31849 0.76795 0.0
C2892 C 0.07789 0.33255 0.82315 0.0
C2893 C 0.08594 0.32639 0.77807 0.0
C2894 C 0.09655 0.34787 0.86174 0.0
C2895 C 0.07396 0.34688 0.89716 0.0
N2896 N 0.08876 0.33309 0.80474 0.0
N2897 N 0.07102 0.34013 0.87049 0.0
H2898 H 0.64268 0.74591 0.88798 0.0
H2899 H 0.69355 0.73405 0.76631 0.0
H2900 H 0.65868 0.71592 0.90269 0.0
H2901 H 0.67737 0.76393 0.75189 0.0
H2902 H 0.68097 0.72724 0.81603 0.0
H2903 H 0.655 0.75243 0.83809 0.0
C2904 C 0.64869 0.7406 0.8806 0.0
C2905 C 0.6495 0.73025 0.89958 0.0
C2906 C 0.6801 0.73526 0.80201 0.0
C2907 C 0.66393 0.73781 0.84223 0.0
C2908 C 0.68731 0.73915 0.77359 0.0
C2909 C 0.68635 0.74943 0.7546 0.0
C2910 C 0.67188 0.74174 0.8119 0.0
C2911 C 0.67823 0.75579 0.76549 0.0
C2912 C 0.6558 0.74437 0.8521 0.0
C2913 C 0.65766 0.72389 0.88883 0.0
N2914 N 0.67132 0.75184 0.79317 0.0
N2915 N 0.66452 0.72775 0.86109 0.0
H2916 H 0.29773 0.93919 0.91157 0.0
H2917 H 0.23486 0.92893 0.79149 0.0
H2918 H 0.25124 0.91089 0.92735 0.0
H2919 H 0.28121 0.95759 0.77494 0.0
H2920 H 0.24068 0.9224 0.84123 0.0
H2921 H 0.29213 0.9461 0.86179 0.0
C2922 C 0.28633 0.93446 0.90459 0.0
C2923 C 0.27494 0.9246 0.92397 0.0
C2924 C 0.24961 0.93019 0.82689 0.0
C2925 C 0.26835 0.93239 0.86661 0.0
C2926 C 0.24627 0.93399 0.79848 0.0
C2927 C 0.25752 0.94405 0.7791 0.0
C2928 C 0.2644 0.93637 0.83627 0.0
C2929 C 0.27215 0.94994 0.78922 0.0
C2930 C 0.28312 0.93841 0.87613 0.0
C2931 C 0.26038 0.9187 0.91346 0.0
N2932 N 0.27515 0.94606 0.81694 0.0
N2933 N 0.25753 0.92269 0.88574 0.0
H2934 H 0.36182 0.1039 0.10504 0.0
H2935 H 0.31176 0.04117 0.22761 0.0
H2936 H 0.34656 0.0596 0.09062 0.0
H2937 H 0.32734 0.08562 0.24087 0.0
H2938 H 0.32411 0.04745 0.17761 0.0
H2939 H 0.34928 0.09735 0.15461 0.0
C2940 C 0.35594 0.09278 0.11245 0.0
C2941 C 0.35553 0.08232 0.09375 0.0
C2942 C 0.32488 0.05586 0.19143 0.0
C2943 C 0.34075 0.0746 0.15075 0.0
C2944 C 0.31781 0.05226 0.22002 0.0
C2945 C 0.31866 0.06288 0.23874 0.0
C2946 C 0.33286 0.07024 0.18116 0.0
C2947 C 0.32654 0.07708 0.22746 0.0
C2948 C 0.34869 0.08901 0.14078 0.0
C2949 C 0.34736 0.06804 0.10437 0.0
N2950 N 0.33332 0.08031 0.19967 0.0
N2951 N 0.34038 0.06462 0.13203 0.0
H2952 H 0.92758 0.23383 0.24186 0.0
H2953 H 0.94039 0.29684 0.12021 0.0
H2954 H 0.95619 0.27814 0.25741 0.0
H2955 H 0.91138 0.25242 0.1065 0.0
H2956 H 0.94629 0.29047 0.17025 0.0
H2957 H 0.92163 0.2405 0.19241 0.0
C2958 C 0.93272 0.24498 0.23473 0.0
C2959 C 0.94263 0.25541 0.25371 0.0
C2960 C 0.93865 0.28209 0.15633 0.0
C2961 C 0.93565 0.26326 0.19683 0.0
C2962 C 0.93528 0.28574 0.12772 0.0
C2963 C 0.92553 0.27515 0.10884 0.0
C2964 C 0.93218 0.26769 0.16646 0.0
C2965 C 0.91912 0.26094 0.12002 0.0
C2966 C 0.92927 0.24881 0.20648 0.0
C2967 C 0.94865 0.26972 0.24344 0.0
N2968 N 0.92258 0.25765 0.14783 0.0
N2969 N 0.94513 0.27321 0.21583 0.0
H2970 H 0.73096 0.67903 0.2472 0.0
H2971 H 0.76112 0.65972 0.09788 0.0
H2972 H 0.77703 0.69329 0.22876 0.0
H2973 H 0.71491 0.645 0.11561 0.0
H2974 H 0.76706 0.67195 0.14562 0.0
H2975 H 0.72474 0.66656 0.1996 0.0
C2976 C 0.73978 0.67964 0.233 0.0
C2977 C 0.75458 0.68749 0.24184 0.0
C2978 C 0.7556 0.66607 0.13919 0.0
C2979 C 0.74753 0.673 0.18711 0.0
C2980 C 0.75221 0.65909 0.11184 0.0
C2981 C 0.7375 0.65144 0.10245 0.0
C2982 C 0.7442 0.66543 0.15773 0.0
C2983 C 0.7264 0.65084 0.12178 0.0
C2984 C 0.73623 0.67248 0.2058 0.0
C2985 C 0.76551 0.68765 0.22266 0.0
N2986 N 0.72996 0.65775 0.14829 0.0
N2987 N 0.76179 0.6806 0.19638 0.0
H2988 H 0.89578 0.66801 0.25617 0.0
H2989 H 0.92611 0.67713 0.08665 0.0
H2990 H 0.94083 0.69653 0.22683 0.0
H2991 H 0.88384 0.64252 0.11694 0.0
H2992 H 0.93016 0.68629 0.13703 0.0
H2993 H 0.88999 0.65982 0.20466 0.0
C2994 C 0.90445 0.67252 0.23899 0.0
C2995 C 0.91878 0.68307 0.24583 0.0
C2996 C 0.91995 0.67673 0.13266 0.0
C2997 C 0.91219 0.67393 0.18697 0.0
C2998 C 0.91756 0.67158 0.10378 0.0
C2999 C 0.90465 0.65901 0.0976 0.0
C3000 C 0.90934 0.66928 0.15561 0.0
C3001 C 0.89405 0.65215 0.12087 0.0
C3002 C 0.90111 0.66791 0.2096 0.0
C3003 C 0.92954 0.68862 0.22257 0.0
N3004 N 0.89666 0.65734 0.14892 0.0
N3005 N 0.92601 0.68401 0.19428 0.0
H3006 H 0.31434 0.26707 0.22097 0.0
H3007 H 0.33876 0.23873 0.07891 0.0
H3008 H 0.31369 0.22669 0.22054 0.0
H3009 H 0.34455 0.28117 0.08128 0.0
H3010 H 0.32756 0.23349 0.12948 0.0
H3011 H 0.32396 0.27212 0.16877 0.0
C3012 C 0.3164 0.25937 0.20984 0.0
C3013 C 0.31354 0.2466 0.2249 0.0
C3014 C 0.3311 0.24391 0.11889 0.0
C3015 C 0.32415 0.25205 0.16547 0.0
C3016 C 0.33733 0.24682 0.08996 0.0
C3017 C 0.34223 0.26027 0.07592 0.0
C3018 C 0.32991 0.25459 0.13399 0.0
C3019 C 0.34062 0.27059 0.09136 0.0
C3020 C 0.32179 0.26219 0.18014 0.0
C3021 C 0.31604 0.23677 0.20963 0.0
N3022 N 0.3346 0.26755 0.11966 0.0
N3023 N 0.32121 0.23969 0.18074 0.0
H3024 H 0.7336 0.05399 0.26105 0.0
H3025 H 0.76249 0.10754 0.11611 0.0
H3026 H 0.77177 0.09571 0.26017 0.0
H3027 H 0.72081 0.06874 0.11918 0.0
H3028 H 0.76671 0.10257 0.16826 0.0
H3029 H 0.7288 0.0586 0.2088 0.0
C3030 C 0.74074 0.06423 0.24993 0.0
C3031 C 0.75287 0.07463 0.26483 0.0
C3032 C 0.75669 0.09504 0.15753 0.0
C3033 C 0.74784 0.07983 0.20521 0.0
C3034 C 0.7544 0.09781 0.12773 0.0
C3035 C 0.74146 0.08835 0.11343 0.0
C3036 C 0.7459 0.08277 0.17318 0.0
C3037 C 0.73104 0.0761 0.12949 0.0
C3038 C 0.73811 0.06682 0.22016 0.0
C3039 C 0.76211 0.08759 0.24948 0.0
N3040 N 0.73348 0.07364 0.1586 0.0
N3041 N 0.75944 0.08981 0.22044 0.0
H3042 H 0.67791 0.90915 0.74892 0.0
H3043 H 0.65507 0.93686 0.89394 0.0
H3044 H 0.68192 0.95092 0.75138 0.0
H3045 H 0.6582 0.8983 0.89373 0.0
H3046 H 0.66367 0.94196 0.84109 0.0
H3047 H 0.66865 0.90427 0.80103 0.0
C3048 C 0.67647 0.91714 0.76037 0.0
C3049 C 0.68032 0.93031 0.74593 0.0
C3050 C 0.66264 0.93247 0.85269 0.0
C3051 C 0.67025 0.92508 0.80566 0.0
C3052 C 0.65787 0.92965 0.88279 0.0
C3053 C 0.6563 0.91735 0.89806 0.0
C3054 C 0.66561 0.92276 0.83783 0.0
C3055 C 0.65962 0.90806 0.8827 0.0
C3056 C 0.67138 0.91446 0.79016 0.0
C3057 C 0.67877 0.94055 0.7618 0.0
N3058 N 0.66408 0.91093 0.85338 0.0
N3059 N 0.67385 0.93773 0.79092 0.0
H3060 H 0.0525 0.73237 0.78281 0.0
H3061 H 0.06846 0.71543 0.92733 0.0
H3062 H 0.09663 0.76791 0.78297 0.0
H3063 H 0.10437 0.75847 0.92315 0.0
H3064 H 0.06326 0.71819 0.87455 0.0
H3065 H 0.05576 0.72554 0.83412 0.0
C3066 C 0.06306 0.73842 0.79347 0.0
C3067 C 0.07446 0.75046 0.77858 0.0
C3068 C 0.07205 0.72719 0.88517 0.0
C3069 C 0.07836 0.7429 0.83735 0.0
C3070 C 0.07501 0.72556 0.91529 0.0
C3071 C 0.08654 0.73688 0.92958 0.0
C3072 C 0.08078 0.74026 0.86931 0.0
C3073 C 0.09511 0.74965 0.91301 0.0
C3074 C 0.06496 0.73456 0.82281 0.0
C3075 C 0.08775 0.75833 0.79351 0.0
N3076 N 0.09204 0.751 0.88377 0.0
N3077 N 0.0893 0.75446 0.82213 0.0
H3078 H 0.22596 0.33366 0.75871 0.0
H3079 H 0.24642 0.32309 0.92802 0.0
H3080 H 0.2401 0.30329 0.78717 0.0
H3081 H 0.2395 0.35805 0.89779 0.0
H3082 H 0.24035 0.31353 0.87794 0.0
H3083 H 0.22769 0.34091 0.81071 0.0
C3084 C 0.22939 0.32849 0.77582 0.0
C3085 C 0.2329 0.31785 0.7684 0.0
C3086 C 0.24005 0.32324 0.8823 0.0
C3087 C 0.23473 0.32598 0.82805 0.0
C3088 C 0.24338 0.32863 0.91099 0.0
C3089 C 0.24357 0.34145 0.91707 0.0
C3090 C 0.23685 0.33068 0.85946 0.0
C3091 C 0.23972 0.34826 0.89396 0.0
C3092 C 0.2303 0.33258 0.80554 0.0
C3093 C 0.23705 0.31138 0.79173 0.0
N3094 N 0.2366 0.34284 0.86613 0.0
N3095 N 0.23789 0.31558 0.82039 0.0
H3096 H 0.01403 0.39288 0.42105 0.0
H3097 H 0.99519 0.41944 0.57454 0.0
H3098 H 0.02917 0.43692 0.43814 0.0
H3099 H 0.98071 0.37534 0.55935 0.0
H3100 H 0.00749 0.42592 0.52472 0.0
H3101 H 1.00177 0.38614 0.47108 0.0
C3102 C 0.01491 0.40115 0.43548 0.0
C3103 C 0.02293 0.41552 0.42549 0.0
C3104 C 1.00166 0.41482 0.53217 0.0
C3105 C 0.00864 0.40787 0.48299 0.0
C3106 C 0.99464 0.41111 0.56071 0.0
C3107 C 0.98704 0.39682 0.57143 0.0
C3108 C 1.00109 0.40418 0.51373 0.0
C3109 C 0.98652 0.38649 0.55219 0.0
C3110 C 0.00786 0.3973 0.46406 0.0
C3111 C 0.02341 0.42574 0.44504 0.0
N3112 N 0.99345 0.39035 0.52447 0.0
N3113 N 0.01643 0.42174 0.47265 0.0
H3114 H 0.59226 0.5657 0.57697 0.0
H3115 H 0.60163 0.62772 0.45589 0.0
H3116 H 0.62001 0.61027 0.59143 0.0
H3117 H 0.57479 0.58302 0.44145 0.0
H3118 H 0.60809 0.62175 0.50573 0.0
H3119 H 0.58553 0.57188 0.52783 0.0
C3120 C 0.59706 0.5768 0.56966 0.0
C3121 C 0.60697 0.58746 0.58823 0.0
C3122 C 0.60076 0.61322 0.49175 0.0
C3123 C 0.59904 0.59472 0.53177 0.0
C3124 C 0.59704 0.61664 0.46328 0.0
C3125 C 0.58769 0.60587 0.44431 0.0
C3126 C 0.59509 0.59887 0.50162 0.0
C3127 C 0.58208 0.59169 0.45518 0.0
C3128 C 0.59315 0.58035 0.54159 0.0
C3129 C 0.6125 0.60169 0.57777 0.0
N3130 N 0.58587 0.58862 0.48287 0.0
N3131 N 0.60852 0.60489 0.55038 0.0
H3132 H 0.39773 0.01179 0.582 0.0
H3133 H 0.42783 0.99239 0.43268 0.0
H3134 H 0.44379 0.02594 0.56357 0.0
H3135 H 0.38167 0.9782 0.44982 0.0
H3136 H 0.43376 0.00452 0.48054 0.0
H3137 H 0.3915 0.99939 0.53429 0.0
C3138 C 0.40655 0.01239 0.56778 0.0
C3139 C 0.42134 0.02019 0.57665 0.0
C3140 C 0.42232 0.99878 0.47395 0.0
C3141 C 0.41428 0.00578 0.52182 0.0
C3142 C 0.41893 0.99185 0.44653 0.0
C3143 C 0.40423 0.98439 0.43693 0.0
C3144 C 0.41094 0.99826 0.49236 0.0
C3145 C 0.39315 0.9839 0.45615 0.0
C3146 C 0.40299 0.00527 0.54052 0.0
C3147 C 0.43227 0.02034 0.55745 0.0
N3148 N 0.39672 0.99075 0.48274 0.0
N3149 N 0.42854 0.01332 0.53113 0.0
H3150 H 0.59138 0.0112 0.41745 0.0
H3151 H 0.56203 1.00053 0.58805 0.0
H3152 H 0.55035 0.97516 0.44878 0.0
H3153 H 0.60679 0.02971 0.55802 0.0
H3154 H 0.55603 0.99268 0.53637 0.0
H3155 H 0.59529 0.02036 0.46789 0.0
C3156 C 0.58306 0.00535 0.43482 0.0
C3157 C 0.57057 0.99236 0.42897 0.0
C3158 C 0.56713 1.00085 0.5412 0.0
C3159 C 0.57511 0.00262 0.48694 0.0
C3160 C 0.57059 0.00526 0.57068 0.0
C3161 C 0.5849 0.01589 0.5774 0.0
C3162 C 0.57806 0.00715 0.51835 0.0
C3163 C 0.59551 0.02173 0.55389 0.0
C3164 C 0.58537 0.01049 0.46371 0.0
C3165 C 0.56024 0.98512 0.45249 0.0
N3166 N 0.59187 0.01732 0.5255 0.0
N3167 N 0.56277 0.99031 0.48053 0.0
H3168 H 0.99149 0.56412 0.56185 0.0
H3169 H 0.01531 0.61814 0.41761 0.0
H3170 H 0.98804 0.60253 0.55991 0.0
H3171 H 0.01187 0.57656 0.41726 0.0
H3172 H 0.0066 0.61349 0.47041 0.0
H3173 H 1.00088 0.56954 0.5098 0.0
C3174 C 0.99304 0.57386 0.5505 0.0
C3175 C 0.98933 0.58307 0.56509 0.0
C3176 C 0.00761 0.60533 0.45871 0.0
C3177 C 0.9996 0.58918 0.50546 0.0
C3178 C 0.01247 0.60796 0.42865 0.0
C3179 C 0.01396 0.59758 0.41322 0.0
C3180 C 0.00446 0.59231 0.47338 0.0
C3181 C 0.01054 0.58468 0.42843 0.0
C3182 C 0.99822 0.57689 0.52076 0.0
C3183 C 0.99106 0.59534 0.54937 0.0
N3184 N 0.00598 0.58241 0.4577 0.0
N3185 N 0.99608 0.59806 0.52031 0.0
H3186 H 0.3847 0.40015 0.45582 0.0
H3187 H 0.43735 0.42856 0.5982 0.0
H3188 H 0.42559 0.43971 0.45509 0.0
H3189 H 0.39897 0.38702 0.59772 0.0
H3190 H 0.43214 0.43343 0.54671 0.0
H3191 H 0.38888 0.39536 0.50843 0.0
C3192 C 0.39465 0.40769 0.46674 0.0
C3193 C 0.40499 0.42016 0.45122 0.0
C3194 C 0.42473 0.4233 0.5579 0.0
C3195 C 0.40969 0.41504 0.51119 0.0
C3196 C 0.42762 0.42061 0.58735 0.0
C3197 C 0.41836 0.40752 0.6022 0.0
C3198 C 0.41256 0.41275 0.5431 0.0
C3199 C 0.40617 0.39734 0.58702 0.0
C3200 C 0.397 0.40503 0.4967 0.0
C3201 C 0.41755 0.42983 0.4663 0.0
N3202 N 0.40361 0.40015 0.55821 0.0
N3203 N 0.41955 0.42707 0.49546 0.0
loop_
_geom_bond_atom_site_label_1
_geom_bond_atom_site_label_2
_geom_bond_distance
_geom_bond_site_symmetry_2
_ccdc_geom_bond_type
C0 C1 1.443 . S
C0 N4 1.376 . S
C0 C38 1.389 . S
C1 C0 1.443 . S
C1 C2 1.340 . S
C1 H41 0.951 . S
C2 C1 1.340 . S
C2 C3 1.439 . S
C2 H42 0.950 . S
C3 C2 1.439 . S
C3 N4 1.374 . S
C3 C37 1.395 . S
N4 C0 1.376 . S
N4 C3 1.374 . S
N4 Co5 2.008 . S
Co5 N4 2.008 . S
Co5 N6 1.995 1_554 S
Co5 N11 2.008 1_554 S
Co5 N16 1.995 . S
Co5 N21 2.282 . S
Co5 N27 2.282 1_554 S
N6 Co5 1.995 1_556 S
N6 C7 1.376 1_556 S
N6 C10 1.383 . S
C7 N6 1.376 1_554 S
C7 C8 1.446 1_554 S
C7 C37 1.391 . S
C8 C7 1.446 1_556 S
C8 C9 1.339 . S
C8 H43 0.949 . S
C9 C8 1.339 . S
C9 C10 1.439 . S
C9 H44 0.950 . S
C10 N6 1.383 . S
C10 C9 1.439 . S
C10 C39 1.392 . S
N11 Co5 2.008 1_556 S
N11 C12 1.376 . S
N11 C15 1.374 . S
C12 N11 1.376 . S
C12 C13 1.443 . S
C12 C39 1.389 . S
C13 C12 1.443 . S
C13 C14 1.340 . S
C13 H45 0.951 . S
C14 C13 1.340 . S
C14 C15 1.439 . S
C14 H46 0.950 . S
C15 N11 1.374 . S
C15 C14 1.439 . S
C15 C40 1.395 . S
N16 Co5 1.995 . S
N16 C17 1.376 1_554 S
N16 C20 1.383 . S
C17 N16 1.376 1_556 S
C17 C18 1.446 1_556 S
C17 C40 1.391 . S
C18 C17 1.446 1_554 S
C18 C19 1.339 . S
C18 H47 0.949 . S
C19 C18 1.339 . S
C19 C20 1.439 . S
C19 H48 0.950 . S
C20 N16 1.383 . S
C20 C19 1.439 . S
C20 C38 1.392 . S
N21 Co5 2.282 . S
N21 C24 1.322 1_554 S
N21 C26 1.337 . S
C22 C23 1.386 . S
C22 C25 1.391 . S
C23 C22 1.386 . S
C23 C24 1.382 . S
C23 H49 0.950 . S
C24 N21 1.322 1_556 S
C24 C23 1.382 . S
C24 H35 0.952 . S
C25 C22 1.391 . S
C25 C26 1.381 1_556 S
C25 H50 0.949 1_556 S
C26 N21 1.337 . S
C26 C25 1.381 1_554 S
C26 H36 0.948 . S
N27 Co5 2.282 1_556 S
N27 C31 1.324 1_556 S
N27 C32 1.335 . S
C28 C29 1.393 . S
C28 C32 1.380 1_554 S
C28 H51 0.948 1_554 S
C29 C28 1.393 . S
C29 C30 1.386 . S
C30 C29 1.386 . S
C30 C31 1.382 . S
C30 H52 0.950 . S
C31 N27 1.324 1_554 S
C31 C30 1.382 . S
C31 H33 0.952 . S
C32 N27 1.335 . S
C32 C28 1.380 1_556 S
C32 H34 0.948 . S
H33 C31 0.952 . S
H34 C32 0.948 . S
H35 C24 0.952 . S
H36 C26 0.948 . S
C37 C3 1.395 . S
C37 C7 1.391 . S
C38 C0 1.389 . S
C38 C20 1.392 . S
C39 C10 1.392 . S
C39 C12 1.389 . S
C40 C15 1.395 . S
C40 C17 1.391 . S
H41 C1 0.951 . S
H42 C2 0.950 . S
H43 C8 0.949 . S
H44 C9 0.950 . S
H45 C13 0.951 . S
H46 C14 0.950 . S
H47 C18 0.949 . S
H48 C19 0.950 . S
H49 C23 0.950 . S
H50 C25 0.949 1_554 S
H51 C28 0.948 1_556 S
H52 C30 0.950 . S
C53 C54 1.443 . S
C53 N57 1.376 . S
C53 C91 1.389 . S
C54 C53 1.443 . S
C54 C55 1.340 . S
C54 H94 0.951 . S
C55 C54 1.340 . S
C55 C56 1.439 . S
C55 H95 0.950 . S
C56 C55 1.439 . S
C56 N57 1.374 . S
C56 C90 1.395 . S
N57 C53 1.376 . S
N57 C56 1.374 . S
N57 Co58 2.008 . S
Co58 N57 2.008 . S
Co58 N59 1.995 1_554 S
Co58 N64 2.008 1_554 S
Co58 N69 1.995 . S
Co58 N74 2.281 . S
Co58 N80 2.281 1_554 S
N59 Co58 1.995 1_556 S
N59 C60 1.367 1_556 S
N59 C63 1.383 . S
C60 N59 1.367 1_554 S
C60 C61 1.437 1_554 S
C60 C90 1.408 . S
C61 C60 1.437 1_556 S
C61 C62 1.339 . S
C61 H96 0.949 . S
C62 C61 1.339 . S
C62 C63 1.439 . S
C62 H97 0.950 . S
C63 N59 1.383 . S
C63 C62 1.439 . S
C63 C92 1.392 . S
N64 Co58 2.008 1_556 S
N64 C65 1.376 . S
N64 C68 1.374 . S
C65 N64 1.376 . S
C65 C66 1.443 . S
C65 C92 1.389 . S
C66 C65 1.443 . S
C66 C67 1.340 . S
C66 H98 0.951 . S
C67 C66 1.340 . S
C67 C68 1.439 . S
C67 H99 0.950 . S
C68 N64 1.374 . S
C68 C67 1.439 . S
C68 C93 1.395 . S
N69 Co58 1.995 . S
N69 C70 1.372 1_554 S
N69 C73 1.383 . S
C70 N69 1.372 1_556 S
C70 C71 1.442 1_556 S
C70 C93 1.399 . S
C71 C70 1.442 1_554 S
C71 C72 1.339 . S
C71 H100 0.949 . S
C72 C71 1.339 . S
C72 C73 1.439 . S
C72 H101 0.950 . S
C73 N69 1.383 . S
C73 C72 1.439 . S
C73 C91 1.392 . S
N74 Co58 2.281 . S
N74 C77 1.323 1_554 S
N74 C79 1.336 . S
C75 C76 1.386 . S
C75 C78 1.388 . S
C76 C75 1.386 . S
C76 C77 1.382 . S
C76 H102 0.950 . S
C77 N74 1.323 1_556 S
C77 C76 1.382 . S
C77 H88 0.952 . S
C78 C75 1.388 . S
C78 C79 1.382 1_556 S
C78 H103 0.950 . S
C79 N74 1.336 . S
C79 C78 1.382 1_554 S
C79 H89 0.948 . S
N80 Co58 2.281 1_556 S
N80 C84 1.325 1_556 S
N80 C85 1.335 . S
C81 C82 1.388 . S
C81 C85 1.382 1_554 S
C81 H104 0.950 . S
C82 C81 1.388 . S
C82 C83 1.386 . S
C83 C82 1.386 . S
C83 C84 1.382 . S
C83 H105 0.950 . S
C84 N80 1.325 1_554 S
C84 C83 1.382 . S
C84 H86 0.952 . S
C85 N80 1.335 . S
C85 C81 1.382 1_556 S
C85 H87 0.948 . S
H86 C84 0.952 . S
H87 C85 0.948 . S
H88 C77 0.952 . S
H89 C79 0.948 . S
C90 C56 1.395 . S
C90 C60 1.408 . S
C91 C53 1.389 . S
C91 C73 1.392 . S
C92 C63 1.392 . S
C92 C65 1.389 . S
C93 C68 1.395 . S
C93 C70 1.399 . S
H94 C54 0.951 . S
H95 C55 0.950 . S
H96 C61 0.949 . S
H97 C62 0.950 . S
H98 C66 0.951 . S
H99 C67 0.950 . S
H100 C71 0.949 . S
H101 C72 0.950 . S
H102 C76 0.950 . S
H103 C78 0.950 . S
H104 C81 0.950 . S
H105 C83 0.950 . S
C106 C107 1.443 . S
C106 N110 1.376 . S
C106 C144 1.389 . S
C107 C106 1.443 . S
C107 C108 1.340 . S
C107 H147 0.951 . S
C108 C107 1.340 . S
C108 C109 1.439 . S
C108 H148 0.950 . S
C109 C108 1.439 . S
C109 N110 1.374 . S
C109 C143 1.395 . S
N110 C106 1.376 . S
N110 C109 1.374 . S
N110 Co111 2.008 . S
Co111 N110 2.008 . S
Co111 N112 1.995 1_554 S
Co111 N117 2.008 1_554 S
Co111 N122 1.995 . S
Co111 N127 2.282 . S
Co111 N133 2.282 1_554 S
N112 Co111 1.995 1_556 S
N112 C113 1.376 1_556 S
N112 C116 1.383 . S
C113 N112 1.376 1_554 S
C113 C114 1.446 1_554 S
C113 C143 1.391 . S
C114 C113 1.446 1_556 S
C114 C115 1.339 . S
C114 H149 0.949 . S
C115 C114 1.339 . S
C115 C116 1.439 . S
C115 H150 0.950 . S
C116 N112 1.383 . S
C116 C115 1.439 . S
C116 C145 1.392 . S
N117 Co111 2.008 1_556 S
N117 C118 1.376 . S
N117 C121 1.374 . S
C118 N117 1.376 . S
C118 C119 1.443 . S
C118 C145 1.389 . S
C119 C118 1.443 . S
C119 C120 1.340 . S
C119 H151 0.951 . S
C120 C119 1.340 . S
C120 C121 1.439 . S
C120 H152 0.950 . S
C121 N117 1.374 . S
C121 C120 1.439 . S
C121 C146 1.395 . S
N122 Co111 1.995 . S
N122 C123 1.376 1_554 S
N122 C126 1.383 . S
C123 N122 1.376 1_556 S
C123 C124 1.446 1_556 S
C123 C146 1.391 . S
C124 C123 1.446 1_554 S
C124 C125 1.339 . S
C124 H153 0.949 . S
C125 C124 1.339 . S
C125 C126 1.439 . S
C125 H154 0.950 . S
C126 N122 1.383 . S
C126 C125 1.439 . S
C126 C144 1.392 . S
N127 Co111 2.282 . S
N127 C130 1.332 1_554 S
N127 C132 1.332 . S
C128 C129 1.386 . S
C128 C131 1.395 . S
C129 C128 1.386 . S
C129 C130 1.382 . S
C129 H155 0.950 . S
C130 N127 1.332 1_556 S
C130 C129 1.382 . S
C130 H141 0.952 . S
C131 C128 1.395 . S
C131 C132 1.378 1_556 S
C131 H156 0.948 1_556 S
C132 N127 1.332 . S
C132 C131 1.378 1_554 S
C132 H142 0.948 . S
N133 Co111 2.282 1_556 S
N133 C137 1.332 1_556 S
N133 C138 1.332 . S
C134 C135 1.397 . S
C134 C138 1.377 1_554 S
C134 H157 0.948 1_554 S
C135 C134 1.397 . S
C135 C136 1.386 . S
C136 C135 1.386 . S
C136 C137 1.382 . S
C136 H158 0.950 . S
C137 N133 1.332 1_554 S
C137 C136 1.382 . S
C137 H139 0.952 . S
C138 N133 1.332 . S
C138 C134 1.377 1_556 S
C138 H140 0.948 . S
H139 C137 0.952 . S
H140 C138 0.948 . S
H141 C130 0.952 . S
H142 C132 0.948 . S
C143 C109 1.395 . S
C143 C113 1.391 . S
C144 C106 1.389 . S
C144 C126 1.392 . S
C145 C116 1.392 . S
C145 C118 1.389 . S
C146 C121 1.395 . S
C146 C123 1.391 . S
H147 C107 0.951 . S
H148 C108 0.950 . S
H149 C114 0.949 . S
H150 C115 0.950 . S
H151 C119 0.951 . S
H152 C120 0.950 . S
H153 C124 0.949 . S
H154 C125 0.950 . S
H155 C129 0.950 . S
H156 C131 0.948 1_554 S
H157 C134 0.948 1_556 S
H158 C136 0.950 . S
C159 C160 1.443 . S
C159 N163 1.376 . S
C159 C197 1.389 . S
C160 C159 1.443 . S
C160 C161 1.340 . S
C160 H200 0.951 . S
C161 C160 1.340 . S
C161 C162 1.439 . S
C161 H201 0.950 . S
C162 C161 1.439 . S
C162 N163 1.374 . S
C162 C196 1.395 . S
N163 C159 1.376 . S
N163 C162 1.374 . S
N163 Co164 2.008 . S
Co164 N163 2.008 . S
Co164 N165 1.995 1_556 S
Co164 N170 2.008 1_556 S
Co164 N175 1.995 . S
Co164 N180 2.282 . S
Co164 N186 2.282 1_556 S
N165 Co164 1.995 1_554 S
N165 C166 1.376 1_554 S
N165 C169 1.383 . S
C166 N165 1.376 1_556 S
C166 C167 1.446 1_556 S
C166 C196 1.391 . S
C167 C166 1.446 1_554 S
C167 C168 1.339 . S
C167 H202 0.949 . S
C168 C167 1.339 . S
C168 C169 1.439 . S
C168 H203 0.950 . S
C169 N165 1.383 . S
C169 C168 1.439 . S
C169 C198 1.392 . S
N170 Co164 2.008 1_554 S
N170 C171 1.376 . S
N170 C174 1.374 . S
C171 N170 1.376 . S
C171 C172 1.443 . S
C171 C198 1.389 . S
C172 C171 1.443 . S
C172 C173 1.340 . S
C172 H204 0.951 . S
C173 C172 1.340 . S
C173 C174 1.439 . S
C173 H205 0.950 . S
C174 N170 1.374 . S
C174 C173 1.439 . S
C174 C199 1.395 . S
N175 Co164 1.995 . S
N175 C176 1.376 1_556 S
N175 C179 1.383 . S
C176 N175 1.376 1_554 S
C176 C177 1.446 1_554 S
C176 C199 1.391 . S
C177 C176 1.446 1_556 S
C177 C178 1.339 . S
C177 H206 0.949 . S
C178 C177 1.339 . S
C178 C179 1.439 . S
C178 H207 0.950 . S
C179 N175 1.383 . S
C179 C178 1.439 . S
C179 C197 1.392 . S
N180 Co164 2.282 . S
N180 C183 1.332 1_556 S
N180 C185 1.332 . S
C181 C182 1.386 . S
C181 C184 1.395 . S
C182 C181 1.386 . S
C182 C183 1.382 . S
C182 H208 0.950 . S
C183 N180 1.332 1_554 S
C183 C182 1.382 . S
C183 H194 0.952 . S
C184 C181 1.395 . S
C184 C185 1.378 1_554 S
C184 H209 0.948 1_554 S
C185 N180 1.332 . S
C185 C184 1.378 1_556 S
C185 H195 0.948 . S
N186 Co164 2.282 1_554 S
N186 C190 1.332 1_554 S
N186 C191 1.332 . S
C187 C188 1.397 . S
C187 C191 1.377 1_556 S
C187 H210 0.948 1_556 S
C188 C187 1.397 . S
C188 C189 1.386 . S
C189 C188 1.386 . S
C189 C190 1.382 . S
C189 H211 0.950 . S
C190 N186 1.332 1_556 S
C190 C189 1.382 . S
C190 H192 0.952 . S
C191 N186 1.332 . S
C191 C187 1.377 1_554 S
C191 H193 0.948 . S
H192 C190 0.952 . S
H193 C191 0.948 . S
H194 C183 0.952 . S
H195 C185 0.948 . S
C196 C162 1.395 . S
C196 C166 1.391 . S
C197 C159 1.389 . S
C197 C179 1.392 . S
C198 C169 1.392 . S
C198 C171 1.389 . S
C199 C174 1.395 . S
C199 C176 1.391 . S
H200 C160 0.951 . S
H201 C161 0.950 . S
H202 C167 0.949 . S
H203 C168 0.950 . S
H204 C172 0.951 . S
H205 C173 0.950 . S
H206 C177 0.949 . S
H207 C178 0.950 . S
H208 C182 0.950 . S
H209 C184 0.948 1_556 S
H210 C187 0.948 1_554 S
H211 C189 0.950 . S
C212 C213 1.443 . S
C212 N216 1.376 . S
C212 C250 1.389 . S
C213 C212 1.443 . S
C213 C214 1.340 . S
C213 H253 0.951 . S
C214 C213 1.340 . S
C214 C215 1.439 . S
C214 H254 0.950 . S
C215 C214 1.439 . S
C215 N216 1.374 . S
C215 C249 1.395 . S
N216 C212 1.376 . S
N216 C215 1.374 . S
N216 Co217 2.008 . S
Co217 N216 2.008 . S
Co217 N218 1.995 1_556 S
Co217 N223 2.008 1_556 S
Co217 N228 1.995 . S
Co217 N233 2.281 . S
Co217 N239 2.281 1_556 S
N218 Co217 1.995 1_554 S
N218 C219 1.367 1_554 S
N218 C222 1.383 . S
C219 N218 1.367 1_556 S
C219 C220 1.436 1_556 S
C219 C249 1.408 . S
C220 C219 1.436 1_554 S
C220 C221 1.339 . S
C220 H255 0.949 . S
C221 C220 1.339 . S
C221 C222 1.439 . S
C221 H256 0.950 . S
C222 N218 1.383 . S
C222 C221 1.439 . S
C222 C251 1.392 . S
N223 Co217 2.008 1_554 S
N223 C224 1.376 . S
N223 C227 1.374 . S
C224 N223 1.376 . S
C224 C225 1.443 . S
C224 C251 1.389 . S
C225 C224 1.443 . S
C225 C226 1.340 . S
C225 H257 0.951 . S
C226 C225 1.340 . S
C226 C227 1.439 . S
C226 H258 0.950 . S
C227 N223 1.374 . S
C227 C226 1.439 . S
C227 C252 1.395 . S
N228 Co217 1.995 . S
N228 C229 1.372 1_556 S
N228 C232 1.383 . S
C229 N228 1.372 1_554 S
C229 C230 1.442 1_554 S
C229 C252 1.399 . S
C230 C229 1.442 1_556 S
C230 C231 1.339 . S
C230 H259 0.949 . S
C231 C230 1.339 . S
C231 C232 1.439 . S
C231 H260 0.950 . S
C232 N228 1.383 . S
C232 C231 1.439 . S
C232 C250 1.392 . S
N233 Co217 2.281 . S
N233 C236 1.323 1_556 S
N233 C238 1.336 . S
C234 C235 1.386 . S
C234 C237 1.388 . S
C235 C234 1.386 . S
C235 C236 1.382 . S
C235 H261 0.950 . S
C236 N233 1.323 1_554 S
C236 C235 1.382 . S
C236 H247 0.952 . S
C237 C234 1.388 . S
C237 C238 1.382 1_554 S
C237 H262 0.950 . S
C238 N233 1.336 . S
C238 C237 1.382 1_556 S
C238 H248 0.948 . S
N239 Co217 2.281 1_554 S
N239 C243 1.325 1_554 S
N239 C244 1.335 . S
C240 C241 1.388 . S
C240 C244 1.382 1_556 S
C240 H263 0.950 . S
C241 C240 1.388 . S
C241 C242 1.386 . S
C242 C241 1.386 . S
C242 C243 1.382 . S
C242 H264 0.950 . S
C243 N239 1.325 1_556 S
C243 C242 1.382 . S
C243 H245 0.952 . S
C244 N239 1.335 . S
C244 C240 1.382 1_554 S
C244 H246 0.948 . S
H245 C243 0.952 . S
H246 C244 0.948 . S
H247 C236 0.952 . S
H248 C238 0.948 . S
C249 C215 1.395 . S
C249 C219 1.408 . S
C250 C212 1.389 . S
C250 C232 1.392 . S
C251 C222 1.392 . S
C251 C224 1.389 . S
C252 C227 1.395 . S
C252 C229 1.399 . S
H253 C213 0.951 . S
H254 C214 0.950 . S
H255 C220 0.949 . S
H256 C221 0.950 . S
H257 C225 0.951 . S
H258 C226 0.950 . S
H259 C230 0.949 . S
H260 C231 0.950 . S
H261 C235 0.950 . S
H262 C237 0.950 . S
H263 C240 0.950 . S
H264 C242 0.950 . S
C265 C266 1.443 . S
C265 N269 1.376 . S
C265 C303 1.389 . S
C266 C265 1.443 . S
C266 C267 1.340 . S
C266 H306 0.951 . S
C267 C266 1.340 . S
C267 C268 1.439 . S
C267 H307 0.950 . S
C268 C267 1.439 . S
C268 N269 1.374 . S
C268 C302 1.395 . S
N269 C265 1.376 . S
N269 C268 1.374 . S
N269 Co270 2.008 . S
Co270 N269 2.008 . S
Co270 N271 1.995 1_556 S
Co270 N276 2.008 1_556 S
Co270 N281 1.995 . S
Co270 N286 2.282 . S
Co270 N292 2.282 1_556 S
N271 Co270 1.995 1_554 S
N271 C272 1.376 1_554 S
N271 C275 1.383 . S
C272 N271 1.376 1_556 S
C272 C273 1.446 1_556 S
C272 C302 1.391 . S
C273 C272 1.446 1_554 S
C273 C274 1.339 . S
C273 H308 0.949 . S
C274 C273 1.339 . S
C274 C275 1.439 . S
C274 H309 0.950 . S
C275 N271 1.383 . S
C275 C274 1.439 . S
C275 C304 1.392 . S
N276 Co270 2.008 1_554 S
N276 C277 1.376 . S
N276 C280 1.374 . S
C277 N276 1.376 . S
C277 C278 1.443 . S
C277 C304 1.389 . S
C278 C277 1.443 . S
C278 C279 1.340 . S
C278 H310 0.951 . S
C279 C278 1.340 . S
C279 C280 1.439 . S
C279 H311 0.950 . S
C280 N276 1.374 . S
C280 C279 1.439 . S
C280 C305 1.395 . S
N281 Co270 1.995 . S
N281 C282 1.376 1_556 S
N281 C285 1.383 . S
C282 N281 1.376 1_554 S
C282 C283 1.446 1_554 S
C282 C305 1.391 . S
C283 C282 1.446 1_556 S
C283 C284 1.339 . S
C283 H312 0.949 . S
C284 C283 1.339 . S
C284 C285 1.439 . S
C284 H313 0.950 . S
C285 N281 1.383 . S
C285 C284 1.439 . S
C285 C303 1.392 . S
N286 Co270 2.282 . S
N286 C289 1.322 1_556 S
N286 C291 1.337 . S
C287 C288 1.386 . S
C287 C290 1.391 . S
C288 C287 1.386 . S
C288 C289 1.382 . S
C288 H314 0.950 . S
C289 N286 1.322 1_554 S
C289 C288 1.382 . S
C289 H300 0.952 . S
C290 C287 1.391 . S
C290 C291 1.381 1_554 S
C290 H315 0.949 1_554 S
C291 N286 1.337 . S
C291 C290 1.381 1_556 S
C291 H301 0.948 . S
N292 Co270 2.282 1_554 S
N292 C296 1.324 1_554 S
N292 C297 1.335 . S
C293 C294 1.393 . S
C293 C297 1.380 1_556 S
C293 H316 0.948 1_556 S
C294 C293 1.393 . S
C294 C295 1.386 . S
C295 C294 1.386 . S
C295 C296 1.382 . S
C295 H317 0.950 . S
C296 N292 1.324 1_556 S
C296 C295 1.382 . S
C296 H298 0.952 . S
C297 N292 1.335 . S
C297 C293 1.380 1_554 S
C297 H299 0.948 . S
H298 C296 0.952 . S
H299 C297 0.948 . S
H300 C289 0.952 . S
H301 C291 0.948 . S
C302 C268 1.395 . S
C302 C272 1.391 . S
C303 C265 1.389 . S
C303 C285 1.392 . S
C304 C275 1.392 . S
C304 C277 1.389 . S
C305 C280 1.395 . S
C305 C282 1.391 . S
H306 C266 0.951 . S
H307 C267 0.950 . S
H308 C273 0.949 . S
H309 C274 0.950 . S
H310 C278 0.951 . S
H311 C279 0.950 . S
H312 C283 0.949 . S
H313 C284 0.950 . S
H314 C288 0.950 . S
H315 C290 0.949 1_556 S
H316 C293 0.948 1_554 S
H317 C295 0.950 . S
C318 C319 1.443 . S
C318 N322 1.376 . S
C318 C356 1.389 1_556 S
C319 C318 1.443 . S
C319 C320 1.340 . S
C319 H359 0.951 . S
C320 C319 1.340 . S
C320 C321 1.439 . S
C320 H360 0.950 . S
C321 C320 1.439 . S
C321 N322 1.374 . S
C321 C355 1.395 . S
N322 C318 1.376 . S
N322 C321 1.374 . S
N322 Co323 2.008 . S
Co323 N322 2.008 . S
Co323 N324 1.995 . S
Co323 N329 2.008 1_556 S
Co323 N334 1.995 1_556 S
Co323 N339 2.282 . S
Co323 N345 2.282 1_556 S
N324 Co323 1.995 . S
N324 C325 1.376 . S
N324 C328 1.383 . S
C325 N324 1.376 . S
C325 C326 1.446 . S
C325 C355 1.391 . S
C326 C325 1.446 . S
C326 C327 1.339 . S
C326 H361 0.949 . S
C327 C326 1.339 . S
C327 C328 1.439 . S
C327 H362 0.950 . S
C328 N324 1.383 . S
C328 C327 1.439 . S
C328 C357 1.392 . S
N329 Co323 2.008 1_554 S
N329 C330 1.376 . S
N329 C333 1.374 . S
C330 N329 1.376 . S
C330 C331 1.443 . S
C330 C357 1.389 1_554 S
C331 C330 1.443 . S
C331 C332 1.340 . S
C331 H363 0.951 . S
C332 C331 1.340 . S
C332 C333 1.439 . S
C332 H364 0.950 . S
C333 N329 1.374 . S
C333 C332 1.439 . S
C333 C358 1.395 . S
N334 Co323 1.995 1_554 S
N334 C335 1.376 . S
N334 C338 1.383 . S
C335 N334 1.376 . S
C335 C336 1.446 . S
C335 C358 1.391 . S
C336 C335 1.446 . S
C336 C337 1.339 . S
C336 H365 0.949 . S
C337 C336 1.339 . S
C337 C338 1.439 . S
C337 H366 0.950 . S
C338 N334 1.383 . S
C338 C337 1.439 . S
C338 C356 1.392 . S
N339 Co323 2.282 . S
N339 C342 1.332 . S
N339 C344 1.332 . S
C340 C341 1.386 . S
C340 C343 1.388 . S
C341 C340 1.386 . S
C341 C342 1.382 . S
C341 H367 0.950 . S
C342 N339 1.332 . S
C342 C341 1.382 . S
C342 H353 0.952 . S
C343 C340 1.388 . S
C343 C344 1.382 . S
C343 H368 0.950 . S
C344 N339 1.332 . S
C344 C343 1.382 . S
C344 H354 0.948 . S
N345 Co323 2.282 1_554 S
N345 C349 1.332 . S
N345 C350 1.332 . S
C346 C347 1.388 . S
C346 C350 1.382 . S
C346 H369 0.950 . S
C347 C346 1.388 . S
C347 C348 1.386 . S
C348 C347 1.386 . S
C348 C349 1.382 . S
C348 H370 0.950 . S
C349 N345 1.332 . S
C349 C348 1.382 . S
C349 H351 0.952 . S
C350 N345 1.332 . S
C350 C346 1.382 . S
C350 H352 0.948 . S
H351 C349 0.952 . S
H352 C350 0.948 . S
H353 C342 0.952 . S
H354 C344 0.948 . S
C355 C321 1.395 . S
C355 C325 1.391 . S
C356 C318 1.389 1_554 S
C356 C338 1.392 . S
C357 C328 1.392 . S
C357 C330 1.389 1_556 S
C358 C333 1.395 . S
C358 C335 1.391 . S
H359 C319 0.951 . S
H360 C320 0.950 . S
H361 C326 0.949 . S
H362 C327 0.950 . S
H363 C331 0.951 . S
H364 C332 0.950 . S
H365 C336 0.949 . S
H366 C337 0.950 . S
H367 C341 0.950 . S
H368 C343 0.950 . S
H369 C346 0.950 . S
H370 C348 0.950 . S
C371 C372 1.443 . S
C371 N375 1.376 . S
C371 C409 1.389 . S
C372 C371 1.443 . S
C372 C373 1.340 . S
C372 H412 0.951 . S
C373 C372 1.340 . S
C373 C374 1.439 1_556 S
C373 H413 0.950 . S
C374 C373 1.439 1_554 S
C374 N375 1.374 1_554 S
C374 C408 1.395 . S
N375 C371 1.376 . S
N375 C374 1.374 1_556 S
N375 Co376 2.008 . S
Co376 N375 2.008 . S
Co376 N377 1.995 1_556 S
Co376 N382 2.008 1_556 S
Co376 N387 1.995 . S
Co376 N392 2.282 1_556 S
Co376 N398 2.282 . S
N377 Co376 1.995 1_554 S
N377 C378 1.376 . S
N377 C381 1.383 . S
C378 N377 1.376 . S
C378 C379 1.446 . S
C378 C408 1.391 . S
C379 C378 1.446 . S
C379 C380 1.339 . S
C379 H414 0.949 . S
C380 C379 1.339 . S
C380 C381 1.439 . S
C380 H415 0.950 . S
C381 N377 1.383 . S
C381 C380 1.439 . S
C381 C410 1.392 . S
N382 Co376 2.008 1_554 S
N382 C383 1.376 . S
N382 C386 1.374 1_554 S
C383 N382 1.376 . S
C383 C384 1.443 . S
C383 C410 1.389 . S
C384 C383 1.443 . S
C384 C385 1.340 . S
C384 H416 0.951 . S
C385 C384 1.340 . S
C385 C386 1.439 1_554 S
C385 H417 0.950 . S
C386 N382 1.374 1_556 S
C386 C385 1.439 1_556 S
C386 C411 1.395 . S
N387 Co376 1.995 . S
N387 C388 1.376 . S
N387 C391 1.383 . S
C388 N387 1.376 . S
C388 C389 1.446 . S
C388 C411 1.391 . S
C389 C388 1.446 . S
C389 C390 1.339 . S
C389 H418 0.949 . S
C390 C389 1.339 . S
C390 C391 1.439 . S
C390 H419 0.950 . S
C391 N387 1.383 . S
C391 C390 1.439 . S
C391 C409 1.392 . S
N392 Co376 2.282 1_554 S
N392 C395 1.332 1_554 S
N392 C397 1.332 . S
C393 C394 1.386 1_554 S
C393 C396 1.388 . S
C394 C393 1.386 1_556 S
C394 C395 1.382 . S
C394 H420 0.950 . S
C395 N392 1.332 1_556 S
C395 C394 1.382 . S
C395 H406 0.952 . S
C396 C393 1.388 . S
C396 C397 1.382 . S
C396 H421 0.950 . S
C397 N392 1.332 . S
C397 C396 1.382 . S
C397 H407 0.948 . S
N398 Co376 2.282 . S
N398 C402 1.332 1_556 S
N398 C403 1.332 . S
C399 C400 1.388 . S
C399 C403 1.382 . S
C399 H422 0.950 . S
C400 C399 1.388 . S
C400 C401 1.386 1_556 S
C401 C400 1.386 1_554 S
C401 C402 1.382 . S
C401 H423 0.950 . S
C402 N398 1.332 1_554 S
C402 C401 1.382 . S
C402 H404 0.952 . S
C403 N398 1.332 . S
C403 C399 1.382 . S
C403 H405 0.948 . S
H404 C402 0.952 . S
H405 C403 0.948 . S
H406 C395 0.952 . S
H407 C397 0.948 . S
C408 C374 1.395 . S
C408 C378 1.391 . S
C409 C371 1.389 . S
C409 C391 1.392 . S
C410 C381 1.392 . S
C410 C383 1.389 . S
C411 C386 1.395 . S
C411 C388 1.391 . S
H412 C372 0.951 . S
H413 C373 0.950 . S
H414 C379 0.949 . S
H415 C380 0.950 . S
H416 C384 0.951 . S
H417 C385 0.950 . S
H418 C389 0.949 . S
H419 C390 0.950 . S
H420 C394 0.950 . S
H421 C396 0.950 . S
H422 C399 0.950 . S
H423 C401 0.950 . S
C424 C425 1.443 . S
C424 N428 1.376 . S
C424 C462 1.389 . S
C425 C424 1.443 . S
C425 C426 1.340 . S
C425 H465 0.951 . S
C426 C425 1.340 . S
C426 C427 1.439 1_556 S
C426 H466 0.950 . S
C427 C426 1.439 1_554 S
C427 N428 1.374 1_554 S
C427 C461 1.395 . S
N428 C424 1.376 . S
N428 C427 1.374 1_556 S
N428 Co429 2.008 . S
Co429 N428 2.008 . S
Co429 N430 1.995 1_556 S
Co429 N435 2.008 1_556 S
Co429 N440 1.995 . S
Co429 N445 2.282 1_556 S
Co429 N451 2.281 . S
N430 Co429 1.995 1_554 S
N430 C431 1.376 . S
N430 C434 1.383 . S
C431 N430 1.376 . S
C431 C432 1.446 . S
C431 C461 1.391 . S
C432 C431 1.446 . S
C432 C433 1.339 . S
C432 H467 0.949 . S
C433 C432 1.339 . S
C433 C434 1.439 . S
C433 H468 0.950 . S
C434 N430 1.383 . S
C434 C433 1.439 . S
C434 C463 1.392 . S
N435 Co429 2.008 1_554 S
N435 C436 1.376 . S
N435 C439 1.374 1_554 S
C436 N435 1.376 . S
C436 C437 1.443 . S
C436 C463 1.389 . S
C437 C436 1.443 . S
C437 C438 1.340 . S
C437 H469 0.951 . S
C438 C437 1.340 . S
C438 C439 1.439 1_554 S
C438 H470 0.950 . S
C439 N435 1.374 1_556 S
C439 C438 1.439 1_556 S
C439 C464 1.395 . S
N440 Co429 1.995 . S
N440 C441 1.376 . S
N440 C444 1.383 . S
C441 N440 1.376 . S
C441 C442 1.446 . S
C441 C464 1.391 . S
C442 C441 1.446 . S
C442 C443 1.339 . S
C442 H471 0.949 . S
C443 C442 1.339 . S
C443 C444 1.439 . S
C443 H472 0.950 . S
C444 N440 1.383 . S
C444 C443 1.439 . S
C444 C462 1.392 . S
N445 Co429 2.282 1_554 S
N445 C448 1.324 1_554 S
N445 C450 1.343 . S
C446 C447 1.386 1_554 S
C446 C449 1.388 . S
C447 C446 1.386 1_556 S
C447 C448 1.382 . S
C447 H473 0.950 . S
C448 N445 1.324 1_556 S
C448 C447 1.382 . S
C448 H459 0.952 . S
C449 C446 1.388 . S
C449 C450 1.382 . S
C449 H474 0.950 . S
C450 N445 1.343 . S
C450 C449 1.382 . S
C450 H460 0.948 . S
N451 Co429 2.281 . S
N451 C455 1.320 1_556 S
N451 C456 1.350 . S
C452 C453 1.388 . S
C452 C456 1.382 . S
C452 H475 0.950 . S
C453 C452 1.388 . S
C453 C454 1.386 1_556 S
C454 C453 1.386 1_554 S
C454 C455 1.382 . S
C454 H476 0.950 . S
C455 N451 1.320 1_554 S
C455 C454 1.382 . S
C455 H457 0.952 . S
C456 N451 1.350 . S
C456 C452 1.382 . S
C456 H458 0.948 . S
H457 C455 0.952 . S
H458 C456 0.948 . S
H459 C448 0.952 . S
H460 C450 0.948 . S
C461 C427 1.395 . S
C461 C431 1.391 . S
C462 C424 1.389 . S
C462 C444 1.392 . S
C463 C434 1.392 . S
C463 C436 1.389 . S
C464 C439 1.395 . S
C464 C441 1.391 . S
H465 C425 0.951 . S
H466 C426 0.950 . S
H467 C432 0.949 . S
H468 C433 0.950 . S
H469 C437 0.951 . S
H470 C438 0.950 . S
H471 C442 0.949 . S
H472 C443 0.950 . S
H473 C447 0.950 . S
H474 C449 0.950 . S
H475 C452 0.950 . S
H476 C454 0.950 . S
C477 C478 1.443 . S
C477 N481 1.376 . S
C477 C515 1.389 . S
C478 C477 1.443 . S
C478 C479 1.340 . S
C478 H518 0.951 . S
C479 C478 1.340 . S
C479 C480 1.439 1_554 S
C479 H519 0.950 . S
C480 C479 1.439 1_556 S
C480 N481 1.374 1_556 S
C480 C514 1.395 . S
N481 C477 1.376 . S
N481 C480 1.374 1_554 S
N481 Co482 2.008 . S
Co482 N481 2.008 . S
Co482 N483 1.995 1_554 S
Co482 N488 2.008 1_554 S
Co482 N493 1.995 . S
Co482 N498 2.282 1_554 S
Co482 N504 2.281 . S
N483 Co482 1.995 1_556 S
N483 C484 1.376 . S
N483 C487 1.383 . S
C484 N483 1.376 . S
C484 C485 1.446 . S
C484 C514 1.391 . S
C485 C484 1.446 . S
C485 C486 1.339 . S
C485 H520 0.949 . S
C486 C485 1.339 . S
C486 C487 1.439 . S
C486 H521 0.950 . S
C487 N483 1.383 . S
C487 C486 1.439 . S
C487 C516 1.392 . S
N488 Co482 2.008 1_556 S
N488 C489 1.376 . S
N488 C492 1.374 1_556 S
C489 N488 1.376 . S
C489 C490 1.443 . S
C489 C516 1.389 . S
C490 C489 1.443 . S
C490 C491 1.340 . S
C490 H522 0.951 . S
C491 C490 1.340 . S
C491 C492 1.439 1_556 S
C491 H523 0.950 . S
C492 N488 1.374 1_554 S
C492 C491 1.439 1_554 S
C492 C517 1.395 . S
N493 Co482 1.995 . S
N493 C494 1.376 . S
N493 C497 1.383 . S
C494 N493 1.376 . S
C494 C495 1.446 . S
C494 C517 1.391 . S
C495 C494 1.446 . S
C495 C496 1.339 . S
C495 H524 0.949 . S
C496 C495 1.339 . S
C496 C497 1.439 . S
C496 H525 0.950 . S
C497 N493 1.383 . S
C497 C496 1.439 . S
C497 C515 1.392 . S
N498 Co482 2.282 1_556 S
N498 C501 1.324 1_556 S
N498 C503 1.343 . S
C499 C500 1.386 1_556 S
C499 C502 1.388 . S
C500 C499 1.386 1_554 S
C500 C501 1.382 . S
C500 H526 0.950 . S
C501 N498 1.324 1_554 S
C501 C500 1.382 . S
C501 H512 0.952 . S
C502 C499 1.388 . S
C502 C503 1.382 . S
C502 H527 0.950 . S
C503 N498 1.343 . S
C503 C502 1.382 . S
C503 H513 0.948 . S
N504 Co482 2.281 . S
N504 C508 1.320 1_554 S
N504 C509 1.350 . S
C505 C506 1.388 . S
C505 C509 1.382 . S
C505 H528 0.950 . S
C506 C505 1.388 . S
C506 C507 1.386 1_554 S
C507 C506 1.386 1_556 S
C507 C508 1.382 . S
C507 H529 0.950 . S
C508 N504 1.320 1_556 S
C508 C507 1.382 . S
C508 H510 0.952 . S
C509 N504 1.350 . S
C509 C505 1.382 . S
C509 H511 0.948 . S
H510 C508 0.952 . S
H511 C509 0.948 . S
H512 C501 0.952 . S
H513 C503 0.948 . S
C514 C480 1.395 . S
C514 C484 1.391 . S
C515 C477 1.389 . S
C515 C497 1.392 . S
C516 C487 1.392 . S
C516 C489 1.389 . S
C517 C492 1.395 . S
C517 C494 1.391 . S
H518 C478 0.951 . S
H519 C479 0.950 . S
H520 C485 0.949 . S
H521 C486 0.950 . S
H522 C490 0.951 . S
H523 C491 0.950 . S
H524 C495 0.949 . S
H525 C496 0.950 . S
H526 C500 0.950 . S
H527 C502 0.950 . S
H528 C505 0.950 . S
H529 C507 0.950 . S
C530 C531 1.443 . S
C530 N534 1.376 . S
C530 C568 1.389 . S
C531 C530 1.443 . S
C531 C532 1.340 . S
C531 H571 0.951 . S
C532 C531 1.340 . S
C532 C533 1.439 1_554 S
C532 H572 0.950 . S
C533 C532 1.439 1_556 S
C533 N534 1.374 1_556 S
C533 C567 1.395 . S
N534 C530 1.376 . S
N534 C533 1.374 1_554 S
N534 Co535 2.008 . S
Co535 N534 2.008 . S
Co535 N536 1.995 1_554 S
Co535 N541 2.008 1_554 S
Co535 N546 1.995 . S
Co535 N551 2.282 1_554 S
Co535 N557 2.282 . S
N536 Co535 1.995 1_556 S
N536 C537 1.376 . S
N536 C540 1.383 . S
C537 N536 1.376 . S
C537 C538 1.446 . S
C537 C567 1.391 . S
C538 C537 1.446 . S
C538 C539 1.339 . S
C538 H573 0.949 . S
C539 C538 1.339 . S
C539 C540 1.439 . S
C539 H574 0.950 . S
C540 N536 1.383 . S
C540 C539 1.439 . S
C540 C569 1.392 . S
N541 Co535 2.008 1_556 S
N541 C542 1.376 . S
N541 C545 1.374 1_556 S
C542 N541 1.376 . S
C542 C543 1.443 . S
C542 C569 1.389 . S
C543 C542 1.443 . S
C543 C544 1.340 . S
C543 H575 0.951 . S
C544 C543 1.340 . S
C544 C545 1.439 1_556 S
C544 H576 0.950 . S
C545 N541 1.374 1_554 S
C545 C544 1.439 1_554 S
C545 C570 1.395 . S
N546 Co535 1.995 . S
N546 C547 1.376 . S
N546 C550 1.383 . S
C547 N546 1.376 . S
C547 C548 1.446 . S
C547 C570 1.391 . S
C548 C547 1.446 . S
C548 C549 1.339 . S
C548 H577 0.949 . S
C549 C548 1.339 . S
C549 C550 1.439 . S
C549 H578 0.950 . S
C550 N546 1.383 . S
C550 C549 1.439 . S
C550 C568 1.392 . S
N551 Co535 2.282 1_556 S
N551 C554 1.332 1_556 S
N551 C556 1.332 . S
C552 C553 1.386 1_556 S
C552 C555 1.388 . S
C553 C552 1.386 1_554 S
C553 C554 1.382 . S
C553 H579 0.950 . S
C554 N551 1.332 1_554 S
C554 C553 1.382 . S
C554 H565 0.952 . S
C555 C552 1.388 . S
C555 C556 1.382 . S
C555 H580 0.950 . S
C556 N551 1.332 . S
C556 C555 1.382 . S
C556 H566 0.948 . S
N557 Co535 2.282 . S
N557 C561 1.332 1_554 S
N557 C562 1.332 . S
C558 C559 1.388 . S
C558 C562 1.382 . S
C558 H581 0.950 . S
C559 C558 1.388 . S
C559 C560 1.386 1_554 S
C560 C559 1.386 1_556 S
C560 C561 1.382 . S
C560 H582 0.950 . S
C561 N557 1.332 1_556 S
C561 C560 1.382 . S
C561 H563 0.952 . S
C562 N557 1.332 . S
C562 C558 1.382 . S
C562 H564 0.948 . S
H563 C561 0.952 . S
H564 C562 0.948 . S
H565 C554 0.952 . S
H566 C556 0.948 . S
C567 C533 1.395 . S
C567 C537 1.391 . S
C568 C530 1.389 . S
C568 C550 1.392 . S
C569 C540 1.392 . S
C569 C542 1.389 . S
C570 C545 1.395 . S
C570 C547 1.391 . S
H571 C531 0.951 . S
H572 C532 0.950 . S
H573 C538 0.949 . S
H574 C539 0.950 . S
H575 C543 0.951 . S
H576 C544 0.950 . S
H577 C548 0.949 . S
H578 C549 0.950 . S
H579 C553 0.950 . S
H580 C555 0.950 . S
H581 C558 0.950 . S
H582 C560 0.950 . S
C583 C584 1.443 . S
C583 N587 1.376 . S
C583 C621 1.389 1_554 S
C584 C583 1.443 . S
C584 C585 1.340 . S
C584 H624 0.951 . S
C585 C584 1.340 . S
C585 C586 1.439 . S
C585 H625 0.950 . S
C586 C585 1.439 . S
C586 N587 1.374 . S
C586 C620 1.395 . S
N587 C583 1.376 . S
N587 C586 1.374 . S
N587 Co588 2.008 . S
Co588 N587 2.008 . S
Co588 N589 1.995 . S
Co588 N594 2.008 1_554 S
Co588 N599 1.995 1_554 S
Co588 N604 2.282 . S
Co588 N610 2.282 1_554 S
N589 Co588 1.995 . S
N589 C590 1.376 . S
N589 C593 1.383 . S
C590 N589 1.376 . S
C590 C591 1.446 . S
C590 C620 1.391 . S
C591 C590 1.446 . S
C591 C592 1.339 . S
C591 H626 0.949 . S
C592 C591 1.339 . S
C592 C593 1.439 . S
C592 H627 0.950 . S
C593 N589 1.383 . S
C593 C592 1.439 . S
C593 C622 1.392 . S
N594 Co588 2.008 1_556 S
N594 C595 1.376 . S
N594 C598 1.374 . S
C595 N594 1.376 . S
C595 C596 1.443 . S
C595 C622 1.389 1_556 S
C596 C595 1.443 . S
C596 C597 1.340 . S
C596 H628 0.951 . S
C597 C596 1.340 . S
C597 C598 1.439 . S
C597 H629 0.950 . S
C598 N594 1.374 . S
C598 C597 1.439 . S
C598 C623 1.395 . S
N599 Co588 1.995 1_556 S
N599 C600 1.376 . S
N599 C603 1.383 . S
C600 N599 1.376 . S
C600 C601 1.446 . S
C600 C623 1.391 . S
C601 C600 1.446 . S
C601 C602 1.339 . S
C601 H630 0.949 . S
C602 C601 1.339 . S
C602 C603 1.439 . S
C602 H631 0.950 . S
C603 N599 1.383 . S
C603 C602 1.439 . S
C603 C621 1.392 . S
N604 Co588 2.282 . S
N604 C607 1.332 . S
N604 C609 1.332 . S
C605 C606 1.386 . S
C605 C608 1.388 . S
C606 C605 1.386 . S
C606 C607 1.382 . S
C606 H632 0.950 . S
C607 N604 1.332 . S
C607 C606 1.382 . S
C607 H618 0.952 . S
C608 C605 1.388 . S
C608 C609 1.382 . S
C608 H633 0.950 . S
C609 N604 1.332 . S
C609 C608 1.382 . S
C609 H619 0.948 . S
N610 Co588 2.282 1_556 S
N610 C614 1.332 . S
N610 C615 1.332 . S
C611 C612 1.388 . S
C611 C615 1.382 . S
C611 H634 0.950 . S
C612 C611 1.388 . S
C612 C613 1.386 . S
C613 C612 1.386 . S
C613 C614 1.382 . S
C613 H635 0.950 . S
C614 N610 1.332 . S
C614 C613 1.382 . S
C614 H616 0.952 . S
C615 N610 1.332 . S
C615 C611 1.382 . S
C615 H617 0.948 . S
H616 C614 0.952 . S
H617 C615 0.948 . S
H618 C607 0.952 . S
H619 C609 0.948 . S
C620 C586 1.395 . S
C620 C590 1.391 . S
C621 C583 1.389 1_556 S
C621 C603 1.392 . S
C622 C593 1.392 . S
C622 C595 1.389 1_554 S
C623 C598 1.395 . S
C623 C600 1.391 . S
H624 C584 0.951 . S
H625 C585 0.950 . S
H626 C591 0.949 . S
H627 C592 0.950 . S
H628 C596 0.951 . S
H629 C597 0.950 . S
H630 C601 0.949 . S
H631 C602 0.950 . S
H632 C606 0.950 . S
H633 C608 0.950 . S
H634 C611 0.950 . S
H635 C613 0.950 . S
C636 C637 1.443 . S
C636 N640 1.376 . S
C636 C674 1.389 . S
C637 C636 1.443 . S
C637 C638 1.340 . S
C637 H677 0.951 . S
C638 C637 1.340 . S
C638 C639 1.439 . S
C638 H678 0.950 . S
C639 C638 1.439 . S
C639 N640 1.374 . S
C639 C673 1.395 . S
N640 C636 1.376 . S
N640 C639 1.374 . S
N640 Co641 2.008 . S
Co641 N640 2.008 . S
Co641 N642 1.995 . S
Co641 N647 2.008 . S
Co641 N652 1.995 . S
Co641 N657 2.282 . S
Co641 N663 2.282 . S
N642 Co641 1.995 . S
N642 C643 1.376 . S
N642 C646 1.383 . S
C643 N642 1.376 . S
C643 C644 1.446 . S
C643 C673 1.391 . S
C644 C643 1.446 . S
C644 C645 1.339 . S
C644 H679 0.949 . S
C645 C644 1.339 . S
C645 C646 1.439 . S
C645 H680 0.950 . S
C646 N642 1.383 . S
C646 C645 1.439 . S
C646 C675 1.392 . S
N647 Co641 2.008 . S
N647 C648 1.376 . S
N647 C651 1.374 . S
C648 N647 1.376 . S
C648 C649 1.443 . S
C648 C675 1.389 . S
C649 C648 1.443 . S
C649 C650 1.340 . S
C649 H681 0.951 . S
C650 C649 1.340 . S
C650 C651 1.439 . S
C650 H682 0.950 . S
C651 N647 1.374 . S
C651 C650 1.439 . S
C651 C676 1.395 . S
N652 Co641 1.995 . S
N652 C653 1.376 . S
N652 C656 1.383 . S
C653 N652 1.376 . S
C653 C654 1.446 . S
C653 C676 1.391 . S
C654 C653 1.446 . S
C654 C655 1.339 . S
C654 H683 0.949 . S
C655 C654 1.339 . S
C655 C656 1.439 . S
C655 H684 0.950 . S
C656 N652 1.383 . S
C656 C655 1.439 . S
C656 C674 1.392 . S
N657 Co641 2.282 . S
N657 C660 1.332 . S
N657 C662 1.332 . S
C658 C659 1.386 . S
C658 C661 1.388 . S
C659 C658 1.386 . S
C659 C660 1.382 . S
C659 H685 0.950 . S
C660 N657 1.332 . S
C660 C659 1.382 . S
C660 H671 0.952 . S
C661 C658 1.388 . S
C661 C662 1.382 . S
C661 H686 0.950 . S
C662 N657 1.332 . S
C662 C661 1.382 . S
C662 H672 0.948 . S
N663 Co641 2.282 . S
N663 C667 1.332 . S
N663 C668 1.332 . S
C664 C665 1.388 . S
C664 C668 1.382 . S
C664 H687 0.950 . S
C665 C664 1.388 . S
C665 C666 1.386 . S
C666 C665 1.386 . S
C666 C667 1.382 . S
C666 H688 0.950 . S
C667 N663 1.332 . S
C667 C666 1.382 . S
C667 H669 0.952 . S
C668 N663 1.332 . S
C668 C664 1.382 . S
C668 H670 0.948 . S
H669 C667 0.952 . S
H670 C668 0.948 . S
H671 C660 0.952 . S
H672 C662 0.948 . S
C673 C639 1.395 . S
C673 C643 1.391 . S
C674 C636 1.389 . S
C674 C656 1.392 . S
C675 C646 1.392 . S
C675 C648 1.389 . S
C676 C651 1.395 . S
C676 C653 1.391 . S
H677 C637 0.951 . S
H678 C638 0.950 . S
H679 C644 0.949 . S
H680 C645 0.950 . S
H681 C649 0.951 . S
H682 C650 0.950 . S
H683 C654 0.949 . S
H684 C655 0.950 . S
H685 C659 0.950 . S
H686 C661 0.950 . S
H687 C664 0.950 . S
H688 C666 0.950 . S
C689 C690 1.443 . S
C689 N693 1.376 . S
C689 C727 1.389 . S
C690 C689 1.443 . S
C690 C691 1.340 . S
C690 H730 0.951 . S
C691 C690 1.340 . S
C691 C692 1.439 . S
C691 H731 0.950 . S
C692 C691 1.439 . S
C692 N693 1.374 . S
C692 C726 1.395 . S
N693 C689 1.376 . S
N693 C692 1.374 . S
N693 Co694 2.008 . S
Co694 N693 2.008 . S
Co694 N695 1.995 . S
Co694 N700 2.008 . S
Co694 N705 1.995 . S
Co694 N710 2.282 . S
Co694 N716 2.282 . S
N695 Co694 1.995 . S
N695 C696 1.376 . S
N695 C699 1.383 . S
C696 N695 1.376 . S
C696 C697 1.446 . S
C696 C726 1.391 . S
C697 C696 1.446 . S
C697 C698 1.339 . S
C697 H732 0.949 . S
C698 C697 1.339 . S
C698 C699 1.439 . S
C698 H733 0.950 . S
C699 N695 1.383 . S
C699 C698 1.439 . S
C699 C728 1.392 . S
N700 Co694 2.008 . S
N700 C701 1.376 . S
N700 C704 1.374 . S
C701 N700 1.376 . S
C701 C702 1.443 . S
C701 C728 1.389 . S
C702 C701 1.443 . S
C702 C703 1.340 . S
C702 H734 0.951 . S
C703 C702 1.340 . S
C703 C704 1.439 . S
C703 H735 0.950 . S
C704 N700 1.374 . S
C704 C703 1.439 . S
C704 C729 1.395 . S
N705 Co694 1.995 . S
N705 C706 1.376 . S
N705 C709 1.383 . S
C706 N705 1.376 . S
C706 C707 1.446 . S
C706 C729 1.391 . S
C707 C706 1.446 . S
C707 C708 1.339 . S
C707 H736 0.949 . S
C708 C707 1.339 . S
C708 C709 1.439 . S
C708 H737 0.950 . S
C709 N705 1.383 . S
C709 C708 1.439 . S
C709 C727 1.392 . S
N710 Co694 2.282 . S
N710 C713 1.332 . S
N710 C715 1.332 . S
C711 C712 1.386 . S
C711 C714 1.388 . S
C712 C711 1.386 . S
C712 C713 1.382 . S
C712 H738 0.950 . S
C713 N710 1.332 . S
C713 C712 1.382 . S
C713 H724 0.952 . S
C714 C711 1.388 . S
C714 C715 1.382 . S
C714 H739 0.950 . S
C715 N710 1.332 . S
C715 C714 1.382 . S
C715 H725 0.948 . S
N716 Co694 2.282 . S
N716 C720 1.332 . S
N716 C721 1.332 . S
C717 C718 1.370 . S
C717 C721 1.452 . S
C717 H740 0.902 1_545 S
C718 C717 1.370 . S
C718 C719 1.386 . S
C719 C718 1.386 . S
C719 C720 1.382 . S
C719 H741 0.950 . S
C720 N716 1.332 . S
C720 C719 1.382 . S
C720 H722 0.952 . S
C721 N716 1.332 . S
C721 C717 1.452 . S
C721 H723 0.948 . S
H722 C720 0.952 . S
H723 C721 0.948 . S
H724 C713 0.952 . S
H725 C715 0.948 . S
C726 C692 1.395 . S
C726 C696 1.391 . S
C727 C689 1.389 . S
C727 C709 1.392 . S
C728 C699 1.392 . S
C728 C701 1.389 . S
C729 C704 1.395 . S
C729 C706 1.391 . S
H730 C690 0.951 . S
H731 C691 0.950 . S
H732 C697 0.949 . S
H733 C698 0.950 . S
H734 C702 0.951 . S
H735 C703 0.950 . S
H736 C707 0.949 . S
H737 C708 0.950 . S
H738 C712 0.950 . S
H739 C714 0.950 . S
H740 C717 0.902 1_565 S
H741 C719 0.950 . S
C742 C743 1.443 . S
C742 N746 1.376 . S
C742 C780 1.389 . S
C743 C742 1.443 . S
C743 C744 1.340 . S
C743 H783 0.951 . S
C744 C743 1.340 . S
C744 C745 1.439 . S
C744 H784 0.950 . S
C745 C744 1.439 . S
C745 N746 1.374 . S
C745 C779 1.395 . S
N746 C742 1.376 . S
N746 C745 1.374 . S
N746 Co747 2.008 . S
Co747 N746 2.008 . S
Co747 N748 1.995 . S
Co747 N753 2.008 . S
Co747 N758 1.995 . S
Co747 N763 2.282 . S
Co747 N769 2.282 . S
N748 Co747 1.995 . S
N748 C749 1.376 . S
N748 C752 1.383 . S
C749 N748 1.376 . S
C749 C750 1.446 . S
C749 C779 1.391 . S
C750 C749 1.446 . S
C750 C751 1.339 . S
C750 H785 0.949 . S
C751 C750 1.339 . S
C751 C752 1.439 . S
C751 H786 0.950 . S
C752 N748 1.383 . S
C752 C751 1.439 . S
C752 C781 1.392 . S
N753 Co747 2.008 . S
N753 C754 1.376 . S
N753 C757 1.374 . S
C754 N753 1.376 . S
C754 C755 1.443 . S
C754 C781 1.389 . S
C755 C754 1.443 . S
C755 C756 1.340 . S
C755 H787 0.951 . S
C756 C755 1.340 . S
C756 C757 1.439 . S
C756 H788 0.950 . S
C757 N753 1.374 . S
C757 C756 1.439 . S
C757 C782 1.395 . S
N758 Co747 1.995 . S
N758 C759 1.376 . S
N758 C762 1.383 . S
C759 N758 1.376 . S
C759 C760 1.446 . S
C759 C782 1.391 . S
C760 C759 1.446 . S
C760 C761 1.339 . S
C760 H789 0.949 . S
C761 C760 1.339 . S
C761 C762 1.439 . S
C761 H790 0.950 . S
C762 N758 1.383 . S
C762 C761 1.439 . S
C762 C780 1.392 . S
N763 Co747 2.282 . S
N763 C766 1.332 . S
N763 C768 1.332 . S
C764 C765 1.386 . S
C764 C767 1.388 . S
C765 C764 1.386 . S
C765 C766 1.382 . S
C765 H791 0.950 . S
C766 N763 1.332 . S
C766 C765 1.382 . S
C766 H777 0.952 . S
C767 C764 1.388 . S
C767 C768 1.382 . S
C767 H792 0.950 . S
C768 N763 1.332 . S
C768 C767 1.382 . S
C768 H778 0.948 . S
N769 Co747 2.282 . S
N769 C773 1.332 . S
N769 C774 1.332 . S
C770 C771 1.388 . S
C770 C774 1.382 . S
C770 H793 0.950 1_655 S
C771 C770 1.388 . S
C771 C772 1.386 . S
C772 C771 1.386 . S
C772 C773 1.382 . S
C772 H794 0.950 . S
C773 N769 1.332 . S
C773 C772 1.382 . S
C773 H775 0.952 . S
C774 N769 1.332 . S
C774 C770 1.382 . S
C774 H776 0.948 . S
H775 C773 0.952 . S
H776 C774 0.948 . S
H777 C766 0.952 . S
H778 C768 0.948 . S
C779 C745 1.395 . S
C779 C749 1.391 . S
C780 C742 1.389 . S
C780 C762 1.392 . S
C781 C752 1.392 . S
C781 C754 1.389 . S
C782 C757 1.395 . S
C782 C759 1.391 . S
H783 C743 0.951 . S
H784 C744 0.950 . S
H785 C750 0.949 . S
H786 C751 0.950 . S
H787 C755 0.951 . S
H788 C756 0.950 . S
H789 C760 0.949 . S
H790 C761 0.950 . S
H791 C765 0.950 . S
H792 C767 0.950 . S
H793 C770 0.950 1_455 S
H794 C772 0.950 . S
C795 C796 1.443 . S
C795 N799 1.376 . S
C795 C833 1.389 . S
C796 C795 1.443 . S
C796 C797 1.340 . S
C796 H836 0.951 . S
C797 C796 1.340 . S
C797 C798 1.439 . S
C797 H837 0.950 . S
C798 C797 1.439 . S
C798 N799 1.374 . S
C798 C832 1.395 . S
N799 C795 1.376 . S
N799 C798 1.374 . S
N799 Co800 2.008 . S
Co800 N799 2.008 . S
Co800 N801 1.995 . S
Co800 N806 2.008 . S
Co800 N811 1.995 . S
Co800 N816 2.282 . S
Co800 N822 2.282 . S
N801 Co800 1.995 . S
N801 C802 1.376 . S
N801 C805 1.383 . S
C802 N801 1.376 . S
C802 C803 1.446 . S
C802 C832 1.391 . S
C803 C802 1.446 . S
C803 C804 1.339 . S
C803 H838 0.949 . S
C804 C803 1.339 . S
C804 C805 1.439 . S
C804 H839 0.950 . S
C805 N801 1.383 . S
C805 C804 1.439 . S
C805 C834 1.392 . S
N806 Co800 2.008 . S
N806 C807 1.376 . S
N806 C810 1.374 . S
C807 N806 1.376 . S
C807 C808 1.443 . S
C807 C834 1.389 . S
C808 C807 1.443 . S
C808 C809 1.340 . S
C808 H840 0.951 . S
C809 C808 1.340 . S
C809 C810 1.439 . S
C809 H841 0.950 . S
C810 N806 1.374 . S
C810 C809 1.439 . S
C810 C835 1.395 . S
N811 Co800 1.995 . S
N811 C812 1.376 . S
N811 C815 1.383 . S
C812 N811 1.376 . S
C812 C813 1.446 . S
C812 C835 1.391 . S
C813 C812 1.446 . S
C813 C814 1.339 . S
C813 H842 0.949 . S
C814 C813 1.339 . S
C814 C815 1.439 . S
C814 H843 0.950 . S
C815 N811 1.383 . S
C815 C814 1.439 . S
C815 C833 1.392 . S
N816 Co800 2.282 . S
N816 C819 1.332 . S
N816 C821 1.332 . S
C817 C818 1.386 . S
C817 C820 1.388 . S
C818 C817 1.386 . S
C818 C819 1.382 . S
C818 H844 0.950 . S
C819 N816 1.332 . S
C819 C818 1.382 . S
C819 H830 0.952 . S
C820 C817 1.388 . S
C820 C821 1.382 . S
C820 H845 0.950 . S
C821 N816 1.332 . S
C821 C820 1.382 . S
C821 H831 0.948 . S
N822 Co800 2.282 . S
N822 C826 1.332 . S
N822 C827 1.332 . S
C823 C824 1.388 . S
C823 C827 1.382 . S
C823 H846 0.950 . S
C824 C823 1.388 . S
C824 C825 1.386 . S
C825 C824 1.386 . S
C825 C826 1.382 . S
C825 H847 0.950 . S
C826 N822 1.332 . S
C826 C825 1.382 . S
C826 H828 0.952 . S
C827 N822 1.332 . S
C827 C823 1.382 . S
C827 H829 0.948 . S
H828 C826 0.952 . S
H829 C827 0.948 . S
H830 C819 0.952 . S
H831 C821 0.948 . S
C832 C798 1.395 . S
C832 C802 1.391 . S
C833 C795 1.389 . S
C833 C815 1.392 . S
C834 C805 1.392 . S
C834 C807 1.389 . S
C835 C810 1.395 . S
C835 C812 1.391 . S
H836 C796 0.951 . S
H837 C797 0.950 . S
H838 C803 0.949 . S
H839 C804 0.950 . S
H840 C808 0.951 . S
H841 C809 0.950 . S
H842 C813 0.949 . S
H843 C814 0.950 . S
H844 C818 0.950 . S
H845 C820 0.950 . S
H846 C823 0.950 . S
H847 C825 0.950 . S
C848 C849 1.443 . S
C848 N852 1.376 . S
C848 C886 1.389 . S
C849 C848 1.443 . S
C849 C850 1.340 . S
C849 H889 0.951 . S
C850 C849 1.340 . S
C850 C851 1.439 . S
C850 H890 0.950 . S
C851 C850 1.439 . S
C851 N852 1.374 . S
C851 C885 1.395 . S
N852 C848 1.376 . S
N852 C851 1.374 . S
N852 Co853 2.008 . S
Co853 N852 2.008 . S
Co853 N854 1.995 . S
Co853 N859 2.008 . S
Co853 N864 1.995 . S
Co853 N869 2.282 . S
Co853 N875 2.282 . S
N854 Co853 1.995 . S
N854 C855 1.376 . S
N854 C858 1.383 . S
C855 N854 1.376 . S
C855 C856 1.446 . S
C855 C885 1.391 . S
C856 C855 1.446 . S
C856 C857 1.339 . S
C856 H891 0.949 . S
C857 C856 1.339 . S
C857 C858 1.439 . S
C857 H892 0.950 . S
C858 N854 1.383 . S
C858 C857 1.439 . S
C858 C887 1.392 . S
N859 Co853 2.008 . S
N859 C860 1.376 . S
N859 C863 1.374 . S
C860 N859 1.376 . S
C860 C861 1.443 . S
C860 C887 1.389 . S
C861 C860 1.443 . S
C861 C862 1.340 . S
C861 H893 0.951 . S
C862 C861 1.340 . S
C862 C863 1.439 . S
C862 H894 0.950 . S
C863 N859 1.374 . S
C863 C862 1.439 . S
C863 C888 1.395 . S
N864 Co853 1.995 . S
N864 C865 1.376 . S
N864 C868 1.383 . S
C865 N864 1.376 . S
C865 C866 1.446 . S
C865 C888 1.391 . S
C866 C865 1.446 . S
C866 C867 1.339 . S
C866 H895 0.949 . S
C867 C866 1.339 . S
C867 C868 1.439 . S
C867 H896 0.950 . S
C868 N864 1.383 . S
C868 C867 1.439 . S
C868 C886 1.392 . S
N869 Co853 2.282 . S
N869 C872 1.332 . S
N869 C874 1.332 . S
C870 C871 1.386 . S
C870 C873 1.388 . S
C871 C870 1.386 . S
C871 C872 1.382 . S
C871 H897 0.950 . S
C872 N869 1.332 . S
C872 C871 1.382 . S
C872 H883 0.952 . S
C873 C870 1.388 . S
C873 C874 1.382 . S
C873 H898 0.950 . S
C874 N869 1.332 . S
C874 C873 1.382 . S
C874 H884 0.948 . S
N875 Co853 2.282 . S
N875 C879 1.332 . S
N875 C880 1.332 . S
C876 C877 1.388 . S
C876 C880 1.382 . S
C876 H899 0.950 . S
C877 C876 1.388 . S
C877 C878 1.386 . S
C878 C877 1.386 . S
C878 C879 1.382 . S
C878 H900 0.950 . S
C879 N875 1.332 . S
C879 C878 1.382 . S
C879 H881 0.952 . S
C880 N875 1.332 . S
C880 C876 1.382 . S
C880 H882 0.948 . S
H881 C879 0.952 . S
H882 C880 0.948 . S
H883 C872 0.952 . S
H884 C874 0.948 . S
C885 C851 1.395 . S
C885 C855 1.391 . S
C886 C848 1.389 . S
C886 C868 1.392 . S
C887 C858 1.392 . S
C887 C860 1.389 . S
C888 C863 1.395 . S
C888 C865 1.391 . S
H889 C849 0.951 . S
H890 C850 0.950 . S
H891 C856 0.949 . S
H892 C857 0.950 . S
H893 C861 0.951 . S
H894 C862 0.950 . S
H895 C866 0.949 . S
H896 C867 0.950 . S
H897 C871 0.950 . S
H898 C873 0.950 . S
H899 C876 0.950 . S
H900 C878 0.950 . S
C901 C902 1.443 . S
C901 N905 1.376 . S
C901 C939 1.389 . S
C902 C901 1.443 . S
C902 C903 1.340 . S
C902 H942 0.951 . S
C903 C902 1.340 . S
C903 C904 1.439 . S
C903 H943 0.950 . S
C904 C903 1.439 . S
C904 N905 1.374 . S
C904 C938 1.395 . S
N905 C901 1.376 . S
N905 C904 1.374 . S
N905 Co906 2.008 . S
Co906 N905 2.008 . S
Co906 N907 1.995 . S
Co906 N912 2.008 . S
Co906 N917 1.995 . S
Co906 N922 2.282 . S
Co906 N928 2.282 . S
N907 Co906 1.995 . S
N907 C908 1.376 . S
N907 C911 1.383 . S
C908 N907 1.376 . S
C908 C909 1.446 . S
C908 C938 1.391 . S
C909 C908 1.446 . S
C909 C910 1.339 . S
C909 H944 0.949 . S
C910 C909 1.339 . S
C910 C911 1.439 . S
C910 H945 0.950 . S
C911 N907 1.383 . S
C911 C910 1.439 . S
C911 C940 1.392 . S
N912 Co906 2.008 . S
N912 C913 1.376 . S
N912 C916 1.374 . S
C913 N912 1.376 . S
C913 C914 1.443 . S
C913 C940 1.389 . S
C914 C913 1.443 . S
C914 C915 1.340 . S
C914 H946 0.951 . S
C915 C914 1.340 . S
C915 C916 1.439 . S
C915 H947 0.950 . S
C916 N912 1.374 . S
C916 C915 1.439 . S
C916 C941 1.395 . S
N917 Co906 1.995 . S
N917 C918 1.376 . S
N917 C921 1.383 . S
C918 N917 1.376 . S
C918 C919 1.446 . S
C918 C941 1.391 . S
C919 C918 1.446 . S
C919 C920 1.339 . S
C919 H948 0.949 . S
C920 C919 1.339 . S
C920 C921 1.439 . S
C920 H949 0.950 . S
C921 N917 1.383 . S
C921 C920 1.439 . S
C921 C939 1.392 . S
N922 Co906 2.282 . S
N922 C925 1.332 . S
N922 C927 1.332 . S
C923 C924 1.386 . S
C923 C926 1.388 . S
C924 C923 1.386 . S
C924 C925 1.382 . S
C924 H950 0.950 . S
C925 N922 1.332 . S
C925 C924 1.382 . S
C925 H936 0.952 . S
C926 C923 1.388 . S
C926 C927 1.382 . S
C926 H951 0.950 . S
C927 N922 1.332 . S
C927 C926 1.382 . S
C927 H937 0.948 . S
N928 Co906 2.282 . S
N928 C932 1.332 . S
N928 C933 1.332 . S
C929 C930 1.388 . S
C929 C933 1.382 . S
C929 H952 0.950 . S
C930 C929 1.388 . S
C930 C931 1.386 . S
C931 C930 1.386 . S
C931 C932 1.382 . S
C931 H953 0.950 . S
C932 N928 1.332 . S
C932 C931 1.382 . S
C932 H934 0.952 . S
C933 N928 1.332 . S
C933 C929 1.382 . S
C933 H935 0.948 . S
H934 C932 0.952 . S
H935 C933 0.948 . S
H936 C925 0.952 . S
H937 C927 0.948 . S
C938 C904 1.395 . S
C938 C908 1.391 . S
C939 C901 1.389 . S
C939 C921 1.392 . S
C940 C911 1.392 . S
C940 C913 1.389 . S
C941 C916 1.395 . S
C941 C918 1.391 . S
H942 C902 0.951 . S
H943 C903 0.950 . S
H944 C909 0.949 . S
H945 C910 0.950 . S
H946 C914 0.951 . S
H947 C915 0.950 . S
H948 C919 0.949 . S
H949 C920 0.950 . S
H950 C924 0.950 . S
H951 C926 0.950 . S
H952 C929 0.950 . S
H953 C931 0.950 . S
C954 C955 1.443 . S
C954 N958 1.376 . S
C954 C992 1.389 . S
C955 C954 1.443 . S
C955 C956 1.340 . S
C955 H995 0.951 . S
C956 C955 1.340 . S
C956 C957 1.439 . S
C956 H996 0.950 . S
C957 C956 1.439 . S
C957 N958 1.374 . S
C957 C991 1.395 . S
N958 C954 1.376 . S
N958 C957 1.374 . S
N958 Co959 2.008 . S
Co959 N958 2.008 . S
Co959 N960 1.995 . S
Co959 N965 2.008 . S
Co959 N970 1.995 . S
Co959 N975 2.282 . S
Co959 N981 2.282 . S
N960 Co959 1.995 . S
N960 C961 1.376 . S
N960 C964 1.383 . S
C961 N960 1.376 . S
C961 C962 1.446 . S
C961 C991 1.391 . S
C962 C961 1.446 . S
C962 C963 1.339 . S
C962 H997 0.949 . S
C963 C962 1.339 . S
C963 C964 1.439 . S
C963 H998 0.950 . S
C964 N960 1.383 . S
C964 C963 1.439 . S
C964 C993 1.392 . S
N965 Co959 2.008 . S
N965 C966 1.376 . S
N965 C969 1.374 . S
C966 N965 1.376 . S
C966 C967 1.443 . S
C966 C993 1.389 . S
C967 C966 1.443 . S
C967 C968 1.340 . S
C967 H999 0.951 . S
C968 C967 1.340 . S
C968 C969 1.439 . S
C968 H1000 0.950 . S
C969 N965 1.374 . S
C969 C968 1.439 . S
C969 C994 1.395 . S
N970 Co959 1.995 . S
N970 C971 1.376 . S
N970 C974 1.383 . S
C971 N970 1.376 . S
C971 C972 1.446 . S
C971 C994 1.391 . S
C972 C971 1.446 . S
C972 C973 1.339 . S
C972 H1001 0.949 . S
C973 C972 1.339 . S
C973 C974 1.439 . S
C973 H1002 0.950 . S
C974 N970 1.383 . S
C974 C973 1.439 . S
C974 C992 1.392 . S
N975 Co959 2.282 . S
N975 C978 1.332 . S
N975 C980 1.332 . S
C976 C977 1.386 . S
C976 C979 1.388 . S
C977 C976 1.386 . S
C977 C978 1.382 . S
C977 H1003 0.950 . S
C978 N975 1.332 . S
C978 C977 1.382 . S
C978 H989 0.952 . S
C979 C976 1.388 . S
C979 C980 1.382 . S
C979 H1004 0.950 . S
C980 N975 1.332 . S
C980 C979 1.382 . S
C980 H990 0.948 . S
N981 Co959 2.282 . S
N981 C985 1.332 . S
N981 C986 1.332 . S
C982 C983 1.388 . S
C982 C986 1.382 . S
C982 H1005 0.950 . S
C983 C982 1.388 . S
C983 C984 1.386 . S
C984 C983 1.386 . S
C984 C985 1.382 . S
C984 H1006 0.950 . S
C985 N981 1.332 . S
C985 C984 1.382 . S
C985 H987 0.952 . S
C986 N981 1.332 . S
C986 C982 1.382 . S
C986 H988 0.948 . S
H987 C985 0.952 . S
H988 C986 0.948 . S
H989 C978 0.952 . S
H990 C980 0.948 . S
C991 C957 1.395 . S
C991 C961 1.391 . S
C992 C954 1.389 . S
C992 C974 1.392 . S
C993 C964 1.392 . S
C993 C966 1.389 . S
C994 C969 1.395 . S
C994 C971 1.391 . S
H995 C955 0.951 . S
H996 C956 0.950 . S
H997 C962 0.949 . S
H998 C963 0.950 . S
H999 C967 0.951 . S
H1000 C968 0.950 . S
H1001 C972 0.949 . S
H1002 C973 0.950 . S
H1003 C977 0.950 . S
H1004 C979 0.950 . S
H1005 C982 0.950 . S
H1006 C984 0.950 . S
C1007 C1008 1.443 . S
C1007 N1011 1.376 . S
C1007 C1045 1.389 . S
C1008 C1007 1.443 . S
C1008 C1009 1.340 . S
C1008 H1048 0.951 . S
C1009 C1008 1.340 . S
C1009 C1010 1.439 . S
C1009 H1049 0.950 . S
C1010 C1009 1.439 . S
C1010 N1011 1.374 . S
C1010 C1044 1.395 . S
N1011 C1007 1.376 . S
N1011 C1010 1.374 . S
N1011 Co1012 2.008 . S
Co1012 N1011 2.008 . S
Co1012 N1013 1.995 . S
Co1012 N1018 2.008 . S
Co1012 N1023 1.995 . S
Co1012 N1028 2.282 . S
Co1012 N1034 2.282 . S
N1013 Co1012 1.995 . S
N1013 C1014 1.376 . S
N1013 C1017 1.383 . S
C1014 N1013 1.376 . S
C1014 C1015 1.446 . S
C1014 C1044 1.391 . S
C1015 C1014 1.446 . S
C1015 C1016 1.339 . S
C1015 H1050 0.949 . S
C1016 C1015 1.339 . S
C1016 C1017 1.439 . S
C1016 H1051 0.950 . S
C1017 N1013 1.383 . S
C1017 C1016 1.439 . S
C1017 C1046 1.392 . S
N1018 Co1012 2.008 . S
N1018 C1019 1.376 . S
N1018 C1022 1.374 . S
C1019 N1018 1.376 . S
C1019 C1020 1.443 . S
C1019 C1046 1.389 . S
C1020 C1019 1.443 . S
C1020 C1021 1.340 . S
C1020 H1052 0.951 . S
C1021 C1020 1.340 . S
C1021 C1022 1.439 . S
C1021 H1053 0.950 . S
C1022 N1018 1.374 . S
C1022 C1021 1.439 . S
C1022 C1047 1.395 . S
N1023 Co1012 1.995 . S
N1023 C1024 1.376 . S
N1023 C1027 1.383 . S
C1024 N1023 1.376 . S
C1024 C1025 1.446 . S
C1024 C1047 1.391 . S
C1025 C1024 1.446 . S
C1025 C1026 1.339 . S
C1025 H1054 0.949 . S
C1026 C1025 1.339 . S
C1026 C1027 1.439 . S
C1026 H1055 0.950 . S
C1027 N1023 1.383 . S
C1027 C1026 1.439 . S
C1027 C1045 1.392 . S
N1028 Co1012 2.282 . S
N1028 C1031 1.332 . S
N1028 C1033 1.332 . S
C1029 C1030 1.386 . S
C1029 C1032 1.388 . S
C1030 C1029 1.386 . S
C1030 C1031 1.382 . S
C1030 H1056 0.950 . S
C1031 N1028 1.332 . S
C1031 C1030 1.382 . S
C1031 H1042 0.952 . S
C1032 C1029 1.388 . S
C1032 C1033 1.382 . S
C1032 H1057 0.950 . S
C1033 N1028 1.332 . S
C1033 C1032 1.382 . S
C1033 H1043 0.948 . S
N1034 Co1012 2.282 . S
N1034 C1038 1.332 . S
N1034 C1039 1.332 . S
C1035 C1036 1.388 . S
C1035 C1039 1.382 . S
C1035 H1058 0.950 . S
C1036 C1035 1.388 . S
C1036 C1037 1.386 . S
C1037 C1036 1.386 . S
C1037 C1038 1.382 . S
C1037 H1059 0.950 . S
C1038 N1034 1.332 . S
C1038 C1037 1.382 . S
C1038 H1040 0.952 . S
C1039 N1034 1.332 . S
C1039 C1035 1.382 . S
C1039 H1041 0.948 . S
H1040 C1038 0.952 . S
H1041 C1039 0.948 . S
H1042 C1031 0.952 . S
H1043 C1033 0.948 . S
C1044 C1010 1.395 . S
C1044 C1014 1.391 . S
C1045 C1007 1.389 . S
C1045 C1027 1.392 . S
C1046 C1017 1.392 . S
C1046 C1019 1.389 . S
C1047 C1022 1.395 . S
C1047 C1024 1.391 . S
H1048 C1008 0.951 . S
H1049 C1009 0.950 . S
H1050 C1015 0.949 . S
H1051 C1016 0.950 . S
H1052 C1020 0.951 . S
H1053 C1021 0.950 . S
H1054 C1025 0.949 . S
H1055 C1026 0.950 . S
H1056 C1030 0.950 . S
H1057 C1032 0.950 . S
H1058 C1035 0.950 . S
H1059 C1037 0.950 . S
C1060 C1061 1.443 . S
C1060 N1064 1.376 . S
C1060 C1098 1.389 . S
C1061 C1060 1.443 . S
C1061 C1062 1.340 . S
C1061 H1101 0.951 . S
C1062 C1061 1.340 . S
C1062 C1063 1.439 . S
C1062 H1102 0.950 . S
C1063 C1062 1.439 . S
C1063 N1064 1.374 . S
C1063 C1097 1.395 . S
N1064 C1060 1.376 . S
N1064 C1063 1.374 . S
N1064 Co1065 2.008 . S
Co1065 N1064 2.008 . S
Co1065 N1066 1.995 . S
Co1065 N1071 2.008 . S
Co1065 N1076 1.995 . S
Co1065 N1081 2.282 . S
Co1065 N1087 2.282 . S
N1066 Co1065 1.995 . S
N1066 C1067 1.376 . S
N1066 C1070 1.383 . S
C1067 N1066 1.376 . S
C1067 C1068 1.446 . S
C1067 C1097 1.391 . S
C1068 C1067 1.446 . S
C1068 C1069 1.339 . S
C1068 H1103 0.949 . S
C1069 C1068 1.339 . S
C1069 C1070 1.439 . S
C1069 H1104 0.950 . S
C1070 N1066 1.383 . S
C1070 C1069 1.439 . S
C1070 C1099 1.392 . S
N1071 Co1065 2.008 . S
N1071 C1072 1.376 . S
N1071 C1075 1.374 . S
C1072 N1071 1.376 . S
C1072 C1073 1.443 . S
C1072 C1099 1.389 . S
C1073 C1072 1.443 . S
C1073 C1074 1.340 . S
C1073 H1105 0.951 . S
C1074 C1073 1.340 . S
C1074 C1075 1.439 . S
C1074 H1106 0.950 . S
C1075 N1071 1.374 . S
C1075 C1074 1.439 . S
C1075 C1100 1.395 . S
N1076 Co1065 1.995 . S
N1076 C1077 1.376 . S
N1076 C1080 1.383 . S
C1077 N1076 1.376 . S
C1077 C1078 1.446 . S
C1077 C1100 1.391 . S
C1078 C1077 1.446 . S
C1078 C1079 1.339 . S
C1078 H1107 0.949 . S
C1079 C1078 1.339 . S
C1079 C1080 1.439 . S
C1079 H1108 0.950 . S
C1080 N1076 1.383 . S
C1080 C1079 1.439 . S
C1080 C1098 1.392 . S
N1081 Co1065 2.282 . S
N1081 C1084 1.332 . S
N1081 C1086 1.332 . S
C1082 C1083 1.386 . S
C1082 C1085 1.388 . S
C1083 C1082 1.386 . S
C1083 C1084 1.382 . S
C1083 H1109 0.950 . S
C1084 N1081 1.332 . S
C1084 C1083 1.382 . S
C1084 H1095 0.952 . S
C1085 C1082 1.388 . S
C1085 C1086 1.382 . S
C1085 H1110 0.950 . S
C1086 N1081 1.332 . S
C1086 C1085 1.382 . S
C1086 H1096 0.948 . S
N1087 Co1065 2.282 . S
N1087 C1091 1.332 . S
N1087 C1092 1.332 . S
C1088 C1089 1.388 . S
C1088 C1092 1.382 . S
C1088 H1111 0.950 . S
C1089 C1088 1.388 . S
C1089 C1090 1.386 . S
C1090 C1089 1.386 . S
C1090 C1091 1.382 . S
C1090 H1112 0.950 . S
C1091 N1087 1.332 . S
C1091 C1090 1.382 . S
C1091 H1093 0.952 . S
C1092 N1087 1.332 . S
C1092 C1088 1.382 . S
C1092 H1094 0.948 . S
H1093 C1091 0.952 . S
H1094 C1092 0.948 . S
H1095 C1084 0.952 . S
H1096 C1086 0.948 . S
C1097 C1063 1.395 . S
C1097 C1067 1.391 . S
C1098 C1060 1.389 . S
C1098 C1080 1.392 . S
C1099 C1070 1.392 . S
C1099 C1072 1.389 . S
C1100 C1075 1.395 . S
C1100 C1077 1.391 . S
H1101 C1061 0.951 . S
H1102 C1062 0.950 . S
H1103 C1068 0.949 . S
H1104 C1069 0.950 . S
H1105 C1073 0.951 . S
H1106 C1074 0.950 . S
H1107 C1078 0.949 . S
H1108 C1079 0.950 . S
H1109 C1083 0.950 . S
H1110 C1085 0.950 . S
H1111 C1088 0.950 . S
H1112 C1090 0.950 . S
C1113 C1114 1.443 . S
C1113 N1117 1.376 . S
C1113 C1151 1.389 . S
C1114 C1113 1.443 . S
C1114 C1115 1.340 . S
C1114 H1154 0.951 . S
C1115 C1114 1.340 . S
C1115 C1116 1.439 . S
C1115 H1155 0.950 . S
C1116 C1115 1.439 . S
C1116 N1117 1.374 . S
C1116 C1150 1.395 . S
N1117 C1113 1.376 . S
N1117 C1116 1.374 . S
N1117 Co1118 2.008 . S
Co1118 N1117 2.008 . S
Co1118 N1119 1.995 . S
Co1118 N1124 2.008 . S
Co1118 N1129 1.995 . S
Co1118 N1134 2.282 . S
Co1118 N1140 2.282 . S
N1119 Co1118 1.995 . S
N1119 C1120 1.376 . S
N1119 C1123 1.383 . S
C1120 N1119 1.376 . S
C1120 C1121 1.446 . S
C1120 C1150 1.391 . S
C1121 C1120 1.446 . S
C1121 C1122 1.339 . S
C1121 H1156 0.949 . S
C1122 C1121 1.339 . S
C1122 C1123 1.439 . S
C1122 H1157 0.950 . S
C1123 N1119 1.383 . S
C1123 C1122 1.439 . S
C1123 C1152 1.392 . S
N1124 Co1118 2.008 . S
N1124 C1125 1.376 . S
N1124 C1128 1.374 . S
C1125 N1124 1.376 . S
C1125 C1126 1.443 . S
C1125 C1152 1.389 . S
C1126 C1125 1.443 . S
C1126 C1127 1.340 . S
C1126 H1158 0.951 . S
C1127 C1126 1.340 . S
C1127 C1128 1.439 . S
C1127 H1159 0.950 . S
C1128 N1124 1.374 . S
C1128 C1127 1.439 . S
C1128 C1153 1.395 . S
N1129 Co1118 1.995 . S
N1129 C1130 1.376 . S
N1129 C1133 1.383 . S
C1130 N1129 1.376 . S
C1130 C1131 1.446 . S
C1130 C1153 1.391 . S
C1131 C1130 1.446 . S
C1131 C1132 1.339 . S
C1131 H1160 0.949 . S
C1132 C1131 1.339 . S
C1132 C1133 1.439 . S
C1132 H1161 0.950 . S
C1133 N1129 1.383 . S
C1133 C1132 1.439 . S
C1133 C1151 1.392 . S
N1134 Co1118 2.282 . S
N1134 C1137 1.332 . S
N1134 C1139 1.332 . S
C1135 C1136 1.386 . S
C1135 C1138 1.388 . S
C1136 C1135 1.386 . S
C1136 C1137 1.382 . S
C1136 H1162 0.950 . S
C1137 N1134 1.332 . S
C1137 C1136 1.382 . S
C1137 H1148 0.952 . S
C1138 C1135 1.388 . S
C1138 C1139 1.382 . S
C1138 H1163 0.950 . S
C1139 N1134 1.332 . S
C1139 C1138 1.382 . S
C1139 H1149 0.948 . S
N1140 Co1118 2.282 . S
N1140 C1144 1.332 . S
N1140 C1145 1.332 . S
C1141 C1142 1.388 . S
C1141 C1145 1.382 . S
C1141 H1164 0.950 . S
C1142 C1141 1.388 . S
C1142 C1143 1.386 . S
C1143 C1142 1.386 . S
C1143 C1144 1.382 . S
C1143 H1165 0.950 . S
C1144 N1140 1.332 . S
C1144 C1143 1.382 . S
C1144 H1146 0.952 . S
C1145 N1140 1.332 . S
C1145 C1141 1.382 . S
C1145 H1147 0.948 . S
H1146 C1144 0.952 . S
H1147 C1145 0.948 . S
H1148 C1137 0.952 . S
H1149 C1139 0.948 . S
C1150 C1116 1.395 . S
C1150 C1120 1.391 . S
C1151 C1113 1.389 . S
C1151 C1133 1.392 . S
C1152 C1123 1.392 . S
C1152 C1125 1.389 . S
C1153 C1128 1.395 . S
C1153 C1130 1.391 . S
H1154 C1114 0.951 . S
H1155 C1115 0.950 . S
H1156 C1121 0.949 . S
H1157 C1122 0.950 . S
H1158 C1126 0.951 . S
H1159 C1127 0.950 . S
H1160 C1131 0.949 . S
H1161 C1132 0.950 . S
H1162 C1136 0.950 . S
H1163 C1138 0.950 . S
H1164 C1141 0.950 . S
H1165 C1143 0.950 . S
C1166 C1167 1.443 . S
C1166 N1170 1.376 . S
C1166 C1204 1.389 . S
C1167 C1166 1.443 . S
C1167 C1168 1.340 . S
C1167 H1207 0.951 . S
C1168 C1167 1.340 . S
C1168 C1169 1.439 . S
C1168 H1208 1.034 . S
C1169 C1168 1.439 . S
C1169 N1170 1.374 . S
C1169 C1203 1.395 . S
N1170 C1166 1.376 . S
N1170 C1169 1.374 . S
N1170 Co1171 2.008 . S
Co1171 N1170 2.008 . S
Co1171 N1172 1.995 . S
Co1171 N1177 2.008 . S
Co1171 N1182 1.995 . S
Co1171 N1187 2.282 . S
Co1171 N1193 2.282 . S
N1172 Co1171 1.995 . S
N1172 C1173 1.376 . S
N1172 C1176 1.383 . S
C1173 N1172 1.376 . S
C1173 C1174 1.446 . S
C1173 C1203 1.391 . S
C1174 C1173 1.446 . S
C1174 C1175 1.339 . S
C1174 H1209 0.949 . S
C1175 C1174 1.339 . S
C1175 C1176 1.439 . S
C1175 H1210 0.950 . S
C1176 N1172 1.383 . S
C1176 C1175 1.439 . S
C1176 C1205 1.392 . S
N1177 Co1171 2.008 . S
N1177 C1178 1.376 . S
N1177 C1181 1.374 . S
C1178 N1177 1.376 . S
C1178 C1179 1.443 . S
C1178 C1205 1.389 . S
C1179 C1178 1.443 . S
C1179 C1180 1.340 . S
C1179 H1211 0.951 . S
C1180 C1179 1.340 . S
C1180 C1181 1.439 . S
C1180 H1212 0.950 . S
C1181 N1177 1.374 . S
C1181 C1180 1.439 . S
C1181 C1206 1.395 . S
N1182 Co1171 1.995 . S
N1182 C1183 1.376 . S
N1182 C1186 1.383 . S
C1183 N1182 1.376 . S
C1183 C1184 1.446 . S
C1183 C1206 1.391 . S
C1184 C1183 1.446 . S
C1184 C1185 1.339 . S
C1184 H1213 0.949 . S
C1185 C1184 1.339 . S
C1185 C1186 1.439 . S
C1185 H1214 0.950 . S
C1186 N1182 1.383 . S
C1186 C1185 1.439 . S
C1186 C1204 1.392 . S
N1187 Co1171 2.282 . S
N1187 C1190 1.332 . S
N1187 C1192 1.332 . S
C1188 C1189 1.386 . S
C1188 C1191 1.388 . S
C1189 C1188 1.386 . S
C1189 C1190 1.382 . S
C1189 H1215 0.950 . S
C1190 N1187 1.332 . S
C1190 C1189 1.382 . S
C1190 H1201 0.952 . S
C1191 C1188 1.388 . S
C1191 C1192 1.382 . S
C1191 H1216 0.950 . S
C1192 N1187 1.332 . S
C1192 C1191 1.382 . S
C1192 H1202 0.948 . S
N1193 Co1171 2.282 . S
N1193 C1197 1.332 . S
N1193 C1198 1.332 . S
C1194 C1195 1.388 . S
C1194 C1198 1.382 . S
C1194 H1217 0.950 . S
C1195 C1194 1.388 . S
C1195 C1196 1.386 . S
C1196 C1195 1.386 . S
C1196 C1197 1.382 . S
C1196 H1218 0.950 1_545 S
C1197 N1193 1.332 . S
C1197 C1196 1.382 . S
C1197 H1199 0.952 . S
C1198 N1193 1.332 . S
C1198 C1194 1.382 . S
C1198 H1200 0.948 . S
H1199 C1197 0.952 . S
H1200 C1198 0.948 . S
H1201 C1190 0.952 . S
H1202 C1192 0.948 . S
C1203 C1169 1.395 . S
C1203 C1173 1.391 . S
C1204 C1166 1.389 . S
C1204 C1186 1.392 . S
C1205 C1176 1.392 . S
C1205 C1178 1.389 . S
C1206 C1181 1.395 . S
C1206 C1183 1.391 . S
H1207 C1167 0.951 . S
H1208 C1168 1.034 . S
H1209 C1174 0.949 . S
H1210 C1175 0.950 . S
H1211 C1179 0.951 . S
H1212 C1180 0.950 . S
H1213 C1184 0.949 . S
H1214 C1185 0.950 . S
H1215 C1189 0.950 . S
H1216 C1191 0.950 . S
H1217 C1194 0.950 . S
H1218 C1196 0.950 1_565 S
C1219 C1220 1.443 . S
C1219 N1223 1.376 . S
C1219 C1257 1.389 . S
C1220 C1219 1.443 . S
C1220 C1221 1.340 . S
C1220 H1260 0.951 . S
C1221 C1220 1.340 . S
C1221 C1222 1.439 . S
C1221 H1261 0.950 . S
C1222 C1221 1.439 . S
C1222 N1223 1.374 . S
C1222 C1256 1.395 . S
N1223 C1219 1.376 . S
N1223 C1222 1.374 . S
N1223 Co1224 2.008 . S
Co1224 N1223 2.008 . S
Co1224 N1225 1.995 . S
Co1224 N1230 2.008 . S
Co1224 N1235 1.995 . S
Co1224 N1240 2.282 . S
Co1224 N1246 2.282 . S
N1225 Co1224 1.995 . S
N1225 C1226 1.376 . S
N1225 C1229 1.383 . S
C1226 N1225 1.376 . S
C1226 C1227 1.446 . S
C1226 C1256 1.391 . S
C1227 C1226 1.446 . S
C1227 C1228 1.339 . S
C1227 H1262 0.949 . S
C1228 C1227 1.339 . S
C1228 C1229 1.439 . S
C1228 H1263 0.950 . S
C1229 N1225 1.383 . S
C1229 C1228 1.439 . S
C1229 C1258 1.392 . S
N1230 Co1224 2.008 . S
N1230 C1231 1.376 . S
N1230 C1234 1.374 . S
C1231 N1230 1.376 . S
C1231 C1232 1.443 1_655 S
C1231 C1258 1.389 . S
C1232 C1231 1.443 1_455 S
C1232 C1233 1.358 . S
C1232 H1264 0.951 . S
C1233 C1232 1.358 . S
C1233 C1234 1.406 1_455 S
C1233 H1265 0.964 . S
C1234 N1230 1.374 . S
C1234 C1233 1.406 1_655 S
C1234 C1259 1.395 . S
N1235 Co1224 1.995 . S
N1235 C1236 1.376 . S
N1235 C1239 1.383 . S
C1236 N1235 1.376 . S
C1236 C1237 1.446 . S
C1236 C1259 1.391 . S
C1237 C1236 1.446 . S
C1237 C1238 1.339 . S
C1237 H1266 0.949 . S
C1238 C1237 1.339 . S
C1238 C1239 1.439 . S
C1238 H1267 0.950 . S
C1239 N1235 1.383 . S
C1239 C1238 1.439 . S
C1239 C1257 1.392 . S
N1240 Co1224 2.282 . S
N1240 C1243 1.332 . S
N1240 C1245 1.332 . S
C1241 C1242 1.386 . S
C1241 C1244 1.388 . S
C1242 C1241 1.386 . S
C1242 C1243 1.382 . S
C1242 H1268 0.950 . S
C1243 N1240 1.332 . S
C1243 C1242 1.382 . S
C1243 H1254 0.952 . S
C1244 C1241 1.388 . S
C1244 C1245 1.382 . S
C1244 H1269 0.950 . S
C1245 N1240 1.332 . S
C1245 C1244 1.382 . S
C1245 H1255 0.948 . S
N1246 Co1224 2.282 . S
N1246 C1250 1.332 . S
N1246 C1251 1.332 . S
C1247 C1248 1.388 . S
C1247 C1251 1.382 . S
C1247 H1270 0.950 . S
C1248 C1247 1.388 . S
C1248 C1249 1.386 . S
C1249 C1248 1.386 . S
C1249 C1250 1.382 . S
C1249 H1271 0.950 . S
C1250 N1246 1.332 . S
C1250 C1249 1.382 . S
C1250 H1252 0.952 . S
C1251 N1246 1.332 . S
C1251 C1247 1.382 . S
C1251 H1253 0.948 . S
H1252 C1250 0.952 . S
H1253 C1251 0.948 . S
H1254 C1243 0.952 . S
H1255 C1245 0.948 . S
C1256 C1222 1.395 . S
C1256 C1226 1.391 . S
C1257 C1219 1.389 . S
C1257 C1239 1.392 . S
C1258 C1229 1.392 . S
C1258 C1231 1.389 . S
C1259 C1234 1.395 . S
C1259 C1236 1.391 . S
H1260 C1220 0.951 . S
H1261 C1221 0.950 . S
H1262 C1227 0.949 . S
H1263 C1228 0.950 . S
H1264 C1232 0.951 . S
H1265 C1233 0.964 . S
H1266 C1237 0.949 . S
H1267 C1238 0.950 . S
H1268 C1242 0.950 . S
H1269 C1244 0.950 . S
H1270 C1247 0.950 . S
H1271 C1249 0.950 . S
C1272 C1273 1.443 . S
C1272 N1276 1.376 . S
C1272 C1310 1.389 . S
C1273 C1272 1.443 . S
C1273 C1274 1.340 . S
C1273 H1313 0.951 . S
C1274 C1273 1.340 . S
C1274 C1275 1.439 . S
C1274 H1314 0.950 . S
C1275 C1274 1.439 . S
C1275 N1276 1.374 . S
C1275 C1309 1.395 . S
N1276 C1272 1.376 . S
N1276 C1275 1.374 . S
N1276 Co1277 2.008 . S
Co1277 N1276 2.008 . S
Co1277 N1278 1.995 . S
Co1277 N1283 2.008 . S
Co1277 N1288 1.995 . S
Co1277 N1293 2.282 . S
Co1277 N1299 2.282 . S
N1278 Co1277 1.995 . S
N1278 C1279 1.376 . S
N1278 C1282 1.383 . S
C1279 N1278 1.376 . S
C1279 C1280 1.446 . S
C1279 C1309 1.391 . S
C1280 C1279 1.446 . S
C1280 C1281 1.339 . S
C1280 H1315 0.949 . S
C1281 C1280 1.339 . S
C1281 C1282 1.439 . S
C1281 H1316 0.950 . S
C1282 N1278 1.383 . S
C1282 C1281 1.439 . S
C1282 C1311 1.392 . S
N1283 Co1277 2.008 . S
N1283 C1284 1.376 . S
N1283 C1287 1.374 . S
C1284 N1283 1.376 . S
C1284 C1285 1.443 . S
C1284 C1311 1.389 . S
C1285 C1284 1.443 . S
C1285 C1286 1.340 . S
C1285 H1317 0.951 . S
C1286 C1285 1.340 . S
C1286 C1287 1.439 . S
C1286 H1318 0.950 . S
C1287 N1283 1.374 . S
C1287 C1286 1.439 . S
C1287 C1312 1.395 . S
N1288 Co1277 1.995 . S
N1288 C1289 1.376 . S
N1288 C1292 1.383 . S
C1289 N1288 1.376 . S
C1289 C1290 1.446 . S
C1289 C1312 1.391 . S
C1290 C1289 1.446 . S
C1290 C1291 1.339 . S
C1290 H1319 0.949 . S
C1291 C1290 1.339 . S
C1291 C1292 1.439 . S
C1291 H1320 0.950 . S
C1292 N1288 1.383 . S
C1292 C1291 1.439 . S
C1292 C1310 1.392 . S
N1293 Co1277 2.282 . S
N1293 C1296 1.332 . S
N1293 C1298 1.332 . S
C1294 C1295 1.386 . S
C1294 C1297 1.388 . S
C1295 C1294 1.386 . S
C1295 C1296 1.382 . S
C1295 H1321 0.950 . S
C1296 N1293 1.332 . S
C1296 C1295 1.382 . S
C1296 H1307 0.952 . S
C1297 C1294 1.388 . S
C1297 C1298 1.382 . S
C1297 H1322 0.950 . S
C1298 N1293 1.332 . S
C1298 C1297 1.382 . S
C1298 H1308 0.948 . S
N1299 Co1277 2.282 . S
N1299 C1303 1.332 . S
N1299 C1304 1.332 . S
C1300 C1301 1.388 . S
C1300 C1304 1.382 . S
C1300 H1323 0.950 . S
C1301 C1300 1.388 . S
C1301 C1302 1.386 . S
C1302 C1301 1.386 . S
C1302 C1303 1.382 . S
C1302 H1324 0.950 . S
C1303 N1299 1.332 . S
C1303 C1302 1.382 . S
C1303 H1305 0.952 . S
C1304 N1299 1.332 . S
C1304 C1300 1.382 . S
C1304 H1306 0.948 . S
H1305 C1303 0.952 . S
H1306 C1304 0.948 . S
H1307 C1296 0.952 . S
H1308 C1298 0.948 . S
C1309 C1275 1.395 . S
C1309 C1279 1.391 . S
C1310 C1272 1.389 . S
C1310 C1292 1.392 . S
C1311 C1282 1.392 . S
C1311 C1284 1.389 . S
C1312 C1287 1.395 . S
C1312 C1289 1.391 . S
H1313 C1273 0.951 . S
H1314 C1274 0.950 . S
H1315 C1280 0.949 . S
H1316 C1281 0.950 . S
H1317 C1285 0.951 . S
H1318 C1286 0.950 . S
H1319 C1290 0.949 . S
H1320 C1291 0.950 . S
H1321 C1295 0.950 . S
H1322 C1297 0.950 . S
H1323 C1300 0.950 . S
H1324 C1302 0.950 . S
C1325 C1326 1.443 . S
C1325 N1329 1.376 . S
C1325 C1363 1.389 . S
C1326 C1325 1.443 . S
C1326 C1327 1.340 . S
C1326 H1366 0.951 . S
C1327 C1326 1.340 . S
C1327 C1328 1.439 . S
C1327 H1367 0.950 . S
C1328 C1327 1.439 . S
C1328 N1329 1.374 . S
C1328 C1362 1.395 . S
N1329 C1325 1.376 . S
N1329 C1328 1.374 . S
N1329 Co1330 2.008 . S
Co1330 N1329 2.008 . S
Co1330 N1331 1.995 . S
Co1330 N1336 2.008 . S
Co1330 N1341 1.995 . S
Co1330 N1346 2.282 . S
Co1330 N1352 2.282 . S
N1331 Co1330 1.995 . S
N1331 C1332 1.376 . S
N1331 C1335 1.383 . S
C1332 N1331 1.376 . S
C1332 C1333 1.446 . S
C1332 C1362 1.391 . S
C1333 C1332 1.446 . S
C1333 C1334 1.339 . S
C1333 H1368 0.949 1_655 S
C1334 C1333 1.339 . S
C1334 C1335 1.439 . S
C1334 H1369 0.950 . S
C1335 N1331 1.383 . S
C1335 C1334 1.439 . S
C1335 C1364 1.392 . S
N1336 Co1330 2.008 . S
N1336 C1337 1.376 . S
N1336 C1340 1.374 . S
C1337 N1336 1.376 . S
C1337 C1338 1.443 . S
C1337 C1364 1.389 . S
C1338 C1337 1.443 . S
C1338 C1339 1.340 . S
C1338 H1370 0.951 . S
C1339 C1338 1.340 . S
C1339 C1340 1.439 . S
C1339 H1371 0.950 . S
C1340 N1336 1.374 . S
C1340 C1339 1.439 . S
C1340 C1365 1.395 . S
N1341 Co1330 1.995 . S
N1341 C1342 1.376 . S
N1341 C1345 1.383 . S
C1342 N1341 1.376 . S
C1342 C1343 1.446 . S
C1342 C1365 1.391 . S
C1343 C1342 1.446 . S
C1343 C1344 1.339 . S
C1343 H1372 0.949 . S
C1344 C1343 1.339 . S
C1344 C1345 1.439 . S
C1344 H1373 0.950 . S
C1345 N1341 1.383 . S
C1345 C1344 1.439 . S
C1345 C1363 1.392 . S
N1346 Co1330 2.282 . S
N1346 C1349 1.332 . S
N1346 C1351 1.332 . S
C1347 C1348 1.386 . S
C1347 C1350 1.388 . S
C1348 C1347 1.386 . S
C1348 C1349 1.382 . S
C1348 H1374 0.950 . S
C1349 N1346 1.332 . S
C1349 C1348 1.382 . S
C1349 H1360 0.952 . S
C1350 C1347 1.388 . S
C1350 C1351 1.382 . S
C1350 H1375 0.950 . S
C1351 N1346 1.332 . S
C1351 C1350 1.382 . S
C1351 H1361 0.948 . S
N1352 Co1330 2.282 . S
N1352 C1356 1.332 . S
N1352 C1357 1.332 . S
C1353 C1354 1.388 . S
C1353 C1357 1.382 . S
C1353 H1376 0.950 . S
C1354 C1353 1.388 . S
C1354 C1355 1.386 . S
C1355 C1354 1.386 . S
C1355 C1356 1.382 . S
C1355 H1377 0.950 . S
C1356 N1352 1.332 . S
C1356 C1355 1.382 . S
C1356 H1358 0.952 . S
C1357 N1352 1.332 . S
C1357 C1353 1.382 . S
C1357 H1359 0.948 . S
H1358 C1356 0.952 . S
H1359 C1357 0.948 . S
H1360 C1349 0.952 . S
H1361 C1351 0.948 . S
C1362 C1328 1.395 . S
C1362 C1332 1.391 . S
C1363 C1325 1.389 . S
C1363 C1345 1.392 . S
C1364 C1335 1.392 . S
C1364 C1337 1.389 . S
C1365 C1340 1.395 . S
C1365 C1342 1.391 . S
H1366 C1326 0.951 . S
H1367 C1327 0.950 . S
H1368 C1333 0.949 1_455 S
H1369 C1334 0.950 . S
H1370 C1338 0.951 . S
H1371 C1339 0.950 . S
H1372 C1343 0.949 . S
H1373 C1344 0.950 . S
H1374 C1348 0.950 . S
H1375 C1350 0.950 . S
H1376 C1353 0.950 . S
H1377 C1355 0.950 . S
C1378 C1379 1.443 . S
C1378 N1382 1.376 . S
C1378 C1416 1.389 . S
C1379 C1378 1.443 . S
C1379 C1380 1.340 . S
C1379 H1419 0.951 . S
C1380 C1379 1.340 . S
C1380 C1381 1.439 . S
C1380 H1420 0.950 . S
C1381 C1380 1.439 . S
C1381 N1382 1.374 . S
C1381 C1415 1.395 . S
N1382 C1378 1.376 . S
N1382 C1381 1.374 . S
N1382 Co1383 2.008 . S
Co1383 N1382 2.008 . S
Co1383 N1384 1.995 . S
Co1383 N1389 2.008 . S
Co1383 N1394 1.995 . S
Co1383 N1399 2.282 . S
Co1383 N1405 2.282 . S
N1384 Co1383 1.995 . S
N1384 C1385 1.376 . S
N1384 C1388 1.383 . S
C1385 N1384 1.376 . S
C1385 C1386 1.446 . S
C1385 C1415 1.391 . S
C1386 C1385 1.446 . S
C1386 C1387 1.339 . S
C1386 H1421 0.949 . S
C1387 C1386 1.339 . S
C1387 C1388 1.439 . S
C1387 H1422 0.950 . S
C1388 N1384 1.383 . S
C1388 C1387 1.439 . S
C1388 C1417 1.392 . S
N1389 Co1383 2.008 . S
N1389 C1390 1.376 . S
N1389 C1393 1.374 . S
C1390 N1389 1.376 . S
C1390 C1391 1.443 . S
C1390 C1417 1.389 . S
C1391 C1390 1.443 . S
C1391 C1392 1.340 . S
C1391 H1423 0.951 . S
C1392 C1391 1.340 . S
C1392 C1393 1.439 . S
C1392 H1424 0.950 . S
C1393 N1389 1.374 . S
C1393 C1392 1.439 . S
C1393 C1418 1.395 . S
N1394 Co1383 1.995 . S
N1394 C1395 1.376 . S
N1394 C1398 1.383 . S
C1395 N1394 1.376 . S
C1395 C1396 1.446 . S
C1395 C1418 1.391 . S
C1396 C1395 1.446 . S
C1396 C1397 1.339 . S
C1396 H1425 0.949 . S
C1397 C1396 1.339 . S
C1397 C1398 1.439 . S
C1397 H1426 0.950 . S
C1398 N1394 1.383 . S
C1398 C1397 1.439 . S
C1398 C1416 1.392 . S
N1399 Co1383 2.282 . S
N1399 C1402 1.332 . S
N1399 C1404 1.332 . S
C1400 C1401 1.386 . S
C1400 C1403 1.388 . S
C1401 C1400 1.386 . S
C1401 C1402 1.382 . S
C1401 H1427 0.950 . S
C1402 N1399 1.332 . S
C1402 C1401 1.382 . S
C1402 H1413 0.952 . S
C1403 C1400 1.388 . S
C1403 C1404 1.382 . S
C1403 H1428 0.950 . S
C1404 N1399 1.332 . S
C1404 C1403 1.382 . S
C1404 H1414 0.948 . S
N1405 Co1383 2.282 . S
N1405 C1409 1.332 . S
N1405 C1410 1.332 . S
C1406 C1407 1.388 . S
C1406 C1410 1.382 . S
C1406 H1429 0.950 . S
C1407 C1406 1.388 . S
C1407 C1408 1.386 . S
C1408 C1407 1.386 . S
C1408 C1409 1.382 . S
C1408 H1430 0.950 . S
C1409 N1405 1.332 . S
C1409 C1408 1.382 . S
C1409 H1411 0.952 . S
C1410 N1405 1.332 . S
C1410 C1406 1.382 . S
C1410 H1412 0.948 . S
H1411 C1409 0.952 . S
H1412 C1410 0.948 . S
H1413 C1402 0.952 . S
H1414 C1404 0.948 . S
C1415 C1381 1.395 . S
C1415 C1385 1.391 . S
C1416 C1378 1.389 . S
C1416 C1398 1.392 . S
C1417 C1388 1.392 . S
C1417 C1390 1.389 . S
C1418 C1393 1.395 . S
C1418 C1395 1.391 . S
H1419 C1379 0.951 . S
H1420 C1380 0.950 . S
H1421 C1386 0.949 . S
H1422 C1387 0.950 . S
H1423 C1391 0.951 . S
H1424 C1392 0.950 . S
H1425 C1396 0.949 . S
H1426 C1397 0.950 . S
H1427 C1401 0.950 . S
H1428 C1403 0.950 . S
H1429 C1406 0.950 . S
H1430 C1408 0.950 . S
C1431 C1432 1.443 . S
C1431 N1435 1.376 . S
C1431 C1469 1.389 . S
C1432 C1431 1.443 . S
C1432 C1433 1.340 . S
C1432 H1472 0.951 . S
C1433 C1432 1.340 . S
C1433 C1434 1.439 . S
C1433 H1473 0.950 . S
C1434 C1433 1.439 . S
C1434 N1435 1.374 . S
C1434 C1468 1.395 . S
N1435 C1431 1.376 . S
N1435 C1434 1.374 . S
N1435 Co1436 2.008 . S
Co1436 N1435 2.008 . S
Co1436 N1437 1.995 . S
Co1436 N1442 2.008 . S
Co1436 N1447 1.995 . S
Co1436 N1452 2.282 . S
Co1436 N1458 2.282 . S
N1437 Co1436 1.995 . S
N1437 C1438 1.376 . S
N1437 C1441 1.383 . S
C1438 N1437 1.376 . S
C1438 C1439 1.446 . S
C1438 C1468 1.391 . S
C1439 C1438 1.446 . S
C1439 C1440 1.339 . S
C1439 H1474 0.949 . S
C1440 C1439 1.339 . S
C1440 C1441 1.439 . S
C1440 H1475 0.950 . S
C1441 N1437 1.383 . S
C1441 C1440 1.439 . S
C1441 C1470 1.392 . S
N1442 Co1436 2.008 . S
N1442 C1443 1.376 . S
N1442 C1446 1.374 . S
C1443 N1442 1.376 . S
C1443 C1444 1.443 . S
C1443 C1470 1.389 . S
C1444 C1443 1.443 . S
C1444 C1445 1.340 . S
C1444 H1476 0.951 . S
C1445 C1444 1.340 . S
C1445 C1446 1.439 . S
C1445 H1477 0.950 . S
C1446 N1442 1.374 . S
C1446 C1445 1.439 . S
C1446 C1471 1.395 . S
N1447 Co1436 1.995 . S
N1447 C1448 1.376 . S
N1447 C1451 1.383 . S
C1448 N1447 1.376 . S
C1448 C1449 1.446 . S
C1448 C1471 1.391 . S
C1449 C1448 1.446 . S
C1449 C1450 1.339 . S
C1449 H1478 0.949 . S
C1450 C1449 1.339 . S
C1450 C1451 1.439 . S
C1450 H1479 0.950 . S
C1451 N1447 1.383 . S
C1451 C1450 1.439 . S
C1451 C1469 1.392 . S
N1452 Co1436 2.282 . S
N1452 C1455 1.332 . S
N1452 C1457 1.332 . S
C1453 C1454 1.386 . S
C1453 C1456 1.388 . S
C1454 C1453 1.386 . S
C1454 C1455 1.382 . S
C1454 H1480 0.950 . S
C1455 N1452 1.332 . S
C1455 C1454 1.382 . S
C1455 H1466 0.952 . S
C1456 C1453 1.388 . S
C1456 C1457 1.382 . S
C1456 H1481 0.950 . S
C1457 N1452 1.332 . S
C1457 C1456 1.382 . S
C1457 H1467 0.948 . S
N1458 Co1436 2.282 . S
N1458 C1462 1.332 . S
N1458 C1463 1.332 . S
C1459 C1460 1.388 . S
C1459 C1463 1.382 . S
C1459 H1482 0.950 . S
C1460 C1459 1.388 . S
C1460 C1461 1.386 . S
C1461 C1460 1.386 . S
C1461 C1462 1.382 . S
C1461 H1483 0.950 . S
C1462 N1458 1.332 . S
C1462 C1461 1.382 . S
C1462 H1464 0.952 . S
C1463 N1458 1.332 . S
C1463 C1459 1.382 . S
C1463 H1465 0.948 . S
H1464 C1462 0.952 . S
H1465 C1463 0.948 . S
H1466 C1455 0.952 . S
H1467 C1457 0.948 . S
C1468 C1434 1.395 . S
C1468 C1438 1.391 . S
C1469 C1431 1.389 . S
C1469 C1451 1.392 . S
C1470 C1441 1.392 . S
C1470 C1443 1.389 . S
C1471 C1446 1.395 . S
C1471 C1448 1.391 . S
H1472 C1432 0.951 . S
H1473 C1433 0.950 . S
H1474 C1439 0.949 . S
H1475 C1440 0.950 . S
H1476 C1444 0.951 . S
H1477 C1445 0.950 . S
H1478 C1449 0.949 . S
H1479 C1450 0.950 . S
H1480 C1454 0.950 . S
H1481 C1456 0.950 . S
H1482 C1459 0.950 . S
H1483 C1461 0.950 . S
C1484 C1485 1.443 . S
C1484 N1488 1.376 . S
C1484 C1522 1.389 . S
C1485 C1484 1.443 . S
C1485 C1486 1.340 . S
C1485 H1525 0.951 . S
C1486 C1485 1.340 . S
C1486 C1487 1.439 . S
C1486 H1526 0.950 . S
C1487 C1486 1.439 . S
C1487 N1488 1.374 . S
C1487 C1521 1.395 . S
N1488 C1484 1.376 . S
N1488 C1487 1.374 . S
N1488 Co1489 2.008 . S
Co1489 N1488 2.008 . S
Co1489 N1490 1.995 . S
Co1489 N1495 2.008 . S
Co1489 N1500 1.995 . S
Co1489 N1505 2.282 . S
Co1489 N1511 2.282 . S
N1490 Co1489 1.995 . S
N1490 C1491 1.376 . S
N1490 C1494 1.383 . S
C1491 N1490 1.376 . S
C1491 C1492 1.446 . S
C1491 C1521 1.391 . S
C1492 C1491 1.446 . S
C1492 C1493 1.339 . S
C1492 H1527 0.949 . S
C1493 C1492 1.339 . S
C1493 C1494 1.439 . S
C1493 H1528 0.950 . S
C1494 N1490 1.383 . S
C1494 C1493 1.439 . S
C1494 C1523 1.392 . S
N1495 Co1489 2.008 . S
N1495 C1496 1.376 . S
N1495 C1499 1.374 . S
C1496 N1495 1.376 . S
C1496 C1497 1.443 . S
C1496 C1523 1.389 . S
C1497 C1496 1.443 . S
C1497 C1498 1.340 . S
C1497 H1529 0.951 . S
C1498 C1497 1.340 . S
C1498 C1499 1.439 . S
C1498 H1530 0.950 . S
C1499 N1495 1.374 . S
C1499 C1498 1.439 . S
C1499 C1524 1.395 . S
N1500 Co1489 1.995 . S
N1500 C1501 1.376 . S
N1500 C1504 1.383 . S
C1501 N1500 1.376 . S
C1501 C1502 1.446 . S
C1501 C1524 1.391 . S
C1502 C1501 1.446 . S
C1502 C1503 1.339 . S
C1502 H1531 0.949 . S
C1503 C1502 1.339 . S
C1503 C1504 1.439 . S
C1503 H1532 0.950 . S
C1504 N1500 1.383 . S
C1504 C1503 1.439 . S
C1504 C1522 1.392 . S
N1505 Co1489 2.282 . S
N1505 C1508 1.332 . S
N1505 C1510 1.332 . S
C1506 C1507 1.386 . S
C1506 C1509 1.388 . S
C1507 C1506 1.386 . S
C1507 C1508 1.382 . S
C1507 H1533 0.950 . S
C1508 N1505 1.332 . S
C1508 C1507 1.382 . S
C1508 H1519 0.952 . S
C1509 C1506 1.388 . S
C1509 C1510 1.382 . S
C1509 H1534 0.950 . S
C1510 N1505 1.332 . S
C1510 C1509 1.382 . S
C1510 H1520 0.948 . S
N1511 Co1489 2.282 . S
N1511 C1515 1.332 . S
N1511 C1516 1.332 . S
C1512 C1513 1.434 . S
C1512 C1516 1.409 . S
C1512 H1535 0.881 1_565 S
C1513 C1512 1.434 . S
C1513 C1514 1.386 . S
C1514 C1513 1.386 . S
C1514 C1515 1.382 . S
C1514 H1536 0.950 . S
C1515 N1511 1.332 . S
C1515 C1514 1.382 . S
C1515 H1517 0.952 . S
C1516 N1511 1.332 . S
C1516 C1512 1.409 . S
C1516 H1518 0.948 . S
H1517 C1515 0.952 . S
H1518 C1516 0.948 . S
H1519 C1508 0.952 . S
H1520 C1510 0.948 . S
C1521 C1487 1.395 . S
C1521 C1491 1.391 . S
C1522 C1484 1.389 . S
C1522 C1504 1.392 . S
C1523 C1494 1.392 . S
C1523 C1496 1.389 . S
C1524 C1499 1.395 . S
C1524 C1501 1.391 . S
H1525 C1485 0.951 . S
H1526 C1486 0.950 . S
H1527 C1492 0.949 . S
H1528 C1493 0.950 . S
H1529 C1497 0.951 . S
H1530 C1498 0.950 . S
H1531 C1502 0.949 . S
H1532 C1503 0.950 . S
H1533 C1507 0.950 . S
H1534 C1509 0.950 . S
H1535 C1512 0.881 1_545 S
H1536 C1514 0.950 . S
C1537 C1538 1.443 . S
C1537 N1541 1.376 . S
C1537 C1575 1.389 . S
C1538 C1537 1.443 . S
C1538 C1539 1.340 . S
C1538 H1578 0.951 . S
C1539 C1538 1.340 . S
C1539 C1540 1.439 . S
C1539 H1579 0.950 . S
C1540 C1539 1.439 . S
C1540 N1541 1.374 . S
C1540 C1574 1.395 . S
N1541 C1537 1.376 . S
N1541 C1540 1.374 . S
N1541 Co1542 2.008 . S
Co1542 N1541 2.008 . S
Co1542 N1543 1.995 . S
Co1542 N1548 2.008 . S
Co1542 N1553 1.995 . S
Co1542 N1558 2.282 . S
Co1542 N1564 2.282 . S
N1543 Co1542 1.995 . S
N1543 C1544 1.376 . S
N1543 C1547 1.383 . S
C1544 N1543 1.376 . S
C1544 C1545 1.446 . S
C1544 C1574 1.391 . S
C1545 C1544 1.446 . S
C1545 C1546 1.339 . S
C1545 H1580 0.949 . S
C1546 C1545 1.339 . S
C1546 C1547 1.439 . S
C1546 H1581 0.950 . S
C1547 N1543 1.383 . S
C1547 C1546 1.439 . S
C1547 C1576 1.392 . S
N1548 Co1542 2.008 . S
N1548 C1549 1.376 . S
N1548 C1552 1.374 . S
C1549 N1548 1.376 . S
C1549 C1550 1.443 . S
C1549 C1576 1.389 . S
C1550 C1549 1.443 . S
C1550 C1551 1.340 . S
C1550 H1582 0.951 . S
C1551 C1550 1.340 . S
C1551 C1552 1.439 . S
C1551 H1583 0.950 . S
C1552 N1548 1.374 . S
C1552 C1551 1.439 . S
C1552 C1577 1.395 . S
N1553 Co1542 1.995 . S
N1553 C1554 1.376 . S
N1553 C1557 1.383 . S
C1554 N1553 1.376 . S
C1554 C1555 1.446 . S
C1554 C1577 1.391 . S
C1555 C1554 1.446 . S
C1555 C1556 1.339 . S
C1555 H1584 0.949 . S
C1556 C1555 1.339 . S
C1556 C1557 1.439 . S
C1556 H1585 0.950 . S
C1557 N1553 1.383 . S
C1557 C1556 1.439 . S
C1557 C1575 1.392 . S
N1558 Co1542 2.282 . S
N1558 C1561 1.332 . S
N1558 C1563 1.332 . S
C1559 C1560 1.386 . S
C1559 C1562 1.388 . S
C1560 C1559 1.386 . S
C1560 C1561 1.382 . S
C1560 H1586 0.950 . S
C1561 N1558 1.332 . S
C1561 C1560 1.382 . S
C1561 H1572 0.952 . S
C1562 C1559 1.388 . S
C1562 C1563 1.382 . S
C1562 H1587 0.950 . S
C1563 N1558 1.332 . S
C1563 C1562 1.382 . S
C1563 H1573 0.948 . S
N1564 Co1542 2.282 . S
N1564 C1568 1.332 . S
N1564 C1569 1.332 . S
C1565 C1566 1.388 . S
C1565 C1569 1.382 . S
C1565 H1588 0.950 1_455 S
C1566 C1565 1.388 . S
C1566 C1567 1.386 . S
C1567 C1566 1.386 . S
C1567 C1568 1.382 . S
C1567 H1589 0.950 . S
C1568 N1564 1.332 . S
C1568 C1567 1.382 . S
C1568 H1570 0.952 . S
C1569 N1564 1.332 . S
C1569 C1565 1.382 . S
C1569 H1571 0.948 . S
H1570 C1568 0.952 . S
H1571 C1569 0.948 . S
H1572 C1561 0.952 . S
H1573 C1563 0.948 . S
C1574 C1540 1.395 . S
C1574 C1544 1.391 . S
C1575 C1537 1.389 . S
C1575 C1557 1.392 . S
C1576 C1547 1.392 . S
C1576 C1549 1.389 . S
C1577 C1552 1.395 . S
C1577 C1554 1.391 . S
H1578 C1538 0.951 . S
H1579 C1539 0.950 . S
H1580 C1545 0.949 . S
H1581 C1546 0.950 . S
H1582 C1550 0.951 . S
H1583 C1551 0.950 . S
H1584 C1555 0.949 . S
H1585 C1556 0.950 . S
H1586 C1560 0.950 . S
H1587 C1562 0.950 . S
H1588 C1565 0.950 1_655 S
H1589 C1567 0.950 . S
C1590 C1591 1.443 . S
C1590 N1594 1.376 . S
C1590 C1628 1.389 . S
C1591 C1590 1.443 . S
C1591 C1592 1.340 . S
C1591 H1631 0.951 . S
C1592 C1591 1.340 . S
C1592 C1593 1.439 . S
C1592 H1632 0.950 . S
C1593 C1592 1.439 . S
C1593 N1594 1.374 . S
C1593 C1627 1.395 . S
N1594 C1590 1.376 . S
N1594 C1593 1.374 . S
N1594 Co1595 2.008 . S
Co1595 N1594 2.008 . S
Co1595 N1596 1.995 . S
Co1595 N1601 2.008 . S
Co1595 N1606 1.995 . S
Co1595 N1611 2.282 . S
Co1595 N1617 2.282 . S
N1596 Co1595 1.995 . S
N1596 C1597 1.376 . S
N1596 C1600 1.383 . S
C1597 N1596 1.376 . S
C1597 C1598 1.446 . S
C1597 C1627 1.391 . S
C1598 C1597 1.446 . S
C1598 C1599 1.339 . S
C1598 H1633 0.949 . S
C1599 C1598 1.339 . S
C1599 C1600 1.439 . S
C1599 H1634 0.950 . S
C1600 N1596 1.383 . S
C1600 C1599 1.439 . S
C1600 C1629 1.392 . S
N1601 Co1595 2.008 . S
N1601 C1602 1.376 . S
N1601 C1605 1.374 . S
C1602 N1601 1.376 . S
C1602 C1603 1.443 . S
C1602 C1629 1.389 . S
C1603 C1602 1.443 . S
C1603 C1604 1.340 . S
C1603 H1635 0.951 . S
C1604 C1603 1.340 . S
C1604 C1605 1.439 . S
C1604 H1636 0.950 . S
C1605 N1601 1.374 . S
C1605 C1604 1.439 . S
C1605 C1630 1.395 . S
N1606 Co1595 1.995 . S
N1606 C1607 1.376 . S
N1606 C1610 1.383 . S
C1607 N1606 1.376 . S
C1607 C1608 1.446 . S
C1607 C1630 1.391 . S
C1608 C1607 1.446 . S
C1608 C1609 1.339 . S
C1608 H1637 0.949 . S
C1609 C1608 1.339 . S
C1609 C1610 1.439 . S
C1609 H1638 0.950 . S
C1610 N1606 1.383 . S
C1610 C1609 1.439 . S
C1610 C1628 1.392 . S
N1611 Co1595 2.282 . S
N1611 C1614 1.332 . S
N1611 C1616 1.332 . S
C1612 C1613 1.386 . S
C1612 C1615 1.388 . S
C1613 C1612 1.386 . S
C1613 C1614 1.382 . S
C1613 H1639 0.950 . S
C1614 N1611 1.332 . S
C1614 C1613 1.382 . S
C1614 H1625 0.952 . S
C1615 C1612 1.388 . S
C1615 C1616 1.382 . S
C1615 H1640 0.950 . S
C1616 N1611 1.332 . S
C1616 C1615 1.382 . S
C1616 H1626 0.948 . S
N1617 Co1595 2.282 . S
N1617 C1621 1.332 . S
N1617 C1622 1.332 . S
C1618 C1619 1.388 . S
C1618 C1622 1.382 . S
C1618 H1641 0.950 . S
C1619 C1618 1.388 . S
C1619 C1620 1.386 . S
C1620 C1619 1.386 . S
C1620 C1621 1.382 . S
C1620 H1642 0.950 . S
C1621 N1617 1.332 . S
C1621 C1620 1.382 . S
C1621 H1623 0.952 . S
C1622 N1617 1.332 . S
C1622 C1618 1.382 . S
C1622 H1624 0.948 . S
H1623 C1621 0.952 . S
H1624 C1622 0.948 . S
H1625 C1614 0.952 . S
H1626 C1616 0.948 . S
C1627 C1593 1.395 . S
C1627 C1597 1.391 . S
C1628 C1590 1.389 . S
C1628 C1610 1.392 . S
C1629 C1600 1.392 . S
C1629 C1602 1.389 . S
C1630 C1605 1.395 . S
C1630 C1607 1.391 . S
H1631 C1591 0.951 . S
H1632 C1592 0.950 . S
H1633 C1598 0.949 . S
H1634 C1599 0.950 . S
H1635 C1603 0.951 . S
H1636 C1604 0.950 . S
H1637 C1608 0.949 . S
H1638 C1609 0.950 . S
H1639 C1613 0.950 . S
H1640 C1615 0.950 . S
H1641 C1618 0.950 . S
H1642 C1620 0.950 . S
C1643 C1644 1.443 . S
C1643 N1647 1.376 . S
C1643 C1681 1.389 . S
C1644 C1643 1.443 . S
C1644 C1645 1.340 . S
C1644 H1684 0.951 . S
C1645 C1644 1.340 . S
C1645 C1646 1.439 . S
C1645 H1685 0.990 . S
C1646 C1645 1.439 . S
C1646 N1647 1.374 . S
C1646 C1680 1.395 . S
N1647 C1643 1.376 . S
N1647 C1646 1.374 . S
N1647 Co1648 2.008 . S
Co1648 N1647 2.008 . S
Co1648 N1649 1.995 . S
Co1648 N1654 2.008 . S
Co1648 N1659 1.995 . S
Co1648 N1664 2.282 . S
Co1648 N1670 2.282 . S
N1649 Co1648 1.995 . S
N1649 C1650 1.376 . S
N1649 C1653 1.383 . S
C1650 N1649 1.376 . S
C1650 C1651 1.446 . S
C1650 C1680 1.391 . S
C1651 C1650 1.446 . S
C1651 C1652 1.339 . S
C1651 H1686 0.949 . S
C1652 C1651 1.339 . S
C1652 C1653 1.439 . S
C1652 H1687 0.950 . S
C1653 N1649 1.383 . S
C1653 C1652 1.439 . S
C1653 C1682 1.392 . S
N1654 Co1648 2.008 . S
N1654 C1655 1.376 . S
N1654 C1658 1.374 . S
C1655 N1654 1.376 . S
C1655 C1656 1.443 . S
C1655 C1682 1.389 . S
C1656 C1655 1.443 . S
C1656 C1657 1.340 . S
C1656 H1688 0.951 . S
C1657 C1656 1.340 . S
C1657 C1658 1.439 . S
C1657 H1689 0.950 . S
C1658 N1654 1.374 . S
C1658 C1657 1.439 . S
C1658 C1683 1.395 . S
N1659 Co1648 1.995 . S
N1659 C1660 1.376 . S
N1659 C1663 1.383 . S
C1660 N1659 1.376 . S
C1660 C1661 1.446 . S
C1660 C1683 1.391 . S
C1661 C1660 1.446 . S
C1661 C1662 1.339 . S
C1661 H1690 0.949 . S
C1662 C1661 1.339 . S
C1662 C1663 1.439 . S
C1662 H1691 0.950 . S
C1663 N1659 1.383 . S
C1663 C1662 1.439 . S
C1663 C1681 1.392 . S
N1664 Co1648 2.282 . S
N1664 C1667 1.332 . S
N1664 C1669 1.332 . S
C1665 C1666 1.386 . S
C1665 C1668 1.388 . S
C1666 C1665 1.386 . S
C1666 C1667 1.382 . S
C1666 H1692 0.950 . S
C1667 N1664 1.332 . S
C1667 C1666 1.382 . S
C1667 H1678 0.952 . S
C1668 C1665 1.388 . S
C1668 C1669 1.382 . S
C1668 H1693 0.950 . S
C1669 N1664 1.332 . S
C1669 C1668 1.382 . S
C1669 H1679 0.948 . S
N1670 Co1648 2.282 . S
N1670 C1674 1.332 . S
N1670 C1675 1.332 . S
C1671 C1672 1.388 . S
C1671 C1675 1.382 . S
C1671 H1694 0.950 . S
C1672 C1671 1.388 . S
C1672 C1673 1.386 . S
C1673 C1672 1.386 . S
C1673 C1674 1.382 . S
C1673 H1695 0.950 1_565 S
C1674 N1670 1.332 . S
C1674 C1673 1.382 . S
C1674 H1676 0.952 . S
C1675 N1670 1.332 . S
C1675 C1671 1.382 . S
C1675 H1677 0.948 . S
H1676 C1674 0.952 . S
H1677 C1675 0.948 . S
H1678 C1667 0.952 . S
H1679 C1669 0.948 . S
C1680 C1646 1.395 . S
C1680 C1650 1.391 . S
C1681 C1643 1.389 . S
C1681 C1663 1.392 . S
C1682 C1653 1.392 . S
C1682 C1655 1.389 . S
C1683 C1658 1.395 . S
C1683 C1660 1.391 . S
H1684 C1644 0.951 . S
H1685 C1645 0.990 . S
H1686 C1651 0.949 . S
H1687 C1652 0.950 . S
H1688 C1656 0.951 . S
H1689 C1657 0.950 . S
H1690 C1661 0.949 . S
H1691 C1662 0.950 . S
H1692 C1666 0.950 . S
H1693 C1668 0.950 . S
H1694 C1671 0.950 . S
H1695 C1673 0.950 1_545 S
C1696 C1697 1.443 . S
C1696 N1700 1.376 . S
C1696 C1734 1.389 . S
C1697 C1696 1.443 . S
C1697 C1698 1.340 . S
C1697 H1737 0.951 . S
C1698 C1697 1.340 . S
C1698 C1699 1.439 . S
C1698 H1738 0.950 1_455 S
C1699 C1698 1.439 . S
C1699 N1700 1.374 . S
C1699 C1733 1.395 . S
N1700 C1696 1.376 . S
N1700 C1699 1.374 . S
N1700 Co1701 2.008 . S
Co1701 N1700 2.008 . S
Co1701 N1702 1.995 . S
Co1701 N1707 2.008 . S
Co1701 N1712 1.995 . S
Co1701 N1717 2.282 . S
Co1701 N1723 2.282 . S
N1702 Co1701 1.995 . S
N1702 C1703 1.376 . S
N1702 C1706 1.383 . S
C1703 N1702 1.376 . S
C1703 C1704 1.446 . S
C1703 C1733 1.391 . S
C1704 C1703 1.446 . S
C1704 C1705 1.339 . S
C1704 H1739 0.949 . S
C1705 C1704 1.339 . S
C1705 C1706 1.439 . S
C1705 H1740 0.950 . S
C1706 N1702 1.383 . S
C1706 C1705 1.439 . S
C1706 C1735 1.392 . S
N1707 Co1701 2.008 . S
N1707 C1708 1.376 . S
N1707 C1711 1.374 . S
C1708 N1707 1.376 . S
C1708 C1709 1.443 . S
C1708 C1735 1.389 . S
C1709 C1708 1.443 . S
C1709 C1710 1.340 . S
C1709 H1741 0.951 . S
C1710 C1709 1.340 . S
C1710 C1711 1.439 . S
C1710 H1742 0.950 . S
C1711 N1707 1.374 . S
C1711 C1710 1.439 . S
C1711 C1736 1.395 . S
N1712 Co1701 1.995 . S
N1712 C1713 1.376 . S
N1712 C1716 1.383 . S
C1713 N1712 1.376 . S
C1713 C1714 1.446 . S
C1713 C1736 1.391 . S
C1714 C1713 1.446 . S
C1714 C1715 1.339 . S
C1714 H1743 0.949 . S
C1715 C1714 1.339 . S
C1715 C1716 1.439 . S
C1715 H1744 0.950 . S
C1716 N1712 1.383 . S
C1716 C1715 1.439 . S
C1716 C1734 1.392 . S
N1717 Co1701 2.282 . S
N1717 C1720 1.332 . S
N1717 C1722 1.332 . S
C1718 C1719 1.386 . S
C1718 C1721 1.388 . S
C1719 C1718 1.386 . S
C1719 C1720 1.382 . S
C1719 H1745 0.950 . S
C1720 N1717 1.332 . S
C1720 C1719 1.382 . S
C1720 H1731 0.952 . S
C1721 C1718 1.388 . S
C1721 C1722 1.382 . S
C1721 H1746 0.950 . S
C1722 N1717 1.332 . S
C1722 C1721 1.382 . S
C1722 H1732 0.948 . S
N1723 Co1701 2.282 . S
N1723 C1727 1.332 . S
N1723 C1728 1.332 . S
C1724 C1725 1.388 . S
C1724 C1728 1.382 . S
C1724 H1747 0.950 . S
C1725 C1724 1.388 . S
C1725 C1726 1.386 . S
C1726 C1725 1.386 . S
C1726 C1727 1.382 . S
C1726 H1748 0.950 1_455 S
C1727 N1723 1.332 . S
C1727 C1726 1.382 . S
C1727 H1729 0.952 . S
C1728 N1723 1.332 . S
C1728 C1724 1.382 . S
C1728 H1730 0.948 . S
H1729 C1727 0.952 . S
H1730 C1728 0.948 . S
H1731 C1720 0.952 . S
H1732 C1722 0.948 . S
C1733 C1699 1.395 . S
C1733 C1703 1.391 . S
C1734 C1696 1.389 . S
C1734 C1716 1.392 . S
C1735 C1706 1.392 . S
C1735 C1708 1.389 . S
C1736 C1711 1.395 . S
C1736 C1713 1.391 . S
H1737 C1697 0.951 . S
H1738 C1698 0.950 1_655 S
H1739 C1704 0.949 . S
H1740 C1705 0.950 . S
H1741 C1709 0.951 . S
H1742 C1710 0.950 . S
H1743 C1714 0.949 . S
H1744 C1715 0.950 . S
H1745 C1719 0.950 . S
H1746 C1721 0.950 . S
H1747 C1724 0.950 . S
H1748 C1726 0.950 1_655 S
C1749 C1750 1.443 . S
C1749 N1753 1.376 . S
C1749 C1787 1.389 . S
C1750 C1749 1.443 . S
C1750 C1751 1.340 . S
C1750 H1790 0.951 . S
C1751 C1750 1.340 . S
C1751 C1752 1.439 . S
C1751 H1791 0.950 . S
C1752 C1751 1.439 . S
C1752 N1753 1.374 . S
C1752 C1786 1.395 . S
N1753 C1749 1.376 . S
N1753 C1752 1.374 . S
N1753 Co1754 2.008 . S
Co1754 N1753 2.008 . S
Co1754 N1755 1.995 . S
Co1754 N1760 2.008 . S
Co1754 N1765 1.995 . S
Co1754 N1770 2.282 . S
Co1754 N1776 2.282 . S
N1755 Co1754 1.995 . S
N1755 C1756 1.376 . S
N1755 C1759 1.383 . S
C1756 N1755 1.376 . S
C1756 C1757 1.446 . S
C1756 C1786 1.391 . S
C1757 C1756 1.446 . S
C1757 C1758 1.339 . S
C1757 H1792 0.949 . S
C1758 C1757 1.339 . S
C1758 C1759 1.439 . S
C1758 H1793 0.950 . S
C1759 N1755 1.383 . S
C1759 C1758 1.439 . S
C1759 C1788 1.392 . S
N1760 Co1754 2.008 . S
N1760 C1761 1.376 . S
N1760 C1764 1.374 . S
C1761 N1760 1.376 . S
C1761 C1762 1.443 . S
C1761 C1788 1.389 . S
C1762 C1761 1.443 . S
C1762 C1763 1.340 . S
C1762 H1794 0.951 . S
C1763 C1762 1.340 . S
C1763 C1764 1.439 . S
C1763 H1795 0.950 . S
C1764 N1760 1.374 . S
C1764 C1763 1.439 . S
C1764 C1789 1.395 . S
N1765 Co1754 1.995 . S
N1765 C1766 1.376 . S
N1765 C1769 1.383 . S
C1766 N1765 1.376 . S
C1766 C1767 1.446 . S
C1766 C1789 1.391 . S
C1767 C1766 1.446 . S
C1767 C1768 1.339 . S
C1767 H1796 0.949 . S
C1768 C1767 1.339 . S
C1768 C1769 1.439 . S
C1768 H1797 0.950 . S
C1769 N1765 1.383 . S
C1769 C1768 1.439 . S
C1769 C1787 1.392 . S
N1770 Co1754 2.282 . S
N1770 C1773 1.332 . S
N1770 C1775 1.332 . S
C1771 C1772 1.386 . S
C1771 C1774 1.388 . S
C1772 C1771 1.386 . S
C1772 C1773 1.382 . S
C1772 H1798 0.950 . S
C1773 N1770 1.332 . S
C1773 C1772 1.382 . S
C1773 H1784 0.952 . S
C1774 C1771 1.388 . S
C1774 C1775 1.382 . S
C1774 H1799 0.950 . S
C1775 N1770 1.332 . S
C1775 C1774 1.382 . S
C1775 H1785 0.948 . S
N1776 Co1754 2.282 . S
N1776 C1780 1.332 . S
N1776 C1781 1.332 . S
C1777 C1778 1.388 . S
C1777 C1781 1.382 . S
C1777 H1800 0.950 . S
C1778 C1777 1.388 . S
C1778 C1779 1.386 . S
C1779 C1778 1.386 . S
C1779 C1780 1.382 . S
C1779 H1801 0.950 . S
C1780 N1776 1.332 . S
C1780 C1779 1.382 . S
C1780 H1782 0.952 . S
C1781 N1776 1.332 . S
C1781 C1777 1.382 . S
C1781 H1783 0.948 . S
H1782 C1780 0.952 . S
H1783 C1781 0.948 . S
H1784 C1773 0.952 . S
H1785 C1775 0.948 . S
C1786 C1752 1.395 . S
C1786 C1756 1.391 . S
C1787 C1749 1.389 . S
C1787 C1769 1.392 . S
C1788 C1759 1.392 . S
C1788 C1761 1.389 . S
C1789 C1764 1.395 . S
C1789 C1766 1.391 . S
H1790 C1750 0.951 . S
H1791 C1751 0.950 . S
H1792 C1757 0.949 . S
H1793 C1758 0.950 . S
H1794 C1762 0.951 . S
H1795 C1763 0.950 . S
H1796 C1767 0.949 . S
H1797 C1768 0.950 . S
H1798 C1772 0.950 . S
H1799 C1774 0.950 . S
H1800 C1777 0.950 . S
H1801 C1779 0.950 . S
C1802 C1803 1.443 . S
C1802 N1806 1.376 . S
C1802 C1840 1.389 . S
C1803 C1802 1.443 . S
C1803 C1804 1.340 . S
C1803 H1843 0.951 . S
C1804 C1803 1.340 . S
C1804 C1805 1.439 . S
C1804 H1844 0.950 . S
C1805 C1804 1.439 . S
C1805 N1806 1.374 . S
C1805 C1839 1.395 . S
N1806 C1802 1.376 . S
N1806 C1805 1.374 . S
N1806 Co1807 2.008 . S
Co1807 N1806 2.008 . S
Co1807 N1808 1.995 . S
Co1807 N1813 2.008 . S
Co1807 N1818 1.995 . S
Co1807 N1823 2.282 . S
Co1807 N1829 2.282 . S
N1808 Co1807 1.995 . S
N1808 C1809 1.376 . S
N1808 C1812 1.383 . S
C1809 N1808 1.376 . S
C1809 C1810 1.446 . S
C1809 C1839 1.391 . S
C1810 C1809 1.446 . S
C1810 C1811 1.339 . S
C1810 H1845 0.949 . S
C1811 C1810 1.339 . S
C1811 C1812 1.439 . S
C1811 H1846 0.950 . S
C1812 N1808 1.383 . S
C1812 C1811 1.439 . S
C1812 C1841 1.392 . S
N1813 Co1807 2.008 . S
N1813 C1814 1.376 . S
N1813 C1817 1.374 . S
C1814 N1813 1.376 . S
C1814 C1815 1.443 . S
C1814 C1841 1.389 . S
C1815 C1814 1.443 . S
C1815 C1816 1.340 . S
C1815 H1847 0.951 . S
C1816 C1815 1.340 . S
C1816 C1817 1.439 . S
C1816 H1848 0.950 . S
C1817 N1813 1.374 . S
C1817 C1816 1.439 . S
C1817 C1842 1.395 . S
N1818 Co1807 1.995 . S
N1818 C1819 1.376 . S
N1818 C1822 1.383 . S
C1819 N1818 1.376 . S
C1819 C1820 1.446 . S
C1819 C1842 1.391 . S
C1820 C1819 1.446 . S
C1820 C1821 1.339 . S
C1820 H1849 0.949 . S
C1821 C1820 1.339 . S
C1821 C1822 1.439 . S
C1821 H1850 0.950 . S
C1822 N1818 1.383 . S
C1822 C1821 1.439 . S
C1822 C1840 1.392 . S
N1823 Co1807 2.282 . S
N1823 C1826 1.332 . S
N1823 C1828 1.332 . S
C1824 C1825 1.386 . S
C1824 C1827 1.388 . S
C1825 C1824 1.386 . S
C1825 C1826 1.382 . S
C1825 H1851 0.950 . S
C1826 N1823 1.332 . S
C1826 C1825 1.382 . S
C1826 H1837 0.952 . S
C1827 C1824 1.388 . S
C1827 C1828 1.382 . S
C1827 H1852 0.950 . S
C1828 N1823 1.332 . S
C1828 C1827 1.382 . S
C1828 H1838 0.948 . S
N1829 Co1807 2.282 . S
N1829 C1833 1.332 . S
N1829 C1834 1.332 . S
C1830 C1831 1.388 . S
C1830 C1834 1.382 . S
C1830 H1853 0.950 . S
C1831 C1830 1.388 . S
C1831 C1832 1.386 . S
C1832 C1831 1.386 . S
C1832 C1833 1.382 . S
C1832 H1854 0.950 . S
C1833 N1829 1.332 . S
C1833 C1832 1.382 . S
C1833 H1835 0.952 . S
C1834 N1829 1.332 . S
C1834 C1830 1.382 . S
C1834 H1836 0.948 . S
H1835 C1833 0.952 . S
H1836 C1834 0.948 . S
H1837 C1826 0.952 . S
H1838 C1828 0.948 . S
C1839 C1805 1.395 . S
C1839 C1809 1.391 . S
C1840 C1802 1.389 . S
C1840 C1822 1.392 . S
C1841 C1812 1.392 . S
C1841 C1814 1.389 . S
C1842 C1817 1.395 . S
C1842 C1819 1.391 . S
H1843 C1803 0.951 . S
H1844 C1804 0.950 . S
H1845 C1810 0.949 . S
H1846 C1811 0.950 . S
H1847 C1815 0.951 . S
H1848 C1816 0.950 . S
H1849 C1820 0.949 . S
H1850 C1821 0.950 . S
H1851 C1825 0.950 . S
H1852 C1827 0.950 . S
H1853 C1830 0.950 . S
H1854 C1832 0.950 . S
C1855 C1856 1.443 . S
C1855 N1859 1.376 . S
C1855 C1893 1.389 . S
C1856 C1855 1.443 . S
C1856 C1857 1.340 . S
C1856 H1896 0.951 . S
C1857 C1856 1.340 . S
C1857 C1858 1.439 . S
C1857 H1897 0.950 . S
C1858 C1857 1.439 . S
C1858 N1859 1.374 . S
C1858 C1892 1.395 . S
N1859 C1855 1.376 . S
N1859 C1858 1.374 . S
N1859 Co1860 2.008 . S
Co1860 N1859 2.008 . S
Co1860 N1861 1.995 . S
Co1860 N1866 2.008 . S
Co1860 N1871 1.995 . S
Co1860 N1876 2.282 . S
Co1860 N1882 2.282 . S
N1861 Co1860 1.995 . S
N1861 C1862 1.376 . S
N1861 C1865 1.383 . S
C1862 N1861 1.376 . S
C1862 C1863 1.446 . S
C1862 C1892 1.391 . S
C1863 C1862 1.446 . S
C1863 C1864 1.339 . S
C1863 H1898 0.949 . S
C1864 C1863 1.339 . S
C1864 C1865 1.439 . S
C1864 H1899 0.950 . S
C1865 N1861 1.383 . S
C1865 C1864 1.439 . S
C1865 C1894 1.392 . S
N1866 Co1860 2.008 . S
N1866 C1867 1.376 . S
N1866 C1870 1.374 . S
C1867 N1866 1.376 . S
C1867 C1868 1.443 . S
C1867 C1894 1.389 . S
C1868 C1867 1.443 . S
C1868 C1869 1.340 . S
C1868 H1900 0.951 . S
C1869 C1868 1.340 . S
C1869 C1870 1.439 . S
C1869 H1901 0.950 . S
C1870 N1866 1.374 . S
C1870 C1869 1.439 . S
C1870 C1895 1.395 . S
N1871 Co1860 1.995 . S
N1871 C1872 1.376 . S
N1871 C1875 1.383 . S
C1872 N1871 1.376 . S
C1872 C1873 1.446 . S
C1872 C1895 1.391 . S
C1873 C1872 1.446 . S
C1873 C1874 1.339 . S
C1873 H1902 0.949 . S
C1874 C1873 1.339 . S
C1874 C1875 1.439 . S
C1874 H1903 0.950 . S
C1875 N1871 1.383 . S
C1875 C1874 1.439 . S
C1875 C1893 1.392 . S
N1876 Co1860 2.282 . S
N1876 C1879 1.332 . S
N1876 C1881 1.332 . S
C1877 C1878 1.386 . S
C1877 C1880 1.388 . S
C1878 C1877 1.386 . S
C1878 C1879 1.382 . S
C1878 H1904 0.950 . S
C1879 N1876 1.332 . S
C1879 C1878 1.382 . S
C1879 H1890 0.952 . S
C1880 C1877 1.388 . S
C1880 C1881 1.382 . S
C1880 H1905 0.950 . S
C1881 N1876 1.332 . S
C1881 C1880 1.382 . S
C1881 H1891 0.948 . S
N1882 Co1860 2.282 . S
N1882 C1886 1.332 . S
N1882 C1887 1.332 . S
C1883 C1884 1.388 . S
C1883 C1887 1.382 . S
C1883 H1906 0.950 . S
C1884 C1883 1.388 . S
C1884 C1885 1.386 . S
C1885 C1884 1.386 . S
C1885 C1886 1.382 . S
C1885 H1907 0.950 . S
C1886 N1882 1.332 . S
C1886 C1885 1.382 . S
C1886 H1888 0.952 . S
C1887 N1882 1.332 . S
C1887 C1883 1.382 . S
C1887 H1889 0.948 . S
H1888 C1886 0.952 . S
H1889 C1887 0.948 . S
H1890 C1879 0.952 . S
H1891 C1881 0.948 . S
C1892 C1858 1.395 . S
C1892 C1862 1.391 . S
C1893 C1855 1.389 . S
C1893 C1875 1.392 . S
C1894 C1865 1.392 . S
C1894 C1867 1.389 . S
C1895 C1870 1.395 . S
C1895 C1872 1.391 . S
H1896 C1856 0.951 . S
H1897 C1857 0.950 . S
H1898 C1863 0.949 . S
H1899 C1864 0.950 . S
H1900 C1868 0.951 . S
H1901 C1869 0.950 . S
H1902 C1873 0.949 . S
H1903 C1874 0.950 . S
H1904 C1878 0.950 . S
H1905 C1880 0.950 . S
H1906 C1883 0.950 . S
H1907 C1885 0.950 . S
H1908 C1914 0.930 . S
H1909 C1918 0.930 . S
H1910 C1923 0.929 . S
H1911 C1921 0.929 . S
H1912 C1916 0.929 . S
H1913 C1922 0.929 . S
C1914 H1908 0.930 . S
C1914 C1915 1.367 . S
C1914 C1922 1.378 . S
C1915 C1914 1.367 . S
C1915 C1923 1.433 1_556 S
C1916 H1912 0.929 . S
C1916 C1918 1.378 . S
C1916 C1920 1.350 . S
C1917 C1920 1.463 1_656 S
C1917 C1922 1.350 . S
C1917 N1925 1.427 1_556 S
C1918 H1909 0.930 . S
C1918 C1916 1.378 . S
C1918 C1919 1.367 . S
C1919 C1918 1.367 . S
C1919 C1921 1.433 1_554 S
C1920 C1916 1.350 . S
C1920 C1917 1.463 1_454 S
C1920 N1924 1.427 1_554 S
C1921 H1911 0.929 . S
C1921 C1919 1.433 1_556 S
C1921 N1924 1.384 . S
C1922 H1913 0.929 . S
C1922 C1914 1.378 . S
C1922 C1917 1.350 . S
C1923 H1910 0.929 . S
C1923 C1915 1.433 1_554 S
C1923 N1925 1.384 . S
N1924 C1920 1.427 1_556 S
N1924 C1921 1.384 . S
N1925 C1917 1.427 1_554 S
N1925 C1923 1.384 . S
H1926 C1932 0.930 . S
H1927 C1936 0.930 . S
H1928 C1941 0.929 . S
H1929 C1939 0.929 . S
H1930 C1934 0.929 . S
H1931 C1940 0.929 . S
C1932 H1926 0.930 . S
C1932 C1933 1.367 1_554 S
C1932 C1940 1.378 . S
C1933 C1932 1.367 1_556 S
C1933 C1941 1.433 . S
C1934 H1930 0.929 . S
C1934 C1936 1.378 . S
C1934 C1938 1.350 1_556 S
C1935 C1938 1.463 1_556 S
C1935 C1940 1.350 1_556 S
C1935 N1943 1.427 . S
C1936 H1927 0.930 . S
C1936 C1934 1.378 . S
C1936 C1937 1.367 1_556 S
C1937 C1936 1.367 1_554 S
C1937 C1939 1.433 . S
C1938 C1934 1.350 1_554 S
C1938 C1935 1.463 1_554 S
C1938 N1942 1.427 . S
C1939 H1929 0.929 . S
C1939 C1937 1.433 . S
C1939 N1942 1.384 . S
C1940 H1931 0.929 . S
C1940 C1932 1.378 . S
C1940 C1935 1.350 1_554 S
C1941 H1928 0.929 . S
C1941 C1933 1.433 . S
C1941 N1943 1.384 . S
N1942 C1938 1.427 . S
N1942 C1939 1.384 . S
N1943 C1935 1.427 . S
N1943 C1941 1.384 . S
H1944 C1950 0.930 . S
H1945 C1954 0.930 . S
H1946 C1959 0.929 . S
H1947 C1957 0.929 . S
H1948 C1952 0.929 . S
H1949 C1958 0.929 . S
C1950 H1944 0.930 . S
C1950 C1951 1.367 1_554 S
C1950 C1958 1.378 . S
C1951 C1950 1.367 1_556 S
C1951 C1959 1.433 . S
C1952 H1948 0.929 . S
C1952 C1954 1.378 . S
C1952 C1956 1.350 1_556 S
C1953 C1956 1.463 1_546 S
C1953 C1958 1.350 1_556 S
C1953 N1961 1.427 . S
C1954 H1945 0.930 . S
C1954 C1952 1.378 . S
C1954 C1955 1.367 1_556 S
C1955 C1954 1.367 1_554 S
C1955 C1957 1.433 . S
C1956 C1952 1.350 1_554 S
C1956 C1953 1.463 1_564 S
C1956 N1960 1.427 . S
C1957 H1947 0.929 . S
C1957 C1955 1.433 . S
C1957 N1960 1.384 . S
C1958 H1949 0.929 . S
C1958 C1950 1.378 . S
C1958 C1953 1.350 1_554 S
C1959 H1946 0.929 . S
C1959 C1951 1.433 . S
C1959 N1961 1.384 . S
N1960 C1956 1.427 . S
N1960 C1957 1.384 . S
N1961 C1953 1.427 . S
N1961 C1959 1.384 . S
H1962 C1968 0.930 . S
H1963 C1972 0.930 . S
H1964 C1977 0.929 . S
H1965 C1975 0.929 . S
H1966 C1970 0.929 . S
H1967 C1976 0.929 . S
C1968 H1962 0.930 . S
C1968 C1969 1.367 1_556 S
C1968 C1976 1.378 . S
C1969 C1968 1.367 1_554 S
C1969 C1977 1.433 . S
C1970 H1966 0.929 . S
C1970 C1972 1.378 . S
C1970 C1974 1.362 . S
C1971 C1974 1.465 . S
C1971 C1976 1.350 1_654 S
C1971 N1979 1.427 1_655 S
C1972 H1963 0.930 . S
C1972 C1970 1.378 . S
C1972 C1973 1.367 1_554 S
C1973 C1972 1.367 1_556 S
C1973 C1975 1.433 . S
C1974 C1970 1.362 . S
C1974 C1971 1.465 . S
C1974 N1978 1.413 1_554 S
C1975 H1965 0.929 . S
C1975 C1973 1.433 . S
C1975 N1978 1.384 . S
C1976 H1967 0.929 . S
C1976 C1968 1.378 . S
C1976 C1971 1.350 1_456 S
C1977 H1964 0.929 . S
C1977 C1969 1.433 . S
C1977 N1979 1.384 . S
N1978 C1974 1.413 1_556 S
N1978 C1975 1.384 . S
N1979 C1971 1.427 1_455 S
N1979 C1977 1.384 . S
H1980 C1986 0.930 . S
H1981 C1990 0.930 . S
H1982 C1995 0.929 . S
H1983 C1993 0.929 . S
H1984 C1988 0.929 . S
H1985 C1994 0.929 . S
C1986 H1980 0.930 . S
C1986 C1987 1.367 1_554 S
C1986 C1994 1.378 . S
C1987 C1986 1.367 1_556 S
C1987 C1995 1.433 . S
C1988 H1984 0.929 . S
C1988 C1990 1.378 . S
C1988 C1992 1.374 . S
C1989 C1992 1.465 . S
C1989 C1994 1.350 1_556 S
C1989 N1997 1.427 . S
C1990 H1981 0.930 . S
C1990 C1988 1.378 . S
C1990 C1991 1.367 1_556 S
C1991 C1990 1.367 1_554 S
C1991 C1993 1.433 . S
C1992 C1988 1.374 . S
C1992 C1989 1.465 . S
C1992 N1996 1.399 1_556 S
C1993 H1983 0.929 . S
C1993 C1991 1.433 . S
C1993 N1996 1.384 . S
C1994 H1985 0.929 . S
C1994 C1986 1.378 . S
C1994 C1989 1.350 1_554 S
C1995 H1982 0.929 . S
C1995 C1987 1.433 . S
C1995 N1997 1.384 . S
N1996 C1992 1.399 1_554 S
N1996 C1993 1.384 . S
N1997 C1989 1.427 . S
N1997 C1995 1.384 . S
H1998 C2004 0.930 . S
H1999 C2008 0.930 . S
H2000 C2013 0.929 . S
H2001 C2011 0.929 . S
H2002 C2006 0.929 . S
H2003 C2012 0.929 . S
C2004 H1998 0.930 . S
C2004 C2005 1.367 . S
C2004 C2012 1.378 . S
C2005 C2004 1.367 . S
C2005 C2013 1.433 1_554 S
C2006 H2002 0.929 . S
C2006 C2008 1.378 . S
C2006 C2010 1.350 . S
C2007 C2010 1.463 1_564 S
C2007 C2012 1.350 . S
C2007 N2015 1.427 1_554 S
C2008 H1999 0.930 . S
C2008 C2006 1.378 . S
C2008 C2009 1.367 . S
C2009 C2008 1.367 . S
C2009 C2011 1.433 1_556 S
C2010 C2006 1.350 . S
C2010 C2007 1.463 1_546 S
C2010 N2014 1.427 1_556 S
C2011 H2001 0.929 . S
C2011 C2009 1.433 1_554 S
C2011 N2014 1.384 . S
C2012 H2003 0.929 . S
C2012 C2004 1.378 . S
C2012 C2007 1.350 . S
C2013 H2000 0.929 . S
C2013 C2005 1.433 1_556 S
C2013 N2015 1.384 . S
N2014 C2010 1.427 1_554 S
N2014 C2011 1.384 . S
N2015 C2007 1.427 1_556 S
N2015 C2013 1.384 . S
H2016 C2022 0.930 . S
H2017 C2026 0.930 . S
H2018 C2031 0.929 . S
H2019 C2029 0.929 . S
H2020 C2024 0.929 . S
H2021 C2030 0.929 . S
C2022 H2016 0.930 . S
C2022 C2023 1.367 . S
C2022 C2030 1.378 . S
C2023 C2022 1.367 . S
C2023 C2031 1.433 . S
C2024 H2020 0.929 . S
C2024 C2026 1.378 . S
C2024 C2028 1.350 . S
C2025 C2028 1.463 . S
C2025 C2030 1.350 . S
C2025 N2033 1.427 . S
C2026 H2017 0.930 . S
C2026 C2024 1.378 . S
C2026 C2027 1.367 . S
C2027 C2026 1.367 . S
C2027 C2029 1.433 . S
C2028 C2024 1.350 . S
C2028 C2025 1.463 . S
C2028 N2032 1.427 . S
C2029 H2019 0.929 . S
C2029 C2027 1.433 . S
C2029 N2032 1.384 . S
C2030 H2021 0.929 . S
C2030 C2022 1.378 . S
C2030 C2025 1.350 . S
C2031 H2018 0.929 . S
C2031 C2023 1.433 . S
C2031 N2033 1.384 . S
N2032 C2028 1.427 . S
N2032 C2029 1.384 . S
N2033 C2025 1.427 . S
N2033 C2031 1.384 . S
H2034 C2040 0.930 . S
H2035 C2044 0.930 . S
H2036 C2049 0.929 . S
H2037 C2047 0.929 . S
H2038 C2042 0.930 1_545 S
H2039 C2048 0.929 . S
C2040 H2034 0.930 . S
C2040 C2041 1.367 . S
C2040 C2048 1.378 . S
C2041 C2040 1.367 . S
C2041 C2049 1.433 . S
C2042 H2038 0.930 1_565 S
C2042 C2044 1.378 1_565 S
C2042 C2046 1.350 . S
C2043 C2046 1.463 . S
C2043 C2048 1.350 . S
C2043 N2051 1.427 . S
C2044 H2035 0.930 . S
C2044 C2042 1.378 1_545 S
C2044 C2045 1.367 1_545 S
C2045 C2044 1.367 1_565 S
C2045 C2047 1.433 . S
C2046 C2042 1.350 . S
C2046 C2043 1.463 . S
C2046 N2050 1.427 . S
C2047 H2037 0.929 . S
C2047 C2045 1.433 . S
C2047 N2050 1.384 . S
C2048 H2039 0.929 . S
C2048 C2040 1.378 . S
C2048 C2043 1.350 . S
C2049 H2036 0.929 . S
C2049 C2041 1.433 . S
C2049 N2051 1.384 . S
N2050 C2046 1.427 . S
N2050 C2047 1.384 . S
N2051 C2043 1.427 . S
N2051 C2049 1.384 . S
H2052 C2058 0.930 1_655 S
H2053 C2062 0.930 . S
H2054 C2067 0.929 . S
H2055 C2065 0.929 . S
H2056 C2060 0.929 . S
H2057 C2066 0.929 . S
C2058 H2052 0.930 1_455 S
C2058 C2059 1.367 . S
C2058 C2066 1.378 . S
C2059 C2058 1.367 . S
C2059 C2067 1.433 . S
C2060 H2056 0.929 . S
C2060 C2062 1.378 . S
C2060 C2064 1.350 . S
C2061 C2064 1.463 . S
C2061 C2066 1.350 . S
C2061 N2069 1.427 . S
C2062 H2053 0.930 . S
C2062 C2060 1.378 . S
C2062 C2063 1.367 . S
C2063 C2062 1.367 . S
C2063 C2065 1.433 . S
C2064 C2060 1.350 . S
C2064 C2061 1.463 . S
C2064 N2068 1.427 . S
C2065 H2055 0.929 . S
C2065 C2063 1.433 . S
C2065 N2068 1.384 . S
C2066 H2057 0.929 . S
C2066 C2058 1.378 . S
C2066 C2061 1.350 . S
C2067 H2054 0.929 . S
C2067 C2059 1.433 . S
C2067 N2069 1.384 . S
N2068 C2064 1.427 . S
N2068 C2065 1.384 . S
N2069 C2061 1.427 . S
N2069 C2067 1.384 . S
H2070 C2076 0.930 . S
H2071 C2080 0.933 1_545 S
H2072 C2085 0.929 . S
H2073 C2083 0.929 . S
H2074 C2078 0.929 . S
H2075 C2084 0.929 . S
C2076 H2070 0.930 . S
C2076 C2077 1.367 . S
C2076 C2084 1.378 . S
C2077 C2076 1.367 . S
C2077 C2085 1.433 . S
C2078 H2074 0.929 . S
C2078 C2080 1.378 . S
C2078 C2082 1.350 . S
C2079 C2082 1.463 . S
C2079 C2084 1.350 . S
C2079 N2087 1.427 . S
C2080 H2071 0.933 1_565 S
C2080 C2078 1.378 . S
C2080 C2081 1.364 . S
C2081 C2080 1.364 . S
C2081 C2083 1.433 . S
C2082 C2078 1.350 . S
C2082 C2079 1.463 . S
C2082 N2086 1.427 . S
C2083 H2073 0.929 . S
C2083 C2081 1.433 . S
C2083 N2086 1.384 . S
C2084 H2075 0.929 . S
C2084 C2076 1.378 . S
C2084 C2079 1.350 . S
C2085 H2072 0.929 . S
C2085 C2077 1.433 . S
C2085 N2087 1.384 . S
N2086 C2082 1.427 . S
N2086 C2083 1.384 . S
N2087 C2079 1.427 . S
N2087 C2085 1.384 . S
H2088 C2094 0.930 . S
H2089 C2098 0.930 . S
H2090 C2103 0.929 . S
H2091 C2101 0.929 . S
H2092 C2096 0.929 . S
H2093 C2102 0.929 . S
C2094 H2088 0.930 . S
C2094 C2095 1.367 1_455 S
C2094 C2102 1.378 . S
C2095 C2094 1.367 1_655 S
C2095 C2103 1.433 . S
C2096 H2092 0.929 . S
C2096 C2098 1.378 . S
C2096 C2100 1.350 . S
C2097 C2100 1.463 . S
C2097 C2102 1.350 . S
C2097 N2105 1.427 . S
C2098 H2089 0.930 . S
C2098 C2096 1.378 . S
C2098 C2099 1.367 . S
C2099 C2098 1.367 . S
C2099 C2101 1.433 . S
C2100 C2096 1.350 . S
C2100 C2097 1.463 . S
C2100 N2104 1.427 . S
C2101 H2091 0.929 . S
C2101 C2099 1.433 . S
C2101 N2104 1.384 . S
C2102 H2093 0.929 . S
C2102 C2094 1.378 . S
C2102 C2097 1.350 . S
C2103 H2090 0.929 . S
C2103 C2095 1.433 . S
C2103 N2105 1.384 1_655 S
N2104 C2100 1.427 . S
N2104 C2101 1.384 . S
N2105 C2097 1.427 . S
N2105 C2103 1.384 1_455 S
H2106 C2112 0.930 . S
H2107 C2116 0.930 . S
H2108 C2121 0.929 . S
H2109 C2119 0.929 . S
H2110 C2114 0.929 . S
H2111 C2120 0.929 . S
C2112 H2106 0.930 . S
C2112 C2113 1.367 . S
C2112 C2120 1.378 . S
C2113 C2112 1.367 . S
C2113 C2121 1.433 . S
C2114 H2110 0.929 . S
C2114 C2116 1.378 . S
C2114 C2118 1.350 . S
C2115 C2118 1.463 . S
C2115 C2120 1.350 . S
C2115 N2123 1.427 . S
C2116 H2107 0.930 . S
C2116 C2114 1.378 . S
C2116 C2117 1.367 . S
C2117 C2116 1.367 . S
C2117 C2119 1.433 . S
C2118 C2114 1.350 . S
C2118 C2115 1.463 . S
C2118 N2122 1.427 . S
C2119 H2109 0.929 . S
C2119 C2117 1.433 . S
C2119 N2122 1.384 . S
C2120 H2111 0.929 . S
C2120 C2112 1.378 . S
C2120 C2115 1.350 . S
C2121 H2108 0.929 . S
C2121 C2113 1.433 . S
C2121 N2123 1.384 . S
N2122 C2118 1.427 . S
N2122 C2119 1.384 . S
N2123 C2115 1.427 . S
N2123 C2121 1.384 . S
H2124 C2130 0.930 . S
H2125 C2134 0.930 . S
H2126 C2139 0.929 . S
H2127 C2137 0.929 . S
H2128 C2132 0.929 . S
H2129 C2138 0.929 . S
C2130 H2124 0.930 . S
C2130 C2131 1.367 1_565 S
C2130 C2138 1.378 1_565 S
C2131 C2130 1.367 1_545 S
C2131 C2139 1.433 . S
C2132 H2128 0.929 . S
C2132 C2134 1.378 . S
C2132 C2136 1.350 . S
C2133 C2136 1.463 . S
C2133 C2138 1.350 . S
C2133 N2141 1.427 . S
C2134 H2125 0.930 . S
C2134 C2132 1.378 . S
C2134 C2135 1.367 . S
C2135 C2134 1.367 . S
C2135 C2137 1.433 . S
C2136 C2132 1.350 . S
C2136 C2133 1.463 . S
C2136 N2140 1.427 . S
C2137 H2127 0.929 . S
C2137 C2135 1.433 . S
C2137 N2140 1.384 . S
C2138 H2129 0.929 . S
C2138 C2130 1.378 1_545 S
C2138 C2133 1.350 . S
C2139 H2126 0.929 . S
C2139 C2131 1.433 . S
C2139 N2141 1.384 . S
N2140 C2136 1.427 . S
N2140 C2137 1.384 . S
N2141 C2133 1.427 . S
N2141 C2139 1.384 . S
H2142 C2148 0.930 . S
H2143 C2152 0.930 . S
H2144 C2157 0.929 . S
H2145 C2155 0.929 . S
H2146 C2150 0.929 . S
H2147 C2156 0.929 . S
C2148 H2142 0.930 . S
C2148 C2149 1.367 . S
C2148 C2156 1.378 . S
C2149 C2148 1.367 . S
C2149 C2157 1.433 . S
C2150 H2146 0.929 . S
C2150 C2152 1.378 1_655 S
C2150 C2154 1.350 . S
C2151 C2154 1.463 . S
C2151 C2156 1.350 . S
C2151 N2159 1.427 . S
C2152 H2143 0.930 . S
C2152 C2150 1.378 1_455 S
C2152 C2153 1.367 . S
C2153 C2152 1.367 . S
C2153 C2155 1.433 1_455 S
C2154 C2150 1.350 . S
C2154 C2151 1.463 . S
C2154 N2158 1.427 . S
C2155 H2145 0.929 . S
C2155 C2153 1.433 1_655 S
C2155 N2158 1.384 . S
C2156 H2147 0.929 . S
C2156 C2148 1.378 . S
C2156 C2151 1.350 . S
C2157 H2144 0.929 . S
C2157 C2149 1.433 . S
C2157 N2159 1.384 . S
N2158 C2154 1.427 . S
N2158 C2155 1.384 . S
N2159 C2151 1.427 . S
N2159 C2157 1.384 . S
H2160 C2166 0.930 . S
H2161 C2170 0.930 . S
H2162 C2175 0.929 . S
H2163 C2173 0.929 . S
H2164 C2168 0.929 . S
H2165 C2174 0.929 . S
C2166 H2160 0.930 . S
C2166 C2167 1.367 . S
C2166 C2174 1.378 . S
C2167 C2166 1.367 . S
C2167 C2175 1.433 . S
C2168 H2164 0.929 . S
C2168 C2170 1.378 . S
C2168 C2172 1.350 . S
C2169 C2172 1.463 . S
C2169 C2174 1.350 . S
C2169 N2177 1.427 . S
C2170 H2161 0.930 . S
C2170 C2168 1.378 . S
C2170 C2171 1.367 . S
C2171 C2170 1.367 . S
C2171 C2173 1.433 . S
C2172 C2168 1.350 . S
C2172 C2169 1.463 . S
C2172 N2176 1.427 . S
C2173 H2163 0.929 . S
C2173 C2171 1.433 . S
C2173 N2176 1.384 . S
C2174 H2165 0.929 . S
C2174 C2166 1.378 . S
C2174 C2169 1.350 . S
C2175 H2162 0.929 . S
C2175 C2167 1.433 . S
C2175 N2177 1.384 . S
N2176 C2172 1.427 . S
N2176 C2173 1.384 . S
N2177 C2169 1.427 . S
N2177 C2175 1.384 . S
H2178 C2184 0.930 . S
H2179 C2188 0.930 . S
H2180 C2193 0.929 . S
H2181 C2191 0.929 . S
H2182 C2186 0.929 . S
H2183 C2192 0.929 . S
C2184 H2178 0.930 . S
C2184 C2185 1.367 . S
C2184 C2192 1.378 . S
C2185 C2184 1.367 . S
C2185 C2193 1.433 . S
C2186 H2182 0.929 . S
C2186 C2188 1.378 . S
C2186 C2190 1.350 . S
C2187 C2190 1.463 . S
C2187 C2192 1.350 . S
C2187 N2195 1.427 . S
C2188 H2179 0.930 . S
C2188 C2186 1.378 . S
C2188 C2189 1.367 . S
C2189 C2188 1.367 . S
C2189 C2191 1.433 . S
C2190 C2186 1.350 . S
C2190 C2187 1.463 . S
C2190 N2194 1.427 . S
C2191 H2181 0.929 . S
C2191 C2189 1.433 . S
C2191 N2194 1.384 . S
C2192 H2183 0.929 . S
C2192 C2184 1.378 . S
C2192 C2187 1.350 . S
C2193 H2180 0.929 . S
C2193 C2185 1.433 . S
C2193 N2195 1.384 . S
N2194 C2190 1.427 . S
N2194 C2191 1.384 . S
N2195 C2187 1.427 . S
N2195 C2193 1.384 . S
H2196 C2202 0.930 1_565 S
H2197 C2206 0.930 . S
H2198 C2211 0.929 . S
H2199 C2209 0.929 . S
H2200 C2204 0.929 . S
H2201 C2210 0.929 . S
C2202 H2196 0.930 1_545 S
C2202 C2203 1.367 . S
C2202 C2210 1.378 . S
C2203 C2202 1.367 . S
C2203 C2211 1.433 . S
C2204 H2200 0.929 . S
C2204 C2206 1.378 . S
C2204 C2208 1.350 . S
C2205 C2208 1.463 . S
C2205 C2210 1.350 . S
C2205 N2213 1.427 . S
C2206 H2197 0.930 . S
C2206 C2204 1.378 . S
C2206 C2207 1.367 . S
C2207 C2206 1.367 . S
C2207 C2209 1.433 . S
C2208 C2204 1.350 . S
C2208 C2205 1.463 . S
C2208 N2212 1.427 . S
C2209 H2199 0.929 . S
C2209 C2207 1.433 . S
C2209 N2212 1.384 . S
C2210 H2201 0.929 . S
C2210 C2202 1.378 . S
C2210 C2205 1.350 . S
C2211 H2198 0.929 . S
C2211 C2203 1.433 . S
C2211 N2213 1.384 . S
N2212 C2208 1.427 . S
N2212 C2209 1.384 . S
N2213 C2205 1.427 . S
N2213 C2211 1.384 . S
H2214 C2220 0.930 . S
H2215 C2224 0.930 . S
H2216 C2229 0.929 . S
H2217 C2227 0.929 . S
H2218 C2222 0.929 . S
H2219 C2228 0.966 . S
C2220 H2214 0.930 . S
C2220 C2221 1.367 1_455 S
C2220 C2228 1.378 1_455 S
C2221 C2220 1.367 1_655 S
C2221 C2229 1.433 . S
C2222 H2218 0.929 . S
C2222 C2224 1.378 . S
C2222 C2226 1.350 . S
C2223 C2226 1.463 . S
C2223 C2228 1.350 . S
C2223 N2231 1.427 . S
C2224 H2215 0.930 . S
C2224 C2222 1.378 . S
C2224 C2225 1.367 . S
C2225 C2224 1.367 . S
C2225 C2227 1.433 . S
C2226 C2222 1.350 . S
C2226 C2223 1.463 . S
C2226 N2230 1.427 . S
C2227 H2217 0.929 . S
C2227 C2225 1.433 . S
C2227 N2230 1.384 . S
C2228 H2219 0.966 . S
C2228 C2220 1.378 1_655 S
C2228 C2223 1.350 . S
C2229 H2216 0.929 . S
C2229 C2221 1.433 . S
C2229 N2231 1.384 . S
N2230 C2226 1.427 . S
N2230 C2227 1.384 . S
N2231 C2223 1.427 . S
N2231 C2229 1.384 . S
H2232 C2238 0.930 . S
H2233 C2242 0.930 . S
H2234 C2247 0.929 . S
H2235 C2245 0.929 . S
H2236 C2240 0.929 . S
H2237 C2246 0.929 . S
C2238 H2232 0.930 . S
C2238 C2239 1.367 1_554 S
C2238 C2246 1.378 . S
C2239 C2238 1.367 1_556 S
C2239 C2247 1.433 . S
C2240 H2236 0.929 . S
C2240 C2242 1.378 . S
C2240 C2244 1.350 . S
C2241 C2244 1.463 . S
C2241 C2246 1.350 1_556 S
C2241 N2249 1.427 . S
C2242 H2233 0.930 . S
C2242 C2240 1.378 . S
C2242 C2243 1.367 . S
C2243 C2242 1.367 . S
C2243 C2245 1.433 1_556 S
C2244 C2240 1.350 . S
C2244 C2241 1.463 . S
C2244 N2248 1.427 1_556 S
C2245 H2235 0.929 . S
C2245 C2243 1.433 1_554 S
C2245 N2248 1.384 . S
C2246 H2237 0.929 . S
C2246 C2238 1.378 . S
C2246 C2241 1.350 1_554 S
C2247 H2234 0.929 . S
C2247 C2239 1.433 . S
C2247 N2249 1.384 . S
N2248 C2244 1.427 1_554 S
N2248 C2245 1.384 . S
N2249 C2241 1.427 . S
N2249 C2247 1.384 . S
H2250 C2256 0.930 . S
H2251 C2260 0.930 . S
H2252 C2265 0.929 . S
H2253 C2263 0.929 . S
H2254 C2258 0.929 . S
H2255 C2264 0.929 . S
C2256 H2250 0.930 . S
C2256 C2257 1.367 . S
C2256 C2264 1.378 . S
C2257 C2256 1.367 . S
C2257 C2265 1.433 1_556 S
C2258 H2254 0.929 . S
C2258 C2260 1.378 . S
C2258 C2262 1.350 1_554 S
C2259 C2262 1.463 . S
C2259 C2264 1.350 . S
C2259 N2267 1.427 1_556 S
C2260 H2251 0.930 . S
C2260 C2258 1.378 . S
C2260 C2261 1.367 1_554 S
C2261 C2260 1.367 1_556 S
C2261 C2263 1.433 . S
C2262 C2258 1.350 1_556 S
C2262 C2259 1.463 . S
C2262 N2266 1.427 . S
C2263 H2253 0.929 . S
C2263 C2261 1.433 . S
C2263 N2266 1.384 . S
C2264 H2255 0.929 . S
C2264 C2256 1.378 . S
C2264 C2259 1.350 . S
C2265 H2252 0.929 . S
C2265 C2257 1.433 1_554 S
C2265 N2267 1.384 . S
N2266 C2262 1.427 . S
N2266 C2263 1.384 . S
N2267 C2259 1.427 1_554 S
N2267 C2265 1.384 . S
H2268 C2274 0.930 . S
H2269 C2278 0.930 . S
H2270 C2283 0.929 . S
H2271 C2281 0.929 . S
H2272 C2276 0.929 . S
H2273 C2282 0.929 . S
C2274 H2268 0.930 . S
C2274 C2275 1.367 1_554 S
C2274 C2282 1.378 . S
C2275 C2274 1.367 1_556 S
C2275 C2283 1.433 . S
C2276 H2272 0.929 . S
C2276 C2278 1.378 . S
C2276 C2280 1.350 . S
C2277 C2280 1.463 . S
C2277 C2282 1.350 1_556 S
C2277 N2285 1.427 . S
C2278 H2269 0.930 . S
C2278 C2276 1.378 . S
C2278 C2279 1.367 . S
C2279 C2278 1.367 . S
C2279 C2281 1.433 1_556 S
C2280 C2276 1.350 . S
C2280 C2277 1.463 . S
C2280 N2284 1.427 1_556 S
C2281 H2271 0.929 . S
C2281 C2279 1.433 1_554 S
C2281 N2284 1.384 . S
C2282 H2273 0.929 . S
C2282 C2274 1.378 . S
C2282 C2277 1.350 1_554 S
C2283 H2270 0.929 . S
C2283 C2275 1.433 . S
C2283 N2285 1.384 . S
N2284 C2280 1.427 1_554 S
N2284 C2281 1.384 . S
N2285 C2277 1.427 . S
N2285 C2283 1.384 . S
H2286 C2292 0.930 . S
H2287 C2296 0.930 . S
H2288 C2301 0.929 . S
H2289 C2299 0.929 . S
H2290 C2294 0.929 . S
H2291 C2300 0.929 . S
C2292 H2286 0.930 . S
C2292 C2293 1.367 . S
C2292 C2300 1.378 . S
C2293 C2292 1.367 . S
C2293 C2301 1.433 1_554 S
C2294 H2290 0.929 . S
C2294 C2296 1.378 . S
C2294 C2298 1.350 1_556 S
C2295 C2298 1.463 . S
C2295 C2300 1.350 . S
C2295 N2303 1.427 1_554 S
C2296 H2287 0.930 . S
C2296 C2294 1.378 . S
C2296 C2297 1.367 1_556 S
C2297 C2296 1.367 1_554 S
C2297 C2299 1.433 . S
C2298 C2294 1.350 1_554 S
C2298 C2295 1.463 . S
C2298 N2302 1.427 . S
C2299 H2289 0.929 . S
C2299 C2297 1.433 . S
C2299 N2302 1.384 . S
C2300 H2291 0.929 . S
C2300 C2292 1.378 . S
C2300 C2295 1.350 . S
C2301 H2288 0.929 . S
C2301 C2293 1.433 1_556 S
C2301 N2303 1.384 . S
N2302 C2298 1.427 . S
N2302 C2299 1.384 . S
N2303 C2295 1.427 1_556 S
N2303 C2301 1.384 . S
H2304 C2310 0.930 . S
H2305 C2314 0.930 . S
H2306 C2319 0.929 . S
H2307 C2317 0.929 . S
H2308 C2312 0.929 . S
H2309 C2318 0.929 . S
C2310 H2304 0.930 . S
C2310 C2311 1.367 1_556 S
C2310 C2318 1.378 . S
C2311 C2310 1.367 1_554 S
C2311 C2319 1.433 . S
C2312 H2308 0.929 . S
C2312 C2314 1.378 . S
C2312 C2316 1.350 . S
C2313 C2316 1.463 . S
C2313 C2318 1.350 1_554 S
C2313 N2321 1.427 . S
C2314 H2305 0.930 . S
C2314 C2312 1.378 . S
C2314 C2315 1.367 . S
C2315 C2314 1.367 . S
C2315 C2317 1.433 1_554 S
C2316 C2312 1.350 . S
C2316 C2313 1.463 . S
C2316 N2320 1.427 1_554 S
C2317 H2307 0.929 . S
C2317 C2315 1.433 1_556 S
C2317 N2320 1.384 . S
C2318 H2309 0.929 . S
C2318 C2310 1.378 . S
C2318 C2313 1.350 1_556 S
C2319 H2306 0.929 . S
C2319 C2311 1.433 . S
C2319 N2321 1.384 . S
N2320 C2316 1.427 1_556 S
N2320 C2317 1.384 . S
N2321 C2313 1.427 . S
N2321 C2319 1.384 . S
H2322 C2328 0.930 . S
H2323 C2332 0.930 . S
H2324 C2337 0.929 . S
H2325 C2335 0.929 . S
H2326 C2330 0.929 . S
H2327 C2336 0.929 . S
C2328 H2322 0.930 . S
C2328 C2329 1.367 . S
C2328 C2336 1.378 . S
C2329 C2328 1.367 . S
C2329 C2337 1.433 . S
C2330 H2326 0.929 . S
C2330 C2332 1.378 . S
C2330 C2334 1.350 . S
C2331 C2334 1.463 . S
C2331 C2336 1.350 . S
C2331 N2339 1.427 . S
C2332 H2323 0.930 . S
C2332 C2330 1.378 . S
C2332 C2333 1.367 . S
C2333 C2332 1.367 . S
C2333 C2335 1.433 . S
C2334 C2330 1.350 . S
C2334 C2331 1.463 . S
C2334 N2338 1.427 . S
C2335 H2325 0.929 . S
C2335 C2333 1.433 . S
C2335 N2338 1.384 . S
C2336 H2327 0.929 . S
C2336 C2328 1.378 . S
C2336 C2331 1.350 . S
C2337 H2324 0.929 . S
C2337 C2329 1.433 . S
C2337 N2339 1.384 . S
N2338 C2334 1.427 . S
N2338 C2335 1.384 . S
N2339 C2331 1.427 . S
N2339 C2337 1.384 . S
H2340 C2346 0.930 . S
H2341 C2350 0.930 . S
H2342 C2355 0.929 . S
H2343 C2353 0.929 . S
H2344 C2348 0.929 . S
H2345 C2354 0.929 . S
C2346 H2340 0.930 . S
C2346 C2347 1.367 . S
C2346 C2354 1.378 . S
C2347 C2346 1.367 . S
C2347 C2355 1.433 . S
C2348 H2344 0.929 . S
C2348 C2350 1.378 . S
C2348 C2352 1.350 . S
C2349 C2352 1.463 . S
C2349 C2354 1.350 . S
C2349 N2357 1.427 . S
C2350 H2341 0.930 . S
C2350 C2348 1.378 . S
C2350 C2351 1.367 . S
C2351 C2350 1.367 . S
C2351 C2353 1.433 . S
C2352 C2348 1.350 . S
C2352 C2349 1.463 . S
C2352 N2356 1.427 . S
C2353 H2343 0.929 . S
C2353 C2351 1.433 . S
C2353 N2356 1.384 . S
C2354 H2345 0.929 . S
C2354 C2346 1.378 . S
C2354 C2349 1.350 . S
C2355 H2342 0.929 . S
C2355 C2347 1.433 . S
C2355 N2357 1.384 . S
N2356 C2352 1.427 . S
N2356 C2353 1.384 . S
N2357 C2349 1.427 . S
N2357 C2355 1.384 . S
H2358 C2364 0.930 . S
H2359 C2368 0.930 . S
H2360 C2373 0.929 . S
H2361 C2371 0.929 . S
H2362 C2366 0.929 . S
H2363 C2372 0.929 . S
C2364 H2358 0.930 . S
C2364 C2365 1.367 . S
C2364 C2372 1.378 . S
C2365 C2364 1.367 . S
C2365 C2373 1.433 . S
C2366 H2362 0.929 . S
C2366 C2368 1.378 . S
C2366 C2370 1.350 . S
C2367 C2370 1.463 . S
C2367 C2372 1.350 . S
C2367 N2375 1.427 . S
C2368 H2359 0.930 . S
C2368 C2366 1.378 . S
C2368 C2369 1.367 . S
C2369 C2368 1.367 . S
C2369 C2371 1.433 . S
C2370 C2366 1.350 . S
C2370 C2367 1.463 . S
C2370 N2374 1.427 . S
C2371 H2361 0.929 . S
C2371 C2369 1.433 . S
C2371 N2374 1.384 . S
C2372 H2363 0.929 . S
C2372 C2364 1.378 . S
C2372 C2367 1.350 . S
C2373 H2360 0.929 . S
C2373 C2365 1.433 . S
C2373 N2375 1.384 . S
N2374 C2370 1.427 . S
N2374 C2371 1.384 . S
N2375 C2367 1.427 . S
N2375 C2373 1.384 . S
H2376 C2382 0.930 . S
H2377 C2386 0.930 . S
H2378 C2391 0.929 . S
H2379 C2389 0.929 . S
H2380 C2384 0.929 . S
H2381 C2390 0.929 . S
C2382 H2376 0.930 . S
C2382 C2383 1.367 . S
C2382 C2390 1.378 . S
C2383 C2382 1.367 . S
C2383 C2391 1.433 . S
C2384 H2380 0.929 . S
C2384 C2386 1.378 . S
C2384 C2388 1.350 . S
C2385 C2388 1.463 . S
C2385 C2390 1.350 . S
C2385 N2393 1.427 . S
C2386 H2377 0.930 . S
C2386 C2384 1.378 . S
C2386 C2387 1.367 . S
C2387 C2386 1.367 . S
C2387 C2389 1.433 . S
C2388 C2384 1.350 . S
C2388 C2385 1.463 . S
C2388 N2392 1.427 . S
C2389 H2379 0.929 . S
C2389 C2387 1.433 . S
C2389 N2392 1.384 . S
C2390 H2381 0.929 . S
C2390 C2382 1.378 . S
C2390 C2385 1.350 . S
C2391 H2378 0.929 . S
C2391 C2383 1.433 . S
C2391 N2393 1.384 . S
N2392 C2388 1.427 . S
N2392 C2389 1.384 . S
N2393 C2385 1.427 . S
N2393 C2391 1.384 . S
H2394 C2400 0.930 . S
H2395 C2404 0.930 . S
H2396 C2409 0.929 . S
H2397 C2407 0.929 . S
H2398 C2402 0.929 . S
H2399 C2408 0.929 . S
C2400 H2394 0.930 . S
C2400 C2401 1.367 . S
C2400 C2408 1.378 . S
C2401 C2400 1.367 . S
C2401 C2409 1.433 . S
C2402 H2398 0.929 . S
C2402 C2404 1.378 . S
C2402 C2406 1.350 . S
C2403 C2406 1.463 . S
C2403 C2408 1.350 . S
C2403 N2411 1.427 . S
C2404 H2395 0.930 . S
C2404 C2402 1.378 . S
C2404 C2405 1.367 . S
C2405 C2404 1.367 . S
C2405 C2407 1.433 . S
C2406 C2402 1.350 . S
C2406 C2403 1.463 . S
C2406 N2410 1.427 . S
C2407 H2397 0.929 . S
C2407 C2405 1.433 . S
C2407 N2410 1.384 . S
C2408 H2399 0.929 . S
C2408 C2400 1.378 . S
C2408 C2403 1.350 . S
C2409 H2396 0.929 . S
C2409 C2401 1.433 . S
C2409 N2411 1.384 . S
N2410 C2406 1.427 . S
N2410 C2407 1.384 . S
N2411 C2403 1.427 . S
N2411 C2409 1.384 . S
H2412 C2418 0.930 . S
H2413 C2422 0.930 . S
H2414 C2427 0.929 . S
H2415 C2425 0.929 . S
H2416 C2420 0.929 . S
H2417 C2426 0.929 . S
C2418 H2412 0.930 . S
C2418 C2419 1.367 . S
C2418 C2426 1.378 . S
C2419 C2418 1.367 . S
C2419 C2427 1.433 . S
C2420 H2416 0.929 . S
C2420 C2422 1.378 . S
C2420 C2424 1.350 . S
C2421 C2424 1.463 . S
C2421 C2426 1.350 . S
C2421 N2429 1.427 . S
C2422 H2413 0.930 . S
C2422 C2420 1.378 . S
C2422 C2423 1.367 . S
C2423 C2422 1.367 . S
C2423 C2425 1.433 . S
C2424 C2420 1.350 . S
C2424 C2421 1.463 . S
C2424 N2428 1.427 . S
C2425 H2415 0.929 . S
C2425 C2423 1.433 . S
C2425 N2428 1.384 . S
C2426 H2417 0.929 . S
C2426 C2418 1.378 . S
C2426 C2421 1.350 . S
C2427 H2414 0.929 . S
C2427 C2419 1.433 . S
C2427 N2429 1.384 . S
N2428 C2424 1.427 . S
N2428 C2425 1.384 . S
N2429 C2421 1.427 . S
N2429 C2427 1.384 . S
H2430 C2436 0.930 . S
H2431 C2440 0.930 . S
H2432 C2445 0.929 . S
H2433 C2443 0.929 . S
H2434 C2438 0.929 . S
H2435 C2444 0.929 . S
C2436 H2430 0.930 . S
C2436 C2437 1.367 . S
C2436 C2444 1.378 . S
C2437 C2436 1.367 . S
C2437 C2445 1.433 . S
C2438 H2434 0.929 . S
C2438 C2440 1.378 . S
C2438 C2442 1.350 . S
C2439 C2442 1.463 . S
C2439 C2444 1.350 . S
C2439 N2447 1.427 . S
C2440 H2431 0.930 . S
C2440 C2438 1.378 . S
C2440 C2441 1.367 . S
C2441 C2440 1.367 . S
C2441 C2443 1.433 . S
C2442 C2438 1.350 . S
C2442 C2439 1.463 . S
C2442 N2446 1.427 . S
C2443 H2433 0.929 . S
C2443 C2441 1.433 . S
C2443 N2446 1.384 . S
C2444 H2435 0.929 . S
C2444 C2436 1.378 . S
C2444 C2439 1.350 . S
C2445 H2432 0.929 . S
C2445 C2437 1.433 . S
C2445 N2447 1.384 . S
N2446 C2442 1.427 . S
N2446 C2443 1.384 . S
N2447 C2439 1.427 . S
N2447 C2445 1.384 . S
H2448 C2454 0.930 . S
H2449 C2458 0.930 . S
H2450 C2463 0.929 . S
H2451 C2461 0.929 . S
H2452 C2456 0.929 . S
H2453 C2462 0.929 . S
C2454 H2448 0.930 . S
C2454 C2455 1.367 . S
C2454 C2462 1.378 . S
C2455 C2454 1.367 . S
C2455 C2463 1.433 . S
C2456 H2452 0.929 . S
C2456 C2458 1.378 . S
C2456 C2460 1.350 . S
C2457 C2460 1.463 . S
C2457 C2462 1.350 . S
C2457 N2465 1.427 . S
C2458 H2449 0.930 . S
C2458 C2456 1.378 . S
C2458 C2459 1.367 . S
C2459 C2458 1.367 . S
C2459 C2461 1.433 . S
C2460 C2456 1.350 . S
C2460 C2457 1.463 . S
C2460 N2464 1.427 . S
C2461 H2451 0.929 . S
C2461 C2459 1.433 . S
C2461 N2464 1.384 . S
C2462 H2453 0.929 . S
C2462 C2454 1.378 . S
C2462 C2457 1.350 . S
C2463 H2450 0.929 . S
C2463 C2455 1.433 . S
C2463 N2465 1.384 . S
N2464 C2460 1.427 . S
N2464 C2461 1.384 . S
N2465 C2457 1.427 . S
N2465 C2463 1.384 . S
H2466 C2472 0.930 . S
H2467 C2476 0.930 . S
H2468 C2481 0.929 . S
H2469 C2479 0.929 . S
H2470 C2474 0.929 . S
H2471 C2480 0.929 . S
C2472 H2466 0.930 . S
C2472 C2473 1.367 . S
C2472 C2480 1.378 . S
C2473 C2472 1.367 . S
C2473 C2481 1.433 . S
C2474 H2470 0.929 . S
C2474 C2476 1.378 . S
C2474 C2478 1.350 . S
C2475 C2478 1.463 . S
C2475 C2480 1.350 . S
C2475 N2483 1.427 . S
C2476 H2467 0.930 . S
C2476 C2474 1.378 . S
C2476 C2477 1.367 . S
C2477 C2476 1.367 . S
C2477 C2479 1.433 . S
C2478 C2474 1.350 . S
C2478 C2475 1.463 . S
C2478 N2482 1.427 . S
C2479 H2469 0.929 . S
C2479 C2477 1.433 . S
C2479 N2482 1.384 . S
C2480 H2471 0.929 . S
C2480 C2472 1.378 . S
C2480 C2475 1.350 . S
C2481 H2468 0.929 . S
C2481 C2473 1.433 . S
C2481 N2483 1.384 . S
N2482 C2478 1.427 . S
N2482 C2479 1.384 . S
N2483 C2475 1.427 . S
N2483 C2481 1.384 . S
H2484 C2490 0.930 . S
H2485 C2494 0.930 . S
H2486 C2499 0.929 . S
H2487 C2497 0.929 . S
H2488 C2492 0.929 . S
H2489 C2498 0.929 . S
C2490 H2484 0.930 . S
C2490 C2491 1.367 . S
C2490 C2498 1.378 . S
C2491 C2490 1.367 . S
C2491 C2499 1.433 . S
C2492 H2488 0.929 . S
C2492 C2494 1.378 . S
C2492 C2496 1.350 . S
C2493 C2496 1.463 . S
C2493 C2498 1.350 . S
C2493 N2501 1.427 . S
C2494 H2485 0.930 . S
C2494 C2492 1.378 . S
C2494 C2495 1.367 . S
C2495 C2494 1.367 . S
C2495 C2497 1.433 . S
C2496 C2492 1.350 . S
C2496 C2493 1.463 . S
C2496 N2500 1.427 . S
C2497 H2487 0.929 . S
C2497 C2495 1.433 . S
C2497 N2500 1.384 . S
C2498 H2489 0.929 . S
C2498 C2490 1.378 . S
C2498 C2493 1.350 . S
C2499 H2486 0.929 . S
C2499 C2491 1.433 . S
C2499 N2501 1.384 . S
N2500 C2496 1.427 . S
N2500 C2497 1.384 . S
N2501 C2493 1.427 . S
N2501 C2499 1.384 . S
H2502 C2508 0.930 . S
H2503 C2512 0.930 . S
H2504 C2517 0.929 . S
H2505 C2515 0.929 . S
H2506 C2510 0.929 . S
H2507 C2516 0.929 . S
C2508 H2502 0.930 . S
C2508 C2509 1.367 . S
C2508 C2516 1.378 . S
C2509 C2508 1.367 . S
C2509 C2517 1.433 . S
C2510 H2506 0.929 . S
C2510 C2512 1.378 . S
C2510 C2514 1.350 . S
C2511 C2514 1.463 . S
C2511 C2516 1.350 . S
C2511 N2519 1.427 . S
C2512 H2503 0.930 . S
C2512 C2510 1.378 . S
C2512 C2513 1.367 . S
C2513 C2512 1.367 . S
C2513 C2515 1.433 . S
C2514 C2510 1.350 . S
C2514 C2511 1.463 . S
C2514 N2518 1.427 . S
C2515 H2505 0.929 . S
C2515 C2513 1.433 . S
C2515 N2518 1.384 . S
C2516 H2507 0.929 . S
C2516 C2508 1.378 . S
C2516 C2511 1.350 . S
C2517 H2504 0.929 . S
C2517 C2509 1.433 . S
C2517 N2519 1.384 . S
N2518 C2514 1.427 . S
N2518 C2515 1.384 . S
N2519 C2511 1.427 . S
N2519 C2517 1.384 . S
H2520 C2526 0.930 . S
H2521 C2530 0.930 . S
H2522 C2535 0.929 . S
H2523 C2533 0.929 . S
H2524 C2528 0.929 . S
H2525 C2534 0.929 . S
C2526 H2520 0.930 . S
C2526 C2527 1.367 . S
C2526 C2534 1.378 . S
C2527 C2526 1.367 . S
C2527 C2535 1.433 . S
C2528 H2524 0.929 . S
C2528 C2530 1.378 . S
C2528 C2532 1.350 . S
C2529 C2532 1.463 . S
C2529 C2534 1.350 . S
C2529 N2537 1.427 . S
C2530 H2521 0.930 . S
C2530 C2528 1.378 . S
C2530 C2531 1.367 . S
C2531 C2530 1.367 . S
C2531 C2533 1.433 . S
C2532 C2528 1.350 . S
C2532 C2529 1.463 . S
C2532 N2536 1.427 . S
C2533 H2523 0.929 . S
C2533 C2531 1.433 . S
C2533 N2536 1.384 . S
C2534 H2525 0.929 . S
C2534 C2526 1.378 . S
C2534 C2529 1.350 . S
C2535 H2522 0.929 . S
C2535 C2527 1.433 . S
C2535 N2537 1.384 . S
N2536 C2532 1.427 . S
N2536 C2533 1.384 . S
N2537 C2529 1.427 . S
N2537 C2535 1.384 . S
H2538 C2544 0.930 . S
H2539 C2548 0.930 . S
H2540 C2553 0.929 . S
H2541 C2551 0.929 . S
H2542 C2546 0.929 . S
H2543 C2552 0.929 . S
C2544 H2538 0.930 . S
C2544 C2545 1.367 . S
C2544 C2552 1.378 . S
C2545 C2544 1.367 . S
C2545 C2553 1.433 . S
C2546 H2542 0.929 . S
C2546 C2548 1.378 . S
C2546 C2550 1.350 . S
C2547 C2550 1.463 . S
C2547 C2552 1.350 . S
C2547 N2555 1.427 . S
C2548 H2539 0.930 . S
C2548 C2546 1.378 . S
C2548 C2549 1.367 . S
C2549 C2548 1.367 . S
C2549 C2551 1.433 . S
C2550 C2546 1.350 . S
C2550 C2547 1.463 . S
C2550 N2554 1.427 . S
C2551 H2541 0.929 . S
C2551 C2549 1.433 . S
C2551 N2554 1.384 . S
C2552 H2543 0.929 . S
C2552 C2544 1.378 . S
C2552 C2547 1.350 . S
C2553 H2540 0.929 . S
C2553 C2545 1.433 . S
C2553 N2555 1.384 . S
N2554 C2550 1.427 . S
N2554 C2551 1.384 . S
N2555 C2547 1.427 . S
N2555 C2553 1.384 . S
H2556 C2562 0.930 . S
H2557 C2566 0.930 . S
H2558 C2571 0.929 . S
H2559 C2569 0.929 . S
H2560 C2564 0.929 . S
H2561 C2570 0.929 . S
C2562 H2556 0.930 . S
C2562 C2563 1.367 . S
C2562 C2570 1.378 . S
C2563 C2562 1.367 . S
C2563 C2571 1.433 . S
C2564 H2560 0.929 . S
C2564 C2566 1.378 . S
C2564 C2568 1.350 . S
C2565 C2568 1.463 . S
C2565 C2570 1.350 . S
C2565 N2573 1.427 . S
C2566 H2557 0.930 . S
C2566 C2564 1.378 . S
C2566 C2567 1.367 . S
C2567 C2566 1.367 . S
C2567 C2569 1.433 . S
C2568 C2564 1.350 . S
C2568 C2565 1.463 . S
C2568 N2572 1.427 . S
C2569 H2559 0.929 . S
C2569 C2567 1.433 . S
C2569 N2572 1.384 . S
C2570 H2561 0.929 . S
C2570 C2562 1.378 . S
C2570 C2565 1.350 . S
C2571 H2558 0.929 . S
C2571 C2563 1.433 . S
C2571 N2573 1.384 . S
N2572 C2568 1.427 . S
N2572 C2569 1.384 . S
N2573 C2565 1.427 . S
N2573 C2571 1.384 . S
H2574 C2580 0.930 . S
H2575 C2584 0.930 . S
H2576 C2589 0.929 . S
H2577 C2587 0.929 . S
H2578 C2582 0.929 . S
H2579 C2588 0.929 . S
C2580 H2574 0.930 . S
C2580 C2581 1.367 . S
C2580 C2588 1.378 . S
C2581 C2580 1.367 . S
C2581 C2589 1.433 . S
C2582 H2578 0.929 . S
C2582 C2584 1.378 . S
C2582 C2586 1.350 . S
C2583 C2586 1.463 . S
C2583 C2588 1.350 . S
C2583 N2591 1.427 . S
C2584 H2575 0.930 . S
C2584 C2582 1.378 . S
C2584 C2585 1.367 . S
C2585 C2584 1.367 . S
C2585 C2587 1.433 . S
C2586 C2582 1.350 . S
C2586 C2583 1.463 . S
C2586 N2590 1.427 . S
C2587 H2577 0.929 . S
C2587 C2585 1.433 . S
C2587 N2590 1.384 . S
C2588 H2579 0.929 . S
C2588 C2580 1.378 . S
C2588 C2583 1.350 . S
C2589 H2576 0.929 . S
C2589 C2581 1.433 . S
C2589 N2591 1.384 . S
N2590 C2586 1.427 . S
N2590 C2587 1.384 . S
N2591 C2583 1.427 . S
N2591 C2589 1.384 . S
H2592 C2598 0.930 . S
H2593 C2602 0.930 . S
H2594 C2607 0.929 . S
H2595 C2605 0.929 . S
H2596 C2600 0.929 . S
H2597 C2606 0.929 . S
C2598 H2592 0.930 . S
C2598 C2599 1.367 . S
C2598 C2606 1.378 . S
C2599 C2598 1.367 . S
C2599 C2607 1.433 . S
C2600 H2596 0.929 . S
C2600 C2602 1.378 . S
C2600 C2604 1.350 . S
C2601 C2604 1.463 . S
C2601 C2606 1.350 . S
C2601 N2609 1.427 . S
C2602 H2593 0.930 . S
C2602 C2600 1.378 . S
C2602 C2603 1.367 . S
C2603 C2602 1.367 . S
C2603 C2605 1.433 . S
C2604 C2600 1.350 . S
C2604 C2601 1.463 . S
C2604 N2608 1.427 . S
C2605 H2595 0.929 . S
C2605 C2603 1.433 . S
C2605 N2608 1.384 . S
C2606 H2597 0.929 . S
C2606 C2598 1.378 . S
C2606 C2601 1.350 . S
C2607 H2594 0.929 . S
C2607 C2599 1.433 . S
C2607 N2609 1.384 . S
N2608 C2604 1.427 . S
N2608 C2605 1.384 . S
N2609 C2601 1.427 . S
N2609 C2607 1.384 . S
H2610 C2616 0.930 . S
H2611 C2620 0.930 . S
H2612 C2625 0.929 . S
H2613 C2623 0.929 . S
H2614 C2618 0.929 . S
H2615 C2624 0.929 . S
C2616 H2610 0.930 . S
C2616 C2617 1.367 . S
C2616 C2624 1.378 . S
C2617 C2616 1.367 . S
C2617 C2625 1.433 . S
C2618 H2614 0.929 . S
C2618 C2620 1.378 . S
C2618 C2622 1.350 . S
C2619 C2622 1.463 . S
C2619 C2624 1.350 . S
C2619 N2627 1.427 . S
C2620 H2611 0.930 . S
C2620 C2618 1.378 . S
C2620 C2621 1.367 . S
C2621 C2620 1.367 . S
C2621 C2623 1.433 . S
C2622 C2618 1.350 . S
C2622 C2619 1.463 . S
C2622 N2626 1.427 . S
C2623 H2613 0.929 . S
C2623 C2621 1.433 . S
C2623 N2626 1.384 . S
C2624 H2615 0.929 . S
C2624 C2616 1.378 . S
C2624 C2619 1.350 . S
C2625 H2612 0.929 . S
C2625 C2617 1.433 . S
C2625 N2627 1.384 . S
N2626 C2622 1.427 . S
N2626 C2623 1.384 . S
N2627 C2619 1.427 . S
N2627 C2625 1.384 . S
H2628 C2634 0.930 . S
H2629 C2638 0.930 . S
H2630 C2643 0.929 . S
H2631 C2641 0.929 . S
H2632 C2636 0.929 . S
H2633 C2642 0.929 . S
C2634 H2628 0.930 . S
C2634 C2635 1.367 . S
C2634 C2642 1.378 . S
C2635 C2634 1.367 . S
C2635 C2643 1.433 . S
C2636 H2632 0.929 . S
C2636 C2638 1.378 . S
C2636 C2640 1.350 . S
C2637 C2640 1.463 . S
C2637 C2642 1.350 . S
C2637 N2645 1.427 . S
C2638 H2629 0.930 . S
C2638 C2636 1.378 . S
C2638 C2639 1.367 . S
C2639 C2638 1.367 . S
C2639 C2641 1.433 . S
C2640 C2636 1.350 . S
C2640 C2637 1.463 . S
C2640 N2644 1.427 . S
C2641 H2631 0.929 . S
C2641 C2639 1.433 . S
C2641 N2644 1.384 . S
C2642 H2633 0.929 . S
C2642 C2634 1.378 . S
C2642 C2637 1.350 . S
C2643 H2630 0.929 . S
C2643 C2635 1.433 . S
C2643 N2645 1.384 . S
N2644 C2640 1.427 . S
N2644 C2641 1.384 . S
N2645 C2637 1.427 . S
N2645 C2643 1.384 . S
H2646 C2652 0.930 . S
H2647 C2656 0.930 . S
H2648 C2661 0.929 . S
H2649 C2659 0.929 . S
H2650 C2654 0.929 . S
H2651 C2660 0.929 . S
C2652 H2646 0.930 . S
C2652 C2653 1.367 . S
C2652 C2660 1.378 . S
C2653 C2652 1.367 . S
C2653 C2661 1.433 . S
C2654 H2650 0.929 . S
C2654 C2656 1.378 . S
C2654 C2658 1.350 . S
C2655 C2658 1.463 . S
C2655 C2660 1.350 . S
C2655 N2663 1.427 . S
C2656 H2647 0.930 . S
C2656 C2654 1.378 . S
C2656 C2657 1.367 . S
C2657 C2656 1.367 . S
C2657 C2659 1.433 . S
C2658 C2654 1.350 . S
C2658 C2655 1.463 . S
C2658 N2662 1.427 . S
C2659 H2649 0.929 . S
C2659 C2657 1.433 . S
C2659 N2662 1.384 . S
C2660 H2651 0.929 . S
C2660 C2652 1.378 . S
C2660 C2655 1.350 . S
C2661 H2648 0.929 . S
C2661 C2653 1.433 . S
C2661 N2663 1.384 . S
N2662 C2658 1.427 . S
N2662 C2659 1.384 . S
N2663 C2655 1.427 . S
N2663 C2661 1.384 . S
H2664 C2670 0.930 . S
H2665 C2674 0.930 . S
H2666 C2679 0.929 . S
H2667 C2677 0.929 . S
H2668 C2672 0.929 . S
H2669 C2678 0.929 . S
C2670 H2664 0.930 . S
C2670 C2671 1.367 . S
C2670 C2678 1.378 . S
C2671 C2670 1.367 . S
C2671 C2679 1.433 . S
C2672 H2668 0.929 . S
C2672 C2674 1.378 . S
C2672 C2676 1.350 . S
C2673 C2676 1.463 . S
C2673 C2678 1.350 . S
C2673 N2681 1.427 . S
C2674 H2665 0.930 . S
C2674 C2672 1.378 . S
C2674 C2675 1.367 . S
C2675 C2674 1.367 . S
C2675 C2677 1.433 . S
C2676 C2672 1.350 . S
C2676 C2673 1.463 . S
C2676 N2680 1.427 . S
C2677 H2667 0.929 . S
C2677 C2675 1.433 . S
C2677 N2680 1.384 . S
C2678 H2669 0.929 . S
C2678 C2670 1.378 . S
C2678 C2673 1.350 . S
C2679 H2666 0.929 . S
C2679 C2671 1.433 . S
C2679 N2681 1.384 . S
N2680 C2676 1.427 . S
N2680 C2677 1.384 . S
N2681 C2673 1.427 . S
N2681 C2679 1.384 . S
H2682 C2688 0.930 . S
H2683 C2692 0.930 . S
H2684 C2697 0.929 . S
H2685 C2695 0.929 . S
H2686 C2690 0.929 . S
H2687 C2696 0.929 . S
C2688 H2682 0.930 . S
C2688 C2689 1.367 . S
C2688 C2696 1.378 . S
C2689 C2688 1.367 . S
C2689 C2697 1.433 . S
C2690 H2686 0.929 . S
C2690 C2692 1.378 . S
C2690 C2694 1.350 . S
C2691 C2694 1.463 . S
C2691 C2696 1.350 . S
C2691 N2699 1.427 . S
C2692 H2683 0.930 . S
C2692 C2690 1.378 . S
C2692 C2693 1.367 . S
C2693 C2692 1.367 . S
C2693 C2695 1.433 . S
C2694 C2690 1.350 . S
C2694 C2691 1.463 . S
C2694 N2698 1.427 . S
C2695 H2685 0.929 . S
C2695 C2693 1.433 . S
C2695 N2698 1.384 . S
C2696 H2687 0.929 . S
C2696 C2688 1.378 . S
C2696 C2691 1.350 . S
C2697 H2684 0.929 . S
C2697 C2689 1.433 . S
C2697 N2699 1.384 . S
N2698 C2694 1.427 . S
N2698 C2695 1.384 . S
N2699 C2691 1.427 . S
N2699 C2697 1.384 . S
H2700 C2706 0.930 . S
H2701 C2710 0.930 . S
H2702 C2715 0.929 . S
H2703 C2713 0.929 . S
H2704 C2708 0.929 . S
H2705 C2714 0.929 . S
C2706 H2700 0.930 . S
C2706 C2707 1.367 . S
C2706 C2714 1.378 . S
C2707 C2706 1.367 . S
C2707 C2715 1.433 . S
C2708 H2704 0.929 . S
C2708 C2710 1.378 . S
C2708 C2712 1.350 . S
C2709 C2712 1.463 . S
C2709 C2714 1.350 . S
C2709 N2717 1.427 . S
C2710 H2701 0.930 . S
C2710 C2708 1.378 . S
C2710 C2711 1.367 . S
C2711 C2710 1.367 . S
C2711 C2713 1.433 . S
C2712 C2708 1.350 . S
C2712 C2709 1.463 . S
C2712 N2716 1.427 . S
C2713 H2703 0.929 . S
C2713 C2711 1.433 . S
C2713 N2716 1.384 . S
C2714 H2705 0.929 . S
C2714 C2706 1.378 . S
C2714 C2709 1.350 . S
C2715 H2702 0.929 . S
C2715 C2707 1.433 . S
C2715 N2717 1.384 . S
N2716 C2712 1.427 . S
N2716 C2713 1.384 . S
N2717 C2709 1.427 . S
N2717 C2715 1.384 . S
H2718 C2724 0.930 . S
H2719 C2728 0.930 . S
H2720 C2733 0.929 . S
H2721 C2731 0.929 . S
H2722 C2726 0.929 . S
H2723 C2732 0.929 . S
C2724 H2718 0.930 . S
C2724 C2725 1.367 . S
C2724 C2732 1.378 . S
C2725 C2724 1.367 . S
C2725 C2733 1.433 . S
C2726 H2722 0.929 . S
C2726 C2728 1.378 . S
C2726 C2730 1.350 . S
C2727 C2730 1.463 . S
C2727 C2732 1.350 . S
C2727 N2735 1.427 . S
C2728 H2719 0.930 . S
C2728 C2726 1.378 . S
C2728 C2729 1.367 . S
C2729 C2728 1.367 . S
C2729 C2731 1.433 . S
C2730 C2726 1.350 . S
C2730 C2727 1.463 . S
C2730 N2734 1.427 . S
C2731 H2721 0.929 . S
C2731 C2729 1.433 . S
C2731 N2734 1.384 . S
C2732 H2723 0.929 . S
C2732 C2724 1.378 . S
C2732 C2727 1.350 . S
C2733 H2720 0.929 . S
C2733 C2725 1.433 . S
C2733 N2735 1.384 . S
N2734 C2730 1.427 . S
N2734 C2731 1.384 . S
N2735 C2727 1.427 . S
N2735 C2733 1.384 . S
H2736 C2742 0.930 . S
H2737 C2746 0.930 . S
H2738 C2751 0.929 . S
H2739 C2749 0.929 . S
H2740 C2744 0.929 . S
H2741 C2750 0.929 . S
C2742 H2736 0.930 . S
C2742 C2743 1.367 . S
C2742 C2750 1.378 . S
C2743 C2742 1.367 . S
C2743 C2751 1.433 . S
C2744 H2740 0.929 . S
C2744 C2746 1.378 . S
C2744 C2748 1.350 . S
C2745 C2748 1.463 . S
C2745 C2750 1.350 . S
C2745 N2753 1.427 . S
C2746 H2737 0.930 . S
C2746 C2744 1.378 . S
C2746 C2747 1.367 . S
C2747 C2746 1.367 . S
C2747 C2749 1.433 . S
C2748 C2744 1.350 . S
C2748 C2745 1.463 . S
C2748 N2752 1.427 . S
C2749 H2739 0.929 . S
C2749 C2747 1.433 . S
C2749 N2752 1.384 . S
C2750 H2741 0.929 . S
C2750 C2742 1.378 . S
C2750 C2745 1.350 . S
C2751 H2738 0.929 . S
C2751 C2743 1.433 . S
C2751 N2753 1.384 . S
N2752 C2748 1.427 . S
N2752 C2749 1.384 . S
N2753 C2745 1.427 . S
N2753 C2751 1.384 . S
H2754 C2760 0.930 . S
H2755 C2764 0.930 . S
H2756 C2769 0.929 . S
H2757 C2767 0.929 . S
H2758 C2762 0.929 . S
H2759 C2768 0.929 . S
C2760 H2754 0.930 . S
C2760 C2761 1.367 . S
C2760 C2768 1.378 . S
C2761 C2760 1.367 . S
C2761 C2769 1.433 . S
C2762 H2758 0.929 . S
C2762 C2764 1.378 . S
C2762 C2766 1.350 . S
C2763 C2766 1.463 . S
C2763 C2768 1.350 . S
C2763 N2771 1.427 . S
C2764 H2755 0.930 . S
C2764 C2762 1.378 . S
C2764 C2765 1.367 . S
C2765 C2764 1.367 . S
C2765 C2767 1.433 . S
C2766 C2762 1.350 . S
C2766 C2763 1.463 . S
C2766 N2770 1.427 . S
C2767 H2757 0.929 . S
C2767 C2765 1.433 . S
C2767 N2770 1.384 . S
C2768 H2759 0.929 . S
C2768 C2760 1.378 . S
C2768 C2763 1.350 . S
C2769 H2756 0.929 . S
C2769 C2761 1.433 . S
C2769 N2771 1.384 . S
N2770 C2766 1.427 . S
N2770 C2767 1.384 . S
N2771 C2763 1.427 . S
N2771 C2769 1.384 . S
H2772 C2778 0.930 . S
H2773 C2782 0.930 . S
H2774 C2787 0.929 . S
H2775 C2785 0.929 . S
H2776 C2780 0.929 . S
H2777 C2786 0.929 . S
C2778 H2772 0.930 . S
C2778 C2779 1.367 . S
C2778 C2786 1.378 . S
C2779 C2778 1.367 . S
C2779 C2787 1.433 . S
C2780 H2776 0.929 . S
C2780 C2782 1.378 . S
C2780 C2784 1.350 . S
C2781 C2784 1.463 . S
C2781 C2786 1.350 . S
C2781 N2789 1.427 . S
C2782 H2773 0.930 . S
C2782 C2780 1.378 . S
C2782 C2783 1.367 . S
C2783 C2782 1.367 . S
C2783 C2785 1.433 . S
C2784 C2780 1.350 . S
C2784 C2781 1.463 . S
C2784 N2788 1.427 . S
C2785 H2775 0.929 . S
C2785 C2783 1.433 . S
C2785 N2788 1.384 . S
C2786 H2777 0.929 . S
C2786 C2778 1.378 . S
C2786 C2781 1.350 . S
C2787 H2774 0.929 . S
C2787 C2779 1.433 . S
C2787 N2789 1.384 . S
N2788 C2784 1.427 . S
N2788 C2785 1.384 . S
N2789 C2781 1.427 . S
N2789 C2787 1.384 . S
H2790 C2796 0.930 . S
H2791 C2800 0.930 . S
H2792 C2805 0.929 . S
H2793 C2803 0.929 . S
H2794 C2798 0.929 . S
H2795 C2804 0.929 . S
C2796 H2790 0.930 . S
C2796 C2797 1.367 . S
C2796 C2804 1.378 . S
C2797 C2796 1.367 . S
C2797 C2805 1.433 . S
C2798 H2794 0.929 . S
C2798 C2800 1.378 . S
C2798 C2802 1.350 . S
C2799 C2802 1.463 1_545 S
C2799 C2804 1.350 . S
C2799 N2807 1.427 . S
C2800 H2791 0.930 . S
C2800 C2798 1.378 . S
C2800 C2801 1.367 . S
C2801 C2800 1.367 . S
C2801 C2803 1.433 . S
C2802 C2798 1.350 . S
C2802 C2799 1.463 1_565 S
C2802 N2806 1.427 . S
C2803 H2793 0.929 . S
C2803 C2801 1.433 . S
C2803 N2806 1.384 . S
C2804 H2795 0.929 . S
C2804 C2796 1.378 . S
C2804 C2799 1.350 . S
C2805 H2792 0.929 . S
C2805 C2797 1.433 . S
C2805 N2807 1.384 . S
N2806 C2802 1.427 . S
N2806 C2803 1.384 . S
N2807 C2799 1.427 . S
N2807 C2805 1.384 . S
H2808 C2814 0.930 . S
H2809 C2818 0.930 . S
H2810 C2823 0.929 . S
H2811 C2821 0.929 . S
H2812 C2816 0.923 . S
H2813 C2822 0.929 1_655 S
C2814 H2808 0.930 . S
C2814 C2815 1.367 . S
C2814 C2822 1.378 . S
C2815 C2814 1.367 . S
C2815 C2823 1.433 . S
C2816 H2812 0.923 . S
C2816 C2818 1.380 1_455 S
C2816 C2820 1.353 1_455 S
C2817 C2820 1.463 1_455 S
C2817 C2822 1.350 . S
C2817 N2825 1.427 . S
C2818 H2809 0.930 . S
C2818 C2816 1.380 1_655 S
C2818 C2819 1.367 . S
C2819 C2818 1.367 . S
C2819 C2821 1.433 . S
C2820 C2816 1.353 1_655 S
C2820 C2817 1.463 1_655 S
C2820 N2824 1.427 . S
C2821 H2811 0.929 . S
C2821 C2819 1.433 . S
C2821 N2824 1.384 . S
C2822 H2813 0.929 1_455 S
C2822 C2814 1.378 . S
C2822 C2817 1.350 . S
C2823 H2810 0.929 . S
C2823 C2815 1.433 . S
C2823 N2825 1.384 . S
N2824 C2820 1.427 . S
N2824 C2821 1.384 . S
N2825 C2817 1.427 . S
N2825 C2823 1.384 . S
H2826 C2832 0.930 . S
H2827 C2836 0.930 . S
H2828 C2841 0.929 . S
H2829 C2839 0.929 . S
H2830 C2834 0.929 . S
H2831 C2840 0.929 . S
C2832 H2826 0.930 . S
C2832 C2833 1.367 . S
C2832 C2840 1.378 . S
C2833 C2832 1.367 . S
C2833 C2841 1.433 . S
C2834 H2830 0.929 . S
C2834 C2836 1.378 . S
C2834 C2838 1.350 . S
C2835 C2838 1.463 . S
C2835 C2840 1.350 . S
C2835 N2843 1.427 . S
C2836 H2827 0.930 . S
C2836 C2834 1.378 . S
C2836 C2837 1.367 . S
C2837 C2836 1.367 . S
C2837 C2839 1.433 . S
C2838 C2834 1.350 . S
C2838 C2835 1.463 . S
C2838 N2842 1.427 . S
C2839 H2829 0.929 . S
C2839 C2837 1.433 . S
C2839 N2842 1.384 . S
C2840 H2831 0.929 . S
C2840 C2832 1.378 . S
C2840 C2835 1.350 . S
C2841 H2828 0.929 . S
C2841 C2833 1.433 . S
C2841 N2843 1.384 . S
N2842 C2838 1.427 . S
N2842 C2839 1.384 . S
N2843 C2835 1.427 . S
N2843 C2841 1.384 . S
H2844 C2850 0.930 . S
H2845 C2854 0.930 . S
H2846 C2859 0.929 . S
H2847 C2857 0.929 . S
H2848 C2852 0.929 1_565 S
H2849 C2858 0.929 1_545 S
C2850 H2844 0.930 . S
C2850 C2851 1.367 . S
C2850 C2858 1.378 . S
C2851 C2850 1.367 . S
C2851 C2859 1.433 . S
C2852 H2848 0.929 1_545 S
C2852 C2854 1.378 . S
C2852 C2856 1.350 . S
C2853 C2856 1.463 1_565 S
C2853 C2858 1.350 . S
C2853 N2861 1.427 . S
C2854 H2845 0.930 . S
C2854 C2852 1.378 . S
C2854 C2855 1.367 . S
C2855 C2854 1.367 . S
C2855 C2857 1.433 . S
C2856 C2852 1.350 . S
C2856 C2853 1.463 1_545 S
C2856 N2860 1.427 . S
C2857 H2847 0.929 . S
C2857 C2855 1.433 . S
C2857 N2860 1.384 . S
C2858 H2849 0.929 1_565 S
C2858 C2850 1.378 . S
C2858 C2853 1.350 . S
C2859 H2846 0.929 . S
C2859 C2851 1.433 . S
C2859 N2861 1.384 . S
N2860 C2856 1.427 . S
N2860 C2857 1.384 . S
N2861 C2853 1.427 . S
N2861 C2859 1.384 . S
H2862 C2868 0.930 . S
H2863 C2872 0.952 . S
H2864 C2877 0.929 . S
H2865 C2875 0.929 . S
H2866 C2870 0.929 . S
H2867 C2876 0.926 1_655 S
C2868 H2862 0.930 . S
C2868 C2869 1.367 . S
C2868 C2876 1.379 . S
C2869 C2868 1.367 . S
C2869 C2877 1.433 . S
C2870 H2866 0.929 . S
C2870 C2872 1.391 . S
C2870 C2874 1.371 . S
C2871 C2874 1.474 . S
C2871 C2876 1.351 . S
C2871 N2879 1.427 . S
C2872 H2863 0.952 . S
C2872 C2870 1.391 . S
C2872 C2873 1.332 1_455 S
C2873 C2872 1.332 1_655 S
C2873 C2875 1.433 . S
C2874 C2870 1.371 . S
C2874 C2871 1.474 . S
C2874 N2878 1.394 1_455 S
C2875 H2865 0.929 . S
C2875 C2873 1.433 . S
C2875 N2878 1.384 . S
C2876 H2867 0.926 1_455 S
C2876 C2868 1.379 . S
C2876 C2871 1.351 . S
C2877 H2864 0.929 . S
C2877 C2869 1.433 . S
C2877 N2879 1.384 . S
N2878 C2874 1.394 1_655 S
N2878 C2875 1.384 . S
N2879 C2871 1.427 . S
N2879 C2877 1.384 . S
H2880 C2886 0.930 . S
H2881 C2890 0.930 . S
H2882 C2895 0.929 . S
H2883 C2893 0.929 . S
H2884 C2888 0.929 . S
H2885 C2894 0.929 . S
C2886 H2880 0.930 . S
C2886 C2887 1.367 . S
C2886 C2894 1.378 . S
C2887 C2886 1.367 . S
C2887 C2895 1.433 . S
C2888 H2884 0.929 . S
C2888 C2890 1.378 . S
C2888 C2892 1.350 . S
C2889 C2892 1.463 . S
C2889 C2894 1.350 . S
C2889 N2897 1.427 . S
C2890 H2881 0.930 . S
C2890 C2888 1.378 . S
C2890 C2891 1.367 . S
C2891 C2890 1.367 . S
C2891 C2893 1.433 . S
C2892 C2888 1.350 . S
C2892 C2889 1.463 . S
C2892 N2896 1.427 . S
C2893 H2883 0.929 . S
C2893 C2891 1.433 . S
C2893 N2896 1.384 . S
C2894 H2885 0.929 . S
C2894 C2886 1.378 . S
C2894 C2889 1.350 . S
C2895 H2882 0.929 . S
C2895 C2887 1.433 . S
C2895 N2897 1.384 . S
N2896 C2892 1.427 . S
N2896 C2893 1.384 . S
N2897 C2889 1.427 . S
N2897 C2895 1.384 . S
H2898 C2904 0.930 . S
H2899 C2908 0.930 . S
H2900 C2913 0.929 . S
H2901 C2911 0.929 . S
H2902 C2906 0.929 . S
H2903 C2912 0.929 . S
C2904 H2898 0.930 . S
C2904 C2905 1.367 . S
C2904 C2912 1.378 . S
C2905 C2904 1.367 . S
C2905 C2913 1.433 . S
C2906 H2902 0.929 . S
C2906 C2908 1.378 . S
C2906 C2910 1.350 . S
C2907 C2910 1.463 . S
C2907 C2912 1.350 . S
C2907 N2915 1.427 . S
C2908 H2899 0.930 . S
C2908 C2906 1.378 . S
C2908 C2909 1.367 . S
C2909 C2908 1.367 . S
C2909 C2911 1.433 . S
C2910 C2906 1.350 . S
C2910 C2907 1.463 . S
C2910 N2914 1.427 . S
C2911 H2901 0.929 . S
C2911 C2909 1.433 . S
C2911 N2914 1.384 . S
C2912 H2903 0.929 . S
C2912 C2904 1.378 . S
C2912 C2907 1.350 . S
C2913 H2900 0.929 . S
C2913 C2905 1.433 . S
C2913 N2915 1.384 . S
N2914 C2910 1.427 . S
N2914 C2911 1.384 . S
N2915 C2907 1.427 . S
N2915 C2913 1.384 . S
H2916 C2922 0.930 . S
H2917 C2926 0.930 . S
H2918 C2931 0.929 . S
H2919 C2929 0.929 . S
H2920 C2924 0.929 . S
H2921 C2930 0.929 . S
C2922 H2916 0.930 . S
C2922 C2923 1.367 . S
C2922 C2930 1.378 . S
C2923 C2922 1.367 . S
C2923 C2931 1.433 . S
C2924 H2920 0.929 . S
C2924 C2926 1.378 . S
C2924 C2928 1.350 . S
C2925 C2928 1.463 . S
C2925 C2930 1.350 . S
C2925 N2933 1.427 . S
C2926 H2917 0.930 . S
C2926 C2924 1.378 . S
C2926 C2927 1.367 . S
C2927 C2926 1.367 . S
C2927 C2929 1.433 . S
C2928 C2924 1.350 . S
C2928 C2925 1.463 . S
C2928 N2932 1.427 . S
C2929 H2919 0.929 . S
C2929 C2927 1.433 . S
C2929 N2932 1.384 . S
C2930 H2921 0.929 . S
C2930 C2922 1.378 . S
C2930 C2925 1.350 . S
C2931 H2918 0.929 . S
C2931 C2923 1.433 . S
C2931 N2933 1.384 . S
N2932 C2928 1.427 . S
N2932 C2929 1.384 . S
N2933 C2925 1.427 . S
N2933 C2931 1.384 . S
H2934 C2940 0.930 . S
H2935 C2944 0.930 . S
H2936 C2949 0.929 . S
H2937 C2947 0.929 . S
H2938 C2942 0.929 . S
H2939 C2948 0.929 . S
C2940 H2934 0.930 . S
C2940 C2941 1.367 . S
C2940 C2948 1.378 . S
C2941 C2940 1.367 . S
C2941 C2949 1.433 . S
C2942 H2938 0.929 . S
C2942 C2944 1.378 . S
C2942 C2946 1.350 . S
C2943 C2946 1.463 . S
C2943 C2948 1.350 . S
C2943 N2951 1.427 . S
C2944 H2935 0.930 . S
C2944 C2942 1.378 . S
C2944 C2945 1.367 . S
C2945 C2944 1.367 . S
C2945 C2947 1.433 . S
C2946 C2942 1.350 . S
C2946 C2943 1.463 . S
C2946 N2950 1.427 . S
C2947 H2937 0.929 . S
C2947 C2945 1.433 . S
C2947 N2950 1.384 . S
C2948 H2939 0.929 . S
C2948 C2940 1.378 . S
C2948 C2943 1.350 . S
C2949 H2936 0.929 . S
C2949 C2941 1.433 . S
C2949 N2951 1.384 . S
N2950 C2946 1.427 . S
N2950 C2947 1.384 . S
N2951 C2943 1.427 . S
N2951 C2949 1.384 . S
H2952 C2958 0.930 . S
H2953 C2962 0.930 . S
H2954 C2967 0.929 . S
H2955 C2965 0.929 . S
H2956 C2960 0.929 . S
H2957 C2966 0.929 . S
C2958 H2952 0.930 . S
C2958 C2959 1.367 . S
C2958 C2966 1.378 . S
C2959 C2958 1.367 . S
C2959 C2967 1.433 . S
C2960 H2956 0.929 . S
C2960 C2962 1.378 . S
C2960 C2964 1.350 . S
C2961 C2964 1.463 . S
C2961 C2966 1.350 . S
C2961 N2969 1.427 . S
C2962 H2953 0.930 . S
C2962 C2960 1.378 . S
C2962 C2963 1.367 . S
C2963 C2962 1.367 . S
C2963 C2965 1.433 . S
C2964 C2960 1.350 . S
C2964 C2961 1.463 . S
C2964 N2968 1.427 . S
C2965 H2955 0.929 . S
C2965 C2963 1.433 . S
C2965 N2968 1.384 . S
C2966 H2957 0.929 . S
C2966 C2958 1.378 . S
C2966 C2961 1.350 . S
C2967 H2954 0.929 . S
C2967 C2959 1.433 . S
C2967 N2969 1.384 . S
N2968 C2964 1.427 . S
N2968 C2965 1.384 . S
N2969 C2961 1.427 . S
N2969 C2967 1.384 . S
H2970 C2976 0.930 . S
H2971 C2980 0.930 . S
H2972 C2985 0.929 . S
H2973 C2983 0.929 . S
H2974 C2978 0.929 . S
H2975 C2984 0.929 . S
C2976 H2970 0.930 . S
C2976 C2977 1.367 . S
C2976 C2984 1.378 . S
C2977 C2976 1.367 . S
C2977 C2985 1.433 . S
C2978 H2974 0.929 . S
C2978 C2980 1.378 . S
C2978 C2982 1.350 . S
C2979 C2982 1.463 . S
C2979 C2984 1.350 . S
C2979 N2987 1.427 . S
C2980 H2971 0.930 . S
C2980 C2978 1.378 . S
C2980 C2981 1.367 . S
C2981 C2980 1.367 . S
C2981 C2983 1.433 . S
C2982 C2978 1.350 . S
C2982 C2979 1.463 . S
C2982 N2986 1.427 . S
C2983 H2973 0.929 . S
C2983 C2981 1.433 . S
C2983 N2986 1.384 . S
C2984 H2975 0.929 . S
C2984 C2976 1.378 . S
C2984 C2979 1.350 . S
C2985 H2972 0.929 . S
C2985 C2977 1.433 . S
C2985 N2987 1.384 . S
N2986 C2982 1.427 . S
N2986 C2983 1.384 . S
N2987 C2979 1.427 . S
N2987 C2985 1.384 . S
H2988 C2994 0.930 . S
H2989 C2998 0.930 . S
H2990 C3003 0.929 . S
H2991 C3001 0.929 . S
H2992 C2996 0.929 . S
H2993 C3002 0.929 . S
C2994 H2988 0.930 . S
C2994 C2995 1.367 . S
C2994 C3002 1.378 . S
C2995 C2994 1.367 . S
C2995 C3003 1.433 . S
C2996 H2992 0.929 . S
C2996 C2998 1.378 . S
C2996 C3000 1.350 . S
C2997 C3000 1.463 . S
C2997 C3002 1.350 . S
C2997 N3005 1.427 . S
C2998 H2989 0.930 . S
C2998 C2996 1.378 . S
C2998 C2999 1.367 . S
C2999 C2998 1.367 . S
C2999 C3001 1.433 . S
C3000 C2996 1.350 . S
C3000 C2997 1.463 . S
C3000 N3004 1.427 . S
C3001 H2991 0.929 . S
C3001 C2999 1.433 . S
C3001 N3004 1.384 . S
C3002 H2993 0.929 . S
C3002 C2994 1.378 . S
C3002 C2997 1.350 . S
C3003 H2990 0.929 . S
C3003 C2995 1.433 . S
C3003 N3005 1.384 . S
N3004 C3000 1.427 . S
N3004 C3001 1.384 . S
N3005 C2997 1.427 . S
N3005 C3003 1.384 . S
H3006 C3012 0.930 . S
H3007 C3016 0.930 . S
H3008 C3021 0.929 . S
H3009 C3019 0.929 . S
H3010 C3014 0.929 . S
H3011 C3020 0.929 . S
C3012 H3006 0.930 . S
C3012 C3013 1.367 . S
C3012 C3020 1.378 . S
C3013 C3012 1.367 . S
C3013 C3021 1.433 . S
C3014 H3010 0.929 . S
C3014 C3016 1.378 . S
C3014 C3018 1.350 . S
C3015 C3018 1.463 . S
C3015 C3020 1.350 . S
C3015 N3023 1.427 . S
C3016 H3007 0.930 . S
C3016 C3014 1.378 . S
C3016 C3017 1.367 . S
C3017 C3016 1.367 . S
C3017 C3019 1.433 . S
C3018 C3014 1.350 . S
C3018 C3015 1.463 . S
C3018 N3022 1.427 . S
C3019 H3009 0.929 . S
C3019 C3017 1.433 . S
C3019 N3022 1.384 . S
C3020 H3011 0.929 . S
C3020 C3012 1.378 . S
C3020 C3015 1.350 . S
C3021 H3008 0.929 . S
C3021 C3013 1.433 . S
C3021 N3023 1.384 . S
N3022 C3018 1.427 . S
N3022 C3019 1.384 . S
N3023 C3015 1.427 . S
N3023 C3021 1.384 . S
H3024 C3030 0.930 . S
H3025 C3034 0.930 . S
H3026 C3039 0.929 . S
H3027 C3037 0.929 . S
H3028 C3032 0.929 . S
H3029 C3038 0.929 . S
C3030 H3024 0.930 . S
C3030 C3031 1.367 . S
C3030 C3038 1.378 . S
C3031 C3030 1.367 . S
C3031 C3039 1.433 . S
C3032 H3028 0.929 . S
C3032 C3034 1.378 . S
C3032 C3036 1.350 . S
C3033 C3036 1.463 . S
C3033 C3038 1.350 . S
C3033 N3041 1.427 . S
C3034 H3025 0.930 . S
C3034 C3032 1.378 . S
C3034 C3035 1.367 . S
C3035 C3034 1.367 . S
C3035 C3037 1.433 . S
C3036 C3032 1.350 . S
C3036 C3033 1.463 . S
C3036 N3040 1.427 . S
C3037 H3027 0.929 . S
C3037 C3035 1.433 . S
C3037 N3040 1.384 . S
C3038 H3029 0.929 . S
C3038 C3030 1.378 . S
C3038 C3033 1.350 . S
C3039 H3026 0.929 . S
C3039 C3031 1.433 . S
C3039 N3041 1.384 . S
N3040 C3036 1.427 . S
N3040 C3037 1.384 . S
N3041 C3033 1.427 . S
N3041 C3039 1.384 . S
H3042 C3048 0.930 . S
H3043 C3052 0.930 . S
H3044 C3057 0.929 . S
H3045 C3055 0.929 . S
H3046 C3050 0.929 . S
H3047 C3056 0.929 . S
C3048 H3042 0.930 . S
C3048 C3049 1.367 . S
C3048 C3056 1.378 . S
C3049 C3048 1.367 . S
C3049 C3057 1.433 . S
C3050 H3046 0.929 . S
C3050 C3052 1.378 . S
C3050 C3054 1.350 . S
C3051 C3054 1.463 . S
C3051 C3056 1.350 . S
C3051 N3059 1.427 . S
C3052 H3043 0.930 . S
C3052 C3050 1.378 . S
C3052 C3053 1.367 . S
C3053 C3052 1.367 . S
C3053 C3055 1.433 . S
C3054 C3050 1.350 . S
C3054 C3051 1.463 . S
C3054 N3058 1.427 . S
C3055 H3045 0.929 . S
C3055 C3053 1.433 . S
C3055 N3058 1.384 . S
C3056 H3047 0.929 . S
C3056 C3048 1.378 . S
C3056 C3051 1.350 . S
C3057 H3044 0.929 . S
C3057 C3049 1.433 . S
C3057 N3059 1.384 . S
N3058 C3054 1.427 . S
N3058 C3055 1.384 . S
N3059 C3051 1.427 . S
N3059 C3057 1.384 . S
H3060 C3066 0.930 . S
H3061 C3070 0.930 . S
H3062 C3075 0.929 . S
H3063 C3073 0.929 . S
H3064 C3068 0.929 . S
H3065 C3074 0.929 . S
C3066 H3060 0.930 . S
C3066 C3067 1.367 . S
C3066 C3074 1.378 . S
C3067 C3066 1.367 . S
C3067 C3075 1.433 . S
C3068 H3064 0.929 . S
C3068 C3070 1.378 . S
C3068 C3072 1.350 . S
C3069 C3072 1.463 . S
C3069 C3074 1.350 . S
C3069 N3077 1.427 . S
C3070 H3061 0.930 . S
C3070 C3068 1.378 . S
C3070 C3071 1.367 . S
C3071 C3070 1.367 . S
C3071 C3073 1.433 . S
C3072 C3068 1.350 . S
C3072 C3069 1.463 . S
C3072 N3076 1.427 . S
C3073 H3063 0.929 . S
C3073 C3071 1.433 . S
C3073 N3076 1.384 . S
C3074 H3065 0.929 . S
C3074 C3066 1.378 . S
C3074 C3069 1.350 . S
C3075 H3062 0.929 . S
C3075 C3067 1.433 . S
C3075 N3077 1.384 . S
N3076 C3072 1.427 . S
N3076 C3073 1.384 . S
N3077 C3069 1.427 . S
N3077 C3075 1.384 . S
H3078 C3084 0.930 . S
H3079 C3088 0.930 . S
H3080 C3093 0.929 . S
H3081 C3091 0.929 . S
H3082 C3086 0.929 . S
H3083 C3092 0.929 . S
C3084 H3078 0.930 . S
C3084 C3085 1.367 . S
C3084 C3092 1.378 . S
C3085 C3084 1.367 . S
C3085 C3093 1.433 . S
C3086 H3082 0.929 . S
C3086 C3088 1.378 . S
C3086 C3090 1.350 . S
C3087 C3090 1.463 . S
C3087 C3092 1.350 . S
C3087 N3095 1.427 . S
C3088 H3079 0.930 . S
C3088 C3086 1.378 . S
C3088 C3089 1.367 . S
C3089 C3088 1.367 . S
C3089 C3091 1.433 . S
C3090 C3086 1.350 . S
C3090 C3087 1.463 . S
C3090 N3094 1.427 . S
C3091 H3081 0.929 . S
C3091 C3089 1.433 . S
C3091 N3094 1.384 . S
C3092 H3083 0.929 . S
C3092 C3084 1.378 . S
C3092 C3087 1.350 . S
C3093 H3080 0.929 . S
C3093 C3085 1.433 . S
C3093 N3095 1.384 . S
N3094 C3090 1.427 . S
N3094 C3091 1.384 . S
N3095 C3087 1.427 . S
N3095 C3093 1.384 . S
H3096 C3102 0.930 . S
H3097 C3106 0.930 . S
H3098 C3111 0.929 . S
H3099 C3109 0.929 . S
H3100 C3104 0.929 1_455 S
H3101 C3110 0.929 1_655 S
C3102 H3096 0.930 . S
C3102 C3103 1.367 . S
C3102 C3110 1.378 . S
C3103 C3102 1.367 . S
C3103 C3111 1.433 . S
C3104 H3100 0.929 1_655 S
C3104 C3106 1.378 . S
C3104 C3108 1.350 . S
C3105 C3108 1.463 1_455 S
C3105 C3110 1.350 . S
C3105 N3113 1.427 . S
C3106 H3097 0.930 . S
C3106 C3104 1.378 . S
C3106 C3107 1.367 . S
C3107 C3106 1.367 . S
C3107 C3109 1.433 . S
C3108 C3104 1.350 . S
C3108 C3105 1.463 1_655 S
C3108 N3112 1.427 . S
C3109 H3099 0.929 . S
C3109 C3107 1.433 . S
C3109 N3112 1.384 . S
C3110 H3101 0.929 1_455 S
C3110 C3102 1.378 . S
C3110 C3105 1.350 . S
C3111 H3098 0.929 . S
C3111 C3103 1.433 . S
C3111 N3113 1.384 . S
N3112 C3108 1.427 . S
N3112 C3109 1.384 . S
N3113 C3105 1.427 . S
N3113 C3111 1.384 . S
H3114 C3120 0.930 . S
H3115 C3124 0.930 . S
H3116 C3129 0.929 . S
H3117 C3127 0.929 . S
H3118 C3122 0.929 . S
H3119 C3128 0.929 . S
C3120 H3114 0.930 . S
C3120 C3121 1.367 . S
C3120 C3128 1.378 . S
C3121 C3120 1.367 . S
C3121 C3129 1.433 . S
C3122 H3118 0.929 . S
C3122 C3124 1.378 . S
C3122 C3126 1.350 . S
C3123 C3126 1.463 . S
C3123 C3128 1.350 . S
C3123 N3131 1.427 . S
C3124 H3115 0.930 . S
C3124 C3122 1.378 . S
C3124 C3125 1.367 . S
C3125 C3124 1.367 . S
C3125 C3127 1.433 . S
C3126 C3122 1.350 . S
C3126 C3123 1.463 . S
C3126 N3130 1.427 . S
C3127 H3117 0.929 . S
C3127 C3125 1.433 . S
C3127 N3130 1.384 . S
C3128 H3119 0.929 . S
C3128 C3120 1.378 . S
C3128 C3123 1.350 . S
C3129 H3116 0.929 . S
C3129 C3121 1.433 . S
C3129 N3131 1.384 . S
N3130 C3126 1.427 . S
N3130 C3127 1.384 . S
N3131 C3123 1.427 . S
N3131 C3129 1.384 . S
H3132 C3138 0.930 . S
H3133 C3142 0.930 . S
H3134 C3147 0.929 . S
H3135 C3145 0.929 . S
H3136 C3140 0.929 . S
H3137 C3146 0.929 . S
C3138 H3132 0.930 . S
C3138 C3139 1.367 . S
C3138 C3146 1.378 . S
C3139 C3138 1.367 . S
C3139 C3147 1.433 . S
C3140 H3136 0.929 . S
C3140 C3142 1.378 . S
C3140 C3144 1.350 . S
C3141 C3144 1.463 1_545 S
C3141 C3146 1.350 . S
C3141 N3149 1.427 . S
C3142 H3133 0.930 . S
C3142 C3140 1.378 . S
C3142 C3143 1.367 . S
C3143 C3142 1.367 . S
C3143 C3145 1.433 . S
C3144 C3140 1.350 . S
C3144 C3141 1.463 1_565 S
C3144 N3148 1.427 . S
C3145 H3135 0.929 . S
C3145 C3143 1.433 . S
C3145 N3148 1.384 . S
C3146 H3137 0.929 . S
C3146 C3138 1.378 . S
C3146 C3141 1.350 . S
C3147 H3134 0.929 . S
C3147 C3139 1.433 . S
C3147 N3149 1.384 . S
N3148 C3144 1.427 . S
N3148 C3145 1.384 . S
N3149 C3141 1.427 . S
N3149 C3147 1.384 . S
H3150 C3156 0.930 . S
H3151 C3160 0.930 . S
H3152 C3165 0.929 . S
H3153 C3163 0.929 . S
H3154 C3158 0.929 . S
H3155 C3164 0.930 . S
C3156 H3150 0.930 . S
C3156 C3157 1.367 . S
C3156 C3164 1.378 . S
C3157 C3156 1.367 . S
C3157 C3165 1.433 . S
C3158 H3154 0.929 . S
C3158 C3160 1.378 . S
C3158 C3162 1.350 . S
C3159 C3162 1.463 1_565 S
C3159 C3164 1.350 . S
C3159 N3167 1.427 . S
C3160 H3151 0.930 . S
C3160 C3158 1.378 . S
C3160 C3161 1.367 . S
C3161 C3160 1.367 . S
C3161 C3163 1.433 . S
C3162 C3158 1.350 . S
C3162 C3159 1.463 1_545 S
C3162 N3166 1.427 . S
C3163 H3153 0.929 . S
C3163 C3161 1.433 . S
C3163 N3166 1.384 . S
C3164 H3155 0.930 . S
C3164 C3156 1.378 . S
C3164 C3159 1.350 . S
C3165 H3152 0.929 . S
C3165 C3157 1.433 . S
C3165 N3167 1.384 . S
N3166 C3162 1.427 . S
N3166 C3163 1.384 . S
N3167 C3159 1.427 . S
N3167 C3165 1.384 . S
H3168 C3174 0.930 . S
H3169 C3178 0.930 . S
H3170 C3183 0.929 . S
H3171 C3181 0.929 . S
H3172 C3176 0.929 . S
H3173 C3182 0.929 . S
C3174 H3168 0.930 . S
C3174 C3175 1.367 . S
C3174 C3182 1.378 . S
C3175 C3174 1.367 . S
C3175 C3183 1.433 . S
C3176 H3172 0.929 . S
C3176 C3178 1.378 . S
C3176 C3180 1.350 . S
C3177 C3180 1.463 1_655 S
C3177 C3182 1.350 . S
C3177 N3185 1.427 . S
C3178 H3169 0.930 . S
C3178 C3176 1.378 . S
C3178 C3179 1.367 . S
C3179 C3178 1.367 . S
C3179 C3181 1.433 . S
C3180 C3176 1.350 . S
C3180 C3177 1.463 1_455 S
C3180 N3184 1.427 . S
C3181 H3171 0.929 . S
C3181 C3179 1.433 . S
C3181 N3184 1.384 . S
C3182 H3173 0.929 . S
C3182 C3174 1.378 . S
C3182 C3177 1.350 . S
C3183 H3170 0.929 . S
C3183 C3175 1.433 . S
C3183 N3185 1.384 . S
N3184 C3180 1.427 . S
N3184 C3181 1.384 . S
N3185 C3177 1.427 . S
N3185 C3183 1.384 . S
H3186 C3192 0.930 . S
H3187 C3196 0.930 . S
H3188 C3201 0.929 . S
H3189 C3199 0.929 . S
H3190 C3194 0.929 . S
H3191 C3200 0.929 . S
C3192 H3186 0.930 . S
C3192 C3193 1.367 . S
C3192 C3200 1.378 . S
C3193 C3192 1.367 . S
C3193 C3201 1.433 . S
C3194 H3190 0.929 . S
C3194 C3196 1.378 . S
C3194 C3198 1.350 . S
C3195 C3198 1.463 . S
C3195 C3200 1.350 . S
C3195 N3203 1.427 . S
C3196 H3187 0.930 . S
C3196 C3194 1.378 . S
C3196 C3197 1.367 . S
C3197 C3196 1.367 . S
C3197 C3199 1.433 . S
C3198 C3194 1.350 . S
C3198 C3195 1.463 . S
C3198 N3202 1.427 . S
C3199 H3189 0.929 . S
C3199 C3197 1.433 . S
C3199 N3202 1.384 . S
C3200 H3191 0.929 . S
C3200 C3192 1.378 . S
C3200 C3195 1.350 . S
C3201 H3188 0.929 . S
C3201 C3193 1.433 . S
C3201 N3203 1.384 . S
N3202 C3198 1.427 . S
N3202 C3199 1.384 . S
N3203 C3195 1.427 . S
N3203 C3201 1.384 . S
C1915 C241 1.170 . S
C1919 C29 1.182 . S
C1933 C294 1.177 . S
C1937 C82 1.160 . S
C1951 C188 1.199 . S
C1955 C135 1.202 . S
C1969 C559 1.620 . S
C1973 C357 1.635 . S
C1987 C400 1.623 . S
C1991 C622 1.631 . S
C2005 C506 1.261 . S
C2009 C453 1.267 . S
C2023 C665 1.124 . S
C2027 C877 1.119 . S
C2041 C930 1.173 . S
C2045 C718 1.160 1_565 S
C2059 C771 1.188 1_455 S
C2063 C824 1.190 . S
C2077 C993 1.586 . S
C2081 C1195 1.569 1_565 S
C2095 C1258 1.647 . S
C2099 C1036 1.627 . S
C2113 C1089 1.306 . S
C2117 C1142 1.312 . S
C2131 C1513 1.160 1_545 S
C2135 C1301 1.171 . S
C2149 C1354 1.123 . S
C2153 C1566 1.120 . S
C2167 C1460 1.185 . S
C2171 C1407 1.181 . S
C2185 C1831 1.636 . S
C2189 C1629 1.649 . S
C2203 C1672 1.569 1_545 S
C2207 C1894 1.585 . S
C2221 C1725 1.305 1_655 S
C2225 C1778 1.313 . S
C2239 C621 1.791 . S
C2243 C22 1.796 . S
C2257 C75 1.697 . S
C2261 C499 1.706 . S
C2275 C552 1.888 . S
C2279 C128 1.886 . S
C2293 C393 1.890 . S
C2297 C181 1.885 . S
C2311 C234 1.696 . S
C2315 C446 1.707 . S
C2329 C356 1.796 . S
C2333 C287 1.790 . S
C2347 C658 1.896 . S
C2351 C1257 1.914 . S
C2365 C1135 1.869 . S
C2369 C711 1.872 . S
C2383 C1188 1.951 . S
C2387 C764 1.947 . S
C2401 C817 1.958 . S
C2405 C1029 1.955 . S
C2419 C870 1.788 . S
C2423 C1082 1.783 . S
C2437 C923 1.829 . S
C2441 C992 1.856 . S
C2455 C1893 1.856 . S
C2459 C1294 1.829 . S
C2473 C1347 1.789 . S
C2477 C1771 1.783 . S
C2491 C1400 1.959 . S
C2495 C1824 1.953 . S
C2509 C1665 1.953 . S
C2513 C1453 1.945 . S
C2527 C1718 1.872 . S
C2531 C1506 1.871 . S
C2545 C1628 1.913 . S
C2549 C1559 1.895 . S
C2563 C833 2.344 . S
C2567 C38 2.346 . S
C2581 C886 2.224 . S
C2585 C91 2.222 . S
C2599 C144 2.461 . S
C2603 C939 2.449 . S
C2617 C197 2.462 . S
C2621 C1310 2.450 . S
C2635 C250 2.228 . S
C2639 C1363 2.217 . S
C2653 C303 2.348 . S
C2657 C1416 2.342 . S
C2671 C340 1.717 . S
C2675 C1787 1.720 . S
C2689 C409 1.980 . S
C2693 C1840 1.975 . S
C2707 C462 1.471 . S
C2711 C1877 1.463 . S
C2725 C515 1.473 . S
C2729 C976 1.464 . S
C2743 C1045 1.980 . S
C2747 C568 1.978 . S
C2761 C1098 1.725 . S
C2765 C605 1.713 . S
C2779 C1469 2.726 . S
C2783 C674 2.727 . S
C2797 C727 2.608 . S
C2801 C1522 2.605 . S
C2815 C1575 2.725 . S
C2819 C780 2.728 . S
C2833 C1151 1.920 . S
C2837 C1612 1.912 . S
C2851 C1681 2.340 . S
C2855 C1204 2.339 . S
C2869 C1734 1.920 . S
C2873 C1241 1.912 . S
C2887 C39 2.272 . S
C2891 C1576 2.282 . S
C2905 C92 2.028 . S
C2909 C1470 2.032 . S
C2923 C145 1.948 . S
C2927 C1523 1.964 . S
C2941 C198 1.951 . S
C2945 C728 1.961 . S
C2959 C781 2.035 . S
C2963 C251 2.030 . S
C2977 C675 2.273 . S
C2981 C304 2.270 . S
C2995 C1248 1.382 . S
C2999 C347 1.373 . S
C3013 C1152 1.658 . S
C3017 C410 1.670 . S
C3031 C1205 1.759 . S
C3035 C463 1.752 . S
C3049 C1682 1.765 . S
C3053 C516 1.743 . S
C3067 C1735 1.657 . S
C3071 C569 1.661 . S
C3085 C1619 1.390 . S
C3089 C612 1.376 . S
C3103 C834 1.594 . S
C3107 C1364 1.599 . S
C3121 C1417 1.606 . S
C3125 C887 1.603 . S
C3139 C1311 1.998 . S
C3143 C940 2.005 . S
C3157 C983 0.967 . S
C3161 C1884 0.980 . S
C3175 C1788 1.412 . S
C3179 C1046 1.404 . S
C3193 C1099 1.396 . S
C3197 C1841 1.402 . S
