# Generated by pormake.
# Topology gme, (4)-cn, num edge types: 1
# Building blocks:
#     Node 0, Type 0, BuildingBlock: GALJAG_clean_sbu_0, # of connection points: 4
#     Node 1, Type 0, BuildingBlock: GALJAG_clean_sbu_0, # of connection points: 4
#     Node 2, Type 0, BuildingBlock: GALJAG_clean_sbu_0, # of connection points: 4
#     Node 3, Type 0, BuildingBlock: GALJAG_clean_sbu_0, # of connection points: 4
#     Node 4, Type 0, BuildingBlock: GALJAG_clean_sbu_0, # of connection points: 4
#     Node 5, Type 0, BuildingBlock: GALJAG_clean_sbu_0, # of connection points: 4
#     Node 6, Type 0, BuildingBlock: GALJAG_clean_sbu_0, # of connection points: 4
#     Node 7, Type 0, BuildingBlock: GALJAG_clean_sbu_0, # of connection points: 4
#     Node 8, Type 0, BuildingBlock: GALJAG_clean_sbu_0, # of connection points: 4
#     Node 9, Type 0, BuildingBlock: GALJAG_clean_sbu_0, # of connection points: 4
#     Node 10, Type 0, BuildingBlock: GALJAG_clean_sbu_0, # of connection points: 4
#     Node 11, Type 0, BuildingBlock: GALJAG_clean_sbu_0, # of connection points: 4
#     Node 12, Type 0, BuildingBlock: GALJAG_clean_sbu_0, # of connection points: 4
#     Node 13, Type 0, BuildingBlock: GALJAG_clean_sbu_0, # of connection points: 4
#     Node 14, Type 0, BuildingBlock: GALJAG_clean_sbu_0, # of connection points: 4
#     Node 15, Type 0, BuildingBlock: GALJAG_clean_sbu_0, # of connection points: 4
#     Node 16, Type 0, BuildingBlock: GALJAG_clean_sbu_0, # of connection points: 4
#     Node 17, Type 0, BuildingBlock: GALJAG_clean_sbu_0, # of connection points: 4
#     Node 18, Type 0, BuildingBlock: GALJAG_clean_sbu_0, # of connection points: 4
#     Node 19, Type 0, BuildingBlock: GALJAG_clean_sbu_0, # of connection points: 4
#     Node 20, Type 0, BuildingBlock: GALJAG_clean_sbu_0, # of connection points: 4
#     Node 21, Type 0, BuildingBlock: GALJAG_clean_sbu_0, # of connection points: 4
#     Node 22, Type 0, BuildingBlock: GALJAG_clean_sbu_0, # of connection points: 4
#     Node 23, Type 0, BuildingBlock: GALJAG_clean_sbu_0, # of connection points: 4
#     Edge 24, Type (0, 0), BuildingBlock: MIFKUJ_clean_linker_0, # of connection points: 2
#     Edge 25, Type (0, 0), BuildingBlock: MIFKUJ_clean_linker_0, # of connection points: 2
#     Edge 26, Type (0, 0), BuildingBlock: MIFKUJ_clean_linker_0, # of connection points: 2
#     Edge 27, Type (0, 0), BuildingBlock: MIFKUJ_clean_linker_0, # of connection points: 2
#     Edge 28, Type (0, 0), BuildingBlock: MIFKUJ_clean_linker_0, # of connection points: 2
#     Edge 29, Type (0, 0), BuildingBlock: MIFKUJ_clean_linker_0, # of connection points: 2
#     Edge 30, Type (0, 0), BuildingBlock: MIFKUJ_clean_linker_0, # of connection points: 2
#     Edge 31, Type (0, 0), BuildingBlock: MIFKUJ_clean_linker_0, # of connection points: 2
#     Edge 32, Type (0, 0), BuildingBlock: MIFKUJ_clean_linker_0, # of connection points: 2
#     Edge 33, Type (0, 0), BuildingBlock: MIFKUJ_clean_linker_0, # of connection points: 2
#     Edge 34, Type (0, 0), BuildingBlock: MIFKUJ_clean_linker_0, # of connection points: 2
#     Edge 35, Type (0, 0), BuildingBlock: MIFKUJ_clean_linker_0, # of connection points: 2
#     Edge 36, Type (0, 0), BuildingBlock: MIFKUJ_clean_linker_0, # of connection points: 2
#     Edge 37, Type (0, 0), BuildingBlock: MIFKUJ_clean_linker_0, # of connection points: 2
#     Edge 38, Type (0, 0), BuildingBlock: MIFKUJ_clean_linker_0, # of connection points: 2
#     Edge 39, Type (0, 0), BuildingBlock: MIFKUJ_clean_linker_0, # of connection points: 2
#     Edge 40, Type (0, 0), BuildingBlock: MIFKUJ_clean_linker_0, # of connection points: 2
#     Edge 41, Type (0, 0), BuildingBlock: MIFKUJ_clean_linker_0, # of connection points: 2
#     Edge 42, Type (0, 0), BuildingBlock: MIFKUJ_clean_linker_0, # of connection points: 2
#     Edge 43, Type (0, 0), BuildingBlock: MIFKUJ_clean_linker_0, # of connection points: 2
#     Edge 44, Type (0, 0), BuildingBlock: MIFKUJ_clean_linker_0, # of connection points: 2
#     Edge 45, Type (0, 0), BuildingBlock: MIFKUJ_clean_linker_0, # of connection points: 2
#     Edge 46, Type (0, 0), BuildingBlock: MIFKUJ_clean_linker_0, # of connection points: 2
#     Edge 47, Type (0, 0), BuildingBlock: MIFKUJ_clean_linker_0, # of connection points: 2
#     Edge 48, Type (0, 0), BuildingBlock: MIFKUJ_clean_linker_0, # of connection points: 2
#     Edge 49, Type (0, 0), BuildingBlock: MIFKUJ_clean_linker_0, # of connection points: 2
#     Edge 50, Type (0, 0), BuildingBlock: MIFKUJ_clean_linker_0, # of connection points: 2
#     Edge 51, Type (0, 0), BuildingBlock: MIFKUJ_clean_linker_0, # of connection points: 2
#     Edge 52, Type (0, 0), BuildingBlock: MIFKUJ_clean_linker_0, # of connection points: 2
#     Edge 53, Type (0, 0), BuildingBlock: MIFKUJ_clean_linker_0, # of connection points: 2
#     Edge 54, Type (0, 0), BuildingBlock: MIFKUJ_clean_linker_0, # of connection points: 2
#     Edge 55, Type (0, 0), BuildingBlock: MIFKUJ_clean_linker_0, # of connection points: 2
#     Edge 56, Type (0, 0), BuildingBlock: MIFKUJ_clean_linker_0, # of connection points: 2
#     Edge 57, Type (0, 0), BuildingBlock: MIFKUJ_clean_linker_0, # of connection points: 2
#     Edge 58, Type (0, 0), BuildingBlock: MIFKUJ_clean_linker_0, # of connection points: 2
#     Edge 59, Type (0, 0), BuildingBlock: MIFKUJ_clean_linker_0, # of connection points: 2
#     Edge 60, Type (0, 0), BuildingBlock: MIFKUJ_clean_linker_0, # of connection points: 2
#     Edge 61, Type (0, 0), BuildingBlock: MIFKUJ_clean_linker_0, # of connection points: 2
#     Edge 62, Type (0, 0), BuildingBlock: MIFKUJ_clean_linker_0, # of connection points: 2
#     Edge 63, Type (0, 0), BuildingBlock: MIFKUJ_clean_linker_0, # of connection points: 2
#     Edge 64, Type (0, 0), BuildingBlock: MIFKUJ_clean_linker_0, # of connection points: 2
#     Edge 65, Type (0, 0), BuildingBlock: MIFKUJ_clean_linker_0, # of connection points: 2
#     Edge 66, Type (0, 0), BuildingBlock: MIFKUJ_clean_linker_0, # of connection points: 2
#     Edge 67, Type (0, 0), BuildingBlock: MIFKUJ_clean_linker_0, # of connection points: 2
#     Edge 68, Type (0, 0), BuildingBlock: MIFKUJ_clean_linker_0, # of connection points: 2
#     Edge 69, Type (0, 0), BuildingBlock: MIFKUJ_clean_linker_0, # of connection points: 2
#     Edge 70, Type (0, 0), BuildingBlock: MIFKUJ_clean_linker_0, # of connection points: 2
#     Edge 71, Type (0, 0), BuildingBlock: MIFKUJ_clean_linker_0, # of connection points: 2
# Relax obj value: 0.080
# Max RMSD: 0.062
# Mean RMSD: 0.062
data_MOF--net-gme--node1-GALJAG_clean_sbu_0--edge1-MIFKUJ_clean_linker_0
_symmetry_space_group_name_H-M    P1
_symmetry_Int_Tables_number       1
_symmetry_cell_setting            triclinic
loop_
_symmetry_equiv_pos_as_xyz
'x, y, z'
_cell_length_a     75.039509
_cell_length_b     75.047336
_cell_length_c     72.373391
_cell_angle_alpha  90.002392
_cell_angle_beta   90.021548
_cell_angle_gamma 119.99769
loop_
_atom_site_label
_atom_site_type_symbol
_atom_site_fract_x
_atom_site_fract_y
_atom_site_fract_z
_atom_type_partial_charge
In0 In 0.40227 0.06978 0.11501 0.0
O1 O 0.37985 0.0515 0.13847 0.0
O2 O 0.41168 0.06969 0.14468 0.0
C3 C 0.37975 0.05034 0.08487 0.0
C4 C 0.40176 0.1053 0.11758 0.0
C5 C 0.43677 0.06843 0.10754 0.0
O6 O 0.37863 0.04089 0.09963 0.0
O7 O 0.39192 0.06948 0.08546 0.0
O8 O 0.43627 0.08499 0.10739 0.0
O9 O 0.41983 0.05256 0.11124 0.0
C10 C 0.39379 0.05778 0.15062 0.0
O11 O 0.41798 0.10473 0.11422 0.0
O12 O 0.38578 0.08793 0.11952 0.0
In13 In 0.33406 0.40845 0.61586 0.0
O14 O 0.31247 0.42071 0.60977 0.0
O15 O 0.29922 0.39001 0.61975 0.0
C16 C 0.36972 0.44387 0.61022 0.0
C17 C 0.33693 0.40133 0.65198 0.0
C18 C 0.33352 0.38686 0.58589 0.0
O19 O 0.35266 0.44322 0.61181 0.0
O20 O 0.36879 0.42667 0.61146 0.0
O21 O 0.33908 0.38401 0.60157 0.0
O22 O 0.32799 0.40018 0.58556 0.0
C23 C 0.29634 0.40438 0.61433 0.0
O24 O 0.3339 0.38812 0.63972 0.0
O25 O 0.3384 0.41776 0.64595 0.0
In26 In 0.92649 0.3335 0.11571 0.0
O27 O 0.94803 0.3343 0.13873 0.0
O28 O 0.92102 0.33496 0.14626 0.0
C29 C 0.94624 0.33155 0.08533 0.0
C30 C 0.8923 0.29623 0.11449 0.0
C31 C 0.92741 0.36973 0.11111 0.0
O32 O 0.95514 0.33735 0.10079 0.0
O33 O 0.92755 0.32667 0.08534 0.0
O34 O 0.91087 0.35278 0.11241 0.0
O35 O 0.94348 0.36842 0.11205 0.0
C36 C 0.93701 0.33498 0.15158 0.0
O37 O 0.89239 0.3126 0.11029 0.0
O38 O 0.90956 0.29862 0.11929 0.0
In39 In 0.59225 0.92944 0.61901 0.0
O40 O 0.57709 0.89457 0.61707 0.0
O41 O 0.60859 0.91128 0.62481 0.0
C42 C 0.55615 0.92881 0.61583 0.0
C43 C 0.60593 0.94662 0.65265 0.0
C44 C 0.61054 0.946 0.58639 0.0
O45 O 0.55733 0.91327 0.62069 0.0
O46 O 0.57322 0.9447 0.61245 0.0
O47 O 0.61463 0.95657 0.60098 0.0
O48 O 0.59744 0.92723 0.58835 0.0
C49 C 0.59302 0.89397 0.62156 0.0
O50 O 0.6181 0.94932 0.63953 0.0
O51 O 0.58717 0.93559 0.64867 0.0
In52 In 0.66287 0.59265 0.11538 0.0
O53 O 0.66074 0.61269 0.1383 0.0
O54 O 0.66402 0.58714 0.14598 0.0
C55 C 0.66498 0.61387 0.0846 0.0
C56 C 0.70006 0.59546 0.11456 0.0
C57 C 0.62589 0.55808 0.11165 0.0
O58 O 0.66303 0.61967 0.10048 0.0
O59 O 0.66585 0.59753 0.08437 0.0
O60 O 0.64267 0.55816 0.11026 0.0
O61 O 0.62773 0.57544 0.11491 0.0
C62 C 0.6624 0.60228 0.15121 0.0
O63 O 0.68349 0.57865 0.11238 0.0
O64 O 0.69787 0.61093 0.117 0.0
In65 In 0.07649 0.66456 0.61666 0.0
O66 O 0.05567 0.66609 0.63922 0.0
O67 O 0.08115 0.66287 0.6473 0.0
C68 C 0.05739 0.6647 0.58515 0.0
C69 C 0.11131 0.70139 0.61535 0.0
C70 C 0.07348 0.62729 0.61441 0.0
O71 O 0.04953 0.66353 0.60086 0.0
O72 O 0.07471 0.66581 0.58547 0.0
O73 O 0.09031 0.64389 0.61249 0.0
O74 O 0.05808 0.62948 0.61723 0.0
C75 C 0.06586 0.66435 0.6523 0.0
O76 O 0.11128 0.68459 0.6145 0.0
O77 O 0.09374 0.69963 0.61681 0.0
In78 In 0.92998 0.5947 0.38318 0.0
O79 O 0.9481 0.61703 0.35957 0.0
O80 O 0.92397 0.58701 0.35281 0.0
C81 C 0.95176 0.61604 0.41307 0.0
C82 C 0.89534 0.59671 0.38651 0.0
C83 C 0.93099 0.55932 0.38592 0.0
O84 O 0.96017 0.61771 0.39756 0.0
O85 O 0.93264 0.60387 0.41333 0.0
O86 O 0.91456 0.55996 0.38713 0.0
O87 O 0.94698 0.57657 0.38358 0.0
C88 C 0.93781 0.60426 0.34703 0.0
O89 O 0.89619 0.58076 0.3905 0.0
O90 O 0.91204 0.61172 0.38084 0.0
In91 In 0.33524 0.9275 0.88222 0.0
O92 O 0.31425 0.89319 0.88663 0.0
O93 O 0.30021 0.91149 0.88234 0.0
C94 C 0.3711 0.92721 0.88425 0.0
C95 C 0.33523 0.93846 0.84668 0.0
C96 C 0.33453 0.94748 0.91295 0.0
O97 O 0.35378 0.91102 0.88486 0.0
O98 O 0.37036 0.94353 0.88251 0.0
O99 O 0.33402 0.9539 0.89695 0.0
O100 O 0.33546 0.93119 0.91334 0.0
C101 C 0.29779 0.8938 0.88521 0.0
O102 O 0.34218 0.95155 0.85956 0.0
O103 O 0.32848 0.92014 0.85175 0.0
In104 In 0.4031 0.33406 0.3801 0.0
O105 O 0.4184 0.31457 0.38273 0.0
O106 O 0.38647 0.29917 0.37645 0.0
C107 C 0.43885 0.37 0.3823 0.0
C108 C 0.38993 0.33569 0.34574 0.0
C109 C 0.38496 0.3345 0.41221 0.0
O110 O 0.43807 0.35288 0.38065 0.0
O111 O 0.42155 0.36899 0.38305 0.0
O112 O 0.38066 0.33975 0.39703 0.0
O113 O 0.39814 0.32883 0.4111 0.0
C114 C 0.40227 0.29772 0.37943 0.0
O115 O 0.37759 0.32768 0.35907 0.0
O116 O 0.40857 0.34266 0.34981 0.0
In117 In 0.07397 0.40433 0.88392 0.0
O118 O 0.10862 0.4191 0.88721 0.0
O119 O 0.09113 0.38644 0.88542 0.0
C120 C 0.07121 0.43882 0.88591 0.0
C121 C 0.06524 0.39307 0.84818 0.0
C122 C 0.05354 0.38438 0.9147 0.0
O123 O 0.0878 0.43879 0.88858 0.0
O124 O 0.05596 0.42144 0.8822 0.0
O125 O 0.04608 0.37843 0.89875 0.0
O126 O 0.07115 0.40021 0.91501 0.0
C127 C 0.10865 0.4023 0.88706 0.0
O128 O 0.05343 0.38235 0.8611 0.0
O129 O 0.08107 0.4093 0.85334 0.0
In130 In 0.66399 0.06926 0.38322 0.0
O131 O 0.68366 0.104 0.38566 0.0
O132 O 0.69909 0.08691 0.38247 0.0
C133 C 0.62747 0.06708 0.38927 0.0
C134 C 0.66273 0.06046 0.34689 0.0
C135 C 0.66452 0.04757 0.41275 0.0
O136 O 0.64445 0.08333 0.39184 0.0
O137 O 0.62892 0.0519 0.38377 0.0
O138 O 0.65937 0.03964 0.39686 0.0
O139 O 0.66962 0.06629 0.41355 0.0
C140 C 0.70059 0.10433 0.38439 0.0
O141 O 0.66718 0.05117 0.35899 0.0
O142 O 0.65906 0.07394 0.35317 0.0
In143 In 0.60138 0.66764 0.88006 0.0
O144 O 0.62432 0.67284 0.8567 0.0
O145 O 0.59233 0.65547 0.85095 0.0
C146 C 0.62316 0.6712 0.91091 0.0
C147 C 0.6012 0.7033 0.87652 0.0
C148 C 0.5669 0.63191 0.88768 0.0
O149 O 0.62522 0.66332 0.89623 0.0
O150 O 0.61048 0.67751 0.90985 0.0
O151 O 0.56721 0.64889 0.88691 0.0
O152 O 0.58403 0.63304 0.88485 0.0
C153 C 0.6104 0.66294 0.84491 0.0
O154 O 0.58506 0.68635 0.87957 0.0
O155 O 0.61742 0.70224 0.87526 0.0
In156 In 0.59895 0.92923 0.87843 0.0
O157 O 0.62368 0.94835 0.85678 0.0
O158 O 0.59231 0.9336 0.84873 0.0
C159 C 0.61785 0.94721 0.9105 0.0
C160 C 0.59998 0.89394 0.87531 0.0
C161 C 0.56311 0.92859 0.88374 0.0
O162 O 0.62131 0.95722 0.89565 0.0
O163 O 0.60524 0.92824 0.90904 0.0
O164 O 0.56432 0.91242 0.88311 0.0
O165 O 0.58003 0.94512 0.88182 0.0
C166 C 0.61083 0.9448 0.84405 0.0
O167 O 0.58344 0.89431 0.87685 0.0
O168 O 0.61607 0.91139 0.87529 0.0
In169 In 0.66815 0.59515 0.38071 0.0
O170 O 0.66463 0.61464 0.35806 0.0
O171 O 0.67478 0.59381 0.35046 0.0
C172 C 0.66546 0.61325 0.41191 0.0
C173 C 0.70465 0.59741 0.38665 0.0
C174 C 0.63179 0.55981 0.37916 0.0
O175 O 0.67125 0.62295 0.39681 0.0
O176 O 0.66117 0.59477 0.41111 0.0
O177 O 0.64877 0.56019 0.38012 0.0
O178 O 0.63317 0.57727 0.37885 0.0
C179 C 0.67021 0.60705 0.34526 0.0
O180 O 0.6877 0.58093 0.3885 0.0
O181 O 0.7032 0.61283 0.38194 0.0
In182 In 0.07191 0.6661 0.8829 0.0
O183 O 0.1064 0.68666 0.88702 0.0
O184 O 0.08889 0.70112 0.88096 0.0
C185 C 0.06942 0.62917 0.8868 0.0
C186 C 0.0623 0.66469 0.84682 0.0
C187 C 0.0517 0.66679 0.91344 0.0
O188 O 0.08617 0.64595 0.88812 0.0
O189 O 0.05387 0.631 0.88368 0.0
O190 O 0.04393 0.66428 0.8975 0.0
O191 O 0.06947 0.66897 0.91382 0.0
C192 C 0.10635 0.70326 0.8844 0.0
O193 O 0.05204 0.66731 0.85928 0.0
O194 O 0.07718 0.66293 0.85264 0.0
In195 In 0.40312 0.07094 0.38259 0.0
O196 O 0.41874 0.10576 0.3853 0.0
O197 O 0.38667 0.08931 0.37935 0.0
C198 C 0.43716 0.06827 0.38876 0.0
C199 C 0.39494 0.06133 0.34652 0.0
C200 C 0.3804 0.0501 0.41219 0.0
O201 O 0.43677 0.08474 0.39108 0.0
O202 O 0.42036 0.05315 0.38349 0.0
O203 O 0.37858 0.04153 0.39675 0.0
O204 O 0.39336 0.06905 0.41253 0.0
C205 C 0.40258 0.10653 0.38219 0.0
O206 O 0.3811 0.0533 0.35872 0.0
O207 O 0.4126 0.07388 0.3526 0.0
In208 In 0.33821 0.40776 0.88415 0.0
O209 O 0.31757 0.42157 0.88789 0.0
O210 O 0.30316 0.38932 0.88309 0.0
C211 C 0.3748 0.44223 0.88952 0.0
C212 C 0.33948 0.40055 0.84778 0.0
C213 C 0.33746 0.38578 0.91387 0.0
O214 O 0.35789 0.44196 0.89067 0.0
O215 O 0.37324 0.4251 0.88578 0.0
O216 O 0.34165 0.38213 0.89789 0.0
O217 O 0.33355 0.40025 0.91469 0.0
C218 C 0.30098 0.40473 0.88594 0.0
O219 O 0.3374 0.38753 0.8599 0.0
O220 O 0.34085 0.41684 0.85408 0.0
In221 In 0.92785 0.3305 0.38134 0.0
O222 O 0.95156 0.33489 0.35895 0.0
O223 O 0.92034 0.32292 0.35117 0.0
C224 C 0.94763 0.3327 0.41313 0.0
C225 C 0.89273 0.29456 0.38646 0.0
C226 C 0.92891 0.36689 0.37996 0.0
O227 O 0.94998 0.3245 0.39879 0.0
O228 O 0.93568 0.3398 0.41123 0.0
O229 O 0.91254 0.35006 0.38277 0.0
O230 O 0.94479 0.36536 0.37774 0.0
C231 C 0.93841 0.32842 0.34609 0.0
O232 O 0.89324 0.31161 0.38571 0.0
O233 O 0.91 0.29565 0.38482 0.0
In234 In 0.06679 0.39687 0.61744 0.0
O235 O 0.09981 0.41084 0.60689 0.0
O236 O 0.0847 0.37983 0.61609 0.0
C237 C 0.06753 0.43302 0.6188 0.0
C238 C 0.05959 0.38706 0.65356 0.0
C239 C 0.04202 0.37683 0.58849 0.0
O240 O 0.0831 0.43164 0.61438 0.0
O241 O 0.05159 0.41611 0.62262 0.0
O242 O 0.04424 0.3673 0.60183 0.0
O243 O 0.05206 0.39611 0.58989 0.0
C244 C 0.10092 0.39484 0.60978 0.0
O245 O 0.04571 0.37803 0.64151 0.0
O246 O 0.07665 0.40075 0.6473 0.0
In247 In 0.66412 0.07012 0.11468 0.0
O248 O 0.66638 0.05122 0.13867 0.0
O249 O 0.65892 0.07442 0.14475 0.0
C250 C 0.66491 0.04917 0.08465 0.0
C251 C 0.70119 0.10468 0.11386 0.0
C252 C 0.62782 0.06861 0.10923 0.0
O253 O 0.65973 0.04088 0.10039 0.0
O254 O 0.66992 0.06788 0.08424 0.0
O255 O 0.64483 0.08521 0.10878 0.0
O256 O 0.62912 0.05276 0.11235 0.0
C257 C 0.66213 0.06056 0.15088 0.0
O258 O 0.68466 0.10449 0.11012 0.0
O259 O 0.69905 0.08737 0.11799 0.0
In260 In 0.59671 0.66881 0.61414 0.0
O261 O 0.61975 0.67381 0.63732 0.0
O262 O 0.58784 0.65632 0.64326 0.0
C263 C 0.61866 0.67239 0.58343 0.0
C264 C 0.59651 0.70452 0.6173 0.0
C265 C 0.56165 0.63347 0.6067 0.0
O266 O 0.62112 0.66513 0.59832 0.0
O267 O 0.60544 0.67803 0.5842 0.0
O268 O 0.56221 0.65039 0.60924 0.0
O269 O 0.57888 0.63436 0.60782 0.0
C270 C 0.60597 0.66383 0.64918 0.0
O271 O 0.58076 0.68779 0.61291 0.0
O272 O 0.61246 0.70328 0.62009 0.0
In273 In 0.92766 0.5966 0.1157 0.0
O274 O 0.89315 0.58235 0.11186 0.0
O275 O 0.91016 0.61391 0.11964 0.0
C276 C 0.92832 0.56141 0.10983 0.0
C277 C 0.93837 0.60528 0.15159 0.0
C278 C 0.94763 0.61846 0.08544 0.0
O279 O 0.91183 0.56198 0.11086 0.0
O280 O 0.9445 0.57862 0.11159 0.0
O281 O 0.95687 0.61994 0.10045 0.0
O282 O 0.9285 0.60623 0.08585 0.0
C283 C 0.89283 0.59857 0.11583 0.0
O284 O 0.94688 0.61868 0.1391 0.0
O285 O 0.92495 0.5878 0.14587 0.0
In286 In 0.33167 0.93459 0.61932 0.0
O287 O 0.34655 0.95895 0.64228 0.0
O288 O 0.31568 0.93541 0.64579 0.0
C289 C 0.32981 0.9516 0.58707 0.0
C290 C 0.29742 0.89754 0.61734 0.0
C291 C 0.36681 0.93295 0.61919 0.0
O292 O 0.33174 0.96052 0.60235 0.0
O293 O 0.32884 0.9344 0.58822 0.0
O294 O 0.35052 0.91928 0.62675 0.0
O295 O 0.36536 0.94739 0.61181 0.0
C296 C 0.33092 0.951 0.65255 0.0
O297 O 0.31509 0.89957 0.61928 0.0
O298 O 0.29712 0.9142 0.61641 0.0
In299 In 0.39978 0.33124 0.12031 0.0
O300 O 0.37475 0.3257 0.14153 0.0
O301 O 0.40592 0.34078 0.15036 0.0
C302 C 0.38085 0.32902 0.08799 0.0
C303 C 0.39988 0.2955 0.12336 0.0
C304 C 0.43426 0.36777 0.1151 0.0
O305 O 0.37657 0.33512 0.10271 0.0
O306 O 0.3943 0.32379 0.08973 0.0
O307 O 0.43427 0.35095 0.11527 0.0
O308 O 0.41685 0.36614 0.1175 0.0
C309 C 0.38736 0.33399 0.15464 0.0
O310 O 0.41619 0.31266 0.12189 0.0
O311 O 0.38352 0.29638 0.1234 0.0
H312 H 0.35783 0.03826 0.32892 0.0
H313 H 0.35184 0.03364 0.29542 0.0
H314 H 0.41723 0.07032 0.28591 0.0
H315 H 0.42324 0.07518 0.31905 0.0
H316 H 0.39619 0.08304 0.26504 0.0
H317 H 0.39113 0.01777 0.28139 0.0
H318 H 0.37618 0.98464 0.29793 0.0
H319 H 0.31711 0.96617 0.27392 0.0
H320 H 0.33167 0.99932 0.25741 0.0
H321 H 0.42205 0.0678 0.17781 0.0
H322 H 0.41606 0.064 0.21101 0.0
H323 H 0.35054 0.03349 0.20185 0.0
H324 H 0.35643 0.03719 0.16827 0.0
H325 H 0.36396 0.01631 0.23169 0.0
H326 H 0.37051 0.08015 0.2122 0.0
H327 H 0.38617 0.11293 0.19509 0.0
H328 H 0.44258 0.13415 0.22514 0.0
H329 H 0.42738 0.10135 0.24222 0.0
C330 C 0.37089 0.04518 0.31964 0.0
C331 C 0.39099 0.05716 0.32657 0.0
C332 C 0.36746 0.0425 0.30054 0.0
C333 C 0.3841 0.05166 0.28819 0.0
C334 C 0.40415 0.06323 0.29519 0.0
C335 C 0.40757 0.06595 0.31414 0.0
C336 C 0.381 0.05008 0.26791 0.0
C337 C 0.38917 0.06844 0.25778 0.0
C338 C 0.37114 0.031 0.25846 0.0
C339 C 0.36243 0.01111 0.26836 0.0
C340 C 0.37492 0.00671 0.27977 0.0
C341 C 0.36652 0.98792 0.28911 0.0
C342 C 0.34569 0.97334 0.28703 0.0
C343 C 0.33323 0.9775 0.27555 0.0
C344 C 0.34154 0.99627 0.26619 0.0
C345 C 0.40633 0.06004 0.18279 0.0
C346 C 0.3897 0.053 0.17047 0.0
C347 C 0.40295 0.05787 0.20177 0.0
C348 C 0.38289 0.04874 0.20883 0.0
C349 C 0.36613 0.04063 0.1966 0.0
C350 C 0.36952 0.04279 0.17748 0.0
C351 C 0.37995 0.0493 0.22898 0.0
C352 C 0.37059 0.03085 0.23903 0.0
C353 C 0.3887 0.0683 0.23845 0.0
C354 C 0.39782 0.08823 0.22843 0.0
C355 C 0.3863 0.09175 0.21508 0.0
C356 C 0.39509 0.11035 0.20539 0.0
C357 C 0.41536 0.12561 0.20901 0.0
C358 C 0.42687 0.12232 0.22235 0.0
C359 C 0.41817 0.10373 0.23206 0.0
H360 H 0.42214 0.13999 0.20148 0.0
H361 H 0.33922 0.9588 0.29427 0.0
H362 H 0.33604 0.36817 0.66909 0.0
H363 H 0.33924 0.36376 0.70236 0.0
H364 H 0.34457 0.42286 0.7128 0.0
H365 H 0.34178 0.42747 0.67987 0.0
H366 H 0.37266 0.41893 0.73189 0.0
H367 H 0.29914 0.37673 0.71954 0.0
H368 H 0.26879 0.34826 0.7044 0.0
H369 H 0.28484 0.30495 0.72631 0.0
H370 H 0.31544 0.33323 0.74141 0.0
H371 H 0.34193 0.42611 0.82022 0.0
H372 H 0.34412 0.42183 0.78714 0.0
H373 H 0.34159 0.36385 0.7966 0.0
H374 H 0.33905 0.36792 0.83007 0.0
H375 H 0.31678 0.36205 0.76765 0.0
H376 H 0.38683 0.40508 0.78537 0.0
H377 H 0.41593 0.43426 0.80115 0.0
H378 H 0.40596 0.47676 0.76931 0.0
H379 H 0.37661 0.44788 0.75355 0.0
C380 C 0.33792 0.38019 0.67853 0.0
C381 C 0.33865 0.39816 0.6719 0.0
C382 C 0.3397 0.37764 0.69751 0.0
C383 C 0.34209 0.39297 0.71007 0.0
C384 C 0.34287 0.41088 0.70338 0.0
C385 C 0.34118 0.41346 0.68453 0.0
C386 C 0.34363 0.39068 0.73028 0.0
C387 C 0.36045 0.40649 0.73971 0.0
C388 C 0.32807 0.37405 0.74044 0.0
C389 C 0.30969 0.3571 0.73139 0.0
C390 C 0.29628 0.36115 0.721 0.0
C391 C 0.27902 0.34505 0.71245 0.0
C392 C 0.27493 0.32482 0.71433 0.0
C393 C 0.28806 0.32064 0.72482 0.0
C394 C 0.30535 0.33669 0.73338 0.0
C395 C 0.34186 0.41243 0.81533 0.0
C396 C 0.34045 0.3974 0.82775 0.0
C397 C 0.3432 0.41005 0.7964 0.0
C398 C 0.34343 0.39272 0.78944 0.0
C399 C 0.34161 0.37742 0.80173 0.0
C400 C 0.34019 0.37977 0.8208 0.0
C401 C 0.34533 0.39084 0.76924 0.0
C402 C 0.32926 0.37422 0.75982 0.0
C403 C 0.36154 0.40681 0.75905 0.0
C404 C 0.37946 0.42427 0.7683 0.0
C405 C 0.39078 0.42065 0.78179 0.0
C406 C 0.40733 0.43714 0.79074 0.0
C407 C 0.41278 0.45735 0.78624 0.0
C408 C 0.40173 0.4611 0.77277 0.0
C409 C 0.38516 0.44467 0.7638 0.0
H410 H 0.42558 0.4701 0.79317 0.0
H411 H 0.26156 0.31237 0.70771 0.0
H412 H 0.97328 0.34189 0.16732 0.0
H413 H 0.98119 0.34379 0.20048 0.0
H414 H 0.91961 0.33066 0.21331 0.0
H415 H 0.91195 0.32942 0.18054 0.0
H416 H 0.94588 0.36103 0.23367 0.0
H417 H 0.9361 0.29392 0.21596 0.0
H418 H 0.94446 0.27089 0.19836 0.0
H419 H 0.00601 0.30254 0.21995 0.0
H420 H 0.99806 0.3259 0.23752 0.0
H421 H 0.91165 0.31348 0.31748 0.0
H422 H 0.91952 0.31723 0.28461 0.0
H423 H 0.9844 0.34736 0.2968 0.0
H424 H 0.97662 0.34375 0.33013 0.0
H425 H 0.96675 0.31527 0.26459 0.0
H426 H 0.97295 0.37861 0.28669 0.0
H427 H 0.96193 0.39899 0.3052 0.0
H428 H 0.90484 0.37241 0.27538 0.0
H429 H 0.91537 0.35161 0.2569 0.0
C430 C 0.96149 0.33941 0.17728 0.0
C431 C 0.94203 0.33558 0.17138 0.0
C432 C 0.96599 0.34043 0.19619 0.0
C433 C 0.95098 0.33732 0.20941 0.0
C434 C 0.93152 0.33329 0.20341 0.0
C435 C 0.92712 0.33252 0.18464 0.0
C436 C 0.95511 0.33834 0.22956 0.0
C437 C 0.95054 0.35107 0.24037 0.0
C438 C 0.96184 0.32587 0.23836 0.0
C439 C 0.96657 0.3118 0.22785 0.0
C440 C 0.95146 0.29606 0.21683 0.0
C441 C 0.95611 0.28293 0.20689 0.0
C442 C 0.97578 0.2853 0.20799 0.0
C443 C 0.99081 0.30075 0.21908 0.0
C444 C 0.98623 0.31393 0.22904 0.0
C445 C 0.92761 0.32068 0.31326 0.0
C446 C 0.94354 0.32853 0.32638 0.0
C447 C 0.93206 0.32275 0.29446 0.0
C448 C 0.95251 0.3327 0.28836 0.0
C449 C 0.96852 0.33961 0.30133 0.0
C450 C 0.96406 0.33759 0.32029 0.0
C451 C 0.95663 0.33726 0.26846 0.0
C452 C 0.96274 0.32566 0.25777 0.0
C453 C 0.95113 0.35064 0.25968 0.0
C454 C 0.94493 0.36349 0.27046 0.0
C455 C 0.958 0.37703 0.28415 0.0
C456 C 0.95184 0.38866 0.29463 0.0
C457 C 0.93269 0.38698 0.29148 0.0
C458 C 0.91968 0.37371 0.2778 0.0
C459 C 0.92575 0.36202 0.2673 0.0
H460 H 0.92794 0.39598 0.29962 0.0
H461 H 0.97935 0.27512 0.20028 0.0
H462 H 0.6448 0.96357 0.66724 0.0
H463 H 0.65471 0.97272 0.69973 0.0
H464 H 0.59225 0.95619 0.71296 0.0
H465 H 0.58235 0.94715 0.68076 0.0
H466 H 0.62014 0.99078 0.73149 0.0
H467 H 0.60854 0.92189 0.71813 0.0
H468 H 0.61584 0.8974 0.70177 0.0
H469 H 0.67844 0.9303 0.72074 0.0
H470 H 0.67155 0.95515 0.73702 0.0
H471 H 0.58577 0.9449 0.81714 0.0
H472 H 0.59426 0.9549 0.78492 0.0
H473 H 0.65737 0.97161 0.79523 0.0
H474 H 0.64891 0.96162 0.82782 0.0
H475 H 0.6404 0.94591 0.76494 0.0
H476 H 0.64799 0.00916 0.78533 0.0
H477 H 0.63929 0.03231 0.80224 0.0
H478 H 0.5837 0.00978 0.77063 0.0
H479 H 0.59188 0.98625 0.75371 0.0
C480 C 0.63331 0.96223 0.67706 0.0
C481 C 0.61277 0.95449 0.67154 0.0
C482 C 0.63897 0.96742 0.69558 0.0
C483 C 0.62417 0.96498 0.70876 0.0
C484 C 0.60393 0.95824 0.70302 0.0
C485 C 0.59826 0.95297 0.68463 0.0
C486 C 0.62893 0.96765 0.72879 0.0
C487 C 0.62469 0.98108 0.73884 0.0
C488 C 0.63552 0.95547 0.73828 0.0
C489 C 0.63962 0.94051 0.72856 0.0
C490 C 0.6239 0.92398 0.71868 0.0
C491 C 0.62795 0.91003 0.70945 0.0
C492 C 0.64761 0.91233 0.71016 0.0
C493 C 0.66324 0.92857 0.72015 0.0
C494 C 0.65927 0.94259 0.72938 0.0
C495 C 0.60152 0.95093 0.81264 0.0
C496 C 0.61668 0.95245 0.82497 0.0
C497 C 0.60639 0.95677 0.79423 0.0
C498 C 0.6265 0.96422 0.78773 0.0
C499 C 0.64179 0.96604 0.80003 0.0
C500 C 0.63696 0.96037 0.8186 0.0
C501 C 0.63072 0.9684 0.76772 0.0
C502 C 0.6366 0.95621 0.75764 0.0
C503 C 0.62556 0.98168 0.75821 0.0
C504 C 0.62055 0.99588 0.76827 0.0
C505 C 0.63384 0.00904 0.78205 0.0
C506 C 0.62901 0.02225 0.79163 0.0
C507 C 0.61095 0.02251 0.78751 0.0
C508 C 0.5977 0.00957 0.77379 0.0
C509 C 0.60245 0.99632 0.76417 0.0
H510 H 0.60723 0.03274 0.79495 0.0
H511 H 0.65072 0.90151 0.70301 0.0
H512 H 0.65614 0.63087 0.32917 0.0
H513 H 0.65566 0.63778 0.29601 0.0
H514 H 0.68506 0.60221 0.28412 0.0
H515 H 0.68568 0.59541 0.31692 0.0
H516 H 0.70173 0.63719 0.26407 0.0
H517 H 0.63344 0.58128 0.27997 0.0
H518 H 0.60053 0.56562 0.29693 0.0
H519 H 0.58849 0.61213 0.27599 0.0
H520 H 0.62148 0.62819 0.25907 0.0
H521 H 0.67338 0.58652 0.1798 0.0
H522 H 0.6755 0.59532 0.21245 0.0
H523 H 0.65503 0.63846 0.20024 0.0
H524 H 0.65313 0.62989 0.16717 0.0
H525 H 0.63461 0.6093 0.23185 0.0
H526 H 0.70097 0.65993 0.21014 0.0
H527 H 0.73316 0.6726 0.19249 0.0
H528 H 0.74849 0.6337 0.22409 0.0
H529 H 0.71623 0.62054 0.24176 0.0
C530 C 0.66265 0.62472 0.31945 0.0
C531 C 0.67086 0.61253 0.32559 0.0
C532 C 0.66232 0.62862 0.30055 0.0
C533 C 0.67025 0.62043 0.28761 0.0
C534 C 0.67894 0.60876 0.29385 0.0
C535 C 0.67919 0.6048 0.31261 0.0
C536 C 0.6689 0.62302 0.26746 0.0
C537 C 0.68707 0.63122 0.25703 0.0
C538 C 0.64981 0.61571 0.25831 0.0
C539 C 0.63003 0.60608 0.26848 0.0
C540 C 0.62385 0.58826 0.27912 0.0
C541 C 0.60518 0.57929 0.28869 0.0
C542 C 0.59247 0.58792 0.28759 0.0
C543 C 0.59838 0.6055 0.27687 0.0
C544 C 0.61706 0.61453 0.26728 0.0
C545 C 0.66929 0.59787 0.184 0.0
C546 C 0.66312 0.60755 0.17095 0.0
C547 C 0.67057 0.60291 0.20265 0.0
C548 C 0.66557 0.61763 0.20867 0.0
C549 C 0.659 0.62711 0.19578 0.0
C550 C 0.65798 0.62224 0.17696 0.0
C551 C 0.66736 0.62278 0.22855 0.0
C552 C 0.64932 0.61597 0.23892 0.0
C553 C 0.68655 0.63116 0.23767 0.0
C554 C 0.70611 0.63919 0.22723 0.0
C555 C 0.71114 0.65397 0.21325 0.0
C556 C 0.72941 0.66126 0.20325 0.0
C557 C 0.74285 0.65395 0.20715 0.0
C558 C 0.73807 0.63936 0.22109 0.0
C559 C 0.7198 0.63201 0.23113 0.0
H560 H 0.75699 0.6596 0.19939 0.0
H561 H 0.57801 0.58095 0.29501 0.0
H562 H 0.08462 0.65804 0.68148 0.0
H563 H 0.07588 0.65618 0.71405 0.0
H564 H 0.02619 0.6672 0.70065 0.0
H565 H 0.03495 0.66913 0.66764 0.0
H566 H 0.05099 0.69072 0.73125 0.0
H567 H 0.01283 0.62071 0.71264 0.0
H568 H 0.00694 0.58921 0.69665 0.0
H569 H 0.05371 0.58778 0.72974 0.0
H570 H 0.06011 0.61945 0.74575 0.0
H571 H 0.03283 0.6705 0.82977 0.0
H572 H 0.02556 0.66859 0.79645 0.0
H573 H 0.07372 0.65439 0.78599 0.0
H574 H 0.08094 0.65619 0.81892 0.0
H575 H 0.03871 0.62911 0.7669 0.0
H576 H 0.08172 0.70257 0.77976 0.0
H577 H 0.08939 0.735 0.7951 0.0
H578 H 0.0341 0.73 0.77261 0.0
H579 H 0.026 0.69739 0.75731 0.0
C580 C 0.07182 0.66008 0.68539 0.0
C581 C 0.06041 0.66364 0.67199 0.0
C582 C 0.0668 0.65894 0.70402 0.0
C583 C 0.05022 0.66127 0.70971 0.0
C584 C 0.03897 0.66525 0.69648 0.0
C585 C 0.04396 0.6663 0.67768 0.0
C586 C 0.04511 0.65957 0.72963 0.0
C587 C 0.04772 0.67706 0.73905 0.0
C588 C 0.04098 0.64179 0.73975 0.0
C589 C 0.03698 0.62251 0.73037 0.0
C590 C 0.02193 0.61374 0.71645 0.0
C591 C 0.01849 0.59585 0.70739 0.0
C592 C 0.02995 0.58651 0.71217 0.0
C593 C 0.04483 0.59502 0.72606 0.0
C594 C 0.04834 0.61292 0.73517 0.0
C595 C 0.0418 0.66694 0.82031 0.0
C596 C 0.05747 0.66353 0.82692 0.0
C597 C 0.03765 0.66588 0.80133 0.0
C598 C 0.04911 0.66135 0.78877 0.0
C599 C 0.06461 0.65778 0.79544 0.0
C600 C 0.06878 0.65892 0.81428 0.0
C601 C 0.04557 0.66056 0.76857 0.0
C602 C 0.04129 0.64254 0.7591 0.0
C603 C 0.04822 0.67785 0.75845 0.0
C604 C 0.05312 0.69743 0.76762 0.0
C605 C 0.07112 0.7083 0.77823 0.0
C606 C 0.07556 0.72673 0.78688 0.0
C607 C 0.0622 0.73452 0.78489 0.0
C608 C 0.04441 0.72392 0.77418 0.0
C609 C 0.03988 0.70548 0.76551 0.0
H610 H 0.06567 0.74879 0.7916 0.0
H611 H 0.02728 0.57266 0.70512 0.0
H612 H 0.91993 0.57868 0.1799 0.0
H613 H 0.92453 0.58589 0.21288 0.0
H614 H 0.97092 0.64872 0.20171 0.0
H615 H 0.9663 0.64162 0.16829 0.0
H616 H 0.97997 0.62761 0.23205 0.0
H617 H 0.92888 0.64391 0.21298 0.0
H618 H 0.89791 0.63816 0.19608 0.0
H619 H 0.8611 0.58269 0.22687 0.0
H620 H 0.89191 0.58792 0.24376 0.0
H621 H 0.96734 0.63965 0.33017 0.0
H622 H 0.97179 0.64682 0.2968 0.0
H623 H 0.92007 0.5865 0.28583 0.0
H624 H 0.91554 0.57933 0.31881 0.0
H625 H 0.91778 0.61613 0.26624 0.0
H626 H 0.96879 0.59622 0.28053 0.0
H627 H 0.99943 0.59979 0.29655 0.0
H628 H 0.03595 0.66073 0.27452 0.0
H629 H 0.00543 0.6576 0.25855 0.0
C630 C 0.93124 0.59402 0.18438 0.0
C631 C 0.94266 0.60964 0.1715 0.0
C632 C 0.93383 0.5981 0.20325 0.0
C633 C 0.94789 0.61787 0.20967 0.0
C634 C 0.95995 0.63338 0.19695 0.0
C635 C 0.95727 0.62932 0.17793 0.0
C636 C 0.949 0.62205 0.22973 0.0
C637 C 0.96661 0.62568 0.23956 0.0
C638 C 0.93144 0.61929 0.23943 0.0
C639 C 0.91275 0.61627 0.22959 0.0
C640 C 0.9142 0.63042 0.21608 0.0
C641 C 0.89667 0.62726 0.20651 0.0
C642 C 0.87755 0.61006 0.21038 0.0
C643 C 0.87592 0.59601 0.22389 0.0
C644 C 0.89341 0.59909 0.23349 0.0
C645 C 0.95698 0.62797 0.32059 0.0
C646 C 0.9411 0.60894 0.32708 0.0
C647 C 0.95954 0.63206 0.30158 0.0
C648 C 0.94624 0.61718 0.28886 0.0
C649 C 0.93043 0.59824 0.2954 0.0
C650 C 0.92792 0.59414 0.31427 0.0
C651 C 0.94848 0.6209 0.26866 0.0
C652 C 0.93141 0.61873 0.25878 0.0
C653 C 0.96649 0.62491 0.25897 0.0
C654 C 0.98479 0.62679 0.26857 0.0
C655 C 0.98332 0.61045 0.27925 0.0
C656 C 0.00066 0.61238 0.28829 0.0
C657 C 0.01961 0.63051 0.28661 0.0
C658 C 0.02125 0.64672 0.27585 0.0
C659 C 0.00394 0.64488 0.2668 0.0
H660 H 0.03302 0.63196 0.29361 0.0
H661 H 0.864 0.60762 0.20293 0.0
H662 H 0.35765 0.97621 0.8302 0.0
H663 H 0.35857 0.98415 0.7972 0.0
H664 H 0.31258 0.92094 0.78646 0.0
H665 H 0.31232 0.91284 0.81909 0.0
H666 H 0.34127 0.93186 0.76284 0.0
H667 H 0.30278 0.96273 0.78609 0.0
H668 H 0.2965 0.98594 0.80566 0.0
H669 H 0.34968 0.03827 0.78272 0.0
H670 H 0.35643 0.01534 0.76317 0.0
H671 H 0.29984 0.93332 0.67753 0.0
H672 H 0.3025 0.93833 0.71094 0.0
H673 H 0.36521 0.98749 0.70512 0.0
H674 H 0.36283 0.98238 0.6715 0.0
H675 H 0.33235 0.98794 0.73639 0.0
H676 H 0.37014 0.95419 0.71356 0.0
H677 H 0.37252 0.92932 0.69287 0.0
H678 H 0.31612 0.88047 0.71515 0.0
H679 H 0.31326 0.90516 0.73574 0.0
C680 C 0.34768 0.96409 0.82075 0.0
C681 C 0.335 0.94389 0.82713 0.0
C682 C 0.34813 0.96866 0.80193 0.0
C683 C 0.33557 0.95317 0.78931 0.0
C684 C 0.32254 0.93313 0.79586 0.0
C685 C 0.32236 0.92852 0.81453 0.0
C686 C 0.3365 0.95729 0.76914 0.0
C687 C 0.33928 0.94415 0.75718 0.0
C688 C 0.33428 0.97353 0.76159 0.0
C689 C 0.33025 0.98731 0.77334 0.0
C690 C 0.31323 0.97918 0.78533 0.0
C691 C 0.30957 0.99228 0.7964 0.0
C692 C 0.32272 0.01356 0.79548 0.0
C693 C 0.33953 0.02178 0.78345 0.0
C694 C 0.34328 0.00874 0.77236 0.0
C695 C 0.31404 0.9456 0.68326 0.0
C696 C 0.33123 0.95728 0.67194 0.0
C697 C 0.31548 0.94848 0.70234 0.0
C698 C 0.33405 0.96322 0.71039 0.0
C699 C 0.35072 0.97614 0.69906 0.0
C700 C 0.34936 0.97313 0.6799 0.0
C701 C 0.33684 0.96237 0.73049 0.0
C702 C 0.33471 0.976 0.74229 0.0
C703 C 0.33939 0.94644 0.73802 0.0
C704 C 0.34141 0.93152 0.72605 0.0
C705 C 0.35819 0.93816 0.71394 0.0
C706 C 0.35963 0.92411 0.70225 0.0
C707 C 0.34445 0.90334 0.70266 0.0
C708 C 0.32785 0.89657 0.71483 0.0
C709 C 0.32632 0.91058 0.72652 0.0
H710 H 0.34558 0.89248 0.69359 0.0
H711 H 0.31986 0.02368 0.80406 0.0
H712 H 0.35089 0.31541 0.33122 0.0
H713 H 0.34109 0.31538 0.29877 0.0
H714 H 0.40451 0.35792 0.2852 0.0
H715 H 0.41432 0.35798 0.31729 0.0
H716 H 0.37772 0.36776 0.26795 0.0
H717 H 0.3849 0.30719 0.27911 0.0
H718 H 0.3754 0.27429 0.29452 0.0
H719 H 0.31309 0.24902 0.27567 0.0
H720 H 0.32221 0.28189 0.26035 0.0
H721 H 0.41223 0.35713 0.18254 0.0
H722 H 0.40303 0.35781 0.21467 0.0
H723 H 0.33948 0.3144 0.20234 0.0
H724 H 0.34867 0.31369 0.16982 0.0
H725 H 0.35426 0.30314 0.23259 0.0
H726 H 0.3509 0.36161 0.21387 0.0
H727 H 0.36156 0.39444 0.1979 0.0
H728 H 0.41677 0.42395 0.23044 0.0
H729 H 0.40663 0.39124 0.24643 0.0
C730 C 0.36265 0.3249 0.32131 0.0
C731 C 0.38338 0.33658 0.32671 0.0
C732 C 0.35704 0.32486 0.30283 0.0
C733 C 0.3721 0.33661 0.28961 0.0
C734 C 0.39264 0.34883 0.29519 0.0
C735 C 0.39824 0.34874 0.31352 0.0
C736 C 0.36717 0.33536 0.26967 0.0
C737 C 0.37245 0.35363 0.26018 0.0
C738 C 0.35958 0.31676 0.25966 0.0
C739 C 0.35415 0.29704 0.26883 0.0
C740 C 0.36914 0.29466 0.2784 0.0
C741 C 0.36383 0.27602 0.28708 0.0
C742 C 0.34364 0.2596 0.28614 0.0
C743 C 0.32872 0.26177 0.27644 0.0
C744 C 0.33394 0.2804 0.26776 0.0
C745 C 0.39624 0.34789 0.18658 0.0
C746 C 0.38116 0.33533 0.1737 0.0
C747 C 0.39098 0.34841 0.20493 0.0
C748 C 0.37053 0.33635 0.21084 0.0
C749 C 0.35531 0.32393 0.19799 0.0
C750 C 0.36057 0.32357 0.17947 0.0
C751 C 0.36581 0.33578 0.23078 0.0
C752 C 0.35875 0.31716 0.24031 0.0
C753 C 0.3718 0.35409 0.24082 0.0
C754 C 0.37799 0.37391 0.23134 0.0
C755 C 0.36538 0.37506 0.21756 0.0
C756 C 0.37132 0.39366 0.2085 0.0
C757 C 0.38983 0.41126 0.21315 0.0
C758 C 0.40242 0.41031 0.22687 0.0
C759 C 0.39656 0.39174 0.23596 0.0
H760 H 0.39441 0.42565 0.20612 0.0
H761 H 0.33956 0.24517 0.29286 0.0
H762 H 0.08752 0.40589 0.68085 0.0
H763 H 0.08317 0.39878 0.71379 0.0
H764 H 0.02061 0.35036 0.70468 0.0
H765 H 0.02479 0.35771 0.67132 0.0
H766 H 0.02364 0.37465 0.73393 0.0
H767 H 0.05636 0.33744 0.71579 0.0
H768 H 0.08158 0.33125 0.69943 0.0
H769 H 0.13085 0.38035 0.72973 0.0
H770 H 0.10597 0.38704 0.74612 0.0
H771 H 0.03053 0.36127 0.83252 0.0
H772 H 0.02446 0.35231 0.79953 0.0
H773 H 0.08503 0.40264 0.78678 0.0
H774 H 0.09113 0.41163 0.81942 0.0
H775 H 0.07624 0.36668 0.76871 0.0
H776 H 0.04356 0.40784 0.7811 0.0
H777 H 0.01849 0.41475 0.79684 0.0
H778 H 0.96885 0.35735 0.77701 0.0
H779 H 0.99369 0.34999 0.76134 0.0
C780 C 0.07282 0.39366 0.68577 0.0
C781 C 0.05651 0.38229 0.67349 0.0
C782 C 0.0704 0.38953 0.70463 0.0
C783 C 0.05171 0.37376 0.71165 0.0
C784 C 0.03522 0.36248 0.69949 0.0
C785 C 0.03763 0.36667 0.68049 0.0
C786 C 0.04961 0.36989 0.73183 0.0
C787 C 0.03477 0.37232 0.74154 0.0
C788 C 0.06419 0.36692 0.74175 0.0
C789 C 0.07926 0.36276 0.73217 0.0
C790 C 0.07258 0.34698 0.71892 0.0
C791 C 0.08682 0.34338 0.70964 0.0
C792 C 0.1078 0.3554 0.71354 0.0
C793 C 0.11458 0.37103 0.72676 0.0
C794 C 0.10041 0.3747 0.73608 0.0
C795 C 0.04252 0.37035 0.82264 0.0
C796 C 0.06127 0.38719 0.8285 0.0
C797 C 0.03904 0.36523 0.80385 0.0
C798 C 0.05431 0.37684 0.79075 0.0
C799 C 0.07309 0.39343 0.79668 0.0
C800 C 0.07651 0.39862 0.81533 0.0
C801 C 0.0509 0.37238 0.77072 0.0
C802 C 0.06471 0.36834 0.76108 0.0
C803 C 0.03535 0.37378 0.76089 0.0
C804 C 0.02047 0.37824 0.77027 0.0
C805 C 0.02731 0.39661 0.78024 0.0
C806 C 0.01314 0.40063 0.78912 0.0
C807 C 0.99209 0.38646 0.78798 0.0
C808 C 0.98516 0.36828 0.77792 0.0
C809 C 0.99927 0.36418 0.76903 0.0
H810 H 0.98115 0.3896 0.79486 0.0
H811 H 0.11879 0.35258 0.70634 0.0
H812 H 0.6709 0.03296 0.32906 0.0
H813 H 0.66924 0.02642 0.29564 0.0
H814 H 0.65092 0.07181 0.28642 0.0
H815 H 0.65234 0.07821 0.31951 0.0
H816 H 0.62751 0.03742 0.26675 0.0
H817 H 0.70052 0.08249 0.27942 0.0
H818 H 0.73346 0.09157 0.29453 0.0
H819 H 0.73108 0.03765 0.27158 0.0
H820 H 0.69797 0.02813 0.25652 0.0
H821 H 0.65228 0.07849 0.17851 0.0
H822 H 0.65075 0.07171 0.21152 0.0
H823 H 0.66798 0.02562 0.20176 0.0
H824 H 0.66976 0.03253 0.16838 0.0
H825 H 0.68944 0.05134 0.23078 0.0
H826 H 0.61933 0.01013 0.21333 0.0
H827 H 0.58689 0.002 0.19777 0.0
H828 H 0.58362 0.0486 0.22953 0.0
H829 H 0.6162 0.05724 0.24509 0.0
C830 C 0.66649 0.04148 0.31986 0.0
C831 C 0.66178 0.05612 0.32688 0.0
C832 C 0.66559 0.03777 0.3008 0.0
C833 C 0.66001 0.04868 0.28854 0.0
C834 C 0.65517 0.06314 0.29562 0.0
C835 C 0.65607 0.06684 0.31455 0.0
C836 C 0.65933 0.0455 0.26826 0.0
C837 C 0.64104 0.04046 0.25887 0.0
C838 C 0.67678 0.04872 0.25803 0.0
C839 C 0.69666 0.05447 0.26706 0.0
C840 C 0.70694 0.07249 0.27773 0.0
C841 C 0.72565 0.07773 0.28626 0.0
C842 C 0.73432 0.06515 0.28407 0.0
C843 C 0.72433 0.04735 0.2733 0.0
C844 C 0.70559 0.04203 0.26476 0.0
C845 C 0.65569 0.06684 0.18332 0.0
C846 C 0.66106 0.05597 0.17084 0.0
C847 C 0.65471 0.06292 0.20221 0.0
C848 C 0.65893 0.04793 0.20908 0.0
C849 C 0.66454 0.03716 0.19671 0.0
C850 C 0.6655 0.04108 0.17769 0.0
C851 C 0.65785 0.04415 0.22927 0.0
C852 C 0.67574 0.04779 0.23864 0.0
C853 C 0.64003 0.03966 0.23953 0.0
C854 C 0.62028 0.03439 0.23033 0.0
C855 C 0.61176 0.01873 0.21693 0.0
C856 C 0.59333 0.01402 0.20811 0.0
C857 C 0.58321 0.02479 0.21265 0.0
C858 C 0.59147 0.04026 0.22604 0.0
C859 C 0.60991 0.04505 0.23489 0.0
H860 H 0.56895 0.02112 0.2058 0.0
H861 H 0.74882 0.06924 0.29068 0.0
H862 H 0.64284 0.68483 0.66748 0.0
H863 H 0.64852 0.68472 0.7009 0.0
H864 H 0.58462 0.63884 0.70824 0.0
H865 H 0.57882 0.63914 0.67514 0.0
H866 H 0.59569 0.67121 0.73032 0.0
H867 H 0.62355 0.62759 0.71313 0.0
H868 H 0.64718 0.61927 0.69655 0.0
H869 H 0.69901 0.6708 0.72203 0.0
H870 H 0.67569 0.67959 0.73859 0.0
H871 H 0.58345 0.63658 0.81973 0.0
H872 H 0.58804 0.63689 0.78638 0.0
H873 H 0.65082 0.68614 0.79197 0.0
H874 H 0.6464 0.68566 0.82569 0.0
H875 H 0.64504 0.65695 0.76364 0.0
H876 H 0.61738 0.69947 0.78206 0.0
H877 H 0.59392 0.70773 0.79901 0.0
H878 H 0.54211 0.65894 0.77083 0.0
H879 H 0.56524 0.65017 0.75392 0.0
C880 C 0.63012 0.67451 0.67624 0.0
C881 C 0.61035 0.66212 0.66877 0.0
C882 C 0.63339 0.67442 0.69529 0.0
C883 C 0.61697 0.6618 0.70705 0.0
C884 C 0.59748 0.64879 0.69943 0.0
C885 C 0.59419 0.64896 0.68051 0.0
C886 C 0.61936 0.66314 0.72742 0.0
C887 C 0.60637 0.66791 0.73757 0.0
C888 C 0.63389 0.65969 0.73687 0.0
C889 C 0.64789 0.65439 0.72693 0.0
C890 C 0.64 0.63726 0.71507 0.0
C891 C 0.65333 0.63243 0.7057 0.0
C892 C 0.67459 0.64454 0.70819 0.0
C893 C 0.68255 0.66146 0.72009 0.0
C894 C 0.66928 0.66636 0.72948 0.0
C895 C 0.59836 0.64725 0.81393 0.0
C896 C 0.61449 0.6613 0.82524 0.0
C897 C 0.60096 0.6474 0.79487 0.0
C898 C 0.61964 0.66179 0.78672 0.0
C899 C 0.63627 0.67497 0.79804 0.0
C900 C 0.63371 0.67471 0.81724 0.0
C901 C 0.62079 0.6642 0.76638 0.0
C902 C 0.63451 0.66039 0.7563 0.0
C903 C 0.60699 0.66864 0.75688 0.0
C904 C 0.59304 0.67408 0.76681 0.0
C905 C 0.60097 0.69042 0.77956 0.0
C906 C 0.58774 0.6952 0.78915 0.0
C907 C 0.56654 0.68385 0.78602 0.0
C908 C 0.55854 0.66772 0.77324 0.0
C909 C 0.57171 0.66285 0.76363 0.0
H910 H 0.55631 0.68756 0.79347 0.0
H911 H 0.68488 0.64077 0.70093 0.0
H912 H 0.36849 0.11014 0.12319 0.0
H913 H 0.36802 0.14243 0.12536 0.0
H914 H 0.43382 0.17663 0.11759 0.0
H915 H 0.43443 0.14437 0.11551 0.0
H916 H 0.42113 0.19258 0.14544 0.0
H917 H 0.40285 0.17112 0.08234 0.0
H918 H 0.38283 0.147 0.05736 0.0
H919 H 0.32768 0.14419 0.07754 0.0
H920 H 0.34734 0.16808 0.10282 0.0
H921 H 0.43304 0.28984 0.1221 0.0
H922 H 0.43293 0.25721 0.12258 0.0
H923 H 0.36676 0.22427 0.12755 0.0
H924 H 0.36675 0.25687 0.12679 0.0
H925 H 0.37908 0.20729 0.10181 0.0
H926 H 0.39731 0.22941 0.16446 0.0
H927 H 0.41719 0.25339 0.18957 0.0
H928 H 0.47212 0.25488 0.17057 0.0
H929 H 0.45262 0.23112 0.14518 0.0
C930 C 0.38285 0.12454 0.12196 0.0
C931 C 0.40148 0.12476 0.11909 0.0
C932 C 0.38256 0.14295 0.12316 0.0
C933 C 0.40086 0.16189 0.12146 0.0
C934 C 0.41953 0.16216 0.11891 0.0
C935 C 0.41983 0.14374 0.11766 0.0
C936 C 0.40052 0.18143 0.12216 0.0
C937 C 0.41214 0.19594 0.13578 0.0
C938 C 0.38837 0.18552 0.10981 0.0
C939 C 0.37653 0.17122 0.09458 0.0
C940 C 0.38643 0.16522 0.08155 0.0
C941 C 0.37515 0.15162 0.06732 0.0
C942 C 0.35398 0.14402 0.0659 0.0
C943 C 0.34407 0.15006 0.07868 0.0
C944 C 0.35527 0.16365 0.09295 0.0
C945 C 0.41848 0.27565 0.12341 0.0
C946 C 0.3999 0.27588 0.12442 0.0
C947 C 0.41845 0.25703 0.12375 0.0
C948 C 0.39985 0.23833 0.12529 0.0
C949 C 0.38128 0.23854 0.12638 0.0
C950 C 0.3813 0.25715 0.12599 0.0
C951 C 0.39972 0.21852 0.1251 0.0
C952 C 0.38802 0.20394 0.11154 0.0
C953 C 0.41177 0.21437 0.13753 0.0
C954 C 0.42353 0.22863 0.15281 0.0
C955 C 0.41366 0.23498 0.16554 0.0
C956 C 0.42485 0.24851 0.17985 0.0
C957 C 0.44591 0.25569 0.18164 0.0
C958 C 0.45581 0.24932 0.16915 0.0
C959 C 0.44469 0.23581 0.15481 0.0
H960 H 0.45455 0.26617 0.19272 0.0
H961 H 0.34528 0.1335 0.05487 0.0
H962 H 0.10763 0.36346 0.61879 0.0
H963 H 0.14029 0.36364 0.61799 0.0
H964 H 0.17027 0.42491 0.5951 0.0
H965 H 0.13759 0.42485 0.59585 0.0
H966 H 0.18273 0.39931 0.57852 0.0
H967 H 0.17476 0.4198 0.63944 0.0
H968 H 0.15658 0.41637 0.66875 0.0
H969 H 0.15503 0.35944 0.67999 0.0
H970 H 0.17298 0.36239 0.65058 0.0
H971 H 0.28653 0.43218 0.60061 0.0
H972 H 0.25243 0.42869 0.59844 0.0
H973 H 0.22548 0.36839 0.62312 0.0
H974 H 0.25965 0.37181 0.62541 0.0
H975 H 0.21076 0.39198 0.63838 0.0
H976 H 0.22034 0.37245 0.5779 0.0
H977 H 0.23854 0.37616 0.54854 0.0
H978 H 0.23714 0.43146 0.53644 0.0
H979 H 0.2192 0.42825 0.56587 0.0
C980 C 0.12112 0.37688 0.61338 0.0
C981 C 0.12012 0.3942 0.60749 0.0
C982 C 0.13976 0.37698 0.61299 0.0
C983 C 0.15769 0.39438 0.6067 0.0
C984 C 0.15657 0.41135 0.60004 0.0
C985 C 0.13793 0.41131 0.60052 0.0
C986 C 0.17778 0.39522 0.60788 0.0
C987 C 0.18899 0.39793 0.59161 0.0
C988 C 0.18566 0.39296 0.62495 0.0
C989 C 0.17502 0.39121 0.64271 0.0
C990 C 0.1704 0.40646 0.64809 0.0
C991 C 0.16016 0.40462 0.66473 0.0
C992 C 0.15461 0.38767 0.6762 0.0
C993 C 0.15932 0.37255 0.67107 0.0
C994 C 0.16954 0.3743 0.65443 0.0
C995 C 0.27335 0.41817 0.60557 0.0
C996 C 0.27573 0.40224 0.61314 0.0
C997 C 0.25388 0.41616 0.60425 0.0
C998 C 0.23643 0.39819 0.61044 0.0
C999 C 0.23877 0.38235 0.61822 0.0
C1000 C 0.25826 0.38431 0.61948 0.0
C1001 C 0.21579 0.39613 0.60901 0.0
C1002 C 0.20448 0.39323 0.62526 0.0
C1003 C 0.20784 0.39825 0.59192 0.0
C1004 C 0.21859 0.40021 0.57418 0.0
C1005 C 0.22407 0.3855 0.56905 0.0
C1006 C 0.23431 0.38749 0.55238 0.0
C1007 C 0.23904 0.40406 0.54065 0.0
C1008 C 0.23349 0.41864 0.54555 0.0
C1009 C 0.22327 0.41673 0.56222 0.0
H1010 H 0.24696 0.40558 0.52775 0.0
H1011 H 0.14671 0.3863 0.68909 0.0
H1012 H 0.8541 0.28766 0.10358 0.0
H1013 H 0.82248 0.25429 0.10352 0.0
H1014 H 0.85587 0.22556 0.12444 0.0
H1015 H 0.88774 0.25897 0.12426 0.0
H1016 H 0.82908 0.20273 0.09721 0.0
H1017 H 0.82659 0.23544 0.15324 0.0
H1018 H 0.8283 0.26351 0.17226 0.0
H1019 H 0.77722 0.26011 0.14242 0.0
H1020 H 0.77539 0.2322 0.12304 0.0
H1021 H 0.73863 0.10941 0.12312 0.0
H1022 H 0.77193 0.14132 0.12322 0.0
H1023 H 0.74263 0.17476 0.10379 0.0
H1024 H 0.7093 0.14303 0.10399 0.0
H1025 H 0.76822 0.19457 0.13156 0.0
H1026 H 0.77134 0.16264 0.0749 0.0
H1027 H 0.76973 0.13475 0.05567 0.0
H1028 H 0.81952 0.13666 0.08657 0.0
H1029 H 0.82124 0.16439 0.10616 0.0
C1030 C 0.85474 0.27424 0.10813 0.0
C1031 C 0.87335 0.27593 0.11403 0.0
C1032 C 0.83665 0.2552 0.10815 0.0
C1033 C 0.83678 0.23751 0.11423 0.0
C1034 C 0.85544 0.23905 0.11975 0.0
C1035 C 0.87359 0.25813 0.11969 0.0
C1036 C 0.81735 0.2175 0.11502 0.0
C1037 C 0.81585 0.20083 0.10494 0.0
C1038 C 0.80001 0.21516 0.12485 0.0
C1039 C 0.80097 0.23184 0.13658 0.0
C1040 C 0.81582 0.24077 0.15065 0.0
C1041 C 0.81679 0.25664 0.16151 0.0
C1042 C 0.8029 0.26362 0.15853 0.0
C1043 C 0.78797 0.2547 0.14471 0.0
C1044 C 0.78695 0.23884 0.13379 0.0
C1045 C 0.73932 0.12356 0.11882 0.0
C1046 C 0.72139 0.12375 0.11355 0.0
C1047 C 0.75835 0.14176 0.11881 0.0
C1048 C 0.75978 0.16039 0.11335 0.0
C1049 C 0.74187 0.16056 0.10806 0.0
C1050 C 0.72286 0.14242 0.10814 0.0
C1051 C 0.77982 0.17985 0.11354 0.0
C1052 C 0.78145 0.19642 0.12387 0.0
C1053 C 0.79724 0.18207 0.10393 0.0
C1054 C 0.79627 0.16544 0.09212 0.0
C1055 C 0.78184 0.157 0.07769 0.0
C1056 C 0.78092 0.14124 0.06671 0.0
C1057 C 0.79447 0.13389 0.06993 0.0
C1058 C 0.80901 0.14234 0.08411 0.0
C1059 C 0.80997 0.15809 0.09515 0.0
H1060 H 0.79374 0.12169 0.06141 0.0
H1061 H 0.80369 0.27591 0.16695 0.0
H1062 H 0.62839 0.74239 0.62667 0.0
H1063 H 0.62801 0.77477 0.62852 0.0
H1064 H 0.5638 0.74297 0.61331 0.0
H1065 H 0.56414 0.71063 0.61124 0.0
H1066 H 0.58547 0.7779 0.59375 0.0
H1067 H 0.57839 0.75784 0.65756 0.0
H1068 H 0.58795 0.74719 0.6864 0.0
H1069 H 0.64601 0.80352 0.68697 0.0
H1070 H 0.63691 0.81438 0.65798 0.0
H1071 H 0.56142 0.85518 0.61492 0.0
H1072 H 0.56248 0.82316 0.61529 0.0
H1073 H 0.6267 0.85687 0.63035 0.0
H1074 H 0.62568 0.88898 0.63025 0.0
H1075 H 0.60588 0.82146 0.65005 0.0
H1076 H 0.61304 0.84158 0.5864 0.0
H1077 H 0.60364 0.85231 0.55752 0.0
H1078 H 0.5457 0.79586 0.55654 0.0
H1079 H 0.55463 0.78492 0.58557 0.0
C1080 C 0.61419 0.74231 0.62378 0.0
C1081 C 0.59629 0.72401 0.61882 0.0
C1082 C 0.61397 0.76078 0.62492 0.0
C1083 C 0.59583 0.76122 0.6212 0.0
C1084 C 0.57796 0.74296 0.61623 0.0
C1085 C 0.57816 0.72449 0.6151 0.0
C1086 C 0.59555 0.7808 0.62202 0.0
C1087 C 0.58967 0.78729 0.60613 0.0
C1088 C 0.60157 0.7933 0.63803 0.0
C1089 C 0.60705 0.78682 0.65549 0.0
C1090 C 0.59327 0.76788 0.66375 0.0
C1091 C 0.59859 0.76182 0.68014 0.0
C1092 C 0.6176 0.77465 0.68848 0.0
C1093 C 0.63131 0.79359 0.68048 0.0
C1094 C 0.62607 0.79971 0.66407 0.0
C1095 C 0.57575 0.85577 0.61838 0.0
C1096 C 0.5935 0.87458 0.62244 0.0
C1097 C 0.57635 0.83748 0.61853 0.0
C1098 C 0.59475 0.8377 0.6226 0.0
C1099 C 0.61237 0.85639 0.62713 0.0
C1100 C 0.61177 0.87471 0.627 0.0
C1101 C 0.59564 0.81844 0.62182 0.0
C1102 C 0.60169 0.81205 0.63767 0.0
C1103 C 0.5898 0.80602 0.60576 0.0
C1104 C 0.58443 0.81252 0.58826 0.0
C1105 C 0.59822 0.83153 0.5801 0.0
C1106 C 0.59299 0.83763 0.56369 0.0
C1107 C 0.57406 0.8248 0.55522 0.0
C1108 C 0.56035 0.8058 0.56313 0.0
C1109 C 0.56549 0.79963 0.57955 0.0
H1110 H 0.57004 0.82955 0.54252 0.0
H1111 H 0.62169 0.76993 0.70117 0.0
H1112 H 0.73761 0.6296 0.12033 0.0
H1113 H 0.77116 0.63157 0.1212 0.0
H1114 H 0.74192 0.5665 0.10985 0.0
H1115 H 0.70833 0.56437 0.10922 0.0
H1116 H 0.76957 0.57745 0.13739 0.0
H1117 H 0.76788 0.60212 0.07623 0.0
H1118 H 0.76422 0.62457 0.0535 0.0
H1119 H 0.81525 0.67764 0.07811 0.0
H1120 H 0.81903 0.65552 0.10114 0.0
H1121 H 0.85392 0.5671 0.10954 0.0
H1122 H 0.82199 0.56832 0.11023 0.0
H1123 H 0.85626 0.63303 0.12337 0.0
H1124 H 0.88837 0.63196 0.1226 0.0
H1125 H 0.82718 0.62427 0.09647 0.0
H1126 H 0.83007 0.59988 0.15667 0.0
H1127 H 0.83411 0.57773 0.17946 0.0
H1128 H 0.78118 0.52465 0.15709 0.0
H1129 H 0.777 0.54645 0.13398 0.0
C1130 C 0.73835 0.61573 0.11796 0.0
C1131 C 0.72037 0.59684 0.11466 0.0
C1132 C 0.75752 0.6169 0.11841 0.0
C1133 C 0.75904 0.59921 0.11543 0.0
C1134 C 0.74108 0.58033 0.11219 0.0
C1135 C 0.72192 0.57915 0.11177 0.0
C1136 C 0.77929 0.60027 0.11588 0.0
C1137 C 0.78209 0.58752 0.1283 0.0
C1138 C 0.79582 0.61388 0.10441 0.0
C1139 C 0.7936 0.62718 0.09053 0.0
C1140 C 0.77822 0.61859 0.07688 0.0
C1141 C 0.77614 0.63126 0.06393 0.0
C1142 C 0.78946 0.65253 0.06439 0.0
C1143 C 0.80492 0.66117 0.07778 0.0
C1144 C 0.80705 0.64857 0.09078 0.0
C1145 C 0.85467 0.5816 0.11258 0.0
C1146 C 0.87361 0.59943 0.11608 0.0
C1147 C 0.83642 0.58225 0.11303 0.0
C1148 C 0.83677 0.60072 0.11705 0.0
C1149 C 0.85569 0.61863 0.12028 0.0
C1150 C 0.87398 0.61797 0.11989 0.0
C1151 C 0.81731 0.60122 0.11777 0.0
C1152 C 0.81468 0.61429 0.10562 0.0
C1153 C 0.80095 0.58795 0.12952 0.0
C1154 C 0.80332 0.57479 0.14348 0.0
C1155 C 0.81938 0.58346 0.15652 0.0
C1156 C 0.82168 0.57097 0.16951 0.0
C1157 C 0.80793 0.54979 0.16969 0.0
C1158 C 0.79182 0.54106 0.15692 0.0
C1159 C 0.78947 0.55348 0.14388 0.0
H1160 H 0.80974 0.54014 0.17976 0.0
H1161 H 0.78782 0.6623 0.05435 0.0
H1162 H 0.25798 0.88974 0.61429 0.0
H1163 H 0.22651 0.85619 0.61344 0.0
H1164 H 0.2625 0.82606 0.61768 0.0
H1165 H 0.29413 0.85962 0.61839 0.0
H1166 H 0.23203 0.80823 0.59152 0.0
H1167 H 0.23812 0.8295 0.65494 0.0
H1168 H 0.24242 0.85322 0.68035 0.0
H1169 H 0.18684 0.85206 0.66402 0.0
H1170 H 0.18236 0.82856 0.63833 0.0
H1171 H 0.15074 0.70874 0.61497 0.0
H1172 H 0.18245 0.7421 0.61471 0.0
H1173 H 0.14681 0.77281 0.61408 0.0
H1174 H 0.11502 0.73945 0.61476 0.0
H1175 H 0.17732 0.79041 0.63831 0.0
H1176 H 0.17098 0.76934 0.57498 0.0
H1177 H 0.16661 0.746 0.54921 0.0
H1178 H 0.22235 0.74707 0.56486 0.0
H1179 H 0.2269 0.77022 0.59089 0.0
C1180 C 0.2592 0.87597 0.61502 0.0
C1181 C 0.27849 0.87727 0.61649 0.0
C1182 C 0.24121 0.85683 0.61458 0.0
C1183 C 0.24219 0.83868 0.6157 0.0
C1184 C 0.26144 0.83991 0.61683 0.0
C1185 C 0.27946 0.85907 0.61729 0.0
C1186 C 0.22307 0.8184 0.61581 0.0
C1187 C 0.22016 0.80419 0.60188 0.0
C1188 C 0.20743 0.8134 0.62908 0.0
C1189 C 0.21002 0.82742 0.6446 0.0
C1190 C 0.2269 0.83443 0.65668 0.0
C1191 C 0.22936 0.84781 0.67115 0.0
C1192 C 0.21494 0.85418 0.67377 0.0
C1193 C 0.19801 0.84714 0.66196 0.0
C1194 C 0.19549 0.83377 0.64745 0.0
C1195 C 0.14967 0.7226 0.61473 0.0
C1196 C 0.13043 0.72152 0.61485 0.0
C1197 C 0.16779 0.74165 0.61449 0.0
C1198 C 0.16699 0.75994 0.61414 0.0
C1199 C 0.14778 0.75888 0.61433 0.0
C1200 C 0.12964 0.73983 0.61467 0.0
C1201 C 0.1862 0.78019 0.61398 0.0
C1202 C 0.18915 0.79442 0.62792 0.0
C1203 C 0.20183 0.78522 0.60067 0.0
C1204 C 0.19917 0.77136 0.58499 0.0
C1205 C 0.18222 0.76448 0.57301 0.0
C1206 C 0.17973 0.7513 0.55834 0.0
C1207 C 0.19416 0.74501 0.55543 0.0
C1208 C 0.21116 0.75194 0.56715 0.0
C1209 C 0.21371 0.7651 0.58185 0.0
H1210 H 0.19221 0.73481 0.54406 0.0
H1211 H 0.21687 0.86455 0.68498 0.0
H1212 H 0.85855 0.56726 0.40043 0.0
H1213 H 0.82656 0.56828 0.40243 0.0
H1214 H 0.85679 0.62893 0.37821 0.0
H1215 H 0.889 0.62818 0.3765 0.0
H1216 H 0.83217 0.62637 0.4066 0.0
H1217 H 0.82611 0.58683 0.35217 0.0
H1218 H 0.82668 0.55896 0.33461 0.0
H1219 H 0.77827 0.51389 0.36869 0.0
H1220 H 0.77761 0.54152 0.38662 0.0
H1221 H 0.74283 0.62943 0.37856 0.0
H1222 H 0.77563 0.63 0.38056 0.0
H1223 H 0.74435 0.56817 0.40232 0.0
H1224 H 0.71144 0.56733 0.39986 0.0
H1225 H 0.76965 0.5714 0.37586 0.0
H1226 H 0.77486 0.61082 0.42983 0.0
H1227 H 0.77423 0.63864 0.44741 0.0
H1228 H 0.82395 0.68381 0.41452 0.0
H1229 H 0.82469 0.65625 0.39656 0.0
C1230 C 0.8584 0.58084 0.39558 0.0
C1231 C 0.87621 0.59759 0.38819 0.0
C1232 C 0.84011 0.58138 0.39669 0.0
C1233 C 0.83924 0.59856 0.39022 0.0
C1234 C 0.85714 0.61551 0.38324 0.0
C1235 C 0.87548 0.61503 0.38221 0.0
C1236 C 0.81954 0.59864 0.39035 0.0
C1237 C 0.81854 0.61449 0.39971 0.0
C1238 C 0.80167 0.58288 0.3817 0.0
C1239 C 0.80195 0.56625 0.37084 0.0
C1240 C 0.81569 0.57098 0.356 0.0
C1241 C 0.81601 0.55522 0.34597 0.0
C1242 C 0.80256 0.53467 0.35056 0.0
C1243 C 0.7887 0.52982 0.36516 0.0
C1244 C 0.78833 0.54552 0.37525 0.0
C1245 C 0.74298 0.61604 0.38392 0.0
C1246 C 0.7246 0.59832 0.38903 0.0
C1247 C 0.76175 0.61641 0.38514 0.0
C1248 C 0.76248 0.5992 0.39177 0.0
C1249 C 0.74415 0.58162 0.39716 0.0
C1250 C 0.72537 0.58118 0.39579 0.0
C1251 C 0.78218 0.59909 0.39219 0.0
C1252 C 0.78322 0.58324 0.38285 0.0
C1253 C 0.80004 0.61485 0.40089 0.0
C1254 C 0.79971 0.63146 0.41174 0.0
C1255 C 0.78556 0.62668 0.42625 0.0
C1256 C 0.7852 0.64241 0.4363 0.0
C1257 C 0.79901 0.66298 0.43205 0.0
C1258 C 0.81325 0.66787 0.41778 0.0
C1259 C 0.81366 0.6522 0.40767 0.0
H1260 H 0.7987 0.67513 0.43985 0.0
H1261 H 0.80283 0.52249 0.34278 0.0
H1262 H 0.11013 0.741 0.87883 0.0
H1263 H 0.14164 0.77459 0.88016 0.0
H1264 H 0.17667 0.74491 0.8932 0.0
H1265 H 0.14523 0.71134 0.8921 0.0
H1266 H 0.18757 0.77821 0.91493 0.0
H1267 H 0.17686 0.76207 0.84992 0.0
H1268 H 0.15708 0.75257 0.82084 0.0
H1269 H 0.15235 0.8072 0.82388 0.0
H1270 H 0.17186 0.81688 0.85315 0.0
H1271 H 0.28908 0.85472 0.89285 0.0
H1272 H 0.25526 0.82366 0.89406 0.0
H1273 H 0.22639 0.85956 0.8815 0.0
H1274 H 0.26028 0.89077 0.88015 0.0
H1275 H 0.21092 0.82472 0.86056 0.0
H1276 H 0.22371 0.84215 0.92446 0.0
H1277 H 0.24347 0.85169 0.95354 0.0
H1278 H 0.24426 0.79487 0.95275 0.0
H1279 H 0.22474 0.78512 0.9235 0.0
C1280 C 0.12455 0.74166 0.88199 0.0
C1281 C 0.12526 0.72356 0.88529 0.0
C1282 C 0.14253 0.76084 0.8827 0.0
C1283 C 0.16151 0.76221 0.88662 0.0
C1284 C 0.16218 0.74418 0.89016 0.0
C1285 C 0.14423 0.72502 0.88945 0.0
C1286 C 0.18075 0.78241 0.88689 0.0
C1287 C 0.19279 0.78831 0.90299 0.0
C1288 C 0.18722 0.79581 0.87148 0.0
C1289 C 0.17562 0.79008 0.85383 0.0
C1290 C 0.17146 0.77198 0.84447 0.0
C1291 C 0.16032 0.76657 0.82794 0.0
C1292 C 0.1534 0.77924 0.82055 0.0
C1293 C 0.15768 0.79738 0.82964 0.0
C1294 C 0.16879 0.80284 0.84619 0.0
C1295 C 0.27553 0.85603 0.89042 0.0
C1296 C 0.2773 0.87516 0.88643 0.0
C1297 C 0.25622 0.83828 0.89119 0.0
C1298 C 0.23832 0.83935 0.88804 0.0
C1299 C 0.24003 0.85843 0.88401 0.0
C1300 C 0.25937 0.87623 0.8833 0.0
C1301 C 0.2179 0.82039 0.88851 0.0
C1302 C 0.20563 0.81472 0.87256 0.0
C1303 C 0.21121 0.8072 0.90407 0.0
C1304 C 0.2229 0.81298 0.92169 0.0
C1305 C 0.22823 0.83176 0.9304 0.0
C1306 C 0.23937 0.83719 0.94693 0.0
C1307 C 0.24516 0.82392 0.95496 0.0
C1308 C 0.23978 0.80515 0.9465 0.0
C1309 C 0.22866 0.79965 0.92995 0.0
H1310 H 0.25378 0.82815 0.96776 0.0
H1311 H 0.14478 0.77502 0.80775 0.0
H1312 H 0.3699 0.11192 0.37496 0.0
H1313 H 0.36955 0.14433 0.37424 0.0
H1314 H 0.43422 0.17756 0.3877 0.0
H1315 H 0.43464 0.14517 0.38862 0.0
H1316 H 0.41265 0.19055 0.40815 0.0
H1317 H 0.41844 0.17758 0.3441 0.0
H1318 H 0.40856 0.15723 0.31534 0.0
H1319 H 0.3498 0.154 0.31617 0.0
H1320 H 0.35922 0.17409 0.3451 0.0
H1321 H 0.43428 0.29118 0.38609 0.0
H1322 H 0.43369 0.25833 0.38637 0.0
H1323 H 0.369 0.22664 0.37293 0.0
H1324 H 0.36954 0.25955 0.37242 0.0
H1325 H 0.38986 0.21253 0.35259 0.0
H1326 H 0.38421 0.22581 0.41648 0.0
H1327 H 0.39411 0.24618 0.44523 0.0
H1328 H 0.45259 0.24879 0.44472 0.0
H1329 H 0.44315 0.22868 0.41581 0.0
C1330 C 0.38404 0.12613 0.37776 0.0
C1331 C 0.40232 0.12605 0.38181 0.0
C1332 C 0.38384 0.14463 0.37727 0.0
C1333 C 0.40191 0.16335 0.38074 0.0
C1334 C 0.42012 0.16327 0.38497 0.0
C1335 C 0.42035 0.14478 0.38544 0.0
C1336 C 0.4018 0.18302 0.38011 0.0
C1337 C 0.40793 0.1955 0.39593 0.0
C1338 C 0.39514 0.18918 0.3643 0.0
C1339 C 0.38946 0.17716 0.34687 0.0
C1340 C 0.40335 0.17238 0.33823 0.0
C1341 C 0.39784 0.16092 0.32189 0.0
C1342 C 0.37855 0.15428 0.31396 0.0
C1343 C 0.36473 0.15913 0.32234 0.0
C1344 C 0.37015 0.17057 0.33871 0.0
C1345 C 0.41993 0.27722 0.38317 0.0
C1346 C 0.40193 0.2779 0.37931 0.0
C1347 C 0.4196 0.25847 0.3834 0.0
C1348 C 0.40124 0.24004 0.37989 0.0
C1349 C 0.38331 0.2407 0.37572 0.0
C1350 C 0.38363 0.25947 0.37549 0.0
C1351 C 0.4008 0.2201 0.38061 0.0
C1352 C 0.39456 0.20757 0.36482 0.0
C1353 C 0.40735 0.21388 0.39645 0.0
C1354 C 0.41304 0.2259 0.41388 0.0
C1355 C 0.39925 0.23087 0.42241 0.0
C1356 C 0.40476 0.24234 0.43875 0.0
C1357 C 0.42399 0.24882 0.44677 0.0
C1358 C 0.43772 0.24378 0.43848 0.0
C1359 C 0.43228 0.23233 0.42213 0.0
H1360 H 0.42823 0.2577 0.45942 0.0
H1361 H 0.37431 0.14541 0.3013 0.0
H1362 H 0.29295 0.43622 0.88856 0.0
H1363 H 0.25936 0.43392 0.89008 0.0
H1364 H 0.22952 0.36769 0.88751 0.0
H1365 H 0.26317 0.36993 0.8855 0.0
H1366 H 0.21093 0.38144 0.86528 0.0
H1367 H 0.23282 0.39273 0.92839 0.0
H1368 H 0.25655 0.41014 0.95435 0.0
H1369 H 0.25573 0.46578 0.94251 0.0
H1370 H 0.23221 0.44879 0.9163 0.0
H1371 H 0.11257 0.36803 0.8879 0.0
H1372 H 0.14449 0.36669 0.8892 0.0
H1373 H 0.17972 0.43304 0.89005 0.0
H1374 H 0.14791 0.43447 0.88908 0.0
H1375 H 0.1944 0.41678 0.91463 0.0
H1376 H 0.17423 0.40593 0.85041 0.0
H1377 H 0.15054 0.38851 0.82441 0.0
H1378 H 0.14807 0.33177 0.83864 0.0
H1379 H 0.17154 0.34881 0.86488 0.0
C1380 C 0.27923 0.42116 0.88835 0.0
C1381 C 0.28065 0.40324 0.88698 0.0
C1382 C 0.26005 0.41986 0.88932 0.0
C1383 C 0.24193 0.40061 0.88921 0.0
C1384 C 0.24331 0.38269 0.88768 0.0
C1385 C 0.26252 0.38399 0.88657 0.0
C1386 C 0.22158 0.39929 0.89031 0.0
C1387 C 0.20717 0.38886 0.87625 0.0
C1388 C 0.21683 0.40929 0.90445 0.0
C1389 C 0.23087 0.41952 0.92028 0.0
C1390 C 0.23781 0.40872 0.93124 0.0
C1391 C 0.25121 0.4185 0.94601 0.0
C1392 C 0.25768 0.43906 0.95005 0.0
C1393 C 0.25072 0.44986 0.93935 0.0
C1394 C 0.23733 0.44015 0.92455 0.0
C1395 C 0.12713 0.38231 0.88842 0.0
C1396 C 0.12778 0.40136 0.88832 0.0
C1397 C 0.14534 0.38153 0.8891 0.0
C1398 C 0.16447 0.39977 0.88951 0.0
C1399 C 0.16511 0.41878 0.88974 0.0
C1400 C 0.14694 0.41957 0.88913 0.0
C1401 C 0.18391 0.39917 0.88948 0.0
C1402 C 0.19812 0.40923 0.90375 0.0
C1403 C 0.18847 0.38881 0.87556 0.0
C1404 C 0.17446 0.37859 0.85972 0.0
C1405 C 0.16851 0.38971 0.84807 0.0
C1406 C 0.15514 0.37991 0.83328 0.0
C1407 C 0.14776 0.35903 0.8299 0.0
C1408 C 0.15378 0.34793 0.84129 0.0
C1409 C 0.16712 0.35765 0.85611 0.0
H1410 H 0.13741 0.35147 0.81845 0.0
H1411 H 0.26805 0.44661 0.9615 0.0
H1412 H 0.73903 0.1088 0.38442 0.0
H1413 H 0.77207 0.14097 0.38587 0.0
H1414 H 0.74023 0.17547 0.38772 0.0
H1415 H 0.70719 0.14343 0.3862 0.0
H1416 H 0.77193 0.19149 0.36303 0.0
H1417 H 0.76092 0.169 0.42626 0.0
H1418 H 0.75385 0.14459 0.4518 0.0
H1419 H 0.80859 0.14255 0.43861 0.0
H1420 H 0.81584 0.16673 0.41281 0.0
H1421 H 0.85388 0.28858 0.38892 0.0
H1422 H 0.82155 0.25578 0.38966 0.0
H1423 H 0.85529 0.22315 0.3883 0.0
H1424 H 0.88775 0.25596 0.38775 0.0
H1425 H 0.82308 0.20578 0.41261 0.0
H1426 H 0.83422 0.22816 0.34953 0.0
H1427 H 0.84148 0.25251 0.32392 0.0
H1428 H 0.78658 0.25449 0.33653 0.0
H1429 H 0.77915 0.23036 0.36242 0.0
C1430 C 0.73909 0.12325 0.38515 0.0
C1431 C 0.72056 0.12363 0.38522 0.0
C1432 C 0.75795 0.14158 0.38605 0.0
C1433 C 0.75856 0.16056 0.38705 0.0
C1434 C 0.74007 0.16097 0.38697 0.0
C1435 C 0.72123 0.14266 0.38614 0.0
C1436 C 0.77847 0.18007 0.3879 0.0
C1437 C 0.783 0.19474 0.374 0.0
C1438 C 0.79311 0.18402 0.40196 0.0
C1439 C 0.7888 0.1695 0.41748 0.0
C1440 C 0.77136 0.1632 0.4287 0.0
C1441 C 0.76734 0.14944 0.44324 0.0
C1442 C 0.78073 0.14198 0.44679 0.0
C1443 C 0.79821 0.14831 0.43583 0.0
C1444 C 0.80229 0.16206 0.42125 0.0
C1445 C 0.85442 0.27442 0.38892 0.0
C1446 C 0.87331 0.2748 0.38815 0.0
C1447 C 0.83595 0.25571 0.38928 0.0
C1448 C 0.83605 0.23706 0.38877 0.0
C1449 C 0.85491 0.23739 0.38865 0.0
C1450 C 0.87341 0.25612 0.38828 0.0
C1451 C 0.81644 0.21725 0.38781 0.0
C1452 C 0.812 0.20252 0.40164 0.0
C1453 C 0.80188 0.21319 0.37365 0.0
C1454 C 0.80624 0.22761 0.35803 0.0
C1455 C 0.82378 0.23391 0.34694 0.0
C1456 C 0.82791 0.24765 0.33236 0.0
C1457 C 0.81453 0.25508 0.32863 0.0
C1458 C 0.79695 0.24874 0.33945 0.0
C1459 C 0.79276 0.23502 0.35407 0.0
H1460 H 0.81775 0.26572 0.31733 0.0
H1461 H 0.7776 0.13133 0.45806 0.0
H1462 H 0.63425 0.74168 0.87151 0.0
H1463 H 0.63433 0.77428 0.8699 0.0
H1464 H 0.56836 0.74184 0.87649 0.0
H1465 H 0.56814 0.70914 0.87797 0.0
H1466 H 0.5812 0.77148 0.84972 0.0
H1467 H 0.59863 0.76619 0.91261 0.0
H1468 H 0.61839 0.76142 0.93741 0.0
H1469 H 0.67358 0.81482 0.91878 0.0
H1470 H 0.65418 0.81974 0.89368 0.0
H1471 H 0.56735 0.85481 0.87596 0.0
H1472 H 0.56814 0.82268 0.8746 0.0
H1473 H 0.63434 0.85705 0.87013 0.0
H1474 H 0.63367 0.8893 0.87178 0.0
H1475 H 0.62211 0.82673 0.89502 0.0
H1476 H 0.60443 0.83273 0.83264 0.0
H1477 H 0.58458 0.83745 0.80789 0.0
H1478 H 0.52989 0.78285 0.82545 0.0
H1479 H 0.54935 0.77795 0.85049 0.0
C1480 C 0.61976 0.74149 0.87256 0.0
C1481 C 0.6012 0.7229 0.87497 0.0
C1482 C 0.61984 0.76012 0.87168 0.0
C1483 C 0.60138 0.76047 0.87328 0.0
C1484 C 0.58277 0.74188 0.87526 0.0
C1485 C 0.58268 0.72324 0.87616 0.0
C1486 C 0.60151 0.78027 0.8732 0.0
C1487 C 0.58995 0.78349 0.85974 0.0
C1488 C 0.61331 0.79608 0.88602 0.0
C1489 C 0.62499 0.7932 0.90115 0.0
C1490 C 0.61501 0.77682 0.9137 0.0
C1491 C 0.62614 0.77411 0.92783 0.0
C1492 C 0.64724 0.78778 0.92964 0.0
C1493 C 0.65724 0.80423 0.91735 0.0
C1494 C 0.64619 0.80699 0.90317 0.0
C1495 C 0.58207 0.85553 0.87461 0.0
C1496 C 0.60045 0.87455 0.87396 0.0
C1497 C 0.58249 0.83716 0.87375 0.0
C1498 C 0.60129 0.83748 0.87206 0.0
C1499 C 0.61967 0.85647 0.8714 0.0
C1500 C 0.61926 0.87486 0.8723 0.0
C1501 C 0.60178 0.81798 0.87154 0.0
C1502 C 0.61343 0.81479 0.88492 0.0
C1503 C 0.59006 0.80222 0.85863 0.0
C1504 C 0.57832 0.80508 0.84355 0.0
C1505 C 0.58813 0.82181 0.83132 0.0
C1506 C 0.57696 0.82451 0.81722 0.0
C1507 C 0.55598 0.81049 0.81512 0.0
C1508 C 0.54614 0.79371 0.8271 0.0
C1509 C 0.55724 0.79096 0.84124 0.0
H1510 H 0.54735 0.81259 0.8042 0.0
H1511 H 0.65583 0.78565 0.94059 0.0
H1512 H 0.33095 0.93378 0.94825 0.0
H1513 H 0.33295 0.9522 0.97667 0.0
H1514 H 0.3402 0.00395 0.94473 0.0
H1515 H 0.33819 0.98551 0.91609 0.0
H1516 H 0.36959 0.0148 0.97177 0.0
H1517 H 0.2964 0.9756 0.96773 0.0
H1518 H 0.2626 0.94429 0.9637 0.0
H1519 H 0.27311 0.9178 0.01214 0.0
H1520 H 0.30712 0.94882 0.01632 0.0
H1521 H 0.37525 0.06777 0.05353 0.0
H1522 H 0.36174 0.05101 0.02376 0.0
H1523 H 0.34762 0.99261 0.04743 0.0
H1524 H 0.36051 0.00921 0.07741 0.0
H1525 H 0.31885 0.9874 0.02296 0.0
H1526 H 0.39309 0.02297 0.02432 0.0
H1527 H 0.42779 0.05302 0.02844 0.0
H1528 H 0.41613 0.08488 0.98504 0.0
H1529 H 0.38123 0.05509 0.98083 0.0
C1530 C 0.33277 0.949 0.94726 0.0
C1531 C 0.33449 0.95826 0.92998 0.0
C1532 C 0.33377 0.95945 0.9635 0.0
C1533 C 0.33651 0.97935 0.96278 0.0
C1534 C 0.33797 0.98855 0.94554 0.0
C1535 C 0.33681 0.97802 0.92923 0.0
C1536 C 0.33944 0.99098 0.98011 0.0
C1537 C 0.3583 0.00909 0.98281 0.0
C1538 C 0.32491 0.98317 0.99465 0.0
C1539 C 0.30439 0.96451 0.99226 0.0
C1540 C 0.29158 0.96304 0.97745 0.0
C1541 C 0.27236 0.94535 0.97515 0.0
C1542 C 0.26573 0.92905 0.98764 0.0
C1543 C 0.27828 0.93043 0.00248 0.0
C1544 C 0.29751 0.94808 0.00483 0.0
C1545 C 0.36895 0.0513 0.05245 0.0
C1546 C 0.36914 0.03981 0.06769 0.0
C1547 C 0.36129 0.04175 0.03543 0.0
C1548 C 0.3541 0.02064 0.03328 0.0
C1549 C 0.35317 0.00893 0.04877 0.0
C1550 C 0.36059 0.01844 0.06587 0.0
C1551 C 0.34912 0.01106 0.01468 0.0
C1552 C 0.32996 0.99332 0.01178 0.0
C1553 C 0.36347 0.01905 -2e-05 0.0
C1554 C 0.38448 0.03691 0.00241 0.0
C1555 C 0.39788 0.03644 0.01575 0.0
C1556 C 0.41758 0.05341 0.01809 0.0
C1557 C 0.42414 0.07087 0.00705 0.0
C1558 C 0.41101 0.07136 0.99361 0.0
C1559 C 0.39127 0.05444 0.99123 0.0
H1560 H 0.4394 0.084 0.00888 0.0
H1561 H 0.25085 0.91537 0.98583 0.0
H1562 H 0.39169 0.32336 0.4462 0.0
H1563 H 0.37971 0.32857 0.47603 0.0
H1564 H 0.34683 0.35439 0.44842 0.0
H1565 H 0.3589 0.34936 0.4185 0.0
H1566 H 0.37109 0.37877 0.47631 0.0
H1567 H 0.32104 0.30711 0.46811 0.0
H1568 H 0.30951 0.27058 0.46216 0.0
H1569 H 0.34216 0.26877 0.51021 0.0
H1570 H 0.35413 0.30539 0.51631 0.0
H1571 H 0.31909 0.38847 0.5519 0.0
H1572 H 0.32501 0.37579 0.52285 0.0
H1573 H 0.35742 0.35044 0.55201 0.0
H1574 H 0.35126 0.3629 0.58134 0.0
H1575 H 0.33339 0.3251 0.52376 0.0
H1576 H 0.3846 0.39576 0.53173 0.0
H1577 H 0.39788 0.43258 0.53809 0.0
H1578 H 0.36526 0.43657 0.49098 0.0
H1579 H 0.35158 0.3997 0.48446 0.0
C1580 C 0.38171 0.32993 0.44647 0.0
C1581 C 0.37626 0.33602 0.43003 0.0
C1582 C 0.37481 0.33281 0.46352 0.0
C1583 C 0.36228 0.34175 0.46443 0.0
C1584 C 0.35647 0.34744 0.448 0.0
C1585 C 0.36333 0.34452 0.43093 0.0
C1586 C 0.35637 0.34641 0.48254 0.0
C1587 C 0.36253 0.36698 0.48655 0.0
C1588 C 0.34591 0.33111 0.49616 0.0
C1589 C 0.33863 0.30906 0.49257 0.0
C1590 C 0.3259 0.29897 0.47733 0.0
C1591 C 0.31926 0.27824 0.47394 0.0
C1592 C 0.32514 0.26737 0.48577 0.0
C1593 C 0.33763 0.27721 0.50104 0.0
C1594 C 0.34433 0.29795 0.50448 0.0
C1595 C 0.32725 0.37996 0.55219 0.0
C1596 C 0.33492 0.37685 0.56885 0.0
C1597 C 0.33065 0.37277 0.53557 0.0
C1598 C 0.34199 0.36254 0.53526 0.0
C1599 C 0.34871 0.3584 0.55198 0.0
C1600 C 0.34521 0.36553 0.56869 0.0
C1601 C 0.34784 0.35739 0.51735 0.0
C1602 C 0.34183 0.33683 0.51344 0.0
C1603 C 0.35868 0.37272 0.50385 0.0
C1604 C 0.3669 0.39492 0.50771 0.0
C1605 C 0.38012 0.40445 0.52281 0.0
C1606 C 0.38775 0.42533 0.52643 0.0
C1607 C 0.38238 0.43689 0.51497 0.0
C1608 C 0.3694 0.42759 0.49985 0.0
C1609 C 0.36172 0.40671 0.49617 0.0
H1610 H 0.38831 0.45305 0.5178 0.0
H1611 H 0.31999 0.25132 0.48313 0.0
H1612 H 0.01403 0.35247 0.91809 0.0
H1613 H 0.99492 0.33781 0.94681 0.0
H1614 H 0.04871 0.37892 0.97849 0.0
H1615 H 0.06789 0.39351 0.94995 0.0
H1616 H 0.02794 0.33999 0.99366 0.0
H1617 H 0.01269 0.39146 0.97036 0.0
H1618 H 0.0008 0.40697 0.94685 0.0
H1619 H 0.9417 0.35186 0.94541 0.0
H1620 H 0.95336 0.33592 0.96874 0.0
H1621 H 0.98768 0.35004 0.07941 0.0
H1622 H 0.00508 0.35343 0.04995 0.0
H1623 H 0.94629 0.31622 0.02337 0.0
H1624 H 0.92885 0.31342 0.05262 0.0
H1625 H 0.96777 0.34923 0.0044 0.0
H1626 H 0.98153 0.29894 0.03047 0.0
H1627 H 0.99336 0.28339 0.05398 0.0
H1628 H 0.05461 0.33518 0.05041 0.0
H1629 H 0.04309 0.35119 0.02705 0.0
C1630 C 0.02182 0.3582 0.93119 0.0
C1631 C 0.04237 0.37425 0.93181 0.0
C1632 C 0.0109 0.34983 0.94755 0.0
C1633 C 0.02038 0.35743 0.96475 0.0
C1634 C 0.04114 0.37283 0.96536 0.0
C1635 C 0.05203 0.38123 0.94904 0.0
C1636 C 0.00838 0.3505 0.9821 0.0
C1637 C 0.01482 0.34204 0.99611 0.0
C1638 C 0.99101 0.3528 0.98506 0.0
C1639 C 0.98397 0.36242 0.97112 0.0
C1640 C 0.99721 0.38259 0.96492 0.0
C1641 C 0.99051 0.39147 0.95164 0.0
C1642 C 0.97053 0.38038 0.9446 0.0
C1643 C 0.95719 0.36041 0.95085 0.0
C1644 C 0.96383 0.35145 0.9641 0.0
C1645 C 0.97851 0.34234 0.06732 0.0
C1646 C 0.95693 0.33158 0.06824 0.0
C1647 C 0.98847 0.34418 0.05051 0.0
C1648 C 0.977 0.33495 0.03443 0.0
C1649 C 0.95545 0.32352 0.03556 0.0
C1650 C 0.94551 0.32191 0.05228 0.0
C1651 C 0.98731 0.33872 0.01619 0.0
C1652 C 0.98063 0.34675 0.00198 0.0
C1653 C 0.00439 0.33594 0.01308 0.0
C1654 C 0.0114 0.32634 0.0271 0.0
C1655 C 0.99749 0.30709 0.0348 0.0
C1656 C 0.00414 0.29818 0.04808 0.0
C1657 C 0.02471 0.30831 0.05371 0.0
C1658 C 0.03868 0.32736 0.04604 0.0
C1659 C 0.0321 0.33634 0.03276 0.0
H1660 H 0.02983 0.30139 0.064 0.0
H1661 H 0.96536 0.38728 0.93432 0.0
H1662 H 0.64832 0.00594 0.41595 0.0
H1663 H 0.64272 0.98631 0.44455 0.0
H1664 H 0.67204 0.04285 0.47577 0.0
H1665 H 0.67778 0.0625 0.44733 0.0
H1666 H 0.68242 0.01481 0.48881 0.0
H1667 H 0.62108 0.0168 0.47194 0.0
H1668 H 0.59278 0.01135 0.4511 0.0
H1669 H 0.57198 0.94668 0.449 0.0
H1670 H 0.60037 0.95181 0.46964 0.0
H1671 H 0.63774 0.98625 0.57821 0.0
H1672 H 0.65041 0.00117 0.54763 0.0
H1673 H 0.61627 0.94086 0.52304 0.0
H1674 H 0.60338 0.9259 0.55351 0.0
H1675 H 0.60929 0.96785 0.50528 0.0
H1676 H 0.66857 0.96548 0.52547 0.0
H1677 H 0.69677 0.97129 0.54657 0.0
H1678 H 0.72146 0.03658 0.54287 0.0
H1679 H 0.69323 0.03116 0.52194 0.0
C1680 C 0.65385 0.01417 0.42888 0.0
C1681 C 0.66329 0.03572 0.42945 0.0
C1682 C 0.65061 0.00295 0.44519 0.0
C1683 C 0.65677 0.01314 0.46228 0.0
C1684 C 0.66718 0.0347 0.46273 0.0
C1685 C 0.67035 0.04589 0.44647 0.0
C1686 C 0.65095 0.00146 0.47985 0.0
C1687 C 0.66645 0.00459 0.49249 0.0
C1688 C 0.63011 0.98784 0.48445 0.0
C1689 C 0.61298 0.98472 0.47214 0.0
C1690 C 0.61056 0.00144 0.46691 0.0
C1691 C 0.5945 0.99841 0.45516 0.0
C1692 C 0.58063 0.97869 0.44868 0.0
C1693 C 0.58276 0.96195 0.454 0.0
C1694 C 0.59883 0.96491 0.46572 0.0
C1695 C 0.63313 0.97616 0.5663 0.0
C1696 C 0.61952 0.95493 0.56823 0.0
C1697 C 0.64045 0.98468 0.54885 0.0
C1698 C 0.6344 0.97209 0.53306 0.0
C1699 C 0.62115 0.95084 0.53503 0.0
C1700 C 0.61382 0.94232 0.55245 0.0
C1701 C 0.64076 0.98128 0.5144 0.0
C1702 C 0.62531 0.97777 0.50156 0.0
C1703 C 0.66163 0.99456 0.50968 0.0
C1704 C 0.67867 0.9979 0.52225 0.0
C1705 C 0.67991 0.98107 0.52927 0.0
C1706 C 0.69593 0.9843 0.54118 0.0
C1707 C 0.71088 0.00429 0.54609 0.0
C1708 C 0.70986 0.0211 0.53907 0.0
C1709 C 0.69387 0.01796 0.52716 0.0
H1710 H 0.72327 0.00675 0.55531 0.0
H1711 H 0.56819 0.97638 0.43959 0.0
H1712 H 0.65945 0.64708 0.08086 0.0
H1713 H 0.65767 0.6632 0.05197 0.0
H1714 H 0.66973 0.62126 0.02095 0.0
H1715 H 0.67165 0.60523 0.04966 0.0
H1716 H 0.69037 0.66056 0.00669 0.0
H1717 H 0.62137 0.61088 0.02678 0.0
H1718 H 0.59252 0.59599 0.0489 0.0
H1719 H 0.5917 0.65279 0.0498 0.0
H1720 H 0.62076 0.66811 0.02786 0.0
H1721 H 0.64464 0.65161 0.91887 0.0
H1722 H 0.65715 0.64832 0.94916 0.0
H1723 H 0.6372 0.68825 0.9728 0.0
H1724 H 0.62417 0.69111 0.94265 0.0
H1725 H 0.62308 0.65488 0.9923 0.0
H1726 H 0.68912 0.70317 0.96869 0.0
H1727 H 0.71781 0.71792 0.94642 0.0
H1728 H 0.72459 0.66464 0.95185 0.0
H1729 H 0.69574 0.64942 0.97396 0.0
C1730 C 0.66194 0.64147 0.06788 0.0
C1731 C 0.66548 0.62478 0.06748 0.0
C1732 C 0.66092 0.65067 0.05141 0.0
C1733 C 0.6634 0.64329 0.03433 0.0
C1734 C 0.6678 0.62721 0.03398 0.0
C1735 C 0.66877 0.61798 0.05039 0.0
C1736 C 0.65993 0.65117 0.01674 0.0
C1737 C 0.67567 0.6593 0.00346 0.0
C1738 C 0.6409 0.64994 0.01276 0.0
C1739 C 0.62338 0.64071 0.02587 0.0
C1740 C 0.61514 0.62024 0.03182 0.0
C1741 C 0.59873 0.61172 0.0443 0.0
C1742 C 0.59032 0.62346 0.0508 0.0
C1743 C 0.59826 0.64373 0.04479 0.0
C1744 C 0.61469 0.65234 0.03233 0.0
C1745 C 0.64327 0.65997 0.93046 0.0
C1746 C 0.63333 0.6715 0.92845 0.0
C1747 C 0.65052 0.65818 0.94776 0.0
C1748 C 0.64823 0.66815 0.96326 0.0
C1749 C 0.6391 0.68039 0.96106 0.0
C1750 C 0.63169 0.68204 0.94382 0.0
C1751 C 0.65347 0.66415 0.98201 0.0
C1752 C 0.63799 0.65661 0.99554 0.0
C1753 C 0.67275 0.66598 0.98618 0.0
C1754 C 0.69015 0.67509 0.9729 0.0
C1755 C 0.69662 0.69452 0.96504 0.0
C1756 C 0.71294 0.70298 0.95245 0.0
C1757 C 0.72299 0.69221 0.94769 0.0
C1758 C 0.71678 0.67296 0.95554 0.0
C1759 C 0.70047 0.66443 0.96812 0.0
H1760 H 0.73562 0.69878 0.93795 0.0
H1761 H 0.57762 0.61683 0.06046 0.0
H1762 H 0.01933 0.66065 0.58048 0.0
H1763 H 0.00145 0.65728 0.55121 0.0
H1764 H 0.05401 0.66372 0.52119 0.0
H1765 H 0.07202 0.66736 0.55028 0.0
H1766 H 0.0374 0.68455 0.50436 0.0
H1767 H 0.01348 0.61663 0.52981 0.0
H1768 H 0.99822 0.58987 0.5539 0.0
H1769 H 0.94309 0.59385 0.55305 0.0
H1770 H 0.95815 0.62084 0.52912 0.0
H1771 H 0.99325 0.63445 0.419 0.0
H1772 H 0.01136 0.64756 0.44838 0.0
H1773 H 0.9543 0.63427 0.4745 0.0
H1774 H 0.9361 0.62054 0.44539 0.0
H1775 H 0.97214 0.61909 0.49415 0.0
H1776 H 0.99458 0.68469 0.46637 0.0
H1777 H 0.00977 0.71141 0.44227 0.0
H1778 H 0.0672 0.71224 0.44724 0.0
H1779 H 0.05227 0.68531 0.47121 0.0
C1780 C 0.02712 0.66154 0.56762 0.0
C1781 C 0.04698 0.66407 0.56765 0.0
C1782 C 0.0169 0.65959 0.55093 0.0
C1783 C 0.02634 0.66003 0.53404 0.0
C1784 C 0.04646 0.66335 0.53405 0.0
C1785 C 0.05668 0.66531 0.5507 0.0
C1786 C 0.01489 0.65574 0.51639 0.0
C1787 C 0.02317 0.67021 0.50204 0.0
C1788 C 0.99613 0.63721 0.51355 0.0
C1789 C 0.98702 0.6209 0.52784 0.0
C1790 C 0.99816 0.6119 0.53487 0.0
C1791 C 0.98954 0.59668 0.54847 0.0
C1792 C 0.96972 0.59021 0.55504 0.0
C1793 C 0.95845 0.5989 0.54798 0.0
C1794 C 0.96702 0.61415 0.53439 0.0
C1795 C 0.98467 0.63464 0.43096 0.0
C1796 C 0.96328 0.62638 0.42998 0.0
C1797 C 0.99504 0.64223 0.44773 0.0
C1798 C 0.98422 0.64202 0.46367 0.0
C1799 C 0.96297 0.63452 0.46244 0.0
C1800 C 0.95259 0.62671 0.44578 0.0
C1801 C 0.99461 0.64789 0.48194 0.0
C1802 C 0.98618 0.63361 0.49644 0.0
C1803 C 0.01319 0.66662 0.48488 0.0
C1804 C 0.02224 0.68285 0.47049 0.0
C1805 C 0.0104 0.69045 0.46223 0.0
C1806 C 0.01898 0.70566 0.44861 0.0
C1807 C 0.03943 0.71348 0.4432 0.0
C1808 C 0.05136 0.70615 0.45144 0.0
C1809 C 0.04285 0.69094 0.46506 0.0
H1810 H 0.04604 0.72525 0.43265 0.0
H1811 H 0.96307 0.57842 0.56557 0.0
H1812 H 0.61282 0.92824 0.94372 0.0
H1813 H 0.6243 0.94444 0.97399 0.0
H1814 H 0.65364 0.00435 0.94836 0.0
H1815 H 0.64242 0.98821 0.91792 0.0
H1816 H 0.67697 0.00243 0.9764 0.0
H1817 H 0.60689 0.98565 0.9672 0.0
H1818 H 0.57011 0.96305 0.95995 0.0
H1819 H 0.56403 0.92429 0.00598 0.0
H1820 H 0.60085 0.94655 0.01337 0.0
H1821 H 0.67761 0.06487 0.0502 0.0
H1822 H 0.67311 0.04597 0.02153 0.0
H1823 H 0.64535 0.98885 0.05188 0.0
H1824 H 0.6497 0.00775 0.08074 0.0
H1825 H 0.62221 0.98749 0.0224 0.0
H1826 H 0.69275 0.00759 0.03311 0.0
H1827 H 0.72927 0.03173 0.04003 0.0
H1828 H 0.73439 0.06593 0.99082 0.0
H1829 H 0.69781 0.04216 0.98373 0.0
C1830 C 0.62192 0.94486 0.9445 0.0
C1831 C 0.62658 0.95699 0.92848 0.0
C1832 C 0.62842 0.95409 0.9618 0.0
C1833 C 0.63954 0.9756 0.96343 0.0
C1834 C 0.64502 0.98772 0.94739 0.0
C1835 C 0.63857 0.97849 0.93004 0.0
C1836 C 0.64443 0.98542 0.98191 0.0
C1837 C 0.66501 0.99931 0.98643 0.0
C1838 C 0.62882 0.98103 0.99509 0.0
C1839 C 0.60667 0.96764 0.99071 0.0
C1840 C 0.59774 0.97222 0.97568 0.0
C1841 C 0.57689 0.95949 0.97157 0.0
C1842 C 0.56476 0.94221 0.98247 0.0
C1843 C 0.57346 0.93766 0.99753 0.0
C1844 C 0.59431 0.95034 0.0017 0.0
C1845 C 0.67079 0.04831 0.05082 0.0
C1846 C 0.66396 0.03777 0.0677 0.0
C1847 C 0.66832 0.03753 0.03443 0.0
C1848 C 0.65905 0.01601 0.03459 0.0
C1849 C 0.65261 0.00546 0.05148 0.0
C1850 C 0.65514 0.01627 0.06794 0.0
C1851 C 0.65478 0.00456 0.01693 0.0
C1852 C 0.63424 0.99042 0.01251 0.0
C1853 C 0.67042 0.00891 0.0038 0.0
C1854 C 0.69248 0.02316 0.00797 0.0
C1855 C 0.70162 0.02034 0.02383 0.0
C1856 C 0.72234 0.03395 0.02778 0.0
C1857 C 0.73414 0.05038 0.0159 0.0
C1858 C 0.72524 0.0532 2e-05 0.0
C1859 C 0.70451 0.03965 0.99602 0.0
H1860 H 0.75018 0.0609 0.01898 0.0
H1861 H 0.54862 0.93238 0.97926 0.0
H1862 H 0.67765 0.6537 0.41899 0.0
H1863 H 0.67337 0.66815 0.44805 0.0
H1864 H 0.64419 0.60773 0.47268 0.0
H1865 H 0.64849 0.59331 0.44397 0.0
H1866 H 0.62224 0.62789 0.47774 0.0
H1867 H 0.69169 0.64056 0.484 0.0
H1868 H 0.72782 0.65474 0.47441 0.0
H1869 H 0.73682 0.7159 0.47605 0.0
H1870 H 0.70063 0.70204 0.4854 0.0
H1871 H 0.64629 0.65928 0.57763 0.0
H1872 H 0.65865 0.65446 0.54773 0.0
H1873 H 0.62611 0.68055 0.52001 0.0
H1874 H 0.61372 0.68542 0.54974 0.0
H1875 H 0.67993 0.67954 0.51602 0.0
H1876 H 0.59892 0.64641 0.48543 0.0
H1877 H 0.5629 0.6308 0.49596 0.0
H1878 H 0.57743 0.60752 0.54441 0.0
H1879 H 0.61342 0.62269 0.534 0.0
C1880 C 0.67038 0.64357 0.43065 0.0
C1881 C 0.66337 0.6224 0.42924 0.0
C1882 C 0.66801 0.65183 0.4472 0.0
C1883 C 0.65849 0.63897 0.46246 0.0
C1884 C 0.65154 0.61787 0.46103 0.0
C1885 C 0.65405 0.60968 0.44463 0.0
C1886 C 0.65515 0.64715 0.47989 0.0
C1887 C 0.63486 0.6393 0.48602 0.0
C1888 C 0.67164 0.6619 0.49074 0.0
C1889 C 0.69339 0.67024 0.48518 0.0
C1890 C 0.70132 0.65701 0.48214 0.0
C1891 C 0.72182 0.665 0.47679 0.0
C1892 C 0.73459 0.6862 0.47456 0.0
C1893 C 0.7269 0.69948 0.47774 0.0
C1894 C 0.7064 0.69157 0.48308 0.0
C1895 C 0.64214 0.66439 0.56519 0.0
C1896 C 0.62882 0.67246 0.56596 0.0
C1897 C 0.6493 0.66173 0.54815 0.0
C1898 C 0.64311 0.66698 0.53172 0.0
C1899 C 0.63095 0.67631 0.53257 0.0
C1900 C 0.62385 0.67903 0.54956 0.0
C1901 C 0.64705 0.66028 0.51374 0.0
C1902 C 0.66736 0.66837 0.50755 0.0
C1903 C 0.63061 0.64553 0.50286 0.0
C1904 C 0.60889 0.63589 0.50903 0.0
C1905 C 0.59438 0.63788 0.49828 0.0
C1906 C 0.57398 0.62912 0.50423 0.0
C1907 C 0.5679 0.61824 0.52088 0.0
C1908 C 0.58218 0.61601 0.53156 0.0
C1909 C 0.60258 0.6247 0.52564 0.0
H1910 H 0.55211 0.61151 0.52548 0.0
H1911 H 0.75046 0.69236 0.47042 0.0
H1912 H 0.93043 0.62218 0.05366 0.0
H1913 H 0.9475 0.63572 0.02404 0.0
H1914 H 0.00588 0.6511 0.04858 0.0
H1915 H 0.98894 0.63811 0.07845 0.0
H1916 H 0.01046 0.67986 0.0239 0.0
H1917 H 0.97713 0.60573 0.02524 0.0
H1918 H 0.94778 0.57058 0.02923 0.0
H1919 H 0.91533 0.58082 0.98542 0.0
H1920 H 0.9444 0.61615 0.98134 0.0
H1921 H 0.06635 0.67277 0.94858 0.0
H1922 H 0.04777 0.66969 0.97711 0.0
H1923 H 0.9938 0.65691 0.94563 0.0
H1924 H 0.01234 0.65973 0.91687 0.0
H1925 H 0.98492 0.6292 0.97259 0.0
H1926 H 0.02119 0.70247 0.9688 0.0
H1927 H 0.05139 0.73709 0.96489 0.0
H1928 H 0.07932 0.72819 0.01316 0.0
H1929 H 0.04942 0.69339 0.01721 0.0
C1930 C 0.94696 0.62873 0.0528 0.0
C1931 C 0.95835 0.62889 0.06828 0.0
C1932 C 0.95667 0.63641 0.03587 0.0
C1933 C 0.97789 0.64401 0.03401 0.0
C1934 C 0.98948 0.64523 0.04969 0.0
C1935 C 0.97979 0.63776 0.06673 0.0
C1936 C 0.98771 0.64926 0.01553 0.0
C1937 C 0.00498 0.66877 0.01269 0.0
C1938 C 0.98025 0.63492 0.00079 0.0
C1939 C 0.96284 0.61364 0.00313 0.0
C1940 C 0.96368 0.60052 0.01655 0.0
C1941 C 0.9471 0.58057 0.01882 0.0
C1942 C 0.92967 0.57349 0.00762 0.0
C1943 C 0.92882 0.58634 0.9941 0.0
C1944 C 0.94534 0.60632 0.9918 0.0
C1945 C 0.05059 0.66952 0.9477 0.0
C1946 C 0.04076 0.66642 0.9305 0.0
C1947 C 0.04003 0.66791 0.96403 0.0
C1948 C 0.01947 0.66331 0.9635 0.0
C1949 C 0.0097 0.66057 0.94633 0.0
C1950 C 0.02029 0.6622 0.92993 0.0
C1951 C 0.00784 0.65976 0.98096 0.0
C1952 C 0.99024 0.64047 0.98365 0.0
C1953 C 0.01512 0.67426 0.99556 0.0
C1954 C 0.0331 0.69525 0.99323 0.0
C1955 C 0.03383 0.70783 0.97851 0.0
C1956 C 0.05089 0.7275 0.97628 0.0
C1957 C 0.06728 0.73482 0.98875 0.0
C1958 C 0.06662 0.7225 0.00351 0.0
C1959 C 0.0496 0.70281 0.00579 0.0
H1960 H 0.08047 0.75005 0.987 0.0
H1961 H 0.91685 0.55804 0.0094 0.0
H1962 H 0.31988 0.93241 0.5538 0.0
H1963 H 0.32323 0.94791 0.52346 0.0
H1964 H 0.34348 0.00691 0.54905 0.0
H1965 H 0.33969 0.9913 0.57965 0.0
H1966 H 0.31861 0.00084 0.5192 0.0
H1967 H 0.37831 0.99535 0.53279 0.0
H1968 H 0.39693 0.97749 0.54215 0.0
H1969 H 0.3718 0.93679 0.49566 0.0
H1970 H 0.35277 0.95423 0.48618 0.0
H1971 H 0.37901 0.06618 0.44548 0.0
H1972 H 0.36462 0.0476 0.47433 0.0
H1973 H 0.34323 0.98989 0.44589 0.0
H1974 H 0.35763 0.00845 0.41689 0.0
H1975 H 0.36659 0.99399 0.47651 0.0
H1976 H 0.30897 0.00212 0.46169 0.0
H1977 H 0.29127 0.021 0.45269 0.0
H1978 H 0.31385 0.05822 0.50154 0.0
H1979 H 0.33195 0.03976 0.51072 0.0
C1980 C 0.32482 0.94864 0.553 0.0
C1981 C 0.32979 0.96074 0.56905 0.0
C1982 C 0.32674 0.95747 0.53565 0.0
C1983 C 0.33398 0.97862 0.534 0.0
C1984 C 0.33794 0.99056 0.55004 0.0
C1985 C 0.33583 0.98166 0.56748 0.0
C1986 C 0.33875 0.98841 0.51553 0.0
C1987 C 0.32924 0.99954 0.50991 0.0
C1988 C 0.35235 0.98635 0.50332 0.0
C1989 C 0.36395 0.97596 0.50888 0.0
C1990 C 0.37664 0.9825 0.52464 0.0
C1991 C 0.38728 0.97246 0.52996 0.0
C1992 C 0.3855 0.95598 0.51954 0.0
C1993 C 0.37313 0.94954 0.50374 0.0
C1994 C 0.36243 0.9595 0.49838 0.0
C1995 C 0.37095 0.04952 0.4453 0.0
C1996 C 0.36951 0.03874 0.42898 0.0
C1997 C 0.36265 0.03893 0.46177 0.0
C1998 C 0.3528 0.01738 0.46221 0.0
C1999 C 0.35075 0.00654 0.4458 0.0
C2000 C 0.35892 0.01713 0.42926 0.0
C2001 C 0.34641 0.0064 0.4801 0.0
C2002 C 0.35577 0.99513 0.48568 0.0
C2003 C 0.33285 0.00853 0.49228 0.0
C2004 C 0.32197 0.01966 0.48681 0.0
C2005 C 0.31031 0.01445 0.47044 0.0
C2006 C 0.30018 0.02505 0.46532 0.0
C2007 C 0.30147 0.04083 0.47651 0.0
C2008 C 0.31288 0.04601 0.49287 0.0
C2009 C 0.32306 0.03546 0.49806 0.0
H2010 H 0.29361 0.04902 0.47252 0.0
H2011 H 0.39373 0.94821 0.52368 0.0
H2012 H 0.38691 0.31511 0.0552 0.0
H2013 H 0.37583 0.31935 0.02458 0.0
H2014 H 0.34456 0.34862 0.04899 0.0
H2015 H 0.35533 0.34413 0.07977 0.0
H2016 H 0.32255 0.32344 0.02048 0.0
H2017 H 0.39208 0.37734 0.03169 0.0
H2018 H 0.42864 0.39169 0.03992 0.0
H2019 H 0.43675 0.3604 0.99383 0.0
H2020 H 0.40014 0.34563 0.98548 0.0
H2021 H 0.32437 0.38802 0.94832 0.0
H2022 H 0.32803 0.37249 0.97664 0.0
H2023 H 0.35586 0.34359 0.94572 0.0
H2024 H 0.35221 0.35915 0.91718 0.0
H2025 H 0.37863 0.36503 0.97611 0.0
H2026 H 0.30892 0.31433 0.96318 0.0
H2027 H 0.27254 0.30152 0.95527 0.0
H2028 H 0.26489 0.32846 0.00481 0.0
H2029 H 0.30131 0.3417 0.0129 0.0
C2030 C 0.37744 0.32221 0.05408 0.0
C2031 C 0.37214 0.32948 0.06984 0.0
C2032 C 0.37117 0.32465 0.03657 0.0
C2033 C 0.35968 0.3346 0.03451 0.0
C2034 C 0.35347 0.34095 0.0503 0.0
C2035 C 0.35968 0.33842 0.06785 0.0
C2036 C 0.35528 0.33959 0.01587 0.0
C2037 C 0.33479 0.33264 0.0108 0.0
C2038 C 0.37127 0.35125 0.00314 0.0
C2039 C 0.39332 0.36019 0.00809 0.0
C2040 C 0.40162 0.37339 0.0234 0.0
C2041 C 0.42235 0.38162 0.02807 0.0
C2042 C 0.43499 0.37691 0.01744 0.0
C2043 C 0.42693 0.364 0.00208 0.0
C2044 C 0.40619 0.3557 0.99736 0.0
C2045 C 0.33104 0.37816 0.9475 0.0
C2046 C 0.33807 0.37483 0.93057 0.0
C2047 C 0.33302 0.36921 0.96368 0.0
C2048 C 0.34208 0.35678 0.96324 0.0
C2049 C 0.34876 0.35308 0.9463 0.0
C2050 C 0.34663 0.36192 0.93004 0.0
C2051 C 0.34589 0.349 0.98073 0.0
C2052 C 0.36633 0.35553 0.98564 0.0
C2053 C 0.32986 0.33715 0.99335 0.0
C2054 C 0.30791 0.32914 0.98857 0.0
C2055 C 0.29953 0.31767 0.97232 0.0
C2056 C 0.27889 0.3103 0.96781 0.0
C2057 C 0.26642 0.31421 0.97951 0.0
C2058 C 0.27457 0.32545 0.99576 0.0
C2059 C 0.2952 0.33287 0.00032 0.0
H2060 H 0.25045 0.30849 0.976 0.0
H2061 H 0.45104 0.3833 0.02107 0.0
H2062 H 0.03123 0.33886 0.57441 0.0
H2063 H 0.01274 0.32388 0.54528 0.0
H2064 H 0.00558 0.37689 0.53706 0.0
H2065 H 0.02441 0.39208 0.56565 0.0
H2066 H 0.96862 0.33577 0.53075 0.0
H2067 H 0.04237 0.37806 0.51606 0.0
H2068 H 0.07848 0.38642 0.51909 0.0
H2069 H 0.06187 0.32555 0.50099 0.0
H2070 H 0.02558 0.31675 0.49811 0.0
H2071 H 0.95142 0.35681 0.44235 0.0
H2072 H 0.96531 0.35711 0.47278 0.0
H2073 H 0.97906 0.31028 0.45538 0.0
H2074 H 0.96566 0.31044 0.42439 0.0
H2075 H 0.00944 0.338 0.47594 0.0
H2076 H 0.93755 0.29785 0.48376 0.0
H2077 H 0.90107 0.28817 0.48082 0.0
H2078 H 0.91238 0.34124 0.51243 0.0
H2079 H 0.949 0.35143 0.51534 0.0
C2080 C 0.02547 0.34713 0.56644 0.0
C2081 C 0.02925 0.36662 0.57216 0.0
C2082 C 0.01499 0.33861 0.54986 0.0
C2083 C 0.00786 0.34934 0.53911 0.0
C2084 C 0.01094 0.36839 0.54523 0.0
C2085 C 0.02174 0.37706 0.5615 0.0
C2086 C 0.99808 0.34155 0.52094 0.0
C2087 C 0.97744 0.33614 0.51873 0.0
C2088 C 0.00947 0.34131 0.50549 0.0
C2089 C 0.03126 0.34667 0.50712 0.0
C2090 C 0.0464 0.3664 0.51291 0.0
C2091 C 0.0669 0.37123 0.51456 0.0
C2092 C 0.07246 0.3565 0.5103 0.0
C2093 C 0.05754 0.33693 0.50433 0.0
C2094 C 0.03701 0.33201 0.50268 0.0
C2095 C 0.95745 0.3466 0.44495 0.0
C2096 C 0.95732 0.33348 0.43107 0.0
C2097 C 0.96525 0.34667 0.46241 0.0
C2098 C 0.97268 0.33328 0.46655 0.0
C2099 C 0.97319 0.32057 0.45255 0.0
C2100 C 0.96558 0.3207 0.43488 0.0
C2101 C 0.9801 0.33307 0.48552 0.0
C2102 C 0.0003 0.33697 0.48793 0.0
C2103 C 0.96816 0.33158 0.50124 0.0
C2104 C 0.94607 0.32544 0.49971 0.0
C2105 C 0.93229 0.30753 0.49 0.0
C2106 C 0.91158 0.30194 0.48835 0.0
C2107 C 0.90441 0.31409 0.49642 0.0
C2108 C 0.91794 0.33183 0.5062 0.0
C2109 C 0.93868 0.3375 0.50788 0.0
H2110 H 0.88838 0.30974 0.49512 0.0
H2111 H 0.08834 0.36027 0.51158 0.0
H2112 H 0.44145 0.03465 0.10774 0.0
H2113 H 0.47355 0.03386 0.10549 0.0
H2114 H 0.50746 0.09984 0.09908 0.0
H2115 H 0.47534 0.10073 0.10108 0.0
H2116 H 0.52183 0.08106 0.07611 0.0
H2117 H 0.50516 0.07867 0.14053 0.0
H2118 H 0.48304 0.06514 0.16808 0.0
H2119 H 0.47953 0.00669 0.16073 0.0
H2120 H 0.5014 0.01979 0.13296 0.0
H2121 H 0.62133 0.10073 0.1027 0.0
H2122 H 0.5883 0.09961 0.09993 0.0
H2123 H 0.55638 0.03377 0.10743 0.0
H2124 H 0.58938 0.03481 0.11044 0.0
H2125 H 0.54051 0.05149 0.12896 0.0
H2126 H 0.55865 0.05458 0.06513 0.0
H2127 H 0.58097 0.06842 0.03773 0.0
H2128 H 0.58208 0.12586 0.04407 0.0
H2129 H 0.55999 0.11245 0.07168 0.0
C2130 C 0.45572 0.04897 0.10568 0.0
C2131 C 0.45593 0.06778 0.10472 0.0
C2132 C 0.47405 0.0485 0.10446 0.0
C2133 C 0.49291 0.06682 0.1024 0.0
C2134 C 0.49307 0.08553 0.10072 0.0
C2135 C 0.47473 0.08602 0.10191 0.0
C2136 C 0.51253 0.06657 0.10277 0.0
C2137 C 0.52603 0.0748 0.08773 0.0
C2138 C 0.51779 0.05801 0.11779 0.0
C2139 C 0.50474 0.05014 0.13455 0.0
C2140 C 0.49954 0.06288 0.14471 0.0
C2141 C 0.48707 0.0553 0.16037 0.0
C2142 C 0.47983 0.03505 0.16612 0.0
C2143 C 0.48511 0.02236 0.15624 0.0
C2144 C 0.49756 0.02986 0.14054 0.0
C2145 C 0.60727 0.086 0.10364 0.0
C2146 C 0.60792 0.06786 0.10678 0.0
C2147 C 0.58842 0.08537 0.10197 0.0
C2148 C 0.56988 0.06658 0.1033 0.0
C2149 C 0.57051 0.04843 0.10634 0.0
C2150 C 0.58936 0.04904 0.10801 0.0
C2151 C 0.54985 0.06597 0.10227 0.0
C2152 C 0.53628 0.05764 0.11725 0.0
C2153 C 0.54458 0.07447 0.08721 0.0
C2154 C 0.55781 0.08256 0.07058 0.0
C2155 C 0.56379 0.07021 0.06077 0.0
C2156 C 0.57637 0.07797 0.04519 0.0
C2157 C 0.58298 0.09802 0.03919 0.0
C2158 C 0.57697 0.11034 0.04874 0.0
C2159 C 0.5644 0.10266 0.06435 0.0
H2160 H 0.59272 0.104 0.02712 0.0
H2161 H 0.47018 0.02921 0.17826 0.0
H2162 H 0.52301 0.62809 0.60524 0.0
H2163 H 0.49048 0.59565 0.60305 0.0
H2164 H 0.52353 0.56244 0.59952 0.0
H2165 H 0.55625 0.59496 0.60156 0.0
H2166 H 0.48966 0.54673 0.57582 0.0
H2167 H 0.50482 0.56512 0.63974 0.0
H2168 H 0.51406 0.58799 0.66683 0.0
H2169 H 0.4594 0.59203 0.65951 0.0
H2170 H 0.44999 0.56943 0.63218 0.0
H2171 H 0.40789 0.44873 0.60482 0.0
H2172 H 0.44049 0.48104 0.60158 0.0
H2173 H 0.40837 0.51508 0.60641 0.0
H2174 H 0.37573 0.48283 0.60976 0.0
H2175 H 0.44195 0.53022 0.62882 0.0
H2176 H 0.42613 0.5105 0.5653 0.0
H2177 H 0.41663 0.48673 0.53887 0.0
H2178 H 0.47227 0.48439 0.54573 0.0
H2179 H 0.48193 0.50789 0.57243 0.0
C2180 C 0.52338 0.61391 0.6038 0.0
C2181 C 0.54216 0.61402 0.60375 0.0
C2182 C 0.50478 0.59539 0.60258 0.0
C2183 C 0.50461 0.57664 0.60137 0.0
C2184 C 0.52335 0.57676 0.60048 0.0
C2185 C 0.542 0.59531 0.60172 0.0
C2186 C 0.48486 0.55694 0.60221 0.0
C2187 C 0.4793 0.54298 0.58747 0.0
C2188 C 0.47125 0.55224 0.61731 0.0
C2189 C 0.47681 0.56576 0.6338 0.0
C2190 C 0.49485 0.57103 0.64382 0.0
C2191 C 0.50011 0.58392 0.65923 0.0
C2192 C 0.48735 0.59151 0.66486 0.0
C2193 C 0.46928 0.58617 0.65511 0.0
C2194 C 0.46397 0.57331 0.63967 0.0
C2195 C 0.40777 0.4631 0.60509 0.0
C2196 C 0.38929 0.46329 0.60756 0.0
C2197 C 0.42638 0.48153 0.60316 0.0
C2198 C 0.42681 0.50044 0.60362 0.0
C2199 C 0.40835 0.50064 0.60599 0.0
C2200 C 0.38973 0.48222 0.60786 0.0
C2201 C 0.4466 0.52004 0.60236 0.0
C2202 C 0.45222 0.53397 0.61709 0.0
C2203 C 0.46023 0.52462 0.58728 0.0
C2204 C 0.45466 0.51081 0.57099 0.0
C2205 C 0.43627 0.50481 0.56126 0.0
C2206 C 0.43086 0.49139 0.54622 0.0
C2207 C 0.44381 0.48401 0.54066 0.0
C2208 C 0.46224 0.4901 0.55007 0.0
C2209 C 0.4677 0.50349 0.56516 0.0
H2210 H 0.43957 0.47359 0.52903 0.0
H2211 H 0.49144 0.60148 0.6768 0.0
H2212 H 0.89485 0.3764 0.11122 0.0
H2213 H 0.8958 0.40936 0.10887 0.0
H2214 H 0.96194 0.44072 0.10381 0.0
H2215 H 0.96111 0.40781 0.10653 0.0
H2216 H 0.95053 0.45985 0.1279 0.0
H2217 H 0.93084 0.43384 0.06627 0.0
H2218 H 0.91 0.40833 0.04248 0.0
H2219 H 0.85622 0.40957 0.06082 0.0
H2220 H 0.87669 0.43489 0.08489 0.0
H2221 H 0.96178 0.55665 0.10501 0.0
H2222 H 0.96231 0.52438 0.10293 0.0
H2223 H 0.89616 0.49014 0.10793 0.0
H2224 H 0.8955 0.52236 0.10957 0.0
H2225 H 0.90871 0.47299 0.08268 0.0
H2226 H 0.9277 0.49739 0.14511 0.0
H2227 H 0.94814 0.5226 0.16927 0.0
H2228 H 0.00283 0.52397 0.14972 0.0
H2229 H 0.98275 0.49897 0.12528 0.0
C2230 C 0.90958 0.39031 0.10951 0.0
C2231 C 0.92791 0.38955 0.10904 0.0
C2232 C 0.9101 0.40913 0.10808 0.0
C2233 C 0.92893 0.4275 0.10594 0.0
C2234 C 0.94724 0.42674 0.10542 0.0
C2235 C 0.94674 0.40793 0.10694 0.0
C2236 C 0.92957 0.44756 0.10491 0.0
C2237 C 0.94165 0.46285 0.11781 0.0
C2238 C 0.9176 0.45128 0.09203 0.0
C2239 C 0.90527 0.43614 0.07749 0.0
C2240 C 0.91454 0.42857 0.06532 0.0
C2241 C 0.9028 0.41416 0.05176 0.0
C2242 C 0.88179 0.4073 0.05016 0.0
C2243 C 0.87249 0.41488 0.06208 0.0
C2244 C 0.88416 0.42928 0.07567 0.0
C2245 C 0.94735 0.54224 0.10555 0.0
C2246 C 0.92861 0.542 0.10757 0.0
C2247 C 0.94767 0.52382 0.10443 0.0
C2248 C 0.92929 0.50484 0.10557 0.0
C2249 C 0.91052 0.5046 0.10706 0.0
C2250 C 0.91018 0.52301 0.10804 0.0
C2251 C 0.92962 0.48523 0.10571 0.0
C2252 C 0.91769 0.47003 0.09268 0.0
C2253 C 0.94169 0.48154 0.1185 0.0
C2254 C 0.95376 0.49647 0.13326 0.0
C2255 C 0.94411 0.50318 0.14589 0.0
C2256 C 0.95562 0.51741 0.15964 0.0
C2257 C 0.97678 0.52492 0.161 0.0
C2258 C 0.98645 0.51816 0.14863 0.0
C2259 C 0.97501 0.50395 0.13484 0.0
H2260 H 0.98567 0.53594 0.17165 0.0
H2261 H 0.87272 0.39614 0.03966 0.0
H2262 H 0.40407 0.96192 0.60572 0.0
H2263 H 0.43585 0.96046 0.60466 0.0
H2264 H 0.40473 0.9005 0.63025 0.0
H2265 H 0.37296 0.90211 0.63176 0.0
H2266 H 0.44152 0.92365 0.64532 0.0
H2267 H 0.41536 0.90639 0.58359 0.0
H2268 H 0.40187 0.91105 0.55401 0.0
H2269 H 0.45811 0.96786 0.54489 0.0
H2270 H 0.47183 0.96371 0.57456 0.0
H2271 H 0.51819 0.8975 0.62549 0.0
H2272 H 0.48568 0.89768 0.62538 0.0
H2273 H 0.51689 0.95971 0.6042 0.0
H2274 H 0.5495 0.95963 0.60422 0.0
H2275 H 0.47979 0.93476 0.58658 0.0
H2276 H 0.50545 0.95206 0.64874 0.0
H2277 H 0.5188 0.94712 0.67828 0.0
H2278 H 0.46309 0.88951 0.68633 0.0
H2279 H 0.44952 0.89397 0.65669 0.0
C2280 C 0.404 0.94843 0.61113 0.0
C2281 C 0.38603 0.93209 0.61876 0.0
C2282 C 0.42214 0.94756 0.61043 0.0
C2283 C 0.42259 0.93022 0.61711 0.0
C2284 C 0.40472 0.914 0.62496 0.0
C2285 C 0.38658 0.91491 0.62578 0.0
C2286 C 0.44178 0.92915 0.61608 0.0
C2287 C 0.44971 0.92576 0.63242 0.0
C2288 C 0.4527 0.93235 0.5993 0.0
C2289 C 0.44455 0.93482 0.58138 0.0
C2290 C 0.42479 0.91995 0.57534 0.0
C2291 C 0.41711 0.9225 0.55855 0.0
C2292 C 0.42911 0.93976 0.5476 0.0
C2293 C 0.44883 0.95451 0.5534 0.0
C2294 C 0.45657 0.95206 0.57019 0.0
C2295 C 0.51811 0.91114 0.62072 0.0
C2296 C 0.53639 0.9286 0.61494 0.0
C2297 C 0.49955 0.91124 0.62072 0.0
C2298 C 0.49894 0.92878 0.61496 0.0
C2299 C 0.51706 0.94604 0.60872 0.0
C2300 C 0.53567 0.94599 0.6088 0.0
C2301 C 0.47947 0.92927 0.6158 0.0
C2302 C 0.47152 0.93257 0.59944 0.0
C2303 C 0.46848 0.92591 0.63253 0.0
C2304 C 0.47656 0.92325 0.65041 0.0
C2305 C 0.49611 0.93826 0.65674 0.0
C2306 C 0.50371 0.93556 0.67351 0.0
C2307 C 0.49182 0.91798 0.68415 0.0
C2308 C 0.47229 0.9031 0.67806 0.0
C2309 C 0.46463 0.90571 0.66128 0.0
H2310 H 0.49773 0.91592 0.69713 0.0
H2311 H 0.42315 0.94169 0.53459 0.0
H2312 H 0.58786 0.55424 0.11466 0.0
H2313 H 0.55443 0.52259 0.1131 0.0
H2314 H 0.58481 0.48751 0.10352 0.0
H2315 H 0.61829 0.51913 0.10486 0.0
H2316 H 0.55116 0.47477 0.0813 0.0
H2317 H 0.56743 0.48924 0.14598 0.0
H2318 H 0.57702 0.51057 0.17415 0.0
H2319 H 0.52253 0.51535 0.16924 0.0
H2320 H 0.51276 0.49427 0.14088 0.0
H2321 H 0.47294 0.37485 0.10785 0.0
H2322 H 0.50455 0.40814 0.10507 0.0
H2323 H 0.47011 0.43924 0.11437 0.0
H2324 H 0.43841 0.40597 0.11724 0.0
H2325 H 0.50472 0.45491 0.13561 0.0
H2326 H 0.48711 0.43858 0.07212 0.0
H2327 H 0.47713 0.41686 0.04421 0.0
H2328 H 0.53357 0.41541 0.04671 0.0
H2329 H 0.54374 0.43685 0.07484 0.0
C2330 C 0.58741 0.53979 0.11214 0.0
C2331 C 0.60568 0.53912 0.11 0.0
C2332 C 0.56831 0.52173 0.11128 0.0
C2333 C 0.56716 0.50268 0.1084 0.0
C2334 C 0.58537 0.50205 0.10577 0.0
C2335 C 0.60447 0.52011 0.10662 0.0
C2336 C 0.54704 0.48332 0.10871 0.0
C2337 C 0.54108 0.47031 0.09323 0.0
C2338 C 0.53368 0.47778 0.12411 0.0
C2339 C 0.53948 0.49037 0.1412 0.0
C2340 C 0.55758 0.49498 0.15083 0.0
C2341 C 0.56303 0.507 0.16684 0.0
C2342 C 0.55042 0.51436 0.17345 0.0
C2343 C 0.5323 0.50966 0.16409 0.0
C2344 C 0.52679 0.49767 0.14805 0.0
C2345 C 0.47208 0.38878 0.1092 0.0
C2346 C 0.45322 0.38783 0.11276 0.0
C2347 C 0.49013 0.40777 0.10754 0.0
C2348 C 0.48963 0.42614 0.10938 0.0
C2349 C 0.4708 0.42523 0.11289 0.0
C2350 C 0.45273 0.40623 0.11447 0.0
C2351 C 0.50889 0.44627 0.10826 0.0
C2352 C 0.51471 0.45942 0.12361 0.0
C2353 C 0.52207 0.45192 0.09273 0.0
C2354 C 0.51611 0.43918 0.0757 0.0
C2355 C 0.49733 0.4335 0.06681 0.0
C2356 C 0.49164 0.42126 0.05093 0.0
C2357 C 0.50469 0.41472 0.04371 0.0
C2358 C 0.52347 0.42047 0.05233 0.0
C2359 C 0.52921 0.43268 0.06824 0.0
H2360 H 0.50025 0.40524 0.03142 0.0
H2361 H 0.55466 0.52366 0.18585 0.0
H2362 H 0.03534 0.43942 0.62538 0.0
H2363 H 0.03568 0.4722 0.62486 0.0
H2364 H 0.10051 0.50401 0.61209 0.0
H2365 H 0.10032 0.47131 0.61268 0.0
H2366 H 0.09095 0.52369 0.63892 0.0
H2367 H 0.06615 0.49463 0.5786 0.0
H2368 H 0.04318 0.46773 0.55668 0.0
H2369 H 0.99117 0.46967 0.57901 0.0
H2370 H 0.0138 0.49639 0.60125 0.0
H2371 H 0.10461 0.61911 0.60891 0.0
H2372 H 0.10265 0.58562 0.60989 0.0
H2373 H 0.03744 0.55614 0.62057 0.0
H2374 H 0.03925 0.58962 0.61937 0.0
H2375 H 0.04614 0.53479 0.59558 0.0
H2376 H 0.07031 0.56392 0.65541 0.0
H2377 H 0.09271 0.59055 0.67778 0.0
H2378 H 0.1451 0.58809 0.65718 0.0
H2379 H 0.12304 0.56164 0.63449 0.0
C2380 C 0.04968 0.45341 0.62251 0.0
C2381 C 0.0678 0.45282 0.61901 0.0
C2382 C 0.04983 0.4721 0.62215 0.0
C2383 C 0.06808 0.49049 0.61825 0.0
C2384 C 0.08626 0.48998 0.6151 0.0
C2385 C 0.08611 0.47129 0.6154 0.0
C2386 C 0.06823 0.51028 0.61736 0.0
C2387 C 0.08135 0.52622 0.62929 0.0
C2388 C 0.05526 0.51334 0.60515 0.0
C2389 C 0.04164 0.49735 0.59172 0.0
C2390 C 0.04979 0.4892 0.57894 0.0
C2391 C 0.03684 0.47401 0.56644 0.0
C2392 C 0.01572 0.46696 0.56649 0.0
C2393 C 0.00752 0.47513 0.579 0.0
C2394 C 0.02041 0.49031 0.59155 0.0
C2395 C 0.08984 0.60549 0.61138 0.0
C2396 C 0.07209 0.60697 0.61415 0.0
C2397 C 0.08876 0.58638 0.61202 0.0
C2398 C 0.06995 0.56843 0.61557 0.0
C2399 C 0.05211 0.56981 0.61787 0.0
C2400 C 0.05318 0.58894 0.61722 0.0
C2401 C 0.069 0.54827 0.61704 0.0
C2402 C 0.05572 0.53226 0.60524 0.0
C2403 C 0.08174 0.5451 0.62945 0.0
C2404 C 0.09505 0.56094 0.64313 0.0
C2405 C 0.08663 0.56917 0.65555 0.0
C2406 C 0.09926 0.58421 0.6683 0.0
C2407 C 0.12033 0.59104 0.66887 0.0
C2408 C 0.12879 0.5828 0.65671 0.0
C2409 C 0.11622 0.56777 0.64391 0.0
H2410 H 0.13008 0.60269 0.67875 0.0
H2411 H 0.00572 0.4552 0.5568 0.0
H2412 H 0.96437 0.55415 0.3827 0.0
H2413 H 0.96465 0.52168 0.38204 0.0
H2414 H 0.89875 0.4881 0.38923 0.0
H2415 H 0.8984 0.5205 0.39014 0.0
H2416 H 0.9173 0.47269 0.41072 0.0
H2417 H 0.91987 0.49203 0.347 0.0
H2418 H 0.93373 0.51519 0.32012 0.0
H2419 H 0.99154 0.51701 0.3262 0.0
H2420 H 0.97811 0.49408 0.35329 0.0
H2421 H 0.89667 0.37366 0.38402 0.0
H2422 H 0.8978 0.40676 0.38513 0.0
H2423 H 0.96358 0.43831 0.37722 0.0
H2424 H 0.96251 0.40519 0.37579 0.0
H2425 H 0.94604 0.45518 0.35647 0.0
H2426 H 0.94332 0.43535 0.41983 0.0
H2427 H 0.9295 0.41221 0.44672 0.0
H2428 H 0.87211 0.4114 0.44141 0.0
H2429 H 0.88549 0.43432 0.41431 0.0
C2430 C 0.94996 0.53984 0.38424 0.0
C2431 C 0.93135 0.53984 0.3864 0.0
C2432 C 0.95013 0.52132 0.38377 0.0
C2433 C 0.93168 0.50247 0.38534 0.0
C2434 C 0.91315 0.50247 0.38795 0.0
C2435 C 0.91297 0.52098 0.38843 0.0
C2436 C 0.93163 0.48273 0.38406 0.0
C2437 C 0.92336 0.46875 0.39877 0.0
C2438 C 0.93999 0.47782 0.36865 0.0
C2439 C 0.94805 0.4915 0.35229 0.0
C2440 C 0.93559 0.49749 0.34269 0.0
C2441 C 0.94336 0.51056 0.32741 0.0
C2442 C 0.96352 0.51761 0.32149 0.0
C2443 C 0.97593 0.51156 0.33082 0.0
C2444 C 0.96825 0.49852 0.34613 0.0
C2445 C 0.91136 0.38765 0.38245 0.0
C2446 C 0.92952 0.38686 0.37992 0.0
C2447 C 0.912 0.40655 0.38317 0.0
C2448 C 0.93082 0.42501 0.38154 0.0
C2449 C 0.94891 0.42425 0.37857 0.0
C2450 C 0.94828 0.40533 0.3778 0.0
C2451 C 0.93161 0.4451 0.38309 0.0
C2452 C 0.94003 0.45914 0.36844 0.0
C2453 C 0.9234 0.45008 0.39857 0.0
C2454 C 0.91535 0.4364 0.41494 0.0
C2455 C 0.9277 0.43012 0.42432 0.0
C2456 C 0.91995 0.41706 0.43961 0.0
C2457 C 0.89992 0.4103 0.44575 0.0
C2458 C 0.88761 0.41663 0.43663 0.0
C2459 C 0.89528 0.42967 0.42131 0.0
H2460 H 0.89395 0.40019 0.45759 0.0
H2461 H 0.96951 0.52773 0.30965 0.0
H2462 H 0.55654 0.96121 0.88346 0.0
H2463 H 0.52357 0.9603 0.88543 0.0
H2464 H 0.49211 0.89421 0.89085 0.0
H2465 H 0.52503 0.89499 0.88856 0.0
H2466 H 0.47347 0.90562 0.86607 0.0
H2467 H 0.49828 0.92498 0.92785 0.0
H2468 H 0.52354 0.94559 0.9519 0.0
H2469 H 0.52267 0.99959 0.93364 0.0
H2470 H 0.49766 0.97938 0.90926 0.0
H2471 H 0.37633 0.89402 0.88893 0.0
H2472 H 0.40879 0.89383 0.89069 0.0
H2473 H 0.4425 0.95979 0.88402 0.0
H2474 H 0.41008 0.96012 0.88253 0.0
H2475 H 0.45953 0.94751 0.91054 0.0
H2476 H 0.43602 0.92824 0.84786 0.0
H2477 H 0.41117 0.90762 0.82355 0.0
H2478 H 0.40974 0.85314 0.84379 0.0
H2479 H 0.43439 0.87341 0.86839 0.0
C2480 C 0.54261 0.9465 0.8852 0.0
C2481 C 0.54334 0.92817 0.88587 0.0
C2482 C 0.52379 0.94601 0.8864 0.0
C2483 C 0.50539 0.9272 0.88847 0.0
C2484 C 0.50612 0.90889 0.88927 0.0
C2485 C 0.52493 0.90936 0.88801 0.0
C2486 C 0.48533 0.92657 0.8891 0.0
C2487 C 0.4703 0.91452 0.876 0.0
C2488 C 0.48138 0.93853 0.9018 0.0
C2489 C 0.49622 0.95069 0.91662 0.0
C2490 C 0.50358 0.94128 0.92888 0.0
C2491 C 0.51784 0.95289 0.94258 0.0
C2492 C 0.52474 0.97389 0.94427 0.0
C2493 C 0.51733 0.98332 0.9323 0.0
C2494 C 0.5031 0.97179 0.91854 0.0
C2495 C 0.39066 0.90848 0.88786 0.0
C2496 C 0.39068 0.92708 0.88549 0.0
C2497 C 0.40919 0.90835 0.88883 0.0
C2498 C 0.42806 0.92677 0.88728 0.0
C2499 C 0.42811 0.9454 0.88524 0.0
C2500 C 0.40959 0.94555 0.88431 0.0
C2501 C 0.44774 0.92661 0.88747 0.0
C2502 C 0.46269 0.93853 0.9007 0.0
C2503 C 0.45163 0.91449 0.87492 0.0
C2504 C 0.43689 0.90231 0.86008 0.0
C2505 C 0.43029 0.91184 0.84721 0.0
C2506 C 0.41626 0.90022 0.83336 0.0
C2507 C 0.40884 0.87907 0.83215 0.0
C2508 C 0.41548 0.86951 0.84476 0.0
C2509 C 0.42949 0.88106 0.85865 0.0
H2510 H 0.39798 0.8701 0.82142 0.0
H2511 H 0.53579 0.98285 0.95489 0.0
H2512 H 0.47765 0.37569 0.38079 0.0
H2513 H 0.51015 0.40833 0.38041 0.0
H2514 H 0.47698 0.44142 0.38415 0.0
H2515 H 0.44434 0.40878 0.38434 0.0
H2516 H 0.50713 0.45779 0.35807 0.0
H2517 H 0.50129 0.43712 0.42154 0.0
H2518 H 0.49627 0.41349 0.44724 0.0
H2519 H 0.54983 0.41103 0.4303 0.0
H2520 H 0.55501 0.43443 0.40432 0.0
H2521 H 0.5934 0.55532 0.37966 0.0
H2522 H 0.56038 0.52319 0.3802 0.0
H2523 H 0.59209 0.48855 0.37848 0.0
H2524 H 0.62518 0.52064 0.37831 0.0
H2525 H 0.5623 0.47323 0.40378 0.0
H2526 H 0.56813 0.49362 0.34021 0.0
H2527 H 0.57347 0.51747 0.3146 0.0
H2528 H 0.52018 0.52043 0.33152 0.0
H2529 H 0.5147 0.49684 0.35741 0.0
C2530 C 0.47727 0.38992 0.38161 0.0
C2531 C 0.45847 0.3897 0.38266 0.0
C2532 C 0.49585 0.40854 0.38144 0.0
C2533 C 0.49597 0.42728 0.38242 0.0
C2534 C 0.47721 0.42712 0.3834 0.0
C2535 C 0.45861 0.40848 0.38358 0.0
C2536 C 0.5157 0.44704 0.38223 0.0
C2537 C 0.5191 0.46132 0.36821 0.0
C2538 C 0.53146 0.45139 0.39522 0.0
C2539 C 0.52842 0.43738 0.41088 0.0
C2540 C 0.51191 0.43141 0.42321 0.0
C2541 C 0.50905 0.41808 0.43784 0.0
C2542 C 0.52269 0.41072 0.44038 0.0
C2543 C 0.53926 0.41672 0.4283 0.0
C2544 C 0.54218 0.43004 0.41363 0.0
C2545 C 0.59332 0.54085 0.37932 0.0
C2546 C 0.61184 0.54046 0.3789 0.0
C2547 C 0.57446 0.52251 0.37957 0.0
C2548 C 0.57378 0.50348 0.37919 0.0
C2549 C 0.59227 0.50307 0.37878 0.0
C2550 C 0.61115 0.5214 0.37862 0.0
C2551 C 0.5538 0.48397 0.37956 0.0
C2552 C 0.55034 0.46973 0.39364 0.0
C2553 C 0.53802 0.47965 0.36659 0.0
C2554 C 0.54112 0.49361 0.35086 0.0
C2555 C 0.55763 0.49947 0.33854 0.0
C2556 C 0.56068 0.51292 0.32396 0.0
C2557 C 0.54721 0.5205 0.32146 0.0
C2558 C 0.53062 0.51457 0.33349 0.0
C2559 C 0.52752 0.50115 0.34811 0.0
H2560 H 0.54961 0.53094 0.31018 0.0
H2561 H 0.52045 0.4004 0.45171 0.0
H2562 H 0.03718 0.44264 0.8809 0.0
H2563 H 0.03517 0.47418 0.88231 0.0
H2564 H 0.1001 0.50922 0.8945 0.0
H2565 H 0.10215 0.47773 0.89337 0.0
H2566 H 0.07851 0.52069 0.91633 0.0
H2567 H 0.08211 0.50906 0.85133 0.0
H2568 H 0.07123 0.48901 0.82241 0.0
H2569 H 0.01184 0.48408 0.8266 0.0
H2570 H 0.02229 0.50387 0.8557 0.0
H2571 H 0.10069 0.62164 0.89416 0.0
H2572 H 0.099 0.58828 0.89539 0.0
H2573 H 0.0339 0.55773 0.88387 0.0
H2574 H 0.03552 0.59112 0.88245 0.0
H2575 H 0.05332 0.5429 0.86259 0.0
H2576 H 0.05043 0.55625 0.92677 0.0
H2577 H 0.06147 0.57645 0.9556 0.0
H2578 H 0.11952 0.57827 0.95297 0.0
H2579 H 0.10895 0.55833 0.92397 0.0
C2580 C 0.05101 0.45707 0.8839 0.0
C2581 C 0.06984 0.45775 0.88695 0.0
C2582 C 0.04986 0.47507 0.88465 0.0
C2583 C 0.06754 0.49408 0.88833 0.0
C2584 C 0.08628 0.49472 0.89164 0.0
C2585 C 0.08744 0.47674 0.89092 0.0
C2586 C 0.06662 0.51336 0.88858 0.0
C2587 C 0.0732 0.52566 0.90451 0.0
C2588 C 0.05918 0.51955 0.87334 0.0
C2589 C 0.05291 0.50775 0.85579 0.0
C2590 C 0.06668 0.50356 0.84616 0.0
C2591 C 0.0606 0.49227 0.82972 0.0
C2592 C 0.04084 0.48522 0.8227 0.0
C2593 C 0.02713 0.48952 0.83207 0.0
C2594 C 0.03313 0.50078 0.84853 0.0
C2595 C 0.086 0.60781 0.89199 0.0
C2596 C 0.06823 0.60897 0.88824 0.0
C2597 C 0.08504 0.58876 0.89276 0.0
C2598 C 0.06629 0.57051 0.88989 0.0
C2599 C 0.04851 0.57163 0.88615 0.0
C2600 C 0.04945 0.59069 0.88541 0.0
C2601 C 0.06542 0.55034 0.89027 0.0
C2602 C 0.05849 0.53787 0.87446 0.0
C2603 C 0.07256 0.544 0.90562 0.0
C2604 C 0.07896 0.55594 0.9231 0.0
C2605 C 0.06562 0.5611 0.93226 0.0
C2606 C 0.07178 0.57247 0.94865 0.0
C2607 C 0.0912 0.57868 0.95609 0.0
C2608 C 0.10449 0.57347 0.94718 0.0
C2609 C 0.09841 0.56211 0.93077 0.0
H2610 H 0.09594 0.58748 0.96878 0.0
H2611 H 0.03616 0.47648 0.80997 0.0
H2612 H 0.58926 0.0346 0.3822 0.0
H2613 H 0.55632 0.03376 0.38433 0.0
H2614 H 0.58755 0.0965 0.40379 0.0
H2615 H 0.62058 0.09742 0.40178 0.0
H2616 H 0.55155 0.07194 0.42294 0.0
H2617 H 0.57394 0.08735 0.3599 0.0
H2618 H 0.58624 0.08195 0.32998 0.0
H2619 H 0.53112 0.02333 0.32423 0.0
H2620 H 0.51862 0.02825 0.35428 0.0
H2621 H 0.47453 0.0981 0.40159 0.0
H2622 H 0.50621 0.09643 0.40402 0.0
H2623 H 0.47408 0.03399 0.38382 0.0
H2624 H 0.44238 0.03556 0.3813 0.0
H2625 H 0.5102 0.05767 0.36566 0.0
H2626 H 0.48722 0.04303 0.42841 0.0
H2627 H 0.47511 0.04877 0.45828 0.0
H2628 H 0.53132 0.10635 0.46451 0.0
H2629 H 0.54365 0.10109 0.43453 0.0
C2630 C 0.5891 0.04816 0.38706 0.0
C2631 C 0.60749 0.06613 0.3917 0.0
C2632 C 0.57029 0.04768 0.38823 0.0
C2633 C 0.56955 0.06515 0.39402 0.0
C2634 C 0.58781 0.08287 0.39927 0.0
C2635 C 0.60665 0.08339 0.39805 0.0
C2636 C 0.54984 0.06519 0.39386 0.0
C2637 C 0.54259 0.06905 0.4104 0.0
C2638 C 0.53802 0.06103 0.37754 0.0
C2639 C 0.54544 0.05807 0.35943 0.0
C2640 C 0.56451 0.07323 0.35233 0.0
C2641 C 0.57151 0.07027 0.33534 0.0
C2642 C 0.55949 0.05228 0.32524 0.0
C2643 C 0.54042 0.03724 0.33209 0.0
C2644 C 0.53337 0.04011 0.34909 0.0
C2645 C 0.47419 0.08397 0.39781 0.0
C2646 C 0.45601 0.06696 0.39124 0.0
C2647 C 0.49227 0.08301 0.39927 0.0
C2648 C 0.49245 0.06504 0.3942 0.0
C2649 C 0.47425 0.04799 0.38781 0.0
C2650 C 0.45616 0.0489 0.38643 0.0
C2651 C 0.51183 0.06436 0.39476 0.0
C2652 C 0.51907 0.06046 0.37825 0.0
C2653 C 0.52364 0.06854 0.41109 0.0
C2654 C 0.51627 0.07175 0.42913 0.0
C2655 C 0.49693 0.057 0.43607 0.0
C2656 C 0.49004 0.06015 0.45304 0.0
C2657 C 0.50241 0.07794 0.46327 0.0
C2658 C 0.52173 0.09259 0.45656 0.0
C2659 C 0.52869 0.08952 0.43959 0.0
H2660 H 0.49706 0.08035 0.4764 0.0
H2661 H 0.56493 0.05002 0.31208 0.0
H2662 H 0.5283 0.62567 0.89385 0.0
H2663 H 0.49631 0.59273 0.89666 0.0
H2664 H 0.53023 0.56058 0.8909 0.0
H2665 H 0.56227 0.59347 0.88791 0.0
H2666 H 0.49715 0.54475 0.8685 0.0
H2667 H 0.51069 0.5628 0.93238 0.0
H2668 H 0.51869 0.585 0.95981 0.0
H2669 H 0.46285 0.58676 0.95213 0.0
H2670 H 0.45465 0.56479 0.92448 0.0
H2671 H 0.41294 0.44615 0.88877 0.0
H2672 H 0.4462 0.47789 0.89089 0.0
H2673 H 0.41524 0.51294 0.89693 0.0
H2674 H 0.38191 0.4812 0.89519 0.0
H2675 H 0.44755 0.5266 0.92015 0.0
H2676 H 0.43494 0.50971 0.8554 0.0
H2677 H 0.42692 0.48717 0.82817 0.0
H2678 H 0.48132 0.48321 0.8377 0.0
H2679 H 0.48951 0.50549 0.86514 0.0
C2680 C 0.52896 0.61159 0.89335 0.0
C2681 C 0.54777 0.61213 0.89065 0.0
C2682 C 0.51069 0.59279 0.89502 0.0
C2683 C 0.51092 0.57421 0.89411 0.0
C2684 C 0.52972 0.57474 0.89165 0.0
C2685 C 0.548 0.59353 0.89 0.0
C2686 C 0.49142 0.55424 0.89488 0.0
C2687 C 0.48645 0.54063 0.87994 0.0
C2688 C 0.47728 0.54909 0.90961 0.0
C2689 C 0.48216 0.5623 0.92625 0.0
C2690 C 0.5002 0.56806 0.93644 0.0
C2691 C 0.50475 0.58058 0.95205 0.0
C2692 C 0.49131 0.58733 0.95768 0.0
C2693 C 0.47326 0.58154 0.94774 0.0
C2694 C 0.46864 0.56904 0.9321 0.0
C2695 C 0.41323 0.46061 0.89066 0.0
C2696 C 0.39485 0.46124 0.8917 0.0
C2697 C 0.43223 0.47873 0.89181 0.0
C2698 C 0.43318 0.4978 0.8938 0.0
C2699 C 0.41484 0.49839 0.89536 0.0
C2700 C 0.39583 0.48026 0.8943 0.0
C2701 C 0.45327 0.51719 0.89374 0.0
C2702 C 0.45832 0.5307 0.90877 0.0
C2703 C 0.4675 0.52227 0.87909 0.0
C2704 C 0.46273 0.5091 0.86243 0.0
C2705 C 0.44512 0.50392 0.85175 0.0
C2706 C 0.44055 0.49121 0.83628 0.0
C2707 C 0.45357 0.48371 0.83125 0.0
C2708 C 0.47123 0.489 0.84163 0.0
C2709 C 0.47585 0.50168 0.85714 0.0
H2710 H 0.45 0.47383 0.8193 0.0
H2711 H 0.49486 0.59702 0.96978 0.0
loop_
_geom_bond_atom_site_label_1
_geom_bond_atom_site_label_2
_geom_bond_distance
_geom_bond_site_symmetry_2
_ccdc_geom_bond_type
In0 O1 2.294 . S
In0 O2 2.326 . S
In0 O6 2.266 . S
In0 O7 2.326 . S
In0 O8 2.266 . S
In0 O9 2.326 . S
In0 O11 2.294 . S
In0 O12 2.326 . S
O1 In0 2.294 . S
O1 C10 1.240 . S
O2 In0 2.326 . S
O2 C10 1.252 . S
C3 O6 1.252 . S
C3 O7 1.260 . S
C4 O11 1.240 . S
C4 O12 1.252 . S
C5 O8 1.252 . S
C5 O9 1.260 . S
O6 In0 2.266 . S
O6 C3 1.252 . S
O7 In0 2.326 . S
O7 C3 1.260 . S
O8 In0 2.266 . S
O8 C5 1.252 . S
O9 In0 2.326 . S
O9 C5 1.260 . S
C10 O1 1.240 . S
C10 O2 1.252 . S
O11 In0 2.294 . S
O11 C4 1.240 . S
O12 In0 2.326 . S
O12 C4 1.252 . S
In13 O14 2.294 . S
In13 O15 2.326 . S
In13 O19 2.266 . S
In13 O20 2.326 . S
In13 O21 2.266 . S
In13 O22 2.326 . S
In13 O24 2.294 . S
In13 O25 2.326 . S
O14 In13 2.294 . S
O14 C23 1.240 . S
O15 In13 2.326 . S
O15 C23 1.252 . S
C16 O19 1.252 . S
C16 O20 1.260 . S
C17 O24 1.240 . S
C17 O25 1.252 . S
C18 O21 1.252 . S
C18 O22 1.260 . S
O19 In13 2.266 . S
O19 C16 1.252 . S
O20 In13 2.326 . S
O20 C16 1.260 . S
O21 In13 2.266 . S
O21 C18 1.252 . S
O22 In13 2.326 . S
O22 C18 1.260 . S
C23 O14 1.240 . S
C23 O15 1.252 . S
O24 In13 2.294 . S
O24 C17 1.240 . S
O25 In13 2.326 . S
O25 C17 1.252 . S
In26 O27 2.294 . S
In26 O28 2.326 . S
In26 O32 2.266 . S
In26 O33 2.326 . S
In26 O34 2.266 . S
In26 O35 2.326 . S
In26 O37 2.294 . S
In26 O38 2.326 . S
O27 In26 2.294 . S
O27 C36 1.240 . S
O28 In26 2.326 . S
O28 C36 1.252 . S
C29 O32 1.252 . S
C29 O33 1.260 . S
C30 O37 1.240 . S
C30 O38 1.252 . S
C31 O34 1.252 . S
C31 O35 1.260 . S
O32 In26 2.266 . S
O32 C29 1.252 . S
O33 In26 2.326 . S
O33 C29 1.260 . S
O34 In26 2.266 . S
O34 C31 1.252 . S
O35 In26 2.326 . S
O35 C31 1.260 . S
C36 O27 1.240 . S
C36 O28 1.252 . S
O37 In26 2.294 . S
O37 C30 1.240 . S
O38 In26 2.326 . S
O38 C30 1.252 . S
In39 O40 2.294 . S
In39 O41 2.326 . S
In39 O45 2.266 . S
In39 O46 2.326 . S
In39 O47 2.266 . S
In39 O48 2.326 . S
In39 O50 2.294 . S
In39 O51 2.326 . S
O40 In39 2.294 . S
O40 C49 1.240 . S
O41 In39 2.326 . S
O41 C49 1.252 . S
C42 O45 1.252 . S
C42 O46 1.260 . S
C43 O50 1.240 . S
C43 O51 1.252 . S
C44 O47 1.252 . S
C44 O48 1.260 . S
O45 In39 2.266 . S
O45 C42 1.252 . S
O46 In39 2.326 . S
O46 C42 1.260 . S
O47 In39 2.266 . S
O47 C44 1.252 . S
O48 In39 2.326 . S
O48 C44 1.260 . S
C49 O40 1.240 . S
C49 O41 1.252 . S
O50 In39 2.294 . S
O50 C43 1.240 . S
O51 In39 2.326 . S
O51 C43 1.252 . S
In52 O53 2.294 . S
In52 O54 2.326 . S
In52 O58 2.266 . S
In52 O59 2.326 . S
In52 O60 2.266 . S
In52 O61 2.326 . S
In52 O63 2.294 . S
In52 O64 2.326 . S
O53 In52 2.294 . S
O53 C62 1.240 . S
O54 In52 2.326 . S
O54 C62 1.252 . S
C55 O58 1.252 . S
C55 O59 1.260 . S
C56 O63 1.240 . S
C56 O64 1.252 . S
C57 O60 1.252 . S
C57 O61 1.260 . S
O58 In52 2.266 . S
O58 C55 1.252 . S
O59 In52 2.326 . S
O59 C55 1.260 . S
O60 In52 2.266 . S
O60 C57 1.252 . S
O61 In52 2.326 . S
O61 C57 1.260 . S
C62 O53 1.240 . S
C62 O54 1.252 . S
O63 In52 2.294 . S
O63 C56 1.240 . S
O64 In52 2.326 . S
O64 C56 1.252 . S
In65 O66 2.294 . S
In65 O67 2.326 . S
In65 O71 2.266 . S
In65 O72 2.326 . S
In65 O73 2.266 . S
In65 O74 2.326 . S
In65 O76 2.294 . S
In65 O77 2.326 . S
O66 In65 2.294 . S
O66 C75 1.240 . S
O67 In65 2.326 . S
O67 C75 1.252 . S
C68 O71 1.252 . S
C68 O72 1.260 . S
C69 O76 1.240 . S
C69 O77 1.252 . S
C70 O73 1.252 . S
C70 O74 1.260 . S
O71 In65 2.266 . S
O71 C68 1.252 . S
O72 In65 2.326 . S
O72 C68 1.260 . S
O73 In65 2.266 . S
O73 C70 1.252 . S
O74 In65 2.326 . S
O74 C70 1.260 . S
C75 O66 1.240 . S
C75 O67 1.252 . S
O76 In65 2.294 . S
O76 C69 1.240 . S
O77 In65 2.326 . S
O77 C69 1.252 . S
In78 O79 2.294 . S
In78 O80 2.326 . S
In78 O84 2.266 . S
In78 O85 2.326 . S
In78 O86 2.266 . S
In78 O87 2.326 . S
In78 O89 2.294 . S
In78 O90 2.326 . S
O79 In78 2.294 . S
O79 C88 1.240 . S
O80 In78 2.326 . S
O80 C88 1.252 . S
C81 O84 1.252 . S
C81 O85 1.260 . S
C82 O89 1.240 . S
C82 O90 1.252 . S
C83 O86 1.252 . S
C83 O87 1.260 . S
O84 In78 2.266 . S
O84 C81 1.252 . S
O85 In78 2.326 . S
O85 C81 1.260 . S
O86 In78 2.266 . S
O86 C83 1.252 . S
O87 In78 2.326 . S
O87 C83 1.260 . S
C88 O79 1.240 . S
C88 O80 1.252 . S
O89 In78 2.294 . S
O89 C82 1.240 . S
O90 In78 2.326 . S
O90 C82 1.252 . S
In91 O92 2.294 . S
In91 O93 2.326 . S
In91 O97 2.266 . S
In91 O98 2.326 . S
In91 O99 2.266 . S
In91 O100 2.326 . S
In91 O102 2.294 . S
In91 O103 2.326 . S
O92 In91 2.294 . S
O92 C101 1.240 . S
O93 In91 2.326 . S
O93 C101 1.252 . S
C94 O97 1.252 . S
C94 O98 1.260 . S
C95 O102 1.240 . S
C95 O103 1.252 . S
C96 O99 1.252 . S
C96 O100 1.260 . S
O97 In91 2.266 . S
O97 C94 1.252 . S
O98 In91 2.326 . S
O98 C94 1.260 . S
O99 In91 2.266 . S
O99 C96 1.252 . S
O100 In91 2.326 . S
O100 C96 1.260 . S
C101 O92 1.240 . S
C101 O93 1.252 . S
O102 In91 2.294 . S
O102 C95 1.240 . S
O103 In91 2.326 . S
O103 C95 1.252 . S
In104 O105 2.294 . S
In104 O106 2.326 . S
In104 O110 2.266 . S
In104 O111 2.326 . S
In104 O112 2.266 . S
In104 O113 2.326 . S
In104 O115 2.294 . S
In104 O116 2.326 . S
O105 In104 2.294 . S
O105 C114 1.240 . S
O106 In104 2.326 . S
O106 C114 1.252 . S
C107 O110 1.252 . S
C107 O111 1.260 . S
C108 O115 1.240 . S
C108 O116 1.252 . S
C109 O112 1.252 . S
C109 O113 1.260 . S
O110 In104 2.266 . S
O110 C107 1.252 . S
O111 In104 2.326 . S
O111 C107 1.260 . S
O112 In104 2.266 . S
O112 C109 1.252 . S
O113 In104 2.326 . S
O113 C109 1.260 . S
C114 O105 1.240 . S
C114 O106 1.252 . S
O115 In104 2.294 . S
O115 C108 1.240 . S
O116 In104 2.326 . S
O116 C108 1.252 . S
In117 O118 2.294 . S
In117 O119 2.326 . S
In117 O123 2.266 . S
In117 O124 2.326 . S
In117 O125 2.266 . S
In117 O126 2.326 . S
In117 O128 2.294 . S
In117 O129 2.326 . S
O118 In117 2.294 . S
O118 C127 1.240 . S
O119 In117 2.326 . S
O119 C127 1.252 . S
C120 O123 1.252 . S
C120 O124 1.260 . S
C121 O128 1.240 . S
C121 O129 1.252 . S
C122 O125 1.252 . S
C122 O126 1.260 . S
O123 In117 2.266 . S
O123 C120 1.252 . S
O124 In117 2.326 . S
O124 C120 1.260 . S
O125 In117 2.266 . S
O125 C122 1.252 . S
O126 In117 2.326 . S
O126 C122 1.260 . S
C127 O118 1.240 . S
C127 O119 1.252 . S
O128 In117 2.294 . S
O128 C121 1.240 . S
O129 In117 2.326 . S
O129 C121 1.252 . S
In130 O131 2.294 . S
In130 O132 2.326 . S
In130 O136 2.266 . S
In130 O137 2.326 . S
In130 O138 2.266 . S
In130 O139 2.326 . S
In130 O141 2.294 . S
In130 O142 2.326 . S
O131 In130 2.294 . S
O131 C140 1.240 . S
O132 In130 2.326 . S
O132 C140 1.252 . S
C133 O136 1.252 . S
C133 O137 1.260 . S
C134 O141 1.240 . S
C134 O142 1.252 . S
C135 O138 1.252 . S
C135 O139 1.260 . S
O136 In130 2.266 . S
O136 C133 1.252 . S
O137 In130 2.326 . S
O137 C133 1.260 . S
O138 In130 2.266 . S
O138 C135 1.252 . S
O139 In130 2.326 . S
O139 C135 1.260 . S
C140 O131 1.240 . S
C140 O132 1.252 . S
O141 In130 2.294 . S
O141 C134 1.240 . S
O142 In130 2.326 . S
O142 C134 1.252 . S
In143 O144 2.294 . S
In143 O145 2.326 . S
In143 O149 2.266 . S
In143 O150 2.326 . S
In143 O151 2.266 . S
In143 O152 2.326 . S
In143 O154 2.294 . S
In143 O155 2.326 . S
O144 In143 2.294 . S
O144 C153 1.240 . S
O145 In143 2.326 . S
O145 C153 1.252 . S
C146 O149 1.252 . S
C146 O150 1.260 . S
C147 O154 1.240 . S
C147 O155 1.252 . S
C148 O151 1.252 . S
C148 O152 1.260 . S
O149 In143 2.266 . S
O149 C146 1.252 . S
O150 In143 2.326 . S
O150 C146 1.260 . S
O151 In143 2.266 . S
O151 C148 1.252 . S
O152 In143 2.326 . S
O152 C148 1.260 . S
C153 O144 1.240 . S
C153 O145 1.252 . S
O154 In143 2.294 . S
O154 C147 1.240 . S
O155 In143 2.326 . S
O155 C147 1.252 . S
In156 O157 2.294 . S
In156 O158 2.326 . S
In156 O162 2.266 . S
In156 O163 2.326 . S
In156 O164 2.266 . S
In156 O165 2.326 . S
In156 O167 2.294 . S
In156 O168 2.326 . S
O157 In156 2.294 . S
O157 C166 1.240 . S
O158 In156 2.326 . S
O158 C166 1.252 . S
C159 O162 1.252 . S
C159 O163 1.260 . S
C160 O167 1.240 . S
C160 O168 1.252 . S
C161 O164 1.252 . S
C161 O165 1.260 . S
O162 In156 2.266 . S
O162 C159 1.252 . S
O163 In156 2.326 . S
O163 C159 1.260 . S
O164 In156 2.266 . S
O164 C161 1.252 . S
O165 In156 2.326 . S
O165 C161 1.260 . S
C166 O157 1.240 . S
C166 O158 1.252 . S
O167 In156 2.294 . S
O167 C160 1.240 . S
O168 In156 2.326 . S
O168 C160 1.252 . S
In169 O170 2.294 . S
In169 O171 2.326 . S
In169 O175 2.266 . S
In169 O176 2.326 . S
In169 O177 2.266 . S
In169 O178 2.326 . S
In169 O180 2.294 . S
In169 O181 2.326 . S
O170 In169 2.294 . S
O170 C179 1.240 . S
O171 In169 2.326 . S
O171 C179 1.252 . S
C172 O175 1.252 . S
C172 O176 1.260 . S
C173 O180 1.240 . S
C173 O181 1.252 . S
C174 O177 1.252 . S
C174 O178 1.260 . S
O175 In169 2.266 . S
O175 C172 1.252 . S
O176 In169 2.326 . S
O176 C172 1.260 . S
O177 In169 2.266 . S
O177 C174 1.252 . S
O178 In169 2.326 . S
O178 C174 1.260 . S
C179 O170 1.240 . S
C179 O171 1.252 . S
O180 In169 2.294 . S
O180 C173 1.240 . S
O181 In169 2.326 . S
O181 C173 1.252 . S
In182 O183 2.294 . S
In182 O184 2.326 . S
In182 O188 2.266 . S
In182 O189 2.326 . S
In182 O190 2.266 . S
In182 O191 2.326 . S
In182 O193 2.294 . S
In182 O194 2.326 . S
O183 In182 2.294 . S
O183 C192 1.240 . S
O184 In182 2.326 . S
O184 C192 1.252 . S
C185 O188 1.252 . S
C185 O189 1.260 . S
C186 O193 1.240 . S
C186 O194 1.252 . S
C187 O190 1.252 . S
C187 O191 1.260 . S
O188 In182 2.266 . S
O188 C185 1.252 . S
O189 In182 2.326 . S
O189 C185 1.260 . S
O190 In182 2.266 . S
O190 C187 1.252 . S
O191 In182 2.326 . S
O191 C187 1.260 . S
C192 O183 1.240 . S
C192 O184 1.252 . S
O193 In182 2.294 . S
O193 C186 1.240 . S
O194 In182 2.326 . S
O194 C186 1.252 . S
In195 O196 2.294 . S
In195 O197 2.326 . S
In195 O201 2.266 . S
In195 O202 2.326 . S
In195 O203 2.266 . S
In195 O204 2.326 . S
In195 O206 2.294 . S
In195 O207 2.326 . S
O196 In195 2.294 . S
O196 C205 1.240 . S
O197 In195 2.326 . S
O197 C205 1.252 . S
C198 O201 1.252 . S
C198 O202 1.260 . S
C199 O206 1.240 . S
C199 O207 1.252 . S
C200 O203 1.252 . S
C200 O204 1.260 . S
O201 In195 2.266 . S
O201 C198 1.252 . S
O202 In195 2.326 . S
O202 C198 1.260 . S
O203 In195 2.266 . S
O203 C200 1.252 . S
O204 In195 2.326 . S
O204 C200 1.260 . S
C205 O196 1.240 . S
C205 O197 1.252 . S
O206 In195 2.294 . S
O206 C199 1.240 . S
O207 In195 2.326 . S
O207 C199 1.252 . S
In208 O209 2.294 . S
In208 O210 2.326 . S
In208 O214 2.266 . S
In208 O215 2.326 . S
In208 O216 2.266 . S
In208 O217 2.326 . S
In208 O219 2.294 . S
In208 O220 2.326 . S
O209 In208 2.294 . S
O209 C218 1.240 . S
O210 In208 2.326 . S
O210 C218 1.252 . S
C211 O214 1.252 . S
C211 O215 1.260 . S
C212 O219 1.240 . S
C212 O220 1.252 . S
C213 O216 1.252 . S
C213 O217 1.260 . S
O214 In208 2.266 . S
O214 C211 1.252 . S
O215 In208 2.326 . S
O215 C211 1.260 . S
O216 In208 2.266 . S
O216 C213 1.252 . S
O217 In208 2.326 . S
O217 C213 1.260 . S
C218 O209 1.240 . S
C218 O210 1.252 . S
O219 In208 2.294 . S
O219 C212 1.240 . S
O220 In208 2.326 . S
O220 C212 1.252 . S
In221 O222 2.294 . S
In221 O223 2.326 . S
In221 O227 2.266 . S
In221 O228 2.326 . S
In221 O229 2.266 . S
In221 O230 2.326 . S
In221 O232 2.294 . S
In221 O233 2.326 . S
O222 In221 2.294 . S
O222 C231 1.240 . S
O223 In221 2.326 . S
O223 C231 1.252 . S
C224 O227 1.252 . S
C224 O228 1.260 . S
C225 O232 1.240 . S
C225 O233 1.252 . S
C226 O229 1.252 . S
C226 O230 1.260 . S
O227 In221 2.266 . S
O227 C224 1.252 . S
O228 In221 2.326 . S
O228 C224 1.260 . S
O229 In221 2.266 . S
O229 C226 1.252 . S
O230 In221 2.326 . S
O230 C226 1.260 . S
C231 O222 1.240 . S
C231 O223 1.252 . S
O232 In221 2.294 . S
O232 C225 1.240 . S
O233 In221 2.326 . S
O233 C225 1.252 . S
In234 O235 2.294 . S
In234 O236 2.326 . S
In234 O240 2.266 . S
In234 O241 2.326 . S
In234 O242 2.266 . S
In234 O243 2.326 . S
In234 O245 2.294 . S
In234 O246 2.326 . S
O235 In234 2.294 . S
O235 C244 1.240 . S
O236 In234 2.326 . S
O236 C244 1.252 . S
C237 O240 1.252 . S
C237 O241 1.260 . S
C238 O245 1.240 . S
C238 O246 1.252 . S
C239 O242 1.252 . S
C239 O243 1.260 . S
O240 In234 2.266 . S
O240 C237 1.252 . S
O241 In234 2.326 . S
O241 C237 1.260 . S
O242 In234 2.266 . S
O242 C239 1.252 . S
O243 In234 2.326 . S
O243 C239 1.260 . S
C244 O235 1.240 . S
C244 O236 1.252 . S
O245 In234 2.294 . S
O245 C238 1.240 . S
O246 In234 2.326 . S
O246 C238 1.252 . S
In247 O248 2.294 . S
In247 O249 2.326 . S
In247 O253 2.266 . S
In247 O254 2.326 . S
In247 O255 2.266 . S
In247 O256 2.326 . S
In247 O258 2.294 . S
In247 O259 2.326 . S
O248 In247 2.294 . S
O248 C257 1.240 . S
O249 In247 2.326 . S
O249 C257 1.252 . S
C250 O253 1.252 . S
C250 O254 1.260 . S
C251 O258 1.240 . S
C251 O259 1.252 . S
C252 O255 1.252 . S
C252 O256 1.260 . S
O253 In247 2.266 . S
O253 C250 1.252 . S
O254 In247 2.326 . S
O254 C250 1.260 . S
O255 In247 2.266 . S
O255 C252 1.252 . S
O256 In247 2.326 . S
O256 C252 1.260 . S
C257 O248 1.240 . S
C257 O249 1.252 . S
O258 In247 2.294 . S
O258 C251 1.240 . S
O259 In247 2.326 . S
O259 C251 1.252 . S
In260 O261 2.294 . S
In260 O262 2.326 . S
In260 O266 2.266 . S
In260 O267 2.326 . S
In260 O268 2.266 . S
In260 O269 2.326 . S
In260 O271 2.294 . S
In260 O272 2.326 . S
O261 In260 2.294 . S
O261 C270 1.240 . S
O262 In260 2.326 . S
O262 C270 1.252 . S
C263 O266 1.252 . S
C263 O267 1.260 . S
C264 O271 1.240 . S
C264 O272 1.252 . S
C265 O268 1.252 . S
C265 O269 1.260 . S
O266 In260 2.266 . S
O266 C263 1.252 . S
O267 In260 2.326 . S
O267 C263 1.260 . S
O268 In260 2.266 . S
O268 C265 1.252 . S
O269 In260 2.326 . S
O269 C265 1.260 . S
C270 O261 1.240 . S
C270 O262 1.252 . S
O271 In260 2.294 . S
O271 C264 1.240 . S
O272 In260 2.326 . S
O272 C264 1.252 . S
In273 O274 2.294 . S
In273 O275 2.326 . S
In273 O279 2.266 . S
In273 O280 2.326 . S
In273 O281 2.266 . S
In273 O282 2.326 . S
In273 O284 2.294 . S
In273 O285 2.326 . S
O274 In273 2.294 . S
O274 C283 1.240 . S
O275 In273 2.326 . S
O275 C283 1.252 . S
C276 O279 1.252 . S
C276 O280 1.260 . S
C277 O284 1.240 . S
C277 O285 1.252 . S
C278 O281 1.252 . S
C278 O282 1.260 . S
O279 In273 2.266 . S
O279 C276 1.252 . S
O280 In273 2.326 . S
O280 C276 1.260 . S
O281 In273 2.266 . S
O281 C278 1.252 . S
O282 In273 2.326 . S
O282 C278 1.260 . S
C283 O274 1.240 . S
C283 O275 1.252 . S
O284 In273 2.294 . S
O284 C277 1.240 . S
O285 In273 2.326 . S
O285 C277 1.252 . S
In286 O287 2.294 . S
In286 O288 2.326 . S
In286 O292 2.266 . S
In286 O293 2.326 . S
In286 O294 2.266 . S
In286 O295 2.326 . S
In286 O297 2.294 . S
In286 O298 2.326 . S
O287 In286 2.294 . S
O287 C296 1.240 . S
O288 In286 2.326 . S
O288 C296 1.252 . S
C289 O292 1.252 . S
C289 O293 1.260 . S
C290 O297 1.240 . S
C290 O298 1.252 . S
C291 O294 1.252 . S
C291 O295 1.260 . S
O292 In286 2.266 . S
O292 C289 1.252 . S
O293 In286 2.326 . S
O293 C289 1.260 . S
O294 In286 2.266 . S
O294 C291 1.252 . S
O295 In286 2.326 . S
O295 C291 1.260 . S
C296 O287 1.240 . S
C296 O288 1.252 . S
O297 In286 2.294 . S
O297 C290 1.240 . S
O298 In286 2.326 . S
O298 C290 1.252 . S
In299 O300 2.294 . S
In299 O301 2.326 . S
In299 O305 2.266 . S
In299 O306 2.326 . S
In299 O307 2.266 . S
In299 O308 2.326 . S
In299 O310 2.294 . S
In299 O311 2.326 . S
O300 In299 2.294 . S
O300 C309 1.240 . S
O301 In299 2.326 . S
O301 C309 1.252 . S
C302 O305 1.252 . S
C302 O306 1.260 . S
C303 O310 1.240 . S
C303 O311 1.252 . S
C304 O307 1.252 . S
C304 O308 1.260 . S
O305 In299 2.266 . S
O305 C302 1.252 . S
O306 In299 2.326 . S
O306 C302 1.260 . S
O307 In299 2.266 . S
O307 C304 1.252 . S
O308 In299 2.326 . S
O308 C304 1.260 . S
C309 O300 1.240 . S
C309 O301 1.252 . S
O310 In299 2.294 . S
O310 C303 1.240 . S
O311 In299 2.326 . S
O311 C303 1.252 . S
H312 C330 0.951 . S
H313 C332 0.951 . S
H314 C334 0.950 . S
H315 C335 0.950 . S
H316 C337 0.950 . S
H317 C340 0.950 . S
H318 C341 0.950 . S
H319 C343 0.950 . S
H320 C344 0.950 . S
H321 C345 0.951 . S
H322 C347 0.951 . S
H323 C349 0.950 . S
H324 C350 0.950 . S
H325 C352 0.950 . S
H326 C355 0.950 . S
H327 C356 0.950 . S
H328 C358 0.950 . S
H329 C359 0.950 . S
C330 H312 0.951 . S
C330 C331 1.366 . S
C330 C332 1.388 . S
C331 C330 1.366 . S
C331 C335 1.385 . S
C332 H313 0.951 . S
C332 C330 1.388 . S
C332 C333 1.366 . S
C333 C332 1.366 . S
C333 C334 1.414 . S
C333 C336 1.499 . S
C334 H314 0.950 . S
C334 C333 1.414 . S
C334 C335 1.374 . S
C335 H315 0.950 . S
C335 C331 1.385 . S
C335 C334 1.374 . S
C336 C333 1.499 . S
C336 C337 1.373 . S
C336 C338 1.389 . S
C337 H316 0.950 . S
C337 C336 1.373 . S
C337 C353 1.377 . S
C338 C336 1.389 . S
C338 C339 1.524 . S
C338 C352 1.377 . S
C339 C338 1.524 . S
C339 C340 1.397 . S
C339 C344 1.363 . S
C340 H317 0.950 . S
C340 C339 1.397 . S
C340 C341 1.334 1_545 S
C341 H318 0.950 . S
C341 C340 1.334 1_565 S
C341 C342 1.287 . S
C342 C341 1.287 . S
C342 C343 1.524 1_565 S
C342 H361 0.913 . S
C343 H319 0.950 . S
C343 C342 1.524 1_545 S
C343 C344 1.415 . S
C344 H320 0.950 . S
C344 C339 1.363 . S
C344 C343 1.415 . S
C345 H321 0.951 . S
C345 C346 1.366 . S
C345 C347 1.388 . S
C346 C345 1.366 . S
C346 C350 1.385 . S
C347 H322 0.951 . S
C347 C345 1.388 . S
C347 C348 1.366 . S
C348 C347 1.366 . S
C348 C349 1.414 . S
C348 C351 1.499 . S
C349 H323 0.950 . S
C349 C348 1.414 . S
C349 C350 1.374 . S
C350 H324 0.950 . S
C350 C346 1.385 . S
C350 C349 1.374 . S
C351 C348 1.499 . S
C351 C352 1.373 . S
C351 C353 1.389 . S
C352 H325 0.950 . S
C352 C338 1.377 . S
C352 C351 1.373 . S
C353 C337 1.377 . S
C353 C351 1.389 . S
C353 C354 1.524 . S
C354 C353 1.524 . S
C354 C355 1.397 . S
C354 C359 1.363 . S
C355 H326 0.950 . S
C355 C354 1.397 . S
C355 C356 1.334 . S
C356 H327 0.950 . S
C356 C355 1.334 . S
C356 C357 1.287 . S
C357 C356 1.287 . S
C357 C358 1.524 . S
C357 H360 0.999 . S
C358 H328 0.950 . S
C358 C357 1.524 . S
C358 C359 1.415 . S
C359 H329 0.950 . S
C359 C354 1.363 . S
C359 C358 1.415 . S
H360 C357 0.999 . S
H361 C342 0.913 . S
H362 C380 0.951 . S
H363 C382 0.951 . S
H364 C384 0.950 . S
H365 C385 0.950 . S
H366 C387 0.950 . S
H367 C390 0.950 . S
H368 C391 0.950 . S
H369 C393 0.950 . S
H370 C394 0.950 . S
H371 C395 0.951 . S
H372 C397 0.951 . S
H373 C399 0.950 . S
H374 C400 0.950 . S
H375 C402 0.950 . S
H376 C405 0.950 . S
H377 C406 0.950 . S
H378 C408 0.950 . S
H379 C409 0.950 . S
C380 H362 0.951 . S
C380 C381 1.366 . S
C380 C382 1.388 . S
C381 C380 1.366 . S
C381 C385 1.385 . S
C382 H363 0.951 . S
C382 C380 1.388 . S
C382 C383 1.366 . S
C383 C382 1.366 . S
C383 C384 1.414 . S
C383 C386 1.499 . S
C384 H364 0.950 . S
C384 C383 1.414 . S
C384 C385 1.374 . S
C385 H365 0.950 . S
C385 C381 1.385 . S
C385 C384 1.374 . S
C386 C383 1.499 . S
C386 C387 1.373 . S
C386 C388 1.389 . S
C387 H366 0.950 . S
C387 C386 1.373 . S
C387 C403 1.377 . S
C388 C386 1.389 . S
C388 C389 1.524 . S
C388 C402 1.377 . S
C389 C388 1.524 . S
C389 C390 1.397 . S
C389 C394 1.363 . S
C390 H367 0.950 . S
C390 C389 1.397 . S
C390 C391 1.334 . S
C391 H368 0.950 . S
C391 C390 1.334 . S
C391 C392 1.287 . S
C392 C391 1.287 . S
C392 C393 1.524 . S
C392 H411 0.913 . S
C393 H369 0.950 . S
C393 C392 1.524 . S
C393 C394 1.415 . S
C394 H370 0.950 . S
C394 C389 1.363 . S
C394 C393 1.415 . S
C395 H371 0.951 . S
C395 C396 1.366 . S
C395 C397 1.388 . S
C396 C395 1.366 . S
C396 C400 1.385 . S
C397 H372 0.951 . S
C397 C395 1.388 . S
C397 C398 1.366 . S
C398 C397 1.366 . S
C398 C399 1.414 . S
C398 C401 1.499 . S
C399 H373 0.950 . S
C399 C398 1.414 . S
C399 C400 1.374 . S
C400 H374 0.950 . S
C400 C396 1.385 . S
C400 C399 1.374 . S
C401 C398 1.499 . S
C401 C402 1.373 . S
C401 C403 1.389 . S
C402 H375 0.950 . S
C402 C388 1.377 . S
C402 C401 1.373 . S
C403 C387 1.377 . S
C403 C401 1.389 . S
C403 C404 1.524 . S
C404 C403 1.524 . S
C404 C405 1.397 . S
C404 C409 1.363 . S
C405 H376 0.950 . S
C405 C404 1.397 . S
C405 C406 1.334 . S
C406 H377 0.950 . S
C406 C405 1.334 . S
C406 C407 1.287 . S
C407 C406 1.287 . S
C407 C408 1.524 . S
C407 H410 0.999 . S
C408 H378 0.950 . S
C408 C407 1.524 . S
C408 C409 1.415 . S
C409 H379 0.950 . S
C409 C404 1.363 . S
C409 C408 1.415 . S
H410 C407 0.999 . S
H411 C392 0.913 . S
H412 C430 0.951 . S
H413 C432 0.951 . S
H414 C434 0.950 . S
H415 C435 0.950 . S
H416 C437 0.950 . S
H417 C440 0.950 . S
H418 C441 0.950 . S
H419 C443 0.950 . S
H420 C444 0.950 . S
H421 C445 0.951 . S
H422 C447 0.951 . S
H423 C449 0.950 . S
H424 C450 0.950 . S
H425 C452 0.950 . S
H426 C455 0.950 . S
H427 C456 0.950 . S
H428 C458 0.950 . S
H429 C459 0.950 . S
C430 H412 0.951 . S
C430 C431 1.366 . S
C430 C432 1.388 . S
C431 C430 1.366 . S
C431 C435 1.385 . S
C432 H413 0.951 . S
C432 C430 1.388 . S
C432 C433 1.366 . S
C433 C432 1.366 . S
C433 C434 1.414 . S
C433 C436 1.499 . S
C434 H414 0.950 . S
C434 C433 1.414 . S
C434 C435 1.374 . S
C435 H415 0.950 . S
C435 C431 1.385 . S
C435 C434 1.374 . S
C436 C433 1.499 . S
C436 C437 1.373 . S
C436 C438 1.389 . S
C437 H416 0.950 . S
C437 C436 1.373 . S
C437 C453 1.377 . S
C438 C436 1.389 . S
C438 C439 1.524 . S
C438 C452 1.377 . S
C439 C438 1.524 . S
C439 C440 1.397 . S
C439 C444 1.363 . S
C440 H417 0.950 . S
C440 C439 1.397 . S
C440 C441 1.334 . S
C441 H418 0.950 . S
C441 C440 1.334 . S
C441 C442 1.287 1_655 S
C442 C441 1.287 1_455 S
C442 C443 1.524 . S
C442 H461 0.913 . S
C443 H419 0.950 . S
C443 C442 1.524 . S
C443 C444 1.415 1_455 S
C444 H420 0.950 . S
C444 C439 1.363 . S
C444 C443 1.415 1_655 S
C445 H421 0.951 . S
C445 C446 1.366 . S
C445 C447 1.388 . S
C446 C445 1.366 . S
C446 C450 1.385 . S
C447 H422 0.951 . S
C447 C445 1.388 . S
C447 C448 1.366 . S
C448 C447 1.366 . S
C448 C449 1.414 . S
C448 C451 1.499 . S
C449 H423 0.950 . S
C449 C448 1.414 . S
C449 C450 1.374 . S
C450 H424 0.950 . S
C450 C446 1.385 . S
C450 C449 1.374 . S
C451 C448 1.499 . S
C451 C452 1.373 . S
C451 C453 1.389 . S
C452 H425 0.950 . S
C452 C438 1.377 . S
C452 C451 1.373 . S
C453 C437 1.377 . S
C453 C451 1.389 . S
C453 C454 1.524 . S
C454 C453 1.524 . S
C454 C455 1.397 . S
C454 C459 1.363 . S
C455 H426 0.950 . S
C455 C454 1.397 . S
C455 C456 1.334 . S
C456 H427 0.950 . S
C456 C455 1.334 . S
C456 C457 1.287 . S
C457 C456 1.287 . S
C457 C458 1.524 . S
C457 H460 0.999 . S
C458 H428 0.950 . S
C458 C457 1.524 . S
C458 C459 1.415 . S
C459 H429 0.950 . S
C459 C454 1.363 . S
C459 C458 1.415 . S
H460 C457 0.999 . S
H461 C442 0.913 . S
H462 C480 0.951 . S
H463 C482 0.951 . S
H464 C484 0.950 . S
H465 C485 0.950 . S
H466 C487 0.950 . S
H467 C490 0.950 . S
H468 C491 0.950 . S
H469 C493 0.950 . S
H470 C494 0.950 . S
H471 C495 0.951 . S
H472 C497 0.951 . S
H473 C499 0.950 . S
H474 C500 0.950 . S
H475 C502 0.950 . S
H476 C505 0.950 . S
H477 C506 0.950 . S
H478 C508 0.950 1_545 S
H479 C509 0.950 . S
C480 H462 0.951 . S
C480 C481 1.366 . S
C480 C482 1.388 . S
C481 C480 1.366 . S
C481 C485 1.385 . S
C482 H463 0.951 . S
C482 C480 1.388 . S
C482 C483 1.366 . S
C483 C482 1.366 . S
C483 C484 1.414 . S
C483 C486 1.499 . S
C484 H464 0.950 . S
C484 C483 1.414 . S
C484 C485 1.374 . S
C485 H465 0.950 . S
C485 C481 1.385 . S
C485 C484 1.374 . S
C486 C483 1.499 . S
C486 C487 1.373 . S
C486 C488 1.389 . S
C487 H466 0.950 . S
C487 C486 1.373 . S
C487 C503 1.377 . S
C488 C486 1.389 . S
C488 C489 1.524 . S
C488 C502 1.377 . S
C489 C488 1.524 . S
C489 C490 1.397 . S
C489 C494 1.363 . S
C490 H467 0.950 . S
C490 C489 1.397 . S
C490 C491 1.334 . S
C491 H468 0.950 . S
C491 C490 1.334 . S
C491 C492 1.287 . S
C492 C491 1.287 . S
C492 C493 1.524 . S
C492 H511 0.913 . S
C493 H469 0.950 . S
C493 C492 1.524 . S
C493 C494 1.415 . S
C494 H470 0.950 . S
C494 C489 1.363 . S
C494 C493 1.415 . S
C495 H471 0.951 . S
C495 C496 1.366 . S
C495 C497 1.388 . S
C496 C495 1.366 . S
C496 C500 1.385 . S
C497 H472 0.951 . S
C497 C495 1.388 . S
C497 C498 1.366 . S
C498 C497 1.366 . S
C498 C499 1.414 . S
C498 C501 1.499 . S
C499 H473 0.950 . S
C499 C498 1.414 . S
C499 C500 1.374 . S
C500 H474 0.950 . S
C500 C496 1.385 . S
C500 C499 1.374 . S
C501 C498 1.499 . S
C501 C502 1.373 . S
C501 C503 1.389 . S
C502 H475 0.950 . S
C502 C488 1.377 . S
C502 C501 1.373 . S
C503 C487 1.377 . S
C503 C501 1.389 . S
C503 C504 1.524 . S
C504 C503 1.524 . S
C504 C505 1.397 . S
C504 C509 1.363 . S
C505 H476 0.950 . S
C505 C504 1.397 . S
C505 C506 1.334 1_565 S
C506 H477 0.950 . S
C506 C505 1.334 1_545 S
C506 C507 1.287 . S
C507 C506 1.287 . S
C507 C508 1.524 1_545 S
C507 H510 0.999 . S
C508 H478 0.950 1_565 S
C508 C507 1.524 1_565 S
C508 C509 1.415 . S
C509 H479 0.950 . S
C509 C504 1.363 . S
C509 C508 1.415 . S
H510 C507 0.999 . S
H511 C492 0.913 . S
H512 C530 0.951 . S
H513 C532 0.951 . S
H514 C534 0.950 . S
H515 C535 0.950 . S
H516 C537 0.950 . S
H517 C540 0.950 . S
H518 C541 0.950 . S
H519 C543 0.950 . S
H520 C544 0.950 . S
H521 C545 0.951 . S
H522 C547 0.951 . S
H523 C549 0.950 . S
H524 C550 0.950 . S
H525 C552 0.950 . S
H526 C555 0.950 . S
H527 C556 0.950 . S
H528 C558 0.950 . S
H529 C559 0.950 . S
C530 H512 0.951 . S
C530 C531 1.366 . S
C530 C532 1.388 . S
C531 C530 1.366 . S
C531 C535 1.385 . S
C532 H513 0.951 . S
C532 C530 1.388 . S
C532 C533 1.366 . S
C533 C532 1.366 . S
C533 C534 1.414 . S
C533 C536 1.499 . S
C534 H514 0.950 . S
C534 C533 1.414 . S
C534 C535 1.374 . S
C535 H515 0.950 . S
C535 C531 1.385 . S
C535 C534 1.374 . S
C536 C533 1.499 . S
C536 C537 1.373 . S
C536 C538 1.389 . S
C537 H516 0.950 . S
C537 C536 1.373 . S
C537 C553 1.377 . S
C538 C536 1.389 . S
C538 C539 1.524 . S
C538 C552 1.377 . S
C539 C538 1.524 . S
C539 C540 1.397 . S
C539 C544 1.363 . S
C540 H517 0.950 . S
C540 C539 1.397 . S
C540 C541 1.334 . S
C541 H518 0.950 . S
C541 C540 1.334 . S
C541 C542 1.287 . S
C542 C541 1.287 . S
C542 C543 1.524 . S
C542 H561 0.913 . S
C543 H519 0.950 . S
C543 C542 1.524 . S
C543 C544 1.415 . S
C544 H520 0.950 . S
C544 C539 1.363 . S
C544 C543 1.415 . S
C545 H521 0.951 . S
C545 C546 1.366 . S
C545 C547 1.388 . S
C546 C545 1.366 . S
C546 C550 1.385 . S
C547 H522 0.951 . S
C547 C545 1.388 . S
C547 C548 1.366 . S
C548 C547 1.366 . S
C548 C549 1.414 . S
C548 C551 1.499 . S
C549 H523 0.950 . S
C549 C548 1.414 . S
C549 C550 1.374 . S
C550 H524 0.950 . S
C550 C546 1.385 . S
C550 C549 1.374 . S
C551 C548 1.499 . S
C551 C552 1.373 . S
C551 C553 1.389 . S
C552 H525 0.950 . S
C552 C538 1.377 . S
C552 C551 1.373 . S
C553 C537 1.377 . S
C553 C551 1.389 . S
C553 C554 1.524 . S
C554 C553 1.524 . S
C554 C555 1.397 . S
C554 C559 1.363 . S
C555 H526 0.950 . S
C555 C554 1.397 . S
C555 C556 1.334 . S
C556 H527 0.950 . S
C556 C555 1.334 . S
C556 C557 1.287 . S
C557 C556 1.287 . S
C557 C558 1.524 . S
C557 H560 0.999 . S
C558 H528 0.950 . S
C558 C557 1.524 . S
C558 C559 1.415 . S
C559 H529 0.950 . S
C559 C554 1.363 . S
C559 C558 1.415 . S
H560 C557 0.999 . S
H561 C542 0.913 . S
H562 C580 0.951 . S
H563 C582 0.951 . S
H564 C584 0.950 . S
H565 C585 0.950 . S
H566 C587 0.950 . S
H567 C590 0.950 . S
H568 C591 0.950 . S
H569 C593 0.950 . S
H570 C594 0.950 . S
H571 C595 0.951 . S
H572 C597 0.951 . S
H573 C599 0.950 . S
H574 C600 0.950 . S
H575 C602 0.950 . S
H576 C605 0.950 . S
H577 C606 0.950 . S
H578 C608 0.950 . S
H579 C609 0.950 . S
C580 H562 0.951 . S
C580 C581 1.366 . S
C580 C582 1.388 . S
C581 C580 1.366 . S
C581 C585 1.385 . S
C582 H563 0.951 . S
C582 C580 1.388 . S
C582 C583 1.366 . S
C583 C582 1.366 . S
C583 C584 1.414 . S
C583 C586 1.499 . S
C584 H564 0.950 . S
C584 C583 1.414 . S
C584 C585 1.374 . S
C585 H565 0.950 . S
C585 C581 1.385 . S
C585 C584 1.374 . S
C586 C583 1.499 . S
C586 C587 1.373 . S
C586 C588 1.389 . S
C587 H566 0.950 . S
C587 C586 1.373 . S
C587 C603 1.377 . S
C588 C586 1.389 . S
C588 C589 1.524 . S
C588 C602 1.377 . S
C589 C588 1.524 . S
C589 C590 1.397 . S
C589 C594 1.363 . S
C590 H567 0.950 . S
C590 C589 1.397 . S
C590 C591 1.334 . S
C591 H568 0.950 . S
C591 C590 1.334 . S
C591 C592 1.287 . S
C592 C591 1.287 . S
C592 C593 1.524 . S
C592 H611 0.913 . S
C593 H569 0.950 . S
C593 C592 1.524 . S
C593 C594 1.415 . S
C594 H570 0.950 . S
C594 C589 1.363 . S
C594 C593 1.415 . S
C595 H571 0.951 . S
C595 C596 1.366 . S
C595 C597 1.388 . S
C596 C595 1.366 . S
C596 C600 1.385 . S
C597 H572 0.951 . S
C597 C595 1.388 . S
C597 C598 1.366 . S
C598 C597 1.366 . S
C598 C599 1.414 . S
C598 C601 1.499 . S
C599 H573 0.950 . S
C599 C598 1.414 . S
C599 C600 1.374 . S
C600 H574 0.950 . S
C600 C596 1.385 . S
C600 C599 1.374 . S
C601 C598 1.499 . S
C601 C602 1.373 . S
C601 C603 1.389 . S
C602 H575 0.950 . S
C602 C588 1.377 . S
C602 C601 1.373 . S
C603 C587 1.377 . S
C603 C601 1.389 . S
C603 C604 1.524 . S
C604 C603 1.524 . S
C604 C605 1.397 . S
C604 C609 1.363 . S
C605 H576 0.950 . S
C605 C604 1.397 . S
C605 C606 1.334 . S
C606 H577 0.950 . S
C606 C605 1.334 . S
C606 C607 1.287 . S
C607 C606 1.287 . S
C607 C608 1.524 . S
C607 H610 0.999 . S
C608 H578 0.950 . S
C608 C607 1.524 . S
C608 C609 1.415 . S
C609 H579 0.950 . S
C609 C604 1.363 . S
C609 C608 1.415 . S
H610 C607 0.999 . S
H611 C592 0.913 . S
H612 C630 0.951 . S
H613 C632 0.951 . S
H614 C634 0.950 . S
H615 C635 0.950 . S
H616 C637 0.950 . S
H617 C640 0.950 . S
H618 C641 0.950 . S
H619 C643 0.950 . S
H620 C644 0.950 . S
H621 C645 0.951 . S
H622 C647 0.951 . S
H623 C649 0.950 . S
H624 C650 0.950 . S
H625 C652 0.950 . S
H626 C655 0.950 . S
H627 C656 0.950 . S
H628 C658 0.950 . S
H629 C659 0.950 . S
C630 H612 0.951 . S
C630 C631 1.366 . S
C630 C632 1.388 . S
C631 C630 1.366 . S
C631 C635 1.385 . S
C632 H613 0.951 . S
C632 C630 1.388 . S
C632 C633 1.366 . S
C633 C632 1.366 . S
C633 C634 1.414 . S
C633 C636 1.499 . S
C634 H614 0.950 . S
C634 C633 1.414 . S
C634 C635 1.374 . S
C635 H615 0.950 . S
C635 C631 1.385 . S
C635 C634 1.374 . S
C636 C633 1.499 . S
C636 C637 1.373 . S
C636 C638 1.389 . S
C637 H616 0.950 . S
C637 C636 1.373 . S
C637 C653 1.377 . S
C638 C636 1.389 . S
C638 C639 1.524 . S
C638 C652 1.377 . S
C639 C638 1.524 . S
C639 C640 1.397 . S
C639 C644 1.363 . S
C640 H617 0.950 . S
C640 C639 1.397 . S
C640 C641 1.334 . S
C641 H618 0.950 . S
C641 C640 1.334 . S
C641 C642 1.287 . S
C642 C641 1.287 . S
C642 C643 1.524 . S
C642 H661 0.913 . S
C643 H619 0.950 . S
C643 C642 1.524 . S
C643 C644 1.415 . S
C644 H620 0.950 . S
C644 C639 1.363 . S
C644 C643 1.415 . S
C645 H621 0.951 . S
C645 C646 1.366 . S
C645 C647 1.388 . S
C646 C645 1.366 . S
C646 C650 1.385 . S
C647 H622 0.951 . S
C647 C645 1.388 . S
C647 C648 1.366 . S
C648 C647 1.366 . S
C648 C649 1.414 . S
C648 C651 1.499 . S
C649 H623 0.950 . S
C649 C648 1.414 . S
C649 C650 1.374 . S
C650 H624 0.950 . S
C650 C646 1.385 . S
C650 C649 1.374 . S
C651 C648 1.499 . S
C651 C652 1.373 . S
C651 C653 1.389 . S
C652 H625 0.950 . S
C652 C638 1.377 . S
C652 C651 1.373 . S
C653 C637 1.377 . S
C653 C651 1.389 . S
C653 C654 1.524 . S
C654 C653 1.524 . S
C654 C655 1.397 . S
C654 C659 1.363 . S
C655 H626 0.950 . S
C655 C654 1.397 . S
C655 C656 1.334 . S
C656 H627 0.950 . S
C656 C655 1.334 . S
C656 C657 1.287 . S
C657 C656 1.287 . S
C657 C658 1.524 1_655 S
C657 H660 0.999 1_655 S
C658 H628 0.950 . S
C658 C657 1.524 1_455 S
C658 C659 1.415 1_455 S
C659 H629 0.950 . S
C659 C654 1.363 . S
C659 C658 1.415 1_655 S
H660 C657 0.999 1_455 S
H661 C642 0.913 . S
H662 C680 0.951 . S
H663 C682 0.951 . S
H664 C684 0.950 . S
H665 C685 0.950 . S
H666 C687 0.950 . S
H667 C690 0.950 . S
H668 C691 0.950 . S
H669 C693 0.950 . S
H670 C694 0.950 . S
H671 C695 0.951 . S
H672 C697 0.951 . S
H673 C699 0.950 . S
H674 C700 0.950 . S
H675 C702 0.950 . S
H676 C705 0.950 . S
H677 C706 0.950 . S
H678 C708 0.950 . S
H679 C709 0.950 . S
C680 H662 0.951 . S
C680 C681 1.366 . S
C680 C682 1.388 . S
C681 C680 1.366 . S
C681 C685 1.385 . S
C682 H663 0.951 . S
C682 C680 1.388 . S
C682 C683 1.366 . S
C683 C682 1.366 . S
C683 C684 1.414 . S
C683 C686 1.499 . S
C684 H664 0.950 . S
C684 C683 1.414 . S
C684 C685 1.374 . S
C685 H665 0.950 . S
C685 C681 1.385 . S
C685 C684 1.374 . S
C686 C683 1.499 . S
C686 C687 1.373 . S
C686 C688 1.389 . S
C687 H666 0.950 . S
C687 C686 1.373 . S
C687 C703 1.377 . S
C688 C686 1.389 . S
C688 C689 1.524 . S
C688 C702 1.377 . S
C689 C688 1.524 . S
C689 C690 1.397 . S
C689 C694 1.363 . S
C690 H667 0.950 . S
C690 C689 1.397 . S
C690 C691 1.334 . S
C691 H668 0.950 . S
C691 C690 1.334 . S
C691 C692 1.287 1_565 S
C692 C691 1.287 1_545 S
C692 C693 1.524 . S
C692 H711 0.913 . S
C693 H669 0.950 . S
C693 C692 1.524 . S
C693 C694 1.415 1_545 S
C694 H670 0.950 . S
C694 C689 1.363 . S
C694 C693 1.415 1_565 S
C695 H671 0.951 . S
C695 C696 1.366 . S
C695 C697 1.388 . S
C696 C695 1.366 . S
C696 C700 1.385 . S
C697 H672 0.951 . S
C697 C695 1.388 . S
C697 C698 1.366 . S
C698 C697 1.366 . S
C698 C699 1.414 . S
C698 C701 1.499 . S
C699 H673 0.950 . S
C699 C698 1.414 . S
C699 C700 1.374 . S
C700 H674 0.950 . S
C700 C696 1.385 . S
C700 C699 1.374 . S
C701 C698 1.499 . S
C701 C702 1.373 . S
C701 C703 1.389 . S
C702 H675 0.950 . S
C702 C688 1.377 . S
C702 C701 1.373 . S
C703 C687 1.377 . S
C703 C701 1.389 . S
C703 C704 1.524 . S
C704 C703 1.524 . S
C704 C705 1.397 . S
C704 C709 1.363 . S
C705 H676 0.950 . S
C705 C704 1.397 . S
C705 C706 1.334 . S
C706 H677 0.950 . S
C706 C705 1.334 . S
C706 C707 1.287 . S
C707 C706 1.287 . S
C707 C708 1.524 . S
C707 H710 0.999 . S
C708 H678 0.950 . S
C708 C707 1.524 . S
C708 C709 1.415 . S
C709 H679 0.950 . S
C709 C704 1.363 . S
C709 C708 1.415 . S
H710 C707 0.999 . S
H711 C692 0.913 . S
H712 C730 0.951 . S
H713 C732 0.951 . S
H714 C734 0.950 . S
H715 C735 0.950 . S
H716 C737 0.950 . S
H717 C740 0.950 . S
H718 C741 0.950 . S
H719 C743 0.950 . S
H720 C744 0.950 . S
H721 C745 0.951 . S
H722 C747 0.951 . S
H723 C749 0.950 . S
H724 C750 0.950 . S
H725 C752 0.950 . S
H726 C755 0.950 . S
H727 C756 0.950 . S
H728 C758 0.950 . S
H729 C759 0.950 . S
C730 H712 0.951 . S
C730 C731 1.366 . S
C730 C732 1.388 . S
C731 C730 1.366 . S
C731 C735 1.385 . S
C732 H713 0.951 . S
C732 C730 1.388 . S
C732 C733 1.366 . S
C733 C732 1.366 . S
C733 C734 1.414 . S
C733 C736 1.499 . S
C734 H714 0.950 . S
C734 C733 1.414 . S
C734 C735 1.374 . S
C735 H715 0.950 . S
C735 C731 1.385 . S
C735 C734 1.374 . S
C736 C733 1.499 . S
C736 C737 1.373 . S
C736 C738 1.389 . S
C737 H716 0.950 . S
C737 C736 1.373 . S
C737 C753 1.377 . S
C738 C736 1.389 . S
C738 C739 1.524 . S
C738 C752 1.377 . S
C739 C738 1.524 . S
C739 C740 1.397 . S
C739 C744 1.363 . S
C740 H717 0.950 . S
C740 C739 1.397 . S
C740 C741 1.334 . S
C741 H718 0.950 . S
C741 C740 1.334 . S
C741 C742 1.287 . S
C742 C741 1.287 . S
C742 C743 1.524 . S
C742 H761 0.913 . S
C743 H719 0.950 . S
C743 C742 1.524 . S
C743 C744 1.415 . S
C744 H720 0.950 . S
C744 C739 1.363 . S
C744 C743 1.415 . S
C745 H721 0.951 . S
C745 C746 1.366 . S
C745 C747 1.388 . S
C746 C745 1.366 . S
C746 C750 1.385 . S
C747 H722 0.951 . S
C747 C745 1.388 . S
C747 C748 1.366 . S
C748 C747 1.366 . S
C748 C749 1.414 . S
C748 C751 1.499 . S
C749 H723 0.950 . S
C749 C748 1.414 . S
C749 C750 1.374 . S
C750 H724 0.950 . S
C750 C746 1.385 . S
C750 C749 1.374 . S
C751 C748 1.499 . S
C751 C752 1.373 . S
C751 C753 1.389 . S
C752 H725 0.950 . S
C752 C738 1.377 . S
C752 C751 1.373 . S
C753 C737 1.377 . S
C753 C751 1.389 . S
C753 C754 1.524 . S
C754 C753 1.524 . S
C754 C755 1.397 . S
C754 C759 1.363 . S
C755 H726 0.950 . S
C755 C754 1.397 . S
C755 C756 1.334 . S
C756 H727 0.950 . S
C756 C755 1.334 . S
C756 C757 1.287 . S
C757 C756 1.287 . S
C757 C758 1.524 . S
C757 H760 0.999 . S
C758 H728 0.950 . S
C758 C757 1.524 . S
C758 C759 1.415 . S
C759 H729 0.950 . S
C759 C754 1.363 . S
C759 C758 1.415 . S
H760 C757 0.999 . S
H761 C742 0.913 . S
H762 C780 0.951 . S
H763 C782 0.951 . S
H764 C784 0.950 . S
H765 C785 0.950 . S
H766 C787 0.950 . S
H767 C790 0.950 . S
H768 C791 0.950 . S
H769 C793 0.950 . S
H770 C794 0.950 . S
H771 C795 0.951 . S
H772 C797 0.951 . S
H773 C799 0.950 . S
H774 C800 0.950 . S
H775 C802 0.950 . S
H776 C805 0.950 . S
H777 C806 0.950 . S
H778 C808 0.950 . S
H779 C809 0.950 . S
C780 H762 0.951 . S
C780 C781 1.366 . S
C780 C782 1.388 . S
C781 C780 1.366 . S
C781 C785 1.385 . S
C782 H763 0.951 . S
C782 C780 1.388 . S
C782 C783 1.366 . S
C783 C782 1.366 . S
C783 C784 1.414 . S
C783 C786 1.499 . S
C784 H764 0.950 . S
C784 C783 1.414 . S
C784 C785 1.374 . S
C785 H765 0.950 . S
C785 C781 1.385 . S
C785 C784 1.374 . S
C786 C783 1.499 . S
C786 C787 1.373 . S
C786 C788 1.389 . S
C787 H766 0.950 . S
C787 C786 1.373 . S
C787 C803 1.377 . S
C788 C786 1.389 . S
C788 C789 1.524 . S
C788 C802 1.377 . S
C789 C788 1.524 . S
C789 C790 1.397 . S
C789 C794 1.363 . S
C790 H767 0.950 . S
C790 C789 1.397 . S
C790 C791 1.334 . S
C791 H768 0.950 . S
C791 C790 1.334 . S
C791 C792 1.287 . S
C792 C791 1.287 . S
C792 C793 1.524 . S
C792 H811 0.913 . S
C793 H769 0.950 . S
C793 C792 1.524 . S
C793 C794 1.415 . S
C794 H770 0.950 . S
C794 C789 1.363 . S
C794 C793 1.415 . S
C795 H771 0.951 . S
C795 C796 1.366 . S
C795 C797 1.388 . S
C796 C795 1.366 . S
C796 C800 1.385 . S
C797 H772 0.951 . S
C797 C795 1.388 . S
C797 C798 1.366 . S
C798 C797 1.366 . S
C798 C799 1.414 . S
C798 C801 1.499 . S
C799 H773 0.950 . S
C799 C798 1.414 . S
C799 C800 1.374 . S
C800 H774 0.950 . S
C800 C796 1.385 . S
C800 C799 1.374 . S
C801 C798 1.499 . S
C801 C802 1.373 . S
C801 C803 1.389 . S
C802 H775 0.950 . S
C802 C788 1.377 . S
C802 C801 1.373 . S
C803 C787 1.377 . S
C803 C801 1.389 . S
C803 C804 1.524 . S
C804 C803 1.524 . S
C804 C805 1.397 . S
C804 C809 1.363 . S
C805 H776 0.950 . S
C805 C804 1.397 . S
C805 C806 1.334 1_455 S
C806 H777 0.950 . S
C806 C805 1.334 1_655 S
C806 C807 1.287 . S
C807 C806 1.287 . S
C807 C808 1.524 . S
C807 H810 0.999 . S
C808 H778 0.950 . S
C808 C807 1.524 . S
C808 C809 1.415 1_655 S
C809 H779 0.950 . S
C809 C804 1.363 . S
C809 C808 1.415 1_455 S
H810 C807 0.999 . S
H811 C792 0.913 . S
H812 C830 0.951 . S
H813 C832 0.951 . S
H814 C834 0.950 . S
H815 C835 0.950 . S
H816 C837 0.950 . S
H817 C840 0.950 . S
H818 C841 0.950 . S
H819 C843 0.950 . S
H820 C844 0.950 . S
H821 C845 0.951 . S
H822 C847 0.951 . S
H823 C849 0.950 . S
H824 C850 0.950 . S
H825 C852 0.950 . S
H826 C855 0.950 . S
H827 C856 0.950 . S
H828 C858 0.950 . S
H829 C859 0.950 . S
C830 H812 0.951 . S
C830 C831 1.366 . S
C830 C832 1.388 . S
C831 C830 1.366 . S
C831 C835 1.385 . S
C832 H813 0.951 . S
C832 C830 1.388 . S
C832 C833 1.366 . S
C833 C832 1.366 . S
C833 C834 1.414 . S
C833 C836 1.499 . S
C834 H814 0.950 . S
C834 C833 1.414 . S
C834 C835 1.374 . S
C835 H815 0.950 . S
C835 C831 1.385 . S
C835 C834 1.374 . S
C836 C833 1.499 . S
C836 C837 1.373 . S
C836 C838 1.389 . S
C837 H816 0.950 . S
C837 C836 1.373 . S
C837 C853 1.377 . S
C838 C836 1.389 . S
C838 C839 1.524 . S
C838 C852 1.377 . S
C839 C838 1.524 . S
C839 C840 1.397 . S
C839 C844 1.363 . S
C840 H817 0.950 . S
C840 C839 1.397 . S
C840 C841 1.334 . S
C841 H818 0.950 . S
C841 C840 1.334 . S
C841 C842 1.287 . S
C842 C841 1.287 . S
C842 C843 1.524 . S
C842 H861 0.913 . S
C843 H819 0.950 . S
C843 C842 1.524 . S
C843 C844 1.415 . S
C844 H820 0.950 . S
C844 C839 1.363 . S
C844 C843 1.415 . S
C845 H821 0.951 . S
C845 C846 1.366 . S
C845 C847 1.388 . S
C846 C845 1.366 . S
C846 C850 1.385 . S
C847 H822 0.951 . S
C847 C845 1.388 . S
C847 C848 1.366 . S
C848 C847 1.366 . S
C848 C849 1.414 . S
C848 C851 1.499 . S
C849 H823 0.950 . S
C849 C848 1.414 . S
C849 C850 1.374 . S
C850 H824 0.950 . S
C850 C846 1.385 . S
C850 C849 1.374 . S
C851 C848 1.499 . S
C851 C852 1.373 . S
C851 C853 1.389 . S
C852 H825 0.950 . S
C852 C838 1.377 . S
C852 C851 1.373 . S
C853 C837 1.377 . S
C853 C851 1.389 . S
C853 C854 1.524 . S
C854 C853 1.524 . S
C854 C855 1.397 . S
C854 C859 1.363 . S
C855 H826 0.950 . S
C855 C854 1.397 . S
C855 C856 1.334 . S
C856 H827 0.950 . S
C856 C855 1.334 . S
C856 C857 1.287 . S
C857 C856 1.287 . S
C857 C858 1.524 . S
C857 H860 0.999 . S
C858 H828 0.950 . S
C858 C857 1.524 . S
C858 C859 1.415 . S
C859 H829 0.950 . S
C859 C854 1.363 . S
C859 C858 1.415 . S
H860 C857 0.999 . S
H861 C842 0.913 . S
H862 C880 0.951 . S
H863 C882 0.951 . S
H864 C884 0.950 . S
H865 C885 0.950 . S
H866 C887 0.950 . S
H867 C890 0.950 . S
H868 C891 0.950 . S
H869 C893 0.950 . S
H870 C894 0.950 . S
H871 C895 0.951 . S
H872 C897 0.951 . S
H873 C899 0.950 . S
H874 C900 0.950 . S
H875 C902 0.950 . S
H876 C905 0.950 . S
H877 C906 0.950 . S
H878 C908 0.950 . S
H879 C909 0.950 . S
C880 H862 0.951 . S
C880 C881 1.366 . S
C880 C882 1.388 . S
C881 C880 1.366 . S
C881 C885 1.385 . S
C882 H863 0.951 . S
C882 C880 1.388 . S
C882 C883 1.366 . S
C883 C882 1.366 . S
C883 C884 1.414 . S
C883 C886 1.499 . S
C884 H864 0.950 . S
C884 C883 1.414 . S
C884 C885 1.374 . S
C885 H865 0.950 . S
C885 C881 1.385 . S
C885 C884 1.374 . S
C886 C883 1.499 . S
C886 C887 1.373 . S
C886 C888 1.389 . S
C887 H866 0.950 . S
C887 C886 1.373 . S
C887 C903 1.377 . S
C888 C886 1.389 . S
C888 C889 1.524 . S
C888 C902 1.377 . S
C889 C888 1.524 . S
C889 C890 1.397 . S
C889 C894 1.363 . S
C890 H867 0.950 . S
C890 C889 1.397 . S
C890 C891 1.334 . S
C891 H868 0.950 . S
C891 C890 1.334 . S
C891 C892 1.287 . S
C892 C891 1.287 . S
C892 C893 1.524 . S
C892 H911 0.913 . S
C893 H869 0.950 . S
C893 C892 1.524 . S
C893 C894 1.415 . S
C894 H870 0.950 . S
C894 C889 1.363 . S
C894 C893 1.415 . S
C895 H871 0.951 . S
C895 C896 1.366 . S
C895 C897 1.388 . S
C896 C895 1.366 . S
C896 C900 1.385 . S
C897 H872 0.951 . S
C897 C895 1.388 . S
C897 C898 1.366 . S
C898 C897 1.366 . S
C898 C899 1.414 . S
C898 C901 1.499 . S
C899 H873 0.950 . S
C899 C898 1.414 . S
C899 C900 1.374 . S
C900 H874 0.950 . S
C900 C896 1.385 . S
C900 C899 1.374 . S
C901 C898 1.499 . S
C901 C902 1.373 . S
C901 C903 1.389 . S
C902 H875 0.950 . S
C902 C888 1.377 . S
C902 C901 1.373 . S
C903 C887 1.377 . S
C903 C901 1.389 . S
C903 C904 1.524 . S
C904 C903 1.524 . S
C904 C905 1.397 . S
C904 C909 1.363 . S
C905 H876 0.950 . S
C905 C904 1.397 . S
C905 C906 1.334 . S
C906 H877 0.950 . S
C906 C905 1.334 . S
C906 C907 1.287 . S
C907 C906 1.287 . S
C907 C908 1.524 . S
C907 H910 0.999 . S
C908 H878 0.950 . S
C908 C907 1.524 . S
C908 C909 1.415 . S
C909 H879 0.950 . S
C909 C904 1.363 . S
C909 C908 1.415 . S
H910 C907 0.999 . S
H911 C892 0.913 . S
H912 C930 0.951 . S
H913 C932 0.951 . S
H914 C934 0.950 . S
H915 C935 0.950 . S
H916 C937 0.950 . S
H917 C940 0.950 . S
H918 C941 0.950 . S
H919 C943 0.950 . S
H920 C944 0.950 . S
H921 C945 0.951 . S
H922 C947 0.951 . S
H923 C949 0.950 . S
H924 C950 0.950 . S
H925 C952 0.950 . S
H926 C955 0.950 . S
H927 C956 0.950 . S
H928 C958 0.950 . S
H929 C959 0.950 . S
C930 H912 0.951 . S
C930 C931 1.366 . S
C930 C932 1.388 . S
C931 C930 1.366 . S
C931 C935 1.385 . S
C932 H913 0.951 . S
C932 C930 1.388 . S
C932 C933 1.366 . S
C933 C932 1.366 . S
C933 C934 1.414 . S
C933 C936 1.499 . S
C934 H914 0.950 . S
C934 C933 1.414 . S
C934 C935 1.374 . S
C935 H915 0.950 . S
C935 C931 1.385 . S
C935 C934 1.374 . S
C936 C933 1.499 . S
C936 C937 1.373 . S
C936 C938 1.389 . S
C937 H916 0.950 . S
C937 C936 1.373 . S
C937 C953 1.377 . S
C938 C936 1.389 . S
C938 C939 1.524 . S
C938 C952 1.377 . S
C939 C938 1.524 . S
C939 C940 1.397 . S
C939 C944 1.363 . S
C940 H917 0.950 . S
C940 C939 1.397 . S
C940 C941 1.334 . S
C941 H918 0.950 . S
C941 C940 1.334 . S
C941 C942 1.287 . S
C942 C941 1.287 . S
C942 C943 1.524 . S
C942 H961 0.913 . S
C943 H919 0.950 . S
C943 C942 1.524 . S
C943 C944 1.415 . S
C944 H920 0.950 . S
C944 C939 1.363 . S
C944 C943 1.415 . S
C945 H921 0.951 . S
C945 C946 1.366 . S
C945 C947 1.388 . S
C946 C945 1.366 . S
C946 C950 1.385 . S
C947 H922 0.951 . S
C947 C945 1.388 . S
C947 C948 1.366 . S
C948 C947 1.366 . S
C948 C949 1.414 . S
C948 C951 1.499 . S
C949 H923 0.950 . S
C949 C948 1.414 . S
C949 C950 1.374 . S
C950 H924 0.950 . S
C950 C946 1.385 . S
C950 C949 1.374 . S
C951 C948 1.499 . S
C951 C952 1.373 . S
C951 C953 1.389 . S
C952 H925 0.950 . S
C952 C938 1.377 . S
C952 C951 1.373 . S
C953 C937 1.377 . S
C953 C951 1.389 . S
C953 C954 1.524 . S
C954 C953 1.524 . S
C954 C955 1.397 . S
C954 C959 1.363 . S
C955 H926 0.950 . S
C955 C954 1.397 . S
C955 C956 1.334 . S
C956 H927 0.950 . S
C956 C955 1.334 . S
C956 C957 1.287 . S
C957 C956 1.287 . S
C957 C958 1.524 . S
C957 H960 0.999 . S
C958 H928 0.950 . S
C958 C957 1.524 . S
C958 C959 1.415 . S
C959 H929 0.950 . S
C959 C954 1.363 . S
C959 C958 1.415 . S
H960 C957 0.999 . S
H961 C942 0.913 . S
H962 C980 0.951 . S
H963 C982 0.951 . S
H964 C984 0.950 . S
H965 C985 0.950 . S
H966 C987 0.950 . S
H967 C990 0.950 . S
H968 C991 0.950 . S
H969 C993 0.950 . S
H970 C994 0.950 . S
H971 C995 0.951 . S
H972 C997 0.951 . S
H973 C999 0.950 . S
H974 C1000 0.950 . S
H975 C1002 0.950 . S
H976 C1005 0.950 . S
H977 C1006 0.950 . S
H978 C1008 0.950 . S
H979 C1009 0.950 . S
C980 H962 0.951 . S
C980 C981 1.366 . S
C980 C982 1.388 . S
C981 C980 1.366 . S
C981 C985 1.385 . S
C982 H963 0.951 . S
C982 C980 1.388 . S
C982 C983 1.366 . S
C983 C982 1.366 . S
C983 C984 1.414 . S
C983 C986 1.499 . S
C984 H964 0.950 . S
C984 C983 1.414 . S
C984 C985 1.374 . S
C985 H965 0.950 . S
C985 C981 1.385 . S
C985 C984 1.374 . S
C986 C983 1.499 . S
C986 C987 1.373 . S
C986 C988 1.389 . S
C987 H966 0.950 . S
C987 C986 1.373 . S
C987 C1003 1.377 . S
C988 C986 1.389 . S
C988 C989 1.524 . S
C988 C1002 1.377 . S
C989 C988 1.524 . S
C989 C990 1.397 . S
C989 C994 1.363 . S
C990 H967 0.950 . S
C990 C989 1.397 . S
C990 C991 1.334 . S
C991 H968 0.950 . S
C991 C990 1.334 . S
C991 C992 1.287 . S
C992 C991 1.287 . S
C992 C993 1.524 . S
C992 H1011 0.913 . S
C993 H969 0.950 . S
C993 C992 1.524 . S
C993 C994 1.415 . S
C994 H970 0.950 . S
C994 C989 1.363 . S
C994 C993 1.415 . S
C995 H971 0.951 . S
C995 C996 1.366 . S
C995 C997 1.388 . S
C996 C995 1.366 . S
C996 C1000 1.385 . S
C997 H972 0.951 . S
C997 C995 1.388 . S
C997 C998 1.366 . S
C998 C997 1.366 . S
C998 C999 1.414 . S
C998 C1001 1.499 . S
C999 H973 0.950 . S
C999 C998 1.414 . S
C999 C1000 1.374 . S
C1000 H974 0.950 . S
C1000 C996 1.385 . S
C1000 C999 1.374 . S
C1001 C998 1.499 . S
C1001 C1002 1.373 . S
C1001 C1003 1.389 . S
C1002 H975 0.950 . S
C1002 C988 1.377 . S
C1002 C1001 1.373 . S
C1003 C987 1.377 . S
C1003 C1001 1.389 . S
C1003 C1004 1.524 . S
C1004 C1003 1.524 . S
C1004 C1005 1.397 . S
C1004 C1009 1.363 . S
C1005 H976 0.950 . S
C1005 C1004 1.397 . S
C1005 C1006 1.334 . S
C1006 H977 0.950 . S
C1006 C1005 1.334 . S
C1006 C1007 1.287 . S
C1007 C1006 1.287 . S
C1007 C1008 1.524 . S
C1007 H1010 0.999 . S
C1008 H978 0.950 . S
C1008 C1007 1.524 . S
C1008 C1009 1.415 . S
C1009 H979 0.950 . S
C1009 C1004 1.363 . S
C1009 C1008 1.415 . S
H1010 C1007 0.999 . S
H1011 C992 0.913 . S
H1012 C1030 0.951 . S
H1013 C1032 0.951 . S
H1014 C1034 0.950 . S
H1015 C1035 0.950 . S
H1016 C1037 0.950 . S
H1017 C1040 0.950 . S
H1018 C1041 0.950 . S
H1019 C1043 0.950 . S
H1020 C1044 0.950 . S
H1021 C1045 0.951 . S
H1022 C1047 0.951 . S
H1023 C1049 0.950 . S
H1024 C1050 0.950 . S
H1025 C1052 0.950 . S
H1026 C1055 0.950 . S
H1027 C1056 0.950 . S
H1028 C1058 0.950 . S
H1029 C1059 0.950 . S
C1030 H1012 0.951 . S
C1030 C1031 1.366 . S
C1030 C1032 1.388 . S
C1031 C1030 1.366 . S
C1031 C1035 1.385 . S
C1032 H1013 0.951 . S
C1032 C1030 1.388 . S
C1032 C1033 1.366 . S
C1033 C1032 1.366 . S
C1033 C1034 1.414 . S
C1033 C1036 1.499 . S
C1034 H1014 0.950 . S
C1034 C1033 1.414 . S
C1034 C1035 1.374 . S
C1035 H1015 0.950 . S
C1035 C1031 1.385 . S
C1035 C1034 1.374 . S
C1036 C1033 1.499 . S
C1036 C1037 1.373 . S
C1036 C1038 1.389 . S
C1037 H1016 0.950 . S
C1037 C1036 1.373 . S
C1037 C1053 1.377 . S
C1038 C1036 1.389 . S
C1038 C1039 1.524 . S
C1038 C1052 1.377 . S
C1039 C1038 1.524 . S
C1039 C1040 1.397 . S
C1039 C1044 1.363 . S
C1040 H1017 0.950 . S
C1040 C1039 1.397 . S
C1040 C1041 1.334 . S
C1041 H1018 0.950 . S
C1041 C1040 1.334 . S
C1041 C1042 1.287 . S
C1042 C1041 1.287 . S
C1042 C1043 1.524 . S
C1042 H1061 0.913 . S
C1043 H1019 0.950 . S
C1043 C1042 1.524 . S
C1043 C1044 1.415 . S
C1044 H1020 0.950 . S
C1044 C1039 1.363 . S
C1044 C1043 1.415 . S
C1045 H1021 0.951 . S
C1045 C1046 1.366 . S
C1045 C1047 1.388 . S
C1046 C1045 1.366 . S
C1046 C1050 1.385 . S
C1047 H1022 0.951 . S
C1047 C1045 1.388 . S
C1047 C1048 1.366 . S
C1048 C1047 1.366 . S
C1048 C1049 1.414 . S
C1048 C1051 1.499 . S
C1049 H1023 0.950 . S
C1049 C1048 1.414 . S
C1049 C1050 1.374 . S
C1050 H1024 0.950 . S
C1050 C1046 1.385 . S
C1050 C1049 1.374 . S
C1051 C1048 1.499 . S
C1051 C1052 1.373 . S
C1051 C1053 1.389 . S
C1052 H1025 0.950 . S
C1052 C1038 1.377 . S
C1052 C1051 1.373 . S
C1053 C1037 1.377 . S
C1053 C1051 1.389 . S
C1053 C1054 1.524 . S
C1054 C1053 1.524 . S
C1054 C1055 1.397 . S
C1054 C1059 1.363 . S
C1055 H1026 0.950 . S
C1055 C1054 1.397 . S
C1055 C1056 1.334 . S
C1056 H1027 0.950 . S
C1056 C1055 1.334 . S
C1056 C1057 1.287 . S
C1057 C1056 1.287 . S
C1057 C1058 1.524 . S
C1057 H1060 0.999 . S
C1058 H1028 0.950 . S
C1058 C1057 1.524 . S
C1058 C1059 1.415 . S
C1059 H1029 0.950 . S
C1059 C1054 1.363 . S
C1059 C1058 1.415 . S
H1060 C1057 0.999 . S
H1061 C1042 0.913 . S
H1062 C1080 0.951 . S
H1063 C1082 0.951 . S
H1064 C1084 0.950 . S
H1065 C1085 0.950 . S
H1066 C1087 0.950 . S
H1067 C1090 0.950 . S
H1068 C1091 0.950 . S
H1069 C1093 0.950 . S
H1070 C1094 0.950 . S
H1071 C1095 0.951 . S
H1072 C1097 0.951 . S
H1073 C1099 0.950 . S
H1074 C1100 0.950 . S
H1075 C1102 0.950 . S
H1076 C1105 0.950 . S
H1077 C1106 0.950 . S
H1078 C1108 0.950 . S
H1079 C1109 0.950 . S
C1080 H1062 0.951 . S
C1080 C1081 1.366 . S
C1080 C1082 1.388 . S
C1081 C1080 1.366 . S
C1081 C1085 1.385 . S
C1082 H1063 0.951 . S
C1082 C1080 1.388 . S
C1082 C1083 1.366 . S
C1083 C1082 1.366 . S
C1083 C1084 1.414 . S
C1083 C1086 1.499 . S
C1084 H1064 0.950 . S
C1084 C1083 1.414 . S
C1084 C1085 1.374 . S
C1085 H1065 0.950 . S
C1085 C1081 1.385 . S
C1085 C1084 1.374 . S
C1086 C1083 1.499 . S
C1086 C1087 1.373 . S
C1086 C1088 1.389 . S
C1087 H1066 0.950 . S
C1087 C1086 1.373 . S
C1087 C1103 1.377 . S
C1088 C1086 1.389 . S
C1088 C1089 1.524 . S
C1088 C1102 1.377 . S
C1089 C1088 1.524 . S
C1089 C1090 1.397 . S
C1089 C1094 1.363 . S
C1090 H1067 0.950 . S
C1090 C1089 1.397 . S
C1090 C1091 1.334 . S
C1091 H1068 0.950 . S
C1091 C1090 1.334 . S
C1091 C1092 1.287 . S
C1092 C1091 1.287 . S
C1092 C1093 1.524 . S
C1092 H1111 0.913 . S
C1093 H1069 0.950 . S
C1093 C1092 1.524 . S
C1093 C1094 1.415 . S
C1094 H1070 0.950 . S
C1094 C1089 1.363 . S
C1094 C1093 1.415 . S
C1095 H1071 0.951 . S
C1095 C1096 1.366 . S
C1095 C1097 1.388 . S
C1096 C1095 1.366 . S
C1096 C1100 1.385 . S
C1097 H1072 0.951 . S
C1097 C1095 1.388 . S
C1097 C1098 1.366 . S
C1098 C1097 1.366 . S
C1098 C1099 1.414 . S
C1098 C1101 1.499 . S
C1099 H1073 0.950 . S
C1099 C1098 1.414 . S
C1099 C1100 1.374 . S
C1100 H1074 0.950 . S
C1100 C1096 1.385 . S
C1100 C1099 1.374 . S
C1101 C1098 1.499 . S
C1101 C1102 1.373 . S
C1101 C1103 1.389 . S
C1102 H1075 0.950 . S
C1102 C1088 1.377 . S
C1102 C1101 1.373 . S
C1103 C1087 1.377 . S
C1103 C1101 1.389 . S
C1103 C1104 1.524 . S
C1104 C1103 1.524 . S
C1104 C1105 1.397 . S
C1104 C1109 1.363 . S
C1105 H1076 0.950 . S
C1105 C1104 1.397 . S
C1105 C1106 1.334 . S
C1106 H1077 0.950 . S
C1106 C1105 1.334 . S
C1106 C1107 1.287 . S
C1107 C1106 1.287 . S
C1107 C1108 1.524 . S
C1107 H1110 0.999 . S
C1108 H1078 0.950 . S
C1108 C1107 1.524 . S
C1108 C1109 1.415 . S
C1109 H1079 0.950 . S
C1109 C1104 1.363 . S
C1109 C1108 1.415 . S
H1110 C1107 0.999 . S
H1111 C1092 0.913 . S
H1112 C1130 0.951 . S
H1113 C1132 0.951 . S
H1114 C1134 0.950 . S
H1115 C1135 0.950 . S
H1116 C1137 0.950 . S
H1117 C1140 0.950 . S
H1118 C1141 0.950 . S
H1119 C1143 0.950 . S
H1120 C1144 0.950 . S
H1121 C1145 0.951 . S
H1122 C1147 0.951 . S
H1123 C1149 0.950 . S
H1124 C1150 0.950 . S
H1125 C1152 0.950 . S
H1126 C1155 0.950 . S
H1127 C1156 0.950 . S
H1128 C1158 0.950 . S
H1129 C1159 0.950 . S
C1130 H1112 0.951 . S
C1130 C1131 1.366 . S
C1130 C1132 1.388 . S
C1131 C1130 1.366 . S
C1131 C1135 1.385 . S
C1132 H1113 0.951 . S
C1132 C1130 1.388 . S
C1132 C1133 1.366 . S
C1133 C1132 1.366 . S
C1133 C1134 1.414 . S
C1133 C1136 1.499 . S
C1134 H1114 0.950 . S
C1134 C1133 1.414 . S
C1134 C1135 1.374 . S
C1135 H1115 0.950 . S
C1135 C1131 1.385 . S
C1135 C1134 1.374 . S
C1136 C1133 1.499 . S
C1136 C1137 1.373 . S
C1136 C1138 1.389 . S
C1137 H1116 0.950 . S
C1137 C1136 1.373 . S
C1137 C1153 1.377 . S
C1138 C1136 1.389 . S
C1138 C1139 1.524 . S
C1138 C1152 1.377 . S
C1139 C1138 1.524 . S
C1139 C1140 1.397 . S
C1139 C1144 1.363 . S
C1140 H1117 0.950 . S
C1140 C1139 1.397 . S
C1140 C1141 1.334 . S
C1141 H1118 0.950 . S
C1141 C1140 1.334 . S
C1141 C1142 1.287 . S
C1142 C1141 1.287 . S
C1142 C1143 1.524 . S
C1142 H1161 0.913 . S
C1143 H1119 0.950 . S
C1143 C1142 1.524 . S
C1143 C1144 1.415 . S
C1144 H1120 0.950 . S
C1144 C1139 1.363 . S
C1144 C1143 1.415 . S
C1145 H1121 0.951 . S
C1145 C1146 1.366 . S
C1145 C1147 1.388 . S
C1146 C1145 1.366 . S
C1146 C1150 1.385 . S
C1147 H1122 0.951 . S
C1147 C1145 1.388 . S
C1147 C1148 1.366 . S
C1148 C1147 1.366 . S
C1148 C1149 1.414 . S
C1148 C1151 1.499 . S
C1149 H1123 0.950 . S
C1149 C1148 1.414 . S
C1149 C1150 1.374 . S
C1150 H1124 0.950 . S
C1150 C1146 1.385 . S
C1150 C1149 1.374 . S
C1151 C1148 1.499 . S
C1151 C1152 1.373 . S
C1151 C1153 1.389 . S
C1152 H1125 0.950 . S
C1152 C1138 1.377 . S
C1152 C1151 1.373 . S
C1153 C1137 1.377 . S
C1153 C1151 1.389 . S
C1153 C1154 1.524 . S
C1154 C1153 1.524 . S
C1154 C1155 1.397 . S
C1154 C1159 1.363 . S
C1155 H1126 0.950 . S
C1155 C1154 1.397 . S
C1155 C1156 1.334 . S
C1156 H1127 0.950 . S
C1156 C1155 1.334 . S
C1156 C1157 1.287 . S
C1157 C1156 1.287 . S
C1157 C1158 1.524 . S
C1157 H1160 0.999 . S
C1158 H1128 0.950 . S
C1158 C1157 1.524 . S
C1158 C1159 1.415 . S
C1159 H1129 0.950 . S
C1159 C1154 1.363 . S
C1159 C1158 1.415 . S
H1160 C1157 0.999 . S
H1161 C1142 0.913 . S
H1162 C1180 0.951 . S
H1163 C1182 0.951 . S
H1164 C1184 0.950 . S
H1165 C1185 0.950 . S
H1166 C1187 0.950 . S
H1167 C1190 0.950 . S
H1168 C1191 0.950 . S
H1169 C1193 0.950 . S
H1170 C1194 0.950 . S
H1171 C1195 0.951 . S
H1172 C1197 0.951 . S
H1173 C1199 0.950 . S
H1174 C1200 0.950 . S
H1175 C1202 0.950 . S
H1176 C1205 0.950 . S
H1177 C1206 0.950 . S
H1178 C1208 0.950 . S
H1179 C1209 0.950 . S
C1180 H1162 0.951 . S
C1180 C1181 1.366 . S
C1180 C1182 1.388 . S
C1181 C1180 1.366 . S
C1181 C1185 1.385 . S
C1182 H1163 0.951 . S
C1182 C1180 1.388 . S
C1182 C1183 1.366 . S
C1183 C1182 1.366 . S
C1183 C1184 1.414 . S
C1183 C1186 1.499 . S
C1184 H1164 0.950 . S
C1184 C1183 1.414 . S
C1184 C1185 1.374 . S
C1185 H1165 0.950 . S
C1185 C1181 1.385 . S
C1185 C1184 1.374 . S
C1186 C1183 1.499 . S
C1186 C1187 1.373 . S
C1186 C1188 1.389 . S
C1187 H1166 0.950 . S
C1187 C1186 1.373 . S
C1187 C1203 1.377 . S
C1188 C1186 1.389 . S
C1188 C1189 1.524 . S
C1188 C1202 1.377 . S
C1189 C1188 1.524 . S
C1189 C1190 1.397 . S
C1189 C1194 1.363 . S
C1190 H1167 0.950 . S
C1190 C1189 1.397 . S
C1190 C1191 1.334 . S
C1191 H1168 0.950 . S
C1191 C1190 1.334 . S
C1191 C1192 1.287 . S
C1192 C1191 1.287 . S
C1192 C1193 1.524 . S
C1192 H1211 0.913 . S
C1193 H1169 0.950 . S
C1193 C1192 1.524 . S
C1193 C1194 1.415 . S
C1194 H1170 0.950 . S
C1194 C1189 1.363 . S
C1194 C1193 1.415 . S
C1195 H1171 0.951 . S
C1195 C1196 1.366 . S
C1195 C1197 1.388 . S
C1196 C1195 1.366 . S
C1196 C1200 1.385 . S
C1197 H1172 0.951 . S
C1197 C1195 1.388 . S
C1197 C1198 1.366 . S
C1198 C1197 1.366 . S
C1198 C1199 1.414 . S
C1198 C1201 1.499 . S
C1199 H1173 0.950 . S
C1199 C1198 1.414 . S
C1199 C1200 1.374 . S
C1200 H1174 0.950 . S
C1200 C1196 1.385 . S
C1200 C1199 1.374 . S
C1201 C1198 1.499 . S
C1201 C1202 1.373 . S
C1201 C1203 1.389 . S
C1202 H1175 0.950 . S
C1202 C1188 1.377 . S
C1202 C1201 1.373 . S
C1203 C1187 1.377 . S
C1203 C1201 1.389 . S
C1203 C1204 1.524 . S
C1204 C1203 1.524 . S
C1204 C1205 1.397 . S
C1204 C1209 1.363 . S
C1205 H1176 0.950 . S
C1205 C1204 1.397 . S
C1205 C1206 1.334 . S
C1206 H1177 0.950 . S
C1206 C1205 1.334 . S
C1206 C1207 1.287 . S
C1207 C1206 1.287 . S
C1207 C1208 1.524 . S
C1207 H1210 0.999 . S
C1208 H1178 0.950 . S
C1208 C1207 1.524 . S
C1208 C1209 1.415 . S
C1209 H1179 0.950 . S
C1209 C1204 1.363 . S
C1209 C1208 1.415 . S
H1210 C1207 0.999 . S
H1211 C1192 0.913 . S
H1212 C1230 0.951 . S
H1213 C1232 0.951 . S
H1214 C1234 0.950 . S
H1215 C1235 0.950 . S
H1216 C1237 0.950 . S
H1217 C1240 0.950 . S
H1218 C1241 0.950 . S
H1219 C1243 0.950 . S
H1220 C1244 0.950 . S
H1221 C1245 0.951 . S
H1222 C1247 0.951 . S
H1223 C1249 0.950 . S
H1224 C1250 0.950 . S
H1225 C1252 0.950 . S
H1226 C1255 0.950 . S
H1227 C1256 0.950 . S
H1228 C1258 0.950 . S
H1229 C1259 0.950 . S
C1230 H1212 0.951 . S
C1230 C1231 1.366 . S
C1230 C1232 1.388 . S
C1231 C1230 1.366 . S
C1231 C1235 1.385 . S
C1232 H1213 0.951 . S
C1232 C1230 1.388 . S
C1232 C1233 1.366 . S
C1233 C1232 1.366 . S
C1233 C1234 1.414 . S
C1233 C1236 1.499 . S
C1234 H1214 0.950 . S
C1234 C1233 1.414 . S
C1234 C1235 1.374 . S
C1235 H1215 0.950 . S
C1235 C1231 1.385 . S
C1235 C1234 1.374 . S
C1236 C1233 1.499 . S
C1236 C1237 1.373 . S
C1236 C1238 1.389 . S
C1237 H1216 0.950 . S
C1237 C1236 1.373 . S
C1237 C1253 1.377 . S
C1238 C1236 1.389 . S
C1238 C1239 1.524 . S
C1238 C1252 1.377 . S
C1239 C1238 1.524 . S
C1239 C1240 1.397 . S
C1239 C1244 1.363 . S
C1240 H1217 0.950 . S
C1240 C1239 1.397 . S
C1240 C1241 1.334 . S
C1241 H1218 0.950 . S
C1241 C1240 1.334 . S
C1241 C1242 1.287 . S
C1242 C1241 1.287 . S
C1242 C1243 1.524 . S
C1242 H1261 0.913 . S
C1243 H1219 0.950 . S
C1243 C1242 1.524 . S
C1243 C1244 1.415 . S
C1244 H1220 0.950 . S
C1244 C1239 1.363 . S
C1244 C1243 1.415 . S
C1245 H1221 0.951 . S
C1245 C1246 1.366 . S
C1245 C1247 1.388 . S
C1246 C1245 1.366 . S
C1246 C1250 1.385 . S
C1247 H1222 0.951 . S
C1247 C1245 1.388 . S
C1247 C1248 1.366 . S
C1248 C1247 1.366 . S
C1248 C1249 1.414 . S
C1248 C1251 1.499 . S
C1249 H1223 0.950 . S
C1249 C1248 1.414 . S
C1249 C1250 1.374 . S
C1250 H1224 0.950 . S
C1250 C1246 1.385 . S
C1250 C1249 1.374 . S
C1251 C1248 1.499 . S
C1251 C1252 1.373 . S
C1251 C1253 1.389 . S
C1252 H1225 0.950 . S
C1252 C1238 1.377 . S
C1252 C1251 1.373 . S
C1253 C1237 1.377 . S
C1253 C1251 1.389 . S
C1253 C1254 1.524 . S
C1254 C1253 1.524 . S
C1254 C1255 1.397 . S
C1254 C1259 1.363 . S
C1255 H1226 0.950 . S
C1255 C1254 1.397 . S
C1255 C1256 1.334 . S
C1256 H1227 0.950 . S
C1256 C1255 1.334 . S
C1256 C1257 1.287 . S
C1257 C1256 1.287 . S
C1257 C1258 1.524 . S
C1257 H1260 0.999 . S
C1258 H1228 0.950 . S
C1258 C1257 1.524 . S
C1258 C1259 1.415 . S
C1259 H1229 0.950 . S
C1259 C1254 1.363 . S
C1259 C1258 1.415 . S
H1260 C1257 0.999 . S
H1261 C1242 0.913 . S
H1262 C1280 0.951 . S
H1263 C1282 0.951 . S
H1264 C1284 0.950 . S
H1265 C1285 0.950 . S
H1266 C1287 0.950 . S
H1267 C1290 0.950 . S
H1268 C1291 0.950 . S
H1269 C1293 0.950 . S
H1270 C1294 0.950 . S
H1271 C1295 0.951 . S
H1272 C1297 0.951 . S
H1273 C1299 0.950 . S
H1274 C1300 0.950 . S
H1275 C1302 0.950 . S
H1276 C1305 0.950 . S
H1277 C1306 0.950 . S
H1278 C1308 0.950 . S
H1279 C1309 0.950 . S
C1280 H1262 0.951 . S
C1280 C1281 1.366 . S
C1280 C1282 1.388 . S
C1281 C1280 1.366 . S
C1281 C1285 1.385 . S
C1282 H1263 0.951 . S
C1282 C1280 1.388 . S
C1282 C1283 1.366 . S
C1283 C1282 1.366 . S
C1283 C1284 1.414 . S
C1283 C1286 1.499 . S
C1284 H1264 0.950 . S
C1284 C1283 1.414 . S
C1284 C1285 1.374 . S
C1285 H1265 0.950 . S
C1285 C1281 1.385 . S
C1285 C1284 1.374 . S
C1286 C1283 1.499 . S
C1286 C1287 1.373 . S
C1286 C1288 1.389 . S
C1287 H1266 0.950 . S
C1287 C1286 1.373 . S
C1287 C1303 1.377 . S
C1288 C1286 1.389 . S
C1288 C1289 1.524 . S
C1288 C1302 1.377 . S
C1289 C1288 1.524 . S
C1289 C1290 1.397 . S
C1289 C1294 1.363 . S
C1290 H1267 0.950 . S
C1290 C1289 1.397 . S
C1290 C1291 1.334 . S
C1291 H1268 0.950 . S
C1291 C1290 1.334 . S
C1291 C1292 1.287 . S
C1292 C1291 1.287 . S
C1292 C1293 1.524 . S
C1292 H1311 0.913 . S
C1293 H1269 0.950 . S
C1293 C1292 1.524 . S
C1293 C1294 1.415 . S
C1294 H1270 0.950 . S
C1294 C1289 1.363 . S
C1294 C1293 1.415 . S
C1295 H1271 0.951 . S
C1295 C1296 1.366 . S
C1295 C1297 1.388 . S
C1296 C1295 1.366 . S
C1296 C1300 1.385 . S
C1297 H1272 0.951 . S
C1297 C1295 1.388 . S
C1297 C1298 1.366 . S
C1298 C1297 1.366 . S
C1298 C1299 1.414 . S
C1298 C1301 1.499 . S
C1299 H1273 0.950 . S
C1299 C1298 1.414 . S
C1299 C1300 1.374 . S
C1300 H1274 0.950 . S
C1300 C1296 1.385 . S
C1300 C1299 1.374 . S
C1301 C1298 1.499 . S
C1301 C1302 1.373 . S
C1301 C1303 1.389 . S
C1302 H1275 0.950 . S
C1302 C1288 1.377 . S
C1302 C1301 1.373 . S
C1303 C1287 1.377 . S
C1303 C1301 1.389 . S
C1303 C1304 1.524 . S
C1304 C1303 1.524 . S
C1304 C1305 1.397 . S
C1304 C1309 1.363 . S
C1305 H1276 0.950 . S
C1305 C1304 1.397 . S
C1305 C1306 1.334 . S
C1306 H1277 0.950 . S
C1306 C1305 1.334 . S
C1306 C1307 1.287 . S
C1307 C1306 1.287 . S
C1307 C1308 1.524 . S
C1307 H1310 0.999 . S
C1308 H1278 0.950 . S
C1308 C1307 1.524 . S
C1308 C1309 1.415 . S
C1309 H1279 0.950 . S
C1309 C1304 1.363 . S
C1309 C1308 1.415 . S
H1310 C1307 0.999 . S
H1311 C1292 0.913 . S
H1312 C1330 0.951 . S
H1313 C1332 0.951 . S
H1314 C1334 0.950 . S
H1315 C1335 0.950 . S
H1316 C1337 0.950 . S
H1317 C1340 0.950 . S
H1318 C1341 0.950 . S
H1319 C1343 0.950 . S
H1320 C1344 0.950 . S
H1321 C1345 0.951 . S
H1322 C1347 0.951 . S
H1323 C1349 0.950 . S
H1324 C1350 0.950 . S
H1325 C1352 0.950 . S
H1326 C1355 0.950 . S
H1327 C1356 0.950 . S
H1328 C1358 0.950 . S
H1329 C1359 0.950 . S
C1330 H1312 0.951 . S
C1330 C1331 1.366 . S
C1330 C1332 1.388 . S
C1331 C1330 1.366 . S
C1331 C1335 1.385 . S
C1332 H1313 0.951 . S
C1332 C1330 1.388 . S
C1332 C1333 1.366 . S
C1333 C1332 1.366 . S
C1333 C1334 1.414 . S
C1333 C1336 1.499 . S
C1334 H1314 0.950 . S
C1334 C1333 1.414 . S
C1334 C1335 1.374 . S
C1335 H1315 0.950 . S
C1335 C1331 1.385 . S
C1335 C1334 1.374 . S
C1336 C1333 1.499 . S
C1336 C1337 1.373 . S
C1336 C1338 1.389 . S
C1337 H1316 0.950 . S
C1337 C1336 1.373 . S
C1337 C1353 1.377 . S
C1338 C1336 1.389 . S
C1338 C1339 1.524 . S
C1338 C1352 1.377 . S
C1339 C1338 1.524 . S
C1339 C1340 1.397 . S
C1339 C1344 1.363 . S
C1340 H1317 0.950 . S
C1340 C1339 1.397 . S
C1340 C1341 1.334 . S
C1341 H1318 0.950 . S
C1341 C1340 1.334 . S
C1341 C1342 1.287 . S
C1342 C1341 1.287 . S
C1342 C1343 1.524 . S
C1342 H1361 0.913 . S
C1343 H1319 0.950 . S
C1343 C1342 1.524 . S
C1343 C1344 1.415 . S
C1344 H1320 0.950 . S
C1344 C1339 1.363 . S
C1344 C1343 1.415 . S
C1345 H1321 0.951 . S
C1345 C1346 1.366 . S
C1345 C1347 1.388 . S
C1346 C1345 1.366 . S
C1346 C1350 1.385 . S
C1347 H1322 0.951 . S
C1347 C1345 1.388 . S
C1347 C1348 1.366 . S
C1348 C1347 1.366 . S
C1348 C1349 1.414 . S
C1348 C1351 1.499 . S
C1349 H1323 0.950 . S
C1349 C1348 1.414 . S
C1349 C1350 1.374 . S
C1350 H1324 0.950 . S
C1350 C1346 1.385 . S
C1350 C1349 1.374 . S
C1351 C1348 1.499 . S
C1351 C1352 1.373 . S
C1351 C1353 1.389 . S
C1352 H1325 0.950 . S
C1352 C1338 1.377 . S
C1352 C1351 1.373 . S
C1353 C1337 1.377 . S
C1353 C1351 1.389 . S
C1353 C1354 1.524 . S
C1354 C1353 1.524 . S
C1354 C1355 1.397 . S
C1354 C1359 1.363 . S
C1355 H1326 0.950 . S
C1355 C1354 1.397 . S
C1355 C1356 1.334 . S
C1356 H1327 0.950 . S
C1356 C1355 1.334 . S
C1356 C1357 1.287 . S
C1357 C1356 1.287 . S
C1357 C1358 1.524 . S
C1357 H1360 0.999 . S
C1358 H1328 0.950 . S
C1358 C1357 1.524 . S
C1358 C1359 1.415 . S
C1359 H1329 0.950 . S
C1359 C1354 1.363 . S
C1359 C1358 1.415 . S
H1360 C1357 0.999 . S
H1361 C1342 0.913 . S
H1362 C1380 0.951 . S
H1363 C1382 0.951 . S
H1364 C1384 0.950 . S
H1365 C1385 0.950 . S
H1366 C1387 0.950 . S
H1367 C1390 0.950 . S
H1368 C1391 0.950 . S
H1369 C1393 0.950 . S
H1370 C1394 0.950 . S
H1371 C1395 0.951 . S
H1372 C1397 0.951 . S
H1373 C1399 0.950 . S
H1374 C1400 0.950 . S
H1375 C1402 0.950 . S
H1376 C1405 0.950 . S
H1377 C1406 0.950 . S
H1378 C1408 0.950 . S
H1379 C1409 0.950 . S
C1380 H1362 0.951 . S
C1380 C1381 1.366 . S
C1380 C1382 1.388 . S
C1381 C1380 1.366 . S
C1381 C1385 1.385 . S
C1382 H1363 0.951 . S
C1382 C1380 1.388 . S
C1382 C1383 1.366 . S
C1383 C1382 1.366 . S
C1383 C1384 1.414 . S
C1383 C1386 1.499 . S
C1384 H1364 0.950 . S
C1384 C1383 1.414 . S
C1384 C1385 1.374 . S
C1385 H1365 0.950 . S
C1385 C1381 1.385 . S
C1385 C1384 1.374 . S
C1386 C1383 1.499 . S
C1386 C1387 1.373 . S
C1386 C1388 1.389 . S
C1387 H1366 0.950 . S
C1387 C1386 1.373 . S
C1387 C1403 1.377 . S
C1388 C1386 1.389 . S
C1388 C1389 1.524 . S
C1388 C1402 1.377 . S
C1389 C1388 1.524 . S
C1389 C1390 1.397 . S
C1389 C1394 1.363 . S
C1390 H1367 0.950 . S
C1390 C1389 1.397 . S
C1390 C1391 1.334 . S
C1391 H1368 0.950 . S
C1391 C1390 1.334 . S
C1391 C1392 1.287 . S
C1392 C1391 1.287 . S
C1392 C1393 1.524 . S
C1392 H1411 0.913 . S
C1393 H1369 0.950 . S
C1393 C1392 1.524 . S
C1393 C1394 1.415 . S
C1394 H1370 0.950 . S
C1394 C1389 1.363 . S
C1394 C1393 1.415 . S
C1395 H1371 0.951 . S
C1395 C1396 1.366 . S
C1395 C1397 1.388 . S
C1396 C1395 1.366 . S
C1396 C1400 1.385 . S
C1397 H1372 0.951 . S
C1397 C1395 1.388 . S
C1397 C1398 1.366 . S
C1398 C1397 1.366 . S
C1398 C1399 1.414 . S
C1398 C1401 1.499 . S
C1399 H1373 0.950 . S
C1399 C1398 1.414 . S
C1399 C1400 1.374 . S
C1400 H1374 0.950 . S
C1400 C1396 1.385 . S
C1400 C1399 1.374 . S
C1401 C1398 1.499 . S
C1401 C1402 1.373 . S
C1401 C1403 1.389 . S
C1402 H1375 0.950 . S
C1402 C1388 1.377 . S
C1402 C1401 1.373 . S
C1403 C1387 1.377 . S
C1403 C1401 1.389 . S
C1403 C1404 1.524 . S
C1404 C1403 1.524 . S
C1404 C1405 1.397 . S
C1404 C1409 1.363 . S
C1405 H1376 0.950 . S
C1405 C1404 1.397 . S
C1405 C1406 1.334 . S
C1406 H1377 0.950 . S
C1406 C1405 1.334 . S
C1406 C1407 1.287 . S
C1407 C1406 1.287 . S
C1407 C1408 1.524 . S
C1407 H1410 0.999 . S
C1408 H1378 0.950 . S
C1408 C1407 1.524 . S
C1408 C1409 1.415 . S
C1409 H1379 0.950 . S
C1409 C1404 1.363 . S
C1409 C1408 1.415 . S
H1410 C1407 0.999 . S
H1411 C1392 0.913 . S
H1412 C1430 0.951 . S
H1413 C1432 0.951 . S
H1414 C1434 0.950 . S
H1415 C1435 0.950 . S
H1416 C1437 0.950 . S
H1417 C1440 0.950 . S
H1418 C1441 0.950 . S
H1419 C1443 0.950 . S
H1420 C1444 0.950 . S
H1421 C1445 0.951 . S
H1422 C1447 0.951 . S
H1423 C1449 0.950 . S
H1424 C1450 0.950 . S
H1425 C1452 0.950 . S
H1426 C1455 0.950 . S
H1427 C1456 0.950 . S
H1428 C1458 0.950 . S
H1429 C1459 0.950 . S
C1430 H1412 0.951 . S
C1430 C1431 1.366 . S
C1430 C1432 1.388 . S
C1431 C1430 1.366 . S
C1431 C1435 1.385 . S
C1432 H1413 0.951 . S
C1432 C1430 1.388 . S
C1432 C1433 1.366 . S
C1433 C1432 1.366 . S
C1433 C1434 1.414 . S
C1433 C1436 1.499 . S
C1434 H1414 0.950 . S
C1434 C1433 1.414 . S
C1434 C1435 1.374 . S
C1435 H1415 0.950 . S
C1435 C1431 1.385 . S
C1435 C1434 1.374 . S
C1436 C1433 1.499 . S
C1436 C1437 1.373 . S
C1436 C1438 1.389 . S
C1437 H1416 0.950 . S
C1437 C1436 1.373 . S
C1437 C1453 1.377 . S
C1438 C1436 1.389 . S
C1438 C1439 1.524 . S
C1438 C1452 1.377 . S
C1439 C1438 1.524 . S
C1439 C1440 1.397 . S
C1439 C1444 1.363 . S
C1440 H1417 0.950 . S
C1440 C1439 1.397 . S
C1440 C1441 1.334 . S
C1441 H1418 0.950 . S
C1441 C1440 1.334 . S
C1441 C1442 1.287 . S
C1442 C1441 1.287 . S
C1442 C1443 1.524 . S
C1442 H1461 0.913 . S
C1443 H1419 0.950 . S
C1443 C1442 1.524 . S
C1443 C1444 1.415 . S
C1444 H1420 0.950 . S
C1444 C1439 1.363 . S
C1444 C1443 1.415 . S
C1445 H1421 0.951 . S
C1445 C1446 1.366 . S
C1445 C1447 1.388 . S
C1446 C1445 1.366 . S
C1446 C1450 1.385 . S
C1447 H1422 0.951 . S
C1447 C1445 1.388 . S
C1447 C1448 1.366 . S
C1448 C1447 1.366 . S
C1448 C1449 1.414 . S
C1448 C1451 1.499 . S
C1449 H1423 0.950 . S
C1449 C1448 1.414 . S
C1449 C1450 1.374 . S
C1450 H1424 0.950 . S
C1450 C1446 1.385 . S
C1450 C1449 1.374 . S
C1451 C1448 1.499 . S
C1451 C1452 1.373 . S
C1451 C1453 1.389 . S
C1452 H1425 0.950 . S
C1452 C1438 1.377 . S
C1452 C1451 1.373 . S
C1453 C1437 1.377 . S
C1453 C1451 1.389 . S
C1453 C1454 1.524 . S
C1454 C1453 1.524 . S
C1454 C1455 1.397 . S
C1454 C1459 1.363 . S
C1455 H1426 0.950 . S
C1455 C1454 1.397 . S
C1455 C1456 1.334 . S
C1456 H1427 0.950 . S
C1456 C1455 1.334 . S
C1456 C1457 1.287 . S
C1457 C1456 1.287 . S
C1457 C1458 1.524 . S
C1457 H1460 0.999 . S
C1458 H1428 0.950 . S
C1458 C1457 1.524 . S
C1458 C1459 1.415 . S
C1459 H1429 0.950 . S
C1459 C1454 1.363 . S
C1459 C1458 1.415 . S
H1460 C1457 0.999 . S
H1461 C1442 0.913 . S
H1462 C1480 0.951 . S
H1463 C1482 0.951 . S
H1464 C1484 0.950 . S
H1465 C1485 0.950 . S
H1466 C1487 0.950 . S
H1467 C1490 0.950 . S
H1468 C1491 0.950 . S
H1469 C1493 0.950 . S
H1470 C1494 0.950 . S
H1471 C1495 0.951 . S
H1472 C1497 0.951 . S
H1473 C1499 0.950 . S
H1474 C1500 0.950 . S
H1475 C1502 0.950 . S
H1476 C1505 0.950 . S
H1477 C1506 0.950 . S
H1478 C1508 0.950 . S
H1479 C1509 0.950 . S
C1480 H1462 0.951 . S
C1480 C1481 1.366 . S
C1480 C1482 1.388 . S
C1481 C1480 1.366 . S
C1481 C1485 1.385 . S
C1482 H1463 0.951 . S
C1482 C1480 1.388 . S
C1482 C1483 1.366 . S
C1483 C1482 1.366 . S
C1483 C1484 1.414 . S
C1483 C1486 1.499 . S
C1484 H1464 0.950 . S
C1484 C1483 1.414 . S
C1484 C1485 1.374 . S
C1485 H1465 0.950 . S
C1485 C1481 1.385 . S
C1485 C1484 1.374 . S
C1486 C1483 1.499 . S
C1486 C1487 1.373 . S
C1486 C1488 1.389 . S
C1487 H1466 0.950 . S
C1487 C1486 1.373 . S
C1487 C1503 1.377 . S
C1488 C1486 1.389 . S
C1488 C1489 1.524 . S
C1488 C1502 1.377 . S
C1489 C1488 1.524 . S
C1489 C1490 1.397 . S
C1489 C1494 1.363 . S
C1490 H1467 0.950 . S
C1490 C1489 1.397 . S
C1490 C1491 1.334 . S
C1491 H1468 0.950 . S
C1491 C1490 1.334 . S
C1491 C1492 1.287 . S
C1492 C1491 1.287 . S
C1492 C1493 1.524 . S
C1492 H1511 0.913 . S
C1493 H1469 0.950 . S
C1493 C1492 1.524 . S
C1493 C1494 1.415 . S
C1494 H1470 0.950 . S
C1494 C1489 1.363 . S
C1494 C1493 1.415 . S
C1495 H1471 0.951 . S
C1495 C1496 1.366 . S
C1495 C1497 1.388 . S
C1496 C1495 1.366 . S
C1496 C1500 1.385 . S
C1497 H1472 0.951 . S
C1497 C1495 1.388 . S
C1497 C1498 1.366 . S
C1498 C1497 1.366 . S
C1498 C1499 1.414 . S
C1498 C1501 1.499 . S
C1499 H1473 0.950 . S
C1499 C1498 1.414 . S
C1499 C1500 1.374 . S
C1500 H1474 0.950 . S
C1500 C1496 1.385 . S
C1500 C1499 1.374 . S
C1501 C1498 1.499 . S
C1501 C1502 1.373 . S
C1501 C1503 1.389 . S
C1502 H1475 0.950 . S
C1502 C1488 1.377 . S
C1502 C1501 1.373 . S
C1503 C1487 1.377 . S
C1503 C1501 1.389 . S
C1503 C1504 1.524 . S
C1504 C1503 1.524 . S
C1504 C1505 1.397 . S
C1504 C1509 1.363 . S
C1505 H1476 0.950 . S
C1505 C1504 1.397 . S
C1505 C1506 1.334 . S
C1506 H1477 0.950 . S
C1506 C1505 1.334 . S
C1506 C1507 1.287 . S
C1507 C1506 1.287 . S
C1507 C1508 1.524 . S
C1507 H1510 0.999 . S
C1508 H1478 0.950 . S
C1508 C1507 1.524 . S
C1508 C1509 1.415 . S
C1509 H1479 0.950 . S
C1509 C1504 1.363 . S
C1509 C1508 1.415 . S
H1510 C1507 0.999 . S
H1511 C1492 0.913 . S
H1512 C1530 0.951 . S
H1513 C1532 0.951 . S
H1514 C1534 0.950 1_545 S
H1515 C1535 0.950 . S
H1516 C1537 0.950 . S
H1517 C1540 0.950 . S
H1518 C1541 0.950 . S
H1519 C1543 0.950 . S
H1520 C1544 0.950 . S
H1521 C1545 0.951 . S
H1522 C1547 0.951 . S
H1523 C1549 0.950 1_565 S
H1524 C1550 0.950 . S
H1525 C1552 0.950 . S
H1526 C1555 0.950 . S
H1527 C1556 0.950 . S
H1528 C1558 0.950 . S
H1529 C1559 0.950 . S
C1530 H1512 0.951 . S
C1530 C1531 1.366 . S
C1530 C1532 1.388 . S
C1531 C1530 1.366 . S
C1531 C1535 1.385 . S
C1532 H1513 0.951 . S
C1532 C1530 1.388 . S
C1532 C1533 1.366 . S
C1533 C1532 1.366 . S
C1533 C1534 1.414 . S
C1533 C1536 1.499 . S
C1534 H1514 0.950 1_565 S
C1534 C1533 1.414 . S
C1534 C1535 1.374 . S
C1535 H1515 0.950 . S
C1535 C1531 1.385 . S
C1535 C1534 1.374 . S
C1536 C1533 1.499 . S
C1536 C1537 1.373 1_565 S
C1536 C1538 1.389 . S
C1537 H1516 0.950 . S
C1537 C1536 1.373 1_545 S
C1537 C1553 1.377 1_556 S
C1538 C1536 1.389 . S
C1538 C1539 1.524 . S
C1538 C1552 1.377 1_556 S
C1539 C1538 1.524 . S
C1539 C1540 1.397 . S
C1539 C1544 1.363 1_556 S
C1540 H1517 0.950 . S
C1540 C1539 1.397 . S
C1540 C1541 1.334 . S
C1541 H1518 0.950 . S
C1541 C1540 1.334 . S
C1541 C1542 1.287 . S
C1542 C1541 1.287 . S
C1542 C1543 1.524 1_556 S
C1542 H1561 0.913 . S
C1543 H1519 0.950 . S
C1543 C1542 1.524 1_554 S
C1543 C1544 1.415 . S
C1544 H1520 0.950 . S
C1544 C1539 1.363 1_554 S
C1544 C1543 1.415 . S
C1545 H1521 0.951 . S
C1545 C1546 1.366 . S
C1545 C1547 1.388 . S
C1546 C1545 1.366 . S
C1546 C1550 1.385 . S
C1547 H1522 0.951 . S
C1547 C1545 1.388 . S
C1547 C1548 1.366 . S
C1548 C1547 1.366 . S
C1548 C1549 1.414 . S
C1548 C1551 1.499 . S
C1549 H1523 0.950 1_545 S
C1549 C1548 1.414 . S
C1549 C1550 1.374 . S
C1550 H1524 0.950 . S
C1550 C1546 1.385 . S
C1550 C1549 1.374 . S
C1551 C1548 1.499 . S
C1551 C1552 1.373 1_545 S
C1551 C1553 1.389 . S
C1552 H1525 0.950 . S
C1552 C1538 1.377 1_554 S
C1552 C1551 1.373 1_565 S
C1553 C1537 1.377 1_554 S
C1553 C1551 1.389 . S
C1553 C1554 1.524 . S
C1554 C1553 1.524 . S
C1554 C1555 1.397 . S
C1554 C1559 1.363 1_554 S
C1555 H1526 0.950 . S
C1555 C1554 1.397 . S
C1555 C1556 1.334 . S
C1556 H1527 0.950 . S
C1556 C1555 1.334 . S
C1556 C1557 1.287 . S
C1557 C1556 1.287 . S
C1557 C1558 1.524 1_554 S
C1557 H1560 0.999 . S
C1558 H1528 0.950 . S
C1558 C1557 1.524 1_556 S
C1558 C1559 1.415 . S
C1559 H1529 0.950 . S
C1559 C1554 1.363 1_556 S
C1559 C1558 1.415 . S
H1560 C1557 0.999 . S
H1561 C1542 0.913 . S
H1562 C1580 0.951 . S
H1563 C1582 0.951 . S
H1564 C1584 0.950 . S
H1565 C1585 0.950 . S
H1566 C1587 0.950 . S
H1567 C1590 0.950 . S
H1568 C1591 0.950 . S
H1569 C1593 0.950 . S
H1570 C1594 0.950 . S
H1571 C1595 0.951 . S
H1572 C1597 0.951 . S
H1573 C1599 0.950 . S
H1574 C1600 0.950 . S
H1575 C1602 0.950 . S
H1576 C1605 0.950 . S
H1577 C1606 0.950 . S
H1578 C1608 0.950 . S
H1579 C1609 0.950 . S
C1580 H1562 0.951 . S
C1580 C1581 1.366 . S
C1580 C1582 1.388 . S
C1581 C1580 1.366 . S
C1581 C1585 1.385 . S
C1582 H1563 0.951 . S
C1582 C1580 1.388 . S
C1582 C1583 1.366 . S
C1583 C1582 1.366 . S
C1583 C1584 1.414 . S
C1583 C1586 1.499 . S
C1584 H1564 0.950 . S
C1584 C1583 1.414 . S
C1584 C1585 1.374 . S
C1585 H1565 0.950 . S
C1585 C1581 1.385 . S
C1585 C1584 1.374 . S
C1586 C1583 1.499 . S
C1586 C1587 1.373 . S
C1586 C1588 1.389 . S
C1587 H1566 0.950 . S
C1587 C1586 1.373 . S
C1587 C1603 1.377 . S
C1588 C1586 1.389 . S
C1588 C1589 1.524 . S
C1588 C1602 1.377 . S
C1589 C1588 1.524 . S
C1589 C1590 1.397 . S
C1589 C1594 1.363 . S
C1590 H1567 0.950 . S
C1590 C1589 1.397 . S
C1590 C1591 1.334 . S
C1591 H1568 0.950 . S
C1591 C1590 1.334 . S
C1591 C1592 1.287 . S
C1592 C1591 1.287 . S
C1592 C1593 1.524 . S
C1592 H1611 0.913 . S
C1593 H1569 0.950 . S
C1593 C1592 1.524 . S
C1593 C1594 1.415 . S
C1594 H1570 0.950 . S
C1594 C1589 1.363 . S
C1594 C1593 1.415 . S
C1595 H1571 0.951 . S
C1595 C1596 1.366 . S
C1595 C1597 1.388 . S
C1596 C1595 1.366 . S
C1596 C1600 1.385 . S
C1597 H1572 0.951 . S
C1597 C1595 1.388 . S
C1597 C1598 1.366 . S
C1598 C1597 1.366 . S
C1598 C1599 1.414 . S
C1598 C1601 1.499 . S
C1599 H1573 0.950 . S
C1599 C1598 1.414 . S
C1599 C1600 1.374 . S
C1600 H1574 0.950 . S
C1600 C1596 1.385 . S
C1600 C1599 1.374 . S
C1601 C1598 1.499 . S
C1601 C1602 1.373 . S
C1601 C1603 1.389 . S
C1602 H1575 0.950 . S
C1602 C1588 1.377 . S
C1602 C1601 1.373 . S
C1603 C1587 1.377 . S
C1603 C1601 1.389 . S
C1603 C1604 1.524 . S
C1604 C1603 1.524 . S
C1604 C1605 1.397 . S
C1604 C1609 1.363 . S
C1605 H1576 0.950 . S
C1605 C1604 1.397 . S
C1605 C1606 1.334 . S
C1606 H1577 0.950 . S
C1606 C1605 1.334 . S
C1606 C1607 1.287 . S
C1607 C1606 1.287 . S
C1607 C1608 1.524 . S
C1607 H1610 0.999 . S
C1608 H1578 0.950 . S
C1608 C1607 1.524 . S
C1608 C1609 1.415 . S
C1609 H1579 0.950 . S
C1609 C1604 1.363 . S
C1609 C1608 1.415 . S
H1610 C1607 0.999 . S
H1611 C1592 0.913 . S
H1612 C1630 0.951 . S
H1613 C1632 0.951 1_655 S
H1614 C1634 0.950 . S
H1615 C1635 0.950 . S
H1616 C1637 0.950 . S
H1617 C1640 0.950 . S
H1618 C1641 0.950 . S
H1619 C1643 0.950 . S
H1620 C1644 0.950 . S
H1621 C1645 0.951 . S
H1622 C1647 0.951 1_455 S
H1623 C1649 0.950 . S
H1624 C1650 0.950 . S
H1625 C1652 0.950 . S
H1626 C1655 0.950 . S
H1627 C1656 0.950 . S
H1628 C1658 0.950 . S
H1629 C1659 0.950 . S
C1630 H1612 0.951 . S
C1630 C1631 1.366 . S
C1630 C1632 1.388 . S
C1631 C1630 1.366 . S
C1631 C1635 1.385 . S
C1632 H1613 0.951 1_455 S
C1632 C1630 1.388 . S
C1632 C1633 1.366 . S
C1633 C1632 1.366 . S
C1633 C1634 1.414 . S
C1633 C1636 1.499 . S
C1634 H1614 0.950 . S
C1634 C1633 1.414 . S
C1634 C1635 1.374 . S
C1635 H1615 0.950 . S
C1635 C1631 1.385 . S
C1635 C1634 1.374 . S
C1636 C1633 1.499 . S
C1636 C1637 1.373 . S
C1636 C1638 1.389 1_455 S
C1637 H1616 0.950 . S
C1637 C1636 1.373 . S
C1637 C1653 1.377 1_556 S
C1638 C1636 1.389 1_655 S
C1638 C1639 1.524 . S
C1638 C1652 1.377 1_556 S
C1639 C1638 1.524 . S
C1639 C1640 1.397 . S
C1639 C1644 1.363 . S
C1640 H1617 0.950 . S
C1640 C1639 1.397 . S
C1640 C1641 1.334 . S
C1641 H1618 0.950 . S
C1641 C1640 1.334 . S
C1641 C1642 1.287 . S
C1642 C1641 1.287 . S
C1642 C1643 1.524 . S
C1642 H1661 0.913 . S
C1643 H1619 0.950 . S
C1643 C1642 1.524 . S
C1643 C1644 1.415 . S
C1644 H1620 0.950 . S
C1644 C1639 1.363 . S
C1644 C1643 1.415 . S
C1645 H1621 0.951 . S
C1645 C1646 1.366 . S
C1645 C1647 1.388 . S
C1646 C1645 1.366 . S
C1646 C1650 1.385 . S
C1647 H1622 0.951 1_655 S
C1647 C1645 1.388 . S
C1647 C1648 1.366 . S
C1648 C1647 1.366 . S
C1648 C1649 1.414 . S
C1648 C1651 1.499 . S
C1649 H1623 0.950 . S
C1649 C1648 1.414 . S
C1649 C1650 1.374 . S
C1650 H1624 0.950 . S
C1650 C1646 1.385 . S
C1650 C1649 1.374 . S
C1651 C1648 1.499 . S
C1651 C1652 1.373 . S
C1651 C1653 1.389 1_655 S
C1652 H1625 0.950 . S
C1652 C1638 1.377 1_554 S
C1652 C1651 1.373 . S
C1653 C1637 1.377 1_554 S
C1653 C1651 1.389 1_455 S
C1653 C1654 1.524 . S
C1654 C1653 1.524 . S
C1654 C1655 1.397 . S
C1654 C1659 1.363 . S
C1655 H1626 0.950 . S
C1655 C1654 1.397 . S
C1655 C1656 1.334 . S
C1656 H1627 0.950 . S
C1656 C1655 1.334 . S
C1656 C1657 1.287 . S
C1657 C1656 1.287 . S
C1657 C1658 1.524 . S
C1657 H1660 0.999 . S
C1658 H1628 0.950 . S
C1658 C1657 1.524 . S
C1658 C1659 1.415 . S
C1659 H1629 0.950 . S
C1659 C1654 1.363 . S
C1659 C1658 1.415 . S
H1660 C1657 0.999 . S
H1661 C1642 0.913 . S
H1662 C1680 0.951 . S
H1663 C1682 0.951 1_565 S
H1664 C1684 0.950 . S
H1665 C1685 0.950 . S
H1666 C1687 0.950 . S
H1667 C1690 0.950 . S
H1668 C1691 0.950 . S
H1669 C1693 0.950 . S
H1670 C1694 0.950 . S
H1671 C1695 0.951 . S
H1672 C1697 0.951 1_545 S
H1673 C1699 0.950 . S
H1674 C1700 0.950 . S
H1675 C1702 0.950 . S
H1676 C1705 0.950 . S
H1677 C1706 0.950 . S
H1678 C1708 0.950 . S
H1679 C1709 0.950 . S
C1680 H1662 0.951 . S
C1680 C1681 1.366 . S
C1680 C1682 1.388 . S
C1681 C1680 1.366 . S
C1681 C1685 1.385 . S
C1682 H1663 0.951 1_545 S
C1682 C1680 1.388 . S
C1682 C1683 1.366 . S
C1683 C1682 1.366 . S
C1683 C1684 1.414 . S
C1683 C1686 1.499 . S
C1684 H1664 0.950 . S
C1684 C1683 1.414 . S
C1684 C1685 1.374 . S
C1685 H1665 0.950 . S
C1685 C1681 1.385 . S
C1685 C1684 1.374 . S
C1686 C1683 1.499 . S
C1686 C1687 1.373 . S
C1686 C1688 1.389 . S
C1687 H1666 0.950 . S
C1687 C1686 1.373 . S
C1687 C1703 1.377 1_545 S
C1688 C1686 1.389 . S
C1688 C1689 1.524 . S
C1688 C1702 1.377 1_545 S
C1689 C1688 1.524 . S
C1689 C1690 1.397 . S
C1689 C1694 1.363 1_545 S
C1690 H1667 0.950 . S
C1690 C1689 1.397 . S
C1690 C1691 1.334 . S
C1691 H1668 0.950 . S
C1691 C1690 1.334 . S
C1691 C1692 1.287 . S
C1692 C1691 1.287 . S
C1692 C1693 1.524 1_545 S
C1692 H1711 0.913 . S
C1693 H1669 0.950 . S
C1693 C1692 1.524 1_565 S
C1693 C1694 1.415 . S
C1694 H1670 0.950 . S
C1694 C1689 1.363 1_565 S
C1694 C1693 1.415 . S
C1695 H1671 0.951 . S
C1695 C1696 1.366 . S
C1695 C1697 1.388 . S
C1696 C1695 1.366 . S
C1696 C1700 1.385 . S
C1697 H1672 0.951 1_565 S
C1697 C1695 1.388 . S
C1697 C1698 1.366 . S
C1698 C1697 1.366 . S
C1698 C1699 1.414 . S
C1698 C1701 1.499 . S
C1699 H1673 0.950 . S
C1699 C1698 1.414 . S
C1699 C1700 1.374 . S
C1700 H1674 0.950 . S
C1700 C1696 1.385 . S
C1700 C1699 1.374 . S
C1701 C1698 1.499 . S
C1701 C1702 1.373 . S
C1701 C1703 1.389 . S
C1702 H1675 0.950 . S
C1702 C1688 1.377 1_565 S
C1702 C1701 1.373 . S
C1703 C1687 1.377 1_565 S
C1703 C1701 1.389 . S
C1703 C1704 1.524 . S
C1704 C1703 1.524 . S
C1704 C1705 1.397 . S
C1704 C1709 1.363 1_565 S
C1705 H1676 0.950 . S
C1705 C1704 1.397 . S
C1705 C1706 1.334 . S
C1706 H1677 0.950 . S
C1706 C1705 1.334 . S
C1706 C1707 1.287 . S
C1707 C1706 1.287 . S
C1707 C1708 1.524 1_565 S
C1707 H1710 0.999 . S
C1708 H1678 0.950 . S
C1708 C1707 1.524 1_545 S
C1708 C1709 1.415 . S
C1709 H1679 0.950 . S
C1709 C1704 1.363 1_545 S
C1709 C1708 1.415 . S
H1710 C1707 0.999 . S
H1711 C1692 0.913 . S
H1712 C1730 0.951 . S
H1713 C1732 0.951 . S
H1714 C1734 0.950 . S
H1715 C1735 0.950 . S
H1716 C1737 0.950 . S
H1717 C1740 0.950 . S
H1718 C1741 0.950 . S
H1719 C1743 0.950 . S
H1720 C1744 0.950 . S
H1721 C1745 0.951 . S
H1722 C1747 0.951 . S
H1723 C1749 0.950 . S
H1724 C1750 0.950 . S
H1725 C1752 0.950 . S
H1726 C1755 0.950 . S
H1727 C1756 0.950 . S
H1728 C1758 0.950 . S
H1729 C1759 0.950 . S
C1730 H1712 0.951 . S
C1730 C1731 1.366 . S
C1730 C1732 1.388 . S
C1731 C1730 1.366 . S
C1731 C1735 1.385 . S
C1732 H1713 0.951 . S
C1732 C1730 1.388 . S
C1732 C1733 1.366 . S
C1733 C1732 1.366 . S
C1733 C1734 1.414 . S
C1733 C1736 1.499 . S
C1734 H1714 0.950 . S
C1734 C1733 1.414 . S
C1734 C1735 1.374 . S
C1735 H1715 0.950 . S
C1735 C1731 1.385 . S
C1735 C1734 1.374 . S
C1736 C1733 1.499 . S
C1736 C1737 1.373 . S
C1736 C1738 1.389 . S
C1737 H1716 0.950 . S
C1737 C1736 1.373 . S
C1737 C1753 1.377 1_554 S
C1738 C1736 1.389 . S
C1738 C1739 1.524 . S
C1738 C1752 1.377 1_554 S
C1739 C1738 1.524 . S
C1739 C1740 1.397 . S
C1739 C1744 1.363 . S
C1740 H1717 0.950 . S
C1740 C1739 1.397 . S
C1740 C1741 1.334 . S
C1741 H1718 0.950 . S
C1741 C1740 1.334 . S
C1741 C1742 1.287 . S
C1742 C1741 1.287 . S
C1742 C1743 1.524 . S
C1742 H1761 0.913 . S
C1743 H1719 0.950 . S
C1743 C1742 1.524 . S
C1743 C1744 1.415 . S
C1744 H1720 0.950 . S
C1744 C1739 1.363 . S
C1744 C1743 1.415 . S
C1745 H1721 0.951 . S
C1745 C1746 1.366 . S
C1745 C1747 1.388 . S
C1746 C1745 1.366 . S
C1746 C1750 1.385 . S
C1747 H1722 0.951 . S
C1747 C1745 1.388 . S
C1747 C1748 1.366 . S
C1748 C1747 1.366 . S
C1748 C1749 1.414 . S
C1748 C1751 1.499 . S
C1749 H1723 0.950 . S
C1749 C1748 1.414 . S
C1749 C1750 1.374 . S
C1750 H1724 0.950 . S
C1750 C1746 1.385 . S
C1750 C1749 1.374 . S
C1751 C1748 1.499 . S
C1751 C1752 1.373 . S
C1751 C1753 1.389 . S
C1752 H1725 0.950 . S
C1752 C1738 1.377 1_556 S
C1752 C1751 1.373 . S
C1753 C1737 1.377 1_556 S
C1753 C1751 1.389 . S
C1753 C1754 1.524 . S
C1754 C1753 1.524 . S
C1754 C1755 1.397 . S
C1754 C1759 1.363 . S
C1755 H1726 0.950 . S
C1755 C1754 1.397 . S
C1755 C1756 1.334 . S
C1756 H1727 0.950 . S
C1756 C1755 1.334 . S
C1756 C1757 1.287 . S
C1757 C1756 1.287 . S
C1757 C1758 1.524 . S
C1757 H1760 0.999 . S
C1758 H1728 0.950 . S
C1758 C1757 1.524 . S
C1758 C1759 1.415 . S
C1759 H1729 0.950 . S
C1759 C1754 1.363 . S
C1759 C1758 1.415 . S
H1760 C1757 0.999 . S
H1761 C1742 0.913 . S
H1762 C1780 0.951 . S
H1763 C1782 0.951 1_655 S
H1764 C1784 0.950 . S
H1765 C1785 0.950 . S
H1766 C1787 0.950 . S
H1767 C1790 0.950 . S
H1768 C1791 0.950 . S
H1769 C1793 0.950 . S
H1770 C1794 0.950 . S
H1771 C1795 0.951 . S
H1772 C1797 0.951 1_455 S
H1773 C1799 0.950 . S
H1774 C1800 0.950 . S
H1775 C1802 0.950 . S
H1776 C1805 0.950 . S
H1777 C1806 0.950 . S
H1778 C1808 0.950 . S
H1779 C1809 0.950 . S
C1780 H1762 0.951 . S
C1780 C1781 1.366 . S
C1780 C1782 1.388 . S
C1781 C1780 1.366 . S
C1781 C1785 1.385 . S
C1782 H1763 0.951 1_455 S
C1782 C1780 1.388 . S
C1782 C1783 1.366 . S
C1783 C1782 1.366 . S
C1783 C1784 1.414 . S
C1783 C1786 1.499 . S
C1784 H1764 0.950 . S
C1784 C1783 1.414 . S
C1784 C1785 1.374 . S
C1785 H1765 0.950 . S
C1785 C1781 1.385 . S
C1785 C1784 1.374 . S
C1786 C1783 1.499 . S
C1786 C1787 1.373 . S
C1786 C1788 1.389 1_455 S
C1787 H1766 0.950 . S
C1787 C1786 1.373 . S
C1787 C1803 1.377 . S
C1788 C1786 1.389 1_655 S
C1788 C1789 1.524 . S
C1788 C1802 1.377 . S
C1789 C1788 1.524 . S
C1789 C1790 1.397 . S
C1789 C1794 1.363 . S
C1790 H1767 0.950 . S
C1790 C1789 1.397 . S
C1790 C1791 1.334 . S
C1791 H1768 0.950 . S
C1791 C1790 1.334 . S
C1791 C1792 1.287 . S
C1792 C1791 1.287 . S
C1792 C1793 1.524 . S
C1792 H1811 0.913 . S
C1793 H1769 0.950 . S
C1793 C1792 1.524 . S
C1793 C1794 1.415 . S
C1794 H1770 0.950 . S
C1794 C1789 1.363 . S
C1794 C1793 1.415 . S
C1795 H1771 0.951 . S
C1795 C1796 1.366 . S
C1795 C1797 1.388 . S
C1796 C1795 1.366 . S
C1796 C1800 1.385 . S
C1797 H1772 0.951 1_655 S
C1797 C1795 1.388 . S
C1797 C1798 1.366 . S
C1798 C1797 1.366 . S
C1798 C1799 1.414 . S
C1798 C1801 1.499 . S
C1799 H1773 0.950 . S
C1799 C1798 1.414 . S
C1799 C1800 1.374 . S
C1800 H1774 0.950 . S
C1800 C1796 1.385 . S
C1800 C1799 1.374 . S
C1801 C1798 1.499 . S
C1801 C1802 1.373 . S
C1801 C1803 1.389 1_655 S
C1802 H1775 0.950 . S
C1802 C1788 1.377 . S
C1802 C1801 1.373 . S
C1803 C1787 1.377 . S
C1803 C1801 1.389 1_455 S
C1803 C1804 1.524 . S
C1804 C1803 1.524 . S
C1804 C1805 1.397 . S
C1804 C1809 1.363 . S
C1805 H1776 0.950 . S
C1805 C1804 1.397 . S
C1805 C1806 1.334 . S
C1806 H1777 0.950 . S
C1806 C1805 1.334 . S
C1806 C1807 1.287 . S
C1807 C1806 1.287 . S
C1807 C1808 1.524 . S
C1807 H1810 0.999 . S
C1808 H1778 0.950 . S
C1808 C1807 1.524 . S
C1808 C1809 1.415 . S
C1809 H1779 0.950 . S
C1809 C1804 1.363 . S
C1809 C1808 1.415 . S
H1810 C1807 0.999 . S
H1811 C1792 0.913 . S
H1812 C1830 0.951 . S
H1813 C1832 0.951 . S
H1814 C1834 0.950 1_545 S
H1815 C1835 0.950 . S
H1816 C1837 0.950 . S
H1817 C1840 0.950 . S
H1818 C1841 0.950 . S
H1819 C1843 0.950 . S
H1820 C1844 0.950 . S
H1821 C1845 0.951 . S
H1822 C1847 0.951 . S
H1823 C1849 0.950 1_565 S
H1824 C1850 0.950 . S
H1825 C1852 0.950 . S
H1826 C1855 0.950 . S
H1827 C1856 0.950 . S
H1828 C1858 0.950 . S
H1829 C1859 0.950 . S
C1830 H1812 0.951 . S
C1830 C1831 1.366 . S
C1830 C1832 1.388 . S
C1831 C1830 1.366 . S
C1831 C1835 1.385 . S
C1832 H1813 0.951 . S
C1832 C1830 1.388 . S
C1832 C1833 1.366 . S
C1833 C1832 1.366 . S
C1833 C1834 1.414 . S
C1833 C1836 1.499 . S
C1834 H1814 0.950 1_565 S
C1834 C1833 1.414 . S
C1834 C1835 1.374 . S
C1835 H1815 0.950 . S
C1835 C1831 1.385 . S
C1835 C1834 1.374 . S
C1836 C1833 1.499 . S
C1836 C1837 1.373 1_565 S
C1836 C1838 1.389 . S
C1837 H1816 0.950 . S
C1837 C1836 1.373 1_545 S
C1837 C1853 1.377 1_556 S
C1838 C1836 1.389 . S
C1838 C1839 1.524 . S
C1838 C1852 1.377 1_556 S
C1839 C1838 1.524 . S
C1839 C1840 1.397 . S
C1839 C1844 1.363 1_556 S
C1840 H1817 0.950 . S
C1840 C1839 1.397 . S
C1840 C1841 1.334 . S
C1841 H1818 0.950 . S
C1841 C1840 1.334 . S
C1841 C1842 1.287 . S
C1842 C1841 1.287 . S
C1842 C1843 1.524 1_556 S
C1842 H1861 0.913 . S
C1843 H1819 0.950 . S
C1843 C1842 1.524 1_554 S
C1843 C1844 1.415 . S
C1844 H1820 0.950 . S
C1844 C1839 1.363 1_554 S
C1844 C1843 1.415 . S
C1845 H1821 0.951 . S
C1845 C1846 1.366 . S
C1845 C1847 1.388 . S
C1846 C1845 1.366 . S
C1846 C1850 1.385 . S
C1847 H1822 0.951 . S
C1847 C1845 1.388 . S
C1847 C1848 1.366 . S
C1848 C1847 1.366 . S
C1848 C1849 1.414 . S
C1848 C1851 1.499 . S
C1849 H1823 0.950 1_545 S
C1849 C1848 1.414 . S
C1849 C1850 1.374 . S
C1850 H1824 0.950 . S
C1850 C1846 1.385 . S
C1850 C1849 1.374 . S
C1851 C1848 1.499 . S
C1851 C1852 1.373 1_545 S
C1851 C1853 1.389 . S
C1852 H1825 0.950 . S
C1852 C1838 1.377 1_554 S
C1852 C1851 1.373 1_565 S
C1853 C1837 1.377 1_554 S
C1853 C1851 1.389 . S
C1853 C1854 1.524 . S
C1854 C1853 1.524 . S
C1854 C1855 1.397 . S
C1854 C1859 1.363 1_554 S
C1855 H1826 0.950 . S
C1855 C1854 1.397 . S
C1855 C1856 1.334 . S
C1856 H1827 0.950 . S
C1856 C1855 1.334 . S
C1856 C1857 1.287 . S
C1857 C1856 1.287 . S
C1857 C1858 1.524 1_554 S
C1857 H1860 0.999 . S
C1858 H1828 0.950 . S
C1858 C1857 1.524 1_556 S
C1858 C1859 1.415 . S
C1859 H1829 0.950 . S
C1859 C1854 1.363 1_556 S
C1859 C1858 1.415 . S
H1860 C1857 0.999 . S
H1861 C1842 0.913 . S
H1862 C1880 0.951 . S
H1863 C1882 0.951 . S
H1864 C1884 0.950 . S
H1865 C1885 0.950 . S
H1866 C1887 0.950 . S
H1867 C1890 0.950 . S
H1868 C1891 0.950 . S
H1869 C1893 0.950 . S
H1870 C1894 0.950 . S
H1871 C1895 0.951 . S
H1872 C1897 0.951 . S
H1873 C1899 0.950 . S
H1874 C1900 0.950 . S
H1875 C1902 0.950 . S
H1876 C1905 0.950 . S
H1877 C1906 0.950 . S
H1878 C1908 0.950 . S
H1879 C1909 0.950 . S
C1880 H1862 0.951 . S
C1880 C1881 1.366 . S
C1880 C1882 1.388 . S
C1881 C1880 1.366 . S
C1881 C1885 1.385 . S
C1882 H1863 0.951 . S
C1882 C1880 1.388 . S
C1882 C1883 1.366 . S
C1883 C1882 1.366 . S
C1883 C1884 1.414 . S
C1883 C1886 1.499 . S
C1884 H1864 0.950 . S
C1884 C1883 1.414 . S
C1884 C1885 1.374 . S
C1885 H1865 0.950 . S
C1885 C1881 1.385 . S
C1885 C1884 1.374 . S
C1886 C1883 1.499 . S
C1886 C1887 1.373 . S
C1886 C1888 1.389 . S
C1887 H1866 0.950 . S
C1887 C1886 1.373 . S
C1887 C1903 1.377 . S
C1888 C1886 1.389 . S
C1888 C1889 1.524 . S
C1888 C1902 1.377 . S
C1889 C1888 1.524 . S
C1889 C1890 1.397 . S
C1889 C1894 1.363 . S
C1890 H1867 0.950 . S
C1890 C1889 1.397 . S
C1890 C1891 1.334 . S
C1891 H1868 0.950 . S
C1891 C1890 1.334 . S
C1891 C1892 1.287 . S
C1892 C1891 1.287 . S
C1892 C1893 1.524 . S
C1892 H1911 0.913 . S
C1893 H1869 0.950 . S
C1893 C1892 1.524 . S
C1893 C1894 1.415 . S
C1894 H1870 0.950 . S
C1894 C1889 1.363 . S
C1894 C1893 1.415 . S
C1895 H1871 0.951 . S
C1895 C1896 1.366 . S
C1895 C1897 1.388 . S
C1896 C1895 1.366 . S
C1896 C1900 1.385 . S
C1897 H1872 0.951 . S
C1897 C1895 1.388 . S
C1897 C1898 1.366 . S
C1898 C1897 1.366 . S
C1898 C1899 1.414 . S
C1898 C1901 1.499 . S
C1899 H1873 0.950 . S
C1899 C1898 1.414 . S
C1899 C1900 1.374 . S
C1900 H1874 0.950 . S
C1900 C1896 1.385 . S
C1900 C1899 1.374 . S
C1901 C1898 1.499 . S
C1901 C1902 1.373 . S
C1901 C1903 1.389 . S
C1902 H1875 0.950 . S
C1902 C1888 1.377 . S
C1902 C1901 1.373 . S
C1903 C1887 1.377 . S
C1903 C1901 1.389 . S
C1903 C1904 1.524 . S
C1904 C1903 1.524 . S
C1904 C1905 1.397 . S
C1904 C1909 1.363 . S
C1905 H1876 0.950 . S
C1905 C1904 1.397 . S
C1905 C1906 1.334 . S
C1906 H1877 0.950 . S
C1906 C1905 1.334 . S
C1906 C1907 1.287 . S
C1907 C1906 1.287 . S
C1907 C1908 1.524 . S
C1907 H1910 0.999 . S
C1908 H1878 0.950 . S
C1908 C1907 1.524 . S
C1908 C1909 1.415 . S
C1909 H1879 0.950 . S
C1909 C1904 1.363 . S
C1909 C1908 1.415 . S
H1910 C1907 0.999 . S
H1911 C1892 0.913 . S
H1912 C1930 0.951 . S
H1913 C1932 0.951 . S
H1914 C1934 0.950 . S
H1915 C1935 0.950 . S
H1916 C1937 0.950 . S
H1917 C1940 0.950 . S
H1918 C1941 0.950 . S
H1919 C1943 0.950 . S
H1920 C1944 0.950 . S
H1921 C1945 0.951 . S
H1922 C1947 0.951 . S
H1923 C1949 0.950 . S
H1924 C1950 0.950 . S
H1925 C1952 0.950 . S
H1926 C1955 0.950 . S
H1927 C1956 0.950 . S
H1928 C1958 0.950 . S
H1929 C1959 0.950 . S
C1930 H1912 0.951 . S
C1930 C1931 1.366 . S
C1930 C1932 1.388 . S
C1931 C1930 1.366 . S
C1931 C1935 1.385 . S
C1932 H1913 0.951 . S
C1932 C1930 1.388 . S
C1932 C1933 1.366 . S
C1933 C1932 1.366 . S
C1933 C1934 1.414 . S
C1933 C1936 1.499 . S
C1934 H1914 0.950 . S
C1934 C1933 1.414 . S
C1934 C1935 1.374 . S
C1935 H1915 0.950 . S
C1935 C1931 1.385 . S
C1935 C1934 1.374 . S
C1936 C1933 1.499 . S
C1936 C1937 1.373 1_655 S
C1936 C1938 1.389 . S
C1937 H1916 0.950 . S
C1937 C1936 1.373 1_455 S
C1937 C1953 1.377 1_554 S
C1938 C1936 1.389 . S
C1938 C1939 1.524 . S
C1938 C1952 1.377 1_554 S
C1939 C1938 1.524 . S
C1939 C1940 1.397 . S
C1939 C1944 1.363 1_554 S
C1940 H1917 0.950 . S
C1940 C1939 1.397 . S
C1940 C1941 1.334 . S
C1941 H1918 0.950 . S
C1941 C1940 1.334 . S
C1941 C1942 1.287 . S
C1942 C1941 1.287 . S
C1942 C1943 1.524 1_554 S
C1942 H1961 0.913 . S
C1943 H1919 0.950 . S
C1943 C1942 1.524 1_556 S
C1943 C1944 1.415 . S
C1944 H1920 0.950 . S
C1944 C1939 1.363 1_556 S
C1944 C1943 1.415 . S
C1945 H1921 0.951 . S
C1945 C1946 1.366 . S
C1945 C1947 1.388 . S
C1946 C1945 1.366 . S
C1946 C1950 1.385 . S
C1947 H1922 0.951 . S
C1947 C1945 1.388 . S
C1947 C1948 1.366 . S
C1948 C1947 1.366 . S
C1948 C1949 1.414 . S
C1948 C1951 1.499 . S
C1949 H1923 0.950 . S
C1949 C1948 1.414 . S
C1949 C1950 1.374 . S
C1950 H1924 0.950 . S
C1950 C1946 1.385 . S
C1950 C1949 1.374 . S
C1951 C1948 1.499 . S
C1951 C1952 1.373 1_455 S
C1951 C1953 1.389 . S
C1952 H1925 0.950 . S
C1952 C1938 1.377 1_556 S
C1952 C1951 1.373 1_655 S
C1953 C1937 1.377 1_556 S
C1953 C1951 1.389 . S
C1953 C1954 1.524 . S
C1954 C1953 1.524 . S
C1954 C1955 1.397 . S
C1954 C1959 1.363 1_556 S
C1955 H1926 0.950 . S
C1955 C1954 1.397 . S
C1955 C1956 1.334 . S
C1956 H1927 0.950 . S
C1956 C1955 1.334 . S
C1956 C1957 1.287 . S
C1957 C1956 1.287 . S
C1957 C1958 1.524 1_556 S
C1957 H1960 0.999 . S
C1958 H1928 0.950 . S
C1958 C1957 1.524 1_554 S
C1958 C1959 1.415 . S
C1959 H1929 0.950 . S
C1959 C1954 1.363 1_554 S
C1959 C1958 1.415 . S
H1960 C1957 0.999 . S
H1961 C1942 0.913 . S
H1962 C1980 0.951 . S
H1963 C1982 0.951 . S
H1964 C1984 0.950 1_545 S
H1965 C1985 0.950 . S
H1966 C1987 0.950 . S
H1967 C1990 0.950 . S
H1968 C1991 0.950 . S
H1969 C1993 0.950 . S
H1970 C1994 0.950 . S
H1971 C1995 0.951 . S
H1972 C1997 0.951 . S
H1973 C1999 0.950 1_565 S
H1974 C2000 0.950 . S
H1975 C2002 0.950 . S
H1976 C2005 0.950 . S
H1977 C2006 0.950 . S
H1978 C2008 0.950 . S
H1979 C2009 0.950 . S
C1980 H1962 0.951 . S
C1980 C1981 1.366 . S
C1980 C1982 1.388 . S
C1981 C1980 1.366 . S
C1981 C1985 1.385 . S
C1982 H1963 0.951 . S
C1982 C1980 1.388 . S
C1982 C1983 1.366 . S
C1983 C1982 1.366 . S
C1983 C1984 1.414 . S
C1983 C1986 1.499 . S
C1984 H1964 0.950 1_565 S
C1984 C1983 1.414 . S
C1984 C1985 1.374 . S
C1985 H1965 0.950 . S
C1985 C1981 1.385 . S
C1985 C1984 1.374 . S
C1986 C1983 1.499 . S
C1986 C1987 1.373 1_565 S
C1986 C1988 1.389 . S
C1987 H1966 0.950 . S
C1987 C1986 1.373 1_545 S
C1987 C2003 1.377 . S
C1988 C1986 1.389 . S
C1988 C1989 1.524 . S
C1988 C2002 1.377 . S
C1989 C1988 1.524 . S
C1989 C1990 1.397 . S
C1989 C1994 1.363 . S
C1990 H1967 0.950 . S
C1990 C1989 1.397 . S
C1990 C1991 1.334 . S
C1991 H1968 0.950 . S
C1991 C1990 1.334 . S
C1991 C1992 1.287 . S
C1992 C1991 1.287 . S
C1992 C1993 1.524 . S
C1992 H2011 0.913 . S
C1993 H1969 0.950 . S
C1993 C1992 1.524 . S
C1993 C1994 1.415 . S
C1994 H1970 0.950 . S
C1994 C1989 1.363 . S
C1994 C1993 1.415 . S
C1995 H1971 0.951 . S
C1995 C1996 1.366 . S
C1995 C1997 1.388 . S
C1996 C1995 1.366 . S
C1996 C2000 1.385 . S
C1997 H1972 0.951 . S
C1997 C1995 1.388 . S
C1997 C1998 1.366 . S
C1998 C1997 1.366 . S
C1998 C1999 1.414 . S
C1998 C2001 1.499 . S
C1999 H1973 0.950 1_545 S
C1999 C1998 1.414 . S
C1999 C2000 1.374 . S
C2000 H1974 0.950 . S
C2000 C1996 1.385 . S
C2000 C1999 1.374 . S
C2001 C1998 1.499 . S
C2001 C2002 1.373 1_545 S
C2001 C2003 1.389 . S
C2002 H1975 0.950 . S
C2002 C1988 1.377 . S
C2002 C2001 1.373 1_565 S
C2003 C1987 1.377 . S
C2003 C2001 1.389 . S
C2003 C2004 1.524 . S
C2004 C2003 1.524 . S
C2004 C2005 1.397 . S
C2004 C2009 1.363 . S
C2005 H1976 0.950 . S
C2005 C2004 1.397 . S
C2005 C2006 1.334 . S
C2006 H1977 0.950 . S
C2006 C2005 1.334 . S
C2006 C2007 1.287 . S
C2007 C2006 1.287 . S
C2007 C2008 1.524 . S
C2007 H2010 0.999 . S
C2008 H1978 0.950 . S
C2008 C2007 1.524 . S
C2008 C2009 1.415 . S
C2009 H1979 0.950 . S
C2009 C2004 1.363 . S
C2009 C2008 1.415 . S
H2010 C2007 0.999 . S
H2011 C1992 0.913 . S
H2012 C2030 0.951 . S
H2013 C2032 0.951 . S
H2014 C2034 0.950 . S
H2015 C2035 0.950 . S
H2016 C2037 0.950 . S
H2017 C2040 0.950 . S
H2018 C2041 0.950 . S
H2019 C2043 0.950 . S
H2020 C2044 0.950 1_556 S
H2021 C2045 0.951 . S
H2022 C2047 0.951 . S
H2023 C2049 0.950 . S
H2024 C2050 0.950 . S
H2025 C2052 0.950 . S
H2026 C2055 0.950 . S
H2027 C2056 0.950 . S
H2028 C2058 0.950 . S
H2029 C2059 0.950 1_554 S
C2030 H2012 0.951 . S
C2030 C2031 1.366 . S
C2030 C2032 1.388 . S
C2031 C2030 1.366 . S
C2031 C2035 1.385 . S
C2032 H2013 0.951 . S
C2032 C2030 1.388 . S
C2032 C2033 1.366 . S
C2033 C2032 1.366 . S
C2033 C2034 1.414 . S
C2033 C2036 1.499 . S
C2034 H2014 0.950 . S
C2034 C2033 1.414 . S
C2034 C2035 1.374 . S
C2035 H2015 0.950 . S
C2035 C2031 1.385 . S
C2035 C2034 1.374 . S
C2036 C2033 1.499 . S
C2036 C2037 1.373 . S
C2036 C2038 1.389 . S
C2037 H2016 0.950 . S
C2037 C2036 1.373 . S
C2037 C2053 1.377 1_554 S
C2038 C2036 1.389 . S
C2038 C2039 1.524 . S
C2038 C2052 1.377 1_554 S
C2039 C2038 1.524 . S
C2039 C2040 1.397 . S
C2039 C2044 1.363 . S
C2040 H2017 0.950 . S
C2040 C2039 1.397 . S
C2040 C2041 1.334 . S
C2041 H2018 0.950 . S
C2041 C2040 1.334 . S
C2041 C2042 1.287 . S
C2042 C2041 1.287 . S
C2042 C2043 1.524 . S
C2042 H2061 0.913 . S
C2043 H2019 0.950 . S
C2043 C2042 1.524 . S
C2043 C2044 1.415 . S
C2044 H2020 0.950 1_554 S
C2044 C2039 1.363 . S
C2044 C2043 1.415 . S
C2045 H2021 0.951 . S
C2045 C2046 1.366 . S
C2045 C2047 1.388 . S
C2046 C2045 1.366 . S
C2046 C2050 1.385 . S
C2047 H2022 0.951 . S
C2047 C2045 1.388 . S
C2047 C2048 1.366 . S
C2048 C2047 1.366 . S
C2048 C2049 1.414 . S
C2048 C2051 1.499 . S
C2049 H2023 0.950 . S
C2049 C2048 1.414 . S
C2049 C2050 1.374 . S
C2050 H2024 0.950 . S
C2050 C2046 1.385 . S
C2050 C2049 1.374 . S
C2051 C2048 1.499 . S
C2051 C2052 1.373 . S
C2051 C2053 1.389 . S
C2052 H2025 0.950 . S
C2052 C2038 1.377 1_556 S
C2052 C2051 1.373 . S
C2053 C2037 1.377 1_556 S
C2053 C2051 1.389 . S
C2053 C2054 1.524 . S
C2054 C2053 1.524 . S
C2054 C2055 1.397 . S
C2054 C2059 1.363 . S
C2055 H2026 0.950 . S
C2055 C2054 1.397 . S
C2055 C2056 1.334 . S
C2056 H2027 0.950 . S
C2056 C2055 1.334 . S
C2056 C2057 1.287 . S
C2057 C2056 1.287 . S
C2057 C2058 1.524 . S
C2057 H2060 0.999 . S
C2058 H2028 0.950 . S
C2058 C2057 1.524 . S
C2058 C2059 1.415 . S
C2059 H2029 0.950 1_556 S
C2059 C2054 1.363 . S
C2059 C2058 1.415 . S
H2060 C2057 0.999 . S
H2061 C2042 0.913 . S
H2062 C2080 0.951 . S
H2063 C2082 0.951 . S
H2064 C2084 0.950 . S
H2065 C2085 0.950 . S
H2066 C2087 0.950 . S
H2067 C2090 0.950 . S
H2068 C2091 0.950 . S
H2069 C2093 0.950 . S
H2070 C2094 0.950 . S
H2071 C2095 0.951 . S
H2072 C2097 0.951 . S
H2073 C2099 0.950 . S
H2074 C2100 0.950 . S
H2075 C2102 0.950 . S
H2076 C2105 0.950 . S
H2077 C2106 0.950 . S
H2078 C2108 0.950 . S
H2079 C2109 0.950 . S
C2080 H2062 0.951 . S
C2080 C2081 1.366 . S
C2080 C2082 1.388 . S
C2081 C2080 1.366 . S
C2081 C2085 1.385 . S
C2082 H2063 0.951 . S
C2082 C2080 1.388 . S
C2082 C2083 1.366 . S
C2083 C2082 1.366 . S
C2083 C2084 1.414 . S
C2083 C2086 1.499 . S
C2084 H2064 0.950 . S
C2084 C2083 1.414 . S
C2084 C2085 1.374 . S
C2085 H2065 0.950 . S
C2085 C2081 1.385 . S
C2085 C2084 1.374 . S
C2086 C2083 1.499 . S
C2086 C2087 1.373 1_455 S
C2086 C2088 1.389 . S
C2087 H2066 0.950 . S
C2087 C2086 1.373 1_655 S
C2087 C2103 1.377 . S
C2088 C2086 1.389 . S
C2088 C2089 1.524 . S
C2088 C2102 1.377 . S
C2089 C2088 1.524 . S
C2089 C2090 1.397 . S
C2089 C2094 1.363 . S
C2090 H2067 0.950 . S
C2090 C2089 1.397 . S
C2090 C2091 1.334 . S
C2091 H2068 0.950 . S
C2091 C2090 1.334 . S
C2091 C2092 1.287 . S
C2092 C2091 1.287 . S
C2092 C2093 1.524 . S
C2092 H2111 0.913 . S
C2093 H2069 0.950 . S
C2093 C2092 1.524 . S
C2093 C2094 1.415 . S
C2094 H2070 0.950 . S
C2094 C2089 1.363 . S
C2094 C2093 1.415 . S
C2095 H2071 0.951 . S
C2095 C2096 1.366 . S
C2095 C2097 1.388 . S
C2096 C2095 1.366 . S
C2096 C2100 1.385 . S
C2097 H2072 0.951 . S
C2097 C2095 1.388 . S
C2097 C2098 1.366 . S
C2098 C2097 1.366 . S
C2098 C2099 1.414 . S
C2098 C2101 1.499 . S
C2099 H2073 0.950 . S
C2099 C2098 1.414 . S
C2099 C2100 1.374 . S
C2100 H2074 0.950 . S
C2100 C2096 1.385 . S
C2100 C2099 1.374 . S
C2101 C2098 1.499 . S
C2101 C2102 1.373 1_655 S
C2101 C2103 1.389 . S
C2102 H2075 0.950 . S
C2102 C2088 1.377 . S
C2102 C2101 1.373 1_455 S
C2103 C2087 1.377 . S
C2103 C2101 1.389 . S
C2103 C2104 1.524 . S
C2104 C2103 1.524 . S
C2104 C2105 1.397 . S
C2104 C2109 1.363 . S
C2105 H2076 0.950 . S
C2105 C2104 1.397 . S
C2105 C2106 1.334 . S
C2106 H2077 0.950 . S
C2106 C2105 1.334 . S
C2106 C2107 1.287 . S
C2107 C2106 1.287 . S
C2107 C2108 1.524 . S
C2107 H2110 0.999 . S
C2108 H2078 0.950 . S
C2108 C2107 1.524 . S
C2108 C2109 1.415 . S
C2109 H2079 0.950 . S
C2109 C2104 1.363 . S
C2109 C2108 1.415 . S
H2110 C2107 0.999 . S
H2111 C2092 0.913 . S
H2112 C2130 0.951 . S
H2113 C2132 0.951 . S
H2114 C2134 0.950 . S
H2115 C2135 0.950 . S
H2116 C2137 0.950 . S
H2117 C2140 0.950 . S
H2118 C2141 0.950 . S
H2119 C2143 0.950 . S
H2120 C2144 0.950 . S
H2121 C2145 0.951 . S
H2122 C2147 0.951 . S
H2123 C2149 0.950 . S
H2124 C2150 0.950 . S
H2125 C2152 0.950 . S
H2126 C2155 0.950 . S
H2127 C2156 0.950 . S
H2128 C2158 0.950 . S
H2129 C2159 0.950 . S
C2130 H2112 0.951 . S
C2130 C2131 1.366 . S
C2130 C2132 1.388 . S
C2131 C2130 1.366 . S
C2131 C2135 1.385 . S
C2132 H2113 0.951 . S
C2132 C2130 1.388 . S
C2132 C2133 1.366 . S
C2133 C2132 1.366 . S
C2133 C2134 1.414 . S
C2133 C2136 1.499 . S
C2134 H2114 0.950 . S
C2134 C2133 1.414 . S
C2134 C2135 1.374 . S
C2135 H2115 0.950 . S
C2135 C2131 1.385 . S
C2135 C2134 1.374 . S
C2136 C2133 1.499 . S
C2136 C2137 1.373 . S
C2136 C2138 1.389 . S
C2137 H2116 0.950 . S
C2137 C2136 1.373 . S
C2137 C2153 1.377 . S
C2138 C2136 1.389 . S
C2138 C2139 1.524 . S
C2138 C2152 1.377 . S
C2139 C2138 1.524 . S
C2139 C2140 1.397 . S
C2139 C2144 1.363 . S
C2140 H2117 0.950 . S
C2140 C2139 1.397 . S
C2140 C2141 1.334 . S
C2141 H2118 0.950 . S
C2141 C2140 1.334 . S
C2141 C2142 1.287 . S
C2142 C2141 1.287 . S
C2142 C2143 1.524 . S
C2142 H2161 0.913 . S
C2143 H2119 0.950 . S
C2143 C2142 1.524 . S
C2143 C2144 1.415 . S
C2144 H2120 0.950 . S
C2144 C2139 1.363 . S
C2144 C2143 1.415 . S
C2145 H2121 0.951 . S
C2145 C2146 1.366 . S
C2145 C2147 1.388 . S
C2146 C2145 1.366 . S
C2146 C2150 1.385 . S
C2147 H2122 0.951 . S
C2147 C2145 1.388 . S
C2147 C2148 1.366 . S
C2148 C2147 1.366 . S
C2148 C2149 1.414 . S
C2148 C2151 1.499 . S
C2149 H2123 0.950 . S
C2149 C2148 1.414 . S
C2149 C2150 1.374 . S
C2150 H2124 0.950 . S
C2150 C2146 1.385 . S
C2150 C2149 1.374 . S
C2151 C2148 1.499 . S
C2151 C2152 1.373 . S
C2151 C2153 1.389 . S
C2152 H2125 0.950 . S
C2152 C2138 1.377 . S
C2152 C2151 1.373 . S
C2153 C2137 1.377 . S
C2153 C2151 1.389 . S
C2153 C2154 1.524 . S
C2154 C2153 1.524 . S
C2154 C2155 1.397 . S
C2154 C2159 1.363 . S
C2155 H2126 0.950 . S
C2155 C2154 1.397 . S
C2155 C2156 1.334 . S
C2156 H2127 0.950 . S
C2156 C2155 1.334 . S
C2156 C2157 1.287 . S
C2157 C2156 1.287 . S
C2157 C2158 1.524 . S
C2157 H2160 0.999 . S
C2158 H2128 0.950 . S
C2158 C2157 1.524 . S
C2158 C2159 1.415 . S
C2159 H2129 0.950 . S
C2159 C2154 1.363 . S
C2159 C2158 1.415 . S
H2160 C2157 0.999 . S
H2161 C2142 0.913 . S
H2162 C2180 0.951 . S
H2163 C2182 0.951 . S
H2164 C2184 0.950 . S
H2165 C2185 0.950 . S
H2166 C2187 0.950 . S
H2167 C2190 0.950 . S
H2168 C2191 0.950 . S
H2169 C2193 0.950 . S
H2170 C2194 0.950 . S
H2171 C2195 0.951 . S
H2172 C2197 0.951 . S
H2173 C2199 0.950 . S
H2174 C2200 0.950 . S
H2175 C2202 0.950 . S
H2176 C2205 0.950 . S
H2177 C2206 0.950 . S
H2178 C2208 0.950 . S
H2179 C2209 0.950 . S
C2180 H2162 0.951 . S
C2180 C2181 1.366 . S
C2180 C2182 1.388 . S
C2181 C2180 1.366 . S
C2181 C2185 1.385 . S
C2182 H2163 0.951 . S
C2182 C2180 1.388 . S
C2182 C2183 1.366 . S
C2183 C2182 1.366 . S
C2183 C2184 1.414 . S
C2183 C2186 1.499 . S
C2184 H2164 0.950 . S
C2184 C2183 1.414 . S
C2184 C2185 1.374 . S
C2185 H2165 0.950 . S
C2185 C2181 1.385 . S
C2185 C2184 1.374 . S
C2186 C2183 1.499 . S
C2186 C2187 1.373 . S
C2186 C2188 1.389 . S
C2187 H2166 0.950 . S
C2187 C2186 1.373 . S
C2187 C2203 1.377 . S
C2188 C2186 1.389 . S
C2188 C2189 1.524 . S
C2188 C2202 1.377 . S
C2189 C2188 1.524 . S
C2189 C2190 1.397 . S
C2189 C2194 1.363 . S
C2190 H2167 0.950 . S
C2190 C2189 1.397 . S
C2190 C2191 1.334 . S
C2191 H2168 0.950 . S
C2191 C2190 1.334 . S
C2191 C2192 1.287 . S
C2192 C2191 1.287 . S
C2192 C2193 1.524 . S
C2192 H2211 0.913 . S
C2193 H2169 0.950 . S
C2193 C2192 1.524 . S
C2193 C2194 1.415 . S
C2194 H2170 0.950 . S
C2194 C2189 1.363 . S
C2194 C2193 1.415 . S
C2195 H2171 0.951 . S
C2195 C2196 1.366 . S
C2195 C2197 1.388 . S
C2196 C2195 1.366 . S
C2196 C2200 1.385 . S
C2197 H2172 0.951 . S
C2197 C2195 1.388 . S
C2197 C2198 1.366 . S
C2198 C2197 1.366 . S
C2198 C2199 1.414 . S
C2198 C2201 1.499 . S
C2199 H2173 0.950 . S
C2199 C2198 1.414 . S
C2199 C2200 1.374 . S
C2200 H2174 0.950 . S
C2200 C2196 1.385 . S
C2200 C2199 1.374 . S
C2201 C2198 1.499 . S
C2201 C2202 1.373 . S
C2201 C2203 1.389 . S
C2202 H2175 0.950 . S
C2202 C2188 1.377 . S
C2202 C2201 1.373 . S
C2203 C2187 1.377 . S
C2203 C2201 1.389 . S
C2203 C2204 1.524 . S
C2204 C2203 1.524 . S
C2204 C2205 1.397 . S
C2204 C2209 1.363 . S
C2205 H2176 0.950 . S
C2205 C2204 1.397 . S
C2205 C2206 1.334 . S
C2206 H2177 0.950 . S
C2206 C2205 1.334 . S
C2206 C2207 1.287 . S
C2207 C2206 1.287 . S
C2207 C2208 1.524 . S
C2207 H2210 0.999 . S
C2208 H2178 0.950 . S
C2208 C2207 1.524 . S
C2208 C2209 1.415 . S
C2209 H2179 0.950 . S
C2209 C2204 1.363 . S
C2209 C2208 1.415 . S
H2210 C2207 0.999 . S
H2211 C2192 0.913 . S
H2212 C2230 0.951 . S
H2213 C2232 0.951 . S
H2214 C2234 0.950 . S
H2215 C2235 0.950 . S
H2216 C2237 0.950 . S
H2217 C2240 0.950 . S
H2218 C2241 0.950 . S
H2219 C2243 0.950 . S
H2220 C2244 0.950 . S
H2221 C2245 0.951 . S
H2222 C2247 0.951 . S
H2223 C2249 0.950 . S
H2224 C2250 0.950 . S
H2225 C2252 0.950 . S
H2226 C2255 0.950 . S
H2227 C2256 0.950 . S
H2228 C2258 0.950 . S
H2229 C2259 0.950 . S
C2230 H2212 0.951 . S
C2230 C2231 1.366 . S
C2230 C2232 1.388 . S
C2231 C2230 1.366 . S
C2231 C2235 1.385 . S
C2232 H2213 0.951 . S
C2232 C2230 1.388 . S
C2232 C2233 1.366 . S
C2233 C2232 1.366 . S
C2233 C2234 1.414 . S
C2233 C2236 1.499 . S
C2234 H2214 0.950 . S
C2234 C2233 1.414 . S
C2234 C2235 1.374 . S
C2235 H2215 0.950 . S
C2235 C2231 1.385 . S
C2235 C2234 1.374 . S
C2236 C2233 1.499 . S
C2236 C2237 1.373 . S
C2236 C2238 1.389 . S
C2237 H2216 0.950 . S
C2237 C2236 1.373 . S
C2237 C2253 1.377 . S
C2238 C2236 1.389 . S
C2238 C2239 1.524 . S
C2238 C2252 1.377 . S
C2239 C2238 1.524 . S
C2239 C2240 1.397 . S
C2239 C2244 1.363 . S
C2240 H2217 0.950 . S
C2240 C2239 1.397 . S
C2240 C2241 1.334 . S
C2241 H2218 0.950 . S
C2241 C2240 1.334 . S
C2241 C2242 1.287 . S
C2242 C2241 1.287 . S
C2242 C2243 1.524 . S
C2242 H2261 0.913 . S
C2243 H2219 0.950 . S
C2243 C2242 1.524 . S
C2243 C2244 1.415 . S
C2244 H2220 0.950 . S
C2244 C2239 1.363 . S
C2244 C2243 1.415 . S
C2245 H2221 0.951 . S
C2245 C2246 1.366 . S
C2245 C2247 1.388 . S
C2246 C2245 1.366 . S
C2246 C2250 1.385 . S
C2247 H2222 0.951 . S
C2247 C2245 1.388 . S
C2247 C2248 1.366 . S
C2248 C2247 1.366 . S
C2248 C2249 1.414 . S
C2248 C2251 1.499 . S
C2249 H2223 0.950 . S
C2249 C2248 1.414 . S
C2249 C2250 1.374 . S
C2250 H2224 0.950 . S
C2250 C2246 1.385 . S
C2250 C2249 1.374 . S
C2251 C2248 1.499 . S
C2251 C2252 1.373 . S
C2251 C2253 1.389 . S
C2252 H2225 0.950 . S
C2252 C2238 1.377 . S
C2252 C2251 1.373 . S
C2253 C2237 1.377 . S
C2253 C2251 1.389 . S
C2253 C2254 1.524 . S
C2254 C2253 1.524 . S
C2254 C2255 1.397 . S
C2254 C2259 1.363 . S
C2255 H2226 0.950 . S
C2255 C2254 1.397 . S
C2255 C2256 1.334 . S
C2256 H2227 0.950 . S
C2256 C2255 1.334 . S
C2256 C2257 1.287 1_655 S
C2257 C2256 1.287 1_455 S
C2257 C2258 1.524 . S
C2257 H2260 0.999 . S
C2258 H2228 0.950 . S
C2258 C2257 1.524 . S
C2258 C2259 1.415 1_455 S
C2259 H2229 0.950 . S
C2259 C2254 1.363 . S
C2259 C2258 1.415 1_655 S
H2260 C2257 0.999 . S
H2261 C2242 0.913 . S
H2262 C2280 0.951 . S
H2263 C2282 0.951 . S
H2264 C2284 0.950 . S
H2265 C2285 0.950 . S
H2266 C2287 0.950 . S
H2267 C2290 0.950 . S
H2268 C2291 0.950 . S
H2269 C2293 0.950 . S
H2270 C2294 0.950 . S
H2271 C2295 0.951 . S
H2272 C2297 0.951 . S
H2273 C2299 0.950 . S
H2274 C2300 0.950 . S
H2275 C2302 0.950 . S
H2276 C2305 0.950 . S
H2277 C2306 0.950 . S
H2278 C2308 0.950 . S
H2279 C2309 0.950 . S
C2280 H2262 0.951 . S
C2280 C2281 1.366 . S
C2280 C2282 1.388 . S
C2281 C2280 1.366 . S
C2281 C2285 1.385 . S
C2282 H2263 0.951 . S
C2282 C2280 1.388 . S
C2282 C2283 1.366 . S
C2283 C2282 1.366 . S
C2283 C2284 1.414 . S
C2283 C2286 1.499 . S
C2284 H2264 0.950 . S
C2284 C2283 1.414 . S
C2284 C2285 1.374 . S
C2285 H2265 0.950 . S
C2285 C2281 1.385 . S
C2285 C2284 1.374 . S
C2286 C2283 1.499 . S
C2286 C2287 1.373 . S
C2286 C2288 1.389 . S
C2287 H2266 0.950 . S
C2287 C2286 1.373 . S
C2287 C2303 1.377 . S
C2288 C2286 1.389 . S
C2288 C2289 1.524 . S
C2288 C2302 1.377 . S
C2289 C2288 1.524 . S
C2289 C2290 1.397 . S
C2289 C2294 1.363 . S
C2290 H2267 0.950 . S
C2290 C2289 1.397 . S
C2290 C2291 1.334 . S
C2291 H2268 0.950 . S
C2291 C2290 1.334 . S
C2291 C2292 1.287 . S
C2292 C2291 1.287 . S
C2292 C2293 1.524 . S
C2292 H2311 0.913 . S
C2293 H2269 0.950 . S
C2293 C2292 1.524 . S
C2293 C2294 1.415 . S
C2294 H2270 0.950 . S
C2294 C2289 1.363 . S
C2294 C2293 1.415 . S
C2295 H2271 0.951 . S
C2295 C2296 1.366 . S
C2295 C2297 1.388 . S
C2296 C2295 1.366 . S
C2296 C2300 1.385 . S
C2297 H2272 0.951 . S
C2297 C2295 1.388 . S
C2297 C2298 1.366 . S
C2298 C2297 1.366 . S
C2298 C2299 1.414 . S
C2298 C2301 1.499 . S
C2299 H2273 0.950 . S
C2299 C2298 1.414 . S
C2299 C2300 1.374 . S
C2300 H2274 0.950 . S
C2300 C2296 1.385 . S
C2300 C2299 1.374 . S
C2301 C2298 1.499 . S
C2301 C2302 1.373 . S
C2301 C2303 1.389 . S
C2302 H2275 0.950 . S
C2302 C2288 1.377 . S
C2302 C2301 1.373 . S
C2303 C2287 1.377 . S
C2303 C2301 1.389 . S
C2303 C2304 1.524 . S
C2304 C2303 1.524 . S
C2304 C2305 1.397 . S
C2304 C2309 1.363 . S
C2305 H2276 0.950 . S
C2305 C2304 1.397 . S
C2305 C2306 1.334 . S
C2306 H2277 0.950 . S
C2306 C2305 1.334 . S
C2306 C2307 1.287 . S
C2307 C2306 1.287 . S
C2307 C2308 1.524 . S
C2307 H2310 0.999 . S
C2308 H2278 0.950 . S
C2308 C2307 1.524 . S
C2308 C2309 1.415 . S
C2309 H2279 0.950 . S
C2309 C2304 1.363 . S
C2309 C2308 1.415 . S
H2310 C2307 0.999 . S
H2311 C2292 0.913 . S
H2312 C2330 0.951 . S
H2313 C2332 0.951 . S
H2314 C2334 0.950 . S
H2315 C2335 0.950 . S
H2316 C2337 0.950 . S
H2317 C2340 0.950 . S
H2318 C2341 0.950 . S
H2319 C2343 0.950 . S
H2320 C2344 0.950 . S
H2321 C2345 0.951 . S
H2322 C2347 0.951 . S
H2323 C2349 0.950 . S
H2324 C2350 0.950 . S
H2325 C2352 0.950 . S
H2326 C2355 0.950 . S
H2327 C2356 0.950 . S
H2328 C2358 0.950 . S
H2329 C2359 0.950 . S
C2330 H2312 0.951 . S
C2330 C2331 1.366 . S
C2330 C2332 1.388 . S
C2331 C2330 1.366 . S
C2331 C2335 1.385 . S
C2332 H2313 0.951 . S
C2332 C2330 1.388 . S
C2332 C2333 1.366 . S
C2333 C2332 1.366 . S
C2333 C2334 1.414 . S
C2333 C2336 1.499 . S
C2334 H2314 0.950 . S
C2334 C2333 1.414 . S
C2334 C2335 1.374 . S
C2335 H2315 0.950 . S
C2335 C2331 1.385 . S
C2335 C2334 1.374 . S
C2336 C2333 1.499 . S
C2336 C2337 1.373 . S
C2336 C2338 1.389 . S
C2337 H2316 0.950 . S
C2337 C2336 1.373 . S
C2337 C2353 1.377 . S
C2338 C2336 1.389 . S
C2338 C2339 1.524 . S
C2338 C2352 1.377 . S
C2339 C2338 1.524 . S
C2339 C2340 1.397 . S
C2339 C2344 1.363 . S
C2340 H2317 0.950 . S
C2340 C2339 1.397 . S
C2340 C2341 1.334 . S
C2341 H2318 0.950 . S
C2341 C2340 1.334 . S
C2341 C2342 1.287 . S
C2342 C2341 1.287 . S
C2342 C2343 1.524 . S
C2342 H2361 0.913 . S
C2343 H2319 0.950 . S
C2343 C2342 1.524 . S
C2343 C2344 1.415 . S
C2344 H2320 0.950 . S
C2344 C2339 1.363 . S
C2344 C2343 1.415 . S
C2345 H2321 0.951 . S
C2345 C2346 1.366 . S
C2345 C2347 1.388 . S
C2346 C2345 1.366 . S
C2346 C2350 1.385 . S
C2347 H2322 0.951 . S
C2347 C2345 1.388 . S
C2347 C2348 1.366 . S
C2348 C2347 1.366 . S
C2348 C2349 1.414 . S
C2348 C2351 1.499 . S
C2349 H2323 0.950 . S
C2349 C2348 1.414 . S
C2349 C2350 1.374 . S
C2350 H2324 0.950 . S
C2350 C2346 1.385 . S
C2350 C2349 1.374 . S
C2351 C2348 1.499 . S
C2351 C2352 1.373 . S
C2351 C2353 1.389 . S
C2352 H2325 0.950 . S
C2352 C2338 1.377 . S
C2352 C2351 1.373 . S
C2353 C2337 1.377 . S
C2353 C2351 1.389 . S
C2353 C2354 1.524 . S
C2354 C2353 1.524 . S
C2354 C2355 1.397 . S
C2354 C2359 1.363 . S
C2355 H2326 0.950 . S
C2355 C2354 1.397 . S
C2355 C2356 1.334 . S
C2356 H2327 0.950 . S
C2356 C2355 1.334 . S
C2356 C2357 1.287 . S
C2357 C2356 1.287 . S
C2357 C2358 1.524 . S
C2357 H2360 0.999 . S
C2358 H2328 0.950 . S
C2358 C2357 1.524 . S
C2358 C2359 1.415 . S
C2359 H2329 0.950 . S
C2359 C2354 1.363 . S
C2359 C2358 1.415 . S
H2360 C2357 0.999 . S
H2361 C2342 0.913 . S
H2362 C2380 0.951 . S
H2363 C2382 0.951 . S
H2364 C2384 0.950 . S
H2365 C2385 0.950 . S
H2366 C2387 0.950 . S
H2367 C2390 0.950 . S
H2368 C2391 0.950 . S
H2369 C2393 0.950 . S
H2370 C2394 0.950 . S
H2371 C2395 0.951 . S
H2372 C2397 0.951 . S
H2373 C2399 0.950 . S
H2374 C2400 0.950 . S
H2375 C2402 0.950 . S
H2376 C2405 0.950 . S
H2377 C2406 0.950 . S
H2378 C2408 0.950 . S
H2379 C2409 0.950 . S
C2380 H2362 0.951 . S
C2380 C2381 1.366 . S
C2380 C2382 1.388 . S
C2381 C2380 1.366 . S
C2381 C2385 1.385 . S
C2382 H2363 0.951 . S
C2382 C2380 1.388 . S
C2382 C2383 1.366 . S
C2383 C2382 1.366 . S
C2383 C2384 1.414 . S
C2383 C2386 1.499 . S
C2384 H2364 0.950 . S
C2384 C2383 1.414 . S
C2384 C2385 1.374 . S
C2385 H2365 0.950 . S
C2385 C2381 1.385 . S
C2385 C2384 1.374 . S
C2386 C2383 1.499 . S
C2386 C2387 1.373 . S
C2386 C2388 1.389 . S
C2387 H2366 0.950 . S
C2387 C2386 1.373 . S
C2387 C2403 1.377 . S
C2388 C2386 1.389 . S
C2388 C2389 1.524 . S
C2388 C2402 1.377 . S
C2389 C2388 1.524 . S
C2389 C2390 1.397 . S
C2389 C2394 1.363 . S
C2390 H2367 0.950 . S
C2390 C2389 1.397 . S
C2390 C2391 1.334 . S
C2391 H2368 0.950 . S
C2391 C2390 1.334 . S
C2391 C2392 1.287 1_455 S
C2392 C2391 1.287 1_655 S
C2392 C2393 1.524 . S
C2392 H2411 0.913 . S
C2393 H2369 0.950 . S
C2393 C2392 1.524 . S
C2393 C2394 1.415 1_655 S
C2394 H2370 0.950 . S
C2394 C2389 1.363 . S
C2394 C2393 1.415 1_455 S
C2395 H2371 0.951 . S
C2395 C2396 1.366 . S
C2395 C2397 1.388 . S
C2396 C2395 1.366 . S
C2396 C2400 1.385 . S
C2397 H2372 0.951 . S
C2397 C2395 1.388 . S
C2397 C2398 1.366 . S
C2398 C2397 1.366 . S
C2398 C2399 1.414 . S
C2398 C2401 1.499 . S
C2399 H2373 0.950 . S
C2399 C2398 1.414 . S
C2399 C2400 1.374 . S
C2400 H2374 0.950 . S
C2400 C2396 1.385 . S
C2400 C2399 1.374 . S
C2401 C2398 1.499 . S
C2401 C2402 1.373 . S
C2401 C2403 1.389 . S
C2402 H2375 0.950 . S
C2402 C2388 1.377 . S
C2402 C2401 1.373 . S
C2403 C2387 1.377 . S
C2403 C2401 1.389 . S
C2403 C2404 1.524 . S
C2404 C2403 1.524 . S
C2404 C2405 1.397 . S
C2404 C2409 1.363 . S
C2405 H2376 0.950 . S
C2405 C2404 1.397 . S
C2405 C2406 1.334 . S
C2406 H2377 0.950 . S
C2406 C2405 1.334 . S
C2406 C2407 1.287 . S
C2407 C2406 1.287 . S
C2407 C2408 1.524 . S
C2407 H2410 0.999 . S
C2408 H2378 0.950 . S
C2408 C2407 1.524 . S
C2408 C2409 1.415 . S
C2409 H2379 0.950 . S
C2409 C2404 1.363 . S
C2409 C2408 1.415 . S
H2410 C2407 0.999 . S
H2411 C2392 0.913 . S
H2412 C2430 0.951 . S
H2413 C2432 0.951 . S
H2414 C2434 0.950 . S
H2415 C2435 0.950 . S
H2416 C2437 0.950 . S
H2417 C2440 0.950 . S
H2418 C2441 0.950 . S
H2419 C2443 0.950 1_455 S
H2420 C2444 0.950 . S
H2421 C2445 0.951 . S
H2422 C2447 0.951 . S
H2423 C2449 0.950 . S
H2424 C2450 0.950 . S
H2425 C2452 0.950 . S
H2426 C2455 0.950 . S
H2427 C2456 0.950 . S
H2428 C2458 0.950 . S
H2429 C2459 0.950 . S
C2430 H2412 0.951 . S
C2430 C2431 1.366 . S
C2430 C2432 1.388 . S
C2431 C2430 1.366 . S
C2431 C2435 1.385 . S
C2432 H2413 0.951 . S
C2432 C2430 1.388 . S
C2432 C2433 1.366 . S
C2433 C2432 1.366 . S
C2433 C2434 1.414 . S
C2433 C2436 1.499 . S
C2434 H2414 0.950 . S
C2434 C2433 1.414 . S
C2434 C2435 1.374 . S
C2435 H2415 0.950 . S
C2435 C2431 1.385 . S
C2435 C2434 1.374 . S
C2436 C2433 1.499 . S
C2436 C2437 1.373 . S
C2436 C2438 1.389 . S
C2437 H2416 0.950 . S
C2437 C2436 1.373 . S
C2437 C2453 1.377 . S
C2438 C2436 1.389 . S
C2438 C2439 1.524 . S
C2438 C2452 1.377 . S
C2439 C2438 1.524 . S
C2439 C2440 1.397 . S
C2439 C2444 1.363 . S
C2440 H2417 0.950 . S
C2440 C2439 1.397 . S
C2440 C2441 1.334 . S
C2441 H2418 0.950 . S
C2441 C2440 1.334 . S
C2441 C2442 1.287 . S
C2442 C2441 1.287 . S
C2442 C2443 1.524 . S
C2442 H2461 0.913 . S
C2443 H2419 0.950 1_655 S
C2443 C2442 1.524 . S
C2443 C2444 1.415 . S
C2444 H2420 0.950 . S
C2444 C2439 1.363 . S
C2444 C2443 1.415 . S
C2445 H2421 0.951 . S
C2445 C2446 1.366 . S
C2445 C2447 1.388 . S
C2446 C2445 1.366 . S
C2446 C2450 1.385 . S
C2447 H2422 0.951 . S
C2447 C2445 1.388 . S
C2447 C2448 1.366 . S
C2448 C2447 1.366 . S
C2448 C2449 1.414 . S
C2448 C2451 1.499 . S
C2449 H2423 0.950 . S
C2449 C2448 1.414 . S
C2449 C2450 1.374 . S
C2450 H2424 0.950 . S
C2450 C2446 1.385 . S
C2450 C2449 1.374 . S
C2451 C2448 1.499 . S
C2451 C2452 1.373 . S
C2451 C2453 1.389 . S
C2452 H2425 0.950 . S
C2452 C2438 1.377 . S
C2452 C2451 1.373 . S
C2453 C2437 1.377 . S
C2453 C2451 1.389 . S
C2453 C2454 1.524 . S
C2454 C2453 1.524 . S
C2454 C2455 1.397 . S
C2454 C2459 1.363 . S
C2455 H2426 0.950 . S
C2455 C2454 1.397 . S
C2455 C2456 1.334 . S
C2456 H2427 0.950 . S
C2456 C2455 1.334 . S
C2456 C2457 1.287 . S
C2457 C2456 1.287 . S
C2457 C2458 1.524 . S
C2457 H2460 0.999 . S
C2458 H2428 0.950 . S
C2458 C2457 1.524 . S
C2458 C2459 1.415 . S
C2459 H2429 0.950 . S
C2459 C2454 1.363 . S
C2459 C2458 1.415 . S
H2460 C2457 0.999 . S
H2461 C2442 0.913 . S
H2462 C2480 0.951 . S
H2463 C2482 0.951 . S
H2464 C2484 0.950 . S
H2465 C2485 0.950 . S
H2466 C2487 0.950 . S
H2467 C2490 0.950 . S
H2468 C2491 0.950 . S
H2469 C2493 0.950 . S
H2470 C2494 0.950 . S
H2471 C2495 0.951 . S
H2472 C2497 0.951 . S
H2473 C2499 0.950 . S
H2474 C2500 0.950 . S
H2475 C2502 0.950 . S
H2476 C2505 0.950 . S
H2477 C2506 0.950 . S
H2478 C2508 0.950 . S
H2479 C2509 0.950 . S
C2480 H2462 0.951 . S
C2480 C2481 1.366 . S
C2480 C2482 1.388 . S
C2481 C2480 1.366 . S
C2481 C2485 1.385 . S
C2482 H2463 0.951 . S
C2482 C2480 1.388 . S
C2482 C2483 1.366 . S
C2483 C2482 1.366 . S
C2483 C2484 1.414 . S
C2483 C2486 1.499 . S
C2484 H2464 0.950 . S
C2484 C2483 1.414 . S
C2484 C2485 1.374 . S
C2485 H2465 0.950 . S
C2485 C2481 1.385 . S
C2485 C2484 1.374 . S
C2486 C2483 1.499 . S
C2486 C2487 1.373 . S
C2486 C2488 1.389 . S
C2487 H2466 0.950 . S
C2487 C2486 1.373 . S
C2487 C2503 1.377 . S
C2488 C2486 1.389 . S
C2488 C2489 1.524 . S
C2488 C2502 1.377 . S
C2489 C2488 1.524 . S
C2489 C2490 1.397 . S
C2489 C2494 1.363 . S
C2490 H2467 0.950 . S
C2490 C2489 1.397 . S
C2490 C2491 1.334 . S
C2491 H2468 0.950 . S
C2491 C2490 1.334 . S
C2491 C2492 1.287 1_565 S
C2492 C2491 1.287 1_545 S
C2492 C2493 1.524 . S
C2492 H2511 0.913 . S
C2493 H2469 0.950 . S
C2493 C2492 1.524 . S
C2493 C2494 1.415 1_545 S
C2494 H2470 0.950 . S
C2494 C2489 1.363 . S
C2494 C2493 1.415 1_565 S
C2495 H2471 0.951 . S
C2495 C2496 1.366 . S
C2495 C2497 1.388 . S
C2496 C2495 1.366 . S
C2496 C2500 1.385 . S
C2497 H2472 0.951 . S
C2497 C2495 1.388 . S
C2497 C2498 1.366 . S
C2498 C2497 1.366 . S
C2498 C2499 1.414 . S
C2498 C2501 1.499 . S
C2499 H2473 0.950 . S
C2499 C2498 1.414 . S
C2499 C2500 1.374 . S
C2500 H2474 0.950 . S
C2500 C2496 1.385 . S
C2500 C2499 1.374 . S
C2501 C2498 1.499 . S
C2501 C2502 1.373 . S
C2501 C2503 1.389 . S
C2502 H2475 0.950 . S
C2502 C2488 1.377 . S
C2502 C2501 1.373 . S
C2503 C2487 1.377 . S
C2503 C2501 1.389 . S
C2503 C2504 1.524 . S
C2504 C2503 1.524 . S
C2504 C2505 1.397 . S
C2504 C2509 1.363 . S
C2505 H2476 0.950 . S
C2505 C2504 1.397 . S
C2505 C2506 1.334 . S
C2506 H2477 0.950 . S
C2506 C2505 1.334 . S
C2506 C2507 1.287 . S
C2507 C2506 1.287 . S
C2507 C2508 1.524 . S
C2507 H2510 0.999 . S
C2508 H2478 0.950 . S
C2508 C2507 1.524 . S
C2508 C2509 1.415 . S
C2509 H2479 0.950 . S
C2509 C2504 1.363 . S
C2509 C2508 1.415 . S
H2510 C2507 0.999 . S
H2511 C2492 0.913 . S
H2512 C2530 0.951 . S
H2513 C2532 0.951 . S
H2514 C2534 0.950 . S
H2515 C2535 0.950 . S
H2516 C2537 0.950 . S
H2517 C2540 0.950 . S
H2518 C2541 0.950 . S
H2519 C2543 0.950 . S
H2520 C2544 0.950 . S
H2521 C2545 0.951 . S
H2522 C2547 0.951 . S
H2523 C2549 0.950 . S
H2524 C2550 0.950 . S
H2525 C2552 0.950 . S
H2526 C2555 0.950 . S
H2527 C2556 0.950 . S
H2528 C2558 0.950 . S
H2529 C2559 0.950 . S
C2530 H2512 0.951 . S
C2530 C2531 1.366 . S
C2530 C2532 1.388 . S
C2531 C2530 1.366 . S
C2531 C2535 1.385 . S
C2532 H2513 0.951 . S
C2532 C2530 1.388 . S
C2532 C2533 1.366 . S
C2533 C2532 1.366 . S
C2533 C2534 1.414 . S
C2533 C2536 1.499 . S
C2534 H2514 0.950 . S
C2534 C2533 1.414 . S
C2534 C2535 1.374 . S
C2535 H2515 0.950 . S
C2535 C2531 1.385 . S
C2535 C2534 1.374 . S
C2536 C2533 1.499 . S
C2536 C2537 1.373 . S
C2536 C2538 1.389 . S
C2537 H2516 0.950 . S
C2537 C2536 1.373 . S
C2537 C2553 1.377 . S
C2538 C2536 1.389 . S
C2538 C2539 1.524 . S
C2538 C2552 1.377 . S
C2539 C2538 1.524 . S
C2539 C2540 1.397 . S
C2539 C2544 1.363 . S
C2540 H2517 0.950 . S
C2540 C2539 1.397 . S
C2540 C2541 1.334 . S
C2541 H2518 0.950 . S
C2541 C2540 1.334 . S
C2541 C2542 1.287 . S
C2542 C2541 1.287 . S
C2542 C2543 1.524 . S
C2542 H2561 0.913 . S
C2543 H2519 0.950 . S
C2543 C2542 1.524 . S
C2543 C2544 1.415 . S
C2544 H2520 0.950 . S
C2544 C2539 1.363 . S
C2544 C2543 1.415 . S
C2545 H2521 0.951 . S
C2545 C2546 1.366 . S
C2545 C2547 1.388 . S
C2546 C2545 1.366 . S
C2546 C2550 1.385 . S
C2547 H2522 0.951 . S
C2547 C2545 1.388 . S
C2547 C2548 1.366 . S
C2548 C2547 1.366 . S
C2548 C2549 1.414 . S
C2548 C2551 1.499 . S
C2549 H2523 0.950 . S
C2549 C2548 1.414 . S
C2549 C2550 1.374 . S
C2550 H2524 0.950 . S
C2550 C2546 1.385 . S
C2550 C2549 1.374 . S
C2551 C2548 1.499 . S
C2551 C2552 1.373 . S
C2551 C2553 1.389 . S
C2552 H2525 0.950 . S
C2552 C2538 1.377 . S
C2552 C2551 1.373 . S
C2553 C2537 1.377 . S
C2553 C2551 1.389 . S
C2553 C2554 1.524 . S
C2554 C2553 1.524 . S
C2554 C2555 1.397 . S
C2554 C2559 1.363 . S
C2555 H2526 0.950 . S
C2555 C2554 1.397 . S
C2555 C2556 1.334 . S
C2556 H2527 0.950 . S
C2556 C2555 1.334 . S
C2556 C2557 1.287 . S
C2557 C2556 1.287 . S
C2557 C2558 1.524 . S
C2557 H2560 0.999 . S
C2558 H2528 0.950 . S
C2558 C2557 1.524 . S
C2558 C2559 1.415 . S
C2559 H2529 0.950 . S
C2559 C2554 1.363 . S
C2559 C2558 1.415 . S
H2560 C2557 0.999 . S
H2561 C2542 0.913 . S
H2562 C2580 0.951 . S
H2563 C2582 0.951 . S
H2564 C2584 0.950 . S
H2565 C2585 0.950 . S
H2566 C2587 0.950 . S
H2567 C2590 0.950 . S
H2568 C2591 0.950 . S
H2569 C2593 0.950 . S
H2570 C2594 0.950 . S
H2571 C2595 0.951 . S
H2572 C2597 0.951 . S
H2573 C2599 0.950 . S
H2574 C2600 0.950 . S
H2575 C2602 0.950 . S
H2576 C2605 0.950 . S
H2577 C2606 0.950 . S
H2578 C2608 0.950 . S
H2579 C2609 0.950 . S
C2580 H2562 0.951 . S
C2580 C2581 1.366 . S
C2580 C2582 1.388 . S
C2581 C2580 1.366 . S
C2581 C2585 1.385 . S
C2582 H2563 0.951 . S
C2582 C2580 1.388 . S
C2582 C2583 1.366 . S
C2583 C2582 1.366 . S
C2583 C2584 1.414 . S
C2583 C2586 1.499 . S
C2584 H2564 0.950 . S
C2584 C2583 1.414 . S
C2584 C2585 1.374 . S
C2585 H2565 0.950 . S
C2585 C2581 1.385 . S
C2585 C2584 1.374 . S
C2586 C2583 1.499 . S
C2586 C2587 1.373 . S
C2586 C2588 1.389 . S
C2587 H2566 0.950 . S
C2587 C2586 1.373 . S
C2587 C2603 1.377 . S
C2588 C2586 1.389 . S
C2588 C2589 1.524 . S
C2588 C2602 1.377 . S
C2589 C2588 1.524 . S
C2589 C2590 1.397 . S
C2589 C2594 1.363 . S
C2590 H2567 0.950 . S
C2590 C2589 1.397 . S
C2590 C2591 1.334 . S
C2591 H2568 0.950 . S
C2591 C2590 1.334 . S
C2591 C2592 1.287 . S
C2592 C2591 1.287 . S
C2592 C2593 1.524 . S
C2592 H2611 0.913 . S
C2593 H2569 0.950 . S
C2593 C2592 1.524 . S
C2593 C2594 1.415 . S
C2594 H2570 0.950 . S
C2594 C2589 1.363 . S
C2594 C2593 1.415 . S
C2595 H2571 0.951 . S
C2595 C2596 1.366 . S
C2595 C2597 1.388 . S
C2596 C2595 1.366 . S
C2596 C2600 1.385 . S
C2597 H2572 0.951 . S
C2597 C2595 1.388 . S
C2597 C2598 1.366 . S
C2598 C2597 1.366 . S
C2598 C2599 1.414 . S
C2598 C2601 1.499 . S
C2599 H2573 0.950 . S
C2599 C2598 1.414 . S
C2599 C2600 1.374 . S
C2600 H2574 0.950 . S
C2600 C2596 1.385 . S
C2600 C2599 1.374 . S
C2601 C2598 1.499 . S
C2601 C2602 1.373 . S
C2601 C2603 1.389 . S
C2602 H2575 0.950 . S
C2602 C2588 1.377 . S
C2602 C2601 1.373 . S
C2603 C2587 1.377 . S
C2603 C2601 1.389 . S
C2603 C2604 1.524 . S
C2604 C2603 1.524 . S
C2604 C2605 1.397 . S
C2604 C2609 1.363 . S
C2605 H2576 0.950 . S
C2605 C2604 1.397 . S
C2605 C2606 1.334 . S
C2606 H2577 0.950 . S
C2606 C2605 1.334 . S
C2606 C2607 1.287 . S
C2607 C2606 1.287 . S
C2607 C2608 1.524 . S
C2607 H2610 0.999 . S
C2608 H2578 0.950 . S
C2608 C2607 1.524 . S
C2608 C2609 1.415 . S
C2609 H2579 0.950 . S
C2609 C2604 1.363 . S
C2609 C2608 1.415 . S
H2610 C2607 0.999 . S
H2611 C2592 0.913 . S
H2612 C2630 0.951 . S
H2613 C2632 0.951 . S
H2614 C2634 0.950 . S
H2615 C2635 0.950 . S
H2616 C2637 0.950 . S
H2617 C2640 0.950 . S
H2618 C2641 0.950 . S
H2619 C2643 0.950 . S
H2620 C2644 0.950 . S
H2621 C2645 0.951 . S
H2622 C2647 0.951 . S
H2623 C2649 0.950 . S
H2624 C2650 0.950 . S
H2625 C2652 0.950 . S
H2626 C2655 0.950 . S
H2627 C2656 0.950 1_565 S
H2628 C2658 0.950 . S
H2629 C2659 0.950 . S
C2630 H2612 0.951 . S
C2630 C2631 1.366 . S
C2630 C2632 1.388 . S
C2631 C2630 1.366 . S
C2631 C2635 1.385 . S
C2632 H2613 0.951 . S
C2632 C2630 1.388 . S
C2632 C2633 1.366 . S
C2633 C2632 1.366 . S
C2633 C2634 1.414 . S
C2633 C2636 1.499 . S
C2634 H2614 0.950 . S
C2634 C2633 1.414 . S
C2634 C2635 1.374 . S
C2635 H2615 0.950 . S
C2635 C2631 1.385 . S
C2635 C2634 1.374 . S
C2636 C2633 1.499 . S
C2636 C2637 1.373 . S
C2636 C2638 1.389 . S
C2637 H2616 0.950 . S
C2637 C2636 1.373 . S
C2637 C2653 1.377 . S
C2638 C2636 1.389 . S
C2638 C2639 1.524 . S
C2638 C2652 1.377 . S
C2639 C2638 1.524 . S
C2639 C2640 1.397 . S
C2639 C2644 1.363 . S
C2640 H2617 0.950 . S
C2640 C2639 1.397 . S
C2640 C2641 1.334 . S
C2641 H2618 0.950 . S
C2641 C2640 1.334 . S
C2641 C2642 1.287 . S
C2642 C2641 1.287 . S
C2642 C2643 1.524 . S
C2642 H2661 0.913 . S
C2643 H2619 0.950 . S
C2643 C2642 1.524 . S
C2643 C2644 1.415 . S
C2644 H2620 0.950 . S
C2644 C2639 1.363 . S
C2644 C2643 1.415 . S
C2645 H2621 0.951 . S
C2645 C2646 1.366 . S
C2645 C2647 1.388 . S
C2646 C2645 1.366 . S
C2646 C2650 1.385 . S
C2647 H2622 0.951 . S
C2647 C2645 1.388 . S
C2647 C2648 1.366 . S
C2648 C2647 1.366 . S
C2648 C2649 1.414 . S
C2648 C2651 1.499 . S
C2649 H2623 0.950 . S
C2649 C2648 1.414 . S
C2649 C2650 1.374 . S
C2650 H2624 0.950 . S
C2650 C2646 1.385 . S
C2650 C2649 1.374 . S
C2651 C2648 1.499 . S
C2651 C2652 1.373 . S
C2651 C2653 1.389 . S
C2652 H2625 0.950 . S
C2652 C2638 1.377 . S
C2652 C2651 1.373 . S
C2653 C2637 1.377 . S
C2653 C2651 1.389 . S
C2653 C2654 1.524 . S
C2654 C2653 1.524 . S
C2654 C2655 1.397 . S
C2654 C2659 1.363 . S
C2655 H2626 0.950 . S
C2655 C2654 1.397 . S
C2655 C2656 1.334 . S
C2656 H2627 0.950 1_545 S
C2656 C2655 1.334 . S
C2656 C2657 1.287 . S
C2657 C2656 1.287 . S
C2657 C2658 1.524 . S
C2657 H2660 0.999 . S
C2658 H2628 0.950 . S
C2658 C2657 1.524 . S
C2658 C2659 1.415 . S
C2659 H2629 0.950 . S
C2659 C2654 1.363 . S
C2659 C2658 1.415 . S
H2660 C2657 0.999 . S
H2661 C2642 0.913 . S
H2662 C2680 0.951 . S
H2663 C2682 0.951 . S
H2664 C2684 0.950 . S
H2665 C2685 0.950 . S
H2666 C2687 0.950 . S
H2667 C2690 0.950 . S
H2668 C2691 0.950 . S
H2669 C2693 0.950 . S
H2670 C2694 0.950 . S
H2671 C2695 0.951 . S
H2672 C2697 0.951 . S
H2673 C2699 0.950 . S
H2674 C2700 0.950 . S
H2675 C2702 0.950 . S
H2676 C2705 0.950 . S
H2677 C2706 0.950 . S
H2678 C2708 0.950 . S
H2679 C2709 0.950 . S
C2680 H2662 0.951 . S
C2680 C2681 1.366 . S
C2680 C2682 1.388 . S
C2681 C2680 1.366 . S
C2681 C2685 1.385 . S
C2682 H2663 0.951 . S
C2682 C2680 1.388 . S
C2682 C2683 1.366 . S
C2683 C2682 1.366 . S
C2683 C2684 1.414 . S
C2683 C2686 1.499 . S
C2684 H2664 0.950 . S
C2684 C2683 1.414 . S
C2684 C2685 1.374 . S
C2685 H2665 0.950 . S
C2685 C2681 1.385 . S
C2685 C2684 1.374 . S
C2686 C2683 1.499 . S
C2686 C2687 1.373 . S
C2686 C2688 1.389 . S
C2687 H2666 0.950 . S
C2687 C2686 1.373 . S
C2687 C2703 1.377 . S
C2688 C2686 1.389 . S
C2688 C2689 1.524 . S
C2688 C2702 1.377 . S
C2689 C2688 1.524 . S
C2689 C2690 1.397 . S
C2689 C2694 1.363 . S
C2690 H2667 0.950 . S
C2690 C2689 1.397 . S
C2690 C2691 1.334 . S
C2691 H2668 0.950 . S
C2691 C2690 1.334 . S
C2691 C2692 1.287 . S
C2692 C2691 1.287 . S
C2692 C2693 1.524 . S
C2692 H2711 0.913 . S
C2693 H2669 0.950 . S
C2693 C2692 1.524 . S
C2693 C2694 1.415 . S
C2694 H2670 0.950 . S
C2694 C2689 1.363 . S
C2694 C2693 1.415 . S
C2695 H2671 0.951 . S
C2695 C2696 1.366 . S
C2695 C2697 1.388 . S
C2696 C2695 1.366 . S
C2696 C2700 1.385 . S
C2697 H2672 0.951 . S
C2697 C2695 1.388 . S
C2697 C2698 1.366 . S
C2698 C2697 1.366 . S
C2698 C2699 1.414 . S
C2698 C2701 1.499 . S
C2699 H2673 0.950 . S
C2699 C2698 1.414 . S
C2699 C2700 1.374 . S
C2700 H2674 0.950 . S
C2700 C2696 1.385 . S
C2700 C2699 1.374 . S
C2701 C2698 1.499 . S
C2701 C2702 1.373 . S
C2701 C2703 1.389 . S
C2702 H2675 0.950 . S
C2702 C2688 1.377 . S
C2702 C2701 1.373 . S
C2703 C2687 1.377 . S
C2703 C2701 1.389 . S
C2703 C2704 1.524 . S
C2704 C2703 1.524 . S
C2704 C2705 1.397 . S
C2704 C2709 1.363 . S
C2705 H2676 0.950 . S
C2705 C2704 1.397 . S
C2705 C2706 1.334 . S
C2706 H2677 0.950 . S
C2706 C2705 1.334 . S
C2706 C2707 1.287 . S
C2707 C2706 1.287 . S
C2707 C2708 1.524 . S
C2707 H2710 0.999 . S
C2708 H2678 0.950 . S
C2708 C2707 1.524 . S
C2708 C2709 1.415 . S
C2709 H2679 0.950 . S
C2709 C2704 1.363 . S
C2709 C2708 1.415 . S
H2710 C2707 0.999 . S
H2711 C2692 0.913 . S
C331 C199 1.335 . S
C346 C10 1.336 . S
C381 C17 1.335 . S
C396 C212 1.336 . S
C431 C36 1.335 . S
C446 C231 1.336 . S
C481 C43 1.336 . S
C496 C166 1.336 . S
C531 C179 1.336 . S
C546 C62 1.336 . S
C581 C75 1.336 . S
C596 C186 1.336 . S
C631 C277 1.336 . S
C646 C88 1.336 . S
C681 C95 1.335 . S
C696 C296 1.336 . S
C731 C108 1.336 . S
C746 C309 1.336 . S
C781 C238 1.336 . S
C796 C121 1.336 . S
C831 C134 1.335 . S
C846 C257 1.336 . S
C881 C270 1.335 . S
C896 C153 1.336 . S
C931 C4 1.728 . S
C946 C303 1.728 . S
C981 C244 1.728 . S
C996 C23 1.728 . S
C1031 C30 1.728 . S
C1046 C251 1.728 . S
C1081 C264 1.728 . S
C1096 C49 1.728 . S
C1131 C56 1.728 . S
C1146 C283 1.728 . S
C1181 C290 1.728 . S
C1196 C69 1.728 . S
C1231 C82 1.728 . S
C1246 C173 1.728 . S
C1281 C192 1.728 . S
C1296 C101 1.728 . S
C1331 C205 1.728 . S
C1346 C114 1.728 . S
C1381 C218 1.728 . S
C1396 C127 1.728 . S
C1431 C140 1.728 . S
C1446 C225 1.728 . S
C1481 C147 1.728 . S
C1496 C160 1.728 . S
C1531 C96 1.206 . S
C1546 C3 1.206 . S
C1581 C109 1.206 . S
C1596 C18 1.206 . S
C1631 C122 1.206 . S
C1646 C29 1.206 . S
C1681 C135 1.206 . S
C1696 C44 1.206 . S
C1731 C55 1.206 . S
C1746 C146 1.206 . S
C1781 C68 1.206 . S
C1796 C81 1.206 . S
C1831 C159 1.206 . S
C1846 C250 1.206 . S
C1881 C172 1.206 . S
C1896 C263 1.206 . S
C1931 C278 1.206 . S
C1946 C187 1.206 . S
C1981 C289 1.206 . S
C1996 C200 1.206 . S
C2031 C302 1.206 . S
C2046 C213 1.206 . S
C2081 C239 1.206 . S
C2096 C224 1.206 . S
C2131 C5 1.785 . S
C2146 C252 1.785 . S
C2181 C265 1.785 . S
C2196 C16 1.785 . S
C2231 C31 1.785 . S
C2246 C276 1.785 . S
C2281 C291 1.785 . S
C2296 C42 1.785 . S
C2331 C57 1.785 . S
C2346 C304 1.785 . S
C2381 C237 1.785 . S
C2396 C70 1.785 . S
C2431 C83 1.785 . S
C2446 C226 1.785 . S
C2481 C161 1.785 . S
C2496 C94 1.785 . S
C2531 C107 1.785 . S
C2546 C174 1.785 . S
C2581 C120 1.785 . S
C2596 C185 1.784 . S
C2631 C133 1.785 . S
C2646 C198 1.785 . S
C2681 C148 1.785 . S
C2696 C211 1.785 . S
