# Generated by pormake.
# Topology lcy-e, (6)-cn, num edge types: 1
# Building blocks:
#     Node 0, Type 0, BuildingBlock: PAMTOO_clean_sbu_0, # of connection points: 6
#     Node 1, Type 0, BuildingBlock: PAMTOO_clean_sbu_0, # of connection points: 6
#     Node 2, Type 0, BuildingBlock: PAMTOO_clean_sbu_0, # of connection points: 6
#     Node 3, Type 0, BuildingBlock: PAMTOO_clean_sbu_0, # of connection points: 6
#     Node 4, Type 0, BuildingBlock: PAMTOO_clean_sbu_0, # of connection points: 6
#     Node 5, Type 0, BuildingBlock: PAMTOO_clean_sbu_0, # of connection points: 6
#     Node 6, Type 0, BuildingBlock: PAMTOO_clean_sbu_0, # of connection points: 6
#     Node 7, Type 0, BuildingBlock: PAMTOO_clean_sbu_0, # of connection points: 6
#     Node 8, Type 0, BuildingBlock: PAMTOO_clean_sbu_0, # of connection points: 6
#     Node 9, Type 0, BuildingBlock: PAMTOO_clean_sbu_0, # of connection points: 6
#     Node 10, Type 0, BuildingBlock: PAMTOO_clean_sbu_0, # of connection points: 6
#     Node 11, Type 0, BuildingBlock: PAMTOO_clean_sbu_0, # of connection points: 6
#     Edge 12, Type (0, 0), BuildingBlock: CIFDUS_clean_linker_0, # of connection points: 2
#     Edge 13, Type (0, 0), BuildingBlock: CIFDUS_clean_linker_0, # of connection points: 2
#     Edge 14, Type (0, 0), BuildingBlock: CIFDUS_clean_linker_0, # of connection points: 2
#     Edge 15, Type (0, 0), BuildingBlock: CIFDUS_clean_linker_0, # of connection points: 2
#     Edge 16, Type (0, 0), BuildingBlock: CIFDUS_clean_linker_0, # of connection points: 2
#     Edge 17, Type (0, 0), BuildingBlock: CIFDUS_clean_linker_0, # of connection points: 2
#     Edge 18, Type (0, 0), BuildingBlock: CIFDUS_clean_linker_0, # of connection points: 2
#     Edge 19, Type (0, 0), BuildingBlock: CIFDUS_clean_linker_0, # of connection points: 2
#     Edge 20, Type (0, 0), BuildingBlock: CIFDUS_clean_linker_0, # of connection points: 2
#     Edge 21, Type (0, 0), BuildingBlock: CIFDUS_clean_linker_0, # of connection points: 2
#     Edge 22, Type (0, 0), BuildingBlock: CIFDUS_clean_linker_0, # of connection points: 2
#     Edge 23, Type (0, 0), BuildingBlock: CIFDUS_clean_linker_0, # of connection points: 2
#     Edge 24, Type (0, 0), BuildingBlock: CIFDUS_clean_linker_0, # of connection points: 2
#     Edge 25, Type (0, 0), BuildingBlock: CIFDUS_clean_linker_0, # of connection points: 2
#     Edge 26, Type (0, 0), BuildingBlock: CIFDUS_clean_linker_0, # of connection points: 2
#     Edge 27, Type (0, 0), BuildingBlock: CIFDUS_clean_linker_0, # of connection points: 2
#     Edge 28, Type (0, 0), BuildingBlock: CIFDUS_clean_linker_0, # of connection points: 2
#     Edge 29, Type (0, 0), BuildingBlock: CIFDUS_clean_linker_0, # of connection points: 2
#     Edge 30, Type (0, 0), BuildingBlock: CIFDUS_clean_linker_0, # of connection points: 2
#     Edge 31, Type (0, 0), BuildingBlock: CIFDUS_clean_linker_0, # of connection points: 2
#     Edge 32, Type (0, 0), BuildingBlock: CIFDUS_clean_linker_0, # of connection points: 2
#     Edge 33, Type (0, 0), BuildingBlock: CIFDUS_clean_linker_0, # of connection points: 2
#     Edge 34, Type (0, 0), BuildingBlock: CIFDUS_clean_linker_0, # of connection points: 2
#     Edge 35, Type (0, 0), BuildingBlock: CIFDUS_clean_linker_0, # of connection points: 2
#     Edge 36, Type (0, 0), BuildingBlock: CIFDUS_clean_linker_0, # of connection points: 2
#     Edge 37, Type (0, 0), BuildingBlock: CIFDUS_clean_linker_0, # of connection points: 2
#     Edge 38, Type (0, 0), BuildingBlock: CIFDUS_clean_linker_0, # of connection points: 2
#     Edge 39, Type (0, 0), BuildingBlock: CIFDUS_clean_linker_0, # of connection points: 2
#     Edge 40, Type (0, 0), BuildingBlock: CIFDUS_clean_linker_0, # of connection points: 2
#     Edge 41, Type (0, 0), BuildingBlock: CIFDUS_clean_linker_0, # of connection points: 2
#     Edge 42, Type (0, 0), BuildingBlock: CIFDUS_clean_linker_0, # of connection points: 2
#     Edge 43, Type (0, 0), BuildingBlock: CIFDUS_clean_linker_0, # of connection points: 2
#     Edge 44, Type (0, 0), BuildingBlock: CIFDUS_clean_linker_0, # of connection points: 2
#     Edge 45, Type (0, 0), BuildingBlock: CIFDUS_clean_linker_0, # of connection points: 2
#     Edge 46, Type (0, 0), BuildingBlock: CIFDUS_clean_linker_0, # of connection points: 2
#     Edge 47, Type (0, 0), BuildingBlock: CIFDUS_clean_linker_0, # of connection points: 2
# Relax obj value: 0.148
# Max RMSD: 0.308
# Mean RMSD: 0.289
data_MOF--net-lcy-e--node1-PAMTOO_clean_sbu_0--edge1-CIFDUS_clean_linker_0
_symmetry_space_group_name_H-M    P1
_symmetry_Int_Tables_number       1
_symmetry_cell_setting            triclinic
loop_
_symmetry_equiv_pos_as_xyz
'x, y, z'
_cell_length_a     40.115919
_cell_length_b     39.19365
_cell_length_c     40.822588
_cell_angle_alpha  89.921905
_cell_angle_beta   89.89469
_cell_angle_gamma 89.4415
loop_
_atom_site_label
_atom_site_type_symbol
_atom_site_fract_x
_atom_site_fract_y
_atom_site_fract_z
_atom_type_partial_charge
Dy0 Dy 0.11691 0.28114 0.45617 0.0
Dy1 Dy 0.14347 0.22273 0.50844 0.0
C2 C 0.18203 0.23561 0.4433 0.0
O3 O 0.07609 0.24393 0.46178 0.0
O4 O 0.1095 0.19784 0.47199 0.0
O5 O 0.0969 0.29064 0.40781 0.0
O6 O 0.10614 0.3328 0.44077 0.0
O7 O 0.09585 0.2419 0.52896 0.0
O8 O 0.09462 0.29508 0.50518 0.0
O9 O 0.16469 0.27285 0.52531 0.0
O10 O 0.163 0.30311 0.47695 0.0
O11 O 0.15037 0.20277 0.55747 0.0
O12 O 0.1662 0.17314 0.51533 0.0
C13 C 0.08103 0.2109 0.46184 0.0
O14 O 0.15367 0.24633 0.43072 0.0
O15 O 0.18563 0.23275 0.47498 0.0
C16 C 0.11672 0.34151 0.38401 0.0
C17 C 0.15001 0.37451 0.33195 0.0
C18 C 0.16156 0.37757 0.36432 0.0
C19 C 0.1452 0.36113 0.39006 0.0
C20 C 0.10528 0.33824 0.35169 0.0
C21 C 0.12184 0.35445 0.32587 0.0
C22 C 0.09917 0.32366 0.41082 0.0
C23 C 0.08676 0.27407 0.5292 0.0
C24 C 0.17251 0.29986 0.50753 0.0
C25 C 0.14421 0.143 0.56054 0.0
C26 C 0.11183 0.08596 0.58803 0.0
C27 C 0.10186 0.09899 0.55742 0.0
C28 C 0.11777 0.1274 0.54388 0.0
C29 C 0.15439 0.12988 0.59088 0.0
C30 C 0.13836 0.10168 0.60452 0.0
C31 C 0.16098 0.1732 0.5469 0.0
H32 H 0.18341 0.39258 0.36971 0.0
H33 H 0.15491 0.3638 0.41466 0.0
H34 H 0.08346 0.32314 0.34641 0.0
H35 H 0.11217 0.35189 0.30125 0.0
H36 H 0.08132 0.08766 0.54428 0.0
H37 H 0.10929 0.13731 0.52051 0.0
H38 H 0.17471 0.14154 0.6041 0.0
H39 H 0.14688 0.09203 0.62797 0.0
Dy40 Dy 0.04124 0.89728 0.7646 0.0
Dy41 Dy 0.98886 0.87285 0.70771 0.0
C42 C 0.05746 0.83588 0.71618 0.0
O43 O 0.03261 0.94247 0.73335 0.0
O44 O 0.02255 0.91328 0.68628 0.0
O45 O 0.08895 0.9198 0.7754 0.0
O46 O 0.05714 0.90215 0.81486 0.0
O47 O 0.96361 0.91811 0.72913 0.0
O48 O 0.99103 0.91969 0.77876 0.0
O49 O 0.97187 0.84808 0.75496 0.0
O50 O 0.02186 0.84801 0.78228 0.0
O51 O 0.94029 0.86138 0.68815 0.0
O52 O 0.98437 0.8545 0.65796 0.0
C53 C 0.03178 0.94129 0.7014 0.0
O54 O 0.06878 0.86482 0.72769 0.0
O55 O 0.0254 0.8307 0.71459 0.0
C56 C 0.11559 0.89751 0.82238 0.0
C57 C 0.1713 0.86819 0.85449 0.0
C58 C 0.14579 0.84737 0.84227 0.0
C59 C 0.11811 0.86193 0.82633 0.0
C60 C 0.14142 0.91814 0.8336 0.0
C61 C 0.169 0.90369 0.84939 0.0
C62 C 0.0864 0.91378 0.80673 0.0
C63 C 0.96532 0.92773 0.75984 0.0
C64 C 0.99063 0.83896 0.78012 0.0
C65 C 0.9353 0.87317 0.63117 0.0
C66 C 0.90271 0.90522 0.57789 0.0
C67 C 0.89903 0.91805 0.60989 0.0
C68 C 0.91525 0.90229 0.63624 0.0
C69 C 0.93958 0.86075 0.59918 0.0
C70 C 0.92356 0.87669 0.57275 0.0
C71 C 0.95186 0.85543 0.65876 0.0
H72 H 0.14673 0.82 0.84588 0.0
H73 H 0.09851 0.84551 0.81751 0.0
H74 H 0.14013 0.94558 0.83043 0.0
H75 H 0.18848 0.92044 0.85787 0.0
H76 H 0.8834 0.94022 0.61456 0.0
H77 H 0.91183 0.91275 0.66058 0.0
H78 H 0.95505 0.83842 0.59468 0.0
H79 H 0.92665 0.86605 0.54845 0.0
Dy80 Dy 0.39536 0.73396 0.95352 0.0
Dy81 Dy 0.37115 0.79598 1.0033 0.0
C82 C 0.33057 0.77972 0.93828 0.0
O83 O 0.41103 0.78359 0.93243 0.0
O84 O 0.42021 0.81048 0.98079 0.0
O85 O 0.42949 0.7131 0.91719 0.0
O86 O 0.38628 0.68451 0.93285 0.0
O87 O 0.40671 0.76683 0.03351 0.0
O88 O 0.43261 0.73153 0.99568 0.0
O89 O 0.33624 0.75127 0.01157 0.0
O90 O 0.37459 0.71032 0.99773 0.0
O91 O 0.35822 0.81757 0.05063 0.0
O92 O 0.35579 0.84868 1.00692 0.0
C93 C 0.4265 0.80687 0.9494 0.0
O94 O 0.34371 0.74889 0.93675 0.0
O95 O 0.34331 0.80322 0.95705 0.0
C96 C 0.40376 0.67627 0.87859 0.0
C97 C 0.38433 0.65172 0.81641 0.0
C98 C 0.36974 0.68161 0.82947 0.0
C99 C 0.37935 0.69376 0.86032 0.0
C100 C 0.41883 0.64699 0.86542 0.0
C101 C 0.40926 0.63482 0.8347 0.0
C102 C 0.41135 0.68601 0.91259 0.0
C103 C 0.42925 0.74379 0.02585 0.0
C104 C 0.34674 0.71916 0.01205 0.0
C105 C 0.37178 0.87605 0.05558 0.0
C106 C 0.40381 0.93116 0.08665 0.0
C107 C 0.4207 0.91154 0.06288 0.0
C108 C 0.40485 0.88415 0.04756 0.0
C109 C 0.35485 0.89556 0.07914 0.0
C110 C 0.37067 0.92281 0.09453 0.0
C111 C 0.35423 0.84825 0.03878 0.0
H112 H 0.35075 0.69549 0.81598 0.0
H113 H 0.36723 0.71632 0.87024 0.0
H114 H 0.43738 0.6329 0.87935 0.0
H115 H 0.42067 0.61145 0.82581 0.0
H116 H 0.44631 0.91705 0.05649 0.0
H117 H 0.41835 0.86937 0.02936 0.0
H118 H 0.32925 0.88987 0.08546 0.0
H119 H 0.35678 0.93764 0.11239 0.0
Dy120 Dy 0.47186 0.11543 0.27223 0.0
Dy121 Dy 0.52776 0.135 0.21663 0.0
C122 C 0.4644 0.18118 0.22634 0.0
O123 O 0.47621 0.07131 0.23883 0.0
O124 O 0.4898 0.10078 0.19271 0.0
O125 O 0.42141 0.0987 0.28084 0.0
O126 O 0.45491 0.1068 0.32169 0.0
O127 O 0.54515 0.08602 0.23743 0.0
O128 O 0.5203 0.09049 0.28795 0.0
O129 O 0.54499 0.15816 0.26451 0.0
O130 O 0.4953 0.16159 0.29271 0.0
O131 O 0.57872 0.13817 0.19937 0.0
O132 O 0.53778 0.1558 0.16877 0.0
C133 C 0.47673 0.07385 0.20693 0.0
O134 O 0.44887 0.15421 0.2377 0.0
O135 O 0.49684 0.18128 0.22399 0.0
C136 C 0.39771 0.12073 0.32937 0.0
C137 C 0.34612 0.15716 0.36126 0.0
C138 C 0.33907 0.12762 0.34319 0.0
C139 C 0.36468 0.1095 0.3275 0.0
C140 C 0.40475 0.15066 0.34688 0.0
C141 C 0.37919 0.16859 0.36281 0.0
C142 C 0.42427 0.1012 0.31257 0.0
C143 C 0.54447 0.0791 0.26878 0.0
C144 C 0.52698 0.16887 0.28978 0.0
C145 C 0.58586 0.13394 0.14185 0.0
C146 C 0.6161 0.10997 0.08364 0.0
C147 C 0.58409 0.09891 0.09263 0.0
C148 C 0.56904 0.11085 0.12153 0.0
C149 C 0.61828 0.14373 0.13365 0.0
C150 C 0.63328 0.13184 0.10492 0.0
C151 C 0.56977 0.14968 0.17067 0.0
H152 H 0.31387 0.11803 0.34186 0.0
H153 H 0.3587 0.08657 0.31402 0.0
H154 H 0.42996 0.16018 0.34839 0.0
H155 H 0.38528 0.19146 0.37633 0.0
H156 H 0.5702 0.08214 0.07674 0.0
H157 H 0.54401 0.10276 0.12754 0.0
H158 H 0.63176 0.1613 0.14911 0.0
H159 H 0.65823 0.1403 0.09906 0.0
Dy160 Dy 0.65986 0.29651 0.47602 0.0
Dy161 Dy 0.63068 0.24136 0.52938 0.0
C162 C 0.59894 0.3147 0.52219 0.0
O163 O 0.68374 0.3076 0.52384 0.0
O164 O 0.68236 0.25444 0.54629 0.0
O165 O 0.67518 0.34854 0.46794 0.0
O166 O 0.67829 0.31191 0.42842 0.0
O167 O 0.65405 0.21167 0.48964 0.0
O168 O 0.69364 0.24972 0.47337 0.0
O169 O 0.5938 0.23867 0.48722 0.0
O170 O 0.62473 0.26576 0.44722 0.0
O171 O 0.62929 0.19056 0.54954 0.0
O172 O 0.60146 0.2311 0.57312 0.0
C173 C 0.69532 0.28502 0.54461 0.0
O174 O 0.60925 0.31528 0.49167 0.0
O175 O 0.61225 0.29318 0.54303 0.0
C176 C 0.66273 0.36916 0.41517 0.0
C177 C 0.62891 0.41864 0.37683 0.0
C178 C 0.65371 0.42839 0.39912 0.0
C179 C 0.67052 0.40388 0.41798 0.0
C180 C 0.63779 0.35933 0.39305 0.0
C181 C 0.6212 0.38382 0.37395 0.0
C182 C 0.67969 0.34404 0.43664 0.0
C183 C 0.68249 0.21813 0.47543 0.0
C184 C 0.59962 0.24665 0.45612 0.0
C185 C 0.62816 0.19027 0.60732 0.0
C186 C 0.65674 0.16863 0.66735 0.0
C187 C 0.67696 0.17518 0.63987 0.0
C188 C 0.66287 0.18606 0.61029 0.0
C189 C 0.60794 0.18464 0.63478 0.0
C190 C 0.62205 0.17409 0.66452 0.0
C191 C 0.61297 0.19999 0.57564 0.0
H192 H 0.66047 0.45495 0.40164 0.0
H193 H 0.68952 0.41207 0.435 0.0
H194 H 0.63089 0.3328 0.39067 0.0
H195 H 0.60198 0.37554 0.35722 0.0
H196 H 0.70365 0.17096 0.64083 0.0
H197 H 0.67914 0.19057 0.58956 0.0
H198 H 0.58116 0.1881 0.63315 0.0
H199 H 0.60569 0.17007 0.68526 0.0
Dy200 Dy 0.98364 0.39136 0.72578 0.0
Dy201 Dy 0.03866 0.36424 0.78073 0.0
C202 C 0.96859 0.32952 0.77462 0.0
O203 O 0.99081 0.43465 0.7597 0.0
O204 O 1.00437 0.40263 0.80459 0.0
O205 O 0.93534 0.41344 0.71522 0.0
O206 O 0.9682 0.39841 0.67539 0.0
O207 O 0.06146 0.41095 0.75992 0.0
O208 O 0.03335 0.41289 0.71075 0.0
O209 O 0.05316 0.34027 0.73246 0.0
O210 O 1.00133 0.34082 0.70891 0.0
O211 O 0.08854 0.3526 0.79755 0.0
O212 O 0.0464 0.345 0.82987 0.0
C213 C 0.99308 0.43114 0.79149 0.0
O214 O 0.95702 0.35829 0.76224 0.0
O215 O 1.00074 0.32355 0.77643 0.0
C216 C 0.91011 0.39304 0.66641 0.0
C217 C 0.85406 0.36712 0.63288 0.0
C218 C 0.85991 0.35838 0.66585 0.0
C219 C 0.8877 0.37122 0.68248 0.0
C220 C 0.90495 0.40074 0.63329 0.0
C221 C 0.87736 0.38789 0.61668 0.0
C222 C 0.9384 0.40888 0.68367 0.0
C223 C 0.05908 0.42092 0.7293 0.0
C224 C 0.03272 0.33154 0.7087 0.0
C225 C 0.09601 0.36475 0.85425 0.0
C226 C 0.12848 0.39884 0.9061 0.0
C227 C 0.13289 0.40944 0.87344 0.0
C228 C 0.11675 0.3927 0.84781 0.0
C229 C 0.09128 0.35436 0.88687 0.0
C230 C 0.10723 0.37131 0.91255 0.0
C231 C 0.07876 0.34654 0.8275 0.0
H232 H 0.84247 0.34257 0.6791 0.0
H233 H 0.89128 0.36461 0.70801 0.0
H234 H 0.92206 0.41722 0.62032 0.0
H235 H 0.8741 0.39455 0.59112 0.0
H236 H 0.14883 0.43079 0.8677 0.0
H237 H 0.12061 0.40163 0.82298 0.0
H238 H 0.07534 0.33297 0.89248 0.0
H239 H 0.10358 0.36231 0.93739 0.0
Dy240 Dy 0.87199 0.71852 0.97161 0.0
Dy241 Dy 0.8963 0.77302 0.02721 0.0
C242 C 0.93443 0.70423 0.0175 0.0
O243 O 0.82829 0.7276 1.00355 0.0
O244 O 0.85814 0.73795 0.04977 0.0
O245 O 0.854 0.66773 0.96149 0.0
O246 O 0.86144 0.70379 0.92189 0.0
O247 O 0.85192 0.79855 1.0057 0.0
O248 O 0.8516 0.76987 0.95653 0.0
O249 O 0.91988 0.79028 0.97961 0.0
O250 O 0.91885 0.73934 0.95156 0.0
O251 O 0.90366 0.82288 0.04837 0.0
O252 O 0.91923 0.77743 0.07481 0.0
C253 C 0.83018 0.7292 0.03542 0.0
O254 O 0.90628 0.69138 1.00703 0.0
O255 O 0.93825 0.73722 0.01838 0.0
C256 C 0.87411 0.64555 0.91121 0.0
C257 C 0.90838 0.59419 0.87582 0.0
C258 C 0.88306 0.5856 0.89812 0.0
C259 C 0.86599 0.61107 0.91553 0.0
C260 C 0.89975 0.65412 0.88922 0.0
C261 C 0.9166 0.6287 0.87165 0.0
C262 C 0.8558 0.6721 0.92983 0.0
C263 C 0.84345 0.79651 0.97476 0.0
C264 C 0.92794 0.77128 0.95398 0.0
C265 C 0.89809 0.82289 0.10627 0.0
C266 C 0.86754 0.84513 0.16492 0.0
C267 C 0.84928 0.84404 0.13555 0.0
C268 C 0.86435 0.83284 0.10652 0.0
C269 C 0.91626 0.82363 0.13557 0.0
C270 C 0.90113 0.83456 0.16466 0.0
C271 C 0.91431 0.81033 0.07615 0.0
H272 H 0.87596 0.55924 0.90158 0.0
H273 H 0.84632 0.60383 0.9323 0.0
H274 H 0.90683 0.68044 0.8855 0.0
H275 H 0.93622 0.63604 0.85487 0.0
H276 H 0.82327 0.85172 0.13506 0.0
H277 H 0.84965 0.83193 0.08431 0.0
H278 H 0.94223 0.81576 0.13592 0.0
H279 H 0.91593 0.83546 0.1868 0.0
Dy280 Dy 0.4898 0.63716 0.27129 0.0
Dy281 Dy 0.54868 0.6146 0.21932 0.0
C282 C 0.54106 0.57687 0.28616 0.0
O283 O 0.52062 0.68303 0.26435 0.0
O284 O 0.5693 0.6548 0.25335 0.0
O285 O 0.47727 0.65909 0.31826 0.0
O286 O 0.43835 0.63907 0.28726 0.0
O287 O 0.52548 0.6598 0.19561 0.0
O288 O 0.47468 0.65954 0.22225 0.0
O289 O 0.50127 0.58958 0.20175 0.0
O290 O 0.47448 0.58735 0.25135 0.0
O291 O 0.57032 0.60712 0.17129 0.0
O292 O 0.5987 0.59412 0.21475 0.0
C293 C 0.55319 0.68229 0.26349 0.0
O294 O 0.52838 0.60543 0.29777 0.0
O295 O 0.54269 0.57197 0.25455 0.0
C296 C 0.43223 0.63224 0.34447 0.0
C297 C 0.4072 0.59823 0.40039 0.0
C298 C 0.43187 0.58276 0.38065 0.0
C299 C 0.44433 0.59966 0.35297 0.0
C300 C 0.40734 0.64751 0.36372 0.0
C301 C 0.39492 0.63071 0.39136 0.0
C302 C 0.44592 0.65085 0.31616 0.0
C303 C 0.49379 0.66827 0.19714 0.0
C304 C 0.47614 0.57953 0.22025 0.0
C305 C 0.62888 0.61595 0.16996 0.0
C306 C 0.68629 0.64898 0.14589 0.0
C307 C 0.65512 0.6658 0.14591 0.0
C308 C 0.62671 0.64952 0.15798 0.0
C309 C 0.65996 0.59924 0.17026 0.0
C310 C 0.6884 0.61559 0.15843 0.0
C311 C 0.59939 0.59825 0.18306 0.0
H312 H 0.44206 0.55793 0.38697 0.0
H313 H 0.46365 0.58748 0.3384 0.0
H314 H 0.39762 0.67258 0.35749 0.0
H315 H 0.37551 0.64313 0.4056 0.0
H316 H 0.65273 0.69165 0.13672 0.0
H317 H 0.60309 0.66316 0.15792 0.0
H318 H 0.66221 0.57342 0.17959 0.0
H319 H 0.71193 0.6018 0.15843 0.0
Dy320 Dy 0.2753 0.46473 0.10702 0.0
Dy321 Dy 0.2221 0.52352 0.13124 0.0
C322 C 0.22902 0.45502 0.16962 0.0
O323 O 0.24199 0.47492 0.06492 0.0
O324 O 0.19644 0.48834 0.09568 0.0
O325 O 0.2816 0.41498 0.08519 0.0
O326 O 0.32486 0.44325 0.1009 0.0
O327 O 0.24394 0.54506 0.08591 0.0
O328 O 0.29319 0.51456 0.08586 0.0
O329 O 0.27169 0.53804 0.1532 0.0
O330 O 0.29817 0.48564 0.15195 0.0
O331 O 0.20553 0.57555 0.13908 0.0
O332 O 0.17355 0.53336 0.15216 0.0
C333 C 0.20965 0.47742 0.06805 0.0
O334 O 0.23855 0.44104 0.14188 0.0
O335 O 0.22918 0.48814 0.17301 0.0
C336 C 0.32641 0.3835 0.10803 0.0
C337 C 0.35251 0.32625 0.14178 0.0
C338 C 0.3209 0.33957 0.14992 0.0
C339 C 0.30804 0.36809 0.13333 0.0
C340 C 0.35772 0.37003 0.09962 0.0
C341 C 0.37069 0.34173 0.11634 0.0
C342 C 0.31361 0.41399 0.09079 0.0
C343 C 0.27543 0.54189 0.07774 0.0
C344 C 0.29708 0.51779 0.16072 0.0
C345 C 0.14764 0.58365 0.13258 0.0
C346 C 0.09464 0.61872 0.1016 0.0
C347 C 0.10748 0.58829 0.08814 0.0
C348 C 0.13392 0.57097 0.10343 0.0
C349 C 0.13454 0.6136 0.14632 0.0
C350 C 0.10831 0.63099 0.131 0.0
C351 C 0.17591 0.56635 0.14866 0.0
H352 H 0.30647 0.32841 0.16958 0.0
H353 H 0.28389 0.37827 0.14046 0.0
H354 H 0.37227 0.38156 0.08022 0.0
H355 H 0.39496 0.33184 0.10926 0.0
H356 H 0.09767 0.57839 0.06539 0.0
H357 H 0.14386 0.54789 0.09237 0.0
H358 H 0.14477 0.6237 0.16882 0.0
H359 H 0.09869 0.65413 0.14219 0.0
Dy360 Dy 0.71865 0.99092 0.85755 0.0
Dy361 Dy 0.7673 0.05244 0.88329 0.0
C362 C 0.70045 0.03508 0.92083 0.0
O363 O 0.69727 0.04062 0.84152 0.0
O364 O 0.7462 0.06842 0.83452 0.0
O365 O 0.67938 0.97174 0.8263 0.0
O366 O 0.70099 0.9397 0.86409 0.0
O367 O 0.79858 0.02519 0.8471 0.0
O368 O 0.76079 0.99094 0.82021 0.0
O369 O 0.77439 1.00674 0.91708 0.0
O370 O 0.76448 0.96785 0.87712 0.0
O371 O 0.81418 0.07088 0.90232 0.0
O372 O 0.77238 0.10557 0.89572 0.0
C373 C 0.71481 0.06392 0.82658 0.0
O374 O 0.7016 1.00412 0.90857 0.0
O375 O 0.71871 0.05941 0.90851 0.0
C376 C 0.64402 0.93348 0.85473 0.0
C377 C 0.58478 0.90971 0.88417 0.0
C378 C 0.59841 0.94121 0.89348 0.0
C379 C 0.62778 0.95297 0.87891 0.0
C380 C 0.63014 0.90256 0.84476 0.0
C381 C 0.60079 0.89079 0.85928 0.0
C382 C 0.6772 0.94317 0.84265 0.0
C383 C 0.7912 1.00346 0.82385 0.0
C384 C 0.77673 0.97527 0.90573 0.0
C385 C 0.82626 0.1276 0.88693 0.0
C386 C 0.86906 0.17614 0.85839 0.0
C387 C 0.84187 0.16333 0.84068 0.0
C388 C 0.82074 0.13913 0.85476 0.0
C389 C 0.8533 0.14032 0.90464 0.0
C390 C 0.87454 0.16431 0.89052 0.0
C391 C 0.80403 0.10259 0.90246 0.0
H392 H 0.58659 0.95661 0.91229 0.0
H393 H 0.63832 0.97681 0.88714 0.0
H394 H 0.64259 0.88695 0.82649 0.0
H395 H 0.59137 0.86619 0.85183 0.0
H396 H 0.83723 0.17166 0.81577 0.0
H397 H 0.80012 0.12945 0.84054 0.0
H398 H 0.85792 0.13177 0.92949 0.0
H399 H 0.89505 0.17393 0.90492 0.0
Dy400 Dy 0.74892 0.96233 0.37692 0.0
Dy401 Dy 0.80084 0.02176 0.3524 0.0
C402 C 0.79126 0.95517 0.31146 0.0
O403 O 0.78417 0.97036 0.41769 0.0
O404 O 0.82845 0.98548 0.38602 0.0
O405 O 0.74365 0.91151 0.39654 0.0
O406 O 0.69968 0.94174 0.38506 0.0
O407 O 0.78128 0.04109 0.39959 0.0
O408 O 0.7319 0.01179 0.40056 0.0
O409 O 0.75015 0.03731 0.33329 0.0
O410 O 0.72443 0.985 0.3335 0.0
O411 O 0.81505 0.0741 0.34421 0.0
O412 O 0.84875 0.03273 0.33092 0.0
C413 C 0.8163 0.97367 0.41372 0.0
O414 O 0.78369 0.93975 0.33904 0.0
O415 O 0.79183 0.98841 0.30976 0.0
C416 C 0.69689 0.88232 0.37581 0.0
C417 C 0.66824 0.82639 0.34283 0.0
C418 C 0.69818 0.8407 0.33152 0.0
C419 C 0.71228 0.86854 0.34775 0.0
C420 C 0.66719 0.86801 0.38724 0.0
C421 C 0.65297 0.84038 0.37092 0.0
C422 C 0.71129 0.9117 0.39318 0.0
C423 C 0.75017 0.03834 0.40894 0.0
C424 C 0.72493 0.01743 0.3257 0.0
C425 C 0.8725 0.08403 0.34949 0.0
C426 C 0.92385 0.12149 0.37923 0.0
C427 C 0.91205 0.09144 0.39393 0.0
C428 C 0.88642 0.07292 0.37924 0.0
C429 C 0.88452 0.11363 0.33456 0.0
C430 C 0.90995 0.13221 0.34927 0.0
C431 C 0.84488 0.06567 0.33413 0.0
H432 H 0.71036 0.83077 0.30979 0.0
H433 H 0.73512 0.87937 0.33833 0.0
H434 H 0.65495 0.87825 0.40882 0.0
H435 H 0.63011 0.82973 0.3805 0.0
H436 H 0.92206 0.08273 0.41714 0.0
H437 H 0.87725 0.05017 0.39122 0.0
H438 H 0.87405 0.12254 0.3116 0.0
H439 H 0.91879 0.15501 0.33715 0.0
Dy440 Dy 0.24913 0.55116 0.60162 0.0
Dy441 Dy 0.30295 0.49308 0.62677 0.0
C442 C 0.29597 0.56432 0.66243 0.0
O443 O 0.29885 0.56399 0.58131 0.0
O444 O 0.32 0.51022 0.57679 0.0
O445 O 0.24187 0.60395 0.5878 0.0
O446 O 0.20082 0.56873 0.5847 0.0
O447 O 0.26085 0.46636 0.60418 0.0
O448 O 0.24578 0.50653 0.5664 0.0
O449 O 0.26027 0.48856 0.66327 0.0
O450 O 0.21981 0.52027 0.63632 0.0
O451 O 0.32292 0.44207 0.62315 0.0
O452 O 0.3463 0.47817 0.6556 0.0
C453 C 0.31941 0.54229 0.56755 0.0
O454 O 0.265 0.56621 0.65217 0.0
O455 O 0.31715 0.54298 0.64877 0.0
C456 C 0.18875 0.62588 0.60081 0.0
C457 C 0.15075 0.67576 0.63458 0.0
C458 C 0.1501 0.64134 0.64444 0.0
C459 C 0.16907 0.61667 0.62785 0.0
C460 C 0.18948 0.66018 0.59096 0.0
C461 C 0.17076 0.68492 0.60773 0.0
C462 C 0.20992 0.60059 0.5836 0.0
C463 C 0.24672 0.47446 0.57643 0.0
C464 C 0.22885 0.49872 0.65936 0.0
C465 C 0.38153 0.43727 0.62903 0.0
C466 C 0.44311 0.40946 0.60703 0.0
C467 C 0.4165 0.41459 0.58508 0.0
C468 C 0.38612 0.42843 0.59591 0.0
C469 C 0.40837 0.43341 0.65071 0.0
C470 C 0.43885 0.41984 0.63983 0.0
C471 C 0.34849 0.44828 0.6417 0.0
H472 H 0.13518 0.63356 0.66525 0.0
H473 H 0.16847 0.59046 0.6363 0.0
H474 H 0.2047 0.66788 0.57032 0.0
H475 H 0.17152 0.71113 0.59934 0.0
H476 H 0.4186 0.40666 0.55975 0.0
H477 H 0.36595 0.43125 0.57849 0.0
H478 H 0.40553 0.44018 0.67629 0.0
H479 H 0.45894 0.417 0.65733 0.0
H480 H 0.17868 0.36503 0.48423 0.0
H481 H 0.20525 0.30016 0.56599 0.0
H482 H 0.23042 0.34858 0.59363 0.0
H483 H 0.24329 0.40866 0.59554 0.0
H484 H 0.21645 0.47539 0.51532 0.0
H485 H 0.19264 0.42653 0.48604 0.0
C486 C 0.19031 0.36136 0.50795 0.0
C487 C 0.19018 0.32879 0.52296 0.0
C488 C 0.20433 0.38958 0.52403 0.0
C489 C 0.205 0.32475 0.55384 0.0
C490 C 0.21933 0.35248 0.56971 0.0
C491 C 0.23235 0.41289 0.57159 0.0
C492 C 0.23171 0.44592 0.55769 0.0
C493 C 0.21882 0.38495 0.55517 0.0
C494 C 0.21724 0.4504 0.52666 0.0
C495 C 0.20371 0.42243 0.50993 0.0
H496 H 0.85642 0.00992 0.83889 0.0
H497 H 0.79145 0.96458 0.76717 0.0
H498 H 0.84022 0.93886 0.73985 0.0
H499 H 0.90107 0.92732 0.73823 0.0
H500 H 0.9642 0.96975 0.8131 0.0
H501 H 0.91597 0.99872 0.83744 0.0
C502 C 0.85262 0.99478 0.81702 0.0
C503 C 0.82007 0.98952 0.80495 0.0
C504 C 0.88047 0.97941 0.80221 0.0
C505 C 0.81608 0.96924 0.77692 0.0
C506 C 0.84398 0.95448 0.76138 0.0
C507 C 0.90433 0.9432 0.75969 0.0
C508 C 0.93633 0.94656 0.77375 0.0
C509 C 0.87627 0.95911 0.77406 0.0
C510 C 0.93997 0.96674 0.80184 0.0
C511 C 0.91239 0.98331 0.81572 0.0
H512 H 0.36997 0.65576 0.02397 0.0
H513 H 0.28125 0.71811 0.03441 0.0
H514 H 0.25075 0.66797 0.05444 0.0
H515 H 0.24966 0.60612 0.06772 0.0
H516 H 0.3393 0.54534 0.0552 0.0
H517 H 0.36893 0.59553 0.03612 0.0
C518 C 0.34388 0.65875 0.03049 0.0
C519 C 0.32788 0.69085 0.02746 0.0
C520 C 0.32661 0.62995 0.04108 0.0
C521 C 0.29423 0.69386 0.03661 0.0
C522 C 0.27678 0.66511 0.04778 0.0
C523 C 0.27558 0.60371 0.06044 0.0
C524 C 0.29215 0.57173 0.06272 0.0
C525 C 0.2927 0.63293 0.04975 0.0
C526 C 0.32582 0.56936 0.05354 0.0
C527 C 0.34286 0.59814 0.04281 0.0
H528 H 0.60755 0.09252 0.2518 0.0
H529 H 0.54906 0.03167 0.3181 0.0
H530 H 0.60038 1.00618 0.34062 0.0
H531 H 0.66172 1.00165 0.34118 0.0
H532 H 0.71998 0.0668 0.27855 0.0
H533 H 0.66866 0.09049 0.25459 0.0
C534 C 0.60605 0.07345 0.27102 0.0
C535 C 0.57469 0.06335 0.28294 0.0
C536 C 0.6355 0.05991 0.28437 0.0
C537 C 0.57298 0.03949 0.30846 0.0
C538 C 0.60226 0.025 0.32124 0.0
C539 C 0.66311 0.02089 0.3221 0.0
C540 C 0.69445 0.03216 0.31111 0.0
C541 C 0.63361 0.03501 0.30931 0.0
C542 C 0.69609 0.05769 0.28712 0.0
C543 C 0.66681 0.07114 0.27348 0.0
H544 H 0.66077 0.15313 0.47265 0.0
H545 H 0.74565 0.21516 0.44792 0.0
H546 H 0.77489 0.16418 0.42714 0.0
H547 H 0.77547 0.10239 0.41525 0.0
H548 H 0.68933 0.0418 0.43919 0.0
H549 H 0.66152 0.0923 0.46169 0.0
C550 C 0.68575 0.15583 0.46283 0.0
C551 C 0.70098 0.18819 0.4619 0.0
C552 C 0.70219 0.12664 0.45105 0.0
C553 C 0.73327 0.19074 0.44886 0.0
C554 C 0.74999 0.16156 0.4371 0.0
C555 C 0.75076 0.10003 0.42578 0.0
C556 C 0.73459 0.0681 0.42571 0.0
C557 C 0.73462 0.12939 0.43808 0.0
C558 C 0.70242 0.06584 0.43904 0.0
C559 C 0.68646 0.09477 0.45177 0.0
H560 H 0.12433 0.42048 0.74863 0.0
H561 H 0.05725 0.46381 0.67682 0.0
H562 H 0.10376 0.49297 0.65067 0.0
H563 H 0.16289 0.50421 0.64668 0.0
H564 H 0.23194 0.45861 0.71539 0.0
H565 H 0.18499 0.43225 0.74446 0.0
C566 C 0.11986 0.43662 0.72746 0.0
C567 C 0.08722 0.44013 0.71478 0.0
C568 C 0.147 0.45269 0.71197 0.0
C569 C 0.08199 0.46066 0.68705 0.0
C570 C 0.10861 0.47733 0.67209 0.0
C571 C 0.16801 0.48879 0.66821 0.0
C572 C 0.20117 0.48366 0.67889 0.0
C573 C 0.14116 0.47323 0.68414 0.0
C574 C 0.20682 0.46313 0.70662 0.0
C575 C 0.17994 0.44804 0.72319 0.0
H576 H 0.78605 0.91137 0.8836 0.0
H577 H 0.79984 0.97325 0.9699 0.0
H578 H 0.82033 0.92256 0.99971 0.0
H579 H 0.83404 0.86052 1.00054 0.0
H580 H 0.81826 0.80067 0.91311 0.0
H581 H 0.79791 0.85116 0.88458 0.0
C582 C 0.79341 0.91418 0.909 0.0
C583 C 0.79134 0.94629 0.92449 0.0
C584 C 0.8044 0.88519 0.92583 0.0
C585 C 0.80132 0.94897 0.95733 0.0
C586 C 0.81282 0.91994 0.97436 0.0
C587 C 0.82575 0.85843 0.97537 0.0
C588 C 0.82762 0.82665 0.95903 0.0
C589 C 0.81428 0.88785 0.95883 0.0
C590 C 0.81707 0.82459 0.92634 0.0
C591 C 0.80556 0.85352 0.90992 0.0
H592 H 0.41234 0.59184 0.237 0.0
H593 H 0.47289 0.53284 0.17009 0.0
H594 H 0.42238 0.50734 0.14695 0.0
H595 H 0.36103 0.50237 0.14582 0.0
H596 H 0.30073 0.56585 0.20911 0.0
H597 H 0.3513 0.58925 0.23386 0.0
C598 C 0.41452 0.57316 0.21751 0.0
C599 C 0.44632 0.56367 0.20562 0.0
C600 C 0.38547 0.55958 0.2038 0.0
C601 C 0.44873 0.54028 0.17975 0.0
C602 C 0.41988 0.52575 0.1666 0.0
C603 C 0.35901 0.52114 0.16525 0.0
C604 C 0.32725 0.532 0.17614 0.0
C605 C 0.38814 0.53521 0.17849 0.0
C606 C 0.32489 0.55699 0.20059 0.0
C607 C 0.35377 0.5703 0.21467 0.0
H608 H 0.50536 0.17426 0.35304 0.0
H609 H 0.5854 0.20403 0.28845 0.0
H610 H 0.61354 0.23166 0.33417 0.0
H611 H 0.61643 0.24559 0.39198 0.0
H612 H 0.53878 0.21364 0.45837 0.0
H613 H 0.50853 0.18844 0.41212 0.0
C614 C 0.52881 0.18712 0.34887 0.0
C615 C 0.54315 0.1873 0.31717 0.0
C616 C 0.54527 0.20231 0.37552 0.0
C617 C 0.57379 0.20355 0.31243 0.0
C618 C 0.58989 0.21932 0.3386 0.0
C619 C 0.59272 0.23343 0.39663 0.0
C620 C 0.5798 0.23184 0.42884 0.0
C621 C 0.57598 0.21861 0.3702 0.0
C622 C 0.54929 0.21538 0.43398 0.0
C623 C 0.53204 0.20098 0.40751 0.0
H624 H 0.10276 0.25561 0.59065 0.0
H625 H 0.03809 0.32305 0.53583 0.0
H626 H 0.01443 0.34521 0.58718 0.0
H627 H 0.01318 0.34593 0.64731 0.0
H628 H 0.08198 0.28296 0.70217 0.0
H629 H 0.10328 0.25822 0.65087 0.0
C630 C 0.08322 0.27493 0.58997 0.0
C631 C 0.07163 0.28735 0.55961 0.0
C632 C 0.07073 0.28825 0.61947 0.0
C633 C 0.0471 0.31303 0.55896 0.0
C634 C 0.03366 0.32563 0.58825 0.0
C635 C 0.03262 0.32651 0.64805 0.0
C636 C 0.04567 0.31572 0.67841 0.0
C637 C 0.04537 0.31345 0.61859 0.0
C638 C 0.07147 0.29137 0.67907 0.0
C639 C 0.08358 0.27731 0.6498 0.0
H640 H 1.00601 0.85024 0.84332 0.0
H641 H 0.94158 0.79059 0.78187 0.0
H642 H 0.91783 0.76324 0.83069 0.0
H643 H 0.91521 0.757 0.8907 0.0
H644 H 0.97571 0.82083 0.95215 0.0
H645 H 1.00141 0.84609 0.90328 0.0
C646 C 0.98694 0.83103 0.84059 0.0
C647 C 0.9759 0.82193 0.80903 0.0
C648 C 0.97279 0.81636 0.86871 0.0
C649 C 0.95057 0.79777 0.80587 0.0
C650 C 0.93706 0.78219 0.83376 0.0
C651 C 0.93426 0.77625 0.89339 0.0
C652 C 0.94406 0.78669 0.92497 0.0
C653 C 0.948 0.79132 0.86526 0.0
C654 C 0.968 0.81228 0.92813 0.0
C655 C 0.98263 0.82666 0.90022 0.0
H656 H 0.51693 0.66885 0.1342 0.0
H657 H 0.43698 0.70715 0.19531 0.0
H658 H 0.41143 0.73469 0.14772 0.0
H659 H 0.41086 0.74648 0.08937 0.0
H660 H 0.48814 0.7059 0.02636 0.0
H661 H 0.51582 0.68041 0.0744 0.0
C662 C 0.49407 0.68353 0.13718 0.0
C663 C 0.47902 0.68622 0.16847 0.0
C664 C 0.47908 0.69866 0.10946 0.0
C665 C 0.44911 0.70474 0.17169 0.0
C666 C 0.43451 0.72048 0.14445 0.0
C667 C 0.43402 0.73244 0.08587 0.0
C668 C 0.44765 0.7286 0.05411 0.0
C669 C 0.44919 0.71743 0.1133 0.0
C670 C 0.47719 0.70948 0.05039 0.0
C671 C 0.49297 0.69493 0.07789 0.0
H672 H 0.1675 0.35071 0.27128 0.0
H673 H 0.16945 0.44074 0.33195 0.0
H674 H 0.19515 0.47289 0.28756 0.0
H675 H 0.21539 0.4761 0.23134 0.0
H676 H 0.21429 0.38663 0.16984 0.0
H677 H 0.19005 0.35353 0.21478 0.0
C678 C 0.17352 0.37738 0.27468 0.0
C679 C 0.16654 0.39332 0.30488 0.0
C680 C 0.18841 0.39578 0.24896 0.0
C681 C 0.17486 0.42778 0.3091 0.0
C682 C 0.18941 0.44623 0.28367 0.0
C683 C 0.20995 0.44933 0.22765 0.0
C684 C 0.21639 0.43397 0.19711 0.0
C685 C 0.19609 0.43057 0.25349 0.0
C686 C 0.2095 0.39914 0.19304 0.0
C687 C 0.19555 0.38023 0.21872 0.0
H688 H 0.92416 0.92141 0.51601 0.0
H689 H 0.837 0.92227 0.57817 0.0
H690 H 0.80334 0.94464 0.53327 0.0
H691 H 0.79798 0.96203 0.47635 0.0
H692 H 0.88422 0.96222 0.41303 0.0
H693 H 0.91901 0.94152 0.45845 0.0
C694 C 0.8978 0.92653 0.51963 0.0
C695 C 0.88312 0.92021 0.55044 0.0
C696 C 0.87846 0.93951 0.49356 0.0
C697 C 0.84901 0.92729 0.55489 0.0
C698 C 0.82969 0.9399 0.52916 0.0
C699 C 0.82441 0.9576 0.47233 0.0
C700 C 0.8384 0.96332 0.44118 0.0
C701 C 0.84408 0.94585 0.4984 0.0
C702 C 0.87279 0.95793 0.43671 0.0
C703 C 0.89265 0.946 0.46266 0.0
H704 H 0.35955 0.57437 0.68295 0.0
H705 H 0.2575 0.60134 0.70543 0.0
H706 H 0.27584 0.63213 0.75417 0.0
H707 H 0.32069 0.64844 0.79222 0.0
H708 H 0.42273 0.62245 0.76841 0.0
H709 H 0.40445 0.59407 0.7186 0.0
C710 C 0.34126 0.58711 0.69839 0.0
C711 C 0.30714 0.58526 0.6906 0.0
C712 C 0.35197 0.60477 0.72634 0.0
C713 C 0.28391 0.60227 0.71078 0.0
C714 C 0.29438 0.61983 0.73875 0.0
C715 C 0.33902 0.63711 0.77589 0.0
C716 C 0.37308 0.63733 0.78444 0.0
C717 C 0.32834 0.6209 0.74701 0.0
C718 C 0.39633 0.62212 0.76296 0.0
C719 C 0.38591 0.60599 0.73431 0.0
H720 H 0.61778 0.04742 0.05306 0.0
H721 H 0.64745 0.15234 0.0413 0.0
H722 H 0.67451 0.13847 0.98962 0.0
H723 H 0.69157 0.0969 0.9489 0.0
H724 H 0.66313 0.99148 0.959 0.0
H725 H 0.63324 1.00534 0.00985 0.0
C726 C 0.62994 0.06723 0.039 0.0
C727 C 0.63101 0.1008 0.05137 0.0
C728 C 0.64563 0.05905 1.00901 0.0
C729 C 0.64689 0.12618 0.03282 0.0
C730 C 0.66221 0.11833 1.00311 0.0
C731 C 0.67877 0.0768 0.96201 0.0
C732 C 0.67988 0.04311 0.95018 0.0
C733 C 0.66207 0.08486 0.99119 0.0
C734 C 0.66281 0.01763 0.96755 0.0
C735 C 0.64579 0.02554 0.99669 0.0
H736 H 0.63012 0.12143 0.70863 0.0
H737 H 0.71718 0.18393 0.69561 0.0
H738 H 0.74283 0.15772 0.74383 0.0
H739 H 0.74119 0.11551 0.78908 0.0
H740 H 0.65248 0.05529 0.80221 0.0
H741 H 0.6268 0.08283 0.75523 0.0
C742 C 0.65442 0.12997 0.71658 0.0
C743 C 0.67159 0.15462 0.6982 0.0
C744 C 0.66889 0.11514 0.74455 0.0
C745 C 0.70346 0.1646 0.7088 0.0
C746 C 0.71813 0.14976 0.73656 0.0
C747 C 0.71616 0.10862 0.78179 0.0
C748 C 0.699 0.08316 0.79922 0.0
C749 C 0.70122 0.1247 0.75449 0.0
C750 C 0.66648 0.07469 0.7894 0.0
C751 C 0.65166 0.0904 0.76239 0.0
H752 H 0.22992 0.46201 1.0065 0.0
H753 H 0.14195 0.46646 0.06741 0.0
H754 H 0.10875 0.44299 0.02253 0.0
H755 H 0.10539 0.41917 0.96634 0.0
H756 H 0.19411 0.41542 0.90644 0.0
H757 H 0.22628 0.44075 0.9506 0.0
C758 C 0.20344 0.45799 0.01008 0.0
C759 C 0.18854 0.46574 0.04046 0.0
C760 C 0.18465 0.4445 0.9843 0.0
C761 C 0.15411 0.46067 0.04435 0.0
C762 C 0.13514 0.44714 0.0187 0.0
C763 C 0.13177 0.42388 0.96304 0.0
C764 C 0.14731 0.41538 0.93307 0.0
C765 C 0.15024 0.43857 0.98867 0.0
C766 C 0.18143 0.42204 0.92904 0.0
C767 C 0.19991 0.43637 0.95436 0.0
H768 H 0.82006 0.89169 0.30628 0.0
H769 H 0.78109 0.97573 0.24916 0.0
H770 H 0.79922 0.94799 0.1988 0.0
H771 H 0.8297 0.90225 0.17107 0.0
H772 H 0.8713 0.81894 0.22718 0.0
H773 H 0.84887 0.84394 0.2777 0.0
C774 C 0.8152 0.90359 0.28275 0.0
C775 C 0.79945 0.93577 0.28145 0.0
C776 C 0.82649 0.88783 0.25369 0.0
C777 C 0.79348 0.95109 0.25083 0.0
C778 C 0.80382 0.93527 0.22198 0.0
C779 C 0.8334 0.88926 0.19428 0.0
C780 C 0.85212 0.85883 0.19537 0.0
C781 C 0.8209 0.90399 0.22314 0.0
C782 C 0.85721 0.84261 0.22575 0.0
C783 C 0.8443 0.85683 0.25462 0.0
H784 H 0.34299 0.50822 0.51329 0.0
H785 H 0.34386 0.60591 0.56188 0.0
H786 H 0.3727 0.63116 0.51543 0.0
H787 H 0.3942 0.62691 0.45965 0.0
H788 H 0.39161 0.53055 0.40891 0.0
H789 H 0.36753 0.50339 0.45744 0.0
C790 C 0.35006 0.53484 0.51385 0.0
C791 C 0.34116 0.55517 0.54097 0.0
C792 C 0.3661 0.54959 0.4865 0.0
C793 C 0.3502 0.58975 0.54123 0.0
C794 C 0.36666 0.60427 0.51463 0.0
C795 C 0.38825 0.59998 0.45908 0.0
C796 C 0.39437 0.58098 0.43046 0.0
C797 C 0.37401 0.58469 0.48684 0.0
C798 C 0.38728 0.54586 0.4306 0.0
C799 C 0.37334 0.53032 0.45833 0.0
H800 H 0.24598 0.22463 0.46137 0.0
H801 H 0.18081 0.22139 0.37746 0.0
H802 H 0.22632 0.19776 0.34412 0.0
H803 H 0.28398 0.1752 0.33985 0.0
H804 H 0.34831 0.17891 0.42436 0.0
H805 H 0.30371 0.20537 0.45644 0.0
C806 C 0.24167 0.2189 0.43574 0.0
C807 C 0.20993 0.2244 0.42201 0.0
C808 C 0.26779 0.20531 0.41688 0.0
C809 C 0.20498 0.21732 0.38865 0.0
C810 C 0.23096 0.20368 0.36963 0.0
C811 C 0.28815 0.18186 0.36529 0.0
C812 C 0.31934 0.17502 0.37977 0.0
C813 C 0.26232 0.19707 0.38365 0.0
C814 C 0.32463 0.18419 0.41259 0.0
C815 C 0.2991 0.19915 0.43099 0.0
H816 H 0.09101 0.08015 0.65086 0.0
H817 H 0.09308 0.02585 0.55914 0.0
H818 H 0.06668 0.97661 0.58529 0.0
H819 H 0.04553 0.94788 0.63544 0.0
H820 H 0.04425 1.00386 0.72658 0.0
H821 H 0.06777 0.05315 0.69948 0.0
C822 C 0.08582 0.05749 0.63659 0.0
C823 C 0.09436 0.05654 0.60322 0.0
C824 C 0.07078 0.0294 0.65175 0.0
C825 C 0.08672 0.02726 0.5849 0.0
C826 C 0.07174 0.99904 0.59988 0.0
C827 C 0.05013 0.97097 0.64925 0.0
C828 C 0.04336 0.97182 0.68313 0.0
C829 C 0.06396 0.99964 0.63345 0.0
C830 C 0.04944 1.0021 0.70058 0.0
C831 C 0.06295 0.03049 0.68512 0.0
H832 H 0.20855 0.80981 0.84301 0.0
H833 H 0.19688 0.89377 0.91065 0.0
H834 H 0.24437 0.87328 0.94208 0.0
H835 H 0.28973 0.83311 0.94998 0.0
H836 H 0.30292 0.74784 0.88436 0.0
H837 H 0.25394 0.76694 0.85282 0.0
C838 C 0.21628 0.8234 0.86478 0.0
C839 C 0.19942 0.85371 0.87406 0.0
C840 C 0.24383 0.81129 0.88309 0.0
C841 C 0.2098 0.87095 0.90239 0.0
C842 C 0.23687 0.85913 0.92056 0.0
C843 C 0.28212 0.81858 0.92871 0.0
C844 C 0.30029 0.78928 0.91933 0.0
C845 C 0.25424 0.82965 0.91094 0.0
C846 C 0.28946 0.77054 0.89208 0.0
C847 C 0.26151 0.78153 0.87402 0.0
H848 H 0.48109 0.06048 0.14053 0.0
H849 H 0.43748 0.02377 0.23068 0.0
H850 H 0.41191 0.977 0.20172 0.0
H851 H 0.40161 0.94584 0.15139 0.0
H852 H 0.44421 0.98065 0.06043 0.0
H853 H 0.4707 0.02819 0.08906 0.0
C854 C 0.46593 0.04228 0.15374 0.0
C855 C 0.46138 0.04584 0.18782 0.0
C856 C 0.45114 0.01484 0.13685 0.0
C857 C 0.44173 0.0218 0.20454 0.0
C858 C 0.42693 0.99491 0.188 0.0
C859 C 0.41642 0.96398 0.1377 0.0
C860 C 0.42066 0.95978 0.10379 0.0
C861 C 0.43143 0.99115 0.15423 0.0
C862 C 0.44065 0.98314 0.08662 0.0
C863 C 0.45567 0.01046 0.10296 0.0
H864 H 0.8227 0.30483 0.63472 0.0
H865 H 0.8151 0.40578 0.59266 0.0
H866 H 0.76555 0.3893 0.56266 0.0
H867 H 0.72504 0.34664 0.54734 0.0
H868 H 0.73069 0.24536 0.58872 0.0
H869 H 0.77993 0.26178 0.62038 0.0
C870 C 0.81002 0.32326 0.61919 0.0
C871 C 0.82306 0.35642 0.61567 0.0
C872 C 0.78114 0.31363 0.60191 0.0
C873 C 0.80626 0.3799 0.59532 0.0
C874 C 0.7777 0.37059 0.57828 0.0
C875 C 0.73685 0.328 0.56332 0.0
C876 C 0.72414 0.29471 0.56544 0.0
C877 C 0.76509 0.33752 0.58118 0.0
C878 C 0.73989 0.27115 0.5865 0.0
C879 C 0.76812 0.28053 0.60458 0.0
H880 H 0.97271 0.4942 0.77223 0.0
H881 H 0.98487 0.43111 0.85825 0.0
H882 H 0.96021 0.47623 0.89212 0.0
H883 H 0.93337 0.53301 0.89689 0.0
H884 H 0.92145 0.59535 0.81042 0.0
H885 H 0.94799 0.55108 0.77717 0.0
C886 C 0.97013 0.49025 0.79841 0.0
C887 C 0.98044 0.45916 0.81261 0.0
C888 C 0.95588 0.51617 0.81766 0.0
C889 C 0.97711 0.45474 0.84664 0.0
C890 C 0.96291 0.4805 0.86602 0.0
C891 C 0.93654 0.53679 0.87075 0.0
C892 C 0.92541 0.56739 0.85613 0.0
C893 C 0.95185 0.51117 0.85173 0.0
C894 C 0.93008 0.57218 0.82231 0.0
C895 C 0.94511 0.54682 0.80326 0.0
H896 H 0.82674 0.7028 0.09764 0.0
H897 H 0.7661 0.73448 0.01564 0.0
H898 H 0.71623 0.71443 0.04337 0.0
H899 H 0.69006 0.68438 0.08894 0.0
H900 H 0.74986 0.65036 0.17055 0.0
H901 H 0.79964 0.67454 0.14501 0.0
C902 C 0.80253 0.70568 0.08613 0.0
C903 C 0.80019 0.71995 0.05456 0.0
C904 C 0.77378 0.69333 0.10198 0.0
C905 C 0.76867 0.7233 0.0398 0.0
C906 C 0.74007 0.71184 0.05563 0.0
C907 C 0.71388 0.68273 0.10141 0.0
C908 C 0.71621 0.66557 0.13158 0.0
C909 C 0.74238 0.69628 0.08643 0.0
C910 C 0.74743 0.66314 0.14712 0.0
C911 C 0.77589 0.67707 0.13258 0.0
H912 H 0.60307 0.48049 0.39542 0.0
H913 H 0.61625 0.41497 0.31143 0.0
H914 H 0.58938 0.45762 0.27648 0.0
H915 H 0.56363 0.51382 0.26937 0.0
H916 H 0.54969 0.57992 0.35287 0.0
H917 H 0.57535 0.53671 0.38842 0.0
C918 C 0.60013 0.47565 0.36944 0.0
C919 C 0.61172 0.44458 0.35605 0.0
C920 C 0.58456 0.50035 0.34942 0.0
C921 C 0.6073 0.43848 0.32243 0.0
C922 C 0.59208 0.46293 0.30239 0.0
C923 C 0.56608 0.51888 0.29536 0.0
C924 C 0.55492 0.55026 0.30834 0.0
C925 C 0.58078 0.49399 0.31558 0.0
C926 C 0.55812 0.55608 0.34216 0.0
C927 C 0.57286 0.53139 0.3625 0.0
H928 H 0.41508 0.32049 0.16575 0.0
H929 H 0.3224 0.26626 0.15934 0.0
H930 H 0.34779 0.21698 0.18715 0.0
H931 H 0.39788 0.18805 0.21048 0.0
H932 H 0.49007 0.24383 0.21577 0.0
H933 H 0.46337 0.29343 0.19132 0.0
C934 C 0.40045 0.29783 0.17033 0.0
C935 C 0.36707 0.29688 0.16013 0.0
C936 C 0.41519 0.26973 0.18614 0.0
C937 C 0.34819 0.26764 0.16696 0.0
C938 C 0.36274 0.23941 0.18275 0.0
C939 C 0.41194 0.2112 0.20661 0.0
C940 C 0.44606 0.21193 0.21467 0.0
C941 C 0.39642 0.23997 0.19213 0.0
C942 C 0.46391 0.24223 0.20948 0.0
C943 C 0.44868 0.27076 0.19547 0.0
H944 H 0.98426 0.27138 0.80767 0.0
H945 H 0.90034 0.32902 0.77021 0.0
H946 H 0.86217 0.28629 0.79204 0.0
H947 H 0.85262 0.23298 0.82288 0.0
H948 H 0.93695 0.17617 0.86047 0.0
H949 H 0.97491 0.21827 0.83758 0.0
C950 C 0.95763 0.27464 0.80413 0.0
C951 C 0.94525 0.30346 0.7873 0.0
C952 C 0.93586 0.25014 0.81691 0.0
C953 C 0.91061 0.30719 0.78313 0.0
C954 C 0.88875 0.28273 0.79559 0.0
C955 C 0.87932 0.22969 0.82579 0.0
C956 C 0.89191 0.20151 0.84348 0.0
C957 C 0.90108 0.25415 0.81264 0.0
C958 C 0.92657 0.19783 0.84735 0.0
C959 C 0.94832 0.22182 0.83414 0.0
H960 H 0.03696 0.59506 0.07417 0.0
H961 H 0.09279 0.68702 0.09075 0.0
H962 H 0.04872 0.72091 0.06527 0.0
H963 H 0.99418 0.72493 0.03998 0.0
H964 H 0.93669 0.63409 0.02325 0.0
H965 H 0.98181 0.59917 0.04673 0.0
C966 C 0.03952 0.62247 0.07191 0.0
C967 C 0.068 0.63853 0.08466 0.0
C968 C 0.01387 0.64198 0.05726 0.0
C969 C 0.07091 0.6741 0.08169 0.0
C970 C 0.0458 0.6935 0.06697 0.0
C971 C 0.99136 0.69747 0.04128 0.0
C972 C 0.96193 0.68221 0.02996 0.0
C973 C 0.01709 0.67776 0.055 0.0
C974 C 0.95902 0.64654 0.03182 0.0
C975 C 0.9848 0.62658 0.0453 0.0
H976 H 0.60297 0.81909 0.3275 0.0
H977 H 0.69842 0.7685 0.31846 0.0
H978 H 0.67191 0.71988 0.29167 0.0
H979 H 0.62073 0.69057 0.2729 0.0
H980 H 0.5258 0.74269 0.2827 0.0
H981 H 0.55295 0.79143 0.30708 0.0
C982 C 0.61799 0.79735 0.31983 0.0
C983 C 0.65256 0.79733 0.3253 0.0
C984 C 0.60262 0.76956 0.30456 0.0
C985 C 0.67174 0.76925 0.31448 0.0
C986 C 0.65656 0.74136 0.29928 0.0
C987 C 0.60605 0.71268 0.28017 0.0
C988 C 0.57116 0.7126 0.2761 0.0
C989 C 0.62189 0.74105 0.29444 0.0
C990 C 0.55262 0.74166 0.28563 0.0
C991 C 0.56812 0.76973 0.29966 0.0
H992 H 0.56962 0.31558 0.58215 0.0
H993 H 0.56527 0.36422 0.48731 0.0
H994 H 0.51761 0.3989 0.50549 0.0
H995 H 0.47619 0.41423 0.54806 0.0
H996 H 0.47998 0.36296 0.64177 0.0
H997 H 0.52918 0.3311 0.62437 0.0
C998 C 0.55846 0.33388 0.5654 0.0
C999 C 0.57109 0.33718 0.53334 0.0
C1000 C 0.53094 0.35343 0.57588 0.0
C1001 C 0.55611 0.36106 0.5121 0.0
C1002 C 0.52881 0.38089 0.52249 0.0
C1003 C 0.48766 0.396 0.56466 0.0
C1004 C 0.47424 0.39131 0.59634 0.0
C1005 C 0.5158 0.37707 0.55426 0.0
C1006 C 0.48991 0.3678 0.61754 0.0
C1007 C 0.51797 0.34923 0.6075 0.0
H1008 H 0.16867 0.73957 0.65456 0.0
H1009 H 0.08569 0.67036 0.65269 0.0
H1010 H 0.05018 0.71329 0.67885 0.0
H1011 H 0.04205 0.77082 0.70044 0.0
H1012 H 0.1245 0.84067 0.70311 0.0
H1013 H 0.16091 0.79711 0.67853 0.0
C1014 C 0.14279 0.73398 0.65985 0.0
C1015 C 0.12983 0.70181 0.6516 0.0
C1016 C 0.12244 0.75885 0.675 0.0
C1017 C 0.09638 0.69475 0.65903 0.0
C1018 C 0.076 0.71935 0.67385 0.0
C1019 C 0.06801 0.77661 0.69575 0.0
C1020 C 0.08043 0.80912 0.70338 0.0
C1021 C 0.0887 0.75153 0.6817 0.0
C1022 C 0.11425 0.8159 0.69746 0.0
C1023 C 0.13505 0.79103 0.6833 0.0
H1024 H 0.47316 0.84872 0.97698 0.0
H1025 H 0.43765 0.81172 0.88387 0.0
H1026 H 0.48203 0.8417 0.85561 0.0
H1027 H 0.53249 0.87611 0.85708 0.0
H1028 H 0.56994 0.9117 0.94982 0.0
H1029 H 0.52306 0.88531 0.97817 0.0
C1030 C 0.47497 0.84749 0.9505 0.0
C1031 C 0.45215 0.82773 0.93269 0.0
C1032 C 0.50098 0.86458 0.9342 0.0
C1033 C 0.45494 0.82645 0.89834 0.0
C1034 C 0.48036 0.84363 0.88205 0.0
C1035 C 0.53051 0.87803 0.88351 0.0
C1036 C 0.55491 0.89575 0.90121 0.0
C1037 C 0.50383 0.8623 0.89973 0.0
C1038 C 0.55143 0.89854 0.93544 0.0
C1039 C 0.52472 0.8832 0.95175 0.0
H1040 H 0.9818 0.0995 0.40793 0.0
H1041 H 0.92406 0.19037 0.38679 0.0
H1042 H 0.96721 0.22559 0.41104 0.0
H1043 H 0.02149 0.23091 0.4369 0.0
H1044 H 0.08033 0.14082 0.45829 0.0
H1045 H 0.0364 0.10494 0.43559 0.0
C1046 C 0.9786 0.12699 0.40893 0.0
C1047 C 0.94987 0.14231 0.39532 0.0
C1048 C 1.00366 0.14721 0.42288 0.0
C1049 C 0.94616 0.17798 0.39658 0.0
C1050 C 0.97075 0.19814 0.41059 0.0
C1051 C 0.02481 0.20341 0.43676 0.0
C1052 C 0.05429 0.18864 0.4492 0.0
C1053 C 0.99967 0.18307 0.42354 0.0
C1054 C 0.05797 0.15292 0.44879 0.0
C1055 C 0.03284 0.13239 0.4358 0.0
loop_
_geom_bond_atom_site_label_1
_geom_bond_atom_site_label_2
_geom_bond_distance
_geom_bond_site_symmetry_2
_ccdc_geom_bond_type
Dy0 O3 2.307 . S
Dy0 O5 2.395 . S
Dy0 O6 2.379 . S
Dy0 O8 2.339 . S
Dy0 O10 2.298 . S
Dy0 O14 2.275 . S
Dy0 C22 2.738 . S
Dy1 O4 2.298 . S
Dy1 O7 2.275 . S
Dy1 O9 2.307 . S
Dy1 O11 2.395 . S
Dy1 O12 2.379 . S
Dy1 O15 2.339 . S
Dy1 C31 2.738 . S
C2 O14 1.254 . S
C2 O15 1.257 . S
O3 Dy0 2.307 . S
O3 C13 1.266 . S
O4 Dy1 2.298 . S
O4 C13 1.236 . S
O5 Dy0 2.395 . S
O5 C22 1.255 . S
O6 Dy0 2.379 . S
O6 C22 1.249 . S
O7 Dy1 2.275 . S
O7 C23 1.254 . S
O8 Dy0 2.339 . S
O8 C23 1.257 . S
O9 Dy1 2.307 . S
O9 C24 1.266 . S
O10 Dy0 2.298 . S
O10 C24 1.236 . S
O11 Dy1 2.395 . S
O11 C31 1.255 . S
O12 Dy1 2.379 . S
O12 C31 1.249 . S
C13 O3 1.266 . S
C13 O4 1.236 . S
O14 Dy0 2.275 . S
O14 C2 1.254 . S
O15 Dy1 2.339 . S
O15 C2 1.257 . S
C16 C19 1.344 . S
C16 C20 1.328 . S
C16 C22 1.516 . S
C17 C18 1.304 . S
C17 C21 1.323 . S
C18 C17 1.304 . S
C18 C19 1.371 . S
C18 H32 0.930 . S
C19 C16 1.344 . S
C19 C18 1.371 . S
C19 H33 0.931 . S
C20 C16 1.328 . S
C20 C21 1.433 . S
C20 H34 0.931 . S
C21 C17 1.323 . S
C21 C20 1.433 . S
C21 H35 0.933 . S
C22 Dy0 2.738 . S
C22 O5 1.255 . S
C22 O6 1.249 . S
C22 C16 1.516 . S
C23 O7 1.254 . S
C23 O8 1.257 . S
C24 O9 1.266 . S
C24 O10 1.236 . S
C25 C28 1.344 . S
C25 C29 1.328 . S
C25 C31 1.516 . S
C26 C27 1.304 . S
C26 C30 1.323 . S
C27 C26 1.304 . S
C27 C28 1.371 . S
C27 H36 0.930 . S
C28 C25 1.344 . S
C28 C27 1.371 . S
C28 H37 0.931 . S
C29 C25 1.328 . S
C29 C30 1.433 . S
C29 H38 0.931 . S
C30 C26 1.323 . S
C30 C29 1.433 . S
C30 H39 0.933 . S
C31 Dy1 2.738 . S
C31 O11 1.255 . S
C31 O12 1.249 . S
C31 C25 1.516 . S
H32 C18 0.930 . S
H33 C19 0.931 . S
H34 C20 0.931 . S
H35 C21 0.933 . S
H36 C27 0.930 . S
H37 C28 0.931 . S
H38 C29 0.931 . S
H39 C30 0.933 . S
Dy40 O43 2.307 . S
Dy40 O45 2.395 . S
Dy40 O46 2.379 . S
Dy40 O48 2.339 . S
Dy40 O50 2.298 . S
Dy40 O54 2.275 . S
Dy40 C62 2.738 . S
Dy41 O44 2.298 1_655 S
Dy41 O47 2.275 . S
Dy41 O49 2.307 . S
Dy41 O51 2.395 . S
Dy41 O52 2.379 . S
Dy41 O55 2.339 1_655 S
Dy41 C71 2.738 . S
C42 O54 1.254 . S
C42 O55 1.257 . S
O43 Dy40 2.307 . S
O43 C53 1.266 . S
O44 Dy41 2.298 1_455 S
O44 C53 1.236 . S
O45 Dy40 2.395 . S
O45 C62 1.255 . S
O46 Dy40 2.379 . S
O46 C62 1.249 . S
O47 Dy41 2.275 . S
O47 C63 1.254 . S
O48 Dy40 2.339 . S
O48 C63 1.257 1_455 S
O49 Dy41 2.307 . S
O49 C64 1.266 . S
O50 Dy40 2.298 . S
O50 C64 1.236 1_455 S
O51 Dy41 2.395 . S
O51 C71 1.255 . S
O52 Dy41 2.379 . S
O52 C71 1.249 . S
C53 O43 1.266 . S
C53 O44 1.236 . S
O54 Dy40 2.275 . S
O54 C42 1.254 . S
O55 Dy41 2.339 1_455 S
O55 C42 1.257 . S
C56 C59 1.344 . S
C56 C60 1.328 . S
C56 C62 1.516 . S
C57 C58 1.304 . S
C57 C61 1.323 . S
C58 C57 1.304 . S
C58 C59 1.371 . S
C58 H72 0.930 . S
C59 C56 1.344 . S
C59 C58 1.371 . S
C59 H73 0.931 . S
C60 C56 1.328 . S
C60 C61 1.433 . S
C60 H74 0.931 . S
C61 C57 1.323 . S
C61 C60 1.433 . S
C61 H75 0.933 . S
C62 Dy40 2.738 . S
C62 O45 1.255 . S
C62 O46 1.249 . S
C62 C56 1.516 . S
C63 O47 1.254 . S
C63 O48 1.257 1_655 S
C64 O49 1.266 . S
C64 O50 1.236 1_655 S
C65 C68 1.344 . S
C65 C69 1.328 . S
C65 C71 1.516 . S
C66 C67 1.304 . S
C66 C70 1.323 . S
C67 C66 1.304 . S
C67 C68 1.371 . S
C67 H76 0.930 . S
C68 C65 1.344 . S
C68 C67 1.371 . S
C68 H77 0.931 . S
C69 C65 1.328 . S
C69 C70 1.433 . S
C69 H78 0.931 . S
C70 C66 1.323 . S
C70 C69 1.433 . S
C70 H79 0.933 . S
C71 Dy41 2.738 . S
C71 O51 1.255 . S
C71 O52 1.249 . S
C71 C65 1.516 . S
H72 C58 0.930 . S
H73 C59 0.931 . S
H74 C60 0.931 . S
H75 C61 0.933 . S
H76 C67 0.930 . S
H77 C68 0.931 . S
H78 C69 0.931 . S
H79 C70 0.933 . S
Dy80 O83 2.307 . S
Dy80 O85 2.395 . S
Dy80 O86 2.379 . S
Dy80 O88 2.339 . S
Dy80 O90 2.298 . S
Dy80 O94 2.275 . S
Dy80 C102 2.738 . S
Dy81 O84 2.298 1_554 S
Dy81 O87 2.275 . S
Dy81 O89 2.307 . S
Dy81 O91 2.395 . S
Dy81 O92 2.379 . S
Dy81 O95 2.339 1_554 S
Dy81 C111 2.738 . S
C82 O94 1.254 . S
C82 O95 1.257 . S
O83 Dy80 2.307 . S
O83 C93 1.266 . S
O84 Dy81 2.298 1_556 S
O84 C93 1.236 . S
O85 Dy80 2.395 . S
O85 C102 1.255 . S
O86 Dy80 2.379 . S
O86 C102 1.249 . S
O87 Dy81 2.275 . S
O87 C103 1.254 . S
O88 Dy80 2.339 . S
O88 C103 1.257 1_556 S
O89 Dy81 2.307 . S
O89 C104 1.266 1_554 S
O90 Dy80 2.298 . S
O90 C104 1.236 . S
O91 Dy81 2.395 . S
O91 C111 1.255 . S
O92 Dy81 2.379 . S
O92 C111 1.249 . S
C93 O83 1.266 . S
C93 O84 1.236 . S
O94 Dy80 2.275 . S
O94 C82 1.254 . S
O95 Dy81 2.339 1_556 S
O95 C82 1.257 . S
C96 C99 1.344 . S
C96 C100 1.328 . S
C96 C102 1.516 . S
C97 C98 1.304 . S
C97 C101 1.323 . S
C98 C97 1.304 . S
C98 C99 1.371 . S
C98 H112 0.930 . S
C99 C96 1.344 . S
C99 C98 1.371 . S
C99 H113 0.931 . S
C100 C96 1.328 . S
C100 C101 1.433 . S
C100 H114 0.931 . S
C101 C97 1.323 . S
C101 C100 1.433 . S
C101 H115 0.933 . S
C102 Dy80 2.738 . S
C102 O85 1.255 . S
C102 O86 1.249 . S
C102 C96 1.516 . S
C103 O87 1.254 . S
C103 O88 1.257 1_554 S
C104 O89 1.266 1_556 S
C104 O90 1.236 . S
C105 C108 1.344 . S
C105 C109 1.328 . S
C105 C111 1.516 . S
C106 C107 1.304 . S
C106 C110 1.323 . S
C107 C106 1.304 . S
C107 C108 1.371 . S
C107 H116 0.930 . S
C108 C105 1.344 . S
C108 C107 1.371 . S
C108 H117 0.931 . S
C109 C105 1.328 . S
C109 C110 1.433 . S
C109 H118 0.931 . S
C110 C106 1.323 . S
C110 C109 1.433 . S
C110 H119 0.933 . S
C111 Dy81 2.738 . S
C111 O91 1.255 . S
C111 O92 1.249 . S
C111 C105 1.516 . S
H112 C98 0.930 . S
H113 C99 0.931 . S
H114 C100 0.931 . S
H115 C101 0.933 . S
H116 C107 0.930 . S
H117 C108 0.931 . S
H118 C109 0.931 . S
H119 C110 0.933 . S
Dy120 O123 2.307 . S
Dy120 O125 2.395 . S
Dy120 O126 2.379 . S
Dy120 O128 2.339 . S
Dy120 O130 2.298 . S
Dy120 O134 2.275 . S
Dy120 C142 2.738 . S
Dy121 O124 2.298 . S
Dy121 O127 2.275 . S
Dy121 O129 2.307 . S
Dy121 O131 2.395 . S
Dy121 O132 2.379 . S
Dy121 O135 2.339 . S
Dy121 C151 2.738 . S
C122 O134 1.254 . S
C122 O135 1.257 . S
O123 Dy120 2.307 . S
O123 C133 1.266 . S
O124 Dy121 2.298 . S
O124 C133 1.236 . S
O125 Dy120 2.395 . S
O125 C142 1.255 . S
O126 Dy120 2.379 . S
O126 C142 1.249 . S
O127 Dy121 2.275 . S
O127 C143 1.254 . S
O128 Dy120 2.339 . S
O128 C143 1.257 . S
O129 Dy121 2.307 . S
O129 C144 1.266 . S
O130 Dy120 2.298 . S
O130 C144 1.236 . S
O131 Dy121 2.395 . S
O131 C151 1.255 . S
O132 Dy121 2.379 . S
O132 C151 1.249 . S
C133 O123 1.266 . S
C133 O124 1.236 . S
O134 Dy120 2.275 . S
O134 C122 1.254 . S
O135 Dy121 2.339 . S
O135 C122 1.257 . S
C136 C139 1.344 . S
C136 C140 1.328 . S
C136 C142 1.516 . S
C137 C138 1.304 . S
C137 C141 1.323 . S
C138 C137 1.304 . S
C138 C139 1.371 . S
C138 H152 0.930 . S
C139 C136 1.344 . S
C139 C138 1.371 . S
C139 H153 0.931 . S
C140 C136 1.328 . S
C140 C141 1.433 . S
C140 H154 0.931 . S
C141 C137 1.323 . S
C141 C140 1.433 . S
C141 H155 0.933 . S
C142 Dy120 2.738 . S
C142 O125 1.255 . S
C142 O126 1.249 . S
C142 C136 1.516 . S
C143 O127 1.254 . S
C143 O128 1.257 . S
C144 O129 1.266 . S
C144 O130 1.236 . S
C145 C148 1.344 . S
C145 C149 1.328 . S
C145 C151 1.516 . S
C146 C147 1.304 . S
C146 C150 1.323 . S
C147 C146 1.304 . S
C147 C148 1.371 . S
C147 H156 0.930 . S
C148 C145 1.344 . S
C148 C147 1.371 . S
C148 H157 0.931 . S
C149 C145 1.328 . S
C149 C150 1.433 . S
C149 H158 0.931 . S
C150 C146 1.323 . S
C150 C149 1.433 . S
C150 H159 0.933 . S
C151 Dy121 2.738 . S
C151 O131 1.255 . S
C151 O132 1.249 . S
C151 C145 1.516 . S
H152 C138 0.930 . S
H153 C139 0.931 . S
H154 C140 0.931 . S
H155 C141 0.933 . S
H156 C147 0.930 . S
H157 C148 0.931 . S
H158 C149 0.931 . S
H159 C150 0.933 . S
Dy160 O163 2.307 . S
Dy160 O165 2.395 . S
Dy160 O166 2.379 . S
Dy160 O168 2.339 . S
Dy160 O170 2.298 . S
Dy160 O174 2.275 . S
Dy160 C182 2.738 . S
Dy161 O164 2.298 . S
Dy161 O167 2.275 . S
Dy161 O169 2.307 . S
Dy161 O171 2.395 . S
Dy161 O172 2.379 . S
Dy161 O175 2.339 . S
Dy161 C191 2.738 . S
C162 O174 1.254 . S
C162 O175 1.257 . S
O163 Dy160 2.307 . S
O163 C173 1.266 . S
O164 Dy161 2.298 . S
O164 C173 1.236 . S
O165 Dy160 2.395 . S
O165 C182 1.255 . S
O166 Dy160 2.379 . S
O166 C182 1.249 . S
O167 Dy161 2.275 . S
O167 C183 1.254 . S
O168 Dy160 2.339 . S
O168 C183 1.257 . S
O169 Dy161 2.307 . S
O169 C184 1.266 . S
O170 Dy160 2.298 . S
O170 C184 1.236 . S
O171 Dy161 2.395 . S
O171 C191 1.255 . S
O172 Dy161 2.379 . S
O172 C191 1.249 . S
C173 O163 1.266 . S
C173 O164 1.236 . S
O174 Dy160 2.275 . S
O174 C162 1.254 . S
O175 Dy161 2.339 . S
O175 C162 1.257 . S
C176 C179 1.344 . S
C176 C180 1.328 . S
C176 C182 1.516 . S
C177 C178 1.304 . S
C177 C181 1.323 . S
C178 C177 1.304 . S
C178 C179 1.371 . S
C178 H192 0.930 . S
C179 C176 1.344 . S
C179 C178 1.371 . S
C179 H193 0.931 . S
C180 C176 1.328 . S
C180 C181 1.433 . S
C180 H194 0.931 . S
C181 C177 1.323 . S
C181 C180 1.433 . S
C181 H195 0.933 . S
C182 Dy160 2.738 . S
C182 O165 1.255 . S
C182 O166 1.249 . S
C182 C176 1.516 . S
C183 O167 1.254 . S
C183 O168 1.257 . S
C184 O169 1.266 . S
C184 O170 1.236 . S
C185 C188 1.344 . S
C185 C189 1.328 . S
C185 C191 1.516 . S
C186 C187 1.304 . S
C186 C190 1.323 . S
C187 C186 1.304 . S
C187 C188 1.371 . S
C187 H196 0.930 . S
C188 C185 1.344 . S
C188 C187 1.371 . S
C188 H197 0.931 . S
C189 C185 1.328 . S
C189 C190 1.433 . S
C189 H198 0.931 . S
C190 C186 1.323 . S
C190 C189 1.433 . S
C190 H199 0.933 . S
C191 Dy161 2.738 . S
C191 O171 1.255 . S
C191 O172 1.249 . S
C191 C185 1.516 . S
H192 C178 0.930 . S
H193 C179 0.931 . S
H194 C180 0.931 . S
H195 C181 0.933 . S
H196 C187 0.930 . S
H197 C188 0.931 . S
H198 C189 0.931 . S
H199 C190 0.933 . S
Dy200 O203 2.307 . S
Dy200 O205 2.395 . S
Dy200 O206 2.379 . S
Dy200 O208 2.339 . S
Dy200 O210 2.298 . S
Dy200 O214 2.275 . S
Dy200 C222 2.738 . S
Dy201 O204 2.298 1_455 S
Dy201 O207 2.275 . S
Dy201 O209 2.307 . S
Dy201 O211 2.395 . S
Dy201 O212 2.379 . S
Dy201 O215 2.339 1_455 S
Dy201 C231 2.738 . S
C202 O214 1.254 . S
C202 O215 1.257 . S
O203 Dy200 2.307 . S
O203 C213 1.266 . S
O204 Dy201 2.298 1_655 S
O204 C213 1.236 . S
O205 Dy200 2.395 . S
O205 C222 1.255 . S
O206 Dy200 2.379 . S
O206 C222 1.249 . S
O207 Dy201 2.275 . S
O207 C223 1.254 . S
O208 Dy200 2.339 . S
O208 C223 1.257 1_655 S
O209 Dy201 2.307 . S
O209 C224 1.266 . S
O210 Dy200 2.298 . S
O210 C224 1.236 1_655 S
O211 Dy201 2.395 . S
O211 C231 1.255 . S
O212 Dy201 2.379 . S
O212 C231 1.249 . S
C213 O203 1.266 . S
C213 O204 1.236 . S
O214 Dy200 2.275 . S
O214 C202 1.254 . S
O215 Dy201 2.339 1_655 S
O215 C202 1.257 . S
C216 C219 1.344 . S
C216 C220 1.328 . S
C216 C222 1.516 . S
C217 C218 1.304 . S
C217 C221 1.323 . S
C218 C217 1.304 . S
C218 C219 1.371 . S
C218 H232 0.930 . S
C219 C216 1.344 . S
C219 C218 1.371 . S
C219 H233 0.931 . S
C220 C216 1.328 . S
C220 C221 1.433 . S
C220 H234 0.931 . S
C221 C217 1.323 . S
C221 C220 1.433 . S
C221 H235 0.933 . S
C222 Dy200 2.738 . S
C222 O205 1.255 . S
C222 O206 1.249 . S
C222 C216 1.516 . S
C223 O207 1.254 . S
C223 O208 1.257 1_455 S
C224 O209 1.266 . S
C224 O210 1.236 1_455 S
C225 C228 1.344 . S
C225 C229 1.328 . S
C225 C231 1.516 . S
C226 C227 1.304 . S
C226 C230 1.323 . S
C227 C226 1.304 . S
C227 C228 1.371 . S
C227 H236 0.930 . S
C228 C225 1.344 . S
C228 C227 1.371 . S
C228 H237 0.931 . S
C229 C225 1.328 . S
C229 C230 1.433 . S
C229 H238 0.931 . S
C230 C226 1.323 . S
C230 C229 1.433 . S
C230 H239 0.933 . S
C231 Dy201 2.738 . S
C231 O211 1.255 . S
C231 O212 1.249 . S
C231 C225 1.516 . S
H232 C218 0.930 . S
H233 C219 0.931 . S
H234 C220 0.931 . S
H235 C221 0.933 . S
H236 C227 0.930 . S
H237 C228 0.931 . S
H238 C229 0.931 . S
H239 C230 0.933 . S
Dy240 O243 2.307 1_556 S
Dy240 O245 2.395 . S
Dy240 O246 2.379 . S
Dy240 O248 2.339 . S
Dy240 O250 2.298 . S
Dy240 O254 2.275 1_556 S
Dy240 C262 2.738 . S
Dy241 O244 2.298 . S
Dy241 O247 2.275 1_554 S
Dy241 O249 2.307 1_554 S
Dy241 O251 2.395 . S
Dy241 O252 2.379 . S
Dy241 O255 2.339 . S
Dy241 C271 2.738 . S
C242 O254 1.254 . S
C242 O255 1.257 . S
O243 Dy240 2.307 1_554 S
O243 C253 1.266 . S
O244 Dy241 2.298 . S
O244 C253 1.236 . S
O245 Dy240 2.395 . S
O245 C262 1.255 . S
O246 Dy240 2.379 . S
O246 C262 1.249 . S
O247 Dy241 2.275 1_556 S
O247 C263 1.254 . S
O248 Dy240 2.339 . S
O248 C263 1.257 . S
O249 Dy241 2.307 1_556 S
O249 C264 1.266 . S
O250 Dy240 2.298 . S
O250 C264 1.236 . S
O251 Dy241 2.395 . S
O251 C271 1.255 . S
O252 Dy241 2.379 . S
O252 C271 1.249 . S
C253 O243 1.266 . S
C253 O244 1.236 . S
O254 Dy240 2.275 1_554 S
O254 C242 1.254 . S
O255 Dy241 2.339 . S
O255 C242 1.257 . S
C256 C259 1.344 . S
C256 C260 1.328 . S
C256 C262 1.516 . S
C257 C258 1.304 . S
C257 C261 1.323 . S
C258 C257 1.304 . S
C258 C259 1.371 . S
C258 H272 0.930 . S
C259 C256 1.344 . S
C259 C258 1.371 . S
C259 H273 0.931 . S
C260 C256 1.328 . S
C260 C261 1.433 . S
C260 H274 0.931 . S
C261 C257 1.323 . S
C261 C260 1.433 . S
C261 H275 0.933 . S
C262 Dy240 2.738 . S
C262 O245 1.255 . S
C262 O246 1.249 . S
C262 C256 1.516 . S
C263 O247 1.254 . S
C263 O248 1.257 . S
C264 O249 1.266 . S
C264 O250 1.236 . S
C265 C268 1.344 . S
C265 C269 1.328 . S
C265 C271 1.516 . S
C266 C267 1.304 . S
C266 C270 1.323 . S
C267 C266 1.304 . S
C267 C268 1.371 . S
C267 H276 0.930 . S
C268 C265 1.344 . S
C268 C267 1.371 . S
C268 H277 0.931 . S
C269 C265 1.328 . S
C269 C270 1.433 . S
C269 H278 0.931 . S
C270 C266 1.323 . S
C270 C269 1.433 . S
C270 H279 0.933 . S
C271 Dy241 2.738 . S
C271 O251 1.255 . S
C271 O252 1.249 . S
C271 C265 1.516 . S
H272 C258 0.930 . S
H273 C259 0.931 . S
H274 C260 0.931 . S
H275 C261 0.933 . S
H276 C267 0.930 . S
H277 C268 0.931 . S
H278 C269 0.931 . S
H279 C270 0.933 . S
Dy280 O283 2.307 . S
Dy280 O285 2.395 . S
Dy280 O286 2.379 . S
Dy280 O288 2.339 . S
Dy280 O290 2.298 . S
Dy280 O294 2.275 . S
Dy280 C302 2.738 . S
Dy281 O284 2.298 . S
Dy281 O287 2.275 . S
Dy281 O289 2.307 . S
Dy281 O291 2.395 . S
Dy281 O292 2.379 . S
Dy281 O295 2.339 . S
Dy281 C311 2.738 . S
C282 O294 1.254 . S
C282 O295 1.257 . S
O283 Dy280 2.307 . S
O283 C293 1.266 . S
O284 Dy281 2.298 . S
O284 C293 1.236 . S
O285 Dy280 2.395 . S
O285 C302 1.255 . S
O286 Dy280 2.379 . S
O286 C302 1.249 . S
O287 Dy281 2.275 . S
O287 C303 1.254 . S
O288 Dy280 2.339 . S
O288 C303 1.257 . S
O289 Dy281 2.307 . S
O289 C304 1.266 . S
O290 Dy280 2.298 . S
O290 C304 1.236 . S
O291 Dy281 2.395 . S
O291 C311 1.255 . S
O292 Dy281 2.379 . S
O292 C311 1.249 . S
C293 O283 1.266 . S
C293 O284 1.236 . S
O294 Dy280 2.275 . S
O294 C282 1.254 . S
O295 Dy281 2.339 . S
O295 C282 1.257 . S
C296 C299 1.344 . S
C296 C300 1.328 . S
C296 C302 1.516 . S
C297 C298 1.304 . S
C297 C301 1.323 . S
C298 C297 1.304 . S
C298 C299 1.371 . S
C298 H312 0.930 . S
C299 C296 1.344 . S
C299 C298 1.371 . S
C299 H313 0.931 . S
C300 C296 1.328 . S
C300 C301 1.433 . S
C300 H314 0.931 . S
C301 C297 1.323 . S
C301 C300 1.433 . S
C301 H315 0.933 . S
C302 Dy280 2.738 . S
C302 O285 1.255 . S
C302 O286 1.249 . S
C302 C296 1.516 . S
C303 O287 1.254 . S
C303 O288 1.257 . S
C304 O289 1.266 . S
C304 O290 1.236 . S
C305 C308 1.344 . S
C305 C309 1.328 . S
C305 C311 1.516 . S
C306 C307 1.304 . S
C306 C310 1.323 . S
C307 C306 1.304 . S
C307 C308 1.371 . S
C307 H316 0.930 . S
C308 C305 1.344 . S
C308 C307 1.371 . S
C308 H317 0.931 . S
C309 C305 1.328 . S
C309 C310 1.433 . S
C309 H318 0.931 . S
C310 C306 1.323 . S
C310 C309 1.433 . S
C310 H319 0.933 . S
C311 Dy281 2.738 . S
C311 O291 1.255 . S
C311 O292 1.249 . S
C311 C305 1.516 . S
H312 C298 0.930 . S
H313 C299 0.931 . S
H314 C300 0.931 . S
H315 C301 0.933 . S
H316 C307 0.930 . S
H317 C308 0.931 . S
H318 C309 0.931 . S
H319 C310 0.933 . S
Dy320 O323 2.307 . S
Dy320 O325 2.395 . S
Dy320 O326 2.379 . S
Dy320 O328 2.339 . S
Dy320 O330 2.298 . S
Dy320 O334 2.275 . S
Dy320 C342 2.738 . S
Dy321 O324 2.298 . S
Dy321 O327 2.275 . S
Dy321 O329 2.307 . S
Dy321 O331 2.395 . S
Dy321 O332 2.379 . S
Dy321 O335 2.339 . S
Dy321 C351 2.738 . S
C322 O334 1.254 . S
C322 O335 1.257 . S
O323 Dy320 2.307 . S
O323 C333 1.266 . S
O324 Dy321 2.298 . S
O324 C333 1.236 . S
O325 Dy320 2.395 . S
O325 C342 1.255 . S
O326 Dy320 2.379 . S
O326 C342 1.249 . S
O327 Dy321 2.275 . S
O327 C343 1.254 . S
O328 Dy320 2.339 . S
O328 C343 1.257 . S
O329 Dy321 2.307 . S
O329 C344 1.266 . S
O330 Dy320 2.298 . S
O330 C344 1.236 . S
O331 Dy321 2.395 . S
O331 C351 1.255 . S
O332 Dy321 2.379 . S
O332 C351 1.249 . S
C333 O323 1.266 . S
C333 O324 1.236 . S
O334 Dy320 2.275 . S
O334 C322 1.254 . S
O335 Dy321 2.339 . S
O335 C322 1.257 . S
C336 C339 1.344 . S
C336 C340 1.328 . S
C336 C342 1.516 . S
C337 C338 1.304 . S
C337 C341 1.323 . S
C338 C337 1.304 . S
C338 C339 1.371 . S
C338 H352 0.930 . S
C339 C336 1.344 . S
C339 C338 1.371 . S
C339 H353 0.931 . S
C340 C336 1.328 . S
C340 C341 1.433 . S
C340 H354 0.931 . S
C341 C337 1.323 . S
C341 C340 1.433 . S
C341 H355 0.933 . S
C342 Dy320 2.738 . S
C342 O325 1.255 . S
C342 O326 1.249 . S
C342 C336 1.516 . S
C343 O327 1.254 . S
C343 O328 1.257 . S
C344 O329 1.266 . S
C344 O330 1.236 . S
C345 C348 1.344 . S
C345 C349 1.328 . S
C345 C351 1.516 . S
C346 C347 1.304 . S
C346 C350 1.323 . S
C347 C346 1.304 . S
C347 C348 1.371 . S
C347 H356 0.930 . S
C348 C345 1.344 . S
C348 C347 1.371 . S
C348 H357 0.931 . S
C349 C345 1.328 . S
C349 C350 1.433 . S
C349 H358 0.931 . S
C350 C346 1.323 . S
C350 C349 1.433 . S
C350 H359 0.933 . S
C351 Dy321 2.738 . S
C351 O331 1.255 . S
C351 O332 1.249 . S
C351 C345 1.516 . S
H352 C338 0.930 . S
H353 C339 0.931 . S
H354 C340 0.931 . S
H355 C341 0.933 . S
H356 C347 0.930 . S
H357 C348 0.931 . S
H358 C349 0.931 . S
H359 C350 0.933 . S
Dy360 O363 2.307 1_565 S
Dy360 O365 2.395 . S
Dy360 O366 2.379 . S
Dy360 O368 2.339 . S
Dy360 O370 2.298 . S
Dy360 O374 2.275 1_565 S
Dy360 C382 2.738 . S
Dy361 O364 2.298 . S
Dy361 O367 2.275 . S
Dy361 O369 2.307 1_545 S
Dy361 O371 2.395 . S
Dy361 O372 2.379 . S
Dy361 O375 2.339 . S
Dy361 C391 2.738 . S
C362 O374 1.254 . S
C362 O375 1.257 . S
O363 Dy360 2.307 1_545 S
O363 C373 1.266 . S
O364 Dy361 2.298 . S
O364 C373 1.236 . S
O365 Dy360 2.395 . S
O365 C382 1.255 . S
O366 Dy360 2.379 . S
O366 C382 1.249 . S
O367 Dy361 2.275 . S
O367 C383 1.254 1_545 S
O368 Dy360 2.339 . S
O368 C383 1.257 . S
O369 Dy361 2.307 1_565 S
O369 C384 1.266 . S
O370 Dy360 2.298 . S
O370 C384 1.236 . S
O371 Dy361 2.395 . S
O371 C391 1.255 . S
O372 Dy361 2.379 . S
O372 C391 1.249 . S
C373 O363 1.266 . S
C373 O364 1.236 . S
O374 Dy360 2.275 1_545 S
O374 C362 1.254 . S
O375 Dy361 2.339 . S
O375 C362 1.257 . S
C376 C379 1.344 . S
C376 C380 1.328 . S
C376 C382 1.516 . S
C377 C378 1.304 . S
C377 C381 1.323 . S
C378 C377 1.304 . S
C378 C379 1.371 . S
C378 H392 0.930 . S
C379 C376 1.344 . S
C379 C378 1.371 . S
C379 H393 0.931 . S
C380 C376 1.328 . S
C380 C381 1.433 . S
C380 H394 0.931 . S
C381 C377 1.323 . S
C381 C380 1.433 . S
C381 H395 0.933 . S
C382 Dy360 2.738 . S
C382 O365 1.255 . S
C382 O366 1.249 . S
C382 C376 1.516 . S
C383 O367 1.254 1_565 S
C383 O368 1.257 . S
C384 O369 1.266 . S
C384 O370 1.236 . S
C385 C388 1.344 . S
C385 C389 1.328 . S
C385 C391 1.516 . S
C386 C387 1.304 . S
C386 C390 1.323 . S
C387 C386 1.304 . S
C387 C388 1.371 . S
C387 H396 0.930 . S
C388 C385 1.344 . S
C388 C387 1.371 . S
C388 H397 0.931 . S
C389 C385 1.328 . S
C389 C390 1.433 . S
C389 H398 0.931 . S
C390 C386 1.323 . S
C390 C389 1.433 . S
C390 H399 0.933 . S
C391 Dy361 2.738 . S
C391 O371 1.255 . S
C391 O372 1.249 . S
C391 C385 1.516 . S
H392 C378 0.930 . S
H393 C379 0.931 . S
H394 C380 0.931 . S
H395 C381 0.933 . S
H396 C387 0.930 . S
H397 C388 0.931 . S
H398 C389 0.931 . S
H399 C390 0.933 . S
Dy400 O403 2.307 . S
Dy400 O405 2.395 . S
Dy400 O406 2.379 . S
Dy400 O408 2.339 . S
Dy400 O410 2.298 . S
Dy400 O414 2.275 . S
Dy400 C422 2.738 . S
Dy401 O404 2.298 1_545 S
Dy401 O407 2.275 . S
Dy401 O409 2.307 . S
Dy401 O411 2.395 . S
Dy401 O412 2.379 . S
Dy401 O415 2.339 1_545 S
Dy401 C431 2.738 . S
C402 O414 1.254 . S
C402 O415 1.257 . S
O403 Dy400 2.307 . S
O403 C413 1.266 . S
O404 Dy401 2.298 1_565 S
O404 C413 1.236 . S
O405 Dy400 2.395 . S
O405 C422 1.255 . S
O406 Dy400 2.379 . S
O406 C422 1.249 . S
O407 Dy401 2.275 . S
O407 C423 1.254 . S
O408 Dy400 2.339 . S
O408 C423 1.257 1_565 S
O409 Dy401 2.307 . S
O409 C424 1.266 . S
O410 Dy400 2.298 . S
O410 C424 1.236 1_565 S
O411 Dy401 2.395 . S
O411 C431 1.255 . S
O412 Dy401 2.379 . S
O412 C431 1.249 . S
C413 O403 1.266 . S
C413 O404 1.236 . S
O414 Dy400 2.275 . S
O414 C402 1.254 . S
O415 Dy401 2.339 1_565 S
O415 C402 1.257 . S
C416 C419 1.344 . S
C416 C420 1.328 . S
C416 C422 1.516 . S
C417 C418 1.304 . S
C417 C421 1.323 . S
C418 C417 1.304 . S
C418 C419 1.371 . S
C418 H432 0.930 . S
C419 C416 1.344 . S
C419 C418 1.371 . S
C419 H433 0.931 . S
C420 C416 1.328 . S
C420 C421 1.433 . S
C420 H434 0.931 . S
C421 C417 1.323 . S
C421 C420 1.433 . S
C421 H435 0.933 . S
C422 Dy400 2.738 . S
C422 O405 1.255 . S
C422 O406 1.249 . S
C422 C416 1.516 . S
C423 O407 1.254 . S
C423 O408 1.257 1_545 S
C424 O409 1.266 . S
C424 O410 1.236 1_545 S
C425 C428 1.344 . S
C425 C429 1.328 . S
C425 C431 1.516 . S
C426 C427 1.304 . S
C426 C430 1.323 . S
C427 C426 1.304 . S
C427 C428 1.371 . S
C427 H436 0.930 . S
C428 C425 1.344 . S
C428 C427 1.371 . S
C428 H437 0.931 . S
C429 C425 1.328 . S
C429 C430 1.433 . S
C429 H438 0.931 . S
C430 C426 1.323 . S
C430 C429 1.433 . S
C430 H439 0.933 . S
C431 Dy401 2.738 . S
C431 O411 1.255 . S
C431 O412 1.249 . S
C431 C425 1.516 . S
H432 C418 0.930 . S
H433 C419 0.931 . S
H434 C420 0.931 . S
H435 C421 0.933 . S
H436 C427 0.930 . S
H437 C428 0.931 . S
H438 C429 0.931 . S
H439 C430 0.933 . S
Dy440 O443 2.307 . S
Dy440 O445 2.395 . S
Dy440 O446 2.379 . S
Dy440 O448 2.339 . S
Dy440 O450 2.298 . S
Dy440 O454 2.275 . S
Dy440 C462 2.738 . S
Dy441 O444 2.298 . S
Dy441 O447 2.275 . S
Dy441 O449 2.307 . S
Dy441 O451 2.395 . S
Dy441 O452 2.379 . S
Dy441 O455 2.339 . S
Dy441 C471 2.738 . S
C442 O454 1.254 . S
C442 O455 1.257 . S
O443 Dy440 2.307 . S
O443 C453 1.266 . S
O444 Dy441 2.298 . S
O444 C453 1.236 . S
O445 Dy440 2.395 . S
O445 C462 1.255 . S
O446 Dy440 2.379 . S
O446 C462 1.249 . S
O447 Dy441 2.275 . S
O447 C463 1.254 . S
O448 Dy440 2.339 . S
O448 C463 1.257 . S
O449 Dy441 2.307 . S
O449 C464 1.266 . S
O450 Dy440 2.298 . S
O450 C464 1.236 . S
O451 Dy441 2.395 . S
O451 C471 1.255 . S
O452 Dy441 2.379 . S
O452 C471 1.249 . S
C453 O443 1.266 . S
C453 O444 1.236 . S
O454 Dy440 2.275 . S
O454 C442 1.254 . S
O455 Dy441 2.339 . S
O455 C442 1.257 . S
C456 C459 1.344 . S
C456 C460 1.328 . S
C456 C462 1.516 . S
C457 C458 1.304 . S
C457 C461 1.323 . S
C458 C457 1.304 . S
C458 C459 1.371 . S
C458 H472 0.930 . S
C459 C456 1.344 . S
C459 C458 1.371 . S
C459 H473 0.931 . S
C460 C456 1.328 . S
C460 C461 1.433 . S
C460 H474 0.931 . S
C461 C457 1.323 . S
C461 C460 1.433 . S
C461 H475 0.933 . S
C462 Dy440 2.738 . S
C462 O445 1.255 . S
C462 O446 1.249 . S
C462 C456 1.516 . S
C463 O447 1.254 . S
C463 O448 1.257 . S
C464 O449 1.266 . S
C464 O450 1.236 . S
C465 C468 1.344 . S
C465 C469 1.328 . S
C465 C471 1.516 . S
C466 C467 1.304 . S
C466 C470 1.323 . S
C467 C466 1.304 . S
C467 C468 1.371 . S
C467 H476 0.930 . S
C468 C465 1.344 . S
C468 C467 1.371 . S
C468 H477 0.931 . S
C469 C465 1.328 . S
C469 C470 1.433 . S
C469 H478 0.931 . S
C470 C466 1.323 . S
C470 C469 1.433 . S
C470 H479 0.933 . S
C471 Dy441 2.738 . S
C471 O451 1.255 . S
C471 O452 1.249 . S
C471 C465 1.516 . S
H472 C458 0.930 . S
H473 C459 0.931 . S
H474 C460 0.931 . S
H475 C461 0.933 . S
H476 C467 0.930 . S
H477 C468 0.931 . S
H478 C469 0.931 . S
H479 C470 0.933 . S
H480 C486 0.930 . S
H481 C489 0.930 . S
H482 C490 0.930 . S
H483 C491 0.930 . S
H484 C494 0.930 . S
H485 C495 0.930 . S
C486 H480 0.930 . S
C486 C487 1.355 . S
C486 C488 1.415 . S
C487 C486 1.355 . S
C487 C489 1.419 . S
C488 C486 1.415 . S
C488 C493 1.425 . S
C488 C495 1.409 . S
C489 H481 0.930 . S
C489 C487 1.419 . S
C489 C490 1.362 . S
C490 H482 0.930 . S
C490 C489 1.362 . S
C490 C493 1.409 . S
C491 H483 0.930 . S
C491 C492 1.355 . S
C491 C493 1.415 . S
C492 C491 1.355 . S
C492 C494 1.419 . S
C493 C488 1.425 . S
C493 C490 1.409 . S
C493 C491 1.415 . S
C494 H484 0.930 . S
C494 C492 1.419 . S
C494 C495 1.362 . S
C495 H485 0.930 . S
C495 C488 1.409 . S
C495 C494 1.362 . S
H496 C502 0.930 . S
H497 C505 0.930 . S
H498 C506 0.930 . S
H499 C507 0.930 . S
H500 C510 0.930 . S
H501 C511 0.930 . S
C502 H496 0.930 . S
C502 C503 1.355 . S
C502 C504 1.415 . S
C503 C502 1.355 . S
C503 C505 1.419 . S
C504 C502 1.415 . S
C504 C509 1.425 . S
C504 C511 1.409 . S
C505 H497 0.930 . S
C505 C503 1.419 . S
C505 C506 1.362 . S
C506 H498 0.930 . S
C506 C505 1.362 . S
C506 C509 1.409 . S
C507 H499 0.930 . S
C507 C508 1.355 . S
C507 C509 1.415 . S
C508 C507 1.355 . S
C508 C510 1.419 . S
C509 C504 1.425 . S
C509 C506 1.409 . S
C509 C507 1.415 . S
C510 H500 0.930 . S
C510 C508 1.419 . S
C510 C511 1.362 . S
C511 H501 0.930 . S
C511 C504 1.409 . S
C511 C510 1.362 . S
H512 C518 0.930 . S
H513 C521 0.930 . S
H514 C522 0.930 . S
H515 C523 0.930 . S
H516 C526 0.930 . S
H517 C527 0.930 . S
C518 H512 0.930 . S
C518 C519 1.355 1_554 S
C518 C520 1.415 . S
C519 C518 1.355 1_556 S
C519 C521 1.419 . S
C520 C518 1.415 . S
C520 C525 1.425 . S
C520 C527 1.409 . S
C521 H513 0.930 . S
C521 C519 1.419 . S
C521 C522 1.362 . S
C522 H514 0.930 . S
C522 C521 1.362 . S
C522 C525 1.409 1_556 S
C523 H515 0.930 . S
C523 C524 1.355 . S
C523 C525 1.415 . S
C524 C523 1.355 . S
C524 C526 1.419 . S
C525 C520 1.425 . S
C525 C522 1.409 1_554 S
C525 C523 1.415 . S
C526 H516 0.930 . S
C526 C524 1.419 . S
C526 C527 1.362 . S
C527 H517 0.930 . S
C527 C520 1.409 . S
C527 C526 1.362 . S
H528 C534 0.930 . S
H529 C537 0.930 . S
H530 C538 0.930 1_565 S
H531 C539 0.930 1_565 S
H532 C542 0.930 . S
H533 C543 0.930 . S
C534 H528 0.930 . S
C534 C535 1.355 . S
C534 C536 1.415 . S
C535 C534 1.355 . S
C535 C537 1.419 . S
C536 C534 1.415 . S
C536 C541 1.425 . S
C536 C543 1.409 . S
C537 H529 0.930 . S
C537 C535 1.419 . S
C537 C538 1.362 . S
C538 H530 0.930 1_545 S
C538 C537 1.362 . S
C538 C541 1.409 . S
C539 H531 0.930 1_545 S
C539 C540 1.355 . S
C539 C541 1.415 . S
C540 C539 1.355 . S
C540 C542 1.419 . S
C541 C536 1.425 . S
C541 C538 1.409 . S
C541 C539 1.415 . S
C542 H532 0.930 . S
C542 C540 1.419 . S
C542 C543 1.362 . S
C543 H533 0.930 . S
C543 C536 1.409 . S
C543 C542 1.362 . S
H544 C550 0.930 . S
H545 C553 0.930 . S
H546 C554 0.930 . S
H547 C555 0.930 . S
H548 C558 0.930 . S
H549 C559 0.930 . S
C550 H544 0.930 . S
C550 C551 1.355 . S
C550 C552 1.415 . S
C551 C550 1.355 . S
C551 C553 1.419 . S
C552 C550 1.415 . S
C552 C557 1.425 . S
C552 C559 1.409 . S
C553 H545 0.930 . S
C553 C551 1.419 . S
C553 C554 1.362 . S
C554 H546 0.930 . S
C554 C553 1.362 . S
C554 C557 1.409 . S
C555 H547 0.930 . S
C555 C556 1.355 . S
C555 C557 1.415 . S
C556 C555 1.355 . S
C556 C558 1.419 . S
C557 C552 1.425 . S
C557 C554 1.409 . S
C557 C555 1.415 . S
C558 H548 0.930 . S
C558 C556 1.419 . S
C558 C559 1.362 . S
C559 H549 0.930 . S
C559 C552 1.409 . S
C559 C558 1.362 . S
H560 C566 0.930 . S
H561 C569 0.930 . S
H562 C570 0.930 . S
H563 C571 0.930 . S
H564 C574 0.930 . S
H565 C575 0.930 . S
C566 H560 0.930 . S
C566 C567 1.355 . S
C566 C568 1.415 . S
C567 C566 1.355 . S
C567 C569 1.419 . S
C568 C566 1.415 . S
C568 C573 1.425 . S
C568 C575 1.409 . S
C569 H561 0.930 . S
C569 C567 1.419 . S
C569 C570 1.362 . S
C570 H562 0.930 . S
C570 C569 1.362 . S
C570 C573 1.409 . S
C571 H563 0.930 . S
C571 C572 1.355 . S
C571 C573 1.415 . S
C572 C571 1.355 . S
C572 C574 1.419 . S
C573 C568 1.425 . S
C573 C570 1.409 . S
C573 C571 1.415 . S
C574 H564 0.930 . S
C574 C572 1.419 . S
C574 C575 1.362 . S
C575 H565 0.930 . S
C575 C568 1.409 . S
C575 C574 1.362 . S
H576 C582 0.930 . S
H577 C585 0.930 . S
H578 C586 0.930 . S
H579 C587 0.930 . S
H580 C590 0.930 1_554 S
H581 C591 0.930 . S
C582 H576 0.930 . S
C582 C583 1.355 . S
C582 C584 1.415 . S
C583 C582 1.355 . S
C583 C585 1.419 . S
C584 C582 1.415 . S
C584 C589 1.425 . S
C584 C591 1.409 . S
C585 H577 0.930 . S
C585 C583 1.419 . S
C585 C586 1.362 . S
C586 H578 0.930 . S
C586 C585 1.362 . S
C586 C589 1.409 . S
C587 H579 0.930 . S
C587 C588 1.355 . S
C587 C589 1.415 . S
C588 C587 1.355 . S
C588 C590 1.419 . S
C589 C584 1.425 . S
C589 C586 1.409 . S
C589 C587 1.415 . S
C590 H580 0.930 1_556 S
C590 C588 1.419 . S
C590 C591 1.362 . S
C591 H581 0.930 . S
C591 C584 1.409 . S
C591 C590 1.362 . S
H592 C598 0.930 . S
H593 C601 0.930 . S
H594 C602 0.930 . S
H595 C603 0.930 . S
H596 C606 0.930 . S
H597 C607 0.930 . S
C598 H592 0.930 . S
C598 C599 1.355 . S
C598 C600 1.415 . S
C599 C598 1.355 . S
C599 C601 1.419 . S
C600 C598 1.415 . S
C600 C605 1.425 . S
C600 C607 1.409 . S
C601 H593 0.930 . S
C601 C599 1.419 . S
C601 C602 1.362 . S
C602 H594 0.930 . S
C602 C601 1.362 . S
C602 C605 1.409 . S
C603 H595 0.930 . S
C603 C604 1.355 . S
C603 C605 1.415 . S
C604 C603 1.355 . S
C604 C606 1.419 . S
C605 C600 1.425 . S
C605 C602 1.409 . S
C605 C603 1.415 . S
C606 H596 0.930 . S
C606 C604 1.419 . S
C606 C607 1.362 . S
C607 H597 0.930 . S
C607 C600 1.409 . S
C607 C606 1.362 . S
H608 C614 0.930 . S
H609 C617 0.930 . S
H610 C618 0.930 . S
H611 C619 0.930 . S
H612 C622 0.930 . S
H613 C623 0.930 . S
C614 H608 0.930 . S
C614 C615 1.355 . S
C614 C616 1.415 . S
C615 C614 1.355 . S
C615 C617 1.419 . S
C616 C614 1.415 . S
C616 C621 1.425 . S
C616 C623 1.409 . S
C617 H609 0.930 . S
C617 C615 1.419 . S
C617 C618 1.362 . S
C618 H610 0.930 . S
C618 C617 1.362 . S
C618 C621 1.409 . S
C619 H611 0.930 . S
C619 C620 1.355 . S
C619 C621 1.415 . S
C620 C619 1.355 . S
C620 C622 1.419 . S
C621 C616 1.425 . S
C621 C618 1.409 . S
C621 C619 1.415 . S
C622 H612 0.930 . S
C622 C620 1.419 . S
C622 C623 1.362 . S
C623 H613 0.930 . S
C623 C616 1.409 . S
C623 C622 1.362 . S
H624 C630 0.930 . S
H625 C633 0.930 . S
H626 C634 0.930 1_655 S
H627 C635 0.930 1_655 S
H628 C638 0.930 . S
H629 C639 0.930 . S
C630 H624 0.930 . S
C630 C631 1.355 . S
C630 C632 1.415 . S
C631 C630 1.355 . S
C631 C633 1.419 . S
C632 C630 1.415 . S
C632 C637 1.425 . S
C632 C639 1.409 . S
C633 H625 0.930 . S
C633 C631 1.419 . S
C633 C634 1.362 . S
C634 H626 0.930 1_455 S
C634 C633 1.362 . S
C634 C637 1.409 . S
C635 H627 0.930 1_455 S
C635 C636 1.355 . S
C635 C637 1.415 . S
C636 C635 1.355 . S
C636 C638 1.419 . S
C637 C632 1.425 . S
C637 C634 1.409 . S
C637 C635 1.415 . S
C638 H628 0.930 . S
C638 C636 1.419 . S
C638 C639 1.362 . S
C639 H629 0.930 . S
C639 C632 1.409 . S
C639 C638 1.362 . S
H640 C646 0.930 . S
H641 C649 0.930 . S
H642 C650 0.930 . S
H643 C651 0.930 . S
H644 C654 0.930 1_455 S
H645 C655 0.930 . S
C646 H640 0.930 . S
C646 C647 1.355 1_455 S
C646 C648 1.415 1_455 S
C647 C646 1.355 1_655 S
C647 C649 1.419 . S
C648 C646 1.415 1_655 S
C648 C653 1.425 . S
C648 C655 1.409 1_655 S
C649 H641 0.930 . S
C649 C647 1.419 . S
C649 C650 1.362 . S
C650 H642 0.930 . S
C650 C649 1.362 . S
C650 C653 1.409 . S
C651 H643 0.930 . S
C651 C652 1.355 . S
C651 C653 1.415 . S
C652 C651 1.355 . S
C652 C654 1.419 . S
C653 C648 1.425 . S
C653 C650 1.409 . S
C653 C651 1.415 . S
C654 H644 0.930 1_655 S
C654 C652 1.419 . S
C654 C655 1.362 1_655 S
C655 H645 0.930 . S
C655 C648 1.409 1_455 S
C655 C654 1.362 1_455 S
H656 C662 0.930 . S
H657 C665 0.930 . S
H658 C666 0.930 . S
H659 C667 0.930 . S
H660 C670 0.930 . S
H661 C671 0.930 . S
C662 H656 0.930 . S
C662 C663 1.355 . S
C662 C664 1.415 . S
C663 C662 1.355 . S
C663 C665 1.419 . S
C664 C662 1.415 . S
C664 C669 1.425 . S
C664 C671 1.409 . S
C665 H657 0.930 . S
C665 C663 1.419 . S
C665 C666 1.362 . S
C666 H658 0.930 . S
C666 C665 1.362 . S
C666 C669 1.409 . S
C667 H659 0.930 . S
C667 C668 1.355 . S
C667 C669 1.415 . S
C668 C667 1.355 . S
C668 C670 1.419 . S
C669 C664 1.425 . S
C669 C666 1.409 . S
C669 C667 1.415 . S
C670 H660 0.930 . S
C670 C668 1.419 . S
C670 C671 1.362 . S
C671 H661 0.930 . S
C671 C664 1.409 . S
C671 C670 1.362 . S
H672 C678 0.930 . S
H673 C681 0.930 . S
H674 C682 0.930 . S
H675 C683 0.930 . S
H676 C686 0.930 . S
H677 C687 0.930 . S
C678 H672 0.930 . S
C678 C679 1.355 . S
C678 C680 1.415 . S
C679 C678 1.355 . S
C679 C681 1.419 . S
C680 C678 1.415 . S
C680 C685 1.425 . S
C680 C687 1.409 . S
C681 H673 0.930 . S
C681 C679 1.419 . S
C681 C682 1.362 . S
C682 H674 0.930 . S
C682 C681 1.362 . S
C682 C685 1.409 . S
C683 H675 0.930 . S
C683 C684 1.355 . S
C683 C685 1.415 . S
C684 C683 1.355 . S
C684 C686 1.419 . S
C685 C680 1.425 . S
C685 C682 1.409 . S
C685 C683 1.415 . S
C686 H676 0.930 . S
C686 C684 1.419 . S
C686 C687 1.362 . S
C687 H677 0.930 . S
C687 C680 1.409 . S
C687 C686 1.362 . S
H688 C694 0.930 . S
H689 C697 0.930 . S
H690 C698 0.930 . S
H691 C699 0.930 . S
H692 C702 0.930 . S
H693 C703 0.930 . S
C694 H688 0.930 . S
C694 C695 1.355 . S
C694 C696 1.415 . S
C695 C694 1.355 . S
C695 C697 1.419 . S
C696 C694 1.415 . S
C696 C701 1.425 . S
C696 C703 1.409 . S
C697 H689 0.930 . S
C697 C695 1.419 . S
C697 C698 1.362 . S
C698 H690 0.930 . S
C698 C697 1.362 . S
C698 C701 1.409 . S
C699 H691 0.930 . S
C699 C700 1.355 . S
C699 C701 1.415 . S
C700 C699 1.355 . S
C700 C702 1.419 . S
C701 C696 1.425 . S
C701 C698 1.409 . S
C701 C699 1.415 . S
C702 H692 0.930 . S
C702 C700 1.419 . S
C702 C703 1.362 . S
C703 H693 0.930 . S
C703 C696 1.409 . S
C703 C702 1.362 . S
H704 C710 0.930 . S
H705 C713 0.930 . S
H706 C714 0.930 . S
H707 C715 0.930 . S
H708 C718 0.930 . S
H709 C719 0.930 . S
C710 H704 0.930 . S
C710 C711 1.355 . S
C710 C712 1.415 . S
C711 C710 1.355 . S
C711 C713 1.419 . S
C712 C710 1.415 . S
C712 C717 1.425 . S
C712 C719 1.409 . S
C713 H705 0.930 . S
C713 C711 1.419 . S
C713 C714 1.362 . S
C714 H706 0.930 . S
C714 C713 1.362 . S
C714 C717 1.409 . S
C715 H707 0.930 . S
C715 C716 1.355 . S
C715 C717 1.415 . S
C716 C715 1.355 . S
C716 C718 1.419 . S
C717 C712 1.425 . S
C717 C714 1.409 . S
C717 C715 1.415 . S
C718 H708 0.930 . S
C718 C716 1.419 . S
C718 C719 1.362 . S
C719 H709 0.930 . S
C719 C712 1.409 . S
C719 C718 1.362 . S
H720 C726 0.930 . S
H721 C729 0.930 . S
H722 C730 0.930 . S
H723 C731 0.930 . S
H724 C734 0.930 . S
H725 C735 0.930 1_554 S
C726 H720 0.930 . S
C726 C727 1.355 . S
C726 C728 1.411 . S
C727 C726 1.355 . S
C727 C729 1.419 . S
C728 C726 1.411 . S
C728 C733 1.428 1_554 S
C728 C735 1.410 1_554 S
C729 H721 0.930 . S
C729 C727 1.419 . S
C729 C730 1.362 1_554 S
C730 H722 0.930 . S
C730 C729 1.362 1_556 S
C730 C733 1.409 . S
C731 H723 0.930 . S
C731 C732 1.355 . S
C731 C733 1.415 . S
C732 C731 1.355 . S
C732 C734 1.419 . S
C733 C728 1.428 1_556 S
C733 C730 1.409 . S
C733 C731 1.415 . S
C734 H724 0.930 . S
C734 C732 1.419 . S
C734 C735 1.362 . S
C735 H725 0.930 1_556 S
C735 C728 1.410 1_556 S
C735 C734 1.362 . S
H736 C742 0.930 . S
H737 C745 0.930 . S
H738 C746 0.930 . S
H739 C747 0.930 . S
H740 C750 0.930 . S
H741 C751 0.930 . S
C742 H736 0.930 . S
C742 C743 1.355 . S
C742 C744 1.415 . S
C743 C742 1.355 . S
C743 C745 1.419 . S
C744 C742 1.415 . S
C744 C749 1.425 . S
C744 C751 1.409 . S
C745 H737 0.930 . S
C745 C743 1.419 . S
C745 C746 1.362 . S
C746 H738 0.930 . S
C746 C745 1.362 . S
C746 C749 1.409 . S
C747 H739 0.930 . S
C747 C748 1.355 . S
C747 C749 1.415 . S
C748 C747 1.355 . S
C748 C750 1.419 . S
C749 C744 1.425 . S
C749 C746 1.409 . S
C749 C747 1.415 . S
C750 H740 0.930 . S
C750 C748 1.419 . S
C750 C751 1.362 . S
C751 H741 0.930 . S
C751 C744 1.409 . S
C751 C750 1.362 . S
H752 C758 0.933 . S
H753 C761 0.930 . S
H754 C762 0.930 . S
H755 C763 0.930 . S
H756 C766 0.930 . S
H757 C767 0.930 . S
C758 H752 0.933 . S
C758 C759 1.355 . S
C758 C760 1.415 1_554 S
C759 C758 1.355 . S
C759 C761 1.419 . S
C760 C758 1.415 1_556 S
C760 C765 1.425 . S
C760 C767 1.409 . S
C761 H753 0.930 . S
C761 C759 1.419 . S
C761 C762 1.362 . S
C762 H754 0.930 . S
C762 C761 1.362 . S
C762 C765 1.409 1_554 S
C763 H755 0.930 . S
C763 C764 1.355 . S
C763 C765 1.415 . S
C764 C763 1.355 . S
C764 C766 1.419 . S
C765 C760 1.425 . S
C765 C762 1.409 1_556 S
C765 C763 1.415 . S
C766 H756 0.930 . S
C766 C764 1.419 . S
C766 C767 1.362 . S
C767 H757 0.930 . S
C767 C760 1.409 . S
C767 C766 1.362 . S
H768 C774 0.930 . S
H769 C777 0.930 . S
H770 C778 0.930 . S
H771 C779 0.930 . S
H772 C782 0.930 . S
H773 C783 0.930 . S
C774 H768 0.930 . S
C774 C775 1.355 . S
C774 C776 1.415 . S
C775 C774 1.355 . S
C775 C777 1.419 . S
C776 C774 1.415 . S
C776 C781 1.425 . S
C776 C783 1.409 . S
C777 H769 0.930 . S
C777 C775 1.419 . S
C777 C778 1.362 . S
C778 H770 0.930 . S
C778 C777 1.362 . S
C778 C781 1.409 . S
C779 H771 0.930 . S
C779 C780 1.355 . S
C779 C781 1.415 . S
C780 C779 1.355 . S
C780 C782 1.419 . S
C781 C776 1.425 . S
C781 C778 1.409 . S
C781 C779 1.415 . S
C782 H772 0.930 . S
C782 C780 1.419 . S
C782 C783 1.362 . S
C783 H773 0.930 . S
C783 C776 1.409 . S
C783 C782 1.362 . S
H784 C790 0.930 . S
H785 C793 0.930 . S
H786 C794 0.930 . S
H787 C795 0.930 . S
H788 C798 0.930 . S
H789 C799 0.930 . S
C790 H784 0.930 . S
C790 C791 1.355 . S
C790 C792 1.415 . S
C791 C790 1.355 . S
C791 C793 1.419 . S
C792 C790 1.415 . S
C792 C797 1.425 . S
C792 C799 1.409 . S
C793 H785 0.930 . S
C793 C791 1.419 . S
C793 C794 1.362 . S
C794 H786 0.930 . S
C794 C793 1.362 . S
C794 C797 1.409 . S
C795 H787 0.930 . S
C795 C796 1.355 . S
C795 C797 1.415 . S
C796 C795 1.355 . S
C796 C798 1.419 . S
C797 C792 1.425 . S
C797 C794 1.409 . S
C797 C795 1.415 . S
C798 H788 0.930 . S
C798 C796 1.419 . S
C798 C799 1.362 . S
C799 H789 0.930 . S
C799 C792 1.409 . S
C799 C798 1.362 . S
H800 C806 0.930 . S
H801 C809 0.930 . S
H802 C810 0.930 . S
H803 C811 0.930 . S
H804 C814 0.930 . S
H805 C815 0.930 . S
C806 H800 0.930 . S
C806 C807 1.355 . S
C806 C808 1.415 . S
C807 C806 1.355 . S
C807 C809 1.419 . S
C808 C806 1.415 . S
C808 C813 1.425 . S
C808 C815 1.409 . S
C809 H801 0.930 . S
C809 C807 1.419 . S
C809 C810 1.362 . S
C810 H802 0.930 . S
C810 C809 1.362 . S
C810 C813 1.409 . S
C811 H803 0.930 . S
C811 C812 1.355 . S
C811 C813 1.415 . S
C812 C811 1.355 . S
C812 C814 1.419 . S
C813 C808 1.425 . S
C813 C810 1.409 . S
C813 C811 1.415 . S
C814 H804 0.930 . S
C814 C812 1.419 . S
C814 C815 1.362 . S
C815 H805 0.930 . S
C815 C808 1.409 . S
C815 C814 1.362 . S
H816 C822 0.930 . S
H817 C825 0.930 . S
H818 C826 0.930 1_565 S
H819 C827 0.930 . S
H820 C830 0.930 . S
H821 C831 0.930 1_545 S
C822 H816 0.930 . S
C822 C823 1.355 . S
C822 C824 1.415 . S
C823 C822 1.355 . S
C823 C825 1.419 . S
C824 C822 1.415 . S
C824 C829 1.425 1_545 S
C824 C831 1.409 1_545 S
C825 H817 0.930 . S
C825 C823 1.419 . S
C825 C826 1.362 . S
C826 H818 0.930 1_545 S
C826 C825 1.362 . S
C826 C829 1.409 1_545 S
C827 H819 0.930 . S
C827 C828 1.355 . S
C827 C829 1.415 . S
C828 C827 1.355 . S
C828 C830 1.419 . S
C829 C824 1.425 1_565 S
C829 C826 1.409 1_565 S
C829 C827 1.415 . S
C830 H820 0.930 . S
C830 C828 1.419 . S
C830 C831 1.362 . S
C831 H821 0.930 1_565 S
C831 C824 1.409 1_565 S
C831 C830 1.362 . S
H832 C838 0.930 . S
H833 C841 0.930 . S
H834 C842 0.930 . S
H835 C843 0.930 . S
H836 C846 0.930 . S
H837 C847 0.930 . S
C838 H832 0.930 . S
C838 C839 1.355 . S
C838 C840 1.415 . S
C839 C838 1.355 . S
C839 C841 1.419 . S
C840 C838 1.415 . S
C840 C845 1.425 . S
C840 C847 1.409 . S
C841 H833 0.930 . S
C841 C839 1.419 . S
C841 C842 1.362 . S
C842 H834 0.930 . S
C842 C841 1.362 . S
C842 C845 1.409 . S
C843 H835 0.930 . S
C843 C844 1.355 . S
C843 C845 1.415 . S
C844 C843 1.355 . S
C844 C846 1.419 . S
C845 C840 1.425 . S
C845 C842 1.409 . S
C845 C843 1.415 . S
C846 H836 0.930 . S
C846 C844 1.419 . S
C846 C847 1.362 . S
C847 H837 0.930 . S
C847 C840 1.409 . S
C847 C846 1.362 . S
H848 C854 0.930 . S
H849 C857 0.930 . S
H850 C858 0.930 . S
H851 C859 0.930 . S
H852 C862 0.930 . S
H853 C863 0.930 . S
C854 H848 0.930 . S
C854 C855 1.355 . S
C854 C856 1.415 1_545 S
C855 C854 1.355 . S
C855 C857 1.419 . S
C856 C854 1.415 1_565 S
C856 C861 1.425 . S
C856 C863 1.409 . S
C857 H849 0.930 . S
C857 C855 1.419 . S
C857 C858 1.362 . S
C858 H850 0.930 . S
C858 C857 1.362 . S
C858 C861 1.409 1_545 S
C859 H851 0.930 . S
C859 C860 1.355 . S
C859 C861 1.415 . S
C860 C859 1.355 . S
C860 C862 1.419 . S
C861 C856 1.425 . S
C861 C858 1.409 1_565 S
C861 C859 1.415 . S
C862 H852 0.930 . S
C862 C860 1.419 . S
C862 C863 1.362 . S
C863 H853 0.930 . S
C863 C856 1.409 . S
C863 C862 1.362 . S
H864 C870 0.930 . S
H865 C873 0.930 . S
H866 C874 0.930 . S
H867 C875 0.930 . S
H868 C878 0.930 . S
H869 C879 0.930 . S
C870 H864 0.930 . S
C870 C871 1.355 . S
C870 C872 1.415 . S
C871 C870 1.355 . S
C871 C873 1.419 . S
C872 C870 1.415 . S
C872 C877 1.425 . S
C872 C879 1.409 . S
C873 H865 0.930 . S
C873 C871 1.419 . S
C873 C874 1.362 . S
C874 H866 0.930 . S
C874 C873 1.362 . S
C874 C877 1.409 . S
C875 H867 0.930 . S
C875 C876 1.355 . S
C875 C877 1.415 . S
C876 C875 1.355 . S
C876 C878 1.419 . S
C877 C872 1.425 . S
C877 C874 1.409 . S
C877 C875 1.415 . S
C878 H868 0.930 . S
C878 C876 1.419 . S
C878 C879 1.362 . S
C879 H869 0.930 . S
C879 C872 1.409 . S
C879 C878 1.362 . S
H880 C886 0.930 . S
H881 C889 0.930 1_455 S
H882 C890 0.930 1_455 S
H883 C891 0.930 . S
H884 C894 0.930 . S
H885 C895 0.930 . S
C886 H880 0.930 . S
C886 C887 1.355 . S
C886 C888 1.415 . S
C887 C886 1.355 . S
C887 C889 1.419 . S
C888 C886 1.415 . S
C888 C893 1.425 . S
C888 C895 1.409 . S
C889 H881 0.930 1_655 S
C889 C887 1.419 . S
C889 C890 1.362 . S
C890 H882 0.930 1_655 S
C890 C889 1.362 . S
C890 C893 1.409 . S
C891 H883 0.930 . S
C891 C892 1.355 . S
C891 C893 1.415 . S
C892 C891 1.355 . S
C892 C894 1.419 . S
C893 C888 1.425 . S
C893 C890 1.409 . S
C893 C891 1.415 . S
C894 H884 0.930 . S
C894 C892 1.419 . S
C894 C895 1.362 . S
C895 H885 0.930 . S
C895 C888 1.409 . S
C895 C894 1.362 . S
H896 C902 0.930 . S
H897 C905 0.930 . S
H898 C906 0.930 . S
H899 C907 0.930 . S
H900 C910 0.930 . S
H901 C911 0.930 . S
C902 H896 0.930 . S
C902 C903 1.355 . S
C902 C904 1.415 . S
C903 C902 1.355 . S
C903 C905 1.419 . S
C904 C902 1.415 . S
C904 C909 1.425 . S
C904 C911 1.409 . S
C905 H897 0.930 . S
C905 C903 1.419 . S
C905 C906 1.362 . S
C906 H898 0.930 . S
C906 C905 1.362 . S
C906 C909 1.409 . S
C907 H899 0.930 . S
C907 C908 1.355 . S
C907 C909 1.415 . S
C908 C907 1.355 . S
C908 C910 1.419 . S
C909 C904 1.425 . S
C909 C906 1.409 . S
C909 C907 1.415 . S
C910 H900 0.930 . S
C910 C908 1.419 . S
C910 C911 1.362 . S
C911 H901 0.930 . S
C911 C904 1.409 . S
C911 C910 1.362 . S
H912 C918 0.930 . S
H913 C921 0.930 . S
H914 C922 0.930 . S
H915 C923 0.930 . S
H916 C926 0.930 . S
H917 C927 0.930 . S
C918 H912 0.930 . S
C918 C919 1.355 . S
C918 C920 1.415 . S
C919 C918 1.355 . S
C919 C921 1.419 . S
C920 C918 1.415 . S
C920 C925 1.425 . S
C920 C927 1.409 . S
C921 H913 0.930 . S
C921 C919 1.419 . S
C921 C922 1.362 . S
C922 H914 0.930 . S
C922 C921 1.362 . S
C922 C925 1.409 . S
C923 H915 0.930 . S
C923 C924 1.355 . S
C923 C925 1.415 . S
C924 C923 1.355 . S
C924 C926 1.419 . S
C925 C920 1.425 . S
C925 C922 1.409 . S
C925 C923 1.415 . S
C926 H916 0.930 . S
C926 C924 1.419 . S
C926 C927 1.362 . S
C927 H917 0.930 . S
C927 C920 1.409 . S
C927 C926 1.362 . S
H928 C934 0.930 . S
H929 C937 0.930 . S
H930 C938 0.930 . S
H931 C939 0.930 . S
H932 C942 0.930 . S
H933 C943 0.930 . S
C934 H928 0.930 . S
C934 C935 1.355 . S
C934 C936 1.415 . S
C935 C934 1.355 . S
C935 C937 1.419 . S
C936 C934 1.415 . S
C936 C941 1.425 . S
C936 C943 1.409 . S
C937 H929 0.930 . S
C937 C935 1.419 . S
C937 C938 1.362 . S
C938 H930 0.930 . S
C938 C937 1.362 . S
C938 C941 1.409 . S
C939 H931 0.930 . S
C939 C940 1.355 . S
C939 C941 1.415 . S
C940 C939 1.355 . S
C940 C942 1.419 . S
C941 C936 1.425 . S
C941 C938 1.409 . S
C941 C939 1.415 . S
C942 H932 0.930 . S
C942 C940 1.419 . S
C942 C943 1.362 . S
C943 H933 0.930 . S
C943 C936 1.409 . S
C943 C942 1.362 . S
H944 C950 0.930 . S
H945 C953 0.930 . S
H946 C954 0.930 . S
H947 C955 0.930 . S
H948 C958 0.930 . S
H949 C959 0.930 . S
C950 H944 0.930 . S
C950 C951 1.355 . S
C950 C952 1.415 . S
C951 C950 1.355 . S
C951 C953 1.419 . S
C952 C950 1.415 . S
C952 C957 1.425 . S
C952 C959 1.409 . S
C953 H945 0.930 . S
C953 C951 1.419 . S
C953 C954 1.362 . S
C954 H946 0.930 . S
C954 C953 1.362 . S
C954 C957 1.409 . S
C955 H947 0.930 . S
C955 C956 1.355 . S
C955 C957 1.415 . S
C956 C955 1.355 . S
C956 C958 1.419 . S
C957 C952 1.425 . S
C957 C954 1.409 . S
C957 C955 1.415 . S
C958 H948 0.930 . S
C958 C956 1.419 . S
C958 C959 1.362 . S
C959 H949 0.930 . S
C959 C952 1.409 . S
C959 C958 1.362 . S
H960 C966 0.930 . S
H961 C969 0.930 . S
H962 C970 0.930 . S
H963 C971 0.930 . S
H964 C974 0.930 . S
H965 C975 0.930 . S
C966 H960 0.930 . S
C966 C967 1.355 . S
C966 C968 1.415 . S
C967 C966 1.355 . S
C967 C969 1.419 . S
C968 C966 1.415 . S
C968 C973 1.425 . S
C968 C975 1.409 1_455 S
C969 H961 0.930 . S
C969 C967 1.419 . S
C969 C970 1.362 . S
C970 H962 0.930 . S
C970 C969 1.362 . S
C970 C973 1.409 . S
C971 H963 0.930 . S
C971 C972 1.355 . S
C971 C973 1.415 1_655 S
C972 C971 1.355 . S
C972 C974 1.419 . S
C973 C968 1.425 . S
C973 C970 1.409 . S
C973 C971 1.415 1_455 S
C974 H964 0.930 . S
C974 C972 1.419 . S
C974 C975 1.362 . S
C975 H965 0.930 . S
C975 C968 1.409 1_655 S
C975 C974 1.362 . S
H976 C982 0.930 . S
H977 C985 0.930 . S
H978 C986 0.930 . S
H979 C987 0.930 . S
H980 C990 0.930 . S
H981 C991 0.930 . S
C982 H976 0.930 . S
C982 C983 1.355 . S
C982 C984 1.415 . S
C983 C982 1.355 . S
C983 C985 1.419 . S
C984 C982 1.415 . S
C984 C989 1.425 . S
C984 C991 1.409 . S
C985 H977 0.930 . S
C985 C983 1.419 . S
C985 C986 1.362 . S
C986 H978 0.930 . S
C986 C985 1.362 . S
C986 C989 1.409 . S
C987 H979 0.930 . S
C987 C988 1.355 . S
C987 C989 1.415 . S
C988 C987 1.355 . S
C988 C990 1.419 . S
C989 C984 1.425 . S
C989 C986 1.409 . S
C989 C987 1.415 . S
C990 H980 0.930 . S
C990 C988 1.419 . S
C990 C991 1.362 . S
C991 H981 0.930 . S
C991 C984 1.409 . S
C991 C990 1.362 . S
H992 C998 0.930 . S
H993 C1001 0.930 . S
H994 C1002 0.930 . S
H995 C1003 0.930 . S
H996 C1006 0.930 . S
H997 C1007 0.930 . S
C998 H992 0.930 . S
C998 C999 1.355 . S
C998 C1000 1.415 . S
C999 C998 1.355 . S
C999 C1001 1.419 . S
C1000 C998 1.415 . S
C1000 C1005 1.425 . S
C1000 C1007 1.409 . S
C1001 H993 0.930 . S
C1001 C999 1.419 . S
C1001 C1002 1.362 . S
C1002 H994 0.930 . S
C1002 C1001 1.362 . S
C1002 C1005 1.409 . S
C1003 H995 0.930 . S
C1003 C1004 1.355 . S
C1003 C1005 1.415 . S
C1004 C1003 1.355 . S
C1004 C1006 1.419 . S
C1005 C1000 1.425 . S
C1005 C1002 1.409 . S
C1005 C1003 1.415 . S
C1006 H996 0.930 . S
C1006 C1004 1.419 . S
C1006 C1007 1.362 . S
C1007 H997 0.930 . S
C1007 C1000 1.409 . S
C1007 C1006 1.362 . S
H1008 C1014 0.930 . S
H1009 C1017 0.930 . S
H1010 C1018 0.930 . S
H1011 C1019 0.930 . S
H1012 C1022 0.930 . S
H1013 C1023 0.930 . S
C1014 H1008 0.930 . S
C1014 C1015 1.355 . S
C1014 C1016 1.415 . S
C1015 C1014 1.355 . S
C1015 C1017 1.419 . S
C1016 C1014 1.415 . S
C1016 C1021 1.425 . S
C1016 C1023 1.409 . S
C1017 H1009 0.930 . S
C1017 C1015 1.419 . S
C1017 C1018 1.362 . S
C1018 H1010 0.930 . S
C1018 C1017 1.362 . S
C1018 C1021 1.409 . S
C1019 H1011 0.930 . S
C1019 C1020 1.355 . S
C1019 C1021 1.415 . S
C1020 C1019 1.355 . S
C1020 C1022 1.419 . S
C1021 C1016 1.425 . S
C1021 C1018 1.409 . S
C1021 C1019 1.415 . S
C1022 H1012 0.930 . S
C1022 C1020 1.419 . S
C1022 C1023 1.362 . S
C1023 H1013 0.930 . S
C1023 C1016 1.409 . S
C1023 C1022 1.362 . S
H1024 C1030 0.930 . S
H1025 C1033 0.930 . S
H1026 C1034 0.930 . S
H1027 C1035 0.930 . S
H1028 C1038 0.930 . S
H1029 C1039 0.930 . S
C1030 H1024 0.930 . S
C1030 C1031 1.355 . S
C1030 C1032 1.415 . S
C1031 C1030 1.355 . S
C1031 C1033 1.419 . S
C1032 C1030 1.415 . S
C1032 C1037 1.425 . S
C1032 C1039 1.409 . S
C1033 H1025 0.930 . S
C1033 C1031 1.419 . S
C1033 C1034 1.362 . S
C1034 H1026 0.930 . S
C1034 C1033 1.362 . S
C1034 C1037 1.409 . S
C1035 H1027 0.930 . S
C1035 C1036 1.355 . S
C1035 C1037 1.415 . S
C1036 C1035 1.355 . S
C1036 C1038 1.419 . S
C1037 C1032 1.425 . S
C1037 C1034 1.409 . S
C1037 C1035 1.415 . S
C1038 H1028 0.930 . S
C1038 C1036 1.419 . S
C1038 C1039 1.362 . S
C1039 H1029 0.930 . S
C1039 C1032 1.409 . S
C1039 C1038 1.362 . S
H1040 C1046 0.930 . S
H1041 C1049 0.930 . S
H1042 C1050 0.930 . S
H1043 C1051 0.930 . S
H1044 C1054 0.930 . S
H1045 C1055 0.930 . S
C1046 H1040 0.930 . S
C1046 C1047 1.355 . S
C1046 C1048 1.415 . S
C1047 C1046 1.355 . S
C1047 C1049 1.419 . S
C1048 C1046 1.415 . S
C1048 C1053 1.425 . S
C1048 C1055 1.409 1_655 S
C1049 H1041 0.930 . S
C1049 C1047 1.419 . S
C1049 C1050 1.362 . S
C1050 H1042 0.930 . S
C1050 C1049 1.362 . S
C1050 C1053 1.409 . S
C1051 H1043 0.930 . S
C1051 C1052 1.355 . S
C1051 C1053 1.415 1_455 S
C1052 C1051 1.355 . S
C1052 C1054 1.419 . S
C1053 C1048 1.425 . S
C1053 C1050 1.409 . S
C1053 C1051 1.415 1_655 S
C1054 H1044 0.930 . S
C1054 C1052 1.419 . S
C1054 C1055 1.362 . S
C1055 H1045 0.930 . S
C1055 C1048 1.409 1_455 S
C1055 C1054 1.362 . S
C487 C24 1.441 . S
C492 C463 1.435 . S
C503 C383 1.783 . S
C508 C63 1.737 . S
C519 C104 1.442 . S
C524 C343 1.508 . S
C535 C143 1.753 . S
C540 C424 1.685 . S
C551 C183 1.816 . S
C556 C423 1.784 . S
C567 C223 1.623 . S
C572 C464 1.531 . S
C583 C384 1.645 . S
C588 C263 1.735 . S
C599 C304 1.526 . S
C604 C344 1.473 . S
C615 C144 1.546 . S
C620 C184 1.625 . S
C631 C23 1.823 . S
C636 C224 1.766 . S
C647 C64 1.735 . S
C652 C264 1.733 . S
C663 C303 1.720 . S
C668 C103 1.757 . S
C679 C17 1.677 . S
C684 C322 1.690 . S
C695 C66 1.577 . S
C700 C413 1.589 . S
C711 C442 2.135 . S
C716 C97 2.110 . S
C727 C146 1.305 . S
C732 C362 1.270 . S
C743 C186 1.760 . S
C748 C373 1.773 . S
C759 C333 1.724 . S
C764 C226 1.719 . S
C775 C402 1.184 . S
C780 C266 1.241 . S
C791 C453 2.046 . S
C796 C297 1.943 . S
C807 C2 1.964 . S
C812 C137 1.953 . S
C823 C26 1.512 . S
C828 C53 1.517 . S
C839 C57 2.029 . S
C844 C82 2.028 . S
C855 C133 1.689 . S
C860 C106 1.683 . S
C871 C217 1.655 . S
C876 C173 1.727 . S
C887 C213 1.489 . S
C892 C257 1.420 . S
C903 C253 1.603 . S
C908 C306 1.597 . S
C919 C177 1.534 . S
C924 C282 1.546 . S
C935 C337 1.433 . S
C940 C122 1.430 . S
C951 C202 1.466 . S
C956 C386 1.528 . S
C967 C346 1.057 . S
C972 C242 1.061 . S
C983 C417 1.815 . S
C988 C293 1.927 . S
C999 C162 1.527 . S
C1004 C466 1.584 . S
C1015 C457 1.615 . S
C1020 C42 1.616 . S
C1031 C93 1.910 . S
C1036 C377 1.817 . S
C1047 C426 1.334 . S
C1052 C13 1.337 . S
