# Generated by pormake.
# Topology snz, (6)-cn, num edge types: 1
# Building blocks:
#     Node 0, Type 0, BuildingBlock: GEDQOX_clean_sbu_0, # of connection points: 6
#     Node 1, Type 0, BuildingBlock: GEDQOX_clean_sbu_0, # of connection points: 6
#     Node 2, Type 0, BuildingBlock: GEDQOX_clean_sbu_0, # of connection points: 6
#     Node 3, Type 0, BuildingBlock: GEDQOX_clean_sbu_0, # of connection points: 6
#     Node 4, Type 0, BuildingBlock: GEDQOX_clean_sbu_0, # of connection points: 6
#     Node 5, Type 0, BuildingBlock: GEDQOX_clean_sbu_0, # of connection points: 6
#     Node 6, Type 0, BuildingBlock: GEDQOX_clean_sbu_0, # of connection points: 6
#     Node 7, Type 0, BuildingBlock: GEDQOX_clean_sbu_0, # of connection points: 6
#     Node 8, Type 0, BuildingBlock: GEDQOX_clean_sbu_0, # of connection points: 6
#     Edge 9, Type (0, 0), BuildingBlock: EYOCIG_clean_linker_4, # of connection points: 2
#     Edge 10, Type (0, 0), BuildingBlock: EYOCIG_clean_linker_4, # of connection points: 2
#     Edge 11, Type (0, 0), BuildingBlock: EYOCIG_clean_linker_4, # of connection points: 2
#     Edge 12, Type (0, 0), BuildingBlock: EYOCIG_clean_linker_4, # of connection points: 2
#     Edge 13, Type (0, 0), BuildingBlock: EYOCIG_clean_linker_4, # of connection points: 2
#     Edge 14, Type (0, 0), BuildingBlock: EYOCIG_clean_linker_4, # of connection points: 2
#     Edge 15, Type (0, 0), BuildingBlock: EYOCIG_clean_linker_4, # of connection points: 2
#     Edge 16, Type (0, 0), BuildingBlock: EYOCIG_clean_linker_4, # of connection points: 2
#     Edge 17, Type (0, 0), BuildingBlock: EYOCIG_clean_linker_4, # of connection points: 2
#     Edge 18, Type (0, 0), BuildingBlock: EYOCIG_clean_linker_4, # of connection points: 2
#     Edge 19, Type (0, 0), BuildingBlock: EYOCIG_clean_linker_4, # of connection points: 2
#     Edge 20, Type (0, 0), BuildingBlock: EYOCIG_clean_linker_4, # of connection points: 2
#     Edge 21, Type (0, 0), BuildingBlock: EYOCIG_clean_linker_4, # of connection points: 2
#     Edge 22, Type (0, 0), BuildingBlock: EYOCIG_clean_linker_4, # of connection points: 2
#     Edge 23, Type (0, 0), BuildingBlock: EYOCIG_clean_linker_4, # of connection points: 2
#     Edge 24, Type (0, 0), BuildingBlock: EYOCIG_clean_linker_4, # of connection points: 2
#     Edge 25, Type (0, 0), BuildingBlock: EYOCIG_clean_linker_4, # of connection points: 2
#     Edge 26, Type (0, 0), BuildingBlock: EYOCIG_clean_linker_4, # of connection points: 2
#     Edge 27, Type (0, 0), BuildingBlock: EYOCIG_clean_linker_4, # of connection points: 2
#     Edge 28, Type (0, 0), BuildingBlock: EYOCIG_clean_linker_4, # of connection points: 2
#     Edge 29, Type (0, 0), BuildingBlock: EYOCIG_clean_linker_4, # of connection points: 2
#     Edge 30, Type (0, 0), BuildingBlock: EYOCIG_clean_linker_4, # of connection points: 2
#     Edge 31, Type (0, 0), BuildingBlock: EYOCIG_clean_linker_4, # of connection points: 2
#     Edge 32, Type (0, 0), BuildingBlock: EYOCIG_clean_linker_4, # of connection points: 2
#     Edge 33, Type (0, 0), BuildingBlock: EYOCIG_clean_linker_4, # of connection points: 2
#     Edge 34, Type (0, 0), BuildingBlock: EYOCIG_clean_linker_4, # of connection points: 2
#     Edge 35, Type (0, 0), BuildingBlock: EYOCIG_clean_linker_4, # of connection points: 2
# Relax obj value: 0.263
# Max RMSD: 0.277
# Mean RMSD: 0.228
data_MOF--net-snz--node1-GEDQOX_clean_sbu_0--edge1-EYOCIG_clean_linker_4
_symmetry_space_group_name_H-M    P1
_symmetry_Int_Tables_number       1
_symmetry_cell_setting            triclinic
loop_
_symmetry_equiv_pos_as_xyz
'x, y, z'
_cell_length_a     45.568977
_cell_length_b     62.8354
_cell_length_c     11.756139
_cell_angle_alpha  85.579465
_cell_angle_beta   86.496064
_cell_angle_gamma 120.39604
loop_
_atom_site_label
_atom_site_type_symbol
_atom_site_fract_x
_atom_site_fract_y
_atom_site_fract_z
_atom_type_partial_charge
Nd0 Nd 0.09293 0.61858 0.08223 0.0
Nd1 Nd 0.15662 0.66124 0.0685 0.0
C2 C 1.04596 0.57141 0.15077 0.0
C3 C 1.04645 0.5479 0.14302 0.0
C4 C 1.05452 0.53681 0.23559 0.0
C5 C 1.05468 0.51466 0.22743 0.0
C6 C 1.04687 0.50327 0.12666 0.0
C7 C 1.03936 0.51435 0.03397 0.0
C8 C 1.03916 0.53639 0.04188 0.0
C9 C 0.11771 0.63436 0.85791 0.0
C10 C 0.16222 0.61329 0.07363 0.0
C11 C 0.20947 0.70677 0.05836 0.0
C12 C 0.21378 0.73091 0.08138 0.0
C13 C 0.21279 0.74685 0.99299 0.0
C14 C 0.22213 0.77111 0.00975 0.0
C15 C 0.23238 0.77961 0.115 0.0
C16 C 0.23063 0.76328 0.20661 0.0
C17 C 0.22133 0.739 0.19004 0.0
C18 C 0.12934 0.64131 0.29092 0.0
C19 C 0.09271 0.66956 0.00555 0.0
O20 O 1.06548 0.5864 0.22041 0.0
O21 O 1.04624 0.58352 0.05474 0.0
O22 O 1.08596 0.62497 0.89768 0.0
O23 O 0.13639 0.63468 0.93462 0.0
O24 O 0.12901 0.60271 0.10125 0.0
O25 O 0.1808 0.63735 0.04016 0.0
O26 O 0.19477 0.69739 0.96798 0.0
O27 O 0.19979 0.69004 0.14715 0.0
O28 O 0.15913 0.6464 0.2479 0.0
O29 O 0.11302 0.64485 0.21542 0.0
O30 O 0.12605 0.67888 -0.00214 0.0
O31 O 1.07194 0.64593 0.05162 0.0
H32 H 1.06055 0.54519 0.31449 0.0
H33 H 1.06071 0.50639 0.29985 0.0
H34 H 1.03342 0.50586 0.95524 0.0
H35 H 1.03312 0.54434 0.96847 0.0
H36 H 0.20653 0.74103 0.90908 0.0
H37 H 0.22338 0.78365 0.9384 0.0
H38 H 0.23845 0.76971 0.28861 0.0
H39 H 0.22178 0.72705 0.26056 0.0
Nd40 Nd 0.63415 0.57421 0.13271 0.0
Nd41 Nd 0.62718 0.52072 0.14112 0.0
C42 C 0.65826 0.62173 0.08873 0.0
C43 C 0.69141 0.64241 0.1151 0.0
C44 C 0.71916 0.65501 0.02801 0.0
C45 C 0.74967 0.67577 0.04844 0.0
C46 C 0.75286 0.68413 0.15626 0.0
C47 C 0.72655 0.67057 0.24643 0.0
C48 C 0.69598 0.64969 0.22628 0.0
C49 C 0.63952 0.55801 0.35319 0.0
C50 C 0.70328 0.57156 0.10757 0.0
C51 C 0.62115 0.47788 0.21153 0.0
C52 C 0.60816 0.45359 0.17043 0.0
C53 C 0.59203 0.43202 0.25 0.0
C54 C 0.58314 0.40898 0.21422 0.0
C55 C 0.59049 0.40755 0.09847 0.0
C56 C 0.60484 0.42888 0.01806 0.0
C57 C 0.61364 0.45181 0.05355 0.0
C58 C 0.63379 0.53828 0.91565 0.0
C59 C 0.55679 0.52644 0.13384 0.0
O60 O 0.66015 0.6086 0.01023 0.0
O61 O 0.63493 0.60813 0.17587 0.0
O62 O 0.63994 0.57837 0.32615 0.0
O63 O 0.63509 0.54697 0.26578 0.0
O64 O 0.68863 0.58432 0.08239 0.0
O65 O 0.68569 0.54752 0.14655 0.0
O66 O 0.5984 0.48367 0.24553 0.0
O67 O 0.64877 0.49642 0.15176 0.0
O68 O 0.62942 0.5167 0.94955 0.0
O69 O 0.63333 0.54941 0.00079 0.0
O70 O 0.56973 0.51159 0.15103 0.0
O71 O 0.57636 0.55105 0.11777 0.0
H72 H 0.71686 0.6494 0.94264 0.0
H73 H 0.77001 0.68604 0.97828 0.0
H74 H 0.72894 0.67683 0.3306 0.0
H75 H 0.67562 0.6399 0.29658 0.0
H76 H 0.58742 0.43317 0.34023 0.0
H77 H 0.57172 0.39258 0.27718 0.0
H78 H 0.61033 0.42793 0.92816 0.0
H79 H 0.62575 0.46818 0.99027 0.0
Nd80 Nd 0.77693 0.15646 0.17953 0.0
Nd81 Nd 0.78515 0.11266 0.19269 0.0
C82 C 0.76755 0.19052 0.25397 0.0
C83 C 0.73935 0.19495 0.253 0.0
C84 C 0.71857 0.18982 0.35627 0.0
C85 C 0.69335 0.19591 0.36035 0.0
C86 C 0.68946 0.20752 0.26185 0.0
C87 C 0.70794 0.21071 0.15598 0.0
C88 C 0.73287 0.20426 0.15123 0.0
C89 C 0.77457 0.14444 0.95842 0.0
C90 C 0.7062 0.10299 0.1937 0.0
C91 C 0.80561 0.07964 0.19541 0.0
C92 C 0.83328 0.07362 0.20316 0.0
C93 C 0.85125 0.07267 0.10374 0.0
C94 C 0.86969 0.06027 0.11028 0.0
C95 C 0.87035 0.04859 0.21608 0.0
C96 C 0.85527 0.05155 0.31643 0.0
C97 C 0.837 0.06399 0.31015 0.0
C98 C 0.78085 0.12864 0.4005 0.0
C99 C 0.85167 0.17051 0.10418 0.0
O100 O 0.7608 0.17045 0.32022 0.0
O101 O 0.7851 0.19413 0.15446 0.0
O102 O 0.77088 0.16242 0.98859 0.0
O103 O 0.7784 0.13293 0.04363 0.0
O104 O 0.72007 0.12619 0.21469 0.0
O105 O 0.72581 0.0932 0.17182 0.0
O106 O 0.80312 0.09057 0.10038 0.0
O107 O 0.79553 0.08576 0.28664 0.0
O108 O 0.76223 0.10585 0.38113 0.0
O109 O 0.7993 0.14233 0.3101 0.0
O110 O 0.839 0.14614 0.10883 0.0
O111 O 0.83363 0.17953 0.14448 0.0
H112 H 0.72286 0.18218 0.43501 0.0
H113 H 0.67907 0.19358 0.44212 0.0
H114 H 0.70482 0.21975 0.07917 0.0
H115 H 0.748 0.20771 0.06978 0.0
H116 H 0.84922 0.08002 0.02013 0.0
H117 H 0.88161 0.05851 0.03181 0.0
H118 H 0.85577 0.04294 0.3992 0.0
H119 H 0.8237 0.06442 0.38871 0.0
Nd120 Nd 0.9333 0.92019 0.25363 0.0
Nd121 Nd 0.99699 0.9629 0.24012 0.0
C122 C 0.88055 0.87465 0.26219 0.0
C123 C 0.87636 0.8505 0.24011 0.0
C124 C 0.87763 0.83475 0.32881 0.0
C125 C 0.86843 0.81047 0.31276 0.0
C126 C 0.85806 0.80178 0.20792 0.0
C127 C 0.85953 0.81793 0.116 0.0
C128 C 0.86868 0.84221 0.13185 0.0
C129 C 0.96049 0.94018 0.03121 0.0
C130 C 0.99722 0.91194 0.31695 0.0
C131 C 1.04386 1.01007 0.17105 0.0
C132 C 1.04342 1.03359 0.17925 0.0
C133 C 1.03539 0.04475 0.08691 0.0
C134 C 1.03529 0.06692 0.09545 0.0
C135 C 1.04313 0.07824 0.1964 0.0
C136 C 1.0506 0.06708 0.28888 0.0
C137 C 1.05073 0.04503 0.28058 0.0
C138 C 0.97207 0.94694 0.46426 0.0
C139 C 0.92758 0.9681 0.24926 0.0
O140 O 0.89471 0.88404 0.35335 0.0
O141 O 0.89071 0.89137 0.17308 0.0
O142 O 0.93076 0.93516 0.07458 0.0
O143 O 0.97692 0.93671 0.1065 0.0
O144 O 0.96388 0.90261 0.32485 0.0
O145 O 1.01798 0.93555 0.27064 0.0
O146 O 1.02412 0.99507 0.10185 0.0
O147 O 1.04381 0.99798 0.26675 0.0
O148 O 1.00388 0.95645 0.42481 0.0
O149 O 0.95354 0.94676 0.38733 0.0
O150 O 0.96083 0.97874 0.22224 0.0
O151 O 0.909 0.944 0.28195 0.0
H152 H 0.88401 0.84073 0.4124 0.0
H153 H 0.86739 0.79808 0.38437 0.0
H154 H 0.85162 0.81135 0.03431 0.0
H155 H 0.86802 0.85403 0.0611 0.0
H156 H 1.02933 1.03643 0.00788 0.0
H157 H 1.02929 0.07525 0.02321 0.0
H158 H 1.05657 0.07552 0.36773 0.0
H159 H 1.05675 1.03702 0.35383 0.0
Nd160 Nd 0.46293 0.061 0.18129 0.0
Nd161 Nd 0.45592 1.00753 0.18951 0.0
C162 C 0.46887 0.10382 0.11101 0.0
C163 C 0.48184 0.12809 0.15215 0.0
C164 C 0.49796 0.14966 0.07261 0.0
C165 C 0.50684 0.1727 0.10842 0.0
C166 C 0.49947 0.1741 0.22417 0.0
C167 C 0.48513 0.15278 0.30457 0.0
C168 C 0.47634 0.12986 0.26905 0.0
C169 C 0.45628 0.04343 0.40674 0.0
C170 C 0.53334 0.05531 0.18821 0.0
C171 C 0.43198 0.96003 0.23346 0.0
C172 C 0.3989 0.93926 0.20719 0.0
C173 C 0.37123 0.92655 0.29452 0.0
C174 C 0.3408 0.90571 0.2743 0.0
C175 C 0.33761 0.89735 0.16647 0.0
C176 C 0.36382 0.911 0.07609 0.0
C177 C 0.39431 0.93198 0.09601 0.0
C178 C 0.45042 1.02369 0.96914 0.0
C179 C 0.3868 1.01018 0.21498 0.0
O180 O 0.49164 0.09805 0.0769 0.0
O181 O 0.44127 0.08526 0.17082 0.0
O182 O 0.4607 0.06503 0.37283 0.0
O183 O 0.45677 1.0323 0.32162 0.0
O184 O 0.5204 0.07015 0.17122 0.0
O185 O 0.51375 1.03069 0.20418 0.0
O186 O 0.42998 0.97313 0.3119 0.0
O187 O 0.45528 0.97366 0.1463 0.0
O188 O 0.44998 1.00333 -0.00382 0.0
O189 O 0.45493 1.03476 0.05649 0.0
O190 O 0.40144 0.9974 0.23996 0.0
O191 O 0.40441 1.03422 0.17608 0.0
H192 H 0.50259 0.14853 0.98237 0.0
H193 H 0.51826 0.1891 0.0455 0.0
H194 H 0.47963 0.15372 0.39447 0.0
H195 H 0.46424 0.11348 0.3323 0.0
H196 H 0.37355 0.93215 0.37991 0.0
H197 H 0.32054 0.89536 0.34461 0.0
H198 H 0.36143 0.90474 0.99191 0.0
H199 H 0.4146 0.94185 0.02555 0.0
Nd200 Nd 0.30502 0.46884 0.12912 0.0
Nd201 Nd 0.31334 0.42501 0.14359 0.0
C202 C 0.28424 0.50167 0.12134 0.0
C203 C 0.2567 0.50786 0.1167 0.0
C204 C 0.23924 0.50892 0.21713 0.0
C205 C 0.22074 0.5213 0.21191 0.0
C206 C 0.21958 0.53287 0.10651 0.0
C207 C 0.23424 0.52984 0.00539 0.0
C208 C 0.25251 0.51741 0.01036 0.0
C209 C 0.31015 0.45305 0.92203 0.0
C210 C 0.23865 0.41103 0.21889 0.0
C211 C 0.32279 0.39094 0.06952 0.0
C212 C 0.35098 0.38647 0.06942 0.0
C213 C 0.37165 0.3917 0.96574 0.0
C214 C 0.39673 0.38546 0.96048 0.0
C215 C 0.40061 0.37364 0.05822 0.0
C216 C 0.38221 0.3703 0.1645 0.0
C217 C 0.35741 0.37688 0.17041 0.0
C218 C 0.31536 0.4371 0.3643 0.0
C219 C 0.38401 0.47867 0.12844 0.0
O220 O 0.28935 0.49269 0.2173 0.0
O221 O 0.29157 0.49355 0.03181 0.0
O222 O 0.32885 0.4758 0.94201 0.0
O223 O 0.29146 0.43924 0.0119 0.0
O224 O 0.25144 0.4354 0.2152 0.0
O225 O 0.25658 0.40202 0.1775 0.0
O226 O 0.32936 0.41093 0.00307 0.0
O227 O 0.30552 0.38745 0.16948 0.0
O228 O 0.31914 0.41912 0.33468 0.0
O229 O 0.31161 0.4486 0.27881 0.0
O230 O 0.37018 0.45537 0.10901 0.0
O231 O 0.3644 0.48852 0.14893 0.0
H232 H 0.24162 0.50161 0.30026 0.0
H233 H 0.20913 0.52311 0.29096 0.0
H234 H 0.23337 0.53837 0.92294 0.0
H235 H 0.26545 0.51688 0.93112 0.0
H236 H 0.36738 0.39952 0.88753 0.0
H237 H 0.41094 0.38792 0.8784 0.0
H238 H 0.38532 0.36109 0.24072 0.0
H239 H 0.34233 0.37329 0.25212 0.0
Nd240 Nd 0.50943 0.29208 0.66283 0.0
Nd241 Nd 0.58054 0.29011 0.65986 0.0
C242 C 0.4488 0.28464 0.6373 0.0
C243 C 0.43618 0.28901 0.53229 0.0
C244 C 0.4316 0.27433 0.44298 0.0
C245 C 0.428 0.28225 0.33386 0.0
C246 C 0.42936 0.30487 0.31394 0.0
C247 C 0.432 0.31894 0.40341 0.0
C248 C 0.43518 0.31096 0.51262 0.0
C249 C 0.56158 0.33248 0.74202 0.0
C250 C 0.55939 0.30541 0.42237 0.0
C251 C 0.64134 0.29771 0.68377 0.0
C252 C 0.65386 0.29293 0.78834 0.0
C253 C 0.659 0.3076 0.87808 0.0
C254 C 0.66271 0.29951 0.98665 0.0
C255 C 0.66095 0.27674 0.00564 0.0
C256 C 0.65774 0.26264 0.91577 0.0
C257 C 0.65439 0.27078 0.8071 0.0
C258 C 0.52827 0.2494 0.58089 0.0
C259 C 0.53073 0.27681 0.90013 0.0
O260 O 0.45498 0.26631 0.64454 0.0
O261 O 0.47309 0.30506 0.67027 0.0
O262 O 0.53124 0.3291 0.73955 0.0
O263 O 0.56411 0.31756 0.6817 0.0
O264 O 0.52937 0.3 0.47329 0.0
O265 O 0.58512 0.30736 0.47641 0.0
O266 O 0.63488 0.31589 0.67916 0.0
O267 O 0.61734 0.27751 0.64831 0.0
O268 O 0.55834 0.25246 0.58709 0.0
O269 O 0.52641 0.26528 0.63527 0.0
O270 O 0.56069 0.28216 0.84919 0.0
O271 O 0.50495 0.2748 0.84615 0.0
H272 H 0.43262 0.25747 0.45547 0.0
H273 H 0.42568 0.27132 0.26432 0.0
H274 H 0.43298 0.33655 0.38791 0.0
H275 H 0.43909 0.32273 0.57978 0.0
H276 H 0.65837 0.32462 0.86635 0.0
H277 H 0.66548 0.31044 0.0565 0.0
H278 H 0.65646 0.24492 0.93058 0.0
H279 H 0.65008 0.25901 0.73968 0.0
Nd280 Nd 1.05064 0.26693 0.64855 0.0
Nd281 Nd 1.03909 0.31464 0.6741 0.0
C282 C 1.06972 0.23646 0.57698 0.0
C283 C 1.0601 0.21759 0.49539 0.0
C284 C 1.08023 0.22351 0.38917 0.0
C285 C 1.0756 0.20479 0.32183 0.0
C286 C 1.05074 0.17991 0.3597 0.0
C287 C 1.02886 0.17414 0.46081 0.0
C288 C 1.03342 0.1928 0.52813 0.0
C289 C 0.98523 0.25096 0.74648 0.0
C290 C 1.02727 0.29012 0.43473 0.0
C291 C 1.01968 0.34479 0.7473 0.0
C292 C 1.02957 0.36379 0.82834 0.0
C293 C 1.00973 0.35797 0.9351 0.0
C294 C 1.01457 0.37675 0.00224 0.0
C295 C 1.03935 0.40161 0.96367 0.0
C296 C 1.06099 0.40729 0.86202 0.0
C297 C 1.05624 0.38856 0.79488 0.0
C298 C 0.1045 0.33067 0.57577 0.0
C299 C 1.0623 0.29139 0.88814 0.0
O300 O 1.08477 0.25995 0.53441 0.0
O301 O 1.04832 0.23084 0.66921 0.0
O302 O 0.99599 0.2362 0.72229 0.0
O303 O 1.00803 0.27296 0.70657 0.0
O304 O 1.03837 0.2756 0.47377 0.0
O305 O 1.02042 0.30415 0.49753 0.0
O306 O 1.00529 0.3214 0.79079 0.0
O307 O 1.04048 0.35042 0.65336 0.0
O308 O 0.09372 0.34541 0.60021 0.0
O309 O 1.08165 0.30862 0.61492 0.0
O310 O 1.0516 0.30611 0.84862 0.0
O311 O 1.06895 0.27722 0.82571 0.0
H312 H 0.10077 0.24241 0.36094 0.0
H313 H 0.09261 0.20961 0.24345 0.0
H314 H 1.00935 0.15501 0.49089 0.0
H315 H 1.01714 0.18752 0.60863 0.0
H316 H 0.98924 0.33908 0.96392 0.0
H317 H 0.99774 0.372 0.08105 0.0
H318 H 1.08046 0.42641 0.83143 0.0
H319 H 1.07233 0.39376 0.71401 0.0
Nd320 Nd 1.08538 0.8088 0.62893 0.0
Nd321 Nd 1.00462 0.77268 0.69342 0.0
C322 C 0.14409 0.84711 0.53585 0.0
C323 C 0.1745 0.86913 0.47268 0.0
C324 C 0.17146 0.88696 0.40303 0.0
C325 C 0.20084 0.90873 0.35041 0.0
C326 C 0.23345 0.91292 0.3674 0.0
C327 C 0.23645 0.89462 0.43279 0.0
C328 C 0.20711 0.87279 0.48475 0.0
C329 C 1.07322 0.76284 0.73903 0.0
C330 C 1.03662 0.7775 0.43626 0.0
C331 C 0.94496 0.73445 0.78041 0.0
C332 C 0.91535 0.71278 0.84912 0.0
C333 C 0.91872 0.69502 0.91808 0.0
C334 C 0.88943 0.67317 0.97125 0.0
C335 C 0.85668 0.66887 0.95529 0.0
C336 C 0.85343 0.6871 0.8905 0.0
C337 C 0.88261 0.70894 0.8381 0.0
C338 C 1.01681 0.81864 0.58287 0.0
C339 C 1.05357 0.80392 0.88581 0.0
O340 O 0.11896 0.84914 0.5831 0.0
O341 O 0.13858 0.82446 0.54078 0.0
O342 O 0.10321 0.78188 0.70122 0.0
O343 O 1.05109 0.76893 0.71623 0.0
O344 O 1.06618 0.79532 0.46077 0.0
O345 O 1.0095 0.76373 0.51193 0.0
O346 O 0.96958 0.73221 0.73013 0.0
O347 O 0.95214 0.75733 0.78558 0.0
O348 O 0.98683 0.79965 0.62096 0.0
O349 O 1.03886 0.81248 0.60586 0.0
O350 O 1.02419 0.78576 0.86176 0.0
O351 O 1.08049 0.81801 0.80972 0.0
H352 H 0.14647 0.88426 0.39098 0.0
H353 H 0.1981 0.92258 0.29916 0.0
H354 H 0.26146 0.89748 0.4462 0.0
H355 H 0.20989 0.85911 0.53725 0.0
H356 H 0.9438 0.69772 0.92846 0.0
H357 H 0.89233 0.65932 0.02182 0.0
H358 H 0.82836 0.68415 0.87757 0.0
H359 H 0.87958 0.72247 0.78538 0.0
C360 C 0.1267 0.63813 0.63398 0.0
C361 C 0.12684 0.63728 0.7367 0.0
C362 C 0.12278 0.63836 0.51563 0.0
C363 C 0.12202 0.6394 0.41301 0.0
C364 C 0.64357 0.54943 0.69135 0.0
C365 C 0.63974 0.54735 0.79524 0.0
C366 C 0.64429 0.54896 0.57063 0.0
C367 C 0.642 0.55004 0.46858 0.0
C368 C 0.7823 0.13965 0.73747 0.0
C369 C 0.77901 0.1409 0.83961 0.0
C370 C 0.7847 0.13844 0.61684 0.0
C371 C 0.78464 0.13567 0.51571 0.0
C372 C 0.96291 0.94314 0.68818 0.0
C373 C 0.96284 0.944 0.58543 0.0
C374 C 0.96682 0.94296 0.80653 0.0
C375 C 0.96765 0.94199 0.90912 0.0
C376 C 0.44632 1.03225 0.63105 0.0
C377 C 0.45022 1.03434 0.52716 0.0
C378 C 0.44557 1.03271 0.75177 0.0
C379 C 0.4479 1.03165 0.85379 0.0
C380 C 0.30825 0.44223 0.5849 0.0
C381 C 0.31124 0.44088 0.48283 0.0
C382 C 0.30614 0.44349 0.70545 0.0
C383 C 0.30634 0.44622 0.80657 0.0
C384 C 0.55175 0.29602 0.21157 0.0
C385 C 0.55947 0.30144 0.30516 0.0
C386 C 0.53869 0.28656 0.11036 0.0
C387 C 0.53082 0.28099 0.01708 0.0
C388 C 1.03802 0.29202 0.21484 0.0
C389 C 1.03012 0.29367 0.31212 0.0
C390 C 1.05103 0.28936 0.10796 0.0
C391 C 1.05909 0.28774 0.0108 0.0
C392 C 1.03967 0.78482 0.21715 0.0
C393 C 1.03297 0.77782 0.31779 0.0
C394 C 1.05072 0.7968 0.10477 0.0
C395 C 1.05734 0.80379 0.00412 0.0
C396 C 0.19674 0.56455 0.09562 0.0
C397 C 0.20699 0.55006 0.10257 0.0
C398 C 0.18655 0.58263 0.08618 0.0
C399 C 0.17718 0.59764 0.07854 0.0
C400 C 0.80376 0.72871 0.18031 0.0
C401 C 0.78059 0.70839 0.16904 0.0
C402 C 0.82635 0.75386 0.19066 0.0
C403 C 0.84091 0.77563 0.2004 0.0
C404 C 0.63761 0.08132 0.19066 0.0
C405 C 0.66859 0.08928 0.19009 0.0
C406 C 0.60147 0.07331 0.18983 0.0
C407 C 0.57078 0.06611 0.18832 0.0
C408 C 0.66267 0.23498 0.25645 0.0
C409 C 0.67285 0.22113 0.27376 0.0
C410 C 0.65961 0.25353 0.19774 0.0
C411 C 0.66055 0.26676 0.11797 0.0
C412 C 1.04262 0.43931 0.06184 0.0
C413 C 1.04021 0.42155 0.0202 0.0
C414 C 1.04482 0.4611 0.09716 0.0
C415 C 1.04623 0.48021 0.11663 0.0
C416 C 0.80071 0.62564 0.03391 0.0
C417 C 0.82651 0.6452 -0.00116 0.0
C418 C 0.76921 0.60308 0.06822 0.0
C419 C 0.74012 0.5858 0.0915 0.0
C420 C 1.0702 0.72176 0.85212 0.0
C421 C 1.0685 0.73935 0.80245 0.0
C422 C 1.07474 0.70194 0.90937 0.0
C423 C 1.08038 0.68596 0.95509 0.0
C424 C 0.58503 0.36932 0.00481 0.0
C425 C 0.58588 0.385 0.05989 0.0
C426 C 0.58495 0.35459 0.91961 0.0
C427 C 0.57999 0.34368 0.83613 0.0
C428 C 0.93373 0.22766 0.90627 0.0
C429 C 0.95704 0.24249 0.83497 0.0
C430 C 0.90756 0.20665 0.98029 0.0
C431 C 0.88322 0.18839 0.03465 0.0
C432 C 0.89308 1.01685 0.22794 0.0
C433 C 0.88287 1.03136 0.22085 0.0
C434 C 0.90324 0.99875 0.23722 0.0
C435 C 0.91259 0.98373 0.24461 0.0
C436 C 0.28691 0.85268 0.14279 0.0
C437 C 0.31 0.87304 0.15384 0.0
C438 C 0.26434 0.82752 0.13276 0.0
C439 C 0.24969 0.80573 0.12318 0.0
C440 C 0.4887 0.50842 0.13207 0.0
C441 C 0.51937 0.51562 0.13366 0.0
C442 C 0.45257 0.50043 0.13117 0.0
C443 C 0.42161 0.49245 0.13174 0.0
C444 C 1.01984 0.85975 0.47008 0.0
C445 C 1.02156 0.84216 0.51959 0.0
C446 C 1.01526 0.87957 0.41299 0.0
C447 C 1.00958 0.89554 0.36732 0.0
C448 C 0.50523 0.22706 0.40312 0.0
C449 C 0.51036 0.23812 0.48608 0.0
C450 C 0.50498 0.21231 0.31793 0.0
C451 C 0.50411 0.19665 0.26278 0.0
C452 C 0.1563 0.35399 0.41675 0.0
C453 C 0.13284 0.33921 0.48774 0.0
C454 C 0.18267 0.37492 0.34287 0.0
C455 C 0.20713 0.39313 0.28855 0.0
C456 C 0.43086 0.32787 0.12098 0.0
C457 C 0.42993 0.31473 0.20113 0.0
C458 C 0.42764 0.34633 0.0621 0.0
C459 C 0.41735 0.36014 0.04528 0.0
C460 C 1.04535 0.12045 0.22628 0.0
C461 C 1.04387 0.10132 0.20674 0.0
C462 C 1.0476 0.14227 0.2615 0.0
C463 C 1.05 0.16003 0.30307 0.0
C464 C 0.28942 0.95613 0.28883 0.0
C465 C 0.26367 0.93655 0.324 0.0
C466 C 0.32087 0.9787 0.25446 0.0
C467 C 0.34996 0.99596 0.23114 0.0
loop_
_geom_bond_atom_site_label_1
_geom_bond_atom_site_label_2
_geom_bond_distance
_geom_bond_site_symmetry_2
_ccdc_geom_bond_type
Nd0 C2 2.836 . S
Nd0 O20 2.500 . S
Nd0 O21 2.492 . S
Nd0 O22 2.487 1_654 S
Nd0 O23 2.682 1_655 S
Nd0 O24 2.410 1_655 S
Nd0 O29 2.414 1_655 S
Nd0 O31 2.424 . S
Nd1 C11 2.836 . S
Nd1 O23 2.414 . S
Nd1 O25 2.424 . S
Nd1 O26 2.500 . S
Nd1 O27 2.492 . S
Nd1 O28 2.487 . S
Nd1 O29 2.682 . S
Nd1 O30 2.410 . S
C2 Nd0 2.836 . S
C2 C3 1.498 . S
C2 O20 1.258 . S
C2 O21 1.239 . S
C3 C2 1.498 . S
C3 C4 1.366 . S
C3 C8 1.407 . S
C4 C3 1.366 . S
C4 C5 1.392 . S
C4 H32 0.930 . S
C5 C4 1.392 . S
C5 C6 1.398 . S
C5 H33 0.929 . S
C6 C5 1.398 . S
C6 C7 1.352 . S
C7 C6 1.352 . S
C7 C8 1.384 . S
C7 H34 0.930 . S
C8 C3 1.407 . S
C8 C7 1.384 . S
C8 H35 0.929 1_554 S
C9 O22 1.241 . S
C9 O23 1.273 1_556 S
C10 O24 1.251 . S
C10 O25 1.268 . S
C11 Nd1 2.836 . S
C11 C12 1.498 . S
C11 O26 1.258 . S
C11 O27 1.239 . S
C12 C11 1.498 . S
C12 C13 1.366 . S
C12 C17 1.407 . S
C13 C12 1.366 . S
C13 C14 1.392 . S
C13 H36 0.930 1_554 S
C14 C13 1.392 . S
C14 C15 1.398 . S
C14 H37 0.929 1_554 S
C15 C14 1.398 . S
C15 C16 1.352 . S
C16 C15 1.352 . S
C16 C17 1.384 . S
C16 H38 0.930 . S
C17 C12 1.407 . S
C17 C16 1.384 . S
C17 H39 0.929 . S
C18 O28 1.241 . S
C18 O29 1.273 . S
C19 O30 1.251 . S
C19 O31 1.268 1_455 S
O20 Nd0 2.500 . S
O20 C2 1.258 . S
O21 Nd0 2.492 . S
O21 C2 1.239 . S
O22 Nd0 2.487 1_456 S
O22 C9 1.241 . S
O23 Nd0 2.682 1_455 S
O23 Nd1 2.414 . S
O23 C9 1.273 1_554 S
O24 Nd0 2.410 1_455 S
O24 C10 1.251 . S
O25 Nd1 2.424 . S
O25 C10 1.268 . S
O26 Nd1 2.500 . S
O26 C11 1.258 . S
O27 Nd1 2.492 . S
O27 C11 1.239 . S
O28 Nd1 2.487 . S
O28 C18 1.241 . S
O29 Nd0 2.414 1_455 S
O29 Nd1 2.682 . S
O29 C18 1.273 . S
O30 Nd1 2.410 . S
O30 C19 1.251 . S
O31 Nd0 2.424 . S
O31 C19 1.268 1_655 S
H32 C4 0.930 . S
H33 C5 0.929 . S
H34 C7 0.930 . S
H35 C8 0.929 1_556 S
H36 C13 0.930 1_556 S
H37 C14 0.929 1_556 S
H38 C16 0.930 . S
H39 C17 0.929 . S
Nd40 C42 2.836 . S
Nd40 O60 2.500 . S
Nd40 O61 2.492 . S
Nd40 O62 2.487 . S
Nd40 O63 2.682 . S
Nd40 O64 2.410 . S
Nd40 O69 2.414 . S
Nd40 O71 2.424 . S
Nd41 C51 2.836 . S
Nd41 O63 2.414 . S
Nd41 O65 2.424 . S
Nd41 O66 2.500 . S
Nd41 O67 2.492 . S
Nd41 O68 2.487 1_554 S
Nd41 O69 2.682 . S
Nd41 O70 2.410 . S
C42 Nd40 2.836 . S
C42 C43 1.498 . S
C42 O60 1.258 . S
C42 O61 1.239 . S
C43 C42 1.498 . S
C43 C44 1.366 . S
C43 C48 1.407 . S
C44 C43 1.366 . S
C44 C45 1.392 . S
C44 H72 0.930 1_554 S
C45 C44 1.392 . S
C45 C46 1.398 . S
C45 H73 0.929 1_554 S
C46 C45 1.398 . S
C46 C47 1.352 . S
C47 C46 1.352 . S
C47 C48 1.384 . S
C47 H74 0.930 . S
C48 C43 1.407 . S
C48 C47 1.384 . S
C48 H75 0.929 . S
C49 O62 1.241 . S
C49 O63 1.273 . S
C50 O64 1.251 . S
C50 O65 1.268 . S
C51 Nd41 2.836 . S
C51 C52 1.498 . S
C51 O66 1.258 . S
C51 O67 1.239 . S
C52 C51 1.498 . S
C52 C53 1.366 . S
C52 C57 1.407 . S
C53 C52 1.366 . S
C53 C54 1.392 . S
C53 H76 0.930 . S
C54 C53 1.392 . S
C54 C55 1.398 . S
C54 H77 0.929 . S
C55 C54 1.398 . S
C55 C56 1.352 . S
C56 C55 1.352 . S
C56 C57 1.384 . S
C56 H78 0.930 . S
C57 C52 1.407 . S
C57 C56 1.384 . S
C57 H79 0.929 1_554 S
C58 O68 1.241 . S
C58 O69 1.273 1_556 S
C59 O70 1.251 . S
C59 O71 1.268 . S
O60 Nd40 2.500 . S
O60 C42 1.258 . S
O61 Nd40 2.492 . S
O61 C42 1.239 . S
O62 Nd40 2.487 . S
O62 C49 1.241 . S
O63 Nd40 2.682 . S
O63 Nd41 2.414 . S
O63 C49 1.273 . S
O64 Nd40 2.410 . S
O64 C50 1.251 . S
O65 Nd41 2.424 . S
O65 C50 1.268 . S
O66 Nd41 2.500 . S
O66 C51 1.258 . S
O67 Nd41 2.492 . S
O67 C51 1.239 . S
O68 Nd41 2.487 1_556 S
O68 C58 1.241 . S
O69 Nd40 2.414 . S
O69 Nd41 2.682 . S
O69 C58 1.273 1_554 S
O70 Nd41 2.410 . S
O70 C59 1.251 . S
O71 Nd40 2.424 . S
O71 C59 1.268 . S
H72 C44 0.930 1_556 S
H73 C45 0.929 1_556 S
H74 C47 0.930 . S
H75 C48 0.929 . S
H76 C53 0.930 . S
H77 C54 0.929 . S
H78 C56 0.930 . S
H79 C57 0.929 1_556 S
Nd80 C82 2.836 . S
Nd80 O100 2.500 . S
Nd80 O101 2.492 . S
Nd80 O102 2.487 1_554 S
Nd80 O103 2.682 . S
Nd80 O104 2.410 . S
Nd80 O109 2.414 . S
Nd80 O111 2.424 . S
Nd81 C91 2.836 . S
Nd81 O103 2.414 . S
Nd81 O105 2.424 . S
Nd81 O106 2.500 . S
Nd81 O107 2.492 . S
Nd81 O108 2.487 . S
Nd81 O109 2.682 . S
Nd81 O110 2.410 . S
C82 Nd80 2.836 . S
C82 C83 1.498 . S
C82 O100 1.258 . S
C82 O101 1.239 . S
C83 C82 1.498 . S
C83 C84 1.366 . S
C83 C88 1.407 . S
C84 C83 1.366 . S
C84 C85 1.392 . S
C84 H112 0.930 . S
C85 C84 1.392 . S
C85 C86 1.398 . S
C85 H113 0.929 . S
C86 C85 1.398 . S
C86 C87 1.352 . S
C87 C86 1.352 . S
C87 C88 1.384 . S
C87 H114 0.930 . S
C88 C83 1.407 . S
C88 C87 1.384 . S
C88 H115 0.929 . S
C89 O102 1.241 1_554 S
C89 O103 1.278 . S
C90 O104 1.251 . S
C90 O105 1.268 . S
C91 Nd81 2.836 . S
C91 C92 1.498 . S
C91 O106 1.258 . S
C91 O107 1.239 . S
C92 C91 1.498 . S
C92 C93 1.366 . S
C92 C97 1.407 . S
C93 C92 1.366 . S
C93 C94 1.392 . S
C93 H116 0.930 . S
C94 C93 1.392 . S
C94 C95 1.398 . S
C94 H117 0.929 . S
C95 C94 1.398 . S
C95 C96 1.352 . S
C96 C95 1.352 . S
C96 C97 1.384 . S
C96 H118 0.930 . S
C97 C92 1.407 . S
C97 C96 1.384 . S
C97 H119 0.929 . S
C98 O108 1.241 . S
C98 O109 1.273 . S
C99 O110 1.251 . S
C99 O111 1.268 . S
O100 Nd80 2.500 . S
O100 C82 1.258 . S
O101 Nd80 2.492 . S
O101 C82 1.239 . S
O102 Nd80 2.487 1_556 S
O102 C89 1.241 1_556 S
O103 Nd80 2.682 . S
O103 Nd81 2.414 . S
O103 C89 1.278 . S
O104 Nd80 2.410 . S
O104 C90 1.251 . S
O105 Nd81 2.424 . S
O105 C90 1.268 . S
O106 Nd81 2.500 . S
O106 C91 1.258 . S
O107 Nd81 2.492 . S
O107 C91 1.239 . S
O108 Nd81 2.487 . S
O108 C98 1.241 . S
O109 Nd80 2.414 . S
O109 Nd81 2.682 . S
O109 C98 1.273 . S
O110 Nd81 2.410 . S
O110 C99 1.251 . S
O111 Nd80 2.424 . S
O111 C99 1.268 . S
H112 C84 0.930 . S
H113 C85 0.929 . S
H114 C87 0.930 . S
H115 C88 0.929 . S
H116 C93 0.930 . S
H117 C94 0.929 . S
H118 C96 0.930 . S
H119 C97 0.929 . S
Nd120 C122 2.836 . S
Nd120 O140 2.500 . S
Nd120 O141 2.492 . S
Nd120 O142 2.487 1_554 S
Nd120 O143 2.682 . S
Nd120 O144 2.410 . S
Nd120 O149 2.414 . S
Nd120 O151 2.424 . S
Nd121 C131 2.836 . S
Nd121 O143 2.414 . S
Nd121 O145 2.424 . S
Nd121 O146 2.500 . S
Nd121 O147 2.492 . S
Nd121 O148 2.487 . S
Nd121 O149 2.682 . S
Nd121 O150 2.410 . S
C122 Nd120 2.836 . S
C122 C123 1.498 . S
C122 O140 1.258 . S
C122 O141 1.239 . S
C123 C122 1.498 . S
C123 C124 1.366 . S
C123 C128 1.407 . S
C124 C123 1.366 . S
C124 C125 1.392 . S
C124 H152 0.930 . S
C125 C124 1.392 . S
C125 C126 1.398 . S
C125 H153 0.929 . S
C126 C125 1.398 . S
C126 C127 1.352 . S
C127 C126 1.352 . S
C127 C128 1.384 . S
C127 H154 0.930 . S
C128 C123 1.407 . S
C128 C127 1.384 . S
C128 H155 0.929 . S
C129 O142 1.241 . S
C129 O143 1.273 1_556 S
C130 O144 1.251 . S
C130 O145 1.268 . S
C131 Nd121 2.836 . S
C131 C132 1.498 1_565 S
C131 O146 1.258 . S
C131 O147 1.239 . S
C132 C131 1.498 1_545 S
C132 C133 1.366 . S
C132 C137 1.407 . S
C133 C132 1.366 . S
C133 C134 1.392 . S
C133 H156 0.930 . S
C134 C133 1.392 . S
C134 C135 1.398 . S
C134 H157 0.929 1_554 S
C135 C134 1.398 . S
C135 C136 1.352 . S
C136 C135 1.352 . S
C136 C137 1.384 . S
C136 H158 0.930 . S
C137 C132 1.407 . S
C137 C136 1.384 . S
C137 H159 0.929 . S
C138 O148 1.241 . S
C138 O149 1.273 . S
C139 O150 1.251 . S
C139 O151 1.268 . S
O140 Nd120 2.500 . S
O140 C122 1.258 . S
O141 Nd120 2.492 . S
O141 C122 1.239 . S
O142 Nd120 2.487 1_556 S
O142 C129 1.241 . S
O143 Nd120 2.682 . S
O143 Nd121 2.414 . S
O143 C129 1.273 1_554 S
O144 Nd120 2.410 . S
O144 C130 1.251 . S
O145 Nd121 2.424 . S
O145 C130 1.268 . S
O146 Nd121 2.500 . S
O146 C131 1.258 . S
O147 Nd121 2.492 . S
O147 C131 1.239 . S
O148 Nd121 2.487 . S
O148 C138 1.241 . S
O149 Nd120 2.414 . S
O149 Nd121 2.682 . S
O149 C138 1.273 . S
O150 Nd121 2.410 . S
O150 C139 1.251 . S
O151 Nd120 2.424 . S
O151 C139 1.268 . S
H152 C124 0.930 . S
H153 C125 0.929 . S
H154 C127 0.930 . S
H155 C128 0.929 . S
H156 C133 0.930 . S
H157 C134 0.929 1_556 S
H158 C136 0.930 . S
H159 C137 0.929 . S
Nd160 C162 2.836 . S
Nd160 O180 2.500 . S
Nd160 O181 2.492 . S
Nd160 O182 2.487 . S
Nd160 O183 2.682 1_545 S
Nd160 O184 2.410 . S
Nd160 O189 2.414 . S
Nd160 O191 2.424 1_545 S
Nd161 C171 2.836 . S
Nd161 O183 2.414 . S
Nd161 O185 2.424 1_565 S
Nd161 O186 2.500 . S
Nd161 O187 2.492 . S
Nd161 O188 2.487 1_554 S
Nd161 O189 2.682 1_565 S
Nd161 O190 2.410 . S
C162 Nd160 2.836 . S
C162 C163 1.498 . S
C162 O180 1.258 . S
C162 O181 1.239 . S
C163 C162 1.498 . S
C163 C164 1.366 . S
C163 C168 1.407 . S
C164 C163 1.366 . S
C164 C165 1.392 . S
C164 H192 0.930 . S
C165 C164 1.392 . S
C165 C166 1.398 . S
C165 H193 0.929 1_554 S
C166 C165 1.398 . S
C166 C167 1.352 . S
C167 C166 1.352 . S
C167 C168 1.384 . S
C167 H194 0.930 . S
C168 C163 1.407 . S
C168 C167 1.384 . S
C168 H195 0.929 . S
C169 O182 1.241 1_565 S
C169 O183 1.273 . S
C170 O184 1.251 . S
C170 O185 1.268 . S
C171 Nd161 2.836 . S
C171 C172 1.498 . S
C171 O186 1.258 . S
C171 O187 1.239 . S
C172 C171 1.498 . S
C172 C173 1.366 . S
C172 C177 1.407 . S
C173 C172 1.366 . S
C173 C174 1.392 . S
C173 H196 0.930 . S
C174 C173 1.392 . S
C174 C175 1.398 . S
C174 H197 0.929 . S
C175 C174 1.398 . S
C175 C176 1.352 . S
C176 C175 1.352 . S
C176 C177 1.384 . S
C176 H198 0.930 . S
C177 C172 1.407 . S
C177 C176 1.384 . S
C177 H199 0.929 . S
C178 O188 1.286 . S
C178 O189 1.254 1_566 S
C179 O190 1.251 . S
C179 O191 1.268 . S
O180 Nd160 2.500 . S
O180 C162 1.258 . S
O181 Nd160 2.492 . S
O181 C162 1.239 . S
O182 Nd160 2.487 . S
O182 C169 1.241 1_545 S
O183 Nd160 2.682 1_565 S
O183 Nd161 2.414 . S
O183 C169 1.273 . S
O184 Nd160 2.410 . S
O184 C170 1.251 . S
O185 Nd161 2.424 1_545 S
O185 C170 1.268 . S
O186 Nd161 2.500 . S
O186 C171 1.258 . S
O187 Nd161 2.492 . S
O187 C171 1.239 . S
O188 Nd161 2.487 1_556 S
O188 C178 1.286 . S
O189 Nd160 2.414 . S
O189 Nd161 2.682 1_545 S
O189 C178 1.254 1_544 S
O190 Nd161 2.410 . S
O190 C179 1.251 . S
O191 Nd160 2.424 1_565 S
O191 C179 1.268 . S
H192 C164 0.930 . S
H193 C165 0.929 1_556 S
H194 C167 0.930 . S
H195 C168 0.929 . S
H196 C173 0.930 . S
H197 C174 0.929 . S
H198 C176 0.930 . S
H199 C177 0.929 . S
Nd200 C202 2.836 . S
Nd200 O220 2.500 . S
Nd200 O221 2.492 1_554 S
Nd200 O222 2.487 1_554 S
Nd200 O223 2.682 1_554 S
Nd200 O224 2.410 . S
Nd200 O229 2.414 . S
Nd200 O231 2.424 . S
Nd201 C211 2.836 . S
Nd201 O223 2.414 1_554 S
Nd201 O225 2.424 . S
Nd201 O226 2.500 . S
Nd201 O227 2.492 . S
Nd201 O228 2.487 . S
Nd201 O229 2.682 . S
Nd201 O230 2.410 . S
C202 Nd200 2.836 . S
C202 C203 1.498 . S
C202 O220 1.258 . S
C202 O221 1.239 1_554 S
C203 C202 1.498 . S
C203 C204 1.366 . S
C203 C208 1.407 1_554 S
C204 C203 1.366 . S
C204 C205 1.392 . S
C204 H232 0.930 . S
C205 C204 1.392 . S
C205 C206 1.398 . S
C205 H233 0.929 . S
C206 C205 1.398 . S
C206 C207 1.352 1_554 S
C207 C206 1.352 1_556 S
C207 C208 1.384 . S
C207 H234 0.930 . S
C208 C203 1.407 1_556 S
C208 C207 1.384 . S
C208 H235 0.929 . S
C209 O222 1.241 . S
C209 O223 1.273 . S
C210 O224 1.251 . S
C210 O225 1.268 . S
C211 Nd201 2.836 . S
C211 C212 1.498 . S
C211 O226 1.258 . S
C211 O227 1.239 . S
C212 C211 1.498 . S
C212 C213 1.366 . S
C212 C217 1.407 . S
C213 C212 1.366 . S
C213 C214 1.392 . S
C213 H236 0.930 1_554 S
C214 C213 1.392 . S
C214 C215 1.398 . S
C214 H237 0.929 1_554 S
C215 C214 1.398 . S
C215 C216 1.352 . S
C216 C215 1.352 . S
C216 C217 1.384 . S
C216 H238 0.930 . S
C217 C212 1.407 . S
C217 C216 1.384 . S
C217 H239 0.929 . S
C218 O228 1.241 . S
C218 O229 1.273 . S
C219 O230 1.251 . S
C219 O231 1.268 . S
O220 Nd200 2.500 . S
O220 C202 1.258 . S
O221 Nd200 2.492 1_556 S
O221 C202 1.239 1_556 S
O222 Nd200 2.487 1_556 S
O222 C209 1.241 . S
O223 Nd200 2.682 1_556 S
O223 Nd201 2.414 1_556 S
O223 C209 1.273 . S
O224 Nd200 2.410 . S
O224 C210 1.251 . S
O225 Nd201 2.424 . S
O225 C210 1.268 . S
O226 Nd201 2.500 . S
O226 C211 1.258 . S
O227 Nd201 2.492 . S
O227 C211 1.239 . S
O228 Nd201 2.487 . S
O228 C218 1.241 . S
O229 Nd200 2.414 . S
O229 Nd201 2.682 . S
O229 C218 1.273 . S
O230 Nd201 2.410 . S
O230 C219 1.251 . S
O231 Nd200 2.424 . S
O231 C219 1.268 . S
H232 C204 0.930 . S
H233 C205 0.929 . S
H234 C207 0.930 . S
H235 C208 0.929 . S
H236 C213 0.930 1_556 S
H237 C214 0.929 1_556 S
H238 C216 0.930 . S
H239 C217 0.929 . S
Nd240 C242 2.836 . S
Nd240 O260 2.500 . S
Nd240 O261 2.492 . S
Nd240 O262 2.487 . S
Nd240 O263 2.682 . S
Nd240 O264 2.410 . S
Nd240 O269 2.414 . S
Nd240 O271 2.424 . S
Nd241 C251 2.836 . S
Nd241 O263 2.414 . S
Nd241 O265 2.424 . S
Nd241 O266 2.500 . S
Nd241 O267 2.492 . S
Nd241 O268 2.487 . S
Nd241 O269 2.682 . S
Nd241 O270 2.410 . S
C242 Nd240 2.836 . S
C242 C243 1.498 . S
C242 O260 1.258 . S
C242 O261 1.239 . S
C243 C242 1.498 . S
C243 C244 1.366 . S
C243 C248 1.407 . S
C244 C243 1.366 . S
C244 C245 1.392 . S
C244 H272 0.930 . S
C245 C244 1.392 . S
C245 C246 1.398 . S
C245 H273 0.929 . S
C246 C245 1.398 . S
C246 C247 1.352 . S
C247 C246 1.352 . S
C247 C248 1.384 . S
C247 H274 0.930 . S
C248 C243 1.407 . S
C248 C247 1.384 . S
C248 H275 0.929 . S
C249 O262 1.241 . S
C249 O263 1.273 . S
C250 O264 1.251 . S
C250 O265 1.268 . S
C251 Nd241 2.836 . S
C251 C252 1.498 . S
C251 O266 1.258 . S
C251 O267 1.239 . S
C252 C251 1.498 . S
C252 C253 1.366 . S
C252 C257 1.407 . S
C253 C252 1.366 . S
C253 C254 1.392 1_556 S
C253 H276 0.930 . S
C254 C253 1.392 1_554 S
C254 C255 1.398 . S
C254 H277 0.929 . S
C255 C254 1.398 . S
C255 C256 1.352 1_554 S
C256 C255 1.352 1_556 S
C256 C257 1.384 . S
C256 H278 0.930 . S
C257 C252 1.407 . S
C257 C256 1.384 . S
C257 H279 0.929 . S
C258 O268 1.241 . S
C258 O269 1.273 . S
C259 O270 1.251 . S
C259 O271 1.268 . S
O260 Nd240 2.500 . S
O260 C242 1.258 . S
O261 Nd240 2.492 . S
O261 C242 1.239 . S
O262 Nd240 2.487 . S
O262 C249 1.241 . S
O263 Nd240 2.682 . S
O263 Nd241 2.414 . S
O263 C249 1.273 . S
O264 Nd240 2.410 . S
O264 C250 1.251 . S
O265 Nd241 2.424 . S
O265 C250 1.268 . S
O266 Nd241 2.500 . S
O266 C251 1.258 . S
O267 Nd241 2.492 . S
O267 C251 1.239 . S
O268 Nd241 2.487 . S
O268 C258 1.241 . S
O269 Nd240 2.414 . S
O269 Nd241 2.682 . S
O269 C258 1.273 . S
O270 Nd241 2.410 . S
O270 C259 1.251 . S
O271 Nd240 2.424 . S
O271 C259 1.268 . S
H272 C244 0.930 . S
H273 C245 0.929 . S
H274 C247 0.930 . S
H275 C248 0.929 . S
H276 C253 0.930 . S
H277 C254 0.929 . S
H278 C256 0.930 . S
H279 C257 0.929 . S
Nd280 C282 2.836 . S
Nd280 O300 2.500 . S
Nd280 O301 2.492 . S
Nd280 O302 2.487 . S
Nd280 O303 2.682 . S
Nd280 O304 2.410 . S
Nd280 O309 2.414 . S
Nd280 O311 2.424 . S
Nd281 C291 2.836 . S
Nd281 O303 2.414 . S
Nd281 O305 2.424 . S
Nd281 O306 2.500 . S
Nd281 O307 2.492 . S
Nd281 O308 2.487 1_655 S
Nd281 O309 2.682 . S
Nd281 O310 2.410 . S
C282 Nd280 2.836 . S
C282 C283 1.498 . S
C282 O300 1.258 . S
C282 O301 1.239 . S
C283 C282 1.498 . S
C283 C284 1.366 . S
C283 C288 1.407 . S
C284 C283 1.366 . S
C284 C285 1.392 . S
C284 H312 0.930 . S
C285 C284 1.392 . S
C285 C286 1.398 . S
C285 H313 0.929 . S
C286 C285 1.398 . S
C286 C287 1.352 . S
C287 C286 1.352 . S
C287 C288 1.384 . S
C287 H314 0.930 . S
C288 C283 1.407 . S
C288 C287 1.384 . S
C288 H315 0.929 . S
C289 O302 1.241 . S
C289 O303 1.273 . S
C290 O304 1.251 . S
C290 O305 1.268 . S
C291 Nd281 2.836 . S
C291 C292 1.498 . S
C291 O306 1.258 . S
C291 O307 1.239 . S
C292 C291 1.498 . S
C292 C293 1.366 . S
C292 C297 1.407 . S
C293 C292 1.366 . S
C293 C294 1.392 1_556 S
C293 H316 0.930 . S
C294 C293 1.392 1_554 S
C294 C295 1.398 1_554 S
C294 H317 0.929 . S
C295 C294 1.398 1_556 S
C295 C296 1.352 . S
C296 C295 1.352 . S
C296 C297 1.384 . S
C296 H318 0.930 . S
C297 C292 1.407 . S
C297 C296 1.384 . S
C297 H319 0.929 . S
C298 O308 1.241 . S
C298 O309 1.273 1_455 S
C299 O310 1.251 . S
C299 O311 1.268 . S
O300 Nd280 2.500 . S
O300 C282 1.258 . S
O301 Nd280 2.492 . S
O301 C282 1.239 . S
O302 Nd280 2.487 . S
O302 C289 1.241 . S
O303 Nd280 2.682 . S
O303 Nd281 2.414 . S
O303 C289 1.273 . S
O304 Nd280 2.410 . S
O304 C290 1.251 . S
O305 Nd281 2.424 . S
O305 C290 1.268 . S
O306 Nd281 2.500 . S
O306 C291 1.258 . S
O307 Nd281 2.492 . S
O307 C291 1.239 . S
O308 Nd281 2.487 1_455 S
O308 C298 1.241 . S
O309 Nd280 2.414 . S
O309 Nd281 2.682 . S
O309 C298 1.273 1_655 S
O310 Nd281 2.410 . S
O310 C299 1.251 . S
O311 Nd280 2.424 . S
O311 C299 1.268 . S
H312 C284 0.930 . S
H313 C285 0.929 . S
H314 C287 0.930 . S
H315 C288 0.929 . S
H316 C293 0.930 . S
H317 C294 0.929 . S
H318 C296 0.930 . S
H319 C297 0.929 . S
Nd320 C322 2.836 1_655 S
Nd320 O340 2.500 1_655 S
Nd320 O341 2.492 1_655 S
Nd320 O342 2.487 1_655 S
Nd320 O343 2.682 . S
Nd320 O344 2.410 . S
Nd320 O349 2.414 . S
Nd320 O351 2.424 . S
Nd321 C331 2.836 . S
Nd321 O343 2.414 . S
Nd321 O345 2.424 . S
Nd321 O346 2.500 . S
Nd321 O347 2.492 . S
Nd321 O348 2.487 . S
Nd321 O349 2.682 . S
Nd321 O350 2.410 . S
C322 Nd320 2.836 1_455 S
C322 C323 1.498 . S
C322 O340 1.258 . S
C322 O341 1.239 . S
C323 C322 1.498 . S
C323 C324 1.366 . S
C323 C328 1.407 . S
C324 C323 1.366 . S
C324 C325 1.392 . S
C324 H352 0.930 . S
C325 C324 1.392 . S
C325 C326 1.398 . S
C325 H353 0.929 . S
C326 C325 1.398 . S
C326 C327 1.352 . S
C327 C326 1.352 . S
C327 C328 1.384 . S
C327 H354 0.930 . S
C328 C323 1.407 . S
C328 C327 1.384 . S
C328 H355 0.929 . S
C329 O342 1.241 1_655 S
C329 O343 1.273 . S
C330 O344 1.251 . S
C330 O345 1.268 . S
C331 Nd321 2.836 . S
C331 C332 1.498 . S
C331 O346 1.258 . S
C331 O347 1.239 . S
C332 C331 1.498 . S
C332 C333 1.366 . S
C332 C337 1.407 . S
C333 C332 1.366 . S
C333 C334 1.392 1_556 S
C333 H356 0.930 . S
C334 C333 1.392 1_554 S
C334 C335 1.398 . S
C334 H357 0.929 . S
C335 C334 1.398 . S
C335 C336 1.352 1_554 S
C336 C335 1.352 1_556 S
C336 C337 1.384 . S
C336 H358 0.930 . S
C337 C332 1.407 . S
C337 C336 1.384 . S
C337 H359 0.929 . S
C338 O348 1.241 . S
C338 O349 1.273 . S
C339 O350 1.251 . S
C339 O351 1.268 . S
O340 Nd320 2.500 1_455 S
O340 C322 1.258 . S
O341 Nd320 2.492 1_455 S
O341 C322 1.239 . S
O342 Nd320 2.487 1_455 S
O342 C329 1.241 1_455 S
O343 Nd320 2.682 . S
O343 Nd321 2.414 . S
O343 C329 1.273 . S
O344 Nd320 2.410 . S
O344 C330 1.251 . S
O345 Nd321 2.424 . S
O345 C330 1.268 . S
O346 Nd321 2.500 . S
O346 C331 1.258 . S
O347 Nd321 2.492 . S
O347 C331 1.239 . S
O348 Nd321 2.487 . S
O348 C338 1.241 . S
O349 Nd320 2.414 . S
O349 Nd321 2.682 . S
O349 C338 1.273 . S
O350 Nd321 2.410 . S
O350 C339 1.251 . S
O351 Nd320 2.424 . S
O351 C339 1.268 . S
H352 C324 0.930 . S
H353 C325 0.929 . S
H354 C327 0.930 . S
H355 C328 0.929 . S
H356 C333 0.930 . S
H357 C334 0.929 . S
H358 C336 0.930 . S
H359 C337 0.929 . S
C360 C361 1.170 . S
C360 C362 1.380 . S
C361 C360 1.170 . S
C362 C360 1.380 . S
C362 C363 1.170 . S
C363 C362 1.170 . S
C364 C365 1.170 . S
C364 C366 1.380 . S
C365 C364 1.170 . S
C366 C364 1.380 . S
C366 C367 1.170 . S
C367 C366 1.170 . S
C368 C369 1.170 . S
C368 C370 1.380 . S
C369 C368 1.170 . S
C370 C368 1.380 . S
C370 C371 1.170 . S
C371 C370 1.170 . S
C372 C373 1.170 . S
C372 C374 1.380 . S
C373 C372 1.170 . S
C374 C372 1.380 . S
C374 C375 1.170 . S
C375 C374 1.170 . S
C376 C377 1.170 . S
C376 C378 1.380 . S
C377 C376 1.170 . S
C378 C376 1.380 . S
C378 C379 1.170 1_565 S
C379 C378 1.170 1_545 S
C380 C381 1.170 . S
C380 C382 1.380 . S
C381 C380 1.170 . S
C382 C380 1.380 . S
C382 C383 1.170 . S
C383 C382 1.170 . S
C384 C385 1.170 . S
C384 C386 1.380 . S
C385 C384 1.170 . S
C386 C384 1.380 . S
C386 C387 1.170 . S
C387 C386 1.170 . S
C388 C389 1.170 . S
C388 C390 1.380 . S
C389 C388 1.170 . S
C390 C388 1.380 . S
C390 C391 1.170 . S
C391 C390 1.170 . S
C392 C393 1.170 . S
C392 C394 1.380 . S
C393 C392 1.170 . S
C394 C392 1.380 . S
C394 C395 1.170 . S
C395 C394 1.170 . S
C396 C397 1.170 . S
C396 C398 1.380 . S
C397 C396 1.170 . S
C398 C396 1.380 . S
C398 C399 1.170 . S
C399 C398 1.170 . S
C400 C401 1.170 . S
C400 C402 1.380 . S
C401 C400 1.170 . S
C402 C400 1.380 . S
C402 C403 1.170 . S
C403 C402 1.170 . S
C404 C405 1.170 . S
C404 C406 1.380 . S
C405 C404 1.170 . S
C406 C404 1.380 . S
C406 C407 1.170 . S
C407 C406 1.170 . S
C408 C409 1.170 . S
C408 C410 1.380 . S
C409 C408 1.170 . S
C410 C408 1.380 . S
C410 C411 1.170 . S
C411 C410 1.170 . S
C412 C413 1.170 . S
C412 C414 1.380 . S
C413 C412 1.170 . S
C414 C412 1.380 . S
C414 C415 1.170 . S
C415 C414 1.170 . S
C416 C417 1.170 . S
C416 C418 1.380 . S
C417 C416 1.170 . S
C418 C416 1.380 . S
C418 C419 1.170 . S
C419 C418 1.170 . S
C420 C421 1.170 . S
C420 C422 1.380 . S
C421 C420 1.170 . S
C422 C420 1.380 . S
C422 C423 1.170 1_556 S
C423 C422 1.170 1_554 S
C424 C425 1.170 . S
C424 C426 1.380 1_554 S
C425 C424 1.170 . S
C426 C424 1.380 1_556 S
C426 C427 1.170 . S
C427 C426 1.170 . S
C428 C429 1.170 . S
C428 C430 1.380 1_556 S
C429 C428 1.170 . S
C430 C428 1.380 1_554 S
C430 C431 1.170 . S
C431 C430 1.170 . S
C432 C433 1.170 1_565 S
C432 C434 1.380 . S
C433 C432 1.170 1_545 S
C434 C432 1.380 . S
C434 C435 1.170 . S
C435 C434 1.170 . S
C436 C437 1.170 . S
C436 C438 1.380 . S
C437 C436 1.170 . S
C438 C436 1.380 . S
C438 C439 1.170 . S
C439 C438 1.170 . S
C440 C441 1.170 . S
C440 C442 1.380 . S
C441 C440 1.170 . S
C442 C440 1.380 . S
C442 C443 1.170 . S
C443 C442 1.170 . S
C444 C445 1.170 . S
C444 C446 1.380 . S
C445 C444 1.170 . S
C446 C444 1.380 . S
C446 C447 1.170 . S
C447 C446 1.170 . S
C448 C449 1.170 . S
C448 C450 1.380 . S
C449 C448 1.170 . S
C450 C448 1.380 . S
C450 C451 1.170 . S
C451 C450 1.170 . S
C452 C453 1.170 . S
C452 C454 1.380 . S
C453 C452 1.170 . S
C454 C452 1.380 . S
C454 C455 1.170 . S
C455 C454 1.170 . S
C456 C457 1.170 . S
C456 C458 1.380 . S
C457 C456 1.170 . S
C458 C456 1.380 . S
C458 C459 1.170 . S
C459 C458 1.170 . S
C460 C461 1.170 . S
C460 C462 1.380 . S
C461 C460 1.170 . S
C462 C460 1.380 . S
C462 C463 1.170 . S
C463 C462 1.170 . S
C464 C465 1.170 . S
C464 C466 1.380 . S
C465 C464 1.170 . S
C466 C464 1.380 . S
C466 C467 1.170 . S
C467 C466 1.170 . S
C361 C9 1.381 . S
C363 C18 1.382 . S
C365 C58 1.375 . S
C367 C49 1.374 . S
C369 C89 1.395 1_556 S
C371 C98 1.344 . S
C373 C138 1.349 . S
C375 C129 1.381 . S
C377 C169 1.405 . S
C379 C178 1.370 1_545 S
C381 C218 1.380 . S
C383 C209 1.383 . S
C385 C250 1.430 . S
C387 C259 1.405 1_554 S
C389 C290 1.392 . S
C391 C299 1.411 1_554 S
C393 C330 1.429 . S
C395 C339 1.383 1_554 S
C397 C206 2.461 . S
C399 C10 2.521 . S
C401 C46 1.534 . S
C403 C126 1.529 . S
C405 C90 3.753 . S
C407 C170 3.691 . S
C409 C86 0.871 . S
C411 C255 0.908 . S
C413 C295 1.564 1_554 S
C415 C6 1.500 . S
C417 C335 1.861 . S
C419 C50 1.906 . S
C421 C329 2.808 . S
C423 C19 2.836 1_655 S
C425 C55 1.757 . S
C427 C249 1.733 . S
C429 C289 1.892 . S
C431 C99 1.999 . S
C433 C95 2.455 . S
C435 C139 2.518 . S
C437 C175 1.561 . S
C439 C15 1.491 . S
C441 C59 3.672 . S
C443 C219 3.765 . S
C445 C338 2.791 . S
C447 C130 2.845 . S
C449 C258 1.712 . S
C451 C166 1.747 . S
C453 C298 1.916 . S
C455 C210 1.966 . S
C457 C246 0.911 . S
C459 C215 0.939 . S
C461 C135 1.479 . S
C463 C286 1.564 . S
C465 C326 1.849 . S
C467 C179 1.925 . S
