# Generated by pormake.
# Topology nbo, (4)-cn, num edge types: 1
# Building blocks:
#     Node 0, Type 0, BuildingBlock: MUDLON_clean_sbu_0, # of connection points: 4
#     Node 1, Type 0, BuildingBlock: MUDLON_clean_sbu_0, # of connection points: 4
#     Node 2, Type 0, BuildingBlock: MUDLON_clean_sbu_0, # of connection points: 4
#     Node 3, Type 0, BuildingBlock: MUDLON_clean_sbu_0, # of connection points: 4
#     Node 4, Type 0, BuildingBlock: MUDLON_clean_sbu_0, # of connection points: 4
#     Node 5, Type 0, BuildingBlock: MUDLON_clean_sbu_0, # of connection points: 4
#     Edge 6, Type (0, 0), BuildingBlock: FUNLAD_clean_linker_0, # of connection points: 2
#     Edge 7, Type (0, 0), BuildingBlock: FUNLAD_clean_linker_0, # of connection points: 2
#     Edge 8, Type (0, 0), BuildingBlock: FUNLAD_clean_linker_0, # of connection points: 2
#     Edge 9, Type (0, 0), BuildingBlock: FUNLAD_clean_linker_0, # of connection points: 2
#     Edge 10, Type (0, 0), BuildingBlock: FUNLAD_clean_linker_0, # of connection points: 2
#     Edge 11, Type (0, 0), BuildingBlock: FUNLAD_clean_linker_0, # of connection points: 2
#     Edge 12, Type (0, 0), BuildingBlock: FUNLAD_clean_linker_0, # of connection points: 2
#     Edge 13, Type (0, 0), BuildingBlock: FUNLAD_clean_linker_0, # of connection points: 2
#     Edge 14, Type (0, 0), BuildingBlock: FUNLAD_clean_linker_0, # of connection points: 2
#     Edge 15, Type (0, 0), BuildingBlock: FUNLAD_clean_linker_0, # of connection points: 2
#     Edge 16, Type (0, 0), BuildingBlock: FUNLAD_clean_linker_0, # of connection points: 2
#     Edge 17, Type (0, 0), BuildingBlock: FUNLAD_clean_linker_0, # of connection points: 2
# Relax obj value: 0.000
# Max RMSD: 0.009
# Mean RMSD: 0.009
data_MOF--net-nbo--node1-MUDLON_clean_sbu_0--edge1-FUNLAD_clean_linker_0
_symmetry_space_group_name_H-M    P1
_symmetry_Int_Tables_number       1
_symmetry_cell_setting            triclinic
loop_
_symmetry_equiv_pos_as_xyz
'x, y, z'
_cell_length_a     35.752806
_cell_length_b     35.607515
_cell_length_c     35.459955
_cell_angle_alpha  90.814577
_cell_angle_beta   91.055975
_cell_angle_gamma 91.279555
loop_
_atom_site_label
_atom_site_type_symbol
_atom_site_fract_x
_atom_site_fract_y
_atom_site_fract_z
_atom_type_partial_charge
Mg0 Mg 0.96982 0.98143 0.53633 0.0
C1 C 0.95228 0.06895 0.5259 0.0
O2 O 0.92145 0.05629 0.50895 0.0
C3 C 0.97504 0.89454 0.51309 0.0
O4 O 0.99224 0.90741 0.48335 0.0
C5 C 0.88506 0.96816 0.51839 0.0
O6 O 0.90039 0.95097 0.48972 0.0
O7 O 0.90626 0.98448 0.54309 0.0
O8 O 0.97594 0.04573 0.53828 0.0
O9 O 0.03339 0.97767 0.52871 0.0
C10 C 0.04641 0.98282 0.49599 0.0
O11 O 0.02297 0.98972 0.46809 0.0
O12 O 0.96382 0.91749 0.53798 0.0
Mg13 Mg 0.51337 0.05777 0.96559 0.0
C14 C 0.54856 0.13677 0.96408 0.0
O15 O 0.57565 0.11504 0.95312 0.0
C16 C 0.54167 0.97643 0.96411 0.0
O17 O 0.57177 0.99607 0.97446 0.0
C18 C 0.53821 0.05447 0.87978 0.0
O19 O 0.5662 0.03505 0.89311 0.0
O20 O 0.51348 0.0661 0.9021 0.0
O21 O 0.51741 0.12162 0.97281 0.0
O22 O 0.5102 0.04989 0.02932 0.0
C23 C 0.52941 0.06793 0.0544 0.0
O24 O 0.55418 0.0934 0.0441 0.0
O25 O 0.51152 0.99372 0.95761 0.0
Mg26 Mg 0.06654 0.55253 0.09435 0.0
C27 C 0.15376 0.53804 0.11132 0.0
O28 O 0.14169 0.51935 0.14049 0.0
C29 C 0.98176 0.52644 0.08994 0.0
O30 O 0.99682 0.49523 0.07798 0.0
C31 C 0.08117 0.53101 1.00852 0.0
O32 O 0.10686 0.51044 0.02454 0.0
O33 O 0.06048 0.55101 0.02928 0.0
O34 O 0.13038 0.5534 0.08925 0.0
O35 O 0.07181 0.55331 0.15912 0.0
C36 C 0.06524 0.52312 0.17685 0.0
O37 O 0.05559 0.49258 0.15746 0.0
O38 O 1.00298 0.55432 0.09904 0.0
Mg39 Mg 0.56477 0.56227 0.01575 0.0
C40 C 0.5292 0.62995 0.97909 0.0
O41 O 0.49862 0.61298 0.9907 0.0
C42 C 0.57306 0.48201 1.00524 0.0
O43 O 0.58452 0.48981 0.03996 0.0
C44 C 0.48914 0.54111 0.03833 0.0
O45 O 0.49237 0.52705 1.00414 0.0
O46 O 0.51711 0.55886 0.05325 0.0
O47 O 0.56041 0.61388 0.98348 0.0
O48 O 0.62034 0.56302 0.04205 0.0
C49 C 0.64526 0.55775 0.01747 0.0
O50 O 0.63465 0.55506 0.98183 0.0
O51 O 0.56271 0.50893 0.98451 0.0
Mg52 Mg 0.01312 0.49118 0.58588 0.0
C53 C 0.97357 0.56358 0.60371 0.0
O54 O 0.98559 0.55595 0.63791 0.0
C55 C 0.99406 0.40986 0.59561 0.0
O56 O 0.02007 0.4156 0.62184 0.0
C57 C 0.05954 0.46897 0.51882 0.0
O58 O 0.04712 0.43551 0.52838 0.0
O59 O 0.05323 0.49689 0.54043 0.0
O60 O 0.97842 0.5398 0.57726 0.0
O61 O 0.03404 0.49299 0.64437 0.0
C62 C 0.06152 0.5125 0.65782 0.0
O63 O 0.08196 0.53281 0.63502 0.0
O64 O 0.98344 0.4376 0.57621 0.0
Mg65 Mg 0.47377 0.01648 0.47789 0.0
C66 C 0.54004 0.98 0.51536 0.0
O67 O 0.52718 0.99861 0.54443 0.0
C68 C 0.39182 1.00897 0.46434 0.0
O69 O 0.40112 0.03923 0.44558 0.0
C70 C 0.48619 0.01629 0.39648 0.0
O71 O 0.4863 0.98059 0.40538 0.0
O72 O 0.48077 0.04049 0.42241 0.0
O73 O 0.52106 0.97922 0.48461 0.0
O74 O 0.48077 0.05714 0.52389 0.0
C75 C 0.45452 0.06251 0.54691 0.0
O76 O 0.42124 0.04767 0.53927 0.0
O77 O 0.41766 0.99095 0.48078 0.0
C78 C 0.93036 0.13557 0.52463 0.0
C79 C 0.95857 0.10983 0.53275 0.0
C80 C 0.93564 0.17387 0.53327 0.0
C81 C 0.96952 0.18734 0.54999 0.0
C82 C 0.99782 0.16156 0.55745 0.0
C83 C 0.99247 0.12337 0.54898 0.0
C84 C 0.97639 0.22738 0.56165 0.0
C85 C 0.95444 0.25629 0.55219 0.0
C86 C 0.96286 0.29571 0.56496 0.0
C87 C 0.95044 0.32564 0.54292 0.0
C88 C 0.95948 0.36291 0.55333 0.0
C89 C 0.98095 0.37099 0.58619 0.0
H90 H 0.9915 0.28193 0.61744 0.0
C91 C 0.9919 0.34112 0.60909 0.0
C92 C 0.98281 0.30399 0.59876 0.0
H93 H 0.00798 0.34634 0.63489 0.0
H94 H 0.90381 0.12604 0.51231 0.0
H95 H 0.91275 0.19236 0.52751 0.0
H96 H 0.02419 0.17092 0.57034 0.0
H97 H 0.01486 0.10441 0.55558 0.0
H98 H 1.00169 0.2333 0.57829 0.0
H99 H 0.93069 0.2517 0.5331 0.0
H100 H 0.93454 0.32016 0.51705 0.0
H101 H 0.9505 0.38528 0.53511 0.0
C102 C 0.82068 0.94989 0.49435 0.0
C103 C 0.84374 0.96807 0.52184 0.0
C104 C 0.78171 0.94969 0.49733 0.0
C105 C 0.76474 0.96755 0.52812 0.0
C106 C 0.78791 0.98578 0.5555 0.0
C107 C 0.82689 0.986 0.55249 0.0
C108 C 0.7233 0.96939 0.53214 0.0
C109 C 0.69797 0.94823 0.51201 0.0
C110 C 0.65679 0.95294 0.51489 0.0
C111 C 0.63371 0.94446 0.48328 0.0
C112 C 0.59534 0.95151 0.48386 0.0
C113 C 0.57915 0.96681 0.51631 0.0
H114 H 0.65671 0.97158 0.57353 0.0
C115 C 0.60185 0.97303 0.54873 0.0
C116 C 0.6402 0.96616 0.54807 0.0
H117 H 0.59027 0.9844 0.57438 0.0
H118 H 0.83271 0.93595 0.47025 0.0
H119 H 0.76532 0.93608 0.47497 0.0
H120 H 0.7758 1.00003 0.5794 0.0
H121 H 0.84378 1.00032 0.57416 0.0
H122 H 0.71336 0.98991 0.55232 0.0
H123 H 0.70722 0.92806 0.49121 0.0
H124 H 0.64562 0.9337 0.45752 0.0
H125 H 0.57868 0.9462 0.45844 0.0
C126 C 0.95492 0.61267 0.55728 0.0
C127 C 0.9611 0.60194 0.59487 0.0
C128 C 0.94893 0.65029 0.54854 0.0
C129 C 0.94915 0.67801 0.57727 0.0
C130 C 0.95286 0.66681 0.61494 0.0
C131 C 0.95892 0.62927 0.62367 0.0
C132 C 0.94672 0.71883 0.56931 0.0
C133 C 0.95753 0.73427 0.53659 0.0
C134 C 0.95992 0.77555 0.53019 0.0
C135 C 0.98221 0.78895 0.50079 0.0
C136 C 0.98677 0.82752 0.49482 0.0
C137 C 0.96911 0.85363 0.51817 0.0
H138 H 0.92257 0.7929 0.57472 0.0
C139 C 0.94592 0.84028 0.54688 0.0
C140 C 0.94113 0.80175 0.55268 0.0
H141 H 0.93136 0.85965 0.56497 0.0
H142 H 0.95599 0.59225 0.53441 0.0
H143 H 0.94467 0.65747 0.51926 0.0
H144 H 0.95256 0.68743 0.63771 0.0
H145 H 0.96325 0.62197 0.65295 0.0
H146 H 0.93916 0.73688 0.59272 0.0
H147 H 0.96803 0.71624 0.51442 0.0
H148 H 0.99675 0.76952 0.48275 0.0
H149 H 1.00466 0.83685 0.47231 0.0
C150 C 0.32404 0.01995 0.45091 0.0
C151 C 0.35165 0.99888 0.4691 0.0
C152 C 0.28608 0.01287 0.45714 0.0
C153 C 0.27454 0.98416 0.48152 0.0
C154 C 0.30214 0.96287 0.49953 0.0
C155 C 0.34027 0.97 0.49328 0.0
C156 C 0.23426 0.9773 0.49033 0.0
C157 C 0.20592 0.98715 0.46704 0.0
C158 C 0.16529 0.98336 0.47566 0.0
C159 C 0.1392 0.98751 0.44598 0.0
C160 C 0.10079 0.98677 0.4526 0.0
C161 C 0.08728 0.98198 0.48922 0.0
H162 H 0.17075 0.9756 0.53628 0.0
C163 C 0.11323 0.97731 0.51901 0.0
C164 C 0.15182 0.9781 0.51238 0.0
H165 H 0.10377 0.9737 0.5476 0.0
H166 H 0.33171 0.04265 0.43236 0.0
H167 H 0.26609 0.0309 0.44363 0.0
H168 H 0.29419 0.94081 0.51874 0.0
H169 H 0.36079 0.9534 0.50796 0.0
H170 H 0.22814 0.96316 0.51648 0.0
H171 H 0.21257 0.99825 0.43955 0.0
H172 H 0.14857 0.99179 0.41744 0.0
H173 H 0.08171 0.9904 0.42892 0.0
C174 C 0.50038 0.99999 0.3296 0.0
C175 C 0.4928 0.02751 0.35704 0.0
C176 C 0.50675 0.00992 0.2923 0.0
C177 C 0.50531 0.04769 0.28133 0.0
C178 C 0.49842 0.07532 0.30888 0.0
C179 C 0.49206 0.06535 0.34635 0.0
C180 C 0.51187 0.05903 0.24169 0.0
C181 C 0.50462 0.03578 0.21195 0.0
C182 C 0.51108 0.04573 0.17195 0.0
C183 C 0.49216 0.02457 0.14355 0.0
C184 C 0.49806 0.03188 0.10552 0.0
C185 C 0.52335 0.06041 0.09487 0.0
H186 H 0.55251 0.09054 0.18232 0.0
C187 C 0.54257 0.08152 0.12322 0.0
C188 C 0.53657 0.07426 0.16138 0.0
H189 H 0.5624 0.10358 0.11597 0.0
H190 H 0.50167 0.97061 0.33691 0.0
H191 H 0.5134 0.98787 0.27239 0.0
H192 H 0.49759 0.10467 0.30132 0.0
H193 H 0.48653 0.08726 0.36687 0.0
H194 H 0.52129 0.08775 0.23703 0.0
H195 H 0.49183 1.00836 0.21678 0.0
H196 H 0.47263 1.00222 0.15079 0.0
H197 H 0.48284 0.01497 0.08447 0.0
C198 C 0.06603 0.48739 0.23727 0.0
C199 C 0.06939 0.52182 0.21857 0.0
C200 C 0.06958 0.48584 0.27656 0.0
C201 C 0.07667 0.51877 0.29823 0.0
C202 C 0.07977 0.55321 0.27955 0.0
C203 C 0.07647 0.55473 0.24016 0.0
C204 C 0.07837 0.51838 0.3403 0.0
C205 C 0.08872 0.48814 0.36022 0.0
C206 C 0.08593 0.48502 0.40204 0.0
C207 C 0.08568 0.44898 0.41768 0.0
C208 C 0.07919 0.44396 0.45605 0.0
C209 C 0.07313 0.47495 0.47997 0.0
H210 H 0.08348 0.54466 0.41601 0.0
C211 C 0.07586 0.51125 0.46495 0.0
C212 C 0.08219 0.51629 0.42642 0.0
H213 H 0.07158 0.53579 0.48262 0.0
H214 H 0.06037 0.4615 0.22159 0.0
H215 H 0.06567 0.45889 0.28979 0.0
H216 H 0.08475 0.57908 0.2955 0.0
H217 H 0.07908 0.58175 0.22669 0.0
H218 H 0.06998 0.54372 0.35487 0.0
H219 H 0.09778 0.46334 0.34505 0.0
H220 H 0.08898 0.42436 0.39984 0.0
H221 H 0.07756 0.4156 0.46665 0.0
C222 C 0.50063 0.08375 0.59736 0.0
C223 C 0.46328 0.07749 0.5853 0.0
C224 C 0.50934 0.09066 0.63548 0.0
C225 C 0.4808 0.09139 0.66228 0.0
C226 C 0.44339 0.08821 0.6497 0.0
C227 C 0.43469 0.08114 0.61167 0.0
C228 C 0.48875 0.09348 0.70356 0.0
C229 C 0.52026 0.08025 0.71959 0.0
C230 C 0.52584 0.0761 0.76105 0.0
C231 C 0.55276 0.05098 0.77416 0.0
C232 C 0.55732 0.04432 0.81274 0.0
C233 C 0.53495 0.06266 0.83907 0.0
H234 H 0.48456 0.11634 0.77913 0.0
C235 C 0.50892 0.08876 0.82613 0.0
C236 C 0.50459 0.09566 0.78764 0.0
H237 H 0.49175 0.10394 0.84577 0.0
H238 H 0.52334 0.08157 0.5777 0.0
H239 H 0.53843 0.09452 0.64386 0.0
H240 H 0.42081 0.08929 0.66963 0.0
H241 H 0.4056 0.07687 0.60327 0.0
H242 H 0.46597 0.10219 0.72122 0.0
H243 H 0.54154 0.0686 0.70168 0.0
H244 H 0.56981 0.03577 0.75443 0.0
H245 H 0.5778 0.02423 0.82182 0.0
C246 C 0.04189 0.49937 0.72412 0.0
C247 C 0.06846 0.51432 0.6993 0.0
C248 C 0.04751 0.50232 0.76324 0.0
C249 C 0.07999 0.52015 0.77856 0.0
C250 C 0.10691 0.53431 0.75378 0.0
C251 C 0.10108 0.53178 0.71461 0.0
C252 C 0.08722 0.52309 0.82008 0.0
C253 C 0.05971 0.5253 0.84557 0.0
C254 C 0.06665 0.52778 0.88717 0.0
C255 C 0.03995 0.54468 0.91012 0.0
C256 C 0.04485 0.54632 0.94942 0.0
C257 C 0.07631 0.53045 0.96678 0.0
H258 H 0.11897 0.49789 0.888 0.0
C259 C 0.10295 0.51334 0.94384 0.0
C260 C 0.09825 0.51206 0.90453 0.0
H261 H 0.12747 0.50071 0.95624 0.0
H262 H 0.01647 0.48563 0.71335 0.0
H263 H 0.02662 0.49006 0.78134 0.0
H264 H 0.13238 0.54781 0.76476 0.0
H265 H 0.12219 0.54346 0.69636 0.0
H266 H 0.11622 0.52524 0.82967 0.0
H267 H 0.03087 0.52688 0.83566 0.0
H268 H 0.01516 0.55672 0.89759 0.0
H269 H 0.02368 0.55954 0.96621 0.0
C270 C 0.22091 0.52791 0.12975 0.0
C271 C 0.19424 0.54039 0.10338 0.0
C272 C 0.25907 0.52916 0.12156 0.0
C273 C 0.27123 0.54281 0.08671 0.0
C274 C 0.24457 0.55543 0.06055 0.0
C275 C 0.20656 0.55451 0.06885 0.0
C276 C 0.31092 0.54174 0.07528 0.0
C277 C 0.34045 0.54196 0.09949 0.0
C278 C 0.37932 0.53954 0.08572 0.0
C279 C 0.40875 0.55945 0.10438 0.0
C280 C 0.445 0.55934 0.08985 0.0
C281 C 0.45232 0.5389 0.05668 0.0
H282 H 0.36554 0.50074 0.0395 0.0
C283 C 0.42319 0.51739 0.03937 0.0
C284 C 0.38722 0.51763 0.05372 0.0
H285 H 0.42794 0.50075 0.01417 0.0
H286 H 0.21229 0.51682 0.1566 0.0
H287 H 0.27872 0.51835 0.14205 0.0
H288 H 0.25314 0.56579 0.03338 0.0
H289 H 0.18679 0.56423 0.04783 0.0
H290 H 0.31601 0.5418 0.04514 0.0
H291 H 0.33636 0.54576 0.12956 0.0
H292 H 0.40344 0.57609 0.12945 0.0
H293 H 0.46693 0.57598 0.10396 0.0
C294 C 0.58799 0.41464 0.01352 0.0
C295 C 0.5698 0.44227 0.99258 0.0
C296 C 0.5826 0.37663 1.00456 0.0
C297 C 0.55886 0.36518 0.97429 0.0
C298 C 0.54096 0.39279 0.953 0.0
C299 C 0.54664 0.43105 0.96181 0.0
C300 C 0.55058 0.32467 0.96622 0.0
C301 C 0.57529 0.29769 0.97402 0.0
C302 C 0.56699 0.25678 0.96949 0.0
C303 C 0.5969 0.23248 0.96443 0.0
C304 C 0.59076 0.19363 0.96236 0.0
C305 C 0.55456 0.17807 0.96597 0.0
H306 H 0.50702 0.25911 0.97782 0.0
C307 C 0.52452 0.20231 0.97122 0.0
C308 C 0.53063 0.24131 0.97286 0.0
H309 H 0.4963 0.19117 0.97415 0.0
H310 H 0.6059 0.42231 0.03751 0.0
H311 H 0.59604 0.35632 0.02239 0.0
H312 H 0.52225 0.38472 0.92975 0.0
H313 H 0.53196 0.4517 0.94539 0.0
H314 H 0.5237 0.3171 0.95314 0.0
H315 H 0.60343 0.30579 0.98353 0.0
H316 H 0.62522 0.24359 0.96217 0.0
H317 H 0.61456 0.17579 0.95841 0.0
C318 C 0.9169 0.50032 0.07747 0.0
C319 C 0.94052 0.52991 0.09069 0.0
C320 C 0.87812 0.50452 0.07576 0.0
C321 C 0.86207 0.53852 0.08713 0.0
C322 C 0.88552 0.56743 0.10197 0.0
C323 C 0.92434 0.5633 0.10354 0.0
C324 C 0.82122 0.54499 0.08293 0.0
C325 C 0.80046 0.5292 0.0546 0.0
C326 C 0.76063 0.53786 0.04661 0.0
C327 C 0.74696 0.53257 1.00958 0.0
C328 C 0.70977 0.53969 1.00033 0.0
C329 C 0.68496 0.55182 0.02805 0.0
H330 H 0.74533 0.55374 0.1036 0.0
C331 C 0.69841 0.55694 0.06533 0.0
C332 C 0.73598 0.55013 0.07456 0.0
H333 H 0.67991 0.56601 0.08735 0.0
H334 H 0.92837 0.47405 0.06782 0.0
H335 H 0.86084 0.48111 0.06541 0.0
H336 H 0.87389 0.59374 0.1113 0.0
H337 H 0.94169 0.58654 0.11424 0.0
H338 H 0.80898 0.56584 0.10133 0.0
H339 H 0.81399 0.51121 0.03422 0.0
H340 H 0.7652 0.52298 0.98752 0.0
H341 H 0.70041 0.53518 0.97137 0.0
C342 C 0.56093 0.69074 0.96137 0.0
C343 C 0.52783 0.66944 0.96634 0.0
C344 C 0.55953 0.72924 0.95408 0.0
C345 C 0.52493 0.74732 0.95166 0.0
C346 C 0.49189 0.72556 0.9545 0.0
C347 C 0.49329 0.68715 0.96198 0.0
C348 C 0.52207 0.78871 0.94687 0.0
C349 C 0.54871 0.81351 0.9595 0.0
C350 C 0.54575 0.85528 0.95832 0.0
C351 C 0.57799 0.87726 0.96689 0.0
C352 C 0.57667 0.91644 0.96824 0.0
C353 C 0.54296 0.93484 0.96117 0.0
H354 H 0.48616 0.85825 0.9448 0.0
C355 C 0.51066 0.91305 0.95217 0.0
C356 C 0.51195 0.87373 0.95083 0.0
H357 H 0.48418 0.92634 0.9467 0.0
H358 H 0.58802 0.67794 0.96418 0.0
H359 H 0.58562 0.74467 0.9506 0.0
H360 H 0.46485 0.73857 0.95223 0.0
H361 H 0.46722 0.67157 0.96533 0.0
H362 H 0.49624 0.79868 0.93454 0.0
H363 H 0.574 0.80288 0.9725 0.0
H364 H 0.60441 0.86405 0.97294 0.0
H365 H 0.60214 0.93227 0.97524 0.0
loop_
_geom_bond_atom_site_label_1
_geom_bond_atom_site_label_2
_geom_bond_distance
_geom_bond_site_symmetry_2
_ccdc_geom_bond_type
Mg0 O7 2.141 1_455 S
Mg0 O8 2.048 . S
Mg0 O9 2.048 . S
Mg0 O12 2.141 1_545 S
C1 O2 1.313 . S
C1 O8 1.195 . S
O2 C1 1.313 . S
C3 O4 1.245 . S
C3 O12 1.289 . S
O4 C3 1.245 . S
C5 O6 1.245 . S
C5 O7 1.289 . S
O6 C5 1.245 . S
O7 Mg0 2.141 1_655 S
O7 C5 1.289 . S
O8 Mg0 2.048 . S
O8 C1 1.195 . S
O9 Mg0 2.048 . S
O9 C10 1.195 . S
C10 O9 1.195 . S
C10 O11 1.313 . S
O11 C10 1.313 . S
O12 Mg0 2.141 1_565 S
O12 C3 1.289 . S
Mg13 O20 2.141 1_554 S
Mg13 O21 2.048 . S
Mg13 O22 2.048 . S
Mg13 O25 2.141 1_545 S
C14 O15 1.313 . S
C14 O21 1.195 . S
O15 C14 1.313 . S
C16 O17 1.245 . S
C16 O25 1.289 . S
O17 C16 1.245 . S
C18 O19 1.245 . S
C18 O20 1.289 . S
O19 C18 1.245 . S
O20 Mg13 2.141 1_556 S
O20 C18 1.289 . S
O21 Mg13 2.048 . S
O21 C14 1.195 . S
O22 Mg13 2.048 . S
O22 C23 1.195 . S
C23 O22 1.195 . S
C23 O24 1.313 . S
O24 C23 1.313 . S
O25 Mg13 2.141 1_565 S
O25 C16 1.289 . S
Mg26 O33 2.141 1_554 S
Mg26 O34 2.048 . S
Mg26 O35 2.048 . S
Mg26 O38 2.141 1_455 S
C27 O28 1.313 . S
C27 O34 1.195 . S
O28 C27 1.313 . S
C29 O30 1.245 . S
C29 O38 1.289 . S
O30 C29 1.245 . S
C31 O32 1.245 . S
C31 O33 1.289 . S
O32 C31 1.245 . S
O33 Mg26 2.141 1_556 S
O33 C31 1.289 . S
O34 Mg26 2.048 . S
O34 C27 1.195 . S
O35 Mg26 2.048 . S
O35 C36 1.195 . S
C36 O35 1.195 . S
C36 O37 1.313 . S
O37 C36 1.313 . S
O38 Mg26 2.141 1_655 S
O38 C29 1.289 . S
Mg39 O46 2.141 . S
Mg39 O47 2.048 . S
Mg39 O48 2.048 . S
Mg39 O51 2.141 . S
C40 O41 1.313 1_554 S
C40 O47 1.195 . S
O41 C40 1.313 1_556 S
C42 O43 1.245 1_554 S
C42 O51 1.289 . S
O43 C42 1.245 1_556 S
C44 O45 1.245 1_554 S
C44 O46 1.289 . S
O45 C44 1.245 1_556 S
O46 Mg39 2.141 . S
O46 C44 1.289 . S
O47 Mg39 2.048 . S
O47 C40 1.195 . S
O48 Mg39 2.048 . S
O48 C49 1.195 . S
C49 O48 1.195 . S
C49 O50 1.313 1_554 S
O50 C49 1.313 1_556 S
O51 Mg39 2.141 . S
O51 C42 1.289 . S
Mg52 O59 2.141 1_455 S
Mg52 O60 2.048 . S
Mg52 O61 2.048 . S
Mg52 O64 2.141 1_455 S
C53 O54 1.313 . S
C53 O60 1.197 . S
O54 C53 1.313 . S
C55 O56 1.245 . S
C55 O64 1.289 1_455 S
O56 C55 1.245 . S
C57 O58 1.245 . S
C57 O59 1.289 1_455 S
O58 C57 1.245 . S
O59 Mg52 2.141 1_655 S
O59 C57 1.289 1_655 S
O60 Mg52 2.048 . S
O60 C53 1.197 . S
O61 Mg52 2.048 . S
O61 C62 1.197 . S
C62 O61 1.197 . S
C62 O63 1.313 . S
O63 C62 1.313 . S
O64 Mg52 2.141 1_655 S
O64 C55 1.289 1_655 S
Mg65 O72 2.141 . S
Mg65 O73 2.048 . S
Mg65 O74 2.048 . S
Mg65 O77 2.141 . S
C66 O67 1.313 1_545 S
C66 O73 1.195 . S
O67 C66 1.313 1_565 S
C68 O69 1.245 1_545 S
C68 O77 1.289 . S
O69 C68 1.245 1_565 S
C70 O71 1.245 1_545 S
C70 O72 1.289 . S
O71 C70 1.245 1_565 S
O72 Mg65 2.141 . S
O72 C70 1.289 . S
O73 Mg65 2.048 . S
O73 C66 1.195 . S
O74 Mg65 2.048 . S
O74 C75 1.195 . S
C75 O74 1.195 . S
C75 O76 1.313 1_545 S
O76 C75 1.313 1_565 S
O77 Mg65 2.141 . S
O77 C68 1.289 . S
C78 C79 1.386 1_655 S
C78 C80 1.383 . S
C78 H94 0.951 . S
C79 C78 1.386 1_455 S
C79 C83 1.383 . S
C80 C78 1.383 . S
C80 C81 1.402 1_655 S
C80 H95 0.951 . S
C81 C80 1.402 1_455 S
C81 C82 1.375 . S
C81 C84 1.481 . S
C82 C81 1.375 . S
C82 C83 1.367 . S
C82 H96 0.951 . S
C83 C79 1.383 . S
C83 C82 1.367 . S
C83 H97 0.950 . S
C84 C81 1.481 . S
C84 C85 1.283 1_455 S
C84 H98 0.950 . S
C85 C84 1.283 1_655 S
C85 C86 1.478 1_655 S
C85 H99 0.968 . S
C86 C85 1.478 1_455 S
C86 C87 1.375 1_455 S
C86 C92 1.404 . S
C87 C86 1.375 1_655 S
C87 C88 1.369 . S
C87 H100 0.950 . S
C88 C87 1.369 . S
C88 C89 1.392 1_655 S
C88 H101 0.951 . S
C89 C88 1.392 1_455 S
C89 C91 1.384 . S
H90 C92 0.949 . S
C91 C89 1.384 . S
C91 C92 1.385 . S
C91 H93 0.950 . S
C92 C86 1.404 . S
C92 H90 0.949 . S
C92 C91 1.385 . S
H93 C91 0.950 . S
H94 C78 0.951 . S
H95 C80 0.951 . S
H96 C82 0.951 . S
H97 C83 0.950 . S
H98 C84 0.950 . S
H99 C85 0.968 . S
H100 C87 0.950 . S
H101 C88 0.951 . S
C102 C103 1.386 . S
C102 C104 1.383 . S
C102 H118 0.951 . S
C103 C102 1.386 . S
C103 C107 1.383 . S
C104 C102 1.383 . S
C104 C105 1.402 . S
C104 H119 0.951 . S
C105 C104 1.402 . S
C105 C106 1.375 . S
C105 C108 1.481 . S
C106 C105 1.375 . S
C106 C107 1.367 . S
C106 H120 0.951 . S
C107 C103 1.383 . S
C107 C106 1.367 . S
C107 H121 0.950 . S
C108 C105 1.481 . S
C108 C109 1.297 . S
C108 H122 0.950 . S
C109 C108 1.297 . S
C109 C110 1.480 . S
C109 H123 0.950 1_545 S
C110 C109 1.480 . S
C110 C111 1.375 . S
C110 C116 1.404 . S
C111 C110 1.375 . S
C111 C112 1.369 . S
C111 H124 0.950 . S
C112 C111 1.369 . S
C112 C113 1.392 . S
C112 H125 0.951 . S
C113 C112 1.392 . S
C113 C115 1.384 . S
H114 C116 0.948 1_565 S
C115 C113 1.384 . S
C115 C116 1.385 . S
C115 H117 0.950 . S
C116 C110 1.404 . S
C116 H114 0.948 1_545 S
C116 C115 1.385 . S
H117 C115 0.950 . S
H118 C102 0.951 . S
H119 C104 0.951 . S
H120 C106 0.951 . S
H121 C107 0.950 . S
H122 C108 0.950 . S
H123 C109 0.950 1_565 S
H124 C111 0.950 . S
H125 C112 0.951 . S
C126 C127 1.386 1_655 S
C126 C128 1.383 . S
C126 H142 0.951 . S
C127 C126 1.386 1_455 S
C127 C131 1.383 . S
C128 C126 1.383 . S
C128 C129 1.402 1_655 S
C128 H143 0.951 . S
C129 C128 1.402 1_455 S
C129 C130 1.375 . S
C129 C132 1.481 . S
C130 C129 1.375 . S
C130 C131 1.367 . S
C130 H144 0.951 . S
C131 C127 1.383 . S
C131 C130 1.367 . S
C131 H145 0.950 . S
C132 C129 1.481 . S
C132 C133 1.297 1_455 S
C132 H146 0.950 . S
C133 C132 1.297 1_655 S
C133 C134 1.479 1_655 S
C133 H147 0.950 . S
C134 C133 1.479 1_455 S
C134 C135 1.375 1_455 S
C134 C140 1.404 . S
C135 C134 1.375 1_655 S
C135 C136 1.369 . S
C135 H148 0.950 . S
C136 C135 1.369 . S
C136 C137 1.392 1_655 S
C136 H149 0.951 . S
C137 C136 1.392 1_455 S
C137 C139 1.384 . S
H138 C140 0.949 . S
C139 C137 1.384 . S
C139 C140 1.385 . S
C139 H141 0.950 . S
C140 C134 1.404 . S
C140 H138 0.949 . S
C140 C139 1.385 . S
H141 C139 0.950 . S
H142 C126 0.951 . S
H143 C128 0.951 . S
H144 C130 0.951 . S
H145 C131 0.950 . S
H146 C132 0.950 . S
H147 C133 0.950 . S
H148 C135 0.950 . S
H149 C136 0.951 . S
C150 C151 1.386 . S
C150 C152 1.383 . S
C150 H166 0.951 . S
C151 C150 1.386 . S
C151 C155 1.383 . S
C152 C150 1.383 . S
C152 C153 1.402 . S
C152 H167 0.951 1_545 S
C153 C152 1.402 . S
C153 C154 1.375 . S
C153 C156 1.481 . S
C154 C153 1.375 . S
C154 C155 1.367 . S
C154 H168 0.951 . S
C155 C151 1.383 . S
C155 C154 1.367 . S
C155 H169 0.950 . S
C156 C153 1.481 . S
C156 C157 1.297 1_545 S
C156 H170 0.950 . S
C157 C156 1.297 1_565 S
C157 C158 1.479 . S
C157 H171 0.950 . S
C158 C157 1.479 . S
C158 C159 1.375 . S
C158 C164 1.404 1_565 S
C159 C158 1.375 . S
C159 C160 1.369 . S
C159 H172 0.950 . S
C160 C159 1.369 . S
C160 C161 1.392 1_565 S
C160 H173 0.951 . S
C161 C160 1.392 1_545 S
C161 C163 1.384 . S
H162 C164 0.949 . S
C163 C161 1.384 . S
C163 C164 1.385 . S
C163 H165 0.950 . S
C164 C158 1.404 1_545 S
C164 H162 0.949 . S
C164 C163 1.385 . S
H165 C163 0.950 . S
H166 C150 0.951 . S
H167 C152 0.951 1_565 S
H168 C154 0.951 . S
H169 C155 0.950 . S
H170 C156 0.950 . S
H171 C157 0.950 . S
H172 C159 0.950 . S
H173 C160 0.951 . S
C174 C175 1.386 . S
C174 C176 1.383 . S
C174 H190 0.951 1_545 S
C175 C174 1.386 . S
C175 C179 1.383 . S
C176 C174 1.383 . S
C176 C177 1.402 . S
C176 H191 0.951 1_545 S
C177 C176 1.402 . S
C177 C178 1.375 . S
C177 C180 1.481 . S
C178 C177 1.375 . S
C178 C179 1.367 . S
C178 H192 0.951 . S
C179 C175 1.383 . S
C179 C178 1.367 . S
C179 H193 0.950 . S
C180 C177 1.481 . S
C180 C181 1.297 . S
C180 H194 0.950 . S
C181 C180 1.297 . S
C181 C182 1.479 . S
C181 H195 0.950 . S
C182 C181 1.479 . S
C182 C183 1.375 1_545 S
C182 C188 1.404 . S
C183 C182 1.375 1_565 S
C183 C184 1.369 . S
C183 H196 0.950 . S
C184 C183 1.369 . S
C184 C185 1.392 1_565 S
C184 H197 0.951 . S
C185 C184 1.392 1_545 S
C185 C187 1.384 . S
H186 C188 0.949 . S
C187 C185 1.384 . S
C187 C188 1.385 . S
C187 H189 0.950 . S
C188 C182 1.404 . S
C188 H186 0.949 . S
C188 C187 1.385 . S
H189 C187 0.950 . S
H190 C174 0.951 1_565 S
H191 C176 0.951 1_565 S
H192 C178 0.951 . S
H193 C179 0.950 . S
H194 C180 0.950 . S
H195 C181 0.950 . S
H196 C183 0.950 . S
H197 C184 0.951 . S
C198 C199 1.386 . S
C198 C200 1.383 . S
C198 H214 0.951 . S
C199 C198 1.386 . S
C199 C203 1.383 1_455 S
C200 C198 1.383 . S
C200 C201 1.402 . S
C200 H215 0.951 . S
C201 C200 1.402 . S
C201 C202 1.375 1_455 S
C201 C204 1.481 . S
C202 C201 1.375 1_655 S
C202 C203 1.367 . S
C202 H216 0.951 . S
C203 C199 1.383 1_655 S
C203 C202 1.367 . S
C203 H217 0.950 . S
C204 C201 1.481 . S
C204 C205 1.297 . S
C204 H218 0.950 . S
C205 C204 1.297 . S
C205 C206 1.479 . S
C205 H219 0.950 . S
C206 C205 1.479 . S
C206 C207 1.375 . S
C206 C212 1.404 . S
C207 C206 1.375 . S
C207 C208 1.369 . S
C207 H220 0.950 . S
C208 C207 1.369 . S
C208 C209 1.392 . S
C208 H221 0.951 . S
C209 C208 1.392 . S
C209 C211 1.384 . S
H210 C212 0.949 . S
C211 C209 1.384 . S
C211 C212 1.385 . S
C211 H213 0.950 1_455 S
C212 C206 1.404 . S
C212 H210 0.949 . S
C212 C211 1.385 . S
H213 C211 0.950 1_655 S
H214 C198 0.951 . S
H215 C200 0.951 . S
H216 C202 0.951 . S
H217 C203 0.950 . S
H218 C204 0.950 . S
H219 C205 0.950 . S
H220 C207 0.950 . S
H221 C208 0.951 . S
C222 C223 1.386 . S
C222 C224 1.383 . S
C222 H238 0.951 . S
C223 C222 1.386 . S
C223 C227 1.383 1_545 S
C224 C222 1.383 . S
C224 C225 1.402 . S
C224 H239 0.951 . S
C225 C224 1.402 . S
C225 C226 1.375 1_545 S
C225 C228 1.481 . S
C226 C225 1.375 1_565 S
C226 C227 1.367 . S
C226 H240 0.951 . S
C227 C223 1.383 1_565 S
C227 C226 1.367 . S
C227 H241 0.950 . S
C228 C225 1.481 . S
C228 C229 1.297 . S
C228 H242 0.950 1_545 S
C229 C228 1.297 . S
C229 C230 1.479 . S
C229 H243 0.950 . S
C230 C229 1.479 . S
C230 C231 1.375 . S
C230 C236 1.404 1_545 S
C231 C230 1.375 . S
C231 C232 1.369 . S
C231 H244 0.950 . S
C232 C231 1.369 . S
C232 C233 1.392 . S
C232 H245 0.951 . S
C233 C232 1.392 . S
C233 C235 1.384 1_545 S
H234 C236 0.949 . S
C235 C233 1.384 1_565 S
C235 C236 1.385 . S
C235 H237 0.950 . S
C236 C230 1.404 1_565 S
C236 H234 0.949 . S
C236 C235 1.385 . S
H237 C235 0.950 . S
H238 C222 0.951 . S
H239 C224 0.951 . S
H240 C226 0.951 . S
H241 C227 0.950 . S
H242 C228 0.950 1_565 S
H243 C229 0.950 . S
H244 C231 0.950 . S
H245 C232 0.951 . S
C246 C247 1.386 1_655 S
C246 C248 1.383 . S
C246 H262 0.951 . S
C247 C246 1.386 1_455 S
C247 C251 1.383 . S
C248 C246 1.383 . S
C248 C249 1.402 1_655 S
C248 H263 0.951 . S
C249 C248 1.402 1_455 S
C249 C250 1.375 . S
C249 C252 1.481 . S
C250 C249 1.375 . S
C250 C251 1.367 . S
C250 H264 0.951 . S
C251 C247 1.383 . S
C251 C250 1.367 . S
C251 H265 0.950 . S
C252 C249 1.481 . S
C252 C253 1.293 1_455 S
C252 H266 0.950 . S
C253 C252 1.293 1_655 S
C253 C254 1.479 1_655 S
C253 H267 0.956 . S
C254 C253 1.479 1_455 S
C254 C255 1.375 1_455 S
C254 C260 1.404 . S
C255 C254 1.375 1_655 S
C255 C256 1.369 . S
C255 H268 0.950 . S
C256 C255 1.369 . S
C256 C257 1.392 1_655 S
C256 H269 0.951 . S
C257 C256 1.392 1_455 S
C257 C259 1.384 . S
H258 C260 0.949 . S
C259 C257 1.384 . S
C259 C260 1.385 . S
C259 H261 0.950 . S
C260 C254 1.404 . S
C260 H258 0.949 . S
C260 C259 1.385 . S
H261 C259 0.950 . S
H262 C246 0.951 . S
H263 C248 0.951 . S
H264 C250 0.951 . S
H265 C251 0.950 . S
H266 C252 0.950 . S
H267 C253 0.956 . S
H268 C255 0.950 . S
H269 C256 0.951 . S
C270 C271 1.386 . S
C270 C272 1.383 . S
C270 H286 0.951 . S
C271 C270 1.386 . S
C271 C275 1.383 1_554 S
C272 C270 1.383 . S
C272 C273 1.414 . S
C272 H287 0.951 . S
C273 C272 1.414 . S
C273 C274 1.365 1_554 S
C273 C276 1.478 1_554 S
C274 C273 1.365 1_556 S
C274 C275 1.367 . S
C274 H288 0.951 . S
C275 C271 1.383 1_556 S
C275 C274 1.367 . S
C275 H289 0.950 . S
C276 C273 1.478 1_556 S
C276 C277 1.297 1_556 S
C276 H290 0.950 . S
C277 C276 1.297 1_554 S
C277 C278 1.479 . S
C277 H291 0.950 . S
C278 C277 1.479 . S
C278 C279 1.375 . S
C278 C284 1.404 1_554 S
C279 C278 1.375 . S
C279 C280 1.369 . S
C279 H292 0.950 . S
C280 C279 1.369 . S
C280 C281 1.392 . S
C280 H293 0.951 . S
C281 C280 1.392 . S
C281 C283 1.384 1_554 S
H282 C284 0.949 . S
C283 C281 1.384 1_556 S
C283 C284 1.385 . S
C283 H285 0.950 . S
C284 C278 1.404 1_556 S
C284 H282 0.949 . S
C284 C283 1.385 . S
H285 C283 0.950 . S
H286 C270 0.951 . S
H287 C272 0.951 . S
H288 C274 0.951 . S
H289 C275 0.950 . S
H290 C276 0.950 . S
H291 C277 0.950 . S
H292 C279 0.950 . S
H293 C280 0.951 . S
C294 C295 1.386 . S
C294 C296 1.383 . S
C294 H310 0.951 . S
C295 C294 1.386 . S
C295 C299 1.383 . S
C296 C294 1.383 . S
C296 C297 1.402 . S
C296 H311 0.951 . S
C297 C296 1.402 . S
C297 C298 1.375 . S
C297 C300 1.481 . S
C298 C297 1.375 . S
C298 C299 1.367 . S
C298 H312 0.951 . S
C299 C295 1.383 . S
C299 C298 1.367 . S
C299 H313 0.950 . S
C300 C297 1.481 . S
C300 C301 1.297 . S
C300 H314 0.950 . S
C301 C300 1.297 . S
C301 C302 1.479 . S
C301 H315 0.950 . S
C302 C301 1.479 . S
C302 C303 1.375 . S
C302 C308 1.404 . S
C303 C302 1.375 . S
C303 C304 1.369 . S
C303 H316 0.950 . S
C304 C303 1.369 . S
C304 C305 1.392 . S
C304 H317 0.951 1_554 S
C305 C304 1.392 . S
C305 C307 1.384 . S
H306 C308 0.949 . S
C307 C305 1.384 . S
C307 C308 1.385 . S
C307 H309 0.950 . S
C308 C302 1.404 . S
C308 H306 0.949 . S
C308 C307 1.385 . S
H309 C307 0.950 . S
H310 C294 0.951 . S
H311 C296 0.951 . S
H312 C298 0.951 . S
H313 C299 0.950 . S
H314 C300 0.950 . S
H315 C301 0.950 . S
H316 C303 0.950 . S
H317 C304 0.951 1_556 S
C318 C319 1.386 . S
C318 C320 1.383 . S
C318 H334 0.951 1_554 S
C319 C318 1.386 . S
C319 C323 1.383 . S
C320 C318 1.383 . S
C320 C321 1.402 . S
C320 H335 0.951 . S
C321 C320 1.402 . S
C321 C322 1.375 . S
C321 C324 1.481 . S
C322 C321 1.375 . S
C322 C323 1.367 . S
C322 H336 0.951 . S
C323 C319 1.383 . S
C323 C322 1.367 . S
C323 H337 0.950 . S
C324 C321 1.481 . S
C324 C325 1.297 . S
C324 H338 0.950 . S
C325 C324 1.297 . S
C325 C326 1.479 . S
C325 H339 0.950 . S
C326 C325 1.479 . S
C326 C327 1.375 . S
C326 C332 1.404 . S
C327 C326 1.375 . S
C327 C328 1.369 . S
C327 H340 0.950 . S
C328 C327 1.369 . S
C328 C329 1.392 . S
C328 H341 0.951 1_554 S
C329 C328 1.392 . S
C329 C331 1.384 . S
H330 C332 0.949 . S
C331 C329 1.384 . S
C331 C332 1.385 . S
C331 H333 0.950 . S
C332 C326 1.404 . S
C332 H330 0.949 . S
C332 C331 1.385 . S
H333 C331 0.950 . S
H334 C318 0.951 1_556 S
H335 C320 0.951 . S
H336 C322 0.951 . S
H337 C323 0.950 . S
H338 C324 0.950 . S
H339 C325 0.950 . S
H340 C327 0.950 . S
H341 C328 0.951 1_556 S
C342 C343 1.386 . S
C342 C344 1.383 . S
C342 H358 0.951 . S
C343 C342 1.386 . S
C343 C347 1.383 1_554 S
C344 C342 1.383 . S
C344 C345 1.402 . S
C344 H359 0.951 . S
C345 C344 1.402 . S
C345 C346 1.375 1_554 S
C345 C348 1.481 1_554 S
C346 C345 1.375 1_556 S
C346 C347 1.367 . S
C346 H360 0.951 . S
C347 C343 1.383 1_556 S
C347 C346 1.367 . S
C347 H361 0.950 . S
C348 C345 1.481 1_556 S
C348 C349 1.297 1_556 S
C348 H362 0.950 . S
C349 C348 1.297 1_554 S
C349 C350 1.479 . S
C349 H363 0.950 . S
C350 C349 1.479 . S
C350 C351 1.375 . S
C350 C356 1.404 1_554 S
C351 C350 1.375 . S
C351 C352 1.369 . S
C351 H364 0.950 . S
C352 C351 1.369 . S
C352 C353 1.392 . S
C352 H365 0.951 . S
C353 C352 1.392 . S
C353 C355 1.384 1_554 S
H354 C356 0.949 . S
C355 C353 1.384 1_556 S
C355 C356 1.385 . S
C355 H357 0.950 . S
C356 C350 1.404 1_556 S
C356 H354 0.949 . S
C356 C355 1.385 . S
H357 C355 0.950 . S
H358 C342 0.951 . S
H359 C344 0.951 . S
H360 C346 0.951 . S
H361 C347 0.950 . S
H362 C348 0.950 . S
H363 C349 0.950 . S
H364 C351 0.950 . S
H365 C352 0.951 . S
C79 C1 1.499 . S
C89 C55 1.497 . S
C103 C5 1.494 . S
C113 C66 1.463 . S
C127 C53 1.485 . S
C137 C3 1.493 . S
C151 C68 1.480 . S
C161 C10 1.491 . S
C175 C70 1.499 . S
C185 C23 1.490 . S
C199 C36 1.499 . S
C209 C57 1.464 . S
C223 C75 1.488 . S
C233 C18 1.500 . S
C247 C62 1.493 . S
C257 C31 1.456 . S
C271 C27 1.492 . S
C281 C44 1.464 . S
C295 C42 1.497 . S
C305 C14 1.470 . S
C319 C29 1.492 . S
C329 C49 1.501 . S
C343 C40 1.478 . S
C353 C16 1.463 . S
