# Generated by pormake.
# Topology uni, (4)-cn, num edge types: 1
# Building blocks:
#     Node 0, Type 0, BuildingBlock: CEKHIL_clean_sbu_0, # of connection points: 4
#     Node 1, Type 0, BuildingBlock: CEKHIL_clean_sbu_0, # of connection points: 4
#     Node 2, Type 0, BuildingBlock: CEKHIL_clean_sbu_0, # of connection points: 4
#     Node 3, Type 0, BuildingBlock: CEKHIL_clean_sbu_0, # of connection points: 4
#     Node 4, Type 0, BuildingBlock: CEKHIL_clean_sbu_0, # of connection points: 4
#     Node 5, Type 0, BuildingBlock: CEKHIL_clean_sbu_0, # of connection points: 4
#     Edge 6, Type (0, 0), BuildingBlock: UVAHIK_clean_linker_0, # of connection points: 2
#     Edge 7, Type (0, 0), BuildingBlock: UVAHIK_clean_linker_0, # of connection points: 2
#     Edge 8, Type (0, 0), BuildingBlock: UVAHIK_clean_linker_0, # of connection points: 2
#     Edge 9, Type (0, 0), BuildingBlock: UVAHIK_clean_linker_0, # of connection points: 2
#     Edge 10, Type (0, 0), BuildingBlock: UVAHIK_clean_linker_0, # of connection points: 2
#     Edge 11, Type (0, 0), BuildingBlock: UVAHIK_clean_linker_0, # of connection points: 2
#     Edge 12, Type (0, 0), BuildingBlock: UVAHIK_clean_linker_0, # of connection points: 2
#     Edge 13, Type (0, 0), BuildingBlock: UVAHIK_clean_linker_0, # of connection points: 2
#     Edge 14, Type (0, 0), BuildingBlock: UVAHIK_clean_linker_0, # of connection points: 2
#     Edge 15, Type (0, 0), BuildingBlock: UVAHIK_clean_linker_0, # of connection points: 2
#     Edge 16, Type (0, 0), BuildingBlock: UVAHIK_clean_linker_0, # of connection points: 2
#     Edge 17, Type (0, 0), BuildingBlock: UVAHIK_clean_linker_0, # of connection points: 2
# Relax obj value: 0.072
# Max RMSD: 0.101
# Mean RMSD: 0.095
data_MOF--net-uni--node1-CEKHIL_clean_sbu_0--edge1-UVAHIK_clean_linker_0
_symmetry_space_group_name_H-M    P1
_symmetry_Int_Tables_number       1
_symmetry_cell_setting            triclinic
loop_
_symmetry_equiv_pos_as_xyz
'x, y, z'
_cell_length_a     49.964095
_cell_length_b     49.542313
_cell_length_c     29.843789
_cell_angle_alpha  90.034774
_cell_angle_beta   89.999356
_cell_angle_gamma 120.85321
loop_
_atom_site_label
_atom_site_type_symbol
_atom_site_fract_x
_atom_site_fract_y
_atom_site_fract_z
_atom_type_partial_charge
Co0 Co 0.65813 0.03076 0.07463 0.0
O1 O 0.67219 0.01116 0.11695 0.0
O2 O 0.63596 0.98577 0.06529 0.0
C3 C 0.70638 0.0697 0.05477 0.0
O4 O 0.63814 0.04203 0.02382 0.0
Co5 Co 0.67245 0.09927 0.08402 0.0
O6 O 0.65636 0.0939 0.022 0.0
C7 C 0.62373 0.04873 0.14094 0.0
C8 C 0.65298 0.98472 0.0974 0.0
C9 C 0.64032 0.06652 0.0051 0.0
O10 O 0.62584 0.02744 0.11902 0.0
O11 O 0.64171 0.07824 0.13387 0.0
O12 O 0.69428 0.04204 0.03656 0.0
O13 O 0.68995 0.07238 0.08586 0.0
Co14 Co 0.65797 0.66372 0.24288 0.0
O15 O 0.69491 0.68098 0.27996 0.0
O16 O 0.67928 0.64075 0.2336 0.0
C17 C 0.666 0.71055 0.21849 0.0
O18 O 0.62309 0.64024 0.19726 0.0
Co19 Co 0.60463 0.67737 0.2577 0.0
O20 O 0.58889 0.65682 0.19863 0.0
C21 C 0.61031 0.63289 0.31764 0.0
C22 C 0.69977 0.65986 0.26242 0.0
C23 C 0.59932 0.64055 0.18119 0.0
O24 O 0.63175 0.63378 0.29245 0.0
O25 O 0.59875 0.65041 0.31115 0.0
O26 O 0.68021 0.69781 0.19923 0.0
O27 O 0.6493 0.69584 0.25291 0.0
Co28 Co 0.02423 0.65948 0.39455 0.0
O29 O 1.00577 0.67503 0.35267 0.0
O30 O 0.97925 0.63603 0.40038 0.0
C31 C 0.0621 0.70729 0.41889 0.0
O32 O 0.03446 0.63794 0.44458 0.0
Co33 Co 0.0928 0.67501 0.38687 0.0
O34 O 0.0862 0.65805 0.44854 0.0
C35 C 0.04426 0.62687 0.32729 0.0
C36 C 0.97897 0.65434 0.36943 0.0
C37 C 0.05881 0.64081 0.46418 0.0
O38 O 0.02261 0.62855 0.3484 0.0
O39 O 0.07332 0.64492 0.33579 0.0
O40 O 0.03405 0.69463 0.43509 0.0
O41 O 0.0656 0.69199 0.38674 0.0
Co42 Co 0.39236 0.02429 0.57501 0.0
O43 O 0.37743 0.04353 0.61661 0.0
O44 O 0.41427 0.06929 0.56594 0.0
C45 C 0.3447 0.9849 0.55373 0.0
O46 O 0.4132 0.01333 0.52507 0.0
Co47 Co 0.37883 0.95607 0.5859 0.0
O48 O 0.39692 0.96183 0.52512 0.0
C49 C 0.42547 0.00691 0.64438 0.0
C50 C 0.39677 0.0701 0.59752 0.0
C51 C 0.4123 0.98907 0.5076 0.0
O52 O 0.42428 0.02798 0.62046 0.0
O53 O 0.40735 0.97735 0.63798 0.0
O54 O 0.35654 0.01262 0.53587 0.0
O55 O 0.36083 0.98252 0.58556 0.0
Co56 Co 0.39529 0.39317 0.74282 0.0
O57 O 0.35952 0.377 0.78218 0.0
O58 O 0.37345 0.41557 0.73347 0.0
C59 C 0.38671 0.34573 0.72017 0.0
O60 O 0.42886 0.41557 0.69507 0.0
Co61 Co 0.44918 0.37998 0.75516 0.0
O62 O 0.46225 0.39797 0.69422 0.0
C63 C 0.44583 0.42683 0.81331 0.0
C64 C 0.3539 0.39741 0.76392 0.0
C65 C 0.45172 0.41431 0.67738 0.0
O66 O 0.42282 0.42444 0.79033 0.0
O67 O 0.45771 0.40965 0.80618 0.0
O68 O 0.37184 0.3579 0.70132 0.0
O69 O 0.40441 0.36139 0.75337 0.0
Co70 Co 0.02759 0.39536 0.89464 0.0
O71 O 0.04706 0.38031 0.85373 0.0
O72 O 0.07242 0.41893 0.9024 0.0
C73 C 0.98953 0.34727 0.91765 0.0
O74 O 0.01626 0.41656 0.94373 0.0
Co75 Co 0.95895 0.37911 0.88415 0.0
O76 O 0.96474 0.39808 0.94449 0.0
C77 C 0.00806 0.42622 0.82426 0.0
C78 C 0.0735 0.401 0.87149 0.0
C79 C 0.99184 0.41476 0.9614 0.0
O80 O 0.02967 0.42615 0.84795 0.0
O81 O 0.97896 0.40734 0.83135 0.0
O82 O 0.01718 0.36017 0.93539 0.0
O83 O 0.98659 0.36265 0.88517 0.0
C84 C 0.58254 0.00859 0.19298 0.0
C85 C 0.59955 0.03947 0.1762 0.0
C86 C 0.56096 1.00107 0.22786 0.0
C87 C 0.54292 0.03925 0.32004 0.0
H88 H 0.46147 0.96327 0.32101 0.0
C89 C 0.44887 0.0228 0.44651 0.0
C90 C 0.43124 0.99318 0.46695 0.0
C91 C 0.46824 0.02702 0.41005 0.0
C92 C 0.48426 0.98446 0.32145 0.0
H93 H 0.60605 0.08623 0.18185 0.0
H94 H 0.56864 0.07307 0.24157 0.0
H95 H 0.49769 0.97249 0.25966 0.0
H96 H 0.41972 0.94456 0.46406 0.0
H97 H 0.4537 0.95207 0.4009 0.0
H98 H 0.52976 0.05134 0.38156 0.0
C99 C 0.5724 0.0548 0.22877 0.0
C100 C 0.50501 0.98969 0.28633 0.0
C101 C 0.59384 0.0623 0.19425 0.0
C102 C 0.43292 0.96773 0.44923 0.0
C103 C 0.45232 0.97198 0.4128 0.0
C104 C 0.52227 0.03404 0.35501 0.0
C105 C 0.55604 0.02428 0.24656 0.0
C106 C 0.53444 0.01737 0.28496 0.0
C107 C 0.47053 1.00176 0.39311 0.0
C108 C 0.49254 0.00677 0.35597 0.0
H109 H 0.58632 0.99043 0.17983 0.0
H110 H 0.54873 0.97732 0.24093 0.0
H111 H 0.56567 0.0605 0.32056 0.0
H112 H 0.44807 0.04291 0.45898 0.0
H113 H 0.48151 0.05018 0.39517 0.0
C114 C 0.57456 0.60995 0.38339 0.0
C115 C 0.5969 0.60973 0.35486 0.0
C116 C 0.55973 0.58705 0.41631 0.0
C117 C 0.56506 0.52895 0.48543 0.0
H118 H 0.47568 0.49282 0.49619 0.0
C119 C 0.49066 0.43118 0.61452 0.0
C120 C 0.46738 0.43381 0.6372 0.0
C121 C 0.50631 0.45052 0.57786 0.0
C122 C 0.50066 0.50284 0.494 0.0
H123 H 0.62184 0.5856 0.33998 0.0
H124 H 0.59578 0.54539 0.3982 0.0
H125 H 0.50416 0.53072 0.43713 0.0
H126 H 0.4423 0.45886 0.63865 0.0
H127 H 0.46985 0.49281 0.57548 0.0
H128 H 0.56165 0.50158 0.54304 0.0
C129 C 0.58986 0.56347 0.3946 0.0
C130 C 0.51697 0.52451 0.46003 0.0
C131 C 0.60474 0.58647 0.36127 0.0
C132 C 0.45993 0.456 0.62193 0.0
C133 C 0.47567 0.47542 0.58544 0.0
C134 C 0.54872 0.50733 0.5197 0.0
C135 C 0.56676 0.56324 0.42188 0.0
C136 C 0.54942 0.53823 0.45579 0.0
C137 C 0.49916 0.47303 0.56301 0.0
C138 C 0.51637 0.49438 0.52484 0.0
H139 H 0.56807 0.62761 0.38002 0.0
H140 H 0.54257 0.58796 0.43744 0.0
H141 H 0.59008 0.53926 0.48315 0.0
H142 H 0.49691 0.41424 0.62516 0.0
H143 H 0.52393 0.4477 0.56102 0.0
C144 C 0.04736 0.47402 0.7804 0.0
C145 C 0.01643 0.44969 0.78784 0.0
C146 C 0.05413 0.49685 0.7474 0.0
C147 C 0.01637 0.5322 0.68316 0.0
H148 H 0.08444 0.55827 0.59921 0.0
C149 C 0.02525 0.59883 0.51997 0.0
C150 C 0.05498 0.62211 0.50513 0.0
C151 C 0.02199 0.57993 0.55685 0.0
C152 C 0.0656 0.55162 0.6228 0.0
H153 H 0.96858 0.42991 0.76508 0.0
H154 H 0.98042 0.46918 0.7082 0.0
H155 H 0.07708 0.52159 0.65925 0.0
H156 H 0.10459 0.64437 0.51866 0.0
H157 H 0.09882 0.6118 0.58312 0.0
H158 H 1.00467 0.56193 0.64677 0.0
C159 C 0.9994 0.47109 0.72828 0.0
C160 C 0.06141 0.53059 0.65719 0.0
C161 C 0.99266 0.44839 0.76087 0.0
C162 C 0.08131 0.62652 0.52881 0.0
C163 C 0.07804 0.60769 0.5657 0.0
C164 C 0.02058 0.55324 0.64892 0.0
C165 C 0.03008 0.49583 0.72147 0.0
C166 C 0.03642 0.52024 0.6873 0.0
C167 C 0.04837 0.58392 0.5799 0.0
C168 C 0.04497 0.56288 0.61789 0.0
H169 H 0.06624 0.47574 0.80049 0.0
H170 H 0.07804 0.51568 0.74289 0.0
H171 H 0.99723 0.52514 0.70636 0.0
H172 H 1.00446 0.59468 0.50252 0.0
H173 H 0.99878 0.56161 0.56652 0.0
C174 C 0.59987 0.03242 0.94817 0.0
C175 C 0.62201 0.06257 0.96381 0.0
C176 C 0.58118 0.02875 0.91107 0.0
C177 C 0.55104 0.07082 0.84492 0.0
H178 H 0.52737 0.00214 0.76162 0.0
C179 C 0.47254 0.04816 0.68731 0.0
C180 C 0.44926 0.01653 0.68039 0.0
C181 C 0.49557 0.0562 0.72016 0.0
C182 C 0.53365 0.02137 0.78472 0.0
H183 H 0.64237 0.11255 0.9516 0.0
H184 H 0.61017 0.10608 0.88651 0.0
H185 H 0.56439 0.01137 0.8212 0.0
H186 H 0.43159 0.96875 0.70391 0.0
H187 H 0.47121 0.98278 0.76053 0.0
H188 H 0.51998 0.08057 0.80827 0.0
C189 C 0.60682 0.08526 0.90351 0.0
C190 C 0.55483 0.02661 0.81897 0.0
C191 C 0.62545 0.08895 0.94073 0.0
C192 C 0.44924 0.99335 0.7077 0.0
C193 C 0.47215 1.00134 0.74015 0.0
C194 C 0.52987 0.06562 0.81045 0.0
C195 C 0.58424 0.05512 0.88845 0.0
C196 C 0.5634 0.05105 0.85004 0.0
C197 C 0.49582 0.03275 0.74647 0.0
C198 C 0.52049 0.04044 0.7805 0.0
H199 H 0.59642 0.01156 0.96518 0.0
H200 H 0.56374 0.00516 0.90087 0.0
H201 H 0.55687 0.08969 0.86847 0.0
H202 H 0.47326 0.06662 0.66698 0.0
H203 H 0.51356 0.08065 0.72429 0.0
C204 C 0.59462 0.60335 0.12029 0.0
C205 C 0.58285 0.62035 0.14185 0.0
C206 C 0.57857 0.58336 0.08443 0.0
C207 C 0.51798 0.56493 0.99845 0.0
H208 H 0.51422 0.48484 0.99499 0.0
C209 C 0.44529 0.46617 0.86694 0.0
C210 C 0.46002 0.45063 0.84962 0.0
C211 C 0.45879 0.48754 0.9026 0.0
C212 C 0.51524 0.50721 0.99519 0.0
H213 H 0.54505 0.62994 0.14178 0.0
H214 H 0.51691 0.59477 0.0795 0.0
H215 H 0.54093 0.52096 0.05653 0.0
H216 H 0.50122 0.44661 0.85508 0.0
H217 H 0.52454 0.48368 0.91606 0.0
H218 H 0.49228 0.55097 0.9367 0.0
C219 C 0.53876 0.59718 0.09013 0.0
C220 C 0.53063 0.52797 0.03049 0.0
C221 C 0.55486 0.61725 0.12602 0.0
C222 C 0.48883 0.45762 0.86792 0.0
C223 C 0.50224 0.47887 0.90316 0.0
C224 C 0.50252 0.54406 0.96296 0.0
C225 C 0.55026 0.57973 0.06921 0.0
C226 C 0.53263 0.55729 0.03229 0.0
C227 C 0.48724 0.49374 0.9215 0.0
C228 C 0.50143 0.51517 0.96058 0.0
H229 H 0.61622 0.60529 0.13121 0.0
H230 H 0.58843 0.57075 0.06854 0.0
H231 H 0.5192 0.58739 0.9987 0.0
H232 H 0.42312 0.46138 0.85358 0.0
H233 H 0.44663 0.4986 0.91605 0.0
C234 C 0.02457 0.45176 0.02295 0.0
C235 C 0.99546 0.43398 0.00174 0.0
C236 C 0.02823 0.47113 0.05941 0.0
C237 C 0.98455 0.48689 0.14624 0.0
H238 H 0.05997 0.56893 0.14953 0.0
C239 C 1.00571 0.58569 0.27359 0.0
C240 C 0.03595 0.60285 0.29171 0.0
C241 C 0.99904 0.56401 0.23881 0.0
C242 C 0.03888 0.546 0.14938 0.0
H243 H 0.9472 0.42228 0.00314 0.0
H244 H 0.95376 0.45634 0.06616 0.0
H245 H 0.05206 0.5329 0.08876 0.0
H246 H 0.08245 0.60951 0.28857 0.0
H247 H 0.07075 0.57194 0.22905 0.0
H248 H 0.97147 0.50028 0.20708 0.0
C249 C 0.97368 0.45501 0.05497 0.0
C250 C 0.03438 0.52527 0.11455 0.0
C251 C 0.96998 0.43557 0.01859 0.0
C252 C 0.059 0.59721 0.27508 0.0
C253 C 0.05235 0.57567 0.24068 0.0
C254 C 0.98905 0.50772 0.18119 0.0
C255 C 1.00293 0.47332 0.07552 0.0
C256 C 0.00732 0.49533 0.11268 0.0
C257 C 0.02248 0.55913 0.22159 0.0
C258 C 0.01646 0.53739 0.1834 0.0
H259 H 0.04466 0.45097 0.01118 0.0
H260 H 0.05098 0.48446 0.07496 0.0
H261 H 0.96352 0.46392 0.14602 0.0
H262 H 0.98739 0.58939 0.28567 0.0
H263 H 0.97578 0.55165 0.22471 0.0
C264 C 0.66304 0.75839 0.23269 0.0
C265 C 0.66759 0.73949 0.20219 0.0
C266 C 0.66326 0.78526 0.21818 0.0
C267 C 0.64248 0.8181 0.12914 0.0
H268 H 0.70209 0.89979 0.17824 0.0
C269 C 0.64247 0.93103 0.07728 0.0
C270 C 0.6525 0.9554 0.10881 0.0
C271 C 0.64495 0.90466 0.08637 0.0
C272 C 0.68485 0.87716 0.16471 0.0
H273 H 0.67567 0.73365 0.1325 0.0
H274 H 0.67485 0.78049 0.10663 0.0
H275 H 0.70588 0.85411 0.19762 0.0
H276 H 0.67181 0.97076 0.17523 0.0
H277 H 0.67444 0.92418 0.19233 0.0
H278 H 0.62016 0.84035 0.09833 0.0
C279 C 0.67172 0.77456 0.14192 0.0
C280 C 0.68737 0.85108 0.17543 0.0
C281 C 0.67232 0.74797 0.1567 0.0
C282 C 0.66408 0.95243 0.15017 0.0
C283 C 0.66593 0.92578 0.15968 0.0
C284 C 0.6395 0.84406 0.11914 0.0
C285 C 0.66726 0.79342 0.17268 0.0
C286 C 0.66614 0.82134 0.15793 0.0
C287 C 0.65697 0.90172 0.12761 0.0
C288 C 0.6605 0.874 0.1371 0.0
H289 H 0.65938 0.75242 0.26797 0.0
H290 H 0.65965 0.79938 0.24242 0.0
H291 H 0.62561 0.79524 0.11572 0.0
H292 H 0.63375 0.93284 0.04488 0.0
H293 H 0.63821 0.88706 0.06043 0.0
C294 C 0.95107 0.67976 0.33706 0.0
C295 C 0.94983 0.65314 0.35591 0.0
C296 C 0.92364 0.67961 0.32703 0.0
C297 C 0.84361 0.63174 0.29392 0.0
H298 H 0.82852 0.69155 0.35556 0.0
C299 C 0.72753 0.62988 0.26994 0.0
C300 C 0.72773 0.65821 0.27392 0.0
C301 C 0.7541 0.62848 0.28074 0.0
C302 C 0.83244 0.67506 0.3372 0.0
H303 H 0.91889 0.60521 0.37792 0.0
H304 H 0.87078 0.60459 0.35854 0.0
H305 H 0.87607 0.6909 0.37068 0.0
H306 H 0.75606 0.70748 0.29123 0.0
H307 H 0.80281 0.70572 0.30736 0.0
H308 H 0.8011 0.6168 0.25856 0.0
C309 C 0.89308 0.62566 0.35231 0.0
C310 C 0.85967 0.67456 0.34632 0.0
C311 C 0.92055 0.62606 0.36343 0.0
C312 C 0.75511 0.6852 0.28837 0.0
C313 C 0.78193 0.68404 0.298 0.0
C314 C 0.81673 0.63273 0.28388 0.0
C315 C 0.89441 0.65259 0.33459 0.0
C316 C 0.86544 0.65286 0.32489 0.0
C317 C 0.78188 0.65561 0.29466 0.0
C318 C 0.81061 0.65438 0.30543 0.0
H319 H 0.97327 0.70104 0.33114 0.0
H320 H 0.92522 0.70062 0.31328 0.0
H321 H 0.84772 0.61493 0.27673 0.0
H322 H 0.70665 0.60863 0.25916 0.0
H323 H 0.75257 0.60593 0.27858 0.0
C324 C 0.08461 0.75781 0.46241 0.0
C325 C 0.0889 0.73645 0.4369 0.0
C326 C 0.11044 0.78611 0.47713 0.0
C327 C 0.18105 0.82574 0.52358 0.0
H328 H 0.22335 0.8932 0.43711 0.0
C329 C 0.30658 0.92716 0.55256 0.0
C330 C 0.31475 0.95759 0.53906 0.0
C331 C 0.27774 0.90127 0.54084 0.0
C332 C 0.21165 0.87485 0.46192 0.0
H333 H 0.12353 0.72762 0.40784 0.0
H334 H 0.16833 0.77671 0.43403 0.0
H335 H 0.17405 0.84592 0.41701 0.0
H336 H 0.29921 0.98482 0.50244 0.0
H337 H 0.24835 0.93959 0.48271 0.0
H338 H 0.21856 0.85404 0.56843 0.0
C339 C 0.14506 0.77168 0.44204 0.0
C340 C 0.18352 0.84783 0.4503 0.0
C341 C 0.1194 0.74362 0.42715 0.0
C342 C 0.29359 0.96159 0.51309 0.0
C343 C 0.2645 0.93565 0.50173 0.0
C344 C 0.20918 0.8527 0.53524 0.0
C345 C 0.14076 0.79319 0.46672 0.0
C346 C 0.16827 0.82303 0.48091 0.0
C347 C 0.25612 0.90517 0.51578 0.0
C348 C 0.22512 0.87742 0.50431 0.0
H349 H 0.06137 0.75296 0.47013 0.0
H350 H 0.10679 0.80259 0.49614 0.0
H351 H 0.16968 0.80665 0.54745 0.0
H352 H 0.3225 0.92328 0.57227 0.0
H353 H 0.27249 0.87813 0.55127 0.0
C354 C 0.39403 0.30025 0.73288 0.0
C355 C 0.38525 0.31678 0.70397 0.0
C356 C 0.39372 0.27334 0.71819 0.0
C357 C 0.41083 0.23799 0.63322 0.0
H358 H 0.34654 0.15553 0.67395 0.0
C359 C 0.40894 0.12457 0.57872 0.0
C360 C 0.39714 0.09936 0.60907 0.0
C361 C 0.40682 0.15113 0.58796 0.0
C362 C 0.36497 0.17835 0.66271 0.0
H363 H 0.36942 0.3182 0.63689 0.0
H364 H 0.36975 0.27117 0.61069 0.0
H365 H 0.34354 0.20175 0.69364 0.0
H366 H 0.37485 0.08266 0.67359 0.0
H367 H 0.37259 0.12946 0.69091 0.0
H368 H 0.43339 0.21532 0.60438 0.0
C369 C 0.37641 0.27909 0.64491 0.0
C370 C 0.36294 0.20471 0.67355 0.0
C371 C 0.37613 0.30581 0.65991 0.0
C372 C 0.38398 0.10164 0.64941 0.0
C373 C 0.38238 0.12842 0.65906 0.0
C374 C 0.4132 0.2117 0.62294 0.0
C375 C 0.38518 0.26271 0.67408 0.0
C376 C 0.38588 0.23469 0.65902 0.0
C377 C 0.39331 0.1534 0.62818 0.0
C378 C 0.39042 0.18146 0.63787 0.0
H379 H 0.40108 0.30808 0.76705 0.0
H380 H 0.40056 0.26101 0.74115 0.0
H381 H 0.42899 0.26106 0.62222 0.0
H382 H 0.41893 0.12336 0.54711 0.0
H383 H 0.41511 0.1695 0.56295 0.0
C384 C 0.13144 0.42463 0.87914 0.0
C385 C 0.10309 0.40281 0.85867 0.0
C386 C 0.159 0.42503 0.86871 0.0
C387 C 0.18705 0.37445 0.82266 0.0
H388 H 0.26572 0.45293 0.81029 0.0
C389 C 0.30442 0.37824 0.80763 0.0
C390 C 0.3261 0.39928 0.77632 0.0
C391 C 0.27766 0.37929 0.81821 0.0
C392 C 0.24392 0.43079 0.81337 0.0
H393 H 0.08162 0.36463 0.8106 0.0
H394 H 0.12958 0.3655 0.79216 0.0
H395 H 0.21824 0.45382 0.82622 0.0
H396 H 0.33674 0.43812 0.73184 0.0
H397 H 0.29004 0.43987 0.75011 0.0
H398 H 0.21256 0.3514 0.80911 0.0
C399 C 0.13052 0.38206 0.81673 0.0
C400 C 0.21673 0.4313 0.82298 0.0
C401 C 0.10303 0.38172 0.82706 0.0
C402 C 0.32057 0.42162 0.7562 0.0
C403 C 0.29384 0.42273 0.76686 0.0
C404 C 0.21423 0.37394 0.8132 0.0
C405 C 0.15884 0.40354 0.83767 0.0
C406 C 0.18791 0.40313 0.82763 0.0
C407 C 0.27193 0.40146 0.79782 0.0
C408 C 0.24303 0.40209 0.80836 0.0
H409 H 0.1323 0.44114 0.90375 0.0
H410 H 0.18029 0.4417 0.88581 0.0
H411 H 0.16537 0.35228 0.82652 0.0
H412 H 0.30798 0.36077 0.82381 0.0
H413 H 0.26154 0.36283 0.84265 0.0
C414 C 0.96468 0.3016 0.97132 0.0
C415 C 0.96249 0.31756 0.9339 0.0
C416 C 0.93864 0.27332 0.98563 0.0
C417 C 0.87402 0.22465 0.02252 0.0
H418 H 0.81993 0.16519 0.93229 0.0
C419 C 0.74822 0.12618 0.06131 0.0
C420 C 0.73685 0.09667 0.04099 0.0
C421 C 0.77724 0.1517 0.04931 0.0
C422 C 0.83493 0.1813 0.95799 0.0
H423 H 0.93133 0.31656 0.88238 0.0
H424 H 0.8863 0.26778 0.90732 0.0
H425 H 0.86843 0.21189 0.90972 0.0
H426 H 0.74704 0.07072 0.99225 0.0
H427 H 0.79794 0.11536 0.97136 0.0
H428 H 0.84047 0.19398 0.07082 0.0
C429 C 0.90805 0.27667 0.92534 0.0
C430 C 0.86258 0.20827 0.94501 0.0
C431 C 0.93387 0.30482 0.91125 0.0
C432 C 0.75513 0.09322 0.00834 0.0
C433 C 0.78423 0.11881 0.99631 0.0
C434 C 0.8463 0.19766 0.03553 0.0
C435 C 0.9101 0.26046 0.96252 0.0
C436 C 0.8822 0.23052 0.97702 0.0
C437 C 0.79565 0.14836 0.01672 0.0
C438 C 0.82619 0.1759 0.00334 0.0
H439 H 0.98644 0.31089 0.98945 0.0
H440 H 0.94096 0.26131 0.01434 0.0
H441 H 0.88854 0.24139 0.04796 0.0
H442 H 0.73467 0.12963 0.08653 0.0
H443 H 0.78501 0.17423 0.06511 0.0
loop_
_geom_bond_atom_site_label_1
_geom_bond_atom_site_label_2
_geom_bond_distance
_geom_bond_site_symmetry_2
_ccdc_geom_bond_type
Co0 O1 2.216 . S
Co0 O2 2.091 1_545 S
Co0 O4 2.004 . S
Co0 O10 2.021 . S
Co0 O12 2.137 . S
Co0 O13 2.244 . S
O1 Co0 2.216 . S
O1 C8 1.247 1_545 S
O2 Co0 2.091 1_565 S
O2 C8 1.261 . S
C3 O12 1.247 . S
C3 O13 1.272 . S
O4 Co0 2.004 . S
O4 C9 1.259 1_554 S
Co5 O6 2.061 . S
Co5 O11 2.052 . S
Co5 O13 2.135 . S
O6 Co5 2.061 . S
O6 C9 1.235 1_554 S
C7 O10 1.238 . S
C7 O11 1.241 . S
C8 O1 1.247 1_565 S
C8 O2 1.261 . S
C9 O4 1.259 1_556 S
C9 O6 1.235 1_556 S
O10 Co0 2.021 . S
O10 C7 1.238 . S
O11 Co5 2.052 . S
O11 C7 1.241 . S
O12 Co0 2.137 . S
O12 C3 1.247 . S
O13 Co0 2.244 . S
O13 C3 1.272 . S
O13 Co5 2.135 . S
Co14 O15 2.216 . S
Co14 O16 2.091 . S
Co14 O18 2.004 . S
Co14 O24 2.021 . S
Co14 O26 2.137 . S
Co14 O27 2.244 . S
O15 Co14 2.216 . S
O15 C22 1.247 . S
O16 Co14 2.091 . S
O16 C22 1.261 . S
C17 O26 1.247 . S
C17 O27 1.272 . S
O18 Co14 2.004 . S
O18 C23 1.259 . S
Co19 O20 2.061 . S
Co19 O25 2.052 . S
Co19 O27 2.135 . S
O20 Co19 2.061 . S
O20 C23 1.235 . S
C21 O24 1.238 . S
C21 O25 1.241 . S
C22 O15 1.247 . S
C22 O16 1.261 . S
C23 O18 1.259 . S
C23 O20 1.235 . S
O24 Co14 2.021 . S
O24 C21 1.238 . S
O25 Co19 2.052 . S
O25 C21 1.241 . S
O26 Co14 2.137 . S
O26 C17 1.247 . S
O27 Co14 2.244 . S
O27 C17 1.272 . S
O27 Co19 2.135 . S
Co28 O29 2.202 1_455 S
Co28 O30 2.091 1_455 S
Co28 O32 2.004 . S
Co28 O38 2.021 . S
Co28 O40 2.137 . S
Co28 O41 2.244 . S
O29 Co28 2.202 1_655 S
O29 C36 1.266 . S
O30 Co28 2.091 1_655 S
O30 C36 1.261 . S
C31 O40 1.247 . S
C31 O41 1.272 . S
O32 Co28 2.004 . S
O32 C37 1.259 . S
Co33 O34 2.061 . S
Co33 O39 2.052 . S
Co33 O41 2.135 . S
O34 Co33 2.061 . S
O34 C37 1.235 . S
C35 O38 1.238 . S
C35 O39 1.241 . S
C36 O29 1.266 . S
C36 O30 1.261 . S
C37 O32 1.259 . S
C37 O34 1.235 . S
O38 Co28 2.021 . S
O38 C35 1.238 . S
O39 Co33 2.052 . S
O39 C35 1.241 . S
O40 Co28 2.137 . S
O40 C31 1.247 . S
O41 Co28 2.244 . S
O41 C31 1.272 . S
O41 Co33 2.135 . S
Co42 O43 2.216 . S
Co42 O44 2.091 . S
Co42 O46 2.004 . S
Co42 O52 2.021 . S
Co42 O54 2.137 . S
Co42 O55 2.244 1_545 S
O43 Co42 2.216 . S
O43 C50 1.247 . S
O44 Co42 2.091 . S
O44 C50 1.261 . S
C45 O54 1.247 1_565 S
C45 O55 1.272 . S
O46 Co42 2.004 . S
O46 C51 1.259 . S
Co47 O48 2.061 . S
Co47 O53 2.052 . S
Co47 O55 2.135 . S
O48 Co47 2.061 . S
O48 C51 1.235 1_565 S
C49 O52 1.238 . S
C49 O53 1.241 1_545 S
C50 O43 1.247 . S
C50 O44 1.261 . S
C51 O46 1.259 . S
C51 O48 1.235 1_545 S
O52 Co42 2.021 . S
O52 C49 1.238 . S
O53 Co47 2.052 . S
O53 C49 1.241 1_565 S
O54 Co42 2.137 . S
O54 C45 1.247 1_545 S
O55 Co42 2.244 1_565 S
O55 C45 1.272 . S
O55 Co47 2.135 . S
Co56 O57 2.216 . S
Co56 O58 2.091 . S
Co56 O60 2.004 . S
Co56 O66 2.021 . S
Co56 O68 2.137 . S
Co56 O69 2.244 . S
O57 Co56 2.216 . S
O57 C64 1.247 . S
O58 Co56 2.091 . S
O58 C64 1.261 . S
C59 O68 1.247 . S
C59 O69 1.272 . S
O60 Co56 2.004 . S
O60 C65 1.259 . S
Co61 O62 2.061 . S
Co61 O67 2.052 . S
Co61 O69 2.135 . S
O62 Co61 2.061 . S
O62 C65 1.235 . S
C63 O66 1.238 . S
C63 O67 1.241 . S
C64 O57 1.247 . S
C64 O58 1.261 . S
C65 O60 1.259 . S
C65 O62 1.235 . S
O66 Co56 2.021 . S
O66 C63 1.238 . S
O67 Co61 2.052 . S
O67 C63 1.241 . S
O68 Co56 2.137 . S
O68 C59 1.247 . S
O69 Co56 2.244 . S
O69 C59 1.272 . S
O69 Co61 2.135 . S
Co70 O71 2.216 . S
Co70 O72 2.091 . S
Co70 O74 2.004 . S
Co70 O80 2.021 . S
Co70 O82 2.137 . S
Co70 O83 2.244 1_455 S
O71 Co70 2.216 . S
O71 C78 1.247 . S
O72 Co70 2.091 . S
O72 C78 1.261 . S
C73 O82 1.247 1_655 S
C73 O83 1.272 . S
O74 Co70 2.004 . S
O74 C79 1.259 . S
Co75 O76 2.061 . S
Co75 O81 2.052 . S
Co75 O83 2.135 . S
O76 Co75 2.061 . S
O76 C79 1.235 1_655 S
C77 O80 1.238 . S
C77 O81 1.241 1_455 S
C78 O71 1.247 . S
C78 O72 1.261 . S
C79 O74 1.259 . S
C79 O76 1.235 1_455 S
O80 Co70 2.021 . S
O80 C77 1.238 . S
O81 Co75 2.052 . S
O81 C77 1.241 1_655 S
O82 Co70 2.137 . S
O82 C73 1.247 1_455 S
O83 Co70 2.244 1_655 S
O83 C73 1.272 . S
O83 Co75 2.135 . S
C84 C85 1.349 1_565 S
C84 C86 1.327 . S
C84 H109 0.950 . S
C85 C84 1.349 1_545 S
C85 C101 1.349 . S
C86 C84 1.327 . S
C86 C105 1.429 1_565 S
C86 H110 0.950 . S
C87 C104 1.574 . S
C87 C106 1.368 . S
C87 H111 0.949 . S
H88 C92 0.949 . S
C89 C90 1.349 . S
C89 C91 1.327 . S
C89 H112 0.950 . S
C90 C89 1.349 . S
C90 C102 1.349 1_545 S
C91 C89 1.327 . S
C91 C107 1.429 . S
C91 H113 0.950 . S
C92 H88 0.949 . S
C92 C100 1.574 . S
C92 C108 1.368 1_565 S
H93 C101 0.950 . S
H94 C99 0.950 . S
H95 C100 0.949 . S
H96 C102 0.950 . S
H97 C103 0.950 . S
H98 C104 0.949 . S
C99 H94 0.950 . S
C99 C101 1.327 . S
C99 C105 1.429 . S
C100 C92 1.574 . S
C100 H95 0.949 . S
C100 C106 1.368 1_565 S
C101 C85 1.349 . S
C101 H93 0.950 . S
C101 C99 1.327 . S
C102 C90 1.349 1_565 S
C102 H96 0.950 . S
C102 C103 1.327 . S
C103 H97 0.950 . S
C103 C102 1.327 . S
C103 C107 1.429 1_565 S
C104 C87 1.574 . S
C104 H98 0.949 . S
C104 C108 1.368 . S
C105 C86 1.429 1_545 S
C105 C99 1.429 . S
C105 C106 1.523 . S
C106 C87 1.368 . S
C106 C100 1.368 1_545 S
C106 C105 1.523 . S
C107 C91 1.429 . S
C107 C103 1.429 1_545 S
C107 C108 1.523 . S
C108 C92 1.368 1_545 S
C108 C104 1.368 . S
C108 C107 1.523 . S
H109 C84 0.950 . S
H110 C86 0.950 . S
H111 C87 0.949 . S
H112 C89 0.950 . S
H113 C91 0.950 . S
C114 C115 1.349 . S
C114 C116 1.327 . S
C114 H139 0.950 . S
C115 C114 1.349 . S
C115 C131 1.349 . S
C116 C114 1.327 . S
C116 C135 1.429 . S
C116 H140 0.950 . S
C117 C134 1.574 . S
C117 C136 1.368 . S
C117 H141 0.949 . S
H118 C122 0.949 . S
C119 C120 1.349 . S
C119 C121 1.327 . S
C119 H142 0.950 . S
C120 C119 1.349 . S
C120 C132 1.349 . S
C121 C119 1.327 . S
C121 C137 1.429 . S
C121 H143 0.950 . S
C122 H118 0.949 . S
C122 C130 1.574 . S
C122 C138 1.368 . S
H123 C131 0.950 . S
H124 C129 0.950 . S
H125 C130 0.949 . S
H126 C132 0.950 . S
H127 C133 0.950 . S
H128 C134 0.949 . S
C129 H124 0.950 . S
C129 C131 1.327 . S
C129 C135 1.429 . S
C130 C122 1.574 . S
C130 H125 0.949 . S
C130 C136 1.368 . S
C131 C115 1.349 . S
C131 H123 0.950 . S
C131 C129 1.327 . S
C132 C120 1.349 . S
C132 H126 0.950 . S
C132 C133 1.327 . S
C133 H127 0.950 . S
C133 C132 1.327 . S
C133 C137 1.429 . S
C134 C117 1.574 . S
C134 H128 0.949 . S
C134 C138 1.368 . S
C135 C116 1.429 . S
C135 C129 1.429 . S
C135 C136 1.523 . S
C136 C117 1.368 . S
C136 C130 1.368 . S
C136 C135 1.523 . S
C137 C121 1.429 . S
C137 C133 1.429 . S
C137 C138 1.523 . S
C138 C122 1.368 . S
C138 C134 1.368 . S
C138 C137 1.523 . S
H139 C114 0.950 . S
H140 C116 0.950 . S
H141 C117 0.949 . S
H142 C119 0.950 . S
H143 C121 0.950 . S
C144 C145 1.349 . S
C144 C146 1.327 . S
C144 H169 0.950 . S
C145 C144 1.349 . S
C145 C161 1.349 1_455 S
C146 C144 1.327 . S
C146 C165 1.429 . S
C146 H170 0.950 . S
C147 C164 1.574 . S
C147 C166 1.368 1_655 S
C147 H171 0.949 . S
H148 C152 0.949 . S
C149 C150 1.349 1_655 S
C149 C151 1.327 . S
C149 H172 0.950 . S
C150 C149 1.349 1_455 S
C150 C162 1.349 . S
C151 C149 1.327 . S
C151 C167 1.429 1_655 S
C151 H173 0.950 . S
C152 H148 0.949 . S
C152 C160 1.574 . S
C152 C168 1.368 . S
H153 C161 0.950 . S
H154 C159 0.950 . S
H155 C160 0.949 . S
H156 C162 0.950 . S
H157 C163 0.950 . S
H158 C164 0.949 . S
C159 H154 0.950 . S
C159 C161 1.327 . S
C159 C165 1.429 1_655 S
C160 C152 1.574 . S
C160 H155 0.949 . S
C160 C166 1.368 . S
C161 C145 1.349 1_655 S
C161 H153 0.950 . S
C161 C159 1.327 . S
C162 C150 1.349 . S
C162 H156 0.950 . S
C162 C163 1.327 . S
C163 H157 0.950 . S
C163 C162 1.327 . S
C163 C167 1.429 . S
C164 C147 1.574 . S
C164 H158 0.949 . S
C164 C168 1.368 1_655 S
C165 C146 1.429 . S
C165 C159 1.429 1_455 S
C165 C166 1.523 . S
C166 C147 1.368 1_455 S
C166 C160 1.368 . S
C166 C165 1.523 . S
C167 C151 1.429 1_455 S
C167 C163 1.429 . S
C167 C168 1.523 . S
C168 C152 1.368 . S
C168 C164 1.368 1_455 S
C168 C167 1.523 . S
H169 C144 0.950 . S
H170 C146 0.950 . S
H171 C147 0.949 . S
H172 C149 0.950 . S
H173 C151 0.950 . S
C174 C175 1.349 . S
C174 C176 1.327 . S
C174 H199 0.950 1_545 S
C175 C174 1.349 . S
C175 C191 1.349 . S
C176 C174 1.327 . S
C176 C195 1.429 . S
C176 H200 0.950 1_545 S
C177 C194 1.574 . S
C177 C196 1.368 . S
C177 H201 0.949 . S
H178 C182 0.949 1_565 S
C179 C180 1.349 . S
C179 C181 1.327 . S
C179 H202 0.950 . S
C180 C179 1.349 . S
C180 C192 1.349 . S
C181 C179 1.327 . S
C181 C197 1.429 . S
C181 H203 0.950 . S
C182 H178 0.949 1_545 S
C182 C190 1.574 . S
C182 C198 1.368 . S
H183 C191 0.950 . S
H184 C189 0.950 . S
H185 C190 0.949 1_565 S
H186 C192 0.950 1_565 S
H187 C193 0.950 1_565 S
H188 C194 0.949 . S
C189 H184 0.950 . S
C189 C191 1.327 . S
C189 C195 1.429 . S
C190 C182 1.574 . S
C190 H185 0.949 1_545 S
C190 C196 1.368 . S
C191 C175 1.349 . S
C191 H183 0.950 . S
C191 C189 1.327 . S
C192 C180 1.349 . S
C192 H186 0.950 1_545 S
C192 C193 1.327 . S
C193 H187 0.950 1_545 S
C193 C192 1.327 . S
C193 C197 1.429 . S
C194 C177 1.574 . S
C194 H188 0.949 . S
C194 C198 1.368 . S
C195 C176 1.429 . S
C195 C189 1.429 . S
C195 C196 1.523 . S
C196 C177 1.368 . S
C196 C190 1.368 . S
C196 C195 1.523 . S
C197 C181 1.429 . S
C197 C193 1.429 . S
C197 C198 1.523 . S
C198 C182 1.368 . S
C198 C194 1.368 . S
C198 C197 1.523 . S
H199 C174 0.950 1_565 S
H200 C176 0.950 1_565 S
H201 C177 0.949 . S
H202 C179 0.950 . S
H203 C181 0.950 . S
C204 C205 1.349 . S
C204 C206 1.327 . S
C204 H229 0.950 . S
C205 C204 1.349 . S
C205 C221 1.349 . S
C206 C204 1.327 . S
C206 C225 1.429 . S
C206 H230 0.950 . S
C207 C224 1.574 1_554 S
C207 C226 1.368 . S
C207 H231 0.949 . S
H208 C212 0.949 . S
C209 C210 1.349 . S
C209 C211 1.327 . S
C209 H232 0.950 . S
C210 C209 1.349 . S
C210 C222 1.349 . S
C211 C209 1.327 . S
C211 C227 1.429 . S
C211 H233 0.950 . S
C212 H208 0.949 . S
C212 C220 1.574 . S
C212 C228 1.368 . S
H213 C221 0.950 . S
H214 C219 0.950 . S
H215 C220 0.949 . S
H216 C222 0.950 . S
H217 C223 0.950 . S
H218 C224 0.949 . S
C219 H214 0.950 . S
C219 C221 1.327 . S
C219 C225 1.429 . S
C220 C212 1.574 . S
C220 H215 0.949 . S
C220 C226 1.368 1_556 S
C221 C205 1.349 . S
C221 H213 0.950 . S
C221 C219 1.327 . S
C222 C210 1.349 . S
C222 H216 0.950 . S
C222 C223 1.327 . S
C223 H217 0.950 . S
C223 C222 1.327 . S
C223 C227 1.429 . S
C224 C207 1.574 1_556 S
C224 H218 0.949 . S
C224 C228 1.368 . S
C225 C206 1.429 . S
C225 C219 1.429 . S
C225 C226 1.523 . S
C226 C207 1.368 . S
C226 C220 1.368 1_554 S
C226 C225 1.523 . S
C227 C211 1.429 . S
C227 C223 1.429 . S
C227 C228 1.523 . S
C228 C212 1.368 . S
C228 C224 1.368 . S
C228 C227 1.523 . S
H229 C204 0.950 . S
H230 C206 0.950 . S
H231 C207 0.949 . S
H232 C209 0.950 . S
H233 C211 0.950 . S
C234 C235 1.349 . S
C234 C236 1.327 . S
C234 H259 0.950 . S
C235 C234 1.349 . S
C235 C251 1.349 . S
C236 C234 1.327 . S
C236 C255 1.429 . S
C236 H260 0.950 . S
C237 C254 1.574 . S
C237 C256 1.368 . S
C237 H261 0.949 . S
H238 C242 0.949 . S
C239 C240 1.349 . S
C239 C241 1.327 . S
C239 H262 0.950 . S
C240 C239 1.349 . S
C240 C252 1.349 . S
C241 C239 1.327 . S
C241 C257 1.429 . S
C241 H263 0.950 . S
C242 H238 0.949 . S
C242 C250 1.574 . S
C242 C258 1.368 . S
H243 C251 0.950 1_556 S
H244 C249 0.950 . S
H245 C250 0.949 . S
H246 C252 0.950 . S
H247 C253 0.950 . S
H248 C254 0.949 . S
C249 H244 0.950 . S
C249 C251 1.327 . S
C249 C255 1.429 . S
C250 C242 1.574 . S
C250 H245 0.949 . S
C250 C256 1.368 . S
C251 C235 1.349 . S
C251 H243 0.950 1_554 S
C251 C249 1.327 . S
C252 C240 1.349 . S
C252 H246 0.950 . S
C252 C253 1.327 . S
C253 H247 0.950 . S
C253 C252 1.327 . S
C253 C257 1.429 . S
C254 C237 1.574 . S
C254 H248 0.949 . S
C254 C258 1.368 . S
C255 C236 1.429 . S
C255 C249 1.429 . S
C255 C256 1.523 . S
C256 C237 1.368 . S
C256 C250 1.368 . S
C256 C255 1.523 . S
C257 C241 1.429 . S
C257 C253 1.429 . S
C257 C258 1.523 . S
C258 C242 1.368 . S
C258 C254 1.368 . S
C258 C257 1.523 . S
H259 C234 0.950 . S
H260 C236 0.950 . S
H261 C237 0.949 . S
H262 C239 0.950 . S
H263 C241 0.950 . S
C264 C265 1.349 . S
C264 C266 1.327 . S
C264 H289 0.950 . S
C265 C264 1.349 . S
C265 C281 1.349 . S
C266 C264 1.327 . S
C266 C285 1.429 . S
C266 H290 0.950 . S
C267 C284 1.574 . S
C267 C286 1.368 . S
C267 H291 0.949 . S
H268 C272 0.949 . S
C269 C270 1.349 . S
C269 C271 1.327 . S
C269 H292 0.950 . S
C270 C269 1.349 . S
C270 C282 1.349 . S
C271 C269 1.327 . S
C271 C287 1.429 . S
C271 H293 0.950 . S
C272 H268 0.949 . S
C272 C280 1.574 . S
C272 C288 1.368 . S
H273 C281 0.950 . S
H274 C279 0.950 . S
H275 C280 0.949 . S
H276 C282 0.950 . S
H277 C283 0.950 . S
H278 C284 0.949 . S
C279 H274 0.950 . S
C279 C281 1.327 . S
C279 C285 1.429 . S
C280 C272 1.574 . S
C280 H275 0.949 . S
C280 C286 1.368 . S
C281 C265 1.349 . S
C281 H273 0.950 . S
C281 C279 1.327 . S
C282 C270 1.349 . S
C282 H276 0.950 . S
C282 C283 1.327 . S
C283 H277 0.950 . S
C283 C282 1.327 . S
C283 C287 1.429 . S
C284 C267 1.574 . S
C284 H278 0.949 . S
C284 C288 1.368 . S
C285 C266 1.429 . S
C285 C279 1.429 . S
C285 C286 1.523 . S
C286 C267 1.368 . S
C286 C280 1.368 . S
C286 C285 1.523 . S
C287 C271 1.429 . S
C287 C283 1.429 . S
C287 C288 1.523 . S
C288 C272 1.368 . S
C288 C284 1.368 . S
C288 C287 1.523 . S
H289 C264 0.950 . S
H290 C266 0.950 . S
H291 C267 0.949 . S
H292 C269 0.950 . S
H293 C271 0.950 . S
C294 C295 1.349 . S
C294 C296 1.327 . S
C294 H319 0.950 . S
C295 C294 1.349 . S
C295 C311 1.349 . S
C296 C294 1.327 . S
C296 C315 1.429 . S
C296 H320 0.950 . S
C297 C314 1.574 . S
C297 C316 1.368 . S
C297 H321 0.949 . S
H298 C302 0.949 . S
C299 C300 1.349 . S
C299 C301 1.327 . S
C299 H322 0.950 . S
C300 C299 1.349 . S
C300 C312 1.349 . S
C301 C299 1.327 . S
C301 C317 1.429 . S
C301 H323 0.950 . S
C302 H298 0.949 . S
C302 C310 1.574 . S
C302 C318 1.368 . S
H303 C311 0.950 . S
H304 C309 0.950 . S
H305 C310 0.949 . S
H306 C312 0.950 . S
H307 C313 0.950 . S
H308 C314 0.949 . S
C309 H304 0.950 . S
C309 C311 1.327 . S
C309 C315 1.429 . S
C310 C302 1.574 . S
C310 H305 0.949 . S
C310 C316 1.368 . S
C311 C295 1.349 . S
C311 H303 0.950 . S
C311 C309 1.327 . S
C312 C300 1.349 . S
C312 H306 0.950 . S
C312 C313 1.327 . S
C313 H307 0.950 . S
C313 C312 1.327 . S
C313 C317 1.429 . S
C314 C297 1.574 . S
C314 H308 0.949 . S
C314 C318 1.368 . S
C315 C296 1.429 . S
C315 C309 1.429 . S
C315 C316 1.523 . S
C316 C297 1.368 . S
C316 C310 1.368 . S
C316 C315 1.523 . S
C317 C301 1.429 . S
C317 C313 1.429 . S
C317 C318 1.523 . S
C318 C302 1.368 . S
C318 C314 1.368 . S
C318 C317 1.523 . S
H319 C294 0.950 . S
H320 C296 0.950 . S
H321 C297 0.949 . S
H322 C299 0.950 . S
H323 C301 0.950 . S
C324 C325 1.349 . S
C324 C326 1.327 . S
C324 H349 0.950 . S
C325 C324 1.349 . S
C325 C341 1.349 . S
C326 C324 1.327 . S
C326 C345 1.429 . S
C326 H350 0.950 . S
C327 C344 1.574 . S
C327 C346 1.368 . S
C327 H351 0.949 . S
H328 C332 0.949 . S
C329 C330 1.349 . S
C329 C331 1.327 . S
C329 H352 0.950 . S
C330 C329 1.349 . S
C330 C342 1.349 . S
C331 C329 1.327 . S
C331 C347 1.429 . S
C331 H353 0.950 . S
C332 H328 0.949 . S
C332 C340 1.574 . S
C332 C348 1.368 . S
H333 C341 0.950 . S
H334 C339 0.950 . S
H335 C340 0.949 . S
H336 C342 0.950 . S
H337 C343 0.950 . S
H338 C344 0.949 . S
C339 H334 0.950 . S
C339 C341 1.327 . S
C339 C345 1.429 . S
C340 C332 1.574 . S
C340 H335 0.949 . S
C340 C346 1.368 . S
C341 C325 1.349 . S
C341 H333 0.950 . S
C341 C339 1.327 . S
C342 C330 1.349 . S
C342 H336 0.950 . S
C342 C343 1.327 . S
C343 H337 0.950 . S
C343 C342 1.327 . S
C343 C347 1.429 . S
C344 C327 1.574 . S
C344 H338 0.949 . S
C344 C348 1.368 . S
C345 C326 1.429 . S
C345 C339 1.429 . S
C345 C346 1.523 . S
C346 C327 1.368 . S
C346 C340 1.368 . S
C346 C345 1.523 . S
C347 C331 1.429 . S
C347 C343 1.429 . S
C347 C348 1.523 . S
C348 C332 1.368 . S
C348 C344 1.368 . S
C348 C347 1.523 . S
H349 C324 0.950 . S
H350 C326 0.950 . S
H351 C327 0.949 . S
H352 C329 0.950 . S
H353 C331 0.950 . S
C354 C355 1.349 . S
C354 C356 1.327 . S
C354 H379 0.950 . S
C355 C354 1.349 . S
C355 C371 1.349 . S
C356 C354 1.327 . S
C356 C375 1.429 . S
C356 H380 0.950 . S
C357 C374 1.574 . S
C357 C376 1.368 . S
C357 H381 0.949 . S
H358 C362 0.949 . S
C359 C360 1.349 . S
C359 C361 1.327 . S
C359 H382 0.950 . S
C360 C359 1.349 . S
C360 C372 1.349 . S
C361 C359 1.327 . S
C361 C377 1.429 . S
C361 H383 0.950 . S
C362 H358 0.949 . S
C362 C370 1.574 . S
C362 C378 1.368 . S
H363 C371 0.950 . S
H364 C369 0.950 . S
H365 C370 0.949 . S
H366 C372 0.950 . S
H367 C373 0.950 . S
H368 C374 0.949 . S
C369 H364 0.950 . S
C369 C371 1.327 . S
C369 C375 1.429 . S
C370 C362 1.574 . S
C370 H365 0.949 . S
C370 C376 1.368 . S
C371 C355 1.349 . S
C371 H363 0.950 . S
C371 C369 1.327 . S
C372 C360 1.349 . S
C372 H366 0.950 . S
C372 C373 1.327 . S
C373 H367 0.950 . S
C373 C372 1.327 . S
C373 C377 1.429 . S
C374 C357 1.574 . S
C374 H368 0.949 . S
C374 C378 1.368 . S
C375 C356 1.429 . S
C375 C369 1.429 . S
C375 C376 1.523 . S
C376 C357 1.368 . S
C376 C370 1.368 . S
C376 C375 1.523 . S
C377 C361 1.429 . S
C377 C373 1.429 . S
C377 C378 1.523 . S
C378 C362 1.368 . S
C378 C374 1.368 . S
C378 C377 1.523 . S
H379 C354 0.950 . S
H380 C356 0.950 . S
H381 C357 0.949 . S
H382 C359 0.950 . S
H383 C361 0.950 . S
C384 C385 1.349 . S
C384 C386 1.327 . S
C384 H409 0.950 . S
C385 C384 1.349 . S
C385 C401 1.349 . S
C386 C384 1.327 . S
C386 C405 1.429 . S
C386 H410 0.950 . S
C387 C404 1.574 . S
C387 C406 1.368 . S
C387 H411 0.949 . S
H388 C392 0.949 . S
C389 C390 1.349 . S
C389 C391 1.327 . S
C389 H412 0.950 . S
C390 C389 1.349 . S
C390 C402 1.349 . S
C391 C389 1.327 . S
C391 C407 1.429 . S
C391 H413 0.950 . S
C392 H388 0.949 . S
C392 C400 1.574 . S
C392 C408 1.368 . S
H393 C401 0.950 . S
H394 C399 0.950 . S
H395 C400 0.949 . S
H396 C402 0.950 . S
H397 C403 0.950 . S
H398 C404 0.949 . S
C399 H394 0.950 . S
C399 C401 1.327 . S
C399 C405 1.429 . S
C400 C392 1.574 . S
C400 H395 0.949 . S
C400 C406 1.368 . S
C401 C385 1.349 . S
C401 H393 0.950 . S
C401 C399 1.327 . S
C402 C390 1.349 . S
C402 H396 0.950 . S
C402 C403 1.327 . S
C403 H397 0.950 . S
C403 C402 1.327 . S
C403 C407 1.429 . S
C404 C387 1.574 . S
C404 H398 0.949 . S
C404 C408 1.368 . S
C405 C386 1.429 . S
C405 C399 1.429 . S
C405 C406 1.523 . S
C406 C387 1.368 . S
C406 C400 1.368 . S
C406 C405 1.523 . S
C407 C391 1.429 . S
C407 C403 1.429 . S
C407 C408 1.523 . S
C408 C392 1.368 . S
C408 C404 1.368 . S
C408 C407 1.523 . S
H409 C384 0.950 . S
H410 C386 0.950 . S
H411 C387 0.949 . S
H412 C389 0.950 . S
H413 C391 0.950 . S
C414 C415 1.349 . S
C414 C416 1.327 . S
C414 H439 0.950 . S
C415 C414 1.349 . S
C415 C431 1.349 . S
C416 C414 1.327 . S
C416 C435 1.429 . S
C416 H440 0.950 . S
C417 C434 1.574 . S
C417 C436 1.368 1_554 S
C417 H441 0.949 . S
H418 C422 0.949 . S
C419 C420 1.349 . S
C419 C421 1.327 . S
C419 H442 0.950 . S
C420 C419 1.349 . S
C420 C432 1.334 1_554 S
C421 C419 1.327 . S
C421 C437 1.429 . S
C421 H443 0.950 . S
C422 H418 0.949 . S
C422 C430 1.574 . S
C422 C438 1.368 . S
H423 C431 0.950 . S
H424 C429 0.950 1_554 S
H425 C430 0.949 . S
H426 C432 0.960 . S
H427 C433 0.950 . S
H428 C434 0.949 . S
C429 H424 0.950 1_556 S
C429 C431 1.327 . S
C429 C435 1.429 . S
C430 C422 1.574 . S
C430 H425 0.949 . S
C430 C436 1.368 . S
C431 C415 1.349 . S
C431 H423 0.950 . S
C431 C429 1.327 . S
C432 C420 1.334 1_556 S
C432 H426 0.960 . S
C432 C433 1.332 . S
C433 H427 0.950 . S
C433 C432 1.332 . S
C433 C437 1.429 1_556 S
C434 C417 1.574 . S
C434 H428 0.949 . S
C434 C438 1.368 1_554 S
C435 C416 1.429 . S
C435 C429 1.429 . S
C435 C436 1.523 . S
C436 C417 1.368 1_556 S
C436 C430 1.368 . S
C436 C435 1.523 . S
C437 C421 1.429 . S
C437 C433 1.429 1_554 S
C437 C438 1.523 1_554 S
C438 C422 1.368 . S
C438 C434 1.368 1_556 S
C438 C437 1.523 1_556 S
H439 C414 0.950 . S
H440 C416 0.950 . S
H441 C417 0.949 . S
H442 C419 0.950 . S
H443 C421 0.950 . S
C85 C7 1.706 . S
C90 C51 1.735 . S
C115 C21 1.652 . S
C120 C65 1.678 . S
C145 C77 1.680 . S
C150 C37 1.707 . S
C175 C9 1.735 . S
C180 C49 1.706 . S
C205 C23 1.678 . S
C210 C63 1.652 . S
C235 C79 1.706 1_554 S
C240 C35 1.680 . S
C265 C17 1.335 . S
C270 C8 1.331 . S
C295 C36 1.303 . S
C300 C22 1.302 . S
C325 C31 1.367 . S
C330 C45 1.367 . S
C355 C59 1.335 . S
C360 C50 1.331 . S
C385 C78 1.303 . S
C390 C64 1.302 . S
C415 C73 1.366 . S
C420 C3 1.367 . S
