# Generated by pormake.
# Topology upd, (4)-cn, num edge types: 1
# Building blocks:
#     Node 0, Type 0, BuildingBlock: MUDLON_clean_sbu_0, # of connection points: 4
#     Node 1, Type 0, BuildingBlock: MUDLON_clean_sbu_0, # of connection points: 4
#     Node 2, Type 0, BuildingBlock: MUDLON_clean_sbu_0, # of connection points: 4
#     Node 3, Type 0, BuildingBlock: MUDLON_clean_sbu_0, # of connection points: 4
#     Node 4, Type 0, BuildingBlock: MUDLON_clean_sbu_0, # of connection points: 4
#     Node 5, Type 0, BuildingBlock: MUDLON_clean_sbu_0, # of connection points: 4
#     Node 6, Type 0, BuildingBlock: MUDLON_clean_sbu_0, # of connection points: 4
#     Node 7, Type 0, BuildingBlock: MUDLON_clean_sbu_0, # of connection points: 4
#     Node 8, Type 0, BuildingBlock: MUDLON_clean_sbu_0, # of connection points: 4
#     Node 9, Type 0, BuildingBlock: MUDLON_clean_sbu_0, # of connection points: 4
#     Node 10, Type 0, BuildingBlock: MUDLON_clean_sbu_0, # of connection points: 4
#     Node 11, Type 0, BuildingBlock: MUDLON_clean_sbu_0, # of connection points: 4
#     Node 12, Type 0, BuildingBlock: MUDLON_clean_sbu_0, # of connection points: 4
#     Node 13, Type 0, BuildingBlock: MUDLON_clean_sbu_0, # of connection points: 4
#     Node 14, Type 0, BuildingBlock: MUDLON_clean_sbu_0, # of connection points: 4
#     Node 15, Type 0, BuildingBlock: MUDLON_clean_sbu_0, # of connection points: 4
#     Node 16, Type 0, BuildingBlock: MUDLON_clean_sbu_0, # of connection points: 4
#     Node 17, Type 0, BuildingBlock: MUDLON_clean_sbu_0, # of connection points: 4
#     Node 18, Type 0, BuildingBlock: MUDLON_clean_sbu_0, # of connection points: 4
#     Node 19, Type 0, BuildingBlock: MUDLON_clean_sbu_0, # of connection points: 4
#     Node 20, Type 0, BuildingBlock: MUDLON_clean_sbu_0, # of connection points: 4
#     Node 21, Type 0, BuildingBlock: MUDLON_clean_sbu_0, # of connection points: 4
#     Node 22, Type 0, BuildingBlock: MUDLON_clean_sbu_0, # of connection points: 4
#     Node 23, Type 0, BuildingBlock: MUDLON_clean_sbu_0, # of connection points: 4
#     Node 24, Type 0, BuildingBlock: MUDLON_clean_sbu_0, # of connection points: 4
#     Node 25, Type 0, BuildingBlock: MUDLON_clean_sbu_0, # of connection points: 4
#     Node 26, Type 0, BuildingBlock: MUDLON_clean_sbu_0, # of connection points: 4
#     Node 27, Type 0, BuildingBlock: MUDLON_clean_sbu_0, # of connection points: 4
#     Node 28, Type 0, BuildingBlock: MUDLON_clean_sbu_0, # of connection points: 4
#     Node 29, Type 0, BuildingBlock: MUDLON_clean_sbu_0, # of connection points: 4
#     Node 30, Type 0, BuildingBlock: MUDLON_clean_sbu_0, # of connection points: 4
#     Node 31, Type 0, BuildingBlock: MUDLON_clean_sbu_0, # of connection points: 4
#     Edge 32, Type (0, 0), BuildingBlock: OJICUG_clean_linker_0, # of connection points: 2
#     Edge 33, Type (0, 0), BuildingBlock: OJICUG_clean_linker_0, # of connection points: 2
#     Edge 34, Type (0, 0), BuildingBlock: OJICUG_clean_linker_0, # of connection points: 2
#     Edge 35, Type (0, 0), BuildingBlock: OJICUG_clean_linker_0, # of connection points: 2
#     Edge 36, Type (0, 0), BuildingBlock: OJICUG_clean_linker_0, # of connection points: 2
#     Edge 37, Type (0, 0), BuildingBlock: OJICUG_clean_linker_0, # of connection points: 2
#     Edge 38, Type (0, 0), BuildingBlock: OJICUG_clean_linker_0, # of connection points: 2
#     Edge 39, Type (0, 0), BuildingBlock: OJICUG_clean_linker_0, # of connection points: 2
#     Edge 40, Type (0, 0), BuildingBlock: OJICUG_clean_linker_0, # of connection points: 2
#     Edge 41, Type (0, 0), BuildingBlock: OJICUG_clean_linker_0, # of connection points: 2
#     Edge 42, Type (0, 0), BuildingBlock: OJICUG_clean_linker_0, # of connection points: 2
#     Edge 43, Type (0, 0), BuildingBlock: OJICUG_clean_linker_0, # of connection points: 2
#     Edge 44, Type (0, 0), BuildingBlock: OJICUG_clean_linker_0, # of connection points: 2
#     Edge 45, Type (0, 0), BuildingBlock: OJICUG_clean_linker_0, # of connection points: 2
#     Edge 46, Type (0, 0), BuildingBlock: OJICUG_clean_linker_0, # of connection points: 2
#     Edge 47, Type (0, 0), BuildingBlock: OJICUG_clean_linker_0, # of connection points: 2
#     Edge 48, Type (0, 0), BuildingBlock: OJICUG_clean_linker_0, # of connection points: 2
#     Edge 49, Type (0, 0), BuildingBlock: OJICUG_clean_linker_0, # of connection points: 2
#     Edge 50, Type (0, 0), BuildingBlock: OJICUG_clean_linker_0, # of connection points: 2
#     Edge 51, Type (0, 0), BuildingBlock: OJICUG_clean_linker_0, # of connection points: 2
#     Edge 52, Type (0, 0), BuildingBlock: OJICUG_clean_linker_0, # of connection points: 2
#     Edge 53, Type (0, 0), BuildingBlock: OJICUG_clean_linker_0, # of connection points: 2
#     Edge 54, Type (0, 0), BuildingBlock: OJICUG_clean_linker_0, # of connection points: 2
#     Edge 55, Type (0, 0), BuildingBlock: OJICUG_clean_linker_0, # of connection points: 2
#     Edge 56, Type (0, 0), BuildingBlock: OJICUG_clean_linker_0, # of connection points: 2
#     Edge 57, Type (0, 0), BuildingBlock: OJICUG_clean_linker_0, # of connection points: 2
#     Edge 58, Type (0, 0), BuildingBlock: OJICUG_clean_linker_0, # of connection points: 2
#     Edge 59, Type (0, 0), BuildingBlock: OJICUG_clean_linker_0, # of connection points: 2
#     Edge 60, Type (0, 0), BuildingBlock: OJICUG_clean_linker_0, # of connection points: 2
#     Edge 61, Type (0, 0), BuildingBlock: OJICUG_clean_linker_0, # of connection points: 2
#     Edge 62, Type (0, 0), BuildingBlock: OJICUG_clean_linker_0, # of connection points: 2
#     Edge 63, Type (0, 0), BuildingBlock: OJICUG_clean_linker_0, # of connection points: 2
#     Edge 64, Type (0, 0), BuildingBlock: OJICUG_clean_linker_0, # of connection points: 2
#     Edge 65, Type (0, 0), BuildingBlock: OJICUG_clean_linker_0, # of connection points: 2
#     Edge 66, Type (0, 0), BuildingBlock: OJICUG_clean_linker_0, # of connection points: 2
#     Edge 67, Type (0, 0), BuildingBlock: OJICUG_clean_linker_0, # of connection points: 2
#     Edge 68, Type (0, 0), BuildingBlock: OJICUG_clean_linker_0, # of connection points: 2
#     Edge 69, Type (0, 0), BuildingBlock: OJICUG_clean_linker_0, # of connection points: 2
#     Edge 70, Type (0, 0), BuildingBlock: OJICUG_clean_linker_0, # of connection points: 2
#     Edge 71, Type (0, 0), BuildingBlock: OJICUG_clean_linker_0, # of connection points: 2
#     Edge 72, Type (0, 0), BuildingBlock: OJICUG_clean_linker_0, # of connection points: 2
#     Edge 73, Type (0, 0), BuildingBlock: OJICUG_clean_linker_0, # of connection points: 2
#     Edge 74, Type (0, 0), BuildingBlock: OJICUG_clean_linker_0, # of connection points: 2
#     Edge 75, Type (0, 0), BuildingBlock: OJICUG_clean_linker_0, # of connection points: 2
#     Edge 76, Type (0, 0), BuildingBlock: OJICUG_clean_linker_0, # of connection points: 2
#     Edge 77, Type (0, 0), BuildingBlock: OJICUG_clean_linker_0, # of connection points: 2
#     Edge 78, Type (0, 0), BuildingBlock: OJICUG_clean_linker_0, # of connection points: 2
#     Edge 79, Type (0, 0), BuildingBlock: OJICUG_clean_linker_0, # of connection points: 2
#     Edge 80, Type (0, 0), BuildingBlock: OJICUG_clean_linker_0, # of connection points: 2
#     Edge 81, Type (0, 0), BuildingBlock: OJICUG_clean_linker_0, # of connection points: 2
#     Edge 82, Type (0, 0), BuildingBlock: OJICUG_clean_linker_0, # of connection points: 2
#     Edge 83, Type (0, 0), BuildingBlock: OJICUG_clean_linker_0, # of connection points: 2
#     Edge 84, Type (0, 0), BuildingBlock: OJICUG_clean_linker_0, # of connection points: 2
#     Edge 85, Type (0, 0), BuildingBlock: OJICUG_clean_linker_0, # of connection points: 2
#     Edge 86, Type (0, 0), BuildingBlock: OJICUG_clean_linker_0, # of connection points: 2
#     Edge 87, Type (0, 0), BuildingBlock: OJICUG_clean_linker_0, # of connection points: 2
#     Edge 88, Type (0, 0), BuildingBlock: OJICUG_clean_linker_0, # of connection points: 2
#     Edge 89, Type (0, 0), BuildingBlock: OJICUG_clean_linker_0, # of connection points: 2
#     Edge 90, Type (0, 0), BuildingBlock: OJICUG_clean_linker_0, # of connection points: 2
#     Edge 91, Type (0, 0), BuildingBlock: OJICUG_clean_linker_0, # of connection points: 2
#     Edge 92, Type (0, 0), BuildingBlock: OJICUG_clean_linker_0, # of connection points: 2
#     Edge 93, Type (0, 0), BuildingBlock: OJICUG_clean_linker_0, # of connection points: 2
#     Edge 94, Type (0, 0), BuildingBlock: OJICUG_clean_linker_0, # of connection points: 2
#     Edge 95, Type (0, 0), BuildingBlock: OJICUG_clean_linker_0, # of connection points: 2
# Relax obj value: 0.064
# Max RMSD: 0.095
# Mean RMSD: 0.095
data_MOF--net-upd--node1-MUDLON_clean_sbu_0--edge1-OJICUG_clean_linker_0
_symmetry_space_group_name_H-M    P1
_symmetry_Int_Tables_number       1
_symmetry_cell_setting            triclinic
loop_
_symmetry_equiv_pos_as_xyz
'x, y, z'
_cell_length_a     33.334223
_cell_length_b     33.085467
_cell_length_c     49.389575
_cell_angle_alpha  89.937673
_cell_angle_beta   89.993094
_cell_angle_gamma 90.070122
loop_
_atom_site_label
_atom_site_type_symbol
_atom_site_fract_x
_atom_site_fract_y
_atom_site_fract_z
_atom_type_partial_charge
Mg0 Mg 0.15949 0.14963 0.32487 0.0
C1 C 0.07749 0.11574 0.33317 0.0
O2 O 0.10023 0.0836 0.33594 0.0
C3 C 0.19165 0.2283 0.30108 0.0
O4 O 0.1736 0.24333 0.32247 0.0
C5 C 0.1792 0.08296 0.28746 0.0
O6 O 0.17055 0.11329 0.2713 0.0
O7 O 0.17885 0.08903 0.31295 0.0
O8 O 0.09388 0.14872 0.32562 0.0
O9 O 0.1765 0.17379 0.3647 0.0
C10 C 0.15011 0.17906 0.38308 0.0
O11 O 0.11451 0.16275 0.37992 0.0
O12 O 0.18834 0.19073 0.29615 0.0
Mg13 Mg 0.11915 0.90137 0.58111 0.0
C14 C 0.16603 0.82454 0.5868 0.0
O15 O 0.19474 0.85145 0.58409 0.0
C16 C 0.0696 0.96377 0.55474 0.0
O17 O 0.09135 0.9836 0.57252 0.0
C18 C 0.18212 0.93239 0.54385 0.0
O19 O 0.1529 0.92271 0.52722 0.0
O20 O 0.17608 0.92913 0.56925 0.0
O21 O 0.12989 0.83581 0.58294 0.0
O22 O 0.0949 0.91604 0.6212 0.0
C23 C 0.08952 0.88817 0.63872 0.0
O24 O 0.10469 0.85223 0.63414 0.0
O25 O 0.07415 0.92556 0.553 0.0
Mg26 Mg 0.37236 0.87479 0.82887 0.0
C27 C 0.45477 0.90934 0.83431 0.0
O28 O 0.43231 0.94188 0.8356 0.0
C29 C 0.33666 0.79626 0.80705 0.0
O30 O 0.353 0.78151 0.82915 0.0
C31 C 0.35105 0.94003 0.79101 0.0
O32 O 0.35912 0.90928 0.77512 0.0
O33 O 0.35244 0.93474 0.81655 0.0
O34 O 0.43801 0.87575 0.82859 0.0
O35 O 0.35679 0.85314 0.86949 0.0
C36 C 0.38359 0.8511 0.88786 0.0
O37 O 0.41825 0.86893 0.88374 0.0
O38 O 0.34232 0.83323 0.80111 0.0
Mg39 Mg 0.40719 0.13496 0.07649 0.0
C40 C 0.36044 0.21214 0.08026 0.0
O41 O 0.33151 0.18567 0.07682 0.0
C42 C 0.45768 0.07286 0.05129 0.0
O43 O 0.43648 0.05339 0.06957 0.0
C44 C 0.34397 0.10371 0.03972 0.0
O45 O 0.37294 0.1136 0.02293 0.0
O46 O 0.35034 0.10682 0.06508 0.0
O47 O 0.3966 0.20037 0.07738 0.0
O48 O 0.43181 0.12132 0.11663 0.0
C49 C 0.43682 0.14954 0.13389 0.0
O50 O 0.4208 0.18506 0.12913 0.0
O51 O 0.45226 0.11083 0.04867 0.0
Mg52 Mg 0.164 0.85601 0.2029 0.0
C53 C 0.08248 0.88798 0.19777 0.0
O54 O 0.10597 0.91935 0.19391 0.0
C55 C 0.1902 0.78915 0.24432 0.0
O56 O 0.15175 0.78413 0.24911 0.0
C57 C 0.18289 0.92234 0.24124 0.0
O58 O 0.17636 0.89133 0.2573 0.0
O59 O 0.1817 0.91675 0.21571 0.0
O60 O 0.09846 0.85482 0.20536 0.0
O61 O 0.17076 0.8398 0.16024 0.0
C62 C 0.16809 0.80222 0.15473 0.0
O63 O 0.16698 0.77617 0.17482 0.0
O64 O 0.20127 0.81499 0.2268 0.0
Mg65 Mg 0.40563 0.90612 0.46244 0.0
C66 C 0.41686 0.81395 0.45387 0.0
O67 O 0.45484 0.82308 0.45014 0.0
C68 C 0.45638 0.96864 0.48735 0.0
O69 O 0.4349 0.98806 0.46922 0.0
C70 C 0.34227 0.93492 0.49987 0.0
O71 O 0.37186 0.92589 0.51637 0.0
O72 O 0.34823 0.93218 0.47445 0.0
O73 O 0.39306 0.84132 0.46211 0.0
O74 O 0.42797 0.92042 0.42185 0.0
C75 C 0.42569 0.8958 0.40206 0.0
O76 O 0.40322 0.86338 0.4044 0.0
O77 O 0.45105 0.93064 0.48996 0.0
Mg78 Mg 0.36943 0.16524 0.70574 0.0
C79 C 0.45279 0.13298 0.70302 0.0
O80 O 0.43114 0.09981 0.70218 0.0
C81 C 0.34668 0.22669 0.75167 0.0
O82 O 0.38418 0.22384 0.75963 0.0
C83 C 0.34886 0.09963 0.74371 0.0
O84 O 0.35586 0.13061 0.75963 0.0
O85 O 0.35057 0.10491 0.71817 0.0
O86 O 0.43505 0.16639 0.70772 0.0
O87 O 0.35617 0.18513 0.66441 0.0
C88 C 0.38389 0.18696 0.64666 0.0
O89 O 0.4183 0.16924 0.6517 0.0
O90 O 0.33517 0.207 0.731 0.0
Mg91 Mg 0.11787 0.13127 0.96146 0.0
C92 C 0.10211 0.22365 0.95669 0.0
O93 O 0.06405 0.21329 0.95613 0.0
C94 C 0.06979 0.06649 0.98682 0.0
O95 O 0.09126 0.04785 0.96835 0.0
C96 C 0.18285 0.10214 0.99744 0.0
O97 O 0.15352 0.10978 1.01445 0.0
O98 O 0.17624 0.10612 0.97216 0.0
O99 O 0.12833 0.19659 0.96129 0.0
O100 O 0.09376 0.11732 0.92137 0.0
C101 C 0.09231 0.14355 0.90246 0.0
O102 O 0.11239 0.17746 0.90515 0.0
O103 O 0.07413 0.10462 0.98948 0.0
Mg104 Mg 0.8654 0.87391 0.70946 0.0
C105 C 0.94825 0.90074 0.70421 0.0
O106 O 0.92652 0.93304 0.69939 0.0
C107 C 0.7911 0.82876 0.72633 0.0
O108 O 0.77713 0.85272 0.7073 0.0
C109 C 0.8231 0.94257 0.74083 0.0
O110 O 0.797 0.91421 0.74677 0.0
O111 O 0.85177 0.93477 0.72459 0.0
O112 O 0.93048 0.86909 0.71287 0.0
O113 O 0.86358 0.86128 0.66587 0.0
C114 C 0.8507 0.82715 0.65771 0.0
O115 O 0.83113 0.80391 0.67474 0.0
O116 O 0.82849 0.83001 0.73182 0.0
Mg117 Mg 0.91239 0.1187 0.45938 0.0
C118 C 0.93731 0.12606 0.4002 0.0
O119 O 0.91967 0.16126 0.40291 0.0
C120 C 0.84592 0.09845 0.4972 0.0
O121 O 0.8757 0.10692 0.51368 0.0
C122 C 0.95866 0.05307 0.48629 0.0
O123 O 0.93671 0.03354 0.46848 0.0
O124 O 0.95518 0.09142 0.48777 0.0
O125 O 0.93469 0.10044 0.41944 0.0
O126 O 0.9104 0.18497 0.45725 0.0
C127 C 0.87724 0.2005 0.44965 0.0
O128 O 0.84582 0.17674 0.44738 0.0
O129 O 0.85254 0.09879 0.47178 0.0
Mg130 Mg 0.66166 0.16829 0.20672 0.0
C131 C 0.57914 0.14117 0.1989 0.0
O132 O 0.60116 0.10866 0.19553 0.0
C133 C 0.73254 0.1995 0.23635 0.0
O134 O 0.74351 0.16294 0.22915 0.0
C135 C 0.6716 0.10946 0.25039 0.0
O136 O 0.66307 0.1436 0.26266 0.0
O137 O 0.67431 0.10939 0.22464 0.0
O138 O 0.5964 0.1734 0.20699 0.0
O139 O 0.67173 0.17916 0.16372 0.0
C140 C 0.69961 0.20233 0.15545 0.0
O141 O 0.72855 0.21209 0.17228 0.0
O142 O 0.69772 0.21195 0.22964 0.0
Mg143 Mg 0.61914 0.9171 0.96066 0.0
C144 C 0.59458 0.90465 0.90189 0.0
O145 O 0.61219 0.86976 0.90614 0.0
C146 C 0.68495 0.9424 0.99777 0.0
O147 O 0.65493 0.93641 1.01454 0.0
C148 C 0.57114 0.98343 0.98522 0.0
O149 O 0.59247 1.00245 0.9668 0.0
O150 O 0.57576 0.94538 0.98793 0.0
O151 O 0.59706 0.93195 0.92003 0.0
O152 O 0.62081 0.85095 0.96124 0.0
C153 C 0.65395 0.83395 0.95525 0.0
O154 O 0.68622 0.85658 0.95312 0.0
O155 O 0.6787 0.93846 0.97244 0.0
Mg156 Mg 0.86459 0.16111 0.83352 0.0
C157 C 0.94756 0.13582 0.84022 0.0
O158 O 0.9259 0.10317 0.84426 0.0
C159 C 0.79095 0.2065 0.81589 0.0
O160 O 0.77678 0.18405 0.83568 0.0
C161 C 0.82176 0.08884 0.80504 0.0
O162 O 0.78955 0.11158 0.80583 0.0
O163 O 0.85392 0.101 0.81629 0.0
O164 O 0.92975 0.16775 0.83219 0.0
O165 O 0.85724 0.17135 0.87717 0.0
C166 C 0.84707 0.20687 0.88433 0.0
O167 O 0.83581 0.23265 0.86561 0.0
O168 O 0.82826 0.20438 0.81031 0.0
Mg169 Mg 0.61852 0.12504 0.57748 0.0
C170 C 0.59329 0.1382 0.63608 0.0
O171 O 0.61081 0.17313 0.63167 0.0
C172 C 0.68467 0.1009 0.54046 0.0
O173 O 0.65493 0.10803 0.52366 0.0
C174 C 0.57051 0.05852 0.55287 0.0
O175 O 0.5919 0.03957 0.57126 0.0
O176 O 0.57512 0.0966 0.55017 0.0
O177 O 0.59608 0.11061 0.61815 0.0
O178 O 0.62075 0.19119 0.57693 0.0
C179 C 0.65412 0.2078 0.58294 0.0
O180 O 0.68616 0.18487 0.58471 0.0
O181 O 0.67811 0.10362 0.56582 0.0
Mg182 Mg 0.64453 0.87344 0.32252 0.0
C183 C 0.56319 0.90108 0.33237 0.0
O184 O 0.58621 0.93298 0.33544 0.0
C185 C 0.71476 0.84216 0.29307 0.0
O186 O 0.72524 0.87883 0.30042 0.0
C187 C 0.67036 0.96372 0.31491 0.0
O188 O 0.67615 0.96451 0.34122 0.0
O189 O 0.65821 0.93139 0.30377 0.0
O190 O 0.57915 0.86877 0.32334 0.0
O191 O 0.65454 0.86507 0.36575 0.0
C192 C 0.67663 0.83652 0.37435 0.0
O193 O 0.70172 0.81926 0.35744 0.0
O194 O 0.68001 0.82931 0.2997 0.0
Mg195 Mg 0.90898 0.90938 0.07758 0.0
C196 C 0.93815 0.89008 0.1346 0.0
O197 O 0.9202 0.85573 0.12914 0.0
C198 C 0.84572 0.94003 0.04113 0.0
O199 O 0.87461 0.92923 0.02455 0.0
C200 C 0.9584 0.97358 0.05288 0.0
O201 O 0.93676 0.99231 0.07122 0.0
O202 O 0.9538 0.93549 0.05012 0.0
O203 O 0.93433 0.91954 0.11807 0.0
O204 O 0.89744 0.844 0.07699 0.0
C205 C 0.8611 0.83273 0.08006 0.0
O206 O 0.83263 0.85979 0.07729 0.0
O207 O 0.85215 0.93796 0.06654 0.0
Mg208 Mg 0.65978 0.66417 0.83217 0.0
C209 C 0.5768 0.63153 0.8373 0.0
O210 O 0.59881 0.59873 0.83906 0.0
C211 C 0.68016 0.72655 0.78604 0.0
O212 O 0.6422 0.72418 0.77904 0.0
C213 C 0.67986 0.59796 0.79435 0.0
O214 O 0.67237 0.62866 0.77824 0.0
O215 O 0.67862 0.60366 0.81987 0.0
O216 O 0.5941 0.66474 0.83123 0.0
O217 O 0.67461 0.68581 0.87294 0.0
C218 C 0.64726 0.68997 0.89079 0.0
O219 O 0.612 0.67352 0.88645 0.0
O220 O 0.69272 0.70603 0.80607 0.0
Mg221 Mg 0.6237 0.40817 0.07871 0.0
C222 C 0.66936 0.32984 0.08027 0.0
O223 O 0.69875 0.3558 0.07686 0.0
C224 C 0.57383 0.47188 0.05402 0.0
O225 O 0.59432 0.49071 0.07294 0.0
C226 C 0.68885 0.44099 0.04368 0.0
O227 O 0.66011 0.43374 0.02613 0.0
O228 O 0.68151 0.43586 0.06878 0.0
O229 O 0.63337 0.34253 0.07826 0.0
O230 O 0.59804 0.41982 0.11887 0.0
C231 C 0.59314 0.39089 0.13567 0.0
O232 O 0.60974 0.35578 0.1305 0.0
O233 O 0.57959 0.43408 0.0508 0.0
Mg234 Mg 0.87024 0.3749 0.32633 0.0
C235 C 0.96288 0.36712 0.33378 0.0
O236 O 0.95652 0.328 0.3356 0.0
C237 C 0.84163 0.2962 0.30056 0.0
O238 O 0.8549 0.28087 0.32341 0.0
C239 C 0.84544 0.43967 0.28997 0.0
O240 O 0.85942 0.41107 0.27415 0.0
O241 O 0.84361 0.43286 0.31537 0.0
O242 O 0.93384 0.3902 0.32757 0.0
O243 O 0.85529 0.34667 0.36532 0.0
C244 C 0.88003 0.34555 0.385 0.0
O245 O 0.91245 0.36805 0.38391 0.0
O246 O 0.84747 0.33345 0.29559 0.0
Mg247 Mg 0.91902 0.62608 0.5739 0.0
C248 C 0.92505 0.7192 0.5836 0.0
O249 O 0.9632 0.71265 0.58864 0.0
C250 C 0.966 0.56361 0.54593 0.0
O251 O 0.94116 0.54359 0.56168 0.0
C252 C 0.85532 0.59636 0.53714 0.0
O253 O 0.8841 0.60699 0.5204 0.0
O254 O 0.86198 0.59842 0.56252 0.0
O255 O 0.90375 0.6904 0.57435 0.0
O256 O 0.9427 0.61206 0.61417 0.0
C257 C 0.93992 0.63593 0.63433 0.0
O258 O 0.91628 0.66753 0.63266 0.0
O259 O 0.96418 0.60214 0.54586 0.0
Mg260 Mg 0.66185 0.3717 0.70942 0.0
C261 C 0.57866 0.40399 0.70511 0.0
O262 O 0.60033 0.43717 0.70456 0.0
C263 C 0.68176 0.30932 0.75541 0.0
O264 O 0.64401 0.31283 0.76269 0.0
C265 C 0.68104 0.43767 0.7478 0.0
O266 O 0.67331 0.40686 0.76377 0.0
O267 O 0.68039 0.4321 0.72226 0.0
O268 O 0.59622 0.37062 0.71026 0.0
O269 O 0.67655 0.35146 0.6683 0.0
C270 C 0.64933 0.34884 0.65024 0.0
O271 O 0.61447 0.36595 0.65474 0.0
O272 O 0.69455 0.32923 0.73515 0.0
Mg273 Mg 0.91439 0.40373 0.96778 0.0
C274 C 0.90769 0.30571 0.96848 0.0
O275 O 0.94455 0.30128 0.97742 0.0
C276 C 0.96141 0.46679 0.99324 0.0
O277 O 0.93692 0.48422 0.97596 0.0
C278 C 0.85111 0.43606 1.00369 0.0
O279 O 0.87878 0.42362 0.0207 0.0
O280 O 0.85853 0.43435 0.97839 0.0
O281 O 0.89297 0.34104 0.9661 0.0
O282 O 0.93804 0.41359 0.9267 0.0
C283 C 0.95828 0.38379 0.91771 0.0
O284 O 0.96279 0.35206 0.93332 0.0
O285 O 0.95996 0.42836 0.99544 0.0
Mg286 Mg 0.86336 0.66733 0.20776 0.0
C287 C 0.94753 0.69452 0.19624 0.0
O288 O 0.92768 0.72592 0.187 0.0
C289 C 0.82926 0.7463 0.23234 0.0
O290 O 0.85433 0.76419 0.21564 0.0
C291 C 0.83993 0.60036 0.2446 0.0
O292 O 0.84193 0.63144 0.26107 0.0
O293 O 0.84611 0.60614 0.21941 0.0
O294 O 0.92862 0.66824 0.21012 0.0
O295 O 0.85595 0.68455 0.16543 0.0
C296 C 0.82813 0.70744 0.15688 0.0
O297 O 0.79774 0.71549 0.17292 0.0
O298 O 0.82865 0.70795 0.23357 0.0
Mg299 Mg 0.63067 0.62776 0.45831 0.0
C300 C 0.62061 0.72039 0.45088 0.0
O301 O 0.58212 0.71225 0.44897 0.0
C302 C 0.58018 0.56643 0.48442 0.0
O303 O 0.60104 0.54663 0.46617 0.0
C304 C 0.69434 0.59638 0.49474 0.0
O305 O 0.66527 0.60513 0.5117 0.0
O306 O 0.68786 0.60031 0.46943 0.0
O307 O 0.6446 0.69223 0.45757 0.0
O308 O 0.60613 0.61371 0.41825 0.0
C309 C 0.60671 0.63878 0.39862 0.0
O310 O 0.62865 0.6716 0.40062 0.0
O311 O 0.58584 0.60441 0.48669 0.0
Mg312 Mg 0.36953 0.36605 0.21081 0.0
C313 C 0.45116 0.39497 0.20153 0.0
O314 O 0.42828 0.42696 0.19844 0.0
C315 C 0.3 0.33135 0.24035 0.0
O316 O 0.28787 0.36784 0.23379 0.0
C317 C 0.35829 0.42402 0.25517 0.0
O318 O 0.36731 0.38997 0.26745 0.0
O319 O 0.35575 0.42419 0.22943 0.0
O320 O 0.43492 0.36238 0.20997 0.0
O321 O 0.35842 0.357 0.16776 0.0
C322 C 0.3305 0.33414 0.15923 0.0
O323 O 0.30206 0.32312 0.17611 0.0
O324 O 0.33515 0.32034 0.23332 0.0
Mg325 Mg 0.41263 0.62909 0.96392 0.0
C326 C 0.43702 0.63956 0.90483 0.0
O327 O 0.4197 0.67471 0.90855 0.0
C328 C 0.34485 0.61434 1.00143 0.0
O329 O 0.37358 0.62706 1.01753 0.0
C330 C 0.46074 0.56284 0.98838 0.0
O331 O 0.43999 0.54422 0.96952 0.0
O332 O 0.45566 0.60076 0.99151 0.0
O333 O 0.43432 0.61283 0.92339 0.0
O334 O 0.41136 0.69522 0.96323 0.0
C335 C 0.37809 0.71168 0.95685 0.0
O336 O 0.34597 0.68875 0.95538 0.0
O337 O 0.3527 0.60969 0.97636 0.0
Mg338 Mg 0.15842 0.66307 0.71455 0.0
C339 C 0.07822 0.63333 0.70349 0.0
O340 O 0.10229 0.6023 0.70018 0.0
C341 C 0.2267 0.69608 0.74578 0.0
O342 O 0.23839 0.65947 0.73924 0.0
C343 C 0.1658 0.60462 0.75866 0.0
O344 O 0.15289 0.6381 0.76999 0.0
O345 O 0.1722 0.60465 0.7332 0.0
O346 O 0.09303 0.66593 0.71297 0.0
O347 O 0.17 0.67463 0.67171 0.0
C348 C 0.19682 0.69956 0.66413 0.0
O349 O 0.22418 0.71104 0.68165 0.0
O350 O 0.19211 0.70796 0.73811 0.0
Mg351 Mg 0.12722 0.40459 0.45654 0.0
C352 C 0.08108 0.43044 0.40595 0.0
O353 O 0.06508 0.45682 0.42259 0.0
C354 C 0.19237 0.42876 0.49438 0.0
O355 O 0.16226 0.42161 0.51088 0.0
C356 C 0.0835 0.47343 0.48342 0.0
O357 O 0.11251 0.49271 0.47083 0.0
O358 O 0.08175 0.43501 0.48144 0.0
O359 O 0.1109 0.40969 0.41392 0.0
O360 O 0.12918 0.33861 0.45799 0.0
C361 C 0.16033 0.32386 0.44674 0.0
O362 O 0.18948 0.34869 0.44001 0.0
O363 O 0.18646 0.42575 0.46897 0.0
Mg364 Mg 0.38332 0.66091 0.32548 0.0
C365 C 0.46538 0.63296 0.33252 0.0
O366 O 0.44269 0.60097 0.3363 0.0
C367 C 0.30928 0.69518 0.3027 0.0
O368 O 0.29764 0.66233 0.31548 0.0
C369 C 0.35787 0.57015 0.3192 0.0
O370 O 0.35521 0.56903 0.34573 0.0
O371 O 0.36782 0.60288 0.30755 0.0
O372 O 0.44874 0.66525 0.324 0.0
O373 O 0.3769 0.6702 0.36902 0.0
C374 C 0.35591 0.69903 0.37842 0.0
O375 O 0.32986 0.71686 0.36246 0.0
O376 O 0.34642 0.70451 0.30325 0.0
Mg377 Mg 0.11075 0.65247 0.06853 0.0
C378 C 0.07502 0.64412 0.12622 0.0
O379 O 0.07921 0.60517 0.1219 0.0
C380 C 0.18095 0.6207 0.03967 0.0
O381 O 0.15212 0.62045 0.02153 0.0
C382 C 0.07241 0.57024 0.05222 0.0
O383 O 0.10131 0.55491 0.0671 0.0
O384 O 0.06973 0.60854 0.0498 0.0
O385 O 0.08771 0.66893 0.1085 0.0
O386 O 0.10944 0.70774 0.04423 0.0
C387 C 0.11886 0.74454 0.04893 0.0
O388 O 0.11356 0.77094 0.02936 0.0
O389 O 0.17237 0.63126 0.06381 0.0
Mg390 Mg 0.15924 0.36661 0.82987 0.0
C391 C 0.07152 0.38971 0.8307 0.0
O392 O 0.08672 0.42536 0.82507 0.0
C393 C 0.23226 0.32402 0.81167 0.0
O394 O 0.24545 0.34869 0.83053 0.0
C395 C 0.17214 0.4598 0.82449 0.0
O396 O 0.16302 0.46145 0.85035 0.0
O397 O 0.1739 0.42564 0.81286 0.0
O398 O 0.09418 0.3588 0.8289 0.0
O399 O 0.17061 0.35209 0.87247 0.0
C400 C 0.14334 0.35956 0.88987 0.0
O401 O 0.11555 0.38609 0.88371 0.0
O402 O 0.19481 0.32358 0.80648 0.0
Mg403 Mg 0.41845 0.41165 0.5762 0.0
C404 C 0.4416 0.3983 0.63511 0.0
O405 O 0.42438 0.36334 0.63033 0.0
C406 C 0.3528 0.43374 0.5386 0.0
O407 O 0.38286 0.42598 0.52221 0.0
C408 C 0.46672 0.47815 0.55148 0.0
O409 O 0.44529 0.49745 0.56966 0.0
O410 O 0.46207 0.44005 0.54909 0.0
O411 O 0.43957 0.42595 0.61715 0.0
O412 O 0.41649 0.34557 0.57534 0.0
C413 C 0.3828 0.32873 0.58013 0.0
O414 O 0.35056 0.35148 0.58103 0.0
O415 O 0.359 0.43249 0.56405 0.0
C416 C 0.194 0.2682 0.42098 0.0
C417 C 0.16049 0.2821 0.43562 0.0
H418 H 0.21729 0.22457 0.3931 0.0
C419 C 0.12575 0.25803 0.43616 0.0
H420 H 0.22144 0.28573 0.42029 0.0
C421 C 0.12349 0.22268 0.42062 0.0
C422 C 0.15585 0.21071 0.4041 0.0
H423 H 0.09945 0.26767 0.4473 0.0
H424 H 0.09545 0.20611 0.42033 0.0
C425 C 0.19169 0.233 0.40536 0.0
C426 C 0.04076 0.93074 0.66481 0.0
C427 C 0.05915 0.89316 0.66046 0.0
H428 H 0.9919 0.96274 0.68273 0.0
C429 C 0.04448 0.85917 0.67458 0.0
H430 H 0.05149 0.95758 0.65451 0.0
C431 C 1.00997 0.862 0.69067 0.0
C432 C 0.98962 0.89896 0.69311 0.0
H433 H 0.05807 0.82973 0.67187 0.0
H434 H 0.99792 0.83476 0.69975 0.0
C435 C 1.00652 0.93363 0.68104 0.0
C436 C 0.41252 0.77567 0.94211 0.0
C437 C 0.37731 0.75254 0.94435 0.0
H438 H 0.44189 0.82556 0.92291 0.0
C439 C 0.34241 0.76619 0.93114 0.0
H440 H 0.43986 0.76621 0.95212 0.0
C441 C 0.34363 0.80001 0.91413 0.0
C442 C 0.37966 0.82124 0.91018 0.0
H443 H 0.31462 0.74932 0.93256 0.0
H444 H 0.31685 0.80818 0.90298 0.0
C445 C 0.41363 0.80978 0.92532 0.0
C446 C 0.48166 0.18001 0.16927 0.0
C447 C 0.46771 0.14554 0.1554 0.0
H448 H 0.52782 0.20582 0.19411 0.0
C449 C 0.48727 0.10854 0.1597 0.0
H450 H 0.46717 0.20902 0.16659 0.0
C451 C 0.52184 0.1067 0.17568 0.0
C452 C 0.53789 0.14188 0.18756 0.0
H453 H 0.47715 0.08135 0.14956 0.0
H454 H 0.53726 0.07802 0.17739 0.0
C455 C 0.51648 0.17824 0.18511 0.0
C456 C 0.16312 0.74682 0.12013 0.0
C457 C 0.15973 0.78806 0.12676 0.0
H458 H 0.15478 0.70093 0.09009 0.0
C459 C 0.14476 0.81482 0.10716 0.0
H460 H 0.17491 0.72543 0.1347 0.0
C461 C 0.13192 0.80042 0.08196 0.0
C462 C 0.13397 0.75896 0.0756 0.0
H463 H 0.14154 0.8467 0.1116 0.0
H464 H 0.1195 0.82185 0.06765 0.0
C465 C 0.1509 0.73256 0.0947 0.0
C466 C 0.46691 0.8642 0.36517 0.0
C467 C 0.45509 0.89891 0.37961 0.0
H468 H 0.51054 0.83744 0.33872 0.0
C469 C 0.4755 0.93534 0.37492 0.0
H470 H 0.45181 0.83558 0.36836 0.0
C471 C 0.50874 0.93648 0.35772 0.0
C472 C 0.52282 0.90107 0.3451 0.0
H473 H 0.46694 0.96265 0.38554 0.0
H474 H 0.52479 0.96479 0.35561 0.0
C475 C 0.50062 0.86521 0.34817 0.0
C476 C 0.34551 0.23816 0.61955 0.0
C477 C 0.38137 0.21714 0.62445 0.0
H478 H 0.31763 0.2894 0.6011 0.0
C479 C 0.41635 0.22941 0.6107 0.0
H480 H 0.31796 0.22933 0.6296 0.0
C481 C 0.41631 0.26419 0.59453 0.0
C482 C 0.38119 0.28721 0.59155 0.0
H483 H 0.44451 0.2138 0.61385 0.0
H484 H 0.44434 0.2743 0.58571 0.0
C485 C 0.34538 0.27268 0.60317 0.0
C486 C 0.04601 0.175 0.86835 0.0
C487 C 0.06082 0.14017 0.88137 0.0
H488 H 0.99838 0.20115 0.84494 0.0
C489 C 0.04141 0.10312 0.87693 0.0
H490 H 0.06028 0.20408 0.87134 0.0
C491 C 1.00624 0.10142 0.8616 0.0
C492 C 0.98933 0.13682 0.85062 0.0
H493 H 0.05224 0.07571 0.88645 0.0
H494 H 0.99107 0.07259 0.85975 0.0
C495 C 1.01047 0.17338 0.8532 0.0
C496 C 0.86269 0.75278 0.60081 0.0
C497 C 0.90443 0.75418 0.59645 0.0
H498 H 0.81289 0.77509 0.62381 0.0
C499 C 0.92657 0.78563 0.60851 0.0
H500 H 0.84453 0.72916 0.59184 0.0
C501 C 0.90799 0.81272 0.6264 0.0
C502 C 0.86713 0.80834 0.6329 0.0
H503 H 0.9587 0.7877 0.60555 0.0
H504 H 0.92638 0.83466 0.63696 0.0
C505 C 0.8444 0.77918 0.61912 0.0
C506 C 1.01359 0.15125 0.34593 0.0
C507 C 0.03668 0.11577 0.34528 0.0
H508 H 0.9635 0.18205 0.36337 0.0
C509 C 0.02283 0.08163 0.35957 0.0
H510 H 0.0232 0.178 0.33505 0.0
C511 C 0.98878 0.08402 0.37607 0.0
C512 C 0.96755 0.12048 0.37843 0.0
H513 H 0.03965 0.05364 0.35938 0.0
H514 H 0.9804 0.05791 0.38806 0.0
C515 C 0.97929 0.15351 0.36222 0.0
C516 C 0.64683 0.26487 0.10217 0.0
C517 C 0.67804 0.2905 0.09362 0.0
H518 H 0.6293 0.21597 0.12807 0.0
C519 C 0.71752 0.28147 0.10176 0.0
H520 H 0.61612 0.27075 0.09618 0.0
C521 C 0.72503 0.25041 0.12029 0.0
C522 C 0.69336 0.22719 0.13078 0.0
H523 H 0.74245 0.30023 0.09538 0.0
H524 H 0.75537 0.2462 0.12764 0.0
C525 C 0.65445 0.23335 0.12044 0.0
C526 C 0.55257 0.87377 0.86518 0.0
C527 C 0.56454 0.90827 0.87981 0.0
H528 H 0.50854 0.84695 0.83915 0.0
C529 C 0.54368 0.94461 0.87566 0.0
H530 H 0.56806 0.84526 0.86774 0.0
C531 C 0.50975 0.94562 0.85899 0.0
C532 C 0.49562 0.91022 0.84634 0.0
H533 H 0.55226 0.97181 0.8864 0.0
H534 H 0.4932 0.97368 0.85743 0.0
C535 C 0.51837 0.87468 0.84874 0.0
C536 C 0.84874 0.27903 0.94278 0.0
C537 C 0.88748 0.27259 0.95328 0.0
H538 H 0.80545 0.26273 0.91268 0.0
C539 C 0.90879 0.23813 0.94478 0.0
H540 H 0.83115 0.30489 0.94906 0.0
C541 C 0.8935 0.21338 0.92409 0.0
C542 C 0.85687 0.22296 0.91149 0.0
H543 H 0.93865 0.23217 0.95244 0.0
H544 H 0.91207 0.18921 0.91625 0.0
C545 C 0.83384 0.25477 0.92195 0.0
C546 C 0.50884 0.09701 0.67935 0.0
C547 C 0.49385 0.13258 0.69129 0.0
H548 H 0.55213 0.07074 0.65256 0.0
C549 C 0.51588 0.16854 0.68833 0.0
H550 H 0.49286 0.06864 0.68134 0.0
C551 C 0.55023 0.16956 0.67202 0.0
C552 C 0.56305 0.13476 0.65806 0.0
H553 H 0.50536 0.19641 0.69735 0.0
H554 H 0.56516 0.19831 0.669 0.0
C555 C 0.54289 0.09814 0.66278 0.0
C556 C 0.62555 0.81627 0.40913 0.0
C557 C 0.66527 0.81468 0.39947 0.0
H558 H 0.58009 0.78756 0.43314 0.0
C559 C 0.69174 0.7865 0.41095 0.0
H560 H 0.6043 0.83759 0.40068 0.0
C561 C 0.67798 0.75822 0.42988 0.0
C562 C 0.6372 0.75694 0.43732 0.0
H563 H 0.72254 0.78468 0.40404 0.0
H564 H 0.69875 0.7354 0.43698 0.0
C565 C 0.61157 0.78746 0.4277 0.0
C566 C 0.02566 0.92627 0.17691 0.0
C567 C 0.04075 0.8896 0.18723 0.0
H568 H 0.98129 0.95536 0.15234 0.0
C569 C 0.01799 0.85425 0.1837 0.0
H570 H 0.04214 0.95423 0.1795 0.0
C571 C 0.98271 0.85504 0.16825 0.0
C572 C 0.96968 0.89114 0.15586 0.0
H573 H 0.02861 0.82553 0.19142 0.0
H574 H 0.96716 0.8268 0.16463 0.0
C575 C 0.99066 0.92701 0.16131 0.0
C576 C 0.68777 0.74217 0.91568 0.0
C577 C 0.65149 0.72113 0.91227 0.0
H578 H 0.71722 0.79386 0.93245 0.0
C579 C 0.61757 0.73408 0.92688 0.0
H580 H 0.71454 0.73289 0.90492 0.0
C581 C 0.61897 0.76934 0.94252 0.0
C582 C 0.65442 0.79224 0.94409 0.0
H583 H 0.58913 0.71849 0.92491 0.0
H584 H 0.59167 0.77981 0.9521 0.0
C585 C 0.68926 0.77722 0.9315 0.0
C586 C 0.54901 0.35875 0.17089 0.0
C587 C 0.5621 0.39376 0.15719 0.0
H588 H 0.50373 0.33151 0.19584 0.0
C589 C 0.54171 0.43022 0.16177 0.0
H590 H 0.56414 0.33013 0.16798 0.0
C591 C 0.50726 0.43101 0.17793 0.0
C592 C 0.49218 0.39531 0.18975 0.0
H593 H 0.55112 0.4578 0.15177 0.0
H594 H 0.49123 0.45931 0.1799 0.0
C595 C 0.51434 0.35948 0.18693 0.0
C596 C 0.91018 0.26638 0.43676 0.0
C597 C 0.87588 0.24166 0.43752 0.0
H598 H 0.93816 0.31905 0.41996 0.0
C599 C 0.84124 0.25457 0.42367 0.0
H600 H 0.93732 0.25747 0.44722 0.0
C601 C 0.84181 0.28963 0.4078 0.0
C602 C 0.87687 0.31299 0.40565 0.0
H603 H 0.81414 0.23647 0.42388 0.0
H604 H 0.81525 0.29747 0.3963 0.0
C605 C 0.91059 0.30177 0.42112 0.0
C606 C 0.02509 0.59687 0.67743 0.0
C607 C 0.03787 0.63225 0.69073 0.0
H608 H 0.98403 0.57022 0.64928 0.0
C609 C 1.01425 0.66726 0.68847 0.0
H610 H 0.04225 0.56918 0.67889 0.0
C611 C 0.98035 0.66761 0.67164 0.0
C612 C 0.96974 0.63311 0.65655 0.0
H613 H 0.02314 0.69496 0.69849 0.0
H614 H 0.9641 0.69569 0.66912 0.0
C615 C 0.99163 0.59737 0.6604 0.0
C616 C 0.69017 0.26335 0.60748 0.0
C617 C 0.65507 0.24908 0.59479 0.0
H618 H 0.71609 0.30627 0.63484 0.0
C619 C 0.61982 0.27209 0.59702 0.0
H620 H 0.718 0.24663 0.60603 0.0
C621 C 0.61888 0.30661 0.61339 0.0
C622 C 0.65306 0.31868 0.62809 0.0
H623 H 0.59232 0.26218 0.5874 0.0
H624 H 0.59058 0.32223 0.61586 0.0
C625 C 0.68913 0.29763 0.62404 0.0
C626 C 0.02362 0.35028 0.8595 0.0
C627 C 0.03497 0.38733 0.84787 0.0
H628 H 0.99036 0.3203 0.89053 0.0
C629 C 0.01571 0.42287 0.85673 0.0
H630 H 0.03756 0.32229 0.85316 0.0
C631 C 0.98851 0.42176 0.87841 0.0
C632 C 0.98018 0.3851 0.89159 0.0
H633 H 0.02359 0.45196 0.84816 0.0
H634 H 0.97607 0.44985 0.88587 0.0
C635 C 0.99666 0.34922 0.88112 0.0
C636 C 0.81197 0.78653 0.10276 0.0
C637 C 0.85155 0.79414 0.09414 0.0
H638 H 0.77347 0.75304 0.12931 0.0
C639 C 0.88216 0.76802 0.1029 0.0
H640 H 0.78749 0.80572 0.09625 0.0
C641 C 0.87391 0.73736 0.12171 0.0
C642 C 0.83496 0.73249 0.13234 0.0
H643 H 0.91292 0.77284 0.0966 0.0
H644 H 0.89864 0.71944 0.12932 0.0
C645 C 0.80383 0.75628 0.12178 0.0
C646 C 0.55565 0.59901 0.37273 0.0
C647 C 0.57607 0.63556 0.37694 0.0
H648 H 0.50549 0.56934 0.35467 0.0
C649 C 0.56324 0.67024 0.36281 0.0
H650 H 0.56496 0.57172 0.3831 0.0
C651 C 0.52863 0.66909 0.34667 0.0
C652 C 0.50649 0.63312 0.34415 0.0
H653 H 0.57833 0.69895 0.36562 0.0
H654 H 0.51802 0.69684 0.3375 0.0
C655 C 0.52148 0.59774 0.35637 0.0
C656 C 0.3121 0.25813 0.10373 0.0
C657 C 0.35143 0.25048 0.09469 0.0
H658 H 0.27456 0.2909 0.13119 0.0
C659 C 0.38244 0.27624 0.10337 0.0
H660 H 0.28733 0.23925 0.09727 0.0
C661 C 0.37489 0.30638 0.12262 0.0
C662 C 0.33628 0.311 0.1338 0.0
H663 H 0.41301 0.27141 0.0967 0.0
H664 H 0.39996 0.32381 0.13027 0.0
C665 C 0.30468 0.28783 0.12321 0.0
C666 C 0.47944 0.66907 0.86777 0.0
C667 C 0.46704 0.63505 0.8828 0.0
H668 H 0.52381 0.69474 0.84143 0.0
C669 C 0.48745 0.59837 0.87907 0.0
H670 H 0.46431 0.69782 0.87 0.0
C671 C 0.52134 0.59655 0.8624 0.0
C672 C 0.53592 0.63148 0.84932 0.0
H673 H 0.47854 0.57154 0.89014 0.0
H674 H 0.53752 0.56825 0.86116 0.0
C675 C 0.51363 0.66736 0.85133 0.0
C676 C 0.15198 0.72885 0.6282 0.0
C677 C 0.19066 0.72394 0.63921 0.0
H678 H 0.11359 0.76463 0.60284 0.0
C679 C 0.22205 0.74785 0.62905 0.0
H680 H 0.12705 0.71095 0.63561 0.0
C681 C 0.21442 0.77823 0.61004 0.0
C682 C 0.17506 0.78594 0.60105 0.0
H683 H 0.2522 0.74463 0.63694 0.0
H684 H 0.2391 0.79745 0.60383 0.0
C685 C 0.1442 0.75973 0.60942 0.0
C686 C 0.05991 0.37658 0.37319 0.0
C687 C 0.05772 0.41697 0.38205 0.0
H688 H 0.0315 0.32893 0.35085 0.0
C689 C 0.02819 0.44223 0.37095 0.0
H690 H 0.08229 0.35625 0.38139 0.0
C691 C 0.99946 0.42671 0.35313 0.0
C692 C 0.99911 0.38532 0.34644 0.0
H693 H 0.02588 0.4735 0.37723 0.0
H694 H 0.97582 0.44664 0.34623 0.0
C695 C 0.03069 0.36083 0.35573 0.0
C696 C 0.34336 0.74777 0.41611 0.0
C697 C 0.36918 0.72033 0.40327 0.0
H698 H 0.33788 0.798 0.44299 0.0
C699 C 0.40971 0.71915 0.41126 0.0
H700 H 0.31199 0.74928 0.41048 0.0
C701 C 0.42487 0.74768 0.42958 0.0
C702 C 0.39967 0.77749 0.4406 0.0
H703 H 0.43048 0.69844 0.4017 0.0
H704 H 0.45679 0.74798 0.43371 0.0
C705 C 0.35832 0.77573 0.4348 0.0
C706 C 0.03148 0.6314 0.16691 0.0
C707 C 0.049 0.6588 0.1486 0.0
H708 H 0.98622 0.62136 0.19694 0.0
C709 C 0.03758 0.6997 0.14985 0.0
H710 H 0.03987 0.59978 0.16673 0.0
C711 C 1.00666 0.71208 0.16713 0.0
C712 C 0.98667 0.68393 0.1837 0.0
H713 H 0.05078 0.7218 0.13631 0.0
H714 H 0.99685 0.74327 0.16629 0.0
C715 C 1.00076 0.64386 0.18436 0.0
C716 C 0.09711 0.32686 0.92348 0.0
C717 C 0.13576 0.3302 0.91212 0.0
H718 H 0.05608 0.29056 0.94648 0.0
C719 C 0.16478 0.30132 0.91921 0.0
H720 H 0.07392 0.34854 0.91852 0.0
C721 C 0.15462 0.2683 0.93563 0.0
C722 C 0.115 0.26304 0.94497 0.0
H723 H 0.19482 0.30305 0.91092 0.0
H724 H 0.17724 0.24553 0.93946 0.0
C725 C 0.08677 0.29349 0.93952 0.0
C726 C 0.48295 0.36705 0.67204 0.0
C727 C 0.4707 0.40181 0.65777 0.0
H728 H 0.52663 0.34037 0.69839 0.0
C729 C 0.49042 0.43853 0.66293 0.0
H730 H 0.46831 0.33824 0.66869 0.0
C731 C 0.52361 0.43979 0.68025 0.0
C732 C 0.53816 0.40426 0.69254 0.0
H733 H 0.48157 0.46591 0.65249 0.0
H734 H 0.53935 0.46823 0.68259 0.0
C735 C 0.51645 0.36821 0.68912 0.0
C736 C 0.27687 0.26214 0.25502 0.0
C737 C 0.27264 0.30438 0.2557 0.0
H738 H 0.25388 0.2048 0.26829 0.0
C739 C 0.24102 0.32115 0.27082 0.0
H740 H 0.30077 0.24835 0.2434 0.0
C741 C 0.21458 0.2964 0.28527 0.0
C742 C 0.21856 0.25418 0.28454 0.0
H743 H 0.23695 0.3536 0.27179 0.0
H744 H 0.19093 0.31039 0.29702 0.0
C745 C 0.24981 0.23725 0.26907 0.0
C746 C 0.01721 0.96626 0.51793 0.0
C747 C 0.04094 0.98627 0.53722 0.0
H748 H 0.97276 0.97154 0.48684 0.0
C749 C 0.03724 0.02855 0.53969 0.0
H750 H 0.01925 0.9338 0.51547 0.0
C751 C 1.0106 0.05027 0.52328 0.0
C752 C 0.98691 0.0303 0.50396 0.0
H753 H 0.05502 0.04506 0.55433 0.0
H754 H 1.00863 0.08273 0.52574 0.0
C755 C 0.99052 0.988 0.50152 0.0
C756 C 0.25178 0.76465 0.76011 0.0
C757 C 0.2541 0.72232 0.76157 0.0
H758 H 0.27683 0.82135 0.77282 0.0
C759 C 0.28416 0.70466 0.77767 0.0
H760 H 0.22913 0.77907 0.74771 0.0
C761 C 0.31103 0.72869 0.79226 0.0
C762 C 0.30909 0.771 0.79064 0.0
H763 H 0.28671 0.6721 0.77924 0.0
H764 H 0.3335 0.71409 0.80472 0.0
C765 C 0.27932 0.78878 0.77428 0.0
C766 C 0.50999 0.07004 1.0145 0.0
C767 C 0.4869 0.05034 0.03432 0.0
H768 H 0.55461 0.06445 0.98355 0.0
C769 C 0.49187 1.00839 0.0379 0.0
H770 H 0.50695 0.10226 1.0112 0.0
C771 C 0.51916 0.98666 0.02206 0.0
C772 C 0.54223 1.00631 1.00223 0.0
H773 H 0.4746 0.99215 0.05298 0.0
H774 H 0.52213 0.95443 0.02538 0.0
C775 C 0.53734 0.04828 0.99865 0.0
C776 C 0.29082 0.75216 0.27113 0.0
C777 C 0.27918 0.72008 0.28806 0.0
H778 H 0.27198 0.79893 0.24392 0.0
C779 C 0.23803 0.71117 0.29061 0.0
H780 H 0.32222 0.75979 0.26868 0.0
C781 C 0.20922 0.73364 0.27655 0.0
C782 C 0.2208 0.76544 0.2594 0.0
H783 H 0.2279 0.68671 0.30351 0.0
H784 H 0.17787 0.72583 0.27901 0.0
C785 C 0.26197 0.77449 0.25688 0.0
C786 C 0.49072 0.03325 0.50054 0.0
C787 C 0.48582 0.99127 0.50415 0.0
H788 H 0.52108 0.08732 0.51291 0.0
C789 C 0.50916 0.97167 0.52384 0.0
H790 H 0.47327 0.04942 0.48555 0.0
C791 C 0.53666 0.99353 0.53955 0.0
C792 C 0.54148 0.03553 0.53596 0.0
H793 H 0.50619 0.93944 0.52717 0.0
H794 H 0.5541 0.97742 0.55457 0.0
C795 C 0.51818 0.05509 0.51623 0.0
C796 C 0.30199 0.29816 0.80371 0.0
C797 C 0.26113 0.29845 0.79647 0.0
H798 H 0.36089 0.27548 0.7954 0.0
C799 C 0.24866 0.27484 0.77438 0.0
H800 H 0.31272 0.31595 0.82062 0.0
C801 C 0.27644 0.25173 0.75981 0.0
C802 C 0.31734 0.25153 0.76703 0.0
H803 H 0.21748 0.27441 0.76822 0.0
H804 H 0.26578 0.23395 0.74287 0.0
C805 C 0.32971 0.27494 0.78922 0.0
C806 C 0.01791 0.06176 0.02381 0.0
C807 C 0.04133 0.0429 1.00387 0.0
H808 H 0.97358 0.05479 0.0548 0.0
C809 C 0.03732 1.00082 1.00022 0.0
H810 H 0.0202 0.09402 0.02719 0.0
C811 C 1.01056 0.97821 1.01605 0.0
C812 C 0.9871 0.99709 0.03596 0.0
H813 H 0.05488 0.98519 0.98504 0.0
H814 H 1.00824 0.94596 1.01265 0.0
C815 C 0.99115 0.03915 0.03964 0.0
C816 C 0.72219 0.80061 0.73442 0.0
C817 C 0.76313 0.8019 0.7414 0.0
H818 H 0.66403 0.77604 0.74289 0.0
C819 C 0.77657 0.77796 0.76308 0.0
H820 H 0.71073 0.81863 0.71783 0.0
C821 C 0.74965 0.75355 0.77753 0.0
C822 C 0.70865 0.75242 0.77061 0.0
H823 H 0.80785 0.77824 0.76902 0.0
H824 H 0.76105 0.73559 0.79417 0.0
C825 C 0.69531 0.77617 0.74882 0.0
C826 C 0.79047 0.20622 0.2681 0.0
C827 C 0.76057 0.22478 0.25231 0.0
H828 H 0.83931 0.2142 0.29581 0.0
C829 C 0.75853 0.26716 0.25165 0.0
H830 H 0.79279 0.17359 0.26904 0.0
C831 C 0.78595 0.29047 0.26649 0.0
C832 C 0.81528 0.2718 0.28276 0.0
H833 H 0.736 0.28226 0.23952 0.0
H834 H 0.78346 0.3231 0.2658 0.0
C835 C 0.81719 0.22944 0.2834 0.0
C836 C 0.7226 0.23573 0.80767 0.0
C837 C 0.7634 0.23328 0.80047 0.0
H838 H 0.66498 0.26141 0.79923 0.0
C839 C 0.77712 0.25613 0.77833 0.0
H840 H 0.71093 0.21856 0.82461 0.0
C841 C 0.75062 0.2807 0.76369 0.0
C842 C 0.70977 0.28307 0.77089 0.0
H843 H 0.80829 0.25494 0.7722 0.0
H844 H 0.76222 0.29786 0.74672 0.0
C845 C 0.69615 0.26032 0.79309 0.0
C846 C 0.73844 0.7751 0.27488 0.0
C847 C 0.74352 0.81707 0.27749 0.0
H848 H 0.76188 0.71967 0.25894 0.0
C849 C 0.77721 0.83536 0.26539 0.0
H850 H 0.71293 0.7601 0.28406 0.0
C851 C 0.805 0.81238 0.25086 0.0
C852 C 0.80016 0.77041 0.24835 0.0
H853 H 0.78206 0.86765 0.26695 0.0
H854 H 0.8304 0.82757 0.24167 0.0
C855 C 0.76663 0.75196 0.26062 0.0
C856 C 0.53941 0.53666 0.0413 0.0
C857 C 0.54481 0.49488 0.03712 0.0
H858 H 0.50886 0.59082 0.02936 0.0
C859 C 0.52223 0.47576 1.01683 0.0
H860 H 0.55628 0.55246 0.05676 0.0
C861 C 0.49496 0.49787 1.00111 0.0
C862 C 0.48961 0.53965 1.00529 0.0
H863 H 0.52559 0.44369 1.01306 0.0
H864 H 0.4781 0.4821 0.98563 0.0
C865 C 0.51218 0.55875 0.02559 0.0
C866 C 0.02307 0.47649 0.51388 0.0
C867 C 0.05313 0.49654 0.49914 0.0
H868 H 0.97223 0.48181 0.54002 0.0
C869 C 0.05394 0.53914 0.49953 0.0
H870 H 0.02146 0.44379 0.51403 0.0
C871 C 0.02551 0.56111 0.51439 0.0
C872 C 0.99569 0.54099 0.52933 0.0
H873 H 0.07661 0.55566 0.48835 0.0
H874 H 0.02713 0.59381 0.51436 0.0
C875 C 0.9948 0.49841 0.52881 0.0
C876 C 1.0139 0.55976 0.02106 0.0
C877 C 0.04368 0.54322 0.03782 0.0
H878 H 0.96501 0.54889 0.99415 0.0
C879 C 0.04587 0.5008 0.04032 0.0
H880 H 1.01117 0.59218 1.01862 0.0
C881 C 0.01907 0.47564 0.02618 0.0
C882 C 0.98961 0.49237 1.00918 0.0
H883 H 0.06843 0.48698 0.05309 0.0
H884 H 0.02167 0.44317 0.02837 0.0
C885 C 0.98734 0.53476 1.00696 0.0
C886 C 0.52807 0.56428 0.52139 0.0
C887 C 0.55102 0.54423 0.50171 0.0
H888 H 0.48354 0.55921 0.55247 0.0
C889 C 0.54595 0.50222 0.49853 0.0
H890 H 0.5312 0.59655 0.52438 0.0
C891 C 0.51866 0.48077 0.51461 0.0
C892 C 0.4957 0.50076 0.53429 0.0
H893 H 0.5631 0.48571 0.48357 0.0
H894 H 0.5156 0.44849 0.51158 0.0
C895 C 0.50073 0.54279 0.53749 0.0
C896 C 0.1867 1.00766 0.29258 0.0
C897 C 0.18492 0.04197 0.27586 0.0
H898 H 0.18773 0.94306 0.29476 0.0
C899 C 0.18585 0.03661 0.24757 0.0
H900 H 0.18611 1.01067 0.31441 0.0
C901 C 0.18681 0.99785 0.23626 0.0
C902 C 0.18677 0.96349 0.25296 0.0
H903 H 0.18475 0.06238 0.23405 0.0
H904 H 0.18627 0.99486 0.21443 0.0
C905 C 0.18756 0.96887 0.28126 0.0
C906 C 0.25642 0.94144 0.55003 0.0
C907 C 0.22286 0.94015 0.53285 0.0
H908 H 0.32044 0.94126 0.55306 0.0
C909 C 0.229 0.94217 0.50467 0.0
H910 H 0.25281 0.94009 0.57181 0.0
C911 C 0.26782 0.94281 0.49387 0.0
C912 C 0.3014 0.94138 0.51102 0.0
H913 H 0.20381 0.94156 0.49083 0.0
H914 H 0.27144 0.94254 0.47208 0.0
C915 C 0.29524 0.94203 0.53923 0.0
C916 C 0.34381 0.02423 0.73915 0.0
C917 C 0.34416 0.05876 0.75563 0.0
H918 H 0.34539 0.95967 0.73742 0.0
C919 C 0.34309 0.05381 0.78395 0.0
H920 H 0.34452 0.02695 0.7173 0.0
C921 C 0.3436 1.01522 0.79554 0.0
C922 C 0.34528 0.98073 0.77906 0.0
H923 H 0.34308 0.0798 0.79726 0.0
H924 H 0.34411 1.01252 0.81739 0.0
C925 C 0.3444 0.98564 0.75074 0.0
C926 C 0.26989 0.09401 0.04651 0.0
C927 C 0.30303 0.09619 0.02901 0.0
H928 H 0.20596 0.09371 0.05024 0.0
C929 C 0.29626 0.09535 1.00087 0.0
H930 H 0.27399 0.09443 0.06827 0.0
C931 C 0.2572 0.09501 0.99048 0.0
C932 C 0.22402 0.09553 1.00801 0.0
H933 H 0.32112 0.09668 0.98678 0.0
H934 H 0.25306 0.09619 0.96874 0.0
C935 C 0.23084 0.09369 0.03612 0.0
C936 C 0.78603 0.03061 0.78312 0.0
C937 C 0.82192 0.05133 0.78867 0.0
H938 H 0.75832 0.9797 0.76375 0.0
C939 C 0.85791 0.03686 0.77745 0.0
H940 H 0.75782 0.04115 0.79138 0.0
C941 C 0.85802 1.00246 0.761 0.0
C942 C 0.82228 0.9812 0.75594 0.0
H943 H 0.886 0.05242 0.78111 0.0
H944 H 0.88629 0.99189 0.75284 0.0
C945 C 0.7863 0.99556 0.76722 0.0
C946 C 0.75922 0.09461 0.54699 0.0
C947 C 0.72584 0.09496 0.52965 0.0
H948 H 0.82322 0.09511 0.55036 0.0
C949 C 0.73234 0.09273 0.50151 0.0
H950 H 0.75534 0.0962 0.56874 0.0
C951 C 0.77131 0.09209 0.49091 0.0
C952 C 0.8047 0.09375 0.50822 0.0
H953 H 0.70731 0.09272 0.48753 0.0
H954 H 0.77519 0.09174 0.46914 0.0
C955 C 0.79818 0.09405 0.5364 0.0
C956 C 0.67828 0.074 0.2949 0.0
C957 C 0.6753 0.07191 0.26651 0.0
H958 H 0.67953 0.04158 0.33245 0.0
C959 C 0.67353 0.03382 0.25409 0.0
H960 H 0.68 0.10293 0.30509 0.0
C961 C 0.67298 0.99863 0.26983 0.0
C962 C 0.67459 1.0008 0.2983 0.0
H963 H 0.67125 0.0312 0.23229 0.0
H964 H 0.67054 0.96973 0.25968 0.0
C965 C 0.67813 0.03884 0.31062 0.0
C966 C 0.73257 0.95008 0.03681 0.0
C967 C 0.72612 0.94805 1.00865 0.0
H968 H 0.77533 0.94956 0.06923 0.0
C969 C 0.75955 0.94806 0.99135 0.0
H970 H 0.7075 0.9504 0.05075 0.0
C971 C 0.79846 0.94768 1.00199 0.0
C972 C 0.80488 0.9473 0.03017 0.0
H973 H 0.75571 0.94671 0.96959 0.0
H974 H 0.82349 0.9461 0.98805 0.0
C975 C 0.7715 0.94972 0.04745 0.0
C976 C 0.68607 0.48386 0.7879 0.0
C977 C 0.68566 0.47866 0.7596 0.0
H978 H 0.68488 0.52547 0.82114 0.0
C979 C 0.68677 0.51308 0.74297 0.0
H980 H 0.68545 0.45798 0.80134 0.0
C981 C 0.68642 0.55179 0.75437 0.0
C982 C 0.68506 0.55699 0.78266 0.0
H983 H 0.68655 0.5102 0.72112 0.0
H984 H 0.68609 0.57766 0.74091 0.0
C985 C 0.68582 0.52258 0.7993 0.0
C986 C 0.80246 0.44475 0.04197 0.0
C987 C 0.81015 0.44492 1.01392 0.0
H988 H 0.75824 0.44381 0.07345 0.0
C989 C 0.77769 0.4492 0.99602 0.0
H990 H 0.82678 0.44183 0.05638 0.0
C991 C 0.73831 0.45038 1.00587 0.0
C992 C 0.7305 0.44736 0.03383 0.0
H993 H 0.78249 0.44963 0.97433 0.0
H994 H 0.7139 0.45181 0.99142 0.0
C995 C 0.76311 0.44598 0.05181 0.0
C996 C 0.83965 0.48613 0.25016 0.0
C997 C 0.8378 0.48033 0.27839 0.0
H998 H 0.84149 0.52837 0.21731 0.0
C999 C 0.83248 0.51415 0.29514 0.0
H1000 H 0.84341 0.4607 0.23661 0.0
C1001 C 0.83139 0.55308 0.28399 0.0
C1002 C 0.83553 0.55899 0.25587 0.0
H1003 H 0.83086 0.51075 0.31693 0.0
H1004 H 0.82873 0.57863 0.29757 0.0
C1005 C 0.83852 0.52498 0.23903 0.0
C1006 C 0.74212 0.58687 0.53345 0.0
C1007 C 0.73537 0.58899 0.50533 0.0
H1008 H 0.78523 0.58708 0.56564 0.0
C1009 C 0.76858 0.58827 0.48784 0.0
H1010 H 0.71721 0.58702 0.54754 0.0
C1011 C 0.80762 0.58829 0.49827 0.0
C1012 C 0.81435 0.58896 0.52642 0.0
H1013 H 0.76451 0.58965 0.4661 0.0
H1014 H 0.83252 0.58954 0.4842 0.0
C1015 C 0.78117 0.58681 0.54388 0.0
C1016 C 0.35202 0.49477 0.31532 0.0
C1017 C 0.35368 0.53285 0.30281 0.0
H1018 H 0.3521 0.43061 0.31005 0.0
C1019 C 0.35383 0.53488 0.27432 0.0
H1020 H 0.35178 0.49209 0.33717 0.0
C1021 C 0.35383 0.4996 0.25871 0.0
C1022 C 0.35398 0.46153 0.27128 0.0
H1023 H 0.35485 0.56378 0.26401 0.0
H1024 H 0.35502 0.50219 0.23686 0.0
C1025 C 0.35233 0.45951 0.29973 0.0
C1026 C 0.29485 0.61885 0.03935 0.0
C1027 C 0.30321 0.61078 1.01192 0.0
H1028 H 0.24985 0.62808 0.06975 0.0
C1029 C 0.27109 0.60236 0.99441 0.0
H1030 H 0.31888 0.62529 0.05347 0.0
C1031 C 0.23151 0.60388 1.00381 0.0
C1032 C 0.22305 0.6139 0.03093 0.0
H1033 H 0.2764 0.59589 0.97322 0.0
H1034 H 0.20746 0.59845 0.98952 0.0
C1035 C 0.25524 0.6204 0.04875 0.0
C1036 C 0.18146 0.49527 0.77983 0.0
C1037 C 0.17469 0.49726 0.80797 0.0
H1038 H 0.18409 0.52749 0.74212 0.0
C1039 C 0.16753 0.53515 0.81977 0.0
H1040 H 0.18717 0.46657 0.77004 0.0
C1041 C 0.16568 0.56995 0.80374 0.0
C1042 C 0.17101 0.56781 0.7755 0.0
H1043 H 0.16227 0.53787 0.84133 0.0
H1044 H 0.15926 0.5985 0.81352 0.0
C1045 C 0.17968 0.53017 0.76377 0.0
C1046 C 0.23926 0.43717 0.53372 0.0
C1047 C 0.23321 0.43538 0.50553 0.0
H1048 H 0.28166 0.43843 0.56634 0.0
C1049 C 0.26679 0.43699 0.48838 0.0
H1050 H 0.21405 0.43624 0.54754 0.0
C1051 C 0.30557 0.43829 0.4992 0.0
C1052 C 0.31169 0.43806 0.52741 0.0
H1053 H 0.26324 0.43583 0.4666 0.0
H1054 H 0.3308 0.43815 0.48539 0.0
C1055 C 0.27806 0.43853 0.54454 0.0
loop_
_geom_bond_atom_site_label_1
_geom_bond_atom_site_label_2
_geom_bond_distance
_geom_bond_site_symmetry_2
_ccdc_geom_bond_type
Mg0 O7 2.141 . S
Mg0 O8 2.048 . S
Mg0 O9 2.048 . S
Mg0 O12 2.141 . S
C1 O2 1.313 . S
C1 O8 1.195 . S
O2 C1 1.313 . S
C3 O4 1.245 . S
C3 O12 1.289 . S
O4 C3 1.245 . S
C5 O6 1.245 . S
C5 O7 1.289 . S
O6 C5 1.245 . S
O7 Mg0 2.141 . S
O7 C5 1.289 . S
O8 Mg0 2.048 . S
O8 C1 1.195 . S
O9 Mg0 2.048 . S
O9 C10 1.195 . S
C10 O9 1.195 . S
C10 O11 1.313 . S
O11 C10 1.313 . S
O12 Mg0 2.141 . S
O12 C3 1.289 . S
Mg13 O20 2.141 . S
Mg13 O21 2.048 . S
Mg13 O22 2.048 . S
Mg13 O25 2.141 . S
C14 O15 1.313 . S
C14 O21 1.195 . S
O15 C14 1.313 . S
C16 O17 1.245 . S
C16 O25 1.289 . S
O17 C16 1.245 . S
C18 O19 1.245 . S
C18 O20 1.289 . S
O19 C18 1.245 . S
O20 Mg13 2.141 . S
O20 C18 1.289 . S
O21 Mg13 2.048 . S
O21 C14 1.195 . S
O22 Mg13 2.048 . S
O22 C23 1.195 . S
C23 O22 1.195 . S
C23 O24 1.313 . S
O24 C23 1.313 . S
O25 Mg13 2.141 . S
O25 C16 1.289 . S
Mg26 O33 2.141 . S
Mg26 O34 2.048 . S
Mg26 O35 2.048 . S
Mg26 O38 2.141 . S
C27 O28 1.313 . S
C27 O34 1.195 . S
O28 C27 1.313 . S
C29 O30 1.245 . S
C29 O38 1.289 . S
O30 C29 1.245 . S
C31 O32 1.245 . S
C31 O33 1.289 . S
O32 C31 1.245 . S
O33 Mg26 2.141 . S
O33 C31 1.289 . S
O34 Mg26 2.048 . S
O34 C27 1.195 . S
O35 Mg26 2.048 . S
O35 C36 1.195 . S
C36 O35 1.195 . S
C36 O37 1.313 . S
O37 C36 1.313 . S
O38 Mg26 2.141 . S
O38 C29 1.289 . S
Mg39 O46 2.141 . S
Mg39 O47 2.048 . S
Mg39 O48 2.048 . S
Mg39 O51 2.141 . S
C40 O41 1.313 . S
C40 O47 1.195 . S
O41 C40 1.313 . S
C42 O43 1.245 . S
C42 O51 1.289 . S
O43 C42 1.245 . S
C44 O45 1.245 . S
C44 O46 1.289 . S
O45 C44 1.245 . S
O46 Mg39 2.141 . S
O46 C44 1.289 . S
O47 Mg39 2.048 . S
O47 C40 1.195 . S
O48 Mg39 2.048 . S
O48 C49 1.195 . S
C49 O48 1.195 . S
C49 O50 1.313 . S
O50 C49 1.313 . S
O51 Mg39 2.141 . S
O51 C42 1.289 . S
Mg52 O59 2.141 . S
Mg52 O60 2.048 . S
Mg52 O61 2.048 . S
Mg52 O64 2.141 . S
C53 O54 1.313 . S
C53 O60 1.195 . S
O54 C53 1.313 . S
C55 O56 1.245 . S
C55 O64 1.289 . S
O56 C55 1.245 . S
C57 O58 1.245 . S
C57 O59 1.289 . S
O58 C57 1.245 . S
O59 Mg52 2.141 . S
O59 C57 1.289 . S
O60 Mg52 2.048 . S
O60 C53 1.195 . S
O61 Mg52 2.048 . S
O61 C62 1.195 . S
C62 O61 1.195 . S
C62 O63 1.313 . S
O63 C62 1.313 . S
O64 Mg52 2.141 . S
O64 C55 1.289 . S
Mg65 O72 2.141 . S
Mg65 O73 2.048 . S
Mg65 O74 2.048 . S
Mg65 O77 2.141 . S
C66 O67 1.313 . S
C66 O73 1.195 . S
O67 C66 1.313 . S
C68 O69 1.245 . S
C68 O77 1.289 . S
O69 C68 1.245 . S
C70 O71 1.245 . S
C70 O72 1.289 . S
O71 C70 1.245 . S
O72 Mg65 2.141 . S
O72 C70 1.289 . S
O73 Mg65 2.048 . S
O73 C66 1.195 . S
O74 Mg65 2.048 . S
O74 C75 1.195 . S
C75 O74 1.195 . S
C75 O76 1.313 . S
O76 C75 1.313 . S
O77 Mg65 2.141 . S
O77 C68 1.289 . S
Mg78 O85 2.141 . S
Mg78 O86 2.048 . S
Mg78 O87 2.048 . S
Mg78 O90 2.141 . S
C79 O80 1.313 . S
C79 O86 1.195 . S
O80 C79 1.313 . S
C81 O82 1.245 . S
C81 O90 1.289 . S
O82 C81 1.245 . S
C83 O84 1.245 . S
C83 O85 1.289 . S
O84 C83 1.245 . S
O85 Mg78 2.141 . S
O85 C83 1.289 . S
O86 Mg78 2.048 . S
O86 C79 1.195 . S
O87 Mg78 2.048 . S
O87 C88 1.195 . S
C88 O87 1.195 . S
C88 O89 1.313 . S
O89 C88 1.313 . S
O90 Mg78 2.141 . S
O90 C81 1.289 . S
Mg91 O98 2.141 . S
Mg91 O99 2.048 . S
Mg91 O100 2.048 . S
Mg91 O103 2.141 . S
C92 O93 1.313 . S
C92 O99 1.195 . S
O93 C92 1.313 . S
C94 O95 1.245 . S
C94 O103 1.289 . S
O95 C94 1.245 . S
C96 O97 1.245 . S
C96 O98 1.289 . S
O97 C96 1.245 . S
O98 Mg91 2.141 . S
O98 C96 1.289 . S
O99 Mg91 2.048 . S
O99 C92 1.195 . S
O100 Mg91 2.048 . S
O100 C101 1.195 . S
C101 O100 1.195 . S
C101 O102 1.313 . S
O102 C101 1.313 . S
O103 Mg91 2.141 . S
O103 C94 1.289 . S
Mg104 O111 2.141 . S
Mg104 O112 2.048 . S
Mg104 O113 2.048 . S
Mg104 O116 2.141 . S
C105 O106 1.313 . S
C105 O112 1.195 . S
O106 C105 1.313 . S
C107 O108 1.245 . S
C107 O116 1.289 . S
O108 C107 1.245 . S
C109 O110 1.245 . S
C109 O111 1.289 . S
O110 C109 1.245 . S
O111 Mg104 2.141 . S
O111 C109 1.289 . S
O112 Mg104 2.048 . S
O112 C105 1.195 . S
O113 Mg104 2.048 . S
O113 C114 1.195 . S
C114 O113 1.195 . S
C114 O115 1.313 . S
O115 C114 1.313 . S
O116 Mg104 2.141 . S
O116 C107 1.289 . S
Mg117 O124 2.141 . S
Mg117 O125 2.048 . S
Mg117 O126 2.048 . S
Mg117 O129 2.141 . S
C118 O119 1.313 . S
C118 O125 1.195 . S
O119 C118 1.313 . S
C120 O121 1.245 . S
C120 O129 1.289 . S
O121 C120 1.245 . S
C122 O123 1.245 . S
C122 O124 1.289 . S
O123 C122 1.245 . S
O124 Mg117 2.141 . S
O124 C122 1.289 . S
O125 Mg117 2.048 . S
O125 C118 1.195 . S
O126 Mg117 2.048 . S
O126 C127 1.195 . S
C127 O126 1.195 . S
C127 O128 1.313 . S
O128 C127 1.313 . S
O129 Mg117 2.141 . S
O129 C120 1.289 . S
Mg130 O137 2.141 . S
Mg130 O138 2.048 . S
Mg130 O139 2.048 . S
Mg130 O142 2.141 . S
C131 O132 1.313 . S
C131 O138 1.195 . S
O132 C131 1.313 . S
C133 O134 1.245 . S
C133 O142 1.289 . S
O134 C133 1.245 . S
C135 O136 1.245 . S
C135 O137 1.289 . S
O136 C135 1.245 . S
O137 Mg130 2.141 . S
O137 C135 1.289 . S
O138 Mg130 2.048 . S
O138 C131 1.195 . S
O139 Mg130 2.048 . S
O139 C140 1.195 . S
C140 O139 1.195 . S
C140 O141 1.313 . S
O141 C140 1.313 . S
O142 Mg130 2.141 . S
O142 C133 1.289 . S
Mg143 O150 2.141 . S
Mg143 O151 2.048 . S
Mg143 O152 2.048 . S
Mg143 O155 2.141 . S
C144 O145 1.313 . S
C144 O151 1.195 . S
O145 C144 1.313 . S
C146 O147 1.245 . S
C146 O155 1.289 . S
O147 C146 1.245 . S
C148 O149 1.245 . S
C148 O150 1.289 . S
O149 C148 1.245 . S
O150 Mg143 2.141 . S
O150 C148 1.289 . S
O151 Mg143 2.048 . S
O151 C144 1.195 . S
O152 Mg143 2.048 . S
O152 C153 1.195 . S
C153 O152 1.195 . S
C153 O154 1.313 . S
O154 C153 1.313 . S
O155 Mg143 2.141 . S
O155 C146 1.289 . S
Mg156 O163 2.141 . S
Mg156 O164 2.048 . S
Mg156 O165 2.048 . S
Mg156 O168 2.141 . S
C157 O158 1.313 . S
C157 O164 1.195 . S
O158 C157 1.313 . S
C159 O160 1.245 . S
C159 O168 1.289 . S
O160 C159 1.245 . S
C161 O162 1.245 . S
C161 O163 1.289 . S
O162 C161 1.245 . S
O163 Mg156 2.141 . S
O163 C161 1.289 . S
O164 Mg156 2.048 . S
O164 C157 1.195 . S
O165 Mg156 2.048 . S
O165 C166 1.195 . S
C166 O165 1.195 . S
C166 O167 1.313 . S
O167 C166 1.313 . S
O168 Mg156 2.141 . S
O168 C159 1.289 . S
Mg169 O176 2.141 . S
Mg169 O177 2.048 . S
Mg169 O178 2.048 . S
Mg169 O181 2.141 . S
C170 O171 1.313 . S
C170 O177 1.195 . S
O171 C170 1.313 . S
C172 O173 1.245 . S
C172 O181 1.289 . S
O173 C172 1.245 . S
C174 O175 1.245 . S
C174 O176 1.289 . S
O175 C174 1.245 . S
O176 Mg169 2.141 . S
O176 C174 1.289 . S
O177 Mg169 2.048 . S
O177 C170 1.195 . S
O178 Mg169 2.048 . S
O178 C179 1.195 . S
C179 O178 1.195 . S
C179 O180 1.313 . S
O180 C179 1.313 . S
O181 Mg169 2.141 . S
O181 C172 1.289 . S
Mg182 O189 2.141 . S
Mg182 O190 2.048 . S
Mg182 O191 2.048 . S
Mg182 O194 2.141 . S
C183 O184 1.313 . S
C183 O190 1.195 . S
O184 C183 1.313 . S
C185 O186 1.245 . S
C185 O194 1.289 . S
O186 C185 1.245 . S
C187 O188 1.245 . S
C187 O189 1.289 . S
O188 C187 1.245 . S
O189 Mg182 2.141 . S
O189 C187 1.289 . S
O190 Mg182 2.048 . S
O190 C183 1.195 . S
O191 Mg182 2.048 . S
O191 C192 1.195 . S
C192 O191 1.195 . S
C192 O193 1.313 . S
O193 C192 1.313 . S
O194 Mg182 2.141 . S
O194 C185 1.289 . S
Mg195 O202 2.141 . S
Mg195 O203 2.048 . S
Mg195 O204 2.048 . S
Mg195 O207 2.141 . S
C196 O197 1.313 . S
C196 O203 1.195 . S
O197 C196 1.313 . S
C198 O199 1.245 . S
C198 O207 1.289 . S
O199 C198 1.245 . S
C200 O201 1.245 . S
C200 O202 1.289 . S
O201 C200 1.245 . S
O202 Mg195 2.141 . S
O202 C200 1.289 . S
O203 Mg195 2.048 . S
O203 C196 1.195 . S
O204 Mg195 2.048 . S
O204 C205 1.195 . S
C205 O204 1.195 . S
C205 O206 1.313 . S
O206 C205 1.313 . S
O207 Mg195 2.141 . S
O207 C198 1.289 . S
Mg208 O215 2.141 . S
Mg208 O216 2.048 . S
Mg208 O217 2.048 . S
Mg208 O220 2.141 . S
C209 O210 1.313 . S
C209 O216 1.195 . S
O210 C209 1.313 . S
C211 O212 1.245 . S
C211 O220 1.289 . S
O212 C211 1.245 . S
C213 O214 1.245 . S
C213 O215 1.289 . S
O214 C213 1.245 . S
O215 Mg208 2.141 . S
O215 C213 1.289 . S
O216 Mg208 2.048 . S
O216 C209 1.195 . S
O217 Mg208 2.048 . S
O217 C218 1.195 . S
C218 O217 1.195 . S
C218 O219 1.313 . S
O219 C218 1.313 . S
O220 Mg208 2.141 . S
O220 C211 1.289 . S
Mg221 O228 2.141 . S
Mg221 O229 2.048 . S
Mg221 O230 2.048 . S
Mg221 O233 2.141 . S
C222 O223 1.313 . S
C222 O229 1.195 . S
O223 C222 1.313 . S
C224 O225 1.245 . S
C224 O233 1.289 . S
O225 C224 1.245 . S
C226 O227 1.245 . S
C226 O228 1.289 . S
O227 C226 1.245 . S
O228 Mg221 2.141 . S
O228 C226 1.289 . S
O229 Mg221 2.048 . S
O229 C222 1.195 . S
O230 Mg221 2.048 . S
O230 C231 1.195 . S
C231 O230 1.195 . S
C231 O232 1.313 . S
O232 C231 1.313 . S
O233 Mg221 2.141 . S
O233 C224 1.289 . S
Mg234 O241 2.141 . S
Mg234 O242 2.048 . S
Mg234 O243 2.048 . S
Mg234 O246 2.141 . S
C235 O236 1.313 . S
C235 O242 1.195 . S
O236 C235 1.313 . S
C237 O238 1.245 . S
C237 O246 1.289 . S
O238 C237 1.245 . S
C239 O240 1.245 . S
C239 O241 1.289 . S
O240 C239 1.245 . S
O241 Mg234 2.141 . S
O241 C239 1.289 . S
O242 Mg234 2.048 . S
O242 C235 1.195 . S
O243 Mg234 2.048 . S
O243 C244 1.195 . S
C244 O243 1.195 . S
C244 O245 1.313 . S
O245 C244 1.313 . S
O246 Mg234 2.141 . S
O246 C237 1.289 . S
Mg247 O254 2.141 . S
Mg247 O255 2.048 . S
Mg247 O256 2.048 . S
Mg247 O259 2.141 . S
C248 O249 1.313 . S
C248 O255 1.195 . S
O249 C248 1.313 . S
C250 O251 1.245 . S
C250 O259 1.289 . S
O251 C250 1.245 . S
C252 O253 1.245 . S
C252 O254 1.289 . S
O253 C252 1.245 . S
O254 Mg247 2.141 . S
O254 C252 1.289 . S
O255 Mg247 2.048 . S
O255 C248 1.195 . S
O256 Mg247 2.048 . S
O256 C257 1.195 . S
C257 O256 1.195 . S
C257 O258 1.313 . S
O258 C257 1.313 . S
O259 Mg247 2.141 . S
O259 C250 1.289 . S
Mg260 O267 2.141 . S
Mg260 O268 2.048 . S
Mg260 O269 2.048 . S
Mg260 O272 2.141 . S
C261 O262 1.313 . S
C261 O268 1.195 . S
O262 C261 1.313 . S
C263 O264 1.245 . S
C263 O272 1.289 . S
O264 C263 1.245 . S
C265 O266 1.245 . S
C265 O267 1.289 . S
O266 C265 1.245 . S
O267 Mg260 2.141 . S
O267 C265 1.289 . S
O268 Mg260 2.048 . S
O268 C261 1.195 . S
O269 Mg260 2.048 . S
O269 C270 1.195 . S
C270 O269 1.195 . S
C270 O271 1.313 . S
O271 C270 1.313 . S
O272 Mg260 2.141 . S
O272 C263 1.289 . S
Mg273 O280 2.141 . S
Mg273 O281 2.048 . S
Mg273 O282 2.048 . S
Mg273 O285 2.141 . S
C274 O275 1.313 . S
C274 O281 1.195 . S
O275 C274 1.313 . S
C276 O277 1.245 . S
C276 O285 1.289 . S
O277 C276 1.245 . S
C278 O279 1.245 . S
C278 O280 1.289 . S
O279 C278 1.245 . S
O280 Mg273 2.141 . S
O280 C278 1.289 . S
O281 Mg273 2.048 . S
O281 C274 1.195 . S
O282 Mg273 2.048 . S
O282 C283 1.195 . S
C283 O282 1.195 . S
C283 O284 1.313 . S
O284 C283 1.313 . S
O285 Mg273 2.141 . S
O285 C276 1.289 . S
Mg286 O293 2.141 . S
Mg286 O294 2.048 . S
Mg286 O295 2.048 . S
Mg286 O298 2.141 . S
C287 O288 1.313 . S
C287 O294 1.195 . S
O288 C287 1.313 . S
C289 O290 1.245 . S
C289 O298 1.289 . S
O290 C289 1.245 . S
C291 O292 1.245 . S
C291 O293 1.289 . S
O292 C291 1.245 . S
O293 Mg286 2.141 . S
O293 C291 1.289 . S
O294 Mg286 2.048 . S
O294 C287 1.195 . S
O295 Mg286 2.048 . S
O295 C296 1.195 . S
C296 O295 1.195 . S
C296 O297 1.313 . S
O297 C296 1.313 . S
O298 Mg286 2.141 . S
O298 C289 1.289 . S
Mg299 O306 2.141 . S
Mg299 O307 2.048 . S
Mg299 O308 2.048 . S
Mg299 O311 2.141 . S
C300 O301 1.313 . S
C300 O307 1.195 . S
O301 C300 1.313 . S
C302 O303 1.245 . S
C302 O311 1.289 . S
O303 C302 1.245 . S
C304 O305 1.245 . S
C304 O306 1.289 . S
O305 C304 1.245 . S
O306 Mg299 2.141 . S
O306 C304 1.289 . S
O307 Mg299 2.048 . S
O307 C300 1.195 . S
O308 Mg299 2.048 . S
O308 C309 1.195 . S
C309 O308 1.195 . S
C309 O310 1.313 . S
O310 C309 1.313 . S
O311 Mg299 2.141 . S
O311 C302 1.289 . S
Mg312 O319 2.141 . S
Mg312 O320 2.048 . S
Mg312 O321 2.048 . S
Mg312 O324 2.141 . S
C313 O314 1.313 . S
C313 O320 1.195 . S
O314 C313 1.313 . S
C315 O316 1.245 . S
C315 O324 1.289 . S
O316 C315 1.245 . S
C317 O318 1.245 . S
C317 O319 1.289 . S
O318 C317 1.245 . S
O319 Mg312 2.141 . S
O319 C317 1.289 . S
O320 Mg312 2.048 . S
O320 C313 1.195 . S
O321 Mg312 2.048 . S
O321 C322 1.195 . S
C322 O321 1.195 . S
C322 O323 1.313 . S
O323 C322 1.313 . S
O324 Mg312 2.141 . S
O324 C315 1.289 . S
Mg325 O332 2.141 . S
Mg325 O333 2.048 . S
Mg325 O334 2.048 . S
Mg325 O337 2.141 . S
C326 O327 1.313 . S
C326 O333 1.195 . S
O327 C326 1.313 . S
C328 O329 1.245 . S
C328 O337 1.289 . S
O329 C328 1.245 . S
C330 O331 1.245 . S
C330 O332 1.289 . S
O331 C330 1.245 . S
O332 Mg325 2.141 . S
O332 C330 1.289 . S
O333 Mg325 2.048 . S
O333 C326 1.195 . S
O334 Mg325 2.048 . S
O334 C335 1.195 . S
C335 O334 1.195 . S
C335 O336 1.313 . S
O336 C335 1.313 . S
O337 Mg325 2.141 . S
O337 C328 1.289 . S
Mg338 O345 2.141 . S
Mg338 O346 2.048 . S
Mg338 O347 2.048 . S
Mg338 O350 2.141 . S
C339 O340 1.313 . S
C339 O346 1.195 . S
O340 C339 1.313 . S
C341 O342 1.245 . S
C341 O350 1.289 . S
O342 C341 1.245 . S
C343 O344 1.245 . S
C343 O345 1.289 . S
O344 C343 1.245 . S
O345 Mg338 2.141 . S
O345 C343 1.289 . S
O346 Mg338 2.048 . S
O346 C339 1.195 . S
O347 Mg338 2.048 . S
O347 C348 1.195 . S
C348 O347 1.195 . S
C348 O349 1.313 . S
O349 C348 1.313 . S
O350 Mg338 2.141 . S
O350 C341 1.289 . S
Mg351 O358 2.141 . S
Mg351 O359 2.048 . S
Mg351 O360 2.048 . S
Mg351 O363 2.141 . S
C352 O353 1.313 . S
C352 O359 1.195 . S
O353 C352 1.313 . S
C354 O355 1.245 . S
C354 O363 1.289 . S
O355 C354 1.245 . S
C356 O357 1.245 . S
C356 O358 1.289 . S
O357 C356 1.245 . S
O358 Mg351 2.141 . S
O358 C356 1.289 . S
O359 Mg351 2.048 . S
O359 C352 1.195 . S
O360 Mg351 2.048 . S
O360 C361 1.195 . S
C361 O360 1.195 . S
C361 O362 1.313 . S
O362 C361 1.313 . S
O363 Mg351 2.141 . S
O363 C354 1.289 . S
Mg364 O371 2.141 . S
Mg364 O372 2.048 . S
Mg364 O373 2.048 . S
Mg364 O376 2.141 . S
C365 O366 1.313 . S
C365 O372 1.195 . S
O366 C365 1.313 . S
C367 O368 1.245 . S
C367 O376 1.289 . S
O368 C367 1.245 . S
C369 O370 1.245 . S
C369 O371 1.289 . S
O370 C369 1.245 . S
O371 Mg364 2.141 . S
O371 C369 1.289 . S
O372 Mg364 2.048 . S
O372 C365 1.195 . S
O373 Mg364 2.048 . S
O373 C374 1.195 . S
C374 O373 1.195 . S
C374 O375 1.313 . S
O375 C374 1.313 . S
O376 Mg364 2.141 . S
O376 C367 1.289 . S
Mg377 O384 2.141 . S
Mg377 O385 2.048 . S
Mg377 O386 2.048 . S
Mg377 O389 2.141 . S
C378 O379 1.313 . S
C378 O385 1.195 . S
O379 C378 1.313 . S
C380 O381 1.245 . S
C380 O389 1.289 . S
O381 C380 1.245 . S
C382 O383 1.245 . S
C382 O384 1.289 . S
O383 C382 1.245 . S
O384 Mg377 2.141 . S
O384 C382 1.289 . S
O385 Mg377 2.048 . S
O385 C378 1.195 . S
O386 Mg377 2.048 . S
O386 C387 1.195 . S
C387 O386 1.195 . S
C387 O388 1.313 . S
O388 C387 1.313 . S
O389 Mg377 2.141 . S
O389 C380 1.289 . S
Mg390 O397 2.141 . S
Mg390 O398 2.048 . S
Mg390 O399 2.048 . S
Mg390 O402 2.141 . S
C391 O392 1.313 . S
C391 O398 1.195 . S
O392 C391 1.313 . S
C393 O394 1.245 . S
C393 O402 1.289 . S
O394 C393 1.245 . S
C395 O396 1.245 . S
C395 O397 1.289 . S
O396 C395 1.245 . S
O397 Mg390 2.141 . S
O397 C395 1.289 . S
O398 Mg390 2.048 . S
O398 C391 1.195 . S
O399 Mg390 2.048 . S
O399 C400 1.195 . S
C400 O399 1.195 . S
C400 O401 1.313 . S
O401 C400 1.313 . S
O402 Mg390 2.141 . S
O402 C393 1.289 . S
Mg403 O410 2.141 . S
Mg403 O411 2.048 . S
Mg403 O412 2.048 . S
Mg403 O415 2.141 . S
C404 O405 1.313 . S
C404 O411 1.195 . S
O405 C404 1.313 . S
C406 O407 1.245 . S
C406 O415 1.289 . S
O407 C406 1.245 . S
C408 O409 1.245 . S
C408 O410 1.289 . S
O409 C408 1.245 . S
O410 Mg403 2.141 . S
O410 C408 1.289 . S
O411 Mg403 2.048 . S
O411 C404 1.195 . S
O412 Mg403 2.048 . S
O412 C413 1.195 . S
C413 O412 1.195 . S
C413 O414 1.313 . S
O414 C413 1.313 . S
O415 Mg403 2.141 . S
O415 C406 1.289 . S
C416 C417 1.387 . S
C416 H420 0.950 . S
C416 C425 1.390 . S
C417 C416 1.387 . S
C417 C419 1.387 . S
H418 C425 0.950 . S
C419 C417 1.387 . S
C419 C421 1.390 . S
C419 H423 0.950 . S
H420 C416 0.950 . S
C421 C419 1.390 . S
C421 C422 1.387 . S
C421 H424 0.950 . S
C422 C421 1.387 . S
C422 C425 1.387 . S
H423 C419 0.950 . S
H424 C421 0.950 . S
C425 C416 1.390 . S
C425 H418 0.950 . S
C425 C422 1.387 . S
C426 C427 1.387 . S
C426 H430 0.950 . S
C426 C435 1.390 . S
C427 C426 1.387 . S
C427 C429 1.387 . S
H428 C435 0.950 . S
C429 C427 1.387 . S
C429 C431 1.390 . S
C429 H433 0.950 . S
H430 C426 0.950 . S
C431 C429 1.390 . S
C431 C432 1.387 . S
C431 H434 0.950 . S
C432 C431 1.387 . S
C432 C435 1.387 . S
H433 C429 0.950 . S
H434 C431 0.950 . S
C435 C426 1.390 . S
C435 H428 0.950 . S
C435 C432 1.387 . S
C436 C437 1.387 . S
C436 H440 0.950 . S
C436 C445 1.390 . S
C437 C436 1.387 . S
C437 C439 1.387 . S
H438 C445 0.950 . S
C439 C437 1.387 . S
C439 C441 1.390 . S
C439 H443 0.950 . S
H440 C436 0.950 . S
C441 C439 1.390 . S
C441 C442 1.387 . S
C441 H444 0.950 . S
C442 C441 1.387 . S
C442 C445 1.387 . S
H443 C439 0.950 . S
H444 C441 0.950 . S
C445 C436 1.390 . S
C445 H438 0.950 . S
C445 C442 1.387 . S
C446 C447 1.387 . S
C446 H450 0.950 . S
C446 C455 1.390 . S
C447 C446 1.387 . S
C447 C449 1.387 . S
H448 C455 0.950 . S
C449 C447 1.387 . S
C449 C451 1.390 . S
C449 H453 0.950 . S
H450 C446 0.950 . S
C451 C449 1.390 . S
C451 C452 1.387 . S
C451 H454 0.950 . S
C452 C451 1.387 . S
C452 C455 1.387 . S
H453 C449 0.950 . S
H454 C451 0.950 . S
C455 C446 1.390 . S
C455 H448 0.950 . S
C455 C452 1.387 . S
C456 C457 1.387 . S
C456 H460 0.950 . S
C456 C465 1.390 . S
C457 C456 1.387 . S
C457 C459 1.387 . S
H458 C465 0.950 . S
C459 C457 1.387 . S
C459 C461 1.390 . S
C459 H463 0.950 . S
H460 C456 0.950 . S
C461 C459 1.390 . S
C461 C462 1.387 . S
C461 H464 0.950 . S
C462 C461 1.387 . S
C462 C465 1.387 . S
H463 C459 0.950 . S
H464 C461 0.950 . S
C465 C456 1.390 . S
C465 H458 0.950 . S
C465 C462 1.387 . S
C466 C467 1.387 . S
C466 H470 0.950 . S
C466 C475 1.390 . S
C467 C466 1.387 . S
C467 C469 1.387 . S
H468 C475 0.950 . S
C469 C467 1.387 . S
C469 C471 1.390 . S
C469 H473 0.950 . S
H470 C466 0.950 . S
C471 C469 1.390 . S
C471 C472 1.387 . S
C471 H474 0.950 . S
C472 C471 1.387 . S
C472 C475 1.387 . S
H473 C469 0.950 . S
H474 C471 0.950 . S
C475 C466 1.390 . S
C475 H468 0.950 . S
C475 C472 1.387 . S
C476 C477 1.387 . S
C476 H480 0.950 . S
C476 C485 1.390 . S
C477 C476 1.387 . S
C477 C479 1.387 . S
H478 C485 0.950 . S
C479 C477 1.387 . S
C479 C481 1.390 . S
C479 H483 0.950 . S
H480 C476 0.950 . S
C481 C479 1.390 . S
C481 C482 1.387 . S
C481 H484 0.950 . S
C482 C481 1.387 . S
C482 C485 1.387 . S
H483 C479 0.950 . S
H484 C481 0.950 . S
C485 C476 1.390 . S
C485 H478 0.950 . S
C485 C482 1.387 . S
C486 C487 1.387 . S
C486 H490 0.950 . S
C486 C495 1.390 . S
C487 C486 1.387 . S
C487 C489 1.387 . S
H488 C495 0.950 . S
C489 C487 1.387 . S
C489 C491 1.390 . S
C489 H493 0.950 . S
H490 C486 0.950 . S
C491 C489 1.390 . S
C491 C492 1.387 . S
C491 H494 0.950 . S
C492 C491 1.387 . S
C492 C495 1.387 . S
H493 C489 0.950 . S
H494 C491 0.950 . S
C495 C486 1.390 . S
C495 H488 0.950 . S
C495 C492 1.387 . S
C496 C497 1.387 . S
C496 H500 0.950 . S
C496 C505 1.390 . S
C497 C496 1.387 . S
C497 C499 1.387 . S
H498 C505 0.950 . S
C499 C497 1.387 . S
C499 C501 1.390 . S
C499 H503 0.950 . S
H500 C496 0.950 . S
C501 C499 1.390 . S
C501 C502 1.387 . S
C501 H504 0.950 . S
C502 C501 1.387 . S
C502 C505 1.387 . S
H503 C499 0.950 . S
H504 C501 0.950 . S
C505 C496 1.390 . S
C505 H498 0.950 . S
C505 C502 1.387 . S
C506 C507 1.387 . S
C506 H510 0.950 . S
C506 C515 1.390 . S
C507 C506 1.387 . S
C507 C509 1.387 . S
H508 C515 0.950 . S
C509 C507 1.387 . S
C509 C511 1.390 . S
C509 H513 0.950 . S
H510 C506 0.950 . S
C511 C509 1.390 . S
C511 C512 1.387 . S
C511 H514 0.950 . S
C512 C511 1.387 . S
C512 C515 1.387 . S
H513 C509 0.950 . S
H514 C511 0.950 . S
C515 C506 1.390 . S
C515 H508 0.950 . S
C515 C512 1.387 . S
C516 C517 1.387 . S
C516 H520 0.950 . S
C516 C525 1.390 . S
C517 C516 1.387 . S
C517 C519 1.387 . S
H518 C525 0.950 . S
C519 C517 1.387 . S
C519 C521 1.390 . S
C519 H523 0.950 . S
H520 C516 0.950 . S
C521 C519 1.390 . S
C521 C522 1.387 . S
C521 H524 0.950 . S
C522 C521 1.387 . S
C522 C525 1.387 . S
H523 C519 0.950 . S
H524 C521 0.950 . S
C525 C516 1.390 . S
C525 H518 0.950 . S
C525 C522 1.387 . S
C526 C527 1.387 . S
C526 H530 0.950 . S
C526 C535 1.390 . S
C527 C526 1.387 . S
C527 C529 1.387 . S
H528 C535 0.950 . S
C529 C527 1.387 . S
C529 C531 1.390 . S
C529 H533 0.950 . S
H530 C526 0.950 . S
C531 C529 1.390 . S
C531 C532 1.387 . S
C531 H534 0.950 . S
C532 C531 1.387 . S
C532 C535 1.387 . S
H533 C529 0.950 . S
H534 C531 0.950 . S
C535 C526 1.390 . S
C535 H528 0.950 . S
C535 C532 1.387 . S
C536 C537 1.387 . S
C536 H540 0.950 . S
C536 C545 1.390 . S
C537 C536 1.387 . S
C537 C539 1.387 . S
H538 C545 0.950 . S
C539 C537 1.387 . S
C539 C541 1.390 . S
C539 H543 0.950 . S
H540 C536 0.950 . S
C541 C539 1.390 . S
C541 C542 1.387 . S
C541 H544 0.950 . S
C542 C541 1.387 . S
C542 C545 1.387 . S
H543 C539 0.950 . S
H544 C541 0.950 . S
C545 C536 1.390 . S
C545 H538 0.950 . S
C545 C542 1.387 . S
C546 C547 1.387 . S
C546 H550 0.950 . S
C546 C555 1.390 . S
C547 C546 1.387 . S
C547 C549 1.387 . S
H548 C555 0.950 . S
C549 C547 1.387 . S
C549 C551 1.390 . S
C549 H553 0.950 . S
H550 C546 0.950 . S
C551 C549 1.390 . S
C551 C552 1.387 . S
C551 H554 0.950 . S
C552 C551 1.387 . S
C552 C555 1.387 . S
H553 C549 0.950 . S
H554 C551 0.950 . S
C555 C546 1.390 . S
C555 H548 0.950 . S
C555 C552 1.387 . S
C556 C557 1.387 . S
C556 H560 0.950 . S
C556 C565 1.390 . S
C557 C556 1.387 . S
C557 C559 1.387 . S
H558 C565 0.950 . S
C559 C557 1.387 . S
C559 C561 1.390 . S
C559 H563 0.950 . S
H560 C556 0.950 . S
C561 C559 1.390 . S
C561 C562 1.387 . S
C561 H564 0.950 . S
C562 C561 1.387 . S
C562 C565 1.387 . S
H563 C559 0.950 . S
H564 C561 0.950 . S
C565 C556 1.390 . S
C565 H558 0.950 . S
C565 C562 1.387 . S
C566 C567 1.387 . S
C566 H570 0.950 . S
C566 C575 1.390 . S
C567 C566 1.387 . S
C567 C569 1.387 . S
H568 C575 0.950 1_655 S
C569 C567 1.387 . S
C569 C571 1.390 . S
C569 H573 0.950 . S
H570 C566 0.950 . S
C571 C569 1.390 . S
C571 C572 1.387 . S
C571 H574 0.950 . S
C572 C571 1.387 . S
C572 C575 1.387 . S
H573 C569 0.950 . S
H574 C571 0.950 . S
C575 C566 1.390 . S
C575 H568 0.950 1_455 S
C575 C572 1.387 . S
C576 C577 1.387 . S
C576 H580 0.950 . S
C576 C585 1.390 . S
C577 C576 1.387 . S
C577 C579 1.387 . S
H578 C585 0.950 . S
C579 C577 1.387 . S
C579 C581 1.390 . S
C579 H583 0.950 . S
H580 C576 0.950 . S
C581 C579 1.390 . S
C581 C582 1.387 . S
C581 H584 0.950 . S
C582 C581 1.387 . S
C582 C585 1.387 . S
H583 C579 0.950 . S
H584 C581 0.950 . S
C585 C576 1.390 . S
C585 H578 0.950 . S
C585 C582 1.387 . S
C586 C587 1.387 . S
C586 H590 0.950 . S
C586 C595 1.390 . S
C587 C586 1.387 . S
C587 C589 1.387 . S
H588 C595 0.950 . S
C589 C587 1.387 . S
C589 C591 1.390 . S
C589 H593 0.950 . S
H590 C586 0.950 . S
C591 C589 1.390 . S
C591 C592 1.387 . S
C591 H594 0.950 . S
C592 C591 1.387 . S
C592 C595 1.387 . S
H593 C589 0.950 . S
H594 C591 0.950 . S
C595 C586 1.390 . S
C595 H588 0.950 . S
C595 C592 1.387 . S
C596 C597 1.387 . S
C596 H600 0.950 . S
C596 C605 1.390 . S
C597 C596 1.387 . S
C597 C599 1.387 . S
H598 C605 0.950 . S
C599 C597 1.387 . S
C599 C601 1.390 . S
C599 H603 0.950 . S
H600 C596 0.950 . S
C601 C599 1.390 . S
C601 C602 1.387 . S
C601 H604 0.950 . S
C602 C601 1.387 . S
C602 C605 1.387 . S
H603 C599 0.950 . S
H604 C601 0.950 . S
C605 C596 1.390 . S
C605 H598 0.950 . S
C605 C602 1.387 . S
C606 C607 1.387 . S
C606 H610 0.950 . S
C606 C615 1.390 . S
C607 C606 1.387 . S
C607 C609 1.387 . S
H608 C615 0.950 . S
C609 C607 1.387 . S
C609 C611 1.390 . S
C609 H613 0.950 . S
H610 C606 0.950 . S
C611 C609 1.390 . S
C611 C612 1.387 . S
C611 H614 0.950 . S
C612 C611 1.387 . S
C612 C615 1.387 . S
H613 C609 0.950 . S
H614 C611 0.950 . S
C615 C606 1.390 . S
C615 H608 0.950 . S
C615 C612 1.387 . S
C616 C617 1.387 . S
C616 H620 0.950 . S
C616 C625 1.390 . S
C617 C616 1.387 . S
C617 C619 1.387 . S
H618 C625 0.950 . S
C619 C617 1.387 . S
C619 C621 1.390 . S
C619 H623 0.950 . S
H620 C616 0.950 . S
C621 C619 1.390 . S
C621 C622 1.387 . S
C621 H624 0.950 . S
C622 C621 1.387 . S
C622 C625 1.387 . S
H623 C619 0.950 . S
H624 C621 0.950 . S
C625 C616 1.390 . S
C625 H618 0.950 . S
C625 C622 1.387 . S
C626 C627 1.387 . S
C626 H630 0.950 . S
C626 C635 1.390 . S
C627 C626 1.387 . S
C627 C629 1.387 . S
H628 C635 0.950 . S
C629 C627 1.387 . S
C629 C631 1.390 . S
C629 H633 0.950 . S
H630 C626 0.950 . S
C631 C629 1.390 . S
C631 C632 1.387 . S
C631 H634 0.950 . S
C632 C631 1.387 . S
C632 C635 1.387 . S
H633 C629 0.950 . S
H634 C631 0.950 . S
C635 C626 1.390 . S
C635 H628 0.950 . S
C635 C632 1.387 . S
C636 C637 1.387 . S
C636 H640 0.950 . S
C636 C645 1.390 . S
C637 C636 1.387 . S
C637 C639 1.387 . S
H638 C645 0.950 . S
C639 C637 1.387 . S
C639 C641 1.390 . S
C639 H643 0.950 . S
H640 C636 0.950 . S
C641 C639 1.390 . S
C641 C642 1.387 . S
C641 H644 0.950 . S
C642 C641 1.387 . S
C642 C645 1.387 . S
H643 C639 0.950 . S
H644 C641 0.950 . S
C645 C636 1.390 . S
C645 H638 0.950 . S
C645 C642 1.387 . S
C646 C647 1.387 . S
C646 H650 0.950 . S
C646 C655 1.390 . S
C647 C646 1.387 . S
C647 C649 1.387 . S
H648 C655 0.950 . S
C649 C647 1.387 . S
C649 C651 1.390 . S
C649 H653 0.950 . S
H650 C646 0.950 . S
C651 C649 1.390 . S
C651 C652 1.387 . S
C651 H654 0.950 . S
C652 C651 1.387 . S
C652 C655 1.387 . S
H653 C649 0.950 . S
H654 C651 0.950 . S
C655 C646 1.390 . S
C655 H648 0.950 . S
C655 C652 1.387 . S
C656 C657 1.387 . S
C656 H660 0.950 . S
C656 C665 1.390 . S
C657 C656 1.387 . S
C657 C659 1.387 . S
H658 C665 0.950 . S
C659 C657 1.387 . S
C659 C661 1.390 . S
C659 H663 0.950 . S
H660 C656 0.950 . S
C661 C659 1.390 . S
C661 C662 1.387 . S
C661 H664 0.950 . S
C662 C661 1.387 . S
C662 C665 1.387 . S
H663 C659 0.950 . S
H664 C661 0.950 . S
C665 C656 1.390 . S
C665 H658 0.950 . S
C665 C662 1.387 . S
C666 C667 1.387 . S
C666 H670 0.950 . S
C666 C675 1.390 . S
C667 C666 1.387 . S
C667 C669 1.387 . S
H668 C675 0.950 . S
C669 C667 1.387 . S
C669 C671 1.390 . S
C669 H673 0.950 . S
H670 C666 0.950 . S
C671 C669 1.390 . S
C671 C672 1.387 . S
C671 H674 0.950 . S
C672 C671 1.387 . S
C672 C675 1.387 . S
H673 C669 0.950 . S
H674 C671 0.950 . S
C675 C666 1.390 . S
C675 H668 0.950 . S
C675 C672 1.387 . S
C676 C677 1.387 . S
C676 H680 0.950 . S
C676 C685 1.390 . S
C677 C676 1.387 . S
C677 C679 1.387 . S
H678 C685 0.950 . S
C679 C677 1.387 . S
C679 C681 1.390 . S
C679 H683 0.950 . S
H680 C676 0.950 . S
C681 C679 1.390 . S
C681 C682 1.387 . S
C681 H684 0.950 . S
C682 C681 1.387 . S
C682 C685 1.387 . S
H683 C679 0.950 . S
H684 C681 0.950 . S
C685 C676 1.390 . S
C685 H678 0.950 . S
C685 C682 1.387 . S
C686 C687 1.387 . S
C686 H690 0.950 . S
C686 C695 1.390 . S
C687 C686 1.387 . S
C687 C689 1.387 . S
H688 C695 0.950 . S
C689 C687 1.387 . S
C689 C691 1.390 . S
C689 H693 0.950 . S
H690 C686 0.950 . S
C691 C689 1.390 . S
C691 C692 1.387 . S
C691 H694 0.950 . S
C692 C691 1.387 . S
C692 C695 1.387 . S
H693 C689 0.950 . S
H694 C691 0.950 . S
C695 C686 1.390 . S
C695 H688 0.950 . S
C695 C692 1.387 . S
C696 C697 1.387 . S
C696 H700 0.950 . S
C696 C705 1.390 . S
C697 C696 1.387 . S
C697 C699 1.387 . S
H698 C705 0.950 . S
C699 C697 1.387 . S
C699 C701 1.390 . S
C699 H703 0.950 . S
H700 C696 0.950 . S
C701 C699 1.390 . S
C701 C702 1.387 . S
C701 H704 0.950 . S
C702 C701 1.387 . S
C702 C705 1.387 . S
H703 C699 0.950 . S
H704 C701 0.950 . S
C705 C696 1.390 . S
C705 H698 0.950 . S
C705 C702 1.387 . S
C706 C707 1.387 . S
C706 H710 0.950 . S
C706 C715 1.390 . S
C707 C706 1.387 . S
C707 C709 1.387 . S
H708 C715 0.950 . S
C709 C707 1.387 . S
C709 C711 1.390 . S
C709 H713 0.942 1_655 S
H710 C706 0.950 . S
C711 C709 1.390 . S
C711 C712 1.387 . S
C711 H714 0.950 . S
C712 C711 1.387 . S
C712 C715 1.387 . S
H713 C709 0.942 1_455 S
H714 C711 0.950 . S
C715 C706 1.390 . S
C715 H708 0.950 . S
C715 C712 1.387 . S
C716 C717 1.387 . S
C716 H720 0.950 . S
C716 C725 1.390 . S
C717 C716 1.387 . S
C717 C719 1.387 . S
H718 C725 0.950 . S
C719 C717 1.387 . S
C719 C721 1.390 . S
C719 H723 0.950 . S
H720 C716 0.950 . S
C721 C719 1.390 . S
C721 C722 1.387 . S
C721 H724 0.950 . S
C722 C721 1.387 . S
C722 C725 1.387 . S
H723 C719 0.950 . S
H724 C721 0.950 . S
C725 C716 1.390 . S
C725 H718 0.950 . S
C725 C722 1.387 . S
C726 C727 1.387 . S
C726 H730 0.950 . S
C726 C735 1.390 . S
C727 C726 1.387 . S
C727 C729 1.387 . S
H728 C735 0.950 . S
C729 C727 1.387 . S
C729 C731 1.390 . S
C729 H733 0.950 . S
H730 C726 0.950 . S
C731 C729 1.390 . S
C731 C732 1.387 . S
C731 H734 0.950 . S
C732 C731 1.387 . S
C732 C735 1.387 . S
H733 C729 0.950 . S
H734 C731 0.950 . S
C735 C726 1.390 . S
C735 H728 0.950 . S
C735 C732 1.387 . S
C736 C737 1.387 . S
C736 H740 0.950 . S
C736 C745 1.390 . S
C737 C736 1.387 . S
C737 C739 1.387 . S
H738 C745 0.950 . S
C739 C737 1.387 . S
C739 C741 1.390 . S
C739 H743 0.950 . S
H740 C736 0.950 . S
C741 C739 1.390 . S
C741 C742 1.387 . S
C741 H744 0.950 . S
C742 C741 1.387 . S
C742 C745 1.387 . S
H743 C739 0.950 . S
H744 C741 0.950 . S
C745 C736 1.390 . S
C745 H738 0.950 . S
C745 C742 1.387 . S
C746 C747 1.388 . S
C746 H750 0.950 . S
C746 C755 1.390 1_455 S
C747 C746 1.388 . S
C747 C749 1.387 1_545 S
H748 C755 0.950 . S
C749 C747 1.387 1_565 S
C749 C751 1.390 1_455 S
C749 H753 0.950 . S
H750 C746 0.950 . S
C751 C749 1.390 1_655 S
C751 C752 1.388 . S
C751 H754 0.950 . S
C752 C751 1.388 . S
C752 C755 1.387 1_565 S
H753 C749 0.950 . S
H754 C751 0.950 . S
C755 C746 1.390 1_655 S
C755 H748 0.950 . S
C755 C752 1.387 1_545 S
C756 C757 1.387 . S
C756 H760 0.950 . S
C756 C765 1.390 . S
C757 C756 1.387 . S
C757 C759 1.387 . S
H758 C765 0.950 . S
C759 C757 1.387 . S
C759 C761 1.390 . S
C759 H763 0.950 . S
H760 C756 0.950 . S
C761 C759 1.390 . S
C761 C762 1.387 . S
C761 H764 0.950 . S
C762 C761 1.387 . S
C762 C765 1.387 . S
H763 C759 0.950 . S
H764 C761 0.950 . S
C765 C756 1.390 . S
C765 H758 0.950 . S
C765 C762 1.387 . S
C766 C767 1.388 . S
C766 H770 0.950 . S
C766 C775 1.390 1_554 S
C767 C766 1.388 . S
C767 C769 1.387 1_565 S
H768 C775 0.950 . S
C769 C767 1.387 1_545 S
C769 C771 1.390 1_554 S
C769 H773 0.950 . S
H770 C766 0.950 . S
C771 C769 1.390 1_556 S
C771 C772 1.388 . S
C771 H774 0.950 . S
C772 C771 1.388 . S
C772 C775 1.387 1_545 S
H773 C769 0.950 . S
H774 C771 0.950 . S
C775 C766 1.390 1_556 S
C775 H768 0.950 . S
C775 C772 1.387 1_565 S
C776 C777 1.387 . S
C776 H780 0.950 . S
C776 C785 1.390 . S
C777 C776 1.387 . S
C777 C779 1.387 . S
H778 C785 0.950 . S
C779 C777 1.387 . S
C779 C781 1.390 . S
C779 H783 0.950 . S
H780 C776 0.950 . S
C781 C779 1.390 . S
C781 C782 1.387 . S
C781 H784 0.950 . S
C782 C781 1.387 . S
C782 C785 1.387 . S
H783 C779 0.950 . S
H784 C781 0.950 . S
C785 C776 1.390 . S
C785 H778 0.950 . S
C785 C782 1.387 . S
C786 C787 1.387 1_565 S
C786 H790 0.950 . S
C786 C795 1.390 . S
C787 C786 1.387 1_545 S
C787 C789 1.388 . S
H788 C795 0.950 . S
C789 C787 1.388 . S
C789 C791 1.390 . S
C789 H793 0.950 . S
H790 C786 0.950 . S
C791 C789 1.390 . S
C791 C792 1.387 1_545 S
C791 H794 0.950 . S
C792 C791 1.387 1_565 S
C792 C795 1.388 . S
H793 C789 0.950 . S
H794 C791 0.950 . S
C795 C786 1.390 . S
C795 H788 0.950 . S
C795 C792 1.388 . S
C796 C797 1.387 . S
C796 H800 0.950 . S
C796 C805 1.390 . S
C797 C796 1.387 . S
C797 C799 1.387 . S
H798 C805 0.950 . S
C799 C797 1.387 . S
C799 C801 1.390 . S
C799 H803 0.950 . S
H800 C796 0.950 . S
C801 C799 1.390 . S
C801 C802 1.387 . S
C801 H804 0.950 . S
C802 C801 1.387 . S
C802 C805 1.387 . S
H803 C799 0.950 . S
H804 C801 0.950 . S
C805 C796 1.390 . S
C805 H798 0.950 . S
C805 C802 1.387 . S
C806 C807 1.388 . S
C806 H810 0.950 . S
C806 C815 1.390 1_456 S
C807 C806 1.388 . S
C807 C809 1.387 1_565 S
H808 C815 0.950 . S
C809 C807 1.387 1_545 S
C809 C811 1.390 1_456 S
C809 H813 0.950 . S
H810 C806 0.950 . S
C811 C809 1.390 1_654 S
C811 C812 1.388 . S
C811 H814 0.950 . S
C812 C811 1.388 . S
C812 C815 1.387 1_545 S
H813 C809 0.950 . S
H814 C811 0.950 . S
C815 C806 1.390 1_654 S
C815 H808 0.950 . S
C815 C812 1.387 1_565 S
C816 C817 1.387 . S
C816 H820 0.950 . S
C816 C825 1.390 . S
C817 C816 1.387 . S
C817 C819 1.387 . S
H818 C825 0.950 . S
C819 C817 1.387 . S
C819 C821 1.390 . S
C819 H823 0.950 . S
H820 C816 0.950 . S
C821 C819 1.390 . S
C821 C822 1.387 . S
C821 H824 0.950 . S
C822 C821 1.387 . S
C822 C825 1.387 . S
H823 C819 0.950 . S
H824 C821 0.950 . S
C825 C816 1.390 . S
C825 H818 0.950 . S
C825 C822 1.387 . S
C826 C827 1.387 . S
C826 H830 0.950 . S
C826 C835 1.390 . S
C827 C826 1.387 . S
C827 C829 1.387 . S
H828 C835 0.950 . S
C829 C827 1.387 . S
C829 C831 1.390 . S
C829 H833 0.950 . S
H830 C826 0.950 . S
C831 C829 1.390 . S
C831 C832 1.387 . S
C831 H834 0.950 . S
C832 C831 1.387 . S
C832 C835 1.387 . S
H833 C829 0.950 . S
H834 C831 0.950 . S
C835 C826 1.390 . S
C835 H828 0.950 . S
C835 C832 1.387 . S
C836 C837 1.387 . S
C836 H840 0.950 . S
C836 C845 1.390 . S
C837 C836 1.387 . S
C837 C839 1.387 . S
H838 C845 0.950 . S
C839 C837 1.387 . S
C839 C841 1.390 . S
C839 H843 0.950 . S
H840 C836 0.950 . S
C841 C839 1.390 . S
C841 C842 1.387 . S
C841 H844 0.950 . S
C842 C841 1.387 . S
C842 C845 1.387 . S
H843 C839 0.950 . S
H844 C841 0.950 . S
C845 C836 1.390 . S
C845 H838 0.950 . S
C845 C842 1.387 . S
C846 C847 1.387 . S
C846 H850 0.950 . S
C846 C855 1.390 . S
C847 C846 1.387 . S
C847 C849 1.387 . S
H848 C855 0.950 . S
C849 C847 1.387 . S
C849 C851 1.390 . S
C849 H853 0.950 . S
H850 C846 0.950 . S
C851 C849 1.390 . S
C851 C852 1.387 . S
C851 H854 0.950 . S
C852 C851 1.387 . S
C852 C855 1.387 . S
H853 C849 0.950 . S
H854 C851 0.950 . S
C855 C846 1.390 . S
C855 H848 0.950 . S
C855 C852 1.387 . S
C856 C857 1.387 . S
C856 H860 0.950 . S
C856 C865 1.390 1_554 S
C857 C856 1.387 . S
C857 C859 1.387 . S
H858 C865 0.950 . S
C859 C857 1.387 . S
C859 C861 1.390 1_554 S
C859 H863 0.950 . S
H860 C856 0.950 . S
C861 C859 1.390 1_556 S
C861 C862 1.387 . S
C861 H864 0.950 . S
C862 C861 1.387 . S
C862 C865 1.387 . S
H863 C859 0.950 . S
H864 C861 0.950 . S
C865 C856 1.390 1_556 S
C865 H858 0.950 . S
C865 C862 1.387 . S
C866 C867 1.387 . S
C866 H870 0.950 . S
C866 C875 1.390 1_455 S
C867 C866 1.387 . S
C867 C869 1.387 . S
H868 C875 0.950 . S
C869 C867 1.387 . S
C869 C871 1.390 1_455 S
C869 H873 0.950 . S
H870 C866 0.950 . S
C871 C869 1.390 1_655 S
C871 C872 1.387 . S
C871 H874 0.950 . S
C872 C871 1.387 . S
C872 C875 1.387 . S
H873 C869 0.950 . S
H874 C871 0.950 . S
C875 C866 1.390 1_655 S
C875 H868 0.950 . S
C875 C872 1.387 . S
C876 C877 1.387 . S
C876 H880 0.950 . S
C876 C885 1.390 1_454 S
C877 C876 1.387 . S
C877 C879 1.387 . S
H878 C885 0.950 . S
C879 C877 1.387 . S
C879 C881 1.390 1_454 S
C879 H883 0.950 . S
H880 C876 0.950 . S
C881 C879 1.390 1_656 S
C881 C882 1.387 . S
C881 H884 0.950 . S
C882 C881 1.387 . S
C882 C885 1.387 . S
H883 C879 0.950 . S
H884 C881 0.950 . S
C885 C876 1.390 1_656 S
C885 H878 0.950 . S
C885 C882 1.387 . S
C886 C887 1.387 . S
C886 H890 0.950 . S
C886 C895 1.390 . S
C887 C886 1.387 . S
C887 C889 1.387 . S
H888 C895 0.950 . S
C889 C887 1.387 . S
C889 C891 1.390 . S
C889 H893 0.950 . S
H890 C886 0.950 . S
C891 C889 1.390 . S
C891 C892 1.387 . S
C891 H894 0.950 . S
C892 C891 1.387 . S
C892 C895 1.387 . S
H893 C889 0.950 . S
H894 C891 0.950 . S
C895 C886 1.390 . S
C895 H888 0.950 . S
C895 C892 1.387 . S
C896 C897 1.387 . S
C896 H900 0.950 . S
C896 C905 1.390 1_545 S
C897 C896 1.387 . S
C897 C899 1.387 . S
H898 C905 0.950 . S
C899 C897 1.387 . S
C899 C901 1.390 1_545 S
C899 H903 0.950 . S
H900 C896 0.950 . S
C901 C899 1.390 1_565 S
C901 C902 1.387 . S
C901 H904 0.950 . S
C902 C901 1.387 . S
C902 C905 1.387 . S
H903 C899 0.950 . S
H904 C901 0.950 . S
C905 C896 1.390 1_565 S
C905 H898 0.950 . S
C905 C902 1.387 . S
C906 C907 1.387 . S
C906 H910 0.950 . S
C906 C915 1.390 . S
C907 C906 1.387 . S
C907 C909 1.387 . S
H908 C915 0.950 . S
C909 C907 1.387 . S
C909 C911 1.390 . S
C909 H913 0.950 . S
H910 C906 0.950 . S
C911 C909 1.390 . S
C911 C912 1.387 . S
C911 H914 0.950 . S
C912 C911 1.387 . S
C912 C915 1.387 . S
H913 C909 0.950 . S
H914 C911 0.950 . S
C915 C906 1.390 . S
C915 H908 0.950 . S
C915 C912 1.387 . S
C916 C917 1.387 . S
C916 H920 0.950 . S
C916 C925 1.390 1_545 S
C917 C916 1.387 . S
C917 C919 1.387 . S
H918 C925 0.950 . S
C919 C917 1.387 . S
C919 C921 1.390 1_545 S
C919 H923 0.950 . S
H920 C916 0.950 . S
C921 C919 1.390 1_565 S
C921 C922 1.387 . S
C921 H924 0.950 . S
C922 C921 1.387 . S
C922 C925 1.387 . S
H923 C919 0.950 . S
H924 C921 0.950 . S
C925 C916 1.390 1_565 S
C925 H918 0.950 . S
C925 C922 1.387 . S
C926 C927 1.387 . S
C926 H930 0.950 . S
C926 C935 1.390 1_554 S
C927 C926 1.387 . S
C927 C929 1.387 . S
H928 C935 0.950 . S
C929 C927 1.387 . S
C929 C931 1.390 1_554 S
C929 H933 0.950 . S
H930 C926 0.950 . S
C931 C929 1.390 1_556 S
C931 C932 1.387 . S
C931 H934 0.950 . S
C932 C931 1.387 . S
C932 C935 1.387 . S
H933 C929 0.950 . S
H934 C931 0.950 . S
C935 C926 1.390 1_556 S
C935 H928 0.950 . S
C935 C932 1.387 . S
C936 C937 1.387 . S
C936 H940 0.950 . S
C936 C945 1.390 1_545 S
C937 C936 1.387 . S
C937 C939 1.387 . S
H938 C945 0.950 . S
C939 C937 1.387 . S
C939 C941 1.390 1_545 S
C939 H943 0.950 . S
H940 C936 0.950 . S
C941 C939 1.390 1_565 S
C941 C942 1.387 . S
C941 H944 0.950 . S
C942 C941 1.387 . S
C942 C945 1.387 . S
H943 C939 0.950 . S
H944 C941 0.950 . S
C945 C936 1.390 1_565 S
C945 H938 0.950 . S
C945 C942 1.387 . S
C946 C947 1.387 . S
C946 H950 0.950 . S
C946 C955 1.390 . S
C947 C946 1.387 . S
C947 C949 1.387 . S
H948 C955 0.950 . S
C949 C947 1.387 . S
C949 C951 1.390 . S
C949 H953 0.950 . S
H950 C946 0.950 . S
C951 C949 1.390 . S
C951 C952 1.387 . S
C951 H954 0.950 . S
C952 C951 1.387 . S
C952 C955 1.387 . S
H953 C949 0.950 . S
H954 C951 0.950 . S
C955 C946 1.390 . S
C955 H948 0.950 . S
C955 C952 1.387 . S
C956 C957 1.387 . S
C956 H960 0.950 . S
C956 C965 1.390 1_545 S
C957 C956 1.387 . S
C957 C959 1.387 . S
H958 C965 0.950 . S
C959 C957 1.387 . S
C959 C961 1.390 1_545 S
C959 H963 0.950 . S
H960 C956 0.950 . S
C961 C959 1.390 1_565 S
C961 C962 1.387 . S
C961 H964 0.950 . S
C962 C961 1.387 . S
C962 C965 1.387 . S
H963 C959 0.950 . S
H964 C961 0.950 . S
C965 C956 1.390 1_565 S
C965 H958 0.950 . S
C965 C962 1.387 . S
C966 C967 1.387 . S
C966 H970 0.950 . S
C966 C975 1.390 1_556 S
C967 C966 1.387 . S
C967 C969 1.387 . S
H968 C975 0.950 . S
C969 C967 1.387 . S
C969 C971 1.390 1_556 S
C969 H973 0.950 . S
H970 C966 0.950 . S
C971 C969 1.390 1_554 S
C971 C972 1.387 . S
C971 H974 0.950 . S
C972 C971 1.387 . S
C972 C975 1.387 . S
H973 C969 0.950 . S
H974 C971 0.950 . S
C975 C966 1.390 1_554 S
C975 H968 0.950 . S
C975 C972 1.387 . S
C976 C977 1.387 . S
C976 H980 0.950 . S
C976 C985 1.390 . S
C977 C976 1.387 . S
C977 C979 1.387 . S
H978 C985 0.950 . S
C979 C977 1.387 . S
C979 C981 1.390 . S
C979 H983 0.950 . S
H980 C976 0.950 . S
C981 C979 1.390 . S
C981 C982 1.387 . S
C981 H984 0.950 . S
C982 C981 1.387 . S
C982 C985 1.387 . S
H983 C979 0.950 . S
H984 C981 0.950 . S
C985 C976 1.390 . S
C985 H978 0.950 . S
C985 C982 1.387 . S
C986 C987 1.387 . S
C986 H990 0.950 . S
C986 C995 1.390 1_556 S
C987 C986 1.387 . S
C987 C989 1.387 . S
H988 C995 0.950 . S
C989 C987 1.387 . S
C989 C991 1.390 1_556 S
C989 H993 0.950 . S
H990 C986 0.950 . S
C991 C989 1.390 1_554 S
C991 C992 1.387 . S
C991 H994 0.950 . S
C992 C991 1.387 . S
C992 C995 1.387 . S
H993 C989 0.950 . S
H994 C991 0.950 . S
C995 C986 1.390 1_554 S
C995 H988 0.950 . S
C995 C992 1.387 . S
C996 C997 1.387 . S
C996 H1000 0.950 . S
C996 C1005 1.390 . S
C997 C996 1.387 . S
C997 C999 1.387 . S
H998 C1005 0.950 . S
C999 C997 1.387 . S
C999 C1001 1.390 . S
C999 H1003 0.950 . S
H1000 C996 0.950 . S
C1001 C999 1.390 . S
C1001 C1002 1.387 . S
C1001 H1004 0.950 . S
C1002 C1001 1.387 . S
C1002 C1005 1.387 . S
H1003 C999 0.950 . S
H1004 C1001 0.950 . S
C1005 C996 1.390 . S
C1005 H998 0.950 . S
C1005 C1002 1.387 . S
C1006 C1007 1.387 . S
C1006 H1010 0.950 . S
C1006 C1015 1.390 . S
C1007 C1006 1.387 . S
C1007 C1009 1.387 . S
H1008 C1015 0.950 . S
C1009 C1007 1.387 . S
C1009 C1011 1.390 . S
C1009 H1013 0.950 . S
H1010 C1006 0.950 . S
C1011 C1009 1.390 . S
C1011 C1012 1.387 . S
C1011 H1014 0.950 . S
C1012 C1011 1.387 . S
C1012 C1015 1.387 . S
H1013 C1009 0.950 . S
H1014 C1011 0.950 . S
C1015 C1006 1.390 . S
C1015 H1008 0.950 . S
C1015 C1012 1.387 . S
C1016 C1017 1.387 . S
C1016 H1020 0.950 . S
C1016 C1025 1.390 . S
C1017 C1016 1.387 . S
C1017 C1019 1.387 . S
H1018 C1025 0.950 . S
C1019 C1017 1.387 . S
C1019 C1021 1.390 . S
C1019 H1023 0.950 . S
H1020 C1016 0.950 . S
C1021 C1019 1.390 . S
C1021 C1022 1.387 . S
C1021 H1024 0.950 . S
C1022 C1021 1.387 . S
C1022 C1025 1.387 . S
H1023 C1019 0.950 . S
H1024 C1021 0.950 . S
C1025 C1016 1.390 . S
C1025 H1018 0.950 . S
C1025 C1022 1.387 . S
C1026 C1027 1.387 . S
C1026 H1030 0.950 . S
C1026 C1035 1.390 1_556 S
C1027 C1026 1.387 . S
C1027 C1029 1.387 . S
H1028 C1035 0.950 . S
C1029 C1027 1.387 . S
C1029 C1031 1.390 1_556 S
C1029 H1033 0.950 . S
H1030 C1026 0.950 . S
C1031 C1029 1.390 1_554 S
C1031 C1032 1.387 . S
C1031 H1034 0.950 . S
C1032 C1031 1.387 . S
C1032 C1035 1.387 . S
H1033 C1029 0.950 . S
H1034 C1031 0.950 . S
C1035 C1026 1.390 1_554 S
C1035 H1028 0.950 . S
C1035 C1032 1.387 . S
C1036 C1037 1.387 . S
C1036 H1040 0.950 . S
C1036 C1045 1.390 . S
C1037 C1036 1.387 . S
C1037 C1039 1.387 . S
H1038 C1045 0.950 . S
C1039 C1037 1.387 . S
C1039 C1041 1.390 . S
C1039 H1043 0.950 . S
H1040 C1036 0.950 . S
C1041 C1039 1.390 . S
C1041 C1042 1.387 . S
C1041 H1044 0.950 . S
C1042 C1041 1.387 . S
C1042 C1045 1.387 . S
H1043 C1039 0.950 . S
H1044 C1041 0.950 . S
C1045 C1036 1.390 . S
C1045 H1038 0.950 . S
C1045 C1042 1.387 . S
C1046 C1047 1.387 . S
C1046 H1050 0.950 . S
C1046 C1055 1.390 . S
C1047 C1046 1.387 . S
C1047 C1049 1.387 . S
H1048 C1055 0.950 . S
C1049 C1047 1.387 . S
C1049 C1051 1.390 . S
C1049 H1053 0.950 . S
H1050 C1046 0.950 . S
C1051 C1049 1.390 . S
C1051 C1052 1.387 . S
C1051 H1054 0.950 . S
C1052 C1051 1.387 . S
C1052 C1055 1.387 . S
H1053 C1049 0.950 . S
H1054 C1051 0.950 . S
C1055 C1046 1.390 . S
C1055 H1048 0.950 . S
C1055 C1052 1.387 . S
C417 C361 1.500 . S
C422 C10 1.576 . S
C427 C23 1.577 1_655 S
C432 C105 1.577 . S
C437 C335 1.497 . S
C442 C36 1.577 . S
C447 C49 1.576 . S
C452 C131 1.575 . S
C457 C62 1.577 . S
C462 C387 1.498 . S
C467 C75 1.575 . S
C472 C183 1.575 . S
C477 C88 1.576 . S
C482 C413 1.500 . S
C487 C101 1.575 1_655 S
C492 C157 1.575 . S
C497 C248 1.497 . S
C502 C114 1.607 . S
C507 C1 1.500 . S
C512 C118 1.577 1_455 S
C517 C222 1.500 . S
C522 C140 1.608 . S
C527 C144 1.577 . S
C532 C27 1.500 . S
C537 C274 1.498 . S
C542 C166 1.608 . S
C547 C79 1.497 . S
C552 C170 1.575 . S
C557 C192 1.608 . S
C562 C300 1.500 . S
C567 C53 1.497 . S
C572 C196 1.576 1_455 S
C577 C218 1.576 . S
C582 C153 1.500 . S
C587 C231 1.575 . S
C592 C313 1.575 . S
C597 C127 1.496 . S
C602 C244 1.576 . S
C607 C339 1.577 . S
C612 C257 1.577 1_455 S
C617 C179 1.500 . S
C622 C270 1.577 . S
C627 C391 1.575 . S
C632 C283 1.575 1_455 S
C637 C205 1.500 . S
C642 C296 1.576 . S
C647 C309 1.577 . S
C652 C365 1.577 . S
C657 C40 1.496 . S
C662 C322 1.607 . S
C667 C326 1.577 . S
C672 C209 1.500 . S
C677 C348 1.608 . S
C682 C14 1.501 . S
C687 C352 1.577 1_655 S
C692 C235 1.500 . S
C697 C374 1.607 . S
C702 C66 1.496 . S
C707 C378 1.575 1_655 S
C712 C287 1.498 . S
C717 C400 1.608 . S
C722 C92 1.498 . S
C727 C404 1.577 . S
C732 C261 1.500 . S
C737 C315 1.835 . S
C742 C3 1.689 . S
C747 C16 1.689 1_545 S
C752 C122 1.689 1_565 S
C757 C341 1.835 . S
C762 C29 1.689 . S
C767 C42 1.689 1_565 S
C772 C148 1.689 1_545 S
C777 C367 1.835 . S
C782 C55 1.689 . S
C787 C68 1.689 1_545 S
C792 C174 1.689 1_565 S
C797 C393 1.836 . S
C802 C81 1.689 . S
C807 C94 1.689 1_565 S
C812 C200 1.689 1_545 S
C817 C107 1.836 . S
C822 C211 1.689 . S
C827 C133 1.836 . S
C832 C237 1.689 . S
C837 C159 1.836 . S
C842 C263 1.689 . S
C847 C185 1.835 . S
C852 C289 1.689 . S
C857 C224 1.689 . S
C862 C330 1.689 . S
C867 C356 1.689 . S
C872 C250 1.689 . S
C877 C382 1.689 . S
C882 C276 1.689 . S
C887 C302 1.689 . S
C892 C408 1.689 . S
C897 C5 1.840 . S
C902 C57 1.840 . S
C907 C18 1.842 . S
C912 C70 1.842 . S
C917 C83 1.842 . S
C922 C31 1.842 . S
C927 C44 1.842 . S
C932 C96 1.842 . S
C937 C161 1.890 . S
C942 C109 1.890 . S
C947 C172 1.842 . S
C952 C120 1.842 . S
C957 C135 1.890 . S
C962 C187 1.890 . S
C967 C146 1.842 . S
C972 C198 1.842 . S
C977 C265 1.842 . S
C982 C213 1.842 . S
C987 C278 1.842 . S
C992 C226 1.842 . S
C997 C239 1.842 . S
C1002 C291 1.842 . S
C1007 C304 1.840 . S
C1012 C252 1.840 . S
C1017 C369 1.890 . S
C1022 C317 1.890 . S
C1027 C328 1.842 . S
C1032 C380 1.842 . S
C1037 C395 1.889 . S
C1042 C343 1.889 . S
C1047 C354 1.842 . S
C1052 C406 1.842 . S
