# Generated by pormake.
# Topology umr, (4)-cn, num edge types: 1
# Building blocks:
#     Node 0, Type 0, BuildingBlock: QUQFOY_clean_sbu_3, # of connection points: 4
#     Node 1, Type 0, BuildingBlock: QUQFOY_clean_sbu_3, # of connection points: 4
#     Node 2, Type 0, BuildingBlock: QUQFOY_clean_sbu_3, # of connection points: 4
#     Node 3, Type 0, BuildingBlock: QUQFOY_clean_sbu_3, # of connection points: 4
#     Node 4, Type 0, BuildingBlock: QUQFOY_clean_sbu_3, # of connection points: 4
#     Node 5, Type 0, BuildingBlock: QUQFOY_clean_sbu_3, # of connection points: 4
#     Node 6, Type 0, BuildingBlock: QUQFOY_clean_sbu_3, # of connection points: 4
#     Node 7, Type 0, BuildingBlock: QUQFOY_clean_sbu_3, # of connection points: 4
#     Node 8, Type 0, BuildingBlock: QUQFOY_clean_sbu_3, # of connection points: 4
#     Node 9, Type 0, BuildingBlock: QUQFOY_clean_sbu_3, # of connection points: 4
#     Node 10, Type 0, BuildingBlock: QUQFOY_clean_sbu_3, # of connection points: 4
#     Node 11, Type 0, BuildingBlock: QUQFOY_clean_sbu_3, # of connection points: 4
#     Node 12, Type 0, BuildingBlock: QUQFOY_clean_sbu_3, # of connection points: 4
#     Node 13, Type 0, BuildingBlock: QUQFOY_clean_sbu_3, # of connection points: 4
#     Node 14, Type 0, BuildingBlock: QUQFOY_clean_sbu_3, # of connection points: 4
#     Node 15, Type 0, BuildingBlock: QUQFOY_clean_sbu_3, # of connection points: 4
#     Node 16, Type 0, BuildingBlock: QUQFOY_clean_sbu_3, # of connection points: 4
#     Node 17, Type 0, BuildingBlock: QUQFOY_clean_sbu_3, # of connection points: 4
#     Node 18, Type 0, BuildingBlock: QUQFOY_clean_sbu_3, # of connection points: 4
#     Node 19, Type 0, BuildingBlock: QUQFOY_clean_sbu_3, # of connection points: 4
#     Node 20, Type 0, BuildingBlock: QUQFOY_clean_sbu_3, # of connection points: 4
#     Node 21, Type 0, BuildingBlock: QUQFOY_clean_sbu_3, # of connection points: 4
#     Node 22, Type 0, BuildingBlock: QUQFOY_clean_sbu_3, # of connection points: 4
#     Node 23, Type 0, BuildingBlock: QUQFOY_clean_sbu_3, # of connection points: 4
#     Node 24, Type 0, BuildingBlock: QUQFOY_clean_sbu_3, # of connection points: 4
#     Node 25, Type 0, BuildingBlock: QUQFOY_clean_sbu_3, # of connection points: 4
#     Node 26, Type 0, BuildingBlock: QUQFOY_clean_sbu_3, # of connection points: 4
#     Node 27, Type 0, BuildingBlock: QUQFOY_clean_sbu_3, # of connection points: 4
#     Node 28, Type 0, BuildingBlock: QUQFOY_clean_sbu_3, # of connection points: 4
#     Node 29, Type 0, BuildingBlock: QUQFOY_clean_sbu_3, # of connection points: 4
#     Node 30, Type 0, BuildingBlock: QUQFOY_clean_sbu_3, # of connection points: 4
#     Node 31, Type 0, BuildingBlock: QUQFOY_clean_sbu_3, # of connection points: 4
#     Edge 32, Type (0, 0), BuildingBlock: OJICUG_clean_linker_0, # of connection points: 2
#     Edge 33, Type (0, 0), BuildingBlock: OJICUG_clean_linker_0, # of connection points: 2
#     Edge 34, Type (0, 0), BuildingBlock: OJICUG_clean_linker_0, # of connection points: 2
#     Edge 35, Type (0, 0), BuildingBlock: OJICUG_clean_linker_0, # of connection points: 2
#     Edge 36, Type (0, 0), BuildingBlock: OJICUG_clean_linker_0, # of connection points: 2
#     Edge 37, Type (0, 0), BuildingBlock: OJICUG_clean_linker_0, # of connection points: 2
#     Edge 38, Type (0, 0), BuildingBlock: OJICUG_clean_linker_0, # of connection points: 2
#     Edge 39, Type (0, 0), BuildingBlock: OJICUG_clean_linker_0, # of connection points: 2
#     Edge 40, Type (0, 0), BuildingBlock: OJICUG_clean_linker_0, # of connection points: 2
#     Edge 41, Type (0, 0), BuildingBlock: OJICUG_clean_linker_0, # of connection points: 2
#     Edge 42, Type (0, 0), BuildingBlock: OJICUG_clean_linker_0, # of connection points: 2
#     Edge 43, Type (0, 0), BuildingBlock: OJICUG_clean_linker_0, # of connection points: 2
#     Edge 44, Type (0, 0), BuildingBlock: OJICUG_clean_linker_0, # of connection points: 2
#     Edge 45, Type (0, 0), BuildingBlock: OJICUG_clean_linker_0, # of connection points: 2
#     Edge 46, Type (0, 0), BuildingBlock: OJICUG_clean_linker_0, # of connection points: 2
#     Edge 47, Type (0, 0), BuildingBlock: OJICUG_clean_linker_0, # of connection points: 2
#     Edge 48, Type (0, 0), BuildingBlock: OJICUG_clean_linker_0, # of connection points: 2
#     Edge 49, Type (0, 0), BuildingBlock: OJICUG_clean_linker_0, # of connection points: 2
#     Edge 50, Type (0, 0), BuildingBlock: OJICUG_clean_linker_0, # of connection points: 2
#     Edge 51, Type (0, 0), BuildingBlock: OJICUG_clean_linker_0, # of connection points: 2
#     Edge 52, Type (0, 0), BuildingBlock: OJICUG_clean_linker_0, # of connection points: 2
#     Edge 53, Type (0, 0), BuildingBlock: OJICUG_clean_linker_0, # of connection points: 2
#     Edge 54, Type (0, 0), BuildingBlock: OJICUG_clean_linker_0, # of connection points: 2
#     Edge 55, Type (0, 0), BuildingBlock: OJICUG_clean_linker_0, # of connection points: 2
#     Edge 56, Type (0, 0), BuildingBlock: OJICUG_clean_linker_0, # of connection points: 2
#     Edge 57, Type (0, 0), BuildingBlock: OJICUG_clean_linker_0, # of connection points: 2
#     Edge 58, Type (0, 0), BuildingBlock: OJICUG_clean_linker_0, # of connection points: 2
#     Edge 59, Type (0, 0), BuildingBlock: OJICUG_clean_linker_0, # of connection points: 2
#     Edge 60, Type (0, 0), BuildingBlock: OJICUG_clean_linker_0, # of connection points: 2
#     Edge 61, Type (0, 0), BuildingBlock: OJICUG_clean_linker_0, # of connection points: 2
#     Edge 62, Type (0, 0), BuildingBlock: OJICUG_clean_linker_0, # of connection points: 2
#     Edge 63, Type (0, 0), BuildingBlock: OJICUG_clean_linker_0, # of connection points: 2
#     Edge 64, Type (0, 0), BuildingBlock: OJICUG_clean_linker_0, # of connection points: 2
#     Edge 65, Type (0, 0), BuildingBlock: OJICUG_clean_linker_0, # of connection points: 2
#     Edge 66, Type (0, 0), BuildingBlock: OJICUG_clean_linker_0, # of connection points: 2
#     Edge 67, Type (0, 0), BuildingBlock: OJICUG_clean_linker_0, # of connection points: 2
#     Edge 68, Type (0, 0), BuildingBlock: OJICUG_clean_linker_0, # of connection points: 2
#     Edge 69, Type (0, 0), BuildingBlock: OJICUG_clean_linker_0, # of connection points: 2
#     Edge 70, Type (0, 0), BuildingBlock: OJICUG_clean_linker_0, # of connection points: 2
#     Edge 71, Type (0, 0), BuildingBlock: OJICUG_clean_linker_0, # of connection points: 2
#     Edge 72, Type (0, 0), BuildingBlock: OJICUG_clean_linker_0, # of connection points: 2
#     Edge 73, Type (0, 0), BuildingBlock: OJICUG_clean_linker_0, # of connection points: 2
#     Edge 74, Type (0, 0), BuildingBlock: OJICUG_clean_linker_0, # of connection points: 2
#     Edge 75, Type (0, 0), BuildingBlock: OJICUG_clean_linker_0, # of connection points: 2
#     Edge 76, Type (0, 0), BuildingBlock: OJICUG_clean_linker_0, # of connection points: 2
#     Edge 77, Type (0, 0), BuildingBlock: OJICUG_clean_linker_0, # of connection points: 2
#     Edge 78, Type (0, 0), BuildingBlock: OJICUG_clean_linker_0, # of connection points: 2
#     Edge 79, Type (0, 0), BuildingBlock: OJICUG_clean_linker_0, # of connection points: 2
#     Edge 80, Type (0, 0), BuildingBlock: OJICUG_clean_linker_0, # of connection points: 2
#     Edge 81, Type (0, 0), BuildingBlock: OJICUG_clean_linker_0, # of connection points: 2
#     Edge 82, Type (0, 0), BuildingBlock: OJICUG_clean_linker_0, # of connection points: 2
#     Edge 83, Type (0, 0), BuildingBlock: OJICUG_clean_linker_0, # of connection points: 2
#     Edge 84, Type (0, 0), BuildingBlock: OJICUG_clean_linker_0, # of connection points: 2
#     Edge 85, Type (0, 0), BuildingBlock: OJICUG_clean_linker_0, # of connection points: 2
#     Edge 86, Type (0, 0), BuildingBlock: OJICUG_clean_linker_0, # of connection points: 2
#     Edge 87, Type (0, 0), BuildingBlock: OJICUG_clean_linker_0, # of connection points: 2
#     Edge 88, Type (0, 0), BuildingBlock: OJICUG_clean_linker_0, # of connection points: 2
#     Edge 89, Type (0, 0), BuildingBlock: OJICUG_clean_linker_0, # of connection points: 2
#     Edge 90, Type (0, 0), BuildingBlock: OJICUG_clean_linker_0, # of connection points: 2
#     Edge 91, Type (0, 0), BuildingBlock: OJICUG_clean_linker_0, # of connection points: 2
#     Edge 92, Type (0, 0), BuildingBlock: OJICUG_clean_linker_0, # of connection points: 2
#     Edge 93, Type (0, 0), BuildingBlock: OJICUG_clean_linker_0, # of connection points: 2
#     Edge 94, Type (0, 0), BuildingBlock: OJICUG_clean_linker_0, # of connection points: 2
#     Edge 95, Type (0, 0), BuildingBlock: OJICUG_clean_linker_0, # of connection points: 2
# Relax obj value: 0.086
# Max RMSD: 0.108
# Mean RMSD: 0.108
data_MOF--net-umr--node1-QUQFOY_clean_sbu_3--edge1-OJICUG_clean_linker_0
_symmetry_space_group_name_H-M    P1
_symmetry_Int_Tables_number       1
_symmetry_cell_setting            triclinic
loop_
_symmetry_equiv_pos_as_xyz
'x, y, z'
_cell_length_a     63.986994
_cell_length_b     63.747259
_cell_length_c     20.308242
_cell_angle_alpha  90.049183
_cell_angle_beta   89.942388
_cell_angle_gamma 89.997337
loop_
_atom_site_label
_atom_site_type_symbol
_atom_site_fract_x
_atom_site_fract_y
_atom_site_fract_z
_atom_type_partial_charge
C0 C 0.15391 0.23698 0.02846 0.0
O1 O 0.16012 0.22482 0.07387 0.0
Cd2 Cd 0.17608 0.24008 0.16745 0.0
O3 O 0.15309 0.25679 0.0377 0.0
Cd4 Cd 0.1585 0.28447 0.1224 0.0
C5 C 0.20695 0.274 0.07283 0.0
O6 O 0.14982 0.26227 0.21356 0.0
O7 O 0.1669 0.2902 0.23969 0.0
O8 O 0.12365 0.29739 0.09996 0.0
C9 C 0.15639 0.27438 0.25828 0.0
O10 O 0.20398 0.25707 0.10481 0.0
C11 C 0.12853 0.31669 0.10114 0.0
O12 O 0.19307 0.28828 0.07212 0.0
O13 O 0.14776 0.32107 0.10859 0.0
C14 C -0.00346 0.90602 0.27939 0.0
O15 O 0.00859 0.91243 0.32479 0.0
Cd16 Cd -0.00658 0.92815 0.41906 0.0
O17 O 0.97682 0.90495 0.28864 0.0
Cd18 Cd 0.94927 0.91022 0.37367 0.0
C19 C 0.95936 0.95915 0.3258 0.0
O20 O 0.97152 0.90155 0.46455 0.0
O21 O 0.94355 0.91843 0.49102 0.0
O22 O 0.93634 0.87526 0.35079 0.0
C23 C 0.95939 0.90797 0.50941 0.0
O24 O 0.97623 0.9563 0.35786 0.0
C25 C 0.91712 0.88024 0.35202 0.0
O26 O 0.94534 0.94501 0.32434 0.0
O27 O 0.91282 0.89955 0.35969 0.0
C28 C 0.32768 0.74789 0.5276 0.0
O29 O 0.32148 0.76007 0.57312 0.0
Cd30 Cd 0.3053 0.74473 0.66619 0.0
O31 O 0.32846 0.72808 0.53672 0.0
Cd32 Cd 0.323 0.70036 0.62144 0.0
C33 C 0.27474 0.71079 0.57055 0.0
O34 O 0.33144 0.72265 0.71267 0.0
O35 O 0.31424 0.69473 0.7384 0.0
O36 O 0.35794 0.68755 0.59956 0.0
C37 C 0.32478 0.71051 0.75719 0.0
O38 O 0.27764 0.72774 0.60251 0.0
C39 C 0.3531 0.66824 0.60085 0.0
O40 O 0.28857 0.69646 0.57034 0.0
O41 O 0.33386 0.66382 0.60792 0.0
C42 C 0.48444 0.07907 0.78113 0.0
O43 O 0.47238 0.07271 0.82662 0.0
Cd44 Cd 0.48769 0.05683 0.9202 0.0
O45 O 0.50417 0.08005 0.79023 0.0
Cd46 Cd 0.5318 0.07476 0.87491 0.0
C47 C 0.52164 0.026 0.82553 0.0
O48 O 0.50957 0.08332 0.96615 0.0
O49 O 0.53755 0.06635 -0.00799 0.0
O50 O 0.54461 0.10977 0.85223 0.0
C51 C 0.52173 0.07682 0.01072 0.0
O52 O 0.50476 0.02884 0.85768 0.0
C53 C 0.56383 0.10484 0.85311 0.0
O54 O 0.53574 0.04007 0.82463 0.0
O55 O 0.56819 0.08554 0.86055 0.0
C56 C 0.15514 0.74865 0.42324 0.0
O57 O 0.16163 0.76074 0.37797 0.0
Cd58 Cd 0.17754 0.7455 0.28419 0.0
O59 O 0.15409 0.72885 0.41395 0.0
Cd60 Cd 0.15951 0.70121 0.32881 0.0
C61 C 0.20807 0.71123 0.37841 0.0
O62 O 0.15108 0.72368 0.23804 0.0
O63 O 0.168 0.69562 0.21164 0.0
O64 O 0.12458 0.68831 0.35059 0.0
C65 C 0.15754 0.71149 0.19326 0.0
O66 O 0.20532 0.72819 0.34641 0.0
C67 C 0.12945 0.66901 0.34875 0.0
O68 O 0.19401 0.69713 0.37922 0.0
O69 O 0.1487 0.66464 0.34155 0.0
C70 C 0.48527 0.90545 0.67706 0.0
O71 O 0.47313 0.91174 0.63178 0.0
Cd72 Cd 0.48817 0.92804 0.53849 0.0
O73 O 0.50501 0.9047 0.66779 0.0
Cd74 Cd 0.5325 0.91047 0.58264 0.0
C75 C 0.52191 0.95894 0.63354 0.0
O76 O 0.5102 0.90179 0.49189 0.0
O77 O 0.53791 0.91915 0.46556 0.0
O78 O 0.54575 0.87554 0.60401 0.0
C79 C 0.52223 0.90845 0.44713 0.0
O80 O 0.50501 0.95596 0.60177 0.0
C81 C 0.56492 0.88065 0.60206 0.0
O82 O 0.53621 0.94508 0.63363 0.0
O83 O 0.56906 0.90002 0.59504 0.0
C84 C 0.32694 0.23635 0.92509 0.0
O85 O 0.32054 0.22423 0.87973 0.0
Cd86 Cd 0.30449 0.2395 0.78645 0.0
O87 O 0.32788 0.25615 0.91597 0.0
Cd88 Cd 0.32238 0.28379 0.83104 0.0
C89 C 0.27392 0.27364 0.88133 0.0
O90 O 0.33081 0.26142 0.73989 0.0
O91 O 0.31374 0.28939 0.71395 0.0
O92 O 0.3573 0.29676 0.85247 0.0
C93 C 0.32423 0.27356 0.69529 0.0
O94 O 0.27674 0.25667 0.84937 0.0
C95 C 0.35239 0.31605 0.85085 0.0
O96 O 0.2879 0.28783 0.88183 0.0
O97 O 0.33313 0.32039 0.84393 0.0
C98 C -0.00459 0.08009 0.17821 0.0
O99 O 0.00758 0.07387 0.13281 0.0
Cd100 Cd -0.00739 0.05738 0.03979 0.0
O101 O 0.97567 0.08073 0.16908 0.0
Cd102 Cd 0.94822 0.07486 0.08397 0.0
C103 C 0.95891 0.02651 0.13517 0.0
O104 O 0.97053 0.0835 -0.00688 0.0
O105 O 0.94291 0.06597 0.96699 0.0
O106 O 0.93494 0.1098 0.10496 0.0
C107 C 0.95855 0.07672 0.94844 0.0
O108 O 0.97582 0.02954 0.10345 0.0
C109 C 0.91577 0.10471 0.10286 0.0
O110 O 0.94452 0.04029 0.13512 0.0
O111 O 0.91164 0.08532 0.09608 0.0
C112 C 0.82839 0.74793 0.91979 0.0
O113 O 0.82218 0.76011 0.8744 0.0
Cd114 Cd 0.80587 0.74485 0.78146 0.0
O115 O 0.82911 0.72812 0.91059 0.0
Cd116 Cd 0.8235 0.70043 0.82565 0.0
C117 C 0.77526 0.71093 0.877 0.0
O118 O 0.83193 0.72272 0.73444 0.0
O119 O 0.81463 0.69485 0.70876 0.0
O120 O 0.85842 0.68752 0.84686 0.0
C121 C 0.82519 0.71061 0.68993 0.0
O122 O 0.77819 0.72789 0.84519 0.0
C123 C 0.85353 0.66822 0.84549 0.0
O124 O 0.78907 0.69657 0.87698 0.0
O125 O 0.83427 0.66386 0.8387 0.0
C126 C 0.98446 0.07963 0.6782 0.0
O127 O 0.97239 0.07326 0.63281 0.0
Cd128 Cd 0.98754 0.05738 0.53888 0.0
O129 O 0.00418 0.08063 0.66895 0.0
Cd130 Cd 0.03167 0.07525 0.58373 0.0
C131 C 0.02152 0.02646 0.63257 0.0
O132 O 0.00936 0.08396 0.49304 0.0
O133 O 0.03721 0.06688 0.46632 0.0
O134 O 0.04481 0.11019 0.60593 0.0
C135 C 0.02143 0.07745 0.44812 0.0
O136 O 0.00462 0.02933 0.60071 0.0
C137 C 0.064 0.10514 0.60406 0.0
O138 O 0.03562 0.04052 0.63349 0.0
O139 O 0.06819 0.08579 0.59664 0.0
C140 C 0.65304 0.2374 0.41912 0.0
O141 O 0.65936 0.22523 0.37374 0.0
Cd142 Cd 0.67564 0.24041 0.28057 0.0
O143 O 0.65228 0.25721 0.41001 0.0
Cd144 Cd 0.65799 0.28483 0.32522 0.0
C145 C 0.70631 0.2744 0.37563 0.0
O146 O 0.64949 0.26256 0.23401 0.0
O147 O 0.66668 0.29043 0.20803 0.0
O148 O 0.62309 0.29783 0.34677 0.0
C149 C 0.65616 0.27462 0.18935 0.0
O150 O 0.70338 0.25743 0.34375 0.0
C151 C 0.628 0.31712 0.34541 0.0
O152 O 0.69245 0.28871 0.37599 0.0
O153 O 0.64726 0.32146 0.33841 0.0
C154 C 0.49636 0.90537 0.177 0.0
O155 O 0.50846 0.91171 0.13157 0.0
Cd156 Cd 0.49333 0.92778 0.0381 0.0
O157 O 0.47663 0.90444 0.16786 0.0
Cd158 Cd 0.44909 0.90987 0.08291 0.0
C159 C 0.45931 0.95849 0.1331 0.0
O160 O 0.47144 0.90134 -0.00803 0.0
O161 O 0.44356 0.91844 0.9659 0.0
O162 O 0.43606 0.87487 0.10458 0.0
C163 C 0.45934 0.9079 0.94732 0.0
O164 O 0.47622 0.95564 0.10114 0.0
C165 C 0.41686 0.87989 0.10303 0.0
O166 O 0.44515 0.94449 0.13357 0.0
O167 O 0.41262 0.89923 0.09598 0.0
C168 C 0.82604 0.23679 0.52105 0.0
O169 O 0.81972 0.22468 0.5665 0.0
Cd170 Cd 0.80401 0.23998 0.66052 0.0
O171 O 0.8271 0.25659 0.53033 0.0
Cd172 Cd 0.82196 0.28428 0.61535 0.0
C173 C 0.77334 0.27423 0.56653 0.0
O174 O 0.8305 0.26188 0.70615 0.0
O175 O 0.81363 0.28994 0.73258 0.0
O176 O 0.8569 0.29701 0.59282 0.0
C177 C 0.82408 0.27404 0.75098 0.0
O178 O 0.77618 0.25729 0.59856 0.0
C179 C 0.85213 0.31634 0.5946 0.0
O180 O 0.78738 0.28836 0.56544 0.0
O181 O 0.83292 0.32081 0.60216 0.0
C182 C 0.49578 0.07902 0.28106 0.0
O183 O 0.5079 0.07272 0.32638 0.0
Cd184 Cd 0.49277 0.05655 0.41985 0.0
O185 O 0.47604 0.0798 0.29031 0.0
Cd186 Cd 0.44849 0.07414 0.37524 0.0
C187 C 0.45905 0.02555 0.32512 0.0
O188 O 0.47069 0.08282 0.46624 0.0
O189 O 0.44289 0.06557 0.49234 0.0
O190 O 0.43543 0.10907 0.35314 0.0
C191 C 0.4586 0.0762 0.51091 0.0
O192 O 0.47592 0.02852 0.35706 0.0
C193 C 0.41624 0.10404 0.35446 0.0
O194 O 0.4448 0.03947 0.32461 0.0
O195 O 0.41199 0.0847 0.36173 0.0
C196 C 0.65545 0.74872 0.02326 0.0
O197 O 0.66188 0.76082 0.06863 0.0
Cd198 Cd 0.67759 0.74557 0.16259 0.0
O199 O 0.65437 0.72892 0.03247 0.0
Cd200 Cd 0.65961 0.70125 0.11735 0.0
C201 C 0.70829 0.7113 0.06852 0.0
O202 O 0.65106 0.72371 0.2082 0.0
O203 O 0.66786 0.6956 0.23453 0.0
O204 O 0.62471 0.68845 0.09492 0.0
C205 C 0.65742 0.7115 0.25295 0.0
O206 O 0.70548 0.72824 0.10067 0.0
C207 C 0.62953 0.66914 0.09657 0.0
O208 O 0.69422 0.6972 0.06733 0.0
O209 O 0.64875 0.66471 0.10402 0.0
C210 C 0.98536 0.90555 0.7794 0.0
O211 O 0.97322 0.91177 0.82488 0.0
Cd212 Cd 0.98832 0.92806 0.91816 0.0
O213 O 0.00511 0.90486 0.78848 0.0
Cd214 Cd 0.03265 0.91062 0.87331 0.0
C215 C 0.02194 0.95912 0.82324 0.0
O216 O 0.01047 0.9019 0.96446 0.0
O217 O 0.0382 0.91929 -0.00958 0.0
O218 O 0.04579 0.8757 0.85111 0.0
C219 C 0.02252 0.90861 0.00908 0.0
O220 O 0.00507 0.95609 0.85517 0.0
C221 C 0.06498 0.88077 0.8524 0.0
O222 O 0.03626 0.94528 0.82273 0.0
O223 O 0.06917 0.90013 0.85968 0.0
C224 C 0.6545 0.73746 0.52321 0.0
O225 O 0.66071 0.72527 0.56857 0.0
Cd226 Cd 0.67712 0.74055 0.66126 0.0
O227 O 0.65378 0.75727 0.53244 0.0
Cd228 Cd 0.65938 0.78496 0.61738 0.0
C229 C 0.70751 0.77455 0.56516 0.0
O230 O 0.65105 0.76262 0.70849 0.0
O231 O 0.66834 0.79049 0.7342 0.0
O232 O 0.62439 0.79776 0.59655 0.0
C233 C 0.65779 0.77472 0.75301 0.0
O234 O 0.70461 0.75756 0.59684 0.0
C235 C 0.6292 0.81708 0.59829 0.0
O236 O 0.69373 0.78894 0.56561 0.0
O237 O 0.64845 0.82152 0.60495 0.0
C238 C 0.49578 0.40502 0.77365 0.0
O239 O 0.50795 0.41114 0.81913 0.0
Cd240 Cd 0.49277 0.42771 0.91179 0.0
O241 O 0.47603 0.40441 0.78283 0.0
Cd242 Cd 0.44847 0.4101 0.86786 0.0
C243 C 0.45905 0.45834 0.81574 0.0
O244 O 0.47067 0.40169 0.95905 0.0
O245 O 0.44298 0.41922 -0.01533 0.0
O246 O 0.43548 0.37505 0.84694 0.0
C247 C 0.45864 0.40858 0.00354 0.0
O248 O 0.47598 0.45536 0.84736 0.0
C249 C 0.41627 0.38003 0.84854 0.0
O250 O 0.44465 0.44459 0.81625 0.0
O251 O 0.41199 0.39938 0.85523 0.0
C252 C 0.82645 0.24797 0.02099 0.0
O253 O 0.82016 0.26016 0.06634 0.0
Cd254 Cd 0.80368 0.24496 0.15901 0.0
O255 O 0.82717 0.22816 0.03014 0.0
Cd256 Cd 0.82143 0.20053 0.11512 0.0
C257 C 0.77332 0.21093 0.06298 0.0
O258 O 0.82976 0.22296 0.20607 0.0
O259 O 0.81246 0.19512 0.23202 0.0
O260 O 0.85641 0.18762 0.09443 0.0
C261 C 0.82305 0.21088 0.25068 0.0
O262 O 0.77621 0.22794 0.09463 0.0
C263 C 0.85157 0.16832 0.0965 0.0
O264 O 0.78709 0.19653 0.06344 0.0
O265 O 0.8323 0.16393 0.10312 0.0
C266 C 0.98591 0.58017 0.27181 0.0
O267 O 0.97376 0.57402 0.31731 0.0
Cd268 Cd 0.98891 0.55756 0.41003 0.0
O269 O 0.00566 0.58084 0.28087 0.0
Cd270 Cd 0.03319 0.57516 0.36576 0.0
C271 C 0.02264 0.52682 0.3141 0.0
O272 O 0.01098 0.58365 0.45705 0.0
O273 O 0.03868 0.56615 0.4826 0.0
O274 O 0.04626 0.61018 0.3448 0.0
C275 C 0.02301 0.57681 0.50151 0.0
O276 O 0.00572 0.5298 0.34588 0.0
C277 C 0.06546 0.60516 0.34631 0.0
O278 O 0.037 0.54061 0.3143 0.0
O279 O 0.06969 0.5858 0.35295 0.0
C280 C 0.65346 0.24859 0.91911 0.0
O281 O 0.65983 0.26067 0.87363 0.0
Cd282 Cd 0.67534 0.24536 0.77917 0.0
O283 O 0.65235 0.2288 0.90988 0.0
Cd284 Cd 0.65749 0.20113 0.82494 0.0
C285 C 0.70632 0.2112 0.87207 0.0
O286 O 0.64878 0.22338 0.73391 0.0
O287 O 0.66557 0.1953 0.70743 0.0
O288 O 0.62266 0.1882 0.8483 0.0
C289 C 0.65517 0.21121 0.68905 0.0
O290 O 0.70347 0.2281 0.83986 0.0
C291 C 0.62759 0.1689 0.84719 0.0
O292 O 0.69219 0.19717 0.87392 0.0
O293 O 0.64681 0.16455 0.83928 0.0
C294 C 0.98511 0.40618 0.17004 0.0
O295 O 0.97306 0.41265 0.12476 0.0
Cd296 Cd 0.98817 0.42829 0.03035 0.0
O297 O 0.00482 0.40509 0.16073 0.0
Cd298 Cd 0.03233 0.41043 0.07568 0.0
C299 C 0.0222 0.45943 0.12323 0.0
O300 O 0.01002 0.40157 -0.01494 0.0
O301 O 0.03797 0.41836 0.95806 0.0
O302 O 0.04536 0.37555 0.09885 0.0
C303 C 0.02211 0.40788 0.94 0.0
O304 O 0.00534 0.45654 0.09119 0.0
C305 C 0.06457 0.38054 0.09734 0.0
O306 O 0.03622 0.44528 0.12479 0.0
O307 O 0.06883 0.39985 0.08939 0.0
C308 C 0.82734 0.7367 0.41973 0.0
O309 O 0.82088 0.72463 0.37434 0.0
Cd310 Cd 0.80533 0.73993 0.28015 0.0
O311 O 0.82847 0.75649 0.41054 0.0
Cd312 Cd 0.82326 0.78418 0.32569 0.0
C313 C 0.77444 0.77414 0.37358 0.0
O314 O 0.83192 0.76178 0.23476 0.0
O315 O 0.81518 0.78991 0.20839 0.0
O316 O 0.8581 0.79703 0.34878 0.0
C317 C 0.82561 0.774 0.18999 0.0
O318 O 0.77726 0.75722 0.34132 0.0
C319 C 0.85321 0.81633 0.3476 0.0
O320 O 0.78858 0.78817 0.37521 0.0
O321 O 0.834 0.82072 0.33989 0.0
C322 C 0.49673 0.57891 0.67223 0.0
O323 O 0.50876 0.57237 0.62688 0.0
Cd324 Cd 0.49366 0.55678 0.53237 0.0
O325 O 0.47702 0.58006 0.66303 0.0
Cd326 Cd 0.44957 0.57469 0.57795 0.0
C327 C 0.45961 0.52563 0.62496 0.0
O328 O 0.47189 0.58355 0.48729 0.0
O329 O 0.44396 0.56673 0.4603 0.0
O330 O 0.43643 0.60957 0.60106 0.0
C331 C 0.45981 0.57725 0.44225 0.0
O332 O 0.47647 0.52848 0.5928 0.0
C333 C 0.41724 0.60453 0.59937 0.0
O334 O 0.44565 0.53983 0.62682 0.0
O335 O 0.41304 0.5852 0.59152 0.0
C336 C 0.32683 0.24758 0.42498 0.0
O337 O 0.3206 0.25973 0.37956 0.0
Cd338 Cd 0.3047 0.24447 0.28588 0.0
O339 O 0.32769 0.22777 0.41575 0.0
Cd340 Cd 0.32228 0.20011 0.33092 0.0
C341 C 0.27378 0.21055 0.38019 0.0
O342 O 0.33101 0.22233 0.23984 0.0
O343 O 0.31392 0.19442 0.21358 0.0
O344 O 0.35712 0.18718 0.3535 0.0
C345 C 0.32445 0.21023 0.19506 0.0
O346 O 0.27675 0.22747 0.34818 0.0
C347 C 0.35223 0.16788 0.35209 0.0
O348 O 0.28768 0.19629 0.38107 0.0
O349 O 0.333 0.16351 0.34454 0.0
C350 C 0.48574 0.58069 0.17224 0.0
O351 O 0.47356 0.57458 0.12676 0.0
Cd352 Cd 0.48865 0.55801 0.03396 0.0
O353 O 0.50548 0.58129 0.16306 0.0
Cd354 Cd 0.533 0.57555 0.07806 0.0
C355 C 0.52235 0.52729 0.12975 0.0
O356 O 0.51087 0.58404 -0.01317 0.0
O357 O 0.53848 0.56649 0.96109 0.0
O358 O 0.54616 0.61055 0.09895 0.0
C359 C 0.52282 0.57712 0.94225 0.0
O360 O 0.50544 0.5303 0.09813 0.0
C361 C 0.56535 0.60549 0.09747 0.0
O362 O 0.53676 0.54104 0.12939 0.0
O363 O 0.56955 0.58612 0.09075 0.0
C364 C 0.15456 0.7374 0.92308 0.0
O365 O 0.16075 0.72524 0.87753 0.0
Cd366 Cd 0.17687 0.74059 0.78439 0.0
O367 O 0.15377 0.75721 0.91399 0.0
Cd368 Cd 0.1592 0.78493 0.8293 0.0
C369 C 0.20751 0.7745 0.87984 0.0
O370 O 0.15067 0.76266 0.73807 0.0
O371 O 0.16787 0.79059 0.71218 0.0
O372 O 0.12429 0.79776 0.8516 0.0
C373 C 0.15733 0.77479 0.69348 0.0
O374 O 0.20459 0.75755 0.84784 0.0
C375 C 0.12914 0.81707 0.85027 0.0
O376 O 0.19366 0.78882 0.88018 0.0
O377 O 0.14837 0.82149 0.84293 0.0
C378 C -0.00389 0.40462 0.67015 0.0
O379 O 0.00826 0.41076 0.62462 0.0
Cd380 Cd -0.00684 0.42721 0.5318 0.0
O381 O 0.97637 0.40398 0.66111 0.0
Cd382 Cd 0.94887 0.40972 0.57616 0.0
C383 C 0.95951 0.4581 0.62741 0.0
O384 O 0.97101 0.40116 0.48476 0.0
O385 O 0.94338 0.41874 0.45923 0.0
O386 O 0.93563 0.37475 0.59705 0.0
C387 C 0.95902 0.40806 0.44031 0.0
O388 O 0.97641 0.45508 0.59559 0.0
C389 C 0.91645 0.37985 0.59568 0.0
O390 O 0.94515 0.4443 0.62741 0.0
O391 O 0.91231 0.39924 0.58909 0.0
C392 C 0.327 0.73654 0.02751 0.0
O393 O 0.32051 0.72444 0.07278 0.0
Cd394 Cd 0.30459 0.73976 0.16642 0.0
O395 O 0.32806 0.75633 0.0368 0.0
Cd396 Cd 0.32267 0.78396 0.12177 0.0
C397 C 0.27413 0.77402 0.07206 0.0
O398 O 0.33109 0.76158 0.21267 0.0
O399 O 0.31422 0.78963 0.23908 0.0
O400 O 0.35763 0.79682 0.09999 0.0
C401 C 0.32464 0.77373 0.25749 0.0
O402 O 0.27688 0.75705 0.10401 0.0
C403 C 0.35279 0.81613 0.10174 0.0
O404 O 0.28819 0.78813 0.07139 0.0
O405 O 0.33355 0.82053 0.10892 0.0
C406 C -0.00302 0.5788 0.7718 0.0
O407 O 0.00904 0.57234 0.81706 0.0
Cd408 Cd -0.00608 0.55661 0.91127 0.0
O409 O 0.97726 0.57986 0.78111 0.0
Cd410 Cd 0.94979 0.57444 0.86624 0.0
C411 C 0.95994 0.52551 0.81815 0.0
O412 O 0.97209 0.58327 0.9569 0.0
O413 O 0.9442 0.56633 -0.01622 0.0
O414 O 0.93671 0.60935 0.84359 0.0
C415 C 0.96 0.57688 0.00189 0.0
O416 O 0.97681 0.5284 0.85013 0.0
C417 C 0.91751 0.60435 0.8454 0.0
O418 O 0.94589 0.53963 0.81682 0.0
O419 O 0.91327 0.58503 0.85307 0.0
C420 C 0.15391 0.24835 0.52833 0.0
O421 O 0.16033 0.26046 0.57368 0.0
Cd422 Cd 0.17639 0.24512 0.66687 0.0
O423 O 0.15295 0.22855 0.53747 0.0
Cd424 Cd 0.15838 0.20088 0.62233 0.0
C425 C 0.20682 0.21092 0.57171 0.0
O426 O 0.15004 0.22327 0.7135 0.0
O427 O 0.16705 0.19523 0.73936 0.0
O428 O 0.12339 0.1881 0.60104 0.0
C429 C 0.15659 0.21109 0.75807 0.0
O430 O 0.20404 0.2279 0.60364 0.0
C431 C 0.1282 0.16878 0.60255 0.0
O432 O 0.19283 0.19674 0.57136 0.0
O433 O 0.14745 0.16434 0.60936 0.0
C434 C 0.48467 0.40676 0.27371 0.0
O435 O 0.47262 0.41328 0.31905 0.0
Cd436 Cd 0.48776 0.42891 0.41343 0.0
O437 O 0.50438 0.40563 0.28291 0.0
Cd438 Cd 0.53184 0.41099 0.36789 0.0
C439 C 0.52181 0.45999 0.32056 0.0
O440 O 0.50953 0.40216 0.45861 0.0
O441 O 0.53748 0.41899 0.48548 0.0
O442 O 0.54489 0.37607 0.34482 0.0
C443 C 0.52163 0.40848 0.5036 0.0
O444 O 0.50494 0.45714 0.3527 0.0
C445 C 0.56409 0.38106 0.3465 0.0
O446 O 0.53579 0.44582 0.31885 0.0
O447 O 0.56835 0.40037 0.35433 0.0
C448 C 0.24805 0.25579 0.95293 0.0
C449 C 0.25618 0.27466 0.92814 0.0
H450 H 0.2269 0.24092 0.01893 0.0
C451 C 0.24846 0.29376 0.95307 0.0
H452 H 0.25385 0.24077 0.93584 0.0
C453 C 0.23255 0.29385 0.00095 0.0
C454 C 0.22473 0.27484 0.02614 0.0
H455 H 0.25461 0.30854 0.93533 0.0
H456 H 0.22647 0.3087 0.01846 0.0
C457 C 0.23278 0.25587 0.00163 0.0
C458 C 0.93928 0.98438 0.25328 0.0
C459 C 0.95828 0.97718 0.27992 0.0
H460 H 0.9244 0.00598 0.18655 0.0
C461 C 0.97706 0.98605 0.25735 0.0
H462 H 0.92458 0.97768 0.26931 0.0
C463 C 0.97699 0.00142 0.20885 0.0
C464 C 0.95812 0.00883 0.18234 0.0
H465 H -0.00798 0.98072 0.27586 0.0
H466 H -0.00814 0.00783 0.19311 0.0
C467 C 0.93919 0.00038 0.20561 0.0
C468 C 0.23436 0.72902 0.44865 0.0
C469 C 0.22585 0.71016 0.42496 0.0
H470 H 0.2557 0.74388 0.51402 0.0
C471 C 0.23319 0.69107 0.45099 0.0
H472 H 0.22889 0.74404 0.43067 0.0
C473 C 0.24903 0.69097 0.49903 0.0
C474 C 0.25715 0.70998 0.52328 0.0
H475 H 0.22677 0.6763 0.4341 0.0
H476 H 0.25477 0.67612 0.51752 0.0
C477 C 0.24955 0.72894 0.49751 0.0
C478 C 0.50383 -0.00028 0.7551 0.0
C479 C 0.52264 0.00814 0.77893 0.0
H480 H 0.48897 0.97835 0.68965 0.0
C481 C 0.54165 0.00065 0.75302 0.0
H482 H 0.48888 0.00532 0.77298 0.0
C483 C 0.54171 0.98472 0.705 0.0
C484 C 0.52275 0.97666 0.68065 0.0
H485 H 0.55638 0.00701 0.77001 0.0
H486 H 0.55649 0.97885 0.68664 0.0
C487 C 0.50388 0.98443 0.70626 0.0
C488 C 0.73348 0.69116 -0.00418 0.0
C489 C 0.72618 0.71023 0.02223 0.0
H490 H 0.75509 0.67625 0.9291 0.0
C491 C 0.73482 0.7291 -0.00084 0.0
H492 H 0.72695 0.67638 0.01224 0.0
C493 C 0.7501 0.72904 0.95047 0.0
C494 C 0.75763 0.7101 0.92424 0.0
H495 H 0.7294 0.74411 0.01747 0.0
H496 H 0.75635 0.74399 0.93438 0.0
C497 C 0.74939 0.69108 0.94795 0.0
C498 C 0.04168 0.98501 0.75199 0.0
C499 C 0.02274 0.97692 0.77648 0.0
H500 H 0.0563 0.00738 0.68719 0.0
C501 C 0.00385 0.98475 0.75136 0.0
H502 H 0.05647 0.9791 0.76999 0.0
C503 C 0.00376 0.00011 0.70284 0.0
C504 C 0.02256 0.00855 0.67886 0.0
H505 H 0.98896 0.97865 0.7681 0.0
H506 H 0.98879 0.00575 0.68532 0.0
C507 C 0.04158 0.00101 0.70431 0.0
C508 C 0.73205 0.29433 0.44674 0.0
C509 C 0.724 0.27528 0.42251 0.0
H510 H 0.75435 0.3091 0.51135 0.0
C511 C 0.73178 0.25636 0.44795 0.0
H512 H 0.72617 0.30915 0.42849 0.0
C513 C 0.74708 0.25634 0.49649 0.0
C514 C 0.7555 0.27523 0.5202 0.0
H515 H 0.72571 0.24139 0.43143 0.0
H516 H 0.75268 0.24134 0.51424 0.0
C517 C 0.74799 0.2943 0.49445 0.0
C518 C 0.47714 0.98436 0.20492 0.0
C519 C 0.45833 0.97627 0.18002 0.0
H520 H 0.49199 0.0055 0.27114 0.0
C521 C 0.43931 0.98403 0.20501 0.0
H522 H 0.4921 0.97853 0.18779 0.0
C523 C 0.43925 -5e-05 0.25304 0.0
C524 C 0.4582 0.00774 0.27831 0.0
H525 H 0.42457 0.9779 0.1872 0.0
H526 H 0.42446 0.00607 0.27059 0.0
C527 C 0.47708 -0.00035 0.25377 0.0
C528 C 0.73216 0.75645 0.49005 0.0
C529 C 0.72501 0.77536 0.5175 0.0
H530 H 0.75258 0.74141 0.42216 0.0
C531 C 0.73356 0.79437 0.49484 0.0
H532 H 0.72565 0.74154 0.50529 0.0
C533 C 0.74947 0.79429 0.44695 0.0
C534 C 0.75646 0.77525 0.41948 0.0
H535 H 0.72815 0.80919 0.51463 0.0
H536 H 0.75628 0.80904 0.43146 0.0
C537 C 0.74744 0.75641 0.44134 0.0
C538 C 0.43938 0.48464 0.74595 0.0
C539 C 0.45829 0.4759 0.76816 0.0
H540 H 0.42482 0.50759 0.68316 0.0
C541 C 0.47713 0.48293 0.74038 0.0
H542 H 0.42461 0.47932 0.766 0.0
C543 C 0.4772 0.49829 0.69184 0.0
C544 C 0.45847 0.50752 0.6705 0.0
H545 H 0.49197 0.47625 0.75526 0.0
H546 H 0.49215 0.50334 0.67242 0.0
C547 C 0.43949 0.50063 0.69824 0.0
C548 C 0.73343 0.22897 0.93923 0.0
C549 C 0.72434 0.21012 0.9177 0.0
H550 H 0.75529 0.24389 0.00279 0.0
C551 C 0.73129 0.1911 0.9453 0.0
H552 H 0.72832 0.24395 0.91994 0.0
C553 C 0.74722 0.19106 -0.00697 0.0
C554 C 0.75583 0.21008 0.0154 0.0
H555 H 0.72444 0.17635 0.93007 0.0
H556 H 0.7526 0.17626 0.01295 0.0
C557 C 0.74873 0.22896 -0.01221 0.0
C558 C 0.04228 0.48462 0.19604 0.0
C559 C 0.02329 0.47752 0.16901 0.0
H560 H 0.05714 0.50615 0.26318 0.0
C561 C 0.00452 0.48651 0.19117 0.0
H562 H 0.05698 0.47784 0.18031 0.0
C563 C 0.00458 0.50189 0.23973 0.0
C564 C 0.02343 0.50918 0.2667 0.0
H565 H 0.98957 0.48127 0.17234 0.0
H566 H 0.98971 0.50839 0.25519 0.0
C567 C 0.04237 0.50064 0.24376 0.0
C568 C 0.24776 0.22866 0.45071 0.0
C569 C 0.25595 0.2097 0.42672 0.0
H570 H 0.22657 0.24378 0.51613 0.0
C571 C 0.24826 0.19069 0.45237 0.0
H572 H 0.25352 0.24362 0.43304 0.0
C573 C 0.23235 0.19079 0.50024 0.0
C574 C 0.2245 0.20989 0.52473 0.0
H575 H 0.25445 0.17584 0.43525 0.0
H576 H 0.22631 0.17601 0.51839 0.0
C577 C 0.23248 0.22876 0.49941 0.0
C578 C 0.54192 0.48506 0.24749 0.0
C579 C 0.52293 0.47807 0.27487 0.0
H580 H 0.55681 0.50647 0.18005 0.0
C581 C 0.50418 0.48717 0.2531 0.0
H582 H 0.5566 0.4782 0.2629 0.0
C583 C 0.50426 0.50253 0.20456 0.0
C584 C 0.52311 0.50968 0.17719 0.0
H585 H 0.48923 0.48202 0.27223 0.0
H586 H 0.48941 0.50911 0.18938 0.0
C587 C 0.54203 0.50105 0.19977 0.0
C588 C 0.24801 0.75623 0.00128 0.0
C589 C 0.2564 0.77509 0.02538 0.0
H590 H 0.22676 0.74139 0.93559 0.0
C591 C 0.24898 0.79419 -0.00033 0.0
H592 H 0.25355 0.7412 0.01899 0.0
C593 C 0.23315 0.79431 0.95161 0.0
C594 C 0.22513 0.7753 0.927 0.0
H595 H 0.25532 0.80896 0.01688 0.0
H596 H 0.22733 0.80916 0.93341 0.0
C597 C 0.23282 0.75633 0.9524 0.0
C598 C 0.97758 0.48324 0.70103 0.0
C599 C 0.95872 0.47579 0.6746 0.0
H600 H -0.00739 0.50399 0.768 0.0
C601 C 0.93978 0.48421 0.69798 0.0
H602 H -0.00754 0.47685 0.6852 0.0
C603 C 0.93987 0.50023 0.74567 0.0
C604 C 0.95887 0.50747 0.77223 0.0
H605 H 0.925 0.47858 0.67898 0.0
H606 H 0.92516 0.50691 0.76179 0.0
C607 C 0.97765 0.49863 0.74955 0.0
C608 C 0.15946 0.20898 0.94396 0.0
C609 C 0.15117 0.22868 0.96118 0.0
H610 H 0.16795 0.18802 0.86583 0.0
C611 C 0.14304 0.24162 0.91154 0.0
H612 H 0.16592 0.19866 -0.01891 0.0
C613 C 0.14425 0.23553 0.84573 0.0
C614 C 0.15374 0.21644 0.82815 0.0
H615 H 0.13648 0.25685 0.92323 0.0
H616 H 0.13838 0.24616 0.80848 0.0
C617 C 0.16082 0.20295 0.87794 0.0
C618 C 0.03051 0.91306 0.129 0.0
C619 C 0.01717 0.90578 0.07916 0.0
H620 H 0.03465 0.91835 0.23216 0.0
C621 C -0.00179 0.89613 0.09666 0.0
H622 H 0.04533 0.92032 0.11697 0.0
C623 C -0.00791 0.89495 0.16244 0.0
C624 C 0.00487 0.90328 0.21214 0.0
H625 H 0.9877 0.89011 0.05938 0.0
H626 H 0.97697 0.88827 0.17406 0.0
C627 C 0.02445 0.91173 0.195 0.0
C628 C 0.32214 0.77592 0.44337 0.0
C629 C 0.3304 0.75619 0.46034 0.0
H630 H 0.31358 0.79688 0.3655 0.0
C631 C 0.3384 0.74322 0.41046 0.0
H632 H 0.31577 0.78627 0.48066 0.0
C633 C 0.33709 0.74929 0.3447 0.0
C634 C 0.32762 0.7684 0.32744 0.0
H635 H 0.34492 0.72797 0.42196 0.0
H636 H 0.34285 0.73863 0.30728 0.0
C637 C 0.32069 0.78194 0.3774 0.0
C638 C 0.45655 0.07333 0.69685 0.0
C639 C 0.47613 0.08178 0.71392 0.0
H640 H 0.43571 0.06466 0.61889 0.0
C641 C 0.48894 0.09003 0.66416 0.0
H642 H 0.44633 0.06677 0.73407 0.0
C643 C 0.48287 0.08877 0.59839 0.0
C644 C 0.46391 0.07912 0.58097 0.0
H645 H 0.50407 0.0967 0.67572 0.0
H646 H 0.49341 0.09473 0.56106 0.0
C647 C 0.45053 0.07192 0.63087 0.0
C648 C 0.14507 0.75031 0.60585 0.0
C649 C 0.15459 0.76939 0.62339 0.0
H650 H 0.13743 0.72894 0.52843 0.0
C651 C 0.16183 0.7828 0.57359 0.0
H652 H 0.13909 0.73974 0.64311 0.0
C653 C 0.16061 0.77671 0.50761 0.0
C654 C 0.15229 0.75701 0.49043 0.0
H655 H 0.16898 0.79772 0.58566 0.0
H656 H 0.16719 0.78697 0.4705 0.0
C657 C 0.144 0.74415 0.54007 0.0
C658 C 0.48381 0.89565 0.85977 0.0
C659 C 0.46471 0.90504 0.87728 0.0
H660 H 0.50514 0.88805 0.78234 0.0
C661 C 0.45124 0.91205 0.82746 0.0
H662 H 0.49442 0.88984 0.89706 0.0
C663 C 0.45729 0.91074 0.76146 0.0
C664 C 0.47699 0.90258 0.74429 0.0
H665 H 0.43631 0.9191 0.83951 0.0
H666 H 0.44697 0.91716 0.72431 0.0
C667 C 0.48992 0.8945 0.79398 0.0
C668 C 0.33793 0.24089 0.04199 0.0
C669 C 0.32977 0.22799 -0.00777 0.0
H670 H 0.34266 0.24534 0.14509 0.0
C671 C 0.32153 0.20825 0.00924 0.0
H672 H 0.34445 0.25614 0.03047 0.0
C673 C 0.32023 0.20216 0.07518 0.0
C674 C 0.32732 0.21562 0.12508 0.0
H675 H 0.31505 0.19796 0.97203 0.0
H676 H 0.31312 0.18722 0.08713 0.0
C677 C 0.33678 0.23473 0.10773 0.0
C678 C -0.00315 0.08968 0.36106 0.0
C679 C 0.01601 0.08039 0.3782 0.0
H680 H 0.97544 0.09724 0.28395 0.0
C681 C 0.02952 0.07355 0.32814 0.0
H682 H 0.98621 0.09536 0.39857 0.0
C683 C 0.02345 0.07491 0.26224 0.0
C684 C 0.00369 0.08296 0.2454 0.0
H685 H 0.0445 0.06659 0.33994 0.0
H686 H 0.0338 0.06861 0.2249 0.0
C687 C -0.00928 0.09088 0.29534 0.0
C688 C 0.82311 0.77607 0.00404 0.0
C689 C 0.8312 0.75626 -0.01297 0.0
H690 H 0.81474 0.79716 0.08193 0.0
C691 C 0.83913 0.74327 0.03686 0.0
H692 H 0.81681 0.78643 0.96678 0.0
C693 C 0.8379 0.74941 0.10264 0.0
C694 C 0.82858 0.76861 0.11998 0.0
H695 H 0.84552 0.72796 0.02535 0.0
H696 H 0.84358 0.73874 0.14003 0.0
C697 C 0.82173 0.78215 0.07002 0.0
C698 C 0.98287 0.08927 0.86102 0.0
C699 C 0.9639 0.07962 0.87842 0.0
H700 H 0.0041 0.09722 0.78368 0.0
C701 C 0.95054 0.07244 0.82853 0.0
H702 H -0.0066 0.09522 0.89837 0.0
C703 C 0.95657 0.07386 0.76254 0.0
C704 C 0.97615 0.08232 0.74548 0.0
H705 H 0.93571 0.06518 0.8405 0.0
H706 H 0.94635 0.06732 0.72533 0.0
C707 C 0.98897 0.09054 0.79525 0.0
C708 C 0.65811 0.20923 0.50321 0.0
C709 C 0.65009 0.22906 0.48626 0.0
H710 H 0.66626 0.18809 0.58103 0.0
C711 C 0.64203 0.24202 0.53607 0.0
H712 H 0.66451 0.19887 0.46597 0.0
C713 C 0.64308 0.23584 0.6018 0.0
C714 C 0.65234 0.21663 0.61909 0.0
H715 H 0.63568 0.25734 0.5246 0.0
H716 H 0.6373 0.24649 0.6392 0.0
C717 C 0.65931 0.20311 0.56914 0.0
C718 C 0.52427 0.91109 0.26119 0.0
C719 C 0.50466 0.90269 0.24423 0.0
H720 H 0.54514 0.91978 0.33903 0.0
C721 C 0.49181 0.89455 0.29409 0.0
H722 H 0.53452 0.91756 0.22391 0.0
C723 C 0.4979 0.89586 0.35984 0.0
C724 C 0.51689 0.90548 0.37713 0.0
H725 H 0.47666 0.88791 0.28261 0.0
H726 H 0.48734 0.88999 0.39726 0.0
C727 C 0.53029 0.91256 0.32715 0.0
C728 C 0.8356 0.23522 0.3382 0.0
C729 C 0.82592 0.21623 0.32074 0.0
H730 H 0.84361 0.25647 0.41559 0.0
C731 C 0.81872 0.20282 0.3706 0.0
H732 H 0.84157 0.24578 0.30088 0.0
C733 C 0.82016 0.20884 0.43661 0.0
C734 C 0.82866 0.22847 0.45373 0.0
H735 H 0.81144 0.18796 0.35858 0.0
H736 H 0.81361 0.1986 0.47381 0.0
C737 C 0.8369 0.24131 0.40398 0.0
C738 C 0.49117 0.09007 0.16423 0.0
C739 C 0.50407 0.08192 0.21385 0.0
H740 H 0.48668 0.09486 0.0612 0.0
C741 C 0.52377 0.07375 0.19661 0.0
H742 H 0.47595 0.09653 0.17592 0.0
C743 C 0.52983 0.07252 0.1306 0.0
C744 C 0.51637 0.07961 0.08083 0.0
H745 H 0.53406 0.06728 0.23371 0.0
H746 H 0.54474 0.06547 0.11849 0.0
C747 C 0.49728 0.08899 0.09843 0.0
C748 C 0.64434 0.74422 0.90647 0.0
C749 C 0.65269 0.75706 0.95608 0.0
H750 H 0.63941 0.73979 0.80347 0.0
C751 C 0.66111 0.7767 0.93888 0.0
H752 H 0.63767 0.72905 0.91814 0.0
C753 C 0.66238 0.78276 0.87288 0.0
C754 C 0.65507 0.76936 0.82311 0.0
H755 H 0.66774 0.78694 -0.02403 0.0
H756 H 0.66961 0.79763 0.86078 0.0
C757 C 0.64545 0.75034 0.8407 0.0
C758 C 0.98389 0.89576 0.59664 0.0
C759 C 0.96476 0.90508 0.57936 0.0
H760 H 0.00527 0.88823 0.67384 0.0
C761 C 0.95127 0.91203 0.62933 0.0
H762 H -0.00548 0.89 0.55922 0.0
C763 C 0.95733 0.91075 0.69527 0.0
C764 C 0.97707 0.90266 0.71222 0.0
H765 H 0.93632 0.91903 0.61744 0.0
H766 H 0.94701 0.91712 0.73255 0.0
C767 C 0.99001 0.89463 0.66237 0.0
C768 C 0.64379 0.74214 0.40613 0.0
C769 C 0.65172 0.72915 0.45594 0.0
H770 H 0.63936 0.74671 0.30297 0.0
C771 C 0.65985 0.70936 0.43887 0.0
H772 H 0.63736 0.75743 0.41769 0.0
C773 C 0.66128 0.70331 0.37288 0.0
C774 C 0.65443 0.71686 0.32296 0.0
H775 H 0.66616 0.69899 0.47611 0.0
H776 H 0.6683 0.68832 0.36092 0.0
C777 C 0.64506 0.73603 0.34034 0.0
C778 C 0.49106 0.39452 0.65632 0.0
C779 C 0.50405 0.4023 0.70634 0.0
H780 H 0.48648 0.39037 0.55302 0.0
C781 C 0.5238 0.41041 0.6895 0.0
H782 H 0.4758 0.38811 0.6677 0.0
C783 C 0.52982 0.41199 0.62356 0.0
C784 C 0.51628 0.4053 0.57347 0.0
H785 H 0.53417 0.41661 0.7269 0.0
H786 H 0.54478 0.419 0.61179 0.0
C787 C 0.49715 0.39594 0.59056 0.0
C788 C 0.83622 0.24944 0.83822 0.0
C789 C 0.82694 0.26865 0.82093 0.0
H790 H 0.84371 0.22798 0.91544 0.0
C791 C 0.82003 0.2822 0.8709 0.0
H792 H 0.84195 0.23877 0.80081 0.0
C793 C 0.82132 0.27611 0.93685 0.0
C794 C 0.82936 0.25629 0.95381 0.0
H795 H 0.81307 0.29721 0.85902 0.0
H796 H 0.81497 0.28648 0.97411 0.0
C797 C 0.83735 0.2433 0.90397 0.0
C798 C 0.95789 0.57477 0.1878 0.0
C799 C 0.97763 0.58291 0.20458 0.0
H800 H 0.93691 0.5662 0.11016 0.0
C801 C 0.99059 0.59076 0.15455 0.0
H802 H 0.94755 0.56852 0.22521 0.0
C803 C 0.9845 0.58939 0.08883 0.0
C804 C 0.96538 0.58 0.07178 0.0
H805 H 0.00585 0.59719 0.16589 0.0
H806 H -0.00486 0.59501 0.05128 0.0
C807 C 0.95186 0.57324 0.12189 0.0
C808 C 0.66059 0.28265 0.0695 0.0
C809 C 0.65332 0.26926 0.11932 0.0
H810 H 0.66585 0.28681 0.96634 0.0
C811 C 0.64367 0.25025 0.10185 0.0
H812 H 0.66785 0.29751 0.08154 0.0
C813 C 0.64248 0.24413 0.03609 0.0
C814 C 0.65078 0.25695 -0.01362 0.0
H815 H 0.63766 0.23971 0.13916 0.0
H816 H 0.63579 0.22896 0.02448 0.0
C817 C 0.65925 0.27659 0.00351 0.0
C818 C 0.95111 0.41287 0.32053 0.0
C819 C 0.96442 0.40544 0.37017 0.0
H820 H 0.94702 0.41846 0.21756 0.0
C821 C 0.98339 0.39584 0.35246 0.0
H822 H 0.93629 0.4201 0.33275 0.0
C823 C 0.98954 0.39486 0.28668 0.0
C824 C 0.97678 0.40332 0.23721 0.0
H825 H -0.00612 0.38971 0.3896 0.0
H826 H 0.00467 0.3882 0.2749 0.0
C827 C 0.9572 0.41174 0.25454 0.0
C828 C 0.83748 0.735 0.60221 0.0
C829 C 0.82787 0.71599 0.61982 0.0
H830 H 0.84522 0.75632 0.52478 0.0
C831 C 0.82049 0.70262 0.57007 0.0
H832 H 0.84358 0.74554 0.63942 0.0
C833 C 0.8217 0.7087 0.50408 0.0
C834 C 0.83013 0.72834 0.48688 0.0
H835 H 0.81325 0.68776 0.58218 0.0
H836 H 0.81502 0.69849 0.46701 0.0
C837 C 0.83854 0.74115 0.53646 0.0
C838 C 0.53073 0.57225 0.82249 0.0
C839 C 0.51742 0.57972 0.87221 0.0
H840 H 0.53482 0.56662 0.71948 0.0
C841 C 0.49846 0.58932 0.85464 0.0
H842 H 0.54555 0.56502 0.83461 0.0
C843 C 0.49231 0.59028 0.78891 0.0
C844 C 0.50506 0.58178 0.73935 0.0
H845 H 0.48798 0.59548 0.89186 0.0
H846 H 0.47719 0.59694 0.77725 0.0
C847 C 0.52464 0.57336 0.75654 0.0
C848 C 0.32131 0.2756 0.50941 0.0
C849 C 0.32959 0.25589 0.49223 0.0
H850 H 0.31285 0.29659 0.58749 0.0
C851 C 0.33773 0.24296 0.54189 0.0
H852 H 0.31484 0.28591 0.47227 0.0
C853 C 0.33655 0.24908 0.60769 0.0
C854 C 0.32707 0.26818 0.62522 0.0
H855 H 0.34427 0.22773 0.53023 0.0
H856 H 0.34242 0.23846 0.64496 0.0
C857 C 0.31998 0.28165 0.57541 0.0
C858 C 0.48434 0.58976 0.35536 0.0
C859 C 0.46518 0.58043 0.37239 0.0
H860 H 0.50573 0.59755 0.27828 0.0
C861 C 0.45165 0.57377 0.32225 0.0
H862 H 0.495 0.59531 0.39294 0.0
C863 C 0.45769 0.57534 0.25633 0.0
C864 C 0.47746 0.58341 0.23955 0.0
H865 H 0.43667 0.56678 0.33397 0.0
H866 H 0.44732 0.56917 0.21889 0.0
C867 C 0.49045 0.59117 0.28962 0.0
C868 C 0.14512 0.73596 0.10599 0.0
C869 C 0.15458 0.71684 0.12326 0.0
H870 H 0.13731 0.7573 0.02876 0.0
C871 C 0.16154 0.70333 0.07327 0.0
H872 H 0.13934 0.7466 0.14341 0.0
C873 C 0.16011 0.70936 0.0073 0.0
C874 C 0.15185 0.72909 -0.00965 0.0
H875 H 0.16865 0.68838 0.08514 0.0
H876 H 0.16649 0.69903 0.96999 0.0
C877 C 0.14383 0.74205 0.04023 0.0
C878 C 0.02418 0.40995 0.75409 0.0
C879 C 0.00441 0.40188 0.73738 0.0
H880 H 0.04522 0.41844 0.83166 0.0
C881 C -0.00856 0.39407 0.78746 0.0
H882 H 0.03453 0.41615 0.71663 0.0
C883 C -0.00243 0.39543 0.85316 0.0
C884 C 0.01672 0.40475 0.87014 0.0
H885 H 0.97616 0.3877 0.77619 0.0
H886 H 0.98692 0.38985 0.89076 0.0
C887 C 0.03024 0.41146 0.81998 0.0
C888 C 0.33816 0.74105 0.91073 0.0
C889 C 0.32984 0.72819 0.96031 0.0
H890 H 0.34309 0.74549 0.80773 0.0
C891 C 0.32148 0.70852 0.94306 0.0
H892 H 0.34477 0.75624 0.92244 0.0
C893 C 0.32024 0.70246 0.87705 0.0
C894 C 0.32752 0.71587 0.8273 0.0
H895 H 0.31487 0.69827 -0.01987 0.0
H896 H 0.31305 0.68756 0.86492 0.0
C897 C 0.33708 0.73492 0.84493 0.0
C898 C -0.0075 0.59006 0.65513 0.0
C899 C 0.00529 0.58165 0.70462 0.0
H900 H 0.98812 0.59512 0.55219 0.0
C901 C 0.02489 0.57326 0.68731 0.0
H902 H 0.97736 0.59669 0.6669 0.0
C903 C 0.03096 0.57209 0.6213 0.0
C904 C 0.01762 0.57946 0.57163 0.0
H905 H 0.03509 0.56659 0.72431 0.0
H906 H 0.0458 0.56488 0.60911 0.0
C907 C -0.00136 0.58904 0.58934 0.0
C908 C 0.14402 0.24994 0.34572 0.0
C909 C 0.15353 0.26902 0.32828 0.0
H910 H 0.13633 0.22858 0.42305 0.0
C911 C 0.16067 0.28248 0.37812 0.0
H912 H 0.13811 0.23935 0.3084 0.0
C913 C 0.15938 0.27641 0.44409 0.0
C914 C 0.15109 0.2567 0.46118 0.0
H915 H 0.16781 0.2974 0.3661 0.0
H916 H 0.1659 0.2867 0.48124 0.0
C917 C 0.14288 0.24381 0.41147 0.0
C918 C 0.48911 0.39541 0.15703 0.0
C919 C 0.47635 0.4039 0.20657 0.0
H920 H 0.49347 0.39023 0.05409 0.0
C921 C 0.45678 0.41234 0.18935 0.0
H922 H 0.50423 0.38873 0.16872 0.0
C923 C 0.45071 0.41346 0.12337 0.0
C924 C 0.46402 0.40599 0.07365 0.0
H925 H 0.4466 0.41907 0.2264 0.0
H926 H 0.43589 0.4207 0.11124 0.0
C927 C 0.48298 0.39638 0.09127 0.0
C928 C 0.11782 0.35452 0.09874 0.0
C929 C 0.11234 0.33317 0.09841 0.0
H930 H 0.10698 0.38633 0.09909 0.0
C931 C 0.0911 0.32761 0.09902 0.0
H932 H 0.13407 0.35928 0.09865 0.0
C933 C 0.07565 0.34303 0.10012 0.0
C934 C 0.08108 0.36438 0.10021 0.0
H935 H 0.08636 0.3113 0.09925 0.0
H936 H 0.05942 0.33819 0.10025 0.0
C937 C 0.10232 0.37 0.09941 0.0
C938 C 0.8639 0.85417 0.35006 0.0
C939 C 0.8694 0.83282 0.35056 0.0
H940 H 0.87472 0.88598 0.3497 0.0
C941 C 0.89064 0.82727 0.35032 0.0
H942 H 0.84765 0.85892 0.34986 0.0
C943 C 0.90608 0.84271 0.34939 0.0
C944 C 0.90064 0.86405 0.34909 0.0
H945 H 0.8954 0.81096 0.35023 0.0
H946 H 0.92231 0.83787 0.34952 0.0
C947 C 0.87939 0.86965 0.34955 0.0
C948 C 0.39057 0.65741 0.59984 0.0
C949 C 0.36934 0.65179 0.59876 0.0
H950 H 0.42227 0.64691 0.602 0.0
C951 C 0.36391 0.63043 0.59928 0.0
H952 H 0.39527 0.67373 0.59997 0.0
C953 C 0.37945 0.61499 0.60055 0.0
C954 C 0.40068 0.62066 0.60178 0.0
H955 H 0.34768 0.62562 0.59886 0.0
H956 H 0.37483 0.59864 0.60033 0.0
C957 C 0.40605 0.64202 0.60154 0.0
C958 C 0.61699 0.13105 0.85009 0.0
C959 C 0.61144 0.15238 0.85058 0.0
H960 H 0.60625 0.0992 0.85009 0.0
C961 C 0.59018 0.15788 0.85078 0.0
H962 H 0.63325 0.12633 0.84958 0.0
C963 C 0.57478 0.1424 0.85026 0.0
C964 C 0.58028 0.12107 0.84992 0.0
H965 H 0.58539 0.17418 0.85071 0.0
H966 H 0.55854 0.1472 0.85069 0.0
C967 C 0.60154 0.11552 0.84998 0.0
C968 C 0.07656 0.64269 0.34656 0.0
C969 C 0.08198 0.62134 0.34509 0.0
H970 H 0.08727 0.67441 0.34999 0.0
C971 C 0.10322 0.61571 0.3462 0.0
H972 H 0.06033 0.64754 0.34625 0.0
C973 C 0.11872 0.63117 0.34847 0.0
C974 C 0.11324 0.65252 0.35013 0.0
H975 H 0.10787 0.59938 0.3455 0.0
H976 H 0.13496 0.6264 0.3487 0.0
C977 C 0.092 0.6581 0.34925 0.0
C978 C 0.59171 0.82784 0.59889 0.0
C979 C 0.61292 0.8335 0.59737 0.0
H980 H 0.56 0.83825 0.60268 0.0
C981 C 0.6183 0.85488 0.59878 0.0
H982 H 0.58704 0.8115 0.59836 0.0
C983 C 0.60273 0.87027 0.60139 0.0
C984 C 0.58152 0.86455 0.60309 0.0
H985 H 0.63452 0.85972 0.59807 0.0
H986 H 0.60731 0.88663 0.60184 0.0
C987 C 0.5762 0.84318 0.60192 0.0
C988 C 0.40524 0.34248 0.84859 0.0
C989 C 0.39978 0.36382 0.84731 0.0
H990 H 0.39459 0.31074 0.85181 0.0
C991 C 0.37853 0.3694 0.84858 0.0
H992 H 0.42147 0.33765 0.84815 0.0
C993 C 0.36306 0.35391 0.85081 0.0
C994 C 0.36857 0.33257 0.85225 0.0
H995 H 0.37384 0.38573 0.84804 0.0
H996 H 0.3468 0.35865 0.85117 0.0
C997 C 0.38982 0.32704 0.85122 0.0
C998 C 0.86242 0.13051 0.09803 0.0
C999 C 0.86783 0.15187 0.09616 0.0
H1000 H 0.87337 0.09876 0.10211 0.0
C1001 C 0.88904 0.15752 0.09792 0.0
H1002 H 0.8462 0.12568 0.09716 0.0
C1003 C 0.90453 0.14218 0.10164 0.0
C1004 C 0.89918 0.12082 0.10329 0.0
H1005 H 0.89373 0.17385 0.09706 0.0
H1006 H 0.92073 0.1471 0.10257 0.0
C1007 C 0.87797 0.11511 0.10133 0.0
C1008 C 0.86425 0.63038 0.84649 0.0
C1009 C 0.86973 0.65173 0.84717 0.0
H1010 H 0.87509 0.59857 0.84495 0.0
C1011 C 0.89097 0.65729 0.84583 0.0
H1012 H 0.848 0.62562 0.84709 0.0
C1013 C 0.90641 0.64187 0.84375 0.0
C1014 C 0.90099 0.62052 0.84336 0.0
H1015 H 0.89571 0.6736 0.84582 0.0
H1016 H 0.92264 0.64672 0.84312 0.0
C1017 C 0.87975 0.6149 0.84483 0.0
C1018 C 0.11734 0.13098 0.60213 0.0
C1019 C 0.11193 0.15235 0.60112 0.0
H1020 H 0.10639 0.09922 0.60432 0.0
C1021 C 0.09071 0.15799 0.60248 0.0
H1022 H 0.13357 0.12616 0.60151 0.0
C1023 C 0.07522 0.14263 0.60495 0.0
C1024 C 0.08057 0.12126 0.6057 0.0
H1025 H 0.08603 0.17432 0.60225 0.0
H1026 H 0.05901 0.14753 0.6056 0.0
C1027 C 0.10179 0.11557 0.60417 0.0
C1028 C 0.60184 0.37046 0.34544 0.0
C1029 C 0.5806 0.36487 0.34416 0.0
H1030 H 0.63358 0.35971 0.34728 0.0
C1031 C 0.57514 0.34353 0.34444 0.0
H1032 H 0.60652 0.38679 0.34562 0.0
C1033 C 0.59057 0.32809 0.34625 0.0
C1034 C 0.61181 0.33363 0.34739 0.0
H1035 H 0.55891 0.3387 0.34394 0.0
H1036 H 0.58581 0.31178 0.34616 0.0
C1037 C 0.61732 0.35497 0.34681 0.0
C1038 C 0.36358 0.85395 0.1015 0.0
C1039 C 0.36903 0.83259 0.10015 0.0
H1040 H 0.37447 0.88573 0.10396 0.0
C1041 C 0.39026 0.82698 0.10106 0.0
H1042 H 0.34734 0.85874 0.10123 0.0
C1043 C 0.40573 0.84238 0.10347 0.0
C1044 C 0.40033 0.86373 0.10463 0.0
H1045 H 0.39497 0.81066 0.10054 0.0
H1046 H 0.42195 0.8375 0.1038 0.0
C1047 C 0.3791 0.86939 0.1035 0.0
C1048 C 0.87864 0.3695 0.59636 0.0
C1049 C 0.89985 0.36376 0.59711 0.0
H1050 H 0.84684 0.35897 0.5945 0.0
C1051 C 0.90516 0.34239 0.59558 0.0
H1052 H 0.87407 0.38586 0.59711 0.0
C1053 C 0.88963 0.32706 0.59323 0.0
C1054 C 0.86842 0.33274 0.59276 0.0
H1055 H 0.92136 0.33745 0.59562 0.0
H1056 H 0.89428 0.31072 0.59246 0.0
C1057 C 0.86306 0.35412 0.59443 0.0
C1058 C 0.38967 0.15696 0.35426 0.0
C1059 C 0.36843 0.15139 0.35461 0.0
H1060 H 0.42135 0.14641 0.35285 0.0
C1061 C 0.36296 0.13004 0.35374 0.0
H1062 H 0.3944 0.17328 0.35445 0.0
C1063 C 0.37847 0.11457 0.35272 0.0
C1064 C 0.39971 0.1202 0.35211 0.0
H1065 H 0.34671 0.12527 0.35362 0.0
H1066 H 0.37382 0.09823 0.35258 0.0
C1067 C 0.40513 0.14155 0.35282 0.0
C1068 C 0.61868 0.63134 0.09619 0.0
C1069 C 0.61327 0.6527 0.09469 0.0
H1070 H 0.60774 0.59958 0.09872 0.0
C1071 C 0.59205 0.65834 0.09527 0.0
H1072 H 0.63492 0.62652 0.09617 0.0
C1073 C 0.57655 0.64298 0.09758 0.0
C1074 C 0.58192 0.62162 0.09895 0.0
H1075 H 0.58736 0.67467 0.09461 0.0
H1076 H 0.56034 0.64788 0.0977 0.0
C1077 C 0.60314 0.61592 0.09809 0.0
C1078 C 0.07618 0.84329 0.85065 0.0
C1079 C 0.08155 0.86465 0.85004 0.0
H1080 H 0.08697 0.81158 0.85227 0.0
C1081 C 0.10277 0.87033 0.85078 0.0
H1082 H 0.05997 0.83839 0.85058 0.0
C1083 C 0.11832 0.85489 0.85185 0.0
C1084 C 0.1129 0.83353 0.85266 0.0
H1085 H 0.10738 0.88667 0.85071 0.0
H1086 H 0.13455 0.8597 0.85185 0.0
C1087 C 0.09167 0.82791 0.85214 0.0
loop_
_geom_bond_atom_site_label_1
_geom_bond_atom_site_label_2
_geom_bond_distance
_geom_bond_site_symmetry_2
_ccdc_geom_bond_type
C0 O1 1.306 . S
C0 O3 1.160 . S
O1 C0 1.306 . S
O1 Cd2 2.228 1_556 S
Cd2 O1 2.228 1_554 S
Cd2 O6 2.273 . S
Cd2 O10 2.277 . S
O3 C0 1.160 . S
O3 Cd4 2.203 1_556 S
Cd4 O3 2.203 1_554 S
Cd4 O6 2.411 . S
Cd4 O7 2.333 . S
Cd4 O8 2.352 . S
Cd4 O12 2.277 . S
Cd4 O13 2.356 . S
C5 O10 1.209 . S
C5 O12 1.226 . S
O6 Cd2 2.273 . S
O6 Cd4 2.411 . S
O6 C9 1.320 . S
O7 Cd4 2.333 . S
O7 C9 1.214 . S
O8 Cd4 2.352 . S
O8 C11 1.258 . S
C9 O6 1.320 . S
C9 O7 1.214 . S
O10 Cd2 2.277 . S
O10 C5 1.209 . S
C11 O8 1.258 . S
C11 O13 1.282 . S
O12 Cd4 2.277 . S
O12 C5 1.226 . S
O13 Cd4 2.356 . S
O13 C11 1.282 . S
C14 O15 1.313 . S
C14 O17 1.160 . S
O15 C14 1.313 . S
O15 Cd16 2.225 1_655 S
Cd16 O15 2.225 1_455 S
Cd16 O20 2.273 1_455 S
Cd16 O24 2.277 1_455 S
O17 C14 1.160 . S
O17 Cd18 2.203 . S
Cd18 O17 2.203 . S
Cd18 O20 2.411 . S
Cd18 O21 2.333 . S
Cd18 O22 2.352 . S
Cd18 O26 2.277 . S
Cd18 O27 2.356 . S
C19 O24 1.209 . S
C19 O26 1.226 . S
O20 Cd16 2.273 1_655 S
O20 Cd18 2.411 . S
O20 C23 1.320 . S
O21 Cd18 2.333 . S
O21 C23 1.214 . S
O22 Cd18 2.352 . S
O22 C25 1.258 . S
C23 O20 1.320 . S
C23 O21 1.214 . S
O24 Cd16 2.277 1_655 S
O24 C19 1.209 . S
C25 O22 1.258 . S
C25 O27 1.282 . S
O26 Cd18 2.277 . S
O26 C19 1.226 . S
O27 Cd18 2.356 . S
O27 C25 1.282 . S
C28 O29 1.306 . S
C28 O31 1.160 . S
O29 C28 1.306 . S
O29 Cd30 2.228 . S
Cd30 O29 2.228 . S
Cd30 O34 2.273 . S
Cd30 O38 2.277 . S
O31 C28 1.160 . S
O31 Cd32 2.203 . S
Cd32 O31 2.203 . S
Cd32 O34 2.411 . S
Cd32 O35 2.333 . S
Cd32 O36 2.352 . S
Cd32 O40 2.277 . S
Cd32 O41 2.356 . S
C33 O38 1.209 . S
C33 O40 1.226 . S
O34 Cd30 2.273 . S
O34 Cd32 2.411 . S
O34 C37 1.320 . S
O35 Cd32 2.333 . S
O35 C37 1.214 . S
O36 Cd32 2.352 . S
O36 C39 1.258 . S
C37 O34 1.320 . S
C37 O35 1.214 . S
O38 Cd30 2.277 . S
O38 C33 1.209 . S
C39 O36 1.258 . S
C39 O41 1.282 . S
O40 Cd32 2.277 . S
O40 C33 1.226 . S
O41 Cd32 2.356 . S
O41 C39 1.282 . S
C42 O43 1.306 . S
C42 O45 1.160 . S
O43 C42 1.306 . S
O43 Cd44 2.228 . S
Cd44 O43 2.228 . S
Cd44 O48 2.273 . S
Cd44 O52 2.277 . S
O45 C42 1.160 . S
O45 Cd46 2.203 . S
Cd46 O45 2.203 . S
Cd46 O48 2.411 . S
Cd46 O49 2.333 . S
Cd46 O50 2.352 . S
Cd46 O54 2.277 . S
Cd46 O55 2.356 . S
C47 O52 1.209 . S
C47 O54 1.226 . S
O48 Cd44 2.273 . S
O48 Cd46 2.411 . S
O48 C51 1.320 . S
O49 Cd46 2.333 . S
O49 C51 1.214 . S
O50 Cd46 2.352 . S
O50 C53 1.258 . S
C51 O48 1.320 . S
C51 O49 1.214 . S
O52 Cd44 2.277 . S
O52 C47 1.209 . S
C53 O50 1.258 . S
C53 O55 1.282 . S
O54 Cd46 2.277 . S
O54 C47 1.226 . S
O55 Cd46 2.356 . S
O55 C53 1.282 . S
C56 O57 1.306 . S
C56 O59 1.160 . S
O57 C56 1.306 . S
O57 Cd58 2.228 . S
Cd58 O57 2.228 . S
Cd58 O62 2.273 . S
Cd58 O66 2.277 . S
O59 C56 1.160 . S
O59 Cd60 2.203 . S
Cd60 O59 2.203 . S
Cd60 O62 2.411 . S
Cd60 O63 2.333 . S
Cd60 O64 2.352 . S
Cd60 O68 2.277 . S
Cd60 O69 2.356 . S
C61 O66 1.209 . S
C61 O68 1.226 . S
O62 Cd58 2.273 . S
O62 Cd60 2.411 . S
O62 C65 1.320 . S
O63 Cd60 2.333 . S
O63 C65 1.214 . S
O64 Cd60 2.352 . S
O64 C67 1.258 . S
C65 O62 1.320 . S
C65 O63 1.214 . S
O66 Cd58 2.277 . S
O66 C61 1.209 . S
C67 O64 1.258 . S
C67 O69 1.282 . S
O68 Cd60 2.277 . S
O68 C61 1.226 . S
O69 Cd60 2.356 . S
O69 C67 1.282 . S
C70 O71 1.306 . S
C70 O73 1.160 . S
O71 C70 1.306 . S
O71 Cd72 2.228 . S
Cd72 O71 2.228 . S
Cd72 O76 2.273 . S
Cd72 O80 2.277 . S
O73 C70 1.160 . S
O73 Cd74 2.203 . S
Cd74 O73 2.203 . S
Cd74 O76 2.411 . S
Cd74 O77 2.333 . S
Cd74 O78 2.352 . S
Cd74 O82 2.277 . S
Cd74 O83 2.356 . S
C75 O80 1.209 . S
C75 O82 1.226 . S
O76 Cd72 2.273 . S
O76 Cd74 2.411 . S
O76 C79 1.320 . S
O77 Cd74 2.333 . S
O77 C79 1.214 . S
O78 Cd74 2.352 . S
O78 C81 1.258 . S
C79 O76 1.320 . S
C79 O77 1.214 . S
O80 Cd72 2.277 . S
O80 C75 1.209 . S
C81 O78 1.258 . S
C81 O83 1.282 . S
O82 Cd74 2.277 . S
O82 C75 1.226 . S
O83 Cd74 2.356 . S
O83 C81 1.282 . S
C84 O85 1.306 . S
C84 O87 1.160 . S
O85 C84 1.306 . S
O85 Cd86 2.228 1_554 S
Cd86 O85 2.228 1_556 S
Cd86 O90 2.273 . S
Cd86 O94 2.277 . S
O87 C84 1.160 . S
O87 Cd88 2.203 1_554 S
Cd88 O87 2.203 1_556 S
Cd88 O90 2.411 . S
Cd88 O91 2.333 . S
Cd88 O92 2.352 . S
Cd88 O96 2.277 . S
Cd88 O97 2.356 . S
C89 O94 1.209 . S
C89 O96 1.226 . S
O90 Cd86 2.273 . S
O90 Cd88 2.411 . S
O90 C93 1.320 . S
O91 Cd88 2.333 . S
O91 C93 1.214 . S
O92 Cd88 2.352 . S
O92 C95 1.258 . S
C93 O90 1.320 . S
C93 O91 1.214 . S
O94 Cd86 2.277 . S
O94 C89 1.209 . S
C95 O92 1.258 . S
C95 O97 1.282 . S
O96 Cd88 2.277 . S
O96 C89 1.226 . S
O97 Cd88 2.356 . S
O97 C95 1.282 . S
C98 O99 1.313 . S
C98 O101 1.160 . S
O99 C98 1.313 . S
O99 Cd100 2.225 1_655 S
Cd100 O99 2.225 1_455 S
Cd100 O104 2.273 1_455 S
Cd100 O108 2.277 1_455 S
O101 C98 1.160 . S
O101 Cd102 2.203 . S
Cd102 O101 2.203 . S
Cd102 O104 2.411 . S
Cd102 O105 2.333 . S
Cd102 O106 2.352 . S
Cd102 O110 2.277 . S
Cd102 O111 2.356 . S
C103 O108 1.209 . S
C103 O110 1.226 . S
O104 Cd100 2.273 1_655 S
O104 Cd102 2.411 . S
O104 C107 1.320 . S
O105 Cd102 2.333 . S
O105 C107 1.214 . S
O106 Cd102 2.352 . S
O106 C109 1.258 . S
C107 O104 1.320 . S
C107 O105 1.214 . S
O108 Cd100 2.277 1_655 S
O108 C103 1.209 . S
C109 O106 1.258 . S
C109 O111 1.282 . S
O110 Cd102 2.277 . S
O110 C103 1.226 . S
O111 Cd102 2.356 . S
O111 C109 1.282 . S
C112 O113 1.306 . S
C112 O115 1.160 . S
O113 C112 1.306 . S
O113 Cd114 2.228 1_554 S
Cd114 O113 2.228 1_556 S
Cd114 O118 2.273 . S
Cd114 O122 2.277 . S
O115 C112 1.160 . S
O115 Cd116 2.203 1_554 S
Cd116 O115 2.203 1_556 S
Cd116 O118 2.411 . S
Cd116 O119 2.333 . S
Cd116 O120 2.352 . S
Cd116 O124 2.277 . S
Cd116 O125 2.356 . S
C117 O122 1.209 . S
C117 O124 1.226 . S
O118 Cd114 2.273 . S
O118 Cd116 2.411 . S
O118 C121 1.320 . S
O119 Cd116 2.333 . S
O119 C121 1.214 . S
O120 Cd116 2.352 . S
O120 C123 1.258 . S
C121 O118 1.320 . S
C121 O119 1.214 . S
O122 Cd114 2.277 . S
O122 C117 1.209 . S
C123 O120 1.258 . S
C123 O125 1.282 . S
O124 Cd116 2.277 . S
O124 C117 1.226 . S
O125 Cd116 2.356 . S
O125 C123 1.282 . S
C126 O127 1.313 . S
C126 O129 1.160 . S
O127 C126 1.313 . S
O127 Cd128 2.225 1_455 S
Cd128 O127 2.225 1_655 S
Cd128 O132 2.273 1_655 S
Cd128 O136 2.277 1_655 S
O129 C126 1.160 . S
O129 Cd130 2.203 . S
Cd130 O129 2.203 . S
Cd130 O132 2.411 . S
Cd130 O133 2.333 . S
Cd130 O134 2.352 . S
Cd130 O138 2.277 . S
Cd130 O139 2.356 . S
C131 O136 1.209 . S
C131 O138 1.226 . S
O132 Cd128 2.273 1_455 S
O132 Cd130 2.411 . S
O132 C135 1.320 . S
O133 Cd130 2.333 . S
O133 C135 1.214 . S
O134 Cd130 2.352 . S
O134 C137 1.258 . S
C135 O132 1.320 . S
C135 O133 1.214 . S
O136 Cd128 2.277 1_455 S
O136 C131 1.209 . S
C137 O134 1.258 . S
C137 O139 1.282 . S
O138 Cd130 2.277 . S
O138 C131 1.226 . S
O139 Cd130 2.356 . S
O139 C137 1.282 . S
C140 O141 1.306 . S
C140 O143 1.160 . S
O141 C140 1.306 . S
O141 Cd142 2.228 . S
Cd142 O141 2.228 . S
Cd142 O146 2.273 . S
Cd142 O150 2.277 . S
O143 C140 1.160 . S
O143 Cd144 2.203 . S
Cd144 O143 2.203 . S
Cd144 O146 2.411 . S
Cd144 O147 2.333 . S
Cd144 O148 2.352 . S
Cd144 O152 2.277 . S
Cd144 O153 2.356 . S
C145 O150 1.209 . S
C145 O152 1.226 . S
O146 Cd142 2.273 . S
O146 Cd144 2.411 . S
O146 C149 1.320 . S
O147 Cd144 2.333 . S
O147 C149 1.214 . S
O148 Cd144 2.352 . S
O148 C151 1.258 . S
C149 O146 1.320 . S
C149 O147 1.214 . S
O150 Cd142 2.277 . S
O150 C145 1.209 . S
C151 O148 1.258 . S
C151 O153 1.282 . S
O152 Cd144 2.277 . S
O152 C145 1.226 . S
O153 Cd144 2.356 . S
O153 C151 1.282 . S
C154 O155 1.306 . S
C154 O157 1.160 . S
O155 C154 1.306 . S
O155 Cd156 2.228 . S
Cd156 O155 2.228 . S
Cd156 O160 2.273 . S
Cd156 O164 2.277 . S
O157 C154 1.160 . S
O157 Cd158 2.203 . S
Cd158 O157 2.203 . S
Cd158 O160 2.411 . S
Cd158 O161 2.333 . S
Cd158 O162 2.352 . S
Cd158 O166 2.277 . S
Cd158 O167 2.356 . S
C159 O164 1.209 . S
C159 O166 1.226 . S
O160 Cd156 2.273 . S
O160 Cd158 2.411 . S
O160 C163 1.320 . S
O161 Cd158 2.333 . S
O161 C163 1.214 . S
O162 Cd158 2.352 . S
O162 C165 1.258 . S
C163 O160 1.320 . S
C163 O161 1.214 . S
O164 Cd156 2.277 . S
O164 C159 1.209 . S
C165 O162 1.258 . S
C165 O167 1.282 . S
O166 Cd158 2.277 . S
O166 C159 1.226 . S
O167 Cd158 2.356 . S
O167 C165 1.282 . S
C168 O169 1.306 . S
C168 O171 1.160 . S
O169 C168 1.306 . S
O169 Cd170 2.228 . S
Cd170 O169 2.228 . S
Cd170 O174 2.273 . S
Cd170 O178 2.277 . S
O171 C168 1.160 . S
O171 Cd172 2.203 . S
Cd172 O171 2.203 . S
Cd172 O174 2.411 . S
Cd172 O175 2.333 . S
Cd172 O176 2.352 . S
Cd172 O180 2.277 . S
Cd172 O181 2.356 . S
C173 O178 1.209 . S
C173 O180 1.226 . S
O174 Cd170 2.273 . S
O174 Cd172 2.411 . S
O174 C177 1.320 . S
O175 Cd172 2.333 . S
O175 C177 1.214 . S
O176 Cd172 2.352 . S
O176 C179 1.258 . S
C177 O174 1.320 . S
C177 O175 1.214 . S
O178 Cd170 2.277 . S
O178 C173 1.209 . S
C179 O176 1.258 . S
C179 O181 1.282 . S
O180 Cd172 2.277 . S
O180 C173 1.226 . S
O181 Cd172 2.356 . S
O181 C179 1.282 . S
C182 O183 1.306 . S
C182 O185 1.160 . S
O183 C182 1.306 . S
O183 Cd184 2.228 . S
Cd184 O183 2.228 . S
Cd184 O188 2.273 . S
Cd184 O192 2.277 . S
O185 C182 1.160 . S
O185 Cd186 2.203 . S
Cd186 O185 2.203 . S
Cd186 O188 2.411 . S
Cd186 O189 2.333 . S
Cd186 O190 2.352 . S
Cd186 O194 2.277 . S
Cd186 O195 2.356 . S
C187 O192 1.209 . S
C187 O194 1.226 . S
O188 Cd184 2.273 . S
O188 Cd186 2.411 . S
O188 C191 1.320 . S
O189 Cd186 2.333 . S
O189 C191 1.214 . S
O190 Cd186 2.352 . S
O190 C193 1.258 . S
C191 O188 1.320 . S
C191 O189 1.214 . S
O192 Cd184 2.277 . S
O192 C187 1.209 . S
C193 O190 1.258 . S
C193 O195 1.282 . S
O194 Cd186 2.277 . S
O194 C187 1.226 . S
O195 Cd186 2.356 . S
O195 C193 1.282 . S
C196 O197 1.306 . S
C196 O199 1.160 . S
O197 C196 1.306 . S
O197 Cd198 2.228 1_556 S
Cd198 O197 2.228 1_554 S
Cd198 O202 2.273 . S
Cd198 O206 2.277 . S
O199 C196 1.160 . S
O199 Cd200 2.203 1_556 S
Cd200 O199 2.203 1_554 S
Cd200 O202 2.411 . S
Cd200 O203 2.333 . S
Cd200 O204 2.352 . S
Cd200 O208 2.277 . S
Cd200 O209 2.356 . S
C201 O206 1.209 . S
C201 O208 1.226 . S
O202 Cd198 2.273 . S
O202 Cd200 2.411 . S
O202 C205 1.320 . S
O203 Cd200 2.333 . S
O203 C205 1.214 . S
O204 Cd200 2.352 . S
O204 C207 1.258 . S
C205 O202 1.320 . S
C205 O203 1.214 . S
O206 Cd198 2.277 . S
O206 C201 1.209 . S
C207 O204 1.258 . S
C207 O209 1.282 . S
O208 Cd200 2.277 . S
O208 C201 1.226 . S
O209 Cd200 2.356 . S
O209 C207 1.282 . S
C210 O211 1.313 . S
C210 O213 1.160 . S
O211 C210 1.313 . S
O211 Cd212 2.225 1_455 S
Cd212 O211 2.225 1_655 S
Cd212 O216 2.273 1_655 S
Cd212 O220 2.277 1_655 S
O213 C210 1.160 . S
O213 Cd214 2.203 . S
Cd214 O213 2.203 . S
Cd214 O216 2.411 . S
Cd214 O217 2.333 . S
Cd214 O218 2.352 . S
Cd214 O222 2.277 . S
Cd214 O223 2.356 . S
C215 O220 1.209 . S
C215 O222 1.226 . S
O216 Cd212 2.273 1_455 S
O216 Cd214 2.411 . S
O216 C219 1.320 . S
O217 Cd214 2.333 . S
O217 C219 1.214 . S
O218 Cd214 2.352 . S
O218 C221 1.258 . S
C219 O216 1.320 . S
C219 O217 1.214 . S
O220 Cd212 2.277 1_455 S
O220 C215 1.209 . S
C221 O218 1.258 . S
C221 O223 1.282 . S
O222 Cd214 2.277 . S
O222 C215 1.226 . S
O223 Cd214 2.356 . S
O223 C221 1.282 . S
C224 O225 1.306 . S
C224 O227 1.160 . S
O225 C224 1.306 . S
O225 Cd226 2.228 . S
Cd226 O225 2.228 . S
Cd226 O230 2.273 . S
Cd226 O234 2.277 . S
O227 C224 1.160 . S
O227 Cd228 2.203 . S
Cd228 O227 2.203 . S
Cd228 O230 2.411 . S
Cd228 O231 2.333 . S
Cd228 O232 2.352 . S
Cd228 O236 2.277 . S
Cd228 O237 2.356 . S
C229 O234 1.209 . S
C229 O236 1.226 . S
O230 Cd226 2.273 . S
O230 Cd228 2.411 . S
O230 C233 1.320 . S
O231 Cd228 2.333 . S
O231 C233 1.214 . S
O232 Cd228 2.352 . S
O232 C235 1.258 . S
C233 O230 1.320 . S
C233 O231 1.214 . S
O234 Cd226 2.277 . S
O234 C229 1.209 . S
C235 O232 1.258 . S
C235 O237 1.282 . S
O236 Cd228 2.277 . S
O236 C229 1.226 . S
O237 Cd228 2.356 . S
O237 C235 1.282 . S
C238 O239 1.306 . S
C238 O241 1.160 . S
O239 C238 1.306 . S
O239 Cd240 2.228 . S
Cd240 O239 2.228 . S
Cd240 O244 2.273 . S
Cd240 O248 2.277 . S
O241 C238 1.160 . S
O241 Cd242 2.203 . S
Cd242 O241 2.203 . S
Cd242 O244 2.411 . S
Cd242 O245 2.333 . S
Cd242 O246 2.352 . S
Cd242 O250 2.277 . S
Cd242 O251 2.356 . S
C243 O248 1.209 . S
C243 O250 1.226 . S
O244 Cd240 2.273 . S
O244 Cd242 2.411 . S
O244 C247 1.320 . S
O245 Cd242 2.333 . S
O245 C247 1.214 . S
O246 Cd242 2.352 . S
O246 C249 1.258 . S
C247 O244 1.320 . S
C247 O245 1.214 . S
O248 Cd240 2.277 . S
O248 C243 1.209 . S
C249 O246 1.258 . S
C249 O251 1.282 . S
O250 Cd242 2.277 . S
O250 C243 1.226 . S
O251 Cd242 2.356 . S
O251 C249 1.282 . S
C252 O253 1.306 . S
C252 O255 1.160 . S
O253 C252 1.306 . S
O253 Cd254 2.228 1_556 S
Cd254 O253 2.228 1_554 S
Cd254 O258 2.273 . S
Cd254 O262 2.277 . S
O255 C252 1.160 . S
O255 Cd256 2.203 1_556 S
Cd256 O255 2.203 1_554 S
Cd256 O258 2.411 . S
Cd256 O259 2.333 . S
Cd256 O260 2.352 . S
Cd256 O264 2.277 . S
Cd256 O265 2.356 . S
C257 O262 1.209 . S
C257 O264 1.226 . S
O258 Cd254 2.273 . S
O258 Cd256 2.411 . S
O258 C261 1.320 . S
O259 Cd256 2.333 . S
O259 C261 1.214 . S
O260 Cd256 2.352 . S
O260 C263 1.258 . S
C261 O258 1.320 . S
C261 O259 1.214 . S
O262 Cd254 2.277 . S
O262 C257 1.209 . S
C263 O260 1.258 . S
C263 O265 1.282 . S
O264 Cd256 2.277 . S
O264 C257 1.226 . S
O265 Cd256 2.356 . S
O265 C263 1.282 . S
C266 O267 1.313 . S
C266 O269 1.160 . S
O267 C266 1.313 . S
O267 Cd268 2.225 1_455 S
Cd268 O267 2.225 1_655 S
Cd268 O272 2.273 1_655 S
Cd268 O276 2.277 1_655 S
O269 C266 1.160 . S
O269 Cd270 2.203 . S
Cd270 O269 2.203 . S
Cd270 O272 2.411 . S
Cd270 O273 2.333 . S
Cd270 O274 2.352 . S
Cd270 O278 2.277 . S
Cd270 O279 2.356 . S
C271 O276 1.209 . S
C271 O278 1.226 . S
O272 Cd268 2.273 1_455 S
O272 Cd270 2.411 . S
O272 C275 1.320 . S
O273 Cd270 2.333 . S
O273 C275 1.214 . S
O274 Cd270 2.352 . S
O274 C277 1.258 . S
C275 O272 1.320 . S
C275 O273 1.214 . S
O276 Cd268 2.277 1_455 S
O276 C271 1.209 . S
C277 O274 1.258 . S
C277 O279 1.282 . S
O278 Cd270 2.277 . S
O278 C271 1.226 . S
O279 Cd270 2.356 . S
O279 C277 1.282 . S
C280 O281 1.306 . S
C280 O283 1.160 . S
O281 C280 1.306 . S
O281 Cd282 2.228 1_554 S
Cd282 O281 2.228 1_556 S
Cd282 O286 2.273 . S
Cd282 O290 2.277 . S
O283 C280 1.160 . S
O283 Cd284 2.203 1_554 S
Cd284 O283 2.203 1_556 S
Cd284 O286 2.411 . S
Cd284 O287 2.333 . S
Cd284 O288 2.352 . S
Cd284 O292 2.277 . S
Cd284 O293 2.356 . S
C285 O290 1.209 . S
C285 O292 1.226 . S
O286 Cd282 2.273 . S
O286 Cd284 2.411 . S
O286 C289 1.320 . S
O287 Cd284 2.333 . S
O287 C289 1.214 . S
O288 Cd284 2.352 . S
O288 C291 1.258 . S
C289 O286 1.320 . S
C289 O287 1.214 . S
O290 Cd282 2.277 . S
O290 C285 1.209 . S
C291 O288 1.258 . S
C291 O293 1.282 . S
O292 Cd284 2.277 . S
O292 C285 1.226 . S
O293 Cd284 2.356 . S
O293 C291 1.282 . S
C294 O295 1.313 . S
C294 O297 1.160 . S
O295 C294 1.313 . S
O295 Cd296 2.225 1_455 S
Cd296 O295 2.225 1_655 S
Cd296 O300 2.273 1_655 S
Cd296 O304 2.277 1_655 S
O297 C294 1.160 . S
O297 Cd298 2.203 . S
Cd298 O297 2.203 . S
Cd298 O300 2.411 . S
Cd298 O301 2.333 . S
Cd298 O302 2.352 . S
Cd298 O306 2.277 . S
Cd298 O307 2.356 . S
C299 O304 1.209 . S
C299 O306 1.226 . S
O300 Cd296 2.273 1_455 S
O300 Cd298 2.411 . S
O300 C303 1.320 . S
O301 Cd298 2.333 . S
O301 C303 1.214 . S
O302 Cd298 2.352 . S
O302 C305 1.258 . S
C303 O300 1.320 . S
C303 O301 1.214 . S
O304 Cd296 2.277 1_455 S
O304 C299 1.209 . S
C305 O302 1.258 . S
C305 O307 1.282 . S
O306 Cd298 2.277 . S
O306 C299 1.226 . S
O307 Cd298 2.356 . S
O307 C305 1.282 . S
C308 O309 1.306 . S
C308 O311 1.160 . S
O309 C308 1.306 . S
O309 Cd310 2.228 . S
Cd310 O309 2.228 . S
Cd310 O314 2.273 . S
Cd310 O318 2.277 . S
O311 C308 1.160 . S
O311 Cd312 2.203 . S
Cd312 O311 2.203 . S
Cd312 O314 2.411 . S
Cd312 O315 2.333 . S
Cd312 O316 2.352 . S
Cd312 O320 2.277 . S
Cd312 O321 2.356 . S
C313 O318 1.209 . S
C313 O320 1.226 . S
O314 Cd310 2.273 . S
O314 Cd312 2.411 . S
O314 C317 1.320 . S
O315 Cd312 2.333 . S
O315 C317 1.214 . S
O316 Cd312 2.352 . S
O316 C319 1.258 . S
C317 O314 1.320 . S
C317 O315 1.214 . S
O318 Cd310 2.277 . S
O318 C313 1.209 . S
C319 O316 1.258 . S
C319 O321 1.282 . S
O320 Cd312 2.277 . S
O320 C313 1.226 . S
O321 Cd312 2.356 . S
O321 C319 1.282 . S
C322 O323 1.306 . S
C322 O325 1.160 . S
O323 C322 1.306 . S
O323 Cd324 2.228 . S
Cd324 O323 2.228 . S
Cd324 O328 2.273 . S
Cd324 O332 2.277 . S
O325 C322 1.160 . S
O325 Cd326 2.203 . S
Cd326 O325 2.203 . S
Cd326 O328 2.411 . S
Cd326 O329 2.333 . S
Cd326 O330 2.352 . S
Cd326 O334 2.277 . S
Cd326 O335 2.356 . S
C327 O332 1.209 . S
C327 O334 1.226 . S
O328 Cd324 2.273 . S
O328 Cd326 2.411 . S
O328 C331 1.320 . S
O329 Cd326 2.333 . S
O329 C331 1.214 . S
O330 Cd326 2.352 . S
O330 C333 1.258 . S
C331 O328 1.320 . S
C331 O329 1.214 . S
O332 Cd324 2.277 . S
O332 C327 1.209 . S
C333 O330 1.258 . S
C333 O335 1.282 . S
O334 Cd326 2.277 . S
O334 C327 1.226 . S
O335 Cd326 2.356 . S
O335 C333 1.282 . S
C336 O337 1.306 . S
C336 O339 1.160 . S
O337 C336 1.306 . S
O337 Cd338 2.228 . S
Cd338 O337 2.228 . S
Cd338 O342 2.273 . S
Cd338 O346 2.277 . S
O339 C336 1.160 . S
O339 Cd340 2.203 . S
Cd340 O339 2.203 . S
Cd340 O342 2.411 . S
Cd340 O343 2.333 . S
Cd340 O344 2.352 . S
Cd340 O348 2.277 . S
Cd340 O349 2.356 . S
C341 O346 1.209 . S
C341 O348 1.226 . S
O342 Cd338 2.273 . S
O342 Cd340 2.411 . S
O342 C345 1.320 . S
O343 Cd340 2.333 . S
O343 C345 1.214 . S
O344 Cd340 2.352 . S
O344 C347 1.258 . S
C345 O342 1.320 . S
C345 O343 1.214 . S
O346 Cd338 2.277 . S
O346 C341 1.209 . S
C347 O344 1.258 . S
C347 O349 1.282 . S
O348 Cd340 2.277 . S
O348 C341 1.226 . S
O349 Cd340 2.356 . S
O349 C347 1.282 . S
C350 O351 1.306 . S
C350 O353 1.160 . S
O351 C350 1.306 . S
O351 Cd352 2.228 . S
Cd352 O351 2.228 . S
Cd352 O356 2.273 . S
Cd352 O360 2.277 . S
O353 C350 1.160 . S
O353 Cd354 2.203 . S
Cd354 O353 2.203 . S
Cd354 O356 2.411 . S
Cd354 O357 2.333 . S
Cd354 O358 2.352 . S
Cd354 O362 2.277 . S
Cd354 O363 2.356 . S
C355 O360 1.209 . S
C355 O362 1.226 . S
O356 Cd352 2.273 . S
O356 Cd354 2.411 . S
O356 C359 1.320 . S
O357 Cd354 2.333 . S
O357 C359 1.214 . S
O358 Cd354 2.352 . S
O358 C361 1.258 . S
C359 O356 1.320 . S
C359 O357 1.214 . S
O360 Cd352 2.277 . S
O360 C355 1.209 . S
C361 O358 1.258 . S
C361 O363 1.282 . S
O362 Cd354 2.277 . S
O362 C355 1.226 . S
O363 Cd354 2.356 . S
O363 C361 1.282 . S
C364 O365 1.306 . S
C364 O367 1.160 . S
O365 C364 1.306 . S
O365 Cd366 2.228 1_554 S
Cd366 O365 2.228 1_556 S
Cd366 O370 2.273 . S
Cd366 O374 2.277 . S
O367 C364 1.160 . S
O367 Cd368 2.203 1_554 S
Cd368 O367 2.203 1_556 S
Cd368 O370 2.411 . S
Cd368 O371 2.333 . S
Cd368 O372 2.352 . S
Cd368 O376 2.277 . S
Cd368 O377 2.356 . S
C369 O374 1.209 . S
C369 O376 1.226 . S
O370 Cd366 2.273 . S
O370 Cd368 2.411 . S
O370 C373 1.320 . S
O371 Cd368 2.333 . S
O371 C373 1.214 . S
O372 Cd368 2.352 . S
O372 C375 1.258 . S
C373 O370 1.320 . S
C373 O371 1.214 . S
O374 Cd366 2.277 . S
O374 C369 1.209 . S
C375 O372 1.258 . S
C375 O377 1.282 . S
O376 Cd368 2.277 . S
O376 C369 1.226 . S
O377 Cd368 2.356 . S
O377 C375 1.282 . S
C378 O379 1.313 . S
C378 O381 1.160 . S
O379 C378 1.313 . S
O379 Cd380 2.225 1_655 S
Cd380 O379 2.225 1_455 S
Cd380 O384 2.273 1_455 S
Cd380 O388 2.277 1_455 S
O381 C378 1.160 . S
O381 Cd382 2.203 . S
Cd382 O381 2.203 . S
Cd382 O384 2.411 . S
Cd382 O385 2.333 . S
Cd382 O386 2.352 . S
Cd382 O390 2.277 . S
Cd382 O391 2.356 . S
C383 O388 1.209 . S
C383 O390 1.226 . S
O384 Cd380 2.273 1_655 S
O384 Cd382 2.411 . S
O384 C387 1.320 . S
O385 Cd382 2.333 . S
O385 C387 1.214 . S
O386 Cd382 2.352 . S
O386 C389 1.258 . S
C387 O384 1.320 . S
C387 O385 1.214 . S
O388 Cd380 2.277 1_655 S
O388 C383 1.209 . S
C389 O386 1.258 . S
C389 O391 1.282 . S
O390 Cd382 2.277 . S
O390 C383 1.226 . S
O391 Cd382 2.356 . S
O391 C389 1.282 . S
C392 O393 1.306 . S
C392 O395 1.160 . S
O393 C392 1.306 . S
O393 Cd394 2.228 1_556 S
Cd394 O393 2.228 1_554 S
Cd394 O398 2.273 . S
Cd394 O402 2.277 . S
O395 C392 1.160 . S
O395 Cd396 2.203 1_556 S
Cd396 O395 2.203 1_554 S
Cd396 O398 2.411 . S
Cd396 O399 2.333 . S
Cd396 O400 2.352 . S
Cd396 O404 2.277 . S
Cd396 O405 2.356 . S
C397 O402 1.209 . S
C397 O404 1.226 . S
O398 Cd394 2.273 . S
O398 Cd396 2.411 . S
O398 C401 1.320 . S
O399 Cd396 2.333 . S
O399 C401 1.214 . S
O400 Cd396 2.352 . S
O400 C403 1.258 . S
C401 O398 1.320 . S
C401 O399 1.214 . S
O402 Cd394 2.277 . S
O402 C397 1.209 . S
C403 O400 1.258 . S
C403 O405 1.282 . S
O404 Cd396 2.277 . S
O404 C397 1.226 . S
O405 Cd396 2.356 . S
O405 C403 1.282 . S
C406 O407 1.313 . S
C406 O409 1.160 . S
O407 C406 1.313 . S
O407 Cd408 2.225 1_655 S
Cd408 O407 2.225 1_455 S
Cd408 O412 2.273 1_455 S
Cd408 O416 2.277 1_455 S
O409 C406 1.160 . S
O409 Cd410 2.203 . S
Cd410 O409 2.203 . S
Cd410 O412 2.411 . S
Cd410 O413 2.333 . S
Cd410 O414 2.352 . S
Cd410 O418 2.277 . S
Cd410 O419 2.356 . S
C411 O416 1.209 . S
C411 O418 1.226 . S
O412 Cd408 2.273 1_655 S
O412 Cd410 2.411 . S
O412 C415 1.320 . S
O413 Cd410 2.333 . S
O413 C415 1.214 . S
O414 Cd410 2.352 . S
O414 C417 1.258 . S
C415 O412 1.320 . S
C415 O413 1.214 . S
O416 Cd408 2.277 1_655 S
O416 C411 1.209 . S
C417 O414 1.258 . S
C417 O419 1.282 . S
O418 Cd410 2.277 . S
O418 C411 1.226 . S
O419 Cd410 2.356 . S
O419 C417 1.282 . S
C420 O421 1.306 . S
C420 O423 1.160 . S
O421 C420 1.306 . S
O421 Cd422 2.228 . S
Cd422 O421 2.228 . S
Cd422 O426 2.273 . S
Cd422 O430 2.277 . S
O423 C420 1.160 . S
O423 Cd424 2.203 . S
Cd424 O423 2.203 . S
Cd424 O426 2.411 . S
Cd424 O427 2.333 . S
Cd424 O428 2.352 . S
Cd424 O432 2.277 . S
Cd424 O433 2.356 . S
C425 O430 1.209 . S
C425 O432 1.226 . S
O426 Cd422 2.273 . S
O426 Cd424 2.411 . S
O426 C429 1.320 . S
O427 Cd424 2.333 . S
O427 C429 1.214 . S
O428 Cd424 2.352 . S
O428 C431 1.258 . S
C429 O426 1.320 . S
C429 O427 1.214 . S
O430 Cd422 2.277 . S
O430 C425 1.209 . S
C431 O428 1.258 . S
C431 O433 1.282 . S
O432 Cd424 2.277 . S
O432 C425 1.226 . S
O433 Cd424 2.356 . S
O433 C431 1.282 . S
C434 O435 1.306 . S
C434 O437 1.160 . S
O435 C434 1.306 . S
O435 Cd436 2.228 . S
Cd436 O435 2.228 . S
Cd436 O440 2.273 . S
Cd436 O444 2.277 . S
O437 C434 1.160 . S
O437 Cd438 2.203 . S
Cd438 O437 2.203 . S
Cd438 O440 2.411 . S
Cd438 O441 2.333 . S
Cd438 O442 2.352 . S
Cd438 O446 2.277 . S
Cd438 O447 2.356 . S
C439 O444 1.209 . S
C439 O446 1.226 . S
O440 Cd436 2.273 . S
O440 Cd438 2.411 . S
O440 C443 1.320 . S
O441 Cd438 2.333 . S
O441 C443 1.214 . S
O442 Cd438 2.352 . S
O442 C445 1.258 . S
C443 O440 1.320 . S
C443 O441 1.214 . S
O444 Cd436 2.277 . S
O444 C439 1.209 . S
C445 O442 1.258 . S
C445 O447 1.282 . S
O446 Cd438 2.277 . S
O446 C439 1.226 . S
O447 Cd438 2.356 . S
O447 C445 1.282 . S
C448 C449 1.387 . S
C448 H452 0.950 . S
C448 C457 1.390 1_556 S
C449 C448 1.387 . S
C449 C451 1.387 . S
H450 C457 0.950 . S
C451 C449 1.387 . S
C451 C453 1.390 1_556 S
C451 H455 0.950 . S
H452 C448 0.950 . S
C453 C451 1.390 1_554 S
C453 C454 1.387 . S
C453 H456 0.950 . S
C454 C453 1.387 . S
C454 C457 1.387 . S
H455 C451 0.950 . S
H456 C453 0.950 . S
C457 C448 1.390 1_554 S
C457 H450 0.950 . S
C457 C454 1.387 . S
C458 C459 1.387 . S
C458 H462 0.950 . S
C458 C467 1.390 1_565 S
C459 C458 1.387 . S
C459 C461 1.387 . S
H460 C467 0.950 . S
C461 C459 1.387 . S
C461 C463 1.390 1_565 S
C461 H465 0.950 . S
H462 C458 0.950 . S
C463 C461 1.390 1_545 S
C463 C464 1.387 . S
C463 H466 0.950 . S
C464 C463 1.387 . S
C464 C467 1.387 . S
H465 C461 0.950 . S
H466 C463 0.950 . S
C467 C458 1.390 1_545 S
C467 H460 0.950 . S
C467 C464 1.387 . S
C468 C469 1.387 . S
C468 H472 0.950 . S
C468 C477 1.390 . S
C469 C468 1.387 . S
C469 C471 1.387 . S
H470 C477 0.950 . S
C471 C469 1.387 . S
C471 C473 1.390 . S
C471 H475 0.950 . S
H472 C468 0.950 . S
C473 C471 1.390 . S
C473 C474 1.387 . S
C473 H476 0.950 . S
C474 C473 1.387 . S
C474 C477 1.387 . S
H475 C471 0.950 . S
H476 C473 0.950 . S
C477 C468 1.390 . S
C477 H470 0.950 . S
C477 C474 1.387 . S
C478 C479 1.387 . S
C478 H482 0.950 . S
C478 C487 1.390 1_545 S
C479 C478 1.387 . S
C479 C481 1.387 . S
H480 C487 0.950 . S
C481 C479 1.387 . S
C481 C483 1.390 1_545 S
C481 H485 0.950 . S
H482 C478 0.950 . S
C483 C481 1.390 1_565 S
C483 C484 1.387 . S
C483 H486 0.950 . S
C484 C483 1.387 . S
C484 C487 1.387 . S
H485 C481 0.950 . S
H486 C483 0.950 . S
C487 C478 1.390 1_565 S
C487 H480 0.950 . S
C487 C484 1.387 . S
C488 C489 1.387 . S
C488 H492 0.950 . S
C488 C497 1.390 1_554 S
C489 C488 1.387 . S
C489 C491 1.387 . S
H490 C497 0.950 . S
C491 C489 1.387 . S
C491 C493 1.390 1_554 S
C491 H495 0.950 . S
H492 C488 0.950 . S
C493 C491 1.390 1_556 S
C493 C494 1.387 . S
C493 H496 0.950 . S
C494 C493 1.387 . S
C494 C497 1.387 . S
H495 C491 0.950 . S
H496 C493 0.950 . S
C497 C488 1.390 1_556 S
C497 H490 0.950 . S
C497 C494 1.387 . S
C498 C499 1.387 . S
C498 H502 0.950 . S
C498 C507 1.390 1_565 S
C499 C498 1.387 . S
C499 C501 1.387 . S
H500 C507 0.950 . S
C501 C499 1.387 . S
C501 C503 1.390 1_565 S
C501 H505 0.950 . S
H502 C498 0.950 . S
C503 C501 1.390 1_545 S
C503 C504 1.387 . S
C503 H506 0.950 . S
C504 C503 1.387 . S
C504 C507 1.387 . S
H505 C501 0.950 . S
H506 C503 0.950 . S
C507 C498 1.390 1_545 S
C507 H500 0.950 . S
C507 C504 1.387 . S
C508 C509 1.387 . S
C508 H512 0.950 . S
C508 C517 1.390 . S
C509 C508 1.387 . S
C509 C511 1.387 . S
H510 C517 0.950 . S
C511 C509 1.387 . S
C511 C513 1.390 . S
C511 H515 0.950 . S
H512 C508 0.950 . S
C513 C511 1.390 . S
C513 C514 1.387 . S
C513 H516 0.950 . S
C514 C513 1.387 . S
C514 C517 1.387 . S
H515 C511 0.950 . S
H516 C513 0.950 . S
C517 C508 1.390 . S
C517 H510 0.950 . S
C517 C514 1.387 . S
C518 C519 1.387 . S
C518 H522 0.950 . S
C518 C527 1.390 1_565 S
C519 C518 1.387 . S
C519 C521 1.387 . S
H520 C527 0.950 . S
C521 C519 1.387 . S
C521 C523 1.390 1_565 S
C521 H525 0.950 . S
H522 C518 0.950 . S
C523 C521 1.390 1_545 S
C523 C524 1.387 . S
C523 H526 0.950 . S
C524 C523 1.387 . S
C524 C527 1.387 . S
H525 C521 0.950 . S
H526 C523 0.950 . S
C527 C518 1.390 1_545 S
C527 H520 0.950 . S
C527 C524 1.387 . S
C528 C529 1.387 . S
C528 H532 0.950 . S
C528 C537 1.390 . S
C529 C528 1.387 . S
C529 C531 1.387 . S
H530 C537 0.950 . S
C531 C529 1.387 . S
C531 C533 1.390 . S
C531 H535 0.950 . S
H532 C528 0.950 . S
C533 C531 1.390 . S
C533 C534 1.387 . S
C533 H536 0.950 . S
C534 C533 1.387 . S
C534 C537 1.387 . S
H535 C531 0.950 . S
H536 C533 0.950 . S
C537 C528 1.390 . S
C537 H530 0.950 . S
C537 C534 1.387 . S
C538 C539 1.387 . S
C538 H542 0.950 . S
C538 C547 1.390 . S
C539 C538 1.387 . S
C539 C541 1.387 . S
H540 C547 0.950 . S
C541 C539 1.387 . S
C541 C543 1.390 . S
C541 H545 0.950 . S
H542 C538 0.950 . S
C543 C541 1.390 . S
C543 C544 1.387 . S
C543 H546 0.950 . S
C544 C543 1.387 . S
C544 C547 1.387 . S
H545 C541 0.950 . S
H546 C543 0.950 . S
C547 C538 1.390 . S
C547 H540 0.950 . S
C547 C544 1.387 . S
C548 C549 1.387 . S
C548 H552 0.950 . S
C548 C557 1.390 1_556 S
C549 C548 1.387 . S
C549 C551 1.387 . S
H550 C557 0.950 . S
C551 C549 1.387 . S
C551 C553 1.390 1_556 S
C551 H555 0.950 . S
H552 C548 0.950 . S
C553 C551 1.390 1_554 S
C553 C554 1.387 . S
C553 H556 0.950 . S
C554 C553 1.387 . S
C554 C557 1.387 . S
H555 C551 0.950 . S
H556 C553 0.950 . S
C557 C548 1.390 1_554 S
C557 H550 0.950 . S
C557 C554 1.387 . S
C558 C559 1.387 . S
C558 H562 0.950 . S
C558 C567 1.390 . S
C559 C558 1.387 . S
C559 C561 1.387 . S
H560 C567 0.950 . S
C561 C559 1.387 . S
C561 C563 1.390 . S
C561 H565 0.950 . S
H562 C558 0.950 . S
C563 C561 1.390 . S
C563 C564 1.387 . S
C563 H566 0.950 . S
C564 C563 1.387 . S
C564 C567 1.387 . S
H565 C561 0.950 . S
H566 C563 0.950 . S
C567 C558 1.390 . S
C567 H560 0.950 . S
C567 C564 1.387 . S
C568 C569 1.387 . S
C568 H572 0.950 . S
C568 C577 1.390 . S
C569 C568 1.387 . S
C569 C571 1.387 . S
H570 C577 0.950 . S
C571 C569 1.387 . S
C571 C573 1.390 . S
C571 H575 0.950 . S
H572 C568 0.950 . S
C573 C571 1.390 . S
C573 C574 1.387 . S
C573 H576 0.950 . S
C574 C573 1.387 . S
C574 C577 1.387 . S
H575 C571 0.950 . S
H576 C573 0.950 . S
C577 C568 1.390 . S
C577 H570 0.950 . S
C577 C574 1.387 . S
C578 C579 1.387 . S
C578 H582 0.950 . S
C578 C587 1.390 . S
C579 C578 1.387 . S
C579 C581 1.387 . S
H580 C587 0.950 . S
C581 C579 1.387 . S
C581 C583 1.390 . S
C581 H585 0.950 . S
H582 C578 0.950 . S
C583 C581 1.390 . S
C583 C584 1.387 . S
C583 H586 0.950 . S
C584 C583 1.387 . S
C584 C587 1.387 . S
H585 C581 0.950 . S
H586 C583 0.950 . S
C587 C578 1.390 . S
C587 H580 0.950 . S
C587 C584 1.387 . S
C588 C589 1.387 . S
C588 H592 0.950 . S
C588 C597 1.390 1_554 S
C589 C588 1.387 . S
C589 C591 1.387 . S
H590 C597 0.950 . S
C591 C589 1.387 . S
C591 C593 1.390 1_554 S
C591 H595 0.950 . S
H592 C588 0.950 . S
C593 C591 1.390 1_556 S
C593 C594 1.387 . S
C593 H596 0.950 . S
C594 C593 1.387 . S
C594 C597 1.387 . S
H595 C591 0.950 . S
H596 C593 0.950 . S
C597 C588 1.390 1_556 S
C597 H590 0.950 . S
C597 C594 1.387 . S
C598 C599 1.387 . S
C598 H602 0.950 . S
C598 C607 1.390 . S
C599 C598 1.387 . S
C599 C601 1.387 . S
H600 C607 0.950 . S
C601 C599 1.387 . S
C601 C603 1.390 . S
C601 H605 0.950 . S
H602 C598 0.950 . S
C603 C601 1.390 . S
C603 C604 1.387 . S
C603 H606 0.950 . S
C604 C603 1.387 . S
C604 C607 1.387 . S
H605 C601 0.950 . S
H606 C603 0.950 . S
C607 C598 1.390 . S
C607 H600 0.950 . S
C607 C604 1.387 . S
C608 C609 1.387 . S
C608 H612 0.950 . S
C608 C617 1.390 . S
C609 C608 1.387 . S
C609 C611 1.387 . S
H610 C617 0.950 . S
C611 C609 1.387 . S
C611 C613 1.390 . S
C611 H615 0.950 . S
H612 C608 0.950 . S
C613 C611 1.390 . S
C613 C614 1.387 . S
C613 H616 0.950 . S
C614 C613 1.387 . S
C614 C617 1.387 . S
H615 C611 0.950 . S
H616 C613 0.950 . S
C617 C608 1.390 . S
C617 H610 0.950 . S
C617 C614 1.387 . S
C618 C619 1.387 1_554 S
C618 H622 0.950 1_554 S
C618 C627 1.382 1_455 S
C619 C618 1.387 1_556 S
C619 C621 1.387 1_456 S
H620 C627 0.949 1_455 S
C621 C619 1.387 1_654 S
C621 C623 1.390 . S
C621 H625 0.950 . S
H622 C618 0.950 1_556 S
C623 C621 1.390 . S
C623 C624 1.387 . S
C623 H626 0.950 . S
C624 C623 1.387 . S
C624 C627 1.397 . S
H625 C621 0.950 . S
H626 C623 0.950 . S
C627 C618 1.382 1_655 S
C627 H620 0.949 1_655 S
C627 C624 1.397 . S
C628 C629 1.387 . S
C628 H632 0.950 . S
C628 C637 1.390 . S
C629 C628 1.387 . S
C629 C631 1.387 . S
H630 C637 0.950 . S
C631 C629 1.387 . S
C631 C633 1.390 . S
C631 H635 0.950 . S
H632 C628 0.950 . S
C633 C631 1.390 . S
C633 C634 1.387 . S
C633 H636 0.950 . S
C634 C633 1.387 . S
C634 C637 1.387 . S
H635 C631 0.950 . S
H636 C633 0.950 . S
C637 C628 1.390 . S
C637 H630 0.950 . S
C637 C634 1.387 . S
C638 C639 1.387 . S
C638 H642 0.950 . S
C638 C647 1.390 . S
C639 C638 1.387 . S
C639 C641 1.387 . S
H640 C647 0.950 . S
C641 C639 1.387 . S
C641 C643 1.390 . S
C641 H645 0.950 . S
H642 C638 0.950 . S
C643 C641 1.390 . S
C643 C644 1.387 . S
C643 H646 0.950 . S
C644 C643 1.387 . S
C644 C647 1.387 . S
H645 C641 0.950 . S
H646 C643 0.950 . S
C647 C638 1.390 . S
C647 H640 0.950 . S
C647 C644 1.387 . S
C648 C649 1.387 . S
C648 H652 0.950 . S
C648 C657 1.390 . S
C649 C648 1.387 . S
C649 C651 1.387 . S
H650 C657 0.950 . S
C651 C649 1.387 . S
C651 C653 1.390 . S
C651 H655 0.950 . S
H652 C648 0.950 . S
C653 C651 1.390 . S
C653 C654 1.387 . S
C653 H656 0.950 . S
C654 C653 1.387 . S
C654 C657 1.387 . S
H655 C651 0.950 . S
H656 C653 0.950 . S
C657 C648 1.390 . S
C657 H650 0.950 . S
C657 C654 1.387 . S
C658 C659 1.387 1_556 S
C658 H662 0.950 . S
C658 C667 1.390 . S
C659 C658 1.387 1_554 S
C659 C661 1.387 1_554 S
H660 C667 0.950 . S
C661 C659 1.387 1_556 S
C661 C663 1.390 . S
C661 H665 0.950 1_556 S
H662 C658 0.950 . S
C663 C661 1.390 . S
C663 C664 1.387 . S
C663 H666 0.950 . S
C664 C663 1.387 . S
C664 C667 1.387 . S
H665 C661 0.950 1_554 S
H666 C663 0.950 . S
C667 C658 1.390 . S
C667 H660 0.950 . S
C667 C664 1.387 . S
C668 C669 1.387 . S
C668 H672 0.950 . S
C668 C677 1.390 . S
C669 C668 1.387 . S
C669 C671 1.387 . S
H670 C677 0.950 . S
C671 C669 1.387 . S
C671 C673 1.390 . S
C671 H675 0.950 . S
H672 C668 0.950 . S
C673 C671 1.390 . S
C673 C674 1.387 . S
C673 H676 0.950 . S
C674 C673 1.387 . S
C674 C677 1.387 . S
H675 C671 0.950 . S
H676 C673 0.950 . S
C677 C668 1.390 . S
C677 H670 0.950 . S
C677 C674 1.387 . S
C678 C679 1.380 1_655 S
C678 H682 0.949 1_655 S
C678 C687 1.399 . S
C679 C678 1.380 1_455 S
C679 C681 1.387 . S
H680 C687 0.950 . S
C681 C679 1.387 . S
C681 C683 1.390 1_455 S
C681 H685 0.950 . S
H682 C678 0.949 1_455 S
C683 C681 1.390 1_655 S
C683 C684 1.387 . S
C683 H686 0.950 . S
C684 C683 1.387 . S
C684 C687 1.387 . S
H685 C681 0.950 . S
H686 C683 0.950 . S
C687 C678 1.399 . S
C687 H680 0.950 . S
C687 C684 1.387 . S
C688 C689 1.387 . S
C688 H692 0.950 . S
C688 C697 1.390 . S
C689 C688 1.387 . S
C689 C691 1.387 . S
H690 C697 0.950 . S
C691 C689 1.387 . S
C691 C693 1.390 . S
C691 H695 0.950 . S
H692 C688 0.950 . S
C693 C691 1.390 . S
C693 C694 1.387 . S
C693 H696 0.950 . S
C694 C693 1.387 . S
C694 C697 1.387 . S
H695 C691 0.950 . S
H696 C693 0.950 . S
C697 C688 1.390 . S
C697 H690 0.950 . S
C697 C694 1.387 . S
C698 C699 1.387 1_556 S
C698 H702 0.950 . S
C698 C707 1.390 1_655 S
C699 C698 1.387 1_554 S
C699 C701 1.387 1_554 S
H700 C707 0.950 . S
C701 C699 1.387 1_556 S
C701 C703 1.390 1_655 S
C701 H705 0.950 1_556 S
H702 C698 0.950 . S
C703 C701 1.390 1_455 S
C703 C704 1.387 . S
C703 H706 0.950 . S
C704 C703 1.387 . S
C704 C707 1.387 . S
H705 C701 0.950 1_554 S
H706 C703 0.950 . S
C707 C698 1.390 1_455 S
C707 H700 0.950 . S
C707 C704 1.387 . S
C708 C709 1.387 . S
C708 H712 0.950 . S
C708 C717 1.390 . S
C709 C708 1.387 . S
C709 C711 1.387 . S
H710 C717 0.950 . S
C711 C709 1.387 . S
C711 C713 1.390 . S
C711 H715 0.950 . S
H712 C708 0.950 . S
C713 C711 1.390 . S
C713 C714 1.387 . S
C713 H716 0.950 . S
C714 C713 1.387 . S
C714 C717 1.387 . S
H715 C711 0.950 . S
H716 C713 0.950 . S
C717 C708 1.390 . S
C717 H710 0.950 . S
C717 C714 1.387 . S
C718 C719 1.387 . S
C718 H722 0.950 . S
C718 C727 1.390 . S
C719 C718 1.387 . S
C719 C721 1.387 . S
H720 C727 0.950 . S
C721 C719 1.387 . S
C721 C723 1.390 . S
C721 H725 0.950 . S
H722 C718 0.950 . S
C723 C721 1.390 . S
C723 C724 1.387 . S
C723 H726 0.950 . S
C724 C723 1.387 . S
C724 C727 1.387 . S
H725 C721 0.950 . S
H726 C723 0.950 . S
C727 C718 1.390 . S
C727 H720 0.950 . S
C727 C724 1.387 . S
C728 C729 1.387 . S
C728 H732 0.950 . S
C728 C737 1.390 . S
C729 C728 1.387 . S
C729 C731 1.387 . S
H730 C737 0.950 . S
C731 C729 1.387 . S
C731 C733 1.390 . S
C731 H735 0.950 . S
H732 C728 0.950 . S
C733 C731 1.390 . S
C733 C734 1.387 . S
C733 H736 0.950 . S
C734 C733 1.387 . S
C734 C737 1.387 . S
H735 C731 0.950 . S
H736 C733 0.950 . S
C737 C728 1.390 . S
C737 H730 0.950 . S
C737 C734 1.387 . S
C738 C739 1.387 . S
C738 H742 0.950 . S
C738 C747 1.390 . S
C739 C738 1.387 . S
C739 C741 1.387 . S
H740 C747 0.950 1_556 S
C741 C739 1.387 . S
C741 C743 1.390 . S
C741 H745 0.950 . S
H742 C738 0.950 . S
C743 C741 1.390 . S
C743 C744 1.387 1_554 S
C743 H746 0.950 . S
C744 C743 1.387 1_556 S
C744 C747 1.387 1_556 S
H745 C741 0.950 . S
H746 C743 0.950 . S
C747 C738 1.390 . S
C747 H740 0.950 1_554 S
C747 C744 1.387 1_554 S
C748 C749 1.387 . S
C748 H752 0.950 . S
C748 C757 1.390 . S
C749 C748 1.387 . S
C749 C751 1.387 . S
H750 C757 0.950 . S
C751 C749 1.387 . S
C751 C753 1.390 . S
C751 H755 0.950 . S
H752 C748 0.950 . S
C753 C751 1.390 . S
C753 C754 1.387 . S
C753 H756 0.950 . S
C754 C753 1.387 . S
C754 C757 1.387 . S
H755 C751 0.950 . S
H756 C753 0.950 . S
C757 C748 1.390 . S
C757 H750 0.950 . S
C757 C754 1.387 . S
C758 C759 1.387 1_455 S
C758 H762 0.950 . S
C758 C767 1.390 . S
C759 C758 1.387 1_655 S
C759 C761 1.387 . S
H760 C767 0.950 . S
C761 C759 1.387 . S
C761 C763 1.390 . S
C761 H765 0.950 . S
H762 C758 0.950 . S
C763 C761 1.390 . S
C763 C764 1.387 1_655 S
C763 H766 0.950 . S
C764 C763 1.387 1_455 S
C764 C767 1.387 . S
H765 C761 0.950 . S
H766 C763 0.950 . S
C767 C758 1.390 . S
C767 H760 0.950 . S
C767 C764 1.387 . S
C768 C769 1.387 . S
C768 H772 0.950 . S
C768 C777 1.390 . S
C769 C768 1.387 . S
C769 C771 1.387 . S
H770 C777 0.950 . S
C771 C769 1.387 . S
C771 C773 1.390 . S
C771 H775 0.950 . S
H772 C768 0.950 . S
C773 C771 1.390 . S
C773 C774 1.387 . S
C773 H776 0.950 . S
C774 C773 1.387 . S
C774 C777 1.387 . S
H775 C771 0.950 . S
H776 C773 0.950 . S
C777 C768 1.390 . S
C777 H770 0.950 . S
C777 C774 1.387 . S
C778 C779 1.387 . S
C778 H782 0.950 . S
C778 C787 1.390 . S
C779 C778 1.387 . S
C779 C781 1.387 . S
H780 C787 0.950 . S
C781 C779 1.387 . S
C781 C783 1.390 . S
C781 H785 0.950 . S
H782 C778 0.950 . S
C783 C781 1.390 . S
C783 C784 1.387 . S
C783 H786 0.950 . S
C784 C783 1.387 . S
C784 C787 1.387 . S
H785 C781 0.950 . S
H786 C783 0.950 . S
C787 C778 1.390 . S
C787 H780 0.950 . S
C787 C784 1.387 . S
C788 C789 1.387 . S
C788 H792 0.950 . S
C788 C797 1.390 . S
C789 C788 1.387 . S
C789 C791 1.387 . S
H790 C797 0.950 . S
C791 C789 1.387 . S
C791 C793 1.390 . S
C791 H795 0.950 . S
H792 C788 0.950 . S
C793 C791 1.390 . S
C793 C794 1.387 . S
C793 H796 0.950 . S
C794 C793 1.387 . S
C794 C797 1.387 . S
H795 C791 0.950 . S
H796 C793 0.950 . S
C797 C788 1.390 . S
C797 H790 0.950 . S
C797 C794 1.387 . S
C798 C799 1.387 . S
C798 H802 0.950 . S
C798 C807 1.390 1_455 S
C799 C798 1.387 . S
C799 C801 1.387 . S
H800 C807 0.950 1_556 S
C801 C799 1.387 . S
C801 C803 1.390 1_455 S
C801 H805 0.950 . S
H802 C798 0.950 . S
C803 C801 1.390 1_655 S
C803 C804 1.387 1_554 S
C803 H806 0.950 . S
C804 C803 1.387 1_556 S
C804 C807 1.387 1_556 S
H805 C801 0.950 . S
H806 C803 0.950 . S
C807 C798 1.390 1_655 S
C807 H800 0.950 1_554 S
C807 C804 1.387 1_554 S
C808 C809 1.387 . S
C808 H812 0.950 . S
C808 C817 1.390 . S
C809 C808 1.387 . S
C809 C811 1.387 . S
H810 C817 0.950 . S
C811 C809 1.387 . S
C811 C813 1.390 . S
C811 H815 0.950 . S
H812 C808 0.950 . S
C813 C811 1.390 . S
C813 C814 1.387 . S
C813 H816 0.950 . S
C814 C813 1.387 . S
C814 C817 1.387 . S
H815 C811 0.950 . S
H816 C813 0.950 . S
C817 C808 1.390 . S
C817 H810 0.950 . S
C817 C814 1.387 . S
C818 C819 1.387 . S
C818 H822 0.950 . S
C818 C827 1.390 . S
C819 C818 1.387 . S
C819 C821 1.387 1_655 S
H820 C827 0.950 . S
C821 C819 1.387 1_455 S
C821 C823 1.390 . S
C821 H825 0.950 . S
H822 C818 0.950 . S
C823 C821 1.390 . S
C823 C824 1.387 . S
C823 H826 0.950 . S
C824 C823 1.387 . S
C824 C827 1.387 1_455 S
H825 C821 0.950 . S
H826 C823 0.950 . S
C827 C818 1.390 . S
C827 H820 0.950 . S
C827 C824 1.387 1_655 S
C828 C829 1.387 . S
C828 H832 0.950 . S
C828 C837 1.390 . S
C829 C828 1.387 . S
C829 C831 1.387 . S
H830 C837 0.950 . S
C831 C829 1.387 . S
C831 C833 1.390 . S
C831 H835 0.950 . S
H832 C828 0.950 . S
C833 C831 1.390 . S
C833 C834 1.387 . S
C833 H836 0.950 . S
C834 C833 1.387 . S
C834 C837 1.387 . S
H835 C831 0.950 . S
H836 C833 0.950 . S
C837 C828 1.390 . S
C837 H830 0.950 . S
C837 C834 1.387 . S
C838 C839 1.387 1_556 S
C838 H842 0.950 . S
C838 C847 1.390 . S
C839 C838 1.387 1_554 S
C839 C841 1.387 1_554 S
H840 C847 0.950 . S
C841 C839 1.387 1_556 S
C841 C843 1.390 . S
C841 H845 0.950 1_556 S
H842 C838 0.950 . S
C843 C841 1.390 . S
C843 C844 1.387 . S
C843 H846 0.950 . S
C844 C843 1.387 . S
C844 C847 1.387 . S
H845 C841 0.950 1_554 S
H846 C843 0.950 . S
C847 C838 1.390 . S
C847 H840 0.950 . S
C847 C844 1.387 . S
C848 C849 1.387 . S
C848 H852 0.950 . S
C848 C857 1.390 . S
C849 C848 1.387 . S
C849 C851 1.387 . S
H850 C857 0.950 . S
C851 C849 1.387 . S
C851 C853 1.390 . S
C851 H855 0.950 . S
H852 C848 0.950 . S
C853 C851 1.390 . S
C853 C854 1.387 . S
C853 H856 0.950 . S
C854 C853 1.387 . S
C854 C857 1.387 . S
H855 C851 0.950 . S
H856 C853 0.950 . S
C857 C848 1.390 . S
C857 H850 0.950 . S
C857 C854 1.387 . S
C858 C859 1.387 . S
C858 H862 0.950 . S
C858 C867 1.390 . S
C859 C858 1.387 . S
C859 C861 1.387 . S
H860 C867 0.950 . S
C861 C859 1.387 . S
C861 C863 1.390 . S
C861 H865 0.950 . S
H862 C858 0.950 . S
C863 C861 1.390 . S
C863 C864 1.387 . S
C863 H866 0.950 . S
C864 C863 1.387 . S
C864 C867 1.387 . S
H865 C861 0.950 . S
H866 C863 0.950 . S
C867 C858 1.390 . S
C867 H860 0.950 . S
C867 C864 1.387 . S
C868 C869 1.387 . S
C868 H872 0.950 . S
C868 C877 1.390 . S
C869 C868 1.387 . S
C869 C871 1.387 . S
H870 C877 0.950 . S
C871 C869 1.387 . S
C871 C873 1.390 . S
C871 H875 0.950 . S
H872 C868 0.950 . S
C873 C871 1.390 . S
C873 C874 1.387 . S
C873 H876 0.950 . S
C874 C873 1.387 . S
C874 C877 1.387 . S
H875 C871 0.950 . S
H876 C873 0.950 . S
C877 C868 1.390 . S
C877 H870 0.950 . S
C877 C874 1.387 . S
C878 C879 1.387 . S
C878 H882 0.950 . S
C878 C887 1.390 1_655 S
C879 C878 1.387 . S
C879 C881 1.387 . S
H880 C887 0.950 1_554 S
C881 C879 1.387 . S
C881 C883 1.390 1_655 S
C881 H885 0.950 . S
H882 C878 0.950 . S
C883 C881 1.390 1_455 S
C883 C884 1.387 1_556 S
C883 H886 0.950 . S
C884 C883 1.387 1_554 S
C884 C887 1.387 1_554 S
H885 C881 0.950 . S
H886 C883 0.950 . S
C887 C878 1.390 1_455 S
C887 H880 0.950 1_556 S
C887 C884 1.387 1_556 S
C888 C889 1.387 . S
C888 H892 0.950 . S
C888 C897 1.390 . S
C889 C888 1.387 . S
C889 C891 1.387 . S
H890 C897 0.950 . S
C891 C889 1.387 . S
C891 C893 1.390 . S
C891 H895 0.950 . S
H892 C888 0.950 . S
C893 C891 1.390 . S
C893 C894 1.387 . S
C893 H896 0.950 . S
C894 C893 1.387 . S
C894 C897 1.387 . S
H895 C891 0.950 . S
H896 C893 0.950 . S
C897 C888 1.390 . S
C897 H890 0.950 . S
C897 C894 1.387 . S
C898 C899 1.387 . S
C898 H902 0.950 . S
C898 C907 1.390 1_655 S
C899 C898 1.387 . S
C899 C901 1.387 . S
H900 C907 0.950 . S
C901 C899 1.387 . S
C901 C903 1.390 1_655 S
C901 H905 0.950 . S
H902 C898 0.950 . S
C903 C901 1.390 1_455 S
C903 C904 1.387 . S
C903 H906 0.950 . S
C904 C903 1.387 . S
C904 C907 1.387 . S
H905 C901 0.950 . S
H906 C903 0.950 . S
C907 C898 1.390 1_455 S
C907 H900 0.950 . S
C907 C904 1.387 . S
C908 C909 1.387 . S
C908 H912 0.950 . S
C908 C917 1.390 . S
C909 C908 1.387 . S
C909 C911 1.387 . S
H910 C917 0.950 . S
C911 C909 1.387 . S
C911 C913 1.390 . S
C911 H915 0.950 . S
H912 C908 0.950 . S
C913 C911 1.390 . S
C913 C914 1.387 . S
C913 H916 0.950 . S
C914 C913 1.387 . S
C914 C917 1.387 . S
H915 C911 0.950 . S
H916 C913 0.950 . S
C917 C908 1.390 . S
C917 H910 0.950 . S
C917 C914 1.387 . S
C918 C919 1.387 . S
C918 H922 0.950 . S
C918 C927 1.390 . S
C919 C918 1.387 . S
C919 C921 1.387 . S
H920 C927 0.950 . S
C921 C919 1.387 . S
C921 C923 1.390 . S
C921 H925 0.950 . S
H922 C918 0.950 . S
C923 C921 1.390 . S
C923 C924 1.387 1_554 S
C923 H926 0.950 1_554 S
C924 C923 1.387 1_556 S
C924 C927 1.387 1_556 S
H925 C921 0.950 . S
H926 C923 0.950 1_556 S
C927 C918 1.390 . S
C927 H920 0.950 . S
C927 C924 1.387 1_554 S
C928 C929 1.387 . S
C928 H932 0.950 . S
C928 C937 1.390 . S
C929 C928 1.387 . S
C929 C931 1.387 . S
H930 C937 0.950 . S
C931 C929 1.387 . S
C931 C933 1.390 . S
C931 H935 0.950 . S
H932 C928 0.950 . S
C933 C931 1.390 . S
C933 C934 1.387 . S
C933 H936 0.950 . S
C934 C933 1.387 . S
C934 C937 1.387 . S
H935 C931 0.950 . S
H936 C933 0.950 . S
C937 C928 1.390 . S
C937 H930 0.950 . S
C937 C934 1.387 . S
C938 C939 1.387 . S
C938 H942 0.950 . S
C938 C947 1.390 . S
C939 C938 1.387 . S
C939 C941 1.387 . S
H940 C947 0.950 . S
C941 C939 1.387 . S
C941 C943 1.390 . S
C941 H945 0.950 . S
H942 C938 0.950 . S
C943 C941 1.390 . S
C943 C944 1.387 . S
C943 H946 0.950 . S
C944 C943 1.387 . S
C944 C947 1.387 . S
H945 C941 0.950 . S
H946 C943 0.950 . S
C947 C938 1.390 . S
C947 H940 0.950 . S
C947 C944 1.387 . S
C948 C949 1.387 . S
C948 H952 0.950 . S
C948 C957 1.390 . S
C949 C948 1.387 . S
C949 C951 1.387 . S
H950 C957 0.950 . S
C951 C949 1.387 . S
C951 C953 1.390 . S
C951 H955 0.950 . S
H952 C948 0.950 . S
C953 C951 1.390 . S
C953 C954 1.387 . S
C953 H956 0.950 . S
C954 C953 1.387 . S
C954 C957 1.387 . S
H955 C951 0.950 . S
H956 C953 0.950 . S
C957 C948 1.390 . S
C957 H950 0.950 . S
C957 C954 1.387 . S
C958 C959 1.387 . S
C958 H962 0.950 . S
C958 C967 1.390 . S
C959 C958 1.387 . S
C959 C961 1.387 . S
H960 C967 0.950 . S
C961 C959 1.387 . S
C961 C963 1.390 . S
C961 H965 0.950 . S
H962 C958 0.950 . S
C963 C961 1.390 . S
C963 C964 1.387 . S
C963 H966 0.950 . S
C964 C963 1.387 . S
C964 C967 1.387 . S
H965 C961 0.950 . S
H966 C963 0.950 . S
C967 C958 1.390 . S
C967 H960 0.950 . S
C967 C964 1.387 . S
C968 C969 1.387 . S
C968 H972 0.950 . S
C968 C977 1.390 . S
C969 C968 1.387 . S
C969 C971 1.387 . S
H970 C977 0.950 . S
C971 C969 1.387 . S
C971 C973 1.390 . S
C971 H975 0.950 . S
H972 C968 0.950 . S
C973 C971 1.390 . S
C973 C974 1.387 . S
C973 H976 0.950 . S
C974 C973 1.387 . S
C974 C977 1.387 . S
H975 C971 0.950 . S
H976 C973 0.950 . S
C977 C968 1.390 . S
C977 H970 0.950 . S
C977 C974 1.387 . S
C978 C979 1.387 . S
C978 H982 0.950 . S
C978 C987 1.390 . S
C979 C978 1.387 . S
C979 C981 1.387 . S
H980 C987 0.950 . S
C981 C979 1.387 . S
C981 C983 1.390 . S
C981 H985 0.950 . S
H982 C978 0.950 . S
C983 C981 1.390 . S
C983 C984 1.387 . S
C983 H986 0.950 . S
C984 C983 1.387 . S
C984 C987 1.387 . S
H985 C981 0.950 . S
H986 C983 0.950 . S
C987 C978 1.390 . S
C987 H980 0.950 . S
C987 C984 1.387 . S
C988 C989 1.387 . S
C988 H992 0.950 . S
C988 C997 1.390 . S
C989 C988 1.387 . S
C989 C991 1.387 . S
H990 C997 0.950 . S
C991 C989 1.387 . S
C991 C993 1.390 . S
C991 H995 0.950 . S
H992 C988 0.950 . S
C993 C991 1.390 . S
C993 C994 1.387 . S
C993 H996 0.950 . S
C994 C993 1.387 . S
C994 C997 1.387 . S
H995 C991 0.950 . S
H996 C993 0.950 . S
C997 C988 1.390 . S
C997 H990 0.950 . S
C997 C994 1.387 . S
C998 C999 1.387 . S
C998 H1002 0.950 . S
C998 C1007 1.390 . S
C999 C998 1.387 . S
C999 C1001 1.387 . S
H1000 C1007 0.950 . S
C1001 C999 1.387 . S
C1001 C1003 1.390 . S
C1001 H1005 0.950 . S
H1002 C998 0.950 . S
C1003 C1001 1.390 . S
C1003 C1004 1.387 . S
C1003 H1006 0.950 . S
C1004 C1003 1.387 . S
C1004 C1007 1.387 . S
H1005 C1001 0.950 . S
H1006 C1003 0.950 . S
C1007 C998 1.390 . S
C1007 H1000 0.950 . S
C1007 C1004 1.387 . S
C1008 C1009 1.387 . S
C1008 H1012 0.950 . S
C1008 C1017 1.390 . S
C1009 C1008 1.387 . S
C1009 C1011 1.387 . S
H1010 C1017 0.950 . S
C1011 C1009 1.387 . S
C1011 C1013 1.390 . S
C1011 H1015 0.950 . S
H1012 C1008 0.950 . S
C1013 C1011 1.390 . S
C1013 C1014 1.387 . S
C1013 H1016 0.950 . S
C1014 C1013 1.387 . S
C1014 C1017 1.387 . S
H1015 C1011 0.950 . S
H1016 C1013 0.950 . S
C1017 C1008 1.390 . S
C1017 H1010 0.950 . S
C1017 C1014 1.387 . S
C1018 C1019 1.387 . S
C1018 H1022 0.950 . S
C1018 C1027 1.390 . S
C1019 C1018 1.387 . S
C1019 C1021 1.387 . S
H1020 C1027 0.950 . S
C1021 C1019 1.387 . S
C1021 C1023 1.390 . S
C1021 H1025 0.950 . S
H1022 C1018 0.950 . S
C1023 C1021 1.390 . S
C1023 C1024 1.387 . S
C1023 H1026 0.950 . S
C1024 C1023 1.387 . S
C1024 C1027 1.387 . S
H1025 C1021 0.950 . S
H1026 C1023 0.950 . S
C1027 C1018 1.390 . S
C1027 H1020 0.950 . S
C1027 C1024 1.387 . S
C1028 C1029 1.387 . S
C1028 H1032 0.950 . S
C1028 C1037 1.390 . S
C1029 C1028 1.387 . S
C1029 C1031 1.387 . S
H1030 C1037 0.950 . S
C1031 C1029 1.387 . S
C1031 C1033 1.390 . S
C1031 H1035 0.950 . S
H1032 C1028 0.950 . S
C1033 C1031 1.390 . S
C1033 C1034 1.387 . S
C1033 H1036 0.950 . S
C1034 C1033 1.387 . S
C1034 C1037 1.387 . S
H1035 C1031 0.950 . S
H1036 C1033 0.950 . S
C1037 C1028 1.390 . S
C1037 H1030 0.950 . S
C1037 C1034 1.387 . S
C1038 C1039 1.387 . S
C1038 H1042 0.950 . S
C1038 C1047 1.390 . S
C1039 C1038 1.387 . S
C1039 C1041 1.387 . S
H1040 C1047 0.950 . S
C1041 C1039 1.387 . S
C1041 C1043 1.390 . S
C1041 H1045 0.950 . S
H1042 C1038 0.950 . S
C1043 C1041 1.390 . S
C1043 C1044 1.387 . S
C1043 H1046 0.950 . S
C1044 C1043 1.387 . S
C1044 C1047 1.387 . S
H1045 C1041 0.950 . S
H1046 C1043 0.950 . S
C1047 C1038 1.390 . S
C1047 H1040 0.950 . S
C1047 C1044 1.387 . S
C1048 C1049 1.387 . S
C1048 H1052 0.950 . S
C1048 C1057 1.390 . S
C1049 C1048 1.387 . S
C1049 C1051 1.387 . S
H1050 C1057 0.950 . S
C1051 C1049 1.387 . S
C1051 C1053 1.390 . S
C1051 H1055 0.950 . S
H1052 C1048 0.950 . S
C1053 C1051 1.390 . S
C1053 C1054 1.387 . S
C1053 H1056 0.950 . S
C1054 C1053 1.387 . S
C1054 C1057 1.387 . S
H1055 C1051 0.950 . S
H1056 C1053 0.950 . S
C1057 C1048 1.390 . S
C1057 H1050 0.950 . S
C1057 C1054 1.387 . S
C1058 C1059 1.387 . S
C1058 H1062 0.950 . S
C1058 C1067 1.390 . S
C1059 C1058 1.387 . S
C1059 C1061 1.387 . S
H1060 C1067 0.950 . S
C1061 C1059 1.387 . S
C1061 C1063 1.390 . S
C1061 H1065 0.950 . S
H1062 C1058 0.950 . S
C1063 C1061 1.390 . S
C1063 C1064 1.387 . S
C1063 H1066 0.950 . S
C1064 C1063 1.387 . S
C1064 C1067 1.387 . S
H1065 C1061 0.950 . S
H1066 C1063 0.950 . S
C1067 C1058 1.390 . S
C1067 H1060 0.950 . S
C1067 C1064 1.387 . S
C1068 C1069 1.387 . S
C1068 H1072 0.950 . S
C1068 C1077 1.390 . S
C1069 C1068 1.387 . S
C1069 C1071 1.387 . S
H1070 C1077 0.950 . S
C1071 C1069 1.387 . S
C1071 C1073 1.390 . S
C1071 H1075 0.950 . S
H1072 C1068 0.950 . S
C1073 C1071 1.390 . S
C1073 C1074 1.387 . S
C1073 H1076 0.950 . S
C1074 C1073 1.387 . S
C1074 C1077 1.387 . S
H1075 C1071 0.950 . S
H1076 C1073 0.950 . S
C1077 C1068 1.390 . S
C1077 H1070 0.950 . S
C1077 C1074 1.387 . S
C1078 C1079 1.387 . S
C1078 H1082 0.950 . S
C1078 C1087 1.390 . S
C1079 C1078 1.387 . S
C1079 C1081 1.387 . S
H1080 C1087 0.950 . S
C1081 C1079 1.387 . S
C1081 C1083 1.390 . S
C1081 H1085 0.950 . S
H1082 C1078 0.950 . S
C1083 C1081 1.390 . S
C1083 C1084 1.387 . S
C1083 H1086 0.950 . S
C1084 C1083 1.387 . S
C1084 C1087 1.387 . S
H1085 C1081 0.950 . S
H1086 C1083 0.950 . S
C1087 C1078 1.390 . S
C1087 H1080 0.950 . S
C1087 C1084 1.387 . S
C449 C89 1.498 . S
C454 C5 1.498 . S
C459 C19 1.496 . S
C464 C103 1.496 . S
C469 C61 1.498 . S
C474 C33 1.498 . S
C479 C47 1.498 . S
C484 C75 1.498 . S
C489 C201 1.498 . S
C494 C117 1.498 . S
C499 C215 1.498 . S
C504 C131 1.498 . S
C509 C145 1.498 . S
C514 C173 1.498 . S
C519 C159 1.496 . S
C524 C187 1.496 . S
C529 C229 1.498 . S
C534 C313 1.498 . S
C539 C243 1.496 . S
C544 C327 1.496 . S
C549 C285 1.498 . S
C554 C257 1.498 . S
C559 C299 1.496 . S
C564 C271 1.496 . S
C569 C341 1.496 . S
C574 C425 1.496 . S
C579 C439 1.498 . S
C584 C355 1.498 . S
C589 C397 1.496 . S
C594 C369 1.496 . S
C599 C383 1.496 . S
C604 C411 1.496 . S
C609 C0 1.308 . S
C614 C429 1.342 . S
C619 C219 1.344 . S
C624 C14 1.308 . S
C629 C28 1.308 . S
C634 C401 1.342 . S
C639 C42 1.309 . S
C644 C191 1.342 . S
C649 C373 1.344 . S
C654 C56 1.309 . S
C659 C163 1.343 . S
C664 C70 1.310 . S
C669 C84 1.310 . S
C674 C345 1.344 . S
C679 C135 1.342 . S
C684 C98 1.310 . S
C689 C112 1.310 . S
C694 C317 1.343 . S
C699 C107 1.344 . S
C704 C126 1.309 . S
C709 C140 1.310 . S
C714 C289 1.344 . S
C719 C154 1.310 . S
C724 C79 1.343 . S
C729 C261 1.343 . S
C734 C168 1.307 . S
C739 C182 1.309 . S
C744 C51 1.342 . S
C749 C196 1.308 . S
C754 C233 1.343 . S
C759 C23 1.343 . S
C764 C210 1.307 . S
C769 C224 1.310 . S
C774 C205 1.344 . S
C779 C238 1.310 . S
C784 C443 1.343 . S
C789 C177 1.343 . S
C794 C252 1.310 . S
C799 C266 1.309 . S
C804 C415 1.344 . S
C809 C149 1.343 . S
C814 C280 1.308 . S
C819 C387 1.342 . S
C824 C294 1.307 . S
C829 C121 1.344 . S
C834 C308 1.310 . S
C839 C359 1.342 . S
C844 C322 1.309 . S
C849 C336 1.310 . S
C854 C93 1.343 . S
C859 C331 1.344 . S
C864 C350 1.309 . S
C869 C65 1.342 . S
C874 C364 1.309 . S
C879 C378 1.310 . S
C884 C303 1.342 . S
C889 C392 1.308 . S
C894 C37 1.342 . S
C899 C406 1.309 . S
C904 C275 1.344 . S
C909 C9 1.343 . S
C914 C420 1.307 . S
C919 C434 1.309 . S
C924 C247 1.344 . S
C929 C11 1.443 . S
C934 C305 1.444 . S
C939 C319 1.442 . S
C944 C25 1.443 . S
C949 C39 1.445 . S
C954 C333 1.445 . S
C959 C291 1.444 . S
C964 C53 1.443 . S
C969 C277 1.444 . S
C974 C67 1.444 . S
C979 C235 1.445 . S
C984 C81 1.445 . S
C989 C249 1.444 . S
C994 C95 1.444 . S
C999 C263 1.444 . S
C1004 C109 1.443 . S
C1009 C123 1.444 . S
C1014 C417 1.444 . S
C1019 C431 1.444 . S
C1024 C137 1.444 . S
C1029 C445 1.444 . S
C1034 C151 1.444 . S
C1039 C403 1.445 . S
C1044 C165 1.444 . S
C1049 C389 1.444 . S
C1054 C179 1.443 . S
C1059 C347 1.443 . S
C1064 C193 1.443 . S
C1069 C207 1.443 . S
C1074 C361 1.444 . S
C1079 C221 1.443 . S
C1084 C375 1.443 . S
