# Generated by pormake.
# Topology lcy-e, (6)-cn, num edge types: 1
# Building blocks:
#     Node 0, Type 0, BuildingBlock: CIFDUS_clean_sbu_1, # of connection points: 6
#     Node 1, Type 0, BuildingBlock: CIFDUS_clean_sbu_1, # of connection points: 6
#     Node 2, Type 0, BuildingBlock: CIFDUS_clean_sbu_1, # of connection points: 6
#     Node 3, Type 0, BuildingBlock: CIFDUS_clean_sbu_1, # of connection points: 6
#     Node 4, Type 0, BuildingBlock: CIFDUS_clean_sbu_1, # of connection points: 6
#     Node 5, Type 0, BuildingBlock: CIFDUS_clean_sbu_1, # of connection points: 6
#     Node 6, Type 0, BuildingBlock: CIFDUS_clean_sbu_1, # of connection points: 6
#     Node 7, Type 0, BuildingBlock: CIFDUS_clean_sbu_1, # of connection points: 6
#     Node 8, Type 0, BuildingBlock: CIFDUS_clean_sbu_1, # of connection points: 6
#     Node 9, Type 0, BuildingBlock: CIFDUS_clean_sbu_1, # of connection points: 6
#     Node 10, Type 0, BuildingBlock: CIFDUS_clean_sbu_1, # of connection points: 6
#     Node 11, Type 0, BuildingBlock: CIFDUS_clean_sbu_1, # of connection points: 6
#     Edge 12, Type (0, 0), BuildingBlock: XUDNAN_clean_linker_2, # of connection points: 2
#     Edge 13, Type (0, 0), BuildingBlock: XUDNAN_clean_linker_2, # of connection points: 2
#     Edge 14, Type (0, 0), BuildingBlock: XUDNAN_clean_linker_2, # of connection points: 2
#     Edge 15, Type (0, 0), BuildingBlock: XUDNAN_clean_linker_2, # of connection points: 2
#     Edge 16, Type (0, 0), BuildingBlock: XUDNAN_clean_linker_2, # of connection points: 2
#     Edge 17, Type (0, 0), BuildingBlock: XUDNAN_clean_linker_2, # of connection points: 2
#     Edge 18, Type (0, 0), BuildingBlock: XUDNAN_clean_linker_2, # of connection points: 2
#     Edge 19, Type (0, 0), BuildingBlock: XUDNAN_clean_linker_2, # of connection points: 2
#     Edge 20, Type (0, 0), BuildingBlock: XUDNAN_clean_linker_2, # of connection points: 2
#     Edge 21, Type (0, 0), BuildingBlock: XUDNAN_clean_linker_2, # of connection points: 2
#     Edge 22, Type (0, 0), BuildingBlock: XUDNAN_clean_linker_2, # of connection points: 2
#     Edge 23, Type (0, 0), BuildingBlock: XUDNAN_clean_linker_2, # of connection points: 2
#     Edge 24, Type (0, 0), BuildingBlock: XUDNAN_clean_linker_2, # of connection points: 2
#     Edge 25, Type (0, 0), BuildingBlock: XUDNAN_clean_linker_2, # of connection points: 2
#     Edge 26, Type (0, 0), BuildingBlock: XUDNAN_clean_linker_2, # of connection points: 2
#     Edge 27, Type (0, 0), BuildingBlock: XUDNAN_clean_linker_2, # of connection points: 2
#     Edge 28, Type (0, 0), BuildingBlock: XUDNAN_clean_linker_2, # of connection points: 2
#     Edge 29, Type (0, 0), BuildingBlock: XUDNAN_clean_linker_2, # of connection points: 2
#     Edge 30, Type (0, 0), BuildingBlock: XUDNAN_clean_linker_2, # of connection points: 2
#     Edge 31, Type (0, 0), BuildingBlock: XUDNAN_clean_linker_2, # of connection points: 2
#     Edge 32, Type (0, 0), BuildingBlock: XUDNAN_clean_linker_2, # of connection points: 2
#     Edge 33, Type (0, 0), BuildingBlock: XUDNAN_clean_linker_2, # of connection points: 2
#     Edge 34, Type (0, 0), BuildingBlock: XUDNAN_clean_linker_2, # of connection points: 2
#     Edge 35, Type (0, 0), BuildingBlock: XUDNAN_clean_linker_2, # of connection points: 2
#     Edge 36, Type (0, 0), BuildingBlock: XUDNAN_clean_linker_2, # of connection points: 2
#     Edge 37, Type (0, 0), BuildingBlock: XUDNAN_clean_linker_2, # of connection points: 2
#     Edge 38, Type (0, 0), BuildingBlock: XUDNAN_clean_linker_2, # of connection points: 2
#     Edge 39, Type (0, 0), BuildingBlock: XUDNAN_clean_linker_2, # of connection points: 2
#     Edge 40, Type (0, 0), BuildingBlock: XUDNAN_clean_linker_2, # of connection points: 2
#     Edge 41, Type (0, 0), BuildingBlock: XUDNAN_clean_linker_2, # of connection points: 2
#     Edge 42, Type (0, 0), BuildingBlock: XUDNAN_clean_linker_2, # of connection points: 2
#     Edge 43, Type (0, 0), BuildingBlock: XUDNAN_clean_linker_2, # of connection points: 2
#     Edge 44, Type (0, 0), BuildingBlock: XUDNAN_clean_linker_2, # of connection points: 2
#     Edge 45, Type (0, 0), BuildingBlock: XUDNAN_clean_linker_2, # of connection points: 2
#     Edge 46, Type (0, 0), BuildingBlock: XUDNAN_clean_linker_2, # of connection points: 2
#     Edge 47, Type (0, 0), BuildingBlock: XUDNAN_clean_linker_2, # of connection points: 2
# Relax obj value: 0.274
# Max RMSD: 0.265
# Mean RMSD: 0.265
data_MOF--net-lcy-e--node1-CIFDUS_clean_sbu_1--edge1-XUDNAN_clean_linker_2
_symmetry_space_group_name_H-M    P1
_symmetry_Int_Tables_number       1
_symmetry_cell_setting            triclinic
loop_
_symmetry_equiv_pos_as_xyz
'x, y, z'
_cell_length_a     36.008866
_cell_length_b     35.993803
_cell_length_c     36.032914
_cell_angle_alpha  89.961368
_cell_angle_beta   89.917175
_cell_angle_gamma 89.995172
loop_
_atom_site_label
_atom_site_type_symbol
_atom_site_fract_x
_atom_site_fract_y
_atom_site_fract_z
_atom_type_partial_charge
O0 O 0.09213 0.15015 0.43346 0.0
Mn1 Mn 0.1228 0.19737 0.44848 0.0
O2 O 0.03606 0.17198 0.41516 0.0
Mn3 Mn 0.04508 0.2222 0.42098 0.0
O4 O 0.15177 0.24486 0.46459 0.0
O5 O 0.15221 0.16724 0.48348 0.0
Mn6 Mn 0.19996 0.17669 0.48411 0.0
O7 O 0.16174 0.18656 0.40639 0.0
O8 O 0.20219 0.22676 0.49724 0.0
O9 O 0.08603 0.20863 0.49207 0.0
O10 O 0.03696 0.23897 0.46839 0.0
O11 O 0.19042 0.13844 0.51844 0.0
O12 O 0.21385 0.16662 0.43558 0.0
C13 C 0.08474 0.24901 0.38533 0.0
C14 C 0.05842 0.14544 0.42235 0.0
C15 C 0.18028 0.25183 0.48492 0.0
C16 C 0.15634 0.14201 0.50796 0.0
C17 C 0.19529 0.174 0.40626 0.0
C18 C 0.05577 0.22712 0.49576 0.0
O19 O 0.093 0.22749 0.41262 0.0
O20 O 0.04946 0.25431 0.3811 0.0
O21 O 0.09318 0.84023 0.68174 0.0
Mn22 Mn 0.05149 0.87712 0.69883 0.0
O23 O 0.06359 0.78498 0.67704 0.0
Mn24 Mn 0.01451 0.80123 0.68155 0.0
O25 O 0.00883 0.91295 0.71663 0.0
O26 O 0.08932 0.90292 0.7305 0.0
Mn27 Mn 0.0848 0.95096 0.7271 0.0
O28 O 0.05997 0.91446 0.65391 0.0
O29 O 0.03719 0.96227 0.7425 0.0
O30 O 0.04012 0.84401 0.74524 0.0
O31 O 0.99734 0.80156 0.73007 0.0
O32 O 0.12372 0.94332 0.75898 0.0
O33 O 0.09476 0.96052 0.67806 0.0
C34 C 0.99554 0.84019 0.63959 0.0
C35 C 0.0932 0.80467 0.67705 0.0
C36 C 0.00791 0.94444 0.73365 0.0
C37 C 0.11787 0.90864 0.75141 0.0
C38 C 0.07674 0.94614 0.65134 0.0
C39 C 0.0155 0.81976 0.75431 0.0
O40 O 0.01539 0.8485 0.66802 0.0
O41 O 0.98531 0.80576 0.63919 0.0
O42 O 0.34252 0.81324 0.90162 0.0
Mn43 Mn 0.37652 0.80284 0.94712 0.0
O44 O 0.28701 0.81394 0.9301 0.0
Mn45 Mn 0.30461 0.82237 0.97776 0.0
O46 O 0.40936 0.79051 0.99349 0.0
O47 O 0.40284 0.76625 0.91589 0.0
Mn48 Mn 0.44934 0.76009 0.92724 0.0
O49 O 0.41623 0.84308 0.93234 0.0
O50 O 0.44636 0.7433 0.97563 0.0
O51 O 0.34222 0.75793 0.9636 0.0
O52 O 0.3073 0.78173 0.00768 0.0
O53 O 0.43959 0.73067 0.88557 0.0
O54 O 0.46823 0.80806 0.92399 0.0
C55 C 0.33149 0.87022 0.99455 0.0
C56 C 0.30689 0.8121 0.90089 0.0
C57 C 0.43143 0.76333 0.00069 0.0
C58 C 0.4066 0.74449 0.88813 0.0
C59 C 0.45171 0.83941 0.92762 0.0
C60 C 0.32278 0.75401 0.99312 0.0
O61 O 0.34899 0.84407 0.97613 0.0
O62 O 0.29624 0.86566 0.00057 0.0
O63 O 0.43841 0.09279 0.1529 0.0
Mn64 Mn 0.45318 0.12856 0.19583 0.0
O65 O 0.43149 0.03629 0.17911 0.0
Mn66 Mn 0.43834 0.05113 0.22801 0.0
O67 O 0.46812 0.16384 0.23984 0.0
O68 O 0.48294 0.1577 0.15905 0.0
Mn69 Mn 0.48093 0.20544 0.16838 0.0
O70 O 0.40687 0.16174 0.18485 0.0
O71 O 0.50142 0.21042 0.21482 0.0
O72 O 0.50164 0.09893 0.20769 0.0
O73 O 0.48654 0.05111 0.24453 0.0
O74 O 0.50858 0.20001 0.12539 0.0
O75 O 0.43085 0.21708 0.16666 0.0
C76 C 0.39752 0.08571 0.25461 0.0
C77 C 0.43205 0.05773 0.15091 0.0
C78 C 0.48908 0.19265 0.24281 0.0
C79 C 0.5016 0.16496 0.12938 0.0
C80 C 0.40358 0.19598 0.17501 0.0
C81 C 0.51032 0.07262 0.22999 0.0
O82 O 0.42221 0.09776 0.23129 0.0
O83 O 0.39982 0.05043 0.26134 0.0
O84 O 0.66428 0.31412 0.59188 0.0
Mn85 Mn 0.62907 0.2983 0.54827 0.0
O86 O 0.71691 0.33528 0.5645 0.0
Mn87 Mn 0.70401 0.32732 0.51521 0.0
O88 O 0.59741 0.28555 0.50033 0.0
O89 O 0.60374 0.26225 0.5869 0.0
Mn90 Mn 0.56469 0.26267 0.55557 0.0
O91 O 0.59248 0.34037 0.5637 0.0
O92 O 0.56986 0.23386 0.51428 0.0
O93 O 0.66487 0.25495 0.5332 0.0
O94 O 0.71114 0.279 0.49859 0.0
O95 O 0.54574 0.23832 0.59318 0.0
O96 O 0.54234 0.30866 0.54835 0.0
C97 C 0.65971 0.36147 0.49276 0.0
C98 C 0.69736 0.32784 0.5932 0.0
C99 C 0.58116 0.25574 0.48986 0.0
C100 C 0.57907 0.24274 0.60603 0.0
C101 C 0.55742 0.33876 0.55867 0.0
C102 C 0.69321 0.25144 0.51176 0.0
O103 O 0.65555 0.33375 0.51482 0.0
O104 O 0.69394 0.36743 0.48381 0.0
O105 O 0.93333 0.40585 0.84252 0.0
Mn106 Mn 0.9499 0.37636 0.79591 0.0
O107 O 0.94447 0.46183 0.82124 0.0
Mn108 Mn 0.93408 0.44821 0.77255 0.0
O109 O 0.96416 0.34672 0.74807 0.0
O110 O 0.98627 0.34837 0.82848 0.0
Mn111 Mn 0.99043 0.30348 0.80922 0.0
O112 O 0.90939 0.33695 0.80897 0.0
O113 O 0.01058 0.30867 0.76268 0.0
O114 O 0.99504 0.41232 0.7829 0.0
O115 O 0.97368 0.45283 0.74211 0.0
O116 O 0.02032 0.30334 0.85033 0.0
O117 O 0.94279 0.28376 0.81129 0.0
C118 C 0.88236 0.42557 0.76018 0.0
C119 C 0.93653 0.44063 0.84793 0.0
C120 C 0.99111 0.32542 0.73877 0.0
C121 C 0.00912 0.33733 0.85404 0.0
C122 C 0.91202 0.30145 0.81279 0.0
C123 C 0.00067 0.43607 0.75679 0.0
O124 O 0.91195 0.40415 0.76233 0.0
O125 O 0.88782 0.46115 0.76186 0.0
O126 O 0.91227 0.65497 0.05414 0.0
Mn127 Mn 0.87595 0.69963 0.04496 0.0
O128 O 0.96233 0.67966 0.08306 0.0
Mn129 Mn 0.94854 0.72909 0.08157 0.0
O130 O 0.84224 0.74773 0.03535 0.0
O131 O 0.85285 0.66906 0.00183 0.0
Mn132 Mn 0.8089 0.69205 0.00993 0.0
O133 O 0.83976 0.67684 0.08411 0.0
O134 O 0.80952 0.73546 0.98497 0.0
O135 O 0.91262 0.72209 0.0056 0.0
O136 O 0.95696 0.75304 0.0367 0.0
O137 O 0.79518 0.64874 0.99154 0.0
O138 O 0.78901 0.69679 0.05732 0.0
C139 C 0.90386 0.74659 0.11704 0.0
C140 C 0.94441 0.65224 0.06959 0.0
C141 C 0.82303 0.75885 0.00714 0.0
C142 C 0.83048 0.64165 0.99264 0.0
C143 C 0.80503 0.68325 0.08529 0.0
C144 C 0.94069 0.74416 0.00654 0.0
O145 O 0.90001 0.7281 0.08662 0.0
O146 O 0.93792 0.75453 0.12508 0.0
O147 O 0.5944 0.65758 0.32135 0.0
Mn148 Mn 0.55165 0.62476 0.30053 0.0
O149 O 0.5719 0.71378 0.30954 0.0
Mn150 Mn 0.52187 0.69963 0.31075 0.0
O151 O 0.50987 0.59069 0.27935 0.0
O152 O 0.59007 0.59679 0.27069 0.0
Mn153 Mn 0.58634 0.54942 0.28141 0.0
O154 O 0.55533 0.58799 0.34662 0.0
O155 O 0.53821 0.53594 0.26805 0.0
O156 O 0.54504 0.65844 0.25241 0.0
O157 O 0.49974 0.69845 0.26542 0.0
O158 O 0.62283 0.55222 0.24616 0.0
O159 O 0.59813 0.54608 0.33073 0.0
C160 C 0.50554 0.67311 0.35994 0.0
C161 C 0.59867 0.69274 0.31866 0.0
C162 C 0.50933 0.55666 0.2684 0.0
C163 C 0.6153 0.58739 0.24681 0.0
C164 C 0.57589 0.5597 0.35434 0.0
C165 C 0.51849 0.68013 0.24202 0.0
O166 O 0.5124 0.65428 0.3296 0.0
O167 O 0.50203 0.70871 0.3556 0.0
O168 O 0.18921 0.40999 0.1596 0.0
Mn169 Mn 0.20411 0.45207 0.12196 0.0
O170 O 0.18432 0.44261 0.21329 0.0
Mn171 Mn 0.18991 0.49096 0.1964 0.0
O172 O 0.21899 0.49639 0.08853 0.0
O173 O 0.23479 0.41676 0.09191 0.0
Mn174 Mn 0.23429 0.42963 0.04449 0.0
O175 O 0.15848 0.44033 0.08767 0.0
O176 O 0.25468 0.47705 0.0416 0.0
O177 O 0.25198 0.46309 0.15331 0.0
O178 O 0.23813 0.50822 0.1934 0.0
O179 O 0.26249 0.3867 0.04812 0.0
O180 O 0.18446 0.4262 0.03196 0.0
C181 C 0.14697 0.511 0.16042 0.0
C182 C 0.18322 0.41214 0.19495 0.0
C183 C 0.24158 0.50287 0.06186 0.0
C184 C 0.2543 0.38815 0.08307 0.0
C185 C 0.15635 0.43112 0.05309 0.0
C186 C 0.26179 0.4886 0.17615 0.0
O187 O 0.17301 0.4883 0.15081 0.0
O188 O 0.14933 0.52217 0.19447 0.0
O189 O 0.68063 0.08655 0.83547 0.0
Mn190 Mn 0.70037 0.04697 0.87282 0.0
O191 O 0.66952 0.05518 0.78214 0.0
Mn192 Mn 0.68217 0.00732 0.79732 0.0
O193 O 0.7198 0.00652 0.90911 0.0
O194 O 0.72883 0.08749 0.90055 0.0
Mn195 Mn 0.71484 0.08101 0.94737 0.0
O196 O 0.65141 0.0528 0.90493 0.0
O197 O 0.73159 0.03523 0.963 0.0
O198 O 0.74795 0.03831 0.84 0.0
O199 O 0.73255 0.99668 0.79571 0.0
O200 O 0.74572 0.12005 0.94975 0.0
O201 O 0.66522 0.08923 0.95304 0.0
C202 C 0.64712 0.98486 0.84137 0.0
C203 C 0.67039 0.08506 0.80131 0.0
C204 C 0.73103 0.00622 0.94288 0.0
C205 C 0.74931 0.114 0.91443 0.0
C206 C 0.64201 0.07123 0.93394 0.0
C207 C 0.75663 0.01557 0.81363 0.0
O208 O 0.67381 0.00784 0.8452 0.0
O209 O 0.64366 0.97356 0.80755 0.0
O210 O 0.80533 0.89822 0.33882 0.0
Mn211 Mn 0.80105 0.94507 0.37485 0.0
O212 O 0.82963 0.92096 0.28634 0.0
Mn213 Mn 0.82138 0.96912 0.29916 0.0
O214 O 0.79353 0.99256 0.4089 0.0
O215 O 0.76699 0.91319 0.40609 0.0
Mn216 Mn 0.76676 0.93127 0.45137 0.0
O217 O 0.84468 0.92803 0.40894 0.0
O218 O 0.74695 0.97825 0.4472 0.0
O219 O 0.75472 0.96401 0.34541 0.0
O220 O 0.77435 0.98647 0.29121 0.0
O221 O 0.73896 0.88826 0.45304 0.0
O222 O 0.81664 0.93024 0.46527 0.0
C223 C 0.86334 0.99673 0.32612 0.0
C224 C 0.8168 0.89415 0.30512 0.0
C225 C 0.76675 0.00222 0.43064 0.0
C226 C 0.74823 0.88509 0.41847 0.0
C227 C 0.84566 0.92747 0.44479 0.0
C228 C 0.74882 0.98024 0.31436 0.0
O229 O 0.83889 0.97664 0.34462 0.0
O230 O 0.85808 0.00081 0.29071 0.0
O231 O 0.34426 0.56456 0.58403 0.0
Mn232 Mn 0.30058 0.55007 0.61931 0.0
O233 O 0.31627 0.57475 0.5287 0.0
Mn234 Mn 0.26677 0.57397 0.54449 0.0
O235 O 0.25464 0.53686 0.65213 0.0
O236 O 0.33433 0.51309 0.6451 0.0
Mn237 Mn 0.32095 0.51332 0.69203 0.0
O238 O 0.31448 0.59272 0.65743 0.0
O239 O 0.27304 0.49571 0.69471 0.0
O240 O 0.28501 0.50564 0.58473 0.0
O241 O 0.24345 0.52826 0.54456 0.0
O242 O 0.35898 0.48052 0.69042 0.0
O243 O 0.3278 0.56054 0.70938 0.0
C244 C 0.24993 0.61601 0.58398 0.0
C245 C 0.34528 0.57184 0.54899 0.0
C246 C 0.24768 0.51267 0.67726 0.0
C247 C 0.35783 0.4876 0.65514 0.0
C248 C 0.32272 0.5911 0.69232 0.0
C249 C 0.25823 0.50121 0.56167 0.0
O250 O 0.26862 0.58653 0.5919 0.0
O251 O 0.24067 0.61813 0.5494 0.0
H252 H 0.24303 0.29502 0.47963 0.0
H253 H 0.12946 0.29464 0.5196 0.0
H254 H 0.13866 0.35697 0.54688 0.0
H255 H 0.28652 0.34398 0.55359 0.0
H256 H 0.31581 0.3722 0.52434 0.0
H257 H 0.30101 0.32704 0.50876 0.0
H258 H 0.27316 0.35623 0.44927 0.0
H259 H 0.28822 0.40147 0.46444 0.0
H260 H 0.24008 0.39358 0.45337 0.0
H261 H 0.16028 0.41806 0.571 0.0
H262 H 0.19073 0.47825 0.58415 0.0
H263 H 0.28955 0.4414 0.52608 0.0
C264 C 0.22023 0.30825 0.49413 0.0
C265 C 0.18563 0.29016 0.49801 0.0
C266 C 0.15611 0.30824 0.51652 0.0
C267 C 0.16115 0.34346 0.53221 0.0
C268 C 0.19565 0.36054 0.5283 0.0
C269 C 0.22446 0.34402 0.509 0.0
C270 C 0.25776 0.36977 0.50658 0.0
C271 C 0.29231 0.35218 0.5244 0.0
C272 C 0.26525 0.38092 0.46601 0.0
C273 C 0.24373 0.40261 0.52894 0.0
C274 C 0.20775 0.39664 0.54108 0.0
C275 C 0.18834 0.42317 0.56149 0.0
C276 C 0.2058 0.45713 0.56888 0.0
C277 C 0.2423 0.46406 0.55619 0.0
C278 C 0.26174 0.43636 0.53641 0.0
H279 H 0.78994 0.9567 0.77823 0.0
H280 H 0.81214 0.06649 0.82297 0.0
H281 H 0.87736 0.06142 0.80242 0.0
H282 H 0.87503 0.91589 0.80654 0.0
H283 H 0.8804 0.88731 0.76582 0.0
H284 H 0.8347 0.90052 0.78124 0.0
H285 H 0.82105 0.92856 0.71639 0.0
H286 H 0.86688 0.91563 0.70088 0.0
H287 H 0.85186 0.96326 0.69751 0.0
H288 H 0.93952 0.04448 0.77883 0.0
H289 H 0.99733 0.01505 0.75846 0.0
H290 H 0.93673 0.91443 0.73042 0.0
C291 C 0.80849 0.97979 0.78345 0.0
C292 C 0.79596 0.01209 0.80215 0.0
C293 C 0.82116 0.04146 0.80891 0.0
C294 C 0.85816 0.03894 0.79707 0.0
C295 C 0.86957 0.00678 0.77875 0.0
C296 C 0.84567 0.97755 0.77219 0.0
C297 C 0.86583 0.94521 0.75397 0.0
C298 C 0.86387 0.91017 0.77836 0.0
C299 C 0.85048 0.93774 0.71487 0.0
C300 C 0.90502 0.96057 0.75219 0.0
C301 C 0.90618 0.99638 0.76603 0.0
C302 C 0.93903 0.01643 0.76807 0.0
C303 C 0.97183 -0.00077 0.75652 0.0
C304 C 0.97187 0.96205 0.74333 0.0
C305 C 0.93775 0.94275 0.74049 0.0
H306 H 0.31982 0.6852 0.95813 0.0
H307 H 0.3063 0.74033 0.06456 0.0
H308 H 0.28492 0.682 0.09242 0.0
H309 H 0.23872 0.62748 0.96622 0.0
H310 H 0.25955 0.58753 0.94438 0.0
H311 H 0.27534 0.63357 0.93267 0.0
H312 H 0.34259 0.61429 0.94991 0.0
H313 H 0.32662 0.56843 0.96216 0.0
H314 H 0.35187 0.59585 0.99552 0.0
H315 H 0.2611 0.62127 0.10837 0.0
H316 H 0.24051 0.55672 0.11399 0.0
H317 H 0.27004 0.53697 0.99859 0.0
C318 C 0.31298 0.68463 0.98741 0.0
C319 C 0.31454 0.71728 0.00921 0.0
C320 C 0.30499 0.71571 0.04731 0.0
C321 C 0.29282 0.68273 0.06344 0.0
C322 C 0.29045 0.65137 0.04119 0.0
C323 C 0.30052 0.65161 0.00417 0.0
C324 C 0.29429 0.61358 0.9869 0.0
C325 C 0.26525 0.61567 0.95569 0.0
C326 C 0.33104 0.59706 0.97279 0.0
C327 C 0.27943 0.59223 0.0202 0.0
C328 C 0.27717 0.61502 0.05093 0.0
C329 C 0.26304 0.60288 0.0847 0.0
C330 C 0.25122 0.56615 0.08749 0.0
C331 C 0.2538 0.5417 0.05677 0.0
C332 C 0.26814 0.55493 0.02261 0.0
H333 H 0.56114 0.02228 0.20596 0.0
H334 H 0.54392 0.11306 0.28288 0.0
H335 H 0.60445 0.09972 0.31246 0.0
H336 H 0.60116 0.96011 0.26725 0.0
H337 H 0.63531 0.94165 0.23563 0.0
H338 H 0.59258 0.96056 0.21795 0.0
H339 H 0.62932 0.00623 0.17609 0.0
H340 H 0.67224 0.987 0.19315 0.0
H341 H 0.66373 0.03623 0.19656 0.0
H342 H 0.66252 0.07219 0.33769 0.0
H343 H 0.71941 0.03642 0.35247 0.0
H344 H 0.70042 0.96499 0.25813 0.0
C345 C 0.57088 0.0399 0.22828 0.0
C346 C 0.54868 0.06891 0.24211 0.0
C347 C 0.56127 0.09113 0.2718 0.0
C348 C 0.59538 0.08364 0.28877 0.0
C349 C 0.61643 0.05417 0.27516 0.0
C350 C 0.60515 0.03314 0.24509 0.0
C351 C 0.63262 0.00243 0.23666 0.0
C352 C 0.6143 0.96392 0.23956 0.0
C353 C 0.65055 0.00834 0.19835 0.0
C354 C 0.66026 0.00855 0.26762 0.0
C355 C 0.65034 0.03854 0.28949 0.0
C356 C 0.67061 0.04873 0.32073 0.0
C357 C 0.70223 0.02798 0.32949 0.0
C358 C 0.71296 0.99758 0.30733 0.0
C359 C 0.69205 0.98785 0.27582 0.0
H360 H 0.67292 0.20198 0.4577 0.0
H361 H 0.74773 0.21783 0.5504 0.0
H362 H 0.77663 0.15665 0.53781 0.0
H363 H 0.65751 0.10418 0.47012 0.0
H364 H 0.65723 0.09378 0.42116 0.0
H365 H 0.64311 0.139 0.43713 0.0
H366 H 0.69202 0.16928 0.39402 0.0
H367 H 0.7066 0.12405 0.37828 0.0
H368 H 0.74005 0.15569 0.39781 0.0
H369 H 0.79876 0.09509 0.51396 0.0
H370 H 0.8085 0.03381 0.48415 0.0
H371 H 0.7162 0.05547 0.41043 0.0
C372 C 0.69524 0.19225 0.47534 0.0
C373 C 0.70829 0.21416 0.50505 0.0
C374 C 0.73757 0.2011 0.52758 0.0
C375 C 0.75417 0.16659 0.52052 0.0
C376 C 0.74116 0.14566 0.49072 0.0
C377 C 0.71213 0.15776 0.46865 0.0
C378 C 0.7032 0.1295 0.43873 0.0
C379 C 0.66287 0.11579 0.44203 0.0
C380 C 0.71093 0.1456 0.39992 0.0
C381 C 0.73094 0.09922 0.44824 0.0
C382 C 0.75322 0.10959 0.47765 0.0
C383 C 0.78158 0.08671 0.49081 0.0
C384 C 0.7871 0.05217 0.47363 0.0
C385 C 0.764 0.04068 0.44413 0.0
C386 C 0.73532 0.06431 0.43165 0.0
H387 H 0.06433 0.40131 0.73316 0.0
H388 H 0.01874 0.50755 0.76706 0.0
H389 H 0.07786 0.53836 0.75131 0.0
H390 H 0.15997 0.41739 0.76469 0.0
H391 H 0.18044 0.39478 0.72498 0.0
H392 H 0.13547 0.38036 0.74156 0.0
H393 H 0.10782 0.39179 0.67619 0.0
H394 H 0.15267 0.40644 0.65948 0.0
H395 H 0.11313 0.43673 0.65473 0.0
H396 H 0.13816 0.55874 0.72648 0.0
H397 H 0.20095 0.56676 0.69975 0.0
H398 H 0.20942 0.44769 0.68352 0.0
C399 C 0.06735 0.43087 0.73795 0.0
C400 C 0.03746 0.45229 0.75135 0.0
C401 C 0.04164 0.49096 0.7567 0.0
C402 C 0.07496 0.50864 0.74785 0.0
C403 C 0.10366 0.48716 0.73354 0.0
C404 C 0.10052 0.44912 0.72888 0.0
C405 C 0.1353 0.43315 0.71134 0.0
C406 C 0.1539 0.40475 0.73721 0.0
C407 C 0.12671 0.41602 0.67318 0.0
C408 C 0.15839 0.46814 0.70739 0.0
C409 C 0.13927 0.499 0.71984 0.0
C410 C 0.15371 0.5348 0.71704 0.0
C411 C 0.18907 0.53915 0.70161 0.0
C412 C 0.20951 0.5078 0.6899 0.0
C413 C 0.1941 0.47191 0.69271 0.0
H414 H 0.73873 0.93829 0.90883 0.0
H415 H 0.75273 0.99483 0.01454 0.0
H416 H 0.7753 0.93685 0.0425 0.0
H417 H 0.70904 0.84924 0.9493 0.0
H418 H 0.73291 0.82218 0.91463 0.0
H419 H 0.71512 0.86757 0.90315 0.0
H420 H 0.78072 0.88793 0.88137 0.0
H421 H 0.79866 0.84269 0.8928 0.0
H422 H 0.81944 0.88361 0.91278 0.0
H423 H 0.79357 0.87301 0.05989 0.0
H424 H 0.81318 0.80768 0.06352 0.0
H425 H 0.79616 0.79462 0.94568 0.0
C426 C 0.7463 0.93844 0.9379 0.0
C427 C 0.74386 0.9711 0.95947 0.0
C428 C 0.75423 0.97017 0.99741 0.0
C429 C 0.76696 0.93735 0.01366 0.0
C430 C 0.76915 0.90578 0.99163 0.0
C431 C 0.75931 0.90595 0.95459 0.0
C432 C 0.76566 0.86831 0.93698 0.0
C433 C 0.72848 0.85079 0.92533 0.0
C434 C 0.79275 0.87081 0.90405 0.0
C435 C 0.78249 0.84772 0.96949 0.0
C436 C 0.78302 0.86956 0.00097 0.0
C437 C 0.79481 0.85608 0.0351 0.0
C438 C 0.80723 0.8194 0.03686 0.0
C439 C 0.80962 0.79735 0.00463 0.0
C440 C 0.79619 0.81145 0.97059 0.0
H441 H 0.44485 0.59251 0.2469 0.0
H442 H 0.49398 0.48299 0.25991 0.0
H443 H 0.43695 0.4544 0.23575 0.0
H444 H 0.35212 0.56746 0.27401 0.0
H445 H 0.32988 0.59682 0.24011 0.0
H446 H 0.3749 0.60913 0.25799 0.0
H447 H 0.40136 0.61145 0.19103 0.0
H448 H 0.35621 0.59954 0.17306 0.0
H449 H 0.39608 0.5717 0.16116 0.0
H450 H 0.37581 0.43724 0.20871 0.0
H451 H 0.31159 0.43255 0.18524 0.0
H452 H 0.30033 0.55235 0.19168 0.0
C453 C 0.4435 0.56252 0.24488 0.0
C454 C 0.47405 0.54006 0.25522 0.0
C455 C 0.47118 0.50089 0.2519 0.0
C456 C 0.43887 0.4843 0.23818 0.0
C457 C 0.40955 0.50716 0.22775 0.0
C458 C 0.41136 0.54537 0.23109 0.0
C459 C 0.3756 0.56335 0.21797 0.0
C460 C 0.35703 0.58548 0.24941 0.0
C461 C 0.38273 0.58797 0.18377 0.0
C462 C 0.3532 0.52917 0.20774 0.0
C463 C 0.37366 0.49713 0.21292 0.0
C464 C 0.35943 0.46212 0.20458 0.0
C465 C 0.32306 0.45972 0.19104 0.0
C466 C 0.30117 0.49205 0.18668 0.0
C467 C 0.31653 0.52721 0.19497 0.0
H468 H 0.49781 0.15581 0.3097 0.0
H469 H 0.4995 0.26515 0.25866 0.0
H470 H 0.51847 0.29285 0.31787 0.0
H471 H 0.46685 0.18849 0.40369 0.0
H472 H 0.49594 0.15556 0.42762 0.0
H473 H 0.47705 0.1442 0.38272 0.0
H474 H 0.54342 0.13103 0.35816 0.0
H475 H 0.56255 0.14259 0.40279 0.0
H476 H 0.57851 0.16658 0.36183 0.0
H477 H 0.53862 0.30913 0.38057 0.0
H478 H 0.56373 0.31239 0.44387 0.0
H479 H 0.55762 0.19271 0.45355 0.0
C480 C 0.50167 0.18558 0.31131 0.0
C481 C 0.4974 0.20833 0.27962 0.0
C482 C 0.50289 0.24719 0.28255 0.0
C483 C 0.5134 0.26327 0.31611 0.0
C484 C 0.51847 0.24014 0.34653 0.0
C485 C 0.51292 0.20217 0.34469 0.0
C486 C 0.5233 0.18371 0.38113 0.0
C487 C 0.48874 0.167 0.3999 0.0
C488 C 0.55376 0.15425 0.37562 0.0
C489 C 0.53755 0.21704 0.40262 0.0
C490 C 0.53322 0.24935 0.38241 0.0
C491 C 0.54313 0.28394 0.39635 0.0
C492 C 0.55851 0.28554 0.43182 0.0
C493 C 0.56535 0.25281 0.45231 0.0
C494 C 0.5539 0.21811 0.43786 0.0
H495 H 0.09356 0.25125 0.55719 0.0
H496 H 0.98432 0.22065 0.51689 0.0
H497 H 0.95625 0.24241 0.57541 0.0
H498 H 0.07851 0.22975 0.65601 0.0
H499 H 0.10402 0.26994 0.67152 0.0
H500 H 0.11601 0.24799 0.62822 0.0
H501 H 0.10784 0.31097 0.59468 0.0
H502 H 0.09488 0.33303 0.63761 0.0
H503 H 0.06424 0.33535 0.59818 0.0
H504 H 0.93912 0.2734 0.63372 0.0
H505 H 0.93442 0.30491 0.69439 0.0
H506 H 0.05437 0.3157 0.69808 0.0
C507 C 0.06389 0.24845 0.56122 0.0
C508 C 0.0409 0.23448 0.53283 0.0
C509 C 0.00216 0.23153 0.53851 0.0
C510 C 0.98602 0.24382 0.5715 0.0
C511 C 0.00907 0.25924 0.59828 0.0
C512 C 0.04719 0.26125 0.59388 0.0
C513 C 0.0651 0.28119 0.62626 0.0
C514 C 0.09251 0.25567 0.64672 0.0
C515 C 0.08413 0.31728 0.6134 0.0
C516 C 0.03108 0.28949 0.6496 0.0
C517 C -0.00094 0.27707 0.63254 0.0
C518 C 0.96395 0.28301 0.64762 0.0
C519 C 0.96151 0.30128 0.68174 0.0
C520 C 0.99403 0.31272 0.7004 0.0
C521 C 0.0292 0.30709 0.68407 0.0
H522 H 0.97943 0.76027 0.78736 0.0
H523 H 0.03554 0.86427 0.81189 0.0
H524 H 0.02299 0.85524 0.87837 0.0
H525 H 0.90723 0.76747 0.85427 0.0
H526 H 0.90783 0.71916 0.86752 0.0
H527 H 0.92211 0.73263 0.82153 0.0
H528 H 0.98527 0.69965 0.83112 0.0
H529 H 0.97115 0.68597 0.87715 0.0
H530 H 0.01355 0.71173 0.87053 0.0
H531 H 0.00386 0.83653 0.94147 0.0
H532 H 0.97921 0.80864 -0.0012 0.0
H533 H 0.93467 0.71645 0.93512 0.0
C534 C 0.98909 0.78109 0.80675 0.0
C535 C 0.00844 0.81306 0.79431 0.0
C536 C 0.02086 0.83949 0.82064 0.0
C537 C 0.01382 0.83466 0.85852 0.0
C538 C 0.99464 0.80306 0.86985 0.0
C539 C 0.98263 0.77652 0.84493 0.0
C540 C 0.9628 0.74502 0.86493 0.0
C541 C 0.9226 0.74086 0.85124 0.0
C542 C 0.98448 0.70843 0.86067 0.0
C543 C 0.96423 0.75895 0.90469 0.0
C544 C 0.98329 0.79219 0.90677 0.0
C545 C 0.98894 0.81047 0.94029 0.0
C546 C 0.97484 0.79435 0.97272 0.0
C547 C 0.95492 0.76044 0.9715 0.0
C548 C 0.94947 0.74258 0.9369 0.0
H549 H 0.46721 0.65753 0.19145 0.0
H550 H 0.56041 0.7318 0.20783 0.0
H551 H 0.5462 0.76317 0.14834 0.0
H552 H 0.47853 0.64866 0.08979 0.0
H553 H 0.42915 0.64712 0.08175 0.0
H554 H 0.44796 0.62952 0.12459 0.0
H555 H 0.40434 0.67361 0.16143 0.0
H556 H 0.38586 0.69139 0.11855 0.0
H557 H 0.40563 0.72277 0.1521 0.0
H558 H 0.51811 0.79032 0.09113 0.0
H559 H 0.48465 0.80462 0.03283 0.0
H560 H 0.41202 0.71041 0.05118 0.0
C561 C 0.48524 0.6796 0.1817 0.0
C562 C 0.51535 0.69198 0.20337 0.0
C563 C 0.53784 0.72157 0.1908 0.0
C564 C 0.5297 0.73973 0.15741 0.0
C565 C 0.49916 0.72763 0.13702 0.0
C566 C 0.47779 0.69767 0.14812 0.0
C567 C 0.44663 0.69025 0.12087 0.0
C568 C 0.45084 0.6516 0.10319 0.0
C569 C 0.40836 0.69478 0.13936 0.0
C570 C 0.45366 0.72093 0.09297 0.0
C571 C 0.48369 0.74256 0.10321 0.0
C572 C 0.4948 0.77339 0.0826 0.0
C573 C 0.4755 0.78155 0.04989 0.0
C574 C 0.44582 0.75877 0.03823 0.0
C575 C 0.43448 0.72834 0.06006 0.0
H576 H 0.08761 0.32111 0.36907 0.0
H577 H 0.13834 0.2156 0.34212 0.0
H578 H 0.17101 0.24496 0.28873 0.0
H579 H 0.06749 0.34734 0.28003 0.0
H580 H 0.07669 0.39611 0.28664 0.0
H581 H 0.06229 0.36799 0.32532 0.0
H582 H 0.12105 0.3869 0.3624 0.0
H583 H 0.13507 0.41613 0.32431 0.0
H584 H 0.16625 0.38102 0.34164 0.0
H585 H 0.19236 0.28715 0.23293 0.0
H586 H 0.20505 0.33792 0.18746 0.0
H587 H 0.13704 0.41241 0.2532 0.0
C588 C 0.10666 0.30453 0.35266 0.0
C589 C 0.11141 0.26655 0.36002 0.0
C590 C 0.13556 0.24519 0.33753 0.0
C591 C 0.1537 0.26155 0.30687 0.0
C592 C 0.14721 0.29913 0.29944 0.0
C593 C 0.12469 0.3203 0.32235 0.0
C594 C 0.12018 0.35935 0.30818 0.0
C595 C 0.07924 0.36818 0.29953 0.0
C596 C 0.13664 0.38751 0.33576 0.0
C597 C 0.14302 0.357 0.27326 0.0
C598 C 0.15867 0.32233 0.26825 0.0
C599 C 0.18049 0.31448 0.23698 0.0
C600 C 0.18735 0.34328 0.21113 0.0
C601 C 0.1725 0.37921 0.2171 0.0
C602 C 0.14935 0.38542 0.24806 0.0
H603 H 0.95126 0.90112 0.63193 0.0
H604 H 0.02562 0.82806 0.57233 0.0
H605 H 0.00358 0.85364 0.51272 0.0
H606 H 0.87819 0.88699 0.5793 0.0
H607 H 0.85912 0.93329 0.57931 0.0
H608 H 0.88829 0.91856 0.61682 0.0
H609 H 0.9326 0.97411 0.60505 0.0
H610 H 0.90311 0.98941 0.5676 0.0
H611 H 0.95183 0.9813 0.55938 0.0
H612 H 0.96372 0.87578 0.46043 0.0
H613 H 0.90985 0.89276 0.42113 0.0
H614 H 0.86114 0.95132 0.51437 0.0
C615 C 0.96435 0.89233 0.60632 0.0
C616 C 0.99082 0.86356 0.60647 0.0
C617 C 0.00601 0.8509 0.57255 0.0
C618 C 0.99362 0.86525 0.53858 0.0
C619 C 0.966 0.89234 0.539 0.0
C620 C 0.95192 0.90624 0.57208 0.0
C621 C 0.9184 0.93064 0.56507 0.0
C622 C 0.88401 0.91648 0.58636 0.0
C623 C 0.92701 0.97128 0.57485 0.0
C624 C 0.91411 0.9258 0.52353 0.0
C625 C 0.94241 0.90462 0.50868 0.0
C626 C 0.94193 0.89324 0.47154 0.0
C627 C 0.91125 0.90292 0.44938 0.0
C628 C 0.88129 0.92309 0.46475 0.0
C629 C 0.88365 0.93577 0.50183 0.0
H630 H 0.32393 0.59108 0.76711 0.0
H631 H 0.3256 0.66688 0.6733 0.0
H632 H 0.33419 0.7196 0.71744 0.0
H633 H 0.27988 0.65115 0.83645 0.0
H634 H 0.30969 0.63297 0.8723 0.0
H635 H 0.29626 0.60387 0.83394 0.0
H636 H 0.36579 0.59093 0.8194 0.0
H637 H 0.37894 0.61961 0.85783 0.0
H638 H 0.39679 0.62958 0.81213 0.0
H639 H 0.35272 0.76198 0.77292 0.0
H640 H 0.38339 0.7867 0.82947 0.0
H641 H 0.36935 0.68061 0.88376 0.0
C642 C 0.32563 0.61866 0.75523 0.0
C643 C 0.32471 0.62463 0.7164 0.0
C644 C 0.32655 0.6615 0.70286 0.0
C645 C 0.33116 0.69154 0.72781 0.0
C646 C 0.33328 0.68406 0.766 0.0
C647 C 0.33043 0.64823 0.7793 0.0
C648 C 0.3384 0.64558 0.82031 0.0
C649 C 0.30397 0.63264 0.84201 0.0
C650 C 0.37196 0.61996 0.82781 0.0
C651 C 0.34739 0.68555 0.82847 0.0
C652 C 0.34366 0.70776 0.79719 0.0
C653 C 0.35485 0.74493 0.79758 0.0
C654 C 0.37198 0.75886 0.82984 0.0
C655 C 0.37771 0.73557 0.86094 0.0
C656 C 0.36397 0.69914 0.86067 0.0
H657 H 0.51353 0.18198 0.05809 0.0
H658 H 0.51324 0.08839 0.13369 0.0
H659 H 0.53667 0.04781 0.08291 0.0
H660 H 0.4901 0.13098 0.97157 0.0
H661 H 0.52108 0.15984 0.94478 0.0
H662 H 0.49767 0.17867 0.98485 0.0
H663 H 0.5611 0.19805 0.01332 0.0
H664 H 0.58428 0.1801 0.97312 0.0
H665 H 0.59696 0.16349 0.01858 0.0
H666 H 0.57042 0.02101 0.02564 0.0
H667 H 0.61434 0.01328 0.97327 0.0
H668 H 0.59091 0.12504 0.93661 0.0
C669 C 0.51754 0.15273 0.0639 0.0
C670 C 0.5113 0.13825 0.0997 0.0
C671 C 0.51723 0.09993 0.10624 0.0
C672 C 0.53052 0.07675 0.0775 0.0
C673 C 0.53712 0.09237 0.04246 0.0
C674 C 0.53059 0.12961 0.03583 0.0
C675 C 0.54394 0.14148 0.99791 0.0
C676 C 0.51123 0.15344 0.97333 0.0
C677 C 0.57331 0.17256 0.00094 0.0
C678 C 0.56067 0.10557 0.98434 0.0
C679 C 0.55587 0.07713 0.00988 0.0
C680 C 0.57328 0.04278 0.00509 0.0
C681 C 0.59776 0.03836 0.9749 0.0
C682 C 0.60485 0.06826 0.95032 0.0
C683 C 0.58452 0.10134 0.95403 0.0
H684 H 0.64713 0.23599 0.64309 0.0
H685 H 0.52946 0.20995 0.65186 0.0
H686 H 0.54064 0.17647 0.70942 0.0
H687 H 0.68146 0.15226 0.67126 0.0
H688 H 0.71893 0.16894 0.69993 0.0
H689 H 0.70179 0.19726 0.6626 0.0
H690 H 0.68944 0.25102 0.70873 0.0
H691 H 0.70667 0.22262 0.7462 0.0
H692 H 0.66097 0.24278 0.74908 0.0
H693 H 0.56298 0.13926 0.76006 0.0
H694 H 0.59748 0.09625 0.80036 0.0
H695 H 0.70153 0.1431 0.76199 0.0
C696 C 0.62374 0.22394 0.65768 0.0
C697 C 0.58744 0.2257 0.64262 0.0
C698 C 0.5576 0.20915 0.66241 0.0
C699 C 0.56351 0.19022 0.69556 0.0
C700 C 0.59938 0.18832 0.70933 0.0
C701 C 0.62915 0.20476 0.6914 0.0
C702 C 0.66522 0.19521 0.71123 0.0
C703 C 0.69349 0.17732 0.68466 0.0
C704 C 0.68154 0.22997 0.7299 0.0
C705 C 0.65115 0.16784 0.7403 0.0
C706 C 0.61282 0.16588 0.73958 0.0
C707 C 0.59292 0.14116 0.76171 0.0
C708 C 0.61267 0.11693 0.78457 0.0
C709 C 0.65182 0.11723 0.78477 0.0
C710 C 0.67147 0.14339 0.76299 0.0
H711 H 0.12562 0.36517 0.03688 0.0
H712 H 0.1117 0.48334 0.02301 0.0
H713 H 0.06355 0.47254 0.97535 0.0
H714 H 0.1275 0.34786 0.94522 0.0
H715 H 0.1049 0.30321 0.94655 0.0
H716 H 0.12976 0.3196 0.98649 0.0
H717 H 0.07105 0.31214 0.02742 0.0
H718 H 0.04608 0.29475 0.98775 0.0
H719 H 0.02816 0.33385 0.01341 0.0
H720 H 0.02783 0.44848 0.91968 0.0
H721 H 0.00479 0.41333 0.86515 0.0
H722 H 0.04299 0.31096 0.9155 0.0
C723 C 0.11053 0.38858 0.02547 0.0
C724 C 0.12025 0.42513 0.0353 0.0
C725 C 0.10236 0.45533 0.01781 0.0
C726 C 0.07559 0.4493 0.99012 0.0
C727 C 0.06762 0.41279 0.97988 0.0
C728 C 0.08435 0.38289 0.99741 0.0
C729 C 0.07583 0.34682 0.97773 0.0
C730 C 0.11161 0.32833 0.96315 0.0
C731 C 0.05395 0.32034 0.00309 0.0
C732 C 0.05212 0.36102 0.94617 0.0
C733 C 0.04755 0.39908 0.94768 0.0
C734 C 0.03007 0.41851 0.91897 0.0
C735 C 0.01676 0.3984 0.8882 0.0
C736 C 0.02085 0.35939 0.88661 0.0
C737 C 0.03864 0.34073 0.91616 0.0
H738 H 0.83953 0.81989 0.30752 0.0
H739 H 0.77131 0.89882 0.2477 0.0
H740 H 0.77679 0.86146 0.19124 0.0
H741 H 0.90066 0.79652 0.25002 0.0
H742 H 0.90139 0.74648 0.25287 0.0
H743 H 0.88395 0.77311 0.29111 0.0
H744 H 0.82214 0.73724 0.28864 0.0
H745 H 0.83825 0.71021 0.24958 0.0
H746 H 0.79567 0.7364 0.24635 0.0
H747 H 0.81283 0.83367 0.14017 0.0
H748 H 0.85859 0.80179 0.09985 0.0
H749 H 0.88897 0.72912 0.18908 0.0
C750 C 0.82354 0.82766 0.28332 0.0
C751 C 0.80549 0.86243 0.28177 0.0
C752 C 0.78538 0.87223 0.24937 0.0
C753 C 0.78841 0.85126 0.217 0.0
C754 C 0.80929 0.81888 0.21813 0.0
C755 C 0.82425 0.80552 0.25096 0.0
C756 C 0.84612 0.77022 0.24352 0.0
C757 C 0.88536 0.77175 0.26035 0.0
C758 C 0.8243 0.73646 0.25789 0.0
C759 C 0.84692 0.77024 0.20135 0.0
C760 C 0.82468 0.7982 0.18724 0.0
C761 C 0.82726 0.80925 0.15015 0.0
C762 C 0.85236 0.79062 0.12693 0.0
C763 C 0.87323 0.76043 0.14008 0.0
C764 C 0.87075 0.75022 0.17782 0.0
H765 H 0.38419 0.54105 0.49073 0.0
H766 H 0.38182 0.63387 0.56717 0.0
H767 H 0.42964 0.66584 0.53001 0.0
H768 H 0.49061 0.55148 0.47121 0.0
H769 H 0.48475 0.53656 0.42389 0.0
H770 H 0.45556 0.51763 0.45999 0.0
H771 H 0.39729 0.53794 0.42313 0.0
H772 H 0.42614 0.55736 0.38729 0.0
H773 H 0.39193 0.58604 0.41006 0.0
H774 H 0.46862 0.69156 0.48128 0.0
H775 H 0.49985 0.71022 0.42412 0.0
H776 H 0.47997 0.60103 0.37671 0.0
C777 C 0.3952 0.56732 0.50036 0.0
C778 C 0.38021 0.58479 0.53225 0.0
C779 C 0.39399 0.61967 0.54358 0.0
C780 C 0.42099 0.63805 0.52252 0.0
C781 C 0.43475 0.62062 0.49081 0.0
C782 C 0.42321 0.58563 0.48013 0.0
C783 C 0.44141 0.57452 0.44353 0.0
C784 C 0.46974 0.54318 0.45003 0.0
C785 C 0.41244 0.56335 0.41428 0.0
C786 C 0.46124 0.61042 0.43328 0.0
C787 C 0.45799 0.6359 0.46187 0.0
C788 C 0.47208 0.67163 0.45907 0.0
C789 C 0.48968 0.68197 0.42618 0.0
C790 C 0.49248 0.65714 0.3957 0.0
C791 C 0.47876 0.62045 0.39961 0.0
H792 H 0.22078 0.10849 0.38206 0.0
H793 H 0.21745 0.22545 0.35483 0.0
H794 H 0.26721 0.21597 0.30792 0.0
H795 H 0.31412 0.10068 0.38211 0.0
H796 H 0.31651 0.05446 0.36307 0.0
H797 H 0.27594 0.06886 0.38831 0.0
H798 H 0.23382 0.05304 0.3322 0.0
H799 H 0.27416 0.03735 0.30707 0.0
H800 H 0.24438 0.07236 0.28722 0.0
H801 H 0.32671 0.19443 0.27338 0.0
H802 H 0.38221 0.16166 0.24878 0.0
H803 H 0.34277 0.05921 0.2982 0.0
C804 C 0.22928 0.13168 0.36483 0.0
C805 C 0.21484 0.16741 0.3711 0.0
C806 C 0.22749 0.19762 0.34936 0.0
C807 C 0.25603 0.19251 0.32305 0.0
C808 C 0.2712 0.157 0.31888 0.0
C809 C 0.25746 0.12698 0.33867 0.0
C810 C 0.28018 0.09239 0.33218 0.0
C811 C 0.29771 0.0783 0.36857 0.0
C812 C 0.25673 0.062 0.31354 0.0
C813 C 0.30931 0.10751 0.30616 0.0
C814 C 0.30415 0.14479 0.29873 0.0
C815 C 0.33015 0.16492 0.27799 0.0
C816 C 0.36155 0.1461 0.26388 0.0
C817 C 0.36625 0.10756 0.2702 0.0
C818 C 0.33979 0.08849 0.29196 0.0
H819 H 0.13721 0.07182 0.48885 0.0
H820 H 0.11091 0.16126 0.56449 0.0
H821 H 0.07049 0.11902 0.60055 0.0
H822 H 0.03915 0.02163 0.50337 0.0
H823 H 0.06112 0.97703 0.49797 0.0
H824 H 0.07704 0.01638 0.47119 0.0
H825 H 0.14376 0.00615 0.49616 0.0
H826 H 0.12815 0.96723 0.52297 0.0
H827 H 0.15153 0.00532 0.54564 0.0
H828 H 0.04281 0.0663 0.63365 0.0
H829 H 0.03965 0.00751 0.66765 0.0
H830 H 0.09004 0.94983 0.57488 0.0
C831 C 0.1213 0.08264 0.51196 0.0
C832 C 0.1261 0.1197 0.52362 0.0
C833 C 0.10646 0.13314 0.55472 0.0
C834 C 0.08332 0.10936 0.57514 0.0
C835 C 0.07974 0.07246 0.56362 0.0
C836 C 0.09792 0.05917 0.5325 0.0
C837 C 0.09403 0.01722 0.52958 0.0
C838 C 0.06623 0.00746 0.49869 0.0
C839 C 0.13164 0.99789 0.52329 0.0
C840 C 0.07732 0.0084 0.56723 0.0
C841 C 0.06611 0.04091 0.58462 0.0
C842 C 0.05095 0.04076 0.62004 0.0
C843 C 0.04929 0.00708 0.63912 0.0
C844 C 0.06488 0.97422 0.62389 0.0
C845 C 0.07745 0.97438 0.5868 0.0
H846 H 0.18989 0.92166 0.76161 0.0
H847 H 0.10839 0.83331 0.76723 0.0
H848 H 0.15604 0.79172 0.79492 0.0
H849 H 0.274 0.86331 0.74493 0.0
H850 H 0.3016 0.89316 0.7741 0.0
H851 H 0.26353 0.91221 0.74778 0.0
H852 H 0.23462 0.93905 0.80818 0.0
H853 H 0.27264 0.92056 0.83438 0.0
H854 H 0.22568 0.90826 0.84665 0.0
H855 H 0.209 0.76549 0.83346 0.0
H856 H 0.25916 0.75822 0.87972 0.0
H857 H 0.30593 0.86372 0.8466 0.0
C858 C 0.1822 0.89321 0.76774 0.0
C859 C 0.14557 0.8806 0.76235 0.0
C860 C 0.13646 0.84335 0.77081 0.0
C861 C 0.16342 0.81962 0.78646 0.0
C862 C 0.19921 0.8336 0.79261 0.0
C863 C 0.2085 0.86958 0.78309 0.0
C864 C 0.24669 0.88025 0.79665 0.0
C865 C 0.27302 0.88766 0.7639 0.0
C866 C 0.24475 0.91397 0.82302 0.0
C867 C 0.25729 0.84526 0.81703 0.0
C868 C 0.22989 0.81829 0.81393 0.0
C869 C 0.23105 0.78586 0.83504 0.0
C870 C 0.25968 0.78188 0.86111 0.0
C871 C 0.28667 0.81009 0.86571 0.0
C872 C 0.28648 0.84118 0.84225 0.0
H873 H 0.46173 0.99778 0.11521 0.0
H874 H 0.37402 0.0799 0.10941 0.0
H875 H 0.34387 0.04417 0.05939 0.0
H876 H 0.45887 0.97597 0.00882 0.0
H877 H 0.47001 0.92797 0.01752 0.0
H878 H 0.48899 0.96388 0.04684 0.0
H879 H 0.4617 0.93058 0.10453 0.0
H880 H 0.44224 0.89503 0.07554 0.0
H881 H 0.41256 0.92097 0.10646 0.0
H882 H 0.317 0.99462 0.02191 0.0
H883 H 0.29631 0.93596 0.99438 0.0
H884 H 0.40257 0.88529 0.02 0.0
C885 C 0.43709 0.00887 0.10204 0.0
C886 C 0.42025 0.04168 0.11547 0.0
C887 C 0.38761 0.05528 0.09866 0.0
C888 C 0.37033 0.03512 0.07035 0.0
C889 C 0.38686 0.00216 0.05841 0.0
C890 C 0.4201 0.98957 0.07285 0.0
C891 C 0.43022 0.95177 0.05692 0.0
C892 C 0.46403 0.95509 0.031 0.0
C893 C 0.43703 0.9229 0.08771 0.0
C894 C 0.39542 0.94323 0.03483 0.0
C895 C 0.37143 0.97333 0.03525 0.0
C896 C 0.33598 0.97137 0.02027 0.0
C897 C 0.32444 0.93776 0.00488 0.0
C898 C 0.34806 0.90626 0.0047 0.0
C899 C 0.38443 0.90927 0.01893 0.0
H900 H 0.85815 0.35383 0.74107 0.0
H901 H 0.82592 0.47034 0.73881 0.0
H902 H 0.77026 0.45474 0.70412 0.0
H903 H 0.83168 0.32891 0.65343 0.0
H904 H 0.81069 0.28474 0.66441 0.0
H905 H 0.84605 0.30351 0.69414 0.0
H906 H 0.80125 0.29912 0.75046 0.0
H907 H 0.76608 0.27975 0.72056 0.0
H908 H 0.75617 0.32049 0.74785 0.0
H909 H 0.72194 0.42997 0.66474 0.0
H910 H 0.68499 0.39618 0.6183 0.0
H911 H 0.74512 0.29499 0.64336 0.0
C912 C 0.8389 0.37581 0.73396 0.0
C913 C 0.84686 0.41334 0.74288 0.0
C914 C 0.82092 0.44132 0.7327 0.0
C915 C 0.78878 0.43281 0.71302 0.0
C916 C 0.7819 0.39596 0.7043 0.0
C917 C 0.8058 0.36769 0.71456 0.0
C918 C 0.79187 0.33072 0.69948 0.0
C919 C 0.82187 0.31084 0.67646 0.0
C920 C 0.77803 0.30603 0.73146 0.0
C921 C 0.75929 0.34363 0.6758 0.0
C922 C 0.75312 0.38118 0.68074 0.0
C923 C 0.72579 0.40036 0.66124 0.0
C924 C 0.70474 0.38094 0.63513 0.0
C925 C 0.71154 0.34297 0.62823 0.0
C926 C 0.73869 0.32379 0.6492 0.0
H927 H 0.9631 0.4817 0.90744 0.0
H928 H 0.8635 0.44279 0.85221 0.0
H929 H 0.82675 0.49016 0.88455 0.0
H930 H 0.9093 0.50321 -0.00105 0.0
H931 H 0.9388 0.54221 0.00927 0.0
H932 H 0.95754 0.50223 0.98559 0.0
H933 H 0.98059 0.54457 0.93286 0.0
H934 H 0.96116 0.58499 0.95491 0.0
H935 H 0.94796 0.57342 0.90811 0.0
H936 H 0.80424 0.54723 0.90984 0.0
H937 H 0.78929 0.60377 0.94312 0.0
H938 H 0.90012 0.6056 0.99138 0.0
C939 C 0.93324 0.48199 0.90401 0.0
C940 C 0.91576 0.4582 0.87805 0.0
C941 C 0.87696 0.45999 0.87292 0.0
C942 C 0.85598 0.48713 0.89076 0.0
C943 C 0.87403 0.51124 0.91486 0.0
C944 C 0.91128 0.50802 0.92322 0.0
C945 C 0.92279 0.53804 0.95081 0.0
C946 C 0.93272 0.52038 0.98838 0.0
C947 C 0.95503 0.56165 0.93574 0.0
C948 C 0.88692 0.56038 0.9537 0.0
C949 C 0.85952 0.54389 0.93253 0.0
C950 C 0.82477 0.55959 0.92793 0.0
C951 C 0.81667 0.59201 0.94712 0.0
C952 C 0.84305 0.60881 0.97108 0.0
C953 C 0.87914 0.59316 0.97385 0.0
H954 H 0.78252 0.70123 0.1575 0.0
H955 H 0.77011 0.62109 0.06841 0.0
H956 H 0.71248 0.59809 0.0967 0.0
H957 H 0.74841 0.63309 0.23072 0.0
H958 H 0.72819 0.67042 0.25731 0.0
H959 H 0.76851 0.67878 0.22884 0.0
H960 H 0.73032 0.73255 0.19822 0.0
H961 H 0.68926 0.72049 0.22427 0.0
H962 H 0.6878 0.72142 0.17428 0.0
H963 H 0.65297 0.59039 0.12726 0.0
H964 H 0.60699 0.57465 0.17495 0.0
H965 H 0.66055 0.6499 0.25212 0.0
C966 C 0.76825 0.67796 0.14489 0.0
C967 C 0.78043 0.66291 0.11065 0.0
C968 C 0.7611 0.63276 0.09467 0.0
C969 C 0.728 0.62003 0.11011 0.0
C970 C 0.71517 0.63696 0.14229 0.0
C971 C 0.73559 0.66346 0.16102 0.0
C972 C 0.71673 0.6732 0.19767 0.0
C973 C 0.74193 0.66329 0.23061 0.0
C974 C 0.70536 0.71437 0.19865 0.0
C975 C 0.68274 0.64796 0.19615 0.0
C976 C 0.68187 0.62899 0.16284 0.0
C977 C 0.65358 0.60443 0.1538 0.0
C978 C 0.6273 0.59606 0.18092 0.0
C979 C 0.63037 0.61093 0.21708 0.0
C980 C 0.65723 0.63872 0.22443 0.0
H981 H 0.64323 0.43234 0.51262 0.0
H982 H 0.61487 0.34547 0.43564 0.0
H983 H 0.57129 0.38766 0.40345 0.0
H984 H 0.54965 0.48816 0.5055 0.0
H985 H 0.57494 0.53128 0.50711 0.0
H986 H 0.59134 0.4915 0.5329 0.0
H987 H 0.65529 0.49687 0.49965 0.0
H988 H 0.63888 0.53622 0.47398 0.0
H989 H 0.6569 0.49632 0.44959 0.0
H990 H 0.53925 0.44081 0.37414 0.0
H991 H 0.53484 0.5 0.3405 0.0
H992 H 0.59414 0.55565 0.42877 0.0
C993 C 0.62605 0.42196 0.49028 0.0
C994 C 0.62946 0.3848 0.47836 0.0
C995 C 0.60939 0.37266 0.44716 0.0
C996 C 0.58507 0.39674 0.42853 0.0
C997 C 0.58211 0.43343 0.44084 0.0
C998 C 0.60256 0.4462 0.47072 0.0
C999 C 0.60119 0.48834 0.473 0.0
C1000 C 0.57793 0.50055 0.50665 0.0
C1001 C 0.64039 0.5054 0.47406 0.0
C1002 C 0.58088 0.49747 0.4373 0.0
C1003 C 0.5675 0.46534 0.42094 0.0
C1004 C 0.54913 0.4661 0.38702 0.0
C1005 C 0.54651 0.50001 0.36823 0.0
C1006 C 0.56383 0.53241 0.38234 0.0
C1007 C 0.5798 0.53153 0.41803 0.0
H1008 H 0.26827 0.31727 0.064 0.0
H1009 H 0.26502 0.3909 0.15889 0.0
H1010 H 0.29175 0.34104 0.19814 0.0
H1011 H 0.24972 0.22816 0.11779 0.0
H1012 H 0.28041 0.20261 0.08759 0.0
H1013 H 0.25389 0.24115 0.06964 0.0
H1014 H 0.31461 0.27219 0.04616 0.0
H1015 H 0.34102 0.23385 0.06373 0.0
H1016 H 0.35188 0.28045 0.0785 0.0
H1017 H 0.32946 0.28764 0.22302 0.0
H1018 H 0.37645 0.23812 0.23032 0.0
H1019 H 0.35355 0.19902 0.11935 0.0
C1020 C 0.27226 0.32257 0.09331 0.0
C1021 C 0.2648 0.35786 0.10853 0.0
C1022 C 0.2705 0.36398 0.14682 0.0
C1023 C 0.28545 0.33571 0.16928 0.0
C1024 C 0.29346 0.30133 0.15306 0.0
C1025 C 0.28658 0.29463 0.11594 0.0
C1026 C 0.30143 0.25725 0.10384 0.0
C1027 C 0.26945 0.23073 0.09414 0.0
C1028 C 0.32887 0.26121 0.07118 0.0
C1029 C 0.32062 0.24509 0.13904 0.0
C1030 C 0.31465 0.27023 0.16758 0.0
C1031 C 0.33324 0.26717 0.20135 0.0
C1032 C 0.35966 0.23883 0.20539 0.0
C1033 C 0.36729 0.21417 0.1758 0.0
C1034 C 0.34668 0.2165 0.14283 0.0
H1035 H 0.84884 0.26626 0.78395 0.0
H1036 H 0.91177 0.28805 0.88427 0.0
H1037 H 0.88177 0.2352 0.91489 0.0
H1038 H 0.7612 0.24252 0.83938 0.0
H1039 H 0.7461 0.20817 0.80628 0.0
H1040 H 0.77216 0.24799 0.79088 0.0
H1041 H 0.81994 0.20414 0.76024 0.0
H1042 H 0.7947 0.16404 0.77652 0.0
H1043 H 0.84309 0.16952 0.78805 0.0
H1044 H 0.8588 0.17416 0.9286 0.0
H1045 H 0.81589 0.1239 0.94345 0.0
H1046 H 0.75269 0.14731 0.84341 0.0
C1047 C 0.85464 0.26092 0.81291 0.0
C1048 C 0.88261 0.281 0.83196 0.0
C1049 C 0.89029 0.27298 0.86952 0.0
C1050 C 0.87396 0.24265 0.88687 0.0
C1051 C 0.84863 0.22174 0.86681 0.0
C1052 C 0.83657 0.23177 0.83188 0.0
C1053 C 0.80544 0.20581 0.81928 0.0
C1054 C 0.76907 0.22742 0.81364 0.0
C1055 C 0.81647 0.18463 0.78391 0.0
C1056 C 0.80289 0.17963 0.85255 0.0
C1057 C 0.82989 0.18864 0.87821 0.0
C1058 C 0.83633 0.1677 0.90977 0.0
C1059 C 0.81193 0.13901 0.91772 0.0
C1060 C 0.78024 0.13279 0.89541 0.0
C1061 C 0.77652 0.15183 0.86113 0.0
H1062 H 0.08079 0.53491 0.18543 0.0
H1063 H 0.14146 0.51359 0.08374 0.0
H1064 H 0.0878 0.53776 0.04747 0.0
H1065 H 0.98611 0.51464 0.15244 0.0
H1066 H 0.96683 0.55289 0.17838 0.0
H1067 H 0.00727 0.52885 0.19547 0.0
H1068 H 0.04352 0.59111 0.19842 0.0
H1069 H 0.00313 0.61522 0.18199 0.0
H1070 H 0.04653 0.61967 0.15741 0.0
H1071 H 0.02967 0.56916 0.02297 0.0
H1072 H 0.97839 0.61427 0.01403 0.0
H1073 H 0.95732 0.61418 0.13209 0.0
C1074 C 0.08251 0.53418 0.15542 0.0
C1075 C 0.11488 0.5216 0.13728 0.0
C1076 C 0.11642 0.52201 0.09808 0.0
C1077 C 0.08607 0.53543 0.07733 0.0
C1078 C 0.05436 0.54741 0.09623 0.0
C1079 C 0.05269 0.54712 0.13453 0.0
C1080 C 0.01822 0.56629 0.14882 0.0
C1081 C 0.99312 0.53902 0.17002 0.0
C1082 C 0.02847 0.60006 0.17305 0.0
C1083 C 0.00076 0.57807 0.11261 0.0
C1084 C 0.02154 0.56644 0.08241 0.0
C1085 C 0.01277 0.57762 0.04634 0.0
C1086 C 0.98332 0.60279 0.04137 0.0
C1087 C 0.96327 0.61632 0.07226 0.0
C1088 C 0.97126 0.60277 0.10798 0.0
H1089 H 0.72313 0.87043 0.34737 0.0
H1090 H 0.75974 0.81808 0.44918 0.0
H1091 H 0.73521 0.75806 0.42789 0.0
H1092 H 0.64104 0.83241 0.34107 0.0
H1093 H 0.63916 0.8232 0.2919 0.0
H1094 H 0.66908 0.85906 0.30918 0.0
H1095 H 0.72525 0.82807 0.27741 0.0
H1096 H 0.69598 0.79148 0.25983 0.0
H1097 H 0.73634 0.78025 0.28714 0.0
H1098 H 0.69548 0.70774 0.40276 0.0
H1099 H 0.64441 0.6713 0.37503 0.0
H1100 H 0.63095 0.75552 0.2901 0.0
C1101 C 0.72759 0.84584 0.3641 0.0
C1102 C 0.74344 0.8488 0.39976 0.0
C1103 C 0.74781 0.81634 0.42164 0.0
C1104 C 0.73406 0.78201 0.40973 0.0
C1105 C 0.71636 0.78023 0.37549 0.0
C1106 C 0.7138 0.81105 0.35251 0.0
C1107 C 0.68943 0.80248 0.31924 0.0
C1108 C 0.65779 0.83096 0.31517 0.0
C1109 C 0.71316 0.80043 0.2838 0.0
C1110 C 0.67508 0.76415 0.32966 0.0
C1111 C 0.69247 0.75104 0.36119 0.0
C1112 C 0.68236 0.71728 0.37749 0.0
C1113 C 0.65332 0.69671 0.36156 0.0
C1114 C 0.63391 0.71049 0.33036 0.0
C1115 C 0.64558 0.74423 0.31381 0.0
H1116 H 0.53526 0.41259 0.54299 0.0
H1117 H 0.52156 0.31982 0.61909 0.0
H1118 H 0.46253 0.34556 0.64054 0.0
H1119 H 0.49823 0.48074 0.6149 0.0
H1120 H 0.47738 0.51017 0.58017 0.0
H1121 H 0.51861 0.48398 0.56932 0.0
H1122 H 0.48358 0.45573 0.51311 0.0
H1123 H 0.4418 0.48043 0.5255 0.0
H1124 H 0.44098 0.43058 0.52092 0.0
H1125 H 0.40105 0.37097 0.64281 0.0
H1126 H 0.35187 0.41485 0.65883 0.0
H1127 H 0.40864 0.50191 0.59739 0.0
C1128 C 0.52033 0.39864 0.56507 0.0
C1129 C 0.53218 0.36361 0.57875 0.0
C1130 C 0.51243 0.34629 0.60794 0.0
C1131 C 0.47859 0.36027 0.61981 0.0
C1132 C 0.46582 0.3928 0.60369 0.0
C1133 C 0.48701 0.41363 0.57942 0.0
C1134 C 0.46779 0.4507 0.57167 0.0
C1135 C 0.49193 0.48334 0.58482 0.0
C1136 C 0.45797 0.45458 0.53033 0.0
C1137 C 0.43275 0.44659 0.59534 0.0
C1138 C 0.43173 0.41167 0.61115 0.0
C1139 C 0.40192 0.39899 0.63192 0.0
C1140 C 0.37393 0.42402 0.64046 0.0
C1141 C 0.37706 0.46178 0.63018 0.0
C1142 C 0.40569 0.4731 0.60554 0.0
H1143 H 0.20578 0.62005 0.64586 0.0
H1144 H 0.27742 0.6845 0.57411 0.0
H1145 H 0.25272 0.74249 0.6008 0.0
H1146 H 0.13011 0.668 0.63488 0.0
H1147 H 0.11206 0.66769 0.68159 0.0
H1148 H 0.14309 0.63163 0.66683 0.0
H1149 H 0.1878 0.64654 0.72079 0.0
H1150 H 0.15657 0.6825 0.73645 0.0
H1151 H 0.20452 0.69331 0.72697 0.0
H1152 H 0.21104 0.79249 0.62386 0.0
H1153 H 0.15625 0.82987 0.64208 0.0
H1154 H 0.1097 0.73363 0.69758 0.0
C1155 C 0.21773 0.64641 0.63763 0.0
C1156 C 0.24415 0.64803 0.60875 0.0
C1157 C 0.25788 0.68288 0.59695 0.0
C1158 C 0.24395 0.71597 0.61194 0.0
C1159 C 0.21631 0.7138 0.63893 0.0
C1160 C 0.2038 0.67988 0.65231 0.0
C1161 C 0.17025 0.68523 0.67729 0.0
C1162 C 0.13693 0.66177 0.66431 0.0
C1163 C 0.18039 0.67637 0.71778 0.0
C1164 C 0.16342 0.72657 0.67225 0.0
C1165 C 0.19125 0.74288 0.65148 0.0
C1166 C 0.18953 0.78023 0.64092 0.0
C1167 C 0.15828 0.80129 0.65126 0.0
C1168 C 0.12871 0.78463 0.67102 0.0
C1169 C 0.13193 0.74708 0.68239 0.0
H1170 H 0.45284 0.90694 0.89038 0.0
H1171 H 0.50943 0.84185 0.97406 0.0
H1172 H 0.56277 0.88419 0.97167 0.0
H1173 H 0.5195 0.92125 0.83352 0.0
H1174 H 0.51285 0.96956 0.82192 0.0
H1175 H 0.47449 0.94273 0.83876 0.0
H1176 H 0.46405 0.99017 0.89187 0.0
H1177 H 0.50262 0.0174 0.87493 0.0
H1178 H 0.5019 0.00174 0.92241 0.0
H1179 H 0.61537 0.92173 0.94907 0.0
H1180 H 0.66156 0.95187 0.90796 0.0
H1181 H 0.57273 0.99312 0.83856 0.0
C1182 C 0.47564 0.90305 0.90952 0.0
C1183 C 0.47707 0.87133 0.93241 0.0
C1184 C 0.50782 0.86619 0.95639 0.0
C1185 C 0.53823 0.89025 0.95545 0.0
C1186 C 0.53733 0.92006 0.93095 0.0
C1187 C 0.50643 0.92728 0.90908 0.0
C1188 C 0.51479 0.95819 0.88171 0.0
C1189 C 0.50487 0.9472 0.84163 0.0
C1190 C 0.49463 0.99399 0.89341 0.0
C1191 C 0.55635 0.96236 0.88731 0.0
C1192 C 0.56839 0.94199 0.9175 0.0
C1193 C 0.60613 0.93875 0.92611 0.0
C1194 C 0.63223 0.95586 0.90266 0.0
C1195 C 0.62036 0.97484 0.87053 0.0
C1196 C 0.5821 0.97904 0.86341 0.0
H1197 H 0.88427 0.01706 0.39893 0.0
H1198 H 0.92443 0.00764 0.28539 0.0
H1199 H 0.98406 0.03295 0.3035 0.0
H1200 H 0.9239 0.10321 0.41676 0.0
H1201 H 0.93782 0.09406 0.46395 0.0
H1202 H 0.89956 0.06895 0.44411 0.0
H1203 H 0.93253 0.00679 0.4602 0.0
H1204 H 0.971 0.03227 0.47965 0.0
H1205 H 0.97902 0.99862 0.44352 0.0
H1206 H 0.03747 0.06251 0.32976 0.0
H1207 H 0.07749 0.10787 0.36138 0.0
H1208 H 0.00546 0.10414 0.45765 0.0
C1209 C 0.90605 0.01947 0.37832 0.0
C1210 C 0.89948 0.00983 0.34081 0.0
C1211 C 0.92842 0.01449 0.31438 0.0
C1212 C 0.96289 0.02851 0.32438 0.0
C1213 C 0.96875 0.03773 0.36117 0.0
C1214 C 0.94123 0.0341 0.38785 0.0
C1215 C 0.95427 0.05092 0.4243 0.0
C1216 C 0.92729 0.0811 0.43804 0.0
C1217 C 0.95951 0.02034 0.45366 0.0
C1218 C 0.99169 0.06709 0.41256 0.0
C1219 C 0.00012 0.05712 0.37656 0.0
C1220 C 0.03178 0.06997 0.35829 0.0
C1221 C 0.05464 0.0954 0.37655 0.0
C1222 C 0.04503 0.10848 0.41212 0.0
C1223 C 0.01395 0.09329 0.43093 0.0
loop_
_geom_bond_atom_site_label_1
_geom_bond_atom_site_label_2
_geom_bond_distance
_geom_bond_site_symmetry_2
_ccdc_geom_bond_type
O0 Mn1 2.163 . S
O0 C14 1.244 . S
Mn1 O0 2.163 . S
Mn1 O4 2.160 . S
Mn1 O5 2.221 . S
Mn1 O7 2.163 . S
Mn1 O9 2.160 . S
Mn1 O19 2.221 . S
O2 Mn3 2.087 . S
O2 C14 1.256 . S
Mn3 O2 2.087 . S
Mn3 O10 2.089 . S
Mn3 O19 2.290 . S
Mn3 O20 2.251 . S
O4 Mn1 2.160 . S
O4 C15 1.239 . S
O5 Mn1 2.221 . S
O5 Mn6 2.290 . S
O5 C16 1.278 . S
Mn6 O5 2.290 . S
Mn6 O8 2.089 . S
Mn6 O11 2.251 . S
Mn6 O12 2.087 . S
O7 Mn1 2.163 . S
O7 C17 1.244 . S
O8 Mn6 2.089 . S
O8 C15 1.256 . S
O9 Mn1 2.160 . S
O9 C18 1.239 . S
O10 Mn3 2.089 . S
O10 C18 1.256 . S
O11 Mn6 2.251 . S
O11 C16 1.241 . S
O12 Mn6 2.087 . S
O12 C17 1.256 . S
C13 O19 1.278 . S
C13 O20 1.241 . S
C14 O0 1.244 . S
C14 O2 1.256 . S
C15 O4 1.239 . S
C15 O8 1.256 . S
C16 O5 1.278 . S
C16 O11 1.241 . S
C17 O7 1.244 . S
C17 O12 1.256 . S
C18 O9 1.239 . S
C18 O10 1.256 . S
O19 Mn1 2.221 . S
O19 Mn3 2.290 . S
O19 C13 1.278 . S
O20 Mn3 2.251 . S
O20 C13 1.241 . S
O21 Mn22 2.163 . S
O21 C35 1.244 . S
Mn22 O21 2.163 . S
Mn22 O25 2.160 . S
Mn22 O26 2.221 . S
Mn22 O28 2.163 . S
Mn22 O30 2.160 . S
Mn22 O40 2.221 . S
O23 Mn24 2.087 . S
O23 C35 1.256 . S
Mn24 O23 2.087 . S
Mn24 O31 2.089 . S
Mn24 O40 2.290 . S
Mn24 O41 2.251 1_455 S
O25 Mn22 2.160 . S
O25 C36 1.239 . S
O26 Mn22 2.221 . S
O26 Mn27 2.290 . S
O26 C37 1.278 . S
Mn27 O26 2.290 . S
Mn27 O29 2.089 . S
Mn27 O32 2.251 . S
Mn27 O33 2.087 . S
O28 Mn22 2.163 . S
O28 C38 1.244 . S
O29 Mn27 2.089 . S
O29 C36 1.256 . S
O30 Mn22 2.160 . S
O30 C39 1.239 . S
O31 Mn24 2.089 . S
O31 C39 1.256 . S
O32 Mn27 2.251 . S
O32 C37 1.241 . S
O33 Mn27 2.087 . S
O33 C38 1.256 . S
C34 O40 1.278 1_655 S
C34 O41 1.241 . S
C35 O21 1.244 . S
C35 O23 1.256 . S
C36 O25 1.239 . S
C36 O29 1.256 . S
C37 O26 1.278 . S
C37 O32 1.241 . S
C38 O28 1.244 . S
C38 O33 1.256 . S
C39 O30 1.239 . S
C39 O31 1.256 . S
O40 Mn22 2.221 . S
O40 Mn24 2.290 . S
O40 C34 1.278 1_455 S
O41 Mn24 2.251 1_655 S
O41 C34 1.241 . S
O42 Mn43 2.163 . S
O42 C56 1.244 . S
Mn43 O42 2.163 . S
Mn43 O46 2.160 . S
Mn43 O47 2.221 . S
Mn43 O49 2.163 . S
Mn43 O51 2.160 . S
Mn43 O61 2.221 . S
O44 Mn45 2.087 . S
O44 C56 1.256 . S
Mn45 O44 2.087 . S
Mn45 O52 2.089 . S
Mn45 O61 2.290 . S
Mn45 O62 2.251 1_556 S
O46 Mn43 2.160 . S
O46 C57 1.239 . S
O47 Mn43 2.221 . S
O47 Mn48 2.290 . S
O47 C58 1.278 . S
Mn48 O47 2.290 . S
Mn48 O50 2.089 . S
Mn48 O53 2.251 . S
Mn48 O54 2.087 . S
O49 Mn43 2.163 . S
O49 C59 1.244 . S
O50 Mn48 2.089 . S
O50 C57 1.256 . S
O51 Mn43 2.160 . S
O51 C60 1.239 . S
O52 Mn45 2.089 . S
O52 C60 1.256 . S
O53 Mn48 2.251 . S
O53 C58 1.241 . S
O54 Mn48 2.087 . S
O54 C59 1.256 . S
C55 O61 1.278 1_554 S
C55 O62 1.241 . S
C56 O42 1.244 . S
C56 O44 1.256 . S
C57 O46 1.239 . S
C57 O50 1.256 . S
C58 O47 1.278 . S
C58 O53 1.241 . S
C59 O49 1.244 . S
C59 O54 1.256 . S
C60 O51 1.239 . S
C60 O52 1.256 . S
O61 Mn43 2.221 . S
O61 Mn45 2.290 . S
O61 C55 1.278 1_556 S
O62 Mn45 2.251 1_554 S
O62 C55 1.241 . S
O63 Mn64 2.163 . S
O63 C77 1.244 . S
Mn64 O63 2.163 . S
Mn64 O67 2.160 . S
Mn64 O68 2.221 . S
Mn64 O70 2.163 . S
Mn64 O72 2.160 . S
Mn64 O82 2.221 . S
O65 Mn66 2.087 . S
O65 C77 1.256 . S
Mn66 O65 2.087 . S
Mn66 O73 2.089 . S
Mn66 O82 2.290 . S
Mn66 O83 2.251 . S
O67 Mn64 2.160 . S
O67 C78 1.239 . S
O68 Mn64 2.221 . S
O68 Mn69 2.290 . S
O68 C79 1.278 . S
Mn69 O68 2.290 . S
Mn69 O71 2.089 . S
Mn69 O74 2.251 . S
Mn69 O75 2.087 . S
O70 Mn64 2.163 . S
O70 C80 1.244 . S
O71 Mn69 2.089 . S
O71 C78 1.256 . S
O72 Mn64 2.160 . S
O72 C81 1.239 . S
O73 Mn66 2.089 . S
O73 C81 1.256 . S
O74 Mn69 2.251 . S
O74 C79 1.241 . S
O75 Mn69 2.087 . S
O75 C80 1.256 . S
C76 O82 1.278 . S
C76 O83 1.241 . S
C77 O63 1.244 . S
C77 O65 1.256 . S
C78 O67 1.239 . S
C78 O71 1.256 . S
C79 O68 1.278 . S
C79 O74 1.241 . S
C80 O70 1.244 . S
C80 O75 1.256 . S
C81 O72 1.239 . S
C81 O73 1.256 . S
O82 Mn64 2.221 . S
O82 Mn66 2.290 . S
O82 C76 1.278 . S
O83 Mn66 2.251 . S
O83 C76 1.241 . S
O84 Mn85 2.163 . S
O84 C98 1.244 . S
Mn85 O84 2.163 . S
Mn85 O88 2.160 . S
Mn85 O89 2.221 . S
Mn85 O91 2.163 . S
Mn85 O93 2.160 . S
Mn85 O103 2.221 . S
O86 Mn87 2.087 . S
O86 C98 1.256 . S
Mn87 O86 2.087 . S
Mn87 O94 2.089 . S
Mn87 O103 2.290 . S
Mn87 O104 2.251 . S
O88 Mn85 2.160 . S
O88 C99 1.239 . S
O89 Mn85 2.221 . S
O89 Mn90 2.290 . S
O89 C100 1.278 . S
Mn90 O89 2.290 . S
Mn90 O92 2.089 . S
Mn90 O95 2.251 . S
Mn90 O96 2.087 . S
O91 Mn85 2.163 . S
O91 C101 1.244 . S
O92 Mn90 2.089 . S
O92 C99 1.256 . S
O93 Mn85 2.160 . S
O93 C102 1.239 . S
O94 Mn87 2.089 . S
O94 C102 1.256 . S
O95 Mn90 2.251 . S
O95 C100 1.241 . S
O96 Mn90 2.087 . S
O96 C101 1.256 . S
C97 O103 1.278 . S
C97 O104 1.241 . S
C98 O84 1.244 . S
C98 O86 1.256 . S
C99 O88 1.239 . S
C99 O92 1.256 . S
C100 O89 1.278 . S
C100 O95 1.241 . S
C101 O91 1.244 . S
C101 O96 1.256 . S
C102 O93 1.239 . S
C102 O94 1.256 . S
O103 Mn85 2.221 . S
O103 Mn87 2.290 . S
O103 C97 1.278 . S
O104 Mn87 2.251 . S
O104 C97 1.241 . S
O105 Mn106 2.163 . S
O105 C119 1.244 . S
Mn106 O105 2.163 . S
Mn106 O109 2.160 . S
Mn106 O110 2.221 . S
Mn106 O112 2.163 . S
Mn106 O114 2.160 . S
Mn106 O124 2.221 . S
O107 Mn108 2.087 . S
O107 C119 1.256 . S
Mn108 O107 2.087 . S
Mn108 O115 2.089 . S
Mn108 O124 2.290 . S
Mn108 O125 2.251 . S
O109 Mn106 2.160 . S
O109 C120 1.239 . S
O110 Mn106 2.221 . S
O110 Mn111 2.290 . S
O110 C121 1.278 1_655 S
Mn111 O110 2.290 . S
Mn111 O113 2.089 . S
Mn111 O116 2.251 1_655 S
Mn111 O117 2.087 . S
O112 Mn106 2.163 . S
O112 C122 1.244 . S
O113 Mn111 2.089 . S
O113 C120 1.256 . S
O114 Mn106 2.160 . S
O114 C123 1.239 . S
O115 Mn108 2.089 . S
O115 C123 1.256 . S
O116 Mn111 2.251 1_455 S
O116 C121 1.241 . S
O117 Mn111 2.087 . S
O117 C122 1.256 . S
C118 O124 1.278 . S
C118 O125 1.241 . S
C119 O105 1.244 . S
C119 O107 1.256 . S
C120 O109 1.239 . S
C120 O113 1.256 . S
C121 O110 1.278 1_455 S
C121 O116 1.241 . S
C122 O112 1.244 . S
C122 O117 1.256 . S
C123 O114 1.239 . S
C123 O115 1.256 . S
O124 Mn106 2.221 . S
O124 Mn108 2.290 . S
O124 C118 1.278 . S
O125 Mn108 2.251 . S
O125 C118 1.241 . S
O126 Mn127 2.163 . S
O126 C140 1.244 . S
Mn127 O126 2.163 . S
Mn127 O130 2.160 . S
Mn127 O131 2.221 . S
Mn127 O133 2.163 . S
Mn127 O135 2.160 . S
Mn127 O145 2.221 . S
O128 Mn129 2.087 . S
O128 C140 1.256 . S
Mn129 O128 2.087 . S
Mn129 O136 2.089 . S
Mn129 O145 2.290 . S
Mn129 O146 2.251 . S
O130 Mn127 2.160 . S
O130 C141 1.239 . S
O131 Mn127 2.221 . S
O131 Mn132 2.290 . S
O131 C142 1.278 1_554 S
Mn132 O131 2.290 . S
Mn132 O134 2.089 . S
Mn132 O137 2.251 1_554 S
Mn132 O138 2.087 . S
O133 Mn127 2.163 . S
O133 C143 1.244 . S
O134 Mn132 2.089 . S
O134 C141 1.256 . S
O135 Mn127 2.160 . S
O135 C144 1.239 . S
O136 Mn129 2.089 . S
O136 C144 1.256 . S
O137 Mn132 2.251 1_556 S
O137 C142 1.241 . S
O138 Mn132 2.087 . S
O138 C143 1.256 . S
C139 O145 1.278 . S
C139 O146 1.241 . S
C140 O126 1.244 . S
C140 O128 1.256 . S
C141 O130 1.239 . S
C141 O134 1.256 . S
C142 O131 1.278 1_556 S
C142 O137 1.241 . S
C143 O133 1.244 . S
C143 O138 1.256 . S
C144 O135 1.239 . S
C144 O136 1.256 . S
O145 Mn127 2.221 . S
O145 Mn129 2.290 . S
O145 C139 1.278 . S
O146 Mn129 2.251 . S
O146 C139 1.241 . S
O147 Mn148 2.163 . S
O147 C161 1.244 . S
Mn148 O147 2.163 . S
Mn148 O151 2.160 . S
Mn148 O152 2.221 . S
Mn148 O154 2.163 . S
Mn148 O156 2.160 . S
Mn148 O166 2.221 . S
O149 Mn150 2.087 . S
O149 C161 1.256 . S
Mn150 O149 2.087 . S
Mn150 O157 2.089 . S
Mn150 O166 2.290 . S
Mn150 O167 2.251 . S
O151 Mn148 2.160 . S
O151 C162 1.239 . S
O152 Mn148 2.221 . S
O152 Mn153 2.290 . S
O152 C163 1.278 . S
Mn153 O152 2.290 . S
Mn153 O155 2.089 . S
Mn153 O158 2.251 . S
Mn153 O159 2.087 . S
O154 Mn148 2.163 . S
O154 C164 1.244 . S
O155 Mn153 2.089 . S
O155 C162 1.256 . S
O156 Mn148 2.160 . S
O156 C165 1.239 . S
O157 Mn150 2.089 . S
O157 C165 1.256 . S
O158 Mn153 2.251 . S
O158 C163 1.241 . S
O159 Mn153 2.087 . S
O159 C164 1.256 . S
C160 O166 1.278 . S
C160 O167 1.241 . S
C161 O147 1.244 . S
C161 O149 1.256 . S
C162 O151 1.239 . S
C162 O155 1.256 . S
C163 O152 1.278 . S
C163 O158 1.241 . S
C164 O154 1.244 . S
C164 O159 1.256 . S
C165 O156 1.239 . S
C165 O157 1.256 . S
O166 Mn148 2.221 . S
O166 Mn150 2.290 . S
O166 C160 1.278 . S
O167 Mn150 2.251 . S
O167 C160 1.241 . S
O168 Mn169 2.163 . S
O168 C182 1.244 . S
Mn169 O168 2.163 . S
Mn169 O172 2.160 . S
Mn169 O173 2.221 . S
Mn169 O175 2.163 . S
Mn169 O177 2.160 . S
Mn169 O187 2.221 . S
O170 Mn171 2.087 . S
O170 C182 1.256 . S
Mn171 O170 2.087 . S
Mn171 O178 2.089 . S
Mn171 O187 2.290 . S
Mn171 O188 2.251 . S
O172 Mn169 2.160 . S
O172 C183 1.239 . S
O173 Mn169 2.221 . S
O173 Mn174 2.290 . S
O173 C184 1.278 . S
Mn174 O173 2.290 . S
Mn174 O176 2.089 . S
Mn174 O179 2.251 . S
Mn174 O180 2.087 . S
O175 Mn169 2.163 . S
O175 C185 1.244 . S
O176 Mn174 2.089 . S
O176 C183 1.256 . S
O177 Mn169 2.160 . S
O177 C186 1.239 . S
O178 Mn171 2.089 . S
O178 C186 1.256 . S
O179 Mn174 2.251 . S
O179 C184 1.241 . S
O180 Mn174 2.087 . S
O180 C185 1.256 . S
C181 O187 1.278 . S
C181 O188 1.241 . S
C182 O168 1.244 . S
C182 O170 1.256 . S
C183 O172 1.239 . S
C183 O176 1.256 . S
C184 O173 1.278 . S
C184 O179 1.241 . S
C185 O175 1.244 . S
C185 O180 1.256 . S
C186 O177 1.239 . S
C186 O178 1.256 . S
O187 Mn169 2.221 . S
O187 Mn171 2.290 . S
O187 C181 1.278 . S
O188 Mn171 2.251 . S
O188 C181 1.241 . S
O189 Mn190 2.163 . S
O189 C203 1.244 . S
Mn190 O189 2.163 . S
Mn190 O193 2.160 . S
Mn190 O194 2.221 . S
Mn190 O196 2.163 . S
Mn190 O198 2.160 . S
Mn190 O208 2.221 . S
O191 Mn192 2.087 . S
O191 C203 1.256 . S
Mn192 O191 2.087 . S
Mn192 O199 2.089 . S
Mn192 O208 2.290 . S
Mn192 O209 2.251 1_545 S
O193 Mn190 2.160 . S
O193 C204 1.239 . S
O194 Mn190 2.221 . S
O194 Mn195 2.290 . S
O194 C205 1.278 . S
Mn195 O194 2.290 . S
Mn195 O197 2.089 . S
Mn195 O200 2.251 . S
Mn195 O201 2.087 . S
O196 Mn190 2.163 . S
O196 C206 1.244 . S
O197 Mn195 2.089 . S
O197 C204 1.256 . S
O198 Mn190 2.160 . S
O198 C207 1.239 . S
O199 Mn192 2.089 . S
O199 C207 1.256 . S
O200 Mn195 2.251 . S
O200 C205 1.241 . S
O201 Mn195 2.087 . S
O201 C206 1.256 . S
C202 O208 1.278 1_565 S
C202 O209 1.241 . S
C203 O189 1.244 . S
C203 O191 1.256 . S
C204 O193 1.239 . S
C204 O197 1.256 . S
C205 O194 1.278 . S
C205 O200 1.241 . S
C206 O196 1.244 . S
C206 O201 1.256 . S
C207 O198 1.239 . S
C207 O199 1.256 . S
O208 Mn190 2.221 . S
O208 Mn192 2.290 . S
O208 C202 1.278 1_545 S
O209 Mn192 2.251 1_565 S
O209 C202 1.241 . S
O210 Mn211 2.163 . S
O210 C224 1.244 . S
Mn211 O210 2.163 . S
Mn211 O214 2.160 . S
Mn211 O215 2.221 . S
Mn211 O217 2.163 . S
Mn211 O219 2.160 . S
Mn211 O229 2.221 . S
O212 Mn213 2.087 . S
O212 C224 1.256 . S
Mn213 O212 2.087 . S
Mn213 O220 2.089 . S
Mn213 O229 2.290 . S
Mn213 O230 2.251 1_565 S
O214 Mn211 2.160 . S
O214 C225 1.239 . S
O215 Mn211 2.221 . S
O215 Mn216 2.290 . S
O215 C226 1.278 . S
Mn216 O215 2.290 . S
Mn216 O218 2.089 . S
Mn216 O221 2.251 . S
Mn216 O222 2.087 . S
O217 Mn211 2.163 . S
O217 C227 1.244 . S
O218 Mn216 2.089 . S
O218 C225 1.256 . S
O219 Mn211 2.160 . S
O219 C228 1.239 . S
O220 Mn213 2.089 . S
O220 C228 1.256 . S
O221 Mn216 2.251 . S
O221 C226 1.241 . S
O222 Mn216 2.087 . S
O222 C227 1.256 . S
C223 O229 1.278 1_545 S
C223 O230 1.241 . S
C224 O210 1.244 . S
C224 O212 1.256 . S
C225 O214 1.239 . S
C225 O218 1.256 . S
C226 O215 1.278 . S
C226 O221 1.241 . S
C227 O217 1.244 . S
C227 O222 1.256 . S
C228 O219 1.239 . S
C228 O220 1.256 . S
O229 Mn211 2.221 . S
O229 Mn213 2.290 . S
O229 C223 1.278 1_565 S
O230 Mn213 2.251 1_545 S
O230 C223 1.241 . S
O231 Mn232 2.163 . S
O231 C245 1.244 . S
Mn232 O231 2.163 . S
Mn232 O235 2.160 . S
Mn232 O236 2.221 . S
Mn232 O238 2.163 . S
Mn232 O240 2.160 . S
Mn232 O250 2.221 . S
O233 Mn234 2.087 . S
O233 C245 1.256 . S
Mn234 O233 2.087 . S
Mn234 O241 2.089 . S
Mn234 O250 2.290 . S
Mn234 O251 2.251 . S
O235 Mn232 2.160 . S
O235 C246 1.239 . S
O236 Mn232 2.221 . S
O236 Mn237 2.290 . S
O236 C247 1.278 . S
Mn237 O236 2.290 . S
Mn237 O239 2.089 . S
Mn237 O242 2.251 . S
Mn237 O243 2.087 . S
O238 Mn232 2.163 . S
O238 C248 1.244 . S
O239 Mn237 2.089 . S
O239 C246 1.256 . S
O240 Mn232 2.160 . S
O240 C249 1.239 . S
O241 Mn234 2.089 . S
O241 C249 1.256 . S
O242 Mn237 2.251 . S
O242 C247 1.241 . S
O243 Mn237 2.087 . S
O243 C248 1.256 . S
C244 O250 1.278 . S
C244 O251 1.241 . S
C245 O231 1.244 . S
C245 O233 1.256 . S
C246 O235 1.239 . S
C246 O239 1.256 . S
C247 O236 1.278 . S
C247 O242 1.241 . S
C248 O238 1.244 . S
C248 O243 1.256 . S
C249 O240 1.239 . S
C249 O241 1.256 . S
O250 Mn232 2.221 . S
O250 Mn234 2.290 . S
O250 C244 1.278 . S
O251 Mn234 2.251 . S
O251 C244 1.241 . S
H252 C264 0.930 . S
H253 C266 0.930 . S
H254 C267 0.930 . S
H255 C271 0.959 . S
H256 C271 0.959 . S
H257 C271 0.961 . S
H258 C272 0.960 . S
H259 C272 0.961 . S
H260 C272 0.959 . S
H261 C275 0.929 . S
H262 C276 0.931 . S
H263 C278 0.930 . S
C264 H252 0.930 . S
C264 C265 1.399 . S
C264 C269 1.399 . S
C265 C264 1.399 . S
C265 C266 1.376 . S
C266 H253 0.930 . S
C266 C265 1.376 . S
C266 C267 1.388 . S
C267 H254 0.930 . S
C267 C266 1.388 . S
C267 C268 1.390 . S
C268 C267 1.390 . S
C268 C269 1.394 . S
C268 C274 1.465 . S
C269 C264 1.399 . S
C269 C268 1.394 . S
C269 C270 1.516 . S
C270 C269 1.516 . S
C270 C271 1.502 . S
C270 C272 1.561 . S
C270 C273 1.526 . S
C271 H255 0.959 . S
C271 H256 0.959 . S
C271 H257 0.961 . S
C271 C270 1.502 . S
C272 H258 0.960 . S
C272 H259 0.961 . S
C272 H260 0.959 . S
C272 C270 1.561 . S
C273 C270 1.526 . S
C273 C274 1.396 . S
C273 C278 1.390 . S
C274 C268 1.465 . S
C274 C273 1.396 . S
C274 C275 1.399 . S
C275 H261 0.929 . S
C275 C274 1.399 . S
C275 C276 1.385 . S
C276 H262 0.931 . S
C276 C275 1.385 . S
C276 C277 1.389 . S
C277 C276 1.389 . S
C277 C278 1.387 . S
C278 H263 0.930 . S
C278 C273 1.390 . S
C278 C277 1.387 . S
H279 C291 0.930 . S
H280 C293 0.930 . S
H281 C294 0.930 . S
H282 C298 0.959 . S
H283 C298 0.959 . S
H284 C298 0.961 . S
H285 C299 0.960 . S
H286 C299 0.961 . S
H287 C299 0.959 . S
H288 C302 0.929 . S
H289 C303 0.931 . S
H290 C305 0.930 . S
C291 H279 0.930 . S
C291 C292 1.399 1_565 S
C291 C296 1.399 . S
C292 C291 1.399 1_545 S
C292 C293 1.376 . S
C293 H280 0.930 . S
C293 C292 1.376 . S
C293 C294 1.388 . S
C294 H281 0.930 . S
C294 C293 1.388 . S
C294 C295 1.390 . S
C295 C294 1.390 . S
C295 C296 1.394 1_545 S
C295 C301 1.465 1_545 S
C296 C291 1.399 . S
C296 C295 1.394 1_565 S
C296 C297 1.516 . S
C297 C296 1.516 . S
C297 C298 1.502 . S
C297 C299 1.561 . S
C297 C300 1.526 . S
C298 H282 0.959 . S
C298 H283 0.959 . S
C298 H284 0.961 . S
C298 C297 1.502 . S
C299 H285 0.960 . S
C299 H286 0.961 . S
C299 H287 0.959 . S
C299 C297 1.561 . S
C300 C297 1.526 . S
C300 C301 1.396 . S
C300 C305 1.390 . S
C301 C295 1.465 1_565 S
C301 C300 1.396 . S
C301 C302 1.399 1_565 S
C302 H288 0.929 . S
C302 C301 1.399 1_545 S
C302 C303 1.385 . S
C303 H289 0.931 . S
C303 C302 1.385 . S
C303 C304 1.389 1_545 S
C304 C303 1.389 1_565 S
C304 C305 1.387 . S
C305 H290 0.930 . S
C305 C300 1.390 . S
C305 C304 1.387 . S
H306 C318 0.930 . S
H307 C320 0.930 . S
H308 C321 0.930 . S
H309 C325 0.959 . S
H310 C325 0.959 . S
H311 C325 0.961 . S
H312 C326 0.960 . S
H313 C326 0.961 . S
H314 C326 0.959 . S
H315 C329 0.929 . S
H316 C330 0.931 . S
H317 C332 0.930 1_556 S
C318 H306 0.930 . S
C318 C319 1.399 . S
C318 C323 1.399 . S
C319 C318 1.399 . S
C319 C320 1.376 1_556 S
C320 H307 0.930 . S
C320 C319 1.376 1_554 S
C320 C321 1.388 . S
C321 H308 0.930 . S
C321 C320 1.388 . S
C321 C322 1.390 . S
C322 C321 1.390 . S
C322 C323 1.394 1_554 S
C322 C328 1.465 . S
C323 C318 1.399 . S
C323 C322 1.394 1_556 S
C323 C324 1.516 . S
C324 C323 1.516 . S
C324 C325 1.502 . S
C324 C326 1.561 . S
C324 C327 1.526 1_556 S
C325 H309 0.959 . S
C325 H310 0.959 . S
C325 H311 0.961 . S
C325 C324 1.502 . S
C326 H312 0.960 . S
C326 H313 0.961 . S
C326 H314 0.959 . S
C326 C324 1.561 . S
C327 C324 1.526 1_554 S
C327 C328 1.396 . S
C327 C332 1.390 . S
C328 C322 1.465 . S
C328 C327 1.396 . S
C328 C329 1.399 . S
C329 H315 0.929 . S
C329 C328 1.399 . S
C329 C330 1.385 . S
C330 H316 0.931 . S
C330 C329 1.385 . S
C330 C331 1.389 . S
C331 C330 1.389 . S
C331 C332 1.387 . S
C332 H317 0.930 1_554 S
C332 C327 1.390 . S
C332 C331 1.387 . S
H333 C345 0.930 . S
H334 C347 0.930 . S
H335 C348 0.930 . S
H336 C352 0.959 . S
H337 C352 0.959 . S
H338 C352 0.961 . S
H339 C353 0.960 . S
H340 C353 0.961 1_565 S
H341 C353 0.959 . S
H342 C356 0.929 . S
H343 C357 0.931 . S
H344 C359 0.930 . S
C345 H333 0.930 . S
C345 C346 1.399 . S
C345 C350 1.399 . S
C346 C345 1.399 . S
C346 C347 1.376 . S
C347 H334 0.930 . S
C347 C346 1.376 . S
C347 C348 1.388 . S
C348 H335 0.930 . S
C348 C347 1.388 . S
C348 C349 1.390 . S
C349 C348 1.390 . S
C349 C350 1.394 . S
C349 C355 1.465 . S
C350 C345 1.399 . S
C350 C349 1.394 . S
C350 C351 1.516 1_545 S
C351 C350 1.516 1_565 S
C351 C352 1.502 . S
C351 C353 1.561 1_565 S
C351 C354 1.530 . S
C352 H336 0.959 . S
C352 H337 0.959 . S
C352 H338 0.961 . S
C352 C351 1.502 . S
C353 H339 0.960 . S
C353 H340 0.961 1_545 S
C353 H341 0.959 . S
C353 C351 1.561 1_545 S
C354 C351 1.530 . S
C354 C355 1.380 1_565 S
C354 C359 1.399 . S
C355 C349 1.465 . S
C355 C354 1.380 1_545 S
C355 C356 1.399 . S
C356 H342 0.929 . S
C356 C355 1.399 . S
C356 C357 1.385 . S
C357 H343 0.931 . S
C357 C356 1.385 . S
C357 C358 1.389 1_545 S
C358 C357 1.389 1_565 S
C358 C359 1.387 . S
C359 H344 0.930 . S
C359 C354 1.399 . S
C359 C358 1.387 . S
H360 C372 0.930 . S
H361 C374 0.930 . S
H362 C375 0.930 . S
H363 C379 0.959 . S
H364 C379 0.959 . S
H365 C379 0.961 . S
H366 C380 0.960 . S
H367 C380 0.961 . S
H368 C380 0.959 . S
H369 C383 0.929 . S
H370 C384 0.931 . S
H371 C386 0.930 . S
C372 H360 0.930 . S
C372 C373 1.399 . S
C372 C377 1.399 . S
C373 C372 1.399 . S
C373 C374 1.376 . S
C374 H361 0.930 . S
C374 C373 1.376 . S
C374 C375 1.388 . S
C375 H362 0.930 . S
C375 C374 1.388 . S
C375 C376 1.390 . S
C376 C375 1.390 . S
C376 C377 1.394 . S
C376 C382 1.465 . S
C377 C372 1.399 . S
C377 C376 1.394 . S
C377 C378 1.516 . S
C378 C377 1.516 . S
C378 C379 1.502 . S
C378 C380 1.561 . S
C378 C381 1.526 . S
C379 H363 0.959 . S
C379 H364 0.959 . S
C379 H365 0.961 . S
C379 C378 1.502 . S
C380 H366 0.960 . S
C380 H367 0.961 . S
C380 H368 0.959 . S
C380 C378 1.561 . S
C381 C378 1.526 . S
C381 C382 1.396 . S
C381 C386 1.390 . S
C382 C376 1.465 . S
C382 C381 1.396 . S
C382 C383 1.399 . S
C383 H369 0.929 . S
C383 C382 1.399 . S
C383 C384 1.385 . S
C384 H370 0.931 . S
C384 C383 1.385 . S
C384 C385 1.389 . S
C385 C384 1.389 . S
C385 C386 1.387 . S
C386 H371 0.930 . S
C386 C381 1.390 . S
C386 C385 1.387 . S
H387 C399 0.930 . S
H388 C401 0.930 . S
H389 C402 0.930 . S
H390 C406 0.959 . S
H391 C406 0.959 . S
H392 C406 0.961 . S
H393 C407 0.960 . S
H394 C407 0.961 . S
H395 C407 0.959 . S
H396 C410 0.929 . S
H397 C411 0.931 . S
H398 C413 0.930 . S
C399 H387 0.930 . S
C399 C400 1.399 . S
C399 C404 1.399 . S
C400 C399 1.399 . S
C400 C401 1.376 . S
C401 H388 0.930 . S
C401 C400 1.376 . S
C401 C402 1.388 . S
C402 H389 0.930 . S
C402 C401 1.388 . S
C402 C403 1.390 . S
C403 C402 1.390 . S
C403 C404 1.394 . S
C403 C409 1.465 . S
C404 C399 1.399 . S
C404 C403 1.394 . S
C404 C405 1.516 . S
C405 C404 1.516 . S
C405 C406 1.502 . S
C405 C407 1.561 . S
C405 C408 1.526 . S
C406 H390 0.959 . S
C406 H391 0.959 . S
C406 H392 0.961 . S
C406 C405 1.502 . S
C407 H393 0.960 . S
C407 H394 0.961 . S
C407 H395 0.959 . S
C407 C405 1.561 . S
C408 C405 1.526 . S
C408 C409 1.396 . S
C408 C413 1.390 . S
C409 C403 1.465 . S
C409 C408 1.396 . S
C409 C410 1.399 . S
C410 H396 0.929 . S
C410 C409 1.399 . S
C410 C411 1.385 . S
C411 H397 0.931 . S
C411 C410 1.385 . S
C411 C412 1.389 . S
C412 C411 1.389 . S
C412 C413 1.387 . S
C413 H398 0.930 . S
C413 C408 1.390 . S
C413 C412 1.387 . S
H414 C426 0.930 . S
H415 C428 0.930 1_554 S
H416 C429 0.930 . S
H417 C433 0.959 . S
H418 C433 0.959 . S
H419 C433 0.961 . S
H420 C434 0.960 . S
H421 C434 0.961 . S
H422 C434 0.959 . S
H423 C437 0.929 . S
H424 C438 0.931 . S
H425 C440 0.930 . S
C426 H414 0.930 . S
C426 C427 1.399 . S
C426 C431 1.399 . S
C427 C426 1.399 . S
C427 C428 1.376 . S
C428 H415 0.930 1_556 S
C428 C427 1.376 . S
C428 C429 1.388 1_556 S
C429 H416 0.930 . S
C429 C428 1.388 1_554 S
C429 C430 1.390 1_554 S
C430 C429 1.390 1_556 S
C430 C431 1.394 . S
C430 C436 1.465 1_556 S
C431 C426 1.399 . S
C431 C430 1.394 . S
C431 C432 1.516 . S
C432 C431 1.516 . S
C432 C433 1.502 . S
C432 C434 1.561 . S
C432 C435 1.526 . S
C433 H417 0.959 . S
C433 H418 0.959 . S
C433 H419 0.961 . S
C433 C432 1.502 . S
C434 H420 0.960 . S
C434 H421 0.961 . S
C434 H422 0.959 . S
C434 C432 1.561 . S
C435 C432 1.526 . S
C435 C436 1.396 1_556 S
C435 C440 1.390 . S
C436 C430 1.465 1_554 S
C436 C435 1.396 1_554 S
C436 C437 1.399 . S
C437 H423 0.929 . S
C437 C436 1.399 . S
C437 C438 1.385 . S
C438 H424 0.931 . S
C438 C437 1.385 . S
C438 C439 1.389 . S
C439 C438 1.389 . S
C439 C440 1.387 1_554 S
C440 H425 0.930 . S
C440 C435 1.390 . S
C440 C439 1.387 1_556 S
H441 C453 0.930 . S
H442 C455 0.930 . S
H443 C456 0.930 . S
H444 C460 0.959 . S
H445 C460 0.959 . S
H446 C460 0.961 . S
H447 C461 0.960 . S
H448 C461 0.961 . S
H449 C461 0.959 . S
H450 C464 0.929 . S
H451 C465 0.931 . S
H452 C467 0.930 . S
C453 H441 0.930 . S
C453 C454 1.399 . S
C453 C458 1.399 . S
C454 C453 1.399 . S
C454 C455 1.376 . S
C455 H442 0.930 . S
C455 C454 1.376 . S
C455 C456 1.388 . S
C456 H443 0.930 . S
C456 C455 1.388 . S
C456 C457 1.390 . S
C457 C456 1.390 . S
C457 C458 1.394 . S
C457 C463 1.465 . S
C458 C453 1.399 . S
C458 C457 1.394 . S
C458 C459 1.516 . S
C459 C458 1.516 . S
C459 C460 1.502 . S
C459 C461 1.561 . S
C459 C462 1.526 . S
C460 H444 0.959 . S
C460 H445 0.959 . S
C460 H446 0.961 . S
C460 C459 1.502 . S
C461 H447 0.960 . S
C461 H448 0.961 . S
C461 H449 0.959 . S
C461 C459 1.561 . S
C462 C459 1.526 . S
C462 C463 1.396 . S
C462 C467 1.390 . S
C463 C457 1.465 . S
C463 C462 1.396 . S
C463 C464 1.399 . S
C464 H450 0.929 . S
C464 C463 1.399 . S
C464 C465 1.385 . S
C465 H451 0.931 . S
C465 C464 1.385 . S
C465 C466 1.389 . S
C466 C465 1.389 . S
C466 C467 1.387 . S
C467 H452 0.930 . S
C467 C462 1.390 . S
C467 C466 1.387 . S
H468 C480 0.930 . S
H469 C482 0.930 . S
H470 C483 0.930 . S
H471 C487 0.959 . S
H472 C487 0.959 . S
H473 C487 0.961 . S
H474 C488 0.960 . S
H475 C488 0.961 . S
H476 C488 0.959 . S
H477 C491 0.929 . S
H478 C492 0.931 . S
H479 C494 0.930 . S
C480 H468 0.930 . S
C480 C481 1.399 . S
C480 C485 1.399 . S
C481 C480 1.399 . S
C481 C482 1.376 . S
C482 H469 0.930 . S
C482 C481 1.376 . S
C482 C483 1.388 . S
C483 H470 0.930 . S
C483 C482 1.388 . S
C483 C484 1.390 . S
C484 C483 1.390 . S
C484 C485 1.394 . S
C484 C490 1.465 . S
C485 C480 1.399 . S
C485 C484 1.394 . S
C485 C486 1.516 . S
C486 C485 1.516 . S
C486 C487 1.502 . S
C486 C488 1.561 . S
C486 C489 1.526 . S
C487 H471 0.959 . S
C487 H472 0.959 . S
C487 H473 0.961 . S
C487 C486 1.502 . S
C488 H474 0.960 . S
C488 H475 0.961 . S
C488 H476 0.959 . S
C488 C486 1.561 . S
C489 C486 1.526 . S
C489 C490 1.396 . S
C489 C494 1.390 . S
C490 C484 1.465 . S
C490 C489 1.396 . S
C490 C491 1.399 . S
C491 H477 0.929 . S
C491 C490 1.399 . S
C491 C492 1.385 . S
C492 H478 0.931 . S
C492 C491 1.385 . S
C492 C493 1.389 . S
C493 C492 1.389 . S
C493 C494 1.387 . S
C494 H479 0.930 . S
C494 C489 1.390 . S
C494 C493 1.387 . S
H495 C507 0.930 . S
H496 C509 0.930 . S
H497 C510 0.930 . S
H498 C514 0.959 . S
H499 C514 0.959 . S
H500 C514 0.961 . S
H501 C515 0.960 . S
H502 C515 0.961 . S
H503 C515 0.959 . S
H504 C518 0.929 . S
H505 C519 0.931 . S
H506 C521 0.930 . S
C507 H495 0.930 . S
C507 C508 1.399 . S
C507 C512 1.399 . S
C508 C507 1.399 . S
C508 C509 1.376 1_455 S
C509 H496 0.930 . S
C509 C508 1.376 1_655 S
C509 C510 1.388 . S
C510 H497 0.930 . S
C510 C509 1.388 . S
C510 C511 1.390 1_655 S
C511 C510 1.390 1_455 S
C511 C512 1.394 . S
C511 C517 1.465 1_455 S
C512 C507 1.399 . S
C512 C511 1.394 . S
C512 C513 1.516 . S
C513 C512 1.516 . S
C513 C514 1.502 . S
C513 C515 1.561 . S
C513 C516 1.526 . S
C514 H498 0.959 . S
C514 H499 0.959 . S
C514 H500 0.961 . S
C514 C513 1.502 . S
C515 H501 0.960 . S
C515 H502 0.961 . S
C515 H503 0.959 . S
C515 C513 1.561 . S
C516 C513 1.526 . S
C516 C517 1.396 1_455 S
C516 C521 1.390 . S
C517 C511 1.465 1_655 S
C517 C516 1.396 1_655 S
C517 C518 1.399 . S
C518 H504 0.929 . S
C518 C517 1.399 . S
C518 C519 1.385 . S
C519 H505 0.931 . S
C519 C518 1.385 . S
C519 C520 1.389 . S
C520 C519 1.389 . S
C520 C521 1.387 1_655 S
C521 H506 0.930 . S
C521 C516 1.390 . S
C521 C520 1.387 1_455 S
H522 C534 0.930 . S
H523 C536 0.930 . S
H524 C537 0.930 . S
H525 C541 0.959 . S
H526 C541 0.959 . S
H527 C541 0.961 . S
H528 C542 0.960 . S
H529 C542 0.961 1_655 S
H530 C542 0.959 . S
H531 C545 0.918 1_455 S
H532 C546 0.931 . S
H533 C548 0.930 . S
C534 H522 0.930 . S
C534 C535 1.399 1_655 S
C534 C539 1.399 . S
C535 C534 1.399 1_455 S
C535 C536 1.376 . S
C536 H523 0.930 . S
C536 C535 1.376 . S
C536 C537 1.388 . S
C537 H524 0.930 . S
C537 C536 1.388 . S
C537 C538 1.390 1_455 S
C538 C537 1.390 1_655 S
C538 C539 1.394 . S
C538 C544 1.465 . S
C539 C534 1.399 . S
C539 C538 1.394 . S
C539 C540 1.516 . S
C540 C539 1.516 . S
C540 C541 1.502 . S
C540 C542 1.561 1_655 S
C540 C543 1.526 . S
C541 H525 0.959 . S
C541 H526 0.959 . S
C541 H527 0.961 . S
C541 C540 1.502 . S
C542 H528 0.960 . S
C542 H529 0.961 1_455 S
C542 H530 0.959 . S
C542 C540 1.561 1_455 S
C543 C540 1.526 . S
C543 C544 1.396 . S
C543 C548 1.390 . S
C544 C538 1.465 . S
C544 C543 1.396 . S
C544 C545 1.399 . S
C545 H531 0.918 1_655 S
C545 C544 1.399 . S
C545 C546 1.385 . S
C546 H532 0.931 . S
C546 C545 1.385 . S
C546 C547 1.389 . S
C547 C546 1.389 . S
C547 C548 1.387 . S
C548 H533 0.930 . S
C548 C543 1.390 . S
C548 C547 1.387 . S
H549 C561 0.930 . S
H550 C563 0.930 . S
H551 C564 0.930 . S
H552 C568 0.959 . S
H553 C568 0.959 . S
H554 C568 0.961 . S
H555 C569 0.960 . S
H556 C569 0.961 . S
H557 C569 0.959 . S
H558 C572 0.929 . S
H559 C573 0.931 . S
H560 C575 0.930 . S
C561 H549 0.930 . S
C561 C562 1.399 . S
C561 C566 1.399 . S
C562 C561 1.399 . S
C562 C563 1.376 . S
C563 H550 0.930 . S
C563 C562 1.376 . S
C563 C564 1.388 . S
C564 H551 0.930 . S
C564 C563 1.388 . S
C564 C565 1.390 . S
C565 C564 1.390 . S
C565 C566 1.394 . S
C565 C571 1.465 . S
C566 C561 1.399 . S
C566 C565 1.394 . S
C566 C567 1.516 . S
C567 C566 1.516 . S
C567 C568 1.502 . S
C567 C569 1.561 . S
C567 C570 1.526 . S
C568 H552 0.959 . S
C568 H553 0.959 . S
C568 H554 0.961 . S
C568 C567 1.502 . S
C569 H555 0.960 . S
C569 H556 0.961 . S
C569 H557 0.959 . S
C569 C567 1.561 . S
C570 C567 1.526 . S
C570 C571 1.396 . S
C570 C575 1.390 . S
C571 C565 1.465 . S
C571 C570 1.396 . S
C571 C572 1.399 . S
C572 H558 0.929 . S
C572 C571 1.399 . S
C572 C573 1.385 . S
C573 H559 0.931 . S
C573 C572 1.385 . S
C573 C574 1.389 . S
C574 C573 1.389 . S
C574 C575 1.387 . S
C575 H560 0.930 . S
C575 C570 1.390 . S
C575 C574 1.387 . S
H576 C588 0.930 . S
H577 C590 0.930 . S
H578 C591 0.930 . S
H579 C595 0.959 . S
H580 C595 0.959 . S
H581 C595 0.961 . S
H582 C596 0.960 . S
H583 C596 0.961 . S
H584 C596 0.959 . S
H585 C599 0.929 . S
H586 C600 0.931 . S
H587 C602 0.930 . S
C588 H576 0.930 . S
C588 C589 1.399 . S
C588 C593 1.399 . S
C589 C588 1.399 . S
C589 C590 1.376 . S
C590 H577 0.930 . S
C590 C589 1.376 . S
C590 C591 1.388 . S
C591 H578 0.930 . S
C591 C590 1.388 . S
C591 C592 1.390 . S
C592 C591 1.390 . S
C592 C593 1.394 . S
C592 C598 1.465 . S
C593 C588 1.399 . S
C593 C592 1.394 . S
C593 C594 1.516 . S
C594 C593 1.516 . S
C594 C595 1.502 . S
C594 C596 1.561 . S
C594 C597 1.526 . S
C595 H579 0.959 . S
C595 H580 0.959 . S
C595 H581 0.961 . S
C595 C594 1.502 . S
C596 H582 0.960 . S
C596 H583 0.961 . S
C596 H584 0.959 . S
C596 C594 1.561 . S
C597 C594 1.526 . S
C597 C598 1.396 . S
C597 C602 1.390 . S
C598 C592 1.465 . S
C598 C597 1.396 . S
C598 C599 1.399 . S
C599 H585 0.929 . S
C599 C598 1.399 . S
C599 C600 1.385 . S
C600 H586 0.931 . S
C600 C599 1.385 . S
C600 C601 1.389 . S
C601 C600 1.389 . S
C601 C602 1.387 . S
C602 H587 0.930 . S
C602 C597 1.390 . S
C602 C601 1.387 . S
H603 C615 0.930 . S
H604 C617 0.930 1_455 S
H605 C618 0.930 . S
H606 C622 0.959 . S
H607 C622 0.959 . S
H608 C622 0.961 . S
H609 C623 0.960 . S
H610 C623 0.961 . S
H611 C623 0.959 . S
H612 C626 0.929 . S
H613 C627 0.931 . S
H614 C629 0.930 . S
C615 H603 0.930 . S
C615 C616 1.399 . S
C615 C620 1.399 . S
C616 C615 1.399 . S
C616 C617 1.376 . S
C617 H604 0.930 1_655 S
C617 C616 1.376 . S
C617 C618 1.388 . S
C618 H605 0.930 . S
C618 C617 1.388 . S
C618 C619 1.390 . S
C619 C618 1.390 . S
C619 C620 1.394 . S
C619 C625 1.465 . S
C620 C615 1.399 . S
C620 C619 1.394 . S
C620 C621 1.516 . S
C621 C620 1.516 . S
C621 C622 1.502 . S
C621 C623 1.561 . S
C621 C624 1.526 . S
C622 H606 0.959 . S
C622 H607 0.959 . S
C622 H608 0.961 . S
C622 C621 1.502 . S
C623 H609 0.960 . S
C623 H610 0.961 . S
C623 H611 0.959 . S
C623 C621 1.561 . S
C624 C621 1.526 . S
C624 C625 1.396 . S
C624 C629 1.390 . S
C625 C619 1.465 . S
C625 C624 1.396 . S
C625 C626 1.399 . S
C626 H612 0.929 . S
C626 C625 1.399 . S
C626 C627 1.385 . S
C627 H613 0.931 . S
C627 C626 1.385 . S
C627 C628 1.389 . S
C628 C627 1.389 . S
C628 C629 1.387 . S
C629 H614 0.930 . S
C629 C624 1.390 . S
C629 C628 1.387 . S
H630 C642 0.930 . S
H631 C644 0.930 . S
H632 C645 0.930 . S
H633 C649 0.959 . S
H634 C649 0.959 . S
H635 C649 0.961 . S
H636 C650 0.960 . S
H637 C650 0.961 . S
H638 C650 0.959 . S
H639 C653 0.929 . S
H640 C654 0.931 . S
H641 C656 0.930 . S
C642 H630 0.930 . S
C642 C643 1.399 . S
C642 C647 1.399 . S
C643 C642 1.399 . S
C643 C644 1.376 . S
C644 H631 0.930 . S
C644 C643 1.376 . S
C644 C645 1.388 . S
C645 H632 0.930 . S
C645 C644 1.388 . S
C645 C646 1.390 . S
C646 C645 1.390 . S
C646 C647 1.394 . S
C646 C652 1.465 . S
C647 C642 1.399 . S
C647 C646 1.394 . S
C647 C648 1.516 . S
C648 C647 1.516 . S
C648 C649 1.502 . S
C648 C650 1.561 . S
C648 C651 1.526 . S
C649 H633 0.959 . S
C649 H634 0.959 . S
C649 H635 0.961 . S
C649 C648 1.502 . S
C650 H636 0.960 . S
C650 H637 0.961 . S
C650 H638 0.959 . S
C650 C648 1.561 . S
C651 C648 1.526 . S
C651 C652 1.396 . S
C651 C656 1.390 . S
C652 C646 1.465 . S
C652 C651 1.396 . S
C652 C653 1.399 . S
C653 H639 0.929 . S
C653 C652 1.399 . S
C653 C654 1.385 . S
C654 H640 0.931 . S
C654 C653 1.385 . S
C654 C655 1.389 . S
C655 C654 1.389 . S
C655 C656 1.387 . S
C656 H641 0.930 . S
C656 C651 1.390 . S
C656 C655 1.387 . S
H657 C669 0.930 . S
H658 C671 0.930 . S
H659 C672 0.930 . S
H660 C676 0.959 . S
H661 C676 0.959 . S
H662 C676 0.961 1_554 S
H663 C677 0.960 . S
H664 C677 0.961 . S
H665 C677 0.959 . S
H666 C680 0.929 . S
H667 C681 0.931 . S
H668 C683 0.930 . S
C669 H657 0.930 . S
C669 C670 1.399 . S
C669 C674 1.399 . S
C670 C669 1.399 . S
C670 C671 1.376 . S
C671 H658 0.930 . S
C671 C670 1.376 . S
C671 C672 1.388 . S
C672 H659 0.930 . S
C672 C671 1.388 . S
C672 C673 1.390 . S
C673 C672 1.390 . S
C673 C674 1.394 . S
C673 C679 1.465 . S
C674 C669 1.399 . S
C674 C673 1.394 . S
C674 C675 1.516 . S
C675 C674 1.516 . S
C675 C676 1.502 1_554 S
C675 C677 1.561 . S
C675 C678 1.526 . S
C676 H660 0.959 . S
C676 H661 0.959 . S
C676 H662 0.961 1_556 S
C676 C675 1.502 1_556 S
C677 H663 0.960 . S
C677 H664 0.961 . S
C677 H665 0.959 . S
C677 C675 1.561 . S
C678 C675 1.526 . S
C678 C679 1.396 . S
C678 C683 1.390 1_554 S
C679 C673 1.465 . S
C679 C678 1.396 . S
C679 C680 1.399 . S
C680 H666 0.929 . S
C680 C679 1.399 . S
C680 C681 1.385 1_554 S
C681 H667 0.931 . S
C681 C680 1.385 1_556 S
C681 C682 1.389 . S
C682 C681 1.389 . S
C682 C683 1.387 . S
C683 H668 0.930 . S
C683 C678 1.390 1_556 S
C683 C682 1.387 . S
H684 C696 0.930 . S
H685 C698 0.930 . S
H686 C699 0.930 . S
H687 C703 0.959 . S
H688 C703 0.959 . S
H689 C703 0.961 . S
H690 C704 0.960 . S
H691 C704 0.961 . S
H692 C704 0.959 . S
H693 C707 0.929 . S
H694 C708 0.931 . S
H695 C710 0.930 . S
C696 H684 0.930 . S
C696 C697 1.399 . S
C696 C701 1.399 . S
C697 C696 1.399 . S
C697 C698 1.376 . S
C698 H685 0.930 . S
C698 C697 1.376 . S
C698 C699 1.388 . S
C699 H686 0.930 . S
C699 C698 1.388 . S
C699 C700 1.390 . S
C700 C699 1.390 . S
C700 C701 1.394 . S
C700 C706 1.465 . S
C701 C696 1.399 . S
C701 C700 1.394 . S
C701 C702 1.516 . S
C702 C701 1.516 . S
C702 C703 1.502 . S
C702 C704 1.561 . S
C702 C705 1.526 . S
C703 H687 0.959 . S
C703 H688 0.959 . S
C703 H689 0.961 . S
C703 C702 1.502 . S
C704 H690 0.960 . S
C704 H691 0.961 . S
C704 H692 0.959 . S
C704 C702 1.561 . S
C705 C702 1.526 . S
C705 C706 1.396 . S
C705 C710 1.390 . S
C706 C700 1.465 . S
C706 C705 1.396 . S
C706 C707 1.399 . S
C707 H693 0.929 . S
C707 C706 1.399 . S
C707 C708 1.385 . S
C708 H694 0.931 . S
C708 C707 1.385 . S
C708 C709 1.389 . S
C709 C708 1.389 . S
C709 C710 1.387 . S
C710 H695 0.930 . S
C710 C705 1.390 . S
C710 C709 1.387 . S
H711 C723 0.930 . S
H712 C725 0.930 . S
H713 C726 0.930 . S
H714 C730 0.959 . S
H715 C730 0.959 . S
H716 C730 0.961 . S
H717 C731 0.960 1_554 S
H718 C731 0.961 . S
H719 C731 0.951 1_554 S
H720 C734 0.929 . S
H721 C735 0.931 . S
H722 C737 0.930 . S
C723 H711 0.930 . S
C723 C724 1.399 . S
C723 C728 1.399 1_554 S
C724 C723 1.399 . S
C724 C725 1.376 . S
C725 H712 0.930 . S
C725 C724 1.376 . S
C725 C726 1.388 1_554 S
C726 H713 0.930 . S
C726 C725 1.388 1_556 S
C726 C727 1.390 . S
C727 C726 1.390 . S
C727 C728 1.394 . S
C727 C733 1.465 . S
C728 C723 1.399 1_556 S
C728 C727 1.394 . S
C728 C729 1.516 . S
C729 C728 1.516 . S
C729 C730 1.502 . S
C729 C731 1.561 . S
C729 C732 1.526 . S
C730 H714 0.959 . S
C730 H715 0.959 . S
C730 H716 0.961 . S
C730 C729 1.502 . S
C731 H717 0.960 1_556 S
C731 H718 0.961 . S
C731 H719 0.951 1_556 S
C731 C729 1.561 . S
C732 C729 1.526 . S
C732 C733 1.396 . S
C732 C737 1.390 . S
C733 C727 1.465 . S
C733 C732 1.396 . S
C733 C734 1.399 . S
C734 H720 0.929 . S
C734 C733 1.399 . S
C734 C735 1.385 . S
C735 H721 0.931 . S
C735 C734 1.385 . S
C735 C736 1.389 . S
C736 C735 1.389 . S
C736 C737 1.387 . S
C737 H722 0.930 . S
C737 C732 1.390 . S
C737 C736 1.387 . S
H738 C750 0.930 . S
H739 C752 0.930 . S
H740 C753 0.930 . S
H741 C757 0.959 . S
H742 C757 0.959 . S
H743 C757 0.961 . S
H744 C758 0.960 . S
H745 C758 0.961 . S
H746 C758 0.959 . S
H747 C761 0.929 . S
H748 C762 0.931 . S
H749 C764 0.930 . S
C750 H738 0.930 . S
C750 C751 1.399 . S
C750 C755 1.399 . S
C751 C750 1.399 . S
C751 C752 1.376 . S
C752 H739 0.930 . S
C752 C751 1.376 . S
C752 C753 1.388 . S
C753 H740 0.930 . S
C753 C752 1.388 . S
C753 C754 1.390 . S
C754 C753 1.390 . S
C754 C755 1.394 . S
C754 C760 1.465 . S
C755 C750 1.399 . S
C755 C754 1.394 . S
C755 C756 1.516 . S
C756 C755 1.516 . S
C756 C757 1.502 . S
C756 C758 1.561 . S
C756 C759 1.526 . S
C757 H741 0.959 . S
C757 H742 0.959 . S
C757 H743 0.961 . S
C757 C756 1.502 . S
C758 H744 0.960 . S
C758 H745 0.961 . S
C758 H746 0.959 . S
C758 C756 1.561 . S
C759 C756 1.526 . S
C759 C760 1.396 . S
C759 C764 1.390 . S
C760 C754 1.465 . S
C760 C759 1.396 . S
C760 C761 1.399 . S
C761 H747 0.929 . S
C761 C760 1.399 . S
C761 C762 1.385 . S
C762 H748 0.931 . S
C762 C761 1.385 . S
C762 C763 1.389 . S
C763 C762 1.389 . S
C763 C764 1.387 . S
C764 H749 0.930 . S
C764 C759 1.390 . S
C764 C763 1.387 . S
H765 C777 0.930 . S
H766 C779 0.930 . S
H767 C780 0.930 . S
H768 C784 0.959 . S
H769 C784 0.959 . S
H770 C784 0.961 . S
H771 C785 0.960 . S
H772 C785 0.961 . S
H773 C785 0.959 . S
H774 C788 0.929 . S
H775 C789 0.931 . S
H776 C791 0.930 . S
C777 H765 0.930 . S
C777 C778 1.399 . S
C777 C782 1.399 . S
C778 C777 1.399 . S
C778 C779 1.376 . S
C779 H766 0.930 . S
C779 C778 1.376 . S
C779 C780 1.388 . S
C780 H767 0.930 . S
C780 C779 1.388 . S
C780 C781 1.390 . S
C781 C780 1.390 . S
C781 C782 1.394 . S
C781 C787 1.465 . S
C782 C777 1.399 . S
C782 C781 1.394 . S
C782 C783 1.516 . S
C783 C782 1.516 . S
C783 C784 1.502 . S
C783 C785 1.561 . S
C783 C786 1.526 . S
C784 H768 0.959 . S
C784 H769 0.959 . S
C784 H770 0.961 . S
C784 C783 1.502 . S
C785 H771 0.960 . S
C785 H772 0.961 . S
C785 H773 0.959 . S
C785 C783 1.561 . S
C786 C783 1.526 . S
C786 C787 1.396 . S
C786 C791 1.390 . S
C787 C781 1.465 . S
C787 C786 1.396 . S
C787 C788 1.399 . S
C788 H774 0.929 . S
C788 C787 1.399 . S
C788 C789 1.385 . S
C789 H775 0.931 . S
C789 C788 1.385 . S
C789 C790 1.389 . S
C790 C789 1.389 . S
C790 C791 1.387 . S
C791 H776 0.930 . S
C791 C786 1.390 . S
C791 C790 1.387 . S
H792 C804 0.930 . S
H793 C806 0.930 . S
H794 C807 0.930 . S
H795 C811 0.959 . S
H796 C811 0.959 . S
H797 C811 0.961 . S
H798 C812 0.960 . S
H799 C812 0.961 . S
H800 C812 0.959 . S
H801 C815 0.929 . S
H802 C816 0.931 . S
H803 C818 0.930 . S
C804 H792 0.930 . S
C804 C805 1.399 . S
C804 C809 1.399 . S
C805 C804 1.399 . S
C805 C806 1.376 . S
C806 H793 0.930 . S
C806 C805 1.376 . S
C806 C807 1.388 . S
C807 H794 0.930 . S
C807 C806 1.388 . S
C807 C808 1.390 . S
C808 C807 1.390 . S
C808 C809 1.394 . S
C808 C814 1.465 . S
C809 C804 1.399 . S
C809 C808 1.394 . S
C809 C810 1.516 . S
C810 C809 1.516 . S
C810 C811 1.502 . S
C810 C812 1.561 . S
C810 C813 1.526 . S
C811 H795 0.959 . S
C811 H796 0.959 . S
C811 H797 0.961 . S
C811 C810 1.502 . S
C812 H798 0.960 . S
C812 H799 0.961 . S
C812 H800 0.959 . S
C812 C810 1.561 . S
C813 C810 1.526 . S
C813 C814 1.396 . S
C813 C818 1.390 . S
C814 C808 1.465 . S
C814 C813 1.396 . S
C814 C815 1.399 . S
C815 H801 0.929 . S
C815 C814 1.399 . S
C815 C816 1.385 . S
C816 H802 0.931 . S
C816 C815 1.385 . S
C816 C817 1.389 . S
C817 C816 1.389 . S
C817 C818 1.387 . S
C818 H803 0.930 . S
C818 C813 1.390 . S
C818 C817 1.387 . S
H819 C831 0.930 . S
H820 C833 0.930 . S
H821 C834 0.930 . S
H822 C838 0.959 . S
H823 C838 0.959 1_565 S
H824 C838 0.961 . S
H825 C839 0.960 1_545 S
H826 C839 0.961 . S
H827 C839 0.959 . S
H828 C842 0.929 . S
H829 C843 0.931 . S
H830 C845 0.930 . S
C831 H819 0.930 . S
C831 C832 1.399 . S
C831 C836 1.399 . S
C832 C831 1.399 . S
C832 C833 1.376 . S
C833 H820 0.930 . S
C833 C832 1.376 . S
C833 C834 1.388 . S
C834 H821 0.930 . S
C834 C833 1.388 . S
C834 C835 1.390 . S
C835 C834 1.390 . S
C835 C836 1.394 . S
C835 C841 1.465 . S
C836 C831 1.399 . S
C836 C835 1.394 . S
C836 C837 1.516 . S
C837 C836 1.516 . S
C837 C838 1.502 . S
C837 C839 1.561 1_545 S
C837 C840 1.526 . S
C838 H822 0.959 . S
C838 H823 0.959 1_545 S
C838 H824 0.961 . S
C838 C837 1.502 . S
C839 H825 0.960 1_565 S
C839 H826 0.961 . S
C839 H827 0.959 . S
C839 C837 1.561 1_565 S
C840 C837 1.526 . S
C840 C841 1.396 . S
C840 C845 1.390 1_545 S
C841 C835 1.465 . S
C841 C840 1.396 . S
C841 C842 1.399 . S
C842 H828 0.929 . S
C842 C841 1.399 . S
C842 C843 1.385 1_545 S
C843 H829 0.931 . S
C843 C842 1.385 1_565 S
C843 C844 1.389 . S
C844 C843 1.389 . S
C844 C845 1.387 . S
C845 H830 0.930 . S
C845 C840 1.390 1_565 S
C845 C844 1.387 . S
H846 C858 0.930 . S
H847 C860 0.930 . S
H848 C861 0.930 . S
H849 C865 0.959 . S
H850 C865 0.959 . S
H851 C865 0.961 . S
H852 C866 0.960 . S
H853 C866 0.961 . S
H854 C866 0.959 . S
H855 C869 0.929 . S
H856 C870 0.931 . S
H857 C872 0.930 . S
C858 H846 0.930 . S
C858 C859 1.399 . S
C858 C863 1.399 . S
C859 C858 1.399 . S
C859 C860 1.376 . S
C860 H847 0.930 . S
C860 C859 1.376 . S
C860 C861 1.388 . S
C861 H848 0.930 . S
C861 C860 1.388 . S
C861 C862 1.390 . S
C862 C861 1.390 . S
C862 C863 1.394 . S
C862 C868 1.465 . S
C863 C858 1.399 . S
C863 C862 1.394 . S
C863 C864 1.516 . S
C864 C863 1.516 . S
C864 C865 1.502 . S
C864 C866 1.561 . S
C864 C867 1.526 . S
C865 H849 0.959 . S
C865 H850 0.959 . S
C865 H851 0.961 . S
C865 C864 1.502 . S
C866 H852 0.960 . S
C866 H853 0.961 . S
C866 H854 0.959 . S
C866 C864 1.561 . S
C867 C864 1.526 . S
C867 C868 1.396 . S
C867 C872 1.390 . S
C868 C862 1.465 . S
C868 C867 1.396 . S
C868 C869 1.399 . S
C869 H855 0.929 . S
C869 C868 1.399 . S
C869 C870 1.385 . S
C870 H856 0.931 . S
C870 C869 1.385 . S
C870 C871 1.389 . S
C871 C870 1.389 . S
C871 C872 1.387 . S
C872 H857 0.930 . S
C872 C867 1.390 . S
C872 C871 1.387 . S
H873 C885 0.930 . S
H874 C887 0.930 . S
H875 C888 0.930 . S
H876 C892 0.959 . S
H877 C892 0.959 . S
H878 C892 0.961 . S
H879 C893 0.960 . S
H880 C893 0.961 . S
H881 C893 0.959 . S
H882 C896 0.929 . S
H883 C897 0.931 . S
H884 C899 0.930 . S
C885 H873 0.930 . S
C885 C886 1.399 . S
C885 C890 1.399 1_545 S
C886 C885 1.399 . S
C886 C887 1.376 . S
C887 H874 0.930 . S
C887 C886 1.376 . S
C887 C888 1.388 . S
C888 H875 0.930 . S
C888 C887 1.388 . S
C888 C889 1.390 1_545 S
C889 C888 1.390 1_565 S
C889 C890 1.394 . S
C889 C895 1.465 . S
C890 C885 1.399 1_565 S
C890 C889 1.394 . S
C890 C891 1.516 . S
C891 C890 1.516 . S
C891 C892 1.502 . S
C891 C893 1.561 . S
C891 C894 1.526 . S
C892 H876 0.959 . S
C892 H877 0.959 . S
C892 H878 0.961 . S
C892 C891 1.502 . S
C893 H879 0.960 . S
C893 H880 0.961 . S
C893 H881 0.959 . S
C893 C891 1.561 . S
C894 C891 1.526 . S
C894 C895 1.396 . S
C894 C899 1.390 . S
C895 C889 1.465 . S
C895 C894 1.396 . S
C895 C896 1.399 . S
C896 H882 0.929 . S
C896 C895 1.399 . S
C896 C897 1.385 . S
C897 H883 0.931 . S
C897 C896 1.385 . S
C897 C898 1.389 . S
C898 C897 1.389 . S
C898 C899 1.387 . S
C899 H884 0.930 . S
C899 C894 1.390 . S
C899 C898 1.387 . S
H900 C912 0.930 . S
H901 C914 0.930 . S
H902 C915 0.930 . S
H903 C919 0.959 . S
H904 C919 0.959 . S
H905 C919 0.961 . S
H906 C920 0.960 . S
H907 C920 0.961 . S
H908 C920 0.959 . S
H909 C923 0.929 . S
H910 C924 0.931 . S
H911 C926 0.930 . S
C912 H900 0.930 . S
C912 C913 1.399 . S
C912 C917 1.399 . S
C913 C912 1.399 . S
C913 C914 1.376 . S
C914 H901 0.930 . S
C914 C913 1.376 . S
C914 C915 1.388 . S
C915 H902 0.930 . S
C915 C914 1.388 . S
C915 C916 1.390 . S
C916 C915 1.390 . S
C916 C917 1.394 . S
C916 C922 1.465 . S
C917 C912 1.399 . S
C917 C916 1.394 . S
C917 C918 1.516 . S
C918 C917 1.516 . S
C918 C919 1.502 . S
C918 C920 1.561 . S
C918 C921 1.526 . S
C919 H903 0.959 . S
C919 H904 0.959 . S
C919 H905 0.961 . S
C919 C918 1.502 . S
C920 H906 0.960 . S
C920 H907 0.961 . S
C920 H908 0.959 . S
C920 C918 1.561 . S
C921 C918 1.526 . S
C921 C922 1.396 . S
C921 C926 1.390 . S
C922 C916 1.465 . S
C922 C921 1.396 . S
C922 C923 1.399 . S
C923 H909 0.929 . S
C923 C922 1.399 . S
C923 C924 1.385 . S
C924 H910 0.931 . S
C924 C923 1.385 . S
C924 C925 1.389 . S
C925 C924 1.389 . S
C925 C926 1.387 . S
C926 H911 0.930 . S
C926 C921 1.390 . S
C926 C925 1.387 . S
H927 C939 0.930 . S
H928 C941 0.930 . S
H929 C942 0.930 . S
H930 C946 0.959 . S
H931 C946 0.959 . S
H932 C946 0.961 . S
H933 C947 0.960 . S
H934 C947 0.961 . S
H935 C947 0.959 . S
H936 C950 0.929 . S
H937 C951 0.931 . S
H938 C953 0.930 . S
C939 H927 0.930 . S
C939 C940 1.399 . S
C939 C944 1.399 . S
C940 C939 1.399 . S
C940 C941 1.376 . S
C941 H928 0.930 . S
C941 C940 1.376 . S
C941 C942 1.388 . S
C942 H929 0.930 . S
C942 C941 1.388 . S
C942 C943 1.390 . S
C943 C942 1.390 . S
C943 C944 1.394 . S
C943 C949 1.465 . S
C944 C939 1.399 . S
C944 C943 1.394 . S
C944 C945 1.516 . S
C945 C944 1.516 . S
C945 C946 1.502 . S
C945 C947 1.561 . S
C945 C948 1.526 . S
C946 H930 0.959 . S
C946 H931 0.959 . S
C946 H932 0.961 . S
C946 C945 1.502 . S
C947 H933 0.960 . S
C947 H934 0.961 . S
C947 H935 0.959 . S
C947 C945 1.561 . S
C948 C945 1.526 . S
C948 C949 1.396 . S
C948 C953 1.390 . S
C949 C943 1.465 . S
C949 C948 1.396 . S
C949 C950 1.399 . S
C950 H936 0.929 . S
C950 C949 1.399 . S
C950 C951 1.385 . S
C951 H937 0.931 . S
C951 C950 1.385 . S
C951 C952 1.389 . S
C952 C951 1.389 . S
C952 C953 1.387 . S
C953 H938 0.930 . S
C953 C948 1.390 . S
C953 C952 1.387 . S
H954 C966 0.930 . S
H955 C968 0.930 . S
H956 C969 0.930 . S
H957 C973 0.959 . S
H958 C973 0.959 . S
H959 C973 0.961 . S
H960 C974 0.960 . S
H961 C974 0.961 . S
H962 C974 0.959 . S
H963 C977 0.929 . S
H964 C978 0.931 . S
H965 C980 0.930 . S
C966 H954 0.930 . S
C966 C967 1.399 . S
C966 C971 1.399 . S
C967 C966 1.399 . S
C967 C968 1.376 . S
C968 H955 0.930 . S
C968 C967 1.376 . S
C968 C969 1.388 . S
C969 H956 0.930 . S
C969 C968 1.388 . S
C969 C970 1.390 . S
C970 C969 1.390 . S
C970 C971 1.394 . S
C970 C976 1.465 . S
C971 C966 1.399 . S
C971 C970 1.394 . S
C971 C972 1.516 . S
C972 C971 1.516 . S
C972 C973 1.502 . S
C972 C974 1.561 . S
C972 C975 1.526 . S
C973 H957 0.959 . S
C973 H958 0.959 . S
C973 H959 0.961 . S
C973 C972 1.502 . S
C974 H960 0.960 . S
C974 H961 0.961 . S
C974 H962 0.959 . S
C974 C972 1.561 . S
C975 C972 1.526 . S
C975 C976 1.396 . S
C975 C980 1.390 . S
C976 C970 1.465 . S
C976 C975 1.396 . S
C976 C977 1.399 . S
C977 H963 0.929 . S
C977 C976 1.399 . S
C977 C978 1.385 . S
C978 H964 0.931 . S
C978 C977 1.385 . S
C978 C979 1.389 . S
C979 C978 1.389 . S
C979 C980 1.387 . S
C980 H965 0.930 . S
C980 C975 1.390 . S
C980 C979 1.387 . S
H981 C993 0.930 . S
H982 C995 0.930 . S
H983 C996 0.930 . S
H984 C1000 0.959 . S
H985 C1000 0.959 . S
H986 C1000 0.961 . S
H987 C1001 0.960 . S
H988 C1001 0.961 . S
H989 C1001 0.959 . S
H990 C1004 0.929 . S
H991 C1005 0.931 . S
H992 C1007 0.930 . S
C993 H981 0.930 . S
C993 C994 1.399 . S
C993 C998 1.399 . S
C994 C993 1.399 . S
C994 C995 1.376 . S
C995 H982 0.930 . S
C995 C994 1.376 . S
C995 C996 1.388 . S
C996 H983 0.930 . S
C996 C995 1.388 . S
C996 C997 1.390 . S
C997 C996 1.390 . S
C997 C998 1.394 . S
C997 C1003 1.465 . S
C998 C993 1.399 . S
C998 C997 1.394 . S
C998 C999 1.516 . S
C999 C998 1.516 . S
C999 C1000 1.502 . S
C999 C1001 1.561 . S
C999 C1002 1.526 . S
C1000 H984 0.959 . S
C1000 H985 0.959 . S
C1000 H986 0.961 . S
C1000 C999 1.502 . S
C1001 H987 0.960 . S
C1001 H988 0.961 . S
C1001 H989 0.959 . S
C1001 C999 1.561 . S
C1002 C999 1.526 . S
C1002 C1003 1.396 . S
C1002 C1007 1.390 . S
C1003 C997 1.465 . S
C1003 C1002 1.396 . S
C1003 C1004 1.399 . S
C1004 H990 0.929 . S
C1004 C1003 1.399 . S
C1004 C1005 1.385 . S
C1005 H991 0.931 . S
C1005 C1004 1.385 . S
C1005 C1006 1.389 . S
C1006 C1005 1.389 . S
C1006 C1007 1.387 . S
C1007 H992 0.930 . S
C1007 C1002 1.390 . S
C1007 C1006 1.387 . S
H1008 C1020 0.930 . S
H1009 C1022 0.930 . S
H1010 C1023 0.930 . S
H1011 C1027 0.959 . S
H1012 C1027 0.959 . S
H1013 C1027 0.961 . S
H1014 C1028 0.960 . S
H1015 C1028 0.961 . S
H1016 C1028 0.959 . S
H1017 C1031 0.929 . S
H1018 C1032 0.931 . S
H1019 C1034 0.930 . S
C1020 H1008 0.930 . S
C1020 C1021 1.399 . S
C1020 C1025 1.399 . S
C1021 C1020 1.399 . S
C1021 C1022 1.376 . S
C1022 H1009 0.930 . S
C1022 C1021 1.376 . S
C1022 C1023 1.388 . S
C1023 H1010 0.930 . S
C1023 C1022 1.388 . S
C1023 C1024 1.390 . S
C1024 C1023 1.390 . S
C1024 C1025 1.394 . S
C1024 C1030 1.465 . S
C1025 C1020 1.399 . S
C1025 C1024 1.394 . S
C1025 C1026 1.516 . S
C1026 C1025 1.516 . S
C1026 C1027 1.502 . S
C1026 C1028 1.561 . S
C1026 C1029 1.526 . S
C1027 H1011 0.959 . S
C1027 H1012 0.959 . S
C1027 H1013 0.961 . S
C1027 C1026 1.502 . S
C1028 H1014 0.960 . S
C1028 H1015 0.961 . S
C1028 H1016 0.959 . S
C1028 C1026 1.561 . S
C1029 C1026 1.526 . S
C1029 C1030 1.396 . S
C1029 C1034 1.390 . S
C1030 C1024 1.465 . S
C1030 C1029 1.396 . S
C1030 C1031 1.399 . S
C1031 H1017 0.929 . S
C1031 C1030 1.399 . S
C1031 C1032 1.385 . S
C1032 H1018 0.931 . S
C1032 C1031 1.385 . S
C1032 C1033 1.389 . S
C1033 C1032 1.389 . S
C1033 C1034 1.387 . S
C1034 H1019 0.930 . S
C1034 C1029 1.390 . S
C1034 C1033 1.387 . S
H1035 C1047 0.930 . S
H1036 C1049 0.930 . S
H1037 C1050 0.930 . S
H1038 C1054 0.959 . S
H1039 C1054 0.959 . S
H1040 C1054 0.961 . S
H1041 C1055 0.960 . S
H1042 C1055 0.961 . S
H1043 C1055 0.959 . S
H1044 C1058 0.929 . S
H1045 C1059 0.931 . S
H1046 C1061 0.930 . S
C1047 H1035 0.930 . S
C1047 C1048 1.399 . S
C1047 C1052 1.399 . S
C1048 C1047 1.399 . S
C1048 C1049 1.376 . S
C1049 H1036 0.930 . S
C1049 C1048 1.376 . S
C1049 C1050 1.388 . S
C1050 H1037 0.930 . S
C1050 C1049 1.388 . S
C1050 C1051 1.390 . S
C1051 C1050 1.390 . S
C1051 C1052 1.394 . S
C1051 C1057 1.465 . S
C1052 C1047 1.399 . S
C1052 C1051 1.394 . S
C1052 C1053 1.516 . S
C1053 C1052 1.516 . S
C1053 C1054 1.502 . S
C1053 C1055 1.561 . S
C1053 C1056 1.526 . S
C1054 H1038 0.959 . S
C1054 H1039 0.959 . S
C1054 H1040 0.961 . S
C1054 C1053 1.502 . S
C1055 H1041 0.960 . S
C1055 H1042 0.961 . S
C1055 H1043 0.959 . S
C1055 C1053 1.561 . S
C1056 C1053 1.526 . S
C1056 C1057 1.396 . S
C1056 C1061 1.390 . S
C1057 C1051 1.465 . S
C1057 C1056 1.396 . S
C1057 C1058 1.399 . S
C1058 H1044 0.929 . S
C1058 C1057 1.399 . S
C1058 C1059 1.385 . S
C1059 H1045 0.931 . S
C1059 C1058 1.385 . S
C1059 C1060 1.389 . S
C1060 C1059 1.389 . S
C1060 C1061 1.387 . S
C1061 H1046 0.930 . S
C1061 C1056 1.390 . S
C1061 C1060 1.387 . S
H1062 C1074 0.930 . S
H1063 C1076 0.930 . S
H1064 C1077 0.930 . S
H1065 C1081 0.959 1_655 S
H1066 C1081 0.959 1_655 S
H1067 C1081 0.961 . S
H1068 C1082 0.960 . S
H1069 C1082 0.961 . S
H1070 C1082 0.959 . S
H1071 C1085 0.929 . S
H1072 C1086 0.931 . S
H1073 C1088 0.930 . S
C1074 H1062 0.930 . S
C1074 C1075 1.399 . S
C1074 C1079 1.399 . S
C1075 C1074 1.399 . S
C1075 C1076 1.376 . S
C1076 H1063 0.930 . S
C1076 C1075 1.376 . S
C1076 C1077 1.388 . S
C1077 H1064 0.930 . S
C1077 C1076 1.388 . S
C1077 C1078 1.390 . S
C1078 C1077 1.390 . S
C1078 C1079 1.394 . S
C1078 C1084 1.465 . S
C1079 C1074 1.399 . S
C1079 C1078 1.394 . S
C1079 C1080 1.516 . S
C1080 C1079 1.516 . S
C1080 C1081 1.502 . S
C1080 C1082 1.561 . S
C1080 C1083 1.526 . S
C1081 H1065 0.959 1_455 S
C1081 H1066 0.959 1_455 S
C1081 H1067 0.961 . S
C1081 C1080 1.502 . S
C1082 H1068 0.960 . S
C1082 H1069 0.961 . S
C1082 H1070 0.959 . S
C1082 C1080 1.561 . S
C1083 C1080 1.526 . S
C1083 C1084 1.396 . S
C1083 C1088 1.390 1_455 S
C1084 C1078 1.465 . S
C1084 C1083 1.396 . S
C1084 C1085 1.399 . S
C1085 H1071 0.929 . S
C1085 C1084 1.399 . S
C1085 C1086 1.385 1_455 S
C1086 H1072 0.931 . S
C1086 C1085 1.385 1_655 S
C1086 C1087 1.389 . S
C1087 C1086 1.389 . S
C1087 C1088 1.387 . S
C1088 H1073 0.930 . S
C1088 C1083 1.390 1_655 S
C1088 C1087 1.387 . S
H1089 C1101 0.930 . S
H1090 C1103 0.930 . S
H1091 C1104 0.930 . S
H1092 C1108 0.959 . S
H1093 C1108 0.959 . S
H1094 C1108 0.961 . S
H1095 C1109 0.960 . S
H1096 C1109 0.961 . S
H1097 C1109 0.959 . S
H1098 C1112 0.929 . S
H1099 C1113 0.931 . S
H1100 C1115 0.930 . S
C1101 H1089 0.930 . S
C1101 C1102 1.399 . S
C1101 C1106 1.399 . S
C1102 C1101 1.399 . S
C1102 C1103 1.376 . S
C1103 H1090 0.930 . S
C1103 C1102 1.376 . S
C1103 C1104 1.388 . S
C1104 H1091 0.930 . S
C1104 C1103 1.388 . S
C1104 C1105 1.390 . S
C1105 C1104 1.390 . S
C1105 C1106 1.394 . S
C1105 C1111 1.465 . S
C1106 C1101 1.399 . S
C1106 C1105 1.394 . S
C1106 C1107 1.516 . S
C1107 C1106 1.516 . S
C1107 C1108 1.502 . S
C1107 C1109 1.561 . S
C1107 C1110 1.526 . S
C1108 H1092 0.959 . S
C1108 H1093 0.959 . S
C1108 H1094 0.961 . S
C1108 C1107 1.502 . S
C1109 H1095 0.960 . S
C1109 H1096 0.961 . S
C1109 H1097 0.959 . S
C1109 C1107 1.561 . S
C1110 C1107 1.526 . S
C1110 C1111 1.396 . S
C1110 C1115 1.390 . S
C1111 C1105 1.465 . S
C1111 C1110 1.396 . S
C1111 C1112 1.399 . S
C1112 H1098 0.929 . S
C1112 C1111 1.399 . S
C1112 C1113 1.385 . S
C1113 H1099 0.931 . S
C1113 C1112 1.385 . S
C1113 C1114 1.389 . S
C1114 C1113 1.389 . S
C1114 C1115 1.387 . S
C1115 H1100 0.930 . S
C1115 C1110 1.390 . S
C1115 C1114 1.387 . S
H1116 C1128 0.930 . S
H1117 C1130 0.930 . S
H1118 C1131 0.930 . S
H1119 C1135 0.959 . S
H1120 C1135 0.959 . S
H1121 C1135 0.961 . S
H1122 C1136 0.960 . S
H1123 C1136 0.961 . S
H1124 C1136 0.959 . S
H1125 C1139 0.929 . S
H1126 C1140 0.931 . S
H1127 C1142 0.930 . S
C1128 H1116 0.930 . S
C1128 C1129 1.399 . S
C1128 C1133 1.399 . S
C1129 C1128 1.399 . S
C1129 C1130 1.376 . S
C1130 H1117 0.930 . S
C1130 C1129 1.376 . S
C1130 C1131 1.388 . S
C1131 H1118 0.930 . S
C1131 C1130 1.388 . S
C1131 C1132 1.390 . S
C1132 C1131 1.390 . S
C1132 C1133 1.394 . S
C1132 C1138 1.465 . S
C1133 C1128 1.399 . S
C1133 C1132 1.394 . S
C1133 C1134 1.516 . S
C1134 C1133 1.516 . S
C1134 C1135 1.502 . S
C1134 C1136 1.561 . S
C1134 C1137 1.526 . S
C1135 H1119 0.959 . S
C1135 H1120 0.959 . S
C1135 H1121 0.961 . S
C1135 C1134 1.502 . S
C1136 H1122 0.960 . S
C1136 H1123 0.961 . S
C1136 H1124 0.959 . S
C1136 C1134 1.561 . S
C1137 C1134 1.526 . S
C1137 C1138 1.396 . S
C1137 C1142 1.390 . S
C1138 C1132 1.465 . S
C1138 C1137 1.396 . S
C1138 C1139 1.399 . S
C1139 H1125 0.929 . S
C1139 C1138 1.399 . S
C1139 C1140 1.385 . S
C1140 H1126 0.931 . S
C1140 C1139 1.385 . S
C1140 C1141 1.389 . S
C1141 C1140 1.389 . S
C1141 C1142 1.387 . S
C1142 H1127 0.930 . S
C1142 C1137 1.390 . S
C1142 C1141 1.387 . S
H1143 C1155 0.930 . S
H1144 C1157 0.930 . S
H1145 C1158 0.930 . S
H1146 C1162 0.959 . S
H1147 C1162 0.959 . S
H1148 C1162 0.961 . S
H1149 C1163 0.960 . S
H1150 C1163 0.961 . S
H1151 C1163 0.959 . S
H1152 C1166 0.929 . S
H1153 C1167 0.931 . S
H1154 C1169 0.930 . S
C1155 H1143 0.930 . S
C1155 C1156 1.399 . S
C1155 C1160 1.399 . S
C1156 C1155 1.399 . S
C1156 C1157 1.376 . S
C1157 H1144 0.930 . S
C1157 C1156 1.376 . S
C1157 C1158 1.388 . S
C1158 H1145 0.930 . S
C1158 C1157 1.388 . S
C1158 C1159 1.390 . S
C1159 C1158 1.390 . S
C1159 C1160 1.394 . S
C1159 C1165 1.465 . S
C1160 C1155 1.399 . S
C1160 C1159 1.394 . S
C1160 C1161 1.516 . S
C1161 C1160 1.516 . S
C1161 C1162 1.502 . S
C1161 C1163 1.561 . S
C1161 C1164 1.526 . S
C1162 H1146 0.959 . S
C1162 H1147 0.959 . S
C1162 H1148 0.961 . S
C1162 C1161 1.502 . S
C1163 H1149 0.960 . S
C1163 H1150 0.961 . S
C1163 H1151 0.959 . S
C1163 C1161 1.561 . S
C1164 C1161 1.526 . S
C1164 C1165 1.396 . S
C1164 C1169 1.390 . S
C1165 C1159 1.465 . S
C1165 C1164 1.396 . S
C1165 C1166 1.399 . S
C1166 H1152 0.929 . S
C1166 C1165 1.399 . S
C1166 C1167 1.385 . S
C1167 H1153 0.931 . S
C1167 C1166 1.385 . S
C1167 C1168 1.389 . S
C1168 C1167 1.389 . S
C1168 C1169 1.387 . S
C1169 H1154 0.930 . S
C1169 C1164 1.390 . S
C1169 C1168 1.387 . S
H1170 C1182 0.930 . S
H1171 C1184 0.930 . S
H1172 C1185 0.930 . S
H1173 C1189 0.959 . S
H1174 C1189 0.959 . S
H1175 C1189 0.961 . S
H1176 C1190 0.960 . S
H1177 C1190 0.961 1_545 S
H1178 C1190 0.959 . S
H1179 C1193 0.929 . S
H1180 C1194 0.931 . S
H1181 C1196 0.930 1_545 S
C1182 H1170 0.930 . S
C1182 C1183 1.399 . S
C1182 C1187 1.399 . S
C1183 C1182 1.399 . S
C1183 C1184 1.376 . S
C1184 H1171 0.930 . S
C1184 C1183 1.376 . S
C1184 C1185 1.388 . S
C1185 H1172 0.930 . S
C1185 C1184 1.388 . S
C1185 C1186 1.390 . S
C1186 C1185 1.390 . S
C1186 C1187 1.394 . S
C1186 C1192 1.465 . S
C1187 C1182 1.399 . S
C1187 C1186 1.394 . S
C1187 C1188 1.516 . S
C1188 C1187 1.516 . S
C1188 C1189 1.502 . S
C1188 C1190 1.561 . S
C1188 C1191 1.526 . S
C1189 H1173 0.959 . S
C1189 H1174 0.959 . S
C1189 H1175 0.961 . S
C1189 C1188 1.502 . S
C1190 H1176 0.960 . S
C1190 H1177 0.961 1_565 S
C1190 H1178 0.959 . S
C1190 C1188 1.561 . S
C1191 C1188 1.526 . S
C1191 C1192 1.396 . S
C1191 C1196 1.390 . S
C1192 C1186 1.465 . S
C1192 C1191 1.396 . S
C1192 C1193 1.399 . S
C1193 H1179 0.929 . S
C1193 C1192 1.399 . S
C1193 C1194 1.385 . S
C1194 H1180 0.931 . S
C1194 C1193 1.385 . S
C1194 C1195 1.389 . S
C1195 C1194 1.389 . S
C1195 C1196 1.387 . S
C1196 H1181 0.930 1_565 S
C1196 C1191 1.390 . S
C1196 C1195 1.387 . S
H1197 C1209 0.930 . S
H1198 C1211 0.930 . S
H1199 C1212 0.930 . S
H1200 C1216 0.959 . S
H1201 C1216 0.959 . S
H1202 C1216 0.961 . S
H1203 C1217 0.960 . S
H1204 C1217 0.961 . S
H1205 C1217 0.959 . S
H1206 C1220 0.929 . S
H1207 C1221 0.931 . S
H1208 C1223 0.930 . S
C1209 H1197 0.930 . S
C1209 C1210 1.399 . S
C1209 C1214 1.399 . S
C1210 C1209 1.399 . S
C1210 C1211 1.376 . S
C1211 H1198 0.930 . S
C1211 C1210 1.376 . S
C1211 C1212 1.388 . S
C1212 H1199 0.930 . S
C1212 C1211 1.388 . S
C1212 C1213 1.390 . S
C1213 C1212 1.390 . S
C1213 C1214 1.394 . S
C1213 C1219 1.465 . S
C1214 C1209 1.399 . S
C1214 C1213 1.394 . S
C1214 C1215 1.516 . S
C1215 C1214 1.516 . S
C1215 C1216 1.502 . S
C1215 C1217 1.561 . S
C1215 C1218 1.526 . S
C1216 H1200 0.959 . S
C1216 H1201 0.959 . S
C1216 H1202 0.961 . S
C1216 C1215 1.502 . S
C1217 H1203 0.960 . S
C1217 H1204 0.961 . S
C1217 H1205 0.959 . S
C1217 C1215 1.561 . S
C1218 C1215 1.526 . S
C1218 C1219 1.396 . S
C1218 C1223 1.390 1_655 S
C1219 C1213 1.465 . S
C1219 C1218 1.396 . S
C1219 C1220 1.399 1_655 S
C1220 H1206 0.929 . S
C1220 C1219 1.399 1_455 S
C1220 C1221 1.385 . S
C1221 H1207 0.931 . S
C1221 C1220 1.385 . S
C1221 C1222 1.389 . S
C1222 C1221 1.389 . S
C1222 C1223 1.387 . S
C1223 H1208 0.930 . S
C1223 C1218 1.390 1_455 S
C1223 C1222 1.387 . S
C265 C15 1.451 . S
C277 C249 1.455 . S
C292 C207 1.471 . S
C304 C36 1.476 1_655 S
C319 C60 1.456 . S
C331 C183 1.452 . S
C346 C81 1.450 . S
C358 C228 1.452 . S
C373 C102 1.477 . S
C385 C225 1.476 1_545 S
C400 C123 1.476 1_455 S
C412 C246 1.471 . S
C427 C204 1.469 1_565 S
C439 C141 1.462 . S
C454 C162 1.474 . S
C466 C186 1.469 . S
C481 C78 1.471 . S
C493 C99 1.465 . S
C508 C18 1.476 . S
C520 C120 1.472 . S
C535 C39 1.459 . S
C547 C144 1.466 1_556 S
C562 C165 1.477 . S
C574 C57 1.475 1_554 S
C589 C13 1.203 . S
C601 C182 1.237 . S
C616 C34 1.124 . S
C628 C227 1.221 . S
C643 C248 1.225 . S
C655 C58 1.132 . S
C670 C79 1.189 . S
C682 C206 1.188 . S
C697 C100 1.079 . S
C709 C203 1.172 . S
C724 C185 1.236 . S
C736 C121 1.205 . S
C751 C224 1.171 . S
C763 C139 1.164 . S
C778 C245 1.164 . S
C790 C160 1.084 . S
C805 C17 1.238 . S
C817 C76 1.199 . S
C832 C16 1.095 . S
C844 C38 1.157 . S
C859 C37 1.180 . S
C871 C56 1.182 . S
C886 C77 1.169 . S
C898 C55 1.082 . S
C913 C118 1.080 . S
C925 C98 1.177 . S
C940 C119 1.155 . S
C952 C142 1.105 . S
C967 C143 1.155 . S
C979 C163 1.113 . S
C994 C97 1.115 . S
C1006 C164 1.157 . S
C1021 C184 1.181 . S
C1033 C80 1.182 . S
C1048 C122 1.157 . S
C1060 C205 1.094 . S
C1075 C181 1.207 . S
C1087 C140 1.207 . S
C1102 C226 1.088 . S
C1114 C161 1.192 . S
C1129 C101 1.156 . S
C1141 C247 1.119 . S
C1156 C244 1.105 . S
C1168 C35 1.209 . S
C1183 C59 1.179 . S
C1195 C202 1.177 . S
C1210 C223 1.084 . S
C1222 C14 1.187 . S
