# Generated by pormake.
# Topology wjd, (6)-cn, num edge types: 1
# Building blocks:
#     Node 0, Type 0, BuildingBlock: KUMBUR_clean_sbu_0, # of connection points: 6
#     Node 1, Type 0, BuildingBlock: KUMBUR_clean_sbu_0, # of connection points: 6
#     Node 2, Type 0, BuildingBlock: KUMBUR_clean_sbu_0, # of connection points: 6
#     Node 3, Type 0, BuildingBlock: KUMBUR_clean_sbu_0, # of connection points: 6
#     Node 4, Type 0, BuildingBlock: KUMBUR_clean_sbu_0, # of connection points: 6
#     Node 5, Type 0, BuildingBlock: KUMBUR_clean_sbu_0, # of connection points: 6
#     Node 6, Type 0, BuildingBlock: KUMBUR_clean_sbu_0, # of connection points: 6
#     Node 7, Type 0, BuildingBlock: KUMBUR_clean_sbu_0, # of connection points: 6
#     Node 8, Type 0, BuildingBlock: KUMBUR_clean_sbu_0, # of connection points: 6
#     Node 9, Type 0, BuildingBlock: KUMBUR_clean_sbu_0, # of connection points: 6
#     Node 10, Type 0, BuildingBlock: KUMBUR_clean_sbu_0, # of connection points: 6
#     Node 11, Type 0, BuildingBlock: KUMBUR_clean_sbu_0, # of connection points: 6
#     Edge 12, Type (0, 0), BuildingBlock: XUDNAN_clean_linker_2, # of connection points: 2
#     Edge 13, Type (0, 0), BuildingBlock: XUDNAN_clean_linker_2, # of connection points: 2
#     Edge 14, Type (0, 0), BuildingBlock: XUDNAN_clean_linker_2, # of connection points: 2
#     Edge 15, Type (0, 0), BuildingBlock: XUDNAN_clean_linker_2, # of connection points: 2
#     Edge 16, Type (0, 0), BuildingBlock: XUDNAN_clean_linker_2, # of connection points: 2
#     Edge 17, Type (0, 0), BuildingBlock: XUDNAN_clean_linker_2, # of connection points: 2
#     Edge 18, Type (0, 0), BuildingBlock: XUDNAN_clean_linker_2, # of connection points: 2
#     Edge 19, Type (0, 0), BuildingBlock: XUDNAN_clean_linker_2, # of connection points: 2
#     Edge 20, Type (0, 0), BuildingBlock: XUDNAN_clean_linker_2, # of connection points: 2
#     Edge 21, Type (0, 0), BuildingBlock: XUDNAN_clean_linker_2, # of connection points: 2
#     Edge 22, Type (0, 0), BuildingBlock: XUDNAN_clean_linker_2, # of connection points: 2
#     Edge 23, Type (0, 0), BuildingBlock: XUDNAN_clean_linker_2, # of connection points: 2
#     Edge 24, Type (0, 0), BuildingBlock: XUDNAN_clean_linker_2, # of connection points: 2
#     Edge 25, Type (0, 0), BuildingBlock: XUDNAN_clean_linker_2, # of connection points: 2
#     Edge 26, Type (0, 0), BuildingBlock: XUDNAN_clean_linker_2, # of connection points: 2
#     Edge 27, Type (0, 0), BuildingBlock: XUDNAN_clean_linker_2, # of connection points: 2
#     Edge 28, Type (0, 0), BuildingBlock: XUDNAN_clean_linker_2, # of connection points: 2
#     Edge 29, Type (0, 0), BuildingBlock: XUDNAN_clean_linker_2, # of connection points: 2
#     Edge 30, Type (0, 0), BuildingBlock: XUDNAN_clean_linker_2, # of connection points: 2
#     Edge 31, Type (0, 0), BuildingBlock: XUDNAN_clean_linker_2, # of connection points: 2
#     Edge 32, Type (0, 0), BuildingBlock: XUDNAN_clean_linker_2, # of connection points: 2
#     Edge 33, Type (0, 0), BuildingBlock: XUDNAN_clean_linker_2, # of connection points: 2
#     Edge 34, Type (0, 0), BuildingBlock: XUDNAN_clean_linker_2, # of connection points: 2
#     Edge 35, Type (0, 0), BuildingBlock: XUDNAN_clean_linker_2, # of connection points: 2
#     Edge 36, Type (0, 0), BuildingBlock: XUDNAN_clean_linker_2, # of connection points: 2
#     Edge 37, Type (0, 0), BuildingBlock: XUDNAN_clean_linker_2, # of connection points: 2
#     Edge 38, Type (0, 0), BuildingBlock: XUDNAN_clean_linker_2, # of connection points: 2
#     Edge 39, Type (0, 0), BuildingBlock: XUDNAN_clean_linker_2, # of connection points: 2
#     Edge 40, Type (0, 0), BuildingBlock: XUDNAN_clean_linker_2, # of connection points: 2
#     Edge 41, Type (0, 0), BuildingBlock: XUDNAN_clean_linker_2, # of connection points: 2
#     Edge 42, Type (0, 0), BuildingBlock: XUDNAN_clean_linker_2, # of connection points: 2
#     Edge 43, Type (0, 0), BuildingBlock: XUDNAN_clean_linker_2, # of connection points: 2
#     Edge 44, Type (0, 0), BuildingBlock: XUDNAN_clean_linker_2, # of connection points: 2
#     Edge 45, Type (0, 0), BuildingBlock: XUDNAN_clean_linker_2, # of connection points: 2
#     Edge 46, Type (0, 0), BuildingBlock: XUDNAN_clean_linker_2, # of connection points: 2
#     Edge 47, Type (0, 0), BuildingBlock: XUDNAN_clean_linker_2, # of connection points: 2
# Relax obj value: 0.097
# Max RMSD: 0.214
# Mean RMSD: 0.214
data_MOF--net-wjd--node1-KUMBUR_clean_sbu_0--edge1-XUDNAN_clean_linker_2
_symmetry_space_group_name_H-M    P1
_symmetry_Int_Tables_number       1
_symmetry_cell_setting            triclinic
loop_
_symmetry_equiv_pos_as_xyz
'x, y, z'
_cell_length_a     38.015544
_cell_length_b     38.158295
_cell_length_c     54.491641
_cell_angle_alpha  89.976336
_cell_angle_beta   89.904517
_cell_angle_gamma 120.17147
loop_
_atom_site_label
_atom_site_type_symbol
_atom_site_fract_x
_atom_site_fract_y
_atom_site_fract_z
_atom_type_partial_charge
Tb0 Tb 0.39246 0.20314 0.11012 0.0
C1 C 0.38118 0.04279 0.12638 0.0
C2 C 0.34495 0.99247 0.0951 0.0
C3 C 0.40231 0.99414 0.11582 0.0
C4 C 0.35119 0.0263 0.10894 0.0
C5 C 0.40692 0.02662 0.13032 0.0
C6 C 0.37122 0.97695 0.09828 0.0
C7 C 0.43777 0.07391 0.16362 0.0
N8 N 0.3842 0.07384 0.14007 0.0
C9 C 0.41151 0.08886 0.159 0.0
C10 C 0.43587 0.04302 0.14901 0.0
Tb11 Tb 0.34092 0.09755 0.13022 0.0
N12 N 0.32688 0.04249 0.10631 0.0
C13 C 0.29326 0.02391 0.09153 0.0
C14 C 0.31186 0.97465 0.07902 0.0
C15 C 0.28572 0.99029 0.07736 0.0
H16 H 0.41446 0.1132 0.17035 0.0
H17 H 0.2597 0.97641 0.06523 0.0
H18 H 0.36728 0.95125 0.08763 0.0
H19 H 0.45976 0.08655 0.17834 0.0
H20 H 0.27274 0.03565 0.09022 0.0
H21 H 0.3029 0.27021 0.13774 0.0
H22 H 0.30577 0.94836 0.06822 0.0
H23 H 0.43782 0.20983 0.0567 0.0
H24 H 0.3451 0.23891 0.14397 0.0
H25 H 0.43266 0.22696 0.01377 0.0
H26 H 0.42199 0.98151 0.11841 0.0
H27 H 0.28673 0.28215 0.09575 0.0
H28 H 0.29709 0.28034 0.05018 0.0
H29 H 0.45635 0.03163 0.15258 0.0
H30 H 0.33208 0.26784 0.01617 0.0
N31 N 0.35167 0.23125 0.10583 0.0
C32 C 0.33812 0.24346 0.12549 0.0
C33 C 0.30494 0.2679 0.09834 0.0
C34 C 0.32075 0.25746 0.07826 0.0
C35 C 0.31419 0.26141 0.12206 0.0
C36 C 0.34442 0.23917 0.08273 0.0
H37 H 0.38336 0.2485 1.00244 0.0
N38 N 0.39026 0.21934 0.0696 0.0
C39 C 0.41312 0.22856 0.02765 0.0
C40 C 0.36457 0.233 0.06382 0.0
C41 C 0.41603 0.21899 0.05207 0.0
C42 C 0.38514 0.24054 0.0213 0.0
C43 C 0.36115 0.24389 0.03959 0.0
O44 O 0.45496 0.24694 0.10557 0.0
O45 O 0.39829 0.15276 0.12398 0.0
O46 O 0.37041 0.13695 0.1618 0.0
O47 O 0.37885 0.19942 0.1501 0.0
O48 O 0.44113 0.19168 0.09945 0.0
O49 O 0.41876 0.2573 0.13093 0.0
O50 O 0.32344 0.07469 0.16598 0.0
O51 O 0.33782 0.15269 0.12513 0.0
O52 O 0.35871 0.16023 0.07929 0.0
O53 O 0.35719 0.10075 0.09155 0.0
O54 O 0.28944 0.09966 0.1135 0.0
O55 O 0.27827 0.05723 0.13792 0.0
C56 C 0.43017 0.15979 0.11229 0.0
C57 C 0.47228 0.31563 0.11141 0.0
C58 C 0.52738 0.38752 0.10975 0.0
C59 C 0.51111 0.34743 0.11921 0.0
C60 C 0.50364 0.39487 0.09302 0.0
C61 C 0.45019 0.32468 0.09456 0.0
C62 C 0.46561 0.36384 0.08555 0.0
C63 C 0.37715 0.17364 0.16718 0.0
C64 C 0.45428 0.27304 0.12055 0.0
C65 C 0.33542 0.25955 0.03468 0.0
C66 C 0.31545 0.26661 0.05404 0.0
C67 C 0.30284 0.13772 0.11577 0.0
C68 C 0.2605 1.01246 0.17298 0.0
C69 C 0.22118 0.98178 0.16471 0.0
C70 C 0.19622 0.9471 0.17961 0.0
C71 C 0.21136 0.94553 0.20306 0.0
C72 C 0.27443 1.00754 0.19584 0.0
C73 C 0.25004 0.97462 0.21068 0.0
C74 C 0.35342 0.12348 0.07466 0.0
C75 C 0.2849 0.0528 0.16071 0.0
H76 H 0.52867 0.34091 0.13215 0.0
H77 H 0.51433 0.42502 0.08578 0.0
H78 H 0.42076 0.30145 0.08837 0.0
H79 H 0.44789 0.37021 0.07267 0.0
H80 H 0.21009 0.9853 0.14714 0.0
H81 H 0.19317 0.9221 0.21621 0.0
H82 H 0.3037 0.03035 0.20297 0.0
H83 H 0.26075 0.97222 0.22866 0.0
Tb84 Tb 0.79221 0.71481 0.3819 0.0
C85 C 0.90205 0.6989 0.45076 0.0
C86 C 0.96712 0.73257 0.42999 0.0
C87 C 0.96451 0.73242 0.47456 0.0
C88 C 0.92423 0.71075 0.42933 0.0
C89 C 0.92192 0.70846 0.47368 0.0
C90 C 0.9871 0.7441 0.45274 0.0
C91 C 0.85735 0.66281 0.4927 0.0
N92 N 0.86135 0.67341 0.44899 0.0
C93 C 0.83938 0.65313 0.46947 0.0
C94 C 0.89871 0.69118 0.49487 0.0
Tb95 Tb 0.83436 0.65895 0.41001 0.0
N96 N 0.90382 0.69734 0.40787 0.0
C97 C 0.92464 0.70339 0.38635 0.0
C98 C 0.98855 0.74031 0.40787 0.0
C99 C 0.96719 0.72536 0.38598 0.0
H100 H 0.80746 0.63068 0.46787 0.0
H101 H 0.98345 0.73061 0.36881 0.0
H102 H 1.02002 0.7608 0.45368 0.0
H103 H 0.83943 0.64793 0.50887 0.0
H104 H 0.90852 0.69172 0.36932 0.0
H105 H 0.63317 0.62898 0.40966 0.0
H106 H 1.0215 0.75677 0.40755 0.0
H107 H 0.82396 0.76017 0.32657 0.0
H108 H 0.70479 0.68002 0.41494 0.0
H109 H 0.79879 0.74678 0.28414 0.0
H110 H 0.98035 0.74028 0.49198 0.0
H111 H 0.60819 0.59571 0.36947 0.0
H112 H 0.62201 0.59387 0.32455 0.0
H113 H 0.91281 0.69788 0.51283 0.0
H114 H 0.66821 0.62637 0.28958 0.0
N115 N 0.72262 0.6734 0.37875 0.0
C116 C 0.6954 0.66509 0.39749 0.0
C117 C 0.64018 0.61767 0.3718 0.0
C118 C 0.66714 0.62983 0.35195 0.0
C119 C 0.65415 0.63645 0.39447 0.0
C120 C 0.70857 0.65846 0.35603 0.0
H121 H 0.7338 0.68462 0.27428 0.0
N122 N 0.77266 0.70701 0.34122 0.0
C123 C 0.78112 0.72574 0.29852 0.0
C124 C 0.73459 0.67614 0.33646 0.0
C125 C 0.7948 0.73369 0.32276 0.0
C126 C 0.74432 0.69088 0.29307 0.0
C127 C 0.7198 0.6664 0.31223 0.0
O128 O 0.82273 0.77572 0.37056 0.0
O129 O 0.84751 0.71401 0.39156 0.0
O130 O 0.82234 0.69392 0.43879 0.0
O131 O 0.77347 0.70439 0.42001 0.0
O132 O 0.84485 0.76311 0.40153 0.0
O133 O 0.76556 0.75046 0.39002 0.0
O134 O 0.8148 0.59991 0.42356 0.0
O135 O 0.78094 0.65436 0.39239 0.0
O136 O 0.82184 0.70031 0.35248 0.0
O137 O 0.83199 0.64989 0.36941 0.0
O138 O 0.77305 0.62083 0.42365 0.0
O139 O 0.85652 0.62354 0.39373 0.0
C140 C 0.86894 0.74889 0.40068 0.0
C141 C 0.78626 0.81042 0.36619 0.0
C142 C 0.79974 0.87977 0.35981 0.0
C143 C 0.80648 0.85167 0.37276 0.0
C144 C 0.77248 0.86566 0.33993 0.0
C145 C 0.75899 0.79698 0.34649 0.0
C146 C 0.75229 0.82461 0.33339 0.0
C147 C 0.79264 0.7028 0.43968 0.0
C148 C 0.7955 0.78285 0.37998 0.0
C149 C 0.67981 0.63489 0.30808 0.0
C150 C 0.65348 0.61646 0.32799 0.0
C151 C 0.75408 0.62801 0.40669 0.0
C152 C 0.8632 0.578 0.42002 0.0
C153 C 0.86173 0.54241 0.41111 0.0
C154 C 0.88624 0.5282 0.42181 0.0
C155 C 0.91275 0.55077 0.441 0.0
C156 C 0.8896 0.59913 0.4394 0.0
C157 C 0.91428 0.58579 0.44969 0.0
C158 C 0.83065 0.67109 0.35037 0.0
C159 C 0.83798 0.59352 0.40891 0.0
H160 H 0.82791 0.86193 0.38786 0.0
H161 H 0.76609 0.88617 0.3297 0.0
H162 H 0.74303 0.76533 0.34124 0.0
H163 H 0.7312 0.81414 0.31817 0.0
H164 H 0.84122 0.52563 0.39625 0.0
H165 H 0.93267 0.54148 0.44926 0.0
H166 H 0.89136 0.62604 0.44666 0.0
H167 H 0.93473 0.60273 0.46451 0.0
Tb168 Tb 0.86218 0.2008 0.11037 0.0
C169 C 0.99574 0.32559 0.17945 0.0
C170 C 1.01666 0.39097 0.16141 0.0
C171 C 1.02073 0.38505 0.20555 0.0
C172 C 1.00074 0.34878 0.1591 0.0
C173 C 1.00692 0.34352 0.20286 0.0
C174 C 1.02541 0.40875 0.18482 0.0
C175 C 0.99428 0.27914 0.21865 0.0
N176 N 0.98236 0.28571 0.17603 0.0
C177 C 0.98257 0.26254 0.19519 0.0
C178 C 1.00564 0.31957 0.22262 0.0
Tb179 Tb 0.96401 0.26064 0.13689 0.0
N180 N 0.99271 0.3304 0.13688 0.0
C181 C 1.00384 0.35375 0.11605 0.0
C182 C 1.02481 0.41419 0.14011 0.0
C183 C 1.01915 0.39557 0.11733 0.0
H184 H 0.97336 0.23106 0.19251 0.0
H185 H 1.02672 0.41342 0.10068 0.0
H186 H 0.03722 0.44099 0.18699 0.0
H187 H 0.99508 0.26091 0.23357 0.0
H188 H 1.00072 0.34084 0.09818 0.0
H189 H 0.79514 0.05149 0.15056 0.0
H190 H 0.03687 0.44662 0.14105 0.0
H191 H 0.85575 0.2273 0.05334 0.0
H192 H 0.82806 0.12537 0.15105 0.0
H193 H 0.8395 0.19586 0.01219 0.0
H194 H 1.02902 0.39931 0.22343 0.0
H195 H 0.78485 1.01488 0.11144 0.0
H196 H 0.78848 1.01747 0.06535 0.0
H197 H 1.01484 0.3324 0.24075 0.0
H198 H 0.80084 0.05711 0.0274 0.0
N199 N 0.83637 0.13201 0.11218 0.0
C200 C 0.82396 0.11045 0.13366 0.0
C201 C 0.79916 0.04762 0.1114 0.0
C202 C 0.80996 0.06948 0.08941 0.0
C203 C 0.80527 0.06817 0.13355 0.0
C204 C 0.82793 0.11204 0.09044 0.0
H205 H 0.81921 0.12362 1.0074 0.0
N206 N 0.84699 0.174 0.07147 0.0
C207 C 0.83805 0.17813 0.02807 0.0
C208 C 0.83397 0.13399 0.06927 0.0
C209 C 0.84711 0.19578 0.05139 0.0
C210 C 0.82677 0.13741 0.02543 0.0
C211 C 0.82357 0.11451 0.04625 0.0
O212 O 0.81315 0.20752 0.0973 0.0
O213 O 0.90838 0.25812 0.12507 0.0
O214 O 0.92093 0.25386 0.1655 0.0
O215 O 0.86147 0.19671 0.15146 0.0
O216 O 0.87328 0.25997 0.09737 0.0
O217 O 0.81012 0.18188 0.13255 0.0
O218 O 1.01672 0.2805 0.11513 0.0
O219 O 0.91755 0.20279 0.12196 0.0
O220 O 0.90852 0.21447 0.0809 0.0
O221 O 0.96499 0.27121 0.09743 0.0
O222 O 0.94949 0.20144 0.15167 0.0
O223 O 1.00777 0.24503 0.14744 0.0
C224 C 0.90216 0.28201 0.11225 0.0
C225 C 0.74697 0.15712 0.1117 0.0
C226 C 0.67331 0.1321 0.10692 0.0
C227 C 0.71384 0.16469 0.11058 0.0
C228 C 0.66674 0.09248 0.10521 0.0
C229 C 0.73845 0.117 0.10933 0.0
C230 C 0.69894 0.08512 0.10631 0.0
C231 C 0.88414 0.22238 0.16914 0.0
C232 C 0.79007 0.18991 0.11628 0.0
C233 C 0.80863 0.07259 0.04492 0.0
C234 C 0.80162 0.05004 0.06652 0.0
C235 C 0.92209 0.17917 0.13614 0.0
C236 C 0.03898 0.23243 0.11403 0.0
C237 C 0.07408 0.23005 0.11935 0.0
C238 C 0.08147 0.20142 0.10729 0.0
C239 C 0.05294 0.17555 0.08979 0.0
C240 C 1.01142 0.20621 0.09648 0.0
C241 C 1.01847 0.17815 0.0844 0.0
C242 C 0.94507 0.24766 0.07868 0.0
C243 C 1.02965 0.26026 0.12781 0.0
H244 H 0.71956 0.19542 0.11213 0.0
H245 H 0.63632 0.06686 0.10279 0.0
H246 H 0.76218 0.1098 0.11013 0.0
H247 H 0.69324 0.05441 0.10477 0.0
H248 H 0.09536 0.25041 0.13289 0.0
H249 H 0.05657 0.15243 0.08059 0.0
H250 H 0.984 0.20689 0.0924 0.0
H251 H 0.9967 0.15781 0.07107 0.0
Tb252 Tb 0.32043 0.09218 0.38578 0.0
C253 C 0.33426 0.23975 0.41809 0.0
C254 C 0.35254 0.29333 0.38835 0.0
C255 C 0.308 0.28601 0.42233 0.0
C256 C 0.35422 0.2592 0.39682 0.0
C257 C 0.31133 0.25334 0.43129 0.0
C258 C 0.32886 0.30619 0.40102 0.0
C259 C 0.29939 0.20366 0.46235 0.0
N260 N 0.33897 0.20885 0.42652 0.0
C261 C 0.32264 0.19151 0.44876 0.0
C262 C 0.29346 0.23454 0.45352 0.0
Tb263 Tb 0.38206 0.19476 0.4044 0.0
N264 N 0.37802 0.24686 0.38562 0.0
C265 C 0.40438 0.27052 0.36742 0.0
C266 C 0.37632 0.31482 0.36815 0.0
C267 C 0.40288 0.30373 0.35789 0.0
H268 H 0.32749 0.16861 0.45661 0.0
H269 H 0.42279 0.3212 0.34294 0.0
H270 H 0.32719 0.33227 0.39476 0.0
H271 H 0.28636 0.18939 0.47979 0.0
H272 H 0.42628 0.26323 0.35987 0.0
H273 H 0.41553 0.03818 0.42403 0.0
H274 H 0.37572 0.34105 0.36106 0.0
H275 H 0.27103 0.07126 0.3331 0.0
H276 H 0.3723 0.06918 0.42502 0.0
H277 H 0.2689 0.03733 0.29408 0.0
H278 H 0.29031 0.29662 0.43213 0.0
H279 H 0.42627 1.01197 0.38488 0.0
H280 H 0.40916 0.99712 0.34007 0.0
H281 H 0.27567 0.24409 0.46418 0.0
H282 H 0.36833 0.99603 0.30469 0.0
N283 N 0.36046 0.06306 0.38676 0.0
C284 C 0.37709 0.05846 0.40785 0.0
C285 C 0.40774 0.02617 0.3852 0.0
C286 C 0.38849 0.02861 0.36394 0.0
C287 C 0.40158 0.04072 0.40733 0.0
C288 C 0.36476 0.04744 0.3654 0.0
H289 H 0.31443 1.00927 0.28778 0.0
N290 N 0.31862 0.06411 0.34831 0.0
C291 C 0.29 0.04024 0.30833 0.0
C292 C 0.34257 0.04747 0.34549 0.0
C293 C 0.29136 0.05953 0.33043 0.0
C294 C 0.3158 0.0245 0.30483 0.0
C295 C 0.34243 0.02785 0.32356 0.0
O296 O 0.25653 0.05649 0.38219 0.0
O297 O 0.32067 0.14557 0.40013 0.0
O298 O 0.37546 0.15461 0.43634 0.0
O299 O 0.31896 0.09297 0.42563 0.0
O300 O 0.28334 0.11592 0.37067 0.0
O301 O 0.28931 0.03637 0.40447 0.0
O302 O 0.41233 0.2246 0.43686 0.0
O303 O 0.38093 0.13804 0.3986 0.0
O304 O 0.35085 0.12635 0.35257 0.0
O305 O 0.36923 0.19226 0.36434 0.0
O306 O 0.42676 0.18876 0.38261 0.0
O307 O 0.44307 0.24299 0.40234 0.0
C308 C 0.29469 0.14567 0.38561 0.0
C309 C 0.22955 0.98575 0.38483 0.0
C310 C 0.16311 0.92709 0.3746 0.0
C311 C 0.18655 0.96597 0.38509 0.0
C312 C 0.18336 0.90818 0.36436 0.0
C313 C 0.24875 0.96605 0.37441 0.0
C314 C 0.22573 0.92751 0.36431 0.0
C315 C 0.34572 0.11713 0.44185 0.0
C316 C 0.25406 0.0269 0.39525 0.0
C317 C 0.36756 1.01078 0.3215 0.0
C318 C 0.39076 1.01136 0.34165 0.0
C319 C 0.41406 0.15105 0.38668 0.0
C320 C 0.45452 0.29582 0.42994 0.0
C321 C 0.49038 0.32917 0.42009 0.0
C322 C 0.49948 0.3696 0.42441 0.0
C323 C 0.47144 0.37573 0.43792 0.0
C324 C 0.4281 0.30365 0.44395 0.0
C325 C 0.43629 0.34313 0.44759 0.0
C326 C 0.36281 0.16461 0.34734 0.0
C327 C 0.44366 0.25298 0.42514 0.0
H328 H 0.17151 0.98111 0.39293 0.0
H329 H 0.16631 0.87816 0.35643 0.0
H330 H 0.28156 0.98035 0.37411 0.0
H331 H 0.24083 0.91254 0.35636 0.0
H332 H 0.51128 0.32369 0.40951 0.0
H333 H 0.47665 0.40601 0.44104 0.0
H334 H 0.40069 0.27923 0.45203 0.0
H335 H 0.41525 0.34851 0.45807 0.0
Tb336 Tb 0.87501 0.68051 0.11375 0.0
C337 C 0.76123 0.70527 0.18595 0.0
C338 C 0.69377 0.65634 0.17192 0.0
C339 C 0.70397 0.67933 0.21424 0.0
C340 C 0.73585 0.68134 0.16754 0.0
C341 C 0.74538 0.70586 0.20926 0.0
C342 C 0.67821 0.65435 0.1956 0.0
C343 C 0.81128 0.76207 0.21987 0.0
N344 N 0.80091 0.7307 0.18028 0.0
C345 C 0.82588 0.75953 0.19677 0.0
C346 C 0.77108 0.73468 0.22632 0.0
Tb347 Tb 0.82096 0.72749 0.14102 0.0
N348 N 0.75186 0.6856 0.14477 0.0
C349 C 0.72658 0.66865 0.12507 0.0
C350 C 0.66836 0.63588 0.15209 0.0
C351 C 0.68476 0.64273 0.12847 0.0
H352 H 0.857 0.78116 0.19226 0.0
H353 H 0.66523 0.62824 0.11285 0.0
H354 H 0.64605 0.63505 0.1994 0.0
H355 H 0.83097 0.78543 0.23264 0.0
H356 H 0.73858 0.67404 0.10663 0.0
H357 H 1.03224 0.74616 0.14164 0.0
H358 H 0.6359 0.61623 0.15466 0.0
H359 H 0.83665 0.65358 0.05723 0.0
H360 H 0.95789 0.70556 0.14675 0.0
H361 H 0.86027 0.67255 0.01466 0.0
H362 H 0.69132 0.67894 0.23214 0.0
H363 H 0.0618 0.77957 0.10199 0.0
H364 H 0.0507 0.7878 0.05733 0.0
H365 H 0.7598 0.73722 0.24408 0.0
H366 H 1.00357 0.76654 0.02228 0.0
N367 N 0.94486 0.71746 0.11074 0.0
C368 C 0.97015 0.72032 0.12938 0.0
C369 C 1.02905 0.76203 0.10415 0.0
C370 C 1.00316 0.75561 0.08437 0.0
C371 C 1.01246 0.74315 0.12654 0.0
C372 C 0.96076 0.73225 0.08823 0.0
H373 H 0.93245 0.7226 1.00611 0.0
N374 N 0.89463 0.69349 0.07309 0.0
C375 C 0.88152 0.68611 0.02967 0.0
C376 C 0.93466 0.71953 0.06856 0.0
C377 C 0.8683 0.67523 0.05391 0.0
C378 C 0.92224 0.71452 0.02492 0.0
C379 C 0.9496 0.73094 0.04445 0.0
O380 O 0.85729 0.62182 0.10088 0.0
O381 O 0.81792 0.67129 0.12874 0.0
O382 O 0.82868 0.69528 0.17147 0.0
O383 O 0.87727 0.67989 0.15513 0.0
O384 O 0.81477 0.63694 0.09946 0.0
O385 O 0.89678 0.64633 0.13195 0.0
O386 O 0.84928 0.79098 0.13702 0.0
O387 O 0.8782 0.7317 0.13145 0.0
O388 O 0.87379 0.72678 0.08937 0.0
O389 O 0.81166 0.717 0.10166 0.0
O390 O 0.88159 0.77573 0.15358 0.0
O391 O 0.78817 0.75262 0.12479 0.0
C392 C 0.7929 0.6425 0.11514 0.0
C393 C 0.90642 0.60179 0.10632 0.0
C394 C 0.92753 0.55069 0.1039 0.0
C395 C 0.90285 0.56488 0.11431 0.0
C396 C 0.9563 0.57454 0.0859 0.0
C397 C 0.935 0.62438 0.08809 0.0
C398 C 0.95992 0.611 0.07811 0.0
C399 C 0.85482 0.68201 0.17362 0.0
C400 C 0.87993 0.61633 0.11654 0.0
C401 C 0.99147 0.75705 0.04064 0.0
C402 C 1.01827 0.7693 0.0606 0.0
C403 C 0.90358 0.76392 0.14242 0.0
C404 C 0.80616 0.81807 0.13972 0.0
C405 C 0.82741 0.85936 0.13304 0.0
C406 C 0.81931 0.88744 0.14489 0.0
C407 C 0.78931 0.87335 0.16335 0.0
C408 C 0.77632 0.80482 0.15813 0.0
C409 C 0.76798 0.83237 0.16982 0.0
C410 C 0.84118 0.73015 0.08548 0.0
C411 C 0.81711 0.78982 0.12825 0.0
H412 H 0.88036 0.54694 0.12812 0.0
H413 H 0.97624 0.56505 0.07784 0.0
H414 H 0.93792 0.65226 0.08141 0.0
H415 H 0.98202 0.62889 0.06414 0.0
H416 H 0.85082 0.86972 0.11903 0.0
H417 H 0.78192 0.89397 0.17259 0.0
H418 H 0.75963 0.77328 0.16358 0.0
H419 H 0.74491 0.82193 0.18401 0.0
Tb420 Tb 0.95234 0.25483 0.38186 0.0
C421 C 0.81658 0.12038 0.44364 0.0
C422 C 0.78987 0.05781 0.4209 0.0
C423 C 0.78734 0.05615 0.46547 0.0
C424 C 0.80988 0.10053 0.42158 0.0
C425 C 0.80484 0.09849 0.46588 0.0
C426 C 0.77967 0.0358 0.44298 0.0
C427 C 0.82456 0.16137 0.48694 0.0
N428 N 0.83247 0.16106 0.44316 0.0
C429 C 0.83506 0.18157 0.46436 0.0
C430 C 0.80978 0.11968 0.48775 0.0
Tb431 Tb 0.84946 0.19176 0.40537 0.0
N432 N 0.82033 0.12296 0.40067 0.0
C433 C 0.8084 0.10402 0.3784 0.0
C434 C 0.77923 0.03849 0.39811 0.0
C435 C 0.7877 0.06172 0.37683 0.0
H436 H 0.84648 0.21383 0.46391 0.0
H437 H 0.77787 0.04711 0.35921 0.0
H438 H 0.76484 1.00301 0.44284 0.0
H439 H 0.82768 0.17794 0.50368 0.0
H440 H 0.81437 0.12109 0.36165 0.0
H441 H 1.00178 0.4005 0.42488 0.0
H442 H 0.76341 1.00573 0.39677 0.0
H443 H 0.971 0.23355 0.32603 0.0
H444 H 0.97721 0.32777 0.42422 0.0
H445 H 0.99691 0.26903 0.2866 0.0
H446 H 0.7784 0.03878 0.48236 0.0
H447 H 1.01845 0.43934 0.38611 0.0
H448 H 1.02707 0.44057 0.34031 0.0
H449 H 0.80124 0.10401 0.50524 0.0
H450 H 1.02613 0.40472 0.30252 0.0
N451 N 0.97763 0.32364 0.38507 0.0
C452 C 0.98403 0.34363 0.40696 0.0
C453 C 1.00735 0.40706 0.38562 0.0
C454 C 1.00374 0.38718 0.36343 0.0
C455 C 0.99812 0.38527 0.40752 0.0
C456 C 0.98884 0.34504 0.36383 0.0
H457 H 1.01621 0.34112 0.28262 0.0
N458 N 0.97531 0.28496 0.34431 0.0
C459 C 0.99377 0.28491 0.30212 0.0
C460 C 0.98794 0.32501 0.34267 0.0
C461 C 0.97935 0.26499 0.3246 0.0
C462 C 1.00468 0.32558 0.29991 0.0
C463 C 1.00233 0.34632 0.32039 0.0
O464 O 0.99203 0.23199 0.37676 0.0
O465 O 0.90472 0.19524 0.3932 0.0
O466 O 0.89469 0.19529 0.43295 0.0
O467 O 0.94975 0.25762 0.422 0.0
O468 O 0.93959 0.19767 0.36408 0.0
O469 O 1.00826 0.28218 0.40089 0.0
O470 O 0.80091 0.19868 0.41894 0.0
O471 O 0.89594 0.25126 0.39349 0.0
O472 O 0.91256 0.25037 0.35192 0.0
O473 O 0.85161 0.19258 0.36419 0.0
O474 O 0.86142 0.24838 0.42283 0.0
O475 O 0.79959 0.17737 0.38238 0.0
C476 C 0.91006 0.17334 0.37804 0.0
C477 C 0.06186 0.2766 0.38213 0.0
C478 C 0.12389 0.27233 0.37823 0.0
C479 C 0.08393 0.2569 0.38718 0.0
C480 C 0.14125 0.30795 0.36397 0.0
C481 C 0.07971 0.31195 0.36785 0.0
C482 C 0.11927 0.32751 0.35887 0.0
C483 C 0.9307 0.22781 0.43789 0.0
C484 C 1.01974 0.25839 0.39116 0.0
C485 C 1.01537 0.38789 0.31954 0.0
C486 C 1.01592 0.40828 0.34104 0.0
C487 C 0.88975 0.27299 0.40835 0.0
C488 C 0.73544 0.15366 0.40159 0.0
C489 C 0.70505 0.16483 0.40147 0.0
C490 C 0.66325 0.13469 0.40157 0.0
C491 C 0.65234 0.09371 0.40202 0.0
C492 C 0.72318 0.11231 0.40256 0.0
C493 C 0.68211 0.08269 0.40271 0.0
C494 C 0.87563 0.21969 0.34737 0.0
C495 C 0.77942 0.18465 0.399 0.0
H496 H 0.06953 0.22906 0.39777 0.0
H497 H 0.17204 0.32107 0.35704 0.0
H498 H 0.06308 0.32735 0.36359 0.0
H499 H 0.13301 0.3549 0.3479 0.0
H500 H 0.71377 0.19657 0.40094 0.0
H501 H 0.62059 0.07015 0.40231 0.0
H502 H 0.74515 0.10256 0.40287 0.0
H503 H 0.67332 0.05096 0.4033 0.0
Tb504 Tb 0.10729 0.33733 0.63355 0.0
C505 C 0.23144 0.33421 0.56399 0.0
C506 C 0.25643 0.2935 0.58262 0.0
C507 C 0.25323 0.29662 0.5382 0.0
C508 C 0.23912 0.31855 0.58468 0.0
C509 C 0.23892 0.32399 0.54046 0.0
C510 C 0.26221 0.28156 0.55929 0.0
C511 C 0.2219 0.37199 0.5234 0.0
N512 N 0.21891 0.36149 0.56706 0.0
C513 C 0.21562 0.38165 0.54716 0.0
C514 C 0.23317 0.34269 0.52 0.0
Tb515 Tb 0.20752 0.37408 0.60671 0.0
N516 N 0.23343 0.33119 0.60686 0.0
C517 C 0.24774 0.32247 0.62762 0.0
C518 C 0.26923 0.28292 0.60398 0.0
C519 C 0.26568 0.29825 0.62649 0.0
H520 H 0.20676 0.40424 0.54947 0.0
H521 H 0.27703 0.29169 0.64298 0.0
H522 H 0.27484 0.26179 0.55734 0.0
H523 H 0.21818 0.38726 0.50773 0.0
H524 H 0.24541 0.334 0.64519 0.0
H525 H 0.05388 0.43088 0.59121 0.0
H526 H 0.28303 0.26406 0.60321 0.0
H527 H 0.0976 0.30393 0.6905 0.0
H528 H 0.07896 0.38336 0.59158 0.0
H529 H 0.07303 0.31391 0.73026 0.0
H530 H 0.25887 0.28809 0.52029 0.0
H531 H 0.04031 0.45514 0.63017 0.0
H532 H 0.03527 0.45015 0.67615 0.0
H533 H 0.23845 0.33558 0.5016 0.0
H534 H 0.03926 0.41728 0.71411 0.0
N535 N 0.08208 0.38102 0.63073 0.0
C536 C 0.07364 0.39323 0.60895 0.0
C537 C 0.05174 0.43424 0.63054 0.0
C538 C 0.05739 0.41939 0.65273 0.0
C539 C 0.05923 0.42051 0.60855 0.0
C540 C 0.07266 0.39246 0.65216 0.0
H541 H 0.05122 0.36481 0.73423 0.0
N542 N 0.08906 0.34812 0.67174 0.0
C543 C 0.0741 0.33168 0.7145 0.0
C544 C 0.07569 0.37488 0.67344 0.0
C545 C 0.08784 0.32599 0.69187 0.0
C546 C 0.06176 0.36037 0.71665 0.0
C547 C 0.06252 0.38248 0.69598 0.0
O548 O 0.05439 0.30413 0.61209 0.0
O549 O 0.15249 0.32319 0.62046 0.0
O550 O 0.1599 0.33307 0.58026 0.0
O551 O 0.10633 0.34139 0.59321 0.0
O552 O 0.11853 0.29061 0.64962 0.0
O553 O 0.0608 0.28082 0.6465 0.0
O554 O 0.25569 0.43056 0.59411 0.0
O555 O 0.1636 0.38935 0.62105 0.0
O556 O 0.15189 0.37377 0.66169 0.0
O557 O 0.20817 0.37002 0.64774 0.0
O558 O 0.1965 0.42076 0.59122 0.0
O559 O 0.26117 0.40484 0.62774 0.0
C560 C 0.14661 0.29481 0.63483 0.0
C561 C 1.02861 0.23329 0.61521 0.0
C562 C 0.9828 0.15975 0.61118 0.0
C563 C 0.99106 0.19799 0.62025 0.0
C564 C 1.01308 0.15803 0.59708 0.0
C565 C 0.05754 0.23026 0.60087 0.0
C566 C 0.04979 0.19301 0.5918 0.0
C567 C 0.1241 0.33054 0.57636 0.0
C568 C 0.03945 0.27264 0.62657 0.0
C569 C 0.04901 0.4106 0.69692 0.0
C570 C 0.04672 0.42928 0.67532 0.0
C571 C 0.16934 0.41752 0.60647 0.0
C572 C 0.32237 0.44517 0.60546 0.0
C573 C 0.35586 0.48525 0.60802 0.0
C574 C 0.39583 0.4942 0.60166 0.0
C575 C 0.40161 0.46246 0.59356 0.0
C576 C 0.32979 0.41485 0.59688 0.0
C577 C 0.36891 0.42328 0.59117 0.0
C578 C 0.18732 0.37582 0.66554 0.0
C579 C 0.27996 0.43435 0.61206 0.0
H580 H 0.9687 0.20045 0.63129 0.0
H581 H 1.00904 0.12949 0.59051 0.0
H582 H 0.08666 0.25665 0.59718 0.0
H583 H 0.07274 0.1911 0.58103 0.0
H584 H 0.3508 0.50924 0.61441 0.0
H585 H 0.43173 0.46801 0.58894 0.0
H586 H 0.30546 0.38439 0.59467 0.0
H587 H 0.37389 0.39927 0.58476 0.0
Tb588 Tb 0.21043 0.8432 0.90959 0.0
C589 C 0.33225 0.98288 0.84038 0.0
C590 C 0.39938 1.00264 0.85561 0.0
C591 C 0.39057 1.01453 0.81287 0.0
C592 C 0.35709 0.98518 0.85936 0.0
C593 C 0.34886 0.99892 0.81714 0.0
C594 C 0.41578 1.01605 0.83206 0.0
C595 C 0.28226 0.98479 0.80439 0.0
N596 N 0.29214 0.96746 0.84524 0.0
C597 C 0.26708 0.96859 0.8276 0.0
C598 C 0.32336 1.00016 0.79917 0.0
Tb599 Tb 0.27101 0.94609 0.88475 0.0
N600 N 0.34027 0.97358 0.88196 0.0
C601 C 0.3649 0.9824 0.90202 0.0
C602 C 0.42412 1.00802 0.87586 0.0
C603 C 0.40686 0.99861 0.89925 0.0
H604 H 0.23526 0.95707 0.83112 0.0
H605 H 0.42587 1.00412 0.9152 0.0
H606 H 0.44811 0.02921 0.82876 0.0
H607 H 0.26225 0.98554 0.79055 0.0
H608 H 0.35232 0.97624 0.92031 0.0
H609 H 0.05562 0.76842 0.87725 0.0
H610 H 0.45669 1.02107 0.87376 0.0
H611 H 0.24774 0.84786 0.96542 0.0
H612 H 0.13023 0.80393 0.87322 0.0
H613 H 0.22212 0.83205 1.00786 0.0
H614 H 0.40377 0.02644 0.79501 0.0
H615 H 1.02385 0.7556 0.91836 0.0
H616 H 1.03249 0.75869 0.96423 0.0
H617 H 0.33517 1.01307 0.78129 0.0
H618 H 0.07794 0.77647 0.9999 0.0
N619 N 0.14112 0.81396 0.91157 0.0
C620 C 0.11693 0.79952 0.89126 0.0
C621 C 0.0567 0.77179 0.91669 0.0
C622 C 0.08151 0.78414 0.93751 0.0
C623 C 0.07452 0.77895 0.89347 0.0
C624 C 0.1241 0.8052 0.93427 0.0
H625 H 0.14875 0.80351 0.01634 0.0
N626 N 0.18971 0.83005 0.94982 0.0
C627 C 0.20129 0.82676 0.99293 0.0
C628 C 0.14935 0.81368 0.95416 0.0
C629 C 0.21566 0.83551 0.96877 0.0
C630 C 0.1599 0.81083 0.99765 0.0
C631 C 0.13322 0.80334 0.97811 0.0
O632 O 0.22035 0.79518 0.91959 0.0
O633 O 0.26941 0.89091 0.89705 0.0
O634 O 0.26465 0.90491 0.85523 0.0
O635 O 0.20594 0.8459 0.8687 0.0
O636 O 0.26859 0.85167 0.92273 0.0
O637 O 0.18875 0.79232 0.88639 0.0
O638 O 0.24649 0.98484 0.88468 0.0
O639 O 0.21224 0.89697 0.89661 0.0
O640 O 0.21615 0.88973 0.93671 0.0
O641 O 0.27912 0.94164 0.92407 0.0
O642 O 0.21168 0.9354 0.87112 0.0
O643 O 0.30208 1.00202 0.90359 0.0
C644 C 0.29227 0.8821 0.90937 0.0
C645 C 0.1707 0.72931 0.90544 0.0
C646 C 0.15265 0.65772 0.9069 0.0
C647 C 0.18183 0.69911 0.90297 0.0
C648 C 0.11262 0.64699 0.91304 0.0
C649 C 0.13045 0.71727 0.91194 0.0
C650 C 0.10167 0.67656 0.91552 0.0
C651 C 0.23257 0.86854 0.8512 0.0
C652 C 0.20058 0.77291 0.90077 0.0
C653 C 0.09097 0.78457 0.98165 0.0
C654 C 0.06512 0.77453 0.96134 0.0
C655 C 0.18854 0.90413 0.88414 0.0
C656 C 0.29265 0.05448 0.88679 0.0
C657 C 0.27186 0.07575 0.89137 0.0
C658 C 0.28497 0.11404 0.88058 0.0
C659 C 0.31957 0.13075 0.86531 0.0
C660 C 0.32698 0.07183 0.87147 0.0
C661 C 0.34036 0.10982 0.86088 0.0
C662 C 0.24988 0.92526 0.94059 0.0
C663 C 0.27638 1.01325 0.89688 0.0
H664 H 0.2129 0.70775 0.89839 0.0
H665 H 0.08989 0.61557 0.91636 0.0
H666 H 0.1209 0.73911 0.91426 0.0
H667 H 0.07076 0.66792 0.92048 0.0
H668 H 0.24489 0.06198 0.90286 0.0
H669 H 0.33091 0.1603 0.857 0.0
H670 H 0.34322 0.05593 0.86753 0.0
H671 H 0.36692 0.12306 0.8491 0.0
Tb672 Tb 0.73243 0.80042 0.63955 0.0
C673 C 0.72072 0.92773 0.6007 0.0
C674 C 0.7229 0.97301 0.63254 0.0
C675 C 0.75738 1.00088 0.59394 0.0
C676 C 0.7103 0.9334 0.62399 0.0
C677 C 0.74374 0.96154 0.58521 0.0
C678 C 0.74719 1.00662 0.61762 0.0
C679 C 0.7352 0.91542 0.55273 0.0
N680 N 0.70694 0.88914 0.59283 0.0
C681 C 0.71203 0.88298 0.56854 0.0
C682 C 0.75154 0.9549 0.56117 0.0
Tb683 Tb 0.66777 0.83765 0.62064 0.0
N684 N 0.68665 0.90021 0.63794 0.0
C685 C 0.67048 0.90507 0.6594 0.0
C686 C 0.70988 0.97775 0.65561 0.0
C687 C 0.68287 0.94354 0.66888 0.0
H688 H 0.69662 0.85357 0.5602 0.0
H689 H 0.67064 0.94672 0.68614 0.0
H690 H 0.75736 0.03714 0.62399 0.0
H691 H 0.73924 0.90987 0.53374 0.0
H692 H 0.64679 0.87965 0.66928 0.0
H693 H 0.71763 0.68395 0.57588 0.0
H694 H 0.71902 1.00758 0.66283 0.0
H695 H 0.71753 0.78676 0.7014 0.0
H696 H 0.75047 0.75216 0.59327 0.0
H697 H 0.66981 0.73382 0.72903 0.0
H698 H 0.7751 0.02707 0.58234 0.0
H699 H 0.66117 0.62673 0.59813 0.0
H700 H 0.61867 0.60143 0.63644 0.0
H701 H 0.76877 0.97997 0.54869 0.0
H702 H 0.60506 0.6153 0.67845 0.0
N703 N 0.70952 0.73608 0.62375 0.0
C704 C 0.72445 0.72841 0.60274 0.0
C705 C 0.67489 0.65708 0.60562 0.0
C706 C 0.66308 0.66417 0.62851 0.0
C707 C 0.70656 0.68927 0.59299 0.0
C708 C 0.68185 0.70437 0.63733 0.0
H709 H 0.62426 0.66459 0.71333 0.0
N710 N 0.69535 0.75089 0.66882 0.0
C711 C 0.66981 0.72737 0.70968 0.0
C712 C 0.67423 0.71211 0.66072 0.0
C713 C 0.69612 0.75794 0.69356 0.0
C714 C 0.64436 0.68837 0.7008 0.0
C715 C 0.64751 0.67994 0.67623 0.0
O716 O 0.77415 0.81048 0.66811 0.0
O717 O 0.72751 0.85472 0.63468 0.0
O718 O 0.67819 0.80506 0.58944 0.0
O719 O 0.73747 0.80506 0.59983 0.0
O720 O 0.77853 0.85568 0.6216 0.0
O721 O 0.78716 0.80222 0.63096 0.0
O722 O 0.62813 0.82857 0.59108 0.0
O723 O 0.67215 0.7833 0.62527 0.0
O724 O 0.72267 0.83176 0.67074 0.0
O725 O 0.66289 0.83086 0.6608 0.0
O726 O 0.62165 0.78252 0.63867 0.0
O727 O 0.61342 0.83841 0.6273 0.0
C728 C 0.76138 0.87702 0.62424 0.0
C729 C 0.82125 0.78711 0.66137 0.0
C730 C 0.88369 0.7831 0.66043 0.0
C731 C 0.86201 0.80284 0.65415 0.0
C732 C 0.86375 0.74742 0.67457 0.0
C733 C 0.80185 0.75136 0.67523 0.0
C734 C 0.8232 0.73179 0.68189 0.0
C735 C 0.71053 0.80156 0.58349 0.0
C736 C 0.80011 0.80859 0.65338 0.0
C737 C 0.62629 0.64025 0.66698 0.0
C738 C 0.63409 0.63236 0.64311 0.0
C739 C 0.63779 0.76027 0.63527 0.0
C740 C 0.59348 0.86605 0.59514 0.0
C741 C 0.55579 0.86328 0.60099 0.0
C742 C 0.54672 0.89276 0.59216 0.0
C743 C 0.57621 0.9255 0.57834 0.0
C744 C 0.62161 0.89865 0.58067 0.0
C745 C 0.61329 0.92839 0.5727 0.0
C746 C 0.68988 0.83357 0.67707 0.0
C747 C 0.60366 0.83545 0.60432 0.0
H748 H 0.87684 0.83074 0.64362 0.0
H749 H 0.87915 0.73109 0.67957 0.0
H750 H 0.77036 0.73858 0.68078 0.0
H751 H 0.80814 0.70414 0.69257 0.0
H752 H 0.53329 0.83782 0.61163 0.0
H753 H 0.57008 0.94851 0.57138 0.0
H754 H 0.64999 0.90116 0.5752 0.0
H755 H 0.63545 0.95345 0.56168 0.0
Tb756 Tb 0.21575 0.38074 0.9037 0.0
C757 C 0.07924 0.35052 0.83895 0.0
C758 C 0.05961 0.39491 0.85871 0.0
C759 C 0.05009 0.38309 0.81474 0.0
C760 C 0.07639 0.36936 0.85983 0.0
C761 C 0.06467 0.35584 0.81633 0.0
C762 C 0.04775 0.40276 0.8359 0.0
C763 C 0.07591 0.30373 0.79936 0.0
N764 N 0.09355 0.32451 0.84128 0.0
C765 C 0.0901 0.29955 0.82222 0.0
C766 C 0.06362 0.33237 0.79631 0.0
Tb767 Tb 0.11632 0.32029 0.87946 0.0
N768 N 0.08726 0.36017 0.88152 0.0
C769 C 0.07892 0.37279 0.90307 0.0
C770 C 0.05375 0.41038 0.88064 0.0
C771 C 0.0627 0.3986 0.90296 0.0
H772 H 0.09944 0.27728 0.82457 0.0
H773 H 0.05729 0.40949 0.92009 0.0
H774 H 0.03531 0.42277 0.83459 0.0
H775 H 0.07433 0.2848 0.78412 0.0
H776 H 0.08569 0.36391 0.92035 0.0
H777 H 0.31751 0.34435 0.85324 0.0
H778 H 0.0411 0.43026 0.8806 0.0
H779 H 0.21137 0.38593 0.96587 0.0
H780 H 0.27903 0.37845 0.85973 0.0
H781 H 0.21759 0.35033 1.00129 0.0
H782 H 0.03937 0.38815 0.79742 0.0
H783 H 0.32252 0.3026 0.88611 0.0
H784 H 0.30502 0.27502 0.92851 0.0
H785 H 0.05236 0.33532 0.77863 0.0
H786 H 0.27563 0.27473 0.9687 0.0
N787 N 0.25517 0.35149 0.895 0.0
C788 C 0.27725 0.35779 0.87378 0.0
C789 C 0.30349 0.31595 0.88871 0.0
C790 C 0.2836 0.31181 0.91094 0.0
C791 C 0.3007 0.33945 0.87016 0.0
C792 C 0.26006 0.33081 0.91379 0.0
H793 H 0.24278 0.30247 0.99603 0.0
N794 N 0.22487 0.35281 0.93923 0.0
C795 C 0.22398 0.34355 0.9831 0.0
C796 C 0.24363 0.33074 0.93645 0.0
C797 C 0.21931 0.36283 0.9626 0.0
C798 C 0.23831 0.31672 0.98006 0.0
C799 C 0.25023 0.31156 0.95673 0.0
O800 O 0.23963 0.43414 0.92516 0.0
O801 O 0.15933 0.37928 0.89534 0.0
O802 O 0.15383 0.35248 0.84775 0.0
O803 O 0.22004 0.3788 0.86279 0.0
O804 O 0.21198 0.42562 0.88098 0.0
O805 O 0.27891 0.42147 0.90354 0.0
O806 O 0.08327 0.25696 0.87475 0.0
O807 O 0.16842 0.31964 0.89548 0.0
O808 O 0.16872 0.36837 0.93254 0.0
O809 O 0.11193 0.31017 0.91901 0.0
O810 O 0.14396 0.28744 0.86349 0.0
O811 O 0.05577 0.28757 0.8923 0.0
C812 C 0.17386 0.41307 0.88407 0.0
C813 C 0.30142 0.49062 0.90973 0.0
C814 C 0.36877 0.55131 0.9039 0.0
C815 C 0.34419 0.51091 0.91212 0.0
C816 C 0.34977 0.57089 0.893 0.0
C817 C 0.28334 0.51142 0.89936 0.0
C818 C 0.30743 0.55111 0.89088 0.0
C819 C 0.19347 0.36933 0.84449 0.0
C820 C 0.2768 0.44767 0.91765 0.0
C821 C 0.27088 0.29007 0.95343 0.0
C822 C 0.28777 0.29042 0.9306 0.0
C823 C 0.1711 0.29605 0.88014 0.0
C824 C 1.01213 0.22555 0.87194 0.0
C825 C 0.99164 0.1842 0.8781 0.0
C826 C 0.95533 0.15653 0.86615 0.0
C827 C 0.9401 0.17095 0.84763 0.0
C828 C 0.99612 0.23945 0.85371 0.0
C829 C 0.96038 0.21215 0.84153 0.0
C830 C 0.13269 0.33542 0.93671 0.0
C831 C 0.05041 0.25297 0.88463 0.0
H832 H 0.35833 0.49515 0.92032 0.0
H833 H 0.36755 0.60201 0.8868 0.0
H834 H 0.25071 0.49724 0.89777 0.0
H835 H 0.29315 0.5668 0.88284 0.0
H836 H 1.00423 0.17354 0.89214 0.0
H837 H 0.91202 0.15057 0.83825 0.0
H838 H 1.01108 0.27123 0.8489 0.0
H839 H 0.94817 0.22301 0.82743 0.0
Tb840 Tb 0.2575 0.94625 0.63653 0.0
C841 C 0.11935 0.80034 0.60326 0.0
C842 C 0.08522 0.74535 0.63236 0.0
C843 C 0.04601 0.75517 0.6008 0.0
C844 C 0.12092 0.77959 0.62354 0.0
C845 C 0.08187 0.78802 0.59144 0.0
C846 C 0.04773 0.73371 0.62113 0.0
C847 C 0.11812 0.84014 0.56123 0.0
N848 N 0.15471 0.83177 0.59462 0.0
C849 C 0.15448 0.85128 0.57357 0.0
C850 C 0.0816 0.80852 0.57027 0.0
Tb851 Tb 0.21325 0.84458 0.61468 0.0
N852 N 0.15781 0.79111 0.63349 0.0
C853 C 0.16135 0.76639 0.65046 0.0
C854 C 0.08848 0.72268 0.65145 0.0
C855 C 0.12685 0.73287 0.66025 0.0
H856 H 0.18187 0.87566 0.56594 0.0
H857 H 0.12997 0.71454 0.67429 0.0
H858 H 1.02001 0.70763 0.62772 0.0
H859 H 0.11835 0.85605 0.54473 0.0
H860 H 0.19105 0.77324 0.65691 0.0
H861 H 0.40934 1.00234 0.601 0.0
H862 H 0.06178 0.6963 0.65877 0.0
H863 H 0.22646 0.96216 0.69013 0.0
H864 H 0.33531 0.97423 0.59833 0.0
H865 H 0.25593 0.98864 0.73093 0.0
H866 H 1.01696 0.74553 0.59209 0.0
H867 H 0.44342 1.02072 0.64146 0.0
H868 H 0.43821 0.02906 0.68697 0.0
H869 H 0.05348 0.79998 0.56067 0.0
H870 H 0.3964 0.02617 0.72239 0.0
N871 N 0.32682 0.97455 0.63685 0.0
C872 C 0.34958 0.98183 0.61605 0.0
C873 C 0.41078 1.00804 0.64037 0.0
C874 C 0.38769 1.00328 0.66144 0.0
C875 C 0.39169 0.99787 0.61751 0.0
C876 C 0.34529 0.98633 0.65898 0.0
H877 H 0.32872 1.01288 0.73856 0.0
N878 N 0.28151 0.96915 0.67524 0.0
C879 C 0.27471 0.98714 0.71649 0.0
C880 C 0.32188 0.98411 0.67887 0.0
C881 C 0.25809 0.972 0.69337 0.0
C882 C 0.31578 1.00069 0.72078 0.0
C883 C 0.34003 0.99954 0.70182 0.0
O884 O 0.22563 0.97845 0.63689 0.0
O885 O 0.20317 0.89435 0.62146 0.0
O886 O 0.24345 0.88578 0.58243 0.0
O887 O 0.26162 0.95049 0.59671 0.0
O888 O 0.19696 0.92215 0.65245 0.0
O889 O 0.28701 1.00703 0.62424 0.0
O890 O 0.21076 0.81551 0.58131 0.0
O891 O 0.26976 0.90073 0.62073 0.0
O892 O 0.25319 0.90866 0.66809 0.0
O893 O 0.20329 0.84431 0.65493 0.0
O894 O 0.26487 0.8491 0.63477 0.0
O895 O 0.22802 0.79796 0.61437 0.0
C896 C 0.17764 0.89364 0.63681 0.0
C897 C 0.26432 0.04934 0.64199 0.0
C898 C 0.2493 0.10447 0.64802 0.0
C899 C 0.24241 0.06894 0.63564 0.0
C900 C 0.27853 0.11979 0.66687 0.0
C901 C 0.29335 0.06559 0.66077 0.0
C902 C 0.30024 0.10048 0.67314 0.0
C903 C 0.25709 0.92529 0.57888 0.0
C904 C 0.25623 1.01192 0.629 0.0
C905 C 0.38194 1.01468 0.70478 0.0
C906 C 0.40573 1.01633 0.68463 0.0
C907 C 0.29032 0.88684 0.631 0.0
C908 C 0.18618 0.74466 0.587 0.0
C909 C 0.19203 0.7128 0.59565 0.0
C910 C 0.16307 0.67172 0.59047 0.0
C911 C 0.12807 0.66316 0.57709 0.0
C912 C 0.15061 0.7346 0.57374 0.0
C913 C 0.12187 0.69427 0.56897 0.0
C914 C 0.22591 0.87021 0.67237 0.0
C915 C 0.21668 0.78818 0.59178 0.0
H916 H 0.21982 0.05628 0.62122 0.0
H917 H 0.28538 0.14731 0.6765 0.0
H918 H 0.31086 0.05148 0.66582 0.0
H919 H 0.32279 0.11284 0.68757 0.0
H920 H 0.21919 0.71993 0.60592 0.0
H921 H 0.10515 0.63211 0.57306 0.0
H922 H 0.1448 0.75788 0.56695 0.0
H923 H 0.09462 0.68707 0.5588 0.0
Tb924 Tb 0.69218 0.84981 0.91443 0.0
C925 C 0.68086 0.71336 0.85032 0.0
C926 C 0.63407 0.6528 0.87256 0.0
C927 C 0.63704 0.65123 0.82805 0.0
C928 C 0.66384 0.69432 0.87216 0.0
C929 C 0.66889 0.69173 0.82804 0.0
C930 C 0.61961 0.63176 0.85032 0.0
C931 C 0.72498 0.7495 0.80834 0.0
N932 N 0.71187 0.75224 0.85123 0.0
C933 C 0.73534 0.76987 0.83085 0.0
C934 C 0.69089 0.71072 0.80676 0.0
Tb935 Tb 0.72641 0.78341 0.88884 0.0
N936 N 0.6796 0.71553 0.89314 0.0
C937 C 0.67001 0.69558 0.9152 0.0
C938 C 0.62151 0.63321 0.89525 0.0
C939 C 0.64042 0.65444 0.91661 0.0
H940 H 0.76166 0.79992 0.83186 0.0
H941 H 0.63204 0.63925 0.93422 0.0
H942 H 0.5963 0.6 0.85021 0.0
H943 H 0.74365 0.76339 0.79232 0.0
H944 H 0.68407 0.71142 0.93196 0.0
H945 H 0.77142 0.9972 0.8712 0.0
H946 H 0.59866 0.60136 0.89638 0.0
H947 H 0.66964 0.82416 0.97335 0.0
H948 H 0.73142 0.92288 0.87213 0.0
H949 H 0.68897 0.85773 0.01359 0.0
H950 H 0.62695 0.63421 0.81109 0.0
H951 H 0.79885 0.03595 0.90953 0.0
H952 H 0.80295 0.03574 0.95554 0.0
H953 H 0.68306 0.695 0.78931 0.0
H954 H 0.78055 0.99768 0.99438 0.0
N955 N 0.73418 0.9187 0.91106 0.0
C956 C 0.74254 0.93907 0.88919 0.0
C957 C 0.78065 1.00317 0.9102 0.0
C958 C 0.77106 0.98243 0.93257 0.0
C959 C 0.76557 0.9814 0.88849 0.0
C960 C 0.74676 0.93977 0.93239 0.0
H961 H 0.73772 0.93137 0.0162 0.0
N962 N 0.70828 0.87793 0.95301 0.0
C963 C 0.70192 0.87521 0.99701 0.0
C964 C 0.73369 0.9186 0.95414 0.0
C965 C 0.69093 0.85631 0.97407 0.0
C966 C 0.72951 0.91675 0.99841 0.0
C967 C 0.74522 0.93913 0.97681 0.0
O968 O 0.63497 0.83874 0.92755 0.0
O969 O 0.67537 0.78904 0.90233 0.0
O970 O 0.69172 0.79141 0.85982 0.0
O971 O 0.69059 0.84935 0.87344 0.0
O972 O 0.64737 0.79471 0.93296 0.0
O973 O 0.66292 0.87686 0.89624 0.0
O974 O 0.75263 0.75152 0.90444 0.0
O975 O 0.74124 0.84342 0.9 0.0
O976 O 0.73641 0.84738 0.93989 0.0
O977 O 0.72652 0.78392 0.92933 0.0
O978 O 0.77299 0.83962 0.87091 0.0
O979 O 0.78772 0.80108 0.8801 0.0
C980 C 0.64905 0.76898 0.91866 0.0
C981 C 0.59106 0.84517 0.89886 0.0
C982 C 0.52905 0.84944 0.89157 0.0
C983 C 0.56712 0.86343 0.90343 0.0
C984 C 0.51605 0.81699 0.87494 0.0
C985 C 0.57687 0.81287 0.88231 0.0
C986 C 0.5398 0.7992 0.87031 0.0
C987 C 0.68645 0.82276 0.85615 0.0
C988 C 0.6314 0.86105 0.91073 0.0
C989 C 0.77111 0.98138 0.97715 0.0
C990 C 0.78389 1.00303 0.95505 0.0
C991 C 0.76899 0.86457 0.88483 0.0
C992 C 0.82463 0.78779 0.91086 0.0
C993 C 0.86435 0.80526 0.90074 0.0
C994 C 0.89842 0.81343 0.91561 0.0
C995 C 0.89153 0.80426 0.94084 0.0
C996 C 0.81946 0.7791 0.93609 0.0
C997 C 0.85263 0.78762 0.9509 0.0
C998 C 0.73936 0.81475 0.94476 0.0
C999 C 0.78835 0.77459 0.89477 0.0
H1000 H 0.57849 0.88878 0.916 0.0
H1001 H 0.48696 0.80453 0.86578 0.0
H1002 H 0.59463 0.79845 0.87856 0.0
H1003 H 0.52923 0.77452 0.85734 0.0
H1004 H 0.86835 0.81171 0.88126 0.0
H1005 H 0.91587 0.80842 0.95293 0.0
H1006 H 0.78954 0.76452 0.94434 0.0
H1007 H 0.848 0.78009 0.97023 0.0
H1008 H 0.12588 0.18081 0.07609 0.0
H1009 H 0.11938 0.21142 0.15212 0.0
H1010 H 0.17677 0.20103 0.16213 0.0
H1011 H 0.14645 0.09972 0.09059 0.0
H1012 H 0.17901 0.11016 0.06424 0.0
H1013 H 0.1381 0.12107 0.06323 0.0
H1014 H 0.18946 0.19344 0.0506 0.0
H1015 H 0.2326 0.18624 0.05359 0.0
H1016 H 0.23034 0.22551 0.07079 0.0
H1017 H 0.23231 0.18264 0.1645 0.0
H1018 H 0.2841 0.16213 0.15823 0.0
H1019 H 0.25424 0.14344 0.08093 0.0
C1020 C 0.1361 0.18508 0.09494 0.0
C1021 C 0.11771 0.19713 0.11326 0.0
C1022 C 0.13307 0.20301 0.13755 0.0
C1023 C 0.16552 0.19675 0.14351 0.0
C1024 C 0.18234 0.18433 0.12506 0.0
C1025 C 0.16803 0.17844 0.10128 0.0
C1026 C 0.19073 0.16419 0.08492 0.0
C1027 C 0.16185 0.12124 0.07518 0.0
C1028 C 0.21213 0.19412 0.06373 0.0
C1029 C 0.22089 0.16402 0.10306 0.0
C1030 C 0.21507 0.17505 0.12624 0.0
C1031 C 0.23755 0.17465 0.14636 0.0
C1032 C 0.26697 0.16314 0.14265 0.0
C1033 C 0.27421 0.15293 0.11894 0.0
C1034 C 0.25029 0.15261 0.09904 0.0
H1035 H 0.10772 0.91396 0.41185 0.0
H1036 H 0.11592 0.89123 0.33464 0.0
H1037 H 0.04146 0.84754 0.33286 0.0
H1038 H 0.03788 0.8209 0.42816 0.0
H1039 H 1.00486 0.82939 0.44813 0.0
H1040 H 0.05752 0.86773 0.4446 0.0
H1041 H 0.0424 0.92191 0.42996 0.0
H1042 H 0.98919 0.88702 0.4357 0.0
H1043 H 1.0056 0.91068 0.40602 0.0
H1044 H 0.96768 0.80299 0.33945 0.0
H1045 H 0.89808 0.75794 0.35447 0.0
H1046 H 0.93488 0.80518 0.42804 0.0
C1047 C 0.09362 0.90073 0.39444 0.0
C1048 C 0.11774 0.90595 0.37337 0.0
C1049 C 0.09819 0.88744 0.35104 0.0
C1050 C 0.05584 0.86275 0.3498 0.0
C1051 C 1.03305 0.85702 0.37099 0.0
C1052 C 0.05097 0.87585 0.39285 0.0
C1053 C 1.01917 0.86214 0.41319 0.0
C1054 C 1.03042 0.84386 0.43481 0.0
C1055 C 1.01377 0.89755 0.42171 0.0
C1056 C 0.98135 0.83048 0.3997 0.0
C1057 C 0.99007 0.82934 0.37517 0.0
C1058 C 0.96051 0.8035 0.35863 0.0
C1059 C 0.92105 0.77773 0.36736 0.0
C1060 C 0.91141 0.7769 0.39252 0.0
C1061 C 0.94175 0.80445 0.40882 0.0
H1062 H 0.90894 0.12262 0.17042 0.0
H1063 H 0.91616 0.14179 0.09181 0.0
H1064 H 0.89718 0.07006 0.08522 0.0
H1065 H 0.94991 0.05175 0.16808 0.0
H1066 H 0.9187 0.02198 0.19344 0.0
H1067 H 0.93625 0.07548 0.19193 0.0
H1068 H 0.86094 0.06137 0.19406 0.0
H1069 H 0.84646 1.00903 0.19802 0.0
H1070 H 0.8238 0.02306 0.17399 0.0
H1071 H 0.86791 0.99357 0.08764 0.0
H1072 H 0.83664 0.92098 0.09868 0.0
H1073 H 0.85155 0.95303 0.17583 0.0
C1074 C 0.90664 0.11161 0.15184 0.0
C1075 C 0.91223 0.13699 0.13156 0.0
C1076 C 0.91055 0.12228 0.10753 0.0
C1077 C 0.90015 0.08172 0.10366 0.0
C1078 C 0.89251 0.05671 0.12408 0.0
C1079 C 0.89643 0.07136 0.14772 0.0
C1080 C 0.88667 0.03843 0.16656 0.0
C1081 C 0.92518 0.04745 0.18084 0.0
C1082 C 0.85247 0.03277 0.18416 0.0
C1083 C 0.87308 1.00215 0.14988 0.0
C1084 C 0.87752 1.01336 0.12543 0.0
C1085 C 0.86505 0.98461 0.10671 0.0
C1086 C 0.84733 0.94344 0.11315 0.0
C1087 C 0.84164 0.93127 0.13811 0.0
C1088 C 0.85533 0.96129 0.15659 0.0
H1089 H 0.27948 0.19118 0.3533 0.0
H1090 H 0.24859 0.1371 0.42565 0.0
H1091 H 0.2031 0.16522 0.4321 0.0
H1092 H 0.27424 0.28406 0.36389 0.0
H1093 H 0.25053 0.27854 0.33463 0.0
H1094 H 0.2841 0.25859 0.33925 0.0
H1095 H 0.22324 0.18925 0.32362 0.0
H1096 H 0.19027 0.21039 0.32199 0.0
H1097 H 0.17599 0.16606 0.34049 0.0
H1098 H 0.16321 0.20139 0.43123 0.0
H1099 H 0.12522 0.23632 0.42159 0.0
H1100 H 0.17628 0.26142 0.34799 0.0
C1101 C 0.26377 0.18623 0.37068 0.0
C1102 C 0.26948 0.16445 0.38973 0.0
C1103 C 0.24649 0.15599 0.41156 0.0
C1104 C 0.22028 0.17143 0.41522 0.0
C1105 C 0.21649 0.19423 0.39651 0.0
C1106 C 0.23697 0.20098 0.37446 0.0
C1107 C 0.22408 0.2228 0.35645 0.0
C1108 C 0.26046 0.26336 0.34807 0.0
C1109 C 0.20209 0.19549 0.33433 0.0
C1110 C 0.19484 0.22915 0.37229 0.0
C1111 C 0.19082 0.21225 0.39528 0.0
C1112 C 0.16578 0.21437 0.4132 0.0
C1113 C 0.1441 0.23413 0.40747 0.0
C1114 C 0.14737 0.25151 0.38397 0.0
C1115 C 0.17326 0.24887 0.36621 0.0
H1116 H 0.13799 0.94498 0.14559 0.0
H1117 H 0.15841 0.86732 0.19502 0.0
H1118 H 0.08723 0.81523 0.19172 0.0
H1119 H 0.03631 0.91518 0.16036 0.0
H1120 H 1.01796 0.91075 0.12939 0.0
H1121 H 0.07088 0.94487 0.13612 0.0
H1122 H 0.09157 0.90939 0.10348 0.0
H1123 H 0.03871 0.875 0.09658 0.0
H1124 H 0.07125 0.85542 0.10531 0.0
H1125 H 1.011 0.77776 0.19054 0.0
H1126 H 0.93879 0.74353 0.1786 0.0
H1127 H 0.96728 0.832 0.12106 0.0
C1128 C 0.12787 0.91697 0.15553 0.0
C1129 C 0.15426 0.9126 0.17232 0.0
C1130 C 0.13907 0.87407 0.18386 0.0
C1131 C 0.09835 0.84347 0.18182 0.0
C1132 C 0.07282 0.84987 0.16671 0.0
C1133 C 0.08725 0.88444 0.15255 0.0
C1134 C 0.05331 0.88069 0.13575 0.0
C1135 C 0.04408 0.91492 0.1407 0.0
C1136 C 0.06437 0.8801 0.10867 0.0
C1137 C 1.01769 0.83952 0.14357 0.0
C1138 C 1.02969 0.82322 0.1621 0.0
C1139 C 1.00163 0.78886 0.17506 0.0
C1140 C 0.96055 0.76941 0.16808 0.0
C1141 C 0.94791 0.78245 0.14733 0.0
C1142 C 0.97675 0.81907 0.13552 0.0
H1143 H 0.83242 0.94813 0.33031 0.0
H1144 H 0.81275 0.91022 0.40663 0.0
H1145 H 0.84413 0.98168 0.41951 0.0
H1146 H 0.93086 0.0443 0.34085 0.0
H1147 H 0.9196 0.07101 0.31773 0.0
H1148 H 0.90024 1.01733 0.3147 0.0
H1149 H 0.82943 1.00743 0.30983 0.0
H1150 H 0.84522 0.05979 0.31538 0.0
H1151 H 0.80647 1.02039 0.33427 0.0
H1152 H 0.87649 0.05737 0.42429 0.0
H1153 H 0.90013 0.13053 0.42035 0.0
H1154 H 0.89529 0.11936 0.34116 0.0
C1155 C 0.83492 0.95482 0.34974 0.0
C1156 C 0.82027 0.92331 0.36744 0.0
C1157 C 0.82435 0.93364 0.39269 0.0
C1158 C 0.84213 0.97422 0.40021 0.0
C1159 C 0.85612 1.00442 0.38232 0.0
C1160 C 0.85282 0.99527 0.35759 0.0
C1161 C 0.86842 0.03334 0.34209 0.0
C1162 C 0.90708 0.042 0.32802 0.0
C1163 C 0.83545 0.03015 0.32438 0.0
C1164 C 0.87838 0.06488 0.36195 0.0
C1165 C 0.87258 0.04778 0.38504 0.0
C1166 C 0.88079 0.07098 0.4063 0.0
C1167 C 0.89386 0.11242 0.40393 0.0
C1168 C 0.89761 0.12999 0.38052 0.0
C1169 C 0.89134 0.10624 0.35929 0.0
H1170 H 0.22027 0.14224 0.67852 0.0
H1171 H 0.22963 0.11804 0.60169 0.0
H1172 H 0.19925 0.1597 0.59005 0.0
H1173 H 0.12362 0.14451 0.67255 0.0
H1174 H 0.13966 0.18438 0.69497 0.0
H1175 H 0.15694 0.1483 0.69718 0.0
H1176 H 0.23014 0.20726 0.69819 0.0
H1177 H 0.21518 0.24474 0.69404 0.0
H1178 H 0.25024 0.24201 0.67288 0.0
H1179 H 0.17072 0.20724 0.58667 0.0
H1180 H 0.15174 0.26005 0.5918 0.0
H1181 H 0.16372 0.25568 0.6706 0.0
C1182 C 0.21567 0.14534 0.65922 0.0
C1183 C 0.22739 0.12655 0.64104 0.0
C1184 C 0.2204 0.13138 0.61603 0.0
C1185 C 0.20323 0.15516 0.60922 0.0
C1186 C 0.19274 0.17375 0.6276 0.0
C1187 C 0.19852 0.1689 0.65212 0.0
C1188 C 0.18674 0.19385 0.66826 0.0
C1189 C 0.14953 0.1661 0.68418 0.0
C1190 C 0.2227 0.22378 0.68425 0.0
C1191 C 0.17579 0.21541 0.64894 0.0
C1192 C 0.17812 0.20238 0.62563 0.0
C1193 C 0.16899 0.21769 0.60484 0.0
C1194 C 0.15852 0.24793 0.6079 0.0
C1195 C 0.15779 0.26302 0.6315 0.0
C1196 C 0.16517 0.24544 0.65228 0.0
H1197 H 0.14054 0.9023 0.92288 0.0
H1198 H 0.13684 0.87121 0.84615 0.0
H1199 H 0.0629 0.84649 0.84509 0.0
H1200 H 0.03656 0.82403 0.94386 0.0
H1201 H 0.03445 0.86212 0.96186 0.0
H1202 H 0.08309 0.86698 0.95497 0.0
H1203 H 0.10035 0.93968 0.93827 0.0
H1204 H 0.04845 0.92793 0.94226 0.0
H1205 H 0.07201 0.94198 0.91242 0.0
H1206 H 0.98783 0.81937 0.85363 0.0
H1207 H 0.9197 0.80026 0.86926 0.0
H1208 H 0.97386 0.86061 0.93818 0.0
C1209 C 0.12374 0.8892 0.90612 0.0
C1210 C 0.14375 0.8862 0.88494 0.0
C1211 C 0.12162 0.87204 0.86279 0.0
C1212 C 0.07968 0.85813 0.862 0.0
C1213 C 0.0605 0.86056 0.88325 0.0
C1214 C 0.08196 0.87669 0.90475 0.0
C1215 C 0.05486 0.88032 0.92398 0.0
C1216 C 0.05226 0.85702 0.94755 0.0
C1217 C 0.06981 0.92514 0.92956 0.0
C1218 C 1.01426 0.86066 0.9106 0.0
C1219 C 1.01822 0.84957 0.88712 0.0
C1220 C 0.98451 0.82864 0.87185 0.0
C1221 C 0.9457 0.81813 0.88091 0.0
C1222 C 0.94049 0.82872 0.90508 0.0
C1223 C 0.97588 0.85122 0.91975 0.0
H1224 H 0.81581 0.92707 0.59071 0.0
H1225 H 0.76761 0.92621 0.66289 0.0
H1226 H 0.81614 1.00013 0.6667 0.0
H1227 H 0.9186 0.99461 0.60636 0.0
H1228 H 0.93236 1.0195 0.57691 0.0
H1229 H 0.89175 0.96766 0.57913 0.0
H1230 H 0.84165 0.98622 0.55821 0.0
H1231 H 0.8834 0.03737 0.55514 0.0
H1232 H 0.83742 0.02805 0.57021 0.0
H1233 H 0.8738 0.07409 0.66313 0.0
H1234 H 0.93485 0.13966 0.65311 0.0
H1235 H 0.94203 0.09151 0.58221 0.0
C1236 C 0.815 0.94274 0.60709 0.0
C1237 C 0.7871 0.92152 0.62613 0.0
C1238 C 0.78791 0.94239 0.64778 0.0
C1239 C 0.81544 0.98427 0.65009 0.0
C1240 C 0.84221 1.00457 0.63072 0.0
C1241 C 0.84209 0.98436 0.60962 0.0
C1242 C 0.87564 1.01218 0.59216 0.0
C1243 C 0.9064 0.99762 0.58843 0.0
C1244 C 0.85842 1.01613 0.56748 0.0
C1245 C 0.89427 0.05144 0.60646 0.0
C1246 C 0.87496 0.04655 0.62873 0.0
C1247 C 0.88873 0.07831 0.64556 0.0
C1248 C 0.92336 0.11571 0.63957 0.0
C1249 C 0.94381 0.12132 0.61681 0.0
C1250 C 0.92806 0.08863 0.59997 0.0
H1251 H 0.20347 0.26568 0.84771 0.0
H1252 H 0.16657 0.25801 0.92366 0.0
H1253 H 0.18937 0.2086 0.93193 0.0
H1254 H 0.1686 0.15668 0.84377 0.0
H1255 H 0.20815 0.16387 0.8226 0.0
H1256 H 0.18923 0.19873 0.8226 0.0
H1257 H 0.26277 0.26052 0.83033 0.0
H1258 H 0.27968 0.22429 0.82749 0.0
H1259 H 0.29289 0.25571 0.85422 0.0
H1260 H 0.22121 0.16378 0.93234 0.0
H1261 H 0.25426 0.12323 0.92429 0.0
H1262 H 0.26636 0.15684 0.84735 0.0
C1263 C 0.20066 0.25382 0.86612 0.0
C1264 C 0.18527 0.26708 0.88539 0.0
C1265 C 0.17998 0.24949 0.90895 0.0
C1266 C 0.19251 0.22118 0.91373 0.0
C1267 C 0.20922 0.20996 0.89455 0.0
C1268 C 0.21262 0.22522 0.87109 0.0
C1269 C 0.2294 0.20642 0.85343 0.0
C1270 C 0.19691 0.17985 0.83448 0.0
C1271 C 0.26846 0.23873 0.84064 0.0
C1272 C 0.23788 0.18067 0.87096 0.0
C1273 C 0.22538 0.18254 0.89451 0.0
C1274 C 0.23067 0.16175 0.91391 0.0
C1275 C 0.24939 0.13867 0.90914 0.0
C1276 C 0.263 0.13674 0.8852 0.0
C1277 C 0.2567 0.15789 0.86591 0.0
H1278 H 0.11944 0.84616 0.67008 0.0
H1279 H 0.1369 0.90433 0.59942 0.0
H1280 H 0.06284 0.87839 0.59657 0.0
H1281 H 1.01657 0.75568 0.66045 0.0
H1282 H 1.00211 0.75951 0.69128 0.0
H1283 H 0.05474 0.77712 0.68414 0.0
H1284 H 0.07104 0.84659 0.70347 0.0
H1285 H 1.01775 0.82852 0.70829 0.0
H1286 H 0.04805 0.87372 0.69043 0.0
H1287 H 0.98721 0.84675 0.60167 0.0
H1288 H 0.91633 0.81757 0.61575 0.0
H1289 H 0.94845 0.78532 0.68526 0.0
C1290 C 0.10726 0.8521 0.65368 0.0
C1291 C 0.13319 0.87457 0.63406 0.0
C1292 C 0.11696 0.88468 0.61375 0.0
C1293 C 0.07507 0.87049 0.61216 0.0
C1294 C 0.04999 0.84727 0.63145 0.0
C1295 C 0.06551 0.83859 0.65201 0.0
C1296 C 1.03272 0.81717 0.67139 0.0
C1297 C 1.02622 0.77488 0.67714 0.0
C1298 C 0.04301 0.84305 0.69477 0.0
C1299 C 0.99618 0.81442 0.6583 0.0
C1300 C 1.00686 0.8318 0.63525 0.0
C1301 C 0.97855 0.83328 0.61974 0.0
C1302 C 0.93833 0.81685 0.62803 0.0
C1303 C 0.92655 0.79939 0.65176 0.0
C1304 C 0.95611 0.79804 0.66695 0.0
H1305 H 0.918 0.08897 0.83642 0.0
H1306 H 0.9407 0.12586 0.9128 0.0
H1307 H 0.90064 0.05426 0.92561 0.0
H1308 H 0.81953 1.01659 0.84144 0.0
H1309 H 0.81817 0.97777 0.82193 0.0
H1310 H 0.85498 0.03027 0.81657 0.0
H1311 H 0.91554 1.0194 0.81995 0.0
H1312 H 0.8805 0.96577 0.82312 0.0
H1313 H 0.9197 0.99211 0.84572 0.0
H1314 H 0.85633 0.97925 0.93038 0.0
H1315 H 0.80494 0.90665 0.92676 0.0
H1316 H 0.80748 0.91809 0.8476 0.0
C1317 C 0.91483 0.08194 0.85584 0.0
C1318 C 0.93277 0.11309 0.87361 0.0
C1319 C 0.92793 0.10256 0.89884 0.0
C1320 C 0.9052 0.06196 0.90631 0.0
C1321 C 0.88783 0.03208 0.88835 0.0
C1322 C 0.89244 0.04146 0.86362 0.0
C1323 C 0.86874 1.00362 0.84813 0.0
C1324 C 0.8385 1.0072 0.83106 0.0
C1325 C 0.89787 0.9947 0.83337 0.0
C1326 C 0.84754 0.97209 0.86811 0.0
C1327 C 0.86038 0.98892 0.89113 0.0
C1328 C 0.84582 0.9658 0.91247 0.0
C1329 C 0.81629 0.9247 0.91029 0.0
C1330 C 0.80089 0.90749 0.88702 0.0
C1331 C 0.81792 0.93106 0.86564 0.0
H1332 H 0.38173 0.12973 0.30953 0.0
H1333 H 0.35501 0.22532 0.32539 0.0
H1334 H 0.36048 0.24206 0.28111 0.0
H1335 H 0.45525 0.18453 0.25978 0.0
H1336 H 0.43936 0.13875 0.24246 0.0
H1337 H 0.43613 0.13674 0.27548 0.0
H1338 H 0.36128 0.0831 0.2719 0.0
H1339 H 0.36148 0.08557 0.23905 0.0
H1340 H 0.326 0.0941 0.25638 0.0
H1341 H 0.36491 0.24511 0.23379 0.0
H1342 H 0.36739 0.23359 0.18914 0.0
H1343 H 0.39168 0.13648 0.20545 0.0
C1344 C 0.37735 0.15444 0.30375 0.0
C1345 C 0.36823 0.17643 0.321 0.0
C1346 C 0.36275 0.20853 0.31261 0.0
C1347 C 0.36561 0.21812 0.28744 0.0
C1348 C 0.37447 0.19566 0.27088 0.0
C1349 C 0.3806 0.16469 0.27881 0.0
C1350 C 0.38907 0.14461 0.25745 0.0
C1351 C 0.43254 0.15159 0.25888 0.0
C1352 C 0.35746 0.09915 0.2561 0.0
C1353 C 0.38481 0.16765 0.23617 0.0
C1354 C 0.37708 0.19749 0.24413 0.0
C1355 C 0.37126 0.22198 0.22745 0.0
C1356 C 0.37284 0.21532 0.2021 0.0
C1357 C 0.37972 0.18412 0.19368 0.0
C1358 C 0.3863 0.16056 0.21112 0.0
H1359 H 0.87469 0.7269 0.31518 0.0
H1360 H 0.8067 0.59751 0.32836 0.0
H1361 H 0.81415 0.58534 0.28433 0.0
H1362 H 0.83618 0.72993 0.25873 0.0
H1363 H 0.88408 0.76986 0.24705 0.0
H1364 H 0.87483 0.76511 0.27954 0.0
H1365 H 0.9417 0.76164 0.28377 0.0
H1366 H 0.94771 0.76354 0.25087 0.0
H1367 H 0.9455 0.72211 0.26804 0.0
H1368 H 0.8209 0.5884 0.23709 0.0
H1369 H 0.82652 0.60629 0.19285 0.0
H1370 H 0.8908 0.73354 0.2117 0.0
C1371 C 0.86228 0.69598 0.30896 0.0
C1372 C 0.84024 0.66311 0.32522 0.0
C1373 C 0.82416 0.62312 0.3163 0.0
C1374 C 0.82823 0.616 0.2913 0.0
C1375 C 0.8495 0.64923 0.2756 0.0
C1376 C 0.86694 0.68848 0.28432 0.0
C1377 C 0.88667 0.71911 0.26377 0.0
C1378 C 0.86938 0.74774 0.26224 0.0
C1379 C 0.93316 0.74301 0.2668 0.0
C1380 C 0.87444 0.69124 0.24174 0.0
C1381 C 0.85414 0.65095 0.24887 0.0
C1382 C 0.83758 0.61985 0.23145 0.0
C1383 C 0.84102 0.63021 0.20634 0.0
C1384 C 0.86023 0.67126 0.1989 0.0
C1385 C 0.8774 0.70197 0.21687 0.0
H1386 H 0.89262 0.17833 0.20596 0.0
H1387 H 0.8437 0.25655 0.18983 0.0
H1388 H 0.82799 0.25737 0.23392 0.0
H1389 H 0.82031 0.12009 0.2574 0.0
H1390 H 0.8594 0.11798 0.2749 0.0
H1391 H 0.86152 0.1188 0.24182 0.0
H1392 H 0.9342 0.18275 0.24293 0.0
H1393 H 0.93183 0.18026 0.27594 0.0
H1394 H 0.94157 0.22599 0.26053 0.0
H1395 H 0.82619 0.25716 0.28026 0.0
H1396 H 0.83776 0.25521 0.3249 0.0
H1397 H 0.88699 0.17646 0.31148 0.0
C1398 C 0.8772 0.19432 0.21172 0.0
C1399 C 0.86815 0.21643 0.19451 0.0
C1400 C 0.84971 0.23855 0.2027 0.0
C1401 C 0.84086 0.23926 0.22771 0.0
C1402 C 0.8506 0.21762 0.24438 0.0
C1403 C 0.86806 0.19523 0.2367 0.0
C1404 C 0.87845 0.17732 0.25857 0.0
C1405 C 0.85342 0.13077 0.25814 0.0
C1406 C 0.92427 0.19243 0.25951 0.0
C1407 C 0.86563 0.19439 0.27972 0.0
C1408 C 0.84916 0.21717 0.27113 0.0
C1409 C 0.83816 0.23865 0.28716 0.0
C1410 C 0.8447 0.23733 0.31247 0.0
C1411 C 0.86202 0.21472 0.32156 0.0
C1412 C 0.87229 0.19275 0.30499 0.0
H1413 H 0.17114 0.41213 0.70438 0.0
H1414 H 0.23403 0.34725 0.68592 0.0
H1415 H 0.25022 0.34617 0.72965 0.0
H1416 H 0.24458 0.47246 0.75599 0.0
H1417 H 0.20445 0.47209 0.77386 0.0
H1418 H 0.2026 0.47265 0.74079 0.0
H1419 H 0.13196 0.40914 0.74205 0.0
H1420 H 0.13334 0.40744 0.77488 0.0
H1421 H 0.12489 0.36387 0.75731 0.0
H1422 H 0.25299 0.34542 0.77637 0.0
H1423 H 0.24052 0.34409 0.82113 0.0
H1424 H 0.17587 0.4091 0.80932 0.0
C1425 C 0.1891 0.39848 0.70948 0.0
C1426 C 0.20155 0.38001 0.69151 0.0
C1427 C 0.22471 0.36221 0.69909 0.0
C1428 C 0.234 0.36136 0.72401 0.0
C1429 C 0.22076 0.37925 0.74128 0.0
C1430 C 0.19937 0.39811 0.73428 0.0
C1431 C 0.18761 0.41395 0.75659 0.0
C1432 C 0.21122 0.46055 0.75682 0.0
C1433 C 0.14163 0.3975 0.75775 0.0
C1434 C 0.20176 0.39727 0.77721 0.0
C1435 C 0.22238 0.37884 0.76807 0.0
C1436 C 0.23744 0.36036 0.78368 0.0
C1437 C 0.23048 0.35996 0.80912 0.0
C1438 C 0.20791 0.37712 0.81868 0.0
C1439 C 0.19382 0.39636 0.80248 0.0
H1440 H 0.28687 0.89119 0.81302 0.0
H1441 H 0.1585 0.81693 0.83024 0.0
H1442 H 0.14322 0.8026 0.78606 0.0
H1443 H 0.28145 0.93811 0.76151 0.0
H1444 H 0.32031 0.93512 0.74415 0.0
H1445 H 0.32165 0.93447 0.77699 0.0
H1446 H 0.32205 0.86742 0.77608 0.0
H1447 H 0.32082 0.8679 0.743 0.0
H1448 H 0.28266 0.82464 0.75973 0.0
H1449 H 0.14149 0.80228 0.7392 0.0
H1450 H 0.15364 0.81734 0.69473 0.0
H1451 H 0.28278 0.89302 0.70856 0.0
C1452 C 0.25561 0.87121 0.80755 0.0
C1453 C 0.22386 0.85514 0.82516 0.0
C1454 C 0.18338 0.82924 0.8172 0.0
C1455 C 0.17441 0.82096 0.79208 0.0
C1456 C 0.20634 0.83803 0.77515 0.0
C1457 C 0.24625 0.86206 0.78263 0.0
C1458 C 0.27485 0.87784 0.76075 0.0
C1459 C 0.30104 0.92421 0.76089 0.0
C1460 C 0.30167 0.85827 0.75984 0.0
C1461 C 0.24455 0.86278 0.73986 0.0
C1462 C 0.2053 0.83833 0.7484 0.0
C1463 C 0.17217 0.82118 0.73238 0.0
C1464 C 0.17931 0.82991 0.70715 0.0
C1465 C 0.21907 0.85659 0.6983 0.0
C1466 C 0.25204 0.87265 0.71488 0.0
H1467 H 0.74566 0.86211 0.71478 0.0
H1468 H 0.61759 0.81378 0.69931 0.0
H1469 H 0.60374 0.81283 0.74367 0.0
H1470 H 0.73254 0.80249 0.7635 0.0
H1471 H 0.77337 0.8387 0.78278 0.0
H1472 H 0.77683 0.84458 0.74996 0.0
H1473 H 0.78617 0.91586 0.75218 0.0
H1474 H 0.78565 0.91278 0.78522 0.0
H1475 H 0.75088 0.92436 0.76969 0.0
H1476 H 0.60265 0.81022 0.79022 0.0
H1477 H 0.61479 0.80582 0.83454 0.0
H1478 H 0.74299 0.85449 0.81979 0.0
C1479 C 0.71485 0.85222 0.72069 0.0
C1480 C 0.68274 0.8381 0.70348 0.0
C1481 C 0.6428 0.82509 0.71204 0.0
C1482 C 0.63461 0.82441 0.73726 0.0
C1483 C 0.66674 0.83738 0.7538 0.0
C1484 C 0.70619 0.85155 0.74581 0.0
C1485 C 0.73475 0.86061 0.76734 0.0
C1486 C 0.75562 0.83506 0.76585 0.0
C1487 C 0.76622 0.90611 0.76868 0.0
C1488 C 0.70501 0.84771 0.78864 0.0
C1489 C 0.66602 0.8352 0.7805 0.0
C1490 C 0.63316 0.82057 0.79679 0.0
C1491 C 0.64027 0.81832 0.82193 0.0
C1492 C 0.67981 0.8304 0.83048 0.0
C1493 C 0.71255 0.84558 0.81365 0.0
H1494 H 0.32081 0.97168 0.96515 0.0
H1495 H 0.19316 0.93613 0.96576 0.0
H1496 H 0.20727 0.98798 0.99778 0.0
H1497 H 0.33656 0.98724 0.02974 0.0
H1498 H 0.38715 0.03061 0.02767 0.0
H1499 H 0.3686 0.99238 1.0041 0.0
H1500 H 0.38201 0.04453 0.97043 0.0
H1501 H 0.4024 0.08432 0.99305 0.0
H1502 H 0.36151 0.07786 0.97336 0.0
H1503 H 0.2379 0.04929 0.02725 0.0
H1504 H 0.27796 0.10219 0.05812 0.0
H1505 H 0.38394 0.09263 0.04077 0.0
C1506 C 0.29565 0.97433 0.97233 0.0
C1507 C 0.25578 0.94976 0.96303 0.0
C1508 C 0.22376 0.95419 0.97285 0.0
C1509 C 0.23168 0.98397 0.99079 0.0
C1510 C 0.27169 1.00868 0.99895 0.0
C1511 C 0.30291 1.00329 0.99044 0.0
C1512 C 0.34298 0.03251 1.00269 0.0
C1513 C 0.35984 1.00935 0.01692 0.0
C1514 C 0.37405 0.06151 0.98375 0.0
C1515 C 0.32954 0.05503 0.01974 0.0
C1516 C 0.2886 0.04181 0.01675 0.0
C1517 C 0.26985 0.05951 0.02979 0.0
C1518 C 0.293 0.09007 0.04701 0.0
C1519 C 0.33419 0.10204 0.05151 0.0
C1520 C 0.35271 0.08459 0.03739 0.0
H1521 H 0.83171 0.75655 0.47847 0.0
H1522 H 0.7142 0.66057 0.4537 0.0
H1523 H 0.68012 0.67836 0.4857 0.0
H1524 H 0.80275 0.74146 0.54541 0.0
H1525 H 0.83295 0.79489 0.55185 0.0
H1526 H 0.8481 0.77286 0.52774 0.0
H1527 H 0.84884 0.82537 0.49723 0.0
H1528 H 0.83247 0.84665 0.5211 0.0
H1529 H 0.8034 0.82846 0.49321 0.0
H1530 H 0.65776 0.71196 0.51721 0.0
H1531 H 0.64981 0.74875 0.55227 0.0
H1532 H 0.78104 0.81924 0.55961 0.0
C1533 C 0.79896 0.73849 0.48037 0.0
C1534 C 0.77558 0.70731 0.46335 0.0
C1535 C 0.73271 0.68489 0.46626 0.0
C1536 C 0.71298 0.69485 0.48439 0.0
C1537 C 0.73648 0.72704 0.50004 0.0
C1538 C 0.77859 0.74768 0.49885 0.0
C1539 C 0.79633 0.78052 0.51842 0.0
C1540 C 0.82152 0.77191 0.53695 0.0
C1541 C 0.82177 0.82275 0.50678 0.0
C1542 C 0.75772 0.77561 0.53022 0.0
C1543 C 0.72351 0.7449 0.51914 0.0
C1544 C 0.68439 0.73561 0.52634 0.0
C1545 C 0.68009 0.75693 0.54616 0.0
C1546 C 0.71464 0.78655 0.55895 0.0
C1547 C 0.75393 0.79663 0.55028 0.0
H1548 H 0.08395 0.26413 0.96192 0.0
H1549 H 0.12869 0.39333 0.96426 0.0
H1550 H 0.08041 0.38247 0.9978 0.0
H1551 H 0.98011 0.22812 0.97511 0.0
H1552 H 0.97292 0.18777 0.99546 0.0
H1553 H 1.01102 0.20487 0.97166 0.0
H1554 H 0.06685 0.21939 1.00387 0.0
H1555 H 1.02853 0.20104 0.02755 0.0
H1556 H 0.07266 0.25093 0.02994 0.0
H1557 H 1.02194 0.35679 0.02764 0.0
H1558 H 0.97037 0.32163 0.05981 0.0
H1559 H 0.96838 0.20952 0.0434 0.0
C1560 C 0.08412 0.29022 0.96988 0.0
C1561 C 0.1102 0.32975 0.96029 0.0
C1562 C 0.10946 0.36297 0.97125 0.0
C1563 C 0.0817 0.35695 0.99018 0.0
C1564 C 0.05551 0.31757 0.99861 0.0
C1565 C 0.05755 0.28488 0.98952 0.0
C1566 C 1.02754 0.24606 1.00304 0.0
C1567 C 0.99604 0.21486 0.98525 0.0
C1568 C 0.05025 0.22831 0.01692 0.0
C1569 C 1.0077 0.26189 0.02079 0.0
C1570 C 1.02386 0.30315 0.0174 0.0
C1571 C 1.00982 0.32473 0.03079 0.0
C1572 C 0.98032 0.30438 0.04901 0.0
C1573 C 0.96548 0.26292 0.05441 0.0
C1574 C 0.9786 0.24105 0.03957 0.0
H1575 H 0.27915 0.07737 0.47145 0.0
H1576 H 0.40536 0.10929 0.46507 0.0
H1577 H 0.39434 0.05841 0.49699 0.0
H1578 H 0.27312 0.06147 0.53939 0.0
H1579 H 0.22093 1.02106 0.53768 0.0
H1580 H 0.24039 0.06165 0.51555 0.0
H1581 H 0.21719 1.0085 0.48069 0.0
H1582 H 0.19914 0.96785 0.50272 0.0
H1583 H 0.23601 0.97356 0.47987 0.0
H1584 H 0.36626 0.99708 0.52608 0.0
H1585 H 0.3296 0.94422 0.55741 0.0
H1586 H 0.22327 0.95649 0.54783 0.0
C1587 C 0.30486 0.07472 0.47748 0.0
C1588 C 0.34333 0.09773 0.46596 0.0
C1589 C 0.37597 0.09279 0.47398 0.0
C1590 C 0.36972 0.06339 0.49183 0.0
C1591 C 0.33085 0.0398 0.50195 0.0
C1592 C 0.2994 0.04635 0.49574 0.0
C1593 C 0.26082 1.01785 0.5098 0.0
C1594 C 0.24807 0.04194 0.52661 0.0
C1595 C 0.22626 0.99032 0.49221 0.0
C1596 C 0.27512 0.9936 0.52458 0.0
C1597 C 0.31538 1.00614 0.51942 0.0
C1598 C 0.33487 0.98742 0.53037 0.0
C1599 C 0.31348 0.95676 0.54793 0.0
C1600 C 0.27313 0.94532 0.55476 0.0
C1601 C 0.25366 0.96369 0.54253 0.0
H1602 H 0.77508 0.69876 0.05547 0.0
H1603 H 0.89511 0.80353 0.06485 0.0
H1604 H 0.88094 0.83893 0.0313 0.0
H1605 H 0.77514 0.70647 0.98788 0.0
H1606 H 0.72124 0.68804 0.98686 0.0
H1607 H 0.74203 0.67177 0.01106 0.0
H1608 H 0.70905 0.69661 0.0432 0.0
H1609 H 0.68905 0.71386 0.01909 0.0
H1610 H 0.72088 0.74866 0.04253 0.0
H1611 H 0.84982 0.86477 0.99868 0.0
H1612 H 0.81083 0.87359 0.96511 0.0
H1613 H 0.71372 0.74961 0.97526 0.0
C1614 C 0.79863 0.72891 0.05012 0.0
C1615 C 0.83625 0.74849 0.06266 0.0
C1616 C 0.86632 0.78789 0.05524 0.0
C1617 C 0.8583 0.80831 0.0364 0.0
C1618 C 0.82033 0.78855 0.02484 0.0
C1619 C 0.79153 0.74918 0.03096 0.0
C1620 C 0.75379 0.73387 0.01517 0.0
C1621 C 0.7477 0.69791 0.9993 0.0
C1622 C 0.71597 0.72259 0.03095 0.0
C1623 C 0.76524 0.771 0.99956 0.0
C1624 C 0.80349 0.80252 1.00557 0.0
C1625 C 0.82001 0.84009 0.99378 0.0
C1626 C 0.79751 0.84502 0.97488 0.0
C1627 C 0.75928 0.81235 0.96763 0.0
C1628 C 0.74283 0.77516 0.98048 0.0
H1629 H 0.07396 0.35024 0.55108 0.0
H1630 H 0.11817 0.26544 0.55087 0.0
H1631 H 0.0691 0.22617 0.51785 0.0
H1632 H 0.96953 0.28098 0.53965 0.0
H1633 H 0.96241 0.3141 0.51924 0.0
H1634 H 1.00066 0.3352 0.54285 0.0
H1635 H 0.05611 0.3762 0.5103 0.0
H1636 H 1.01791 0.35591 0.48667 0.0
H1637 H 0.06207 0.35019 0.48442 0.0
H1638 H 1.01015 0.19322 0.48619 0.0
H1639 H 0.9583 0.17796 0.45391 0.0
H1640 H 0.95777 0.28801 0.47229 0.0
C1641 C 0.07366 0.32364 0.5439 0.0
C1642 C 0.09987 0.31082 0.55375 0.0
C1643 C 0.09868 0.27606 0.5436 0.0
C1644 C 0.07053 0.25332 0.52498 0.0
C1645 C 0.04431 0.26621 0.51616 0.0
C1646 C 0.04663 0.30134 0.52485 0.0
C1647 C 1.01684 0.31014 0.51146 0.0
C1648 C 0.98551 0.3101 0.52938 0.0
C1649 C 0.03959 0.35049 0.49737 0.0
C1650 C 0.99693 0.2743 0.49402 0.0
C1651 C 1.01252 0.24877 0.4973 0.0
C1652 C 0.99803 0.21323 0.48349 0.0
C1653 C 0.96812 0.20444 0.46539 0.0
C1654 C 0.95336 0.23131 0.4609 0.0
C1655 C 0.96786 0.26647 0.47563 0.0
H1656 H 0.64162 0.16855 0.13774 0.0
H1657 H 0.62094 0.10462 0.0687 0.0
H1658 H 0.55301 0.09744 0.06576 0.0
H1659 H 0.53915 0.11135 0.16076 0.0
H1660 H 0.53781 0.154 0.17388 0.0
H1661 H 0.58553 0.15492 0.17116 0.0
H1662 H 0.61627 0.22183 0.14627 0.0
H1663 H 0.56902 0.22163 0.1496 0.0
H1664 H 0.58991 0.22442 0.11947 0.0
H1665 H 0.48569 0.09358 0.07084 0.0
H1666 H 0.42924 0.1063 0.0793 0.0
H1667 H 0.49241 0.17554 0.14372 0.0
C1668 C 0.62314 0.15395 0.12175 0.0
C1669 C 0.6368 0.137 0.10347 0.0
C1670 C 0.61127 0.11771 0.08298 0.0
C1671 C 0.57238 0.11313 0.08123 0.0
C1672 C 0.55903 0.1284 0.09998 0.0
C1673 C 0.58393 0.14945 0.11952 0.0
C1674 C 0.56222 0.16426 0.13651 0.0
C1675 C 0.55582 0.14498 0.1621 0.0
C1676 C 0.58575 0.2108 0.13804 0.0
C1677 C 0.52169 0.14857 0.1233 0.0
C1678 C 0.52023 0.1271 0.10258 0.0
C1679 C 0.4864 0.11014 0.08712 0.0
C1680 C 0.45407 0.11696 0.09226 0.0
C1681 C 0.45535 0.1402 0.1128 0.0
C1682 C 0.48963 0.15593 0.12858 0.0
H1683 H 0.6912 0.59198 0.43776 0.0
H1684 H 0.72595 0.58572 0.363 0.0
H1685 H 0.66302 0.51851 0.3582 0.0
H1686 H 0.65646 0.49321 0.45344 0.0
H1687 H 0.61473 0.48703 0.47232 0.0
H1688 H 0.65878 0.53648 0.46838 0.0
H1689 H 0.61381 0.56479 0.45244 0.0
H1690 H 0.56927 0.51566 0.45689 0.0
H1691 H 0.57945 0.53997 0.42727 0.0
H1692 H 0.5986 0.44641 0.36444 0.0
H1693 H 0.53785 0.38313 0.37908 0.0
H1694 H 0.54846 0.4392 0.44992 0.0
C1695 C 0.6847 0.57723 0.42004 0.0
C1696 C 0.7127 0.59461 0.40051 0.0
C1697 C 0.70415 0.57359 0.37791 0.0
C1698 C 0.66868 0.53518 0.37518 0.0
C1699 C 0.64222 0.51829 0.39523 0.0
C1700 C 0.64969 0.53932 0.41706 0.0
C1701 C 0.61833 0.51456 0.4364 0.0
C1702 C 0.63829 0.50741 0.45895 0.0
C1703 C 0.59374 0.53494 0.44367 0.0
C1704 C 0.5924 0.47561 0.42247 0.0
C1705 C 0.60629 0.47801 0.39872 0.0
C1706 C 0.58738 0.44465 0.38293 0.0
C1707 C 0.55311 0.4086 0.39147 0.0
C1708 C 0.53795 0.40607 0.41561 0.0
C1709 C 0.55856 0.44013 0.43122 0.0
H1710 H 0.91713 0.3397 0.07875 0.0
H1711 H 0.90829 0.31808 0.1571 0.0
H1712 H 0.9152 0.38558 0.16418 0.0
H1713 H 0.99116 0.44982 0.08147 0.0
H1714 H 0.96769 0.45966 0.05572 0.0
H1715 H 0.96621 0.41183 0.05807 0.0
H1716 H 0.88743 0.37494 0.0544 0.0
H1717 H 0.8889 0.42276 0.05291 0.0
H1718 H 0.85873 0.38625 0.07616 0.0
H1719 H 0.91682 0.45408 0.16171 0.0
H1720 H 0.9192 0.51826 0.15035 0.0
H1721 H 0.92678 0.49315 0.07353 0.0
C1722 C 0.91771 0.34969 0.09743 0.0
C1723 C 0.91335 0.32434 0.11742 0.0
C1724 C 0.91292 0.33769 0.14159 0.0
C1725 C 0.91644 0.37581 0.14572 0.0
C1726 C 0.92024 0.4 0.12547 0.0
C1727 C 0.92147 0.38754 0.10181 0.0
C1728 C 0.92448 0.41814 0.08304 0.0
C1729 C 0.96478 0.43591 0.06873 0.0
C1730 C 0.88769 0.39939 0.06561 0.0
C1731 C 0.92377 0.44952 0.09966 0.0
C1732 C 0.92136 0.43876 0.12409 0.0
C1733 C 0.91912 0.46287 0.14263 0.0
C1734 C 0.92011 0.4991 0.13601 0.0
C1735 C 0.92349 0.51101 0.11107 0.0
C1736 C 0.92491 0.48541 0.0928 0.0
H1737 H 0.45818 0.12799 0.35738 0.0
H1738 H 0.44583 0.15917 0.43205 0.0
H1739 H 0.50925 0.16065 0.44345 0.0
H1740 H 0.50175 0.06232 0.37457 0.0
H1741 H 0.53457 0.07817 0.34805 0.0
H1742 H 0.48641 0.07657 0.34677 0.0
H1743 H 0.52456 0.15196 0.33314 0.0
H1744 H 0.57281 0.15397 0.33543 0.0
H1745 H 0.56405 0.18938 0.35245 0.0
H1746 H 0.57813 0.16655 0.44575 0.0
H1747 H 0.6414 0.1636 0.44071 0.0
H1748 H 0.60837 0.12446 0.36545 0.0
C1749 C 0.46829 0.13382 0.37627 0.0
C1750 C 0.44643 0.14233 0.39403 0.0
C1751 C 0.46121 0.15111 0.4184 0.0
C1752 C 0.4976 0.1526 0.42496 0.0
C1753 C 0.519 0.14502 0.40697 0.0
C1754 C 0.50439 0.13466 0.38328 0.0
C1755 C 0.53347 0.12776 0.36758 0.0
C1756 C 0.51281 0.08357 0.35872 0.0
C1757 C 0.54967 0.15755 0.34587 0.0
C1758 C 0.56703 0.13677 0.386 0.0
C1759 C 0.55825 0.14719 0.40852 0.0
C1760 C 0.58513 0.15804 0.42826 0.0
C1761 C 0.62123 0.1568 0.42518 0.0
C1762 C 0.63001 0.14445 0.40265 0.0
C1763 C 0.60264 0.13462 0.38277 0.0
H1764 H 0.58523 0.44466 0.07912 0.0
H1765 H 0.56279 0.41093 0.1559 0.0
H1766 H 0.62673 0.47414 0.16681 0.0
H1767 H 0.69407 0.48914 0.08022 0.0
H1768 H 0.70242 0.52844 0.05866 0.0
H1769 H 0.65586 0.48035 0.05766 0.0
H1770 H 0.61464 0.51739 0.06181 0.0
H1771 H 0.66118 0.56555 0.0632 0.0
H1772 H 0.62414 0.55077 0.08749 0.0
H1773 H 0.6944 0.54549 0.16876 0.0
H1774 H 0.7591 0.61011 0.16088 0.0
H1775 H 0.73466 0.59477 0.0829 0.0
C1776 C 0.59369 0.45032 0.09829 0.0
C1777 C 0.56857 0.42256 0.11664 0.0
C1778 C 0.58145 0.43129 0.14143 0.0
C1779 C 0.61762 0.46746 0.1478 0.0
C1780 C 0.64093 0.49473 0.1292 0.0
C1781 C 0.62943 0.48604 0.10489 0.0
C1782 C 0.65931 0.51952 0.08808 0.0
C1783 C 0.67909 0.5034 0.0701 0.0
C1784 C 0.63856 0.53947 0.07434 0.0
C1785 C 0.68985 0.54849 0.10653 0.0
C1786 C 0.67881 0.53426 0.13026 0.0
C1787 C 0.70304 0.5566 0.15019 0.0
C1788 C 0.73962 0.59352 0.14561 0.0
C1789 C 0.75167 0.60781 0.12129 0.0
C1790 C 0.72606 0.58489 0.10171 0.0
H1791 H 0.88571 0.46943 0.45087 0.0
H1792 H 0.88417 0.50062 0.37452 0.0
H1793 H 0.88846 0.4403 0.36191 0.0
H1794 H 0.95815 0.436 0.44397 0.0
H1795 H 0.93358 0.39592 0.46627 0.0
H1796 H 0.9298 0.44097 0.46895 0.0
H1797 H 0.851 0.39732 0.46908 0.0
H1798 H 0.85457 0.35217 0.46678 0.0
H1799 H 0.82565 0.36198 0.44443 0.0
H1800 H 0.89456 0.3755 0.35823 0.0
H1801 H 0.8953 0.31125 0.36409 0.0
H1802 H 0.89388 0.3253 0.44286 0.0
C1803 C 0.88639 0.46379 0.43144 0.0
C1804 C 0.88487 0.49006 0.41368 0.0
C1805 C 0.88501 0.48087 0.38848 0.0
C1806 C 0.88785 0.44686 0.38118 0.0
C1807 C 0.89041 0.42225 0.39928 0.0
C1808 C 0.88931 0.43029 0.42391 0.0
C1809 C 0.89185 0.3993 0.43998 0.0
C1810 C 0.93065 0.41925 0.45572 0.0
C1811 C 0.85348 0.37633 0.456 0.0
C1812 C 0.89404 0.37205 0.42066 0.0
C1813 C 0.89368 0.38579 0.39722 0.0
C1814 C 0.895 0.36474 0.37654 0.0
C1815 C 0.89577 0.32846 0.38 0.0
C1816 C 0.8954 0.31382 0.40394 0.0
C1817 C 0.89475 0.33616 0.42437 0.0
H1818 H 0.1592 0.61096 0.56192 0.0
H1819 H 0.17694 0.65306 0.63711 0.0
H1820 H 0.17624 0.59038 0.65053 0.0
H1821 H 0.09174 0.50611 0.57418 0.0
H1822 H 0.11261 0.48832 0.55082 0.0
H1823 H 0.1149 0.53636 0.54715 0.0
H1824 H 0.19317 0.57301 0.54193 0.0
H1825 H 0.1912 0.52506 0.54484 0.0
H1826 H 0.22347 0.56641 0.56489 0.0
H1827 H 0.16991 0.51924 0.65545 0.0
H1828 H 0.16891 0.45392 0.65044 0.0
H1829 H 0.15837 0.4616 0.57178 0.0
C1830 C 0.16331 0.60718 0.5812 0.0
C1831 C 0.16819 0.63699 0.59848 0.0
C1832 C 0.17359 0.63088 0.62353 0.0
C1833 C 0.1728 0.59513 0.63131 0.0
C1834 C 0.16697 0.56587 0.6138 0.0
C1835 C 0.16308 0.57208 0.58918 0.0
C1836 C 0.15842 0.53697 0.57374 0.0
C1837 C 0.11696 0.51569 0.5607 0.0
C1838 C 0.19367 0.55122 0.55527 0.0
C1839 C 0.16057 0.50999 0.59336 0.0
C1840 C 0.16473 0.52655 0.61647 0.0
C1841 C 0.16683 0.50629 0.63737 0.0
C1842 C 0.16587 0.469 0.63442 0.0
C1843 C 0.16304 0.45248 0.61075 0.0
C1844 C 0.16016 0.47334 0.59012 0.0
H1845 H 0.33742 0.88105 0.86965 0.0
H1846 H 0.34405 0.90814 0.94718 0.0
H1847 H 0.41056 0.91178 0.94973 0.0
H1848 H 0.37212 0.81453 0.87428 0.0
H1849 H 0.40203 0.82828 0.84653 0.0
H1850 H 0.35981 0.83691 0.84899 0.0
H1851 H 0.40688 0.91303 0.83917 0.0
H1852 H 0.44931 0.90458 0.83615 0.0
H1853 H 0.45218 0.94247 0.85711 0.0
H1854 H 0.47019 0.90142 0.9458 0.0
H1855 H 0.51902 0.87918 0.93556 0.0
H1856 H 0.47576 0.85832 0.86027 0.0
C1857 C 0.35407 0.88993 0.88677 0.0
C1858 C 0.33639 0.89615 0.90803 0.0
C1859 C 0.35774 0.90481 0.93054 0.0
C1860 C 0.39551 0.90674 0.93217 0.0
C1861 C 0.41165 0.89924 0.91118 0.0
C1862 C 0.39191 0.8914 0.8888 0.0
C1863 C 0.41378 0.87985 0.86982 0.0
C1864 C 0.38522 0.83737 0.8593 0.0
C1865 C 0.4316 0.91188 0.84935 0.0
C1866 C 0.4474 0.88037 0.88535 0.0
C1867 C 0.44601 0.8924 0.90903 0.0
C1868 C 0.47212 0.89277 0.92716 0.0
C1869 C 0.50008 0.88018 0.92109 0.0
C1870 C 0.50193 0.86695 0.89704 0.0
C1871 C 0.47539 0.86786 0.87891 0.0
H1872 H 0.57137 0.70339 0.66059 0.0
H1873 H 0.63805 0.72201 0.59279 0.0
H1874 H 0.58232 0.65734 0.57674 0.0
H1875 H 0.52751 0.59102 0.66218 0.0
H1876 H 0.48041 0.58264 0.67542 0.0
H1877 H 0.52726 0.62889 0.68181 0.0
H1878 H 0.49413 0.66986 0.66631 0.0
H1879 H 0.44776 0.62373 0.6591 0.0
H1880 H 0.47377 0.66146 0.63563 0.0
H1881 H 0.51658 0.59464 0.56652 0.0
H1882 H 0.44993 0.53188 0.56475 0.0
H1883 H 0.42523 0.55041 0.63993 0.0
C1884 C 0.57458 0.69319 0.64261 0.0
C1885 C 0.60929 0.71764 0.62794 0.0
C1886 C 0.61204 0.7038 0.60434 0.0
C1887 C 0.58037 0.6671 0.59508 0.0
C1888 C 0.54604 0.64436 0.6097 0.0
C1889 C 0.5433 0.65629 0.6332 0.0
C1890 C 0.50288 0.62611 0.64501 0.0
C1891 C 0.50993 0.60596 0.66744 0.0
C1892 C 0.47819 0.64653 0.65192 0.0
C1893 C 0.48275 0.59594 0.6242 0.0
C1894 C 0.50832 0.60734 0.60402 0.0
C1895 C 0.49661 0.58514 0.58234 0.0
C1896 C 0.45853 0.54959 0.58148 0.0
C1897 C 0.43229 0.53597 0.6022 0.0
C1898 C 0.44434 0.56009 0.62372 0.0
H1899 H 0.16016 0.61565 0.86768 0.0
H1900 H 0.16461 0.62388 0.94702 0.0
H1901 H 0.16705 0.56048 0.94949 0.0
H1902 H 0.09651 0.50854 0.86396 0.0
H1903 H 0.12197 0.50136 0.8382 0.0
H1904 H 0.12293 0.54877 0.84192 0.0
H1905 H 0.20183 0.58802 0.84103 0.0
H1906 H 0.20098 0.5408 0.83665 0.0
H1907 H 0.22916 0.5735 0.86182 0.0
H1908 H 0.16384 0.49427 0.94386 0.0
H1909 H 0.1656 0.43373 0.93033 0.0
H1910 H 0.16548 0.46708 0.85438 0.0
C1911 C 0.16296 0.60463 0.88546 0.0
C1912 C 0.16312 0.62506 0.90722 0.0
C1913 C 0.16538 0.60911 0.93022 0.0
C1914 C 0.16633 0.57292 0.93178 0.0
C1915 C 0.16503 0.55286 0.91013 0.0
C1916 C 0.16422 0.56839 0.88735 0.0
C1917 C 0.163 0.5403 0.86706 0.0
C1918 C 0.12377 0.52379 0.85189 0.0
C1919 C 0.20101 0.56195 0.85067 0.0
C1920 C 0.16313 0.50671 0.88204 0.0
C1921 C 0.16368 0.51445 0.90685 0.0
C1922 C 0.1634 0.48791 0.92448 0.0
C1923 C 0.16382 0.45318 0.91662 0.0
C1924 C 0.16442 0.44492 0.89135 0.0
C1925 C 0.16402 0.47212 0.87382 0.0
H1926 H 0.35717 0.89671 0.65704 0.0
H1927 H 0.31124 0.88949 0.58348 0.0
H1928 H 0.37165 0.891 0.56629 0.0
H1929 H 0.46728 0.96282 0.64099 0.0
H1930 H 0.4832 0.93711 0.6621 0.0
H1931 H 0.43826 0.94017 0.66851 0.0
H1932 H 0.39665 0.8619 0.67233 0.0
H1933 H 0.4412 0.85859 0.66528 0.0
H1934 H 0.39588 0.83112 0.64701 0.0
H1935 H 0.433 0.88727 0.55681 0.0
H1936 H 0.49653 0.88487 0.55512 0.0
H1937 H 0.50539 0.8931 0.63447 0.0
C1938 C 0.36068 0.89676 0.63731 0.0
C1939 C 0.33036 0.89512 0.62147 0.0
C1940 C 0.33503 0.89329 0.59583 0.0
C1941 C 0.36903 0.89337 0.58592 0.0
C1942 C 0.39816 0.89466 0.60189 0.0
C1943 C 0.39481 0.8968 0.62703 0.0
C1944 C 0.43026 0.89651 0.63986 0.0
C1945 C 0.4563 0.93653 0.65369 0.0
C1946 C 0.41507 0.85984 0.65715 0.0
C1947 C 0.45326 0.89276 0.61801 0.0
C1948 C 0.43394 0.89184 0.59634 0.0
C1949 C 0.44859 0.88824 0.57362 0.0
C1950 C 0.48455 0.88664 0.57284 0.0
C1951 C 0.50571 0.88851 0.59461 0.0
C1952 C 0.48953 0.89106 0.61758 0.0
H1953 H 0.59797 0.7289 0.87953 0.0
H1954 H 0.61836 0.71797 0.9566 0.0
H1955 H 0.55239 0.65444 0.9592 0.0
H1956 H 0.49925 0.70336 0.88606 0.0
H1957 H 0.47913 0.67428 0.85832 0.0
H1958 H 0.53197 0.71268 0.85988 0.0
H1959 H 0.55456 0.66141 0.84865 0.0
H1960 H 0.50175 0.62272 0.84588 0.0
H1961 H 0.53489 0.61495 0.86591 0.0
H1962 H 0.48175 0.59732 0.95525 0.0
H1963 H 0.40893 0.5533 0.94584 0.0
H1964 H 0.43022 0.60246 0.87199 0.0
C1965 C 0.58917 0.71194 0.89656 0.0
C1966 C 0.61393 0.72726 0.91766 0.0
C1967 C 0.60033 0.7059 0.94011 0.0
C1968 C 0.56293 0.66977 0.94174 0.0
C1969 C 0.53874 0.65564 0.92085 0.0
C1970 C 0.55115 0.67598 0.89865 0.0
C1971 C 0.51669 0.65727 0.88009 0.0
C1972 C 0.5061 0.68878 0.87056 0.0
C1973 C 0.52763 0.63794 0.85887 0.0
C1974 C 0.48257 0.625 0.89576 0.0
C1975 C 0.49649 0.62374 0.91894 0.0
C1976 C 0.47058 0.59761 0.93704 0.0
C1977 C 0.4292 0.57256 0.9315 0.0
C1978 C 0.41371 0.57418 0.90818 0.0
C1979 C 0.44108 0.60045 0.88999 0.0
loop_
_geom_bond_atom_site_label_1
_geom_bond_atom_site_label_2
_geom_bond_distance
_geom_bond_site_symmetry_2
_ccdc_geom_bond_type
Tb0 N31 2.660 . S
Tb0 N38 2.600 . S
Tb0 O44 2.546 . S
Tb0 O45 2.610 . S
Tb0 O47 2.320 . S
Tb0 O48 2.552 . S
Tb0 O49 2.413 . S
Tb0 O51 2.362 . S
Tb0 O52 2.421 . S
Tb0 C64 2.833 . S
C1 C4 1.432 . S
C1 C5 1.414 . S
C1 N8 1.359 . S
C2 C4 1.417 . S
C2 C6 1.432 . S
C2 C14 1.410 . S
C3 C5 1.444 . S
C3 C6 1.317 . S
C3 H26 0.929 1_545 S
C4 C1 1.432 . S
C4 C2 1.417 . S
C4 N12 1.360 . S
C5 C1 1.414 . S
C5 C3 1.444 . S
C5 C10 1.385 . S
C6 C2 1.432 . S
C6 C3 1.317 . S
C6 H18 0.930 1_545 S
C7 C9 1.392 . S
C7 C10 1.370 . S
C7 H19 0.931 . S
N8 C1 1.359 . S
N8 C9 1.327 . S
N8 Tb11 2.600 . S
C9 C7 1.392 . S
C9 N8 1.327 . S
C9 H16 0.930 . S
C10 C5 1.385 . S
C10 C7 1.370 . S
C10 H29 0.930 . S
Tb11 N8 2.600 . S
Tb11 N12 2.660 . S
Tb11 O45 2.362 . S
Tb11 O46 2.421 . S
Tb11 O50 2.546 . S
Tb11 O51 2.610 . S
Tb11 O53 2.320 . S
Tb11 O54 2.552 . S
Tb11 O55 2.413 . S
Tb11 C75 2.833 . S
N12 C4 1.360 . S
N12 Tb11 2.660 . S
N12 C13 1.305 . S
C13 N12 1.305 . S
C13 C15 1.407 . S
C13 H20 0.930 . S
C14 C2 1.410 . S
C14 C15 1.345 . S
C14 H22 0.930 . S
C15 C13 1.407 . S
C15 C14 1.345 . S
C15 H17 0.930 . S
H16 C9 0.930 . S
H17 C15 0.930 . S
H18 C6 0.930 1_565 S
H19 C7 0.931 . S
H20 C13 0.930 . S
H21 C35 0.930 . S
H22 C14 0.930 . S
H23 C41 0.930 . S
H24 C32 0.930 . S
H25 C39 0.931 . S
H26 C3 0.929 1_565 S
H27 C33 0.930 . S
H28 C66 0.930 . S
H29 C10 0.930 . S
H30 C65 0.929 . S
N31 Tb0 2.660 . S
N31 C32 1.305 . S
N31 C36 1.360 . S
C32 H24 0.930 . S
C32 N31 1.305 . S
C32 C35 1.407 . S
C33 H27 0.930 . S
C33 C34 1.410 . S
C33 C35 1.345 . S
C34 C33 1.410 . S
C34 C36 1.417 . S
C34 C66 1.432 . S
C35 H21 0.930 . S
C35 C32 1.407 . S
C35 C33 1.345 . S
C36 N31 1.360 . S
C36 C34 1.417 . S
C36 C40 1.432 . S
H37 C42 0.930 . S
N38 Tb0 2.600 . S
N38 C40 1.359 . S
N38 C41 1.327 . S
C39 H25 0.931 . S
C39 C41 1.392 . S
C39 C42 1.370 . S
C40 C36 1.432 . S
C40 N38 1.359 . S
C40 C43 1.414 . S
C41 H23 0.930 . S
C41 N38 1.327 . S
C41 C39 1.392 . S
C42 H37 0.930 . S
C42 C39 1.370 . S
C42 C43 1.385 . S
C43 C40 1.414 . S
C43 C42 1.385 . S
C43 C65 1.444 . S
O44 Tb0 2.546 . S
O44 C64 1.251 . S
O45 Tb0 2.610 . S
O45 Tb11 2.362 . S
O45 C56 1.283 . S
O46 Tb11 2.421 . S
O46 C63 1.262 . S
O47 Tb0 2.320 . S
O47 C63 1.260 . S
O48 Tb0 2.552 . S
O48 C56 1.243 . S
O49 Tb0 2.413 . S
O49 C64 1.256 . S
O50 Tb11 2.546 . S
O50 C75 1.251 . S
O51 Tb0 2.362 . S
O51 Tb11 2.610 . S
O51 C67 1.283 . S
O52 Tb0 2.421 . S
O52 C74 1.262 . S
O53 Tb11 2.320 . S
O53 C74 1.260 . S
O54 Tb11 2.552 . S
O54 C67 1.243 . S
O55 Tb11 2.413 . S
O55 C75 1.256 . S
C56 O45 1.283 . S
C56 O48 1.243 . S
C57 C59 1.382 . S
C57 C61 1.393 . S
C57 C64 1.500 . S
C58 C59 1.400 . S
C58 C60 1.384 . S
C59 C57 1.382 . S
C59 C58 1.400 . S
C59 H76 0.930 . S
C60 C58 1.384 . S
C60 C62 1.392 . S
C60 H77 0.931 . S
C61 C57 1.393 . S
C61 C62 1.401 . S
C61 H78 0.930 . S
C62 C60 1.392 . S
C62 C61 1.401 . S
C62 H79 0.930 . S
C63 O46 1.262 . S
C63 O47 1.260 . S
C64 Tb0 2.833 . S
C64 O44 1.251 . S
C64 O49 1.256 . S
C64 C57 1.500 . S
C65 H30 0.929 . S
C65 C43 1.444 . S
C65 C66 1.317 . S
C66 H28 0.930 . S
C66 C34 1.432 . S
C66 C65 1.317 . S
C67 O51 1.283 . S
C67 O54 1.243 . S
C68 C69 1.382 . S
C68 C72 1.393 . S
C68 C75 1.500 1_565 S
C69 C68 1.382 . S
C69 C70 1.400 . S
C69 H80 0.930 . S
C70 C69 1.400 . S
C70 C71 1.384 . S
C71 C70 1.384 . S
C71 C73 1.392 . S
C71 H81 0.931 . S
C72 C68 1.393 . S
C72 C73 1.401 . S
C72 H82 0.930 . S
C73 C71 1.392 . S
C73 C72 1.401 . S
C73 H83 0.930 . S
C74 O52 1.262 . S
C74 O53 1.260 . S
C75 Tb11 2.833 . S
C75 O50 1.251 . S
C75 O55 1.256 . S
C75 C68 1.500 1_545 S
H76 C59 0.930 . S
H77 C60 0.931 . S
H78 C61 0.930 . S
H79 C62 0.930 . S
H80 C69 0.930 . S
H81 C71 0.931 . S
H82 C72 0.930 . S
H83 C73 0.930 . S
Tb84 N115 2.660 . S
Tb84 N122 2.600 . S
Tb84 O128 2.546 . S
Tb84 O129 2.610 . S
Tb84 O131 2.320 . S
Tb84 O132 2.552 . S
Tb84 O133 2.413 . S
Tb84 O135 2.362 . S
Tb84 O136 2.421 . S
Tb84 C148 2.833 . S
C85 C88 1.432 . S
C85 C89 1.414 . S
C85 N92 1.359 . S
C86 C88 1.417 . S
C86 C90 1.432 1_655 S
C86 C98 1.415 . S
C87 C89 1.444 1_455 S
C87 C90 1.317 . S
C87 H110 0.929 . S
C88 C85 1.432 . S
C88 C86 1.417 . S
C88 N96 1.360 . S
C89 C85 1.414 . S
C89 C87 1.444 1_655 S
C89 C94 1.385 . S
C90 C86 1.432 1_455 S
C90 C87 1.317 . S
C90 H102 0.930 . S
C91 C93 1.392 . S
C91 C94 1.370 . S
C91 H103 0.931 . S
N92 C85 1.359 . S
N92 C93 1.327 . S
N92 Tb95 2.600 . S
C93 C91 1.392 . S
C93 N92 1.327 . S
C93 H100 0.930 . S
C94 C89 1.385 . S
C94 C91 1.370 . S
C94 H113 0.930 . S
Tb95 N92 2.600 . S
Tb95 N96 2.660 . S
Tb95 O129 2.362 . S
Tb95 O130 2.421 . S
Tb95 O134 2.546 . S
Tb95 O135 2.610 . S
Tb95 O137 2.320 . S
Tb95 O138 2.552 . S
Tb95 O139 2.413 . S
Tb95 C159 2.833 . S
N96 C88 1.360 . S
N96 Tb95 2.660 . S
N96 C97 1.305 . S
C97 N96 1.305 . S
C97 C99 1.407 . S
C97 H104 0.930 . S
C98 C86 1.415 . S
C98 C99 1.364 . S
C98 H106 0.907 1_655 S
C99 C97 1.407 . S
C99 C98 1.364 . S
C99 H101 0.930 . S
H100 C93 0.930 . S
H101 C99 0.930 . S
H102 C90 0.930 . S
H103 C91 0.931 . S
H104 C97 0.930 . S
H105 C119 0.930 . S
H106 C98 0.907 1_455 S
H107 C125 0.930 . S
H108 C116 0.930 . S
H109 C123 0.931 . S
H110 C87 0.929 . S
H111 C117 0.930 . S
H112 C150 0.930 . S
H113 C94 0.930 . S
H114 C149 0.929 . S
N115 Tb84 2.660 . S
N115 C116 1.305 . S
N115 C120 1.360 . S
C116 H108 0.930 . S
C116 N115 1.305 . S
C116 C119 1.407 . S
C117 H111 0.930 . S
C117 C118 1.410 . S
C117 C119 1.345 . S
C118 C117 1.410 . S
C118 C120 1.417 . S
C118 C150 1.432 . S
C119 H105 0.930 . S
C119 C116 1.407 . S
C119 C117 1.345 . S
C120 N115 1.360 . S
C120 C118 1.417 . S
C120 C124 1.432 . S
H121 C126 0.930 . S
N122 Tb84 2.600 . S
N122 C124 1.359 . S
N122 C125 1.327 . S
C123 H109 0.931 . S
C123 C125 1.392 . S
C123 C126 1.370 . S
C124 C120 1.432 . S
C124 N122 1.359 . S
C124 C127 1.414 . S
C125 H107 0.930 . S
C125 N122 1.327 . S
C125 C123 1.392 . S
C126 H121 0.930 . S
C126 C123 1.370 . S
C126 C127 1.385 . S
C127 C124 1.414 . S
C127 C126 1.385 . S
C127 C149 1.444 . S
O128 Tb84 2.546 . S
O128 C148 1.251 . S
O129 Tb84 2.610 . S
O129 Tb95 2.362 . S
O129 C140 1.283 . S
O130 Tb95 2.421 . S
O130 C147 1.262 . S
O131 Tb84 2.320 . S
O131 C147 1.260 . S
O132 Tb84 2.552 . S
O132 C140 1.243 . S
O133 Tb84 2.413 . S
O133 C148 1.256 . S
O134 Tb95 2.546 . S
O134 C159 1.251 . S
O135 Tb84 2.362 . S
O135 Tb95 2.610 . S
O135 C151 1.283 . S
O136 Tb84 2.421 . S
O136 C158 1.262 . S
O137 Tb95 2.320 . S
O137 C158 1.260 . S
O138 Tb95 2.552 . S
O138 C151 1.243 . S
O139 Tb95 2.413 . S
O139 C159 1.256 . S
C140 O129 1.283 . S
C140 O132 1.243 . S
C141 C143 1.382 . S
C141 C145 1.393 . S
C141 C148 1.500 . S
C142 C143 1.400 . S
C142 C144 1.384 . S
C143 C141 1.382 . S
C143 C142 1.400 . S
C143 H160 0.930 . S
C144 C142 1.384 . S
C144 C146 1.392 . S
C144 H161 0.931 . S
C145 C141 1.393 . S
C145 C146 1.401 . S
C145 H162 0.930 . S
C146 C144 1.392 . S
C146 C145 1.401 . S
C146 H163 0.930 . S
C147 O130 1.262 . S
C147 O131 1.260 . S
C148 Tb84 2.833 . S
C148 O128 1.251 . S
C148 O133 1.256 . S
C148 C141 1.500 . S
C149 H114 0.929 . S
C149 C127 1.444 . S
C149 C150 1.317 . S
C150 H112 0.930 . S
C150 C118 1.432 . S
C150 C149 1.317 . S
C151 O135 1.283 . S
C151 O138 1.243 . S
C152 C153 1.382 . S
C152 C156 1.393 . S
C152 C159 1.500 . S
C153 C152 1.382 . S
C153 C154 1.400 . S
C153 H164 0.930 . S
C154 C153 1.400 . S
C154 C155 1.384 . S
C155 C154 1.384 . S
C155 C157 1.392 . S
C155 H165 0.931 . S
C156 C152 1.393 . S
C156 C157 1.401 . S
C156 H166 0.930 . S
C157 C155 1.392 . S
C157 C156 1.401 . S
C157 H167 0.930 . S
C158 O136 1.262 . S
C158 O137 1.260 . S
C159 Tb95 2.833 . S
C159 O134 1.251 . S
C159 O139 1.256 . S
C159 C152 1.500 . S
H160 C143 0.930 . S
H161 C144 0.931 . S
H162 C145 0.930 . S
H163 C146 0.930 . S
H164 C153 0.930 . S
H165 C155 0.931 . S
H166 C156 0.930 . S
H167 C157 0.930 . S
Tb168 N199 2.660 . S
Tb168 N206 2.600 . S
Tb168 O212 2.546 . S
Tb168 O213 2.610 . S
Tb168 O215 2.320 . S
Tb168 O216 2.552 . S
Tb168 O217 2.413 . S
Tb168 O219 2.362 . S
Tb168 O220 2.421 . S
Tb168 C232 2.833 . S
C169 C172 1.432 . S
C169 C173 1.414 . S
C169 N176 1.359 . S
C170 C172 1.417 . S
C170 C174 1.432 . S
C170 C182 1.410 . S
C171 C173 1.444 . S
C171 C174 1.317 . S
C171 H194 0.929 1_655 S
C172 C169 1.432 . S
C172 C170 1.417 . S
C172 N180 1.360 . S
C173 C169 1.414 . S
C173 C171 1.444 . S
C173 C178 1.385 . S
C174 C170 1.432 . S
C174 C171 1.317 . S
C174 H186 0.930 1_655 S
C175 C177 1.392 . S
C175 C178 1.370 . S
C175 H187 0.931 . S
N176 C169 1.359 . S
N176 C177 1.327 . S
N176 Tb179 2.600 . S
C177 C175 1.392 . S
C177 N176 1.327 . S
C177 H184 0.930 . S
C178 C173 1.385 . S
C178 C175 1.370 . S
C178 H197 0.930 . S
Tb179 N176 2.600 . S
Tb179 N180 2.660 . S
Tb179 O213 2.362 . S
Tb179 O214 2.421 . S
Tb179 O218 2.546 . S
Tb179 O219 2.610 . S
Tb179 O221 2.320 . S
Tb179 O222 2.552 . S
Tb179 O223 2.413 . S
Tb179 C243 2.833 . S
N180 C172 1.360 . S
N180 Tb179 2.660 . S
N180 C181 1.305 . S
C181 N180 1.305 . S
C181 C183 1.407 . S
C181 H188 0.930 . S
C182 C170 1.410 . S
C182 C183 1.345 . S
C182 H190 0.930 . S
C183 C181 1.407 . S
C183 C182 1.345 . S
C183 H185 0.930 . S
H184 C177 0.930 . S
H185 C183 0.930 . S
H186 C174 0.930 1_455 S
H187 C175 0.931 . S
H188 C181 0.930 . S
H189 C203 0.930 . S
H190 C182 0.930 . S
H191 C209 0.930 . S
H192 C200 0.930 . S
H193 C207 0.931 . S
H194 C171 0.929 1_455 S
H195 C201 0.906 1_565 S
H196 C234 0.930 . S
H197 C178 0.930 . S
H198 C233 0.929 . S
N199 Tb168 2.660 . S
N199 C200 1.305 . S
N199 C204 1.360 . S
C200 H192 0.930 . S
C200 N199 1.305 . S
C200 C203 1.407 . S
C201 H195 0.906 1_545 S
C201 C202 1.419 . S
C201 C203 1.361 . S
C202 C201 1.419 . S
C202 C204 1.417 . S
C202 C234 1.432 1_545 S
C203 H189 0.930 . S
C203 C200 1.407 . S
C203 C201 1.361 . S
C204 N199 1.360 . S
C204 C202 1.417 . S
C204 C208 1.432 . S
H205 C210 0.930 . S
N206 Tb168 2.600 . S
N206 C208 1.359 . S
N206 C209 1.327 . S
C207 H193 0.931 . S
C207 C209 1.392 . S
C207 C210 1.370 . S
C208 C204 1.432 . S
C208 N206 1.359 . S
C208 C211 1.414 . S
C209 H191 0.930 . S
C209 N206 1.327 . S
C209 C207 1.392 . S
C210 H205 0.930 . S
C210 C207 1.370 . S
C210 C211 1.385 . S
C211 C208 1.414 . S
C211 C210 1.385 . S
C211 C233 1.444 1_545 S
O212 Tb168 2.546 . S
O212 C232 1.251 . S
O213 Tb168 2.610 . S
O213 Tb179 2.362 . S
O213 C224 1.283 . S
O214 Tb179 2.421 . S
O214 C231 1.262 . S
O215 Tb168 2.320 . S
O215 C231 1.260 . S
O216 Tb168 2.552 . S
O216 C224 1.243 . S
O217 Tb168 2.413 . S
O217 C232 1.256 . S
O218 Tb179 2.546 . S
O218 C243 1.251 . S
O219 Tb168 2.362 . S
O219 Tb179 2.610 . S
O219 C235 1.283 . S
O220 Tb168 2.421 . S
O220 C242 1.262 . S
O221 Tb179 2.320 . S
O221 C242 1.260 . S
O222 Tb179 2.552 . S
O222 C235 1.243 . S
O223 Tb179 2.413 . S
O223 C243 1.256 . S
C224 O213 1.283 . S
C224 O216 1.243 . S
C225 C227 1.382 . S
C225 C229 1.393 . S
C225 C232 1.500 . S
C226 C227 1.400 . S
C226 C228 1.384 . S
C227 C225 1.382 . S
C227 C226 1.400 . S
C227 H244 0.930 . S
C228 C226 1.384 . S
C228 C230 1.392 . S
C228 H245 0.931 . S
C229 C225 1.393 . S
C229 C230 1.401 . S
C229 H246 0.930 . S
C230 C228 1.392 . S
C230 C229 1.401 . S
C230 H247 0.930 . S
C231 O214 1.262 . S
C231 O215 1.260 . S
C232 Tb168 2.833 . S
C232 O212 1.251 . S
C232 O217 1.256 . S
C232 C225 1.500 . S
C233 H198 0.929 . S
C233 C211 1.444 1_565 S
C233 C234 1.317 . S
C234 H196 0.930 . S
C234 C202 1.432 1_565 S
C234 C233 1.317 . S
C235 O219 1.283 . S
C235 O222 1.243 . S
C236 C237 1.382 . S
C236 C240 1.393 . S
C236 C243 1.500 1_455 S
C237 C236 1.382 . S
C237 C238 1.400 . S
C237 H248 0.930 . S
C238 C237 1.400 . S
C238 C239 1.384 . S
C239 C238 1.384 . S
C239 C241 1.392 . S
C239 H249 0.931 . S
C240 C236 1.393 . S
C240 C241 1.401 . S
C240 H250 0.930 . S
C241 C239 1.392 . S
C241 C240 1.401 . S
C241 H251 0.930 . S
C242 O220 1.262 . S
C242 O221 1.260 . S
C243 Tb179 2.833 . S
C243 O218 1.251 . S
C243 O223 1.256 . S
C243 C236 1.500 1_655 S
H244 C227 0.930 . S
H245 C228 0.931 . S
H246 C229 0.930 . S
H247 C230 0.930 . S
H248 C237 0.930 . S
H249 C239 0.931 . S
H250 C240 0.930 . S
H251 C241 0.930 . S
Tb252 N283 2.660 . S
Tb252 N290 2.600 . S
Tb252 O296 2.546 . S
Tb252 O297 2.610 . S
Tb252 O299 2.320 . S
Tb252 O300 2.552 . S
Tb252 O301 2.413 . S
Tb252 O303 2.362 . S
Tb252 O304 2.421 . S
Tb252 C316 2.833 . S
C253 C256 1.432 . S
C253 C257 1.414 . S
C253 N260 1.359 . S
C254 C256 1.417 . S
C254 C258 1.432 . S
C254 C266 1.410 . S
C255 C257 1.444 . S
C255 C258 1.317 . S
C255 H278 0.929 . S
C256 C253 1.432 . S
C256 C254 1.417 . S
C256 N264 1.360 . S
C257 C253 1.414 . S
C257 C255 1.444 . S
C257 C262 1.385 . S
C258 C254 1.432 . S
C258 C255 1.317 . S
C258 H270 0.930 . S
C259 C261 1.392 . S
C259 C262 1.370 . S
C259 H271 0.931 . S
N260 C253 1.359 . S
N260 C261 1.327 . S
N260 Tb263 2.600 . S
C261 C259 1.392 . S
C261 N260 1.327 . S
C261 H268 0.930 . S
C262 C257 1.385 . S
C262 C259 1.370 . S
C262 H281 0.930 . S
Tb263 N260 2.600 . S
Tb263 N264 2.660 . S
Tb263 O297 2.362 . S
Tb263 O298 2.421 . S
Tb263 O302 2.546 . S
Tb263 O303 2.610 . S
Tb263 O305 2.320 . S
Tb263 O306 2.552 . S
Tb263 O307 2.413 . S
Tb263 C327 2.833 . S
N264 C256 1.360 . S
N264 Tb263 2.660 . S
N264 C265 1.305 . S
C265 N264 1.305 . S
C265 C267 1.407 . S
C265 H272 0.930 . S
C266 C254 1.410 . S
C266 C267 1.345 . S
C266 H274 0.930 . S
C267 C265 1.407 . S
C267 C266 1.345 . S
C267 H269 0.930 . S
H268 C261 0.930 . S
H269 C267 0.930 . S
H270 C258 0.930 . S
H271 C259 0.931 . S
H272 C265 0.930 . S
H273 C287 0.930 . S
H274 C266 0.930 . S
H275 C293 0.930 . S
H276 C284 0.930 . S
H277 C291 0.931 . S
H278 C255 0.929 . S
H279 C285 0.930 . S
H280 C318 0.930 1_565 S
H281 C262 0.930 . S
H282 C317 0.929 1_565 S
N283 Tb252 2.660 . S
N283 C284 1.305 . S
N283 C288 1.360 . S
C284 H276 0.930 . S
C284 N283 1.305 . S
C284 C287 1.407 . S
C285 H279 0.930 . S
C285 C286 1.410 . S
C285 C287 1.345 . S
C286 C285 1.410 . S
C286 C288 1.417 . S
C286 C318 1.432 . S
C287 H273 0.930 . S
C287 C284 1.407 . S
C287 C285 1.345 . S
C288 N283 1.360 . S
C288 C286 1.417 . S
C288 C292 1.432 . S
H289 C294 0.930 . S
N290 Tb252 2.600 . S
N290 C292 1.359 . S
N290 C293 1.327 . S
C291 H277 0.931 . S
C291 C293 1.392 . S
C291 C294 1.370 . S
C292 C288 1.432 . S
C292 N290 1.359 . S
C292 C295 1.414 . S
C293 H275 0.930 . S
C293 N290 1.327 . S
C293 C291 1.392 . S
C294 H289 0.930 . S
C294 C291 1.370 . S
C294 C295 1.385 . S
C295 C292 1.414 . S
C295 C294 1.385 . S
C295 C317 1.444 . S
O296 Tb252 2.546 . S
O296 C316 1.251 . S
O297 Tb252 2.610 . S
O297 Tb263 2.362 . S
O297 C308 1.283 . S
O298 Tb263 2.421 . S
O298 C315 1.262 . S
O299 Tb252 2.320 . S
O299 C315 1.260 . S
O300 Tb252 2.552 . S
O300 C308 1.243 . S
O301 Tb252 2.413 . S
O301 C316 1.256 . S
O302 Tb263 2.546 . S
O302 C327 1.251 . S
O303 Tb252 2.362 . S
O303 Tb263 2.610 . S
O303 C319 1.283 . S
O304 Tb252 2.421 . S
O304 C326 1.262 . S
O305 Tb263 2.320 . S
O305 C326 1.260 . S
O306 Tb263 2.552 . S
O306 C319 1.243 . S
O307 Tb263 2.413 . S
O307 C327 1.256 . S
C308 O297 1.283 . S
C308 O300 1.243 . S
C309 C311 1.382 . S
C309 C313 1.393 . S
C309 C316 1.500 1_565 S
C310 C311 1.400 . S
C310 C312 1.384 . S
C311 C309 1.382 . S
C311 C310 1.400 . S
C311 H328 0.930 . S
C312 C310 1.384 . S
C312 C314 1.392 . S
C312 H329 0.931 . S
C313 C309 1.393 . S
C313 C314 1.401 . S
C313 H330 0.930 . S
C314 C312 1.392 . S
C314 C313 1.401 . S
C314 H331 0.930 . S
C315 O298 1.262 . S
C315 O299 1.260 . S
C316 Tb252 2.833 . S
C316 O296 1.251 . S
C316 O301 1.256 . S
C316 C309 1.500 1_545 S
C317 H282 0.929 1_545 S
C317 C295 1.444 . S
C317 C318 1.317 . S
C318 H280 0.930 1_545 S
C318 C286 1.432 . S
C318 C317 1.317 . S
C319 O303 1.283 . S
C319 O306 1.243 . S
C320 C321 1.382 . S
C320 C324 1.393 . S
C320 C327 1.500 . S
C321 C320 1.382 . S
C321 C322 1.400 . S
C321 H332 0.930 . S
C322 C321 1.400 . S
C322 C323 1.384 . S
C323 C322 1.384 . S
C323 C325 1.392 . S
C323 H333 0.931 . S
C324 C320 1.393 . S
C324 C325 1.401 . S
C324 H334 0.930 . S
C325 C323 1.392 . S
C325 C324 1.401 . S
C325 H335 0.930 . S
C326 O304 1.262 . S
C326 O305 1.260 . S
C327 Tb263 2.833 . S
C327 O302 1.251 . S
C327 O307 1.256 . S
C327 C320 1.500 . S
H328 C311 0.930 . S
H329 C312 0.931 . S
H330 C313 0.930 . S
H331 C314 0.930 . S
H332 C321 0.930 . S
H333 C323 0.931 . S
H334 C324 0.930 . S
H335 C325 0.930 . S
Tb336 N367 2.660 . S
Tb336 N374 2.600 . S
Tb336 O380 2.546 . S
Tb336 O381 2.610 . S
Tb336 O383 2.320 . S
Tb336 O384 2.552 . S
Tb336 O385 2.413 . S
Tb336 O387 2.362 . S
Tb336 O388 2.421 . S
Tb336 C400 2.833 . S
C337 C340 1.432 . S
C337 C341 1.414 . S
C337 N344 1.359 . S
C338 C340 1.417 . S
C338 C342 1.432 . S
C338 C350 1.410 . S
C339 C341 1.444 . S
C339 C342 1.317 . S
C339 H362 0.929 . S
C340 C337 1.432 . S
C340 C338 1.417 . S
C340 N348 1.360 . S
C341 C337 1.414 . S
C341 C339 1.444 . S
C341 C346 1.385 . S
C342 C338 1.432 . S
C342 C339 1.317 . S
C342 H354 0.930 . S
C343 C345 1.392 . S
C343 C346 1.370 . S
C343 H355 0.931 . S
N344 C337 1.359 . S
N344 C345 1.327 . S
N344 Tb347 2.600 . S
C345 C343 1.392 . S
C345 N344 1.327 . S
C345 H352 0.930 . S
C346 C341 1.385 . S
C346 C343 1.370 . S
C346 H365 0.930 . S
Tb347 N344 2.600 . S
Tb347 N348 2.660 . S
Tb347 O381 2.362 . S
Tb347 O382 2.421 . S
Tb347 O386 2.546 . S
Tb347 O387 2.610 . S
Tb347 O389 2.320 . S
Tb347 O390 2.552 . S
Tb347 O391 2.413 . S
Tb347 C411 2.833 . S
N348 C340 1.360 . S
N348 Tb347 2.660 . S
N348 C349 1.305 . S
C349 N348 1.305 . S
C349 C351 1.407 . S
C349 H356 0.930 . S
C350 C338 1.410 . S
C350 C351 1.345 . S
C350 H358 0.930 . S
C351 C349 1.407 . S
C351 C350 1.345 . S
C351 H353 0.930 . S
H352 C345 0.930 . S
H353 C351 0.930 . S
H354 C342 0.930 . S
H355 C343 0.931 . S
H356 C349 0.930 . S
H357 C371 0.930 . S
H358 C350 0.930 . S
H359 C377 0.930 . S
H360 C368 0.930 . S
H361 C375 0.931 . S
H362 C339 0.929 . S
H363 C369 0.907 1_455 S
H364 C402 0.930 . S
H365 C346 0.930 . S
H366 C401 0.929 . S
N367 Tb336 2.660 . S
N367 C368 1.305 . S
N367 C372 1.360 . S
C368 H360 0.930 . S
C368 N367 1.305 . S
C368 C371 1.407 . S
C369 H363 0.907 1_655 S
C369 C370 1.415 . S
C369 C371 1.364 . S
C370 C369 1.415 . S
C370 C372 1.417 . S
C370 C402 1.432 1_655 S
C371 H357 0.930 . S
C371 C368 1.407 . S
C371 C369 1.364 . S
C372 N367 1.360 . S
C372 C370 1.417 . S
C372 C376 1.432 . S
H373 C378 0.930 . S
N374 Tb336 2.600 . S
N374 C376 1.359 . S
N374 C377 1.327 . S
C375 H361 0.931 . S
C375 C377 1.392 . S
C375 C378 1.370 . S
C376 C372 1.432 . S
C376 N374 1.359 . S
C376 C379 1.414 . S
C377 H359 0.930 . S
C377 N374 1.327 . S
C377 C375 1.392 . S
C378 H373 0.930 . S
C378 C375 1.370 . S
C378 C379 1.385 . S
C379 C376 1.414 . S
C379 C378 1.385 . S
C379 C401 1.444 1_655 S
O380 Tb336 2.546 . S
O380 C400 1.251 . S
O381 Tb336 2.610 . S
O381 Tb347 2.362 . S
O381 C392 1.283 . S
O382 Tb347 2.421 . S
O382 C399 1.262 . S
O383 Tb336 2.320 . S
O383 C399 1.260 . S
O384 Tb336 2.552 . S
O384 C392 1.243 . S
O385 Tb336 2.413 . S
O385 C400 1.256 . S
O386 Tb347 2.546 . S
O386 C411 1.251 . S
O387 Tb336 2.362 . S
O387 Tb347 2.610 . S
O387 C403 1.283 . S
O388 Tb336 2.421 . S
O388 C410 1.262 . S
O389 Tb347 2.320 . S
O389 C410 1.260 . S
O390 Tb347 2.552 . S
O390 C403 1.243 . S
O391 Tb347 2.413 . S
O391 C411 1.256 . S
C392 O381 1.283 . S
C392 O384 1.243 . S
C393 C395 1.382 . S
C393 C397 1.393 . S
C393 C400 1.500 . S
C394 C395 1.400 . S
C394 C396 1.384 . S
C395 C393 1.382 . S
C395 C394 1.400 . S
C395 H412 0.930 . S
C396 C394 1.384 . S
C396 C398 1.392 . S
C396 H413 0.931 . S
C397 C393 1.393 . S
C397 C398 1.401 . S
C397 H414 0.930 . S
C398 C396 1.392 . S
C398 C397 1.401 . S
C398 H415 0.930 . S
C399 O382 1.262 . S
C399 O383 1.260 . S
C400 Tb336 2.833 . S
C400 O380 1.251 . S
C400 O385 1.256 . S
C400 C393 1.500 . S
C401 H366 0.929 . S
C401 C379 1.444 1_455 S
C401 C402 1.317 . S
C402 H364 0.930 . S
C402 C370 1.432 1_455 S
C402 C401 1.317 . S
C403 O387 1.283 . S
C403 O390 1.243 . S
C404 C405 1.382 . S
C404 C408 1.393 . S
C404 C411 1.500 . S
C405 C404 1.382 . S
C405 C406 1.400 . S
C405 H416 0.930 . S
C406 C405 1.400 . S
C406 C407 1.384 . S
C407 C406 1.384 . S
C407 C409 1.392 . S
C407 H417 0.931 . S
C408 C404 1.393 . S
C408 C409 1.401 . S
C408 H418 0.930 . S
C409 C407 1.392 . S
C409 C408 1.401 . S
C409 H419 0.930 . S
C410 O388 1.262 . S
C410 O389 1.260 . S
C411 Tb347 2.833 . S
C411 O386 1.251 . S
C411 O391 1.256 . S
C411 C404 1.500 . S
H412 C395 0.930 . S
H413 C396 0.931 . S
H414 C397 0.930 . S
H415 C398 0.930 . S
H416 C405 0.930 . S
H417 C407 0.931 . S
H418 C408 0.930 . S
H419 C409 0.930 . S
Tb420 N451 2.660 . S
Tb420 N458 2.600 . S
Tb420 O464 2.546 . S
Tb420 O465 2.610 . S
Tb420 O467 2.320 . S
Tb420 O468 2.552 . S
Tb420 O469 2.413 . S
Tb420 O471 2.362 . S
Tb420 O472 2.421 . S
Tb420 C484 2.833 . S
C421 C424 1.432 . S
C421 C425 1.414 . S
C421 N428 1.359 . S
C422 C424 1.417 . S
C422 C426 1.432 1_545 S
C422 C434 1.419 . S
C423 C425 1.444 1_565 S
C423 C426 1.317 . S
C423 H446 0.929 . S
C424 C421 1.432 . S
C424 C422 1.417 . S
C424 N432 1.360 . S
C425 C421 1.414 . S
C425 C423 1.444 1_545 S
C425 C430 1.385 . S
C426 C422 1.432 1_565 S
C426 C423 1.317 . S
C426 H438 0.930 . S
C427 C429 1.392 . S
C427 C430 1.370 . S
C427 H439 0.931 . S
N428 C421 1.359 . S
N428 C429 1.327 . S
N428 Tb431 2.600 . S
C429 C427 1.392 . S
C429 N428 1.327 . S
C429 H436 0.930 . S
C430 C425 1.385 . S
C430 C427 1.370 . S
C430 H449 0.930 . S
Tb431 N428 2.600 . S
Tb431 N432 2.660 . S
Tb431 O465 2.362 . S
Tb431 O466 2.421 . S
Tb431 O470 2.546 . S
Tb431 O471 2.610 . S
Tb431 O473 2.320 . S
Tb431 O474 2.552 . S
Tb431 O475 2.413 . S
Tb431 C495 2.833 . S
N432 C424 1.360 . S
N432 Tb431 2.660 . S
N432 C433 1.305 . S
C433 N432 1.305 . S
C433 C435 1.407 . S
C433 H440 0.930 . S
C434 C422 1.419 . S
C434 C435 1.361 . S
C434 H442 0.906 1_545 S
C435 C433 1.407 . S
C435 C434 1.361 . S
C435 H437 0.930 . S
H436 C429 0.930 . S
H437 C435 0.930 . S
H438 C426 0.930 . S
H439 C427 0.931 . S
H440 C433 0.930 . S
H441 C455 0.930 . S
H442 C434 0.906 1_565 S
H443 C461 0.930 . S
H444 C452 0.930 . S
H445 C459 0.931 . S
H446 C423 0.929 . S
H447 C453 0.930 . S
H448 C486 0.930 1_455 S
H449 C430 0.930 . S
H450 C485 0.929 1_455 S
N451 Tb420 2.660 . S
N451 C452 1.305 . S
N451 C456 1.360 . S
C452 H444 0.930 . S
C452 N451 1.305 . S
C452 C455 1.407 . S
C453 H447 0.930 . S
C453 C454 1.410 . S
C453 C455 1.345 . S
C454 C453 1.410 . S
C454 C456 1.417 . S
C454 C486 1.432 . S
C455 H441 0.930 . S
C455 C452 1.407 . S
C455 C453 1.345 . S
C456 N451 1.360 . S
C456 C454 1.417 . S
C456 C460 1.432 . S
H457 C462 0.930 . S
N458 Tb420 2.600 . S
N458 C460 1.359 . S
N458 C461 1.327 . S
C459 H445 0.931 . S
C459 C461 1.392 . S
C459 C462 1.370 . S
C460 C456 1.432 . S
C460 N458 1.359 . S
C460 C463 1.414 . S
C461 H443 0.930 . S
C461 N458 1.327 . S
C461 C459 1.392 . S
C462 H457 0.930 . S
C462 C459 1.370 . S
C462 C463 1.385 . S
C463 C460 1.414 . S
C463 C462 1.385 . S
C463 C485 1.444 . S
O464 Tb420 2.546 . S
O464 C484 1.251 . S
O465 Tb420 2.610 . S
O465 Tb431 2.362 . S
O465 C476 1.283 . S
O466 Tb431 2.421 . S
O466 C483 1.262 . S
O467 Tb420 2.320 . S
O467 C483 1.260 . S
O468 Tb420 2.552 . S
O468 C476 1.243 . S
O469 Tb420 2.413 . S
O469 C484 1.256 . S
O470 Tb431 2.546 . S
O470 C495 1.251 . S
O471 Tb420 2.362 . S
O471 Tb431 2.610 . S
O471 C487 1.283 . S
O472 Tb420 2.421 . S
O472 C494 1.262 . S
O473 Tb431 2.320 . S
O473 C494 1.260 . S
O474 Tb431 2.552 . S
O474 C487 1.243 . S
O475 Tb431 2.413 . S
O475 C495 1.256 . S
C476 O465 1.283 . S
C476 O468 1.243 . S
C477 C479 1.382 . S
C477 C481 1.393 . S
C477 C484 1.500 1_455 S
C478 C479 1.400 . S
C478 C480 1.384 . S
C479 C477 1.382 . S
C479 C478 1.400 . S
C479 H496 0.930 . S
C480 C478 1.384 . S
C480 C482 1.392 . S
C480 H497 0.931 . S
C481 C477 1.393 . S
C481 C482 1.401 . S
C481 H498 0.930 . S
C482 C480 1.392 . S
C482 C481 1.401 . S
C482 H499 0.930 . S
C483 O466 1.262 . S
C483 O467 1.260 . S
C484 Tb420 2.833 . S
C484 O464 1.251 . S
C484 O469 1.256 . S
C484 C477 1.500 1_655 S
C485 H450 0.929 1_655 S
C485 C463 1.444 . S
C485 C486 1.317 . S
C486 H448 0.930 1_655 S
C486 C454 1.432 . S
C486 C485 1.317 . S
C487 O471 1.283 . S
C487 O474 1.243 . S
C488 C489 1.382 . S
C488 C492 1.393 . S
C488 C495 1.500 . S
C489 C488 1.382 . S
C489 C490 1.400 . S
C489 H500 0.930 . S
C490 C489 1.400 . S
C490 C491 1.384 . S
C491 C490 1.384 . S
C491 C493 1.392 . S
C491 H501 0.931 . S
C492 C488 1.393 . S
C492 C493 1.401 . S
C492 H502 0.930 . S
C493 C491 1.392 . S
C493 C492 1.401 . S
C493 H503 0.930 . S
C494 O472 1.262 . S
C494 O473 1.260 . S
C495 Tb431 2.833 . S
C495 O470 1.251 . S
C495 O475 1.256 . S
C495 C488 1.500 . S
H496 C479 0.930 . S
H497 C480 0.931 . S
H498 C481 0.930 . S
H499 C482 0.930 . S
H500 C489 0.930 . S
H501 C491 0.931 . S
H502 C492 0.930 . S
H503 C493 0.930 . S
Tb504 N535 2.660 . S
Tb504 N542 2.600 . S
Tb504 O548 2.546 . S
Tb504 O549 2.610 . S
Tb504 O551 2.320 . S
Tb504 O552 2.552 . S
Tb504 O553 2.413 . S
Tb504 O555 2.362 . S
Tb504 O556 2.421 . S
Tb504 C568 2.833 . S
C505 C508 1.432 . S
C505 C509 1.414 . S
C505 N512 1.359 . S
C506 C508 1.417 . S
C506 C510 1.432 . S
C506 C518 1.410 . S
C507 C509 1.444 . S
C507 C510 1.317 . S
C507 H530 0.929 . S
C508 C505 1.432 . S
C508 C506 1.417 . S
C508 N516 1.360 . S
C509 C505 1.414 . S
C509 C507 1.444 . S
C509 C514 1.385 . S
C510 C506 1.432 . S
C510 C507 1.317 . S
C510 H522 0.930 . S
C511 C513 1.392 . S
C511 C514 1.370 . S
C511 H523 0.931 . S
N512 C505 1.359 . S
N512 C513 1.327 . S
N512 Tb515 2.600 . S
C513 C511 1.392 . S
C513 N512 1.327 . S
C513 H520 0.930 . S
C514 C509 1.385 . S
C514 C511 1.370 . S
C514 H533 0.930 . S
Tb515 N512 2.600 . S
Tb515 N516 2.660 . S
Tb515 O549 2.362 . S
Tb515 O550 2.421 . S
Tb515 O554 2.546 . S
Tb515 O555 2.610 . S
Tb515 O557 2.320 . S
Tb515 O558 2.552 . S
Tb515 O559 2.413 . S
Tb515 C579 2.833 . S
N516 C508 1.360 . S
N516 Tb515 2.660 . S
N516 C517 1.305 . S
C517 N516 1.305 . S
C517 C519 1.407 . S
C517 H524 0.930 . S
C518 C506 1.410 . S
C518 C519 1.345 . S
C518 H526 0.930 . S
C519 C517 1.407 . S
C519 C518 1.345 . S
C519 H521 0.930 . S
H520 C513 0.930 . S
H521 C519 0.930 . S
H522 C510 0.930 . S
H523 C511 0.931 . S
H524 C517 0.930 . S
H525 C539 0.930 . S
H526 C518 0.930 . S
H527 C545 0.930 . S
H528 C536 0.930 . S
H529 C543 0.931 . S
H530 C507 0.929 . S
H531 C537 0.930 . S
H532 C570 0.930 1_655 S
H533 C514 0.930 . S
H534 C569 0.929 1_655 S
N535 Tb504 2.660 . S
N535 C536 1.305 . S
N535 C540 1.360 . S
C536 H528 0.930 . S
C536 N535 1.305 . S
C536 C539 1.407 . S
C537 H531 0.930 . S
C537 C538 1.410 . S
C537 C539 1.345 . S
C538 C537 1.410 . S
C538 C540 1.417 . S
C538 C570 1.432 . S
C539 H525 0.930 . S
C539 C536 1.407 . S
C539 C537 1.345 . S
C540 N535 1.360 . S
C540 C538 1.417 . S
C540 C544 1.432 . S
H541 C546 0.930 . S
N542 Tb504 2.600 . S
N542 C544 1.359 . S
N542 C545 1.327 . S
C543 H529 0.931 . S
C543 C545 1.392 . S
C543 C546 1.370 . S
C544 C540 1.432 . S
C544 N542 1.359 . S
C544 C547 1.414 . S
C545 H527 0.930 . S
C545 N542 1.327 . S
C545 C543 1.392 . S
C546 H541 0.930 . S
C546 C543 1.370 . S
C546 C547 1.385 . S
C547 C544 1.414 . S
C547 C546 1.385 . S
C547 C569 1.444 . S
O548 Tb504 2.546 . S
O548 C568 1.251 . S
O549 Tb504 2.610 . S
O549 Tb515 2.362 . S
O549 C560 1.283 . S
O550 Tb515 2.421 . S
O550 C567 1.262 . S
O551 Tb504 2.320 . S
O551 C567 1.260 . S
O552 Tb504 2.552 . S
O552 C560 1.243 . S
O553 Tb504 2.413 . S
O553 C568 1.256 . S
O554 Tb515 2.546 . S
O554 C579 1.251 . S
O555 Tb504 2.362 . S
O555 Tb515 2.610 . S
O555 C571 1.283 . S
O556 Tb504 2.421 . S
O556 C578 1.262 . S
O557 Tb515 2.320 . S
O557 C578 1.260 . S
O558 Tb515 2.552 . S
O558 C571 1.243 . S
O559 Tb515 2.413 . S
O559 C579 1.256 . S
C560 O549 1.283 . S
C560 O552 1.243 . S
C561 C563 1.382 . S
C561 C565 1.393 . S
C561 C568 1.500 1_655 S
C562 C563 1.400 . S
C562 C564 1.384 . S
C563 C561 1.382 . S
C563 C562 1.400 . S
C563 H580 0.930 . S
C564 C562 1.384 . S
C564 C566 1.392 . S
C564 H581 0.931 . S
C565 C561 1.393 . S
C565 C566 1.401 . S
C565 H582 0.930 . S
C566 C564 1.392 . S
C566 C565 1.401 . S
C566 H583 0.930 . S
C567 O550 1.262 . S
C567 O551 1.260 . S
C568 Tb504 2.833 . S
C568 O548 1.251 . S
C568 O553 1.256 . S
C568 C561 1.500 1_455 S
C569 H534 0.929 1_455 S
C569 C547 1.444 . S
C569 C570 1.317 . S
C570 H532 0.930 1_455 S
C570 C538 1.432 . S
C570 C569 1.317 . S
C571 O555 1.283 . S
C571 O558 1.243 . S
C572 C573 1.382 . S
C572 C576 1.393 . S
C572 C579 1.500 . S
C573 C572 1.382 . S
C573 C574 1.400 . S
C573 H584 0.930 . S
C574 C573 1.400 . S
C574 C575 1.384 . S
C575 C574 1.384 . S
C575 C577 1.392 . S
C575 H585 0.931 . S
C576 C572 1.393 . S
C576 C577 1.401 . S
C576 H586 0.930 . S
C577 C575 1.392 . S
C577 C576 1.401 . S
C577 H587 0.930 . S
C578 O556 1.262 . S
C578 O557 1.260 . S
C579 Tb515 2.833 . S
C579 O554 1.251 . S
C579 O559 1.256 . S
C579 C572 1.500 . S
H580 C563 0.930 . S
H581 C564 0.931 . S
H582 C565 0.930 . S
H583 C566 0.930 . S
H584 C573 0.930 . S
H585 C575 0.931 . S
H586 C576 0.930 . S
H587 C577 0.930 . S
Tb588 N619 2.660 . S
Tb588 N626 2.600 . S
Tb588 O632 2.546 . S
Tb588 O633 2.610 . S
Tb588 O635 2.320 . S
Tb588 O636 2.552 . S
Tb588 O637 2.413 . S
Tb588 O639 2.362 . S
Tb588 O640 2.421 . S
Tb588 C652 2.833 . S
C589 C592 1.432 . S
C589 C593 1.414 . S
C589 N596 1.359 . S
C590 C592 1.417 . S
C590 C594 1.432 . S
C590 C602 1.410 . S
C591 C593 1.444 . S
C591 C594 1.317 . S
C591 H614 0.929 1_565 S
C592 C589 1.432 . S
C592 C590 1.417 . S
C592 N600 1.360 . S
C593 C589 1.414 . S
C593 C591 1.444 . S
C593 C598 1.385 . S
C594 C590 1.432 . S
C594 C591 1.317 . S
C594 H606 0.930 1_565 S
C595 C597 1.392 . S
C595 C598 1.370 . S
C595 H607 0.931 . S
N596 C589 1.359 . S
N596 C597 1.327 . S
N596 Tb599 2.600 . S
C597 C595 1.392 . S
C597 N596 1.327 . S
C597 H604 0.930 . S
C598 C593 1.385 . S
C598 C595 1.370 . S
C598 H617 0.930 . S
Tb599 N596 2.600 . S
Tb599 N600 2.660 . S
Tb599 O633 2.362 . S
Tb599 O634 2.421 . S
Tb599 O638 2.546 . S
Tb599 O639 2.610 . S
Tb599 O641 2.320 . S
Tb599 O642 2.552 . S
Tb599 O643 2.413 . S
Tb599 C663 2.833 . S
N600 C592 1.360 . S
N600 Tb599 2.660 . S
N600 C601 1.305 . S
C601 N600 1.305 . S
C601 C603 1.407 . S
C601 H608 0.930 . S
C602 C590 1.410 . S
C602 C603 1.345 . S
C602 H610 0.930 . S
C603 C601 1.407 . S
C603 C602 1.345 . S
C603 H605 0.930 . S
H604 C597 0.930 . S
H605 C603 0.930 . S
H606 C594 0.930 1_545 S
H607 C595 0.931 . S
H608 C601 0.930 . S
H609 C623 0.930 . S
H610 C602 0.930 . S
H611 C629 0.930 . S
H612 C620 0.930 . S
H613 C627 0.931 . S
H614 C591 0.929 1_545 S
H615 C621 0.906 1_655 S
H616 C654 0.930 . S
H617 C598 0.930 . S
H618 C653 0.929 . S
N619 Tb588 2.660 . S
N619 C620 1.305 . S
N619 C624 1.360 . S
C620 H612 0.930 . S
C620 N619 1.305 . S
C620 C623 1.407 . S
C621 H615 0.906 1_455 S
C621 C622 1.419 . S
C621 C623 1.361 . S
C622 C621 1.419 . S
C622 C624 1.417 . S
C622 C654 1.432 1_455 S
C623 H609 0.930 . S
C623 C620 1.407 . S
C623 C621 1.361 . S
C624 N619 1.360 . S
C624 C622 1.417 . S
C624 C628 1.432 . S
H625 C630 0.930 . S
N626 Tb588 2.600 . S
N626 C628 1.359 . S
N626 C629 1.327 . S
C627 H613 0.931 . S
C627 C629 1.392 . S
C627 C630 1.370 . S
C628 C624 1.432 . S
C628 N626 1.359 . S
C628 C631 1.414 . S
C629 H611 0.930 . S
C629 N626 1.327 . S
C629 C627 1.392 . S
C630 H625 0.930 . S
C630 C627 1.370 . S
C630 C631 1.385 . S
C631 C628 1.414 . S
C631 C630 1.385 . S
C631 C653 1.444 1_455 S
O632 Tb588 2.546 . S
O632 C652 1.251 . S
O633 Tb588 2.610 . S
O633 Tb599 2.362 . S
O633 C644 1.283 . S
O634 Tb599 2.421 . S
O634 C651 1.262 . S
O635 Tb588 2.320 . S
O635 C651 1.260 . S
O636 Tb588 2.552 . S
O636 C644 1.243 . S
O637 Tb588 2.413 . S
O637 C652 1.256 . S
O638 Tb599 2.546 . S
O638 C663 1.251 . S
O639 Tb588 2.362 . S
O639 Tb599 2.610 . S
O639 C655 1.283 . S
O640 Tb588 2.421 . S
O640 C662 1.262 . S
O641 Tb599 2.320 . S
O641 C662 1.260 . S
O642 Tb599 2.552 . S
O642 C655 1.243 . S
O643 Tb599 2.413 . S
O643 C663 1.256 . S
C644 O633 1.283 . S
C644 O636 1.243 . S
C645 C647 1.382 . S
C645 C649 1.393 . S
C645 C652 1.500 . S
C646 C647 1.400 . S
C646 C648 1.384 . S
C647 C645 1.382 . S
C647 C646 1.400 . S
C647 H664 0.930 . S
C648 C646 1.384 . S
C648 C650 1.392 . S
C648 H665 0.931 . S
C649 C645 1.393 . S
C649 C650 1.401 . S
C649 H666 0.930 . S
C650 C648 1.392 . S
C650 C649 1.401 . S
C650 H667 0.930 . S
C651 O634 1.262 . S
C651 O635 1.260 . S
C652 Tb588 2.833 . S
C652 O632 1.251 . S
C652 O637 1.256 . S
C652 C645 1.500 . S
C653 H618 0.929 . S
C653 C631 1.444 1_655 S
C653 C654 1.317 . S
C654 H616 0.930 . S
C654 C622 1.432 1_655 S
C654 C653 1.317 . S
C655 O639 1.283 . S
C655 O642 1.243 . S
C656 C657 1.382 . S
C656 C660 1.393 . S
C656 C663 1.500 1_545 S
C657 C656 1.382 . S
C657 C658 1.400 . S
C657 H668 0.930 . S
C658 C657 1.400 . S
C658 C659 1.384 . S
C659 C658 1.384 . S
C659 C661 1.392 . S
C659 H669 0.931 . S
C660 C656 1.393 . S
C660 C661 1.401 . S
C660 H670 0.930 . S
C661 C659 1.392 . S
C661 C660 1.401 . S
C661 H671 0.930 . S
C662 O640 1.262 . S
C662 O641 1.260 . S
C663 Tb599 2.833 . S
C663 O638 1.251 . S
C663 O643 1.256 . S
C663 C656 1.500 1_565 S
H664 C647 0.930 . S
H665 C648 0.931 . S
H666 C649 0.930 . S
H667 C650 0.930 . S
H668 C657 0.930 . S
H669 C659 0.931 . S
H670 C660 0.930 . S
H671 C661 0.930 . S
Tb672 N703 2.660 . S
Tb672 N710 2.600 . S
Tb672 O716 2.546 . S
Tb672 O717 2.610 . S
Tb672 O719 2.320 . S
Tb672 O720 2.552 . S
Tb672 O721 2.413 . S
Tb672 O723 2.362 . S
Tb672 O724 2.421 . S
Tb672 C736 2.833 . S
C673 C676 1.432 . S
C673 C677 1.414 . S
C673 N680 1.359 . S
C674 C676 1.417 . S
C674 C678 1.432 1_565 S
C674 C686 1.415 . S
C675 C677 1.444 1_545 S
C675 C678 1.317 . S
C675 H698 0.929 . S
C676 C673 1.432 . S
C676 C674 1.417 . S
C676 N684 1.360 . S
C677 C673 1.414 . S
C677 C675 1.444 1_565 S
C677 C682 1.385 . S
C678 C674 1.432 1_545 S
C678 C675 1.317 . S
C678 H690 0.930 . S
C679 C681 1.392 . S
C679 C682 1.370 . S
C679 H691 0.931 . S
N680 C673 1.359 . S
N680 C681 1.327 . S
N680 Tb683 2.600 . S
C681 C679 1.392 . S
C681 N680 1.327 . S
C681 H688 0.930 . S
C682 C677 1.385 . S
C682 C679 1.370 . S
C682 H701 0.930 . S
Tb683 N680 2.600 . S
Tb683 N684 2.660 . S
Tb683 O717 2.362 . S
Tb683 O718 2.421 . S
Tb683 O722 2.546 . S
Tb683 O723 2.610 . S
Tb683 O725 2.320 . S
Tb683 O726 2.552 . S
Tb683 O727 2.413 . S
Tb683 C747 2.833 . S
N684 C676 1.360 . S
N684 Tb683 2.660 . S
N684 C685 1.305 . S
C685 N684 1.305 . S
C685 C687 1.407 . S
C685 H692 0.930 . S
C686 C674 1.415 . S
C686 C687 1.364 . S
C686 H694 0.907 1_565 S
C687 C685 1.407 . S
C687 C686 1.364 . S
C687 H689 0.930 . S
H688 C681 0.930 . S
H689 C687 0.930 . S
H690 C678 0.930 . S
H691 C679 0.931 . S
H692 C685 0.930 . S
H693 C707 0.930 . S
H694 C686 0.907 1_545 S
H695 C713 0.930 . S
H696 C704 0.930 . S
H697 C711 0.931 . S
H698 C675 0.929 . S
H699 C705 0.930 . S
H700 C738 0.930 . S
H701 C682 0.930 . S
H702 C737 0.929 . S
N703 Tb672 2.660 . S
N703 C704 1.305 . S
N703 C708 1.360 . S
C704 H696 0.930 . S
C704 N703 1.305 . S
C704 C707 1.407 . S
C705 H699 0.930 . S
C705 C706 1.410 . S
C705 C707 1.345 . S
C706 C705 1.410 . S
C706 C708 1.417 . S
C706 C738 1.432 . S
C707 H693 0.930 . S
C707 C704 1.407 . S
C707 C705 1.345 . S
C708 N703 1.360 . S
C708 C706 1.417 . S
C708 C712 1.432 . S
H709 C714 0.930 . S
N710 Tb672 2.600 . S
N710 C712 1.359 . S
N710 C713 1.327 . S
C711 H697 0.931 . S
C711 C713 1.392 . S
C711 C714 1.370 . S
C712 C708 1.432 . S
C712 N710 1.359 . S
C712 C715 1.414 . S
C713 H695 0.930 . S
C713 N710 1.327 . S
C713 C711 1.392 . S
C714 H709 0.930 . S
C714 C711 1.370 . S
C714 C715 1.385 . S
C715 C712 1.414 . S
C715 C714 1.385 . S
C715 C737 1.444 . S
O716 Tb672 2.546 . S
O716 C736 1.251 . S
O717 Tb672 2.610 . S
O717 Tb683 2.362 . S
O717 C728 1.283 . S
O718 Tb683 2.421 . S
O718 C735 1.262 . S
O719 Tb672 2.320 . S
O719 C735 1.260 . S
O720 Tb672 2.552 . S
O720 C728 1.243 . S
O721 Tb672 2.413 . S
O721 C736 1.256 . S
O722 Tb683 2.546 . S
O722 C747 1.251 . S
O723 Tb672 2.362 . S
O723 Tb683 2.610 . S
O723 C739 1.283 . S
O724 Tb672 2.421 . S
O724 C746 1.262 . S
O725 Tb683 2.320 . S
O725 C746 1.260 . S
O726 Tb683 2.552 . S
O726 C739 1.243 . S
O727 Tb683 2.413 . S
O727 C747 1.256 . S
C728 O717 1.283 . S
C728 O720 1.243 . S
C729 C731 1.382 . S
C729 C733 1.393 . S
C729 C736 1.500 . S
C730 C731 1.400 . S
C730 C732 1.384 . S
C731 C729 1.382 . S
C731 C730 1.400 . S
C731 H748 0.930 . S
C732 C730 1.384 . S
C732 C734 1.392 . S
C732 H749 0.931 . S
C733 C729 1.393 . S
C733 C734 1.401 . S
C733 H750 0.930 . S
C734 C732 1.392 . S
C734 C733 1.401 . S
C734 H751 0.930 . S
C735 O718 1.262 . S
C735 O719 1.260 . S
C736 Tb672 2.833 . S
C736 O716 1.251 . S
C736 O721 1.256 . S
C736 C729 1.500 . S
C737 H702 0.929 . S
C737 C715 1.444 . S
C737 C738 1.317 . S
C738 H700 0.930 . S
C738 C706 1.432 . S
C738 C737 1.317 . S
C739 O723 1.283 . S
C739 O726 1.243 . S
C740 C741 1.382 . S
C740 C744 1.393 . S
C740 C747 1.500 . S
C741 C740 1.382 . S
C741 C742 1.400 . S
C741 H752 0.930 . S
C742 C741 1.400 . S
C742 C743 1.384 . S
C743 C742 1.384 . S
C743 C745 1.392 . S
C743 H753 0.931 . S
C744 C740 1.393 . S
C744 C745 1.401 . S
C744 H754 0.930 . S
C745 C743 1.392 . S
C745 C744 1.401 . S
C745 H755 0.930 . S
C746 O724 1.262 . S
C746 O725 1.260 . S
C747 Tb683 2.833 . S
C747 O722 1.251 . S
C747 O727 1.256 . S
C747 C740 1.500 . S
H748 C731 0.930 . S
H749 C732 0.931 . S
H750 C733 0.930 . S
H751 C734 0.930 . S
H752 C741 0.930 . S
H753 C743 0.931 . S
H754 C744 0.930 . S
H755 C745 0.930 . S
Tb756 N787 2.660 . S
Tb756 N794 2.600 . S
Tb756 O800 2.546 . S
Tb756 O801 2.610 . S
Tb756 O803 2.320 . S
Tb756 O804 2.552 . S
Tb756 O805 2.413 . S
Tb756 O807 2.362 . S
Tb756 O808 2.421 . S
Tb756 C820 2.833 . S
C757 C760 1.432 . S
C757 C761 1.414 . S
C757 N764 1.359 . S
C758 C760 1.417 . S
C758 C762 1.432 . S
C758 C770 1.410 . S
C759 C761 1.444 . S
C759 C762 1.317 . S
C759 H782 0.929 1_455 S
C760 C757 1.432 . S
C760 C758 1.417 . S
C760 N768 1.360 . S
C761 C757 1.414 . S
C761 C759 1.444 . S
C761 C766 1.385 . S
C762 C758 1.432 . S
C762 C759 1.317 . S
C762 H774 0.930 1_455 S
C763 C765 1.392 . S
C763 C766 1.370 . S
C763 H775 0.931 . S
N764 C757 1.359 . S
N764 C765 1.327 . S
N764 Tb767 2.600 . S
C765 C763 1.392 . S
C765 N764 1.327 . S
C765 H772 0.930 . S
C766 C761 1.385 . S
C766 C763 1.370 . S
C766 H785 0.930 . S
Tb767 N764 2.600 . S
Tb767 N768 2.660 . S
Tb767 O801 2.362 . S
Tb767 O802 2.421 . S
Tb767 O806 2.546 . S
Tb767 O807 2.610 . S
Tb767 O809 2.320 . S
Tb767 O810 2.552 . S
Tb767 O811 2.413 . S
Tb767 C831 2.833 . S
N768 C760 1.360 . S
N768 Tb767 2.660 . S
N768 C769 1.305 . S
C769 N768 1.305 . S
C769 C771 1.407 . S
C769 H776 0.930 . S
C770 C758 1.410 . S
C770 C771 1.345 . S
C770 H778 0.930 . S
C771 C769 1.407 . S
C771 C770 1.345 . S
C771 H773 0.930 . S
H772 C765 0.930 . S
H773 C771 0.930 . S
H774 C762 0.930 1_655 S
H775 C763 0.931 . S
H776 C769 0.930 . S
H777 C791 0.930 . S
H778 C770 0.930 . S
H779 C797 0.930 . S
H780 C788 0.930 . S
H781 C795 0.931 . S
H782 C759 0.929 1_655 S
H783 C789 0.930 . S
H784 C822 0.930 . S
H785 C766 0.930 . S
H786 C821 0.929 . S
N787 Tb756 2.660 . S
N787 C788 1.305 . S
N787 C792 1.360 . S
C788 H780 0.930 . S
C788 N787 1.305 . S
C788 C791 1.407 . S
C789 H783 0.930 . S
C789 C790 1.410 . S
C789 C791 1.345 . S
C790 C789 1.410 . S
C790 C792 1.417 . S
C790 C822 1.432 . S
C791 H777 0.930 . S
C791 C788 1.407 . S
C791 C789 1.345 . S
C792 N787 1.360 . S
C792 C790 1.417 . S
C792 C796 1.432 . S
H793 C798 0.930 . S
N794 Tb756 2.600 . S
N794 C796 1.359 . S
N794 C797 1.327 . S
C795 H781 0.931 . S
C795 C797 1.392 . S
C795 C798 1.370 . S
C796 C792 1.432 . S
C796 N794 1.359 . S
C796 C799 1.414 . S
C797 H779 0.930 . S
C797 N794 1.327 . S
C797 C795 1.392 . S
C798 H793 0.930 . S
C798 C795 1.370 . S
C798 C799 1.385 . S
C799 C796 1.414 . S
C799 C798 1.385 . S
C799 C821 1.444 . S
O800 Tb756 2.546 . S
O800 C820 1.251 . S
O801 Tb756 2.610 . S
O801 Tb767 2.362 . S
O801 C812 1.283 . S
O802 Tb767 2.421 . S
O802 C819 1.262 . S
O803 Tb756 2.320 . S
O803 C819 1.260 . S
O804 Tb756 2.552 . S
O804 C812 1.243 . S
O805 Tb756 2.413 . S
O805 C820 1.256 . S
O806 Tb767 2.546 . S
O806 C831 1.251 . S
O807 Tb756 2.362 . S
O807 Tb767 2.610 . S
O807 C823 1.283 . S
O808 Tb756 2.421 . S
O808 C830 1.262 . S
O809 Tb767 2.320 . S
O809 C830 1.260 . S
O810 Tb767 2.552 . S
O810 C823 1.243 . S
O811 Tb767 2.413 . S
O811 C831 1.256 . S
C812 O801 1.283 . S
C812 O804 1.243 . S
C813 C815 1.382 . S
C813 C817 1.393 . S
C813 C820 1.500 . S
C814 C815 1.400 . S
C814 C816 1.384 . S
C815 C813 1.382 . S
C815 C814 1.400 . S
C815 H832 0.930 . S
C816 C814 1.384 . S
C816 C818 1.392 . S
C816 H833 0.931 . S
C817 C813 1.393 . S
C817 C818 1.401 . S
C817 H834 0.930 . S
C818 C816 1.392 . S
C818 C817 1.401 . S
C818 H835 0.930 . S
C819 O802 1.262 . S
C819 O803 1.260 . S
C820 Tb756 2.833 . S
C820 O800 1.251 . S
C820 O805 1.256 . S
C820 C813 1.500 . S
C821 H786 0.929 . S
C821 C799 1.444 . S
C821 C822 1.317 . S
C822 H784 0.930 . S
C822 C790 1.432 . S
C822 C821 1.317 . S
C823 O807 1.283 . S
C823 O810 1.243 . S
C824 C825 1.382 . S
C824 C828 1.393 . S
C824 C831 1.500 1_655 S
C825 C824 1.382 . S
C825 C826 1.400 . S
C825 H836 0.930 . S
C826 C825 1.400 . S
C826 C827 1.384 . S
C827 C826 1.384 . S
C827 C829 1.392 . S
C827 H837 0.931 . S
C828 C824 1.393 . S
C828 C829 1.401 . S
C828 H838 0.930 . S
C829 C827 1.392 . S
C829 C828 1.401 . S
C829 H839 0.930 . S
C830 O808 1.262 . S
C830 O809 1.260 . S
C831 Tb767 2.833 . S
C831 O806 1.251 . S
C831 O811 1.256 . S
C831 C824 1.500 1_455 S
H832 C815 0.930 . S
H833 C816 0.931 . S
H834 C817 0.930 . S
H835 C818 0.930 . S
H836 C825 0.930 . S
H837 C827 0.931 . S
H838 C828 0.930 . S
H839 C829 0.930 . S
Tb840 N871 2.660 . S
Tb840 N878 2.600 . S
Tb840 O884 2.546 . S
Tb840 O885 2.610 . S
Tb840 O887 2.320 . S
Tb840 O888 2.552 . S
Tb840 O889 2.413 . S
Tb840 O891 2.362 . S
Tb840 O892 2.421 . S
Tb840 C904 2.833 . S
C841 C844 1.432 . S
C841 C845 1.414 . S
C841 N848 1.359 . S
C842 C844 1.417 . S
C842 C846 1.432 1_455 S
C842 C854 1.419 . S
C843 C845 1.444 1_655 S
C843 C846 1.317 . S
C843 H866 0.929 . S
C844 C841 1.432 . S
C844 C842 1.417 . S
C844 N852 1.360 . S
C845 C841 1.414 . S
C845 C843 1.444 1_455 S
C845 C850 1.385 . S
C846 C842 1.432 1_655 S
C846 C843 1.317 . S
C846 H858 0.930 . S
C847 C849 1.392 . S
C847 C850 1.370 . S
C847 H859 0.931 . S
N848 C841 1.359 . S
N848 C849 1.327 . S
N848 Tb851 2.600 . S
C849 C847 1.392 . S
C849 N848 1.327 . S
C849 H856 0.930 . S
C850 C845 1.385 . S
C850 C847 1.370 . S
C850 H869 0.930 . S
Tb851 N848 2.600 . S
Tb851 N852 2.660 . S
Tb851 O885 2.362 . S
Tb851 O886 2.421 . S
Tb851 O890 2.546 . S
Tb851 O891 2.610 . S
Tb851 O893 2.320 . S
Tb851 O894 2.552 . S
Tb851 O895 2.413 . S
Tb851 C915 2.833 . S
N852 C844 1.360 . S
N852 Tb851 2.660 . S
N852 C853 1.305 . S
C853 N852 1.305 . S
C853 C855 1.407 . S
C853 H860 0.930 . S
C854 C842 1.419 . S
C854 C855 1.361 . S
C854 H862 0.906 1_455 S
C855 C853 1.407 . S
C855 C854 1.361 . S
C855 H857 0.930 . S
H856 C849 0.930 . S
H857 C855 0.930 . S
H858 C846 0.930 . S
H859 C847 0.931 . S
H860 C853 0.930 . S
H861 C875 0.930 . S
H862 C854 0.906 1_655 S
H863 C881 0.930 . S
H864 C872 0.930 . S
H865 C879 0.931 . S
H866 C843 0.929 . S
H867 C873 0.930 . S
H868 C906 0.930 1_545 S
H869 C850 0.930 . S
H870 C905 0.929 1_545 S
N871 Tb840 2.660 . S
N871 C872 1.305 . S
N871 C876 1.360 . S
C872 H864 0.930 . S
C872 N871 1.305 . S
C872 C875 1.407 . S
C873 H867 0.930 . S
C873 C874 1.410 . S
C873 C875 1.345 . S
C874 C873 1.410 . S
C874 C876 1.417 . S
C874 C906 1.432 . S
C875 H861 0.930 . S
C875 C872 1.407 . S
C875 C873 1.345 . S
C876 N871 1.360 . S
C876 C874 1.417 . S
C876 C880 1.432 . S
H877 C882 0.930 . S
N878 Tb840 2.600 . S
N878 C880 1.359 . S
N878 C881 1.327 . S
C879 H865 0.931 . S
C879 C881 1.392 . S
C879 C882 1.370 . S
C880 C876 1.432 . S
C880 N878 1.359 . S
C880 C883 1.414 . S
C881 H863 0.930 . S
C881 N878 1.327 . S
C881 C879 1.392 . S
C882 H877 0.930 . S
C882 C879 1.370 . S
C882 C883 1.385 . S
C883 C880 1.414 . S
C883 C882 1.385 . S
C883 C905 1.444 . S
O884 Tb840 2.546 . S
O884 C904 1.251 . S
O885 Tb840 2.610 . S
O885 Tb851 2.362 . S
O885 C896 1.283 . S
O886 Tb851 2.421 . S
O886 C903 1.262 . S
O887 Tb840 2.320 . S
O887 C903 1.260 . S
O888 Tb840 2.552 . S
O888 C896 1.243 . S
O889 Tb840 2.413 . S
O889 C904 1.256 . S
O890 Tb851 2.546 . S
O890 C915 1.251 . S
O891 Tb840 2.362 . S
O891 Tb851 2.610 . S
O891 C907 1.283 . S
O892 Tb840 2.421 . S
O892 C914 1.262 . S
O893 Tb851 2.320 . S
O893 C914 1.260 . S
O894 Tb851 2.552 . S
O894 C907 1.243 . S
O895 Tb851 2.413 . S
O895 C915 1.256 . S
C896 O885 1.283 . S
C896 O888 1.243 . S
C897 C899 1.382 . S
C897 C901 1.393 . S
C897 C904 1.500 1_545 S
C898 C899 1.400 . S
C898 C900 1.384 . S
C899 C897 1.382 . S
C899 C898 1.400 . S
C899 H916 0.930 . S
C900 C898 1.384 . S
C900 C902 1.392 . S
C900 H917 0.931 . S
C901 C897 1.393 . S
C901 C902 1.401 . S
C901 H918 0.930 . S
C902 C900 1.392 . S
C902 C901 1.401 . S
C902 H919 0.930 . S
C903 O886 1.262 . S
C903 O887 1.260 . S
C904 Tb840 2.833 . S
C904 O884 1.251 . S
C904 O889 1.256 . S
C904 C897 1.500 1_565 S
C905 H870 0.929 1_565 S
C905 C883 1.444 . S
C905 C906 1.317 . S
C906 H868 0.930 1_565 S
C906 C874 1.432 . S
C906 C905 1.317 . S
C907 O891 1.283 . S
C907 O894 1.243 . S
C908 C909 1.382 . S
C908 C912 1.393 . S
C908 C915 1.500 . S
C909 C908 1.382 . S
C909 C910 1.400 . S
C909 H920 0.930 . S
C910 C909 1.400 . S
C910 C911 1.384 . S
C911 C910 1.384 . S
C911 C913 1.392 . S
C911 H921 0.931 . S
C912 C908 1.393 . S
C912 C913 1.401 . S
C912 H922 0.930 . S
C913 C911 1.392 . S
C913 C912 1.401 . S
C913 H923 0.930 . S
C914 O892 1.262 . S
C914 O893 1.260 . S
C915 Tb851 2.833 . S
C915 O890 1.251 . S
C915 O895 1.256 . S
C915 C908 1.500 . S
H916 C899 0.930 . S
H917 C900 0.931 . S
H918 C901 0.930 . S
H919 C902 0.930 . S
H920 C909 0.930 . S
H921 C911 0.931 . S
H922 C912 0.930 . S
H923 C913 0.930 . S
Tb924 N955 2.660 . S
Tb924 N962 2.600 . S
Tb924 O968 2.546 . S
Tb924 O969 2.610 . S
Tb924 O971 2.320 . S
Tb924 O972 2.552 . S
Tb924 O973 2.413 . S
Tb924 O975 2.362 . S
Tb924 O976 2.421 . S
Tb924 C988 2.833 . S
C925 C928 1.432 . S
C925 C929 1.414 . S
C925 N932 1.359 . S
C926 C928 1.417 . S
C926 C930 1.432 . S
C926 C938 1.410 . S
C927 C929 1.444 . S
C927 C930 1.317 . S
C927 H950 0.929 . S
C928 C925 1.432 . S
C928 C926 1.417 . S
C928 N936 1.360 . S
C929 C925 1.414 . S
C929 C927 1.444 . S
C929 C934 1.385 . S
C930 C926 1.432 . S
C930 C927 1.317 . S
C930 H942 0.930 . S
C931 C933 1.392 . S
C931 C934 1.370 . S
C931 H943 0.931 . S
N932 C925 1.359 . S
N932 C933 1.327 . S
N932 Tb935 2.600 . S
C933 C931 1.392 . S
C933 N932 1.327 . S
C933 H940 0.930 . S
C934 C929 1.385 . S
C934 C931 1.370 . S
C934 H953 0.930 . S
Tb935 N932 2.600 . S
Tb935 N936 2.660 . S
Tb935 O969 2.362 . S
Tb935 O970 2.421 . S
Tb935 O974 2.546 . S
Tb935 O975 2.610 . S
Tb935 O977 2.320 . S
Tb935 O978 2.552 . S
Tb935 O979 2.413 . S
Tb935 C999 2.833 . S
N936 C928 1.360 . S
N936 Tb935 2.660 . S
N936 C937 1.305 . S
C937 N936 1.305 . S
C937 C939 1.407 . S
C937 H944 0.930 . S
C938 C926 1.410 . S
C938 C939 1.345 . S
C938 H946 0.930 . S
C939 C937 1.407 . S
C939 C938 1.345 . S
C939 H941 0.930 . S
H940 C933 0.930 . S
H941 C939 0.930 . S
H942 C930 0.930 . S
H943 C931 0.931 . S
H944 C937 0.930 . S
H945 C959 0.930 . S
H946 C938 0.930 . S
H947 C965 0.930 . S
H948 C956 0.930 . S
H949 C963 0.931 . S
H950 C927 0.929 . S
H951 C957 0.907 1_545 S
H952 C990 0.930 . S
H953 C934 0.930 . S
H954 C989 0.929 . S
N955 Tb924 2.660 . S
N955 C956 1.305 . S
N955 C960 1.360 . S
C956 H948 0.930 . S
C956 N955 1.305 . S
C956 C959 1.407 . S
C957 H951 0.907 1_565 S
C957 C958 1.415 . S
C957 C959 1.364 . S
C958 C957 1.415 . S
C958 C960 1.417 . S
C958 C990 1.432 1_565 S
C959 H945 0.930 . S
C959 C956 1.407 . S
C959 C957 1.364 . S
C960 N955 1.360 . S
C960 C958 1.417 . S
C960 C964 1.432 . S
H961 C966 0.930 . S
N962 Tb924 2.600 . S
N962 C964 1.359 . S
N962 C965 1.327 . S
C963 H949 0.931 . S
C963 C965 1.392 . S
C963 C966 1.370 . S
C964 C960 1.432 . S
C964 N962 1.359 . S
C964 C967 1.414 . S
C965 H947 0.930 . S
C965 N962 1.327 . S
C965 C963 1.392 . S
C966 H961 0.930 . S
C966 C963 1.370 . S
C966 C967 1.385 . S
C967 C964 1.414 . S
C967 C966 1.385 . S
C967 C989 1.444 1_565 S
O968 Tb924 2.546 . S
O968 C988 1.251 . S
O969 Tb924 2.610 . S
O969 Tb935 2.362 . S
O969 C980 1.283 . S
O970 Tb935 2.421 . S
O970 C987 1.262 . S
O971 Tb924 2.320 . S
O971 C987 1.260 . S
O972 Tb924 2.552 . S
O972 C980 1.243 . S
O973 Tb924 2.413 . S
O973 C988 1.256 . S
O974 Tb935 2.546 . S
O974 C999 1.251 . S
O975 Tb924 2.362 . S
O975 Tb935 2.610 . S
O975 C991 1.283 . S
O976 Tb924 2.421 . S
O976 C998 1.262 . S
O977 Tb935 2.320 . S
O977 C998 1.260 . S
O978 Tb935 2.552 . S
O978 C991 1.243 . S
O979 Tb935 2.413 . S
O979 C999 1.256 . S
C980 O969 1.283 . S
C980 O972 1.243 . S
C981 C983 1.382 . S
C981 C985 1.393 . S
C981 C988 1.500 . S
C982 C983 1.400 . S
C982 C984 1.384 . S
C983 C981 1.382 . S
C983 C982 1.400 . S
C983 H1000 0.930 . S
C984 C982 1.384 . S
C984 C986 1.392 . S
C984 H1001 0.931 . S
C985 C981 1.393 . S
C985 C986 1.401 . S
C985 H1002 0.930 . S
C986 C984 1.392 . S
C986 C985 1.401 . S
C986 H1003 0.930 . S
C987 O970 1.262 . S
C987 O971 1.260 . S
C988 Tb924 2.833 . S
C988 O968 1.251 . S
C988 O973 1.256 . S
C988 C981 1.500 . S
C989 H954 0.929 . S
C989 C967 1.444 1_545 S
C989 C990 1.317 . S
C990 H952 0.930 . S
C990 C958 1.432 1_545 S
C990 C989 1.317 . S
C991 O975 1.283 . S
C991 O978 1.243 . S
C992 C993 1.382 . S
C992 C996 1.393 . S
C992 C999 1.500 . S
C993 C992 1.382 . S
C993 C994 1.400 . S
C993 H1004 0.930 . S
C994 C993 1.400 . S
C994 C995 1.384 . S
C995 C994 1.384 . S
C995 C997 1.392 . S
C995 H1005 0.931 . S
C996 C992 1.393 . S
C996 C997 1.401 . S
C996 H1006 0.930 . S
C997 C995 1.392 . S
C997 C996 1.401 . S
C997 H1007 0.930 . S
C998 O976 1.262 . S
C998 O977 1.260 . S
C999 Tb935 2.833 . S
C999 O974 1.251 . S
C999 O979 1.256 . S
C999 C992 1.500 . S
H1000 C983 0.930 . S
H1001 C984 0.931 . S
H1002 C985 0.930 . S
H1003 C986 0.930 . S
H1004 C993 0.930 . S
H1005 C995 0.931 . S
H1006 C996 0.930 . S
H1007 C997 0.930 . S
H1008 C1020 0.930 . S
H1009 C1022 0.930 . S
H1010 C1023 0.930 . S
H1011 C1027 0.959 . S
H1012 C1027 0.959 . S
H1013 C1027 0.961 . S
H1014 C1028 0.960 . S
H1015 C1028 0.961 . S
H1016 C1028 0.959 . S
H1017 C1031 0.929 . S
H1018 C1032 0.931 . S
H1019 C1034 0.930 . S
C1020 H1008 0.930 . S
C1020 C1021 1.399 . S
C1020 C1025 1.399 . S
C1021 C1020 1.399 . S
C1021 C1022 1.376 . S
C1022 H1009 0.930 . S
C1022 C1021 1.376 . S
C1022 C1023 1.388 . S
C1023 H1010 0.930 . S
C1023 C1022 1.388 . S
C1023 C1024 1.390 . S
C1024 C1023 1.390 . S
C1024 C1025 1.394 . S
C1024 C1030 1.465 . S
C1025 C1020 1.399 . S
C1025 C1024 1.394 . S
C1025 C1026 1.516 . S
C1026 C1025 1.516 . S
C1026 C1027 1.502 . S
C1026 C1028 1.561 . S
C1026 C1029 1.526 . S
C1027 H1011 0.959 . S
C1027 H1012 0.959 . S
C1027 H1013 0.961 . S
C1027 C1026 1.502 . S
C1028 H1014 0.960 . S
C1028 H1015 0.961 . S
C1028 H1016 0.959 . S
C1028 C1026 1.561 . S
C1029 C1026 1.526 . S
C1029 C1030 1.396 . S
C1029 C1034 1.390 . S
C1030 C1024 1.465 . S
C1030 C1029 1.396 . S
C1030 C1031 1.399 . S
C1031 H1017 0.929 . S
C1031 C1030 1.399 . S
C1031 C1032 1.385 . S
C1032 H1018 0.931 . S
C1032 C1031 1.385 . S
C1032 C1033 1.389 . S
C1033 C1032 1.389 . S
C1033 C1034 1.387 . S
C1034 H1019 0.930 . S
C1034 C1029 1.390 . S
C1034 C1033 1.387 . S
H1035 C1047 0.930 . S
H1036 C1049 0.930 . S
H1037 C1050 0.930 . S
H1038 C1054 0.959 . S
H1039 C1054 0.959 . S
H1040 C1054 0.961 . S
H1041 C1055 0.960 . S
H1042 C1055 0.961 1_655 S
H1043 C1055 0.959 1_655 S
H1044 C1058 0.929 . S
H1045 C1059 0.931 . S
H1046 C1061 0.930 . S
C1047 H1035 0.930 . S
C1047 C1048 1.399 . S
C1047 C1052 1.399 . S
C1048 C1047 1.399 . S
C1048 C1049 1.376 . S
C1049 H1036 0.930 . S
C1049 C1048 1.376 . S
C1049 C1050 1.388 . S
C1050 H1037 0.930 . S
C1050 C1049 1.388 . S
C1050 C1051 1.390 . S
C1051 C1050 1.390 . S
C1051 C1052 1.394 . S
C1051 C1057 1.465 1_455 S
C1052 C1047 1.399 . S
C1052 C1051 1.394 . S
C1052 C1053 1.516 . S
C1053 C1052 1.516 . S
C1053 C1054 1.502 . S
C1053 C1055 1.561 . S
C1053 C1056 1.526 1_455 S
C1054 H1038 0.959 . S
C1054 H1039 0.959 . S
C1054 H1040 0.961 . S
C1054 C1053 1.502 . S
C1055 H1041 0.960 . S
C1055 H1042 0.961 1_455 S
C1055 H1043 0.959 1_455 S
C1055 C1053 1.561 . S
C1056 C1053 1.526 1_655 S
C1056 C1057 1.396 . S
C1056 C1061 1.390 . S
C1057 C1051 1.465 1_655 S
C1057 C1056 1.396 . S
C1057 C1058 1.399 . S
C1058 H1044 0.929 . S
C1058 C1057 1.399 . S
C1058 C1059 1.385 . S
C1059 H1045 0.931 . S
C1059 C1058 1.385 . S
C1059 C1060 1.389 . S
C1060 C1059 1.389 . S
C1060 C1061 1.387 . S
C1061 H1046 0.930 . S
C1061 C1056 1.390 . S
C1061 C1060 1.387 . S
H1062 C1074 0.930 . S
H1063 C1076 0.930 . S
H1064 C1077 0.930 . S
H1065 C1081 0.959 . S
H1066 C1081 0.959 1_565 S
H1067 C1081 0.961 . S
H1068 C1082 0.960 1_545 S
H1069 C1082 0.961 . S
H1070 C1082 0.959 . S
H1071 C1085 0.929 . S
H1072 C1086 0.931 . S
H1073 C1088 0.930 . S
C1074 H1062 0.930 . S
C1074 C1075 1.399 . S
C1074 C1079 1.399 . S
C1075 C1074 1.399 . S
C1075 C1076 1.376 . S
C1076 H1063 0.930 . S
C1076 C1075 1.376 . S
C1076 C1077 1.388 . S
C1077 H1064 0.930 . S
C1077 C1076 1.388 . S
C1077 C1078 1.390 . S
C1078 C1077 1.390 . S
C1078 C1079 1.394 . S
C1078 C1084 1.465 1_545 S
C1079 C1074 1.399 . S
C1079 C1078 1.394 . S
C1079 C1080 1.516 1_545 S
C1080 C1079 1.516 1_565 S
C1080 C1081 1.502 1_565 S
C1080 C1082 1.561 . S
C1080 C1083 1.526 . S
C1081 H1065 0.959 . S
C1081 H1066 0.959 1_545 S
C1081 H1067 0.961 . S
C1081 C1080 1.502 1_545 S
C1082 H1068 0.960 1_565 S
C1082 H1069 0.961 . S
C1082 H1070 0.959 . S
C1082 C1080 1.561 . S
C1083 C1080 1.526 . S
C1083 C1084 1.396 . S
C1083 C1088 1.390 . S
C1084 C1078 1.465 1_565 S
C1084 C1083 1.396 . S
C1084 C1085 1.399 . S
C1085 H1071 0.929 . S
C1085 C1084 1.399 . S
C1085 C1086 1.385 . S
C1086 H1072 0.931 . S
C1086 C1085 1.385 . S
C1086 C1087 1.389 . S
C1087 C1086 1.389 . S
C1087 C1088 1.387 . S
C1088 H1073 0.930 . S
C1088 C1083 1.390 . S
C1088 C1087 1.387 . S
H1089 C1101 0.930 . S
H1090 C1103 0.930 . S
H1091 C1104 0.930 . S
H1092 C1108 0.959 . S
H1093 C1108 0.959 . S
H1094 C1108 0.961 . S
H1095 C1109 0.960 . S
H1096 C1109 0.961 . S
H1097 C1109 0.959 . S
H1098 C1112 0.929 . S
H1099 C1113 0.931 . S
H1100 C1115 0.930 . S
C1101 H1089 0.930 . S
C1101 C1102 1.399 . S
C1101 C1106 1.399 . S
C1102 C1101 1.399 . S
C1102 C1103 1.376 . S
C1103 H1090 0.930 . S
C1103 C1102 1.376 . S
C1103 C1104 1.388 . S
C1104 H1091 0.930 . S
C1104 C1103 1.388 . S
C1104 C1105 1.390 . S
C1105 C1104 1.390 . S
C1105 C1106 1.394 . S
C1105 C1111 1.465 . S
C1106 C1101 1.399 . S
C1106 C1105 1.394 . S
C1106 C1107 1.516 . S
C1107 C1106 1.516 . S
C1107 C1108 1.502 . S
C1107 C1109 1.561 . S
C1107 C1110 1.526 . S
C1108 H1092 0.959 . S
C1108 H1093 0.959 . S
C1108 H1094 0.961 . S
C1108 C1107 1.502 . S
C1109 H1095 0.960 . S
C1109 H1096 0.961 . S
C1109 H1097 0.959 . S
C1109 C1107 1.561 . S
C1110 C1107 1.526 . S
C1110 C1111 1.396 . S
C1110 C1115 1.390 . S
C1111 C1105 1.465 . S
C1111 C1110 1.396 . S
C1111 C1112 1.399 . S
C1112 H1098 0.929 . S
C1112 C1111 1.399 . S
C1112 C1113 1.385 . S
C1113 H1099 0.931 . S
C1113 C1112 1.385 . S
C1113 C1114 1.389 . S
C1114 C1113 1.389 . S
C1114 C1115 1.387 . S
C1115 H1100 0.930 . S
C1115 C1110 1.390 . S
C1115 C1114 1.387 . S
H1116 C1128 0.930 . S
H1117 C1130 0.930 . S
H1118 C1131 0.930 . S
H1119 C1135 0.959 . S
H1120 C1135 0.959 . S
H1121 C1135 0.961 1_455 S
H1122 C1136 0.960 . S
H1123 C1136 0.980 . S
H1124 C1136 0.959 . S
H1125 C1139 0.929 . S
H1126 C1140 0.931 . S
H1127 C1142 0.930 . S
C1128 H1116 0.930 . S
C1128 C1129 1.399 . S
C1128 C1133 1.399 . S
C1129 C1128 1.399 . S
C1129 C1130 1.376 . S
C1130 H1117 0.930 . S
C1130 C1129 1.376 . S
C1130 C1131 1.388 . S
C1131 H1118 0.930 . S
C1131 C1130 1.388 . S
C1131 C1132 1.390 . S
C1132 C1131 1.390 . S
C1132 C1133 1.394 . S
C1132 C1138 1.465 1_455 S
C1133 C1128 1.399 . S
C1133 C1132 1.394 . S
C1133 C1134 1.516 . S
C1134 C1133 1.516 . S
C1134 C1135 1.502 1_455 S
C1134 C1136 1.561 . S
C1134 C1137 1.526 1_455 S
C1135 H1119 0.959 . S
C1135 H1120 0.959 . S
C1135 H1121 0.961 1_655 S
C1135 C1134 1.502 1_655 S
C1136 H1122 0.960 . S
C1136 H1123 0.980 . S
C1136 H1124 0.959 . S
C1136 C1134 1.561 . S
C1137 C1134 1.526 1_655 S
C1137 C1138 1.396 . S
C1137 C1142 1.390 . S
C1138 C1132 1.465 1_655 S
C1138 C1137 1.396 . S
C1138 C1139 1.399 . S
C1139 H1125 0.929 . S
C1139 C1138 1.399 . S
C1139 C1140 1.385 . S
C1140 H1126 0.931 . S
C1140 C1139 1.385 . S
C1140 C1141 1.389 . S
C1141 C1140 1.389 . S
C1141 C1142 1.387 . S
C1142 H1127 0.930 . S
C1142 C1137 1.390 . S
C1142 C1141 1.387 . S
H1143 C1155 0.930 . S
H1144 C1157 0.930 . S
H1145 C1158 0.930 . S
H1146 C1162 0.959 . S
H1147 C1162 0.959 . S
H1148 C1162 0.961 1_565 S
H1149 C1163 0.960 . S
H1150 C1163 0.961 1_545 S
H1151 C1163 0.959 . S
H1152 C1166 0.929 . S
H1153 C1167 0.931 . S
H1154 C1169 0.930 . S
C1155 H1143 0.930 . S
C1155 C1156 1.399 . S
C1155 C1160 1.399 . S
C1156 C1155 1.399 . S
C1156 C1157 1.376 . S
C1157 H1144 0.930 . S
C1157 C1156 1.376 . S
C1157 C1158 1.388 . S
C1158 H1145 0.930 . S
C1158 C1157 1.388 . S
C1158 C1159 1.390 . S
C1159 C1158 1.390 . S
C1159 C1160 1.394 . S
C1159 C1165 1.465 1_565 S
C1160 C1155 1.399 . S
C1160 C1159 1.394 . S
C1160 C1161 1.516 . S
C1161 C1160 1.516 . S
C1161 C1162 1.502 1_565 S
C1161 C1163 1.561 . S
C1161 C1164 1.526 1_565 S
C1162 H1146 0.959 . S
C1162 H1147 0.959 . S
C1162 H1148 0.961 1_545 S
C1162 C1161 1.502 1_545 S
C1163 H1149 0.960 . S
C1163 H1150 0.961 1_565 S
C1163 H1151 0.959 . S
C1163 C1161 1.561 . S
C1164 C1161 1.526 1_545 S
C1164 C1165 1.396 . S
C1164 C1169 1.390 . S
C1165 C1159 1.465 1_545 S
C1165 C1164 1.396 . S
C1165 C1166 1.399 . S
C1166 H1152 0.929 . S
C1166 C1165 1.399 . S
C1166 C1167 1.385 . S
C1167 H1153 0.931 . S
C1167 C1166 1.385 . S
C1167 C1168 1.389 . S
C1168 C1167 1.389 . S
C1168 C1169 1.387 . S
C1169 H1154 0.930 . S
C1169 C1164 1.390 . S
C1169 C1168 1.387 . S
H1170 C1182 0.930 . S
H1171 C1184 0.930 . S
H1172 C1185 0.930 . S
H1173 C1189 0.959 . S
H1174 C1189 0.959 . S
H1175 C1189 0.961 . S
H1176 C1190 0.960 . S
H1177 C1190 0.961 . S
H1178 C1190 0.959 . S
H1179 C1193 0.929 . S
H1180 C1194 0.931 . S
H1181 C1196 0.930 . S
C1182 H1170 0.930 . S
C1182 C1183 1.399 . S
C1182 C1187 1.399 . S
C1183 C1182 1.399 . S
C1183 C1184 1.376 . S
C1184 H1171 0.930 . S
C1184 C1183 1.376 . S
C1184 C1185 1.388 . S
C1185 H1172 0.930 . S
C1185 C1184 1.388 . S
C1185 C1186 1.390 . S
C1186 C1185 1.390 . S
C1186 C1187 1.394 . S
C1186 C1192 1.465 . S
C1187 C1182 1.399 . S
C1187 C1186 1.394 . S
C1187 C1188 1.516 . S
C1188 C1187 1.516 . S
C1188 C1189 1.502 . S
C1188 C1190 1.561 . S
C1188 C1191 1.526 . S
C1189 H1173 0.959 . S
C1189 H1174 0.959 . S
C1189 H1175 0.961 . S
C1189 C1188 1.502 . S
C1190 H1176 0.960 . S
C1190 H1177 0.961 . S
C1190 H1178 0.959 . S
C1190 C1188 1.561 . S
C1191 C1188 1.526 . S
C1191 C1192 1.396 . S
C1191 C1196 1.390 . S
C1192 C1186 1.465 . S
C1192 C1191 1.396 . S
C1192 C1193 1.399 . S
C1193 H1179 0.929 . S
C1193 C1192 1.399 . S
C1193 C1194 1.385 . S
C1194 H1180 0.931 . S
C1194 C1193 1.385 . S
C1194 C1195 1.389 . S
C1195 C1194 1.389 . S
C1195 C1196 1.387 . S
C1196 H1181 0.930 . S
C1196 C1191 1.390 . S
C1196 C1195 1.387 . S
H1197 C1209 0.930 . S
H1198 C1211 0.930 . S
H1199 C1212 0.930 . S
H1200 C1216 0.959 . S
H1201 C1216 0.959 . S
H1202 C1216 0.961 . S
H1203 C1217 0.965 . S
H1204 C1217 0.956 1_655 S
H1205 C1217 0.958 . S
H1206 C1220 0.929 . S
H1207 C1221 0.931 . S
H1208 C1223 0.930 . S
C1209 H1197 0.930 . S
C1209 C1210 1.399 . S
C1209 C1214 1.399 . S
C1210 C1209 1.399 . S
C1210 C1211 1.376 . S
C1211 H1198 0.930 . S
C1211 C1210 1.376 . S
C1211 C1212 1.388 . S
C1212 H1199 0.930 . S
C1212 C1211 1.388 . S
C1212 C1213 1.390 . S
C1213 C1212 1.390 . S
C1213 C1214 1.394 . S
C1213 C1219 1.465 1_455 S
C1214 C1209 1.399 . S
C1214 C1213 1.394 . S
C1214 C1215 1.516 1_455 S
C1215 C1214 1.516 1_655 S
C1215 C1216 1.502 . S
C1215 C1217 1.562 1_655 S
C1215 C1218 1.526 . S
C1216 H1200 0.959 . S
C1216 H1201 0.959 . S
C1216 H1202 0.961 . S
C1216 C1215 1.502 . S
C1217 H1203 0.965 . S
C1217 H1204 0.956 1_455 S
C1217 H1205 0.958 . S
C1217 C1215 1.562 1_455 S
C1218 C1215 1.526 . S
C1218 C1219 1.396 . S
C1218 C1223 1.390 . S
C1219 C1213 1.465 1_655 S
C1219 C1218 1.396 . S
C1219 C1220 1.399 . S
C1220 H1206 0.929 . S
C1220 C1219 1.399 . S
C1220 C1221 1.385 . S
C1221 H1207 0.931 . S
C1221 C1220 1.385 . S
C1221 C1222 1.389 . S
C1222 C1221 1.389 . S
C1222 C1223 1.387 . S
C1223 H1208 0.930 . S
C1223 C1218 1.390 . S
C1223 C1222 1.387 . S
H1224 C1236 0.930 . S
H1225 C1238 0.930 . S
H1226 C1239 0.930 . S
H1227 C1243 0.959 . S
H1228 C1243 0.959 . S
H1229 C1243 0.961 . S
H1230 C1244 0.960 1_565 S
H1231 C1244 0.961 . S
H1232 C1244 0.959 . S
H1233 C1247 0.929 . S
H1234 C1248 0.931 . S
H1235 C1250 0.930 . S
C1236 H1224 0.930 . S
C1236 C1237 1.399 . S
C1236 C1241 1.399 . S
C1237 C1236 1.399 . S
C1237 C1238 1.376 . S
C1238 H1225 0.930 . S
C1238 C1237 1.376 . S
C1238 C1239 1.388 . S
C1239 H1226 0.930 . S
C1239 C1238 1.388 . S
C1239 C1240 1.390 . S
C1240 C1239 1.390 . S
C1240 C1241 1.394 . S
C1240 C1246 1.465 1_565 S
C1241 C1236 1.399 . S
C1241 C1240 1.394 . S
C1241 C1242 1.516 . S
C1242 C1241 1.516 . S
C1242 C1243 1.502 . S
C1242 C1244 1.561 1_565 S
C1242 C1245 1.526 1_565 S
C1243 H1227 0.959 . S
C1243 H1228 0.959 . S
C1243 H1229 0.961 . S
C1243 C1242 1.502 . S
C1244 H1230 0.960 1_545 S
C1244 H1231 0.961 . S
C1244 H1232 0.959 . S
C1244 C1242 1.561 1_545 S
C1245 C1242 1.526 1_545 S
C1245 C1246 1.396 . S
C1245 C1250 1.390 . S
C1246 C1240 1.465 1_545 S
C1246 C1245 1.396 . S
C1246 C1247 1.399 . S
C1247 H1233 0.929 . S
C1247 C1246 1.399 . S
C1247 C1248 1.385 . S
C1248 H1234 0.931 . S
C1248 C1247 1.385 . S
C1248 C1249 1.389 . S
C1249 C1248 1.389 . S
C1249 C1250 1.387 . S
C1250 H1235 0.930 . S
C1250 C1245 1.390 . S
C1250 C1249 1.387 . S
H1251 C1263 0.930 . S
H1252 C1265 0.930 . S
H1253 C1266 0.930 . S
H1254 C1270 0.959 . S
H1255 C1270 0.959 . S
H1256 C1270 0.961 . S
H1257 C1271 0.960 . S
H1258 C1271 0.961 . S
H1259 C1271 0.959 . S
H1260 C1274 0.929 . S
H1261 C1275 0.931 . S
H1262 C1277 0.930 . S
C1263 H1251 0.930 . S
C1263 C1264 1.399 . S
C1263 C1268 1.399 . S
C1264 C1263 1.399 . S
C1264 C1265 1.376 . S
C1265 H1252 0.930 . S
C1265 C1264 1.376 . S
C1265 C1266 1.388 . S
C1266 H1253 0.930 . S
C1266 C1265 1.388 . S
C1266 C1267 1.390 . S
C1267 C1266 1.390 . S
C1267 C1268 1.394 . S
C1267 C1273 1.465 . S
C1268 C1263 1.399 . S
C1268 C1267 1.394 . S
C1268 C1269 1.516 . S
C1269 C1268 1.516 . S
C1269 C1270 1.502 . S
C1269 C1271 1.561 . S
C1269 C1272 1.526 . S
C1270 H1254 0.959 . S
C1270 H1255 0.959 . S
C1270 H1256 0.961 . S
C1270 C1269 1.502 . S
C1271 H1257 0.960 . S
C1271 H1258 0.961 . S
C1271 H1259 0.959 . S
C1271 C1269 1.561 . S
C1272 C1269 1.526 . S
C1272 C1273 1.396 . S
C1272 C1277 1.390 . S
C1273 C1267 1.465 . S
C1273 C1272 1.396 . S
C1273 C1274 1.399 . S
C1274 H1260 0.929 . S
C1274 C1273 1.399 . S
C1274 C1275 1.385 . S
C1275 H1261 0.931 . S
C1275 C1274 1.385 . S
C1275 C1276 1.389 . S
C1276 C1275 1.389 . S
C1276 C1277 1.387 . S
C1277 H1262 0.930 . S
C1277 C1272 1.390 . S
C1277 C1276 1.387 . S
H1278 C1290 0.930 . S
H1279 C1292 0.930 . S
H1280 C1293 0.930 . S
H1281 C1297 0.959 . S
H1282 C1297 0.959 . S
H1283 C1297 0.961 . S
H1284 C1298 0.960 . S
H1285 C1298 0.961 . S
H1286 C1298 0.959 . S
H1287 C1301 0.929 . S
H1288 C1302 0.931 . S
H1289 C1304 0.930 . S
C1290 H1278 0.930 . S
C1290 C1291 1.399 . S
C1290 C1295 1.399 . S
C1291 C1290 1.399 . S
C1291 C1292 1.376 . S
C1292 H1279 0.930 . S
C1292 C1291 1.376 . S
C1292 C1293 1.388 . S
C1293 H1280 0.930 . S
C1293 C1292 1.388 . S
C1293 C1294 1.390 . S
C1294 C1293 1.390 . S
C1294 C1295 1.394 . S
C1294 C1300 1.465 1_455 S
C1295 C1290 1.399 . S
C1295 C1294 1.394 . S
C1295 C1296 1.516 1_455 S
C1296 C1295 1.516 1_655 S
C1296 C1297 1.502 . S
C1296 C1298 1.561 . S
C1296 C1299 1.526 . S
C1297 H1281 0.959 . S
C1297 H1282 0.959 . S
C1297 H1283 0.961 . S
C1297 C1296 1.502 . S
C1298 H1284 0.960 . S
C1298 H1285 0.961 . S
C1298 H1286 0.959 . S
C1298 C1296 1.561 . S
C1299 C1296 1.526 . S
C1299 C1300 1.396 . S
C1299 C1304 1.390 . S
C1300 C1294 1.465 1_655 S
C1300 C1299 1.396 . S
C1300 C1301 1.399 . S
C1301 H1287 0.929 . S
C1301 C1300 1.399 . S
C1301 C1302 1.385 . S
C1302 H1288 0.931 . S
C1302 C1301 1.385 . S
C1302 C1303 1.389 . S
C1303 C1302 1.389 . S
C1303 C1304 1.387 . S
C1304 H1289 0.930 . S
C1304 C1299 1.390 . S
C1304 C1303 1.387 . S
H1305 C1317 0.930 . S
H1306 C1319 0.930 . S
H1307 C1320 0.930 . S
H1308 C1324 0.959 . S
H1309 C1324 0.959 . S
H1310 C1324 0.961 . S
H1311 C1325 0.960 . S
H1312 C1325 0.961 . S
H1313 C1325 0.959 . S
H1314 C1328 0.929 . S
H1315 C1329 0.931 . S
H1316 C1331 0.930 . S
C1317 H1305 0.930 . S
C1317 C1318 1.399 . S
C1317 C1322 1.399 . S
C1318 C1317 1.399 . S
C1318 C1319 1.376 . S
C1319 H1306 0.930 . S
C1319 C1318 1.376 . S
C1319 C1320 1.388 . S
C1320 H1307 0.930 . S
C1320 C1319 1.388 . S
C1320 C1321 1.390 . S
C1321 C1320 1.390 . S
C1321 C1322 1.394 . S
C1321 C1327 1.465 1_545 S
C1322 C1317 1.399 . S
C1322 C1321 1.394 . S
C1322 C1323 1.516 . S
C1323 C1322 1.516 . S
C1323 C1324 1.502 . S
C1323 C1325 1.561 . S
C1323 C1326 1.526 1_545 S
C1324 H1308 0.959 . S
C1324 H1309 0.959 . S
C1324 H1310 0.961 . S
C1324 C1323 1.502 . S
C1325 H1311 0.960 . S
C1325 H1312 0.961 . S
C1325 H1313 0.959 . S
C1325 C1323 1.561 . S
C1326 C1323 1.526 1_565 S
C1326 C1327 1.396 . S
C1326 C1331 1.390 . S
C1327 C1321 1.465 1_565 S
C1327 C1326 1.396 . S
C1327 C1328 1.399 . S
C1328 H1314 0.929 . S
C1328 C1327 1.399 . S
C1328 C1329 1.385 . S
C1329 H1315 0.931 . S
C1329 C1328 1.385 . S
C1329 C1330 1.389 . S
C1330 C1329 1.389 . S
C1330 C1331 1.387 . S
C1331 H1316 0.930 . S
C1331 C1326 1.390 . S
C1331 C1330 1.387 . S
H1332 C1344 0.930 . S
H1333 C1346 0.930 . S
H1334 C1347 0.930 . S
H1335 C1351 0.959 . S
H1336 C1351 0.959 . S
H1337 C1351 0.961 . S
H1338 C1352 0.960 . S
H1339 C1352 0.961 . S
H1340 C1352 0.959 . S
H1341 C1355 0.929 . S
H1342 C1356 0.931 . S
H1343 C1358 0.930 . S
C1344 H1332 0.930 . S
C1344 C1345 1.399 . S
C1344 C1349 1.399 . S
C1345 C1344 1.399 . S
C1345 C1346 1.376 . S
C1346 H1333 0.930 . S
C1346 C1345 1.376 . S
C1346 C1347 1.388 . S
C1347 H1334 0.930 . S
C1347 C1346 1.388 . S
C1347 C1348 1.390 . S
C1348 C1347 1.390 . S
C1348 C1349 1.394 . S
C1348 C1354 1.465 . S
C1349 C1344 1.399 . S
C1349 C1348 1.394 . S
C1349 C1350 1.516 . S
C1350 C1349 1.516 . S
C1350 C1351 1.502 . S
C1350 C1352 1.561 . S
C1350 C1353 1.526 . S
C1351 H1335 0.959 . S
C1351 H1336 0.959 . S
C1351 H1337 0.961 . S
C1351 C1350 1.502 . S
C1352 H1338 0.960 . S
C1352 H1339 0.961 . S
C1352 H1340 0.959 . S
C1352 C1350 1.561 . S
C1353 C1350 1.526 . S
C1353 C1354 1.396 . S
C1353 C1358 1.390 . S
C1354 C1348 1.465 . S
C1354 C1353 1.396 . S
C1354 C1355 1.399 . S
C1355 H1341 0.929 . S
C1355 C1354 1.399 . S
C1355 C1356 1.385 . S
C1356 H1342 0.931 . S
C1356 C1355 1.385 . S
C1356 C1357 1.389 . S
C1357 C1356 1.389 . S
C1357 C1358 1.387 . S
C1358 H1343 0.930 . S
C1358 C1353 1.390 . S
C1358 C1357 1.387 . S
H1359 C1371 0.930 . S
H1360 C1373 0.930 . S
H1361 C1374 0.930 . S
H1362 C1378 0.959 . S
H1363 C1378 0.959 . S
H1364 C1378 0.961 . S
H1365 C1379 0.960 . S
H1366 C1379 0.961 . S
H1367 C1379 0.959 . S
H1368 C1382 0.929 . S
H1369 C1383 0.931 . S
H1370 C1385 0.930 . S
C1371 H1359 0.930 . S
C1371 C1372 1.399 . S
C1371 C1376 1.399 . S
C1372 C1371 1.399 . S
C1372 C1373 1.376 . S
C1373 H1360 0.930 . S
C1373 C1372 1.376 . S
C1373 C1374 1.388 . S
C1374 H1361 0.930 . S
C1374 C1373 1.388 . S
C1374 C1375 1.390 . S
C1375 C1374 1.390 . S
C1375 C1376 1.394 . S
C1375 C1381 1.465 . S
C1376 C1371 1.399 . S
C1376 C1375 1.394 . S
C1376 C1377 1.516 . S
C1377 C1376 1.516 . S
C1377 C1378 1.502 . S
C1377 C1379 1.561 . S
C1377 C1380 1.526 . S
C1378 H1362 0.959 . S
C1378 H1363 0.959 . S
C1378 H1364 0.961 . S
C1378 C1377 1.502 . S
C1379 H1365 0.960 . S
C1379 H1366 0.961 . S
C1379 H1367 0.959 . S
C1379 C1377 1.561 . S
C1380 C1377 1.526 . S
C1380 C1381 1.396 . S
C1380 C1385 1.390 . S
C1381 C1375 1.465 . S
C1381 C1380 1.396 . S
C1381 C1382 1.399 . S
C1382 H1368 0.929 . S
C1382 C1381 1.399 . S
C1382 C1383 1.385 . S
C1383 H1369 0.931 . S
C1383 C1382 1.385 . S
C1383 C1384 1.389 . S
C1384 C1383 1.389 . S
C1384 C1385 1.387 . S
C1385 H1370 0.930 . S
C1385 C1380 1.390 . S
C1385 C1384 1.387 . S
H1386 C1398 0.930 . S
H1387 C1400 0.930 . S
H1388 C1401 0.930 . S
H1389 C1405 0.959 . S
H1390 C1405 0.959 . S
H1391 C1405 0.961 . S
H1392 C1406 0.960 . S
H1393 C1406 0.961 . S
H1394 C1406 0.959 . S
H1395 C1409 0.929 . S
H1396 C1410 0.931 . S
H1397 C1412 0.930 . S
C1398 H1386 0.930 . S
C1398 C1399 1.399 . S
C1398 C1403 1.399 . S
C1399 C1398 1.399 . S
C1399 C1400 1.376 . S
C1400 H1387 0.930 . S
C1400 C1399 1.376 . S
C1400 C1401 1.388 . S
C1401 H1388 0.930 . S
C1401 C1400 1.388 . S
C1401 C1402 1.390 . S
C1402 C1401 1.390 . S
C1402 C1403 1.394 . S
C1402 C1408 1.465 . S
C1403 C1398 1.399 . S
C1403 C1402 1.394 . S
C1403 C1404 1.516 . S
C1404 C1403 1.516 . S
C1404 C1405 1.502 . S
C1404 C1406 1.561 . S
C1404 C1407 1.526 . S
C1405 H1389 0.959 . S
C1405 H1390 0.959 . S
C1405 H1391 0.961 . S
C1405 C1404 1.502 . S
C1406 H1392 0.960 . S
C1406 H1393 0.961 . S
C1406 H1394 0.959 . S
C1406 C1404 1.561 . S
C1407 C1404 1.526 . S
C1407 C1408 1.396 . S
C1407 C1412 1.390 . S
C1408 C1402 1.465 . S
C1408 C1407 1.396 . S
C1408 C1409 1.399 . S
C1409 H1395 0.929 . S
C1409 C1408 1.399 . S
C1409 C1410 1.385 . S
C1410 H1396 0.931 . S
C1410 C1409 1.385 . S
C1410 C1411 1.389 . S
C1411 C1410 1.389 . S
C1411 C1412 1.387 . S
C1412 H1397 0.930 . S
C1412 C1407 1.390 . S
C1412 C1411 1.387 . S
H1413 C1425 0.930 . S
H1414 C1427 0.930 . S
H1415 C1428 0.930 . S
H1416 C1432 0.959 . S
H1417 C1432 0.959 . S
H1418 C1432 0.961 . S
H1419 C1433 0.960 . S
H1420 C1433 0.961 . S
H1421 C1433 0.959 . S
H1422 C1436 0.929 . S
H1423 C1437 0.931 . S
H1424 C1439 0.930 . S
C1425 H1413 0.930 . S
C1425 C1426 1.399 . S
C1425 C1430 1.399 . S
C1426 C1425 1.399 . S
C1426 C1427 1.376 . S
C1427 H1414 0.930 . S
C1427 C1426 1.376 . S
C1427 C1428 1.388 . S
C1428 H1415 0.930 . S
C1428 C1427 1.388 . S
C1428 C1429 1.390 . S
C1429 C1428 1.390 . S
C1429 C1430 1.394 . S
C1429 C1435 1.465 . S
C1430 C1425 1.399 . S
C1430 C1429 1.394 . S
C1430 C1431 1.516 . S
C1431 C1430 1.516 . S
C1431 C1432 1.502 . S
C1431 C1433 1.561 . S
C1431 C1434 1.526 . S
C1432 H1416 0.959 . S
C1432 H1417 0.959 . S
C1432 H1418 0.961 . S
C1432 C1431 1.502 . S
C1433 H1419 0.960 . S
C1433 H1420 0.961 . S
C1433 H1421 0.959 . S
C1433 C1431 1.561 . S
C1434 C1431 1.526 . S
C1434 C1435 1.396 . S
C1434 C1439 1.390 . S
C1435 C1429 1.465 . S
C1435 C1434 1.396 . S
C1435 C1436 1.399 . S
C1436 H1422 0.929 . S
C1436 C1435 1.399 . S
C1436 C1437 1.385 . S
C1437 H1423 0.931 . S
C1437 C1436 1.385 . S
C1437 C1438 1.389 . S
C1438 C1437 1.389 . S
C1438 C1439 1.387 . S
C1439 H1424 0.930 . S
C1439 C1434 1.390 . S
C1439 C1438 1.387 . S
H1440 C1452 0.930 . S
H1441 C1454 0.930 . S
H1442 C1455 0.930 . S
H1443 C1459 0.959 . S
H1444 C1459 0.959 . S
H1445 C1459 0.961 . S
H1446 C1460 0.960 . S
H1447 C1460 0.961 . S
H1448 C1460 0.959 . S
H1449 C1463 0.929 . S
H1450 C1464 0.931 . S
H1451 C1466 0.930 . S
C1452 H1440 0.930 . S
C1452 C1453 1.399 . S
C1452 C1457 1.399 . S
C1453 C1452 1.399 . S
C1453 C1454 1.376 . S
C1454 H1441 0.930 . S
C1454 C1453 1.376 . S
C1454 C1455 1.388 . S
C1455 H1442 0.930 . S
C1455 C1454 1.388 . S
C1455 C1456 1.390 . S
C1456 C1455 1.390 . S
C1456 C1457 1.394 . S
C1456 C1462 1.465 . S
C1457 C1452 1.399 . S
C1457 C1456 1.394 . S
C1457 C1458 1.516 . S
C1458 C1457 1.516 . S
C1458 C1459 1.502 . S
C1458 C1460 1.561 . S
C1458 C1461 1.526 . S
C1459 H1443 0.959 . S
C1459 H1444 0.959 . S
C1459 H1445 0.961 . S
C1459 C1458 1.502 . S
C1460 H1446 0.960 . S
C1460 H1447 0.961 . S
C1460 H1448 0.959 . S
C1460 C1458 1.561 . S
C1461 C1458 1.526 . S
C1461 C1462 1.396 . S
C1461 C1466 1.390 . S
C1462 C1456 1.465 . S
C1462 C1461 1.396 . S
C1462 C1463 1.399 . S
C1463 H1449 0.929 . S
C1463 C1462 1.399 . S
C1463 C1464 1.385 . S
C1464 H1450 0.931 . S
C1464 C1463 1.385 . S
C1464 C1465 1.389 . S
C1465 C1464 1.389 . S
C1465 C1466 1.387 . S
C1466 H1451 0.930 . S
C1466 C1461 1.390 . S
C1466 C1465 1.387 . S
H1467 C1479 0.930 . S
H1468 C1481 0.930 . S
H1469 C1482 0.930 . S
H1470 C1486 0.959 . S
H1471 C1486 0.959 . S
H1472 C1486 0.961 . S
H1473 C1487 0.960 . S
H1474 C1487 0.961 . S
H1475 C1487 0.959 . S
H1476 C1490 0.929 . S
H1477 C1491 0.931 . S
H1478 C1493 0.930 . S
C1479 H1467 0.930 . S
C1479 C1480 1.399 . S
C1479 C1484 1.399 . S
C1480 C1479 1.399 . S
C1480 C1481 1.376 . S
C1481 H1468 0.930 . S
C1481 C1480 1.376 . S
C1481 C1482 1.388 . S
C1482 H1469 0.930 . S
C1482 C1481 1.388 . S
C1482 C1483 1.390 . S
C1483 C1482 1.390 . S
C1483 C1484 1.394 . S
C1483 C1489 1.465 . S
C1484 C1479 1.399 . S
C1484 C1483 1.394 . S
C1484 C1485 1.516 . S
C1485 C1484 1.516 . S
C1485 C1486 1.502 . S
C1485 C1487 1.561 . S
C1485 C1488 1.526 . S
C1486 H1470 0.959 . S
C1486 H1471 0.959 . S
C1486 H1472 0.961 . S
C1486 C1485 1.502 . S
C1487 H1473 0.960 . S
C1487 H1474 0.961 . S
C1487 H1475 0.959 . S
C1487 C1485 1.561 . S
C1488 C1485 1.526 . S
C1488 C1489 1.396 . S
C1488 C1493 1.390 . S
C1489 C1483 1.465 . S
C1489 C1488 1.396 . S
C1489 C1490 1.399 . S
C1490 H1476 0.929 . S
C1490 C1489 1.399 . S
C1490 C1491 1.385 . S
C1491 H1477 0.931 . S
C1491 C1490 1.385 . S
C1491 C1492 1.389 . S
C1492 C1491 1.389 . S
C1492 C1493 1.387 . S
C1493 H1478 0.930 . S
C1493 C1488 1.390 . S
C1493 C1492 1.387 . S
H1494 C1506 0.930 . S
H1495 C1508 0.930 . S
H1496 C1509 0.930 . S
H1497 C1513 0.968 . S
H1498 C1513 0.949 1_545 S
H1499 C1513 0.980 1_556 S
H1500 C1514 0.960 . S
H1501 C1514 0.961 . S
H1502 C1514 0.959 . S
H1503 C1517 0.929 . S
H1504 C1518 0.931 . S
H1505 C1520 0.930 . S
C1506 H1494 0.930 . S
C1506 C1507 1.399 . S
C1506 C1511 1.399 . S
C1507 C1506 1.399 . S
C1507 C1508 1.376 . S
C1508 H1495 0.930 . S
C1508 C1507 1.376 . S
C1508 C1509 1.388 . S
C1509 H1496 0.930 . S
C1509 C1508 1.388 . S
C1509 C1510 1.390 . S
C1510 C1509 1.390 . S
C1510 C1511 1.394 . S
C1510 C1516 1.465 1_566 S
C1511 C1506 1.399 . S
C1511 C1510 1.394 . S
C1511 C1512 1.516 1_565 S
C1512 C1511 1.516 1_545 S
C1512 C1513 1.485 1_546 S
C1512 C1514 1.561 . S
C1512 C1515 1.526 1_556 S
C1513 H1497 0.968 . S
C1513 H1498 0.949 1_565 S
C1513 H1499 0.980 1_554 S
C1513 C1512 1.485 1_564 S
C1514 H1500 0.960 . S
C1514 H1501 0.961 . S
C1514 H1502 0.959 . S
C1514 C1512 1.561 . S
C1515 C1512 1.526 1_554 S
C1515 C1516 1.396 . S
C1515 C1520 1.390 . S
C1516 C1510 1.465 1_544 S
C1516 C1515 1.396 . S
C1516 C1517 1.399 . S
C1517 H1503 0.929 . S
C1517 C1516 1.399 . S
C1517 C1518 1.385 . S
C1518 H1504 0.931 . S
C1518 C1517 1.385 . S
C1518 C1519 1.389 . S
C1519 C1518 1.389 . S
C1519 C1520 1.387 . S
C1520 H1505 0.930 . S
C1520 C1515 1.390 . S
C1520 C1519 1.387 . S
H1521 C1533 0.930 . S
H1522 C1535 0.930 . S
H1523 C1536 0.930 . S
H1524 C1540 0.959 . S
H1525 C1540 0.959 . S
H1526 C1540 0.961 . S
H1527 C1541 0.960 . S
H1528 C1541 0.961 . S
H1529 C1541 0.959 . S
H1530 C1544 0.929 . S
H1531 C1545 0.931 . S
H1532 C1547 0.930 . S
C1533 H1521 0.930 . S
C1533 C1534 1.399 . S
C1533 C1538 1.399 . S
C1534 C1533 1.399 . S
C1534 C1535 1.376 . S
C1535 H1522 0.930 . S
C1535 C1534 1.376 . S
C1535 C1536 1.388 . S
C1536 H1523 0.930 . S
C1536 C1535 1.388 . S
C1536 C1537 1.390 . S
C1537 C1536 1.390 . S
C1537 C1538 1.394 . S
C1537 C1543 1.465 . S
C1538 C1533 1.399 . S
C1538 C1537 1.394 . S
C1538 C1539 1.516 . S
C1539 C1538 1.516 . S
C1539 C1540 1.502 . S
C1539 C1541 1.561 . S
C1539 C1542 1.526 . S
C1540 H1524 0.959 . S
C1540 H1525 0.959 . S
C1540 H1526 0.961 . S
C1540 C1539 1.502 . S
C1541 H1527 0.960 . S
C1541 H1528 0.961 . S
C1541 H1529 0.959 . S
C1541 C1539 1.561 . S
C1542 C1539 1.526 . S
C1542 C1543 1.396 . S
C1542 C1547 1.390 . S
C1543 C1537 1.465 . S
C1543 C1542 1.396 . S
C1543 C1544 1.399 . S
C1544 H1530 0.929 . S
C1544 C1543 1.399 . S
C1544 C1545 1.385 . S
C1545 H1531 0.931 . S
C1545 C1544 1.385 . S
C1545 C1546 1.389 . S
C1546 C1545 1.389 . S
C1546 C1547 1.387 . S
C1547 H1532 0.930 . S
C1547 C1542 1.390 . S
C1547 C1546 1.387 . S
H1548 C1560 0.930 . S
H1549 C1562 0.930 . S
H1550 C1563 0.930 1_554 S
H1551 C1567 0.959 . S
H1552 C1567 0.959 . S
H1553 C1567 0.961 . S
H1554 C1568 0.952 1_556 S
H1555 C1568 0.961 1_655 S
H1556 C1568 1.000 . S
H1557 C1571 0.929 . S
H1558 C1572 0.931 . S
H1559 C1574 0.930 . S
C1560 H1548 0.930 . S
C1560 C1561 1.399 . S
C1560 C1565 1.399 . S
C1561 C1560 1.399 . S
C1561 C1562 1.376 . S
C1562 H1549 0.930 . S
C1562 C1561 1.376 . S
C1562 C1563 1.388 . S
C1563 H1550 0.930 1_556 S
C1563 C1562 1.388 . S
C1563 C1564 1.392 . S
C1564 C1563 1.392 . S
C1564 C1565 1.411 . S
C1564 C1570 1.449 1_456 S
C1565 C1560 1.399 . S
C1565 C1564 1.411 . S
C1565 C1566 1.516 1_455 S
C1566 C1565 1.516 1_655 S
C1566 C1567 1.502 . S
C1566 C1568 1.531 1_656 S
C1566 C1569 1.526 1_556 S
C1567 H1551 0.959 . S
C1567 H1552 0.959 . S
C1567 H1553 0.961 . S
C1567 C1566 1.502 . S
C1568 H1554 0.952 1_554 S
C1568 H1555 0.961 1_455 S
C1568 H1556 1.000 . S
C1568 C1566 1.531 1_454 S
C1569 C1566 1.526 1_554 S
C1569 C1570 1.396 . S
C1569 C1574 1.390 . S
C1570 C1564 1.449 1_654 S
C1570 C1569 1.396 . S
C1570 C1571 1.399 . S
C1571 H1557 0.929 . S
C1571 C1570 1.399 . S
C1571 C1572 1.385 . S
C1572 H1558 0.931 . S
C1572 C1571 1.385 . S
C1572 C1573 1.389 . S
C1573 C1572 1.389 . S
C1573 C1574 1.387 . S
C1574 H1559 0.930 . S
C1574 C1569 1.390 . S
C1574 C1573 1.387 . S
H1575 C1587 0.930 . S
H1576 C1589 0.930 . S
H1577 C1590 0.930 . S
H1578 C1594 0.959 1_545 S
H1579 C1594 0.959 . S
H1580 C1594 0.938 1_545 S
H1581 C1595 0.960 . S
H1582 C1595 0.961 . S
H1583 C1595 0.959 . S
H1584 C1598 0.929 . S
H1585 C1599 0.931 . S
H1586 C1601 0.930 . S
C1587 H1575 0.930 . S
C1587 C1588 1.399 . S
C1587 C1592 1.399 . S
C1588 C1587 1.399 . S
C1588 C1589 1.376 . S
C1589 H1576 0.930 . S
C1589 C1588 1.376 . S
C1589 C1590 1.388 . S
C1590 H1577 0.930 . S
C1590 C1589 1.388 . S
C1590 C1591 1.390 . S
C1591 C1590 1.390 . S
C1591 C1592 1.394 . S
C1591 C1597 1.465 1_545 S
C1592 C1587 1.399 . S
C1592 C1591 1.394 . S
C1592 C1593 1.516 1_545 S
C1593 C1592 1.516 1_565 S
C1593 C1594 1.502 . S
C1593 C1595 1.561 . S
C1593 C1596 1.526 . S
C1594 H1578 0.959 1_565 S
C1594 H1579 0.959 . S
C1594 H1580 0.938 1_565 S
C1594 C1593 1.502 . S
C1595 H1581 0.960 . S
C1595 H1582 0.961 . S
C1595 H1583 0.959 . S
C1595 C1593 1.561 . S
C1596 C1593 1.526 . S
C1596 C1597 1.396 . S
C1596 C1601 1.390 . S
C1597 C1591 1.465 1_565 S
C1597 C1596 1.396 . S
C1597 C1598 1.399 . S
C1598 H1584 0.929 . S
C1598 C1597 1.399 . S
C1598 C1599 1.385 . S
C1599 H1585 0.931 . S
C1599 C1598 1.385 . S
C1599 C1600 1.389 . S
C1600 C1599 1.389 . S
C1600 C1601 1.387 . S
C1601 H1586 0.930 . S
C1601 C1596 1.390 . S
C1601 C1600 1.387 . S
H1602 C1614 0.930 . S
H1603 C1616 0.930 . S
H1604 C1617 0.930 1_556 S
H1605 C1621 0.959 . S
H1606 C1621 0.959 . S
H1607 C1621 0.961 . S
H1608 C1622 0.960 . S
H1609 C1622 0.961 . S
H1610 C1622 0.959 . S
H1611 C1625 0.929 . S
H1612 C1626 0.931 . S
H1613 C1628 0.930 . S
C1614 H1602 0.930 . S
C1614 C1615 1.399 . S
C1614 C1619 1.399 . S
C1615 C1614 1.399 . S
C1615 C1616 1.376 . S
C1616 H1603 0.930 . S
C1616 C1615 1.376 . S
C1616 C1617 1.388 . S
C1617 H1604 0.930 1_554 S
C1617 C1616 1.388 . S
C1617 C1618 1.390 . S
C1618 C1617 1.390 . S
C1618 C1619 1.394 . S
C1618 C1624 1.465 1_554 S
C1619 C1614 1.399 . S
C1619 C1618 1.394 . S
C1619 C1620 1.516 . S
C1620 C1619 1.516 . S
C1620 C1621 1.502 . S
C1620 C1622 1.561 . S
C1620 C1623 1.526 1_554 S
C1621 H1605 0.959 . S
C1621 H1606 0.959 . S
C1621 H1607 0.961 . S
C1621 C1620 1.502 . S
C1622 H1608 0.960 . S
C1622 H1609 0.961 . S
C1622 H1610 0.959 . S
C1622 C1620 1.561 . S
C1623 C1620 1.526 1_556 S
C1623 C1624 1.396 . S
C1623 C1628 1.390 . S
C1624 C1618 1.465 1_556 S
C1624 C1623 1.396 . S
C1624 C1625 1.399 . S
C1625 H1611 0.929 . S
C1625 C1624 1.399 . S
C1625 C1626 1.385 . S
C1626 H1612 0.931 . S
C1626 C1625 1.385 . S
C1626 C1627 1.389 . S
C1627 C1626 1.389 . S
C1627 C1628 1.387 . S
C1628 H1613 0.930 . S
C1628 C1623 1.390 . S
C1628 C1627 1.387 . S
H1629 C1641 0.930 . S
H1630 C1643 0.930 . S
H1631 C1644 0.930 . S
H1632 C1648 0.959 1_655 S
H1633 C1648 0.959 1_655 S
H1634 C1648 0.961 . S
H1635 C1649 0.960 . S
H1636 C1649 0.961 . S
H1637 C1649 0.959 . S
H1638 C1652 0.929 . S
H1639 C1653 0.931 . S
H1640 C1655 0.930 . S
C1641 H1629 0.930 . S
C1641 C1642 1.399 . S
C1641 C1646 1.399 . S
C1642 C1641 1.399 . S
C1642 C1643 1.376 . S
C1643 H1630 0.930 . S
C1643 C1642 1.376 . S
C1643 C1644 1.388 . S
C1644 H1631 0.930 . S
C1644 C1643 1.388 . S
C1644 C1645 1.390 . S
C1645 C1644 1.390 . S
C1645 C1646 1.394 . S
C1645 C1651 1.465 1_455 S
C1646 C1641 1.399 . S
C1646 C1645 1.394 . S
C1646 C1647 1.516 . S
C1647 C1646 1.516 . S
C1647 C1648 1.502 . S
C1647 C1649 1.561 . S
C1647 C1650 1.526 1_455 S
C1648 H1632 0.959 1_455 S
C1648 H1633 0.959 1_455 S
C1648 H1634 0.961 . S
C1648 C1647 1.502 . S
C1649 H1635 0.960 . S
C1649 H1636 0.961 . S
C1649 H1637 0.959 . S
C1649 C1647 1.561 . S
C1650 C1647 1.526 1_655 S
C1650 C1651 1.396 . S
C1650 C1655 1.390 . S
C1651 C1645 1.465 1_655 S
C1651 C1650 1.396 . S
C1651 C1652 1.399 . S
C1652 H1638 0.929 . S
C1652 C1651 1.399 . S
C1652 C1653 1.385 . S
C1653 H1639 0.931 . S
C1653 C1652 1.385 . S
C1653 C1654 1.389 . S
C1654 C1653 1.389 . S
C1654 C1655 1.387 . S
C1655 H1640 0.930 . S
C1655 C1650 1.390 . S
C1655 C1654 1.387 . S
H1656 C1668 0.930 . S
H1657 C1670 0.930 . S
H1658 C1671 0.930 . S
H1659 C1675 0.959 . S
H1660 C1675 0.959 . S
H1661 C1675 0.961 . S
H1662 C1676 0.960 . S
H1663 C1676 0.961 . S
H1664 C1676 0.959 . S
H1665 C1679 0.929 . S
H1666 C1680 0.931 . S
H1667 C1682 0.930 . S
C1668 H1656 0.930 . S
C1668 C1669 1.399 . S
C1668 C1673 1.399 . S
C1669 C1668 1.399 . S
C1669 C1670 1.376 . S
C1670 H1657 0.930 . S
C1670 C1669 1.376 . S
C1670 C1671 1.388 . S
C1671 H1658 0.930 . S
C1671 C1670 1.388 . S
C1671 C1672 1.390 . S
C1672 C1671 1.390 . S
C1672 C1673 1.394 . S
C1672 C1678 1.465 . S
C1673 C1668 1.399 . S
C1673 C1672 1.394 . S
C1673 C1674 1.516 . S
C1674 C1673 1.516 . S
C1674 C1675 1.502 . S
C1674 C1676 1.561 . S
C1674 C1677 1.526 . S
C1675 H1659 0.959 . S
C1675 H1660 0.959 . S
C1675 H1661 0.961 . S
C1675 C1674 1.502 . S
C1676 H1662 0.960 . S
C1676 H1663 0.961 . S
C1676 H1664 0.959 . S
C1676 C1674 1.561 . S
C1677 C1674 1.526 . S
C1677 C1678 1.396 . S
C1677 C1682 1.390 . S
C1678 C1672 1.465 . S
C1678 C1677 1.396 . S
C1678 C1679 1.399 . S
C1679 H1665 0.929 . S
C1679 C1678 1.399 . S
C1679 C1680 1.385 . S
C1680 H1666 0.931 . S
C1680 C1679 1.385 . S
C1680 C1681 1.389 . S
C1681 C1680 1.389 . S
C1681 C1682 1.387 . S
C1682 H1667 0.930 . S
C1682 C1677 1.390 . S
C1682 C1681 1.387 . S
H1683 C1695 0.930 . S
H1684 C1697 0.930 . S
H1685 C1698 0.930 . S
H1686 C1702 0.959 . S
H1687 C1702 0.959 . S
H1688 C1702 0.961 . S
H1689 C1703 0.960 . S
H1690 C1703 0.961 . S
H1691 C1703 0.959 . S
H1692 C1706 0.929 . S
H1693 C1707 0.931 . S
H1694 C1709 0.930 . S
C1695 H1683 0.930 . S
C1695 C1696 1.399 . S
C1695 C1700 1.399 . S
C1696 C1695 1.399 . S
C1696 C1697 1.376 . S
C1697 H1684 0.930 . S
C1697 C1696 1.376 . S
C1697 C1698 1.388 . S
C1698 H1685 0.930 . S
C1698 C1697 1.388 . S
C1698 C1699 1.390 . S
C1699 C1698 1.390 . S
C1699 C1700 1.394 . S
C1699 C1705 1.465 . S
C1700 C1695 1.399 . S
C1700 C1699 1.394 . S
C1700 C1701 1.516 . S
C1701 C1700 1.516 . S
C1701 C1702 1.502 . S
C1701 C1703 1.561 . S
C1701 C1704 1.526 . S
C1702 H1686 0.959 . S
C1702 H1687 0.959 . S
C1702 H1688 0.961 . S
C1702 C1701 1.502 . S
C1703 H1689 0.960 . S
C1703 H1690 0.961 . S
C1703 H1691 0.959 . S
C1703 C1701 1.561 . S
C1704 C1701 1.526 . S
C1704 C1705 1.396 . S
C1704 C1709 1.390 . S
C1705 C1699 1.465 . S
C1705 C1704 1.396 . S
C1705 C1706 1.399 . S
C1706 H1692 0.929 . S
C1706 C1705 1.399 . S
C1706 C1707 1.385 . S
C1707 H1693 0.931 . S
C1707 C1706 1.385 . S
C1707 C1708 1.389 . S
C1708 C1707 1.389 . S
C1708 C1709 1.387 . S
C1709 H1694 0.930 . S
C1709 C1704 1.390 . S
C1709 C1708 1.387 . S
H1710 C1722 0.930 . S
H1711 C1724 0.930 . S
H1712 C1725 0.930 . S
H1713 C1729 0.959 . S
H1714 C1729 0.959 . S
H1715 C1729 0.961 . S
H1716 C1730 0.960 . S
H1717 C1730 0.961 . S
H1718 C1730 0.959 . S
H1719 C1733 0.929 . S
H1720 C1734 0.931 . S
H1721 C1736 0.930 . S
C1722 H1710 0.930 . S
C1722 C1723 1.399 . S
C1722 C1727 1.399 . S
C1723 C1722 1.399 . S
C1723 C1724 1.376 . S
C1724 H1711 0.930 . S
C1724 C1723 1.376 . S
C1724 C1725 1.388 . S
C1725 H1712 0.930 . S
C1725 C1724 1.388 . S
C1725 C1726 1.390 . S
C1726 C1725 1.390 . S
C1726 C1727 1.394 . S
C1726 C1732 1.465 . S
C1727 C1722 1.399 . S
C1727 C1726 1.394 . S
C1727 C1728 1.516 . S
C1728 C1727 1.516 . S
C1728 C1729 1.502 . S
C1728 C1730 1.561 . S
C1728 C1731 1.526 . S
C1729 H1713 0.959 . S
C1729 H1714 0.959 . S
C1729 H1715 0.961 . S
C1729 C1728 1.502 . S
C1730 H1716 0.960 . S
C1730 H1717 0.961 . S
C1730 H1718 0.959 . S
C1730 C1728 1.561 . S
C1731 C1728 1.526 . S
C1731 C1732 1.396 . S
C1731 C1736 1.390 . S
C1732 C1726 1.465 . S
C1732 C1731 1.396 . S
C1732 C1733 1.399 . S
C1733 H1719 0.929 . S
C1733 C1732 1.399 . S
C1733 C1734 1.385 . S
C1734 H1720 0.931 . S
C1734 C1733 1.385 . S
C1734 C1735 1.389 . S
C1735 C1734 1.389 . S
C1735 C1736 1.387 . S
C1736 H1721 0.930 . S
C1736 C1731 1.390 . S
C1736 C1735 1.387 . S
H1737 C1749 0.930 . S
H1738 C1751 0.930 . S
H1739 C1752 0.930 . S
H1740 C1756 0.959 . S
H1741 C1756 0.959 . S
H1742 C1756 0.961 . S
H1743 C1757 0.960 . S
H1744 C1757 0.961 . S
H1745 C1757 0.959 . S
H1746 C1760 0.929 . S
H1747 C1761 0.931 . S
H1748 C1763 0.930 . S
C1749 H1737 0.930 . S
C1749 C1750 1.399 . S
C1749 C1754 1.399 . S
C1750 C1749 1.399 . S
C1750 C1751 1.376 . S
C1751 H1738 0.930 . S
C1751 C1750 1.376 . S
C1751 C1752 1.388 . S
C1752 H1739 0.930 . S
C1752 C1751 1.388 . S
C1752 C1753 1.390 . S
C1753 C1752 1.390 . S
C1753 C1754 1.394 . S
C1753 C1759 1.465 . S
C1754 C1749 1.399 . S
C1754 C1753 1.394 . S
C1754 C1755 1.516 . S
C1755 C1754 1.516 . S
C1755 C1756 1.502 . S
C1755 C1757 1.561 . S
C1755 C1758 1.526 . S
C1756 H1740 0.959 . S
C1756 H1741 0.959 . S
C1756 H1742 0.961 . S
C1756 C1755 1.502 . S
C1757 H1743 0.960 . S
C1757 H1744 0.961 . S
C1757 H1745 0.959 . S
C1757 C1755 1.561 . S
C1758 C1755 1.526 . S
C1758 C1759 1.396 . S
C1758 C1763 1.390 . S
C1759 C1753 1.465 . S
C1759 C1758 1.396 . S
C1759 C1760 1.399 . S
C1760 H1746 0.929 . S
C1760 C1759 1.399 . S
C1760 C1761 1.385 . S
C1761 H1747 0.931 . S
C1761 C1760 1.385 . S
C1761 C1762 1.389 . S
C1762 C1761 1.389 . S
C1762 C1763 1.387 . S
C1763 H1748 0.930 . S
C1763 C1758 1.390 . S
C1763 C1762 1.387 . S
H1764 C1776 0.930 . S
H1765 C1778 0.930 . S
H1766 C1779 0.930 . S
H1767 C1783 0.959 . S
H1768 C1783 0.959 . S
H1769 C1783 0.961 . S
H1770 C1784 0.960 . S
H1771 C1784 0.961 . S
H1772 C1784 0.959 . S
H1773 C1787 0.929 . S
H1774 C1788 0.931 . S
H1775 C1790 0.930 . S
C1776 H1764 0.930 . S
C1776 C1777 1.399 . S
C1776 C1781 1.399 . S
C1777 C1776 1.399 . S
C1777 C1778 1.376 . S
C1778 H1765 0.930 . S
C1778 C1777 1.376 . S
C1778 C1779 1.388 . S
C1779 H1766 0.930 . S
C1779 C1778 1.388 . S
C1779 C1780 1.390 . S
C1780 C1779 1.390 . S
C1780 C1781 1.394 . S
C1780 C1786 1.465 . S
C1781 C1776 1.399 . S
C1781 C1780 1.394 . S
C1781 C1782 1.516 . S
C1782 C1781 1.516 . S
C1782 C1783 1.502 . S
C1782 C1784 1.561 . S
C1782 C1785 1.526 . S
C1783 H1767 0.959 . S
C1783 H1768 0.959 . S
C1783 H1769 0.961 . S
C1783 C1782 1.502 . S
C1784 H1770 0.960 . S
C1784 H1771 0.961 . S
C1784 H1772 0.959 . S
C1784 C1782 1.561 . S
C1785 C1782 1.526 . S
C1785 C1786 1.396 . S
C1785 C1790 1.390 . S
C1786 C1780 1.465 . S
C1786 C1785 1.396 . S
C1786 C1787 1.399 . S
C1787 H1773 0.929 . S
C1787 C1786 1.399 . S
C1787 C1788 1.385 . S
C1788 H1774 0.931 . S
C1788 C1787 1.385 . S
C1788 C1789 1.389 . S
C1789 C1788 1.389 . S
C1789 C1790 1.387 . S
C1790 H1775 0.930 . S
C1790 C1785 1.390 . S
C1790 C1789 1.387 . S
H1791 C1803 0.930 . S
H1792 C1805 0.930 . S
H1793 C1806 0.930 . S
H1794 C1810 0.959 . S
H1795 C1810 0.959 . S
H1796 C1810 0.961 . S
H1797 C1811 0.960 . S
H1798 C1811 0.961 . S
H1799 C1811 0.959 . S
H1800 C1814 0.929 . S
H1801 C1815 0.931 . S
H1802 C1817 0.930 . S
C1803 H1791 0.930 . S
C1803 C1804 1.399 . S
C1803 C1808 1.399 . S
C1804 C1803 1.399 . S
C1804 C1805 1.376 . S
C1805 H1792 0.930 . S
C1805 C1804 1.376 . S
C1805 C1806 1.388 . S
C1806 H1793 0.930 . S
C1806 C1805 1.388 . S
C1806 C1807 1.390 . S
C1807 C1806 1.390 . S
C1807 C1808 1.394 . S
C1807 C1813 1.465 . S
C1808 C1803 1.399 . S
C1808 C1807 1.394 . S
C1808 C1809 1.516 . S
C1809 C1808 1.516 . S
C1809 C1810 1.502 . S
C1809 C1811 1.561 . S
C1809 C1812 1.526 . S
C1810 H1794 0.959 . S
C1810 H1795 0.959 . S
C1810 H1796 0.961 . S
C1810 C1809 1.502 . S
C1811 H1797 0.960 . S
C1811 H1798 0.961 . S
C1811 H1799 0.959 . S
C1811 C1809 1.561 . S
C1812 C1809 1.526 . S
C1812 C1813 1.396 . S
C1812 C1817 1.390 . S
C1813 C1807 1.465 . S
C1813 C1812 1.396 . S
C1813 C1814 1.399 . S
C1814 H1800 0.929 . S
C1814 C1813 1.399 . S
C1814 C1815 1.385 . S
C1815 H1801 0.931 . S
C1815 C1814 1.385 . S
C1815 C1816 1.389 . S
C1816 C1815 1.389 . S
C1816 C1817 1.387 . S
C1817 H1802 0.930 . S
C1817 C1812 1.390 . S
C1817 C1816 1.387 . S
H1818 C1830 0.930 . S
H1819 C1832 0.930 . S
H1820 C1833 0.930 . S
H1821 C1837 0.959 . S
H1822 C1837 0.959 . S
H1823 C1837 0.961 . S
H1824 C1838 0.960 . S
H1825 C1838 0.961 . S
H1826 C1838 0.959 . S
H1827 C1841 0.929 . S
H1828 C1842 0.931 . S
H1829 C1844 0.930 . S
C1830 H1818 0.930 . S
C1830 C1831 1.399 . S
C1830 C1835 1.399 . S
C1831 C1830 1.399 . S
C1831 C1832 1.376 . S
C1832 H1819 0.930 . S
C1832 C1831 1.376 . S
C1832 C1833 1.388 . S
C1833 H1820 0.930 . S
C1833 C1832 1.388 . S
C1833 C1834 1.390 . S
C1834 C1833 1.390 . S
C1834 C1835 1.394 . S
C1834 C1840 1.465 . S
C1835 C1830 1.399 . S
C1835 C1834 1.394 . S
C1835 C1836 1.516 . S
C1836 C1835 1.516 . S
C1836 C1837 1.502 . S
C1836 C1838 1.561 . S
C1836 C1839 1.526 . S
C1837 H1821 0.959 . S
C1837 H1822 0.959 . S
C1837 H1823 0.961 . S
C1837 C1836 1.502 . S
C1838 H1824 0.960 . S
C1838 H1825 0.961 . S
C1838 H1826 0.959 . S
C1838 C1836 1.561 . S
C1839 C1836 1.526 . S
C1839 C1840 1.396 . S
C1839 C1844 1.390 . S
C1840 C1834 1.465 . S
C1840 C1839 1.396 . S
C1840 C1841 1.399 . S
C1841 H1827 0.929 . S
C1841 C1840 1.399 . S
C1841 C1842 1.385 . S
C1842 H1828 0.931 . S
C1842 C1841 1.385 . S
C1842 C1843 1.389 . S
C1843 C1842 1.389 . S
C1843 C1844 1.387 . S
C1844 H1829 0.930 . S
C1844 C1839 1.390 . S
C1844 C1843 1.387 . S
H1845 C1857 0.930 . S
H1846 C1859 0.930 . S
H1847 C1860 0.930 . S
H1848 C1864 0.959 . S
H1849 C1864 0.959 . S
H1850 C1864 0.961 . S
H1851 C1865 0.960 . S
H1852 C1865 0.961 . S
H1853 C1865 0.959 . S
H1854 C1868 0.929 . S
H1855 C1869 0.931 . S
H1856 C1871 0.930 . S
C1857 H1845 0.930 . S
C1857 C1858 1.399 . S
C1857 C1862 1.399 . S
C1858 C1857 1.399 . S
C1858 C1859 1.376 . S
C1859 H1846 0.930 . S
C1859 C1858 1.376 . S
C1859 C1860 1.388 . S
C1860 H1847 0.930 . S
C1860 C1859 1.388 . S
C1860 C1861 1.390 . S
C1861 C1860 1.390 . S
C1861 C1862 1.394 . S
C1861 C1867 1.465 . S
C1862 C1857 1.399 . S
C1862 C1861 1.394 . S
C1862 C1863 1.516 . S
C1863 C1862 1.516 . S
C1863 C1864 1.502 . S
C1863 C1865 1.561 . S
C1863 C1866 1.526 . S
C1864 H1848 0.959 . S
C1864 H1849 0.959 . S
C1864 H1850 0.961 . S
C1864 C1863 1.502 . S
C1865 H1851 0.960 . S
C1865 H1852 0.961 . S
C1865 H1853 0.959 . S
C1865 C1863 1.561 . S
C1866 C1863 1.526 . S
C1866 C1867 1.396 . S
C1866 C1871 1.390 . S
C1867 C1861 1.465 . S
C1867 C1866 1.396 . S
C1867 C1868 1.399 . S
C1868 H1854 0.929 . S
C1868 C1867 1.399 . S
C1868 C1869 1.385 . S
C1869 H1855 0.931 . S
C1869 C1868 1.385 . S
C1869 C1870 1.389 . S
C1870 C1869 1.389 . S
C1870 C1871 1.387 . S
C1871 H1856 0.930 . S
C1871 C1866 1.390 . S
C1871 C1870 1.387 . S
H1872 C1884 0.930 . S
H1873 C1886 0.930 . S
H1874 C1887 0.930 . S
H1875 C1891 0.959 . S
H1876 C1891 0.959 . S
H1877 C1891 0.961 . S
H1878 C1892 0.960 . S
H1879 C1892 0.961 . S
H1880 C1892 0.959 . S
H1881 C1895 0.929 . S
H1882 C1896 0.931 . S
H1883 C1898 0.930 . S
C1884 H1872 0.930 . S
C1884 C1885 1.399 . S
C1884 C1889 1.399 . S
C1885 C1884 1.399 . S
C1885 C1886 1.376 . S
C1886 H1873 0.930 . S
C1886 C1885 1.376 . S
C1886 C1887 1.388 . S
C1887 H1874 0.930 . S
C1887 C1886 1.388 . S
C1887 C1888 1.390 . S
C1888 C1887 1.390 . S
C1888 C1889 1.394 . S
C1888 C1894 1.465 . S
C1889 C1884 1.399 . S
C1889 C1888 1.394 . S
C1889 C1890 1.516 . S
C1890 C1889 1.516 . S
C1890 C1891 1.502 . S
C1890 C1892 1.561 . S
C1890 C1893 1.526 . S
C1891 H1875 0.959 . S
C1891 H1876 0.959 . S
C1891 H1877 0.961 . S
C1891 C1890 1.502 . S
C1892 H1878 0.960 . S
C1892 H1879 0.961 . S
C1892 H1880 0.959 . S
C1892 C1890 1.561 . S
C1893 C1890 1.526 . S
C1893 C1894 1.396 . S
C1893 C1898 1.390 . S
C1894 C1888 1.465 . S
C1894 C1893 1.396 . S
C1894 C1895 1.399 . S
C1895 H1881 0.929 . S
C1895 C1894 1.399 . S
C1895 C1896 1.385 . S
C1896 H1882 0.931 . S
C1896 C1895 1.385 . S
C1896 C1897 1.389 . S
C1897 C1896 1.389 . S
C1897 C1898 1.387 . S
C1898 H1883 0.930 . S
C1898 C1893 1.390 . S
C1898 C1897 1.387 . S
H1899 C1911 0.930 . S
H1900 C1913 0.930 . S
H1901 C1914 0.930 . S
H1902 C1918 0.959 . S
H1903 C1918 0.959 . S
H1904 C1918 0.961 . S
H1905 C1919 0.960 . S
H1906 C1919 0.961 . S
H1907 C1919 0.959 . S
H1908 C1922 0.929 . S
H1909 C1923 0.931 . S
H1910 C1925 0.930 . S
C1911 H1899 0.930 . S
C1911 C1912 1.399 . S
C1911 C1916 1.399 . S
C1912 C1911 1.399 . S
C1912 C1913 1.376 . S
C1913 H1900 0.930 . S
C1913 C1912 1.376 . S
C1913 C1914 1.388 . S
C1914 H1901 0.930 . S
C1914 C1913 1.388 . S
C1914 C1915 1.390 . S
C1915 C1914 1.390 . S
C1915 C1916 1.394 . S
C1915 C1921 1.465 . S
C1916 C1911 1.399 . S
C1916 C1915 1.394 . S
C1916 C1917 1.516 . S
C1917 C1916 1.516 . S
C1917 C1918 1.502 . S
C1917 C1919 1.561 . S
C1917 C1920 1.526 . S
C1918 H1902 0.959 . S
C1918 H1903 0.959 . S
C1918 H1904 0.961 . S
C1918 C1917 1.502 . S
C1919 H1905 0.960 . S
C1919 H1906 0.961 . S
C1919 H1907 0.959 . S
C1919 C1917 1.561 . S
C1920 C1917 1.526 . S
C1920 C1921 1.396 . S
C1920 C1925 1.390 . S
C1921 C1915 1.465 . S
C1921 C1920 1.396 . S
C1921 C1922 1.399 . S
C1922 H1908 0.929 . S
C1922 C1921 1.399 . S
C1922 C1923 1.385 . S
C1923 H1909 0.931 . S
C1923 C1922 1.385 . S
C1923 C1924 1.389 . S
C1924 C1923 1.389 . S
C1924 C1925 1.387 . S
C1925 H1910 0.930 . S
C1925 C1920 1.390 . S
C1925 C1924 1.387 . S
H1926 C1938 0.930 . S
H1927 C1940 0.930 . S
H1928 C1941 0.930 . S
H1929 C1945 0.959 . S
H1930 C1945 0.959 . S
H1931 C1945 0.961 . S
H1932 C1946 0.960 . S
H1933 C1946 0.961 . S
H1934 C1946 0.959 . S
H1935 C1949 0.929 . S
H1936 C1950 0.931 . S
H1937 C1952 0.930 . S
C1938 H1926 0.930 . S
C1938 C1939 1.399 . S
C1938 C1943 1.399 . S
C1939 C1938 1.399 . S
C1939 C1940 1.376 . S
C1940 H1927 0.930 . S
C1940 C1939 1.376 . S
C1940 C1941 1.388 . S
C1941 H1928 0.930 . S
C1941 C1940 1.388 . S
C1941 C1942 1.390 . S
C1942 C1941 1.390 . S
C1942 C1943 1.394 . S
C1942 C1948 1.465 . S
C1943 C1938 1.399 . S
C1943 C1942 1.394 . S
C1943 C1944 1.516 . S
C1944 C1943 1.516 . S
C1944 C1945 1.502 . S
C1944 C1946 1.561 . S
C1944 C1947 1.526 . S
C1945 H1929 0.959 . S
C1945 H1930 0.959 . S
C1945 H1931 0.961 . S
C1945 C1944 1.502 . S
C1946 H1932 0.960 . S
C1946 H1933 0.961 . S
C1946 H1934 0.959 . S
C1946 C1944 1.561 . S
C1947 C1944 1.526 . S
C1947 C1948 1.396 . S
C1947 C1952 1.390 . S
C1948 C1942 1.465 . S
C1948 C1947 1.396 . S
C1948 C1949 1.399 . S
C1949 H1935 0.929 . S
C1949 C1948 1.399 . S
C1949 C1950 1.385 . S
C1950 H1936 0.931 . S
C1950 C1949 1.385 . S
C1950 C1951 1.389 . S
C1951 C1950 1.389 . S
C1951 C1952 1.387 . S
C1952 H1937 0.930 . S
C1952 C1947 1.390 . S
C1952 C1951 1.387 . S
H1953 C1965 0.930 . S
H1954 C1967 0.930 . S
H1955 C1968 0.930 . S
H1956 C1972 0.959 . S
H1957 C1972 0.959 . S
H1958 C1972 0.961 . S
H1959 C1973 0.960 . S
H1960 C1973 0.961 . S
H1961 C1973 0.959 . S
H1962 C1976 0.929 . S
H1963 C1977 0.931 . S
H1964 C1979 0.930 . S
C1965 H1953 0.930 . S
C1965 C1966 1.399 . S
C1965 C1970 1.399 . S
C1966 C1965 1.399 . S
C1966 C1967 1.376 . S
C1967 H1954 0.930 . S
C1967 C1966 1.376 . S
C1967 C1968 1.388 . S
C1968 H1955 0.930 . S
C1968 C1967 1.388 . S
C1968 C1969 1.390 . S
C1969 C1968 1.390 . S
C1969 C1970 1.394 . S
C1969 C1975 1.465 . S
C1970 C1965 1.399 . S
C1970 C1969 1.394 . S
C1970 C1971 1.516 . S
C1971 C1970 1.516 . S
C1971 C1972 1.502 . S
C1971 C1973 1.561 . S
C1971 C1974 1.526 . S
C1972 H1956 0.959 . S
C1972 H1957 0.959 . S
C1972 H1958 0.961 . S
C1972 C1971 1.502 . S
C1973 H1959 0.960 . S
C1973 H1960 0.961 . S
C1973 H1961 0.959 . S
C1973 C1971 1.561 . S
C1974 C1971 1.526 . S
C1974 C1975 1.396 . S
C1974 C1979 1.390 . S
C1975 C1969 1.465 . S
C1975 C1974 1.396 . S
C1975 C1976 1.399 . S
C1976 H1962 0.929 . S
C1976 C1975 1.399 . S
C1976 C1977 1.385 . S
C1977 H1963 0.931 . S
C1977 C1976 1.385 . S
C1977 C1978 1.389 . S
C1978 C1977 1.389 . S
C1978 C1979 1.387 . S
C1979 H1964 0.930 . S
C1979 C1974 1.390 . S
C1979 C1978 1.387 . S
C1021 C238 1.144 . S
C1033 C67 1.284 . S
C1048 C310 1.183 . S
C1060 C140 1.260 . S
C1075 C235 1.349 . S
C1087 C406 1.258 . S
C1102 C308 1.322 . S
C1114 C478 1.283 . S
C1129 C70 1.143 . S
C1141 C403 1.282 . S
C1156 C142 1.239 . S
C1168 C476 1.349 . S
C1183 C898 1.273 . S
C1195 C560 1.340 . S
C1210 C655 1.259 . S
C1222 C994 1.152 . S
C1237 C728 1.325 . S
C1249 C562 1.161 . S
C1264 C823 1.345 . S
C1276 C658 1.282 . S
C1291 C896 1.271 . S
C1303 C730 1.241 . S
C1318 C826 1.183 . S
C1330 C991 1.267 . S
C1345 C326 1.922 . S
C1357 C63 1.933 . S
C1372 C158 1.960 . S
C1384 C399 1.959 . S
C1399 C231 1.907 . S
C1411 C494 1.918 . S
C1426 C578 1.896 . S
C1438 C819 1.891 . S
C1453 C651 1.888 . S
C1465 C914 1.893 . S
C1480 C746 1.958 . S
C1492 C987 1.952 . S
C1507 C662 2.160 . S
C1519 C74 2.159 . S
C1534 C147 2.111 . S
C1546 C735 2.105 . S
C1561 C830 2.140 . S
C1573 C242 2.104 . S
C1588 C315 2.113 . S
C1600 C903 2.104 . S
C1615 C410 2.168 . S
C1627 C998 2.147 . S
C1642 C567 2.164 . S
C1654 C483 2.167 . S
C1669 C226 1.254 . S
C1681 C56 1.370 . S
C1696 C151 1.453 . S
C1708 C322 1.341 . S
C1723 C224 1.393 . S
C1735 C394 1.376 . S
C1750 C319 1.351 . S
C1762 C490 1.258 . S
C1777 C58 1.325 . S
C1789 C392 1.451 . S
C1804 C154 1.370 . S
C1816 C487 1.448 . S
C1831 C910 1.365 . S
C1843 C571 1.402 . S
C1858 C644 1.414 . S
C1870 C982 1.239 . S
C1885 C739 1.352 . S
C1897 C574 1.284 . S
C1912 C646 1.302 . S
C1924 C812 1.352 . S
C1939 C907 1.351 . S
C1951 C742 1.259 . S
C1966 C980 1.411 . S
C1978 C814 1.238 . S
