# Generated by pormake.
# Topology qtz-e, (6)-cn, num edge types: 1
# Building blocks:
#     Node 0, Type 0, BuildingBlock: PAMTUU_clean_sbu_0, # of connection points: 6
#     Node 1, Type 0, BuildingBlock: PAMTUU_clean_sbu_0, # of connection points: 6
#     Node 2, Type 0, BuildingBlock: PAMTUU_clean_sbu_0, # of connection points: 6
#     Node 3, Type 0, BuildingBlock: PAMTUU_clean_sbu_0, # of connection points: 6
#     Node 4, Type 0, BuildingBlock: PAMTUU_clean_sbu_0, # of connection points: 6
#     Node 5, Type 0, BuildingBlock: PAMTUU_clean_sbu_0, # of connection points: 6
#     Edge 6, Type (0, 0), BuildingBlock: TEMPAE_clean_linker_10, # of connection points: 2
#     Edge 7, Type (0, 0), BuildingBlock: TEMPAE_clean_linker_10, # of connection points: 2
#     Edge 8, Type (0, 0), BuildingBlock: TEMPAE_clean_linker_10, # of connection points: 2
#     Edge 9, Type (0, 0), BuildingBlock: TEMPAE_clean_linker_10, # of connection points: 2
#     Edge 10, Type (0, 0), BuildingBlock: TEMPAE_clean_linker_10, # of connection points: 2
#     Edge 11, Type (0, 0), BuildingBlock: TEMPAE_clean_linker_10, # of connection points: 2
#     Edge 12, Type (0, 0), BuildingBlock: TEMPAE_clean_linker_10, # of connection points: 2
#     Edge 13, Type (0, 0), BuildingBlock: TEMPAE_clean_linker_10, # of connection points: 2
#     Edge 14, Type (0, 0), BuildingBlock: TEMPAE_clean_linker_10, # of connection points: 2
#     Edge 15, Type (0, 0), BuildingBlock: TEMPAE_clean_linker_10, # of connection points: 2
#     Edge 16, Type (0, 0), BuildingBlock: TEMPAE_clean_linker_10, # of connection points: 2
#     Edge 17, Type (0, 0), BuildingBlock: TEMPAE_clean_linker_10, # of connection points: 2
#     Edge 18, Type (0, 0), BuildingBlock: TEMPAE_clean_linker_10, # of connection points: 2
#     Edge 19, Type (0, 0), BuildingBlock: TEMPAE_clean_linker_10, # of connection points: 2
#     Edge 20, Type (0, 0), BuildingBlock: TEMPAE_clean_linker_10, # of connection points: 2
#     Edge 21, Type (0, 0), BuildingBlock: TEMPAE_clean_linker_10, # of connection points: 2
#     Edge 22, Type (0, 0), BuildingBlock: TEMPAE_clean_linker_10, # of connection points: 2
#     Edge 23, Type (0, 0), BuildingBlock: TEMPAE_clean_linker_10, # of connection points: 2
# Relax obj value: 0.193
# Max RMSD: 0.211
# Mean RMSD: 0.211
data_MOF--net-qtz-e--node1-PAMTUU_clean_sbu_0--edge1-TEMPAE_clean_linker_10
_symmetry_space_group_name_H-M    P1
_symmetry_Int_Tables_number       1
_symmetry_cell_setting            triclinic
loop_
_symmetry_equiv_pos_as_xyz
'x, y, z'
_cell_length_a     27.157011
_cell_length_b     27.151004
_cell_length_c     51.577728
_cell_angle_alpha  89.824181
_cell_angle_beta   90.256868
_cell_angle_gamma 120.13441
loop_
_atom_site_label
_atom_site_type_symbol
_atom_site_fract_x
_atom_site_fract_y
_atom_site_fract_z
_atom_type_partial_charge
Tb0 Tb 0.23404 0.34274 0.10567 0.0
Tb1 Tb 0.27525 0.46575 0.07585 0.0
C2 C 0.35863 0.44195 0.10756 0.0
C3 C 0.16697 0.23837 0.15768 0.0
C4 C 0.11159 0.21854 0.20628 0.0
C5 C 0.1644 0.22097 0.2042 0.0
C6 C 0.19159 0.23048 0.18017 0.0
C7 C 0.11389 0.23551 0.1597 0.0
C8 C 0.08638 0.22534 0.1837 0.0
C9 C 0.19934 0.25448 0.13296 0.0
O10 O 0.24388 0.40411 0.13535 0.0
O11 O 0.24241 0.47655 0.11229 0.0
O12 O 0.18774 0.40438 0.06621 0.0
O13 O 0.16228 0.35675 0.10415 0.0
O14 O 0.34125 0.54556 0.06407 0.0
O15 O 0.25428 0.51729 0.05317 0.0
O16 O 0.29808 0.41641 0.05089 0.0
O17 O 0.23472 0.32511 0.06427 0.0
O18 O 0.32661 0.38744 0.10229 0.0
O19 O 0.3398 0.47741 0.10386 0.0
C20 C 0.23836 0.44964 0.13413 0.0
O21 O 0.17289 0.2567 0.11213 0.0
O22 O 0.25091 0.29803 0.13439 0.0
C23 C 0.15043 0.38027 0.08476 0.0
C24 C 0.32522 0.56842 0.02175 0.0
C25 C 0.3586 0.59636 0.96952 0.0
C26 C 0.30964 0.59564 0.97891 0.0
C27 C 0.29333 0.58211 1.0048 0.0
C28 C 0.37338 0.5678 0.01226 0.0
C29 C 0.38997 0.58182 0.98648 0.0
C30 C 0.30771 0.55447 0.0491 0.0
C31 C 0.26884 0.36132 0.04661 0.0
H32 H 0.18465 0.21534 0.2212 0.0
H33 H 0.23257 0.23283 0.17924 0.0
H34 H 0.09399 0.24224 0.14287 0.0
H35 H 0.046 0.22421 0.18469 0.0
H36 H 0.28395 0.60572 0.96628 0.0
H37 H 0.2558 0.58243 0.0116 0.0
H38 H 0.39879 0.55708 0.02476 0.0
H39 H 0.42833 0.58272 0.98008 0.0
Tb40 Tb 0.77039 0.12328 0.47874 0.0
Tb41 Tb 0.69813 0.17862 0.50617 0.0
C42 C 0.63816 0.06465 0.47553 0.0
C43 C 0.86018 0.10464 0.43021 0.0
C44 C 0.91808 0.13476 0.38201 0.0
C45 C 0.88975 0.07786 0.39076 0.0
C46 C 0.86131 0.0631 0.41457 0.0
C47 C 0.88807 0.16146 0.42163 0.0
C48 C 0.91696 0.1764 0.39787 0.0
C49 C 0.82674 0.08727 0.45446 0.0
O50 O 0.74699 0.16204 0.44753 0.0
O51 O 0.72706 0.22367 0.46974 0.0
O52 O 0.78565 0.22446 0.5193 0.0
O53 O 0.82599 0.21502 0.48268 0.0
O54 O 0.61965 0.16683 0.51849 0.0
O55 O 0.69633 0.24838 0.52277 0.0
O56 O 0.69521 0.11733 0.53401 0.0
O57 O 0.76721 0.10182 0.52003 0.0
O58 O 0.68117 0.05638 0.47989 0.0
O59 O 0.6422 0.11427 0.47893 0.0
C60 C 0.73871 0.20587 0.44823 0.0
O61 O 0.84689 0.12234 0.47406 0.0
O62 O 0.77221 0.06676 0.45155 0.0
C63 C 0.82723 0.24583 0.50248 0.0
C64 C 0.62794 0.21921 0.55571 0.0
C65 C 0.596 0.21964 0.6074 0.0
C66 C 0.59518 0.25804 0.58923 0.0
C67 C 0.61114 0.25783 0.56355 0.0
C68 C 0.62941 0.18128 0.57379 0.0
C69 C 0.61367 0.18152 0.59945 0.0
C70 C 0.64258 0.21756 0.5286 0.0
C71 C 0.73057 0.0982 0.53777 0.0
H72 H 0.88845 0.0443 0.37897 0.0
H73 H 0.83934 0.01888 0.42061 0.0
H74 H 0.8872 0.19424 0.43321 0.0
H75 H 0.93867 0.2207 0.39203 0.0
H76 H 0.58099 0.28737 0.59471 0.0
H77 H 0.60961 0.28722 0.54976 0.0
H78 H 0.64192 0.15093 0.56796 0.0
H79 H 0.61525 0.15185 0.61304 0.0
Tb80 Tb 0.63954 0.87565 0.76981 0.0
Tb81 Tb 0.51551 0.79766 0.73926 0.0
C82 C 0.54333 0.90479 0.7718 0.0
C83 C 0.74736 0.91124 0.82108 0.0
C84 C 0.77633 0.88036 0.86899 0.0
C85 C 0.78185 0.93438 0.86562 0.0
C86 C 0.76774 0.94967 0.84191 0.0
C87 C 0.74166 0.85713 0.8244 0.0
C88 C 0.75637 0.84205 0.84802 0.0
C89 C 0.72913 0.92701 0.79674 0.0
O90 O 0.57808 0.82414 0.79963 0.0
O91 O 0.50266 0.75445 0.77606 0.0
O92 O 0.5726 0.76662 0.72957 0.0
O93 O 0.62159 0.78856 0.76746 0.0
O94 O 0.4412 0.79277 0.72468 0.0
O95 O 0.45496 0.72127 0.72138 0.0
O96 O 0.56797 0.86735 0.71323 0.0
O97 O 0.65844 0.89613 0.72854 0.0
O98 O 0.59766 0.9262 0.76663 0.0
O99 O 0.50677 0.8508 0.76788 0.0
C100 C 0.52988 0.77513 0.79805 0.0
O101 O 0.72489 0.8978 0.7759 0.0
O102 O 0.68608 0.93542 0.79894 0.0
C103 C 0.59705 0.75336 0.7481 0.0
C104 C 0.3997 0.73291 0.68829 0.0
C105 C 0.34749 0.71053 0.63894 0.0
C106 C 0.37639 0.68234 0.64711 0.0
C107 C 0.40208 0.69324 0.67163 0.0
C108 C 0.37145 0.76151 0.67991 0.0
C109 C 0.34597 0.75072 0.6555 0.0
C110 C 0.42244 0.74208 0.71503 0.0
C111 C 0.62356 0.89447 0.71017 0.0
H112 H 0.79751 0.96505 0.88129 0.0
H113 H 0.77215 0.99144 0.83995 0.0
H114 H 0.72517 0.82612 0.80887 0.0
H115 H 0.751 0.79991 0.85005 0.0
H116 H 0.37796 0.65089 0.63481 0.0
H117 H 0.42293 0.66996 0.67765 0.0
H118 H 0.36835 0.79187 0.69239 0.0
H119 H 0.32495 0.77392 0.64961 0.0
Tb120 Tb 0.88813 0.65064 0.14129 0.0
Tb121 Tb 0.80968 0.52761 0.1724 0.0
C122 C 0.91449 0.55208 0.139 0.0
C123 C 0.9221 0.75631 0.0899 0.0
C124 C 0.88869 0.78255 0.04191 0.0
C125 C 0.94668 0.80421 0.04798 0.0
C126 C 0.96311 0.79127 0.0717 0.0
C127 C 0.86422 0.73441 0.08398 0.0
C128 C 0.84773 0.74761 0.06037 0.0
C129 C 0.93961 0.73959 0.11408 0.0
O130 O 0.83443 0.58956 0.11176 0.0
O131 O 0.76655 0.5129 0.13547 0.0
O132 O 0.78047 0.58636 0.18179 0.0
O133 O 0.80141 0.63358 0.14359 0.0
O134 O 0.80344 0.45351 0.18806 0.0
O135 O 0.73344 0.46961 0.19097 0.0
O136 O 0.8819 0.57951 0.1973 0.0
O137 O 0.90962 0.66991 0.18251 0.0
O138 O 0.93698 0.60681 0.14373 0.0
O139 O 0.86068 0.51617 0.14363 0.0
C140 C 0.78628 0.54062 0.11355 0.0
O141 O 0.91113 0.73615 0.13503 0.0
O142 O 0.94739 0.69613 0.11193 0.0
C143 C 0.76665 0.60992 0.1631 0.0
C144 C 0.74733 0.42026 0.22522 0.0
C145 C 0.74365 0.38568 0.27693 0.0
C146 C 0.71229 0.34553 0.25756 0.0
C147 C 0.71427 0.36274 0.23189 0.0
C148 C 0.77747 0.46082 0.24451 0.0
C149 C 0.77584 0.44363 0.27021 0.0
C150 C 0.75334 0.43667 0.19787 0.0
C151 C 0.90904 0.635 0.20057 0.0
H152 H 0.97955 0.83026 0.03419 0.0
H153 H 0.00794 0.80787 0.07564 0.0
H154 H 0.83161 0.70663 0.09754 0.0
H155 H 0.80276 0.73058 0.05671 0.0
H156 H 0.68773 0.30053 0.26209 0.0
H157 H 0.6911 0.33094 0.21714 0.0
H158 H 0.80301 0.50549 0.23956 0.0
H159 H 0.79999 0.47551 0.28478 0.0
Tb160 Tb 0.12659 0.77367 0.43436 0.0
Tb161 Tb 0.13526 0.66698 0.40953 0.0
C162 C 0.03522 0.64866 0.44262 0.0
C163 C 0.12601 0.87718 0.48179 0.0
C164 C 0.14266 0.9235 0.53247 0.0
C165 C 0.11297 0.86406 0.52855 0.0
C166 C 0.10495 0.84115 0.50351 0.0
C167 C 0.15554 0.9363 0.4856 0.0
C168 C 0.16393 0.95921 0.51058 0.0
C169 C 0.11995 0.85449 0.45517 0.0
O170 O 0.17342 0.7527 0.46244 0.0
O171 O 0.14688 0.66027 0.45089 0.0
O172 O 0.22243 0.73406 0.41517 0.0
O173 O 0.20859 0.81086 0.41454 0.0
O174 O 0.08692 0.58808 0.39094 0.0
O175 O 0.17618 0.62201 0.39876 0.0
O176 O 0.14033 0.72186 0.37798 0.0
O177 O 0.08433 0.75278 0.39614 0.0
O178 O 0.06689 0.69637 0.45502 0.0
O179 O 0.04862 0.64446 0.41883 0.0
C180 C 0.17096 0.70367 0.46706 0.0
O181 O 0.16619 0.85995 0.44499 0.0
O182 O 0.07593 0.80458 0.4502 0.0
C183 C 0.2425 0.78923 0.4146 0.0
C184 C 0.14 0.57512 0.35907 0.0
C185 C 0.15354 0.55893 0.30644 0.0
C186 C 0.18098 0.61398 0.31702 0.0
C187 C 0.17393 0.62207 0.34312 0.0
C188 C 0.11181 0.52024 0.34849 0.0
C189 C 0.1184 0.51216 0.32228 0.0
C190 C 0.13152 0.58354 0.38636 0.0
C191 C 0.10402 0.73992 0.37543 0.0
H192 H 0.09541 0.83511 0.54482 0.0
H193 H 0.08247 0.79532 0.50115 0.0
H194 H 0.17278 0.96492 0.46918 0.0
H195 H 0.188 0.00506 0.51273 0.0
H196 H 0.20785 0.65066 0.30508 0.0
H197 H 0.19509 0.66494 0.35087 0.0
H198 H 0.08483 0.48371 0.36049 0.0
H199 H 0.09716 0.46929 0.31453 0.0
Tb200 Tb 0.33591 0.22502 0.81185 0.0
Tb201 Tb 0.46072 0.26843 0.84053 0.0
C202 C 0.43293 0.35056 0.80966 0.0
C203 C 0.23141 0.15503 0.76088 0.0
C204 C 0.20999 0.10079 0.71193 0.0
C205 C 0.17352 0.11911 0.72182 0.0
C206 C 0.18429 0.14617 0.74603 0.0
C207 C 0.26735 0.13606 0.75127 0.0
C208 C 0.25686 0.10935 0.72709 0.0
C209 C 0.24569 0.18704 0.78552 0.0
O210 O 0.39721 0.23874 0.78147 0.0
O211 O 0.47038 0.23676 0.80361 0.0
O212 O 0.40178 0.18008 0.8498 0.0
O213 O 0.35268 0.155 0.81222 0.0
O214 O 0.54222 0.33443 0.85039 0.0
O215 O 0.51289 0.2485 0.86332 0.0
O216 O 0.41229 0.29074 0.86622 0.0
O217 O 0.32049 0.2267 0.85349 0.0
O218 O 0.3786 0.31758 0.81497 0.0
O219 O 0.46962 0.33323 0.81331 0.0
C220 C 0.44332 0.23417 0.782 0.0
O221 O 0.2507 0.161 0.80583 0.0
O222 O 0.28768 0.23942 0.78406 0.0
C223 C 0.37736 0.14317 0.83109 0.0
C224 C 0.56903 0.32261 0.89235 0.0
C225 C 0.60502 0.36392 0.94301 0.0
C226 C 0.6192 0.32544 0.9318 0.0
C227 C 0.6016 0.30524 0.90663 0.0
C228 C 0.55303 0.35939 0.90375 0.0
C229 C 0.57116 0.38014 0.92877 0.0
C230 C 0.55178 0.3019 0.86571 0.0
C231 C 0.3574 0.2614 0.87087 0.0
H232 H 0.13742 0.1138 0.71056 0.0
H233 H 0.15635 0.16095 0.75296 0.0
H234 H 0.30407 0.14249 0.76235 0.0
H235 H 0.28546 0.09526 0.72032 0.0
H236 H 0.64409 0.311 0.94243 0.0
H237 H 0.61363 0.27624 0.89828 0.0
H238 H 0.52717 0.37281 0.8932 0.0
H239 H 0.5598 0.41001 0.93665 0.0
C240 C 0.2202 0.57271 0.27061 0.0
C241 C 0.16416 0.54985 0.27933 0.0
C242 C 0.23149 0.56005 0.24582 0.0
C243 C 0.18552 0.52427 0.22934 0.0
C244 C 0.12878 0.50334 0.23758 0.0
C245 C 0.11872 0.51601 0.26267 0.0
C246 C 0.29256 0.58267 0.23777 0.0
C247 C 0.07883 0.46615 0.22023 0.0
C248 C 0.21979 0.51829 0.15858 0.0
C249 C 0.22463 0.46922 0.1583 0.0
C250 C 0.20632 0.53654 0.18153 0.0
C251 C 0.197 0.50458 0.20455 0.0
C252 C 0.20077 0.45448 0.20426 0.0
C253 C 0.21464 0.43751 0.18117 0.0
C254 C 0.20236 0.59005 0.18121 0.0
C255 C 0.19082 0.41906 0.22843 0.0
H256 H 0.25527 0.59858 0.28362 0.0
H257 H 0.07539 0.49896 0.2694 0.0
H258 H 0.30074 0.54673 0.23565 0.0
H259 H 0.30064 0.60417 0.21865 0.0
H260 H 0.32332 0.61324 0.25209 0.0
H261 H 0.0375 0.45586 0.22905 0.0
H262 H 0.08319 0.48776 0.20139 0.0
H263 H 0.07816 0.42574 0.21608 0.0
H264 H 0.22675 0.54266 0.14093 0.0
H265 H 0.21752 0.3991 0.18112 0.0
H266 H 0.23118 0.62046 0.19606 0.0
H267 H 0.15841 0.57949 0.18618 0.0
H268 H 0.21354 0.61153 0.16202 0.0
H269 H 0.22258 0.44497 0.2435 0.0
H270 H 0.19392 0.38041 0.22472 0.0
H271 H 0.14804 0.40551 0.23645 0.0
C272 C 0.51494 0.22228 0.75666 0.0
C273 C 0.46527 0.22601 0.75725 0.0
C274 C 0.53744 0.21724 0.73307 0.0
C275 C 0.50935 0.21563 0.70966 0.0
C276 C 0.45798 0.21701 0.7102 0.0
C277 C 0.4366 0.22226 0.734 0.0
C278 C 0.59186 0.21494 0.73315 0.0
C279 C 0.42642 0.21459 0.68559 0.0
C280 C 0.59297 0.26938 0.64749 0.0
C281 C 0.57697 0.2184 0.63436 0.0
C282 C 0.57245 0.26894 0.67238 0.0
C283 C 0.5353 0.21622 0.68442 0.0
C284 C 0.52049 0.16455 0.67168 0.0
C285 C 0.54138 0.16625 0.64669 0.0
C286 C 0.58927 0.32492 0.6855 0.0
C287 C 0.48105 0.10758 0.68402 0.0
H288 H 0.53686 0.22423 0.77457 0.0
H289 H 0.39774 0.22427 0.73428 0.0
H290 H 0.58484 0.17563 0.72332 0.0
H291 H 0.62528 0.25164 0.72215 0.0
H292 H 0.60792 0.21577 0.75308 0.0
H293 H 0.38574 0.2136 0.68951 0.0
H294 H 0.4535 0.25231 0.67336 0.0
H295 H 0.41696 0.17623 0.67419 0.0
H296 H 0.62129 0.30972 0.6382 0.0
H297 H 0.52844 0.1267 0.63652 0.0
H298 H 0.60796 0.32651 0.70486 0.0
H299 H 0.55093 0.3288 0.68854 0.0
H300 H 0.62055 0.3621 0.67397 0.0
H301 H 0.49529 0.10593 0.70404 0.0
H302 H 0.47862 0.07161 0.67275 0.0
H303 H 0.4376 0.10154 0.68541 0.0
C304 C 0.37599 0.66115 0.93175 0.0
C305 C 0.37883 0.6152 0.94261 0.0
C306 C 0.39872 0.68245 0.90722 0.0
C307 C 0.42581 0.65783 0.89333 0.0
C308 C 0.42764 0.61055 0.90379 0.0
C309 C 0.40376 0.58953 0.92826 0.0
C310 C 0.39526 0.73248 0.8965 0.0
C311 C 0.45636 0.58335 0.88952 0.0
C312 C 0.44957 0.69481 0.82188 0.0
C313 C 0.50481 0.74227 0.82207 0.0
C314 C 0.42393 0.66541 0.84482 0.0
C315 C 0.45447 0.6837 0.86844 0.0
C316 C 0.5112 0.72982 0.86858 0.0
C317 C 0.53561 0.75874 0.8454 0.0
C318 C 0.36339 0.61636 0.84391 0.0
C319 C 0.54552 0.74982 0.89335 0.0
H320 H 0.35761 0.68184 0.94278 0.0
H321 H 0.40523 0.55335 0.93629 0.0
H322 H 0.4387 0.77001 0.89481 0.0
H323 H 0.37634 0.72258 0.87676 0.0
H324 H 0.3694 0.74418 0.90893 0.0
H325 H 0.45101 0.54472 0.89957 0.0
H326 H 0.43904 0.57149 0.86956 0.0
H327 H 0.50256 0.61439 0.88775 0.0
H328 H 0.42559 0.68141 0.8039 0.0
H329 H 0.57867 0.79474 0.84567 0.0
H330 H 0.33523 0.62828 0.85433 0.0
H331 H 0.36005 0.57854 0.85385 0.0
H332 H 0.34739 0.60429 0.82373 0.0
H333 H 0.52638 0.76788 0.90649 0.0
H334 H 0.59059 0.78286 0.88979 0.0
H335 H 0.54469 0.71342 0.90359 0.0
C336 C 0.73936 0.28645 0.42427 0.0
C337 C 0.74316 0.23675 0.42388 0.0
C338 C 0.74212 0.31542 0.40129 0.0
C339 C 0.74874 0.29412 0.37737 0.0
C340 C 0.75416 0.24492 0.37688 0.0
C341 C 0.75131 0.21681 0.40015 0.0
C342 C 0.73656 0.36798 0.40256 0.0
C343 C 0.76179 0.22125 0.35172 0.0
C344 C 0.69396 0.32477 0.31532 0.0
C345 C 0.74451 0.36636 0.30373 0.0
C346 C 0.69464 0.30209 0.33966 0.0
C347 C 0.74718 0.32145 0.35268 0.0
C348 C 0.79817 0.36488 0.34151 0.0
C349 C 0.79622 0.3869 0.31713 0.0
C350 C 0.6393 0.25624 0.35111 0.0
C351 C 0.85494 0.38663 0.3549 0.0
H352 H 0.73379 0.30266 0.44254 0.0
H353 H 0.75478 0.17876 0.39965 0.0
H354 H 0.77196 0.40367 0.39192 0.0
H355 H 0.69629 0.35933 0.39303 0.0
H356 H 0.73654 0.38174 0.42283 0.0
H357 H 0.76822 0.18434 0.35481 0.0
H358 H 0.72372 0.20747 0.33923 0.0
H359 H 0.79894 0.25473 0.341 0.0
H360 H 0.65384 0.30944 0.30517 0.0
H361 H 0.83546 0.41871 0.30812 0.0
H362 H 0.63364 0.26855 0.37089 0.0
H363 H 0.64029 0.21601 0.35292 0.0
H364 H 0.60185 0.24796 0.33911 0.0
H365 H 0.85308 0.39992 0.37502 0.0
H366 H 0.89002 0.42325 0.3445 0.0
H367 H 0.86523 0.35196 0.35617 0.0
C368 C 0.34545 0.69425 0.59096 0.0
C369 C 0.31857 0.69837 0.61333 0.0
C370 C 0.32058 0.68837 0.5664 0.0
C371 C 0.26782 0.68682 0.56425 0.0
C372 C 0.23927 0.68819 0.58687 0.0
C373 C 0.26489 0.69372 0.61113 0.0
C374 C 0.35207 0.6867 0.54267 0.0
C375 C 0.183 0.6868 0.58538 0.0
C376 C 0.23694 0.74757 0.50437 0.0
C377 C 0.19688 0.69826 0.49132 0.0
C378 C 0.26145 0.7442 0.52773 0.0
C379 C 0.24532 0.69013 0.53841 0.0
C380 C 0.20574 0.64006 0.5251 0.0
C381 C 0.18205 0.64472 0.50159 0.0
C382 C 0.30369 0.79867 0.54125 0.0
C383 C 0.18753 0.58172 0.53596 0.0
H384 H 0.38701 0.69798 0.59254 0.0
H385 H 0.24334 0.6956 0.62841 0.0
H386 H 0.32311 0.65114 0.52977 0.0
H387 H 0.36767 0.72679 0.5315 0.0
H388 H 0.38912 0.6817 0.54776 0.0
H389 H 0.16402 0.68317 0.60482 0.0
H390 H 0.18929 0.7264 0.57601 0.0
H391 H 0.15225 0.65051 0.57328 0.0
H392 H 0.24928 0.78912 0.49633 0.0
H393 H 0.15107 0.6065 0.49155 0.0
H394 H 0.34401 0.79883 0.54502 0.0
H395 H 0.28643 0.80152 0.56029 0.0
H396 H 0.31352 0.83719 0.52973 0.0
H397 H 0.22541 0.57781 0.54047 0.0
H398 H 0.15953 0.54714 0.52235 0.0
H399 H 0.16416 0.57556 0.55437 0.0
C400 C 0.71797 0.45599 0.08786 0.0
C401 C 0.75336 0.51515 0.0897 0.0
C402 C 0.6896 0.43072 0.06467 0.0
C403 C 0.69601 0.46565 0.04305 0.0
C404 C 0.72938 0.52563 0.04524 0.0
C405 C 0.75822 0.54969 0.06851 0.0
C406 C 0.65504 0.36656 0.06295 0.0
C407 C 0.73606 0.5643 0.02278 0.0
C408 C 0.68311 0.40373 0.9761 0.0
C409 C 0.6274 0.38881 0.96899 0.0
C410 C 0.70559 0.42826 1.00026 0.0
C411 C 0.67199 0.43925 0.01757 0.0
C412 C 0.61587 0.42471 0.01057 0.0
C413 C 0.59403 0.39918 0.98642 0.0
C414 C 0.76547 0.44259 1.00721 0.0
C415 C 0.57913 0.43643 0.02851 0.0
H416 H 0.71418 0.42922 0.10425 0.0
H417 H 0.78481 0.59556 0.07008 0.0
H418 H 0.61166 0.35281 0.0555 0.0
H419 H 0.67542 0.35118 0.04905 0.0
H420 H 0.65126 0.34574 0.08199 0.0
H421 H 0.75867 0.60991 0.02849 0.0
H422 H 0.76048 0.55859 1.00705 0.0
H423 H 0.69376 0.55309 0.01471 0.0
H424 H 0.70967 0.39708 0.9626 0.0
H425 H 0.55069 0.38713 0.98125 0.0
H426 H 0.76523 0.42105 0.02557 0.0
H427 H 0.79254 0.4891 0.01041 0.0
H428 H 0.78527 0.42965 0.99187 0.0
H429 H 0.57281 0.41331 0.04708 0.0
H430 H 0.53673 0.42347 0.01995 0.0
H431 H 0.60075 0.48252 0.03318 0.0
C432 C 0.44068 0.51532 0.13302 0.0
C433 C 0.4163 0.4646 0.11867 0.0
C434 C 0.49629 0.53974 0.14276 0.0
C435 C 0.52874 0.51331 0.1377 0.0
C436 C 0.50406 0.46145 0.12364 0.0
C437 C 0.44777 0.43735 0.11448 0.0
C438 C 0.52082 0.59471 0.15786 0.0
C439 C 0.53777 0.43252 0.11749 0.0
C440 C 0.68935 0.60677 0.13563 0.0
C441 C 0.70602 0.5928 0.15905 0.0
C442 C 0.63185 0.5815 0.1286 0.0
C443 C 0.58967 0.54202 0.14561 0.0
C444 C 0.60584 0.52998 0.16989 0.0
C445 C 0.66392 0.55539 0.17632 0.0
C446 C 0.61645 0.59534 0.10246 0.0
C447 C 0.56193 0.48865 0.18866 0.0
H448 H 0.41627 0.53623 0.13661 0.0
H449 H 0.4291 0.39825 0.10334 0.0
H450 H 0.5385 0.59047 0.17663 0.0
H451 H 0.55639 0.62937 0.14683 0.0
H452 H 0.48862 0.60753 0.16177 0.0
H453 H 0.51148 0.3909 0.10766 0.0
H454 H 0.57406 0.46033 0.10471 0.0
H455 H 0.55584 0.42554 0.13553 0.0
H456 H 0.72139 0.63554 0.12208 0.0
H457 H 0.6763 0.54417 0.19441 0.0
H458 H 0.58589 0.6108 0.10481 0.0
H459 H 0.59524 0.55626 0.0904 0.0
H460 H 0.65429 0.62819 0.09181 0.0
H461 H 0.52942 0.501 0.19253 0.0
H462 H 0.58117 0.48657 0.20739 0.0
H463 H 0.53951 0.44543 0.17999 0.0
C464 C 0.95319 0.54964 0.44443 0.0
C465 C 0.99939 0.59522 0.45694 0.0
C466 C 0.92572 0.49492 0.45542 0.0
C467 C 0.94633 0.48522 0.47907 0.0
C468 C 0.99187 0.53159 0.49221 0.0
C469 C 0.01723 0.5863 0.48118 0.0
C470 C 0.87632 0.44701 0.44106 0.0
C471 C 0.01641 0.52287 0.51697 0.0
C472 C 0.84804 0.34458 0.51243 0.0
C473 C 0.86497 0.30849 0.50108 0.0
C474 C 0.87558 0.40285 0.50629 0.0
C475 C 0.92219 0.4259 0.48898 0.0
C476 C 0.94236 0.39059 0.47916 0.0
C477 C 0.91306 0.33216 0.48506 0.0
C478 C 0.85209 0.43871 0.51681 0.0
C479 C 0.99299 0.41383 0.46123 0.0
H480 H 0.93968 0.55648 0.4256 0.0
H481 H 0.05364 0.62128 0.49068 0.0
H482 H 0.83985 0.42293 0.45436 0.0
H483 H 0.86186 0.46272 0.42444 0.0
H484 H 0.88898 0.41673 0.43357 0.0
H485 H 0.04801 0.56386 0.52605 0.0
H486 H 0.98216 0.49789 0.53115 0.0
H487 H 0.03785 0.49816 0.51271 0.0
H488 H 0.81084 0.32676 0.52477 0.0
H489 H 0.92653 0.3046 0.47631 0.0
H490 H 0.83247 0.45028 0.50074 0.0
H491 H 0.8867 0.47896 0.52512 0.0
H492 H 0.81933 0.41598 0.53195 0.0
H493 H 0.98132 0.42405 0.44214 0.0
H494 H 0.00788 0.38294 0.45812 0.0
H495 H 0.02879 0.45385 0.46916 0.0
C496 C 0.43351 0.09581 0.84278 0.0
C497 C 0.39537 0.10078 0.82602 0.0
C498 C 0.45927 0.0641 0.83564 0.0
C499 C 0.4467 0.03691 0.81115 0.0
C500 C 0.40677 0.04012 0.79456 0.0
C501 C 0.38131 0.07159 0.80227 0.0
C502 C 0.50126 0.06114 0.85393 0.0
C503 C 0.39232 0.01193 0.76824 0.0
C504 C 0.54958 0.99922 0.77912 0.0
C505 C 0.52198 0.94031 0.78332 0.0
C506 C 0.52615 0.03164 0.78851 0.0
C507 C 0.47467 0.00448 0.80281 0.0
C508 C 0.44797 0.94541 0.80789 0.0
C509 C 0.47172 0.91405 0.79795 0.0
C510 C 0.55535 0.09449 0.78241 0.0
C511 C 0.39336 0.91494 0.82321 0.0
H512 H 0.44486 0.11836 0.86111 0.0
H513 H 0.35212 0.07524 0.78908 0.0
H514 H 0.48853 0.01609 0.85783 0.0
H515 H 0.54399 0.08158 0.84483 0.0
H516 H 0.50464 0.08265 0.87269 0.0
H517 H 0.35927 0.01727 0.75795 0.0
H518 H 0.43111 0.03039 0.75602 0.0
H519 H 0.37686 0.96574 0.77025 0.0
H520 H 0.58832 0.01959 0.76777 0.0
H521 H 0.45055 0.86859 0.80155 0.0
H522 H 0.56354 0.11941 0.80052 0.0
H523 H 0.52716 0.10345 0.77007 0.0
H524 H 0.59635 0.10969 0.77212 0.0
H525 H 0.39836 0.93653 0.84207 0.0
H526 H 0.38012 0.86964 0.82696 0.0
H527 H 0.35869 0.91645 0.81244 0.0
C528 C 0.59879 0.67752 0.77473 0.0
C529 C 0.57991 0.69283 0.75236 0.0
C530 C 0.57371 0.6206 0.78266 0.0
C531 C 0.5292 0.57764 0.76767 0.0
C532 C 0.5121 0.59228 0.74429 0.0
C533 C 0.53765 0.64978 0.7369 0.0
C534 C 0.59325 0.60677 0.80772 0.0
C535 C 0.46527 0.54746 0.72764 0.0
C536 C 0.50035 0.42818 0.78068 0.0
C537 C 0.4538 0.40696 0.7976 0.0
C538 C 0.52374 0.48277 0.76995 0.0
C539 C 0.5007 0.51751 0.77668 0.0
C540 C 0.45287 0.49597 0.79337 0.0
C541 C 0.42946 0.44046 0.80342 0.0
C542 C 0.57421 0.50385 0.75201 0.0
C543 C 0.42782 0.53228 0.80135 0.0
H544 H 0.63146 0.71035 0.78682 0.0
H545 H 0.52262 0.66109 0.71964 0.0
H546 H 0.55757 0.58815 0.82176 0.0
H547 H 0.60618 0.57454 0.80427 0.0
H548 H 0.62961 0.64494 0.81668 0.0
H549 H 0.45936 0.56536 0.70926 0.0
H550 H 0.47474 0.51324 0.72291 0.0
H551 H 0.42456 0.52748 0.73849 0.0
H552 H 0.51878 0.40201 0.77587 0.0
H553 H 0.39359 0.42411 0.81655 0.0
H554 H 0.61229 0.53955 0.76131 0.0
H555 H 0.56609 0.52043 0.73378 0.0
H556 H 0.58408 0.46993 0.74709 0.0
H557 H 0.45969 0.56942 0.81271 0.0
H558 H 0.3889 0.5083 0.81331 0.0
H559 H 0.41708 0.54922 0.78396 0.0
C560 C 0.10086 0.43307 0.07102 0.0
C561 C 0.10753 0.39795 0.089 0.0
C562 C 0.06888 0.45913 0.07716 0.0
C563 C 0.04333 0.45007 0.1019 0.0
C564 C 0.04823 0.4131 0.11976 0.0
C565 C 0.07972 0.38707 0.11301 0.0
C566 C 0.06407 0.49786 0.05752 0.0
C567 C 0.02199 0.40265 0.14643 0.0
C568 C 0.00822 0.55747 0.13092 0.0
C569 C 0.94898 0.52921 0.12779 0.0
C570 C 0.03983 0.53279 0.12204 0.0
C571 C 0.01152 0.47925 0.10935 0.0
C572 C 0.95206 0.45178 0.10525 0.0
C573 C 0.92152 0.47689 0.11464 0.0
C574 C 0.1032 0.56301 0.12693 0.0
C575 C 0.92038 0.39499 0.09161 0.0
H576 H 0.12232 0.44192 0.05247 0.0
H577 H 0.08469 0.36024 0.12714 0.0
H578 H 0.0187 0.4847 0.05423 0.0
H579 H 0.08555 0.54207 0.06507 0.0
H580 H 0.08356 0.49782 0.03863 0.0
H581 H 0.03026 0.37314 0.15816 0.0
H582 H 0.03932 0.44356 0.15703 0.0
H583 H 0.97529 0.38449 0.14475 0.0
H584 H 0.02956 0.59785 0.14108 0.0
H585 H 0.87577 0.45515 0.11183 0.0
H586 H 0.12624 0.57171 0.10826 0.0
H587 H 0.11413 0.53528 0.1385 0.0
H588 H 0.11871 0.60389 0.13741 0.0
H589 H 0.94051 0.39705 0.07266 0.0
H590 H 0.87486 0.38135 0.08824 0.0
H591 H 0.92261 0.36194 0.10342 0.0
C592 C 0.33629 0.80548 0.43048 0.0
C593 C 0.3045 0.82728 0.41865 0.0
C594 C 0.39269 0.8415 0.43849 0.0
C595 C 0.41858 0.90077 0.43405 0.0
C596 C 0.38782 0.92275 0.42083 0.0
C597 C 0.33082 0.88581 0.41359 0.0
C598 C 0.42324 0.81642 0.45315 0.0
C599 C 0.41438 0.98561 0.41527 0.0
C600 C 0.53381 0.00346 0.48003 0.0
C601 C 0.58339 0.01794 0.46613 0.0
C602 C 0.48006 0.96397 0.47013 0.0
C603 C 0.47582 0.94014 0.44525 0.0
C604 C 0.52604 0.95438 0.43122 0.0
C605 C 0.57949 0.99268 0.44204 0.0
C606 C 0.42777 0.94851 0.48613 0.0
C607 C 0.52318 0.93076 0.40446 0.0
H608 H 0.31616 0.7604 0.43484 0.0
H609 H 0.30654 0.90291 0.40447 0.0
H610 H 0.46595 0.83125 0.44476 0.0
H611 H 0.42962 0.83109 0.47359 0.0
H612 H 0.39908 0.76911 0.45304 0.0
H613 H 0.38737 0.99501 0.40229 0.0
H614 H 0.42094 0.00908 0.43371 0.0
H615 H 0.45677 0.00212 0.40617 0.0
H616 H 0.53718 0.02351 0.49863 0.0
H617 H 0.61805 0.00493 0.43117 0.0
H618 H 0.40171 0.90159 0.48837 0.0
H619 H 0.40094 0.96283 0.47609 0.0
H620 H 0.43869 0.96812 0.50572 0.0
H621 H 0.49898 0.88355 0.40493 0.0
H622 H 0.56612 0.94507 0.39634 0.0
H623 H 0.5001 0.94456 0.39119 0.0
C624 C 0.37715 0.28875 0.91754 0.0
C625 C 0.33811 0.2685 0.89684 0.0
C626 C 0.36187 0.29876 0.94208 0.0
C627 C 0.30618 0.28908 0.94615 0.0
C628 C 0.26604 0.26744 0.92553 0.0
C629 C 0.28233 0.25692 0.90115 0.0
C630 C 0.40601 0.32115 0.96348 0.0
C631 C 0.20651 0.2573 0.92896 0.0
C632 C 0.2606 0.28409 0.01662 0.0
C633 C 0.27505 0.34084 0.02075 0.0
C634 C 0.26917 0.2661 0.99227 0.0
C635 C 0.2918 0.30555 0.97146 0.0
C636 C 0.3046 0.36238 0.97536 0.0
C637 C 0.29647 0.37932 0.99989 0.0
C638 C 0.25576 0.20538 0.98903 0.0
C639 C 0.32817 0.40586 0.95376 0.0
H640 H 0.42016 0.29707 0.91458 0.0
H641 H 0.25195 0.24132 0.88529 0.0
H642 H 0.41691 0.36514 0.96861 0.0
H643 H 0.38879 0.29463 0.98116 0.0
H644 H 0.44577 0.32181 0.95781 0.0
H645 H 0.17931 0.23708 0.91165 0.0
H646 H 0.18609 0.22972 0.94607 0.0
H647 H 0.20836 0.29845 0.93263 0.0
H648 H 0.24403 0.2541 0.03258 0.0
H649 H 0.30704 0.42312 1.0027 0.0
H650 H 0.29561 0.20479 0.9851 0.0
H651 H 0.22715 0.18549 0.97213 0.0
H652 H 0.23531 0.1791 1.00652 0.0
H653 H 0.37109 0.41404 0.94827 0.0
H654 H 0.33168 0.447 0.95936 0.0
H655 H 0.30064 0.38934 0.9363 0.0
C656 C 0.94707 0.19166 0.34035 0.0
C657 C 0.94802 0.15015 0.35638 0.0
C658 C 0.97408 0.20549 0.31601 0.0
C659 C 0.00225 0.17672 0.3072 0.0
C660 C 0.00362 0.13503 0.32327 0.0
C661 C 0.97696 0.1226 0.34764 0.0
C662 C 0.972 0.25057 0.29961 0.0
C663 C 0.03297 0.10315 0.31464 0.0
C664 C 0.02505 0.16917 0.2347 0.0
C665 C 0.08311 0.20923 0.23195 0.0
C666 C 0.99809 0.15868 0.25897 0.0
C667 C 0.02971 0.18946 0.28105 0.0
C668 C 0.08806 0.23094 0.27826 0.0
C669 C 0.11409 0.24006 0.25381 0.0
C670 C 0.93598 0.11377 0.26107 0.0
C671 C 0.12315 0.26538 0.30115 0.0
H672 H 0.92428 0.21276 0.3466 0.0
H673 H 0.97911 0.09131 0.35993 0.0
H674 H 0.0158 0.28435 0.2945 0.0
H675 H 0.9492 0.23155 0.28117 0.0
H676 H 0.95028 0.27056 0.30961 0.0
H677 H 0.02994 0.0717 0.32931 0.0
H678 H 0.01376 0.08033 0.29624 0.0
H679 H 0.0786 0.13355 0.3108 0.0
H680 H 0.00095 0.14496 0.21793 0.0
H681 H 0.15875 0.27172 0.25175 0.0
H682 H 0.91147 0.13241 0.2695 0.0
H683 H 0.93116 0.07936 0.27433 0.0
H684 H 0.91699 0.09464 0.24199 0.0
H685 H 0.1027 0.28736 0.31044 0.0
H686 H 0.16723 0.29775 0.29555 0.0
H687 H 0.12531 0.2367 0.3159 0.0
C688 C 0.70501 0.96168 0.6811 0.0
C689 C 0.64657 0.92395 0.68483 0.0
C690 C 0.7258 0.99066 0.65732 0.0
C691 C 0.68739 0.9815 0.63667 0.0
C692 C 0.62866 0.94235 0.64016 0.0
C693 C 0.60909 0.91436 0.66406 0.0
C694 C 0.78864 0.0323 0.65451 0.0
C695 C 0.58601 0.93092 0.61878 0.0
C696 C 0.7155 0.09385 0.58557 0.0
C697 C 0.72792 0.07201 0.5635 0.0
C698 C 0.70535 0.06653 0.60974 0.0
C699 C 0.7072 0.0155 0.61206 0.0
C700 C 0.72257 0.99466 0.59013 0.0
C701 C 0.73312 0.0234 0.56611 0.0
C702 C 0.68982 0.09096 0.63246 0.0
C703 C 0.72495 0.94042 0.59169 0.0
H704 H 0.73445 0.96943 0.6969 0.0
H705 H 0.56392 0.88495 0.66644 0.0
H706 H 0.80534 0.02242 0.63689 0.0
H707 H 0.7957 0.07601 0.6521 0.0
H708 H 0.81347 0.03183 0.67159 0.0
H709 H 0.54241 0.89663 0.62395 0.0
H710 H 0.5846 0.97028 0.61453 0.0
H711 H 0.59911 0.91857 0.60072 0.0
H712 H 0.71285 0.13222 0.58386 0.0
H713 H 0.7427 0.00629 0.54915 0.0
H714 H 0.71409 0.0921 0.65002 0.0
H715 H 0.6439 0.0634 0.63686 0.0
H716 H 0.69811 0.13471 0.62849 0.0
H717 H 0.75048 0.94137 0.60873 0.0
H718 H 0.7435 0.9332 0.57395 0.0
H719 H 0.68128 0.90372 0.59428 0.0
C720 C 0.77254 0.87536 0.91775 0.0
C721 C 0.79109 0.86406 0.89432 0.0
C722 C 0.78664 0.86085 0.94179 0.0
C723 C 0.82083 0.83501 0.94255 0.0
C724 C 0.83949 0.82327 0.91895 0.0
C725 C 0.82411 0.83756 0.89517 0.0
C726 C 0.765 0.87329 0.96639 0.0
C727 C 0.87651 0.79641 0.91882 0.0
C728 C 0.90384 0.84972 1.00479 0.0
C729 C 0.87108 0.79598 0.01643 0.0
C730 C 0.88822 0.86273 0.98077 0.0
C731 C 0.83807 0.8214 0.96803 0.0
C732 C 0.80452 0.76725 0.97969 0.0
C733 C 0.82155 0.75511 1.00356 0.0
C734 C 0.9255 0.92088 0.96902 0.0
C735 C 0.75053 0.722 0.96693 0.0
H736 H 0.74636 0.89509 0.91727 0.0
H737 H 0.83902 0.8291 0.87719 0.0
H738 H 0.74029 0.83355 0.97777 0.0
H739 H 0.80141 0.90338 0.97864 0.0
H740 H 0.73749 0.89198 0.9625 0.0
H741 H 0.88694 0.7894 0.89886 0.0
H742 H 0.91683 0.82411 0.92938 0.0
H743 H 0.85478 0.7549 0.92909 0.0
H744 H 0.94159 0.88213 0.0146 0.0
H745 H 0.79624 0.71313 0.01197 0.0
H746 H 0.90091 0.94317 0.96671 0.0
H747 H 0.9395 0.91652 0.9494 0.0
H748 H 0.96381 0.94783 0.98102 0.0
H749 H 0.72077 0.73829 0.96383 0.0
H750 H 0.72867 0.68237 0.97867 0.0
H751 H 0.76032 0.71135 0.9476 0.0
C752 C 0.03016 0.74007 0.34553 0.0
C753 C 0.08048 0.73819 0.34903 0.0
C754 C 0.0035 0.72973 0.32101 0.0
C755 C 0.02783 0.71753 0.29942 0.0
C756 C 0.08017 0.71858 0.30263 0.0
C757 C 0.10568 0.72879 0.32728 0.0
C758 C 0.9476 0.7287 0.31855 0.0
C759 C 0.10788 0.70591 0.28029 0.0
C760 C 0.93187 0.61949 0.24599 0.0
C761 C 0.93925 0.6576 0.22583 0.0
C762 C 0.95919 0.63865 0.27006 0.0
C763 C 0.99593 0.69764 0.27427 0.0
C764 C 0.00368 0.73659 0.25412 0.0
C765 C 0.97501 0.71618 0.23021 0.0
C766 C 0.94911 0.59538 0.29093 0.0
C767 C 0.043 0.79974 0.25769 0.0
H768 H 0.01018 0.74708 0.36215 0.0
H769 H 0.14473 0.72753 0.32961 0.0
H770 H 0.94846 0.75458 0.30169 0.0
H771 H 0.91285 0.68434 0.31509 0.0
H772 H 0.93737 0.74497 0.33625 0.0
H773 H 0.15141 0.71462 0.28521 0.0
H774 H 0.08165 0.66039 0.27481 0.0
H775 H 0.11044 0.73165 0.26306 0.0
H776 H 0.90454 0.57415 0.24304 0.0
H777 H 0.98119 0.74608 0.21486 0.0
H778 H 0.93422 0.60593 0.30895 0.0
H779 H 0.98958 0.59652 0.2956 0.0
H780 H 0.9171 0.55131 0.28504 0.0
H781 H 0.03027 0.81477 0.27501 0.0
H782 H 0.04306 0.82468 0.24057 0.0
H783 H 0.08708 0.80861 0.26114 0.0
C784 C 0.2456 0.0879 0.66892 0.0
C785 C 0.19988 0.07366 0.68579 0.0
C786 C 0.23685 0.063 0.6442 0.0
C787 C 0.18097 0.02266 0.63604 0.0
C788 C 0.13467 0.00782 0.65302 0.0
C789 C 0.14465 0.03354 0.6776 0.0
C790 C 0.28743 0.08044 0.62671 0.0
C791 C 0.07451 0.9647 0.6452 0.0
C792 C 0.14976 0.99839 0.56357 0.0
C793 C 0.15177 0.94836 0.55917 0.0
C794 C 0.15944 0.02304 0.58837 0.0
C795 C 0.1708 0.99685 0.60955 0.0
C796 C 0.17238 0.94611 0.60537 0.0
C797 C 0.16313 0.92267 0.58028 0.0
C798 C 0.15759 0.07728 0.5919 0.0
C799 C 0.18413 0.91667 0.6274 0.0
H800 H 0.28835 0.11936 0.67487 0.0
H801 H 0.10914 0.02166 0.69059 0.0
H802 H 0.28995 0.04245 0.62093 0.0
H803 H 0.28227 0.09989 0.60871 0.0
H804 H 0.32825 0.11144 0.63615 0.0
H805 H 0.0433 0.95708 0.66076 0.0
H806 H 0.0622 0.97956 0.62758 0.0
H807 H 0.07177 0.92364 0.64029 0.0
H808 H 0.14006 0.01822 0.54762 0.0
H809 H 0.16571 0.88458 0.57717 0.0
H810 H 0.19871 0.1111 0.59995 0.0
H811 H 0.12396 0.07023 0.60602 0.0
H812 H 0.14905 0.09284 0.57342 0.0
H813 H 0.2267 0.94565 0.63587 0.0
H814 H 0.18278 0.87691 0.6211 0.0
H815 H 0.15237 0.90603 0.64302 0.0
loop_
_geom_bond_atom_site_label_1
_geom_bond_atom_site_label_2
_geom_bond_distance
_geom_bond_site_symmetry_2
_ccdc_geom_bond_type
Tb0 C9 2.764 . S
Tb0 O10 2.325 . S
Tb0 O13 2.303 . S
Tb0 O17 2.322 . S
Tb0 O18 2.349 . S
Tb0 O21 2.415 . S
Tb0 O22 2.399 . S
Tb1 O11 2.322 . S
Tb1 O12 2.349 . S
Tb1 O14 2.415 . S
Tb1 O15 2.399 . S
Tb1 O16 2.325 . S
Tb1 O19 2.303 . S
Tb1 C30 2.764 . S
C2 O18 1.261 . S
C2 O19 1.257 . S
C3 C6 1.358 . S
C3 C7 1.332 . S
C3 C9 1.504 . S
C4 C5 1.373 . S
C4 C8 1.308 . S
C5 C4 1.373 . S
C5 C6 1.429 . S
C5 H32 0.932 . S
C6 C3 1.358 . S
C6 C5 1.429 . S
C6 H33 0.930 . S
C7 C3 1.332 . S
C7 C8 1.394 . S
C7 H34 0.932 . S
C8 C4 1.308 . S
C8 C7 1.394 . S
C8 H35 0.929 . S
C9 Tb0 2.764 . S
C9 C3 1.504 . S
C9 O21 1.239 . S
C9 O22 1.263 . S
O10 Tb0 2.325 . S
O10 C20 1.236 . S
O11 Tb1 2.322 . S
O11 C20 1.257 . S
O12 Tb1 2.349 . S
O12 C23 1.261 . S
O13 Tb0 2.303 . S
O13 C23 1.257 . S
O14 Tb1 2.415 . S
O14 C30 1.239 . S
O15 Tb1 2.399 . S
O15 C30 1.263 . S
O16 Tb1 2.325 . S
O16 C31 1.236 . S
O17 Tb0 2.322 . S
O17 C31 1.257 . S
O18 Tb0 2.349 . S
O18 C2 1.261 . S
O19 Tb1 2.303 . S
O19 C2 1.257 . S
C20 O10 1.236 . S
C20 O11 1.257 . S
O21 Tb0 2.415 . S
O21 C9 1.239 . S
O22 Tb0 2.399 . S
O22 C9 1.263 . S
C23 O12 1.261 . S
C23 O13 1.257 . S
C24 C27 1.358 . S
C24 C28 1.332 . S
C24 C30 1.504 1_556 S
C25 C26 1.373 . S
C25 C29 1.308 . S
C26 C25 1.373 . S
C26 C27 1.429 . S
C26 H36 0.932 . S
C27 C24 1.358 . S
C27 C26 1.429 . S
C27 H37 0.930 . S
C28 C24 1.332 . S
C28 C29 1.394 . S
C28 H38 0.932 . S
C29 C25 1.308 . S
C29 C28 1.394 . S
C29 H39 0.929 . S
C30 Tb1 2.764 . S
C30 O14 1.239 . S
C30 O15 1.263 . S
C30 C24 1.504 1_554 S
C31 O16 1.236 . S
C31 O17 1.257 . S
H32 C5 0.932 . S
H33 C6 0.930 . S
H34 C7 0.932 . S
H35 C8 0.929 . S
H36 C26 0.932 . S
H37 C27 0.930 . S
H38 C28 0.932 . S
H39 C29 0.929 . S
Tb40 C49 2.764 . S
Tb40 O50 2.325 . S
Tb40 O53 2.303 . S
Tb40 O57 2.322 . S
Tb40 O58 2.349 . S
Tb40 O61 2.415 . S
Tb40 O62 2.399 . S
Tb41 O51 2.322 . S
Tb41 O52 2.349 . S
Tb41 O54 2.415 . S
Tb41 O55 2.399 . S
Tb41 O56 2.325 . S
Tb41 O59 2.303 . S
Tb41 C70 2.764 . S
C42 O58 1.261 . S
C42 O59 1.257 . S
C43 C46 1.358 . S
C43 C47 1.332 . S
C43 C49 1.504 . S
C44 C45 1.373 . S
C44 C48 1.308 . S
C45 C44 1.373 . S
C45 C46 1.429 . S
C45 H72 0.932 . S
C46 C43 1.358 . S
C46 C45 1.429 . S
C46 H73 0.930 . S
C47 C43 1.332 . S
C47 C48 1.394 . S
C47 H74 0.932 . S
C48 C44 1.308 . S
C48 C47 1.394 . S
C48 H75 0.929 . S
C49 Tb40 2.764 . S
C49 C43 1.504 . S
C49 O61 1.239 . S
C49 O62 1.263 . S
O50 Tb40 2.325 . S
O50 C60 1.236 . S
O51 Tb41 2.322 . S
O51 C60 1.257 . S
O52 Tb41 2.349 . S
O52 C63 1.261 . S
O53 Tb40 2.303 . S
O53 C63 1.257 . S
O54 Tb41 2.415 . S
O54 C70 1.239 . S
O55 Tb41 2.399 . S
O55 C70 1.263 . S
O56 Tb41 2.325 . S
O56 C71 1.236 . S
O57 Tb40 2.322 . S
O57 C71 1.257 . S
O58 Tb40 2.349 . S
O58 C42 1.261 . S
O59 Tb41 2.303 . S
O59 C42 1.257 . S
C60 O50 1.236 . S
C60 O51 1.257 . S
O61 Tb40 2.415 . S
O61 C49 1.239 . S
O62 Tb40 2.399 . S
O62 C49 1.263 . S
C63 O52 1.261 . S
C63 O53 1.257 . S
C64 C67 1.358 . S
C64 C68 1.332 . S
C64 C70 1.504 . S
C65 C66 1.373 . S
C65 C69 1.308 . S
C66 C65 1.373 . S
C66 C67 1.429 . S
C66 H76 0.932 . S
C67 C64 1.358 . S
C67 C66 1.429 . S
C67 H77 0.930 . S
C68 C64 1.332 . S
C68 C69 1.394 . S
C68 H78 0.932 . S
C69 C65 1.308 . S
C69 C68 1.394 . S
C69 H79 0.929 . S
C70 Tb41 2.764 . S
C70 O54 1.239 . S
C70 O55 1.263 . S
C70 C64 1.504 . S
C71 O56 1.236 . S
C71 O57 1.257 . S
H72 C45 0.932 . S
H73 C46 0.930 . S
H74 C47 0.932 . S
H75 C48 0.929 . S
H76 C66 0.932 . S
H77 C67 0.930 . S
H78 C68 0.932 . S
H79 C69 0.929 . S
Tb80 C89 2.764 . S
Tb80 O90 2.325 . S
Tb80 O93 2.303 . S
Tb80 O97 2.322 . S
Tb80 O98 2.349 . S
Tb80 O101 2.415 . S
Tb80 O102 2.399 . S
Tb81 O91 2.322 . S
Tb81 O92 2.349 . S
Tb81 O94 2.415 . S
Tb81 O95 2.399 . S
Tb81 O96 2.325 . S
Tb81 O99 2.303 . S
Tb81 C110 2.764 . S
C82 O98 1.261 . S
C82 O99 1.257 . S
C83 C86 1.358 . S
C83 C87 1.332 . S
C83 C89 1.504 . S
C84 C85 1.373 . S
C84 C88 1.308 . S
C85 C84 1.373 . S
C85 C86 1.429 . S
C85 H112 0.932 . S
C86 C83 1.358 . S
C86 C85 1.429 . S
C86 H113 0.930 . S
C87 C83 1.332 . S
C87 C88 1.394 . S
C87 H114 0.932 . S
C88 C84 1.308 . S
C88 C87 1.394 . S
C88 H115 0.929 . S
C89 Tb80 2.764 . S
C89 C83 1.504 . S
C89 O101 1.239 . S
C89 O102 1.263 . S
O90 Tb80 2.325 . S
O90 C100 1.236 . S
O91 Tb81 2.322 . S
O91 C100 1.257 . S
O92 Tb81 2.349 . S
O92 C103 1.261 . S
O93 Tb80 2.303 . S
O93 C103 1.257 . S
O94 Tb81 2.415 . S
O94 C110 1.239 . S
O95 Tb81 2.399 . S
O95 C110 1.263 . S
O96 Tb81 2.325 . S
O96 C111 1.236 . S
O97 Tb80 2.322 . S
O97 C111 1.257 . S
O98 Tb80 2.349 . S
O98 C82 1.261 . S
O99 Tb81 2.303 . S
O99 C82 1.257 . S
C100 O90 1.236 . S
C100 O91 1.257 . S
O101 Tb80 2.415 . S
O101 C89 1.239 . S
O102 Tb80 2.399 . S
O102 C89 1.263 . S
C103 O92 1.261 . S
C103 O93 1.257 . S
C104 C107 1.358 . S
C104 C108 1.332 . S
C104 C110 1.504 . S
C105 C106 1.373 . S
C105 C109 1.308 . S
C106 C105 1.373 . S
C106 C107 1.429 . S
C106 H116 0.932 . S
C107 C104 1.358 . S
C107 C106 1.429 . S
C107 H117 0.930 . S
C108 C104 1.332 . S
C108 C109 1.394 . S
C108 H118 0.932 . S
C109 C105 1.308 . S
C109 C108 1.394 . S
C109 H119 0.929 . S
C110 Tb81 2.764 . S
C110 O94 1.239 . S
C110 O95 1.263 . S
C110 C104 1.504 . S
C111 O96 1.236 . S
C111 O97 1.257 . S
H112 C85 0.932 . S
H113 C86 0.930 . S
H114 C87 0.932 . S
H115 C88 0.929 . S
H116 C106 0.932 . S
H117 C107 0.930 . S
H118 C108 0.932 . S
H119 C109 0.929 . S
Tb120 C129 2.764 . S
Tb120 O130 2.325 . S
Tb120 O133 2.303 . S
Tb120 O137 2.322 . S
Tb120 O138 2.349 . S
Tb120 O141 2.415 . S
Tb120 O142 2.399 . S
Tb121 O131 2.322 . S
Tb121 O132 2.349 . S
Tb121 O134 2.415 . S
Tb121 O135 2.399 . S
Tb121 O136 2.325 . S
Tb121 O139 2.303 . S
Tb121 C150 2.764 . S
C122 O138 1.261 . S
C122 O139 1.257 . S
C123 C126 1.358 . S
C123 C127 1.332 . S
C123 C129 1.504 . S
C124 C125 1.373 . S
C124 C128 1.308 . S
C125 C124 1.373 . S
C125 C126 1.429 . S
C125 H152 0.932 . S
C126 C123 1.358 . S
C126 C125 1.429 . S
C126 H153 0.930 . S
C127 C123 1.332 . S
C127 C128 1.394 . S
C127 H154 0.932 . S
C128 C124 1.308 . S
C128 C127 1.394 . S
C128 H155 0.929 . S
C129 Tb120 2.764 . S
C129 C123 1.504 . S
C129 O141 1.239 . S
C129 O142 1.263 . S
O130 Tb120 2.325 . S
O130 C140 1.236 . S
O131 Tb121 2.322 . S
O131 C140 1.257 . S
O132 Tb121 2.349 . S
O132 C143 1.261 . S
O133 Tb120 2.303 . S
O133 C143 1.257 . S
O134 Tb121 2.415 . S
O134 C150 1.239 . S
O135 Tb121 2.399 . S
O135 C150 1.263 . S
O136 Tb121 2.325 . S
O136 C151 1.236 . S
O137 Tb120 2.322 . S
O137 C151 1.257 . S
O138 Tb120 2.349 . S
O138 C122 1.261 . S
O139 Tb121 2.303 . S
O139 C122 1.257 . S
C140 O130 1.236 . S
C140 O131 1.257 . S
O141 Tb120 2.415 . S
O141 C129 1.239 . S
O142 Tb120 2.399 . S
O142 C129 1.263 . S
C143 O132 1.261 . S
C143 O133 1.257 . S
C144 C147 1.358 . S
C144 C148 1.332 . S
C144 C150 1.504 . S
C145 C146 1.373 . S
C145 C149 1.308 . S
C146 C145 1.373 . S
C146 C147 1.429 . S
C146 H156 0.932 . S
C147 C144 1.358 . S
C147 C146 1.429 . S
C147 H157 0.930 . S
C148 C144 1.332 . S
C148 C149 1.394 . S
C148 H158 0.932 . S
C149 C145 1.308 . S
C149 C148 1.394 . S
C149 H159 0.929 . S
C150 Tb121 2.764 . S
C150 O134 1.239 . S
C150 O135 1.263 . S
C150 C144 1.504 . S
C151 O136 1.236 . S
C151 O137 1.257 . S
H152 C125 0.932 . S
H153 C126 0.930 . S
H154 C127 0.932 . S
H155 C128 0.929 . S
H156 C146 0.932 . S
H157 C147 0.930 . S
H158 C148 0.932 . S
H159 C149 0.929 . S
Tb160 C169 2.764 . S
Tb160 O170 2.325 . S
Tb160 O173 2.303 . S
Tb160 O177 2.322 . S
Tb160 O178 2.349 . S
Tb160 O181 2.415 . S
Tb160 O182 2.399 . S
Tb161 O171 2.322 . S
Tb161 O172 2.349 . S
Tb161 O174 2.415 . S
Tb161 O175 2.399 . S
Tb161 O176 2.325 . S
Tb161 O179 2.303 . S
Tb161 C190 2.764 . S
C162 O178 1.261 . S
C162 O179 1.257 . S
C163 C166 1.358 . S
C163 C167 1.332 . S
C163 C169 1.504 . S
C164 C165 1.373 . S
C164 C168 1.308 . S
C165 C164 1.373 . S
C165 C166 1.429 . S
C165 H192 0.932 . S
C166 C163 1.358 . S
C166 C165 1.429 . S
C166 H193 0.930 . S
C167 C163 1.332 . S
C167 C168 1.394 . S
C167 H194 0.932 . S
C168 C164 1.308 . S
C168 C167 1.394 . S
C168 H195 0.929 . S
C169 Tb160 2.764 . S
C169 C163 1.504 . S
C169 O181 1.239 . S
C169 O182 1.263 . S
O170 Tb160 2.325 . S
O170 C180 1.236 . S
O171 Tb161 2.322 . S
O171 C180 1.257 . S
O172 Tb161 2.349 . S
O172 C183 1.261 . S
O173 Tb160 2.303 . S
O173 C183 1.257 . S
O174 Tb161 2.415 . S
O174 C190 1.239 . S
O175 Tb161 2.399 . S
O175 C190 1.263 . S
O176 Tb161 2.325 . S
O176 C191 1.236 . S
O177 Tb160 2.322 . S
O177 C191 1.257 . S
O178 Tb160 2.349 . S
O178 C162 1.261 . S
O179 Tb161 2.303 . S
O179 C162 1.257 . S
C180 O170 1.236 . S
C180 O171 1.257 . S
O181 Tb160 2.415 . S
O181 C169 1.239 . S
O182 Tb160 2.399 . S
O182 C169 1.263 . S
C183 O172 1.261 . S
C183 O173 1.257 . S
C184 C187 1.358 . S
C184 C188 1.332 . S
C184 C190 1.504 . S
C185 C186 1.373 . S
C185 C189 1.308 . S
C186 C185 1.373 . S
C186 C187 1.429 . S
C186 H196 0.932 . S
C187 C184 1.358 . S
C187 C186 1.429 . S
C187 H197 0.930 . S
C188 C184 1.332 . S
C188 C189 1.394 . S
C188 H198 0.932 . S
C189 C185 1.308 . S
C189 C188 1.394 . S
C189 H199 0.929 . S
C190 Tb161 2.764 . S
C190 O174 1.239 . S
C190 O175 1.263 . S
C190 C184 1.504 . S
C191 O176 1.236 . S
C191 O177 1.257 . S
H192 C165 0.932 . S
H193 C166 0.930 . S
H194 C167 0.932 . S
H195 C168 0.929 . S
H196 C186 0.932 . S
H197 C187 0.930 . S
H198 C188 0.932 . S
H199 C189 0.929 . S
Tb200 C209 2.764 . S
Tb200 O210 2.325 . S
Tb200 O213 2.303 . S
Tb200 O217 2.322 . S
Tb200 O218 2.349 . S
Tb200 O221 2.415 . S
Tb200 O222 2.399 . S
Tb201 O211 2.322 . S
Tb201 O212 2.349 . S
Tb201 O214 2.415 . S
Tb201 O215 2.399 . S
Tb201 O216 2.325 . S
Tb201 O219 2.303 . S
Tb201 C230 2.764 . S
C202 O218 1.261 . S
C202 O219 1.257 . S
C203 C206 1.358 . S
C203 C207 1.332 . S
C203 C209 1.504 . S
C204 C205 1.373 . S
C204 C208 1.308 . S
C205 C204 1.373 . S
C205 C206 1.429 . S
C205 H232 0.932 . S
C206 C203 1.358 . S
C206 C205 1.429 . S
C206 H233 0.930 . S
C207 C203 1.332 . S
C207 C208 1.394 . S
C207 H234 0.932 . S
C208 C204 1.308 . S
C208 C207 1.394 . S
C208 H235 0.929 . S
C209 Tb200 2.764 . S
C209 C203 1.504 . S
C209 O221 1.239 . S
C209 O222 1.263 . S
O210 Tb200 2.325 . S
O210 C220 1.236 . S
O211 Tb201 2.322 . S
O211 C220 1.257 . S
O212 Tb201 2.349 . S
O212 C223 1.261 . S
O213 Tb200 2.303 . S
O213 C223 1.257 . S
O214 Tb201 2.415 . S
O214 C230 1.239 . S
O215 Tb201 2.399 . S
O215 C230 1.263 . S
O216 Tb201 2.325 . S
O216 C231 1.236 . S
O217 Tb200 2.322 . S
O217 C231 1.257 . S
O218 Tb200 2.349 . S
O218 C202 1.261 . S
O219 Tb201 2.303 . S
O219 C202 1.257 . S
C220 O210 1.236 . S
C220 O211 1.257 . S
O221 Tb200 2.415 . S
O221 C209 1.239 . S
O222 Tb200 2.399 . S
O222 C209 1.263 . S
C223 O212 1.261 . S
C223 O213 1.257 . S
C224 C227 1.358 . S
C224 C228 1.332 . S
C224 C230 1.504 . S
C225 C226 1.373 . S
C225 C229 1.308 . S
C226 C225 1.373 . S
C226 C227 1.429 . S
C226 H236 0.932 . S
C227 C224 1.358 . S
C227 C226 1.429 . S
C227 H237 0.930 . S
C228 C224 1.332 . S
C228 C229 1.394 . S
C228 H238 0.932 . S
C229 C225 1.308 . S
C229 C228 1.394 . S
C229 H239 0.929 . S
C230 Tb201 2.764 . S
C230 O214 1.239 . S
C230 O215 1.263 . S
C230 C224 1.504 . S
C231 O216 1.236 . S
C231 O217 1.257 . S
H232 C205 0.932 . S
H233 C206 0.930 . S
H234 C207 0.932 . S
H235 C208 0.929 . S
H236 C226 0.932 . S
H237 C227 0.930 . S
H238 C228 0.932 . S
H239 C229 0.929 . S
C240 C241 1.391 . S
C240 C242 1.394 . S
C240 H256 0.931 . S
C241 C240 1.391 . S
C241 C245 1.376 . S
C242 C240 1.394 . S
C242 C243 1.369 . S
C242 C246 1.531 . S
C243 C242 1.369 . S
C243 C244 1.410 . S
C243 C251 1.503 . S
C244 C243 1.410 . S
C244 C245 1.392 . S
C244 C247 1.511 . S
C245 C241 1.376 . S
C245 C244 1.392 . S
C245 H257 0.929 . S
C246 C242 1.531 . S
C246 H258 0.960 . S
C246 H259 0.962 . S
C246 H260 0.960 . S
C247 C244 1.511 . S
C247 H261 0.961 . S
C247 H262 0.961 . S
C247 H263 0.961 . S
C248 C249 1.370 . S
C248 C250 1.363 . S
C248 H264 0.931 . S
C249 C248 1.370 . S
C249 C253 1.408 . S
C250 C248 1.363 . S
C250 C251 1.370 . S
C250 C254 1.524 . S
C251 C243 1.503 . S
C251 C250 1.370 . S
C251 C252 1.403 . S
C252 C251 1.403 . S
C252 C253 1.404 . S
C252 C255 1.539 . S
C253 C249 1.408 . S
C253 C252 1.404 . S
C253 H265 0.930 . S
C254 C250 1.524 . S
C254 H266 0.956 . S
C254 H267 0.961 . S
C254 H268 0.961 . S
C255 C252 1.539 . S
C255 H269 0.958 . S
C255 H270 0.961 . S
C255 H271 0.960 . S
H256 C240 0.931 . S
H257 C245 0.929 . S
H258 C246 0.960 . S
H259 C246 0.962 . S
H260 C246 0.960 . S
H261 C247 0.961 . S
H262 C247 0.961 . S
H263 C247 0.961 . S
H264 C248 0.931 . S
H265 C253 0.930 . S
H266 C254 0.956 . S
H267 C254 0.961 . S
H268 C254 0.961 . S
H269 C255 0.958 . S
H270 C255 0.961 . S
H271 C255 0.960 . S
C272 C273 1.391 . S
C272 C274 1.394 . S
C272 H288 0.931 . S
C273 C272 1.391 . S
C273 C277 1.376 . S
C274 C272 1.394 . S
C274 C275 1.369 . S
C274 C278 1.531 . S
C275 C274 1.369 . S
C275 C276 1.410 . S
C275 C283 1.503 . S
C276 C275 1.410 . S
C276 C277 1.392 . S
C276 C279 1.511 . S
C277 C273 1.376 . S
C277 C276 1.392 . S
C277 H289 0.929 . S
C278 C274 1.531 . S
C278 H290 0.960 . S
C278 H291 0.962 . S
C278 H292 0.960 . S
C279 C276 1.511 . S
C279 H293 0.961 . S
C279 H294 0.961 . S
C279 H295 0.961 . S
C280 C281 1.370 . S
C280 C282 1.363 . S
C280 H296 0.931 . S
C281 C280 1.370 . S
C281 C285 1.408 . S
C282 C280 1.363 . S
C282 C283 1.370 . S
C282 C286 1.524 . S
C283 C275 1.503 . S
C283 C282 1.370 . S
C283 C284 1.403 . S
C284 C283 1.403 . S
C284 C285 1.404 . S
C284 C287 1.539 . S
C285 C281 1.408 . S
C285 C284 1.404 . S
C285 H297 0.930 . S
C286 C282 1.524 . S
C286 H298 0.956 . S
C286 H299 0.961 . S
C286 H300 0.961 . S
C287 C284 1.539 . S
C287 H301 0.958 . S
C287 H302 0.961 . S
C287 H303 0.960 . S
H288 C272 0.931 . S
H289 C277 0.929 . S
H290 C278 0.960 . S
H291 C278 0.962 . S
H292 C278 0.960 . S
H293 C279 0.961 . S
H294 C279 0.961 . S
H295 C279 0.961 . S
H296 C280 0.931 . S
H297 C285 0.930 . S
H298 C286 0.956 . S
H299 C286 0.961 . S
H300 C286 0.961 . S
H301 C287 0.958 . S
H302 C287 0.961 . S
H303 C287 0.960 . S
C304 C305 1.391 . S
C304 C306 1.394 . S
C304 H320 0.931 . S
C305 C304 1.391 . S
C305 C309 1.376 . S
C306 C304 1.394 . S
C306 C307 1.369 . S
C306 C310 1.531 . S
C307 C306 1.369 . S
C307 C308 1.410 . S
C307 C315 1.503 . S
C308 C307 1.410 . S
C308 C309 1.392 . S
C308 C311 1.511 . S
C309 C305 1.376 . S
C309 C308 1.392 . S
C309 H321 0.929 . S
C310 C306 1.531 . S
C310 H322 0.960 . S
C310 H323 0.962 . S
C310 H324 0.960 . S
C311 C308 1.511 . S
C311 H325 0.961 . S
C311 H326 0.961 . S
C311 H327 0.961 . S
C312 C313 1.370 . S
C312 C314 1.363 . S
C312 H328 0.931 . S
C313 C312 1.370 . S
C313 C317 1.408 . S
C314 C312 1.363 . S
C314 C315 1.370 . S
C314 C318 1.524 . S
C315 C307 1.503 . S
C315 C314 1.370 . S
C315 C316 1.403 . S
C316 C315 1.403 . S
C316 C317 1.404 . S
C316 C319 1.539 . S
C317 C313 1.408 . S
C317 C316 1.404 . S
C317 H329 0.930 . S
C318 C314 1.524 . S
C318 H330 0.956 . S
C318 H331 0.961 . S
C318 H332 0.961 . S
C319 C316 1.539 . S
C319 H333 0.958 . S
C319 H334 0.961 . S
C319 H335 0.960 . S
H320 C304 0.931 . S
H321 C309 0.929 . S
H322 C310 0.960 . S
H323 C310 0.962 . S
H324 C310 0.960 . S
H325 C311 0.961 . S
H326 C311 0.961 . S
H327 C311 0.961 . S
H328 C312 0.931 . S
H329 C317 0.930 . S
H330 C318 0.956 . S
H331 C318 0.961 . S
H332 C318 0.961 . S
H333 C319 0.958 . S
H334 C319 0.961 . S
H335 C319 0.960 . S
C336 C337 1.391 . S
C336 C338 1.394 . S
C336 H352 0.931 . S
C337 C336 1.391 . S
C337 C341 1.376 . S
C338 C336 1.394 . S
C338 C339 1.369 . S
C338 C342 1.531 . S
C339 C338 1.369 . S
C339 C340 1.410 . S
C339 C347 1.503 . S
C340 C339 1.410 . S
C340 C341 1.392 . S
C340 C343 1.511 . S
C341 C337 1.376 . S
C341 C340 1.392 . S
C341 H353 0.929 . S
C342 C338 1.531 . S
C342 H354 0.960 . S
C342 H355 0.962 . S
C342 H356 0.960 . S
C343 C340 1.511 . S
C343 H357 0.961 . S
C343 H358 0.961 . S
C343 H359 0.961 . S
C344 C345 1.370 . S
C344 C346 1.363 . S
C344 H360 0.931 . S
C345 C344 1.370 . S
C345 C349 1.408 . S
C346 C344 1.363 . S
C346 C347 1.370 . S
C346 C350 1.524 . S
C347 C339 1.503 . S
C347 C346 1.370 . S
C347 C348 1.403 . S
C348 C347 1.403 . S
C348 C349 1.404 . S
C348 C351 1.539 . S
C349 C345 1.408 . S
C349 C348 1.404 . S
C349 H361 0.930 . S
C350 C346 1.524 . S
C350 H362 0.956 . S
C350 H363 0.961 . S
C350 H364 0.961 . S
C351 C348 1.539 . S
C351 H365 0.958 . S
C351 H366 0.961 . S
C351 H367 0.960 . S
H352 C336 0.931 . S
H353 C341 0.929 . S
H354 C342 0.960 . S
H355 C342 0.962 . S
H356 C342 0.960 . S
H357 C343 0.961 . S
H358 C343 0.961 . S
H359 C343 0.961 . S
H360 C344 0.931 . S
H361 C349 0.930 . S
H362 C350 0.956 . S
H363 C350 0.961 . S
H364 C350 0.961 . S
H365 C351 0.958 . S
H366 C351 0.961 . S
H367 C351 0.960 . S
C368 C369 1.391 . S
C368 C370 1.394 . S
C368 H384 0.931 . S
C369 C368 1.391 . S
C369 C373 1.376 . S
C370 C368 1.394 . S
C370 C371 1.369 . S
C370 C374 1.531 . S
C371 C370 1.369 . S
C371 C372 1.410 . S
C371 C379 1.503 . S
C372 C371 1.410 . S
C372 C373 1.392 . S
C372 C375 1.511 . S
C373 C369 1.376 . S
C373 C372 1.392 . S
C373 H385 0.929 . S
C374 C370 1.531 . S
C374 H386 0.960 . S
C374 H387 0.962 . S
C374 H388 0.960 . S
C375 C372 1.511 . S
C375 H389 0.961 . S
C375 H390 0.961 . S
C375 H391 0.961 . S
C376 C377 1.370 . S
C376 C378 1.363 . S
C376 H392 0.931 . S
C377 C376 1.370 . S
C377 C381 1.408 . S
C378 C376 1.363 . S
C378 C379 1.370 . S
C378 C382 1.524 . S
C379 C371 1.503 . S
C379 C378 1.370 . S
C379 C380 1.403 . S
C380 C379 1.403 . S
C380 C381 1.404 . S
C380 C383 1.539 . S
C381 C377 1.408 . S
C381 C380 1.404 . S
C381 H393 0.930 . S
C382 C378 1.524 . S
C382 H394 0.956 . S
C382 H395 0.961 . S
C382 H396 0.961 . S
C383 C380 1.539 . S
C383 H397 0.958 . S
C383 H398 0.961 . S
C383 H399 0.960 . S
H384 C368 0.931 . S
H385 C373 0.929 . S
H386 C374 0.960 . S
H387 C374 0.962 . S
H388 C374 0.960 . S
H389 C375 0.961 . S
H390 C375 0.961 . S
H391 C375 0.961 . S
H392 C376 0.931 . S
H393 C381 0.930 . S
H394 C382 0.956 . S
H395 C382 0.961 . S
H396 C382 0.961 . S
H397 C383 0.958 . S
H398 C383 0.961 . S
H399 C383 0.960 . S
C400 C401 1.391 . S
C400 C402 1.394 . S
C400 H416 0.931 . S
C401 C400 1.391 . S
C401 C405 1.376 . S
C402 C400 1.394 . S
C402 C403 1.369 . S
C402 C406 1.531 . S
C403 C402 1.369 . S
C403 C404 1.410 . S
C403 C411 1.503 . S
C404 C403 1.410 . S
C404 C405 1.392 . S
C404 C407 1.511 . S
C405 C401 1.376 . S
C405 C404 1.392 . S
C405 H417 0.929 . S
C406 C402 1.531 . S
C406 H418 0.960 . S
C406 H419 0.962 . S
C406 H420 0.960 . S
C407 C404 1.511 . S
C407 H421 0.961 . S
C407 H422 0.961 . S
C407 H423 0.961 . S
C408 C409 1.370 . S
C408 C410 1.363 . S
C408 H424 0.931 . S
C409 C408 1.370 . S
C409 C413 1.408 . S
C410 C408 1.363 . S
C410 C411 1.370 1_556 S
C410 C414 1.524 . S
C411 C403 1.503 . S
C411 C410 1.370 1_554 S
C411 C412 1.403 . S
C412 C411 1.403 . S
C412 C413 1.404 1_554 S
C412 C415 1.539 . S
C413 C409 1.408 . S
C413 C412 1.404 1_556 S
C413 H425 0.930 . S
C414 C410 1.524 . S
C414 H426 0.956 1_556 S
C414 H427 0.961 1_556 S
C414 H428 0.961 . S
C415 C412 1.539 . S
C415 H429 0.958 . S
C415 H430 0.961 . S
C415 H431 0.960 . S
H416 C400 0.931 . S
H417 C405 0.929 . S
H418 C406 0.960 . S
H419 C406 0.962 . S
H420 C406 0.960 . S
H421 C407 0.961 . S
H422 C407 0.961 . S
H423 C407 0.961 . S
H424 C408 0.931 . S
H425 C413 0.930 . S
H426 C414 0.956 1_554 S
H427 C414 0.961 1_554 S
H428 C414 0.961 . S
H429 C415 0.958 . S
H430 C415 0.961 . S
H431 C415 0.960 . S
C432 C433 1.391 . S
C432 C434 1.394 . S
C432 H448 0.931 . S
C433 C432 1.391 . S
C433 C437 1.376 . S
C434 C432 1.394 . S
C434 C435 1.369 . S
C434 C438 1.531 . S
C435 C434 1.369 . S
C435 C436 1.410 . S
C435 C443 1.503 . S
C436 C435 1.410 . S
C436 C437 1.392 . S
C436 C439 1.511 . S
C437 C433 1.376 . S
C437 C436 1.392 . S
C437 H449 0.929 . S
C438 C434 1.531 . S
C438 H450 0.960 . S
C438 H451 0.962 . S
C438 H452 0.960 . S
C439 C436 1.511 . S
C439 H453 0.961 . S
C439 H454 0.961 . S
C439 H455 0.961 . S
C440 C441 1.370 . S
C440 C442 1.363 . S
C440 H456 0.931 . S
C441 C440 1.370 . S
C441 C445 1.408 . S
C442 C440 1.363 . S
C442 C443 1.370 . S
C442 C446 1.524 . S
C443 C435 1.503 . S
C443 C442 1.370 . S
C443 C444 1.403 . S
C444 C443 1.403 . S
C444 C445 1.404 . S
C444 C447 1.539 . S
C445 C441 1.408 . S
C445 C444 1.404 . S
C445 H457 0.930 . S
C446 C442 1.524 . S
C446 H458 0.956 . S
C446 H459 0.961 . S
C446 H460 0.961 . S
C447 C444 1.539 . S
C447 H461 0.958 . S
C447 H462 0.961 . S
C447 H463 0.960 . S
H448 C432 0.931 . S
H449 C437 0.929 . S
H450 C438 0.960 . S
H451 C438 0.962 . S
H452 C438 0.960 . S
H453 C439 0.961 . S
H454 C439 0.961 . S
H455 C439 0.961 . S
H456 C440 0.931 . S
H457 C445 0.930 . S
H458 C446 0.956 . S
H459 C446 0.961 . S
H460 C446 0.961 . S
H461 C447 0.958 . S
H462 C447 0.961 . S
H463 C447 0.960 . S
C464 C465 1.391 . S
C464 C466 1.394 . S
C464 H480 0.931 . S
C465 C464 1.391 . S
C465 C469 1.376 . S
C466 C464 1.394 . S
C466 C467 1.369 . S
C466 C470 1.531 . S
C467 C466 1.369 . S
C467 C468 1.410 . S
C467 C475 1.503 . S
C468 C467 1.410 . S
C468 C469 1.392 . S
C468 C471 1.511 . S
C469 C465 1.376 . S
C469 C468 1.392 . S
C469 H481 0.929 . S
C470 C466 1.531 . S
C470 H482 0.960 . S
C470 H483 0.962 . S
C470 H484 0.960 . S
C471 C468 1.511 . S
C471 H485 0.961 . S
C471 H486 0.961 . S
C471 H487 0.961 . S
C472 C473 1.370 . S
C472 C474 1.363 . S
C472 H488 0.931 . S
C473 C472 1.370 . S
C473 C477 1.408 . S
C474 C472 1.363 . S
C474 C475 1.370 . S
C474 C478 1.524 . S
C475 C467 1.503 . S
C475 C474 1.370 . S
C475 C476 1.403 . S
C476 C475 1.403 . S
C476 C477 1.404 . S
C476 C479 1.539 1_655 S
C477 C473 1.408 . S
C477 C476 1.404 . S
C477 H489 0.930 . S
C478 C474 1.524 . S
C478 H490 0.956 . S
C478 H491 0.961 . S
C478 H492 0.961 . S
C479 C476 1.539 1_455 S
C479 H493 0.958 . S
C479 H494 0.961 . S
C479 H495 0.960 . S
H480 C464 0.931 . S
H481 C469 0.929 . S
H482 C470 0.960 . S
H483 C470 0.962 . S
H484 C470 0.960 . S
H485 C471 0.961 . S
H486 C471 0.961 . S
H487 C471 0.961 . S
H488 C472 0.931 . S
H489 C477 0.930 . S
H490 C478 0.956 . S
H491 C478 0.961 . S
H492 C478 0.961 . S
H493 C479 0.958 . S
H494 C479 0.961 . S
H495 C479 0.960 . S
C496 C497 1.391 . S
C496 C498 1.394 . S
C496 H512 0.931 . S
C497 C496 1.391 . S
C497 C501 1.376 . S
C498 C496 1.394 . S
C498 C499 1.369 . S
C498 C502 1.531 . S
C499 C498 1.369 . S
C499 C500 1.410 . S
C499 C507 1.503 . S
C500 C499 1.410 . S
C500 C501 1.392 . S
C500 C503 1.522 . S
C501 C497 1.376 . S
C501 C500 1.392 . S
C501 H513 0.929 . S
C502 C498 1.531 . S
C502 H514 0.960 . S
C502 H515 0.962 . S
C502 H516 0.960 . S
C503 C500 1.522 . S
C503 H517 0.969 . S
C503 H518 0.954 1_545 S
C503 H519 0.949 1_545 S
C504 C505 1.358 1_545 S
C504 C506 1.363 . S
C504 H520 0.931 . S
C505 C504 1.358 1_565 S
C505 C509 1.411 . S
C506 C504 1.363 . S
C506 C507 1.370 . S
C506 C510 1.524 . S
C507 C499 1.503 . S
C507 C506 1.370 . S
C507 C508 1.403 . S
C508 C507 1.403 . S
C508 C509 1.404 1_545 S
C508 C511 1.539 1_545 S
C509 C505 1.411 . S
C509 C508 1.404 1_565 S
C509 H521 0.930 . S
C510 C506 1.524 . S
C510 H522 0.956 . S
C510 H523 0.961 . S
C510 H524 0.961 . S
C511 C508 1.539 1_565 S
C511 H525 0.958 . S
C511 H526 0.961 . S
C511 H527 0.960 . S
H512 C496 0.931 . S
H513 C501 0.929 . S
H514 C502 0.960 . S
H515 C502 0.962 . S
H516 C502 0.960 . S
H517 C503 0.969 . S
H518 C503 0.954 1_565 S
H519 C503 0.949 1_565 S
H520 C504 0.931 . S
H521 C509 0.930 . S
H522 C510 0.956 . S
H523 C510 0.961 . S
H524 C510 0.961 . S
H525 C511 0.958 . S
H526 C511 0.961 . S
H527 C511 0.960 . S
C528 C529 1.391 . S
C528 C530 1.394 . S
C528 H544 0.931 . S
C529 C528 1.391 . S
C529 C533 1.376 . S
C530 C528 1.394 . S
C530 C531 1.369 . S
C530 C534 1.531 . S
C531 C530 1.369 . S
C531 C532 1.410 . S
C531 C539 1.503 . S
C532 C531 1.410 . S
C532 C533 1.392 . S
C532 C535 1.511 . S
C533 C529 1.376 . S
C533 C532 1.392 . S
C533 H545 0.929 . S
C534 C530 1.531 . S
C534 H546 0.960 . S
C534 H547 0.962 . S
C534 H548 0.960 . S
C535 C532 1.511 . S
C535 H549 0.961 . S
C535 H550 0.961 . S
C535 H551 0.961 . S
C536 C537 1.370 . S
C536 C538 1.363 . S
C536 H552 0.931 . S
C537 C536 1.370 . S
C537 C541 1.408 . S
C538 C536 1.363 . S
C538 C539 1.370 . S
C538 C542 1.524 . S
C539 C531 1.503 . S
C539 C538 1.370 . S
C539 C540 1.403 . S
C540 C539 1.403 . S
C540 C541 1.404 . S
C540 C543 1.539 . S
C541 C537 1.408 . S
C541 C540 1.404 . S
C541 H553 0.930 . S
C542 C538 1.524 . S
C542 H554 0.956 . S
C542 H555 0.961 . S
C542 H556 0.961 . S
C543 C540 1.539 . S
C543 H557 0.958 . S
C543 H558 0.961 . S
C543 H559 0.960 . S
H544 C528 0.931 . S
H545 C533 0.929 . S
H546 C534 0.960 . S
H547 C534 0.962 . S
H548 C534 0.960 . S
H549 C535 0.961 . S
H550 C535 0.961 . S
H551 C535 0.961 . S
H552 C536 0.931 . S
H553 C541 0.930 . S
H554 C542 0.956 . S
H555 C542 0.961 . S
H556 C542 0.961 . S
H557 C543 0.958 . S
H558 C543 0.961 . S
H559 C543 0.960 . S
C560 C561 1.391 . S
C560 C562 1.394 . S
C560 H576 0.931 . S
C561 C560 1.391 . S
C561 C565 1.376 . S
C562 C560 1.394 . S
C562 C563 1.369 . S
C562 C566 1.531 . S
C563 C562 1.369 . S
C563 C564 1.410 . S
C563 C571 1.503 . S
C564 C563 1.410 . S
C564 C565 1.392 . S
C564 C567 1.511 1_455 S
C565 C561 1.376 . S
C565 C564 1.392 . S
C565 H577 0.929 . S
C566 C562 1.531 . S
C566 H578 0.960 . S
C566 H579 0.962 . S
C566 H580 0.960 . S
C567 C564 1.511 1_655 S
C567 H581 0.961 . S
C567 H582 0.961 . S
C567 H583 0.961 . S
C568 C569 1.362 1_455 S
C568 C570 1.363 . S
C568 H584 0.931 . S
C569 C568 1.362 1_655 S
C569 C573 1.410 . S
C570 C568 1.363 . S
C570 C571 1.370 . S
C570 C574 1.524 . S
C571 C563 1.503 . S
C571 C570 1.370 . S
C571 C572 1.403 . S
C572 C571 1.403 . S
C572 C573 1.404 1_455 S
C572 C575 1.539 1_455 S
C573 C569 1.410 . S
C573 C572 1.404 1_655 S
C573 H585 0.930 . S
C574 C570 1.524 . S
C574 H586 0.956 . S
C574 H587 0.961 . S
C574 H588 0.961 . S
C575 C572 1.539 1_655 S
C575 H589 0.958 1_655 S
C575 H590 0.961 . S
C575 H591 0.960 . S
H576 C560 0.931 . S
H577 C565 0.929 . S
H578 C566 0.960 . S
H579 C566 0.962 . S
H580 C566 0.960 . S
H581 C567 0.961 . S
H582 C567 0.961 . S
H583 C567 0.961 . S
H584 C568 0.931 . S
H585 C573 0.930 . S
H586 C574 0.956 . S
H587 C574 0.961 . S
H588 C574 0.961 . S
H589 C575 0.958 1_455 S
H590 C575 0.961 . S
H591 C575 0.960 . S
C592 C593 1.391 . S
C592 C594 1.394 . S
C592 H608 0.931 . S
C593 C592 1.391 . S
C593 C597 1.376 . S
C594 C592 1.394 . S
C594 C595 1.369 . S
C594 C598 1.531 . S
C595 C594 1.369 . S
C595 C596 1.410 . S
C595 C603 1.503 . S
C596 C595 1.410 . S
C596 C597 1.392 . S
C596 C599 1.511 . S
C597 C593 1.376 . S
C597 C596 1.392 . S
C597 H609 0.929 . S
C598 C594 1.531 . S
C598 H610 0.960 . S
C598 H611 0.962 . S
C598 H612 0.960 . S
C599 C596 1.511 . S
C599 H613 0.961 1_565 S
C599 H614 0.961 1_565 S
C599 H615 0.961 . S
C600 C601 1.370 . S
C600 C602 1.363 . S
C600 H616 0.931 . S
C601 C600 1.370 . S
C601 C605 1.408 . S
C602 C600 1.363 . S
C602 C603 1.370 . S
C602 C606 1.524 . S
C603 C595 1.503 . S
C603 C602 1.370 . S
C603 C604 1.403 . S
C604 C603 1.403 . S
C604 C605 1.404 . S
C604 C607 1.539 . S
C605 C601 1.408 . S
C605 C604 1.404 . S
C605 H617 0.930 . S
C606 C602 1.524 . S
C606 H618 0.956 . S
C606 H619 0.961 . S
C606 H620 0.961 . S
C607 C604 1.539 . S
C607 H621 0.958 . S
C607 H622 0.961 . S
C607 H623 0.960 . S
H608 C592 0.931 . S
H609 C597 0.929 . S
H610 C598 0.960 . S
H611 C598 0.962 . S
H612 C598 0.960 . S
H613 C599 0.961 1_545 S
H614 C599 0.961 1_545 S
H615 C599 0.961 . S
H616 C600 0.931 . S
H617 C605 0.930 . S
H618 C606 0.956 . S
H619 C606 0.961 . S
H620 C606 0.961 . S
H621 C607 0.958 . S
H622 C607 0.961 . S
H623 C607 0.960 . S
C624 C625 1.391 . S
C624 C626 1.394 . S
C624 H640 0.931 . S
C625 C624 1.391 . S
C625 C629 1.376 . S
C626 C624 1.394 . S
C626 C627 1.369 . S
C626 C630 1.531 . S
C627 C626 1.369 . S
C627 C628 1.410 . S
C627 C635 1.503 . S
C628 C627 1.410 . S
C628 C629 1.392 . S
C628 C631 1.511 . S
C629 C625 1.376 . S
C629 C628 1.392 . S
C629 H641 0.929 . S
C630 C626 1.531 . S
C630 H642 0.960 . S
C630 H643 0.962 . S
C630 H644 0.960 . S
C631 C628 1.511 . S
C631 H645 0.961 . S
C631 H646 0.961 . S
C631 H647 0.961 . S
C632 C633 1.370 . S
C632 C634 1.363 1_554 S
C632 H648 0.931 . S
C633 C632 1.370 . S
C633 C637 1.408 1_554 S
C634 C632 1.363 1_556 S
C634 C635 1.370 . S
C634 C638 1.524 . S
C635 C627 1.503 . S
C635 C634 1.370 . S
C635 C636 1.403 . S
C636 C635 1.403 . S
C636 C637 1.404 . S
C636 C639 1.539 . S
C637 C633 1.408 1_556 S
C637 C636 1.404 . S
C637 H649 0.930 1_556 S
C638 C634 1.524 . S
C638 H650 0.956 . S
C638 H651 0.961 . S
C638 H652 0.961 . S
C639 C636 1.539 . S
C639 H653 0.958 . S
C639 H654 0.961 . S
C639 H655 0.960 . S
H640 C624 0.931 . S
H641 C629 0.929 . S
H642 C630 0.960 . S
H643 C630 0.962 . S
H644 C630 0.960 . S
H645 C631 0.961 . S
H646 C631 0.961 . S
H647 C631 0.961 . S
H648 C632 0.931 . S
H649 C637 0.930 1_554 S
H650 C638 0.956 . S
H651 C638 0.961 . S
H652 C638 0.961 . S
H653 C639 0.958 . S
H654 C639 0.961 . S
H655 C639 0.960 . S
C656 C657 1.391 . S
C656 C658 1.394 . S
C656 H672 0.931 . S
C657 C656 1.391 . S
C657 C661 1.376 . S
C658 C656 1.394 . S
C658 C659 1.369 . S
C658 C662 1.531 . S
C659 C658 1.369 . S
C659 C660 1.410 . S
C659 C667 1.503 1_655 S
C660 C659 1.410 . S
C660 C661 1.392 . S
C660 C663 1.511 1_655 S
C661 C657 1.376 . S
C661 C660 1.392 . S
C661 H673 0.929 . S
C662 C658 1.531 . S
C662 H674 0.960 . S
C662 H675 0.962 . S
C662 H676 0.960 . S
C663 C660 1.511 1_455 S
C663 H677 0.961 1_455 S
C663 H678 0.961 . S
C663 H679 0.961 . S
C664 C665 1.370 . S
C664 C666 1.363 1_455 S
C664 H680 0.937 . S
C665 C664 1.370 . S
C665 C669 1.408 . S
C666 C664 1.363 1_655 S
C666 C667 1.370 1_655 S
C666 C670 1.524 . S
C667 C659 1.503 1_455 S
C667 C666 1.370 1_455 S
C667 C668 1.403 . S
C668 C667 1.403 . S
C668 C669 1.404 . S
C668 C671 1.539 . S
C669 C665 1.408 . S
C669 C668 1.404 . S
C669 H681 0.930 . S
C670 C666 1.524 . S
C670 H682 0.956 . S
C670 H683 0.961 . S
C670 H684 0.961 . S
C671 C668 1.539 . S
C671 H685 0.958 . S
C671 H686 0.961 . S
C671 H687 0.960 . S
H672 C656 0.931 . S
H673 C661 0.929 . S
H674 C662 0.960 . S
H675 C662 0.962 . S
H676 C662 0.960 . S
H677 C663 0.961 1_655 S
H678 C663 0.961 . S
H679 C663 0.961 . S
H680 C664 0.937 . S
H681 C669 0.930 . S
H682 C670 0.956 . S
H683 C670 0.961 . S
H684 C670 0.961 . S
H685 C671 0.958 . S
H686 C671 0.961 . S
H687 C671 0.960 . S
C688 C689 1.391 . S
C688 C690 1.394 . S
C688 H704 0.931 . S
C689 C688 1.391 . S
C689 C693 1.376 . S
C690 C688 1.394 . S
C690 C691 1.369 . S
C690 C694 1.531 . S
C691 C690 1.369 . S
C691 C692 1.410 . S
C691 C699 1.503 . S
C692 C691 1.410 . S
C692 C693 1.392 . S
C692 C695 1.511 . S
C693 C689 1.376 . S
C693 C692 1.392 . S
C693 H705 0.929 . S
C694 C690 1.531 . S
C694 H706 0.960 . S
C694 H707 0.962 . S
C694 H708 0.960 . S
C695 C692 1.511 . S
C695 H709 0.961 1_565 S
C695 H710 0.961 1_565 S
C695 H711 0.961 . S
C696 C697 1.370 . S
C696 C698 1.363 . S
C696 H712 0.931 . S
C697 C696 1.370 . S
C697 C701 1.408 1_545 S
C698 C696 1.363 . S
C698 C699 1.370 1_545 S
C698 C702 1.524 . S
C699 C691 1.503 . S
C699 C698 1.370 1_565 S
C699 C700 1.403 . S
C700 C699 1.403 . S
C700 C701 1.404 . S
C700 C703 1.539 . S
C701 C697 1.408 1_565 S
C701 C700 1.404 . S
C701 H713 0.930 . S
C702 C698 1.524 . S
C702 H714 0.956 . S
C702 H715 0.961 . S
C702 H716 0.961 . S
C703 C700 1.539 . S
C703 H717 0.958 . S
C703 H718 0.961 . S
C703 H719 0.960 . S
H704 C688 0.931 . S
H705 C693 0.929 . S
H706 C694 0.960 . S
H707 C694 0.962 . S
H708 C694 0.960 . S
H709 C695 0.961 1_545 S
H710 C695 0.961 1_545 S
H711 C695 0.961 . S
H712 C696 0.931 . S
H713 C701 0.930 . S
H714 C702 0.956 . S
H715 C702 0.961 . S
H716 C702 0.961 . S
H717 C703 0.958 . S
H718 C703 0.961 . S
H719 C703 0.960 . S
C720 C721 1.391 . S
C720 C722 1.394 . S
C720 H736 0.931 . S
C721 C720 1.391 . S
C721 C725 1.376 . S
C722 C720 1.394 . S
C722 C723 1.369 . S
C722 C726 1.531 . S
C723 C722 1.369 . S
C723 C724 1.410 . S
C723 C731 1.503 . S
C724 C723 1.410 . S
C724 C725 1.392 . S
C724 C727 1.511 . S
C725 C721 1.376 . S
C725 C724 1.392 . S
C725 H737 0.929 . S
C726 C722 1.531 . S
C726 H738 0.960 . S
C726 H739 0.962 . S
C726 H740 0.960 . S
C727 C724 1.511 . S
C727 H741 0.961 . S
C727 H742 0.961 . S
C727 H743 0.961 . S
C728 C729 1.370 1_556 S
C728 C730 1.363 . S
C728 H744 0.931 . S
C729 C728 1.370 1_554 S
C729 C733 1.408 1_554 S
C730 C728 1.363 . S
C730 C731 1.370 . S
C730 C734 1.524 . S
C731 C723 1.503 . S
C731 C730 1.370 . S
C731 C732 1.403 . S
C732 C731 1.403 . S
C732 C733 1.404 . S
C732 C735 1.539 . S
C733 C729 1.408 1_556 S
C733 C732 1.404 . S
C733 H745 0.930 1_556 S
C734 C730 1.524 . S
C734 H746 0.956 . S
C734 H747 0.961 . S
C734 H748 0.961 . S
C735 C732 1.539 . S
C735 H749 0.958 . S
C735 H750 0.961 . S
C735 H751 0.960 . S
H736 C720 0.931 . S
H737 C725 0.929 . S
H738 C726 0.960 . S
H739 C726 0.962 . S
H740 C726 0.960 . S
H741 C727 0.961 . S
H742 C727 0.961 . S
H743 C727 0.961 . S
H744 C728 0.931 . S
H745 C733 0.930 1_554 S
H746 C734 0.956 . S
H747 C734 0.961 . S
H748 C734 0.961 . S
H749 C735 0.958 . S
H750 C735 0.961 . S
H751 C735 0.960 . S
C752 C753 1.391 . S
C752 C754 1.394 . S
C752 H768 0.931 . S
C753 C752 1.391 . S
C753 C757 1.376 . S
C754 C752 1.394 . S
C754 C755 1.369 . S
C754 C758 1.531 1_455 S
C755 C754 1.369 . S
C755 C756 1.410 . S
C755 C763 1.503 1_455 S
C756 C755 1.410 . S
C756 C757 1.392 . S
C756 C759 1.511 . S
C757 C753 1.376 . S
C757 C756 1.392 . S
C757 H769 0.929 . S
C758 C754 1.531 1_655 S
C758 H770 0.960 . S
C758 H771 0.962 . S
C758 H772 0.960 . S
C759 C756 1.511 . S
C759 H773 0.961 . S
C759 H774 0.961 . S
C759 H775 0.961 . S
C760 C761 1.370 . S
C760 C762 1.363 . S
C760 H776 0.931 . S
C761 C760 1.370 . S
C761 C765 1.417 . S
C762 C760 1.363 . S
C762 C763 1.370 . S
C762 C766 1.524 . S
C763 C755 1.503 1_655 S
C763 C762 1.370 . S
C763 C764 1.403 1_655 S
C764 C763 1.403 1_455 S
C764 C765 1.400 1_455 S
C764 C767 1.539 . S
C765 C761 1.417 . S
C765 C764 1.400 1_655 S
C765 H777 0.926 1_655 S
C766 C762 1.524 . S
C766 H778 0.956 . S
C766 H779 0.961 . S
C766 H780 0.961 . S
C767 C764 1.539 . S
C767 H781 0.958 . S
C767 H782 0.961 . S
C767 H783 0.960 . S
H768 C752 0.931 . S
H769 C757 0.929 . S
H770 C758 0.960 . S
H771 C758 0.962 . S
H772 C758 0.960 . S
H773 C759 0.961 . S
H774 C759 0.961 . S
H775 C759 0.961 . S
H776 C760 0.931 . S
H777 C765 0.926 1_455 S
H778 C766 0.956 . S
H779 C766 0.961 . S
H780 C766 0.961 . S
H781 C767 0.958 . S
H782 C767 0.961 . S
H783 C767 0.960 . S
C784 C785 1.391 . S
C784 C786 1.394 . S
C784 H800 0.931 . S
C785 C784 1.391 . S
C785 C789 1.376 . S
C786 C784 1.394 . S
C786 C787 1.369 1_545 S
C786 C790 1.531 1_545 S
C787 C786 1.369 1_565 S
C787 C788 1.410 1_565 S
C787 C795 1.503 . S
C788 C787 1.410 1_545 S
C788 C789 1.392 . S
C788 C791 1.511 . S
C789 C785 1.376 . S
C789 C788 1.392 . S
C789 H801 0.929 . S
C790 C786 1.531 1_565 S
C790 H802 0.960 . S
C790 H803 0.962 1_565 S
C790 H804 0.960 . S
C791 C788 1.511 . S
C791 H805 0.961 . S
C791 H806 0.961 . S
C791 H807 0.961 1_545 S
C792 C793 1.370 . S
C792 C794 1.363 . S
C792 H808 0.931 . S
C793 C792 1.370 . S
C793 C797 1.408 . S
C794 C792 1.363 . S
C794 C795 1.370 . S
C794 C798 1.524 1_565 S
C795 C787 1.503 . S
C795 C794 1.370 . S
C795 C796 1.403 . S
C796 C795 1.403 . S
C796 C797 1.404 . S
C796 C799 1.539 . S
C797 C793 1.408 . S
C797 C796 1.404 . S
C797 H809 0.930 . S
C798 C794 1.524 1_545 S
C798 H810 0.956 . S
C798 H811 0.961 . S
C798 H812 0.961 . S
C799 C796 1.539 . S
C799 H813 0.958 . S
C799 H814 0.961 . S
C799 H815 0.960 . S
H800 C784 0.931 . S
H801 C789 0.929 . S
H802 C790 0.960 . S
H803 C790 0.962 1_545 S
H804 C790 0.960 . S
H805 C791 0.961 . S
H806 C791 0.961 . S
H807 C791 0.961 1_565 S
H808 C792 0.931 . S
H809 C797 0.930 . S
H810 C798 0.956 . S
H811 C798 0.961 . S
H812 C798 0.961 . S
H813 C799 0.958 . S
H814 C799 0.961 . S
H815 C799 0.960 . S
C241 C185 1.381 . S
C249 C20 1.356 . S
C273 C220 1.340 . S
C281 C65 1.370 . S
C305 C25 1.373 . S
C313 C100 1.359 . S
C337 C60 1.339 . S
C345 C145 1.371 . S
C369 C105 1.340 . S
C377 C180 1.372 . S
C401 C140 1.351 . S
C409 C225 1.365 . S
C433 C2 1.633 . S
C441 C143 1.589 . S
C465 C162 1.645 1_655 S
C473 C63 1.593 . S
C497 C223 1.600 . S
C505 C82 1.663 . S
C529 C103 1.539 . S
C537 C202 1.674 . S
C561 C23 1.595 . S
C569 C122 1.660 . S
C593 C183 1.561 . S
C601 C42 1.652 1_565 S
C625 C231 1.567 . S
C633 C31 1.567 . S
C657 C44 0.753 . S
C665 C4 0.772 . S
C689 C111 1.555 . S
C697 C71 1.577 . S
C721 C84 0.726 . S
C729 C124 0.752 . S
C753 C191 1.562 . S
C761 C151 1.580 . S
C785 C204 0.775 . S
C793 C164 0.781 . S
