# Generated by pormake.
# Topology cha, (4)-cn, num edge types: 1
# Building blocks:
#     Node 0, Type 0, BuildingBlock: QUQFOY_clean_sbu_1, # of connection points: 4
#     Node 1, Type 0, BuildingBlock: QUQFOY_clean_sbu_1, # of connection points: 4
#     Node 2, Type 0, BuildingBlock: QUQFOY_clean_sbu_1, # of connection points: 4
#     Node 3, Type 0, BuildingBlock: QUQFOY_clean_sbu_1, # of connection points: 4
#     Node 4, Type 0, BuildingBlock: QUQFOY_clean_sbu_1, # of connection points: 4
#     Node 5, Type 0, BuildingBlock: QUQFOY_clean_sbu_1, # of connection points: 4
#     Node 6, Type 0, BuildingBlock: QUQFOY_clean_sbu_1, # of connection points: 4
#     Node 7, Type 0, BuildingBlock: QUQFOY_clean_sbu_1, # of connection points: 4
#     Node 8, Type 0, BuildingBlock: QUQFOY_clean_sbu_1, # of connection points: 4
#     Node 9, Type 0, BuildingBlock: QUQFOY_clean_sbu_1, # of connection points: 4
#     Node 10, Type 0, BuildingBlock: QUQFOY_clean_sbu_1, # of connection points: 4
#     Node 11, Type 0, BuildingBlock: QUQFOY_clean_sbu_1, # of connection points: 4
#     Node 12, Type 0, BuildingBlock: QUQFOY_clean_sbu_1, # of connection points: 4
#     Node 13, Type 0, BuildingBlock: QUQFOY_clean_sbu_1, # of connection points: 4
#     Node 14, Type 0, BuildingBlock: QUQFOY_clean_sbu_1, # of connection points: 4
#     Node 15, Type 0, BuildingBlock: QUQFOY_clean_sbu_1, # of connection points: 4
#     Node 16, Type 0, BuildingBlock: QUQFOY_clean_sbu_1, # of connection points: 4
#     Node 17, Type 0, BuildingBlock: QUQFOY_clean_sbu_1, # of connection points: 4
#     Node 18, Type 0, BuildingBlock: QUQFOY_clean_sbu_1, # of connection points: 4
#     Node 19, Type 0, BuildingBlock: QUQFOY_clean_sbu_1, # of connection points: 4
#     Node 20, Type 0, BuildingBlock: QUQFOY_clean_sbu_1, # of connection points: 4
#     Node 21, Type 0, BuildingBlock: QUQFOY_clean_sbu_1, # of connection points: 4
#     Node 22, Type 0, BuildingBlock: QUQFOY_clean_sbu_1, # of connection points: 4
#     Node 23, Type 0, BuildingBlock: QUQFOY_clean_sbu_1, # of connection points: 4
#     Node 24, Type 0, BuildingBlock: QUQFOY_clean_sbu_1, # of connection points: 4
#     Node 25, Type 0, BuildingBlock: QUQFOY_clean_sbu_1, # of connection points: 4
#     Node 26, Type 0, BuildingBlock: QUQFOY_clean_sbu_1, # of connection points: 4
#     Node 27, Type 0, BuildingBlock: QUQFOY_clean_sbu_1, # of connection points: 4
#     Node 28, Type 0, BuildingBlock: QUQFOY_clean_sbu_1, # of connection points: 4
#     Node 29, Type 0, BuildingBlock: QUQFOY_clean_sbu_1, # of connection points: 4
#     Node 30, Type 0, BuildingBlock: QUQFOY_clean_sbu_1, # of connection points: 4
#     Node 31, Type 0, BuildingBlock: QUQFOY_clean_sbu_1, # of connection points: 4
#     Node 32, Type 0, BuildingBlock: QUQFOY_clean_sbu_1, # of connection points: 4
#     Node 33, Type 0, BuildingBlock: QUQFOY_clean_sbu_1, # of connection points: 4
#     Node 34, Type 0, BuildingBlock: QUQFOY_clean_sbu_1, # of connection points: 4
#     Node 35, Type 0, BuildingBlock: QUQFOY_clean_sbu_1, # of connection points: 4
#     Edge 36, Type (0, 0), BuildingBlock: CIFDUS_clean_linker_0, # of connection points: 2
#     Edge 37, Type (0, 0), BuildingBlock: CIFDUS_clean_linker_0, # of connection points: 2
#     Edge 38, Type (0, 0), BuildingBlock: CIFDUS_clean_linker_0, # of connection points: 2
#     Edge 39, Type (0, 0), BuildingBlock: CIFDUS_clean_linker_0, # of connection points: 2
#     Edge 40, Type (0, 0), BuildingBlock: CIFDUS_clean_linker_0, # of connection points: 2
#     Edge 41, Type (0, 0), BuildingBlock: CIFDUS_clean_linker_0, # of connection points: 2
#     Edge 42, Type (0, 0), BuildingBlock: CIFDUS_clean_linker_0, # of connection points: 2
#     Edge 43, Type (0, 0), BuildingBlock: CIFDUS_clean_linker_0, # of connection points: 2
#     Edge 44, Type (0, 0), BuildingBlock: CIFDUS_clean_linker_0, # of connection points: 2
#     Edge 45, Type (0, 0), BuildingBlock: CIFDUS_clean_linker_0, # of connection points: 2
#     Edge 46, Type (0, 0), BuildingBlock: CIFDUS_clean_linker_0, # of connection points: 2
#     Edge 47, Type (0, 0), BuildingBlock: CIFDUS_clean_linker_0, # of connection points: 2
#     Edge 48, Type (0, 0), BuildingBlock: CIFDUS_clean_linker_0, # of connection points: 2
#     Edge 49, Type (0, 0), BuildingBlock: CIFDUS_clean_linker_0, # of connection points: 2
#     Edge 50, Type (0, 0), BuildingBlock: CIFDUS_clean_linker_0, # of connection points: 2
#     Edge 51, Type (0, 0), BuildingBlock: CIFDUS_clean_linker_0, # of connection points: 2
#     Edge 52, Type (0, 0), BuildingBlock: CIFDUS_clean_linker_0, # of connection points: 2
#     Edge 53, Type (0, 0), BuildingBlock: CIFDUS_clean_linker_0, # of connection points: 2
#     Edge 54, Type (0, 0), BuildingBlock: CIFDUS_clean_linker_0, # of connection points: 2
#     Edge 55, Type (0, 0), BuildingBlock: CIFDUS_clean_linker_0, # of connection points: 2
#     Edge 56, Type (0, 0), BuildingBlock: CIFDUS_clean_linker_0, # of connection points: 2
#     Edge 57, Type (0, 0), BuildingBlock: CIFDUS_clean_linker_0, # of connection points: 2
#     Edge 58, Type (0, 0), BuildingBlock: CIFDUS_clean_linker_0, # of connection points: 2
#     Edge 59, Type (0, 0), BuildingBlock: CIFDUS_clean_linker_0, # of connection points: 2
#     Edge 60, Type (0, 0), BuildingBlock: CIFDUS_clean_linker_0, # of connection points: 2
#     Edge 61, Type (0, 0), BuildingBlock: CIFDUS_clean_linker_0, # of connection points: 2
#     Edge 62, Type (0, 0), BuildingBlock: CIFDUS_clean_linker_0, # of connection points: 2
#     Edge 63, Type (0, 0), BuildingBlock: CIFDUS_clean_linker_0, # of connection points: 2
#     Edge 64, Type (0, 0), BuildingBlock: CIFDUS_clean_linker_0, # of connection points: 2
#     Edge 65, Type (0, 0), BuildingBlock: CIFDUS_clean_linker_0, # of connection points: 2
#     Edge 66, Type (0, 0), BuildingBlock: CIFDUS_clean_linker_0, # of connection points: 2
#     Edge 67, Type (0, 0), BuildingBlock: CIFDUS_clean_linker_0, # of connection points: 2
#     Edge 68, Type (0, 0), BuildingBlock: CIFDUS_clean_linker_0, # of connection points: 2
#     Edge 69, Type (0, 0), BuildingBlock: CIFDUS_clean_linker_0, # of connection points: 2
#     Edge 70, Type (0, 0), BuildingBlock: CIFDUS_clean_linker_0, # of connection points: 2
#     Edge 71, Type (0, 0), BuildingBlock: CIFDUS_clean_linker_0, # of connection points: 2
#     Edge 72, Type (0, 0), BuildingBlock: CIFDUS_clean_linker_0, # of connection points: 2
#     Edge 73, Type (0, 0), BuildingBlock: CIFDUS_clean_linker_0, # of connection points: 2
#     Edge 74, Type (0, 0), BuildingBlock: CIFDUS_clean_linker_0, # of connection points: 2
#     Edge 75, Type (0, 0), BuildingBlock: CIFDUS_clean_linker_0, # of connection points: 2
#     Edge 76, Type (0, 0), BuildingBlock: CIFDUS_clean_linker_0, # of connection points: 2
#     Edge 77, Type (0, 0), BuildingBlock: CIFDUS_clean_linker_0, # of connection points: 2
#     Edge 78, Type (0, 0), BuildingBlock: CIFDUS_clean_linker_0, # of connection points: 2
#     Edge 79, Type (0, 0), BuildingBlock: CIFDUS_clean_linker_0, # of connection points: 2
#     Edge 80, Type (0, 0), BuildingBlock: CIFDUS_clean_linker_0, # of connection points: 2
#     Edge 81, Type (0, 0), BuildingBlock: CIFDUS_clean_linker_0, # of connection points: 2
#     Edge 82, Type (0, 0), BuildingBlock: CIFDUS_clean_linker_0, # of connection points: 2
#     Edge 83, Type (0, 0), BuildingBlock: CIFDUS_clean_linker_0, # of connection points: 2
#     Edge 84, Type (0, 0), BuildingBlock: CIFDUS_clean_linker_0, # of connection points: 2
#     Edge 85, Type (0, 0), BuildingBlock: CIFDUS_clean_linker_0, # of connection points: 2
#     Edge 86, Type (0, 0), BuildingBlock: CIFDUS_clean_linker_0, # of connection points: 2
#     Edge 87, Type (0, 0), BuildingBlock: CIFDUS_clean_linker_0, # of connection points: 2
#     Edge 88, Type (0, 0), BuildingBlock: CIFDUS_clean_linker_0, # of connection points: 2
#     Edge 89, Type (0, 0), BuildingBlock: CIFDUS_clean_linker_0, # of connection points: 2
#     Edge 90, Type (0, 0), BuildingBlock: CIFDUS_clean_linker_0, # of connection points: 2
#     Edge 91, Type (0, 0), BuildingBlock: CIFDUS_clean_linker_0, # of connection points: 2
#     Edge 92, Type (0, 0), BuildingBlock: CIFDUS_clean_linker_0, # of connection points: 2
#     Edge 93, Type (0, 0), BuildingBlock: CIFDUS_clean_linker_0, # of connection points: 2
#     Edge 94, Type (0, 0), BuildingBlock: CIFDUS_clean_linker_0, # of connection points: 2
#     Edge 95, Type (0, 0), BuildingBlock: CIFDUS_clean_linker_0, # of connection points: 2
#     Edge 96, Type (0, 0), BuildingBlock: CIFDUS_clean_linker_0, # of connection points: 2
#     Edge 97, Type (0, 0), BuildingBlock: CIFDUS_clean_linker_0, # of connection points: 2
#     Edge 98, Type (0, 0), BuildingBlock: CIFDUS_clean_linker_0, # of connection points: 2
#     Edge 99, Type (0, 0), BuildingBlock: CIFDUS_clean_linker_0, # of connection points: 2
#     Edge 100, Type (0, 0), BuildingBlock: CIFDUS_clean_linker_0, # of connection points: 2
#     Edge 101, Type (0, 0), BuildingBlock: CIFDUS_clean_linker_0, # of connection points: 2
#     Edge 102, Type (0, 0), BuildingBlock: CIFDUS_clean_linker_0, # of connection points: 2
#     Edge 103, Type (0, 0), BuildingBlock: CIFDUS_clean_linker_0, # of connection points: 2
#     Edge 104, Type (0, 0), BuildingBlock: CIFDUS_clean_linker_0, # of connection points: 2
#     Edge 105, Type (0, 0), BuildingBlock: CIFDUS_clean_linker_0, # of connection points: 2
#     Edge 106, Type (0, 0), BuildingBlock: CIFDUS_clean_linker_0, # of connection points: 2
#     Edge 107, Type (0, 0), BuildingBlock: CIFDUS_clean_linker_0, # of connection points: 2
# Relax obj value: 0.047
# Max RMSD: 0.075
# Mean RMSD: 0.075
data_MOF--net-cha--node1-QUQFOY_clean_sbu_1--edge1-CIFDUS_clean_linker_0
_symmetry_space_group_name_H-M    P1
_symmetry_Int_Tables_number       1
_symmetry_cell_setting            triclinic
loop_
_symmetry_equiv_pos_as_xyz
'x, y, z'
_cell_length_a     55.747127
_cell_length_b     55.737999
_cell_length_c     72.919145
_cell_angle_alpha  90.158402
_cell_angle_beta   89.982515
_cell_angle_gamma 120.06899
loop_
_atom_site_label
_atom_site_type_symbol
_atom_site_fract_x
_atom_site_fract_y
_atom_site_fract_z
_atom_type_partial_charge
O0 O 0.03471 0.25858 0.08047 0.0
Cd1 Cd 0.03219 0.24758 0.10774 0.0
Cd2 Cd 0.00646 0.27818 0.10723 0.0
O3 O 0.02095 0.28937 0.0806 0.0
O4 O 0.05039 0.22462 0.10665 0.0
O5 O 0.06813 0.26349 0.12248 0.0
C6 C 0.07006 0.24257 0.11682 0.0
C7 C 0.01881 0.30639 0.13309 0.0
C8 C 0.03044 0.27602 0.072 0.0
C9 C 0.97091 0.21843 0.11579 0.0
O10 O 0.97105 0.24013 0.11031 0.0
O11 O 0.99356 0.21831 0.11745 0.0
O12 O 1.00184 0.30654 0.12107 0.0
O13 O 0.03045 0.29178 0.12959 0.0
O14 O 0.78452 0.79035 0.07217 0.0
Cd15 Cd 0.80382 0.8103 0.09639 0.0
Cd16 Cd 0.77978 0.75436 0.10693 0.0
O17 O 0.76466 0.74628 0.08034 0.0
O18 O 0.82111 0.84993 0.08888 0.0
O19 O 0.78959 0.83226 0.11061 0.0
C20 C 0.80615 0.8534 0.10081 0.0
C21 C 0.75314 0.73724 0.13352 0.0
C22 C 0.76996 0.76471 0.06827 0.0
C23 C 0.84155 0.78808 0.10838 0.0
O24 O 0.82033 0.76408 0.10965 0.0
O25 O 0.83898 0.80885 0.10422 0.0
O26 O 0.75733 0.72128 0.12276 0.0
O27 O 0.76269 0.7627 0.12856 0.0
O28 O 0.28522 0.02997 0.0794 0.0
Cd29 Cd 0.27162 0.028 0.106 0.0
Cd30 Cd 0.32691 0.05016 0.11071 0.0
O31 O 0.327 0.03618 0.08423 0.0
O32 O 0.23052 0.00707 0.10269 0.0
O33 O 0.25245 0.99093 0.11916 0.0
C34 C 0.22946 0.98731 0.11238 0.0
C35 C 0.34764 0.04305 0.13641 0.0
C36 C 0.30743 0.03179 0.07329 0.0
C37 C 0.30283 0.08721 0.1167 0.0
O38 O 0.32431 0.08584 0.11268 0.0
O39 O 0.27922 0.06526 0.11716 0.0
O40 O 0.36229 0.05934 0.12331 0.0
O41 O 0.32103 0.02907 0.13427 0.0
O42 O 0.27677 0.03242 0.956 0.0
Cd43 Cd 0.26379 0.02858 0.92909 0.0
Cd44 Cd 0.29707 0.00568 0.92874 0.0
O45 O 0.30922 0.0209 0.95521 0.0
O46 O 0.23934 0.04504 0.93114 0.0
O47 O 0.27728 0.06415 0.91441 0.0
C48 C 0.2562 0.0651 0.92083 0.0
C49 C 0.32343 0.01903 0.90205 0.0
C50 C 0.29545 0.02964 0.96407 0.0
C51 C 0.23728 0.96738 0.9213 0.0
O52 O 0.25992 0.96909 0.92634 0.0
O53 O 0.23555 0.98919 0.91975 0.0
O54 O 0.32548 1.00274 0.91375 0.0
O55 O 0.30807 0.02953 0.90636 0.0
O56 O 0.03215 0.26817 0.95596 0.0
Cd57 Cd 0.03231 0.25653 0.92903 0.0
Cd58 Cd 0.05358 0.31206 0.92602 0.0
O59 O 0.03854 0.31024 0.95235 0.0
O60 O 0.01399 0.2154 0.93138 0.0
O61 O 0.99579 0.2355 0.91508 0.0
C62 C 0.99393 0.213 0.92135 0.0
C63 C 0.04503 0.33168 0.90043 0.0
C64 C 0.03357 0.28993 0.96269 0.0
C65 C 0.09225 0.29032 0.91969 0.0
O66 O 0.09016 0.31126 0.92416 0.0
O67 O 0.07067 0.26647 0.9186 0.0
O68 O 0.06075 0.3469 0.91364 0.0
O69 O 0.03239 0.30504 0.90242 0.0
O70 O 0.78372 0.78249 0.95551 0.0
Cd71 Cd 0.80027 0.79924 0.93005 0.0
Cd72 Cd 0.74388 0.7761 0.92216 0.0
O73 O 0.73902 0.7636 0.94928 0.0
O74 O 0.84076 0.81394 0.9337 0.0
O75 O 0.81608 0.78085 0.91373 0.0
C76 C 0.83975 0.7969 0.92137 0.0
C77 C 0.71907 0.74663 0.89779 0.0
C78 C 0.75851 0.76908 0.96056 0.0
C79 C 0.77902 0.83776 0.91871 0.0
O80 O 0.75475 0.81679 0.91831 0.0
O81 O 0.79977 0.8349 0.92237 0.0
O82 O 0.70709 0.75391 0.90993 0.0
O83 O 0.74508 0.75492 0.90001 0.0
O84 O 0.02282 0.78588 0.94992 0.0
Cd85 Cd 0.02551 0.80061 0.92363 0.0
Cd86 Cd 0.0553 0.77135 0.92257 0.0
O87 O 0.04057 0.75832 0.94903 0.0
O88 O 0.00798 0.82367 0.92834 0.0
O89 O 0.98903 0.78765 0.90985 0.0
C90 C 0.98765 0.80755 0.91791 0.0
C91 C 0.05005 0.74327 0.89726 0.0
C92 C 0.02869 0.76919 0.95786 0.0
C93 C 0.08727 0.83256 0.91604 0.0
O94 O 0.08838 0.81108 0.92046 0.0
O95 O 0.06403 0.83158 0.91476 0.0
O96 O 0.06665 0.74631 0.91057 0.0
O97 O 0.03483 0.75463 0.89897 0.0
O98 O 0.27247 0.26301 0.95571 0.0
Cd99 Cd 0.26133 0.25062 0.92878 0.0
Cd100 Cd 0.28918 0.30551 0.92501 0.0
O101 O 0.30367 0.307 0.95154 0.0
O102 O 0.2443 0.20952 0.93021 0.0
O103 O 0.28211 0.23569 0.9142 0.0
C104 C 0.26388 0.21136 0.9199 0.0
C105 C 0.31516 0.32005 0.89813 0.0
C106 C 0.29084 0.28629 0.96216 0.0
C107 C 0.22832 0.27738 0.91863 0.0
O108 O 0.24984 0.30028 0.92264 0.0
O109 O 0.2294 0.25514 0.91835 0.0
O110 O 0.31488 0.33777 0.90948 0.0
O111 O 0.30232 0.2942 0.90281 0.0
O112 O 0.79446 0.04073 0.95262 0.0
Cd113 Cd 0.8039 0.03771 0.92567 0.0
Cd114 Cd 0.74723 0.0136 0.92463 0.0
O115 O 0.75016 0.02808 0.95137 0.0
O116 O 0.84528 0.05894 0.92643 0.0
O117 O 0.82108 0.07273 0.91022 0.0
C118 C 0.84491 0.07733 0.91601 0.0
C119 C 0.72494 0.02088 0.89994 0.0
C120 C 0.77252 0.03706 0.96049 0.0
C121 C 0.77151 0.97688 0.91759 0.0
O122 O 0.75009 0.97834 0.92165 0.0
O123 O 0.79517 0.99877 0.91684 0.0
O124 O 0.71107 0.00466 0.9133 0.0
O125 O 0.75167 0.03477 0.90133 0.0
O126 O 0.77807 0.03128 0.07579 0.0
Cd127 Cd 0.7892 0.0287 0.10243 0.0
Cd128 Cd 0.75733 0.05135 0.10711 0.0
O129 O 0.74308 0.03842 0.08051 0.0
O130 O 0.80902 0.0075 0.09902 0.0
O131 O 0.77098 0.99155 0.11553 0.0
C132 C 0.79026 0.98781 0.10875 0.0
C133 C 0.73163 0.03961 0.13414 0.0
C134 C 0.75815 0.03384 0.06959 0.0
C135 C 0.81805 0.08792 0.11344 0.0
O136 O 0.7955 0.08713 0.1093 0.0
O137 O 0.8191 0.06566 0.11382 0.0
O138 O 0.73088 0.0568 0.12261 0.0
O139 O 0.74521 0.02732 0.12951 0.0
O140 O 0.03717 0.79368 0.07128 0.0
Cd141 Cd 0.03906 0.81024 0.09701 0.0
Cd142 Cd 0.0185 0.75647 0.10512 0.0
O143 O 0.03136 0.75282 0.07895 0.0
O144 O 0.05948 0.85097 0.09231 0.0
O145 O 0.07577 0.83109 0.11065 0.0
C146 C 0.07898 0.85334 0.10294 0.0
C147 C 0.03004 0.7434 0.13262 0.0
C148 C 0.03542 0.77079 0.06679 0.0
C149 C 0.98014 0.77937 0.10869 0.0
O150 O 0.98204 0.7577 0.1067 0.0
O151 O 1.00163 0.80321 0.10734 0.0
O152 O 0.01305 0.7251 0.12112 0.0
O153 O 0.04219 0.76918 0.12778 0.0
O154 O 0.26351 0.25979 0.08107 0.0
Cd155 Cd 0.2569 0.25246 0.10887 0.0
Cd156 Cd 0.31295 0.28059 0.10689 0.0
O157 O 0.30823 0.28997 0.07995 0.0
O158 O 0.21565 0.2337 0.10988 0.0
O159 O 0.24244 0.27384 0.12341 0.0
C160 C 0.2178 0.25428 0.11924 0.0
C161 C 0.33706 0.31193 0.13047 0.0
C162 C 0.28495 0.27611 0.07189 0.0
C163 C 0.28584 0.22084 0.11736 0.0
O164 O 0.30763 0.24157 0.11108 0.0
O165 O 0.26383 0.22208 0.11941 0.0
O166 O 0.34997 0.30787 0.11718 0.0
O167 O 0.31029 0.29967 0.12961 0.0
O168 O 0.69917 0.60967 0.40689 0.0
Cd169 Cd 0.70185 0.5971 0.43311 0.0
Cd170 Cd 0.67604 0.62691 0.43897 0.0
O171 O 0.68835 0.64201 0.41254 0.0
O172 O 0.72086 0.57559 0.428 0.0
O173 O 0.73945 0.61262 0.4457 0.0
C174 C 0.74126 0.59266 0.43808 0.0
C175 C 0.68773 0.65312 0.46585 0.0
C176 C 0.69489 0.62879 0.40127 0.0
C177 C 0.64241 0.5659 0.44481 0.0
O178 O 0.64146 0.58775 0.44128 0.0
O179 O 0.66544 0.56639 0.44439 0.0
O180 O 0.66954 0.65256 0.45461 0.0
O181 O 0.70075 0.6403 0.46109 0.0
O182 O 0.46103 0.13332 0.41366 0.0
Cd183 Cd 0.47403 0.14984 0.43962 0.0
Cd184 Cd 0.44422 0.09347 0.44619 0.0
O185 O 0.42916 0.09007 0.41963 0.0
O186 O 0.49519 0.19024 0.43376 0.0
O187 O 0.45841 0.17233 0.45155 0.0
C188 C 0.47804 0.19382 0.44352 0.0
C189 C 0.41787 0.07631 0.47289 0.0
C190 C 0.44217 0.10959 0.40818 0.0
C191 C 0.50568 0.12223 0.45156 0.0
O192 O 0.48377 0.09924 0.44841 0.0
O193 O 0.50515 0.14476 0.45094 0.0
O194 O 0.41952 0.0599 0.46107 0.0
O195 O 0.42957 0.10237 0.46885 0.0
O196 O 0.93032 0.36079 0.40983 0.0
Cd197 Cd 0.92387 0.36309 0.43749 0.0
Cd198 Cd 0.97858 0.38405 0.43608 0.0
O199 O 0.97305 0.36838 0.40954 0.0
O200 O 0.88252 0.34187 0.43886 0.0
O201 O 0.90856 0.32758 0.45225 0.0
C202 C 0.88412 0.32301 0.44801 0.0
C203 C 0.99772 0.37432 0.46133 0.0
C204 C 0.95067 0.36206 0.4011 0.0
C205 C 0.95882 0.42352 0.44507 0.0
O206 O 0.97867 0.42086 0.43885 0.0
O207 O 0.93512 0.40218 0.44764 0.0
O208 O 0.01313 0.38938 0.44798 0.0
O209 O 0.97111 0.36266 0.45948 0.0
O210 O 0.94055 0.36627 0.28549 0.0
Cd211 Cd 0.92909 0.36971 0.25907 0.0
Cd212 Cd 0.95712 0.34163 0.25408 0.0
O213 O 0.97174 0.35367 0.28064 0.0
O214 O 0.90847 0.38966 0.26411 0.0
O215 O 0.94593 0.40774 0.24696 0.0
C216 C 0.92627 0.41012 0.25447 0.0
C217 C 0.98378 0.35067 0.22767 0.0
C218 C 0.95876 0.36096 0.29159 0.0
C219 C 0.89624 0.31034 0.24733 0.0
O220 O 0.9173 0.30832 0.25151 0.0
O221 O 0.89786 0.33391 0.24732 0.0
O222 O 0.98179 0.33252 0.23948 0.0
O223 O 0.97225 0.36523 0.23161 0.0
O224 O 0.69886 0.60267 0.28389 0.0
Cd225 Cd 0.70481 0.59527 0.257 0.0
Cd226 Cd 0.72533 0.65081 0.25764 0.0
O227 O 0.7078 0.6459 0.28352 0.0
O228 O 0.68837 0.55419 0.25761 0.0
O229 O 0.67026 0.57418 0.2411 0.0
C230 C 0.66886 0.55169 0.24696 0.0
C231 C 0.7136 0.66367 0.23025 0.0
C232 C 0.69978 0.62328 0.29209 0.0
C233 C 0.76622 0.63224 0.25164 0.0
O234 O 0.76292 0.65221 0.25676 0.0
O235 O 0.74526 0.60826 0.24904 0.0
O236 O 0.72804 0.682 0.2426 0.0
O237 O 0.70376 0.63779 0.23427 0.0
O238 O 0.46775 0.12906 0.28911 0.0
Cd239 Cd 0.47315 0.13655 0.26125 0.0
Cd240 Cd 0.41806 0.10457 0.26362 0.0
O241 O 0.42395 0.09615 0.29051 0.0
O242 O 0.51437 0.1562 0.2589 0.0
O243 O 0.48721 0.11548 0.24612 0.0
C244 C 0.51196 0.13548 0.24956 0.0
C245 C 0.39774 0.07352 0.23935 0.0
C246 C 0.44707 0.11153 0.29842 0.0
C247 C 0.43978 0.16373 0.25337 0.0
O248 O 0.41928 0.14177 0.25967 0.0
O249 O 0.46303 0.16503 0.25109 0.0
O250 O 0.38287 0.07503 0.25242 0.0
O251 O 0.42443 0.08807 0.24094 0.0
O252 O 0.69415 0.13107 0.28527 0.0
Cd253 Cd 0.69667 0.14086 0.2578 0.0
Cd254 Cd 0.71626 0.10553 0.25855 0.0
O255 O 0.70168 0.09586 0.28532 0.0
O256 O 0.68018 0.16544 0.25794 0.0
O257 O 0.66051 0.12532 0.24346 0.0
C258 C 0.65967 0.1471 0.24849 0.0
C259 C 0.70115 0.07832 0.23219 0.0
C260 C 0.69554 0.11199 0.29389 0.0
C261 C 0.75704 0.1641 0.2497 0.0
O262 O 0.75396 0.14126 0.25555 0.0
O263 O 0.73603 0.16712 0.24762 0.0
O264 O 0.71681 0.07537 0.244 0.0
O265 O 0.69211 0.095 0.2363 0.0
O266 O 0.9546 0.61406 0.28663 0.0
Cd267 Cd 0.94172 0.60134 0.25999 0.0
Cd268 Cd 0.96753 0.65736 0.2571 0.0
O269 O 0.98216 0.65912 0.28357 0.0
O270 O 0.9236 0.56034 0.26285 0.0
O271 O 0.96009 0.58386 0.24521 0.0
C272 C 0.94184 0.56038 0.25205 0.0
C273 C 0.99359 0.67285 0.23031 0.0
C274 C 0.97137 0.63757 0.2936 0.0
C275 C 0.90656 0.62672 0.25096 0.0
O276 O 0.92749 0.65015 0.25482 0.0
O277 O 0.9088 0.60512 0.25053 0.0
O278 O 0.99238 0.69008 0.24165 0.0
O279 O 0.98157 0.64698 0.23492 0.0
O280 O 0.47263 0.37636 0.28207 0.0
Cd281 Cd 0.48174 0.37417 0.25483 0.0
Cd282 Cd 0.42476 0.34475 0.25502 0.0
O283 O 0.42751 0.35987 0.28153 0.0
O284 O 0.52307 0.39714 0.25512 0.0
O285 O 0.49709 0.40909 0.23927 0.0
C286 C 0.52146 0.41476 0.24461 0.0
C287 C 0.39989 0.34868 0.23057 0.0
C288 C 0.4503 0.37074 0.29032 0.0
C289 C 0.45394 0.313 0.24748 0.0
O290 O 0.43148 0.31171 0.25248 0.0
O291 O 0.47594 0.33639 0.24576 0.0
O292 O 0.38744 0.33241 0.24421 0.0
O293 O 0.42655 0.36435 0.23147 0.0
O294 O 0.45558 0.37129 0.40652 0.0
Cd295 Cd 0.46558 0.37086 0.43376 0.0
Cd296 Cd 0.43233 0.39217 0.43635 0.0
O297 O 0.41978 0.37754 0.40971 0.0
O298 O 0.48498 0.34895 0.43315 0.0
O299 O 0.44583 0.33493 0.44812 0.0
C300 C 0.46525 0.33024 0.44291 0.0
C301 C 0.40412 0.38306 0.4621 0.0
C302 C 0.43551 0.37283 0.39952 0.0
C303 C 0.4927 0.43055 0.44334 0.0
O304 O 0.46985 0.42866 0.43863 0.0
O305 O 0.49465 0.40882 0.44448 0.0
O306 O 0.40452 0.39892 0.44908 0.0
O307 O 0.41814 0.37051 0.45978 0.0
O308 O 0.69863 0.12626 0.40988 0.0
Cd309 Cd 0.69955 0.13951 0.43657 0.0
Cd310 Cd 0.67713 0.08296 0.44086 0.0
O311 O 0.69041 0.08361 0.41416 0.0
O312 O 0.71732 0.18046 0.43318 0.0
O313 O 0.73653 0.16177 0.4499 0.0
C314 C 0.73774 0.18376 0.4432 0.0
C315 C 0.68532 0.06146 0.4656 0.0
C316 C 0.6959 0.10374 0.4035 0.0
C317 C 0.63995 0.10653 0.44771 0.0
O318 O 0.64133 0.08502 0.44379 0.0
O319 O 0.66174 0.13029 0.44762 0.0
O320 O 0.66866 0.04719 0.45249 0.0
O321 O 0.69895 0.08816 0.46401 0.0
O322 O 0.93877 0.60413 0.41056 0.0
Cd323 Cd 0.92747 0.59691 0.43782 0.0
Cd324 Cd 0.98295 0.62346 0.43953 0.0
O325 O 0.98331 0.63494 0.41232 0.0
O326 O 0.88644 0.57949 0.43555 0.0
O327 O 0.91177 0.61873 0.45041 0.0
C328 C 0.88773 0.59995 0.44457 0.0
C329 C 1.00097 0.65221 0.46512 0.0
C330 C 0.96153 0.62079 0.40276 0.0
C331 C 0.9527 0.56314 0.44884 0.0
O332 O 0.97554 0.58354 0.44347 0.0
O333 O 0.93117 0.56543 0.44983 0.0
O334 O 0.01705 0.6494 0.45361 0.0
O335 O 0.97481 0.64032 0.46124 0.0
O336 O 0.36765 0.94066 0.74498 0.0
Cd337 Cd 0.36725 0.92718 0.77147 0.0
Cd338 Cd 0.34731 0.96162 0.77634 0.0
O339 O 0.36185 0.97642 0.75014 0.0
O340 O 0.38513 0.90413 0.76827 0.0
O341 O 0.40347 0.94162 0.78558 0.0
C342 C 0.40504 0.92105 0.77876 0.0
C343 C 0.35966 0.98656 0.80374 0.0
C344 C 0.36645 0.96149 0.73908 0.0
C345 C 0.30745 0.90127 0.78116 0.0
O346 O 0.31001 0.92477 0.77762 0.0
O347 O 0.32874 0.89851 0.78157 0.0
O348 O 0.34354 0.98893 0.79206 0.0
O349 O 0.37057 0.97168 0.7991 0.0
O350 O 0.11081 0.4462 0.73931 0.0
Cd351 Cd 0.13031 0.46446 0.76391 0.0
Cd352 Cd 0.10395 0.40665 0.77302 0.0
O353 O 0.09029 0.40156 0.74616 0.0
O354 O 0.14999 0.50448 0.7571 0.0
O355 O 0.1182 0.4878 0.7787 0.0
C356 C 0.13598 0.50884 0.76932 0.0
C357 C 0.07517 0.38339 0.79794 0.0
C358 C 0.09607 0.42085 0.73468 0.0
C359 C 0.16588 0.43937 0.77547 0.0
O360 O 0.14418 0.41565 0.77625 0.0
O361 O 0.16423 0.46075 0.77162 0.0
O362 O 0.08117 0.37045 0.78574 0.0
O363 O 0.08428 0.40952 0.79545 0.0
O364 O 0.58895 0.6869 0.74507 0.0
Cd365 Cd 0.57808 0.68876 0.77191 0.0
Cd366 Cd 0.6363 0.71846 0.77247 0.0
O367 O 0.63419 0.70413 0.74587 0.0
O368 O 0.53702 0.66948 0.76896 0.0
O369 O 0.55735 0.65242 0.78609 0.0
C370 C 0.53482 0.64982 0.77925 0.0
C371 C 0.65964 0.71259 0.797 0.0
C372 C 0.61148 0.69281 0.737 0.0
C373 C 0.60725 0.75002 0.78074 0.0
O374 O 0.62981 0.75152 0.77575 0.0
O375 O 0.58509 0.72663 0.78175 0.0
O376 O 0.67297 0.72951 0.78382 0.0
O377 O 0.63299 0.6974 0.79555 0.0
O378 O 0.60435 0.69353 0.62154 0.0
Cd379 Cd 0.5934 0.69555 0.59476 0.0
Cd380 Cd 0.62828 0.67646 0.59059 0.0
O381 O 0.64175 0.69032 0.61716 0.0
O382 O 0.57044 0.71349 0.59805 0.0
O383 O 0.60952 0.73325 0.58246 0.0
C384 C 0.58864 0.73453 0.58897 0.0
C385 C 0.65409 0.68957 0.56366 0.0
C386 C 0.62536 0.69313 0.62793 0.0
C387 C 0.56851 0.63671 0.5835 0.0
O388 O 0.59158 0.63916 0.58826 0.0
O389 O 0.5658 0.65803 0.58279 0.0
O390 O 0.6563 0.67333 0.57531 0.0
O391 O 0.63898 0.70028 0.56816 0.0
O392 O 0.36592 0.93449 0.6208 0.0
Cd393 Cd 0.36885 0.92698 0.59342 0.0
Cd394 Cd 0.39155 0.98252 0.59435 0.0
O395 O 0.37637 0.9782 0.62099 0.0
O396 O 0.34789 0.88555 0.59294 0.0
O397 O 0.33361 0.91051 0.57815 0.0
C398 C 0.32917 0.88641 0.58312 0.0
C399 C 0.37983 0.99813 0.56811 0.0
C400 C 0.36845 0.95549 0.62944 0.0
C401 C 0.42973 0.96086 0.58618 0.0
O402 O 0.42781 0.9815 0.59168 0.0
O403 O 0.40799 0.9373 0.58405 0.0
O404 O 0.39581 0.01538 0.58051 0.0
O405 O 0.36854 0.97189 0.57151 0.0
O406 O 0.11252 0.44162 0.6222 0.0
Cd407 Cd 0.13055 0.45853 0.59711 0.0
Cd408 Cd 0.07432 0.4372 0.58836 0.0
O409 O 0.06819 0.42453 0.61548 0.0
O410 O 0.17065 0.47313 0.60234 0.0
O411 O 0.14784 0.44059 0.58168 0.0
C412 C 0.17079 0.45647 0.59016 0.0
C413 C 0.05025 0.4081 0.56365 0.0
C414 C 0.08718 0.42907 0.62696 0.0
C415 C 0.1113 0.4986 0.58519 0.0
O416 O 0.08666 0.47828 0.58446 0.0
O417 O 0.1313 0.49471 0.5892 0.0
O418 O 0.0381 0.41588 0.57532 0.0
O419 O 0.07599 0.41571 0.56653 0.0
O420 O 0.36606 0.45977 0.61976 0.0
Cd421 Cd 0.36142 0.46823 0.59287 0.0
Cd422 Cd 0.38962 0.43926 0.59042 0.0
O423 O 0.3785 0.42804 0.61768 0.0
O424 O 0.34254 0.49005 0.59745 0.0
O425 O 0.32247 0.45099 0.58188 0.0
C426 C 0.32104 0.4715 0.58892 0.0
C427 C 0.38215 0.40969 0.5656 0.0
C428 C 0.37165 0.44266 0.62738 0.0
C429 C 0.42055 0.49968 0.58099 0.0
O430 O 0.4224 0.479 0.58642 0.0
O431 O 0.39704 0.49815 0.58021 0.0
O432 O 0.40025 0.41389 0.57811 0.0
O433 O 0.36666 0.42064 0.56797 0.0
O434 O 0.61149 0.93801 0.62269 0.0
Cd435 Cd 0.60053 0.92427 0.59596 0.0
Cd436 Cd 0.62822 0.98074 0.59151 0.0
O437 O 0.64176 0.98227 0.61825 0.0
O438 O 0.58317 0.88328 0.59875 0.0
O439 O 0.62065 0.90784 0.58211 0.0
C440 C 0.6023 0.88403 0.58849 0.0
C441 C 0.65723 0.00479 0.56693 0.0
C442 C 0.62924 0.96169 0.62898 0.0
C443 C 0.56677 0.94976 0.58478 0.0
O444 O 0.58805 0.97304 0.58844 0.0
O445 O 0.56826 0.92775 0.58508 0.0
O446 O 0.65222 0.01755 0.57983 0.0
O447 O 0.64709 0.97834 0.56857 0.0
O448 O 0.13198 0.70158 0.62067 0.0
Cd449 Cd 0.1466 0.70143 0.59462 0.0
Cd450 Cd 0.09239 0.683 0.58797 0.0
O451 O 0.09138 0.69739 0.61421 0.0
O452 O 0.18743 0.71936 0.59868 0.0
O453 O 0.16905 0.73768 0.58077 0.0
C454 C 0.19089 0.7393 0.58812 0.0
C455 C 0.07823 0.694 0.56068 0.0
C456 C 0.10994 0.70108 0.62586 0.0
C457 C 0.11216 0.64214 0.58392 0.0
O458 O 0.09146 0.64548 0.58653 0.0
O459 O 0.13662 0.66285 0.58454 0.0
O460 O 0.06042 0.67824 0.5728 0.0
O461 O 0.10427 0.70544 0.5648 0.0
O462 O 0.1262 0.69161 0.7444 0.0
Cd463 Cd 0.13584 0.69221 0.77175 0.0
Cd464 Cd 0.10975 0.72306 0.77076 0.0
O465 O 0.09884 0.7095 0.74375 0.0
O466 O 0.15401 0.66921 0.7703 0.0
O467 O 0.11559 0.65586 0.78589 0.0
C468 C 0.13417 0.65045 0.7799 0.0
C469 C 0.08018 0.71693 0.79524 0.0
C470 C 0.11071 0.69814 0.7355 0.0
C471 C 0.17005 0.75303 0.78035 0.0
O472 O 0.1497 0.75525 0.77465 0.0
O473 O 0.16776 0.72923 0.78197 0.0
O474 O 0.08432 0.73432 0.78225 0.0
O475 O 0.0912 0.70138 0.79355 0.0
O476 O 0.36615 0.44678 0.74324 0.0
Cd477 Cd 0.36287 0.45775 0.7698 0.0
Cd478 Cd 0.3392 0.40252 0.77278 0.0
O479 O 0.35395 0.40283 0.7465 0.0
O480 O 0.38426 0.49908 0.76868 0.0
O481 O 0.39722 0.47518 0.78596 0.0
C482 C 0.402 0.4989 0.77988 0.0
C483 C 0.351 0.38938 0.80007 0.0
C484 C 0.36264 0.42421 0.73641 0.0
C485 C 0.3019 0.4261 0.77749 0.0
O486 O 0.30318 0.40431 0.77434 0.0
O487 O 0.32394 0.44965 0.77792 0.0
O488 O 0.33447 0.37103 0.78839 0.0
O489 O 0.36258 0.41523 0.79546 0.0
O490 O 0.59855 0.9371 0.74737 0.0
Cd491 Cd 0.59139 0.92862 0.77497 0.0
Cd492 Cd 0.64695 0.9605 0.77379 0.0
O493 O 0.64231 0.97023 0.74696 0.0
O494 O 0.55004 0.90886 0.77554 0.0
O495 O 0.57578 0.94878 0.78961 0.0
C496 C 0.55144 0.92911 0.78491 0.0
C497 C 0.66896 0.99098 0.79816 0.0
C498 C 0.6196 0.95499 0.73855 0.0
C499 C 0.62364 0.90041 0.78268 0.0
O500 O 0.64453 0.92261 0.77702 0.0
O501 O 0.60044 0.89928 0.78488 0.0
O502 O 0.68298 0.98876 0.7848 0.0
O503 O 0.6422 0.97746 0.79689 0.0
H504 H 0.12186 0.28242 0.12834 0.0
H505 H 0.07334 0.19594 0.11343 0.0
H506 H 0.1145 0.19144 0.11481 0.0
H507 H 0.16465 0.21282 0.11702 0.0
H508 H 0.21445 0.29943 0.13102 0.0
H509 H 0.17249 0.30303 0.1335 0.0
C510 C 0.12027 0.26252 0.12573 0.0
C511 C 0.09458 0.23963 0.12059 0.0
C512 C 0.14429 0.26013 0.12623 0.0
C513 C 0.09287 0.21397 0.11722 0.0
C514 C 0.11642 0.21135 0.11799 0.0
C515 C 0.16637 0.23245 0.12083 0.0
C516 C 0.19266 0.25589 0.12361 0.0
C517 C 0.14232 0.23443 0.12195 0.0
C518 C 0.19445 0.28106 0.12876 0.0
C519 C 0.17046 0.28316 0.13009 0.0
H520 H 0.82807 0.97546 0.09545 0.0
H521 H 0.75254 0.94062 0.12697 0.0
H522 H 0.75141 0.89611 0.12831 0.0
H523 H 0.77079 0.86633 0.11893 0.0
H524 H 0.8457 0.90216 0.08658 0.0
H525 H 0.84811 0.94692 0.08724 0.0
C526 C 0.81141 0.95824 0.10275 0.0
C527 C 0.79037 0.9614 0.11103 0.0
C528 C 0.81071 0.93274 0.10324 0.0
C529 C 0.76901 0.93879 0.12045 0.0
C530 C 0.76832 0.91329 0.12118 0.0
C531 C 0.78774 0.88402 0.11218 0.0
C532 C 0.80794 0.88078 0.10264 0.0
C533 C 0.78888 0.9099 0.1124 0.0
C534 C 0.82974 0.90392 0.09392 0.0
C535 C 0.83119 0.92961 0.09428 0.0
H536 H 0.12768 0.86516 0.11997 0.0
H537 H 0.08752 0.90326 0.0914 0.0
H538 H 0.12984 0.94806 0.09297 0.0
H539 H 0.17881 0.97607 0.10068 0.0
H540 H 0.2203 0.93898 0.12867 0.0
H541 H 0.17694 0.89434 0.12926 0.0
C542 C 0.12815 0.88333 0.11426 0.0
C543 C 0.10443 0.88072 0.10547 0.0
C544 C 0.15284 0.90925 0.11504 0.0
C545 C 0.10544 0.90452 0.09813 0.0
C546 C 0.12967 0.93023 0.09901 0.0
C547 C 0.17841 0.95832 0.10706 0.0
C548 C 0.20285 0.96088 0.11453 0.0
C549 C 0.15358 0.93276 0.10716 0.0
C550 C 0.20181 0.93762 0.1228 0.0
C551 C 0.17702 0.91205 0.12309 0.0
H552 H 0.29359 0.11683 0.90794 0.0
H553 H 0.2096 0.06742 0.92754 0.0
H554 H 0.20403 0.10799 0.92751 0.0
H555 H 0.22406 0.15798 0.92479 0.0
H556 H 0.30806 0.20851 0.90572 0.0
H557 H 0.31247 0.16709 0.90249 0.0
C558 C 0.27394 0.1149 0.91188 0.0
C559 C 0.25214 0.08914 0.9179 0.0
C560 C 0.27094 0.13857 0.91211 0.0
C561 C 0.22682 0.087 0.923 0.0
C562 C 0.22359 0.11023 0.92303 0.0
C563 C 0.24329 0.15997 0.91976 0.0
C564 C 0.2658 0.18633 0.91572 0.0
C565 C 0.24571 0.1362 0.91809 0.0
C566 C 0.29043 0.18845 0.90899 0.0
C567 C 0.29299 0.16477 0.9072 0.0
H568 H 0.94359 0.20041 0.90655 0.0
H569 H 0.98854 0.16308 0.92947 0.0
H570 H 0.94701 0.11762 0.92817 0.0
H571 H 0.89726 0.08894 0.92315 0.0
H572 H 0.85107 0.12521 0.90084 0.0
H573 H 0.8937 0.17037 0.89902 0.0
C574 C 0.94435 0.18226 0.91101 0.0
C575 C 0.96916 0.18528 0.91826 0.0
C576 C 0.92011 0.15595 0.91043 0.0
C577 C 0.96975 0.1615 0.92398 0.0
C578 C 0.94596 0.13541 0.92326 0.0
C579 C 0.89649 0.10662 0.91768 0.0
C580 C 0.87094 0.10371 0.9123 0.0
C581 C 0.92092 0.13249 0.91692 0.0
C582 C 0.87045 0.12684 0.9051 0.0
C583 C 0.89482 0.15273 0.90415 0.0
H584 H 0.89263 0.83563 0.92897 0.0
H585 H 0.84373 0.75562 0.90333 0.0
H586 H 0.88568 0.75255 0.89848 0.0
H587 H 0.93607 0.77139 0.9038 0.0
H588 H 0.98378 0.85165 0.92958 0.0
H589 H 0.94258 0.85588 0.9319 0.0
C590 C 0.8911 0.81755 0.92221 0.0
C591 C 0.86506 0.79574 0.91672 0.0
C592 C 0.91517 0.81595 0.91951 0.0
C593 C 0.86354 0.77267 0.90774 0.0
C594 C 0.88752 0.77088 0.90501 0.0
C595 C 0.93749 0.78996 0.90965 0.0
C596 C 0.96301 0.81104 0.91665 0.0
C597 C 0.91345 0.79222 0.91114 0.0
C598 C 0.96444 0.83497 0.92421 0.0
C599 C 0.94084 0.83744 0.92559 0.0
H600 H 0.79209 0.62926 0.45297 0.0
H601 H 0.74579 0.5484 0.42774 0.0
H602 H 0.78641 0.54306 0.4287 0.0
H603 H 0.83542 0.56192 0.43498 0.0
H604 H 0.88325 0.64298 0.45951 0.0
H605 H 0.84171 0.64751 0.46072 0.0
C606 C 0.79089 0.6104 0.44785 0.0
C607 C 0.76591 0.58936 0.44019 0.0
C608 C 0.81461 0.60749 0.44826 0.0
C609 C 0.76472 0.56505 0.43359 0.0
C610 C 0.78797 0.56192 0.43414 0.0
C611 C 0.83683 0.58056 0.44073 0.0
C612 C 0.86247 0.60213 0.44705 0.0
C613 C 0.81308 0.58313 0.44117 0.0
C614 C 0.86377 0.62604 0.45453 0.0
C615 C 0.84003 0.62867 0.45517 0.0
H616 H 0.50481 0.31718 0.43514 0.0
H617 H 0.42371 0.28351 0.45941 0.0
H618 H 0.421 0.23849 0.46295 0.0
H619 H 0.44064 0.20782 0.45712 0.0
H620 H 0.5215 0.24252 0.43217 0.0
H621 H 0.52529 0.28787 0.43102 0.0
C622 C 0.48658 0.3001 0.44135 0.0
C623 C 0.46443 0.30372 0.44689 0.0
C624 C 0.48505 0.27431 0.44314 0.0
C625 C 0.44107 0.28132 0.45501 0.0
C626 C 0.43948 0.25553 0.45698 0.0
C627 C 0.45918 0.22539 0.45163 0.0
C628 C 0.48065 0.22164 0.44463 0.0
C629 C 0.46117 0.25163 0.4508 0.0
C630 C 0.50454 0.24466 0.43753 0.0
C631 C 0.50677 0.27069 0.43686 0.0
H632 H 0.83098 0.30936 0.4414 0.0
H633 H 0.88018 0.27579 0.46272 0.0
H634 H 0.83871 0.22975 0.46455 0.0
H635 H 0.78894 0.19823 0.45739 0.0
H636 H 0.74103 0.23279 0.43515 0.0
H637 H 0.78142 0.27907 0.43646 0.0
C638 C 0.83266 0.29209 0.44668 0.0
C639 C 0.85873 0.29605 0.45179 0.0
C640 C 0.8089 0.26568 0.44737 0.0
C641 C 0.86039 0.27337 0.45867 0.0
C642 C 0.83668 0.24698 0.45963 0.0
C643 C 0.7873 0.21595 0.45306 0.0
C644 C 0.76198 0.21192 0.44602 0.0
C645 C 0.81089 0.24274 0.45361 0.0
C646 C 0.76025 0.23515 0.44047 0.0
C647 C 0.78337 0.26171 0.44121 0.0
H648 H 0.964 0.46056 0.23973 0.0
H649 H 0.88381 0.41693 0.26589 0.0
H650 H 0.88102 0.45902 0.26626 0.0
H651 H 0.90215 0.50857 0.26109 0.0
H652 H 0.98238 0.55362 0.23535 0.0
H653 H 0.98419 0.51066 0.2327 0.0
C654 C 0.94582 0.46025 0.24532 0.0
C655 C 0.92427 0.4356 0.25291 0.0
C656 C 0.94437 0.48481 0.24565 0.0
C657 C 0.90084 0.43557 0.26009 0.0
C658 C 0.89917 0.45968 0.26033 0.0
C659 C 0.92 0.50906 0.25477 0.0
C660 C 0.94219 0.53433 0.24857 0.0
C661 C 0.92098 0.48447 0.25345 0.0
C662 C 0.96502 0.53444 0.24026 0.0
C663 C 0.9661 0.50989 0.23881 0.0
H664 H 0.6176 0.53852 0.23371 0.0
H665 H 0.66578 0.5021 0.25224 0.0
H666 H 0.62474 0.4562 0.25136 0.0
H667 H 0.57459 0.42698 0.24862 0.0
H668 H 0.52528 0.46236 0.23074 0.0
H669 H 0.56727 0.50789 0.22785 0.0
C670 C 0.61918 0.52046 0.23719 0.0
C671 C 0.64473 0.52383 0.24321 0.0
C672 C 0.59523 0.49392 0.23696 0.0
C673 C 0.64639 0.5002 0.24773 0.0
C674 C 0.62289 0.47388 0.24727 0.0
C675 C 0.573 0.44456 0.24387 0.0
C676 C 0.5468 0.44133 0.24012 0.0
C677 C 0.59709 0.4706 0.24245 0.0
C678 C 0.54519 0.46428 0.23377 0.0
C679 C 0.5692 0.49036 0.2322 0.0
H680 H 0.56527 0.17715 0.25084 0.0
H681 H 0.51493 0.09049 0.23712 0.0
H682 H 0.55674 0.08693 0.23349 0.0
H683 H 0.60746 0.10747 0.23765 0.0
H684 H 0.6568 0.19403 0.25219 0.0
H685 H 0.61562 0.1986 0.25187 0.0
C686 C 0.5634 0.15753 0.24682 0.0
C687 C 0.53699 0.13406 0.24447 0.0
C688 C 0.58742 0.15557 0.24502 0.0
C689 C 0.53501 0.10888 0.23907 0.0
C690 C 0.55892 0.10681 0.23708 0.0
C691 C 0.60924 0.12743 0.24039 0.0
C692 C 0.63518 0.1503 0.24513 0.0
C693 C 0.58524 0.12986 0.24051 0.0
C694 C 0.6371 0.17601 0.24868 0.0
C695 C 0.61352 0.17867 0.24853 0.0
H696 H 0.45582 0.95802 0.79342 0.0
H697 H 0.40856 0.87531 0.77105 0.0
H698 H 0.44903 0.86969 0.77279 0.0
H699 H 0.49851 0.88932 0.77805 0.0
H700 H 0.54714 0.97238 0.79947 0.0
H701 H 0.50549 0.97662 0.80098 0.0
C702 C 0.45433 0.93867 0.78917 0.0
C703 C 0.4292 0.91723 0.78195 0.0
C704 C 0.47797 0.93564 0.78995 0.0
C705 C 0.42764 0.89227 0.77649 0.0
C706 C 0.45081 0.889 0.77748 0.0
C707 C 0.50004 0.90828 0.78328 0.0
C708 C 0.52598 0.93056 0.7885 0.0
C709 C 0.47619 0.91073 0.78378 0.0
C710 C 0.52744 0.95488 0.79533 0.0
C711 C 0.50363 0.95737 0.79611 0.0
H712 H 0.10298 0.52482 0.78756 0.0
H713 H 0.17934 0.55675 0.75708 0.0
H714 H 0.1865 0.6034 0.7592 0.0
H715 H 0.17006 0.63479 0.7678 0.0
H716 H 0.093 0.60408 0.79713 0.0
H717 H 0.08736 0.55751 0.7976 0.0
C718 C 0.12128 0.54206 0.78155 0.0
C719 C 0.14048 0.53719 0.77205 0.0
C720 C 0.12516 0.56908 0.78258 0.0
C721 C 0.16407 0.55977 0.76431 0.0
C722 C 0.16825 0.58654 0.76554 0.0
C723 C 0.15212 0.61803 0.77449 0.0
C724 C 0.13194 0.62296 0.78236 0.0
C725 C 0.14875 0.59137 0.77436 0.0
C726 C 0.10888 0.60091 0.79097 0.0
C727 C 0.10559 0.57423 0.79117 0.0
H728 H 0.41232 0.55102 0.7739 0.0
H729 H 0.44963 0.50561 0.79587 0.0
H730 H 0.49393 0.54892 0.79932 0.0
H731 H 0.5231 0.59935 0.79321 0.0
H732 H 0.48468 0.64354 0.77074 0.0
H733 H 0.43988 0.60115 0.77052 0.0
C734 C 0.43004 0.55057 0.77963 0.0
C735 C 0.42774 0.52509 0.78443 0.0
C736 C 0.45538 0.57539 0.78139 0.0
C737 C 0.45085 0.52495 0.79203 0.0
C738 C 0.47623 0.54971 0.79393 0.0
C739 C 0.50483 0.59974 0.78856 0.0
C740 C 0.50737 0.62458 0.78182 0.0
C741 C 0.47892 0.57502 0.78824 0.0
C742 C 0.48346 0.62472 0.77583 0.0
C743 C 0.45775 0.60045 0.77568 0.0
H744 H 0.62703 0.78594 0.57601 0.0
H745 H 0.54437 0.73968 0.59838 0.0
H746 H 0.54094 0.78146 0.59915 0.0
H747 H 0.56218 0.83145 0.59557 0.0
H748 H 0.64476 0.87885 0.57347 0.0
H749 H 0.64734 0.83637 0.57037 0.0
C750 C 0.60816 0.78498 0.58083 0.0
C751 C 0.58608 0.75967 0.58726 0.0
C752 C 0.60635 0.80933 0.58141 0.0
C753 C 0.56178 0.75883 0.59346 0.0
C754 C 0.55977 0.78276 0.59394 0.0
C755 C 0.58073 0.83254 0.58996 0.0
C756 C 0.60334 0.85834 0.58492 0.0
C757 C 0.58208 0.80817 0.5883 0.0
C758 C 0.62706 0.85926 0.57749 0.0
C759 C 0.62857 0.83498 0.57576 0.0
H760 H 0.20529 0.78963 0.57265 0.0
H761 H 0.23988 0.74365 0.59785 0.0
H762 H 0.28595 0.78439 0.59682 0.0
H763 H 0.31592 0.83381 0.59122 0.0
H764 H 0.28222 0.88108 0.5669 0.0
H765 H 0.23655 0.83913 0.56488 0.0
C766 C 0.22298 0.78847 0.57769 0.0
C767 C 0.21901 0.76361 0.58546 0.0
C768 C 0.24962 0.81226 0.57729 0.0
C769 C 0.2422 0.7625 0.59194 0.0
C770 C 0.26863 0.78583 0.59136 0.0
C771 C 0.29871 0.83496 0.58526 0.0
C772 C 0.30251 0.86064 0.57934 0.0
C773 C 0.2725 0.81094 0.58444 0.0
C774 C 0.27992 0.86161 0.57158 0.0
C775 C 0.25374 0.83763 0.5705 0.0
H776 H 0.26995 0.4343 0.57448 0.0
H777 H 0.31453 0.51322 0.6024 0.0
H778 H 0.2724 0.51573 0.60454 0.0
H779 H 0.22268 0.49488 0.6001 0.0
H780 H 0.17688 0.41647 0.572 0.0
H781 H 0.21963 0.41451 0.56821 0.0
C782 C 0.27045 0.45214 0.58086 0.0
C783 C 0.29544 0.47343 0.58837 0.0
C784 C 0.2459 0.45352 0.58212 0.0
C785 C 0.29568 0.49644 0.59656 0.0
C786 C 0.27154 0.49792 0.59784 0.0
C787 C 0.22199 0.47736 0.59308 0.0
C788 C 0.19658 0.45573 0.58651 0.0
C789 C 0.2465 0.47644 0.59094 0.0
C790 C 0.19617 0.43339 0.57723 0.0
C791 C 0.22061 0.43224 0.5751 0.0
H792 H 1.002 0.34272 0.14347 0.0
H793 H 0.04152 0.29854 0.16404 0.0
H794 H 0.0372 0.31137 0.19537 0.0
H795 H 0.0163 0.32947 0.2171 0.0
H796 H 0.97706 0.37394 0.19661 0.0
H797 H 0.98756 0.36705 0.16517 0.0
C798 C 0.01019 0.33637 0.15478 0.0
C799 C 0.02169 0.31933 0.15139 0.0
C800 C 0.00744 0.34365 0.17284 0.0
C801 C 0.03247 0.31156 0.1662 0.0
C802 C 0.02985 0.31875 0.18418 0.0
C803 C 0.01054 0.33815 0.20578 0.0
C804 C 0.99555 0.35185 0.20922 0.0
C805 C 0.01647 0.33393 0.18769 0.0
C806 C 0.98854 0.36324 0.19439 0.0
C807 C 0.99438 0.35914 0.17637 0.0
H808 H 0.72272 0.68387 0.14525 0.0
H809 H 0.75617 0.7685 0.1633 0.0
H810 H 0.74377 0.75285 0.19496 0.0
H811 H 0.72899 0.71565 0.21789 0.0
H812 H 0.69513 0.631 0.19968 0.0
H813 H 0.70168 0.64609 0.16779 0.0
C814 C 0.72685 0.69886 0.15607 0.0
C815 C 0.7407 0.72735 0.15192 0.0
C816 C 0.71976 0.68972 0.17428 0.0
C817 C 0.74559 0.74646 0.16608 0.0
C818 C 0.73864 0.73752 0.18423 0.0
C819 C 0.72251 0.70042 0.20695 0.0
C820 C 0.71193 0.67225 0.21124 0.0
C821 C 0.72654 0.70928 0.18856 0.0
C822 C 0.70342 0.65281 0.19685 0.0
C823 C 0.70732 0.66145 0.17856 0.0
H824 H 0.32259 0.02368 0.16953 0.0
H825 H 0.40272 0.06425 0.14331 0.0
H826 H 0.42548 0.0737 0.17316 0.0
H827 H 0.42275 0.0763 0.20668 0.0
H828 H 0.34266 0.03805 0.23292 0.0
H829 H 0.31991 0.02153 0.20324 0.0
C830 C 0.34502 0.034 0.17032 0.0
C831 C 0.36089 0.04344 0.15417 0.0
C832 C 0.35805 0.04009 0.18762 0.0
C833 C 0.38996 0.05691 0.1555 0.0
C834 C 0.40303 0.06242 0.1726 0.0
C835 C 0.40034 0.0638 0.20598 0.0
C836 C 0.38447 0.05867 0.22203 0.0
C837 C 0.38732 0.05501 0.18877 0.0
C838 C 0.35543 0.04248 0.2208 0.0
C839 C 0.34236 0.0331 0.20379 0.0
H840 H 0.35726 1.00056 0.88907 0.0
H841 H 0.31531 0.04444 0.87265 0.0
H842 H 0.32605 0.04134 0.8406 0.0
H843 H 0.3416 0.02053 0.81701 0.0
H844 H 0.3831 0.9762 0.83337 0.0
H845 H 0.37867 0.98551 0.86556 0.0
C846 C 0.35094 0.00995 0.87853 0.0
C847 C 0.33514 0.02237 0.8833 0.0
C848 C 0.35688 0.00778 0.86003 0.0
C849 C 0.32736 0.03462 0.86943 0.0
C850 C 0.33337 0.03273 0.85104 0.0
C851 C 0.35018 0.01337 0.82759 0.0
C852 C 0.36232 0.99734 0.82274 0.0
C853 C 0.34724 0.01849 0.84613 0.0
C854 C 0.37354 0.98848 0.83666 0.0
C855 C 0.37087 0.99366 0.85511 0.0
H856 H 0.07427 0.40692 0.83057 0.0
H857 H 0.04488 0.32776 0.80402 0.0
H858 H 0.02889 0.30419 0.83342 0.0
H859 H 0.02903 0.30653 0.86707 0.0
H860 H 0.06144 0.38594 0.89385 0.0
H861 H 0.07001 0.40879 0.86409 0.0
C862 C 0.0638 0.38447 0.83117 0.0
C863 C 0.06097 0.36916 0.81512 0.0
C864 C 0.05541 0.37106 0.84825 0.0
C865 C 0.04751 0.34008 0.81617 0.0
C866 C 0.03841 0.32656 0.833 0.0
C867 C 0.03733 0.32875 0.86641 0.0
C868 C 0.04473 0.34449 0.88268 0.0
C869 C 0.0431 0.34189 0.84921 0.0
C870 C 0.05568 0.37332 0.88154 0.0
C871 C 0.06071 0.38644 0.86451 0.0
H872 H 0.63741 0.69638 0.83099 0.0
H873 H 0.71494 0.732 0.80171 0.0
H874 H 0.74023 0.74203 0.83069 0.0
H875 H 0.74066 0.7464 0.86434 0.0
H876 H 0.66324 0.71445 0.89339 0.0
H877 H 0.63763 0.697 0.86468 0.0
C878 C 0.65979 0.70571 0.83094 0.0
C879 C 0.67426 0.71349 0.8142 0.0
C880 C 0.67428 0.7124 0.8477 0.0
C881 C 0.7033 0.72588 0.8144 0.0
C882 C 0.71779 0.73173 0.83099 0.0
C883 C 0.71818 0.73505 0.86442 0.0
C884 C 0.70388 0.73181 0.88097 0.0
C885 C 0.70357 0.72595 0.84773 0.0
C886 C 0.67474 0.71733 0.88082 0.0
C887 C 0.66007 0.70741 0.86439 0.0
H888 H 0.0322 0.74842 0.86347 0.0
H889 H 0.07129 0.7091 0.89172 0.0
H890 H 0.08067 0.69402 0.86245 0.0
H891 H 0.08295 0.69696 0.82877 0.0
H892 H 0.04682 0.73918 0.80055 0.0
H893 H 0.03084 0.74778 0.82971 0.0
C894 C 0.04221 0.73602 0.86325 0.0
C895 C 0.0511 0.73 0.8798 0.0
C896 C 0.04835 0.72814 0.84629 0.0
C897 C 0.06431 0.71414 0.87921 0.0
C898 C 0.06977 0.70556 0.86245 0.0
C899 C 0.07103 0.70748 0.82895 0.0
C900 C 0.06619 0.71747 0.81246 0.0
C901 C 0.06266 0.71316 0.84587 0.0
C902 C 0.05095 0.73134 0.81301 0.0
C903 C 0.04187 0.73636 0.82972 0.0
H904 H 0.33331 0.33731 0.81309 0.0
H905 H 0.37361 0.42312 0.82988 0.0
H906 H 0.36893 0.40929 0.862 0.0
H907 H 0.3478 0.37264 0.88534 0.0
H908 H 0.3077 0.28684 0.86856 0.0
H909 H 0.31825 0.30087 0.83654 0.0
C910 C 0.34157 0.35302 0.82375 0.0
C911 C 0.35345 0.3812 0.81904 0.0
C912 C 0.3386 0.34491 0.84226 0.0
C913 C 0.36428 0.40128 0.83306 0.0
C914 C 0.36146 0.39337 0.85148 0.0
C915 C 0.34184 0.35701 0.87472 0.0
C916 C 0.32663 0.32871 0.87937 0.0
C917 C 0.34779 0.36522 0.85626 0.0
C918 C 0.31933 0.30876 0.86542 0.0
C919 C 0.32521 0.31677 0.84705 0.0
H920 H 0.74801 0.0402 0.86634 0.0
H921 H 0.66946 0.99966 0.89454 0.0
H922 H 0.64501 0.99031 0.86531 0.0
H923 H 0.64581 0.98792 0.83165 0.0
H924 H 0.72437 0.02606 0.80345 0.0
H925 H 0.74878 0.04236 0.83263 0.0
C926 C 0.72556 0.02991 0.86613 0.0
C927 C 0.71063 0.02047 0.88265 0.0
C928 C 0.71155 0.02386 0.84919 0.0
C929 C 0.68152 0.00702 0.88206 0.0
C930 C 0.66747 1.00156 0.86532 0.0
C931 C 0.66825 1.00035 0.83183 0.0
C932 C 0.6832 0.00554 0.81535 0.0
C933 C 0.68224 0.00901 0.84876 0.0
C934 C 0.7123 0.02159 0.81591 0.0
C935 C 0.72632 0.03085 0.83263 0.0
H936 H 0.69928 0.05974 0.14719 0.0
H937 H 0.74 0.01476 0.16378 0.0
H938 H 0.73082 0.01964 0.19591 0.0
H939 H 0.7172 0.04243 0.21936 0.0
H940 H 0.67684 0.08774 0.20269 0.0
H941 H 0.67952 0.07659 0.17066 0.0
C942 C 0.70566 0.0505 0.1578 0.0
C943 C 0.72067 0.03724 0.15304 0.0
C944 C 0.70061 0.05368 0.17631 0.0
C945 C 0.72851 0.02517 0.167 0.0
C946 C 0.72342 0.0281 0.18543 0.0
C947 C 0.70844 0.04937 0.20877 0.0
C948 C 0.6972 0.06626 0.21347 0.0
C949 C 0.71038 0.04319 0.19027 0.0
C950 C 0.68576 0.07485 0.19953 0.0
C951 C 0.68742 0.06861 0.18114 0.0
H952 H 0.01319 0.69148 0.14545 0.0
H953 H 0.05147 0.777 0.16263 0.0
H954 H 0.04635 0.76283 0.19472 0.0
H955 H 0.02539 0.72579 0.21785 0.0
H956 H 0.98744 0.64031 0.20062 0.0
H957 H 0.99838 0.65485 0.16871 0.0
C958 C 0.02091 0.70707 0.1562 0.0
C959 C 0.03237 0.73524 0.15161 0.0
C960 C 0.01771 0.69876 0.17467 0.0
C961 C 0.04252 0.75517 0.16573 0.0
C962 C 0.03943 0.74706 0.18412 0.0
C963 C 0.01997 0.71035 0.20716 0.0
C964 C 0.00526 0.68197 0.21164 0.0
C965 C 0.0262 0.71886 0.18876 0.0
C966 C 0.99868 0.66228 0.1976 0.0
C967 C 0.0048 0.67058 0.1793 0.0
H968 H 0.31613 0.3104 0.1645 0.0
H969 H 0.39272 0.34726 0.13406 0.0
H970 H 0.41903 0.36551 0.16245 0.0
H971 H 0.42052 0.36574 0.19618 0.0
H972 H 0.34398 0.32599 0.22667 0.0
H973 H 0.31753 0.31453 0.19813 0.0
C974 C 0.33854 0.32297 0.16402 0.0
C975 C 0.35241 0.32732 0.14715 0.0
C976 C 0.35363 0.33267 0.1805 0.0
C977 C 0.3815 0.34347 0.14684 0.0
C978 C 0.39659 0.35385 0.1631 0.0
C979 C 0.39807 0.35514 0.1966 0.0
C980 C 0.38428 0.34663 0.21357 0.0
C981 C 0.38293 0.34781 0.18007 0.0
C982 C 0.35514 0.33268 0.21382 0.0
C983 C 0.33997 0.32602 0.19748 0.0
H984 H 0.68913 0.6726 0.55076 0.0
H985 H 0.64313 0.71213 0.53386 0.0
H986 H 0.65245 0.70731 0.50176 0.0
H987 H 0.66797 0.68598 0.4785 0.0
H988 H 0.71386 0.64634 0.49538 0.0
H989 H 0.71061 0.65745 0.52737 0.0
C990 C 0.68163 0.6807 0.54008 0.0
C991 C 0.6651 0.69235 0.54475 0.0
C992 C 0.68679 0.67757 0.52158 0.0
C993 C 0.6558 0.70297 0.53071 0.0
C994 C 0.66097 0.70006 0.5123 0.0
C995 C 0.67774 0.68024 0.48914 0.0
C996 C 0.69079 0.66497 0.48454 0.0
C997 C 0.67557 0.68648 0.50757 0.0
C998 C 0.70359 0.65799 0.4985 0.0
C999 C 0.7016 0.6642 0.51684 0.0
H1000 H 0.38522 0.02267 0.48372 0.0
H1001 H 0.42464 0.10681 0.50384 0.0
H1002 H 0.41341 0.08991 0.53532 0.0
H1003 H 0.39782 0.05138 0.55728 0.0
H1004 H 0.35802 0.96724 0.53705 0.0
H1005 H 0.36358 0.98398 0.50559 0.0
C1006 C 0.3909 0.03732 0.49496 0.0
C1007 C 0.40608 0.06599 0.4914 0.0
C1008 C 0.3845 0.02745 0.51308 0.0
C1009 C 0.413 0.08465 0.50614 0.0
C1010 C 0.40673 0.07499 0.52419 0.0
C1011 C 0.38985 0.03666 0.54602 0.0
C1012 C 0.37785 0.00808 0.54958 0.0
C1013 C 0.39329 0.04645 0.52786 0.0
C1014 C 0.36743 0.98934 0.53478 0.0
C1015 C 0.37075 0.99891 0.51673 0.0
H1016 H 0.97273 0.36044 0.4947 0.0
H1017 H 0.05158 0.38898 0.46814 0.0
H1018 H 0.07452 0.39834 0.49799 0.0
H1019 H 0.07309 0.40458 0.53138 0.0
H1020 H 0.99457 0.37932 0.55753 0.0
H1021 H 0.97067 0.3623 0.52825 0.0
C1022 C 0.99483 0.36804 0.49543 0.0
C1023 C 0.01041 0.37411 0.47918 0.0
C1024 C 0.00805 0.37436 0.51264 0.0
C1025 C 0.03908 0.38421 0.48042 0.0
C1026 C 0.05226 0.38971 0.49751 0.0
C1027 C 0.05069 0.39478 0.53074 0.0
C1028 C 0.03568 0.3934 0.54661 0.0
C1029 C 0.03711 0.38581 0.51369 0.0
C1030 C 0.00666 0.38083 0.5455 0.0
C1031 C 0.99296 0.37113 0.52874 0.0
H1032 H 0.35855 0.41078 0.53308 0.0
H1033 H 0.40617 0.37832 0.55859 0.0
H1034 H 0.41382 0.36342 0.52873 0.0
H1035 H 0.41237 0.36529 0.49506 0.0
H1036 H 0.36722 0.40042 0.46947 0.0
H1037 H 0.35295 0.40816 0.49954 0.0
C1038 C 0.37005 0.39986 0.53217 0.0
C1039 C 0.38191 0.39586 0.54809 0.0
C1040 C 0.3751 0.39206 0.51483 0.0
C1041 C 0.39692 0.38183 0.54658 0.0
C1042 C 0.4014 0.37337 0.52947 0.0
C1043 C 0.39886 0.37403 0.49603 0.0
C1044 C 0.39104 0.38242 0.47999 0.0
C1045 C 0.3914 0.37922 0.51344 0.0
C1046 C 0.37369 0.3939 0.48157 0.0
C1047 C 0.36559 0.39844 0.49879 0.0
H1048 H 0.65641 0.98257 0.53345 0.0
H1049 H 0.68888 0.06064 0.56202 0.0
H1050 H 0.70445 0.08555 0.53302 0.0
H1051 H 0.70305 0.08487 0.49931 0.0
H1052 H 0.66754 0.0066 0.47067 0.0
H1053 H 0.6594 0.9822 0.4998 0.0
C1054 C 0.66747 0.00505 0.53337 0.0
C1055 C 0.67129 0.01969 0.54988 0.0
C1056 C 0.6756 0.01926 0.51655 0.0
C1057 C 0.6855 0.04883 0.5495 0.0
C1058 C 0.69435 0.06312 0.5329 0.0
C1059 C 0.69416 0.06254 0.49941 0.0
C1060 C 0.68577 0.04759 0.48283 0.0
C1061 C 0.68866 0.04852 0.51628 0.0
C1062 C 0.67405 0.01862 0.48324 0.0
C1063 C 0.66928 0.00462 0.49992 0.0
H1064 H 0.05491 0.68372 0.47596 0.0
H1065 H 0.97095 0.64975 0.49536 0.0
H1066 H 0.98783 0.66286 0.52673 0.0
H1067 H 0.02588 0.67818 0.54907 0.0
H1068 H 0.10988 0.71246 0.52972 0.0
H1069 H 0.09359 0.70546 0.49801 0.0
C1070 C 0.04033 0.67967 0.487 0.0
C1071 C 0.01165 0.6654 0.4833 0.0
C1072 C 0.05018 0.68712 0.50509 0.0
C1073 C 0.9931 0.6606 0.49777 0.0
C1074 C 1.00274 0.66796 0.51577 0.0
C1075 C 0.04069 0.68465 0.53792 0.0
C1076 C 0.06904 0.69549 0.54181 0.0
C1077 C 0.03115 0.68035 0.51967 0.0
C1078 C 0.08795 0.70401 0.52717 0.0
C1079 C 0.07862 0.69983 0.50899 0.0
H1080 H 0.0198 0.30729 0.04741 0.0
H1081 H 0.05084 0.25021 0.05094 0.0
H1082 H 0.05401 0.24954 0.01786 0.0
H1083 H 0.04658 0.26326 0.98786 0.0
H1084 H 0.01785 0.32178 0.9829 0.0
H1085 H 0.01517 0.32374 0.01651 0.0
C1086 C 0.0275 0.29494 0.04093 0.0
C1087 C 0.03481 0.27864 0.0518 0.0
C1088 C 0.02946 0.29464 0.02161 0.0
C1089 C 0.04486 0.26285 0.04309 0.0
C1090 C 0.04665 0.26235 0.02408 0.0
C1091 C 0.03958 0.27639 0.99408 0.0
C1092 C 0.03197 0.29198 0.9829 0.0
C1093 C 0.03865 0.27779 1.01322 0.0
C1094 C 0.02363 0.3094 0.99123 0.0
C1095 C 0.02212 0.31052 1.01043 0.0
H1096 H 0.77569 0.74322 0.98439 0.0
H1097 H 0.72839 0.7849 0.98095 0.0
H1098 H 0.72569 0.78565 1.01443 0.0
H1099 H 0.74168 0.77924 0.04471 0.0
H1100 H 0.78503 0.73359 0.04826 0.0
H1101 H 0.78409 0.72912 1.01481 0.0
C1102 C 0.76426 0.75184 0.99103 0.0
C1103 C 0.75238 0.76412 0.98033 0.0
C1104 C 0.76225 0.75161 1.01029 0.0
C1105 C 0.73753 0.77518 0.98897 0.0
C1106 C 0.73615 0.77579 1.0081 0.0
C1107 C 0.75021 0.76769 0.03812 0.0
C1108 C 0.76344 0.7568 0.04882 0.0
C1109 C 0.74909 0.76474 0.01891 0.0
C1110 C 0.77451 0.7419 0.04024 0.0
C1111 C 0.77419 0.73956 0.02112 0.0
H1112 H 0.32499 0.01686 0.98885 0.0
H1113 H 0.27384 0.05467 0.98466 0.0
H1114 H 0.27366 0.05879 0.01771 0.0
H1115 H 0.28521 0.04939 0.04787 0.0
H1116 H 0.33761 0.01352 0.05355 0.0
H1117 H 0.34019 0.01099 0.01995 0.0
C1118 C 0.31414 0.02632 0.99518 0.0
C1119 C 0.29914 0.03508 0.98416 0.0
C1120 C 0.31405 0.02872 1.01449 0.0
C1121 C 0.28529 0.0474 0.99267 0.0
C1122 C 0.28511 0.04978 1.01165 0.0
C1123 C 0.29721 0.04097 0.04179 0.0
C1124 C 0.31077 0.03118 0.05315 0.0
C1125 C 0.29888 0.04 0.02267 0.0
C1126 C 0.32681 0.021 0.04506 0.0
C1127 C 0.32824 0.01955 0.02587 0.0
H1128 H 0.05177 0.75001 0.98341 0.0
H1129 H 0.99342 0.77907 0.9775 0.0
H1130 H 0.98978 0.78087 1.01055 0.0
H1131 H 0.00616 0.77871 0.04106 0.0
H1132 H 0.06276 0.74818 0.04844 0.0
H1133 H 0.06408 0.74235 1.015 0.0
C1134 C 0.03787 0.75618 0.98938 0.0
C1135 C 0.02325 0.76482 0.97788 0.0
C1136 C 0.03586 0.75733 1.00867 0.0
C1137 C 0.00526 0.7727 0.98591 0.0
C1138 C 1.00316 0.77382 1.00487 0.0
C1139 C 0.01866 0.7706 0.03533 0.0
C1140 C 0.03471 0.76433 0.04705 0.0
C1141 C 0.01894 0.767 0.01633 0.0
C1142 C 0.05036 0.75328 0.03959 0.0
C1143 C 0.05113 0.75002 0.0205 0.0
H1144 H 0.32402 0.31038 0.04645 0.0
H1145 H 0.23976 0.24256 0.05141 0.0
H1146 H 0.23486 0.23974 0.01838 0.0
H1147 H 0.25404 0.25524 0.98803 0.0
H1148 H 0.33691 0.32435 0.98163 0.0
H1149 H 0.34276 0.32792 1.01515 0.0
C1150 C 0.30457 0.29513 0.04029 0.0
C1151 C 0.28239 0.27666 0.05158 0.0
C1152 C 0.30162 0.29367 0.02098 0.0
C1153 C 0.25727 0.25711 0.04325 0.0
C1154 C 0.25439 0.25535 0.02426 0.0
C1155 C 0.2735 0.27104 0.9939 0.0
C1156 C 0.29515 0.28923 0.98233 0.0
C1157 C 0.27643 0.2733 1.01302 0.0
C1158 C 0.31996 0.30997 0.99024 0.0
C1159 C 0.32328 0.312 1.00941 0.0
H1160 H 0.72911 0.02294 0.98465 0.0
H1161 H 0.81834 0.0613 0.98195 0.0
H1162 H 0.82124 0.06381 1.01509 0.0
H1163 H 0.79901 0.05282 0.04487 0.0
H1164 H 0.71043 0.01644 0.04912 0.0
H1165 H 0.70672 0.01552 0.01543 0.0
C1166 C 0.74917 0.03217 0.99132 0.0
C1167 C 0.77342 0.04156 0.98067 0.0
C1168 C 0.75085 0.03364 1.01069 0.0
C1169 C 0.79926 0.05357 0.98964 0.0
C1170 C 0.80101 0.05502 1.00868 0.0
C1171 C 0.77882 0.04464 0.03845 0.0
C1172 C 0.75498 0.03423 0.04942 0.0
C1173 C 0.77699 0.04461 0.0193 0.0
C1174 C 0.72908 0.02438 0.04093 0.0
C1175 C 0.72699 0.02385 0.02169 0.0
H1176 H 0.71039 0.66437 0.31756 0.0
H1177 H 0.67445 0.57571 0.31161 0.0
H1178 H 0.66937 0.57004 0.34456 0.0
H1179 H 0.678 0.58987 0.37516 0.0
H1180 H 0.71189 0.67772 0.38254 0.0
H1181 H 0.71482 0.68409 0.34904 0.0
C1182 C 0.70106 0.64381 0.32348 0.0
C1183 C 0.69323 0.62058 0.31201 0.0
C1184 C 0.69813 0.64053 0.34272 0.0
C1185 C 0.68106 0.59406 0.31999 0.0
C1186 C 0.67814 0.59072 0.3389 0.0
C1187 C 0.68601 0.61046 0.36945 0.0
C1188 C 0.6952 0.63335 0.38125 0.0
C1189 C 0.6872 0.61379 0.35039 0.0
C1190 C 0.70487 0.65979 0.37369 0.0
C1191 C 0.70656 0.6634 0.35455 0.0
H1192 H 0.4799 0.13567 0.38177 0.0
H1193 H 0.39478 0.07199 0.38958 0.0
H1194 H 0.38861 0.06583 0.35614 0.0
H1195 H 0.40755 0.08024 0.32449 0.0
H1196 H 0.49382 0.14278 0.31821 0.0
H1197 H 0.49931 0.14739 0.35118 0.0
C1198 C 0.4599 0.12047 0.37621 0.0
C1199 C 0.4377 0.10466 0.38813 0.0
C1200 C 0.45674 0.11674 0.35717 0.0
C1201 C 0.41215 0.08458 0.38067 0.0
C1202 C 0.40865 0.08107 0.36156 0.0
C1203 C 0.42759 0.09464 0.33035 0.0
C1204 C 0.45013 0.11129 0.31871 0.0
C1205 C 0.43081 0.09723 0.34963 0.0
C1206 C 0.47598 0.12976 0.32665 0.0
C1207 C 0.47922 0.13253 0.3456 0.0
H1208 H 0.99054 0.36825 0.37591 0.0
H1209 H 0.90476 0.34692 0.38054 0.0
H1210 H 0.90026 0.34492 0.34749 0.0
H1211 H 0.92048 0.35106 0.31725 0.0
H1212 H 0.00514 0.37019 0.31111 0.0
H1213 H 0.01024 0.37118 0.34467 0.0
C1214 C 0.97082 0.36289 0.36967 0.0
C1215 C 0.94815 0.35805 0.38086 0.0
C1216 C 0.96818 0.36163 0.35036 0.0
C1217 C 0.9227 0.351 0.37245 0.0
C1218 C 0.92003 0.34988 0.35346 0.0
C1219 C 0.94014 0.35556 0.32321 0.0
C1220 C 0.96254 0.36102 0.31172 0.0
C1221 C 0.94268 0.35558 0.34231 0.0
C1222 C 0.98763 0.36611 0.31968 0.0
C1223 C 0.99052 0.36667 0.33886 0.0
H1224 H 0.68494 0.13143 0.37782 0.0
H1225 H 0.70762 0.06843 0.38383 0.0
H1226 H 0.70849 0.06422 0.35029 0.0
H1227 H 0.70396 0.07984 0.31907 0.0
H1228 H 0.67906 0.14163 0.31451 0.0
H1229 H 0.67765 0.14458 0.34758 0.0
C1230 C 0.69025 0.11684 0.37185 0.0
C1231 C 0.69666 0.10061 0.38331 0.0
C1232 C 0.69013 0.11418 0.35273 0.0
C1233 C 0.70281 0.08134 0.3753 0.0
C1234 C 0.70326 0.07892 0.35612 0.0
C1235 C 0.69794 0.0937 0.32533 0.0
C1236 C 0.69189 0.11064 0.31416 0.0
C1237 C 0.69705 0.09536 0.34465 0.0
C1238 C 0.68407 0.12844 0.3226 0.0
C1239 C 0.68329 0.13025 0.3416 0.0
H1240 H 0.99539 0.66299 0.37893 0.0
H1241 H 0.92958 0.57754 0.38088 0.0
H1242 H 0.92859 0.57495 0.34769 0.0
H1243 H 0.94449 0.59666 0.3182 0.0
H1244 H 0.00794 0.68277 0.31459 0.0
H1245 H 0.01188 0.68532 0.3482 0.0
C1246 C 0.98096 0.64387 0.37202 0.0
C1247 C 0.96243 0.62057 0.38243 0.0
C1248 C 0.98002 0.64258 0.35263 0.0
C1249 C 0.9438 0.59591 0.37328 0.0
C1250 C 0.94326 0.59432 0.35425 0.0
C1251 C 0.95943 0.61604 0.32464 0.0
C1252 C 0.97593 0.63946 0.31379 0.0
C1253 C 0.96102 0.61752 0.34381 0.0
C1254 C 0.99498 0.66436 0.32257 0.0
C1255 C 0.99718 0.66584 0.3418 0.0
H1256 H 0.47626 0.38693 0.37494 0.0
H1257 H 0.38851 0.35666 0.37854 0.0
H1258 H 0.38506 0.35411 0.34487 0.0
H1259 H 0.40733 0.35921 0.31431 0.0
H1260 H 0.49586 0.39184 0.31211 0.0
H1261 H 0.49854 0.39493 0.34524 0.0
C1262 C 0.45628 0.37965 0.36841 0.0
C1263 C 0.4326 0.37155 0.37924 0.0
C1264 C 0.45462 0.37879 0.34922 0.0
C1265 C 0.40704 0.36284 0.37051 0.0
C1266 C 0.40509 0.36139 0.35126 0.0
C1267 C 0.42722 0.36724 0.32108 0.0
C1268 C 0.4513 0.37503 0.31055 0.0
C1269 C 0.42878 0.36917 0.34044 0.0
C1270 C 0.4769 0.38551 0.31967 0.0
C1271 C 0.47852 0.38725 0.33871 0.0
H1272 H 0.35158 0.92279 0.71284 0.0
H1273 H 0.38328 0.01034 0.72018 0.0
H1274 H 0.38563 0.01655 0.68669 0.0
H1275 H 0.38014 0.9967 0.65514 0.0
H1276 H 0.3462 0.90827 0.64935 0.0
H1277 H 0.34303 0.90292 0.68233 0.0
C1278 C 0.35915 0.94332 0.70716 0.0
C1279 C 0.36772 0.96614 0.71898 0.0
C1280 C 0.3599 0.94656 0.68809 0.0
C1281 C 0.37676 0.99245 0.71136 0.0
C1282 C 0.37808 0.99598 0.69222 0.0
C1283 C 0.37176 0.97626 0.66111 0.0
C1284 C 0.36374 0.953 0.64962 0.0
C1285 C 0.36985 0.97314 0.6804 0.0
C1286 C 0.35284 0.92665 0.65769 0.0
C1287 C 0.35102 0.92348 0.67664 0.0
H1288 H 0.07214 0.44053 0.71118 0.0
H1289 H 0.10686 0.38684 0.71426 0.0
H1290 H 0.1057 0.38285 0.68079 0.0
H1291 H 0.09974 0.39919 0.6505 0.0
H1292 H 0.06083 0.44911 0.64747 0.0
H1293 H 0.05827 0.4498 0.68097 0.0
C1294 C 0.07879 0.42745 0.70448 0.0
C1295 C 0.08969 0.41411 0.71506 0.0
C1296 C 0.07749 0.42477 0.68525 0.0
C1297 C 0.09821 0.39713 0.70633 0.0
C1298 C 0.09776 0.39502 0.68721 0.0
C1299 C 0.0901 0.40959 0.65724 0.0
C1300 C 0.08057 0.42416 0.64666 0.0
C1301 C 0.08815 0.40937 0.6765 0.0
C1302 C 0.06809 0.43759 0.65541 0.0
C1303 C 0.06682 0.43817 0.67455 0.0
H1304 H 0.65509 0.70871 0.71278 0.0
H1305 H 0.5656 0.66591 0.71572 0.0
H1306 H 0.56254 0.66206 0.68262 0.0
H1307 H 0.58455 0.67289 0.65276 0.0
H1308 H 0.6735 0.71383 0.64836 0.0
H1309 H 0.67748 0.71625 0.68203 0.0
C1310 C 0.63495 0.69827 0.70618 0.0
C1311 C 0.61064 0.68795 0.71687 0.0
C1312 C 0.63318 0.696 0.68685 0.0
C1313 C 0.58472 0.67435 0.70799 0.0
C1314 C 0.58287 0.67212 0.68898 0.0
C1315 C 0.60487 0.68239 0.65914 0.0
C1316 C 0.62871 0.69361 0.64812 0.0
C1317 C 0.60689 0.68332 0.67829 0.0
C1318 C 0.65484 0.7052 0.65658 0.0
C1319 C 0.65708 0.70661 0.67581 0.0
H1320 H 0.37752 0.46563 0.71208 0.0
H1321 H 0.35583 0.37981 0.71527 0.0
H1322 H 0.35805 0.37783 0.68168 0.0
H1323 H 0.36375 0.40038 0.65104 0.0
H1324 H 0.38268 0.4856 0.64953 0.0
H1325 H 0.38386 0.48775 0.68271 0.0
C1326 C 0.37344 0.44643 0.70556 0.0
C1327 C 0.36647 0.4229 0.71629 0.0
C1328 C 0.37404 0.44527 0.68639 0.0
C1329 C 0.3613 0.3983 0.7074 0.0
C1330 C 0.36245 0.39713 0.68816 0.0
C1331 C 0.36823 0.41937 0.65804 0.0
C1332 C 0.37282 0.44269 0.64773 0.0
C1333 C 0.3684 0.42043 0.67745 0.0
C1334 C 0.37861 0.46718 0.65702 0.0
C1335 C 0.37944 0.46853 0.67606 0.0
H1336 H 0.65982 0.98811 0.71338 0.0
H1337 H 0.57422 0.92295 0.71778 0.0
H1338 H 0.57034 0.91926 0.68473 0.0
H1339 H 0.59094 0.93279 0.65453 0.0
H1340 H 0.67522 0.99937 0.64862 0.0
H1341 H 0.6799 0.00418 0.68217 0.0
C1342 C 0.64028 0.97332 0.70708 0.0
C1343 C 0.61747 0.9557 0.71823 0.0
C1344 C 0.63796 0.9713 0.68776 0.0
C1345 C 0.59225 0.93674 0.70973 0.0
C1346 C 0.58994 0.93448 0.69074 0.0
C1347 C 0.61044 0.9483 0.66055 0.0
C1348 C 0.63285 0.96536 0.64913 0.0
C1349 C 0.61269 0.95132 0.67965 0.0
C1350 C 0.65772 0.98582 0.65715 0.0
C1351 C 0.66036 0.98857 0.67632 0.0
H1352 H 0.08741 0.71646 0.70935 0.0
H1353 H 0.12992 0.67001 0.71587 0.0
H1354 H 0.13306 0.66706 0.68295 0.0
H1355 H 0.12647 0.67946 0.65231 0.0
H1356 H 0.08219 0.7235 0.64412 0.0
H1357 H 0.07698 0.72555 0.67755 0.0
C1358 C 0.09702 0.70542 0.70354 0.0
C1359 C 0.10873 0.69384 0.71525 0.0
C1360 C 0.09876 0.70359 0.68427 0.0
C1361 C 0.12099 0.67947 0.70738 0.0
C1362 C 0.12288 0.67774 0.68846 0.0
C1363 C 0.11569 0.68959 0.65781 0.0
C1364 C 0.1052 0.70177 0.64581 0.0
C1365 C 0.11237 0.69016 0.67682 0.0
C1366 C 0.09065 0.71414 0.65313 0.0
C1367 C 0.0877 0.71531 0.67222 0.0
H1368 H 0.86929 0.09712 0.12277 0.0
H1369 H 0.8246 0.13978 0.11024 0.0
H1370 H 0.86776 0.18419 0.11121 0.0
H1371 H 0.91861 0.21058 0.11313 0.0
H1372 H 0.96319 0.16767 0.12532 0.0
H1373 H 0.91963 0.12384 0.1271 0.0
C1374 C 0.8689 0.11613 0.12044 0.0
C1375 C 0.84371 0.115 0.11625 0.0
C1376 C 0.89383 0.14162 0.12084 0.0
C1377 C 0.84366 0.13994 0.11341 0.0
C1378 C 0.86837 0.16539 0.11391 0.0
C1379 C 0.91882 0.1917 0.11636 0.0
C1380 C 0.94423 0.19247 0.11889 0.0
C1381 C 0.89366 0.16643 0.11722 0.0
C1382 C 0.94401 0.16776 0.1232 0.0
C1383 C 0.91908 0.14262 0.12419 0.0
H1384 H 0.96759 0.82078 0.1088 0.0
H1385 H 0.93052 0.73209 0.11444 0.0
H1386 H 0.88459 0.72726 0.11612 0.0
H1387 H 0.85473 0.74776 0.114 0.0
H1388 H 0.89162 0.83629 0.10746 0.0
H1389 H 0.93779 0.84156 0.10827 0.0
C1390 C 0.94951 0.8004 0.11059 0.0
C1391 C 0.95257 0.77682 0.11138 0.0
C1392 C 0.92307 0.7977 0.1113 0.0
C1393 C 0.92884 0.7506 0.11369 0.0
C1394 C 0.90252 0.7478 0.11464 0.0
C1395 C 0.87284 0.76827 0.11292 0.0
C1396 C 0.8696 0.79156 0.11056 0.0
C1397 C 0.89936 0.77114 0.11314 0.0
C1398 C 0.8934 0.81796 0.10921 0.0
C1399 C 0.91986 0.82101 0.10964 0.0
H1400 H 0.26154 0.09804 0.12529 0.0
H1401 H 0.34922 0.13832 0.11372 0.0
H1402 H 0.35208 0.18342 0.11429 0.0
H1403 H 0.32908 0.21112 0.11556 0.0
H1404 H 0.24135 0.17085 0.12688 0.0
H1405 H 0.23929 0.12621 0.12908 0.0
C1406 C 0.28136 0.11668 0.12309 0.0
C1407 C 0.30505 0.11467 0.11927 0.0
C1408 C 0.28286 0.14262 0.12328 0.0
C1409 C 0.33058 0.13915 0.11659 0.0
C1410 C 0.33225 0.165 0.11687 0.0
C1411 C 0.30954 0.19265 0.11869 0.0
C1412 C 0.28537 0.19439 0.12085 0.0
C1413 C 0.30842 0.16694 0.1198 0.0
C1414 C 0.26029 0.17019 0.12506 0.0
C1415 C 0.25905 0.14458 0.12628 0.0
H1416 H 0.18541 0.95621 0.91183 0.0
H1417 H 0.23285 0.91639 0.92441 0.0
H1418 H 0.19087 0.87105 0.92255 0.0
H1419 H 0.14032 0.84291 0.91952 0.0
H1420 H 0.09283 0.88287 0.90754 0.0
H1421 H 0.13529 0.92786 0.90687 0.0
C1422 C 0.18667 0.93763 0.914 0.0
C1423 C 0.21228 0.93981 0.91841 0.0
C1424 C 0.16241 0.91159 0.91311 0.0
C1425 C 0.21344 0.91542 0.92109 0.0
C1426 C 0.18942 0.88944 0.92006 0.0
C1427 C 0.13923 0.8614 0.91657 0.0
C1428 C 0.11331 0.85943 0.91373 0.0
C1429 C 0.16372 0.88731 0.91641 0.0
C1430 C 0.11241 0.88369 0.90987 0.0
C1431 C 0.13671 0.90949 0.90951 0.0
H1432 H 0.2173 0.31985 0.92039 0.0
H1433 H 0.17855 0.23186 0.91006 0.0
H1434 H 0.13335 0.22854 0.90809 0.0
H1435 H 0.10436 0.24982 0.91157 0.0
H1436 H 0.14283 0.33764 0.92244 0.0
H1437 H 0.18851 0.34176 0.92174 0.0
C1438 C 0.19903 0.29999 0.91752 0.0
C1439 C 0.20139 0.27612 0.91555 0.0
C1440 C 0.17296 0.29812 0.91658 0.0
C1441 C 0.17743 0.25058 0.91176 0.0
C1442 C 0.1515 0.24862 0.91065 0.0
C1443 C 0.12272 0.26994 0.9136 0.0
C1444 C 0.12005 0.29331 0.91721 0.0
C1445 C 0.14895 0.27215 0.91339 0.0
C1446 C 0.14417 0.31923 0.91972 0.0
C1447 C 0.17035 0.32162 0.91937 0.0
H1448 H 0.73898 0.85128 0.91339 0.0
H1449 H 0.82767 0.88761 0.91842 0.0
H1450 H 0.83338 0.93398 0.91705 0.0
H1451 H 0.81289 0.9642 0.91665 0.0
H1452 H 0.72401 0.92734 0.9127 0.0
H1453 H 0.7188 0.88128 0.91131 0.0
C1454 C 0.75962 0.86929 0.91401 0.0
C1455 C 0.78283 0.86587 0.91613 0.0
C1456 C 0.76274 0.89588 0.91351 0.0
C1457 C 0.8094 0.88955 0.91687 0.0
C1458 C 0.81269 0.91612 0.91612 0.0
C1459 C 0.7924 0.94612 0.91526 0.0
C1460 C 0.76888 0.94928 0.9149 0.0
C1461 C 0.78947 0.91954 0.91477 0.0
C1462 C 0.74248 0.92557 0.91315 0.0
C1463 C 0.73945 0.89917 0.91236 0.0
H1464 H 0.54511 0.44231 0.45174 0.0
H1465 H 0.49643 0.48129 0.44075 0.0
H1466 H 0.53824 0.52684 0.44168 0.0
H1467 H 0.58904 0.55539 0.44315 0.0
H1468 H 0.63759 0.51607 0.45354 0.0
H1469 H 0.59542 0.47105 0.45544 0.0
C1470 C 0.54355 0.46076 0.44975 0.0
C1471 C 0.51763 0.45826 0.44601 0.0
C1472 C 0.56772 0.48692 0.45008 0.0
C1473 C 0.51609 0.48249 0.44355 0.0
C1474 C 0.54002 0.50861 0.44404 0.0
C1475 C 0.59041 0.53703 0.44604 0.0
C1476 C 0.61654 0.53918 0.44802 0.0
C1477 C 0.56603 0.51104 0.44691 0.0
C1478 C 0.61782 0.51511 0.45183 0.0
C1479 C 0.59369 0.48928 0.45289 0.0
H1480 H 0.6293 0.14812 0.45555 0.0
H1481 H 0.58887 0.05958 0.44711 0.0
H1482 H 0.54364 0.05632 0.44911 0.0
H1483 H 0.51564 0.07905 0.45072 0.0
H1484 H 0.55627 0.16773 0.45855 0.0
H1485 H 0.60122 0.17033 0.45949 0.0
C1486 C 0.61062 0.12804 0.45433 0.0
C1487 C 0.61258 0.10419 0.451 0.0
C1488 C 0.58464 0.12631 0.45529 0.0
C1489 C 0.58807 0.07834 0.44958 0.0
C1490 C 0.56214 0.07644 0.45068 0.0
C1491 C 0.53428 0.09892 0.45285 0.0
C1492 C 0.5325 0.12317 0.45438 0.0
C1493 C 0.56018 0.10036 0.45315 0.0
C1494 C 0.55694 0.14871 0.45721 0.0
C1495 C 0.58272 0.15026 0.45771 0.0
H1496 H 0.92035 0.43767 0.45529 0.0
H1497 H 0.0069 0.47299 0.4415 0.0
H1498 H 0.01317 0.51945 0.44312 0.0
H1499 H 0.99339 0.54986 0.44586 0.0
H1500 H 0.90668 0.5147 0.45903 0.0
H1501 H 0.90137 0.46856 0.46045 0.0
C1502 C 0.94066 0.45552 0.45284 0.0
C1503 C 0.96301 0.45172 0.44809 0.0
C1504 C 0.94413 0.4823 0.45359 0.0
C1505 C 0.98922 0.47519 0.44505 0.0
C1506 C 0.99286 0.50184 0.44594 0.0
C1507 C 0.97339 0.53219 0.44927 0.0
C1508 C 0.95044 0.53581 0.45215 0.0
C1509 C 0.97034 0.50561 0.44981 0.0
C1510 C 0.92471 0.51259 0.45665 0.0
C1511 C 0.92161 0.48612 0.45741 0.0
H1512 H 0.77129 0.21659 0.2396 0.0
H1513 H 0.80652 0.16543 0.2535 0.0
H1514 H 0.85301 0.20589 0.25242 0.0
H1515 H 0.88334 0.25637 0.25017 0.0
H1516 H 0.84778 0.30752 0.23704 0.0
H1517 H 0.80188 0.26645 0.23504 0.0
C1518 C 0.78912 0.21417 0.24219 0.0
C1519 C 0.78531 0.18799 0.24681 0.0
C1520 C 0.81581 0.23759 0.2418 0.0
C1521 C 0.80876 0.18533 0.25002 0.0
C1522 C 0.8354 0.20849 0.24945 0.0
C1523 C 0.86562 0.25853 0.24665 0.0
C1524 C 0.86906 0.28508 0.24395 0.0
C1525 C 0.83913 0.23482 0.24576 0.0
C1526 C 0.8458 0.28741 0.23933 0.0
C1527 C 0.81947 0.26391 0.2382 0.0
H1528 H 0.89285 0.66723 0.25379 0.0
H1529 H 0.85801 0.58008 0.24185 0.0
H1530 H 0.81185 0.57452 0.23985 0.0
H1531 H 0.78093 0.59362 0.2434 0.0
H1532 H 0.81553 0.68056 0.25593 0.0
H1533 H 0.86212 0.6869 0.25565 0.0
C1534 C 0.87522 0.64706 0.25058 0.0
C1535 C 0.87898 0.6241 0.2481 0.0
C1536 C 0.84859 0.64389 0.24963 0.0
C1537 C 0.85581 0.59813 0.24391 0.0
C1538 C 0.82934 0.59489 0.24279 0.0
C1539 C 0.79865 0.61403 0.24591 0.0
C1540 C 0.79462 0.63651 0.24981 0.0
C1541 C 0.82542 0.61752 0.24592 0.0
C1542 C 0.81792 0.66281 0.25298 0.0
C1543 C 0.84463 0.66648 0.25284 0.0
H1544 H 0.4115 0.25987 0.25096 0.0
H1545 H 0.4989 0.30785 0.23865 0.0
H1546 H 0.50175 0.26557 0.23794 0.0
H1547 H 0.48027 0.21547 0.24323 0.0
H1548 H 0.39307 0.16778 0.25619 0.0
H1549 H 0.38937 0.20945 0.25408 0.0
C1550 C 0.43115 0.26111 0.24794 0.0
C1551 C 0.45499 0.2871 0.24503 0.0
C1552 C 0.43274 0.23675 0.24776 0.0
C1553 C 0.48021 0.28819 0.24103 0.0
C1554 C 0.48189 0.264 0.24066 0.0
C1555 C 0.46037 0.21409 0.24539 0.0
C1556 C 0.43706 0.1885 0.25003 0.0
C1557 C 0.45842 0.23824 0.24438 0.0
C1558 C 0.41143 0.18718 0.25272 0.0
C1559 C 0.40927 0.21103 0.25154 0.0
H1560 H 0.29452 0.84825 0.78868 0.0
H1561 H 0.25729 0.89871 0.77835 0.0
H1562 H 0.21133 0.85743 0.7785 0.0
H1563 H 0.182 0.80678 0.7792 0.0
H1564 H 0.2193 0.75628 0.78918 0.0
H1565 H 0.26484 0.79785 0.79166 0.0
C1566 C 0.27637 0.8503 0.78664 0.0
C1567 C 0.27947 0.87659 0.78333 0.0
C1568 C 0.24996 0.82643 0.78657 0.0
C1569 C 0.25561 0.87878 0.78084 0.0
C1570 C 0.22927 0.85515 0.78087 0.0
C1571 C 0.20003 0.80483 0.78209 0.0
C1572 C 0.19718 0.77836 0.78382 0.0
C1573 C 0.22625 0.82883 0.78335 0.0
C1574 C 0.22081 0.77633 0.7877 0.0
C1575 C 0.24693 0.80012 0.78908 0.0
H1576 H 0.29083 0.46849 0.77849 0.0
H1577 H 0.25126 0.37925 0.78093 0.0
H1578 H 0.20584 0.37568 0.78176 0.0
H1579 H 0.17726 0.39761 0.77991 0.0
H1580 H 0.21666 0.48676 0.77645 0.0
H1581 H 0.26219 0.49057 0.77803 0.0
C1582 C 0.2723 0.44825 0.77939 0.0
C1583 C 0.27452 0.42417 0.77956 0.0
C1584 C 0.24617 0.4463 0.77959 0.0
C1585 C 0.25022 0.39814 0.78069 0.0
C1586 C 0.2242 0.39606 0.78115 0.0
C1587 C 0.19577 0.41792 0.77967 0.0
C1588 C 0.19345 0.44184 0.77797 0.0
C1589 C 0.22191 0.41997 0.78031 0.0
C1590 C 0.21775 0.46796 0.77767 0.0
C1591 C 0.24383 0.47018 0.77855 0.0
H1592 H 0.65034 0.80321 0.78032 0.0
H1593 H 0.56198 0.75478 0.78917 0.0
H1594 H 0.55965 0.79716 0.79218 0.0
H1595 H 0.58203 0.84782 0.78989 0.0
H1596 H 0.67025 0.89611 0.78045 0.0
H1597 H 0.67323 0.85394 0.78029 0.0
C1598 C 0.63058 0.80188 0.78307 0.0
C1599 C 0.60635 0.77578 0.78433 0.0
C1600 C 0.62931 0.82634 0.78462 0.0
C1601 C 0.58098 0.77454 0.78803 0.0
C1602 C 0.57959 0.79879 0.78973 0.0
C1603 C 0.60198 0.8492 0.78804 0.0
C1604 C 0.62582 0.87514 0.78502 0.0
C1605 C 0.60353 0.82479 0.7877 0.0
C1606 C 0.6515 0.87644 0.78268 0.0
C1607 C 0.65325 0.85231 0.78255 0.0
H1608 H 0.51617 0.6239 0.57384 0.0
H1609 H 0.56591 0.58653 0.58627 0.0
H1610 H 0.52475 0.54055 0.58488 0.0
H1611 H 0.47416 0.51126 0.58295 0.0
H1612 H 0.42436 0.54876 0.57108 0.0
H1613 H 0.46606 0.59424 0.56926 0.0
C1614 C 0.51811 0.60571 0.57604 0.0
C1615 C 0.54412 0.60878 0.58036 0.0
C1616 C 0.49429 0.57929 0.57543 0.0
C1617 C 0.54618 0.58488 0.58303 0.0
C1618 C 0.52261 0.55852 0.58229 0.0
C1619 C 0.4724 0.5293 0.57973 0.0
C1620 C 0.44607 0.52654 0.57736 0.0
C1621 C 0.49648 0.55552 0.57893 0.0
C1622 C 0.44429 0.55021 0.57308 0.0
C1623 C 0.46816 0.5763 0.57209 0.0
H1624 H 0.44211 0.92037 0.57839 0.0
H1625 H 0.48005 0.00842 0.5882 0.0
H1626 H 0.52589 0.01306 0.58716 0.0
H1627 H 0.55506 0.9917 0.58587 0.0
H1628 H 0.51715 0.90349 0.57679 0.0
H1629 H 0.47159 0.89949 0.57498 0.0
C1630 C 0.46039 0.94064 0.58009 0.0
C1631 C 0.45753 0.96394 0.58353 0.0
C1632 C 0.48677 0.94316 0.57972 0.0
C1633 C 0.48154 0.99005 0.58566 0.0
C1634 C 0.50782 0.99275 0.58509 0.0
C1635 C 0.5369 0.97163 0.58329 0.0
C1636 C 0.5396 0.94792 0.58163 0.0
C1637 C 0.51066 0.96937 0.5825 0.0
C1638 C 0.51576 0.9221 0.57823 0.0
C1639 C 0.48963 0.91976 0.57722 0.0
H1640 H 0.15129 0.62645 0.5832 0.0
H1641 H 0.06302 0.59392 0.57914 0.0
H1642 H 0.05522 0.54681 0.57781 0.0
H1643 H 0.07307 0.51471 0.57989 0.0
H1644 H 0.16121 0.54702 0.58491 0.0
H1645 H 0.16937 0.5943 0.58362 0.0
C1646 C 0.13036 0.60909 0.58183 0.0
C1647 C 0.10778 0.61379 0.58139 0.0
C1648 C 0.12595 0.58196 0.58133 0.0
C1649 C 0.0808 0.59098 0.57962 0.0
C1650 C 0.07629 0.56398 0.57887 0.0
C1651 C 0.09412 0.53205 0.58053 0.0
C1652 C 0.11646 0.52722 0.58261 0.0
C1653 C 0.09866 0.55921 0.58004 0.0
C1654 C 0.14358 0.55004 0.58339 0.0
C1655 C 0.14828 0.57713 0.58268 0.0
loop_
_geom_bond_atom_site_label_1
_geom_bond_atom_site_label_2
_geom_bond_distance
_geom_bond_site_symmetry_2
_ccdc_geom_bond_type
O0 Cd1 2.223 . S
O0 C8 1.315 . S
Cd1 O0 2.223 . S
Cd1 O4 2.297 . S
Cd1 O5 2.439 . S
Cd1 O11 2.240 1_455 S
Cd2 O3 2.240 . S
Cd2 O10 2.223 1_455 S
Cd2 O12 2.297 1_455 S
Cd2 O13 2.439 . S
O3 Cd2 2.240 . S
O3 C8 1.279 . S
O4 Cd1 2.297 . S
O4 C6 1.247 . S
O5 Cd1 2.439 . S
O5 C6 1.208 . S
C6 O4 1.247 . S
C6 O5 1.208 . S
C7 O12 1.247 1_455 S
C7 O13 1.208 . S
C8 O0 1.315 . S
C8 O3 1.279 . S
C9 O10 1.315 . S
C9 O11 1.279 . S
O10 Cd2 2.223 1_655 S
O10 C9 1.315 . S
O11 Cd1 2.240 1_655 S
O11 C9 1.279 . S
O12 Cd2 2.297 1_655 S
O12 C7 1.247 1_655 S
O13 Cd2 2.439 . S
O13 C7 1.208 . S
O14 Cd15 2.223 . S
O14 C22 1.315 . S
Cd15 O14 2.223 . S
Cd15 O18 2.297 . S
Cd15 O19 2.439 . S
Cd15 O25 2.240 . S
Cd16 O17 2.240 . S
Cd16 O24 2.223 . S
Cd16 O26 2.297 . S
Cd16 O27 2.439 . S
O17 Cd16 2.240 . S
O17 C22 1.279 . S
O18 Cd15 2.297 . S
O18 C20 1.247 . S
O19 Cd15 2.439 . S
O19 C20 1.208 . S
C20 O18 1.247 . S
C20 O19 1.208 . S
C21 O26 1.247 . S
C21 O27 1.208 . S
C22 O14 1.315 . S
C22 O17 1.279 . S
C23 O24 1.315 . S
C23 O25 1.279 . S
O24 Cd16 2.223 . S
O24 C23 1.315 . S
O25 Cd15 2.240 . S
O25 C23 1.279 . S
O26 Cd16 2.297 . S
O26 C21 1.247 . S
O27 Cd16 2.439 . S
O27 C21 1.208 . S
O28 Cd29 2.223 . S
O28 C36 1.315 . S
Cd29 O28 2.223 . S
Cd29 O32 2.297 1_545 S
Cd29 O33 2.439 1_545 S
Cd29 O39 2.240 . S
Cd30 O31 2.240 . S
Cd30 O38 2.223 . S
Cd30 O40 2.297 . S
Cd30 O41 2.439 . S
O31 Cd30 2.240 . S
O31 C36 1.279 . S
O32 Cd29 2.297 1_565 S
O32 C34 1.247 . S
O33 Cd29 2.439 1_565 S
O33 C34 1.208 . S
C34 O32 1.247 . S
C34 O33 1.208 . S
C35 O40 1.247 . S
C35 O41 1.208 . S
C36 O28 1.315 . S
C36 O31 1.279 . S
C37 O38 1.315 . S
C37 O39 1.279 . S
O38 Cd30 2.223 . S
O38 C37 1.315 . S
O39 Cd29 2.240 . S
O39 C37 1.279 . S
O40 Cd30 2.297 . S
O40 C35 1.247 . S
O41 Cd30 2.439 . S
O41 C35 1.208 . S
O42 Cd43 2.223 . S
O42 C50 1.315 . S
Cd43 O42 2.223 . S
Cd43 O46 2.297 . S
Cd43 O47 2.439 . S
Cd43 O53 2.240 1_545 S
Cd44 O45 2.240 . S
Cd44 O52 2.223 1_545 S
Cd44 O54 2.297 1_545 S
Cd44 O55 2.439 . S
O45 Cd44 2.240 . S
O45 C50 1.279 . S
O46 Cd43 2.297 . S
O46 C48 1.247 . S
O47 Cd43 2.439 . S
O47 C48 1.208 . S
C48 O46 1.247 . S
C48 O47 1.208 . S
C49 O54 1.247 1_545 S
C49 O55 1.208 . S
C50 O42 1.315 . S
C50 O45 1.279 . S
C51 O52 1.315 . S
C51 O53 1.279 . S
O52 Cd44 2.223 1_565 S
O52 C51 1.315 . S
O53 Cd43 2.240 1_565 S
O53 C51 1.279 . S
O54 Cd44 2.297 1_565 S
O54 C49 1.247 1_565 S
O55 Cd44 2.439 . S
O55 C49 1.208 . S
O56 Cd57 2.223 . S
O56 C64 1.315 . S
Cd57 O56 2.223 . S
Cd57 O60 2.297 1_455 S
Cd57 O61 2.439 1_455 S
Cd57 O67 2.240 . S
Cd58 O59 2.240 . S
Cd58 O66 2.223 . S
Cd58 O68 2.297 . S
Cd58 O69 2.439 . S
O59 Cd58 2.240 . S
O59 C64 1.279 . S
O60 Cd57 2.297 1_655 S
O60 C62 1.247 . S
O61 Cd57 2.439 1_655 S
O61 C62 1.208 . S
C62 O60 1.247 . S
C62 O61 1.208 . S
C63 O68 1.247 . S
C63 O69 1.208 . S
C64 O56 1.315 . S
C64 O59 1.279 . S
C65 O66 1.315 . S
C65 O67 1.279 . S
O66 Cd58 2.223 . S
O66 C65 1.315 . S
O67 Cd57 2.240 . S
O67 C65 1.279 . S
O68 Cd58 2.297 . S
O68 C63 1.247 . S
O69 Cd58 2.439 . S
O69 C63 1.208 . S
O70 Cd71 2.223 . S
O70 C78 1.315 . S
Cd71 O70 2.223 . S
Cd71 O74 2.297 . S
Cd71 O75 2.439 . S
Cd71 O81 2.240 . S
Cd72 O73 2.240 . S
Cd72 O80 2.223 . S
Cd72 O82 2.297 . S
Cd72 O83 2.439 . S
O73 Cd72 2.240 . S
O73 C78 1.279 . S
O74 Cd71 2.297 . S
O74 C76 1.247 . S
O75 Cd71 2.439 . S
O75 C76 1.208 . S
C76 O74 1.247 . S
C76 O75 1.208 . S
C77 O82 1.247 . S
C77 O83 1.208 . S
C78 O70 1.315 . S
C78 O73 1.279 . S
C79 O80 1.315 . S
C79 O81 1.279 . S
O80 Cd72 2.223 . S
O80 C79 1.315 . S
O81 Cd71 2.240 . S
O81 C79 1.279 . S
O82 Cd72 2.297 . S
O82 C77 1.247 . S
O83 Cd72 2.439 . S
O83 C77 1.208 . S
O84 Cd85 2.223 . S
O84 C92 1.315 . S
Cd85 O84 2.223 . S
Cd85 O88 2.297 1_455 S
Cd85 O89 2.439 1_455 S
Cd85 O95 2.240 . S
Cd86 O87 2.240 . S
Cd86 O94 2.223 . S
Cd86 O96 2.297 . S
Cd86 O97 2.439 . S
O87 Cd86 2.240 . S
O87 C92 1.279 . S
O88 Cd85 2.297 1_655 S
O88 C90 1.247 . S
O89 Cd85 2.439 1_655 S
O89 C90 1.208 . S
C90 O88 1.247 . S
C90 O89 1.208 . S
C91 O96 1.247 . S
C91 O97 1.208 . S
C92 O84 1.315 . S
C92 O87 1.279 . S
C93 O94 1.315 . S
C93 O95 1.279 . S
O94 Cd86 2.223 . S
O94 C93 1.315 . S
O95 Cd85 2.240 . S
O95 C93 1.279 . S
O96 Cd86 2.297 . S
O96 C91 1.247 . S
O97 Cd86 2.439 . S
O97 C91 1.208 . S
O98 Cd99 2.223 . S
O98 C106 1.315 . S
Cd99 O98 2.223 . S
Cd99 O102 2.297 . S
Cd99 O103 2.439 . S
Cd99 O109 2.240 . S
Cd100 O101 2.240 . S
Cd100 O108 2.223 . S
Cd100 O110 2.297 . S
Cd100 O111 2.439 . S
O101 Cd100 2.240 . S
O101 C106 1.279 . S
O102 Cd99 2.297 . S
O102 C104 1.247 . S
O103 Cd99 2.439 . S
O103 C104 1.208 . S
C104 O102 1.247 . S
C104 O103 1.208 . S
C105 O110 1.247 . S
C105 O111 1.208 . S
C106 O98 1.315 . S
C106 O101 1.279 . S
C107 O108 1.315 . S
C107 O109 1.279 . S
O108 Cd100 2.223 . S
O108 C107 1.315 . S
O109 Cd99 2.240 . S
O109 C107 1.279 . S
O110 Cd100 2.297 . S
O110 C105 1.247 . S
O111 Cd100 2.439 . S
O111 C105 1.208 . S
O112 Cd113 2.223 . S
O112 C120 1.315 . S
Cd113 O112 2.223 . S
Cd113 O116 2.297 . S
Cd113 O117 2.439 . S
Cd113 O123 2.240 1_545 S
Cd114 O115 2.240 . S
Cd114 O122 2.223 1_545 S
Cd114 O124 2.297 1_545 S
Cd114 O125 2.439 . S
O115 Cd114 2.240 . S
O115 C120 1.279 . S
O116 Cd113 2.297 . S
O116 C118 1.247 . S
O117 Cd113 2.439 . S
O117 C118 1.208 . S
C118 O116 1.247 . S
C118 O117 1.208 . S
C119 O124 1.247 1_545 S
C119 O125 1.208 . S
C120 O112 1.315 . S
C120 O115 1.279 . S
C121 O122 1.315 . S
C121 O123 1.279 . S
O122 Cd114 2.223 1_565 S
O122 C121 1.315 . S
O123 Cd113 2.240 1_565 S
O123 C121 1.279 . S
O124 Cd114 2.297 1_565 S
O124 C119 1.247 1_565 S
O125 Cd114 2.439 . S
O125 C119 1.208 . S
O126 Cd127 2.223 . S
O126 C134 1.315 . S
Cd127 O126 2.223 . S
Cd127 O130 2.297 1_545 S
Cd127 O131 2.439 1_545 S
Cd127 O137 2.240 . S
Cd128 O129 2.240 . S
Cd128 O136 2.223 . S
Cd128 O138 2.297 . S
Cd128 O139 2.439 . S
O129 Cd128 2.240 . S
O129 C134 1.279 . S
O130 Cd127 2.297 1_565 S
O130 C132 1.247 . S
O131 Cd127 2.439 1_565 S
O131 C132 1.208 . S
C132 O130 1.247 . S
C132 O131 1.208 . S
C133 O138 1.247 . S
C133 O139 1.208 . S
C134 O126 1.315 . S
C134 O129 1.279 . S
C135 O136 1.315 . S
C135 O137 1.279 . S
O136 Cd128 2.223 . S
O136 C135 1.315 . S
O137 Cd127 2.240 . S
O137 C135 1.279 . S
O138 Cd128 2.297 . S
O138 C133 1.247 . S
O139 Cd128 2.439 . S
O139 C133 1.208 . S
O140 Cd141 2.223 . S
O140 C148 1.315 . S
Cd141 O140 2.223 . S
Cd141 O144 2.297 . S
Cd141 O145 2.439 . S
Cd141 O151 2.240 1_455 S
Cd142 O143 2.240 . S
Cd142 O150 2.223 1_455 S
Cd142 O152 2.297 1_455 S
Cd142 O153 2.439 . S
O143 Cd142 2.240 . S
O143 C148 1.279 . S
O144 Cd141 2.297 . S
O144 C146 1.247 . S
O145 Cd141 2.439 . S
O145 C146 1.208 . S
C146 O144 1.247 . S
C146 O145 1.208 . S
C147 O152 1.247 1_455 S
C147 O153 1.208 . S
C148 O140 1.315 . S
C148 O143 1.279 . S
C149 O150 1.315 . S
C149 O151 1.279 . S
O150 Cd142 2.223 1_655 S
O150 C149 1.315 . S
O151 Cd141 2.240 1_655 S
O151 C149 1.279 . S
O152 Cd142 2.297 1_655 S
O152 C147 1.247 1_655 S
O153 Cd142 2.439 . S
O153 C147 1.208 . S
O154 Cd155 2.223 . S
O154 C162 1.315 . S
Cd155 O154 2.223 . S
Cd155 O158 2.297 . S
Cd155 O159 2.439 . S
Cd155 O165 2.240 . S
Cd156 O157 2.240 . S
Cd156 O164 2.223 . S
Cd156 O166 2.297 . S
Cd156 O167 2.439 . S
O157 Cd156 2.240 . S
O157 C162 1.279 . S
O158 Cd155 2.297 . S
O158 C160 1.247 . S
O159 Cd155 2.439 . S
O159 C160 1.208 . S
C160 O158 1.247 . S
C160 O159 1.208 . S
C161 O166 1.247 . S
C161 O167 1.208 . S
C162 O154 1.315 . S
C162 O157 1.279 . S
C163 O164 1.315 . S
C163 O165 1.279 . S
O164 Cd156 2.223 . S
O164 C163 1.315 . S
O165 Cd155 2.240 . S
O165 C163 1.279 . S
O166 Cd156 2.297 . S
O166 C161 1.247 . S
O167 Cd156 2.439 . S
O167 C161 1.208 . S
O168 Cd169 2.223 . S
O168 C176 1.315 . S
Cd169 O168 2.223 . S
Cd169 O172 2.297 . S
Cd169 O173 2.439 . S
Cd169 O179 2.240 . S
Cd170 O171 2.240 . S
Cd170 O178 2.223 . S
Cd170 O180 2.297 . S
Cd170 O181 2.439 . S
O171 Cd170 2.240 . S
O171 C176 1.279 . S
O172 Cd169 2.297 . S
O172 C174 1.247 . S
O173 Cd169 2.439 . S
O173 C174 1.208 . S
C174 O172 1.247 . S
C174 O173 1.208 . S
C175 O180 1.247 . S
C175 O181 1.208 . S
C176 O168 1.315 . S
C176 O171 1.279 . S
C177 O178 1.315 . S
C177 O179 1.279 . S
O178 Cd170 2.223 . S
O178 C177 1.315 . S
O179 Cd169 2.240 . S
O179 C177 1.279 . S
O180 Cd170 2.297 . S
O180 C175 1.247 . S
O181 Cd170 2.439 . S
O181 C175 1.208 . S
O182 Cd183 2.223 . S
O182 C190 1.315 . S
Cd183 O182 2.223 . S
Cd183 O186 2.297 . S
Cd183 O187 2.439 . S
Cd183 O193 2.240 . S
Cd184 O185 2.240 . S
Cd184 O192 2.223 . S
Cd184 O194 2.297 . S
Cd184 O195 2.439 . S
O185 Cd184 2.240 . S
O185 C190 1.279 . S
O186 Cd183 2.297 . S
O186 C188 1.247 . S
O187 Cd183 2.439 . S
O187 C188 1.208 . S
C188 O186 1.247 . S
C188 O187 1.208 . S
C189 O194 1.247 . S
C189 O195 1.208 . S
C190 O182 1.315 . S
C190 O185 1.279 . S
C191 O192 1.315 . S
C191 O193 1.279 . S
O192 Cd184 2.223 . S
O192 C191 1.315 . S
O193 Cd183 2.240 . S
O193 C191 1.279 . S
O194 Cd184 2.297 . S
O194 C189 1.247 . S
O195 Cd184 2.439 . S
O195 C189 1.208 . S
O196 Cd197 2.223 . S
O196 C204 1.315 . S
Cd197 O196 2.223 . S
Cd197 O200 2.297 . S
Cd197 O201 2.439 . S
Cd197 O207 2.240 . S
Cd198 O199 2.240 . S
Cd198 O206 2.223 . S
Cd198 O208 2.297 1_655 S
Cd198 O209 2.439 . S
O199 Cd198 2.240 . S
O199 C204 1.279 . S
O200 Cd197 2.297 . S
O200 C202 1.247 . S
O201 Cd197 2.439 . S
O201 C202 1.208 . S
C202 O200 1.247 . S
C202 O201 1.208 . S
C203 O208 1.247 1_655 S
C203 O209 1.208 . S
C204 O196 1.315 . S
C204 O199 1.279 . S
C205 O206 1.315 . S
C205 O207 1.279 . S
O206 Cd198 2.223 . S
O206 C205 1.315 . S
O207 Cd197 2.240 . S
O207 C205 1.279 . S
O208 Cd198 2.297 1_455 S
O208 C203 1.247 1_455 S
O209 Cd198 2.439 . S
O209 C203 1.208 . S
O210 Cd211 2.223 . S
O210 C218 1.315 . S
Cd211 O210 2.223 . S
Cd211 O214 2.297 . S
Cd211 O215 2.439 . S
Cd211 O221 2.240 . S
Cd212 O213 2.240 . S
Cd212 O220 2.223 . S
Cd212 O222 2.297 . S
Cd212 O223 2.439 . S
O213 Cd212 2.240 . S
O213 C218 1.279 . S
O214 Cd211 2.297 . S
O214 C216 1.247 . S
O215 Cd211 2.439 . S
O215 C216 1.208 . S
C216 O214 1.247 . S
C216 O215 1.208 . S
C217 O222 1.247 . S
C217 O223 1.208 . S
C218 O210 1.315 . S
C218 O213 1.279 . S
C219 O220 1.315 . S
C219 O221 1.279 . S
O220 Cd212 2.223 . S
O220 C219 1.315 . S
O221 Cd211 2.240 . S
O221 C219 1.279 . S
O222 Cd212 2.297 . S
O222 C217 1.247 . S
O223 Cd212 2.439 . S
O223 C217 1.208 . S
O224 Cd225 2.223 . S
O224 C232 1.315 . S
Cd225 O224 2.223 . S
Cd225 O228 2.297 . S
Cd225 O229 2.439 . S
Cd225 O235 2.240 . S
Cd226 O227 2.240 . S
Cd226 O234 2.223 . S
Cd226 O236 2.297 . S
Cd226 O237 2.439 . S
O227 Cd226 2.240 . S
O227 C232 1.279 . S
O228 Cd225 2.297 . S
O228 C230 1.247 . S
O229 Cd225 2.439 . S
O229 C230 1.208 . S
C230 O228 1.247 . S
C230 O229 1.208 . S
C231 O236 1.247 . S
C231 O237 1.208 . S
C232 O224 1.315 . S
C232 O227 1.279 . S
C233 O234 1.315 . S
C233 O235 1.279 . S
O234 Cd226 2.223 . S
O234 C233 1.315 . S
O235 Cd225 2.240 . S
O235 C233 1.279 . S
O236 Cd226 2.297 . S
O236 C231 1.247 . S
O237 Cd226 2.439 . S
O237 C231 1.208 . S
O238 Cd239 2.223 . S
O238 C246 1.315 . S
Cd239 O238 2.223 . S
Cd239 O242 2.297 . S
Cd239 O243 2.439 . S
Cd239 O249 2.240 . S
Cd240 O241 2.240 . S
Cd240 O248 2.223 . S
Cd240 O250 2.297 . S
Cd240 O251 2.439 . S
O241 Cd240 2.240 . S
O241 C246 1.279 . S
O242 Cd239 2.297 . S
O242 C244 1.247 . S
O243 Cd239 2.439 . S
O243 C244 1.208 . S
C244 O242 1.247 . S
C244 O243 1.208 . S
C245 O250 1.247 . S
C245 O251 1.208 . S
C246 O238 1.315 . S
C246 O241 1.279 . S
C247 O248 1.315 . S
C247 O249 1.279 . S
O248 Cd240 2.223 . S
O248 C247 1.315 . S
O249 Cd239 2.240 . S
O249 C247 1.279 . S
O250 Cd240 2.297 . S
O250 C245 1.247 . S
O251 Cd240 2.439 . S
O251 C245 1.208 . S
O252 Cd253 2.223 . S
O252 C260 1.315 . S
Cd253 O252 2.223 . S
Cd253 O256 2.297 . S
Cd253 O257 2.439 . S
Cd253 O263 2.240 . S
Cd254 O255 2.240 . S
Cd254 O262 2.223 . S
Cd254 O264 2.297 . S
Cd254 O265 2.439 . S
O255 Cd254 2.240 . S
O255 C260 1.279 . S
O256 Cd253 2.297 . S
O256 C258 1.247 . S
O257 Cd253 2.439 . S
O257 C258 1.208 . S
C258 O256 1.247 . S
C258 O257 1.208 . S
C259 O264 1.247 . S
C259 O265 1.208 . S
C260 O252 1.315 . S
C260 O255 1.279 . S
C261 O262 1.315 . S
C261 O263 1.279 . S
O262 Cd254 2.223 . S
O262 C261 1.315 . S
O263 Cd253 2.240 . S
O263 C261 1.279 . S
O264 Cd254 2.297 . S
O264 C259 1.247 . S
O265 Cd254 2.439 . S
O265 C259 1.208 . S
O266 Cd267 2.223 . S
O266 C274 1.315 . S
Cd267 O266 2.223 . S
Cd267 O270 2.297 . S
Cd267 O271 2.439 . S
Cd267 O277 2.240 . S
Cd268 O269 2.240 . S
Cd268 O276 2.223 . S
Cd268 O278 2.297 . S
Cd268 O279 2.439 . S
O269 Cd268 2.240 . S
O269 C274 1.279 . S
O270 Cd267 2.297 . S
O270 C272 1.247 . S
O271 Cd267 2.439 . S
O271 C272 1.208 . S
C272 O270 1.247 . S
C272 O271 1.208 . S
C273 O278 1.247 . S
C273 O279 1.208 . S
C274 O266 1.315 . S
C274 O269 1.279 . S
C275 O276 1.315 . S
C275 O277 1.279 . S
O276 Cd268 2.223 . S
O276 C275 1.315 . S
O277 Cd267 2.240 . S
O277 C275 1.279 . S
O278 Cd268 2.297 . S
O278 C273 1.247 . S
O279 Cd268 2.439 . S
O279 C273 1.208 . S
O280 Cd281 2.223 . S
O280 C288 1.315 . S
Cd281 O280 2.223 . S
Cd281 O284 2.297 . S
Cd281 O285 2.439 . S
Cd281 O291 2.240 . S
Cd282 O283 2.240 . S
Cd282 O290 2.223 . S
Cd282 O292 2.297 . S
Cd282 O293 2.439 . S
O283 Cd282 2.240 . S
O283 C288 1.279 . S
O284 Cd281 2.297 . S
O284 C286 1.247 . S
O285 Cd281 2.439 . S
O285 C286 1.208 . S
C286 O284 1.247 . S
C286 O285 1.208 . S
C287 O292 1.247 . S
C287 O293 1.208 . S
C288 O280 1.315 . S
C288 O283 1.279 . S
C289 O290 1.315 . S
C289 O291 1.279 . S
O290 Cd282 2.223 . S
O290 C289 1.315 . S
O291 Cd281 2.240 . S
O291 C289 1.279 . S
O292 Cd282 2.297 . S
O292 C287 1.247 . S
O293 Cd282 2.439 . S
O293 C287 1.208 . S
O294 Cd295 2.223 . S
O294 C302 1.315 . S
Cd295 O294 2.223 . S
Cd295 O298 2.297 . S
Cd295 O299 2.439 . S
Cd295 O305 2.240 . S
Cd296 O297 2.240 . S
Cd296 O304 2.223 . S
Cd296 O306 2.297 . S
Cd296 O307 2.439 . S
O297 Cd296 2.240 . S
O297 C302 1.279 . S
O298 Cd295 2.297 . S
O298 C300 1.247 . S
O299 Cd295 2.439 . S
O299 C300 1.208 . S
C300 O298 1.247 . S
C300 O299 1.208 . S
C301 O306 1.247 . S
C301 O307 1.208 . S
C302 O294 1.315 . S
C302 O297 1.279 . S
C303 O304 1.315 . S
C303 O305 1.279 . S
O304 Cd296 2.223 . S
O304 C303 1.315 . S
O305 Cd295 2.240 . S
O305 C303 1.279 . S
O306 Cd296 2.297 . S
O306 C301 1.247 . S
O307 Cd296 2.439 . S
O307 C301 1.208 . S
O308 Cd309 2.223 . S
O308 C316 1.315 . S
Cd309 O308 2.223 . S
Cd309 O312 2.297 . S
Cd309 O313 2.439 . S
Cd309 O319 2.240 . S
Cd310 O311 2.240 . S
Cd310 O318 2.223 . S
Cd310 O320 2.297 . S
Cd310 O321 2.439 . S
O311 Cd310 2.240 . S
O311 C316 1.279 . S
O312 Cd309 2.297 . S
O312 C314 1.247 . S
O313 Cd309 2.439 . S
O313 C314 1.208 . S
C314 O312 1.247 . S
C314 O313 1.208 . S
C315 O320 1.247 . S
C315 O321 1.208 . S
C316 O308 1.315 . S
C316 O311 1.279 . S
C317 O318 1.315 . S
C317 O319 1.279 . S
O318 Cd310 2.223 . S
O318 C317 1.315 . S
O319 Cd309 2.240 . S
O319 C317 1.279 . S
O320 Cd310 2.297 . S
O320 C315 1.247 . S
O321 Cd310 2.439 . S
O321 C315 1.208 . S
O322 Cd323 2.223 . S
O322 C330 1.315 . S
Cd323 O322 2.223 . S
Cd323 O326 2.297 . S
Cd323 O327 2.439 . S
Cd323 O333 2.240 . S
Cd324 O325 2.240 . S
Cd324 O332 2.223 . S
Cd324 O334 2.297 1_655 S
Cd324 O335 2.439 . S
O325 Cd324 2.240 . S
O325 C330 1.279 . S
O326 Cd323 2.297 . S
O326 C328 1.247 . S
O327 Cd323 2.439 . S
O327 C328 1.208 . S
C328 O326 1.247 . S
C328 O327 1.208 . S
C329 O334 1.247 1_655 S
C329 O335 1.208 . S
C330 O322 1.315 . S
C330 O325 1.279 . S
C331 O332 1.315 . S
C331 O333 1.279 . S
O332 Cd324 2.223 . S
O332 C331 1.315 . S
O333 Cd323 2.240 . S
O333 C331 1.279 . S
O334 Cd324 2.297 1_455 S
O334 C329 1.247 1_455 S
O335 Cd324 2.439 . S
O335 C329 1.208 . S
O336 Cd337 2.223 . S
O336 C344 1.315 . S
Cd337 O336 2.223 . S
Cd337 O340 2.297 . S
Cd337 O341 2.439 . S
Cd337 O347 2.240 . S
Cd338 O339 2.240 . S
Cd338 O346 2.223 . S
Cd338 O348 2.297 . S
Cd338 O349 2.439 . S
O339 Cd338 2.240 . S
O339 C344 1.279 . S
O340 Cd337 2.297 . S
O340 C342 1.247 . S
O341 Cd337 2.439 . S
O341 C342 1.208 . S
C342 O340 1.247 . S
C342 O341 1.208 . S
C343 O348 1.247 . S
C343 O349 1.208 . S
C344 O336 1.315 . S
C344 O339 1.279 . S
C345 O346 1.315 . S
C345 O347 1.279 . S
O346 Cd338 2.223 . S
O346 C345 1.315 . S
O347 Cd337 2.240 . S
O347 C345 1.279 . S
O348 Cd338 2.297 . S
O348 C343 1.247 . S
O349 Cd338 2.439 . S
O349 C343 1.208 . S
O350 Cd351 2.223 . S
O350 C358 1.315 . S
Cd351 O350 2.223 . S
Cd351 O354 2.297 . S
Cd351 O355 2.439 . S
Cd351 O361 2.240 . S
Cd352 O353 2.240 . S
Cd352 O360 2.223 . S
Cd352 O362 2.297 . S
Cd352 O363 2.439 . S
O353 Cd352 2.240 . S
O353 C358 1.279 . S
O354 Cd351 2.297 . S
O354 C356 1.247 . S
O355 Cd351 2.439 . S
O355 C356 1.208 . S
C356 O354 1.247 . S
C356 O355 1.208 . S
C357 O362 1.247 . S
C357 O363 1.208 . S
C358 O350 1.315 . S
C358 O353 1.279 . S
C359 O360 1.315 . S
C359 O361 1.279 . S
O360 Cd352 2.223 . S
O360 C359 1.315 . S
O361 Cd351 2.240 . S
O361 C359 1.279 . S
O362 Cd352 2.297 . S
O362 C357 1.247 . S
O363 Cd352 2.439 . S
O363 C357 1.208 . S
O364 Cd365 2.223 . S
O364 C372 1.315 . S
Cd365 O364 2.223 . S
Cd365 O368 2.297 . S
Cd365 O369 2.439 . S
Cd365 O375 2.240 . S
Cd366 O367 2.240 . S
Cd366 O374 2.223 . S
Cd366 O376 2.297 . S
Cd366 O377 2.439 . S
O367 Cd366 2.240 . S
O367 C372 1.279 . S
O368 Cd365 2.297 . S
O368 C370 1.247 . S
O369 Cd365 2.439 . S
O369 C370 1.208 . S
C370 O368 1.247 . S
C370 O369 1.208 . S
C371 O376 1.247 . S
C371 O377 1.208 . S
C372 O364 1.315 . S
C372 O367 1.279 . S
C373 O374 1.315 . S
C373 O375 1.279 . S
O374 Cd366 2.223 . S
O374 C373 1.315 . S
O375 Cd365 2.240 . S
O375 C373 1.279 . S
O376 Cd366 2.297 . S
O376 C371 1.247 . S
O377 Cd366 2.439 . S
O377 C371 1.208 . S
O378 Cd379 2.223 . S
O378 C386 1.315 . S
Cd379 O378 2.223 . S
Cd379 O382 2.297 . S
Cd379 O383 2.439 . S
Cd379 O389 2.240 . S
Cd380 O381 2.240 . S
Cd380 O388 2.223 . S
Cd380 O390 2.297 . S
Cd380 O391 2.439 . S
O381 Cd380 2.240 . S
O381 C386 1.279 . S
O382 Cd379 2.297 . S
O382 C384 1.247 . S
O383 Cd379 2.439 . S
O383 C384 1.208 . S
C384 O382 1.247 . S
C384 O383 1.208 . S
C385 O390 1.247 . S
C385 O391 1.208 . S
C386 O378 1.315 . S
C386 O381 1.279 . S
C387 O388 1.315 . S
C387 O389 1.279 . S
O388 Cd380 2.223 . S
O388 C387 1.315 . S
O389 Cd379 2.240 . S
O389 C387 1.279 . S
O390 Cd380 2.297 . S
O390 C385 1.247 . S
O391 Cd380 2.439 . S
O391 C385 1.208 . S
O392 Cd393 2.223 . S
O392 C400 1.315 . S
Cd393 O392 2.223 . S
Cd393 O396 2.297 . S
Cd393 O397 2.439 . S
Cd393 O403 2.240 . S
Cd394 O395 2.240 . S
Cd394 O402 2.223 . S
Cd394 O404 2.297 1_565 S
Cd394 O405 2.439 . S
O395 Cd394 2.240 . S
O395 C400 1.279 . S
O396 Cd393 2.297 . S
O396 C398 1.247 . S
O397 Cd393 2.439 . S
O397 C398 1.208 . S
C398 O396 1.247 . S
C398 O397 1.208 . S
C399 O404 1.247 1_565 S
C399 O405 1.208 . S
C400 O392 1.315 . S
C400 O395 1.279 . S
C401 O402 1.315 . S
C401 O403 1.279 . S
O402 Cd394 2.223 . S
O402 C401 1.315 . S
O403 Cd393 2.240 . S
O403 C401 1.279 . S
O404 Cd394 2.297 1_545 S
O404 C399 1.247 1_545 S
O405 Cd394 2.439 . S
O405 C399 1.208 . S
O406 Cd407 2.223 . S
O406 C414 1.315 . S
Cd407 O406 2.223 . S
Cd407 O410 2.297 . S
Cd407 O411 2.439 . S
Cd407 O417 2.240 . S
Cd408 O409 2.240 . S
Cd408 O416 2.223 . S
Cd408 O418 2.297 . S
Cd408 O419 2.439 . S
O409 Cd408 2.240 . S
O409 C414 1.279 . S
O410 Cd407 2.297 . S
O410 C412 1.247 . S
O411 Cd407 2.439 . S
O411 C412 1.208 . S
C412 O410 1.247 . S
C412 O411 1.208 . S
C413 O418 1.247 . S
C413 O419 1.208 . S
C414 O406 1.315 . S
C414 O409 1.279 . S
C415 O416 1.315 . S
C415 O417 1.279 . S
O416 Cd408 2.223 . S
O416 C415 1.315 . S
O417 Cd407 2.240 . S
O417 C415 1.279 . S
O418 Cd408 2.297 . S
O418 C413 1.247 . S
O419 Cd408 2.439 . S
O419 C413 1.208 . S
O420 Cd421 2.223 . S
O420 C428 1.315 . S
Cd421 O420 2.223 . S
Cd421 O424 2.297 . S
Cd421 O425 2.439 . S
Cd421 O431 2.240 . S
Cd422 O423 2.240 . S
Cd422 O430 2.223 . S
Cd422 O432 2.297 . S
Cd422 O433 2.439 . S
O423 Cd422 2.240 . S
O423 C428 1.279 . S
O424 Cd421 2.297 . S
O424 C426 1.247 . S
O425 Cd421 2.439 . S
O425 C426 1.208 . S
C426 O424 1.247 . S
C426 O425 1.208 . S
C427 O432 1.247 . S
C427 O433 1.208 . S
C428 O420 1.315 . S
C428 O423 1.279 . S
C429 O430 1.315 . S
C429 O431 1.279 . S
O430 Cd422 2.223 . S
O430 C429 1.315 . S
O431 Cd421 2.240 . S
O431 C429 1.279 . S
O432 Cd422 2.297 . S
O432 C427 1.247 . S
O433 Cd422 2.439 . S
O433 C427 1.208 . S
O434 Cd435 2.223 . S
O434 C442 1.315 . S
Cd435 O434 2.223 . S
Cd435 O438 2.297 . S
Cd435 O439 2.439 . S
Cd435 O445 2.240 . S
Cd436 O437 2.240 . S
Cd436 O444 2.223 . S
Cd436 O446 2.297 1_565 S
Cd436 O447 2.439 . S
O437 Cd436 2.240 . S
O437 C442 1.279 . S
O438 Cd435 2.297 . S
O438 C440 1.247 . S
O439 Cd435 2.439 . S
O439 C440 1.208 . S
C440 O438 1.247 . S
C440 O439 1.208 . S
C441 O446 1.247 1_565 S
C441 O447 1.208 . S
C442 O434 1.315 . S
C442 O437 1.279 . S
C443 O444 1.315 . S
C443 O445 1.279 . S
O444 Cd436 2.223 . S
O444 C443 1.315 . S
O445 Cd435 2.240 . S
O445 C443 1.279 . S
O446 Cd436 2.297 1_545 S
O446 C441 1.247 1_545 S
O447 Cd436 2.439 . S
O447 C441 1.208 . S
O448 Cd449 2.223 . S
O448 C456 1.315 . S
Cd449 O448 2.223 . S
Cd449 O452 2.297 . S
Cd449 O453 2.439 . S
Cd449 O459 2.240 . S
Cd450 O451 2.240 . S
Cd450 O458 2.223 . S
Cd450 O460 2.297 . S
Cd450 O461 2.439 . S
O451 Cd450 2.240 . S
O451 C456 1.279 . S
O452 Cd449 2.297 . S
O452 C454 1.247 . S
O453 Cd449 2.439 . S
O453 C454 1.208 . S
C454 O452 1.247 . S
C454 O453 1.208 . S
C455 O460 1.247 . S
C455 O461 1.208 . S
C456 O448 1.315 . S
C456 O451 1.279 . S
C457 O458 1.315 . S
C457 O459 1.279 . S
O458 Cd450 2.223 . S
O458 C457 1.315 . S
O459 Cd449 2.240 . S
O459 C457 1.279 . S
O460 Cd450 2.297 . S
O460 C455 1.247 . S
O461 Cd450 2.439 . S
O461 C455 1.208 . S
O462 Cd463 2.223 . S
O462 C470 1.315 . S
Cd463 O462 2.223 . S
Cd463 O466 2.297 . S
Cd463 O467 2.439 . S
Cd463 O473 2.240 . S
Cd464 O465 2.240 . S
Cd464 O472 2.223 . S
Cd464 O474 2.297 . S
Cd464 O475 2.439 . S
O465 Cd464 2.240 . S
O465 C470 1.279 . S
O466 Cd463 2.297 . S
O466 C468 1.247 . S
O467 Cd463 2.439 . S
O467 C468 1.208 . S
C468 O466 1.247 . S
C468 O467 1.208 . S
C469 O474 1.247 . S
C469 O475 1.208 . S
C470 O462 1.315 . S
C470 O465 1.279 . S
C471 O472 1.315 . S
C471 O473 1.279 . S
O472 Cd464 2.223 . S
O472 C471 1.315 . S
O473 Cd463 2.240 . S
O473 C471 1.279 . S
O474 Cd464 2.297 . S
O474 C469 1.247 . S
O475 Cd464 2.439 . S
O475 C469 1.208 . S
O476 Cd477 2.223 . S
O476 C484 1.315 . S
Cd477 O476 2.223 . S
Cd477 O480 2.297 . S
Cd477 O481 2.439 . S
Cd477 O487 2.240 . S
Cd478 O479 2.240 . S
Cd478 O486 2.223 . S
Cd478 O488 2.297 . S
Cd478 O489 2.439 . S
O479 Cd478 2.240 . S
O479 C484 1.279 . S
O480 Cd477 2.297 . S
O480 C482 1.247 . S
O481 Cd477 2.439 . S
O481 C482 1.208 . S
C482 O480 1.247 . S
C482 O481 1.208 . S
C483 O488 1.247 . S
C483 O489 1.208 . S
C484 O476 1.315 . S
C484 O479 1.279 . S
C485 O486 1.315 . S
C485 O487 1.279 . S
O486 Cd478 2.223 . S
O486 C485 1.315 . S
O487 Cd477 2.240 . S
O487 C485 1.279 . S
O488 Cd478 2.297 . S
O488 C483 1.247 . S
O489 Cd478 2.439 . S
O489 C483 1.208 . S
O490 Cd491 2.223 . S
O490 C498 1.315 . S
Cd491 O490 2.223 . S
Cd491 O494 2.297 . S
Cd491 O495 2.439 . S
Cd491 O501 2.240 . S
Cd492 O493 2.240 . S
Cd492 O500 2.223 . S
Cd492 O502 2.297 . S
Cd492 O503 2.439 . S
O493 Cd492 2.240 . S
O493 C498 1.279 . S
O494 Cd491 2.297 . S
O494 C496 1.247 . S
O495 Cd491 2.439 . S
O495 C496 1.208 . S
C496 O494 1.247 . S
C496 O495 1.208 . S
C497 O502 1.247 . S
C497 O503 1.208 . S
C498 O490 1.315 . S
C498 O493 1.279 . S
C499 O500 1.315 . S
C499 O501 1.279 . S
O500 Cd492 2.223 . S
O500 C499 1.315 . S
O501 Cd491 2.240 . S
O501 C499 1.279 . S
O502 Cd492 2.297 . S
O502 C497 1.247 . S
O503 Cd492 2.439 . S
O503 C497 1.208 . S
H504 C510 0.930 . S
H505 C513 0.930 . S
H506 C514 0.930 . S
H507 C515 0.930 . S
H508 C518 0.930 . S
H509 C519 0.930 . S
C510 H504 0.930 . S
C510 C511 1.355 . S
C510 C512 1.415 . S
C511 C510 1.355 . S
C511 C513 1.419 . S
C512 C510 1.415 . S
C512 C517 1.425 . S
C512 C519 1.409 . S
C513 H505 0.930 . S
C513 C511 1.419 . S
C513 C514 1.362 . S
C514 H506 0.930 . S
C514 C513 1.362 . S
C514 C517 1.409 . S
C515 H507 0.930 . S
C515 C516 1.355 . S
C515 C517 1.415 . S
C516 C515 1.355 . S
C516 C518 1.419 . S
C517 C512 1.425 . S
C517 C514 1.409 . S
C517 C515 1.415 . S
C518 H508 0.930 . S
C518 C516 1.419 . S
C518 C519 1.362 . S
C519 H509 0.930 . S
C519 C512 1.409 . S
C519 C518 1.362 . S
H520 C526 0.930 . S
H521 C529 0.930 . S
H522 C530 0.930 . S
H523 C531 0.930 . S
H524 C534 0.930 . S
H525 C535 0.930 . S
C526 H520 0.930 . S
C526 C527 1.355 . S
C526 C528 1.415 . S
C527 C526 1.355 . S
C527 C529 1.419 . S
C528 C526 1.415 . S
C528 C533 1.425 . S
C528 C535 1.409 . S
C529 H521 0.930 . S
C529 C527 1.419 . S
C529 C530 1.362 . S
C530 H522 0.930 . S
C530 C529 1.362 . S
C530 C533 1.409 . S
C531 H523 0.930 . S
C531 C532 1.355 . S
C531 C533 1.415 . S
C532 C531 1.355 . S
C532 C534 1.419 . S
C533 C528 1.425 . S
C533 C530 1.409 . S
C533 C531 1.415 . S
C534 H524 0.930 . S
C534 C532 1.419 . S
C534 C535 1.362 . S
C535 H525 0.930 . S
C535 C528 1.409 . S
C535 C534 1.362 . S
H536 C542 0.930 . S
H537 C545 0.930 . S
H538 C546 0.930 . S
H539 C547 0.930 . S
H540 C550 0.930 . S
H541 C551 0.930 . S
C542 H536 0.930 . S
C542 C543 1.355 . S
C542 C544 1.415 . S
C543 C542 1.355 . S
C543 C545 1.419 . S
C544 C542 1.415 . S
C544 C549 1.425 . S
C544 C551 1.409 . S
C545 H537 0.930 . S
C545 C543 1.419 . S
C545 C546 1.362 . S
C546 H538 0.930 . S
C546 C545 1.362 . S
C546 C549 1.409 . S
C547 H539 0.930 . S
C547 C548 1.355 . S
C547 C549 1.415 . S
C548 C547 1.355 . S
C548 C550 1.419 . S
C549 C544 1.425 . S
C549 C546 1.409 . S
C549 C547 1.415 . S
C550 H540 0.930 . S
C550 C548 1.419 . S
C550 C551 1.362 . S
C551 H541 0.930 . S
C551 C544 1.409 . S
C551 C550 1.362 . S
H552 C558 0.930 . S
H553 C561 0.930 . S
H554 C562 0.930 . S
H555 C563 0.930 . S
H556 C566 0.930 . S
H557 C567 0.930 . S
C558 H552 0.930 . S
C558 C559 1.355 . S
C558 C560 1.415 . S
C559 C558 1.355 . S
C559 C561 1.419 . S
C560 C558 1.415 . S
C560 C565 1.425 . S
C560 C567 1.409 . S
C561 H553 0.930 . S
C561 C559 1.419 . S
C561 C562 1.362 . S
C562 H554 0.930 . S
C562 C561 1.362 . S
C562 C565 1.409 . S
C563 H555 0.930 . S
C563 C564 1.355 . S
C563 C565 1.415 . S
C564 C563 1.355 . S
C564 C566 1.419 . S
C565 C560 1.425 . S
C565 C562 1.409 . S
C565 C563 1.415 . S
C566 H556 0.930 . S
C566 C564 1.419 . S
C566 C567 1.362 . S
C567 H557 0.930 . S
C567 C560 1.409 . S
C567 C566 1.362 . S
H568 C574 0.930 . S
H569 C577 0.930 . S
H570 C578 0.930 . S
H571 C579 0.930 . S
H572 C582 0.930 . S
H573 C583 0.930 . S
C574 H568 0.930 . S
C574 C575 1.355 . S
C574 C576 1.415 . S
C575 C574 1.355 . S
C575 C577 1.419 . S
C576 C574 1.415 . S
C576 C581 1.425 . S
C576 C583 1.409 . S
C577 H569 0.930 . S
C577 C575 1.419 . S
C577 C578 1.362 . S
C578 H570 0.930 . S
C578 C577 1.362 . S
C578 C581 1.409 . S
C579 H571 0.930 . S
C579 C580 1.355 . S
C579 C581 1.415 . S
C580 C579 1.355 . S
C580 C582 1.419 . S
C581 C576 1.425 . S
C581 C578 1.409 . S
C581 C579 1.415 . S
C582 H572 0.930 . S
C582 C580 1.419 . S
C582 C583 1.362 . S
C583 H573 0.930 . S
C583 C576 1.409 . S
C583 C582 1.362 . S
H584 C590 0.930 . S
H585 C593 0.930 . S
H586 C594 0.930 . S
H587 C595 0.930 . S
H588 C598 0.930 . S
H589 C599 0.930 . S
C590 H584 0.930 . S
C590 C591 1.355 . S
C590 C592 1.415 . S
C591 C590 1.355 . S
C591 C593 1.419 . S
C592 C590 1.415 . S
C592 C597 1.425 . S
C592 C599 1.409 . S
C593 H585 0.930 . S
C593 C591 1.419 . S
C593 C594 1.362 . S
C594 H586 0.930 . S
C594 C593 1.362 . S
C594 C597 1.409 . S
C595 H587 0.930 . S
C595 C596 1.355 . S
C595 C597 1.415 . S
C596 C595 1.355 . S
C596 C598 1.419 . S
C597 C592 1.425 . S
C597 C594 1.409 . S
C597 C595 1.415 . S
C598 H588 0.930 . S
C598 C596 1.419 . S
C598 C599 1.362 . S
C599 H589 0.930 . S
C599 C592 1.409 . S
C599 C598 1.362 . S
H600 C606 0.930 . S
H601 C609 0.930 . S
H602 C610 0.930 . S
H603 C611 0.930 . S
H604 C614 0.930 . S
H605 C615 0.930 . S
C606 H600 0.930 . S
C606 C607 1.355 . S
C606 C608 1.415 . S
C607 C606 1.355 . S
C607 C609 1.419 . S
C608 C606 1.415 . S
C608 C613 1.425 . S
C608 C615 1.409 . S
C609 H601 0.930 . S
C609 C607 1.419 . S
C609 C610 1.362 . S
C610 H602 0.930 . S
C610 C609 1.362 . S
C610 C613 1.409 . S
C611 H603 0.930 . S
C611 C612 1.355 . S
C611 C613 1.415 . S
C612 C611 1.355 . S
C612 C614 1.419 . S
C613 C608 1.425 . S
C613 C610 1.409 . S
C613 C611 1.415 . S
C614 H604 0.930 . S
C614 C612 1.419 . S
C614 C615 1.362 . S
C615 H605 0.930 . S
C615 C608 1.409 . S
C615 C614 1.362 . S
H616 C622 0.930 . S
H617 C625 0.930 . S
H618 C626 0.930 . S
H619 C627 0.930 . S
H620 C630 0.930 . S
H621 C631 0.930 . S
C622 H616 0.930 . S
C622 C623 1.355 . S
C622 C624 1.415 . S
C623 C622 1.355 . S
C623 C625 1.419 . S
C624 C622 1.415 . S
C624 C629 1.425 . S
C624 C631 1.409 . S
C625 H617 0.930 . S
C625 C623 1.419 . S
C625 C626 1.362 . S
C626 H618 0.930 . S
C626 C625 1.362 . S
C626 C629 1.409 . S
C627 H619 0.930 . S
C627 C628 1.355 . S
C627 C629 1.415 . S
C628 C627 1.355 . S
C628 C630 1.419 . S
C629 C624 1.425 . S
C629 C626 1.409 . S
C629 C627 1.415 . S
C630 H620 0.930 . S
C630 C628 1.419 . S
C630 C631 1.362 . S
C631 H621 0.930 . S
C631 C624 1.409 . S
C631 C630 1.362 . S
H632 C638 0.930 . S
H633 C641 0.930 . S
H634 C642 0.930 . S
H635 C643 0.930 . S
H636 C646 0.930 . S
H637 C647 0.930 . S
C638 H632 0.930 . S
C638 C639 1.355 . S
C638 C640 1.415 . S
C639 C638 1.355 . S
C639 C641 1.419 . S
C640 C638 1.415 . S
C640 C645 1.425 . S
C640 C647 1.409 . S
C641 H633 0.930 . S
C641 C639 1.419 . S
C641 C642 1.362 . S
C642 H634 0.930 . S
C642 C641 1.362 . S
C642 C645 1.409 . S
C643 H635 0.930 . S
C643 C644 1.355 . S
C643 C645 1.415 . S
C644 C643 1.355 . S
C644 C646 1.419 . S
C645 C640 1.425 . S
C645 C642 1.409 . S
C645 C643 1.415 . S
C646 H636 0.930 . S
C646 C644 1.419 . S
C646 C647 1.362 . S
C647 H637 0.930 . S
C647 C640 1.409 . S
C647 C646 1.362 . S
H648 C654 0.930 . S
H649 C657 0.930 . S
H650 C658 0.930 . S
H651 C659 0.930 . S
H652 C662 0.930 1_455 S
H653 C663 0.930 1_455 S
C654 H648 0.930 . S
C654 C655 1.355 . S
C654 C656 1.415 . S
C655 C654 1.355 . S
C655 C657 1.419 . S
C656 C654 1.415 . S
C656 C661 1.425 . S
C656 C663 1.409 . S
C657 H649 0.930 . S
C657 C655 1.419 . S
C657 C658 1.362 . S
C658 H650 0.930 . S
C658 C657 1.362 . S
C658 C661 1.409 . S
C659 H651 0.930 . S
C659 C660 1.355 . S
C659 C661 1.415 . S
C660 C659 1.355 . S
C660 C662 1.419 . S
C661 C656 1.425 . S
C661 C658 1.409 . S
C661 C659 1.415 . S
C662 H652 0.930 1_655 S
C662 C660 1.419 . S
C662 C663 1.362 . S
C663 H653 0.930 1_655 S
C663 C656 1.409 . S
C663 C662 1.362 . S
H664 C670 0.930 . S
H665 C673 0.930 . S
H666 C674 0.930 . S
H667 C675 0.930 . S
H668 C678 0.930 . S
H669 C679 0.930 . S
C670 H664 0.930 . S
C670 C671 1.355 . S
C670 C672 1.415 . S
C671 C670 1.355 . S
C671 C673 1.419 . S
C672 C670 1.415 . S
C672 C677 1.425 . S
C672 C679 1.409 . S
C673 H665 0.930 . S
C673 C671 1.419 . S
C673 C674 1.362 . S
C674 H666 0.930 . S
C674 C673 1.362 . S
C674 C677 1.409 . S
C675 H667 0.930 . S
C675 C676 1.355 . S
C675 C677 1.415 . S
C676 C675 1.355 . S
C676 C678 1.419 . S
C677 C672 1.425 . S
C677 C674 1.409 . S
C677 C675 1.415 . S
C678 H668 0.930 . S
C678 C676 1.419 . S
C678 C679 1.362 . S
C679 H669 0.930 . S
C679 C672 1.409 . S
C679 C678 1.362 . S
H680 C686 0.930 . S
H681 C689 0.930 . S
H682 C690 0.930 . S
H683 C691 0.930 . S
H684 C694 0.930 . S
H685 C695 0.930 . S
C686 H680 0.930 . S
C686 C687 1.355 . S
C686 C688 1.415 . S
C687 C686 1.355 . S
C687 C689 1.419 . S
C688 C686 1.415 . S
C688 C693 1.425 . S
C688 C695 1.409 . S
C689 H681 0.930 . S
C689 C687 1.419 . S
C689 C690 1.362 . S
C690 H682 0.930 . S
C690 C689 1.362 . S
C690 C693 1.409 . S
C691 H683 0.930 . S
C691 C692 1.355 . S
C691 C693 1.415 . S
C692 C691 1.355 . S
C692 C694 1.419 . S
C693 C688 1.425 . S
C693 C690 1.409 . S
C693 C691 1.415 . S
C694 H684 0.930 . S
C694 C692 1.419 . S
C694 C695 1.362 . S
C695 H685 0.930 . S
C695 C688 1.409 . S
C695 C694 1.362 . S
H696 C702 0.930 . S
H697 C705 0.930 . S
H698 C706 0.930 . S
H699 C707 0.930 . S
H700 C710 0.930 . S
H701 C711 0.930 . S
C702 H696 0.930 . S
C702 C703 1.355 . S
C702 C704 1.415 . S
C703 C702 1.355 . S
C703 C705 1.419 . S
C704 C702 1.415 . S
C704 C709 1.425 . S
C704 C711 1.409 . S
C705 H697 0.930 . S
C705 C703 1.419 . S
C705 C706 1.362 . S
C706 H698 0.930 . S
C706 C705 1.362 . S
C706 C709 1.409 . S
C707 H699 0.930 . S
C707 C708 1.355 . S
C707 C709 1.415 . S
C708 C707 1.355 . S
C708 C710 1.419 . S
C709 C704 1.425 . S
C709 C706 1.409 . S
C709 C707 1.415 . S
C710 H700 0.930 . S
C710 C708 1.419 . S
C710 C711 1.362 . S
C711 H701 0.930 . S
C711 C704 1.409 . S
C711 C710 1.362 . S
H712 C718 0.930 . S
H713 C721 0.930 . S
H714 C722 0.930 . S
H715 C723 0.930 . S
H716 C726 0.930 . S
H717 C727 0.930 . S
C718 H712 0.930 . S
C718 C719 1.355 . S
C718 C720 1.415 . S
C719 C718 1.355 . S
C719 C721 1.419 . S
C720 C718 1.415 . S
C720 C725 1.425 . S
C720 C727 1.409 . S
C721 H713 0.930 . S
C721 C719 1.419 . S
C721 C722 1.362 . S
C722 H714 0.930 . S
C722 C721 1.362 . S
C722 C725 1.409 . S
C723 H715 0.930 . S
C723 C724 1.355 . S
C723 C725 1.415 . S
C724 C723 1.355 . S
C724 C726 1.419 . S
C725 C720 1.425 . S
C725 C722 1.409 . S
C725 C723 1.415 . S
C726 H716 0.930 . S
C726 C724 1.419 . S
C726 C727 1.362 . S
C727 H717 0.930 . S
C727 C720 1.409 . S
C727 C726 1.362 . S
H728 C734 0.930 . S
H729 C737 0.930 . S
H730 C738 0.930 . S
H731 C739 0.930 . S
H732 C742 0.930 . S
H733 C743 0.930 . S
C734 H728 0.930 . S
C734 C735 1.355 . S
C734 C736 1.415 . S
C735 C734 1.355 . S
C735 C737 1.419 . S
C736 C734 1.415 . S
C736 C741 1.425 . S
C736 C743 1.409 . S
C737 H729 0.930 . S
C737 C735 1.419 . S
C737 C738 1.362 . S
C738 H730 0.930 . S
C738 C737 1.362 . S
C738 C741 1.409 . S
C739 H731 0.930 . S
C739 C740 1.355 . S
C739 C741 1.415 . S
C740 C739 1.355 . S
C740 C742 1.419 . S
C741 C736 1.425 . S
C741 C738 1.409 . S
C741 C739 1.415 . S
C742 H732 0.930 . S
C742 C740 1.419 . S
C742 C743 1.362 . S
C743 H733 0.930 . S
C743 C736 1.409 . S
C743 C742 1.362 . S
H744 C750 0.930 . S
H745 C753 0.930 . S
H746 C754 0.930 . S
H747 C755 0.930 . S
H748 C758 0.930 . S
H749 C759 0.930 . S
C750 H744 0.930 . S
C750 C751 1.355 . S
C750 C752 1.415 . S
C751 C750 1.355 . S
C751 C753 1.419 . S
C752 C750 1.415 . S
C752 C757 1.425 . S
C752 C759 1.409 . S
C753 H745 0.930 . S
C753 C751 1.419 . S
C753 C754 1.362 . S
C754 H746 0.930 . S
C754 C753 1.362 . S
C754 C757 1.409 . S
C755 H747 0.930 . S
C755 C756 1.355 . S
C755 C757 1.415 . S
C756 C755 1.355 . S
C756 C758 1.419 . S
C757 C752 1.425 . S
C757 C754 1.409 . S
C757 C755 1.415 . S
C758 H748 0.930 . S
C758 C756 1.419 . S
C758 C759 1.362 . S
C759 H749 0.930 . S
C759 C752 1.409 . S
C759 C758 1.362 . S
H760 C766 0.930 . S
H761 C769 0.930 . S
H762 C770 0.930 . S
H763 C771 0.930 . S
H764 C774 0.930 . S
H765 C775 0.930 . S
C766 H760 0.930 . S
C766 C767 1.355 . S
C766 C768 1.415 . S
C767 C766 1.355 . S
C767 C769 1.419 . S
C768 C766 1.415 . S
C768 C773 1.425 . S
C768 C775 1.409 . S
C769 H761 0.930 . S
C769 C767 1.419 . S
C769 C770 1.362 . S
C770 H762 0.930 . S
C770 C769 1.362 . S
C770 C773 1.409 . S
C771 H763 0.930 . S
C771 C772 1.355 . S
C771 C773 1.415 . S
C772 C771 1.355 . S
C772 C774 1.419 . S
C773 C768 1.425 . S
C773 C770 1.409 . S
C773 C771 1.415 . S
C774 H764 0.930 . S
C774 C772 1.419 . S
C774 C775 1.362 . S
C775 H765 0.930 . S
C775 C768 1.409 . S
C775 C774 1.362 . S
H776 C782 0.930 . S
H777 C785 0.930 . S
H778 C786 0.930 . S
H779 C787 0.930 . S
H780 C790 0.930 . S
H781 C791 0.930 . S
C782 H776 0.930 . S
C782 C783 1.355 . S
C782 C784 1.415 . S
C783 C782 1.355 . S
C783 C785 1.419 . S
C784 C782 1.415 . S
C784 C789 1.425 . S
C784 C791 1.409 . S
C785 H777 0.930 . S
C785 C783 1.419 . S
C785 C786 1.362 . S
C786 H778 0.930 . S
C786 C785 1.362 . S
C786 C789 1.409 . S
C787 H779 0.930 . S
C787 C788 1.355 . S
C787 C789 1.415 . S
C788 C787 1.355 . S
C788 C790 1.419 . S
C789 C784 1.425 . S
C789 C786 1.409 . S
C789 C787 1.415 . S
C790 H780 0.930 . S
C790 C788 1.419 . S
C790 C791 1.362 . S
C791 H781 0.930 . S
C791 C784 1.409 . S
C791 C790 1.362 . S
H792 C798 0.930 . S
H793 C801 0.930 . S
H794 C802 0.926 1_455 S
H795 C803 0.930 . S
H796 C806 0.930 . S
H797 C807 0.930 . S
C798 H792 0.930 . S
C798 C799 1.355 1_655 S
C798 C800 1.415 . S
C799 C798 1.355 1_455 S
C799 C801 1.419 . S
C800 C798 1.415 . S
C800 C805 1.425 . S
C800 C807 1.409 . S
C801 H793 0.930 . S
C801 C799 1.419 . S
C801 C802 1.360 1_455 S
C802 H794 0.926 1_655 S
C802 C801 1.360 1_655 S
C802 C805 1.416 . S
C803 H795 0.930 . S
C803 C804 1.355 . S
C803 C805 1.415 . S
C804 C803 1.355 . S
C804 C806 1.419 . S
C805 C800 1.425 . S
C805 C802 1.416 . S
C805 C803 1.415 . S
C806 H796 0.930 . S
C806 C804 1.419 . S
C806 C807 1.362 . S
C807 H797 0.930 . S
C807 C800 1.409 . S
C807 C806 1.362 . S
H808 C814 0.930 . S
H809 C817 0.930 . S
H810 C818 0.930 . S
H811 C819 0.930 . S
H812 C822 0.930 . S
H813 C823 0.930 . S
C814 H808 0.930 . S
C814 C815 1.355 . S
C814 C816 1.415 . S
C815 C814 1.355 . S
C815 C817 1.419 . S
C816 C814 1.415 . S
C816 C821 1.425 . S
C816 C823 1.409 . S
C817 H809 0.930 . S
C817 C815 1.419 . S
C817 C818 1.362 . S
C818 H810 0.930 . S
C818 C817 1.362 . S
C818 C821 1.409 . S
C819 H811 0.930 . S
C819 C820 1.355 . S
C819 C821 1.415 . S
C820 C819 1.355 . S
C820 C822 1.419 . S
C821 C816 1.425 . S
C821 C818 1.409 . S
C821 C819 1.415 . S
C822 H812 0.930 . S
C822 C820 1.419 . S
C822 C823 1.362 . S
C823 H813 0.930 . S
C823 C816 1.409 . S
C823 C822 1.362 . S
H824 C830 0.930 . S
H825 C833 0.930 . S
H826 C834 0.930 . S
H827 C835 0.930 . S
H828 C838 0.930 . S
H829 C839 0.930 . S
C830 H824 0.930 . S
C830 C831 1.355 . S
C830 C832 1.415 . S
C831 C830 1.355 . S
C831 C833 1.419 . S
C832 C830 1.415 . S
C832 C837 1.425 . S
C832 C839 1.409 . S
C833 H825 0.930 . S
C833 C831 1.419 . S
C833 C834 1.362 . S
C834 H826 0.930 . S
C834 C833 1.362 . S
C834 C837 1.409 . S
C835 H827 0.930 . S
C835 C836 1.355 . S
C835 C837 1.415 . S
C836 C835 1.355 . S
C836 C838 1.419 . S
C837 C832 1.425 . S
C837 C834 1.409 . S
C837 C835 1.415 . S
C838 H828 0.930 . S
C838 C836 1.419 . S
C838 C839 1.362 . S
C839 H829 0.930 . S
C839 C832 1.409 . S
C839 C838 1.362 . S
H840 C846 0.930 . S
H841 C849 0.930 . S
H842 C850 0.930 . S
H843 C851 0.931 1_545 S
H844 C854 0.930 . S
H845 C855 0.930 . S
C846 H840 0.930 . S
C846 C847 1.355 1_565 S
C846 C848 1.415 . S
C847 C846 1.355 1_545 S
C847 C849 1.419 . S
C848 C846 1.415 . S
C848 C853 1.425 1_565 S
C848 C855 1.409 . S
C849 H841 0.930 . S
C849 C847 1.419 . S
C849 C850 1.362 . S
C850 H842 0.930 . S
C850 C849 1.362 . S
C850 C853 1.409 . S
C851 H843 0.931 1_565 S
C851 C852 1.352 . S
C851 C853 1.416 1_565 S
C852 C851 1.352 . S
C852 C854 1.419 . S
C853 C848 1.425 1_545 S
C853 C850 1.409 . S
C853 C851 1.416 1_545 S
C854 H844 0.930 . S
C854 C852 1.419 . S
C854 C855 1.362 . S
C855 H845 0.930 . S
C855 C848 1.409 . S
C855 C854 1.362 . S
H856 C862 0.930 . S
H857 C865 0.930 . S
H858 C866 0.930 . S
H859 C867 0.930 . S
H860 C870 0.930 . S
H861 C871 0.930 . S
C862 H856 0.930 . S
C862 C863 1.355 . S
C862 C864 1.415 . S
C863 C862 1.355 . S
C863 C865 1.419 . S
C864 C862 1.415 . S
C864 C869 1.425 . S
C864 C871 1.409 . S
C865 H857 0.930 . S
C865 C863 1.419 . S
C865 C866 1.362 . S
C866 H858 0.930 . S
C866 C865 1.362 . S
C866 C869 1.409 . S
C867 H859 0.930 . S
C867 C868 1.355 . S
C867 C869 1.415 . S
C868 C867 1.355 . S
C868 C870 1.419 . S
C869 C864 1.425 . S
C869 C866 1.409 . S
C869 C867 1.415 . S
C870 H860 0.930 . S
C870 C868 1.419 . S
C870 C871 1.362 . S
C871 H861 0.930 . S
C871 C864 1.409 . S
C871 C870 1.362 . S
H872 C878 0.930 . S
H873 C881 0.930 . S
H874 C882 0.930 . S
H875 C883 0.930 . S
H876 C886 0.930 . S
H877 C887 0.930 . S
C878 H872 0.930 . S
C878 C879 1.355 . S
C878 C880 1.415 . S
C879 C878 1.355 . S
C879 C881 1.419 . S
C880 C878 1.415 . S
C880 C885 1.425 . S
C880 C887 1.409 . S
C881 H873 0.930 . S
C881 C879 1.419 . S
C881 C882 1.362 . S
C882 H874 0.930 . S
C882 C881 1.362 . S
C882 C885 1.409 . S
C883 H875 0.930 . S
C883 C884 1.355 . S
C883 C885 1.415 . S
C884 C883 1.355 . S
C884 C886 1.419 . S
C885 C880 1.425 . S
C885 C882 1.409 . S
C885 C883 1.415 . S
C886 H876 0.930 . S
C886 C884 1.419 . S
C886 C887 1.362 . S
C887 H877 0.930 . S
C887 C880 1.409 . S
C887 C886 1.362 . S
H888 C894 0.930 . S
H889 C897 0.930 . S
H890 C898 0.930 . S
H891 C899 0.930 . S
H892 C902 0.930 . S
H893 C903 0.930 . S
C894 H888 0.930 . S
C894 C895 1.355 . S
C894 C896 1.415 . S
C895 C894 1.355 . S
C895 C897 1.419 . S
C896 C894 1.415 . S
C896 C901 1.425 . S
C896 C903 1.409 . S
C897 H889 0.930 . S
C897 C895 1.419 . S
C897 C898 1.362 . S
C898 H890 0.930 . S
C898 C897 1.362 . S
C898 C901 1.409 . S
C899 H891 0.930 . S
C899 C900 1.355 . S
C899 C901 1.415 . S
C900 C899 1.355 . S
C900 C902 1.419 . S
C901 C896 1.425 . S
C901 C898 1.409 . S
C901 C899 1.415 . S
C902 H892 0.930 . S
C902 C900 1.419 . S
C902 C903 1.362 . S
C903 H893 0.930 . S
C903 C896 1.409 . S
C903 C902 1.362 . S
H904 C910 0.930 . S
H905 C913 0.930 . S
H906 C914 0.930 . S
H907 C915 0.930 . S
H908 C918 0.930 . S
H909 C919 0.930 . S
C910 H904 0.930 . S
C910 C911 1.355 . S
C910 C912 1.415 . S
C911 C910 1.355 . S
C911 C913 1.419 . S
C912 C910 1.415 . S
C912 C917 1.425 . S
C912 C919 1.409 . S
C913 H905 0.930 . S
C913 C911 1.419 . S
C913 C914 1.362 . S
C914 H906 0.930 . S
C914 C913 1.362 . S
C914 C917 1.409 . S
C915 H907 0.930 . S
C915 C916 1.355 . S
C915 C917 1.415 . S
C916 C915 1.355 . S
C916 C918 1.419 . S
C917 C912 1.425 . S
C917 C914 1.409 . S
C917 C915 1.415 . S
C918 H908 0.930 . S
C918 C916 1.419 . S
C918 C919 1.362 . S
C919 H909 0.930 . S
C919 C912 1.409 . S
C919 C918 1.362 . S
H920 C926 0.930 . S
H921 C929 0.930 . S
H922 C930 0.930 . S
H923 C931 0.930 . S
H924 C934 0.930 . S
H925 C935 0.930 . S
C926 H920 0.930 . S
C926 C927 1.347 . S
C926 C928 1.415 1_545 S
C927 C926 1.347 . S
C927 C929 1.430 1_545 S
C928 C926 1.415 1_565 S
C928 C933 1.425 . S
C928 C935 1.409 . S
C929 H921 0.930 . S
C929 C927 1.430 1_565 S
C929 C930 1.362 . S
C930 H922 0.930 . S
C930 C929 1.362 . S
C930 C933 1.409 . S
C931 H923 0.930 . S
C931 C932 1.355 . S
C931 C933 1.415 . S
C932 C931 1.355 . S
C932 C934 1.419 . S
C933 C928 1.425 . S
C933 C930 1.409 . S
C933 C931 1.415 . S
C934 H924 0.930 . S
C934 C932 1.419 . S
C934 C935 1.362 . S
C935 H925 0.930 . S
C935 C928 1.409 . S
C935 C934 1.362 . S
H936 C942 0.930 . S
H937 C945 0.930 . S
H938 C946 0.930 . S
H939 C947 0.930 . S
H940 C950 0.930 . S
H941 C951 0.930 . S
C942 H936 0.930 . S
C942 C943 1.355 . S
C942 C944 1.415 . S
C943 C942 1.355 . S
C943 C945 1.419 . S
C944 C942 1.415 . S
C944 C949 1.425 . S
C944 C951 1.409 . S
C945 H937 0.930 . S
C945 C943 1.419 . S
C945 C946 1.362 . S
C946 H938 0.930 . S
C946 C945 1.362 . S
C946 C949 1.409 . S
C947 H939 0.930 . S
C947 C948 1.355 . S
C947 C949 1.415 . S
C948 C947 1.355 . S
C948 C950 1.419 . S
C949 C944 1.425 . S
C949 C946 1.409 . S
C949 C947 1.415 . S
C950 H940 0.930 . S
C950 C948 1.419 . S
C950 C951 1.362 . S
C951 H941 0.930 . S
C951 C944 1.409 . S
C951 C950 1.362 . S
H952 C958 0.930 . S
H953 C961 0.930 . S
H954 C962 0.930 . S
H955 C963 0.930 1_455 S
H956 C966 0.930 . S
H957 C967 0.930 . S
C958 H952 0.930 . S
C958 C959 1.355 1_655 S
C958 C960 1.415 . S
C959 C958 1.355 1_455 S
C959 C961 1.419 . S
C960 C958 1.415 . S
C960 C965 1.425 . S
C960 C967 1.409 . S
C961 H953 0.930 . S
C961 C959 1.419 . S
C961 C962 1.362 . S
C962 H954 0.930 . S
C962 C961 1.362 . S
C962 C965 1.409 1_455 S
C963 H955 0.930 1_655 S
C963 C964 1.355 . S
C963 C965 1.415 . S
C964 C963 1.355 . S
C964 C966 1.419 . S
C965 C960 1.425 . S
C965 C962 1.409 1_655 S
C965 C963 1.415 . S
C966 H956 0.930 . S
C966 C964 1.419 . S
C966 C967 1.362 . S
C967 H957 0.930 . S
C967 C960 1.409 . S
C967 C966 1.362 . S
H968 C974 0.930 . S
H969 C977 0.930 . S
H970 C978 0.930 . S
H971 C979 0.930 . S
H972 C982 0.930 . S
H973 C983 0.930 . S
C974 H968 0.930 . S
C974 C975 1.355 . S
C974 C976 1.415 . S
C975 C974 1.355 . S
C975 C977 1.419 . S
C976 C974 1.415 . S
C976 C981 1.425 . S
C976 C983 1.409 . S
C977 H969 0.930 . S
C977 C975 1.419 . S
C977 C978 1.362 . S
C978 H970 0.930 . S
C978 C977 1.362 . S
C978 C981 1.409 . S
C979 H971 0.930 . S
C979 C980 1.355 . S
C979 C981 1.415 . S
C980 C979 1.355 . S
C980 C982 1.419 . S
C981 C976 1.425 . S
C981 C978 1.409 . S
C981 C979 1.415 . S
C982 H972 0.930 . S
C982 C980 1.419 . S
C982 C983 1.362 . S
C983 H973 0.930 . S
C983 C976 1.409 . S
C983 C982 1.362 . S
H984 C990 0.930 . S
H985 C993 0.930 . S
H986 C994 0.930 . S
H987 C995 0.930 . S
H988 C998 0.930 . S
H989 C999 0.930 . S
C990 H984 0.930 . S
C990 C991 1.355 . S
C990 C992 1.415 . S
C991 C990 1.355 . S
C991 C993 1.419 . S
C992 C990 1.415 . S
C992 C997 1.425 . S
C992 C999 1.409 . S
C993 H985 0.930 . S
C993 C991 1.419 . S
C993 C994 1.362 . S
C994 H986 0.930 . S
C994 C993 1.362 . S
C994 C997 1.409 . S
C995 H987 0.930 . S
C995 C996 1.355 . S
C995 C997 1.415 . S
C996 C995 1.355 . S
C996 C998 1.419 . S
C997 C992 1.425 . S
C997 C994 1.409 . S
C997 C995 1.415 . S
C998 H988 0.930 . S
C998 C996 1.419 . S
C998 C999 1.362 . S
C999 H989 0.930 . S
C999 C992 1.409 . S
C999 C998 1.362 . S
H1000 C1006 0.930 . S
H1001 C1009 0.930 . S
H1002 C1010 0.930 . S
H1003 C1011 0.930 . S
H1004 C1014 0.930 1_565 S
H1005 C1015 0.930 . S
C1006 H1000 0.930 . S
C1006 C1007 1.355 . S
C1006 C1008 1.415 . S
C1007 C1006 1.355 . S
C1007 C1009 1.419 . S
C1008 C1006 1.415 . S
C1008 C1013 1.425 . S
C1008 C1015 1.409 . S
C1009 H1001 0.930 . S
C1009 C1007 1.419 . S
C1009 C1010 1.362 . S
C1010 H1002 0.930 . S
C1010 C1009 1.362 . S
C1010 C1013 1.409 . S
C1011 H1003 0.930 . S
C1011 C1012 1.355 . S
C1011 C1013 1.415 . S
C1012 C1011 1.355 . S
C1012 C1014 1.419 . S
C1013 C1008 1.425 . S
C1013 C1010 1.409 . S
C1013 C1011 1.415 . S
C1014 H1004 0.930 1_545 S
C1014 C1012 1.419 . S
C1014 C1015 1.362 . S
C1015 H1005 0.930 . S
C1015 C1008 1.409 . S
C1015 C1014 1.362 . S
H1016 C1022 0.930 . S
H1017 C1025 0.930 . S
H1018 C1026 0.930 . S
H1019 C1027 0.930 . S
H1020 C1030 0.930 . S
H1021 C1031 0.930 1_655 S
C1022 H1016 0.930 . S
C1022 C1023 1.355 1_655 S
C1022 C1024 1.415 1_655 S
C1023 C1022 1.355 1_455 S
C1023 C1025 1.419 . S
C1024 C1022 1.415 1_455 S
C1024 C1029 1.425 . S
C1024 C1031 1.409 . S
C1025 H1017 0.930 . S
C1025 C1023 1.419 . S
C1025 C1026 1.362 . S
C1026 H1018 0.930 . S
C1026 C1025 1.362 . S
C1026 C1029 1.409 . S
C1027 H1019 0.930 . S
C1027 C1028 1.355 . S
C1027 C1029 1.415 . S
C1028 C1027 1.355 . S
C1028 C1030 1.419 . S
C1029 C1024 1.425 . S
C1029 C1026 1.409 . S
C1029 C1027 1.415 . S
C1030 H1020 0.930 . S
C1030 C1028 1.419 . S
C1030 C1031 1.362 . S
C1031 H1021 0.930 1_455 S
C1031 C1024 1.409 . S
C1031 C1030 1.362 . S
H1032 C1038 0.930 . S
H1033 C1041 0.930 . S
H1034 C1042 0.930 . S
H1035 C1043 0.930 . S
H1036 C1046 0.930 . S
H1037 C1047 0.930 . S
C1038 H1032 0.930 . S
C1038 C1039 1.355 . S
C1038 C1040 1.415 . S
C1039 C1038 1.355 . S
C1039 C1041 1.419 . S
C1040 C1038 1.415 . S
C1040 C1045 1.425 . S
C1040 C1047 1.409 . S
C1041 H1033 0.930 . S
C1041 C1039 1.419 . S
C1041 C1042 1.362 . S
C1042 H1034 0.930 . S
C1042 C1041 1.362 . S
C1042 C1045 1.409 . S
C1043 H1035 0.930 . S
C1043 C1044 1.355 . S
C1043 C1045 1.415 . S
C1044 C1043 1.355 . S
C1044 C1046 1.419 . S
C1045 C1040 1.425 . S
C1045 C1042 1.409 . S
C1045 C1043 1.415 . S
C1046 H1036 0.930 . S
C1046 C1044 1.419 . S
C1046 C1047 1.362 . S
C1047 H1037 0.930 . S
C1047 C1040 1.409 . S
C1047 C1046 1.362 . S
H1048 C1054 0.930 1_565 S
H1049 C1057 0.930 . S
H1050 C1058 0.930 . S
H1051 C1059 0.930 . S
H1052 C1062 0.930 . S
H1053 C1063 0.930 1_565 S
C1054 H1048 0.930 1_545 S
C1054 C1055 1.355 . S
C1054 C1056 1.415 . S
C1055 C1054 1.355 . S
C1055 C1057 1.419 . S
C1056 C1054 1.415 . S
C1056 C1061 1.425 . S
C1056 C1063 1.409 . S
C1057 H1049 0.930 . S
C1057 C1055 1.419 . S
C1057 C1058 1.362 . S
C1058 H1050 0.930 . S
C1058 C1057 1.362 . S
C1058 C1061 1.409 . S
C1059 H1051 0.930 . S
C1059 C1060 1.355 . S
C1059 C1061 1.415 . S
C1060 C1059 1.355 . S
C1060 C1062 1.419 . S
C1061 C1056 1.425 . S
C1061 C1058 1.409 . S
C1061 C1059 1.415 . S
C1062 H1052 0.930 . S
C1062 C1060 1.419 . S
C1062 C1063 1.362 . S
C1063 H1053 0.930 1_545 S
C1063 C1056 1.409 . S
C1063 C1062 1.362 . S
H1064 C1070 0.930 . S
H1065 C1073 0.930 . S
H1066 C1074 0.930 . S
H1067 C1075 0.930 . S
H1068 C1078 0.930 . S
H1069 C1079 0.930 . S
C1070 H1064 0.930 . S
C1070 C1071 1.355 . S
C1070 C1072 1.415 . S
C1071 C1070 1.355 . S
C1071 C1073 1.419 . S
C1072 C1070 1.415 . S
C1072 C1077 1.425 . S
C1072 C1079 1.409 . S
C1073 H1065 0.930 . S
C1073 C1071 1.419 . S
C1073 C1074 1.362 . S
C1074 H1066 0.930 . S
C1074 C1073 1.362 . S
C1074 C1077 1.409 . S
C1075 H1067 0.930 . S
C1075 C1076 1.355 . S
C1075 C1077 1.415 . S
C1076 C1075 1.355 . S
C1076 C1078 1.419 . S
C1077 C1072 1.425 . S
C1077 C1074 1.409 . S
C1077 C1075 1.415 . S
C1078 H1068 0.930 . S
C1078 C1076 1.419 . S
C1078 C1079 1.362 . S
C1079 H1069 0.930 . S
C1079 C1072 1.409 . S
C1079 C1078 1.362 . S
H1080 C1086 0.930 . S
H1081 C1089 0.930 . S
H1082 C1090 0.930 . S
H1083 C1091 0.930 . S
H1084 C1094 0.930 . S
H1085 C1095 0.930 . S
C1086 H1080 0.930 . S
C1086 C1087 1.355 . S
C1086 C1088 1.415 . S
C1087 C1086 1.355 . S
C1087 C1089 1.419 . S
C1088 C1086 1.415 . S
C1088 C1093 1.425 1_554 S
C1088 C1095 1.409 1_554 S
C1089 H1081 0.930 . S
C1089 C1087 1.419 . S
C1089 C1090 1.362 . S
C1090 H1082 0.930 . S
C1090 C1089 1.362 . S
C1090 C1093 1.409 1_554 S
C1091 H1083 0.930 . S
C1091 C1092 1.355 . S
C1091 C1093 1.415 . S
C1092 C1091 1.355 . S
C1092 C1094 1.419 . S
C1093 C1088 1.425 1_556 S
C1093 C1090 1.409 1_556 S
C1093 C1091 1.415 . S
C1094 H1084 0.930 . S
C1094 C1092 1.419 . S
C1094 C1095 1.362 . S
C1095 H1085 0.930 . S
C1095 C1088 1.409 1_556 S
C1095 C1094 1.362 . S
H1096 C1102 0.930 . S
H1097 C1105 0.930 . S
H1098 C1106 0.930 . S
H1099 C1107 0.930 . S
H1100 C1110 0.930 . S
H1101 C1111 0.930 . S
C1102 H1096 0.930 . S
C1102 C1103 1.355 . S
C1102 C1104 1.415 . S
C1103 C1102 1.355 . S
C1103 C1105 1.419 . S
C1104 C1102 1.415 . S
C1104 C1109 1.425 1_556 S
C1104 C1111 1.409 1_556 S
C1105 H1097 0.930 . S
C1105 C1103 1.419 . S
C1105 C1106 1.362 . S
C1106 H1098 0.930 . S
C1106 C1105 1.362 . S
C1106 C1109 1.409 1_556 S
C1107 H1099 0.930 . S
C1107 C1108 1.355 . S
C1107 C1109 1.415 . S
C1108 C1107 1.355 . S
C1108 C1110 1.419 . S
C1109 C1104 1.425 1_554 S
C1109 C1106 1.409 1_554 S
C1109 C1107 1.415 . S
C1110 H1100 0.930 . S
C1110 C1108 1.419 . S
C1110 C1111 1.362 . S
C1111 H1101 0.930 . S
C1111 C1104 1.409 1_554 S
C1111 C1110 1.362 . S
H1112 C1118 0.930 . S
H1113 C1121 0.930 . S
H1114 C1122 0.930 . S
H1115 C1123 0.930 . S
H1116 C1126 0.930 . S
H1117 C1127 0.930 . S
C1118 H1112 0.930 . S
C1118 C1119 1.355 . S
C1118 C1120 1.415 . S
C1119 C1118 1.355 . S
C1119 C1121 1.419 . S
C1120 C1118 1.415 . S
C1120 C1125 1.425 1_556 S
C1120 C1127 1.409 1_556 S
C1121 H1113 0.930 . S
C1121 C1119 1.419 . S
C1121 C1122 1.362 . S
C1122 H1114 0.930 . S
C1122 C1121 1.362 . S
C1122 C1125 1.409 1_556 S
C1123 H1115 0.930 . S
C1123 C1124 1.355 . S
C1123 C1125 1.415 . S
C1124 C1123 1.355 . S
C1124 C1126 1.419 . S
C1125 C1120 1.425 1_554 S
C1125 C1122 1.409 1_554 S
C1125 C1123 1.415 . S
C1126 H1116 0.930 . S
C1126 C1124 1.419 . S
C1126 C1127 1.362 . S
C1127 H1117 0.930 . S
C1127 C1120 1.409 1_554 S
C1127 C1126 1.362 . S
H1128 C1134 0.930 . S
H1129 C1137 0.930 1_655 S
H1130 C1138 0.930 . S
H1131 C1139 0.930 1_655 S
H1132 C1142 0.930 . S
H1133 C1143 0.930 . S
C1134 H1128 0.930 . S
C1134 C1135 1.355 . S
C1134 C1136 1.415 . S
C1135 C1134 1.355 . S
C1135 C1137 1.419 . S
C1136 C1134 1.415 . S
C1136 C1141 1.425 1_556 S
C1136 C1143 1.409 1_556 S
C1137 H1129 0.930 1_455 S
C1137 C1135 1.419 . S
C1137 C1138 1.362 1_455 S
C1138 H1130 0.930 . S
C1138 C1137 1.362 1_655 S
C1138 C1141 1.409 1_656 S
C1139 H1131 0.930 1_455 S
C1139 C1140 1.355 . S
C1139 C1141 1.415 . S
C1140 C1139 1.355 . S
C1140 C1142 1.419 . S
C1141 C1136 1.425 1_554 S
C1141 C1138 1.409 1_454 S
C1141 C1139 1.415 . S
C1142 H1132 0.930 . S
C1142 C1140 1.419 . S
C1142 C1143 1.362 . S
C1143 H1133 0.930 . S
C1143 C1136 1.409 1_554 S
C1143 C1142 1.362 . S
H1144 C1150 0.930 . S
H1145 C1153 0.930 . S
H1146 C1154 0.930 . S
H1147 C1155 0.930 . S
H1148 C1158 0.930 . S
H1149 C1159 0.930 . S
C1150 H1144 0.930 . S
C1150 C1151 1.355 . S
C1150 C1152 1.415 . S
C1151 C1150 1.355 . S
C1151 C1153 1.419 . S
C1152 C1150 1.415 . S
C1152 C1157 1.425 1_554 S
C1152 C1159 1.409 1_554 S
C1153 H1145 0.930 . S
C1153 C1151 1.419 . S
C1153 C1154 1.362 . S
C1154 H1146 0.930 . S
C1154 C1153 1.362 . S
C1154 C1157 1.409 1_554 S
C1155 H1147 0.930 . S
C1155 C1156 1.355 . S
C1155 C1157 1.415 . S
C1156 C1155 1.355 . S
C1156 C1158 1.419 . S
C1157 C1152 1.425 1_556 S
C1157 C1154 1.409 1_556 S
C1157 C1155 1.415 . S
C1158 H1148 0.930 . S
C1158 C1156 1.419 . S
C1158 C1159 1.362 . S
C1159 H1149 0.930 . S
C1159 C1152 1.409 1_556 S
C1159 C1158 1.362 . S
H1160 C1166 0.930 . S
H1161 C1169 0.908 1_565 S
H1162 C1170 0.946 . S
H1163 C1171 0.930 . S
H1164 C1174 0.930 . S
H1165 C1175 0.930 . S
C1166 H1160 0.930 . S
C1166 C1167 1.355 . S
C1166 C1168 1.415 . S
C1167 C1166 1.355 . S
C1167 C1169 1.419 . S
C1168 C1166 1.415 . S
C1168 C1173 1.425 1_556 S
C1168 C1175 1.409 1_556 S
C1169 H1161 0.908 1_545 S
C1169 C1167 1.419 . S
C1169 C1170 1.362 . S
C1170 H1162 0.946 . S
C1170 C1169 1.362 . S
C1170 C1173 1.409 1_556 S
C1171 H1163 0.930 . S
C1171 C1172 1.355 . S
C1171 C1173 1.415 . S
C1172 C1171 1.355 . S
C1172 C1174 1.419 . S
C1173 C1168 1.425 1_554 S
C1173 C1170 1.409 1_554 S
C1173 C1171 1.415 . S
C1174 H1164 0.930 . S
C1174 C1172 1.419 . S
C1174 C1175 1.362 . S
C1175 H1165 0.930 . S
C1175 C1168 1.409 1_554 S
C1175 C1174 1.362 . S
H1176 C1182 0.930 . S
H1177 C1185 0.930 . S
H1178 C1186 0.930 . S
H1179 C1187 0.930 . S
H1180 C1190 0.930 . S
H1181 C1191 0.930 . S
C1182 H1176 0.930 . S
C1182 C1183 1.355 . S
C1182 C1184 1.415 . S
C1183 C1182 1.355 . S
C1183 C1185 1.419 . S
C1184 C1182 1.415 . S
C1184 C1189 1.425 . S
C1184 C1191 1.409 . S
C1185 H1177 0.930 . S
C1185 C1183 1.419 . S
C1185 C1186 1.362 . S
C1186 H1178 0.930 . S
C1186 C1185 1.362 . S
C1186 C1189 1.409 . S
C1187 H1179 0.930 . S
C1187 C1188 1.355 . S
C1187 C1189 1.415 . S
C1188 C1187 1.355 . S
C1188 C1190 1.419 . S
C1189 C1184 1.425 . S
C1189 C1186 1.409 . S
C1189 C1187 1.415 . S
C1190 H1180 0.930 . S
C1190 C1188 1.419 . S
C1190 C1191 1.362 . S
C1191 H1181 0.930 . S
C1191 C1184 1.409 . S
C1191 C1190 1.362 . S
H1192 C1198 0.930 . S
H1193 C1201 0.930 . S
H1194 C1202 0.930 . S
H1195 C1203 0.930 . S
H1196 C1206 0.930 . S
H1197 C1207 0.930 . S
C1198 H1192 0.930 . S
C1198 C1199 1.355 . S
C1198 C1200 1.415 . S
C1199 C1198 1.355 . S
C1199 C1201 1.419 . S
C1200 C1198 1.415 . S
C1200 C1205 1.425 . S
C1200 C1207 1.409 . S
C1201 H1193 0.930 . S
C1201 C1199 1.419 . S
C1201 C1202 1.362 . S
C1202 H1194 0.930 . S
C1202 C1201 1.362 . S
C1202 C1205 1.409 . S
C1203 H1195 0.930 . S
C1203 C1204 1.355 . S
C1203 C1205 1.415 . S
C1204 C1203 1.355 . S
C1204 C1206 1.419 . S
C1205 C1200 1.425 . S
C1205 C1202 1.409 . S
C1205 C1203 1.415 . S
C1206 H1196 0.930 . S
C1206 C1204 1.419 . S
C1206 C1207 1.362 . S
C1207 H1197 0.930 . S
C1207 C1200 1.409 . S
C1207 C1206 1.362 . S
H1208 C1214 0.930 . S
H1209 C1217 0.930 . S
H1210 C1218 0.930 . S
H1211 C1219 0.930 . S
H1212 C1222 0.930 . S
H1213 C1223 0.930 1_455 S
C1214 H1208 0.930 . S
C1214 C1215 1.355 . S
C1214 C1216 1.415 . S
C1215 C1214 1.355 . S
C1215 C1217 1.419 . S
C1216 C1214 1.415 . S
C1216 C1221 1.425 . S
C1216 C1223 1.409 . S
C1217 H1209 0.930 . S
C1217 C1215 1.419 . S
C1217 C1218 1.362 . S
C1218 H1210 0.930 . S
C1218 C1217 1.362 . S
C1218 C1221 1.409 . S
C1219 H1211 0.930 . S
C1219 C1220 1.355 . S
C1219 C1221 1.415 . S
C1220 C1219 1.355 . S
C1220 C1222 1.419 . S
C1221 C1216 1.425 . S
C1221 C1218 1.409 . S
C1221 C1219 1.415 . S
C1222 H1212 0.930 . S
C1222 C1220 1.419 . S
C1222 C1223 1.362 . S
C1223 H1213 0.930 1_655 S
C1223 C1216 1.409 . S
C1223 C1222 1.362 . S
H1224 C1230 0.930 . S
H1225 C1233 0.930 . S
H1226 C1234 0.930 . S
H1227 C1235 0.930 . S
H1228 C1238 0.930 . S
H1229 C1239 0.930 . S
C1230 H1224 0.930 . S
C1230 C1231 1.355 . S
C1230 C1232 1.415 . S
C1231 C1230 1.355 . S
C1231 C1233 1.419 . S
C1232 C1230 1.415 . S
C1232 C1237 1.425 . S
C1232 C1239 1.409 . S
C1233 H1225 0.930 . S
C1233 C1231 1.419 . S
C1233 C1234 1.362 . S
C1234 H1226 0.930 . S
C1234 C1233 1.362 . S
C1234 C1237 1.409 . S
C1235 H1227 0.930 . S
C1235 C1236 1.355 . S
C1235 C1237 1.415 . S
C1236 C1235 1.355 . S
C1236 C1238 1.419 . S
C1237 C1232 1.425 . S
C1237 C1234 1.409 . S
C1237 C1235 1.415 . S
C1238 H1228 0.930 . S
C1238 C1236 1.419 . S
C1238 C1239 1.362 . S
C1239 H1229 0.930 . S
C1239 C1232 1.409 . S
C1239 C1238 1.362 . S
H1240 C1246 0.930 . S
H1241 C1249 0.930 . S
H1242 C1250 0.930 . S
H1243 C1251 0.930 . S
H1244 C1254 0.930 . S
H1245 C1255 0.930 . S
C1246 H1240 0.930 . S
C1246 C1247 1.355 . S
C1246 C1248 1.415 . S
C1247 C1246 1.355 . S
C1247 C1249 1.419 . S
C1248 C1246 1.415 . S
C1248 C1253 1.425 . S
C1248 C1255 1.409 . S
C1249 H1241 0.930 . S
C1249 C1247 1.419 . S
C1249 C1250 1.362 . S
C1250 H1242 0.930 . S
C1250 C1249 1.362 . S
C1250 C1253 1.409 . S
C1251 H1243 0.930 . S
C1251 C1252 1.355 . S
C1251 C1253 1.415 . S
C1252 C1251 1.355 . S
C1252 C1254 1.419 . S
C1253 C1248 1.425 . S
C1253 C1250 1.409 . S
C1253 C1251 1.415 . S
C1254 H1244 0.930 . S
C1254 C1252 1.419 . S
C1254 C1255 1.362 . S
C1255 H1245 0.930 . S
C1255 C1248 1.409 . S
C1255 C1254 1.362 . S
H1256 C1262 0.930 . S
H1257 C1265 0.930 . S
H1258 C1266 0.930 . S
H1259 C1267 0.930 . S
H1260 C1270 0.930 . S
H1261 C1271 0.930 . S
C1262 H1256 0.930 . S
C1262 C1263 1.355 . S
C1262 C1264 1.415 . S
C1263 C1262 1.355 . S
C1263 C1265 1.419 . S
C1264 C1262 1.415 . S
C1264 C1269 1.425 . S
C1264 C1271 1.409 . S
C1265 H1257 0.930 . S
C1265 C1263 1.419 . S
C1265 C1266 1.362 . S
C1266 H1258 0.930 . S
C1266 C1265 1.362 . S
C1266 C1269 1.409 . S
C1267 H1259 0.930 . S
C1267 C1268 1.355 . S
C1267 C1269 1.415 . S
C1268 C1267 1.355 . S
C1268 C1270 1.419 . S
C1269 C1264 1.425 . S
C1269 C1266 1.409 . S
C1269 C1267 1.415 . S
C1270 H1260 0.930 . S
C1270 C1268 1.419 . S
C1270 C1271 1.362 . S
C1271 H1261 0.930 . S
C1271 C1264 1.409 . S
C1271 C1270 1.362 . S
H1272 C1278 0.930 . S
H1273 C1281 0.930 . S
H1274 C1282 0.930 . S
H1275 C1283 0.930 . S
H1276 C1286 0.930 . S
H1277 C1287 0.930 . S
C1278 H1272 0.930 . S
C1278 C1279 1.355 . S
C1278 C1280 1.415 . S
C1279 C1278 1.355 . S
C1279 C1281 1.419 . S
C1280 C1278 1.415 . S
C1280 C1285 1.425 . S
C1280 C1287 1.409 . S
C1281 H1273 0.930 . S
C1281 C1279 1.419 . S
C1281 C1282 1.362 . S
C1282 H1274 0.930 . S
C1282 C1281 1.362 . S
C1282 C1285 1.409 . S
C1283 H1275 0.930 . S
C1283 C1284 1.355 . S
C1283 C1285 1.415 . S
C1284 C1283 1.355 . S
C1284 C1286 1.419 . S
C1285 C1280 1.425 . S
C1285 C1282 1.409 . S
C1285 C1283 1.415 . S
C1286 H1276 0.930 . S
C1286 C1284 1.419 . S
C1286 C1287 1.362 . S
C1287 H1277 0.930 . S
C1287 C1280 1.409 . S
C1287 C1286 1.362 . S
H1288 C1294 0.930 . S
H1289 C1297 0.930 . S
H1290 C1298 0.930 . S
H1291 C1299 0.930 . S
H1292 C1302 0.930 . S
H1293 C1303 0.930 . S
C1294 H1288 0.930 . S
C1294 C1295 1.355 . S
C1294 C1296 1.415 . S
C1295 C1294 1.355 . S
C1295 C1297 1.419 . S
C1296 C1294 1.415 . S
C1296 C1301 1.425 . S
C1296 C1303 1.409 . S
C1297 H1289 0.930 . S
C1297 C1295 1.419 . S
C1297 C1298 1.362 . S
C1298 H1290 0.930 . S
C1298 C1297 1.362 . S
C1298 C1301 1.409 . S
C1299 H1291 0.930 . S
C1299 C1300 1.355 . S
C1299 C1301 1.415 . S
C1300 C1299 1.355 . S
C1300 C1302 1.419 . S
C1301 C1296 1.425 . S
C1301 C1298 1.409 . S
C1301 C1299 1.415 . S
C1302 H1292 0.930 . S
C1302 C1300 1.419 . S
C1302 C1303 1.362 . S
C1303 H1293 0.930 . S
C1303 C1296 1.409 . S
C1303 C1302 1.362 . S
H1304 C1310 0.930 . S
H1305 C1313 0.930 . S
H1306 C1314 0.930 . S
H1307 C1315 0.930 . S
H1308 C1318 0.930 . S
H1309 C1319 0.930 . S
C1310 H1304 0.930 . S
C1310 C1311 1.355 . S
C1310 C1312 1.415 . S
C1311 C1310 1.355 . S
C1311 C1313 1.419 . S
C1312 C1310 1.415 . S
C1312 C1317 1.425 . S
C1312 C1319 1.409 . S
C1313 H1305 0.930 . S
C1313 C1311 1.419 . S
C1313 C1314 1.362 . S
C1314 H1306 0.930 . S
C1314 C1313 1.362 . S
C1314 C1317 1.409 . S
C1315 H1307 0.930 . S
C1315 C1316 1.355 . S
C1315 C1317 1.415 . S
C1316 C1315 1.355 . S
C1316 C1318 1.419 . S
C1317 C1312 1.425 . S
C1317 C1314 1.409 . S
C1317 C1315 1.415 . S
C1318 H1308 0.930 . S
C1318 C1316 1.419 . S
C1318 C1319 1.362 . S
C1319 H1309 0.930 . S
C1319 C1312 1.409 . S
C1319 C1318 1.362 . S
H1320 C1326 0.930 . S
H1321 C1329 0.930 . S
H1322 C1330 0.930 . S
H1323 C1331 0.930 . S
H1324 C1334 0.930 . S
H1325 C1335 0.930 . S
C1326 H1320 0.930 . S
C1326 C1327 1.355 . S
C1326 C1328 1.415 . S
C1327 C1326 1.355 . S
C1327 C1329 1.419 . S
C1328 C1326 1.415 . S
C1328 C1333 1.425 . S
C1328 C1335 1.409 . S
C1329 H1321 0.930 . S
C1329 C1327 1.419 . S
C1329 C1330 1.362 . S
C1330 H1322 0.930 . S
C1330 C1329 1.362 . S
C1330 C1333 1.409 . S
C1331 H1323 0.930 . S
C1331 C1332 1.355 . S
C1331 C1333 1.415 . S
C1332 C1331 1.355 . S
C1332 C1334 1.419 . S
C1333 C1328 1.425 . S
C1333 C1330 1.409 . S
C1333 C1331 1.415 . S
C1334 H1324 0.930 . S
C1334 C1332 1.419 . S
C1334 C1335 1.362 . S
C1335 H1325 0.930 . S
C1335 C1328 1.409 . S
C1335 C1334 1.362 . S
H1336 C1342 0.930 . S
H1337 C1345 0.930 . S
H1338 C1346 0.930 . S
H1339 C1347 0.930 . S
H1340 C1350 0.930 1_545 S
H1341 C1351 0.930 1_545 S
C1342 H1336 0.930 . S
C1342 C1343 1.355 . S
C1342 C1344 1.415 . S
C1343 C1342 1.355 . S
C1343 C1345 1.419 . S
C1344 C1342 1.415 . S
C1344 C1349 1.425 . S
C1344 C1351 1.409 . S
C1345 H1337 0.930 . S
C1345 C1343 1.419 . S
C1345 C1346 1.362 . S
C1346 H1338 0.930 . S
C1346 C1345 1.362 . S
C1346 C1349 1.409 . S
C1347 H1339 0.930 . S
C1347 C1348 1.355 . S
C1347 C1349 1.415 . S
C1348 C1347 1.355 . S
C1348 C1350 1.419 . S
C1349 C1344 1.425 . S
C1349 C1346 1.409 . S
C1349 C1347 1.415 . S
C1350 H1340 0.930 1_565 S
C1350 C1348 1.419 . S
C1350 C1351 1.362 . S
C1351 H1341 0.930 1_565 S
C1351 C1344 1.409 . S
C1351 C1350 1.362 . S
H1352 C1358 0.930 . S
H1353 C1361 0.930 . S
H1354 C1362 0.930 . S
H1355 C1363 0.930 . S
H1356 C1366 0.930 . S
H1357 C1367 0.930 . S
C1358 H1352 0.930 . S
C1358 C1359 1.355 . S
C1358 C1360 1.415 . S
C1359 C1358 1.355 . S
C1359 C1361 1.419 . S
C1360 C1358 1.415 . S
C1360 C1365 1.425 . S
C1360 C1367 1.409 . S
C1361 H1353 0.930 . S
C1361 C1359 1.419 . S
C1361 C1362 1.362 . S
C1362 H1354 0.930 . S
C1362 C1361 1.362 . S
C1362 C1365 1.409 . S
C1363 H1355 0.930 . S
C1363 C1364 1.355 . S
C1363 C1365 1.415 . S
C1364 C1363 1.355 . S
C1364 C1366 1.419 . S
C1365 C1360 1.425 . S
C1365 C1362 1.409 . S
C1365 C1363 1.415 . S
C1366 H1356 0.930 . S
C1366 C1364 1.419 . S
C1366 C1367 1.362 . S
C1367 H1357 0.930 . S
C1367 C1360 1.409 . S
C1367 C1366 1.362 . S
H1368 C1374 0.930 . S
H1369 C1377 0.930 . S
H1370 C1378 0.930 . S
H1371 C1379 0.930 . S
H1372 C1382 0.930 . S
H1373 C1383 0.930 . S
C1374 H1368 0.930 . S
C1374 C1375 1.355 . S
C1374 C1376 1.415 . S
C1375 C1374 1.355 . S
C1375 C1377 1.419 . S
C1376 C1374 1.415 . S
C1376 C1381 1.425 . S
C1376 C1383 1.409 . S
C1377 H1369 0.930 . S
C1377 C1375 1.419 . S
C1377 C1378 1.362 . S
C1378 H1370 0.930 . S
C1378 C1377 1.362 . S
C1378 C1381 1.409 . S
C1379 H1371 0.930 . S
C1379 C1380 1.355 . S
C1379 C1381 1.415 . S
C1380 C1379 1.355 . S
C1380 C1382 1.419 . S
C1381 C1376 1.425 . S
C1381 C1378 1.409 . S
C1381 C1379 1.415 . S
C1382 H1372 0.930 . S
C1382 C1380 1.419 . S
C1382 C1383 1.362 . S
C1383 H1373 0.930 . S
C1383 C1376 1.409 . S
C1383 C1382 1.362 . S
H1384 C1390 0.930 . S
H1385 C1393 0.930 . S
H1386 C1394 0.930 . S
H1387 C1395 0.930 . S
H1388 C1398 0.930 . S
H1389 C1399 0.930 . S
C1390 H1384 0.930 . S
C1390 C1391 1.355 . S
C1390 C1392 1.415 . S
C1391 C1390 1.355 . S
C1391 C1393 1.419 . S
C1392 C1390 1.415 . S
C1392 C1397 1.425 . S
C1392 C1399 1.409 . S
C1393 H1385 0.930 . S
C1393 C1391 1.419 . S
C1393 C1394 1.362 . S
C1394 H1386 0.930 . S
C1394 C1393 1.362 . S
C1394 C1397 1.409 . S
C1395 H1387 0.930 . S
C1395 C1396 1.355 . S
C1395 C1397 1.415 . S
C1396 C1395 1.355 . S
C1396 C1398 1.419 . S
C1397 C1392 1.425 . S
C1397 C1394 1.409 . S
C1397 C1395 1.415 . S
C1398 H1388 0.930 . S
C1398 C1396 1.419 . S
C1398 C1399 1.362 . S
C1399 H1389 0.930 . S
C1399 C1392 1.409 . S
C1399 C1398 1.362 . S
H1400 C1406 0.930 . S
H1401 C1409 0.930 . S
H1402 C1410 0.930 . S
H1403 C1411 0.930 . S
H1404 C1414 0.930 . S
H1405 C1415 0.930 . S
C1406 H1400 0.930 . S
C1406 C1407 1.355 . S
C1406 C1408 1.415 . S
C1407 C1406 1.355 . S
C1407 C1409 1.419 . S
C1408 C1406 1.415 . S
C1408 C1413 1.425 . S
C1408 C1415 1.409 . S
C1409 H1401 0.930 . S
C1409 C1407 1.419 . S
C1409 C1410 1.362 . S
C1410 H1402 0.930 . S
C1410 C1409 1.362 . S
C1410 C1413 1.409 . S
C1411 H1403 0.930 . S
C1411 C1412 1.355 . S
C1411 C1413 1.415 . S
C1412 C1411 1.355 . S
C1412 C1414 1.419 . S
C1413 C1408 1.425 . S
C1413 C1410 1.409 . S
C1413 C1411 1.415 . S
C1414 H1404 0.930 . S
C1414 C1412 1.419 . S
C1414 C1415 1.362 . S
C1415 H1405 0.930 . S
C1415 C1408 1.409 . S
C1415 C1414 1.362 . S
H1416 C1422 0.930 . S
H1417 C1425 0.930 . S
H1418 C1426 0.930 . S
H1419 C1427 0.930 . S
H1420 C1430 0.930 . S
H1421 C1431 0.930 . S
C1422 H1416 0.930 . S
C1422 C1423 1.355 . S
C1422 C1424 1.415 . S
C1423 C1422 1.355 . S
C1423 C1425 1.419 . S
C1424 C1422 1.415 . S
C1424 C1429 1.425 . S
C1424 C1431 1.409 . S
C1425 H1417 0.930 . S
C1425 C1423 1.419 . S
C1425 C1426 1.362 . S
C1426 H1418 0.930 . S
C1426 C1425 1.362 . S
C1426 C1429 1.409 . S
C1427 H1419 0.930 . S
C1427 C1428 1.355 . S
C1427 C1429 1.415 . S
C1428 C1427 1.355 . S
C1428 C1430 1.419 . S
C1429 C1424 1.425 . S
C1429 C1426 1.409 . S
C1429 C1427 1.415 . S
C1430 H1420 0.930 . S
C1430 C1428 1.419 . S
C1430 C1431 1.362 . S
C1431 H1421 0.930 . S
C1431 C1424 1.409 . S
C1431 C1430 1.362 . S
H1432 C1438 0.930 . S
H1433 C1441 0.930 . S
H1434 C1442 0.930 . S
H1435 C1443 0.930 . S
H1436 C1446 0.930 . S
H1437 C1447 0.930 . S
C1438 H1432 0.930 . S
C1438 C1439 1.355 . S
C1438 C1440 1.415 . S
C1439 C1438 1.355 . S
C1439 C1441 1.419 . S
C1440 C1438 1.415 . S
C1440 C1445 1.425 . S
C1440 C1447 1.409 . S
C1441 H1433 0.930 . S
C1441 C1439 1.419 . S
C1441 C1442 1.362 . S
C1442 H1434 0.930 . S
C1442 C1441 1.362 . S
C1442 C1445 1.409 . S
C1443 H1435 0.930 . S
C1443 C1444 1.355 . S
C1443 C1445 1.415 . S
C1444 C1443 1.355 . S
C1444 C1446 1.419 . S
C1445 C1440 1.425 . S
C1445 C1442 1.409 . S
C1445 C1443 1.415 . S
C1446 H1436 0.930 . S
C1446 C1444 1.419 . S
C1446 C1447 1.362 . S
C1447 H1437 0.930 . S
C1447 C1440 1.409 . S
C1447 C1446 1.362 . S
H1448 C1454 0.930 . S
H1449 C1457 0.930 . S
H1450 C1458 0.930 . S
H1451 C1459 0.930 . S
H1452 C1462 0.930 . S
H1453 C1463 0.930 . S
C1454 H1448 0.930 . S
C1454 C1455 1.355 . S
C1454 C1456 1.415 . S
C1455 C1454 1.355 . S
C1455 C1457 1.419 . S
C1456 C1454 1.415 . S
C1456 C1461 1.425 . S
C1456 C1463 1.409 . S
C1457 H1449 0.930 . S
C1457 C1455 1.419 . S
C1457 C1458 1.362 . S
C1458 H1450 0.930 . S
C1458 C1457 1.362 . S
C1458 C1461 1.409 . S
C1459 H1451 0.930 . S
C1459 C1460 1.355 . S
C1459 C1461 1.415 . S
C1460 C1459 1.355 . S
C1460 C1462 1.419 . S
C1461 C1456 1.425 . S
C1461 C1458 1.409 . S
C1461 C1459 1.415 . S
C1462 H1452 0.930 . S
C1462 C1460 1.419 . S
C1462 C1463 1.362 . S
C1463 H1453 0.930 . S
C1463 C1456 1.409 . S
C1463 C1462 1.362 . S
H1464 C1470 0.930 . S
H1465 C1473 0.930 . S
H1466 C1474 0.930 . S
H1467 C1475 0.930 . S
H1468 C1478 0.930 . S
H1469 C1479 0.930 . S
C1470 H1464 0.930 . S
C1470 C1471 1.355 . S
C1470 C1472 1.415 . S
C1471 C1470 1.355 . S
C1471 C1473 1.419 . S
C1472 C1470 1.415 . S
C1472 C1477 1.425 . S
C1472 C1479 1.409 . S
C1473 H1465 0.930 . S
C1473 C1471 1.419 . S
C1473 C1474 1.362 . S
C1474 H1466 0.930 . S
C1474 C1473 1.362 . S
C1474 C1477 1.409 . S
C1475 H1467 0.930 . S
C1475 C1476 1.355 . S
C1475 C1477 1.415 . S
C1476 C1475 1.355 . S
C1476 C1478 1.419 . S
C1477 C1472 1.425 . S
C1477 C1474 1.409 . S
C1477 C1475 1.415 . S
C1478 H1468 0.930 . S
C1478 C1476 1.419 . S
C1478 C1479 1.362 . S
C1479 H1469 0.930 . S
C1479 C1472 1.409 . S
C1479 C1478 1.362 . S
H1480 C1486 0.930 . S
H1481 C1489 0.930 . S
H1482 C1490 0.930 . S
H1483 C1491 0.930 . S
H1484 C1494 0.930 . S
H1485 C1495 0.930 . S
C1486 H1480 0.930 . S
C1486 C1487 1.355 . S
C1486 C1488 1.415 . S
C1487 C1486 1.355 . S
C1487 C1489 1.419 . S
C1488 C1486 1.415 . S
C1488 C1493 1.425 . S
C1488 C1495 1.409 . S
C1489 H1481 0.930 . S
C1489 C1487 1.419 . S
C1489 C1490 1.362 . S
C1490 H1482 0.930 . S
C1490 C1489 1.362 . S
C1490 C1493 1.409 . S
C1491 H1483 0.930 . S
C1491 C1492 1.355 . S
C1491 C1493 1.415 . S
C1492 C1491 1.355 . S
C1492 C1494 1.419 . S
C1493 C1488 1.425 . S
C1493 C1490 1.409 . S
C1493 C1491 1.415 . S
C1494 H1484 0.930 . S
C1494 C1492 1.419 . S
C1494 C1495 1.362 . S
C1495 H1485 0.930 . S
C1495 C1488 1.409 . S
C1495 C1494 1.362 . S
H1496 C1502 0.930 . S
H1497 C1505 0.930 . S
H1498 C1506 0.930 . S
H1499 C1507 0.930 . S
H1500 C1510 0.930 . S
H1501 C1511 0.930 . S
C1502 H1496 0.930 . S
C1502 C1503 1.355 . S
C1502 C1504 1.415 . S
C1503 C1502 1.355 . S
C1503 C1505 1.419 . S
C1504 C1502 1.415 . S
C1504 C1509 1.425 . S
C1504 C1511 1.409 . S
C1505 H1497 0.930 . S
C1505 C1503 1.419 . S
C1505 C1506 1.362 . S
C1506 H1498 0.930 . S
C1506 C1505 1.362 . S
C1506 C1509 1.409 . S
C1507 H1499 0.930 . S
C1507 C1508 1.355 . S
C1507 C1509 1.415 . S
C1508 C1507 1.355 . S
C1508 C1510 1.419 . S
C1509 C1504 1.425 . S
C1509 C1506 1.409 . S
C1509 C1507 1.415 . S
C1510 H1500 0.930 . S
C1510 C1508 1.419 . S
C1510 C1511 1.362 . S
C1511 H1501 0.930 . S
C1511 C1504 1.409 . S
C1511 C1510 1.362 . S
H1512 C1518 0.930 . S
H1513 C1521 0.930 . S
H1514 C1522 0.930 . S
H1515 C1523 0.930 . S
H1516 C1526 0.930 . S
H1517 C1527 0.930 . S
C1518 H1512 0.930 . S
C1518 C1519 1.355 . S
C1518 C1520 1.415 . S
C1519 C1518 1.355 . S
C1519 C1521 1.419 . S
C1520 C1518 1.415 . S
C1520 C1525 1.425 . S
C1520 C1527 1.409 . S
C1521 H1513 0.930 . S
C1521 C1519 1.419 . S
C1521 C1522 1.362 . S
C1522 H1514 0.930 . S
C1522 C1521 1.362 . S
C1522 C1525 1.409 . S
C1523 H1515 0.930 . S
C1523 C1524 1.355 . S
C1523 C1525 1.415 . S
C1524 C1523 1.355 . S
C1524 C1526 1.419 . S
C1525 C1520 1.425 . S
C1525 C1522 1.409 . S
C1525 C1523 1.415 . S
C1526 H1516 0.930 . S
C1526 C1524 1.419 . S
C1526 C1527 1.362 . S
C1527 H1517 0.930 . S
C1527 C1520 1.409 . S
C1527 C1526 1.362 . S
H1528 C1534 0.930 . S
H1529 C1537 0.930 . S
H1530 C1538 0.930 . S
H1531 C1539 0.930 . S
H1532 C1542 0.930 . S
H1533 C1543 0.930 . S
C1534 H1528 0.930 . S
C1534 C1535 1.355 . S
C1534 C1536 1.415 . S
C1535 C1534 1.355 . S
C1535 C1537 1.419 . S
C1536 C1534 1.415 . S
C1536 C1541 1.425 . S
C1536 C1543 1.409 . S
C1537 H1529 0.930 . S
C1537 C1535 1.419 . S
C1537 C1538 1.362 . S
C1538 H1530 0.930 . S
C1538 C1537 1.362 . S
C1538 C1541 1.409 . S
C1539 H1531 0.930 . S
C1539 C1540 1.355 . S
C1539 C1541 1.415 . S
C1540 C1539 1.355 . S
C1540 C1542 1.419 . S
C1541 C1536 1.425 . S
C1541 C1538 1.409 . S
C1541 C1539 1.415 . S
C1542 H1532 0.930 . S
C1542 C1540 1.419 . S
C1542 C1543 1.362 . S
C1543 H1533 0.930 . S
C1543 C1536 1.409 . S
C1543 C1542 1.362 . S
H1544 C1550 0.930 . S
H1545 C1553 0.930 . S
H1546 C1554 0.930 . S
H1547 C1555 0.930 . S
H1548 C1558 0.930 . S
H1549 C1559 0.930 . S
C1550 H1544 0.930 . S
C1550 C1551 1.355 . S
C1550 C1552 1.415 . S
C1551 C1550 1.355 . S
C1551 C1553 1.419 . S
C1552 C1550 1.415 . S
C1552 C1557 1.425 . S
C1552 C1559 1.409 . S
C1553 H1545 0.930 . S
C1553 C1551 1.419 . S
C1553 C1554 1.362 . S
C1554 H1546 0.930 . S
C1554 C1553 1.362 . S
C1554 C1557 1.409 . S
C1555 H1547 0.930 . S
C1555 C1556 1.355 . S
C1555 C1557 1.415 . S
C1556 C1555 1.355 . S
C1556 C1558 1.419 . S
C1557 C1552 1.425 . S
C1557 C1554 1.409 . S
C1557 C1555 1.415 . S
C1558 H1548 0.930 . S
C1558 C1556 1.419 . S
C1558 C1559 1.362 . S
C1559 H1549 0.930 . S
C1559 C1552 1.409 . S
C1559 C1558 1.362 . S
H1560 C1566 0.930 . S
H1561 C1569 0.930 . S
H1562 C1570 0.930 . S
H1563 C1571 0.930 . S
H1564 C1574 0.930 . S
H1565 C1575 0.930 . S
C1566 H1560 0.930 . S
C1566 C1567 1.355 . S
C1566 C1568 1.415 . S
C1567 C1566 1.355 . S
C1567 C1569 1.419 . S
C1568 C1566 1.415 . S
C1568 C1573 1.425 . S
C1568 C1575 1.409 . S
C1569 H1561 0.930 . S
C1569 C1567 1.419 . S
C1569 C1570 1.362 . S
C1570 H1562 0.930 . S
C1570 C1569 1.362 . S
C1570 C1573 1.409 . S
C1571 H1563 0.930 . S
C1571 C1572 1.355 . S
C1571 C1573 1.415 . S
C1572 C1571 1.355 . S
C1572 C1574 1.419 . S
C1573 C1568 1.425 . S
C1573 C1570 1.409 . S
C1573 C1571 1.415 . S
C1574 H1564 0.930 . S
C1574 C1572 1.419 . S
C1574 C1575 1.362 . S
C1575 H1565 0.930 . S
C1575 C1568 1.409 . S
C1575 C1574 1.362 . S
H1576 C1582 0.930 . S
H1577 C1585 0.930 . S
H1578 C1586 0.930 . S
H1579 C1587 0.930 . S
H1580 C1590 0.930 . S
H1581 C1591 0.930 . S
C1582 H1576 0.930 . S
C1582 C1583 1.355 . S
C1582 C1584 1.415 . S
C1583 C1582 1.355 . S
C1583 C1585 1.419 . S
C1584 C1582 1.415 . S
C1584 C1589 1.425 . S
C1584 C1591 1.409 . S
C1585 H1577 0.930 . S
C1585 C1583 1.419 . S
C1585 C1586 1.362 . S
C1586 H1578 0.930 . S
C1586 C1585 1.362 . S
C1586 C1589 1.409 . S
C1587 H1579 0.930 . S
C1587 C1588 1.355 . S
C1587 C1589 1.415 . S
C1588 C1587 1.355 . S
C1588 C1590 1.419 . S
C1589 C1584 1.425 . S
C1589 C1586 1.409 . S
C1589 C1587 1.415 . S
C1590 H1580 0.930 . S
C1590 C1588 1.419 . S
C1590 C1591 1.362 . S
C1591 H1581 0.930 . S
C1591 C1584 1.409 . S
C1591 C1590 1.362 . S
H1592 C1598 0.930 . S
H1593 C1601 0.930 . S
H1594 C1602 0.930 . S
H1595 C1603 0.930 . S
H1596 C1606 0.930 . S
H1597 C1607 0.930 . S
C1598 H1592 0.930 . S
C1598 C1599 1.355 . S
C1598 C1600 1.415 . S
C1599 C1598 1.355 . S
C1599 C1601 1.419 . S
C1600 C1598 1.415 . S
C1600 C1605 1.425 . S
C1600 C1607 1.409 . S
C1601 H1593 0.930 . S
C1601 C1599 1.419 . S
C1601 C1602 1.362 . S
C1602 H1594 0.930 . S
C1602 C1601 1.362 . S
C1602 C1605 1.409 . S
C1603 H1595 0.930 . S
C1603 C1604 1.355 . S
C1603 C1605 1.415 . S
C1604 C1603 1.355 . S
C1604 C1606 1.419 . S
C1605 C1600 1.425 . S
C1605 C1602 1.409 . S
C1605 C1603 1.415 . S
C1606 H1596 0.930 . S
C1606 C1604 1.419 . S
C1606 C1607 1.362 . S
C1607 H1597 0.930 . S
C1607 C1600 1.409 . S
C1607 C1606 1.362 . S
H1608 C1614 0.930 . S
H1609 C1617 0.930 . S
H1610 C1618 0.930 . S
H1611 C1619 0.930 . S
H1612 C1622 0.930 . S
H1613 C1623 0.930 . S
C1614 H1608 0.930 . S
C1614 C1615 1.355 . S
C1614 C1616 1.415 . S
C1615 C1614 1.355 . S
C1615 C1617 1.419 . S
C1616 C1614 1.415 . S
C1616 C1621 1.425 . S
C1616 C1623 1.409 . S
C1617 H1609 0.930 . S
C1617 C1615 1.419 . S
C1617 C1618 1.362 . S
C1618 H1610 0.930 . S
C1618 C1617 1.362 . S
C1618 C1621 1.409 . S
C1619 H1611 0.930 . S
C1619 C1620 1.355 . S
C1619 C1621 1.415 . S
C1620 C1619 1.355 . S
C1620 C1622 1.419 . S
C1621 C1616 1.425 . S
C1621 C1618 1.409 . S
C1621 C1619 1.415 . S
C1622 H1612 0.930 . S
C1622 C1620 1.419 . S
C1622 C1623 1.362 . S
C1623 H1613 0.930 . S
C1623 C1616 1.409 . S
C1623 C1622 1.362 . S
H1624 C1630 0.930 . S
H1625 C1633 0.930 . S
H1626 C1634 0.930 . S
H1627 C1635 0.930 . S
H1628 C1638 0.930 . S
H1629 C1639 0.930 . S
C1630 H1624 0.930 . S
C1630 C1631 1.355 . S
C1630 C1632 1.415 . S
C1631 C1630 1.355 . S
C1631 C1633 1.419 . S
C1632 C1630 1.415 . S
C1632 C1637 1.425 . S
C1632 C1639 1.409 . S
C1633 H1625 0.930 . S
C1633 C1631 1.419 . S
C1633 C1634 1.362 . S
C1634 H1626 0.930 . S
C1634 C1633 1.362 . S
C1634 C1637 1.409 . S
C1635 H1627 0.930 . S
C1635 C1636 1.355 . S
C1635 C1637 1.415 . S
C1636 C1635 1.355 . S
C1636 C1638 1.419 . S
C1637 C1632 1.425 . S
C1637 C1634 1.409 . S
C1637 C1635 1.415 . S
C1638 H1628 0.930 . S
C1638 C1636 1.419 . S
C1638 C1639 1.362 . S
C1639 H1629 0.930 . S
C1639 C1632 1.409 . S
C1639 C1638 1.362 . S
H1640 C1646 0.930 . S
H1641 C1649 0.930 . S
H1642 C1650 0.930 . S
H1643 C1651 0.930 . S
H1644 C1654 0.930 . S
H1645 C1655 0.930 . S
C1646 H1640 0.930 . S
C1646 C1647 1.355 . S
C1646 C1648 1.415 . S
C1647 C1646 1.355 . S
C1647 C1649 1.419 . S
C1648 C1646 1.415 . S
C1648 C1653 1.425 . S
C1648 C1655 1.409 . S
C1649 H1641 0.930 . S
C1649 C1647 1.419 . S
C1649 C1650 1.362 . S
C1650 H1642 0.930 . S
C1650 C1649 1.362 . S
C1650 C1653 1.409 . S
C1651 H1643 0.930 . S
C1651 C1652 1.355 . S
C1651 C1653 1.415 . S
C1652 C1651 1.355 . S
C1652 C1654 1.419 . S
C1653 C1648 1.425 . S
C1653 C1650 1.409 . S
C1653 C1651 1.415 . S
C1654 H1644 0.930 . S
C1654 C1652 1.419 . S
C1654 C1655 1.362 . S
C1655 H1645 0.930 . S
C1655 C1648 1.409 . S
C1655 C1654 1.362 . S
C511 C6 1.390 . S
C516 C160 1.447 . S
C527 C132 1.430 . S
C532 C20 1.408 . S
C543 C146 1.420 . S
C548 C34 1.418 . S
C559 C48 1.393 . S
C564 C104 1.444 . S
C575 C62 1.424 . S
C580 C118 1.414 . S
C591 C76 1.453 . S
C596 C90 1.384 . S
C607 C174 1.394 . S
C612 C328 1.444 . S
C623 C300 1.442 . S
C628 C188 1.395 . S
C639 C202 1.455 . S
C644 C314 1.382 . S
C655 C216 1.383 . S
C660 C272 1.454 . S
C671 C230 1.391 . S
C676 C286 1.446 . S
C687 C244 1.445 . S
C692 C258 1.393 . S
C703 C342 1.433 . S
C708 C496 1.404 . S
C719 C356 1.414 . S
C724 C468 1.423 . S
C735 C482 1.444 . S
C740 C370 1.393 . S
C751 C384 1.392 . S
C756 C440 1.445 . S
C767 C454 1.391 . S
C772 C398 1.446 . S
C783 C426 1.384 . S
C788 C412 1.453 . S
C799 C7 1.392 . S
C804 C217 1.392 . S
C815 C21 1.395 . S
C820 C231 1.382 . S
C831 C35 1.362 . S
C836 C245 1.375 . S
C847 C49 1.385 . S
C852 C343 1.365 . S
C863 C357 1.370 . S
C868 C63 1.390 . S
C879 C371 1.368 . S
C884 C77 1.363 . S
C895 C91 1.371 . S
C900 C469 1.362 . S
C911 C483 1.384 . S
C916 C105 1.395 . S
C927 C119 1.368 . S
C932 C497 1.361 . S
C943 C133 1.386 . S
C948 C259 1.395 . S
C959 C147 1.391 . S
C964 C273 1.393 . S
C975 C161 1.364 . S
C980 C287 1.383 . S
C991 C385 1.373 . S
C996 C175 1.392 . S
C1007 C189 1.388 . S
C1012 C399 1.368 1_545 S
C1023 C203 1.361 1_455 S
C1028 C413 1.372 . S
C1039 C427 1.387 . S
C1044 C301 1.367 . S
C1055 C441 1.382 1_545 S
C1060 C315 1.364 . S
C1071 C329 1.393 1_455 S
C1076 C455 1.374 . S
C1087 C8 1.285 . S
C1092 C64 1.342 . S
C1103 C78 1.324 . S
C1108 C22 1.321 . S
C1119 C50 1.277 . S
C1124 C36 1.341 . S
C1135 C92 1.286 . S
C1140 C148 1.278 . S
C1151 C162 1.262 . S
C1156 C106 1.325 . S
C1167 C120 1.272 . S
C1172 C134 1.340 . S
C1183 C232 1.262 . S
C1188 C176 1.318 . S
C1199 C190 1.334 . S
C1204 C246 1.308 . S
C1215 C204 1.265 . S
C1220 C218 1.333 . S
C1231 C316 1.329 . S
C1236 C260 1.316 . S
C1247 C330 1.279 . S
C1252 C274 1.342 . S
C1263 C302 1.302 . S
C1268 C288 1.267 . S
C1279 C344 1.342 . S
C1284 C400 1.288 . S
C1295 C358 1.342 . S
C1300 C414 1.285 . S
C1311 C372 1.276 . S
C1316 C386 1.289 . S
C1327 C484 1.329 . S
C1332 C428 1.315 . S
C1343 C498 1.267 . S
C1348 C442 1.336 . S
C1359 C470 1.283 . S
C1364 C456 1.281 . S
C1375 C135 1.923 . S
C1380 C9 1.945 . S
C1391 C149 1.929 . S
C1396 C23 1.940 . S
C1407 C37 1.921 . S
C1412 C163 1.948 . S
C1423 C51 1.925 . S
C1428 C93 1.943 . S
C1439 C107 1.943 . S
C1444 C65 1.925 . S
C1455 C79 1.943 . S
C1460 C121 1.925 . S
C1471 C303 1.927 . S
C1476 C177 1.942 . S
C1487 C317 1.922 . S
C1492 C191 1.946 . S
C1503 C205 1.943 . S
C1508 C331 1.925 . S
C1519 C261 1.921 . S
C1524 C219 1.947 . S
C1535 C275 1.944 . S
C1540 C233 1.925 . S
C1551 C289 1.944 . S
C1556 C247 1.924 . S
C1567 C345 1.926 . S
C1572 C471 1.942 . S
C1583 C485 1.928 . S
C1588 C359 1.941 . S
C1599 C373 1.944 . S
C1604 C499 1.924 . S
C1615 C387 1.921 . S
C1620 C429 1.947 . S
C1631 C401 1.923 . S
C1636 C443 1.946 . S
C1647 C457 1.921 . S
C1652 C415 1.947 . S
