# Generated by pormake.
# Topology wkf, (6)-cn, num edge types: 1
# Building blocks:
#     Node 0, Type 0, BuildingBlock: HISSIN_clean_sbu_0, # of connection points: 6
#     Node 1, Type 0, BuildingBlock: HISSIN_clean_sbu_0, # of connection points: 6
#     Node 2, Type 0, BuildingBlock: HISSIN_clean_sbu_0, # of connection points: 6
#     Node 3, Type 0, BuildingBlock: HISSIN_clean_sbu_0, # of connection points: 6
#     Node 4, Type 0, BuildingBlock: HISSIN_clean_sbu_0, # of connection points: 6
#     Node 5, Type 0, BuildingBlock: HISSIN_clean_sbu_0, # of connection points: 6
#     Node 6, Type 0, BuildingBlock: HISSIN_clean_sbu_0, # of connection points: 6
#     Node 7, Type 0, BuildingBlock: HISSIN_clean_sbu_0, # of connection points: 6
#     Node 8, Type 0, BuildingBlock: HISSIN_clean_sbu_0, # of connection points: 6
#     Node 9, Type 0, BuildingBlock: HISSIN_clean_sbu_0, # of connection points: 6
#     Node 10, Type 0, BuildingBlock: HISSIN_clean_sbu_0, # of connection points: 6
#     Node 11, Type 0, BuildingBlock: HISSIN_clean_sbu_0, # of connection points: 6
#     Edge 12, Type (0, 0), BuildingBlock: OJICUG_clean_linker_0, # of connection points: 2
#     Edge 13, Type (0, 0), BuildingBlock: OJICUG_clean_linker_0, # of connection points: 2
#     Edge 14, Type (0, 0), BuildingBlock: OJICUG_clean_linker_0, # of connection points: 2
#     Edge 15, Type (0, 0), BuildingBlock: OJICUG_clean_linker_0, # of connection points: 2
#     Edge 16, Type (0, 0), BuildingBlock: OJICUG_clean_linker_0, # of connection points: 2
#     Edge 17, Type (0, 0), BuildingBlock: OJICUG_clean_linker_0, # of connection points: 2
#     Edge 18, Type (0, 0), BuildingBlock: OJICUG_clean_linker_0, # of connection points: 2
#     Edge 19, Type (0, 0), BuildingBlock: OJICUG_clean_linker_0, # of connection points: 2
#     Edge 20, Type (0, 0), BuildingBlock: OJICUG_clean_linker_0, # of connection points: 2
#     Edge 21, Type (0, 0), BuildingBlock: OJICUG_clean_linker_0, # of connection points: 2
#     Edge 22, Type (0, 0), BuildingBlock: OJICUG_clean_linker_0, # of connection points: 2
#     Edge 23, Type (0, 0), BuildingBlock: OJICUG_clean_linker_0, # of connection points: 2
#     Edge 24, Type (0, 0), BuildingBlock: OJICUG_clean_linker_0, # of connection points: 2
#     Edge 25, Type (0, 0), BuildingBlock: OJICUG_clean_linker_0, # of connection points: 2
#     Edge 26, Type (0, 0), BuildingBlock: OJICUG_clean_linker_0, # of connection points: 2
#     Edge 27, Type (0, 0), BuildingBlock: OJICUG_clean_linker_0, # of connection points: 2
#     Edge 28, Type (0, 0), BuildingBlock: OJICUG_clean_linker_0, # of connection points: 2
#     Edge 29, Type (0, 0), BuildingBlock: OJICUG_clean_linker_0, # of connection points: 2
#     Edge 30, Type (0, 0), BuildingBlock: OJICUG_clean_linker_0, # of connection points: 2
#     Edge 31, Type (0, 0), BuildingBlock: OJICUG_clean_linker_0, # of connection points: 2
#     Edge 32, Type (0, 0), BuildingBlock: OJICUG_clean_linker_0, # of connection points: 2
#     Edge 33, Type (0, 0), BuildingBlock: OJICUG_clean_linker_0, # of connection points: 2
#     Edge 34, Type (0, 0), BuildingBlock: OJICUG_clean_linker_0, # of connection points: 2
#     Edge 35, Type (0, 0), BuildingBlock: OJICUG_clean_linker_0, # of connection points: 2
#     Edge 36, Type (0, 0), BuildingBlock: OJICUG_clean_linker_0, # of connection points: 2
#     Edge 37, Type (0, 0), BuildingBlock: OJICUG_clean_linker_0, # of connection points: 2
#     Edge 38, Type (0, 0), BuildingBlock: OJICUG_clean_linker_0, # of connection points: 2
#     Edge 39, Type (0, 0), BuildingBlock: OJICUG_clean_linker_0, # of connection points: 2
#     Edge 40, Type (0, 0), BuildingBlock: OJICUG_clean_linker_0, # of connection points: 2
#     Edge 41, Type (0, 0), BuildingBlock: OJICUG_clean_linker_0, # of connection points: 2
#     Edge 42, Type (0, 0), BuildingBlock: OJICUG_clean_linker_0, # of connection points: 2
#     Edge 43, Type (0, 0), BuildingBlock: OJICUG_clean_linker_0, # of connection points: 2
#     Edge 44, Type (0, 0), BuildingBlock: OJICUG_clean_linker_0, # of connection points: 2
#     Edge 45, Type (0, 0), BuildingBlock: OJICUG_clean_linker_0, # of connection points: 2
#     Edge 46, Type (0, 0), BuildingBlock: OJICUG_clean_linker_0, # of connection points: 2
#     Edge 47, Type (0, 0), BuildingBlock: OJICUG_clean_linker_0, # of connection points: 2
# Relax obj value: 0.413
# Max RMSD: 0.279
# Mean RMSD: 0.269
data_MOF--net-wkf--node1-HISSIN_clean_sbu_0--edge1-OJICUG_clean_linker_0
_symmetry_space_group_name_H-M    P1
_symmetry_Int_Tables_number       1
_symmetry_cell_setting            triclinic
loop_
_symmetry_equiv_pos_as_xyz
'x, y, z'
_cell_length_a     21.676149
_cell_length_b     21.738161
_cell_length_c     75.237534
_cell_angle_alpha  89.949062
_cell_angle_beta   90.210297
_cell_angle_gamma 119.00323
loop_
_atom_site_label
_atom_site_type_symbol
_atom_site_fract_x
_atom_site_fract_y
_atom_site_fract_z
_atom_type_partial_charge
Eu0 Eu 0.597 0.97482 0.41409 0.0
Eu1 Eu 0.44688 0.91823 0.39754 0.0
C2 C 0.56352 0.08599 0.39187 0.0
C3 C 0.79626 0.08079 0.41562 0.0
C4 C 0.84923 0.07924 0.40528 0.0
C5 C 0.87167 0.20543 0.42053 0.0
C6 C 0.91382 0.14017 0.40292 0.0
C7 C 0.80698 0.14482 0.42269 0.0
C8 C 0.92681 0.2035 0.41109 0.0
C9 C 0.72991 1.01548 0.4185 0.0
O10 O 0.49712 0.85568 0.38362 0.0
O11 O 0.56193 0.8612 0.40737 0.0
C12 C 0.5335 0.83061 0.39237 0.0
O13 O 0.52764 0.90834 0.43714 0.0
O14 O 0.39217 0.93257 0.37487 0.0
O15 O 0.33324 0.84665 0.39297 0.0
O16 O 0.42001 0.85104 0.42259 0.0
C17 C 0.45954 0.86122 0.43691 0.0
O18 O 0.5648 1.03935 0.43032 0.0
O19 O 0.44655 0.98257 0.4225 0.0
O20 O 0.49672 1.03726 0.39236 0.0
O21 O 0.68905 1.01448 0.43144 0.0
O22 O 0.69513 0.98516 0.40397 0.0
O23 O 0.61176 0.06785 0.3961 0.0
C24 C 0.28855 0.837 0.36291 0.0
C25 C 0.23389 0.84838 0.35652 0.0
C26 C 0.26867 0.75944 0.33752 0.0
C27 C 0.19751 0.81649 0.34074 0.0
C28 C 0.30536 0.79181 0.3533 0.0
C29 C 0.21467 0.772 0.33078 0.0
C30 C 0.33107 0.87871 0.37846 0.0
C31 C 0.5005 1.0293 0.43234 0.0
H32 H 0.84117 1.03045 0.39936 0.0
H33 H 0.87954 0.25261 0.42732 0.0
H34 H 0.95455 0.13693 0.39535 0.0
H35 H 0.76632 0.14774 0.43038 0.0
H36 H 0.22045 0.88378 0.36353 0.0
H37 H 0.28296 0.72457 0.3306 0.0
H38 H 0.15733 0.82866 0.3361 0.0
H39 H 0.34763 0.78248 0.35781 0.0
Eu40 Eu 0.68604 0.5653 0.58495 0.0
Eu41 Eu 0.59208 0.41932 0.5654 0.0
C42 C 0.5476 0.54875 0.56342 0.0
C43 C 0.78922 0.6844 0.62212 0.0
C44 C 0.84518 0.74671 0.62859 0.0
C45 C 0.75113 0.64552 0.65232 0.0
C46 C 0.85252 0.75977 0.64683 0.0
C47 C 0.74389 0.63258 0.63405 0.0
C48 C 0.80362 0.71064 0.65886 0.0
C49 C 0.77734 0.67372 0.60297 0.0
O50 O 0.7113 0.45357 0.55993 0.0
O51 O 0.75297 0.5701 0.56127 0.0
C52 C 0.76471 0.51779 0.55761 0.0
O53 O 0.68267 0.47904 0.60355 0.0
O54 O 0.5555 0.3925 0.53821 0.0
O55 O 0.53156 0.30756 0.5569 0.0
O56 O 0.61667 0.37269 0.58929 0.0
C57 C 0.65379 0.40948 0.60308 0.0
O58 O 0.59091 0.51998 0.60236 0.0
O59 O 0.52014 0.41198 0.58907 0.0
O60 O 0.5325 0.48249 0.56117 0.0
O61 O 0.791 0.62641 0.59632 0.0
O62 O 0.71794 0.66764 0.59705 0.0
O63 O 0.60992 0.59438 0.5701 0.0
C64 C 0.5259 0.2809 0.52494 0.0
C65 C 0.54805 0.31191 0.50807 0.0
C66 C 0.48572 0.16574 0.51079 0.0
C67 C 0.53894 0.27088 0.49289 0.0
C68 C 0.49442 0.20706 0.52606 0.0
C69 C 0.50765 0.19696 0.49388 0.0
C70 C 0.52583 0.32441 0.54047 0.0
C71 C 0.53217 0.45984 0.60163 0.0
H72 H 0.88118 0.78665 0.61952 0.0
H73 H 0.71287 0.60665 0.66122 0.0
H74 H 0.89296 0.81099 0.65129 0.0
H75 H 0.70103 0.58346 0.62919 0.0
H76 H 0.57083 0.36824 0.50641 0.0
H77 H 0.46206 0.10929 0.5123 0.0
H78 H 0.55526 0.29756 0.48023 0.0
H79 H 0.47524 0.181 0.53871 0.0
Eu80 Eu 0.16984 0.6538 0.74855 0.0
Eu81 Eu 0.23121 0.56389 0.73112 0.0
C82 C 1.06087 0.51237 0.72574 0.0
C83 C 1.0675 0.7541 0.74603 0.0
C84 C 1.077 0.81555 0.73754 0.0
C85 C 0.94098 0.70664 0.7442 0.0
C86 C 1.01886 0.82349 0.73289 0.0
C87 C 0.99915 0.69852 0.74867 0.0
C88 C 0.95022 0.77032 0.73688 0.0
C89 C 0.12979 0.74805 0.75101 0.0
O90 O 0.29076 0.6762 0.71808 0.0
O91 O 0.28437 0.72994 0.74276 0.0
C92 C 0.31499 0.73481 0.72759 0.0
O93 O 0.23793 0.65218 0.77161 0.0
O94 O 0.21751 0.48974 0.71 0.0
O95 O 0.31308 0.53298 0.72557 0.0
O96 O 0.29461 0.59986 0.75695 0.0
C97 C 0.28503 0.62982 0.77126 0.0
O98 O 0.10992 0.55869 0.76513 0.0
O99 O 0.16932 0.49942 0.75611 0.0
O100 O 0.11326 0.49829 0.72403 0.0
O101 O 0.12432 0.70622 0.76425 0.0
O102 O 0.16448 0.7428 0.73743 0.0
O103 O 1.07411 0.57402 0.73216 0.0
C104 C 0.3171 0.4922 0.69561 0.0
C105 C 0.30122 0.51029 0.67888 0.0
C106 C 0.39362 0.45487 0.68042 0.0
C107 C 0.33065 0.5004 0.66318 0.0
C108 C 0.364 0.46468 0.69613 0.0
C109 C 0.37712 0.47203 0.66359 0.0
C110 C 0.2786 0.49288 0.71213 0.0
C111 C 0.12249 0.50554 0.76648 0.0
H112 H 0.12959 0.85817 0.7349 0.0
H113 H 0.88907 0.66474 0.7477 0.0
H114 H 1.02773 0.87274 0.7271 0.0
H115 H 0.99066 0.64975 0.7547 0.0
H116 H 0.26459 0.53066 0.67783 0.0
H117 H 0.42985 0.43409 0.68154 0.0
H118 H 0.3154 0.51363 0.65065 0.0
H119 H 0.37676 0.44929 0.70872 0.0
Eu120 Eu 0.59388 0.14959 0.91433 0.0
Eu121 Eu 0.7439 0.20788 0.89737 0.0
C122 C 0.62692 1.03996 0.89185 0.0
C123 C 0.39376 1.04914 0.9166 0.0
C124 C 0.38875 0.99195 0.90683 0.0
C125 C 0.26728 0.98905 0.92016 0.0
C126 C 0.32307 0.93261 0.90407 0.0
C127 C 0.33276 1.04818 0.92284 0.0
C128 C 0.26175 0.92978 0.91113 0.0
C129 C 0.46191 0.11117 0.91986 0.0
O130 O 0.69229 0.26973 0.88377 0.0
O131 O 0.62829 0.26323 0.90768 0.0
C132 C 0.656 0.29419 0.89269 0.0
O133 O 0.66464 0.2171 0.93711 0.0
O134 O 0.79645 0.19408 0.87427 0.0
O135 O 0.8575 0.27862 0.89264 0.0
O136 O 0.77112 0.27612 0.92229 0.0
C137 C 0.7323 0.2653 0.93672 0.0
O138 O 0.62906 0.08639 0.9304 0.0
O139 O 0.74706 0.14598 0.92248 0.0
O140 O 0.69381 0.08838 0.89273 0.0
O141 O 0.50257 0.1055 0.93193 0.0
O142 O 0.49598 0.14353 0.90551 0.0
O143 O 0.57878 1.05862 0.89561 0.0
C144 C 0.90089 0.28904 0.86246 0.0
C145 C 0.95606 0.27827 0.85628 0.0
C146 C 0.92076 0.36657 0.83705 0.0
C147 C 0.99267 0.31042 0.8406 0.0
C148 C 0.88383 0.33392 0.85273 0.0
C149 C 0.97529 0.35463 0.83052 0.0
C150 C 0.85824 0.24704 0.87792 0.0
C151 C 0.69421 0.09866 0.93238 0.0
H152 H 0.43564 0.99266 0.90166 0.0
H153 H 0.22165 0.98839 0.92617 0.0
H154 H 0.32058 0.88799 0.89704 0.0
H155 H 0.33595 0.09247 0.9302 0.0
H156 H 0.96974 0.24313 0.86338 0.0
H157 H 0.90624 0.40119 0.83005 0.0
H158 H 1.03322 0.29868 0.83613 0.0
H159 H 0.84121 0.34282 0.85707 0.0
Eu160 Eu 0.50289 0.56431 0.0846 0.0
Eu161 Eu 0.5985 0.71108 0.06522 0.0
C162 C 0.64339 0.58219 0.06351 0.0
C163 C 0.39811 0.44283 0.12099 0.0
C164 C 0.34259 0.37963 0.12712 0.0
C165 C 0.43321 0.4812 0.15143 0.0
C166 C 0.33405 0.36597 0.14531 0.0
C167 C 0.44155 0.49482 0.13321 0.0
C168 C 0.38136 0.41531 0.15764 0.0
C169 C 0.41215 0.45388 0.10193 0.0
O170 O 0.47929 0.67776 1.05984 0.0
O171 O 0.43754 0.56116 1.06065 0.0
C172 C 0.42584 0.61369 1.05725 0.0
O173 O 0.50098 0.64951 0.10255 0.0
O174 O 0.62858 0.7409 1.03772 0.0
O175 O 0.66532 0.82309 1.0579 0.0
O176 O 0.57189 0.75639 0.08903 0.0
C177 C 0.53152 0.71924 0.10232 0.0
O178 O 0.59008 0.61716 0.10433 0.0
O179 O 0.67017 0.71507 0.08875 0.0
O180 O 0.65655 0.64723 1.06019 0.0
O181 O 0.39674 0.49932 0.09478 0.0
O182 O 0.47339 0.46271 0.09678 0.0
O183 O 0.58301 0.53749 0.07114 0.0
C184 C 0.66981 0.85805 1.02682 0.0
C185 C 0.73572 0.91524 1.02237 0.0
C186 C 0.61964 0.88519 1.00075 0.0
C187 C 0.74394 0.95612 1.00712 0.0
C188 C 0.6116 0.84412 1.01595 0.0
C189 C 0.68633 0.941 0.99579 0.0
C190 C 0.66591 0.80828 1.04104 0.0
C191 C 0.65232 0.67294 0.10287 0.0
H192 H 0.30808 0.33948 0.11782 0.0
H193 H 0.47028 0.52021 0.16057 0.0
H194 H 0.29417 0.3142 0.14954 0.0
H195 H 0.48401 0.54459 0.12863 0.0
H196 H 0.78183 0.92664 1.03032 0.0
H197 H 0.57332 0.87246 0.99277 0.0
H198 H 0.79622 0.99785 1.00388 0.0
H199 H 0.56018 0.8002 1.01892 0.0
Eu200 Eu 1.02207 0.47398 0.24831 0.0
Eu201 Eu 0.95982 0.56325 0.23097 0.0
C202 C 0.1297 0.61503 0.22584 0.0
C203 C 0.12519 0.37456 0.24616 0.0
C204 C 0.1144 0.31316 0.2374 0.0
C205 C 0.2514 0.42107 0.24374 0.0
C206 C 0.17173 0.3048 0.2323 0.0
C207 C 0.19402 0.42965 0.24866 0.0
C208 C 0.24091 0.35741 0.23612 0.0
C209 C 1.0636 0.38099 0.25159 0.0
O210 O 0.89754 0.45023 0.21835 0.0
O211 O 0.90802 0.39576 0.24252 0.0
C212 C 0.87515 0.39144 0.22768 0.0
O213 O 0.95313 0.47616 0.27108 0.0
O214 O 0.97016 0.62478 0.20729 0.0
O215 O 0.88768 0.60723 0.22604 0.0
O216 O 0.8928 0.52394 0.25598 0.0
C217 C 0.90402 0.49597 0.27047 0.0
O218 O 1.08134 0.56893 0.26508 0.0
O219 O 1.02192 0.62819 0.25593 0.0
O220 O 1.07858 0.63127 0.22556 0.0
O221 O 1.07142 0.42562 0.2643 0.0
O222 O 1.02553 0.38258 0.23827 0.0
O223 O 0.11484 0.55107 0.23076 0.0
C224 C 0.87381 0.63676 0.19538 0.0
C225 C 0.83498 0.67281 0.19693 0.0
C226 C 0.84672 0.62406 0.16342 0.0
C227 C 0.80278 0.68464 0.18199 0.0
C228 C 0.87879 0.6121 0.17839 0.0
C229 C 0.8086 0.66113 0.1649 0.0
C230 C 0.91705 0.6351 0.21082 0.0
C231 C 1.06857 0.62194 0.26642 0.0
H232 H 1.06142 0.27089 0.23487 0.0
H233 H 0.30378 0.46255 0.24713 0.0
H234 H 0.16186 0.25558 0.22628 0.0
H235 H 0.20357 0.4784 0.2549 0.0
H236 H 0.83126 0.69388 0.20968 0.0
H237 H 0.85165 0.60387 0.15066 0.0
H238 H 0.77477 0.71401 0.18382 0.0
H239 H 0.90881 0.58473 0.17656 0.0
Eu240 Eu 0.18634 0.56322 0.52079 0.0
Eu241 Eu 0.23472 0.71156 0.5386 0.0
C242 C 1.064 0.58455 0.54119 0.0
C243 C 0.16626 0.42841 0.48695 0.0
C244 C 0.14804 0.35928 0.48266 0.0
C245 C 0.17027 0.45656 0.45562 0.0
C246 C 0.13816 0.33796 0.46496 0.0
C247 C 0.1799 0.47774 0.4734 0.0
C248 C 0.14625 0.38564 0.45125 0.0
C249 C 0.16719 0.44788 0.50554 0.0
O250 O 0.32237 0.6796 0.54407 0.0
O251 O 0.24973 0.56362 0.5449 0.0
C252 C 0.31324 0.61608 0.54753 0.0
O253 O 0.27004 0.64506 0.5019 0.0
O254 O 0.23334 0.74327 0.56588 0.0
O255 O 0.27905 0.82424 0.54548 0.0
O256 O 0.30397 0.75387 0.51445 0.0
C257 C 0.30752 0.71485 0.50151 0.0
O258 O 0.14974 0.6128 0.50029 0.0
O259 O 0.16607 0.71298 0.515 0.0
O260 O 0.11444 0.64999 0.54392 0.0
O261 O 0.22811 0.49617 0.51143 0.0
O262 O 0.11543 0.45855 0.51042 0.0
O263 O 1.08058 0.53871 0.53411 0.0
C264 C 0.3106 0.85944 0.57644 0.0
C265 C 0.30219 0.9172 0.5815 0.0
C266 C 0.38933 0.8835 0.60192 0.0
C267 C 0.33575 0.95686 0.59678 0.0
C268 C 0.35549 0.84371 0.58668 0.0
C269 C 0.37873 0.93978 0.60752 0.0
C270 C 0.26371 0.81062 0.56237 0.0
C271 C 0.1421 0.669 0.50122 0.0
H272 H 0.13789 0.32091 0.49303 0.0
H273 H 0.17752 0.49465 0.44542 0.0
H274 H 0.1185 0.28265 0.46225 0.0
H275 H 0.19484 0.53178 0.4766 0.0
H276 H 0.26703 0.92992 0.57404 0.0
H277 H 0.42325 0.86935 0.60945 0.0
H278 H 0.32552 0.99912 0.60054 0.0
H279 H 0.36271 0.79926 0.58322 0.0
Eu280 Eu 0.6827 0.13532 0.68776 0.0
Eu281 Eu 0.59455 0.19779 0.70623 0.0
C282 C 0.54348 1.02807 0.71077 0.0
C283 C 0.77902 1.02932 0.68657 0.0
C284 C 0.72952 0.97723 0.69778 0.0
C285 C 0.84415 0.96542 0.68508 0.0
C286 C 0.7365 0.91855 0.70231 0.0
C287 C 0.83717 1.02398 0.68063 0.0
C288 C 0.79299 0.91107 0.69562 0.0
C289 C 0.77339 0.09186 0.68207 0.0
O290 O 0.70925 0.26039 0.71811 0.0
O291 O 0.76333 0.24778 0.69409 0.0
C292 C 0.76793 0.28145 0.70877 0.0
O293 O 0.67868 0.20597 0.66568 0.0
O294 O 0.5393 0.18909 0.73095 0.0
O295 O 0.54732 0.26662 0.71161 0.0
O296 O 0.63259 0.26614 0.68138 0.0
C297 C 0.65923 0.25517 0.66664 0.0
O298 O 0.58536 0.07803 0.67155 0.0
O299 O 0.52662 0.1366 0.6816 0.0
O300 O 0.52665 0.07869 0.71117 0.0
O301 O 0.72539 0.08461 0.67036 0.0
O302 O 0.77544 0.1294 0.69582 0.0
O303 O 0.60783 1.04374 0.70589 0.0
C304 C 0.52309 0.28308 0.74255 0.0
C305 C 0.47947 0.31419 0.74158 0.0
C306 C 0.54495 0.31817 0.77396 0.0
C307 C 0.4683 0.34637 0.75655 0.0
C308 C 0.5561 0.28595 0.75895 0.0
C309 C 0.50027 0.34847 0.7731 0.0
C310 C 0.52444 0.23916 0.72732 0.0
C311 C 0.53208 0.09075 0.67077 0.0
H312 H 0.68503 0.98144 0.70282 0.0
H313 H 0.88752 0.961 0.6793 0.0
H314 H 0.69631 0.87778 0.71045 0.0
H315 H 0.87649 0.06446 0.67224 0.0
H316 H 0.45198 0.31166 0.72932 0.0
H317 H 0.57173 0.31949 0.78624 0.0
H318 H 0.43286 0.36801 0.7552 0.0
H319 H 0.5895 0.26195 0.76032 0.0
Eu320 Eu 0.60257 0.66069 0.8502 0.0
Eu321 Eu 0.45976 0.56774 0.87185 0.0
C322 C 0.59034 0.52498 0.87259 0.0
C323 C 0.7191 0.75552 0.81179 0.0
C324 C 0.70984 0.69861 0.80119 0.0
C325 C 0.749 0.82885 0.78541 0.0
C326 C 0.72374 0.70775 0.78305 0.0
C327 C 0.73604 0.81988 0.80367 0.0
C328 C 0.74669 0.77393 0.77502 0.0
C329 C 0.709 0.74774 0.83116 0.0
O330 O 0.49371 0.68713 0.8758 0.0
O331 O 0.61025 0.72754 0.87414 0.0
C332 C 0.55843 0.74026 0.87773 0.0
O333 O 0.51386 0.6607 0.83339 0.0
O334 O 0.43397 0.54295 0.89978 0.0
O335 O 0.34874 0.50121 0.88033 0.0
O336 O 0.40955 0.58949 0.84801 0.0
C337 C 0.44409 0.62908 0.83432 0.0
O338 O 0.54443 0.5718 0.83134 0.0
O339 O 0.45468 0.49221 0.84928 0.0
O340 O 0.52976 0.51754 0.87863 0.0
O341 O 0.66205 0.76286 0.83744 0.0
O342 O 0.70513 0.69129 0.83839 0.0
O343 O 0.62954 0.57824 0.86196 0.0
C344 C 0.31698 0.50062 0.91182 0.0
C345 C 0.24337 0.4662 0.90925 0.0
C346 C 0.29648 0.50881 0.94363 0.0
C347 C 0.19711 0.45351 0.92363 0.0
C348 C 0.34265 0.52188 0.92926 0.0
C349 C 0.22279 0.47393 0.94114 0.0
C350 C 0.366 0.50473 0.89717 0.0
C351 C 0.49175 0.50868 0.83425 0.0
H352 H 0.69454 0.6476 0.80699 0.0
H353 H 0.76491 0.88002 0.77965 0.0
H354 H 0.7217 0.66399 0.77571 0.0
H355 H 0.74125 0.86388 0.81154 0.0
H356 H 0.22128 0.44741 0.89617 0.0
H357 H 0.31883 0.52652 0.95675 0.0
H358 H 0.14089 0.42597 0.92106 0.0
H359 H 0.39876 0.54737 0.93197 0.0
Eu360 Eu 1.00338 0.56672 1.02037 0.0
Eu361 Eu 0.95566 0.41905 1.03885 0.0
C362 C 0.12624 0.54698 1.04118 0.0
C363 C 1.02331 0.6944 0.98494 0.0
C364 C 1.03316 0.75968 0.97927 0.0
C365 C 1.03047 0.66227 0.95446 0.0
C366 C 1.0445 0.7774 0.96133 0.0
C367 C 1.01884 0.64454 0.97242 0.0
C368 C 1.04668 0.7301 0.94886 0.0
C369 C 1.02131 0.6794 1.00391 0.0
O370 O 0.86853 0.45166 1.04424 0.0
O371 O 0.94056 0.56806 1.04428 0.0
C372 C 0.87753 0.51545 1.04728 0.0
O373 O 0.92035 0.48345 1.00159 0.0
O374 O 0.95722 0.38783 0.06622 0.0
O375 O 0.91166 0.3066 1.04586 0.0
O376 O 0.88628 0.3755 1.01464 0.0
C377 C 0.883 0.41373 1.00143 0.0
O378 O 1.04138 0.51647 1.00051 0.0
O379 O 1.02417 0.41647 1.01548 0.0
O380 O 1.07595 0.48176 1.04421 0.0
O381 O 0.96039 0.63118 1.00972 0.0
O382 O 1.0735 0.67121 1.00988 0.0
O383 O 0.1095 0.5923 1.0338 0.0
C384 C 0.88009 0.27161 0.07676 0.0
C385 C 0.88961 0.21481 0.08217 0.0
C386 C 0.79892 0.24601 0.10162 0.0
C387 C 0.85536 0.17487 0.09731 0.0
C388 C 0.83351 0.28613 0.08652 0.0
C389 C 0.81047 0.19062 0.10756 0.0
C390 C 0.92701 0.32044 0.06276 0.0
C391 C 1.04867 0.46014 1.00167 0.0
H392 H 1.03589 0.79826 0.98881 0.0
H393 H 1.03174 0.62486 0.94517 0.0
H394 H 1.05785 0.83049 0.95753 0.0
H395 H 1.01004 0.59329 0.97665 0.0
H396 H 0.92604 0.20301 0.07508 0.0
H397 H 0.7636 0.25916 0.10875 0.0
H398 H 0.86646 0.13341 0.10134 0.0
H399 H 0.82537 0.32981 0.08278 0.0
Eu400 Eu 0.50515 0.99218 0.18757 0.0
Eu401 Eu 0.59457 0.92944 0.20556 0.0
C402 C 0.6452 0.09896 0.21059 0.0
C403 C 0.40771 0.09759 0.18638 0.0
C404 C 0.45686 0.15021 0.19761 0.0
C405 C 0.34184 0.16065 0.18435 0.0
C406 C 0.44931 0.20877 0.20189 0.0
C407 C 0.34939 0.10226 0.18016 0.0
C408 C 0.39261 0.21555 0.19492 0.0
C409 C 0.41389 1.03525 0.18205 0.0
O410 O 0.48091 0.86677 0.21775 0.0
O411 O 0.42498 0.87974 0.19404 0.0
C412 C 0.42158 0.84586 0.20861 0.0
O413 O 0.50828 0.92223 0.16523 0.0
O414 O 0.65244 0.93853 0.22995 0.0
O415 O 0.64121 0.85982 0.21064 0.0
O416 O 0.55477 0.86144 0.18063 0.0
C417 C 0.52747 0.87282 0.16601 0.0
O418 O 0.60219 1.05037 0.17142 0.0
O419 O 0.66116 0.9911 0.18092 0.0
O420 O 0.66212 1.04837 0.21079 0.0
O421 O 0.46115 1.04224 0.17024 0.0
O422 O 0.41316 0.99861 0.19589 0.0
O423 O 0.58073 0.08351 0.20576 0.0
C424 C 0.66699 0.84348 0.24148 0.0
C425 C 0.70979 0.81148 0.24052 0.0
C426 C 0.64554 0.80864 0.27288 0.0
C427 C 0.72075 0.77897 0.25549 0.0
C428 C 0.63458 0.84117 0.25788 0.0
C429 C 0.6894 0.77745 0.27203 0.0
C430 C 0.66586 0.88761 0.22626 0.0
C431 C 0.65537 1.03756 0.17036 0.0
H432 H 0.50151 0.14651 0.20285 0.0
H433 H 0.29833 0.16448 0.17836 0.0
H434 H 0.4892 0.24994 0.21006 0.0
H435 H 0.31036 1.06139 0.17173 0.0
H436 H 0.73679 0.81353 0.22826 0.0
H437 H 0.61927 0.80779 0.28516 0.0
H438 H 0.75553 0.75659 0.25415 0.0
H439 H 0.60181 0.86583 0.25924 0.0
Eu440 Eu 0.58664 0.46462 0.34912 0.0
Eu441 Eu 0.72963 0.55764 0.37086 0.0
C442 C 0.59889 0.6002 0.37161 0.0
C443 C 0.47058 0.36984 0.31051 0.0
C444 C 0.48051 0.4269 0.29987 0.0
C445 C 0.44135 0.29663 0.28409 0.0
C446 C 0.46721 0.4179 0.28167 0.0
C447 C 0.45368 0.30546 0.3024 0.0
C448 C 0.44419 0.3517 0.27363 0.0
C449 C 0.4802 0.37759 0.32991 0.0
O450 O 0.69581 0.43836 0.37506 0.0
O451 O 0.57915 0.39742 0.373 0.0
C452 C 0.63114 0.38506 0.37684 0.0
O453 O 0.6751 0.46463 0.33234 0.0
O454 O 0.7561 0.58353 0.39875 0.0
O455 O 0.84089 0.62419 0.37933 0.0
O456 O 0.77955 0.53576 0.34707 0.0
C457 C 0.74489 0.49622 0.33334 0.0
O458 O 0.64445 0.55333 0.33027 0.0
O459 O 0.73441 0.63303 0.34826 0.0
O460 O 0.65973 0.6078 0.37761 0.0
O461 O 0.52685 0.36225 0.3364 0.0
O462 O 0.48417 0.43417 0.33707 0.0
O463 O 0.5595 0.54685 0.36095 0.0
C464 C 0.87321 0.6259 0.41086 0.0
C465 C 0.94677 0.66031 0.40836 0.0
C466 C 0.89414 0.61856 0.44272 0.0
C467 C 0.99324 0.67342 0.4228 0.0
C468 C 0.84778 0.60505 0.42829 0.0
C469 C 0.96778 0.65346 0.44029 0.0
C470 C 0.82402 0.62145 0.39614 0.0
C471 C 0.69717 0.61646 0.3332 0.0
H472 H 0.49588 0.47795 0.30566 0.0
H473 H 0.42544 0.24544 0.27833 0.0
H474 H 0.46974 0.46182 0.27429 0.0
H475 H 0.44805 0.26136 0.31031 0.0
H476 H 0.96866 0.67877 0.39527 0.0
H477 H 0.87201 0.6012 0.45583 0.0
H478 H 1.04944 0.70093 0.42028 0.0
H479 H 0.7917 0.57958 0.43094 0.0
C480 C 1.07101 0.68709 0.29452 0.0
C481 C 0.10696 0.67237 0.28112 0.0
H482 H 1.07537 0.72773 0.32078 0.0
C483 C 0.179 0.69432 0.28372 0.0
H484 H 1.01505 0.66907 0.29317 0.0
C485 C 0.21386 0.72808 0.29946 0.0
C486 C 0.17764 0.74006 0.31338 0.0
H487 H 0.20812 0.6832 0.27372 0.0
H488 H 0.26932 0.74386 0.30075 0.0
C489 C 0.10581 0.72034 0.31046 0.0
C490 C 0.44312 0.08537 0.47471 0.0
C491 C 0.50031 0.15398 0.47738 0.0
H492 H 0.39658 0.99208 0.4582 0.0
C493 C 0.55212 0.18171 0.46403 0.0
H494 H 0.4016 1.06202 0.4845 0.0
C495 C 0.54827 0.14233 0.44896 0.0
C496 C 0.49272 0.07332 0.44651 0.0
H497 H 0.59773 0.23331 0.46547 0.0
H498 H 0.59084 0.16532 0.4394 0.0
C499 C 0.43931 1.04554 0.45944 0.0
C500 C 0.42685 0.51046 0.63252 0.0
C501 C 0.40932 0.46229 0.64665 0.0
H502 H 0.47712 0.54569 0.60721 0.0
C503 C 0.42508 0.40663 0.64451 0.0
H504 H 0.41719 0.55474 0.63351 0.0
C505 C 0.45954 0.40125 0.62911 0.0
C506 C 0.47903 0.45125 0.61541 0.0
H507 H 0.412 0.36777 0.65488 0.0
H508 H 0.47435 0.36035 0.62839 0.0
C509 C 0.46123 0.50516 0.61728 0.0
C510 C 0.11965 0.44021 0.79465 0.0
C511 C 1.08391 0.45499 0.78111 0.0
H512 H 0.1149 0.39935 0.82091 0.0
C513 C 1.01181 0.43297 0.78352 0.0
H514 H 0.17564 0.45828 0.79346 0.0
C515 C 0.97669 0.39902 0.79917 0.0
C516 C 1.01267 0.38691 0.81321 0.0
H517 H 0.98283 0.44414 0.77342 0.0
H518 H 0.9212 0.38317 0.80028 0.0
C519 C 1.08458 0.40678 0.8105 0.0
C520 C 0.74951 0.09173 0.96149 0.0
C521 C 0.70505 1.05806 0.94692 0.0
H522 H 0.77766 0.08246 0.98841 0.0
C523 C 0.65828 0.98541 0.94813 0.0
H524 H 0.78464 0.14801 0.96119 0.0
C525 C 0.65408 0.94768 0.96363 0.0
C526 C 0.69563 0.98145 0.9787 0.0
H527 H 0.62272 0.95801 0.93721 0.0
H528 H 0.61704 0.89189 0.96385 0.0
C529 C 0.74485 1.05395 0.97719 0.0
C530 C 0.80398 0.68673 0.13175 0.0
C531 C 0.77339 0.67343 0.14889 0.0
H532 H 0.79123 0.6995 0.1037 0.0
C533 C 0.70692 0.66954 0.15055 0.0
H534 H 0.85537 0.69097 0.12984 0.0
C535 C 0.67101 0.67531 0.13565 0.0
C536 C 0.70014 0.6859 0.11848 0.0
H537 H 0.68067 0.65855 0.1633 0.0
H538 H 0.61839 0.66817 0.13748 0.0
C539 C 0.7679 0.69309 0.11674 0.0
C540 C 0.45323 0.9792 0.65491 0.0
C541 C 0.47959 1.05216 0.6565 0.0
H542 H 0.39983 0.88688 0.63884 0.0
C543 C 0.46851 0.0878 0.6423 0.0
H544 H 0.4618 0.95038 0.66552 0.0
C545 C 0.43445 1.05152 0.62658 0.0
C546 C 0.41068 0.97867 0.62468 0.0
H547 H 0.49015 0.14435 0.64287 0.0
H548 H 0.42982 0.08138 0.61563 0.0
C549 C 0.41884 0.94299 0.63938 0.0
C550 C 0.48176 0.44455 0.78707 0.0
C551 C 0.48846 0.38364 0.78914 0.0
H552 H 0.47546 0.52975 0.79962 0.0
C553 C 0.48601 0.35873 0.80667 0.0
H554 H 0.48426 0.46655 0.77401 0.0
C555 C 0.48017 0.3953 0.82156 0.0
C556 C 0.47676 0.45784 0.81933 0.0
H557 H 0.49008 0.31165 0.80894 0.0
H558 H 0.48264 0.37701 0.8348 0.0
C559 C 0.47636 0.48095 0.80185 0.0
C560 C 0.14322 0.43686 0.98836 0.0
C561 C 1.08529 0.44861 0.98622 0.0
H562 H 0.23207 0.43564 0.97599 0.0
C563 C 1.07048 0.46362 0.96899 0.0
H564 H 0.15715 0.42673 1.00146 0.0
C565 C 0.11327 0.4692 0.95445 0.0
C566 C 0.17337 0.46096 0.95659 0.0
H567 H 1.02695 0.47404 0.96685 0.0
H568 H 0.10095 0.48347 0.94165 0.0
C569 C 0.18688 0.44328 0.97375 0.0
C570 C 0.72118 1.04222 0.14221 0.0
C571 C 0.70744 0.07698 0.15612 0.0
H572 H 0.7625 1.04962 0.11589 0.0
C573 C 0.73167 0.14955 0.15439 0.0
H574 H 0.70138 0.98596 0.1429 0.0
C575 C 0.7666 0.18618 0.13901 0.0
C576 C 0.77753 0.15132 0.12458 0.0
H577 H 0.72128 0.17776 0.16479 0.0
H578 H 0.78403 0.24197 0.13838 0.0
C579 C 0.75575 0.0789 0.12663 0.0
C580 C 0.71009 0.73041 0.32048 0.0
C581 C 0.71209 0.66717 0.31825 0.0
H582 H 0.7015 0.81489 0.30785 0.0
C583 C 0.71139 0.64359 0.30078 0.0
H584 H 0.70856 0.74913 0.33372 0.0
C585 C 0.70627 0.68027 0.286 0.0
C586 C 0.70095 0.74192 0.28807 0.0
H587 H 0.7113 0.59432 0.29855 0.0
H588 H 0.70291 0.65798 0.27294 0.0
C589 C 0.70449 0.76725 0.30559 0.0
C590 C 1.04787 0.69223 0.48755 0.0
C591 C 0.10547 0.67994 0.48562 0.0
H592 H 0.95917 0.69348 0.47493 0.0
C593 C 0.12003 0.66413 0.46849 0.0
H594 H 1.03422 0.70307 0.50058 0.0
C595 C 1.0772 0.65822 0.45385 0.0
C596 C 1.01735 0.66692 0.4558 0.0
H597 H 0.16337 0.65336 0.46652 0.0
H598 H 1.08925 0.64335 0.44113 0.0
C599 C 1.00416 0.68546 0.47285 0.0
C600 C 0.52498 0.66595 0.36776 0.0
C601 C 0.57739 0.65613 0.3768 0.0
H602 H 0.47002 0.72688 0.36491 0.0
C603 C 0.61367 0.70475 0.39055 0.0
H604 H 0.49582 0.63099 0.35694 0.0
C605 C 0.59871 0.75939 0.39514 0.0
C606 C 0.547 0.77016 0.38618 0.0
H607 H 0.6546 0.70088 0.39795 0.0
H608 H 0.62902 0.79417 0.40588 0.0
C609 C 0.51036 0.72187 0.37227 0.0
C610 C 0.89806 0.60203 0.55358 0.0
C611 C 0.8403 0.5328 0.55272 0.0
H612 H 1.00981 0.67182 0.55107 0.0
C613 C 0.85771 0.47972 0.5481 0.0
H614 H 0.88895 0.64519 0.55716 0.0
C615 C 0.92882 0.49543 0.54443 0.0
C616 C 0.98653 0.56491 0.54548 0.0
H617 H 0.81619 0.42556 0.5473 0.0
H618 H 0.93852 0.45267 0.54083 0.0
C619 C 0.96871 0.61751 0.55015 0.0
C620 C 0.48947 0.89163 0.70864 0.0
C621 C 0.48696 0.95188 0.71509 0.0
H622 H 0.43863 0.77753 0.70675 0.0
C623 C 0.42619 0.93827 0.72487 0.0
H624 H 0.53427 0.89864 0.70083 0.0
C625 C 0.37183 0.86886 0.72841 0.0
C626 C 0.37358 0.80842 0.72199 0.0
H627 H 0.42059 0.9818 0.73004 0.0
H628 H 0.32742 0.8626 0.73629 0.0
C629 C 0.43372 0.82149 0.71186 0.0
C630 C 0.57601 0.42021 0.89138 0.0
C631 C 0.61181 0.46893 0.87767 0.0
H632 H 0.56117 0.33053 0.90654 0.0
C633 C 0.66375 0.45914 0.8685 0.0
H634 H 0.53544 0.4241 0.89885 0.0
C635 C 0.67842 0.40312 0.87286 0.0
C636 C 0.64229 0.35473 0.88672 0.0
H637 H 0.6925 0.49419 0.8577 0.0
H638 H 0.71838 0.3981 0.86541 0.0
C639 C 0.59104 0.36543 0.89581 0.0
C640 C 0.22173 0.51421 1.05008 0.0
C641 C 0.2038 0.56677 1.04542 0.0
H642 H 0.3017 0.48654 1.05698 0.0
C643 C 0.26144 0.63622 1.04428 0.0
H644 H 0.18066 0.45992 1.05105 0.0
C645 C 0.33269 0.65195 1.04788 0.0
C646 C 0.35018 0.59887 1.05248 0.0
H647 H 0.25159 0.67891 1.04067 0.0
H648 H 0.37422 0.70607 1.04703 0.0
C649 C 0.29247 0.52968 1.05342 0.0
C650 C 0.81767 0.25734 0.22836 0.0
C651 C 0.81584 0.31801 0.22213 0.0
H652 H 0.76868 0.14437 0.22975 0.0
C653 C 0.75531 0.30539 0.21212 0.0
H654 H 0.86241 0.26323 0.23612 0.0
C655 C 0.69928 0.23542 0.20882 0.0
C656 C 0.7019 0.17494 0.21506 0.0
H657 H 0.75039 0.34956 0.20714 0.0
H658 H 0.6542 0.22873 0.20109 0.0
C659 C 0.76301 0.18811 0.22474 0.0
C660 C 0.36399 0.53176 0.55214 0.0
C661 C 0.37457 0.60137 0.55227 0.0
H662 H 0.40702 0.46149 0.5551 0.0
C663 C 0.44456 0.65473 0.55604 0.0
H664 H 0.3121 0.48838 0.54924 0.0
C665 C 0.50046 0.63887 0.55961 0.0
C666 C 0.48953 0.56894 0.55926 0.0
H667 H 0.45641 0.70916 0.55625 0.0
H668 H 0.55256 0.68178 0.56256 0.0
C669 C 0.41957 0.51613 0.55544 0.0
C670 C 0.90264 0.34191 0.70702 0.0
C671 C 0.84168 0.34112 0.7141 0.0
H672 H 1.01592 0.39316 0.70495 0.0
C673 C 0.85414 0.39919 0.72499 0.0
H674 H 0.89697 0.29909 0.69859 0.0
C675 C 0.92409 0.45532 0.72834 0.0
C676 C 0.98486 0.45538 0.72123 0.0
H677 H 0.8098 0.40202 0.73069 0.0
H678 H 0.93058 0.49837 0.73679 0.0
C679 C 0.97196 0.39677 0.71064 0.0
C680 C 0.66031 0.94352 0.88506 0.0
C681 C 0.60729 0.96278 0.8878 0.0
H682 H 0.68766 0.8621 0.88007 0.0
C683 C 0.53688 0.9065 0.8876 0.0
H684 H 0.71526 0.98365 0.88521 0.0
C685 C 0.5207 0.83511 0.88465 0.0
C686 C 0.57411 0.81621 0.88191 0.0
H687 H 0.49381 0.91745 0.88977 0.0
H688 H 0.46591 0.7946 0.88447 0.0
C689 C 0.64425 0.87259 0.8822 0.0
C690 C 0.69145 0.49266 1.0603 0.0
C691 C 0.70143 0.56217 1.05928 0.0
H692 H 0.73615 0.42278 1.05738 0.0
C693 C 0.77043 0.61477 1.05468 0.0
H694 H 0.64011 0.44994 0.06385 0.0
C695 C 0.826 0.59933 1.0513 0.0
C696 C 0.81634 0.5301 1.05209 0.0
H697 H 0.78223 0.66912 1.0538 0.0
H698 H 0.87714 0.64253 1.04779 0.0
C699 C 0.74728 0.47694 1.05663 0.0
C700 C 0.33652 0.72629 0.22414 0.0
C701 C 0.3483 0.7862 0.2141 0.0
H702 H 0.26067 0.62554 0.23527 0.0
C703 C 0.28694 0.78721 0.20791 0.0
H704 H 0.38124 0.72205 0.22911 0.0
C705 C 0.21787 0.73234 0.21158 0.0
C706 C 0.20555 0.67188 0.22131 0.0
H707 H 0.29214 0.83144 0.20015 0.0
H708 H 0.17358 0.73735 0.2066 0.0
C709 C 0.2667 0.67009 0.22751 0.0
C710 C 0.54568 0.25259 0.38123 0.0
C711 C 0.61567 0.3093 0.38126 0.0
H712 H 0.475 0.14144 0.38417 0.0
C713 C 0.66916 0.29085 0.38457 0.0
H714 H 0.50221 0.26268 0.37867 0.0
C715 C 0.65321 0.21964 0.38775 0.0
C716 C 0.58296 0.16303 0.38762 0.0
H717 H 0.72386 0.33161 0.38466 0.0
H718 H 0.69633 0.20907 0.39037 0.0
C719 C 0.52985 0.18183 0.38431 0.0
C720 C 0.3314 0.71739 0.46844 0.0
C721 C 0.35034 0.75045 0.48521 0.0
H722 H 0.34952 0.7263 0.4402 0.0
C723 C 0.40791 0.81933 0.48595 0.0
H724 H 0.28724 0.66472 0.46722 0.0
C725 C 0.44509 0.85397 0.47045 0.0
C726 C 0.42457 0.82169 0.45362 0.0
H727 H 0.4241 0.84676 0.49855 0.0
H728 H 0.48839 0.9072 0.47156 0.0
C729 C 0.36712 0.75285 0.45288 0.0
C730 C 0.65241 0.30363 0.6179 0.0
C731 C 0.65958 0.3715 0.6192 0.0
H732 H 0.6484 0.21479 0.6316 0.0
C733 C 0.66921 0.40157 0.63628 0.0
H734 H 0.64469 0.27852 0.60505 0.0
C735 C 0.66981 0.36434 0.65157 0.0
C736 C 0.66278 0.29656 0.65027 0.0
H737 H 0.67423 0.4533 0.63791 0.0
H738 H 0.67567 0.38871 0.66447 0.0
C739 C 0.65492 0.26715 0.63317 0.0
C740 C 0.43477 0.64751 0.80149 0.0
C741 C 0.40394 0.6338 0.81851 0.0
H742 H 0.42152 0.65581 0.77343 0.0
C743 C 0.33405 0.62161 0.8199 0.0
H744 H 0.48815 0.65664 0.79977 0.0
C745 C 0.29634 0.62318 0.80471 0.0
C746 C 0.32674 0.63484 0.78767 0.0
H747 H 0.30837 0.61066 0.83273 0.0
H748 H 0.24245 0.61276 0.80624 0.0
C749 C 0.39645 0.6469 0.78631 0.0
C750 C 0.74687 0.27322 0.97024 0.0
C751 C 0.76744 0.30519 0.9534 0.0
H752 H 0.76738 0.28118 0.9984 0.0
C753 C 0.82455 0.37416 0.95268 0.0
H754 H 0.70375 0.21991 0.97134 0.0
C755 C 0.85985 0.41009 0.96827 0.0
C756 C 0.84077 0.37738 0.98507 0.0
H757 H 0.8421 0.40049 0.93999 0.0
H758 H 0.9037 0.46293 0.96708 0.0
C759 C 0.78363 0.30833 0.98579 0.0
C760 C 0.53474 0.86301 0.13259 0.0
C761 C 0.52291 0.83169 0.14955 0.0
H762 H 0.548 0.85322 0.10458 0.0
C763 C 0.51094 0.76208 0.15064 0.0
H764 H 0.54503 0.91677 0.13123 0.0
C765 C 0.51077 0.72492 0.13528 0.0
C766 C 0.5249 0.75692 0.11838 0.0
H767 H 0.50182 0.73622 0.16342 0.0
H768 H 0.50178 0.67165 0.13676 0.0
C769 C 0.53674 0.82657 0.11729 0.0
C770 C 0.75389 0.47715 0.30051 0.0
C771 C 0.78497 0.49148 0.31757 0.0
H772 H 0.76686 0.46843 0.27248 0.0
C773 C 0.85511 0.50434 0.31904 0.0
H774 H 0.70032 0.4675 0.29872 0.0
C775 C 0.89281 0.50289 0.30391 0.0
C776 C 0.86217 0.49062 0.28682 0.0
H777 H 0.88103 0.51578 0.33189 0.0
H778 H 0.9469 0.51391 0.30552 0.0
C779 C 0.79217 0.47781 0.28538 0.0
C780 C 0.11233 0.29581 0.42719 0.0
C781 C 0.11417 0.35732 0.43362 0.0
H782 H 1.04929 0.19652 0.41488 0.0
C783 C 1.06773 0.37835 0.42617 0.0
H784 H 0.14958 0.27987 0.43203 0.0
C785 C 1.01119 0.33142 0.41572 0.0
C786 C 0.99981 0.2627 0.41304 0.0
H787 H 1.0686 0.42641 0.43036 0.0
H788 H 0.97155 0.34562 0.41185 0.0
C789 C 1.05479 0.2481 0.41715 0.0
C790 C 0.72826 0.78203 0.69097 0.0
C791 C 0.79116 0.84199 0.69598 0.0
H792 H 0.68291 0.68942 0.67514 0.0
C793 C 0.85452 0.83904 0.69538 0.0
H794 H 0.67802 0.78129 0.69171 0.0
C795 C 0.85741 0.78573 0.6857 0.0
C796 C 0.79687 0.73555 0.67671 0.0
H797 H 0.90341 0.88304 0.7 0.0
H798 H 0.90849 0.79021 0.683 0.0
C799 C 0.73111 0.72871 0.68138 0.0
C800 C 0.76749 0.73407 0.74543 0.0
C801 C 0.78415 0.78885 0.7577 0.0
H802 H 0.80968 0.6852 0.72827 0.0
C803 C 0.84997 0.85004 0.75622 0.0
H804 H 0.7158 0.68785 0.74542 0.0
C805 C 0.90331 0.84884 0.74625 0.0
C806 C 0.89118 0.78642 0.73774 0.0
H807 H 0.8646 0.89467 0.76492 0.0
H808 H 0.95617 0.89256 0.74776 0.0
C809 C 0.8212 0.73256 0.73556 0.0
C810 C 0.13012 0.86145 0.91299 0.0
C811 C 0.19531 0.86213 0.91254 0.0
H812 H 1.02803 0.81552 0.925 0.0
C813 C 0.19858 0.80247 0.91847 0.0
H814 H 0.12529 0.90552 0.90787 0.0
C815 C 0.14264 0.75058 0.92802 0.0
C816 C 1.08335 0.75832 0.93183 0.0
H817 H 0.24751 0.80047 0.91809 0.0
H818 H 0.15086 0.71084 0.93464 0.0
C819 C 1.0743 0.80978 0.9227 0.0
C820 C 0.45648 0.34462 0.19023 0.0
C821 C 0.39372 0.28432 0.19505 0.0
H822 H 0.50168 0.43733 0.17447 0.0
C823 C 0.33002 0.28657 0.19408 0.0
H824 H 0.50694 0.3459 0.19125 0.0
C825 C 0.32691 0.33951 0.18425 0.0
C826 C 0.3876 0.39021 0.17553 0.0
H827 H 0.28117 0.24232 0.19855 0.0
H828 H 0.27572 0.33447 0.18126 0.0
C829 C 0.45342 0.39766 0.18052 0.0
C830 C 0.34105 0.27586 0.25459 0.0
C831 C 0.40697 0.33694 0.25619 0.0
H832 H 0.23458 0.23406 0.24624 0.0
C833 C 0.42351 0.39196 0.24402 0.0
H834 H 0.32654 0.23093 0.26316 0.0
C835 C 0.36955 0.39411 0.2343 0.0
C836 C 0.29952 0.34056 0.23652 0.0
H837 H 0.47531 0.43805 0.24405 0.0
H838 H 0.38101 0.44177 0.22716 0.0
C839 C 0.28747 0.27767 0.24475 0.0
loop_
_geom_bond_atom_site_label_1
_geom_bond_atom_site_label_2
_geom_bond_distance
_geom_bond_site_symmetry_2
_ccdc_geom_bond_type
Eu0 C9 2.828 . S
Eu0 O11 2.392 1_545 S
Eu0 O13 2.418 1_545 S
Eu0 O18 2.373 . S
Eu0 O21 2.488 . S
Eu0 O22 2.471 . S
Eu0 O23 2.349 . S
Eu1 O10 2.373 . S
Eu1 O14 2.488 . S
Eu1 O15 2.471 . S
Eu1 O16 2.349 . S
Eu1 O19 2.392 1_565 S
Eu1 O20 2.418 1_565 S
Eu1 C30 2.828 . S
C2 O20 1.244 . S
C2 O23 1.265 . S
C3 C4 1.379 . S
C3 C7 1.373 . S
C3 C9 1.505 . S
C4 C3 1.379 . S
C4 C6 1.369 . S
C4 H32 0.930 . S
C5 C7 1.383 . S
C5 C8 1.382 . S
C5 H33 0.930 . S
C6 C4 1.369 . S
C6 C8 1.392 . S
C6 H34 0.930 . S
C7 C3 1.373 . S
C7 C5 1.383 . S
C7 H35 0.931 . S
C8 C5 1.382 . S
C8 C6 1.392 . S
C9 Eu0 2.828 . S
C9 C3 1.505 . S
C9 O21 1.249 . S
C9 O22 1.244 . S
O10 Eu1 2.373 . S
O10 C12 1.258 . S
O11 Eu0 2.392 1_565 S
O11 C12 1.242 . S
C12 O10 1.258 . S
C12 O11 1.242 . S
O13 Eu0 2.418 1_565 S
O13 C17 1.244 . S
O14 Eu1 2.488 . S
O14 C30 1.249 . S
O15 Eu1 2.471 . S
O15 C30 1.244 . S
O16 Eu1 2.349 . S
O16 C17 1.265 . S
C17 O13 1.244 . S
C17 O16 1.265 . S
O18 Eu0 2.373 . S
O18 C31 1.258 . S
O19 Eu1 2.392 1_545 S
O19 C31 1.242 . S
O20 Eu1 2.418 1_545 S
O20 C2 1.244 . S
O21 Eu0 2.488 . S
O21 C9 1.249 . S
O22 Eu0 2.471 . S
O22 C9 1.244 . S
O23 Eu0 2.349 . S
O23 C2 1.265 . S
C24 C25 1.379 . S
C24 C28 1.373 . S
C24 C30 1.505 . S
C25 C24 1.379 . S
C25 C27 1.369 . S
C25 H36 0.930 . S
C26 C28 1.383 . S
C26 C29 1.382 . S
C26 H37 0.930 . S
C27 C25 1.369 . S
C27 C29 1.392 . S
C27 H38 0.930 . S
C28 C24 1.373 . S
C28 C26 1.383 . S
C28 H39 0.931 . S
C29 C26 1.382 . S
C29 C27 1.392 . S
C30 Eu1 2.828 . S
C30 O14 1.249 . S
C30 O15 1.244 . S
C30 C24 1.505 . S
C31 O18 1.258 . S
C31 O19 1.242 . S
H32 C4 0.930 . S
H33 C5 0.930 . S
H34 C6 0.930 . S
H35 C7 0.931 . S
H36 C25 0.930 . S
H37 C26 0.930 . S
H38 C27 0.930 . S
H39 C28 0.931 . S
Eu40 C49 2.828 . S
Eu40 O51 2.392 . S
Eu40 O53 2.418 . S
Eu40 O58 2.373 . S
Eu40 O61 2.488 . S
Eu40 O62 2.471 . S
Eu40 O63 2.349 . S
Eu41 O50 2.373 . S
Eu41 O54 2.488 . S
Eu41 O55 2.471 . S
Eu41 O56 2.349 . S
Eu41 O59 2.392 . S
Eu41 O60 2.418 . S
Eu41 C70 2.828 . S
C42 O60 1.244 . S
C42 O63 1.265 . S
C43 C44 1.379 . S
C43 C47 1.373 . S
C43 C49 1.505 . S
C44 C43 1.379 . S
C44 C46 1.369 . S
C44 H72 0.930 . S
C45 C47 1.383 . S
C45 C48 1.382 . S
C45 H73 0.930 . S
C46 C44 1.369 . S
C46 C48 1.392 . S
C46 H74 0.930 . S
C47 C43 1.373 . S
C47 C45 1.383 . S
C47 H75 0.931 . S
C48 C45 1.382 . S
C48 C46 1.392 . S
C49 Eu40 2.828 . S
C49 C43 1.505 . S
C49 O61 1.249 . S
C49 O62 1.244 . S
O50 Eu41 2.373 . S
O50 C52 1.258 . S
O51 Eu40 2.392 . S
O51 C52 1.242 . S
C52 O50 1.258 . S
C52 O51 1.242 . S
O53 Eu40 2.418 . S
O53 C57 1.244 . S
O54 Eu41 2.488 . S
O54 C70 1.249 . S
O55 Eu41 2.471 . S
O55 C70 1.244 . S
O56 Eu41 2.349 . S
O56 C57 1.265 . S
C57 O53 1.244 . S
C57 O56 1.265 . S
O58 Eu40 2.373 . S
O58 C71 1.258 . S
O59 Eu41 2.392 . S
O59 C71 1.242 . S
O60 Eu41 2.418 . S
O60 C42 1.244 . S
O61 Eu40 2.488 . S
O61 C49 1.249 . S
O62 Eu40 2.471 . S
O62 C49 1.244 . S
O63 Eu40 2.349 . S
O63 C42 1.265 . S
C64 C65 1.379 . S
C64 C68 1.373 . S
C64 C70 1.505 . S
C65 C64 1.379 . S
C65 C67 1.369 . S
C65 H76 0.930 . S
C66 C68 1.383 . S
C66 C69 1.382 . S
C66 H77 0.930 . S
C67 C65 1.369 . S
C67 C69 1.392 . S
C67 H78 0.930 . S
C68 C64 1.373 . S
C68 C66 1.383 . S
C68 H79 0.931 . S
C69 C66 1.382 . S
C69 C67 1.392 . S
C70 Eu41 2.828 . S
C70 O54 1.249 . S
C70 O55 1.244 . S
C70 C64 1.505 . S
C71 O58 1.258 . S
C71 O59 1.242 . S
H72 C44 0.930 . S
H73 C45 0.930 . S
H74 C46 0.930 . S
H75 C47 0.931 . S
H76 C65 0.930 . S
H77 C66 0.930 . S
H78 C67 0.930 . S
H79 C68 0.931 . S
Eu80 C89 2.828 . S
Eu80 O91 2.392 1_655 S
Eu80 O93 2.418 1_655 S
Eu80 O98 2.373 . S
Eu80 O101 2.488 . S
Eu80 O102 2.471 . S
Eu80 O103 2.349 . S
Eu81 O90 2.373 . S
Eu81 O94 2.488 . S
Eu81 O95 2.471 . S
Eu81 O96 2.349 . S
Eu81 O99 2.392 1_455 S
Eu81 O100 2.418 1_455 S
Eu81 C110 2.828 . S
C82 O100 1.244 . S
C82 O103 1.265 . S
C83 C84 1.379 . S
C83 C87 1.373 . S
C83 C89 1.505 . S
C84 C83 1.379 . S
C84 C86 1.369 . S
C84 H112 0.930 . S
C85 C87 1.383 . S
C85 C88 1.382 . S
C85 H113 0.930 . S
C86 C84 1.369 . S
C86 C88 1.392 . S
C86 H114 0.930 . S
C87 C83 1.373 . S
C87 C85 1.383 . S
C87 H115 0.931 . S
C88 C85 1.382 . S
C88 C86 1.392 . S
C89 Eu80 2.828 . S
C89 C83 1.505 . S
C89 O101 1.249 . S
C89 O102 1.244 . S
O90 Eu81 2.373 . S
O90 C92 1.258 . S
O91 Eu80 2.392 1_455 S
O91 C92 1.242 . S
C92 O90 1.258 . S
C92 O91 1.242 . S
O93 Eu80 2.418 1_455 S
O93 C97 1.244 . S
O94 Eu81 2.488 . S
O94 C110 1.249 . S
O95 Eu81 2.471 . S
O95 C110 1.244 . S
O96 Eu81 2.349 . S
O96 C97 1.265 . S
C97 O93 1.244 . S
C97 O96 1.265 . S
O98 Eu80 2.373 . S
O98 C111 1.258 . S
O99 Eu81 2.392 1_655 S
O99 C111 1.242 . S
O100 Eu81 2.418 1_655 S
O100 C82 1.244 . S
O101 Eu80 2.488 . S
O101 C89 1.249 . S
O102 Eu80 2.471 . S
O102 C89 1.244 . S
O103 Eu80 2.349 . S
O103 C82 1.265 . S
C104 C105 1.379 . S
C104 C108 1.373 . S
C104 C110 1.505 . S
C105 C104 1.379 . S
C105 C107 1.369 . S
C105 H116 0.930 . S
C106 C108 1.383 . S
C106 C109 1.382 . S
C106 H117 0.930 . S
C107 C105 1.369 . S
C107 C109 1.392 . S
C107 H118 0.930 . S
C108 C104 1.373 . S
C108 C106 1.383 . S
C108 H119 0.931 . S
C109 C106 1.382 . S
C109 C107 1.392 . S
C110 Eu81 2.828 . S
C110 O94 1.249 . S
C110 O95 1.244 . S
C110 C104 1.505 . S
C111 O98 1.258 . S
C111 O99 1.242 . S
H112 C84 0.930 . S
H113 C85 0.930 . S
H114 C86 0.930 . S
H115 C87 0.931 . S
H116 C105 0.930 . S
H117 C106 0.930 . S
H118 C107 0.930 . S
H119 C108 0.931 . S
Eu120 C129 2.828 . S
Eu120 O131 2.392 1_565 S
Eu120 O133 2.418 1_565 S
Eu120 O138 2.373 . S
Eu120 O141 2.488 . S
Eu120 O142 2.471 . S
Eu120 O143 2.349 . S
Eu121 O130 2.373 . S
Eu121 O134 2.488 . S
Eu121 O135 2.471 . S
Eu121 O136 2.349 . S
Eu121 O139 2.392 1_545 S
Eu121 O140 2.418 1_545 S
Eu121 C150 2.828 . S
C122 O140 1.244 . S
C122 O143 1.265 . S
C123 C124 1.379 . S
C123 C127 1.373 . S
C123 C129 1.505 . S
C124 C123 1.379 . S
C124 C126 1.369 . S
C124 H152 0.930 . S
C125 C127 1.383 . S
C125 C128 1.382 . S
C125 H153 0.930 . S
C126 C124 1.369 . S
C126 C128 1.392 . S
C126 H154 0.930 . S
C127 C123 1.373 . S
C127 C125 1.383 . S
C127 H155 0.931 . S
C128 C125 1.382 . S
C128 C126 1.392 . S
C129 Eu120 2.828 . S
C129 C123 1.505 . S
C129 O141 1.249 . S
C129 O142 1.244 . S
O130 Eu121 2.373 . S
O130 C132 1.258 . S
O131 Eu120 2.392 1_545 S
O131 C132 1.242 . S
C132 O130 1.258 . S
C132 O131 1.242 . S
O133 Eu120 2.418 1_545 S
O133 C137 1.244 . S
O134 Eu121 2.488 . S
O134 C150 1.249 . S
O135 Eu121 2.471 . S
O135 C150 1.244 . S
O136 Eu121 2.349 . S
O136 C137 1.265 . S
C137 O133 1.244 . S
C137 O136 1.265 . S
O138 Eu120 2.373 . S
O138 C151 1.258 . S
O139 Eu121 2.392 1_565 S
O139 C151 1.242 . S
O140 Eu121 2.418 1_565 S
O140 C122 1.244 . S
O141 Eu120 2.488 . S
O141 C129 1.249 . S
O142 Eu120 2.471 . S
O142 C129 1.244 . S
O143 Eu120 2.349 . S
O143 C122 1.265 . S
C144 C145 1.379 . S
C144 C148 1.373 . S
C144 C150 1.505 . S
C145 C144 1.379 . S
C145 C147 1.369 . S
C145 H156 0.930 . S
C146 C148 1.383 . S
C146 C149 1.382 . S
C146 H157 0.930 . S
C147 C145 1.369 . S
C147 C149 1.392 . S
C147 H158 0.930 . S
C148 C144 1.373 . S
C148 C146 1.383 . S
C148 H159 0.931 . S
C149 C146 1.382 . S
C149 C147 1.392 . S
C150 Eu121 2.828 . S
C150 O134 1.249 . S
C150 O135 1.244 . S
C150 C144 1.505 . S
C151 O138 1.258 . S
C151 O139 1.242 . S
H152 C124 0.930 . S
H153 C125 0.930 . S
H154 C126 0.930 . S
H155 C127 0.931 . S
H156 C145 0.930 . S
H157 C146 0.930 . S
H158 C147 0.930 . S
H159 C148 0.931 . S
Eu160 C169 2.828 . S
Eu160 O171 2.392 . S
Eu160 O173 2.418 . S
Eu160 O178 2.373 . S
Eu160 O181 2.488 . S
Eu160 O182 2.471 . S
Eu160 O183 2.349 . S
Eu161 O170 2.373 1_554 S
Eu161 O174 2.488 1_554 S
Eu161 O175 2.471 1_554 S
Eu161 O176 2.349 . S
Eu161 O179 2.392 . S
Eu161 O180 2.418 1_554 S
Eu161 C190 2.828 1_554 S
C162 O180 1.244 . S
C162 O183 1.265 1_556 S
C163 C164 1.379 . S
C163 C167 1.373 . S
C163 C169 1.505 . S
C164 C163 1.379 . S
C164 C166 1.369 . S
C164 H192 0.930 . S
C165 C167 1.383 . S
C165 C168 1.382 . S
C165 H193 0.930 . S
C166 C164 1.369 . S
C166 C168 1.392 . S
C166 H194 0.930 . S
C167 C163 1.373 . S
C167 C165 1.383 . S
C167 H195 0.931 . S
C168 C165 1.382 . S
C168 C166 1.392 . S
C169 Eu160 2.828 . S
C169 C163 1.505 . S
C169 O181 1.249 . S
C169 O182 1.244 . S
O170 Eu161 2.373 1_556 S
O170 C172 1.258 . S
O171 Eu160 2.392 . S
O171 C172 1.242 1_554 S
C172 O170 1.258 . S
C172 O171 1.242 1_556 S
O173 Eu160 2.418 . S
O173 C177 1.244 . S
O174 Eu161 2.488 1_556 S
O174 C190 1.249 . S
O175 Eu161 2.471 1_556 S
O175 C190 1.244 . S
O176 Eu161 2.349 . S
O176 C177 1.265 . S
C177 O173 1.244 . S
C177 O176 1.265 . S
O178 Eu160 2.373 . S
O178 C191 1.258 . S
O179 Eu161 2.392 . S
O179 C191 1.242 . S
O180 Eu161 2.418 1_556 S
O180 C162 1.244 . S
O181 Eu160 2.488 . S
O181 C169 1.249 . S
O182 Eu160 2.471 . S
O182 C169 1.244 . S
O183 Eu160 2.349 . S
O183 C162 1.265 1_554 S
C184 C185 1.379 . S
C184 C188 1.373 . S
C184 C190 1.505 . S
C185 C184 1.379 . S
C185 C187 1.369 . S
C185 H196 0.930 . S
C186 C188 1.383 . S
C186 C189 1.382 . S
C186 H197 0.930 . S
C187 C185 1.369 . S
C187 C189 1.392 . S
C187 H198 0.930 . S
C188 C184 1.373 . S
C188 C186 1.383 . S
C188 H199 0.931 . S
C189 C186 1.382 . S
C189 C187 1.392 . S
C190 Eu161 2.828 1_556 S
C190 O174 1.249 . S
C190 O175 1.244 . S
C190 C184 1.505 . S
C191 O178 1.258 . S
C191 O179 1.242 . S
H192 C164 0.930 . S
H193 C165 0.930 . S
H194 C166 0.930 . S
H195 C167 0.931 . S
H196 C185 0.930 . S
H197 C186 0.930 . S
H198 C187 0.930 . S
H199 C188 0.931 . S
Eu200 C209 2.828 . S
Eu200 O211 2.392 1_455 S
Eu200 O213 2.418 1_455 S
Eu200 O218 2.373 . S
Eu200 O221 2.488 . S
Eu200 O222 2.471 . S
Eu200 O223 2.349 . S
Eu201 O210 2.373 . S
Eu201 O214 2.488 . S
Eu201 O215 2.471 . S
Eu201 O216 2.349 . S
Eu201 O219 2.392 1_655 S
Eu201 O220 2.418 1_655 S
Eu201 C230 2.828 . S
C202 O220 1.244 . S
C202 O223 1.265 . S
C203 C204 1.379 . S
C203 C207 1.373 . S
C203 C209 1.505 . S
C204 C203 1.379 . S
C204 C206 1.369 . S
C204 H232 0.930 . S
C205 C207 1.383 . S
C205 C208 1.382 . S
C205 H233 0.930 . S
C206 C204 1.369 . S
C206 C208 1.392 . S
C206 H234 0.930 . S
C207 C203 1.373 . S
C207 C205 1.383 . S
C207 H235 0.931 . S
C208 C205 1.382 . S
C208 C206 1.392 . S
C209 Eu200 2.828 . S
C209 C203 1.505 . S
C209 O221 1.249 . S
C209 O222 1.244 . S
O210 Eu201 2.373 . S
O210 C212 1.258 . S
O211 Eu200 2.392 1_655 S
O211 C212 1.242 . S
C212 O210 1.258 . S
C212 O211 1.242 . S
O213 Eu200 2.418 1_655 S
O213 C217 1.244 . S
O214 Eu201 2.488 . S
O214 C230 1.249 . S
O215 Eu201 2.471 . S
O215 C230 1.244 . S
O216 Eu201 2.349 . S
O216 C217 1.265 . S
C217 O213 1.244 . S
C217 O216 1.265 . S
O218 Eu200 2.373 . S
O218 C231 1.258 . S
O219 Eu201 2.392 1_455 S
O219 C231 1.242 . S
O220 Eu201 2.418 1_455 S
O220 C202 1.244 . S
O221 Eu200 2.488 . S
O221 C209 1.249 . S
O222 Eu200 2.471 . S
O222 C209 1.244 . S
O223 Eu200 2.349 . S
O223 C202 1.265 . S
C224 C225 1.379 . S
C224 C228 1.373 . S
C224 C230 1.505 . S
C225 C224 1.379 . S
C225 C227 1.369 . S
C225 H236 0.930 . S
C226 C228 1.383 . S
C226 C229 1.382 . S
C226 H237 0.930 . S
C227 C225 1.369 . S
C227 C229 1.392 . S
C227 H238 0.930 . S
C228 C224 1.373 . S
C228 C226 1.383 . S
C228 H239 0.931 . S
C229 C226 1.382 . S
C229 C227 1.392 . S
C230 Eu201 2.828 . S
C230 O214 1.249 . S
C230 O215 1.244 . S
C230 C224 1.505 . S
C231 O218 1.258 . S
C231 O219 1.242 . S
H232 C204 0.930 . S
H233 C205 0.930 . S
H234 C206 0.930 . S
H235 C207 0.931 . S
H236 C225 0.930 . S
H237 C226 0.930 . S
H238 C227 0.930 . S
H239 C228 0.931 . S
Eu240 C249 2.828 . S
Eu240 O251 2.392 1_655 S
Eu240 O253 2.418 1_655 S
Eu240 O258 2.373 . S
Eu240 O261 2.488 . S
Eu240 O262 2.471 . S
Eu240 O263 2.349 . S
Eu241 O250 2.373 . S
Eu241 O254 2.488 . S
Eu241 O255 2.471 . S
Eu241 O256 2.349 . S
Eu241 O259 2.392 1_455 S
Eu241 O260 2.418 1_455 S
Eu241 C270 2.828 . S
C242 O260 1.244 . S
C242 O263 1.265 . S
C243 C244 1.379 . S
C243 C247 1.373 . S
C243 C249 1.505 . S
C244 C243 1.379 . S
C244 C246 1.369 . S
C244 H272 0.930 . S
C245 C247 1.383 . S
C245 C248 1.382 . S
C245 H273 0.930 . S
C246 C244 1.369 . S
C246 C248 1.392 . S
C246 H274 0.930 . S
C247 C243 1.373 . S
C247 C245 1.383 . S
C247 H275 0.931 . S
C248 C245 1.382 . S
C248 C246 1.392 . S
C249 Eu240 2.828 . S
C249 C243 1.505 . S
C249 O261 1.249 . S
C249 O262 1.244 . S
O250 Eu241 2.373 . S
O250 C252 1.258 . S
O251 Eu240 2.392 1_455 S
O251 C252 1.242 . S
C252 O250 1.258 . S
C252 O251 1.242 . S
O253 Eu240 2.418 1_455 S
O253 C257 1.244 . S
O254 Eu241 2.488 . S
O254 C270 1.249 . S
O255 Eu241 2.471 . S
O255 C270 1.244 . S
O256 Eu241 2.349 . S
O256 C257 1.265 . S
C257 O253 1.244 . S
C257 O256 1.265 . S
O258 Eu240 2.373 . S
O258 C271 1.258 . S
O259 Eu241 2.392 1_655 S
O259 C271 1.242 . S
O260 Eu241 2.418 1_655 S
O260 C242 1.244 . S
O261 Eu240 2.488 . S
O261 C249 1.249 . S
O262 Eu240 2.471 . S
O262 C249 1.244 . S
O263 Eu240 2.349 . S
O263 C242 1.265 . S
C264 C265 1.379 . S
C264 C268 1.373 . S
C264 C270 1.505 . S
C265 C264 1.379 . S
C265 C267 1.369 . S
C265 H276 0.930 . S
C266 C268 1.383 . S
C266 C269 1.382 . S
C266 H277 0.930 . S
C267 C265 1.369 . S
C267 C269 1.392 . S
C267 H278 0.930 . S
C268 C264 1.373 . S
C268 C266 1.383 . S
C268 H279 0.931 . S
C269 C266 1.382 . S
C269 C267 1.392 . S
C270 Eu241 2.828 . S
C270 O254 1.249 . S
C270 O255 1.244 . S
C270 C264 1.505 . S
C271 O258 1.258 . S
C271 O259 1.242 . S
H272 C244 0.930 . S
H273 C245 0.930 . S
H274 C246 0.930 . S
H275 C247 0.931 . S
H276 C265 0.930 . S
H277 C266 0.930 . S
H278 C267 0.930 . S
H279 C268 0.931 . S
Eu280 C289 2.828 . S
Eu280 O291 2.392 1_565 S
Eu280 O293 2.418 1_565 S
Eu280 O298 2.373 . S
Eu280 O301 2.488 . S
Eu280 O302 2.471 . S
Eu280 O303 2.349 . S
Eu281 O290 2.373 . S
Eu281 O294 2.488 . S
Eu281 O295 2.471 . S
Eu281 O296 2.349 . S
Eu281 O299 2.392 1_545 S
Eu281 O300 2.418 1_545 S
Eu281 C310 2.828 . S
C282 O300 1.244 . S
C282 O303 1.265 . S
C283 C284 1.379 . S
C283 C287 1.373 . S
C283 C289 1.505 . S
C284 C283 1.379 . S
C284 C286 1.369 . S
C284 H312 0.930 . S
C285 C287 1.383 . S
C285 C288 1.382 . S
C285 H313 0.930 . S
C286 C284 1.369 . S
C286 C288 1.392 . S
C286 H314 0.930 . S
C287 C283 1.373 . S
C287 C285 1.383 . S
C287 H315 0.931 . S
C288 C285 1.382 . S
C288 C286 1.392 . S
C289 Eu280 2.828 . S
C289 C283 1.505 . S
C289 O301 1.249 . S
C289 O302 1.244 . S
O290 Eu281 2.373 . S
O290 C292 1.258 . S
O291 Eu280 2.392 1_545 S
O291 C292 1.242 . S
C292 O290 1.258 . S
C292 O291 1.242 . S
O293 Eu280 2.418 1_545 S
O293 C297 1.244 . S
O294 Eu281 2.488 . S
O294 C310 1.249 . S
O295 Eu281 2.471 . S
O295 C310 1.244 . S
O296 Eu281 2.349 . S
O296 C297 1.265 . S
C297 O293 1.244 . S
C297 O296 1.265 . S
O298 Eu280 2.373 . S
O298 C311 1.258 . S
O299 Eu281 2.392 1_565 S
O299 C311 1.242 . S
O300 Eu281 2.418 1_565 S
O300 C282 1.244 . S
O301 Eu280 2.488 . S
O301 C289 1.249 . S
O302 Eu280 2.471 . S
O302 C289 1.244 . S
O303 Eu280 2.349 . S
O303 C282 1.265 . S
C304 C305 1.379 . S
C304 C308 1.373 . S
C304 C310 1.505 . S
C305 C304 1.379 . S
C305 C307 1.369 . S
C305 H316 0.930 . S
C306 C308 1.383 . S
C306 C309 1.382 . S
C306 H317 0.930 . S
C307 C305 1.369 . S
C307 C309 1.392 . S
C307 H318 0.930 . S
C308 C304 1.373 . S
C308 C306 1.383 . S
C308 H319 0.931 . S
C309 C306 1.382 . S
C309 C307 1.392 . S
C310 Eu281 2.828 . S
C310 O294 1.249 . S
C310 O295 1.244 . S
C310 C304 1.505 . S
C311 O298 1.258 . S
C311 O299 1.242 . S
H312 C284 0.930 . S
H313 C285 0.930 . S
H314 C286 0.930 . S
H315 C287 0.931 . S
H316 C305 0.930 . S
H317 C306 0.930 . S
H318 C307 0.930 . S
H319 C308 0.931 . S
Eu320 C329 2.828 . S
Eu320 O331 2.392 . S
Eu320 O333 2.418 . S
Eu320 O338 2.373 . S
Eu320 O341 2.488 . S
Eu320 O342 2.471 . S
Eu320 O343 2.349 . S
Eu321 O330 2.373 . S
Eu321 O334 2.488 . S
Eu321 O335 2.471 . S
Eu321 O336 2.349 . S
Eu321 O339 2.392 . S
Eu321 O340 2.418 . S
Eu321 C350 2.828 . S
C322 O340 1.244 . S
C322 O343 1.265 . S
C323 C324 1.379 . S
C323 C327 1.373 . S
C323 C329 1.505 . S
C324 C323 1.379 . S
C324 C326 1.369 . S
C324 H352 0.930 . S
C325 C327 1.383 . S
C325 C328 1.382 . S
C325 H353 0.930 . S
C326 C324 1.369 . S
C326 C328 1.392 . S
C326 H354 0.930 . S
C327 C323 1.373 . S
C327 C325 1.383 . S
C327 H355 0.931 . S
C328 C325 1.382 . S
C328 C326 1.392 . S
C329 Eu320 2.828 . S
C329 C323 1.505 . S
C329 O341 1.249 . S
C329 O342 1.244 . S
O330 Eu321 2.373 . S
O330 C332 1.258 . S
O331 Eu320 2.392 . S
O331 C332 1.242 . S
C332 O330 1.258 . S
C332 O331 1.242 . S
O333 Eu320 2.418 . S
O333 C337 1.244 . S
O334 Eu321 2.488 . S
O334 C350 1.249 . S
O335 Eu321 2.471 . S
O335 C350 1.244 . S
O336 Eu321 2.349 . S
O336 C337 1.265 . S
C337 O333 1.244 . S
C337 O336 1.265 . S
O338 Eu320 2.373 . S
O338 C351 1.258 . S
O339 Eu321 2.392 . S
O339 C351 1.242 . S
O340 Eu321 2.418 . S
O340 C322 1.244 . S
O341 Eu320 2.488 . S
O341 C329 1.249 . S
O342 Eu320 2.471 . S
O342 C329 1.244 . S
O343 Eu320 2.349 . S
O343 C322 1.265 . S
C344 C345 1.379 . S
C344 C348 1.373 . S
C344 C350 1.505 . S
C345 C344 1.379 . S
C345 C347 1.369 . S
C345 H356 0.930 . S
C346 C348 1.383 . S
C346 C349 1.382 . S
C346 H357 0.930 . S
C347 C345 1.369 . S
C347 C349 1.392 . S
C347 H358 0.930 . S
C348 C344 1.373 . S
C348 C346 1.383 . S
C348 H359 0.931 . S
C349 C346 1.382 . S
C349 C347 1.392 . S
C350 Eu321 2.828 . S
C350 O334 1.249 . S
C350 O335 1.244 . S
C350 C344 1.505 . S
C351 O338 1.258 . S
C351 O339 1.242 . S
H352 C324 0.930 . S
H353 C325 0.930 . S
H354 C326 0.930 . S
H355 C327 0.931 . S
H356 C345 0.930 . S
H357 C346 0.930 . S
H358 C347 0.930 . S
H359 C348 0.931 . S
Eu360 C369 2.828 . S
Eu360 O371 2.392 1_455 S
Eu360 O373 2.418 1_455 S
Eu360 O378 2.373 . S
Eu360 O381 2.488 . S
Eu360 O382 2.471 . S
Eu360 O383 2.349 . S
Eu361 O370 2.373 . S
Eu361 O374 2.488 1_556 S
Eu361 O375 2.471 . S
Eu361 O376 2.349 . S
Eu361 O379 2.392 1_655 S
Eu361 O380 2.418 1_655 S
Eu361 C390 2.849 . S
C362 O380 1.244 . S
C362 O383 1.265 . S
C363 C364 1.379 . S
C363 C367 1.373 . S
C363 C369 1.505 . S
C364 C363 1.379 . S
C364 C366 1.369 . S
C364 H392 0.930 . S
C365 C367 1.383 . S
C365 C368 1.382 . S
C365 H393 0.930 . S
C366 C364 1.369 . S
C366 C368 1.392 . S
C366 H394 0.930 . S
C367 C363 1.373 . S
C367 C365 1.383 . S
C367 H395 0.931 . S
C368 C365 1.382 . S
C368 C366 1.392 . S
C369 Eu360 2.828 . S
C369 C363 1.505 . S
C369 O381 1.249 . S
C369 O382 1.244 . S
O370 Eu361 2.373 . S
O370 C372 1.258 . S
O371 Eu360 2.392 1_655 S
O371 C372 1.242 . S
C372 O370 1.258 . S
C372 O371 1.242 . S
O373 Eu360 2.418 1_655 S
O373 C377 1.244 . S
O374 Eu361 2.488 1_554 S
O374 C390 1.242 1_554 S
O375 Eu361 2.471 . S
O375 C390 1.273 . S
O376 Eu361 2.349 . S
O376 C377 1.265 . S
C377 O373 1.244 . S
C377 O376 1.265 . S
O378 Eu360 2.373 . S
O378 C391 1.258 . S
O379 Eu361 2.392 1_455 S
O379 C391 1.242 . S
O380 Eu361 2.418 1_455 S
O380 C362 1.244 . S
O381 Eu360 2.488 . S
O381 C369 1.249 . S
O382 Eu360 2.471 . S
O382 C369 1.244 . S
O383 Eu360 2.349 . S
O383 C362 1.265 . S
C384 C385 1.379 . S
C384 C388 1.373 . S
C384 C390 1.484 1_554 S
C385 C384 1.379 . S
C385 C387 1.369 . S
C385 H396 0.916 1_554 S
C386 C388 1.383 . S
C386 C389 1.382 . S
C386 H397 0.930 . S
C387 C385 1.369 . S
C387 C389 1.392 . S
C387 H398 0.930 . S
C388 C384 1.373 . S
C388 C386 1.383 . S
C388 H399 0.931 . S
C389 C386 1.382 . S
C389 C387 1.392 . S
C390 Eu361 2.849 . S
C390 O374 1.242 1_556 S
C390 O375 1.273 . S
C390 C384 1.484 1_556 S
C391 O378 1.258 . S
C391 O379 1.242 . S
H392 C364 0.930 . S
H393 C365 0.930 . S
H394 C366 0.930 . S
H395 C367 0.931 . S
H396 C385 0.916 1_556 S
H397 C386 0.930 . S
H398 C387 0.930 . S
H399 C388 0.931 . S
Eu400 C409 2.828 . S
Eu400 O411 2.392 1_545 S
Eu400 O413 2.418 1_545 S
Eu400 O418 2.373 . S
Eu400 O421 2.488 . S
Eu400 O422 2.471 . S
Eu400 O423 2.349 . S
Eu401 O410 2.373 . S
Eu401 O414 2.488 . S
Eu401 O415 2.471 . S
Eu401 O416 2.349 . S
Eu401 O419 2.392 1_565 S
Eu401 O420 2.418 1_565 S
Eu401 C430 2.828 . S
C402 O420 1.244 . S
C402 O423 1.265 . S
C403 C404 1.379 . S
C403 C407 1.373 . S
C403 C409 1.505 . S
C404 C403 1.379 . S
C404 C406 1.369 . S
C404 H432 0.930 . S
C405 C407 1.383 . S
C405 C408 1.382 . S
C405 H433 0.930 . S
C406 C404 1.369 . S
C406 C408 1.392 . S
C406 H434 0.930 . S
C407 C403 1.373 . S
C407 C405 1.383 . S
C407 H435 0.931 . S
C408 C405 1.382 . S
C408 C406 1.392 . S
C409 Eu400 2.828 . S
C409 C403 1.505 . S
C409 O421 1.249 . S
C409 O422 1.244 . S
O410 Eu401 2.373 . S
O410 C412 1.258 . S
O411 Eu400 2.392 1_565 S
O411 C412 1.242 . S
C412 O410 1.258 . S
C412 O411 1.242 . S
O413 Eu400 2.418 1_565 S
O413 C417 1.244 . S
O414 Eu401 2.488 . S
O414 C430 1.249 . S
O415 Eu401 2.471 . S
O415 C430 1.244 . S
O416 Eu401 2.349 . S
O416 C417 1.265 . S
C417 O413 1.244 . S
C417 O416 1.265 . S
O418 Eu400 2.373 . S
O418 C431 1.258 . S
O419 Eu401 2.392 1_545 S
O419 C431 1.242 . S
O420 Eu401 2.418 1_545 S
O420 C402 1.244 . S
O421 Eu400 2.488 . S
O421 C409 1.249 . S
O422 Eu400 2.471 . S
O422 C409 1.244 . S
O423 Eu400 2.349 . S
O423 C402 1.265 . S
C424 C425 1.379 . S
C424 C428 1.373 . S
C424 C430 1.505 . S
C425 C424 1.379 . S
C425 C427 1.369 . S
C425 H436 0.930 . S
C426 C428 1.383 . S
C426 C429 1.382 . S
C426 H437 0.930 . S
C427 C425 1.369 . S
C427 C429 1.392 . S
C427 H438 0.930 . S
C428 C424 1.373 . S
C428 C426 1.383 . S
C428 H439 0.931 . S
C429 C426 1.382 . S
C429 C427 1.392 . S
C430 Eu401 2.828 . S
C430 O414 1.249 . S
C430 O415 1.244 . S
C430 C424 1.505 . S
C431 O418 1.258 . S
C431 O419 1.242 . S
H432 C404 0.930 . S
H433 C405 0.930 . S
H434 C406 0.930 . S
H435 C407 0.931 . S
H436 C425 0.930 . S
H437 C426 0.930 . S
H438 C427 0.930 . S
H439 C428 0.931 . S
Eu440 C449 2.828 . S
Eu440 O451 2.392 . S
Eu440 O453 2.418 . S
Eu440 O458 2.373 . S
Eu440 O461 2.488 . S
Eu440 O462 2.471 . S
Eu440 O463 2.349 . S
Eu441 O450 2.373 . S
Eu441 O454 2.488 . S
Eu441 O455 2.471 . S
Eu441 O456 2.349 . S
Eu441 O459 2.392 . S
Eu441 O460 2.418 . S
Eu441 C470 2.828 . S
C442 O460 1.244 . S
C442 O463 1.265 . S
C443 C444 1.379 . S
C443 C447 1.373 . S
C443 C449 1.505 . S
C444 C443 1.379 . S
C444 C446 1.369 . S
C444 H472 0.930 . S
C445 C447 1.383 . S
C445 C448 1.382 . S
C445 H473 0.930 . S
C446 C444 1.369 . S
C446 C448 1.392 . S
C446 H474 0.930 . S
C447 C443 1.373 . S
C447 C445 1.383 . S
C447 H475 0.931 . S
C448 C445 1.382 . S
C448 C446 1.392 . S
C449 Eu440 2.828 . S
C449 C443 1.505 . S
C449 O461 1.249 . S
C449 O462 1.244 . S
O450 Eu441 2.373 . S
O450 C452 1.258 . S
O451 Eu440 2.392 . S
O451 C452 1.242 . S
C452 O450 1.258 . S
C452 O451 1.242 . S
O453 Eu440 2.418 . S
O453 C457 1.244 . S
O454 Eu441 2.488 . S
O454 C470 1.249 . S
O455 Eu441 2.471 . S
O455 C470 1.244 . S
O456 Eu441 2.349 . S
O456 C457 1.265 . S
C457 O453 1.244 . S
C457 O456 1.265 . S
O458 Eu440 2.373 . S
O458 C471 1.258 . S
O459 Eu441 2.392 . S
O459 C471 1.242 . S
O460 Eu441 2.418 . S
O460 C442 1.244 . S
O461 Eu440 2.488 . S
O461 C449 1.249 . S
O462 Eu440 2.471 . S
O462 C449 1.244 . S
O463 Eu440 2.349 . S
O463 C442 1.265 . S
C464 C465 1.379 . S
C464 C468 1.373 . S
C464 C470 1.505 . S
C465 C464 1.379 . S
C465 C467 1.369 . S
C465 H476 0.930 . S
C466 C468 1.383 . S
C466 C469 1.382 . S
C466 H477 0.930 . S
C467 C465 1.369 . S
C467 C469 1.392 . S
C467 H478 0.930 . S
C468 C464 1.373 . S
C468 C466 1.383 . S
C468 H479 0.931 . S
C469 C466 1.382 . S
C469 C467 1.392 . S
C470 Eu441 2.828 . S
C470 O454 1.249 . S
C470 O455 1.244 . S
C470 C464 1.505 . S
C471 O458 1.258 . S
C471 O459 1.242 . S
H472 C444 0.930 . S
H473 C445 0.930 . S
H474 C446 0.930 . S
H475 C447 0.931 . S
H476 C465 0.930 . S
H477 C466 0.930 . S
H478 C467 0.930 . S
H479 C468 0.931 . S
C480 C481 1.387 . S
C480 H484 0.950 . S
C480 C489 1.390 . S
C481 C480 1.387 . S
C481 C483 1.387 . S
H482 C489 0.950 . S
C483 C481 1.387 . S
C483 C485 1.390 . S
C483 H487 0.950 . S
H484 C480 0.950 . S
C485 C483 1.390 . S
C485 C486 1.387 . S
C485 H488 0.950 . S
C486 C485 1.387 . S
C486 C489 1.387 . S
H487 C483 0.950 . S
H488 C485 0.950 . S
C489 C480 1.390 . S
C489 H482 0.950 . S
C489 C486 1.387 . S
C490 C491 1.387 . S
C490 H494 0.950 1_545 S
C490 C499 1.390 . S
C491 C490 1.387 . S
C491 C493 1.387 . S
H492 C499 0.950 1_565 S
C493 C491 1.387 . S
C493 C495 1.390 . S
C493 H497 0.950 . S
H494 C490 0.950 1_565 S
C495 C493 1.390 . S
C495 C496 1.387 . S
C495 H498 0.950 . S
C496 C495 1.387 . S
C496 C499 1.387 . S
H497 C493 0.950 . S
H498 C495 0.950 . S
C499 C490 1.390 . S
C499 H492 0.950 1_545 S
C499 C496 1.387 . S
C500 C501 1.387 . S
C500 H504 0.950 . S
C500 C509 1.390 . S
C501 C500 1.387 . S
C501 C503 1.387 . S
H502 C509 0.950 . S
C503 C501 1.387 . S
C503 C505 1.390 . S
C503 H507 0.950 . S
H504 C500 0.950 . S
C505 C503 1.390 . S
C505 C506 1.387 . S
C505 H508 0.950 . S
C506 C505 1.387 . S
C506 C509 1.387 . S
H507 C503 0.950 . S
H508 C505 0.950 . S
C509 C500 1.390 . S
C509 H502 0.950 . S
C509 C506 1.387 . S
C510 C511 1.387 . S
C510 H514 0.950 . S
C510 C519 1.390 . S
C511 C510 1.387 . S
C511 C513 1.387 . S
H512 C519 0.950 . S
C513 C511 1.387 . S
C513 C515 1.390 . S
C513 H517 0.950 . S
H514 C510 0.950 . S
C515 C513 1.390 . S
C515 C516 1.387 . S
C515 H518 0.950 . S
C516 C515 1.387 . S
C516 C519 1.387 . S
H517 C513 0.950 . S
H518 C515 0.950 . S
C519 C510 1.390 . S
C519 H512 0.950 . S
C519 C516 1.387 . S
C520 C521 1.387 . S
C520 H524 0.950 1_565 S
C520 C529 1.390 . S
C521 C520 1.387 . S
C521 C523 1.387 . S
H522 C529 0.950 1_545 S
C523 C521 1.387 . S
C523 C525 1.390 . S
C523 H527 0.950 . S
H524 C520 0.950 1_545 S
C525 C523 1.390 . S
C525 C526 1.387 . S
C525 H528 0.950 . S
C526 C525 1.387 . S
C526 C529 1.387 . S
H527 C523 0.950 . S
H528 C525 0.950 . S
C529 C520 1.390 . S
C529 H522 0.950 1_565 S
C529 C526 1.387 . S
C530 C531 1.387 . S
C530 H534 0.950 . S
C530 C539 1.390 . S
C531 C530 1.387 . S
C531 C533 1.387 . S
H532 C539 0.950 . S
C533 C531 1.387 . S
C533 C535 1.390 . S
C533 H537 0.950 . S
H534 C530 0.950 . S
C535 C533 1.390 . S
C535 C536 1.387 . S
C535 H538 0.950 . S
C536 C535 1.387 . S
C536 C539 1.387 . S
H537 C533 0.950 . S
H538 C535 0.950 . S
C539 C530 1.390 . S
C539 H532 0.950 . S
C539 C536 1.387 . S
C540 C541 1.387 . S
C540 H544 0.950 . S
C540 C549 1.390 . S
C541 C540 1.387 . S
C541 C543 1.387 . S
H542 C549 0.950 . S
C543 C541 1.387 . S
C543 C545 1.390 . S
C543 H547 0.950 . S
H544 C540 0.950 . S
C545 C543 1.390 . S
C545 C546 1.387 . S
C545 H548 0.950 . S
C546 C545 1.387 . S
C546 C549 1.387 . S
H547 C543 0.950 . S
H548 C545 0.950 . S
C549 C540 1.390 . S
C549 H542 0.950 . S
C549 C546 1.387 . S
C550 C551 1.387 . S
C550 H554 0.950 . S
C550 C559 1.390 . S
C551 C550 1.387 . S
C551 C553 1.387 . S
H552 C559 0.950 . S
C553 C551 1.387 . S
C553 C555 1.390 . S
C553 H557 0.950 . S
H554 C550 0.950 . S
C555 C553 1.390 . S
C555 C556 1.387 . S
C555 H558 0.950 . S
C556 C555 1.387 . S
C556 C559 1.387 . S
H557 C553 0.950 . S
H558 C555 0.950 . S
C559 C550 1.390 . S
C559 H552 0.950 . S
C559 C556 1.387 . S
C560 C561 1.387 . S
C560 H564 0.950 . S
C560 C569 1.390 . S
C561 C560 1.387 . S
C561 C563 1.387 . S
H562 C569 0.950 . S
C563 C561 1.387 . S
C563 C565 1.390 . S
C563 H567 0.950 . S
H564 C560 0.950 . S
C565 C563 1.390 . S
C565 C566 1.387 . S
C565 H568 0.950 . S
C566 C565 1.387 . S
C566 C569 1.387 . S
H567 C563 0.950 . S
H568 C565 0.950 . S
C569 C560 1.390 . S
C569 H562 0.950 . S
C569 C566 1.387 . S
C570 C571 1.387 . S
C570 H574 0.950 . S
C570 C579 1.390 . S
C571 C570 1.387 . S
C571 C573 1.387 . S
H572 C579 0.950 . S
C573 C571 1.387 . S
C573 C575 1.390 . S
C573 H577 0.950 . S
H574 C570 0.950 . S
C575 C573 1.390 . S
C575 C576 1.387 . S
C575 H578 0.950 . S
C576 C575 1.387 . S
C576 C579 1.387 . S
H577 C573 0.950 . S
H578 C575 0.950 . S
C579 C570 1.390 . S
C579 H572 0.950 . S
C579 C576 1.387 . S
C580 C581 1.387 . S
C580 H584 0.950 . S
C580 C589 1.390 . S
C581 C580 1.387 . S
C581 C583 1.387 . S
H582 C589 0.950 . S
C583 C581 1.387 . S
C583 C585 1.390 . S
C583 H587 0.950 . S
H584 C580 0.950 . S
C585 C583 1.390 . S
C585 C586 1.387 . S
C585 H588 0.950 . S
C586 C585 1.387 . S
C586 C589 1.387 . S
H587 C583 0.950 . S
H588 C585 0.950 . S
C589 C580 1.390 . S
C589 H582 0.950 . S
C589 C586 1.387 . S
C590 C591 1.387 . S
C590 H594 0.950 . S
C590 C599 1.390 . S
C591 C590 1.387 . S
C591 C593 1.387 . S
H592 C599 0.950 . S
C593 C591 1.387 . S
C593 C595 1.390 . S
C593 H597 0.950 1_655 S
H594 C590 0.950 . S
C595 C593 1.390 . S
C595 C596 1.387 . S
C595 H598 0.950 1_655 S
C596 C595 1.387 . S
C596 C599 1.387 . S
H597 C593 0.950 1_455 S
H598 C595 0.950 1_455 S
C599 C590 1.390 . S
C599 H592 0.950 . S
C599 C596 1.387 . S
C600 C601 1.387 . S
C600 H604 0.950 . S
C600 C609 1.390 . S
C601 C600 1.387 . S
C601 C603 1.387 . S
H602 C609 0.950 . S
C603 C601 1.387 . S
C603 C605 1.390 . S
C603 H607 0.950 . S
H604 C600 0.950 . S
C605 C603 1.390 . S
C605 C606 1.387 . S
C605 H608 0.950 . S
C606 C605 1.387 . S
C606 C609 1.387 . S
H607 C603 0.950 . S
H608 C605 0.950 . S
C609 C600 1.390 . S
C609 H602 0.950 . S
C609 C606 1.387 . S
C610 C611 1.387 . S
C610 H614 0.950 . S
C610 C619 1.390 . S
C611 C610 1.387 . S
C611 C613 1.387 . S
H612 C619 0.950 . S
C613 C611 1.387 . S
C613 C615 1.390 . S
C613 H617 0.950 . S
H614 C610 0.950 . S
C615 C613 1.390 . S
C615 C616 1.387 . S
C615 H618 0.950 . S
C616 C615 1.387 . S
C616 C619 1.387 . S
H617 C613 0.950 . S
H618 C615 0.950 . S
C619 C610 1.390 . S
C619 H612 0.950 . S
C619 C616 1.387 . S
C620 C621 1.387 . S
C620 H624 0.950 . S
C620 C629 1.390 . S
C621 C620 1.387 . S
C621 C623 1.387 . S
H622 C629 0.950 . S
C623 C621 1.387 . S
C623 C625 1.390 . S
C623 H627 0.950 . S
H624 C620 0.950 . S
C625 C623 1.390 . S
C625 C626 1.387 . S
C625 H628 0.950 . S
C626 C625 1.387 . S
C626 C629 1.387 . S
H627 C623 0.950 . S
H628 C625 0.950 . S
C629 C620 1.390 . S
C629 H622 0.950 . S
C629 C626 1.387 . S
C630 C631 1.387 . S
C630 H634 0.950 . S
C630 C639 1.390 . S
C631 C630 1.387 . S
C631 C633 1.387 . S
H632 C639 0.950 . S
C633 C631 1.387 . S
C633 C635 1.390 . S
C633 H637 0.950 . S
H634 C630 0.950 . S
C635 C633 1.390 . S
C635 C636 1.387 . S
C635 H638 0.950 . S
C636 C635 1.387 . S
C636 C639 1.387 . S
H637 C633 0.950 . S
H638 C635 0.950 . S
C639 C630 1.390 . S
C639 H632 0.950 . S
C639 C636 1.387 . S
C640 C641 1.387 1_554 S
C640 H644 0.950 . S
C640 C649 1.390 . S
C641 C640 1.387 1_556 S
C641 C643 1.387 . S
H642 C649 0.950 . S
C643 C641 1.387 . S
C643 C645 1.390 . S
C643 H647 0.950 . S
H644 C640 0.950 . S
C645 C643 1.390 . S
C645 C646 1.387 . S
C645 H648 0.950 . S
C646 C645 1.387 . S
C646 C649 1.387 1_556 S
H647 C643 0.950 . S
H648 C645 0.950 . S
C649 C640 1.390 . S
C649 H642 0.950 . S
C649 C646 1.387 1_554 S
C650 C651 1.387 . S
C650 H654 0.950 . S
C650 C659 1.390 . S
C651 C650 1.387 . S
C651 C653 1.387 . S
H652 C659 0.950 . S
C653 C651 1.387 . S
C653 C655 1.390 . S
C653 H657 0.950 . S
H654 C650 0.950 . S
C655 C653 1.390 . S
C655 C656 1.387 . S
C655 H658 0.950 . S
C656 C655 1.387 . S
C656 C659 1.387 . S
H657 C653 0.950 . S
H658 C655 0.950 . S
C659 C650 1.390 . S
C659 H652 0.950 . S
C659 C656 1.387 . S
C660 C661 1.387 . S
C660 H664 0.950 . S
C660 C669 1.390 . S
C661 C660 1.387 . S
C661 C663 1.387 . S
H662 C669 0.950 . S
C663 C661 1.387 . S
C663 C665 1.390 . S
C663 H667 0.950 . S
H664 C660 0.950 . S
C665 C663 1.390 . S
C665 C666 1.387 . S
C665 H668 0.950 . S
C666 C665 1.387 . S
C666 C669 1.387 . S
H667 C663 0.950 . S
H668 C665 0.950 . S
C669 C660 1.390 . S
C669 H662 0.950 . S
C669 C666 1.387 . S
C670 C671 1.387 . S
C670 H674 0.950 . S
C670 C679 1.390 . S
C671 C670 1.387 . S
C671 C673 1.387 . S
H672 C679 0.950 . S
C673 C671 1.387 . S
C673 C675 1.390 . S
C673 H677 0.950 . S
H674 C670 0.950 . S
C675 C673 1.390 . S
C675 C676 1.387 . S
C675 H678 0.950 . S
C676 C675 1.387 . S
C676 C679 1.387 . S
H677 C673 0.950 . S
H678 C675 0.950 . S
C679 C670 1.390 . S
C679 H672 0.950 . S
C679 C676 1.387 . S
C680 C681 1.387 . S
C680 H684 0.950 . S
C680 C689 1.390 . S
C681 C680 1.387 . S
C681 C683 1.387 . S
H682 C689 0.950 . S
C683 C681 1.387 . S
C683 C685 1.390 . S
C683 H687 0.950 . S
H684 C680 0.950 . S
C685 C683 1.390 . S
C685 C686 1.387 . S
C685 H688 0.950 . S
C686 C685 1.387 . S
C686 C689 1.387 . S
H687 C683 0.950 . S
H688 C685 0.950 . S
C689 C680 1.390 . S
C689 H682 0.950 . S
C689 C686 1.387 . S
C690 C691 1.387 1_554 S
C690 H694 0.950 . S
C690 C699 1.390 . S
C691 C690 1.387 1_556 S
C691 C693 1.387 . S
H692 C699 0.950 . S
C693 C691 1.387 . S
C693 C695 1.390 . S
C693 H697 0.950 . S
H694 C690 0.950 . S
C695 C693 1.390 . S
C695 C696 1.387 . S
C695 H698 0.950 . S
C696 C695 1.387 . S
C696 C699 1.387 1_556 S
H697 C693 0.950 . S
H698 C695 0.950 . S
C699 C690 1.390 . S
C699 H692 0.950 . S
C699 C696 1.387 1_554 S
C700 C701 1.387 . S
C700 H704 0.950 . S
C700 C709 1.390 . S
C701 C700 1.387 . S
C701 C703 1.387 . S
H702 C709 0.950 . S
C703 C701 1.387 . S
C703 C705 1.390 . S
C703 H707 0.950 . S
H704 C700 0.950 . S
C705 C703 1.390 . S
C705 C706 1.387 . S
C705 H708 0.950 . S
C706 C705 1.387 . S
C706 C709 1.387 . S
H707 C703 0.950 . S
H708 C705 0.950 . S
C709 C700 1.390 . S
C709 H702 0.950 . S
C709 C706 1.387 . S
C710 C711 1.387 . S
C710 H714 0.950 . S
C710 C719 1.390 . S
C711 C710 1.387 . S
C711 C713 1.387 . S
H712 C719 0.950 . S
C713 C711 1.387 . S
C713 C715 1.390 . S
C713 H717 0.950 . S
H714 C710 0.950 . S
C715 C713 1.390 . S
C715 C716 1.387 . S
C715 H718 0.950 . S
C716 C715 1.387 . S
C716 C719 1.387 . S
H717 C713 0.950 . S
H718 C715 0.950 . S
C719 C710 1.390 . S
C719 H712 0.950 . S
C719 C716 1.387 . S
C720 C721 1.387 . S
C720 H724 0.950 . S
C720 C729 1.390 . S
C721 C720 1.387 . S
C721 C723 1.387 . S
H722 C729 0.950 . S
C723 C721 1.387 . S
C723 C725 1.390 . S
C723 H727 0.950 . S
H724 C720 0.950 . S
C725 C723 1.390 . S
C725 C726 1.387 . S
C725 H728 0.950 . S
C726 C725 1.387 . S
C726 C729 1.387 . S
H727 C723 0.950 . S
H728 C725 0.950 . S
C729 C720 1.390 . S
C729 H722 0.950 . S
C729 C726 1.387 . S
C730 C731 1.387 . S
C730 H734 0.950 . S
C730 C739 1.390 . S
C731 C730 1.387 . S
C731 C733 1.387 . S
H732 C739 0.950 . S
C733 C731 1.387 . S
C733 C735 1.390 . S
C733 H737 0.950 . S
H734 C730 0.950 . S
C735 C733 1.390 . S
C735 C736 1.387 . S
C735 H738 0.950 . S
C736 C735 1.387 . S
C736 C739 1.387 . S
H737 C733 0.950 . S
H738 C735 0.950 . S
C739 C730 1.390 . S
C739 H732 0.950 . S
C739 C736 1.387 . S
C740 C741 1.387 . S
C740 H744 0.950 . S
C740 C749 1.390 . S
C741 C740 1.387 . S
C741 C743 1.387 . S
H742 C749 0.950 . S
C743 C741 1.387 . S
C743 C745 1.390 . S
C743 H747 0.950 . S
H744 C740 0.950 . S
C745 C743 1.390 . S
C745 C746 1.387 . S
C745 H748 0.950 . S
C746 C745 1.387 . S
C746 C749 1.387 . S
H747 C743 0.950 . S
H748 C745 0.950 . S
C749 C740 1.390 . S
C749 H742 0.950 . S
C749 C746 1.387 . S
C750 C751 1.387 . S
C750 H754 0.950 . S
C750 C759 1.390 . S
C751 C750 1.387 . S
C751 C753 1.387 . S
H752 C759 0.950 . S
C753 C751 1.387 . S
C753 C755 1.390 . S
C753 H757 0.950 . S
H754 C750 0.950 . S
C755 C753 1.390 . S
C755 C756 1.387 . S
C755 H758 0.950 . S
C756 C755 1.387 . S
C756 C759 1.387 . S
H757 C753 0.950 . S
H758 C755 0.950 . S
C759 C750 1.390 . S
C759 H752 0.950 . S
C759 C756 1.387 . S
C760 C761 1.387 . S
C760 H764 0.950 . S
C760 C769 1.390 . S
C761 C760 1.387 . S
C761 C763 1.387 . S
H762 C769 0.950 . S
C763 C761 1.387 . S
C763 C765 1.390 . S
C763 H767 0.950 . S
H764 C760 0.950 . S
C765 C763 1.390 . S
C765 C766 1.387 . S
C765 H768 0.950 . S
C766 C765 1.387 . S
C766 C769 1.387 . S
H767 C763 0.950 . S
H768 C765 0.950 . S
C769 C760 1.390 . S
C769 H762 0.950 . S
C769 C766 1.387 . S
C770 C771 1.387 . S
C770 H774 0.950 . S
C770 C779 1.390 . S
C771 C770 1.387 . S
C771 C773 1.387 . S
H772 C779 0.950 . S
C773 C771 1.387 . S
C773 C775 1.390 . S
C773 H777 0.950 . S
H774 C770 0.950 . S
C775 C773 1.390 . S
C775 C776 1.387 . S
C775 H778 0.950 . S
C776 C775 1.387 . S
C776 C779 1.387 . S
H777 C773 0.950 . S
H778 C775 0.950 . S
C779 C770 1.390 . S
C779 H772 0.950 . S
C779 C776 1.387 . S
C780 C781 1.387 . S
C780 H784 0.950 . S
C780 C789 1.390 . S
C781 C780 1.387 . S
C781 C783 1.387 . S
H782 C789 0.950 . S
C783 C781 1.387 . S
C783 C785 1.390 . S
C783 H787 0.950 . S
H784 C780 0.950 . S
C785 C783 1.390 . S
C785 C786 1.387 . S
C785 H788 0.950 . S
C786 C785 1.387 . S
C786 C789 1.387 . S
H787 C783 0.950 . S
H788 C785 0.950 . S
C789 C780 1.390 . S
C789 H782 0.950 . S
C789 C786 1.387 . S
C790 C791 1.387 . S
C790 H794 0.950 . S
C790 C799 1.390 . S
C791 C790 1.387 . S
C791 C793 1.387 . S
H792 C799 0.950 . S
C793 C791 1.387 . S
C793 C795 1.390 . S
C793 H797 0.950 . S
H794 C790 0.950 . S
C795 C793 1.390 . S
C795 C796 1.387 . S
C795 H798 0.950 . S
C796 C795 1.387 . S
C796 C799 1.387 . S
H797 C793 0.950 . S
H798 C795 0.950 . S
C799 C790 1.390 . S
C799 H792 0.950 . S
C799 C796 1.387 . S
C800 C801 1.387 . S
C800 H804 0.950 . S
C800 C809 1.390 . S
C801 C800 1.387 . S
C801 C803 1.387 . S
H802 C809 0.950 . S
C803 C801 1.387 . S
C803 C805 1.390 . S
C803 H807 0.950 . S
H804 C800 0.950 . S
C805 C803 1.390 . S
C805 C806 1.387 . S
C805 H808 0.950 . S
C806 C805 1.387 . S
C806 C809 1.387 . S
H807 C803 0.950 . S
H808 C805 0.950 . S
C809 C800 1.390 . S
C809 H802 0.950 . S
C809 C806 1.387 . S
C810 C811 1.387 . S
C810 H814 0.950 . S
C810 C819 1.390 . S
C811 C810 1.387 . S
C811 C813 1.387 . S
H812 C819 0.950 . S
C813 C811 1.387 . S
C813 C815 1.390 . S
C813 H817 0.950 . S
H814 C810 0.950 . S
C815 C813 1.390 . S
C815 C816 1.387 . S
C815 H818 0.950 . S
C816 C815 1.387 . S
C816 C819 1.387 . S
H817 C813 0.950 . S
H818 C815 0.950 . S
C819 C810 1.390 . S
C819 H812 0.950 . S
C819 C816 1.387 . S
C820 C821 1.387 . S
C820 H824 0.950 . S
C820 C829 1.390 . S
C821 C820 1.387 . S
C821 C823 1.387 . S
H822 C829 0.950 . S
C823 C821 1.387 . S
C823 C825 1.390 . S
C823 H827 0.950 . S
H824 C820 0.950 . S
C825 C823 1.390 . S
C825 C826 1.387 . S
C825 H828 0.950 . S
C826 C825 1.387 . S
C826 C829 1.387 . S
H827 C823 0.950 . S
H828 C825 0.950 . S
C829 C820 1.390 . S
C829 H822 0.950 . S
C829 C826 1.387 . S
C830 C831 1.387 . S
C830 H834 0.950 . S
C830 C839 1.390 . S
C831 C830 1.387 . S
C831 C833 1.387 . S
H832 C839 0.950 . S
C833 C831 1.387 . S
C833 C835 1.390 . S
C833 H837 0.950 . S
H834 C830 0.950 . S
C835 C833 1.390 . S
C835 C836 1.387 . S
C835 H838 0.950 . S
C836 C835 1.387 . S
C836 C839 1.387 . S
H837 C833 0.950 . S
H838 C835 0.950 . S
C839 C830 1.390 . S
C839 H832 0.950 . S
C839 C836 1.387 . S
C481 C231 1.868 . S
C486 C29 1.868 . S
C491 C69 2.231 . S
C496 C31 2.232 . S
C501 C109 2.061 . S
C506 C71 2.071 . S
C511 C111 1.870 . S
C516 C149 1.869 . S
C521 C151 2.232 . S
C526 C189 2.230 . S
C531 C229 2.063 . S
C536 C191 2.073 . S
C541 C311 1.870 . S
C546 C269 1.869 . S
C551 C309 2.062 . S
C556 C351 2.073 . S
C561 C391 2.232 . S
C566 C349 2.230 . S
C571 C431 1.868 . S
C576 C389 1.867 . S
C581 C471 2.071 . S
C586 C429 2.063 . S
C591 C271 2.230 . S
C596 C469 2.228 . S
C601 C442 3.661 . S
C606 C12 3.681 . S
C611 C52 2.810 . S
C616 C242 2.822 . S
C621 C282 3.223 . S
C626 C92 3.234 . S
C631 C322 3.663 . S
C636 C132 3.681 . S
C641 C362 2.824 . S
C646 C172 2.808 . S
C651 C212 3.235 . S
C656 C402 3.223 . S
C661 C252 3.678 . S
C666 C42 3.665 . S
C671 C292 3.235 . S
C676 C82 3.223 . S
C681 C122 2.824 . S
C686 C332 2.807 . S
C691 C162 3.662 . S
C696 C372 3.681 . S
C701 C412 3.235 . S
C706 C202 3.221 . S
C711 C452 2.809 . S
C716 C2 2.822 . S
C721 C257 3.514 . S
C726 C17 3.516 . S
C731 C57 2.416 . S
C736 C297 2.438 . S
C741 C337 2.416 . S
C746 C97 2.438 . S
C751 C137 3.515 . S
C756 C377 3.516 . S
C761 C417 2.435 . S
C766 C177 2.416 . S
C771 C457 2.416 . S
C776 C217 2.439 . S
C781 C248 0.741 . S
C786 C8 0.739 . S
C791 C288 0.843 . S
C796 C48 0.827 . S
C801 C328 0.828 . S
C806 C88 0.839 . S
C811 C128 0.740 . S
C816 C368 0.739 . S
C821 C408 0.843 . S
C826 C168 0.827 . S
C831 C448 0.839 . S
C836 C208 0.849 . S
