# Generated by pormake.
# Topology tsi, (8)-cn, num edge types: 1
# Building blocks:
#     Node 0, Type 0, BuildingBlock: TAGTUT_clean_sbu_3, # of connection points: 8
#     Node 1, Type 0, BuildingBlock: TAGTUT_clean_sbu_3, # of connection points: 8
#     Node 2, Type 0, BuildingBlock: TAGTUT_clean_sbu_3, # of connection points: 8
#     Node 3, Type 0, BuildingBlock: TAGTUT_clean_sbu_3, # of connection points: 8
#     Edge 4, Type (0, 0), BuildingBlock: XIVTED_clean_linker_0, # of connection points: 2
#     Edge 5, Type (0, 0), BuildingBlock: XIVTED_clean_linker_0, # of connection points: 2
#     Edge 6, Type (0, 0), BuildingBlock: XIVTED_clean_linker_0, # of connection points: 2
#     Edge 7, Type (0, 0), BuildingBlock: XIVTED_clean_linker_0, # of connection points: 2
#     Edge 8, Type (0, 0), BuildingBlock: XIVTED_clean_linker_0, # of connection points: 2
#     Edge 9, Type (0, 0), BuildingBlock: XIVTED_clean_linker_0, # of connection points: 2
#     Edge 10, Type (0, 0), BuildingBlock: XIVTED_clean_linker_0, # of connection points: 2
#     Edge 11, Type (0, 0), BuildingBlock: XIVTED_clean_linker_0, # of connection points: 2
#     Edge 12, Type (0, 0), BuildingBlock: XIVTED_clean_linker_0, # of connection points: 2
#     Edge 13, Type (0, 0), BuildingBlock: XIVTED_clean_linker_0, # of connection points: 2
#     Edge 14, Type (0, 0), BuildingBlock: XIVTED_clean_linker_0, # of connection points: 2
#     Edge 15, Type (0, 0), BuildingBlock: XIVTED_clean_linker_0, # of connection points: 2
#     Edge 16, Type (0, 0), BuildingBlock: XIVTED_clean_linker_0, # of connection points: 2
#     Edge 17, Type (0, 0), BuildingBlock: XIVTED_clean_linker_0, # of connection points: 2
#     Edge 18, Type (0, 0), BuildingBlock: XIVTED_clean_linker_0, # of connection points: 2
#     Edge 19, Type (0, 0), BuildingBlock: XIVTED_clean_linker_0, # of connection points: 2
# Relax obj value: 0.146
# Max RMSD: 0.223
# Mean RMSD: 0.223
data_MOF--net-tsi--node1-TAGTUT_clean_sbu_3--edge1-XIVTED_clean_linker_0
_symmetry_space_group_name_H-M    P1
_symmetry_Int_Tables_number       1
_symmetry_cell_setting            triclinic
loop_
_symmetry_equiv_pos_as_xyz
'x, y, z'
_cell_length_a     16.043258
_cell_length_b     16.10644
_cell_length_c     66.939682
_cell_angle_alpha  91.028536
_cell_angle_beta   89.876619
_cell_angle_gamma 89.731489
loop_
_atom_site_label
_atom_site_type_symbol
_atom_site_fract_x
_atom_site_fract_y
_atom_site_fract_z
_atom_type_partial_charge
C0 C 0.18684 0.17966 0.35334 0.0
C1 C 0.01908 0.13744 0.28536 0.0
C2 C 0.82008 0.24622 0.31874 0.0
Mg3 Mg 0.11875 0.20085 0.39823 0.0
Mg4 Mg 0.93921 0.122 0.41379 0.0
O5 O -0.00327 0.17914 0.39432 0.0
Mg6 Mg -0.00549 0.15311 0.3652 0.0
O7 O 0.00178 0.13547 0.33565 0.0
Mg8 Mg 0.02736 0.25256 0.3279 0.0
Mg9 Mg 0.91551 0.08345 0.32183 0.0
C10 C 0.79867 0.13522 0.38061 0.0
O11 O 0.98265 0.00946 0.36753 0.0
O12 O 0.08439 0.25627 0.42897 0.0
O13 O 0.9107 0.97359 0.3397 0.0
O14 O 0.139 0.07649 0.4142 0.0
O15 O 0.9557 0.21363 0.43735 0.0
O16 O 0.01646 0.01817 0.42108 0.0
O17 O 0.00401 0.29309 0.36048 0.0
O18 O 0.0949 0.32564 0.38438 0.0
C19 C 0.0479 0.34687 0.36998 0.0
C20 C 0.02097 0.25736 0.44068 0.0
O21 O 0.85136 0.15672 0.36716 0.0
O22 O 0.04403 0.20071 0.29566 0.0
O23 O 0.82025 0.11294 0.39822 0.0
O24 O 0.89051 0.28309 0.31958 0.0
O25 O 0.97158 0.08157 0.29252 0.0
O26 O 0.81374 0.16847 0.32162 0.0
O27 O 0.13518 0.14962 0.36586 0.0
O28 O 0.16183 0.21776 0.33769 0.0
C29 C 0.09594 0.01973 0.42245 0.0
C30 C 0.94509 0.95532 0.35637 0.0
C31 C 0.1848 0.79325 0.63159 0.0
C32 C 0.02134 0.83666 0.70005 0.0
C33 C 0.82166 0.72511 0.66789 0.0
Mg34 Mg 0.11582 0.7683 0.58683 0.0
Mg35 Mg 0.93676 0.84694 0.57104 0.0
O36 O -0.00586 0.79307 0.59102 0.0
Mg37 Mg -0.00847 0.82 0.62019 0.0
O38 O -0.00071 0.83738 0.64978 0.0
Mg39 Mg 0.02734 0.72058 0.65758 0.0
Mg40 Mg 0.91435 0.88983 0.6642 0.0
C41 C 0.79565 0.84105 0.60451 0.0
O42 O 0.97981 0.96364 0.61802 0.0
O43 O 0.08115 0.70994 0.55647 0.0
O44 O 0.90755 -0.00087 0.646 0.0
O45 O 0.1365 0.89113 0.57023 0.0
O46 O 0.95205 0.75202 0.54823 0.0
O47 O 0.01383 0.94882 0.56275 0.0
O48 O 0.00152 0.67977 0.62514 0.0
O49 O 0.09191 0.64504 0.60117 0.0
C50 C 0.04502 0.62504 0.61568 0.0
C51 C 0.01723 0.70744 0.54501 0.0
O52 O 0.84728 0.82064 0.61834 0.0
O53 O 0.04516 0.77276 0.68972 0.0
O54 O 0.81849 0.85856 0.58666 0.0
O55 O 0.89218 0.68829 0.66632 0.0
O56 O 0.9737 0.89308 0.69305 0.0
O57 O 0.81459 0.8033 0.66574 0.0
O58 O 0.1324 0.82166 0.61902 0.0
O59 O 0.1608 0.75647 0.64748 0.0
C60 C 0.09339 0.94718 0.56161 0.0
C61 C 0.94181 0.01761 0.6293 0.0
C62 C 0.54637 0.84493 0.86944 0.0
C63 C 0.52154 0.76596 0.94062 0.0
C64 C 0.60118 0.52596 0.92442 0.0
Mg65 Mg 0.52749 0.74723 0.82815 0.0
Mg66 Mg 0.41688 0.57737 0.82232 0.0
O67 O 0.5011 0.63098 0.83645 0.0
Mg68 Mg 0.49429 0.65016 0.86604 0.0
O69 O 0.49754 0.67891 0.89512 0.0
Mg70 Mg 0.61925 0.70455 0.89865 0.0
Mg71 Mg 0.44274 0.62346 0.91539 0.0
C72 C 0.44528 0.45275 0.85782 0.0
O73 O 0.3498 0.64999 0.86851 0.0
O74 O 0.54441 0.69348 0.79613 0.0
O75 O 0.32291 0.61245 0.90033 0.0
O76 O 0.39135 0.77875 0.81968 0.0
O77 O 0.47551 0.57215 0.79335 0.0
O78 O 0.31601 0.66299 0.82043 0.0
O79 O 0.63601 0.64823 0.86674 0.0
O80 O 0.66201 0.71215 0.83797 0.0
C81 C 0.68741 0.67617 0.85386 0.0
C82 C 0.52153 0.62887 0.78605 0.0
O83 O 0.48349 0.50713 0.86879 0.0
O84 O 0.58357 0.76641 0.92852 0.0
O85 O 0.41085 0.47013 0.84109 0.0
O86 O 0.64191 0.58358 0.91586 0.0
O87 O 0.45911 0.71735 0.93843 0.0
O88 O 0.5218 0.52156 0.92319 0.0
O89 O 0.50261 0.78961 0.86051 0.0
O90 O 0.59428 0.82607 0.88381 0.0
C91 C 0.32153 0.74118 0.81822 0.0
C92 C 0.29887 0.63009 0.88257 0.0
C93 C 0.68951 0.28922 0.13278 0.0
C94 C 0.51793 0.33494 0.20045 0.0
C95 C 0.32035 0.22754 0.16701 0.0
Mg96 Mg 0.62229 0.26565 0.08789 0.0
Mg97 Mg 0.44498 0.34983 0.07187 0.0
O98 O 0.50027 0.29049 0.0915 0.0
Mg99 Mg 0.4971 0.3175 0.12058 0.0
O100 O 0.50311 0.33599 0.15012 0.0
Mg101 Mg 0.52809 0.21885 0.15811 0.0
Mg102 Mg 0.41619 0.38905 0.16377 0.0
C103 C 0.30178 0.33833 0.10476 0.0
O104 O 0.48555 0.46115 0.11801 0.0
O105 O 0.58659 0.20704 0.05773 0.0
O106 O 0.41184 0.49806 0.14564 0.0
O107 O 0.64412 0.38809 0.07134 0.0
O108 O 0.46213 0.25839 0.04819 0.0
O109 O 0.5239 0.45217 0.06474 0.0
O110 O 0.50565 0.17744 0.12566 0.0
O111 O 0.5981 0.14278 0.10218 0.0
C112 C 0.55017 0.12278 0.11648 0.0
C113 C 0.52465 0.2094 0.04568 0.0
O114 O 0.3536 0.31601 0.11834 0.0
O115 O 0.54328 0.27131 0.19025 0.0
O116 O 0.32474 0.36043 0.08721 0.0
O117 O 0.39079 0.18996 0.1663 0.0
O118 O 0.47083 0.39125 0.1932 0.0
O119 O 0.3142 0.30527 0.16402 0.0
O120 O 0.63856 0.31931 0.12006 0.0
O121 O 0.66337 0.25194 0.14843 0.0
C122 C 0.60323 0.44706 0.06325 0.0
C123 C 0.44702 0.51568 0.12901 0.0
H124 H 0.15566 0.33216 0.4578 0.0
H125 H 0.88341 0.65024 0.52351 0.0
H126 H 0.88723 0.31986 0.46164 0.0
H127 H 0.15011 0.622 0.52944 0.0
H128 H 0.88349 0.53664 0.49878 0.0
H129 H 0.15461 0.44349 0.48289 0.0
C130 C 0.09649 0.35246 0.46406 0.0
C131 C 0.02136 0.31704 0.45758 0.0
C132 C 0.9419 0.55555 0.5055 0.0
C133 C 0.01967 0.44511 0.48611 0.0
C134 C 0.94205 0.62081 0.51946 0.0
C135 C 0.01685 0.64541 0.52858 0.0
C136 C 0.01715 0.51532 0.50054 0.0
C137 C 0.09091 0.60478 0.52287 0.0
C138 C 0.09594 0.41609 0.47836 0.0
C139 C 0.94658 0.34537 0.46627 0.0
N140 N 0.08914 0.54168 0.50922 0.0
N141 N 0.94754 0.40845 0.48 0.0
H142 H 0.50046 0.75053 0.75957 0.0
H143 H 0.82118 0.57103 0.68486 0.0
H144 H 0.58732 0.49807 0.76431 0.0
H145 H 0.66054 0.7786 0.67173 0.0
H146 H 0.72145 0.52675 0.71005 0.0
H147 H 0.5441 0.75046 0.72475 0.0
C148 C 0.52865 0.69489 0.75313 0.0
C149 C 0.54228 0.6249 0.76475 0.0
C150 C 0.70668 0.58038 0.70117 0.0
C151 C 0.59342 0.62423 0.72499 0.0
C152 C 0.76355 0.60566 0.6867 0.0
C153 C 0.75064 0.68062 0.67672 0.0
C154 C 0.63734 0.63093 0.70565 0.0
C155 C 0.67421 0.72185 0.67947 0.0
C156 C 0.55275 0.69438 0.7332 0.0
C157 C 0.57706 0.55356 0.75574 0.0
N158 N 0.62148 0.69777 0.69408 0.0
N159 N 0.60357 0.55563 0.73642 0.0
H160 H 0.53859 0.40346 0.94807 0.0
H161 H 0.53912 0.57068 0.04004 0.0
H162 H 0.75049 0.56589 0.94218 0.0
H163 H 0.753 0.40846 0.04517 0.0
H164 H 0.566 0.57901 0.00416 0.0
H165 H 0.56652 0.39596 0.9839 0.0
C166 C 0.593 0.43469 0.95405 0.0
C167 C 0.64035 0.48772 0.94212 0.0
C168 C 0.60831 0.54378 0.01338 0.0
C169 C 0.67136 0.48 0.98298 0.0
C170 C 0.59375 0.5397 0.03388 0.0
C171 C 0.64187 0.48629 0.04561 0.0
C172 C 0.67175 0.49506 0.00469 0.0
C173 C 0.71274 0.44873 0.03668 0.0
C174 C 0.60815 0.43109 0.97452 0.0
C175 C 0.71093 0.52575 0.95083 0.0
N176 N 0.72396 0.45133 0.01654 0.0
N177 N 0.72274 0.52358 0.97095 0.0
H178 H 0.8157 0.39949 0.30133 0.0
H179 H 0.5061 0.21048 0.22656 0.0
H180 H 0.66021 0.19005 0.3152 0.0
H181 H 0.57439 0.46817 0.2226 0.0
H182 H 0.55003 0.2113 0.26132 0.0
H183 H 0.71502 0.4407 0.27602 0.0
C184 C 0.759 0.36384 0.29962 0.0
C185 C 0.74795 0.28929 0.30985 0.0
C186 C 0.55438 0.2683 0.25305 0.0
C187 C 0.63364 0.33547 0.28081 0.0
C188 C 0.53016 0.26743 0.23315 0.0
C189 C 0.53844 0.33884 0.22177 0.0
C190 C 0.58979 0.34043 0.26147 0.0
C191 C 0.56818 0.41166 0.23099 0.0
C192 C 0.70157 0.38739 0.28509 0.0
C193 C 0.6726 0.24662 0.30725 0.0
N194 N 0.59495 0.41015 0.25027 0.0
N195 N 0.61941 0.269 0.29259 0.0
H196 H 0.15982 0.28471 0.16987 0.0
H197 H 0.06831 0.00068 0.26326 0.0
H198 H 0.31521 0.07514 0.18478 0.0
H199 H 0.01869 0.26321 0.25928 0.0
H200 H 0.11605 -0.00043 0.22818 0.0
H201 H 0.0596 0.24236 0.19502 0.0
C202 C 0.17172 0.22818 0.17793 0.0
C203 C 0.24772 0.18532 0.17579 0.0
C204 C 0.09306 0.0568 0.23496 0.0
C205 C 0.13383 0.13766 0.20474 0.0
C206 C 0.06637 0.05758 0.25488 0.0
C207 C 0.04159 0.13258 0.26411 0.0
C208 C 0.0923 0.13104 0.22429 0.0
C209 C 0.03926 0.2046 0.25275 0.0
C210 C 0.11457 0.20437 0.19237 0.0
C211 C 0.25854 0.11145 0.18635 0.0
N212 N 0.06459 0.2021 0.23344 0.0
N213 N 0.20326 0.09114 0.20087 0.0
H214 H 0.07298 0.97249 0.72197 0.0
H215 H 0.16064 0.68679 0.81531 0.0
H216 H 0.01996 0.71115 0.72615 0.0
H217 H 0.31809 0.89365 0.80049 0.0
H218 H 0.06125 0.7311 0.79021 0.0
H219 H 0.12089 0.97281 0.757 0.0
C220 C 0.07041 0.91571 0.73038 0.0
C221 C 0.04458 0.84121 0.72122 0.0
C222 C 0.1165 0.76808 0.79287 0.0
C223 C 0.09539 0.84193 0.76098 0.0
C224 C 0.17319 0.74314 0.80728 0.0
C225 C 0.24946 0.78464 0.80944 0.0
C226 C 0.13656 0.83451 0.78051 0.0
C227 C 0.26112 0.8584 0.7989 0.0
C228 C 0.09718 0.91605 0.75026 0.0
C229 C 0.04139 0.76933 0.73262 0.0
N230 N 0.20631 0.87977 0.7844 0.0
N231 N 0.06676 0.77143 0.75189 0.0
H232 H 0.47059 0.74993 0.97933 0.0
H233 H 0.4749 0.22815 0.00695 0.0
H234 H 0.56509 0.92693 0.93738 0.0
H235 H 0.56603 0.04759 0.04855 0.0
H236 H 0.47041 0.11828 0.98084 0.0
H237 H 0.4677 0.86046 0.00526 0.0
C238 C 0.49031 0.81206 0.97563 0.0
C239 C 0.51895 0.82982 0.95643 0.0
C240 C 0.49116 0.10329 -0.00426 0.0
C241 C 0.51342 0.95519 0.9854 0.0
C242 C 0.49362 0.16543 0.01052 0.0
C243 C 0.52169 0.14639 0.02969 0.0
C244 C 0.51424 0.0219 0.00054 0.0
C245 C 0.54515 0.06449 0.03379 0.0
C246 C 0.48877 0.87458 0.99031 0.0
C247 C 0.54374 0.91101 0.95218 0.0
N248 N 0.54021 0.00477 0.01934 0.0
N249 N 0.53976 0.97121 0.96656 0.0
H250 H 0.25155 0.04407 0.43902 0.0
H251 H 0.02439 0.06564 0.53778 0.0
H252 H 0.02268 0.90879 0.44756 0.0
H253 H 0.24588 0.91476 0.54401 0.0
H254 H 0.05053 0.07081 0.50187 0.0
H255 H 0.27676 0.0392 0.47511 0.0
C256 C 0.20825 0.01025 0.44824 0.0
C257 C 0.1328 0.97973 0.44023 0.0
C258 C 0.09457 0.03876 0.51131 0.0
C259 C 0.16114 0.97603 0.48128 0.0
C260 C 0.08047 0.03662 0.53183 0.0
C261 C 0.131 -0.01315 0.5439 0.0
C262 C 0.1606 -0.00728 0.50293 0.0
C263 C 0.20382 0.95208 0.53524 0.0
C264 C 0.22252 0.00862 0.46885 0.0
C265 C 0.08029 0.9355 0.45302 0.0
N266 N 0.21524 0.95338 0.51507 0.0
N267 N 0.09377 0.93782 0.47302 0.0
H268 H 0.84922 0.8297 0.34127 0.0
H269 H 0.14043 0.47436 0.3853 0.0
H270 H 0.05268 0.8775 0.38195 0.0
H271 H 0.92839 0.42429 0.34737 0.0
H272 H 0.10988 0.62213 0.3838 0.0
H273 H 0.87425 0.68117 0.34415 0.0
C274 C 0.89855 0.80894 0.35104 0.0
C275 C 0.94955 0.86628 0.36123 0.0
C276 C 0.07014 0.579 0.37574 0.0
C277 C 0.97927 0.6959 0.36433 0.0
C278 C 0.08782 0.49444 0.37646 0.0
C279 C 0.03666 0.43658 0.36649 0.0
C280 C 0.00078 0.60638 0.36495 0.0
C281 C 0.96964 0.46657 0.35524 0.0
C282 C 0.91301 0.72399 0.35258 0.0
C283 C 0.01192 0.83563 0.3738 0.0
N284 N 0.9534 0.54949 0.35485 0.0
N285 N 0.02562 0.75243 0.37482 0.0
H286 H 0.25883 0.83535 0.5964 0.0
H287 H 0.71779 0.85844 0.64078 0.0
H288 H 0.31541 0.77198 0.65733 0.0
H289 H 0.66762 0.82584 0.57791 0.0
H290 H 0.56834 0.84762 0.64767 0.0
H291 H 0.40729 0.85179 0.58989 0.0
C292 C 0.30238 0.82478 0.60842 0.0
C293 C 0.27463 0.80183 0.62743 0.0
C294 C 0.59043 0.8421 0.63241 0.0
C295 C 0.44455 0.82154 0.62009 0.0
C296 C 0.67559 0.84766 0.62851 0.0
C297 C 0.70545 0.84062 0.60887 0.0
C298 C 0.5348 0.83038 0.6165 0.0
C299 C 0.64747 0.8311 0.59332 0.0
C300 C 0.38714 0.8341 0.60466 0.0
C301 C 0.33412 0.78917 0.64242 0.0
N302 N 0.56485 0.826 0.59748 0.0
N303 N 0.41644 0.79956 0.63845 0.0
H304 H 0.5521 0.37672 0.88381 0.0
H305 H 0.4224 0.91852 0.84749 0.0
H306 H 0.35008 0.32642 0.84285 0.0
H307 H 0.6396 0.97434 0.88324 0.0
H308 H 0.39085 0.0673 0.84644 0.0
H309 H 0.57647 0.22735 0.88628 0.0
C310 C 0.51189 0.33433 0.87564 0.0
C311 C 0.44974 0.36409 0.8629 0.0
C312 C 0.44565 0.0468 0.85442 0.0
C313 C 0.47824 0.19351 0.86532 0.0
C314 C 0.46412 0.962 0.85483 0.0
C315 C 0.53347 0.93392 0.86554 0.0
C316 C 0.49684 0.10349 0.86481 0.0
C317 C 0.58508 -0.00695 0.87492 0.0
C318 C 0.52639 0.24908 0.87686 0.0
C319 C 0.39954 0.30622 0.85264 0.0
N320 N 0.5654 0.07486 0.87444 0.0
N321 N 0.41537 0.22373 0.85393 0.0
H322 H 0.17458 0.42192 0.0865 0.0
H323 H 0.81826 0.22403 0.15455 0.0
H324 H 0.22326 0.24409 0.13247 0.0
H325 H 0.76769 0.37101 0.10257 0.0
H326 H 0.96752 0.2381 0.14815 0.0
H327 H 0.02531 0.41114 0.09351 0.0
C328 C 0.15393 0.38106 0.09818 0.0
C329 C 0.21158 0.33496 0.10921 0.0
C330 C 0.92368 0.26711 0.13813 0.0
C331 C 0.04101 0.32201 0.11725 0.0
C332 C 0.83841 0.25916 0.14178 0.0
C333 C 0.78017 0.29619 0.12905 0.0
C334 C 0.95101 0.31271 0.12168 0.0
C335 C 0.81014 0.3411 0.11275 0.0
C336 C 0.06874 0.3749 0.10217 0.0
C337 C 0.18128 0.2827 0.12408 0.0
N338 N 0.8934 0.34816 0.10956 0.0
N339 N 0.09815 0.27762 0.12768 0.0
H340 H 0.84641 0.14391 0.64489 0.0
H341 H 0.13882 0.49635 0.60098 0.0
H342 H 0.04853 0.09506 0.60355 0.0
H343 H 0.92417 0.54945 0.63819 0.0
H344 H 0.10812 0.34899 0.60259 0.0
H345 H 0.8716 0.29233 0.64216 0.0
C346 C 0.89544 0.16441 0.635 0.0
C347 C 0.94604 0.10678 0.62457 0.0
C348 C 0.06781 0.39268 0.61048 0.0
C349 C 0.97594 0.27695 0.62166 0.0
C350 C 0.08559 0.47701 0.60969 0.0
C351 C 0.03373 0.53561 0.61941 0.0
C352 C -0.00236 0.36623 0.62108 0.0
C353 C 0.96596 0.50656 0.63053 0.0
C354 C 0.90999 0.24928 0.63355 0.0
C355 C 0.00806 0.13712 0.61188 0.0
N356 N 0.94961 0.4238 0.63098 0.0
N357 N 0.02186 0.22018 0.61095 0.0
H358 H 0.81699 0.7014 0.82788 0.0
H359 H 0.17084 0.63745 0.90971 0.0
H360 H 0.76407 0.63377 0.88873 0.0
H361 H 0.21957 0.62293 0.84645 0.0
H362 H 0.02182 0.64735 0.9027 0.0
H363 H 0.9661 0.68669 0.83475 0.0
C364 C 0.83661 0.68376 0.84269 0.0
C365 C 0.77784 0.66892 0.85776 0.0
C366 C 0.06524 0.64211 0.89032 0.0
C367 C 0.94807 0.65216 0.86569 0.0
C368 C 0.15036 0.63626 0.8943 0.0
C369 C 0.20818 0.63118 0.87854 0.0
C370 C 0.03766 0.6433 0.87044 0.0
C371 C 0.17768 0.6298 0.85894 0.0
C372 C 0.92166 0.67497 0.84656 0.0
C373 C 0.80695 0.64578 0.87664 0.0
N374 N 0.09461 0.6364 0.8554 0.0
N375 N 0.88998 0.63849 0.88009 0.0
H376 H 0.34731 0.64127 0.1431 0.0
H377 H 0.64698 -0.0052 0.10268 0.0
H378 H 0.55815 0.593 0.10433 0.0
H379 H 0.42607 0.04666 0.13782 0.0
H380 H 0.61627 0.84735 0.10379 0.0
H381 H 0.37231 0.78976 0.14058 0.0
C382 C 0.39824 0.66196 0.1338 0.0
C383 C 0.45136 0.60453 0.12407 0.0
C384 C 0.57459 0.89077 0.11133 0.0
C385 C 0.48103 0.7747 0.12143 0.0
C386 C 0.59236 0.97514 0.11085 0.0
C387 C 0.53874 0.03339 0.12011 0.0
C388 C 0.50267 0.86398 0.12118 0.0
C389 C 0.46923 0.004 0.13053 0.0
C390 C 0.41268 0.74684 0.13247 0.0
C391 C 0.51575 0.63498 0.1121 0.0
N392 N 0.45292 0.92121 0.13068 0.0
N393 N 0.52939 0.7181 0.11131 0.0
H394 H 0.72229 0.23459 0.35363 0.0
H395 H 0.2625 0.09437 0.3833 0.0
H396 H 0.67086 0.04968 0.39774 0.0
H397 H 0.3167 0.24802 0.33269 0.0
H398 H 0.41138 0.08228 0.3898 0.0
H399 H 0.5734 0.24487 0.34664 0.0
C400 C 0.67975 0.19489 0.36153 0.0
C401 C 0.70904 0.13996 0.37595 0.0
C402 C 0.39073 0.11854 0.37726 0.0
C403 C 0.53845 0.15263 0.36839 0.0
C404 C 0.30564 0.12574 0.37356 0.0
C405 C 0.27696 0.17242 0.35742 0.0
C406 C 0.4477 0.1586 0.36481 0.0
C407 C 0.33593 0.21136 0.34528 0.0
C408 C 0.59472 0.20131 0.35767 0.0
C409 C 0.65088 0.09256 0.38641 0.0
N410 N 0.41856 0.20368 0.34926 0.0
N411 N 0.56825 0.09991 0.3824 0.0
loop_
_geom_bond_atom_site_label_1
_geom_bond_atom_site_label_2
_geom_bond_distance
_geom_bond_site_symmetry_2
_ccdc_geom_bond_type
C0 O27 1.312 . S
C0 O28 1.208 . S
C1 O22 1.331 . S
C1 O25 1.244 . S
C2 O24 1.264 . S
C2 O26 1.273 . S
Mg3 O5 1.936 1_455 S
Mg3 O12 2.081 1_455 S
Mg3 O14 2.023 . S
Mg3 O18 2.031 . S
Mg3 O27 2.291 . S
Mg4 O5 1.963 . S
Mg4 O15 1.942 . S
Mg4 O16 1.955 . S
Mg4 O23 1.986 . S
O5 Mg3 1.936 1_655 S
O5 Mg4 1.963 . S
O5 Mg6 1.915 . S
Mg6 O5 1.915 . S
Mg6 O7 1.915 1_655 S
Mg6 O11 2.013 . S
Mg6 O17 2.114 1_655 S
Mg6 O21 2.013 . S
Mg6 O27 2.114 1_655 S
O7 Mg6 1.915 1_455 S
O7 Mg8 1.936 . S
O7 Mg9 1.963 1_455 S
Mg8 O7 1.936 . S
Mg8 O17 2.291 . S
Mg8 O22 2.081 . S
Mg8 O24 2.023 1_455 S
Mg8 O28 2.031 . S
Mg9 O7 1.963 1_655 S
Mg9 O13 1.986 . S
Mg9 O25 1.942 1_655 S
Mg9 O26 1.955 . S
C10 O21 1.191 . S
C10 O23 1.307 . S
O11 Mg6 2.013 . S
O11 C30 1.191 . S
O12 Mg3 2.081 1_655 S
O12 C20 1.331 . S
O13 Mg9 1.986 . S
O13 C30 1.307 . S
O14 Mg3 2.023 . S
O14 C29 1.264 . S
O15 Mg4 1.942 . S
O15 C20 1.244 . S
O16 Mg4 1.955 . S
O16 C29 1.273 1_655 S
O17 Mg6 2.114 1_455 S
O17 Mg8 2.291 . S
O17 C19 1.312 . S
O18 Mg3 2.031 . S
O18 C19 1.208 . S
C19 O17 1.312 . S
C19 O18 1.208 . S
C20 O12 1.331 . S
C20 O15 1.244 . S
O21 Mg6 2.013 . S
O21 C10 1.191 . S
O22 C1 1.331 . S
O22 Mg8 2.081 . S
O23 Mg4 1.986 . S
O23 C10 1.307 . S
O24 C2 1.264 . S
O24 Mg8 2.023 1_655 S
O25 C1 1.244 . S
O25 Mg9 1.942 1_455 S
O26 C2 1.273 . S
O26 Mg9 1.955 . S
O27 C0 1.312 . S
O27 Mg3 2.291 . S
O27 Mg6 2.114 1_455 S
O28 C0 1.208 . S
O28 Mg8 2.031 . S
C29 O14 1.264 . S
C29 O16 1.273 1_455 S
C30 O11 1.191 . S
C30 O13 1.307 . S
C31 O58 1.312 . S
C31 O59 1.208 . S
C32 O53 1.331 . S
C32 O56 1.244 . S
C33 O55 1.264 . S
C33 O57 1.273 . S
Mg34 O36 1.936 1_455 S
Mg34 O43 2.081 1_455 S
Mg34 O45 2.023 . S
Mg34 O49 2.031 . S
Mg34 O58 2.291 . S
Mg35 O36 1.963 . S
Mg35 O46 1.942 . S
Mg35 O47 1.955 . S
Mg35 O54 1.986 . S
O36 Mg34 1.936 1_655 S
O36 Mg35 1.963 . S
O36 Mg37 1.915 . S
Mg37 O36 1.915 . S
Mg37 O38 1.915 1_655 S
Mg37 O42 2.013 . S
Mg37 O48 2.114 1_655 S
Mg37 O52 2.013 . S
Mg37 O58 2.114 1_655 S
O38 Mg37 1.915 1_455 S
O38 Mg39 1.936 . S
O38 Mg40 1.963 1_455 S
Mg39 O38 1.936 . S
Mg39 O48 2.291 . S
Mg39 O53 2.081 . S
Mg39 O55 2.023 1_455 S
Mg39 O59 2.031 . S
Mg40 O38 1.963 1_655 S
Mg40 O44 1.986 . S
Mg40 O56 1.942 1_655 S
Mg40 O57 1.955 . S
C41 O52 1.191 . S
C41 O54 1.307 . S
O42 Mg37 2.013 . S
O42 C61 1.191 . S
O43 Mg34 2.081 1_655 S
O43 C51 1.331 . S
O44 Mg40 1.986 . S
O44 C61 1.307 . S
O45 Mg34 2.023 . S
O45 C60 1.264 . S
O46 Mg35 1.942 . S
O46 C51 1.244 . S
O47 Mg35 1.955 . S
O47 C60 1.273 1_655 S
O48 Mg37 2.114 1_455 S
O48 Mg39 2.291 . S
O48 C50 1.312 . S
O49 Mg34 2.031 . S
O49 C50 1.208 . S
C50 O48 1.312 . S
C50 O49 1.208 . S
C51 O43 1.331 . S
C51 O46 1.244 . S
O52 Mg37 2.013 . S
O52 C41 1.191 . S
O53 C32 1.331 . S
O53 Mg39 2.081 . S
O54 Mg35 1.986 . S
O54 C41 1.307 . S
O55 C33 1.264 . S
O55 Mg39 2.023 1_655 S
O56 C32 1.244 . S
O56 Mg40 1.942 1_455 S
O57 C33 1.273 . S
O57 Mg40 1.955 . S
O58 C31 1.312 . S
O58 Mg34 2.291 . S
O58 Mg37 2.114 1_455 S
O59 C31 1.208 . S
O59 Mg39 2.031 . S
C60 O45 1.264 . S
C60 O47 1.273 1_455 S
C61 O42 1.191 . S
C61 O44 1.307 . S
C62 O89 1.312 . S
C62 O90 1.208 . S
C63 O84 1.331 . S
C63 O87 1.244 . S
C64 O86 1.264 . S
C64 O88 1.273 . S
Mg65 O67 1.936 . S
Mg65 O74 2.081 . S
Mg65 O76 2.023 . S
Mg65 O80 2.031 . S
Mg65 O89 2.291 . S
Mg66 O67 1.963 . S
Mg66 O77 1.942 . S
Mg66 O78 1.955 . S
Mg66 O85 1.986 . S
O67 Mg65 1.936 . S
O67 Mg66 1.963 . S
O67 Mg68 1.915 . S
Mg68 O67 1.915 . S
Mg68 O69 1.915 . S
Mg68 O73 2.013 . S
Mg68 O79 2.114 . S
Mg68 O83 2.013 . S
Mg68 O89 2.114 . S
O69 Mg68 1.915 . S
O69 Mg70 1.936 . S
O69 Mg71 1.963 . S
Mg70 O69 1.936 . S
Mg70 O79 2.291 . S
Mg70 O84 2.081 . S
Mg70 O86 2.023 . S
Mg70 O90 2.031 . S
Mg71 O69 1.963 . S
Mg71 O75 1.986 . S
Mg71 O87 1.942 . S
Mg71 O88 1.955 . S
C72 O83 1.191 . S
C72 O85 1.307 . S
O73 Mg68 2.013 . S
O73 C92 1.191 . S
O74 Mg65 2.081 . S
O74 C82 1.331 . S
O75 Mg71 1.986 . S
O75 C92 1.307 . S
O76 Mg65 2.023 . S
O76 C91 1.264 . S
O77 Mg66 1.942 . S
O77 C82 1.244 . S
O78 Mg66 1.955 . S
O78 C91 1.273 . S
O79 Mg68 2.114 . S
O79 Mg70 2.291 . S
O79 C81 1.312 . S
O80 Mg65 2.031 . S
O80 C81 1.208 . S
C81 O79 1.312 . S
C81 O80 1.208 . S
C82 O74 1.331 . S
C82 O77 1.244 . S
O83 Mg68 2.013 . S
O83 C72 1.191 . S
O84 C63 1.331 . S
O84 Mg70 2.081 . S
O85 Mg66 1.986 . S
O85 C72 1.307 . S
O86 C64 1.264 . S
O86 Mg70 2.023 . S
O87 C63 1.244 . S
O87 Mg71 1.942 . S
O88 C64 1.273 . S
O88 Mg71 1.955 . S
O89 C62 1.312 . S
O89 Mg65 2.291 . S
O89 Mg68 2.114 . S
O90 C62 1.208 . S
O90 Mg70 2.031 . S
C91 O76 1.264 . S
C91 O78 1.273 . S
C92 O73 1.191 . S
C92 O75 1.307 . S
C93 O120 1.312 . S
C93 O121 1.208 . S
C94 O115 1.331 . S
C94 O118 1.244 . S
C95 O117 1.264 . S
C95 O119 1.273 . S
Mg96 O98 1.936 . S
Mg96 O105 2.081 . S
Mg96 O107 2.023 . S
Mg96 O111 2.031 . S
Mg96 O120 2.291 . S
Mg97 O98 1.963 . S
Mg97 O108 1.942 . S
Mg97 O109 1.955 . S
Mg97 O116 1.986 . S
O98 Mg96 1.936 . S
O98 Mg97 1.963 . S
O98 Mg99 1.915 . S
Mg99 O98 1.915 . S
Mg99 O100 1.915 . S
Mg99 O104 2.013 . S
Mg99 O110 2.114 . S
Mg99 O114 2.013 . S
Mg99 O120 2.114 . S
O100 Mg99 1.915 . S
O100 Mg101 1.936 . S
O100 Mg102 1.963 . S
Mg101 O100 1.936 . S
Mg101 O110 2.291 . S
Mg101 O115 2.081 . S
Mg101 O117 2.023 . S
Mg101 O121 2.031 . S
Mg102 O100 1.963 . S
Mg102 O106 1.986 . S
Mg102 O118 1.942 . S
Mg102 O119 1.955 . S
C103 O114 1.191 . S
C103 O116 1.307 . S
O104 Mg99 2.013 . S
O104 C123 1.191 . S
O105 Mg96 2.081 . S
O105 C113 1.331 . S
O106 Mg102 1.986 . S
O106 C123 1.307 . S
O107 Mg96 2.023 . S
O107 C122 1.264 . S
O108 Mg97 1.942 . S
O108 C113 1.244 . S
O109 Mg97 1.955 . S
O109 C122 1.273 . S
O110 Mg99 2.114 . S
O110 Mg101 2.291 . S
O110 C112 1.312 . S
O111 Mg96 2.031 . S
O111 C112 1.208 . S
C112 O110 1.312 . S
C112 O111 1.208 . S
C113 O105 1.331 . S
C113 O108 1.244 . S
O114 Mg99 2.013 . S
O114 C103 1.191 . S
O115 C94 1.331 . S
O115 Mg101 2.081 . S
O116 Mg97 1.986 . S
O116 C103 1.307 . S
O117 C95 1.264 . S
O117 Mg101 2.023 . S
O118 C94 1.244 . S
O118 Mg102 1.942 . S
O119 C95 1.273 . S
O119 Mg102 1.955 . S
O120 C93 1.312 . S
O120 Mg96 2.291 . S
O120 Mg99 2.114 . S
O121 C93 1.208 . S
O121 Mg101 2.031 . S
C122 O107 1.264 . S
C122 O109 1.273 . S
C123 O104 1.191 . S
C123 O106 1.307 . S
H124 C130 0.930 . S
H125 C134 0.930 . S
H126 C139 0.929 . S
H127 C137 0.929 . S
H128 C132 0.929 . S
H129 C138 0.929 . S
C130 H124 0.930 . S
C130 C131 1.367 . S
C130 C138 1.378 . S
C131 C130 1.367 . S
C131 C139 1.433 . S
C132 H128 0.929 . S
C132 C134 1.378 . S
C132 C136 1.350 . S
C133 C136 1.463 . S
C133 C138 1.350 . S
C133 N141 1.427 . S
C134 H125 0.930 . S
C134 C132 1.378 . S
C134 C135 1.367 . S
C135 C134 1.367 . S
C135 C137 1.433 . S
C136 C132 1.350 . S
C136 C133 1.463 . S
C136 N140 1.427 . S
C137 H127 0.929 . S
C137 C135 1.433 . S
C137 N140 1.384 . S
C138 H129 0.929 . S
C138 C130 1.378 . S
C138 C133 1.350 . S
C139 H126 0.929 . S
C139 C131 1.433 . S
C139 N141 1.384 . S
N140 C136 1.427 . S
N140 C137 1.384 . S
N141 C133 1.427 . S
N141 C139 1.384 . S
H142 C148 0.930 . S
H143 C152 0.930 . S
H144 C157 0.929 . S
H145 C155 0.929 . S
H146 C150 0.929 . S
H147 C156 0.929 . S
C148 H142 0.930 . S
C148 C149 1.367 . S
C148 C156 1.378 . S
C149 C148 1.367 . S
C149 C157 1.433 . S
C150 H146 0.929 . S
C150 C152 1.378 . S
C150 C154 1.350 . S
C151 C154 1.463 . S
C151 C156 1.350 . S
C151 N159 1.427 . S
C152 H143 0.930 . S
C152 C150 1.378 . S
C152 C153 1.367 . S
C153 C152 1.367 . S
C153 C155 1.433 . S
C154 C150 1.350 . S
C154 C151 1.463 . S
C154 N158 1.427 . S
C155 H145 0.929 . S
C155 C153 1.433 . S
C155 N158 1.384 . S
C156 H147 0.929 . S
C156 C148 1.378 . S
C156 C151 1.350 . S
C157 H144 0.929 . S
C157 C149 1.433 . S
C157 N159 1.384 . S
N158 C154 1.427 . S
N158 C155 1.384 . S
N159 C151 1.427 . S
N159 C157 1.384 . S
H160 C166 0.930 . S
H161 C170 0.930 . S
H162 C175 0.929 . S
H163 C173 0.929 . S
H164 C168 0.929 . S
H165 C174 0.929 . S
C166 H160 0.930 . S
C166 C167 1.367 . S
C166 C174 1.378 . S
C167 C166 1.367 . S
C167 C175 1.433 . S
C168 H164 0.929 . S
C168 C170 1.378 . S
C168 C172 1.350 . S
C169 C172 1.463 1_556 S
C169 C174 1.350 . S
C169 N177 1.427 . S
C170 H161 0.930 . S
C170 C168 1.378 . S
C170 C171 1.367 . S
C171 C170 1.367 . S
C171 C173 1.433 . S
C172 C168 1.350 . S
C172 C169 1.463 1_554 S
C172 N176 1.427 . S
C173 H163 0.929 . S
C173 C171 1.433 . S
C173 N176 1.384 . S
C174 H165 0.929 . S
C174 C166 1.378 . S
C174 C169 1.350 . S
C175 H162 0.929 . S
C175 C167 1.433 . S
C175 N177 1.384 . S
N176 C172 1.427 . S
N176 C173 1.384 . S
N177 C169 1.427 . S
N177 C175 1.384 . S
H178 C184 0.930 . S
H179 C188 0.930 . S
H180 C193 0.929 . S
H181 C191 0.929 . S
H182 C186 0.929 . S
H183 C192 0.929 . S
C184 H178 0.930 . S
C184 C185 1.367 . S
C184 C192 1.378 . S
C185 C184 1.367 . S
C185 C193 1.433 . S
C186 H182 0.929 . S
C186 C188 1.378 . S
C186 C190 1.350 . S
C187 C190 1.463 . S
C187 C192 1.350 . S
C187 N195 1.427 . S
C188 H179 0.930 . S
C188 C186 1.378 . S
C188 C189 1.367 . S
C189 C188 1.367 . S
C189 C191 1.433 . S
C190 C186 1.350 . S
C190 C187 1.463 . S
C190 N194 1.427 . S
C191 H181 0.929 . S
C191 C189 1.433 . S
C191 N194 1.384 . S
C192 H183 0.929 . S
C192 C184 1.378 . S
C192 C187 1.350 . S
C193 H180 0.929 . S
C193 C185 1.433 . S
C193 N195 1.384 . S
N194 C190 1.427 . S
N194 C191 1.384 . S
N195 C187 1.427 . S
N195 C193 1.384 . S
H196 C202 0.930 . S
H197 C206 0.930 . S
H198 C211 0.929 . S
H199 C209 0.929 . S
H200 C204 0.929 . S
H201 C210 0.929 . S
C202 H196 0.930 . S
C202 C203 1.367 . S
C202 C210 1.378 . S
C203 C202 1.367 . S
C203 C211 1.433 . S
C204 H200 0.929 . S
C204 C206 1.378 . S
C204 C208 1.350 . S
C205 C208 1.463 . S
C205 C210 1.350 . S
C205 N213 1.427 . S
C206 H197 0.930 . S
C206 C204 1.378 . S
C206 C207 1.367 . S
C207 C206 1.367 . S
C207 C209 1.433 . S
C208 C204 1.350 . S
C208 C205 1.463 . S
C208 N212 1.427 . S
C209 H199 0.929 . S
C209 C207 1.433 . S
C209 N212 1.384 . S
C210 H201 0.929 . S
C210 C202 1.378 . S
C210 C205 1.350 . S
C211 H198 0.929 . S
C211 C203 1.433 . S
C211 N213 1.384 . S
N212 C208 1.427 . S
N212 C209 1.384 . S
N213 C205 1.427 . S
N213 C211 1.384 . S
H214 C220 0.930 . S
H215 C224 0.930 . S
H216 C229 0.929 . S
H217 C227 0.929 . S
H218 C222 0.929 . S
H219 C228 0.929 . S
C220 H214 0.930 . S
C220 C221 1.367 . S
C220 C228 1.378 . S
C221 C220 1.367 . S
C221 C229 1.433 . S
C222 H218 0.929 . S
C222 C224 1.378 . S
C222 C226 1.350 . S
C223 C226 1.463 . S
C223 C228 1.350 . S
C223 N231 1.427 . S
C224 H215 0.930 . S
C224 C222 1.378 . S
C224 C225 1.367 . S
C225 C224 1.367 . S
C225 C227 1.433 . S
C226 C222 1.350 . S
C226 C223 1.463 . S
C226 N230 1.427 . S
C227 H217 0.929 . S
C227 C225 1.433 . S
C227 N230 1.384 . S
C228 H219 0.929 . S
C228 C220 1.378 . S
C228 C223 1.350 . S
C229 H216 0.929 . S
C229 C221 1.433 . S
C229 N231 1.384 . S
N230 C226 1.427 . S
N230 C227 1.384 . S
N231 C223 1.427 . S
N231 C229 1.384 . S
H232 C238 0.930 . S
H233 C242 0.930 . S
H234 C247 0.929 1_545 S
H235 C245 0.929 1_565 S
H236 C240 0.929 1_556 S
H237 C246 0.929 1_554 S
C238 H232 0.930 . S
C238 C239 1.367 . S
C238 C246 1.378 . S
C239 C238 1.367 . S
C239 C247 1.433 . S
C240 H236 0.929 1_554 S
C240 C242 1.378 . S
C240 C244 1.350 . S
C241 C244 1.463 1_566 S
C241 C246 1.350 . S
C241 N249 1.427 1_565 S
C242 H233 0.930 . S
C242 C240 1.378 . S
C242 C243 1.367 . S
C243 C242 1.367 . S
C243 C245 1.433 . S
C244 C240 1.350 . S
C244 C241 1.463 1_544 S
C244 N248 1.427 1_545 S
C245 H235 0.929 1_545 S
C245 C243 1.433 . S
C245 N248 1.384 1_545 S
C246 H237 0.929 1_556 S
C246 C238 1.378 . S
C246 C241 1.350 . S
C247 H234 0.929 1_565 S
C247 C239 1.433 . S
C247 N249 1.384 1_565 S
N248 C244 1.427 1_565 S
N248 C245 1.384 1_565 S
N249 C241 1.427 1_545 S
N249 C247 1.384 1_545 S
H250 C256 0.930 . S
H251 C260 0.930 . S
H252 C265 0.929 1_565 S
H253 C263 0.929 1_545 S
H254 C258 0.929 . S
H255 C264 0.929 . S
C256 H250 0.930 . S
C256 C257 1.367 . S
C256 C264 1.378 . S
C257 C256 1.367 . S
C257 C265 1.433 . S
C258 H254 0.929 . S
C258 C260 1.378 . S
C258 C262 1.350 . S
C259 C262 1.463 1_545 S
C259 C264 1.350 . S
C259 N267 1.427 1_545 S
C260 H251 0.930 . S
C260 C258 1.378 . S
C260 C261 1.367 . S
C261 C260 1.367 . S
C261 C263 1.433 . S
C262 C258 1.350 . S
C262 C259 1.463 1_565 S
C262 N266 1.427 1_565 S
C263 H253 0.929 1_565 S
C263 C261 1.433 . S
C263 N266 1.384 1_565 S
C264 H255 0.929 . S
C264 C256 1.378 . S
C264 C259 1.350 . S
C265 H252 0.929 1_545 S
C265 C257 1.433 . S
C265 N267 1.384 1_545 S
N266 C262 1.427 1_545 S
N266 C263 1.384 1_545 S
N267 C259 1.427 1_565 S
N267 C265 1.384 1_565 S
H268 C274 0.930 . S
H269 C278 0.930 . S
H270 C283 0.929 . S
H271 C281 0.929 . S
H272 C276 0.929 . S
H273 C282 0.929 . S
C274 H268 0.930 . S
C274 C275 1.368 . S
C274 C282 1.378 . S
C275 C274 1.368 . S
C275 C283 1.432 1_455 S
C276 H272 0.929 . S
C276 C278 1.378 . S
C276 C280 1.350 . S
C277 C280 1.462 1_455 S
C277 C282 1.352 . S
C277 N285 1.425 1_455 S
C278 H269 0.930 . S
C278 C276 1.378 . S
C278 C279 1.370 . S
C279 C278 1.370 . S
C279 C281 1.430 1_655 S
C280 C276 1.350 . S
C280 C277 1.462 1_655 S
C280 N284 1.427 1_655 S
C281 H271 0.929 . S
C281 C279 1.430 1_455 S
C281 N284 1.384 . S
C282 H273 0.929 . S
C282 C274 1.378 . S
C282 C277 1.352 . S
C283 H270 0.929 . S
C283 C275 1.432 1_655 S
C283 N285 1.384 . S
N284 C280 1.427 1_455 S
N284 C281 1.384 . S
N285 C277 1.425 1_655 S
N285 C283 1.384 . S
H286 C292 0.930 . S
H287 C296 0.930 . S
H288 C301 0.929 . S
H289 C299 0.929 . S
H290 C294 0.929 . S
H291 C300 0.929 . S
C292 H286 0.930 . S
C292 C293 1.367 . S
C292 C300 1.378 . S
C293 C292 1.367 . S
C293 C301 1.433 . S
C294 H290 0.929 . S
C294 C296 1.378 . S
C294 C298 1.350 . S
C295 C298 1.463 . S
C295 C300 1.350 . S
C295 N303 1.427 . S
C296 H287 0.930 . S
C296 C294 1.378 . S
C296 C297 1.367 . S
C297 C296 1.367 . S
C297 C299 1.433 . S
C298 C294 1.350 . S
C298 C295 1.463 . S
C298 N302 1.427 . S
C299 H289 0.929 . S
C299 C297 1.433 . S
C299 N302 1.384 . S
C300 H291 0.929 . S
C300 C292 1.378 . S
C300 C295 1.350 . S
C301 H288 0.929 . S
C301 C293 1.433 . S
C301 N303 1.384 . S
N302 C298 1.427 . S
N302 C299 1.384 . S
N303 C295 1.427 . S
N303 C301 1.384 . S
H304 C310 0.930 . S
H305 C314 0.930 . S
H306 C319 0.929 . S
H307 C317 0.929 . S
H308 C312 0.929 . S
H309 C318 0.929 . S
C310 H304 0.930 . S
C310 C311 1.367 . S
C310 C318 1.378 . S
C311 C310 1.367 . S
C311 C319 1.433 . S
C312 H308 0.929 . S
C312 C314 1.378 . S
C312 C316 1.350 . S
C313 C316 1.463 . S
C313 C318 1.350 . S
C313 N321 1.427 . S
C314 H305 0.930 . S
C314 C312 1.378 . S
C314 C315 1.367 . S
C315 C314 1.367 . S
C315 C317 1.433 . S
C316 C312 1.350 . S
C316 C313 1.463 . S
C316 N320 1.427 . S
C317 H307 0.929 . S
C317 C315 1.433 . S
C317 N320 1.384 . S
C318 H309 0.929 . S
C318 C310 1.378 . S
C318 C313 1.350 . S
C319 H306 0.929 . S
C319 C311 1.433 . S
C319 N321 1.384 . S
N320 C316 1.427 . S
N320 C317 1.384 . S
N321 C313 1.427 . S
N321 C319 1.384 . S
H322 C328 0.930 . S
H323 C332 0.930 . S
H324 C337 0.929 . S
H325 C335 0.929 . S
H326 C330 0.929 . S
H327 C336 0.929 . S
C328 H322 0.930 . S
C328 C329 1.367 . S
C328 C336 1.378 . S
C329 C328 1.367 . S
C329 C337 1.433 . S
C330 H326 0.929 . S
C330 C332 1.378 . S
C330 C334 1.350 . S
C331 C334 1.463 1_455 S
C331 C336 1.350 . S
C331 N339 1.427 . S
C332 H323 0.930 . S
C332 C330 1.378 . S
C332 C333 1.367 . S
C333 C332 1.367 . S
C333 C335 1.433 . S
C334 C330 1.350 . S
C334 C331 1.463 1_655 S
C334 N338 1.427 . S
C335 H325 0.929 . S
C335 C333 1.433 . S
C335 N338 1.384 . S
C336 H327 0.929 . S
C336 C328 1.378 . S
C336 C331 1.350 . S
C337 H324 0.929 . S
C337 C329 1.433 . S
C337 N339 1.384 . S
N338 C334 1.427 . S
N338 C335 1.384 . S
N339 C331 1.427 . S
N339 C337 1.384 . S
H340 C346 0.930 . S
H341 C350 0.930 . S
H342 C355 0.929 . S
H343 C353 0.929 . S
H344 C348 0.929 . S
H345 C354 0.929 . S
C346 H340 0.930 . S
C346 C347 1.367 . S
C346 C354 1.378 . S
C347 C346 1.367 . S
C347 C355 1.433 1_455 S
C348 H344 0.929 . S
C348 C350 1.378 . S
C348 C352 1.353 . S
C349 C352 1.462 1_455 S
C349 C354 1.351 . S
C349 N357 1.426 1_455 S
C350 H341 0.930 . S
C350 C348 1.378 . S
C350 C351 1.369 . S
C351 C350 1.369 . S
C351 C353 1.431 1_655 S
C352 C348 1.353 . S
C352 C349 1.462 1_655 S
C352 N356 1.424 1_655 S
C353 H343 0.929 . S
C353 C351 1.431 1_455 S
C353 N356 1.384 . S
C354 H345 0.929 . S
C354 C346 1.378 . S
C354 C349 1.351 . S
C355 H342 0.929 . S
C355 C347 1.433 1_655 S
C355 N357 1.384 . S
N356 C352 1.424 1_455 S
N356 C353 1.384 . S
N357 C349 1.426 1_655 S
N357 C355 1.384 . S
H358 C364 0.930 . S
H359 C368 0.930 . S
H360 C373 0.929 . S
H361 C371 0.929 . S
H362 C366 0.929 . S
H363 C372 0.929 . S
C364 H358 0.930 . S
C364 C365 1.367 . S
C364 C372 1.378 . S
C365 C364 1.367 . S
C365 C373 1.433 . S
C366 H362 0.929 . S
C366 C368 1.378 . S
C366 C370 1.350 . S
C367 C370 1.463 1_655 S
C367 C372 1.350 . S
C367 N375 1.427 . S
C368 H359 0.930 . S
C368 C366 1.378 . S
C368 C369 1.367 . S
C369 C368 1.367 . S
C369 C371 1.433 . S
C370 C366 1.350 . S
C370 C367 1.463 1_455 S
C370 N374 1.427 . S
C371 H361 0.929 . S
C371 C369 1.433 . S
C371 N374 1.384 . S
C372 H363 0.929 . S
C372 C364 1.378 . S
C372 C367 1.350 . S
C373 H360 0.929 . S
C373 C365 1.433 . S
C373 N375 1.384 . S
N374 C370 1.427 . S
N374 C371 1.384 . S
N375 C367 1.427 . S
N375 C373 1.384 . S
H376 C382 0.930 . S
H377 C386 0.930 . S
H378 C391 0.929 . S
H379 C389 0.929 . S
H380 C384 0.929 . S
H381 C390 0.929 . S
C382 H376 0.930 . S
C382 C383 1.367 . S
C382 C390 1.378 . S
C383 C382 1.367 . S
C383 C391 1.433 . S
C384 H380 0.929 . S
C384 C386 1.378 . S
C384 C388 1.350 . S
C385 C388 1.463 . S
C385 C390 1.350 . S
C385 N393 1.427 . S
C386 H377 0.930 . S
C386 C384 1.378 . S
C386 C387 1.367 . S
C387 C386 1.367 . S
C387 C389 1.433 . S
C388 C384 1.350 . S
C388 C385 1.463 . S
C388 N392 1.427 . S
C389 H379 0.929 . S
C389 C387 1.433 . S
C389 N392 1.384 . S
C390 H381 0.929 . S
C390 C382 1.378 . S
C390 C385 1.350 . S
C391 H378 0.929 . S
C391 C383 1.433 . S
C391 N393 1.384 . S
N392 C388 1.427 . S
N392 C389 1.384 . S
N393 C385 1.427 . S
N393 C391 1.384 . S
H394 C400 0.930 . S
H395 C404 0.930 . S
H396 C409 0.929 . S
H397 C407 0.929 . S
H398 C402 0.929 . S
H399 C408 0.929 . S
C400 H394 0.930 . S
C400 C401 1.367 . S
C400 C408 1.378 . S
C401 C400 1.367 . S
C401 C409 1.433 . S
C402 H398 0.929 . S
C402 C404 1.378 . S
C402 C406 1.350 . S
C403 C406 1.463 . S
C403 C408 1.350 . S
C403 N411 1.427 . S
C404 H395 0.930 . S
C404 C402 1.378 . S
C404 C405 1.367 . S
C405 C404 1.367 . S
C405 C407 1.433 . S
C406 C402 1.350 . S
C406 C403 1.463 . S
C406 N410 1.427 . S
C407 H397 0.929 . S
C407 C405 1.433 . S
C407 N410 1.384 . S
C408 H399 0.929 . S
C408 C400 1.378 . S
C408 C403 1.350 . S
C409 H396 0.929 . S
C409 C401 1.433 . S
C409 N411 1.384 . S
N410 C406 1.427 . S
N410 C407 1.384 . S
N411 C403 1.427 . S
N411 C409 1.384 . S
C131 C20 1.247 . S
C135 C51 1.259 . S
C149 C82 1.365 . S
C153 C33 1.356 . S
C167 C64 1.479 . S
C171 C122 1.478 . S
C185 C2 1.368 . S
C189 C94 1.355 . S
C203 C95 1.361 . S
C207 C1 1.373 . S
C221 C32 1.374 . S
C225 C91 1.357 . S
C239 C63 1.253 . S
C243 C113 1.250 . S
C257 C29 1.474 . S
C261 C60 1.464 . S
C275 C30 1.501 1_465 S
C279 C19 1.481 1_655 S
C293 C31 1.490 . S
C297 C41 1.509 . S
C311 C72 1.509 . S
C315 C62 1.491 1_545 S
C329 C103 1.507 . S
C333 C93 1.487 . S
C347 C61 1.500 1_445 S
C351 C50 1.481 1_655 S
C365 C81 1.482 . S
C369 C92 1.501 . S
C383 C123 1.506 . S
C387 C112 1.487 1_565 S
C401 C10 1.512 . S
C405 C0 1.494 . S
