# Generated by pormake.
# Topology uoz, (4)-cn, num edge types: 1
# Building blocks:
#     Node 0, Type 0, BuildingBlock: KUFVIS_clean_sbu_0, # of connection points: 4
#     Node 1, Type 0, BuildingBlock: KUFVIS_clean_sbu_0, # of connection points: 4
#     Node 2, Type 0, BuildingBlock: KUFVIS_clean_sbu_0, # of connection points: 4
#     Node 3, Type 0, BuildingBlock: KUFVIS_clean_sbu_0, # of connection points: 4
#     Node 4, Type 0, BuildingBlock: KUFVIS_clean_sbu_0, # of connection points: 4
#     Node 5, Type 0, BuildingBlock: KUFVIS_clean_sbu_0, # of connection points: 4
#     Node 6, Type 0, BuildingBlock: KUFVIS_clean_sbu_0, # of connection points: 4
#     Node 7, Type 0, BuildingBlock: KUFVIS_clean_sbu_0, # of connection points: 4
#     Node 8, Type 0, BuildingBlock: KUFVIS_clean_sbu_0, # of connection points: 4
#     Node 9, Type 0, BuildingBlock: KUFVIS_clean_sbu_0, # of connection points: 4
#     Node 10, Type 0, BuildingBlock: KUFVIS_clean_sbu_0, # of connection points: 4
#     Node 11, Type 0, BuildingBlock: KUFVIS_clean_sbu_0, # of connection points: 4
#     Node 12, Type 0, BuildingBlock: KUFVIS_clean_sbu_0, # of connection points: 4
#     Node 13, Type 0, BuildingBlock: KUFVIS_clean_sbu_0, # of connection points: 4
#     Node 14, Type 0, BuildingBlock: KUFVIS_clean_sbu_0, # of connection points: 4
#     Node 15, Type 0, BuildingBlock: KUFVIS_clean_sbu_0, # of connection points: 4
#     Edge 16, Type (0, 0), BuildingBlock: MIFKUJ_clean_linker_0, # of connection points: 2
#     Edge 17, Type (0, 0), BuildingBlock: MIFKUJ_clean_linker_0, # of connection points: 2
#     Edge 18, Type (0, 0), BuildingBlock: MIFKUJ_clean_linker_0, # of connection points: 2
#     Edge 19, Type (0, 0), BuildingBlock: MIFKUJ_clean_linker_0, # of connection points: 2
#     Edge 20, Type (0, 0), BuildingBlock: MIFKUJ_clean_linker_0, # of connection points: 2
#     Edge 21, Type (0, 0), BuildingBlock: MIFKUJ_clean_linker_0, # of connection points: 2
#     Edge 22, Type (0, 0), BuildingBlock: MIFKUJ_clean_linker_0, # of connection points: 2
#     Edge 23, Type (0, 0), BuildingBlock: MIFKUJ_clean_linker_0, # of connection points: 2
#     Edge 24, Type (0, 0), BuildingBlock: MIFKUJ_clean_linker_0, # of connection points: 2
#     Edge 25, Type (0, 0), BuildingBlock: MIFKUJ_clean_linker_0, # of connection points: 2
#     Edge 26, Type (0, 0), BuildingBlock: MIFKUJ_clean_linker_0, # of connection points: 2
#     Edge 27, Type (0, 0), BuildingBlock: MIFKUJ_clean_linker_0, # of connection points: 2
#     Edge 28, Type (0, 0), BuildingBlock: MIFKUJ_clean_linker_0, # of connection points: 2
#     Edge 29, Type (0, 0), BuildingBlock: MIFKUJ_clean_linker_0, # of connection points: 2
#     Edge 30, Type (0, 0), BuildingBlock: MIFKUJ_clean_linker_0, # of connection points: 2
#     Edge 31, Type (0, 0), BuildingBlock: MIFKUJ_clean_linker_0, # of connection points: 2
#     Edge 32, Type (0, 0), BuildingBlock: MIFKUJ_clean_linker_0, # of connection points: 2
#     Edge 33, Type (0, 0), BuildingBlock: MIFKUJ_clean_linker_0, # of connection points: 2
#     Edge 34, Type (0, 0), BuildingBlock: MIFKUJ_clean_linker_0, # of connection points: 2
#     Edge 35, Type (0, 0), BuildingBlock: MIFKUJ_clean_linker_0, # of connection points: 2
#     Edge 36, Type (0, 0), BuildingBlock: MIFKUJ_clean_linker_0, # of connection points: 2
#     Edge 37, Type (0, 0), BuildingBlock: MIFKUJ_clean_linker_0, # of connection points: 2
#     Edge 38, Type (0, 0), BuildingBlock: MIFKUJ_clean_linker_0, # of connection points: 2
#     Edge 39, Type (0, 0), BuildingBlock: MIFKUJ_clean_linker_0, # of connection points: 2
#     Edge 40, Type (0, 0), BuildingBlock: MIFKUJ_clean_linker_0, # of connection points: 2
#     Edge 41, Type (0, 0), BuildingBlock: MIFKUJ_clean_linker_0, # of connection points: 2
#     Edge 42, Type (0, 0), BuildingBlock: MIFKUJ_clean_linker_0, # of connection points: 2
#     Edge 43, Type (0, 0), BuildingBlock: MIFKUJ_clean_linker_0, # of connection points: 2
#     Edge 44, Type (0, 0), BuildingBlock: MIFKUJ_clean_linker_0, # of connection points: 2
#     Edge 45, Type (0, 0), BuildingBlock: MIFKUJ_clean_linker_0, # of connection points: 2
#     Edge 46, Type (0, 0), BuildingBlock: MIFKUJ_clean_linker_0, # of connection points: 2
#     Edge 47, Type (0, 0), BuildingBlock: MIFKUJ_clean_linker_0, # of connection points: 2
# Relax obj value: 0.160
# Max RMSD: 0.148
# Mean RMSD: 0.148
data_MOF--net-uoz--node1-KUFVIS_clean_sbu_0--edge1-MIFKUJ_clean_linker_0
_symmetry_space_group_name_H-M    P1
_symmetry_Int_Tables_number       1
_symmetry_cell_setting            triclinic
loop_
_symmetry_equiv_pos_as_xyz
'x, y, z'
_cell_length_a     78.517383
_cell_length_b     78.525529
_cell_length_c     27.467661
_cell_angle_alpha  90.003776
_cell_angle_beta   89.969058
_cell_angle_gamma 90.023986
loop_
_atom_site_label
_atom_site_type_symbol
_atom_site_fract_x
_atom_site_fract_y
_atom_site_fract_z
_atom_type_partial_charge
Mn0 Mn 0.04446 0.58292 0.29255 0.0
Mn1 Mn 0.05654 0.59584 0.17973 0.0
C2 C 0.03455 0.56869 0.22375 0.0
C3 C 0.04927 0.56601 0.3627 0.0
C4 C 0.02845 0.61308 0.23729 0.0
O5 O 0.06445 0.5992 0.3072 0.0
O6 O 0.07153 0.60549 0.22979 0.0
C7 C 0.08941 0.5774 0.17722 0.0
N8 N 0.07407 0.58106 0.15665 0.0
C9 C 0.08053 0.56398 0.08637 0.0
C10 C 0.09648 0.56014 0.10656 0.0
C11 C 0.1009 0.56681 0.15232 0.0
C12 C 0.06959 0.57451 0.11308 0.0
H13 H 0.09287 0.58258 0.21224 0.0
C14 C 0.07378 0.60669 0.27556 0.0
O15 O 0.03954 0.57939 0.36393 0.0
O16 O 0.0568 0.56301 0.3216 0.0
N17 N 0.04347 0.58779 0.12597 0.0
C18 C 0.02749 0.5925 0.11216 0.0
C19 C 0.02118 0.58709 0.06698 0.0
C20 C 0.03149 0.57716 0.03636 0.0
C21 C 0.04782 0.5724 0.05136 0.0
C22 C 0.0535 0.57834 0.09644 0.0
H23 H 0.0197 0.60047 0.1352 0.0
O24 O 0.02695 0.56709 0.26537 0.0
O25 O 0.04832 0.57793 0.22372 0.0
O26 O 0.02905 0.60344 0.27495 0.0
O27 O 0.03831 0.61145 0.20054 0.0
C28 C 0.05871 0.56205 0.02327 0.0
C29 C 0.07501 0.55773 0.04095 0.0
H30 H 0.10539 0.55203 0.08735 0.0
H31 H 0.11316 0.56388 0.16821 0.0
H32 H 0.00854 0.5908 0.0554 0.0
H33 H 0.02689 0.5735 1.00106 0.0
H34 H 0.0546 0.55722 0.98824 0.0
H35 H 0.08321 0.54961 0.01932 0.0
Mn36 Mn 0.71151 0.75332 0.54774 0.0
Mn37 Mn 0.70825 0.75846 0.42571 0.0
C38 C 0.72987 0.73921 0.49526 0.0
C39 C 0.72458 0.76169 0.62165 0.0
C40 C 0.68439 0.73586 0.48458 0.0
O41 O 0.69618 0.77453 0.54152 0.0
O42 O 0.69709 0.77764 0.45967 0.0
C43 C 0.73022 0.7889 0.41545 0.0
N44 N 0.72637 0.77259 0.40278 0.0
C45 C 0.74935 0.77175 0.34481 0.0
C46 C 0.7535 0.7886 0.357 0.0
C47 C 0.74393 0.79718 0.39263 0.0
C48 C 0.73562 0.76414 0.36898 0.0
H49 H 0.72288 0.79552 0.44279 0.0
C50 C 0.69251 0.7825 0.50214 0.0
O51 O 0.71052 0.75292 0.6214 0.0
O52 O 0.73011 0.76659 0.5796 0.0
N53 N 0.71852 0.74082 0.38759 0.0
C54 C 0.71328 0.72441 0.38145 0.0
C55 C 0.7215 0.71405 0.34707 0.0
C56 C 0.73491 0.7207 0.31905 0.0
C57 C 0.74011 0.73761 0.32606 0.0
C58 C 0.73132 0.74738 0.3605 0.0
H59 H 0.70284 0.71928 0.40241 0.0
O60 O 0.72776 0.73379 0.53935 0.0
O61 O 0.72143 0.75277 0.48349 0.0
O62 O 0.69133 0.73799 0.52642 0.0
O63 O 0.68953 0.74338 0.44599 0.0
C64 C 0.75371 0.74514 0.30037 0.0
C65 C 0.75843 0.76215 0.31006 0.0
H66 H 0.76406 0.79502 0.33948 0.0
H67 H 0.7471 0.81015 0.40239 0.0
H68 H 0.71744 0.701 0.34194 0.0
H69 H 0.7411 0.71271 0.29223 0.0
H70 H 0.76074 0.73792 0.27349 0.0
H71 H 0.76909 0.7677 0.29067 0.0
Mn72 Mn 0.54097 0.41912 0.8209 0.0
Mn73 Mn 0.53217 0.41164 0.70193 0.0
C74 C 0.55141 0.43691 0.76069 0.0
C75 C 0.53422 0.43348 0.89414 0.0
C76 C 0.55864 0.39168 0.75896 0.0
O77 O 0.5209 0.40222 0.82457 0.0
O78 O 0.5155 0.39988 0.74387 0.0
C79 C 0.49928 0.42988 0.69499 0.0
N80 N 0.51555 0.42752 0.67922 0.0
C81 C 0.51222 0.44883 0.61698 0.0
C82 C 0.49541 0.45147 0.6325 0.0
C83 C 0.48893 0.44198 0.67172 0.0
C84 C 0.52192 0.4366 0.64154 0.0
H85 H 0.49425 0.42258 0.72505 0.0
C86 C 0.51225 0.39653 0.78847 0.0
O87 O 0.5442 0.42027 0.89381 0.0
O88 O 0.5273 0.43746 0.85297 0.0
N89 N 0.54736 0.42239 0.65689 0.0
C90 C 0.56402 0.41875 0.64766 0.0
C91 C 0.57248 0.42727 0.60976 0.0
C92 C 0.5637 0.43931 0.58148 0.0
C93 C 0.54654 0.44278 0.59151 0.0
C94 C 0.53873 0.43378 0.62946 0.0
H95 H 0.57079 0.40941 0.669 0.0
O96 O 0.55857 0.43652 0.80312 0.0
O97 O 0.53833 0.42705 0.75484 0.0
O98 O 0.55727 0.39969 0.79949 0.0
O99 O 0.54958 0.39503 0.72156 0.0
C100 C 0.53693 0.45496 0.56572 0.0
C101 C 0.5198 0.45803 0.57858 0.0
H102 H 0.48739 0.46082 0.61475 0.0
H103 H 0.47598 0.44397 0.68396 0.0
H104 H 0.58573 0.42453 0.60225 0.0
H105 H 0.57027 0.44581 0.55221 0.0
H106 H 0.54266 0.46218 0.53635 0.0
H107 H 0.51262 0.46758 0.55893 0.0
Mn108 Mn 0.87775 0.24843 0.06647 0.0
Mn109 Mn 0.89189 0.24138 0.95123 0.0
C110 C 0.86363 0.26025 1.00008 0.0
C111 C 0.85999 0.24133 0.13327 0.0
C112 C 0.90831 0.26668 0.01985 0.0
O113 O 0.89375 0.22772 0.0749 0.0
O114 O 0.90099 0.22406 0.99593 0.0
C115 C 0.87408 0.20879 0.93238 0.0
N116 N 0.87772 0.2251 0.91919 0.0
C117 C 0.86181 0.22222 0.84481 0.0
C118 C 0.85801 0.20533 0.85738 0.0
C119 C 0.86411 0.19861 0.90148 0.0
C120 C 0.87179 0.23174 0.87711 0.0
H121 H 0.87881 0.20359 0.96608 0.0
C122 C 0.90155 0.21977 0.04071 0.0
O123 O 0.87355 0.25063 0.13869 0.0
O124 O 0.85744 0.23526 0.09 0.0
N125 N 0.88411 0.25712 0.90312 0.0
C126 C 0.88821 0.27388 0.89767 0.0
C127 C 0.88311 0.28253 0.85542 0.0
C128 C 0.87397 0.27384 0.8192 0.0
C129 C 0.86962 0.2567 0.82599 0.0
C130 C 0.87531 0.24866 0.86839 0.0
H131 H 0.89556 0.28051 0.92495 0.0
O132 O 0.86194 0.26673 0.04323 0.0
O133 O 0.87345 0.24698 0.99687 0.0
O134 O 0.89827 0.26458 0.05606 0.0
O135 O 0.90718 0.25842 0.98006 0.0
C136 C 0.85992 0.24726 0.7923 0.0
C137 C 0.85591 0.23006 0.80188 0.0
H138 H 0.85033 0.19744 0.83362 0.0
H139 H 0.8612 0.18561 0.9115 0.0
H140 H 0.88645 0.29579 0.85041 0.0
H141 H 0.87052 0.28036 0.78602 0.0
H142 H 0.85529 0.25317 0.75922 0.0
H143 H 0.84821 0.22301 0.7761 0.0
Mn144 Mn 0.04331 0.42539 0.82613 0.0
Mn145 Mn 0.05383 0.4143 0.9417 0.0
C146 C 0.03209 0.44033 0.89197 0.0
C147 C 0.04868 0.44167 0.75504 0.0
C148 C 0.02764 0.39518 0.88187 0.0
O149 O 0.06413 0.40975 0.81611 0.0
O150 O 0.07019 0.40472 0.89509 0.0
C151 C 0.08604 0.43375 0.9488 0.0
N152 N 0.07029 0.42993 0.96653 0.0
C153 C 0.07454 0.44796 0.03626 0.0
C154 C 0.09084 0.45204 0.01891 0.0
C155 C 0.09658 0.44495 0.97488 0.0
C156 C 0.06461 0.43675 0.00861 0.0
H157 H 0.09052 0.42824 0.91515 0.0
C158 C 0.07323 0.40309 0.84975 0.0
O159 O 0.03947 0.42792 0.75383 0.0
O160 O 0.05542 0.44539 0.79674 0.0
N161 N 0.03923 0.42256 0.99189 0.0
C162 C 0.02288 0.41798 1.00212 0.0
C163 C 0.01516 0.4241 0.04469 0.0
C164 C 0.02444 0.43453 0.07654 0.0
C165 C 0.04115 0.43922 0.06509 0.0
C166 C 0.04823 0.43267 0.02235 0.0
H167 H 0.01585 0.40966 0.97812 0.0
O168 O 0.02491 0.44099 0.84955 0.0
O169 O 0.046 0.43137 0.89456 0.0
O170 O 0.02832 0.40451 0.84362 0.0
O171 O 0.03677 0.39765 0.91966 0.0
C172 C 0.05103 0.45022 0.09419 0.0
C173 C 0.06768 0.45467 0.07961 0.0
H174 H 0.099 0.46067 0.03894 0.0
H175 H 0.10913 0.44807 0.9612 0.0
H176 H 0.00217 0.42067 0.05329 0.0
H177 H 0.01867 0.43875 0.10988 0.0
H178 H 0.04587 0.45548 0.12753 0.0
H179 H 0.07507 0.46333 0.1019 0.0
Mn180 Mn 0.8677 0.75241 0.07414 0.0
Mn181 Mn 0.88166 0.75789 0.19019 0.0
C182 C 0.85316 0.74038 0.13941 0.0
C183 C 0.85044 0.76012 0.00705 0.0
C184 C 0.89727 0.73246 0.12106 0.0
O185 O 0.88407 0.77282 0.06706 0.0
O186 O 0.8923 0.77438 0.14567 0.0
C187 C 0.86615 0.79174 0.20742 0.0
N188 N 0.86851 0.77524 0.22112 0.0
C189 C 0.85357 0.77981 0.29644 0.0
C190 C 0.851 0.79687 0.28325 0.0
C191 C 0.85721 0.80282 0.23836 0.0
C192 C 0.86228 0.7693 0.26368 0.0
H193 H 0.87115 0.79641 0.17332 0.0
C194 C 0.89284 0.77943 0.10157 0.0
O195 O 0.86381 0.75055 1.00192 0.0
O196 O 0.84777 0.76609 0.05041 0.0
N197 N 0.87264 0.74295 0.23866 0.0
C198 C 0.87563 0.726 0.24498 0.0
C199 C 0.86999 0.71796 0.28771 0.0
C200 C 0.86181 0.72752 0.32405 0.0
C201 C 0.85906 0.74499 0.31694 0.0
C202 C 0.86469 0.75224 0.2733 0.0
H203 H 0.88234 0.7187 0.21775 0.0
O204 O 0.85151 0.73421 0.0959 0.0
O205 O 0.86314 0.75348 0.14384 0.0
O206 O 0.8881 0.73597 0.08391 0.0
O207 O 0.89574 0.73972 0.16228 0.0
C208 C 0.851 0.75553 0.3515 0.0
C209 C 0.84799 0.77285 0.34096 0.0
H210 H 0.84429 0.80551 0.30729 0.0
H211 H 0.85528 0.81597 0.2279 0.0
H212 H 0.87218 0.70448 0.29295 0.0
H213 H 0.85765 0.72131 0.35721 0.0
H214 H 0.84699 0.75038 0.38618 0.0
H215 H 0.84147 0.78071 0.36746 0.0
Mn216 Mn 0.53762 0.58101 0.33358 0.0
Mn217 Mn 0.52695 0.59047 0.45019 0.0
C218 C 0.54604 0.56346 0.39742 0.0
C219 C 0.5323 0.56633 0.26003 0.0
C220 C 0.55596 0.60783 0.3967 0.0
O221 O 0.51853 0.5988 0.3242 0.0
O222 O 0.51271 0.60307 0.40376 0.0
C223 C 0.4926 0.57491 0.4496 0.0
N224 N 0.50826 0.57662 0.47027 0.0
C225 C 0.50011 0.55931 0.5386 0.0
C226 C 0.48383 0.55742 0.51826 0.0
C227 C 0.48011 0.56514 0.47333 0.0
C228 C 0.51211 0.56889 0.51275 0.0
H229 H 0.48966 0.58104 0.41549 0.0
C230 C 0.51014 0.60593 0.35867 0.0
O231 O 0.54275 0.57914 0.2619 0.0
O232 O 0.52408 0.56288 0.2997 0.0
N233 N 0.53949 0.57943 0.50068 0.0
C234 C 0.55603 0.58181 0.514 0.0
C235 C 0.5619 0.57487 0.55799 0.0
C236 C 0.5506 0.56594 0.58834 0.0
C237 C 0.53363 0.56365 0.57381 0.0
C238 C 0.52857 0.57068 0.52937 0.0
H239 H 0.56464 0.58902 0.49134 0.0
O240 O 0.55402 0.56317 0.35618 0.0
O241 O 0.53318 0.5738 0.40034 0.0
O242 O 0.55422 0.60009 0.35588 0.0
O243 O 0.54639 0.60505 0.43343 0.0
C244 C 0.52151 0.5547 0.60171 0.0
C245 C 0.50485 0.55226 0.58376 0.0
H246 H 0.4741 0.5501 0.53681 0.0
H247 H 0.46759 0.56376 0.45738 0.0
H248 H 0.57503 0.57662 0.56884 0.0
H249 H 0.55513 0.56079 0.62255 0.0
H250 H 0.52492 0.54953 0.63686 0.0
H251 H 0.49577 0.54504 0.60512 0.0
Mn252 Mn 0.7157 0.24903 0.58494 0.0
Mn253 Mn 0.70363 0.24236 0.70101 0.0
C254 C 0.73233 0.26018 0.64703 0.0
C255 C 0.73134 0.24193 0.51392 0.0
C256 C 0.69058 0.27157 0.64346 0.0
O257 O 0.69871 0.22933 0.57807 0.0
O258 O 0.68791 0.23184 0.65334 0.0
C259 C 0.7073 0.20431 0.70184 0.0
N260 N 0.7124 0.2198 0.71904 0.0
C261 C 0.73475 0.20276 0.77162 0.0
C262 C 0.72837 0.18808 0.75027 0.0
C263 C 0.71488 0.1889 0.7169 0.0
C264 C 0.72424 0.22075 0.75394 0.0
H265 H 0.69703 0.20339 0.6762 0.0
C266 C 0.68736 0.22603 0.60998 0.0
O267 O 0.71803 0.25174 0.51195 0.0
O268 O 0.73468 0.23535 0.55605 0.0
N269 N 0.71727 0.25215 0.75122 0.0
C270 C 0.71564 0.26773 0.772 0.0
C271 C 0.72736 0.27359 0.80675 0.0
C272 C 0.7417 0.26415 0.82131 0.0
C273 C 0.74389 0.24658 0.80695 0.0
C274 C 0.72791 0.2407 0.76964 0.0
H275 H 0.70552 0.27615 0.76081 0.0
O276 O 0.73248 0.26656 0.60364 0.0
O277 O 0.7225 0.24667 0.65361 0.0
O278 O 0.69588 0.26588 0.60222 0.0
O279 O 0.69426 0.2647 0.68423 0.0
C280 C 0.76128 0.21925 0.83467 0.0
C281 C 0.7522 0.20133 0.80909 0.0
H282 H 0.73392 0.17584 0.75906 0.0
H283 H 0.71019 0.17712 0.70146 0.0
H284 H 0.7258 0.28638 0.82082 0.0
H285 H 0.75015 0.27098 0.84546 0.0
H286 H 0.7721 0.21752 0.85925 0.0
H287 H 0.75766 0.18898 0.81684 0.0
Mn288 Mn 0.3726 0.25368 0.56789 0.0
Mn289 Mn 0.3784 0.26061 0.6885 0.0
C290 C 0.35511 0.24078 0.62503 0.0
C291 C 0.35818 0.2612 0.49525 0.0
C292 C 0.40077 0.23687 0.62873 0.0
O293 O 0.3882 0.27477 0.56879 0.0
O294 O 0.3892 0.27899 0.65029 0.0
C295 C 0.35777 0.2919 0.70011 0.0
N296 N 0.36112 0.27548 0.71284 0.0
C297 C 0.33919 0.27588 0.77406 0.0
C298 C 0.3355 0.29281 0.76161 0.0
C299 C 0.34483 0.30083 0.72443 0.0
C300 C 0.35223 0.26763 0.74855 0.0
H301 H 0.36495 0.29812 0.67169 0.0
C302 C 0.39285 0.28319 0.60651 0.0
O303 O 0.37208 0.25218 0.49426 0.0
O304 O 0.35356 0.26673 0.53754 0.0
N305 N 0.3685 0.24372 0.73004 0.0
C306 C 0.37338 0.22724 0.73683 0.0
C307 C 0.36527 0.21737 0.77262 0.0
C308 C 0.35235 0.2246 0.80136 0.0
C309 C 0.34761 0.24161 0.79391 0.0
C310 C 0.35622 0.25085 0.75791 0.0
H311 H 0.38342 0.22166 0.71519 0.0
O312 O 0.35631 0.23457 0.5815 0.0
O313 O 0.36398 0.25436 0.63364 0.0
O314 O 0.39303 0.23841 0.58781 0.0
O315 O 0.39639 0.24495 0.66711 0.0
C316 C 0.3346 0.24974 0.82057 0.0
C317 C 0.33033 0.26684 0.81048 0.0
H318 H 0.32551 0.29974 0.78025 0.0
H319 H 0.34207 0.31389 0.71464 0.0
H320 H 0.36901 0.20425 0.77817 0.0
H321 H 0.34617 0.21695 0.82903 0.0
H322 H 0.3277 0.24293 0.84864 0.0
H323 H 0.32018 0.27288 0.83083 0.0
Mn324 Mn 0.21091 0.75613 0.0703 0.0
Mn325 Mn 0.20729 0.75088 0.19225 0.0
C326 C 0.23127 0.76695 0.12299 0.0
C327 C 0.2229 0.74757 0.99519 0.0
C328 C 0.18703 0.77721 0.13614 0.0
O329 O 0.19346 0.73664 0.07487 0.0
O330 O 0.1921 0.73498 0.15704 0.0
C331 C 0.22211 0.71627 0.19833 0.0
N332 N 0.22206 0.73289 0.21249 0.0
C333 C 0.24497 0.72796 0.26897 0.0
C334 C 0.24523 0.71078 0.25506 0.0
C335 C 0.23378 0.70493 0.21949 0.0
C336 C 0.23309 0.73867 0.24649 0.0
H337 H 0.2133 0.71171 0.17112 0.0
C338 C 0.18755 0.73027 0.11439 0.0
O339 O 0.20985 0.75776 0.99683 0.0
O340 O 0.22782 0.74136 0.03642 0.0
N341 N 0.22134 0.76535 0.23142 0.0
C342 C 0.22001 0.78244 0.239 0.0
C343 C 0.23043 0.7903 0.27392 0.0
C344 C 0.24209 0.78051 0.30073 0.0
C345 C 0.24346 0.763 0.2917 0.0
C346 C 0.23254 0.75582 0.257 0.0
H347 H 0.21108 0.79001 0.21852 0.0
O348 O 0.22936 0.77347 0.08007 0.0
O349 O 0.2211 0.75454 0.13416 0.0
O350 O 0.19247 0.77334 0.09348 0.0
O351 O 0.19206 0.76978 0.17493 0.0
C352 C 0.25531 0.75241 0.31547 0.0
C353 C 0.25614 0.73492 0.30387 0.0
H354 H 0.25422 0.70199 0.27128 0.0
H355 H 0.23393 0.69169 0.2085 0.0
H356 H 0.22943 0.80386 0.28032 0.0
H357 H 0.24995 0.78659 0.32805 0.0
H358 H 0.264 0.75762 0.34225 0.0
H359 H 0.26547 0.72695 0.32188 0.0
Mn360 Mn 0.21387 0.25837 0.04338 0.0
Mn361 Mn 0.20335 0.26808 0.92692 0.0
C362 C 0.2293 0.24709 0.97869 0.0
C363 C 0.23035 0.26421 0.11368 0.0
C364 C 0.18391 0.24228 0.98782 0.0
O365 O 0.19807 0.27918 0.05178 0.0
O366 O 0.19374 0.28491 0.97217 0.0
C367 C 0.22302 0.30008 0.91756 0.0
N368 N 0.21899 0.28427 0.90078 0.0
C369 C 0.23597 0.28829 0.82883 0.0
C370 C 0.24027 0.30466 0.84516 0.0
C371 C 0.23387 0.31053 0.88993 0.0
C372 C 0.22535 0.27837 0.85834 0.0
H373 H 0.21791 0.30469 0.95157 0.0
C374 C 0.19177 0.28818 0.0173 0.0
O375 O 0.21663 0.25496 0.11591 0.0
O376 O 0.23374 0.27087 0.07168 0.0
N377 N 0.21165 0.25298 0.87785 0.0
C378 C 0.20717 0.2365 0.86898 0.0
C379 C 0.21296 0.2285 0.82637 0.0
C380 C 0.22282 0.23766 0.79269 0.0
C381 C 0.22716 0.25465 0.80249 0.0
C382 C 0.22128 0.26185 0.84589 0.0
H383 H 0.19919 0.22955 0.89415 0.0
O384 O 0.22975 0.23997 0.02119 0.0
O385 O 0.22013 0.26079 0.97522 0.0
O386 O 0.19305 0.24313 0.02645 0.0
O387 O 0.18672 0.25126 0.94993 0.0
C388 C 0.23711 0.2647 0.77096 0.0
C389 C 0.24176 0.28141 0.78442 0.0
H390 H 0.24848 0.31282 0.82368 0.0
H391 H 0.23711 0.32314 0.90279 0.0
H392 H 0.20971 0.21537 0.81918 0.0
H393 H 0.22709 0.23149 0.7596 0.0
H394 H 0.24135 0.25963 0.73643 0.0
H395 H 0.24975 0.28886 0.76032 0.0
Mn396 Mn 0.37081 0.75 0.55548 0.0
Mn397 Mn 0.38235 0.73745 0.44193 0.0
C398 C 0.35491 0.75817 0.48826 0.0
C399 C 0.35464 0.74539 0.62693 0.0
C400 C 0.39954 0.76654 0.49544 0.0
O401 O 0.38807 0.73082 0.56958 0.0
O402 O 0.39331 0.72332 0.49172 0.0
C403 C 0.36576 0.70362 0.44241 0.0
N404 N 0.3682 0.71909 0.42116 0.0
C405 C 0.35209 0.7108 0.35065 0.0
C406 C 0.34937 0.69476 0.37172 0.0
C407 C 0.35613 0.6912 0.41798 0.0
C408 C 0.36146 0.72277 0.37721 0.0
H409 H 0.37123 0.70076 0.47752 0.0
C410 C 0.39534 0.72152 0.53744 0.0
O411 O 0.36761 0.75569 0.62656 0.0
O412 O 0.35186 0.73704 0.5871 0.0
N413 N 0.37293 0.74982 0.3885 0.0
C414 C 0.37638 0.76605 0.37394 0.0
C415 C 0.37035 0.77175 0.32866 0.0
C416 C 0.36135 0.76054 0.29821 0.0
C417 C 0.35818 0.74382 0.3137 0.0
C418 C 0.36419 0.73898 0.35956 0.0
H419 H 0.38376 0.77452 0.39659 0.0
O420 O 0.3538 0.76646 0.52886 0.0
O421 O 0.36493 0.74501 0.48813 0.0
O422 O 0.39052 0.76606 0.5344 0.0
O423 O 0.39746 0.75638 0.45966 0.0
C424 C 0.34935 0.73172 0.28537 0.0
C425 C 0.34605 0.71533 0.30413 0.0
H426 H 0.34214 0.68507 0.35269 0.0
H427 H 0.35412 0.67884 0.43446 0.0
H428 H 0.37289 0.78465 0.31691 0.0
H429 H 0.3569 0.76493 0.26305 0.0
H430 H 0.34489 0.73497 0.24927 0.0
H431 H 0.33897 0.70627 0.28234 0.0
Mn432 Mn 0.54205 0.07812 0.7874 0.0
Mn433 Mn 0.54519 0.07927 0.66463 0.0
C434 C 0.52684 0.05915 0.73911 0.0
C435 C 0.55115 0.06524 0.86101 0.0
C436 C 0.52366 0.10429 0.72284 0.0
O437 O 0.56356 0.09286 0.77691 0.0
O438 O 0.56464 0.09117 0.69489 0.0
C439 C 0.57566 0.0573 0.65519 0.0
N440 N 0.55925 0.06091 0.643 0.0
C441 C 0.55809 0.03705 0.58809 0.0
C442 C 0.57506 0.03322 0.59956 0.0
C443 C 0.58385 0.04333 0.63348 0.0
C444 C 0.55059 0.05109 0.61106 0.0
H445 H 0.58241 0.06498 0.68147 0.0
C446 C 0.57061 0.09616 0.7358 0.0
O447 O 0.54292 0.07963 0.8613 0.0
O448 O 0.55531 0.05949 0.81864 0.0
N449 N 0.52724 0.06812 0.62985 0.0
C450 C 0.51064 0.07288 0.62517 0.0
C451 C 0.5 0.06397 0.59292 0.0
C452 C 0.50656 0.05035 0.56562 0.0
C453 C 0.52365 0.04557 0.57138 0.0
C454 C 0.53368 0.05504 0.60365 0.0
H455 H 0.50555 0.0834 0.64581 0.0
O456 O 0.52202 0.06217 0.78331 0.0
O457 O 0.54031 0.0672 0.72471 0.0
O458 O 0.52685 0.09843 0.76557 0.0
O459 O 0.53016 0.09812 0.68394 0.0
C460 C 0.53109 0.03172 0.54666 0.0
C461 C 0.54824 0.02735 0.55536 0.0
H462 H 0.58141 0.02244 0.58293 0.0
H463 H 0.5969 0.04036 0.64286 0.0
H464 H 0.4868 0.06766 0.58891 0.0
H465 H 0.49835 0.04362 0.54046 0.0
H466 H 0.52367 0.0242 0.52138 0.0
H467 H 0.5537 0.01646 0.53689 0.0
Mn468 Mn 0.03499 0.92439 0.29758 0.0
Mn469 Mn 0.02599 0.91598 0.17917 0.0
C470 C 0.04783 0.94007 0.23582 0.0
C471 C 0.02923 0.94012 0.36936 0.0
C472 C 0.05104 0.8951 0.23847 0.0
O473 O 0.01356 0.90932 0.30285 0.0
O474 O 0.00895 0.90564 0.22256 0.0
C475 C 0.9943 0.9363 0.17336 0.0
N476 N 0.01 0.93232 0.15564 0.0
C477 C 0.00646 0.95133 0.08777 0.0
C478 C 0.99019 0.95557 0.10506 0.0
C479 C 0.98413 0.94809 0.14822 0.0
C480 C 0.01605 0.93962 0.11465 0.0
H481 H 0.98959 0.93051 0.20637 0.0
C482 C 0.00501 0.90332 0.26708 0.0
O483 O 0.03768 0.92589 0.37078 0.0
O484 O 0.02324 0.94444 0.32727 0.0
N485 N 0.04115 0.92493 0.13117 0.0
C486 C 0.05735 0.91994 0.1205 0.0
C487 C 0.06518 0.92597 0.07792 0.0
C488 C 0.05619 0.93687 0.04659 0.0
C489 C 0.0397 0.94211 0.05879 0.0
C490 C 0.03244 0.93546 0.1012 0.0
H491 H 0.06411 0.91117 0.1438 0.0
O492 O 0.05435 0.9396 0.27909 0.0
O493 O 0.03363 0.93178 0.22992 0.0
O494 O 0.04949 0.90323 0.27882 0.0
O495 O 0.0427 0.89888 0.20003 0.0
C496 C 0.03014 0.95359 0.03038 0.0
C497 C 0.01359 0.95834 0.04514 0.0
H498 H 0.98229 0.96461 0.08567 0.0
H499 H 0.97162 0.95135 0.16192 0.0
H500 H 0.07796 0.92197 0.06875 0.0
H501 H 0.06188 0.94088 0.01274 0.0
H502 H 0.03547 0.959 0.99745 0.0
H503 H 0.00645 0.96737 0.02343 0.0
Mn504 Mn 0.54172 0.92341 0.31871 0.0
Mn505 Mn 0.54777 0.9085 0.43356 0.0
C506 C 0.52985 0.93728 0.38536 0.0
C507 C 0.54919 0.94126 0.25254 0.0
C508 C 0.52158 0.89381 0.36529 0.0
O509 O 0.56209 0.90715 0.30954 0.0
O510 O 0.56357 0.89783 0.38705 0.0
C511 C 0.58205 0.92346 0.44797 0.0
N512 N 0.56571 0.9212 0.46335 0.0
C513 C 0.57141 0.93576 0.53861 0.0
C514 C 0.58832 0.93822 0.52369 0.0
C515 C 0.59362 0.93215 0.47799 0.0
C516 C 0.56038 0.92734 0.50667 0.0
H517 H 0.58622 0.91858 0.41321 0.0
C518 C 0.56853 0.89774 0.34285 0.0
O519 O 0.5397 0.92786 0.24666 0.0
O520 O 0.55518 0.94363 0.29598 0.0
N521 N 0.53361 0.91732 0.48421 0.0
C522 C 0.51681 0.91411 0.49283 0.0
C523 C 0.50947 0.91934 0.53696 0.0
C524 C 0.51958 0.92733 0.57239 0.0
C525 C 0.53689 0.93029 0.563 0.0
C526 C 0.54344 0.925 0.51811 0.0
H527 H 0.50912 0.90749 0.46639 0.0
O528 O 0.52356 0.93932 0.34213 0.0
O529 O 0.54308 0.92741 0.38873 0.0
O530 O 0.52528 0.90291 0.32805 0.0
O531 O 0.52898 0.89509 0.40639 0.0
C532 C 0.54794 0.93815 0.59657 0.0
C533 C 0.56511 0.94116 0.5841 0.0
H534 H 0.59734 0.94473 0.54702 0.0
H535 H 0.60665 0.934 0.46619 0.0
H536 H 0.49612 0.91697 0.54398 0.0
H537 H 0.51392 0.93113 0.60667 0.0
H538 H 0.54333 0.94197 0.63204 0.0
H539 H 0.57339 0.94749 0.60994 0.0
Mn540 Mn 0.04647 0.08164 0.8259 0.0
Mn541 Mn 0.04351 0.09231 0.94445 0.0
C542 C 0.06192 0.06662 0.88455 0.0
C543 C 0.03692 0.06479 0.7598 0.0
C544 C 0.06103 0.11409 0.86815 0.0
O545 O 0.02461 0.0964 0.83062 0.0
O546 O 0.02138 0.0964 0.9127 0.0
C547 C 0.0183 0.06696 0.98012 0.0
N548 N 0.03395 0.07423 0.98366 0.0
C549 C 0.03745 0.05855 0.06887 0.0
C550 C 0.02099 0.05139 0.05859 0.0
C551 C 0.01214 0.05554 0.0156 0.0
C552 C 0.04409 0.07081 0.02136 0.0
H553 H 0.01026 0.06983 0.94931 0.0
C554 C 0.01602 0.0995 0.86956 0.0
O555 O 0.04504 0.07901 0.75291 0.0
O556 O 0.03333 0.06107 0.80459 0.0
N557 N 0.06499 0.0895 0.97924 0.0
C558 C 0.08011 0.09746 0.97023 0.0
C559 C 0.09354 0.09769 0.00428 0.0
C560 C 0.09236 0.09041 0.0508 0.0
C561 C 0.07785 0.08159 0.06489 0.0
C562 C 0.06262 0.08088 0.02076 0.0
H563 H 0.08213 0.104 0.93641 0.0
O564 O 0.06658 0.06613 0.83924 0.0
O565 O 0.0489 0.07609 0.89339 0.0
O566 O 0.06144 0.10301 0.83411 0.0
O567 O 0.05306 0.11184 0.90815 0.0
C568 C 0.07741 0.0719 0.12071 0.0
C569 C 0.06051 0.05934 0.13842 0.0
H570 H 0.01434 0.04276 0.08267 0.0
H571 H 0.99968 0.04997 0.00998 0.0
H572 H 0.10519 0.10425 0.99456 0.0
H573 H 0.10305 0.0914 0.07549 0.0
H574 H 0.08812 0.07337 0.14511 0.0
H575 H 0.06121 0.05342 0.17444 0.0
H576 H 0.15385 0.73439 0.12816 0.0
H577 H 0.13429 0.71255 0.15866 0.0
H578 H 0.17288 0.67426 0.13661 0.0
H579 H 0.19241 0.69617 0.1056 0.0
H580 H 0.13935 0.66211 0.11961 0.0
H581 H 0.17049 0.69313 0.24317 0.0
H582 H 0.18014 0.71969 0.28232 0.0
H583 H 0.12826 0.73337 0.31269 0.0
H584 H 0.11829 0.70701 0.27292 0.0
H585 H 0.10765 0.60065 0.27448 0.0
H586 H 0.12851 0.6223 0.25129 0.0
H587 H 0.09115 0.66156 0.2763 0.0
H588 H 0.07029 0.63985 0.29964 0.0
H589 H 0.12429 0.67327 0.29239 0.0
H590 H 0.09254 0.64426 0.16912 0.0
H591 H 0.08119 0.61952 0.12438 0.0
H592 H 0.13204 0.60352 0.0897 0.0
H593 H 0.14373 0.62803 0.13501 0.0
C594 C 0.15781 0.72118 0.12747 0.0
C595 C 0.17447 0.71687 0.11351 0.0
C596 C 0.14673 0.70874 0.14558 0.0
C597 C 0.15223 0.69182 0.15081 0.0
C598 C 0.16837 0.68723 0.13294 0.0
C599 C 0.17946 0.6997 0.11472 0.0
C600 C 0.14198 0.67945 0.17974 0.0
C601 C 0.13628 0.66442 0.15755 0.0
C602 C 0.13761 0.68266 0.22903 0.0
C603 C 0.14363 0.69815 0.25477 0.0
C604 C 0.16114 0.70182 0.25808 0.0
C605 C 0.16667 0.71685 0.28034 0.0
C606 C 0.15482 0.72823 0.29992 0.0
C607 C 0.13742 0.72455 0.29749 0.0
C608 C 0.13182 0.70956 0.27513 0.0
C609 C 0.10423 0.61396 0.27804 0.0
C610 C 0.08741 0.61858 0.2894 0.0
C611 C 0.11608 0.62633 0.26396 0.0
C612 C 0.11125 0.64353 0.26075 0.0
C613 C 0.09516 0.64838 0.27827 0.0
C614 C 0.08329 0.63597 0.29237 0.0
C615 C 0.1218 0.65581 0.23239 0.0
C616 C 0.1275 0.67086 0.2546 0.0
C617 C 0.12598 0.65273 0.18288 0.0
C618 C 0.11902 0.6379 0.15587 0.0
C619 C 0.10132 0.63539 0.15235 0.0
C620 C 0.09482 0.62143 0.1268 0.0
C621 C 0.10589 0.60998 0.10414 0.0
C622 C 0.12349 0.61242 0.10722 0.0
C623 C 0.13006 0.62634 0.13284 0.0
H624 H 0.10084 0.59925 0.08409 0.0
H625 H 0.15911 0.73988 0.31702 0.0
H626 H 0.60199 0.90558 0.33025 0.0
H627 H 0.62561 0.88652 0.35158 0.0
H628 H 0.59015 0.84475 0.36461 0.0
H629 H 0.56689 0.86362 0.34193 0.0
H630 H 0.62921 0.87298 0.4362 0.0
H631 H 0.60834 0.80666 0.36099 0.0
H632 H 0.596 0.79447 0.28615 0.0
H633 H 0.61489 0.83683 0.20331 0.0
H634 H 0.62755 0.84916 0.27747 0.0
H635 H 0.65855 0.7819 0.51831 0.0
H636 H 0.63812 0.80302 0.48783 0.0
H637 H 0.67959 0.83656 0.45037 0.0
H638 H 0.7 0.81529 0.47985 0.0
H639 H 0.63952 0.81307 0.3875 0.0
H640 H 0.6624 0.87834 0.45746 0.0
H641 H 0.67586 0.89086 0.53031 0.0
H642 H 0.65473 0.85109 0.61903 0.0
H643 H 0.64096 0.83848 0.54689 0.0
C644 C 0.59949 0.8921 0.33461 0.0
C645 C 0.5827 0.88596 0.33309 0.0
C646 C 0.61292 0.88126 0.34784 0.0
C647 C 0.60977 0.86411 0.3599 0.0
C648 C 0.59313 0.85776 0.35461 0.0
C649 C 0.57979 0.86854 0.34116 0.0
C650 C 0.62316 0.85343 0.38376 0.0
C651 C 0.63171 0.86 0.42473 0.0
C652 C 0.62623 0.83631 0.36989 0.0
C653 C 0.61877 0.82891 0.32495 0.0
C654 C 0.60993 0.81334 0.32678 0.0
C655 C 0.60287 0.80641 0.28447 0.0
C656 C 0.60462 0.81489 0.24003 0.0
C657 C 0.61349 0.8303 0.23778 0.0
C658 C 0.62058 0.83728 0.27997 0.0
C659 C 0.66322 0.79413 0.5058 0.0
C660 C 0.68081 0.79716 0.50251 0.0
C661 C 0.65158 0.80607 0.48765 0.0
C662 C 0.65733 0.82134 0.46658 0.0
C663 C 0.67485 0.82493 0.46674 0.0
C664 C 0.68649 0.81287 0.4841 0.0
C665 C 0.64528 0.83261 0.43989 0.0
C666 C 0.63706 0.82611 0.39846 0.0
C667 C 0.6427 0.84983 0.45289 0.0
C668 C 0.65083 0.85736 0.49662 0.0
C669 C 0.6606 0.8723 0.49254 0.0
C670 C 0.66828 0.87941 0.53371 0.0
C671 C 0.66621 0.87174 0.57923 0.0
C672 C 0.6564 0.85697 0.58371 0.0
C673 C 0.64868 0.84982 0.54266 0.0
H674 H 0.67217 0.87726 0.61106 0.0
H675 H 0.59914 0.80951 0.20733 0.0
H676 H 0.51439 0.36238 0.78985 0.0
H677 H 0.49188 0.34339 0.76069 0.0
H678 H 0.45596 0.38484 0.76632 0.0
H679 H 0.4786 0.40392 0.7949 0.0
H680 H 0.44219 0.34898 0.78653 0.0
H681 H 0.47344 0.38305 0.66902 0.0
H682 H 0.50023 0.39445 0.63528 0.0
H683 H 0.51754 0.34364 0.60546 0.0
H684 H 0.49094 0.33193 0.63987 0.0
H685 H 0.38486 0.31641 0.61917 0.0
H686 H 0.40473 0.33801 0.64921 0.0
H687 H 0.44672 0.30383 0.62268 0.0
H688 H 0.42683 0.28242 0.59141 0.0
H689 H 0.45681 0.33704 0.61378 0.0
H690 H 0.42601 0.30271 0.72931 0.0
H691 H 0.39965 0.29061 0.76385 0.0
H692 H 0.382 0.34084 0.79945 0.0
H693 H 0.40812 0.35327 0.76411 0.0
C694 C 0.50146 0.36715 0.78784 0.0
C695 C 0.49813 0.38451 0.79557 0.0
C696 C 0.48865 0.35636 0.77057 0.0
C697 C 0.4723 0.36277 0.76084 0.0
C698 C 0.46846 0.37962 0.77385 0.0
C699 C 0.48135 0.39048 0.79068 0.0
C700 C 0.46047 0.35295 0.72929 0.0
C701 C 0.44524 0.34655 0.74865 0.0
C702 C 0.4646 0.3496 0.67998 0.0
C703 C 0.48027 0.35661 0.65739 0.0
C704 C 0.483 0.37431 0.65549 0.0
C705 C 0.49814 0.38083 0.63627 0.0
C706 C 0.5106 0.36978 0.61837 0.0
C707 C 0.50788 0.35219 0.6194 0.0
C708 C 0.49277 0.3456 0.63872 0.0
C709 C 0.39842 0.31392 0.61712 0.0
C710 C 0.40437 0.29788 0.60235 0.0
C711 C 0.40976 0.32616 0.63498 0.0
C712 C 0.42718 0.32236 0.63952 0.0
C713 C 0.43334 0.30704 0.61976 0.0
C714 C 0.42199 0.29486 0.60137 0.0
C715 C 0.43841 0.33304 0.67084 0.0
C716 C 0.45362 0.33956 0.65153 0.0
C717 C 0.43429 0.33641 0.7203 0.0
C718 C 0.41896 0.32893 0.74369 0.0
C719 C 0.41649 0.31118 0.7444 0.0
C720 C 0.40158 0.30426 0.76404 0.0
C721 C 0.38915 0.31495 0.78376 0.0
C722 C 0.39164 0.33258 0.7841 0.0
C723 C 0.40649 0.33957 0.76427 0.0
H724 H 0.37759 0.30958 0.79881 0.0
H725 H 0.52234 0.37485 0.60362 0.0
H726 H 0.93517 0.21853 0.0624 0.0
H727 H 0.95403 0.19544 0.03576 0.0
H728 H 0.91026 0.16423 0.00413 0.0
H729 H 0.89147 0.18706 0.03225 0.0
H730 H 0.95844 0.15754 0.04968 0.0
H731 H 0.91595 0.15561 0.87903 0.0
H732 H 0.89584 0.17404 0.83433 0.0
H733 H 0.92127 0.21851 0.88895 0.0
H734 H 0.94171 0.20037 0.93314 0.0
H735 H 0.98634 0.08979 0.91049 0.0
H736 H 0.96441 0.10927 0.94009 0.0
H737 H 0.98779 0.15042 0.86054 0.0
H738 H 0.00982 0.13082 0.83056 0.0
H739 H 0.95091 0.1532 0.87043 0.0
H740 H 1.00136 0.1451 0.96747 0.0
H741 H 0.02285 0.1268 0.00679 0.0
H742 H 0.98412 0.1047 0.09736 0.0
H743 H 0.96232 0.12265 0.05784 0.0
C744 C 0.92964 0.20632 0.05301 0.0
C745 C 0.91186 0.20448 0.05016 0.0
C746 C 0.94043 0.1932 0.03709 0.0
C747 C 0.93353 0.17823 0.0172 0.0
C748 C 0.91585 0.1757 0.01915 0.0
C749 C 0.90511 0.18869 0.03581 0.0
C750 C 0.94438 0.16662 0.98763 0.0
C751 C 0.95674 0.15654 0.0106 0.0
C752 C 0.94244 0.16558 0.93637 0.0
C753 C 0.93024 0.17661 0.90979 0.0
C754 C 0.91727 0.16932 0.88136 0.0
C755 C 0.90584 0.17971 0.85604 0.0
C756 C 0.90732 0.19742 0.85868 0.0
C757 C 0.92016 0.20479 0.88688 0.0
C758 C 0.93165 0.19446 0.91214 0.0
C759 C 0.98626 0.10278 0.89716 0.0
C760 C 0.9997 0.10878 0.86794 0.0
C761 C 0.97383 0.11395 0.91455 0.0
C762 C 0.97467 0.13136 0.90338 0.0
C763 C 0.98692 0.13703 0.86966 0.0
C764 C 0.9994 0.12578 0.85207 0.0
C765 C 0.96462 0.14377 0.93261 0.0
C766 C 0.9525 0.15409 0.90957 0.0
C767 C 0.96698 0.14523 0.98368 0.0
C768 C 0.98018 0.13513 0.00945 0.0
C769 C 0.99741 0.13631 0.9957 0.0
C770 C 0.00965 0.12598 0.01796 0.0
C771 C 0.00485 0.11456 0.05447 0.0
C772 C 0.98781 0.11354 0.06903 0.0
C773 C 0.97551 0.1238 0.04674 0.0
H774 H 0.01432 0.10652 0.07151 0.0
H775 H 0.89852 0.20544 0.83885 0.0
H776 H 0.07138 0.36918 0.83865 0.0
H777 H 0.0937 0.34976 0.86644 0.0
H778 H 0.12925 0.39152 0.87223 0.0
H779 H 0.10679 0.41104 0.84527 0.0
H780 H 0.1426 0.3547 0.84504 0.0
H781 H 0.11249 0.38847 0.96899 0.0
H782 H 0.08581 0.39982 0.0036 0.0
H783 H 0.06643 0.34902 0.01993 0.0
H784 H 0.09304 0.33736 0.98538 0.0
H785 H 0.19984 0.32153 0.01094 0.0
H786 H 0.17988 0.34312 0.98167 0.0
H787 H 0.13805 0.30868 0.00737 0.0
H788 H 0.15807 0.28712 0.03688 0.0
H789 H 0.12794 0.34212 0.01739 0.0
H790 H 0.15716 0.30756 0.90176 0.0
H791 H 0.18169 0.29428 0.86055 0.0
H792 H 0.20075 0.34365 0.82131 0.0
H793 H 0.17648 0.35728 0.86315 0.0
C794 C 0.08424 0.374 0.84264 0.0
C795 C 0.08745 0.39155 0.83886 0.0
C796 C 0.09693 0.36294 0.85927 0.0
C797 C 0.11306 0.36925 0.87192 0.0
C798 C 0.11691 0.38639 0.86244 0.0
C799 C 0.10413 0.39751 0.84637 0.0
C800 C 0.12459 0.35885 0.90276 0.0
C801 C 0.13959 0.35216 0.8829 0.0
C802 C 0.12036 0.35515 0.95176 0.0
C803 C 0.10468 0.36207 0.97438 0.0
C804 C 0.10252 0.37973 0.97988 0.0
C805 C 0.08741 0.38622 0.99945 0.0
C806 C 0.07439 0.37516 0.01369 0.0
C807 C 0.07652 0.35757 0.00882 0.0
C808 C 0.09163 0.35101 0.98942 0.0
C809 C 0.1863 0.31898 0.01325 0.0
C810 C 0.18048 0.30274 0.0268 0.0
C811 C 0.17491 0.33121 0.99566 0.0
C812 C 0.15751 0.32734 0.99102 0.0
C813 C 0.15142 0.31193 0.01036 0.0
C814 C 0.16285 0.29969 0.02799 0.0
C815 C 0.14627 0.33813 0.96006 0.0
C816 C 0.13118 0.3448 0.97976 0.0
C817 C 0.15032 0.34157 0.9106 0.0
C818 C 0.16508 0.33345 0.88602 0.0
C819 C 0.16667 0.31561 0.8848 0.0
C820 C 0.1805 0.30801 0.86122 0.0
C821 C 0.19273 0.31812 0.83821 0.0
C822 C 0.19124 0.33585 0.83908 0.0
C823 C 0.17745 0.34352 0.86275 0.0
H824 H 0.20333 0.31221 0.81957 0.0
H825 H 0.06267 0.38023 0.0286 0.0
H826 H 0.97139 0.91024 0.25741 0.0
H827 H 0.95033 0.88946 0.22907 0.0
H828 H 0.98606 0.84887 0.25594 0.0
H829 H 0.00703 0.86966 0.28478 0.0
H830 H 0.97568 0.85138 0.15875 0.0
H831 H 0.9498 0.84948 0.31731 0.0
H832 H 0.93655 0.86155 0.391 0.0
H833 H 0.89626 0.88272 0.30444 0.0
H834 H 0.90941 0.87097 0.23009 0.0
H835 H 0.92698 0.7784 0.10087 0.0
H836 H 0.94528 0.80161 0.12761 0.0
H837 H 0.90288 0.83641 0.11801 0.0
H838 H 0.8844 0.81283 0.09255 0.0
H839 H 0.91589 0.83861 0.2039 0.0
H840 H 0.94048 0.84041 0.04587 0.0
H841 H 0.95349 0.82936 0.97053 0.0
H842 H 0.99585 0.81005 0.05243 0.0
H843 H 0.98299 0.82078 0.12839 0.0
C844 C 0.97433 0.89679 0.26014 0.0
C845 C 0.99069 0.89151 0.27437 0.0
C846 C 0.96238 0.88493 0.24327 0.0
C847 C 0.96668 0.86761 0.23986 0.0
C848 C 0.98247 0.86217 0.25818 0.0
C849 C 0.99434 0.87401 0.27557 0.0
C850 C 0.9558 0.85568 0.21135 0.0
C851 C 0.96267 0.84837 0.16898 0.0
C852 C 0.93861 0.85239 0.2234 0.0
C853 C 0.9307 0.8595 0.26805 0.0
C854 C 0.93821 0.85685 0.31391 0.0
C855 C 0.93069 0.8636 0.35582 0.0
C856 C 0.9156 0.87294 0.35239 0.0
C857 C 0.90797 0.87551 0.30704 0.0
C858 C 0.91544 0.86879 0.265 0.0
C859 C 0.92182 0.7912 0.10167 0.0
C860 C 0.90439 0.7939 0.09339 0.0
C861 C 0.93227 0.80451 0.1175 0.0
C862 C 0.92555 0.82089 0.125 0.0
C863 C 0.90842 0.82392 0.11263 0.0
C864 C 0.89792 0.81052 0.09702 0.0
C865 C 0.9358 0.83404 0.15132 0.0
C866 C 0.92885 0.84165 0.19329 0.0
C867 C 0.95289 0.83779 0.13855 0.0
C868 C 0.96069 0.8313 0.09292 0.0
C869 C 0.95251 0.83369 0.04789 0.0
C870 C 0.95987 0.82751 0.00505 0.0
C871 C 0.97547 0.81898 0.0067 0.0
C872 C 0.98376 0.81665 0.0512 0.0
C873 C 0.97645 0.82281 0.09416 0.0
H874 H 0.98115 0.8142 0.97349 0.0
H875 H 0.90979 0.87815 0.38488 0.0
H876 H 0.42897 0.7265 0.54835 0.0
H877 H 0.44991 0.70594 0.51859 0.0
H878 H 0.4113 0.66693 0.51683 0.0
H879 H 0.39031 0.68757 0.54617 0.0
H880 H 0.44643 0.65501 0.53656 0.0
H881 H 0.41356 0.68806 0.41909 0.0
H882 H 0.40237 0.71533 0.38805 0.0
H883 H 0.45332 0.73438 0.37217 0.0
H884 H 0.46483 0.70718 0.40309 0.0
H885 H 0.47617 0.60073 0.35733 0.0
H886 H 0.45601 0.62142 0.39046 0.0
H887 H 0.49419 0.6607 0.38009 0.0
H888 H 0.51449 0.63987 0.34777 0.0
H889 H 0.46006 0.67311 0.3676 0.0
H890 H 0.49344 0.64048 0.47861 0.0
H891 H 0.50587 0.61521 0.51825 0.0
H892 H 0.4558 0.59689 0.55306 0.0
H893 H 0.44303 0.62191 0.51274 0.0
C894 C 0.42524 0.71326 0.54497 0.0
C895 C 0.40806 0.70858 0.55018 0.0
C896 C 0.43715 0.70159 0.527 0.0
C897 C 0.43205 0.68501 0.51446 0.0
C898 C 0.41549 0.67966 0.52614 0.0
C899 C 0.40354 0.69141 0.5437 0.0
C900 C 0.44291 0.67436 0.48221 0.0
C901 C 0.44925 0.65883 0.49947 0.0
C902 C 0.44689 0.67958 0.43412 0.0
C903 C 0.44005 0.69565 0.41364 0.0
C904 C 0.42237 0.69807 0.40901 0.0
C905 C 0.41597 0.71351 0.39146 0.0
C906 C 0.42711 0.72661 0.37839 0.0
C907 C 0.4447 0.72423 0.38236 0.0
C908 C 0.45118 0.70878 0.39972 0.0
C909 C 0.47994 0.61398 0.35929 0.0
C910 C 0.49685 0.61872 0.34947 0.0
C911 C 0.46848 0.62576 0.37902 0.0
C912 C 0.47373 0.64251 0.38885 0.0
C913 C 0.48989 0.64783 0.37298 0.0
C914 C 0.50141 0.63597 0.35367 0.0
C915 C 0.46343 0.65354 0.4217 0.0
C916 C 0.4572 0.66919 0.40458 0.0
C917 C 0.45969 0.6485 0.47018 0.0
C918 C 0.46727 0.633 0.49224 0.0
C919 C 0.48506 0.63094 0.49404 0.0
C920 C 0.49217 0.61671 0.51684 0.0
C921 C 0.48162 0.60454 0.53843 0.0
C922 C 0.46394 0.60639 0.5365 0.0
C923 C 0.45676 0.62058 0.51363 0.0
H924 H 0.48714 0.5937 0.55685 0.0
H925 H 0.42212 0.73858 0.3651 0.0
H926 H 0.69093 0.19361 0.57524 0.0
H927 H 0.67115 0.17004 0.59189 0.0
H928 H 0.63432 0.20582 0.64773 0.0
H929 H 0.65397 0.22919 0.63117 0.0
H930 H 0.66122 0.1619 0.68399 0.0
H931 H 0.59421 0.18902 0.64076 0.0
H932 H 0.58024 0.20748 0.58011 0.0
H933 H 0.61882 0.19499 0.47518 0.0
H934 H 0.63287 0.17625 0.53491 0.0
H935 H 0.57842 0.12505 0.78854 0.0
H936 H 0.5996 0.14683 0.76538 0.0
H937 H 0.61735 0.11453 0.6492 0.0
H938 H 0.59667 0.09287 0.67219 0.0
H939 H 0.60002 0.15598 0.64249 0.0
H940 H 0.6471 0.11449 0.68481 0.0
H941 H 0.66062 0.09568 0.74554 0.0
H942 H 0.66163 0.13677 0.8487 0.0
H943 H 0.64793 0.15574 0.78858 0.0
C944 C 0.67827 0.19647 0.58865 0.0
C945 C 0.67389 0.21323 0.60137 0.0
C946 C 0.66709 0.18299 0.59903 0.0
C947 C 0.65126 0.18611 0.6214 0.0
C948 C 0.64635 0.20302 0.63011 0.0
C949 C 0.65755 0.21642 0.62026 0.0
C950 C 0.64062 0.17184 0.64039 0.0
C951 C 0.6479 0.16054 0.67428 0.0
C952 C 0.62309 0.1702 0.62895 0.0
C953 C 0.61469 0.18136 0.59255 0.0
C954 C 0.59968 0.19016 0.60469 0.0
C955 C 0.59175 0.20068 0.57047 0.0
C956 C 0.59867 0.20245 0.52388 0.0
C957 C 0.61351 0.19366 0.51135 0.0
C958 C 0.62148 0.18311 0.54542 0.0
C959 C 0.58733 0.12235 0.75941 0.0
C960 C 0.5859 0.10721 0.73233 0.0
C961 C 0.59929 0.13484 0.7459 0.0
C962 C 0.61003 0.13224 0.70556 0.0
C963 C 0.60931 0.11673 0.68063 0.0
C964 C 0.59747 0.10434 0.69397 0.0
C965 C 0.62069 0.14619 0.68551 0.0
C966 C 0.61336 0.15744 0.65182 0.0
C967 C 0.63814 0.14774 0.69669 0.0
C968 C 0.64636 0.13642 0.73257 0.0
C969 C 0.65008 0.11944 0.7206 0.0
C970 C 0.6578 0.10877 0.75484 0.0
C971 C 0.66193 0.11501 0.80102 0.0
C972 C 0.65839 0.13195 0.81298 0.0
C973 C 0.65065 0.14265 0.77886 0.0
H974 H 0.66792 0.10674 0.82747 0.0
H975 H 0.59252 0.21061 0.49745 0.0
H976 H 0.99356 0.39626 0.86164 0.0
H977 H 0.97215 0.37471 0.88419 0.0
H978 H 0.01211 0.34134 0.9338 0.0
H979 H 0.0334 0.36298 0.91292 0.0
H980 H 0.98312 0.32572 0.87435 0.0
H981 H 0.99589 0.36104 0.01719 0.0
H982 H 0.99817 0.38857 0.05978 0.0
H983 H 0.94572 0.39928 0.02775 0.0
H984 H 0.94318 0.37178 0.98473 0.0
H985 H 0.94262 0.26384 0.01283 0.0
H986 H 0.96257 0.28651 0.99052 0.0
H987 H 0.92173 0.32322 0.99757 0.0
H988 H 0.90202 0.30061 0.02272 0.0
H989 H 0.94941 0.33844 0.02295 0.0
H990 H 0.9343 0.30365 0.8886 0.0
H991 H 0.93002 0.2768 0.8437 0.0
H992 H 0.98369 0.26655 0.8505 0.0
H993 H 0.98825 0.2932 0.89625 0.0
C994 C 0.99775 0.38413 0.8761 0.0
C995 C 0.01511 0.38118 0.88515 0.0
C996 C 0.98553 0.37191 0.8893 0.0
C997 C 0.99057 0.35646 0.91077 0.0
C998 C 0.00797 0.35314 0.91715 0.0
C999 C 0.02011 0.36548 0.90511 0.0
C1000 C 0.97779 0.34422 0.93001 0.0
C1001 C 0.97582 0.32841 0.90699 0.0
C1002 C 0.96787 0.34798 0.97164 0.0
C1003 C 0.96941 0.36447 0.99735 0.0
C1004 C 0.9849 0.36934 0.01886 0.0
C1005 C 0.98622 0.38492 0.04317 0.0
C1006 C 0.97211 0.39572 0.0463 0.0
C1007 C 0.95664 0.39092 0.02523 0.0
C1008 C 0.95524 0.37533 1.00097 0.0
C1009 C 0.93811 0.27688 0.01151 0.0
C1010 C 0.92091 0.28058 0.02022 0.0
C1011 C 0.94943 0.2898 0.99794 0.0
C1012 C 0.94359 0.30655 0.99074 0.0
C1013 C 0.92659 0.31043 1.00256 0.0
C1014 C 0.91535 0.29754 0.01733 0.0
C1015 C 0.95489 0.31963 0.96793 0.0
C1016 C 0.95657 0.33567 0.99011 0.0
C1017 C 0.96421 0.31623 0.92468 0.0
C1018 C 0.9616 0.30037 0.89619 0.0
C1019 C 0.94518 0.29563 0.88071 0.0
C1020 C 0.9427 0.28044 0.85513 0.0
C1021 C 0.95657 0.26996 0.84432 0.0
C1022 C 0.97296 0.27468 0.85894 0.0
C1023 C 0.9755 0.28983 0.88468 0.0
H1024 H 0.95463 0.2582 0.82455 0.0
H1025 H 0.97313 0.40777 0.06524 0.0
H1026 H 0.50917 0.11457 0.63779 0.0
H1027 H 0.48913 0.13737 0.62394 0.0
H1028 H 0.49002 0.14996 0.77676 0.0
H1029 H 0.50989 0.12627 0.79167 0.0
H1030 H 0.45851 0.15224 0.74333 0.0
H1031 H 0.51168 0.1744 0.68994 0.0
H1032 H 0.53908 0.1748 0.64606 0.0
H1033 H 0.5127 0.17162 0.50947 0.0
H1034 H 0.48514 0.17097 0.55255 0.0
H1035 H 0.4212 0.23279 0.7081 0.0
H1036 H 0.44244 0.21099 0.72286 0.0
H1037 H 0.43444 0.19081 0.57877 0.0
H1038 H 0.41275 0.21278 0.5633 0.0
H1039 H 0.46987 0.19327 0.60965 0.0
H1040 H 0.41618 0.17138 0.66803 0.0
H1041 H 0.38955 0.17342 0.71527 0.0
H1042 H 0.41827 0.17839 0.84747 0.0
H1043 H 0.4451 0.17673 0.8009 0.0
C1044 C 0.50521 0.12208 0.66885 0.0
C1045 C 0.51135 0.11855 0.71602 0.0
C1046 C 0.49375 0.13529 0.66063 0.0
C1047 C 0.48833 0.14574 0.69896 0.0
C1048 C 0.49412 0.14216 0.74643 0.0
C1049 C 0.50551 0.12865 0.75492 0.0
C1050 C 0.47653 0.1602 0.68869 0.0
C1051 C 0.46115 0.16135 0.71462 0.0
C1052 C 0.47977 0.17203 0.65067 0.0
C1053 C 0.49633 0.17251 0.62454 0.0
C1054 C 0.51172 0.17367 0.65056 0.0
C1055 C 0.52728 0.17396 0.62582 0.0
C1056 C 0.52763 0.1732 0.57502 0.0
C1057 C 0.51241 0.1722 0.54883 0.0
C1058 C 0.49681 0.17189 0.57339 0.0
C1059 C 0.42391 0.22384 0.67909 0.0
C1060 C 0.41503 0.22451 0.63448 0.0
C1061 C 0.43611 0.21133 0.68782 0.0
C1062 C 0.43984 0.19912 0.65228 0.0
C1063 C 0.43166 0.2001 0.6068 0.0
C1064 C 0.41929 0.21266 0.598 0.0
C1065 C 0.45189 0.1851 0.66385 0.0
C1066 C 0.46729 0.18411 0.63828 0.0
C1067 C 0.4488 0.17362 0.70268 0.0
C1068 C 0.43266 0.17407 0.7309 0.0
C1069 C 0.41683 0.17301 0.70714 0.0
C1070 C 0.40169 0.1741 0.7338 0.0
C1071 C 0.40222 0.17607 0.78432 0.0
C1072 C 0.41788 0.17688 0.80832 0.0
C1073 C 0.43306 0.17586 0.78181 0.0
H1074 H 0.39048 0.17694 0.80488 0.0
H1075 H 0.5397 0.17343 0.55594 0.0
H1076 H 0.56768 0.62048 0.48267 0.0
H1077 H 0.58947 0.64176 0.49633 0.0
H1078 H 0.59758 0.64605 0.34151 0.0
H1079 H 0.57586 0.624 0.32727 0.0
H1080 H 0.62731 0.64724 0.38864 0.0
H1081 H 0.57433 0.67614 0.40508 0.0
H1082 H 0.5451 0.68094 0.43489 0.0
H1083 H 0.56361 0.68415 0.58167 0.0
H1084 H 0.59294 0.67911 0.55282 0.0
H1085 H 0.66871 0.72679 0.39977 0.0
H1086 H 0.64726 0.70505 0.38675 0.0
H1087 H 0.64616 0.69438 0.54061 0.0
H1088 H 0.66805 0.71629 0.55445 0.0
H1089 H 0.61303 0.69674 0.49346 0.0
H1090 H 0.66674 0.6681 0.47301 0.0
H1091 H 0.69567 0.66501 0.43918 0.0
H1092 H 0.67509 0.66309 0.29449 0.0
H1093 H 0.64604 0.66646 0.32741 0.0
C1094 C 0.57404 0.62583 0.4512 0.0
C1095 C 0.56982 0.62055 0.40366 0.0
C1096 C 0.58651 0.63814 0.45923 0.0
C1097 C 0.59493 0.64586 0.42001 0.0
C1098 C 0.59116 0.64036 0.37241 0.0
C1099 C 0.57873 0.62778 0.36428 0.0
C1100 C 0.60748 0.65973 0.42942 0.0
C1101 C 0.62409 0.65816 0.41098 0.0
C1102 C 0.60343 0.67392 0.4593 0.0
C1103 C 0.58582 0.6771 0.4768 0.0
C1104 C 0.57216 0.67775 0.44376 0.0
C1105 C 0.55557 0.68053 0.46048 0.0
C1106 C 0.55249 0.68281 0.51016 0.0
C1107 C 0.56601 0.68237 0.5432 0.0
C1108 C 0.58262 0.67957 0.52668 0.0
C1109 C 0.66395 0.71998 0.43124 0.0
C1110 C 0.67028 0.72333 0.47834 0.0
C1111 C 0.65166 0.70746 0.4235 0.0
C1112 C 0.64527 0.69795 0.46254 0.0
C1113 C 0.65102 0.70155 0.50992 0.0
C1114 C 0.66353 0.71407 0.51776 0.0
C1115 C 0.63279 0.68411 0.45305 0.0
C1116 C 0.6162 0.68575 0.47131 0.0
C1117 C 0.63679 0.67014 0.42247 0.0
C1118 C 0.65422 0.66768 0.40267 0.0
C1119 C 0.66839 0.66712 0.43395 0.0
C1120 C 0.68481 0.66532 0.41494 0.0
C1121 C 0.68722 0.6639 0.36471 0.0
C1122 C 0.6732 0.66421 0.3334 0.0
C1123 C 0.65675 0.66605 0.35222 0.0
H1124 H 0.69994 0.66253 0.35006 0.0
H1125 H 0.53964 0.68496 0.52303 0.0
H1126 H 0.18173 0.79649 0.21689 0.0
H1127 H 0.15905 0.81667 0.23266 0.0
H1128 H 0.13931 0.80859 0.08797 0.0
H1129 H 0.16276 0.78864 0.07096 0.0
H1130 H 0.13605 0.84131 0.11331 0.0
H1131 H 0.12194 0.78833 0.18845 0.0
H1132 H 0.12704 0.76299 0.23947 0.0
H1133 H 0.13296 0.79487 0.36534 0.0
H1134 H 0.12817 0.82042 0.31495 0.0
H1135 H 0.05398 0.87239 0.16392 0.0
H1136 H 0.07709 0.85264 0.14777 0.0
H1137 H 0.10087 0.86652 0.2835 0.0
H1138 H 0.07759 0.88666 0.30021 0.0
H1139 H 0.10169 0.83081 0.26216 0.0
H1140 H 0.11498 0.88402 0.18346 0.0
H1141 H 0.10905 0.90858 0.13007 0.0
H1142 H 0.10323 0.875 0.00785 0.0
H1143 H 0.10879 0.85021 0.06064 0.0
C1144 C 0.17276 0.7991 0.18795 0.0
C1145 C 0.17406 0.7908 0.14265 0.0
C1146 C 0.15966 0.81061 0.19726 0.0
C1147 C 0.14713 0.81382 0.16211 0.0
C1148 C 0.14874 0.8062 0.11591 0.0
C1149 C 0.16215 0.79482 0.10617 0.0
C1150 C 0.1322 0.8247 0.17471 0.0
C1151 C 0.1284 0.83886 0.14546 0.0
C1152 C 0.12231 0.8217 0.21717 0.0
C1153 C 0.12483 0.80632 0.24781 0.0
C1154 C 0.12441 0.78995 0.22697 0.0
C1155 C 0.12725 0.77554 0.25577 0.0
C1156 C 0.13036 0.77733 0.30559 0.0
C1157 C 0.13056 0.79351 0.32674 0.0
C1158 C 0.12778 0.80796 0.29808 0.0
C1159 C 0.06399 0.87123 0.19082 0.0
C1160 C 0.06395 0.88133 0.23328 0.0
C1161 C 0.07725 0.8599 0.18132 0.0
C1162 C 0.09087 0.85834 0.2139 0.0
C1163 C 0.09051 0.86763 0.25768 0.0
C1164 C 0.07717 0.8791 0.26725 0.0
C1165 C 0.10567 0.84742 0.20094 0.0
C1166 C 0.10938 0.83324 0.23007 0.0
C1167 C 0.11532 0.85027 0.15804 0.0
C1168 C 0.11217 0.86523 0.12614 0.0
C1169 C 0.11231 0.88185 0.14528 0.0
C1170 C 0.10903 0.89582 0.11511 0.0
C1171 C 0.10576 0.89334 0.06562 0.0
C1172 C 0.10576 0.8769 0.0462 0.0
C1173 C 0.10898 0.86289 0.07622 0.0
H1174 H 0.10326 0.90415 0.04228 0.0
H1175 H 0.13258 0.76617 0.32783 0.0
H1176 H 0.03087 0.64384 0.19269 0.0
H1177 H 0.00783 0.66373 0.1741 0.0
H1178 H 0.97231 0.63156 0.2508 0.0
H1179 H 0.99551 0.61164 0.27036 0.0
H1180 H 0.96225 0.64109 0.15288 0.0
H1181 H 0.98114 0.66705 0.30114 0.0
H1182 H 0.00223 0.67897 0.35823 0.0
H1183 H 0.01577 0.71723 0.25343 0.0
H1184 H 0.99493 0.70537 0.19539 0.0
H1185 H 0.89238 0.69943 0.1442 0.0
H1186 H 0.91449 0.67841 0.16253 0.0
H1187 H 0.95302 0.71399 0.11522 0.0
H1188 H 0.9308 0.73518 0.09826 0.0
H1189 H 0.96116 0.70202 0.20037 0.0
H1190 H 0.9434 0.67634 0.05113 0.0
H1191 H 0.92323 0.6644 0.99145 0.0
H1192 H 0.90853 0.62578 0.09386 0.0
H1193 H 0.92846 0.63763 0.15445 0.0
C1194 C 0.01822 0.64116 0.20644 0.0
C1195 C 0.01501 0.62623 0.23324 0.0
C1196 C 0.00506 0.65252 0.19571 0.0
C1197 C 0.98835 0.64911 0.21095 0.0
C1198 C 0.98513 0.63442 0.2387 0.0
C1199 C 0.9984 0.62315 0.25026 0.0
C1200 C 0.97428 0.66061 0.1958 0.0
C1201 C 0.9618 0.65435 0.16389 0.0
C1202 C 0.97406 0.67802 0.20888 0.0
C1203 C 0.98658 0.68522 0.24373 0.0
C1204 C 0.98872 0.67791 0.29008 0.0
C1205 C 1.00061 0.68468 0.32266 0.0
C1206 C 0.01036 0.69882 0.30942 0.0
C1207 C 0.00822 0.70626 0.26361 0.0
C1208 C 0.99636 0.69953 0.23088 0.0
C1209 C 0.90554 0.70247 0.13608 0.0
C1210 C 0.90993 0.71869 0.11867 0.0
C1211 C 0.9182 0.69049 0.14673 0.0
C1212 C 0.9355 0.69451 0.14001 0.0
C1213 C 0.9398 0.71054 0.12067 0.0
C1214 C 0.92712 0.72256 0.11032 0.0
C1215 C 0.94908 0.6826 0.15693 0.0
C1216 C 0.96151 0.68877 0.18927 0.0
C1217 C 0.94933 0.66514 0.14382 0.0
C1218 C 0.93731 0.65799 0.10751 0.0
C1219 C 0.93576 0.66539 0.06109 0.0
C1220 C 0.92439 0.65862 0.02706 0.0
C1221 C 0.91457 0.64437 0.0389 0.0
C1222 C 0.91613 0.63683 0.08477 0.0
C1223 C 0.92747 0.64356 0.11895 0.0
H1224 H 0.90577 0.63914 0.0125 0.0
H1225 H 0.01956 0.70405 0.33469 0.0
H1226 H 0.09411 0.11505 0.83805 0.0
H1227 H 0.11519 0.13666 0.86042 0.0
H1228 H 0.07517 0.16827 0.91906 0.0
H1229 H 0.05427 0.14624 0.89927 0.0
H1230 H 0.12304 0.16756 0.84378 0.0
H1231 H 0.08804 0.19024 0.01703 0.0
H1232 H 0.06692 0.17968 0.07629 0.0
H1233 H 0.08226 0.12825 0.04756 0.0
H1234 H 0.10365 0.13845 0.98829 0.0
H1235 H 0.15677 0.24391 0.92691 0.0
H1236 H 0.13619 0.22172 0.9085 0.0
H1237 H 0.15813 0.18973 0.0195 0.0
H1238 H 0.17911 0.21214 0.03836 0.0
H1239 H 0.12182 0.18806 0.01476 0.0
H1240 H 0.1695 0.18176 0.90856 0.0
H1241 H 0.19162 0.1914 0.85121 0.0
H1242 H 0.15305 0.20746 0.75039 0.0
H1243 H 0.13066 0.19804 0.80745 0.0
C1244 C 0.08977 0.12685 0.85434 0.0
C1245 C 0.07256 0.12898 0.86691 0.0
C1246 C 0.10186 0.13914 0.86763 0.0
C1247 C 0.0969 0.1539 0.89307 0.0
C1248 C 0.07946 0.15675 0.90119 0.0
C1249 C 0.06746 0.14429 0.88906 0.0
C1250 C 0.10998 0.16592 0.91263 0.0
C1251 C 0.12272 0.17197 0.8812 0.0
C1252 C 0.10992 0.17151 0.96187 0.0
C1253 C 0.09737 0.16513 0.99796 0.0
C1254 C 0.08698 0.17667 0.0235 0.0
C1255 C 0.07495 0.17074 0.05699 0.0
C1256 C 0.07323 0.15329 0.06547 0.0
C1257 C 0.0836 0.14173 0.04065 0.0
C1258 C 0.09567 0.14758 0.0071 0.0
C1259 C 0.15719 0.23226 0.94799 0.0
C1260 C 0.16978 0.22975 0.9838 0.0
C1261 C 0.14538 0.21955 0.93727 0.0
C1262 C 0.14583 0.20394 0.96188 0.0
C1263 C 0.15764 0.20168 0.99984 0.0
C1264 C 0.16957 0.2145 0.01072 0.0
C1265 C 0.13447 0.18988 0.94554 0.0
C1266 C 0.12211 0.18349 0.9775 0.0
C1267 C 0.13501 0.18374 0.89707 0.0
C1268 C 0.14841 0.1893 0.86243 0.0
C1269 C 0.16573 0.18745 0.8743 0.0
C1270 C 0.17832 0.19287 0.84181 0.0
C1271 C 0.17375 0.20009 0.7972 0.0
C1272 C 0.15657 0.20187 0.78496 0.0
C1273 C 0.14393 0.19646 0.81733 0.0
H1274 H 0.18351 0.20427 0.77205 0.0
H1275 H 0.0639 0.14871 0.09136 0.0
H1276 H 0.66229 0.27863 0.58818 0.0
H1277 H 0.64047 0.3002 0.60611 0.0
H1278 H 0.67143 0.31953 0.7236 0.0
H1279 H 0.69287 0.29787 0.70646 0.0
H1280 H 0.64085 0.31428 0.75572 0.0
H1281 H 0.66411 0.34228 0.61537 0.0
H1282 H 0.67335 0.34485 0.52987 0.0
H1283 H 0.6225 0.33398 0.48149 0.0
H1284 H 0.613 0.33113 0.56673 0.0
H1285 H 0.58877 0.38741 0.80929 0.0
H1286 H 0.61211 0.36786 0.78876 0.0
H1287 H 0.58189 0.34664 0.67249 0.0
H1288 H 0.55883 0.36613 0.69217 0.0
H1289 H 0.61262 0.35357 0.63993 0.0
H1290 H 0.58969 0.32482 0.7804 0.0
H1291 H 0.5805 0.32231 0.86598 0.0
H1292 H 0.63102 0.33479 0.91406 0.0
H1293 H 0.64045 0.33758 0.82872 0.0
C1294 C 0.66459 0.28782 0.61686 0.0
C1295 C 0.67923 0.28658 0.64597 0.0
C1296 C 0.6521 0.30011 0.62728 0.0
C1297 C 0.65423 0.31152 0.66646 0.0
C1298 C 0.66935 0.31082 0.69359 0.0
C1299 C 0.68165 0.29848 0.68358 0.0
C1300 C 0.64035 0.32339 0.68166 0.0
C1301 C 0.63488 0.32306 0.73046 0.0
C1302 C 0.6322 0.3346 0.64872 0.0
C1303 C 0.63788 0.33632 0.59744 0.0
C1304 C 0.65493 0.3403 0.58649 0.0
C1305 C 0.66021 0.34184 0.53808 0.0
C1306 C 0.64853 0.33954 0.50027 0.0
C1307 C 0.63154 0.33574 0.51081 0.0
C1308 C 0.62619 0.33418 0.55917 0.0
C1309 C 0.58701 0.37836 0.77998 0.0
C1310 C 0.57193 0.37839 0.75237 0.0
C1311 C 0.60038 0.36721 0.76812 0.0
C1312 C 0.59881 0.35575 0.72888 0.0
C1313 C 0.58353 0.35542 0.70255 0.0
C1314 C 0.57029 0.36656 0.71409 0.0
C1315 C 0.61315 0.34443 0.7139 0.0
C1316 C 0.61867 0.34484 0.66517 0.0
C1317 C 0.62137 0.33331 0.7469 0.0
C1318 C 0.61573 0.33158 0.79819 0.0
C1319 C 0.5988 0.32715 0.80923 0.0
C1320 C 0.59356 0.32566 0.85769 0.0
C1321 C 0.60515 0.32844 0.89543 0.0
C1322 C 0.62204 0.33267 0.88479 0.0
C1323 C 0.62735 0.3342 0.83638 0.0
H1324 H 0.60107 0.32727 0.93292 0.0
H1325 H 0.65264 0.34073 0.46281 0.0
H1326 H 0.42857 0.76381 0.44261 0.0
H1327 H 0.44862 0.78625 0.42101 0.0
H1328 H 0.42066 0.82191 0.50971 0.0
H1329 H 0.40032 0.79928 0.53172 0.0
H1330 H 0.42768 0.83401 0.41507 0.0
H1331 H 0.45856 0.8091 0.5475 0.0
H1332 H 0.47125 0.78561 0.59469 0.0
H1333 H 0.50334 0.77278 0.47349 0.0
H1334 H 0.49066 0.79605 0.4253 0.0
H1335 H 0.4899 0.89992 0.39819 0.0
H1336 H 0.46835 0.87868 0.41893 0.0
H1337 H 0.49929 0.83952 0.35295 0.0
H1338 H 0.52125 0.86085 0.33419 0.0
H1339 H 0.49016 0.82961 0.43849 0.0
H1340 H 0.45933 0.85347 0.30473 0.0
H1341 H 0.44642 0.8762 0.25505 0.0
H1342 H 0.41414 0.89025 0.37469 0.0
H1343 H 0.42701 0.86774 0.42534 0.0
C1344 C 0.42678 0.77637 0.45818 0.0
C1345 C 0.41285 0.77977 0.48899 0.0
C1346 C 0.43829 0.78919 0.4458 0.0
C1347 C 0.43619 0.80577 0.46376 0.0
C1348 C 0.42253 0.80919 0.49545 0.0
C1349 C 0.41102 0.79624 0.50838 0.0
C1350 C 0.44796 0.8195 0.44745 0.0
C1351 C 0.44132 0.83325 0.4209 0.0
C1352 C 0.46581 0.81817 0.45362 0.0
C1353 C 0.47356 0.80425 0.48266 0.0
C1354 C 0.46823 0.8012 0.53077 0.0
C1355 C 0.47544 0.78793 0.55773 0.0
C1356 C 0.48807 0.77769 0.53707 0.0
C1357 C 0.49355 0.78072 0.48944 0.0
C1358 C 0.48637 0.79396 0.46231 0.0
C1359 C 0.4918 0.88685 0.38674 0.0
C1360 C 0.50702 0.88202 0.36378 0.0
C1361 C 0.47948 0.87469 0.39861 0.0
C1362 C 0.48204 0.85742 0.38725 0.0
C1363 C 0.49696 0.85273 0.36208 0.0
C1364 C 0.5094 0.86492 0.35069 0.0
C1365 C 0.46995 0.84417 0.4055 0.0
C1366 C 0.47653 0.83047 0.43255 0.0
C1367 C 0.45206 0.84548 0.39938 0.0
C1368 C 0.44425 0.85901 0.36897 0.0
C1369 C 0.44957 0.86148 0.32057 0.0
C1370 C 0.44224 0.87432 0.29222 0.0
C1371 C 0.4295 0.88469 0.31174 0.0
C1372 C 0.42402 0.88222 0.35963 0.0
C1373 C 0.43132 0.86941 0.38816 0.0
H1374 H 0.42384 0.89462 0.28973 0.0
H1375 H 0.49363 0.76742 0.55799 0.0
H1376 H 0.05336 0.54824 0.16508 0.0
H1377 H 0.04307 0.52947 0.10025 0.0
H1378 H 0.99154 0.54541 0.12912 0.0
H1379 H 1.00201 0.56524 0.19162 0.0
H1380 H 0.00768 0.5066 0.1433 0.0
H1381 H 0.98753 0.54813 0.04036 0.0
H1382 H 0.98244 0.57232 0.98531 0.0
H1383 H 0.02328 0.55561 0.89293 0.0
H1384 H 0.02902 0.53162 0.94839 0.0
H1385 H 0.99938 0.44624 0.92044 0.0
H1386 H 0.98945 0.46797 0.97829 0.0
H1387 H 0.04151 0.48181 0.00838 0.0
H1388 H 0.05127 0.46143 0.94716 0.0
H1389 H 0.01058 0.50655 0.96324 0.0
H1390 H 0.02252 0.47974 0.16238 0.0
H1391 H 0.01272 0.45648 0.21566 0.0
H1392 H 0.97326 0.44404 0.11349 0.0
H1393 H 0.98221 0.46778 0.06102 0.0
C1394 C 0.03997 0.54841 0.15573 0.0
C1395 C 0.02857 0.55871 0.18165 0.0
C1396 C 0.03408 0.53768 0.11881 0.0
C1397 C 0.0166 0.53655 0.10853 0.0
C1398 C 0.00512 0.54666 0.1349 0.0
C1399 C 0.01109 0.55776 0.17099 0.0
C1400 C 0.01058 0.52196 0.07923 0.0
C1401 C 0.00826 0.5065 0.10383 0.0
C1402 C 0.01014 0.5222 0.02784 0.0
C1403 C 0.0089 0.53818 0.99921 0.0
C1404 C 0.99581 0.54989 0.00927 0.0
C1405 C 0.99265 0.56347 0.97757 0.0
C1406 C 0.00244 0.56544 0.93543 0.0
C1407 C 0.01563 0.55402 0.9254 0.0
C1408 C 0.01891 0.5405 0.95718 0.0
C1409 C 0.00866 0.4537 0.94037 0.0
C1410 C 0.02615 0.45165 0.93124 0.0
C1411 C 0.00299 0.46587 0.97401 0.0
C1412 C 0.01478 0.47585 0.99972 0.0
C1413 C 0.03224 0.47372 0.99055 0.0
C1414 C 0.03783 0.46203 0.9558 0.0
C1415 C 0.00943 0.49105 0.0275 0.0
C1416 C 0.0099 0.50663 1.0027 0.0
C1417 C 0.00732 0.49097 0.07862 0.0
C1418 C 0.00341 0.4753 0.10676 0.0
C1419 C 0.01183 0.47197 0.15101 0.0
C1420 C 0.00626 0.45885 0.18154 0.0
C1421 C 0.99236 0.44878 0.16801 0.0
C1422 C 0.98407 0.45179 0.12385 0.0
C1423 C 0.98946 0.46505 0.09354 0.0
H1424 H 0.98808 0.4386 0.1916 0.0
H1425 H 0.9999 0.57589 0.91079 0.0
H1426 H 0.84485 0.70786 0.16579 0.0
H1427 H 0.82574 0.69919 0.23274 0.0
H1428 H 0.81624 0.75206 0.2658 0.0
H1429 H 0.83476 0.76062 0.19854 0.0
H1430 H 0.82633 0.73083 0.34771 0.0
H1431 H 0.78758 0.73213 0.20834 0.0
H1432 H 0.7774 0.72249 0.12801 0.0
H1433 H 0.77312 0.67131 0.18179 0.0
H1434 H 0.78352 0.68064 0.26232 0.0
H1435 H 0.75521 0.75854 0.46106 0.0
H1436 H 0.77864 0.74995 0.40881 0.0
H1437 H 0.76154 0.6977 0.41525 0.0
H1438 H 0.73738 0.70662 0.46687 0.0
H1439 H 0.76882 0.70652 0.32367 0.0
H1440 H 0.80126 0.70807 0.46907 0.0
H1441 H 0.81017 0.71897 0.54937 0.0
H1442 H 0.82528 0.76631 0.484 0.0
H1443 H 0.81614 0.75579 0.40355 0.0
C1444 C 0.8386 0.71753 0.18749 0.0
C1445 C 0.84168 0.73488 0.17861 0.0
C1446 C 0.82776 0.7126 0.22552 0.0
C1447 C 0.81984 0.72501 0.25449 0.0
C1448 C 0.82247 0.74231 0.24426 0.0
C1449 C 0.8331 0.74719 0.20618 0.0
C1450 C 0.80877 0.72037 0.29588 0.0
C1451 C 0.8138 0.72552 0.3425 0.0
C1452 C 0.79269 0.71262 0.28943 0.0
C1453 C 0.78662 0.70701 0.241 0.0
C1454 C 0.78469 0.71878 0.20282 0.0
C1455 C 0.77882 0.71339 0.15733 0.0
C1456 C 0.7747 0.69628 0.14972 0.0
C1457 C 0.77638 0.68455 0.18767 0.0
C1458 C 0.78226 0.68988 0.23323 0.0
C1459 C 0.75648 0.74522 0.45137 0.0
C1460 C 0.74437 0.73328 0.46642 0.0
C1461 C 0.77003 0.74024 0.42222 0.0
C1462 C 0.77206 0.7231 0.40883 0.0
C1463 C 0.76026 0.71096 0.42542 0.0
C1464 C 0.74654 0.71602 0.45473 0.0
C1465 C 0.78587 0.71861 0.37444 0.0
C1466 C 0.78153 0.71148 0.32924 0.0
C1467 C 0.80259 0.72469 0.38197 0.0
C1468 C 0.80826 0.73104 0.43021 0.0
C1469 C 0.8065 0.72079 0.47186 0.0
C1470 C 0.81155 0.72692 0.51742 0.0
C1471 C 0.81836 0.74329 0.52177 0.0
C1472 C 0.82009 0.75359 0.48057 0.0
C1473 C 0.81504 0.74753 0.43497 0.0
H1474 H 0.82225 0.74802 0.55707 0.0
H1475 H 0.77014 0.69213 0.11448 0.0
H1476 H 0.57719 0.55381 0.43096 0.0
H1477 H 0.58322 0.5326 0.49473 0.0
H1478 H 0.52938 0.52285 0.50947 0.0
H1479 H 0.52344 0.54353 0.44492 0.0
H1480 H 0.54736 0.53097 0.59842 0.0
H1481 H 0.55094 0.49449 0.4566 0.0
H1482 H 0.56243 0.48549 0.37709 0.0
H1483 H 0.61245 0.4813 0.43909 0.0
H1484 H 0.60127 0.49052 0.51887 0.0
H1485 H 0.52846 0.45891 0.72601 0.0
H1486 H 0.53299 0.48161 0.66733 0.0
H1487 H 0.58692 0.47068 0.66583 0.0
H1488 H 0.58208 0.44706 0.72343 0.0
H1489 H 0.57586 0.47535 0.57581 0.0
H1490 H 0.572 0.50911 0.71964 0.0
H1491 H 0.56052 0.51776 0.79956 0.0
H1492 H 0.51171 0.52735 0.73467 0.0
H1493 H 0.52284 0.51846 0.65459 0.0
C1494 C 0.56672 0.54703 0.44785 0.0
C1495 C 0.54983 0.55068 0.43483 0.0
C1496 C 0.57016 0.53495 0.48398 0.0
C1497 C 0.55672 0.52633 0.50691 0.0
C1498 C 0.53989 0.52952 0.49242 0.0
C1499 C 0.5365 0.54142 0.45606 0.0
C1500 C 0.55992 0.51448 0.54757 0.0
C1501 C 0.55359 0.51887 0.59349 0.0
C1502 C 0.56861 0.49888 0.54139 0.0
C1503 C 0.57533 0.49346 0.49345 0.0
C1504 C 0.56443 0.49186 0.45313 0.0
C1505 C 0.57087 0.48666 0.40806 0.0
C1506 C 0.58817 0.4829 0.40298 0.0
C1507 C 0.59906 0.48427 0.44303 0.0
C1508 C 0.59268 0.48947 0.48818 0.0
C1509 C 0.54126 0.46133 0.71294 0.0
C1510 C 0.55485 0.45104 0.72754 0.0
C1511 C 0.54392 0.47448 0.68009 0.0
C1512 C 0.56036 0.47805 0.66275 0.0
C1513 C 0.57415 0.46814 0.67882 0.0
C1514 C 0.57142 0.45476 0.7116 0.0
C1515 C 0.5626 0.4917 0.62621 0.0
C1516 C 0.57001 0.4877 0.58109 0.0
C1517 C 0.55503 0.50783 0.63307 0.0
C1518 C 0.5483 0.5133 0.68109 0.0
C1519 C 0.55882 0.51306 0.72247 0.0
C1520 C 0.55237 0.51797 0.7678 0.0
C1521 C 0.53541 0.52315 0.77217 0.0
C1522 C 0.52486 0.5234 0.73122 0.0
C1523 C 0.53125 0.51848 0.68585 0.0
H1524 H 0.53044 0.52694 0.80729 0.0
H1525 H 0.59313 0.47887 0.36807 0.0
H1526 H 0.84667 0.23857 0.94231 0.0
H1527 H 0.8264 0.24503 0.87871 0.0
H1528 H 0.8286 0.2983 0.91809 0.0
H1529 H 0.85147 0.29189 0.97601 0.0
H1530 H 0.79754 0.25411 0.89079 0.0
H1531 H 0.80984 0.31943 0.86003 0.0
H1532 H 0.83126 0.34226 0.85055 0.0
H1533 H 0.8619 0.3093 0.76182 0.0
H1534 H 0.84065 0.2862 0.77148 0.0
H1535 H 0.73378 0.28735 0.71035 0.0
H1536 H 0.75664 0.29353 0.77007 0.0
H1537 H 0.78905 0.25817 0.69597 0.0
H1538 H 0.76502 0.2491 0.64442 0.0
H1539 H 0.79838 0.29652 0.75681 0.0
H1540 H 0.78135 0.23793 0.74894 0.0
H1541 H 0.75358 0.22077 0.72494 0.0
H1542 H 0.73584 0.23441 0.92005 0.0
H1543 H 0.7651 0.25255 0.91126 0.0
C1544 C 0.8437 0.25178 0.93498 0.0
C1545 C 0.8515 0.26481 0.96143 0.0
C1546 C 0.83169 0.2555 0.89949 0.0
C1547 C 0.82595 0.2723 0.89237 0.0
C1548 C 0.83323 0.28539 0.92054 0.0
C1549 C 0.84609 0.28168 0.95441 0.0
C1550 C 0.81125 0.27512 0.85889 0.0
C1551 C 0.79782 0.26336 0.86144 0.0
C1552 C 0.81099 0.28762 0.82172 0.0
C1553 C 0.82405 0.30102 0.81773 0.0
C1554 C 0.82127 0.31703 0.83903 0.0
C1555 C 0.83335 0.32999 0.83364 0.0
C1556 C 0.84805 0.32714 0.80611 0.0
C1557 C 0.85064 0.31137 0.78376 0.0
C1558 C 0.83867 0.29832 0.78947 0.0
C1559 C 0.74531 0.27981 0.70999 0.0
C1560 C 0.74654 0.26541 0.67972 0.0
C1561 C 0.75857 0.28374 0.74286 0.0
C1562 C 0.77359 0.27404 0.74289 0.0
C1563 C 0.77663 0.26386 0.70165 0.0
C1564 C 0.76289 0.25859 0.67239 0.0
C1565 C 0.78583 0.27429 0.78528 0.0
C1566 C 0.79825 0.28712 0.78578 0.0
C1567 C 0.78559 0.26219 0.82492 0.0
C1568 C 0.77356 0.2476 0.82809 0.0
C1569 C 0.77092 0.23815 0.77429 0.0
C1570 C 0.754 0.22628 0.76157 0.0
C1571 C 0.73406 0.22315 0.83736 0.0
C1572 C 0.74251 0.23427 0.88561 0.0
C1573 C 0.76127 0.24522 0.87978 0.0
H1574 H 0.72206 0.21634 0.84288 0.0
H1575 H 0.85735 0.3372 0.80175 0.0
H1576 H 0.2357 0.21469 0.948 0.0
H1577 H 0.25581 0.20587 0.88374 0.0
H1578 H 0.26982 0.25839 0.86112 0.0
H1579 H 0.25043 0.26707 0.92638 0.0
H1580 H 0.25863 0.23633 0.7732 0.0
H1581 H 0.29662 0.24018 0.9152 0.0
H1582 H 0.30571 0.23173 0.99768 0.0
H1583 H 0.30923 0.17959 0.95159 0.0
H1584 H 0.29992 0.18774 0.86895 0.0
H1585 H 0.33104 0.26155 0.65965 0.0
H1586 H 0.30776 0.25454 0.71446 0.0
H1587 H 0.32288 0.20167 0.71284 0.0
H1588 H 0.34686 0.20895 0.65843 0.0
H1589 H 0.31618 0.21316 0.80552 0.0
H1590 H 0.28363 0.21113 0.65834 0.0
H1591 H 0.27559 0.22055 0.57574 0.0
H1592 H 0.26273 0.27002 0.63134 0.0
H1593 H 0.27104 0.26096 0.714 0.0
C1594 C 0.24314 0.22427 0.92916 0.0
C1595 C 0.24111 0.2416 0.94034 0.0
C1596 C 0.25455 0.21924 0.8927 0.0
C1597 C 0.26406 0.23153 0.86754 0.0
C1598 C 0.2624 0.24878 0.87986 0.0
C1599 C 0.25123 0.25373 0.91665 0.0
C1600 C 0.27572 0.22676 0.82775 0.0
C1601 C 0.27115 0.23122 0.7802 0.0
C1602 C 0.29182 0.2194 0.83669 0.0
C1603 C 0.29729 0.21451 0.88627 0.0
C1604 C 0.29911 0.22689 0.92287 0.0
C1605 C 0.30437 0.22216 0.96957 0.0
C1606 C 0.30796 0.20512 0.97995 0.0
C1607 C 0.30638 0.19277 0.94356 0.0
C1608 C 0.30111 0.19744 0.8968 0.0
C1609 C 0.3294 0.24844 0.67108 0.0
C1610 C 0.34088 0.23584 0.65634 0.0
C1611 C 0.31597 0.24438 0.70177 0.0
C1612 C 0.31341 0.22752 0.71706 0.0
C1613 C 0.32462 0.21473 0.7012 0.0
C1614 C 0.33821 0.21886 0.6703 0.0
C1615 C 0.29943 0.22393 0.75159 0.0
C1616 C 0.30345 0.2178 0.79816 0.0
C1617 C 0.28279 0.22981 0.7419 0.0
C1618 C 0.27762 0.23527 0.6924 0.0
C1619 C 0.27904 0.22399 0.65289 0.0
C1620 C 0.27449 0.22928 0.60606 0.0
C1621 C 0.26855 0.24584 0.59833 0.0
C1622 C 0.2672 0.25716 0.6374 0.0
C1623 C 0.27176 0.25193 0.68426 0.0
H1624 H 0.26506 0.24992 0.56205 0.0
H1625 H 0.31204 0.20148 0.01612 0.0
H1626 H 0.3483 0.78931 0.44958 0.0
H1627 H 0.32904 0.79583 0.38147 0.0
H1628 H 0.31559 0.74263 0.37153 0.0
H1629 H 0.33466 0.73621 0.43959 0.0
H1630 H 0.32558 0.75621 0.28464 0.0
H1631 H 0.28771 0.77058 0.41605 0.0
H1632 H 0.27871 0.78592 0.49004 0.0
H1633 H 0.28323 0.83361 0.41462 0.0
H1634 H 0.2925 0.81854 0.34032 0.0
H1635 H 0.25255 0.74297 0.15605 0.0
H1636 H 0.27706 0.74674 0.20843 0.0
H1637 H 0.27146 0.8014 0.19858 0.0
H1638 H 0.24587 0.79739 0.14803 0.0
H1639 H 0.27546 0.79421 0.28674 0.0
H1640 H 0.31305 0.77939 0.15517 0.0
H1641 H 0.32462 0.76409 0.08395 0.0
H1642 H 0.32034 0.71662 0.1605 0.0
H1643 H 0.30944 0.73173 0.23286 0.0
C1644 C 0.34114 0.77909 0.43272 0.0
C1645 C 0.34333 0.76219 0.44811 0.0
C1646 C 0.33012 0.78282 0.39421 0.0
C1647 C 0.32097 0.76969 0.37146 0.0
C1648 C 0.32265 0.75291 0.38842 0.0
C1649 C 0.33363 0.74922 0.42682 0.0
C1650 C 0.31043 0.77306 0.32801 0.0
C1651 C 0.31457 0.76438 0.28521 0.0
C1652 C 0.29647 0.78438 0.32822 0.0
C1653 C 0.29106 0.79346 0.3729 0.0
C1654 C 0.28698 0.78435 0.41542 0.0
C1655 C 0.28178 0.79299 0.45737 0.0
C1656 C 0.28047 0.81074 0.4571 0.0
C1657 C 0.2843 0.81987 0.41482 0.0
C1658 C 0.28953 0.81129 0.37279 0.0
C1659 C 0.2566 0.75579 0.16504 0.0
C1660 C 0.24706 0.76988 0.15006 0.0
C1661 C 0.27092 0.75799 0.19398 0.0
C1662 C 0.27643 0.7744 0.20694 0.0
C1663 C 0.26749 0.78861 0.18908 0.0
C1664 C 0.25292 0.78635 0.16038 0.0
C1665 C 0.28997 0.77624 0.24422 0.0
C1666 C 0.2866 0.7861 0.28587 0.0
C1667 C 0.3047 0.76591 0.24327 0.0
C1668 C 0.31028 0.75666 0.19908 0.0
C1669 C 0.31442 0.76567 0.15656 0.0
C1670 C 0.32095 0.75704 0.11612 0.0
C1671 C 0.32297 0.73937 0.11741 0.0
C1672 C 0.31869 0.73029 0.15941 0.0
C1673 C 0.31249 0.7389 0.20028 0.0
H1674 H 0.32797 0.73272 0.08599 0.0
H1675 H 0.27643 0.8174 0.48959 0.0
H1676 H 0.49717 0.94372 0.4139 0.0
H1677 H 0.488 0.96142 0.48332 0.0
H1678 H 0.54056 0.97316 0.51478 0.0
H1679 H 0.5496 0.95581 0.44554 0.0
H1680 H 0.52173 0.96197 0.59632 0.0
H1681 H 0.51628 1.00068 0.45787 0.0
H1682 H 0.50389 0.01039 0.38025 0.0
H1683 H 0.45407 0.01083 0.44482 0.0
H1684 H 0.46616 1.0009 0.52275 0.0
H1685 H 0.54633 0.03371 0.707 0.0
H1686 H 0.53786 0.00948 0.65816 0.0
H1687 H 0.48516 0.02487 0.66901 0.0
H1688 H 0.49401 0.05007 0.7165 0.0
H1689 H 0.49181 0.01706 0.57929 0.0
H1690 H 0.49875 0.98482 0.72229 0.0
H1691 H 0.51147 0.97629 0.8007 0.0
H1692 H 0.55844 0.96415 0.72845 0.0
H1693 H 0.5461 0.97293 0.64986 0.0
C1694 C 0.50666 0.95016 0.4358 0.0
C1695 C 0.52408 0.94803 0.42584 0.0
C1696 C 0.50145 0.9602 0.47524 0.0
C1697 C 0.51363 0.96838 0.50444 0.0
C1698 C 0.53098 0.96673 0.4931 0.0
C1699 C 0.53614 0.9568 0.4538 0.0
C1700 C 0.50871 0.97874 0.54712 0.0
C1701 C 0.51513 0.97394 0.59265 0.0
C1702 C 0.4993 0.994 0.54286 0.0
C1703 C 0.49207 0.99976 0.49587 0.0
C1704 C 0.50265 0.00264 0.45536 0.0
C1705 C 0.4957 0.00824 0.41135 0.0
C1706 C 0.47819 0.01114 0.40753 0.0
C1707 C 0.46762 0.00851 0.44778 0.0
C1708 C 0.47452 0.0029 0.49187 0.0
C1709 C 0.53293 0.03188 0.69909 0.0
C1710 C 0.52085 0.04389 0.7138 0.0
C1711 C 0.52801 0.01782 0.67203 0.0
C1712 C 0.51078 0.01505 0.66073 0.0
C1713 C 0.4985 0.02668 0.67756 0.0
C1714 C 0.50352 0.04099 0.70455 0.0
C1715 C 0.50639 1.00095 0.62714 0.0
C1716 C 0.49797 0.00481 0.58343 0.0
C1717 C 0.51392 0.98474 0.63293 0.0
C1718 C 0.5214 0.97928 0.68007 0.0
C1719 C 0.51178 0.98031 0.72315 0.0
C1720 C 0.51894 0.97548 0.76765 0.0
C1721 C 0.53573 0.96961 0.76954 0.0
C1722 C 0.5454 0.9686 0.72693 0.0
C1723 C 0.53831 0.97344 0.68237 0.0
H1724 H 0.54125 0.96589 0.80403 0.0
H1725 H 0.47283 0.01549 0.37344 0.0
H1726 H 0.03923 0.04533 0.92369 0.0
H1727 H 0.04404 0.02363 0.98562 0.0
H1728 H 0.09823 0.03227 0.97559 0.0
H1729 H 0.09322 0.05492 0.91483 0.0
H1730 H 0.0899 0.9985 0.98945 0.0
H1731 H 0.07543 0.05316 0.03783 0.0
H1732 H 0.05303 0.09567 0.09047 0.0
H1733 H 0.02142 0.0499 0.18074 0.0
H1734 H 0.03653 0.02382 0.14131 0.0
H1735 H 0.08118 0.94665 0.21563 0.0
H1736 H 0.09236 0.96875 0.16166 0.0
H1737 H 0.04102 0.982 0.12009 0.0
H1738 H 0.03005 0.96193 0.17985 0.0
H1739 H 0.06013 0.00878 0.14544 0.0
H1740 H 0.07798 0.96496 0.98773 0.0
H1741 H 0.09498 0.93921 0.97006 0.0
H1742 H 0.12881 0.95148 0.08767 0.0
H1743 H 0.11216 0.97743 0.10508 0.0
C1744 C 0.05215 0.04278 0.93538 0.0
C1745 C 0.0658 0.0524 0.91722 0.0
C1746 C 0.05488 0.0302 0.97 0.0
C1747 C 0.07141 0.02677 0.9862 0.0
C1748 C 0.08534 0.03499 0.96393 0.0
C1749 C 0.08251 0.04796 0.92976 0.0
C1750 C 0.07376 0.01577 0.02919 0.0
C1751 C 0.08321 1.00075 0.02344 0.0
C1752 C 0.06555 0.0192 0.07431 0.0
C1753 C 0.05674 0.03568 0.08572 0.0
C1754 C 0.06456 0.05408 0.06217 0.0
C1755 C 0.04955 0.08092 0.10048 0.0
C1756 C 0.03392 0.07394 0.14356 0.0
C1757 C 0.0311 0.05298 0.15414 0.0
C1758 C 0.0411 0.03599 0.12845 0.0
C1759 C 0.07238 0.95419 0.19424 0.0
C1760 C 0.05473 0.95196 0.1995 0.0
C1761 C 0.07881 0.96656 0.16236 0.0
C1762 C 0.06766 0.97649 0.13421 0.0
C1763 C 0.05 0.97426 0.14029 0.0
C1764 C 0.04365 0.96256 0.17375 0.0
C1765 C 0.07354 0.99063 0.10229 0.0
C1766 C 0.06612 0.00662 0.11052 0.0
C1767 C 0.08328 0.98811 0.05951 0.0
C1768 C 0.09311 0.9724 0.04996 0.0
C1769 C 0.08884 0.96192 0.01043 0.0
C1770 C 0.09851 0.94741 1.00008 0.0
C1771 C 0.11276 0.9435 0.0284 0.0
C1772 C 0.11754 0.95429 0.06645 0.0
C1773 C 0.10793 0.96884 0.07669 0.0
H1774 H 0.12024 0.93227 0.0204 0.0
H1775 H 0.0415 0.07983 0.12238 0.0
H1776 H 0.03501 0.43823 0.66311 0.0
H1777 H 0.03622 0.45864 0.59556 0.0
H1778 H 0.06646 0.49257 0.6837 0.0
H1779 H 0.0656 0.47213 0.75063 0.0
H1780 H 0.0246 0.48957 0.58473 0.0
H1781 H 0.09246 0.51686 0.6145 0.0
H1782 H 0.12053 0.5073 0.64419 0.0
H1783 H 0.10814 0.4557 0.6064 0.0
H1784 H 0.0801 0.46498 0.57591 0.0
H1785 H 0.03257 0.56693 0.45093 0.0
H1786 H 0.03335 0.54567 0.51629 0.0
H1787 H 0.06956 0.51604 0.43408 0.0
H1788 H 0.06898 0.53731 0.36908 0.0
H1789 H 0.07844 0.51557 0.52629 0.0
H1790 H 0.02682 0.50521 0.43918 0.0
H1791 H 0.99905 0.51234 0.40261 0.0
H1792 H 0.97949 0.52583 0.54344 0.0
H1793 H 0.00723 0.51899 0.58078 0.0
C1794 C 0.04211 0.44994 0.6679 0.0
C1795 C 0.05031 0.45342 0.71238 0.0
C1796 C 0.0427 0.46169 0.62926 0.0
C1797 C 0.05156 0.47721 0.63397 0.0
C1798 C 0.0598 0.48064 0.67839 0.0
C1799 C 0.05926 0.46889 0.71688 0.0
C1800 C 0.05187 0.48997 0.59311 0.0
C1801 C 0.0364 0.49524 0.57212 0.0
C1802 C 0.06722 0.4973 0.57558 0.0
C1803 C 0.08412 0.49161 0.59338 0.0
C1804 C 0.09576 0.50349 0.61237 0.0
C1805 C 0.11165 0.49811 0.62936 0.0
C1806 C 0.11609 0.4809 0.62733 0.0
C1807 C 0.10466 0.46902 0.60813 0.0
C1808 C 0.08876 0.47433 0.59105 0.0
C1809 C 0.04083 0.55598 0.44695 0.0
C1810 C 0.05069 0.55389 0.40454 0.0
C1811 C 0.04118 0.54372 0.48429 0.0
C1812 C 0.05134 0.52901 0.48015 0.0
C1813 C 0.06158 0.52719 0.43844 0.0
C1814 C 0.06121 0.53941 0.40112 0.0
C1815 C 0.05115 0.5154 0.51866 0.0
C1816 C 0.06664 0.50996 0.53914 0.0
C1817 C 0.03585 0.50764 0.53497 0.0
C1818 C 0.01915 0.51175 0.51269 0.0
C1819 C 0.01664 0.50982 0.46229 0.0
C1820 C 1.00089 0.51379 0.44143 0.0
C1821 C 0.98753 0.51958 0.47066 0.0
C1822 C 0.98986 0.52137 0.52084 0.0
C1823 C 0.00559 0.51744 0.54187 0.0
H1824 H 0.97534 0.52264 0.45445 0.0
H1825 H 0.1284 0.47676 0.64054 0.0
H1826 H 0.8213 0.7794 0.00822 0.0
H1827 H 0.79898 0.78091 0.94619 0.0
H1828 H 0.82826 0.74774 0.85323 0.0
H1829 H 0.85057 0.74606 0.91536 0.0
H1830 H 0.79687 0.79173 0.85469 0.0
H1831 H 0.80132 0.72167 0.78999 0.0
H1832 H 0.80955 0.69357 0.82257 0.0
H1833 H 0.7977 0.71034 0.96748 0.0
H1834 H 0.78918 0.73844 0.9357 0.0
H1835 H 0.75384 0.78023 0.62985 0.0
H1836 H 0.7737 0.78127 0.69791 0.0
H1837 H 0.74006 0.7495 0.78255 0.0
H1838 H 0.72014 0.74814 0.71366 0.0
H1839 H 0.77156 0.73822 0.79147 0.0
H1840 H 0.7457 0.79287 0.8078 0.0
H1841 H 0.73557 0.82107 0.78092 0.0
H1842 H 0.78668 0.83535 0.74304 0.0
H1843 H 0.79709 0.80715 0.76909 0.0
C1844 C 0.82311 0.77256 0.97438 0.0
C1845 C 0.83779 0.76258 0.96698 0.0
C1846 C 0.81028 0.77344 0.93882 0.0
C1847 C 0.81171 0.76425 0.89505 0.0
C1848 C 0.82663 0.75473 0.88689 0.0
C1849 C 0.83949 0.75388 0.9224 0.0
C1850 C 0.79746 0.76436 0.85855 0.0
C1851 C 0.79138 0.78001 0.84083 0.0
C1852 C 0.78988 0.74914 0.84106 0.0
C1853 C 0.79478 0.73221 0.86047 0.0
C1854 C 0.80041 0.71933 0.82877 0.0
C1855 C 0.80514 0.70341 0.84711 0.0
C1856 C 0.8042 0.70019 0.89708 0.0
C1857 C 0.79848 0.71287 0.9288 0.0
C1858 C 0.79372 0.7288 0.91065 0.0
C1859 C 0.75047 0.77366 0.66316 0.0
C1860 C 0.73527 0.76417 0.66616 0.0
C1861 C 0.7619 0.7743 0.7023 0.0
C1862 C 0.75845 0.76559 0.74591 0.0
C1863 C 0.7431 0.75636 0.74946 0.0
C1864 C 0.73161 0.7557 0.71013 0.0
C1865 C 0.77122 0.7656 0.78667 0.0
C1866 C 0.77704 0.74996 0.80523 0.0
C1867 C 0.77834 0.78084 0.80557 0.0
C1868 C 0.77215 0.79784 0.79005 0.0
C1869 C 0.75476 0.80198 0.79342 0.0
C1870 C 0.74897 0.81797 0.77839 0.0
C1871 C 0.76047 0.82998 0.76019 0.0
C1872 C 0.77779 0.82603 0.75711 0.0
C1873 C 0.78364 0.81006 0.77206 0.0
H1874 H 0.75596 0.84235 0.74856 0.0
H1875 H 0.80788 0.68786 0.9112 0.0
H1876 H 0.55848 0.55631 0.20144 0.0
H1877 H 0.55849 0.53347 0.14118 0.0
H1878 H 0.50431 0.52699 0.16134 0.0
H1879 H 0.50474 0.54881 0.22505 0.0
H1880 H 0.51493 0.49827 0.15355 0.0
H1881 H 0.52662 0.54612 0.05192 0.0
H1882 H 0.54118 0.57216 0.02375 0.0
H1883 H 0.58797 0.54438 0.00858 0.0
H1884 H 0.57375 0.51821 0.03721 0.0
H1885 H 0.50872 0.45626 0.91287 0.0
H1886 H 0.50789 0.47827 0.97624 0.0
H1887 H 0.55562 0.46009 0.0333 0.0
H1888 H 0.55628 0.43764 0.97085 0.0
H1889 H 0.54794 0.50063 0.99978 0.0
H1890 H 0.53274 0.45226 0.10533 0.0
H1891 H 0.51486 0.42737 0.12513 0.0
H1892 H 0.47013 0.45881 0.12166 0.0
H1893 H 0.48776 0.48384 0.1011 0.0
C1894 C 0.54652 0.55021 0.19233 0.0
C1895 C 0.53156 0.55454 0.21757 0.0
C1896 C 0.54648 0.53711 0.15748 0.0
C1897 C 0.53132 0.52846 0.14521 0.0
C1898 C 0.51626 0.53323 0.16968 0.0
C1899 C 0.51644 0.54589 0.20587 0.0
C1900 C 0.53129 0.514 0.10893 0.0
C1901 C 0.52205 0.49905 0.11978 0.0
C1902 C 0.54055 0.51454 0.0644 0.0
C1903 C 0.54915 0.53025 0.04717 0.0
C1904 C 0.54004 0.54559 0.04288 0.0
C1905 C 0.54823 0.56037 0.02678 0.0
C1906 C 0.5655 0.55993 0.0145 0.0
C1907 C 0.57461 0.5447 0.01816 0.0
C1908 C 0.56648 0.52989 0.03427 0.0
C1909 C 0.51887 0.45669 0.93954 0.0
C1910 C 0.5325 0.44506 0.93696 0.0
C1911 C 0.51841 0.46934 0.97562 0.0
C1912 C 0.53171 0.47088 0.00946 0.0
C1913 C 0.54519 0.45912 0.00764 0.0
C1914 C 0.54549 0.44621 0.97215 0.0
C1915 C 0.53183 0.48524 0.04516 0.0
C1916 C 0.54095 0.50009 0.03383 0.0
C1917 C 0.52206 0.48485 0.08836 0.0
C1918 C 0.51153 0.46985 0.10113 0.0
C1919 C 0.51908 0.45382 0.10828 0.0
C1920 C 0.50899 0.4397 0.11978 0.0
C1921 C 0.49136 0.44149 0.1245 0.0
C1922 C 0.48379 0.45743 0.11791 0.0
C1923 C 0.49382 0.47158 0.10638 0.0
H1924 H 0.48358 0.43055 0.13339 0.0
H1925 H 0.57182 0.57139 1.00206 0.0
H1926 H 0.86374 0.24632 0.23209 0.0
H1927 H 0.84152 0.2449 0.29525 0.0
H1928 H 0.80438 0.23158 0.18637 0.0
H1929 H 0.82653 0.23237 0.12352 0.0
H1930 H 0.79753 0.26218 0.26072 0.0
H1931 H 0.8111 0.2018 0.24417 0.0
H1932 H 0.83105 0.17755 0.24346 0.0
H1933 H 0.84679 0.18965 0.38911 0.0
H1934 H 0.8271 0.21415 0.39036 0.0
H1935 H 0.72615 0.24827 0.41599 0.0
H1936 H 0.74713 0.24659 0.34993 0.0
H1937 H 0.78551 0.23091 0.45305 0.0
H1938 H 0.7644 0.2315 0.51798 0.0
H1939 H 0.79195 0.21476 0.37886 0.0
H1940 H 0.78067 0.27413 0.40058 0.0
H1941 H 0.7634 0.30029 0.40593 0.0
H1942 H 0.74658 0.29319 0.25859 0.0
H1943 H 0.7636 0.26686 0.25257 0.0
C1944 C 0.85089 0.24287 0.2217 0.0
C1945 C 0.84699 0.23934 0.17268 0.0
C1946 C 0.83818 0.24212 0.25782 0.0
C1947 C 0.82123 0.23819 0.24558 0.0
C1948 C 0.81733 0.23466 0.19674 0.0
C1949 C 0.83007 0.23501 0.16087 0.0
C1950 C 0.80754 0.23799 0.28348 0.0
C1951 C 0.79614 0.25173 0.28625 0.0
C1952 C 0.80604 0.22466 0.3178 0.0
C1953 C 0.81779 0.20991 0.31712 0.0
C1954 C 0.81895 0.1994 0.27583 0.0
C1955 C 0.83018 0.18558 0.27538 0.0
C1956 C 0.84022 0.18209 0.31616 0.0
C1957 C 0.83902 0.19239 0.35752 0.0
C1958 C 0.82783 0.20623 0.35813 0.0
C1959 C 0.73902 0.24427 0.42437 0.0
C1960 C 0.74352 0.23998 0.47239 0.0
C1961 C 0.75114 0.2435 0.38657 0.0
C1962 C 0.76823 0.23899 0.39608 0.0
C1963 C 0.77255 0.23442 0.44405 0.0
C1964 C 0.76038 0.23477 0.48144 0.0
C1965 C 0.78168 0.23906 0.35672 0.0
C1966 C 0.79315 0.22529 0.35355 0.0
C1967 C 0.78352 0.25263 0.32282 0.0
C1968 C 0.77325 0.26843 0.32632 0.0
C1969 C 0.77319 0.27809 0.36945 0.0
C1970 C 0.76346 0.29295 0.37258 0.0
C1971 C 0.75385 0.29837 0.33268 0.0
C1972 C 0.75399 0.28896 0.28951 0.0
C1973 C 0.76369 0.27407 0.2862 0.0
H1974 H 0.74633 0.30989 0.33517 0.0
H1975 H 0.8489 0.17139 0.31574 0.0
H1976 H 0.36076 0.24681 0.40364 0.0
H1977 H 0.33989 0.24836 0.33706 0.0
H1978 H 0.30839 0.28146 0.42417 0.0
H1979 H 0.32918 0.28022 0.48987 0.0
H1980 H 0.30773 0.23821 0.33131 0.0
H1981 H 0.28549 0.30821 0.3544 0.0
H1982 H 0.29739 0.33601 0.37882 0.0
H1983 H 0.3474 0.31947 0.33678 0.0
H1984 H 0.33578 0.29167 0.31151 0.0
H1985 H 0.22917 0.24888 0.20412 0.0
H1986 H 0.25117 0.24929 0.2676 0.0
H1987 H 0.28185 0.28271 0.17907 0.0
H1988 H 0.25988 0.28262 0.11631 0.0
H1989 H 0.28433 0.29263 0.26872 0.0
H1990 H 0.28968 0.2388 0.18814 0.0
H1991 H 0.27991 0.21099 0.15715 0.0
H1992 H 0.26746 0.19521 0.30257 0.0
H1993 H 0.27696 0.22303 0.33436 0.0
C1994 C 0.34954 0.25467 0.40821 0.0
C1995 C 0.34678 0.26349 0.45213 0.0
C1996 C 0.33751 0.25543 0.37023 0.0
C1997 C 0.3225 0.26513 0.37513 0.0
C1998 C 0.31991 0.27411 0.41877 0.0
C1999 C 0.33187 0.27336 0.45654 0.0
C2000 C 0.3093 0.26555 0.33554 0.0
C2001 C 0.30265 0.25014 0.31768 0.0
C2002 C 0.30268 0.28105 0.31688 0.0
C2003 C 0.30977 0.2978 0.33151 0.0
C2004 C 0.29902 0.31053 0.35019 0.0
C2005 C 0.30571 0.32629 0.36421 0.0
C2006 C 0.32314 0.32949 0.35949 0.0
C2007 C 0.33391 0.31696 0.34059 0.0
C2008 C 0.32728 0.30119 0.32648 0.0
C2009 C 0.2405 0.25649 0.19846 0.0
C2010 C 0.24269 0.26571 0.15494 0.0
C2011 C 0.25318 0.2566 0.23468 0.0
C2012 C 0.26842 0.26582 0.22811 0.0
C2013 C 0.27032 0.27546 0.18533 0.0
C2014 C 0.25767 0.27538 0.14928 0.0
C2015 C 0.28254 0.2653 0.26507 0.0
C2016 C 0.28936 0.2807 0.28246 0.0
C2017 C 0.28954 0.2498 0.28252 0.0
C2018 C 0.28387 0.23305 0.26355 0.0
C2019 C 0.28475 0.22944 0.21346 0.0
C2020 C 0.27928 0.21367 0.19576 0.0
C2021 C 0.27303 0.20135 0.22786 0.0
C2022 C 0.27228 0.20477 0.27774 0.0
C2023 C 0.27772 0.22053 0.29563 0.0
H2024 H 0.2688 0.18915 0.21409 0.0
H2025 H 0.3283 0.34169 0.3704 0.0
H2026 H 0.33117 0.72055 0.64579 0.0
H2027 H 0.30839 0.7208 0.70638 0.0
H2028 H 0.3262 0.76935 0.75949 0.0
H2029 H 0.34955 0.7687 0.70024 0.0
H2030 H 0.31557 0.75331 0.83271 0.0
H2031 H 0.2903 0.76436 0.67937 0.0
H2032 H 0.28347 0.75996 0.59264 0.0
H2033 H 0.2593 0.7124 0.62708 0.0
H2034 H 0.26619 0.7164 0.71397 0.0
H2035 H 0.22075 0.76402 0.90635 0.0
H2036 H 0.24202 0.76363 0.84051 0.0
H2037 H 0.27091 0.72584 0.91867 0.0
H2038 H 0.24991 0.72614 0.98402 0.0
H2039 H 0.25685 0.73999 0.77751 0.0
H2040 H 0.31178 0.73766 0.9197 0.0
H2041 H 0.31629 0.74703 0.0045 0.0
H2042 H 0.27884 0.78636 0.98626 0.0
H2043 H 0.27432 0.7774 0.90126 0.0
C2044 C 0.3304 0.73117 0.67085 0.0
C2045 C 0.34222 0.74461 0.66803 0.0
C2046 C 0.31719 0.73141 0.70527 0.0
C2047 C 0.3151 0.74533 0.737 0.0
C2048 C 0.32734 0.75847 0.73549 0.0
C2049 C 0.34076 0.75807 0.70158 0.0
C2050 C 0.30009 0.74626 0.77104 0.0
C2051 C 0.3028 0.75035 0.82032 0.0
C2052 C 0.28313 0.74306 0.7553 0.0
C2053 C 0.2789 0.74061 0.70313 0.0
C2054 C 0.28362 0.7529 0.6684 0.0
C2055 C 0.27973 0.75049 0.61922 0.0
C2056 C 0.27099 0.73589 0.60435 0.0
C2057 C 0.26609 0.72369 0.63866 0.0
C2058 C 0.26997 0.72603 0.68788 0.0
C2059 C 0.23142 0.75532 0.90892 0.0
C2060 C 0.23361 0.74517 0.95074 0.0
C2061 C 0.2436 0.75513 0.87124 0.0
C2062 C 0.25826 0.7449 0.87484 0.0
C2063 C 0.25988 0.73403 0.91519 0.0
C2064 C 0.24776 0.73417 0.95257 0.0
C2065 C 0.27257 0.74636 0.83891 0.0
C2066 C 0.2697 0.74284 0.78952 0.0
C2067 C 0.28925 0.75082 0.85396 0.0
C2068 C 0.29261 0.75674 0.90431 0.0
C2069 C 0.30462 0.74839 0.93371 0.0
C2070 C 0.30715 0.75362 0.98185 0.0
C2071 C 0.29778 0.76723 1.00082 0.0
C2072 C 0.28602 0.77577 0.97158 0.0
C2073 C 0.28348 0.77062 0.92347 0.0
H2074 H 0.29958 0.77122 0.03813 0.0
H2075 H 0.26799 0.73404 0.56626 0.0
H2076 H 0.54463 0.93752 0.15368 0.0
H2077 H 0.54685 0.95961 0.09046 0.0
H2078 H 0.56031 0.99663 0.1996 0.0
H2079 H 0.55868 0.97458 0.26261 0.0
H2080 H 0.5319 0.00581 0.12808 0.0
H2081 H 0.59043 0.98631 0.13716 0.0
H2082 H 0.61284 0.96431 0.1355 0.0
H2083 H 0.59779 0.9499 0.99097 0.0
H2084 H 0.57512 0.97165 0.99207 0.0
H2085 H 0.54774 0.07345 0.95906 0.0
H2086 H 0.54948 0.05392 0.02886 0.0
H2087 H 0.55977 0.01219 0.93085 0.0
H2088 H 0.55922 0.03165 0.86242 0.0
H2089 H 0.57716 0.00616 1.00218 0.0
H2090 H 0.51827 0.02209 0.98994 0.0
H2091 H 0.49366 0.04159 0.98759 0.0
H2092 H 0.50603 0.05978 0.13072 0.0
H2093 H 0.53083 0.04051 0.13366 0.0
C2094 C 0.54825 0.95032 0.16414 0.0
C2095 C 0.55159 0.95421 0.21326 0.0
C2096 C 0.54947 0.96295 0.12798 0.0
C2097 C 0.55368 0.97983 0.14023 0.0
C2098 C 0.557 0.98374 0.1892 0.0
C2099 C 0.55617 0.97105 0.22516 0.0
C2100 C 0.55454 0.99341 0.10206 0.0
C2101 C 0.54191 0.00606 0.10084 0.0
C2102 C 0.56729 0.99348 0.06569 0.0
C2103 C 0.58098 0.98049 0.06491 0.0
C2104 C 0.5918 0.97834 0.10521 0.0
C2105 C 0.60457 0.96594 0.10433 0.0
C2106 C 0.60671 0.95568 0.06321 0.0
C2107 C 0.59611 0.95784 0.02282 0.0
C2108 C 0.58331 0.97021 0.02354 0.0
C2109 C 0.55063 0.06015 0.95265 0.0
C2110 C 0.55341 0.05422 0.90498 0.0
C2111 C 0.55142 0.04888 0.9926 0.0
C2112 C 0.55443 0.03129 0.98567 0.0
C2113 C 0.5575 0.02556 0.93798 0.0
C2114 C 0.55714 0.03682 0.89851 0.0
C2115 C 0.55428 0.01867 0.02714 0.0
C2116 C 0.56709 0.00611 0.02922 0.0
C2117 C 0.54137 0.0184 0.06347 0.0
C2118 C 0.52651 0.03002 0.06177 0.0
C2119 C 0.5158 0.03034 0.02075 0.0
C2120 C 0.50181 0.04133 0.01934 0.0
C2121 C 0.49832 0.05196 0.05891 0.0
C2122 C 0.50878 0.05157 0.10005 0.0
C2123 C 0.5228 0.04061 0.10162 0.0
H2124 H 0.48748 0.06046 0.05775 0.0
H2125 H 0.6166 0.94609 0.06259 0.0
H2126 H 0.03876 0.06991 0.66052 0.0
H2127 H 0.03579 0.0485 0.5957 0.0
H2128 H 0.02582 0.00988 0.70341 0.0
H2129 H 0.02834 0.03118 0.76805 0.0
H2130 H 0.05164 1.00097 0.6321 0.0
H2131 H 0.994 0.02251 0.63991 0.0
H2132 H 0.97218 0.04507 0.63797 0.0
H2133 H 0.98776 0.05899 0.49348 0.0
H2134 H 0.00985 0.03665 0.49483 0.0
H2135 H 0.03297 0.93327 0.46759 0.0
H2136 H 0.03236 0.95367 0.53527 0.0
H2137 H 0.02393 0.99465 0.43336 0.0
H2138 H 0.02331 0.97424 0.36672 0.0
H2139 H 0.00696 0.00233 0.5047 0.0
H2140 H 0.06501 0.98378 0.49395 0.0
H2141 H 0.0888 0.96328 0.49256 0.0
H2142 H 0.07557 0.94634 0.63634 0.0
H2143 H 0.05157 0.96661 0.63834 0.0
C2144 C 0.03571 0.05691 0.67036 0.0
C2145 C 0.0337 0.05235 0.71961 0.0
C2146 C 0.03405 0.04466 0.63324 0.0
C2147 C 0.03062 0.02751 0.64456 0.0
C2148 C 0.0285 0.02297 0.69364 0.0
C2149 C 0.02984 0.03524 0.73061 0.0
C2150 C 0.02957 0.01422 0.60551 0.0
C2151 C 0.04175 1.00113 0.60451 0.0
C2152 C 0.01701 0.01465 0.56859 0.0
C2153 C 0.00368 0.02802 0.56768 0.0
C2154 C 0.99287 0.03047 0.60789 0.0
C2155 C 0.98043 0.0432 0.60686 0.0
C2156 C 0.97861 0.05349 0.56568 0.0
C2157 C 0.9892 0.05103 0.52538 0.0
C2158 C 1.00167 0.03833 0.52624 0.0
C2159 C 0.03081 0.94661 0.45982 0.0
C2160 C 0.02814 0.95206 0.41164 0.0
C2161 C 0.03066 0.95838 0.49856 0.0
C2162 C 0.02848 0.97598 0.48995 0.0
C2163 C 0.0256 0.98128 0.44172 0.0
C2164 C 0.02528 0.96952 0.40334 0.0
C2165 C 0.02922 0.98896 0.5305 0.0
C2166 C 0.01693 1.00204 0.532 0.0
C2167 C 0.04199 0.98878 0.56717 0.0
C2168 C 0.05639 0.97657 0.56606 0.0
C2169 C 0.06711 0.9756 0.52512 0.0
C2170 C 0.08064 0.96403 0.52425 0.0
C2171 C 0.08366 0.95348 0.56427 0.0
C2172 C 0.07319 0.9545 0.60532 0.0
C2173 C 0.05963 0.96603 0.60637 0.0
H2174 H 0.09414 0.94453 0.56353 0.0
H2175 H 0.96898 0.06334 0.56495 0.0
loop_
_geom_bond_atom_site_label_1
_geom_bond_atom_site_label_2
_geom_bond_distance
_geom_bond_site_symmetry_2
_ccdc_geom_bond_type
Mn0 O5 2.095 . S
Mn0 O15 2.162 . S
Mn0 O16 2.297 . S
Mn0 O24 2.385 . S
Mn0 O25 2.209 . S
Mn0 O26 2.094 . S
Mn1 O6 2.121 . S
Mn1 N8 2.257 . S
Mn1 N17 2.282 . S
Mn1 O25 2.215 . S
Mn1 O27 2.117 . S
C2 O24 1.234 . S
C2 O25 1.283 . S
C3 O15 1.281 . S
C3 O16 1.236 . S
C4 O26 1.240 . S
C4 O27 1.264 . S
O5 Mn0 2.095 . S
O5 C14 1.250 . S
O6 Mn1 2.121 . S
O6 C14 1.258 . S
C7 N8 1.326 . S
C7 C11 1.460 . S
C7 H13 0.929 . S
N8 Mn1 2.257 . S
N8 C7 1.326 . S
N8 C12 1.362 . S
C9 C10 1.258 . S
C9 C12 1.431 . S
C9 C29 1.449 1_554 S
C10 C9 1.258 . S
C10 C11 1.477 . S
C10 H30 0.931 1_554 S
C11 C7 1.460 . S
C11 C10 1.477 . S
C11 H31 0.930 . S
C12 N8 1.362 . S
C12 C9 1.431 . S
C12 C22 1.476 . S
H13 C7 0.929 . S
C14 O5 1.250 . S
C14 O6 1.258 . S
O15 Mn0 2.162 . S
O15 C3 1.281 . S
O16 Mn0 2.297 . S
O16 C3 1.236 . S
N17 Mn1 2.282 . S
N17 C18 1.328 . S
N17 C22 1.318 . S
C18 N17 1.328 . S
C18 C19 1.457 . S
C18 H23 0.929 . S
C19 C18 1.457 . S
C19 C20 1.291 . S
C19 H32 0.931 1_455 S
C20 C19 1.291 . S
C20 C21 1.373 . S
C20 H33 0.929 . S
C21 C20 1.373 . S
C21 C22 1.396 . S
C21 C28 1.403 1_554 S
C22 C12 1.476 . S
C22 N17 1.318 . S
C22 C21 1.396 . S
H23 C18 0.929 . S
O24 Mn0 2.385 . S
O24 C2 1.234 . S
O25 Mn0 2.209 . S
O25 Mn1 2.215 . S
O25 C2 1.283 . S
O26 Mn0 2.094 . S
O26 C4 1.240 . S
O27 Mn1 2.117 . S
O27 C4 1.264 . S
C28 C21 1.403 1_556 S
C28 C29 1.399 . S
C28 H34 0.929 . S
C29 C9 1.449 1_556 S
C29 C28 1.399 . S
C29 H35 0.930 . S
H30 C10 0.931 1_556 S
H31 C11 0.930 . S
H32 C19 0.931 1_655 S
H33 C20 0.929 . S
H34 C28 0.929 . S
H35 C29 0.930 . S
Mn36 O41 2.095 . S
Mn36 O51 2.162 . S
Mn36 O52 2.297 . S
Mn36 O60 2.385 . S
Mn36 O61 2.209 . S
Mn36 O62 2.094 . S
Mn37 O42 2.121 . S
Mn37 N44 2.257 . S
Mn37 N53 2.282 . S
Mn37 O61 2.215 . S
Mn37 O63 2.117 . S
C38 O60 1.234 . S
C38 O61 1.283 . S
C39 O51 1.281 . S
C39 O52 1.236 . S
C40 O62 1.240 . S
C40 O63 1.264 . S
O41 Mn36 2.095 . S
O41 C50 1.250 . S
O42 Mn37 2.121 . S
O42 C50 1.258 . S
C43 N44 1.326 . S
C43 C47 1.460 . S
C43 H49 0.929 . S
N44 Mn37 2.257 . S
N44 C43 1.326 . S
N44 C48 1.362 . S
C45 C46 1.258 . S
C45 C48 1.431 . S
C45 C65 1.449 . S
C46 C45 1.258 . S
C46 C47 1.477 . S
C46 H66 0.931 . S
C47 C43 1.460 . S
C47 C46 1.477 . S
C47 H67 0.930 . S
C48 N44 1.362 . S
C48 C45 1.431 . S
C48 C58 1.476 . S
H49 C43 0.929 . S
C50 O41 1.250 . S
C50 O42 1.258 . S
O51 Mn36 2.162 . S
O51 C39 1.281 . S
O52 Mn36 2.297 . S
O52 C39 1.236 . S
N53 Mn37 2.282 . S
N53 C54 1.328 . S
N53 C58 1.318 . S
C54 N53 1.328 . S
C54 C55 1.457 . S
C54 H59 0.929 . S
C55 C54 1.457 . S
C55 C56 1.291 . S
C55 H68 0.931 . S
C56 C55 1.291 . S
C56 C57 1.373 . S
C56 H69 0.929 . S
C57 C56 1.373 . S
C57 C58 1.396 . S
C57 C64 1.403 . S
C58 C48 1.476 . S
C58 N53 1.318 . S
C58 C57 1.396 . S
H59 C54 0.929 . S
O60 Mn36 2.385 . S
O60 C38 1.234 . S
O61 Mn36 2.209 . S
O61 Mn37 2.215 . S
O61 C38 1.283 . S
O62 Mn36 2.094 . S
O62 C40 1.240 . S
O63 Mn37 2.117 . S
O63 C40 1.264 . S
C64 C57 1.403 . S
C64 C65 1.399 . S
C64 H70 0.929 . S
C65 C45 1.449 . S
C65 C64 1.399 . S
C65 H71 0.930 . S
H66 C46 0.931 . S
H67 C47 0.930 . S
H68 C55 0.931 . S
H69 C56 0.929 . S
H70 C64 0.929 . S
H71 C65 0.930 . S
Mn72 O77 2.095 . S
Mn72 O87 2.162 . S
Mn72 O88 2.297 . S
Mn72 O96 2.385 . S
Mn72 O97 2.209 . S
Mn72 O98 2.094 . S
Mn73 O78 2.121 . S
Mn73 N80 2.257 . S
Mn73 N89 2.282 . S
Mn73 O97 2.215 . S
Mn73 O99 2.117 . S
C74 O96 1.234 . S
C74 O97 1.283 . S
C75 O87 1.281 . S
C75 O88 1.236 . S
C76 O98 1.240 . S
C76 O99 1.264 . S
O77 Mn72 2.095 . S
O77 C86 1.250 . S
O78 Mn73 2.121 . S
O78 C86 1.258 . S
C79 N80 1.326 . S
C79 C83 1.460 . S
C79 H85 0.929 . S
N80 Mn73 2.257 . S
N80 C79 1.326 . S
N80 C84 1.362 . S
C81 C82 1.258 . S
C81 C84 1.431 . S
C81 C101 1.449 . S
C82 C81 1.258 . S
C82 C83 1.477 . S
C82 H102 0.931 . S
C83 C79 1.460 . S
C83 C82 1.477 . S
C83 H103 0.930 . S
C84 N80 1.362 . S
C84 C81 1.431 . S
C84 C94 1.476 . S
H85 C79 0.929 . S
C86 O77 1.250 . S
C86 O78 1.258 . S
O87 Mn72 2.162 . S
O87 C75 1.281 . S
O88 Mn72 2.297 . S
O88 C75 1.236 . S
N89 Mn73 2.282 . S
N89 C90 1.328 . S
N89 C94 1.318 . S
C90 N89 1.328 . S
C90 C91 1.457 . S
C90 H95 0.929 . S
C91 C90 1.457 . S
C91 C92 1.291 . S
C91 H104 0.931 . S
C92 C91 1.291 . S
C92 C93 1.373 . S
C92 H105 0.929 . S
C93 C92 1.373 . S
C93 C94 1.396 . S
C93 C100 1.403 . S
C94 C84 1.476 . S
C94 N89 1.318 . S
C94 C93 1.396 . S
H95 C90 0.929 . S
O96 Mn72 2.385 . S
O96 C74 1.234 . S
O97 Mn72 2.209 . S
O97 Mn73 2.215 . S
O97 C74 1.283 . S
O98 Mn72 2.094 . S
O98 C76 1.240 . S
O99 Mn73 2.117 . S
O99 C76 1.264 . S
C100 C93 1.403 . S
C100 C101 1.399 . S
C100 H106 0.929 . S
C101 C81 1.449 . S
C101 C100 1.399 . S
C101 H107 0.930 . S
H102 C82 0.931 . S
H103 C83 0.930 . S
H104 C91 0.931 . S
H105 C92 0.929 . S
H106 C100 0.929 . S
H107 C101 0.930 . S
Mn108 O113 2.095 . S
Mn108 O123 2.162 . S
Mn108 O124 2.297 . S
Mn108 O132 2.385 1_554 S
Mn108 O133 2.209 1_554 S
Mn108 O134 2.094 . S
Mn109 O114 2.121 . S
Mn109 N116 2.257 . S
Mn109 N125 2.282 . S
Mn109 O133 2.215 . S
Mn109 O135 2.117 . S
C110 O132 1.234 . S
C110 O133 1.283 . S
C111 O123 1.281 . S
C111 O124 1.236 . S
C112 O134 1.240 1_556 S
C112 O135 1.264 . S
O113 Mn108 2.095 . S
O113 C122 1.250 1_554 S
O114 Mn109 2.121 . S
O114 C122 1.258 . S
C115 N116 1.326 . S
C115 C119 1.460 . S
C115 H121 0.929 . S
N116 Mn109 2.257 . S
N116 C115 1.326 . S
N116 C120 1.362 . S
C117 C118 1.258 . S
C117 C120 1.431 . S
C117 C137 1.449 . S
C118 C117 1.258 . S
C118 C119 1.477 . S
C118 H138 0.931 . S
C119 C115 1.460 . S
C119 C118 1.477 . S
C119 H139 0.930 . S
C120 N116 1.362 . S
C120 C117 1.431 . S
C120 C130 1.476 . S
H121 C115 0.929 . S
C122 O113 1.250 1_556 S
C122 O114 1.258 . S
O123 Mn108 2.162 . S
O123 C111 1.281 . S
O124 Mn108 2.297 . S
O124 C111 1.236 . S
N125 Mn109 2.282 . S
N125 C126 1.328 . S
N125 C130 1.318 . S
C126 N125 1.328 . S
C126 C127 1.457 . S
C126 H131 0.929 . S
C127 C126 1.457 . S
C127 C128 1.291 . S
C127 H140 0.931 . S
C128 C127 1.291 . S
C128 C129 1.373 . S
C128 H141 0.929 . S
C129 C128 1.373 . S
C129 C130 1.396 . S
C129 C136 1.403 . S
C130 C120 1.476 . S
C130 N125 1.318 . S
C130 C129 1.396 . S
H131 C126 0.929 . S
O132 Mn108 2.385 1_556 S
O132 C110 1.234 . S
O133 Mn108 2.209 1_556 S
O133 Mn109 2.215 . S
O133 C110 1.283 . S
O134 Mn108 2.094 . S
O134 C112 1.240 1_554 S
O135 Mn109 2.117 . S
O135 C112 1.264 . S
C136 C129 1.403 . S
C136 C137 1.399 . S
C136 H142 0.929 . S
C137 C117 1.449 . S
C137 C136 1.399 . S
C137 H143 0.930 . S
H138 C118 0.931 . S
H139 C119 0.930 . S
H140 C127 0.931 . S
H141 C128 0.929 . S
H142 C136 0.929 . S
H143 C137 0.930 . S
Mn144 O149 2.095 . S
Mn144 O159 2.162 . S
Mn144 O160 2.297 . S
Mn144 O168 2.385 . S
Mn144 O169 2.209 . S
Mn144 O170 2.094 . S
Mn145 O150 2.121 . S
Mn145 N152 2.257 1_556 S
Mn145 N161 2.282 1_556 S
Mn145 O169 2.215 . S
Mn145 O171 2.117 . S
C146 O168 1.234 . S
C146 O169 1.283 . S
C147 O159 1.281 . S
C147 O160 1.236 . S
C148 O170 1.240 . S
C148 O171 1.264 . S
O149 Mn144 2.095 . S
O149 C158 1.250 . S
O150 Mn145 2.121 . S
O150 C158 1.258 . S
C151 N152 1.326 . S
C151 C155 1.460 . S
C151 H157 0.929 1_554 S
N152 Mn145 2.257 1_554 S
N152 C151 1.326 . S
N152 C156 1.362 . S
C153 C154 1.258 . S
C153 C156 1.431 . S
C153 C173 1.449 . S
C154 C153 1.258 . S
C154 C155 1.477 . S
C154 H174 0.931 . S
C155 C151 1.460 . S
C155 C154 1.477 . S
C155 H175 0.930 . S
C156 N152 1.362 . S
C156 C153 1.431 . S
C156 C166 1.476 . S
H157 C151 0.929 1_556 S
C158 O149 1.250 . S
C158 O150 1.258 . S
O159 Mn144 2.162 . S
O159 C147 1.281 . S
O160 Mn144 2.297 . S
O160 C147 1.236 . S
N161 Mn145 2.282 1_554 S
N161 C162 1.328 . S
N161 C166 1.318 . S
C162 N161 1.328 . S
C162 C163 1.457 . S
C162 H167 0.929 1_554 S
C163 C162 1.457 . S
C163 C164 1.291 . S
C163 H176 0.931 1_455 S
C164 C163 1.291 . S
C164 C165 1.373 . S
C164 H177 0.929 . S
C165 C164 1.373 . S
C165 C166 1.396 . S
C165 C172 1.403 . S
C166 C156 1.476 . S
C166 N161 1.318 . S
C166 C165 1.396 . S
H167 C162 0.929 1_556 S
O168 Mn144 2.385 . S
O168 C146 1.234 . S
O169 Mn144 2.209 . S
O169 Mn145 2.215 . S
O169 C146 1.283 . S
O170 Mn144 2.094 . S
O170 C148 1.240 . S
O171 Mn145 2.117 . S
O171 C148 1.264 . S
C172 C165 1.403 . S
C172 C173 1.399 . S
C172 H178 0.929 . S
C173 C153 1.449 . S
C173 C172 1.399 . S
C173 H179 0.930 . S
H174 C154 0.931 . S
H175 C155 0.930 . S
H176 C163 0.931 1_655 S
H177 C164 0.929 . S
H178 C172 0.929 . S
H179 C173 0.930 . S
Mn180 O185 2.095 . S
Mn180 O195 2.162 . S
Mn180 O196 2.297 . S
Mn180 O204 2.385 . S
Mn180 O205 2.209 . S
Mn180 O206 2.094 . S
Mn181 O186 2.121 . S
Mn181 N188 2.257 . S
Mn181 N197 2.282 . S
Mn181 O205 2.215 . S
Mn181 O207 2.117 . S
C182 O204 1.234 . S
C182 O205 1.283 . S
C183 O195 1.281 . S
C183 O196 1.236 . S
C184 O206 1.240 . S
C184 O207 1.264 . S
O185 Mn180 2.095 . S
O185 C194 1.250 . S
O186 Mn181 2.121 . S
O186 C194 1.258 . S
C187 N188 1.326 . S
C187 C191 1.460 . S
C187 H193 0.929 . S
N188 Mn181 2.257 . S
N188 C187 1.326 . S
N188 C192 1.362 . S
C189 C190 1.258 . S
C189 C192 1.431 . S
C189 C209 1.449 . S
C190 C189 1.258 . S
C190 C191 1.477 . S
C190 H210 0.931 . S
C191 C187 1.460 . S
C191 C190 1.477 . S
C191 H211 0.930 . S
C192 N188 1.362 . S
C192 C189 1.431 . S
C192 C202 1.476 . S
H193 C187 0.929 . S
C194 O185 1.250 . S
C194 O186 1.258 . S
O195 Mn180 2.162 . S
O195 C183 1.281 . S
O196 Mn180 2.297 . S
O196 C183 1.236 . S
N197 Mn181 2.282 . S
N197 C198 1.328 . S
N197 C202 1.318 . S
C198 N197 1.328 . S
C198 C199 1.457 . S
C198 H203 0.929 . S
C199 C198 1.457 . S
C199 C200 1.291 . S
C199 H212 0.931 . S
C200 C199 1.291 . S
C200 C201 1.373 . S
C200 H213 0.929 . S
C201 C200 1.373 . S
C201 C202 1.396 . S
C201 C208 1.403 . S
C202 C192 1.476 . S
C202 N197 1.318 . S
C202 C201 1.396 . S
H203 C198 0.929 . S
O204 Mn180 2.385 . S
O204 C182 1.234 . S
O205 Mn180 2.209 . S
O205 Mn181 2.215 . S
O205 C182 1.283 . S
O206 Mn180 2.094 . S
O206 C184 1.240 . S
O207 Mn181 2.117 . S
O207 C184 1.264 . S
C208 C201 1.403 . S
C208 C209 1.399 . S
C208 H214 0.929 . S
C209 C189 1.449 . S
C209 C208 1.399 . S
C209 H215 0.930 . S
H210 C190 0.931 . S
H211 C191 0.930 . S
H212 C199 0.931 . S
H213 C200 0.929 . S
H214 C208 0.929 . S
H215 C209 0.930 . S
Mn216 O221 2.095 . S
Mn216 O231 2.162 . S
Mn216 O232 2.297 . S
Mn216 O240 2.385 . S
Mn216 O241 2.209 . S
Mn216 O242 2.094 . S
Mn217 O222 2.121 . S
Mn217 N224 2.257 . S
Mn217 N233 2.282 . S
Mn217 O241 2.215 . S
Mn217 O243 2.117 . S
C218 O240 1.234 . S
C218 O241 1.283 . S
C219 O231 1.281 . S
C219 O232 1.236 . S
C220 O242 1.240 . S
C220 O243 1.264 . S
O221 Mn216 2.095 . S
O221 C230 1.250 . S
O222 Mn217 2.121 . S
O222 C230 1.258 . S
C223 N224 1.326 . S
C223 C227 1.460 . S
C223 H229 0.929 . S
N224 Mn217 2.257 . S
N224 C223 1.326 . S
N224 C228 1.362 . S
C225 C226 1.258 . S
C225 C228 1.431 . S
C225 C245 1.449 . S
C226 C225 1.258 . S
C226 C227 1.477 . S
C226 H246 0.931 . S
C227 C223 1.460 . S
C227 C226 1.477 . S
C227 H247 0.930 . S
C228 N224 1.362 . S
C228 C225 1.431 . S
C228 C238 1.476 . S
H229 C223 0.929 . S
C230 O221 1.250 . S
C230 O222 1.258 . S
O231 Mn216 2.162 . S
O231 C219 1.281 . S
O232 Mn216 2.297 . S
O232 C219 1.236 . S
N233 Mn217 2.282 . S
N233 C234 1.328 . S
N233 C238 1.318 . S
C234 N233 1.328 . S
C234 C235 1.457 . S
C234 H239 0.929 . S
C235 C234 1.457 . S
C235 C236 1.291 . S
C235 H248 0.931 . S
C236 C235 1.291 . S
C236 C237 1.373 . S
C236 H249 0.929 . S
C237 C236 1.373 . S
C237 C238 1.396 . S
C237 C244 1.403 . S
C238 C228 1.476 . S
C238 N233 1.318 . S
C238 C237 1.396 . S
H239 C234 0.929 . S
O240 Mn216 2.385 . S
O240 C218 1.234 . S
O241 Mn216 2.209 . S
O241 Mn217 2.215 . S
O241 C218 1.283 . S
O242 Mn216 2.094 . S
O242 C220 1.240 . S
O243 Mn217 2.117 . S
O243 C220 1.264 . S
C244 C237 1.403 . S
C244 C245 1.399 . S
C244 H250 0.929 . S
C245 C225 1.449 . S
C245 C244 1.399 . S
C245 H251 0.930 . S
H246 C226 0.931 . S
H247 C227 0.930 . S
H248 C235 0.931 . S
H249 C236 0.929 . S
H250 C244 0.929 . S
H251 C245 0.930 . S
Mn252 O257 2.095 . S
Mn252 O267 2.162 . S
Mn252 O268 2.297 . S
Mn252 O276 2.385 . S
Mn252 O277 2.209 . S
Mn252 O278 2.094 . S
Mn253 O258 2.121 . S
Mn253 N260 2.257 . S
Mn253 N269 2.282 . S
Mn253 O277 2.215 . S
Mn253 O279 2.117 . S
C254 O276 1.234 . S
C254 O277 1.283 . S
C255 O267 1.281 . S
C255 O268 1.236 . S
C256 O278 1.240 . S
C256 O279 1.264 . S
O257 Mn252 2.095 . S
O257 C266 1.250 . S
O258 Mn253 2.121 . S
O258 C266 1.258 . S
C259 N260 1.326 . S
C259 C263 1.460 . S
C259 H265 0.929 . S
N260 Mn253 2.257 . S
N260 C259 1.326 . S
N260 C264 1.362 . S
C261 C262 1.258 . S
C261 C264 1.431 . S
C261 C281 1.449 . S
C262 C261 1.258 . S
C262 C263 1.477 . S
C262 H282 0.931 . S
C263 C259 1.460 . S
C263 C262 1.477 . S
C263 H283 0.930 . S
C264 N260 1.362 . S
C264 C261 1.431 . S
C264 C274 1.476 . S
H265 C259 0.929 . S
C266 O257 1.250 . S
C266 O258 1.258 . S
O267 Mn252 2.162 . S
O267 C255 1.281 . S
O268 Mn252 2.297 . S
O268 C255 1.236 . S
N269 Mn253 2.282 . S
N269 C270 1.328 . S
N269 C274 1.318 . S
C270 N269 1.328 . S
C270 C271 1.457 . S
C270 H275 0.929 . S
C271 C270 1.457 . S
C271 C272 1.291 . S
C271 H284 0.931 . S
C272 C271 1.291 . S
C272 C273 1.373 . S
C272 H285 0.929 . S
C273 C272 1.373 . S
C273 C274 1.396 . S
C273 C280 1.403 . S
C274 C264 1.476 . S
C274 N269 1.318 . S
C274 C273 1.396 . S
H275 C270 0.929 . S
O276 Mn252 2.385 . S
O276 C254 1.234 . S
O277 Mn252 2.209 . S
O277 Mn253 2.215 . S
O277 C254 1.283 . S
O278 Mn252 2.094 . S
O278 C256 1.240 . S
O279 Mn253 2.117 . S
O279 C256 1.264 . S
C280 C273 1.403 . S
C280 C281 1.399 . S
C280 H286 0.929 . S
C281 C261 1.449 . S
C281 C280 1.399 . S
C281 H287 0.930 . S
H282 C262 0.931 . S
H283 C263 0.930 . S
H284 C271 0.931 . S
H285 C272 0.929 . S
H286 C280 0.929 . S
H287 C281 0.930 . S
Mn288 O293 2.095 . S
Mn288 O303 2.162 . S
Mn288 O304 2.297 . S
Mn288 O312 2.385 . S
Mn288 O313 2.209 . S
Mn288 O314 2.094 . S
Mn289 O294 2.121 . S
Mn289 N296 2.257 . S
Mn289 N305 2.282 . S
Mn289 O313 2.215 . S
Mn289 O315 2.117 . S
C290 O312 1.234 . S
C290 O313 1.283 . S
C291 O303 1.281 . S
C291 O304 1.236 . S
C292 O314 1.240 . S
C292 O315 1.264 . S
O293 Mn288 2.095 . S
O293 C302 1.250 . S
O294 Mn289 2.121 . S
O294 C302 1.258 . S
C295 N296 1.326 . S
C295 C299 1.460 . S
C295 H301 0.929 . S
N296 Mn289 2.257 . S
N296 C295 1.326 . S
N296 C300 1.362 . S
C297 C298 1.258 . S
C297 C300 1.431 . S
C297 C317 1.449 . S
C298 C297 1.258 . S
C298 C299 1.477 . S
C298 H318 0.931 . S
C299 C295 1.460 . S
C299 C298 1.477 . S
C299 H319 0.930 . S
C300 N296 1.362 . S
C300 C297 1.431 . S
C300 C310 1.476 . S
H301 C295 0.929 . S
C302 O293 1.250 . S
C302 O294 1.258 . S
O303 Mn288 2.162 . S
O303 C291 1.281 . S
O304 Mn288 2.297 . S
O304 C291 1.236 . S
N305 Mn289 2.282 . S
N305 C306 1.328 . S
N305 C310 1.318 . S
C306 N305 1.328 . S
C306 C307 1.457 . S
C306 H311 0.929 . S
C307 C306 1.457 . S
C307 C308 1.291 . S
C307 H320 0.931 . S
C308 C307 1.291 . S
C308 C309 1.373 . S
C308 H321 0.929 . S
C309 C308 1.373 . S
C309 C310 1.396 . S
C309 C316 1.403 . S
C310 C300 1.476 . S
C310 N305 1.318 . S
C310 C309 1.396 . S
H311 C306 0.929 . S
O312 Mn288 2.385 . S
O312 C290 1.234 . S
O313 Mn288 2.209 . S
O313 Mn289 2.215 . S
O313 C290 1.283 . S
O314 Mn288 2.094 . S
O314 C292 1.240 . S
O315 Mn289 2.117 . S
O315 C292 1.264 . S
C316 C309 1.403 . S
C316 C317 1.399 . S
C316 H322 0.929 . S
C317 C297 1.449 . S
C317 C316 1.399 . S
C317 H323 0.930 . S
H318 C298 0.931 . S
H319 C299 0.930 . S
H320 C307 0.931 . S
H321 C308 0.929 . S
H322 C316 0.929 . S
H323 C317 0.930 . S
Mn324 O329 2.095 . S
Mn324 O339 2.162 . S
Mn324 O340 2.297 . S
Mn324 O348 2.385 . S
Mn324 O349 2.209 . S
Mn324 O350 2.094 . S
Mn325 O330 2.121 . S
Mn325 N332 2.257 . S
Mn325 N341 2.282 . S
Mn325 O349 2.215 . S
Mn325 O351 2.117 . S
C326 O348 1.234 . S
C326 O349 1.283 . S
C327 O339 1.281 . S
C327 O340 1.236 . S
C328 O350 1.240 . S
C328 O351 1.264 . S
O329 Mn324 2.095 . S
O329 C338 1.250 . S
O330 Mn325 2.121 . S
O330 C338 1.258 . S
C331 N332 1.326 . S
C331 C335 1.460 . S
C331 H337 0.929 . S
N332 Mn325 2.257 . S
N332 C331 1.326 . S
N332 C336 1.362 . S
C333 C334 1.258 . S
C333 C336 1.431 . S
C333 C353 1.449 . S
C334 C333 1.258 . S
C334 C335 1.477 . S
C334 H354 0.931 . S
C335 C331 1.460 . S
C335 C334 1.477 . S
C335 H355 0.930 . S
C336 N332 1.362 . S
C336 C333 1.431 . S
C336 C346 1.476 . S
H337 C331 0.929 . S
C338 O329 1.250 . S
C338 O330 1.258 . S
O339 Mn324 2.162 . S
O339 C327 1.281 . S
O340 Mn324 2.297 . S
O340 C327 1.236 . S
N341 Mn325 2.282 . S
N341 C342 1.328 . S
N341 C346 1.318 . S
C342 N341 1.328 . S
C342 C343 1.457 . S
C342 H347 0.929 . S
C343 C342 1.457 . S
C343 C344 1.291 . S
C343 H356 0.931 . S
C344 C343 1.291 . S
C344 C345 1.373 . S
C344 H357 0.929 . S
C345 C344 1.373 . S
C345 C346 1.396 . S
C345 C352 1.403 . S
C346 C336 1.476 . S
C346 N341 1.318 . S
C346 C345 1.396 . S
H347 C342 0.929 . S
O348 Mn324 2.385 . S
O348 C326 1.234 . S
O349 Mn324 2.209 . S
O349 Mn325 2.215 . S
O349 C326 1.283 . S
O350 Mn324 2.094 . S
O350 C328 1.240 . S
O351 Mn325 2.117 . S
O351 C328 1.264 . S
C352 C345 1.403 . S
C352 C353 1.399 . S
C352 H358 0.929 . S
C353 C333 1.449 . S
C353 C352 1.399 . S
C353 H359 0.930 . S
H354 C334 0.931 . S
H355 C335 0.930 . S
H356 C343 0.931 . S
H357 C344 0.929 . S
H358 C352 0.929 . S
H359 C353 0.930 . S
Mn360 O365 2.095 . S
Mn360 O375 2.162 . S
Mn360 O376 2.297 . S
Mn360 O384 2.385 1_554 S
Mn360 O385 2.209 1_554 S
Mn360 O386 2.094 . S
Mn361 O366 2.121 . S
Mn361 N368 2.257 . S
Mn361 N377 2.282 . S
Mn361 O385 2.215 . S
Mn361 O387 2.117 . S
C362 O384 1.234 . S
C362 O385 1.283 . S
C363 O375 1.281 . S
C363 O376 1.236 . S
C364 O386 1.240 1_556 S
C364 O387 1.264 . S
O365 Mn360 2.095 . S
O365 C374 1.250 1_554 S
O366 Mn361 2.121 . S
O366 C374 1.258 . S
C367 N368 1.326 . S
C367 C371 1.460 . S
C367 H373 0.929 . S
N368 Mn361 2.257 . S
N368 C367 1.326 . S
N368 C372 1.362 . S
C369 C370 1.258 . S
C369 C372 1.431 . S
C369 C389 1.449 . S
C370 C369 1.258 . S
C370 C371 1.477 . S
C370 H390 0.931 . S
C371 C367 1.460 . S
C371 C370 1.477 . S
C371 H391 0.930 . S
C372 N368 1.362 . S
C372 C369 1.431 . S
C372 C382 1.476 . S
H373 C367 0.929 . S
C374 O365 1.250 1_556 S
C374 O366 1.258 . S
O375 Mn360 2.162 . S
O375 C363 1.281 . S
O376 Mn360 2.297 . S
O376 C363 1.236 . S
N377 Mn361 2.282 . S
N377 C378 1.328 . S
N377 C382 1.318 . S
C378 N377 1.328 . S
C378 C379 1.457 . S
C378 H383 0.929 . S
C379 C378 1.457 . S
C379 C380 1.291 . S
C379 H392 0.931 . S
C380 C379 1.291 . S
C380 C381 1.373 . S
C380 H393 0.929 . S
C381 C380 1.373 . S
C381 C382 1.396 . S
C381 C388 1.403 . S
C382 C372 1.476 . S
C382 N377 1.318 . S
C382 C381 1.396 . S
H383 C378 0.929 . S
O384 Mn360 2.385 1_556 S
O384 C362 1.234 . S
O385 Mn360 2.209 1_556 S
O385 Mn361 2.215 . S
O385 C362 1.283 . S
O386 Mn360 2.094 . S
O386 C364 1.240 1_554 S
O387 Mn361 2.117 . S
O387 C364 1.264 . S
C388 C381 1.403 . S
C388 C389 1.399 . S
C388 H394 0.929 . S
C389 C369 1.449 . S
C389 C388 1.399 . S
C389 H395 0.930 . S
H390 C370 0.931 . S
H391 C371 0.930 . S
H392 C379 0.931 . S
H393 C380 0.929 . S
H394 C388 0.929 . S
H395 C389 0.930 . S
Mn396 O401 2.095 . S
Mn396 O411 2.162 . S
Mn396 O412 2.297 . S
Mn396 O420 2.385 . S
Mn396 O421 2.209 . S
Mn396 O422 2.094 . S
Mn397 O402 2.121 . S
Mn397 N404 2.257 . S
Mn397 N413 2.282 . S
Mn397 O421 2.215 . S
Mn397 O423 2.117 . S
C398 O420 1.234 . S
C398 O421 1.283 . S
C399 O411 1.281 . S
C399 O412 1.236 . S
C400 O422 1.240 . S
C400 O423 1.264 . S
O401 Mn396 2.095 . S
O401 C410 1.250 . S
O402 Mn397 2.121 . S
O402 C410 1.258 . S
C403 N404 1.326 . S
C403 C407 1.460 . S
C403 H409 0.929 . S
N404 Mn397 2.257 . S
N404 C403 1.326 . S
N404 C408 1.362 . S
C405 C406 1.258 . S
C405 C408 1.431 . S
C405 C425 1.449 . S
C406 C405 1.258 . S
C406 C407 1.477 . S
C406 H426 0.931 . S
C407 C403 1.460 . S
C407 C406 1.477 . S
C407 H427 0.930 . S
C408 N404 1.362 . S
C408 C405 1.431 . S
C408 C418 1.476 . S
H409 C403 0.929 . S
C410 O401 1.250 . S
C410 O402 1.258 . S
O411 Mn396 2.162 . S
O411 C399 1.281 . S
O412 Mn396 2.297 . S
O412 C399 1.236 . S
N413 Mn397 2.282 . S
N413 C414 1.328 . S
N413 C418 1.318 . S
C414 N413 1.328 . S
C414 C415 1.457 . S
C414 H419 0.929 . S
C415 C414 1.457 . S
C415 C416 1.291 . S
C415 H428 0.931 . S
C416 C415 1.291 . S
C416 C417 1.373 . S
C416 H429 0.929 . S
C417 C416 1.373 . S
C417 C418 1.396 . S
C417 C424 1.403 . S
C418 C408 1.476 . S
C418 N413 1.318 . S
C418 C417 1.396 . S
H419 C414 0.929 . S
O420 Mn396 2.385 . S
O420 C398 1.234 . S
O421 Mn396 2.209 . S
O421 Mn397 2.215 . S
O421 C398 1.283 . S
O422 Mn396 2.094 . S
O422 C400 1.240 . S
O423 Mn397 2.117 . S
O423 C400 1.264 . S
C424 C417 1.403 . S
C424 C425 1.399 . S
C424 H430 0.929 . S
C425 C405 1.449 . S
C425 C424 1.399 . S
C425 H431 0.930 . S
H426 C406 0.931 . S
H427 C407 0.930 . S
H428 C415 0.931 . S
H429 C416 0.929 . S
H430 C424 0.929 . S
H431 C425 0.930 . S
Mn432 O437 2.095 . S
Mn432 O447 2.162 . S
Mn432 O448 2.297 . S
Mn432 O456 2.385 . S
Mn432 O457 2.209 . S
Mn432 O458 2.094 . S
Mn433 O438 2.121 . S
Mn433 N440 2.257 . S
Mn433 N449 2.282 . S
Mn433 O457 2.215 . S
Mn433 O459 2.117 . S
C434 O456 1.234 . S
C434 O457 1.283 . S
C435 O447 1.281 . S
C435 O448 1.236 . S
C436 O458 1.240 . S
C436 O459 1.264 . S
O437 Mn432 2.095 . S
O437 C446 1.250 . S
O438 Mn433 2.121 . S
O438 C446 1.258 . S
C439 N440 1.326 . S
C439 C443 1.460 . S
C439 H445 0.929 . S
N440 Mn433 2.257 . S
N440 C439 1.326 . S
N440 C444 1.362 . S
C441 C442 1.258 . S
C441 C444 1.431 . S
C441 C461 1.449 . S
C442 C441 1.258 . S
C442 C443 1.477 . S
C442 H462 0.931 . S
C443 C439 1.460 . S
C443 C442 1.477 . S
C443 H463 0.930 . S
C444 N440 1.362 . S
C444 C441 1.431 . S
C444 C454 1.476 . S
H445 C439 0.929 . S
C446 O437 1.250 . S
C446 O438 1.258 . S
O447 Mn432 2.162 . S
O447 C435 1.281 . S
O448 Mn432 2.297 . S
O448 C435 1.236 . S
N449 Mn433 2.282 . S
N449 C450 1.328 . S
N449 C454 1.318 . S
C450 N449 1.328 . S
C450 C451 1.457 . S
C450 H455 0.929 . S
C451 C450 1.457 . S
C451 C452 1.291 . S
C451 H464 0.931 . S
C452 C451 1.291 . S
C452 C453 1.373 . S
C452 H465 0.929 . S
C453 C452 1.373 . S
C453 C454 1.396 . S
C453 C460 1.403 . S
C454 C444 1.476 . S
C454 N449 1.318 . S
C454 C453 1.396 . S
H455 C450 0.929 . S
O456 Mn432 2.385 . S
O456 C434 1.234 . S
O457 Mn432 2.209 . S
O457 Mn433 2.215 . S
O457 C434 1.283 . S
O458 Mn432 2.094 . S
O458 C436 1.240 . S
O459 Mn433 2.117 . S
O459 C436 1.264 . S
C460 C453 1.403 . S
C460 C461 1.399 . S
C460 H466 0.929 . S
C461 C441 1.449 . S
C461 C460 1.399 . S
C461 H467 0.930 . S
H462 C442 0.931 . S
H463 C443 0.930 . S
H464 C451 0.931 . S
H465 C452 0.929 . S
H466 C460 0.929 . S
H467 C461 0.930 . S
Mn468 O473 2.095 . S
Mn468 O483 2.162 . S
Mn468 O484 2.297 . S
Mn468 O492 2.385 . S
Mn468 O493 2.209 . S
Mn468 O494 2.094 . S
Mn469 O474 2.121 . S
Mn469 N476 2.257 . S
Mn469 N485 2.282 . S
Mn469 O493 2.215 . S
Mn469 O495 2.117 . S
C470 O492 1.234 . S
C470 O493 1.283 . S
C471 O483 1.281 . S
C471 O484 1.236 . S
C472 O494 1.240 . S
C472 O495 1.264 . S
O473 Mn468 2.095 . S
O473 C482 1.250 . S
O474 Mn469 2.121 . S
O474 C482 1.258 . S
C475 N476 1.326 1_655 S
C475 C479 1.460 . S
C475 H481 0.929 . S
N476 Mn469 2.257 . S
N476 C475 1.326 1_455 S
N476 C480 1.362 . S
C477 C478 1.258 1_455 S
C477 C480 1.431 . S
C477 C497 1.449 1_554 S
C478 C477 1.258 1_655 S
C478 C479 1.477 . S
C478 H498 0.931 1_554 S
C479 C475 1.460 . S
C479 C478 1.477 . S
C479 H499 0.930 . S
C480 N476 1.362 . S
C480 C477 1.431 . S
C480 C490 1.476 . S
H481 C475 0.929 . S
C482 O473 1.250 . S
C482 O474 1.258 . S
O483 Mn468 2.162 . S
O483 C471 1.281 . S
O484 Mn468 2.297 . S
O484 C471 1.236 . S
N485 Mn469 2.282 . S
N485 C486 1.328 . S
N485 C490 1.318 . S
C486 N485 1.328 . S
C486 C487 1.457 . S
C486 H491 0.929 . S
C487 C486 1.457 . S
C487 C488 1.291 . S
C487 H500 0.931 . S
C488 C487 1.291 . S
C488 C489 1.373 . S
C488 H501 0.929 . S
C489 C488 1.373 . S
C489 C490 1.396 . S
C489 C496 1.403 1_554 S
C490 C480 1.476 . S
C490 N485 1.318 . S
C490 C489 1.396 . S
H491 C486 0.929 . S
O492 Mn468 2.385 . S
O492 C470 1.234 . S
O493 Mn468 2.209 . S
O493 Mn469 2.215 . S
O493 C470 1.283 . S
O494 Mn468 2.094 . S
O494 C472 1.240 . S
O495 Mn469 2.117 . S
O495 C472 1.264 . S
C496 C489 1.403 1_556 S
C496 C497 1.399 . S
C496 H502 0.929 . S
C497 C477 1.449 1_556 S
C497 C496 1.399 . S
C497 H503 0.930 . S
H498 C478 0.931 1_556 S
H499 C479 0.930 . S
H500 C487 0.931 . S
H501 C488 0.929 . S
H502 C496 0.929 . S
H503 C497 0.930 . S
Mn504 O509 2.095 . S
Mn504 O519 2.162 . S
Mn504 O520 2.297 . S
Mn504 O528 2.385 . S
Mn504 O529 2.209 . S
Mn504 O530 2.094 . S
Mn505 O510 2.121 . S
Mn505 N512 2.257 . S
Mn505 N521 2.282 . S
Mn505 O529 2.215 . S
Mn505 O531 2.117 . S
C506 O528 1.234 . S
C506 O529 1.283 . S
C507 O519 1.281 . S
C507 O520 1.236 . S
C508 O530 1.240 . S
C508 O531 1.264 . S
O509 Mn504 2.095 . S
O509 C518 1.250 . S
O510 Mn505 2.121 . S
O510 C518 1.258 . S
C511 N512 1.326 . S
C511 C515 1.460 . S
C511 H517 0.929 . S
N512 Mn505 2.257 . S
N512 C511 1.326 . S
N512 C516 1.362 . S
C513 C514 1.258 . S
C513 C516 1.431 . S
C513 C533 1.449 . S
C514 C513 1.258 . S
C514 C515 1.477 . S
C514 H534 0.931 . S
C515 C511 1.460 . S
C515 C514 1.477 . S
C515 H535 0.930 . S
C516 N512 1.362 . S
C516 C513 1.431 . S
C516 C526 1.476 . S
H517 C511 0.929 . S
C518 O509 1.250 . S
C518 O510 1.258 . S
O519 Mn504 2.162 . S
O519 C507 1.281 . S
O520 Mn504 2.297 . S
O520 C507 1.236 . S
N521 Mn505 2.282 . S
N521 C522 1.328 . S
N521 C526 1.318 . S
C522 N521 1.328 . S
C522 C523 1.457 . S
C522 H527 0.929 . S
C523 C522 1.457 . S
C523 C524 1.291 . S
C523 H536 0.931 . S
C524 C523 1.291 . S
C524 C525 1.373 . S
C524 H537 0.929 . S
C525 C524 1.373 . S
C525 C526 1.396 . S
C525 C532 1.403 . S
C526 C516 1.476 . S
C526 N521 1.318 . S
C526 C525 1.396 . S
H527 C522 0.929 . S
O528 Mn504 2.385 . S
O528 C506 1.234 . S
O529 Mn504 2.209 . S
O529 Mn505 2.215 . S
O529 C506 1.283 . S
O530 Mn504 2.094 . S
O530 C508 1.240 . S
O531 Mn505 2.117 . S
O531 C508 1.264 . S
C532 C525 1.403 . S
C532 C533 1.399 . S
C532 H538 0.929 . S
C533 C513 1.449 . S
C533 C532 1.399 . S
C533 H539 0.930 . S
H534 C514 0.931 . S
H535 C515 0.930 . S
H536 C523 0.931 . S
H537 C524 0.929 . S
H538 C532 0.929 . S
H539 C533 0.930 . S
Mn540 O545 2.095 . S
Mn540 O555 2.162 . S
Mn540 O556 2.297 . S
Mn540 O564 2.385 . S
Mn540 O565 2.209 . S
Mn540 O566 2.094 . S
Mn541 O546 2.121 . S
Mn541 N548 2.257 1_556 S
Mn541 N557 2.282 1_556 S
Mn541 O565 2.215 . S
Mn541 O567 2.117 . S
C542 O564 1.234 . S
C542 O565 1.283 . S
C543 O555 1.281 . S
C543 O556 1.236 . S
C544 O566 1.240 . S
C544 O567 1.264 . S
O545 Mn540 2.095 . S
O545 C554 1.250 . S
O546 Mn541 2.121 . S
O546 C554 1.258 . S
C547 N548 1.326 1_655 S
C547 C551 1.460 . S
C547 H553 0.929 1_554 S
N548 Mn541 2.257 1_554 S
N548 C547 1.326 1_455 S
N548 C552 1.362 . S
C549 C550 1.258 1_455 S
C549 C552 1.431 . S
C549 C569 1.449 . S
C550 C549 1.258 1_655 S
C550 C551 1.477 . S
C550 H570 0.931 . S
C551 C547 1.460 . S
C551 C550 1.477 . S
C551 H571 0.930 . S
C552 N548 1.362 . S
C552 C549 1.431 . S
C552 C562 1.476 . S
H553 C547 0.929 1_556 S
C554 O545 1.250 . S
C554 O546 1.258 . S
O555 Mn540 2.162 . S
O555 C543 1.281 . S
O556 Mn540 2.297 . S
O556 C543 1.236 . S
N557 Mn541 2.282 1_554 S
N557 C558 1.328 . S
N557 C562 1.318 . S
C558 N557 1.328 . S
C558 C559 1.457 . S
C558 H563 0.929 1_554 S
C559 C558 1.457 . S
C559 C560 1.291 . S
C559 H572 0.931 . S
C560 C559 1.291 . S
C560 C561 1.373 . S
C560 H573 0.929 . S
C561 C560 1.373 . S
C561 C562 1.396 . S
C561 C568 1.403 . S
C562 C552 1.476 . S
C562 N557 1.318 . S
C562 C561 1.396 . S
H563 C558 0.929 1_556 S
O564 Mn540 2.385 . S
O564 C542 1.234 . S
O565 Mn540 2.209 . S
O565 Mn541 2.215 . S
O565 C542 1.283 . S
O566 Mn540 2.094 . S
O566 C544 1.240 . S
O567 Mn541 2.117 . S
O567 C544 1.264 . S
C568 C561 1.403 . S
C568 C569 1.399 . S
C568 H574 0.929 . S
C569 C549 1.449 . S
C569 C568 1.399 . S
C569 H575 0.930 . S
H570 C550 0.931 . S
H571 C551 0.930 . S
H572 C559 0.931 . S
H573 C560 0.929 . S
H574 C568 0.929 . S
H575 C569 0.930 . S
H576 C594 0.951 . S
H577 C596 0.951 . S
H578 C598 0.950 . S
H579 C599 0.950 . S
H580 C601 0.950 . S
H581 C604 0.950 . S
H582 C605 0.950 . S
H583 C607 0.950 . S
H584 C608 0.950 . S
H585 C609 0.951 . S
H586 C611 0.951 . S
H587 C613 0.950 . S
H588 C614 0.950 . S
H589 C616 0.950 . S
H590 C619 0.950 . S
H591 C620 0.950 . S
H592 C622 0.950 . S
H593 C623 0.950 . S
C594 H576 0.951 . S
C594 C595 1.366 . S
C594 C596 1.388 . S
C595 C594 1.366 . S
C595 C599 1.385 . S
C596 H577 0.951 . S
C596 C594 1.388 . S
C596 C597 1.366 . S
C597 C596 1.366 . S
C597 C598 1.414 . S
C597 C600 1.499 . S
C598 H578 0.950 . S
C598 C597 1.414 . S
C598 C599 1.374 . S
C599 H579 0.950 . S
C599 C595 1.385 . S
C599 C598 1.374 . S
C600 C597 1.499 . S
C600 C601 1.373 . S
C600 C602 1.389 . S
C601 H580 0.950 . S
C601 C600 1.373 . S
C601 C617 1.377 . S
C602 C600 1.389 . S
C602 C603 1.524 . S
C602 C616 1.377 . S
C603 C602 1.524 . S
C603 C604 1.397 . S
C603 C608 1.363 . S
C604 H581 0.950 . S
C604 C603 1.397 . S
C604 C605 1.334 . S
C605 H582 0.950 . S
C605 C604 1.334 . S
C605 C606 1.287 . S
C606 C605 1.287 . S
C606 C607 1.524 . S
C606 H625 0.913 . S
C607 H583 0.950 . S
C607 C606 1.524 . S
C607 C608 1.415 . S
C608 H584 0.950 . S
C608 C603 1.363 . S
C608 C607 1.415 . S
C609 H585 0.951 . S
C609 C610 1.366 . S
C609 C611 1.388 . S
C610 C609 1.366 . S
C610 C614 1.385 . S
C611 H586 0.951 . S
C611 C609 1.388 . S
C611 C612 1.366 . S
C612 C611 1.366 . S
C612 C613 1.414 . S
C612 C615 1.499 . S
C613 H587 0.950 . S
C613 C612 1.414 . S
C613 C614 1.374 . S
C614 H588 0.950 . S
C614 C610 1.385 . S
C614 C613 1.374 . S
C615 C612 1.499 . S
C615 C616 1.373 . S
C615 C617 1.389 . S
C616 H589 0.950 . S
C616 C602 1.377 . S
C616 C615 1.373 . S
C617 C601 1.377 . S
C617 C615 1.389 . S
C617 C618 1.524 . S
C618 C617 1.524 . S
C618 C619 1.397 . S
C618 C623 1.363 . S
C619 H590 0.950 . S
C619 C618 1.397 . S
C619 C620 1.334 . S
C620 H591 0.950 . S
C620 C619 1.334 . S
C620 C621 1.287 . S
C621 C620 1.287 . S
C621 C622 1.524 . S
C621 H624 0.999 . S
C622 H592 0.950 . S
C622 C621 1.524 . S
C622 C623 1.415 . S
C623 H593 0.950 . S
C623 C618 1.363 . S
C623 C622 1.415 . S
H624 C621 0.999 . S
H625 C606 0.913 . S
H626 C644 0.951 . S
H627 C646 0.951 . S
H628 C648 0.950 . S
H629 C649 0.950 . S
H630 C651 0.950 . S
H631 C654 0.950 . S
H632 C655 0.950 . S
H633 C657 0.950 . S
H634 C658 0.950 . S
H635 C659 0.951 . S
H636 C661 0.951 . S
H637 C663 0.950 . S
H638 C664 0.950 . S
H639 C666 0.950 . S
H640 C669 0.950 . S
H641 C670 0.950 . S
H642 C672 0.950 . S
H643 C673 0.950 . S
C644 H626 0.951 . S
C644 C645 1.366 . S
C644 C646 1.388 . S
C645 C644 1.366 . S
C645 C649 1.385 . S
C646 H627 0.951 . S
C646 C644 1.388 . S
C646 C647 1.366 . S
C647 C646 1.366 . S
C647 C648 1.414 . S
C647 C650 1.499 . S
C648 H628 0.950 . S
C648 C647 1.414 . S
C648 C649 1.374 . S
C649 H629 0.950 . S
C649 C645 1.385 . S
C649 C648 1.374 . S
C650 C647 1.499 . S
C650 C651 1.373 . S
C650 C652 1.389 . S
C651 H630 0.950 . S
C651 C650 1.373 . S
C651 C667 1.377 . S
C652 C650 1.389 . S
C652 C653 1.524 . S
C652 C666 1.377 . S
C653 C652 1.524 . S
C653 C654 1.397 . S
C653 C658 1.363 . S
C654 H631 0.950 . S
C654 C653 1.397 . S
C654 C655 1.334 . S
C655 H632 0.950 . S
C655 C654 1.334 . S
C655 C656 1.287 . S
C656 C655 1.287 . S
C656 C657 1.524 . S
C656 H675 0.913 . S
C657 H633 0.950 . S
C657 C656 1.524 . S
C657 C658 1.415 . S
C658 H634 0.950 . S
C658 C653 1.363 . S
C658 C657 1.415 . S
C659 H635 0.951 . S
C659 C660 1.366 . S
C659 C661 1.388 . S
C660 C659 1.366 . S
C660 C664 1.385 . S
C661 H636 0.951 . S
C661 C659 1.388 . S
C661 C662 1.366 . S
C662 C661 1.366 . S
C662 C663 1.414 . S
C662 C665 1.499 . S
C663 H637 0.950 . S
C663 C662 1.414 . S
C663 C664 1.374 . S
C664 H638 0.950 . S
C664 C660 1.385 . S
C664 C663 1.374 . S
C665 C662 1.499 . S
C665 C666 1.373 . S
C665 C667 1.389 . S
C666 H639 0.950 . S
C666 C652 1.377 . S
C666 C665 1.373 . S
C667 C651 1.377 . S
C667 C665 1.389 . S
C667 C668 1.524 . S
C668 C667 1.524 . S
C668 C669 1.397 . S
C668 C673 1.363 . S
C669 H640 0.950 . S
C669 C668 1.397 . S
C669 C670 1.334 . S
C670 H641 0.950 . S
C670 C669 1.334 . S
C670 C671 1.287 . S
C671 C670 1.287 . S
C671 C672 1.524 . S
C671 H674 0.999 . S
C672 H642 0.950 . S
C672 C671 1.524 . S
C672 C673 1.415 . S
C673 H643 0.950 . S
C673 C668 1.363 . S
C673 C672 1.415 . S
H674 C671 0.999 . S
H675 C656 0.913 . S
H676 C694 0.951 . S
H677 C696 0.951 . S
H678 C698 0.950 . S
H679 C699 0.950 . S
H680 C701 0.950 . S
H681 C704 0.950 . S
H682 C705 0.950 . S
H683 C707 0.950 . S
H684 C708 0.950 . S
H685 C709 0.951 . S
H686 C711 0.951 . S
H687 C713 0.950 . S
H688 C714 0.950 . S
H689 C716 0.950 . S
H690 C719 0.950 . S
H691 C720 0.950 . S
H692 C722 0.950 . S
H693 C723 0.950 . S
C694 H676 0.951 . S
C694 C695 1.366 . S
C694 C696 1.388 . S
C695 C694 1.366 . S
C695 C699 1.385 . S
C696 H677 0.951 . S
C696 C694 1.388 . S
C696 C697 1.366 . S
C697 C696 1.366 . S
C697 C698 1.414 . S
C697 C700 1.499 . S
C698 H678 0.950 . S
C698 C697 1.414 . S
C698 C699 1.374 . S
C699 H679 0.950 . S
C699 C695 1.385 . S
C699 C698 1.374 . S
C700 C697 1.499 . S
C700 C701 1.373 . S
C700 C702 1.389 . S
C701 H680 0.950 . S
C701 C700 1.373 . S
C701 C717 1.377 . S
C702 C700 1.389 . S
C702 C703 1.524 . S
C702 C716 1.377 . S
C703 C702 1.524 . S
C703 C704 1.397 . S
C703 C708 1.363 . S
C704 H681 0.950 . S
C704 C703 1.397 . S
C704 C705 1.334 . S
C705 H682 0.950 . S
C705 C704 1.334 . S
C705 C706 1.287 . S
C706 C705 1.287 . S
C706 C707 1.524 . S
C706 H725 0.913 . S
C707 H683 0.950 . S
C707 C706 1.524 . S
C707 C708 1.415 . S
C708 H684 0.950 . S
C708 C703 1.363 . S
C708 C707 1.415 . S
C709 H685 0.951 . S
C709 C710 1.366 . S
C709 C711 1.388 . S
C710 C709 1.366 . S
C710 C714 1.385 . S
C711 H686 0.951 . S
C711 C709 1.388 . S
C711 C712 1.366 . S
C712 C711 1.366 . S
C712 C713 1.414 . S
C712 C715 1.499 . S
C713 H687 0.950 . S
C713 C712 1.414 . S
C713 C714 1.374 . S
C714 H688 0.950 . S
C714 C710 1.385 . S
C714 C713 1.374 . S
C715 C712 1.499 . S
C715 C716 1.373 . S
C715 C717 1.389 . S
C716 H689 0.950 . S
C716 C702 1.377 . S
C716 C715 1.373 . S
C717 C701 1.377 . S
C717 C715 1.389 . S
C717 C718 1.524 . S
C718 C717 1.524 . S
C718 C719 1.397 . S
C718 C723 1.363 . S
C719 H690 0.950 . S
C719 C718 1.397 . S
C719 C720 1.334 . S
C720 H691 0.950 . S
C720 C719 1.334 . S
C720 C721 1.287 . S
C721 C720 1.287 . S
C721 C722 1.524 . S
C721 H724 0.999 . S
C722 H692 0.950 . S
C722 C721 1.524 . S
C722 C723 1.415 . S
C723 H693 0.950 . S
C723 C718 1.363 . S
C723 C722 1.415 . S
H724 C721 0.999 . S
H725 C706 0.913 . S
H726 C744 0.951 . S
H727 C746 0.951 . S
H728 C748 0.950 . S
H729 C749 0.950 . S
H730 C751 0.950 1_554 S
H731 C754 0.950 . S
H732 C755 0.950 . S
H733 C757 0.950 . S
H734 C758 0.950 . S
H735 C759 0.951 . S
H736 C761 0.951 . S
H737 C763 0.950 . S
H738 C764 0.950 1_455 S
H739 C766 0.950 . S
H740 C769 0.950 . S
H741 C770 0.950 . S
H742 C772 0.950 . S
H743 C773 0.950 . S
C744 H726 0.951 . S
C744 C745 1.366 1_556 S
C744 C746 1.388 . S
C745 C744 1.366 1_554 S
C745 C749 1.385 . S
C746 H727 0.951 . S
C746 C744 1.388 . S
C746 C747 1.366 . S
C747 C746 1.366 . S
C747 C748 1.414 1_556 S
C747 C750 1.499 . S
C748 H728 0.950 . S
C748 C747 1.414 1_554 S
C748 C749 1.374 . S
C749 H729 0.950 . S
C749 C745 1.385 . S
C749 C748 1.374 . S
C750 C747 1.499 . S
C750 C751 1.373 . S
C750 C752 1.389 . S
C751 H730 0.950 1_556 S
C751 C750 1.373 . S
C751 C767 1.377 . S
C752 C750 1.389 . S
C752 C753 1.524 . S
C752 C766 1.377 . S
C753 C752 1.524 . S
C753 C754 1.397 . S
C753 C758 1.363 . S
C754 H731 0.950 . S
C754 C753 1.397 . S
C754 C755 1.334 . S
C755 H732 0.950 . S
C755 C754 1.334 . S
C755 C756 1.287 . S
C756 C755 1.287 . S
C756 C757 1.524 . S
C756 H775 0.913 . S
C757 H733 0.950 . S
C757 C756 1.524 . S
C757 C758 1.415 . S
C758 H734 0.950 . S
C758 C753 1.363 . S
C758 C757 1.415 . S
C759 H735 0.951 . S
C759 C760 1.366 . S
C759 C761 1.388 . S
C760 C759 1.366 . S
C760 C764 1.385 . S
C761 H736 0.951 . S
C761 C759 1.388 . S
C761 C762 1.366 . S
C762 C761 1.366 . S
C762 C763 1.414 . S
C762 C765 1.499 . S
C763 H737 0.950 . S
C763 C762 1.414 . S
C763 C764 1.374 . S
C764 H738 0.950 1_655 S
C764 C760 1.385 . S
C764 C763 1.374 . S
C765 C762 1.499 . S
C765 C766 1.373 . S
C765 C767 1.389 . S
C766 H739 0.950 . S
C766 C752 1.377 . S
C766 C765 1.373 . S
C767 C751 1.377 . S
C767 C765 1.389 . S
C767 C768 1.524 1_556 S
C768 C767 1.524 1_554 S
C768 C769 1.397 1_554 S
C768 C773 1.363 . S
C769 H740 0.950 . S
C769 C768 1.397 1_556 S
C769 C770 1.334 1_656 S
C770 H741 0.950 . S
C770 C769 1.334 1_454 S
C770 C771 1.289 1_455 S
C771 C770 1.289 1_655 S
C771 C772 1.517 . S
C771 H774 1.004 1_655 S
C772 H742 0.950 . S
C772 C771 1.517 . S
C772 C773 1.415 . S
C773 H743 0.950 . S
C773 C768 1.363 . S
C773 C772 1.415 . S
H774 C771 1.004 1_455 S
H775 C756 0.913 . S
H776 C794 0.951 . S
H777 C796 0.951 . S
H778 C798 0.950 . S
H779 C799 0.950 . S
H780 C801 0.950 . S
H781 C804 0.950 . S
H782 C805 0.963 . S
H783 C807 0.950 . S
H784 C808 0.950 . S
H785 C809 0.951 . S
H786 C811 0.951 1_554 S
H787 C813 0.950 . S
H788 C814 0.950 . S
H789 C816 0.950 . S
H790 C819 0.950 . S
H791 C820 0.950 . S
H792 C822 0.950 . S
H793 C823 0.950 . S
C794 H776 0.951 . S
C794 C795 1.366 . S
C794 C796 1.388 . S
C795 C794 1.366 . S
C795 C799 1.385 . S
C796 H777 0.951 . S
C796 C794 1.388 . S
C796 C797 1.366 . S
C797 C796 1.366 . S
C797 C798 1.414 . S
C797 C800 1.499 . S
C798 H778 0.950 . S
C798 C797 1.414 . S
C798 C799 1.374 . S
C799 H779 0.950 . S
C799 C795 1.385 . S
C799 C798 1.374 . S
C800 C797 1.499 . S
C800 C801 1.373 . S
C800 C802 1.389 . S
C801 H780 0.950 . S
C801 C800 1.373 . S
C801 C817 1.377 . S
C802 C800 1.389 . S
C802 C803 1.524 . S
C802 C816 1.377 . S
C803 C802 1.524 . S
C803 C804 1.397 . S
C803 C808 1.363 . S
C804 H781 0.950 . S
C804 C803 1.397 . S
C804 C805 1.327 1_556 S
C805 H782 0.963 . S
C805 C804 1.327 1_554 S
C805 C806 1.282 1_554 S
C806 C805 1.282 1_556 S
C806 C807 1.524 . S
C806 H825 0.911 1_556 S
C807 H783 0.950 . S
C807 C806 1.524 . S
C807 C808 1.415 . S
C808 H784 0.950 . S
C808 C803 1.363 . S
C808 C807 1.415 . S
C809 H785 0.951 . S
C809 C810 1.366 . S
C809 C811 1.388 1_554 S
C810 C809 1.366 . S
C810 C814 1.385 1_554 S
C811 H786 0.951 1_556 S
C811 C809 1.388 1_556 S
C811 C812 1.366 . S
C812 C811 1.366 . S
C812 C813 1.414 . S
C812 C815 1.499 . S
C813 H787 0.950 . S
C813 C812 1.414 . S
C813 C814 1.374 . S
C814 H788 0.950 . S
C814 C810 1.385 1_556 S
C814 C813 1.374 . S
C815 C812 1.499 . S
C815 C816 1.373 . S
C815 C817 1.389 . S
C816 H789 0.950 . S
C816 C802 1.377 . S
C816 C815 1.373 . S
C817 C801 1.377 . S
C817 C815 1.389 . S
C817 C818 1.524 . S
C818 C817 1.524 . S
C818 C819 1.397 . S
C818 C823 1.363 . S
C819 H790 0.950 . S
C819 C818 1.397 . S
C819 C820 1.334 . S
C820 H791 0.950 . S
C820 C819 1.334 . S
C820 C821 1.287 . S
C821 C820 1.287 . S
C821 C822 1.524 . S
C821 H824 0.999 . S
C822 H792 0.950 . S
C822 C821 1.524 . S
C822 C823 1.415 . S
C823 H793 0.950 . S
C823 C818 1.363 . S
C823 C822 1.415 . S
H824 C821 0.999 . S
H825 C806 0.911 1_554 S
H826 C844 0.951 . S
H827 C846 0.951 . S
H828 C848 0.950 . S
H829 C849 0.950 . S
H830 C851 0.950 . S
H831 C854 0.950 . S
H832 C855 0.950 . S
H833 C857 0.950 . S
H834 C858 0.950 . S
H835 C859 0.951 . S
H836 C861 0.951 . S
H837 C863 0.950 . S
H838 C864 0.950 . S
H839 C866 0.950 . S
H840 C869 0.950 . S
H841 C870 0.950 1_556 S
H842 C872 0.950 . S
H843 C873 0.950 . S
C844 H826 0.951 . S
C844 C845 1.366 . S
C844 C846 1.388 . S
C845 C844 1.366 . S
C845 C849 1.385 1_655 S
C846 H827 0.951 . S
C846 C844 1.388 . S
C846 C847 1.366 . S
C847 C846 1.366 . S
C847 C848 1.414 . S
C847 C850 1.499 . S
C848 H828 0.950 . S
C848 C847 1.414 . S
C848 C849 1.374 1_655 S
C849 H829 0.950 . S
C849 C845 1.385 1_455 S
C849 C848 1.374 1_455 S
C850 C847 1.499 . S
C850 C851 1.373 . S
C850 C852 1.389 . S
C851 H830 0.950 . S
C851 C850 1.373 . S
C851 C867 1.377 . S
C852 C850 1.389 . S
C852 C853 1.524 . S
C852 C866 1.377 . S
C853 C852 1.524 . S
C853 C854 1.397 . S
C853 C858 1.363 . S
C854 H831 0.950 . S
C854 C853 1.397 . S
C854 C855 1.334 . S
C855 H832 0.950 . S
C855 C854 1.334 . S
C855 C856 1.287 . S
C856 C855 1.287 . S
C856 C857 1.524 . S
C856 H875 0.913 . S
C857 H833 0.950 . S
C857 C856 1.524 . S
C857 C858 1.415 . S
C858 H834 0.950 . S
C858 C853 1.363 . S
C858 C857 1.415 . S
C859 H835 0.951 . S
C859 C860 1.366 . S
C859 C861 1.388 . S
C860 C859 1.366 . S
C860 C864 1.385 . S
C861 H836 0.951 . S
C861 C859 1.388 . S
C861 C862 1.366 . S
C862 C861 1.366 . S
C862 C863 1.414 . S
C862 C865 1.499 . S
C863 H837 0.950 . S
C863 C862 1.414 . S
C863 C864 1.374 . S
C864 H838 0.950 . S
C864 C860 1.385 . S
C864 C863 1.374 . S
C865 C862 1.499 . S
C865 C866 1.373 . S
C865 C867 1.389 . S
C866 H839 0.950 . S
C866 C852 1.377 . S
C866 C865 1.373 . S
C867 C851 1.377 . S
C867 C865 1.389 . S
C867 C868 1.524 . S
C868 C867 1.524 . S
C868 C869 1.397 . S
C868 C873 1.363 . S
C869 H840 0.950 . S
C869 C868 1.397 . S
C869 C870 1.334 . S
C870 H841 0.950 1_554 S
C870 C869 1.334 . S
C870 C871 1.287 1_554 S
C871 C870 1.287 1_556 S
C871 C872 1.524 1_556 S
C871 H874 0.999 . S
C872 H842 0.950 . S
C872 C871 1.524 1_554 S
C872 C873 1.415 . S
C873 H843 0.950 . S
C873 C868 1.363 . S
C873 C872 1.415 . S
H874 C871 0.999 . S
H875 C856 0.913 . S
H876 C894 0.951 . S
H877 C896 0.951 . S
H878 C898 0.950 . S
H879 C899 0.950 . S
H880 C901 0.950 . S
H881 C904 0.950 . S
H882 C905 0.950 . S
H883 C907 0.950 . S
H884 C908 0.950 . S
H885 C909 0.951 . S
H886 C911 0.951 . S
H887 C913 0.950 . S
H888 C914 0.950 . S
H889 C916 0.950 . S
H890 C919 0.950 . S
H891 C920 0.950 . S
H892 C922 0.950 . S
H893 C923 0.950 . S
C894 H876 0.951 . S
C894 C895 1.366 . S
C894 C896 1.388 . S
C895 C894 1.366 . S
C895 C899 1.385 . S
C896 H877 0.951 . S
C896 C894 1.388 . S
C896 C897 1.366 . S
C897 C896 1.366 . S
C897 C898 1.414 . S
C897 C900 1.499 . S
C898 H878 0.950 . S
C898 C897 1.414 . S
C898 C899 1.374 . S
C899 H879 0.950 . S
C899 C895 1.385 . S
C899 C898 1.374 . S
C900 C897 1.499 . S
C900 C901 1.373 . S
C900 C902 1.389 . S
C901 H880 0.950 . S
C901 C900 1.373 . S
C901 C917 1.377 . S
C902 C900 1.389 . S
C902 C903 1.524 . S
C902 C916 1.377 . S
C903 C902 1.524 . S
C903 C904 1.397 . S
C903 C908 1.363 . S
C904 H881 0.950 . S
C904 C903 1.397 . S
C904 C905 1.334 . S
C905 H882 0.950 . S
C905 C904 1.334 . S
C905 C906 1.287 . S
C906 C905 1.287 . S
C906 C907 1.524 . S
C906 H925 0.913 . S
C907 H883 0.950 . S
C907 C906 1.524 . S
C907 C908 1.415 . S
C908 H884 0.950 . S
C908 C903 1.363 . S
C908 C907 1.415 . S
C909 H885 0.951 . S
C909 C910 1.366 . S
C909 C911 1.388 . S
C910 C909 1.366 . S
C910 C914 1.385 . S
C911 H886 0.951 . S
C911 C909 1.388 . S
C911 C912 1.366 . S
C912 C911 1.366 . S
C912 C913 1.414 . S
C912 C915 1.499 . S
C913 H887 0.950 . S
C913 C912 1.414 . S
C913 C914 1.374 . S
C914 H888 0.950 . S
C914 C910 1.385 . S
C914 C913 1.374 . S
C915 C912 1.499 . S
C915 C916 1.373 . S
C915 C917 1.389 . S
C916 H889 0.950 . S
C916 C902 1.377 . S
C916 C915 1.373 . S
C917 C901 1.377 . S
C917 C915 1.389 . S
C917 C918 1.524 . S
C918 C917 1.524 . S
C918 C919 1.397 . S
C918 C923 1.363 . S
C919 H890 0.950 . S
C919 C918 1.397 . S
C919 C920 1.334 . S
C920 H891 0.950 . S
C920 C919 1.334 . S
C920 C921 1.287 . S
C921 C920 1.287 . S
C921 C922 1.524 . S
C921 H924 0.999 . S
C922 H892 0.950 . S
C922 C921 1.524 . S
C922 C923 1.415 . S
C923 H893 0.950 . S
C923 C918 1.363 . S
C923 C922 1.415 . S
H924 C921 0.999 . S
H925 C906 0.913 . S
H926 C944 0.951 . S
H927 C946 0.951 . S
H928 C948 0.950 . S
H929 C949 0.950 . S
H930 C951 0.950 . S
H931 C954 0.950 . S
H932 C955 0.950 . S
H933 C957 0.950 . S
H934 C958 0.950 . S
H935 C959 0.951 . S
H936 C961 0.951 . S
H937 C963 0.950 . S
H938 C964 0.950 . S
H939 C966 0.950 . S
H940 C969 0.950 . S
H941 C970 0.950 . S
H942 C972 0.950 . S
H943 C973 0.950 . S
C944 H926 0.951 . S
C944 C945 1.366 . S
C944 C946 1.388 . S
C945 C944 1.366 . S
C945 C949 1.385 . S
C946 H927 0.951 . S
C946 C944 1.388 . S
C946 C947 1.366 . S
C947 C946 1.366 . S
C947 C948 1.414 . S
C947 C950 1.499 . S
C948 H928 0.950 . S
C948 C947 1.414 . S
C948 C949 1.374 . S
C949 H929 0.950 . S
C949 C945 1.385 . S
C949 C948 1.374 . S
C950 C947 1.499 . S
C950 C951 1.373 . S
C950 C952 1.389 . S
C951 H930 0.950 . S
C951 C950 1.373 . S
C951 C967 1.377 . S
C952 C950 1.389 . S
C952 C953 1.524 . S
C952 C966 1.377 . S
C953 C952 1.524 . S
C953 C954 1.397 . S
C953 C958 1.363 . S
C954 H931 0.950 . S
C954 C953 1.397 . S
C954 C955 1.334 . S
C955 H932 0.950 . S
C955 C954 1.334 . S
C955 C956 1.287 . S
C956 C955 1.287 . S
C956 C957 1.524 . S
C956 H975 0.913 . S
C957 H933 0.950 . S
C957 C956 1.524 . S
C957 C958 1.415 . S
C958 H934 0.950 . S
C958 C953 1.363 . S
C958 C957 1.415 . S
C959 H935 0.951 . S
C959 C960 1.366 . S
C959 C961 1.388 . S
C960 C959 1.366 . S
C960 C964 1.385 . S
C961 H936 0.951 . S
C961 C959 1.388 . S
C961 C962 1.366 . S
C962 C961 1.366 . S
C962 C963 1.414 . S
C962 C965 1.499 . S
C963 H937 0.950 . S
C963 C962 1.414 . S
C963 C964 1.374 . S
C964 H938 0.950 . S
C964 C960 1.385 . S
C964 C963 1.374 . S
C965 C962 1.499 . S
C965 C966 1.373 . S
C965 C967 1.389 . S
C966 H939 0.950 . S
C966 C952 1.377 . S
C966 C965 1.373 . S
C967 C951 1.377 . S
C967 C965 1.389 . S
C967 C968 1.524 . S
C968 C967 1.524 . S
C968 C969 1.397 . S
C968 C973 1.363 . S
C969 H940 0.950 . S
C969 C968 1.397 . S
C969 C970 1.334 . S
C970 H941 0.950 . S
C970 C969 1.334 . S
C970 C971 1.287 . S
C971 C970 1.287 . S
C971 C972 1.524 . S
C971 H974 0.999 . S
C972 H942 0.950 . S
C972 C971 1.524 . S
C972 C973 1.415 . S
C973 H943 0.950 . S
C973 C968 1.363 . S
C973 C972 1.415 . S
H974 C971 0.999 . S
H975 C956 0.913 . S
H976 C994 0.951 . S
H977 C996 0.951 . S
H978 C998 0.950 . S
H979 C999 0.950 . S
H980 C1001 0.950 . S
H981 C1004 0.950 . S
H982 C1005 0.950 . S
H983 C1007 0.950 . S
H984 C1008 0.950 . S
H985 C1009 0.951 . S
H986 C1011 0.951 1_554 S
H987 C1013 0.950 . S
H988 C1014 0.950 . S
H989 C1016 0.950 . S
H990 C1019 0.950 . S
H991 C1020 0.950 . S
H992 C1022 0.950 . S
H993 C1023 0.950 . S
C994 H976 0.951 . S
C994 C995 1.366 1_655 S
C994 C996 1.388 . S
C995 C994 1.366 1_455 S
C995 C999 1.385 . S
C996 H977 0.951 . S
C996 C994 1.388 . S
C996 C997 1.366 . S
C997 C996 1.366 . S
C997 C998 1.414 . S
C997 C1000 1.499 . S
C998 H978 0.950 . S
C998 C997 1.414 . S
C998 C999 1.374 1_655 S
C999 H979 0.950 . S
C999 C995 1.385 . S
C999 C998 1.374 1_455 S
C1000 C997 1.499 . S
C1000 C1001 1.373 . S
C1000 C1002 1.389 . S
C1001 H980 0.950 . S
C1001 C1000 1.373 . S
C1001 C1017 1.377 . S
C1002 C1000 1.389 . S
C1002 C1003 1.524 . S
C1002 C1016 1.377 . S
C1003 C1002 1.524 . S
C1003 C1004 1.397 . S
C1003 C1008 1.363 . S
C1004 H981 0.950 . S
C1004 C1003 1.397 . S
C1004 C1005 1.334 . S
C1005 H982 0.950 . S
C1005 C1004 1.334 . S
C1005 C1006 1.287 . S
C1006 C1005 1.287 . S
C1006 C1007 1.524 . S
C1006 H1025 0.913 . S
C1007 H983 0.950 . S
C1007 C1006 1.524 . S
C1007 C1008 1.415 . S
C1008 H984 0.950 . S
C1008 C1003 1.363 . S
C1008 C1007 1.415 . S
C1009 H985 0.951 . S
C1009 C1010 1.366 1_554 S
C1009 C1011 1.388 1_554 S
C1010 C1009 1.366 1_556 S
C1010 C1014 1.385 . S
C1011 H986 0.951 1_556 S
C1011 C1009 1.388 1_556 S
C1011 C1012 1.366 . S
C1012 C1011 1.366 . S
C1012 C1013 1.414 . S
C1012 C1015 1.499 . S
C1013 H987 0.950 . S
C1013 C1012 1.414 . S
C1013 C1014 1.374 . S
C1014 H988 0.950 . S
C1014 C1010 1.385 . S
C1014 C1013 1.374 . S
C1015 C1012 1.499 . S
C1015 C1016 1.373 . S
C1015 C1017 1.389 . S
C1016 H989 0.950 . S
C1016 C1002 1.377 . S
C1016 C1015 1.373 . S
C1017 C1001 1.377 . S
C1017 C1015 1.389 . S
C1017 C1018 1.524 . S
C1018 C1017 1.524 . S
C1018 C1019 1.397 . S
C1018 C1023 1.363 . S
C1019 H990 0.950 . S
C1019 C1018 1.397 . S
C1019 C1020 1.334 . S
C1020 H991 0.950 . S
C1020 C1019 1.334 . S
C1020 C1021 1.287 . S
C1021 C1020 1.287 . S
C1021 C1022 1.524 . S
C1021 H1024 0.999 . S
C1022 H992 0.950 . S
C1022 C1021 1.524 . S
C1022 C1023 1.415 . S
C1023 H993 0.950 . S
C1023 C1018 1.363 . S
C1023 C1022 1.415 . S
H1024 C1021 0.999 . S
H1025 C1006 0.913 . S
H1026 C1044 0.951 . S
H1027 C1046 0.951 . S
H1028 C1048 0.950 . S
H1029 C1049 0.950 . S
H1030 C1051 0.950 . S
H1031 C1054 0.950 . S
H1032 C1055 0.950 . S
H1033 C1057 0.950 . S
H1034 C1058 0.950 . S
H1035 C1059 0.951 . S
H1036 C1061 0.951 . S
H1037 C1063 0.950 . S
H1038 C1064 0.950 . S
H1039 C1066 0.950 . S
H1040 C1069 0.950 . S
H1041 C1070 0.950 . S
H1042 C1072 0.950 . S
H1043 C1073 0.950 . S
C1044 H1026 0.951 . S
C1044 C1045 1.366 . S
C1044 C1046 1.388 . S
C1045 C1044 1.366 . S
C1045 C1049 1.385 . S
C1046 H1027 0.951 . S
C1046 C1044 1.388 . S
C1046 C1047 1.366 . S
C1047 C1046 1.366 . S
C1047 C1048 1.414 . S
C1047 C1050 1.499 . S
C1048 H1028 0.950 . S
C1048 C1047 1.414 . S
C1048 C1049 1.374 . S
C1049 H1029 0.950 . S
C1049 C1045 1.385 . S
C1049 C1048 1.374 . S
C1050 C1047 1.499 . S
C1050 C1051 1.373 . S
C1050 C1052 1.389 . S
C1051 H1030 0.950 . S
C1051 C1050 1.373 . S
C1051 C1067 1.377 . S
C1052 C1050 1.389 . S
C1052 C1053 1.524 . S
C1052 C1066 1.377 . S
C1053 C1052 1.524 . S
C1053 C1054 1.397 . S
C1053 C1058 1.363 . S
C1054 H1031 0.950 . S
C1054 C1053 1.397 . S
C1054 C1055 1.334 . S
C1055 H1032 0.950 . S
C1055 C1054 1.334 . S
C1055 C1056 1.287 . S
C1056 C1055 1.287 . S
C1056 C1057 1.524 . S
C1056 H1075 0.913 . S
C1057 H1033 0.950 . S
C1057 C1056 1.524 . S
C1057 C1058 1.415 . S
C1058 H1034 0.950 . S
C1058 C1053 1.363 . S
C1058 C1057 1.415 . S
C1059 H1035 0.951 . S
C1059 C1060 1.366 . S
C1059 C1061 1.388 . S
C1060 C1059 1.366 . S
C1060 C1064 1.385 . S
C1061 H1036 0.951 . S
C1061 C1059 1.388 . S
C1061 C1062 1.366 . S
C1062 C1061 1.366 . S
C1062 C1063 1.414 . S
C1062 C1065 1.499 . S
C1063 H1037 0.950 . S
C1063 C1062 1.414 . S
C1063 C1064 1.374 . S
C1064 H1038 0.950 . S
C1064 C1060 1.385 . S
C1064 C1063 1.374 . S
C1065 C1062 1.499 . S
C1065 C1066 1.373 . S
C1065 C1067 1.389 . S
C1066 H1039 0.950 . S
C1066 C1052 1.377 . S
C1066 C1065 1.373 . S
C1067 C1051 1.377 . S
C1067 C1065 1.389 . S
C1067 C1068 1.524 . S
C1068 C1067 1.524 . S
C1068 C1069 1.397 . S
C1068 C1073 1.363 . S
C1069 H1040 0.950 . S
C1069 C1068 1.397 . S
C1069 C1070 1.334 . S
C1070 H1041 0.950 . S
C1070 C1069 1.334 . S
C1070 C1071 1.287 . S
C1071 C1070 1.287 . S
C1071 C1072 1.524 . S
C1071 H1074 0.999 . S
C1072 H1042 0.950 . S
C1072 C1071 1.524 . S
C1072 C1073 1.415 . S
C1073 H1043 0.950 . S
C1073 C1068 1.363 . S
C1073 C1072 1.415 . S
H1074 C1071 0.999 . S
H1075 C1056 0.913 . S
H1076 C1094 0.951 . S
H1077 C1096 0.951 . S
H1078 C1098 0.950 . S
H1079 C1099 0.950 . S
H1080 C1101 0.950 . S
H1081 C1104 0.950 . S
H1082 C1105 0.950 . S
H1083 C1107 0.950 . S
H1084 C1108 0.950 . S
H1085 C1109 0.951 . S
H1086 C1111 0.951 . S
H1087 C1113 0.950 . S
H1088 C1114 0.950 . S
H1089 C1116 0.950 . S
H1090 C1119 0.950 . S
H1091 C1120 0.950 . S
H1092 C1122 0.950 . S
H1093 C1123 0.950 . S
C1094 H1076 0.951 . S
C1094 C1095 1.366 . S
C1094 C1096 1.388 . S
C1095 C1094 1.366 . S
C1095 C1099 1.385 . S
C1096 H1077 0.951 . S
C1096 C1094 1.388 . S
C1096 C1097 1.366 . S
C1097 C1096 1.366 . S
C1097 C1098 1.414 . S
C1097 C1100 1.499 . S
C1098 H1078 0.950 . S
C1098 C1097 1.414 . S
C1098 C1099 1.374 . S
C1099 H1079 0.950 . S
C1099 C1095 1.385 . S
C1099 C1098 1.374 . S
C1100 C1097 1.499 . S
C1100 C1101 1.373 . S
C1100 C1102 1.389 . S
C1101 H1080 0.950 . S
C1101 C1100 1.373 . S
C1101 C1117 1.377 . S
C1102 C1100 1.389 . S
C1102 C1103 1.524 . S
C1102 C1116 1.377 . S
C1103 C1102 1.524 . S
C1103 C1104 1.397 . S
C1103 C1108 1.363 . S
C1104 H1081 0.950 . S
C1104 C1103 1.397 . S
C1104 C1105 1.334 . S
C1105 H1082 0.950 . S
C1105 C1104 1.334 . S
C1105 C1106 1.287 . S
C1106 C1105 1.287 . S
C1106 C1107 1.524 . S
C1106 H1125 0.913 . S
C1107 H1083 0.950 . S
C1107 C1106 1.524 . S
C1107 C1108 1.415 . S
C1108 H1084 0.950 . S
C1108 C1103 1.363 . S
C1108 C1107 1.415 . S
C1109 H1085 0.951 . S
C1109 C1110 1.366 . S
C1109 C1111 1.388 . S
C1110 C1109 1.366 . S
C1110 C1114 1.385 . S
C1111 H1086 0.951 . S
C1111 C1109 1.388 . S
C1111 C1112 1.366 . S
C1112 C1111 1.366 . S
C1112 C1113 1.414 . S
C1112 C1115 1.499 . S
C1113 H1087 0.950 . S
C1113 C1112 1.414 . S
C1113 C1114 1.374 . S
C1114 H1088 0.950 . S
C1114 C1110 1.385 . S
C1114 C1113 1.374 . S
C1115 C1112 1.499 . S
C1115 C1116 1.373 . S
C1115 C1117 1.389 . S
C1116 H1089 0.950 . S
C1116 C1102 1.377 . S
C1116 C1115 1.373 . S
C1117 C1101 1.377 . S
C1117 C1115 1.389 . S
C1117 C1118 1.524 . S
C1118 C1117 1.524 . S
C1118 C1119 1.397 . S
C1118 C1123 1.363 . S
C1119 H1090 0.950 . S
C1119 C1118 1.397 . S
C1119 C1120 1.334 . S
C1120 H1091 0.950 . S
C1120 C1119 1.334 . S
C1120 C1121 1.287 . S
C1121 C1120 1.287 . S
C1121 C1122 1.524 . S
C1121 H1124 0.999 . S
C1122 H1092 0.950 . S
C1122 C1121 1.524 . S
C1122 C1123 1.415 . S
C1123 H1093 0.950 . S
C1123 C1118 1.363 . S
C1123 C1122 1.415 . S
H1124 C1121 0.999 . S
H1125 C1106 0.913 . S
H1126 C1144 0.951 . S
H1127 C1146 0.951 . S
H1128 C1148 0.950 . S
H1129 C1149 0.950 . S
H1130 C1151 0.950 . S
H1131 C1154 0.950 . S
H1132 C1155 0.950 . S
H1133 C1157 0.950 . S
H1134 C1158 0.950 . S
H1135 C1159 0.951 . S
H1136 C1161 0.951 . S
H1137 C1163 0.950 . S
H1138 C1164 0.950 . S
H1139 C1166 0.950 . S
H1140 C1169 0.950 . S
H1141 C1170 0.950 . S
H1142 C1172 0.950 1_556 S
H1143 C1173 0.950 . S
C1144 H1126 0.951 . S
C1144 C1145 1.366 . S
C1144 C1146 1.388 . S
C1145 C1144 1.366 . S
C1145 C1149 1.385 . S
C1146 H1127 0.951 . S
C1146 C1144 1.388 . S
C1146 C1147 1.366 . S
C1147 C1146 1.366 . S
C1147 C1148 1.414 . S
C1147 C1150 1.499 . S
C1148 H1128 0.950 . S
C1148 C1147 1.414 . S
C1148 C1149 1.374 . S
C1149 H1129 0.950 . S
C1149 C1145 1.385 . S
C1149 C1148 1.374 . S
C1150 C1147 1.499 . S
C1150 C1151 1.373 . S
C1150 C1152 1.389 . S
C1151 H1130 0.950 . S
C1151 C1150 1.373 . S
C1151 C1167 1.377 . S
C1152 C1150 1.389 . S
C1152 C1153 1.524 . S
C1152 C1166 1.377 . S
C1153 C1152 1.524 . S
C1153 C1154 1.397 . S
C1153 C1158 1.363 . S
C1154 H1131 0.950 . S
C1154 C1153 1.397 . S
C1154 C1155 1.334 . S
C1155 H1132 0.950 . S
C1155 C1154 1.334 . S
C1155 C1156 1.287 . S
C1156 C1155 1.287 . S
C1156 C1157 1.524 . S
C1156 H1175 0.913 . S
C1157 H1133 0.950 . S
C1157 C1156 1.524 . S
C1157 C1158 1.415 . S
C1158 H1134 0.950 . S
C1158 C1153 1.363 . S
C1158 C1157 1.415 . S
C1159 H1135 0.951 . S
C1159 C1160 1.366 . S
C1159 C1161 1.388 . S
C1160 C1159 1.366 . S
C1160 C1164 1.385 . S
C1161 H1136 0.951 . S
C1161 C1159 1.388 . S
C1161 C1162 1.366 . S
C1162 C1161 1.366 . S
C1162 C1163 1.414 . S
C1162 C1165 1.499 . S
C1163 H1137 0.950 . S
C1163 C1162 1.414 . S
C1163 C1164 1.374 . S
C1164 H1138 0.950 . S
C1164 C1160 1.385 . S
C1164 C1163 1.374 . S
C1165 C1162 1.499 . S
C1165 C1166 1.373 . S
C1165 C1167 1.389 . S
C1166 H1139 0.950 . S
C1166 C1152 1.377 . S
C1166 C1165 1.373 . S
C1167 C1151 1.377 . S
C1167 C1165 1.389 . S
C1167 C1168 1.524 . S
C1168 C1167 1.524 . S
C1168 C1169 1.397 . S
C1168 C1173 1.363 . S
C1169 H1140 0.950 . S
C1169 C1168 1.397 . S
C1169 C1170 1.334 . S
C1170 H1141 0.950 . S
C1170 C1169 1.334 . S
C1170 C1171 1.287 . S
C1171 C1170 1.287 . S
C1171 C1172 1.524 . S
C1171 H1174 0.999 . S
C1172 H1142 0.950 1_554 S
C1172 C1171 1.524 . S
C1172 C1173 1.415 . S
C1173 H1143 0.950 . S
C1173 C1168 1.363 . S
C1173 C1172 1.415 . S
H1174 C1171 0.999 . S
H1175 C1156 0.913 . S
H1176 C1194 0.951 . S
H1177 C1196 0.951 . S
H1178 C1198 0.950 . S
H1179 C1199 0.950 . S
H1180 C1201 0.950 . S
H1181 C1204 0.950 . S
H1182 C1205 0.950 . S
H1183 C1207 0.950 1_455 S
H1184 C1208 0.950 . S
H1185 C1209 0.951 . S
H1186 C1211 0.951 . S
H1187 C1213 0.950 . S
H1188 C1214 0.950 . S
H1189 C1216 0.950 . S
H1190 C1219 0.950 . S
H1191 C1220 0.950 . S
H1192 C1222 0.950 . S
H1193 C1223 0.950 . S
C1194 H1176 0.951 . S
C1194 C1195 1.366 . S
C1194 C1196 1.388 1_455 S
C1195 C1194 1.366 . S
C1195 C1199 1.385 1_455 S
C1196 H1177 0.951 . S
C1196 C1194 1.388 1_655 S
C1196 C1197 1.366 . S
C1197 C1196 1.366 . S
C1197 C1198 1.414 . S
C1197 C1200 1.499 . S
C1198 H1178 0.950 . S
C1198 C1197 1.414 . S
C1198 C1199 1.374 . S
C1199 H1179 0.950 . S
C1199 C1195 1.385 1_655 S
C1199 C1198 1.374 . S
C1200 C1197 1.499 . S
C1200 C1201 1.373 . S
C1200 C1202 1.389 . S
C1201 H1180 0.950 . S
C1201 C1200 1.373 . S
C1201 C1217 1.377 . S
C1202 C1200 1.389 . S
C1202 C1203 1.524 . S
C1202 C1216 1.377 . S
C1203 C1202 1.524 . S
C1203 C1204 1.397 . S
C1203 C1208 1.363 . S
C1204 H1181 0.950 . S
C1204 C1203 1.397 . S
C1204 C1205 1.334 . S
C1205 H1182 0.950 . S
C1205 C1204 1.334 . S
C1205 C1206 1.287 . S
C1206 C1205 1.287 . S
C1206 C1207 1.524 . S
C1206 H1225 0.913 1_655 S
C1207 H1183 0.950 1_655 S
C1207 C1206 1.524 . S
C1207 C1208 1.415 . S
C1208 H1184 0.950 . S
C1208 C1203 1.363 . S
C1208 C1207 1.415 . S
C1209 H1185 0.951 . S
C1209 C1210 1.366 . S
C1209 C1211 1.388 . S
C1210 C1209 1.366 . S
C1210 C1214 1.385 . S
C1211 H1186 0.951 . S
C1211 C1209 1.388 . S
C1211 C1212 1.366 . S
C1212 C1211 1.366 . S
C1212 C1213 1.414 . S
C1212 C1215 1.499 . S
C1213 H1187 0.950 . S
C1213 C1212 1.414 . S
C1213 C1214 1.374 . S
C1214 H1188 0.950 . S
C1214 C1210 1.385 . S
C1214 C1213 1.374 . S
C1215 C1212 1.499 . S
C1215 C1216 1.373 . S
C1215 C1217 1.389 . S
C1216 H1189 0.950 . S
C1216 C1202 1.377 . S
C1216 C1215 1.373 . S
C1217 C1201 1.377 . S
C1217 C1215 1.389 . S
C1217 C1218 1.524 . S
C1218 C1217 1.524 . S
C1218 C1219 1.397 . S
C1218 C1223 1.363 . S
C1219 H1190 0.950 . S
C1219 C1218 1.397 . S
C1219 C1220 1.334 . S
C1220 H1191 0.950 . S
C1220 C1219 1.334 . S
C1220 C1221 1.287 . S
C1221 C1220 1.287 . S
C1221 C1222 1.524 . S
C1221 H1224 0.999 . S
C1222 H1192 0.950 . S
C1222 C1221 1.524 . S
C1222 C1223 1.415 . S
C1223 H1193 0.950 . S
C1223 C1218 1.363 . S
C1223 C1222 1.415 . S
H1224 C1221 0.999 . S
H1225 C1206 0.913 1_455 S
H1226 C1244 0.951 . S
H1227 C1246 0.951 . S
H1228 C1248 0.950 . S
H1229 C1249 0.950 . S
H1230 C1251 0.950 . S
H1231 C1254 0.950 . S
H1232 C1255 0.950 . S
H1233 C1257 0.950 . S
H1234 C1258 0.950 . S
H1235 C1259 0.951 . S
H1236 C1261 0.951 . S
H1237 C1263 0.950 . S
H1238 C1264 0.950 . S
H1239 C1266 0.950 1_554 S
H1240 C1269 0.950 . S
H1241 C1270 0.950 . S
H1242 C1272 0.950 . S
H1243 C1273 0.950 . S
C1244 H1226 0.951 . S
C1244 C1245 1.366 . S
C1244 C1246 1.388 . S
C1245 C1244 1.366 . S
C1245 C1249 1.385 . S
C1246 H1227 0.951 . S
C1246 C1244 1.388 . S
C1246 C1247 1.366 . S
C1247 C1246 1.366 . S
C1247 C1248 1.414 . S
C1247 C1250 1.499 . S
C1248 H1228 0.950 . S
C1248 C1247 1.414 . S
C1248 C1249 1.374 . S
C1249 H1229 0.950 . S
C1249 C1245 1.385 . S
C1249 C1248 1.374 . S
C1250 C1247 1.499 . S
C1250 C1251 1.373 . S
C1250 C1252 1.389 . S
C1251 H1230 0.950 . S
C1251 C1250 1.373 . S
C1251 C1267 1.377 . S
C1252 C1250 1.389 . S
C1252 C1253 1.524 1_556 S
C1252 C1266 1.377 . S
C1253 C1252 1.524 1_554 S
C1253 C1254 1.397 . S
C1253 C1258 1.363 . S
C1254 H1231 0.950 . S
C1254 C1253 1.397 . S
C1254 C1255 1.334 . S
C1255 H1232 0.950 . S
C1255 C1254 1.334 . S
C1255 C1256 1.287 . S
C1256 C1255 1.287 . S
C1256 C1257 1.524 . S
C1256 H1275 0.913 . S
C1257 H1233 0.950 . S
C1257 C1256 1.524 . S
C1257 C1258 1.415 . S
C1258 H1234 0.950 . S
C1258 C1253 1.363 . S
C1258 C1257 1.415 . S
C1259 H1235 0.951 . S
C1259 C1260 1.366 . S
C1259 C1261 1.388 . S
C1260 C1259 1.366 . S
C1260 C1264 1.385 . S
C1261 H1236 0.951 . S
C1261 C1259 1.388 . S
C1261 C1262 1.366 . S
C1262 C1261 1.366 . S
C1262 C1263 1.414 . S
C1262 C1265 1.499 . S
C1263 H1237 0.950 . S
C1263 C1262 1.414 . S
C1263 C1264 1.374 . S
C1264 H1238 0.950 . S
C1264 C1260 1.385 . S
C1264 C1263 1.374 . S
C1265 C1262 1.499 . S
C1265 C1266 1.373 . S
C1265 C1267 1.389 . S
C1266 H1239 0.950 1_556 S
C1266 C1252 1.377 . S
C1266 C1265 1.373 . S
C1267 C1251 1.377 . S
C1267 C1265 1.389 . S
C1267 C1268 1.524 . S
C1268 C1267 1.524 . S
C1268 C1269 1.397 . S
C1268 C1273 1.363 . S
C1269 H1240 0.950 . S
C1269 C1268 1.397 . S
C1269 C1270 1.334 . S
C1270 H1241 0.950 . S
C1270 C1269 1.334 . S
C1270 C1271 1.287 . S
C1271 C1270 1.287 . S
C1271 C1272 1.524 . S
C1271 H1274 0.999 . S
C1272 H1242 0.950 . S
C1272 C1271 1.524 . S
C1272 C1273 1.415 . S
C1273 H1243 0.950 . S
C1273 C1268 1.363 . S
C1273 C1272 1.415 . S
H1274 C1271 0.999 . S
H1275 C1256 0.913 . S
H1276 C1294 0.951 . S
H1277 C1296 0.951 . S
H1278 C1298 0.950 . S
H1279 C1299 0.950 . S
H1280 C1301 0.950 . S
H1281 C1304 0.950 . S
H1282 C1305 0.950 . S
H1283 C1307 0.950 . S
H1284 C1308 0.950 . S
H1285 C1309 0.951 . S
H1286 C1311 0.951 . S
H1287 C1313 0.950 . S
H1288 C1314 0.950 . S
H1289 C1316 0.950 . S
H1290 C1319 0.950 . S
H1291 C1320 0.950 . S
H1292 C1322 0.950 . S
H1293 C1323 0.950 . S
C1294 H1276 0.951 . S
C1294 C1295 1.366 . S
C1294 C1296 1.388 . S
C1295 C1294 1.366 . S
C1295 C1299 1.385 . S
C1296 H1277 0.951 . S
C1296 C1294 1.388 . S
C1296 C1297 1.366 . S
C1297 C1296 1.366 . S
C1297 C1298 1.414 . S
C1297 C1300 1.499 . S
C1298 H1278 0.950 . S
C1298 C1297 1.414 . S
C1298 C1299 1.374 . S
C1299 H1279 0.950 . S
C1299 C1295 1.385 . S
C1299 C1298 1.374 . S
C1300 C1297 1.499 . S
C1300 C1301 1.373 . S
C1300 C1302 1.389 . S
C1301 H1280 0.950 . S
C1301 C1300 1.373 . S
C1301 C1317 1.377 . S
C1302 C1300 1.389 . S
C1302 C1303 1.524 . S
C1302 C1316 1.377 . S
C1303 C1302 1.524 . S
C1303 C1304 1.397 . S
C1303 C1308 1.363 . S
C1304 H1281 0.950 . S
C1304 C1303 1.397 . S
C1304 C1305 1.334 . S
C1305 H1282 0.950 . S
C1305 C1304 1.334 . S
C1305 C1306 1.287 . S
C1306 C1305 1.287 . S
C1306 C1307 1.524 . S
C1306 H1325 0.913 . S
C1307 H1283 0.950 . S
C1307 C1306 1.524 . S
C1307 C1308 1.415 . S
C1308 H1284 0.950 . S
C1308 C1303 1.363 . S
C1308 C1307 1.415 . S
C1309 H1285 0.951 . S
C1309 C1310 1.366 . S
C1309 C1311 1.388 . S
C1310 C1309 1.366 . S
C1310 C1314 1.385 . S
C1311 H1286 0.951 . S
C1311 C1309 1.388 . S
C1311 C1312 1.366 . S
C1312 C1311 1.366 . S
C1312 C1313 1.414 . S
C1312 C1315 1.499 . S
C1313 H1287 0.950 . S
C1313 C1312 1.414 . S
C1313 C1314 1.374 . S
C1314 H1288 0.950 . S
C1314 C1310 1.385 . S
C1314 C1313 1.374 . S
C1315 C1312 1.499 . S
C1315 C1316 1.373 . S
C1315 C1317 1.389 . S
C1316 H1289 0.950 . S
C1316 C1302 1.377 . S
C1316 C1315 1.373 . S
C1317 C1301 1.377 . S
C1317 C1315 1.389 . S
C1317 C1318 1.524 . S
C1318 C1317 1.524 . S
C1318 C1319 1.397 . S
C1318 C1323 1.363 . S
C1319 H1290 0.950 . S
C1319 C1318 1.397 . S
C1319 C1320 1.334 . S
C1320 H1291 0.950 . S
C1320 C1319 1.334 . S
C1320 C1321 1.287 . S
C1321 C1320 1.287 . S
C1321 C1322 1.524 . S
C1321 H1324 0.999 . S
C1322 H1292 0.950 . S
C1322 C1321 1.524 . S
C1322 C1323 1.415 . S
C1323 H1293 0.950 . S
C1323 C1318 1.363 . S
C1323 C1322 1.415 . S
H1324 C1321 0.999 . S
H1325 C1306 0.913 . S
H1326 C1344 0.951 . S
H1327 C1346 0.951 . S
H1328 C1348 0.950 . S
H1329 C1349 0.950 . S
H1330 C1351 0.950 . S
H1331 C1354 0.950 . S
H1332 C1355 0.950 . S
H1333 C1357 0.950 . S
H1334 C1358 0.950 . S
H1335 C1359 0.951 . S
H1336 C1361 0.951 . S
H1337 C1363 0.950 . S
H1338 C1364 0.950 . S
H1339 C1366 0.950 . S
H1340 C1369 0.950 . S
H1341 C1370 0.950 . S
H1342 C1372 0.950 . S
H1343 C1373 0.950 . S
C1344 H1326 0.951 . S
C1344 C1345 1.366 . S
C1344 C1346 1.388 . S
C1345 C1344 1.366 . S
C1345 C1349 1.385 . S
C1346 H1327 0.951 . S
C1346 C1344 1.388 . S
C1346 C1347 1.366 . S
C1347 C1346 1.366 . S
C1347 C1348 1.414 . S
C1347 C1350 1.499 . S
C1348 H1328 0.950 . S
C1348 C1347 1.414 . S
C1348 C1349 1.374 . S
C1349 H1329 0.950 . S
C1349 C1345 1.385 . S
C1349 C1348 1.374 . S
C1350 C1347 1.499 . S
C1350 C1351 1.373 . S
C1350 C1352 1.389 . S
C1351 H1330 0.950 . S
C1351 C1350 1.373 . S
C1351 C1367 1.377 . S
C1352 C1350 1.389 . S
C1352 C1353 1.524 . S
C1352 C1366 1.377 . S
C1353 C1352 1.524 . S
C1353 C1354 1.397 . S
C1353 C1358 1.363 . S
C1354 H1331 0.950 . S
C1354 C1353 1.397 . S
C1354 C1355 1.334 . S
C1355 H1332 0.950 . S
C1355 C1354 1.334 . S
C1355 C1356 1.287 . S
C1356 C1355 1.287 . S
C1356 C1357 1.524 . S
C1356 H1375 0.913 . S
C1357 H1333 0.950 . S
C1357 C1356 1.524 . S
C1357 C1358 1.415 . S
C1358 H1334 0.950 . S
C1358 C1353 1.363 . S
C1358 C1357 1.415 . S
C1359 H1335 0.951 . S
C1359 C1360 1.366 . S
C1359 C1361 1.388 . S
C1360 C1359 1.366 . S
C1360 C1364 1.385 . S
C1361 H1336 0.951 . S
C1361 C1359 1.388 . S
C1361 C1362 1.366 . S
C1362 C1361 1.366 . S
C1362 C1363 1.414 . S
C1362 C1365 1.499 . S
C1363 H1337 0.950 . S
C1363 C1362 1.414 . S
C1363 C1364 1.374 . S
C1364 H1338 0.950 . S
C1364 C1360 1.385 . S
C1364 C1363 1.374 . S
C1365 C1362 1.499 . S
C1365 C1366 1.373 . S
C1365 C1367 1.389 . S
C1366 H1339 0.950 . S
C1366 C1352 1.377 . S
C1366 C1365 1.373 . S
C1367 C1351 1.377 . S
C1367 C1365 1.389 . S
C1367 C1368 1.524 . S
C1368 C1367 1.524 . S
C1368 C1369 1.397 . S
C1368 C1373 1.363 . S
C1369 H1340 0.950 . S
C1369 C1368 1.397 . S
C1369 C1370 1.334 . S
C1370 H1341 0.950 . S
C1370 C1369 1.334 . S
C1370 C1371 1.287 . S
C1371 C1370 1.287 . S
C1371 C1372 1.524 . S
C1371 H1374 0.999 . S
C1372 H1342 0.950 . S
C1372 C1371 1.524 . S
C1372 C1373 1.415 . S
C1373 H1343 0.950 . S
C1373 C1368 1.363 . S
C1373 C1372 1.415 . S
H1374 C1371 0.999 . S
H1375 C1356 0.913 . S
H1376 C1394 0.951 . S
H1377 C1396 0.951 . S
H1378 C1398 0.950 . S
H1379 C1399 0.950 . S
H1380 C1401 0.950 . S
H1381 C1404 0.950 . S
H1382 C1405 0.950 . S
H1383 C1407 0.950 . S
H1384 C1408 0.950 . S
H1385 C1409 0.951 . S
H1386 C1411 0.951 . S
H1387 C1413 0.950 . S
H1388 C1414 0.950 . S
H1389 C1416 0.950 1_556 S
H1390 C1419 0.950 . S
H1391 C1420 0.950 . S
H1392 C1422 0.950 . S
H1393 C1423 0.950 1_655 S
C1394 H1376 0.951 . S
C1394 C1395 1.366 . S
C1394 C1396 1.388 . S
C1395 C1394 1.366 . S
C1395 C1399 1.385 . S
C1396 H1377 0.951 . S
C1396 C1394 1.388 . S
C1396 C1397 1.366 . S
C1397 C1396 1.366 . S
C1397 C1398 1.414 . S
C1397 C1400 1.499 . S
C1398 H1378 0.950 . S
C1398 C1397 1.414 . S
C1398 C1399 1.374 . S
C1399 H1379 0.950 . S
C1399 C1395 1.385 . S
C1399 C1398 1.374 . S
C1400 C1397 1.499 . S
C1400 C1401 1.373 . S
C1400 C1402 1.389 . S
C1401 H1380 0.950 . S
C1401 C1400 1.373 . S
C1401 C1417 1.377 . S
C1402 C1400 1.389 . S
C1402 C1403 1.524 . S
C1402 C1416 1.377 . S
C1403 C1402 1.524 . S
C1403 C1404 1.397 . S
C1403 C1408 1.363 . S
C1404 H1381 0.950 . S
C1404 C1403 1.397 . S
C1404 C1405 1.334 . S
C1405 H1382 0.950 . S
C1405 C1404 1.334 . S
C1405 C1406 1.287 . S
C1406 C1405 1.287 . S
C1406 C1407 1.524 . S
C1406 H1425 0.913 . S
C1407 H1383 0.950 . S
C1407 C1406 1.524 . S
C1407 C1408 1.415 . S
C1408 H1384 0.950 . S
C1408 C1403 1.363 . S
C1408 C1407 1.415 . S
C1409 H1385 0.951 . S
C1409 C1410 1.366 . S
C1409 C1411 1.388 . S
C1410 C1409 1.366 . S
C1410 C1414 1.385 . S
C1411 H1386 0.951 . S
C1411 C1409 1.388 . S
C1411 C1412 1.366 . S
C1412 C1411 1.366 . S
C1412 C1413 1.414 . S
C1412 C1415 1.499 1_556 S
C1413 H1387 0.950 . S
C1413 C1412 1.414 . S
C1413 C1414 1.374 . S
C1414 H1388 0.950 . S
C1414 C1410 1.385 . S
C1414 C1413 1.374 . S
C1415 C1412 1.499 1_554 S
C1415 C1416 1.373 . S
C1415 C1417 1.389 . S
C1416 H1389 0.950 1_554 S
C1416 C1402 1.377 . S
C1416 C1415 1.373 . S
C1417 C1401 1.377 . S
C1417 C1415 1.389 . S
C1417 C1418 1.524 . S
C1418 C1417 1.524 . S
C1418 C1419 1.397 . S
C1418 C1423 1.363 . S
C1419 H1390 0.950 . S
C1419 C1418 1.397 . S
C1419 C1420 1.334 . S
C1420 H1391 0.950 . S
C1420 C1419 1.334 . S
C1420 C1421 1.287 . S
C1421 C1420 1.287 . S
C1421 C1422 1.524 1_455 S
C1421 H1424 0.999 1_455 S
C1422 H1392 0.950 . S
C1422 C1421 1.524 1_655 S
C1422 C1423 1.415 1_655 S
C1423 H1393 0.950 1_455 S
C1423 C1418 1.363 . S
C1423 C1422 1.415 1_455 S
H1424 C1421 0.999 1_655 S
H1425 C1406 0.913 . S
H1426 C1444 0.951 . S
H1427 C1446 0.951 . S
H1428 C1448 0.950 . S
H1429 C1449 0.950 . S
H1430 C1451 0.950 . S
H1431 C1454 0.950 . S
H1432 C1455 0.950 . S
H1433 C1457 0.950 . S
H1434 C1458 0.950 . S
H1435 C1459 0.951 . S
H1436 C1461 0.951 . S
H1437 C1463 0.950 . S
H1438 C1464 0.950 . S
H1439 C1466 0.950 . S
H1440 C1469 0.950 . S
H1441 C1470 0.950 . S
H1442 C1472 0.950 . S
H1443 C1473 0.950 . S
C1444 H1426 0.951 . S
C1444 C1445 1.366 . S
C1444 C1446 1.388 . S
C1445 C1444 1.366 . S
C1445 C1449 1.385 . S
C1446 H1427 0.951 . S
C1446 C1444 1.388 . S
C1446 C1447 1.366 . S
C1447 C1446 1.366 . S
C1447 C1448 1.414 . S
C1447 C1450 1.499 . S
C1448 H1428 0.950 . S
C1448 C1447 1.414 . S
C1448 C1449 1.374 . S
C1449 H1429 0.950 . S
C1449 C1445 1.385 . S
C1449 C1448 1.374 . S
C1450 C1447 1.499 . S
C1450 C1451 1.373 . S
C1450 C1452 1.389 . S
C1451 H1430 0.950 . S
C1451 C1450 1.373 . S
C1451 C1467 1.377 . S
C1452 C1450 1.389 . S
C1452 C1453 1.524 . S
C1452 C1466 1.377 . S
C1453 C1452 1.524 . S
C1453 C1454 1.397 . S
C1453 C1458 1.363 . S
C1454 H1431 0.950 . S
C1454 C1453 1.397 . S
C1454 C1455 1.334 . S
C1455 H1432 0.950 . S
C1455 C1454 1.334 . S
C1455 C1456 1.287 . S
C1456 C1455 1.287 . S
C1456 C1457 1.524 . S
C1456 H1475 0.913 . S
C1457 H1433 0.950 . S
C1457 C1456 1.524 . S
C1457 C1458 1.415 . S
C1458 H1434 0.950 . S
C1458 C1453 1.363 . S
C1458 C1457 1.415 . S
C1459 H1435 0.951 . S
C1459 C1460 1.366 . S
C1459 C1461 1.388 . S
C1460 C1459 1.366 . S
C1460 C1464 1.385 . S
C1461 H1436 0.951 . S
C1461 C1459 1.388 . S
C1461 C1462 1.366 . S
C1462 C1461 1.366 . S
C1462 C1463 1.414 . S
C1462 C1465 1.499 . S
C1463 H1437 0.950 . S
C1463 C1462 1.414 . S
C1463 C1464 1.374 . S
C1464 H1438 0.950 . S
C1464 C1460 1.385 . S
C1464 C1463 1.374 . S
C1465 C1462 1.499 . S
C1465 C1466 1.373 . S
C1465 C1467 1.389 . S
C1466 H1439 0.950 . S
C1466 C1452 1.377 . S
C1466 C1465 1.373 . S
C1467 C1451 1.377 . S
C1467 C1465 1.389 . S
C1467 C1468 1.524 . S
C1468 C1467 1.524 . S
C1468 C1469 1.397 . S
C1468 C1473 1.363 . S
C1469 H1440 0.950 . S
C1469 C1468 1.397 . S
C1469 C1470 1.334 . S
C1470 H1441 0.950 . S
C1470 C1469 1.334 . S
C1470 C1471 1.287 . S
C1471 C1470 1.287 . S
C1471 C1472 1.524 . S
C1471 H1474 0.999 . S
C1472 H1442 0.950 . S
C1472 C1471 1.524 . S
C1472 C1473 1.415 . S
C1473 H1443 0.950 . S
C1473 C1468 1.363 . S
C1473 C1472 1.415 . S
H1474 C1471 0.999 . S
H1475 C1456 0.913 . S
H1476 C1494 0.951 . S
H1477 C1496 0.951 . S
H1478 C1498 0.950 . S
H1479 C1499 0.950 . S
H1480 C1501 0.950 . S
H1481 C1504 0.950 . S
H1482 C1505 0.950 . S
H1483 C1507 0.950 . S
H1484 C1508 0.950 . S
H1485 C1509 0.951 . S
H1486 C1511 0.951 . S
H1487 C1513 0.950 . S
H1488 C1514 0.950 . S
H1489 C1516 0.950 . S
H1490 C1519 0.950 . S
H1491 C1520 0.950 . S
H1492 C1522 0.950 . S
H1493 C1523 0.950 . S
C1494 H1476 0.951 . S
C1494 C1495 1.366 . S
C1494 C1496 1.388 . S
C1495 C1494 1.366 . S
C1495 C1499 1.385 . S
C1496 H1477 0.951 . S
C1496 C1494 1.388 . S
C1496 C1497 1.366 . S
C1497 C1496 1.366 . S
C1497 C1498 1.414 . S
C1497 C1500 1.499 . S
C1498 H1478 0.950 . S
C1498 C1497 1.414 . S
C1498 C1499 1.374 . S
C1499 H1479 0.950 . S
C1499 C1495 1.385 . S
C1499 C1498 1.374 . S
C1500 C1497 1.499 . S
C1500 C1501 1.373 . S
C1500 C1502 1.389 . S
C1501 H1480 0.950 . S
C1501 C1500 1.373 . S
C1501 C1517 1.377 . S
C1502 C1500 1.389 . S
C1502 C1503 1.524 . S
C1502 C1516 1.377 . S
C1503 C1502 1.524 . S
C1503 C1504 1.397 . S
C1503 C1508 1.363 . S
C1504 H1481 0.950 . S
C1504 C1503 1.397 . S
C1504 C1505 1.334 . S
C1505 H1482 0.950 . S
C1505 C1504 1.334 . S
C1505 C1506 1.287 . S
C1506 C1505 1.287 . S
C1506 C1507 1.524 . S
C1506 H1525 0.913 . S
C1507 H1483 0.950 . S
C1507 C1506 1.524 . S
C1507 C1508 1.415 . S
C1508 H1484 0.950 . S
C1508 C1503 1.363 . S
C1508 C1507 1.415 . S
C1509 H1485 0.951 . S
C1509 C1510 1.366 . S
C1509 C1511 1.388 . S
C1510 C1509 1.366 . S
C1510 C1514 1.385 . S
C1511 H1486 0.951 . S
C1511 C1509 1.388 . S
C1511 C1512 1.366 . S
C1512 C1511 1.366 . S
C1512 C1513 1.414 . S
C1512 C1515 1.499 . S
C1513 H1487 0.950 . S
C1513 C1512 1.414 . S
C1513 C1514 1.374 . S
C1514 H1488 0.950 . S
C1514 C1510 1.385 . S
C1514 C1513 1.374 . S
C1515 C1512 1.499 . S
C1515 C1516 1.373 . S
C1515 C1517 1.389 . S
C1516 H1489 0.950 . S
C1516 C1502 1.377 . S
C1516 C1515 1.373 . S
C1517 C1501 1.377 . S
C1517 C1515 1.389 . S
C1517 C1518 1.524 . S
C1518 C1517 1.524 . S
C1518 C1519 1.397 . S
C1518 C1523 1.363 . S
C1519 H1490 0.950 . S
C1519 C1518 1.397 . S
C1519 C1520 1.334 . S
C1520 H1491 0.950 . S
C1520 C1519 1.334 . S
C1520 C1521 1.287 . S
C1521 C1520 1.287 . S
C1521 C1522 1.524 . S
C1521 H1524 0.999 . S
C1522 H1492 0.950 . S
C1522 C1521 1.524 . S
C1522 C1523 1.415 . S
C1523 H1493 0.950 . S
C1523 C1518 1.363 . S
C1523 C1522 1.415 . S
H1524 C1521 0.999 . S
H1525 C1506 0.913 . S
H1526 C1544 0.951 . S
H1527 C1546 0.951 . S
H1528 C1548 0.950 . S
H1529 C1549 0.950 . S
H1530 C1551 0.950 . S
H1531 C1554 0.950 . S
H1532 C1555 0.950 . S
H1533 C1557 0.950 . S
H1534 C1558 0.950 . S
H1535 C1559 0.951 . S
H1536 C1561 0.951 . S
H1537 C1563 0.950 . S
H1538 C1564 0.950 . S
H1539 C1566 0.950 . S
H1540 C1569 0.950 . S
H1541 C1570 0.950 . S
H1542 C1572 0.950 . S
H1543 C1573 0.950 . S
C1544 H1526 0.951 . S
C1544 C1545 1.366 . S
C1544 C1546 1.388 . S
C1545 C1544 1.366 . S
C1545 C1549 1.385 . S
C1546 H1527 0.951 . S
C1546 C1544 1.388 . S
C1546 C1547 1.366 . S
C1547 C1546 1.366 . S
C1547 C1548 1.414 . S
C1547 C1550 1.499 . S
C1548 H1528 0.950 . S
C1548 C1547 1.414 . S
C1548 C1549 1.374 . S
C1549 H1529 0.950 . S
C1549 C1545 1.385 . S
C1549 C1548 1.374 . S
C1550 C1547 1.499 . S
C1550 C1551 1.373 . S
C1550 C1552 1.389 . S
C1551 H1530 0.950 . S
C1551 C1550 1.373 . S
C1551 C1567 1.377 . S
C1552 C1550 1.389 . S
C1552 C1553 1.524 . S
C1552 C1566 1.377 . S
C1553 C1552 1.524 . S
C1553 C1554 1.397 . S
C1553 C1558 1.363 . S
C1554 H1531 0.950 . S
C1554 C1553 1.397 . S
C1554 C1555 1.334 . S
C1555 H1532 0.950 . S
C1555 C1554 1.334 . S
C1555 C1556 1.287 . S
C1556 C1555 1.287 . S
C1556 C1557 1.524 . S
C1556 H1575 0.913 . S
C1557 H1533 0.950 . S
C1557 C1556 1.524 . S
C1557 C1558 1.415 . S
C1558 H1534 0.950 . S
C1558 C1553 1.363 . S
C1558 C1557 1.415 . S
C1559 H1535 0.951 . S
C1559 C1560 1.366 . S
C1559 C1561 1.388 . S
C1560 C1559 1.366 . S
C1560 C1564 1.385 . S
C1561 H1536 0.951 . S
C1561 C1559 1.388 . S
C1561 C1562 1.366 . S
C1562 C1561 1.366 . S
C1562 C1563 1.414 . S
C1562 C1565 1.499 . S
C1563 H1537 0.950 . S
C1563 C1562 1.414 . S
C1563 C1564 1.374 . S
C1564 H1538 0.950 . S
C1564 C1560 1.385 . S
C1564 C1563 1.374 . S
C1565 C1562 1.499 . S
C1565 C1566 1.373 . S
C1565 C1567 1.389 . S
C1566 H1539 0.950 . S
C1566 C1552 1.377 . S
C1566 C1565 1.373 . S
C1567 C1551 1.377 . S
C1567 C1565 1.389 . S
C1567 C1568 1.524 . S
C1568 C1567 1.524 . S
C1568 C1569 1.397 . S
C1568 C1573 1.363 . S
C1569 H1540 0.950 . S
C1569 C1568 1.397 . S
C1569 C1570 1.334 . S
C1570 H1541 0.950 . S
C1570 C1569 1.334 . S
C1570 C1571 1.287 . S
C1571 C1570 1.287 . S
C1571 C1572 1.524 . S
C1571 H1574 0.999 . S
C1572 H1542 0.950 . S
C1572 C1571 1.524 . S
C1572 C1573 1.415 . S
C1573 H1543 0.950 . S
C1573 C1568 1.363 . S
C1573 C1572 1.415 . S
H1574 C1571 0.999 . S
H1575 C1556 0.913 . S
H1576 C1594 0.951 . S
H1577 C1596 0.951 . S
H1578 C1598 0.950 . S
H1579 C1599 0.950 . S
H1580 C1601 0.950 . S
H1581 C1604 0.950 . S
H1582 C1605 0.950 1_554 S
H1583 C1607 0.950 . S
H1584 C1608 0.950 . S
H1585 C1609 0.951 . S
H1586 C1611 0.951 . S
H1587 C1613 0.950 . S
H1588 C1614 0.950 . S
H1589 C1616 0.950 . S
H1590 C1619 0.950 . S
H1591 C1620 0.950 . S
H1592 C1622 0.950 . S
H1593 C1623 0.950 . S
C1594 H1576 0.951 . S
C1594 C1595 1.366 . S
C1594 C1596 1.388 . S
C1595 C1594 1.366 . S
C1595 C1599 1.385 . S
C1596 H1577 0.951 . S
C1596 C1594 1.388 . S
C1596 C1597 1.366 . S
C1597 C1596 1.366 . S
C1597 C1598 1.414 . S
C1597 C1600 1.499 . S
C1598 H1578 0.950 . S
C1598 C1597 1.414 . S
C1598 C1599 1.374 . S
C1599 H1579 0.950 . S
C1599 C1595 1.385 . S
C1599 C1598 1.374 . S
C1600 C1597 1.499 . S
C1600 C1601 1.373 . S
C1600 C1602 1.389 . S
C1601 H1580 0.950 . S
C1601 C1600 1.373 . S
C1601 C1617 1.377 . S
C1602 C1600 1.389 . S
C1602 C1603 1.524 . S
C1602 C1616 1.377 . S
C1603 C1602 1.524 . S
C1603 C1604 1.397 . S
C1603 C1608 1.363 . S
C1604 H1581 0.950 . S
C1604 C1603 1.397 . S
C1604 C1605 1.334 . S
C1605 H1582 0.950 1_556 S
C1605 C1604 1.334 . S
C1605 C1606 1.287 . S
C1606 C1605 1.287 . S
C1606 C1607 1.524 . S
C1606 H1625 0.913 1_556 S
C1607 H1583 0.950 . S
C1607 C1606 1.524 . S
C1607 C1608 1.415 . S
C1608 H1584 0.950 . S
C1608 C1603 1.363 . S
C1608 C1607 1.415 . S
C1609 H1585 0.951 . S
C1609 C1610 1.366 . S
C1609 C1611 1.388 . S
C1610 C1609 1.366 . S
C1610 C1614 1.385 . S
C1611 H1586 0.951 . S
C1611 C1609 1.388 . S
C1611 C1612 1.366 . S
C1612 C1611 1.366 . S
C1612 C1613 1.414 . S
C1612 C1615 1.499 . S
C1613 H1587 0.950 . S
C1613 C1612 1.414 . S
C1613 C1614 1.374 . S
C1614 H1588 0.950 . S
C1614 C1610 1.385 . S
C1614 C1613 1.374 . S
C1615 C1612 1.499 . S
C1615 C1616 1.373 . S
C1615 C1617 1.389 . S
C1616 H1589 0.950 . S
C1616 C1602 1.377 . S
C1616 C1615 1.373 . S
C1617 C1601 1.377 . S
C1617 C1615 1.389 . S
C1617 C1618 1.524 . S
C1618 C1617 1.524 . S
C1618 C1619 1.397 . S
C1618 C1623 1.363 . S
C1619 H1590 0.950 . S
C1619 C1618 1.397 . S
C1619 C1620 1.334 . S
C1620 H1591 0.950 . S
C1620 C1619 1.334 . S
C1620 C1621 1.287 . S
C1621 C1620 1.287 . S
C1621 C1622 1.524 . S
C1621 H1624 0.999 . S
C1622 H1592 0.950 . S
C1622 C1621 1.524 . S
C1622 C1623 1.415 . S
C1623 H1593 0.950 . S
C1623 C1618 1.363 . S
C1623 C1622 1.415 . S
H1624 C1621 0.999 . S
H1625 C1606 0.913 1_554 S
H1626 C1644 0.951 . S
H1627 C1646 0.951 . S
H1628 C1648 0.950 . S
H1629 C1649 0.950 . S
H1630 C1651 0.950 . S
H1631 C1654 0.950 . S
H1632 C1655 0.950 . S
H1633 C1657 0.950 . S
H1634 C1658 0.950 . S
H1635 C1659 0.951 . S
H1636 C1661 0.951 . S
H1637 C1663 0.950 . S
H1638 C1664 0.950 . S
H1639 C1666 0.950 . S
H1640 C1669 0.950 . S
H1641 C1670 0.950 . S
H1642 C1672 0.950 . S
H1643 C1673 0.950 . S
C1644 H1626 0.951 . S
C1644 C1645 1.366 . S
C1644 C1646 1.388 . S
C1645 C1644 1.366 . S
C1645 C1649 1.385 . S
C1646 H1627 0.951 . S
C1646 C1644 1.388 . S
C1646 C1647 1.366 . S
C1647 C1646 1.366 . S
C1647 C1648 1.414 . S
C1647 C1650 1.499 . S
C1648 H1628 0.950 . S
C1648 C1647 1.414 . S
C1648 C1649 1.374 . S
C1649 H1629 0.950 . S
C1649 C1645 1.385 . S
C1649 C1648 1.374 . S
C1650 C1647 1.499 . S
C1650 C1651 1.373 . S
C1650 C1652 1.389 . S
C1651 H1630 0.950 . S
C1651 C1650 1.373 . S
C1651 C1667 1.377 . S
C1652 C1650 1.389 . S
C1652 C1653 1.524 . S
C1652 C1666 1.377 . S
C1653 C1652 1.524 . S
C1653 C1654 1.397 . S
C1653 C1658 1.363 . S
C1654 H1631 0.950 . S
C1654 C1653 1.397 . S
C1654 C1655 1.334 . S
C1655 H1632 0.950 . S
C1655 C1654 1.334 . S
C1655 C1656 1.287 . S
C1656 C1655 1.287 . S
C1656 C1657 1.524 . S
C1656 H1675 0.913 . S
C1657 H1633 0.950 . S
C1657 C1656 1.524 . S
C1657 C1658 1.415 . S
C1658 H1634 0.950 . S
C1658 C1653 1.363 . S
C1658 C1657 1.415 . S
C1659 H1635 0.951 . S
C1659 C1660 1.366 . S
C1659 C1661 1.388 . S
C1660 C1659 1.366 . S
C1660 C1664 1.385 . S
C1661 H1636 0.951 . S
C1661 C1659 1.388 . S
C1661 C1662 1.366 . S
C1662 C1661 1.366 . S
C1662 C1663 1.414 . S
C1662 C1665 1.499 . S
C1663 H1637 0.950 . S
C1663 C1662 1.414 . S
C1663 C1664 1.374 . S
C1664 H1638 0.950 . S
C1664 C1660 1.385 . S
C1664 C1663 1.374 . S
C1665 C1662 1.499 . S
C1665 C1666 1.373 . S
C1665 C1667 1.389 . S
C1666 H1639 0.950 . S
C1666 C1652 1.377 . S
C1666 C1665 1.373 . S
C1667 C1651 1.377 . S
C1667 C1665 1.389 . S
C1667 C1668 1.524 . S
C1668 C1667 1.524 . S
C1668 C1669 1.397 . S
C1668 C1673 1.363 . S
C1669 H1640 0.950 . S
C1669 C1668 1.397 . S
C1669 C1670 1.334 . S
C1670 H1641 0.950 . S
C1670 C1669 1.334 . S
C1670 C1671 1.287 . S
C1671 C1670 1.287 . S
C1671 C1672 1.524 . S
C1671 H1674 0.999 . S
C1672 H1642 0.950 . S
C1672 C1671 1.524 . S
C1672 C1673 1.415 . S
C1673 H1643 0.950 . S
C1673 C1668 1.363 . S
C1673 C1672 1.415 . S
H1674 C1671 0.999 . S
H1675 C1656 0.913 . S
H1676 C1694 0.951 . S
H1677 C1696 0.951 . S
H1678 C1698 0.950 . S
H1679 C1699 0.950 . S
H1680 C1701 0.950 . S
H1681 C1704 0.979 . S
H1682 C1705 0.950 . S
H1683 C1707 0.950 . S
H1684 C1708 0.950 . S
H1685 C1709 0.951 . S
H1686 C1711 0.951 . S
H1687 C1713 0.950 . S
H1688 C1714 0.950 . S
H1689 C1716 0.950 . S
H1690 C1719 0.979 . S
H1691 C1720 0.950 . S
H1692 C1722 0.950 . S
H1693 C1723 0.950 . S
C1694 H1676 0.951 . S
C1694 C1695 1.366 . S
C1694 C1696 1.388 . S
C1695 C1694 1.366 . S
C1695 C1699 1.385 . S
C1696 H1677 0.951 . S
C1696 C1694 1.388 . S
C1696 C1697 1.366 . S
C1697 C1696 1.366 . S
C1697 C1698 1.414 . S
C1697 C1700 1.499 . S
C1698 H1678 0.950 . S
C1698 C1697 1.414 . S
C1698 C1699 1.374 . S
C1699 H1679 0.950 . S
C1699 C1695 1.385 . S
C1699 C1698 1.374 . S
C1700 C1697 1.499 . S
C1700 C1701 1.373 . S
C1700 C1702 1.389 1_565 S
C1701 H1680 0.950 . S
C1701 C1700 1.373 . S
C1701 C1717 1.377 . S
C1702 C1700 1.389 1_545 S
C1702 C1703 1.524 . S
C1702 C1716 1.377 . S
C1703 C1702 1.524 . S
C1703 C1704 1.397 . S
C1703 C1708 1.363 . S
C1704 H1681 0.979 . S
C1704 C1703 1.397 . S
C1704 C1705 1.334 . S
C1705 H1682 0.950 . S
C1705 C1704 1.334 . S
C1705 C1706 1.287 . S
C1706 C1705 1.287 . S
C1706 C1707 1.524 . S
C1706 H1725 0.913 . S
C1707 H1683 0.950 . S
C1707 C1706 1.524 . S
C1707 C1708 1.415 . S
C1708 H1684 0.950 . S
C1708 C1703 1.363 . S
C1708 C1707 1.415 . S
C1709 H1685 0.951 . S
C1709 C1710 1.366 . S
C1709 C1711 1.388 . S
C1710 C1709 1.366 . S
C1710 C1714 1.385 . S
C1711 H1686 0.951 . S
C1711 C1709 1.388 . S
C1711 C1712 1.366 . S
C1712 C1711 1.366 . S
C1712 C1713 1.414 . S
C1712 C1715 1.499 . S
C1713 H1687 0.950 . S
C1713 C1712 1.414 . S
C1713 C1714 1.374 . S
C1714 H1688 0.950 . S
C1714 C1710 1.385 . S
C1714 C1713 1.374 . S
C1715 C1712 1.499 . S
C1715 C1716 1.373 . S
C1715 C1717 1.389 1_545 S
C1716 H1689 0.950 . S
C1716 C1702 1.377 . S
C1716 C1715 1.373 . S
C1717 C1701 1.377 . S
C1717 C1715 1.389 1_565 S
C1717 C1718 1.524 . S
C1718 C1717 1.524 . S
C1718 C1719 1.397 . S
C1718 C1723 1.363 . S
C1719 H1690 0.979 . S
C1719 C1718 1.397 . S
C1719 C1720 1.334 . S
C1720 H1691 0.950 . S
C1720 C1719 1.334 . S
C1720 C1721 1.287 . S
C1721 C1720 1.287 . S
C1721 C1722 1.524 . S
C1721 H1724 0.999 . S
C1722 H1692 0.950 . S
C1722 C1721 1.524 . S
C1722 C1723 1.415 . S
C1723 H1693 0.950 . S
C1723 C1718 1.363 . S
C1723 C1722 1.415 . S
H1724 C1721 0.999 . S
H1725 C1706 0.913 . S
H1726 C1744 0.951 . S
H1727 C1746 0.951 . S
H1728 C1748 0.950 . S
H1729 C1749 0.950 . S
H1730 C1751 0.950 1_556 S
H1731 C1754 0.950 . S
H1732 C1755 0.950 . S
H1733 C1757 0.950 1_655 S
H1734 C1758 0.950 . S
H1735 C1759 0.951 . S
H1736 C1761 0.951 . S
H1737 C1763 0.950 . S
H1738 C1764 0.950 . S
H1739 C1766 0.950 . S
H1740 C1769 0.950 . S
H1741 C1770 0.950 . S
H1742 C1772 0.950 . S
H1743 C1773 0.950 . S
C1744 H1726 0.951 . S
C1744 C1745 1.366 . S
C1744 C1746 1.388 . S
C1745 C1744 1.366 . S
C1745 C1749 1.385 . S
C1746 H1727 0.951 . S
C1746 C1744 1.388 . S
C1746 C1747 1.366 . S
C1747 C1746 1.366 . S
C1747 C1748 1.414 . S
C1747 C1750 1.499 1_556 S
C1748 H1728 0.950 . S
C1748 C1747 1.414 . S
C1748 C1749 1.374 . S
C1749 H1729 0.950 . S
C1749 C1745 1.385 . S
C1749 C1748 1.374 . S
C1750 C1747 1.499 1_554 S
C1750 C1751 1.373 1_545 S
C1750 C1752 1.389 . S
C1751 H1730 0.950 1_554 S
C1751 C1750 1.373 1_565 S
C1751 C1767 1.377 . S
C1752 C1750 1.389 . S
C1752 C1753 1.524 . S
C1752 C1766 1.377 . S
C1753 C1752 1.524 . S
C1753 C1754 1.397 . S
C1753 C1758 1.363 . S
C1754 H1731 0.950 . S
C1754 C1753 1.397 . S
C1754 C1755 1.334 . S
C1755 H1732 0.950 . S
C1755 C1754 1.334 . S
C1755 C1756 1.287 . S
C1756 C1755 1.287 . S
C1756 C1757 1.524 . S
C1756 H1775 0.913 . S
C1757 H1733 0.950 1_455 S
C1757 C1756 1.524 . S
C1757 C1758 1.415 . S
C1758 H1734 0.950 . S
C1758 C1753 1.363 . S
C1758 C1757 1.415 . S
C1759 H1735 0.951 . S
C1759 C1760 1.366 . S
C1759 C1761 1.388 . S
C1760 C1759 1.366 . S
C1760 C1764 1.385 . S
C1761 H1736 0.951 . S
C1761 C1759 1.388 . S
C1761 C1762 1.366 . S
C1762 C1761 1.366 . S
C1762 C1763 1.414 . S
C1762 C1765 1.499 . S
C1763 H1737 0.950 . S
C1763 C1762 1.414 . S
C1763 C1764 1.374 . S
C1764 H1738 0.950 . S
C1764 C1760 1.385 . S
C1764 C1763 1.374 . S
C1765 C1762 1.499 . S
C1765 C1766 1.373 1_565 S
C1765 C1767 1.389 . S
C1766 H1739 0.950 . S
C1766 C1752 1.377 . S
C1766 C1765 1.373 1_545 S
C1767 C1751 1.377 . S
C1767 C1765 1.389 . S
C1767 C1768 1.524 . S
C1768 C1767 1.524 . S
C1768 C1769 1.397 . S
C1768 C1773 1.363 . S
C1769 H1740 0.950 . S
C1769 C1768 1.397 . S
C1769 C1770 1.334 . S
C1770 H1741 0.950 . S
C1770 C1769 1.334 . S
C1770 C1771 1.287 1_554 S
C1771 C1770 1.287 1_556 S
C1771 C1772 1.524 . S
C1771 H1774 0.999 . S
C1772 H1742 0.950 . S
C1772 C1771 1.524 . S
C1772 C1773 1.415 1_556 S
C1773 H1743 0.950 . S
C1773 C1768 1.363 . S
C1773 C1772 1.415 1_554 S
H1774 C1771 0.999 . S
H1775 C1756 0.913 . S
H1776 C1794 0.951 . S
H1777 C1796 0.951 . S
H1778 C1798 0.950 . S
H1779 C1799 0.950 . S
H1780 C1801 0.950 . S
H1781 C1804 0.950 . S
H1782 C1805 0.950 . S
H1783 C1807 0.950 . S
H1784 C1808 0.950 . S
H1785 C1809 0.951 . S
H1786 C1811 0.951 . S
H1787 C1813 0.950 . S
H1788 C1814 0.950 . S
H1789 C1816 0.950 . S
H1790 C1819 0.950 . S
H1791 C1820 0.950 . S
H1792 C1822 0.950 . S
H1793 C1823 0.950 . S
C1794 H1776 0.951 . S
C1794 C1795 1.366 . S
C1794 C1796 1.388 . S
C1795 C1794 1.366 . S
C1795 C1799 1.385 . S
C1796 H1777 0.951 . S
C1796 C1794 1.388 . S
C1796 C1797 1.366 . S
C1797 C1796 1.366 . S
C1797 C1798 1.414 . S
C1797 C1800 1.499 . S
C1798 H1778 0.950 . S
C1798 C1797 1.414 . S
C1798 C1799 1.374 . S
C1799 H1779 0.950 . S
C1799 C1795 1.385 . S
C1799 C1798 1.374 . S
C1800 C1797 1.499 . S
C1800 C1801 1.373 . S
C1800 C1802 1.389 . S
C1801 H1780 0.950 . S
C1801 C1800 1.373 . S
C1801 C1817 1.377 . S
C1802 C1800 1.389 . S
C1802 C1803 1.524 . S
C1802 C1816 1.377 . S
C1803 C1802 1.524 . S
C1803 C1804 1.397 . S
C1803 C1808 1.363 . S
C1804 H1781 0.950 . S
C1804 C1803 1.397 . S
C1804 C1805 1.334 . S
C1805 H1782 0.950 . S
C1805 C1804 1.334 . S
C1805 C1806 1.287 . S
C1806 C1805 1.287 . S
C1806 C1807 1.524 . S
C1806 H1825 0.913 . S
C1807 H1783 0.950 . S
C1807 C1806 1.524 . S
C1807 C1808 1.415 . S
C1808 H1784 0.950 . S
C1808 C1803 1.363 . S
C1808 C1807 1.415 . S
C1809 H1785 0.951 . S
C1809 C1810 1.366 . S
C1809 C1811 1.388 . S
C1810 C1809 1.366 . S
C1810 C1814 1.385 . S
C1811 H1786 0.951 . S
C1811 C1809 1.388 . S
C1811 C1812 1.366 . S
C1812 C1811 1.366 . S
C1812 C1813 1.414 . S
C1812 C1815 1.499 . S
C1813 H1787 0.950 . S
C1813 C1812 1.414 . S
C1813 C1814 1.374 . S
C1814 H1788 0.950 . S
C1814 C1810 1.385 . S
C1814 C1813 1.374 . S
C1815 C1812 1.499 . S
C1815 C1816 1.373 . S
C1815 C1817 1.389 . S
C1816 H1789 0.950 . S
C1816 C1802 1.377 . S
C1816 C1815 1.373 . S
C1817 C1801 1.377 . S
C1817 C1815 1.389 . S
C1817 C1818 1.524 . S
C1818 C1817 1.524 . S
C1818 C1819 1.397 . S
C1818 C1823 1.363 . S
C1819 H1790 0.950 . S
C1819 C1818 1.397 . S
C1819 C1820 1.334 . S
C1820 H1791 0.950 . S
C1820 C1819 1.334 . S
C1820 C1821 1.287 1_455 S
C1821 C1820 1.287 1_655 S
C1821 C1822 1.524 . S
C1821 H1824 0.999 . S
C1822 H1792 0.950 . S
C1822 C1821 1.524 . S
C1822 C1823 1.415 1_655 S
C1823 H1793 0.950 . S
C1823 C1818 1.363 . S
C1823 C1822 1.415 1_455 S
H1824 C1821 0.999 . S
H1825 C1806 0.913 . S
H1826 C1844 0.951 1_554 S
H1827 C1846 0.951 . S
H1828 C1848 0.950 . S
H1829 C1849 0.950 . S
H1830 C1851 0.950 . S
H1831 C1854 0.950 . S
H1832 C1855 0.950 . S
H1833 C1857 0.950 . S
H1834 C1858 0.950 . S
H1835 C1859 0.951 . S
H1836 C1861 0.951 . S
H1837 C1863 0.950 . S
H1838 C1864 0.950 . S
H1839 C1866 0.950 . S
H1840 C1869 0.950 . S
H1841 C1870 0.950 . S
H1842 C1872 0.950 . S
H1843 C1873 0.950 . S
C1844 H1826 0.951 1_556 S
C1844 C1845 1.366 . S
C1844 C1846 1.388 . S
C1845 C1844 1.366 . S
C1845 C1849 1.385 . S
C1846 H1827 0.951 . S
C1846 C1844 1.388 . S
C1846 C1847 1.366 . S
C1847 C1846 1.366 . S
C1847 C1848 1.414 . S
C1847 C1850 1.499 . S
C1848 H1828 0.950 . S
C1848 C1847 1.414 . S
C1848 C1849 1.374 . S
C1849 H1829 0.950 . S
C1849 C1845 1.385 . S
C1849 C1848 1.374 . S
C1850 C1847 1.499 . S
C1850 C1851 1.373 . S
C1850 C1852 1.389 . S
C1851 H1830 0.950 . S
C1851 C1850 1.373 . S
C1851 C1867 1.377 . S
C1852 C1850 1.389 . S
C1852 C1853 1.524 . S
C1852 C1866 1.377 . S
C1853 C1852 1.524 . S
C1853 C1854 1.397 . S
C1853 C1858 1.363 . S
C1854 H1831 0.950 . S
C1854 C1853 1.397 . S
C1854 C1855 1.334 . S
C1855 H1832 0.950 . S
C1855 C1854 1.334 . S
C1855 C1856 1.287 . S
C1856 C1855 1.287 . S
C1856 C1857 1.524 . S
C1856 H1875 0.913 . S
C1857 H1833 0.950 . S
C1857 C1856 1.524 . S
C1857 C1858 1.415 . S
C1858 H1834 0.950 . S
C1858 C1853 1.363 . S
C1858 C1857 1.415 . S
C1859 H1835 0.951 . S
C1859 C1860 1.366 . S
C1859 C1861 1.388 . S
C1860 C1859 1.366 . S
C1860 C1864 1.385 . S
C1861 H1836 0.951 . S
C1861 C1859 1.388 . S
C1861 C1862 1.366 . S
C1862 C1861 1.366 . S
C1862 C1863 1.414 . S
C1862 C1865 1.499 . S
C1863 H1837 0.950 . S
C1863 C1862 1.414 . S
C1863 C1864 1.374 . S
C1864 H1838 0.950 . S
C1864 C1860 1.385 . S
C1864 C1863 1.374 . S
C1865 C1862 1.499 . S
C1865 C1866 1.373 . S
C1865 C1867 1.389 . S
C1866 H1839 0.950 . S
C1866 C1852 1.377 . S
C1866 C1865 1.373 . S
C1867 C1851 1.377 . S
C1867 C1865 1.389 . S
C1867 C1868 1.524 . S
C1868 C1867 1.524 . S
C1868 C1869 1.397 . S
C1868 C1873 1.363 . S
C1869 H1840 0.950 . S
C1869 C1868 1.397 . S
C1869 C1870 1.334 . S
C1870 H1841 0.950 . S
C1870 C1869 1.334 . S
C1870 C1871 1.287 . S
C1871 C1870 1.287 . S
C1871 C1872 1.524 . S
C1871 H1874 0.999 . S
C1872 H1842 0.950 . S
C1872 C1871 1.524 . S
C1872 C1873 1.415 . S
C1873 H1843 0.950 . S
C1873 C1868 1.363 . S
C1873 C1872 1.415 . S
H1874 C1871 0.999 . S
H1875 C1856 0.913 . S
H1876 C1894 0.951 . S
H1877 C1896 0.951 . S
H1878 C1898 0.950 . S
H1879 C1899 0.950 . S
H1880 C1901 0.950 . S
H1881 C1904 0.950 . S
H1882 C1905 0.950 . S
H1883 C1907 0.950 . S
H1884 C1908 0.950 . S
H1885 C1909 0.951 . S
H1886 C1911 0.951 . S
H1887 C1913 0.950 . S
H1888 C1914 0.950 . S
H1889 C1916 0.950 . S
H1890 C1919 0.950 . S
H1891 C1920 0.950 . S
H1892 C1922 0.950 . S
H1893 C1923 0.950 . S
C1894 H1876 0.951 . S
C1894 C1895 1.366 . S
C1894 C1896 1.388 . S
C1895 C1894 1.366 . S
C1895 C1899 1.385 . S
C1896 H1877 0.951 . S
C1896 C1894 1.388 . S
C1896 C1897 1.366 . S
C1897 C1896 1.366 . S
C1897 C1898 1.414 . S
C1897 C1900 1.499 . S
C1898 H1878 0.950 . S
C1898 C1897 1.414 . S
C1898 C1899 1.374 . S
C1899 H1879 0.950 . S
C1899 C1895 1.385 . S
C1899 C1898 1.374 . S
C1900 C1897 1.499 . S
C1900 C1901 1.373 . S
C1900 C1902 1.389 . S
C1901 H1880 0.950 . S
C1901 C1900 1.373 . S
C1901 C1917 1.377 . S
C1902 C1900 1.389 . S
C1902 C1903 1.524 . S
C1902 C1916 1.377 . S
C1903 C1902 1.524 . S
C1903 C1904 1.397 . S
C1903 C1908 1.363 . S
C1904 H1881 0.950 . S
C1904 C1903 1.397 . S
C1904 C1905 1.334 . S
C1905 H1882 0.950 . S
C1905 C1904 1.334 . S
C1905 C1906 1.287 . S
C1906 C1905 1.287 . S
C1906 C1907 1.524 . S
C1906 H1925 0.913 . S
C1907 H1883 0.950 . S
C1907 C1906 1.524 . S
C1907 C1908 1.415 . S
C1908 H1884 0.950 . S
C1908 C1903 1.363 . S
C1908 C1907 1.415 . S
C1909 H1885 0.951 . S
C1909 C1910 1.366 . S
C1909 C1911 1.388 . S
C1910 C1909 1.366 . S
C1910 C1914 1.385 . S
C1911 H1886 0.951 . S
C1911 C1909 1.388 . S
C1911 C1912 1.366 . S
C1912 C1911 1.366 . S
C1912 C1913 1.414 . S
C1912 C1915 1.499 1_556 S
C1913 H1887 0.950 . S
C1913 C1912 1.414 . S
C1913 C1914 1.374 . S
C1914 H1888 0.950 . S
C1914 C1910 1.385 . S
C1914 C1913 1.374 . S
C1915 C1912 1.499 1_554 S
C1915 C1916 1.373 . S
C1915 C1917 1.389 . S
C1916 H1889 0.950 . S
C1916 C1902 1.377 . S
C1916 C1915 1.373 . S
C1917 C1901 1.377 . S
C1917 C1915 1.389 . S
C1917 C1918 1.524 . S
C1918 C1917 1.524 . S
C1918 C1919 1.397 . S
C1918 C1923 1.363 . S
C1919 H1890 0.950 . S
C1919 C1918 1.397 . S
C1919 C1920 1.334 . S
C1920 H1891 0.950 . S
C1920 C1919 1.334 . S
C1920 C1921 1.287 . S
C1921 C1920 1.287 . S
C1921 C1922 1.524 . S
C1921 H1924 0.999 . S
C1922 H1892 0.950 . S
C1922 C1921 1.524 . S
C1922 C1923 1.415 . S
C1923 H1893 0.950 . S
C1923 C1918 1.363 . S
C1923 C1922 1.415 . S
H1924 C1921 0.999 . S
H1925 C1906 0.913 . S
H1926 C1944 0.951 . S
H1927 C1946 0.951 . S
H1928 C1948 0.950 . S
H1929 C1949 0.950 . S
H1930 C1951 0.950 . S
H1931 C1954 0.950 . S
H1932 C1955 0.950 . S
H1933 C1957 0.950 . S
H1934 C1958 0.950 . S
H1935 C1959 0.951 . S
H1936 C1961 0.951 . S
H1937 C1963 0.950 . S
H1938 C1964 0.950 . S
H1939 C1966 0.950 . S
H1940 C1969 0.950 . S
H1941 C1970 0.950 . S
H1942 C1972 0.950 . S
H1943 C1973 0.950 . S
C1944 H1926 0.951 . S
C1944 C1945 1.366 . S
C1944 C1946 1.388 . S
C1945 C1944 1.366 . S
C1945 C1949 1.385 . S
C1946 H1927 0.951 . S
C1946 C1944 1.388 . S
C1946 C1947 1.366 . S
C1947 C1946 1.366 . S
C1947 C1948 1.414 . S
C1947 C1950 1.499 . S
C1948 H1928 0.950 . S
C1948 C1947 1.414 . S
C1948 C1949 1.374 . S
C1949 H1929 0.950 . S
C1949 C1945 1.385 . S
C1949 C1948 1.374 . S
C1950 C1947 1.499 . S
C1950 C1951 1.373 . S
C1950 C1952 1.389 . S
C1951 H1930 0.950 . S
C1951 C1950 1.373 . S
C1951 C1967 1.377 . S
C1952 C1950 1.389 . S
C1952 C1953 1.524 . S
C1952 C1966 1.377 . S
C1953 C1952 1.524 . S
C1953 C1954 1.397 . S
C1953 C1958 1.363 . S
C1954 H1931 0.950 . S
C1954 C1953 1.397 . S
C1954 C1955 1.334 . S
C1955 H1932 0.950 . S
C1955 C1954 1.334 . S
C1955 C1956 1.287 . S
C1956 C1955 1.287 . S
C1956 C1957 1.524 . S
C1956 H1975 0.913 . S
C1957 H1933 0.950 . S
C1957 C1956 1.524 . S
C1957 C1958 1.415 . S
C1958 H1934 0.950 . S
C1958 C1953 1.363 . S
C1958 C1957 1.415 . S
C1959 H1935 0.951 . S
C1959 C1960 1.366 . S
C1959 C1961 1.388 . S
C1960 C1959 1.366 . S
C1960 C1964 1.385 . S
C1961 H1936 0.951 . S
C1961 C1959 1.388 . S
C1961 C1962 1.366 . S
C1962 C1961 1.366 . S
C1962 C1963 1.414 . S
C1962 C1965 1.499 . S
C1963 H1937 0.950 . S
C1963 C1962 1.414 . S
C1963 C1964 1.374 . S
C1964 H1938 0.950 . S
C1964 C1960 1.385 . S
C1964 C1963 1.374 . S
C1965 C1962 1.499 . S
C1965 C1966 1.373 . S
C1965 C1967 1.389 . S
C1966 H1939 0.950 . S
C1966 C1952 1.377 . S
C1966 C1965 1.373 . S
C1967 C1951 1.377 . S
C1967 C1965 1.389 . S
C1967 C1968 1.524 . S
C1968 C1967 1.524 . S
C1968 C1969 1.397 . S
C1968 C1973 1.363 . S
C1969 H1940 0.950 . S
C1969 C1968 1.397 . S
C1969 C1970 1.334 . S
C1970 H1941 0.950 . S
C1970 C1969 1.334 . S
C1970 C1971 1.287 . S
C1971 C1970 1.287 . S
C1971 C1972 1.524 . S
C1971 H1974 0.999 . S
C1972 H1942 0.950 . S
C1972 C1971 1.524 . S
C1972 C1973 1.415 . S
C1973 H1943 0.950 . S
C1973 C1968 1.363 . S
C1973 C1972 1.415 . S
H1974 C1971 0.999 . S
H1975 C1956 0.913 . S
H1976 C1994 0.951 . S
H1977 C1996 0.951 . S
H1978 C1998 0.950 . S
H1979 C1999 0.950 . S
H1980 C2001 0.950 . S
H1981 C2004 0.950 . S
H1982 C2005 0.950 . S
H1983 C2007 0.950 . S
H1984 C2008 0.950 . S
H1985 C2009 0.951 . S
H1986 C2011 0.951 . S
H1987 C2013 0.950 . S
H1988 C2014 0.950 . S
H1989 C2016 0.950 . S
H1990 C2019 0.950 . S
H1991 C2020 0.950 . S
H1992 C2022 0.950 . S
H1993 C2023 0.950 . S
C1994 H1976 0.951 . S
C1994 C1995 1.366 . S
C1994 C1996 1.388 . S
C1995 C1994 1.366 . S
C1995 C1999 1.385 . S
C1996 H1977 0.951 . S
C1996 C1994 1.388 . S
C1996 C1997 1.366 . S
C1997 C1996 1.366 . S
C1997 C1998 1.414 . S
C1997 C2000 1.499 . S
C1998 H1978 0.950 . S
C1998 C1997 1.414 . S
C1998 C1999 1.374 . S
C1999 H1979 0.950 . S
C1999 C1995 1.385 . S
C1999 C1998 1.374 . S
C2000 C1997 1.499 . S
C2000 C2001 1.373 . S
C2000 C2002 1.389 . S
C2001 H1980 0.950 . S
C2001 C2000 1.373 . S
C2001 C2017 1.377 . S
C2002 C2000 1.389 . S
C2002 C2003 1.524 . S
C2002 C2016 1.377 . S
C2003 C2002 1.524 . S
C2003 C2004 1.397 . S
C2003 C2008 1.363 . S
C2004 H1981 0.950 . S
C2004 C2003 1.397 . S
C2004 C2005 1.334 . S
C2005 H1982 0.950 . S
C2005 C2004 1.334 . S
C2005 C2006 1.287 . S
C2006 C2005 1.287 . S
C2006 C2007 1.524 . S
C2006 H2025 0.913 . S
C2007 H1983 0.950 . S
C2007 C2006 1.524 . S
C2007 C2008 1.415 . S
C2008 H1984 0.950 . S
C2008 C2003 1.363 . S
C2008 C2007 1.415 . S
C2009 H1985 0.951 . S
C2009 C2010 1.366 . S
C2009 C2011 1.388 . S
C2010 C2009 1.366 . S
C2010 C2014 1.385 . S
C2011 H1986 0.951 . S
C2011 C2009 1.388 . S
C2011 C2012 1.366 . S
C2012 C2011 1.366 . S
C2012 C2013 1.414 . S
C2012 C2015 1.499 . S
C2013 H1987 0.950 . S
C2013 C2012 1.414 . S
C2013 C2014 1.374 . S
C2014 H1988 0.950 . S
C2014 C2010 1.385 . S
C2014 C2013 1.374 . S
C2015 C2012 1.499 . S
C2015 C2016 1.373 . S
C2015 C2017 1.389 . S
C2016 H1989 0.950 . S
C2016 C2002 1.377 . S
C2016 C2015 1.373 . S
C2017 C2001 1.377 . S
C2017 C2015 1.389 . S
C2017 C2018 1.524 . S
C2018 C2017 1.524 . S
C2018 C2019 1.397 . S
C2018 C2023 1.363 . S
C2019 H1990 0.950 . S
C2019 C2018 1.397 . S
C2019 C2020 1.334 . S
C2020 H1991 0.950 . S
C2020 C2019 1.334 . S
C2020 C2021 1.287 . S
C2021 C2020 1.287 . S
C2021 C2022 1.524 . S
C2021 H2024 0.999 . S
C2022 H1992 0.950 . S
C2022 C2021 1.524 . S
C2022 C2023 1.415 . S
C2023 H1993 0.950 . S
C2023 C2018 1.363 . S
C2023 C2022 1.415 . S
H2024 C2021 0.999 . S
H2025 C2006 0.913 . S
H2026 C2044 0.951 . S
H2027 C2046 0.951 . S
H2028 C2048 0.950 . S
H2029 C2049 0.950 . S
H2030 C2051 0.950 . S
H2031 C2054 0.950 . S
H2032 C2055 0.950 . S
H2033 C2057 0.950 . S
H2034 C2058 0.950 . S
H2035 C2059 0.951 . S
H2036 C2061 0.951 . S
H2037 C2063 0.950 . S
H2038 C2064 0.950 . S
H2039 C2066 0.950 . S
H2040 C2069 0.950 . S
H2041 C2070 0.949 1_554 S
H2042 C2072 0.950 . S
H2043 C2073 0.950 . S
C2044 H2026 0.951 . S
C2044 C2045 1.366 . S
C2044 C2046 1.388 . S
C2045 C2044 1.366 . S
C2045 C2049 1.385 . S
C2046 H2027 0.951 . S
C2046 C2044 1.388 . S
C2046 C2047 1.366 . S
C2047 C2046 1.366 . S
C2047 C2048 1.414 . S
C2047 C2050 1.499 . S
C2048 H2028 0.950 . S
C2048 C2047 1.414 . S
C2048 C2049 1.374 . S
C2049 H2029 0.950 . S
C2049 C2045 1.385 . S
C2049 C2048 1.374 . S
C2050 C2047 1.499 . S
C2050 C2051 1.373 . S
C2050 C2052 1.389 . S
C2051 H2030 0.950 . S
C2051 C2050 1.373 . S
C2051 C2067 1.377 . S
C2052 C2050 1.389 . S
C2052 C2053 1.524 . S
C2052 C2066 1.377 . S
C2053 C2052 1.524 . S
C2053 C2054 1.397 . S
C2053 C2058 1.363 . S
C2054 H2031 0.950 . S
C2054 C2053 1.397 . S
C2054 C2055 1.334 . S
C2055 H2032 0.950 . S
C2055 C2054 1.334 . S
C2055 C2056 1.287 . S
C2056 C2055 1.287 . S
C2056 C2057 1.524 . S
C2056 H2075 0.913 . S
C2057 H2033 0.950 . S
C2057 C2056 1.524 . S
C2057 C2058 1.415 . S
C2058 H2034 0.950 . S
C2058 C2053 1.363 . S
C2058 C2057 1.415 . S
C2059 H2035 0.951 . S
C2059 C2060 1.366 . S
C2059 C2061 1.388 . S
C2060 C2059 1.366 . S
C2060 C2064 1.385 . S
C2061 H2036 0.951 . S
C2061 C2059 1.388 . S
C2061 C2062 1.366 . S
C2062 C2061 1.366 . S
C2062 C2063 1.414 . S
C2062 C2065 1.499 . S
C2063 H2037 0.950 . S
C2063 C2062 1.414 . S
C2063 C2064 1.374 . S
C2064 H2038 0.950 . S
C2064 C2060 1.385 . S
C2064 C2063 1.374 . S
C2065 C2062 1.499 . S
C2065 C2066 1.373 . S
C2065 C2067 1.389 . S
C2066 H2039 0.950 . S
C2066 C2052 1.377 . S
C2066 C2065 1.373 . S
C2067 C2051 1.377 . S
C2067 C2065 1.389 . S
C2067 C2068 1.524 . S
C2068 C2067 1.524 . S
C2068 C2069 1.397 . S
C2068 C2073 1.363 . S
C2069 H2040 0.950 . S
C2069 C2068 1.397 . S
C2069 C2070 1.334 . S
C2070 H2041 0.949 1_556 S
C2070 C2069 1.334 . S
C2070 C2071 1.287 . S
C2071 C2070 1.287 . S
C2071 C2072 1.524 . S
C2071 H2074 0.999 1_556 S
C2072 H2042 0.950 . S
C2072 C2071 1.524 . S
C2072 C2073 1.415 . S
C2073 H2043 0.950 . S
C2073 C2068 1.363 . S
C2073 C2072 1.415 . S
H2074 C2071 0.999 1_554 S
H2075 C2056 0.913 . S
H2076 C2094 0.951 . S
H2077 C2096 0.951 . S
H2078 C2098 0.950 . S
H2079 C2099 0.950 . S
H2080 C2101 0.950 . S
H2081 C2104 0.950 . S
H2082 C2105 0.950 . S
H2083 C2107 0.950 . S
H2084 C2108 0.950 1_556 S
H2085 C2109 0.951 . S
H2086 C2111 0.951 1_554 S
H2087 C2113 0.950 . S
H2088 C2114 0.950 . S
H2089 C2116 0.950 1_556 S
H2090 C2119 0.950 . S
H2091 C2120 0.950 . S
H2092 C2122 0.950 . S
H2093 C2123 0.950 . S
C2094 H2076 0.951 . S
C2094 C2095 1.366 . S
C2094 C2096 1.388 . S
C2095 C2094 1.366 . S
C2095 C2099 1.385 . S
C2096 H2077 0.951 . S
C2096 C2094 1.388 . S
C2096 C2097 1.366 . S
C2097 C2096 1.366 . S
C2097 C2098 1.414 . S
C2097 C2100 1.499 . S
C2098 H2078 0.950 . S
C2098 C2097 1.414 . S
C2098 C2099 1.374 . S
C2099 H2079 0.950 . S
C2099 C2095 1.385 . S
C2099 C2098 1.374 . S
C2100 C2097 1.499 . S
C2100 C2101 1.373 1_565 S
C2100 C2102 1.389 . S
C2101 H2080 0.950 . S
C2101 C2100 1.373 1_545 S
C2101 C2117 1.377 . S
C2102 C2100 1.389 . S
C2102 C2103 1.524 . S
C2102 C2116 1.377 . S
C2103 C2102 1.524 . S
C2103 C2104 1.397 . S
C2103 C2108 1.363 . S
C2104 H2081 0.950 . S
C2104 C2103 1.397 . S
C2104 C2105 1.334 . S
C2105 H2082 0.950 . S
C2105 C2104 1.334 . S
C2105 C2106 1.287 . S
C2106 C2105 1.287 . S
C2106 C2107 1.524 1_554 S
C2106 H2125 0.913 . S
C2107 H2083 0.950 . S
C2107 C2106 1.524 1_556 S
C2107 C2108 1.415 1_556 S
C2108 H2084 0.950 1_554 S
C2108 C2103 1.363 . S
C2108 C2107 1.415 1_554 S
C2109 H2085 0.951 . S
C2109 C2110 1.366 . S
C2109 C2111 1.388 . S
C2110 C2109 1.366 . S
C2110 C2114 1.385 . S
C2111 H2086 0.951 1_556 S
C2111 C2109 1.388 . S
C2111 C2112 1.366 . S
C2112 C2111 1.366 . S
C2112 C2113 1.414 . S
C2112 C2115 1.499 1_556 S
C2113 H2087 0.950 . S
C2113 C2112 1.414 . S
C2113 C2114 1.374 . S
C2114 H2088 0.950 . S
C2114 C2110 1.385 . S
C2114 C2113 1.374 . S
C2115 C2112 1.499 1_554 S
C2115 C2116 1.373 1_545 S
C2115 C2117 1.389 . S
C2116 H2089 0.950 1_554 S
C2116 C2102 1.377 . S
C2116 C2115 1.373 1_565 S
C2117 C2101 1.377 . S
C2117 C2115 1.389 . S
C2117 C2118 1.524 . S
C2118 C2117 1.524 . S
C2118 C2119 1.397 . S
C2118 C2123 1.363 . S
C2119 H2090 0.950 . S
C2119 C2118 1.397 . S
C2119 C2120 1.334 . S
C2120 H2091 0.950 . S
C2120 C2119 1.334 . S
C2120 C2121 1.287 . S
C2121 C2120 1.287 . S
C2121 C2122 1.524 . S
C2121 H2124 0.999 . S
C2122 H2092 0.950 . S
C2122 C2121 1.524 . S
C2122 C2123 1.415 . S
C2123 H2093 0.950 . S
C2123 C2118 1.363 . S
C2123 C2122 1.415 . S
H2124 C2121 0.999 . S
H2125 C2106 0.913 . S
H2126 C2144 0.951 . S
H2127 C2146 0.951 . S
H2128 C2148 0.950 . S
H2129 C2149 0.950 . S
H2130 C2151 0.950 . S
H2131 C2154 0.950 . S
H2132 C2155 0.950 1_655 S
H2133 C2157 0.950 . S
H2134 C2158 0.950 . S
H2135 C2159 0.951 . S
H2136 C2161 0.951 . S
H2137 C2163 0.950 . S
H2138 C2164 0.950 . S
H2139 C2166 0.950 . S
H2140 C2169 0.950 . S
H2141 C2170 0.950 . S
H2142 C2172 0.950 . S
H2143 C2173 0.950 . S
C2144 H2126 0.951 . S
C2144 C2145 1.366 . S
C2144 C2146 1.388 . S
C2145 C2144 1.366 . S
C2145 C2149 1.385 . S
C2146 H2127 0.951 . S
C2146 C2144 1.388 . S
C2146 C2147 1.366 . S
C2147 C2146 1.366 . S
C2147 C2148 1.414 . S
C2147 C2150 1.499 . S
C2148 H2128 0.950 . S
C2148 C2147 1.414 . S
C2148 C2149 1.374 . S
C2149 H2129 0.950 . S
C2149 C2145 1.385 . S
C2149 C2148 1.374 . S
C2150 C2147 1.499 . S
C2150 C2151 1.373 1_545 S
C2150 C2152 1.389 . S
C2151 H2130 0.950 . S
C2151 C2150 1.373 1_565 S
C2151 C2167 1.377 . S
C2152 C2150 1.389 . S
C2152 C2153 1.524 . S
C2152 C2166 1.377 . S
C2153 C2152 1.524 . S
C2153 C2154 1.397 . S
C2153 C2158 1.363 . S
C2154 H2131 0.950 . S
C2154 C2153 1.397 . S
C2154 C2155 1.334 . S
C2155 H2132 0.950 1_455 S
C2155 C2154 1.334 . S
C2155 C2156 1.287 . S
C2156 C2155 1.287 . S
C2156 C2157 1.524 . S
C2156 H2175 0.913 . S
C2157 H2133 0.950 . S
C2157 C2156 1.524 . S
C2157 C2158 1.415 . S
C2158 H2134 0.950 . S
C2158 C2153 1.363 . S
C2158 C2157 1.415 . S
C2159 H2135 0.951 . S
C2159 C2160 1.366 . S
C2159 C2161 1.388 . S
C2160 C2159 1.366 . S
C2160 C2164 1.385 . S
C2161 H2136 0.951 . S
C2161 C2159 1.388 . S
C2161 C2162 1.366 . S
C2162 C2161 1.366 . S
C2162 C2163 1.414 . S
C2162 C2165 1.499 . S
C2163 H2137 0.950 . S
C2163 C2162 1.414 . S
C2163 C2164 1.374 . S
C2164 H2138 0.950 . S
C2164 C2160 1.385 . S
C2164 C2163 1.374 . S
C2165 C2162 1.499 . S
C2165 C2166 1.373 1_565 S
C2165 C2167 1.389 . S
C2166 H2139 0.950 . S
C2166 C2152 1.377 . S
C2166 C2165 1.373 1_545 S
C2167 C2151 1.377 . S
C2167 C2165 1.389 . S
C2167 C2168 1.524 . S
C2168 C2167 1.524 . S
C2168 C2169 1.397 . S
C2168 C2173 1.363 . S
C2169 H2140 0.950 . S
C2169 C2168 1.397 . S
C2169 C2170 1.334 . S
C2170 H2141 0.950 . S
C2170 C2169 1.334 . S
C2170 C2171 1.287 . S
C2171 C2170 1.287 . S
C2171 C2172 1.524 . S
C2171 H2174 0.999 . S
C2172 H2142 0.950 . S
C2172 C2171 1.524 . S
C2172 C2173 1.415 . S
C2173 H2143 0.950 . S
C2173 C2168 1.363 . S
C2173 C2172 1.415 . S
H2174 C2171 0.999 . S
H2175 C2156 0.913 . S
C595 C338 1.345 . S
C610 C14 1.344 . S
C645 C518 1.343 . S
C660 C50 1.343 . S
C695 C86 1.344 . S
C710 C302 1.345 . S
C745 C122 1.344 1_554 S
C760 C554 1.345 1_655 S
C795 C158 1.345 . S
C810 C374 1.344 1_554 S
C845 C482 1.343 1_655 S
C860 C194 1.343 . S
C895 C410 1.345 . S
C910 C230 1.344 . S
C945 C266 1.344 . S
C960 C446 1.343 . S
C995 C148 1.452 . S
C1010 C112 1.452 . S
C1045 C436 1.452 . S
C1060 C292 1.452 . S
C1095 C220 1.452 . S
C1110 C40 1.452 . S
C1145 C328 1.453 . S
C1160 C472 1.452 . S
C1195 C4 1.452 . S
C1210 C184 1.452 . S
C1245 C544 1.452 . S
C1260 C364 1.452 . S
C1295 C256 1.452 . S
C1310 C76 1.452 . S
C1345 C400 1.452 . S
C1360 C508 1.452 . S
C1395 C2 0.253 . S
C1410 C146 0.253 . S
C1445 C182 0.254 . S
C1460 C38 0.254 . S
C1495 C218 0.255 . S
C1510 C74 0.254 . S
C1545 C110 0.254 . S
C1560 C254 0.253 . S
C1595 C362 0.254 . S
C1610 C290 0.254 . S
C1645 C398 0.254 . S
C1660 C326 0.253 . S
C1695 C506 0.254 . S
C1710 C434 0.254 . S
C1745 C542 0.253 . S
C1760 C470 0.253 . S
C1795 C147 1.782 . S
C1810 C3 1.783 . S
C1845 C183 1.782 1_556 S
C1860 C39 1.782 . S
C1895 C219 1.782 . S
C1910 C75 1.782 . S
C1945 C111 1.782 . S
C1960 C255 1.782 . S
C1995 C291 1.782 . S
C2010 C363 1.782 . S
C2045 C399 1.782 . S
C2060 C327 1.782 1_556 S
C2095 C507 1.782 . S
C2110 C435 1.782 . S
C2145 C543 1.782 . S
C2160 C471 1.782 . S
