# Generated by pormake.
# Topology uou, (4)-cn, num edge types: 1
# Building blocks:
#     Node 0, Type 0, BuildingBlock: UXUYUI_clean_sbu_0, # of connection points: 4
#     Node 1, Type 0, BuildingBlock: UXUYUI_clean_sbu_0, # of connection points: 4
#     Node 2, Type 0, BuildingBlock: UXUYUI_clean_sbu_0, # of connection points: 4
#     Node 3, Type 0, BuildingBlock: UXUYUI_clean_sbu_0, # of connection points: 4
#     Node 4, Type 0, BuildingBlock: UXUYUI_clean_sbu_0, # of connection points: 4
#     Node 5, Type 0, BuildingBlock: UXUYUI_clean_sbu_0, # of connection points: 4
#     Node 6, Type 0, BuildingBlock: UXUYUI_clean_sbu_0, # of connection points: 4
#     Node 7, Type 0, BuildingBlock: UXUYUI_clean_sbu_0, # of connection points: 4
#     Node 8, Type 0, BuildingBlock: UXUYUI_clean_sbu_0, # of connection points: 4
#     Node 9, Type 0, BuildingBlock: UXUYUI_clean_sbu_0, # of connection points: 4
#     Node 10, Type 0, BuildingBlock: UXUYUI_clean_sbu_0, # of connection points: 4
#     Node 11, Type 0, BuildingBlock: UXUYUI_clean_sbu_0, # of connection points: 4
#     Node 12, Type 0, BuildingBlock: UXUYUI_clean_sbu_0, # of connection points: 4
#     Node 13, Type 0, BuildingBlock: UXUYUI_clean_sbu_0, # of connection points: 4
#     Node 14, Type 0, BuildingBlock: UXUYUI_clean_sbu_0, # of connection points: 4
#     Node 15, Type 0, BuildingBlock: UXUYUI_clean_sbu_0, # of connection points: 4
#     Edge 16, Type (0, 0), BuildingBlock: OJICUG_clean_linker_0, # of connection points: 2
#     Edge 17, Type (0, 0), BuildingBlock: OJICUG_clean_linker_0, # of connection points: 2
#     Edge 18, Type (0, 0), BuildingBlock: OJICUG_clean_linker_0, # of connection points: 2
#     Edge 19, Type (0, 0), BuildingBlock: OJICUG_clean_linker_0, # of connection points: 2
#     Edge 20, Type (0, 0), BuildingBlock: OJICUG_clean_linker_0, # of connection points: 2
#     Edge 21, Type (0, 0), BuildingBlock: OJICUG_clean_linker_0, # of connection points: 2
#     Edge 22, Type (0, 0), BuildingBlock: OJICUG_clean_linker_0, # of connection points: 2
#     Edge 23, Type (0, 0), BuildingBlock: OJICUG_clean_linker_0, # of connection points: 2
#     Edge 24, Type (0, 0), BuildingBlock: OJICUG_clean_linker_0, # of connection points: 2
#     Edge 25, Type (0, 0), BuildingBlock: OJICUG_clean_linker_0, # of connection points: 2
#     Edge 26, Type (0, 0), BuildingBlock: OJICUG_clean_linker_0, # of connection points: 2
#     Edge 27, Type (0, 0), BuildingBlock: OJICUG_clean_linker_0, # of connection points: 2
#     Edge 28, Type (0, 0), BuildingBlock: OJICUG_clean_linker_0, # of connection points: 2
#     Edge 29, Type (0, 0), BuildingBlock: OJICUG_clean_linker_0, # of connection points: 2
#     Edge 30, Type (0, 0), BuildingBlock: OJICUG_clean_linker_0, # of connection points: 2
#     Edge 31, Type (0, 0), BuildingBlock: OJICUG_clean_linker_0, # of connection points: 2
#     Edge 32, Type (0, 0), BuildingBlock: OJICUG_clean_linker_0, # of connection points: 2
#     Edge 33, Type (0, 0), BuildingBlock: OJICUG_clean_linker_0, # of connection points: 2
#     Edge 34, Type (0, 0), BuildingBlock: OJICUG_clean_linker_0, # of connection points: 2
#     Edge 35, Type (0, 0), BuildingBlock: OJICUG_clean_linker_0, # of connection points: 2
#     Edge 36, Type (0, 0), BuildingBlock: OJICUG_clean_linker_0, # of connection points: 2
#     Edge 37, Type (0, 0), BuildingBlock: OJICUG_clean_linker_0, # of connection points: 2
#     Edge 38, Type (0, 0), BuildingBlock: OJICUG_clean_linker_0, # of connection points: 2
#     Edge 39, Type (0, 0), BuildingBlock: OJICUG_clean_linker_0, # of connection points: 2
#     Edge 40, Type (0, 0), BuildingBlock: OJICUG_clean_linker_0, # of connection points: 2
#     Edge 41, Type (0, 0), BuildingBlock: OJICUG_clean_linker_0, # of connection points: 2
#     Edge 42, Type (0, 0), BuildingBlock: OJICUG_clean_linker_0, # of connection points: 2
#     Edge 43, Type (0, 0), BuildingBlock: OJICUG_clean_linker_0, # of connection points: 2
#     Edge 44, Type (0, 0), BuildingBlock: OJICUG_clean_linker_0, # of connection points: 2
#     Edge 45, Type (0, 0), BuildingBlock: OJICUG_clean_linker_0, # of connection points: 2
#     Edge 46, Type (0, 0), BuildingBlock: OJICUG_clean_linker_0, # of connection points: 2
#     Edge 47, Type (0, 0), BuildingBlock: OJICUG_clean_linker_0, # of connection points: 2
# Relax obj value: 0.194
# Max RMSD: 0.198
# Mean RMSD: 0.197
data_MOF--net-uou--node1-UXUYUI_clean_sbu_0--edge1-OJICUG_clean_linker_0
_symmetry_space_group_name_H-M    P1
_symmetry_Int_Tables_number       1
_symmetry_cell_setting            triclinic
loop_
_symmetry_equiv_pos_as_xyz
'x, y, z'
_cell_length_a     46.85196
_cell_length_b     45.408663
_cell_length_c     64.06803
_cell_angle_alpha  89.996455
_cell_angle_beta   90.009764
_cell_angle_gamma 90.002422
loop_
_atom_site_label
_atom_site_type_symbol
_atom_site_fract_x
_atom_site_fract_y
_atom_site_fract_z
_atom_type_partial_charge
Li0 Li 0.05705 0.04417 0.10192 0.0
Li1 Li 0.09915 0.05308 0.12057 0.0
Li2 Li 0.05391 0.04937 0.13955 0.0
Li3 Li 0.06342 0.09341 0.1157 0.0
C4 C 0.07885 0.98973 0.1204 0.0
N5 N 0.089 0.93048 0.11379 0.0
C6 C 0.10225 0.98071 0.10846 0.0
C7 C 0.06087 0.96856 0.12923 0.0
C8 C 0.10696 0.95067 0.10524 0.0
C9 C 0.06627 0.93873 0.12563 0.0
C10 C 0.08995 0.07117 0.07358 0.0
C11 C 0.08108 0.08999 0.03896 0.0
N12 N 0.09289 0.06524 0.03069 0.0
C13 C 0.10246 0.04618 0.06473 0.0
C14 C 0.07954 0.09347 0.0606 0.0
C15 C 0.10356 0.04349 0.04302 0.0
C16 C 0.02553 0.04555 0.06568 0.0
N17 N 0.04024 0.02637 0.07791 0.0
C18 C 0.03405 0.98802 0.0528 0.0
C19 C 0.04418 0.99786 0.07207 0.0
C20 C 0.02004 0.00782 0.03946 0.0
C21 C 0.01537 0.03678 0.04623 0.0
H22 H 0.02267 0.06807 0.07074 0.0
H23 H 0.05583 0.98292 0.08194 0.0
C24 C 0.14587 0.02396 0.13828 0.0
N25 N 0.13829 0.04313 0.12297 0.0
C26 C 0.17361 0.01291 0.13918 0.0
C27 C 0.1854 0.04216 0.10883 0.0
C28 C 0.15739 0.05267 0.10853 0.0
C29 C 0.19369 0.02161 0.1241 0.0
H30 H 0.13001 0.01645 0.14934 0.0
H31 H 0.15065 0.0678 0.09646 0.0
C32 C 0.00226 0.05703 0.1156 0.0
N33 N 0.94773 0.03495 0.11068 0.0
C34 C 0.9803 0.07532 0.10853 0.0
C35 C 0.99649 0.02756 0.12019 0.0
C36 C 0.95287 0.06373 0.10614 0.0
C37 C 0.96879 0.01679 0.11759 0.0
C38 C 0.10742 0.08733 0.15282 0.0
C39 C 0.1131 0.07319 0.17174 0.0
C40 C 0.12735 0.10699 0.1445 0.0
C41 C 0.13882 0.07888 0.18202 0.0
C42 C 0.15282 0.11206 0.15525 0.0
N43 N 0.15799 0.09802 0.17362 0.0
C44 C 0.04694 0.01806 0.17744 0.0
C45 C 0.01461 0.05732 0.17126 0.0
C46 C 0.03632 0.01443 0.19767 0.0
N47 N 0.03628 0.0396 0.16495 0.0
C48 C 0.0034 0.05449 0.19128 0.0
C49 C 0.01482 0.03339 0.20496 0.0
H50 H 0.06456 0.00467 0.17205 0.0
H51 H 0.00686 0.07447 0.161 0.0
C52 C 0.03344 0.13932 0.09741 0.0
N53 N 0.05319 0.13345 0.11236 0.0
C54 C 0.0213 0.16728 0.09589 0.0
C55 C 0.05041 0.18284 0.12504 0.0
C56 C 0.06202 0.1545 0.12599 0.0
C57 C 0.02939 0.18938 0.11004 0.0
H58 H 0.02631 0.12189 0.08716 0.0
H59 H 0.07729 0.14903 0.13803 0.0
O60 O 0.07401 0.01902 0.12404 0.0
O61 O 0.08792 0.07384 0.09482 0.0
O62 O 0.02932 0.06788 0.11785 0.0
O63 O 0.08276 0.08144 0.14223 0.0
H64 H 0.11668 0.99662 0.10174 0.0
H65 H 0.04297 0.97503 0.13885 0.0
H66 H 0.12492 0.94342 0.09596 0.0
H67 H 0.05245 0.92213 0.13231 0.0
H68 H 0.07287 0.10695 0.02874 0.0
H69 H 0.11091 0.02889 0.07449 0.0
H70 H 0.07027 0.11319 0.06715 0.0
H71 H 0.11287 0.02409 0.03598 0.0
H72 H 0.03808 0.96551 0.04805 0.0
H73 H 0.00431 0.05257 0.03648 0.0
H74 H 0.17894 0.99687 0.15106 0.0
H75 H 0.20031 0.04977 0.09709 0.0
H76 H 0.98437 0.09822 0.10496 0.0
H77 H 0.01326 0.01316 0.12562 0.0
H78 H 0.93566 0.07763 0.10069 0.0
H79 H 0.96405 0.99399 0.12106 0.0
H80 H 0.09792 0.05782 0.17832 0.0
H81 H 0.12331 0.1179 0.12977 0.0
H82 H 0.14358 0.06802 0.19664 0.0
H83 H 0.16853 0.12709 0.14895 0.0
H84 H 0.04586 0.9981 0.20783 0.0
H85 H 0.98659 0.0693 0.19624 0.0
H86 H 0.00486 0.17112 0.08432 0.0
H87 H 0.05743 0.19929 0.13615 0.0
Li88 Li 0.4399 0.90318 0.11312 0.0
Li89 Li 0.44769 0.94662 0.13638 0.0
Li90 Li 0.40265 0.94274 0.11738 0.0
Li91 Li 0.44544 0.95324 0.09965 0.0
C92 C 0.39536 0.91008 0.15072 0.0
N93 N 0.3461 0.90253 0.17378 0.0
C94 C 0.39086 0.92671 0.16878 0.0
C95 C 0.37485 0.88961 0.14438 0.0
C96 C 0.36581 0.92255 0.18024 0.0
C97 C 0.35006 0.88612 0.15625 0.0
C98 C 0.49944 0.92949 0.12428 0.0
C99 C 0.5427 0.95455 0.13429 0.0
N100 N 0.55175 0.92974 0.14418 0.0
C101 C 0.50925 0.90417 0.1344 0.0
C102 C 0.51635 0.95483 0.12409 0.0
C103 C 0.53572 0.90477 0.14443 0.0
C104 C 0.47285 0.85817 0.09655 0.0
N105 N 0.45056 0.86328 0.10962 0.0
C106 C 0.45084 0.81311 0.12083 0.0
C107 C 0.43926 0.84147 0.12155 0.0
C108 C 0.47445 0.80732 0.10788 0.0
C109 C 0.48515 0.83025 0.09539 0.0
H110 H 0.48197 0.8762 0.08776 0.0
H111 H 0.42195 0.8463 0.13216 0.0
C112 C 0.46464 0.98368 0.17049 0.0
N113 N 0.46363 0.95588 0.16263 0.0
C114 C 0.47323 0.98833 0.19114 0.0
C115 C 0.48014 0.93579 0.1948 0.0
C116 C 0.47124 0.93218 0.17426 0.0
C117 C 0.48059 0.96407 0.20369 0.0
H118 H 0.45777 0.00206 0.16101 0.0
H119 H 0.4695 0.9103 0.16773 0.0
C120 C 0.41324 0.92698 0.07081 0.0
N121 N 0.40937 0.93644 0.0283 0.0
C122 C 0.39232 0.9458 0.06281 0.0
C123 C 0.43202 0.91276 0.05719 0.0
C124 C 0.39071 0.9503 0.04126 0.0
C125 C 0.42981 0.91795 0.03575 0.0
C126 C 0.42923 0.0058 0.11452 0.0
C127 C 0.40562 0.02009 0.10583 0.0
C128 C 0.45522 0.02069 0.11618 0.0
C129 C 0.40857 0.04898 0.09864 0.0
C130 C 0.45731 0.04955 0.10878 0.0
N131 N 0.43414 0.06297 0.10023 0.0
C132 C 0.35641 0.97282 0.13394 0.0
C133 C 0.34303 0.93852 0.10781 0.0
C134 C 0.32838 0.98279 0.13565 0.0
N135 N 0.36322 0.95148 0.11994 0.0
C136 C 0.31464 0.94787 0.10897 0.0
C137 C 0.30712 0.97064 0.12282 0.0
H138 H 0.373 0.98272 0.14336 0.0
H139 H 0.34908 0.92142 0.09692 0.0
C140 C 0.4874 0.96284 0.06931 0.0
N141 N 0.46144 0.97249 0.07585 0.0
C142 C 0.49839 0.97206 0.05016 0.0
C143 C 0.45608 0.00164 0.04505 0.0
C144 C 0.44592 0.99184 0.06429 0.0
C145 C 0.48239 0.99126 0.03757 0.0
H146 H 0.49904 0.94694 0.07853 0.0
H147 H 0.4249 0.99835 0.06933 0.0
O148 O 0.41932 0.91446 0.13896 0.0
O149 O 0.47343 0.92948 0.11457 0.0
O150 O 0.41545 0.92267 0.09188 0.0
O151 O 0.42672 0.97759 0.12177 0.0
H152 H 0.40638 0.94287 0.17379 0.0
H153 H 0.37783 0.87689 0.13026 0.0
H154 H 0.36199 0.93532 0.19421 0.0
H155 H 0.33392 0.87048 0.15148 0.0
H156 H 0.55598 0.97404 0.13432 0.0
H157 H 0.4964 0.88439 0.13478 0.0
H158 H 0.50925 0.97447 0.11608 0.0
H159 H 0.54349 0.8854 0.15245 0.0
H160 H 0.44171 0.79605 0.13057 0.0
H161 H 0.50363 0.82704 0.08551 0.0
H162 H 0.473 0.01045 0.19745 0.0
H163 H 0.48607 0.91651 0.20375 0.0
H164 H 0.37781 0.95724 0.07313 0.0
H165 H 0.44835 0.89817 0.06312 0.0
H166 H 0.37477 0.96497 0.03487 0.0
H167 H 0.44437 0.9073 0.02504 0.0
H168 H 0.38535 0.00889 0.10435 0.0
H169 H 0.47357 0.01008 0.1231 0.0
H170 H 0.39054 0.06024 0.09174 0.0
H171 H 0.47735 0.06129 0.10987 0.0
H172 H 0.32366 0.00057 0.14636 0.0
H173 H 0.29883 0.93761 0.09902 0.0
H174 H 0.5189 0.96374 0.04507 0.0
H175 H 0.44278 0.01599 0.03569 0.0
Li176 Li 0.59551 0.94268 0.37511 0.0
Li177 Li 0.55286 0.95112 0.39352 0.0
Li178 Li 0.55848 0.90305 0.37871 0.0
Li179 Li 0.55044 0.94917 0.35584 0.0
C180 C 0.59016 0.9255 0.42055 0.0
N181 N 0.60363 0.9351 0.46198 0.0
C182 C 0.60263 0.95205 0.42671 0.0
C183 C 0.58491 0.90363 0.43542 0.0
C184 C 0.60917 0.95656 0.44773 0.0
C185 C 0.59178 0.90895 0.4563 0.0
C186 C 0.57174 0.00716 0.37494 0.0
C187 C 0.55129 0.05496 0.36816 0.0
N188 N 0.57312 0.06776 0.37882 0.0
C189 C 0.59421 0.02082 0.38555 0.0
C190 C 0.55031 0.02438 0.36591 0.0
C191 C 0.59443 0.05147 0.38745 0.0
C192 C 0.6417 0.973 0.35857 0.0
N193 N 0.63472 0.95234 0.37302 0.0
C194 C 0.6826 0.95136 0.38577 0.0
C195 C 0.65449 0.94107 0.38632 0.0
C196 C 0.69028 0.97342 0.3714 0.0
C197 C 0.66947 0.98389 0.35746 0.0
H198 H 0.62538 0.98166 0.34831 0.0
H199 H 0.64828 0.92463 0.39766 0.0
C200 C 0.52617 0.94778 0.43188 0.0
N201 N 0.53684 0.96794 0.41828 0.0
C202 C 0.51528 0.9566 0.45109 0.0
C203 C 0.52589 0.00705 0.4419 0.0
C204 C 0.53665 0.99719 0.42281 0.0
C205 C 0.51523 0.98658 0.45639 0.0
H206 H 0.5266 0.92465 0.42789 0.0
H207 H 0.54497 0.01294 0.41181 0.0
C208 C 0.60407 0.9058 0.34474 0.0
N209 N 0.65601 0.88627 0.32978 0.0
C210 C 0.61517 0.91736 0.32623 0.0
C211 C 0.61933 0.88426 0.35562 0.0
C212 C 0.64148 0.9072 0.31893 0.0
C213 C 0.64556 0.87468 0.3478 0.0
C214 C 0.49911 0.93728 0.38474 0.0
C215 C 0.48261 0.91661 0.3955 0.0
C216 C 0.48949 0.96631 0.38303 0.0
C217 C 0.45699 0.92549 0.40471 0.0
C218 C 0.46377 0.97434 0.39247 0.0
N219 N 0.4482 0.95394 0.40305 0.0
C220 C 0.53542 0.85397 0.39901 0.0
C221 C 0.55141 0.84431 0.36459 0.0
C222 C 0.52363 0.82582 0.40049 0.0
N223 N 0.54857 0.86274 0.38117 0.0
C224 C 0.54012 0.81584 0.36544 0.0
C225 C 0.52545 0.80645 0.38342 0.0
H226 H 0.53289 0.86937 0.41175 0.0
H227 H 0.56161 0.85204 0.35048 0.0
C228 C 0.55164 0.97376 0.31572 0.0
N229 N 0.53427 0.96208 0.33054 0.0
C230 C 0.54135 0.97863 0.29556 0.0
C231 C 0.49497 0.96157 0.3069 0.0
C232 C 0.50627 0.95661 0.32672 0.0
C233 C 0.51285 0.97162 0.29076 0.0
H234 H 0.57382 0.97794 0.31932 0.0
H235 H 0.493 0.94721 0.3388 0.0
O236 O 0.58299 0.92097 0.40009 0.0
O237 O 0.57125 0.9772 0.37273 0.0
O238 O 0.57886 0.91613 0.35259 0.0
O239 O 0.5246 0.92921 0.37599 0.0
H240 H 0.60691 0.9691 0.41539 0.0
H241 H 0.57556 0.88282 0.4309 0.0
H242 H 0.61862 0.97712 0.45273 0.0
H243 H 0.58769 0.8923 0.468 0.0
H244 H 0.53476 0.06853 0.36135 0.0
H245 H 0.61139 0.00798 0.39218 0.0
H246 H 0.53319 0.01429 0.35714 0.0
H247 H 0.61161 0.06231 0.39571 0.0
H248 H 0.69806 0.94238 0.3966 0.0
H249 H 0.67431 0.00111 0.34631 0.0
H250 H 0.50766 0.94001 0.46187 0.0
H251 H 0.52588 0.03042 0.44526 0.0
H252 H 0.60369 0.9341 0.31766 0.0
H253 H 0.61114 0.87533 0.3701 0.0
H254 H 0.65039 0.91602 0.30465 0.0
H255 H 0.65767 0.85813 0.35611 0.0
H256 H 0.48951 0.89398 0.39678 0.0
H257 H 0.50192 0.98252 0.37471 0.0
H258 H 0.44409 0.90976 0.41318 0.0
H259 H 0.45622 0.9968 0.39141 0.0
H260 H 0.51216 0.81983 0.41453 0.0
H261 H 0.54245 0.80156 0.35202 0.0
H262 H 0.55601 0.98618 0.28364 0.0
H263 H 0.47273 0.95648 0.30407 0.0
Li264 Li 0.9397 0.05106 0.39463 0.0
Li265 Li 0.89728 0.05861 0.37599 0.0
Li266 Li 0.9427 0.05406 0.35689 0.0
Li267 Li 0.93303 0.09935 0.3802 0.0
C268 C 0.92038 0.99507 0.37629 0.0
N269 N 0.91561 0.9349 0.38181 0.0
C270 C 0.89739 0.98337 0.38747 0.0
C271 C 0.94065 0.9761 0.3676 0.0
C272 C 0.89544 0.95291 0.39017 0.0
C273 C 0.93795 0.94576 0.37066 0.0
C274 C 0.90378 0.07685 0.42217 0.0
C275 C 0.9061 0.09516 0.45748 0.0
N276 N 0.89512 0.06926 0.4645 0.0
C277 C 0.89212 0.05062 0.42971 0.0
C278 C 0.9105 0.09948 0.43613 0.0
C279 C 0.88806 0.04711 0.45117 0.0
C280 C 0.96767 0.0542 0.43253 0.0
N281 N 0.95639 0.03417 0.41909 0.0
C282 C 0.96666 0.99504 0.44287 0.0
C283 C 0.95608 0.00494 0.42374 0.0
C284 C 0.97746 0.01546 0.4573 0.0
C285 C 0.97823 0.04534 0.45183 0.0
H286 H 0.96782 0.07728 0.42839 0.0
H287 H 0.94722 0.98929 0.41291 0.0
C288 C 0.8515 0.02786 0.35877 0.0
N289 N 0.85829 0.04804 0.37362 0.0
C290 C 0.82387 0.01657 0.35756 0.0
C291 C 0.81057 0.0476 0.38665 0.0
C292 C 0.83851 0.05832 0.38729 0.0
C293 C 0.80306 0.0261 0.37182 0.0
H294 H 0.86785 0.01986 0.34829 0.0
H295 H 0.84461 0.07432 0.39898 0.0
C296 C 0.99372 0.06461 0.38418 0.0
N297 N 0.04635 0.04502 0.39782 0.0
C298 C 0.01149 0.0833 0.39566 0.0
C299 C 0.00285 0.03611 0.37944 0.0
C300 C 0.03799 0.07294 0.40247 0.0
C301 C 0.02948 0.02656 0.38653 0.0
C302 C 0.88867 0.09277 0.34383 0.0
C303 C 0.88135 0.07826 0.32537 0.0
C304 C 0.87004 0.11354 0.35239 0.0
C305 C 0.8553 0.0847 0.31578 0.0
C306 C 0.84419 0.11936 0.34233 0.0
N307 N 0.83742 0.10492 0.32439 0.0
C308 C 0.94713 0.02289 0.31886 0.0
C309 C 0.98355 0.0579 0.3257 0.0
C310 C 0.95766 0.01829 0.29872 0.0
N311 N 0.95987 0.04286 0.33163 0.0
C312 C 0.99477 0.05402 0.30577 0.0
C313 C 0.9813 0.03464 0.2918 0.0
H314 H 0.92805 0.01158 0.324 0.0
H315 H 0.993 0.07382 0.33619 0.0
C316 C 0.95815 0.14781 0.39968 0.0
N317 N 0.94245 0.13972 0.3828 0.0
C318 C 0.97005 0.17593 0.40081 0.0
C319 C 0.9486 0.18723 0.36743 0.0
C320 C 0.93719 0.15879 0.36692 0.0
C321 C 0.96582 0.19593 0.38435 0.0
H322 H 0.96254 0.13192 0.41183 0.0
H323 H 0.92506 0.15157 0.3535 0.0
O324 O 0.92261 0.02481 0.37327 0.0
O325 O 0.90859 0.08042 0.40125 0.0
O326 O 0.96744 0.07406 0.3777 0.0
O327 O 0.91363 0.08613 0.35382 0.0
H328 H 0.88112 0.99755 0.3939 0.0
H329 H 0.95823 0.98465 0.3585 0.0
H330 H 0.87782 0.94359 0.39886 0.0
H331 H 0.95357 0.93085 0.36411 0.0
H332 H 0.91141 0.11239 0.46847 0.0
H333 H 0.88659 0.03303 0.41914 0.0
H334 H 0.91911 0.12011 0.43055 0.0
H335 H 0.87934 0.02678 0.45723 0.0
H336 H 0.96562 0.97179 0.44657 0.0
H337 H 0.9868 0.06172 0.46241 0.0
H338 H 0.81918 0.99978 0.34606 0.0
H339 H 0.79509 0.05585 0.39776 0.0
H340 H 0.0049 0.1055 0.39934 0.0
H341 H 0.98942 0.02148 0.37049 0.0
H342 H 0.0519 0.08711 0.41145 0.0
H343 H 0.03673 0.00448 0.38306 0.0
H344 H 0.89551 0.06202 0.31863 0.0
H345 H 0.87537 0.12478 0.36678 0.0
H346 H 0.84927 0.07355 0.30152 0.0
H347 H 0.82948 0.13527 0.34881 0.0
H348 H 0.94654 0.00337 0.28835 0.0
H349 H 0.01324 0.06676 0.30109 0.0
H350 H 0.9835 0.18142 0.41399 0.0
H351 H 0.94446 0.20202 0.35452 0.0
Li352 Li 0.9349 0.90191 0.87234 0.0
Li353 Li 0.94494 0.94595 0.89267 0.0
Li354 Li 0.89836 0.94234 0.87505 0.0
Li355 Li 0.94166 0.94992 0.85582 0.0
C356 C 0.8938 0.89722 0.90424 0.0
N357 N 0.85188 0.85873 0.91748 0.0
C358 C 0.88786 0.89425 0.9255 0.0
C359 C 0.87841 0.88064 0.88969 0.0
C360 C 0.86659 0.87465 0.93189 0.0
C361 C 0.85731 0.8613 0.8967 0.0
C362 C 0.99597 0.92703 0.87981 0.0
C363 C 0.04062 0.95203 0.88581 0.0
N364 N 0.05007 0.92842 0.89691 0.0
C365 C 0.00623 0.90288 0.89106 0.0
C366 C 0.01336 0.95169 0.87696 0.0
C367 C 0.0336 0.90406 0.89967 0.0
C368 C 0.95645 0.85188 0.85247 0.0
N369 N 0.94442 0.86126 0.87058 0.0
C370 C 0.9546 0.81513 0.88695 0.0
C371 C 0.94325 0.84356 0.88769 0.0
C372 C 0.96741 0.80494 0.86848 0.0
C373 C 0.96787 0.82357 0.85099 0.0
H374 H 0.95837 0.86687 0.83947 0.0
H375 H 0.93458 0.85187 0.90216 0.0
C376 C 0.96283 0.98685 0.92331 0.0
N377 N 0.96235 0.95798 0.91781 0.0
C378 C 0.97345 0.99526 0.94277 0.0
C379 C 0.9831 0.94405 0.95038 0.0
C380 C 0.97203 0.93664 0.93087 0.0
C381 C 0.98361 0.9737 0.95667 0.0
H382 H 0.95418 0.00327 0.91288 0.0
H383 H 0.97062 0.91377 0.92628 0.0
C384 C 0.90395 0.92677 0.82974 0.0
N385 N 0.89229 0.94169 0.78877 0.0
C386 C 0.88627 0.95074 0.82523 0.0
C387 C 0.91561 0.91033 0.81338 0.0
C388 C 0.88058 0.95789 0.80443 0.0
C389 C 0.90954 0.91828 0.79279 0.0
C390 C 0.92704 0.00439 0.86917 0.0
C391 C 0.90321 0.01932 0.86136 0.0
C392 C 0.95363 0.01834 0.86931 0.0
C393 C 0.90649 0.04787 0.85359 0.0
C394 C 0.95603 0.04688 0.86136 0.0
N395 N 0.93261 0.06093 0.85373 0.0
C396 C 0.85375 0.97495 0.89139 0.0
C397 C 0.83837 0.93937 0.86675 0.0
C398 C 0.82623 0.9864 0.8929 0.0
N399 N 0.85937 0.95239 0.87811 0.0
C400 C 0.81043 0.95004 0.86786 0.0
C401 C 0.80418 0.9743 0.88075 0.0
H402 H 0.87097 0.98482 0.9002 0.0
H403 H 0.84349 0.92132 0.85639 0.0
C404 C 0.97904 0.9484 0.82287 0.0
N405 N 0.9577 0.96538 0.83071 0.0
C406 C 0.98886 0.95291 0.80262 0.0
C407 C 0.95581 0.9935 0.79917 0.0
C408 C 0.94633 0.98797 0.81947 0.0
C409 C 0.97666 0.97518 0.79037 0.0
H410 H 0.98722 0.93015 0.83189 0.0
H411 H 0.92863 0.00042 0.82555 0.0
O412 O 0.91448 0.91644 0.89783 0.0
O413 O 0.96915 0.9264 0.87141 0.0
O414 O 0.91046 0.92004 0.85003 0.0
O415 O 0.92421 0.97655 0.87706 0.0
H416 H 0.89959 0.90696 0.93694 0.0
H417 H 0.88272 0.88258 0.87317 0.0
H418 H 0.86177 0.87211 0.9483 0.0
H419 H 0.84524 0.84832 0.88562 0.0
H420 H 0.05428 0.97102 0.88381 0.0
H421 H 0.9931 0.88354 0.8933 0.0
H422 H 0.00596 0.97029 0.86793 0.0
H423 H 0.04174 0.88563 0.90856 0.0
H424 H 0.95379 0.80144 0.90078 0.0
H425 H 0.97807 0.81681 0.8366 0.0
H426 H 0.97282 0.0183 0.9471 0.0
H427 H 0.99094 0.9267 0.96046 0.0
H428 H 0.87749 0.9641 0.83762 0.0
H429 H 0.92939 0.89179 0.8165 0.0
H430 H 0.86709 0.97651 0.80075 0.0
H431 H 0.91861 0.90588 0.77999 0.0
H432 H 0.88246 0.00893 0.86111 0.0
H433 H 0.97219 0.00726 0.87551 0.0
H434 H 0.88827 0.05962 0.84741 0.0
H435 H 0.97651 0.05788 0.8613 0.0
H436 H 0.82258 0.00529 0.90286 0.0
H437 H 0.79401 0.93969 0.85849 0.0
H438 H 0.00502 0.93837 0.79628 0.0
H439 H 0.94565 0.01058 0.79 0.0
Li440 Li 0.56151 0.10022 0.87235 0.0
Li441 Li 0.554 0.05578 0.89074 0.0
Li442 Li 0.60007 0.06525 0.87506 0.0
Li443 Li 0.55825 0.05568 0.85324 0.0
C444 C 0.57266 0.1024 0.91524 0.0
N445 N 0.55423 0.13223 0.95033 0.0
C446 C 0.54439 0.11205 0.91667 0.0
C447 C 0.59154 0.10791 0.93166 0.0
C448 C 0.53549 0.12709 0.93453 0.0
C449 C 0.58182 0.12303 0.94927 0.0
C450 C 0.50351 0.05789 0.86845 0.0
C451 C 0.47922 0.01108 0.8672 0.0
N452 N 0.45387 0.02535 0.86504 0.0
C453 C 0.47722 0.07208 0.86623 0.0
C454 C 0.50454 0.02711 0.86896 0.0
C455 C 0.45237 0.05526 0.86453 0.0
C456 C 0.52694 0.14481 0.85791 0.0
N457 N 0.5499 0.14032 0.87044 0.0
C458 C 0.54996 0.19094 0.88062 0.0
C459 C 0.56185 0.16271 0.8815 0.0
C460 C 0.5256 0.19604 0.86827 0.0
C461 C 0.51435 0.17255 0.85662 0.0
H462 H 0.51795 0.12656 0.84929 0.0
H463 H 0.58019 0.15852 0.89131 0.0
C464 C 0.55393 0.0209 0.92646 0.0
N465 N 0.53733 0.03921 0.9149 0.0
C466 C 0.54473 0.01141 0.94604 0.0
C467 C 0.50124 0.0393 0.94117 0.0
C468 C 0.51124 0.04817 0.92167 0.0
C469 C 0.5183 0.02111 0.95378 0.0
H470 H 0.57481 0.01463 0.92077 0.0
H471 H 0.49867 0.06314 0.91232 0.0
C472 C 0.59942 0.11316 0.84422 0.0
N473 N 0.62175 0.1675 0.83372 0.0
C474 C 0.59211 0.12639 0.82526 0.0
C475 C 0.61816 0.12754 0.85781 0.0
C476 C 0.60361 0.15388 0.82025 0.0
C477 C 0.62921 0.155 0.85222 0.0
C478 C 0.59203 0.00679 0.86376 0.0
C479 C 0.60704 0.01294 0.8454 0.0
C480 C 0.59319 0.97853 0.87234 0.0
C481 C 0.62293 0.99062 0.83591 0.0
C482 C 0.6093 0.9568 0.86237 0.0
N483 N 0.62372 0.96325 0.84452 0.0
C484 C 0.64668 0.03984 0.89482 0.0
C485 C 0.65806 0.0615 0.86219 0.0
C486 C 0.67388 0.02746 0.89621 0.0
N487 N 0.63928 0.05613 0.87789 0.0
C488 C 0.68555 0.04969 0.86299 0.0
C489 C 0.69359 0.03187 0.87997 0.0
H490 H 0.63096 0.03532 0.90676 0.0
H491 H 0.65133 0.07386 0.84863 0.0
C492 C 0.53764 0.06245 0.81397 0.0
N493 N 0.54514 0.04071 0.8274 0.0
C494 C 0.52975 0.05576 0.79361 0.0
C495 C 0.53563 0.00402 0.80155 0.0
C496 C 0.54369 0.01181 0.82185 0.0
C497 C 0.5292 0.02628 0.78706 0.0
H498 H 0.53805 0.0851 0.81913 0.0
H499 H 0.54915 0.99487 0.83301 0.0
O500 O 0.58196 0.08739 0.89802 0.0
O501 O 0.52792 0.0743 0.87013 0.0
O502 O 0.58786 0.08661 0.84975 0.0
O503 O 0.57679 0.02835 0.87367 0.0
H504 H 0.52944 0.10798 0.90415 0.0
H505 H 0.61348 0.10051 0.93081 0.0
H506 H 0.51367 0.13467 0.93584 0.0
H507 H 0.59621 0.12744 0.96211 0.0
H508 H 0.47971 0.98726 0.86756 0.0
H509 H 0.47604 0.09589 0.86586 0.0
H510 H 0.52457 0.01562 0.87072 0.0
H511 H 0.43188 0.06597 0.86281 0.0
H512 H 0.55961 0.2085 0.88961 0.0
H513 H 0.49543 0.17525 0.8471 0.0
H514 H 0.55865 0.99765 0.95537 0.0
H515 H 0.48061 0.04701 0.94649 0.0
H516 H 0.57779 0.1156 0.81448 0.0
H517 H 0.62381 0.11777 0.87266 0.0
H518 H 0.59811 0.16439 0.80564 0.0
H519 H 0.64362 0.16643 0.86264 0.0
H520 H 0.60648 0.03467 0.83853 0.0
H521 H 0.5818 0.97349 0.8866 0.0
H522 H 0.63466 0.99507 0.82172 0.0
H523 H 0.61038 0.93483 0.86884 0.0
H524 H 0.67891 0.01352 0.90942 0.0
H525 H 0.70013 0.05398 0.85024 0.0
H526 H 0.52412 0.07349 0.78307 0.0
H527 H 0.53513 0.98103 0.79707 0.0
Li528 Li 0.40099 0.05471 0.62435 0.0
Li529 Li 0.44456 0.04517 0.6414 0.0
Li530 Li 0.43605 0.09478 0.62514 0.0
Li531 Li 0.44357 0.04889 0.60423 0.0
C532 C 0.39237 0.08637 0.65919 0.0
N533 N 0.34463 0.1074 0.6797 0.0
C534 C 0.37525 0.06724 0.67085 0.0
C535 C 0.38522 0.11622 0.65802 0.0
C536 C 0.3512 0.07829 0.68108 0.0
C537 C 0.361 0.12642 0.66849 0.0
C538 C 0.42886 0.99354 0.63254 0.0
C539 C 0.45808 0.95173 0.64167 0.0
N540 N 0.43818 0.94329 0.65592 0.0
C541 C 0.4087 0.98444 0.64729 0.0
C542 C 0.45375 0.97705 0.62969 0.0
C543 C 0.4138 0.95897 0.65894 0.0
C544 C 0.35542 0.01722 0.6162 0.0
N545 N 0.361 0.04498 0.623 0.0
C546 C 0.31105 0.05442 0.62701 0.0
C547 C 0.33943 0.06389 0.6278 0.0
C548 C 0.30484 0.0254 0.62087 0.0
C549 C 0.32748 0.00686 0.61517 0.0
H550 H 0.37274 0.00287 0.61171 0.0
H551 H 0.34415 0.08629 0.63226 0.0
C552 C 0.49138 0.02594 0.66607 0.0
N553 N 0.46249 0.02846 0.66532 0.0
C554 C 0.50493 0.01872 0.68479 0.0
C555 C 0.45869 0.01543 0.70133 0.0
C556 C 0.44608 0.0227 0.68231 0.0
C557 C 0.48856 0.01437 0.70291 0.0
H558 H 0.504 0.03099 0.65244 0.0
H559 H 0.42324 0.02515 0.68138 0.0
C560 C 0.39017 0.08359 0.58975 0.0
N561 N 0.33941 0.0889 0.56818 0.0
C562 C 0.3823 0.0622 0.57517 0.0
C563 C 0.37235 0.10774 0.59332 0.0
C564 C 0.3565 0.06526 0.56444 0.0
C565 C 0.34675 0.11002 0.58226 0.0
C566 C 0.49479 0.06934 0.61184 0.0
C567 C 0.50386 0.09564 0.60263 0.0
C568 C 0.51028 0.04347 0.60837 0.0
C569 C 0.52817 0.09557 0.59 0.0
C570 C 0.53444 0.0443 0.59561 0.0
N571 N 0.54281 0.07012 0.58677 0.0
C572 C 0.46464 0.14208 0.64259 0.0
C573 C 0.43954 0.15465 0.61172 0.0
C574 C 0.47732 0.16986 0.64325 0.0
N575 N 0.44651 0.13495 0.62685 0.0
C576 C 0.45152 0.18286 0.61189 0.0
C577 C 0.47118 0.19061 0.62759 0.0
H578 H 0.47023 0.12564 0.65411 0.0
H579 H 0.42553 0.14814 0.59913 0.0
C580 C 0.4586 0.00763 0.57278 0.0
N581 N 0.45784 0.03658 0.57807 0.0
C582 C 0.46806 0.99918 0.55301 0.0
C583 C 0.47551 0.05054 0.54456 0.0
C584 C 0.46575 0.05797 0.56442 0.0
C585 C 0.47665 0.02081 0.53863 0.0
H586 H 0.45149 0.99115 0.58377 0.0
H587 H 0.46417 0.08087 0.56893 0.0
O588 O 0.41626 0.07612 0.64928 0.0
O589 O 0.42452 0.01878 0.62128 0.0
O590 O 0.41495 0.08056 0.60079 0.0
O591 O 0.47069 0.0688 0.62393 0.0
H592 H 0.38006 0.044 0.67165 0.0
H593 H 0.39815 0.13139 0.6491 0.0
H594 H 0.33766 0.06369 0.69002 0.0
H595 H 0.3552 0.14945 0.66769 0.0
H596 H 0.47729 0.93883 0.63968 0.0
H597 H 0.38953 0.99714 0.64998 0.0
H598 H 0.46969 0.98383 0.6185 0.0
H599 H 0.39844 0.95177 0.67046 0.0
H600 H 0.29418 0.06968 0.63107 0.0
H601 H 0.32377 0.98432 0.61038 0.0
H602 H 0.52802 0.0179 0.6853 0.0
H603 H 0.44521 0.0127 0.71492 0.0
H604 H 0.39582 0.04329 0.57234 0.0
H605 H 0.37801 0.12428 0.60476 0.0
H606 H 0.35003 0.04881 0.55319 0.0
H607 H 0.33263 0.12848 0.58494 0.0
H608 H 0.49216 0.11586 0.60499 0.0
H609 H 0.5035 0.02288 0.61521 0.0
H610 H 0.53534 0.11575 0.58272 0.0
H611 H 0.54648 0.0244 0.59269 0.0
H612 H 0.49268 0.17449 0.65544 0.0
H613 H 0.44581 0.1982 0.59965 0.0
H614 H 0.46873 0.97601 0.54905 0.0
H615 H 0.48148 0.06789 0.53381 0.0
Li616 Li 0.05004 0.95203 0.64064 0.0
Li617 Li 0.09621 0.94358 0.62399 0.0
Li618 Li 0.05173 0.94829 0.60336 0.0
Li619 Li 0.06018 0.90353 0.62321 0.0
C620 C 0.06845 0.00527 0.63026 0.0
N621 N 0.06374 0.05944 0.64959 0.0
C622 C 0.09221 0.01801 0.63988 0.0
C623 C 0.04238 0.02023 0.63026 0.0
C624 C 0.08938 0.04539 0.64961 0.0
C625 C 0.0404 0.04754 0.64019 0.0
C626 C 0.09608 0.90859 0.66228 0.0
C627 C 0.12447 0.86732 0.67377 0.0
N628 N 0.12964 0.88142 0.69211 0.0
C629 C 0.10137 0.92249 0.68137 0.0
C630 C 0.10745 0.88062 0.65855 0.0
C631 C 0.11851 0.90848 0.69619 0.0
C632 C 0.00509 0.95804 0.66873 0.0
N633 N 0.03196 0.96767 0.66465 0.0
C634 C 0.0352 0.98989 0.69836 0.0
C635 C 0.04684 0.98395 0.67875 0.0
C636 C 0.00823 0.97853 0.70347 0.0
C637 C 0.99269 0.96333 0.68814 0.0
H638 H 0.99393 0.94472 0.65737 0.0
H639 H 0.06845 0.99067 0.67534 0.0
C640 C 0.14641 0.96293 0.60559 0.0
N641 N 0.13538 0.95431 0.62422 0.0
C642 C 0.17408 0.97416 0.60444 0.0
C643 C 0.17867 0.96713 0.64169 0.0
C644 C 0.15088 0.95605 0.64211 0.0
C645 C 0.19052 0.97667 0.6227 0.0
H646 H 0.13335 0.96176 0.59168 0.0
H647 H 0.14149 0.94967 0.65679 0.0
C648 C 0.00026 0.92786 0.61148 0.0
N649 N 0.95057 0.92809 0.58827 0.0
C650 C 0.99189 0.90263 0.60058 0.0
C651 C 0.98319 0.95307 0.61079 0.0
C652 C 0.96673 0.90322 0.58888 0.0
C653 C 0.9582 0.95279 0.5989 0.0
C654 C 0.10157 0.89958 0.5909 0.0
C655 C 0.09789 0.89073 0.57017 0.0
C656 C 0.12445 0.88846 0.60245 0.0
C657 C 0.11689 0.87043 0.56148 0.0
C658 C 0.14301 0.86824 0.59321 0.0
N659 N 0.13886 0.85968 0.57309 0.0
C660 C 0.03477 0.99054 0.57328 0.0
C661 C 0.02883 0.94052 0.56359 0.0
C662 C 0.02463 0.9998 0.55387 0.0
N663 N 0.03665 0.96136 0.57768 0.0
C664 C 0.01841 0.94875 0.54408 0.0
C665 C 0.01639 0.97875 0.53893 0.0
H666 H 0.04157 0.0066 0.5847 0.0
H667 H 0.03082 0.91746 0.56752 0.0
C668 C 0.03713 0.85475 0.6427 0.0
N669 N 0.0511 0.8629 0.62504 0.0
C670 C 0.02548 0.82657 0.64445 0.0
C671 C 0.04352 0.81542 0.61 0.0
C672 C 0.05473 0.84388 0.60889 0.0
C673 C 0.02815 0.80662 0.6278 0.0
H674 H 0.03408 0.8706 0.6551 0.0
H675 H 0.06531 0.85104 0.59482 0.0
O676 O 0.07077 0.97843 0.62072 0.0
O677 O 0.07895 0.92183 0.64772 0.0
O678 O 0.02506 0.92788 0.62275 0.0
O679 O 0.08313 0.91948 0.59957 0.0
H680 H 0.11259 0.00686 0.63993 0.0
H681 H 0.02385 0.01078 0.62277 0.0
H682 H 0.10755 0.05544 0.6572 0.0
H683 H 0.02031 0.05928 0.64041 0.0
H684 H 0.13348 0.84573 0.67104 0.0
H685 H 0.09258 0.94399 0.68464 0.0
H686 H 0.10304 0.86911 0.64414 0.0
H687 H 0.12295 0.91911 0.71095 0.0
H688 H 0.04799 0.00134 0.70987 0.0
H689 H 0.97177 0.95435 0.6915 0.0
H690 H 0.18216 0.98161 0.58952 0.0
H691 H 0.19068 0.96837 0.65611 0.0
H692 H 0.00482 0.88291 0.60095 0.0
H693 H 0.98923 0.97267 0.61929 0.0
H694 H 0.96009 0.88392 0.58025 0.0
H695 H 0.94487 0.97221 0.59812 0.0
H696 H 0.08047 0.89933 0.56092 0.0
H697 H 0.12805 0.89558 0.61831 0.0
H698 H 0.11419 0.86326 0.5455 0.0
H699 H 0.16077 0.85943 0.602 0.0
H700 H 0.02386 0.02314 0.55046 0.0
H701 H 0.01195 0.93178 0.53318 0.0
H702 H 0.01349 0.82096 0.65834 0.0
H703 H 0.04642 0.80067 0.5969 0.0
Li704 Li 0.56375 0.59725 0.11471 0.0
Li705 Li 0.55371 0.55241 0.13837 0.0
Li706 Li 0.59915 0.55631 0.11926 0.0
Li707 Li 0.55675 0.54876 0.10063 0.0
C708 C 0.6081 0.59104 0.15101 0.0
N709 N 0.6596 0.60332 0.17008 0.0
C710 C 0.61548 0.57695 0.16963 0.0
C711 C 0.62682 0.61144 0.1421 0.0
C712 C 0.64164 0.58345 0.17903 0.0
C713 C 0.65278 0.61733 0.15198 0.0
C714 C 0.50273 0.56283 0.11118 0.0
C715 C 0.467 0.52473 0.10905 0.0
N716 N 0.44979 0.54331 0.09815 0.0
C717 C 0.48461 0.58165 0.10011 0.0
C718 C 0.4938 0.53423 0.11583 0.0
C719 C 0.45796 0.57133 0.0936 0.0
C720 C 0.53854 0.64526 0.09491 0.0
N721 N 0.55466 0.63762 0.11168 0.0
C722 C 0.54967 0.68582 0.12615 0.0
C723 C 0.56068 0.65724 0.12707 0.0
C724 C 0.53206 0.6941 0.10935 0.0
C725 C 0.527 0.6735 0.09339 0.0
H726 H 0.53357 0.62897 0.08315 0.0
H727 H 0.57314 0.65038 0.14043 0.0
C728 C 0.54952 0.52266 0.17695 0.0
N729 N 0.53639 0.54173 0.16372 0.0
C730 C 0.53896 0.51864 0.19715 0.0
C731 C 0.50095 0.55292 0.18919 0.0
C732 C 0.51226 0.55632 0.16923 0.0
C733 C 0.51484 0.53459 0.20365 0.0
H734 H 0.56892 0.51167 0.17213 0.0
H735 H 0.50249 0.57154 0.15839 0.0
C736 C 0.59259 0.57411 0.07288 0.0
N737 N 0.60085 0.56632 0.03053 0.0
C738 C 0.60422 0.54786 0.06535 0.0
C739 C 0.58569 0.59665 0.05891 0.0
C740 C 0.60807 0.54426 0.04388 0.0
C741 C 0.5899 0.59224 0.03755 0.0
C742 C 0.57579 0.49296 0.11925 0.0
C743 C 0.59871 0.48121 0.10803 0.0
C744 C 0.55559 0.47402 0.12807 0.0
C745 C 0.60066 0.45074 0.10539 0.0
C746 C 0.55827 0.44368 0.12507 0.0
N747 N 0.58054 0.43276 0.11387 0.0
C748 C 0.6449 0.52549 0.13658 0.0
C749 C 0.65781 0.5557 0.1079 0.0
C750 C 0.67248 0.51407 0.13771 0.0
N751 N 0.63808 0.54558 0.12167 0.0
C752 C 0.68571 0.54486 0.10846 0.0
C753 C 0.69322 0.52338 0.12331 0.0
H754 H 0.62859 0.51765 0.14716 0.0
H755 H 0.6517 0.57164 0.09618 0.0
C756 C 0.52811 0.5518 0.06306 0.0
N757 N 0.5399 0.53176 0.07625 0.0
C758 C 0.51707 0.54301 0.04388 0.0
C759 C 0.52957 0.49279 0.05236 0.0
C760 C 0.5405 0.50261 0.07142 0.0
C761 C 0.51795 0.51317 0.03821 0.0
H762 H 0.52799 0.57486 0.06726 0.0
H763 H 0.54975 0.48696 0.08207 0.0
O764 O 0.58303 0.58432 0.14122 0.0
O765 O 0.52916 0.57224 0.11735 0.0
O766 O 0.58805 0.5778 0.09383 0.0
O767 O 0.57359 0.52271 0.12222 0.0
H768 H 0.60126 0.561 0.17665 0.0
H769 H 0.62146 0.62232 0.12759 0.0
H770 H 0.6477 0.57264 0.19341 0.0
H771 H 0.66755 0.63296 0.14523 0.0
H772 H 0.4599 0.50257 0.11245 0.0
H773 H 0.49104 0.60393 0.09651 0.0
H774 H 0.50751 0.5195 0.12446 0.0
H775 H 0.44377 0.5856 0.08493 0.0
H776 H 0.55444 0.70107 0.13867 0.0
H777 H 0.51321 0.67865 0.08033 0.0
H778 H 0.55044 0.50452 0.20788 0.0
H779 H 0.48208 0.56529 0.19349 0.0
H780 H 0.6099 0.53034 0.07594 0.0
H781 H 0.57712 0.61731 0.06447 0.0
H782 H 0.61677 0.52391 0.03783 0.0
H783 H 0.58445 0.60941 0.02654 0.0
H784 H 0.61495 0.49536 0.10151 0.0
H785 H 0.5381 0.48262 0.13724 0.0
H786 H 0.61822 0.44138 0.09667 0.0
H787 H 0.54271 0.42879 0.13173 0.0
H788 H 0.67719 0.49732 0.14923 0.0
H789 H 0.70113 0.55296 0.09726 0.0
H790 H 0.50871 0.55958 0.03338 0.0
H791 H 0.5303 0.46951 0.04874 0.0
Li792 Li 0.93582 0.39774 0.11271 0.0
Li793 Li 0.94567 0.44298 0.13483 0.0
Li794 Li 0.89974 0.43776 0.11701 0.0
Li795 Li 0.94113 0.44595 0.09711 0.0
C796 C 0.89292 0.4052 0.15017 0.0
N797 N 0.84286 0.39492 0.17172 0.0
C798 C 0.88754 0.41996 0.1689 0.0
C799 C 0.87294 0.38514 0.14242 0.0
C800 C 0.86208 0.41446 0.17956 0.0
C801 C 0.84772 0.38028 0.15354 0.0
C802 C 0.99691 0.43459 0.11237 0.0
C803 C 0.02944 0.47572 0.11185 0.0
N804 N 0.05178 0.45669 0.11059 0.0
C805 C 0.02016 0.41542 0.11105 0.0
C806 C 0.00154 0.46497 0.11276 0.0
C807 C 0.04776 0.42702 0.11017 0.0
C808 C 0.96742 0.35197 0.09614 0.0
N809 N 0.94655 0.35773 0.11028 0.0
C810 C 0.94884 0.30843 0.1232 0.0
C811 C 0.93696 0.33668 0.12363 0.0
C812 C 0.97089 0.30198 0.109 0.0
C813 C 0.97984 0.3241 0.09515 0.0
H814 H 0.97522 0.36943 0.08618 0.0
H815 H 0.92083 0.34208 0.13507 0.0
C816 C 0.95199 0.47562 0.17208 0.0
N817 N 0.96389 0.45471 0.15966 0.0
C818 C 0.96256 0.48027 0.19221 0.0
C819 C 0.9983 0.44292 0.18574 0.0
C820 C 0.98691 0.43883 0.16589 0.0
C821 C 0.98547 0.4631 0.19947 0.0
H822 H 0.93332 0.4875 0.16677 0.0
H823 H 0.99558 0.42196 0.15582 0.0
C824 C 0.90767 0.41869 0.07045 0.0
N825 N 0.90372 0.42588 0.02772 0.0
C826 C 0.89075 0.44114 0.06211 0.0
C827 C 0.9222 0.39959 0.05705 0.0
C828 C 0.88912 0.4445 0.04046 0.0
C829 C 0.92003 0.40367 0.03549 0.0
C830 C 0.91996 0.50133 0.11474 0.0
C831 C 0.8959 0.51015 0.10343 0.0
C832 C 0.93846 0.52264 0.12279 0.0
C833 C 0.89111 0.54011 0.09997 0.0
C834 C 0.93294 0.5524 0.11899 0.0
N835 N 0.90959 0.56044 0.10773 0.0
C836 C 0.85422 0.46825 0.13494 0.0
C837 C 0.84043 0.43669 0.10723 0.0
C838 C 0.82655 0.47935 0.1365 0.0
N839 N 0.86066 0.44771 0.12026 0.0
C840 C 0.81244 0.44718 0.10824 0.0
C841 C 0.80533 0.46922 0.12277 0.0
H842 H 0.87089 0.47677 0.14494 0.0
H843 H 0.84623 0.42035 0.0957 0.0
C844 C 0.977 0.44595 0.06269 0.0
N845 N 0.95671 0.46257 0.07224 0.0
C846 C 0.98802 0.45436 0.04341 0.0
C847 C 0.95697 0.49686 0.04397 0.0
C848 C 0.94669 0.48772 0.06336 0.0
C849 C 0.97779 0.47997 0.03374 0.0
H850 H 0.98395 0.42555 0.06974 0.0
H851 H 0.93013 0.50023 0.0709 0.0
O852 O 0.9173 0.41093 0.13918 0.0
O853 O 0.96976 0.42356 0.11311 0.0
O854 O 0.91023 0.41562 0.09161 0.0
O855 O 0.92473 0.47213 0.11878 0.0
H856 H 0.90276 0.43564 0.17505 0.0
H857 H 0.87668 0.37381 0.12781 0.0
H858 H 0.85757 0.4258 0.19404 0.0
H859 H 0.83197 0.36495 0.14768 0.0
H860 H 0.03332 0.4992 0.1121 0.0
H861 H 0.01692 0.39182 0.11072 0.0
H862 H 0.98377 0.48005 0.11357 0.0
H863 H 0.06597 0.41245 0.10916 0.0
H864 H 0.94116 0.29197 0.13407 0.0
H865 H 0.9971 0.32033 0.08423 0.0
H866 H 0.95186 0.49582 0.20236 0.0
H867 H 0.01625 0.42954 0.1906 0.0
H868 H 0.87924 0.45601 0.07222 0.0
H869 H 0.93521 0.38197 0.06322 0.0
H870 H 0.87632 0.46196 0.03381 0.0
H871 H 0.93137 0.3892 0.02495 0.0
H872 H 0.88115 0.49408 0.09726 0.0
H873 H 0.95681 0.51632 0.13202 0.0
H874 H 0.87267 0.54721 0.09113 0.0
H875 H 0.94716 0.5691 0.12506 0.0
H876 H 0.82216 0.49654 0.14776 0.0
H877 H 0.79663 0.43843 0.09757 0.0
H878 H 0.00372 0.44048 0.03585 0.0
H879 H 0.94862 0.51683 0.03702 0.0
Li880 Li 0.05282 0.45369 0.3911 0.0
Li881 Li 0.09595 0.4439 0.37346 0.0
Li882 Li 0.05147 0.44728 0.3536 0.0
Li883 Li 0.0596 0.4041 0.37791 0.0
C884 C 0.07476 0.50749 0.37269 0.0
N885 N 0.08278 0.56717 0.37889 0.0
C886 C 0.09821 0.51759 0.38415 0.0
C887 C 0.05567 0.52781 0.3641 0.0
C888 C 0.10182 0.54783 0.38718 0.0
C889 C 0.06 0.55787 0.3675 0.0
C890 C 0.08433 0.42869 0.42027 0.0
C891 C 0.0694 0.41636 0.45521 0.0
N892 N 0.08506 0.43924 0.46273 0.0
C893 C 0.10055 0.45186 0.42836 0.0
C894 C 0.06885 0.41059 0.43379 0.0
C895 C 0.10055 0.45691 0.44987 0.0
C896 C 0.01512 0.45586 0.42449 0.0
N897 N 0.03546 0.47213 0.41469 0.0
C898 C 0.03475 0.50765 0.44216 0.0
C899 C 0.045 0.49789 0.42293 0.0
C900 C 0.01462 0.49063 0.45304 0.0
C901 C 0.00431 0.46474 0.44375 0.0
H902 H 0.00838 0.4351 0.41784 0.0
H903 H 0.06148 0.51023 0.41521 0.0
C904 C 0.14297 0.4733 0.35667 0.0
N905 N 0.13531 0.4535 0.37155 0.0
C906 C 0.17086 0.48392 0.35581 0.0
C907 C 0.18276 0.45272 0.38513 0.0
C908 C 0.15453 0.44277 0.38548 0.0
C909 C 0.19113 0.47398 0.37037 0.0
H910 H 0.12708 0.4816 0.34592 0.0
H911 H 0.14778 0.42701 0.39713 0.0
C912 C 0.99844 0.44008 0.37308 0.0
N913 N 0.94336 0.46092 0.3689 0.0
C914 C 0.97569 0.42037 0.37121 0.0
C915 C 0.99321 0.47036 0.37289 0.0
C916 C 0.94798 0.43134 0.36908 0.0
C917 C 0.96521 0.48047 0.37076 0.0
C918 C 0.10512 0.40969 0.34138 0.0
C919 C 0.1109 0.42405 0.32256 0.0
C920 C 0.12526 0.39038 0.34985 0.0
C921 C 0.1369 0.41891 0.31252 0.0
C922 C 0.15101 0.38586 0.33934 0.0
N923 N 0.15625 0.4001 0.32106 0.0
C924 C 0.0455 0.47921 0.31583 0.0
C925 C 0.01477 0.43817 0.32034 0.0
C926 C 0.03602 0.48291 0.29531 0.0
N927 N 0.03509 0.4568 0.32766 0.0
C928 C 0.00462 0.44113 0.30004 0.0
C929 C 0.01586 0.46318 0.28703 0.0
H930 H 0.06211 0.49329 0.322 0.0
H931 H 0.00731 0.42025 0.33002 0.0
C932 C 0.02592 0.35993 0.39438 0.0
N933 N 0.04879 0.36431 0.38173 0.0
C934 C 0.01345 0.33214 0.39595 0.0
C935 C 0.04873 0.31362 0.37174 0.0
C936 C 0.0605 0.34189 0.3706 0.0
C937 C 0.02455 0.30857 0.38429 0.0
H938 H 0.01666 0.37839 0.40263 0.0
H939 H 0.07832 0.34613 0.36031 0.0
O940 O 0.07116 0.47801 0.36908 0.0
O941 O 0.08332 0.424 0.39919 0.0
O942 O 0.0257 0.42965 0.37505 0.0
O943 O 0.08019 0.41511 0.35176 0.0
H944 H 0.11332 0.5023 0.39084 0.0
H945 H 0.03776 0.52049 0.35478 0.0
H946 H 0.11975 0.55591 0.39615 0.0
H947 H 0.04532 0.57381 0.361 0.0
H948 H 0.05729 0.40271 0.46584 0.0
H949 H 0.11273 0.466 0.41812 0.0
H950 H 0.05628 0.3925 0.42779 0.0
H951 H 0.11278 0.47494 0.45633 0.0
H952 H 0.04303 0.52794 0.44866 0.0
H953 H 0.98911 0.45074 0.45172 0.0
H954 H 0.17617 0.50055 0.34433 0.0
H955 H 0.19776 0.44408 0.39643 0.0
H956 H 0.97942 0.39684 0.3713 0.0
H957 H 0.01055 0.48584 0.37454 0.0
H958 H 0.93016 0.41635 0.36757 0.0
H959 H 0.96084 0.50386 0.37061 0.0
H960 H 0.09558 0.43917 0.31587 0.0
H961 H 0.12121 0.37939 0.36455 0.0
H962 H 0.14172 0.42994 0.29798 0.0
H963 H 0.16689 0.37112 0.34577 0.0
H964 H 0.04543 0.49999 0.28572 0.0
H965 H 0.98878 0.42572 0.29436 0.0
H966 H 0.99458 0.32949 0.40552 0.0
H967 H 0.05817 0.29605 0.36264 0.0
Li968 Li 0.44223 0.54697 0.39422 0.0
Li969 Li 0.39955 0.55603 0.37595 0.0
Li970 Li 0.44442 0.55284 0.35664 0.0
Li971 Li 0.43536 0.59624 0.38052 0.0
C972 C 0.41985 0.4929 0.37623 0.0
N973 N 0.40924 0.43387 0.3834 0.0
C974 C 0.39631 0.48429 0.38818 0.0
C975 C 0.43777 0.47142 0.3677 0.0
C976 C 0.39137 0.45436 0.39168 0.0
C977 C 0.43212 0.44171 0.37158 0.0
C978 C 0.41102 0.57338 0.42293 0.0
C979 C 0.4262 0.58904 0.45714 0.0
N980 N 0.41161 0.56616 0.46574 0.0
C981 C 0.39587 0.55026 0.43212 0.0
C982 C 0.42607 0.59313 0.43552 0.0
C983 C 0.39655 0.5469 0.45379 0.0
C984 C 0.47894 0.54603 0.42815 0.0
N985 N 0.45953 0.52893 0.41805 0.0
C986 C 0.46258 0.49236 0.44476 0.0
C987 C 0.45152 0.50232 0.42581 0.0
C988 C 0.48197 0.51001 0.45586 0.0
C989 C 0.49046 0.537 0.44715 0.0
H990 H 0.48459 0.56732 0.42182 0.0
H991 H 0.43593 0.48916 0.41777 0.0
C992 C 0.35313 0.52657 0.35833 0.0
N993 N 0.36033 0.54603 0.37355 0.0
C994 C 0.32534 0.51575 0.35702 0.0
C995 C 0.31265 0.54595 0.38669 0.0
C996 C 0.34078 0.55612 0.38748 0.0
C997 C 0.30471 0.52511 0.37149 0.0
H998 H 0.36929 0.51872 0.34764 0.0
H999 H 0.34721 0.57155 0.39945 0.0
C1000 C 0.49664 0.55961 0.37687 0.0
N1001 N 0.55119 0.53688 0.37402 0.0
C1002 C 0.52014 0.57851 0.376 0.0
C1003 C 0.50087 0.52917 0.3763 0.0
C1004 C 0.54756 0.56659 0.37455 0.0
C1005 C 0.5286 0.51809 0.37486 0.0
C1006 C 0.39088 0.58951 0.3433 0.0
C1007 C 0.38633 0.57531 0.32424 0.0
C1008 C 0.36989 0.60816 0.35139 0.0
C1009 C 0.3607 0.57993 0.31359 0.0
C1010 C 0.34452 0.61217 0.34027 0.0
N1011 N 0.34049 0.59809 0.32176 0.0
C1012 C 0.45203 0.52025 0.31926 0.0
C1013 C 0.48152 0.56226 0.32369 0.0
C1014 C 0.46215 0.51634 0.29892 0.0
N1015 N 0.46154 0.54321 0.33096 0.0
C1016 C 0.49223 0.55916 0.30355 0.0
C1017 C 0.48198 0.53645 0.29069 0.0
H1018 H 0.43565 0.50584 0.32537 0.0
H1019 H 0.48831 0.58055 0.33329 0.0
C1020 C 0.46935 0.64119 0.39562 0.0
N1021 N 0.4456 0.63631 0.38396 0.0
C1022 C 0.4813 0.66927 0.39673 0.0
C1023 C 0.44363 0.68707 0.37425 0.0
C1024 C 0.43246 0.65852 0.37348 0.0
C1025 C 0.46871 0.69265 0.3857 0.0
H1026 H 0.47962 0.62294 0.40347 0.0
H1027 H 0.41391 0.65392 0.364 0.0
O1028 O 0.42477 0.52206 0.37215 0.0
O1029 O 0.41134 0.57651 0.40169 0.0
O1030 O 0.46967 0.57097 0.37824 0.0
O1031 O 0.41547 0.58462 0.35424 0.0
H1032 H 0.38214 0.50048 0.39488 0.0
H1033 H 0.45581 0.4776 0.35811 0.0
H1034 H 0.37332 0.44743 0.401 0.0
H1035 H 0.44587 0.42488 0.36513 0.0
H1036 H 0.43797 0.604 0.46707 0.0
H1037 H 0.38394 0.53493 0.42262 0.0
H1038 H 0.43778 0.61123 0.42867 0.0
H1039 H 0.38515 0.52893 0.4611 0.0
H1040 H 0.45573 0.47122 0.45077 0.0
H1041 H 0.50501 0.55153 0.4553 0.0
H1042 H 0.32038 0.49944 0.34524 0.0
H1043 H 0.29737 0.55412 0.39796 0.0
H1044 H 0.51722 0.60215 0.37637 0.0
H1045 H 0.48295 0.51427 0.3771 0.0
H1046 H 0.56595 0.58096 0.37385 0.0
H1047 H 0.53218 0.49456 0.37444 0.0
H1048 H 0.40233 0.56072 0.31782 0.0
H1049 H 0.37295 0.619 0.36626 0.0
H1050 H 0.35683 0.56901 0.29885 0.0
H1051 H 0.328 0.62637 0.3464 0.0
H1052 H 0.4535 0.49874 0.28943 0.0
H1053 H 0.50777 0.57491 0.29787 0.0
H1054 H 0.50088 0.67228 0.40546 0.0
H1055 H 0.43299 0.70446 0.36569 0.0
Li1056 Li 0.44474 0.45146 0.89066 0.0
Li1057 Li 0.43502 0.40558 0.87014 0.0
Li1058 Li 0.44525 0.45466 0.85332 0.0
Li1059 Li 0.40161 0.44703 0.87094 0.0
C1060 C 0.4953 0.42886 0.88218 0.0
N1061 N 0.54474 0.42655 0.90568 0.0
C1062 C 0.50359 0.40252 0.89172 0.0
C1063 C 0.51232 0.45395 0.88445 0.0
C1064 C 0.52863 0.40182 0.90356 0.0
C1065 C 0.53718 0.45236 0.89644 0.0
C1066 C 0.39001 0.41805 0.90534 0.0
C1067 C 0.34625 0.39189 0.91221 0.0
N1068 N 0.3388 0.41289 0.92634 0.0
C1069 C 0.38203 0.43931 0.91999 0.0
C1070 C 0.37208 0.39409 0.90143 0.0
C1071 C 0.35601 0.43634 0.93042 0.0
C1072 C 0.46084 0.49257 0.92186 0.0
N1073 N 0.46003 0.46363 0.91654 0.0
C1074 C 0.47841 0.44965 0.94985 0.0
C1075 C 0.46828 0.44223 0.93009 0.0
C1076 C 0.47948 0.47936 0.95583 0.0
C1077 C 0.47061 0.501 0.94155 0.0
H1078 H 0.45342 0.50905 0.91097 0.0
H1079 H 0.46654 0.41934 0.92561 0.0
C1080 C 0.45937 0.35657 0.85166 0.0
N1081 N 0.44391 0.36508 0.86854 0.0
C1082 C 0.47131 0.32846 0.85085 0.0
C1083 C 0.45039 0.31807 0.88456 0.0
C1084 C 0.43892 0.34649 0.88475 0.0
C1085 C 0.46735 0.30893 0.86763 0.0
H1086 H 0.46349 0.37217 0.83926 0.0
H1087 H 0.42708 0.35414 0.89819 0.0
C1088 C 0.43184 0.50753 0.8628 0.0
N1089 N 0.44284 0.55873 0.84089 0.0
C1090 C 0.41152 0.51882 0.84896 0.0
C1091 C 0.45773 0.52235 0.86552 0.0
C1092 C 0.41748 0.54473 0.83804 0.0
C1093 C 0.4629 0.54817 0.85428 0.0
C1094 C 0.39159 0.41601 0.83585 0.0
C1095 C 0.37601 0.43617 0.82392 0.0
C1096 C 0.38261 0.38669 0.83699 0.0
C1097 C 0.35154 0.42668 0.81343 0.0
C1098 C 0.35805 0.37806 0.82624 0.0
N1099 N 0.34314 0.39807 0.81479 0.0
C1100 C 0.49213 0.46585 0.82698 0.0
C1101 C 0.44743 0.48037 0.81306 0.0
C1102 C 0.50542 0.47119 0.80787 0.0
N1103 N 0.46353 0.46986 0.82907 0.0
C1104 C 0.45986 0.48622 0.79372 0.0
C1105 C 0.48903 0.48062 0.79077 0.0
H1106 H 0.50437 0.45689 0.83977 0.0
H1107 H 0.42467 0.48274 0.81493 0.0
C1108 C 0.35734 0.48614 0.87938 0.0
N1109 N 0.36201 0.45827 0.87242 0.0
C1110 C 0.32977 0.49752 0.88034 0.0
C1111 C 0.3118 0.45072 0.86818 0.0
C1112 C 0.33983 0.44023 0.86745 0.0
C1113 C 0.30653 0.47991 0.87441 0.0
H1114 H 0.37514 0.49976 0.88403 0.0
H1115 H 0.34379 0.41772 0.86289 0.0
O1116 O 0.47058 0.43016 0.87082 0.0
O1117 O 0.41503 0.42098 0.89461 0.0
O1118 O 0.42653 0.482 0.8735 0.0
O1119 O 0.41579 0.42474 0.84607 0.0
H1120 H 0.49076 0.38288 0.89019 0.0
H1121 H 0.50632 0.47447 0.87713 0.0
H1122 H 0.53521 0.38162 0.91111 0.0
H1123 H 0.55044 0.47166 0.89841 0.0
H1124 H 0.33206 0.37356 0.90928 0.0
H1125 H 0.39568 0.45805 0.92309 0.0
H1126 H 0.37789 0.3776 0.89 0.0
H1127 H 0.34946 0.4527 0.94171 0.0
H1128 H 0.48459 0.4323 0.96054 0.0
H1129 H 0.47119 0.52416 0.94557 0.0
H1130 H 0.48456 0.32262 0.83764 0.0
H1131 H 0.4465 0.30366 0.89772 0.0
H1132 H 0.39155 0.50746 0.84638 0.0
H1133 H 0.47371 0.51398 0.87613 0.0
H1134 H 0.402 0.5536 0.8272 0.0
H1135 H 0.48288 0.5598 0.8562 0.0
H1136 H 0.38239 0.459 0.82308 0.0
H1137 H 0.39438 0.37078 0.84613 0.0
H1138 H 0.33915 0.44209 0.80428 0.0
H1139 H 0.35081 0.35547 0.82702 0.0
H1140 H 0.528 0.46667 0.8062 0.0
H1141 H 0.44641 0.49303 0.78084 0.0
H1142 H 0.32681 0.52014 0.88523 0.0
H1143 H 0.29445 0.43611 0.86399 0.0
Li1144 Li 0.05286 0.55038 0.88865 0.0
Li1145 Li 0.05765 0.59384 0.86957 0.0
Li1146 Li 0.05174 0.54705 0.85095 0.0
Li1147 Li 0.09785 0.55974 0.87101 0.0
C1148 C -0.00047 0.56641 0.88007 0.0
N1149 N 0.94935 0.56444 0.90266 0.0
C1150 C 0.99501 0.58613 0.89648 0.0
C1151 C 0.97843 0.54585 0.87502 0.0
C1152 C 0.96953 0.58473 0.90776 0.0
C1153 C 0.95322 0.54517 0.88666 0.0
C1154 C 0.09021 0.60655 0.9039 0.0
C1155 C 0.12688 0.64276 0.9102 0.0
N1156 N 0.1094 0.65659 0.92403 0.0
C1157 C 0.07272 0.62094 0.91834 0.0
C1158 C 0.11759 0.61739 0.89989 0.0
C1159 C 0.08276 0.64629 0.92828 0.0
C1160 C 0.05215 0.54295 0.93172 0.0
N1161 N 0.03865 0.53403 0.91404 0.0
C1162 C 0.00617 0.50475 0.93394 0.0
C1163 C 0.01639 0.51483 0.91476 0.0
C1164 C 0.01937 0.51418 0.95244 0.0
C1165 C 0.04283 0.53327 0.95117 0.0
H1166 H 0.07013 0.55775 0.93075 0.0
H1167 H 0.00652 0.50734 0.90049 0.0
C1168 C 0.01824 0.63795 0.86039 0.0
N1169 N 0.04543 0.63429 0.86738 0.0
C1170 C 0.00606 0.66593 0.85942 0.0
C1171 C 0.05045 0.68634 0.87197 0.0
C1172 C 0.06188 0.6579 0.87252 0.0
C1173 C 0.02203 0.69053 0.86563 0.0
H1174 H 0.00578 0.61904 0.85576 0.0
H1175 H 0.08379 0.65483 0.87713 0.0
C1176 C 0.06874 0.49631 0.87965 0.0
N1177 N 0.05611 0.4437 0.89919 0.0
C1178 C 0.08473 0.48712 0.89687 0.0
C1179 C 0.04647 0.4787 0.87225 0.0
C1180 C 0.07794 0.46047 0.90658 0.0
C1181 C 0.04041 0.45216 0.88236 0.0
C1182 C 0.08435 0.60393 0.83477 0.0
C1183 C 0.06349 0.61248 0.82041 0.0
C1184 C 0.10793 0.62207 0.83837 0.0
C1185 C 0.06647 0.63932 0.80997 0.0
C1186 C 0.11014 0.64872 0.82759 0.0
N1187 N 0.08952 0.65673 0.81376 0.0
C1188 C 0.01119 0.53571 0.81973 0.0
C1189 C 0.05639 0.51331 0.81454 0.0
C1190 C 0.00191 0.52594 0.80024 0.0
N1191 N 0.03805 0.52946 0.82633 0.0
C1192 C 0.04813 0.50344 0.7948 0.0
C1193 C 0.02071 0.51017 0.78734 0.0
H1194 H 0.99743 0.54937 0.82919 0.0
H1195 H 0.07778 0.50912 0.82016 0.0
C1196 C 0.14889 0.54362 0.89033 0.0
N1197 N 0.1373 0.55156 0.87173 0.0
C1198 C 0.17687 0.53319 0.89127 0.0
C1199 C 0.18065 0.54008 0.85393 0.0
C1200 C 0.15253 0.55032 0.85372 0.0
C1201 C 0.19301 0.53084 0.87285 0.0
H1202 H 0.13602 0.54449 0.90434 0.0
H1203 H 0.14255 0.55645 0.83913 0.0
O1204 O 0.02443 0.56735 0.86894 0.0
O1205 O 0.08087 0.58149 0.89423 0.0
O1206 O 0.07464 0.52258 0.87018 0.0
O1207 O 0.08137 0.57823 0.84562 0.0
H1208 H 0.01104 0.60229 0.90048 0.0
H1209 H 0.98166 0.53023 0.86249 0.0
H1210 H 0.96581 0.59978 0.92056 0.0
H1211 H 0.93679 0.52923 0.88303 0.0
H1212 H 0.14795 0.65149 0.90717 0.0
H1213 H 0.05165 0.6126 0.92187 0.0
H1214 H 0.13147 0.60653 0.88883 0.0
H1215 H 0.06941 0.65773 0.93941 0.0
H1216 H 0.98831 0.48962 0.93429 0.0
H1217 H 0.05351 0.54113 0.96509 0.0
H1218 H 0.98409 0.66815 0.85441 0.0
H1219 H 0.06371 0.70484 0.87643 0.0
H1220 H 0.10195 0.50058 0.90282 0.0
H1221 H 0.03384 0.48559 0.85898 0.0
H1222 H 0.08999 0.45316 0.92002 0.0
H1223 H 0.02314 0.43836 0.87689 0.0
H1224 H 0.04505 0.59867 0.81756 0.0
H1225 H 0.1242 0.61573 0.84949 0.0
H1226 H 0.05041 0.64634 0.79891 0.0
H1227 H 0.12819 0.66308 0.83028 0.0
H1228 H 0.98083 0.53212 0.79484 0.0
H1229 H 0.06322 0.49144 0.78523 0.0
H1230 H 0.18535 0.52599 0.90614 0.0
H1231 H 0.19243 0.53902 0.83941 0.0
Li1232 Li 0.9041 0.55606 0.62162 0.0
Li1233 Li 0.94839 0.54527 0.63942 0.0
Li1234 Li 0.94276 0.59487 0.62391 0.0
Li1235 Li 0.9491 0.55189 0.60286 0.0
C1236 C 0.90186 0.59692 0.655 0.0
N1237 N 0.86636 0.63974 0.67128 0.0
C1238 C 0.90127 0.60211 0.6765 0.0
C1239 C 0.88453 0.61366 0.64177 0.0
C1240 C 0.88313 0.62381 0.68443 0.0
C1241 C 0.8667 0.63516 0.65031 0.0
C1242 C 0.92893 0.49452 0.628 0.0
C1243 C 0.95094 0.44735 0.63425 0.0
N1244 N 0.93068 0.4413 0.64884 0.0
C1245 C 0.90823 0.4878 0.64296 0.0
C1246 C 0.9504 0.47412 0.62351 0.0
C1247 C 0.90952 0.46079 0.65336 0.0
C1248 C 0.85698 0.52895 0.60412 0.0
N1249 N 0.86483 0.54533 0.62091 0.0
C1250 C 0.81907 0.53814 0.63662 0.0
C1251 C 0.84661 0.54994 0.63711 0.0
C1252 C 0.81038 0.5211 0.61943 0.0
C1253 C 0.8297 0.51676 0.60297 0.0
H1254 H 0.87235 0.52437 0.59197 0.0
H1255 H 0.85362 0.56189 0.65074 0.0
C1256 C 0.98914 0.51508 0.66527 0.0
N1257 N 0.96225 0.52607 0.66369 0.0
C1258 C -0.00058 0.50533 0.68454 0.0
C1259 C 0.95376 0.51738 0.69989 0.0
C1260 C 0.94433 0.52658 0.68033 0.0
C1261 C 0.98195 0.50734 0.70235 0.0
H1262 H 0.00301 0.51493 0.65183 0.0
H1263 H 0.92301 0.53536 0.67858 0.0
C1264 C 0.92103 0.591 0.57912 0.0
N1265 N 0.92562 0.60567 0.53737 0.0
C1266 C 0.94051 0.61249 0.5727 0.0
C1267 C 0.90377 0.5771 0.5643 0.0
C1268 C 0.94251 0.6196 0.55154 0.0
C1269 C 0.90646 0.58476 0.54327 0.0
C1270 C 0.00244 0.56515 0.61433 0.0
C1271 C 0.01835 0.58978 0.60831 0.0
C1272 C 0.01331 0.53693 0.61076 0.0
C1273 C 0.04486 0.58573 0.59875 0.0
C1274 C 0.03988 0.5338 0.60113 0.0
N1275 N 0.05498 0.55806 0.59537 0.0
C1276 C 0.97536 0.64061 0.6398 0.0
C1277 C 0.93788 0.6572 0.61791 0.0
C1278 C 0.98632 0.66908 0.64131 0.0
N1279 N 0.9521 0.63513 0.62776 0.0
C1280 C 0.94805 0.68609 0.61904 0.0
C1281 C 0.97303 0.69221 0.63046 0.0
H1282 H 0.98614 0.62257 0.64751 0.0
H1283 H 0.91925 0.6522 0.60858 0.0
C1284 C 0.95378 0.5134 0.56856 0.0
N1285 N 0.96392 0.53903 0.57665 0.0
C1286 C 0.96206 0.50435 0.54863 0.0
C1287 C 0.99121 0.5481 0.54583 0.0
C1288 C 0.98228 0.55634 0.56571 0.0
C1289 C 0.98094 0.5219 0.537 0.0
H1290 H 0.93881 0.5003 0.57744 0.0
H1291 H 0.98941 0.57702 0.57213 0.0
O1292 O 0.91992 0.57607 0.64703 0.0
O1293 O 0.92844 0.52113 0.61803 0.0
O1294 O 0.91898 0.58351 0.59976 0.0
O1295 O 0.97639 0.56868 0.62368 0.0
H1296 H 0.91476 0.58957 0.68695 0.0
H1297 H 0.8847 0.61006 0.62509 0.0
H1298 H 0.88243 0.62802 0.70104 0.0
H1299 H 0.85313 0.64821 0.64025 0.0
H1300 H 0.96748 0.43138 0.63099 0.0
H1301 H 0.89158 0.50342 0.64672 0.0
H1302 H 0.96645 0.4789 0.61187 0.0
H1303 H 0.89375 0.45536 0.66508 0.0
H1304 H 0.80485 0.54207 0.64965 0.0
H1305 H 0.82419 0.50319 0.58966 0.0
H1306 H 0.02113 0.4973 0.6856 0.0
H1307 H 0.93955 0.51981 0.71309 0.0
H1308 H 0.95448 0.62305 0.58384 0.0
H1309 H 0.88853 0.5605 0.56893 0.0
H1310 H 0.95767 0.63601 0.54635 0.0
H1311 H 0.89333 0.57407 0.53163 0.0
H1312 H 0.01022 0.61179 0.61074 0.0
H1313 H 0.00114 0.51765 0.61504 0.0
H1314 H 0.05734 0.60459 0.59394 0.0
H1315 H 0.04845 0.51209 0.59815 0.0
H1316 H 0.00573 0.67262 0.65013 0.0
H1317 H 0.93679 0.70333 0.61076 0.0
H1318 H 0.95377 0.4839 0.54239 0.0
H1319 H 0.00536 0.56254 0.53723 0.0
Li1320 Li 0.56063 0.44625 0.63993 0.0
Li1321 Li 0.6028 0.43727 0.62029 0.0
Li1322 Li 0.55912 0.44454 0.60163 0.0
Li1323 Li 0.5676 0.39803 0.6221 0.0
C1324 C 0.5696 0.50129 0.62204 0.0
N1325 N 0.55005 0.55815 0.62749 0.0
C1326 C 0.58839 0.52351 0.62828 0.0
C1327 C 0.54091 0.50799 0.61848 0.0
C1328 C 0.57808 0.55212 0.63098 0.0
C1329 C 0.53143 0.53687 0.62133 0.0
C1330 C 0.60542 0.42266 0.66279 0.0
C1331 C 0.62667 0.40954 0.69579 0.0
N1332 N 0.63559 0.43783 0.69825 0.0
C1333 C 0.61476 0.45163 0.66567 0.0
C1334 C 0.61137 0.40144 0.67797 0.0
C1335 C 0.63 0.45885 0.68369 0.0
C1336 C 0.52876 0.44012 0.67511 0.0
N1337 N 0.54468 0.46067 0.66506 0.0
C1338 C 0.54159 0.49321 0.69431 0.0
C1339 C 0.55099 0.48703 0.67405 0.0
C1340 C 0.52616 0.47176 0.70532 0.0
C1341 C 0.51924 0.44521 0.69535 0.0
H1342 H 0.52446 0.41924 0.66764 0.0
H1343 H 0.56437 0.50268 0.666 0.0
C1344 C 0.64811 0.47207 0.6078 0.0
N1345 N 0.64219 0.44719 0.61874 0.0
C1346 C 0.67587 0.48296 0.60697 0.0
C1347 C 0.6912 0.44206 0.62839 0.0
C1348 C 0.66303 0.43187 0.62875 0.0
C1349 C 0.69783 0.46813 0.61756 0.0
H1350 H 0.63105 0.48378 0.60002 0.0
H1351 H 0.65769 0.41208 0.6373 0.0
C1352 C 0.50553 0.42289 0.61835 0.0
N1353 N 0.4476 0.41909 0.61074 0.0
C1354 C 0.49447 0.399 0.60723 0.0
C1355 C 0.48707 0.44456 0.62595 0.0
C1356 C 0.46514 0.39756 0.60344 0.0
C1357 C 0.45787 0.44233 0.62184 0.0
C1358 C 0.61197 0.40923 0.58588 0.0
C1359 C 0.61865 0.42862 0.56967 0.0
C1360 C 0.63123 0.38706 0.5914 0.0
C1361 C 0.64471 0.42562 0.55929 0.0
C1362 C 0.65708 0.3848 0.58064 0.0
N1363 N 0.66323 0.40398 0.56496 0.0
C1364 C 0.55051 0.48526 0.56873 0.0
C1365 C 0.52533 0.4402 0.56564 0.0
C1366 C 0.54028 0.49457 0.54936 0.0
N1367 N 0.54269 0.4586 0.57651 0.0
C1368 C 0.51452 0.44863 0.54627 0.0
C1369 C 0.52211 0.47608 0.53785 0.0
H1370 H 0.56521 0.49903 0.57732 0.0
H1371 H 0.52059 0.41857 0.5717 0.0
C1372 C 0.53687 0.35239 0.63931 0.0
N1373 N 0.55628 0.35816 0.62411 0.0
C1374 C 0.52392 0.32481 0.64055 0.0
C1375 C 0.55198 0.30918 0.61088 0.0
C1376 C 0.5642 0.33728 0.61008 0.0
C1377 C 0.53115 0.30276 0.62608 0.0
H1378 H 0.53063 0.36968 0.64998 0.0
H1379 H 0.57937 0.34266 0.59795 0.0
O1380 O 0.57935 0.47311 0.61965 0.0
O1381 O 0.59016 0.41504 0.6454 0.0
O1382 O 0.53416 0.42453 0.62239 0.0
O1383 O 0.58697 0.41236 0.59662 0.0
H1384 H 0.61067 0.51863 0.63116 0.0
H1385 H 0.5262 0.49112 0.61341 0.0
H1386 H 0.59236 0.56952 0.63589 0.0
H1387 H 0.50927 0.54238 0.61863 0.0
H1388 H 0.63143 0.39333 0.70766 0.0
H1389 H 0.61029 0.46839 0.65415 0.0
H1390 H 0.60418 0.37895 0.676 0.0
H1391 H 0.63735 0.48117 0.68611 0.0
H1392 H 0.5475 0.51381 0.70164 0.0
H1393 H 0.50718 0.42825 0.70334 0.0
H1394 H 0.67991 0.5033 0.59865 0.0
H1395 H 0.70755 0.42978 0.63657 0.0
H1396 H 0.50842 0.38187 0.60142 0.0
H1397 H 0.49516 0.46282 0.63506 0.0
H1398 H 0.45632 0.37932 0.59471 0.0
H1399 H 0.44335 0.45901 0.62754 0.0
H1400 H 0.60399 0.44598 0.5653 0.0
H1401 H 0.62643 0.37205 0.60404 0.0
H1402 H 0.65026 0.44057 0.54678 0.0
H1403 H 0.67229 0.36788 0.58481 0.0
H1404 H 0.54664 0.51591 0.54342 0.0
H1405 H 0.50112 0.43344 0.53768 0.0
H1406 H 0.50764 0.32125 0.65227 0.0
H1407 H 0.55854 0.29282 0.59957 0.0
C1408 C 0.26481 0.99077 0.14226 0.0
C1409 C 0.27765 0.98271 0.12326 0.0
H1410 H 0.2285 0.00974 0.15742 0.0
C1411 C 0.2626 0.98743 0.10458 0.0
H1412 H 0.27574 0.98721 0.15694 0.0
C1413 C 0.23546 0.00015 0.10487 0.0
C1414 C 0.22271 0.00844 0.12385 0.0
H1415 H 0.27201 0.98182 0.08966 0.0
H1416 H 0.22435 0.00325 0.09021 0.0
C1417 C 0.23765 0.00347 0.14255 0.0
C1418 C 0.73319 0.99346 0.35262 0.0
C1419 C 0.71942 0.98635 0.37145 0.0
H1420 H 0.77009 0.01198 0.33794 0.0
C1421 C 0.73332 0.99259 0.3904 0.0
H1422 H 0.72317 0.98876 0.33775 0.0
C1423 C 0.7603 0.00568 0.3905 0.0
C1424 C 0.77405 0.01285 0.37167 0.0
H1425 H 0.72316 0.98776 0.40519 0.0
H1426 H 0.77055 0.00986 0.40537 0.0
C1427 C 0.76019 0.00655 0.35272 0.0
C1428 C 0.76354 0.9994 0.89927 0.0
C1429 C 0.77533 0.98797 0.88078 0.0
H1430 H 0.72893 0.02268 0.91349 0.0
C1431 C 0.75987 0.99089 0.86208 0.0
H1432 H 0.7747 0.99728 0.914 0.0
C1433 C 0.73342 0.00508 0.86185 0.0
C1434 C 0.72182 0.01688 0.88029 0.0
H1435 H 0.76843 0.98273 0.84749 0.0
H1436 H 0.72199 0.00661 0.8472 0.0
C1437 C 0.73714 0.01373 0.89902 0.0
C1438 C 0.22888 0.00897 0.63778 0.0
C1439 C 0.21958 0.98972 0.62198 0.0
H1440 H 0.26303 0.03526 0.64985 0.0
C1441 C 0.23822 0.98316 0.60543 0.0
H1442 H 0.2149 0.01485 0.65058 0.0
C1443 C 0.26562 0.99523 0.60485 0.0
C1444 C 0.27509 0.0141 0.62082 0.0
H1445 H 0.23181 0.96829 0.59308 0.0
H1446 H 0.27943 0.98971 0.59187 0.0
C1447 C 0.25632 0.02103 0.6372 0.0
C1448 C 0.76301 0.48989 0.14196 0.0
C1449 C 0.77638 0.48259 0.123 0.0
H1450 H 0.72656 0.50888 0.15694 0.0
C1451 C 0.76227 0.48905 0.10418 0.0
H1452 H 0.77321 0.48504 0.15674 0.0
C1453 C 0.73545 0.50248 0.1043 0.0
C1454 C 0.72209 0.50982 0.12325 0.0
H1455 H 0.77212 0.48411 0.0893 0.0
H1456 H 0.72503 0.50678 0.08952 0.0
C1457 C 0.73617 0.50334 0.14208 0.0
C1458 C 0.26174 0.50617 0.35214 0.0
C1459 C 0.27547 0.51235 0.37117 0.0
H1460 H 0.2248 0.48869 0.33692 0.0
C1461 C 0.26133 0.50548 0.38991 0.0
H1462 H 0.27187 0.51139 0.33741 0.0
C1463 C 0.23414 0.49284 0.38963 0.0
C1464 C 0.22043 0.48662 0.37061 0.0
H1465 H 0.27141 0.50952 0.40485 0.0
H1466 H 0.22372 0.48832 0.40437 0.0
C1467 C 0.2346 0.49341 0.35186 0.0
C1468 C 0.24097 0.52405 0.88976 0.0
C1469 C 0.2221 0.51778 0.87328 0.0
H1470 H 0.28209 0.51661 0.90327 0.0
C1471 C 0.23102 0.49842 0.85744 0.0
H1472 H 0.23488 0.539 0.90215 0.0
C1473 C 0.25822 0.48581 0.85796 0.0
C1474 C 0.27716 0.49226 0.87435 0.0
H1475 H 0.21686 0.49273 0.8447 0.0
H1476 H 0.26457 0.47141 0.84532 0.0
C1477 C 0.26815 0.51142 0.8903 0.0
C1478 C 0.7389 0.49323 0.59976 0.0
C1479 C 0.72715 0.48056 0.61785 0.0
H1480 H 0.7741 0.51628 0.58614 0.0
C1481 C 0.74312 0.48103 0.63642 0.0
H1482 H 0.72725 0.493 0.58516 0.0
C1483 C 0.77008 0.4942 0.63695 0.0
C1484 C 0.78169 0.50716 0.61891 0.0
H1485 H 0.73455 0.47174 0.65067 0.0
H1486 H 0.7819 0.49405 0.65147 0.0
C1487 C 0.76585 0.50636 0.60028 0.0
C1488 C 0.99592 0.06011 0.25903 0.0
C1489 C 0.99031 0.03368 0.26965 0.0
H1490 H 0.00815 0.08061 0.23042 0.0
C1491 C 0.99262 0.00687 0.25881 0.0
H1492 H 0.9939 0.08115 0.26686 0.0
C1493 C 0.00065 0.00657 0.23775 0.0
C1494 C 0.00607 0.03311 0.22717 0.0
H1495 H 0.98846 0.98617 0.26664 0.0
H1496 H 0.0023 0.98567 0.22969 0.0
C1497 C 0.00369 0.05982 0.23806 0.0
C1498 C 0.50458 0.99102 0.23327 0.0
C1499 C 0.48743 0.96767 0.22617 0.0
H1500 H 0.52568 0.01102 0.25935 0.0
C1501 C 0.4772 0.94704 0.2407 0.0
H1502 H 0.51279 0.00726 0.22245 0.0
C1503 C 0.48488 0.9489 0.26165 0.0
C1504 C 0.50272 0.97168 0.26875 0.0
H1505 H 0.46344 0.92914 0.23585 0.0
H1506 H 0.47752 0.93179 0.27211 0.0
C1507 C 0.51216 0.993 0.25437 0.0
C1508 C 0.98867 0.95253 0.73452 0.0
C1509 C 0.99818 0.97886 0.72536 0.0
H1510 H 0.97455 0.93092 0.7623 0.0
C1511 C -0.00018 0.00448 0.73762 0.0
H1512 H 0.98758 0.93235 0.72553 0.0
C1513 C 0.99226 0.00364 0.75877 0.0
C1514 C 0.98358 0.97702 0.76795 0.0
H1515 H 0.0071 0.02504 0.7309 0.0
H1516 H 0.99386 0.02351 0.76805 0.0
C1517 C 0.98155 0.95161 0.7556 0.0
C1518 C 0.49112 0.99532 0.73979 0.0
C1519 C 0.50227 0.01316 0.72378 0.0
H1520 H 0.49111 0.98535 0.77254 0.0
C1521 C 0.52456 0.03278 0.7285 0.0
H1522 H 0.47412 0.97981 0.73657 0.0
C1523 C 0.53421 0.03586 0.74894 0.0
C1524 C 0.52186 0.01939 0.76514 0.0
H1525 H 0.53344 0.04709 0.71664 0.0
H1526 H 0.55068 0.05196 0.75223 0.0
C1527 C 0.50093 0.99834 0.76032 0.0
C1528 C 0.50482 0.50811 0.23743 0.0
C1529 C 0.50574 0.53438 0.22581 0.0
H1530 H 0.49655 0.4881 0.26718 0.0
C1531 C 0.49878 0.56103 0.2357 0.0
H1532 H 0.51001 0.48724 0.23018 0.0
C1533 C 0.49112 0.56151 0.25669 0.0
C1534 C 0.49028 0.53536 0.26838 0.0
H1535 H 0.4997 0.58171 0.22729 0.0
H1536 H 0.48563 0.58245 0.26374 0.0
C1537 C 0.49698 0.50858 0.25852 0.0
C1538 C 0.00307 0.49049 0.25408 0.0
C1539 C 0.00827 0.46382 0.26457 0.0
H1540 H 0.99188 0.5113 0.22513 0.0
C1541 C 0.00661 0.43729 0.25337 0.0
H1542 H 0.00417 0.51127 0.26234 0.0
C1543 C -0.00048 0.43729 0.23228 0.0
C1544 C 0.99407 0.46384 0.22175 0.0
H1545 H 0.01098 0.4164 0.26088 0.0
H1546 H 0.99782 0.41632 0.22432 0.0
C1547 C 0.99589 0.49049 0.23286 0.0
C1548 C 0.52566 0.45371 0.74197 0.0
C1549 C 0.51879 0.47586 0.72754 0.0
H1550 H 0.52182 0.43807 0.77326 0.0
C1551 C 0.50403 0.50098 0.73437 0.0
H1552 H 0.53731 0.43427 0.7371 0.0
C1553 C 0.49506 0.50318 0.75516 0.0
C1554 C 0.50123 0.48053 0.76945 0.0
H1555 H 0.49854 0.51833 0.72348 0.0
H1556 H 0.4829 0.52228 0.76 0.0
C1557 C 0.51708 0.45607 0.76271 0.0
C1558 C 0.03094 0.5127 0.74919 0.0
C1559 C 0.01271 0.50401 0.76544 0.0
H1560 H 0.03544 0.521 0.7166 0.0
C1561 C 0.98565 0.49268 0.76055 0.0
H1562 H 0.05182 0.52181 0.75255 0.0
C1563 C 0.97635 0.4917 0.73984 0.0
C1564 C 0.99375 0.50252 0.72365 0.0
H1565 H 0.97134 0.48552 0.77282 0.0
H1566 H 0.9551 0.48351 0.73662 0.0
C1567 C 0.02153 0.51211 0.72852 0.0
C1568 C 0.00687 0.23229 0.1285 0.0
C1569 C 0.01489 0.2185 0.10975 0.0
H1570 H 0.98679 0.26936 0.14298 0.0
C1571 C 0.00804 0.23225 0.09073 0.0
H1572 H 0.01145 0.22211 0.14342 0.0
C1573 C 0.99352 0.25914 0.09048 0.0
C1574 C 0.98547 0.27291 0.10923 0.0
H1575 H 0.01407 0.22233 0.07601 0.0
H1576 H 0.98842 0.26905 0.07556 0.0
C1577 C 0.99232 0.25916 0.12825 0.0
C1578 C 0.49983 0.76576 0.08969 0.0
C1579 C 0.48882 0.7781 0.10814 0.0
H1580 H 0.52257 0.73005 0.07561 0.0
C1581 C 0.49249 0.76273 0.12701 0.0
H1582 H 0.49722 0.77688 0.07485 0.0
C1583 C 0.50672 0.7357 0.12741 0.0
C1584 C 0.51777 0.72337 0.10896 0.0
H1585 H 0.48469 0.77175 0.14158 0.0
H1586 H 0.50869 0.72427 0.14217 0.0
C1587 C 0.51416 0.73877 0.09009 0.0
C1588 C 0.48322 0.73888 0.36685 0.0
C1589 C 0.48256 0.72218 0.38533 0.0
H1590 H 0.49684 0.77846 0.3518 0.0
C1591 C 0.49618 0.73345 0.4032 0.0
H1592 H 0.47335 0.73076 0.35269 0.0
C1593 C 0.51029 0.76057 0.40255 0.0
C1594 C 0.51102 0.77722 0.38405 0.0
H1595 H 0.49589 0.72136 0.41777 0.0
H1596 H 0.52088 0.76832 0.41654 0.0
C1597 C 0.49718 0.76606 0.36624 0.0
C1598 C 0.99826 0.26804 0.40297 0.0
C1599 C 0.01004 0.27941 0.38445 0.0
H1600 H 0.97464 0.23324 0.41742 0.0
C1601 C 0.00694 0.26318 0.3659 0.0
H1602 H 0.00044 0.27983 0.41758 0.0
C1603 C 0.99241 0.2363 0.36586 0.0
C1604 C 0.98053 0.22498 0.38435 0.0
H1605 H 0.01536 0.27144 0.35129 0.0
H1606 H 0.99083 0.22421 0.35133 0.0
C1607 C 0.98366 0.24119 0.40292 0.0
C1608 C 0.01261 0.73883 0.88331 0.0
C1609 C 0.00873 0.7202 0.86603 0.0
H1610 H 0.00251 0.78013 0.89765 0.0
C1611 C 0.99122 0.72966 0.84952 0.0
H1612 H 0.02575 0.73202 0.89636 0.0
C1613 C 0.9778 0.75714 0.8503 0.0
C1614 C 0.98141 0.77563 0.86769 0.0
H1615 H 0.98798 0.71585 0.83594 0.0
H1616 H 0.96431 0.76377 0.8374 0.0
C1617 C -0.00099 0.7662 0.88417 0.0
C1618 C 0.48481 0.2633 0.84939 0.0
C1619 C 0.48198 0.27984 0.86783 0.0
H1620 H 0.50129 0.22443 0.83493 0.0
C1621 C 0.49408 0.2688 0.88635 0.0
H1622 H 0.4756 0.27099 0.83488 0.0
C1623 C 0.50851 0.24185 0.88644 0.0
C1624 C 0.51128 0.2253 0.86801 0.0
H1625 H 0.49274 0.28116 0.90077 0.0
H1626 H 0.5171 0.2338 0.90106 0.0
C1627 C 0.49933 0.23642 0.84947 0.0
C1628 C 0.49306 0.23424 0.64586 0.0
C1629 C 0.48618 0.21957 0.62718 0.0
H1630 H 0.51327 0.27121 0.66024 0.0
C1631 C 0.49455 0.23237 0.60814 0.0
H1632 H 0.48674 0.22528 0.66082 0.0
C1633 C 0.50925 0.25916 0.60778 0.0
C1634 C 0.51623 0.27376 0.62646 0.0
H1635 H 0.49009 0.22154 0.59344 0.0
H1636 H 0.5148 0.26858 0.5928 0.0
C1637 C 0.50802 0.26086 0.64551 0.0
C1638 C 0.00042 0.76582 0.6108 0.0
C1639 C 0.01388 0.77737 0.62862 0.0
H1640 H 0.97723 0.73 0.59735 0.0
C1641 C 0.01306 0.76106 0.64727 0.0
H1642 H 0.00019 0.778 0.59626 0.0
C1643 C -0.00067 0.73374 0.64801 0.0
C1644 C 0.98616 0.72204 0.6301 0.0
H1645 H 0.02334 0.76921 0.66126 0.0
H1646 H -0.00096 0.72179 0.66263 0.0
C1647 C 0.98678 0.73848 0.61151 0.0
C1648 C 0.009 0.00825 0.98101 0.0
C1649 C 0.99367 0.982 0.97786 0.0
H1650 H 0.02941 0.03686 0.00298 0.0
C1651 C 0.98747 0.96406 0.9952 0.0
H1652 H 0.01461 0.02231 0.96799 0.0
C1653 C 0.99628 0.97226 0.0152 0.0
C1654 C 0.01114 0.99872 0.01829 0.0
H1655 H 0.97528 0.94396 0.99343 0.0
H1656 H 0.99092 0.95824 0.02831 0.0
C1657 C 0.01753 0.01657 0.00102 0.0
C1658 C 0.49696 0.0349 0.98827 0.0
C1659 C 0.50915 0.01341 0.97524 0.0
H1660 H 0.47953 0.04495 0.01831 0.0
C1661 C 0.51295 0.98473 0.98298 0.0
H1662 H 0.49426 0.05734 0.98288 0.0
C1663 C 0.50453 0.97765 0.00327 0.0
C1664 C 0.49224 0.99912 0.01629 0.0
H1665 H 0.52201 0.96764 0.97322 0.0
H1666 H 0.50711 0.95517 0.00861 0.0
C1667 C 0.48861 0.02784 0.00858 0.0
C1668 C 0.47142 0.99095 0.50601 0.0
C1669 C 0.48625 0.01246 0.51742 0.0
H1670 H 0.46849 0.96646 0.47759 0.0
C1671 C 0.51023 0.02601 0.50841 0.0
H1672 H 0.45256 0.98052 0.5124 0.0
C1673 C 0.51942 0.01792 0.48849 0.0
C1674 C 0.50475 0.99617 0.47714 0.0
H1675 H 0.52225 0.04246 0.51695 0.0
H1676 H 0.53841 0.0282 0.48218 0.0
C1677 C 0.48053 0.98294 0.48606 0.0
C1678 C 0.98848 0.01276 0.51578 0.0
C1679 C 0.00619 0.98798 0.518 0.0
H1680 H 0.96532 0.04066 0.49485 0.0
C1681 C 0.01422 0.97217 0.50005 0.0
H1682 H 0.98149 0.02513 0.5293 0.0
C1683 C 0.00477 0.98095 0.48034 0.0
C1684 C 0.98728 0.00586 0.47816 0.0
H1685 H 0.02823 0.95326 0.50117 0.0
H1686 H 0.01157 0.96858 0.46677 0.0
C1687 C 0.97918 0.02164 0.49607 0.0
C1688 C 0.52261 0.4825 0.0058 0.0
C1689 C 0.50754 0.50369 0.0174 0.0
H1690 H 0.52573 0.45846 0.97713 0.0
C1691 C 0.48297 0.5165 0.00865 0.0
H1692 H 0.54188 0.47257 0.01194 0.0
C1693 C 0.47392 0.50864 0.98866 0.0
C1694 C 0.48913 0.48766 0.97703 0.0
H1695 H 0.4706 0.53253 0.01731 0.0
H1696 H 0.4548 0.51874 0.9824 0.0
C1697 C 0.51346 0.47451 0.98584 0.0
C1698 C 0.96922 0.49741 -0.0028 0.0
C1699 C 0.98838 0.48857 0.01286 0.0
H1700 H 0.96406 0.51232 0.9657 0.0
C1701 C 0.0177 0.48759 0.00839 0.0
H1702 H 0.94646 0.49802 0.00017 0.0
C1703 C 0.02773 0.49563 0.9887 0.0
C1704 C 0.0086 0.5046 0.97305 0.0
H1705 H 0.03294 0.48096 0.02021 0.0
H1706 H 0.05046 0.49472 0.98567 0.0
C1707 C 0.97924 0.50524 0.97743 0.0
C1708 C 0.96921 0.50281 0.50129 0.0
C1709 C 0.98951 0.5134 0.51559 0.0
H1710 H 0.96109 0.48789 0.47015 0.0
C1711 C 0.01801 0.51652 0.50916 0.0
H1712 H 0.94701 0.50058 0.50574 0.0
C1713 C 0.02605 0.50928 0.48884 0.0
C1714 C 0.00575 0.49887 0.47446 0.0
H1715 H 0.03419 0.52423 0.51993 0.0
H1716 H 0.0483 0.51138 0.4845 0.0
C1717 C 0.97725 0.49563 0.48092 0.0
C1718 C 0.53049 0.49811 0.5025 0.0
C1719 C 0.51182 0.4849 0.51689 0.0
H1720 H 0.53591 0.51578 0.4718 0.0
C1721 C 0.48337 0.47975 0.511 0.0
H1722 H 0.55265 0.50192 0.50648 0.0
C1723 C 0.47376 0.48774 0.49117 0.0
C1724 C 0.49242 0.50093 0.47675 0.0
H1725 H 0.46841 0.46993 0.52185 0.0
H1726 H 0.45154 0.48406 0.48728 0.0
C1727 C 0.5209 0.50601 0.48264 0.0
loop_
_geom_bond_atom_site_label_1
_geom_bond_atom_site_label_2
_geom_bond_distance
_geom_bond_site_symmetry_2
_ccdc_geom_bond_type
Li0 N17 1.990 . S
Li0 O60 1.956 . S
Li0 O61 1.970 . S
Li0 O62 1.961 . S
Li1 N25 1.990 . S
Li1 O60 1.970 . S
Li1 O61 1.956 . S
Li1 O63 1.961 . S
Li2 N47 1.990 . S
Li2 O60 1.961 . S
Li2 O62 1.956 . S
Li2 O63 1.970 . S
Li3 N53 1.990 . S
Li3 O61 1.961 . S
Li3 O62 1.970 . S
Li3 O63 1.956 . S
C4 C6 1.348 . S
C4 C7 1.356 . S
C4 O60 1.325 1_565 S
N5 C8 1.314 . S
N5 C9 1.279 . S
C6 C4 1.348 . S
C6 C8 1.353 . S
C6 H64 0.929 . S
C7 C4 1.356 . S
C7 C9 1.358 . S
C7 H65 0.930 . S
C8 N5 1.314 . S
C8 C6 1.353 . S
C8 H66 0.930 . S
C9 N5 1.279 . S
C9 C7 1.358 . S
C9 H67 0.930 . S
C10 C13 1.348 . S
C10 C14 1.356 . S
C10 O61 1.325 . S
C11 N12 1.279 . S
C11 C14 1.358 . S
C11 H68 0.930 . S
N12 C11 1.279 . S
N12 C15 1.314 . S
C13 C10 1.348 . S
C13 C15 1.353 . S
C13 H69 0.929 . S
C14 C10 1.356 . S
C14 C11 1.358 . S
C14 H70 0.930 . S
C15 N12 1.314 . S
C15 C13 1.353 . S
C15 H71 0.930 . S
C16 N17 1.314 . S
C16 C21 1.353 1_455 S
C16 H22 0.926 1_455 S
N17 Li0 1.990 . S
N17 C16 1.314 . S
N17 C19 1.279 1_545 S
C18 C19 1.358 . S
C18 C20 1.356 1_455 S
C18 H72 0.930 . S
C19 N17 1.279 1_565 S
C19 C18 1.358 . S
C19 H23 0.930 . S
C20 C18 1.356 1_655 S
C20 C21 1.348 1_565 S
C21 C16 1.353 1_655 S
C21 C20 1.348 1_545 S
C21 H73 0.929 . S
H22 C16 0.926 1_655 S
H23 C19 0.930 . S
C24 N25 1.314 . S
C24 C26 1.353 . S
C24 H30 0.930 . S
N25 Li1 1.990 . S
N25 C24 1.314 . S
N25 C28 1.279 . S
C26 C24 1.353 . S
C26 C29 1.348 . S
C26 H74 0.929 . S
C27 C28 1.358 . S
C27 C29 1.356 . S
C27 H75 0.930 . S
C28 N25 1.279 . S
C28 C27 1.358 . S
C28 H31 0.930 . S
C29 C26 1.348 . S
C29 C27 1.356 . S
H30 C24 0.930 . S
H31 C28 0.930 . S
C32 C34 1.348 . S
C32 C35 1.356 . S
C32 O62 1.325 1_655 S
N33 C36 1.314 . S
N33 C37 1.279 . S
C34 C32 1.348 . S
C34 C36 1.353 . S
C34 H76 0.929 . S
C35 C32 1.356 . S
C35 C37 1.358 . S
C35 H77 0.930 . S
C36 N33 1.314 . S
C36 C34 1.353 . S
C36 H78 0.930 . S
C37 N33 1.279 . S
C37 C35 1.358 . S
C37 H79 0.930 . S
C38 C39 1.348 . S
C38 C40 1.356 . S
C38 O63 1.325 . S
C39 C38 1.348 . S
C39 C41 1.353 . S
C39 H80 0.929 . S
C40 C38 1.356 . S
C40 C42 1.358 . S
C40 H81 0.930 . S
C41 C39 1.353 . S
C41 N43 1.314 . S
C41 H82 0.930 . S
C42 C40 1.358 . S
C42 N43 1.279 . S
C42 H83 0.930 . S
N43 C41 1.314 . S
N43 C42 1.279 . S
C44 C46 1.347 1_545 S
C44 N47 1.314 . S
C44 H50 0.930 . S
C45 N47 1.255 1_655 S
C45 C48 1.370 . S
C45 H51 0.945 . S
C46 C44 1.347 1_565 S
C46 C49 1.341 1_565 S
C46 H84 0.942 . S
N47 Li2 1.990 . S
N47 C44 1.314 . S
N47 C45 1.255 1_455 S
C48 C45 1.370 . S
C48 C49 1.356 1_655 S
C48 H85 0.930 . S
C49 C46 1.341 1_545 S
C49 C48 1.356 1_455 S
H50 C44 0.930 . S
H51 C45 0.945 . S
C52 N53 1.314 . S
C52 C54 1.353 . S
C52 H58 0.930 . S
N53 Li3 1.990 . S
N53 C52 1.314 . S
N53 C56 1.279 . S
C54 C52 1.353 . S
C54 C57 1.348 . S
C54 H86 0.929 . S
C55 C56 1.358 . S
C55 C57 1.356 . S
C55 H87 0.930 . S
C56 N53 1.279 . S
C56 C55 1.358 . S
C56 H59 0.930 . S
C57 C54 1.348 . S
C57 C55 1.356 . S
H58 C52 0.930 . S
H59 C56 0.930 . S
O60 Li0 1.956 . S
O60 Li1 1.970 . S
O60 Li2 1.961 . S
O60 C4 1.325 1_545 S
O61 Li0 1.970 . S
O61 Li1 1.956 . S
O61 Li3 1.961 . S
O61 C10 1.325 . S
O62 Li0 1.961 . S
O62 Li2 1.956 . S
O62 Li3 1.970 . S
O62 C32 1.325 1_455 S
O63 Li1 1.961 . S
O63 Li2 1.970 . S
O63 Li3 1.956 . S
O63 C38 1.325 . S
H64 C6 0.929 . S
H65 C7 0.930 . S
H66 C8 0.930 . S
H67 C9 0.930 . S
H68 C11 0.930 . S
H69 C13 0.929 . S
H70 C14 0.930 . S
H71 C15 0.930 . S
H72 C18 0.930 . S
H73 C21 0.929 . S
H74 C26 0.929 . S
H75 C27 0.930 . S
H76 C34 0.929 . S
H77 C35 0.930 . S
H78 C36 0.930 . S
H79 C37 0.930 . S
H80 C39 0.929 . S
H81 C40 0.930 . S
H82 C41 0.930 . S
H83 C42 0.930 . S
H84 C46 0.942 . S
H85 C48 0.930 . S
H86 C54 0.929 . S
H87 C55 0.930 . S
Li88 N105 1.990 . S
Li88 O148 1.956 . S
Li88 O149 1.970 . S
Li88 O150 1.961 . S
Li89 N113 1.990 . S
Li89 O148 1.970 . S
Li89 O149 1.956 . S
Li89 O151 1.961 . S
Li90 N135 1.990 . S
Li90 O148 1.961 . S
Li90 O150 1.956 . S
Li90 O151 1.970 . S
Li91 N141 1.990 . S
Li91 O149 1.961 . S
Li91 O150 1.970 . S
Li91 O151 1.956 . S
C92 C94 1.348 . S
C92 C95 1.356 . S
C92 O148 1.325 . S
N93 C96 1.314 . S
N93 C97 1.279 . S
C94 C92 1.348 . S
C94 C96 1.353 . S
C94 H152 0.929 . S
C95 C92 1.356 . S
C95 C97 1.358 . S
C95 H153 0.930 . S
C96 N93 1.314 . S
C96 C94 1.353 . S
C96 H154 0.930 . S
C97 N93 1.279 . S
C97 C95 1.358 . S
C97 H155 0.930 . S
C98 C101 1.348 . S
C98 C102 1.356 . S
C98 O149 1.325 . S
C99 N100 1.279 . S
C99 C102 1.358 . S
C99 H156 0.930 . S
N100 C99 1.279 . S
N100 C103 1.314 . S
C101 C98 1.348 . S
C101 C103 1.353 . S
C101 H157 0.929 . S
C102 C98 1.356 . S
C102 C99 1.358 . S
C102 H158 0.930 . S
C103 N100 1.314 . S
C103 C101 1.353 . S
C103 H159 0.930 . S
C104 N105 1.314 . S
C104 C109 1.353 . S
C104 H110 0.930 . S
N105 Li88 1.990 . S
N105 C104 1.314 . S
N105 C107 1.279 . S
C106 C107 1.358 . S
C106 C108 1.356 . S
C106 H160 0.930 . S
C107 N105 1.279 . S
C107 C106 1.358 . S
C107 H111 0.930 . S
C108 C106 1.356 . S
C108 C109 1.348 . S
C109 C104 1.353 . S
C109 C108 1.348 . S
C109 H161 0.929 . S
H110 C104 0.930 . S
H111 C107 0.930 . S
C112 N113 1.314 . S
C112 C114 1.347 1_565 S
C112 H118 0.930 . S
N113 Li89 1.990 . S
N113 C112 1.314 . S
N113 C116 1.279 . S
C114 C112 1.347 1_545 S
C114 C117 1.341 1_545 S
C114 H162 0.942 . S
C115 C116 1.358 . S
C115 C117 1.356 . S
C115 H163 0.930 . S
C116 N113 1.279 . S
C116 C115 1.358 . S
C116 H119 0.930 . S
C117 C114 1.341 1_565 S
C117 C115 1.356 . S
H118 C112 0.930 . S
H119 C116 0.930 . S
C120 C122 1.348 . S
C120 C123 1.356 . S
C120 O150 1.325 . S
N121 C124 1.314 . S
N121 C125 1.279 . S
C122 C120 1.348 . S
C122 C124 1.353 . S
C122 H164 0.929 . S
C123 C120 1.356 . S
C123 C125 1.358 . S
C123 H165 0.930 . S
C124 N121 1.314 . S
C124 C122 1.353 . S
C124 H166 0.930 . S
C125 N121 1.279 . S
C125 C123 1.358 . S
C125 H167 0.930 . S
C126 C127 1.348 . S
C126 C128 1.356 . S
C126 O151 1.325 1_545 S
C127 C126 1.348 . S
C127 C129 1.353 . S
C127 H168 0.929 . S
C128 C126 1.356 . S
C128 C130 1.358 . S
C128 H169 0.930 . S
C129 C127 1.353 . S
C129 N131 1.314 . S
C129 H170 0.930 . S
C130 C128 1.358 . S
C130 N131 1.279 . S
C130 H171 0.930 . S
N131 C129 1.314 . S
N131 C130 1.279 . S
C132 C134 1.353 . S
C132 N135 1.314 . S
C132 H138 0.930 . S
C133 N135 1.279 . S
C133 C136 1.358 . S
C133 H139 0.930 . S
C134 C132 1.353 . S
C134 C137 1.348 . S
C134 H172 0.929 . S
N135 Li90 1.990 . S
N135 C132 1.314 . S
N135 C133 1.279 . S
C136 C133 1.358 . S
C136 C137 1.356 . S
C136 H173 0.930 . S
C137 C134 1.348 . S
C137 C136 1.356 . S
H138 C132 0.930 . S
H139 C133 0.930 . S
C140 N141 1.314 . S
C140 C142 1.353 . S
C140 H146 0.930 . S
N141 Li91 1.990 . S
N141 C140 1.314 . S
N141 C144 1.279 1_565 S
C142 C140 1.353 . S
C142 C145 1.348 1_565 S
C142 H174 0.929 . S
C143 C144 1.358 . S
C143 C145 1.356 . S
C143 H175 0.930 . S
C144 N141 1.279 1_545 S
C144 C143 1.358 . S
C144 H147 0.930 . S
C145 C142 1.348 1_545 S
C145 C143 1.356 . S
H146 C140 0.930 . S
H147 C144 0.930 . S
O148 Li88 1.956 . S
O148 Li89 1.970 . S
O148 Li90 1.961 . S
O148 C92 1.325 . S
O149 Li88 1.970 . S
O149 Li89 1.956 . S
O149 Li91 1.961 . S
O149 C98 1.325 . S
O150 Li88 1.961 . S
O150 Li90 1.956 . S
O150 Li91 1.970 . S
O150 C120 1.325 . S
O151 Li89 1.961 . S
O151 Li90 1.970 . S
O151 Li91 1.956 . S
O151 C126 1.325 1_565 S
H152 C94 0.929 . S
H153 C95 0.930 . S
H154 C96 0.930 . S
H155 C97 0.930 . S
H156 C99 0.930 . S
H157 C101 0.929 . S
H158 C102 0.930 . S
H159 C103 0.930 . S
H160 C106 0.930 . S
H161 C109 0.929 . S
H162 C114 0.942 . S
H163 C115 0.930 . S
H164 C122 0.929 . S
H165 C123 0.930 . S
H166 C124 0.930 . S
H167 C125 0.930 . S
H168 C127 0.929 . S
H169 C128 0.930 . S
H170 C129 0.930 . S
H171 C130 0.930 . S
H172 C134 0.929 . S
H173 C136 0.930 . S
H174 C142 0.929 . S
H175 C143 0.930 . S
Li176 N193 1.990 . S
Li176 O236 1.956 . S
Li176 O237 1.970 . S
Li176 O238 1.961 . S
Li177 N201 1.990 . S
Li177 O236 1.970 . S
Li177 O237 1.956 . S
Li177 O239 1.961 . S
Li178 N223 1.990 . S
Li178 O236 1.961 . S
Li178 O238 1.956 . S
Li178 O239 1.970 . S
Li179 N229 1.990 . S
Li179 O237 1.961 . S
Li179 O238 1.970 . S
Li179 O239 1.956 . S
C180 C182 1.348 . S
C180 C183 1.356 . S
C180 O236 1.325 . S
N181 C184 1.314 . S
N181 C185 1.279 . S
C182 C180 1.348 . S
C182 C184 1.353 . S
C182 H240 0.929 . S
C183 C180 1.356 . S
C183 C185 1.358 . S
C183 H241 0.930 . S
C184 N181 1.314 . S
C184 C182 1.353 . S
C184 H242 0.930 . S
C185 N181 1.279 . S
C185 C183 1.358 . S
C185 H243 0.930 . S
C186 C189 1.348 . S
C186 C190 1.356 . S
C186 O237 1.325 1_545 S
C187 N188 1.279 . S
C187 C190 1.358 . S
C187 H244 0.930 . S
N188 C187 1.279 . S
N188 C191 1.314 . S
C189 C186 1.348 . S
C189 C191 1.353 . S
C189 H245 0.929 . S
C190 C186 1.356 . S
C190 C187 1.358 . S
C190 H246 0.930 . S
C191 N188 1.314 . S
C191 C189 1.353 . S
C191 H247 0.930 . S
C192 N193 1.314 . S
C192 C197 1.353 . S
C192 H198 0.930 . S
N193 Li176 1.990 . S
N193 C192 1.314 . S
N193 C195 1.279 . S
C194 C195 1.358 . S
C194 C196 1.356 . S
C194 H248 0.930 . S
C195 N193 1.279 . S
C195 C194 1.358 . S
C195 H199 0.930 . S
C196 C194 1.356 . S
C196 C197 1.348 . S
C197 C192 1.353 . S
C197 C196 1.348 . S
C197 H249 0.929 . S
H198 C192 0.930 . S
H199 C195 0.930 . S
C200 N201 1.314 . S
C200 C202 1.353 . S
C200 H206 0.930 . S
N201 Li177 1.990 . S
N201 C200 1.314 . S
N201 C204 1.279 1_565 S
C202 C200 1.353 . S
C202 C205 1.348 1_565 S
C202 H250 0.929 . S
C203 C204 1.358 . S
C203 C205 1.356 . S
C203 H251 0.930 . S
C204 N201 1.279 1_545 S
C204 C203 1.358 . S
C204 H207 0.930 . S
C205 C202 1.348 1_545 S
C205 C203 1.356 . S
H206 C200 0.930 . S
H207 C204 0.930 . S
C208 C210 1.348 . S
C208 C211 1.356 . S
C208 O238 1.325 . S
N209 C212 1.314 . S
N209 C213 1.279 . S
C210 C208 1.348 . S
C210 C212 1.353 . S
C210 H252 0.929 . S
C211 C208 1.356 . S
C211 C213 1.358 . S
C211 H253 0.930 . S
C212 N209 1.314 . S
C212 C210 1.353 . S
C212 H254 0.930 . S
C213 N209 1.279 . S
C213 C211 1.358 . S
C213 H255 0.930 . S
C214 C215 1.348 . S
C214 C216 1.356 . S
C214 O239 1.325 . S
C215 C214 1.348 . S
C215 C217 1.353 . S
C215 H256 0.929 . S
C216 C214 1.356 . S
C216 C218 1.358 . S
C216 H257 0.930 . S
C217 C215 1.353 . S
C217 N219 1.314 . S
C217 H258 0.930 . S
C218 C216 1.358 . S
C218 N219 1.279 . S
C218 H259 0.930 . S
N219 C217 1.314 . S
N219 C218 1.279 . S
C220 C222 1.353 . S
C220 N223 1.314 . S
C220 H226 0.930 . S
C221 N223 1.279 . S
C221 C224 1.358 . S
C221 H227 0.930 . S
C222 C220 1.353 . S
C222 C225 1.348 . S
C222 H260 0.929 . S
N223 Li178 1.990 . S
N223 C220 1.314 . S
N223 C221 1.279 . S
C224 C221 1.358 . S
C224 C225 1.356 . S
C224 H261 0.930 . S
C225 C222 1.348 . S
C225 C224 1.356 . S
H226 C220 0.930 . S
H227 C221 0.930 . S
C228 N229 1.314 . S
C228 C230 1.347 1_565 S
C228 H234 0.930 . S
N229 Li179 1.990 . S
N229 C228 1.314 . S
N229 C232 1.279 . S
C230 C228 1.347 1_545 S
C230 C233 1.341 1_545 S
C230 H262 0.942 . S
C231 C232 1.358 . S
C231 C233 1.356 . S
C231 H263 0.930 . S
C232 N229 1.279 . S
C232 C231 1.358 . S
C232 H235 0.930 . S
C233 C230 1.341 1_565 S
C233 C231 1.356 . S
H234 C228 0.930 . S
H235 C232 0.930 . S
O236 Li176 1.956 . S
O236 Li177 1.970 . S
O236 Li178 1.961 . S
O236 C180 1.325 . S
O237 Li176 1.970 . S
O237 Li177 1.956 . S
O237 Li179 1.961 . S
O237 C186 1.325 1_565 S
O238 Li176 1.961 . S
O238 Li178 1.956 . S
O238 Li179 1.970 . S
O238 C208 1.325 . S
O239 Li177 1.961 . S
O239 Li178 1.970 . S
O239 Li179 1.956 . S
O239 C214 1.325 . S
H240 C182 0.929 . S
H241 C183 0.930 . S
H242 C184 0.930 . S
H243 C185 0.930 . S
H244 C187 0.930 . S
H245 C189 0.929 . S
H246 C190 0.930 . S
H247 C191 0.930 . S
H248 C194 0.930 . S
H249 C197 0.929 . S
H250 C202 0.929 . S
H251 C203 0.930 . S
H252 C210 0.929 . S
H253 C211 0.930 . S
H254 C212 0.930 . S
H255 C213 0.930 . S
H256 C215 0.929 . S
H257 C216 0.930 . S
H258 C217 0.930 . S
H259 C218 0.930 . S
H260 C222 0.929 . S
H261 C224 0.930 . S
H262 C230 0.942 . S
H263 C231 0.930 . S
Li264 N281 1.990 . S
Li264 O324 1.956 . S
Li264 O325 1.970 . S
Li264 O326 1.961 . S
Li265 N289 1.990 . S
Li265 O324 1.970 . S
Li265 O325 1.956 . S
Li265 O327 1.961 . S
Li266 N311 1.990 . S
Li266 O324 1.961 . S
Li266 O326 1.956 . S
Li266 O327 1.970 . S
Li267 N317 1.990 . S
Li267 O325 1.961 . S
Li267 O326 1.970 . S
Li267 O327 1.956 . S
C268 C270 1.348 . S
C268 C271 1.356 . S
C268 O324 1.325 1_565 S
N269 C272 1.314 . S
N269 C273 1.279 . S
C270 C268 1.348 . S
C270 C272 1.353 . S
C270 H328 0.929 . S
C271 C268 1.356 . S
C271 C273 1.358 . S
C271 H329 0.930 . S
C272 N269 1.314 . S
C272 C270 1.353 . S
C272 H330 0.930 . S
C273 N269 1.279 . S
C273 C271 1.358 . S
C273 H331 0.930 . S
C274 C277 1.348 . S
C274 C278 1.356 . S
C274 O325 1.325 . S
C275 N276 1.279 . S
C275 C278 1.358 . S
C275 H332 0.930 . S
N276 C275 1.279 . S
N276 C279 1.314 . S
C277 C274 1.348 . S
C277 C279 1.353 . S
C277 H333 0.929 . S
C278 C274 1.356 . S
C278 C275 1.358 . S
C278 H334 0.930 . S
C279 N276 1.314 . S
C279 C277 1.353 . S
C279 H335 0.930 . S
C280 N281 1.314 . S
C280 C285 1.353 1_655 S
C280 H286 0.926 1_655 S
N281 Li264 1.990 . S
N281 C280 1.314 . S
N281 C283 1.279 1_545 S
C282 C283 1.358 . S
C282 C284 1.356 1_655 S
C282 H336 0.930 . S
C283 N281 1.279 1_565 S
C283 C282 1.358 . S
C283 H287 0.930 . S
C284 C282 1.356 1_455 S
C284 C285 1.348 1_565 S
C285 C280 1.353 1_455 S
C285 C284 1.348 1_545 S
C285 H337 0.929 . S
H286 C280 0.926 1_455 S
H287 C283 0.930 . S
C288 N289 1.314 . S
C288 C290 1.353 . S
C288 H294 0.930 . S
N289 Li265 1.990 . S
N289 C288 1.314 . S
N289 C292 1.279 . S
C290 C288 1.353 . S
C290 C293 1.348 . S
C290 H338 0.929 . S
C291 C292 1.358 . S
C291 C293 1.356 . S
C291 H339 0.930 . S
C292 N289 1.279 . S
C292 C291 1.358 . S
C292 H295 0.930 . S
C293 C290 1.348 . S
C293 C291 1.356 . S
H294 C288 0.930 . S
H295 C292 0.930 . S
C296 C298 1.348 . S
C296 C299 1.356 . S
C296 O326 1.325 1_455 S
N297 C300 1.314 . S
N297 C301 1.279 . S
C298 C296 1.348 . S
C298 C300 1.353 . S
C298 H340 0.929 . S
C299 C296 1.356 . S
C299 C301 1.358 . S
C299 H341 0.930 . S
C300 N297 1.314 . S
C300 C298 1.353 . S
C300 H342 0.930 . S
C301 N297 1.279 . S
C301 C299 1.358 . S
C301 H343 0.930 . S
C302 C303 1.348 . S
C302 C304 1.356 . S
C302 O327 1.325 . S
C303 C302 1.348 . S
C303 C305 1.353 . S
C303 H344 0.929 . S
C304 C302 1.356 . S
C304 C306 1.358 . S
C304 H345 0.930 . S
C305 C303 1.353 . S
C305 N307 1.314 . S
C305 H346 0.930 . S
C306 C304 1.358 . S
C306 N307 1.279 . S
C306 H347 0.930 . S
N307 C305 1.314 . S
N307 C306 1.279 . S
C308 C310 1.347 1_545 S
C308 N311 1.314 . S
C308 H314 0.930 . S
C309 N311 1.255 1_455 S
C309 C312 1.370 . S
C309 H315 0.945 . S
C310 C308 1.347 1_565 S
C310 C313 1.341 1_565 S
C310 H348 0.942 . S
N311 Li266 1.990 . S
N311 C308 1.314 . S
N311 C309 1.255 1_655 S
C312 C309 1.370 . S
C312 C313 1.356 1_455 S
C312 H349 0.930 . S
C313 C310 1.341 1_545 S
C313 C312 1.356 1_655 S
H314 C308 0.930 . S
H315 C309 0.945 . S
C316 N317 1.314 . S
C316 C318 1.353 . S
C316 H322 0.930 . S
N317 Li267 1.990 . S
N317 C316 1.314 . S
N317 C320 1.279 . S
C318 C316 1.353 . S
C318 C321 1.348 . S
C318 H350 0.929 . S
C319 C320 1.358 . S
C319 C321 1.356 . S
C319 H351 0.930 . S
C320 N317 1.279 . S
C320 C319 1.358 . S
C320 H323 0.930 . S
C321 C318 1.348 . S
C321 C319 1.356 . S
H322 C316 0.930 . S
H323 C320 0.930 . S
O324 Li264 1.956 . S
O324 Li265 1.970 . S
O324 Li266 1.961 . S
O324 C268 1.325 1_545 S
O325 Li264 1.970 . S
O325 Li265 1.956 . S
O325 Li267 1.961 . S
O325 C274 1.325 . S
O326 Li264 1.961 . S
O326 Li266 1.956 . S
O326 Li267 1.970 . S
O326 C296 1.325 1_655 S
O327 Li265 1.961 . S
O327 Li266 1.970 . S
O327 Li267 1.956 . S
O327 C302 1.325 . S
H328 C270 0.929 . S
H329 C271 0.930 . S
H330 C272 0.930 . S
H331 C273 0.930 . S
H332 C275 0.930 . S
H333 C277 0.929 . S
H334 C278 0.930 . S
H335 C279 0.930 . S
H336 C282 0.930 . S
H337 C285 0.929 . S
H338 C290 0.929 . S
H339 C291 0.930 . S
H340 C298 0.929 . S
H341 C299 0.930 . S
H342 C300 0.930 . S
H343 C301 0.930 . S
H344 C303 0.929 . S
H345 C304 0.930 . S
H346 C305 0.930 . S
H347 C306 0.930 . S
H348 C310 0.942 . S
H349 C312 0.930 . S
H350 C318 0.929 . S
H351 C319 0.930 . S
Li352 N369 1.990 . S
Li352 O412 1.956 . S
Li352 O413 1.970 . S
Li352 O414 1.961 . S
Li353 N377 1.990 . S
Li353 O412 1.970 . S
Li353 O413 1.956 . S
Li353 O415 1.961 . S
Li354 N399 1.990 . S
Li354 O412 1.961 . S
Li354 O414 1.956 . S
Li354 O415 1.970 . S
Li355 N405 1.990 . S
Li355 O413 1.961 . S
Li355 O414 1.970 . S
Li355 O415 1.956 . S
C356 C358 1.348 . S
C356 C359 1.356 . S
C356 O412 1.325 . S
N357 C360 1.314 . S
N357 C361 1.279 . S
C358 C356 1.348 . S
C358 C360 1.353 . S
C358 H416 0.929 . S
C359 C356 1.356 . S
C359 C361 1.358 . S
C359 H417 0.930 . S
C360 N357 1.314 . S
C360 C358 1.353 . S
C360 H418 0.930 . S
C361 N357 1.279 . S
C361 C359 1.358 . S
C361 H419 0.930 . S
C362 C365 1.348 . S
C362 C366 1.356 . S
C362 O413 1.325 1_455 S
C363 N364 1.279 . S
C363 C366 1.358 . S
C363 H420 0.930 . S
N364 C363 1.279 . S
N364 C367 1.314 . S
C365 C362 1.348 . S
C365 C367 1.353 . S
C365 H421 0.929 . S
C366 C362 1.356 . S
C366 C363 1.358 . S
C366 H422 0.930 . S
C367 N364 1.314 . S
C367 C365 1.353 . S
C367 H423 0.930 . S
C368 N369 1.314 . S
C368 C373 1.353 . S
C368 H374 0.930 . S
N369 Li352 1.990 . S
N369 C368 1.314 . S
N369 C371 1.279 . S
C370 C371 1.358 . S
C370 C372 1.356 . S
C370 H424 0.930 . S
C371 N369 1.279 . S
C371 C370 1.358 . S
C371 H375 0.930 . S
C372 C370 1.356 . S
C372 C373 1.348 . S
C373 C368 1.353 . S
C373 C372 1.348 . S
C373 H425 0.929 . S
H374 C368 0.930 . S
H375 C371 0.930 . S
C376 N377 1.314 1_545 S
C376 C378 1.353 . S
C376 H382 0.930 . S
N377 Li353 1.990 . S
N377 C376 1.314 1_565 S
N377 C380 1.279 1_655 S
C378 C376 1.353 . S
C378 C381 1.348 1_655 S
C378 H426 0.929 . S
C379 C380 1.358 . S
C379 C381 1.356 1_565 S
C379 H427 0.930 . S
C380 N377 1.279 1_455 S
C380 C379 1.358 . S
C380 H383 0.930 . S
C381 C378 1.348 1_455 S
C381 C379 1.356 1_545 S
H382 C376 0.930 . S
H383 C380 0.930 . S
C384 C386 1.348 . S
C384 C387 1.356 . S
C384 O414 1.325 . S
N385 C388 1.314 . S
N385 C389 1.279 . S
C386 C384 1.348 . S
C386 C388 1.353 . S
C386 H428 0.929 . S
C387 C384 1.356 . S
C387 C389 1.358 . S
C387 H429 0.930 . S
C388 N385 1.314 . S
C388 C386 1.353 . S
C388 H430 0.930 . S
C389 N385 1.279 . S
C389 C387 1.358 . S
C389 H431 0.930 . S
C390 C391 1.348 . S
C390 C392 1.356 . S
C390 O415 1.325 1_545 S
C391 C390 1.348 . S
C391 C393 1.353 . S
C391 H432 0.929 . S
C392 C390 1.356 . S
C392 C394 1.358 . S
C392 H433 0.930 . S
C393 C391 1.353 . S
C393 N395 1.314 . S
C393 H434 0.930 . S
C394 C392 1.358 . S
C394 N395 1.279 . S
C394 H435 0.930 . S
N395 C393 1.314 . S
N395 C394 1.279 . S
C396 C398 1.353 . S
C396 N399 1.314 . S
C396 H402 0.930 . S
C397 N399 1.279 . S
C397 C400 1.358 . S
C397 H403 0.930 . S
C398 C396 1.353 . S
C398 C401 1.348 . S
C398 H436 0.929 . S
N399 Li354 1.990 . S
N399 C396 1.314 . S
N399 C397 1.279 . S
C400 C397 1.358 . S
C400 C401 1.356 . S
C400 H437 0.930 . S
C401 C398 1.348 . S
C401 C400 1.356 . S
H402 C396 0.930 . S
H403 C397 0.930 . S
C404 N405 1.314 . S
C404 C406 1.353 1_655 S
C404 H410 0.930 . S
N405 Li355 1.990 . S
N405 C404 1.314 . S
N405 C408 1.279 . S
C406 C404 1.353 1_455 S
C406 C409 1.348 1_455 S
C406 H438 0.929 . S
C407 C408 1.358 1_545 S
C407 C409 1.356 1_545 S
C407 H439 0.930 . S
C408 N405 1.279 . S
C408 C407 1.358 1_565 S
C408 H411 0.930 1_565 S
C409 C406 1.348 1_655 S
C409 C407 1.356 1_565 S
H410 C404 0.930 . S
H411 C408 0.930 1_545 S
O412 Li352 1.956 . S
O412 Li353 1.970 . S
O412 Li354 1.961 . S
O412 C356 1.325 . S
O413 Li352 1.970 . S
O413 Li353 1.956 . S
O413 Li355 1.961 . S
O413 C362 1.325 1_655 S
O414 Li352 1.961 . S
O414 Li354 1.956 . S
O414 Li355 1.970 . S
O414 C384 1.325 . S
O415 Li353 1.961 . S
O415 Li354 1.970 . S
O415 Li355 1.956 . S
O415 C390 1.325 1_565 S
H416 C358 0.929 . S
H417 C359 0.930 . S
H418 C360 0.930 . S
H419 C361 0.930 . S
H420 C363 0.930 . S
H421 C365 0.929 . S
H422 C366 0.930 . S
H423 C367 0.930 . S
H424 C370 0.930 . S
H425 C373 0.929 . S
H426 C378 0.929 . S
H427 C379 0.930 . S
H428 C386 0.929 . S
H429 C387 0.930 . S
H430 C388 0.930 . S
H431 C389 0.930 . S
H432 C391 0.929 . S
H433 C392 0.930 . S
H434 C393 0.930 . S
H435 C394 0.930 . S
H436 C398 0.929 . S
H437 C400 0.930 . S
H438 C406 0.929 . S
H439 C407 0.930 . S
Li440 N457 1.990 . S
Li440 O500 1.956 . S
Li440 O501 1.970 . S
Li440 O502 1.961 . S
Li441 N465 1.990 . S
Li441 O500 1.970 . S
Li441 O501 1.956 . S
Li441 O503 1.961 . S
Li442 N487 1.990 . S
Li442 O500 1.961 . S
Li442 O502 1.956 . S
Li442 O503 1.970 . S
Li443 N493 1.990 . S
Li443 O501 1.961 . S
Li443 O502 1.970 . S
Li443 O503 1.956 . S
C444 C446 1.348 . S
C444 C447 1.356 . S
C444 O500 1.325 . S
N445 C448 1.314 . S
N445 C449 1.279 . S
C446 C444 1.348 . S
C446 C448 1.353 . S
C446 H504 0.929 . S
C447 C444 1.356 . S
C447 C449 1.358 . S
C447 H505 0.930 . S
C448 N445 1.314 . S
C448 C446 1.353 . S
C448 H506 0.930 . S
C449 N445 1.279 . S
C449 C447 1.358 . S
C449 H507 0.930 . S
C450 C453 1.348 . S
C450 C454 1.356 . S
C450 O501 1.325 . S
C451 N452 1.279 . S
C451 C454 1.358 . S
C451 H508 0.930 . S
N452 C451 1.279 . S
N452 C455 1.314 . S
C453 C450 1.348 . S
C453 C455 1.353 . S
C453 H509 0.929 . S
C454 C450 1.356 . S
C454 C451 1.358 . S
C454 H510 0.930 . S
C455 N452 1.314 . S
C455 C453 1.353 . S
C455 H511 0.930 . S
C456 N457 1.314 . S
C456 C461 1.353 . S
C456 H462 0.930 . S
N457 Li440 1.990 . S
N457 C456 1.314 . S
N457 C459 1.279 . S
C458 C459 1.358 . S
C458 C460 1.356 . S
C458 H512 0.930 . S
C459 N457 1.279 . S
C459 C458 1.358 . S
C459 H463 0.930 . S
C460 C458 1.356 . S
C460 C461 1.348 . S
C461 C456 1.353 . S
C461 C460 1.348 . S
C461 H513 0.929 . S
H462 C456 0.930 . S
H463 C459 0.930 . S
C464 N465 1.314 1_565 S
C464 C466 1.353 . S
C464 H470 0.930 . S
N465 Li441 1.990 . S
N465 C464 1.314 1_545 S
N465 C468 1.279 . S
C466 C464 1.353 . S
C466 C469 1.348 . S
C466 H514 0.929 . S
C467 C468 1.358 . S
C467 C469 1.356 1_545 S
C467 H515 0.930 . S
C468 N465 1.279 . S
C468 C467 1.358 . S
C468 H471 0.930 . S
C469 C466 1.348 . S
C469 C467 1.356 1_565 S
H470 C464 0.930 . S
H471 C468 0.930 . S
C472 C474 1.348 . S
C472 C475 1.356 . S
C472 O502 1.325 . S
N473 C476 1.314 . S
N473 C477 1.279 . S
C474 C472 1.348 . S
C474 C476 1.353 . S
C474 H516 0.929 . S
C475 C472 1.356 . S
C475 C477 1.358 . S
C475 H517 0.930 . S
C476 N473 1.314 . S
C476 C474 1.353 . S
C476 H518 0.930 . S
C477 N473 1.279 . S
C477 C475 1.358 . S
C477 H519 0.930 . S
C478 C479 1.348 . S
C478 C480 1.356 . S
C478 O503 1.325 1_565 S
C479 C478 1.348 . S
C479 C481 1.353 . S
C479 H520 0.929 . S
C480 C478 1.356 . S
C480 C482 1.358 . S
C480 H521 0.930 . S
C481 C479 1.353 . S
C481 N483 1.314 . S
C481 H522 0.930 . S
C482 C480 1.358 . S
C482 N483 1.279 . S
C482 H523 0.930 . S
N483 C481 1.314 . S
N483 C482 1.279 . S
C484 C486 1.353 . S
C484 N487 1.314 . S
C484 H490 0.930 . S
C485 N487 1.279 . S
C485 C488 1.358 . S
C485 H491 0.930 . S
C486 C484 1.353 . S
C486 C489 1.348 . S
C486 H524 0.929 . S
N487 Li442 1.990 . S
N487 C484 1.314 . S
N487 C485 1.279 . S
C488 C485 1.358 . S
C488 C489 1.356 . S
C488 H525 0.930 . S
C489 C486 1.348 . S
C489 C488 1.356 . S
H490 C484 0.930 . S
H491 C485 0.930 . S
C492 N493 1.314 . S
C492 C494 1.353 . S
C492 H498 0.930 . S
N493 Li443 1.990 . S
N493 C492 1.314 . S
N493 C496 1.279 . S
C494 C492 1.353 . S
C494 C497 1.348 . S
C494 H526 0.929 . S
C495 C496 1.358 1_565 S
C495 C497 1.356 1_565 S
C495 H527 0.930 . S
C496 N493 1.279 . S
C496 C495 1.358 1_545 S
C496 H499 0.930 1_545 S
C497 C494 1.348 . S
C497 C495 1.356 1_545 S
H498 C492 0.930 . S
H499 C496 0.930 1_565 S
O500 Li440 1.956 . S
O500 Li441 1.970 . S
O500 Li442 1.961 . S
O500 C444 1.325 . S
O501 Li440 1.970 . S
O501 Li441 1.956 . S
O501 Li443 1.961 . S
O501 C450 1.325 . S
O502 Li440 1.961 . S
O502 Li442 1.956 . S
O502 Li443 1.970 . S
O502 C472 1.325 . S
O503 Li441 1.961 . S
O503 Li442 1.970 . S
O503 Li443 1.956 . S
O503 C478 1.325 1_545 S
H504 C446 0.929 . S
H505 C447 0.930 . S
H506 C448 0.930 . S
H507 C449 0.930 . S
H508 C451 0.930 . S
H509 C453 0.929 . S
H510 C454 0.930 . S
H511 C455 0.930 . S
H512 C458 0.930 . S
H513 C461 0.929 . S
H514 C466 0.929 . S
H515 C467 0.930 . S
H516 C474 0.929 . S
H517 C475 0.930 . S
H518 C476 0.930 . S
H519 C477 0.930 . S
H520 C479 0.929 . S
H521 C480 0.930 . S
H522 C481 0.930 . S
H523 C482 0.930 . S
H524 C486 0.929 . S
H525 C488 0.930 . S
H526 C494 0.929 . S
H527 C495 0.930 . S
Li528 N545 1.990 . S
Li528 O588 1.956 . S
Li528 O589 1.970 . S
Li528 O590 1.961 . S
Li529 N553 1.990 . S
Li529 O588 1.970 . S
Li529 O589 1.956 . S
Li529 O591 1.961 . S
Li530 N575 1.990 . S
Li530 O588 1.961 . S
Li530 O590 1.956 . S
Li530 O591 1.970 . S
Li531 N581 1.990 . S
Li531 O589 1.961 . S
Li531 O590 1.970 . S
Li531 O591 1.956 . S
C532 C534 1.348 . S
C532 C535 1.356 . S
C532 O588 1.325 . S
N533 C536 1.314 . S
N533 C537 1.279 . S
C534 C532 1.348 . S
C534 C536 1.353 . S
C534 H592 0.929 . S
C535 C532 1.356 . S
C535 C537 1.358 . S
C535 H593 0.930 . S
C536 N533 1.314 . S
C536 C534 1.353 . S
C536 H594 0.930 . S
C537 N533 1.279 . S
C537 C535 1.358 . S
C537 H595 0.930 . S
C538 C541 1.348 . S
C538 C542 1.356 . S
C538 O589 1.325 1_565 S
C539 N540 1.279 . S
C539 C542 1.358 . S
C539 H596 0.930 . S
N540 C539 1.279 . S
N540 C543 1.314 . S
C541 C538 1.348 . S
C541 C543 1.353 . S
C541 H597 0.929 . S
C542 C538 1.356 . S
C542 C539 1.358 . S
C542 H598 0.930 . S
C543 N540 1.314 . S
C543 C541 1.353 . S
C543 H599 0.930 . S
C544 N545 1.314 . S
C544 C549 1.353 . S
C544 H550 0.930 . S
N545 Li528 1.990 . S
N545 C544 1.314 . S
N545 C547 1.279 . S
C546 C547 1.358 . S
C546 C548 1.356 . S
C546 H600 0.930 . S
C547 N545 1.279 . S
C547 C546 1.358 . S
C547 H551 0.930 . S
C548 C546 1.356 . S
C548 C549 1.348 . S
C549 C544 1.353 . S
C549 C548 1.348 . S
C549 H601 0.929 . S
H550 C544 0.930 . S
H551 C547 0.930 . S
C552 N553 1.314 . S
C552 C554 1.353 . S
C552 H558 0.930 . S
N553 Li529 1.990 . S
N553 C552 1.314 . S
N553 C556 1.279 . S
C554 C552 1.353 . S
C554 C557 1.348 . S
C554 H602 0.929 . S
C555 C556 1.358 1_565 S
C555 C557 1.356 1_565 S
C555 H603 0.930 . S
C556 N553 1.279 . S
C556 C555 1.358 1_545 S
C556 H559 0.930 1_545 S
C557 C554 1.348 . S
C557 C555 1.356 1_545 S
H558 C552 0.930 . S
H559 C556 0.930 1_565 S
C560 C562 1.348 . S
C560 C563 1.356 . S
C560 O590 1.325 . S
N561 C564 1.314 . S
N561 C565 1.279 . S
C562 C560 1.348 . S
C562 C564 1.353 . S
C562 H604 0.929 . S
C563 C560 1.356 . S
C563 C565 1.358 . S
C563 H605 0.930 . S
C564 N561 1.314 . S
C564 C562 1.353 . S
C564 H606 0.930 . S
C565 N561 1.279 . S
C565 C563 1.358 . S
C565 H607 0.930 . S
C566 C567 1.348 . S
C566 C568 1.356 . S
C566 O591 1.325 . S
C567 C566 1.348 . S
C567 C569 1.353 . S
C567 H608 0.929 . S
C568 C566 1.356 . S
C568 C570 1.358 . S
C568 H609 0.930 . S
C569 C567 1.353 . S
C569 N571 1.314 . S
C569 H610 0.930 . S
C570 C568 1.358 . S
C570 N571 1.279 . S
C570 H611 0.930 . S
N571 C569 1.314 . S
N571 C570 1.279 . S
C572 C574 1.353 . S
C572 N575 1.314 . S
C572 H578 0.930 . S
C573 N575 1.279 . S
C573 C576 1.358 . S
C573 H579 0.930 . S
C574 C572 1.353 . S
C574 C577 1.348 . S
C574 H612 0.929 . S
N575 Li530 1.990 . S
N575 C572 1.314 . S
N575 C573 1.279 . S
C576 C573 1.358 . S
C576 C577 1.356 . S
C576 H613 0.930 . S
C577 C574 1.348 . S
C577 C576 1.356 . S
H578 C572 0.930 . S
H579 C573 0.930 . S
C580 N581 1.314 1_565 S
C580 C582 1.353 . S
C580 H586 0.930 . S
N581 Li531 1.990 . S
N581 C580 1.314 1_545 S
N581 C584 1.279 . S
C582 C580 1.353 . S
C582 C585 1.348 . S
C582 H614 0.929 . S
C583 C584 1.358 . S
C583 C585 1.356 1_545 S
C583 H615 0.930 . S
C584 N581 1.279 . S
C584 C583 1.358 . S
C584 H587 0.930 . S
C585 C582 1.348 . S
C585 C583 1.356 1_565 S
H586 C580 0.930 . S
H587 C584 0.930 . S
O588 Li528 1.956 . S
O588 Li529 1.970 . S
O588 Li530 1.961 . S
O588 C532 1.325 . S
O589 Li528 1.970 . S
O589 Li529 1.956 . S
O589 Li531 1.961 . S
O589 C538 1.325 1_545 S
O590 Li528 1.961 . S
O590 Li530 1.956 . S
O590 Li531 1.970 . S
O590 C560 1.325 . S
O591 Li529 1.961 . S
O591 Li530 1.970 . S
O591 Li531 1.956 . S
O591 C566 1.325 . S
H592 C534 0.929 . S
H593 C535 0.930 . S
H594 C536 0.930 . S
H595 C537 0.930 . S
H596 C539 0.930 . S
H597 C541 0.929 . S
H598 C542 0.930 . S
H599 C543 0.930 . S
H600 C546 0.930 . S
H601 C549 0.929 . S
H602 C554 0.929 . S
H603 C555 0.930 . S
H604 C562 0.929 . S
H605 C563 0.930 . S
H606 C564 0.930 . S
H607 C565 0.930 . S
H608 C567 0.929 . S
H609 C568 0.930 . S
H610 C569 0.930 . S
H611 C570 0.930 . S
H612 C574 0.929 . S
H613 C576 0.930 . S
H614 C582 0.929 . S
H615 C583 0.930 . S
Li616 N633 1.990 . S
Li616 O676 1.956 . S
Li616 O677 1.970 . S
Li616 O678 1.961 . S
Li617 N641 1.990 . S
Li617 O676 1.970 . S
Li617 O677 1.956 . S
Li617 O679 1.961 . S
Li618 N663 1.990 . S
Li618 O676 1.961 . S
Li618 O678 1.956 . S
Li618 O679 1.970 . S
Li619 N669 1.990 . S
Li619 O677 1.961 . S
Li619 O678 1.970 . S
Li619 O679 1.956 . S
C620 C622 1.348 . S
C620 C623 1.356 . S
C620 O676 1.325 1_545 S
N621 C624 1.314 . S
N621 C625 1.279 . S
C622 C620 1.348 . S
C622 C624 1.353 . S
C622 H680 0.929 . S
C623 C620 1.356 . S
C623 C625 1.358 . S
C623 H681 0.930 . S
C624 N621 1.314 . S
C624 C622 1.353 . S
C624 H682 0.930 . S
C625 N621 1.279 . S
C625 C623 1.358 . S
C625 H683 0.930 . S
C626 C629 1.348 . S
C626 C630 1.356 . S
C626 O677 1.325 . S
C627 N628 1.279 . S
C627 C630 1.358 . S
C627 H684 0.930 . S
N628 C627 1.279 . S
N628 C631 1.314 . S
C629 C626 1.348 . S
C629 C631 1.353 . S
C629 H685 0.929 . S
C630 C626 1.356 . S
C630 C627 1.358 . S
C630 H686 0.930 . S
C631 N628 1.314 . S
C631 C629 1.353 . S
C631 H687 0.930 . S
C632 N633 1.314 . S
C632 C637 1.353 1_455 S
C632 H638 0.930 . S
N633 Li616 1.990 . S
N633 C632 1.314 . S
N633 C635 1.279 . S
C634 C635 1.358 1_545 S
C634 C636 1.356 1_545 S
C634 H688 0.930 . S
C635 N633 1.279 . S
C635 C634 1.358 1_565 S
C635 H639 0.930 1_565 S
C636 C634 1.356 1_565 S
C636 C637 1.348 1_455 S
C637 C632 1.353 1_655 S
C637 C636 1.348 1_655 S
C637 H689 0.929 . S
H638 C632 0.930 . S
H639 C635 0.930 1_545 S
C640 N641 1.314 . S
C640 C642 1.353 . S
C640 H646 0.930 . S
N641 Li617 1.990 . S
N641 C640 1.314 . S
N641 C644 1.279 . S
C642 C640 1.353 . S
C642 C645 1.348 . S
C642 H690 0.929 . S
C643 C644 1.358 . S
C643 C645 1.356 . S
C643 H691 0.930 . S
C644 N641 1.279 . S
C644 C643 1.358 . S
C644 H647 0.930 . S
C645 C642 1.348 . S
C645 C643 1.356 . S
H646 C640 0.930 . S
H647 C644 0.930 . S
C648 C650 1.348 . S
C648 C651 1.356 . S
C648 O678 1.325 1_655 S
N649 C652 1.314 . S
N649 C653 1.279 . S
C650 C648 1.348 . S
C650 C652 1.353 . S
C650 H692 0.929 . S
C651 C648 1.356 . S
C651 C653 1.358 . S
C651 H693 0.930 . S
C652 N649 1.314 . S
C652 C650 1.353 . S
C652 H694 0.930 . S
C653 N649 1.279 . S
C653 C651 1.358 . S
C653 H695 0.930 . S
C654 C655 1.348 . S
C654 C656 1.356 . S
C654 O679 1.325 . S
C655 C654 1.348 . S
C655 C657 1.353 . S
C655 H696 0.929 . S
C656 C654 1.356 . S
C656 C658 1.358 . S
C656 H697 0.930 . S
C657 C655 1.353 . S
C657 N659 1.314 . S
C657 H698 0.930 . S
C658 C656 1.358 . S
C658 N659 1.279 . S
C658 H699 0.930 . S
N659 C657 1.314 . S
N659 C658 1.279 . S
C660 C662 1.353 . S
C660 N663 1.314 1_545 S
C660 H666 0.930 . S
C661 N663 1.279 1_655 S
C661 C664 1.358 . S
C661 H667 0.930 . S
C662 C660 1.353 . S
C662 C665 1.348 1_455 S
C662 H700 0.929 . S
N663 Li618 1.990 . S
N663 C660 1.314 1_565 S
N663 C661 1.279 1_455 S
C664 C661 1.358 . S
C664 C665 1.356 1_565 S
C664 H701 0.930 . S
C665 C662 1.348 1_655 S
C665 C664 1.356 1_545 S
H666 C660 0.930 . S
H667 C661 0.930 . S
C668 N669 1.314 . S
C668 C670 1.353 . S
C668 H674 0.930 . S
N669 Li619 1.990 . S
N669 C668 1.314 . S
N669 C672 1.279 . S
C670 C668 1.353 . S
C670 C673 1.348 . S
C670 H702 0.929 . S
C671 C672 1.358 . S
C671 C673 1.356 . S
C671 H703 0.930 . S
C672 N669 1.279 . S
C672 C671 1.358 . S
C672 H675 0.930 . S
C673 C670 1.348 . S
C673 C671 1.356 . S
H674 C668 0.930 . S
H675 C672 0.930 . S
O676 Li616 1.956 . S
O676 Li617 1.970 . S
O676 Li618 1.961 . S
O676 C620 1.325 1_565 S
O677 Li616 1.970 . S
O677 Li617 1.956 . S
O677 Li619 1.961 . S
O677 C626 1.325 . S
O678 Li616 1.961 . S
O678 Li618 1.956 . S
O678 Li619 1.970 . S
O678 C648 1.325 1_455 S
O679 Li617 1.961 . S
O679 Li618 1.970 . S
O679 Li619 1.956 . S
O679 C654 1.325 . S
H680 C622 0.929 . S
H681 C623 0.930 . S
H682 C624 0.930 . S
H683 C625 0.930 . S
H684 C627 0.930 . S
H685 C629 0.929 . S
H686 C630 0.930 . S
H687 C631 0.930 . S
H688 C634 0.930 . S
H689 C637 0.929 . S
H690 C642 0.929 . S
H691 C643 0.930 . S
H692 C650 0.929 . S
H693 C651 0.930 . S
H694 C652 0.930 . S
H695 C653 0.930 . S
H696 C655 0.929 . S
H697 C656 0.930 . S
H698 C657 0.930 . S
H699 C658 0.930 . S
H700 C662 0.929 . S
H701 C664 0.930 . S
H702 C670 0.929 . S
H703 C671 0.930 . S
Li704 N721 1.990 . S
Li704 O764 1.956 . S
Li704 O765 1.970 . S
Li704 O766 1.961 . S
Li705 N729 1.990 . S
Li705 O764 1.970 . S
Li705 O765 1.956 . S
Li705 O767 1.961 . S
Li706 N751 1.990 . S
Li706 O764 1.961 . S
Li706 O766 1.956 . S
Li706 O767 1.970 . S
Li707 N757 1.990 . S
Li707 O765 1.961 . S
Li707 O766 1.970 . S
Li707 O767 1.956 . S
C708 C710 1.348 . S
C708 C711 1.356 . S
C708 O764 1.325 . S
N709 C712 1.314 . S
N709 C713 1.279 . S
C710 C708 1.348 . S
C710 C712 1.353 . S
C710 H768 0.929 . S
C711 C708 1.356 . S
C711 C713 1.358 . S
C711 H769 0.930 . S
C712 N709 1.314 . S
C712 C710 1.353 . S
C712 H770 0.930 . S
C713 N709 1.279 . S
C713 C711 1.358 . S
C713 H771 0.930 . S
C714 C717 1.348 . S
C714 C718 1.356 . S
C714 O765 1.325 . S
C715 N716 1.279 . S
C715 C718 1.358 . S
C715 H772 0.930 . S
N716 C715 1.279 . S
N716 C719 1.314 . S
C717 C714 1.348 . S
C717 C719 1.353 . S
C717 H773 0.929 . S
C718 C714 1.356 . S
C718 C715 1.358 . S
C718 H774 0.930 . S
C719 N716 1.314 . S
C719 C717 1.353 . S
C719 H775 0.930 . S
C720 N721 1.314 . S
C720 C725 1.353 . S
C720 H726 0.930 . S
N721 Li704 1.990 . S
N721 C720 1.314 . S
N721 C723 1.279 . S
C722 C723 1.358 . S
C722 C724 1.356 . S
C722 H776 0.930 . S
C723 N721 1.279 . S
C723 C722 1.358 . S
C723 H727 0.930 . S
C724 C722 1.356 . S
C724 C725 1.348 . S
C725 C720 1.353 . S
C725 C724 1.348 . S
C725 H777 0.929 . S
H726 C720 0.930 . S
H727 C723 0.930 . S
C728 N729 1.314 . S
C728 C730 1.353 . S
C728 H734 0.930 . S
N729 Li705 1.990 . S
N729 C728 1.314 . S
N729 C732 1.279 . S
C730 C728 1.353 . S
C730 C733 1.348 . S
C730 H778 0.929 . S
C731 C732 1.358 . S
C731 C733 1.356 . S
C731 H779 0.930 . S
C732 N729 1.279 . S
C732 C731 1.358 . S
C732 H735 0.930 . S
C733 C730 1.348 . S
C733 C731 1.356 . S
H734 C728 0.930 . S
H735 C732 0.930 . S
C736 C738 1.348 . S
C736 C739 1.356 . S
C736 O766 1.325 . S
N737 C740 1.314 . S
N737 C741 1.279 . S
C738 C736 1.348 . S
C738 C740 1.353 . S
C738 H780 0.929 . S
C739 C736 1.356 . S
C739 C741 1.358 . S
C739 H781 0.930 . S
C740 N737 1.314 . S
C740 C738 1.353 . S
C740 H782 0.930 . S
C741 N737 1.279 . S
C741 C739 1.358 . S
C741 H783 0.930 . S
C742 C743 1.348 . S
C742 C744 1.356 . S
C742 O767 1.325 . S
C743 C742 1.348 . S
C743 C745 1.353 . S
C743 H784 0.929 . S
C744 C742 1.356 . S
C744 C746 1.358 . S
C744 H785 0.930 . S
C745 C743 1.353 . S
C745 N747 1.314 . S
C745 H786 0.930 . S
C746 C744 1.358 . S
C746 N747 1.279 . S
C746 H787 0.930 . S
N747 C745 1.314 . S
N747 C746 1.279 . S
C748 C750 1.353 . S
C748 N751 1.314 . S
C748 H754 0.930 . S
C749 N751 1.279 . S
C749 C752 1.358 . S
C749 H755 0.930 . S
C750 C748 1.353 . S
C750 C753 1.348 . S
C750 H788 0.929 . S
N751 Li706 1.990 . S
N751 C748 1.314 . S
N751 C749 1.279 . S
C752 C749 1.358 . S
C752 C753 1.356 . S
C752 H789 0.930 . S
C753 C750 1.348 . S
C753 C752 1.356 . S
H754 C748 0.930 . S
H755 C749 0.930 . S
C756 N757 1.314 . S
C756 C758 1.353 . S
C756 H762 0.930 . S
N757 Li707 1.990 . S
N757 C756 1.314 . S
N757 C760 1.279 . S
C758 C756 1.353 . S
C758 C761 1.348 . S
C758 H790 0.929 . S
C759 C760 1.358 . S
C759 C761 1.356 . S
C759 H791 0.930 . S
C760 N757 1.279 . S
C760 C759 1.358 . S
C760 H763 0.930 . S
C761 C758 1.348 . S
C761 C759 1.356 . S
H762 C756 0.930 . S
H763 C760 0.930 . S
O764 Li704 1.956 . S
O764 Li705 1.970 . S
O764 Li706 1.961 . S
O764 C708 1.325 . S
O765 Li704 1.970 . S
O765 Li705 1.956 . S
O765 Li707 1.961 . S
O765 C714 1.325 . S
O766 Li704 1.961 . S
O766 Li706 1.956 . S
O766 Li707 1.970 . S
O766 C736 1.325 . S
O767 Li705 1.961 . S
O767 Li706 1.970 . S
O767 Li707 1.956 . S
O767 C742 1.325 . S
H768 C710 0.929 . S
H769 C711 0.930 . S
H770 C712 0.930 . S
H771 C713 0.930 . S
H772 C715 0.930 . S
H773 C717 0.929 . S
H774 C718 0.930 . S
H775 C719 0.930 . S
H776 C722 0.930 . S
H777 C725 0.929 . S
H778 C730 0.929 . S
H779 C731 0.930 . S
H780 C738 0.929 . S
H781 C739 0.930 . S
H782 C740 0.930 . S
H783 C741 0.930 . S
H784 C743 0.929 . S
H785 C744 0.930 . S
H786 C745 0.930 . S
H787 C746 0.930 . S
H788 C750 0.929 . S
H789 C752 0.930 . S
H790 C758 0.929 . S
H791 C759 0.930 . S
Li792 N809 1.990 . S
Li792 O852 1.956 . S
Li792 O853 1.970 . S
Li792 O854 1.961 . S
Li793 N817 1.990 . S
Li793 O852 1.970 . S
Li793 O853 1.956 . S
Li793 O855 1.961 . S
Li794 N839 1.990 . S
Li794 O852 1.961 . S
Li794 O854 1.956 . S
Li794 O855 1.970 . S
Li795 N845 1.990 . S
Li795 O853 1.961 . S
Li795 O854 1.970 . S
Li795 O855 1.956 . S
C796 C798 1.348 . S
C796 C799 1.356 . S
C796 O852 1.325 . S
N797 C800 1.314 . S
N797 C801 1.279 . S
C798 C796 1.348 . S
C798 C800 1.353 . S
C798 H856 0.929 . S
C799 C796 1.356 . S
C799 C801 1.358 . S
C799 H857 0.930 . S
C800 N797 1.314 . S
C800 C798 1.353 . S
C800 H858 0.930 . S
C801 N797 1.279 . S
C801 C799 1.358 . S
C801 H859 0.930 . S
C802 C805 1.348 . S
C802 C806 1.356 . S
C802 O853 1.325 1_455 S
C803 N804 1.279 . S
C803 C806 1.358 . S
C803 H860 0.930 . S
N804 C803 1.279 . S
N804 C807 1.314 . S
C805 C802 1.348 . S
C805 C807 1.353 . S
C805 H861 0.929 . S
C806 C802 1.356 . S
C806 C803 1.358 . S
C806 H862 0.930 . S
C807 N804 1.314 . S
C807 C805 1.353 . S
C807 H863 0.930 . S
C808 N809 1.314 . S
C808 C813 1.353 . S
C808 H814 0.930 . S
N809 Li792 1.990 . S
N809 C808 1.314 . S
N809 C811 1.279 . S
C810 C811 1.358 . S
C810 C812 1.356 . S
C810 H864 0.930 . S
C811 N809 1.279 . S
C811 C810 1.358 . S
C811 H815 0.930 . S
C812 C810 1.356 . S
C812 C813 1.348 . S
C813 C808 1.353 . S
C813 C812 1.348 . S
C813 H865 0.929 . S
H814 C808 0.930 . S
H815 C811 0.930 . S
C816 N817 1.314 . S
C816 C818 1.353 . S
C816 H822 0.930 . S
N817 Li793 1.990 . S
N817 C816 1.314 . S
N817 C820 1.255 1_655 S
C818 C816 1.353 . S
C818 C821 1.348 . S
C818 H866 0.929 . S
C819 C820 1.370 . S
C819 C821 1.356 1_455 S
C819 H867 0.930 . S
C820 N817 1.255 1_455 S
C820 C819 1.370 . S
C820 H823 0.945 . S
C821 C818 1.348 . S
C821 C819 1.356 1_655 S
H822 C816 0.930 . S
H823 C820 0.945 . S
C824 C826 1.348 . S
C824 C827 1.356 . S
C824 O854 1.325 . S
N825 C828 1.314 . S
N825 C829 1.279 . S
C826 C824 1.348 . S
C826 C828 1.353 . S
C826 H868 0.929 . S
C827 C824 1.356 . S
C827 C829 1.358 . S
C827 H869 0.930 . S
C828 N825 1.314 . S
C828 C826 1.353 . S
C828 H870 0.930 . S
C829 N825 1.279 . S
C829 C827 1.358 . S
C829 H871 0.930 . S
C830 C831 1.348 . S
C830 C832 1.356 . S
C830 O855 1.325 . S
C831 C830 1.348 . S
C831 C833 1.353 . S
C831 H872 0.929 . S
C832 C830 1.356 . S
C832 C834 1.358 . S
C832 H873 0.930 . S
C833 C831 1.353 . S
C833 N835 1.314 . S
C833 H874 0.930 . S
C834 C832 1.358 . S
C834 N835 1.279 . S
C834 H875 0.930 . S
N835 C833 1.314 . S
N835 C834 1.279 . S
C836 C838 1.353 . S
C836 N839 1.314 . S
C836 H842 0.930 . S
C837 N839 1.279 . S
C837 C840 1.358 . S
C837 H843 0.930 . S
C838 C836 1.353 . S
C838 C841 1.348 . S
C838 H876 0.929 . S
N839 Li794 1.990 . S
N839 C836 1.314 . S
N839 C837 1.279 . S
C840 C837 1.358 . S
C840 C841 1.356 . S
C840 H877 0.930 . S
C841 C838 1.348 . S
C841 C840 1.356 . S
H842 C836 0.930 . S
H843 C837 0.930 . S
C844 N845 1.314 . S
C844 C846 1.353 1_655 S
C844 H850 0.926 1_655 S
N845 Li795 1.990 . S
N845 C844 1.314 . S
N845 C848 1.279 . S
C846 C844 1.353 1_455 S
C846 C849 1.348 . S
C846 H878 0.929 . S
C847 C848 1.358 . S
C847 C849 1.356 1_655 S
C847 H879 0.930 . S
C848 N845 1.279 . S
C848 C847 1.358 . S
C848 H851 0.930 . S
C849 C846 1.348 . S
C849 C847 1.356 1_455 S
H850 C844 0.926 1_455 S
H851 C848 0.930 . S
O852 Li792 1.956 . S
O852 Li793 1.970 . S
O852 Li794 1.961 . S
O852 C796 1.325 . S
O853 Li792 1.970 . S
O853 Li793 1.956 . S
O853 Li795 1.961 . S
O853 C802 1.325 1_655 S
O854 Li792 1.961 . S
O854 Li794 1.956 . S
O854 Li795 1.970 . S
O854 C824 1.325 . S
O855 Li793 1.961 . S
O855 Li794 1.970 . S
O855 Li795 1.956 . S
O855 C830 1.325 . S
H856 C798 0.929 . S
H857 C799 0.930 . S
H858 C800 0.930 . S
H859 C801 0.930 . S
H860 C803 0.930 . S
H861 C805 0.929 . S
H862 C806 0.930 . S
H863 C807 0.930 . S
H864 C810 0.930 . S
H865 C813 0.929 . S
H866 C818 0.929 . S
H867 C819 0.930 . S
H868 C826 0.929 . S
H869 C827 0.930 . S
H870 C828 0.930 . S
H871 C829 0.930 . S
H872 C831 0.929 . S
H873 C832 0.930 . S
H874 C833 0.930 . S
H875 C834 0.930 . S
H876 C838 0.929 . S
H877 C840 0.930 . S
H878 C846 0.929 . S
H879 C847 0.930 . S
Li880 N897 1.990 . S
Li880 O940 1.956 . S
Li880 O941 1.970 . S
Li880 O942 1.961 . S
Li881 N905 1.990 . S
Li881 O940 1.970 . S
Li881 O941 1.956 . S
Li881 O943 1.961 . S
Li882 N927 1.990 . S
Li882 O940 1.961 . S
Li882 O942 1.956 . S
Li882 O943 1.970 . S
Li883 N933 1.990 . S
Li883 O941 1.961 . S
Li883 O942 1.970 . S
Li883 O943 1.956 . S
C884 C886 1.348 . S
C884 C887 1.356 . S
C884 O940 1.325 . S
N885 C888 1.314 . S
N885 C889 1.279 . S
C886 C884 1.348 . S
C886 C888 1.353 . S
C886 H944 0.929 . S
C887 C884 1.356 . S
C887 C889 1.358 . S
C887 H945 0.930 . S
C888 N885 1.314 . S
C888 C886 1.353 . S
C888 H946 0.930 . S
C889 N885 1.279 . S
C889 C887 1.358 . S
C889 H947 0.930 . S
C890 C893 1.348 . S
C890 C894 1.356 . S
C890 O941 1.325 . S
C891 N892 1.279 . S
C891 C894 1.358 . S
C891 H948 0.930 . S
N892 C891 1.279 . S
N892 C895 1.314 . S
C893 C890 1.348 . S
C893 C895 1.353 . S
C893 H949 0.929 . S
C894 C890 1.356 . S
C894 C891 1.358 . S
C894 H950 0.930 . S
C895 N892 1.314 . S
C895 C893 1.353 . S
C895 H951 0.930 . S
C896 N897 1.314 . S
C896 C901 1.353 1_455 S
C896 H902 0.926 1_455 S
N897 Li880 1.990 . S
N897 C896 1.314 . S
N897 C899 1.279 . S
C898 C899 1.358 . S
C898 C900 1.356 1_455 S
C898 H952 0.930 . S
C899 N897 1.279 . S
C899 C898 1.358 . S
C899 H903 0.930 . S
C900 C898 1.356 1_655 S
C900 C901 1.348 . S
C901 C896 1.353 1_655 S
C901 C900 1.348 . S
C901 H953 0.929 . S
H902 C896 0.926 1_655 S
H903 C899 0.930 . S
C904 N905 1.314 . S
C904 C906 1.353 . S
C904 H910 0.930 . S
N905 Li881 1.990 . S
N905 C904 1.314 . S
N905 C908 1.279 . S
C906 C904 1.353 . S
C906 C909 1.348 . S
C906 H954 0.929 . S
C907 C908 1.358 . S
C907 C909 1.356 . S
C907 H955 0.930 . S
C908 N905 1.279 . S
C908 C907 1.358 . S
C908 H911 0.930 . S
C909 C906 1.348 . S
C909 C907 1.356 . S
H910 C904 0.930 . S
H911 C908 0.930 . S
C912 C914 1.348 . S
C912 C915 1.356 . S
C912 O942 1.325 1_655 S
N913 C916 1.314 . S
N913 C917 1.279 . S
C914 C912 1.348 . S
C914 C916 1.353 . S
C914 H956 0.929 . S
C915 C912 1.356 . S
C915 C917 1.358 . S
C915 H957 0.930 . S
C916 N913 1.314 . S
C916 C914 1.353 . S
C916 H958 0.930 . S
C917 N913 1.279 . S
C917 C915 1.358 . S
C917 H959 0.930 . S
C918 C919 1.348 . S
C918 C920 1.356 . S
C918 O943 1.325 . S
C919 C918 1.348 . S
C919 C921 1.353 . S
C919 H960 0.929 . S
C920 C918 1.356 . S
C920 C922 1.358 . S
C920 H961 0.930 . S
C921 C919 1.353 . S
C921 N923 1.314 . S
C921 H962 0.930 . S
C922 C920 1.358 . S
C922 N923 1.279 . S
C922 H963 0.930 . S
N923 C921 1.314 . S
N923 C922 1.279 . S
C924 C926 1.353 . S
C924 N927 1.314 . S
C924 H930 0.930 . S
C925 N927 1.255 1_655 S
C925 C928 1.370 . S
C925 H931 0.945 . S
C926 C924 1.353 . S
C926 C929 1.348 . S
C926 H964 0.929 . S
N927 Li882 1.990 . S
N927 C924 1.314 . S
N927 C925 1.255 1_455 S
C928 C925 1.370 . S
C928 C929 1.356 1_655 S
C928 H965 0.930 . S
C929 C926 1.348 . S
C929 C928 1.356 1_455 S
H930 C924 0.930 . S
H931 C925 0.945 . S
C932 N933 1.314 . S
C932 C934 1.353 . S
C932 H938 0.930 . S
N933 Li883 1.990 . S
N933 C932 1.314 . S
N933 C936 1.279 . S
C934 C932 1.353 . S
C934 C937 1.348 . S
C934 H966 0.929 . S
C935 C936 1.358 . S
C935 C937 1.356 . S
C935 H967 0.930 . S
C936 N933 1.279 . S
C936 C935 1.358 . S
C936 H939 0.930 . S
C937 C934 1.348 . S
C937 C935 1.356 . S
H938 C932 0.930 . S
H939 C936 0.930 . S
O940 Li880 1.956 . S
O940 Li881 1.970 . S
O940 Li882 1.961 . S
O940 C884 1.325 . S
O941 Li880 1.970 . S
O941 Li881 1.956 . S
O941 Li883 1.961 . S
O941 C890 1.325 . S
O942 Li880 1.961 . S
O942 Li882 1.956 . S
O942 Li883 1.970 . S
O942 C912 1.325 1_455 S
O943 Li881 1.961 . S
O943 Li882 1.970 . S
O943 Li883 1.956 . S
O943 C918 1.325 . S
H944 C886 0.929 . S
H945 C887 0.930 . S
H946 C888 0.930 . S
H947 C889 0.930 . S
H948 C891 0.930 . S
H949 C893 0.929 . S
H950 C894 0.930 . S
H951 C895 0.930 . S
H952 C898 0.930 . S
H953 C901 0.929 . S
H954 C906 0.929 . S
H955 C907 0.930 . S
H956 C914 0.929 . S
H957 C915 0.930 . S
H958 C916 0.930 . S
H959 C917 0.930 . S
H960 C919 0.929 . S
H961 C920 0.930 . S
H962 C921 0.930 . S
H963 C922 0.930 . S
H964 C926 0.929 . S
H965 C928 0.930 . S
H966 C934 0.929 . S
H967 C935 0.930 . S
Li968 N985 1.990 . S
Li968 O1028 1.956 . S
Li968 O1029 1.970 . S
Li968 O1030 1.961 . S
Li969 N993 1.990 . S
Li969 O1028 1.970 . S
Li969 O1029 1.956 . S
Li969 O1031 1.961 . S
Li970 N1015 1.990 . S
Li970 O1028 1.961 . S
Li970 O1030 1.956 . S
Li970 O1031 1.970 . S
Li971 N1021 1.990 . S
Li971 O1029 1.961 . S
Li971 O1030 1.970 . S
Li971 O1031 1.956 . S
C972 C974 1.348 . S
C972 C975 1.356 . S
C972 O1028 1.325 . S
N973 C976 1.314 . S
N973 C977 1.279 . S
C974 C972 1.348 . S
C974 C976 1.353 . S
C974 H1032 0.929 . S
C975 C972 1.356 . S
C975 C977 1.358 . S
C975 H1033 0.930 . S
C976 N973 1.314 . S
C976 C974 1.353 . S
C976 H1034 0.930 . S
C977 N973 1.279 . S
C977 C975 1.358 . S
C977 H1035 0.930 . S
C978 C981 1.348 . S
C978 C982 1.356 . S
C978 O1029 1.325 . S
C979 N980 1.279 . S
C979 C982 1.358 . S
C979 H1036 0.930 . S
N980 C979 1.279 . S
N980 C983 1.314 . S
C981 C978 1.348 . S
C981 C983 1.353 . S
C981 H1037 0.929 . S
C982 C978 1.356 . S
C982 C979 1.358 . S
C982 H1038 0.930 . S
C983 N980 1.314 . S
C983 C981 1.353 . S
C983 H1039 0.930 . S
C984 N985 1.314 . S
C984 C989 1.353 . S
C984 H990 0.930 . S
N985 Li968 1.990 . S
N985 C984 1.314 . S
N985 C987 1.279 . S
C986 C987 1.358 . S
C986 C988 1.356 . S
C986 H1040 0.930 . S
C987 N985 1.279 . S
C987 C986 1.358 . S
C987 H991 0.930 . S
C988 C986 1.356 . S
C988 C989 1.348 . S
C989 C984 1.353 . S
C989 C988 1.348 . S
C989 H1041 0.929 . S
H990 C984 0.930 . S
H991 C987 0.930 . S
C992 N993 1.314 . S
C992 C994 1.353 . S
C992 H998 0.930 . S
N993 Li969 1.990 . S
N993 C992 1.314 . S
N993 C996 1.279 . S
C994 C992 1.353 . S
C994 C997 1.348 . S
C994 H1042 0.929 . S
C995 C996 1.358 . S
C995 C997 1.356 . S
C995 H1043 0.930 . S
C996 N993 1.279 . S
C996 C995 1.358 . S
C996 H999 0.930 . S
C997 C994 1.348 . S
C997 C995 1.356 . S
H998 C992 0.930 . S
H999 C996 0.930 . S
C1000 C1002 1.348 . S
C1000 C1003 1.356 . S
C1000 O1030 1.325 . S
N1001 C1004 1.314 . S
N1001 C1005 1.279 . S
C1002 C1000 1.348 . S
C1002 C1004 1.353 . S
C1002 H1044 0.929 . S
C1003 C1000 1.356 . S
C1003 C1005 1.358 . S
C1003 H1045 0.930 . S
C1004 N1001 1.314 . S
C1004 C1002 1.353 . S
C1004 H1046 0.930 . S
C1005 N1001 1.279 . S
C1005 C1003 1.358 . S
C1005 H1047 0.930 . S
C1006 C1007 1.348 . S
C1006 C1008 1.356 . S
C1006 O1031 1.325 . S
C1007 C1006 1.348 . S
C1007 C1009 1.353 . S
C1007 H1048 0.929 . S
C1008 C1006 1.356 . S
C1008 C1010 1.358 . S
C1008 H1049 0.930 . S
C1009 C1007 1.353 . S
C1009 N1011 1.314 . S
C1009 H1050 0.930 . S
C1010 C1008 1.358 . S
C1010 N1011 1.279 . S
C1010 H1051 0.930 . S
N1011 C1009 1.314 . S
N1011 C1010 1.279 . S
C1012 C1014 1.353 . S
C1012 N1015 1.314 . S
C1012 H1018 0.930 . S
C1013 N1015 1.279 . S
C1013 C1016 1.358 . S
C1013 H1019 0.930 . S
C1014 C1012 1.353 . S
C1014 C1017 1.348 . S
C1014 H1052 0.929 . S
N1015 Li970 1.990 . S
N1015 C1012 1.314 . S
N1015 C1013 1.279 . S
C1016 C1013 1.358 . S
C1016 C1017 1.356 . S
C1016 H1053 0.930 . S
C1017 C1014 1.348 . S
C1017 C1016 1.356 . S
H1018 C1012 0.930 . S
H1019 C1013 0.930 . S
C1020 N1021 1.314 . S
C1020 C1022 1.353 . S
C1020 H1026 0.930 . S
N1021 Li971 1.990 . S
N1021 C1020 1.314 . S
N1021 C1024 1.279 . S
C1022 C1020 1.353 . S
C1022 C1025 1.348 . S
C1022 H1054 0.929 . S
C1023 C1024 1.358 . S
C1023 C1025 1.356 . S
C1023 H1055 0.930 . S
C1024 N1021 1.279 . S
C1024 C1023 1.358 . S
C1024 H1027 0.930 . S
C1025 C1022 1.348 . S
C1025 C1023 1.356 . S
H1026 C1020 0.930 . S
H1027 C1024 0.930 . S
O1028 Li968 1.956 . S
O1028 Li969 1.970 . S
O1028 Li970 1.961 . S
O1028 C972 1.325 . S
O1029 Li968 1.970 . S
O1029 Li969 1.956 . S
O1029 Li971 1.961 . S
O1029 C978 1.325 . S
O1030 Li968 1.961 . S
O1030 Li970 1.956 . S
O1030 Li971 1.970 . S
O1030 C1000 1.325 . S
O1031 Li969 1.961 . S
O1031 Li970 1.970 . S
O1031 Li971 1.956 . S
O1031 C1006 1.325 . S
H1032 C974 0.929 . S
H1033 C975 0.930 . S
H1034 C976 0.930 . S
H1035 C977 0.930 . S
H1036 C979 0.930 . S
H1037 C981 0.929 . S
H1038 C982 0.930 . S
H1039 C983 0.930 . S
H1040 C986 0.930 . S
H1041 C989 0.929 . S
H1042 C994 0.929 . S
H1043 C995 0.930 . S
H1044 C1002 0.929 . S
H1045 C1003 0.930 . S
H1046 C1004 0.930 . S
H1047 C1005 0.930 . S
H1048 C1007 0.929 . S
H1049 C1008 0.930 . S
H1050 C1009 0.930 . S
H1051 C1010 0.930 . S
H1052 C1014 0.929 . S
H1053 C1016 0.930 . S
H1054 C1022 0.929 . S
H1055 C1023 0.930 . S
Li1056 N1073 1.990 . S
Li1056 O1116 1.956 . S
Li1056 O1117 1.970 . S
Li1056 O1118 1.961 . S
Li1057 N1081 1.990 . S
Li1057 O1116 1.970 . S
Li1057 O1117 1.956 . S
Li1057 O1119 1.961 . S
Li1058 N1103 1.990 . S
Li1058 O1116 1.961 . S
Li1058 O1118 1.956 . S
Li1058 O1119 1.970 . S
Li1059 N1109 1.990 . S
Li1059 O1117 1.961 . S
Li1059 O1118 1.970 . S
Li1059 O1119 1.956 . S
C1060 C1062 1.348 . S
C1060 C1063 1.356 . S
C1060 O1116 1.325 . S
N1061 C1064 1.314 . S
N1061 C1065 1.279 . S
C1062 C1060 1.348 . S
C1062 C1064 1.353 . S
C1062 H1120 0.929 . S
C1063 C1060 1.356 . S
C1063 C1065 1.358 . S
C1063 H1121 0.930 . S
C1064 N1061 1.314 . S
C1064 C1062 1.353 . S
C1064 H1122 0.930 . S
C1065 N1061 1.279 . S
C1065 C1063 1.358 . S
C1065 H1123 0.930 . S
C1066 C1069 1.348 . S
C1066 C1070 1.356 . S
C1066 O1117 1.325 . S
C1067 N1068 1.279 . S
C1067 C1070 1.358 . S
C1067 H1124 0.930 . S
N1068 C1067 1.279 . S
N1068 C1071 1.314 . S
C1069 C1066 1.348 . S
C1069 C1071 1.353 . S
C1069 H1125 0.929 . S
C1070 C1066 1.356 . S
C1070 C1067 1.358 . S
C1070 H1126 0.930 . S
C1071 N1068 1.314 . S
C1071 C1069 1.353 . S
C1071 H1127 0.930 . S
C1072 N1073 1.314 . S
C1072 C1077 1.353 . S
C1072 H1078 0.930 . S
N1073 Li1056 1.990 . S
N1073 C1072 1.314 . S
N1073 C1075 1.279 . S
C1074 C1075 1.358 . S
C1074 C1076 1.356 . S
C1074 H1128 0.930 . S
C1075 N1073 1.279 . S
C1075 C1074 1.358 . S
C1075 H1079 0.930 . S
C1076 C1074 1.356 . S
C1076 C1077 1.348 . S
C1077 C1072 1.353 . S
C1077 C1076 1.348 . S
C1077 H1129 0.929 . S
H1078 C1072 0.930 . S
H1079 C1075 0.930 . S
C1080 N1081 1.314 . S
C1080 C1082 1.353 . S
C1080 H1086 0.930 . S
N1081 Li1057 1.990 . S
N1081 C1080 1.314 . S
N1081 C1084 1.279 . S
C1082 C1080 1.353 . S
C1082 C1085 1.348 . S
C1082 H1130 0.929 . S
C1083 C1084 1.358 . S
C1083 C1085 1.356 . S
C1083 H1131 0.930 . S
C1084 N1081 1.279 . S
C1084 C1083 1.358 . S
C1084 H1087 0.930 . S
C1085 C1082 1.348 . S
C1085 C1083 1.356 . S
H1086 C1080 0.930 . S
H1087 C1084 0.930 . S
C1088 C1090 1.348 . S
C1088 C1091 1.356 . S
C1088 O1118 1.325 . S
N1089 C1092 1.314 . S
N1089 C1093 1.279 . S
C1090 C1088 1.348 . S
C1090 C1092 1.353 . S
C1090 H1132 0.929 . S
C1091 C1088 1.356 . S
C1091 C1093 1.358 . S
C1091 H1133 0.930 . S
C1092 N1089 1.314 . S
C1092 C1090 1.353 . S
C1092 H1134 0.930 . S
C1093 N1089 1.279 . S
C1093 C1091 1.358 . S
C1093 H1135 0.930 . S
C1094 C1095 1.348 . S
C1094 C1096 1.356 . S
C1094 O1119 1.325 . S
C1095 C1094 1.348 . S
C1095 C1097 1.353 . S
C1095 H1136 0.929 . S
C1096 C1094 1.356 . S
C1096 C1098 1.358 . S
C1096 H1137 0.930 . S
C1097 C1095 1.353 . S
C1097 N1099 1.314 . S
C1097 H1138 0.930 . S
C1098 C1096 1.358 . S
C1098 N1099 1.279 . S
C1098 H1139 0.930 . S
N1099 C1097 1.314 . S
N1099 C1098 1.279 . S
C1100 C1102 1.353 . S
C1100 N1103 1.314 . S
C1100 H1106 0.930 . S
C1101 N1103 1.279 . S
C1101 C1104 1.358 . S
C1101 H1107 0.930 . S
C1102 C1100 1.353 . S
C1102 C1105 1.348 . S
C1102 H1140 0.929 . S
N1103 Li1058 1.990 . S
N1103 C1100 1.314 . S
N1103 C1101 1.279 . S
C1104 C1101 1.358 . S
C1104 C1105 1.356 . S
C1104 H1141 0.930 . S
C1105 C1102 1.348 . S
C1105 C1104 1.356 . S
H1106 C1100 0.930 . S
H1107 C1101 0.930 . S
C1108 N1109 1.314 . S
C1108 C1110 1.353 . S
C1108 H1114 0.930 . S
N1109 Li1059 1.990 . S
N1109 C1108 1.314 . S
N1109 C1112 1.279 . S
C1110 C1108 1.353 . S
C1110 C1113 1.348 . S
C1110 H1142 0.929 . S
C1111 C1112 1.358 . S
C1111 C1113 1.356 . S
C1111 H1143 0.930 . S
C1112 N1109 1.279 . S
C1112 C1111 1.358 . S
C1112 H1115 0.930 . S
C1113 C1110 1.348 . S
C1113 C1111 1.356 . S
H1114 C1108 0.930 . S
H1115 C1112 0.930 . S
O1116 Li1056 1.956 . S
O1116 Li1057 1.970 . S
O1116 Li1058 1.961 . S
O1116 C1060 1.325 . S
O1117 Li1056 1.970 . S
O1117 Li1057 1.956 . S
O1117 Li1059 1.961 . S
O1117 C1066 1.325 . S
O1118 Li1056 1.961 . S
O1118 Li1058 1.956 . S
O1118 Li1059 1.970 . S
O1118 C1088 1.325 . S
O1119 Li1057 1.961 . S
O1119 Li1058 1.970 . S
O1119 Li1059 1.956 . S
O1119 C1094 1.325 . S
H1120 C1062 0.929 . S
H1121 C1063 0.930 . S
H1122 C1064 0.930 . S
H1123 C1065 0.930 . S
H1124 C1067 0.930 . S
H1125 C1069 0.929 . S
H1126 C1070 0.930 . S
H1127 C1071 0.930 . S
H1128 C1074 0.930 . S
H1129 C1077 0.929 . S
H1130 C1082 0.929 . S
H1131 C1083 0.930 . S
H1132 C1090 0.929 . S
H1133 C1091 0.930 . S
H1134 C1092 0.930 . S
H1135 C1093 0.930 . S
H1136 C1095 0.929 . S
H1137 C1096 0.930 . S
H1138 C1097 0.930 . S
H1139 C1098 0.930 . S
H1140 C1102 0.929 . S
H1141 C1104 0.930 . S
H1142 C1110 0.929 . S
H1143 C1111 0.930 . S
Li1144 N1161 1.990 . S
Li1144 O1204 1.956 . S
Li1144 O1205 1.970 . S
Li1144 O1206 1.961 . S
Li1145 N1169 1.990 . S
Li1145 O1204 1.970 . S
Li1145 O1205 1.956 . S
Li1145 O1207 1.961 . S
Li1146 N1191 1.990 . S
Li1146 O1204 1.961 . S
Li1146 O1206 1.956 . S
Li1146 O1207 1.970 . S
Li1147 N1197 1.990 . S
Li1147 O1205 1.961 . S
Li1147 O1206 1.970 . S
Li1147 O1207 1.956 . S
C1148 C1150 1.348 . S
C1148 C1151 1.356 . S
C1148 O1204 1.325 1_655 S
N1149 C1152 1.314 . S
N1149 C1153 1.279 . S
C1150 C1148 1.348 . S
C1150 C1152 1.353 . S
C1150 H1208 0.929 . S
C1151 C1148 1.356 . S
C1151 C1153 1.358 . S
C1151 H1209 0.930 . S
C1152 N1149 1.314 . S
C1152 C1150 1.353 . S
C1152 H1210 0.930 . S
C1153 N1149 1.279 . S
C1153 C1151 1.358 . S
C1153 H1211 0.930 . S
C1154 C1157 1.348 . S
C1154 C1158 1.356 . S
C1154 O1205 1.325 . S
C1155 N1156 1.279 . S
C1155 C1158 1.358 . S
C1155 H1212 0.930 . S
N1156 C1155 1.279 . S
N1156 C1159 1.314 . S
C1157 C1154 1.348 . S
C1157 C1159 1.353 . S
C1157 H1213 0.929 . S
C1158 C1154 1.356 . S
C1158 C1155 1.358 . S
C1158 H1214 0.930 . S
C1159 N1156 1.314 . S
C1159 C1157 1.353 . S
C1159 H1215 0.930 . S
C1160 N1161 1.314 . S
C1160 C1165 1.353 . S
C1160 H1166 0.930 . S
N1161 Li1144 1.990 . S
N1161 C1160 1.314 . S
N1161 C1163 1.279 1_455 S
C1162 C1163 1.358 . S
C1162 C1164 1.356 . S
C1162 H1216 0.930 . S
C1163 N1161 1.279 1_655 S
C1163 C1162 1.358 . S
C1163 H1167 0.930 . S
C1164 C1162 1.356 . S
C1164 C1165 1.348 1_655 S
C1165 C1160 1.353 . S
C1165 C1164 1.348 1_455 S
C1165 H1217 0.929 . S
H1166 C1160 0.930 . S
H1167 C1163 0.930 . S
C1168 N1169 1.314 . S
C1168 C1170 1.353 . S
C1168 H1174 0.930 . S
N1169 Li1145 1.990 . S
N1169 C1168 1.314 . S
N1169 C1172 1.279 . S
C1170 C1168 1.353 . S
C1170 C1173 1.348 . S
C1170 H1218 0.929 . S
C1171 C1172 1.358 . S
C1171 C1173 1.356 . S
C1171 H1219 0.930 . S
C1172 N1169 1.279 . S
C1172 C1171 1.358 . S
C1172 H1175 0.930 . S
C1173 C1170 1.348 . S
C1173 C1171 1.356 . S
H1174 C1168 0.930 . S
H1175 C1172 0.930 . S
C1176 C1178 1.348 . S
C1176 C1179 1.356 . S
C1176 O1206 1.325 . S
N1177 C1180 1.314 . S
N1177 C1181 1.279 . S
C1178 C1176 1.348 . S
C1178 C1180 1.353 . S
C1178 H1220 0.929 . S
C1179 C1176 1.356 . S
C1179 C1181 1.358 . S
C1179 H1221 0.930 . S
C1180 N1177 1.314 . S
C1180 C1178 1.353 . S
C1180 H1222 0.930 . S
C1181 N1177 1.279 . S
C1181 C1179 1.358 . S
C1181 H1223 0.930 . S
C1182 C1183 1.348 . S
C1182 C1184 1.356 . S
C1182 O1207 1.325 . S
C1183 C1182 1.348 . S
C1183 C1185 1.353 . S
C1183 H1224 0.929 . S
C1184 C1182 1.356 . S
C1184 C1186 1.358 . S
C1184 H1225 0.930 . S
C1185 C1183 1.353 . S
C1185 N1187 1.314 . S
C1185 H1226 0.930 . S
C1186 C1184 1.358 . S
C1186 N1187 1.279 . S
C1186 H1227 0.930 . S
N1187 C1185 1.314 . S
N1187 C1186 1.279 . S
C1188 C1190 1.353 1_455 S
C1188 N1191 1.314 . S
C1188 H1194 0.930 . S
C1189 N1191 1.279 . S
C1189 C1192 1.358 . S
C1189 H1195 0.930 . S
C1190 C1188 1.353 1_655 S
C1190 C1193 1.348 1_655 S
C1190 H1228 0.929 . S
N1191 Li1146 1.990 . S
N1191 C1188 1.314 . S
N1191 C1189 1.279 . S
C1192 C1189 1.358 . S
C1192 C1193 1.356 . S
C1192 H1229 0.930 . S
C1193 C1190 1.348 1_455 S
C1193 C1192 1.356 . S
H1194 C1188 0.930 . S
H1195 C1189 0.930 . S
C1196 N1197 1.314 . S
C1196 C1198 1.353 . S
C1196 H1202 0.930 . S
N1197 Li1147 1.990 . S
N1197 C1196 1.314 . S
N1197 C1200 1.279 . S
C1198 C1196 1.353 . S
C1198 C1201 1.348 . S
C1198 H1230 0.929 . S
C1199 C1200 1.358 . S
C1199 C1201 1.356 . S
C1199 H1231 0.930 . S
C1200 N1197 1.279 . S
C1200 C1199 1.358 . S
C1200 H1203 0.930 . S
C1201 C1198 1.348 . S
C1201 C1199 1.356 . S
H1202 C1196 0.930 . S
H1203 C1200 0.930 . S
O1204 Li1144 1.956 . S
O1204 Li1145 1.970 . S
O1204 Li1146 1.961 . S
O1204 C1148 1.325 1_455 S
O1205 Li1144 1.970 . S
O1205 Li1145 1.956 . S
O1205 Li1147 1.961 . S
O1205 C1154 1.325 . S
O1206 Li1144 1.961 . S
O1206 Li1146 1.956 . S
O1206 Li1147 1.970 . S
O1206 C1176 1.325 . S
O1207 Li1145 1.961 . S
O1207 Li1146 1.970 . S
O1207 Li1147 1.956 . S
O1207 C1182 1.325 . S
H1208 C1150 0.929 . S
H1209 C1151 0.930 . S
H1210 C1152 0.930 . S
H1211 C1153 0.930 . S
H1212 C1155 0.930 . S
H1213 C1157 0.929 . S
H1214 C1158 0.930 . S
H1215 C1159 0.930 . S
H1216 C1162 0.930 . S
H1217 C1165 0.929 . S
H1218 C1170 0.929 . S
H1219 C1171 0.930 . S
H1220 C1178 0.929 . S
H1221 C1179 0.930 . S
H1222 C1180 0.930 . S
H1223 C1181 0.930 . S
H1224 C1183 0.929 . S
H1225 C1184 0.930 . S
H1226 C1185 0.930 . S
H1227 C1186 0.930 . S
H1228 C1190 0.929 . S
H1229 C1192 0.930 . S
H1230 C1198 0.929 . S
H1231 C1199 0.930 . S
Li1232 N1249 1.990 . S
Li1232 O1292 1.956 . S
Li1232 O1293 1.970 . S
Li1232 O1294 1.961 . S
Li1233 N1257 1.990 . S
Li1233 O1292 1.970 . S
Li1233 O1293 1.956 . S
Li1233 O1295 1.961 . S
Li1234 N1279 1.990 . S
Li1234 O1292 1.961 . S
Li1234 O1294 1.956 . S
Li1234 O1295 1.970 . S
Li1235 N1285 1.990 . S
Li1235 O1293 1.961 . S
Li1235 O1294 1.970 . S
Li1235 O1295 1.956 . S
C1236 C1238 1.348 . S
C1236 C1239 1.356 . S
C1236 O1292 1.325 . S
N1237 C1240 1.314 . S
N1237 C1241 1.279 . S
C1238 C1236 1.348 . S
C1238 C1240 1.353 . S
C1238 H1296 0.929 . S
C1239 C1236 1.356 . S
C1239 C1241 1.358 . S
C1239 H1297 0.930 . S
C1240 N1237 1.314 . S
C1240 C1238 1.353 . S
C1240 H1298 0.930 . S
C1241 N1237 1.279 . S
C1241 C1239 1.358 . S
C1241 H1299 0.930 . S
C1242 C1245 1.348 . S
C1242 C1246 1.356 . S
C1242 O1293 1.325 . S
C1243 N1244 1.279 . S
C1243 C1246 1.358 . S
C1243 H1300 0.930 . S
N1244 C1243 1.279 . S
N1244 C1247 1.314 . S
C1245 C1242 1.348 . S
C1245 C1247 1.353 . S
C1245 H1301 0.929 . S
C1246 C1242 1.356 . S
C1246 C1243 1.358 . S
C1246 H1302 0.930 . S
C1247 N1244 1.314 . S
C1247 C1245 1.353 . S
C1247 H1303 0.930 . S
C1248 N1249 1.314 . S
C1248 C1253 1.353 . S
C1248 H1254 0.930 . S
N1249 Li1232 1.990 . S
N1249 C1248 1.314 . S
N1249 C1251 1.279 . S
C1250 C1251 1.358 . S
C1250 C1252 1.356 . S
C1250 H1304 0.930 . S
C1251 N1249 1.279 . S
C1251 C1250 1.358 . S
C1251 H1255 0.930 . S
C1252 C1250 1.356 . S
C1252 C1253 1.348 . S
C1253 C1248 1.353 . S
C1253 C1252 1.348 . S
C1253 H1305 0.929 . S
H1254 C1248 0.930 . S
H1255 C1251 0.930 . S
C1256 N1257 1.314 . S
C1256 C1258 1.353 1_655 S
C1256 H1262 0.930 . S
N1257 Li1233 1.990 . S
N1257 C1256 1.314 . S
N1257 C1260 1.279 . S
C1258 C1256 1.353 1_455 S
C1258 C1261 1.348 1_455 S
C1258 H1306 0.929 . S
C1259 C1260 1.358 . S
C1259 C1261 1.356 . S
C1259 H1307 0.930 . S
C1260 N1257 1.279 . S
C1260 C1259 1.358 . S
C1260 H1263 0.930 . S
C1261 C1258 1.348 1_655 S
C1261 C1259 1.356 . S
H1262 C1256 0.930 . S
H1263 C1260 0.930 . S
C1264 C1266 1.348 . S
C1264 C1267 1.356 . S
C1264 O1294 1.325 . S
N1265 C1268 1.314 . S
N1265 C1269 1.279 . S
C1266 C1264 1.348 . S
C1266 C1268 1.353 . S
C1266 H1308 0.929 . S
C1267 C1264 1.356 . S
C1267 C1269 1.358 . S
C1267 H1309 0.930 . S
C1268 N1265 1.314 . S
C1268 C1266 1.353 . S
C1268 H1310 0.930 . S
C1269 N1265 1.279 . S
C1269 C1267 1.358 . S
C1269 H1311 0.930 . S
C1270 C1271 1.348 . S
C1270 C1272 1.356 . S
C1270 O1295 1.325 1_455 S
C1271 C1270 1.348 . S
C1271 C1273 1.353 . S
C1271 H1312 0.929 . S
C1272 C1270 1.356 . S
C1272 C1274 1.358 . S
C1272 H1313 0.930 . S
C1273 C1271 1.353 . S
C1273 N1275 1.314 . S
C1273 H1314 0.930 . S
C1274 C1272 1.358 . S
C1274 N1275 1.279 . S
C1274 H1315 0.930 . S
N1275 C1273 1.314 . S
N1275 C1274 1.279 . S
C1276 C1278 1.353 . S
C1276 N1279 1.314 . S
C1276 H1282 0.930 . S
C1277 N1279 1.279 . S
C1277 C1280 1.358 . S
C1277 H1283 0.930 . S
C1278 C1276 1.353 . S
C1278 C1281 1.348 . S
C1278 H1316 0.929 . S
N1279 Li1234 1.990 . S
N1279 C1276 1.314 . S
N1279 C1277 1.279 . S
C1280 C1277 1.358 . S
C1280 C1281 1.356 . S
C1280 H1317 0.930 . S
C1281 C1278 1.348 . S
C1281 C1280 1.356 . S
H1282 C1276 0.930 . S
H1283 C1277 0.930 . S
C1284 N1285 1.314 . S
C1284 C1286 1.353 . S
C1284 H1290 0.930 . S
N1285 Li1235 1.990 . S
N1285 C1284 1.314 . S
N1285 C1288 1.279 1_655 S
C1286 C1284 1.353 . S
C1286 C1289 1.348 1_655 S
C1286 H1318 0.929 . S
C1287 C1288 1.358 . S
C1287 C1289 1.356 . S
C1287 H1319 0.930 . S
C1288 N1285 1.279 1_455 S
C1288 C1287 1.358 . S
C1288 H1291 0.930 . S
C1289 C1286 1.348 1_455 S
C1289 C1287 1.356 . S
H1290 C1284 0.930 . S
H1291 C1288 0.930 . S
O1292 Li1232 1.956 . S
O1292 Li1233 1.970 . S
O1292 Li1234 1.961 . S
O1292 C1236 1.325 . S
O1293 Li1232 1.970 . S
O1293 Li1233 1.956 . S
O1293 Li1235 1.961 . S
O1293 C1242 1.325 . S
O1294 Li1232 1.961 . S
O1294 Li1234 1.956 . S
O1294 Li1235 1.970 . S
O1294 C1264 1.325 . S
O1295 Li1233 1.961 . S
O1295 Li1234 1.970 . S
O1295 Li1235 1.956 . S
O1295 C1270 1.325 1_655 S
H1296 C1238 0.929 . S
H1297 C1239 0.930 . S
H1298 C1240 0.930 . S
H1299 C1241 0.930 . S
H1300 C1243 0.930 . S
H1301 C1245 0.929 . S
H1302 C1246 0.930 . S
H1303 C1247 0.930 . S
H1304 C1250 0.930 . S
H1305 C1253 0.929 . S
H1306 C1258 0.929 . S
H1307 C1259 0.930 . S
H1308 C1266 0.929 . S
H1309 C1267 0.930 . S
H1310 C1268 0.930 . S
H1311 C1269 0.930 . S
H1312 C1271 0.929 . S
H1313 C1272 0.930 . S
H1314 C1273 0.930 . S
H1315 C1274 0.930 . S
H1316 C1278 0.929 . S
H1317 C1280 0.930 . S
H1318 C1286 0.929 . S
H1319 C1287 0.930 . S
Li1320 N1337 1.990 . S
Li1320 O1380 1.956 . S
Li1320 O1381 1.970 . S
Li1320 O1382 1.961 . S
Li1321 N1345 1.990 . S
Li1321 O1380 1.970 . S
Li1321 O1381 1.956 . S
Li1321 O1383 1.961 . S
Li1322 N1367 1.990 . S
Li1322 O1380 1.961 . S
Li1322 O1382 1.956 . S
Li1322 O1383 1.970 . S
Li1323 N1373 1.990 . S
Li1323 O1381 1.961 . S
Li1323 O1382 1.970 . S
Li1323 O1383 1.956 . S
C1324 C1326 1.348 . S
C1324 C1327 1.356 . S
C1324 O1380 1.325 . S
N1325 C1328 1.314 . S
N1325 C1329 1.279 . S
C1326 C1324 1.348 . S
C1326 C1328 1.353 . S
C1326 H1384 0.929 . S
C1327 C1324 1.356 . S
C1327 C1329 1.358 . S
C1327 H1385 0.930 . S
C1328 N1325 1.314 . S
C1328 C1326 1.353 . S
C1328 H1386 0.930 . S
C1329 N1325 1.279 . S
C1329 C1327 1.358 . S
C1329 H1387 0.930 . S
C1330 C1333 1.348 . S
C1330 C1334 1.356 . S
C1330 O1381 1.325 . S
C1331 N1332 1.279 . S
C1331 C1334 1.358 . S
C1331 H1388 0.930 . S
N1332 C1331 1.279 . S
N1332 C1335 1.314 . S
C1333 C1330 1.348 . S
C1333 C1335 1.353 . S
C1333 H1389 0.929 . S
C1334 C1330 1.356 . S
C1334 C1331 1.358 . S
C1334 H1390 0.930 . S
C1335 N1332 1.314 . S
C1335 C1333 1.353 . S
C1335 H1391 0.930 . S
C1336 N1337 1.314 . S
C1336 C1341 1.353 . S
C1336 H1342 0.930 . S
N1337 Li1320 1.990 . S
N1337 C1336 1.314 . S
N1337 C1339 1.279 . S
C1338 C1339 1.358 . S
C1338 C1340 1.356 . S
C1338 H1392 0.930 . S
C1339 N1337 1.279 . S
C1339 C1338 1.358 . S
C1339 H1343 0.930 . S
C1340 C1338 1.356 . S
C1340 C1341 1.348 . S
C1341 C1336 1.353 . S
C1341 C1340 1.348 . S
C1341 H1393 0.929 . S
H1342 C1336 0.930 . S
H1343 C1339 0.930 . S
C1344 N1345 1.314 . S
C1344 C1346 1.353 . S
C1344 H1350 0.930 . S
N1345 Li1321 1.990 . S
N1345 C1344 1.314 . S
N1345 C1348 1.279 . S
C1346 C1344 1.353 . S
C1346 C1349 1.348 . S
C1346 H1394 0.929 . S
C1347 C1348 1.358 . S
C1347 C1349 1.356 . S
C1347 H1395 0.930 . S
C1348 N1345 1.279 . S
C1348 C1347 1.358 . S
C1348 H1351 0.930 . S
C1349 C1346 1.348 . S
C1349 C1347 1.356 . S
H1350 C1344 0.930 . S
H1351 C1348 0.930 . S
C1352 C1354 1.348 . S
C1352 C1355 1.356 . S
C1352 O1382 1.325 . S
N1353 C1356 1.314 . S
N1353 C1357 1.279 . S
C1354 C1352 1.348 . S
C1354 C1356 1.353 . S
C1354 H1396 0.929 . S
C1355 C1352 1.356 . S
C1355 C1357 1.358 . S
C1355 H1397 0.930 . S
C1356 N1353 1.314 . S
C1356 C1354 1.353 . S
C1356 H1398 0.930 . S
C1357 N1353 1.279 . S
C1357 C1355 1.358 . S
C1357 H1399 0.930 . S
C1358 C1359 1.348 . S
C1358 C1360 1.356 . S
C1358 O1383 1.325 . S
C1359 C1358 1.348 . S
C1359 C1361 1.353 . S
C1359 H1400 0.929 . S
C1360 C1358 1.356 . S
C1360 C1362 1.358 . S
C1360 H1401 0.930 . S
C1361 C1359 1.353 . S
C1361 N1363 1.314 . S
C1361 H1402 0.930 . S
C1362 C1360 1.358 . S
C1362 N1363 1.279 . S
C1362 H1403 0.930 . S
N1363 C1361 1.314 . S
N1363 C1362 1.279 . S
C1364 C1366 1.353 . S
C1364 N1367 1.314 . S
C1364 H1370 0.930 . S
C1365 N1367 1.279 . S
C1365 C1368 1.358 . S
C1365 H1371 0.930 . S
C1366 C1364 1.353 . S
C1366 C1369 1.348 . S
C1366 H1404 0.929 . S
N1367 Li1322 1.990 . S
N1367 C1364 1.314 . S
N1367 C1365 1.279 . S
C1368 C1365 1.358 . S
C1368 C1369 1.356 . S
C1368 H1405 0.930 . S
C1369 C1366 1.348 . S
C1369 C1368 1.356 . S
H1370 C1364 0.930 . S
H1371 C1365 0.930 . S
C1372 N1373 1.314 . S
C1372 C1374 1.353 . S
C1372 H1378 0.930 . S
N1373 Li1323 1.990 . S
N1373 C1372 1.314 . S
N1373 C1376 1.279 . S
C1374 C1372 1.353 . S
C1374 C1377 1.348 . S
C1374 H1406 0.929 . S
C1375 C1376 1.358 . S
C1375 C1377 1.356 . S
C1375 H1407 0.930 . S
C1376 N1373 1.279 . S
C1376 C1375 1.358 . S
C1376 H1379 0.930 . S
C1377 C1374 1.348 . S
C1377 C1375 1.356 . S
H1378 C1372 0.930 . S
H1379 C1376 0.930 . S
O1380 Li1320 1.956 . S
O1380 Li1321 1.970 . S
O1380 Li1322 1.961 . S
O1380 C1324 1.325 . S
O1381 Li1320 1.970 . S
O1381 Li1321 1.956 . S
O1381 Li1323 1.961 . S
O1381 C1330 1.325 . S
O1382 Li1320 1.961 . S
O1382 Li1322 1.956 . S
O1382 Li1323 1.970 . S
O1382 C1352 1.325 . S
O1383 Li1321 1.961 . S
O1383 Li1322 1.970 . S
O1383 Li1323 1.956 . S
O1383 C1358 1.325 . S
H1384 C1326 0.929 . S
H1385 C1327 0.930 . S
H1386 C1328 0.930 . S
H1387 C1329 0.930 . S
H1388 C1331 0.930 . S
H1389 C1333 0.929 . S
H1390 C1334 0.930 . S
H1391 C1335 0.930 . S
H1392 C1338 0.930 . S
H1393 C1341 0.929 . S
H1394 C1346 0.929 . S
H1395 C1347 0.930 . S
H1396 C1354 0.929 . S
H1397 C1355 0.930 . S
H1398 C1356 0.930 . S
H1399 C1357 0.930 . S
H1400 C1359 0.929 . S
H1401 C1360 0.930 . S
H1402 C1361 0.930 . S
H1403 C1362 0.930 . S
H1404 C1366 0.929 . S
H1405 C1368 0.930 . S
H1406 C1374 0.929 . S
H1407 C1375 0.930 . S
C1408 C1409 1.387 . S
C1408 H1412 0.950 . S
C1408 C1417 1.390 1_565 S
C1409 C1408 1.387 . S
C1409 C1411 1.387 . S
H1410 C1417 0.950 . S
C1411 C1409 1.387 . S
C1411 C1413 1.390 1_565 S
C1411 H1415 0.950 . S
H1412 C1408 0.950 . S
C1413 C1411 1.390 1_545 S
C1413 C1414 1.387 . S
C1413 H1416 0.950 . S
C1414 C1413 1.387 . S
C1414 C1417 1.387 . S
H1415 C1411 0.950 . S
H1416 C1413 0.950 . S
C1417 C1408 1.390 1_545 S
C1417 H1410 0.950 . S
C1417 C1414 1.387 . S
C1418 C1419 1.387 . S
C1418 H1422 0.950 . S
C1418 C1427 1.390 1_565 S
C1419 C1418 1.387 . S
C1419 C1421 1.387 . S
H1420 C1427 0.950 . S
C1421 C1419 1.387 . S
C1421 C1423 1.390 1_565 S
C1421 H1425 0.950 . S
H1422 C1418 0.950 . S
C1423 C1421 1.390 1_545 S
C1423 C1424 1.387 . S
C1423 H1426 0.950 . S
C1424 C1423 1.387 . S
C1424 C1427 1.387 . S
H1425 C1421 0.950 . S
H1426 C1423 0.950 . S
C1427 C1418 1.390 1_545 S
C1427 H1420 0.950 . S
C1427 C1424 1.387 . S
C1428 C1429 1.387 . S
C1428 H1432 0.950 . S
C1428 C1437 1.390 1_565 S
C1429 C1428 1.387 . S
C1429 C1431 1.387 . S
H1430 C1437 0.950 . S
C1431 C1429 1.387 . S
C1431 C1433 1.390 1_565 S
C1431 H1435 0.950 . S
H1432 C1428 0.950 . S
C1433 C1431 1.390 1_545 S
C1433 C1434 1.387 . S
C1433 H1436 0.950 . S
C1434 C1433 1.387 . S
C1434 C1437 1.387 . S
H1435 C1431 0.950 . S
H1436 C1433 0.950 . S
C1437 C1428 1.390 1_545 S
C1437 H1430 0.950 . S
C1437 C1434 1.387 . S
C1438 C1439 1.387 . S
C1438 H1442 0.950 . S
C1438 C1447 1.390 1_565 S
C1439 C1438 1.387 . S
C1439 C1441 1.387 . S
H1440 C1447 0.950 . S
C1441 C1439 1.387 . S
C1441 C1443 1.390 1_565 S
C1441 H1445 0.950 . S
H1442 C1438 0.950 . S
C1443 C1441 1.390 1_545 S
C1443 C1444 1.387 . S
C1443 H1446 0.950 . S
C1444 C1443 1.387 . S
C1444 C1447 1.387 . S
H1445 C1441 0.950 . S
H1446 C1443 0.950 . S
C1447 C1438 1.390 1_545 S
C1447 H1440 0.950 . S
C1447 C1444 1.387 . S
C1448 C1449 1.387 . S
C1448 H1452 0.950 . S
C1448 C1457 1.390 . S
C1449 C1448 1.387 . S
C1449 C1451 1.387 . S
H1450 C1457 0.950 . S
C1451 C1449 1.387 . S
C1451 C1453 1.390 . S
C1451 H1455 0.950 . S
H1452 C1448 0.950 . S
C1453 C1451 1.390 . S
C1453 C1454 1.387 . S
C1453 H1456 0.950 . S
C1454 C1453 1.387 . S
C1454 C1457 1.387 . S
H1455 C1451 0.950 . S
H1456 C1453 0.950 . S
C1457 C1448 1.390 . S
C1457 H1450 0.950 . S
C1457 C1454 1.387 . S
C1458 C1459 1.387 . S
C1458 H1462 0.950 . S
C1458 C1467 1.390 . S
C1459 C1458 1.387 . S
C1459 C1461 1.387 . S
H1460 C1467 0.950 . S
C1461 C1459 1.387 . S
C1461 C1463 1.390 . S
C1461 H1465 0.950 . S
H1462 C1458 0.950 . S
C1463 C1461 1.390 . S
C1463 C1464 1.387 . S
C1463 H1466 0.950 . S
C1464 C1463 1.387 . S
C1464 C1467 1.387 . S
H1465 C1461 0.950 . S
H1466 C1463 0.950 . S
C1467 C1458 1.390 . S
C1467 H1460 0.950 . S
C1467 C1464 1.387 . S
C1468 C1469 1.387 . S
C1468 H1472 0.950 . S
C1468 C1477 1.390 . S
C1469 C1468 1.387 . S
C1469 C1471 1.387 . S
H1470 C1477 0.950 . S
C1471 C1469 1.387 . S
C1471 C1473 1.390 . S
C1471 H1475 0.950 . S
H1472 C1468 0.950 . S
C1473 C1471 1.390 . S
C1473 C1474 1.387 . S
C1473 H1476 0.950 . S
C1474 C1473 1.387 . S
C1474 C1477 1.387 . S
H1475 C1471 0.950 . S
H1476 C1473 0.950 . S
C1477 C1468 1.390 . S
C1477 H1470 0.950 . S
C1477 C1474 1.387 . S
C1478 C1479 1.387 . S
C1478 H1482 0.950 . S
C1478 C1487 1.390 . S
C1479 C1478 1.387 . S
C1479 C1481 1.387 . S
H1480 C1487 0.950 . S
C1481 C1479 1.387 . S
C1481 C1483 1.390 . S
C1481 H1485 0.950 . S
H1482 C1478 0.950 . S
C1483 C1481 1.390 . S
C1483 C1484 1.387 . S
C1483 H1486 0.950 . S
C1484 C1483 1.387 . S
C1484 C1487 1.387 . S
H1485 C1481 0.950 . S
H1486 C1483 0.950 . S
C1487 C1478 1.390 . S
C1487 H1480 0.950 . S
C1487 C1484 1.387 . S
C1488 C1489 1.387 . S
C1488 H1492 0.950 . S
C1488 C1497 1.390 1_455 S
C1489 C1488 1.387 . S
C1489 C1491 1.387 1_545 S
H1490 C1497 0.950 . S
C1491 C1489 1.387 1_565 S
C1491 C1493 1.390 1_455 S
C1491 H1495 0.950 . S
H1492 C1488 0.950 . S
C1493 C1491 1.390 1_655 S
C1493 C1494 1.387 1_565 S
C1493 H1496 0.950 . S
C1494 C1493 1.387 1_545 S
C1494 C1497 1.387 . S
H1495 C1491 0.950 . S
H1496 C1493 0.950 . S
C1497 C1488 1.390 1_655 S
C1497 H1490 0.950 . S
C1497 C1494 1.387 . S
C1498 C1499 1.387 1_545 S
C1498 H1502 0.950 . S
C1498 C1507 1.390 . S
C1499 C1498 1.387 1_565 S
C1499 C1501 1.387 . S
H1500 C1507 0.950 . S
C1501 C1499 1.387 . S
C1501 C1503 1.390 . S
C1501 H1505 0.950 . S
H1502 C1498 0.950 . S
C1503 C1501 1.390 . S
C1503 C1504 1.387 . S
C1503 H1506 0.950 . S
C1504 C1503 1.387 . S
C1504 C1507 1.387 1_565 S
H1505 C1501 0.950 . S
H1506 C1503 0.950 . S
C1507 C1498 1.390 . S
C1507 H1500 0.950 . S
C1507 C1504 1.387 1_545 S
C1508 C1509 1.387 . S
C1508 H1512 0.950 . S
C1508 C1517 1.390 1_655 S
C1509 C1508 1.387 . S
C1509 C1511 1.387 1_565 S
H1510 C1517 0.950 . S
C1511 C1509 1.387 1_545 S
C1511 C1513 1.390 1_655 S
C1511 H1515 0.950 . S
H1512 C1508 0.950 . S
C1513 C1511 1.390 1_455 S
C1513 C1514 1.387 1_545 S
C1513 H1516 0.950 . S
C1514 C1513 1.387 1_565 S
C1514 C1517 1.387 . S
H1515 C1511 0.950 . S
H1516 C1513 0.950 . S
C1517 C1508 1.390 1_455 S
C1517 H1510 0.950 . S
C1517 C1514 1.387 . S
C1518 C1519 1.387 1_565 S
C1518 H1522 0.950 . S
C1518 C1527 1.390 . S
C1519 C1518 1.387 1_545 S
C1519 C1521 1.387 . S
H1520 C1527 0.950 . S
C1521 C1519 1.387 . S
C1521 C1523 1.390 . S
C1521 H1525 0.950 . S
H1522 C1518 0.950 . S
C1523 C1521 1.390 . S
C1523 C1524 1.387 . S
C1523 H1526 0.950 . S
C1524 C1523 1.387 . S
C1524 C1527 1.387 1_545 S
H1525 C1521 0.950 . S
H1526 C1523 0.950 . S
C1527 C1518 1.390 . S
C1527 H1520 0.950 . S
C1527 C1524 1.387 1_565 S
C1528 C1529 1.387 . S
C1528 H1532 0.950 . S
C1528 C1537 1.390 . S
C1529 C1528 1.387 . S
C1529 C1531 1.387 . S
H1530 C1537 0.950 . S
C1531 C1529 1.387 . S
C1531 C1533 1.390 . S
C1531 H1535 0.950 . S
H1532 C1528 0.950 . S
C1533 C1531 1.390 . S
C1533 C1534 1.387 . S
C1533 H1536 0.950 . S
C1534 C1533 1.387 . S
C1534 C1537 1.387 . S
H1535 C1531 0.950 . S
H1536 C1533 0.950 . S
C1537 C1528 1.390 . S
C1537 H1530 0.950 . S
C1537 C1534 1.387 . S
C1538 C1539 1.387 . S
C1538 H1542 0.950 . S
C1538 C1547 1.390 1_655 S
C1539 C1538 1.387 . S
C1539 C1541 1.387 . S
H1540 C1547 0.950 . S
C1541 C1539 1.387 . S
C1541 C1543 1.390 1_655 S
C1541 H1545 0.950 . S
H1542 C1538 0.950 . S
C1543 C1541 1.390 1_455 S
C1543 C1544 1.387 . S
C1543 H1546 0.950 . S
C1544 C1543 1.387 . S
C1544 C1547 1.387 . S
H1545 C1541 0.950 . S
H1546 C1543 0.950 . S
C1547 C1538 1.390 1_455 S
C1547 H1540 0.950 . S
C1547 C1544 1.387 . S
C1548 C1549 1.387 . S
C1548 H1552 0.950 . S
C1548 C1557 1.390 . S
C1549 C1548 1.387 . S
C1549 C1551 1.387 . S
H1550 C1557 0.950 . S
C1551 C1549 1.387 . S
C1551 C1553 1.390 . S
C1551 H1555 0.950 . S
H1552 C1548 0.950 . S
C1553 C1551 1.390 . S
C1553 C1554 1.387 . S
C1553 H1556 0.950 . S
C1554 C1553 1.387 . S
C1554 C1557 1.387 . S
H1555 C1551 0.950 . S
H1556 C1553 0.950 . S
C1557 C1548 1.390 . S
C1557 H1550 0.950 . S
C1557 C1554 1.387 . S
C1558 C1559 1.387 . S
C1558 H1562 0.950 . S
C1558 C1567 1.390 1_655 S
C1559 C1558 1.387 . S
C1559 C1561 1.387 . S
H1560 C1567 0.950 . S
C1561 C1559 1.387 . S
C1561 C1563 1.390 1_655 S
C1561 H1565 0.950 . S
H1562 C1558 0.950 . S
C1563 C1561 1.390 1_455 S
C1563 C1564 1.387 . S
C1563 H1566 0.950 . S
C1564 C1563 1.387 . S
C1564 C1567 1.387 . S
H1565 C1561 0.950 . S
H1566 C1563 0.950 . S
C1567 C1558 1.390 1_455 S
C1567 H1560 0.950 . S
C1567 C1564 1.387 . S
C1568 C1569 1.387 . S
C1568 H1572 0.950 . S
C1568 C1577 1.390 1_455 S
C1569 C1568 1.387 . S
C1569 C1571 1.387 . S
H1570 C1577 0.950 . S
C1571 C1569 1.387 . S
C1571 C1573 1.390 1_455 S
C1571 H1575 0.950 . S
H1572 C1568 0.950 . S
C1573 C1571 1.390 1_655 S
C1573 C1574 1.387 . S
C1573 H1576 0.950 . S
C1574 C1573 1.387 . S
C1574 C1577 1.387 . S
H1575 C1571 0.950 . S
H1576 C1573 0.950 . S
C1577 C1568 1.390 1_655 S
C1577 H1570 0.950 . S
C1577 C1574 1.387 . S
C1578 C1579 1.387 . S
C1578 H1582 0.950 . S
C1578 C1587 1.390 . S
C1579 C1578 1.387 . S
C1579 C1581 1.387 . S
H1580 C1587 0.950 . S
C1581 C1579 1.387 . S
C1581 C1583 1.390 . S
C1581 H1585 0.950 . S
H1582 C1578 0.950 . S
C1583 C1581 1.390 . S
C1583 C1584 1.387 . S
C1583 H1586 0.950 . S
C1584 C1583 1.387 . S
C1584 C1587 1.387 . S
H1585 C1581 0.950 . S
H1586 C1583 0.950 . S
C1587 C1578 1.390 . S
C1587 H1580 0.950 . S
C1587 C1584 1.387 . S
C1588 C1589 1.387 . S
C1588 H1592 0.950 . S
C1588 C1597 1.390 . S
C1589 C1588 1.387 . S
C1589 C1591 1.387 . S
H1590 C1597 0.950 . S
C1591 C1589 1.387 . S
C1591 C1593 1.390 . S
C1591 H1595 0.950 . S
H1592 C1588 0.950 . S
C1593 C1591 1.390 . S
C1593 C1594 1.387 . S
C1593 H1596 0.950 . S
C1594 C1593 1.387 . S
C1594 C1597 1.387 . S
H1595 C1591 0.950 . S
H1596 C1593 0.950 . S
C1597 C1588 1.390 . S
C1597 H1590 0.950 . S
C1597 C1594 1.387 . S
C1598 C1599 1.387 . S
C1598 H1602 0.950 . S
C1598 C1607 1.390 1_455 S
C1599 C1598 1.387 . S
C1599 C1601 1.387 . S
H1600 C1607 0.950 . S
C1601 C1599 1.387 . S
C1601 C1603 1.390 1_455 S
C1601 H1605 0.950 . S
H1602 C1598 0.950 . S
C1603 C1601 1.390 1_655 S
C1603 C1604 1.387 . S
C1603 H1606 0.950 . S
C1604 C1603 1.387 . S
C1604 C1607 1.387 . S
H1605 C1601 0.950 . S
H1606 C1603 0.950 . S
C1607 C1598 1.390 1_655 S
C1607 H1600 0.950 . S
C1607 C1604 1.387 . S
C1608 C1609 1.387 . S
C1608 H1612 0.950 . S
C1608 C1617 1.390 1_455 S
C1609 C1608 1.387 . S
C1609 C1611 1.387 . S
H1610 C1617 0.950 . S
C1611 C1609 1.387 . S
C1611 C1613 1.390 1_455 S
C1611 H1615 0.950 . S
H1612 C1608 0.950 . S
C1613 C1611 1.390 1_655 S
C1613 C1614 1.387 . S
C1613 H1616 0.950 . S
C1614 C1613 1.387 . S
C1614 C1617 1.387 . S
H1615 C1611 0.950 . S
H1616 C1613 0.950 . S
C1617 C1608 1.390 1_655 S
C1617 H1610 0.950 . S
C1617 C1614 1.387 . S
C1618 C1619 1.387 . S
C1618 H1622 0.950 . S
C1618 C1627 1.390 . S
C1619 C1618 1.387 . S
C1619 C1621 1.387 . S
H1620 C1627 0.950 . S
C1621 C1619 1.387 . S
C1621 C1623 1.390 . S
C1621 H1625 0.950 . S
H1622 C1618 0.950 . S
C1623 C1621 1.390 . S
C1623 C1624 1.387 . S
C1623 H1626 0.950 . S
C1624 C1623 1.387 . S
C1624 C1627 1.387 . S
H1625 C1621 0.950 . S
H1626 C1623 0.950 . S
C1627 C1618 1.390 . S
C1627 H1620 0.950 . S
C1627 C1624 1.387 . S
C1628 C1629 1.387 . S
C1628 H1632 0.950 . S
C1628 C1637 1.390 . S
C1629 C1628 1.387 . S
C1629 C1631 1.387 . S
H1630 C1637 0.950 . S
C1631 C1629 1.387 . S
C1631 C1633 1.390 . S
C1631 H1635 0.950 . S
H1632 C1628 0.950 . S
C1633 C1631 1.390 . S
C1633 C1634 1.387 . S
C1633 H1636 0.950 . S
C1634 C1633 1.387 . S
C1634 C1637 1.387 . S
H1635 C1631 0.950 . S
H1636 C1633 0.950 . S
C1637 C1628 1.390 . S
C1637 H1630 0.950 . S
C1637 C1634 1.387 . S
C1638 C1639 1.387 . S
C1638 H1642 0.950 . S
C1638 C1647 1.390 1_455 S
C1639 C1638 1.387 . S
C1639 C1641 1.387 . S
H1640 C1647 0.950 . S
C1641 C1639 1.387 . S
C1641 C1643 1.390 1_455 S
C1641 H1645 0.950 . S
H1642 C1638 0.950 . S
C1643 C1641 1.390 1_655 S
C1643 C1644 1.387 . S
C1643 H1646 0.950 . S
C1644 C1643 1.387 . S
C1644 C1647 1.387 . S
H1645 C1641 0.950 . S
H1646 C1643 0.950 . S
C1647 C1638 1.390 1_655 S
C1647 H1640 0.950 . S
C1647 C1644 1.387 . S
C1648 C1649 1.390 . S
C1648 H1652 0.949 . S
C1648 C1657 1.388 1_456 S
C1649 C1648 1.390 . S
C1649 C1651 1.387 1_545 S
H1650 C1657 0.950 . S
C1651 C1649 1.387 1_565 S
C1651 C1653 1.385 1_456 S
C1651 H1655 0.950 . S
H1652 C1648 0.949 . S
C1653 C1651 1.385 1_654 S
C1653 C1654 1.393 . S
C1653 H1656 0.951 . S
C1654 C1653 1.393 . S
C1654 C1657 1.387 1_565 S
H1655 C1651 0.950 . S
H1656 C1653 0.951 . S
C1657 C1648 1.388 1_654 S
C1657 H1650 0.950 . S
C1657 C1654 1.387 1_545 S
C1658 C1659 1.387 1_545 S
C1658 H1662 0.950 . S
C1658 C1667 1.390 1_556 S
C1659 C1658 1.387 1_565 S
C1659 C1661 1.387 . S
H1660 C1667 0.950 . S
C1661 C1659 1.387 . S
C1661 C1663 1.390 1_556 S
C1661 H1665 0.950 . S
H1662 C1658 0.950 . S
C1663 C1661 1.390 1_554 S
C1663 C1664 1.387 1_565 S
C1663 H1666 0.950 . S
C1664 C1663 1.387 1_545 S
C1664 C1667 1.387 . S
H1665 C1661 0.950 . S
H1666 C1663 0.950 . S
C1667 C1658 1.390 1_554 S
C1667 H1660 0.950 . S
C1667 C1664 1.387 . S
C1668 C1669 1.387 . S
C1668 H1672 0.950 . S
C1668 C1677 1.390 . S
C1669 C1668 1.387 . S
C1669 C1671 1.387 1_565 S
H1670 C1677 0.950 . S
C1671 C1669 1.387 1_545 S
C1671 C1673 1.390 . S
C1671 H1675 0.950 . S
H1672 C1668 0.950 . S
C1673 C1671 1.390 . S
C1673 C1674 1.387 . S
C1673 H1676 0.950 . S
C1674 C1673 1.387 . S
C1674 C1677 1.387 1_545 S
H1675 C1671 0.950 . S
H1676 C1673 0.950 . S
C1677 C1668 1.390 . S
C1677 H1670 0.950 . S
C1677 C1674 1.387 1_565 S
C1678 C1679 1.387 1_455 S
C1678 H1682 0.950 . S
C1678 C1687 1.390 . S
C1679 C1678 1.387 1_655 S
C1679 C1681 1.387 1_545 S
H1680 C1687 0.950 . S
C1681 C1679 1.387 1_565 S
C1681 C1683 1.390 . S
C1681 H1685 0.950 . S
H1682 C1678 0.950 . S
C1683 C1681 1.390 . S
C1683 C1684 1.387 1_655 S
C1683 H1686 0.950 . S
C1684 C1683 1.387 1_455 S
C1684 C1687 1.387 1_565 S
H1685 C1681 0.950 . S
H1686 C1683 0.950 . S
C1687 C1678 1.390 . S
C1687 H1680 0.950 . S
C1687 C1684 1.387 1_545 S
C1688 C1689 1.387 . S
C1688 H1692 0.950 . S
C1688 C1697 1.390 1_554 S
C1689 C1688 1.387 . S
C1689 C1691 1.387 . S
H1690 C1697 0.950 . S
C1691 C1689 1.387 . S
C1691 C1693 1.390 1_554 S
C1691 H1695 0.950 . S
H1692 C1688 0.950 . S
C1693 C1691 1.390 1_556 S
C1693 C1694 1.387 . S
C1693 H1696 0.950 . S
C1694 C1693 1.387 . S
C1694 C1697 1.387 . S
H1695 C1691 0.950 . S
H1696 C1693 0.950 . S
C1697 C1688 1.390 1_556 S
C1697 H1690 0.950 . S
C1697 C1694 1.387 . S
C1698 C1699 1.387 1_655 S
C1698 H1702 0.950 . S
C1698 C1707 1.390 1_554 S
C1699 C1698 1.387 1_455 S
C1699 C1701 1.387 . S
H1700 C1707 0.950 . S
C1701 C1699 1.387 . S
C1701 C1703 1.390 1_554 S
C1701 H1705 0.950 . S
H1702 C1698 0.950 . S
C1703 C1701 1.390 1_556 S
C1703 C1704 1.387 1_455 S
C1703 H1706 0.950 . S
C1704 C1703 1.387 1_655 S
C1704 C1707 1.387 . S
H1705 C1701 0.950 . S
H1706 C1703 0.950 . S
C1707 C1698 1.390 1_556 S
C1707 H1700 0.950 . S
C1707 C1704 1.387 . S
C1708 C1709 1.387 1_655 S
C1708 H1712 0.950 . S
C1708 C1717 1.390 . S
C1709 C1708 1.387 1_455 S
C1709 C1711 1.387 . S
H1710 C1717 0.950 . S
C1711 C1709 1.387 . S
C1711 C1713 1.390 . S
C1711 H1715 0.950 . S
H1712 C1708 0.950 . S
C1713 C1711 1.390 . S
C1713 C1714 1.387 1_455 S
C1713 H1716 0.950 . S
C1714 C1713 1.387 1_655 S
C1714 C1717 1.387 . S
H1715 C1711 0.950 . S
H1716 C1713 0.950 . S
C1717 C1708 1.390 . S
C1717 H1710 0.950 . S
C1717 C1714 1.387 . S
C1718 C1719 1.387 . S
C1718 H1722 0.950 . S
C1718 C1727 1.390 . S
C1719 C1718 1.387 . S
C1719 C1721 1.387 . S
H1720 C1727 0.950 . S
C1721 C1719 1.387 . S
C1721 C1723 1.390 . S
C1721 H1725 0.950 . S
H1722 C1718 0.950 . S
C1723 C1721 1.390 . S
C1723 C1724 1.387 . S
C1723 H1726 0.950 . S
C1724 C1723 1.387 . S
C1724 C1727 1.387 . S
H1725 C1721 0.950 . S
H1726 C1723 0.950 . S
C1727 C1718 1.390 . S
C1727 H1720 0.950 . S
C1727 C1724 1.387 . S
C1409 C137 1.532 . S
C1414 C29 1.532 . S
C1419 C196 1.532 . S
C1424 C293 1.532 . S
C1429 C401 1.526 . S
C1434 C489 1.526 . S
C1439 C645 1.525 . S
C1444 C548 1.525 . S
C1449 C841 1.532 . S
C1454 C753 1.532 . S
C1459 C997 1.532 . S
C1464 C909 1.532 . S
C1469 C1201 1.526 . S
C1474 C1113 1.526 . S
C1479 C1349 1.526 . S
C1484 C1252 1.526 . S
C1489 C313 1.324 1_455 S
C1494 C49 1.324 1_655 S
C1499 C117 1.326 . S
C1504 C233 1.326 . S
C1509 C636 1.326 1_655 S
C1514 C409 1.326 1_455 S
C1519 C557 1.323 . S
C1524 C497 1.323 . S
C1529 C733 1.327 . S
C1534 C1017 1.327 . S
C1539 C929 1.326 1_655 S
C1544 C821 1.326 1_455 S
C1549 C1340 1.326 . S
C1554 C1105 1.326 . S
C1559 C1193 1.326 1_655 S
C1564 C1261 1.326 1_455 S
C1569 C57 1.773 . S
C1574 C812 1.773 . S
C1579 C108 1.776 . S
C1584 C724 1.776 . S
C1589 C1025 1.773 . S
C1594 C225 1.773 . S
C1599 C937 1.776 . S
C1604 C321 1.776 . S
C1609 C1173 1.775 . S
C1614 C372 1.775 . S
C1619 C1085 1.778 . S
C1624 C460 1.778 . S
C1629 C577 1.778 . S
C1634 C1377 1.778 . S
C1639 C673 1.775 . S
C1644 C1281 1.775 . S
C1649 C381 1.540 . S
C1654 C20 1.543 . S
C1659 C469 1.537 . S
C1664 C145 1.540 . S
C1669 C585 1.541 . S
C1674 C205 1.544 . S
C1679 C665 1.540 . S
C1684 C284 1.543 . S
C1689 C761 1.539 . S
C1694 C1076 1.536 . S
C1699 C849 1.539 . S
C1704 C1164 1.536 . S
C1709 C1289 1.539 . S
C1714 C900 1.542 . S
C1719 C1369 1.541 . S
C1724 C988 1.544 . S
