# Generated by pormake.
# Topology unv, (4)-cn, num edge types: 1
# Building blocks:
#     Node 0, Type 0, BuildingBlock: ICAMEG_clean_sbu_1, # of connection points: 4
#     Node 1, Type 0, BuildingBlock: ICAMEG_clean_sbu_1, # of connection points: 4
#     Node 2, Type 0, BuildingBlock: ICAMEG_clean_sbu_1, # of connection points: 4
#     Node 3, Type 0, BuildingBlock: ICAMEG_clean_sbu_1, # of connection points: 4
#     Node 4, Type 0, BuildingBlock: ICAMEG_clean_sbu_1, # of connection points: 4
#     Node 5, Type 0, BuildingBlock: ICAMEG_clean_sbu_1, # of connection points: 4
#     Node 6, Type 0, BuildingBlock: ICAMEG_clean_sbu_1, # of connection points: 4
#     Node 7, Type 0, BuildingBlock: ICAMEG_clean_sbu_1, # of connection points: 4
#     Node 8, Type 0, BuildingBlock: ICAMEG_clean_sbu_1, # of connection points: 4
#     Node 9, Type 0, BuildingBlock: ICAMEG_clean_sbu_1, # of connection points: 4
#     Node 10, Type 0, BuildingBlock: ICAMEG_clean_sbu_1, # of connection points: 4
#     Node 11, Type 0, BuildingBlock: ICAMEG_clean_sbu_1, # of connection points: 4
#     Node 12, Type 0, BuildingBlock: ICAMEG_clean_sbu_1, # of connection points: 4
#     Node 13, Type 0, BuildingBlock: ICAMEG_clean_sbu_1, # of connection points: 4
#     Node 14, Type 0, BuildingBlock: ICAMEG_clean_sbu_1, # of connection points: 4
#     Node 15, Type 0, BuildingBlock: ICAMEG_clean_sbu_1, # of connection points: 4
#     Node 16, Type 0, BuildingBlock: ICAMEG_clean_sbu_1, # of connection points: 4
#     Node 17, Type 0, BuildingBlock: ICAMEG_clean_sbu_1, # of connection points: 4
#     Node 18, Type 0, BuildingBlock: ICAMEG_clean_sbu_1, # of connection points: 4
#     Node 19, Type 0, BuildingBlock: ICAMEG_clean_sbu_1, # of connection points: 4
#     Node 20, Type 0, BuildingBlock: ICAMEG_clean_sbu_1, # of connection points: 4
#     Node 21, Type 0, BuildingBlock: ICAMEG_clean_sbu_1, # of connection points: 4
#     Node 22, Type 0, BuildingBlock: ICAMEG_clean_sbu_1, # of connection points: 4
#     Node 23, Type 0, BuildingBlock: ICAMEG_clean_sbu_1, # of connection points: 4
#     Edge 24, Type (0, 0), BuildingBlock: XIVTED_clean_linker_0, # of connection points: 2
#     Edge 25, Type (0, 0), BuildingBlock: XIVTED_clean_linker_0, # of connection points: 2
#     Edge 26, Type (0, 0), BuildingBlock: XIVTED_clean_linker_0, # of connection points: 2
#     Edge 27, Type (0, 0), BuildingBlock: XIVTED_clean_linker_0, # of connection points: 2
#     Edge 28, Type (0, 0), BuildingBlock: XIVTED_clean_linker_0, # of connection points: 2
#     Edge 29, Type (0, 0), BuildingBlock: XIVTED_clean_linker_0, # of connection points: 2
#     Edge 30, Type (0, 0), BuildingBlock: XIVTED_clean_linker_0, # of connection points: 2
#     Edge 31, Type (0, 0), BuildingBlock: XIVTED_clean_linker_0, # of connection points: 2
#     Edge 32, Type (0, 0), BuildingBlock: XIVTED_clean_linker_0, # of connection points: 2
#     Edge 33, Type (0, 0), BuildingBlock: XIVTED_clean_linker_0, # of connection points: 2
#     Edge 34, Type (0, 0), BuildingBlock: XIVTED_clean_linker_0, # of connection points: 2
#     Edge 35, Type (0, 0), BuildingBlock: XIVTED_clean_linker_0, # of connection points: 2
#     Edge 36, Type (0, 0), BuildingBlock: XIVTED_clean_linker_0, # of connection points: 2
#     Edge 37, Type (0, 0), BuildingBlock: XIVTED_clean_linker_0, # of connection points: 2
#     Edge 38, Type (0, 0), BuildingBlock: XIVTED_clean_linker_0, # of connection points: 2
#     Edge 39, Type (0, 0), BuildingBlock: XIVTED_clean_linker_0, # of connection points: 2
#     Edge 40, Type (0, 0), BuildingBlock: XIVTED_clean_linker_0, # of connection points: 2
#     Edge 41, Type (0, 0), BuildingBlock: XIVTED_clean_linker_0, # of connection points: 2
#     Edge 42, Type (0, 0), BuildingBlock: XIVTED_clean_linker_0, # of connection points: 2
#     Edge 43, Type (0, 0), BuildingBlock: XIVTED_clean_linker_0, # of connection points: 2
#     Edge 44, Type (0, 0), BuildingBlock: XIVTED_clean_linker_0, # of connection points: 2
#     Edge 45, Type (0, 0), BuildingBlock: XIVTED_clean_linker_0, # of connection points: 2
#     Edge 46, Type (0, 0), BuildingBlock: XIVTED_clean_linker_0, # of connection points: 2
#     Edge 47, Type (0, 0), BuildingBlock: XIVTED_clean_linker_0, # of connection points: 2
#     Edge 48, Type (0, 0), BuildingBlock: XIVTED_clean_linker_0, # of connection points: 2
#     Edge 49, Type (0, 0), BuildingBlock: XIVTED_clean_linker_0, # of connection points: 2
#     Edge 50, Type (0, 0), BuildingBlock: XIVTED_clean_linker_0, # of connection points: 2
#     Edge 51, Type (0, 0), BuildingBlock: XIVTED_clean_linker_0, # of connection points: 2
#     Edge 52, Type (0, 0), BuildingBlock: XIVTED_clean_linker_0, # of connection points: 2
#     Edge 53, Type (0, 0), BuildingBlock: XIVTED_clean_linker_0, # of connection points: 2
#     Edge 54, Type (0, 0), BuildingBlock: XIVTED_clean_linker_0, # of connection points: 2
#     Edge 55, Type (0, 0), BuildingBlock: XIVTED_clean_linker_0, # of connection points: 2
#     Edge 56, Type (0, 0), BuildingBlock: XIVTED_clean_linker_0, # of connection points: 2
#     Edge 57, Type (0, 0), BuildingBlock: XIVTED_clean_linker_0, # of connection points: 2
#     Edge 58, Type (0, 0), BuildingBlock: XIVTED_clean_linker_0, # of connection points: 2
#     Edge 59, Type (0, 0), BuildingBlock: XIVTED_clean_linker_0, # of connection points: 2
#     Edge 60, Type (0, 0), BuildingBlock: XIVTED_clean_linker_0, # of connection points: 2
#     Edge 61, Type (0, 0), BuildingBlock: XIVTED_clean_linker_0, # of connection points: 2
#     Edge 62, Type (0, 0), BuildingBlock: XIVTED_clean_linker_0, # of connection points: 2
#     Edge 63, Type (0, 0), BuildingBlock: XIVTED_clean_linker_0, # of connection points: 2
#     Edge 64, Type (0, 0), BuildingBlock: XIVTED_clean_linker_0, # of connection points: 2
#     Edge 65, Type (0, 0), BuildingBlock: XIVTED_clean_linker_0, # of connection points: 2
#     Edge 66, Type (0, 0), BuildingBlock: XIVTED_clean_linker_0, # of connection points: 2
#     Edge 67, Type (0, 0), BuildingBlock: XIVTED_clean_linker_0, # of connection points: 2
#     Edge 68, Type (0, 0), BuildingBlock: XIVTED_clean_linker_0, # of connection points: 2
#     Edge 69, Type (0, 0), BuildingBlock: XIVTED_clean_linker_0, # of connection points: 2
#     Edge 70, Type (0, 0), BuildingBlock: XIVTED_clean_linker_0, # of connection points: 2
#     Edge 71, Type (0, 0), BuildingBlock: XIVTED_clean_linker_0, # of connection points: 2
# Relax obj value: 0.193
# Max RMSD: 0.147
# Mean RMSD: 0.124
data_MOF--net-unv--node1-ICAMEG_clean_sbu_1--edge1-XIVTED_clean_linker_0
_symmetry_space_group_name_H-M    P1
_symmetry_Int_Tables_number       1
_symmetry_cell_setting            triclinic
loop_
_symmetry_equiv_pos_as_xyz
'x, y, z'
_cell_length_a     52.639611
_cell_length_b     52.627529
_cell_length_c     52.612133
_cell_angle_alpha  89.982043
_cell_angle_beta   89.980952
_cell_angle_gamma 89.981496
loop_
_atom_site_label
_atom_site_type_symbol
_atom_site_fract_x
_atom_site_fract_y
_atom_site_fract_z
_atom_type_partial_charge
Co0 Co 0.98044 0.0641 0.36742 0.0
Co1 Co 0.9437 0.10352 0.40491 0.0
O2 O 0.95779 0.09291 0.37229 0.0
C3 C 0.93728 0.04944 0.33439 0.0
O4 O 0.92214 0.05174 0.35406 0.0
C5 C 0.97356 0.14728 0.3876 0.0
O6 O 0.99176 0.13093 0.3828 0.0
O7 O 0.97705 0.09958 0.42247 0.0
O8 O 0.00028 0.07312 0.39835 0.0
H9 H 0.92798 0.09777 0.49896 0.0
H10 H 0.97159 0.10009 0.32498 0.0
O11 O 0.96092 0.05427 0.33627 0.0
H12 H 0.06376 0.10321 0.34141 0.0
H13 H 0.03299 0.00393 0.31478 0.0
H14 H 0.00341 0.02517 0.40115 0.0
H15 H 0.03606 0.07485 0.36643 0.0
H16 H 0.00499 0.04083 0.32197 0.0
O17 O 0.95242 0.13963 0.39659 0.0
H18 H 0.94571 0.08401 0.4578 0.0
H19 H 0.91139 0.14713 0.421 0.0
H20 H 0.03156 0.98823 0.39486 0.0
H21 H 0.99862 0.12858 0.29937 0.0
H22 H 0.04654 0.9774 0.35141 0.0
H23 H 0.04505 0.13031 0.30759 0.0
O24 O 0.95836 0.04187 0.38864 0.0
H25 H 0.8851 0.13263 0.33535 0.0
H26 H 0.89106 0.08624 0.41659 0.0
H27 H 0.84956 0.08997 0.39515 0.0
H28 H 0.84639 0.11335 0.35425 0.0
H29 H 0.92626 0.12828 0.35734 0.0
H30 H 0.89343 0.16169 0.46181 0.0
H31 H 0.90162 0.13687 0.50114 0.0
O32 O 0.9352 0.06766 0.41373 0.0
C33 C 0.99709 0.08663 0.4182 0.0
C34 C 0.9242 0.10869 0.48194 0.0
C35 C 0.90484 0.14459 0.4611 0.0
N36 N 0.9294 0.11463 0.437 0.0
C37 C 0.93412 0.10095 0.45857 0.0
C38 C 0.91509 0.13628 0.43806 0.0
C39 C 0.90944 0.13065 0.48315 0.0
C40 C 0.99181 0.10057 0.3285 0.0
N41 N 0.00225 0.08574 0.34707 0.0
C42 C 0.00701 0.11681 0.31401 0.0
C43 C 0.03305 0.1178 0.31865 0.0
C44 C 0.04356 0.10261 0.33764 0.0
C45 C 0.02777 0.08662 0.35177 0.0
C46 C 0.02664 0.00849 0.33381 0.0
C47 C 0.00999 0.02068 0.38221 0.0
C48 C 0.01075 0.02933 0.33799 0.0
N49 N 0.00276 0.03528 0.36199 0.0
C50 C 0.02586 -0.00031 0.37876 0.0
C51 C 0.03424 0.99361 0.35437 0.0
C52 C 0.9421 0.04565 0.40626 0.0
C53 C 0.88623 0.12246 0.3532 0.0
C54 C 0.88984 0.09639 0.39876 0.0
C55 C 0.86629 0.09848 0.38674 0.0
C56 C 0.86452 0.11161 0.3638 0.0
N57 N 0.91102 0.10717 0.38829 0.0
C58 C 0.90946 0.12001 0.36577 0.0
Co59 Co 0.99592 0.41742 0.3702 0.0
Co60 Co 0.0398 0.37743 0.3984 0.0
O61 O 0.02018 0.38948 0.36919 0.0
C62 C 0.0317 0.43717 0.33083 0.0
O63 O 0.05088 0.43391 0.34645 0.0
C64 C 0.00858 0.33369 0.38373 0.0
O65 O 0.98964 0.34982 0.38223 0.0
O66 O 0.00981 0.37907 0.42174 0.0
O67 O 0.98172 0.40499 0.40282 0.0
H68 H 0.07151 0.37871 0.48849 0.0
H69 H -0.00052 0.38477 0.32448 0.0
O70 O 0.00932 0.43067 0.33729 0.0
H71 H 0.91096 0.37649 0.35405 0.0
H72 H 0.93282 0.47848 0.3321 0.0
H73 H 0.97731 0.45232 0.41033 0.0
H74 H 0.94107 0.40445 0.37654 0.0
H75 H 0.96314 0.44275 0.33143 0.0
O76 O 0.03071 0.34151 0.38964 0.0
H77 H 0.04652 0.39401 0.4519 0.0
H78 H 0.07546 0.33415 0.40613 0.0
H79 H 0.94696 0.488 0.41189 0.0
H80 H 0.96994 0.35679 0.30122 0.0
H81 H 0.92447 0.5013 0.37257 0.0
H82 H 0.92535 0.35243 0.31607 0.0
O83 O 0.02037 0.4392 0.38923 0.0
H84 H 0.08641 0.35422 0.31833 0.0
H85 H 0.09316 0.39601 0.40194 0.0
H86 H 0.13046 0.39498 0.37356 0.0
H87 H 0.12722 0.37392 0.33144 0.0
H88 H 0.04952 0.35587 0.34723 0.0
H89 H 0.10061 0.31808 0.44229 0.0
H90 H 0.0988 0.34048 0.48381 0.0
O91 O 0.04869 0.413 0.40774 0.0
C92 C 0.98859 0.39076 0.42113 0.0
C93 C 0.07251 0.36883 0.47048 0.0
C94 C 0.08882 0.33478 0.44456 0.0
N95 N 0.05968 0.36509 0.42687 0.0
C96 C 0.05846 0.37745 0.44967 0.0
C97 C 0.0745 0.34393 0.42417 0.0
C98 C 0.0878 0.34737 0.46785 0.0
C99 C 0.98005 0.38312 0.33092 0.0
N100 N 0.972 0.39622 0.35185 0.0
C101 C 0.96343 0.36719 0.31773 0.0
C102 C 0.93843 0.36473 0.32609 0.0
C103 C 0.93035 0.3782 0.34742 0.0
C104 C 0.9475 0.39393 0.36014 0.0
C105 C 0.94246 0.47283 0.34936 0.0
C106 C 0.96748 0.45789 0.39317 0.0
C107 C 0.9597 0.45265 0.34909 0.0
N108 N 0.97184 0.44533 0.37086 0.0
C109 C 0.95037 0.47816 0.39416 0.0
C110 C 0.93778 0.48562 0.37208 0.0
C111 C 0.03971 0.43508 0.40331 0.0
C112 C 0.08807 0.3634 0.33666 0.0
C113 C 0.09159 0.38688 0.38361 0.0
C114 C 0.11278 0.38631 0.36765 0.0
C115 C 0.11096 0.37448 0.34402 0.0
N116 N 0.06923 0.3759 0.37629 0.0
C117 C 0.06728 0.36432 0.35314 0.0
Co118 Co 0.97844 0.93314 0.14649 0.0
Co119 Co 0.94212 0.89259 0.10983 0.0
O120 O 0.956 0.90409 0.14224 0.0
C121 C 0.93531 0.94872 0.17933 0.0
O122 O 0.9201 0.94664 0.1597 0.0
C123 C 0.97244 0.84958 0.12827 0.0
O124 O 0.99037 0.86631 0.13272 0.0
O125 O 0.97547 0.89641 0.09221 0.0
O126 O 0.9984 0.92353 0.11583 0.0
H127 H 0.92644 0.89611 0.01568 0.0
H128 H 0.96977 0.89796 0.18965 0.0
O129 O 0.95886 0.9435 0.17744 0.0
H130 H 0.062 0.89515 0.17343 0.0
H131 H 0.03053 0.99479 0.19779 0.0
H132 H 0.00123 0.9714 0.1119 0.0
H133 H 0.03416 0.92284 0.14784 0.0
H134 H 0.00275 0.95759 0.19143 0.0
O135 O 0.95122 0.85674 0.11902 0.0
H136 H 0.94401 0.91094 0.05652 0.0
H137 H 0.91032 0.84831 0.0947 0.0
H138 H 0.02916 0.00862 0.11737 0.0
H139 H 0.99695 0.87015 0.21585 0.0
H140 H 0.044 0.02053 0.16057 0.0
H141 H 0.04341 0.86857 0.20773 0.0
O142 O 0.95622 0.95472 0.12474 0.0
H143 H 0.88363 0.86452 0.17992 0.0
H144 H 0.88936 0.90917 0.09769 0.0
H145 H 0.84785 0.90556 0.11915 0.0
H146 H 0.84479 0.88305 0.16054 0.0
H147 H 0.9248 0.86874 0.15791 0.0
H148 H 0.89255 0.83268 0.05423 0.0
H149 H 0.90051 0.8567 0.01436 0.0
O150 O 0.93331 0.92822 0.10017 0.0
C151 C 0.99541 0.90955 0.09629 0.0
C152 C 0.92277 0.88552 0.03293 0.0
C153 C 0.90378 0.8499 0.05456 0.0
N154 N 0.928 0.88062 0.07798 0.0
C155 C 0.9326 0.89387 0.05612 0.0
C156 C 0.91393 0.85881 0.07741 0.0
C157 C 0.90824 0.86339 0.0322 0.0
C158 C 0.99 0.89755 0.18618 0.0
N159 N 0.00038 0.91209 0.16733 0.0
C160 C 0.00528 0.8817 0.201 0.0
C161 C 0.03135 0.88079 0.19641 0.0
C162 C 0.04179 0.89569 0.17716 0.0
C163 C 0.02592 0.9113 0.1627 0.0
C164 C 0.02424 0.98976 0.17886 0.0
C165 C 0.00775 0.97637 0.13074 0.0
C166 C 0.00847 0.96875 0.17515 0.0
N167 N 0.00056 0.96221 0.15129 0.0
C168 C 0.0235 0.99751 0.13372 0.0
C169 C 0.03179 0.00419 0.15797 0.0
C170 C 0.94002 0.95045 0.10716 0.0
C171 C 0.88471 0.87431 0.16186 0.0
C172 C 0.88819 0.89941 0.11574 0.0
C173 C 0.86463 0.89738 0.12777 0.0
C174 C 0.86293 0.88474 0.15099 0.0
N175 N 0.90945 0.88904 0.12648 0.0
C176 C 0.90795 0.87668 0.14927 0.0
Co177 Co 0.9928 0.57921 0.14598 0.0
Co178 Co 0.03803 0.61993 0.12106 0.0
O179 O 0.01746 0.60668 0.14914 0.0
C180 C 0.02813 0.55791 0.18477 0.0
O181 O 0.04761 0.56522 0.17099 0.0
C182 C 0.00626 0.66312 0.13653 0.0
O183 O 0.98748 0.64678 0.13765 0.0
O184 O 0.00887 0.61926 0.09663 0.0
O185 O 0.97921 0.59416 0.1142 0.0
H186 H 0.07281 0.62211 0.03211 0.0
H187 H 0.99629 0.60841 0.19394 0.0
O188 O 0.00556 0.56319 0.17788 0.0
H189 H 0.90835 0.62051 0.16401 0.0
H190 H 0.92785 0.51702 0.17874 0.0
H191 H 0.97456 0.54729 0.10332 0.0
H192 H 0.93825 0.59362 0.13993 0.0
H193 H 0.9586 0.55218 0.1823 0.0
O194 O 0.02854 0.65556 0.13078 0.0
H195 H 0.04658 0.60545 0.06721 0.0
H196 H 0.0739 0.66343 0.11622 0.0
H197 H 0.94379 0.51224 0.09885 0.0
H198 H 0.96695 0.63525 0.21879 0.0
H199 H 0.9202 0.49687 0.13675 0.0
H200 H 0.92265 0.64152 0.20378 0.0
O201 O 0.01722 0.55836 0.12586 0.0
H202 H 0.08179 0.64012 0.20347 0.0
H203 H 0.09149 0.60141 0.11866 0.0
H204 H 0.12776 0.60133 0.14833 0.0
H205 H 0.12304 0.62084 0.19106 0.0
H206 H 0.04594 0.6396 0.17327 0.0
H207 H 0.10028 0.68086 0.08158 0.0
H208 H 0.09991 0.66008 0.03919 0.0
O209 O 0.04728 0.58473 0.11064 0.0
C210 C 0.98713 0.6086 0.0965 0.0
C211 C 0.07319 0.63128 0.05051 0.0
C212 C 0.08858 0.66428 0.07827 0.0
N213 N 0.05886 0.63335 0.09377 0.0
C214 C 0.05843 0.62189 0.07048 0.0
C215 C 0.07357 0.65436 0.09779 0.0
C216 C 0.08837 0.65261 0.05449 0.0
C217 C 0.97698 0.61089 0.18741 0.0
N218 N 0.96899 0.59947 0.16552 0.0
C219 C 0.96048 0.62618 0.20151 0.0
C220 C 0.93564 0.62971 0.19306 0.0
C221 C 0.92761 0.61795 0.17073 0.0
C222 C 0.94465 0.60282 0.15712 0.0
C223 C 0.93799 0.52356 0.16208 0.0
C224 C 0.96427 0.54079 0.11988 0.0
C225 C 0.95549 0.54341 0.164 0.0
N226 N 0.96829 0.55185 0.14302 0.0
C227 C 0.94691 0.5209 0.11724 0.0
C228 C 0.9337 0.51227 0.13851 0.0
C229 C 0.03743 0.56271 0.11312 0.0
C230 C 0.0841 0.63163 0.18488 0.0
C231 C 0.08927 0.60987 0.13725 0.0
C232 C 0.10989 0.60982 0.15395 0.0
C233 C 0.10723 0.62078 0.17792 0.0
N234 N 0.06667 0.62062 0.1442 0.0
C235 C 0.0639 0.63135 0.16768 0.0
Co236 Co 0.37283 0.97681 0.0698 0.0
Co237 Co 0.41153 0.9419 0.10957 0.0
O238 O 0.3786 0.95567 0.09952 0.0
C239 C 0.33614 0.93537 0.05693 0.0
O240 O 0.35479 0.91892 0.05498 0.0
C241 C 0.39543 0.97344 0.15254 0.0
O242 O 0.39121 0.99126 0.13562 0.0
O243 O 0.42901 0.9751 0.10399 0.0
O244 O 0.40483 0.99592 0.07572 0.0
H245 H 0.50529 0.92577 0.1016 0.0
H246 H 0.33262 0.97189 0.10896 0.0
O247 O 0.34036 0.95834 0.06323 0.0
H248 H 0.35238 0.06339 0.10506 0.0
H249 H 0.3187 0.02787 0.00964 0.0
H250 H 0.40494 0.99592 0.02755 0.0
H251 H 0.37438 0.03306 0.07692 0.0
H252 H 0.32703 0.0019 0.04777 0.0
O253 O 0.40407 0.9519 0.14557 0.0
H254 H 0.46378 0.94308 0.08842 0.0
H255 H 0.42886 0.91122 0.15386 0.0
H256 H 0.39748 0.022 0.98932 0.0
H257 H 0.31001 0.0016 0.13732 0.0
H258 H 0.3541 0.03817 0.98016 0.0
H259 H 0.31992 0.0477 0.13553 0.0
O260 O 0.39183 0.95257 0.04793 0.0
H261 H 0.34295 0.88431 0.14275 0.0
H262 H 0.42274 0.8887 0.09379 0.0
H263 H 0.40152 0.84733 0.09963 0.0
H264 H 0.36136 0.84495 0.12432 0.0
H265 H 0.3647 0.92532 0.13628 0.0
H266 H 0.47005 0.89372 0.16787 0.0
H267 H 0.50861 0.90089 0.14159 0.0
O268 O 0.41926 0.93214 0.07368 0.0
C269 C 0.42471 0.99392 0.08933 0.0
C270 C 0.48861 0.92244 0.11316 0.0
C271 C 0.46884 0.90448 0.15038 0.0
N272 N 0.44391 0.92796 0.12025 0.0
C273 C 0.46504 0.93212 0.10576 0.0
C274 C 0.44559 0.91447 0.14238 0.0
C275 C 0.49046 0.90851 0.13562 0.0
C276 C 0.33685 0.99196 0.1079 0.0
N277 N 0.35472 0.00074 0.09123 0.0
C278 C 0.32407 0.00867 0.12408 0.0
C279 C 0.32967 0.03453 0.12309 0.0
C280 C 0.34789 0.04335 0.10601 0.0
C281 C 0.36032 0.02607 0.09015 0.0
C282 C 0.33769 0.02099 0.01346 0.0
C283 C 0.38604 0.00302 0.02379 0.0
C284 C 0.34252 0.00624 0.035 0.0
N285 N 0.36649 0.99759 0.04 0.0
C286 C 0.38192 0.01772 0.00207 0.0
C287 C 0.35757 0.02676 0.99693 0.0
C288 C 0.41012 0.93708 0.05174 0.0
C289 C 0.36047 0.8851 0.13201 0.0
C290 C 0.40522 0.88783 0.10449 0.0
C291 C 0.39332 0.86434 0.10777 0.0
C292 C 0.3708 0.86302 0.12164 0.0
N293 N 0.39503 0.90938 0.11481 0.0
C294 C 0.37291 0.90825 0.12835 0.0
Co295 Co 0.63009 0.53828 0.07103 0.0
Co296 Co 0.59018 0.5699 0.11242 0.0
O297 O 0.62351 0.5574 0.10193 0.0
C298 C 0.66558 0.58136 0.05997 0.0
O299 O 0.64646 0.5973 0.05852 0.0
C300 C 0.60569 0.53491 0.15285 0.0
O301 O 0.61092 0.51893 0.13445 0.0
O302 O 0.57327 0.53711 0.10387 0.0
O303 O 0.59865 0.51786 0.07555 0.0
H304 H 0.49635 0.58542 0.10407 0.0
H305 H 0.66998 0.54198 0.11061 0.0
O306 O 0.66205 0.55811 0.06572 0.0
H307 H 0.65296 0.45034 0.10104 0.0
H308 H 0.68606 0.49285 0.0081 0.0
H309 H 0.59879 0.52094 0.02747 0.0
H310 H 0.63015 0.48169 0.07471 0.0
H311 H 0.67674 0.51599 0.04778 0.0
O312 O 0.597 0.55694 0.14767 0.0
H313 H 0.53832 0.56972 0.09032 0.0
H314 H 0.57164 0.59672 0.15867 0.0
H315 H 0.60724 0.49766 0.98768 0.0
H316 H 0.69338 0.51125 0.1372 0.0
H317 H 0.65115 0.48346 0.97777 0.0
H318 H 0.68485 0.46507 0.13255 0.0
O319 O 0.61051 0.56322 0.05062 0.0
H320 H 0.65716 0.62536 0.15182 0.0
H321 H 0.57866 0.62408 0.10069 0.0
H322 H 0.59916 0.66509 0.11042 0.0
H323 H 0.63866 0.66589 0.13622 0.0
H324 H 0.63615 0.58477 0.14148 0.0
H325 H 0.52998 0.61255 0.17326 0.0
H326 H 0.49199 0.60702 0.14582 0.0
O327 O 0.58297 0.58246 0.07722 0.0
C328 C 0.57831 0.519 0.08859 0.0
C329 C 0.51278 0.58804 0.11615 0.0
C330 C 0.53165 0.60323 0.155 0.0
N331 N 0.55743 0.58254 0.12356 0.0
C332 C 0.5366 0.57927 0.10843 0.0
C333 C 0.55517 0.5942 0.14666 0.0
C334 C 0.51034 0.60013 0.13959 0.0
C335 C 0.66635 0.5219 0.10831 0.0
N336 N 0.64882 0.51363 0.09105 0.0
C337 C 0.67958 0.5046 0.12349 0.0
C338 C 0.67476 0.47869 0.1209 0.0
C339 C 0.65686 0.47041 0.10323 0.0
C340 C 0.64397 0.48826 0.0884 0.0
C341 C 0.66684 0.49888 0.01223 0.0
C342 C 0.61792 0.51465 0.02339 0.0
C343 C 0.66145 0.51202 0.03465 0.0
N344 N 0.6372 0.5196 0.04005 0.0
C345 C 0.6226 0.50155 0.00079 0.0
C346 C 0.64724 0.49361 0.99523 0.0
C347 C 0.59229 0.57861 0.05511 0.0
C348 C 0.63992 0.62526 0.14062 0.0
C349 C 0.59591 0.62428 0.11184 0.0
C350 C 0.60739 0.64755 0.11734 0.0
C351 C 0.62954 0.64799 0.13183 0.0
N352 N 0.60614 0.60207 0.12062 0.0
C353 C 0.6279 0.60234 0.13477 0.0
Co354 Co 0.36919 0.99221 0.42221 0.0
Co355 Co 0.39404 0.03813 0.38222 0.0
O356 O 0.36595 0.01735 0.39514 0.0
C357 C 0.331 0.02784 0.44384 0.0
O358 O 0.34411 0.04714 0.43502 0.0
C359 C 0.37895 0.00677 0.3386 0.0
O360 O 0.37713 0.98791 0.3548 0.0
O361 O 0.41855 0.00902 0.38283 0.0
O362 O 0.40054 0.97852 0.40655 0.0
H363 H 0.48287 0.0731 0.38106 0.0
H364 H 0.32078 0.99675 0.39397 0.0
O365 O 0.3378 0.00513 0.43905 0.0
H366 H 0.34963 0.90874 0.37966 0.0
H367 H 0.33664 0.92652 0.48379 0.0
H368 H 0.41209 0.97288 0.45316 0.0
H369 H 0.3745 0.9379 0.40661 0.0
H370 H 0.33289 0.958 0.44925 0.0
O371 O 0.38476 0.02894 0.34643 0.0
H372 H 0.44771 0.04666 0.39722 0.0
H373 H 0.39913 0.07444 0.33906 0.0
H374 H 0.41675 0.94139 0.48757 0.0
H375 H 0.29514 0.96815 0.36708 0.0
H376 H 0.37884 0.91797 0.50312 0.0
H377 H 0.3096 0.92383 0.35971 0.0
O378 O 0.38979 0.01603 0.44324 0.0
H379 H 0.31167 0.08178 0.36164 0.0
H380 H 0.39606 0.09147 0.40115 0.0
H381 H 0.36625 0.12765 0.40125 0.0
H382 H 0.32373 0.12293 0.38135 0.0
H383 H 0.34201 0.04602 0.36215 0.0
H384 H 0.43383 0.10103 0.32213 0.0
H385 H 0.47603 0.10053 0.34324 0.0
O386 O 0.40407 0.04714 0.41757 0.0
C387 C 0.41845 0.98686 0.39264 0.0
C388 C 0.46454 0.07354 0.37174 0.0
C389 C 0.43703 0.08919 0.33864 0.0
N390 N 0.42135 0.05916 0.36921 0.0
C391 C 0.44454 0.05867 0.38085 0.0
C392 C 0.41747 0.07406 0.34828 0.0
C393 C 0.4607 0.08891 0.3505 0.0
C394 C 0.32707 0.97742 0.391 0.0
N395 N 0.34908 0.96898 0.40186 0.0
C396 C 0.31253 0.96134 0.3757 0.0
C397 C 0.32067 0.93649 0.37155 0.0
C398 C 0.34313 0.92801 0.38272 0.0
C399 C 0.35719 0.94463 0.39789 0.0
C400 C 0.35331 0.93658 0.47716 0.0
C401 C 0.39553 0.96266 0.45973 0.0
C402 C 0.35129 0.95448 0.45766 0.0
N403 N 0.37227 0.96717 0.44911 0.0
C404 C 0.39827 0.9449 0.47926 0.0
C405 C 0.37699 0.93179 0.48799 0.0
C406 C 0.402 0.03664 0.43933 0.0
C407 C 0.33017 0.08409 0.37031 0.0
C408 C 0.37756 0.08925 0.39252 0.0
C409 C 0.36078 0.10982 0.39258 0.0
C410 C 0.33693 0.10716 0.3814 0.0
N411 N 0.37081 0.06671 0.38154 0.0
C412 C 0.34745 0.06394 0.37058 0.0
Co413 Co 0.63575 0.48794 0.41796 0.0
Co414 Co 0.60428 0.44753 0.3768 0.0
O415 O 0.63472 0.46536 0.38865 0.0
C416 C 0.67385 0.44943 0.43456 0.0
O417 O 0.65767 0.43114 0.4295 0.0
C418 C 0.61743 0.48211 0.33516 0.0
O419 O 0.62096 0.49917 0.35295 0.0
O420 O 0.58193 0.47778 0.38212 0.0
O421 O 0.60339 0.50422 0.40769 0.0
H422 H 0.51352 0.41813 0.38069 0.0
H423 H 0.68032 0.48457 0.3838 0.0
O424 O 0.6684 0.47244 0.42942 0.0
H425 H 0.65383 0.57442 0.38111 0.0
H426 H 0.67845 0.54579 0.48111 0.0
H427 H 0.59773 0.5057 0.45557 0.0
H428 H 0.63102 0.54364 0.40811 0.0
H429 H 0.67659 0.51787 0.44352 0.0
O430 O 0.61119 0.45948 0.34119 0.0
H431 H 0.55159 0.4409 0.39579 0.0
H432 H 0.59317 0.41568 0.33137 0.0
H433 H 0.59869 0.53369 0.49315 0.0
H434 H 0.70385 0.51477 0.35671 0.0
H435 H 0.63927 0.55394 0.50615 0.0
H436 H 0.69055 0.56003 0.35518 0.0
O437 O 0.61651 0.46299 0.43887 0.0
H438 H 0.68131 0.40097 0.34492 0.0
H439 H 0.60033 0.39297 0.39141 0.0
H440 H 0.62744 0.35516 0.38562 0.0
H441 H 0.66822 0.35902 0.36216 0.0
H442 H 0.65371 0.43833 0.35134 0.0
H443 H 0.55549 0.3928 0.31545 0.0
H444 H 0.51533 0.39386 0.34024 0.0
O445 O 0.59665 0.43604 0.41218 0.0
C446 C 0.58395 0.49846 0.39457 0.0
C447 C 0.53093 0.41745 0.36976 0.0
C448 C 0.55448 0.40326 0.33313 0.0
N449 N 0.57462 0.42942 0.36459 0.0
C450 C 0.55257 0.43023 0.37826 0.0
C451 C 0.57573 0.41628 0.34221 0.0
C452 C 0.53196 0.40386 0.34705 0.0
C453 C 0.67458 0.50429 0.38339 0.0
N454 N 0.65437 0.51235 0.39756 0.0
C455 C 0.68791 0.52128 0.36795 0.0
C456 C 0.68042 0.54667 0.36708 0.0
C457 C 0.6598 0.55475 0.38161 0.0
C458 C 0.64691 0.53722 0.39681 0.0
C459 C 0.66064 0.53711 0.47561 0.0
C460 C 0.61543 0.51458 0.46101 0.0
C461 C 0.65948 0.52123 0.45438 0.0
N462 N 0.63704 0.5103 0.44725 0.0
C463 C 0.61587 0.53035 0.48235 0.0
C464 C 0.63865 0.54168 0.48965 0.0
C465 C 0.60209 0.44398 0.43446 0.0
C466 C 0.66355 0.39903 0.35511 0.0
C467 C 0.6181 0.39481 0.38127 0.0
C468 C 0.63334 0.37333 0.378 0.0
C469 C 0.65621 0.37551 0.36482 0.0
N470 N 0.6254 0.41779 0.37161 0.0
C471 C 0.64782 0.4201 0.35873 0.0
Co472 Co 0.06777 0.37258 0.97578 0.0
Co473 Co 0.10689 0.41266 0.94169 0.0
O474 O 0.0974 0.37929 0.95476 0.0
C475 C 0.05565 0.33688 0.93327 0.0
O476 O 0.05378 0.35596 0.91731 0.0
C477 C 0.15027 0.39678 0.97281 0.0
O478 O 0.13358 0.39172 0.99062 0.0
O479 O 0.10102 0.42932 0.97528 0.0
O480 O 0.07332 0.40415 0.99571 0.0
H481 H 0.09718 0.50659 0.92746 0.0
H482 H 0.10743 0.33301 0.96975 0.0
O483 O 0.0616 0.34054 0.95645 0.0
H484 H 0.10333 0.35027 0.06179 0.0
H485 H 0.00842 0.31631 0.02544 0.0
H486 H 0.02521 0.40364 0.99587 0.0
H487 H 0.07494 0.37276 0.03205 0.0
H488 H 0.04637 0.32583 -0.00037 0.0
O489 O 0.14299 0.40568 0.95149 0.0
H490 H 0.08479 0.46448 0.94393 0.0
H491 H 0.15084 0.43145 0.91136 0.0
H492 H 0.98715 0.39499 0.02182 0.0
H493 H 0.13603 0.30993 0.99885 0.0
H494 H 0.97856 0.35106 0.03678 0.0
H495 H 0.13414 0.31858 0.04522 0.0
O496 O 0.04556 0.3919 0.95206 0.0
H497 H 0.14121 0.34585 0.88268 0.0
H498 H 0.09096 0.42472 0.88869 0.0
H499 H 0.09715 0.40445 0.84688 0.0
H500 H 0.12249 0.36476 0.84369 0.0
H501 H 0.13437 0.36664 0.92414 0.0
H502 H 0.16406 0.47324 0.8947 0.0
H503 H 0.13708 0.51115 0.90265 0.0
O504 O 0.07095 0.41995 0.93206 0.0
C505 C 0.08657 0.42431 0.9941 0.0
C506 C 0.10905 0.49019 0.9238 0.0
C507 C 0.14661 0.47148 0.90545 0.0
N508 N 0.11697 0.44552 0.92843 0.0
C509 C 0.1021 0.4663 0.93301 0.0
C510 C 0.13905 0.44789 0.91497 0.0
C511 C 0.13145 0.49275 0.9099 0.0
C512 C 0.10633 0.3367 0.98993 0.0
N513 N 0.08946 0.35413 0.9992 0.0
C514 C 0.12264 0.32365 0.0063 0.0
C515 C 0.1216 0.32854 0.03231 0.0
C516 C 0.10433 0.34633 0.04162 0.0
C517 C 0.08834 0.35904 0.02468 0.0
C518 C 0.01199 0.33554 0.01908 0.0
C519 C 0.02169 0.3845 0.00245 0.0
C520 C 0.03342 0.34104 0.00442 0.0
N521 N 0.03811 0.36531 0.99643 0.0
C522 C 7e-05 0.37971 0.01708 0.0
C523 C 0.99524 0.35505 0.02544 0.0
C524 C 0.04914 0.4105 0.93687 0.0
C525 C 0.13019 0.36318 0.88382 0.0
C526 C 0.10193 0.4074 0.88746 0.0
C527 C 0.10542 0.39604 0.86373 0.0
C528 C 0.11966 0.37378 0.86195 0.0
N529 N 0.11241 0.39694 0.90881 0.0
C530 C 0.12632 0.37508 0.90723 0.0
Co531 Co 0.07104 0.62912 0.53506 0.0
Co532 Co 0.1124 0.59067 0.56845 0.0
O533 O 0.10162 0.62352 0.55495 0.0
C534 C 0.05999 0.66512 0.57757 0.0
O535 O 0.06098 0.64644 0.59407 0.0
C536 C 0.15292 0.60607 0.53361 0.0
O537 O 0.13458 0.61069 0.51739 0.0
O538 O 0.10457 0.57269 0.53599 0.0
O539 O 0.07661 0.5974 0.51541 0.0
H540 H 0.10517 0.49718 0.58654 0.0
H541 H 0.10969 0.66989 0.53881 0.0
O542 O 0.06459 0.66125 0.55412 0.0
H543 H 0.10254 0.65086 0.44732 0.0
H544 H 0.00811 0.68288 0.48705 0.0
H545 H 0.02853 0.5966 0.51744 0.0
H546 H 0.07596 0.62817 0.47855 0.0
H547 H 0.04739 0.67484 0.51129 0.0
O548 O 0.14769 0.59769 0.55576 0.0
H549 H 0.09105 0.53849 0.56944 0.0
H550 H 0.15851 0.57357 0.59637 0.0
H551 H 0.98915 0.60376 0.49307 0.0
H552 H 0.1365 0.69319 0.50821 0.0
H553 H 0.97873 0.64716 0.4777 0.0
H554 H 0.13308 0.68365 0.46211 0.0
O555 O 0.05047 0.60971 0.56003 0.0
H556 H 0.14989 0.65978 0.62262 0.0
H557 H 0.10001 0.58048 0.62275 0.0
H558 H 0.10873 0.60229 0.66332 0.0
H559 H 0.13389 0.64221 0.66341 0.0
H560 H 0.14056 0.63746 0.58247 0.0
H561 H 0.17347 0.53259 0.6136 0.0
H562 H 0.14666 0.49406 0.60881 0.0
O563 O 0.07714 0.58329 0.58067 0.0
C564 C 0.08973 0.57718 0.51738 0.0
C565 C 0.11697 0.51385 0.58884 0.0
C566 C 0.15533 0.53372 0.60399 0.0
N567 N 0.12383 0.55844 0.58214 0.0
C568 C 0.10904 0.53731 0.57927 0.0
C569 C 0.14678 0.55686 0.59417 0.0
C570 C 0.14027 0.51211 0.6013 0.0
C571 C 0.10793 0.66581 0.51876 0.0
N572 N 0.09121 0.64777 0.51047 0.0
C573 C 0.12323 0.67899 0.50153 0.0
C574 C 0.12132 0.6736 0.47567 0.0
C575 C 0.1042 0.6552 0.46736 0.0
C576 C 0.08923 0.64237 0.48513 0.0
C577 C 0.01247 0.66387 0.49358 0.0
C578 C 0.02422 0.61551 0.51065 0.0
C579 C 0.03467 0.65921 0.50736 0.0
N580 N 0.04036 0.63523 0.51557 0.0
C581 C 0.00185 0.61946 0.49693 0.0
C582 C 0.996 0.64382 0.48834 0.0
C583 C 0.05496 0.59203 0.57604 0.0
C584 C 0.13896 0.64237 0.62283 0.0
C585 C 0.1109 0.59789 0.62264 0.0
C586 C 0.11582 0.61012 0.64567 0.0
C587 C 0.12996 0.63251 0.64571 0.0
N588 N 0.11989 0.60762 0.60029 0.0
C589 C 0.13369 0.6296 0.60016 0.0
Co590 Co 0.92791 0.84706 0.52974 0.0
Co591 Co 0.88571 0.87892 0.56876 0.0
O592 O 0.8984 0.84819 0.55201 0.0
C593 C 0.94324 0.80994 0.56953 0.0
O594 O 0.93601 0.82596 0.58724 0.0
C595 C 0.84496 0.86325 0.53435 0.0
O596 O 0.8631 0.86008 0.51757 0.0
O597 O 0.89059 0.90029 0.53778 0.0
O598 O 0.9175 0.87894 0.51261 0.0
H599 H 0.8868 0.97081 0.59473 0.0
H600 H 0.89444 0.80204 0.53365 0.0
O601 O 0.93964 0.81502 0.54615 0.0
H602 H 0.89216 0.82683 0.44328 0.0
H603 H 0.99207 0.804 0.47325 0.0
H604 H 0.96552 0.88507 0.51203 0.0
H605 H 0.91851 0.85062 0.47385 0.0
H606 H 0.954 0.80604 0.50052 0.0
O607 O 0.85042 0.87053 0.55683 0.0
H608 H 0.90313 0.93234 0.57348 0.0
H609 H 0.83982 0.88991 0.59998 0.0
H610 H 0.00357 0.88394 0.48468 0.0
H611 H 0.86799 0.77756 0.50367 0.0
H612 H 0.01709 0.84318 0.46511 0.0
H613 H 0.86666 0.79 0.45815 0.0
O614 O 0.94814 0.86696 0.55458 0.0
H615 H 0.85567 0.80276 0.61794 0.0
H616 H 0.89985 0.88521 0.62321 0.0
H617 H 0.89456 0.85935 0.66196 0.0
H618 H 0.87227 0.81783 0.65948 0.0
H619 H 0.86157 0.82915 0.57962 0.0
H620 H 0.82268 0.92797 0.62135 0.0
H621 H 0.84629 0.96876 0.61887 0.0
O622 O 0.92087 0.88791 0.58015 0.0
C623 C 0.90363 0.89811 0.51749 0.0
C624 C 0.8764 0.95312 0.59604 0.0
C625 C 0.84039 0.92909 0.61095 0.0
N626 N 0.87258 0.90886 0.58573 0.0
C627 C 0.8856 0.93126 0.58413 0.0
C628 C 0.85016 0.90761 0.59878 0.0
C629 C 0.85365 0.95196 0.60955 0.0
C630 C 0.89414 0.8074 0.51381 0.0
N631 N 0.90806 0.82766 0.50549 0.0
C632 C 0.87905 0.79354 0.49695 0.0
C633 C 0.87829 0.80055 0.47142 0.0
C634 C 0.89258 0.82123 0.46307 0.0
C635 C 0.90742 0.83466 0.48048 0.0
C636 C 0.98636 0.82188 0.48165 0.0
C637 C 0.9712 0.86729 0.50346 0.0
C638 C 0.96486 0.82314 0.49717 0.0
N639 N 0.95748 0.84567 0.50777 0.0
C640 C 0.9928 0.86676 0.48804 0.0
C641 C 0.00038 0.84387 0.47708 0.0
C642 C 0.94332 0.88214 0.57289 0.0
C643 C 0.86536 0.82084 0.61928 0.0
C644 C 0.89022 0.86712 0.62196 0.0
C645 C 0.88722 0.85258 0.64398 0.0
C646 C 0.8747 0.8293 0.64257 0.0
N647 N 0.88092 0.85873 0.59921 0.0
C648 C 0.86868 0.8359 0.59766 0.0
Co649 Co 0.41808 0.63407 0.48746 0.0
Co650 Co 0.37627 0.60459 0.4462 0.0
O651 O 0.38892 0.63436 0.46466 0.0
C652 C 0.43554 0.67222 0.44942 0.0
O653 O 0.42906 0.65679 0.43093 0.0
C654 C 0.33497 0.61832 0.48094 0.0
O655 O 0.35282 0.62133 0.49805 0.0
O656 O 0.38089 0.58149 0.47603 0.0
O657 O 0.40651 0.6019 0.50325 0.0
H658 H 0.3778 0.51435 0.41498 0.0
H659 H 0.38552 0.67982 0.48443 0.0
O660 O 0.43084 0.66645 0.47245 0.0
H661 H 0.38143 0.65245 0.57399 0.0
H662 H 0.48223 0.67359 0.54644 0.0
H663 H 0.45417 0.59447 0.50485 0.0
H664 H 0.40779 0.62907 0.54308 0.0
H665 H 0.44481 0.6735 0.51825 0.0
O666 O 0.34087 0.61219 0.45824 0.0
H667 H 0.39385 0.55155 0.43853 0.0
H668 H 0.33065 0.59535 0.41406 0.0
H669 H 0.49154 0.59365 0.53311 0.0
H670 H 0.35909 0.70394 0.51476 0.0
H671 H 0.50581 0.63342 0.55411 0.0
H672 H 0.35686 0.6902 0.55987 0.0
O673 O 0.43847 0.61451 0.46232 0.0
H674 H 0.34663 0.68342 0.40116 0.0
H675 H 0.39085 0.60135 0.39157 0.0
H676 H 0.3859 0.62938 0.35431 0.0
H677 H 0.36359 0.67072 0.35897 0.0
H678 H 0.3522 0.65489 0.43797 0.0
H679 H 0.31378 0.55856 0.3904 0.0
H680 H 0.33747 0.51773 0.39069 0.0
O681 O 0.41142 0.59627 0.43459 0.0
C682 C 0.39298 0.58291 0.49696 0.0
C683 C 0.36735 0.53206 0.41463 0.0
C684 C 0.3314 0.55687 0.40086 0.0
N685 N 0.36332 0.57564 0.42747 0.0
C686 C 0.37639 0.55321 0.42786 0.0
C687 C 0.34101 0.57761 0.41433 0.0
C688 C 0.34471 0.53397 0.40103 0.0
C689 C 0.3848 0.67388 0.50408 0.0
N690 N 0.3982 0.6531 0.51199 0.0
C691 C 0.36974 0.68755 0.52114 0.0
C692 C 0.36847 0.67981 0.54645 0.0
C693 C 0.38223 0.65861 0.55438 0.0
C694 C 0.39707 0.6454 0.53678 0.0
C695 C 0.47618 0.65613 0.53742 0.0
C696 C 0.46017 0.61183 0.51405 0.0
C697 C 0.45505 0.65598 0.52138 0.0
N698 N 0.44723 0.63398 0.51002 0.0
C699 C 0.48139 0.61126 0.52997 0.0
C700 C 0.4894 0.63358 0.54173 0.0
C701 C 0.43378 0.60081 0.44284 0.0
C702 C 0.35633 0.66542 0.39888 0.0
C703 C 0.38121 0.61935 0.39376 0.0
C704 C 0.37841 0.63511 0.37259 0.0
C705 C 0.36587 0.6583 0.37522 0.0
N706 N 0.37171 0.62644 0.41688 0.0
C707 C 0.35946 0.64916 0.41963 0.0
Co708 Co 0.48738 0.5795 0.85169 0.0
Co709 Co 0.44402 0.62414 0.87306 0.0
O710 O 0.46465 0.60827 0.84633 0.0
C711 C 0.45179 0.55864 0.81305 0.0
O712 O 0.43268 0.56927 0.82506 0.0
C713 C 0.47986 0.66384 0.85721 0.0
O714 O 0.497 0.64577 0.85704 0.0
O715 O 0.47195 0.62224 0.89871 0.0
O716 O 0.50095 0.59516 0.88316 0.0
H717 H 0.4062 0.6328 0.96036 0.0
H718 H 0.4874 0.60604 0.80213 0.0
O719 O 0.47454 0.56246 0.82033 0.0
H720 H 0.57488 0.61429 0.83461 0.0
H721 H 0.549 0.51145 0.82459 0.0
H722 H 0.50188 0.54868 0.89654 0.0
H723 H 0.5425 0.59078 0.85902 0.0
H724 H 0.52091 0.54841 0.81809 0.0
O725 O 0.4568 0.65857 0.86252 0.0
H726 H 0.43241 0.61272 0.92708 0.0
H727 H 0.41141 0.67036 0.87462 0.0
H728 H 0.52995 0.51187 0.90394 0.0
H729 H 0.51924 0.62951 0.77692 0.0
H730 H 0.55373 0.49299 0.86779 0.0
H731 H 0.56331 0.63383 0.79321 0.0
O732 O 0.46093 0.56148 0.87173 0.0
H733 H 0.40537 0.64464 0.78818 0.0
H734 H 0.38926 0.60983 0.87372 0.0
H735 H 0.35432 0.61148 0.84252 0.0
H736 H 0.36228 0.62903 0.79941 0.0
H737 H 0.43981 0.64244 0.81992 0.0
H738 H 0.38513 0.69121 0.9074 0.0
H739 H 0.38233 0.67234 0.95059 0.0
O740 O 0.4316 0.59004 0.8844 0.0
C741 C 0.4931 0.61054 0.90007 0.0
C742 C 0.40718 0.64114 0.94158 0.0
C743 C 0.39539 0.67395 0.91187 0.0
N744 N 0.42321 0.64021 0.89888 0.0
C745 C 0.42191 0.6298 0.92263 0.0
C746 C 0.41033 0.66208 0.8934 0.0
C747 C 0.39382 0.66335 0.9361 0.0
C748 C 0.50661 0.60767 0.80921 0.0
N749 N 0.51311 0.59704 0.83199 0.0
C750 C 0.52452 0.62105 0.79491 0.0
C751 C 0.54924 0.62349 0.80408 0.0
C752 C 0.55574 0.61255 0.82732 0.0
C753 C 0.53731 0.59934 0.8411 0.0
C754 C 0.53877 0.51953 0.8405 0.0
C755 C 0.51229 0.54066 0.88075 0.0
C756 C 0.52279 0.54041 0.83692 0.0
N757 N 0.50988 0.55077 0.85695 0.0
C758 C 0.5281 0.51978 0.88504 0.0
C759 C 0.54142 0.50918 0.86474 0.0
C760 C 0.44032 0.56743 0.88308 0.0
C761 C 0.40166 0.63701 0.80692 0.0
C762 C 0.39288 0.61742 0.85497 0.0
C763 C 0.37301 0.61835 0.8374 0.0
C764 C 0.37749 0.62822 0.81323 0.0
N765 N 0.4165 0.62615 0.84866 0.0
C766 C 0.42105 0.6358 0.82499 0.0
Co767 Co 0.52811 0.92953 0.8519 0.0
Co768 Co 0.56833 0.88573 0.88 0.0
O769 O 0.55067 0.90019 0.85053 0.0
C770 C 0.56763 0.94657 0.81541 0.0
O771 O 0.58515 0.93521 0.82906 0.0
C772 C 0.53368 0.84565 0.86267 0.0
O773 O 0.51674 0.86379 0.86056 0.0
O774 O 0.53801 0.88935 0.90254 0.0
O775 O 0.5114 0.91624 0.88296 0.0
H776 H 0.59709 0.88169 0.97098 0.0
H777 H 0.53209 0.89994 0.80429 0.0
O778 O 0.5442 0.94434 0.82098 0.0
H779 H 0.44197 0.89453 0.82934 0.0
H780 H 0.4708 0.99652 0.81464 0.0
H781 H 0.51 0.96343 0.89309 0.0
H782 H 0.47238 0.91924 0.85502 0.0
H783 H 0.4987 0.95888 0.81329 0.0
O784 O 0.55619 0.85091 0.86999 0.0
H785 H 0.57468 0.90011 0.93415 0.0
H786 H 0.59986 0.83932 0.88743 0.0
H787 H 0.48205 0.001 0.89534 0.0
H788 H 0.50227 0.87519 0.77789 0.0
H789 H 0.46225 0.01779 0.85591 0.0
H790 H 0.45688 0.87229 0.79046 0.0
O791 O 0.55296 0.94845 0.873 0.0
H792 H 0.61505 0.86018 0.8007 0.0
H793 H 0.62297 0.89947 0.88541 0.0
H794 H 0.66086 0.89574 0.85805 0.0
H795 H 0.65703 0.87592 0.81539 0.0
H796 H 0.57761 0.86449 0.8286 0.0
H797 H 0.62237 0.82011 0.92381 0.0
H798 H 0.62115 0.84139 0.96593 0.0
O799 O 0.58011 0.92035 0.89059 0.0
C800 C 0.5172 0.90167 0.90136 0.0
C801 C 0.59785 0.87229 0.9527 0.0
C802 C 0.61201 0.83771 0.92623 0.0
N803 N 0.58619 0.87094 0.90863 0.0
C804 C 0.58528 0.88269 0.93176 0.0
C805 C 0.5992 0.84865 0.90572 0.0
C806 C 0.61132 0.84967 0.94986 0.0
C807 C 0.51231 0.89895 0.80972 0.0
N808 N 0.50396 0.91107 0.8311 0.0
C809 C 0.49554 0.88483 0.79477 0.0
C810 C 0.47008 0.88319 0.80184 0.0
C811 C 0.4617 0.89565 0.82367 0.0
C812 C 0.47902 0.90956 0.83817 0.0
C813 C 0.47927 0.98934 0.83197 0.0
C814 C 0.5013 0.97052 0.87588 0.0
C815 C 0.4951 0.96806 0.83131 0.0
N816 N 0.50579 0.95884 0.85313 0.0
C817 C 0.48556 0.99184 0.87726 0.0
C818 C 0.47447 0.00127 0.85513 0.0
C819 C 0.57218 0.94298 0.88672 0.0
C820 C 0.61697 0.86879 0.81928 0.0
C821 C 0.62114 0.89091 0.86683 0.0
C822 C 0.64267 0.88879 0.85145 0.0
C823 C 0.64051 0.87765 0.82752 0.0
N824 N 0.59814 0.88209 0.85864 0.0
C825 C 0.59586 0.8712 0.83519 0.0
Co826 Co 0.48197 0.4176 0.63368 0.0
Co827 Co 0.44432 0.37494 0.60083 0.0
O828 O 0.46101 0.38718 0.63174 0.0
C829 C 0.44326 0.43363 0.67221 0.0
O830 O 0.42521 0.43248 0.65505 0.0
C831 C 0.48002 0.33437 0.61432 0.0
O832 O 0.49668 0.3526 0.61763 0.0
O833 O 0.47493 0.38144 0.57935 0.0
O834 O 0.49882 0.40928 0.60098 0.0
H835 H 0.4173 0.37824 0.50927 0.0
H836 H 0.48053 0.38185 0.67716 0.0
O837 O 0.46589 0.42692 0.66685 0.0
H838 H 0.57037 0.38517 0.65074 0.0
H839 H 0.53582 0.48258 0.67875 0.0
H840 H 0.49787 0.45725 0.5969 0.0
H841 H 0.53809 0.41104 0.62871 0.0
H842 H 0.51006 0.44358 0.67554 0.0
O843 O 0.45727 0.33978 0.60795 0.0
H844 H 0.43848 0.39393 0.54802 0.0
H845 H 0.41435 0.32852 0.58869 0.0
H846 H 0.52369 0.49628 0.59922 0.0
H847 H 0.51223 0.35582 0.69989 0.0
H848 H 0.54286 0.50918 0.64037 0.0
H849 H 0.55749 0.35732 0.68663 0.0
O850 O 0.45602 0.43762 0.61489 0.0
H851 H 0.39692 0.34104 0.6765 0.0
H852 H 0.38941 0.38761 0.5955 0.0
H853 H 0.35112 0.38029 0.62155 0.0
H854 H 0.35474 0.35678 0.66234 0.0
H855 H 0.43475 0.34898 0.64995 0.0
H856 H 0.39307 0.31201 0.55032 0.0
H857 H 0.39439 0.33699 0.51027 0.0
O858 O 0.43176 0.40992 0.59304 0.0
C859 C 0.49449 0.39554 0.58158 0.0
C860 C 0.41651 0.36722 0.52663 0.0
C861 C 0.40294 0.33003 0.54966 0.0
N862 N 0.42743 0.36227 0.57064 0.0
C863 C 0.42839 0.37605 0.54865 0.0
C864 C 0.41505 0.33946 0.57131 0.0
C865 C 0.40369 0.34406 0.5272 0.0
C866 C 0.50024 0.38277 0.67144 0.0
N867 N 0.50747 0.398 0.65169 0.0
C868 C 0.51808 0.36792 0.68431 0.0
C869 C 0.54347 0.36875 0.67684 0.0
C870 C 0.5507 0.38435 0.65669 0.0
C871 C 0.53233 0.39891 0.64425 0.0
C872 C 0.52762 0.47713 0.66069 0.0
C873 C 0.5063 0.46264 0.61484 0.0
C874 C 0.51297 0.45509 0.65877 0.0
N875 N 0.50264 0.44803 0.636 0.0
C876 C 0.52083 0.4848 0.61605 0.0
C877 C 0.53156 0.49204 0.63915 0.0
C878 C 0.43797 0.43247 0.59949 0.0
C879 C 0.39509 0.35125 0.65874 0.0
C880 C 0.39114 0.37746 0.61328 0.0
C881 C 0.36939 0.37332 0.62791 0.0
C882 C 0.37144 0.36011 0.65079 0.0
N883 N 0.41425 0.36862 0.62116 0.0
C884 C 0.41642 0.35573 0.64359 0.0
Co885 Co 0.53579 0.07053 0.63177 0.0
Co886 Co 0.56849 0.1114 0.59214 0.0
O887 O 0.55572 0.10097 0.62541 0.0
C888 C 0.57872 0.05784 0.66692 0.0
O889 O 0.59452 0.05626 0.64769 0.0
C890 C 0.53415 0.15228 0.60776 0.0
O891 O 0.51807 0.13405 0.6132 0.0
O892 O 0.53564 0.10347 0.57499 0.0
O893 O 0.51538 0.07597 0.60048 0.0
H894 H 0.58442 0.10306 0.49832 0.0
H895 H 0.54084 0.10948 0.67214 0.0
O896 O 0.55562 0.06427 0.66357 0.0
H897 H 0.4489 0.10282 0.65547 0.0
H898 H 0.4888 0.00836 0.68731 0.0
H899 H 0.51703 0.02785 0.60007 0.0
H900 H 0.47935 0.07586 0.63218 0.0
H901 H 0.51307 0.04742 0.6783 0.0
O902 O 0.55609 0.14684 0.59899 0.0
H903 H 0.56822 0.08946 0.54017 0.0
H904 H 0.59618 0.15722 0.57389 0.0
H905 H 0.49261 0.9887 0.60821 0.0
H906 H 0.51103 0.13667 0.69603 0.0
H907 H 0.47833 0.97874 0.6521 0.0
H908 H 0.4647 0.13349 0.68767 0.0
O909 O 0.55999 0.04963 0.61175 0.0
H910 H 0.62432 0.1496 0.65951 0.0
H911 H 0.62247 0.09868 0.58086 0.0
H912 H 0.66354 0.10758 0.6016 0.0
H913 H 0.66464 0.13328 0.64118 0.0
H914 H 0.58365 0.14007 0.63827 0.0
H915 H 0.61251 0.17166 0.53235 0.0
H916 H 0.60674 0.14444 0.49422 0.0
O917 O 0.58038 0.07602 0.58485 0.0
C918 C 0.51704 0.0888 0.58004 0.0
C919 C 0.58713 0.11505 0.51481 0.0
C920 C 0.60286 0.15357 0.5339 0.0
N921 N 0.58148 0.12243 0.55947 0.0
C922 C 0.57808 0.10741 0.53857 0.0
C923 C 0.59354 0.14532 0.55735 0.0
C924 C 0.59963 0.13828 0.51252 0.0
C925 C 0.52068 0.10782 0.66859 0.0
N926 N 0.51184 0.09102 0.65089 0.0
C927 C 0.50391 0.12333 0.68209 0.0
C928 C 0.47792 0.12156 0.67737 0.0
C929 C 0.46904 0.10437 0.6593 0.0
C930 C 0.48638 0.08918 0.64613 0.0
C931 C 0.49486 0.01253 0.6681 0.0
C932 C 0.51073 0.02375 0.61919 0.0
C933 C 0.50865 0.03459 0.66288 0.0
N934 N 0.51627 0.04003 0.63864 0.0
C935 C 0.49698 0.00151 0.62369 0.0
C936 C 0.48899 0.99592 0.64833 0.0
C937 C 0.57564 0.0539 0.59369 0.0
C938 C 0.6241 0.13844 0.64224 0.0
C939 C 0.62279 0.10979 0.59814 0.0
C940 C 0.64611 0.11482 0.60976 0.0
C941 C 0.64671 0.12925 0.63196 0.0
N942 N 0.60072 0.11897 0.60828 0.0
C943 C 0.60114 0.13305 0.63008 0.0
Co944 Co 0.85161 0.48204 0.58276 0.0
Co945 Co 0.87698 0.44013 0.62663 0.0
O946 O 0.84881 0.45972 0.61214 0.0
C947 C 0.81184 0.44648 0.56352 0.0
O948 O 0.82635 0.42696 0.56908 0.0
C949 C 0.86184 0.47552 0.66685 0.0
O950 O 0.86142 0.49272 0.64883 0.0
O951 O 0.90136 0.46904 0.62357 0.0
O952 O 0.88431 0.49599 0.5953 0.0
H953 H 0.96596 0.40579 0.63131 0.0
H954 H 0.80471 0.48241 0.61382 0.0
O955 O 0.81875 0.46897 0.56915 0.0
H956 H 0.83729 0.57019 0.61722 0.0
H957 H 0.81809 0.54202 0.51609 0.0
H958 H 0.89349 0.49638 0.54792 0.0
H959 H 0.85959 0.53743 0.5922 0.0
H960 H 0.81511 0.51461 0.554 0.0
O961 O 0.86737 0.45253 0.66148 0.0
H962 H 0.9308 0.4306 0.61273 0.0
H963 H 0.88193 0.40772 0.67275 0.0
H964 H 0.89737 0.52379 0.51008 0.0
H965 H 0.78163 0.51464 0.63888 0.0
H966 H 0.85948 0.54683 0.49392 0.0
H967 H 0.79799 0.55886 0.64077 0.0
O968 O 0.87025 0.4554 0.56358 0.0
H969 H 0.79479 0.39807 0.65091 0.0
H970 H 0.87921 0.38543 0.61226 0.0
H971 H 0.8496 0.34923 0.61533 0.0
H972 H 0.80707 0.35543 0.63483 0.0
H973 H 0.82492 0.4338 0.64727 0.0
H974 H 0.91662 0.38282 0.69212 0.0
H975 H 0.95897 0.38168 0.67131 0.0
O976 O 0.88726 0.42816 0.59199 0.0
C977 C 0.90191 0.48944 0.61052 0.0
C978 C 0.94757 0.40605 0.64051 0.0
C979 C 0.91989 0.39319 0.67466 0.0
N980 N 0.90429 0.42038 0.6415 0.0
C981 C 0.92756 0.41999 0.63002 0.0
C982 C 0.90033 0.40735 0.66363 0.0
C983 C 0.94364 0.39255 0.66296 0.0
C984 C 0.81181 0.50168 0.61439 0.0
N985 N 0.83347 0.50805 0.60157 0.0
C986 C 0.79872 0.51981 0.62868 0.0
C987 C 0.80792 0.54462 0.62976 0.0
C988 C 0.82999 0.55098 0.61657 0.0
C989 C 0.84259 0.53234 0.6025 0.0
C990 C 0.83475 0.53212 0.52298 0.0
C991 C 0.87695 0.50648 0.5411 0.0
C992 C 0.83316 0.51652 0.5444 0.0
N993 N 0.85415 0.50405 0.55328 0.0
C994 C 0.87925 0.52191 0.51963 0.0
C995 C 0.85798 0.53481 0.51055 0.0
C996 C 0.88344 0.43583 0.56925 0.0
C997 C 0.81329 0.39512 0.64243 0.0
C998 C 0.8607 0.38829 0.62068 0.0
C999 C 0.84404 0.36771 0.62242 0.0
C1000 C 0.82018 0.3712 0.63338 0.0
N1001 N 0.85383 0.41166 0.62969 0.0
C1002 C 0.83045 0.41525 0.64039 0.0
Co1003 Co 0.14399 0.99804 0.58065 0.0
Co1004 Co 0.11464 0.04172 0.61997 0.0
O1005 O 0.14425 0.02249 0.60839 0.0
C1006 C 0.18329 0.03416 0.5616 0.0
O1007 O 0.16714 0.05304 0.56384 0.0
C1008 C 0.1297 0.011 0.66396 0.0
O1009 O 0.13131 0.99209 0.64781 0.0
O1010 O 0.09197 0.01132 0.61854 0.0
O1011 O 0.11119 0.98361 0.59244 0.0
H1012 H 0.02402 0.0717 0.61782 0.0
H1013 H 0.18905 0.00204 0.61415 0.0
O1014 O 0.17706 0.01171 0.56813 0.0
H1015 H 0.15971 0.91346 0.62265 0.0
H1016 H 0.18408 0.93506 0.52077 0.0
H1017 H 0.10486 0.9789 0.54493 0.0
H1018 H 0.13764 0.94326 0.59398 0.0
H1019 H 0.18362 0.96553 0.55638 0.0
O1020 O 0.12341 0.03306 0.65613 0.0
H1021 H 0.06116 0.04723 0.60302 0.0
H1022 H 0.10599 0.07767 0.6628 0.0
H1023 H 0.10443 0.94841 0.50933 0.0
H1024 H 0.21186 0.97282 0.64286 0.0
H1025 H 0.14426 0.92625 0.49705 0.0
H1026 H 0.19712 0.9282 0.64733 0.0
O1027 O 0.12525 0.02222 0.55837 0.0
H1028 H 0.19362 0.09005 0.64315 0.0
H1029 H 0.11023 0.09479 0.60071 0.0
H1030 H 0.13788 0.13263 0.60147 0.0
H1031 H 0.17988 0.13041 0.62286 0.0
H1032 H 0.16545 0.05262 0.64176 0.0
H1033 H 0.06927 0.10233 0.67839 0.0
H1034 H 0.02795 0.0995 0.65577 0.0
O1035 O 0.10534 0.05007 0.58408 0.0
C1036 C 0.0928 0.99019 0.60671 0.0
C1037 C 0.04194 0.07316 0.62779 0.0
C1038 C 0.06733 0.09033 0.6618 0.0
N1039 N 0.08575 0.0612 0.63191 0.0
C1040 C 0.06305 0.05941 0.61945 0.0
C1041 C 0.08803 0.07629 0.65293 0.0
C1042 C 0.04416 0.08873 0.6491 0.0
C1043 C 0.18267 0.98259 0.61583 0.0
N1044 N 0.16205 0.97435 0.60238 0.0
C1045 C 0.1956 0.96616 0.63218 0.0
C1046 C 0.1873 0.94114 0.6347 0.0
C1047 C 0.1663 0.93286 0.62088 0.0
C1048 C 0.15382 0.94984 0.60473 0.0
C1049 C 0.1666 0.94455 0.52598 0.0
C1050 C 0.12223 0.96921 0.5398 0.0
C1051 C 0.16623 0.96187 0.54609 0.0
N1052 N 0.14418 0.97382 0.55286 0.0
C1053 C 0.12189 0.95202 0.51958 0.0
C1054 C 0.14425 0.93961 0.51268 0.0
C1055 C 0.11054 0.04117 0.56209 0.0
C1056 C 0.17533 0.09128 0.63383 0.0
C1057 C 0.12852 0.09367 0.60999 0.0
C1058 C 0.14406 0.11516 0.6104 0.0
C1059 C 0.16762 0.1139 0.62242 0.0
N1060 N 0.13618 0.07158 0.6213 0.0
C1061 C 0.15927 0.07017 0.63306 0.0
Co1062 Co 0.84845 0.52738 0.93167 0.0
Co1063 Co 0.87693 0.56741 0.88797 0.0
O1064 O 0.84724 0.55022 0.9025 0.0
C1065 C 0.81351 0.56802 0.94934 0.0
O1066 O 0.82726 0.58507 0.93741 0.0
C1067 C 0.85911 0.53313 0.8477 0.0
O1068 O 0.85608 0.51626 0.86579 0.0
O1069 O 0.89897 0.53671 0.89158 0.0
O1070 O 0.87861 0.50977 0.91757 0.0
H1071 H 0.96833 0.59469 0.88391 0.0
H1072 H 0.80037 0.53324 0.90317 0.0
O1073 O 0.81844 0.54443 0.94727 0.0
H1074 H 0.82217 0.44234 0.89655 0.0
H1075 H 0.8106 0.47083 0.99899 0.0
H1076 H 0.88966 0.5074 0.96447 0.0
H1077 H 0.84947 0.47169 0.9208 0.0
H1078 H 0.80944 0.49917 0.96166 0.0
O1079 O 0.86685 0.55545 0.85313 0.0
H1080 H 0.93116 0.57286 0.90233 0.0
H1081 H 0.88485 0.59888 0.84158 0.0
H1082 H 0.8917 0.47897 0.0017 0.0
H1083 H 0.77237 0.50451 0.87889 0.0
H1084 H 0.85196 0.46048 0.0192 0.0
H1085 H 0.78328 0.45872 0.87541 0.0
O1086 O 0.87077 0.5513 0.95045 0.0
H1087 H 0.7984 0.61533 0.86244 0.0
H1088 H 0.88319 0.62197 0.90173 0.0
H1089 H 0.85641 0.66028 0.89802 0.0
H1090 H 0.8137 0.65709 0.87821 0.0
H1091 H 0.82573 0.57747 0.86672 0.0
H1092 H 0.92156 0.62083 0.82237 0.0
H1093 H 0.96364 0.61889 0.84364 0.0
O1094 O 0.88771 0.57901 0.92253 0.0
C1095 C 0.89721 0.51557 0.90328 0.0
C1096 C 0.95007 0.59577 0.87452 0.0
C1097 C 0.92383 0.6104 0.83996 0.0
N1098 N 0.90583 0.58483 0.87318 0.0
C1099 C 0.92894 0.58352 0.88491 0.0
C1100 C 0.90312 0.59791 0.8509 0.0
C1101 C 0.94743 0.60931 0.85191 0.0
C1102 C 0.8051 0.51329 0.9019 0.0
N1103 N 0.82646 0.50412 0.91345 0.0
C1104 C 0.78924 0.49714 0.88806 0.0
C1105 C 0.79539 0.47145 0.88609 0.0
C1106 C 0.81721 0.46225 0.89793 0.0
C1107 C 0.83263 0.47896 0.91159 0.0
C1108 C 0.82805 0.47871 0.9915 0.0
C1109 C 0.8723 0.49928 0.97187 0.0
C1110 C 0.82751 0.4948 0.97039 0.0
N1111 N 0.84949 0.50475 0.96076 0.0
C1112 C 0.87357 0.48326 0.993 0.0
C1113 C 0.85127 0.47291 0.00283 0.0
C1114 C 0.88444 0.57059 0.94507 0.0
C1115 C 0.817 0.61697 0.87105 0.0
C1116 C 0.86459 0.62043 0.89316 0.0
C1117 C 0.84954 0.64219 0.89106 0.0
C1118 C 0.82558 0.64039 0.87993 0.0
N1119 N 0.85606 0.59755 0.88433 0.0
C1120 C 0.83259 0.59562 0.87344 0.0
Co1121 Co 0.1477 0.98923 0.93472 0.0
Co1122 Co 0.11712 0.94722 0.8945 0.0
O1123 O 0.14751 0.96475 0.90689 0.0
C1124 C 0.18264 0.94891 0.95306 0.0
O1125 O 0.1681 0.93161 0.94254 0.0
C1126 C 0.13412 0.97804 0.85101 0.0
O1127 O 0.13769 0.99647 0.86741 0.0
O1128 O 0.09583 0.97862 0.89663 0.0
O1129 O 0.1174 0.00651 0.92058 0.0
H1130 H 0.02516 0.92162 0.89529 0.0
H1131 H 0.19467 0.98067 0.905 0.0
O1132 O 0.1779 0.97247 0.95025 0.0
H1133 H 0.1743 0.07143 0.89355 0.0
H1134 H 0.18901 0.04886 0.99709 0.0
H1135 H 0.10804 0.01216 0.96756 0.0
H1136 H 0.1473 0.04414 0.92044 0.0
H1137 H 0.18828 0.01825 0.9616 0.0
O1138 O 0.12639 0.95638 0.85862 0.0
H1139 H 0.06331 0.94385 0.91096 0.0
H1140 H 0.10711 0.91281 0.85068 0.0
H1141 H 0.10787 0.04287 0.00296 0.0
H1142 H 0.22235 0.00732 0.8781 0.0
H1143 H 0.14857 0.06144 0.01796 0.0
H1144 H 0.21216 0.05303 0.87219 0.0
O1145 O 0.12545 0.96707 0.95579 0.0
H1146 H 0.19394 0.89598 0.87021 0.0
H1147 H 0.1102 0.89387 0.91221 0.0
H1148 H 0.13613 0.85485 0.91049 0.0
H1149 H 0.17831 0.85575 0.88933 0.0
H1150 H 0.16747 0.93461 0.87256 0.0
H1151 H 0.06938 0.8904 0.83422 0.0
H1152 H 0.02806 0.89466 0.85665 0.0
O1153 O 0.10719 0.93828 0.93002 0.0
C1154 C 0.0983 0.00032 0.90714 0.0
C1155 C 0.04308 0.91954 0.8854 0.0
C1156 C 0.06789 0.90205 0.85111 0.0
N1157 N 0.08744 0.92945 0.88186 0.0
C1158 C 0.06476 0.93202 0.89423 0.0
C1159 C 0.08917 0.91482 0.86048 0.0
C1160 C 0.04471 0.90444 0.8637 0.0
C1161 C 0.19026 0.0006 0.90267 0.0
N1162 N 0.16947 0.01087 0.91434 0.0
C1163 C 0.20594 0.01557 0.88736 0.0
C1164 C 0.20019 0.04121 0.88402 0.0
C1165 C 0.17895 0.05154 0.89599 0.0
C1166 C 0.16369 0.03599 0.91114 0.0
C1167 C 0.17114 0.04095 0.99069 0.0
C1168 C 0.12581 0.02029 0.97386 0.0
C1169 C 0.17062 0.02358 0.97063 0.0
N1170 N 0.14812 0.01359 0.96238 0.0
C1171 C 0.1256 0.03761 0.99397 0.0
C1172 C 0.14845 0.048 0.00239 0.0
C1173 C 0.11108 0.94794 0.95192 0.0
C1174 C 0.17557 0.89533 0.87943 0.0
C1175 C 0.12856 0.89442 0.90304 0.0
C1176 C 0.14313 0.87226 0.90207 0.0
C1177 C 0.16679 0.87278 0.89018 0.0
N1178 N 0.13728 0.91645 0.89238 0.0
C1179 C 0.16046 0.91712 0.88072 0.0
Co1180 Co 0.58103 0.85116 0.47897 0.0
Co1181 Co 0.62509 0.87807 0.43831 0.0
O1182 O 0.61092 0.84934 0.45728 0.0
C1183 C 0.56317 0.81115 0.44285 0.0
O1184 O 0.56757 0.82628 0.4235 0.0
C1185 C 0.66492 0.86353 0.4743 0.0
O1186 O 0.6466 0.86257 0.49116 0.0
O1187 O 0.62099 0.90195 0.46749 0.0
O1188 O 0.59229 0.88413 0.49345 0.0
H1189 H 0.62848 0.96763 0.4053 0.0
H1190 H 0.6134 0.80514 0.47974 0.0
O1191 O 0.56877 0.81797 0.46538 0.0
H1192 H 0.61397 0.83724 0.56779 0.0
H1193 H 0.51408 0.81512 0.53714 0.0
H1194 H 0.54472 0.89189 0.49297 0.0
H1195 H 0.58906 0.85905 0.53461 0.0
H1196 H 0.5526 0.81349 0.5105 0.0
O1197 O 0.65986 0.86906 0.45123 0.0
H1198 H 0.61025 0.93174 0.42933 0.0
H1199 H 0.67161 0.88444 0.40675 0.0
H1200 H 0.50624 0.89442 0.51961 0.0
H1201 H 0.63838 0.78256 0.51238 0.0
H1202 H 0.49068 0.85584 0.54191 0.0
H1203 H 0.63884 0.79868 0.55674 0.0
O1204 O 0.56191 0.86947 0.45206 0.0
H1205 H 0.65195 0.79699 0.39562 0.0
H1206 H 0.61164 0.88071 0.38337 0.0
H1207 H 0.61602 0.85165 0.34684 0.0
H1208 H 0.63636 0.80948 0.35284 0.0
H1209 H 0.647 0.82656 0.43166 0.0
H1210 H 0.69063 0.91988 0.38263 0.0
H1211 H 0.66896 0.96181 0.38173 0.0
O1212 O 0.59049 0.88775 0.42584 0.0
C1213 C 0.60737 0.90206 0.48751 0.0
C1214 C 0.63804 0.94942 0.40545 0.0
C1215 C 0.67295 0.92263 0.39276 0.0
N1216 N 0.63971 0.90596 0.41918 0.0
C1217 C 0.62776 0.92901 0.41894 0.0
C1218 C 0.66211 0.90265 0.40647 0.0
C1219 C 0.66077 0.94615 0.39226 0.0
C1220 C 0.61334 0.81213 0.49906 0.0
N1221 N 0.59978 0.83337 0.50528 0.0
C1222 C 0.62759 0.79932 0.51743 0.0
C1223 C 0.62787 0.8084 0.54231 0.0
C1224 C 0.61393 0.83004 0.54852 0.0
C1225 C 0.59993 0.84237 0.52964 0.0
C1226 C 0.52071 0.83208 0.52756 0.0
C1227 C 0.53817 0.87506 0.50276 0.0
C1228 C 0.54248 0.83126 0.51241 0.0
N1229 N 0.55102 0.85263 0.50035 0.0
C1230 C 0.51632 0.87659 0.51775 0.0
C1231 C 0.50759 0.85493 0.53024 0.0
C1232 C 0.5677 0.88317 0.43287 0.0
C1233 C 0.64311 0.81534 0.39275 0.0
C1234 C 0.62042 0.86234 0.38614 0.0
C1235 C 0.6229 0.846 0.36538 0.0
C1236 C 0.63433 0.82235 0.36876 0.0
N1237 N 0.62917 0.85536 0.40958 0.0
C1238 C 0.64033 0.83219 0.41307 0.0
Co1239 Co 0.58041 0.14383 0.99292 0.0
Co1240 Co 0.62055 0.12006 0.03927 0.0
O1241 O 0.60736 0.14766 0.01802 0.0
C1242 C 0.55867 0.18289 0.02751 0.0
O1243 O 0.56677 0.16977 0.04713 0.0
C1244 C 0.66406 0.13596 0.00819 0.0
O1245 O 0.64815 0.13633 0.98902 0.0
O1246 O 0.6208 0.09525 0.01043 0.0
O1247 O 0.59593 0.11199 0.9801 0.0
H1248 H 0.62344 0.03161 0.07522 0.0
H1249 H 0.60891 0.1922 0.99616 0.0
O1250 O 0.56375 0.17568 0.00497 0.0
H1251 H 0.62312 0.16096 0.90895 0.0
H1252 H 0.51908 0.17492 0.92633 0.0
H1253 H 0.54929 0.10057 0.97475 0.0
H1254 H 0.59599 0.13704 0.93875 0.0
H1255 H 0.5536 0.17934 0.95771 0.0
O1256 O 0.65619 0.13025 0.03039 0.0
H1257 H 0.60674 0.06612 0.04823 0.0
H1258 H 0.66337 0.11637 0.07609 0.0
H1259 H 0.51489 0.09524 0.94338 0.0
H1260 H 0.63599 0.2169 0.96691 0.0
H1261 H 0.49955 0.1326 0.91893 0.0
H1262 H 0.64332 0.20123 0.92298 0.0
O1263 O 0.55935 0.12394 0.01729 0.0
H1264 H 0.63856 0.20335 0.08231 0.0
H1265 H 0.60102 0.1181 0.09241 0.0
H1266 H 0.59972 0.14825 0.12828 0.0
H1267 H 0.61863 0.19121 0.12335 0.0
H1268 H 0.63925 0.17267 0.04687 0.0
H1269 H 0.68082 0.08235 0.10324 0.0
H1270 H 0.66075 0.03964 0.10298 0.0
O1271 O 0.5853 0.10925 0.04798 0.0
C1272 C 0.61045 0.0946 0.98853 0.0
C1273 C 0.6323 0.05017 0.07556 0.0
C1274 C 0.66452 0.07863 0.09126 0.0
N1275 N 0.63395 0.09327 0.06074 0.0
C1276 C 0.62288 0.0698 0.06038 0.0
C1277 C 0.6546 0.0978 0.07582 0.0
C1278 C 0.65325 0.05467 0.09111 0.0
C1279 C 0.61185 0.18539 0.97701 0.0
N1280 N 0.60087 0.16322 0.96916 0.0
C1281 C 0.62727 0.1994 0.96056 0.0
C1282 C 0.6314 0.19058 0.93593 0.0
C1283 C 0.62009 0.16797 0.92805 0.0
C1284 C 0.60482 0.15446 0.94503 0.0
C1285 C 0.52561 0.15849 0.93685 0.0
C1286 C 0.54281 0.11689 0.96408 0.0
C1287 C 0.5451 0.16089 0.95469 0.0
N1288 N 0.55354 0.1402 0.96795 0.0
C1289 C 0.52328 0.11376 0.94639 0.0
C1290 C 0.51467 0.13474 0.9327 0.0
C1291 C 0.56344 0.11151 0.03774 0.0
C1292 C 0.63031 0.18466 0.08471 0.0
C1293 C 0.60922 0.13678 0.09011 0.0
C1294 C 0.60848 0.15375 0.1105 0.0
C1295 C 0.6191 0.17785 0.10772 0.0
N1296 N 0.62032 0.14359 0.06762 0.0
C1297 C 0.63074 0.16719 0.06474 0.0
Co1298 Co 0.41961 0.36904 0.99567 0.0
Co1299 Co 0.38037 0.3981 0.03969 0.0
O1300 O 0.39187 0.36859 0.02021 0.0
C1301 C 0.43952 0.33005 0.03182 0.0
O1302 O 0.43695 0.34605 0.05078 0.0
C1303 C 0.33621 0.38411 0.00873 0.0
O1304 O 0.35226 0.38177 0.9898 0.0
O1305 O 0.38228 0.42123 0.00953 0.0
O1306 O 0.40722 0.40148 0.98109 0.0
H1307 H 0.38344 0.48829 0.07095 0.0
H1308 H 0.38664 0.32364 0.00025 0.0
O1309 O 0.43272 0.33623 0.00943 0.0
H1310 H 0.37788 0.35179 0.91127 0.0
H1311 H 0.47982 0.32956 0.93259 0.0
H1312 H 0.4545 0.40865 0.976 0.0
H1313 H 0.40625 0.37456 0.9408 0.0
H1314 H 0.44443 0.32958 0.96331 0.0
O1315 O 0.34426 0.39002 0.0308 0.0
H1316 H 0.39794 0.45131 0.04606 0.0
H1317 H 0.3374 0.40681 0.07551 0.0
H1318 H 0.48985 0.40952 0.94523 0.0
H1319 H 0.35826 0.30012 0.9713 0.0
H1320 H 0.50272 0.36976 0.92329 0.0
H1321 H 0.35367 0.31425 0.92649 0.0
O1322 O 0.4418 0.38833 0.0196 0.0
H1323 H 0.35591 0.31874 0.08684 0.0
H1324 H 0.39923 0.40159 0.09299 0.0
H1325 H 0.39785 0.37343 0.13046 0.0
H1326 H 0.37601 0.3317 0.12753 0.0
H1327 H 0.35793 0.34741 0.04978 0.0
H1328 H 0.32211 0.44337 0.10056 0.0
H1329 H 0.34526 0.48445 0.09844 0.0
O1330 O 0.41609 0.40685 0.04837 0.0
C1331 C 0.39348 0.42012 0.98805 0.0
C1332 C 0.37323 0.47047 0.07209 0.0
C1333 C 0.33879 0.44527 0.08868 0.0
N1334 N 0.36863 0.42689 0.05947 0.0
C1335 C 0.38139 0.44945 0.05809 0.0
C1336 C 0.3475 0.42466 0.07441 0.0
C1337 C 0.3518 0.46831 0.08749 0.0
C1338 C 0.38488 0.32978 0.98072 0.0
N1339 N 0.39807 0.35046 0.97222 0.0
C1340 C 0.36872 0.31644 0.96444 0.0
C1341 C 0.36613 0.32439 0.93931 0.0
C1342 C 0.37969 0.34547 0.93077 0.0
C1343 C 0.39565 0.35836 0.94759 0.0
C1344 C 0.47436 0.34701 0.94199 0.0
C1345 C 0.45989 0.3913 0.96641 0.0
C1346 C 0.45437 0.34713 0.95946 0.0
N1347 N 0.44728 0.36914 0.9713 0.0
C1348 C 0.47997 0.3919 0.94906 0.0
C1349 C 0.4872 0.36958 0.93678 0.0
C1350 C 0.43801 0.40241 0.03903 0.0
C1351 C 0.36542 0.33691 0.08837 0.0
C1352 C 0.38976 0.38342 0.09155 0.0
C1353 C 0.38899 0.36759 0.11284 0.0
C1354 C 0.37673 0.34418 0.11119 0.0
N1355 N 0.37855 0.37619 0.06927 0.0
C1356 C 0.36655 0.35325 0.06748 0.0
Co1357 Co 0.93422 0.14851 0.98496 0.0
Co1358 Co 0.89388 0.1175 0.94336 0.0
O1359 O 0.90634 0.14807 0.96056 0.0
C1360 C 0.9523 0.18343 0.94452 0.0
O1361 O 0.94193 0.16873 0.92726 0.0
C1362 C 0.85044 0.13538 0.97361 0.0
O1363 O 0.86666 0.13866 0.99225 0.0
O1364 O 0.89569 0.09664 0.9751 0.0
O1365 O 0.92042 0.1181 0.00238 0.0
H1366 H 0.89399 0.02512 0.91921 0.0
H1367 H 0.90407 0.19521 0.9765 0.0
O1368 O 0.94943 0.17882 0.96811 0.0
H1369 H 0.89333 0.17493 0.06739 0.0
H1370 H 0.99657 0.19034 0.04424 0.0
H1371 H 0.96747 0.10912 0.00773 0.0
H1372 H 0.92029 0.1481 0.03998 0.0
H1373 H 0.96093 0.18933 0.01383 0.0
O1374 O 0.85811 0.12724 0.95212 0.0
H1375 H 0.90985 0.06349 0.94095 0.0
H1376 H 0.85023 0.10734 0.90879 0.0
H1377 H 0.00303 0.10924 0.03824 0.0
H1378 H 0.87709 0.22271 0.00325 0.0
H1379 H 0.01781 0.15007 0.05671 0.0
H1380 H 0.87154 0.21256 0.04903 0.0
O1381 O 0.9553 0.12649 0.96266 0.0
H1382 H 0.87058 0.1938 0.89084 0.0
H1383 H 0.91179 0.10963 0.89019 0.0
H1384 H 0.91051 0.135 0.85078 0.0
H1385 H 0.88975 0.17739 0.85094 0.0
H1386 H 0.87248 0.16788 0.92988 0.0
H1387 H 0.83359 0.06941 0.88685 0.0
H1388 H 0.85559 0.02795 0.89193 0.0
O1389 O 0.92933 0.10718 0.93472 0.0
C1390 C 0.9066 0.09914 0.9966 0.0
C1391 C 0.8843 0.0431 0.91677 0.0
C1392 C 0.85037 0.06795 0.89864 0.0
N1393 N 0.88111 0.08766 0.92595 0.0
C1394 C 0.89324 0.0649 0.92897 0.0
C1395 C 0.85985 0.08935 0.91115 0.0
C1396 C 0.86273 0.04469 0.90149 0.0
C1397 C 0.90189 0.19082 0.99645 0.0
N1398 N 0.91379 0.17015 0.00669 0.0
C1399 C 0.88653 0.20639 0.01148 0.0
C1400 C 0.8834 0.20067 0.03716 0.0
C1401 C 0.89561 0.17955 0.04747 0.0
C1402 C 0.9108 0.16439 0.03185 0.0
C1403 C 0.99027 0.17242 0.03637 0.0
C1404 C 0.97368 0.12694 0.01582 0.0
C1405 C 0.97012 0.17174 0.01912 0.0
N1406 N 0.96199 0.14916 0.00919 0.0
C1407 C 0.99387 0.1269 0.03303 0.0
C1408 C 0.00217 0.14982 0.04336 0.0
C1409 C 0.95131 0.11168 0.94389 0.0
C1410 C 0.87962 0.17532 0.89052 0.0
C1411 C 0.90279 0.12809 0.89043 0.0
C1412 C 0.90207 0.14234 0.86804 0.0
C1413 C 0.89041 0.16612 0.86814 0.0
N1414 N 0.89211 0.13723 0.91228 0.0
C1415 C 0.88066 0.16053 0.91253 0.0
H1416 H 0.11793 0.02998 0.51172 0.0
H1417 H 0.99663 0.10844 0.46572 0.0
H1418 H 0.07374 0.07824 0.56133 0.0
H1419 H 0.04307 0.06225 0.41618 0.0
H1420 H 0.02727 0.10156 0.49991 0.0
H1421 H 0.09339 0.04543 0.47564 0.0
C1422 C 0.10324 0.044 0.51505 0.0
C1423 C 0.09775 0.05257 0.53973 0.0
C1424 C 0.03088 0.09318 0.48146 0.0
C1425 C 0.06936 0.07025 0.49834 0.0
C1426 C 0.01341 0.09715 0.46187 0.0
C1427 C 0.01706 0.08568 0.43804 0.0
C1428 C 0.05213 0.07757 0.47724 0.0
C1429 C 0.03924 0.0713 0.43426 0.0
C1430 C 0.0892 0.05283 0.49438 0.0
C1431 C 0.07856 0.07092 0.54272 0.0
N1432 N 0.05576 0.06746 0.4537 0.0
N1433 N 0.06489 0.07893 0.52232 0.0
H1434 H -0.00048 0.3769 0.47048 0.0
H1435 H 0.86894 0.43508 0.51961 0.0
H1436 H 0.93795 0.40131 0.42208 0.0
H1437 H 0.92594 0.40542 0.57059 0.0
H1438 H 0.89224 0.4174 0.48386 0.0
H1439 H 0.97145 0.38166 0.50746 0.0
C1440 C 0.98001 0.38277 0.46755 0.0
C1441 C 0.9712 0.38912 0.44317 0.0
C1442 C 0.89962 0.41448 0.50285 0.0
C1443 C 0.93917 0.39472 0.48525 0.0
C1444 C 0.8863 0.42464 0.5233 0.0
C1445 C 0.89572 0.42207 0.54808 0.0
C1446 C 0.92282 0.40196 0.50706 0.0
C1447 C 0.91811 0.40799 0.55175 0.0
C1448 C 0.96404 0.38556 0.48867 0.0
C1449 C 0.94576 0.39662 0.4405 0.0
N1450 N 0.93116 0.3988 0.53138 0.0
N1451 N 0.93079 0.39945 0.46125 0.0
H1452 H 0.04211 0.93228 0.09912 0.0
H1453 H 0.0737 0.91142 0.95204 0.0
H1454 H 0.99485 0.8881 0.0486 0.0
H1455 H 0.11655 0.96028 0.0022 0.0
H1456 H 0.04806 0.8977 0.98828 0.0
H1457 H 0.07291 0.93744 0.06504 0.0
C1458 C 0.03828 0.92341 0.08095 0.0
C1459 C 0.01564 0.90995 0.0767 0.0
C1460 C 0.06323 0.91124 0.99135 0.0
C1461 C 0.05094 0.91602 0.03738 0.0
C1462 C 0.07793 0.91908 0.97068 0.0
C1463 C 0.09717 0.93729 0.97397 0.0
C1464 C 0.06782 0.92164 0.0155 0.0
C1465 C 0.10178 0.94642 0.99862 0.0
C1466 C 0.05592 0.92642 0.06144 0.0
C1467 C 0.01194 0.89876 0.05274 0.0
N1468 N 0.08711 0.93863 0.01836 0.0
N1469 N 0.02929 0.90227 0.0339 0.0
H1470 H 0.93571 0.60388 0.09523 0.0
H1471 H 0.92762 0.60011 0.94371 0.0
H1472 H 0.0001 0.62006 0.04709 0.0
H1473 H 0.87115 0.56991 0.99502 0.0
H1474 H 0.95141 0.61632 0.98045 0.0
H1475 H 0.90885 0.60113 0.05783 0.0
C1476 C 0.94417 0.60715 0.07676 0.0
C1477 C 0.97029 0.61174 0.07426 0.0
C1478 C 0.93366 0.6064 0.98355 0.0
C1479 C 0.93957 0.60826 0.03113 0.0
C1480 C 0.92005 0.5972 0.96264 0.0
C1481 C 0.89759 0.58328 0.96636 0.0
C1482 C 0.92449 0.60188 0.00822 0.0
C1483 C 0.8886 0.58015 0.99126 0.0
C1484 C 0.92879 0.60554 0.05537 0.0
C1485 C 0.98007 0.61631 0.04984 0.0
N1486 N 0.90213 0.58923 0.01118 0.0
N1487 N 0.96475 0.61403 0.0291 0.0
H1488 H 0.47284 0.9955 0.10986 0.0
H1489 H 0.51304 0.11474 0.02524 0.0
H1490 H 0.42109 0.03835 0.06262 0.0
H1491 H 0.56448 0.07693 0.07687 0.0
H1492 H 0.47838 0.0889 0.04167 0.0
H1493 H 0.50589 0.02701 0.10104 0.0
C1494 C 0.4683 0.01165 0.09791 0.0
C1495 C 0.44417 0.01408 0.08678 0.0
C1496 C 0.4972 0.08638 0.04958 0.0
C1497 C 0.48194 0.05008 0.0765 0.0
C1498 C 0.51705 0.10115 0.04018 0.0
C1499 C 0.54182 0.09785 0.04946 0.0
C1500 C 0.50211 0.06795 0.06828 0.0
C1501 C 0.54574 0.08004 0.069 0.0
C1502 C 0.4872 0.02961 0.09286 0.0
C1503 C 0.43942 0.03545 0.07148 0.0
N1504 N 0.52614 0.06556 0.07756 0.0
N1505 N 0.45817 0.05244 0.06664 0.0
H1506 H 0.58236 0.4766 0.05867 0.0
H1507 H 0.43822 0.43453 0.08008 0.0
H1508 H 0.53091 0.51469 0.11013 0.0
H1509 H 0.48799 0.40088 0.02405 0.0
H1510 H 0.4736 0.4601 0.09544 0.0
H1511 H 0.54966 0.44511 0.04998 0.0
C1512 C 0.56427 0.47828 0.06834 0.0
C1513 C 0.55935 0.49854 0.08502 0.0
C1514 C 0.47683 0.44697 0.07994 0.0
C1515 C 0.5217 0.46241 0.07499 0.0
C1516 C 0.45663 0.43227 0.07114 0.0
C1517 C 0.46001 0.41565 0.0505 0.0
C1518 C 0.50061 0.4451 0.06804 0.0
C1519 C 0.48439 0.41352 0.03988 0.0
C1520 C 0.54557 0.46023 0.06332 0.0
C1521 C 0.53554 0.49951 0.09704 0.0
N1522 N 0.50369 0.42824 0.04863 0.0
N1523 N 0.51754 0.48181 0.09163 0.0
H1524 H 0.51861 0.8672 0.43009 0.0
H1525 H 0.46754 -6e-05 0.38012 0.0
H1526 H 0.56864 0.92677 0.40411 0.0
H1527 H 0.4201 0.93543 0.3978 0.0
H1528 H 0.505 0.9723 0.38286 0.0
H1529 H 0.48264 0.89037 0.41266 0.0
C1530 C 0.52204 0.88509 0.42047 0.0
C1531 C 0.54659 0.89528 0.41893 0.0
C1532 C 0.48632 0.96415 0.38568 0.0
C1533 C 0.50534 0.92222 0.39916 0.0
C1534 C 0.46494 0.9799 0.38403 0.0
C1535 C 0.4407 0.97007 0.38923 0.0
C1536 C 0.4833 0.93851 0.39257 0.0
C1537 C 0.43843 0.94397 0.39417 0.0
C1538 C 0.50148 0.89833 0.41045 0.0
C1539 C 0.54997 0.91833 0.40589 0.0
N1540 N 0.45944 0.92922 0.39603 0.0
N1541 N 0.52949 0.93129 0.39689 0.0
H1542 H 0.43319 0.56202 0.4078 0.0
H1543 H 0.58409 0.54755 0.41122 0.0
H1544 H 0.48416 0.61201 0.44826 0.0
H1545 H 0.5345 0.49046 0.37937 0.0
H1546 H 0.5477 0.5751 0.41767 0.0
H1547 H 0.46999 0.53936 0.39055 0.0
C1548 C 0.45207 0.56844 0.41283 0.0
C1549 C 0.45557 0.58874 0.42982 0.0
C1550 C 0.54473 0.55665 0.40906 0.0
C1551 C 0.49764 0.56295 0.4101 0.0
C1552 C 0.56557 0.54085 0.40531 0.0
C1553 C 0.56236 0.51645 0.39504 0.0
C1554 C 0.52034 0.54801 0.40271 0.0
C1555 C 0.53785 0.50905 0.3875 0.0
C1556 C 0.47305 0.55545 0.403 0.0
C1557 C 0.48049 0.59627 0.43554 0.0
N1558 N 0.51768 0.52467 0.39179 0.0
N1559 N 0.50051 0.58328 0.42584 0.0
H1560 H 0.06027 0.41916 0.03865 0.0
H1561 H 0.07746 0.56424 0.07963 0.0
H1562 H 0.10649 0.47264 0.99686 0.0
H1563 H 0.02426 0.51231 0.1145 0.0
H1564 H 0.09328 0.52952 0.05323 0.0
H1565 H 0.05214 0.45161 0.07046 0.0
C1566 C 0.06894 0.43766 0.03622 0.0
C1567 C 0.08393 0.44319 0.01481 0.0
C1568 C 0.0783 0.52571 0.06682 0.0
C1569 C 0.07446 0.48064 0.05135 0.0
C1570 C 0.06926 0.54551 0.08198 0.0
C1571 C 0.04925 0.54131 0.09917 0.0
C1572 C 0.06734 0.50149 0.06891 0.0
C1573 C 0.03953 0.51657 0.10139 0.0
C1574 C 0.06423 0.45623 0.05445 0.0
C1575 C 0.09473 0.46753 0.01294 0.0
N1576 N 0.04855 0.49767 0.08631 0.0
N1577 N 0.0896 0.48543 0.03087 0.0
H1578 H 0.07943 0.43459 0.4371 0.0
H1579 H 0.06224 0.58085 0.4734 0.0
H1580 H 0.02686 0.4855 0.39983 0.0
H1581 H 0.10992 0.52898 0.51559 0.0
H1582 H 0.05379 0.54744 0.44266 0.0
H1583 H 0.09533 0.47017 0.46216 0.0
C1584 C 0.07138 0.45327 0.43395 0.0
C1585 C 0.05153 0.45695 0.41646 0.0
C1586 C 0.06626 0.54339 0.45852 0.0
C1587 C 0.06969 0.49777 0.44525 0.0
C1588 C 0.07115 0.5625 0.47614 0.0
C1589 C 0.08666 0.5577 0.49733 0.0
C1590 C 0.07684 0.51918 0.46207 0.0
C1591 C 0.09775 0.53354 0.49965 0.0
C1592 C 0.08048 0.47358 0.44834 0.0
C1593 C 0.04202 0.48166 0.41319 0.0
N1594 N 0.09244 0.5151 0.48235 0.0
N1595 N 0.05106 0.50106 0.42759 0.0
H1596 H 0.88326 0.94604 0.5225 0.0
H1597 H 0.94958 0.99535 0.39511 0.0
H1598 H 0.92438 0.89824 0.46989 0.0
H1599 H 0.91037 0.04476 0.44772 0.0
H1600 H 0.93558 0.95883 0.4198 0.0
H1601 H 0.88813 0.98164 0.49293 0.0
C1602 C 0.89301 0.94291 0.50464 0.0
C1603 C 0.90365 0.91914 0.49883 0.0
C1604 C 0.92985 0.97764 0.42585 0.0
C1605 C 0.90937 0.95977 0.46503 0.0
C1606 C 0.93785 0.99855 0.41173 0.0
C1607 C 0.93144 0.02325 0.41949 0.0
C1608 C 0.91544 0.98137 0.44802 0.0
C1609 C 0.91598 0.02611 0.4411 0.0
C1610 C 0.89583 0.96326 0.48779 0.0
C1611 C 0.91606 0.91623 0.47537 0.0
N1612 N 0.90873 0.00543 0.45476 0.0
N1613 N 0.91873 0.93632 0.45947 0.0
H1614 H 0.40634 0.58269 0.54703 0.0
H1615 H 0.40566 0.43162 0.55842 0.0
H1616 H 0.37856 0.5335 0.48753 0.0
H1617 H 0.43972 0.48258 0.61301 0.0
H1618 H 0.38861 0.46838 0.53558 0.0
H1619 H 0.41125 0.54606 0.57461 0.0
C1620 C 0.40102 0.56419 0.5398 0.0
C1621 C 0.39238 0.56116 0.51475 0.0
C1622 C 0.39957 0.47144 0.55272 0.0
C1623 C 0.39827 0.51887 0.54634 0.0
C1624 C 0.40928 0.45048 0.56583 0.0
C1625 C 0.42453 0.45402 0.58746 0.0
C1626 C 0.40505 0.49606 0.56141 0.0
C1627 C 0.42842 0.4789 0.59622 0.0
C1628 C 0.40384 0.54322 0.55562 0.0
C1629 C 0.38545 0.5367 0.50665 0.0
N1630 N 0.41894 0.49892 0.58305 0.0
N1631 N 0.38889 0.51639 0.52231 0.0
H1632 H 0.61139 0.58317 0.00708 0.0
H1633 H 0.47927 0.62762 0.94754 0.0
H1634 H 0.54605 0.6029 0.05267 0.0
H1635 H 0.54377 0.60094 0.90441 0.0
H1636 H 0.50547 0.62671 0.9861 0.0
H1637 H 0.58909 0.59797 0.96943 0.0
C1638 C 0.59242 0.59086 0.00924 0.0
C1639 C 0.5804 0.59132 0.03304 0.0
C1640 C 0.51392 0.62141 0.9681 0.0
C1641 C 0.55455 0.60811 0.98979 0.0
C1642 C 0.49902 0.62201 0.94608 0.0
C1643 C 0.50924 0.61395 0.92278 0.0
C1644 C 0.53918 0.61284 0.96667 0.0
C1645 C 0.53494 0.6069 0.922 0.0
C1646 C 0.57966 0.59933 0.98768 0.0
C1647 C 0.55595 0.60193 0.03467 0.0
N1648 N 0.5489 0.6063 0.94362 0.0
N1649 N 0.54365 0.60954 0.01324 0.0
H1650 H 0.39546 0.94043 0.0019 0.0
H1651 H 0.52491 0.88155 0.94904 0.0
H1652 H 0.45316 0.90753 0.05018 0.0
H1653 H 0.46816 0.91859 0.90271 0.0
H1654 H 0.49622 0.88464 0.98555 0.0
H1655 H 0.41907 0.92615 0.96478 0.0
C1656 C 0.41297 0.92997 0.00475 0.0
C1657 C 0.4225 0.92554 0.02927 0.0
C1658 C 0.48998 0.89179 0.96729 0.0
C1659 C 0.44981 0.90927 0.98667 0.0
C1660 C 0.50631 0.88997 0.94642 0.0
C1661 C 0.49909 0.90012 0.92281 0.0
C1662 C 0.46628 0.90379 0.96448 0.0
C1663 C 0.47473 0.91079 0.92057 0.0
C1664 C 0.42647 0.92183 0.98349 0.0
C1665 C 0.44518 0.91163 0.03167 0.0
N1666 N 0.45935 0.91252 0.94116 0.0
N1667 N 0.45823 0.90426 0.01063 0.0
H1668 H 0.48991 0.37629 0.53309 0.0
H1669 H 0.61324 0.45028 0.48483 0.0
H1670 H 0.5411 0.41832 0.58156 0.0
H1671 H 0.56314 0.40914 0.4345 0.0
H1672 H 0.58971 0.43378 0.52102 0.0
H1673 H 0.51896 0.38335 0.49737 0.0
C1674 C 0.50736 0.38669 0.53633 0.0
C1675 C 0.5129 0.39694 0.56035 0.0
C1676 C 0.58395 0.42815 0.50209 0.0
C1677 C 0.5461 0.40513 0.5196 0.0
C1678 C 0.59741 0.43759 0.48136 0.0
C1679 C 0.58996 0.43141 0.45651 0.0
C1680 C 0.56268 0.41255 0.49806 0.0
C1681 C 0.56945 0.4146 0.45329 0.0
C1682 C 0.52391 0.39075 0.51592 0.0
C1683 C 0.53583 0.41024 0.5634 0.0
N1684 N 0.55632 0.406 0.47383 0.0
N1685 N 0.55142 0.41409 0.54326 0.0
H1686 H 0.4735 0.06072 0.5844 0.0
H1687 H 0.43429 0.07761 0.4387 0.0
H1688 H 0.51432 0.1088 0.53178 0.0
H1689 H 0.40085 0.02237 0.48945 0.0
H1690 H 0.45959 0.0939 0.47398 0.0
H1691 H 0.44267 0.05144 0.55128 0.0
C1692 C 0.47591 0.06955 0.56595 0.0
C1693 C 0.49677 0.0854 0.56085 0.0
C1694 C 0.44657 0.07835 0.47741 0.0
C1695 C 0.4614 0.07463 0.52268 0.0
C1696 C 0.43205 0.06903 0.45728 0.0
C1697 C 0.41556 0.04837 0.461 0.0
C1698 C 0.44454 0.067 0.50147 0.0
C1699 C 0.41344 0.03817 0.48558 0.0
C1700 C 0.45825 0.06417 0.54701 0.0
C1701 C 0.49865 0.09637 0.53658 0.0
N1702 N 0.42788 0.04749 0.5048 0.0
N1703 N 0.48131 0.09061 0.51832 0.0
H1704 H 0.00612 0.60947 0.57768 0.0
H1705 H 0.94943 0.47857 0.62956 0.0
H1706 H 0.05321 0.54703 0.60266 0.0
H1707 H 0.90542 0.5389 0.59551 0.0
H1708 H 0.98719 0.50583 0.62739 0.0
H1709 H 0.96877 0.58653 0.59223 0.0
C1710 C 0.00866 0.59102 0.58647 0.0
C1711 C 0.03284 0.57997 0.5885 0.0
C1712 C 0.96915 0.51313 0.62071 0.0
C1713 C 0.98994 0.55339 0.60501 0.0
C1714 C 0.9476 0.49763 0.622 0.0
C1715 C 0.92426 0.50634 0.61241 0.0
C1716 C 0.96723 0.5375 0.60993 0.0
C1717 C 0.92301 0.5312 0.60284 0.0
C1718 C 0.98727 0.57789 0.59477 0.0
C1719 C 0.03492 0.55617 0.60046 0.0
N1720 N 0.94418 0.54578 0.6017 0.0
N1721 N 0.01368 0.54348 0.60794 0.0
H1722 H 0.99295 0.86738 0.57185 0.0
H1723 H 0.04468 -0.00051 0.62521 0.0
H1724 H 0.94365 0.92584 0.60162 0.0
H1725 H 0.09129 0.94037 0.59251 0.0
H1726 H 0.00801 0.9708 0.62312 0.0
H1727 H 0.02958 0.89156 0.58614 0.0
C1728 C 0.98981 0.88523 0.58163 0.0
C1729 C 0.96519 0.89481 0.58513 0.0
C1730 C 0.02638 0.96407 0.61673 0.0
C1731 C 0.00724 0.92288 0.60132 0.0
C1732 C 0.04732 0.98041 0.61796 0.0
C1733 C 0.07108 0.97246 0.60873 0.0
C1734 C 0.02931 0.93967 0.60628 0.0
C1735 C 0.07336 0.94751 0.59957 0.0
C1736 C 0.01078 0.89907 0.5898 0.0
C1737 C 0.96231 0.91785 0.59831 0.0
N1738 N 0.05275 0.93215 0.59841 0.0
N1739 N 0.98313 0.93133 0.60559 0.0
H1740 H 0.04762 0.45234 0.90567 0.0
H1741 H 0.89751 0.46602 0.91883 0.0
H1742 H 0.99911 0.397 0.94212 0.0
H1743 H 0.94518 0.52302 0.88395 0.0
H1744 H 0.93389 0.4377 0.9214 0.0
H1745 H 0.00993 0.47546 0.89173 0.0
C1746 C 0.02908 0.44484 0.91051 0.0
C1747 C 0.0266 0.42284 0.92545 0.0
C1748 C 0.93639 0.45628 0.91292 0.0
C1749 C 0.98336 0.44935 0.90956 0.0
C1750 C 0.91558 0.47252 0.91143 0.0
C1751 C 0.91833 0.49713 0.90147 0.0
C1752 C 0.96028 0.4647 0.90462 0.0
C1753 C 0.9422 0.5043 0.89193 0.0
C1754 C 0.00755 0.4581 0.90253 0.0
C1755 C 0.00203 0.414 0.9309 0.0
N1756 N 0.96235 0.48827 0.89405 0.0
N1757 N 0.98141 0.42742 0.92318 0.0
H1758 H 0.04968 0.99298 0.88923 0.0
H1759 H 0.00159 0.12243 0.95083 0.0
H1760 H 0.09898 0.05023 0.92129 0.0
H1761 H 0.95152 0.07038 0.9119 0.0
H1762 H 0.03783 0.09779 0.93622 0.0
H1763 H 0.01395 0.02255 0.89306 0.0
C1764 C 0.05311 0.01187 0.89665 0.0
C1765 C 0.07733 0.01897 0.90529 0.0
C1766 C 0.01896 0.09183 0.93064 0.0
C1767 C 0.03655 0.05273 0.90991 0.0
C1768 C 0.9982 0.10589 0.93906 0.0
C1769 C 0.97342 0.09828 0.93289 0.0
C1770 C 0.015 0.06976 0.91616 0.0
C1771 C 0.97028 0.07684 0.91728 0.0
C1772 C 0.03268 0.02871 0.8989 0.0
C1773 C 0.08062 0.04372 0.9147 0.0
N1774 N 0.99083 0.06312 0.90972 0.0
N1775 N 0.06044 0.05954 0.91701 0.0
H1776 H 0.57506 0.00451 0.60976 0.0
H1777 H 0.62823 0.94924 0.47863 0.0
H1778 H 0.60276 0.05228 0.54897 0.0
H1779 H 0.58935 0.90528 0.53604 0.0
H1780 H 0.62634 0.98636 0.50676 0.0
H1781 H 0.58823 0.96725 0.58585 0.0
C1782 C 0.58417 0.00722 0.59149 0.0
C1783 C 0.58736 0.03161 0.58118 0.0
C1784 C 0.61849 0.96847 0.51322 0.0
C1785 C 0.6023 0.98881 0.55351 0.0
C1786 C 0.61959 0.94728 0.49721 0.0
C1787 C 0.60871 0.92413 0.50486 0.0
C1788 C 0.60659 0.96638 0.53704 0.0
C1789 C 0.59778 0.92271 0.52916 0.0
C1790 C 0.59165 0.98587 0.5778 0.0
C1791 C 0.59965 0.03385 0.55756 0.0
N1792 N 0.5969 0.94354 0.54427 0.0
N1793 N 0.60637 0.01268 0.54433 0.0
H1794 H 0.62328 0.04585 0.00269 0.0
H1795 H 0.57487 0.9918 0.87029 0.0
H1796 H 0.60502 0.09174 0.93718 0.0
H1797 H 0.59938 0.94291 0.93141 0.0
H1798 H 0.59152 0.02824 0.8932 0.0
H1799 H 0.62059 0.00773 0.97592 0.0
C1800 C 0.61925 0.04797 0.98261 0.0
C1801 C 0.61391 0.07198 0.97224 0.0
C1802 C 0.59356 0.00957 0.9016 0.0
C1803 C 0.61064 0.02862 0.94169 0.0
C1804 C 0.58397 0.98873 0.88851 0.0
C1805 C 0.58538 0.96436 0.89916 0.0
C1806 C 0.60429 0.00619 0.92581 0.0
C1807 C 0.59776 0.96143 0.92263 0.0
C1808 C 0.61762 0.02621 0.96737 0.0
C1809 C 0.60879 0.07362 0.94613 0.0
N1810 N 0.60637 0.98221 0.93543 0.0
N1811 N 0.60701 0.05226 0.93188 0.0
H1812 H 0.40742 0.57067 0.92362 0.0
H1813 H 0.40086 0.41968 0.93687 0.0
H1814 H 0.44153 0.51703 0.87176 0.0
H1815 H 0.38265 0.47021 0.99887 0.0
H1816 H 0.40575 0.45609 0.90899 0.0
H1817 H 0.38913 0.535 0.94758 0.0
C1818 C 0.41074 0.55145 0.91706 0.0
C1819 C 0.42635 0.54676 0.89591 0.0
C1820 C 0.40043 0.45929 0.92862 0.0
C1821 C 0.40539 0.50613 0.92298 0.0
C1822 C 0.3976 0.43845 0.94459 0.0
C1823 C 0.39181 0.4419 0.97039 0.0
C1824 C 0.39773 0.4839 0.93846 0.0
C1825 C 0.38733 0.46672 0.97914 0.0
C1826 C 0.40037 0.53116 0.93077 0.0
C1827 C 0.42998 0.52152 0.88819 0.0
N1828 N 0.39079 0.48689 0.96326 0.0
N1829 N 0.41971 0.50221 0.90178 0.0
H1830 H 0.92049 0.10043 0.04661 0.0
H1831 H 0.90916 0.95037 0.06502 0.0
H1832 H 0.88887 0.0504 0.98975 0.0
H1833 H 0.94627 0.00101 0.11791 0.0
H1834 H 0.8955 0.98716 0.0402 0.0
H1835 H 0.92349 0.06478 0.0758 0.0
C1836 C 0.91387 0.08199 0.04031 0.0
C1837 C 0.90471 0.07839 0.0155 0.0
C1838 C 0.90642 0.9902 0.05737 0.0
C1839 C 0.90839 0.03725 0.04896 0.0
C1840 C 0.91423 0.9692 0.0716 0.0
C1841 C 0.92921 0.97253 0.09346 0.0
C1842 C 0.91358 0.01471 0.06506 0.0
C1843 C 0.93502 0.99743 0.10107 0.0
C1844 C 0.91565 0.06159 0.05704 0.0
C1845 C 0.8962 0.05406 0.00863 0.0
N1846 N 0.92736 0.0175 0.08679 0.0
N1847 N 0.89855 0.03432 0.02517 0.0
H1848 H 0.93902 0.18603 0.39072 0.0
H1849 H 0.04347 0.2951 0.382 0.0
H1850 H 0.01826 0.17097 0.37568 0.0
H1851 H 0.96283 0.30974 0.37824 0.0
H1852 H 0.03478 0.24953 0.37995 0.0
H1853 H 0.9474 0.2315 0.3866 0.0
C1854 C 0.95816 0.19228 0.38645 0.0
C1855 C 0.97802 0.1747 0.38372 0.0
C1856 C 0.01901 0.26273 0.37936 0.0
C1857 C 0.98774 0.22669 0.37911 0.0
C1858 C 0.02395 0.28874 0.38058 0.0
C1859 C 0.00383 0.30624 0.38048 0.0
C1860 C 0.99376 0.25416 0.37832 0.0
C1861 C 0.97892 0.29694 0.37848 0.0
C1862 C 0.96291 0.21823 0.38403 0.0
C1863 C 0.00241 0.18386 0.37803 0.0
N1864 N 0.97458 0.27151 0.37772 0.0
N1865 N 0.00663 0.20925 0.37614 0.0
H1866 H 0.96011 0.68633 0.14209 0.0
H1867 H 0.0173 0.82708 0.14179 0.0
H1868 H 0.04045 0.70239 0.13773 0.0
H1869 H 0.93872 0.81004 0.12557 0.0
H1870 H 0.02553 0.7817 0.14723 0.0
H1871 H 0.95154 0.73193 0.14315 0.0
C1872 C 0.97598 0.69943 0.14158 0.0
C1873 C 0.00104 0.69053 0.13958 0.0
C1874 C 0.00648 0.78793 0.14257 0.0
C1875 C 0.9913 0.74273 0.1408 0.0
C1876 C 0.00174 0.81382 0.1395 0.0
C1877 C 0.97732 0.82235 0.13299 0.0
C1878 C 0.98662 0.77044 0.13932 0.0
C1879 C 0.95787 0.8043 0.13039 0.0
C1880 C 0.97104 0.72545 0.1421 0.0
C1881 C 0.02083 0.7084 0.13909 0.0
N1882 N 0.96296 0.77918 0.13351 0.0
N1883 N 0.01552 0.73367 0.1396 0.0
H1884 H 0.38203 0.01855 0.17461 0.0
H1885 H 0.37416 0.96076 0.31495 0.0
H1886 H 0.39676 0.93974 0.19219 0.0
H1887 H 0.37972 0.04118 0.2995 0.0
H1888 H 0.37551 0.95241 0.26932 0.0
H1889 H 0.37466 0.02671 0.21973 0.0
C1890 C 0.38366 0.00294 0.18794 0.0
C1891 C 0.39025 0.97846 0.17965 0.0
C1892 C 0.37629 0.97189 0.27593 0.0
C1893 C 0.38164 0.98767 0.23124 0.0
C1894 C 0.37541 0.9767 0.30197 0.0
C1895 C 0.37706 0.00171 0.31107 0.0
C1896 C 0.37866 0.99223 0.25884 0.0
C1897 C 0.37859 0.02159 0.29333 0.0
C1898 C 0.37946 0.00764 0.21368 0.0
C1899 C 0.39194 0.95895 0.19776 0.0
N1900 N 0.37945 0.01641 0.26805 0.0
N1901 N 0.38768 0.96399 0.22272 0.0
H1902 H 0.61718 0.48748 0.17062 0.0
H1903 H 0.62336 0.53003 0.31615 0.0
H1904 H 0.60292 0.56428 0.19579 0.0
H1905 H 0.61415 0.45192 0.29275 0.0
H1906 H 0.62231 0.54303 0.27164 0.0
H1907 H 0.62225 0.4744 0.21489 0.0
C1908 C 0.61519 0.50163 0.18544 0.0
C1909 C 0.60946 0.527 0.17952 0.0
C1910 C 0.62059 0.52304 0.27625 0.0
C1911 C 0.61542 0.51214 0.23016 0.0
C1912 C 0.62129 0.51557 0.30165 0.0
C1913 C 0.61867 0.48983 0.30819 0.0
C1914 C 0.6175 0.50466 0.2572 0.0
C1915 C 0.6161 0.47197 0.28857 0.0
C1916 C 0.61804 0.49411 0.2107 0.0
C1917 C 0.60717 0.54449 0.19951 0.0
N1918 N 0.61555 0.47973 0.26392 0.0
N1919 N 0.61018 0.53673 0.22396 0.0
H1920 H 0.29752 0.38455 0.04357 0.0
H1921 H 0.18944 0.39921 0.9387 0.0
H1922 H 0.31211 0.3797 0.96294 0.0
H1923 H 0.17321 0.38433 0.01778 0.0
H1924 H 0.23463 0.39318 0.94736 0.0
H1925 H 0.25193 0.38519 0.03476 0.0
C1926 C 0.29114 0.38343 0.02403 0.0
C1927 C 0.30865 0.38224 0.00395 0.0
C1928 C 0.22116 0.3911 0.96279 0.0
C1929 C 0.25657 0.38321 0.99374 0.0
C1930 C 0.19538 0.39464 0.95788 0.0
C1931 C 0.17755 0.39243 0.97759 0.0
C1932 C 0.22922 0.38557 0.98763 0.0
C1933 C 0.18631 0.38631 0.00204 0.0
C1934 C 0.26512 0.38378 0.01902 0.0
C1935 C 0.2993 0.38073 0.97901 0.0
N1936 N 0.21156 0.38328 0.00641 0.0
N1937 N 0.2739 0.3815 0.9746 0.0
H1938 H 0.17066 0.61786 0.48627 0.0
H1939 H 0.31609 0.62424 0.52893 0.0
H1940 H 0.19577 0.60378 0.56314 0.0
H1941 H 0.29256 0.61567 0.45076 0.0
H1942 H 0.27161 0.62332 0.54198 0.0
H1943 H 0.21486 0.62337 0.4733 0.0
C1944 C 0.18546 0.61599 0.50046 0.0
C1945 C 0.17954 0.61016 0.52582 0.0
C1946 C 0.27619 0.62173 0.52197 0.0
C1947 C 0.23011 0.61663 0.51106 0.0
C1948 C 0.30157 0.62235 0.51447 0.0
C1949 C 0.30806 0.61984 0.4887 0.0
C1950 C 0.25712 0.61881 0.50359 0.0
C1951 C 0.28842 0.61752 0.47083 0.0
C1952 C 0.21068 0.61911 0.493 0.0
C1953 C 0.1995 0.60808 0.54336 0.0
N1954 N 0.2638 0.61702 0.47862 0.0
N1955 N 0.22392 0.61133 0.53565 0.0
H1956 H 0.70797 0.86201 0.44495 0.0
H1957 H 0.80197 0.86654 0.56372 0.0
H1958 H 0.68232 0.85727 0.52279 0.0
H1959 H 0.82713 0.85269 0.48681 0.0
H1960 H 0.7579 0.86378 0.54917 0.0
H1961 H 0.75189 0.85916 0.45987 0.0
C1962 C 0.71156 0.86022 0.46514 0.0
C1963 C 0.69146 0.86004 0.48265 0.0
C1964 C 0.77309 0.86117 0.53553 0.0
C1965 C 0.7416 0.85698 0.49985 0.0
C1966 C 0.79824 0.86278 0.54383 0.0
C1967 C 0.81825 0.86001 0.52644 0.0
C1968 C 0.76797 0.85701 0.50965 0.0
C1969 C 0.81231 0.85507 0.50088 0.0
C1970 C 0.73662 0.85856 0.47365 0.0
C1971 C 0.69722 0.8576 0.5086 0.0
N1972 N 0.78772 0.85394 0.49323 0.0
N1973 N 0.72176 0.85638 0.51643 0.0
H1974 H 0.48638 0.82789 0.85083 0.0
H1975 H 0.52812 0.68182 0.85066 0.0
H1976 H 0.56339 0.80276 0.86393 0.0
H1977 H 0.45008 0.70666 0.8559 0.0
H1978 H 0.54161 0.72614 0.84879 0.0
H1979 H 0.47326 0.78369 0.84605 0.0
C1980 C 0.50059 0.81309 0.85256 0.0
C1981 C 0.52602 0.81904 0.85802 0.0
C1982 C 0.52154 0.72189 0.85021 0.0
C1983 C 0.51104 0.76836 0.85249 0.0
C1984 C 0.51377 0.69658 0.8512 0.0
C1985 C 0.48791 0.69051 0.85367 0.0
C1986 C 0.50332 0.74131 0.85152 0.0
C1987 C 0.47022 0.71046 0.85416 0.0
C1988 C 0.49304 0.78785 0.84987 0.0
C1989 C 0.54357 0.79905 0.8599 0.0
N1990 N 0.47827 0.73498 0.85321 0.0
N1991 N 0.53573 0.77458 0.85722 0.0
H1992 H 0.52836 0.31623 0.61977 0.0
H1993 H 0.48701 0.17024 0.61988 0.0
H1994 H 0.45042 0.29154 0.61305 0.0
H1995 H 0.56338 0.19521 0.60324 0.0
H1996 H 0.47383 0.21455 0.62372 0.0
H1997 H 0.54191 0.27183 0.62013 0.0
C1998 C 0.51407 0.30148 0.61854 0.0
C1999 C 0.48821 0.3076 0.61622 0.0
C2000 C 0.49347 0.21032 0.61926 0.0
C2001 C 0.50364 0.25679 0.61669 0.0
C2002 C 0.50105 0.18503 0.61712 0.0
C2003 C 0.52632 0.17902 0.61105 0.0
C2004 C 0.51132 0.22976 0.61557 0.0
C2005 C 0.54367 0.199 0.60778 0.0
C2006 C 0.52185 0.27615 0.61865 0.0
C2007 C 0.47055 0.28769 0.61472 0.0
N2008 N 0.53584 0.2235 0.61009 0.0
N2009 N 0.4786 0.26315 0.61497 0.0
H2010 H 0.8615 0.56302 0.80505 0.0
H2011 H 0.85977 0.44547 0.70947 0.0
H2012 H 0.84902 0.48562 0.82934 0.0
H2013 H 0.85459 0.52361 0.68491 0.0
H2014 H 0.85588 0.45968 0.75359 0.0
H2015 H 0.85904 0.54897 0.76083 0.0
C2016 C 0.85807 0.54311 0.8011 0.0
C2017 C 0.85563 0.52545 0.82092 0.0
C2018 C 0.8554 0.47368 0.73851 0.0
C2019 C 0.853 0.50921 0.77039 0.0
C2020 C 0.85766 0.46558 0.71333 0.0
C2021 C 0.85769 0.48339 0.69349 0.0
C2022 C 0.85342 0.49977 0.74386 0.0
C2023 C 0.8548 0.5092 0.6996 0.0
C2024 C 0.85663 0.5351 0.77585 0.0
C2025 C 0.85111 0.4999 0.81467 0.0
N2026 N 0.85301 0.51663 0.72424 0.0
N2027 N 0.85018 0.49252 0.78996 0.0
H2028 H 0.13876 0.96548 0.68724 0.0
H2029 H 0.14303 0.02363 0.82759 0.0
H2030 H 0.12998 0.04552 0.70309 0.0
H2031 H 0.13208 0.94386 0.8118 0.0
H2032 H 0.14483 0.03194 0.78191 0.0
H2033 H 0.14287 0.95738 0.73272 0.0
C2034 C 0.13783 0.98139 0.70026 0.0
C2035 C 0.13379 0.00621 0.69134 0.0
C2036 C 0.14215 0.01262 0.78847 0.0
C2037 C 0.13857 0.99701 0.74347 0.0
C2038 C 0.1412 0.00782 0.81454 0.0
C2039 C 0.13721 0.98302 0.82353 0.0
C2040 C 0.13929 0.99244 0.77126 0.0
C2041 C 0.13502 0.9633 0.80572 0.0
C2042 C 0.14013 0.97672 0.72624 0.0
C2043 C 0.13289 0.02607 0.70913 0.0
N2044 N 0.13603 0.96845 0.78043 0.0
N2045 N 0.13519 0.02102 0.73438 0.0
H2046 H 0.81189 0.13425 0.93872 0.0
H2047 H 0.70245 0.13853 0.0433 0.0
H2048 H 0.82656 0.14578 0.01864 0.0
H2049 H 0.68805 0.14279 0.9626 0.0
H2050 H 0.74798 0.1419 0.03478 0.0
H2051 H 0.76641 0.13798 0.94707 0.0
C2052 C 0.80556 0.13772 0.95801 0.0
C2053 C 0.82304 0.1395 0.97805 0.0
C2054 C 0.73484 0.14231 0.01896 0.0
C2055 C 0.77099 0.14364 0.98776 0.0
C2056 C 0.70884 0.14036 0.0238 0.0
C2057 C 0.69143 0.14016 0.00361 0.0
C2058 C 0.74348 0.14385 0.99374 0.0
C2059 C 0.70078 0.14271 0.97875 0.0
C2060 C 0.77958 0.1399 0.96276 0.0
C2061 C 0.81376 0.14416 0.00263 0.0
N2062 N 0.72618 0.14421 0.97451 0.0
N2063 N 0.78835 0.14583 0.00683 0.0
H2064 H 0.94246 0.93338 0.22808 0.0
H2065 H 0.94551 0.06423 0.28561 0.0
H2066 H 0.90996 0.99351 0.18293 0.0
H2067 H 0.91004 0.00579 0.33074 0.0
H2068 H 0.93694 0.03909 0.24718 0.0
H2069 H 0.93495 0.95885 0.26653 0.0
C2070 C 0.9332 0.9517 0.22643 0.0
C2071 C 0.92657 0.96141 0.20255 0.0
C2072 C 0.93051 0.03213 0.26546 0.0
C2073 C 0.91895 0.99073 0.24588 0.0
C2074 C 0.93542 0.04637 0.28727 0.0
C2075 C 0.92824 0.03703 0.31114 0.0
C2076 C 0.91936 0.00805 0.26782 0.0
C2077 C 0.91554 0.01366 0.31253 0.0
C2078 C 0.92891 0.96613 0.24824 0.0
C2079 C 0.915 0.98536 0.20115 0.0
N2080 N 0.91206 -0.00044 0.29115 0.0
N2081 N 0.91213 -0.00041 0.22253 0.0
H2082 H 0.99756 0.44114 0.29242 0.0
H2083 H 0.07276 0.54045 0.20657 0.0
H2084 H 0.07247 0.46611 0.31465 0.0
H2085 H 0.99108 0.53599 0.21326 0.0
H2086 H 0.07648 0.50891 0.24111 0.0
H2087 H 0.99899 0.46997 0.25648 0.0
C2088 C 0.01447 0.45253 0.28963 0.0
C2089 C 0.03476 0.45151 0.30686 0.0
C2090 C 0.05784 0.51505 0.23492 0.0
C2091 C 0.0364 0.48485 0.2656 0.0
C2092 C 0.05568 0.53302 0.21532 0.0
C2093 C 0.03157 0.54081 0.20686 0.0
C2094 C 0.03573 0.50464 0.24563 0.0
C2095 C 0.01008 0.53057 0.2189 0.0
C2096 C 0.01521 0.4691 0.26912 0.0
C2097 C 0.05634 0.46646 0.3019 0.0
N2098 N 0.0127 0.51294 0.23743 0.0
N2099 N 0.05654 0.48278 0.28176 0.0
H2100 H 0.21171 0.90523 0.9537 0.0
H2101 H 0.29181 0.95651 0.07213 0.0
H2102 H 0.19941 0.97601 0.99324 0.0
H2103 H 0.32231 0.90084 0.02024 0.0
H2104 H 0.2513 0.95448 0.04994 0.0
H2105 H 0.24677 0.89559 0.98337 0.0
C2106 C 0.21627 0.91858 0.96869 0.0
C2107 C 0.20301 0.94163 0.97081 0.0
C2108 C 0.2667 0.94239 0.04358 0.0
C2109 C 0.2422 0.93053 0.00484 0.0
C2110 C 0.28977 0.94345 0.05633 0.0
C2111 C 0.31048 0.92914 0.0477 0.0
C2112 C 0.26437 0.9272 0.02178 0.0
C2113 C 0.30676 0.91228 0.02736 0.0
C2114 C 0.23616 0.91308 0.98554 0.0
C2115 C 0.20945 0.95825 0.99059 0.0
N2116 N 0.2842 0.91212 0.01467 0.0
N2117 N 0.22854 0.95238 0.00676 0.0
H2118 H 0.711 0.56182 0.07411 0.0
H2119 H 0.78339 0.61101 0.9499 0.0
H2120 H 0.67718 0.6159 0.02261 0.0
H2121 H 0.80039 0.54267 0.99194 0.0
H2122 H 0.75007 0.62119 0.98138 0.0
H2123 H 0.75055 0.5644 0.05024 0.0
C2124 C 0.71214 0.57471 0.05807 0.0
C2125 C 0.69077 0.58836 0.05004 0.0
C2126 C 0.76134 0.60413 0.9837 0.0
C2127 C 0.7357 0.59085 0.02214 0.0
C2128 C 0.78023 0.59832 0.9658 0.0
C2129 C 0.79423 0.57574 0.96811 0.0
C2130 C 0.75704 0.58746 0.00415 0.0
C2131 C 0.78965 0.55999 0.9891 0.0
C2132 C 0.73465 0.57606 0.04434 0.0
C2133 C 0.69328 0.60498 0.0293 0.0
N2134 N 0.77148 0.56613 0.00621 0.0
N2135 N 0.71526 0.60537 0.01564 0.0
H2136 H 0.30497 0.07214 0.45512 0.0
H2137 H 0.22402 0.00269 0.5633 0.0
H2138 H 0.30899 0.99239 0.47411 0.0
H2139 H 0.19836 0.07305 0.52977 0.0
H2140 H 0.26139 0.00385 0.53627 0.0
H2141 H 0.27064 0.0771 0.4867 0.0
C2142 C 0.29867 0.05574 0.46584 0.0
C2143 C 0.30978 0.03179 0.46184 0.0
C2144 C 0.24771 0.01917 0.53488 0.0
C2145 C 0.27125 0.03744 0.49805 0.0
C2146 C 0.22639 0.01858 0.5504 0.0
C2147 C 0.20784 0.03759 0.54848 0.0
C2148 C 0.2506 0.03884 0.5171 0.0
C2149 C 0.21218 0.05793 0.53171 0.0
C2150 C 0.27917 0.0586 0.48381 0.0
C2151 C 0.30095 0.01119 0.47628 0.0
N2152 N 0.23304 0.05789 0.51635 0.0
N2153 N 0.28236 0.01453 0.49372 0.0
H2154 H 0.77743 0.48286 0.55104 0.0
H2155 H 0.68782 0.40543 0.45979 0.0
H2156 H 0.7949 0.40369 0.53803 0.0
H2157 H 0.71132 0.48291 0.44626 0.0
H2158 H 0.72128 0.40178 0.49243 0.0
H2159 H 0.74495 0.48067 0.51844 0.0
C2160 C 0.77431 0.46488 0.54151 0.0
C2161 C 0.78929 0.44352 0.54701 0.0
C2162 C 0.71914 0.41937 0.48197 0.0
C2163 C 0.75189 0.44101 0.5095 0.0
C2164 C 0.70021 0.42148 0.46332 0.0
C2165 C 0.69649 0.44466 0.45054 0.0
C2166 C 0.73393 0.44073 0.48796 0.0
C2167 C 0.7131 0.46481 0.45587 0.0
C2168 C 0.75581 0.46373 0.52278 0.0
C2169 C 0.7839 0.42066 0.53424 0.0
N2170 N 0.73076 0.46249 0.47441 0.0
N2171 N 0.76562 0.41998 0.51587 0.0
H2172 H 0.07155 0.29206 0.95278 0.0
H2173 H 0.95246 0.2132 0.9013 0.0
H2174 H 0.01886 0.32381 0.8986 0.0
H2175 H 0.99317 0.19919 0.97109 0.0
H2176 H 0.98219 0.24828 0.89182 0.0
H2177 H 0.04966 0.25144 0.94978 0.0
C2178 C 0.05565 0.29028 0.93981 0.0
C2179 C 0.0467 0.31135 0.92624 0.0
C2180 C 0.98461 0.23727 0.90904 0.0
C2181 C 0.02109 0.26512 0.92323 0.0
C2182 C 0.96773 0.21738 0.91445 0.0
C2183 C 0.97015 0.20368 0.93721 0.0
C2184 C 0.00423 0.24286 0.92629 0.0
C2185 C 0.99028 0.20961 0.95358 0.0
C2186 C 0.04307 0.26714 0.9382 0.0
C2187 C 0.02622 0.30797 0.90948 0.0
N2188 N 0.00646 0.22872 0.94781 0.0
N2189 N 0.01368 0.28534 0.90881 0.0
H2190 H 0.0664 0.70994 0.55322 0.0
H2191 H 0.95872 0.79232 0.61676 0.0
H2192 H 0.02684 0.6761 0.61665 0.0
H2193 H 0.9655 0.77746 0.53624 0.0
H2194 H 0.99063 0.75871 0.62473 0.0
H2195 H 0.03859 0.74682 0.55613 0.0
C2196 C 0.05228 0.71057 0.56822 0.0
C2197 C 0.04853 0.68975 0.58438 0.0
C2198 C 0.98485 0.76297 0.60544 0.0
C2199 C 0.01664 0.73178 0.58761 0.0
C2200 C 0.96667 0.78196 0.60085 0.0
C2201 C 0.95958 0.78792 0.57576 0.0
C2202 C 0.99622 0.75062 0.58473 0.0
C2203 C 0.97045 0.77387 0.55587 0.0
C2204 C 0.0364 0.73155 0.56978 0.0
C2205 C 0.03017 0.69174 0.6037 0.0
N2206 N 0.98842 0.7562 0.56078 0.0
N2207 N 0.01442 0.71229 0.60452 0.0
H2208 H 0.55583 0.77399 0.47783 0.0
H2209 H 0.45734 0.68802 0.40418 0.0
H2210 H 0.53502 0.79539 0.40134 0.0
H2211 H 0.45222 0.70674 0.48398 0.0
H2212 H 0.49033 0.72101 0.39937 0.0
H2213 H 0.52427 0.74039 0.47663 0.0
C2214 C 0.54484 0.77144 0.46061 0.0
C2215 C 0.54776 0.78787 0.43982 0.0
C2216 C 0.48168 0.71786 0.41778 0.0
C2217 C 0.51144 0.74931 0.43844 0.0
C2218 C 0.46285 0.69919 0.42056 0.0
C2219 C 0.45221 0.69434 0.4446 0.0
C2220 C 0.49006 0.7312 0.43929 0.0
C2221 C 0.46006 0.70942 0.46515 0.0
C2222 C 0.52673 0.75231 0.46002 0.0
C2223 C 0.53323 0.78325 0.41786 0.0
N2224 N 0.47869 0.72684 0.46208 0.0
N2225 N 0.51542 0.76443 0.41777 0.0
H2226 H 0.40766 0.54835 0.78641 0.0
H2227 H 0.47243 0.43106 0.71466 0.0
H2228 H 0.48582 0.52467 0.79438 0.0
H2229 H 0.40535 0.46756 0.68472 0.0
H2230 H 0.47153 0.45989 0.75074 0.0
H2231 H 0.40159 0.5147 0.75433 0.0
C2232 C 0.42349 0.53617 0.78143 0.0
C2233 C 0.44733 0.53948 0.79297 0.0
C2234 C 0.45682 0.46148 0.73644 0.0
C2235 C 0.44036 0.50088 0.75705 0.0
C2236 C 0.45723 0.44491 0.71589 0.0
C2237 C 0.43916 0.44717 0.69646 0.0
C2238 C 0.43829 0.48063 0.73762 0.0
C2239 C 0.41972 0.46527 0.69926 0.0
C2240 C 0.41999 0.51701 0.76323 0.0
C2241 C 0.46716 0.52311 0.7859 0.0
N2242 N 0.41997 0.48163 0.71933 0.0
N2243 N 0.46318 0.50456 0.76855 0.0
H2244 H 0.61032 0.94768 0.78482 0.0
H2245 H 0.55893 0.07112 0.71254 0.0
H2246 H 0.54101 0.98817 0.80161 0.0
H2247 H 0.61333 0.02037 0.67809 0.0
H2248 H 0.56171 0.04684 0.75182 0.0
H2249 H 0.61957 0.97903 0.75109 0.0
C2250 C 0.5972 0.96319 0.7815 0.0
C2251 C 0.57465 0.96511 0.79562 0.0
C2252 C 0.57337 0.04118 0.73583 0.0
C2253 C 0.58534 0.00103 0.75798 0.0
C2254 C 0.5719 0.05514 0.71346 0.0
C2255 C 0.58561 0.04746 0.69198 0.0
C2256 C 0.58837 0.01912 0.73666 0.0
C2257 C 0.60235 0.0268 0.69426 0.0
C2258 C 0.60249 0.98101 0.76238 0.0
C2259 C 0.55834 0.98562 0.79082 0.0
N2260 N 0.6029 0.01293 0.71613 0.0
N2261 N 0.564 0.00269 0.77246 0.0
H2262 H 0.44051 0.29029 0.99906 0.0
H2263 H 0.54488 0.2077 0.0718 0.0
H2264 H 0.47024 0.31468 0.07154 0.0
H2265 H 0.53197 0.20733 0.99072 0.0
H2266 H 0.51344 0.24224 0.07585 0.0
H2267 H 0.46846 0.25364 0.00031 0.0
C2268 C 0.45277 0.28781 0.01541 0.0
C2269 C 0.45333 0.30582 0.03504 0.0
C2270 C 0.51766 0.23449 0.05726 0.0
C2271 C 0.48571 0.2638 0.03645 0.0
C2272 C 0.53556 0.21487 0.05491 0.0
C2273 C 0.54111 0.20459 0.03088 0.0
C2274 C 0.50504 0.2434 0.03548 0.0
C2275 C 0.52847 0.21459 0.00964 0.0
C2276 C 0.46883 0.26689 0.01606 0.0
C2277 C 0.46935 0.30131 0.05594 0.0
N2278 N 0.51101 0.23324 0.01248 0.0
N2279 N 0.48518 0.28079 0.05601 0.0
loop_
_geom_bond_atom_site_label_1
_geom_bond_atom_site_label_2
_geom_bond_distance
_geom_bond_site_symmetry_2
_ccdc_geom_bond_type
Co0 O2 2.162 . S
Co0 O8 2.074 . S
Co0 O11 2.093 . S
Co0 O24 2.097 1_455 S
Co0 N41 2.151 . S
Co0 N49 2.214 . S
Co1 O2 2.141 1_655 S
Co1 O7 2.058 1_655 S
Co1 O17 2.057 . S
Co1 O32 2.037 . S
Co1 N36 2.145 . S
Co1 N57 2.257 . S
O2 Co0 2.162 . S
O2 Co1 2.141 1_455 S
C3 O4 1.278 . S
C3 O11 1.224 1_655 S
O4 C3 1.278 . S
C5 O6 1.237 1_655 S
C5 O17 1.238 . S
O6 C5 1.237 1_455 S
O7 Co1 2.058 1_455 S
O7 C33 1.269 . S
O8 Co0 2.074 . S
O8 C33 1.257 . S
H9 C34 0.930 . S
H10 C40 0.930 . S
O11 Co0 2.093 . S
O11 C3 1.224 1_455 S
H12 C44 0.929 . S
H13 C46 0.930 . S
H14 C47 0.930 1_545 S
H15 C45 0.929 . S
H16 C48 0.915 1_545 S
O17 Co1 2.057 . S
O17 C5 1.238 . S
H18 C37 0.929 . S
H19 C38 0.929 . S
H20 C50 0.931 . S
H21 C42 0.929 . S
H22 C51 0.930 . S
H23 C43 0.931 . S
O24 Co0 2.097 1_655 S
O24 C52 1.214 . S
H25 C53 0.929 . S
H26 C54 0.929 . S
H27 C55 0.930 . S
H28 C56 0.929 . S
H29 C58 0.930 . S
H30 C35 0.930 . S
H31 C39 0.930 . S
O32 Co1 2.037 . S
O32 C52 1.234 . S
C33 O7 1.269 . S
C33 O8 1.257 . S
C34 H9 0.930 . S
C34 C37 1.388 . S
C34 C39 1.418 . S
C35 H30 0.930 . S
C35 C38 1.404 . S
C35 C39 1.353 . S
N36 Co1 2.145 . S
N36 C37 1.397 . S
N36 C38 1.334 . S
C37 H18 0.929 . S
C37 C34 1.388 . S
C37 N36 1.397 . S
C38 H19 0.929 . S
C38 C35 1.404 . S
C38 N36 1.334 . S
C39 H31 0.930 . S
C39 C34 1.418 . S
C39 C35 1.353 . S
C40 H10 0.930 . S
C40 N41 1.330 . S
C40 C42 1.446 . S
N41 Co0 2.151 . S
N41 C40 1.330 . S
N41 C45 1.418 . S
C42 H21 0.929 . S
C42 C40 1.446 . S
C42 C43 1.332 . S
C43 H23 0.931 . S
C43 C42 1.332 . S
C43 C44 1.267 . S
C44 H12 0.929 . S
C44 C43 1.267 . S
C44 C45 1.251 . S
C45 H15 0.929 . S
C45 N41 1.418 . S
C45 C44 1.251 . S
C46 H13 0.930 . S
C46 C48 1.435 . S
C46 C51 1.261 . S
C47 H14 0.930 1_565 S
C47 N49 1.325 1_565 S
C47 C50 1.357 . S
C48 H16 0.915 1_565 S
C48 C46 1.435 . S
C48 N49 1.246 1_565 S
N49 Co0 2.214 . S
N49 C47 1.325 1_545 S
N49 C48 1.246 1_545 S
C50 H20 0.931 . S
C50 C47 1.357 . S
C50 C51 1.312 . S
C51 H22 0.930 . S
C51 C46 1.261 . S
C51 C50 1.312 . S
C52 O24 1.214 . S
C52 O32 1.234 . S
C53 H25 0.929 . S
C53 C56 1.391 . S
C53 C58 1.391 . S
C54 H26 0.929 . S
C54 C55 1.390 . S
C54 N57 1.391 . S
C55 H27 0.930 . S
C55 C54 1.390 . S
C55 C56 1.392 . S
C56 H28 0.929 . S
C56 C53 1.391 . S
C56 C55 1.392 . S
N57 Co1 2.257 . S
N57 C54 1.391 . S
N57 C58 1.388 . S
C58 H29 0.930 . S
C58 C53 1.391 . S
C58 N57 1.388 . S
Co59 O61 2.162 . S
Co59 O67 2.074 . S
Co59 O70 2.093 . S
Co59 O83 2.097 1_655 S
Co59 N100 2.151 . S
Co59 N108 2.214 . S
Co60 O61 2.141 1_455 S
Co60 O66 2.058 1_455 S
Co60 O76 2.057 . S
Co60 O91 2.037 . S
Co60 N95 2.145 . S
Co60 N116 2.257 . S
O61 Co59 2.162 . S
O61 Co60 2.141 1_655 S
C62 O63 1.278 . S
C62 O70 1.224 1_455 S
O63 C62 1.278 . S
C64 O65 1.245 1_455 S
C64 O76 1.232 . S
O65 C64 1.245 1_655 S
O66 Co60 2.058 1_655 S
O66 C92 1.269 . S
O67 Co59 2.074 . S
O67 C92 1.257 . S
H68 C93 0.930 . S
H69 C99 0.930 . S
O70 Co59 2.093 . S
O70 C62 1.224 1_655 S
H71 C103 0.929 . S
H72 C105 0.930 . S
H73 C106 0.930 . S
H74 C104 0.929 . S
H75 C107 0.928 . S
O76 Co60 2.057 . S
O76 C64 1.232 . S
H77 C96 0.929 . S
H78 C97 0.929 . S
H79 C109 0.931 . S
H80 C101 0.929 . S
H81 C110 0.930 . S
H82 C102 0.931 . S
O83 Co59 2.097 1_455 S
O83 C111 1.214 . S
H84 C112 0.929 . S
H85 C113 0.929 . S
H86 C114 0.930 . S
H87 C115 0.929 . S
H88 C117 0.930 . S
H89 C94 0.930 . S
H90 C98 0.930 . S
O91 Co60 2.037 . S
O91 C111 1.234 . S
C92 O66 1.269 . S
C92 O67 1.257 . S
C93 H68 0.930 . S
C93 C96 1.388 . S
C93 C98 1.418 . S
C94 H89 0.930 . S
C94 C97 1.404 . S
C94 C98 1.353 . S
N95 Co60 2.145 . S
N95 C96 1.397 . S
N95 C97 1.334 . S
C96 H77 0.929 . S
C96 C93 1.388 . S
C96 N95 1.397 . S
C97 H78 0.929 . S
C97 C94 1.404 . S
C97 N95 1.334 . S
C98 H90 0.930 . S
C98 C93 1.418 . S
C98 C94 1.353 . S
C99 H69 0.930 . S
C99 N100 1.330 . S
C99 C101 1.446 . S
N100 Co59 2.151 . S
N100 C99 1.330 . S
N100 C104 1.418 . S
C101 H80 0.929 . S
C101 C99 1.446 . S
C101 C102 1.332 . S
C102 H82 0.931 . S
C102 C101 1.332 . S
C102 C103 1.267 . S
C103 H71 0.929 . S
C103 C102 1.267 . S
C103 C104 1.251 . S
C104 H74 0.929 . S
C104 N100 1.418 . S
C104 C103 1.251 . S
C105 H72 0.930 . S
C105 C107 1.406 . S
C105 C110 1.261 . S
C106 H73 0.930 . S
C106 N108 1.325 . S
C106 C109 1.357 . S
C107 H75 0.928 . S
C107 C105 1.406 . S
C107 N108 1.261 . S
N108 Co59 2.214 . S
N108 C106 1.325 . S
N108 C107 1.261 . S
C109 H79 0.931 . S
C109 C106 1.357 . S
C109 C110 1.312 . S
C110 H81 0.930 . S
C110 C105 1.261 . S
C110 C109 1.312 . S
C111 O83 1.214 . S
C111 O91 1.234 . S
C112 H84 0.929 . S
C112 C115 1.391 . S
C112 C117 1.391 . S
C113 H85 0.929 . S
C113 C114 1.390 . S
C113 N116 1.391 . S
C114 H86 0.930 . S
C114 C113 1.390 . S
C114 C115 1.392 . S
C115 H87 0.929 . S
C115 C112 1.391 . S
C115 C114 1.392 . S
N116 Co60 2.257 . S
N116 C113 1.391 . S
N116 C117 1.388 . S
C117 H88 0.930 . S
C117 C112 1.391 . S
C117 N116 1.388 . S
Co118 O120 2.143 . S
Co118 O126 2.074 . S
Co118 O129 2.093 . S
Co118 O142 2.097 1_455 S
Co118 N159 2.151 . S
Co118 N167 2.214 . S
Co119 O120 2.160 1_655 S
Co119 O125 2.058 1_655 S
Co119 O135 2.057 . S
Co119 O150 2.037 . S
Co119 N154 2.145 . S
Co119 N175 2.257 . S
O120 Co118 2.143 . S
O120 Co119 2.160 1_455 S
C121 O122 1.278 . S
C121 O129 1.224 1_655 S
O122 C121 1.278 . S
C123 O124 1.245 1_655 S
C123 O135 1.232 . S
O124 C123 1.245 1_455 S
O125 Co119 2.058 1_455 S
O125 C151 1.269 . S
O126 Co118 2.074 . S
O126 C151 1.257 . S
H127 C152 0.930 . S
H128 C158 0.930 . S
O129 Co118 2.093 . S
O129 C121 1.224 1_455 S
H130 C162 0.929 . S
H131 C164 0.930 . S
H132 C165 0.930 . S
H133 C163 0.929 . S
H134 C166 0.928 . S
O135 Co119 2.057 . S
O135 C123 1.232 . S
H136 C155 0.929 . S
H137 C156 0.929 . S
H138 C168 0.931 . S
H139 C160 0.929 . S
H140 C169 0.930 . S
H141 C161 0.931 . S
O142 Co118 2.097 1_655 S
O142 C170 1.214 . S
H143 C171 0.929 . S
H144 C172 0.929 . S
H145 C173 0.930 . S
H146 C174 0.929 . S
H147 C176 0.930 . S
H148 C153 0.930 . S
H149 C157 0.930 . S
O150 Co119 2.037 . S
O150 C170 1.234 . S
C151 O125 1.269 . S
C151 O126 1.257 . S
C152 H127 0.930 . S
C152 C155 1.388 . S
C152 C157 1.418 . S
C153 H148 0.930 . S
C153 C156 1.404 . S
C153 C157 1.353 . S
N154 Co119 2.145 . S
N154 C155 1.397 . S
N154 C156 1.334 . S
C155 H136 0.929 . S
C155 C152 1.388 . S
C155 N154 1.397 . S
C156 H137 0.929 . S
C156 C153 1.404 . S
C156 N154 1.334 . S
C157 H149 0.930 . S
C157 C152 1.418 . S
C157 C153 1.353 . S
C158 H128 0.930 . S
C158 N159 1.330 . S
C158 C160 1.446 . S
N159 Co118 2.151 . S
N159 C158 1.330 . S
N159 C163 1.418 . S
C160 H139 0.929 . S
C160 C158 1.446 . S
C160 C161 1.332 . S
C161 H141 0.931 . S
C161 C160 1.332 . S
C161 C162 1.267 . S
C162 H130 0.929 . S
C162 C161 1.267 . S
C162 C163 1.251 . S
C163 H133 0.929 . S
C163 N159 1.418 . S
C163 C162 1.251 . S
C164 H131 0.930 . S
C164 C166 1.406 1_545 S
C164 C169 1.261 . S
C165 H132 0.930 . S
C165 N167 1.325 . S
C165 C168 1.357 1_565 S
C166 H134 0.928 . S
C166 C164 1.406 1_565 S
C166 N167 1.261 . S
N167 Co118 2.214 . S
N167 C165 1.325 . S
N167 C166 1.261 . S
C168 H138 0.931 . S
C168 C165 1.357 1_545 S
C168 C169 1.312 . S
C169 H140 0.930 . S
C169 C164 1.261 . S
C169 C168 1.312 . S
C170 O142 1.214 . S
C170 O150 1.234 . S
C171 H143 0.929 . S
C171 C174 1.391 . S
C171 C176 1.391 . S
C172 H144 0.929 . S
C172 C173 1.390 . S
C172 N175 1.391 . S
C173 H145 0.930 . S
C173 C172 1.390 . S
C173 C174 1.392 . S
C174 H146 0.929 . S
C174 C171 1.391 . S
C174 C173 1.392 . S
N175 Co119 2.257 . S
N175 C172 1.391 . S
N175 C176 1.388 . S
C176 H147 0.930 . S
C176 C171 1.391 . S
C176 N175 1.388 . S
Co177 O179 2.143 . S
Co177 O185 2.074 . S
Co177 O188 2.093 . S
Co177 O201 2.097 1_655 S
Co177 N218 2.151 . S
Co177 N226 2.214 . S
Co178 O179 2.160 1_455 S
Co178 O184 2.058 1_455 S
Co178 O194 2.057 . S
Co178 O209 2.037 . S
Co178 N213 2.145 . S
Co178 N234 2.257 . S
O179 Co177 2.143 . S
O179 Co178 2.160 1_655 S
C180 O181 1.278 . S
C180 O188 1.224 1_455 S
O181 C180 1.278 . S
C182 O183 1.245 1_455 S
C182 O194 1.232 . S
O183 C182 1.245 1_655 S
O184 Co178 2.058 1_655 S
O184 C210 1.269 . S
O185 Co177 2.074 . S
O185 C210 1.257 . S
H186 C211 0.930 . S
H187 C217 0.930 . S
O188 Co177 2.093 . S
O188 C180 1.224 1_655 S
H189 C221 0.929 . S
H190 C223 0.930 . S
H191 C224 0.930 . S
H192 C222 0.929 . S
H193 C225 0.928 . S
O194 Co178 2.057 . S
O194 C182 1.232 . S
H195 C214 0.929 . S
H196 C215 0.929 . S
H197 C227 0.931 . S
H198 C219 0.929 . S
H199 C228 0.930 . S
H200 C220 0.931 . S
O201 Co177 2.097 1_455 S
O201 C229 1.214 . S
H202 C230 0.929 . S
H203 C231 0.929 . S
H204 C232 0.930 . S
H205 C233 0.929 . S
H206 C235 0.930 . S
H207 C212 0.930 . S
H208 C216 0.930 . S
O209 Co178 2.037 . S
O209 C229 1.234 . S
C210 O184 1.269 . S
C210 O185 1.257 . S
C211 H186 0.930 . S
C211 C214 1.388 . S
C211 C216 1.418 . S
C212 H207 0.930 . S
C212 C215 1.404 . S
C212 C216 1.353 . S
N213 Co178 2.145 . S
N213 C214 1.397 . S
N213 C215 1.334 . S
C214 H195 0.929 . S
C214 C211 1.388 . S
C214 N213 1.397 . S
C215 H196 0.929 . S
C215 C212 1.404 . S
C215 N213 1.334 . S
C216 H208 0.930 . S
C216 C211 1.418 . S
C216 C212 1.353 . S
C217 H187 0.930 . S
C217 N218 1.330 . S
C217 C219 1.446 . S
N218 Co177 2.151 . S
N218 C217 1.330 . S
N218 C222 1.418 . S
C219 H198 0.929 . S
C219 C217 1.446 . S
C219 C220 1.332 . S
C220 H200 0.931 . S
C220 C219 1.332 . S
C220 C221 1.267 . S
C221 H189 0.929 . S
C221 C220 1.267 . S
C221 C222 1.251 . S
C222 H192 0.929 . S
C222 N218 1.418 . S
C222 C221 1.251 . S
C223 H190 0.930 . S
C223 C225 1.406 . S
C223 C228 1.261 . S
C224 H191 0.930 . S
C224 N226 1.325 . S
C224 C227 1.357 . S
C225 H193 0.928 . S
C225 C223 1.406 . S
C225 N226 1.261 . S
N226 Co177 2.214 . S
N226 C224 1.325 . S
N226 C225 1.261 . S
C227 H197 0.931 . S
C227 C224 1.357 . S
C227 C228 1.312 . S
C228 H199 0.930 . S
C228 C223 1.261 . S
C228 C227 1.312 . S
C229 O201 1.214 . S
C229 O209 1.234 . S
C230 H202 0.929 . S
C230 C233 1.391 . S
C230 C235 1.391 . S
C231 H203 0.929 . S
C231 C232 1.390 . S
C231 N234 1.391 . S
C232 H204 0.930 . S
C232 C231 1.390 . S
C232 C233 1.392 . S
C233 H205 0.929 . S
C233 C230 1.391 . S
C233 C232 1.392 . S
N234 Co178 2.257 . S
N234 C231 1.391 . S
N234 C235 1.388 . S
C235 H206 0.930 . S
C235 C230 1.391 . S
C235 N234 1.388 . S
Co236 O238 2.162 . S
Co236 O244 2.074 . S
Co236 O247 2.093 . S
Co236 O260 2.097 1_545 S
Co236 N277 2.151 . S
Co236 N285 2.214 . S
Co237 O238 2.141 1_565 S
Co237 O243 2.058 1_565 S
Co237 O253 2.057 . S
Co237 O268 2.037 . S
Co237 N272 2.145 . S
Co237 N293 2.257 . S
O238 Co236 2.162 . S
O238 Co237 2.141 1_545 S
C239 O240 1.278 . S
C239 O247 1.224 1_565 S
O240 C239 1.278 . S
C241 O242 1.237 1_565 S
C241 O253 1.238 . S
O242 C241 1.237 1_545 S
O243 Co237 2.058 1_545 S
O243 C269 1.269 . S
O244 Co236 2.074 . S
O244 C269 1.257 . S
H245 C270 0.930 . S
H246 C276 0.930 . S
O247 Co236 2.093 . S
O247 C239 1.224 1_545 S
H248 C280 0.929 . S
H249 C282 0.930 . S
H250 C283 0.930 1_554 S
H251 C281 0.929 . S
H252 C284 0.915 1_554 S
O253 Co237 2.057 . S
O253 C241 1.238 . S
H254 C273 0.929 . S
H255 C274 0.929 . S
H256 C286 0.931 . S
H257 C278 0.929 . S
H258 C287 0.930 . S
H259 C279 0.931 . S
O260 Co236 2.097 1_565 S
O260 C288 1.214 . S
H261 C289 0.929 . S
H262 C290 0.929 . S
H263 C291 0.930 . S
H264 C292 0.929 . S
H265 C294 0.930 . S
H266 C271 0.930 . S
H267 C275 0.930 . S
O268 Co237 2.037 . S
O268 C288 1.234 . S
C269 O243 1.269 . S
C269 O244 1.257 . S
C270 H245 0.930 . S
C270 C273 1.388 . S
C270 C275 1.418 . S
C271 H266 0.930 . S
C271 C274 1.404 . S
C271 C275 1.353 . S
N272 Co237 2.145 . S
N272 C273 1.397 . S
N272 C274 1.334 . S
C273 H254 0.929 . S
C273 C270 1.388 . S
C273 N272 1.397 . S
C274 H255 0.929 . S
C274 C271 1.404 . S
C274 N272 1.334 . S
C275 H267 0.930 . S
C275 C270 1.418 . S
C275 C271 1.353 . S
C276 H246 0.930 . S
C276 N277 1.330 . S
C276 C278 1.446 . S
N277 Co236 2.151 . S
N277 C276 1.330 . S
N277 C281 1.418 . S
C278 H257 0.929 . S
C278 C276 1.446 . S
C278 C279 1.332 . S
C279 H259 0.931 . S
C279 C278 1.332 . S
C279 C280 1.267 . S
C280 H248 0.929 . S
C280 C279 1.267 . S
C280 C281 1.251 . S
C281 H251 0.929 . S
C281 N277 1.418 . S
C281 C280 1.251 . S
C282 H249 0.930 . S
C282 C284 1.435 . S
C282 C287 1.261 . S
C283 H250 0.930 1_556 S
C283 N285 1.325 1_556 S
C283 C286 1.357 . S
C284 H252 0.915 1_556 S
C284 C282 1.435 . S
C284 N285 1.246 1_556 S
N285 Co236 2.214 . S
N285 C283 1.325 1_554 S
N285 C284 1.246 1_554 S
C286 H256 0.931 . S
C286 C283 1.357 . S
C286 C287 1.312 . S
C287 H258 0.930 . S
C287 C282 1.261 . S
C287 C286 1.312 . S
C288 O260 1.214 . S
C288 O268 1.234 . S
C289 H261 0.929 . S
C289 C292 1.391 . S
C289 C294 1.391 . S
C290 H262 0.929 . S
C290 C291 1.390 . S
C290 N293 1.391 . S
C291 H263 0.930 . S
C291 C290 1.390 . S
C291 C292 1.392 . S
C292 H264 0.929 . S
C292 C289 1.391 . S
C292 C291 1.392 . S
N293 Co237 2.257 . S
N293 C290 1.391 . S
N293 C294 1.388 . S
C294 H265 0.930 . S
C294 C289 1.391 . S
C294 N293 1.388 . S
Co295 O297 2.143 . S
Co295 O303 2.074 . S
Co295 O306 2.093 . S
Co295 O319 2.097 . S
Co295 N336 2.151 . S
Co295 N344 2.214 . S
Co296 O297 2.160 . S
Co296 O302 2.058 . S
Co296 O312 2.057 . S
Co296 O327 2.037 . S
Co296 N331 2.145 . S
Co296 N352 2.257 . S
O297 Co295 2.143 . S
O297 Co296 2.160 . S
C298 O299 1.278 . S
C298 O306 1.224 . S
O299 C298 1.278 . S
C300 O301 1.245 . S
C300 O312 1.232 . S
O301 C300 1.245 . S
O302 Co296 2.058 . S
O302 C328 1.269 . S
O303 Co295 2.074 . S
O303 C328 1.257 . S
H304 C329 0.930 . S
H305 C335 0.930 . S
O306 Co295 2.093 . S
O306 C298 1.224 . S
H307 C339 0.929 . S
H308 C341 0.930 . S
H309 C342 0.945 . S
H310 C340 0.929 . S
H311 C343 0.916 1_554 S
O312 Co296 2.057 . S
O312 C300 1.232 . S
H313 C332 0.929 . S
H314 C333 0.929 . S
H315 C345 0.931 . S
H316 C337 0.929 . S
H317 C346 0.930 . S
H318 C338 0.931 . S
O319 Co295 2.097 . S
O319 C347 1.214 . S
H320 C348 0.929 . S
H321 C349 0.929 . S
H322 C350 0.930 . S
H323 C351 0.929 . S
H324 C353 0.930 . S
H325 C330 0.930 . S
H326 C334 0.930 . S
O327 Co296 2.037 . S
O327 C347 1.234 . S
C328 O302 1.269 . S
C328 O303 1.257 . S
C329 H304 0.930 . S
C329 C332 1.388 . S
C329 C334 1.418 . S
C330 H325 0.930 . S
C330 C333 1.404 . S
C330 C334 1.353 . S
N331 Co296 2.145 . S
N331 C332 1.397 . S
N331 C333 1.334 . S
C332 H313 0.929 . S
C332 C329 1.388 . S
C332 N331 1.397 . S
C333 H314 0.929 . S
C333 C330 1.404 . S
C333 N331 1.334 . S
C334 H326 0.930 . S
C334 C329 1.418 . S
C334 C330 1.353 . S
C335 H305 0.930 . S
C335 N336 1.330 . S
C335 C337 1.446 . S
N336 Co295 2.151 . S
N336 C335 1.330 . S
N336 C340 1.418 . S
C337 H316 0.929 . S
C337 C335 1.446 . S
C337 C338 1.332 . S
C338 H318 0.931 . S
C338 C337 1.332 . S
C338 C339 1.267 . S
C339 H307 0.929 . S
C339 C338 1.267 . S
C339 C340 1.251 . S
C340 H310 0.929 . S
C340 N336 1.418 . S
C340 C339 1.251 . S
C341 H308 0.930 . S
C341 C343 1.435 . S
C341 C346 1.261 . S
C342 H309 0.945 . S
C342 N344 1.339 . S
C342 C345 1.330 1_554 S
C343 H311 0.916 1_556 S
C343 C341 1.435 . S
C343 N344 1.244 1_556 S
N344 Co295 2.214 . S
N344 C342 1.339 . S
N344 C343 1.244 1_554 S
C345 H315 0.931 . S
C345 C342 1.330 1_556 S
C345 C346 1.312 . S
C346 H317 0.930 . S
C346 C341 1.261 . S
C346 C345 1.312 . S
C347 O319 1.214 . S
C347 O327 1.234 . S
C348 H320 0.929 . S
C348 C351 1.391 . S
C348 C353 1.391 . S
C349 H321 0.929 . S
C349 C350 1.390 . S
C349 N352 1.391 . S
C350 H322 0.930 . S
C350 C349 1.390 . S
C350 C351 1.392 . S
C351 H323 0.929 . S
C351 C348 1.391 . S
C351 C350 1.392 . S
N352 Co296 2.257 . S
N352 C349 1.391 . S
N352 C353 1.388 . S
C353 H324 0.930 . S
C353 C348 1.391 . S
C353 N352 1.388 . S
Co354 O356 2.162 . S
Co354 O362 2.074 . S
Co354 O365 2.093 . S
Co354 O378 2.097 1_565 S
Co354 N395 2.151 . S
Co354 N403 2.214 . S
Co355 O356 2.141 1_545 S
Co355 O361 2.058 1_545 S
Co355 O371 2.057 . S
Co355 O386 2.037 . S
Co355 N390 2.145 . S
Co355 N411 2.257 . S
O356 Co354 2.162 . S
O356 Co355 2.141 1_565 S
C357 O358 1.278 . S
C357 O365 1.224 1_545 S
O358 C357 1.278 . S
C359 O360 1.245 1_545 S
C359 O371 1.232 . S
O360 C359 1.245 1_565 S
O361 Co355 2.058 1_565 S
O361 C387 1.269 . S
O362 Co354 2.074 . S
O362 C387 1.257 . S
H363 C388 0.930 . S
H364 C394 0.930 . S
O365 Co354 2.093 . S
O365 C357 1.224 1_565 S
H366 C398 0.929 . S
H367 C400 0.930 . S
H368 C401 0.930 . S
H369 C399 0.929 . S
H370 C402 0.928 . S
O371 Co355 2.057 . S
O371 C359 1.232 . S
H372 C391 0.929 . S
H373 C392 0.929 . S
H374 C404 0.931 . S
H375 C396 0.929 . S
H376 C405 0.930 . S
H377 C397 0.931 . S
O378 Co354 2.097 1_545 S
O378 C406 1.214 . S
H379 C407 0.929 . S
H380 C408 0.929 . S
H381 C409 0.930 . S
H382 C410 0.929 . S
H383 C412 0.930 . S
H384 C389 0.930 . S
H385 C393 0.930 . S
O386 Co355 2.037 . S
O386 C406 1.234 . S
C387 O361 1.269 . S
C387 O362 1.257 . S
C388 H363 0.930 . S
C388 C391 1.388 . S
C388 C393 1.418 . S
C389 H384 0.930 . S
C389 C392 1.404 . S
C389 C393 1.353 . S
N390 Co355 2.145 . S
N390 C391 1.397 . S
N390 C392 1.334 . S
C391 H372 0.929 . S
C391 C388 1.388 . S
C391 N390 1.397 . S
C392 H373 0.929 . S
C392 C389 1.404 . S
C392 N390 1.334 . S
C393 H385 0.930 . S
C393 C388 1.418 . S
C393 C389 1.353 . S
C394 H364 0.930 . S
C394 N395 1.330 . S
C394 C396 1.446 . S
N395 Co354 2.151 . S
N395 C394 1.330 . S
N395 C399 1.418 . S
C396 H375 0.929 . S
C396 C394 1.446 . S
C396 C397 1.332 . S
C397 H377 0.931 . S
C397 C396 1.332 . S
C397 C398 1.267 . S
C398 H366 0.929 . S
C398 C397 1.267 . S
C398 C399 1.251 . S
C399 H369 0.929 . S
C399 N395 1.418 . S
C399 C398 1.251 . S
C400 H367 0.930 . S
C400 C402 1.406 . S
C400 C405 1.261 . S
C401 H368 0.930 . S
C401 N403 1.325 . S
C401 C404 1.357 . S
C402 H370 0.928 . S
C402 C400 1.406 . S
C402 N403 1.261 . S
N403 Co354 2.214 . S
N403 C401 1.325 . S
N403 C402 1.261 . S
C404 H374 0.931 . S
C404 C401 1.357 . S
C404 C405 1.312 . S
C405 H376 0.930 . S
C405 C400 1.261 . S
C405 C404 1.312 . S
C406 O378 1.214 . S
C406 O386 1.234 . S
C407 H379 0.929 . S
C407 C410 1.391 . S
C407 C412 1.391 . S
C408 H380 0.929 . S
C408 C409 1.390 . S
C408 N411 1.391 . S
C409 H381 0.930 . S
C409 C408 1.390 . S
C409 C410 1.392 . S
C410 H382 0.929 . S
C410 C407 1.391 . S
C410 C409 1.392 . S
N411 Co355 2.257 . S
N411 C408 1.391 . S
N411 C412 1.388 . S
C412 H383 0.930 . S
C412 C407 1.391 . S
C412 N411 1.388 . S
Co413 O415 2.143 . S
Co413 O421 2.074 . S
Co413 O424 2.093 . S
Co413 O437 2.097 . S
Co413 N454 2.151 . S
Co413 N462 2.214 . S
Co414 O415 2.160 . S
Co414 O420 2.058 . S
Co414 O430 2.057 . S
Co414 O445 2.037 . S
Co414 N449 2.145 . S
Co414 N470 2.257 . S
O415 Co413 2.143 . S
O415 Co414 2.160 . S
C416 O417 1.278 . S
C416 O424 1.224 . S
O417 C416 1.278 . S
C418 O419 1.245 . S
C418 O430 1.232 . S
O419 C418 1.245 . S
O420 Co414 2.058 . S
O420 C446 1.269 . S
O421 Co413 2.074 . S
O421 C446 1.257 . S
H422 C447 0.930 . S
H423 C453 0.930 . S
O424 Co413 2.093 . S
O424 C416 1.224 . S
H425 C457 0.929 . S
H426 C459 0.930 . S
H427 C460 0.930 . S
H428 C458 0.929 . S
H429 C461 0.928 . S
O430 Co414 2.057 . S
O430 C418 1.232 . S
H431 C450 0.929 . S
H432 C451 0.929 . S
H433 C463 0.931 . S
H434 C455 0.929 . S
H435 C464 0.930 . S
H436 C456 0.931 . S
O437 Co413 2.097 . S
O437 C465 1.214 . S
H438 C466 0.929 . S
H439 C467 0.929 . S
H440 C468 0.930 . S
H441 C469 0.929 . S
H442 C471 0.930 . S
H443 C448 0.930 . S
H444 C452 0.930 . S
O445 Co414 2.037 . S
O445 C465 1.234 . S
C446 O420 1.269 . S
C446 O421 1.257 . S
C447 H422 0.930 . S
C447 C450 1.388 . S
C447 C452 1.418 . S
C448 H443 0.930 . S
C448 C451 1.404 . S
C448 C452 1.353 . S
N449 Co414 2.145 . S
N449 C450 1.397 . S
N449 C451 1.334 . S
C450 H431 0.929 . S
C450 C447 1.388 . S
C450 N449 1.397 . S
C451 H432 0.929 . S
C451 C448 1.404 . S
C451 N449 1.334 . S
C452 H444 0.930 . S
C452 C447 1.418 . S
C452 C448 1.353 . S
C453 H423 0.930 . S
C453 N454 1.330 . S
C453 C455 1.446 . S
N454 Co413 2.151 . S
N454 C453 1.330 . S
N454 C458 1.418 . S
C455 H434 0.929 . S
C455 C453 1.446 . S
C455 C456 1.332 . S
C456 H436 0.931 . S
C456 C455 1.332 . S
C456 C457 1.267 . S
C457 H425 0.929 . S
C457 C456 1.267 . S
C457 C458 1.251 . S
C458 H428 0.929 . S
C458 N454 1.418 . S
C458 C457 1.251 . S
C459 H426 0.930 . S
C459 C461 1.406 . S
C459 C464 1.261 . S
C460 H427 0.930 . S
C460 N462 1.325 . S
C460 C463 1.357 . S
C461 H429 0.928 . S
C461 C459 1.406 . S
C461 N462 1.261 . S
N462 Co413 2.214 . S
N462 C460 1.325 . S
N462 C461 1.261 . S
C463 H433 0.931 . S
C463 C460 1.357 . S
C463 C464 1.312 . S
C464 H435 0.930 . S
C464 C459 1.261 . S
C464 C463 1.312 . S
C465 O437 1.214 . S
C465 O445 1.234 . S
C466 H438 0.929 . S
C466 C469 1.391 . S
C466 C471 1.391 . S
C467 H439 0.929 . S
C467 C468 1.390 . S
C467 N470 1.391 . S
C468 H440 0.930 . S
C468 C467 1.390 . S
C468 C469 1.392 . S
C469 H441 0.929 . S
C469 C466 1.391 . S
C469 C468 1.392 . S
N470 Co414 2.257 . S
N470 C467 1.391 . S
N470 C471 1.388 . S
C471 H442 0.930 . S
C471 C466 1.391 . S
C471 N470 1.388 . S
Co472 O474 2.162 . S
Co472 O480 2.074 . S
Co472 O483 2.093 . S
Co472 O496 2.097 1_554 S
Co472 N513 2.151 . S
Co472 N521 2.214 . S
Co473 O474 2.141 1_556 S
Co473 O479 2.058 1_556 S
Co473 O489 2.057 . S
Co473 O504 2.037 . S
Co473 N508 2.145 . S
Co473 N529 2.257 . S
O474 Co472 2.162 . S
O474 Co473 2.141 1_554 S
C475 O476 1.278 . S
C475 O483 1.224 1_556 S
O476 C475 1.278 . S
C477 O478 1.237 1_556 S
C477 O489 1.238 . S
O478 C477 1.237 1_554 S
O479 Co473 2.058 1_554 S
O479 C505 1.269 . S
O480 Co472 2.074 . S
O480 C505 1.257 . S
H481 C506 0.930 . S
H482 C512 0.930 . S
O483 Co472 2.093 . S
O483 C475 1.224 1_554 S
H484 C516 0.929 . S
H485 C518 0.930 . S
H486 C519 0.930 1_455 S
H487 C517 0.929 . S
H488 C520 0.915 1_455 S
O489 Co473 2.057 . S
O489 C477 1.238 . S
H490 C509 0.929 . S
H491 C510 0.929 . S
H492 C522 0.931 . S
H493 C514 0.929 . S
H494 C523 0.930 . S
H495 C515 0.931 . S
O496 Co472 2.097 1_556 S
O496 C524 1.214 . S
H497 C525 0.929 . S
H498 C526 0.929 . S
H499 C527 0.930 . S
H500 C528 0.929 . S
H501 C530 0.930 . S
H502 C507 0.930 . S
H503 C511 0.930 . S
O504 Co473 2.037 . S
O504 C524 1.234 . S
C505 O479 1.269 . S
C505 O480 1.257 . S
C506 H481 0.930 . S
C506 C509 1.388 . S
C506 C511 1.418 . S
C507 H502 0.930 . S
C507 C510 1.404 . S
C507 C511 1.353 . S
N508 Co473 2.145 . S
N508 C509 1.397 . S
N508 C510 1.334 . S
C509 H490 0.929 . S
C509 C506 1.388 . S
C509 N508 1.397 . S
C510 H491 0.929 . S
C510 C507 1.404 . S
C510 N508 1.334 . S
C511 H503 0.930 . S
C511 C506 1.418 . S
C511 C507 1.353 . S
C512 H482 0.930 . S
C512 N513 1.330 . S
C512 C514 1.446 . S
N513 Co472 2.151 . S
N513 C512 1.330 . S
N513 C517 1.418 . S
C514 H493 0.929 . S
C514 C512 1.446 . S
C514 C515 1.332 . S
C515 H495 0.931 . S
C515 C514 1.332 . S
C515 C516 1.267 . S
C516 H484 0.929 . S
C516 C515 1.267 . S
C516 C517 1.251 . S
C517 H487 0.929 . S
C517 N513 1.418 . S
C517 C516 1.251 . S
C518 H485 0.930 . S
C518 C520 1.435 . S
C518 C523 1.261 . S
C519 H486 0.930 1_655 S
C519 N521 1.325 1_655 S
C519 C522 1.357 . S
C520 H488 0.915 1_655 S
C520 C518 1.435 . S
C520 N521 1.246 1_655 S
N521 Co472 2.214 . S
N521 C519 1.325 1_455 S
N521 C520 1.246 1_455 S
C522 H492 0.931 . S
C522 C519 1.357 . S
C522 C523 1.312 . S
C523 H494 0.930 . S
C523 C518 1.261 . S
C523 C522 1.312 . S
C524 O496 1.214 . S
C524 O504 1.234 . S
C525 H497 0.929 . S
C525 C528 1.391 . S
C525 C530 1.391 . S
C526 H498 0.929 . S
C526 C527 1.390 . S
C526 N529 1.391 . S
C527 H499 0.930 . S
C527 C526 1.390 . S
C527 C528 1.392 . S
C528 H500 0.929 . S
C528 C525 1.391 . S
C528 C527 1.392 . S
N529 Co473 2.257 . S
N529 C526 1.391 . S
N529 C530 1.388 . S
C530 H501 0.930 . S
C530 C525 1.391 . S
C530 N529 1.388 . S
Co531 O533 2.143 . S
Co531 O539 2.074 . S
Co531 O542 2.093 . S
Co531 O555 2.097 . S
Co531 N572 2.151 . S
Co531 N580 2.214 . S
Co532 O533 2.160 . S
Co532 O538 2.058 . S
Co532 O548 2.057 . S
Co532 O563 2.037 . S
Co532 N567 2.145 . S
Co532 N588 2.257 . S
O533 Co531 2.143 . S
O533 Co532 2.160 . S
C534 O535 1.278 . S
C534 O542 1.224 . S
O535 C534 1.278 . S
C536 O537 1.245 . S
C536 O548 1.232 . S
O537 C536 1.245 . S
O538 Co532 2.058 . S
O538 C564 1.269 . S
O539 Co531 2.074 . S
O539 C564 1.257 . S
H540 C565 0.930 . S
H541 C571 0.930 . S
O542 Co531 2.093 . S
O542 C534 1.224 . S
H543 C575 0.929 . S
H544 C577 0.930 . S
H545 C578 0.945 . S
H546 C576 0.929 . S
H547 C579 0.916 1_455 S
O548 Co532 2.057 . S
O548 C536 1.232 . S
H549 C568 0.929 . S
H550 C569 0.929 . S
H551 C581 0.931 . S
H552 C573 0.929 . S
H553 C582 0.930 . S
H554 C574 0.931 . S
O555 Co531 2.097 . S
O555 C583 1.214 . S
H556 C584 0.929 . S
H557 C585 0.929 . S
H558 C586 0.930 . S
H559 C587 0.929 . S
H560 C589 0.930 . S
H561 C566 0.930 . S
H562 C570 0.930 . S
O563 Co532 2.037 . S
O563 C583 1.234 . S
C564 O538 1.269 . S
C564 O539 1.257 . S
C565 H540 0.930 . S
C565 C568 1.388 . S
C565 C570 1.418 . S
C566 H561 0.930 . S
C566 C569 1.404 . S
C566 C570 1.353 . S
N567 Co532 2.145 . S
N567 C568 1.397 . S
N567 C569 1.334 . S
C568 H549 0.929 . S
C568 C565 1.388 . S
C568 N567 1.397 . S
C569 H550 0.929 . S
C569 C566 1.404 . S
C569 N567 1.334 . S
C570 H562 0.930 . S
C570 C565 1.418 . S
C570 C566 1.353 . S
C571 H541 0.930 . S
C571 N572 1.330 . S
C571 C573 1.446 . S
N572 Co531 2.151 . S
N572 C571 1.330 . S
N572 C576 1.418 . S
C573 H552 0.929 . S
C573 C571 1.446 . S
C573 C574 1.332 . S
C574 H554 0.931 . S
C574 C573 1.332 . S
C574 C575 1.267 . S
C575 H543 0.929 . S
C575 C574 1.267 . S
C575 C576 1.251 . S
C576 H546 0.929 . S
C576 N572 1.418 . S
C576 C575 1.251 . S
C577 H544 0.930 . S
C577 C579 1.435 . S
C577 C582 1.261 . S
C578 H545 0.945 . S
C578 N580 1.339 . S
C578 C581 1.330 1_455 S
C579 H547 0.916 1_655 S
C579 C577 1.435 . S
C579 N580 1.244 1_655 S
N580 Co531 2.214 . S
N580 C578 1.339 . S
N580 C579 1.244 1_455 S
C581 H551 0.931 . S
C581 C578 1.330 1_655 S
C581 C582 1.312 . S
C582 H553 0.930 . S
C582 C577 1.261 . S
C582 C581 1.312 . S
C583 O555 1.214 . S
C583 O563 1.234 . S
C584 H556 0.929 . S
C584 C587 1.391 . S
C584 C589 1.391 . S
C585 H557 0.929 . S
C585 C586 1.390 . S
C585 N588 1.391 . S
C586 H558 0.930 . S
C586 C585 1.390 . S
C586 C587 1.392 . S
C587 H559 0.929 . S
C587 C584 1.391 . S
C587 C586 1.392 . S
N588 Co532 2.257 . S
N588 C585 1.391 . S
N588 C589 1.388 . S
C589 H560 0.930 . S
C589 C584 1.391 . S
C589 N588 1.388 . S
Co590 O592 2.143 . S
Co590 O598 2.074 . S
Co590 O601 2.093 . S
Co590 O614 2.097 . S
Co590 N631 2.151 . S
Co590 N639 2.214 . S
Co591 O592 2.160 . S
Co591 O597 2.058 . S
Co591 O607 2.057 . S
Co591 O622 2.037 . S
Co591 N626 2.145 . S
Co591 N647 2.257 . S
O592 Co590 2.143 . S
O592 Co591 2.160 . S
C593 O594 1.278 . S
C593 O601 1.224 . S
O594 C593 1.278 . S
C595 O596 1.245 . S
C595 O607 1.232 . S
O596 C595 1.245 . S
O597 Co591 2.058 . S
O597 C623 1.269 . S
O598 Co590 2.074 . S
O598 C623 1.257 . S
H599 C624 0.930 . S
H600 C630 0.930 . S
O601 Co590 2.093 . S
O601 C593 1.224 . S
H602 C634 0.929 . S
H603 C636 0.930 . S
H604 C637 0.930 . S
H605 C635 0.929 . S
H606 C638 0.928 . S
O607 Co591 2.057 . S
O607 C595 1.232 . S
H608 C627 0.929 . S
H609 C628 0.929 . S
H610 C640 0.931 . S
H611 C632 0.929 . S
H612 C641 0.930 . S
H613 C633 0.931 . S
O614 Co590 2.097 . S
O614 C642 1.214 . S
H615 C643 0.929 . S
H616 C644 0.929 . S
H617 C645 0.930 . S
H618 C646 0.929 . S
H619 C648 0.930 . S
H620 C625 0.930 . S
H621 C629 0.930 . S
O622 Co591 2.037 . S
O622 C642 1.234 . S
C623 O597 1.269 . S
C623 O598 1.257 . S
C624 H599 0.930 . S
C624 C627 1.388 . S
C624 C629 1.418 . S
C625 H620 0.930 . S
C625 C628 1.404 . S
C625 C629 1.353 . S
N626 Co591 2.145 . S
N626 C627 1.397 . S
N626 C628 1.334 . S
C627 H608 0.929 . S
C627 C624 1.388 . S
C627 N626 1.397 . S
C628 H609 0.929 . S
C628 C625 1.404 . S
C628 N626 1.334 . S
C629 H621 0.930 . S
C629 C624 1.418 . S
C629 C625 1.353 . S
C630 H600 0.930 . S
C630 N631 1.330 . S
C630 C632 1.446 . S
N631 Co590 2.151 . S
N631 C630 1.330 . S
N631 C635 1.418 . S
C632 H611 0.929 . S
C632 C630 1.446 . S
C632 C633 1.332 . S
C633 H613 0.931 . S
C633 C632 1.332 . S
C633 C634 1.267 . S
C634 H602 0.929 . S
C634 C633 1.267 . S
C634 C635 1.251 . S
C635 H605 0.929 . S
C635 N631 1.418 . S
C635 C634 1.251 . S
C636 H603 0.930 . S
C636 C638 1.406 1_455 S
C636 C641 1.261 . S
C637 H604 0.930 . S
C637 N639 1.325 . S
C637 C640 1.357 1_655 S
C638 H606 0.928 . S
C638 C636 1.406 1_655 S
C638 N639 1.261 . S
N639 Co590 2.214 . S
N639 C637 1.325 . S
N639 C638 1.261 . S
C640 H610 0.931 . S
C640 C637 1.357 1_455 S
C640 C641 1.312 . S
C641 H612 0.930 . S
C641 C636 1.261 . S
C641 C640 1.312 . S
C642 O614 1.214 . S
C642 O622 1.234 . S
C643 H615 0.929 . S
C643 C646 1.391 . S
C643 C648 1.391 . S
C644 H616 0.929 . S
C644 C645 1.390 . S
C644 N647 1.391 . S
C645 H617 0.930 . S
C645 C644 1.390 . S
C645 C646 1.392 . S
C646 H618 0.929 . S
C646 C643 1.391 . S
C646 C645 1.392 . S
N647 Co591 2.257 . S
N647 C644 1.391 . S
N647 C648 1.388 . S
C648 H619 0.930 . S
C648 C643 1.391 . S
C648 N647 1.388 . S
Co649 O651 2.143 . S
Co649 O657 2.074 . S
Co649 O660 2.093 . S
Co649 O673 2.097 . S
Co649 N690 2.151 . S
Co649 N698 2.214 . S
Co650 O651 2.160 . S
Co650 O656 2.058 . S
Co650 O666 2.057 . S
Co650 O681 2.037 . S
Co650 N685 2.145 . S
Co650 N706 2.257 . S
O651 Co649 2.143 . S
O651 Co650 2.160 . S
C652 O653 1.278 . S
C652 O660 1.224 . S
O653 C652 1.278 . S
C654 O655 1.245 . S
C654 O666 1.232 . S
O655 C654 1.245 . S
O656 Co650 2.058 . S
O656 C682 1.269 . S
O657 Co649 2.074 . S
O657 C682 1.257 . S
H658 C683 0.930 . S
H659 C689 0.930 . S
O660 Co649 2.093 . S
O660 C652 1.224 . S
H661 C693 0.929 . S
H662 C695 0.930 . S
H663 C696 0.930 . S
H664 C694 0.929 . S
H665 C697 0.928 . S
O666 Co650 2.057 . S
O666 C654 1.232 . S
H667 C686 0.929 . S
H668 C687 0.929 . S
H669 C699 0.931 . S
H670 C691 0.929 . S
H671 C700 0.930 . S
H672 C692 0.931 . S
O673 Co649 2.097 . S
O673 C701 1.214 . S
H674 C702 0.929 . S
H675 C703 0.929 . S
H676 C704 0.930 . S
H677 C705 0.929 . S
H678 C707 0.930 . S
H679 C684 0.930 . S
H680 C688 0.930 . S
O681 Co650 2.037 . S
O681 C701 1.234 . S
C682 O656 1.269 . S
C682 O657 1.257 . S
C683 H658 0.930 . S
C683 C686 1.388 . S
C683 C688 1.418 . S
C684 H679 0.930 . S
C684 C687 1.404 . S
C684 C688 1.353 . S
N685 Co650 2.145 . S
N685 C686 1.397 . S
N685 C687 1.334 . S
C686 H667 0.929 . S
C686 C683 1.388 . S
C686 N685 1.397 . S
C687 H668 0.929 . S
C687 C684 1.404 . S
C687 N685 1.334 . S
C688 H680 0.930 . S
C688 C683 1.418 . S
C688 C684 1.353 . S
C689 H659 0.930 . S
C689 N690 1.330 . S
C689 C691 1.446 . S
N690 Co649 2.151 . S
N690 C689 1.330 . S
N690 C694 1.418 . S
C691 H670 0.929 . S
C691 C689 1.446 . S
C691 C692 1.332 . S
C692 H672 0.931 . S
C692 C691 1.332 . S
C692 C693 1.267 . S
C693 H661 0.929 . S
C693 C692 1.267 . S
C693 C694 1.251 . S
C694 H664 0.929 . S
C694 N690 1.418 . S
C694 C693 1.251 . S
C695 H662 0.930 . S
C695 C697 1.406 . S
C695 C700 1.261 . S
C696 H663 0.930 . S
C696 N698 1.325 . S
C696 C699 1.357 . S
C697 H665 0.928 . S
C697 C695 1.406 . S
C697 N698 1.261 . S
N698 Co649 2.214 . S
N698 C696 1.325 . S
N698 C697 1.261 . S
C699 H669 0.931 . S
C699 C696 1.357 . S
C699 C700 1.312 . S
C700 H671 0.930 . S
C700 C695 1.261 . S
C700 C699 1.312 . S
C701 O673 1.214 . S
C701 O681 1.234 . S
C702 H674 0.929 . S
C702 C705 1.391 . S
C702 C707 1.391 . S
C703 H675 0.929 . S
C703 C704 1.390 . S
C703 N706 1.391 . S
C704 H676 0.930 . S
C704 C703 1.390 . S
C704 C705 1.392 . S
C705 H677 0.929 . S
C705 C702 1.391 . S
C705 C704 1.392 . S
N706 Co650 2.257 . S
N706 C703 1.391 . S
N706 C707 1.388 . S
C707 H678 0.930 . S
C707 C702 1.391 . S
C707 N706 1.388 . S
Co708 O710 2.143 . S
Co708 O716 2.074 . S
Co708 O719 2.093 . S
Co708 O732 2.097 . S
Co708 N749 2.151 . S
Co708 N757 2.214 . S
Co709 O710 2.160 . S
Co709 O715 2.058 . S
Co709 O725 2.057 . S
Co709 O740 2.037 . S
Co709 N744 2.145 . S
Co709 N765 2.257 . S
O710 Co708 2.143 . S
O710 Co709 2.160 . S
C711 O712 1.278 . S
C711 O719 1.224 . S
O712 C711 1.278 . S
C713 O714 1.245 . S
C713 O725 1.232 . S
O714 C713 1.245 . S
O715 Co709 2.058 . S
O715 C741 1.269 . S
O716 Co708 2.074 . S
O716 C741 1.257 . S
H717 C742 0.930 . S
H718 C748 0.930 . S
O719 Co708 2.093 . S
O719 C711 1.224 . S
H720 C752 0.929 . S
H721 C754 0.930 . S
H722 C755 0.930 . S
H723 C753 0.929 . S
H724 C756 0.928 . S
O725 Co709 2.057 . S
O725 C713 1.232 . S
H726 C745 0.929 . S
H727 C746 0.929 . S
H728 C758 0.931 . S
H729 C750 0.929 . S
H730 C759 0.930 . S
H731 C751 0.931 . S
O732 Co708 2.097 . S
O732 C760 1.214 . S
H733 C761 0.929 . S
H734 C762 0.929 . S
H735 C763 0.930 . S
H736 C764 0.929 . S
H737 C766 0.930 . S
H738 C743 0.930 . S
H739 C747 0.930 . S
O740 Co709 2.037 . S
O740 C760 1.234 . S
C741 O715 1.269 . S
C741 O716 1.257 . S
C742 H717 0.930 . S
C742 C745 1.388 . S
C742 C747 1.418 . S
C743 H738 0.930 . S
C743 C746 1.404 . S
C743 C747 1.353 . S
N744 Co709 2.145 . S
N744 C745 1.397 . S
N744 C746 1.334 . S
C745 H726 0.929 . S
C745 C742 1.388 . S
C745 N744 1.397 . S
C746 H727 0.929 . S
C746 C743 1.404 . S
C746 N744 1.334 . S
C747 H739 0.930 . S
C747 C742 1.418 . S
C747 C743 1.353 . S
C748 H718 0.930 . S
C748 N749 1.330 . S
C748 C750 1.446 . S
N749 Co708 2.151 . S
N749 C748 1.330 . S
N749 C753 1.418 . S
C750 H729 0.929 . S
C750 C748 1.446 . S
C750 C751 1.332 . S
C751 H731 0.931 . S
C751 C750 1.332 . S
C751 C752 1.267 . S
C752 H720 0.929 . S
C752 C751 1.267 . S
C752 C753 1.251 . S
C753 H723 0.929 . S
C753 N749 1.418 . S
C753 C752 1.251 . S
C754 H721 0.930 . S
C754 C756 1.406 . S
C754 C759 1.261 . S
C755 H722 0.930 . S
C755 N757 1.325 . S
C755 C758 1.357 . S
C756 H724 0.928 . S
C756 C754 1.406 . S
C756 N757 1.261 . S
N757 Co708 2.214 . S
N757 C755 1.325 . S
N757 C756 1.261 . S
C758 H728 0.931 . S
C758 C755 1.357 . S
C758 C759 1.312 . S
C759 H730 0.930 . S
C759 C754 1.261 . S
C759 C758 1.312 . S
C760 O732 1.214 . S
C760 O740 1.234 . S
C761 H733 0.929 . S
C761 C764 1.391 . S
C761 C766 1.391 . S
C762 H734 0.929 . S
C762 C763 1.390 . S
C762 N765 1.391 . S
C763 H735 0.930 . S
C763 C762 1.390 . S
C763 C764 1.392 . S
C764 H736 0.929 . S
C764 C761 1.391 . S
C764 C763 1.392 . S
N765 Co709 2.257 . S
N765 C762 1.391 . S
N765 C766 1.388 . S
C766 H737 0.930 . S
C766 C761 1.391 . S
C766 N765 1.388 . S
Co767 O769 2.143 . S
Co767 O775 2.074 . S
Co767 O778 2.093 . S
Co767 O791 2.097 . S
Co767 N808 2.151 . S
Co767 N816 2.214 . S
Co768 O769 2.160 . S
Co768 O774 2.058 . S
Co768 O784 2.057 . S
Co768 O799 2.037 . S
Co768 N803 2.145 . S
Co768 N824 2.257 . S
O769 Co767 2.143 . S
O769 Co768 2.160 . S
C770 O771 1.278 . S
C770 O778 1.224 . S
O771 C770 1.278 . S
C772 O773 1.245 . S
C772 O784 1.232 . S
O773 C772 1.245 . S
O774 Co768 2.058 . S
O774 C800 1.269 . S
O775 Co767 2.074 . S
O775 C800 1.257 . S
H776 C801 0.930 . S
H777 C807 0.930 . S
O778 Co767 2.093 . S
O778 C770 1.224 . S
H779 C811 0.929 . S
H780 C813 0.930 . S
H781 C814 0.930 . S
H782 C812 0.929 . S
H783 C815 0.928 . S
O784 Co768 2.057 . S
O784 C772 1.232 . S
H785 C804 0.929 . S
H786 C805 0.929 . S
H787 C817 0.931 . S
H788 C809 0.929 . S
H789 C818 0.930 . S
H790 C810 0.931 . S
O791 Co767 2.097 . S
O791 C819 1.214 . S
H792 C820 0.929 . S
H793 C821 0.929 . S
H794 C822 0.930 . S
H795 C823 0.929 . S
H796 C825 0.930 . S
H797 C802 0.930 . S
H798 C806 0.930 . S
O799 Co768 2.037 . S
O799 C819 1.234 . S
C800 O774 1.269 . S
C800 O775 1.257 . S
C801 H776 0.930 . S
C801 C804 1.388 . S
C801 C806 1.418 . S
C802 H797 0.930 . S
C802 C805 1.404 . S
C802 C806 1.353 . S
N803 Co768 2.145 . S
N803 C804 1.397 . S
N803 C805 1.334 . S
C804 H785 0.929 . S
C804 C801 1.388 . S
C804 N803 1.397 . S
C805 H786 0.929 . S
C805 C802 1.404 . S
C805 N803 1.334 . S
C806 H798 0.930 . S
C806 C801 1.418 . S
C806 C802 1.353 . S
C807 H777 0.930 . S
C807 N808 1.330 . S
C807 C809 1.446 . S
N808 Co767 2.151 . S
N808 C807 1.330 . S
N808 C812 1.418 . S
C809 H788 0.929 . S
C809 C807 1.446 . S
C809 C810 1.332 . S
C810 H790 0.931 . S
C810 C809 1.332 . S
C810 C811 1.267 . S
C811 H779 0.929 . S
C811 C810 1.267 . S
C811 C812 1.251 . S
C812 H782 0.929 . S
C812 N808 1.418 . S
C812 C811 1.251 . S
C813 H780 0.930 . S
C813 C815 1.406 1_545 S
C813 C818 1.261 . S
C814 H781 0.930 . S
C814 N816 1.325 . S
C814 C817 1.357 1_565 S
C815 H783 0.928 . S
C815 C813 1.406 1_565 S
C815 N816 1.261 . S
N816 Co767 2.214 . S
N816 C814 1.325 . S
N816 C815 1.261 . S
C817 H787 0.931 . S
C817 C814 1.357 1_545 S
C817 C818 1.312 . S
C818 H789 0.930 . S
C818 C813 1.261 . S
C818 C817 1.312 . S
C819 O791 1.214 . S
C819 O799 1.234 . S
C820 H792 0.929 . S
C820 C823 1.391 . S
C820 C825 1.391 . S
C821 H793 0.929 . S
C821 C822 1.390 . S
C821 N824 1.391 . S
C822 H794 0.930 . S
C822 C821 1.390 . S
C822 C823 1.392 . S
C823 H795 0.929 . S
C823 C820 1.391 . S
C823 C822 1.392 . S
N824 Co768 2.257 . S
N824 C821 1.391 . S
N824 C825 1.388 . S
C825 H796 0.930 . S
C825 C820 1.391 . S
C825 N824 1.388 . S
Co826 O828 2.143 . S
Co826 O834 2.074 . S
Co826 O837 2.093 . S
Co826 O850 2.097 . S
Co826 N867 2.151 . S
Co826 N875 2.214 . S
Co827 O828 2.160 . S
Co827 O833 2.058 . S
Co827 O843 2.057 . S
Co827 O858 2.037 . S
Co827 N862 2.145 . S
Co827 N883 2.257 . S
O828 Co826 2.143 . S
O828 Co827 2.160 . S
C829 O830 1.278 . S
C829 O837 1.224 . S
O830 C829 1.278 . S
C831 O832 1.245 . S
C831 O843 1.232 . S
O832 C831 1.245 . S
O833 Co827 2.058 . S
O833 C859 1.269 . S
O834 Co826 2.074 . S
O834 C859 1.257 . S
H835 C860 0.930 . S
H836 C866 0.930 . S
O837 Co826 2.093 . S
O837 C829 1.224 . S
H838 C870 0.929 . S
H839 C872 0.930 . S
H840 C873 0.930 . S
H841 C871 0.929 . S
H842 C874 0.928 . S
O843 Co827 2.057 . S
O843 C831 1.232 . S
H844 C863 0.929 . S
H845 C864 0.929 . S
H846 C876 0.931 . S
H847 C868 0.929 . S
H848 C877 0.930 . S
H849 C869 0.931 . S
O850 Co826 2.097 . S
O850 C878 1.214 . S
H851 C879 0.929 . S
H852 C880 0.929 . S
H853 C881 0.930 . S
H854 C882 0.929 . S
H855 C884 0.930 . S
H856 C861 0.930 . S
H857 C865 0.930 . S
O858 Co827 2.037 . S
O858 C878 1.234 . S
C859 O833 1.269 . S
C859 O834 1.257 . S
C860 H835 0.930 . S
C860 C863 1.388 . S
C860 C865 1.418 . S
C861 H856 0.930 . S
C861 C864 1.404 . S
C861 C865 1.353 . S
N862 Co827 2.145 . S
N862 C863 1.397 . S
N862 C864 1.334 . S
C863 H844 0.929 . S
C863 C860 1.388 . S
C863 N862 1.397 . S
C864 H845 0.929 . S
C864 C861 1.404 . S
C864 N862 1.334 . S
C865 H857 0.930 . S
C865 C860 1.418 . S
C865 C861 1.353 . S
C866 H836 0.930 . S
C866 N867 1.330 . S
C866 C868 1.446 . S
N867 Co826 2.151 . S
N867 C866 1.330 . S
N867 C871 1.418 . S
C868 H847 0.929 . S
C868 C866 1.446 . S
C868 C869 1.332 . S
C869 H849 0.931 . S
C869 C868 1.332 . S
C869 C870 1.267 . S
C870 H838 0.929 . S
C870 C869 1.267 . S
C870 C871 1.251 . S
C871 H841 0.929 . S
C871 N867 1.418 . S
C871 C870 1.251 . S
C872 H839 0.930 . S
C872 C874 1.406 . S
C872 C877 1.261 . S
C873 H840 0.930 . S
C873 N875 1.325 . S
C873 C876 1.357 . S
C874 H842 0.928 . S
C874 C872 1.406 . S
C874 N875 1.261 . S
N875 Co826 2.214 . S
N875 C873 1.325 . S
N875 C874 1.261 . S
C876 H846 0.931 . S
C876 C873 1.357 . S
C876 C877 1.312 . S
C877 H848 0.930 . S
C877 C872 1.261 . S
C877 C876 1.312 . S
C878 O850 1.214 . S
C878 O858 1.234 . S
C879 H851 0.929 . S
C879 C882 1.391 . S
C879 C884 1.391 . S
C880 H852 0.929 . S
C880 C881 1.390 . S
C880 N883 1.391 . S
C881 H853 0.930 . S
C881 C880 1.390 . S
C881 C882 1.392 . S
C882 H854 0.929 . S
C882 C879 1.391 . S
C882 C881 1.392 . S
N883 Co827 2.257 . S
N883 C880 1.391 . S
N883 C884 1.388 . S
C884 H855 0.930 . S
C884 C879 1.391 . S
C884 N883 1.388 . S
Co885 O887 2.143 . S
Co885 O893 2.074 . S
Co885 O896 2.093 . S
Co885 O909 2.097 . S
Co885 N926 2.151 . S
Co885 N934 2.214 . S
Co886 O887 2.160 . S
Co886 O892 2.058 . S
Co886 O902 2.057 . S
Co886 O917 2.037 . S
Co886 N921 2.145 . S
Co886 N942 2.257 . S
O887 Co885 2.143 . S
O887 Co886 2.160 . S
C888 O889 1.278 . S
C888 O896 1.224 . S
O889 C888 1.278 . S
C890 O891 1.245 . S
C890 O902 1.232 . S
O891 C890 1.245 . S
O892 Co886 2.058 . S
O892 C918 1.269 . S
O893 Co885 2.074 . S
O893 C918 1.257 . S
H894 C919 0.930 . S
H895 C925 0.930 . S
O896 Co885 2.093 . S
O896 C888 1.224 . S
H897 C929 0.929 . S
H898 C931 0.930 . S
H899 C932 0.945 . S
H900 C930 0.929 . S
H901 C933 0.916 1_545 S
O902 Co886 2.057 . S
O902 C890 1.232 . S
H903 C922 0.929 . S
H904 C923 0.929 . S
H905 C935 0.931 . S
H906 C927 0.929 . S
H907 C936 0.930 . S
H908 C928 0.931 . S
O909 Co885 2.097 . S
O909 C937 1.214 . S
H910 C938 0.929 . S
H911 C939 0.929 . S
H912 C940 0.930 . S
H913 C941 0.929 . S
H914 C943 0.930 . S
H915 C920 0.930 . S
H916 C924 0.930 . S
O917 Co886 2.037 . S
O917 C937 1.234 . S
C918 O892 1.269 . S
C918 O893 1.257 . S
C919 H894 0.930 . S
C919 C922 1.388 . S
C919 C924 1.418 . S
C920 H915 0.930 . S
C920 C923 1.404 . S
C920 C924 1.353 . S
N921 Co886 2.145 . S
N921 C922 1.397 . S
N921 C923 1.334 . S
C922 H903 0.929 . S
C922 C919 1.388 . S
C922 N921 1.397 . S
C923 H904 0.929 . S
C923 C920 1.404 . S
C923 N921 1.334 . S
C924 H916 0.930 . S
C924 C919 1.418 . S
C924 C920 1.353 . S
C925 H895 0.930 . S
C925 N926 1.330 . S
C925 C927 1.446 . S
N926 Co885 2.151 . S
N926 C925 1.330 . S
N926 C930 1.418 . S
C927 H906 0.929 . S
C927 C925 1.446 . S
C927 C928 1.332 . S
C928 H908 0.931 . S
C928 C927 1.332 . S
C928 C929 1.267 . S
C929 H897 0.929 . S
C929 C928 1.267 . S
C929 C930 1.251 . S
C930 H900 0.929 . S
C930 N926 1.418 . S
C930 C929 1.251 . S
C931 H898 0.930 . S
C931 C933 1.435 . S
C931 C936 1.261 . S
C932 H899 0.945 . S
C932 N934 1.339 . S
C932 C935 1.330 1_545 S
C933 H901 0.916 1_565 S
C933 C931 1.435 . S
C933 N934 1.244 1_565 S
N934 Co885 2.214 . S
N934 C932 1.339 . S
N934 C933 1.244 1_545 S
C935 H905 0.931 . S
C935 C932 1.330 1_565 S
C935 C936 1.312 . S
C936 H907 0.930 . S
C936 C931 1.261 . S
C936 C935 1.312 . S
C937 O909 1.214 . S
C937 O917 1.234 . S
C938 H910 0.929 . S
C938 C941 1.391 . S
C938 C943 1.391 . S
C939 H911 0.929 . S
C939 C940 1.390 . S
C939 N942 1.391 . S
C940 H912 0.930 . S
C940 C939 1.390 . S
C940 C941 1.392 . S
C941 H913 0.929 . S
C941 C938 1.391 . S
C941 C940 1.392 . S
N942 Co886 2.257 . S
N942 C939 1.391 . S
N942 C943 1.388 . S
C943 H914 0.930 . S
C943 C938 1.391 . S
C943 N942 1.388 . S
Co944 O946 2.143 . S
Co944 O952 2.074 . S
Co944 O955 2.093 . S
Co944 O968 2.097 . S
Co944 N985 2.151 . S
Co944 N993 2.214 . S
Co945 O946 2.160 . S
Co945 O951 2.058 . S
Co945 O961 2.057 . S
Co945 O976 2.037 . S
Co945 N980 2.145 . S
Co945 N1001 2.257 . S
O946 Co944 2.143 . S
O946 Co945 2.160 . S
C947 O948 1.278 . S
C947 O955 1.224 . S
O948 C947 1.278 . S
C949 O950 1.245 . S
C949 O961 1.232 . S
O950 C949 1.245 . S
O951 Co945 2.058 . S
O951 C977 1.269 . S
O952 Co944 2.074 . S
O952 C977 1.257 . S
H953 C978 0.930 . S
H954 C984 0.930 . S
O955 Co944 2.093 . S
O955 C947 1.224 . S
H956 C988 0.929 . S
H957 C990 0.930 . S
H958 C991 0.930 . S
H959 C989 0.929 . S
H960 C992 0.928 . S
O961 Co945 2.057 . S
O961 C949 1.232 . S
H962 C981 0.929 . S
H963 C982 0.929 . S
H964 C994 0.931 . S
H965 C986 0.929 . S
H966 C995 0.930 . S
H967 C987 0.931 . S
O968 Co944 2.097 . S
O968 C996 1.214 . S
H969 C997 0.929 . S
H970 C998 0.929 . S
H971 C999 0.930 . S
H972 C1000 0.929 . S
H973 C1002 0.930 . S
H974 C979 0.930 . S
H975 C983 0.930 . S
O976 Co945 2.037 . S
O976 C996 1.234 . S
C977 O951 1.269 . S
C977 O952 1.257 . S
C978 H953 0.930 . S
C978 C981 1.388 . S
C978 C983 1.418 . S
C979 H974 0.930 . S
C979 C982 1.404 . S
C979 C983 1.353 . S
N980 Co945 2.145 . S
N980 C981 1.397 . S
N980 C982 1.334 . S
C981 H962 0.929 . S
C981 C978 1.388 . S
C981 N980 1.397 . S
C982 H963 0.929 . S
C982 C979 1.404 . S
C982 N980 1.334 . S
C983 H975 0.930 . S
C983 C978 1.418 . S
C983 C979 1.353 . S
C984 H954 0.930 . S
C984 N985 1.330 . S
C984 C986 1.446 . S
N985 Co944 2.151 . S
N985 C984 1.330 . S
N985 C989 1.418 . S
C986 H965 0.929 . S
C986 C984 1.446 . S
C986 C987 1.332 . S
C987 H967 0.931 . S
C987 C986 1.332 . S
C987 C988 1.267 . S
C988 H956 0.929 . S
C988 C987 1.267 . S
C988 C989 1.251 . S
C989 H959 0.929 . S
C989 N985 1.418 . S
C989 C988 1.251 . S
C990 H957 0.930 . S
C990 C992 1.406 . S
C990 C995 1.261 . S
C991 H958 0.930 . S
C991 N993 1.325 . S
C991 C994 1.357 . S
C992 H960 0.928 . S
C992 C990 1.406 . S
C992 N993 1.261 . S
N993 Co944 2.214 . S
N993 C991 1.325 . S
N993 C992 1.261 . S
C994 H964 0.931 . S
C994 C991 1.357 . S
C994 C995 1.312 . S
C995 H966 0.930 . S
C995 C990 1.261 . S
C995 C994 1.312 . S
C996 O968 1.214 . S
C996 O976 1.234 . S
C997 H969 0.929 . S
C997 C1000 1.391 . S
C997 C1002 1.391 . S
C998 H970 0.929 . S
C998 C999 1.390 . S
C998 N1001 1.391 . S
C999 H971 0.930 . S
C999 C998 1.390 . S
C999 C1000 1.392 . S
C1000 H972 0.929 . S
C1000 C997 1.391 . S
C1000 C999 1.392 . S
N1001 Co945 2.257 . S
N1001 C998 1.391 . S
N1001 C1002 1.388 . S
C1002 H973 0.930 . S
C1002 C997 1.391 . S
C1002 N1001 1.388 . S
Co1003 O1005 2.143 . S
Co1003 O1011 2.074 . S
Co1003 O1014 2.093 . S
Co1003 O1027 2.097 1_565 S
Co1003 N1044 2.151 . S
Co1003 N1052 2.214 . S
Co1004 O1005 2.160 1_545 S
Co1004 O1010 2.058 1_545 S
Co1004 O1020 2.057 . S
Co1004 O1035 2.037 . S
Co1004 N1039 2.145 . S
Co1004 N1060 2.257 . S
O1005 Co1003 2.143 . S
O1005 Co1004 2.160 1_565 S
C1006 O1007 1.278 . S
C1006 O1014 1.224 1_545 S
O1007 C1006 1.278 . S
C1008 O1009 1.245 1_545 S
C1008 O1020 1.232 . S
O1009 C1008 1.245 1_565 S
O1010 Co1004 2.058 1_565 S
O1010 C1036 1.269 . S
O1011 Co1003 2.074 . S
O1011 C1036 1.257 . S
H1012 C1037 0.930 . S
H1013 C1043 0.930 . S
O1014 Co1003 2.093 . S
O1014 C1006 1.224 1_565 S
H1015 C1047 0.929 . S
H1016 C1049 0.930 . S
H1017 C1050 0.930 . S
H1018 C1048 0.929 . S
H1019 C1051 0.928 . S
O1020 Co1004 2.057 . S
O1020 C1008 1.232 . S
H1021 C1040 0.929 . S
H1022 C1041 0.929 . S
H1023 C1053 0.931 . S
H1024 C1045 0.929 . S
H1025 C1054 0.930 . S
H1026 C1046 0.931 . S
O1027 Co1003 2.097 1_545 S
O1027 C1055 1.214 . S
H1028 C1056 0.929 . S
H1029 C1057 0.929 . S
H1030 C1058 0.930 . S
H1031 C1059 0.929 . S
H1032 C1061 0.930 . S
H1033 C1038 0.930 . S
H1034 C1042 0.930 . S
O1035 Co1004 2.037 . S
O1035 C1055 1.234 . S
C1036 O1010 1.269 . S
C1036 O1011 1.257 . S
C1037 H1012 0.930 . S
C1037 C1040 1.388 . S
C1037 C1042 1.418 . S
C1038 H1033 0.930 . S
C1038 C1041 1.404 . S
C1038 C1042 1.353 . S
N1039 Co1004 2.145 . S
N1039 C1040 1.397 . S
N1039 C1041 1.334 . S
C1040 H1021 0.929 . S
C1040 C1037 1.388 . S
C1040 N1039 1.397 . S
C1041 H1022 0.929 . S
C1041 C1038 1.404 . S
C1041 N1039 1.334 . S
C1042 H1034 0.930 . S
C1042 C1037 1.418 . S
C1042 C1038 1.353 . S
C1043 H1013 0.930 . S
C1043 N1044 1.330 . S
C1043 C1045 1.446 . S
N1044 Co1003 2.151 . S
N1044 C1043 1.330 . S
N1044 C1048 1.418 . S
C1045 H1024 0.929 . S
C1045 C1043 1.446 . S
C1045 C1046 1.332 . S
C1046 H1026 0.931 . S
C1046 C1045 1.332 . S
C1046 C1047 1.267 . S
C1047 H1015 0.929 . S
C1047 C1046 1.267 . S
C1047 C1048 1.251 . S
C1048 H1018 0.929 . S
C1048 N1044 1.418 . S
C1048 C1047 1.251 . S
C1049 H1016 0.930 . S
C1049 C1051 1.406 . S
C1049 C1054 1.261 . S
C1050 H1017 0.930 . S
C1050 N1052 1.325 . S
C1050 C1053 1.357 . S
C1051 H1019 0.928 . S
C1051 C1049 1.406 . S
C1051 N1052 1.261 . S
N1052 Co1003 2.214 . S
N1052 C1050 1.325 . S
N1052 C1051 1.261 . S
C1053 H1023 0.931 . S
C1053 C1050 1.357 . S
C1053 C1054 1.312 . S
C1054 H1025 0.930 . S
C1054 C1049 1.261 . S
C1054 C1053 1.312 . S
C1055 O1027 1.214 . S
C1055 O1035 1.234 . S
C1056 H1028 0.929 . S
C1056 C1059 1.391 . S
C1056 C1061 1.391 . S
C1057 H1029 0.929 . S
C1057 C1058 1.390 . S
C1057 N1060 1.391 . S
C1058 H1030 0.930 . S
C1058 C1057 1.390 . S
C1058 C1059 1.392 . S
C1059 H1031 0.929 . S
C1059 C1056 1.391 . S
C1059 C1058 1.392 . S
N1060 Co1004 2.257 . S
N1060 C1057 1.391 . S
N1060 C1061 1.388 . S
C1061 H1032 0.930 . S
C1061 C1056 1.391 . S
C1061 N1060 1.388 . S
Co1062 O1064 2.143 . S
Co1062 O1070 2.074 . S
Co1062 O1073 2.093 . S
Co1062 O1086 2.097 . S
Co1062 N1103 2.151 . S
Co1062 N1111 2.214 . S
Co1063 O1064 2.160 . S
Co1063 O1069 2.058 . S
Co1063 O1079 2.057 . S
Co1063 O1094 2.037 . S
Co1063 N1098 2.145 . S
Co1063 N1119 2.257 . S
O1064 Co1062 2.143 . S
O1064 Co1063 2.160 . S
C1065 O1066 1.278 . S
C1065 O1073 1.224 . S
O1066 C1065 1.278 . S
C1067 O1068 1.245 . S
C1067 O1079 1.232 . S
O1068 C1067 1.245 . S
O1069 Co1063 2.058 . S
O1069 C1095 1.269 . S
O1070 Co1062 2.074 . S
O1070 C1095 1.257 . S
H1071 C1096 0.930 . S
H1072 C1102 0.930 . S
O1073 Co1062 2.093 . S
O1073 C1065 1.224 . S
H1074 C1106 0.929 . S
H1075 C1108 0.930 . S
H1076 C1109 0.930 . S
H1077 C1107 0.929 . S
H1078 C1110 0.928 . S
O1079 Co1063 2.057 . S
O1079 C1067 1.232 . S
H1080 C1099 0.929 . S
H1081 C1100 0.929 . S
H1082 C1112 0.931 . S
H1083 C1104 0.929 . S
H1084 C1113 0.930 . S
H1085 C1105 0.931 . S
O1086 Co1062 2.097 . S
O1086 C1114 1.214 . S
H1087 C1115 0.929 . S
H1088 C1116 0.929 . S
H1089 C1117 0.930 . S
H1090 C1118 0.929 . S
H1091 C1120 0.930 . S
H1092 C1097 0.930 . S
H1093 C1101 0.930 . S
O1094 Co1063 2.037 . S
O1094 C1114 1.234 . S
C1095 O1069 1.269 . S
C1095 O1070 1.257 . S
C1096 H1071 0.930 . S
C1096 C1099 1.388 . S
C1096 C1101 1.418 . S
C1097 H1092 0.930 . S
C1097 C1100 1.404 . S
C1097 C1101 1.353 . S
N1098 Co1063 2.145 . S
N1098 C1099 1.397 . S
N1098 C1100 1.334 . S
C1099 H1080 0.929 . S
C1099 C1096 1.388 . S
C1099 N1098 1.397 . S
C1100 H1081 0.929 . S
C1100 C1097 1.404 . S
C1100 N1098 1.334 . S
C1101 H1093 0.930 . S
C1101 C1096 1.418 . S
C1101 C1097 1.353 . S
C1102 H1072 0.930 . S
C1102 N1103 1.330 . S
C1102 C1104 1.446 . S
N1103 Co1062 2.151 . S
N1103 C1102 1.330 . S
N1103 C1107 1.418 . S
C1104 H1083 0.929 . S
C1104 C1102 1.446 . S
C1104 C1105 1.332 . S
C1105 H1085 0.931 . S
C1105 C1104 1.332 . S
C1105 C1106 1.267 . S
C1106 H1074 0.929 . S
C1106 C1105 1.267 . S
C1106 C1107 1.251 . S
C1107 H1077 0.929 . S
C1107 N1103 1.418 . S
C1107 C1106 1.251 . S
C1108 H1075 0.930 . S
C1108 C1110 1.406 1_554 S
C1108 C1113 1.261 . S
C1109 H1076 0.930 . S
C1109 N1111 1.325 . S
C1109 C1112 1.357 1_556 S
C1110 H1078 0.928 . S
C1110 C1108 1.406 1_556 S
C1110 N1111 1.261 . S
N1111 Co1062 2.214 . S
N1111 C1109 1.325 . S
N1111 C1110 1.261 . S
C1112 H1082 0.931 . S
C1112 C1109 1.357 1_554 S
C1112 C1113 1.312 . S
C1113 H1084 0.930 . S
C1113 C1108 1.261 . S
C1113 C1112 1.312 . S
C1114 O1086 1.214 . S
C1114 O1094 1.234 . S
C1115 H1087 0.929 . S
C1115 C1118 1.391 . S
C1115 C1120 1.391 . S
C1116 H1088 0.929 . S
C1116 C1117 1.390 . S
C1116 N1119 1.391 . S
C1117 H1089 0.930 . S
C1117 C1116 1.390 . S
C1117 C1118 1.392 . S
C1118 H1090 0.929 . S
C1118 C1115 1.391 . S
C1118 C1117 1.392 . S
N1119 Co1063 2.257 . S
N1119 C1116 1.391 . S
N1119 C1120 1.388 . S
C1120 H1091 0.930 . S
C1120 C1115 1.391 . S
C1120 N1119 1.388 . S
Co1121 O1123 2.143 . S
Co1121 O1129 2.074 . S
Co1121 O1132 2.093 . S
Co1121 O1145 2.097 1_545 S
Co1121 N1162 2.151 . S
Co1121 N1170 2.214 . S
Co1122 O1123 2.160 1_565 S
Co1122 O1128 2.058 1_565 S
Co1122 O1138 2.057 . S
Co1122 O1153 2.037 . S
Co1122 N1157 2.145 . S
Co1122 N1178 2.257 . S
O1123 Co1121 2.143 . S
O1123 Co1122 2.160 1_545 S
C1124 O1125 1.278 . S
C1124 O1132 1.224 1_565 S
O1125 C1124 1.278 . S
C1126 O1127 1.245 1_565 S
C1126 O1138 1.232 . S
O1127 C1126 1.245 1_545 S
O1128 Co1122 2.058 1_545 S
O1128 C1154 1.269 . S
O1129 Co1121 2.074 . S
O1129 C1154 1.257 . S
H1130 C1155 0.930 . S
H1131 C1161 0.930 . S
O1132 Co1121 2.093 . S
O1132 C1124 1.224 1_545 S
H1133 C1165 0.929 . S
H1134 C1167 0.930 . S
H1135 C1168 0.930 . S
H1136 C1166 0.929 . S
H1137 C1169 0.928 . S
O1138 Co1122 2.057 . S
O1138 C1126 1.232 . S
H1139 C1158 0.929 . S
H1140 C1159 0.929 . S
H1141 C1171 0.931 . S
H1142 C1163 0.929 . S
H1143 C1172 0.930 . S
H1144 C1164 0.931 . S
O1145 Co1121 2.097 1_565 S
O1145 C1173 1.214 . S
H1146 C1174 0.929 . S
H1147 C1175 0.929 . S
H1148 C1176 0.930 . S
H1149 C1177 0.929 . S
H1150 C1179 0.930 . S
H1151 C1156 0.930 . S
H1152 C1160 0.930 . S
O1153 Co1122 2.037 . S
O1153 C1173 1.234 . S
C1154 O1128 1.269 . S
C1154 O1129 1.257 . S
C1155 H1130 0.930 . S
C1155 C1158 1.388 . S
C1155 C1160 1.418 . S
C1156 H1151 0.930 . S
C1156 C1159 1.404 . S
C1156 C1160 1.353 . S
N1157 Co1122 2.145 . S
N1157 C1158 1.397 . S
N1157 C1159 1.334 . S
C1158 H1139 0.929 . S
C1158 C1155 1.388 . S
C1158 N1157 1.397 . S
C1159 H1140 0.929 . S
C1159 C1156 1.404 . S
C1159 N1157 1.334 . S
C1160 H1152 0.930 . S
C1160 C1155 1.418 . S
C1160 C1156 1.353 . S
C1161 H1131 0.930 . S
C1161 N1162 1.330 . S
C1161 C1163 1.446 . S
N1162 Co1121 2.151 . S
N1162 C1161 1.330 . S
N1162 C1166 1.418 . S
C1163 H1142 0.929 . S
C1163 C1161 1.446 . S
C1163 C1164 1.332 . S
C1164 H1144 0.931 . S
C1164 C1163 1.332 . S
C1164 C1165 1.267 . S
C1165 H1133 0.929 . S
C1165 C1164 1.267 . S
C1165 C1166 1.251 . S
C1166 H1136 0.929 . S
C1166 N1162 1.418 . S
C1166 C1165 1.251 . S
C1167 H1134 0.930 . S
C1167 C1169 1.406 1_554 S
C1167 C1172 1.261 . S
C1168 H1135 0.930 . S
C1168 N1170 1.325 . S
C1168 C1171 1.357 1_556 S
C1169 H1137 0.928 . S
C1169 C1167 1.406 1_556 S
C1169 N1170 1.261 . S
N1170 Co1121 2.214 . S
N1170 C1168 1.325 . S
N1170 C1169 1.261 . S
C1171 H1141 0.931 . S
C1171 C1168 1.357 1_554 S
C1171 C1172 1.312 . S
C1172 H1143 0.930 . S
C1172 C1167 1.261 . S
C1172 C1171 1.312 . S
C1173 O1145 1.214 . S
C1173 O1153 1.234 . S
C1174 H1146 0.929 . S
C1174 C1177 1.391 . S
C1174 C1179 1.391 . S
C1175 H1147 0.929 . S
C1175 C1176 1.390 . S
C1175 N1178 1.391 . S
C1176 H1148 0.930 . S
C1176 C1175 1.390 . S
C1176 C1177 1.392 . S
C1177 H1149 0.929 . S
C1177 C1174 1.391 . S
C1177 C1176 1.392 . S
N1178 Co1122 2.257 . S
N1178 C1175 1.391 . S
N1178 C1179 1.388 . S
C1179 H1150 0.930 . S
C1179 C1174 1.391 . S
C1179 N1178 1.388 . S
Co1180 O1182 2.143 . S
Co1180 O1188 2.074 . S
Co1180 O1191 2.093 . S
Co1180 O1204 2.097 . S
Co1180 N1221 2.151 . S
Co1180 N1229 2.214 . S
Co1181 O1182 2.160 . S
Co1181 O1187 2.058 . S
Co1181 O1197 2.057 . S
Co1181 O1212 2.037 . S
Co1181 N1216 2.145 . S
Co1181 N1237 2.257 . S
O1182 Co1180 2.143 . S
O1182 Co1181 2.160 . S
C1183 O1184 1.278 . S
C1183 O1191 1.224 . S
O1184 C1183 1.278 . S
C1185 O1186 1.245 . S
C1185 O1197 1.232 . S
O1186 C1185 1.245 . S
O1187 Co1181 2.058 . S
O1187 C1213 1.269 . S
O1188 Co1180 2.074 . S
O1188 C1213 1.257 . S
H1189 C1214 0.930 . S
H1190 C1220 0.930 . S
O1191 Co1180 2.093 . S
O1191 C1183 1.224 . S
H1192 C1224 0.929 . S
H1193 C1226 0.930 . S
H1194 C1227 0.930 . S
H1195 C1225 0.929 . S
H1196 C1228 0.928 . S
O1197 Co1181 2.057 . S
O1197 C1185 1.232 . S
H1198 C1217 0.929 . S
H1199 C1218 0.929 . S
H1200 C1230 0.931 . S
H1201 C1222 0.929 . S
H1202 C1231 0.930 . S
H1203 C1223 0.931 . S
O1204 Co1180 2.097 . S
O1204 C1232 1.214 . S
H1205 C1233 0.929 . S
H1206 C1234 0.929 . S
H1207 C1235 0.930 . S
H1208 C1236 0.929 . S
H1209 C1238 0.930 . S
H1210 C1215 0.930 . S
H1211 C1219 0.930 . S
O1212 Co1181 2.037 . S
O1212 C1232 1.234 . S
C1213 O1187 1.269 . S
C1213 O1188 1.257 . S
C1214 H1189 0.930 . S
C1214 C1217 1.388 . S
C1214 C1219 1.418 . S
C1215 H1210 0.930 . S
C1215 C1218 1.404 . S
C1215 C1219 1.353 . S
N1216 Co1181 2.145 . S
N1216 C1217 1.397 . S
N1216 C1218 1.334 . S
C1217 H1198 0.929 . S
C1217 C1214 1.388 . S
C1217 N1216 1.397 . S
C1218 H1199 0.929 . S
C1218 C1215 1.404 . S
C1218 N1216 1.334 . S
C1219 H1211 0.930 . S
C1219 C1214 1.418 . S
C1219 C1215 1.353 . S
C1220 H1190 0.930 . S
C1220 N1221 1.330 . S
C1220 C1222 1.446 . S
N1221 Co1180 2.151 . S
N1221 C1220 1.330 . S
N1221 C1225 1.418 . S
C1222 H1201 0.929 . S
C1222 C1220 1.446 . S
C1222 C1223 1.332 . S
C1223 H1203 0.931 . S
C1223 C1222 1.332 . S
C1223 C1224 1.267 . S
C1224 H1192 0.929 . S
C1224 C1223 1.267 . S
C1224 C1225 1.251 . S
C1225 H1195 0.929 . S
C1225 N1221 1.418 . S
C1225 C1224 1.251 . S
C1226 H1193 0.930 . S
C1226 C1228 1.406 . S
C1226 C1231 1.261 . S
C1227 H1194 0.930 . S
C1227 N1229 1.325 . S
C1227 C1230 1.357 . S
C1228 H1196 0.928 . S
C1228 C1226 1.406 . S
C1228 N1229 1.261 . S
N1229 Co1180 2.214 . S
N1229 C1227 1.325 . S
N1229 C1228 1.261 . S
C1230 H1200 0.931 . S
C1230 C1227 1.357 . S
C1230 C1231 1.312 . S
C1231 H1202 0.930 . S
C1231 C1226 1.261 . S
C1231 C1230 1.312 . S
C1232 O1204 1.214 . S
C1232 O1212 1.234 . S
C1233 H1205 0.929 . S
C1233 C1236 1.391 . S
C1233 C1238 1.391 . S
C1234 H1206 0.929 . S
C1234 C1235 1.390 . S
C1234 N1237 1.391 . S
C1235 H1207 0.930 . S
C1235 C1234 1.390 . S
C1235 C1236 1.392 . S
C1236 H1208 0.929 . S
C1236 C1233 1.391 . S
C1236 C1235 1.392 . S
N1237 Co1181 2.257 . S
N1237 C1234 1.391 . S
N1237 C1238 1.388 . S
C1238 H1209 0.930 . S
C1238 C1233 1.391 . S
C1238 N1237 1.388 . S
Co1239 O1241 2.143 . S
Co1239 O1247 2.074 . S
Co1239 O1250 2.093 . S
Co1239 O1263 2.097 1_556 S
Co1239 N1280 2.151 . S
Co1239 N1288 2.214 . S
Co1240 O1241 2.160 1_554 S
Co1240 O1246 2.058 1_554 S
Co1240 O1256 2.057 . S
Co1240 O1271 2.037 . S
Co1240 N1275 2.145 . S
Co1240 N1296 2.257 . S
O1241 Co1239 2.143 . S
O1241 Co1240 2.160 1_556 S
C1242 O1243 1.278 . S
C1242 O1250 1.224 1_554 S
O1243 C1242 1.278 . S
C1244 O1245 1.245 1_554 S
C1244 O1256 1.232 . S
O1245 C1244 1.245 1_556 S
O1246 Co1240 2.058 1_556 S
O1246 C1272 1.269 . S
O1247 Co1239 2.074 . S
O1247 C1272 1.257 . S
H1248 C1273 0.930 . S
H1249 C1279 0.930 . S
O1250 Co1239 2.093 . S
O1250 C1242 1.224 1_556 S
H1251 C1283 0.929 . S
H1252 C1285 0.930 . S
H1253 C1286 0.930 . S
H1254 C1284 0.929 . S
H1255 C1287 0.928 . S
O1256 Co1240 2.057 . S
O1256 C1244 1.232 . S
H1257 C1276 0.929 . S
H1258 C1277 0.929 . S
H1259 C1289 0.931 . S
H1260 C1281 0.929 . S
H1261 C1290 0.930 . S
H1262 C1282 0.931 . S
O1263 Co1239 2.097 1_554 S
O1263 C1291 1.214 . S
H1264 C1292 0.929 . S
H1265 C1293 0.929 . S
H1266 C1294 0.930 . S
H1267 C1295 0.929 . S
H1268 C1297 0.930 . S
H1269 C1274 0.930 . S
H1270 C1278 0.930 . S
O1271 Co1240 2.037 . S
O1271 C1291 1.234 . S
C1272 O1246 1.269 . S
C1272 O1247 1.257 . S
C1273 H1248 0.930 . S
C1273 C1276 1.388 . S
C1273 C1278 1.418 . S
C1274 H1269 0.930 . S
C1274 C1277 1.404 . S
C1274 C1278 1.353 . S
N1275 Co1240 2.145 . S
N1275 C1276 1.397 . S
N1275 C1277 1.334 . S
C1276 H1257 0.929 . S
C1276 C1273 1.388 . S
C1276 N1275 1.397 . S
C1277 H1258 0.929 . S
C1277 C1274 1.404 . S
C1277 N1275 1.334 . S
C1278 H1270 0.930 . S
C1278 C1273 1.418 . S
C1278 C1274 1.353 . S
C1279 H1249 0.930 . S
C1279 N1280 1.330 . S
C1279 C1281 1.446 . S
N1280 Co1239 2.151 . S
N1280 C1279 1.330 . S
N1280 C1284 1.418 . S
C1281 H1260 0.929 . S
C1281 C1279 1.446 . S
C1281 C1282 1.332 . S
C1282 H1262 0.931 . S
C1282 C1281 1.332 . S
C1282 C1283 1.267 . S
C1283 H1251 0.929 . S
C1283 C1282 1.267 . S
C1283 C1284 1.251 . S
C1284 H1254 0.929 . S
C1284 N1280 1.418 . S
C1284 C1283 1.251 . S
C1285 H1252 0.930 . S
C1285 C1287 1.406 . S
C1285 C1290 1.261 . S
C1286 H1253 0.930 . S
C1286 N1288 1.325 . S
C1286 C1289 1.357 . S
C1287 H1255 0.928 . S
C1287 C1285 1.406 . S
C1287 N1288 1.261 . S
N1288 Co1239 2.214 . S
N1288 C1286 1.325 . S
N1288 C1287 1.261 . S
C1289 H1259 0.931 . S
C1289 C1286 1.357 . S
C1289 C1290 1.312 . S
C1290 H1261 0.930 . S
C1290 C1285 1.261 . S
C1290 C1289 1.312 . S
C1291 O1263 1.214 . S
C1291 O1271 1.234 . S
C1292 H1264 0.929 . S
C1292 C1295 1.391 . S
C1292 C1297 1.391 . S
C1293 H1265 0.929 . S
C1293 C1294 1.390 . S
C1293 N1296 1.391 . S
C1294 H1266 0.930 . S
C1294 C1293 1.390 . S
C1294 C1295 1.392 . S
C1295 H1267 0.929 . S
C1295 C1292 1.391 . S
C1295 C1294 1.392 . S
N1296 Co1240 2.257 . S
N1296 C1293 1.391 . S
N1296 C1297 1.388 . S
C1297 H1268 0.930 . S
C1297 C1292 1.391 . S
C1297 N1296 1.388 . S
Co1298 O1300 2.162 . S
Co1298 O1306 2.074 . S
Co1298 O1309 2.093 . S
Co1298 O1322 2.097 1_556 S
Co1298 N1339 2.151 . S
Co1298 N1347 2.214 . S
Co1299 O1300 2.141 1_554 S
Co1299 O1305 2.058 1_554 S
Co1299 O1315 2.057 . S
Co1299 O1330 2.037 . S
Co1299 N1334 2.145 . S
Co1299 N1355 2.257 . S
O1300 Co1298 2.162 . S
O1300 Co1299 2.141 1_556 S
C1301 O1302 1.278 . S
C1301 O1309 1.224 1_554 S
O1302 C1301 1.278 . S
C1303 O1304 1.245 1_554 S
C1303 O1315 1.232 . S
O1304 C1303 1.245 1_556 S
O1305 Co1299 2.058 1_556 S
O1305 C1331 1.269 . S
O1306 Co1298 2.074 . S
O1306 C1331 1.257 . S
H1307 C1332 0.930 . S
H1308 C1338 0.930 . S
O1309 Co1298 2.093 . S
O1309 C1301 1.224 1_556 S
H1310 C1342 0.929 . S
H1311 C1344 0.930 . S
H1312 C1345 0.930 . S
H1313 C1343 0.929 . S
H1314 C1346 0.928 . S
O1315 Co1299 2.057 . S
O1315 C1303 1.232 . S
H1316 C1335 0.929 . S
H1317 C1336 0.929 . S
H1318 C1348 0.931 . S
H1319 C1340 0.929 . S
H1320 C1349 0.930 . S
H1321 C1341 0.931 . S
O1322 Co1298 2.097 1_554 S
O1322 C1350 1.214 . S
H1323 C1351 0.929 . S
H1324 C1352 0.929 . S
H1325 C1353 0.930 . S
H1326 C1354 0.929 . S
H1327 C1356 0.930 . S
H1328 C1333 0.930 . S
H1329 C1337 0.930 . S
O1330 Co1299 2.037 . S
O1330 C1350 1.234 . S
C1331 O1305 1.269 . S
C1331 O1306 1.257 . S
C1332 H1307 0.930 . S
C1332 C1335 1.388 . S
C1332 C1337 1.418 . S
C1333 H1328 0.930 . S
C1333 C1336 1.404 . S
C1333 C1337 1.353 . S
N1334 Co1299 2.145 . S
N1334 C1335 1.397 . S
N1334 C1336 1.334 . S
C1335 H1316 0.929 . S
C1335 C1332 1.388 . S
C1335 N1334 1.397 . S
C1336 H1317 0.929 . S
C1336 C1333 1.404 . S
C1336 N1334 1.334 . S
C1337 H1329 0.930 . S
C1337 C1332 1.418 . S
C1337 C1333 1.353 . S
C1338 H1308 0.930 . S
C1338 N1339 1.330 . S
C1338 C1340 1.446 . S
N1339 Co1298 2.151 . S
N1339 C1338 1.330 . S
N1339 C1343 1.418 . S
C1340 H1319 0.929 . S
C1340 C1338 1.446 . S
C1340 C1341 1.332 . S
C1341 H1321 0.931 . S
C1341 C1340 1.332 . S
C1341 C1342 1.267 . S
C1342 H1310 0.929 . S
C1342 C1341 1.267 . S
C1342 C1343 1.251 . S
C1343 H1313 0.929 . S
C1343 N1339 1.418 . S
C1343 C1342 1.251 . S
C1344 H1311 0.930 . S
C1344 C1346 1.406 . S
C1344 C1349 1.261 . S
C1345 H1312 0.930 . S
C1345 N1347 1.325 . S
C1345 C1348 1.357 . S
C1346 H1314 0.928 . S
C1346 C1344 1.406 . S
C1346 N1347 1.261 . S
N1347 Co1298 2.214 . S
N1347 C1345 1.325 . S
N1347 C1346 1.261 . S
C1348 H1318 0.931 . S
C1348 C1345 1.357 . S
C1348 C1349 1.312 . S
C1349 H1320 0.930 . S
C1349 C1344 1.261 . S
C1349 C1348 1.312 . S
C1350 O1322 1.214 . S
C1350 O1330 1.234 . S
C1351 H1323 0.929 . S
C1351 C1354 1.391 . S
C1351 C1356 1.391 . S
C1352 H1324 0.929 . S
C1352 C1353 1.390 . S
C1352 N1355 1.391 . S
C1353 H1325 0.930 . S
C1353 C1352 1.390 . S
C1353 C1354 1.392 . S
C1354 H1326 0.929 . S
C1354 C1351 1.391 . S
C1354 C1353 1.392 . S
N1355 Co1299 2.257 . S
N1355 C1352 1.391 . S
N1355 C1356 1.388 . S
C1356 H1327 0.930 . S
C1356 C1351 1.391 . S
C1356 N1355 1.388 . S
Co1357 O1359 2.143 . S
Co1357 O1365 2.074 . S
Co1357 O1368 2.093 . S
Co1357 O1381 2.097 1_554 S
Co1357 N1398 2.151 . S
Co1357 N1406 2.214 . S
Co1358 O1359 2.160 1_556 S
Co1358 O1364 2.058 1_556 S
Co1358 O1374 2.057 . S
Co1358 O1389 2.037 . S
Co1358 N1393 2.145 . S
Co1358 N1414 2.257 . S
O1359 Co1357 2.143 . S
O1359 Co1358 2.160 1_554 S
C1360 O1361 1.278 . S
C1360 O1368 1.224 1_556 S
O1361 C1360 1.278 . S
C1362 O1363 1.245 1_556 S
C1362 O1374 1.232 . S
O1363 C1362 1.245 1_554 S
O1364 Co1358 2.058 1_554 S
O1364 C1390 1.269 . S
O1365 Co1357 2.074 . S
O1365 C1390 1.257 . S
H1366 C1391 0.930 . S
H1367 C1397 0.930 . S
O1368 Co1357 2.093 . S
O1368 C1360 1.224 1_554 S
H1369 C1401 0.929 . S
H1370 C1403 0.930 . S
H1371 C1404 0.930 . S
H1372 C1402 0.929 . S
H1373 C1405 0.928 . S
O1374 Co1358 2.057 . S
O1374 C1362 1.232 . S
H1375 C1394 0.929 . S
H1376 C1395 0.929 . S
H1377 C1407 0.931 . S
H1378 C1399 0.929 . S
H1379 C1408 0.930 . S
H1380 C1400 0.931 . S
O1381 Co1357 2.097 1_556 S
O1381 C1409 1.214 . S
H1382 C1410 0.929 . S
H1383 C1411 0.929 . S
H1384 C1412 0.930 . S
H1385 C1413 0.929 . S
H1386 C1415 0.930 . S
H1387 C1392 0.930 . S
H1388 C1396 0.930 . S
O1389 Co1358 2.037 . S
O1389 C1409 1.234 . S
C1390 O1364 1.269 . S
C1390 O1365 1.257 . S
C1391 H1366 0.930 . S
C1391 C1394 1.388 . S
C1391 C1396 1.418 . S
C1392 H1387 0.930 . S
C1392 C1395 1.404 . S
C1392 C1396 1.353 . S
N1393 Co1358 2.145 . S
N1393 C1394 1.397 . S
N1393 C1395 1.334 . S
C1394 H1375 0.929 . S
C1394 C1391 1.388 . S
C1394 N1393 1.397 . S
C1395 H1376 0.929 . S
C1395 C1392 1.404 . S
C1395 N1393 1.334 . S
C1396 H1388 0.930 . S
C1396 C1391 1.418 . S
C1396 C1392 1.353 . S
C1397 H1367 0.930 . S
C1397 N1398 1.330 . S
C1397 C1399 1.446 . S
N1398 Co1357 2.151 . S
N1398 C1397 1.330 . S
N1398 C1402 1.418 . S
C1399 H1378 0.929 . S
C1399 C1397 1.446 . S
C1399 C1400 1.332 . S
C1400 H1380 0.931 . S
C1400 C1399 1.332 . S
C1400 C1401 1.267 . S
C1401 H1369 0.929 . S
C1401 C1400 1.267 . S
C1401 C1402 1.251 . S
C1402 H1372 0.929 . S
C1402 N1398 1.418 . S
C1402 C1401 1.251 . S
C1403 H1370 0.930 . S
C1403 C1405 1.406 1_455 S
C1403 C1408 1.261 . S
C1404 H1371 0.930 . S
C1404 N1406 1.325 . S
C1404 C1407 1.357 1_655 S
C1405 H1373 0.928 . S
C1405 C1403 1.406 1_655 S
C1405 N1406 1.261 . S
N1406 Co1357 2.214 . S
N1406 C1404 1.325 . S
N1406 C1405 1.261 . S
C1407 H1377 0.931 . S
C1407 C1404 1.357 1_455 S
C1407 C1408 1.312 . S
C1408 H1379 0.930 . S
C1408 C1403 1.261 . S
C1408 C1407 1.312 . S
C1409 O1381 1.214 . S
C1409 O1389 1.234 . S
C1410 H1382 0.929 . S
C1410 C1413 1.391 . S
C1410 C1415 1.391 . S
C1411 H1383 0.929 . S
C1411 C1412 1.390 . S
C1411 N1414 1.391 . S
C1412 H1384 0.930 . S
C1412 C1411 1.390 . S
C1412 C1413 1.392 . S
C1413 H1385 0.929 . S
C1413 C1410 1.391 . S
C1413 C1412 1.392 . S
N1414 Co1358 2.257 . S
N1414 C1411 1.391 . S
N1414 C1415 1.388 . S
C1415 H1386 0.930 . S
C1415 C1410 1.391 . S
C1415 N1414 1.388 . S
H1416 C1422 0.930 . S
H1417 C1426 0.930 . S
H1418 C1431 0.929 . S
H1419 C1429 0.929 . S
H1420 C1424 0.929 . S
H1421 C1430 0.929 . S
C1422 H1416 0.930 . S
C1422 C1423 1.367 . S
C1422 C1430 1.378 . S
C1423 C1422 1.367 . S
C1423 C1431 1.433 . S
C1424 H1420 0.929 . S
C1424 C1426 1.378 . S
C1424 C1428 1.350 . S
C1425 C1428 1.463 . S
C1425 C1430 1.350 . S
C1425 N1433 1.427 . S
C1426 H1417 0.930 . S
C1426 C1424 1.378 . S
C1426 C1427 1.367 . S
C1427 C1426 1.367 . S
C1427 C1429 1.433 . S
C1428 C1424 1.350 . S
C1428 C1425 1.463 . S
C1428 N1432 1.427 . S
C1429 H1419 0.929 . S
C1429 C1427 1.433 . S
C1429 N1432 1.384 . S
C1430 H1421 0.929 . S
C1430 C1422 1.378 . S
C1430 C1425 1.350 . S
C1431 H1418 0.929 . S
C1431 C1423 1.433 . S
C1431 N1433 1.384 . S
N1432 C1428 1.427 . S
N1432 C1429 1.384 . S
N1433 C1425 1.427 . S
N1433 C1431 1.384 . S
H1434 C1440 0.930 . S
H1435 C1444 0.930 . S
H1436 C1449 0.929 . S
H1437 C1447 0.929 . S
H1438 C1442 0.929 . S
H1439 C1448 0.929 . S
C1440 H1434 0.930 . S
C1440 C1441 1.367 . S
C1440 C1448 1.378 . S
C1441 C1440 1.367 . S
C1441 C1449 1.433 . S
C1442 H1438 0.929 . S
C1442 C1444 1.378 . S
C1442 C1446 1.350 . S
C1443 C1446 1.463 . S
C1443 C1448 1.350 . S
C1443 N1451 1.427 . S
C1444 H1435 0.930 . S
C1444 C1442 1.378 . S
C1444 C1445 1.367 . S
C1445 C1444 1.367 . S
C1445 C1447 1.433 . S
C1446 C1442 1.350 . S
C1446 C1443 1.463 . S
C1446 N1450 1.427 . S
C1447 H1437 0.929 . S
C1447 C1445 1.433 . S
C1447 N1450 1.384 . S
C1448 H1439 0.929 . S
C1448 C1440 1.378 . S
C1448 C1443 1.350 . S
C1449 H1436 0.929 . S
C1449 C1441 1.433 . S
C1449 N1451 1.384 . S
N1450 C1446 1.427 . S
N1450 C1447 1.384 . S
N1451 C1443 1.427 . S
N1451 C1449 1.384 . S
H1452 C1458 0.930 . S
H1453 C1462 0.930 . S
H1454 C1467 0.929 . S
H1455 C1465 0.929 . S
H1456 C1460 0.929 . S
H1457 C1466 0.929 . S
C1458 H1452 0.930 . S
C1458 C1459 1.367 . S
C1458 C1466 1.378 . S
C1459 C1458 1.367 . S
C1459 C1467 1.433 . S
C1460 H1456 0.929 . S
C1460 C1462 1.378 . S
C1460 C1464 1.350 1_556 S
C1461 C1464 1.463 . S
C1461 C1466 1.350 . S
C1461 N1469 1.427 . S
C1462 H1453 0.930 . S
C1462 C1460 1.378 . S
C1462 C1463 1.367 . S
C1463 C1462 1.367 . S
C1463 C1465 1.433 . S
C1464 C1460 1.350 1_554 S
C1464 C1461 1.463 . S
C1464 N1468 1.427 . S
C1465 H1455 0.929 . S
C1465 C1463 1.433 . S
C1465 N1468 1.384 1_556 S
C1466 H1457 0.929 . S
C1466 C1458 1.378 . S
C1466 C1461 1.350 . S
C1467 H1454 0.929 . S
C1467 C1459 1.433 . S
C1467 N1469 1.384 . S
N1468 C1464 1.427 . S
N1468 C1465 1.384 1_554 S
N1469 C1461 1.427 . S
N1469 C1467 1.384 . S
H1470 C1476 0.930 . S
H1471 C1480 0.930 . S
H1472 C1485 0.929 . S
H1473 C1483 0.929 . S
H1474 C1478 0.929 . S
H1475 C1484 0.929 . S
C1476 H1470 0.930 . S
C1476 C1477 1.367 . S
C1476 C1484 1.378 . S
C1477 C1476 1.367 . S
C1477 C1485 1.433 . S
C1478 H1474 0.929 . S
C1478 C1480 1.378 . S
C1478 C1482 1.350 1_556 S
C1479 C1482 1.463 . S
C1479 C1484 1.350 . S
C1479 N1487 1.427 . S
C1480 H1471 0.930 . S
C1480 C1478 1.378 . S
C1480 C1481 1.367 . S
C1481 C1480 1.367 . S
C1481 C1483 1.433 . S
C1482 C1478 1.350 1_554 S
C1482 C1479 1.463 . S
C1482 N1486 1.427 . S
C1483 H1473 0.929 . S
C1483 C1481 1.433 . S
C1483 N1486 1.384 1_556 S
C1484 H1475 0.929 . S
C1484 C1476 1.378 . S
C1484 C1479 1.350 . S
C1485 H1472 0.929 . S
C1485 C1477 1.433 . S
C1485 N1487 1.384 . S
N1486 C1482 1.427 . S
N1486 C1483 1.384 1_554 S
N1487 C1479 1.427 . S
N1487 C1485 1.384 . S
H1488 C1494 0.930 . S
H1489 C1498 0.930 . S
H1490 C1503 0.929 . S
H1491 C1501 0.929 . S
H1492 C1496 0.929 . S
H1493 C1502 0.929 . S
C1494 H1488 0.930 . S
C1494 C1495 1.367 . S
C1494 C1502 1.378 . S
C1495 C1494 1.367 . S
C1495 C1503 1.433 . S
C1496 H1492 0.929 . S
C1496 C1498 1.378 . S
C1496 C1500 1.350 . S
C1497 C1500 1.463 . S
C1497 C1502 1.350 . S
C1497 N1505 1.427 . S
C1498 H1489 0.930 . S
C1498 C1496 1.378 . S
C1498 C1499 1.367 . S
C1499 C1498 1.367 . S
C1499 C1501 1.433 . S
C1500 C1496 1.350 . S
C1500 C1497 1.463 . S
C1500 N1504 1.427 . S
C1501 H1491 0.929 . S
C1501 C1499 1.433 . S
C1501 N1504 1.384 . S
C1502 H1493 0.929 . S
C1502 C1494 1.378 . S
C1502 C1497 1.350 . S
C1503 H1490 0.929 . S
C1503 C1495 1.433 . S
C1503 N1505 1.384 . S
N1504 C1500 1.427 . S
N1504 C1501 1.384 . S
N1505 C1497 1.427 . S
N1505 C1503 1.384 . S
H1506 C1512 0.930 . S
H1507 C1516 0.930 . S
H1508 C1521 0.929 . S
H1509 C1519 0.929 1_556 S
H1510 C1514 0.929 . S
H1511 C1520 0.929 . S
C1512 H1506 0.930 . S
C1512 C1513 1.367 . S
C1512 C1520 1.378 . S
C1513 C1512 1.367 . S
C1513 C1521 1.433 . S
C1514 H1510 0.929 . S
C1514 C1516 1.378 . S
C1514 C1518 1.350 . S
C1515 C1518 1.463 . S
C1515 C1520 1.350 . S
C1515 N1523 1.427 . S
C1516 H1507 0.930 . S
C1516 C1514 1.378 . S
C1516 C1517 1.367 . S
C1517 C1516 1.367 . S
C1517 C1519 1.433 . S
C1518 C1514 1.350 . S
C1518 C1515 1.463 . S
C1518 N1522 1.427 . S
C1519 H1509 0.929 1_554 S
C1519 C1517 1.433 . S
C1519 N1522 1.384 . S
C1520 H1511 0.929 . S
C1520 C1512 1.378 . S
C1520 C1515 1.350 . S
C1521 H1508 0.929 . S
C1521 C1513 1.433 . S
C1521 N1523 1.384 . S
N1522 C1518 1.427 . S
N1522 C1519 1.384 . S
N1523 C1515 1.427 . S
N1523 C1521 1.384 . S
H1524 C1530 0.930 . S
H1525 C1534 0.930 . S
H1526 C1539 0.929 . S
H1527 C1537 0.929 . S
H1528 C1532 0.929 . S
H1529 C1538 0.929 . S
C1530 H1524 0.930 . S
C1530 C1531 1.367 . S
C1530 C1538 1.378 . S
C1531 C1530 1.367 . S
C1531 C1539 1.433 . S
C1532 H1528 0.929 . S
C1532 C1534 1.378 . S
C1532 C1536 1.350 . S
C1533 C1536 1.463 . S
C1533 C1538 1.350 . S
C1533 N1541 1.427 . S
C1534 H1525 0.930 . S
C1534 C1532 1.378 . S
C1534 C1535 1.367 . S
C1535 C1534 1.367 . S
C1535 C1537 1.433 . S
C1536 C1532 1.350 . S
C1536 C1533 1.463 . S
C1536 N1540 1.427 . S
C1537 H1527 0.929 . S
C1537 C1535 1.433 . S
C1537 N1540 1.384 . S
C1538 H1529 0.929 . S
C1538 C1530 1.378 . S
C1538 C1533 1.350 . S
C1539 H1526 0.929 . S
C1539 C1531 1.433 . S
C1539 N1541 1.384 . S
N1540 C1536 1.427 . S
N1540 C1537 1.384 . S
N1541 C1533 1.427 . S
N1541 C1539 1.384 . S
H1542 C1548 0.930 . S
H1543 C1552 0.930 . S
H1544 C1557 0.929 . S
H1545 C1555 0.929 . S
H1546 C1550 0.929 . S
H1547 C1556 0.929 . S
C1548 H1542 0.930 . S
C1548 C1549 1.367 . S
C1548 C1556 1.378 . S
C1549 C1548 1.367 . S
C1549 C1557 1.433 . S
C1550 H1546 0.929 . S
C1550 C1552 1.378 . S
C1550 C1554 1.350 . S
C1551 C1554 1.463 . S
C1551 C1556 1.350 . S
C1551 N1559 1.427 . S
C1552 H1543 0.930 . S
C1552 C1550 1.378 . S
C1552 C1553 1.367 . S
C1553 C1552 1.367 . S
C1553 C1555 1.433 . S
C1554 C1550 1.350 . S
C1554 C1551 1.463 . S
C1554 N1558 1.427 . S
C1555 H1545 0.929 . S
C1555 C1553 1.433 . S
C1555 N1558 1.384 . S
C1556 H1547 0.929 . S
C1556 C1548 1.378 . S
C1556 C1551 1.350 . S
C1557 H1544 0.929 . S
C1557 C1549 1.433 . S
C1557 N1559 1.384 . S
N1558 C1554 1.427 . S
N1558 C1555 1.384 . S
N1559 C1551 1.427 . S
N1559 C1557 1.384 . S
H1560 C1566 0.930 . S
H1561 C1570 0.930 . S
H1562 C1575 0.929 . S
H1563 C1573 0.937 . S
H1564 C1568 0.929 . S
H1565 C1574 0.929 . S
C1566 H1560 0.930 . S
C1566 C1567 1.367 . S
C1566 C1574 1.378 . S
C1567 C1566 1.367 . S
C1567 C1575 1.433 . S
C1568 H1564 0.929 . S
C1568 C1570 1.378 . S
C1568 C1572 1.350 . S
C1569 C1572 1.463 . S
C1569 C1574 1.350 . S
C1569 N1577 1.427 . S
C1570 H1561 0.930 . S
C1570 C1568 1.378 . S
C1570 C1571 1.367 . S
C1571 C1570 1.367 . S
C1571 C1573 1.433 . S
C1572 C1568 1.350 . S
C1572 C1569 1.463 . S
C1572 N1576 1.427 . S
C1573 H1563 0.937 . S
C1573 C1571 1.433 . S
C1573 N1576 1.384 . S
C1574 H1565 0.929 . S
C1574 C1566 1.378 . S
C1574 C1569 1.350 . S
C1575 H1562 0.929 . S
C1575 C1567 1.433 . S
C1575 N1577 1.384 . S
N1576 C1572 1.427 . S
N1576 C1573 1.384 . S
N1577 C1569 1.427 . S
N1577 C1575 1.384 . S
H1578 C1584 0.930 . S
H1579 C1588 0.930 . S
H1580 C1593 0.929 . S
H1581 C1591 0.929 . S
H1582 C1586 0.929 . S
H1583 C1592 0.929 . S
C1584 H1578 0.930 . S
C1584 C1585 1.367 . S
C1584 C1592 1.378 . S
C1585 C1584 1.367 . S
C1585 C1593 1.433 . S
C1586 H1582 0.929 . S
C1586 C1588 1.378 . S
C1586 C1590 1.350 . S
C1587 C1590 1.463 . S
C1587 C1592 1.350 . S
C1587 N1595 1.427 . S
C1588 H1579 0.930 . S
C1588 C1586 1.378 . S
C1588 C1589 1.367 . S
C1589 C1588 1.367 . S
C1589 C1591 1.433 . S
C1590 C1586 1.350 . S
C1590 C1587 1.463 . S
C1590 N1594 1.427 . S
C1591 H1581 0.929 . S
C1591 C1589 1.433 . S
C1591 N1594 1.384 . S
C1592 H1583 0.929 . S
C1592 C1584 1.378 . S
C1592 C1587 1.350 . S
C1593 H1580 0.929 . S
C1593 C1585 1.433 . S
C1593 N1595 1.384 . S
N1594 C1590 1.427 . S
N1594 C1591 1.384 . S
N1595 C1587 1.427 . S
N1595 C1593 1.384 . S
H1596 C1602 0.930 . S
H1597 C1606 0.937 . S
H1598 C1611 0.929 . S
H1599 C1609 0.929 . S
H1600 C1604 0.929 . S
H1601 C1610 0.929 . S
C1602 H1596 0.930 . S
C1602 C1603 1.367 . S
C1602 C1610 1.378 . S
C1603 C1602 1.367 . S
C1603 C1611 1.433 . S
C1604 H1600 0.929 . S
C1604 C1606 1.403 . S
C1604 C1608 1.350 . S
C1605 C1608 1.463 . S
C1605 C1610 1.350 . S
C1605 N1613 1.427 . S
C1606 H1597 0.937 . S
C1606 C1604 1.403 . S
C1606 C1607 1.336 1_565 S
C1607 C1606 1.336 1_545 S
C1607 C1609 1.433 . S
C1608 C1604 1.350 . S
C1608 C1605 1.463 . S
C1608 N1612 1.427 1_565 S
C1609 H1599 0.929 . S
C1609 C1607 1.433 . S
C1609 N1612 1.384 . S
C1610 H1601 0.929 . S
C1610 C1602 1.378 . S
C1610 C1605 1.350 . S
C1611 H1598 0.929 . S
C1611 C1603 1.433 . S
C1611 N1613 1.384 . S
N1612 C1608 1.427 1_545 S
N1612 C1609 1.384 . S
N1613 C1605 1.427 . S
N1613 C1611 1.384 . S
H1614 C1620 0.930 . S
H1615 C1624 0.930 . S
H1616 C1629 0.929 . S
H1617 C1627 0.929 . S
H1618 C1622 0.929 . S
H1619 C1628 0.929 . S
C1620 H1614 0.930 . S
C1620 C1621 1.367 . S
C1620 C1628 1.378 . S
C1621 C1620 1.367 . S
C1621 C1629 1.433 . S
C1622 H1618 0.929 . S
C1622 C1624 1.378 . S
C1622 C1626 1.350 . S
C1623 C1626 1.463 . S
C1623 C1628 1.350 . S
C1623 N1631 1.427 . S
C1624 H1615 0.930 . S
C1624 C1622 1.378 . S
C1624 C1625 1.367 . S
C1625 C1624 1.367 . S
C1625 C1627 1.433 . S
C1626 C1622 1.350 . S
C1626 C1623 1.463 . S
C1626 N1630 1.427 . S
C1627 H1617 0.929 . S
C1627 C1625 1.433 . S
C1627 N1630 1.384 . S
C1628 H1619 0.929 . S
C1628 C1620 1.378 . S
C1628 C1623 1.350 . S
C1629 H1616 0.929 . S
C1629 C1621 1.433 . S
C1629 N1631 1.384 . S
N1630 C1626 1.427 . S
N1630 C1627 1.384 . S
N1631 C1623 1.427 . S
N1631 C1629 1.384 . S
H1632 C1638 0.930 . S
H1633 C1642 0.930 . S
H1634 C1647 0.929 . S
H1635 C1645 0.929 . S
H1636 C1640 0.929 . S
H1637 C1646 0.929 . S
C1638 H1632 0.930 . S
C1638 C1639 1.367 . S
C1638 C1646 1.378 1_554 S
C1639 C1638 1.367 . S
C1639 C1647 1.433 . S
C1640 H1636 0.929 . S
C1640 C1642 1.378 . S
C1640 C1644 1.350 . S
C1641 C1644 1.463 . S
C1641 C1646 1.350 . S
C1641 N1649 1.427 1_556 S
C1642 H1633 0.930 . S
C1642 C1640 1.378 . S
C1642 C1643 1.367 . S
C1643 C1642 1.367 . S
C1643 C1645 1.433 . S
C1644 C1640 1.350 . S
C1644 C1641 1.463 . S
C1644 N1648 1.427 . S
C1645 H1635 0.929 . S
C1645 C1643 1.433 . S
C1645 N1648 1.384 . S
C1646 H1637 0.929 . S
C1646 C1638 1.378 1_556 S
C1646 C1641 1.350 . S
C1647 H1634 0.929 . S
C1647 C1639 1.433 . S
C1647 N1649 1.384 . S
N1648 C1644 1.427 . S
N1648 C1645 1.384 . S
N1649 C1641 1.427 1_554 S
N1649 C1647 1.384 . S
H1650 C1656 0.930 . S
H1651 C1660 0.930 . S
H1652 C1665 0.929 . S
H1653 C1663 0.929 . S
H1654 C1658 0.929 . S
H1655 C1664 0.929 . S
C1656 H1650 0.930 . S
C1656 C1657 1.367 1_556 S
C1656 C1664 1.378 . S
C1657 C1656 1.367 1_554 S
C1657 C1665 1.433 . S
C1658 H1654 0.929 . S
C1658 C1660 1.378 . S
C1658 C1662 1.350 . S
C1659 C1662 1.463 . S
C1659 C1664 1.350 . S
C1659 N1667 1.427 1_556 S
C1660 H1651 0.930 . S
C1660 C1658 1.378 . S
C1660 C1661 1.367 . S
C1661 C1660 1.367 . S
C1661 C1663 1.433 . S
C1662 C1658 1.350 . S
C1662 C1659 1.463 . S
C1662 N1666 1.427 . S
C1663 H1653 0.929 . S
C1663 C1661 1.433 . S
C1663 N1666 1.384 . S
C1664 H1655 0.929 . S
C1664 C1656 1.378 . S
C1664 C1659 1.350 . S
C1665 H1652 0.929 . S
C1665 C1657 1.433 . S
C1665 N1667 1.384 . S
N1666 C1662 1.427 . S
N1666 C1663 1.384 . S
N1667 C1659 1.427 1_554 S
N1667 C1665 1.384 . S
H1668 C1674 0.930 . S
H1669 C1678 0.930 . S
H1670 C1683 0.929 . S
H1671 C1681 0.929 . S
H1672 C1676 0.929 . S
H1673 C1682 0.929 . S
C1674 H1668 0.930 . S
C1674 C1675 1.367 . S
C1674 C1682 1.378 . S
C1675 C1674 1.367 . S
C1675 C1683 1.433 . S
C1676 H1672 0.929 . S
C1676 C1678 1.378 . S
C1676 C1680 1.350 . S
C1677 C1680 1.463 . S
C1677 C1682 1.350 . S
C1677 N1685 1.427 . S
C1678 H1669 0.930 . S
C1678 C1676 1.378 . S
C1678 C1679 1.367 . S
C1679 C1678 1.367 . S
C1679 C1681 1.433 . S
C1680 C1676 1.350 . S
C1680 C1677 1.463 . S
C1680 N1684 1.427 . S
C1681 H1671 0.929 . S
C1681 C1679 1.433 . S
C1681 N1684 1.384 . S
C1682 H1673 0.929 . S
C1682 C1674 1.378 . S
C1682 C1677 1.350 . S
C1683 H1670 0.929 . S
C1683 C1675 1.433 . S
C1683 N1685 1.384 . S
N1684 C1680 1.427 . S
N1684 C1681 1.384 . S
N1685 C1677 1.427 . S
N1685 C1683 1.384 . S
H1686 C1692 0.930 . S
H1687 C1696 0.930 . S
H1688 C1701 0.929 . S
H1689 C1699 0.929 . S
H1690 C1694 0.929 . S
H1691 C1700 0.929 . S
C1692 H1686 0.930 . S
C1692 C1693 1.367 . S
C1692 C1700 1.378 . S
C1693 C1692 1.367 . S
C1693 C1701 1.433 . S
C1694 H1690 0.929 . S
C1694 C1696 1.378 . S
C1694 C1698 1.350 . S
C1695 C1698 1.463 . S
C1695 C1700 1.350 . S
C1695 N1703 1.427 . S
C1696 H1687 0.930 . S
C1696 C1694 1.378 . S
C1696 C1697 1.367 . S
C1697 C1696 1.367 . S
C1697 C1699 1.433 . S
C1698 C1694 1.350 . S
C1698 C1695 1.463 . S
C1698 N1702 1.427 . S
C1699 H1689 0.929 . S
C1699 C1697 1.433 . S
C1699 N1702 1.384 . S
C1700 H1691 0.929 . S
C1700 C1692 1.378 . S
C1700 C1695 1.350 . S
C1701 H1688 0.929 . S
C1701 C1693 1.433 . S
C1701 N1703 1.384 . S
N1702 C1698 1.427 . S
N1702 C1699 1.384 . S
N1703 C1695 1.427 . S
N1703 C1701 1.384 . S
H1704 C1710 0.930 . S
H1705 C1714 0.930 . S
H1706 C1719 0.929 . S
H1707 C1717 0.929 . S
H1708 C1712 0.929 . S
H1709 C1718 0.935 . S
C1710 H1704 0.930 . S
C1710 C1711 1.367 . S
C1710 C1718 1.378 . S
C1711 C1710 1.367 . S
C1711 C1719 1.433 . S
C1712 H1708 0.929 . S
C1712 C1714 1.378 . S
C1712 C1716 1.350 . S
C1713 C1716 1.463 . S
C1713 C1718 1.350 1_655 S
C1713 N1721 1.427 . S
C1714 H1705 0.930 . S
C1714 C1712 1.378 . S
C1714 C1715 1.367 . S
C1715 C1714 1.367 . S
C1715 C1717 1.433 . S
C1716 C1712 1.350 . S
C1716 C1713 1.463 . S
C1716 N1720 1.427 . S
C1717 H1707 0.929 . S
C1717 C1715 1.433 . S
C1717 N1720 1.384 . S
C1718 H1709 0.935 . S
C1718 C1710 1.378 . S
C1718 C1713 1.350 1_455 S
C1719 H1706 0.929 . S
C1719 C1711 1.433 . S
C1719 N1721 1.384 1_455 S
N1720 C1716 1.427 . S
N1720 C1717 1.384 . S
N1721 C1713 1.427 . S
N1721 C1719 1.384 1_655 S
H1722 C1728 0.930 . S
H1723 C1732 0.930 . S
H1724 C1737 0.929 . S
H1725 C1735 0.929 . S
H1726 C1730 0.929 . S
H1727 C1736 0.929 . S
C1728 H1722 0.930 . S
C1728 C1729 1.367 . S
C1728 C1736 1.378 1_655 S
C1729 C1728 1.367 . S
C1729 C1737 1.433 . S
C1730 H1726 0.929 . S
C1730 C1732 1.378 . S
C1730 C1734 1.350 . S
C1731 C1734 1.463 . S
C1731 C1736 1.350 . S
C1731 N1739 1.427 1_455 S
C1732 H1723 0.930 . S
C1732 C1730 1.378 . S
C1732 C1733 1.367 . S
C1733 C1732 1.367 . S
C1733 C1735 1.433 . S
C1734 C1730 1.350 . S
C1734 C1731 1.463 . S
C1734 N1738 1.427 . S
C1735 H1725 0.929 . S
C1735 C1733 1.433 . S
C1735 N1738 1.384 . S
C1736 H1727 0.929 . S
C1736 C1728 1.378 1_455 S
C1736 C1731 1.350 . S
C1737 H1724 0.929 . S
C1737 C1729 1.433 . S
C1737 N1739 1.384 . S
N1738 C1734 1.427 . S
N1738 C1735 1.384 . S
N1739 C1731 1.427 1_655 S
N1739 C1737 1.384 . S
H1740 C1746 0.930 . S
H1741 C1750 0.930 . S
H1742 C1755 0.929 . S
H1743 C1753 0.929 . S
H1744 C1748 0.929 . S
H1745 C1754 0.929 . S
C1746 H1740 0.930 . S
C1746 C1747 1.367 . S
C1746 C1754 1.378 . S
C1747 C1746 1.367 . S
C1747 C1755 1.433 1_455 S
C1748 H1744 0.929 . S
C1748 C1750 1.378 . S
C1748 C1752 1.350 . S
C1749 C1752 1.463 . S
C1749 C1754 1.350 1_655 S
C1749 N1757 1.427 . S
C1750 H1741 0.930 . S
C1750 C1748 1.378 . S
C1750 C1751 1.367 . S
C1751 C1750 1.367 . S
C1751 C1753 1.433 . S
C1752 C1748 1.350 . S
C1752 C1749 1.463 . S
C1752 N1756 1.427 . S
C1753 H1743 0.929 . S
C1753 C1751 1.433 . S
C1753 N1756 1.384 . S
C1754 H1745 0.929 . S
C1754 C1746 1.378 . S
C1754 C1749 1.350 1_455 S
C1755 H1742 0.929 . S
C1755 C1747 1.433 1_655 S
C1755 N1757 1.384 . S
N1756 C1752 1.427 . S
N1756 C1753 1.384 . S
N1757 C1749 1.427 . S
N1757 C1755 1.384 . S
H1758 C1764 0.930 . S
H1759 C1768 0.930 . S
H1760 C1773 0.929 . S
H1761 C1771 0.929 . S
H1762 C1766 0.929 . S
H1763 C1772 0.929 . S
C1764 H1758 0.930 . S
C1764 C1765 1.367 . S
C1764 C1772 1.378 . S
C1765 C1764 1.367 . S
C1765 C1773 1.433 . S
C1766 H1762 0.929 . S
C1766 C1768 1.378 1_455 S
C1766 C1770 1.350 . S
C1767 C1770 1.463 . S
C1767 C1772 1.350 . S
C1767 N1775 1.427 . S
C1768 H1759 0.930 . S
C1768 C1766 1.378 1_655 S
C1768 C1769 1.367 . S
C1769 C1768 1.367 . S
C1769 C1771 1.433 . S
C1770 C1766 1.350 . S
C1770 C1767 1.463 . S
C1770 N1774 1.427 1_455 S
C1771 H1761 0.929 . S
C1771 C1769 1.433 . S
C1771 N1774 1.384 . S
C1772 H1763 0.929 . S
C1772 C1764 1.378 . S
C1772 C1767 1.350 . S
C1773 H1760 0.929 . S
C1773 C1765 1.433 . S
C1773 N1775 1.384 . S
N1774 C1770 1.427 1_655 S
N1774 C1771 1.384 . S
N1775 C1767 1.427 . S
N1775 C1773 1.384 . S
H1776 C1782 0.930 . S
H1777 C1786 0.930 . S
H1778 C1791 0.929 . S
H1779 C1789 0.929 . S
H1780 C1784 0.929 . S
H1781 C1790 0.929 . S
C1782 H1776 0.930 . S
C1782 C1783 1.367 . S
C1782 C1790 1.378 1_545 S
C1783 C1782 1.367 . S
C1783 C1791 1.433 . S
C1784 H1780 0.929 . S
C1784 C1786 1.378 . S
C1784 C1788 1.350 . S
C1785 C1788 1.463 . S
C1785 C1790 1.350 . S
C1785 N1793 1.427 1_565 S
C1786 H1777 0.930 . S
C1786 C1784 1.378 . S
C1786 C1787 1.367 . S
C1787 C1786 1.367 . S
C1787 C1789 1.433 . S
C1788 C1784 1.350 . S
C1788 C1785 1.463 . S
C1788 N1792 1.427 . S
C1789 H1779 0.929 . S
C1789 C1787 1.433 . S
C1789 N1792 1.384 . S
C1790 H1781 0.929 . S
C1790 C1782 1.378 1_565 S
C1790 C1785 1.350 . S
C1791 H1778 0.929 . S
C1791 C1783 1.433 . S
C1791 N1793 1.384 . S
N1792 C1788 1.427 . S
N1792 C1789 1.384 . S
N1793 C1785 1.427 1_545 S
N1793 C1791 1.384 . S
H1794 C1800 0.930 . S
H1795 C1804 0.930 . S
H1796 C1809 0.929 . S
H1797 C1807 0.929 . S
H1798 C1802 0.929 . S
H1799 C1808 0.929 . S
C1800 H1794 0.930 . S
C1800 C1801 1.367 . S
C1800 C1808 1.378 . S
C1801 C1800 1.367 . S
C1801 C1809 1.433 . S
C1802 H1798 0.929 . S
C1802 C1804 1.378 1_545 S
C1802 C1806 1.350 . S
C1803 C1806 1.463 . S
C1803 C1808 1.350 . S
C1803 N1811 1.427 . S
C1804 H1795 0.930 . S
C1804 C1802 1.378 1_565 S
C1804 C1805 1.367 . S
C1805 C1804 1.367 . S
C1805 C1807 1.433 . S
C1806 C1802 1.350 . S
C1806 C1803 1.463 . S
C1806 N1810 1.427 1_545 S
C1807 H1797 0.929 . S
C1807 C1805 1.433 . S
C1807 N1810 1.384 . S
C1808 H1799 0.929 . S
C1808 C1800 1.378 . S
C1808 C1803 1.350 . S
C1809 H1796 0.929 . S
C1809 C1801 1.433 . S
C1809 N1811 1.384 . S
N1810 C1806 1.427 1_565 S
N1810 C1807 1.384 . S
N1811 C1803 1.427 . S
N1811 C1809 1.384 . S
H1812 C1818 0.930 . S
H1813 C1822 0.930 . S
H1814 C1827 0.929 . S
H1815 C1825 0.929 . S
H1816 C1820 0.929 . S
H1817 C1826 0.929 . S
C1818 H1812 0.930 . S
C1818 C1819 1.367 . S
C1818 C1826 1.378 . S
C1819 C1818 1.367 . S
C1819 C1827 1.433 . S
C1820 H1816 0.929 . S
C1820 C1822 1.378 . S
C1820 C1824 1.350 . S
C1821 C1824 1.463 . S
C1821 C1826 1.350 . S
C1821 N1829 1.427 . S
C1822 H1813 0.930 . S
C1822 C1820 1.378 . S
C1822 C1823 1.367 . S
C1823 C1822 1.367 . S
C1823 C1825 1.433 . S
C1824 C1820 1.350 . S
C1824 C1821 1.463 . S
C1824 N1828 1.427 . S
C1825 H1815 0.929 . S
C1825 C1823 1.433 . S
C1825 N1828 1.384 . S
C1826 H1817 0.929 . S
C1826 C1818 1.378 . S
C1826 C1821 1.350 . S
C1827 H1814 0.929 . S
C1827 C1819 1.433 . S
C1827 N1829 1.384 . S
N1828 C1824 1.427 . S
N1828 C1825 1.384 . S
N1829 C1821 1.427 . S
N1829 C1827 1.384 . S
H1830 C1836 0.930 . S
H1831 C1840 0.930 . S
H1832 C1845 0.929 . S
H1833 C1843 0.929 . S
H1834 C1838 0.929 . S
H1835 C1844 0.929 . S
C1836 H1830 0.930 . S
C1836 C1837 1.367 . S
C1836 C1844 1.378 . S
C1837 C1836 1.367 . S
C1837 C1845 1.433 . S
C1838 H1834 0.929 . S
C1838 C1840 1.378 . S
C1838 C1842 1.350 1_565 S
C1839 C1842 1.463 . S
C1839 C1844 1.350 . S
C1839 N1847 1.427 . S
C1840 H1831 0.930 . S
C1840 C1838 1.378 . S
C1840 C1841 1.367 . S
C1841 C1840 1.367 . S
C1841 C1843 1.433 . S
C1842 C1838 1.350 1_545 S
C1842 C1839 1.463 . S
C1842 N1846 1.427 . S
C1843 H1833 0.929 . S
C1843 C1841 1.433 . S
C1843 N1846 1.384 1_565 S
C1844 H1835 0.929 . S
C1844 C1836 1.378 . S
C1844 C1839 1.350 . S
C1845 H1832 0.929 . S
C1845 C1837 1.433 . S
C1845 N1847 1.384 . S
N1846 C1842 1.427 . S
N1846 C1843 1.384 1_545 S
N1847 C1839 1.427 . S
N1847 C1845 1.384 . S
H1848 C1854 0.930 . S
H1849 C1858 0.930 . S
H1850 C1863 0.929 . S
H1851 C1861 0.929 . S
H1852 C1856 0.929 . S
H1853 C1862 0.929 . S
C1854 H1848 0.930 . S
C1854 C1855 1.367 . S
C1854 C1862 1.378 . S
C1855 C1854 1.367 . S
C1855 C1863 1.433 1_655 S
C1856 H1852 0.929 . S
C1856 C1858 1.378 . S
C1856 C1860 1.350 . S
C1857 C1860 1.463 . S
C1857 C1862 1.345 1_455 S
C1857 N1865 1.432 . S
C1858 H1849 0.930 . S
C1858 C1856 1.378 . S
C1858 C1859 1.367 . S
C1859 C1858 1.367 . S
C1859 C1861 1.433 1_455 S
C1860 C1856 1.350 . S
C1860 C1857 1.463 . S
C1860 N1864 1.427 1_455 S
C1861 H1851 0.929 . S
C1861 C1859 1.433 1_655 S
C1861 N1864 1.384 . S
C1862 H1853 0.929 . S
C1862 C1854 1.378 . S
C1862 C1857 1.345 1_655 S
C1863 H1850 0.929 . S
C1863 C1855 1.433 1_455 S
C1863 N1865 1.384 . S
N1864 C1860 1.427 1_655 S
N1864 C1861 1.384 . S
N1865 C1857 1.432 . S
N1865 C1863 1.384 . S
H1866 C1872 0.930 . S
H1867 C1876 0.930 . S
H1868 C1881 0.929 . S
H1869 C1879 0.929 . S
H1870 C1874 0.929 . S
H1871 C1880 0.929 . S
C1872 H1866 0.930 . S
C1872 C1873 1.367 1_655 S
C1872 C1880 1.378 . S
C1873 C1872 1.367 1_455 S
C1873 C1881 1.433 . S
C1874 H1870 0.929 . S
C1874 C1876 1.378 . S
C1874 C1878 1.357 . S
C1875 C1878 1.463 . S
C1875 C1880 1.350 1_455 S
C1875 N1883 1.427 . S
C1876 H1867 0.930 . S
C1876 C1874 1.378 . S
C1876 C1877 1.367 1_455 S
C1877 C1876 1.367 1_655 S
C1877 C1879 1.433 . S
C1878 C1874 1.357 . S
C1878 C1875 1.463 . S
C1878 N1882 1.420 1_455 S
C1879 H1869 0.929 . S
C1879 C1877 1.433 . S
C1879 N1882 1.384 . S
C1880 H1871 0.929 . S
C1880 C1872 1.378 . S
C1880 C1875 1.350 1_655 S
C1881 H1868 0.929 . S
C1881 C1873 1.433 . S
C1881 N1883 1.384 . S
N1882 C1878 1.420 1_655 S
N1882 C1879 1.384 . S
N1883 C1875 1.427 . S
N1883 C1881 1.384 . S
H1884 C1890 0.930 . S
H1885 C1894 0.930 . S
H1886 C1899 0.929 . S
H1887 C1897 0.929 . S
H1888 C1892 0.929 . S
H1889 C1898 0.929 . S
C1890 H1884 0.930 . S
C1890 C1891 1.351 1_545 S
C1890 C1898 1.378 . S
C1891 C1890 1.351 1_565 S
C1891 C1899 1.449 . S
C1892 H1888 0.929 . S
C1892 C1894 1.378 . S
C1892 C1896 1.316 1_565 S
C1893 C1896 1.464 . S
C1893 C1898 1.350 . S
C1893 N1901 1.427 1_545 S
C1894 H1885 0.930 . S
C1894 C1892 1.378 . S
C1894 C1895 1.367 1_565 S
C1895 C1894 1.367 1_545 S
C1895 C1897 1.433 . S
C1896 C1892 1.316 1_545 S
C1896 C1893 1.464 . S
C1896 N1900 1.464 . S
C1897 H1887 0.929 . S
C1897 C1895 1.433 . S
C1897 N1900 1.384 . S
C1898 H1889 0.929 . S
C1898 C1890 1.378 . S
C1898 C1893 1.350 . S
C1899 H1886 0.929 . S
C1899 C1891 1.449 . S
C1899 N1901 1.384 . S
N1900 C1896 1.464 . S
N1900 C1897 1.384 . S
N1901 C1893 1.427 1_565 S
N1901 C1899 1.384 . S
H1902 C1908 0.930 . S
H1903 C1912 0.930 . S
H1904 C1917 0.929 . S
H1905 C1915 0.929 . S
H1906 C1910 0.929 . S
H1907 C1916 0.929 . S
C1908 H1902 0.930 . S
C1908 C1909 1.367 . S
C1908 C1916 1.378 . S
C1909 C1908 1.367 . S
C1909 C1917 1.433 . S
C1910 H1906 0.929 . S
C1910 C1912 1.378 . S
C1910 C1914 1.350 . S
C1911 C1914 1.463 . S
C1911 C1916 1.350 . S
C1911 N1919 1.427 . S
C1912 H1903 0.930 . S
C1912 C1910 1.378 . S
C1912 C1913 1.367 . S
C1913 C1912 1.367 . S
C1913 C1915 1.433 . S
C1914 C1910 1.350 . S
C1914 C1911 1.463 . S
C1914 N1918 1.427 . S
C1915 H1905 0.929 . S
C1915 C1913 1.433 . S
C1915 N1918 1.384 . S
C1916 H1907 0.929 . S
C1916 C1908 1.378 . S
C1916 C1911 1.350 . S
C1917 H1904 0.929 . S
C1917 C1909 1.433 . S
C1917 N1919 1.384 . S
N1918 C1914 1.427 . S
N1918 C1915 1.384 . S
N1919 C1911 1.427 . S
N1919 C1917 1.384 . S
H1920 C1926 0.930 . S
H1921 C1930 0.930 . S
H1922 C1935 0.929 . S
H1923 C1933 0.929 . S
H1924 C1928 0.929 . S
H1925 C1934 0.929 . S
C1926 H1920 0.930 . S
C1926 C1927 1.367 . S
C1926 C1934 1.378 . S
C1927 C1926 1.367 . S
C1927 C1935 1.433 1_554 S
C1928 H1924 0.929 . S
C1928 C1930 1.378 . S
C1928 C1932 1.355 . S
C1929 C1932 1.462 1_554 S
C1929 C1934 1.350 . S
C1929 N1937 1.427 1_554 S
C1930 H1921 0.930 . S
C1930 C1928 1.378 . S
C1930 C1931 1.367 . S
C1931 C1930 1.367 . S
C1931 C1933 1.433 1_556 S
C1932 C1928 1.355 . S
C1932 C1929 1.462 1_556 S
C1932 N1936 1.423 1_556 S
C1933 H1923 0.929 . S
C1933 C1931 1.433 1_554 S
C1933 N1936 1.384 . S
C1934 H1925 0.929 . S
C1934 C1926 1.378 . S
C1934 C1929 1.350 . S
C1935 H1922 0.929 . S
C1935 C1927 1.433 1_556 S
C1935 N1937 1.384 . S
N1936 C1932 1.423 1_554 S
N1936 C1933 1.384 . S
N1937 C1929 1.427 1_556 S
N1937 C1935 1.384 . S
H1938 C1944 0.930 . S
H1939 C1948 0.930 . S
H1940 C1953 0.929 . S
H1941 C1951 0.929 . S
H1942 C1946 0.929 . S
H1943 C1952 0.929 . S
C1944 H1938 0.930 . S
C1944 C1945 1.367 . S
C1944 C1952 1.378 . S
C1945 C1944 1.367 . S
C1945 C1953 1.433 . S
C1946 H1942 0.929 . S
C1946 C1948 1.378 . S
C1946 C1950 1.350 . S
C1947 C1950 1.463 . S
C1947 C1952 1.350 . S
C1947 N1955 1.427 . S
C1948 H1939 0.930 . S
C1948 C1946 1.378 . S
C1948 C1949 1.367 . S
C1949 C1948 1.367 . S
C1949 C1951 1.433 . S
C1950 C1946 1.350 . S
C1950 C1947 1.463 . S
C1950 N1954 1.427 . S
C1951 H1941 0.929 . S
C1951 C1949 1.433 . S
C1951 N1954 1.384 . S
C1952 H1943 0.929 . S
C1952 C1944 1.378 . S
C1952 C1947 1.350 . S
C1953 H1940 0.929 . S
C1953 C1945 1.433 . S
C1953 N1955 1.384 . S
N1954 C1950 1.427 . S
N1954 C1951 1.384 . S
N1955 C1947 1.427 . S
N1955 C1953 1.384 . S
H1956 C1962 0.930 . S
H1957 C1966 0.930 . S
H1958 C1971 0.929 . S
H1959 C1969 0.929 . S
H1960 C1964 0.929 . S
H1961 C1970 0.929 . S
C1962 H1956 0.930 . S
C1962 C1963 1.367 . S
C1962 C1970 1.378 . S
C1963 C1962 1.367 . S
C1963 C1971 1.433 . S
C1964 H1960 0.929 . S
C1964 C1966 1.378 . S
C1964 C1968 1.350 . S
C1965 C1968 1.463 . S
C1965 C1970 1.350 . S
C1965 N1973 1.427 . S
C1966 H1957 0.930 . S
C1966 C1964 1.378 . S
C1966 C1967 1.367 . S
C1967 C1966 1.367 . S
C1967 C1969 1.433 . S
C1968 C1964 1.350 . S
C1968 C1965 1.463 . S
C1968 N1972 1.427 . S
C1969 H1959 0.929 . S
C1969 C1967 1.433 . S
C1969 N1972 1.384 . S
C1970 H1961 0.929 . S
C1970 C1962 1.378 . S
C1970 C1965 1.350 . S
C1971 H1958 0.929 . S
C1971 C1963 1.433 . S
C1971 N1973 1.384 . S
N1972 C1968 1.427 . S
N1972 C1969 1.384 . S
N1973 C1965 1.427 . S
N1973 C1971 1.384 . S
H1974 C1980 0.930 . S
H1975 C1984 0.930 . S
H1976 C1989 0.929 . S
H1977 C1987 0.929 . S
H1978 C1982 0.929 . S
H1979 C1988 0.929 . S
C1980 H1974 0.930 . S
C1980 C1981 1.367 . S
C1980 C1988 1.378 . S
C1981 C1980 1.367 . S
C1981 C1989 1.433 . S
C1982 H1978 0.929 . S
C1982 C1984 1.378 . S
C1982 C1986 1.350 . S
C1983 C1986 1.463 . S
C1983 C1988 1.350 . S
C1983 N1991 1.427 . S
C1984 H1975 0.930 . S
C1984 C1982 1.378 . S
C1984 C1985 1.367 . S
C1985 C1984 1.367 . S
C1985 C1987 1.433 . S
C1986 C1982 1.350 . S
C1986 C1983 1.463 . S
C1986 N1990 1.427 . S
C1987 H1977 0.929 . S
C1987 C1985 1.433 . S
C1987 N1990 1.384 . S
C1988 H1979 0.929 . S
C1988 C1980 1.378 . S
C1988 C1983 1.350 . S
C1989 H1976 0.929 . S
C1989 C1981 1.433 . S
C1989 N1991 1.384 . S
N1990 C1986 1.427 . S
N1990 C1987 1.384 . S
N1991 C1983 1.427 . S
N1991 C1989 1.384 . S
H1992 C1998 0.930 . S
H1993 C2002 0.930 . S
H1994 C2007 0.929 . S
H1995 C2005 0.929 . S
H1996 C2000 0.929 . S
H1997 C2006 0.929 . S
C1998 H1992 0.930 . S
C1998 C1999 1.367 . S
C1998 C2006 1.378 . S
C1999 C1998 1.367 . S
C1999 C2007 1.433 . S
C2000 H1996 0.929 . S
C2000 C2002 1.378 . S
C2000 C2004 1.350 . S
C2001 C2004 1.463 . S
C2001 C2006 1.350 . S
C2001 N2009 1.427 . S
C2002 H1993 0.930 . S
C2002 C2000 1.378 . S
C2002 C2003 1.367 . S
C2003 C2002 1.367 . S
C2003 C2005 1.433 . S
C2004 C2000 1.350 . S
C2004 C2001 1.463 . S
C2004 N2008 1.427 . S
C2005 H1995 0.929 . S
C2005 C2003 1.433 . S
C2005 N2008 1.384 . S
C2006 H1997 0.929 . S
C2006 C1998 1.378 . S
C2006 C2001 1.350 . S
C2007 H1994 0.929 . S
C2007 C1999 1.433 . S
C2007 N2009 1.384 . S
N2008 C2004 1.427 . S
N2008 C2005 1.384 . S
N2009 C2001 1.427 . S
N2009 C2007 1.384 . S
H2010 C2016 0.930 . S
H2011 C2020 0.930 . S
H2012 C2025 0.929 . S
H2013 C2023 0.929 . S
H2014 C2018 0.929 . S
H2015 C2024 0.929 . S
C2016 H2010 0.930 . S
C2016 C2017 1.367 . S
C2016 C2024 1.378 . S
C2017 C2016 1.367 . S
C2017 C2025 1.433 . S
C2018 H2014 0.929 . S
C2018 C2020 1.378 . S
C2018 C2022 1.350 . S
C2019 C2022 1.463 . S
C2019 C2024 1.350 . S
C2019 N2027 1.427 . S
C2020 H2011 0.930 . S
C2020 C2018 1.378 . S
C2020 C2021 1.367 . S
C2021 C2020 1.367 . S
C2021 C2023 1.433 . S
C2022 C2018 1.350 . S
C2022 C2019 1.463 . S
C2022 N2026 1.427 . S
C2023 H2013 0.929 . S
C2023 C2021 1.433 . S
C2023 N2026 1.384 . S
C2024 H2015 0.929 . S
C2024 C2016 1.378 . S
C2024 C2019 1.350 . S
C2025 H2012 0.929 . S
C2025 C2017 1.433 . S
C2025 N2027 1.384 . S
N2026 C2022 1.427 . S
N2026 C2023 1.384 . S
N2027 C2019 1.427 . S
N2027 C2025 1.384 . S
H2028 C2034 0.930 . S
H2029 C2038 0.930 . S
H2030 C2043 0.929 . S
H2031 C2041 0.929 . S
H2032 C2036 0.929 . S
H2033 C2042 0.929 . S
C2034 H2028 0.930 . S
C2034 C2035 1.367 1_565 S
C2034 C2042 1.378 . S
C2035 C2034 1.367 1_545 S
C2035 C2043 1.433 . S
C2036 H2032 0.929 . S
C2036 C2038 1.378 . S
C2036 C2040 1.360 . S
C2037 C2040 1.463 . S
C2037 C2042 1.350 1_545 S
C2037 N2045 1.427 . S
C2038 H2029 0.930 . S
C2038 C2036 1.378 . S
C2038 C2039 1.367 1_545 S
C2039 C2038 1.367 1_565 S
C2039 C2041 1.433 . S
C2040 C2036 1.360 . S
C2040 C2037 1.463 . S
C2040 N2044 1.416 1_545 S
C2041 H2031 0.929 . S
C2041 C2039 1.433 . S
C2041 N2044 1.384 . S
C2042 H2033 0.929 . S
C2042 C2034 1.378 . S
C2042 C2037 1.350 1_565 S
C2043 H2030 0.929 . S
C2043 C2035 1.433 . S
C2043 N2045 1.384 . S
N2044 C2040 1.416 1_565 S
N2044 C2041 1.384 . S
N2045 C2037 1.427 . S
N2045 C2043 1.384 . S
H2046 C2052 0.930 . S
H2047 C2056 0.930 . S
H2048 C2061 0.929 . S
H2049 C2059 0.929 . S
H2050 C2054 0.929 . S
H2051 C2060 0.929 . S
C2052 H2046 0.930 . S
C2052 C2053 1.367 . S
C2052 C2060 1.378 . S
C2053 C2052 1.367 . S
C2053 C2061 1.433 1_556 S
C2054 H2050 0.929 . S
C2054 C2056 1.378 . S
C2054 C2058 1.350 . S
C2055 C2058 1.463 . S
C2055 C2060 1.349 1_554 S
C2055 N2063 1.428 . S
C2056 H2047 0.930 . S
C2056 C2054 1.378 . S
C2056 C2057 1.367 . S
C2057 C2056 1.367 . S
C2057 C2059 1.433 1_554 S
C2058 C2054 1.350 . S
C2058 C2055 1.463 . S
C2058 N2062 1.427 1_554 S
C2059 H2049 0.929 . S
C2059 C2057 1.433 1_556 S
C2059 N2062 1.384 . S
C2060 H2051 0.929 . S
C2060 C2052 1.378 . S
C2060 C2055 1.349 1_556 S
C2061 H2048 0.929 . S
C2061 C2053 1.433 1_554 S
C2061 N2063 1.384 . S
N2062 C2058 1.427 1_556 S
N2062 C2059 1.384 . S
N2063 C2055 1.428 . S
N2063 C2061 1.384 . S
H2064 C2070 0.930 . S
H2065 C2074 0.930 . S
H2066 C2079 0.929 . S
H2067 C2077 0.929 . S
H2068 C2072 0.929 . S
H2069 C2078 0.929 . S
C2070 H2064 0.930 . S
C2070 C2071 1.367 . S
C2070 C2078 1.378 . S
C2071 C2070 1.367 . S
C2071 C2079 1.433 . S
C2072 H2068 0.929 . S
C2072 C2074 1.378 . S
C2072 C2076 1.350 . S
C2073 C2076 1.463 1_565 S
C2073 C2078 1.350 . S
C2073 N2081 1.427 . S
C2074 H2065 0.930 . S
C2074 C2072 1.378 . S
C2074 C2075 1.367 . S
C2075 C2074 1.367 . S
C2075 C2077 1.433 . S
C2076 C2072 1.350 . S
C2076 C2073 1.463 1_545 S
C2076 N2080 1.433 . S
C2077 H2067 0.929 . S
C2077 C2075 1.433 . S
C2077 N2080 1.398 . S
C2078 H2069 0.929 . S
C2078 C2070 1.378 . S
C2078 C2073 1.350 . S
C2079 H2066 0.929 . S
C2079 C2071 1.433 . S
C2079 N2081 1.384 . S
N2080 C2076 1.433 . S
N2080 C2077 1.398 . S
N2081 C2073 1.427 . S
N2081 C2079 1.384 . S
H2082 C2088 0.930 . S
H2083 C2092 0.930 . S
H2084 C2097 0.929 . S
H2085 C2095 0.929 . S
H2086 C2090 0.929 . S
H2087 C2096 0.929 . S
C2088 H2082 0.930 . S
C2088 C2089 1.367 1_655 S
C2088 C2096 1.378 . S
C2089 C2088 1.367 1_455 S
C2089 C2097 1.433 . S
C2090 H2086 0.929 . S
C2090 C2092 1.378 . S
C2090 C2094 1.350 . S
C2091 C2094 1.463 . S
C2091 C2096 1.350 1_455 S
C2091 N2099 1.427 . S
C2092 H2083 0.930 . S
C2092 C2090 1.378 . S
C2092 C2093 1.367 . S
C2093 C2092 1.367 . S
C2093 C2095 1.433 1_455 S
C2094 C2090 1.350 . S
C2094 C2091 1.463 . S
C2094 N2098 1.427 1_455 S
C2095 H2085 0.929 . S
C2095 C2093 1.433 1_655 S
C2095 N2098 1.384 . S
C2096 H2087 0.929 . S
C2096 C2088 1.378 . S
C2096 C2091 1.350 1_655 S
C2097 H2084 0.929 . S
C2097 C2089 1.433 . S
C2097 N2099 1.384 . S
N2098 C2094 1.427 1_655 S
N2098 C2095 1.384 . S
N2099 C2091 1.427 . S
N2099 C2097 1.384 . S
H2100 C2106 0.930 . S
H2101 C2110 0.930 . S
H2102 C2115 0.929 . S
H2103 C2113 0.929 . S
H2104 C2108 0.929 . S
H2105 C2114 0.929 . S
C2106 H2100 0.930 . S
C2106 C2107 1.367 . S
C2106 C2114 1.378 . S
C2107 C2106 1.367 . S
C2107 C2115 1.433 1_565 S
C2108 H2104 0.929 . S
C2108 C2110 1.378 . S
C2108 C2112 1.350 1_545 S
C2109 C2112 1.463 1_556 S
C2109 C2114 1.350 . S
C2109 N2117 1.427 1_565 S
C2110 H2101 0.930 . S
C2110 C2108 1.378 . S
C2110 C2111 1.367 1_545 S
C2111 C2110 1.367 1_565 S
C2111 C2113 1.433 . S
C2112 C2108 1.350 1_565 S
C2112 C2109 1.463 1_554 S
C2112 N2116 1.427 . S
C2113 H2103 0.929 . S
C2113 C2111 1.433 . S
C2113 N2116 1.384 . S
C2114 H2105 0.929 . S
C2114 C2106 1.378 . S
C2114 C2109 1.350 . S
C2115 H2102 0.929 . S
C2115 C2107 1.433 1_545 S
C2115 N2117 1.384 . S
N2116 C2112 1.427 . S
N2116 C2113 1.384 . S
N2117 C2109 1.427 1_545 S
N2117 C2115 1.384 . S
H2118 C2124 0.930 . S
H2119 C2128 0.930 . S
H2120 C2133 0.929 . S
H2121 C2131 0.929 . S
H2122 C2126 0.929 . S
H2123 C2132 0.929 . S
C2124 H2118 0.930 . S
C2124 C2125 1.367 . S
C2124 C2132 1.378 . S
C2125 C2124 1.367 . S
C2125 C2133 1.433 . S
C2126 H2122 0.929 . S
C2126 C2128 1.378 . S
C2126 C2130 1.350 . S
C2127 C2130 1.463 1_554 S
C2127 C2132 1.350 . S
C2127 N2135 1.427 . S
C2128 H2119 0.930 . S
C2128 C2126 1.378 . S
C2128 C2129 1.367 . S
C2129 C2128 1.367 . S
C2129 C2131 1.433 . S
C2130 C2126 1.350 . S
C2130 C2127 1.463 1_556 S
C2130 N2134 1.427 . S
C2131 H2121 0.929 . S
C2131 C2129 1.433 . S
C2131 N2134 1.384 . S
C2132 H2123 0.929 . S
C2132 C2124 1.378 . S
C2132 C2127 1.350 . S
C2133 H2120 0.929 . S
C2133 C2125 1.433 . S
C2133 N2135 1.384 . S
N2134 C2130 1.427 . S
N2134 C2131 1.384 . S
N2135 C2127 1.427 . S
N2135 C2133 1.384 . S
H2136 C2142 0.930 . S
H2137 C2146 0.930 . S
H2138 C2151 0.929 . S
H2139 C2149 0.929 . S
H2140 C2144 0.929 . S
H2141 C2150 0.929 . S
C2142 H2136 0.930 . S
C2142 C2143 1.367 . S
C2142 C2150 1.378 . S
C2143 C2142 1.367 . S
C2143 C2151 1.433 1_545 S
C2144 H2140 0.929 . S
C2144 C2146 1.378 . S
C2144 C2148 1.350 1_565 S
C2145 C2148 1.463 . S
C2145 C2150 1.350 . S
C2145 N2153 1.427 1_545 S
C2146 H2137 0.930 . S
C2146 C2144 1.378 . S
C2146 C2147 1.367 1_565 S
C2147 C2146 1.367 1_545 S
C2147 C2149 1.433 . S
C2148 C2144 1.350 1_545 S
C2148 C2145 1.463 . S
C2148 N2152 1.427 . S
C2149 H2139 0.929 . S
C2149 C2147 1.433 . S
C2149 N2152 1.384 . S
C2150 H2141 0.929 . S
C2150 C2142 1.378 . S
C2150 C2145 1.350 . S
C2151 H2138 0.929 . S
C2151 C2143 1.433 1_565 S
C2151 N2153 1.384 . S
N2152 C2148 1.427 . S
N2152 C2149 1.384 . S
N2153 C2145 1.427 1_565 S
N2153 C2151 1.384 . S
H2154 C2160 0.930 . S
H2155 C2164 0.930 . S
H2156 C2169 0.929 . S
H2157 C2167 0.929 . S
H2158 C2162 0.929 . S
H2159 C2168 0.929 . S
C2160 H2154 0.930 . S
C2160 C2161 1.367 . S
C2160 C2168 1.378 . S
C2161 C2160 1.367 . S
C2161 C2169 1.433 . S
C2162 H2158 0.929 . S
C2162 C2164 1.378 . S
C2162 C2166 1.350 . S
C2163 C2166 1.463 . S
C2163 C2168 1.350 . S
C2163 N2171 1.427 . S
C2164 H2155 0.930 . S
C2164 C2162 1.378 . S
C2164 C2165 1.367 . S
C2165 C2164 1.367 . S
C2165 C2167 1.433 . S
C2166 C2162 1.350 . S
C2166 C2163 1.463 . S
C2166 N2170 1.427 . S
C2167 H2157 0.929 . S
C2167 C2165 1.433 . S
C2167 N2170 1.384 . S
C2168 H2159 0.929 . S
C2168 C2160 1.378 . S
C2168 C2163 1.350 . S
C2169 H2156 0.929 . S
C2169 C2161 1.433 . S
C2169 N2171 1.384 . S
N2170 C2166 1.427 . S
N2170 C2167 1.384 . S
N2171 C2163 1.427 . S
N2171 C2169 1.384 . S
H2172 C2178 0.930 1_554 S
H2173 C2182 0.930 . S
H2174 C2187 0.929 . S
H2175 C2185 0.935 . S
H2176 C2180 0.929 . S
H2177 C2186 0.923 1_554 S
C2178 H2172 0.930 1_556 S
C2178 C2179 1.367 . S
C2178 C2186 1.379 . S
C2179 C2178 1.367 . S
C2179 C2187 1.433 . S
C2180 H2176 0.929 . S
C2180 C2182 1.378 . S
C2180 C2184 1.350 . S
C2181 C2184 1.463 1_455 S
C2181 C2186 1.356 . S
C2181 N2189 1.437 . S
C2182 H2173 0.930 . S
C2182 C2180 1.378 . S
C2182 C2183 1.367 . S
C2183 C2182 1.367 . S
C2183 C2185 1.429 1_556 S
C2184 C2180 1.350 . S
C2184 C2181 1.463 1_655 S
C2184 N2188 1.427 1_556 S
C2185 H2175 0.935 . S
C2185 C2183 1.429 1_554 S
C2185 N2188 1.383 . S
C2186 H2177 0.923 1_556 S
C2186 C2178 1.379 . S
C2186 C2181 1.356 . S
C2187 H2174 0.929 . S
C2187 C2179 1.433 . S
C2187 N2189 1.406 . S
N2188 C2184 1.427 1_554 S
N2188 C2185 1.383 . S
N2189 C2181 1.437 . S
N2189 C2187 1.406 . S
H2190 C2196 0.930 . S
H2191 C2200 0.930 . S
H2192 C2205 0.929 . S
H2193 C2203 0.929 . S
H2194 C2198 0.929 . S
H2195 C2204 0.929 . S
C2196 H2190 0.930 . S
C2196 C2197 1.367 . S
C2196 C2204 1.378 . S
C2197 C2196 1.367 . S
C2197 C2205 1.433 . S
C2198 H2194 0.929 . S
C2198 C2200 1.378 . S
C2198 C2202 1.350 . S
C2199 C2202 1.463 1_455 S
C2199 C2204 1.350 . S
C2199 N2207 1.427 . S
C2200 H2191 0.930 . S
C2200 C2198 1.378 . S
C2200 C2201 1.367 . S
C2201 C2200 1.367 . S
C2201 C2203 1.433 . S
C2202 C2198 1.350 . S
C2202 C2199 1.463 1_655 S
C2202 N2206 1.427 . S
C2203 H2193 0.929 . S
C2203 C2201 1.433 . S
C2203 N2206 1.384 . S
C2204 H2195 0.929 . S
C2204 C2196 1.378 . S
C2204 C2199 1.350 . S
C2205 H2192 0.929 . S
C2205 C2197 1.433 . S
C2205 N2207 1.384 . S
N2206 C2202 1.427 . S
N2206 C2203 1.384 . S
N2207 C2199 1.427 . S
N2207 C2205 1.384 . S
H2208 C2214 0.930 . S
H2209 C2218 0.930 . S
H2210 C2223 0.929 . S
H2211 C2221 0.929 . S
H2212 C2216 0.929 . S
H2213 C2222 0.929 . S
C2214 H2208 0.930 . S
C2214 C2215 1.367 . S
C2214 C2222 1.378 . S
C2215 C2214 1.367 . S
C2215 C2223 1.433 . S
C2216 H2212 0.929 . S
C2216 C2218 1.378 . S
C2216 C2220 1.350 . S
C2217 C2220 1.463 . S
C2217 C2222 1.350 . S
C2217 N2225 1.427 . S
C2218 H2209 0.930 . S
C2218 C2216 1.378 . S
C2218 C2219 1.367 . S
C2219 C2218 1.367 . S
C2219 C2221 1.433 . S
C2220 C2216 1.350 . S
C2220 C2217 1.463 . S
C2220 N2224 1.427 . S
C2221 H2211 0.929 . S
C2221 C2219 1.433 . S
C2221 N2224 1.384 . S
C2222 H2213 0.929 . S
C2222 C2214 1.378 . S
C2222 C2217 1.350 . S
C2223 H2210 0.929 . S
C2223 C2215 1.433 . S
C2223 N2225 1.384 . S
N2224 C2220 1.427 . S
N2224 C2221 1.384 . S
N2225 C2217 1.427 . S
N2225 C2223 1.384 . S
H2226 C2232 0.930 . S
H2227 C2236 0.930 . S
H2228 C2241 0.929 . S
H2229 C2239 0.929 . S
H2230 C2234 0.929 . S
H2231 C2240 0.929 . S
C2232 H2226 0.930 . S
C2232 C2233 1.367 . S
C2232 C2240 1.378 . S
C2233 C2232 1.367 . S
C2233 C2241 1.433 . S
C2234 H2230 0.929 . S
C2234 C2236 1.378 . S
C2234 C2238 1.350 . S
C2235 C2238 1.463 . S
C2235 C2240 1.350 . S
C2235 N2243 1.427 . S
C2236 H2227 0.930 . S
C2236 C2234 1.378 . S
C2236 C2237 1.367 . S
C2237 C2236 1.367 . S
C2237 C2239 1.433 . S
C2238 C2234 1.350 . S
C2238 C2235 1.463 . S
C2238 N2242 1.427 . S
C2239 H2229 0.929 . S
C2239 C2237 1.433 . S
C2239 N2242 1.384 . S
C2240 H2231 0.929 . S
C2240 C2232 1.378 . S
C2240 C2235 1.350 . S
C2241 H2228 0.929 . S
C2241 C2233 1.433 . S
C2241 N2243 1.384 . S
N2242 C2238 1.427 . S
N2242 C2239 1.384 . S
N2243 C2235 1.427 . S
N2243 C2241 1.384 . S
H2244 C2250 0.930 . S
H2245 C2254 0.930 . S
H2246 C2259 0.929 . S
H2247 C2257 0.929 . S
H2248 C2252 0.929 1_565 S
H2249 C2258 0.929 1_545 S
C2250 H2244 0.930 . S
C2250 C2251 1.367 . S
C2250 C2258 1.378 . S
C2251 C2250 1.367 . S
C2251 C2259 1.433 . S
C2252 H2248 0.929 1_545 S
C2252 C2254 1.378 . S
C2252 C2256 1.350 . S
C2253 C2256 1.463 1_565 S
C2253 C2258 1.350 . S
C2253 N2261 1.427 . S
C2254 H2245 0.930 . S
C2254 C2252 1.378 . S
C2254 C2255 1.367 . S
C2255 C2254 1.367 . S
C2255 C2257 1.433 . S
C2256 C2252 1.350 . S
C2256 C2253 1.463 1_545 S
C2256 N2260 1.427 . S
C2257 H2247 0.929 . S
C2257 C2255 1.433 . S
C2257 N2260 1.384 . S
C2258 H2249 0.929 1_565 S
C2258 C2250 1.378 . S
C2258 C2253 1.350 . S
C2259 H2246 0.929 . S
C2259 C2251 1.433 . S
C2259 N2261 1.384 . S
N2260 C2256 1.427 . S
N2260 C2257 1.384 . S
N2261 C2253 1.427 . S
N2261 C2259 1.384 . S
H2262 C2268 0.930 . S
H2263 C2272 0.930 . S
H2264 C2277 0.929 . S
H2265 C2275 0.929 . S
H2266 C2270 0.929 . S
H2267 C2276 0.929 . S
C2268 H2262 0.930 . S
C2268 C2269 1.367 1_556 S
C2268 C2276 1.378 . S
C2269 C2268 1.367 1_554 S
C2269 C2277 1.433 . S
C2270 H2266 0.929 . S
C2270 C2272 1.378 . S
C2270 C2274 1.350 . S
C2271 C2274 1.463 . S
C2271 C2276 1.350 1_554 S
C2271 N2279 1.427 . S
C2272 H2263 0.930 . S
C2272 C2270 1.378 . S
C2272 C2273 1.367 . S
C2273 C2272 1.367 . S
C2273 C2275 1.433 1_554 S
C2274 C2270 1.350 . S
C2274 C2271 1.463 . S
C2274 N2278 1.427 1_554 S
C2275 H2265 0.929 . S
C2275 C2273 1.433 1_556 S
C2275 N2278 1.384 . S
C2276 H2267 0.929 . S
C2276 C2268 1.378 . S
C2276 C2271 1.350 1_556 S
C2277 H2264 0.929 . S
C2277 C2269 1.433 . S
C2277 N2279 1.384 . S
N2278 C2274 1.427 1_556 S
N2278 C2275 1.384 . S
N2279 C2271 1.427 . S
N2279 C2277 1.384 . S
C1423 C1055 0.680 . S
C1427 C33 0.666 . S
C1441 C92 0.710 . S
C1445 C996 0.728 . S
C1459 C151 0.913 . S
C1463 C1173 0.917 . S
C1477 C210 0.957 . S
C1481 C1114 0.926 . S
C1495 C269 0.677 . S
C1499 C1291 0.674 . S
C1513 C328 0.934 . S
C1517 C1350 0.946 . S
C1531 C1232 0.706 . S
C1535 C387 0.709 . S
C1549 C701 0.923 . S
C1553 C446 0.951 . S
C1567 C505 0.674 . S
C1571 C229 0.681 . S
C1585 C111 0.939 . S
C1589 C564 0.942 . S
C1603 C623 1.166 . S
C1607 C52 1.171 . S
C1621 C682 0.951 . S
C1625 C878 0.924 . S
C1639 C347 1.157 . S
C1643 C741 1.182 . S
C1657 C288 1.168 . S
C1661 C800 1.168 . S
C1675 C859 0.949 . S
C1679 C465 0.922 . S
C1693 C918 0.935 . S
C1697 C406 0.946 . S
C1711 C583 1.159 . S
C1715 C977 1.183 . S
C1729 C642 0.942 . S
C1733 C1036 0.945 . S
C1747 C524 1.168 . S
C1751 C1095 1.168 . S
C1765 C1154 0.904 . S
C1769 C1409 0.917 . S
C1783 C937 1.153 . S
C1787 C1213 1.182 . S
C1801 C1272 0.948 . S
C1805 C819 0.937 . S
C1819 C760 0.731 . S
C1823 C1331 0.714 . S
C1837 C1390 0.917 . S
C1841 C170 0.914 . S
C1855 C5 1.790 . S
C1859 C64 1.773 . S
C1873 C182 1.648 . S
C1877 C123 1.665 . S
C1891 C241 1.787 . S
C1895 C359 1.770 . S
C1909 C300 2.068 . S
C1913 C418 2.045 . S
C1927 C1303 1.774 . S
C1931 C477 1.790 . S
C1945 C536 2.068 . S
C1949 C654 2.050 . S
C1963 C1185 1.971 . S
C1967 C595 1.988 . S
C1981 C772 1.979 . S
C1985 C713 1.962 . S
C1999 C831 2.046 . S
C2003 C890 2.070 . S
C2017 C1067 1.988 . S
C2021 C949 1.971 . S
C2035 C1008 1.654 . S
C2039 C1126 1.662 . S
C2053 C1362 1.664 . S
C2057 C1244 1.656 . S
C2071 C121 1.246 . S
C2075 C3 1.250 . S
C2089 C62 1.546 . S
C2093 C180 1.537 . S
C2107 C1124 1.237 . S
C2111 C239 1.243 . S
C2125 C298 1.482 . S
C2129 C1065 1.478 . S
C2143 C357 1.548 . S
C2147 C1006 1.542 . S
C2161 C947 1.786 . S
C2165 C416 1.791 . S
C2179 C475 1.250 . S
C2183 C1360 1.245 . S
C2197 C534 1.479 . S
C2201 C593 1.475 . S
C2215 C1183 1.788 . S
C2219 C652 1.794 . S
C2233 C711 1.787 . S
C2237 C829 1.793 . S
C2251 C770 1.471 . S
C2255 C888 1.474 . S
C2269 C1301 1.547 . S
C2273 C1242 1.539 . S
