# Generated by pormake.
# Topology snp, (6)-cn, num edge types: 1
# Building blocks:
#     Node 0, Type 0, BuildingBlock: CUWYAW_clean_sbu_0, # of connection points: 6
#     Node 1, Type 0, BuildingBlock: CUWYAW_clean_sbu_0, # of connection points: 6
#     Node 2, Type 0, BuildingBlock: CUWYAW_clean_sbu_0, # of connection points: 6
#     Node 3, Type 0, BuildingBlock: CUWYAW_clean_sbu_0, # of connection points: 6
#     Edge 4, Type (0, 0), BuildingBlock: CIFDUS_clean_linker_0, # of connection points: 2
#     Edge 5, Type (0, 0), BuildingBlock: CIFDUS_clean_linker_0, # of connection points: 2
#     Edge 6, Type (0, 0), BuildingBlock: CIFDUS_clean_linker_0, # of connection points: 2
#     Edge 7, Type (0, 0), BuildingBlock: CIFDUS_clean_linker_0, # of connection points: 2
#     Edge 8, Type (0, 0), BuildingBlock: CIFDUS_clean_linker_0, # of connection points: 2
#     Edge 9, Type (0, 0), BuildingBlock: CIFDUS_clean_linker_0, # of connection points: 2
#     Edge 10, Type (0, 0), BuildingBlock: CIFDUS_clean_linker_0, # of connection points: 2
#     Edge 11, Type (0, 0), BuildingBlock: CIFDUS_clean_linker_0, # of connection points: 2
#     Edge 12, Type (0, 0), BuildingBlock: CIFDUS_clean_linker_0, # of connection points: 2
#     Edge 13, Type (0, 0), BuildingBlock: CIFDUS_clean_linker_0, # of connection points: 2
#     Edge 14, Type (0, 0), BuildingBlock: CIFDUS_clean_linker_0, # of connection points: 2
#     Edge 15, Type (0, 0), BuildingBlock: CIFDUS_clean_linker_0, # of connection points: 2
# Relax obj value: 0.388
# Max RMSD: 0.234
# Mean RMSD: 0.216
data_MOF--net-snp--node1-CUWYAW_clean_sbu_0--edge1-CIFDUS_clean_linker_0
_symmetry_space_group_name_H-M    P1
_symmetry_Int_Tables_number       1
_symmetry_cell_setting            triclinic
loop_
_symmetry_equiv_pos_as_xyz
'x, y, z'
_cell_length_a     22.003603
_cell_length_b     22.4033
_cell_length_c     29.46557
_cell_angle_alpha  94.369238
_cell_angle_beta   76.671104
_cell_angle_gamma 124.8788
loop_
_atom_site_label
_atom_site_type_symbol
_atom_site_fract_x
_atom_site_fract_y
_atom_site_fract_z
_atom_type_partial_charge
C0 C 0.20417 0.86452 0.24253 0.0
Eu1 Eu 0.24654 -0.00359 0.26145 0.0
C2 C 0.22116 0.83221 0.20013 0.0
C3 C 0.16527 0.7895 0.17454 0.0
C4 C 0.18474 0.77116 0.12982 0.0
C5 C 0.26048 0.79565 0.10998 0.0
C6 C 0.31487 0.83265 0.13713 0.0
C7 C 0.29506 0.84989 0.18215 0.0
C8 C 0.17579 0.06229 0.28655 0.0
C9 C 0.31101 0.12231 0.18177 0.0
C10 C 0.41816 0.28932 0.30407 0.0
Eu11 Eu 0.34878 0.15105 0.28852 0.0
C12 C 0.4266 0.33528 0.34377 0.0
C13 C 0.45047 0.40738 0.33605 0.0
C14 C 0.45416 0.45042 0.37374 0.0
C15 C 0.43429 0.42199 0.41978 0.0
C16 C 0.41273 0.35033 0.42714 0.0
C17 C 0.40867 0.30727 0.38949 0.0
C18 C 0.41757 0.08224 0.25744 0.0
C19 C 0.25204 0.02334 0.37358 0.0
O20 O 0.26088 0.90838 0.26256 0.0
O21 O 0.16349 0.88948 0.24041 0.0
O22 O 0.15546 0.01075 0.25764 0.0
O23 O 0.2255 0.07006 0.30552 0.0
O24 O 0.277 0.0512 0.18957 0.0
O25 O 0.34112 0.16812 0.21432 0.0
O26 O 0.35056 0.24971 0.29491 0.0
O27 O 0.44938 0.2536 0.30108 0.0
O28 O 0.43145 0.123 0.29258 0.0
O29 O 0.3697 0.08085 0.24008 0.0
O30 O 0.29632 0.0949 0.36255 0.0
O31 O 0.22813 -0.02358 0.3407 0.0
H32 H 0.10761 0.77412 0.18792 0.0
H33 H 0.14182 0.74285 0.10942 0.0
H34 H 0.37345 0.85145 0.12263 0.0
H35 H 0.33866 0.88038 0.20178 0.0
H36 H 0.46472 0.4299 0.3009 0.0
H37 H 0.47109 0.50539 0.367 0.0
H38 H 0.39565 0.3263 0.46222 0.0
H39 H 0.38979 0.25159 0.39614 0.0
C40 C 0.23789 0.35174 0.83642 0.0
Eu41 Eu 0.18743 0.36574 0.76734 0.0
C42 C 0.23525 0.31042 0.87613 0.0
C43 C 0.24533 0.34169 0.9195 0.0
C44 C 0.25024 0.30896 0.9564 0.0
C45 C 0.24492 0.24302 0.95175 0.0
C46 C 0.23357 0.21097 0.90839 0.0
C47 C 0.22938 0.24427 0.87118 0.0
C48 C 0.14533 0.45716 0.76223 0.0
C49 C 0.00834 0.24402 0.77699 0.0
C50 C 0.02202 0.31795 0.62448 0.0
Eu51 Eu 0.10938 0.34968 0.68258 0.0
C52 C 0.0092 0.29798 0.57596 0.0
C53 C 0.00477 0.23632 0.55664 0.0
C54 C -0.01979 0.2107 0.51477 0.0
C55 C -0.04065 0.24584 0.49053 0.0
C56 C -0.03391 0.30885 0.50919 0.0
C57 C -0.0098 0.33418 0.55125 0.0
C58 C 0.1991 0.30095 0.6703 0.0
C59 C 0.28626 0.46997 0.67159 0.0
O60 O 0.25828 0.34128 0.79265 0.0
O61 O 0.1901 0.37038 0.84192 0.0
O62 O 0.20595 0.47659 0.77584 0.0
O63 O 0.10917 0.39138 0.75337 0.0
O64 O 0.07086 0.26051 0.78813 0.0
O65 O 0.00998 0.28006 0.74278 0.0
O66 O 0.07289 0.38566 0.63272 0.0
O67 O 0.01711 0.2698 0.65049 0.0
O68 O 0.18761 0.32368 0.63634 0.0
O69 O 0.155 0.2962 0.70787 0.0
O70 O 0.22253 0.45961 0.66596 0.0
O71 O 0.28661 0.43591 0.70664 0.0
H72 H 0.25077 0.3928 0.92474 0.0
H73 H 0.25772 0.33547 0.98891 0.0
H74 H 0.2297 0.16071 0.90266 0.0
H75 H 0.22245 0.21859 0.83835 0.0
H76 H 0.01836 0.20639 0.57454 0.0
H77 H -0.02269 0.16294 0.50149 0.0
H78 H -0.04986 0.33741 0.49214 0.0
H79 H -0.00849 0.3809 0.56533 0.0
C80 C 0.77271 0.13905 0.13367 0.0
Eu81 Eu 0.80416 0.05086 0.155 0.0
C82 C 0.73703 0.13529 0.09627 0.0
C83 C 0.75992 0.19963 1.07313 0.0
C84 C 0.74794 0.19795 1.02835 0.0
C85 C 0.71331 0.13181 1.0064 0.0
C86 C 0.68038 0.06644 1.03268 0.0
C87 C 0.6936 0.06832 1.07693 0.0
C88 C 0.93491 0.07225 0.16367 0.0
C89 C 0.83069 0.94964 1.07921 0.0
C90 C 0.77731 0.80464 0.2215 0.0
Eu91 Eu 0.78215 0.91312 0.19187 0.0
C92 C 0.74381 0.76964 0.26918 0.0
C93 C 0.69379 0.69343 0.27687 0.0
C94 C 0.6536 0.66132 0.32231 0.0
C95 C 0.66202 0.70535 0.36025 0.0
C96 C 0.71306 0.78139 0.35233 0.0
C97 C 0.75355 0.81312 0.30741 0.0
C98 C 0.65263 0.90557 0.19823 0.0
C99 C 0.79097 0.02941 0.26876 0.0
O100 O 0.72915 0.08738 0.16738 0.0
O101 O 0.83975 0.15071 0.11871 0.0
O102 O 0.93268 0.1084 0.13228 0.0
O103 O 0.86941 0.03088 0.18885 0.0
O104 O 0.80915 -0.00499 1.08671 0.0
O105 O 0.83384 0.9192 0.11452 0.0
O106 O 0.8383 0.87194 0.21669 0.0
O107 O 0.72795 0.79594 0.19923 0.0
O108 O 0.66178 0.87286 0.22763 0.0
O109 O 0.71034 0.93473 0.16436 0.0
O110 O 0.78814 -0.03111 0.26007 0.0
O111 O 0.79547 0.06872 0.23457 0.0
H112 H 0.79388 0.25181 1.08745 0.0
H113 H 0.77427 0.24937 1.00896 0.0
H114 H 0.65302 0.01474 1.01674 0.0
H115 H 0.6771 0.01823 0.09361 0.0
H116 H 0.68469 0.65902 0.24773 0.0
H117 H 0.61536 0.60247 0.32774 0.0
H118 H 0.72257 0.8166 0.38107 0.0
H119 H 0.7915 0.87199 0.30269 0.0
C120 C 0.20601 0.84264 0.74118 0.0
Eu121 Eu 0.07773 0.82377 0.74107 0.0
C122 C 0.25639 0.86361 0.77299 0.0
C123 C 0.2653 0.91489 0.80602 0.0
C124 C 0.30048 0.92284 0.84205 0.0
C125 C 0.32599 0.87882 0.84582 0.0
C126 C 0.3214 0.83105 0.81092 0.0
C127 C 0.28703 0.82372 0.77464 0.0
C128 C 0.04587 0.92246 0.74446 0.0
C129 C -0.04431 0.8121 0.8343 0.0
C130 C 0.78103 0.69654 0.72103 0.0
Eu131 Eu 0.91692 0.75625 0.73478 0.0
C132 C 0.73867 0.68018 0.68473 0.0
C133 C 0.68109 0.60706 0.68041 0.0
C134 C 0.6446 0.58801 0.64358 0.0
C135 C 0.66435 0.64208 0.61101 0.0
C136 C 0.71907 0.71571 0.61674 0.0
C137 C 0.75639 0.73471 0.65325 0.0
C138 C -0.04791 0.66505 0.756 0.0
C139 C 0.05041 0.82436 0.63639 0.0
O140 O 0.13937 0.78101 0.75403 0.0
O141 O 0.20209 0.89307 0.72518 0.0
O142 O 0.08661 0.92216 0.77017 0.0
O143 O 0.02137 0.86842 0.71964 0.0
O144 O 0.01532 0.80805 0.81899 0.0
O145 O 0.91301 0.80241 0.80565 0.0
O146 O 0.82309 0.76413 0.73225 0.0
O147 O 0.81328 0.66211 0.7193 0.0
O148 O 0.89457 0.66407 0.7805 0.0
O149 O -0.01088 0.71585 0.72485 0.0
O150 O -0.02365 0.78901 0.65637 0.0
O151 O 0.1007 0.84318 0.66184 0.0
H152 H 0.24118 0.94553 0.80564 0.0
H153 H 0.30229 0.95924 0.86895 0.0
H154 H 0.34052 0.7965 0.8132 0.0
H155 H 0.28007 0.78352 0.74953 0.0
H156 H 0.66625 0.56428 0.70467 0.0
H157 H 0.60268 0.531 0.63968 0.0
H158 H 0.73591 0.75822 0.5915 0.0
H159 H 0.80059 0.79145 0.65584 0.0
H160 H 0.93012 0.0636 0.25468 0.0
H161 H 0.08758 0.15527 0.12073 0.0
H162 H 0.19292 0.19382 0.15786 0.0
H163 H 0.23065 0.17336 0.22395 0.0
H164 H 0.06444 0.05885 0.35138 0.0
H165 H -0.02772 0.06579 0.32354 0.0
C166 C -0.01287 0.09305 0.23337 0.0
C167 C 0.00076 0.10428 0.18474 0.0
C168 C 0.04565 0.11295 0.2546 0.0
C169 C 0.07574 0.14432 0.15805 0.0
C170 C 0.13565 0.16657 0.17933 0.0
C171 C 0.1751 0.15174 0.24603 0.0
C172 C 0.15243 0.11168 0.28824 0.0
C173 C 0.12022 0.14725 0.22704 0.0
C174 C 0.0824 0.08869 0.31826 0.0
C175 C 0.02914 0.09066 0.3017 0.0
H176 H 0.16128 0.05527 0.76048 0.0
H177 H -0.01013 0.94285 0.67917 0.0
H178 H 0.04944 0.05561 0.63182 0.0
H179 H 0.14045 0.18671 0.6203 0.0
H180 H 0.29949 0.30058 0.70858 0.0
H181 H 0.26085 0.18465 0.74308 0.0
C182 C 0.13644 0.05551 0.73272 0.0
C183 C 0.07081 -0.00829 0.7236 0.0
C184 C 0.17147 0.11951 0.70539 0.0
C185 C 0.03966 -0.00771 0.68723 0.0
C186 C 0.07451 0.05597 0.65958 0.0
C187 C 0.16922 0.18563 0.64534 0.0
C188 C 0.22004 0.25024 0.66366 0.0
C189 C 0.13996 0.11983 0.66869 0.0
C190 C 0.25879 0.25014 0.69515 0.0
C191 C 0.23505 0.18424 0.71574 0.0
H192 H 0.57634 0.93226 0.15033 0.0
H193 H 0.62408 0.94256 0.28577 0.0
H194 H 0.55654 -0.00165 0.31558 0.0
H195 H 0.48685 0.04762 0.30333 0.0
H196 H 0.43584 0.03777 0.16922 0.0
H197 H 0.50336 -0.01915 0.13825 0.0
C198 C 0.57264 0.9478 0.18605 0.0
C199 C 0.60688 0.93512 0.21534 0.0
C200 C 0.53355 -0.01958 0.20317 0.0
C201 C 0.59896 0.95244 0.26227 0.0
C202 C 0.56051 -0.01538 0.27942 0.0
C203 C 0.49055 0.03296 0.26733 0.0
C204 C 0.45675 0.04681 0.23857 0.0
C205 C 0.5282 -0.00054 0.25016 0.0
C206 C 0.4615 0.02739 0.19203 0.0
C207 C 0.50003 -0.00515 0.17434 0.0
H208 H 0.01558 0.44043 0.80927 0.0
H209 H 0.2209 0.57838 0.70431 0.0
H210 H 0.17483 0.65085 0.69047 0.0
H211 H 0.07472 0.67151 0.70649 0.0
H212 H 0.87925 0.54889 0.82071 0.0
H213 H 0.92105 0.47117 0.83188 0.0
C214 C 0.05019 0.48693 0.78378 0.0
C215 C 0.12105 0.50449 0.75753 0.0
C216 C 0.02457 0.5298 0.77741 0.0
C217 C 0.16625 0.56458 0.72477 0.0
C218 C 0.13976 0.60551 0.71675 0.0
C219 C 0.04209 0.62901 0.73469 0.0
C220 C -0.02508 0.61685 0.76345 0.0
C221 C 0.0689 0.58823 0.74268 0.0
C222 C 0.93164 0.55968 0.79851 0.0
C223 C -0.04433 0.51556 0.80494 0.0
H224 H 0.3038 0.53135 0.58879 0.0
H225 H 0.41207 0.46724 0.65897 0.0
H226 H 0.47879 0.4569 0.58396 0.0
H227 H 0.48127 0.43711 0.50037 0.0
H228 H 0.37076 0.49844 0.43049 0.0
H229 H 0.33129 0.53965 0.5031 0.0
C230 C 0.34403 0.51764 0.58779 0.0
C231 C 0.35001 0.4969 0.62961 0.0
C232 C 0.38054 0.5094 0.54441 0.0
C233 C 0.40442 0.48163 0.62748 0.0
C234 C 0.44212 0.47477 0.58445 0.0
C235 C 0.44981 0.46083 0.5009 0.0
C236 C 0.42735 0.46296 0.46041 0.0
C237 C 0.42632 0.48352 0.54297 0.0
C238 C 0.38851 0.49576 0.4612 0.0
C239 C 0.36547 0.51899 0.50284 0.0
H240 H 0.89049 0.25638 0.80369 0.0
H241 H -0.03466 0.12179 0.82448 0.0
H242 H 0.86088 0.05865 0.89331 0.0
H243 H 0.77038 0.06283 0.95577 0.0
H244 H 0.70733 0.2097 0.94172 0.0
H245 H 0.7837 0.24591 0.86125 0.0
C246 C 0.88212 0.21145 0.82243 0.0
C247 C 0.93549 0.19392 0.80967 0.0
C248 C 0.8247 0.17847 0.86341 0.0
C249 C 0.92503 0.13635 0.83421 0.0
C250 C 0.86556 0.10051 0.87353 0.0
C251 C 0.77037 0.10034 0.93455 0.0
C252 C 0.73383 0.13412 0.95475 0.0
C253 C 0.81794 0.12405 0.88981 0.0
C254 C 0.73551 0.18346 0.92692 0.0
C255 C 0.77967 0.20454 0.88114 0.0
H256 H 0.596 0.69066 0.57526 0.0
H257 H 0.67267 0.54951 0.54952 0.0
H258 H 0.66082 0.54226 0.46855 0.0
H259 H 0.65685 0.59882 0.40217 0.0
H260 H 0.58418 0.74323 0.42745 0.0
H261 H 0.56342 0.72445 0.5117 0.0
C262 C 0.60801 0.65683 0.55209 0.0
C263 C 0.6367 0.62202 0.56758 0.0
C264 C 0.60247 0.65408 0.50548 0.0
C265 C 0.65099 0.57718 0.53794 0.0
C266 C 0.64484 0.57351 0.49162 0.0
C267 C 0.63375 0.62391 0.42623 0.0
C268 C 0.62422 0.67396 0.40894 0.0
C269 C 0.62471 0.615 0.47442 0.0
C270 C 0.59351 0.70569 0.44028 0.0
C271 C 0.58217 0.69541 0.48834 0.0
H272 H 0.26445 0.75608 0.89848 0.0
H273 H 0.42398 -0.01036 0.89298 0.0
H274 H 0.42922 -0.01856 0.97424 0.0
H275 H 0.37047 0.91024 1.04964 0.0
H276 H 0.20043 0.67852 1.05675 0.0
H277 H 0.21819 0.68291 0.97162 0.0
C278 C 0.3023 0.80488 0.91463 0.0
C279 C 0.34368 0.8734 0.89009 0.0
C280 C 0.30226 0.7999 0.96172 0.0
C281 C 0.39147 0.93645 0.91149 0.0
C282 C 0.39417 0.93172 0.95788 0.0
C283 C 0.33929 0.86039 1.03228 0.0
C284 C 0.28418 0.79414 1.05907 0.0
C285 C 0.34723 0.86409 0.98384 0.0
C286 C 0.24299 0.73001 1.03656 0.0
C287 C 0.25287 0.73267 0.98806 0.0
H288 H 0.91075 0.88864 1.04813 0.0
H289 H 0.79658 -0.03289 0.99898 0.0
H290 H 0.82333 0.93039 0.92056 0.0
H291 H 0.87752 0.87424 0.86551 0.0
H292 H -0.00141 0.80256 0.91304 0.0
H293 H -0.02901 0.83828 0.99185 0.0
C294 C 0.89164 0.8979 1.02034 0.0
C295 C 0.85076 0.93039 1.03023 0.0
C296 C 0.90842 0.87752 0.9747 0.0
C297 C 0.82783 0.94244 0.99306 0.0
C298 C 0.84307 0.92117 0.94798 0.0
C299 C 0.89771 0.86595 0.89308 0.0
C300 C 0.93945 0.83438 0.88293 0.0
C301 C 0.88289 0.88822 0.93836 0.0
C302 C -0.03386 0.82599 0.91936 0.0
C303 C -0.04975 0.84655 0.96463 0.0
H304 H 0.12049 0.89349 0.41618 0.0
H305 H 0.32127 0.0893 0.44616 0.0
H306 H 0.27937 0.0444 0.52826 0.0
H307 H 0.185 0.94958 0.59269 0.0
H308 H -0.02144 0.75907 0.56448 0.0
H309 H 0.02291 0.80133 0.48155 0.0
C310 C 0.15535 0.92634 0.44058 0.0
C311 C 0.2248 -0.00512 0.42426 0.0
C312 C 0.12965 0.90082 0.48854 0.0
C313 C 0.26794 0.03663 0.45712 0.0
C314 C 0.24392 0.01077 0.50432 0.0
C315 C 0.14987 0.91688 0.56836 0.0
C316 C 0.07866 0.85019 0.58521 0.0
C317 C 0.17488 0.9429 0.52059 0.0
C318 C 0.03357 0.81005 0.55294 0.0
C319 C 0.05906 0.83438 0.50528 0.0
H320 H 0.33584 0.30983 1.01616 0.0
H321 H 0.16719 0.09651 0.97909 0.0
H322 H 0.17452 0.04024 1.04378 0.0
H323 H 0.22643 0.05077 0.11361 0.0
H324 H 0.39455 0.26537 0.14965 0.0
H325 H 0.38929 0.32029 1.08379 0.0
C326 C 0.30015 0.25096 1.02211 0.0
C327 C 0.25085 0.20824 0.99183 0.0
C328 C 0.30467 0.21839 1.05978 0.0
C329 C 0.20648 0.13172 1.00069 0.0
C330 C 0.21036 0.09916 1.03818 0.0
C331 C 0.26281 0.1095 0.10676 0.0
C332 C 0.31136 0.1532 0.13732 0.0
C333 C 0.25922 0.14176 1.06822 0.0
C334 C 0.35678 0.22948 0.12742 0.0
C335 C 0.35368 0.26138 1.08948 0.0
H336 H 0.87042 0.17349 0.29139 0.0
H337 H 0.74925 0.95361 0.35095 0.0
H338 H 0.79002 -9e-05 0.42364 0.0
H339 H 0.8644 0.10265 0.47009 0.0
H340 H -0.01208 0.32306 0.41073 0.0
H341 H 0.9418 0.27706 0.33935 0.0
C342 C 0.85142 0.13568 0.32063 0.0
C343 C 0.80583 0.05976 0.31538 0.0
C344 C 0.87642 0.16292 0.36266 0.0
C345 C 0.78374 0.01209 0.35365 0.0
C346 C 0.8075 0.03863 0.39538 0.0
C347 C 0.88179 0.1409 0.44154 0.0
C348 C 0.93019 0.21672 0.44645 0.0
C349 C 0.8549 0.11394 0.40016 0.0
C350 C -0.04961 0.26465 0.40879 0.0
C351 C 0.92412 0.23825 0.36759 0.0
loop_
_geom_bond_atom_site_label_1
_geom_bond_atom_site_label_2
_geom_bond_distance
_geom_bond_site_symmetry_2
_ccdc_geom_bond_type
C0 Eu1 2.835 . S
C0 C2 1.500 1_545 S
C0 O20 1.257 . S
C0 O21 1.260 . S
Eu1 C0 2.835 . S
Eu1 O20 2.473 . S
Eu1 O21 2.480 . S
Eu1 O22 2.430 . S
Eu1 O23 2.670 . S
Eu1 O24 2.394 . S
Eu1 O29 2.355 . S
Eu1 O31 2.374 . S
C2 C0 1.500 1_565 S
C2 C3 1.377 . S
C2 C7 1.377 1_565 S
C3 C2 1.377 . S
C3 C4 1.395 1_554 S
C3 H32 0.931 . S
C4 C3 1.395 1_556 S
C4 C5 1.383 . S
C4 H33 0.931 . S
C5 C4 1.383 . S
C5 C6 1.394 . S
C6 C5 1.394 . S
C6 C7 1.378 1_566 S
C6 H34 0.931 . S
C7 C2 1.377 1_545 S
C7 C6 1.378 1_544 S
C7 H35 0.931 . S
C8 O22 1.259 . S
C8 O23 1.270 . S
C9 O24 1.251 . S
C9 O25 1.251 . S
C10 Eu11 2.835 . S
C10 C12 1.500 . S
C10 O26 1.257 . S
C10 O27 1.260 . S
Eu11 C10 2.835 . S
Eu11 O23 2.355 . S
Eu11 O25 2.374 . S
Eu11 O26 2.473 . S
Eu11 O27 2.480 . S
Eu11 O28 2.430 . S
Eu11 O29 2.670 . S
Eu11 O30 2.394 . S
C12 C10 1.500 . S
C12 C13 1.377 . S
C12 C17 1.377 . S
C13 C12 1.377 . S
C13 C14 1.395 . S
C13 H36 0.931 . S
C14 C13 1.395 . S
C14 C15 1.383 . S
C14 H37 0.931 . S
C15 C14 1.383 . S
C15 C16 1.394 . S
C16 C15 1.394 . S
C16 C17 1.378 . S
C16 H38 0.931 . S
C17 C12 1.377 . S
C17 C16 1.378 . S
C17 H39 0.931 . S
C18 O28 1.259 . S
C18 O29 1.270 . S
C19 O30 1.251 . S
C19 O31 1.251 . S
O20 C0 1.257 . S
O20 Eu1 2.473 . S
O21 C0 1.260 . S
O21 Eu1 2.480 . S
O22 Eu1 2.430 . S
O22 C8 1.259 . S
O23 Eu1 2.670 . S
O23 C8 1.270 . S
O23 Eu11 2.355 . S
O24 Eu1 2.394 . S
O24 C9 1.251 . S
O25 C9 1.251 . S
O25 Eu11 2.374 . S
O26 C10 1.257 . S
O26 Eu11 2.473 . S
O27 C10 1.260 . S
O27 Eu11 2.480 . S
O28 Eu11 2.430 . S
O28 C18 1.259 . S
O29 Eu1 2.355 . S
O29 Eu11 2.670 . S
O29 C18 1.270 . S
O30 Eu11 2.394 . S
O30 C19 1.251 . S
O31 Eu1 2.374 . S
O31 C19 1.251 . S
H32 C3 0.931 . S
H33 C4 0.931 . S
H34 C6 0.931 . S
H35 C7 0.931 . S
H36 C13 0.931 . S
H37 C14 0.931 . S
H38 C16 0.931 . S
H39 C17 0.931 . S
C40 Eu41 2.835 . S
C40 C42 1.500 . S
C40 O60 1.257 . S
C40 O61 1.260 . S
Eu41 C40 2.835 . S
Eu41 O60 2.473 . S
Eu41 O61 2.480 . S
Eu41 O62 2.430 . S
Eu41 O63 2.670 . S
Eu41 O64 2.394 . S
Eu41 O69 2.355 . S
Eu41 O71 2.374 . S
C42 C40 1.500 . S
C42 C43 1.377 . S
C42 C47 1.377 . S
C43 C42 1.377 . S
C43 C44 1.395 . S
C43 H72 0.931 . S
C44 C43 1.395 . S
C44 C45 1.383 . S
C44 H73 0.931 . S
C45 C44 1.383 . S
C45 C46 1.394 . S
C46 C45 1.394 . S
C46 C47 1.378 . S
C46 H74 0.931 . S
C47 C42 1.377 . S
C47 C46 1.378 . S
C47 H75 0.931 . S
C48 O62 1.259 . S
C48 O63 1.270 . S
C49 O64 1.251 . S
C49 O65 1.251 . S
C50 Eu51 2.835 . S
C50 C52 1.500 . S
C50 O66 1.257 . S
C50 O67 1.260 . S
Eu51 C50 2.835 . S
Eu51 O63 2.355 . S
Eu51 O65 2.374 . S
Eu51 O66 2.473 . S
Eu51 O67 2.480 . S
Eu51 O68 2.430 . S
Eu51 O69 2.670 . S
Eu51 O70 2.394 . S
C52 C50 1.500 . S
C52 C53 1.377 1_455 S
C52 C57 1.377 . S
C53 C52 1.377 1_655 S
C53 C54 1.395 . S
C53 H76 0.931 . S
C54 C53 1.395 . S
C54 C55 1.383 . S
C54 H77 0.931 . S
C55 C54 1.383 . S
C55 C56 1.394 1_655 S
C56 C55 1.394 1_455 S
C56 C57 1.378 . S
C56 H78 0.931 . S
C57 C52 1.377 . S
C57 C56 1.378 . S
C57 H79 0.931 . S
C58 O68 1.259 . S
C58 O69 1.270 . S
C59 O70 1.251 . S
C59 O71 1.251 . S
O60 C40 1.257 . S
O60 Eu41 2.473 . S
O61 C40 1.260 . S
O61 Eu41 2.480 . S
O62 Eu41 2.430 . S
O62 C48 1.259 . S
O63 Eu41 2.670 . S
O63 C48 1.270 . S
O63 Eu51 2.355 . S
O64 Eu41 2.394 . S
O64 C49 1.251 . S
O65 C49 1.251 . S
O65 Eu51 2.374 . S
O66 C50 1.257 . S
O66 Eu51 2.473 . S
O67 C50 1.260 . S
O67 Eu51 2.480 . S
O68 Eu51 2.430 . S
O68 C58 1.259 . S
O69 Eu41 2.355 . S
O69 Eu51 2.670 . S
O69 C58 1.270 . S
O70 Eu51 2.394 . S
O70 C59 1.251 . S
O71 Eu41 2.374 . S
O71 C59 1.251 . S
H72 C43 0.931 . S
H73 C44 0.931 . S
H74 C46 0.931 . S
H75 C47 0.931 . S
H76 C53 0.931 . S
H77 C54 0.931 . S
H78 C56 0.931 . S
H79 C57 0.931 . S
C80 Eu81 2.835 1_556 S
C80 C82 1.500 . S
C80 O100 1.257 1_556 S
C80 O101 1.260 1_556 S
Eu81 C80 2.835 1_554 S
Eu81 O100 2.473 . S
Eu81 O101 2.480 . S
Eu81 O102 2.430 1_655 S
Eu81 O103 2.670 . S
Eu81 O104 2.394 . S
Eu81 O109 2.355 . S
Eu81 O111 2.374 . S
C82 C80 1.500 . S
C82 C83 1.377 1_655 S
C82 C87 1.377 . S
C83 C82 1.377 1_455 S
C83 C84 1.395 . S
C83 H112 0.931 . S
C84 C83 1.395 . S
C84 C85 1.383 1_455 S
C84 H113 0.931 . S
C85 C84 1.383 1_655 S
C85 C86 1.394 . S
C86 C85 1.394 . S
C86 C87 1.378 . S
C86 H114 0.931 . S
C87 C82 1.377 . S
C87 C86 1.378 . S
C87 H115 0.931 . S
C88 O102 1.259 1_655 S
C88 O103 1.270 . S
C89 O104 1.251 1_565 S
C89 O105 1.251 . S
C90 Eu91 2.835 . S
C90 C92 1.500 . S
C90 O106 1.257 . S
C90 O107 1.260 . S
Eu91 C90 2.835 . S
Eu91 O103 2.355 1_565 S
Eu91 O105 2.374 . S
Eu91 O106 2.473 . S
Eu91 O107 2.480 . S
Eu91 O108 2.430 . S
Eu91 O109 2.670 1_565 S
Eu91 O110 2.394 1_565 S
C92 C90 1.500 . S
C92 C93 1.377 . S
C92 C97 1.377 . S
C93 C92 1.377 . S
C93 C94 1.395 . S
C93 H116 0.931 . S
C94 C93 1.395 . S
C94 C95 1.383 . S
C94 H117 0.931 . S
C95 C94 1.383 . S
C95 C96 1.394 . S
C96 C95 1.394 . S
C96 C97 1.378 . S
C96 H118 0.931 . S
C97 C92 1.377 . S
C97 C96 1.378 . S
C97 H119 0.931 . S
C98 O108 1.259 . S
C98 O109 1.270 1_565 S
C99 O110 1.251 . S
C99 O111 1.251 . S
O100 C80 1.257 1_554 S
O100 Eu81 2.473 . S
O101 C80 1.260 1_554 S
O101 Eu81 2.480 . S
O102 Eu81 2.430 1_455 S
O102 C88 1.259 1_455 S
O103 Eu81 2.670 . S
O103 C88 1.270 . S
O103 Eu91 2.355 1_545 S
O104 Eu81 2.394 . S
O104 C89 1.251 1_545 S
O105 C89 1.251 . S
O105 Eu91 2.374 . S
O106 C90 1.257 . S
O106 Eu91 2.473 . S
O107 C90 1.260 . S
O107 Eu91 2.480 . S
O108 Eu91 2.430 . S
O108 C98 1.259 . S
O109 Eu81 2.355 . S
O109 Eu91 2.670 1_545 S
O109 C98 1.270 1_545 S
O110 Eu91 2.394 1_545 S
O110 C99 1.251 . S
O111 Eu81 2.374 . S
O111 C99 1.251 . S
H112 C83 0.931 . S
H113 C84 0.931 . S
H114 C86 0.931 . S
H115 C87 0.931 . S
H116 C93 0.931 . S
H117 C94 0.931 . S
H118 C96 0.931 . S
H119 C97 0.931 . S
C120 Eu121 2.835 . S
C120 C122 1.500 . S
C120 O140 1.257 . S
C120 O141 1.260 . S
Eu121 C120 2.835 . S
Eu121 O140 2.473 . S
Eu121 O141 2.480 . S
Eu121 O142 2.430 . S
Eu121 O143 2.670 . S
Eu121 O144 2.394 1_455 S
Eu121 O149 2.351 1_455 S
Eu121 O151 2.374 . S
C122 C120 1.500 . S
C122 C123 1.377 . S
C122 C127 1.377 . S
C123 C122 1.377 . S
C123 C124 1.395 . S
C123 H152 0.931 . S
C124 C123 1.395 . S
C124 C125 1.383 . S
C124 H153 0.931 . S
C125 C124 1.383 . S
C125 C126 1.394 . S
C126 C125 1.394 . S
C126 C127 1.378 . S
C126 H154 0.931 . S
C127 C122 1.377 . S
C127 C126 1.378 . S
C127 H155 0.931 . S
C128 O142 1.259 . S
C128 O143 1.270 . S
C129 O144 1.251 . S
C129 O145 1.251 . S
C130 Eu131 2.835 . S
C130 C132 1.500 . S
C130 O146 1.257 . S
C130 O147 1.260 . S
Eu131 C130 2.835 . S
Eu131 O143 2.355 1_655 S
Eu131 O145 2.374 . S
Eu131 O146 2.473 . S
Eu131 O147 2.480 . S
Eu131 O148 2.430 . S
Eu131 O149 2.686 . S
Eu131 O150 2.394 1_655 S
C132 C130 1.500 . S
C132 C133 1.377 . S
C132 C137 1.377 . S
C133 C132 1.377 . S
C133 C134 1.395 . S
C133 H156 0.931 . S
C134 C133 1.395 . S
C134 C135 1.383 . S
C134 H157 0.931 . S
C135 C134 1.383 . S
C135 C136 1.394 . S
C136 C135 1.394 . S
C136 C137 1.378 . S
C136 H158 0.931 . S
C137 C132 1.377 . S
C137 C136 1.378 . S
C137 H159 0.931 . S
C138 O148 1.259 . S
C138 O149 1.268 . S
C139 O150 1.251 . S
C139 O151 1.251 . S
O140 C120 1.257 . S
O140 Eu121 2.473 . S
O141 C120 1.260 . S
O141 Eu121 2.480 . S
O142 Eu121 2.430 . S
O142 C128 1.259 . S
O143 Eu121 2.670 . S
O143 C128 1.270 . S
O143 Eu131 2.355 1_455 S
O144 Eu121 2.394 1_655 S
O144 C129 1.251 . S
O145 C129 1.251 . S
O145 Eu131 2.374 . S
O146 C130 1.257 . S
O146 Eu131 2.473 . S
O147 C130 1.260 . S
O147 Eu131 2.480 . S
O148 Eu131 2.430 . S
O148 C138 1.259 . S
O149 Eu121 2.351 1_655 S
O149 Eu131 2.686 . S
O149 C138 1.268 . S
O150 Eu131 2.394 1_455 S
O150 C139 1.251 . S
O151 Eu121 2.374 . S
O151 C139 1.251 . S
H152 C123 0.931 . S
H153 C124 0.931 . S
H154 C126 0.931 . S
H155 C127 0.931 . S
H156 C133 0.931 . S
H157 C134 0.931 . S
H158 C136 0.931 . S
H159 C137 0.931 . S
H160 C166 0.929 1_565 S
H161 C169 0.930 . S
H162 C170 0.930 . S
H163 C171 0.930 . S
H164 C174 0.930 . S
H165 C175 0.930 1_565 S
C166 H160 0.929 1_545 S
C166 C167 1.355 . S
C166 C168 1.415 . S
C167 C166 1.355 . S
C167 C169 1.419 . S
C168 C166 1.415 . S
C168 C173 1.425 . S
C168 C175 1.409 . S
C169 H161 0.930 . S
C169 C167 1.419 . S
C169 C170 1.362 . S
C170 H162 0.930 . S
C170 C169 1.362 . S
C170 C173 1.409 . S
C171 H163 0.930 . S
C171 C172 1.355 . S
C171 C173 1.415 . S
C172 C171 1.355 . S
C172 C174 1.419 . S
C173 C168 1.425 . S
C173 C170 1.409 . S
C173 C171 1.415 . S
C174 H164 0.930 . S
C174 C172 1.419 . S
C174 C175 1.362 . S
C175 H165 0.930 1_545 S
C175 C168 1.409 . S
C175 C174 1.362 . S
H176 C182 0.930 1_655 S
H177 C185 0.930 . S
H178 C186 0.930 . S
H179 C187 0.930 . S
H180 C190 0.930 . S
H181 C191 0.930 1_655 S
C182 H176 0.930 1_455 S
C182 C183 1.355 . S
C182 C184 1.415 1_565 S
C183 C182 1.355 . S
C183 C185 1.419 . S
C184 C182 1.415 1_545 S
C184 C189 1.425 . S
C184 C191 1.409 . S
C185 H177 0.930 . S
C185 C183 1.419 . S
C185 C186 1.362 1_565 S
C186 H178 0.930 . S
C186 C185 1.362 1_545 S
C186 C189 1.409 . S
C187 H179 0.930 . S
C187 C188 1.355 . S
C187 C189 1.415 . S
C188 C187 1.355 . S
C188 C190 1.419 . S
C189 C184 1.425 . S
C189 C186 1.409 . S
C189 C187 1.415 . S
C190 H180 0.930 . S
C190 C188 1.419 . S
C190 C191 1.362 . S
C191 H181 0.930 1_455 S
C191 C184 1.409 . S
C191 C190 1.362 . S
H192 C198 0.930 1_565 S
H193 C201 0.930 . S
H194 C202 0.930 . S
H195 C203 0.930 . S
H196 C206 0.930 . S
H197 C207 0.930 1_565 S
C198 H192 0.930 1_545 S
C198 C199 1.355 . S
C198 C200 1.415 . S
C199 C198 1.355 . S
C199 C201 1.419 . S
C200 C198 1.415 . S
C200 C205 1.425 . S
C200 C207 1.409 . S
C201 H193 0.930 . S
C201 C199 1.419 . S
C201 C202 1.362 . S
C202 H194 0.930 . S
C202 C201 1.362 . S
C202 C205 1.409 . S
C203 H195 0.930 . S
C203 C204 1.355 . S
C203 C205 1.415 . S
C204 C203 1.355 . S
C204 C206 1.419 . S
C205 C200 1.425 . S
C205 C202 1.409 . S
C205 C203 1.415 . S
C206 H196 0.930 . S
C206 C204 1.419 . S
C206 C207 1.362 . S
C207 H197 0.930 1_545 S
C207 C200 1.409 . S
C207 C206 1.362 . S
H208 C214 0.930 . S
H209 C217 0.930 . S
H210 C218 0.930 . S
H211 C219 0.930 . S
H212 C222 0.930 . S
H213 C223 0.930 . S
C214 H208 0.930 . S
C214 C215 1.355 . S
C214 C216 1.415 . S
C215 C214 1.355 . S
C215 C217 1.419 . S
C216 C214 1.415 . S
C216 C221 1.425 . S
C216 C223 1.409 . S
C217 H209 0.930 . S
C217 C215 1.419 . S
C217 C218 1.362 . S
C218 H210 0.930 . S
C218 C217 1.362 . S
C218 C221 1.409 . S
C219 H211 0.930 . S
C219 C220 1.355 . S
C219 C221 1.415 . S
C220 C219 1.355 . S
C220 C222 1.419 1_455 S
C221 C216 1.425 . S
C221 C218 1.409 . S
C221 C219 1.415 . S
C222 H212 0.930 . S
C222 C220 1.419 1_655 S
C222 C223 1.362 1_655 S
C223 H213 0.930 . S
C223 C216 1.409 . S
C223 C222 1.362 1_455 S
H224 C230 0.930 . S
H225 C233 0.930 . S
H226 C234 0.930 . S
H227 C235 0.930 . S
H228 C238 0.930 . S
H229 C239 0.930 . S
C230 H224 0.930 . S
C230 C231 1.355 . S
C230 C232 1.415 . S
C231 C230 1.355 . S
C231 C233 1.419 . S
C232 C230 1.415 . S
C232 C237 1.425 . S
C232 C239 1.409 . S
C233 H225 0.930 . S
C233 C231 1.419 . S
C233 C234 1.362 . S
C234 H226 0.930 . S
C234 C233 1.362 . S
C234 C237 1.409 . S
C235 H227 0.930 . S
C235 C236 1.355 . S
C235 C237 1.415 . S
C236 C235 1.355 . S
C236 C238 1.419 . S
C237 C232 1.425 . S
C237 C234 1.409 . S
C237 C235 1.415 . S
C238 H228 0.930 . S
C238 C236 1.419 . S
C238 C239 1.362 . S
C239 H229 0.930 . S
C239 C232 1.409 . S
C239 C238 1.362 . S
H240 C246 0.930 . S
H241 C249 0.930 . S
H242 C250 0.930 . S
H243 C251 0.930 . S
H244 C254 0.930 . S
H245 C255 0.930 . S
C246 H240 0.930 . S
C246 C247 1.355 . S
C246 C248 1.415 . S
C247 C246 1.355 . S
C247 C249 1.419 . S
C248 C246 1.415 . S
C248 C253 1.425 . S
C248 C255 1.409 1_455 S
C249 H241 0.930 . S
C249 C247 1.419 . S
C249 C250 1.362 . S
C250 H242 0.930 . S
C250 C249 1.362 . S
C250 C253 1.409 . S
C251 H243 0.930 . S
C251 C252 1.355 1_455 S
C251 C253 1.415 . S
C252 C251 1.355 1_655 S
C252 C254 1.419 . S
C253 C248 1.425 . S
C253 C250 1.409 . S
C253 C251 1.415 . S
C254 H244 0.930 . S
C254 C252 1.419 . S
C254 C255 1.362 . S
C255 H245 0.930 . S
C255 C248 1.409 1_655 S
C255 C254 1.362 . S
H256 C262 0.930 . S
H257 C265 0.930 . S
H258 C266 0.930 . S
H259 C267 0.930 . S
H260 C270 0.930 . S
H261 C271 0.930 . S
C262 H256 0.930 . S
C262 C263 1.355 . S
C262 C264 1.415 . S
C263 C262 1.355 . S
C263 C265 1.419 . S
C264 C262 1.415 . S
C264 C269 1.425 . S
C264 C271 1.409 . S
C265 H257 0.930 . S
C265 C263 1.419 . S
C265 C266 1.362 . S
C266 H258 0.930 . S
C266 C265 1.362 . S
C266 C269 1.409 . S
C267 H259 0.930 . S
C267 C268 1.355 . S
C267 C269 1.415 . S
C268 C267 1.355 . S
C268 C270 1.419 . S
C269 C264 1.425 . S
C269 C266 1.409 . S
C269 C267 1.415 . S
C270 H260 0.930 . S
C270 C268 1.419 . S
C270 C271 1.362 . S
C271 H261 0.930 . S
C271 C264 1.409 . S
C271 C270 1.362 . S
H272 C278 0.930 . S
H273 C281 0.930 . S
H274 C282 0.930 . S
H275 C283 0.930 . S
H276 C286 0.930 . S
H277 C287 0.930 . S
C278 H272 0.930 . S
C278 C279 1.355 . S
C278 C280 1.415 . S
C279 C278 1.355 . S
C279 C281 1.419 . S
C280 C278 1.415 . S
C280 C285 1.425 . S
C280 C287 1.409 . S
C281 H273 0.930 . S
C281 C279 1.419 . S
C281 C282 1.362 . S
C282 H274 0.930 . S
C282 C281 1.362 . S
C282 C285 1.409 . S
C283 H275 0.930 . S
C283 C284 1.355 . S
C283 C285 1.415 . S
C284 C283 1.355 . S
C284 C286 1.419 . S
C285 C280 1.425 . S
C285 C282 1.409 . S
C285 C283 1.415 . S
C286 H276 0.930 . S
C286 C284 1.419 . S
C286 C287 1.362 . S
C287 H277 0.930 . S
C287 C280 1.409 . S
C287 C286 1.362 . S
H288 C294 0.930 . S
H289 C297 0.930 . S
H290 C298 0.930 . S
H291 C299 0.930 . S
H292 C302 0.930 . S
H293 C303 0.930 . S
C294 H288 0.930 . S
C294 C295 1.355 . S
C294 C296 1.415 . S
C295 C294 1.355 . S
C295 C297 1.419 . S
C296 C294 1.415 . S
C296 C301 1.425 . S
C296 C303 1.409 . S
C297 H289 0.930 . S
C297 C295 1.419 . S
C297 C298 1.362 . S
C298 H290 0.930 . S
C298 C297 1.362 . S
C298 C301 1.409 . S
C299 H291 0.930 . S
C299 C300 1.355 . S
C299 C301 1.415 . S
C300 C299 1.355 . S
C300 C302 1.419 . S
C301 C296 1.425 . S
C301 C298 1.409 . S
C301 C299 1.415 . S
C302 H292 0.930 . S
C302 C300 1.419 . S
C302 C303 1.362 . S
C303 H293 0.930 . S
C303 C296 1.409 . S
C303 C302 1.362 . S
H304 C310 0.930 . S
H305 C313 0.930 . S
H306 C314 0.930 . S
H307 C315 0.930 . S
H308 C318 0.930 . S
H309 C319 0.930 . S
C310 H304 0.930 . S
C310 C311 1.355 1_565 S
C310 C312 1.415 . S
C311 C310 1.355 1_545 S
C311 C313 1.419 . S
C312 C310 1.415 . S
C312 C317 1.425 . S
C312 C319 1.409 . S
C313 H305 0.930 . S
C313 C311 1.419 . S
C313 C314 1.362 1_545 S
C314 H306 0.930 . S
C314 C313 1.362 1_565 S
C314 C317 1.409 . S
C315 H307 0.930 . S
C315 C316 1.355 . S
C315 C317 1.415 . S
C316 C315 1.355 . S
C316 C318 1.419 . S
C317 C312 1.425 . S
C317 C314 1.409 . S
C317 C315 1.415 . S
C318 H308 0.930 . S
C318 C316 1.419 . S
C318 C319 1.362 . S
C319 H309 0.930 . S
C319 C312 1.409 . S
C319 C318 1.362 . S
H320 C326 0.930 . S
H321 C329 0.930 . S
H322 C330 0.930 . S
H323 C331 0.930 . S
H324 C334 0.930 1_554 S
H325 C335 0.930 . S
C326 H320 0.930 . S
C326 C327 1.355 . S
C326 C328 1.415 . S
C327 C326 1.355 . S
C327 C329 1.419 . S
C328 C326 1.415 . S
C328 C333 1.425 . S
C328 C335 1.409 . S
C329 H321 0.930 . S
C329 C327 1.419 . S
C329 C330 1.362 . S
C330 H322 0.930 . S
C330 C329 1.362 . S
C330 C333 1.409 . S
C331 H323 0.930 . S
C331 C332 1.355 . S
C331 C333 1.415 1_554 S
C332 C331 1.355 . S
C332 C334 1.419 1_554 S
C333 C328 1.425 . S
C333 C330 1.409 . S
C333 C331 1.415 1_556 S
C334 H324 0.930 1_556 S
C334 C332 1.419 1_556 S
C334 C335 1.362 . S
C335 H325 0.930 . S
C335 C328 1.409 . S
C335 C334 1.362 . S
H336 C342 0.930 . S
H337 C345 0.930 . S
H338 C346 0.930 . S
H339 C347 0.930 . S
H340 C350 0.930 . S
H341 C351 0.930 . S
C342 H336 0.930 . S
C342 C343 1.355 . S
C342 C344 1.415 . S
C343 C342 1.355 . S
C343 C345 1.419 . S
C344 C342 1.415 . S
C344 C349 1.425 . S
C344 C351 1.409 1_655 S
C345 H337 0.930 . S
C345 C343 1.419 . S
C345 C346 1.362 . S
C346 H338 0.930 . S
C346 C345 1.362 . S
C346 C349 1.409 . S
C347 H339 0.930 . S
C347 C348 1.355 . S
C347 C349 1.415 . S
C348 C347 1.355 . S
C348 C350 1.419 1_655 S
C349 C344 1.425 . S
C349 C346 1.409 . S
C349 C347 1.415 . S
C350 H340 0.930 . S
C350 C348 1.419 1_455 S
C350 C351 1.362 . S
C351 H341 0.930 . S
C351 C344 1.409 1_455 S
C351 C350 1.362 . S
C167 C88 0.920 1_455 S
C172 C8 0.837 . S
C183 C128 0.638 . S
C188 C58 0.638 . S
C199 C98 1.304 1_545 S
C204 C18 1.329 . S
C215 C48 1.426 . S
C220 C138 1.426 1_455 S
C231 C59 0.589 . S
C236 C15 0.638 . S
C247 C49 0.573 . S
C252 C85 0.660 . S
C263 C135 0.546 . S
C268 C95 0.431 . S
C279 C125 0.238 . S
C284 C5 0.418 . S
C295 C89 3.413 1_556 S
C300 C129 3.322 . S
C311 C19 3.398 . S
C316 C139 3.394 . S
C327 C45 2.846 . S
C332 C9 2.872 . S
C343 C99 2.540 . S
C348 C55 2.489 . S
