# Generated by pormake.
# Topology snk, (6)-cn, num edge types: 1
# Building blocks:
#     Node 0, Type 0, BuildingBlock: PAMTOO_clean_sbu_0, # of connection points: 6
#     Node 1, Type 0, BuildingBlock: PAMTOO_clean_sbu_0, # of connection points: 6
#     Node 2, Type 0, BuildingBlock: PAMTOO_clean_sbu_0, # of connection points: 6
#     Node 3, Type 0, BuildingBlock: PAMTOO_clean_sbu_0, # of connection points: 6
#     Node 4, Type 0, BuildingBlock: PAMTOO_clean_sbu_0, # of connection points: 6
#     Node 5, Type 0, BuildingBlock: PAMTOO_clean_sbu_0, # of connection points: 6
#     Node 6, Type 0, BuildingBlock: PAMTOO_clean_sbu_0, # of connection points: 6
#     Node 7, Type 0, BuildingBlock: PAMTOO_clean_sbu_0, # of connection points: 6
#     Edge 8, Type (0, 0), BuildingBlock: OJICUG_clean_linker_0, # of connection points: 2
#     Edge 9, Type (0, 0), BuildingBlock: OJICUG_clean_linker_0, # of connection points: 2
#     Edge 10, Type (0, 0), BuildingBlock: OJICUG_clean_linker_0, # of connection points: 2
#     Edge 11, Type (0, 0), BuildingBlock: OJICUG_clean_linker_0, # of connection points: 2
#     Edge 12, Type (0, 0), BuildingBlock: OJICUG_clean_linker_0, # of connection points: 2
#     Edge 13, Type (0, 0), BuildingBlock: OJICUG_clean_linker_0, # of connection points: 2
#     Edge 14, Type (0, 0), BuildingBlock: OJICUG_clean_linker_0, # of connection points: 2
#     Edge 15, Type (0, 0), BuildingBlock: OJICUG_clean_linker_0, # of connection points: 2
#     Edge 16, Type (0, 0), BuildingBlock: OJICUG_clean_linker_0, # of connection points: 2
#     Edge 17, Type (0, 0), BuildingBlock: OJICUG_clean_linker_0, # of connection points: 2
#     Edge 18, Type (0, 0), BuildingBlock: OJICUG_clean_linker_0, # of connection points: 2
#     Edge 19, Type (0, 0), BuildingBlock: OJICUG_clean_linker_0, # of connection points: 2
#     Edge 20, Type (0, 0), BuildingBlock: OJICUG_clean_linker_0, # of connection points: 2
#     Edge 21, Type (0, 0), BuildingBlock: OJICUG_clean_linker_0, # of connection points: 2
#     Edge 22, Type (0, 0), BuildingBlock: OJICUG_clean_linker_0, # of connection points: 2
#     Edge 23, Type (0, 0), BuildingBlock: OJICUG_clean_linker_0, # of connection points: 2
#     Edge 24, Type (0, 0), BuildingBlock: OJICUG_clean_linker_0, # of connection points: 2
#     Edge 25, Type (0, 0), BuildingBlock: OJICUG_clean_linker_0, # of connection points: 2
#     Edge 26, Type (0, 0), BuildingBlock: OJICUG_clean_linker_0, # of connection points: 2
#     Edge 27, Type (0, 0), BuildingBlock: OJICUG_clean_linker_0, # of connection points: 2
#     Edge 28, Type (0, 0), BuildingBlock: OJICUG_clean_linker_0, # of connection points: 2
#     Edge 29, Type (0, 0), BuildingBlock: OJICUG_clean_linker_0, # of connection points: 2
#     Edge 30, Type (0, 0), BuildingBlock: OJICUG_clean_linker_0, # of connection points: 2
#     Edge 31, Type (0, 0), BuildingBlock: OJICUG_clean_linker_0, # of connection points: 2
# Relax obj value: 0.105
# Max RMSD: 0.185
# Mean RMSD: 0.147
data_MOF--net-snk--node1-PAMTOO_clean_sbu_0--edge1-OJICUG_clean_linker_0
_symmetry_space_group_name_H-M    P1
_symmetry_Int_Tables_number       1
_symmetry_cell_setting            triclinic
loop_
_symmetry_equiv_pos_as_xyz
'x, y, z'
_cell_length_a     28.002397
_cell_length_b     27.646517
_cell_length_c     20.899458
_cell_angle_alpha  89.90145
_cell_angle_beta   91.003707
_cell_angle_gamma 90.131278
loop_
_atom_site_label
_atom_site_type_symbol
_atom_site_fract_x
_atom_site_fract_y
_atom_site_fract_z
_atom_type_partial_charge
Dy0 Dy -0.02344 0.01616 0.59674 0.0
Dy1 Dy -0.02452 0.94567 0.4667 0.0
C2 C 0.03853 0.91934 0.58859 0.0
O3 O 0.01119 0.05879 0.51915 0.0
O4 O 0.03992 -0.00664 0.46488 0.0
O5 O 0.01586 0.05748 0.66813 0.0
O6 O 0.93896 0.05132 0.67302 0.0
O7 O 0.94054 0.01473 0.44039 0.0
O8 O 0.91197 0.03578 0.53836 0.0
O9 O 0.91504 0.92005 0.52759 0.0
O10 O 0.94168 0.94759 0.62566 0.0
O11 O 0.93614 0.91322 0.38798 0.0
O12 O 0.01295 0.90533 0.39453 0.0
C13 C 0.04019 0.03986 0.47731 0.0
O14 O 0.03772 0.96508 0.60532 0.0
O15 O 0.0115 0.90192 0.54211 0.0
C16 C -0.01772 0.04762 0.77011 0.0
C17 C -0.01457 0.01512 0.89858 0.0
C18 C -0.01205 -0.01798 0.84763 0.0
C19 C -0.01358 -0.00189 0.78412 0.0
C20 C -0.01964 0.0809 0.8205 0.0
C21 C -0.01798 0.06484 0.88419 0.0
C22 C -0.02177 0.06403 0.70307 0.0
C23 C 0.91016 0.03809 0.47561 0.0
C24 C 0.9136 0.91996 0.59062 0.0
C25 C -0.02158 0.91636 0.29176 0.0
C26 C -0.01687 0.9481 0.16313 0.0
C27 C -0.01906 -0.01833 0.21362 0.0
C28 C -0.02131 0.96596 0.27721 0.0
C29 C -0.01902 0.8827 0.24191 0.0
C30 C -0.01664 0.89836 0.17821 0.0
C31 C -0.0253 0.89991 0.35866 0.0
H32 H -0.00871 0.9436 0.85681 0.0
H33 H -0.01196 0.97182 0.74583 0.0
H34 H -0.02305 0.11923 0.81062 0.0
H35 H -0.02049 0.0913 0.92212 0.0
H36 H -0.01997 0.02016 0.20402 0.0
H37 H -0.02329 -0.00744 0.31509 0.0
H38 H -0.01901 0.84428 0.25221 0.0
H39 H -0.01428 0.87146 0.14082 0.0
Dy40 Dy 0.2532 0.72658 0.72643 0.0
Dy41 Dy 0.18402 0.72768 0.85537 0.0
C42 C 0.15919 0.78906 0.73078 0.0
O43 O 0.27425 0.7914 0.78405 0.0
O44 O 0.2516 0.76444 0.88295 0.0
O45 O 0.28576 0.7649 0.64836 0.0
O46 O 0.29306 0.68715 0.65576 0.0
O47 O 0.23367 0.66478 0.86171 0.0
O48 O 0.29693 0.69448 0.80497 0.0
O49 O 0.14229 0.6908 0.77815 0.0
O50 O 0.20751 0.66056 0.72711 0.0
O51 O 0.14342 0.68874 0.92607 0.0
O52 O 0.15032 0.76662 0.93177 0.0
C53 C 0.27634 0.79367 0.84688 0.0
O54 O 0.1838 0.75828 0.69731 0.0
O55 O 0.16177 0.79013 0.7936 0.0
C56 C 0.28188 0.72064 0.55269 0.0
C57 C 0.24915 0.71656 0.42405 0.0
C58 C 0.21663 0.71511 0.47464 0.0
C59 C 0.23285 0.71706 0.53828 0.0
C60 C 0.31454 0.72149 0.50267 0.0
C61 C 0.29836 0.71936 0.4389 0.0
C62 C 0.29859 0.72526 0.61965 0.0
C63 C 0.2793 0.6655 0.84835 0.0
C64 C 0.16153 0.66054 0.73783 0.0
C65 C 0.1528 0.72325 1.02858 0.0
C66 C 0.18321 0.71821 0.15822 0.0
C67 C 0.21672 0.71968 0.10878 0.0
C68 C 0.20166 0.72211 0.04467 0.0
C69 C 0.11918 0.72143 0.07738 0.0
C70 C 0.13419 0.7189 0.14163 0.0
C71 C 0.13719 0.72719 0.96108 0.0
H72 H 0.17859 0.71228 0.46507 0.0
H73 H 0.20706 0.71622 0.57633 0.0
H74 H 0.3525 0.72444 0.51289 0.0
H75 H 0.32435 0.72107 0.40119 0.0
H76 H 0.25468 0.71992 0.11958 0.0
H77 H 0.2282 0.72357 1.00759 0.0
H78 H 0.08131 0.72213 0.06584 0.0
H79 H 0.10737 0.71715 0.17826 0.0
Dy80 Dy 0.47527 0.01577 0.96004 0.0
Dy81 Dy 0.47777 0.94607 0.0913 0.0
C82 C 0.41117 0.9219 0.97045 0.0
O83 O 0.41358 0.03866 1.02024 0.0
O84 O 0.44413 0.01565 0.11819 0.0
O85 O 0.43538 0.04777 0.88146 0.0
O86 O 0.51186 0.05868 0.88938 0.0
O87 O 0.54018 -0.00441 0.09694 0.0
O88 O 0.51271 0.05896 0.03544 0.0
O89 O 0.51364 0.90252 1.01634 0.0
O90 O 0.53672 0.96505 0.9507 0.0
O91 O 0.51685 0.90553 0.1637 0.0
O92 O 0.44007 0.91246 0.16892 0.0
C93 C 0.41399 0.04096 0.08317 0.0
O94 O 0.44012 0.94659 0.93432 0.0
O95 O 0.41374 0.92407 1.03318 0.0
C96 C 0.47876 0.0464 0.78628 0.0
C97 C 0.48518 0.01407 0.65847 0.0
C98 C 0.48704 -0.01905 0.70969 0.0
C99 C 0.48391 -0.00303 0.77291 0.0
C100 C 0.47749 0.0797 0.73566 0.0
C101 C 0.48077 0.06372 0.67227 0.0
C102 C 0.47377 0.06276 0.85288 0.0
C103 C 0.54038 0.0415 0.08126 0.0
C104 C 0.5393 0.91965 0.96923 0.0
C105 C 0.4838 0.91575 0.26577 0.0
C106 C 0.48833 0.94726 0.39444 0.0
C107 C 0.48687 -0.01907 0.3438 0.0
C108 C 0.4847 0.96532 0.28016 0.0
C109 C 0.48602 0.88198 0.31576 0.0
C110 C 0.48835 0.89754 0.3795 0.0
C111 C 0.47925 0.89946 0.19885 0.0
H112 H 0.49113 0.94259 0.70095 0.0
H113 H 0.48517 0.9707 0.81145 0.0
H114 H 0.47346 0.11798 0.74509 0.0
H115 H 0.47876 0.09014 0.63401 0.0
H116 H 0.4862 0.01942 0.35326 0.0
H117 H 0.48303 -0.00801 0.24213 0.0
H118 H 0.48558 0.84358 0.30553 0.0
H119 H 0.49024 0.87057 0.41708 0.0
Dy120 Dy 0.1877 0.2286 0.20943 0.0
Dy121 Dy 0.25564 0.22485 0.34136 0.0
C122 C 0.28342 0.16442 0.21812 0.0
O123 O 0.14471 0.1909 0.28367 0.0
O124 O 0.20832 0.1597 0.34009 0.0
O125 O 0.1449 0.19166 0.13746 0.0
O126 O 0.15565 0.26914 0.13149 0.0
O127 O 0.18672 0.25856 0.3673 0.0
O128 O 0.16592 0.29139 0.27016 0.0
O129 O 0.27962 0.28972 0.2857 0.0
O130 O 0.25606 0.26455 0.18552 0.0
O131 O 0.28862 0.26247 0.42109 0.0
O132 O 0.29403 0.18459 0.41472 0.0
C133 C 0.16256 0.16025 0.32567 0.0
O134 O 0.23868 0.16708 0.19815 0.0
O135 O 0.29979 0.18976 0.26701 0.0
C136 C 0.15569 0.22544 0.03517 0.0
C137 C 0.18552 0.2188 0.90691 0.0
C138 C 0.21909 0.21741 0.95785 0.0
C139 C 0.20431 0.22066 1.02128 0.0
C140 C 0.12198 0.22636 0.98487 0.0
C141 C 0.13671 0.22303 0.9213 0.0
C142 C 0.14048 0.23034 0.10194 0.0
C143 C 0.16268 0.29008 0.33284 0.0
C144 C 0.28175 0.29268 0.22301 0.0
C145 C 0.28354 0.21853 0.51694 0.0
C146 C 0.25084 0.21514 0.64405 0.0
C147 C 0.21821 0.21623 0.59206 0.0
C148 C 0.23441 0.21781 0.52915 0.0
C149 C 0.31627 0.21681 0.56837 0.0
C150 C 0.3001 0.21501 0.6314 0.0
C151 C 0.30042 0.22261 0.45079 0.0
H152 H 0.25695 0.21486 0.94876 0.0
H153 H 0.2309 0.21996 0.05957 0.0
H154 H 0.08429 0.22987 0.99472 0.0
H155 H 0.1098 0.22351 0.88345 0.0
H156 H 0.18009 0.21568 0.59996 0.0
H157 H 0.20857 0.21892 0.48999 0.0
H158 H 0.35432 0.21746 0.55982 0.0
H159 H 0.32618 0.21467 0.67027 0.0
Dy160 Dy 0.75238 0.23009 0.227 0.0
Dy161 Dy 0.6839 0.22982 0.35732 0.0
C162 C 0.66244 0.29965 0.23924 0.0
O163 O 0.79643 0.266 0.30205 0.0
O164 O 0.7364 0.2901 0.36926 0.0
O165 O 0.7948 0.26627 0.15577 0.0
O166 O 0.78201 0.1891 0.1495 0.0
O167 O 0.75166 0.19413 0.38457 0.0
O168 O 0.77231 0.16546 0.28609 0.0
O169 O 0.66026 0.16857 0.29395 0.0
O170 O 0.68115 0.20265 0.19865 0.0
O171 O 0.6504 0.18942 0.43285 0.0
O172 O 0.64242 0.26726 0.42807 0.0
C173 C 0.78064 0.29242 0.34932 0.0
O174 O 0.70705 0.29593 0.22172 0.0
O175 O 0.6439 0.27193 0.28352 0.0
C176 C 0.78067 0.23303 0.05344 0.0
C177 C 0.74743 0.23861 0.92529 0.0
C178 C 0.71537 0.24218 0.97616 0.0
C179 C 0.73186 0.23951 0.03961 0.0
C180 C 0.81289 0.23007 1.00311 0.0
C181 C 0.79646 0.23296 0.93953 0.0
C182 C 0.79745 0.22764 0.12017 0.0
C183 C 0.77549 0.16422 0.34889 0.0
C184 C 0.65639 0.17147 0.2313 0.0
C185 C 0.65178 0.232 0.53009 0.0
C186 C 0.6815 0.23754 0.65984 0.0
C187 C 0.71526 0.23471 0.61084 0.0
C188 C 0.70054 0.23211 0.54668 0.0
C189 C 0.61789 0.23509 0.57842 0.0
C190 C 0.63257 0.23788 0.64275 0.0
C191 C 0.63655 0.22833 0.4625 0.0
H192 H 0.67751 0.24718 0.96694 0.0
H193 H 0.70643 0.24203 0.07794 0.0
H194 H 0.85066 0.22488 1.01293 0.0
H195 H 0.82202 0.22959 0.90151 0.0
H196 H 0.75315 0.23362 0.62204 0.0
H197 H 0.72727 0.22978 0.50994 0.0
H198 H 0.58009 0.23528 0.56643 0.0
H199 H 0.60559 0.24069 0.67903 0.0
Dy200 Dy 0.69065 0.7266 0.71424 0.0
Dy201 Dy 0.76014 0.72746 0.84627 0.0
C202 C 0.78583 0.66221 0.7257 0.0
O203 O 0.64835 0.68891 0.78908 0.0
O204 O 0.7105 0.66469 0.855 0.0
O205 O 0.64939 0.68799 0.64209 0.0
O206 O 0.65751 0.76572 0.63582 0.0
O207 O 0.6913 0.76145 0.8715 0.0
O208 O 0.66764 0.79012 0.77305 0.0
O209 O 0.78414 0.78968 0.7854 0.0
O210 O 0.75881 0.76147 0.68737 0.0
O211 O 0.7918 0.76788 0.92458 0.0
O212 O 0.80168 0.69034 0.91946 0.0
C213 C 0.66536 0.66287 0.83703 0.0
O214 O 0.74096 0.66443 0.70638 0.0
O215 O 0.80271 0.68859 0.77331 0.0
C216 C 0.65965 0.72197 0.53955 0.0
C217 C 0.69036 0.71733 0.41133 0.0
C218 C 0.72373 0.718 0.46255 0.0
C219 C 0.70853 0.7202 0.52592 0.0
C220 C 0.62616 0.72072 0.48899 0.0
C221 C 0.64131 0.71835 0.42549 0.0
C222 C 0.64389 0.72637 0.60627 0.0
C223 C 0.66546 0.79066 0.83587 0.0
C224 C 0.78525 0.79056 0.72243 0.0
C225 C 0.78927 0.72438 1.02123 0.0
C226 C 0.75662 0.71889 0.14842 0.0
C227 C 0.72411 0.71746 0.09629 0.0
C228 C 0.74028 0.7201 1.03339 0.0
C229 C 0.82192 0.72527 0.0728 0.0
C230 C 0.80579 0.72245 0.13584 0.0
C231 C 0.8059 0.72901 0.95492 0.0
H232 H 0.76172 0.71793 0.45376 0.0
H233 H 0.73499 0.72115 0.56435 0.0
H234 H 0.58828 0.72188 0.49857 0.0
H235 H 0.61454 0.71712 0.38751 0.0
H236 H 0.68611 0.71404 0.10406 0.0
H237 H 0.71448 0.71913 0.99417 0.0
H238 H 0.85985 0.72866 0.06436 0.0
H239 H 0.83178 0.72413 0.17477 0.0
Dy240 Dy 0.4759 0.52296 0.11009 0.0
Dy241 Dy 0.47222 0.45345 0.97976 0.0
C242 C 0.53611 0.42753 0.10226 0.0
O243 O 0.5374 0.5443 0.04771 0.0
O244 O 0.50182 0.52455 0.95212 0.0
O245 O 0.5177 0.55543 0.18648 0.0
O246 O 0.44114 0.56661 0.18125 0.0
O247 O 0.40679 0.49921 0.98016 0.0
O248 O 0.43622 0.56463 0.03576 0.0
O249 O 0.43561 0.40932 0.05297 0.0
O250 O 0.41505 0.47072 0.12207 0.0
O251 O 0.43408 0.4143 0.9051 0.0
O252 O 0.5111 0.42015 0.90329 0.0
C253 C 0.53434 0.5482 0.98497 0.0
O254 O 0.50732 0.45292 0.13719 0.0
O255 O 0.53558 0.43064 0.03952 0.0
C256 C 0.47638 0.55485 0.28326 0.0
C257 C 0.47233 0.52324 0.41173 0.0
C258 C 0.46865 0.4899 0.36105 0.0
C259 C 0.47059 0.50557 0.2975 0.0
C260 C 0.47967 0.58835 0.33338 0.0
C261 C 0.47755 0.57272 0.39712 0.0
C262 C 0.48004 0.57077 0.21624 0.0
C263 C 0.40569 0.54526 0.99503 0.0
C264 C 0.41071 0.42596 0.10091 0.0
C265 C 0.46989 0.42454 0.80463 0.0
C266 C 0.46862 0.45661 0.67602 0.0
C267 C 0.47053 0.49004 0.72677 0.0
C268 C 0.47106 0.47415 0.79037 0.0
C269 C 0.46756 0.39102 0.75449 0.0
C270 C 0.46685 0.40686 0.69076 0.0
C271 C 0.47242 0.40788 0.8716 0.0
H272 H 0.46393 0.45167 0.37048 0.0
H273 H 0.46781 0.47914 0.25937 0.0
H274 H 0.48431 0.62651 0.32327 0.0
H275 H 0.48096 0.59928 0.43497 0.0
H276 H 0.47261 0.52852 0.71746 0.0
H277 H 0.47294 0.50062 0.82848 0.0
H278 H 0.46654 0.35258 0.7646 0.0
H279 H 0.46464 0.38009 0.65307 0.0
Dy280 Dy -0.02515 0.51715 0.46105 0.0
Dy281 Dy -0.01885 0.44808 0.5919 0.0
C282 C 0.91313 0.42183 0.47361 0.0
O283 O 0.91381 0.53844 0.52341 0.0
O284 O 0.94846 0.51789 0.61972 0.0
O285 O 0.93355 0.54857 0.38335 0.0
O286 O 0.0098 0.56154 0.39056 0.0
O287 O 0.04582 0.4947 0.58745 0.0
O288 O 0.01299 0.55998 0.53607 0.0
O289 O 0.01459 0.40355 0.51627 0.0
O290 O 0.03574 0.46575 0.44873 0.0
O291 O 0.02273 0.41107 0.66522 0.0
O292 O 0.94569 0.41302 0.67034 0.0
C293 C 0.91624 0.54165 0.58623 0.0
O294 O 0.94056 0.44742 0.43644 0.0
O295 O 0.9163 0.42453 0.53626 0.0
C296 C -0.02355 0.54903 0.28774 0.0
C297 C -0.01621 0.51765 0.15965 0.0
C298 C -0.01257 0.48443 0.21061 0.0
C299 C -0.01618 0.49997 0.27396 0.0
C300 C 0.97331 0.58246 0.23737 0.0
C301 C -0.02297 0.56695 0.17383 0.0
C302 C 0.97136 0.56482 0.35453 0.0
C303 C 0.04464 0.5412 0.57569 0.0
C304 C 0.03903 0.42045 0.46786 0.0
C305 C -0.011 0.41951 0.7672 0.0
C306 C -0.00898 0.45148 0.89568 0.0
C307 C -0.01243 0.4849 0.84489 0.0
C308 C -0.01335 0.46906 0.78132 0.0
C309 C -0.00679 0.38607 0.81737 0.0
C310 C -0.00571 0.40186 0.88103 0.0
C311 C -0.01441 0.40275 0.70042 0.0
H312 H -0.00665 0.44637 0.20157 0.0
H313 H -0.01347 0.47362 0.3123 0.0
H314 H 0.96755 0.62046 0.24714 0.0
H315 H 0.9736 0.59342 0.13578 0.0
H316 H -0.01559 0.52327 0.85417 0.0
H317 H -0.01662 0.49547 0.74316 0.0
H318 H -0.00474 0.34769 0.80735 0.0
H319 H -0.00223 0.37515 0.91876 0.0
C320 C 0.05689 0.11757 0.42073 0.0
C321 C 0.07191 0.0713 0.44006 0.0
H322 H 0.07352 0.18158 0.36726 0.0
C323 C 0.11637 0.05404 0.42019 0.0
H324 H 0.02247 0.1314 0.43483 0.0
C325 C 0.14577 0.08292 0.38258 0.0
C326 C 0.13049 0.12888 0.36243 0.0
H327 H 0.12861 0.01837 0.43431 0.0
H328 H 0.18029 0.06917 0.36878 0.0
C329 C 0.08572 0.14592 0.38146 0.0
C330 C 0.08461 0.89801 0.68769 0.0
C331 C 0.06948 0.88623 0.62511 0.0
H332 H 0.12445 0.87577 0.77105 0.0
C333 C 0.08296 0.84195 0.59848 0.0
H334 H 0.07414 0.93177 0.70959 0.0
C335 C 0.11184 0.81028 0.63338 0.0
C336 C 0.12714 0.82203 0.69585 0.0
H337 H 0.07163 0.83197 0.55045 0.0
H338 H 0.12206 0.77646 0.61138 0.0
C339 C 0.11295 0.8659 0.72306 0.0
C340 C 0.31264 0.83011 0.9455 0.0
C341 C 0.30954 0.82787 0.87832 0.0
H342 H 0.3472 0.86158 1.02741 0.0
C343 C 0.33936 0.85751 0.84183 0.0
H344 H 0.29007 0.80775 0.97506 0.0
C345 C 0.37214 0.88829 0.87193 0.0
C346 C 0.37569 0.89006 0.9391 0.0
H347 H 0.33781 0.85664 0.79002 0.0
H348 H 0.39488 0.91046 0.84234 0.0
C349 C 0.3454 0.86094 0.97561 0.0
C350 C 0.33855 0.08983 0.08637 0.0
C351 C 0.38072 0.07344 0.11648 0.0
H352 H 0.27421 0.13096 0.09535 0.0
C353 C 0.39064 0.08736 0.18007 0.0
H354 H 0.3299 0.0796 0.03752 0.0
C355 C 0.35914 0.11703 0.21288 0.0
C356 C 0.31659 0.13281 0.18328 0.0
H357 H 0.42298 0.07552 0.20459 0.0
H358 H 0.36792 0.12715 0.26175 0.0
C359 C 0.30655 0.11892 0.11967 0.0
C360 C 0.84995 0.85589 0.58961 0.0
C361 C 0.88043 0.88706 0.62411 0.0
H362 H 0.79612 0.8012 0.59341 0.0
C363 C 0.87918 0.88648 0.6915 0.0
H364 H 0.84994 0.85537 0.53779 0.0
C365 C 0.84826 0.85537 0.7236 0.0
C366 C 0.81788 0.82411 0.68909 0.0
H367 H 0.90218 0.91002 0.71977 0.0
H368 H 0.84832 0.85579 0.77543 0.0
C369 C 0.81905 0.82479 0.6217 0.0
C370 C 0.8432 0.09735 0.47904 0.0
C371 C 0.87446 0.06902 0.44332 0.0
H372 H 0.78721 0.14947 0.47715 0.0
C373 C 0.87177 0.07082 0.37607 0.0
H374 H 0.84428 0.09659 0.53087 0.0
C375 C 0.83899 0.10108 0.34513 0.0
C376 C 0.80839 0.13014 0.38089 0.0
H377 H 0.89525 0.04918 0.3471 0.0
H378 H 0.83817 0.10218 0.29331 0.0
C379 C 0.8105 0.12765 0.44813 0.0
C380 C 0.61135 0.09386 0.21993 0.0
C381 C 0.62443 0.139 0.19515 0.0
H382 H 0.57498 0.02697 0.20243 0.0
C383 C 0.60923 0.15212 0.13302 0.0
H384 H 0.62281 0.0829 0.26756 0.0
C385 C 0.58187 0.12041 0.09592 0.0
C386 C 0.56984 0.07475 0.11992 0.0
H387 H 0.61864 0.18692 0.11284 0.0
H388 H 0.5707 0.13143 0.0482 0.0
C389 C 0.58452 0.06177 0.18236 0.0
C390 C 0.6178 0.81275 0.9312 0.0
C391 C 0.63216 0.82345 0.86853 0.0
H392 H 0.577 0.83447 1.01183 0.0
C393 C 0.61536 0.86586 0.8389 0.0
H394 H 0.62989 0.78014 0.95527 0.0
C395 C 0.58554 0.89745 0.8719 0.0
C396 C 0.5713 0.88668 0.93464 0.0
H397 H 0.6259 0.87506 0.79076 0.0
H398 H 0.57329 0.93007 0.84804 0.0
C399 C 0.58738 0.84379 0.96365 0.0
C400 C 0.55533 0.59372 0.88629 0.0
C401 C 0.56759 0.5792 0.94904 0.0
H402 H 0.57646 0.63136 0.80184 0.0
C403 C 0.61233 0.59243 0.97479 0.0
H404 H 0.52098 0.58428 0.86507 0.0
C405 C 0.64452 0.6189 0.93792 0.0
C406 C 0.63221 0.63319 0.87502 0.0
H407 H 0.62281 0.58157 1.02283 0.0
H408 H 0.67883 0.6286 0.95898 0.0
C409 C 0.58711 0.62068 0.84989 0.0
C410 C 0.5887 0.3489 0.23207 0.0
C411 C 0.6311 0.33331 0.20432 0.0
H412 H 0.52543 0.39089 0.22119 0.0
C413 C 0.64206 0.3482 0.14186 0.0
H414 H 0.57938 0.33781 0.28002 0.0
C415 C 0.61074 0.37818 0.10756 0.0
C416 C 0.5686 0.39416 0.1358 0.0
H417 H 0.67436 0.33606 0.11911 0.0
H418 H 0.61979 0.38935 0.05956 0.0
C419 C 0.55789 0.3793 0.1983 0.0
C420 C 0.83901 0.37133 0.47568 0.0
C421 C 0.87924 0.38807 0.44316 0.0
H422 H 0.77549 0.32807 0.4708 0.0
C423 C 0.88681 0.37299 0.38001 0.0
H424 H 0.83239 0.38258 0.52435 0.0
C425 C 0.85477 0.3417 0.34979 0.0
C426 C 0.81417 0.32546 0.38178 0.0
H427 H 0.91772 0.38511 0.35389 0.0
H428 H 0.86155 0.33069 0.30106 0.0
C429 C 0.8064 0.34051 0.44494 0.0
C430 C 0.80758 0.61624 0.62721 0.0
C431 C 0.81878 0.63078 0.69025 0.0
H432 H 0.82998 0.57731 0.54431 0.0
C433 C 0.86246 0.61645 0.71809 0.0
H434 H 0.77439 0.62723 0.60414 0.0
C435 C 0.89401 0.58764 0.68402 0.0
C436 C 0.88294 0.57317 0.62095 0.0
H437 H 0.87217 0.62718 0.76643 0.0
H438 H 0.92731 0.57697 0.70711 0.0
C439 C 0.83954 0.58801 0.5927 0.0
C440 C 0.33295 0.36749 0.22636 0.0
C441 C 0.31492 0.32717 0.19287 0.0
H442 H 0.37701 0.43105 0.22309 0.0
C443 C 0.32843 0.31999 0.12912 0.0
H444 H 0.32303 0.374 0.27545 0.0
C445 C 0.35951 0.35213 0.09957 0.0
C446 C 0.37725 0.39267 0.13265 0.0
H447 H 0.31534 0.28917 0.10202 0.0
H448 H 0.36933 0.34537 0.05048 0.0
C449 C 0.36354 0.40025 0.19628 0.0
C450 C 0.38736 0.62275 0.94061 0.0
C451 C 0.37255 0.57655 0.95984 0.0
H452 H 0.36929 0.6869 0.88819 0.0
C453 C 0.32707 0.55952 0.94194 0.0
H454 H 0.42263 0.6362 0.95336 0.0
C455 C 0.2964 0.58873 0.90576 0.0
C456 C 0.31158 0.63453 0.88546 0.0
H457 H 0.3152 0.52384 0.95627 0.0
H458 H 0.26117 0.57526 0.8928 0.0
C459 C 0.35723 0.65137 0.90287 0.0
C460 C 0.08586 0.64566 0.67739 0.0
C461 C 0.13096 0.62941 0.69814 0.0
H462 H 0.02349 0.63061 0.62005 0.0
C463 C 0.14822 0.58486 0.6766 0.0
H464 H 0.07229 0.68036 0.6927 0.0
C465 C 0.12031 0.55638 0.6357 0.0
C466 C 0.07541 0.57278 0.61445 0.0
H467 H 0.18311 0.5719 0.69179 0.0
H468 H 0.13385 0.52163 0.62052 0.0
C469 C 0.05843 0.61771 0.63515 0.0
C470 C 0.11415 0.36623 0.33696 0.0
C471 C 0.13028 0.32336 0.36617 0.0
H472 H 0.07307 0.43102 0.34665 0.0
C473 C 0.11593 0.31263 0.42879 0.0
H474 H 0.1247 0.37547 0.28883 0.0
C475 C 0.08613 0.34405 0.46158 0.0
C476 C 0.07058 0.38729 0.4329 0.0
H477 H 0.12752 0.27972 0.45256 0.0
H478 H 0.07574 0.33467 0.50973 0.0
C479 C 0.08487 0.39813 0.37024 0.0
C480 C 0.95949 0.95613 0.98327 0.0
C481 C -0.01455 -0.00228 0.96627 0.0
H482 H 0.9377 0.90845 0.05814 0.0
C483 C 0.01105 0.0226 1.01452 0.0
H484 H 0.93871 0.93649 0.94763 0.0
C485 C 0.01062 0.00638 0.07806 0.0
C486 C -0.01555 0.96491 0.09514 0.0
H487 H 0.03199 0.05434 1.00306 0.0
H488 H 0.03132 0.0261 0.11369 0.0
C489 C 0.95895 0.93999 0.04679 0.0
C490 C 0.25553 0.68909 0.30957 0.0
C491 C 0.23173 0.71609 0.35618 0.0
H492 H 0.25846 0.66766 0.21132 0.0
C493 C 0.19136 0.74314 0.33729 0.0
H494 H 0.28629 0.66727 0.32256 0.0
C495 C 0.17545 0.7435 0.27342 0.0
C496 C 0.19942 0.71676 0.22667 0.0
H497 H 0.17257 0.76495 0.37168 0.0
H498 H 0.14494 0.76567 0.26048 0.0
C499 C 0.23955 0.68935 0.2457 0.0
C500 C 0.4613 0.95507 0.57206 0.0
C501 C 0.4868 -0.00331 0.59101 0.0
H502 H 0.44107 0.90745 0.49568 0.0
C503 C 0.5134 0.02162 0.54492 0.0
H504 H 0.4398 0.93541 0.606 0.0
C505 C 0.51436 0.0054 0.48149 0.0
C506 C 0.48857 0.96391 0.46242 0.0
H507 H 0.53399 0.05342 0.55803 0.0
H508 H 0.53573 0.02516 0.44752 0.0
C509 C 0.46211 0.93895 0.50867 0.0
C510 C 0.1794 0.24567 0.79176 0.0
C511 C 0.20151 0.21681 0.83917 0.0
H512 H 0.17787 0.26824 0.6937 0.0
C513 C 0.23963 0.1868 0.82151 0.0
H514 H 0.15052 0.26985 0.80368 0.0
C515 C 0.25548 0.18607 0.75835 0.0
C516 C 0.23352 0.21516 0.71112 0.0
H517 H 0.25703 0.16348 0.85641 0.0
H518 H 0.28466 0.16228 0.74636 0.0
C519 C 0.19515 0.2448 0.7286 0.0
C520 C 0.68821 0.21409 0.83935 0.0
C521 C 0.72969 0.2397 0.85769 0.0
H522 H 0.641 0.1926 0.7629 0.0
C523 C 0.75447 0.26562 0.81078 0.0
H524 H 0.66862 0.19322 0.87412 0.0
C525 C 0.73846 0.26554 0.74697 0.0
C526 C 0.69739 0.2393 0.72834 0.0
H527 H 0.7861 0.28634 0.82347 0.0
H528 H 0.7582 0.28634 0.71229 0.0
C529 C 0.67232 0.21382 0.7755 0.0
C530 C 0.68259 0.74365 0.29593 0.0
C531 C 0.70672 0.71664 0.34358 0.0
H532 H 0.67958 0.766 0.19779 0.0
C533 C 0.74714 0.68982 0.3261 0.0
H534 H 0.65188 0.76545 0.3076 0.0
C535 C 0.76322 0.69039 0.26299 0.0
C536 C 0.7392 0.7176 0.21553 0.0
H537 H 0.76622 0.66794 0.36109 0.0
H538 H 0.79421 0.66903 0.25122 0.0
C539 C 0.69855 0.74405 0.23281 0.0
C540 C 0.49499 0.44814 0.56189 0.0
C541 C 0.46916 0.47356 0.60814 0.0
H542 H 0.51675 0.44412 0.46435 0.0
C543 C 0.44437 0.51559 0.58909 0.0
H544 H 0.51526 0.41619 0.5749 0.0
C545 C 0.44548 0.53178 0.5256 0.0
C546 C 0.47122 0.50626 0.47944 0.0
H547 H 0.42351 0.53572 0.62306 0.0
H548 H 0.42552 0.56391 0.51246 0.0
C549 C 0.49593 0.46423 0.49841 0.0
C550 C 0.96478 0.44179 1.00964 0.0
C551 C -0.01001 0.46821 0.96354 0.0
H552 H 0.9425 0.43689 0.10686 0.0
C553 C 0.01337 0.51109 0.98265 0.0
H554 H 0.94556 0.40915 0.99655 0.0
C555 C 0.01142 0.52716 0.04609 0.0
C556 C -0.01382 0.50068 0.09208 0.0
H557 H 0.03369 0.53205 0.94875 0.0
H558 H 0.03026 0.56002 0.05929 0.0
C559 C 0.96295 0.45777 0.07301 0.0
loop_
_geom_bond_atom_site_label_1
_geom_bond_atom_site_label_2
_geom_bond_distance
_geom_bond_site_symmetry_2
_ccdc_geom_bond_type
Dy0 O3 2.307 . S
Dy0 O5 2.395 . S
Dy0 O6 2.379 1_455 S
Dy0 O8 2.339 1_455 S
Dy0 O10 2.298 1_445 S
Dy0 O14 2.275 1_545 S
Dy0 C22 2.738 1_455 S
Dy1 O4 2.298 1_665 S
Dy1 O7 2.275 1_565 S
Dy1 O9 2.307 . S
Dy1 O11 2.395 . S
Dy1 O12 2.379 1_655 S
Dy1 O15 2.339 1_655 S
Dy1 C31 2.738 1_655 S
C2 O14 1.254 . S
C2 O15 1.257 . S
O3 Dy0 2.307 . S
O3 C13 1.266 . S
O4 Dy1 2.298 1_445 S
O4 C13 1.236 . S
O5 Dy0 2.395 . S
O5 C22 1.255 1_455 S
O6 Dy0 2.379 1_655 S
O6 C22 1.249 . S
O7 Dy1 2.275 1_545 S
O7 C23 1.254 . S
O8 Dy0 2.339 1_655 S
O8 C23 1.257 . S
O9 Dy1 2.307 . S
O9 C24 1.266 . S
O10 Dy0 2.298 1_665 S
O10 C24 1.236 . S
O11 Dy1 2.395 . S
O11 C31 1.255 1_655 S
O12 Dy1 2.379 1_455 S
O12 C31 1.249 . S
C13 O3 1.266 . S
C13 O4 1.236 . S
O14 Dy0 2.275 1_565 S
O14 C2 1.254 . S
O15 Dy1 2.339 1_455 S
O15 C2 1.257 . S
C16 C19 1.344 . S
C16 C20 1.328 . S
C16 C22 1.516 . S
C17 C18 1.304 . S
C17 C21 1.323 . S
C18 C17 1.304 . S
C18 C19 1.371 . S
C18 H32 0.930 1_645 S
C19 C16 1.344 . S
C19 C18 1.371 . S
C19 H33 0.931 1_645 S
C20 C16 1.328 . S
C20 C21 1.433 . S
C20 H34 0.931 . S
C21 C17 1.323 . S
C21 C20 1.433 . S
C21 H35 0.933 . S
C22 Dy0 2.738 1_655 S
C22 O5 1.255 1_655 S
C22 O6 1.249 . S
C22 C16 1.516 . S
C23 O7 1.254 . S
C23 O8 1.257 . S
C24 O9 1.266 . S
C24 O10 1.236 . S
C25 C28 1.344 . S
C25 C29 1.328 . S
C25 C31 1.516 . S
C26 C27 1.304 . S
C26 C30 1.323 . S
C27 C26 1.304 . S
C27 C28 1.371 . S
C27 H36 0.930 1_465 S
C28 C25 1.344 . S
C28 C27 1.371 . S
C28 H37 0.931 1_465 S
C29 C25 1.328 . S
C29 C30 1.433 . S
C29 H38 0.931 . S
C30 C26 1.323 . S
C30 C29 1.433 . S
C30 H39 0.933 . S
C31 Dy1 2.738 1_455 S
C31 O11 1.255 1_455 S
C31 O12 1.249 . S
C31 C25 1.516 . S
H32 C18 0.930 1_465 S
H33 C19 0.931 1_465 S
H34 C20 0.931 . S
H35 C21 0.933 . S
H36 C27 0.930 1_645 S
H37 C28 0.931 1_645 S
H38 C29 0.931 . S
H39 C30 0.933 . S
Dy40 O43 2.307 . S
Dy40 O45 2.395 . S
Dy40 O46 2.379 . S
Dy40 O48 2.339 . S
Dy40 O50 2.298 . S
Dy40 O54 2.275 . S
Dy40 C62 2.738 . S
Dy41 O44 2.298 . S
Dy41 O47 2.275 . S
Dy41 O49 2.307 . S
Dy41 O51 2.395 . S
Dy41 O52 2.379 . S
Dy41 O55 2.339 . S
Dy41 C71 2.738 . S
C42 O54 1.254 . S
C42 O55 1.257 . S
O43 Dy40 2.307 . S
O43 C53 1.266 . S
O44 Dy41 2.298 . S
O44 C53 1.236 . S
O45 Dy40 2.395 . S
O45 C62 1.255 . S
O46 Dy40 2.379 . S
O46 C62 1.249 . S
O47 Dy41 2.275 . S
O47 C63 1.254 . S
O48 Dy40 2.339 . S
O48 C63 1.257 . S
O49 Dy41 2.307 . S
O49 C64 1.266 . S
O50 Dy40 2.298 . S
O50 C64 1.236 . S
O51 Dy41 2.395 . S
O51 C71 1.255 . S
O52 Dy41 2.379 . S
O52 C71 1.249 . S
C53 O43 1.266 . S
C53 O44 1.236 . S
O54 Dy40 2.275 . S
O54 C42 1.254 . S
O55 Dy41 2.339 . S
O55 C42 1.257 . S
C56 C59 1.344 . S
C56 C60 1.328 . S
C56 C62 1.516 . S
C57 C58 1.304 . S
C57 C61 1.323 . S
C58 C57 1.304 . S
C58 C59 1.371 . S
C58 H72 0.930 . S
C59 C56 1.344 . S
C59 C58 1.371 . S
C59 H73 0.931 . S
C60 C56 1.328 . S
C60 C61 1.433 . S
C60 H74 0.931 . S
C61 C57 1.323 . S
C61 C60 1.433 . S
C61 H75 0.933 . S
C62 Dy40 2.738 . S
C62 O45 1.255 . S
C62 O46 1.249 . S
C62 C56 1.516 . S
C63 O47 1.254 . S
C63 O48 1.257 . S
C64 O49 1.266 . S
C64 O50 1.236 . S
C65 C68 1.344 . S
C65 C69 1.328 . S
C65 C71 1.516 1_554 S
C66 C67 1.304 . S
C66 C70 1.323 . S
C67 C66 1.304 . S
C67 C68 1.371 . S
C67 H76 0.930 . S
C68 C65 1.344 . S
C68 C67 1.371 . S
C68 H77 0.931 . S
C69 C65 1.328 . S
C69 C70 1.433 . S
C69 H78 0.931 . S
C70 C66 1.323 . S
C70 C69 1.433 . S
C70 H79 0.933 . S
C71 Dy41 2.738 . S
C71 O51 1.255 . S
C71 O52 1.249 . S
C71 C65 1.516 1_556 S
H72 C58 0.930 . S
H73 C59 0.931 . S
H74 C60 0.931 . S
H75 C61 0.933 . S
H76 C67 0.930 . S
H77 C68 0.931 . S
H78 C69 0.931 . S
H79 C70 0.933 . S
Dy80 O83 2.307 1_556 S
Dy80 O85 2.395 . S
Dy80 O86 2.379 . S
Dy80 O88 2.339 . S
Dy80 O90 2.298 1_545 S
Dy80 O94 2.275 1_545 S
Dy80 C102 2.738 . S
Dy81 O84 2.298 1_565 S
Dy81 O87 2.275 1_565 S
Dy81 O89 2.307 1_554 S
Dy81 O91 2.395 . S
Dy81 O92 2.379 . S
Dy81 O95 2.339 . S
Dy81 C111 2.738 . S
C82 O94 1.254 . S
C82 O95 1.257 1_556 S
O83 Dy80 2.307 1_554 S
O83 C93 1.266 . S
O84 Dy81 2.298 1_545 S
O84 C93 1.236 . S
O85 Dy80 2.395 . S
O85 C102 1.255 . S
O86 Dy80 2.379 . S
O86 C102 1.249 . S
O87 Dy81 2.275 1_545 S
O87 C103 1.254 . S
O88 Dy80 2.339 . S
O88 C103 1.257 1_556 S
O89 Dy81 2.307 1_556 S
O89 C104 1.266 . S
O90 Dy80 2.298 1_565 S
O90 C104 1.236 . S
O91 Dy81 2.395 . S
O91 C111 1.255 . S
O92 Dy81 2.379 . S
O92 C111 1.249 . S
C93 O83 1.266 . S
C93 O84 1.236 . S
O94 Dy80 2.275 1_565 S
O94 C82 1.254 . S
O95 Dy81 2.339 . S
O95 C82 1.257 1_554 S
C96 C99 1.344 . S
C96 C100 1.328 . S
C96 C102 1.516 . S
C97 C98 1.304 . S
C97 C101 1.323 . S
C98 C97 1.304 . S
C98 C99 1.371 . S
C98 H112 0.930 1_545 S
C99 C96 1.344 . S
C99 C98 1.371 . S
C99 H113 0.931 1_545 S
C100 C96 1.328 . S
C100 C101 1.433 . S
C100 H114 0.931 . S
C101 C97 1.323 . S
C101 C100 1.433 . S
C101 H115 0.933 . S
C102 Dy80 2.738 . S
C102 O85 1.255 . S
C102 O86 1.249 . S
C102 C96 1.516 . S
C103 O87 1.254 . S
C103 O88 1.257 1_554 S
C104 O89 1.266 . S
C104 O90 1.236 . S
C105 C108 1.344 . S
C105 C109 1.328 . S
C105 C111 1.516 . S
C106 C107 1.304 . S
C106 C110 1.323 . S
C107 C106 1.304 . S
C107 C108 1.371 . S
C107 H116 0.930 1_565 S
C108 C105 1.344 . S
C108 C107 1.371 . S
C108 H117 0.931 1_565 S
C109 C105 1.328 . S
C109 C110 1.433 . S
C109 H118 0.931 . S
C110 C106 1.323 . S
C110 C109 1.433 . S
C110 H119 0.933 . S
C111 Dy81 2.738 . S
C111 O91 1.255 . S
C111 O92 1.249 . S
C111 C105 1.516 . S
H112 C98 0.930 1_565 S
H113 C99 0.931 1_565 S
H114 C100 0.931 . S
H115 C101 0.933 . S
H116 C107 0.930 1_545 S
H117 C108 0.931 1_545 S
H118 C109 0.931 . S
H119 C110 0.933 . S
Dy120 O123 2.307 . S
Dy120 O125 2.395 . S
Dy120 O126 2.379 . S
Dy120 O128 2.339 . S
Dy120 O130 2.298 . S
Dy120 O134 2.275 . S
Dy120 C142 2.738 . S
Dy121 O124 2.298 . S
Dy121 O127 2.275 . S
Dy121 O129 2.307 . S
Dy121 O131 2.395 . S
Dy121 O132 2.379 . S
Dy121 O135 2.339 . S
Dy121 C151 2.738 . S
C122 O134 1.254 . S
C122 O135 1.257 . S
O123 Dy120 2.307 . S
O123 C133 1.266 . S
O124 Dy121 2.298 . S
O124 C133 1.236 . S
O125 Dy120 2.395 . S
O125 C142 1.255 . S
O126 Dy120 2.379 . S
O126 C142 1.249 . S
O127 Dy121 2.275 . S
O127 C143 1.254 . S
O128 Dy120 2.339 . S
O128 C143 1.257 . S
O129 Dy121 2.307 . S
O129 C144 1.266 . S
O130 Dy120 2.298 . S
O130 C144 1.236 . S
O131 Dy121 2.395 . S
O131 C151 1.255 . S
O132 Dy121 2.379 . S
O132 C151 1.249 . S
C133 O123 1.266 . S
C133 O124 1.236 . S
O134 Dy120 2.275 . S
O134 C122 1.254 . S
O135 Dy121 2.339 . S
O135 C122 1.257 . S
C136 C139 1.344 . S
C136 C140 1.328 . S
C136 C142 1.516 1_556 S
C137 C138 1.304 . S
C137 C141 1.323 . S
C138 C137 1.304 . S
C138 C139 1.371 . S
C138 H152 0.930 . S
C139 C136 1.344 . S
C139 C138 1.371 . S
C139 H153 0.931 . S
C140 C136 1.328 . S
C140 C141 1.433 . S
C140 H154 0.931 . S
C141 C137 1.323 . S
C141 C140 1.433 . S
C141 H155 0.933 . S
C142 Dy120 2.738 . S
C142 O125 1.255 . S
C142 O126 1.249 . S
C142 C136 1.516 1_554 S
C143 O127 1.254 . S
C143 O128 1.257 . S
C144 O129 1.266 . S
C144 O130 1.236 . S
C145 C148 1.344 . S
C145 C149 1.328 . S
C145 C151 1.516 . S
C146 C147 1.304 . S
C146 C150 1.323 . S
C147 C146 1.304 . S
C147 C148 1.371 . S
C147 H156 0.930 . S
C148 C145 1.344 . S
C148 C147 1.371 . S
C148 H157 0.931 . S
C149 C145 1.328 . S
C149 C150 1.433 . S
C149 H158 0.931 . S
C150 C146 1.323 . S
C150 C149 1.433 . S
C150 H159 0.933 . S
C151 Dy121 2.738 . S
C151 O131 1.255 . S
C151 O132 1.249 . S
C151 C145 1.516 . S
H152 C138 0.930 . S
H153 C139 0.931 . S
H154 C140 0.931 . S
H155 C141 0.933 . S
H156 C147 0.930 . S
H157 C148 0.931 . S
H158 C149 0.931 . S
H159 C150 0.933 . S
Dy160 O163 2.307 . S
Dy160 O165 2.395 . S
Dy160 O166 2.379 . S
Dy160 O168 2.339 . S
Dy160 O170 2.298 . S
Dy160 O174 2.275 . S
Dy160 C182 2.738 . S
Dy161 O164 2.298 . S
Dy161 O167 2.275 . S
Dy161 O169 2.307 . S
Dy161 O171 2.395 . S
Dy161 O172 2.379 . S
Dy161 O175 2.339 . S
Dy161 C191 2.738 . S
C162 O174 1.254 . S
C162 O175 1.257 . S
O163 Dy160 2.307 . S
O163 C173 1.266 . S
O164 Dy161 2.298 . S
O164 C173 1.236 . S
O165 Dy160 2.395 . S
O165 C182 1.255 . S
O166 Dy160 2.379 . S
O166 C182 1.249 . S
O167 Dy161 2.275 . S
O167 C183 1.254 . S
O168 Dy160 2.339 . S
O168 C183 1.257 . S
O169 Dy161 2.307 . S
O169 C184 1.266 . S
O170 Dy160 2.298 . S
O170 C184 1.236 . S
O171 Dy161 2.395 . S
O171 C191 1.255 . S
O172 Dy161 2.379 . S
O172 C191 1.249 . S
C173 O163 1.266 . S
C173 O164 1.236 . S
O174 Dy160 2.275 . S
O174 C162 1.254 . S
O175 Dy161 2.339 . S
O175 C162 1.257 . S
C176 C179 1.344 . S
C176 C180 1.328 . S
C176 C182 1.516 1_556 S
C177 C178 1.304 . S
C177 C181 1.323 . S
C178 C177 1.304 . S
C178 C179 1.371 . S
C178 H192 0.930 . S
C179 C176 1.344 . S
C179 C178 1.371 . S
C179 H193 0.931 . S
C180 C176 1.328 . S
C180 C181 1.433 . S
C180 H194 0.931 . S
C181 C177 1.323 . S
C181 C180 1.433 . S
C181 H195 0.933 . S
C182 Dy160 2.738 . S
C182 O165 1.255 . S
C182 O166 1.249 . S
C182 C176 1.516 1_554 S
C183 O167 1.254 . S
C183 O168 1.257 . S
C184 O169 1.266 . S
C184 O170 1.236 . S
C185 C188 1.344 . S
C185 C189 1.328 . S
C185 C191 1.516 . S
C186 C187 1.304 . S
C186 C190 1.323 . S
C187 C186 1.304 . S
C187 C188 1.371 . S
C187 H196 0.930 . S
C188 C185 1.344 . S
C188 C187 1.371 . S
C188 H197 0.931 . S
C189 C185 1.328 . S
C189 C190 1.433 . S
C189 H198 0.931 . S
C190 C186 1.323 . S
C190 C189 1.433 . S
C190 H199 0.933 . S
C191 Dy161 2.738 . S
C191 O171 1.255 . S
C191 O172 1.249 . S
C191 C185 1.516 . S
H192 C178 0.930 . S
H193 C179 0.931 . S
H194 C180 0.931 . S
H195 C181 0.933 . S
H196 C187 0.930 . S
H197 C188 0.931 . S
H198 C189 0.931 . S
H199 C190 0.933 . S
Dy200 O203 2.307 . S
Dy200 O205 2.395 . S
Dy200 O206 2.379 . S
Dy200 O208 2.339 . S
Dy200 O210 2.298 . S
Dy200 O214 2.275 . S
Dy200 C222 2.738 . S
Dy201 O204 2.298 . S
Dy201 O207 2.275 . S
Dy201 O209 2.307 . S
Dy201 O211 2.395 . S
Dy201 O212 2.379 . S
Dy201 O215 2.339 . S
Dy201 C231 2.738 . S
C202 O214 1.254 . S
C202 O215 1.257 . S
O203 Dy200 2.307 . S
O203 C213 1.266 . S
O204 Dy201 2.298 . S
O204 C213 1.236 . S
O205 Dy200 2.395 . S
O205 C222 1.255 . S
O206 Dy200 2.379 . S
O206 C222 1.249 . S
O207 Dy201 2.275 . S
O207 C223 1.254 . S
O208 Dy200 2.339 . S
O208 C223 1.257 . S
O209 Dy201 2.307 . S
O209 C224 1.266 . S
O210 Dy200 2.298 . S
O210 C224 1.236 . S
O211 Dy201 2.395 . S
O211 C231 1.255 . S
O212 Dy201 2.379 . S
O212 C231 1.249 . S
C213 O203 1.266 . S
C213 O204 1.236 . S
O214 Dy200 2.275 . S
O214 C202 1.254 . S
O215 Dy201 2.339 . S
O215 C202 1.257 . S
C216 C219 1.344 . S
C216 C220 1.328 . S
C216 C222 1.516 . S
C217 C218 1.304 . S
C217 C221 1.323 . S
C218 C217 1.304 . S
C218 C219 1.371 . S
C218 H232 0.930 . S
C219 C216 1.344 . S
C219 C218 1.371 . S
C219 H233 0.931 . S
C220 C216 1.328 . S
C220 C221 1.433 . S
C220 H234 0.931 . S
C221 C217 1.323 . S
C221 C220 1.433 . S
C221 H235 0.933 . S
C222 Dy200 2.738 . S
C222 O205 1.255 . S
C222 O206 1.249 . S
C222 C216 1.516 . S
C223 O207 1.254 . S
C223 O208 1.257 . S
C224 O209 1.266 . S
C224 O210 1.236 . S
C225 C228 1.344 . S
C225 C229 1.328 . S
C225 C231 1.516 1_554 S
C226 C227 1.304 . S
C226 C230 1.323 . S
C227 C226 1.304 . S
C227 C228 1.371 . S
C227 H236 0.930 . S
C228 C225 1.344 . S
C228 C227 1.371 . S
C228 H237 0.931 . S
C229 C225 1.328 . S
C229 C230 1.433 . S
C229 H238 0.931 . S
C230 C226 1.323 . S
C230 C229 1.433 . S
C230 H239 0.933 . S
C231 Dy201 2.738 . S
C231 O211 1.255 . S
C231 O212 1.249 . S
C231 C225 1.516 1_556 S
H232 C218 0.930 . S
H233 C219 0.931 . S
H234 C220 0.931 . S
H235 C221 0.933 . S
H236 C227 0.930 . S
H237 C228 0.931 . S
H238 C229 0.931 . S
H239 C230 0.933 . S
Dy240 O243 2.307 1_554 S
Dy240 O245 2.395 . S
Dy240 O246 2.379 . S
Dy240 O248 2.339 . S
Dy240 O250 2.298 . S
Dy240 O254 2.275 . S
Dy240 C262 2.738 . S
Dy241 O244 2.298 . S
Dy241 O247 2.275 . S
Dy241 O249 2.307 1_556 S
Dy241 O251 2.395 . S
Dy241 O252 2.379 . S
Dy241 O255 2.339 . S
Dy241 C271 2.738 . S
C242 O254 1.254 . S
C242 O255 1.257 1_554 S
O243 Dy240 2.307 1_556 S
O243 C253 1.266 . S
O244 Dy241 2.298 . S
O244 C253 1.236 . S
O245 Dy240 2.395 . S
O245 C262 1.255 . S
O246 Dy240 2.379 . S
O246 C262 1.249 . S
O247 Dy241 2.275 . S
O247 C263 1.254 . S
O248 Dy240 2.339 . S
O248 C263 1.257 1_554 S
O249 Dy241 2.307 1_554 S
O249 C264 1.266 . S
O250 Dy240 2.298 . S
O250 C264 1.236 . S
O251 Dy241 2.395 . S
O251 C271 1.255 . S
O252 Dy241 2.379 . S
O252 C271 1.249 . S
C253 O243 1.266 . S
C253 O244 1.236 . S
O254 Dy240 2.275 . S
O254 C242 1.254 . S
O255 Dy241 2.339 . S
O255 C242 1.257 1_556 S
C256 C259 1.344 . S
C256 C260 1.328 . S
C256 C262 1.516 . S
C257 C258 1.304 . S
C257 C261 1.323 . S
C258 C257 1.304 . S
C258 C259 1.371 . S
C258 H272 0.930 . S
C259 C256 1.344 . S
C259 C258 1.371 . S
C259 H273 0.931 . S
C260 C256 1.328 . S
C260 C261 1.433 . S
C260 H274 0.931 . S
C261 C257 1.323 . S
C261 C260 1.433 . S
C261 H275 0.933 . S
C262 Dy240 2.738 . S
C262 O245 1.255 . S
C262 O246 1.249 . S
C262 C256 1.516 . S
C263 O247 1.254 . S
C263 O248 1.257 1_556 S
C264 O249 1.266 . S
C264 O250 1.236 . S
C265 C268 1.344 . S
C265 C269 1.328 . S
C265 C271 1.516 . S
C266 C267 1.304 . S
C266 C270 1.323 . S
C267 C266 1.304 . S
C267 C268 1.371 . S
C267 H276 0.930 . S
C268 C265 1.344 . S
C268 C267 1.371 . S
C268 H277 0.931 . S
C269 C265 1.328 . S
C269 C270 1.433 . S
C269 H278 0.931 . S
C270 C266 1.323 . S
C270 C269 1.433 . S
C270 H279 0.933 . S
C271 Dy241 2.738 . S
C271 O251 1.255 . S
C271 O252 1.249 . S
C271 C265 1.516 . S
H272 C258 0.930 . S
H273 C259 0.931 . S
H274 C260 0.931 . S
H275 C261 0.933 . S
H276 C267 0.930 . S
H277 C268 0.931 . S
H278 C269 0.931 . S
H279 C270 0.933 . S
Dy280 O283 2.307 . S
Dy280 O285 2.395 . S
Dy280 O286 2.379 1_655 S
Dy280 O288 2.339 1_655 S
Dy280 O290 2.298 1_655 S
Dy280 O294 2.275 . S
Dy280 C302 2.738 1_655 S
Dy281 O284 2.298 1_455 S
Dy281 O287 2.275 . S
Dy281 O289 2.307 . S
Dy281 O291 2.395 . S
Dy281 O292 2.379 1_455 S
Dy281 O295 2.339 1_455 S
Dy281 C311 2.738 1_455 S
C282 O294 1.254 . S
C282 O295 1.257 . S
O283 Dy280 2.307 . S
O283 C293 1.266 . S
O284 Dy281 2.298 1_655 S
O284 C293 1.236 . S
O285 Dy280 2.395 . S
O285 C302 1.255 1_655 S
O286 Dy280 2.379 1_455 S
O286 C302 1.249 . S
O287 Dy281 2.275 . S
O287 C303 1.254 . S
O288 Dy280 2.339 1_455 S
O288 C303 1.257 . S
O289 Dy281 2.307 . S
O289 C304 1.266 . S
O290 Dy280 2.298 1_455 S
O290 C304 1.236 . S
O291 Dy281 2.395 . S
O291 C311 1.255 1_455 S
O292 Dy281 2.379 1_655 S
O292 C311 1.249 . S
C293 O283 1.266 . S
C293 O284 1.236 . S
O294 Dy280 2.275 . S
O294 C282 1.254 . S
O295 Dy281 2.339 1_655 S
O295 C282 1.257 . S
C296 C299 1.345 . S
C296 C300 1.328 . S
C296 C302 1.516 . S
C297 C298 1.304 . S
C297 C301 1.323 . S
C298 C297 1.304 . S
C298 C299 1.371 . S
C298 H312 0.930 1_455 S
C299 C296 1.345 . S
C299 C298 1.371 . S
C299 H313 0.930 1_455 S
C300 C296 1.328 . S
C300 C301 1.433 . S
C300 H314 0.931 . S
C301 C297 1.323 . S
C301 C300 1.433 . S
C301 H315 0.933 . S
C302 Dy280 2.738 1_455 S
C302 O285 1.255 1_455 S
C302 O286 1.249 . S
C302 C296 1.516 . S
C303 O287 1.254 . S
C303 O288 1.257 . S
C304 O289 1.266 . S
C304 O290 1.236 . S
C305 C308 1.343 . S
C305 C309 1.328 . S
C305 C311 1.516 . S
C306 C307 1.304 . S
C306 C310 1.323 . S
C307 C306 1.304 . S
C307 C308 1.370 . S
C307 H316 0.930 1_655 S
C308 C305 1.343 . S
C308 C307 1.370 . S
C308 H317 0.932 1_655 S
C309 C305 1.328 . S
C309 C310 1.433 . S
C309 H318 0.931 . S
C310 C306 1.323 . S
C310 C309 1.433 . S
C310 H319 0.933 . S
C311 Dy281 2.738 1_655 S
C311 O291 1.255 1_655 S
C311 O292 1.249 . S
C311 C305 1.516 . S
H312 C298 0.930 1_655 S
H313 C299 0.930 1_655 S
H314 C300 0.931 . S
H315 C301 0.933 . S
H316 C307 0.930 1_455 S
H317 C308 0.932 1_455 S
H318 C309 0.931 . S
H319 C310 0.933 . S
C320 C321 1.387 . S
C320 H324 0.950 . S
C320 C329 1.390 . S
C321 C320 1.387 . S
C321 C323 1.387 . S
H322 C329 0.950 . S
C323 C321 1.387 . S
C323 C325 1.390 . S
C323 H327 0.950 . S
H324 C320 0.950 . S
C325 C323 1.390 . S
C325 C326 1.387 . S
C325 H328 0.950 . S
C326 C325 1.387 . S
C326 C329 1.387 . S
H327 C323 0.950 . S
H328 C325 0.950 . S
C329 C320 1.390 . S
C329 H322 0.950 . S
C329 C326 1.387 . S
C330 C331 1.387 . S
C330 H334 0.950 . S
C330 C339 1.390 . S
C331 C330 1.387 . S
C331 C333 1.387 . S
H332 C339 0.950 . S
C333 C331 1.387 . S
C333 C335 1.390 . S
C333 H337 0.950 . S
H334 C330 0.950 . S
C335 C333 1.390 . S
C335 C336 1.387 . S
C335 H338 0.950 . S
C336 C335 1.387 . S
C336 C339 1.387 . S
H337 C333 0.950 . S
H338 C335 0.950 . S
C339 C330 1.390 . S
C339 H332 0.950 . S
C339 C336 1.387 . S
C340 C341 1.387 . S
C340 H344 0.950 . S
C340 C349 1.390 . S
C341 C340 1.387 . S
C341 C343 1.387 . S
H342 C349 0.950 . S
C343 C341 1.387 . S
C343 C345 1.390 . S
C343 H347 0.950 . S
H344 C340 0.950 . S
C345 C343 1.390 . S
C345 C346 1.387 . S
C345 H348 0.950 . S
C346 C345 1.387 . S
C346 C349 1.387 . S
H347 C343 0.950 . S
H348 C345 0.950 . S
C349 C340 1.390 . S
C349 H342 0.950 . S
C349 C346 1.387 . S
C350 C351 1.387 . S
C350 H354 0.950 . S
C350 C359 1.390 . S
C351 C350 1.387 . S
C351 C353 1.387 . S
H352 C359 0.950 . S
C353 C351 1.387 . S
C353 C355 1.390 . S
C353 H357 0.950 . S
H354 C350 0.950 . S
C355 C353 1.390 . S
C355 C356 1.387 . S
C355 H358 0.950 . S
C356 C355 1.387 . S
C356 C359 1.387 . S
H357 C353 0.950 . S
H358 C355 0.950 . S
C359 C350 1.390 . S
C359 H352 0.950 . S
C359 C356 1.387 . S
C360 C361 1.387 . S
C360 H364 0.950 . S
C360 C369 1.390 . S
C361 C360 1.387 . S
C361 C363 1.387 . S
H362 C369 0.950 . S
C363 C361 1.387 . S
C363 C365 1.390 . S
C363 H367 0.950 . S
H364 C360 0.950 . S
C365 C363 1.390 . S
C365 C366 1.387 . S
C365 H368 0.950 . S
C366 C365 1.387 . S
C366 C369 1.387 . S
H367 C363 0.950 . S
H368 C365 0.950 . S
C369 C360 1.390 . S
C369 H362 0.950 . S
C369 C366 1.387 . S
C370 C371 1.387 . S
C370 H374 0.950 . S
C370 C379 1.390 . S
C371 C370 1.387 . S
C371 C373 1.387 . S
H372 C379 0.950 . S
C373 C371 1.387 . S
C373 C375 1.390 . S
C373 H377 0.950 . S
H374 C370 0.950 . S
C375 C373 1.390 . S
C375 C376 1.387 . S
C375 H378 0.950 . S
C376 C375 1.387 . S
C376 C379 1.387 . S
H377 C373 0.950 . S
H378 C375 0.950 . S
C379 C370 1.390 . S
C379 H372 0.950 . S
C379 C376 1.387 . S
C380 C381 1.387 . S
C380 H384 0.950 . S
C380 C389 1.390 . S
C381 C380 1.387 . S
C381 C383 1.387 . S
H382 C389 0.950 . S
C383 C381 1.387 . S
C383 C385 1.390 . S
C383 H387 0.950 . S
H384 C380 0.950 . S
C385 C383 1.390 . S
C385 C386 1.387 . S
C385 H388 0.950 . S
C386 C385 1.387 . S
C386 C389 1.387 . S
H387 C383 0.950 . S
H388 C385 0.950 . S
C389 C380 1.390 . S
C389 H382 0.950 . S
C389 C386 1.387 . S
C390 C391 1.387 . S
C390 H394 0.950 . S
C390 C399 1.390 . S
C391 C390 1.387 . S
C391 C393 1.387 . S
H392 C399 0.950 . S
C393 C391 1.387 . S
C393 C395 1.390 . S
C393 H397 0.950 . S
H394 C390 0.950 . S
C395 C393 1.390 . S
C395 C396 1.387 . S
C395 H398 0.950 . S
C396 C395 1.387 . S
C396 C399 1.387 . S
H397 C393 0.950 . S
H398 C395 0.950 . S
C399 C390 1.390 . S
C399 H392 0.950 . S
C399 C396 1.387 . S
C400 C401 1.387 . S
C400 H404 0.950 . S
C400 C409 1.390 . S
C401 C400 1.387 . S
C401 C403 1.387 . S
H402 C409 0.950 . S
C403 C401 1.387 . S
C403 C405 1.390 . S
C403 H407 0.950 . S
H404 C400 0.950 . S
C405 C403 1.390 . S
C405 C406 1.387 . S
C405 H408 0.950 . S
C406 C405 1.387 . S
C406 C409 1.387 . S
H407 C403 0.950 . S
H408 C405 0.950 . S
C409 C400 1.390 . S
C409 H402 0.950 . S
C409 C406 1.387 . S
C410 C411 1.387 . S
C410 H414 0.950 . S
C410 C419 1.390 . S
C411 C410 1.387 . S
C411 C413 1.387 . S
H412 C419 0.950 . S
C413 C411 1.387 . S
C413 C415 1.390 . S
C413 H417 0.950 . S
H414 C410 0.950 . S
C415 C413 1.390 . S
C415 C416 1.387 . S
C415 H418 0.950 . S
C416 C415 1.387 . S
C416 C419 1.387 . S
H417 C413 0.950 . S
H418 C415 0.950 . S
C419 C410 1.390 . S
C419 H412 0.950 . S
C419 C416 1.387 . S
C420 C421 1.387 . S
C420 H424 0.950 . S
C420 C429 1.390 . S
C421 C420 1.387 . S
C421 C423 1.387 . S
H422 C429 0.950 . S
C423 C421 1.387 . S
C423 C425 1.390 . S
C423 H427 0.950 . S
H424 C420 0.950 . S
C425 C423 1.390 . S
C425 C426 1.387 . S
C425 H428 0.950 . S
C426 C425 1.387 . S
C426 C429 1.387 . S
H427 C423 0.950 . S
H428 C425 0.950 . S
C429 C420 1.390 . S
C429 H422 0.950 . S
C429 C426 1.387 . S
C430 C431 1.387 . S
C430 H434 0.950 . S
C430 C439 1.390 . S
C431 C430 1.387 . S
C431 C433 1.387 . S
H432 C439 0.950 . S
C433 C431 1.387 . S
C433 C435 1.390 . S
C433 H437 0.950 . S
H434 C430 0.950 . S
C435 C433 1.390 . S
C435 C436 1.387 . S
C435 H438 0.950 . S
C436 C435 1.387 . S
C436 C439 1.387 . S
H437 C433 0.950 . S
H438 C435 0.950 . S
C439 C430 1.390 . S
C439 H432 0.950 . S
C439 C436 1.387 . S
C440 C441 1.387 . S
C440 H444 0.950 . S
C440 C449 1.390 . S
C441 C440 1.387 . S
C441 C443 1.387 . S
H442 C449 0.950 . S
C443 C441 1.387 . S
C443 C445 1.390 . S
C443 H447 0.950 . S
H444 C440 0.950 . S
C445 C443 1.390 . S
C445 C446 1.387 . S
C445 H448 0.950 . S
C446 C445 1.387 . S
C446 C449 1.387 . S
H447 C443 0.950 . S
H448 C445 0.950 . S
C449 C440 1.390 . S
C449 H442 0.950 . S
C449 C446 1.387 . S
C450 C451 1.387 . S
C450 H454 0.950 . S
C450 C459 1.390 . S
C451 C450 1.387 . S
C451 C453 1.387 . S
H452 C459 0.950 . S
C453 C451 1.387 . S
C453 C455 1.390 . S
C453 H457 0.950 . S
H454 C450 0.950 . S
C455 C453 1.390 . S
C455 C456 1.387 . S
C455 H458 0.950 . S
C456 C455 1.387 . S
C456 C459 1.387 . S
H457 C453 0.950 . S
H458 C455 0.950 . S
C459 C450 1.390 . S
C459 H452 0.950 . S
C459 C456 1.387 . S
C460 C461 1.387 . S
C460 H464 0.950 . S
C460 C469 1.390 . S
C461 C460 1.387 . S
C461 C463 1.387 . S
H462 C469 0.950 . S
C463 C461 1.387 . S
C463 C465 1.390 . S
C463 H467 0.950 . S
H464 C460 0.950 . S
C465 C463 1.390 . S
C465 C466 1.387 . S
C465 H468 0.950 . S
C466 C465 1.387 . S
C466 C469 1.387 . S
H467 C463 0.950 . S
H468 C465 0.950 . S
C469 C460 1.390 . S
C469 H462 0.950 . S
C469 C466 1.387 . S
C470 C471 1.387 . S
C470 H474 0.950 . S
C470 C479 1.390 . S
C471 C470 1.387 . S
C471 C473 1.387 . S
H472 C479 0.950 . S
C473 C471 1.387 . S
C473 C475 1.390 . S
C473 H477 0.950 . S
H474 C470 0.950 . S
C475 C473 1.390 . S
C475 C476 1.387 . S
C475 H478 0.950 . S
C476 C475 1.387 . S
C476 C479 1.387 . S
H477 C473 0.950 . S
H478 C475 0.950 . S
C479 C470 1.390 . S
C479 H472 0.950 . S
C479 C476 1.387 . S
C480 C481 1.387 1_565 S
C480 H484 0.950 . S
C480 C489 1.390 1_655 S
C481 C480 1.387 1_545 S
C481 C483 1.387 1_556 S
H482 C489 0.950 . S
C483 C481 1.387 1_554 S
C483 C485 1.390 1_655 S
C483 H487 0.950 . S
H484 C480 0.950 . S
C485 C483 1.390 1_455 S
C485 C486 1.387 1_545 S
C485 H488 0.950 . S
C486 C485 1.387 1_565 S
C486 C489 1.387 1_554 S
H487 C483 0.950 . S
H488 C485 0.950 . S
C489 C480 1.390 1_455 S
C489 H482 0.950 . S
C489 C486 1.387 1_556 S
C490 C491 1.387 . S
C490 H494 0.950 . S
C490 C499 1.390 . S
C491 C490 1.387 . S
C491 C493 1.387 . S
H492 C499 0.950 . S
C493 C491 1.387 . S
C493 C495 1.390 . S
C493 H497 0.950 . S
H494 C490 0.950 . S
C495 C493 1.390 . S
C495 C496 1.387 . S
C495 H498 0.950 . S
C496 C495 1.387 . S
C496 C499 1.387 . S
H497 C493 0.950 . S
H498 C495 0.950 . S
C499 C490 1.390 . S
C499 H492 0.950 . S
C499 C496 1.387 . S
C500 C501 1.387 1_565 S
C500 H504 0.950 . S
C500 C509 1.390 . S
C501 C500 1.387 1_545 S
C501 C503 1.387 . S
H502 C509 0.950 . S
C503 C501 1.387 . S
C503 C505 1.390 . S
C503 H507 0.950 . S
H504 C500 0.950 . S
C505 C503 1.390 . S
C505 C506 1.387 1_545 S
C505 H508 0.950 . S
C506 C505 1.387 1_565 S
C506 C509 1.387 . S
H507 C503 0.950 . S
H508 C505 0.950 . S
C509 C500 1.390 . S
C509 H502 0.950 . S
C509 C506 1.387 . S
C510 C511 1.387 . S
C510 H514 0.950 . S
C510 C519 1.390 . S
C511 C510 1.387 . S
C511 C513 1.387 . S
H512 C519 0.950 . S
C513 C511 1.387 . S
C513 C515 1.390 . S
C513 H517 0.950 . S
H514 C510 0.950 . S
C515 C513 1.390 . S
C515 C516 1.387 . S
C515 H518 0.950 . S
C516 C515 1.387 . S
C516 C519 1.387 . S
H517 C513 0.950 . S
H518 C515 0.950 . S
C519 C510 1.390 . S
C519 H512 0.950 . S
C519 C516 1.387 . S
C520 C521 1.387 . S
C520 H524 0.950 . S
C520 C529 1.390 . S
C521 C520 1.387 . S
C521 C523 1.387 . S
H522 C529 0.950 . S
C523 C521 1.387 . S
C523 C525 1.390 . S
C523 H527 0.950 . S
H524 C520 0.950 . S
C525 C523 1.390 . S
C525 C526 1.387 . S
C525 H528 0.950 . S
C526 C525 1.387 . S
C526 C529 1.387 . S
H527 C523 0.950 . S
H528 C525 0.950 . S
C529 C520 1.390 . S
C529 H522 0.950 . S
C529 C526 1.387 . S
C530 C531 1.387 . S
C530 H534 0.950 . S
C530 C539 1.390 . S
C531 C530 1.387 . S
C531 C533 1.387 . S
H532 C539 0.950 . S
C533 C531 1.387 . S
C533 C535 1.390 . S
C533 H537 0.950 . S
H534 C530 0.950 . S
C535 C533 1.390 . S
C535 C536 1.387 . S
C535 H538 0.950 . S
C536 C535 1.387 . S
C536 C539 1.387 . S
H537 C533 0.950 . S
H538 C535 0.950 . S
C539 C530 1.390 . S
C539 H532 0.950 . S
C539 C536 1.387 . S
C540 C541 1.387 . S
C540 H544 0.950 . S
C540 C549 1.390 . S
C541 C540 1.387 . S
C541 C543 1.387 . S
H542 C549 0.950 . S
C543 C541 1.387 . S
C543 C545 1.390 . S
C543 H547 0.950 . S
H544 C540 0.950 . S
C545 C543 1.390 . S
C545 C546 1.387 . S
C545 H548 0.950 . S
C546 C545 1.387 . S
C546 C549 1.387 . S
H547 C543 0.950 . S
H548 C545 0.950 . S
C549 C540 1.390 . S
C549 H542 0.950 . S
C549 C546 1.387 . S
C550 C551 1.387 . S
C550 H554 0.950 . S
C550 C559 1.390 1_556 S
C551 C550 1.387 . S
C551 C553 1.387 1_655 S
H552 C559 0.950 . S
C553 C551 1.387 1_455 S
C553 C555 1.390 1_556 S
C553 H557 0.950 . S
H554 C550 0.950 . S
C555 C553 1.390 1_554 S
C555 C556 1.387 . S
C555 H558 0.950 . S
C556 C555 1.387 . S
C556 C559 1.387 1_455 S
H557 C553 0.950 . S
H558 C555 0.950 . S
C559 C550 1.390 1_554 S
C559 H552 0.950 . S
C559 C556 1.387 1_655 S
C321 C13 1.665 . S
C326 C133 1.663 . S
C331 C2 1.447 . S
C336 C42 1.450 . S
C341 C53 1.368 . S
C346 C82 1.366 . S
C351 C93 1.733 . S
C356 C122 1.738 . S
C361 C24 1.665 . S
C366 C224 1.669 . S
C371 C23 1.447 . S
C376 C183 1.448 . S
C381 C184 1.368 . S
C386 C103 1.363 . S
C391 C223 1.739 . S
C396 C104 1.735 . S
C401 C253 1.665 . S
C406 C213 1.666 . S
C411 C162 1.449 . S
C416 C242 1.446 . S
C421 C282 1.364 . S
C426 C173 1.369 . S
C431 C202 1.740 . S
C436 C293 1.735 . S
C441 C144 1.666 . S
C446 C264 1.665 . S
C451 C263 1.447 . S
C456 C63 1.449 . S
C461 C64 1.368 . S
C466 C303 1.364 . S
C471 C143 1.740 . S
C476 C304 1.732 . S
C481 C17 1.617 . S
C486 C26 1.617 . S
C491 C57 1.629 . S
C496 C66 1.629 . S
C501 C97 1.597 . S
C506 C106 1.597 . S
C511 C137 1.931 . S
C516 C146 1.931 . S
C521 C177 1.631 . S
C526 C186 1.631 . S
C531 C217 1.931 . S
C536 C226 1.931 . S
C541 C266 1.614 . S
C546 C257 1.614 . S
C551 C306 1.596 . S
C556 C297 1.596 . S
