# Generated by pormake.
# Topology utk, (3)-cn, num edge types: 1
# Building blocks:
#     Node 0, Type 0, BuildingBlock: OLANEW_clean_sbu_2, # of connection points: 3
#     Node 1, Type 0, BuildingBlock: OLANEW_clean_sbu_2, # of connection points: 3
#     Node 2, Type 0, BuildingBlock: OLANEW_clean_sbu_2, # of connection points: 3
#     Node 3, Type 0, BuildingBlock: OLANEW_clean_sbu_2, # of connection points: 3
#     Node 4, Type 0, BuildingBlock: OLANEW_clean_sbu_2, # of connection points: 3
#     Node 5, Type 0, BuildingBlock: OLANEW_clean_sbu_2, # of connection points: 3
#     Node 6, Type 0, BuildingBlock: OLANEW_clean_sbu_2, # of connection points: 3
#     Node 7, Type 0, BuildingBlock: OLANEW_clean_sbu_2, # of connection points: 3
#     Edge 8, Type (0, 0), BuildingBlock: FUNLAD_clean_linker_0, # of connection points: 2
#     Edge 9, Type (0, 0), BuildingBlock: FUNLAD_clean_linker_0, # of connection points: 2
#     Edge 10, Type (0, 0), BuildingBlock: FUNLAD_clean_linker_0, # of connection points: 2
#     Edge 11, Type (0, 0), BuildingBlock: FUNLAD_clean_linker_0, # of connection points: 2
#     Edge 12, Type (0, 0), BuildingBlock: FUNLAD_clean_linker_0, # of connection points: 2
#     Edge 13, Type (0, 0), BuildingBlock: FUNLAD_clean_linker_0, # of connection points: 2
#     Edge 14, Type (0, 0), BuildingBlock: FUNLAD_clean_linker_0, # of connection points: 2
#     Edge 15, Type (0, 0), BuildingBlock: FUNLAD_clean_linker_0, # of connection points: 2
#     Edge 16, Type (0, 0), BuildingBlock: FUNLAD_clean_linker_0, # of connection points: 2
#     Edge 17, Type (0, 0), BuildingBlock: FUNLAD_clean_linker_0, # of connection points: 2
#     Edge 18, Type (0, 0), BuildingBlock: FUNLAD_clean_linker_0, # of connection points: 2
#     Edge 19, Type (0, 0), BuildingBlock: FUNLAD_clean_linker_0, # of connection points: 2
# Relax obj value: 0.000
# Max RMSD: 0.047
# Mean RMSD: 0.047
data_MOF--net-utk--node1-OLANEW_clean_sbu_2--edge1-FUNLAD_clean_linker_0
_symmetry_space_group_name_H-M    P1
_symmetry_Int_Tables_number       1
_symmetry_cell_setting            triclinic
loop_
_symmetry_equiv_pos_as_xyz
'x, y, z'
_cell_length_a     50.810464
_cell_length_b     50.726998
_cell_length_c     37.168871
_cell_angle_alpha  90.271831
_cell_angle_beta   90.173451
_cell_angle_gamma 90.032259
loop_
_atom_site_label
_atom_site_type_symbol
_atom_site_fract_x
_atom_site_fract_y
_atom_site_fract_z
_atom_type_partial_charge
O0 O 0.13601 0.35514 0.20063 0.0
Cd1 Cd 0.13839 0.30883 0.18227 0.0
O2 O 0.09273 0.35537 0.20305 0.0
Cd3 Cd 0.08667 0.3175 0.17598 0.0
O4 O 0.06422 0.29683 0.13417 0.0
C5 C 0.03949 0.30065 0.13456 0.0
O6 O 0.02945 0.31495 0.16071 0.0
C7 C 0.11464 0.36698 0.20803 0.0
C8 C 0.16152 0.27855 0.23649 0.0
O9 O 0.17558 0.29013 0.21275 0.0
O10 O 0.13646 0.28108 0.23444 0.0
O11 O 0.6243 0.12617 0.47496 0.0
Cd12 Cd 0.6716 0.11994 0.46595 0.0
O13 O 0.61437 0.09102 0.44271 0.0
Cd14 Cd 0.65405 0.08041 0.42539 0.0
O15 O 0.6787 0.05705 0.38916 0.0
C16 C 0.6768 0.03213 0.39143 0.0
O17 O 0.66191 0.02211 0.41679 0.0
C18 C 0.60716 0.11045 0.46204 0.0
C19 C 0.70186 0.15036 0.51341 0.0
O20 O 0.69544 0.15909 0.48229 0.0
O21 O 0.69391 0.12728 0.52213 0.0
O22 O 0.85439 0.62506 0.72261 0.0
Cd23 Cd 0.86274 0.67227 0.71577 0.0
O24 O 0.86578 0.6155 0.66698 0.0
Cd25 Cd 0.87844 0.65502 0.65151 0.0
O26 O 0.90409 0.67975 0.6187 0.0
C27 C 0.92873 0.67772 0.624 0.0
O28 O 0.9371 0.66261 0.65028 0.0
C29 C 0.85737 0.60819 0.69754 0.0
C30 C 0.83185 0.70221 0.76272 0.0
O31 O 0.8239 0.69683 0.73075 0.0
O32 O 0.85444 0.69348 0.77244 0.0
O33 O 0.35278 0.85964 0.95537 0.0
Cd34 Cd 0.30502 0.8631 0.94803 0.0
O35 O 0.36036 0.88756 0.9114 0.0
Cd36 Cd 0.31983 0.89607 0.89541 0.0
O37 O 0.29486 0.91854 0.85863 0.0
C38 C 0.29423 0.91133 0.82584 0.0
O39 O 0.30668 0.88968 0.81646 0.0
C40 C 0.3689 0.8724 0.93596 0.0
C41 C 0.2776 0.83111 -0.00382 0.0
O42 O 0.28387 0.82266 0.9648 0.0
O43 O 0.28438 0.85465 0.00484 0.0
O44 O 0.13431 0.62345 0.26295 0.0
Cd45 Cd 0.12981 0.67071 0.27499 0.0
O46 O 0.09343 0.61557 0.27911 0.0
Cd47 Cd 0.08338 0.65505 0.29835 0.0
O48 O 0.05885 0.67843 0.33466 0.0
C49 C 0.06798 0.68787 0.36387 0.0
O50 O 0.09321 0.68529 0.37087 0.0
C51 C 0.11534 0.60738 0.26699 0.0
C52 C 0.15918 0.7012 0.22723 0.0
O53 O 0.16892 0.69379 0.25739 0.0
O54 O 0.13558 0.69414 0.21964 0.0
O55 O 0.3561 0.13973 0.52349 0.0
Cd56 Cd 0.3096 0.14341 0.5397 0.0
O57 O 0.35186 0.09915 0.50316 0.0
Cd58 Cd 0.31323 0.09339 0.5276 0.0
O59 O 0.29012 0.07394 0.56932 0.0
C60 C 0.29414 0.08096 0.60175 0.0
O61 O 0.31021 0.10075 0.60817 0.0
C62 C 0.36588 0.11968 0.50784 0.0
C63 C 0.28204 0.17004 0.48579 0.0
O64 O 0.2934 0.18259 0.5115 0.0
O65 O 0.28342 0.14481 0.48577 0.0
O66 O 0.85329 0.35726 0.76809 0.0
Cd67 Cd 0.85712 0.31124 0.78682 0.0
O68 O 0.89539 0.35995 0.75491 0.0
Cd69 Cd 0.90641 0.32336 0.78184 0.0
O70 O 0.92919 0.30323 0.82348 0.0
C71 C 0.91842 0.29456 0.85189 0.0
O72 O 0.89272 0.29611 0.85512 0.0
C73 C 0.87252 0.37014 0.75519 0.0
C74 C 0.82759 0.27846 0.74147 0.0
O75 O 0.81773 0.28787 0.77051 0.0
O76 O 0.85148 0.28439 0.73401 0.0
O77 O 0.62001 0.84383 0.02313 0.0
Cd78 Cd 0.66651 0.84755 0.03985 0.0
O79 O 0.61444 0.88682 0.02539 0.0
Cd80 Cd 0.65289 0.89646 0.0484 0.0
O81 O 0.67579 0.91908 0.08768 0.0
C82 C 0.6858 0.90837 0.11536 0.0
O83 O 0.68402 0.88268 0.11905 0.0
C84 C 0.60536 0.8639 0.01894 0.0
C85 C 0.69886 0.81946 -0.00735 0.0
O86 O 0.68993 0.80878 0.02132 0.0
O87 O 0.6925 0.84345 0.98632 0.0
C88 C 0.13807 0.40992 0.21922 0.0
C89 C 0.11498 0.39467 0.22091 0.0
C90 C 0.13773 0.4366 0.22909 0.0
C91 C 0.11428 0.44849 0.24102 0.0
C92 C 0.09152 0.43296 0.24391 0.0
C93 C 0.09178 0.40645 0.23373 0.0
C94 C 0.1125 0.47688 0.25081 0.0
C95 C 0.12824 0.49575 0.23715 0.0
C96 C 0.12456 0.52435 0.24488 0.0
C97 C 0.14599 0.54163 0.24115 0.0
C98 C 0.1431 0.56865 0.24801 0.0
C99 C 0.11861 0.57897 0.25851 0.0
H100 H 0.08259 0.52253 0.25624 0.0
C101 C 0.09705 0.56174 0.26144 0.0
C102 C 0.09992 0.53484 0.25454 0.0
H103 H 0.07779 0.56902 0.26899 0.0
H104 H 0.1563 0.4014 0.20965 0.0
H105 H 0.15588 0.44769 0.22753 0.0
H106 H 0.07325 0.44153 0.25334 0.0
H107 H 0.07369 0.39524 0.23565 0.0
H108 H 0.09667 0.48239 0.26888 0.0
H109 H 0.14429 0.49031 0.21939 0.0
H110 H 0.16511 0.53417 0.23325 0.0
H111 H 0.1601 0.58138 0.24534 0.0
C112 C 0.56018 0.09615 0.45634 0.0
C113 C 0.57873 0.11456 0.46907 0.0
C114 C 0.53335 0.09978 0.46254 0.0
C115 C 0.52427 0.12214 0.48134 0.0
C116 C 0.54284 0.14036 0.49451 0.0
C117 C 0.56977 0.13669 0.48836 0.0
C118 C 0.49583 0.12644 0.48906 0.0
C119 C 0.47626 0.1153 0.46962 0.0
C120 C 0.44789 0.11772 0.47876 0.0
C121 C 0.43066 0.09767 0.46741 0.0
C122 C 0.40401 0.09851 0.47639 0.0
C123 C 0.39383 0.11966 0.49654 0.0
H124 H 0.45007 0.15555 0.50638 0.0
C125 C 0.41087 0.14023 0.50688 0.0
C126 C 0.43763 0.13928 0.49813 0.0
H127 H 0.40364 0.15691 0.52223 0.0
H128 H 0.56637 0.0787 0.44175 0.0
H129 H 0.51998 0.08464 0.45313 0.0
H130 H 0.53648 0.15759 0.50946 0.0
H131 H 0.58353 0.1512 0.49867 0.0
H132 H 0.49107 0.13901 0.51184 0.0
H133 H 0.481 0.10287 0.44672 0.0
H134 H 0.43796 0.08096 0.45216 0.0
H135 H 0.39143 0.08241 0.46777 0.0
C136 C 0.8564 0.56118 0.67659 0.0
C137 C 0.85248 0.57981 0.7042 0.0
C138 C 0.85391 0.53424 0.68336 0.0
C139 C 0.84761 0.52524 0.71802 0.0
C140 C 0.84248 0.54386 0.74519 0.0
C141 C 0.84501 0.57087 0.73844 0.0
C142 C 0.84667 0.49668 0.72683 0.0
C143 C 0.86163 0.47864 0.70973 0.0
C144 C 0.86321 0.45051 0.72051 0.0
C145 C 0.88635 0.43648 0.7129 0.0
C146 C 0.88918 0.41031 0.72369 0.0
C147 C 0.86874 0.39738 0.74191 0.0
H148 H 0.82399 0.44734 0.74325 0.0
C149 C 0.84516 0.4111 0.74842 0.0
C150 C 0.84242 0.43742 0.73789 0.0
H151 H 0.82897 0.40166 0.76221 0.0
H152 H 0.86181 0.56736 0.64975 0.0
H153 H 0.85703 0.52056 0.66135 0.0
H154 H 0.83728 0.53749 0.77203 0.0
H155 H 0.84166 0.58467 0.76027 0.0
H156 H 0.83515 0.49086 0.75004 0.0
H157 H 0.87508 0.48505 0.68886 0.0
H158 H 0.90257 0.44599 0.69922 0.0
H159 H 0.90753 0.4003 0.71798 0.0
C160 C 0.56167 0.88326 0.0026 0.0
C161 C 0.57745 0.86085 0.00787 0.0
C162 C 0.53508 0.88071 -0.00629 0.0
C163 C 0.52359 0.85563 -0.01042 0.0
C164 C 0.53929 0.83321 -0.00501 0.0
C165 C 0.56599 0.83576 0.00383 0.0
C166 C 0.4951 0.8524 0.98123 0.0
C167 C 0.48129 0.87056 0.96274 0.0
C168 C 0.45256 0.86892 0.95531 0.0
C169 C 0.44218 0.88448 0.9276 0.0
C170 C 0.41515 0.88514 0.92099 0.0
C171 C 0.39769 0.87039 0.94219 0.0
H172 H 0.44229 0.84206 -0.00147 0.0
C173 C 0.40802 0.85453 0.96976 0.0
C174 C 0.43519 0.85382 0.97633 0.0
H175 H 0.39511 0.84302 0.98669 0.0
H176 H 0.56974 0.9029 0.00583 0.0
H177 H 0.52352 0.89851 -0.00896 0.0
H178 H 0.53088 0.81366 -0.00766 0.0
H179 H 0.57753 0.81808 0.00794 0.0
H180 H 0.48563 0.83426 -0.01039 0.0
H181 H 0.49161 0.88738 0.95154 0.0
H182 H 0.45503 0.89643 0.91112 0.0
H183 H 0.40795 0.89759 0.89951 0.0
C184 C 0.20129 0.26371 0.2709 0.0
C185 C 0.17389 0.26302 0.26564 0.0
C186 C 0.21297 0.24954 0.29889 0.0
C187 C 0.19748 0.23427 0.32221 0.0
C188 C 0.17019 0.23309 0.31644 0.0
C189 C 0.15846 0.24749 0.28867 0.0
C190 C 0.20929 0.21885 0.3521 0.0
C191 C 0.23119 0.22663 0.36974 0.0
C192 C 0.24312 0.21164 0.39994 0.0
C193 C 0.25814 0.2253 0.42572 0.0
C194 C 0.27038 0.21186 0.45391 0.0
C195 C 0.26822 0.18432 0.45663 0.0
H196 H 0.23001 0.17276 0.38281 0.0
C197 C 0.2533 0.17056 0.43073 0.0
C198 C 0.24083 0.18406 0.4027 0.0
H199 H 0.25138 0.14932 0.43195 0.0
H200 H 0.21376 0.27534 0.2535 0.0
H201 H 0.23416 0.25029 0.30182 0.0
H202 H 0.15784 0.22127 0.33377 0.0
H203 H 0.13732 0.2464 0.2852 0.0
H204 H 0.19876 0.20145 0.36104 0.0
H205 H 0.24012 0.24544 0.36306 0.0
H206 H 0.26041 0.24651 0.42408 0.0
H207 H 0.28185 0.22304 0.47328 0.0
C208 C 0.72324 0.1576 0.57359 0.0
C209 C 0.7181 0.1664 0.53845 0.0
C210 C 0.73868 0.17268 0.59716 0.0
C211 C 0.74932 0.19694 0.58607 0.0
C212 C 0.74445 0.20552 0.55083 0.0
C213 C 0.72887 0.19054 0.52734 0.0
C214 C 0.76629 0.21332 0.61002 0.0
C215 C 0.76454 0.21307 0.6462 0.0
C216 C 0.78116 0.22989 0.67004 0.0
C217 C 0.77148 0.23724 0.70397 0.0
C218 C 0.78651 0.25303 0.72714 0.0
C219 C 0.81177 0.2615 0.71708 0.0
H220 H 0.81506 0.23216 0.63466 0.0
C221 C 0.8217 0.25372 0.6834 0.0
C222 C 0.80658 0.23809 0.66011 0.0
H223 H 0.84116 0.25976 0.67493 0.0
H224 H 0.71539 0.139 0.58291 0.0
H225 H 0.74262 0.16498 0.62373 0.0
H226 H 0.75259 0.224 0.54146 0.0
H227 H 0.72543 0.19783 0.50039 0.0
H228 H 0.77965 0.22706 0.59718 0.0
H229 H 0.74939 0.20127 0.65895 0.0
H230 H 0.75208 0.23098 0.71245 0.0
H231 H 0.77833 0.25854 0.75297 0.0
C232 C 0.82331 0.72188 0.82361 0.0
C233 C 0.81541 0.71794 0.7877 0.0
C234 C 0.80769 0.73656 0.84727 0.0
C235 C 0.78376 0.7476 0.83551 0.0
C236 C 0.77613 0.74401 0.79949 0.0
C237 C 0.79166 0.72921 0.77589 0.0
C238 C 0.76671 0.76357 0.85968 0.0
C239 C 0.76601 0.76036 0.89565 0.0
C240 C 0.74855 0.77592 0.91979 0.0
C241 C 0.74088 0.76498 0.95276 0.0
C242 C 0.72465 0.77904 0.97632 0.0
C243 C 0.716 0.80455 0.96763 0.0
H244 H 0.74624 0.81101 0.88657 0.0
C245 C 0.72399 0.81569 0.93486 0.0
C246 C 0.7401 0.80156 0.91119 0.0
H247 H 0.71784 0.83538 0.92747 0.0
H248 H 0.8416 0.71364 0.8335 0.0
H249 H 0.81468 0.73955 0.87451 0.0
H250 H 0.75794 0.7525 0.78962 0.0
H251 H 0.78507 0.72668 0.74835 0.0
H252 H 0.75328 0.77738 0.84705 0.0
H253 H 0.77755 0.74476 0.90789 0.0
H254 H 0.74729 0.74538 0.96022 0.0
H255 H 0.71898 0.76992 0.00143 0.0
C256 C 0.25766 0.82299 0.05679 0.0
C257 C 0.26278 0.81427 0.02153 0.0
C258 C 0.24342 0.80721 0.0806 0.0
C259 C 0.23401 0.78232 0.06966 0.0
C260 C 0.23892 0.77377 0.03433 0.0
C261 C 0.25329 0.78946 0.0106 0.0
C262 C 0.21815 0.76525 0.09378 0.0
C263 C 0.22006 0.76601 0.12995 0.0
C264 C 0.20422 0.7489 0.15404 0.0
C265 C 0.21408 0.74289 0.18835 0.0
C266 C 0.19959 0.72723 0.212 0.0
C267 C 0.17469 0.71751 0.20201 0.0
H268 H 0.17056 0.74414 0.11832 0.0
C269 C 0.16465 0.72377 0.16782 0.0
C270 C 0.17922 0.7393 0.14408 0.0
H271 H 0.14545 0.71676 0.15938 0.0
H272 H 0.26453 0.84208 0.06599 0.0
H273 H 0.23938 0.81488 0.10723 0.0
H274 H 0.23171 0.7548 0.02508 0.0
H275 H 0.25677 0.78221 0.98357 0.0
H276 H 0.20541 0.75073 0.08107 0.0
H277 H 0.23466 0.77869 0.14257 0.0
H278 H 0.23315 0.75022 0.19686 0.0
H279 H 0.20785 0.7229 0.23821 0.0
C280 C 0.03333 0.27886 0.07419 0.0
C281 C 0.02258 0.29182 0.10425 0.0
C282 C 0.01766 0.27308 0.04411 0.0
C283 C -0.00911 0.28036 0.04341 0.0
C284 C 0.97996 0.29206 0.07424 0.0
C285 C -0.00442 0.29779 0.10423 0.0
C286 C 0.97378 0.27718 0.01101 0.0
C287 C 0.98304 0.27455 0.97719 0.0
C288 C 0.96607 0.27643 0.9445 0.0
C289 C 0.97781 0.28363 0.91182 0.0
C290 C 0.96245 0.28845 0.88131 0.0
C291 C 0.9349 0.28611 0.88273 0.0
H292 H 0.9288 0.26584 0.96938 0.0
C293 C 0.92323 0.27738 0.91477 0.0
C294 C 0.93862 0.27244 0.94528 0.0
H295 H 0.9021 0.27496 0.9166 0.0
H296 H 0.05401 0.27369 0.07354 0.0
H297 H 0.02674 0.26318 0.02152 0.0
H298 H 0.95937 0.29763 0.07474 0.0
H299 H 0.98656 0.30757 0.12703 0.0
H300 H 0.95284 0.2799 0.01513 0.0
H301 H 0.00412 0.27381 0.97278 0.0
H302 H -0.00109 0.28652 0.91019 0.0
H303 H 0.97214 0.29491 0.85698 0.0
C304 C 0.70165 0.02543 0.33376 0.0
C305 C 0.688 0.0148 0.36318 0.0
C306 C 0.70909 0.00935 0.30482 0.0
C307 C 0.7028 0.98228 0.30461 0.0
C308 C 0.69072 0.97147 0.3351 0.0
C309 C 0.68335 0.9875 0.364 0.0
C310 C 0.70694 0.96486 0.27273 0.0
C311 C 0.70933 0.97387 0.23878 0.0
C312 C 0.70718 0.95666 0.20629 0.0
C313 C 0.69952 0.96822 0.17364 0.0
C314 C 0.69381 0.95262 0.14355 0.0
C315 C 0.69571 0.92502 0.14536 0.0
H316 H 0.71789 0.91945 0.2314 0.0
C317 C 0.70512 0.91351 0.17722 0.0
C318 C 0.71094 0.92915 0.20733 0.0
H319 H 0.70725 0.89233 0.17931 0.0
H320 H 0.7059 0.04633 0.33255 0.0
H321 H 0.71931 0.01838 0.28259 0.0
H322 H 0.68593 0.95066 0.336 0.0
H323 H 0.67314 0.97858 0.38639 0.0
H324 H 0.70471 0.94386 0.27718 0.0
H325 H 0.70966 -0.00505 0.2341 0.0
H326 H 0.6968 0.98936 0.1718 0.0
H327 H 0.68688 0.96219 0.11932 0.0
C328 C 0.93897 0.70301 0.56779 0.0
C329 C 0.94772 0.68903 0.59812 0.0
C330 C 0.95672 0.71057 0.541 0.0
C331 C 0.98361 0.70406 0.54389 0.0
C332 C -0.00752 0.69163 0.57535 0.0
C333 C 0.97479 0.68414 0.6021 0.0
C334 C 0.00284 0.70832 0.51428 0.0
C335 C -0.00412 0.71119 0.47944 0.0
C336 C 0.01488 0.70916 0.44906 0.0
C337 C 0.0052 0.702 0.41496 0.0
C338 C 0.02241 0.69636 0.38671 0.0
C339 C 0.04978 0.69783 0.3919 0.0
H340 H 0.05056 0.71912 0.47878 0.0
C341 C 0.05948 0.70679 0.42524 0.0
C342 C 0.04223 0.71255 0.45349 0.0
H343 H 0.08045 0.70859 0.42993 0.0
H344 H 0.91829 0.70745 0.56417 0.0
H345 H 0.94911 0.72106 0.51797 0.0
H346 H 0.01309 0.68665 0.57864 0.0
H347 H 0.98227 0.67366 0.62529 0.0
H348 H 0.02344 0.7058 0.52116 0.0
H349 H 0.97519 0.71183 0.47225 0.0
H350 H 0.98424 0.69959 0.41052 0.0
H351 H 0.01422 0.68979 0.36127 0.0
C352 C 0.27313 0.9539 0.80704 0.0
C353 C 0.28324 0.92896 0.79789 0.0
C354 C 0.26633 0.97195 0.7802 0.0
C355 C 0.2697 0.96545 0.74361 0.0
C356 C 0.27805 0.93988 0.73459 0.0
C357 C 0.28482 0.92187 0.76137 0.0
C358 C 0.26631 0.98495 0.7141 0.0
C359 C 0.26867 0.01123 0.71899 0.0
C360 C 0.27159 0.03025 0.68883 0.0
C361 C 0.2846 0.05419 0.69565 0.0
C362 C 0.29085 0.07125 0.66754 0.0
C363 C 0.28408 0.06482 0.63188 0.0
H364 H 0.25221 0.00695 0.64715 0.0
C365 C 0.26949 0.04173 0.62527 0.0
C366 C 0.26321 0.02465 0.65344 0.0
H367 H 0.26361 0.03639 0.59816 0.0
H368 H 0.27128 0.95984 0.83494 0.0
H369 H 0.25895 -0.00896 0.78837 0.0
H370 H 0.28049 0.93416 0.70668 0.0
H371 H 0.29225 0.90272 0.75333 0.0
H372 H 0.26516 0.97704 0.68697 0.0
H373 H 0.27191 0.01895 0.74591 0.0
H374 H 0.291 0.05924 0.72265 0.0
H375 H 0.30185 0.08901 0.67369 0.0
loop_
_geom_bond_atom_site_label_1
_geom_bond_atom_site_label_2
_geom_bond_distance
_geom_bond_site_symmetry_2
_ccdc_geom_bond_type
O0 Cd1 2.300 . S
O0 C7 1.275 . S
Cd1 O0 2.300 . S
Cd1 O9 2.381 . S
Cd1 O10 2.378 . S
O2 Cd3 2.385 . S
O2 C7 1.255 . S
Cd3 O2 2.385 . S
Cd3 O4 2.317 . S
O4 Cd3 2.317 . S
O4 C5 1.232 . S
C5 O4 1.232 . S
C5 O6 1.218 . S
O6 C5 1.218 . S
C7 O0 1.275 . S
C7 O2 1.255 . S
C8 O9 1.258 . S
C8 O10 1.256 . S
O9 Cd1 2.381 . S
O9 C8 1.258 . S
O10 Cd1 2.378 . S
O10 C8 1.256 . S
O11 Cd12 2.300 . S
O11 C18 1.275 . S
Cd12 O11 2.300 . S
Cd12 O20 2.381 . S
Cd12 O21 2.378 . S
O13 Cd14 2.385 . S
O13 C18 1.255 . S
Cd14 O13 2.385 . S
Cd14 O15 2.317 . S
O15 Cd14 2.317 . S
O15 C16 1.232 . S
C16 O15 1.232 . S
C16 O17 1.218 . S
O17 C16 1.218 . S
C18 O11 1.275 . S
C18 O13 1.255 . S
C19 O20 1.258 . S
C19 O21 1.256 . S
O20 Cd12 2.381 . S
O20 C19 1.258 . S
O21 Cd12 2.378 . S
O21 C19 1.256 . S
O22 Cd23 2.300 . S
O22 C29 1.275 . S
Cd23 O22 2.300 . S
Cd23 O31 2.381 . S
Cd23 O32 2.378 . S
O24 Cd25 2.385 . S
O24 C29 1.255 . S
Cd25 O24 2.385 . S
Cd25 O26 2.317 . S
O26 Cd25 2.317 . S
O26 C27 1.232 . S
C27 O26 1.232 . S
C27 O28 1.218 . S
O28 C27 1.218 . S
C29 O22 1.275 . S
C29 O24 1.255 . S
C30 O31 1.258 . S
C30 O32 1.256 . S
O31 Cd23 2.381 . S
O31 C30 1.258 . S
O32 Cd23 2.378 . S
O32 C30 1.256 . S
O33 Cd34 2.300 . S
O33 C40 1.275 1_554 S
Cd34 O33 2.300 . S
Cd34 O42 2.381 . S
Cd34 O43 2.378 . S
O35 Cd36 2.385 . S
O35 C40 1.255 . S
Cd36 O35 2.385 . S
Cd36 O37 2.317 . S
O37 Cd36 2.317 . S
O37 C38 1.232 . S
C38 O37 1.232 . S
C38 O39 1.218 . S
O39 C38 1.218 . S
C40 O33 1.275 1_556 S
C40 O35 1.255 . S
C41 O42 1.258 . S
C41 O43 1.256 . S
O42 Cd34 2.381 . S
O42 C41 1.258 . S
O43 Cd34 2.378 . S
O43 C41 1.256 . S
O44 Cd45 2.300 . S
O44 C51 1.275 . S
Cd45 O44 2.300 . S
Cd45 O53 2.381 . S
Cd45 O54 2.378 . S
O46 Cd47 2.385 . S
O46 C51 1.255 . S
Cd47 O46 2.385 . S
Cd47 O48 2.317 . S
O48 Cd47 2.317 . S
O48 C49 1.232 . S
C49 O48 1.232 . S
C49 O50 1.218 . S
O50 C49 1.218 . S
C51 O44 1.275 . S
C51 O46 1.255 . S
C52 O53 1.258 . S
C52 O54 1.256 . S
O53 Cd45 2.381 . S
O53 C52 1.258 . S
O54 Cd45 2.378 . S
O54 C52 1.256 . S
O55 Cd56 2.300 . S
O55 C62 1.275 . S
Cd56 O55 2.300 . S
Cd56 O64 2.381 . S
Cd56 O65 2.378 . S
O57 Cd58 2.385 . S
O57 C62 1.255 . S
Cd58 O57 2.385 . S
Cd58 O59 2.317 . S
O59 Cd58 2.317 . S
O59 C60 1.232 . S
C60 O59 1.232 . S
C60 O61 1.218 . S
O61 C60 1.218 . S
C62 O55 1.275 . S
C62 O57 1.255 . S
C63 O64 1.258 . S
C63 O65 1.256 . S
O64 Cd56 2.381 . S
O64 C63 1.258 . S
O65 Cd56 2.378 . S
O65 C63 1.256 . S
O66 Cd67 2.300 . S
O66 C73 1.275 . S
Cd67 O66 2.300 . S
Cd67 O75 2.381 . S
Cd67 O76 2.378 . S
O68 Cd69 2.385 . S
O68 C73 1.255 . S
Cd69 O68 2.385 . S
Cd69 O70 2.317 . S
O70 Cd69 2.317 . S
O70 C71 1.232 . S
C71 O70 1.232 . S
C71 O72 1.218 . S
O72 C71 1.218 . S
C73 O66 1.275 . S
C73 O68 1.255 . S
C74 O75 1.258 . S
C74 O76 1.256 . S
O75 Cd67 2.381 . S
O75 C74 1.258 . S
O76 Cd67 2.378 . S
O76 C74 1.256 . S
O77 Cd78 2.300 . S
O77 C84 1.275 1_556 S
Cd78 O77 2.300 . S
Cd78 O86 2.381 . S
Cd78 O87 2.378 . S
O79 Cd80 2.385 . S
O79 C84 1.255 . S
Cd80 O79 2.385 . S
Cd80 O81 2.317 . S
O81 Cd80 2.317 . S
O81 C82 1.232 . S
C82 O81 1.232 . S
C82 O83 1.218 . S
O83 C82 1.218 . S
C84 O77 1.275 1_554 S
C84 O79 1.255 . S
C85 O86 1.258 . S
C85 O87 1.256 . S
O86 Cd78 2.381 . S
O86 C85 1.258 . S
O87 Cd78 2.378 . S
O87 C85 1.256 . S
C88 C89 1.386 . S
C88 C90 1.383 . S
C88 H104 0.951 . S
C89 C88 1.386 . S
C89 C93 1.383 . S
C90 C88 1.383 . S
C90 C91 1.402 . S
C90 H105 0.951 . S
C91 C90 1.402 . S
C91 C92 1.375 . S
C91 C94 1.481 . S
C92 C91 1.375 . S
C92 C93 1.367 . S
C92 H106 0.951 . S
C93 C89 1.383 . S
C93 C92 1.367 . S
C93 H107 0.950 . S
C94 C91 1.481 . S
C94 C95 1.297 . S
C94 H108 0.950 . S
C95 C94 1.297 . S
C95 C96 1.479 . S
C95 H109 0.950 . S
C96 C95 1.479 . S
C96 C97 1.375 . S
C96 C102 1.404 . S
C97 C96 1.375 . S
C97 C98 1.369 . S
C97 H110 0.950 . S
C98 C97 1.369 . S
C98 C99 1.392 . S
C98 H111 0.951 . S
C99 C98 1.392 . S
C99 C101 1.384 . S
H100 C102 0.949 . S
C101 C99 1.384 . S
C101 C102 1.385 . S
C101 H103 0.950 . S
C102 C96 1.404 . S
C102 H100 0.949 . S
C102 C101 1.385 . S
H103 C101 0.950 . S
H104 C88 0.951 . S
H105 C90 0.951 . S
H106 C92 0.951 . S
H107 C93 0.950 . S
H108 C94 0.950 . S
H109 C95 0.950 . S
H110 C97 0.950 . S
H111 C98 0.951 . S
C112 C113 1.386 . S
C112 C114 1.383 . S
C112 H128 0.951 . S
C113 C112 1.386 . S
C113 C117 1.383 . S
C114 C112 1.383 . S
C114 C115 1.402 . S
C114 H129 0.951 . S
C115 C114 1.402 . S
C115 C116 1.375 . S
C115 C118 1.481 . S
C116 C115 1.375 . S
C116 C117 1.367 . S
C116 H130 0.951 . S
C117 C113 1.383 . S
C117 C116 1.367 . S
C117 H131 0.950 . S
C118 C115 1.481 . S
C118 C119 1.297 . S
C118 H132 0.950 . S
C119 C118 1.297 . S
C119 C120 1.479 . S
C119 H133 0.950 . S
C120 C119 1.479 . S
C120 C121 1.375 . S
C120 C126 1.404 . S
C121 C120 1.375 . S
C121 C122 1.369 . S
C121 H134 0.950 . S
C122 C121 1.369 . S
C122 C123 1.392 . S
C122 H135 0.951 . S
C123 C122 1.392 . S
C123 C125 1.384 . S
H124 C126 0.949 . S
C125 C123 1.384 . S
C125 C126 1.385 . S
C125 H127 0.950 . S
C126 C120 1.404 . S
C126 H124 0.949 . S
C126 C125 1.385 . S
H127 C125 0.950 . S
H128 C112 0.951 . S
H129 C114 0.951 . S
H130 C116 0.951 . S
H131 C117 0.950 . S
H132 C118 0.950 . S
H133 C119 0.950 . S
H134 C121 0.950 . S
H135 C122 0.951 . S
C136 C137 1.386 . S
C136 C138 1.383 . S
C136 H152 0.951 . S
C137 C136 1.386 . S
C137 C141 1.383 . S
C138 C136 1.383 . S
C138 C139 1.402 . S
C138 H153 0.951 . S
C139 C138 1.402 . S
C139 C140 1.375 . S
C139 C142 1.481 . S
C140 C139 1.375 . S
C140 C141 1.367 . S
C140 H154 0.951 . S
C141 C137 1.383 . S
C141 C140 1.367 . S
C141 H155 0.950 . S
C142 C139 1.481 . S
C142 C143 1.297 . S
C142 H156 0.950 . S
C143 C142 1.297 . S
C143 C144 1.479 . S
C143 H157 0.950 . S
C144 C143 1.479 . S
C144 C145 1.375 . S
C144 C150 1.404 . S
C145 C144 1.375 . S
C145 C146 1.369 . S
C145 H158 0.950 . S
C146 C145 1.369 . S
C146 C147 1.392 . S
C146 H159 0.951 . S
C147 C146 1.392 . S
C147 C149 1.384 . S
H148 C150 0.949 . S
C149 C147 1.384 . S
C149 C150 1.385 . S
C149 H151 0.950 . S
C150 C144 1.404 . S
C150 H148 0.949 . S
C150 C149 1.385 . S
H151 C149 0.950 . S
H152 C136 0.951 . S
H153 C138 0.951 . S
H154 C140 0.951 . S
H155 C141 0.950 . S
H156 C142 0.950 . S
H157 C143 0.950 . S
H158 C145 0.950 . S
H159 C146 0.951 . S
C160 C161 1.386 1_556 S
C160 C162 1.383 . S
C160 H176 0.951 . S
C161 C160 1.386 1_554 S
C161 C165 1.383 . S
C162 C160 1.383 . S
C162 C163 1.402 1_556 S
C162 H177 0.951 . S
C163 C162 1.402 1_554 S
C163 C164 1.375 . S
C163 C166 1.481 . S
C164 C163 1.375 . S
C164 C165 1.367 . S
C164 H178 0.951 . S
C165 C161 1.383 . S
C165 C164 1.367 . S
C165 H179 0.950 . S
C166 C163 1.481 . S
C166 C167 1.297 1_554 S
C166 H180 0.950 . S
C167 C166 1.297 1_556 S
C167 C168 1.479 . S
C167 H181 0.950 . S
C168 C167 1.479 . S
C168 C169 1.375 . S
C168 C174 1.404 1_556 S
C169 C168 1.375 . S
C169 C170 1.369 . S
C169 H182 0.950 . S
C170 C169 1.369 . S
C170 C171 1.392 . S
C170 H183 0.951 . S
C171 C170 1.392 . S
C171 C173 1.384 1_556 S
H172 C174 0.949 . S
C173 C171 1.384 1_554 S
C173 C174 1.385 . S
C173 H175 0.950 . S
C174 C168 1.404 1_554 S
C174 H172 0.949 . S
C174 C173 1.385 . S
H175 C173 0.950 . S
H176 C160 0.951 . S
H177 C162 0.951 . S
H178 C164 0.951 . S
H179 C165 0.950 . S
H180 C166 0.950 . S
H181 C167 0.950 . S
H182 C169 0.950 . S
H183 C170 0.951 . S
C184 C185 1.386 . S
C184 C186 1.383 . S
C184 H200 0.951 . S
C185 C184 1.386 . S
C185 C189 1.383 . S
C186 C184 1.383 . S
C186 C187 1.402 . S
C186 H201 0.951 . S
C187 C186 1.402 . S
C187 C188 1.375 . S
C187 C190 1.481 . S
C188 C187 1.375 . S
C188 C189 1.367 . S
C188 H202 0.951 . S
C189 C185 1.383 . S
C189 C188 1.367 . S
C189 H203 0.950 . S
C190 C187 1.481 . S
C190 C191 1.297 . S
C190 H204 0.950 . S
C191 C190 1.297 . S
C191 C192 1.479 . S
C191 H205 0.950 . S
C192 C191 1.479 . S
C192 C193 1.375 . S
C192 C198 1.404 . S
C193 C192 1.375 . S
C193 C194 1.369 . S
C193 H206 0.950 . S
C194 C193 1.369 . S
C194 C195 1.392 . S
C194 H207 0.951 . S
C195 C194 1.392 . S
C195 C197 1.384 . S
H196 C198 0.949 . S
C197 C195 1.384 . S
C197 C198 1.385 . S
C197 H199 0.950 . S
C198 C192 1.404 . S
C198 H196 0.949 . S
C198 C197 1.385 . S
H199 C197 0.950 . S
H200 C184 0.951 . S
H201 C186 0.951 . S
H202 C188 0.951 . S
H203 C189 0.950 . S
H204 C190 0.950 . S
H205 C191 0.950 . S
H206 C193 0.950 . S
H207 C194 0.951 . S
C208 C209 1.386 . S
C208 C210 1.383 . S
C208 H224 0.951 . S
C209 C208 1.386 . S
C209 C213 1.383 . S
C210 C208 1.383 . S
C210 C211 1.402 . S
C210 H225 0.951 . S
C211 C210 1.402 . S
C211 C212 1.375 . S
C211 C214 1.481 . S
C212 C211 1.375 . S
C212 C213 1.367 . S
C212 H226 0.951 . S
C213 C209 1.383 . S
C213 C212 1.367 . S
C213 H227 0.950 . S
C214 C211 1.481 . S
C214 C215 1.297 . S
C214 H228 0.950 . S
C215 C214 1.297 . S
C215 C216 1.479 . S
C215 H229 0.950 . S
C216 C215 1.479 . S
C216 C217 1.375 . S
C216 C222 1.404 . S
C217 C216 1.375 . S
C217 C218 1.369 . S
C217 H230 0.950 . S
C218 C217 1.369 . S
C218 C219 1.392 . S
C218 H231 0.951 . S
C219 C218 1.392 . S
C219 C221 1.384 . S
H220 C222 0.949 . S
C221 C219 1.384 . S
C221 C222 1.385 . S
C221 H223 0.950 . S
C222 C216 1.404 . S
C222 H220 0.949 . S
C222 C221 1.385 . S
H223 C221 0.950 . S
H224 C208 0.951 . S
H225 C210 0.951 . S
H226 C212 0.951 . S
H227 C213 0.950 . S
H228 C214 0.950 . S
H229 C215 0.950 . S
H230 C217 0.950 . S
H231 C218 0.951 . S
C232 C233 1.386 . S
C232 C234 1.383 . S
C232 H248 0.951 . S
C233 C232 1.386 . S
C233 C237 1.383 . S
C234 C232 1.383 . S
C234 C235 1.402 . S
C234 H249 0.951 . S
C235 C234 1.402 . S
C235 C236 1.375 . S
C235 C238 1.481 . S
C236 C235 1.375 . S
C236 C237 1.367 . S
C236 H250 0.951 . S
C237 C233 1.383 . S
C237 C236 1.367 . S
C237 H251 0.950 . S
C238 C235 1.481 . S
C238 C239 1.297 . S
C238 H252 0.950 . S
C239 C238 1.297 . S
C239 C240 1.479 . S
C239 H253 0.950 . S
C240 C239 1.479 . S
C240 C241 1.375 . S
C240 C246 1.404 . S
C241 C240 1.375 . S
C241 C242 1.369 . S
C241 H254 0.950 . S
C242 C241 1.369 . S
C242 C243 1.392 . S
C242 H255 0.951 . S
C243 C242 1.392 . S
C243 C245 1.384 . S
H244 C246 0.949 . S
C245 C243 1.384 . S
C245 C246 1.385 . S
C245 H247 0.950 . S
C246 C240 1.404 . S
C246 H244 0.949 . S
C246 C245 1.385 . S
H247 C245 0.950 . S
H248 C232 0.951 . S
H249 C234 0.951 . S
H250 C236 0.951 . S
H251 C237 0.950 . S
H252 C238 0.950 . S
H253 C239 0.950 . S
H254 C241 0.950 . S
H255 C242 0.951 . S
C256 C257 1.386 . S
C256 C258 1.383 . S
C256 H272 0.951 . S
C257 C256 1.386 . S
C257 C261 1.383 . S
C258 C256 1.383 . S
C258 C259 1.402 . S
C258 H273 0.951 . S
C259 C258 1.402 . S
C259 C260 1.375 . S
C259 C262 1.481 . S
C260 C259 1.375 . S
C260 C261 1.367 . S
C260 H274 0.951 . S
C261 C257 1.383 . S
C261 C260 1.367 . S
C261 H275 0.950 . S
C262 C259 1.481 . S
C262 C263 1.297 . S
C262 H276 0.950 . S
C263 C262 1.297 . S
C263 C264 1.479 . S
C263 H277 0.950 . S
C264 C263 1.479 . S
C264 C265 1.375 . S
C264 C270 1.404 . S
C265 C264 1.375 . S
C265 C266 1.369 . S
C265 H278 0.950 . S
C266 C265 1.369 . S
C266 C267 1.392 . S
C266 H279 0.951 . S
C267 C266 1.392 . S
C267 C269 1.384 . S
H268 C270 0.949 . S
C269 C267 1.384 . S
C269 C270 1.385 . S
C269 H271 0.950 . S
C270 C264 1.404 . S
C270 H268 0.949 . S
C270 C269 1.385 . S
H271 C269 0.950 . S
H272 C256 0.951 . S
H273 C258 0.951 . S
H274 C260 0.951 . S
H275 C261 0.950 . S
H276 C262 0.950 . S
H277 C263 0.950 . S
H278 C265 0.950 . S
H279 C266 0.951 . S
C280 C281 1.386 . S
C280 C282 1.383 . S
C280 H296 0.951 . S
C281 C280 1.386 . S
C281 C285 1.383 . S
C282 C280 1.383 . S
C282 C283 1.402 . S
C282 H297 0.951 . S
C283 C282 1.402 . S
C283 C284 1.375 . S
C283 C286 1.481 1_455 S
C284 C283 1.375 . S
C284 C285 1.367 . S
C284 H298 0.951 . S
C285 C281 1.383 . S
C285 C284 1.367 . S
C285 H299 0.950 . S
C286 C283 1.481 1_655 S
C286 C287 1.297 1_554 S
C286 H300 0.950 . S
C287 C286 1.297 1_556 S
C287 C288 1.479 . S
C287 H301 0.950 1_556 S
C288 C287 1.479 . S
C288 C289 1.375 . S
C288 C294 1.404 . S
C289 C288 1.375 . S
C289 C290 1.369 . S
C289 H302 0.950 . S
C290 C289 1.369 . S
C290 C291 1.392 . S
C290 H303 0.951 . S
C291 C290 1.392 . S
C291 C293 1.384 . S
H292 C294 0.949 . S
C293 C291 1.384 . S
C293 C294 1.385 . S
C293 H295 0.950 . S
C294 C288 1.404 . S
C294 H292 0.949 . S
C294 C293 1.385 . S
H295 C293 0.950 . S
H296 C280 0.951 . S
H297 C282 0.951 . S
H298 C284 0.951 . S
H299 C285 0.950 . S
H300 C286 0.950 . S
H301 C287 0.950 1_554 S
H302 C289 0.950 . S
H303 C290 0.951 . S
C304 C305 1.386 . S
C304 C306 1.383 . S
C304 H320 0.951 . S
C305 C304 1.386 . S
C305 C309 1.383 . S
C306 C304 1.383 . S
C306 C307 1.402 . S
C306 H321 0.951 . S
C307 C306 1.402 . S
C307 C308 1.375 . S
C307 C310 1.481 1_545 S
C308 C307 1.375 . S
C308 C309 1.367 . S
C308 H322 0.951 1_545 S
C309 C305 1.383 . S
C309 C308 1.367 . S
C309 H323 0.950 . S
C310 C307 1.481 1_565 S
C310 C311 1.297 . S
C310 H324 0.950 . S
C311 C310 1.297 . S
C311 C312 1.479 . S
C311 H325 0.950 . S
C312 C311 1.479 . S
C312 C313 1.375 . S
C312 C318 1.404 . S
C313 C312 1.375 . S
C313 C314 1.369 . S
C313 H326 0.950 . S
C314 C313 1.369 . S
C314 C315 1.392 . S
C314 H327 0.951 . S
C315 C314 1.392 . S
C315 C317 1.384 . S
H316 C318 0.949 . S
C317 C315 1.384 . S
C317 C318 1.385 . S
C317 H319 0.950 . S
C318 C312 1.404 . S
C318 H316 0.949 . S
C318 C317 1.385 . S
H319 C317 0.950 . S
H320 C304 0.951 . S
H321 C306 0.951 . S
H322 C308 0.951 1_565 S
H323 C309 0.950 . S
H324 C310 0.950 . S
H325 C311 0.950 . S
H326 C313 0.950 . S
H327 C314 0.951 . S
C328 C329 1.386 . S
C328 C330 1.383 . S
C328 H344 0.951 . S
C329 C328 1.386 . S
C329 C333 1.383 . S
C330 C328 1.383 . S
C330 C331 1.402 . S
C330 H345 0.951 . S
C331 C330 1.402 . S
C331 C332 1.375 . S
C331 C334 1.481 1_655 S
C332 C331 1.375 . S
C332 C333 1.367 . S
C332 H346 0.951 1_655 S
C333 C329 1.383 . S
C333 C332 1.367 . S
C333 H347 0.950 . S
C334 C331 1.481 1_455 S
C334 C335 1.297 . S
C334 H348 0.950 . S
C335 C334 1.297 . S
C335 C336 1.479 . S
C335 H349 0.950 1_455 S
C336 C335 1.479 . S
C336 C337 1.375 . S
C336 C342 1.404 . S
C337 C336 1.375 . S
C337 C338 1.369 . S
C337 H350 0.950 1_455 S
C338 C337 1.369 . S
C338 C339 1.392 . S
C338 H351 0.951 . S
C339 C338 1.392 . S
C339 C341 1.384 . S
H340 C342 0.949 . S
C341 C339 1.384 . S
C341 C342 1.385 . S
C341 H343 0.950 . S
C342 C336 1.404 . S
C342 H340 0.949 . S
C342 C341 1.385 . S
H343 C341 0.950 . S
H344 C328 0.951 . S
H345 C330 0.951 . S
H346 C332 0.951 1_455 S
H347 C333 0.950 . S
H348 C334 0.950 . S
H349 C335 0.950 1_655 S
H350 C337 0.950 1_655 S
H351 C338 0.951 . S
C352 C353 1.386 . S
C352 C354 1.383 . S
C352 H368 0.951 . S
C353 C352 1.386 . S
C353 C357 1.383 . S
C354 C352 1.383 . S
C354 C355 1.402 . S
C354 H369 0.951 1_565 S
C355 C354 1.402 . S
C355 C356 1.375 . S
C355 C358 1.481 . S
C356 C355 1.375 . S
C356 C357 1.367 . S
C356 H370 0.951 . S
C357 C353 1.383 . S
C357 C356 1.367 . S
C357 H371 0.950 . S
C358 C355 1.481 . S
C358 C359 1.297 1_565 S
C358 H372 0.950 . S
C359 C358 1.297 1_545 S
C359 C360 1.479 . S
C359 H373 0.950 . S
C360 C359 1.479 . S
C360 C361 1.375 . S
C360 C366 1.404 . S
C361 C360 1.375 . S
C361 C362 1.369 . S
C361 H374 0.950 . S
C362 C361 1.369 . S
C362 C363 1.392 . S
C362 H375 0.951 . S
C363 C362 1.392 . S
C363 C365 1.384 . S
H364 C366 0.949 1_565 S
C365 C363 1.384 . S
C365 C366 1.385 . S
C365 H367 0.950 . S
C366 C360 1.404 . S
C366 H364 0.949 1_545 S
C366 C365 1.385 . S
H367 C365 0.950 . S
H368 C352 0.951 . S
H369 C354 0.951 1_545 S
H370 C356 0.951 . S
H371 C357 0.950 . S
H372 C358 0.950 . S
H373 C359 0.950 . S
H374 C361 0.950 . S
H375 C362 0.951 . S
C89 C7 1.510 . S
C99 C51 1.455 . S
C113 C18 1.473 . S
C123 C62 1.513 . S
C137 C29 1.471 . S
C147 C73 1.497 . S
C161 C84 1.503 . S
C171 C40 1.503 . S
C185 C8 1.514 . S
C195 C63 1.515 . S
C209 C19 1.521 . S
C219 C74 1.504 . S
C233 C30 1.522 . S
C243 C85 1.501 . S
C257 C41 1.520 . S
C267 C52 1.505 . S
C281 C5 1.306 . S
C291 C71 1.416 . S
C305 C16 1.291 . S
C315 C82 1.413 . S
C329 C27 1.295 . S
C339 C49 1.387 . S
C353 C38 1.369 . S
C363 C60 1.330 . S
