# Generated by pormake.
# Topology crr, (4)-cn, num edge types: 1
# Building blocks:
#     Node 0, Type 0, BuildingBlock: MUDLON_clean_sbu_0, # of connection points: 4
#     Node 1, Type 0, BuildingBlock: MUDLON_clean_sbu_0, # of connection points: 4
#     Node 2, Type 0, BuildingBlock: MUDLON_clean_sbu_0, # of connection points: 4
#     Node 3, Type 0, BuildingBlock: MUDLON_clean_sbu_0, # of connection points: 4
#     Node 4, Type 0, BuildingBlock: MUDLON_clean_sbu_0, # of connection points: 4
#     Node 5, Type 0, BuildingBlock: MUDLON_clean_sbu_0, # of connection points: 4
#     Node 6, Type 0, BuildingBlock: MUDLON_clean_sbu_0, # of connection points: 4
#     Node 7, Type 0, BuildingBlock: MUDLON_clean_sbu_0, # of connection points: 4
#     Node 8, Type 0, BuildingBlock: MUDLON_clean_sbu_0, # of connection points: 4
#     Node 9, Type 0, BuildingBlock: MUDLON_clean_sbu_0, # of connection points: 4
#     Node 10, Type 0, BuildingBlock: MUDLON_clean_sbu_0, # of connection points: 4
#     Node 11, Type 0, BuildingBlock: MUDLON_clean_sbu_0, # of connection points: 4
#     Edge 12, Type (0, 0), BuildingBlock: EZIPEK_clean_linker_0, # of connection points: 2
#     Edge 13, Type (0, 0), BuildingBlock: EZIPEK_clean_linker_0, # of connection points: 2
#     Edge 14, Type (0, 0), BuildingBlock: EZIPEK_clean_linker_0, # of connection points: 2
#     Edge 15, Type (0, 0), BuildingBlock: EZIPEK_clean_linker_0, # of connection points: 2
#     Edge 16, Type (0, 0), BuildingBlock: EZIPEK_clean_linker_0, # of connection points: 2
#     Edge 17, Type (0, 0), BuildingBlock: EZIPEK_clean_linker_0, # of connection points: 2
#     Edge 18, Type (0, 0), BuildingBlock: EZIPEK_clean_linker_0, # of connection points: 2
#     Edge 19, Type (0, 0), BuildingBlock: EZIPEK_clean_linker_0, # of connection points: 2
#     Edge 20, Type (0, 0), BuildingBlock: EZIPEK_clean_linker_0, # of connection points: 2
#     Edge 21, Type (0, 0), BuildingBlock: EZIPEK_clean_linker_0, # of connection points: 2
#     Edge 22, Type (0, 0), BuildingBlock: EZIPEK_clean_linker_0, # of connection points: 2
#     Edge 23, Type (0, 0), BuildingBlock: EZIPEK_clean_linker_0, # of connection points: 2
#     Edge 24, Type (0, 0), BuildingBlock: EZIPEK_clean_linker_0, # of connection points: 2
#     Edge 25, Type (0, 0), BuildingBlock: EZIPEK_clean_linker_0, # of connection points: 2
#     Edge 26, Type (0, 0), BuildingBlock: EZIPEK_clean_linker_0, # of connection points: 2
#     Edge 27, Type (0, 0), BuildingBlock: EZIPEK_clean_linker_0, # of connection points: 2
#     Edge 28, Type (0, 0), BuildingBlock: EZIPEK_clean_linker_0, # of connection points: 2
#     Edge 29, Type (0, 0), BuildingBlock: EZIPEK_clean_linker_0, # of connection points: 2
#     Edge 30, Type (0, 0), BuildingBlock: EZIPEK_clean_linker_0, # of connection points: 2
#     Edge 31, Type (0, 0), BuildingBlock: EZIPEK_clean_linker_0, # of connection points: 2
#     Edge 32, Type (0, 0), BuildingBlock: EZIPEK_clean_linker_0, # of connection points: 2
#     Edge 33, Type (0, 0), BuildingBlock: EZIPEK_clean_linker_0, # of connection points: 2
#     Edge 34, Type (0, 0), BuildingBlock: EZIPEK_clean_linker_0, # of connection points: 2
#     Edge 35, Type (0, 0), BuildingBlock: EZIPEK_clean_linker_0, # of connection points: 2
# Relax obj value: 0.144
# Max RMSD: 0.143
# Mean RMSD: 0.141
data_MOF--net-crr--node1-MUDLON_clean_sbu_0--edge1-EZIPEK_clean_linker_0
_symmetry_space_group_name_H-M    P1
_symmetry_Int_Tables_number       1
_symmetry_cell_setting            triclinic
loop_
_symmetry_equiv_pos_as_xyz
'x, y, z'
_cell_length_a     29.704065
_cell_length_b     30.047023
_cell_length_c     30.095473
_cell_angle_alpha  90.378152
_cell_angle_beta   89.613086
_cell_angle_gamma 90.730269
loop_
_atom_site_label
_atom_site_type_symbol
_atom_site_fract_x
_atom_site_fract_y
_atom_site_fract_z
_atom_type_partial_charge
Mg0 Mg 0.16398 0.39157 0.38984 0.0
C1 C 0.22358 0.3288 0.42872 0.0
O2 O 0.18401 0.30901 0.42616 0.0
C3 C 0.11578 0.46856 0.35892 0.0
O4 O 0.09184 0.43389 0.34586 0.0
C5 C 0.19338 0.38833 0.29609 0.0
O6 O 0.19737 0.43072 0.30634 0.0
O7 O 0.17385 0.36233 0.32373 0.0
O8 O 0.22657 0.37001 0.41939 0.0
O9 O 0.11015 0.37112 0.43581 0.0
C10 C 0.07003 0.35806 0.42817 0.0
O11 O 0.0567 0.35143 0.38712 0.0
O12 O 0.15234 0.46212 0.37966 0.0
Mg13 Mg 0.33574 0.86185 0.63273 0.0
C14 C 0.36426 0.7911 0.69315 0.0
O15 O 0.34946 0.82213 0.72026 0.0
C16 C 0.31613 0.90612 0.54807 0.0
O17 O 0.29413 0.93093 0.57669 0.0
C18 C 0.23851 0.8845 0.67469 0.0
O19 O 0.24532 0.92753 0.67059 0.0
O20 O 0.26868 0.85715 0.66272 0.0
O21 O 0.3653 0.79866 0.6516 0.0
O22 O 0.38255 0.91529 0.65207 0.0
C23 C 0.37424 0.95669 0.65451 0.0
O24 O 0.33259 0.97051 0.65239 0.0
O25 O 0.33275 0.86971 0.56108 0.0
Mg26 Mg 0.9174 0.65401 0.35104 0.0
C27 C 0.93505 0.75365 0.31532 0.0
O28 O 0.9788 0.74878 0.31238 0.0
C29 C 0.01418 0.62492 0.32579 0.0
O30 O 0.02479 0.66742 0.3253 0.0
C31 C 0.84521 0.62357 0.29138 0.0
O32 O 0.87724 0.6366 0.26395 0.0
O33 O 0.85286 0.62389 0.33293 0.0
O34 O 0.90956 0.72174 0.32765 0.0
O35 O 0.92851 0.6583 0.42207 0.0
C36 C 0.96282 0.68185 0.43233 0.0
O37 O 0.98425 0.70389 0.40102 0.0
O38 O 0.97326 0.61253 0.32977 0.0
Mg39 Mg 0.61445 0.12126 0.61848 0.0
C40 C 0.64464 0.05101 0.55563 0.0
O41 O 0.60595 0.06209 0.53833 0.0
C42 C 0.6053 0.15813 0.71081 0.0
O43 O 0.56232 0.15359 0.70161 0.0
C44 C 0.53902 0.05952 0.63885 0.0
O45 O 0.57416 0.03844 0.65402 0.0
O46 O 0.54487 0.0974 0.62082 0.0
O47 O 0.65747 0.0696 0.59148 0.0
O48 O 0.63029 0.18258 0.58325 0.0
C49 C 0.67193 0.19175 0.58837 0.0
O50 O 0.69744 0.1627 0.60825 0.0
O51 O 0.63442 0.14256 0.68401 0.0
Mg52 Mg 0.05741 0.68631 0.70111 0.0
C53 C 0.95432 0.66054 0.70683 0.0
O54 O 0.94363 0.7022 0.70014 0.0
C55 C 0.08629 0.77967 0.73291 0.0
O56 O 0.07861 0.76489 0.77322 0.0
C57 C 0.03009 0.69431 0.61147 0.0
O58 O 1.00725 0.7232 0.63518 0.0
O59 O 0.06039 0.67182 0.6305 0.0
O60 O 0.99481 0.65041 0.71506 0.0
O61 O 0.10969 0.65784 0.74217 0.0
C62 C 0.10147 0.65235 0.78339 0.0
O63 O 0.06105 0.66062 0.79911 0.0
O64 O 0.07134 0.75767 0.69989 0.0
Mg65 Mg 0.7199 0.92732 0.32897 0.0
C66 C 0.80306 0.88129 0.32624 0.0
O67 O 0.77392 0.85583 0.34744 0.0
C68 C 0.64387 0.98148 0.32689 0.0
O69 O 0.63272 0.94299 0.34453 0.0
C70 C 0.67209 0.88077 0.25492 0.0
O71 O 0.67514 0.9213 0.239 0.0
O72 O 0.68667 0.8731 0.29375 0.0
O73 O 0.79079 0.91943 0.31329 0.0
O74 O 0.70776 0.92783 0.40012 0.0
C75 C 0.73685 0.94343 0.42696 0.0
O76 O 0.77917 0.94656 0.41428 0.0
O77 O 0.68391 0.98733 0.31247 0.0
Mg78 Mg 0.86201 0.39826 0.62872 0.0
C79 C 0.89437 0.48948 0.65539 0.0
O80 O 0.9326 0.46822 0.6526 0.0
C81 C 0.79885 0.33054 0.59451 0.0
O82 O 0.83616 0.30834 0.60011 0.0
C83 C 0.94334 0.35759 0.57642 0.0
O84 O 0.94289 0.3263 0.60671 0.0
O85 O 0.91535 0.38922 0.57906 0.0
O86 O 0.85784 0.46906 0.646 0.0
O87 O 0.8653 0.36157 0.69103 0.0
C88 C 0.88548 0.37513 0.72581 0.0
O89 O 0.91497 0.40785 0.72286 0.0
O90 O 0.79924 0.3724 0.60113 0.0
Mg91 Mg 0.3917 0.10842 0.37192 0.0
C92 C 0.39609 0.13227 0.27936 0.0
O93 O 0.43247 0.14958 0.29749 0.0
C94 C 0.3544 0.01619 0.39782 0.0
O95 O 0.36047 0.00648 0.35562 0.0
C96 C 0.33774 0.17802 0.42168 0.0
O97 O 0.31641 0.14247 0.4364 0.0
O98 O 0.37247 0.1735 0.3972 0.0
O99 O 0.36947 0.10918 0.3034 0.0
O100 O 0.46421 0.09999 0.37003 0.0
C101 C 0.47808 0.06852 0.34526 0.0
O102 O 0.44866 0.04475 0.32258 0.0
O103 O 0.36334 0.05518 0.41215 0.0
Mg104 Mg 0.36648 0.29642 0.08054 0.0
C105 C 0.46217 0.28838 0.05033 0.0
O106 O 0.44081 0.26735 0.01825 0.0
C107 C 0.29121 0.33188 0.1377 0.0
O108 O 0.26915 0.32397 0.10073 0.0
C109 C 0.34513 0.31968 0.98161 0.0
O110 O 0.35378 0.27807 0.97144 0.0
O111 O 0.34487 0.3323 0.02201 0.0
O112 O 0.43969 0.3052 0.08221 0.0
O113 O 0.34791 0.22681 0.09136 0.0
C114 C 0.37816 0.19929 0.10203 0.0
O115 O 0.41828 0.20363 0.08406 0.0
O116 O 0.33364 0.3263 0.13823 0.0
Mg117 Mg 0.35789 0.57295 0.86704 0.0
C118 C 0.25741 0.60171 0.8831 0.0
O119 O 0.26675 0.60874 0.92518 0.0
C120 C 0.3837 0.59137 0.96369 0.0
O121 O 0.35081 0.56294 0.97206 0.0
C122 C 0.38101 0.64563 0.80908 0.0
O123 O 0.36514 0.66371 0.84571 0.0
O124 O 0.38606 0.60361 0.80748 0.0
O125 O 0.28731 0.58696 0.85679 0.0
O126 O 0.36553 0.50177 0.8775 0.0
C127 C 0.33376 0.47408 0.86988 0.0
O128 O 0.29806 0.48701 0.84824 0.0
O129 O 0.39096 0.60395 0.924 0.0
Mg130 Mg 0.62538 0.63989 0.11612 0.0
C131 C 0.535 0.64314 0.0719 0.0
O132 O 0.55546 0.67745 0.05348 0.0
C133 C 0.69549 0.62289 0.17841 0.0
O134 O 0.71392 0.64525 0.14551 0.0
C135 C 0.65088 0.59619 0.02791 0.0
O136 O 0.61194 0.61115 0.0148 0.0
O137 O 0.6672 0.61 0.06449 0.0
O138 O 0.55476 0.62259 0.10294 0.0
O139 O 0.63687 0.70987 0.12893 0.0
C140 C 0.60676 0.73185 0.1493 0.0
O141 O 0.56591 0.71493 0.15291 0.0
O142 O 0.65381 0.6126 0.17653 0.0
Mg143 Mg 0.70228 0.33367 0.91868 0.0
C144 C 0.7993 0.35162 0.89737 0.0
O145 O 0.79069 0.38993 0.91657 0.0
C146 C 0.65043 0.30557 0.00564 0.0
O147 O 0.68171 0.32557 0.02931 0.0
C148 C 0.66917 0.26603 0.85817 0.0
O149 O 0.6801 0.24459 0.89436 0.0
O150 O 0.674 0.30819 0.85733 0.0
O151 O 0.77291 0.31886 0.9052 0.0
O152 O 0.69117 0.40488 0.92934 0.0
C153 C 0.70634 0.42282 0.96472 0.0
O154 O 0.73087 0.39911 0.99167 0.0
O155 O 0.65684 0.29887 0.96441 0.0
C156 C 0.27732 0.27937 0.46846 0.0
C157 C 0.26366 0.30001 0.42863 0.0
C158 C 0.29996 0.24184 0.38469 0.0
C159 C 0.31528 0.22178 0.42431 0.0
N160 N 0.32607 0.22567 0.5035 0.0
N161 N 0.27327 0.30849 0.34956 0.0
C162 C 0.30644 0.24201 0.46618 0.0
C163 C 0.27929 0.28399 0.38705 0.0
N164 N 0.26117 0.29467 0.50824 0.0
N165 N 0.30127 0.21903 0.34525 0.0
H166 H 0.25832 0.33963 0.35027 0.0
H167 H 0.28749 0.30019 0.3189 0.0
H168 H 0.31335 0.18673 0.34216 0.0
H169 H 0.28602 0.23028 0.31641 0.0
H170 H 0.26539 0.27815 0.5382 0.0
H171 H 0.24176 0.32332 0.51075 0.0
H172 H 0.32418 0.24119 0.53448 0.0
H173 H 0.34741 0.19834 0.50268 0.0
C174 C 0.20205 0.83631 0.73178 0.0
C175 C 0.19699 0.86629 0.69615 0.0
C176 C 0.11601 0.84857 0.69488 0.0
C177 C 0.12313 0.81272 0.72445 0.0
N178 N 0.17675 0.76692 0.76324 0.0
N179 N 0.14927 0.89919 0.64103 0.0
C180 C 0.16702 0.80536 0.74143 0.0
C181 C 0.15383 0.87256 0.6773 0.0
N182 N 0.24063 0.83719 0.75625 0.0
N183 N 0.07311 0.85967 0.6837 0.0
H184 H 0.17598 0.91731 0.62722 0.0
H185 H 0.11971 0.90088 0.62273 0.0
H186 H 0.04488 0.84281 0.69623 0.0
H187 H 0.06544 0.88794 0.66554 0.0
H188 H 0.24452 0.81856 0.78504 0.0
H189 H 0.26656 0.86027 0.75053 0.0
H190 H 0.20934 0.75841 0.77223 0.0
H191 H 0.15372 0.74094 0.76759 0.0
C192 C 0.88351 0.86517 0.3411 0.0
C193 C 0.84628 0.86166 0.31223 0.0
C194 C 0.8818 0.79966 0.27288 0.0
C195 C 0.91365 0.7971 0.30753 0.0
N196 N 0.94796 0.82854 0.37315 0.0
N197 N 0.81076 0.82953 0.2478 0.0
C198 C 0.9163 0.83099 0.34056 0.0
C199 C 0.84623 0.83069 0.27652 0.0
N200 N 0.88658 0.90064 0.36956 0.0
N201 N 0.88551 0.77167 0.23711 0.0
H202 H 0.78547 0.85334 0.24863 0.0
H203 H 0.80553 0.8046 0.22416 0.0
H204 H 0.91171 0.74897 0.23409 0.0
H205 H 0.86533 0.77331 0.20906 0.0
H206 H 0.91435 0.90728 0.38955 0.0
H207 H 0.86262 0.92576 0.37008 0.0
H208 H 0.94842 0.84889 0.40126 0.0
H209 H 0.97319 0.80474 0.37291 0.0
C210 C 0.75449 0.27815 0.54664 0.0
C211 C 0.75658 0.30529 0.58534 0.0
C212 C 0.6876 0.26928 0.61363 0.0
C213 C 0.69135 0.23654 0.57979 0.0
N214 N 0.72523 0.21047 0.51201 0.0
N215 N 0.72544 0.32689 0.65659 0.0
C216 C 0.72341 0.24171 0.54514 0.0
C217 C 0.72249 0.30183 0.61859 0.0
N218 N 0.78249 0.28737 0.51158 0.0
N219 N 0.65134 0.26822 0.64178 0.0
H220 H 0.75015 0.35124 0.66172 0.0
H221 H 0.70506 0.32177 0.68442 0.0
H222 H 0.62572 0.24436 0.63894 0.0
H223 H 0.64441 0.29315 0.66493 0.0
H224 H 0.78071 0.27112 0.481 0.0
H225 H 0.80516 0.31422 0.51199 0.0
H226 H 0.75103 0.20879 0.48851 0.0
H227 H 0.70104 0.18512 0.50902 0.0
C228 C 0.37095 0.13495 0.15505 0.0
C229 C 0.37638 0.18131 0.14777 0.0
C230 C 0.38123 0.19424 0.22793 0.0
C231 C 0.3829 0.14778 0.23483 0.0
N232 N 0.38201 0.07303 0.20528 0.0
N233 N 0.39573 0.25418 0.17727 0.0
C234 C 0.37786 0.1177 0.19855 0.0
C235 C 0.38351 0.2108 0.18422 0.0
N236 N 0.35926 0.10763 0.12044 0.0
N237 N 0.3774 0.22279 0.2633 0.0
H238 H 0.39998 0.26758 0.14585 0.0
H239 H 0.40633 0.27564 0.20256 0.0
H240 H 0.37646 0.21206 0.29615 0.0
H241 H 0.37068 0.25655 0.25985 0.0
H242 H 0.35071 0.07415 0.12421 0.0
H243 H 0.35473 0.11946 0.08827 0.0
H244 H 0.38366 0.04972 0.17959 0.0
H245 H 0.38665 0.05941 0.23668 0.0
C246 C 0.18865 0.58046 0.83996 0.0
C247 C 0.21303 0.61329 0.86432 0.0
C248 C 0.15702 0.66869 0.84419 0.0
C249 C 0.13754 0.63783 0.8137 0.0
N250 N 0.13552 0.56435 0.78101 0.0
N251 N 0.2239 0.69064 0.88457 0.0
C252 C 0.15359 0.59366 0.81112 0.0
C253 C 0.19791 0.65789 0.8656 0.0
N254 N 0.19808 0.53651 0.84573 0.0
N255 N 0.13662 0.70832 0.85286 0.0
H256 H 0.25449 0.68462 0.90003 0.0
H257 H 0.21709 0.72441 0.8815 0.0
H258 H 0.10684 0.71773 0.83778 0.0
H259 H 0.14697 0.72997 0.87809 0.0
H260 H 0.17909 0.5106 0.83192 0.0
H261 H 0.22198 0.52594 0.86844 0.0
H262 H 0.14938 0.53342 0.77392 0.0
H263 H 0.10804 0.57197 0.76117 0.0
C264 C 0.64786 0.80513 0.1555 0.0
C265 C 0.62022 0.77191 0.17542 0.0
C266 C 0.62044 0.81468 0.24508 0.0
C267 C 0.6534 0.84408 0.22713 0.0
N268 N 0.70597 0.86078 0.16755 0.0
N269 N 0.59008 0.73998 0.24346 0.0
C270 C 0.66912 0.83772 0.18286 0.0
C271 C 0.60895 0.77526 0.22137 0.0
N272 N 0.65313 0.80622 0.11038 0.0
N273 N 0.59915 0.82476 0.28419 0.0
H274 H 0.58397 0.70903 0.22879 0.0
H275 H 0.58559 0.73977 0.27784 0.0
H276 H 0.60537 0.85414 0.30188 0.0
H277 H 0.57185 0.8063 0.29636 0.0
H278 H 0.6696 0.83224 0.09397 0.0
H279 H 0.63696 0.78369 0.08912 0.0
H280 H 0.72125 0.85398 0.13702 0.0
H281 H 0.72436 0.88312 0.18713 0.0
C282 C 0.79722 0.37354 0.81764 0.0
C283 C 0.82112 0.3536 0.85288 0.0
C284 C 0.88609 0.34266 0.80309 0.0
C285 C 0.86358 0.3665 0.76944 0.0
N286 N 0.80125 0.41249 0.74782 0.0
N287 N 0.88899 0.32178 0.8811 0.0
C288 C 0.82002 0.38389 0.77748 0.0
C289 C 0.86578 0.33868 0.84612 0.0
N290 N 0.75229 0.38206 0.82223 0.0
N291 N 0.92635 0.32316 0.79351 0.0
H292 H 0.87442 0.31735 0.91244 0.0
H293 H 0.92313 0.31449 0.87992 0.0
H294 H 0.94207 0.32607 0.76253 0.0
H295 H 0.94268 0.30176 0.81495 0.0
H296 H 0.73193 0.39113 0.79581 0.0
H297 H 0.73423 0.37633 0.85144 0.0
H298 H 0.77223 0.43048 0.75459 0.0
H299 H 0.81671 0.42191 0.7181 0.0
C300 C 0.41446 0.74471 0.74018 0.0
C301 C 0.37662 0.74732 0.71181 0.0
C302 C 0.34862 0.67509 0.73865 0.0
C303 C 0.38496 0.67391 0.76901 0.0
N304 N 0.45786 0.70039 0.79163 0.0
N305 N 0.31407 0.71084 0.67548 0.0
C306 C 0.41983 0.70641 0.7672 0.0
C307 C 0.34609 0.71081 0.70789 0.0
N308 N 0.44426 0.77971 0.74227 0.0
N309 N 0.31483 0.64386 0.74147 0.0
H310 H 0.31037 0.73705 0.65336 0.0
H311 H 0.29354 0.68351 0.66803 0.0
H312 H 0.31624 0.61647 0.76249 0.0
H313 H 0.2844 0.64601 0.72473 0.0
H314 H 0.46972 0.78265 0.76571 0.0
H315 H 0.44256 0.8069 0.72096 0.0
H316 H 0.48629 0.72089 0.78979 0.0
H317 H 0.46228 0.67229 0.81129 0.0
C318 C 0.75342 0.57805 0.21722 0.0
C319 C 0.72332 0.61425 0.21798 0.0
C320 C 0.76742 0.65116 0.27638 0.0
C321 C 0.7992 0.61627 0.27367 0.0
N322 N 0.81755 0.54189 0.25082 0.0
N323 N 0.69393 0.67862 0.25531 0.0
C324 C 0.79034 0.57799 0.24722 0.0
C325 C 0.72762 0.64839 0.25036 0.0
N326 N 0.74773 0.54499 0.18629 0.0
N327 N 0.77682 0.68832 0.30129 0.0
H328 H 0.66476 0.67719 0.23621 0.0
H329 H 0.69289 0.70241 0.28057 0.0
H330 H 0.80509 0.69123 0.3215 0.0
H331 H 0.75802 0.71728 0.3003 0.0
H332 H 0.77107 0.52013 0.18014 0.0
H333 H 0.71971 0.54338 0.16553 0.0
H334 H 0.8114 0.51151 0.23507 0.0
H335 H 0.8446 0.54131 0.27278 0.0
C336 C 0.60135 0.22832 0.75728 0.0
C337 C 0.62038 0.18575 0.74912 0.0
C338 C 0.67676 0.20125 0.80611 0.0
C339 C 0.65344 0.2403 0.81893 0.0
N340 N 0.58717 0.28563 0.81212 0.0
N341 N 0.67027 0.12793 0.7733 0.0
C342 C 0.6139 0.25243 0.79608 0.0
C343 C 0.6564 0.17107 0.77574 0.0
N344 N 0.57324 0.24709 0.72713 0.0
N345 N 0.7192 0.19376 0.8214 0.0
H346 H 0.65474 0.10405 0.75308 0.0
H347 H 0.69374 0.11479 0.79505 0.0
H348 H 0.73661 0.21644 0.84151 0.0
H349 H 0.739 0.1677 0.80981 0.0
H350 H 0.56234 0.27983 0.7299 0.0
H351 H 0.56503 0.23226 0.69683 0.0
H352 H 0.55568 0.29244 0.79887 0.0
H353 H 0.59406 0.30321 0.8413 0.0
C354 C 0.28363 0.37956 0.20656 0.0
C355 C 0.26646 0.34502 0.17895 0.0
C356 C 0.1993 0.33961 0.22704 0.0
C357 C 0.21885 0.37089 0.25694 0.0
N358 N 0.28714 0.40839 0.28136 0.0
N359 N 0.21372 0.2834 0.17105 0.0
C360 C 0.26327 0.38726 0.24859 0.0
C361 C 0.2259 0.32243 0.19146 0.0
N362 N 0.3181 0.40649 0.19221 0.0
N363 N 0.15505 0.3274 0.23134 0.0
H364 H 0.23359 0.26794 0.14696 0.0
H365 H 0.18666 0.26376 0.18182 0.0
H366 H 0.13402 0.34007 0.25609 0.0
H367 H 0.13823 0.30807 0.20767 0.0
H368 H 0.32875 0.43466 0.20982 0.0
H369 H 0.3325 0.40387 0.16063 0.0
H370 H 0.32099 0.41729 0.27772 0.0
H371 H 0.27517 0.41188 0.31383 0.0
C372 C 1.0038 0.3948 0.53044 0.0
C373 C 0.97653 0.35663 0.53903 0.0
C374 C 0.01312 0.31766 0.47658 0.0
C375 C 0.03683 0.35738 0.46546 0.0
N376 N 0.04611 0.43676 0.47564 0.0
N377 N 0.94898 0.28453 0.51474 0.0
C378 C 0.02973 0.39684 0.49066 0.0
C379 C 0.97953 0.31869 0.51067 0.0
N380 N 1.00644 0.42851 0.56108 0.0
N381 N 0.02356 0.27866 0.45556 0.0
H382 H 0.92308 0.28445 0.53829 0.0
H383 H 0.94664 0.25827 0.49207 0.0
H384 H 0.04783 0.27667 0.43043 0.0
H385 H 0.01097 0.24778 0.46561 0.0
H386 H 0.02917 0.45507 0.55842 0.0
H387 H 0.98948 0.42757 0.59151 0.0
H388 H 0.03799 0.46716 0.4903 0.0
H389 H 0.06374 0.44003 0.44575 0.0
C390 C 0.30174 0.96321 0.43681 0.0
C391 C 0.34597 0.98027 0.4304 0.0
C392 C 0.37293 0.93742 0.49392 0.0
C393 C 0.32753 0.92494 0.50383 0.0
N394 N 0.24902 0.92298 0.48451 0.0
N395 N 0.42467 0.98189 0.44883 0.0
C396 C 0.29209 0.93657 0.4748 0.0
C397 C 0.382 0.96623 0.45744 0.0
N398 N 0.26919 0.97267 0.40649 0.0
N399 N 0.4072 0.9228 0.52008 0.0
H400 H 0.43284 1.00049 0.42069 0.0
H401 H 0.45216 0.9776 0.46946 0.0
H402 H 0.40226 0.9049 0.54919 0.0
H403 H 0.4412 0.92686 0.51262 0.0
H404 H 0.23697 0.95876 0.40676 0.0
H405 H 0.27532 0.99268 0.37885 0.0
H406 H 0.2206 0.93401 0.46812 0.0
H407 H 0.24142 0.90096 0.51025 0.0
C408 C 1.00584 0.64681 0.54599 0.0
C409 C 0.01889 0.68891 0.56382 0.0
C410 C 0.98984 0.72578 0.49788 0.0
C411 C 0.98026 0.6837 0.47833 0.0
N412 N 0.9896 0.60385 0.47952 0.0
N413 N 0.03448 0.76684 0.55147 0.0
C414 C 0.99129 0.64401 0.50109 0.0
C415 C 0.01437 0.72789 0.53803 0.0
N416 N 1.00507 0.60985 0.57223 0.0
N417 N 0.97379 0.76375 0.47921 0.0
H418 H 0.05423 0.7692 0.57996 0.0
H419 H 0.03574 0.79529 0.53186 0.0
H420 H 0.95379 0.76354 0.45086 0.0
H421 H 0.97619 0.79489 0.49452 0.0
H422 H 0.99147 0.57938 0.56198 0.0
H423 H 0.01431 0.61031 0.60555 0.0
H424 H 1.00199 0.57469 0.49313 0.0
H425 H 0.98012 0.60029 0.4464 0.0
C426 C 0.70964 0.04106 0.5038 0.0
C427 C 0.675 0.0216 0.53003 0.0
C428 C 0.69102 0.94854 0.49707 0.0
C429 C 0.72034 0.96934 0.46586 0.0
N430 N 0.75058 0.03775 0.43448 0.0
N431 N 0.63086 0.95737 0.55136 0.0
C432 C 0.72861 0.01611 0.46829 0.0
C433 C 0.66533 0.97536 0.5268 0.0
N434 N 0.72358 0.08387 0.51185 0.0
N435 N 0.68826 0.90314 0.49852 0.0
H436 H 0.61296 0.97567 0.57503 0.0
H437 H 0.6185 0.92511 0.54674 0.0
H438 H 0.70714 0.88277 0.47747 0.0
H439 H 0.67061 0.88571 0.52298 0.0
H440 H 0.75202 0.09807 0.49691 0.0
H441 H 0.70932 0.10392 0.5364 0.0
H442 H 0.7526 0.0723 0.43225 0.0
H443 H 0.76252 0.02206 0.40591 0.0
C444 C 0.55185 0.04653 0.37918 0.0
C445 C 0.52658 0.05812 0.34114 0.0
C446 C 0.58693 0.03109 0.2922 0.0
C447 C 0.61093 0.0178 0.33016 0.0
N448 N 0.62451 0.02574 0.40835 0.0
N449 N 0.52556 0.07423 0.26275 0.0
C450 C 0.59613 0.03028 0.3732 0.0
C451 C 0.54606 0.05466 0.29798 0.0
N452 N 0.53261 0.04751 0.42058 0.0
N453 N 0.60183 0.01901 0.25088 0.0
H454 H 0.49602 0.09238 0.26619 0.0
H455 H 0.53991 0.07617 0.23115 0.0
H456 H 0.63266 0.00351 0.24569 0.0
H457 H 0.58295 0.02261 0.22213 0.0
H458 H 0.54775 0.03429 0.44859 0.0
H459 H 0.50003 0.05842 0.42679 0.0
H460 H 0.61748 0.03768 0.44019 0.0
H461 H 0.6572 0.01405 0.40423 0.0
C462 C 0.91391 0.59033 0.72841 0.0
C463 C 0.92287 0.62317 0.69574 0.0
C464 C 0.90026 0.57054 0.63682 0.0
C465 C 0.89492 0.53694 0.66929 0.0
N466 N 0.88373 0.51676 0.7457 0.0
N467 N 0.91269 0.64873 0.62047 0.0
C468 C 0.89731 0.54763 0.71513 0.0
C469 C 0.91163 0.61478 0.65048 0.0
N470 N 0.92307 0.59972 0.77195 0.0
N471 N 0.89666 0.55945 0.59282 0.0
H472 H 0.92119 0.68137 0.62879 0.0
H473 H 0.90148 0.64568 0.58791 0.0
H474 H 0.88654 0.52781 0.58206 0.0
H475 H 0.90527 0.58066 0.56685 0.0
H476 H 0.92271 0.57606 0.79705 0.0
H477 H 0.93247 0.63158 0.78275 0.0
H478 H 0.88133 0.52309 0.77966 0.0
H479 H 0.87097 0.48558 0.73646 0.0
C480 C 0.46593 0.0313 0.60604 0.0
C481 C 0.49343 0.039 0.6438 0.0
C482 C 0.44063 0.9953 0.68982 0.0
C483 C 0.41242 0.98902 0.65246 0.0
N484 N 0.39264 0.00994 0.57777 0.0
N485 N 0.50113 0.03835 0.72353 0.0
C486 C 0.42313 0.01019 0.61156 0.0
C487 C 0.47902 0.02394 0.68632 0.0
N488 N 0.4818 0.04122 0.56445 0.0
N489 N 0.43109 0.97342 0.72849 0.0
H490 H 0.52835 0.0606 0.72235 0.0
H491 H 0.48978 0.03198 0.75571 0.0
H492 H 0.40196 0.95414 0.73299 0.0
H493 H 0.45323 0.97229 0.75513 0.0
H494 H 0.46547 0.03147 0.5354 0.0
H495 H 0.51329 0.0557 0.55853 0.0
H496 H 0.39662 0.02891 0.54912 0.0
H497 H 0.36151 0.99376 0.57974 0.0
C498 C 0.05762 0.55995 0.29649 0.0
C499 C 0.04953 0.59105 0.33105 0.0
C500 C 0.0912 0.54505 0.38337 0.0
C501 C 0.0994 0.51381 0.34873 0.0
N502 N 0.10158 0.49753 0.27018 0.0
N503 N 0.0689 0.61964 0.40378 0.0
C504 C 0.08613 0.52325 0.30453 0.0
C505 C 0.07005 0.58587 0.37319 0.0
N506 N 0.03712 0.56491 0.25633 0.0
N507 N 0.10034 0.53458 0.42651 0.0
H508 H 0.05316 0.64976 0.3981 0.0
H509 H 0.08717 0.61946 0.4332 0.0
H510 H 0.11587 0.50529 0.43591 0.0
H511 H 0.08926 0.55339 0.45355 0.0
H512 H 0.03706 0.54053 0.23158 0.0
H513 H 0.0181 0.59276 0.24863 0.0
H514 H 0.09649 0.50498 0.23687 0.0
H515 H 0.12339 0.47108 0.27488 0.0
C516 C 0.37236 0.36273 0.91426 0.0
C517 C 0.3383 0.35364 0.9466 0.0
C518 C 0.30031 0.42271 0.9272 0.0
C519 C 0.33314 0.43088 0.89356 0.0
N520 N 0.39441 0.40417 0.84842 0.0
N521 N 0.2639 0.36834 0.97493 0.0
C522 C 0.36723 0.39934 0.88494 0.0
C523 C 0.30029 0.38152 0.95005 0.0
N524 N 0.4109 0.33838 0.9132 0.0
N525 N 0.27098 0.45532 0.93961 0.0
H526 H 0.26252 0.33789 0.99141 0.0
H527 H 0.2335 0.38527 0.97533 0.0
H528 H 0.27071 0.48675 0.9252 0.0
H529 H 0.24983 0.45278 0.96725 0.0
H530 H 0.439 0.34701 0.89409 0.0
H531 H 0.41655 0.31147 0.93395 0.0
H532 H 0.41683 0.37993 0.83769 0.0
H533 H 0.39151 0.43069 0.82645 0.0
C534 C 0.44878 0.56944 0.01114 0.0
C535 C 0.41762 0.60234 0.99826 0.0
C536 C 0.45667 0.65727 0.04544 0.0
C537 C 0.49177 0.62649 0.05254 0.0
N538 N 0.52306 0.55355 0.03862 0.0
N539 N 0.39192 0.67796 0.00162 0.0
C540 C 0.48796 0.58234 0.03525 0.0
C541 C 0.42145 0.64636 0.01518 0.0
N542 N 0.44154 0.52582 0.99963 0.0
N543 N 0.45653 0.69655 0.06863 0.0
H544 H 0.36436 0.67057 0.98142 0.0
H545 H 0.39604 0.7118 0.00834 0.0
H546 H 0.48115 0.70483 0.09195 0.0
H547 H 0.42998 0.71881 0.06816 0.0
H548 H 0.45966 0.49969 0.01295 0.0
H549 H 0.41527 0.51502 0.97934 0.0
H550 H 0.52488 0.52365 0.02106 0.0
H551 H 0.55222 0.56045 0.05631 0.0
C552 C 0.70218 0.50597 0.95409 0.0
C553 C 0.69101 0.46749 0.97924 0.0
C554 C 0.65616 0.51396 0.03692 0.0
C555 C 0.66544 0.55233 0.0109 0.0
N556 N 0.6909 0.58505 0.94224 0.0
N557 N 0.64858 0.43407 0.03933 0.0
C558 C 0.68641 0.54836 0.96859 0.0
C559 C 0.6658 0.47131 0.0193 0.0
N560 N 0.72937 0.50221 0.91745 0.0
N561 N 0.63793 0.518 0.07865 0.0
H562 H 0.65429 0.40217 0.02743 0.0
H563 H 0.62497 0.43472 0.06504 0.0
H564 H 0.62556 0.5476 0.09178 0.0
H565 H 0.63725 0.49219 0.10158 0.0
H566 H 0.74276 0.52935 0.90034 0.0
H567 H 0.7413 0.47175 0.90582 0.0
H568 H 0.7014 0.58375 0.9092 0.0
H569 H 0.68125 0.61674 0.95264 0.0
C570 C 0.54296 0.27411 0.06965 0.0
C571 C 0.51088 0.29812 0.04497 0.0
C572 C 0.57134 0.33332 0.00147 0.0
C573 C 0.60304 0.30485 0.02191 0.0
N574 N 0.61991 0.24777 0.07476 0.0
N575 N 0.49321 0.35131 0.98841 0.0
C576 C 0.58921 0.27557 0.05635 0.0
C577 C 0.5248 0.32817 0.01139 0.0
N578 N 0.52904 0.24997 0.10567 0.0
N579 N 0.58592 0.36633 0.97357 0.0
H580 H 0.45927 0.35174 0.99752 0.0
H581 H 0.50003 0.36868 0.95928 0.0
H582 H 0.61952 0.37111 0.96476 0.0
H583 H 0.56552 0.39153 0.96189 0.0
H584 H 0.55085 0.23474 0.1276 0.0
H585 H 0.49541 0.24798 0.11572 0.0
H586 H 0.61154 0.22226 0.09663 0.0
H587 H 0.65399 0.24857 0.06614 0.0
loop_
_geom_bond_atom_site_label_1
_geom_bond_atom_site_label_2
_geom_bond_distance
_geom_bond_site_symmetry_2
_ccdc_geom_bond_type
Mg0 O7 2.141 . S
Mg0 O8 2.048 . S
Mg0 O9 2.048 . S
Mg0 O12 2.141 . S
C1 O2 1.313 . S
C1 O8 1.195 . S
O2 C1 1.313 . S
C3 O4 1.245 . S
C3 O12 1.289 1_655 S
O4 C3 1.245 . S
C5 O6 1.245 . S
C5 O7 1.289 . S
O6 C5 1.245 . S
O7 Mg0 2.141 . S
O7 C5 1.289 . S
O8 Mg0 2.048 . S
O8 C1 1.195 . S
O9 Mg0 2.048 . S
O9 C10 1.195 1_455 S
C10 O9 1.195 1_655 S
C10 O11 1.313 . S
O11 C10 1.313 . S
O12 Mg0 2.141 . S
O12 C3 1.289 1_455 S
Mg13 O20 2.141 . S
Mg13 O21 2.048 . S
Mg13 O22 2.048 . S
Mg13 O25 2.141 . S
C14 O15 1.313 . S
C14 O21 1.195 . S
O15 C14 1.313 . S
C16 O17 1.245 . S
C16 O25 1.289 1_545 S
O17 C16 1.245 . S
C18 O19 1.245 . S
C18 O20 1.289 . S
O19 C18 1.245 . S
O20 Mg13 2.141 . S
O20 C18 1.289 . S
O21 Mg13 2.048 . S
O21 C14 1.195 . S
O22 Mg13 2.048 . S
O22 C23 1.195 1_565 S
C23 O22 1.195 1_545 S
C23 O24 1.313 . S
O24 C23 1.313 . S
O25 Mg13 2.141 . S
O25 C16 1.289 1_565 S
Mg26 O33 2.141 . S
Mg26 O34 2.048 . S
Mg26 O35 2.048 . S
Mg26 O38 2.141 . S
C27 O28 1.313 . S
C27 O34 1.195 . S
O28 C27 1.313 . S
C29 O30 1.245 . S
C29 O38 1.289 1_455 S
O30 C29 1.245 . S
C31 O32 1.245 . S
C31 O33 1.289 . S
O32 C31 1.245 . S
O33 Mg26 2.141 . S
O33 C31 1.289 . S
O34 Mg26 2.048 . S
O34 C27 1.195 . S
O35 Mg26 2.048 . S
O35 C36 1.195 . S
C36 O35 1.195 . S
C36 O37 1.313 1_655 S
O37 C36 1.313 1_455 S
O38 Mg26 2.141 . S
O38 C29 1.289 1_655 S
Mg39 O46 2.141 . S
Mg39 O47 2.048 . S
Mg39 O48 2.048 . S
Mg39 O51 2.141 . S
C40 O41 1.313 . S
C40 O47 1.195 1_565 S
O41 C40 1.313 . S
C42 O43 1.245 . S
C42 O51 1.289 . S
O43 C42 1.245 . S
C44 O45 1.245 . S
C44 O46 1.289 1_565 S
O45 C44 1.245 . S
O46 Mg39 2.141 . S
O46 C44 1.289 1_545 S
O47 Mg39 2.048 . S
O47 C40 1.195 1_545 S
O48 Mg39 2.048 . S
O48 C49 1.195 . S
C49 O48 1.195 . S
C49 O50 1.313 . S
O50 C49 1.313 . S
O51 Mg39 2.141 . S
O51 C42 1.289 . S
Mg52 O59 2.141 . S
Mg52 O60 2.048 . S
Mg52 O61 2.048 . S
Mg52 O64 2.141 . S
C53 O54 1.313 . S
C53 O60 1.195 1_655 S
O54 C53 1.313 . S
C55 O56 1.245 . S
C55 O64 1.289 . S
O56 C55 1.245 . S
C57 O58 1.245 . S
C57 O59 1.289 1_655 S
O58 C57 1.245 . S
O59 Mg52 2.141 . S
O59 C57 1.289 1_455 S
O60 Mg52 2.048 . S
O60 C53 1.195 1_455 S
O61 Mg52 2.048 . S
O61 C62 1.195 . S
C62 O61 1.195 . S
C62 O63 1.313 . S
O63 C62 1.313 . S
O64 Mg52 2.141 . S
O64 C55 1.289 . S
Mg65 O72 2.141 . S
Mg65 O73 2.048 . S
Mg65 O74 2.048 1_565 S
Mg65 O77 2.141 1_565 S
C66 O67 1.313 . S
C66 O73 1.195 . S
O67 C66 1.313 . S
C68 O69 1.257 . S
C68 O77 1.285 1_565 S
O69 C68 1.257 . S
C70 O71 1.245 . S
C70 O72 1.289 . S
O71 C70 1.245 . S
O72 Mg65 2.141 . S
O72 C70 1.289 . S
O73 Mg65 2.048 . S
O73 C66 1.195 . S
O74 Mg65 2.048 1_545 S
O74 C75 1.195 1_545 S
C75 O74 1.195 1_565 S
C75 O76 1.313 . S
O76 C75 1.313 . S
O77 Mg65 2.141 1_545 S
O77 C68 1.285 1_545 S
Mg78 O85 2.141 . S
Mg78 O86 2.048 . S
Mg78 O87 2.048 . S
Mg78 O90 2.141 . S
C79 O80 1.313 . S
C79 O86 1.195 1_455 S
O80 C79 1.313 . S
C81 O82 1.245 . S
C81 O90 1.289 . S
O82 C81 1.245 . S
C83 O84 1.245 . S
C83 O85 1.289 1_455 S
O84 C83 1.245 . S
O85 Mg78 2.141 . S
O85 C83 1.289 1_655 S
O86 Mg78 2.048 . S
O86 C79 1.195 1_655 S
O87 Mg78 2.048 . S
O87 C88 1.195 . S
C88 O87 1.195 . S
C88 O89 1.313 . S
O89 C88 1.313 . S
O90 Mg78 2.141 . S
O90 C81 1.289 . S
Mg91 O98 2.141 . S
Mg91 O99 2.048 . S
Mg91 O100 2.048 . S
Mg91 O103 2.141 . S
C92 O93 1.313 . S
C92 O99 1.195 . S
O93 C92 1.313 . S
C94 O95 1.245 . S
C94 O103 1.289 1_565 S
O95 C94 1.245 . S
C96 O97 1.245 . S
C96 O98 1.289 . S
O97 C96 1.245 . S
O98 Mg91 2.141 . S
O98 C96 1.289 . S
O99 Mg91 2.048 . S
O99 C92 1.195 . S
O100 Mg91 2.048 . S
O100 C101 1.195 . S
C101 O100 1.195 . S
C101 O102 1.313 1_545 S
O102 C101 1.313 1_565 S
O103 Mg91 2.141 . S
O103 C94 1.289 1_545 S
Mg104 O111 2.141 . S
Mg104 O112 2.048 . S
Mg104 O113 2.048 . S
Mg104 O116 2.141 . S
C105 O106 1.313 . S
C105 O112 1.195 1_556 S
O106 C105 1.313 . S
C107 O108 1.245 . S
C107 O116 1.289 . S
O108 C107 1.245 . S
C109 O110 1.245 . S
C109 O111 1.289 1_556 S
O110 C109 1.245 . S
O111 Mg104 2.141 . S
O111 C109 1.289 1_554 S
O112 Mg104 2.048 . S
O112 C105 1.195 1_554 S
O113 Mg104 2.048 . S
O113 C114 1.195 . S
C114 O113 1.195 . S
C114 O115 1.313 . S
O115 C114 1.313 . S
O116 Mg104 2.141 . S
O116 C107 1.289 . S
Mg117 O124 2.141 . S
Mg117 O125 2.048 . S
Mg117 O126 2.048 . S
Mg117 O129 2.141 . S
C118 O119 1.313 . S
C118 O125 1.195 . S
O119 C118 1.313 . S
C120 O121 1.245 . S
C120 O129 1.289 1_554 S
O121 C120 1.245 . S
C122 O123 1.245 . S
C122 O124 1.289 . S
O123 C122 1.245 . S
O124 Mg117 2.141 . S
O124 C122 1.289 . S
O125 Mg117 2.048 . S
O125 C118 1.195 . S
O126 Mg117 2.048 . S
O126 C127 1.217 . S
C127 O126 1.217 . S
C127 O128 1.297 1_556 S
O128 C127 1.297 1_554 S
O129 Mg117 2.141 . S
O129 C120 1.289 1_556 S
Mg130 O137 2.141 . S
Mg130 O138 2.048 . S
Mg130 O139 2.048 . S
Mg130 O142 2.141 . S
C131 O132 1.313 . S
C131 O138 1.195 1_556 S
O132 C131 1.313 . S
C133 O134 1.245 . S
C133 O142 1.289 . S
O134 C133 1.245 . S
C135 O136 1.245 . S
C135 O137 1.289 1_556 S
O136 C135 1.245 . S
O137 Mg130 2.141 . S
O137 C135 1.289 1_554 S
O138 Mg130 2.048 . S
O138 C131 1.195 1_554 S
O139 Mg130 2.048 . S
O139 C140 1.195 . S
C140 O139 1.195 . S
C140 O141 1.313 . S
O141 C140 1.313 . S
O142 Mg130 2.141 . S
O142 C133 1.289 . S
Mg143 O150 2.141 . S
Mg143 O151 2.048 . S
Mg143 O152 2.048 . S
Mg143 O155 2.141 . S
C144 O145 1.313 . S
C144 O151 1.195 . S
O145 C144 1.313 . S
C146 O147 1.245 . S
C146 O155 1.289 1_554 S
O147 C146 1.245 . S
C148 O149 1.245 . S
C148 O150 1.289 . S
O149 C148 1.245 . S
O150 Mg143 2.141 . S
O150 C148 1.289 . S
O151 Mg143 2.048 . S
O151 C144 1.195 . S
O152 Mg143 2.048 . S
O152 C153 1.174 1_556 S
C153 O152 1.174 1_554 S
C153 O154 1.329 . S
O154 C153 1.329 . S
O155 Mg143 2.141 . S
O155 C146 1.289 1_556 S
C156 C157 1.363 . S
C156 C162 1.379 . S
C156 N164 1.356 . S
C157 C156 1.363 . S
C157 C163 1.363 . S
C158 C159 1.363 . S
C158 C163 1.379 . S
C158 N165 1.356 . S
C159 C158 1.363 . S
C159 C162 1.363 . S
N160 C162 1.356 . S
N160 H172 0.984 . S
N160 H173 0.985 . S
N161 C163 1.356 . S
N161 H166 0.984 . S
N161 H167 0.985 . S
C162 C156 1.379 . S
C162 C159 1.363 . S
C162 N160 1.356 . S
C163 C157 1.363 . S
C163 C158 1.379 . S
C163 N161 1.356 . S
N164 C156 1.356 . S
N164 H170 0.984 . S
N164 H171 0.984 . S
N165 C158 1.356 . S
N165 H168 0.984 . S
N165 H169 0.985 . S
H166 N161 0.984 . S
H167 N161 0.985 . S
H168 N165 0.984 . S
H169 N165 0.985 . S
H170 N164 0.984 . S
H171 N164 0.984 . S
H172 N160 0.984 . S
H173 N160 0.985 . S
C174 C175 1.363 . S
C174 C180 1.379 . S
C174 N182 1.356 . S
C175 C174 1.363 . S
C175 C181 1.363 . S
C176 C177 1.363 . S
C176 C181 1.379 . S
C176 N183 1.356 . S
C177 C176 1.363 . S
C177 C180 1.363 . S
N178 C180 1.356 . S
N178 H190 0.984 . S
N178 H191 0.985 . S
N179 C181 1.356 . S
N179 H184 0.984 . S
N179 H185 0.985 . S
C180 C174 1.379 . S
C180 C177 1.363 . S
C180 N178 1.356 . S
C181 C175 1.363 . S
C181 C176 1.379 . S
C181 N179 1.356 . S
N182 C174 1.356 . S
N182 H188 0.984 . S
N182 H189 0.984 . S
N183 C176 1.356 . S
N183 H186 0.984 . S
N183 H187 0.985 . S
H184 N179 0.984 . S
H185 N179 0.985 . S
H186 N183 0.984 . S
H187 N183 0.985 . S
H188 N182 0.984 . S
H189 N182 0.984 . S
H190 N178 0.984 . S
H191 N178 0.985 . S
C192 C193 1.363 . S
C192 C198 1.379 . S
C192 N200 1.356 . S
C193 C192 1.363 . S
C193 C199 1.363 . S
C194 C195 1.363 . S
C194 C199 1.379 . S
C194 N201 1.356 . S
C195 C194 1.363 . S
C195 C198 1.363 . S
N196 C198 1.356 . S
N196 H208 0.984 . S
N196 H209 0.985 . S
N197 C199 1.356 . S
N197 H202 0.984 . S
N197 H203 0.985 . S
C198 C192 1.379 . S
C198 C195 1.363 . S
C198 N196 1.356 . S
C199 C193 1.363 . S
C199 C194 1.379 . S
C199 N197 1.356 . S
N200 C192 1.356 . S
N200 H206 0.984 . S
N200 H207 0.984 . S
N201 C194 1.356 . S
N201 H204 0.984 . S
N201 H205 0.985 . S
H202 N197 0.984 . S
H203 N197 0.985 . S
H204 N201 0.984 . S
H205 N201 0.985 . S
H206 N200 0.984 . S
H207 N200 0.984 . S
H208 N196 0.984 . S
H209 N196 0.985 . S
C210 C211 1.363 . S
C210 C216 1.379 . S
C210 N218 1.356 . S
C211 C210 1.363 . S
C211 C217 1.363 . S
C212 C213 1.363 . S
C212 C217 1.379 . S
C212 N219 1.356 . S
C213 C212 1.363 . S
C213 C216 1.363 . S
N214 C216 1.356 . S
N214 H226 0.984 . S
N214 H227 0.985 . S
N215 C217 1.356 . S
N215 H220 0.984 . S
N215 H221 0.985 . S
C216 C210 1.379 . S
C216 C213 1.363 . S
C216 N214 1.356 . S
C217 C211 1.363 . S
C217 C212 1.379 . S
C217 N215 1.356 . S
N218 C210 1.356 . S
N218 H224 0.984 . S
N218 H225 0.984 . S
N219 C212 1.356 . S
N219 H222 0.984 . S
N219 H223 0.985 . S
H220 N215 0.984 . S
H221 N215 0.985 . S
H222 N219 0.984 . S
H223 N219 0.985 . S
H224 N218 0.984 . S
H225 N218 0.984 . S
H226 N214 0.984 . S
H227 N214 0.985 . S
C228 C229 1.363 . S
C228 C234 1.379 . S
C228 N236 1.356 . S
C229 C228 1.363 . S
C229 C235 1.363 . S
C230 C231 1.363 . S
C230 C235 1.379 . S
C230 N237 1.356 . S
C231 C230 1.363 . S
C231 C234 1.363 . S
N232 C234 1.356 . S
N232 H244 0.984 . S
N232 H245 0.985 . S
N233 C235 1.356 . S
N233 H238 0.984 . S
N233 H239 0.985 . S
C234 C228 1.379 . S
C234 C231 1.363 . S
C234 N232 1.356 . S
C235 C229 1.363 . S
C235 C230 1.379 . S
C235 N233 1.356 . S
N236 C228 1.356 . S
N236 H242 0.984 . S
N236 H243 0.984 . S
N237 C230 1.356 . S
N237 H240 0.984 . S
N237 H241 0.985 . S
H238 N233 0.984 . S
H239 N233 0.985 . S
H240 N237 0.984 . S
H241 N237 0.985 . S
H242 N236 0.984 . S
H243 N236 0.984 . S
H244 N232 0.984 . S
H245 N232 0.985 . S
C246 C247 1.363 . S
C246 C252 1.379 . S
C246 N254 1.356 . S
C247 C246 1.363 . S
C247 C253 1.363 . S
C248 C249 1.363 . S
C248 C253 1.379 . S
C248 N255 1.356 . S
C249 C248 1.363 . S
C249 C252 1.363 . S
N250 C252 1.356 . S
N250 H262 0.984 . S
N250 H263 0.985 . S
N251 C253 1.356 . S
N251 H256 0.984 . S
N251 H257 0.985 . S
C252 C246 1.379 . S
C252 C249 1.363 . S
C252 N250 1.356 . S
C253 C247 1.363 . S
C253 C248 1.379 . S
C253 N251 1.356 . S
N254 C246 1.356 . S
N254 H260 0.984 . S
N254 H261 0.984 . S
N255 C248 1.356 . S
N255 H258 0.984 . S
N255 H259 0.985 . S
H256 N251 0.984 . S
H257 N251 0.985 . S
H258 N255 0.984 . S
H259 N255 0.985 . S
H260 N254 0.984 . S
H261 N254 0.984 . S
H262 N250 0.984 . S
H263 N250 0.985 . S
C264 C265 1.363 . S
C264 C270 1.379 . S
C264 N272 1.356 . S
C265 C264 1.363 . S
C265 C271 1.363 . S
C266 C267 1.363 . S
C266 C271 1.379 . S
C266 N273 1.356 . S
C267 C266 1.363 . S
C267 C270 1.363 . S
N268 C270 1.356 . S
N268 H280 0.984 . S
N268 H281 0.985 . S
N269 C271 1.356 . S
N269 H274 0.984 . S
N269 H275 0.985 . S
C270 C264 1.379 . S
C270 C267 1.363 . S
C270 N268 1.356 . S
C271 C265 1.363 . S
C271 C266 1.379 . S
C271 N269 1.356 . S
N272 C264 1.356 . S
N272 H278 0.984 . S
N272 H279 0.984 . S
N273 C266 1.356 . S
N273 H276 0.984 . S
N273 H277 0.985 . S
H274 N269 0.984 . S
H275 N269 0.985 . S
H276 N273 0.984 . S
H277 N273 0.985 . S
H278 N272 0.984 . S
H279 N272 0.984 . S
H280 N268 0.984 . S
H281 N268 0.985 . S
C282 C283 1.363 . S
C282 C288 1.379 . S
C282 N290 1.356 . S
C283 C282 1.363 . S
C283 C289 1.363 . S
C284 C285 1.363 . S
C284 C289 1.379 . S
C284 N291 1.356 . S
C285 C284 1.363 . S
C285 C288 1.363 . S
N286 C288 1.356 . S
N286 H298 0.984 . S
N286 H299 0.985 . S
N287 C289 1.356 . S
N287 H292 0.984 . S
N287 H293 0.985 . S
C288 C282 1.379 . S
C288 C285 1.363 . S
C288 N286 1.356 . S
C289 C283 1.363 . S
C289 C284 1.379 . S
C289 N287 1.356 . S
N290 C282 1.356 . S
N290 H296 0.984 . S
N290 H297 0.984 . S
N291 C284 1.356 . S
N291 H294 0.984 . S
N291 H295 0.985 . S
H292 N287 0.984 . S
H293 N287 0.985 . S
H294 N291 0.984 . S
H295 N291 0.985 . S
H296 N290 0.984 . S
H297 N290 0.984 . S
H298 N286 0.984 . S
H299 N286 0.985 . S
C300 C301 1.363 . S
C300 C306 1.379 . S
C300 N308 1.356 . S
C301 C300 1.363 . S
C301 C307 1.363 . S
C302 C303 1.363 . S
C302 C307 1.379 . S
C302 N309 1.356 . S
C303 C302 1.363 . S
C303 C306 1.363 . S
N304 C306 1.356 . S
N304 H316 0.984 . S
N304 H317 0.985 . S
N305 C307 1.356 . S
N305 H310 0.984 . S
N305 H311 0.985 . S
C306 C300 1.379 . S
C306 C303 1.363 . S
C306 N304 1.356 . S
C307 C301 1.363 . S
C307 C302 1.379 . S
C307 N305 1.356 . S
N308 C300 1.356 . S
N308 H314 0.984 . S
N308 H315 0.984 . S
N309 C302 1.356 . S
N309 H312 0.984 . S
N309 H313 0.985 . S
H310 N305 0.984 . S
H311 N305 0.985 . S
H312 N309 0.984 . S
H313 N309 0.985 . S
H314 N308 0.984 . S
H315 N308 0.984 . S
H316 N304 0.984 . S
H317 N304 0.985 . S
C318 C319 1.363 . S
C318 C324 1.379 . S
C318 N326 1.356 . S
C319 C318 1.363 . S
C319 C325 1.363 . S
C320 C321 1.363 . S
C320 C325 1.379 . S
C320 N327 1.356 . S
C321 C320 1.363 . S
C321 C324 1.363 . S
N322 C324 1.356 . S
N322 H334 0.984 . S
N322 H335 0.985 . S
N323 C325 1.356 . S
N323 H328 0.984 . S
N323 H329 0.985 . S
C324 C318 1.379 . S
C324 C321 1.363 . S
C324 N322 1.356 . S
C325 C319 1.363 . S
C325 C320 1.379 . S
C325 N323 1.356 . S
N326 C318 1.356 . S
N326 H332 0.984 . S
N326 H333 0.984 . S
N327 C320 1.356 . S
N327 H330 0.984 . S
N327 H331 0.985 . S
H328 N323 0.984 . S
H329 N323 0.985 . S
H330 N327 0.984 . S
H331 N327 0.985 . S
H332 N326 0.984 . S
H333 N326 0.984 . S
H334 N322 0.984 . S
H335 N322 0.985 . S
C336 C337 1.363 . S
C336 C342 1.379 . S
C336 N344 1.356 . S
C337 C336 1.363 . S
C337 C343 1.363 . S
C338 C339 1.363 . S
C338 C343 1.379 . S
C338 N345 1.356 . S
C339 C338 1.363 . S
C339 C342 1.363 . S
N340 C342 1.356 . S
N340 H352 0.984 . S
N340 H353 0.985 . S
N341 C343 1.356 . S
N341 H346 0.984 . S
N341 H347 0.985 . S
C342 C336 1.379 . S
C342 C339 1.363 . S
C342 N340 1.356 . S
C343 C337 1.363 . S
C343 C338 1.379 . S
C343 N341 1.356 . S
N344 C336 1.356 . S
N344 H350 0.984 . S
N344 H351 0.984 . S
N345 C338 1.356 . S
N345 H348 0.984 . S
N345 H349 0.985 . S
H346 N341 0.984 . S
H347 N341 0.985 . S
H348 N345 0.984 . S
H349 N345 0.985 . S
H350 N344 0.984 . S
H351 N344 0.984 . S
H352 N340 0.984 . S
H353 N340 0.985 . S
C354 C355 1.363 . S
C354 C360 1.379 . S
C354 N362 1.356 . S
C355 C354 1.363 . S
C355 C361 1.363 . S
C356 C357 1.363 . S
C356 C361 1.379 . S
C356 N363 1.356 . S
C357 C356 1.363 . S
C357 C360 1.363 . S
N358 C360 1.356 . S
N358 H370 0.984 . S
N358 H371 0.985 . S
N359 C361 1.356 . S
N359 H364 0.984 . S
N359 H365 0.985 . S
C360 C354 1.379 . S
C360 C357 1.363 . S
C360 N358 1.356 . S
C361 C355 1.363 . S
C361 C356 1.379 . S
C361 N359 1.356 . S
N362 C354 1.356 . S
N362 H368 0.984 . S
N362 H369 0.984 . S
N363 C356 1.356 . S
N363 H366 0.984 . S
N363 H367 0.985 . S
H364 N359 0.984 . S
H365 N359 0.985 . S
H366 N363 0.984 . S
H367 N363 0.985 . S
H368 N362 0.984 . S
H369 N362 0.984 . S
H370 N358 0.984 . S
H371 N358 0.985 . S
C372 C373 1.363 1_655 S
C372 C378 1.379 . S
C372 N380 1.356 . S
C373 C372 1.363 1_455 S
C373 C379 1.363 . S
C374 C375 1.363 1_455 S
C374 C379 1.379 . S
C374 N381 1.356 . S
C375 C374 1.363 1_655 S
C375 C378 1.363 . S
N376 C378 1.356 . S
N376 H388 0.984 . S
N376 H389 0.985 . S
N377 C379 1.356 . S
N377 H382 0.984 . S
N377 H383 0.985 . S
C378 C372 1.379 . S
C378 C375 1.363 . S
C378 N376 1.356 . S
C379 C373 1.363 . S
C379 C374 1.379 . S
C379 N377 1.356 . S
N380 C372 1.356 . S
N380 H386 0.984 . S
N380 H387 0.984 . S
N381 C374 1.356 . S
N381 H384 0.984 . S
N381 H385 0.985 . S
H382 N377 0.984 . S
H383 N377 0.985 . S
H384 N381 0.984 . S
H385 N381 0.985 . S
H386 N380 0.984 . S
H387 N380 0.984 . S
H388 N376 0.984 . S
H389 N376 0.985 . S
C390 C391 1.363 . S
C390 C396 1.379 . S
C390 N398 1.356 . S
C391 C390 1.363 . S
C391 C397 1.363 1_565 S
C392 C393 1.363 . S
C392 C397 1.379 . S
C392 N399 1.356 . S
C393 C392 1.363 . S
C393 C396 1.363 1_545 S
N394 C396 1.356 . S
N394 H406 0.984 . S
N394 H407 0.985 . S
N395 C397 1.356 . S
N395 H400 0.984 . S
N395 H401 0.985 . S
C396 C390 1.379 . S
C396 C393 1.363 1_565 S
C396 N394 1.356 . S
C397 C391 1.363 1_545 S
C397 C392 1.379 . S
C397 N395 1.356 . S
N398 C390 1.356 . S
N398 H404 0.984 . S
N398 H405 0.984 . S
N399 C392 1.356 . S
N399 H402 0.984 . S
N399 H403 0.985 . S
H400 N395 0.984 . S
H401 N395 0.985 . S
H402 N399 0.984 . S
H403 N399 0.985 . S
H404 N398 0.984 . S
H405 N398 0.984 . S
H406 N394 0.984 . S
H407 N394 0.985 . S
C408 C409 1.363 1_455 S
C408 C414 1.379 . S
C408 N416 1.356 . S
C409 C408 1.363 1_655 S
C409 C415 1.363 . S
C410 C411 1.363 . S
C410 C415 1.379 . S
C410 N417 1.356 . S
C411 C410 1.363 . S
C411 C414 1.363 1_655 S
N412 C414 1.356 . S
N412 H424 0.984 . S
N412 H425 0.985 . S
N413 C415 1.356 . S
N413 H418 0.984 . S
N413 H419 0.985 . S
C414 C408 1.379 . S
C414 C411 1.363 1_455 S
C414 N412 1.356 . S
C415 C409 1.363 . S
C415 C410 1.379 . S
C415 N413 1.356 . S
N416 C408 1.356 . S
N416 H422 0.984 . S
N416 H423 0.984 . S
N417 C410 1.356 . S
N417 H420 0.984 . S
N417 H421 0.985 . S
H418 N413 0.984 . S
H419 N413 0.985 . S
H420 N417 0.984 . S
H421 N417 0.985 . S
H422 N416 0.984 . S
H423 N416 0.984 . S
H424 N412 0.984 . S
H425 N412 0.985 . S
C426 C427 1.363 . S
C426 C432 1.379 . S
C426 N434 1.356 . S
C427 C426 1.363 . S
C427 C433 1.363 1_565 S
C428 C429 1.363 . S
C428 C433 1.379 . S
C428 N435 1.356 . S
C429 C428 1.363 . S
C429 C432 1.363 1_545 S
N430 C432 1.356 . S
N430 H442 0.984 . S
N430 H443 0.985 . S
N431 C433 1.356 . S
N431 H436 0.984 . S
N431 H437 0.985 . S
C432 C426 1.379 . S
C432 C429 1.363 1_565 S
C432 N430 1.356 . S
C433 C427 1.363 1_545 S
C433 C428 1.379 . S
C433 N431 1.356 . S
N434 C426 1.356 . S
N434 H440 0.984 . S
N434 H441 0.984 . S
N435 C428 1.356 . S
N435 H438 0.984 . S
N435 H439 0.985 . S
H436 N431 0.984 . S
H437 N431 0.985 . S
H438 N435 0.984 . S
H439 N435 0.985 . S
H440 N434 0.984 . S
H441 N434 0.984 . S
H442 N430 0.984 . S
H443 N430 0.985 . S
C444 C445 1.357 1_545 S
C444 C450 1.379 . S
C444 N452 1.356 . S
C445 C444 1.357 1_565 S
C445 C451 1.368 . S
C446 C447 1.363 1_565 S
C446 C451 1.379 . S
C446 N453 1.356 . S
C447 C446 1.363 1_545 S
C447 C450 1.363 . S
N448 C450 1.356 . S
N448 H460 0.984 . S
N448 H461 0.985 . S
N449 C451 1.356 . S
N449 H454 0.984 . S
N449 H455 0.985 . S
C450 C444 1.379 . S
C450 C447 1.363 . S
C450 N448 1.356 . S
C451 C445 1.368 . S
C451 C446 1.379 . S
C451 N449 1.356 . S
N452 C444 1.356 . S
N452 H458 0.984 . S
N452 H459 0.984 . S
N453 C446 1.356 . S
N453 H456 0.984 . S
N453 H457 0.985 . S
H454 N449 0.984 . S
H455 N449 0.985 . S
H456 N453 0.984 . S
H457 N453 0.985 . S
H458 N452 0.984 . S
H459 N452 0.984 . S
H460 N448 0.984 . S
H461 N448 0.985 . S
C462 C463 1.363 1_455 S
C462 C468 1.379 . S
C462 N470 1.356 . S
C463 C462 1.363 1_655 S
C463 C469 1.363 . S
C464 C465 1.363 1_655 S
C464 C469 1.379 . S
C464 N471 1.356 . S
C465 C464 1.363 1_455 S
C465 C468 1.363 . S
N466 C468 1.356 . S
N466 H478 0.984 . S
N466 H479 0.985 . S
N467 C469 1.356 . S
N467 H472 0.984 . S
N467 H473 0.985 . S
C468 C462 1.379 . S
C468 C465 1.363 . S
C468 N466 1.356 . S
C469 C463 1.363 . S
C469 C464 1.379 . S
C469 N467 1.356 . S
N470 C462 1.356 . S
N470 H476 0.984 . S
N470 H477 0.984 . S
N471 C464 1.356 . S
N471 H474 0.984 . S
N471 H475 0.985 . S
H472 N467 0.984 . S
H473 N467 0.985 . S
H474 N471 0.984 . S
H475 N471 0.985 . S
H476 N470 0.984 . S
H477 N470 0.984 . S
H478 N466 0.984 . S
H479 N466 0.985 . S
C480 C481 1.363 . S
C480 C486 1.379 1_565 S
C480 N488 1.356 . S
C481 C480 1.363 . S
C481 C487 1.363 . S
C482 C483 1.363 1_565 S
C482 C487 1.379 . S
C482 N489 1.356 . S
C483 C482 1.363 1_545 S
C483 C486 1.363 . S
N484 C486 1.356 . S
N484 H496 0.984 . S
N484 H497 0.985 . S
N485 C487 1.356 . S
N485 H490 0.984 . S
N485 H491 0.985 . S
C486 C480 1.379 1_545 S
C486 C483 1.363 . S
C486 N484 1.356 . S
C487 C481 1.363 . S
C487 C482 1.379 . S
C487 N485 1.356 . S
N488 C480 1.356 . S
N488 H494 0.982 1_565 S
N488 H495 0.987 . S
N489 C482 1.356 . S
N489 H492 0.984 . S
N489 H493 0.985 . S
H490 N485 0.984 . S
H491 N485 0.985 . S
H492 N489 0.984 . S
H493 N489 0.985 . S
H494 N488 0.982 1_545 S
H495 N488 0.987 . S
H496 N484 0.984 . S
H497 N484 0.985 . S
C498 C499 1.363 1_655 S
C498 C504 1.379 . S
C498 N506 1.356 . S
C499 C498 1.363 1_455 S
C499 C505 1.363 . S
C500 C501 1.363 1_455 S
C500 C505 1.379 . S
C500 N507 1.356 . S
C501 C500 1.363 1_655 S
C501 C504 1.363 . S
N502 C504 1.356 . S
N502 H514 0.984 . S
N502 H515 0.985 . S
N503 C505 1.356 . S
N503 H508 0.984 . S
N503 H509 0.985 . S
C504 C498 1.379 . S
C504 C501 1.363 . S
C504 N502 1.356 . S
C505 C499 1.363 . S
C505 C500 1.379 . S
C505 N503 1.356 . S
N506 C498 1.356 . S
N506 H512 0.984 . S
N506 H513 0.984 . S
N507 C500 1.356 . S
N507 H510 0.984 . S
N507 H511 0.985 . S
H508 N503 0.984 . S
H509 N503 0.985 . S
H510 N507 0.984 . S
H511 N507 0.985 . S
H512 N506 0.984 . S
H513 N506 0.984 . S
H514 N502 0.984 . S
H515 N502 0.985 . S
C516 C517 1.363 . S
C516 C522 1.379 . S
C516 N524 1.356 . S
C517 C516 1.363 . S
C517 C523 1.363 1_556 S
C518 C519 1.363 . S
C518 C523 1.379 . S
C518 N525 1.356 . S
C519 C518 1.363 . S
C519 C522 1.363 1_554 S
N520 C522 1.356 . S
N520 H532 0.984 . S
N520 H533 0.985 . S
N521 C523 1.356 . S
N521 H526 0.984 . S
N521 H527 0.985 . S
C522 C516 1.379 . S
C522 C519 1.363 1_556 S
C522 N520 1.356 . S
C523 C517 1.363 1_554 S
C523 C518 1.379 . S
C523 N521 1.356 . S
N524 C516 1.356 . S
N524 H530 0.984 . S
N524 H531 0.984 . S
N525 C518 1.356 . S
N525 H528 0.984 . S
N525 H529 0.985 . S
H526 N521 0.984 . S
H527 N521 0.985 . S
H528 N525 0.984 . S
H529 N525 0.985 . S
H530 N524 0.984 . S
H531 N524 0.984 . S
H532 N520 0.984 . S
H533 N520 0.985 . S
C534 C535 1.363 . S
C534 C540 1.379 . S
C534 N542 1.356 . S
C535 C534 1.363 . S
C535 C541 1.363 1_554 S
C536 C537 1.363 . S
C536 C541 1.379 . S
C536 N543 1.356 . S
C537 C536 1.363 . S
C537 C540 1.363 1_556 S
N538 C540 1.356 . S
N538 H550 0.984 . S
N538 H551 0.985 . S
N539 C541 1.356 . S
N539 H544 0.984 . S
N539 H545 0.985 . S
C540 C534 1.379 . S
C540 C537 1.363 1_554 S
C540 N538 1.356 . S
C541 C535 1.363 1_556 S
C541 C536 1.379 . S
C541 N539 1.356 . S
N542 C534 1.356 . S
N542 H548 0.984 . S
N542 H549 0.984 . S
N543 C536 1.356 . S
N543 H546 0.984 . S
N543 H547 0.985 . S
H544 N539 0.984 . S
H545 N539 0.985 . S
H546 N543 0.984 . S
H547 N543 0.985 . S
H548 N542 0.984 . S
H549 N542 0.984 . S
H550 N538 0.984 . S
H551 N538 0.985 . S
C552 C553 1.363 1_556 S
C552 C558 1.379 . S
C552 N560 1.356 . S
C553 C552 1.363 1_554 S
C553 C559 1.363 . S
C554 C555 1.363 1_554 S
C554 C559 1.379 . S
C554 N561 1.356 . S
C555 C554 1.363 1_556 S
C555 C558 1.363 . S
N556 C558 1.356 . S
N556 H568 0.984 . S
N556 H569 0.985 . S
N557 C559 1.356 . S
N557 H562 0.984 . S
N557 H563 0.985 . S
C558 C552 1.379 . S
C558 C555 1.363 . S
C558 N556 1.356 . S
C559 C553 1.363 . S
C559 C554 1.379 . S
C559 N557 1.356 . S
N560 C552 1.356 . S
N560 H566 0.984 . S
N560 H567 0.984 . S
N561 C554 1.356 . S
N561 H564 0.984 . S
N561 H565 0.985 . S
H562 N557 0.984 . S
H563 N557 0.985 . S
H564 N561 0.984 . S
H565 N561 0.985 . S
H566 N560 0.984 . S
H567 N560 0.984 . S
H568 N556 0.984 . S
H569 N556 0.985 . S
C570 C571 1.363 1_554 S
C570 C576 1.379 . S
C570 N578 1.356 . S
C571 C570 1.363 1_556 S
C571 C577 1.363 . S
C572 C573 1.363 1_556 S
C572 C577 1.379 . S
C572 N579 1.356 . S
C573 C572 1.363 1_554 S
C573 C576 1.363 . S
N574 C576 1.356 . S
N574 H586 0.984 . S
N574 H587 0.985 . S
N575 C577 1.356 . S
N575 H580 0.984 . S
N575 H581 0.985 . S
C576 C570 1.379 . S
C576 C573 1.363 . S
C576 N574 1.356 . S
C577 C571 1.363 . S
C577 C572 1.379 . S
C577 N575 1.356 . S
N578 C570 1.356 . S
N578 H584 0.984 . S
N578 H585 0.984 . S
N579 C572 1.356 . S
N579 H582 0.984 . S
N579 H583 0.985 . S
H580 N575 0.984 . S
H581 N575 0.985 . S
H582 N579 0.984 . S
H583 N579 0.985 . S
H584 N578 0.984 . S
H585 N578 0.984 . S
H586 N574 0.984 . S
H587 N574 0.985 . S
C157 C1 1.544 . S
C159 C96 1.548 . S
C175 C18 1.531 . S
C177 C55 1.533 . S
C193 C66 1.566 . S
C195 C27 1.604 . S
C211 C81 1.594 . S
C213 C49 1.590 . S
C229 C114 1.613 . S
C231 C92 1.615 . S
C247 C118 1.640 . S
C249 C62 1.635 . S
C265 C140 1.599 . S
C267 C70 1.550 . S
C283 C144 1.618 . S
C285 C88 1.619 . S
C301 C14 1.536 . S
C303 C122 1.538 . S
C319 C133 1.500 . S
C321 C31 1.503 . S
C337 C42 1.523 . S
C339 C148 1.524 . S
C355 C107 1.520 . S
C357 C5 1.519 . S
C373 C83 1.895 . S
C375 C10 1.884 . S
C391 C94 1.858 . S
C393 C16 1.858 . S
C409 C57 1.893 . S
C411 C36 1.889 . S
C427 C40 1.920 . S
C429 C75 1.831 1_545 S
C445 C101 1.875 1_565 S
C447 C68 1.765 1_545 S
C463 C53 1.922 . S
C465 C79 1.923 . S
C481 C44 1.905 . S
C483 C23 1.896 . S
C499 C29 1.857 . S
C501 C3 1.856 . S
C517 C109 1.883 . S
C519 C127 1.873 1_554 S
C535 C120 1.897 . S
C537 C131 1.882 . S
C553 C153 1.898 . S
C555 C135 1.907 . S
C571 C105 1.885 . S
C573 C146 1.895 . S
