# Generated by pormake.
# Topology noo, (5)-cn, num edge types: 1
# Building blocks:
#     Node 0, Type 0, BuildingBlock: XOMCOT_clean_sbu_1, # of connection points: 5
#     Node 1, Type 0, BuildingBlock: XOMCOT_clean_sbu_1, # of connection points: 5
#     Node 2, Type 0, BuildingBlock: XOMCOT_clean_sbu_1, # of connection points: 5
#     Node 3, Type 0, BuildingBlock: XOMCOT_clean_sbu_1, # of connection points: 5
#     Node 4, Type 0, BuildingBlock: XOMCOT_clean_sbu_1, # of connection points: 5
#     Node 5, Type 0, BuildingBlock: XOMCOT_clean_sbu_1, # of connection points: 5
#     Node 6, Type 0, BuildingBlock: XOMCOT_clean_sbu_1, # of connection points: 5
#     Node 7, Type 0, BuildingBlock: XOMCOT_clean_sbu_1, # of connection points: 5
#     Edge 8, Type (0, 0), BuildingBlock: EYOCIG_clean_linker_4, # of connection points: 2
#     Edge 9, Type (0, 0), BuildingBlock: EYOCIG_clean_linker_4, # of connection points: 2
#     Edge 10, Type (0, 0), BuildingBlock: EYOCIG_clean_linker_4, # of connection points: 2
#     Edge 11, Type (0, 0), BuildingBlock: EYOCIG_clean_linker_4, # of connection points: 2
#     Edge 12, Type (0, 0), BuildingBlock: EYOCIG_clean_linker_4, # of connection points: 2
#     Edge 13, Type (0, 0), BuildingBlock: EYOCIG_clean_linker_4, # of connection points: 2
#     Edge 14, Type (0, 0), BuildingBlock: EYOCIG_clean_linker_4, # of connection points: 2
#     Edge 15, Type (0, 0), BuildingBlock: EYOCIG_clean_linker_4, # of connection points: 2
#     Edge 16, Type (0, 0), BuildingBlock: EYOCIG_clean_linker_4, # of connection points: 2
#     Edge 17, Type (0, 0), BuildingBlock: EYOCIG_clean_linker_4, # of connection points: 2
#     Edge 18, Type (0, 0), BuildingBlock: EYOCIG_clean_linker_4, # of connection points: 2
#     Edge 19, Type (0, 0), BuildingBlock: EYOCIG_clean_linker_4, # of connection points: 2
#     Edge 20, Type (0, 0), BuildingBlock: EYOCIG_clean_linker_4, # of connection points: 2
#     Edge 21, Type (0, 0), BuildingBlock: EYOCIG_clean_linker_4, # of connection points: 2
#     Edge 22, Type (0, 0), BuildingBlock: EYOCIG_clean_linker_4, # of connection points: 2
#     Edge 23, Type (0, 0), BuildingBlock: EYOCIG_clean_linker_4, # of connection points: 2
#     Edge 24, Type (0, 0), BuildingBlock: EYOCIG_clean_linker_4, # of connection points: 2
#     Edge 25, Type (0, 0), BuildingBlock: EYOCIG_clean_linker_4, # of connection points: 2
#     Edge 26, Type (0, 0), BuildingBlock: EYOCIG_clean_linker_4, # of connection points: 2
#     Edge 27, Type (0, 0), BuildingBlock: EYOCIG_clean_linker_4, # of connection points: 2
# Relax obj value: 0.064
# Max RMSD: 0.098
# Mean RMSD: 0.098
data_MOF--net-noo--node1-XOMCOT_clean_sbu_1--edge1-EYOCIG_clean_linker_4
_symmetry_space_group_name_H-M    P1
_symmetry_Int_Tables_number       1
_symmetry_cell_setting            triclinic
loop_
_symmetry_equiv_pos_as_xyz
'x, y, z'
_cell_length_a     33.93429
_cell_length_b     33.923453
_cell_length_c     20.979472
_cell_angle_alpha  90.005822
_cell_angle_beta   89.997552
_cell_angle_gamma 89.993562
loop_
_atom_site_label
_atom_site_type_symbol
_atom_site_fract_x
_atom_site_fract_y
_atom_site_fract_z
_atom_type_partial_charge
C0 C 0.43189 0.2862 0.97701 0.0
C1 C 0.41209 0.32123 0.98515 0.0
N2 N 0.38422 0.31551 1.02957 0.0
N3 N 0.4164 0.25877 1.01632 0.0
C4 C 0.38698 0.27753 0.04749 0.0
H5 H 0.45701 0.28136 0.94627 0.0
Co6 Co 0.43712 0.20835 1.02645 0.0
C7 C 0.41202 0.20077 0.16679 0.0
O8 O 0.44666 0.21034 0.18951 0.0
N9 N 0.45782 0.15706 0.03578 0.0
C10 C 0.48713 0.10396 0.07644 0.0
C11 C 0.4734 0.1411 0.08926 0.0
C12 C 0.46287 0.12887 0.99072 0.0
N13 N 0.48051 0.09657 1.0147 0.0
O14 O 0.39464 0.18765 0.97503 0.0
H15 H 0.47651 0.15581 0.13432 0.0
H16 H 0.45463 0.13207 0.94123 0.0
O17 O 0.40573 0.19983 0.1064 0.0
C18 C 0.40317 0.19221 0.91606 0.0
O19 O 0.4371 0.20818 0.90083 0.0
N20 N 0.48168 0.23044 0.06779 0.0
C21 C 0.5504 0.27333 0.08994 0.0
C22 C 0.51516 0.28427 0.11959 0.0
C23 C 0.48081 0.26269 0.10708 0.0
C24 C 0.51633 0.21952 0.03961 0.0
C25 C 0.55109 0.24013 0.05093 0.0
H26 H 0.45317 0.27343 0.12588 0.0
H27 H 0.51677 0.19652 1.00403 0.0
H28 H 0.36895 0.26421 0.08417 0.0
H29 H 0.41837 0.34899 0.96179 0.0
H30 H 0.50165 0.08419 0.10948 0.0
H31 H 0.5136 0.31061 0.14868 0.0
H32 H 0.57772 0.2317 1.02583 0.0
C33 C 0.73398 0.43205 0.97699 0.0
C34 C 0.69897 0.41226 0.98509 0.0
N35 N 0.70467 0.38438 1.02953 0.0
N36 N 0.76139 0.41657 1.01633 0.0
C37 C 0.74263 0.38715 0.04749 0.0
H38 H 0.73884 0.45718 0.94624 0.0
Co39 Co 0.81179 0.4373 1.02652 0.0
C40 C 0.81934 0.41217 0.16684 0.0
O41 O 0.80976 0.44681 0.18959 0.0
N42 N 0.86306 0.45802 0.03592 0.0
C43 C 0.9161 0.48735 0.07665 0.0
C44 C 0.87898 0.47361 0.08942 0.0
C45 C 0.89126 0.46308 0.99089 0.0
N46 N 0.92353 0.48073 1.01493 0.0
O47 O 0.83251 0.39482 0.97509 0.0
H48 H 0.86425 0.47671 0.13446 0.0
H49 H 0.88809 0.45483 0.9414 0.0
O50 O 0.8203 0.40588 0.10645 0.0
C51 C 0.82798 0.40336 0.91613 0.0
O52 O 0.81202 0.43731 0.90091 0.0
N53 N 0.78968 0.48186 0.06787 0.0
C54 C 0.74675 0.55058 0.09003 0.0
C55 C 0.73584 0.51532 0.11965 0.0
C56 C 0.75742 0.48097 0.10713 0.0
C57 C 0.80058 0.51653 0.03973 0.0
C58 C 0.77996 0.55129 0.05105 0.0
H59 H 0.7467 0.45332 0.12591 0.0
H60 H 0.82359 0.51698 1.00417 0.0
H61 H 0.75593 0.36912 0.0842 0.0
H62 H 0.67122 0.41855 0.9617 0.0
H63 H 0.93585 0.50188 0.10973 0.0
H64 H 0.70949 0.51374 0.14871 0.0
H65 H 0.78838 0.57794 1.02598 0.0
C66 C 0.58796 0.73413 0.97704 0.0
C67 C 0.60775 0.6991 0.98517 0.0
N68 N 0.63562 0.70482 1.02959 0.0
N69 N 0.60344 0.76156 1.01634 0.0
C70 C 0.63286 0.74281 0.04751 0.0
H71 H 0.56284 0.73897 0.94629 0.0
Co72 Co 0.58273 0.81199 1.02648 0.0
C73 C 0.60782 0.81957 0.16681 0.0
O74 O 0.57318 0.81001 0.18954 0.0
N75 N 0.56202 0.86328 0.03582 0.0
C76 C 0.53272 0.91638 0.07647 0.0
C77 C 0.54645 0.87925 0.0893 0.0
C78 C 0.55696 0.89146 0.99074 0.0
N79 N 0.53933 0.92376 1.01473 0.0
O80 O 0.6252 0.83268 0.97505 0.0
H81 H 0.54336 0.86455 0.13437 0.0
H82 H 0.56519 0.88824 0.94125 0.0
O83 O 0.61412 0.82051 0.10642 0.0
C84 C 0.61668 0.82812 0.91609 0.0
O85 O 0.58275 0.81214 0.90085 0.0
N86 N 0.53816 0.7899 0.06782 0.0
C87 C 0.46944 0.74701 0.08997 0.0
C88 C 0.50469 0.73608 0.11961 0.0
C89 C 0.53904 0.75765 0.1071 0.0
C90 C 0.50351 0.80082 0.03965 0.0
C91 C 0.46875 0.78022 0.05097 0.0
H92 H 0.56667 0.74692 0.1259 0.0
H93 H 0.50307 0.82382 1.00408 0.0
H94 H 0.65089 0.75613 0.08419 0.0
H95 H 0.60147 0.67134 0.96181 0.0
H96 H 0.51821 0.93616 0.10952 0.0
H97 H 0.50624 0.70974 0.1487 0.0
H98 H 0.44212 0.78865 1.02588 0.0
C99 C 0.28586 0.58829 0.97699 0.0
C100 C 0.32088 0.60809 0.9851 0.0
N101 N 0.31518 0.63596 1.02955 0.0
N102 N 0.25845 0.60378 1.01634 0.0
C103 C 0.27721 0.6332 0.04751 0.0
H104 H 0.28101 0.56317 0.94624 0.0
Co105 Co 0.20805 0.58305 1.02653 0.0
C106 C 0.2005 0.60817 0.16686 0.0
O107 O 0.21008 0.57353 0.18959 0.0
N108 N 0.15678 0.56232 0.03592 0.0
C109 C 0.10374 0.53299 0.07665 0.0
C110 C 0.14086 0.54673 0.08942 0.0
C111 C 0.12858 0.55726 0.9909 0.0
N112 N 0.09631 0.53961 1.01493 0.0
O113 O 0.18733 0.62552 0.97511 0.0
H114 H 0.15559 0.54363 0.13446 0.0
H115 H 0.13176 0.56551 0.94141 0.0
O116 O 0.19955 0.61446 0.10647 0.0
C117 C 0.19187 0.61698 0.91615 0.0
O118 O 0.20783 0.58303 0.90091 0.0
N119 N 0.23017 0.53849 0.06787 0.0
C120 C 0.27309 0.46976 0.09002 0.0
C121 C 0.284 0.50503 0.11964 0.0
C122 C 0.26242 0.53938 0.10713 0.0
C123 C 0.21926 0.50381 0.03972 0.0
C124 C 0.23988 0.46905 0.05104 0.0
H125 H 0.27314 0.56703 0.12591 0.0
H126 H 0.19626 0.50336 1.00416 0.0
H127 H 0.26391 0.65122 0.08422 0.0
H128 H 0.34862 0.6018 0.96171 0.0
H129 H 0.084 0.51846 0.10972 0.0
H130 H 0.31035 0.5066 0.1487 0.0
H131 H 0.23146 0.4424 1.02596 0.0
C132 C 0.93192 0.23414 0.59019 0.0
C133 C 0.91213 0.19911 0.58208 0.0
N134 N 0.88424 0.20482 0.53768 0.0
N135 N 0.91641 0.26157 0.55089 0.0
C136 C 0.88699 0.24281 0.51975 0.0
H137 H 0.95704 0.239 0.62091 0.0
Co138 Co 0.9371 0.312 0.54072 0.0
C139 C 0.91198 0.31954 0.4004 0.0
O140 O 0.94662 0.30997 0.37766 0.0
N141 N 0.95779 0.36329 0.53136 0.0
C142 C 0.98705 0.41639 0.49067 0.0
C143 C 0.97333 0.37926 0.47786 0.0
C144 C 0.96287 0.39148 0.57643 0.0
N145 N 0.98048 0.42378 0.55242 0.0
O146 O 0.89463 0.33269 0.59216 0.0
H147 H 0.9764 0.36456 0.43278 0.0
H148 H 0.95466 0.38826 0.62593 0.0
O149 O 0.9057 0.3205 0.4608 0.0
C150 C 0.90317 0.32815 0.65113 0.0
O151 O 0.93711 0.31218 0.66634 0.0
N152 N 0.98167 0.28991 0.49936 0.0
C153 C 0.0504 0.24703 0.47718 0.0
C154 C 0.01515 0.23608 0.44757 0.0
C155 C 0.9808 0.25764 0.4601 0.0
C156 C 0.01632 0.30085 0.52749 0.0
C157 C 0.05109 0.28025 0.51616 0.0
H158 H 0.95316 0.2469 0.44134 0.0
H159 H 0.01677 0.32386 0.56306 0.0
H160 H 0.86894 0.25612 0.48308 0.0
H161 H 0.91842 0.17136 0.60545 0.0
H162 H 1.00155 0.43617 0.4576 0.0
H163 H 0.01359 0.20972 0.41851 0.0
H164 H 0.07772 0.28869 0.54122 0.0
C165 C 0.78586 0.93204 0.59026 0.0
C166 C 0.82087 0.91224 0.58213 0.0
N167 N 0.81517 0.88438 0.53768 0.0
N168 N 0.75844 0.91657 0.55092 0.0
C169 C 0.7772 0.88715 0.51973 0.0
H170 H 0.781 0.95716 0.62102 0.0
Co171 Co 0.70805 0.93732 0.54075 0.0
C172 C 0.70047 0.91221 0.40041 0.0
O173 O 0.71005 0.94685 0.37769 0.0
N174 N 0.65678 0.95806 0.53138 0.0
C175 C 0.60374 0.98742 0.49069 0.0
C176 C 0.64087 0.97368 0.4779 0.0
C177 C 0.62858 0.9631 0.57641 0.0
N178 N 0.59631 0.98077 0.55241 0.0
O179 O 0.68733 0.89484 0.59216 0.0
H180 H 0.6556 0.9768 0.43287 0.0
H181 H 0.63175 0.95482 0.62589 0.0
O182 O 0.69953 0.90591 0.4608 0.0
C183 C 0.69187 0.90337 0.65113 0.0
O184 O 0.70784 0.93731 0.66638 0.0
N185 N 0.73016 0.98187 0.49942 0.0
C186 C 0.7731 0.05059 0.4773 0.0
C187 C 0.784 0.01532 0.44764 0.0
C188 C 0.76241 0.98098 0.46014 0.0
C189 C 0.71928 0.01654 0.5276 0.0
C190 C 0.7399 0.0513 0.5163 0.0
H191 H 0.77312 0.95333 0.44133 0.0
H192 H 0.69628 0.017 0.56318 0.0
H193 H 0.7639 0.86913 0.48301 0.0
H194 H 0.84862 0.91852 0.60552 0.0
H195 H 0.584 1.00197 0.45764 0.0
H196 H 0.81034 0.01375 0.41856 0.0
H197 H 0.73149 0.07794 0.5414 0.0
C198 C 0.08795 0.78621 0.59028 0.0
C199 C 0.10774 0.82124 0.58215 0.0
N200 N 0.13562 0.81553 0.53774 0.0
N201 N 0.10345 0.75878 0.55096 0.0
C202 C 0.13286 0.77754 0.5198 0.0
H203 H 0.06283 0.78136 0.62101 0.0
Co204 Co 0.08274 0.70836 0.54079 0.0
C205 C 0.10786 0.70081 0.40047 0.0
O206 O 0.07323 0.71037 0.37773 0.0
N207 N 0.06205 0.65706 0.53143 0.0
C208 C 0.03277 0.60397 0.49072 0.0
C209 C 0.0465 0.64111 0.47792 0.0
C210 C 0.05699 0.62887 0.57648 0.0
N211 N 0.03937 0.59657 0.55246 0.0
O212 O 0.12522 0.68766 0.59222 0.0
H213 H 0.04341 0.65582 0.43286 0.0
H214 H 0.06521 0.63208 0.62598 0.0
O215 O 0.11415 0.69985 0.46086 0.0
C216 C 0.11668 0.69221 0.65118 0.0
O217 O 0.08274 0.70817 0.66641 0.0
N218 N 0.03818 0.73045 0.49945 0.0
C219 C 0.96945 0.77333 0.47727 0.0
C220 C 1.0047 0.78427 0.44766 0.0
C221 C 0.03906 0.76271 0.46018 0.0
C222 C 1.00353 0.71952 0.52759 0.0
C223 C 0.96876 0.74012 0.51626 0.0
H224 H 0.06669 0.77345 0.44141 0.0
H225 H 1.00309 0.69652 0.56316 0.0
H226 H 0.1509 0.76423 0.48312 0.0
H227 H 0.10145 0.849 0.60553 0.0
H228 H 0.01827 0.5842 0.45766 0.0
H229 H 1.00626 0.81062 0.41858 0.0
H230 H 0.94213 0.73168 0.54133 0.0
C231 C 0.23397 0.08831 0.5902 0.0
C232 C 0.19896 0.10812 0.58206 0.0
N233 N 0.20467 0.13598 0.53762 0.0
N234 N 0.26139 0.10378 0.55086 0.0
C235 C 0.24264 0.1332 0.51967 0.0
H236 H 0.23882 0.06319 0.62096 0.0
Co237 Co 0.31179 0.08303 0.5407 0.0
C238 C 0.31937 0.10813 0.40037 0.0
O239 O 0.3098 0.07349 0.37764 0.0
N240 N 0.36305 0.06229 0.53134 0.0
C241 C 0.4161 0.03293 0.49066 0.0
C242 C 0.37898 0.04667 0.47786 0.0
C243 C 0.39125 0.05724 0.57638 0.0
N244 N 0.42352 0.03958 0.55238 0.0
O245 O 0.3325 0.12551 0.59212 0.0
H246 H 0.36426 0.04356 0.43282 0.0
H247 H 0.38806 0.06552 0.62586 0.0
O248 O 0.32031 0.11443 0.46076 0.0
C249 C 0.32796 0.11699 0.65109 0.0
O250 O 0.31198 0.08305 0.66632 0.0
N251 N 0.28968 0.03847 0.49937 0.0
C252 C 0.24674 0.96976 0.47726 0.0
C253 C 0.23584 1.00502 0.44759 0.0
C254 C 0.25743 0.03936 0.46009 0.0
C255 C 0.30056 1.00381 0.52755 0.0
C256 C 0.27994 0.96905 0.51625 0.0
H257 H 0.24673 0.06701 0.44128 0.0
H258 H 0.32356 1.00336 0.56312 0.0
H259 H 0.25594 0.15121 0.48296 0.0
H260 H 0.17121 0.10184 0.60545 0.0
H261 H 0.43585 0.01838 0.4576 0.0
H262 H 0.2095 1.00659 0.41851 0.0
H263 H 0.28834 0.94241 0.54136 0.0
C264 C 0.51719 0.99071 0.96722 0.0
C265 C 0.5287 0.95868 0.98357 0.0
C266 C 0.50263 0.02961 0.96722 0.0
C267 C 0.49113 0.06164 0.98355 0.0
C268 C 0.99048 0.50288 0.96752 0.0
C269 C 0.95846 0.49137 0.98382 0.0
C270 C 0.02937 0.51746 0.96752 0.0
C271 C 0.06139 0.52897 0.98382 0.0
C272 C 1.00264 0.49073 0.5999 0.0
C273 C 0.99113 0.4587 0.58357 0.0
C274 C 0.01722 0.52962 0.59991 0.0
C275 C 0.02873 0.56165 0.58359 0.0
C276 C 0.52935 1.00288 0.59984 0.0
C277 C 0.56138 0.99139 0.58352 0.0
C278 C 0.49046 0.01745 0.59983 0.0
C279 C 0.45844 0.02895 0.5835 0.0
C280 C 0.317 0.40551 0.08804 0.0
C281 C 0.29846 0.43576 0.09136 0.0
C282 C 0.33929 0.37153 0.07361 0.0
C283 C 0.35938 0.3446 0.05487 0.0
C284 C 0.61465 0.31722 0.08797 0.0
C285 C 0.5844 0.2987 0.09129 0.0
C286 C 0.64864 0.33948 0.07355 0.0
C287 C 0.67558 0.35956 0.05482 0.0
C288 C 0.68055 0.64881 0.07363 0.0
C289 C 0.66046 0.67574 0.05489 0.0
C290 C 0.70284 0.61483 0.08806 0.0
C291 C 0.72137 0.58458 0.09138 0.0
C292 C 0.3712 0.68086 0.07358 0.0
C293 C 0.34426 0.66079 0.05484 0.0
C294 C 0.40519 0.70313 0.088 0.0
C295 C 0.43544 0.72165 0.09132 0.0
C296 C 0.81702 0.11482 0.47928 0.0
C297 C 0.79848 0.08458 0.47596 0.0
C298 C 0.83931 0.14881 0.4937 0.0
C299 C 0.8594 0.17574 0.51241 0.0
C300 C 0.90519 0.8172 0.47921 0.0
C301 C 0.93544 0.79869 0.4759 0.0
C302 C 0.87119 0.83947 0.49362 0.0
C303 C 0.84425 0.85955 0.51236 0.0
C304 C 0.20282 0.90552 0.47927 0.0
C305 C 0.22136 0.93576 0.47593 0.0
C306 C 0.18053 0.87154 0.49371 0.0
C307 C 0.16045 0.84462 0.51245 0.0
C308 C 0.11466 0.20315 0.47913 0.0
C309 C 0.08441 0.22167 0.47582 0.0
C310 C 0.14866 0.18088 0.49355 0.0
C311 C 0.17559 0.16081 0.5123 0.0
C312 C 0.36397 0.17378 0.25623 0.0
C313 C 0.38334 0.1856 0.21153 0.0
C314 C 0.34637 0.15618 0.31093 0.0
C315 C 0.33455 0.13681 0.35562 0.0
C316 C 0.84632 0.3641 0.25627 0.0
C317 C 0.8345 0.38348 0.21157 0.0
C318 C 0.86392 0.34651 0.31097 0.0
C319 C 0.88329 0.3347 0.35567 0.0
C320 C 0.67347 0.86415 0.31096 0.0
C321 C 0.6853 0.88352 0.35567 0.0
C322 C 0.65587 0.84656 0.25626 0.0
C323 C 0.6365 0.83474 0.21156 0.0
C324 C 0.15592 0.67383 0.31102 0.0
C325 C 0.13655 0.68565 0.35572 0.0
C326 C 0.17352 0.65624 0.25631 0.0
C327 C 0.18534 0.63686 0.2116 0.0
C328 C 0.65581 0.85185 0.81442 0.0
C329 C 0.64122 0.84245 0.8649 0.0
C330 C 0.66816 0.86421 0.75279 0.0
C331 C 0.67755 0.87882 0.70231 0.0
C332 C 0.15581 0.66849 0.75285 0.0
C333 C 0.14122 0.67789 0.70237 0.0
C334 C 0.16817 0.65613 0.81448 0.0
C335 C 0.17755 0.64153 0.86496 0.0
C336 C 0.35167 0.15614 0.75276 0.0
C337 C 0.34228 0.14154 0.70228 0.0
C338 C 0.36403 0.1685 0.81439 0.0
C339 C 0.37862 0.17789 0.86487 0.0
C340 C 0.86403 0.35185 0.75281 0.0
C341 C 0.87863 0.34246 0.70232 0.0
C342 C 0.85168 0.36421 0.81445 0.0
C343 C 0.84229 0.37881 0.86493 0.0
loop_
_geom_bond_atom_site_label_1
_geom_bond_atom_site_label_2
_geom_bond_distance
_geom_bond_site_symmetry_2
_ccdc_geom_bond_type
C0 C1 1.351 . S
C0 N3 1.368 . S
C0 H5 0.931 . S
C1 C0 1.351 . S
C1 N2 1.377 . S
C1 H29 0.930 . S
N2 C1 1.377 . S
N2 C4 1.338 1_556 S
N3 C0 1.368 . S
N3 C4 1.321 1_556 S
N3 Co6 2.135 . S
C4 N2 1.338 1_554 S
C4 N3 1.321 1_554 S
C4 H28 0.930 . S
H5 C0 0.931 . S
Co6 N3 2.135 . S
Co6 N9 2.121 1_556 S
Co6 O14 2.055 . S
Co6 O17 2.039 1_556 S
Co6 N20 2.140 1_556 S
C7 O8 1.227 . S
C7 O17 1.265 . S
O8 C7 1.227 . S
N9 Co6 2.121 1_554 S
N9 C11 1.375 . S
N9 C12 1.313 1_554 S
C10 C11 1.338 . S
C10 N13 1.377 1_554 S
C10 H30 0.930 . S
C11 N9 1.375 . S
C11 C10 1.338 . S
C11 H15 0.931 . S
C12 N9 1.313 1_556 S
C12 N13 1.344 . S
C12 H16 0.930 . S
N13 C10 1.377 1_556 S
N13 C12 1.344 . S
O14 Co6 2.055 . S
O14 C18 1.253 . S
H15 C11 0.931 . S
H16 C12 0.930 . S
O17 Co6 2.039 1_554 S
O17 C7 1.265 . S
C18 O14 1.253 . S
C18 O19 1.227 . S
O19 C18 1.227 . S
N20 Co6 2.140 1_554 S
N20 C23 1.346 . S
N20 C24 1.345 1_554 S
C21 C22 1.387 . S
C21 C25 1.391 1_554 S
C22 C21 1.387 . S
C22 C23 1.369 . S
C22 H31 0.929 . S
C23 N20 1.346 . S
C23 C22 1.369 . S
C23 H26 0.928 . S
C24 N20 1.345 1_556 S
C24 C25 1.371 . S
C24 H27 0.931 . S
C25 C21 1.391 1_556 S
C25 C24 1.371 . S
C25 H32 0.930 . S
H26 C23 0.928 . S
H27 C24 0.931 . S
H28 C4 0.930 . S
H29 C1 0.930 . S
H30 C10 0.930 . S
H31 C22 0.929 . S
H32 C25 0.930 . S
C33 C34 1.351 . S
C33 N36 1.368 . S
C33 H38 0.931 . S
C34 C33 1.351 . S
C34 N35 1.377 . S
C34 H62 0.930 . S
N35 C34 1.377 . S
N35 C37 1.338 1_556 S
N36 C33 1.368 . S
N36 C37 1.321 1_556 S
N36 Co39 2.135 . S
C37 N35 1.338 1_554 S
C37 N36 1.321 1_554 S
C37 H61 0.930 . S
H38 C33 0.931 . S
Co39 N36 2.135 . S
Co39 N42 2.121 1_556 S
Co39 O47 2.055 . S
Co39 O50 2.039 1_556 S
Co39 N53 2.140 1_556 S
C40 O41 1.227 . S
C40 O50 1.265 . S
O41 C40 1.227 . S
N42 Co39 2.121 1_554 S
N42 C44 1.375 . S
N42 C45 1.313 1_554 S
C43 C44 1.338 . S
C43 N46 1.377 1_554 S
C43 H63 0.930 . S
C44 N42 1.375 . S
C44 C43 1.338 . S
C44 H48 0.931 . S
C45 N42 1.313 1_556 S
C45 N46 1.344 . S
C45 H49 0.930 . S
N46 C43 1.377 1_556 S
N46 C45 1.344 . S
O47 Co39 2.055 . S
O47 C51 1.253 . S
H48 C44 0.931 . S
H49 C45 0.930 . S
O50 Co39 2.039 1_554 S
O50 C40 1.265 . S
C51 O47 1.253 . S
C51 O52 1.227 . S
O52 C51 1.227 . S
N53 Co39 2.140 1_554 S
N53 C56 1.346 . S
N53 C57 1.345 1_554 S
C54 C55 1.387 . S
C54 C58 1.391 1_554 S
C55 C54 1.387 . S
C55 C56 1.369 . S
C55 H64 0.929 . S
C56 N53 1.346 . S
C56 C55 1.369 . S
C56 H59 0.928 . S
C57 N53 1.345 1_556 S
C57 C58 1.371 . S
C57 H60 0.931 . S
C58 C54 1.391 1_556 S
C58 C57 1.371 . S
C58 H65 0.930 . S
H59 C56 0.928 . S
H60 C57 0.931 . S
H61 C37 0.930 . S
H62 C34 0.930 . S
H63 C43 0.930 . S
H64 C55 0.929 . S
H65 C58 0.930 . S
C66 C67 1.351 . S
C66 N69 1.368 . S
C66 H71 0.931 . S
C67 C66 1.351 . S
C67 N68 1.377 . S
C67 H95 0.930 . S
N68 C67 1.377 . S
N68 C70 1.338 1_556 S
N69 C66 1.368 . S
N69 C70 1.321 1_556 S
N69 Co72 2.135 . S
C70 N68 1.338 1_554 S
C70 N69 1.321 1_554 S
C70 H94 0.930 . S
H71 C66 0.931 . S
Co72 N69 2.135 . S
Co72 N75 2.121 1_556 S
Co72 O80 2.055 . S
Co72 O83 2.039 1_556 S
Co72 N86 2.140 1_556 S
C73 O74 1.227 . S
C73 O83 1.265 . S
O74 C73 1.227 . S
N75 Co72 2.121 1_554 S
N75 C77 1.375 . S
N75 C78 1.313 1_554 S
C76 C77 1.338 . S
C76 N79 1.377 1_554 S
C76 H96 0.930 . S
C77 N75 1.375 . S
C77 C76 1.338 . S
C77 H81 0.931 . S
C78 N75 1.313 1_556 S
C78 N79 1.344 . S
C78 H82 0.930 . S
N79 C76 1.377 1_556 S
N79 C78 1.344 . S
O80 Co72 2.055 . S
O80 C84 1.253 . S
H81 C77 0.931 . S
H82 C78 0.930 . S
O83 Co72 2.039 1_554 S
O83 C73 1.265 . S
C84 O80 1.253 . S
C84 O85 1.227 . S
O85 C84 1.227 . S
N86 Co72 2.140 1_554 S
N86 C89 1.346 . S
N86 C90 1.345 1_554 S
C87 C88 1.387 . S
C87 C91 1.391 1_554 S
C88 C87 1.387 . S
C88 C89 1.369 . S
C88 H97 0.929 . S
C89 N86 1.346 . S
C89 C88 1.369 . S
C89 H92 0.928 . S
C90 N86 1.345 1_556 S
C90 C91 1.371 . S
C90 H93 0.931 . S
C91 C87 1.391 1_556 S
C91 C90 1.371 . S
C91 H98 0.930 . S
H92 C89 0.928 . S
H93 C90 0.931 . S
H94 C70 0.930 . S
H95 C67 0.930 . S
H96 C76 0.930 . S
H97 C88 0.929 . S
H98 C91 0.930 . S
C99 C100 1.351 . S
C99 N102 1.368 . S
C99 H104 0.931 . S
C100 C99 1.351 . S
C100 N101 1.377 . S
C100 H128 0.930 . S
N101 C100 1.377 . S
N101 C103 1.338 1_556 S
N102 C99 1.368 . S
N102 C103 1.321 1_556 S
N102 Co105 2.135 . S
C103 N101 1.338 1_554 S
C103 N102 1.321 1_554 S
C103 H127 0.930 . S
H104 C99 0.931 . S
Co105 N102 2.135 . S
Co105 N108 2.121 1_556 S
Co105 O113 2.055 . S
Co105 O116 2.039 1_556 S
Co105 N119 2.140 1_556 S
C106 O107 1.227 . S
C106 O116 1.265 . S
O107 C106 1.227 . S
N108 Co105 2.121 1_554 S
N108 C110 1.375 . S
N108 C111 1.313 1_554 S
C109 C110 1.338 . S
C109 N112 1.377 1_554 S
C109 H129 0.930 . S
C110 N108 1.375 . S
C110 C109 1.338 . S
C110 H114 0.931 . S
C111 N108 1.313 1_556 S
C111 N112 1.344 . S
C111 H115 0.930 . S
N112 C109 1.377 1_556 S
N112 C111 1.344 . S
O113 Co105 2.055 . S
O113 C117 1.253 . S
H114 C110 0.931 . S
H115 C111 0.930 . S
O116 Co105 2.039 1_554 S
O116 C106 1.265 . S
C117 O113 1.253 . S
C117 O118 1.227 . S
O118 C117 1.227 . S
N119 Co105 2.140 1_554 S
N119 C122 1.346 . S
N119 C123 1.345 1_554 S
C120 C121 1.387 . S
C120 C124 1.391 1_554 S
C121 C120 1.387 . S
C121 C122 1.369 . S
C121 H130 0.929 . S
C122 N119 1.346 . S
C122 C121 1.369 . S
C122 H125 0.928 . S
C123 N119 1.345 1_556 S
C123 C124 1.371 . S
C123 H126 0.931 . S
C124 C120 1.391 1_556 S
C124 C123 1.371 . S
C124 H131 0.930 . S
H125 C122 0.928 . S
H126 C123 0.931 . S
H127 C103 0.930 . S
H128 C100 0.930 . S
H129 C109 0.930 . S
H130 C121 0.929 . S
H131 C124 0.930 . S
C132 C133 1.351 . S
C132 N135 1.368 . S
C132 H137 0.931 . S
C133 C132 1.351 . S
C133 N134 1.373 . S
C133 H161 0.930 . S
N134 C133 1.373 . S
N134 C136 1.340 . S
N135 C132 1.368 . S
N135 C136 1.321 . S
N135 Co138 2.135 . S
C136 N134 1.340 . S
C136 N135 1.321 . S
C136 H160 0.930 . S
H137 C132 0.931 . S
Co138 N135 2.135 . S
Co138 N141 2.121 . S
Co138 O146 2.055 . S
Co138 O149 2.039 . S
Co138 N152 2.140 . S
C139 O140 1.227 . S
C139 O149 1.265 . S
O140 C139 1.227 . S
N141 Co138 2.121 . S
N141 C143 1.375 . S
N141 C144 1.313 . S
C142 C143 1.338 . S
C142 N145 1.377 . S
C142 H162 0.930 . S
C143 N141 1.375 . S
C143 C142 1.338 . S
C143 H147 0.931 . S
C144 N141 1.313 . S
C144 N145 1.344 . S
C144 H148 0.930 . S
N145 C142 1.377 . S
N145 C144 1.344 . S
O146 Co138 2.055 . S
O146 C150 1.253 . S
H147 C143 0.931 . S
H148 C144 0.930 . S
O149 Co138 2.039 . S
O149 C139 1.265 . S
C150 O146 1.253 . S
C150 O151 1.227 . S
O151 C150 1.227 . S
N152 Co138 2.140 . S
N152 C155 1.346 . S
N152 C156 1.345 . S
C153 C154 1.387 1_455 S
C153 C157 1.391 . S
C154 C153 1.387 1_655 S
C154 C155 1.369 . S
C154 H163 0.929 . S
C155 N152 1.346 . S
C155 C154 1.369 . S
C155 H158 0.928 . S
C156 N152 1.345 . S
C156 C157 1.371 1_655 S
C156 H159 0.931 . S
C157 C153 1.391 . S
C157 C156 1.371 1_455 S
C157 H164 0.930 . S
H158 C155 0.928 . S
H159 C156 0.931 . S
H160 C136 0.930 . S
H161 C133 0.930 . S
H162 C142 0.930 . S
H163 C154 0.929 . S
H164 C157 0.930 . S
C165 C166 1.351 . S
C165 N168 1.368 . S
C165 H170 0.931 . S
C166 C165 1.351 . S
C166 N167 1.373 . S
C166 H194 0.930 . S
N167 C166 1.373 . S
N167 C169 1.340 . S
N168 C165 1.368 . S
N168 C169 1.321 . S
N168 Co171 2.135 . S
C169 N167 1.340 . S
C169 N168 1.321 . S
C169 H193 0.930 . S
H170 C165 0.931 . S
Co171 N168 2.135 . S
Co171 N174 2.121 . S
Co171 O179 2.055 . S
Co171 O182 2.039 . S
Co171 N185 2.140 . S
C172 O173 1.227 . S
C172 O182 1.265 . S
O173 C172 1.227 . S
N174 Co171 2.121 . S
N174 C176 1.375 . S
N174 C177 1.313 . S
C175 C176 1.338 . S
C175 N178 1.377 . S
C175 H195 0.930 . S
C176 N174 1.375 . S
C176 C175 1.338 . S
C176 H180 0.931 . S
C177 N174 1.313 . S
C177 N178 1.344 . S
C177 H181 0.930 . S
N178 C175 1.377 . S
N178 C177 1.344 . S
O179 Co171 2.055 . S
O179 C183 1.253 . S
H180 C176 0.931 . S
H181 C177 0.930 . S
O182 Co171 2.039 . S
O182 C172 1.265 . S
C183 O179 1.253 . S
C183 O184 1.227 . S
O184 C183 1.227 . S
N185 Co171 2.140 . S
N185 C188 1.346 . S
N185 C189 1.345 . S
C186 C187 1.387 1_545 S
C186 C190 1.391 . S
C187 C186 1.387 1_565 S
C187 C188 1.369 . S
C187 H196 0.929 . S
C188 N185 1.346 . S
C188 C187 1.369 . S
C188 H191 0.928 . S
C189 N185 1.345 . S
C189 C190 1.371 1_565 S
C189 H192 0.931 . S
C190 C186 1.391 . S
C190 C189 1.371 1_545 S
C190 H197 0.930 . S
H191 C188 0.928 . S
H192 C189 0.931 . S
H193 C169 0.930 . S
H194 C166 0.930 . S
H195 C175 0.930 . S
H196 C187 0.929 . S
H197 C190 0.930 . S
C198 C199 1.351 . S
C198 N201 1.368 . S
C198 H203 0.931 . S
C199 C198 1.351 . S
C199 N200 1.373 . S
C199 H227 0.930 . S
N200 C199 1.373 . S
N200 C202 1.340 . S
N201 C198 1.368 . S
N201 C202 1.321 . S
N201 Co204 2.135 . S
C202 N200 1.340 . S
C202 N201 1.321 . S
C202 H226 0.930 . S
H203 C198 0.931 . S
Co204 N201 2.135 . S
Co204 N207 2.121 . S
Co204 O212 2.055 . S
Co204 O215 2.039 . S
Co204 N218 2.140 . S
C205 O206 1.227 . S
C205 O215 1.265 . S
O206 C205 1.227 . S
N207 Co204 2.121 . S
N207 C209 1.375 . S
N207 C210 1.313 . S
C208 C209 1.338 . S
C208 N211 1.377 . S
C208 H228 0.930 . S
C209 N207 1.375 . S
C209 C208 1.338 . S
C209 H213 0.931 . S
C210 N207 1.313 . S
C210 N211 1.344 . S
C210 H214 0.930 . S
N211 C208 1.377 . S
N211 C210 1.344 . S
O212 Co204 2.055 . S
O212 C216 1.253 . S
H213 C209 0.931 . S
H214 C210 0.930 . S
O215 Co204 2.039 . S
O215 C205 1.265 . S
C216 O212 1.253 . S
C216 O217 1.227 . S
O217 C216 1.227 . S
N218 Co204 2.140 . S
N218 C221 1.346 . S
N218 C222 1.345 . S
C219 C220 1.387 1_655 S
C219 C223 1.391 . S
C220 C219 1.387 1_455 S
C220 C221 1.369 . S
C220 H229 0.929 . S
C221 N218 1.346 . S
C221 C220 1.369 . S
C221 H224 0.928 . S
C222 N218 1.345 . S
C222 C223 1.371 1_455 S
C222 H225 0.931 . S
C223 C219 1.391 . S
C223 C222 1.371 1_655 S
C223 H230 0.930 . S
H224 C221 0.928 . S
H225 C222 0.931 . S
H226 C202 0.930 . S
H227 C199 0.930 . S
H228 C208 0.930 . S
H229 C220 0.929 . S
H230 C223 0.930 . S
C231 C232 1.351 . S
C231 N234 1.368 . S
C231 H236 0.931 . S
C232 C231 1.351 . S
C232 N233 1.373 . S
C232 H260 0.930 . S
N233 C232 1.373 . S
N233 C235 1.340 . S
N234 C231 1.368 . S
N234 C235 1.321 . S
N234 Co237 2.135 . S
C235 N233 1.340 . S
C235 N234 1.321 . S
C235 H259 0.930 . S
H236 C231 0.931 . S
Co237 N234 2.135 . S
Co237 N240 2.121 . S
Co237 O245 2.055 . S
Co237 O248 2.039 . S
Co237 N251 2.140 . S
C238 O239 1.227 . S
C238 O248 1.265 . S
O239 C238 1.227 . S
N240 Co237 2.121 . S
N240 C242 1.375 . S
N240 C243 1.313 . S
C241 C242 1.338 . S
C241 N244 1.377 . S
C241 H261 0.930 . S
C242 N240 1.375 . S
C242 C241 1.338 . S
C242 H246 0.931 . S
C243 N240 1.313 . S
C243 N244 1.344 . S
C243 H247 0.930 . S
N244 C241 1.377 . S
N244 C243 1.344 . S
O245 Co237 2.055 . S
O245 C249 1.253 . S
H246 C242 0.931 . S
H247 C243 0.930 . S
O248 Co237 2.039 . S
O248 C238 1.265 . S
C249 O245 1.253 . S
C249 O250 1.227 . S
O250 C249 1.227 . S
N251 Co237 2.140 . S
N251 C254 1.346 . S
N251 C255 1.345 . S
C252 C253 1.387 1_565 S
C252 C256 1.391 . S
C253 C252 1.387 1_545 S
C253 C254 1.369 . S
C253 H262 0.929 . S
C254 N251 1.346 . S
C254 C253 1.369 . S
C254 H257 0.928 . S
C255 N251 1.345 . S
C255 C256 1.371 1_545 S
C255 H258 0.931 . S
C256 C252 1.391 . S
C256 C255 1.371 1_565 S
C256 H263 0.930 . S
H257 C254 0.928 . S
H258 C255 0.931 . S
H259 C235 0.930 . S
H260 C232 0.930 . S
H261 C241 0.930 . S
H262 C253 0.929 . S
H263 C256 0.930 . S
C264 C265 1.170 . S
C264 C266 1.380 1_565 S
C265 C264 1.170 . S
C266 C264 1.380 1_545 S
C266 C267 1.170 . S
C267 C266 1.170 . S
C268 C269 1.170 . S
C268 C270 1.380 1_655 S
C269 C268 1.170 . S
C270 C268 1.380 1_455 S
C270 C271 1.170 . S
C271 C270 1.170 . S
C272 C273 1.170 . S
C272 C274 1.380 1_655 S
C273 C272 1.170 . S
C274 C272 1.380 1_455 S
C274 C275 1.170 . S
C275 C274 1.170 . S
C276 C277 1.170 . S
C276 C278 1.380 1_565 S
C277 C276 1.170 . S
C278 C276 1.380 1_545 S
C278 C279 1.170 . S
C279 C278 1.170 . S
C280 C281 1.170 . S
C280 C282 1.380 . S
C281 C280 1.170 . S
C282 C280 1.380 . S
C282 C283 1.170 . S
C283 C282 1.170 . S
C284 C285 1.170 . S
C284 C286 1.380 . S
C285 C284 1.170 . S
C286 C284 1.380 . S
C286 C287 1.170 . S
C287 C286 1.170 . S
C288 C289 1.170 . S
C288 C290 1.380 . S
C289 C288 1.170 . S
C290 C288 1.380 . S
C290 C291 1.170 . S
C291 C290 1.170 . S
C292 C293 1.170 . S
C292 C294 1.380 . S
C293 C292 1.170 . S
C294 C292 1.380 . S
C294 C295 1.170 . S
C295 C294 1.170 . S
C296 C297 1.170 . S
C296 C298 1.380 . S
C297 C296 1.170 . S
C298 C296 1.380 . S
C298 C299 1.170 . S
C299 C298 1.170 . S
C300 C301 1.170 . S
C300 C302 1.380 . S
C301 C300 1.170 . S
C302 C300 1.380 . S
C302 C303 1.170 . S
C303 C302 1.170 . S
C304 C305 1.170 . S
C304 C306 1.380 . S
C305 C304 1.170 . S
C306 C304 1.380 . S
C306 C307 1.170 . S
C307 C306 1.170 . S
C308 C309 1.170 . S
C308 C310 1.380 . S
C309 C308 1.170 . S
C310 C308 1.380 . S
C310 C311 1.170 . S
C311 C310 1.170 . S
C312 C313 1.170 . S
C312 C314 1.380 . S
C313 C312 1.170 . S
C314 C312 1.380 . S
C314 C315 1.170 . S
C315 C314 1.170 . S
C316 C317 1.170 . S
C316 C318 1.380 . S
C317 C316 1.170 . S
C318 C316 1.380 . S
C318 C319 1.170 . S
C319 C318 1.170 . S
C320 C321 1.170 . S
C320 C322 1.380 . S
C321 C320 1.170 . S
C322 C320 1.380 . S
C322 C323 1.170 . S
C323 C322 1.170 . S
C324 C325 1.170 . S
C324 C326 1.380 . S
C325 C324 1.170 . S
C326 C324 1.380 . S
C326 C327 1.170 . S
C327 C326 1.170 . S
C328 C329 1.170 . S
C328 C330 1.380 . S
C329 C328 1.170 . S
C330 C328 1.380 . S
C330 C331 1.170 . S
C331 C330 1.170 . S
C332 C333 1.170 . S
C332 C334 1.380 . S
C333 C332 1.170 . S
C334 C332 1.380 . S
C334 C335 1.170 . S
C335 C334 1.170 . S
C336 C337 1.170 . S
C336 C338 1.380 . S
C337 C336 1.170 . S
C338 C336 1.380 . S
C338 C339 1.170 . S
C339 C338 1.170 . S
C340 C341 1.170 . S
C340 C342 1.380 . S
C341 C340 1.170 . S
C342 C340 1.380 . S
C342 C343 1.170 . S
C343 C342 1.170 . S
C265 N79 1.333 . S
C267 N13 1.330 . S
C269 N46 1.293 . S
C271 N112 1.298 . S
C273 N145 1.301 . S
C275 N211 1.295 . S
C277 N178 1.311 . S
C279 N244 1.302 . S
C281 C120 1.553 . S
C283 N2 1.490 1_554 S
C285 C21 1.556 . S
C287 N35 1.483 1_554 S
C289 N68 1.494 1_554 S
C291 C54 1.558 . S
C293 N101 1.518 1_554 S
C295 C87 1.551 . S
C297 C186 1.558 . S
C299 N134 1.504 . S
C301 C219 1.553 . S
C303 N167 1.491 . S
C305 C252 1.555 . S
C307 N200 1.486 . S
C309 C153 1.557 . S
C311 N233 1.508 . S
C313 C7 1.538 . S
C315 C238 1.538 . S
C317 C40 1.537 . S
C319 C139 1.537 . S
C321 C172 1.537 . S
C323 C73 1.537 . S
C325 C205 1.540 . S
C327 C106 1.540 . S
C329 C84 1.472 . S
C331 C183 1.473 . S
C333 C216 1.471 . S
C335 C117 1.474 . S
C337 C249 1.480 . S
C339 C18 1.469 . S
C341 C150 1.477 . S
C343 C51 1.476 . S
