# Generated by pormake.
# Topology ukd, (4)-cn, num edge types: 1
# Building blocks:
#     Node 0, Type 0, BuildingBlock: NAHDIM_clean_sbu_0, # of connection points: 4
#     Node 1, Type 0, BuildingBlock: NAHDIM_clean_sbu_0, # of connection points: 4
#     Node 2, Type 0, BuildingBlock: NAHDIM_clean_sbu_0, # of connection points: 4
#     Node 3, Type 0, BuildingBlock: NAHDIM_clean_sbu_0, # of connection points: 4
#     Node 4, Type 0, BuildingBlock: NAHDIM_clean_sbu_0, # of connection points: 4
#     Node 5, Type 0, BuildingBlock: NAHDIM_clean_sbu_0, # of connection points: 4
#     Node 6, Type 0, BuildingBlock: NAHDIM_clean_sbu_0, # of connection points: 4
#     Node 7, Type 0, BuildingBlock: NAHDIM_clean_sbu_0, # of connection points: 4
#     Node 8, Type 0, BuildingBlock: NAHDIM_clean_sbu_0, # of connection points: 4
#     Node 9, Type 0, BuildingBlock: NAHDIM_clean_sbu_0, # of connection points: 4
#     Node 10, Type 0, BuildingBlock: NAHDIM_clean_sbu_0, # of connection points: 4
#     Node 11, Type 0, BuildingBlock: NAHDIM_clean_sbu_0, # of connection points: 4
#     Node 12, Type 0, BuildingBlock: NAHDIM_clean_sbu_0, # of connection points: 4
#     Node 13, Type 0, BuildingBlock: NAHDIM_clean_sbu_0, # of connection points: 4
#     Node 14, Type 0, BuildingBlock: NAHDIM_clean_sbu_0, # of connection points: 4
#     Node 15, Type 0, BuildingBlock: NAHDIM_clean_sbu_0, # of connection points: 4
#     Node 16, Type 0, BuildingBlock: NAHDIM_clean_sbu_0, # of connection points: 4
#     Node 17, Type 0, BuildingBlock: NAHDIM_clean_sbu_0, # of connection points: 4
#     Node 18, Type 0, BuildingBlock: NAHDIM_clean_sbu_0, # of connection points: 4
#     Node 19, Type 0, BuildingBlock: NAHDIM_clean_sbu_0, # of connection points: 4
#     Node 20, Type 0, BuildingBlock: NAHDIM_clean_sbu_0, # of connection points: 4
#     Node 21, Type 0, BuildingBlock: NAHDIM_clean_sbu_0, # of connection points: 4
#     Node 22, Type 0, BuildingBlock: NAHDIM_clean_sbu_0, # of connection points: 4
#     Node 23, Type 0, BuildingBlock: NAHDIM_clean_sbu_0, # of connection points: 4
#     Node 24, Type 0, BuildingBlock: NAHDIM_clean_sbu_0, # of connection points: 4
#     Node 25, Type 0, BuildingBlock: NAHDIM_clean_sbu_0, # of connection points: 4
#     Node 26, Type 0, BuildingBlock: NAHDIM_clean_sbu_0, # of connection points: 4
#     Node 27, Type 0, BuildingBlock: NAHDIM_clean_sbu_0, # of connection points: 4
#     Node 28, Type 0, BuildingBlock: NAHDIM_clean_sbu_0, # of connection points: 4
#     Node 29, Type 0, BuildingBlock: NAHDIM_clean_sbu_0, # of connection points: 4
#     Node 30, Type 0, BuildingBlock: NAHDIM_clean_sbu_0, # of connection points: 4
#     Node 31, Type 0, BuildingBlock: NAHDIM_clean_sbu_0, # of connection points: 4
#     Edge 32, Type (0, 0), BuildingBlock: MIFKUJ_clean_linker_0, # of connection points: 2
#     Edge 33, Type (0, 0), BuildingBlock: MIFKUJ_clean_linker_0, # of connection points: 2
#     Edge 34, Type (0, 0), BuildingBlock: MIFKUJ_clean_linker_0, # of connection points: 2
#     Edge 35, Type (0, 0), BuildingBlock: MIFKUJ_clean_linker_0, # of connection points: 2
#     Edge 36, Type (0, 0), BuildingBlock: MIFKUJ_clean_linker_0, # of connection points: 2
#     Edge 37, Type (0, 0), BuildingBlock: MIFKUJ_clean_linker_0, # of connection points: 2
#     Edge 38, Type (0, 0), BuildingBlock: MIFKUJ_clean_linker_0, # of connection points: 2
#     Edge 39, Type (0, 0), BuildingBlock: MIFKUJ_clean_linker_0, # of connection points: 2
#     Edge 40, Type (0, 0), BuildingBlock: MIFKUJ_clean_linker_0, # of connection points: 2
#     Edge 41, Type (0, 0), BuildingBlock: MIFKUJ_clean_linker_0, # of connection points: 2
#     Edge 42, Type (0, 0), BuildingBlock: MIFKUJ_clean_linker_0, # of connection points: 2
#     Edge 43, Type (0, 0), BuildingBlock: MIFKUJ_clean_linker_0, # of connection points: 2
#     Edge 44, Type (0, 0), BuildingBlock: MIFKUJ_clean_linker_0, # of connection points: 2
#     Edge 45, Type (0, 0), BuildingBlock: MIFKUJ_clean_linker_0, # of connection points: 2
#     Edge 46, Type (0, 0), BuildingBlock: MIFKUJ_clean_linker_0, # of connection points: 2
#     Edge 47, Type (0, 0), BuildingBlock: MIFKUJ_clean_linker_0, # of connection points: 2
#     Edge 48, Type (0, 0), BuildingBlock: MIFKUJ_clean_linker_0, # of connection points: 2
#     Edge 49, Type (0, 0), BuildingBlock: MIFKUJ_clean_linker_0, # of connection points: 2
#     Edge 50, Type (0, 0), BuildingBlock: MIFKUJ_clean_linker_0, # of connection points: 2
#     Edge 51, Type (0, 0), BuildingBlock: MIFKUJ_clean_linker_0, # of connection points: 2
#     Edge 52, Type (0, 0), BuildingBlock: MIFKUJ_clean_linker_0, # of connection points: 2
#     Edge 53, Type (0, 0), BuildingBlock: MIFKUJ_clean_linker_0, # of connection points: 2
#     Edge 54, Type (0, 0), BuildingBlock: MIFKUJ_clean_linker_0, # of connection points: 2
#     Edge 55, Type (0, 0), BuildingBlock: MIFKUJ_clean_linker_0, # of connection points: 2
#     Edge 56, Type (0, 0), BuildingBlock: MIFKUJ_clean_linker_0, # of connection points: 2
#     Edge 57, Type (0, 0), BuildingBlock: MIFKUJ_clean_linker_0, # of connection points: 2
#     Edge 58, Type (0, 0), BuildingBlock: MIFKUJ_clean_linker_0, # of connection points: 2
#     Edge 59, Type (0, 0), BuildingBlock: MIFKUJ_clean_linker_0, # of connection points: 2
#     Edge 60, Type (0, 0), BuildingBlock: MIFKUJ_clean_linker_0, # of connection points: 2
#     Edge 61, Type (0, 0), BuildingBlock: MIFKUJ_clean_linker_0, # of connection points: 2
#     Edge 62, Type (0, 0), BuildingBlock: MIFKUJ_clean_linker_0, # of connection points: 2
#     Edge 63, Type (0, 0), BuildingBlock: MIFKUJ_clean_linker_0, # of connection points: 2
#     Edge 64, Type (0, 0), BuildingBlock: MIFKUJ_clean_linker_0, # of connection points: 2
#     Edge 65, Type (0, 0), BuildingBlock: MIFKUJ_clean_linker_0, # of connection points: 2
#     Edge 66, Type (0, 0), BuildingBlock: MIFKUJ_clean_linker_0, # of connection points: 2
#     Edge 67, Type (0, 0), BuildingBlock: MIFKUJ_clean_linker_0, # of connection points: 2
#     Edge 68, Type (0, 0), BuildingBlock: MIFKUJ_clean_linker_0, # of connection points: 2
#     Edge 69, Type (0, 0), BuildingBlock: MIFKUJ_clean_linker_0, # of connection points: 2
#     Edge 70, Type (0, 0), BuildingBlock: MIFKUJ_clean_linker_0, # of connection points: 2
#     Edge 71, Type (0, 0), BuildingBlock: MIFKUJ_clean_linker_0, # of connection points: 2
#     Edge 72, Type (0, 0), BuildingBlock: MIFKUJ_clean_linker_0, # of connection points: 2
#     Edge 73, Type (0, 0), BuildingBlock: MIFKUJ_clean_linker_0, # of connection points: 2
#     Edge 74, Type (0, 0), BuildingBlock: MIFKUJ_clean_linker_0, # of connection points: 2
#     Edge 75, Type (0, 0), BuildingBlock: MIFKUJ_clean_linker_0, # of connection points: 2
#     Edge 76, Type (0, 0), BuildingBlock: MIFKUJ_clean_linker_0, # of connection points: 2
#     Edge 77, Type (0, 0), BuildingBlock: MIFKUJ_clean_linker_0, # of connection points: 2
#     Edge 78, Type (0, 0), BuildingBlock: MIFKUJ_clean_linker_0, # of connection points: 2
#     Edge 79, Type (0, 0), BuildingBlock: MIFKUJ_clean_linker_0, # of connection points: 2
#     Edge 80, Type (0, 0), BuildingBlock: MIFKUJ_clean_linker_0, # of connection points: 2
#     Edge 81, Type (0, 0), BuildingBlock: MIFKUJ_clean_linker_0, # of connection points: 2
#     Edge 82, Type (0, 0), BuildingBlock: MIFKUJ_clean_linker_0, # of connection points: 2
#     Edge 83, Type (0, 0), BuildingBlock: MIFKUJ_clean_linker_0, # of connection points: 2
#     Edge 84, Type (0, 0), BuildingBlock: MIFKUJ_clean_linker_0, # of connection points: 2
#     Edge 85, Type (0, 0), BuildingBlock: MIFKUJ_clean_linker_0, # of connection points: 2
#     Edge 86, Type (0, 0), BuildingBlock: MIFKUJ_clean_linker_0, # of connection points: 2
#     Edge 87, Type (0, 0), BuildingBlock: MIFKUJ_clean_linker_0, # of connection points: 2
#     Edge 88, Type (0, 0), BuildingBlock: MIFKUJ_clean_linker_0, # of connection points: 2
#     Edge 89, Type (0, 0), BuildingBlock: MIFKUJ_clean_linker_0, # of connection points: 2
#     Edge 90, Type (0, 0), BuildingBlock: MIFKUJ_clean_linker_0, # of connection points: 2
#     Edge 91, Type (0, 0), BuildingBlock: MIFKUJ_clean_linker_0, # of connection points: 2
#     Edge 92, Type (0, 0), BuildingBlock: MIFKUJ_clean_linker_0, # of connection points: 2
#     Edge 93, Type (0, 0), BuildingBlock: MIFKUJ_clean_linker_0, # of connection points: 2
#     Edge 94, Type (0, 0), BuildingBlock: MIFKUJ_clean_linker_0, # of connection points: 2
#     Edge 95, Type (0, 0), BuildingBlock: MIFKUJ_clean_linker_0, # of connection points: 2
# Relax obj value: 0.149
# Max RMSD: 0.181
# Mean RMSD: 0.181
data_MOF--net-ukd--node1-NAHDIM_clean_sbu_0--edge1-MIFKUJ_clean_linker_0
_symmetry_space_group_name_H-M    P1
_symmetry_Int_Tables_number       1
_symmetry_cell_setting            triclinic
loop_
_symmetry_equiv_pos_as_xyz
'x, y, z'
_cell_length_a     55.843875
_cell_length_b     55.854463
_cell_length_c     96.040423
_cell_angle_alpha  89.978499
_cell_angle_beta   89.993357
_cell_angle_gamma 89.991302
loop_
_atom_site_label
_atom_site_type_symbol
_atom_site_fract_x
_atom_site_fract_y
_atom_site_fract_z
_atom_type_partial_charge
C0 C 0.28286 0.19836 0.34493 0.0
O1 O 0.27355 0.19371 0.33267 0.0
O2 O 0.23803 0.23169 0.32759 0.0
Zn3 Zn 0.23771 0.22108 0.34768 0.0
O4 O 0.21529 0.1933 0.35034 0.0
C5 C 0.23203 0.26965 0.35786 0.0
O6 O 0.24932 0.27448 0.34902 0.0
O7 O 0.27084 0.21078 0.35355 0.0
C8 C 0.19314 0.19577 0.34768 0.0
O9 O 0.18542 0.21638 0.34284 0.0
C10 C 0.2315 0.21824 0.31761 0.0
O11 O 0.2241 0.1964 0.32032 0.0
O12 O 0.22513 0.24813 0.35932 0.0
C13 C 0.03514 0.0521 0.60729 0.0
O14 O 0.02245 0.0521 0.59578 0.0
O15 O 0.0194 0.00322 0.58601 0.0
Zn16 Zn 0.02809 0.00055 0.60625 0.0
O17 O 0.05562 0.97759 0.60799 0.0
C18 C 0.97909 0.98765 0.61276 0.0
O19 O 0.97436 0.99897 0.60109 0.0
O20 O 0.0388 0.03246 0.61364 0.0
C21 C 0.05439 0.95714 0.60226 0.0
O22 O 0.035 0.95141 0.59525 0.0
C23 C 0.03572 0.00504 0.57685 0.0
O24 O 0.05824 0.00544 0.58082 0.0
O25 O 0.00054 0.98693 0.61716 0.0
C26 C 0.22436 0.81108 0.85339 0.0
O27 O 0.24101 0.82507 0.84819 0.0
O28 O 0.24944 0.77159 0.82254 0.0
Zn29 Zn 0.25669 0.77663 0.84282 0.0
O30 O 0.28287 0.80125 0.84513 0.0
C31 C 0.29036 0.74057 0.84717 0.0
O32 O 0.3011 0.75457 0.83812 0.0
O33 O 0.22676 0.7885 0.85245 0.0
C34 C 0.29227 0.80356 0.85709 0.0
O35 O 0.28451 0.79009 0.86736 0.0
C36 C 0.26347 0.77863 0.81297 0.0
O37 O 0.2834 0.7897 0.81633 0.0
O38 O 0.2692 0.74577 0.85103 0.0
C39 C 0.46738 0.95263 0.10626 0.0
O40 O 0.48224 0.95113 0.09569 0.0
O41 O 0.47997 -0.0006 0.08264 0.0
Zn42 Zn 0.47391 0.00399 0.10307 0.0
O43 O 0.4476 0.02818 0.1056 0.0
C44 C 0.5188 0.02784 0.10477 0.0
O45 O 0.51499 0.0292 0.09131 0.0
O46 O 0.46255 0.97307 0.11136 0.0
C47 C 0.44794 0.04816 0.09928 0.0
O48 O 0.46576 0.053 0.0908 0.0
C49 C 0.46342 0.99746 0.07366 0.0
O50 O 0.44097 0.99769 0.07775 0.0
O51 O 0.5037 0.01686 0.11236 0.0
C52 C 0.26769 0.8127 0.14148 0.0
O53 O 0.25213 0.82738 0.14715 0.0
O54 O 0.23749 0.77199 0.17006 0.0
Zn55 Zn 0.23156 0.78036 0.14997 0.0
O56 O 0.20792 0.80774 0.14829 0.0
C57 C 0.19596 0.74649 0.14471 0.0
O58 O 0.18588 0.76031 0.15409 0.0
O59 O 0.2629 0.79045 0.14111 0.0
C60 C 0.19404 0.81524 0.15784 0.0
O61 O 0.19398 0.80455 0.17002 0.0
C62 C 0.24512 0.78695 0.17897 0.0
O63 O 0.24928 0.80913 0.17513 0.0
O64 O 0.21712 0.7513 0.14071 0.0
C65 C 0.46154 0.04117 0.3958 0.0
O66 O 0.46762 0.04183 0.40901 0.0
O67 O 0.47229 0.99566 0.41954 0.0
Zn68 Zn 0.47109 0.99035 0.39873 0.0
O69 O 0.44464 0.96697 0.39424 0.0
C70 C 0.51685 0.96648 0.39986 0.0
O71 O 0.51122 0.96473 0.41309 0.0
O72 O 0.46269 0.02142 0.38925 0.0
C73 C 0.448 0.94447 0.39399 0.0
O74 O 0.46943 0.93594 0.39666 0.0
C75 C 0.46468 0.98048 0.42837 0.0
O76 O 0.45575 0.96009 0.42399 0.0
O77 O 0.50263 0.97731 0.39164 0.0
C78 C 0.22969 0.19551 0.64426 0.0
O79 O 0.24085 0.18497 0.65462 0.0
O80 O 0.26695 0.22694 0.66677 0.0
Zn81 Zn 0.2721 0.22126 0.64622 0.0
O82 O 0.29458 0.19356 0.6431 0.0
C83 C 0.29719 0.26569 0.64561 0.0
O84 O 0.2988 0.26065 0.65894 0.0
O85 O 0.23997 0.21282 0.63808 0.0
C86 C 0.31613 0.1939 0.64736 0.0
O87 O 0.32408 0.21289 0.65397 0.0
C88 C 0.27336 0.21299 0.67654 0.0
O89 O 0.28399 0.19267 0.67352 0.0
O90 O 0.28611 0.25128 0.63763 0.0
C91 C 0.04888 0.97451 0.89726 0.0
O92 O 0.05787 0.99051 0.90582 0.0
O93 O 0.00675 0.00539 0.91928 0.0
Zn94 Zn 0.01342 0.00889 0.89886 0.0
O95 O 0.03754 0.0352 0.89614 0.0
C96 C 0.96303 0.01892 0.8936 0.0
O97 O 0.96003 0.01109 0.90638 0.0
O98 O 0.02816 0.97809 0.8922 0.0
C99 C 0.0434 0.04076 0.88378 0.0
O100 O 0.03353 0.02917 0.87335 0.0
C101 C 0.00624 0.02331 0.92742 0.0
O102 O 0.00931 0.0449 0.92227 0.0
O103 O 0.98381 0.01835 0.88822 0.0
C104 C 0.73903 0.79385 0.63105 0.0
O105 O 0.75869 0.79487 0.62355 0.0
O106 O 0.76808 0.76937 0.67176 0.0
Zn107 Zn 0.77228 0.77801 0.65162 0.0
O108 O 0.79308 0.80719 0.64987 0.0
C109 C 0.78496 0.72929 0.64452 0.0
O110 O 0.76887 0.72391 0.654 0.0
O111 O 0.74024 0.78596 0.64343 0.0
C112 C 0.8122 0.80961 0.65689 0.0
O113 O 0.81836 0.79277 0.66575 0.0
C114 C 0.76364 0.78546 0.68074 0.0
O115 O 0.76192 0.80787 0.6767 0.0
O116 O 0.78868 0.75113 0.64153 0.0
C117 C 0.96108 0.95971 0.40409 0.0
O118 O 0.96209 0.96365 0.41755 0.0
O119 O 0.98442 0.00933 0.42278 0.0
Zn120 Zn 0.97453 0.00964 0.4026 0.0
O121 O 0.94517 0.0301 0.4004 0.0
C122 C 0.02265 0.0213 0.39348 0.0
O123 O 0.02905 0.00589 0.40313 0.0
O124 O 0.96661 0.97647 0.39572 0.0
C125 C 0.94609 0.05203 0.40384 0.0
O126 O 0.96618 0.06067 0.40889 0.0
C127 C 0.96893 0.01151 0.4324 0.0
O128 O 0.94621 0.01358 0.42905 0.0
O129 O 0.00053 0.0249 0.39123 0.0
C130 C 0.76332 0.20657 0.13638 0.0
O131 O 0.74521 0.20858 0.12774 0.0
O132 O 0.73355 0.23913 0.17505 0.0
Zn133 Zn 0.73006 0.22881 0.15517 0.0
O134 O 0.70511 0.20273 0.15412 0.0
C135 C 0.72031 0.27815 0.147 0.0
O136 O 0.73072 0.2836 0.15885 0.0
O137 O 0.76135 0.21501 0.1486 0.0
C138 C 0.69256 0.20055 0.14315 0.0
O139 O 0.69562 0.21579 0.13288 0.0
C140 C 0.7388 0.22347 0.18414 0.0
O141 O 0.74172 0.20112 0.18021 0.0
O142 O 0.71908 0.25636 0.14329 0.0
C143 C 0.56091 0.01935 0.89521 0.0
O144 O 0.57408 0.0025 0.90089 0.0
O145 O 0.51896 0.9865 0.92021 0.0
Zn146 Zn 0.52716 0.983 0.89984 0.0
O147 O 0.5531 0.95826 0.89691 0.0
C148 C 0.4873 0.95394 0.89643 0.0
O149 O 0.49613 0.94705 0.90846 0.0
O150 O 0.53889 0.01512 0.89286 0.0
C151 C 0.55774 0.94108 0.90516 0.0
O152 O 0.54519 0.93865 0.91664 0.0
C153 C 0.53413 0.98887 0.92997 0.0
O154 O 0.55708 0.98917 0.92701 0.0
O155 O 0.4976 0.97092 0.88995 0.0
C156 C 0.72106 0.2057 0.87027 0.0
O157 O 0.74086 0.20149 0.87724 0.0
O158 O 0.75119 0.23195 0.8306 0.0
Zn159 Zn 0.75468 0.22512 0.85101 0.0
O160 O 0.77654 0.1968 0.85398 0.0
C161 C 0.78673 0.26352 0.85384 0.0
O162 O 0.79366 0.25412 0.84196 0.0
O163 O 0.72233 0.21691 0.85879 0.0
C164 C 0.79279 0.19056 0.84544 0.0
O165 O 0.79577 0.20287 0.83392 0.0
C166 C 0.74239 0.21687 0.82214 0.0
O167 O 0.73512 0.19599 0.82684 0.0
O168 O 0.76922 0.25405 0.86026 0.0
C169 C 0.55518 0.9605 0.59703 0.0
O170 O 0.55888 0.97422 0.58612 0.0
O171 O 0.51144 0.99628 0.58128 0.0
Zn172 Zn 0.52357 0.99802 0.60099 0.0
O173 O 0.54905 0.02349 0.6022 0.0
C174 C 0.47488 0.00472 0.61054 0.0
O175 O 0.4695 0.99318 0.59905 0.0
O176 O 0.53925 0.96667 0.60579 0.0
C177 C 0.54425 0.04491 0.60571 0.0
O178 O 0.522 0.05081 0.60853 0.0
C179 C 0.50761 0.01498 0.57408 0.0
O180 O 0.51122 0.03611 0.57969 0.0
O181 O 0.49675 0.00721 0.61389 0.0
C182 C 0.78692 0.79596 0.35624 0.0
O183 O 0.77986 0.79817 0.34326 0.0
O184 O 0.74516 0.76509 0.33767 0.0
Zn185 Zn 0.74114 0.77451 0.35771 0.0
O186 O 0.71774 0.80192 0.3591 0.0
C187 C 0.73503 0.72508 0.36584 0.0
O188 O 0.75211 0.72148 0.35666 0.0
O189 O 0.77314 0.78573 0.36495 0.0
C190 C 0.69561 0.79815 0.36128 0.0
O191 O 0.68794 0.776 0.36247 0.0
C192 C 0.72807 0.76125 0.32925 0.0
O193 O 0.70587 0.76283 0.33368 0.0
O194 O 0.72834 0.74637 0.36841 0.0
C195 C 0.94035 0.03133 0.10211 0.0
O196 O 0.93516 0.01843 0.09107 0.0
O197 O 0.98311 -6e-05 0.08282 0.0
Zn198 Zn 0.97365 0.99495 0.10281 0.0
O199 O 0.94845 0.96917 0.1035 0.0
C200 C 0.0232 0.98538 0.10998 0.0
O201 O 0.02738 0.9944 0.09759 0.0
O202 O 0.95798 0.02506 0.10964 0.0
C203 C 0.95293 0.94779 0.10718 0.0
O204 O 0.97493 0.94189 0.1106 0.0
C205 C 0.98578 0.98238 0.07457 0.0
O206 O 0.98334 0.96049 0.07937 0.0
O207 O 0.00185 0.98493 0.11456 0.0
C208 C 0.78501 0.70874 0.85627 0.0
O209 O 0.78529 0.72225 0.84507 0.0
O210 O 0.73906 0.71805 0.83219 0.0
Zn211 Zn 0.73355 0.71063 0.8525 0.0
O212 O 0.71174 0.68205 0.85453 0.0
C213 C 0.71879 0.75978 0.85667 0.0
O214 O 0.72985 0.7631 0.84476 0.0
O215 O 0.76503 0.70234 0.86141 0.0
C216 C 0.6891 0.68434 0.85472 0.0
O217 O 0.67967 0.70579 0.85347 0.0
C218 C 0.72333 0.71529 0.82277 0.0
O219 O 0.70221 0.70673 0.82612 0.0
O220 O 0.71856 0.739 0.86208 0.0
C221 C 0.5676 0.5291 0.1037 0.0
O222 O 0.58089 0.51062 0.10028 0.0
O223 O 0.52972 0.50034 0.07292 0.0
Zn224 Zn 0.53248 0.49688 0.09373 0.0
O225 O 0.55577 0.4705 0.09814 0.0
C226 C 0.48717 0.47388 0.09427 0.0
O227 O 0.4936 0.4695 0.08136 0.0
O228 O 0.54504 0.52783 0.102 0.0
C229 C 0.5581 0.45133 0.09117 0.0
O230 O 0.54431 0.44762 0.0803 0.0
C231 C 0.54435 0.51232 0.06556 0.0
O232 O 0.56225 0.52343 0.07163 0.0
O233 O 0.50071 0.48673 0.10185 0.0
C234 C 0.7126 0.27851 0.35828 0.0
O235 O 0.71444 0.26561 0.3469 0.0
O236 O 0.76334 0.26779 0.33783 0.0
Zn237 Zn 0.76444 0.27565 0.3582 0.0
O238 O 0.78587 0.30416 0.36088 0.0
C239 C 0.77184 0.22646 0.36638 0.0
O240 O 0.75443 0.22241 0.35748 0.0
O241 O 0.73143 0.28401 0.365 0.0
C242 C 0.80664 0.30418 0.35547 0.0
O243 O 0.81364 0.28543 0.34828 0.0
C244 C 0.75954 0.28425 0.32898 0.0
O245 O 0.75645 0.30633 0.33334 0.0
O246 O 0.77847 0.24787 0.36861 0.0
C247 C 0.93506 0.46053 0.59696 0.0
O248 O 0.92894 0.47524 0.58689 0.0
O249 O 0.97545 0.49777 0.57935 0.0
Zn250 Zn 0.96766 0.49779 0.59987 0.0
O251 O 0.94426 0.52403 0.60429 0.0
C252 C 0.01818 0.50255 0.60514 0.0
O253 O 0.01985 0.4923 0.59287 0.0
O254 O 0.95254 0.46615 0.60478 0.0
C255 C 0.95034 0.54584 0.603 0.0
O256 O 0.97193 0.55101 0.59846 0.0
C257 C 0.964 0.50937 0.5701 0.0
O258 O 0.9456 0.52259 0.57377 0.0
O259 O 0.99765 0.50496 0.61067 0.0
C260 C 0.76221 0.28256 0.62779 0.0
O261 O 0.74334 0.28253 0.61961 0.0
O262 O 0.72727 0.26398 0.668 0.0
Zn263 Zn 0.72623 0.27229 0.64771 0.0
O264 O 0.70866 0.30329 0.64477 0.0
C265 C 0.71744 0.22593 0.63491 0.0
O266 O 0.73969 0.22136 0.63847 0.0
O267 O 0.75955 0.27707 0.64053 0.0
C268 C 0.69017 0.30919 0.65166 0.0
O269 O 0.68207 0.29467 0.66134 0.0
C270 C 0.7354 0.27864 0.67692 0.0
O271 O 0.74328 0.2996 0.67273 0.0
O272 O 0.70861 0.24639 0.63754 0.0
C273 C 0.94774 0.53371 0.89879 0.0
O274 O 0.93961 0.52212 0.90971 0.0
O275 O 0.98382 0.49124 0.91709 0.0
Zn276 Zn 0.97338 0.4906 0.89699 0.0
O277 O 0.94537 0.46831 0.89465 0.0
C278 C 0.02217 0.4823 0.88829 0.0
O279 O 0.02708 0.49694 0.8986 0.0
O280 O 0.96343 0.52372 0.89116 0.0
C281 C 0.94879 0.44587 0.89551 0.0
O282 O 0.9705 0.43788 0.89803 0.0
C283 C 0.97081 0.48334 0.92693 0.0
O284 O 0.94965 0.47434 0.92405 0.0
O285 O 0.00043 0.47792 0.88535 0.0
C286 C 0.72678 0.70281 0.15405 0.0
O287 O 0.73541 0.69537 0.16602 0.0
O288 O 0.76638 0.73191 0.1754 0.0
Zn289 Zn 0.77132 0.7249 0.15516 0.0
O290 O 0.79285 0.69626 0.15295 0.0
C291 C 0.77836 0.77051 0.14 0.0
O292 O 0.75494 0.77205 0.13911 0.0
O293 O 0.73927 0.71709 0.14673 0.0
C294 C 0.79392 0.68651 0.14101 0.0
O295 O 0.78058 0.69511 0.13091 0.0
C296 C 0.78338 0.73257 0.18416 0.0
O297 O 0.80547 0.7292 0.17988 0.0
O298 O 0.78781 0.75264 0.14606 0.0
C299 C 0.55358 0.46019 0.39396 0.0
O300 O 0.56081 0.46989 0.40569 0.0
O301 O 0.52294 0.50118 0.41382 0.0
Zn302 Zn 0.53122 0.50469 0.39352 0.0
O303 O 0.56027 0.52585 0.39187 0.0
C304 C 0.48233 0.51434 0.38466 0.0
O305 O 0.47683 0.49645 0.39296 0.0
O306 O 0.53961 0.47208 0.38612 0.0
C307 C 0.55861 0.54802 0.39468 0.0
O308 O 0.53782 0.55675 0.39855 0.0
C309 C 0.51034 0.51571 0.42088 0.0
O310 O 0.50106 0.5346 0.41478 0.0
O311 O 0.50416 0.52011 0.38309 0.0
C312 C 0.21897 0.28648 0.14422 0.0
O313 O 0.21898 0.27402 0.15582 0.0
O314 O 0.26703 0.27182 0.16597 0.0
Zn315 Zn 0.27051 0.27986 0.14569 0.0
O316 O 0.2937 0.30722 0.14353 0.0
C317 C 0.2806 0.23002 0.13934 0.0
O318 O 0.2665 0.22582 0.15002 0.0
O319 O 0.23867 0.2903 0.13796 0.0
C320 C 0.31604 0.30318 0.14261 0.0
O321 O 0.32381 0.28102 0.14338 0.0
C322 C 0.2676 0.28804 0.17524 0.0
O323 O 0.271 0.3104 0.17147 0.0
O324 O 0.28388 0.25148 0.13538 0.0
C325 C 0.43572 0.46798 0.89945 0.0
O326 O 0.42983 0.48254 0.90964 0.0
O327 O 0.47806 0.50682 0.91493 0.0
Zn328 Zn 0.46654 0.5065 0.89511 0.0
O329 O 0.44092 0.53162 0.89291 0.0
C330 C 0.515 0.50659 0.8841 0.0
O331 O 0.51874 0.49011 0.89362 0.0
O332 O 0.45223 0.47424 0.8911 0.0
C333 C 0.44678 0.553 0.88992 0.0
O334 O 0.46955 0.5583 0.88841 0.0
C335 C 0.49329 0.52185 0.91943 0.0
O336 O 0.50206 0.53802 0.9109 0.0
O337 O 0.49396 0.51472 0.88241 0.0
C338 C 0.2615 0.68881 0.64004 0.0
O339 O 0.24801 0.67942 0.64983 0.0
O340 O 0.22692 0.72913 0.66082 0.0
Zn341 Zn 0.22262 0.71968 0.64085 0.0
O342 O 0.19867 0.69276 0.63968 0.0
C343 C 0.21856 0.76908 0.6328 0.0
O344 O 0.2358 0.77164 0.64199 0.0
O345 O 0.2543 0.70764 0.63389 0.0
C346 C 0.18387 0.69112 0.62968 0.0
O347 O 0.18401 0.70752 0.61987 0.0
C348 C 0.21026 0.72722 0.66974 0.0
O349 O 0.18931 0.71888 0.66586 0.0
O350 O 0.2107 0.74823 0.63018 0.0
C351 C 0.05425 0.53332 0.39784 0.0
O352 O 0.06047 0.52487 0.41008 0.0
O353 O 0.02258 0.49048 0.41737 0.0
Zn354 Zn 0.03201 0.48798 0.39713 0.0
O355 O 0.06039 0.46613 0.39479 0.0
C356 C 0.98292 0.47983 0.3892 0.0
O357 O 0.97885 0.49654 0.39854 0.0
O358 O 0.04108 0.52059 0.38999 0.0
C359 C 0.05797 0.44364 0.39621 0.0
O360 O 0.03679 0.43496 0.39938 0.0
C361 C 0.03488 0.48163 0.42725 0.0
O362 O 0.05487 0.47027 0.4244 0.0
O363 O 0.0044 0.47397 0.38648 0.0
C364 C 0.21366 0.71094 0.35115 0.0
O365 O 0.21517 0.72001 0.33856 0.0
O366 O 0.26402 0.72898 0.3316 0.0
Zn367 Zn 0.26506 0.71933 0.35174 0.0
O368 O 0.28723 0.69124 0.35383 0.0
C369 C 0.27216 0.76808 0.36074 0.0
O370 O 0.25434 0.77239 0.35217 0.0
O371 O 0.23236 0.7098 0.35868 0.0
C372 C 0.30877 0.69316 0.34972 0.0
O373 O 0.31584 0.71341 0.34409 0.0
C374 C 0.26342 0.7135 0.32192 0.0
O375 O 0.26313 0.69064 0.32517 0.0
O376 O 0.27895 0.74662 0.36262 0.0
C377 C 0.05597 0.46482 0.10238 0.0
O378 O 0.06534 0.47707 0.09205 0.0
O379 O 0.02126 0.50053 0.07989 0.0
Zn380 Zn 0.02566 0.50445 0.10061 0.0
O381 O 0.05068 0.52972 0.1042 0.0
C382 C 0.97595 0.5187 0.10184 0.0
O383 O 0.97673 0.51274 0.08863 0.0
O384 O 0.03748 0.47307 0.10843 0.0
C385 C 0.04457 0.55159 0.10498 0.0
O386 O 0.02193 0.55738 0.1034 0.0
C387 C 0.03526 0.50933 0.0708 0.0
O388 O 0.05407 0.52163 0.07482 0.0
O389 O 0.99443 0.51542 0.10936 0.0
C390 C 0.26251 0.29179 0.86985 0.0
O391 O 0.24189 0.29644 0.87586 0.0
O392 O 0.23957 0.26889 0.82804 0.0
Zn393 Zn 0.23182 0.27389 0.8483 0.0
O394 O 0.21012 0.3024 0.85077 0.0
C395 C 0.20375 0.23134 0.84731 0.0
O396 O 0.20391 0.23699 0.83403 0.0
O397 O 0.26263 0.28093 0.85823 0.0
C398 C 0.18869 0.30283 0.84634 0.0
O399 O 0.18018 0.28415 0.83967 0.0
C400 C 0.23532 0.28402 0.81847 0.0
O401 O 0.2258 0.30479 0.82169 0.0
O402 O 0.2152 0.24445 0.85585 0.0
C403 C 0.44393 0.52951 0.59845 0.0
O404 O 0.43578 0.51482 0.58887 0.0
O405 O 0.48647 0.49955 0.57657 0.0
Zn406 Zn 0.47921 0.49486 0.59683 0.0
O407 O 0.45512 0.46833 0.59859 0.0
C408 C 0.52983 0.48827 0.60331 0.0
O409 O 0.53342 0.50028 0.59173 0.0
O410 O 0.46403 0.52501 0.60408 0.0
C411 C 0.44711 0.46339 0.61063 0.0
O412 O 0.45498 0.47563 0.62137 0.0
C413 C 0.49351 0.4824 0.56893 0.0
O414 O 0.497 0.46122 0.57453 0.0
O415 O 0.50853 0.48498 0.60756 0.0
H416 H 0.10376 0.45568 0.38882 0.0
H417 H 0.13749 0.42866 0.38472 0.0
H418 H 0.09282 0.36814 0.3949 0.0
H419 H 0.05906 0.395 0.39915 0.0
H420 H 0.13762 0.36453 0.40655 0.0
H421 H 0.10321 0.38265 0.3614 0.0
H422 H 0.08988 0.40967 0.34261 0.0
H423 H 0.16104 0.43817 0.33909 0.0
H424 H 0.17472 0.41151 0.35798 0.0
H425 H 0.19162 0.26583 0.37368 0.0
H426 H 0.16678 0.29813 0.38265 0.0
H427 H 0.21701 0.35012 0.36677 0.0
H428 H 0.24175 0.31775 0.35737 0.0
H429 H 0.17367 0.36182 0.35936 0.0
H430 H 0.20956 0.34034 0.40246 0.0
H431 H 0.22323 0.31357 0.42126 0.0
H432 H 0.15067 0.29197 0.42904 0.0
H433 H 0.13657 0.31837 0.41016 0.0
C434 C 0.10112 0.43663 0.39025 0.0
C435 C 0.07866 0.42747 0.39421 0.0
C436 C 0.12042 0.42122 0.38789 0.0
C437 C 0.11758 0.39639 0.38939 0.0
C438 C 0.09538 0.38725 0.3937 0.0
C439 C 0.07607 0.40263 0.39605 0.0
C440 C 0.1374 0.37976 0.38596 0.0
C441 C 0.14545 0.36378 0.39622 0.0
C442 C 0.1481 0.37939 0.37261 0.0
C443 C 0.13992 0.39529 0.3612 0.0
C444 C 0.11597 0.39481 0.35668 0.0
C445 C 0.10836 0.41004 0.34601 0.0
C446 C 0.12459 0.42568 0.33969 0.0
C447 C 0.14848 0.42608 0.34401 0.0
C448 C 0.15617 0.41091 0.35469 0.0
C449 C 0.19763 0.28411 0.37226 0.0
C450 C 0.21864 0.28921 0.36476 0.0
C451 C 0.18344 0.3026 0.37748 0.0
C452 C 0.19012 0.3266 0.37553 0.0
C453 C 0.2115 0.33174 0.36842 0.0
C454 C 0.22565 0.31322 0.36309 0.0
C455 C 0.17373 0.34615 0.37988 0.0
C456 C 0.16623 0.36272 0.36978 0.0
C457 C 0.16364 0.34712 0.3934 0.0
C458 C 0.17203 0.33124 0.40481 0.0
C459 C 0.19653 0.32976 0.40811 0.0
C460 C 0.20435 0.31467 0.41879 0.0
C461 C 0.18784 0.30105 0.42632 0.0
C462 C 0.16345 0.30253 0.4232 0.0
C463 C 0.15552 0.31758 0.41252 0.0
H464 H 0.19393 0.28937 0.43459 0.0
H465 H 0.11866 0.43746 0.33143 0.0
H466 H 0.93238 0.98173 0.60488 0.0
H467 H 0.90289 0.95458 0.61506 0.0
H468 H 0.9537 0.93422 0.64676 0.0
H469 H 0.98341 0.96108 0.63655 0.0
H470 H 0.93478 0.89585 0.63441 0.0
H471 H 0.90441 0.96795 0.65474 0.0
H472 H 0.88981 0.00961 0.65493 0.0
H473 H 0.83156 0.99003 0.62807 0.0
H474 H 0.84599 0.9483 0.62756 0.0
H475 H 0.8538 0.8209 0.67043 0.0
H476 H 0.88094 0.85416 0.66544 0.0
H477 H 0.8336 0.87859 0.6329 0.0
H478 H 0.80615 0.84571 0.63799 0.0
H479 H 0.85113 0.91579 0.64738 0.0
H480 H 0.88296 0.84527 0.62531 0.0
H481 H 0.89742 0.80357 0.62437 0.0
H482 H 0.95291 0.82042 0.65372 0.0
H483 H 0.93857 0.86216 0.65497 0.0
C484 C 0.93718 0.97175 0.61414 0.0
C485 C 0.9603 0.97348 0.61985 0.0
C486 C 0.92025 0.9563 0.61999 0.0
C487 C 0.92606 0.94245 0.63171 0.0
C488 C 0.94886 0.94473 0.6377 0.0
C489 C 0.9658 0.96014 0.63186 0.0
C490 C 0.90905 0.92424 0.63706 0.0
C491 C 0.91663 0.9003 0.63751 0.0
C492 C 0.88517 0.92995 0.64072 0.0
C493 C 0.87641 0.95503 0.64102 0.0
C494 C 0.88859 0.97256 0.64879 0.0
C495 C 0.88033 0.99619 0.64897 0.0
C496 C 0.8598 0.00248 0.64149 0.0
C497 C 0.84746 0.98514 0.63385 0.0
C498 C 0.85567 0.96149 0.63362 0.0
C499 C 0.84907 0.83345 0.66228 0.0
C500 C 0.82793 0.83052 0.65452 0.0
C501 C 0.86463 0.85241 0.65942 0.0
C502 C 0.85946 0.86864 0.64866 0.0
C503 C 0.83796 0.86626 0.64124 0.0
C504 C 0.82234 0.84737 0.64413 0.0
C505 C 0.8769 0.88747 0.6447 0.0
C506 C 0.86938 0.91145 0.64444 0.0
C507 C 0.90083 0.88182 0.64112 0.0
C508 C 0.90953 0.85676 0.64035 0.0
C509 C 0.89813 0.84003 0.63164 0.0
C510 C 0.90632 0.8164 0.63104 0.0
C511 C 0.92602 0.80933 0.63902 0.0
C512 C 0.93762 0.82591 0.64757 0.0
C513 C 0.92948 0.84956 0.64823 0.0
H514 H 0.93234 0.79103 0.63854 0.0
H515 H 0.85343 0.02078 0.64165 0.0
H516 H 0.45325 0.5985 0.88041 0.0
H517 H 0.42285 0.62889 0.87619 0.0
H518 H 0.368 0.58037 0.89053 0.0
H519 H 0.39842 0.54948 0.89445 0.0
H520 H 0.35375 0.60195 0.86765 0.0
H521 H 0.38585 0.62844 0.91063 0.0
H522 H 0.41697 0.63921 0.92772 0.0
H523 H 0.44115 0.69602 0.90107 0.0
H524 H 0.4104 0.68538 0.88372 0.0
H525 H 0.27256 0.70336 0.86283 0.0
H526 H 0.29532 0.66993 0.87296 0.0
H527 H 0.36047 0.69874 0.85562 0.0
H528 H 0.33807 0.7318 0.84542 0.0
H529 H 0.3641 0.68558 0.88397 0.0
H530 H 0.3348 0.65389 0.83984 0.0
H531 H 0.30306 0.64272 0.82321 0.0
H532 H 0.27221 0.59537 0.85354 0.0
H533 H 0.30362 0.60653 0.87042 0.0
C534 C 0.43476 0.59428 0.88275 0.0
C535 C 0.42827 0.57158 0.8878 0.0
C536 C 0.41737 0.61176 0.88041 0.0
C537 C 0.39316 0.60708 0.88328 0.0
C538 C 0.38658 0.58442 0.88831 0.0
C539 C 0.40399 0.56681 0.89056 0.0
C540 C 0.37481 0.62568 0.88044 0.0
C541 C 0.35572 0.62011 0.87149 0.0
C542 C 0.37737 0.64943 0.88539 0.0
C543 C 0.39587 0.656 0.89583 0.0
C544 C 0.3979 0.64313 0.90836 0.0
C545 C 0.41546 0.64923 0.91811 0.0
C546 C 0.43104 0.66826 0.91547 0.0
C547 C 0.42906 0.68128 0.9031 0.0
C548 C 0.41154 0.67524 0.89331 0.0
C549 C 0.29173 0.7025 0.86118 0.0
C550 C 0.30351 0.72015 0.85329 0.0
C551 C 0.30467 0.68343 0.86696 0.0
C552 C 0.32955 0.68194 0.86502 0.0
C553 C 0.34129 0.69964 0.85726 0.0
C554 C 0.32841 0.71845 0.85137 0.0
C555 C 0.34368 0.66192 0.87087 0.0
C556 C 0.36192 0.66728 0.88041 0.0
C557 C 0.34018 0.63797 0.86659 0.0
C558 C 0.32135 0.63128 0.85644 0.0
C559 C 0.32111 0.64128 0.843 0.0
C560 C 0.30322 0.63491 0.83353 0.0
C561 C 0.28558 0.61842 0.83733 0.0
C562 C 0.28585 0.60819 0.85062 0.0
C563 C 0.30369 0.61453 0.86014 0.0
H564 H 0.27174 0.6135 0.82998 0.0
H565 H 0.44463 0.67295 0.92303 0.0
H566 H 0.52986 0.03331 0.13248 0.0
H567 H 0.56177 0.05816 0.14241 0.0
H568 H 0.58514 0.07706 0.10101 0.0
H569 H 0.55383 0.0521 0.09107 0.0
H570 H 0.6226 0.06938 0.1173 0.0
H571 H 0.54815 0.11352 0.12015 0.0
H572 H 0.50639 0.12049 0.12748 0.0
H573 H 0.5275 0.1159 0.17039 0.0
H574 H 0.56936 0.10855 0.1633 0.0
H575 H 0.67214 0.18459 0.11919 0.0
H576 H 0.64496 0.15077 0.11627 0.0
H577 H 0.64708 0.13725 0.16046 0.0
H578 H 0.67475 0.17106 0.1635 0.0
H579 H 0.59921 0.13794 0.14722 0.0
H580 H 0.67598 0.10052 0.14304 0.0
H581 H 0.71734 0.09652 0.13436 0.0
H582 H 0.69121 0.09096 0.09244 0.0
H583 H 0.6497 0.09532 0.10084 0.0
C584 C 0.54201 0.04253 0.12551 0.0
C585 C 0.53921 0.04088 0.11099 0.0
C586 C 0.56015 0.05679 0.1312 0.0
C587 C 0.57565 0.06968 0.12244 0.0
C588 C 0.57341 0.06727 0.10797 0.0
C589 C 0.55539 0.05305 0.1023 0.0
C590 C 0.59355 0.08664 0.12814 0.0
C591 C 0.61748 0.08435 0.12385 0.0
C592 C 0.58697 0.1059 0.13694 0.0
C593 C 0.56181 0.11016 0.1412 0.0
C594 C 0.54384 0.11377 0.13115 0.0
C595 C 0.52016 0.11784 0.13526 0.0
C596 C 0.51429 0.11857 0.14939 0.0
C597 C 0.53208 0.11527 0.15945 0.0
C598 C 0.55577 0.11115 0.15539 0.0
C599 C 0.66682 0.1745 0.12832 0.0
C600 C 0.6756 0.18045 0.14158 0.0
C601 C 0.65137 0.15513 0.12662 0.0
C602 C 0.64422 0.14149 0.13814 0.0
C603 C 0.65251 0.14759 0.15146 0.0
C604 C 0.66832 0.16682 0.15315 0.0
C605 C 0.62798 0.12094 0.13606 0.0
C606 C 0.60441 0.1226 0.14098 0.0
C607 C 0.63478 0.10129 0.12768 0.0
C608 C 0.65972 0.09839 0.12258 0.0
C609 C 0.67906 0.09862 0.13196 0.0
C610 C 0.70253 0.09626 0.12709 0.0
C611 C 0.70691 0.09352 0.11285 0.0
C612 C 0.6878 0.09308 0.10346 0.0
C613 C 0.66429 0.09546 0.10828 0.0
H614 H 0.72509 0.09171 0.1091 0.0
H615 H 0.49597 0.12177 0.15257 0.0
H616 H 0.21342 0.70837 0.12972 0.0
H617 H 0.19115 0.67287 0.12205 0.0
H618 H 0.12637 0.70242 0.13954 0.0
H619 H 0.14848 0.73734 0.1475 0.0
H620 H 0.1305 0.65784 0.14696 0.0
H621 H 0.13834 0.70145 0.10374 0.0
H622 H 0.16031 0.72152 0.08476 0.0
H623 H 0.19735 0.65604 0.07553 0.0
H624 H 0.1758 0.63565 0.09459 0.0
H625 H 0.03631 0.59727 0.11362 0.0
H626 H 0.0659 0.62783 0.11953 0.0
H627 H 0.12298 0.57912 0.10898 0.0
H628 H 0.09341 0.54815 0.10321 0.0
H629 H 0.12727 0.62887 0.09816 0.0
H630 H 0.11566 0.58487 0.14056 0.0
H631 H 0.0918 0.56565 0.15905 0.0
H632 H 0.0601 0.6334 0.16937 0.0
H633 H 0.08351 0.65298 0.15079 0.0
C634 C 0.19441 0.70729 0.13184 0.0
C635 C 0.18272 0.72558 0.13926 0.0
C636 C 0.18169 0.68705 0.12742 0.0
C637 C 0.15705 0.685 0.13018 0.0
C638 C 0.14538 0.70349 0.13737 0.0
C639 C 0.15806 0.7235 0.14189 0.0
C640 C 0.14324 0.66346 0.12601 0.0
C641 C 0.12972 0.65166 0.13626 0.0
C642 C 0.14272 0.65488 0.11213 0.0
C643 C 0.15568 0.66711 0.1007 0.0
C644 C 0.15132 0.69139 0.09774 0.0
C645 C 0.16366 0.70281 0.08696 0.0
C646 C 0.18027 0.69008 0.07898 0.0
C647 C 0.18452 0.66589 0.08174 0.0
C648 C 0.17224 0.65439 0.09253 0.0
C649 C 0.05514 0.59305 0.11249 0.0
C650 C 0.06255 0.57027 0.10802 0.0
C651 C 0.072 0.61052 0.11588 0.0
C652 C 0.09655 0.60563 0.11473 0.0
C653 C 0.10408 0.58316 0.10992 0.0
C654 C 0.08719 0.5655 0.10671 0.0
C655 C 0.11416 0.62393 0.11904 0.0
C656 C 0.12838 0.63498 0.10886 0.0
C657 C 0.1152 0.63203 0.13296 0.0
C658 C 0.1012 0.62035 0.1442 0.0
C659 C 0.10345 0.59564 0.1467 0.0
C660 C 0.09004 0.58468 0.15721 0.0
C661 C 0.07441 0.59829 0.16536 0.0
C662 C 0.0722 0.62289 0.16304 0.0
C663 C 0.08556 0.63393 0.15253 0.0
H664 H 0.06404 0.58977 0.17349 0.0
H665 H 0.1898 0.69895 0.07063 0.0
H666 H 0.54769 0.93788 0.41426 0.0
H667 H 0.58095 0.91452 0.4051 0.0
H668 H 0.56812 0.94334 0.36408 0.0
H669 H 0.53425 0.96642 0.37314 0.0
H670 H 0.57374 0.89714 0.36245 0.0
H671 H 0.61795 0.96002 0.38326 0.0
H672 H 0.62984 0.98861 0.40155 0.0
H673 H 0.65044 0.93036 0.42816 0.0
H674 H 0.63836 0.90139 0.41011 0.0
H675 H 0.70534 0.84613 0.35936 0.0
H676 H 0.67754 0.87947 0.36286 0.0
H677 H 0.62032 0.82938 0.37075 0.0
H678 H 0.64779 0.79605 0.36704 0.0
H679 H 0.65339 0.89245 0.38517 0.0
H680 H 0.56774 0.85134 0.35994 0.0
H681 H 0.55725 0.82523 0.34016 0.0
H682 H 0.62237 0.84499 0.31934 0.0
H683 H 0.63309 0.87148 0.3389 0.0
C684 C 0.55205 0.93949 0.40331 0.0
C685 C 0.53828 0.954 0.39443 0.0
C686 C 0.57121 0.9262 0.3981 0.0
C687 C 0.57725 0.92737 0.38392 0.0
C688 C 0.56381 0.94219 0.37506 0.0
C689 C 0.54451 0.95541 0.38026 0.0
C690 C 0.59664 0.91194 0.37832 0.0
C691 C 0.59122 0.89625 0.36734 0.0
C692 C 0.61968 0.91117 0.38446 0.0
C693 C 0.62711 0.92852 0.39534 0.0
C694 C 0.62487 0.9533 0.39305 0.0
C695 C 0.63166 0.96957 0.40337 0.0
C696 C 0.64086 0.9613 0.41602 0.0
C697 C 0.64332 0.93674 0.41836 0.0
C698 C 0.63653 0.92038 0.40807 0.0
C699 C 0.68679 0.84221 0.36173 0.0
C700 C 0.67877 0.81842 0.36291 0.0
C701 C 0.67095 0.86129 0.36375 0.0
C702 C 0.6468 0.85694 0.36692 0.0
C703 C 0.63876 0.8332 0.36805 0.0
C704 C 0.65454 0.81414 0.366 0.0
C705 C 0.63012 0.87707 0.36969 0.0
C706 C 0.63604 0.89359 0.38014 0.0
C707 C 0.60776 0.87898 0.36284 0.0
C708 C 0.60129 0.86327 0.35095 0.0
C709 C 0.57976 0.85022 0.35111 0.0
C710 C 0.57379 0.83533 0.33994 0.0
C711 C 0.58916 0.83341 0.32852 0.0
C712 C 0.61051 0.84643 0.32822 0.0
C713 C 0.61657 0.86136 0.33936 0.0
H714 H 0.58451 0.82186 0.31989 0.0
H715 H 0.6461 0.97394 0.424 0.0
H716 H 0.31825 0.30128 0.66053 0.0
H717 H 0.33945 0.33623 0.65178 0.0
H718 H 0.32427 0.31464 0.60957 0.0
H719 H 0.303 0.27922 0.6183 0.0
H720 H 0.37138 0.32679 0.61332 0.0
H721 H 0.29556 0.36211 0.62281 0.0
H722 H 0.25934 0.37117 0.63651 0.0
H723 H 0.30237 0.40521 0.66782 0.0
H724 H 0.3389 0.39605 0.65441 0.0
H725 H 0.42543 0.43614 0.59054 0.0
H726 H 0.39621 0.40401 0.59393 0.0
H727 H 0.39951 0.41474 0.63837 0.0
H728 H 0.42832 0.44709 0.63508 0.0
H729 H 0.35423 0.40912 0.62997 0.0
H730 H 0.42985 0.36882 0.62223 0.0
H731 H 0.46649 0.35909 0.60905 0.0
H732 H 0.42387 0.33408 0.5748 0.0
H733 H 0.38696 0.34396 0.58773 0.0
C734 C 0.31924 0.30397 0.64938 0.0
C735 C 0.30894 0.28745 0.64011 0.0
C736 C 0.33126 0.32407 0.64439 0.0
C737 C 0.33319 0.32819 0.63003 0.0
C738 C 0.32286 0.31182 0.6207 0.0
C739 C 0.31069 0.29166 0.6257 0.0
C740 C 0.34703 0.34906 0.62494 0.0
C741 C 0.36733 0.34489 0.61669 0.0
C742 C 0.34196 0.37258 0.62955 0.0
C743 C 0.32 0.37825 0.63763 0.0
C744 C 0.29732 0.37138 0.63267 0.0
C745 C 0.27673 0.37656 0.64037 0.0
C746 C 0.27855 0.38873 0.65304 0.0
C747 C 0.30098 0.39578 0.65801 0.0
C748 C 0.32164 0.39063 0.65034 0.0
C749 C 0.4199 0.43168 0.60104 0.0
C750 C 0.42927 0.4441 0.61255 0.0
C751 C 0.40325 0.41327 0.60295 0.0
C752 C 0.39585 0.40683 0.61641 0.0
C753 C 0.40494 0.41944 0.62789 0.0
C754 C 0.42149 0.43787 0.62599 0.0
C755 C 0.37893 0.38675 0.61868 0.0
C756 C 0.35803 0.39109 0.6264 0.0
C757 C 0.3835 0.36339 0.61362 0.0
C758 C 0.40567 0.35739 0.60587 0.0
C759 C 0.4283 0.36143 0.61184 0.0
C760 C 0.44911 0.35585 0.60443 0.0
C761 C 0.44751 0.34604 0.59108 0.0
C762 C 0.42508 0.34172 0.58513 0.0
C763 C 0.40422 0.34729 0.5925 0.0
H764 H 0.46364 0.34173 0.58535 0.0
H765 H 0.26258 0.39272 0.65899 0.0
H766 H 0.91725 0.02643 0.9028 0.0
H767 H 0.88676 0.05195 0.89219 0.0
H768 H 0.93372 0.06567 0.85743 0.0
H769 H 0.96442 0.0404 0.86802 0.0
H770 H 0.917 0.10641 0.86828 0.0
H771 H 0.88325 0.03226 0.8533 0.0
H772 H 0.86815 0.99101 0.85579 0.0
H773 H 0.8135 0.01554 0.88381 0.0
H774 H 0.82849 0.05692 0.88165 0.0
H775 H 0.83189 0.17511 0.83082 0.0
H776 H 0.85932 0.14265 0.83698 0.0
H777 H 0.81736 0.12749 0.87364 0.0
H778 H 0.78975 0.15981 0.86754 0.0
H779 H 0.83158 0.08636 0.8602 0.0
H780 H 0.86717 0.15961 0.87651 0.0
H781 H 0.88243 0.20087 0.87439 0.0
H782 H 0.93397 0.17764 0.84408 0.0
H783 H 0.91876 0.13627 0.84587 0.0
C784 C 0.92096 0.03454 0.89278 0.0
C785 C 0.94334 0.03149 0.8863 0.0
C786 C 0.90346 0.04906 0.8867 0.0
C787 C 0.90794 0.06067 0.87399 0.0
C788 C 0.92991 0.05691 0.86725 0.0
C789 C 0.94741 0.04239 0.87331 0.0
C790 C 0.89058 0.07829 0.86836 0.0
C791 C 0.89843 0.10189 0.86625 0.0
C792 C 0.86621 0.07255 0.86607 0.0
C793 C 0.85714 0.04768 0.86741 0.0
C794 C 0.86814 0.02884 0.86009 0.0
C795 C 0.85957 0.00543 0.86142 0.0
C796 C 0.83991 0.00065 0.86998 0.0
C797 C 0.82874 0.01927 0.8772 0.0
C798 C 0.83725 0.04271 0.87591 0.0
C799 C 0.8284 0.16479 0.84015 0.0
C800 C 0.80874 0.17017 0.84875 0.0
C801 C 0.84411 0.14627 0.84366 0.0
C802 C 0.84048 0.13283 0.85583 0.0
C803 C 0.82047 0.13766 0.8642 0.0
C804 C 0.80479 0.15622 0.86073 0.0
C805 C 0.85806 0.11438 0.86016 0.0
C806 C 0.85023 0.09073 0.86208 0.0
C807 C 0.88247 0.12004 0.86231 0.0
C808 C 0.89163 0.14491 0.8612 0.0
C809 C 0.8816 0.16334 0.8693 0.0
C810 C 0.89028 0.18674 0.86817 0.0
C811 C 0.90911 0.19189 0.85907 0.0
C812 C 0.91935 0.17363 0.8511 0.0
C813 C 0.91071 0.15021 0.85217 0.0
H814 H 0.91581 0.21002 0.85822 0.0
H815 H 0.83331 0.98252 0.87099 0.0
H816 H 0.95428 0.59362 0.5972 0.0
H817 H 0.92562 0.62529 0.60275 0.0
H818 H 0.87951 0.57343 0.62255 0.0
H819 H 0.90761 0.5416 0.61656 0.0
H820 H 0.85366 0.60222 0.60764 0.0
H821 H 0.91713 0.61318 0.6411 0.0
H822 H 0.95867 0.61981 0.64894 0.0
H823 H 0.96113 0.68609 0.62633 0.0
H824 H 0.91972 0.6797 0.61819 0.0
H825 H 0.78247 0.68091 0.64882 0.0
H826 H 0.8099 0.65025 0.64011 0.0
H827 H 0.84952 0.70421 0.61771 0.0
H828 H 0.82231 0.735 0.62643 0.0
H829 H 0.8787 0.67555 0.63285 0.0
H830 H 0.81452 0.66523 0.60031 0.0
H831 H 0.7727 0.65888 0.59295 0.0
H832 H 0.77139 0.5914 0.61437 0.0
H833 H 0.81312 0.5975 0.62202 0.0
C834 C 0.93802 0.58897 0.60273 0.0
C835 C 0.93321 0.56512 0.60646 0.0
C836 C 0.9217 0.60712 0.60596 0.0
C837 C 0.90053 0.60182 0.61325 0.0
C838 C 0.89569 0.57798 0.61692 0.0
C839 C 0.91182 0.5598 0.61352 0.0
C840 C 0.88328 0.621 0.61701 0.0
C841 C 0.85912 0.61812 0.6133 0.0
C842 C 0.89045 0.64207 0.62408 0.0
C843 C 0.9154 0.64585 0.62893 0.0
C844 C 0.92659 0.62907 0.63771 0.0
C845 C 0.9501 0.63281 0.64223 0.0
C846 C 0.96252 0.65336 0.63813 0.0
C847 C 0.95148 0.67019 0.62949 0.0
C848 C 0.928 0.66652 0.62493 0.0
C849 C 0.79687 0.68623 0.64193 0.0
C850 C 0.80023 0.71041 0.63835 0.0
C851 C 0.81248 0.66867 0.63692 0.0
C852 C 0.83168 0.67495 0.62821 0.0
C853 C 0.83483 0.699 0.62443 0.0
C854 C 0.8192 0.71655 0.62939 0.0
C855 C 0.84914 0.6566 0.62359 0.0
C856 C 0.87332 0.65967 0.62714 0.0
C857 C 0.84197 0.63567 0.61645 0.0
C858 C 0.81688 0.63194 0.61184 0.0
C859 C 0.80525 0.64913 0.60355 0.0
C860 C 0.78158 0.64556 0.5993 0.0
C861 C 0.76938 0.62478 0.60322 0.0
C862 C 0.78085 0.6075 0.61136 0.0
C863 C 0.80453 0.61099 0.61564 0.0
H864 H 0.75105 0.62204 0.59992 0.0
H865 H 0.98068 0.65628 0.64167 0.0
H866 H 0.14547 0.19397 0.34137 0.0
H867 H 0.11702 0.16229 0.34718 0.0
H868 H 0.1737 0.12155 0.36644 0.0
H869 H 0.20241 0.15291 0.36038 0.0
H870 H 0.14471 0.09272 0.35201 0.0
H871 H 0.135 0.15482 0.38604 0.0
H872 H 0.12819 0.19603 0.39436 0.0
H873 H 0.05944 0.19706 0.37435 0.0
H874 H 0.06599 0.15595 0.36575 0.0
H875 H 0.07147 0.0193 0.39608 0.0
H876 H 0.10087 0.04689 0.3861 0.0
H877 H 0.04426 0.08487 0.36498 0.0
H878 H 0.01477 0.05751 0.37493 0.0
H879 H 0.0731 0.11464 0.37981 0.0
H880 H 0.08276 0.051 0.34671 0.0
H881 H 0.09009 0.00947 0.33913 0.0
H882 H 0.15945 0.01084 0.3584 0.0
H883 H 0.1524 0.05229 0.36628 0.0
C884 C 0.15193 0.17821 0.34677 0.0
C885 C 0.17616 0.17605 0.35052 0.0
C886 C 0.13563 0.16015 0.35012 0.0
C887 C 0.14317 0.13974 0.35745 0.0
C888 C 0.16749 0.13717 0.36081 0.0
C889 C 0.18385 0.15516 0.35738 0.0
C890 C 0.12557 0.12146 0.36202 0.0
C891 C 0.12918 0.09746 0.35821 0.0
C892 C 0.10512 0.1277 0.36994 0.0
C893 C 0.1011 0.1524 0.37513 0.0
C894 C 0.11851 0.1639 0.38332 0.0
C895 C 0.11468 0.18723 0.3881 0.0
C896 C 0.09342 0.19918 0.38485 0.0
C897 C 0.07591 0.18779 0.37684 0.0
C898 C 0.07967 0.16448 0.37202 0.0
C899 C 0.0653 0.03333 0.38917 0.0
C900 C 0.04077 0.03627 0.38636 0.0
C901 C 0.08214 0.04903 0.38344 0.0
C902 C 0.07472 0.06788 0.37478 0.0
C903 C 0.05033 0.07045 0.37165 0.0
C904 C 0.03352 0.05474 0.37733 0.0
C905 C 0.09214 0.08592 0.36974 0.0
C906 C 0.08855 0.10991 0.37353 0.0
C907 C 0.11266 0.07959 0.36193 0.0
C908 C 0.11695 0.05468 0.3572 0.0
C909 C 0.09949 0.04238 0.34944 0.0
C910 C 0.10362 0.01887 0.34507 0.0
C911 C 0.1252 0.0075 0.34831 0.0
C912 C 0.14273 0.01965 0.35591 0.0
C913 C 0.13869 0.04316 0.36032 0.0
H914 H 0.12835 0.9893 0.34491 0.0
H915 H 0.09049 0.21724 0.38856 0.0
H916 H 0.56568 0.40663 0.08027 0.0
H917 H 0.59555 0.37714 0.08767 0.0
H918 H 0.62145 0.42627 0.11887 0.0
H919 H 0.59187 0.45584 0.11152 0.0
H920 H 0.65813 0.40445 0.1051 0.0
H921 H 0.58543 0.38157 0.12838 0.0
H922 H 0.54272 0.37077 0.12985 0.0
H923 H 0.55493 0.31022 0.10324 0.0
H924 H 0.59776 0.32081 0.10152 0.0
H925 H 0.7168 0.32606 0.15261 0.0
H926 H 0.69175 0.3555 0.14067 0.0
H927 H 0.66953 0.3016 0.11122 0.0
H928 H 0.69435 0.272 0.12315 0.0
H929 H 0.63173 0.32493 0.12228 0.0
H930 H 0.7063 0.34655 0.10113 0.0
H931 H 0.74895 0.35793 0.10058 0.0
H932 H 0.73329 0.42146 0.12404 0.0
H933 H 0.69058 0.41029 0.1249 0.0
C934 C 0.57778 0.41117 0.08868 0.0
C935 C 0.57632 0.43352 0.09536 0.0
C936 C 0.5948 0.3943 0.0929 0.0
C937 C 0.61059 0.3995 0.10388 0.0
C938 C 0.60945 0.42194 0.11037 0.0
C939 C 0.59243 0.43876 0.10619 0.0
C940 C 0.62793 0.38137 0.10888 0.0
C941 C 0.65239 0.38711 0.10896 0.0
C942 C 0.62041 0.35863 0.11365 0.0
C943 C 0.59472 0.35214 0.11469 0.0
C944 C 0.57897 0.36606 0.12275 0.0
C945 C 0.55475 0.35996 0.12365 0.0
C946 C 0.54608 0.33989 0.11659 0.0
C947 C 0.56166 0.3258 0.10867 0.0
C948 C 0.58592 0.33182 0.10775 0.0
C949 C 0.70686 0.32054 0.14348 0.0
C950 C 0.70749 0.29666 0.13888 0.0
C951 C 0.69261 0.33741 0.13663 0.0
C952 C 0.67884 0.33074 0.12503 0.0
C953 C 0.68 0.3071 0.12017 0.0
C954 C 0.69426 0.29023 0.12698 0.0
C955 C 0.66202 0.348 0.11857 0.0
C956 C 0.63758 0.34213 0.11826 0.0
C957 C 0.66958 0.37067 0.11369 0.0
C958 C 0.69526 0.37747 0.11318 0.0
C959 C 0.71197 0.36285 0.10627 0.0
C960 C 0.73616 0.36928 0.10589 0.0
C961 C 0.74383 0.39037 0.1123 0.0
C962 C 0.72732 0.40511 0.11909 0.0
C963 C 0.70312 0.39875 0.11951 0.0
H964 H 0.76256 0.39532 0.11199 0.0
H965 H 0.5273 0.33522 0.11728 0.0
H966 H 0.4621 0.91796 0.90851 0.0
H967 H 0.42955 0.89469 0.89861 0.0
H968 H 0.43269 0.93681 0.861 0.0
H969 H 0.46558 0.96057 0.87096 0.0
H970 H 0.38582 0.92798 0.87003 0.0
H971 H 0.45596 0.88294 0.86011 0.0
H972 H 0.49463 0.86305 0.86457 0.0
H973 H 0.46114 0.81686 0.89453 0.0
H974 H 0.42233 0.83672 0.89044 0.0
H975 H 0.3092 0.83773 0.83912 0.0
H976 H 0.34246 0.86558 0.84302 0.0
H977 H 0.35308 0.83593 0.88403 0.0
H978 H 0.31998 0.80817 0.88027 0.0
H979 H 0.395 0.83963 0.86874 0.0
H980 H 0.3261 0.88847 0.88045 0.0
H981 H 0.28733 0.9079 0.87561 0.0
H982 H 0.31881 0.94653 0.84155 0.0
H983 H 0.35772 0.92705 0.84608 0.0
C984 C 0.45592 0.92243 0.89814 0.0
C985 C 0.46659 0.94102 0.89047 0.0
C986 C 0.43732 0.90902 0.89248 0.0
C987 C 0.42901 0.91376 0.87899 0.0
C988 C 0.439 0.9328 0.87141 0.0
C989 C 0.45776 0.94631 0.8771 0.0
C990 C 0.41005 0.89839 0.87298 0.0
C991 C 0.38796 0.9087 0.86944 0.0
C992 C 0.41282 0.87323 0.87235 0.0
C993 C 0.43623 0.86143 0.875 0.0
C994 C 0.45687 0.8687 0.86774 0.0
C995 C 0.47881 0.8574 0.87019 0.0
C996 C 0.48032 0.83871 0.87982 0.0
C997 C 0.45993 0.83133 0.88707 0.0
C998 C 0.43795 0.84259 0.88468 0.0
C999 C 0.3186 0.8372 0.84898 0.0
C1000 C 0.31198 0.82075 0.85939 0.0
C1001 C 0.33752 0.85316 0.85119 0.0
C1002 C 0.35014 0.85282 0.86382 0.0
C1003 C 0.34356 0.83643 0.8742 0.0
C1004 C 0.32459 0.82063 0.87205 0.0
C1005 C 0.37059 0.86913 0.86627 0.0
C1006 C 0.393 0.85894 0.8691 0.0
C1007 C 0.36808 0.89433 0.86618 0.0
C1008 C 0.34473 0.90608 0.86349 0.0
C1009 C 0.3247 0.90094 0.87185 0.0
C1010 C 0.30271 0.912 0.86918 0.0
C1011 C 0.30059 0.92838 0.85825 0.0
C1012 C 0.32047 0.9338 0.85 0.0
C1013 C 0.3425 0.92276 0.85261 0.0
H1014 H 0.28355 0.93693 0.85621 0.0
H1015 H 0.49726 0.82986 0.88162 0.0
H1016 H 0.90139 0.45638 0.89154 0.0
H1017 H 0.86858 0.42826 0.88739 0.0
H1018 H 0.91809 0.36916 0.89038 0.0
H1019 H 0.95082 0.39705 0.8948 0.0
H1020 H 0.86181 0.39877 0.86666 0.0
H1021 H 0.89114 0.32005 0.90279 0.0
H1022 H 0.91044 0.31445 0.92565 0.0
H1023 H 0.88728 0.38444 0.93831 0.0
H1024 H 0.86754 0.39033 0.9156 0.0
H1025 H 0.82388 0.28767 0.84204 0.0
H1026 H 0.84581 0.32163 0.85148 0.0
H1027 H 0.80077 0.32115 0.88798 0.0
H1028 H 0.77873 0.28672 0.87863 0.0
H1029 H 0.84719 0.32582 0.89492 0.0
H1030 H 0.79361 0.36472 0.86411 0.0
H1031 H 0.77177 0.37194 0.8422 0.0
H1032 H 0.83819 0.38503 0.821 0.0
H1033 H 0.86047 0.37755 0.84274 0.0
C1034 C 0.90525 0.43738 0.89143 0.0
C1035 C 0.92872 0.42894 0.89348 0.0
C1036 C 0.88648 0.42134 0.88905 0.0
C1037 C 0.89081 0.39659 0.88873 0.0
C1038 C 0.91421 0.38815 0.89087 0.0
C1039 C 0.93295 0.40414 0.8933 0.0
C1040 C 0.87125 0.37958 0.88534 0.0
C1041 C 0.85848 0.38293 0.8729 0.0
C1042 C 0.86643 0.35922 0.89366 0.0
C1043 C 0.87799 0.35568 0.90744 0.0
C1044 C 0.89004 0.33419 0.91047 0.0
C1045 C 0.90109 0.33098 0.9234 0.0
C1046 C 0.90013 0.3491 0.93341 0.0
C1047 C 0.88807 0.37045 0.93053 0.0
C1048 C 0.87698 0.37375 0.91762 0.0
C1049 C 0.8185 0.29479 0.85206 0.0
C1050 C 0.79951 0.28451 0.85957 0.0
C1051 C 0.83101 0.31431 0.85741 0.0
C1052 C 0.82472 0.32413 0.87034 0.0
C1053 C 0.80583 0.31389 0.87794 0.0
C1054 C 0.79324 0.29428 0.87257 0.0
C1055 C 0.83856 0.34459 0.87598 0.0
C1056 C 0.85026 0.34187 0.88881 0.0
C1057 C 0.84202 0.3658 0.86818 0.0
C1058 C 0.82872 0.37044 0.85506 0.0
C1059 C 0.80358 0.36898 0.85476 0.0
C1060 C 0.79112 0.37314 0.84237 0.0
C1061 C 0.80359 0.37891 0.83021 0.0
C1062 C 0.82855 0.38057 0.83042 0.0
C1063 C 0.8411 0.3764 0.84279 0.0
H1064 H 0.79391 0.38212 0.82063 0.0
H1065 H 0.90872 0.34659 0.94341 0.0
H1066 H 0.30638 0.15341 0.63241 0.0
H1067 H 0.33244 0.1189 0.6287 0.0
H1068 H 0.38716 0.15196 0.65392 0.0
H1069 H 0.36139 0.18683 0.65742 0.0
H1070 H 0.40607 0.13429 0.63105 0.0
H1071 H 0.35297 0.10462 0.66611 0.0
H1072 H 0.31394 0.09558 0.6769 0.0
H1073 H 0.29616 0.04949 0.64266 0.0
H1074 H 0.33496 0.05851 0.63156 0.0
H1075 H 0.48088 0.03387 0.63314 0.0
H1076 H 0.45235 0.06306 0.64222 0.0
H1077 H 0.39874 0.03746 0.61355 0.0
H1078 H 0.42711 0.00802 0.60443 0.0
H1079 H 0.37977 0.05067 0.6396 0.0
H1080 H 0.43183 0.08276 0.60404 0.0
H1081 H 0.47115 0.09133 0.59347 0.0
H1082 H 0.49092 0.13298 0.62924 0.0
H1083 H 0.45183 0.12428 0.64013 0.0
C1084 C 0.32394 0.15333 0.63721 0.0
C1085 C 0.33181 0.17287 0.64521 0.0
C1086 C 0.33877 0.1335 0.63515 0.0
C1087 C 0.36164 0.13267 0.6412 0.0
C1088 C 0.36956 0.15219 0.64918 0.0
C1089 C 0.35479 0.1721 0.65117 0.0
C1090 C 0.37762 0.11185 0.63879 0.0
C1091 C 0.40043 0.11606 0.63317 0.0
C1092 C 0.37011 0.08798 0.64126 0.0
C1093 C 0.3468 0.08241 0.64794 0.0
C1094 C 0.34067 0.09269 0.66083 0.0
C1095 C 0.3186 0.08755 0.66701 0.0
C1096 C 0.30256 0.07201 0.66046 0.0
C1097 C 0.30859 0.06154 0.64772 0.0
C1098 C 0.33063 0.06664 0.64148 0.0
C1099 C 0.46287 0.03404 0.62896 0.0
C1100 C 0.45638 0.01886 0.6179 0.0
C1101 C 0.44661 0.05078 0.63415 0.0
C1102 C 0.42362 0.05268 0.62837 0.0
C1103 C 0.41645 0.03631 0.61811 0.0
C1104 C 0.43273 0.01955 0.61288 0.0
C1105 C 0.40806 0.07324 0.63193 0.0
C1106 C 0.38537 0.06897 0.63766 0.0
C1107 C 0.41566 0.09709 0.6296 0.0
C1108 C 0.439 0.10267 0.62296 0.0
C1109 C 0.44462 0.0936 0.60969 0.0
C1110 C 0.46686 0.09849 0.60364 0.0
C1111 C 0.48354 0.11266 0.61069 0.0
C1112 C 0.47799 0.12199 0.6238 0.0
C1113 C 0.4558 0.11709 0.62991 0.0
H1114 H 0.50072 0.11647 0.60597 0.0
H1115 H 0.28548 0.06805 0.66526 0.0
H1116 H 0.74349 0.67722 0.36208 0.0
H1117 H 0.71793 0.64388 0.36929 0.0
H1118 H 0.66997 0.69342 0.38954 0.0
H1119 H 0.6956 0.72673 0.38266 0.0
H1120 H 0.67415 0.65325 0.40453 0.0
H1121 H 0.65929 0.67366 0.35646 0.0
H1122 H 0.67042 0.68054 0.33194 0.0
H1123 H 0.69518 0.60798 0.32862 0.0
H1124 H 0.6845 0.60077 0.35321 0.0
H1125 H 0.56172 0.59521 0.40182 0.0
H1126 H 0.59601 0.62187 0.39904 0.0
H1127 H 0.63742 0.56377 0.38185 0.0
H1128 H 0.60309 0.5369 0.38454 0.0
H1129 H 0.64026 0.60448 0.36611 0.0
H1130 H 0.64958 0.58328 0.41401 0.0
H1131 H 0.63647 0.57731 0.43827 0.0
H1132 H 0.62024 0.65221 0.44178 0.0
H1133 H 0.63291 0.65858 0.41746 0.0
C1134 C 0.7277 0.68098 0.36825 0.0
C1135 C 0.72144 0.70465 0.37166 0.0
C1136 C 0.71307 0.66191 0.37232 0.0
C1137 C 0.69182 0.66621 0.37974 0.0
C1138 C 0.68624 0.68968 0.3838 0.0
C1139 C 0.70091 0.70873 0.3798 0.0
C1140 C 0.67448 0.64663 0.38244 0.0
C1141 C 0.66666 0.64264 0.39614 0.0
C1142 C 0.66503 0.63249 0.37151 0.0
C1143 C 0.67137 0.63677 0.35671 0.0
C1144 C 0.66728 0.65923 0.35053 0.0
C1145 C 0.67348 0.66318 0.33662 0.0
C1146 C 0.68357 0.64473 0.32874 0.0
C1147 C 0.68742 0.62227 0.33475 0.0
C1148 C 0.68129 0.61824 0.34867 0.0
C1149 C 0.57814 0.58803 0.39751 0.0
C1150 C 0.57967 0.56393 0.39338 0.0
C1151 C 0.59778 0.60327 0.39601 0.0
C1152 C 0.61933 0.59473 0.39037 0.0
C1153 C 0.62096 0.57068 0.38627 0.0
C1154 C 0.60135 0.55536 0.38783 0.0
C1155 C 0.63971 0.61128 0.38818 0.0
C1156 C 0.64805 0.61478 0.37455 0.0
C1157 C 0.64943 0.62508 0.39916 0.0
C1158 C 0.64204 0.62137 0.41386 0.0
C1159 C 0.64306 0.59846 0.41992 0.0
C1160 C 0.63573 0.595 0.43369 0.0
C1161 C 0.62748 0.61436 0.44156 0.0
C1162 C 0.62662 0.63723 0.43567 0.0
C1163 C 0.6339 0.64078 0.4219 0.0
H1164 H 0.62179 0.61164 0.45221 0.0
H1165 H 0.68835 0.64782 0.31797 0.0
H1166 H 0.15713 0.83145 0.17407 0.0
H1167 H 0.12914 0.86397 0.16878 0.0
H1168 H 0.16603 0.87734 0.1301 0.0
H1169 H 0.19405 0.84495 0.13527 0.0
H1170 H 0.1542 0.91924 0.14428 0.0
H1171 H 0.11646 0.84543 0.12968 0.0
H1172 H 0.10126 0.8044 0.13314 0.0
H1173 H 0.05337 0.82961 0.1649 0.0
H1174 H 0.06854 0.87077 0.16176 0.0
H1175 H 0.06923 0.97749 0.10151 0.0
H1176 H 0.09927 0.95243 0.11278 0.0
H1177 H 0.05105 0.93995 0.14714 0.0
H1178 H 0.02063 0.96459 0.13575 0.0
H1179 H 0.06829 0.89924 0.13811 0.0
H1180 H 0.10262 0.97401 0.15096 0.0
H1181 H 0.11776 0.01507 0.14759 0.0
H1182 H 0.1718 0.98886 0.11969 0.0
H1183 H 0.15679 0.94766 0.12272 0.0
C1184 C 0.15937 0.84141 0.16448 0.0
C1185 C 0.17769 0.8355 0.15503 0.0
C1186 C 0.14336 0.85995 0.16147 0.0
C1187 C 0.14546 0.87293 0.14901 0.0
C1188 C 0.16415 0.86754 0.13978 0.0
C1189 C 0.18004 0.84893 0.14272 0.0
C1190 C 0.1276 0.89141 0.14523 0.0
C1191 C 0.13542 0.91492 0.14285 0.0
C1192 C 0.10304 0.88581 0.14375 0.0
C1193 C 0.09384 0.86111 0.14561 0.0
C1194 C 0.10283 0.84218 0.13749 0.0
C1195 C 0.0942 0.81891 0.13937 0.0
C1196 C 0.07641 0.81439 0.14927 0.0
C1197 C 0.06718 0.83314 0.15726 0.0
C1198 C 0.07578 0.85644 0.15543 0.0
C1199 C 0.06512 0.96975 0.11157 0.0
C1200 C 0.04248 0.97295 0.1177 0.0
C1201 C 0.08239 0.9555 0.11805 0.0
C1202 C 0.0775 0.94442 0.13087 0.0
C1203 C 0.05522 0.94831 0.13725 0.0
C1204 C 0.03788 0.96245 0.13074 0.0
C1205 C 0.09484 0.92721 0.13697 0.0
C1206 C 0.08696 0.90382 0.13975 0.0
C1207 C 0.11932 0.93299 0.13885 0.0
C1208 C 0.12845 0.95775 0.137 0.0
C1209 C 0.11762 0.97701 0.14402 0.0
C1210 C 0.1262 0.00031 0.14219 0.0
C1211 C 0.1457 0.00458 0.13341 0.0
C1212 C 0.15669 0.98553 0.12647 0.0
C1213 C 0.14817 0.9622 0.12826 0.0
H1214 H 0.15232 0.02263 0.13201 0.0
H1215 H 0.06975 0.79636 0.15071 0.0
H1216 H 0.71054 0.8045 0.84617 0.0
H1217 H 0.68583 0.83609 0.85625 0.0
H1218 H 0.67195 0.79166 0.89212 0.0
H1219 H 0.6962 0.75971 0.88194 0.0
H1220 H 0.6318 0.81024 0.88279 0.0
H1221 H 0.70931 0.84119 0.89387 0.0
H1222 H 0.75087 0.85387 0.8893 0.0
H1223 H 0.72567 0.90728 0.86066 0.0
H1224 H 0.68397 0.8947 0.86492 0.0
H1225 H 0.57192 0.90191 0.92017 0.0
H1226 H 0.60198 0.87209 0.91368 0.0
H1227 H 0.61614 0.91061 0.87562 0.0
H1228 H 0.58641 0.94068 0.8821 0.0
H1229 H 0.65725 0.89492 0.88767 0.0
H1230 H 0.58008 0.86203 0.87564 0.0
H1231 H 0.53854 0.84965 0.88046 0.0
H1232 H 0.56355 0.79968 0.91119 0.0
H1233 H 0.60526 0.81208 0.9067 0.0
C1234 C 0.70244 0.80152 0.85627 0.0
C1235 C 0.70532 0.77958 0.86325 0.0
C1236 C 0.68839 0.81966 0.86205 0.0
C1237 C 0.67723 0.81635 0.87502 0.0
C1238 C 0.68041 0.79461 0.88211 0.0
C1239 C 0.69432 0.77639 0.87629 0.0
C1240 C 0.66116 0.83505 0.88079 0.0
C1241 C 0.63753 0.82866 0.8841 0.0
C1242 C 0.66845 0.85921 0.8822 0.0
C1243 C 0.69352 0.86686 0.87963 0.0
C1244 C 0.71264 0.85552 0.88652 0.0
C1245 C 0.73622 0.86271 0.884 0.0
C1246 C 0.74091 0.88133 0.87467 0.0
C1247 C 0.72202 0.89284 0.86787 0.0
C1248 C 0.6984 0.88571 0.87035 0.0
C1249 C 0.58151 0.90411 0.91045 0.0
C1250 C 0.57663 0.92356 0.9016 0.0
C1251 C 0.59865 0.88703 0.90675 0.0
C1252 C 0.61107 0.889 0.89409 0.0
C1253 C 0.60674 0.90875 0.88543 0.0
C1254 C 0.58965 0.92586 0.88913 0.0
C1255 C 0.62797 0.87006 0.8896 0.0
C1256 C 0.65168 0.87643 0.88649 0.0
C1257 C 0.6208 0.84586 0.88838 0.0
C1258 C 0.59576 0.83816 0.89094 0.0
C1259 C 0.57671 0.84852 0.88349 0.0
C1260 C 0.55313 0.84148 0.88616 0.0
C1261 C 0.54839 0.82393 0.89616 0.0
C1262 C 0.56724 0.81331 0.90347 0.0
C1263 C 0.59085 0.82033 0.90086 0.0
H1264 H 0.53014 0.81851 0.89824 0.0
H1265 H 0.75918 0.88687 0.87273 0.0
H1266 H 0.47212 0.47331 0.12148 0.0
H1267 H 0.44046 0.44835 0.13154 0.0
H1268 H 0.4237 0.42087 0.09071 0.0
H1269 H 0.45489 0.44592 0.08059 0.0
H1270 H 0.38377 0.42732 0.10522 0.0
H1271 H 0.46046 0.39012 0.11235 0.0
H1272 H 0.50222 0.38794 0.12058 0.0
H1273 H 0.47864 0.399 0.16266 0.0
H1274 H 0.43672 0.40157 0.15462 0.0
H1275 H 0.3626 0.29978 0.13429 0.0
H1276 H 0.38959 0.33232 0.12791 0.0
H1277 H 0.33509 0.38394 0.1386 0.0
H1278 H 0.30765 0.35135 0.14455 0.0
H1279 H 0.40961 0.36787 0.14057 0.0
H1280 H 0.33924 0.4321 0.11719 0.0
H1281 H 0.29929 0.43053 0.10623 0.0
H1282 H 0.31311 0.35887 0.09219 0.0
H1283 H 0.35322 0.36013 0.10291 0.0
C1284 C 0.46142 0.46225 0.11463 0.0
C1285 C 0.46618 0.46141 0.10025 0.0
C1286 C 0.44341 0.44793 0.1204 0.0
C1287 C 0.42996 0.4325 0.1119 0.0
C1288 C 0.43386 0.43262 0.09747 0.0
C1289 C 0.4518 0.4469 0.09171 0.0
C1290 C 0.41296 0.415 0.118 0.0
C1291 C 0.38933 0.41448 0.11306 0.0
C1292 C 0.42036 0.39792 0.128 0.0
C1293 C 0.44551 0.39634 0.13287 0.0
C1294 C 0.46421 0.39228 0.12334 0.0
C1295 C 0.4879 0.39093 0.12798 0.0
C1296 C 0.49309 0.3934 0.14214 0.0
C1297 C 0.47459 0.39715 0.15169 0.0
C1298 C 0.45087 0.39855 0.14711 0.0
C1299 C 0.35638 0.31806 0.13535 0.0
C1300 C 0.33292 0.32299 0.13979 0.0
C1301 C 0.37187 0.33667 0.13174 0.0
C1302 C 0.36429 0.36059 0.13259 0.0
C1303 C 0.34119 0.36561 0.13759 0.0
C1304 C 0.32555 0.34698 0.14103 0.0
C1305 C 0.38037 0.38007 0.12774 0.0
C1306 C 0.40386 0.38098 0.13293 0.0
C1307 C 0.37306 0.39701 0.11761 0.0
C1308 C 0.34909 0.39613 0.111 0.0
C1309 C 0.33375 0.41604 0.11173 0.0
C1310 C 0.31109 0.4152 0.10556 0.0
C1311 C 0.30363 0.39458 0.09856 0.0
C1312 C 0.31886 0.37479 0.09766 0.0
C1313 C 0.34155 0.37555 0.10379 0.0
H1314 H 0.28607 0.39395 0.09381 0.0
H1315 H 0.51144 0.39237 0.14571 0.0
H1316 H 0.90209 0.03994 0.39342 0.0
H1317 H 0.86808 0.06652 0.38912 0.0
H1318 H 0.90853 0.12619 0.40522 0.0
H1319 H 0.9425 0.09973 0.40972 0.0
H1320 H 0.86235 0.12695 0.41432 0.0
H1321 H 0.90396 0.11691 0.37043 0.0
H1322 H 0.92102 0.09345 0.35107 0.0
H1323 H 0.8517 0.06379 0.34229 0.0
H1324 H 0.83429 0.08688 0.36173 0.0
H1325 H 0.81066 0.22903 0.38358 0.0
H1326 H 0.83533 0.19612 0.392 0.0
H1327 H 0.78832 0.1454 0.372 0.0
H1328 H 0.7637 0.17839 0.36324 0.0
H1329 H 0.8334 0.13611 0.36577 0.0
H1330 H 0.79066 0.15017 0.40781 0.0
H1331 H 0.77355 0.17382 0.42707 0.0
H1332 H 0.84408 0.19575 0.43947 0.0
H1333 H 0.86162 0.1725 0.42017 0.0
C1334 C 0.90371 0.0587 0.39612 0.0
C1335 C 0.92508 0.06777 0.40182 0.0
C1336 C 0.88427 0.07385 0.39364 0.0
C1337 C 0.88589 0.09836 0.39672 0.0
C1338 C 0.90692 0.10732 0.40278 0.0
C1339 C 0.92635 0.09219 0.40528 0.0
C1340 C 0.86611 0.11495 0.39313 0.0
C1341 C 0.85608 0.1291 0.4037 0.0
C1342 C 0.85746 0.11717 0.37935 0.0
C1343 C 0.86789 0.1034 0.36762 0.0
C1344 C 0.8924 0.10525 0.36443 0.0
C1345 C 0.90212 0.09204 0.35344 0.0
C1346 C 0.88747 0.07708 0.34548 0.0
C1347 C 0.86304 0.07535 0.34848 0.0
C1348 C 0.85323 0.0885 0.35948 0.0
C1349 C 0.80534 0.21088 0.3811 0.0
C1350 C 0.78525 0.20635 0.37268 0.0
C1351 C 0.81941 0.19204 0.38601 0.0
C1352 C 0.81355 0.16825 0.38276 0.0
C1353 C 0.79314 0.16362 0.37466 0.0
C1354 C 0.77907 0.18249 0.36969 0.0
C1355 C 0.82984 0.14852 0.38692 0.0
C1356 C 0.8393 0.13377 0.37645 0.0
C1357 C 0.8379 0.14574 0.4008 0.0
C1358 C 0.82745 0.1597 0.41247 0.0
C1359 C 0.80252 0.16017 0.41458 0.0
C1360 C 0.79274 0.17348 0.42552 0.0
C1361 C 0.80771 0.18631 0.43447 0.0
C1362 C 0.8325 0.18581 0.43252 0.0
C1363 C 0.84238 0.17253 0.4216 0.0
H1364 H 0.80011 0.19661 0.44293 0.0
H1365 H 0.89503 0.06687 0.33697 0.0
H1366 H 0.18081 0.65278 0.64736 0.0
H1367 H 0.15377 0.61845 0.64564 0.0
H1368 H 0.12213 0.64873 0.60864 0.0
H1369 H 0.14892 0.68318 0.61032 0.0
H1370 H 0.08828 0.63101 0.62604 0.0
H1371 H 0.16296 0.60478 0.60601 0.0
H1372 H 0.20649 0.59736 0.60585 0.0
H1373 H 0.19918 0.54977 0.64071 0.0
H1374 H 0.15561 0.55717 0.6412 0.0
H1375 H 0.06162 0.51042 0.5929 0.0
H1376 H 0.09168 0.53966 0.59999 0.0
H1377 H 0.05173 0.55411 0.6375 0.0
H1378 H 0.02119 0.52533 0.63031 0.0
H1379 H 0.1215 0.54897 0.62123 0.0
H1380 H 0.05082 0.61293 0.64292 0.0
H1381 H 0.00726 0.61973 0.64138 0.0
H1382 H 0.00697 0.59256 0.59955 0.0
H1383 H 0.05057 0.58559 0.60087 0.0
C1384 C 0.16803 0.65219 0.63888 0.0
C1385 C 0.16709 0.67067 0.62893 0.0
C1386 C 0.15265 0.63253 0.6379 0.0
C1387 C 0.13609 0.63097 0.62695 0.0
C1388 C 0.13477 0.64961 0.61718 0.0
C1389 C 0.15017 0.66924 0.61813 0.0
C1390 C 0.12044 0.6097 0.62544 0.0
C1391 C 0.09555 0.61307 0.62508 0.0
C1392 C 0.12992 0.5863 0.62407 0.0
C1393 C 0.15608 0.58173 0.62374 0.0
C1394 C 0.17066 0.59288 0.61371 0.0
C1395 C 0.19534 0.58866 0.61355 0.0
C1396 C 0.20561 0.57316 0.62329 0.0
C1397 C 0.1912 0.5618 0.63319 0.0
C1398 C 0.16652 0.56599 0.63341 0.0
C1399 C 0.05945 0.51941 0.60281 0.0
C1400 C 0.03878 0.51589 0.61091 0.0
C1401 C 0.07671 0.53611 0.60686 0.0
C1402 C 0.07365 0.54945 0.61911 0.0
C1403 C 0.05416 0.54435 0.62786 0.0
C1404 C 0.03677 0.52783 0.62375 0.0
C1405 C 0.08938 0.57029 0.62186 0.0
C1406 C 0.11425 0.56687 0.62242 0.0
C1407 C 0.07992 0.59372 0.62315 0.0
C1408 C 0.05389 0.59862 0.62204 0.0
C1409 C 0.04146 0.60856 0.63337 0.0
C1410 C 0.01676 0.6124 0.63254 0.0
C1411 C 0.00433 0.6066 0.62037 0.0
C1412 C 0.0166 0.597 0.60898 0.0
C1413 C 0.0413 0.59307 0.60977 0.0
H1414 H 0.98519 0.60955 0.61976 0.0
H1415 H 0.22471 0.56992 0.62315 0.0
H1416 H 0.59254 0.03769 0.6033 0.0
H1417 H 0.62442 0.06744 0.60573 0.0
H1418 H 0.57164 0.1225 0.61279 0.0
H1419 H 0.53965 0.09291 0.61042 0.0
H1420 H 0.60798 0.13652 0.59445 0.0
H1421 H 0.59986 0.09925 0.63972 0.0
H1422 H 0.59883 0.06504 0.65595 0.0
H1423 H 0.6706 0.04604 0.6443 0.0
H1424 H 0.67192 0.07999 0.62785 0.0
H1425 H 0.66995 0.22896 0.62852 0.0
H1426 H 0.64357 0.19698 0.62076 0.0
H1427 H 0.70325 0.14792 0.62001 0.0
H1428 H 0.72983 0.17986 0.62815 0.0
H1429 H 0.66662 0.12845 0.63299 0.0
H1430 H 0.6768 0.16798 0.58956 0.0
H1431 H 0.67823 0.20193 0.57317 0.0
H1432 H 0.60378 0.21625 0.58063 0.0
H1433 H 0.60197 0.18258 0.59722 0.0
C1434 C 0.5877 0.05615 0.60532 0.0
C1435 C 0.56356 0.06294 0.60673 0.0
C1436 C 0.60594 0.07309 0.60671 0.0
C1437 C 0.60036 0.0971 0.60952 0.0
C1438 C 0.57629 0.10404 0.61061 0.0
C1439 C 0.55804 0.08709 0.60931 0.0
C1440 C 0.61958 0.11493 0.61175 0.0
C1441 C 0.62073 0.1349 0.60293 0.0
C1442 C 0.63664 0.11232 0.62253 0.0
C1443 C 0.63588 0.09198 0.63244 0.0
C1444 C 0.61534 0.08766 0.64053 0.0
C1445 C 0.61472 0.06834 0.64979 0.0
C1446 C 0.63461 0.05333 0.65112 0.0
C1447 C 0.65519 0.05766 0.64323 0.0
C1448 C 0.65589 0.07694 0.63395 0.0
C1449 C 0.67759 0.21145 0.62657 0.0
C1450 C 0.70201 0.20695 0.62899 0.0
C1451 C 0.66246 0.19319 0.62203 0.0
C1452 C 0.67146 0.17009 0.61963 0.0
C1453 C 0.69594 0.16563 0.62176 0.0
C1454 C 0.71111 0.18391 0.62638 0.0
C1455 C 0.65489 0.15039 0.61582 0.0
C1456 C 0.65417 0.13 0.62436 0.0
C1457 C 0.63833 0.15257 0.60472 0.0
C1458 C 0.6393 0.17283 0.59472 0.0
C1459 C 0.66077 0.17847 0.58779 0.0
C1460 C 0.66164 0.19765 0.57845 0.0
C1461 C 0.64112 0.21127 0.57588 0.0
C1462 C 0.61967 0.20569 0.58263 0.0
C1463 C 0.6187 0.18654 0.59199 0.0
H1464 H 0.64183 0.22611 0.56865 0.0
H1465 H 0.6341 0.03839 0.65829 0.0
H1466 H 0.20075 0.34404 0.86 0.0
H1467 H 0.17493 0.37819 0.86521 0.0
H1468 H 0.11627 0.34371 0.84397 0.0
H1469 H 0.14205 0.30955 0.83855 0.0
H1470 H 0.1186 0.39156 0.83794 0.0
H1471 H 0.11988 0.34149 0.87886 0.0
H1472 H 0.13906 0.31903 0.89796 0.0
H1473 H 0.17132 0.3838 0.91306 0.0
H1474 H 0.15258 0.40659 0.89392 0.0
H1475 H 0.01757 0.44776 0.86832 0.0
H1476 H 0.04876 0.42152 0.85925 0.0
H1477 H 0.10169 0.4592 0.88354 0.0
H1478 H 0.07044 0.48533 0.8929 0.0
H1479 H 0.10506 0.41245 0.88753 0.0
H1480 H 0.10051 0.46333 0.84773 0.0
H1481 H 0.08092 0.48561 0.82871 0.0
H1482 H 0.05452 0.41978 0.8115 0.0
H1483 H 0.07368 0.3971 0.83052 0.0
C1484 C 0.18239 0.34375 0.85636 0.0
C1485 C 0.17339 0.32398 0.84895 0.0
C1486 C 0.16766 0.36328 0.85937 0.0
C1487 C 0.14362 0.36335 0.85511 0.0
C1488 C 0.13478 0.34399 0.84735 0.0
C1489 C 0.1495 0.32444 0.84433 0.0
C1490 C 0.12743 0.38315 0.85921 0.0
C1491 C 0.11546 0.39605 0.84878 0.0
C1492 C 0.12385 0.38936 0.87334 0.0
C1493 C 0.13505 0.37569 0.88487 0.0
C1494 C 0.13122 0.35091 0.88619 0.0
C1495 C 0.14198 0.33812 0.89703 0.0
C1496 C 0.15646 0.34997 0.90669 0.0
C1497 C 0.16014 0.37464 0.90555 0.0
C1498 C 0.14944 0.3875 0.89472 0.0
C1499 C 0.03589 0.45075 0.87158 0.0
C1500 C 0.0415 0.46857 0.8814 0.0
C1501 C 0.05375 0.43578 0.86632 0.0
C1502 C 0.0776 0.43848 0.87065 0.0
C1503 C 0.08339 0.45681 0.88006 0.0
C1504 C 0.06552 0.47176 0.88537 0.0
C1505 C 0.09602 0.42088 0.86626 0.0
C1506 C 0.10838 0.40827 0.87666 0.0
C1507 C 0.09991 0.41497 0.85211 0.0
C1508 C 0.08839 0.42853 0.84062 0.0
C1509 C 0.09037 0.45361 0.83995 0.0
C1510 C 0.07937 0.46631 0.82916 0.0
C1511 C 0.06645 0.45412 0.81892 0.0
C1512 C 0.06453 0.4292 0.81944 0.0
C1513 C 0.07549 0.41641 0.83021 0.0
H1514 H 0.05794 0.46399 0.81057 0.0
H1515 H 0.16477 0.34004 0.91508 0.0
H1516 H 0.90616 0.95334 0.09928 0.0
H1517 H 0.87367 0.92424 0.10145 0.0
H1518 H 0.92289 0.87309 0.11919 0.0
H1519 H 0.95555 0.90185 0.11679 0.0
H1520 H 0.89335 0.85199 0.10085 0.0
H1521 H 0.88504 0.90749 0.1397 0.0
H1522 H 0.88021 0.94782 0.14978 0.0
H1523 H 0.81449 0.95708 0.1272 0.0
H1524 H 0.81908 0.91686 0.11688 0.0
H1525 H 0.82703 0.7725 0.14102 0.0
H1526 H 0.85315 0.80376 0.13216 0.0
H1527 H 0.79183 0.84291 0.11705 0.0
H1528 H 0.76524 0.81162 0.12618 0.0
H1529 H 0.82304 0.87205 0.13023 0.0
H1530 H 0.8281 0.81419 0.09414 0.0
H1531 H 0.83275 0.77395 0.08396 0.0
H1532 H 0.90394 0.76921 0.10061 0.0
H1533 H 0.89962 0.80932 0.11106 0.0
C1534 C 0.9101 0.93585 0.10358 0.0
C1535 C 0.93342 0.92995 0.10796 0.0
C1536 C 0.89149 0.91927 0.10484 0.0
C1537 C 0.8958 0.89661 0.11065 0.0
C1538 C 0.91917 0.89048 0.11469 0.0
C1539 C 0.9378 0.90698 0.11336 0.0
C1540 C 0.87598 0.8794 0.11295 0.0
C1541 C 0.87803 0.85631 0.10733 0.0
C1542 C 0.85554 0.88535 0.12097 0.0
C1543 C 0.85253 0.90929 0.12742 0.0
C1544 C 0.86962 0.91817 0.13684 0.0
C1545 C 0.86692 0.94101 0.1426 0.0
C1546 C 0.84709 0.95504 0.1391 0.0
C1547 C 0.82985 0.94621 0.12989 0.0
C1548 C 0.83248 0.92339 0.12409 0.0
C1549 C 0.81899 0.78767 0.13577 0.0
C1550 C 0.794 0.78951 0.13427 0.0
C1551 C 0.83401 0.8055 0.13063 0.0
C1552 C 0.82448 0.82548 0.12373 0.0
C1553 C 0.79954 0.82755 0.12227 0.0
C1554 C 0.7844 0.80965 0.12747 0.0
C1555 C 0.84083 0.84437 0.11851 0.0
C1556 C 0.83812 0.8678 0.12355 0.0
C1557 C 0.86063 0.83877 0.10989 0.0
C1558 C 0.86348 0.81475 0.10345 0.0
C1559 C 0.84471 0.80453 0.0957 0.0
C1560 C 0.84729 0.78174 0.08987 0.0
C1561 C 0.86861 0.76902 0.09165 0.0
C1562 C 0.88743 0.77909 0.09923 0.0
C1563 C 0.88494 0.80188 0.10509 0.0
H1564 H 0.87056 0.75136 0.08715 0.0
H1565 H 0.84506 0.97273 0.14354 0.0
H1566 H 0.48808 0.55314 0.36771 0.0
H1567 H 0.4574 0.58128 0.36004 0.0
H1568 H 0.40308 0.53886 0.3803 0.0
H1569 H 0.43372 0.51037 0.38798 0.0
H1570 H 0.38819 0.55713 0.35459 0.0
H1571 H 0.42432 0.58555 0.39682 0.0
H1572 H 0.45807 0.59659 0.41208 0.0
H1573 H 0.47972 0.65083 0.383 0.0
H1574 H 0.44632 0.63984 0.36744 0.0
H1575 H 0.2999 0.64894 0.36088 0.0
H1576 H 0.32862 0.61669 0.36501 0.0
H1577 H 0.38486 0.6598 0.34712 0.0
H1578 H 0.35633 0.69224 0.34308 0.0
H1579 H 0.3984 0.64047 0.3715 0.0
H1580 H 0.36165 0.61258 0.3294 0.0
H1581 H 0.32811 0.60122 0.31408 0.0
H1582 H 0.30738 0.54613 0.34285 0.0
H1583 H 0.34061 0.55739 0.35846 0.0
C1584 C 0.46958 0.54957 0.3704 0.0
C1585 C 0.46337 0.52964 0.3786 0.0
C1586 C 0.45208 0.56571 0.36602 0.0
C1587 C 0.42806 0.56233 0.3698 0.0
C1588 C 0.42156 0.5418 0.37733 0.0
C1589 C 0.4391 0.52559 0.38173 0.0
C1590 C 0.41009 0.58108 0.36667 0.0
C1591 C 0.39021 0.57529 0.35841 0.0
C1592 C 0.41303 0.60484 0.37148 0.0
C1593 C 0.43295 0.61171 0.3809 0.0
C1594 C 0.43638 0.59972 0.39363 0.0
C1595 C 0.45544 0.60597 0.40234 0.0
C1596 C 0.47106 0.62436 0.39849 0.0
C1597 C 0.46762 0.63657 0.38595 0.0
C1598 C 0.44862 0.63034 0.37719 0.0
C1599 C 0.31835 0.65152 0.35774 0.0
C1600 C 0.32585 0.67319 0.35167 0.0
C1601 C 0.33472 0.63302 0.36005 0.0
C1602 C 0.35884 0.63578 0.35627 0.0
C1603 C 0.36632 0.6573 0.35011 0.0
C1604 C 0.34998 0.6758 0.34778 0.0
C1605 C 0.37651 0.61665 0.35928 0.0
C1606 C 0.39633 0.62235 0.36762 0.0
C1607 C 0.37345 0.59284 0.35454 0.0
C1608 C 0.35348 0.58599 0.34517 0.0
C1609 C 0.34982 0.59818 0.33252 0.0
C1610 C 0.33089 0.59173 0.32377 0.0
C1611 C 0.31559 0.57301 0.32751 0.0
C1612 C 0.31923 0.56065 0.33998 0.0
C1613 C 0.33812 0.56704 0.34878 0.0
H1614 H 0.30094 0.56804 0.32072 0.0
H1615 H 0.48581 0.62917 0.40525 0.0
H1616 H 0.44476 0.09358 0.0888 0.0
H1617 H 0.41432 0.12374 0.09396 0.0
H1618 H 0.3778 0.07363 0.12075 0.0
H1619 H 0.40803 0.04326 0.11555 0.0
H1620 H 0.3464 0.09901 0.10473 0.0
H1621 H 0.41305 0.11521 0.13463 0.0
H1622 H 0.45542 0.12281 0.14025 0.0
H1623 H 0.45423 0.18653 0.11523 0.0
H1624 H 0.4119 0.17906 0.10925 0.0
H1625 H 0.27894 0.18219 0.14555 0.0
H1626 H 0.30538 0.15067 0.13682 0.0
H1627 H 0.34094 0.20192 0.11034 0.0
H1628 H 0.31474 0.23356 0.11905 0.0
H1629 H 0.37251 0.17599 0.12555 0.0
H1630 H 0.3045 0.15995 0.09648 0.0
H1631 H 0.26204 0.15166 0.09136 0.0
H1632 H 0.26553 0.08725 0.1157 0.0
H1633 H 0.30794 0.09533 0.12113 0.0
C1634 C 0.43019 0.08891 0.09573 0.0
C1635 C 0.42893 0.06608 0.10185 0.0
C1636 C 0.41283 0.10619 0.09869 0.0
C1637 C 0.39396 0.10099 0.10786 0.0
C1638 C 0.39224 0.078 0.11366 0.0
C1639 C 0.4096 0.06072 0.11072 0.0
C1640 C 0.3765 0.1198 0.1118 0.0
C1641 C 0.35204 0.11576 0.10941 0.0
C1642 C 0.38397 0.14177 0.11771 0.0
C1643 C 0.40937 0.14643 0.12137 0.0
C1644 C 0.42187 0.13074 0.13023 0.0
C1645 C 0.44588 0.13503 0.1335 0.0
C1646 C 0.45754 0.15511 0.12808 0.0
C1647 C 0.44518 0.17096 0.11941 0.0
C1648 C 0.42118 0.16671 0.11607 0.0
C1649 C 0.29218 0.1867 0.13773 0.0
C1650 C 0.29477 0.21041 0.13303 0.0
C1651 C 0.30723 0.16864 0.13273 0.0
C1652 C 0.32508 0.17394 0.1229 0.0
C1653 C 0.3273 0.19746 0.11793 0.0
C1654 C 0.31224 0.2155 0.1229 0.0
C1655 C 0.34234 0.15531 0.11841 0.0
C1656 C 0.36682 0.15933 0.12078 0.0
C1657 C 0.33485 0.13329 0.11257 0.0
C1658 C 0.30935 0.12838 0.10932 0.0
C1659 C 0.29616 0.14413 0.10084 0.0
C1660 C 0.27211 0.13944 0.09786 0.0
C1661 C 0.26108 0.11897 0.10323 0.0
C1662 C 0.27409 0.10311 0.11156 0.0
C1663 C 0.29815 0.10772 0.11458 0.0
H1664 H 0.24246 0.11537 0.10091 0.0
H1665 H 0.47612 0.15842 0.13064 0.0
H1666 H 0.5629 0.49769 0.88751 0.0
H1667 H 0.59617 0.52303 0.87993 0.0
H1668 H 0.54653 0.56966 0.85873 0.0
H1669 H 0.51332 0.54424 0.86597 0.0
H1670 H 0.5873 0.56639 0.84434 0.0
H1671 H 0.56433 0.58206 0.89173 0.0
H1672 H 0.55586 0.57133 0.91613 0.0
H1673 H 0.62824 0.54683 0.92122 0.0
H1674 H 0.63707 0.55725 0.89676 0.0
H1675 H 0.64123 0.68124 0.84935 0.0
H1676 H 0.61532 0.64623 0.85202 0.0
H1677 H 0.67556 0.60455 0.86622 0.0
H1678 H 0.70174 0.63944 0.8634 0.0
H1679 H 0.63356 0.60171 0.88339 0.0
H1680 H 0.65657 0.59306 0.83554 0.0
H1681 H 0.66268 0.60668 0.81138 0.0
H1682 H 0.58748 0.62126 0.80748 0.0
H1683 H 0.58097 0.60806 0.8317 0.0
C1684 C 0.55911 0.51304 0.88098 0.0
C1685 C 0.53542 0.51912 0.87751 0.0
C1686 C 0.57814 0.52756 0.8767 0.0
C1687 C 0.57376 0.5485 0.86901 0.0
C1688 C 0.55032 0.55364 0.86471 0.0
C1689 C 0.53133 0.5391 0.86891 0.0
C1690 C 0.59307 0.56623 0.86651 0.0
C1691 C 0.59739 0.57414 0.85287 0.0
C1692 C 0.6064 0.57619 0.87764 0.0
C1693 C 0.60127 0.57015 0.89238 0.0
C1694 C 0.57839 0.57423 0.89803 0.0
C1695 C 0.57353 0.56822 0.91187 0.0
C1696 C 0.59146 0.55829 0.92021 0.0
C1697 C 0.61434 0.55447 0.91474 0.0
C1698 C 0.6193 0.56044 0.90089 0.0
C1699 C 0.649 0.66462 0.853 0.0
C1700 C 0.67352 0.66309 0.85617 0.0
C1701 C 0.6342 0.64462 0.85445 0.0
C1702 C 0.6436 0.62281 0.85922 0.0
C1703 C 0.66803 0.62123 0.86248 0.0
C1704 C 0.68293 0.64114 0.86084 0.0
C1705 C 0.62762 0.60198 0.86124 0.0
C1706 C 0.62384 0.59359 0.87483 0.0
C1707 C 0.61449 0.59193 0.85009 0.0
C1708 C 0.61832 0.59973 0.83548 0.0
C1709 C 0.64136 0.59934 0.82957 0.0
C1710 C 0.64489 0.60696 0.81586 0.0
C1711 C 0.62549 0.61488 0.80791 0.0
C1712 C 0.6025 0.61514 0.81365 0.0
C1713 C 0.59887 0.60756 0.82737 0.0
H1714 H 0.62826 0.62077 0.7973 0.0
H1715 H 0.58765 0.55362 0.93092 0.0
H1716 H 0.22797 0.8163 0.63807 0.0
H1717 H 0.20432 0.85093 0.63075 0.0
H1718 H 0.15756 0.80459 0.60729 0.0
H1719 H 0.18123 0.7699 0.6144 0.0
H1720 H 0.16599 0.84682 0.59363 0.0
H1721 H 0.14257 0.82101 0.63968 0.0
H1722 H 0.14963 0.81076 0.66432 0.0
H1723 H 0.17583 0.88181 0.672 0.0
H1724 H 0.16923 0.89238 0.64734 0.0
H1725 H 0.05699 0.91172 0.59178 0.0
H1726 H 0.08909 0.88257 0.59505 0.0
H1727 H 0.12897 0.93414 0.61913 0.0
H1728 H 0.09676 0.96333 0.61608 0.0
H1729 H 0.1273 0.89194 0.63203 0.0
H1730 H 0.14666 0.91904 0.58627 0.0
H1731 H 0.13912 0.92908 0.56166 0.0
H1732 H 0.12025 0.85597 0.55329 0.0
H1733 H 0.12734 0.84554 0.57791 0.0
C1734 C 0.21288 0.8135 0.63118 0.0
C1735 C 0.2063 0.79031 0.62695 0.0
C1736 C 0.19936 0.83331 0.62704 0.0
C1737 C 0.17898 0.83026 0.61867 0.0
C1738 C 0.17319 0.80732 0.61378 0.0
C1739 C 0.18669 0.7875 0.61791 0.0
C1740 C 0.16264 0.85059 0.61585 0.0
C1741 C 0.1574 0.85663 0.602 0.0
C1742 C 0.15185 0.86367 0.6268 0.0
C1743 C 0.15567 0.85739 0.64164 0.0
C1744 C 0.15001 0.83439 0.64661 0.0
C1745 C 0.1539 0.82853 0.66058 0.0
C1746 C 0.16324 0.8456 0.66971 0.0
C1747 C 0.16864 0.86859 0.6649 0.0
C1748 C 0.16482 0.87453 0.65093 0.0
C1749 C 0.07264 0.91694 0.5977 0.0
C1750 C 0.07428 0.93983 0.6037 0.0
C1751 C 0.09106 0.90029 0.59948 0.0
C1752 C 0.11155 0.90627 0.60721 0.0
C1753 C 0.11334 0.92918 0.6131 0.0
C1754 C 0.09492 0.94584 0.61134 0.0
C1755 C 0.13045 0.88815 0.60978 0.0
C1756 C 0.13611 0.88243 0.62362 0.0
C1757 C 0.14157 0.87538 0.5988 0.0
C1758 C 0.13735 0.88155 0.58397 0.0
C1759 C 0.14072 0.90513 0.57921 0.0
C1760 C 0.13656 0.91089 0.56525 0.0
C1761 C 0.12916 0.89318 0.55592 0.0
C1762 C 0.12596 0.86967 0.56053 0.0
C1763 C 0.13008 0.86382 0.57448 0.0
H1764 H 0.12595 0.89767 0.54512 0.0
H1765 H 0.16624 0.84103 0.68053 0.0
H1766 H 0.93494 0.48583 0.39386 0.0
H1767 H 0.90235 0.45978 0.38615 0.0
H1768 H 0.95287 0.41609 0.3636 0.0
H1769 H 0.98549 0.44219 0.37107 0.0
H1770 H 0.91132 0.42135 0.34918 0.0
H1771 H 0.9352 0.40032 0.39595 0.0
H1772 H 0.94323 0.40826 0.42078 0.0
H1773 H 0.87019 0.43012 0.42663 0.0
H1774 H 0.86182 0.42261 0.40178 0.0
H1775 H 0.85267 0.30904 0.34623 0.0
H1776 H 0.87987 0.34256 0.35019 0.0
H1777 H 0.82458 0.37972 0.37294 0.0
H1778 H 0.79734 0.34606 0.36922 0.0
H1779 H 0.86584 0.38069 0.38676 0.0
H1780 H 0.84102 0.39771 0.3402 0.0
H1781 H 0.83326 0.3889 0.31545 0.0
H1782 H 0.90789 0.374 0.30909 0.0
H1783 H 0.91606 0.38238 0.33385 0.0
C1784 C 0.93909 0.47088 0.3871 0.0
C1785 C 0.96285 0.46593 0.38321 0.0
C1786 C 0.92044 0.45598 0.38273 0.0
C1787 C 0.92526 0.43579 0.37449 0.0
C1788 C 0.94877 0.43154 0.36999 0.0
C1789 C 0.96741 0.44645 0.37432 0.0
C1790 C 0.90617 0.41816 0.37132 0.0
C1791 C 0.90145 0.41233 0.35738 0.0
C1792 C 0.89298 0.40678 0.38203 0.0
C1793 C 0.89796 0.41117 0.39698 0.0
C1794 C 0.9209 0.40699 0.40251 0.0
C1795 C 0.92551 0.41139 0.41659 0.0
C1796 C 0.90725 0.41976 0.42527 0.0
C1797 C 0.88433 0.42368 0.41989 0.0
C1798 C 0.87964 0.41935 0.40582 0.0
C1799 C 0.84623 0.32439 0.35201 0.0
C1800 C 0.82285 0.32486 0.35743 0.0
C1801 C 0.86177 0.34361 0.3542 0.0
C1802 C 0.85417 0.36378 0.36173 0.0
C1803 C 0.83079 0.36436 0.36707 0.0
C1804 C 0.81525 0.34511 0.36493 0.0
C1805 C 0.87103 0.3837 0.3646 0.0
C1806 C 0.87542 0.3899 0.37852 0.0
C1807 C 0.88391 0.39536 0.35386 0.0
C1808 C 0.87911 0.3905 0.33892 0.0
C1809 C 0.85575 0.39239 0.33355 0.0
C1810 C 0.85129 0.3875 0.31951 0.0
C1811 C 0.87006 0.38085 0.31071 0.0
C1812 C 0.89336 0.37914 0.31592 0.0
C1813 C 0.89792 0.38399 0.32996 0.0
H1814 H 0.86657 0.37705 0.29985 0.0
H1815 H 0.91085 0.42315 0.43616 0.0
H1816 H 0.26314 0.8162 0.35889 0.0
H1817 H 0.28915 0.84897 0.36645 0.0
H1818 H 0.33942 0.79778 0.38314 0.0
H1819 H 0.31334 0.76506 0.37596 0.0
H1820 H 0.33644 0.83531 0.39982 0.0
H1821 H 0.34645 0.82261 0.35041 0.0
H1822 H 0.33286 0.81943 0.32605 0.0
H1823 H 0.30708 0.89183 0.32746 0.0
H1824 H 0.32025 0.89532 0.35191 0.0
H1825 H 0.44743 0.89583 0.39677 0.0
H1826 H 0.41379 0.86871 0.39282 0.0
H1827 H 0.36912 0.92858 0.3814 0.0
H1828 H 0.40272 0.95593 0.38535 0.0
H1829 H 0.36576 0.89035 0.36299 0.0
H1830 H 0.36082 0.9038 0.41208 0.0
H1831 H 0.37614 0.90618 0.43611 0.0
H1832 H 0.39412 0.83146 0.43502 0.0
H1833 H 0.37924 0.8287 0.41089 0.0
C1834 C 0.27957 0.81194 0.36434 0.0
C1835 C 0.28628 0.78802 0.36669 0.0
C1836 C 0.29447 0.83069 0.3686 0.0
C1837 C 0.31645 0.8258 0.37512 0.0
C1838 C 0.32258 0.80198 0.37809 0.0
C1839 C 0.30765 0.78328 0.37393 0.0
C1840 C 0.33377 0.84524 0.37819 0.0
C1841 C 0.34294 0.84726 0.39175 0.0
C1842 C 0.3419 0.86117 0.36773 0.0
C1843 C 0.33407 0.85913 0.35303 0.0
C1844 C 0.33772 0.83779 0.34555 0.0
C1845 C 0.33012 0.83594 0.33173 0.0
C1846 C 0.31904 0.85539 0.32522 0.0
C1847 C 0.31561 0.87676 0.33252 0.0
C1848 C 0.32315 0.87869 0.34636 0.0
C1849 C 0.43047 0.90326 0.39341 0.0
C1850 C 0.42773 0.92803 0.39139 0.0
C1851 C 0.41123 0.88775 0.39124 0.0
C1852 C 0.38892 0.8967 0.38697 0.0
C1853 C 0.38619 0.92137 0.38475 0.0
C1854 C 0.40538 0.93694 0.38703 0.0
C1855 C 0.36867 0.88012 0.38454 0.0
C1856 C 0.35899 0.87863 0.3711 0.0
C1857 C 0.36025 0.86454 0.39508 0.0
C1858 C 0.36908 0.86609 0.40963 0.0
C1859 C 0.36821 0.88791 0.41692 0.0
C1860 C 0.37679 0.88933 0.43057 0.0
C1861 C 0.38614 0.869 0.43708 0.0
C1862 C 0.38688 0.8472 0.42996 0.0
C1863 C 0.37835 0.84569 0.4163 0.0
H1864 H 0.39277 0.87013 0.44765 0.0
H1865 H 0.31317 0.85393 0.31452 0.0
H1866 H 0.96833 0.5349 0.12848 0.0
H1867 H 0.93593 0.56108 0.13652 0.0
H1868 H 0.9045 0.55963 0.09552 0.0
H1869 H 0.93659 0.53349 0.08742 0.0
H1870 H 0.91088 0.60549 0.10567 0.0
H1871 H 0.87798 0.53038 0.1212 0.0
H1872 H 0.87823 0.492 0.13389 0.0
H1873 H 0.88805 0.52937 0.17254 0.0
H1874 H 0.88819 0.56799 0.16004 0.0
H1875 H 0.8007 0.66255 0.11657 0.0
H1876 H 0.83068 0.63202 0.11144 0.0
H1877 H 0.856 0.63537 0.15382 0.0
H1878 H 0.82583 0.66589 0.15912 0.0
H1879 H 0.85393 0.5891 0.14418 0.0
H1880 H 0.88638 0.66389 0.12928 0.0
H1881 H 0.88672 0.7027 0.11704 0.0
H1882 H 0.87925 0.66666 0.0778 0.0
H1883 H 0.87849 0.62762 0.08983 0.0
C1884 C 0.95433 0.53987 0.12123 0.0
C1885 C 0.95511 0.53216 0.10729 0.0
C1886 C 0.93582 0.5548 0.12585 0.0
C1887 C 0.91786 0.5623 0.1166 0.0
C1888 C 0.91824 0.5541 0.1028 0.0
C1889 C 0.93658 0.53907 0.09822 0.0
C1890 C 0.89937 0.57978 0.12099 0.0
C1891 C 0.89823 0.60179 0.11397 0.0
C1892 C 0.88345 0.57524 0.13214 0.0
C1893 C 0.88337 0.55205 0.13967 0.0
C1894 C 0.88042 0.5304 0.13239 0.0
C1895 C 0.88044 0.50861 0.13955 0.0
C1896 C 0.88323 0.50824 0.15401 0.0
C1897 C 0.88594 0.52968 0.16134 0.0
C1898 C 0.88595 0.55153 0.15422 0.0
C1899 C 0.81252 0.65673 0.12485 0.0
C1900 C 0.81102 0.66683 0.13823 0.0
C1901 C 0.82969 0.6393 0.12188 0.0
C1902 C 0.84579 0.6317 0.1322 0.0
C1903 C 0.84379 0.64106 0.14571 0.0
C1904 C 0.82659 0.65854 0.14869 0.0
C1905 C 0.86519 0.61461 0.12868 0.0
C1906 C 0.86661 0.5928 0.13589 0.0
C1907 C 0.88156 0.61938 0.11777 0.0
C1908 C 0.88214 0.64282 0.11048 0.0
C1909 C 0.88461 0.66424 0.11805 0.0
C1910 C 0.88491 0.68628 0.11115 0.0
C1911 C 0.88295 0.68715 0.09666 0.0
C1912 C 0.88074 0.66596 0.08903 0.0
C1913 C 0.88039 0.64386 0.09589 0.0
H1914 H 0.88319 0.70423 0.09134 0.0
H1915 H 0.88323 0.49135 0.15954 0.0
H1916 H 0.19707 0.21557 0.87413 0.0
H1917 H 0.17076 0.18309 0.88194 0.0
H1918 H 0.15113 0.16866 0.83932 0.0
H1919 H 0.17708 0.20101 0.83146 0.0
H1920 H 0.1123 0.17175 0.85592 0.0
H1921 H 0.18903 0.13199 0.85673 0.0
H1922 H 0.23117 0.12663 0.86372 0.0
H1923 H 0.21008 0.12323 0.90667 0.0
H1924 H 0.16781 0.12889 0.89994 0.0
H1925 H 0.05721 0.05887 0.85865 0.0
H1926 H 0.08522 0.09154 0.85424 0.0
H1927 H 0.09696 0.09947 0.89839 0.0
H1928 H 0.06897 0.06661 0.90293 0.0
H1929 H 0.13906 0.10132 0.88332 0.0
H1930 H 0.06213 0.13861 0.88245 0.0
H1931 H 0.01994 0.14371 0.8755 0.0
H1932 H 0.04133 0.15205 0.83283 0.0
H1933 H 0.08365 0.14664 0.83949 0.0
C1934 C 0.18728 0.20535 0.86642 0.0
C1935 C 0.18913 0.21091 0.85218 0.0
C1936 C 0.1723 0.18678 0.8709 0.0
C1937 C 0.15904 0.17345 0.86119 0.0
C1938 C 0.16114 0.17879 0.84698 0.0
C1939 C 0.17606 0.19726 0.84251 0.0
C1940 C 0.14233 0.15438 0.86574 0.0
C1941 C 0.11821 0.15624 0.8618 0.0
C1942 C 0.1499 0.13455 0.87379 0.0
C1943 C 0.1753 0.13115 0.87784 0.0
C1944 C 0.1934 0.13032 0.86767 0.0
C1945 C 0.21731 0.12717 0.87159 0.0
C1946 C 0.22331 0.12466 0.88564 0.0
C1947 C 0.20541 0.12522 0.8958 0.0
C1948 C 0.18147 0.12838 0.89194 0.0
C1949 C 0.06575 0.0675 0.86744 0.0
C1950 C 0.06076 0.06023 0.88114 0.0
C1951 C 0.08171 0.08622 0.8649 0.0
C1952 C 0.09293 0.09808 0.876 0.0
C1953 C 0.08841 0.09057 0.88969 0.0
C1954 C 0.07236 0.07186 0.89225 0.0
C1955 C 0.10919 0.11848 0.87322 0.0
C1956 C 0.13316 0.11693 0.87753 0.0
C1957 C 0.1015 0.13865 0.86552 0.0
C1958 C 0.07606 0.14202 0.86146 0.0
C1959 C 0.05783 0.14134 0.87157 0.0
C1960 C 0.03389 0.14432 0.86768 0.0
C1961 C 0.02795 0.14815 0.85372 0.0
C1962 C 0.04595 0.14906 0.84363 0.0
C1963 C 0.06992 0.14606 0.84746 0.0
H1964 H 0.00941 0.15045 0.85074 0.0
H1965 H 0.24183 0.12223 0.88864 0.0
H1966 H 0.57675 0.4862 0.5951 0.0
H1967 H 0.60833 0.46084 0.60479 0.0
H1968 H 0.55984 0.43624 0.63669 0.0
H1969 H 0.52827 0.46169 0.62719 0.0
H1970 H 0.60535 0.44226 0.64681 0.0
H1971 H 0.56682 0.40418 0.60761 0.0
H1972 H 0.55295 0.40158 0.58327 0.0
H1973 H 0.62535 0.40898 0.56882 0.0
H1974 H 0.6396 0.41197 0.59309 0.0
H1975 H 0.64894 0.32628 0.66342 0.0
H1976 H 0.62616 0.36171 0.65654 0.0
H1977 H 0.67928 0.37822 0.62536 0.0
H1978 H 0.70205 0.34269 0.63206 0.0
H1979 H 0.63505 0.37934 0.61468 0.0
H1980 H 0.67405 0.41265 0.65438 0.0
H1981 H 0.6874 0.41458 0.67882 0.0
H1982 H 0.61424 0.41551 0.69256 0.0
H1983 H 0.60043 0.41323 0.66821 0.0
C1984 C 0.57291 0.47573 0.60432 0.0
C1985 C 0.5499 0.47574 0.61026 0.0
C1986 C 0.59097 0.4612 0.60982 0.0
C1987 C 0.58629 0.44639 0.62133 0.0
C1988 C 0.5638 0.44749 0.62779 0.0
C1989 C 0.54574 0.46198 0.6223 0.0
C1990 C 0.60403 0.4283 0.62593 0.0
C1991 C 0.61179 0.42842 0.63983 0.0
C1992 C 0.61275 0.41053 0.61673 0.0
C1993 C 0.60423 0.40859 0.60215 0.0
C1994 C 0.57975 0.40544 0.59923 0.0
C1995 C 0.57183 0.40387 0.58546 0.0
C1996 C 0.58825 0.40519 0.57451 0.0
C1997 C 0.61264 0.40801 0.57731 0.0
C1998 C 0.62065 0.40964 0.59108 0.0
C1999 C 0.65591 0.33756 0.65519 0.0
C2000 C 0.67724 0.33157 0.64824 0.0
C2001 C 0.64293 0.3579 0.65132 0.0
C2002 C 0.65111 0.37271 0.6405 0.0
C2003 C 0.67265 0.36705 0.63374 0.0
C2004 C 0.68564 0.34672 0.6376 0.0
C2005 C 0.63634 0.39313 0.63562 0.0
C2006 C 0.62899 0.39338 0.62165 0.0
C2007 C 0.62798 0.41114 0.64478 0.0
C2008 C 0.63621 0.41258 0.65946 0.0
C2009 C 0.6608 0.41307 0.66261 0.0
C2010 C 0.66845 0.41427 0.67645 0.0
C2011 C 0.65168 0.41512 0.68724 0.0
C2012 C 0.62721 0.41483 0.6842 0.0
C2013 C 0.61946 0.41362 0.67037 0.0
H2014 H 0.65764 0.41605 0.69795 0.0
H2015 H 0.58208 0.40396 0.56385 0.0
H2016 H 0.25461 0.24468 0.18598 0.0
H2017 H 0.24742 0.23459 0.21038 0.0
H2018 H 0.26446 0.30703 0.22234 0.0
H2019 H 0.27175 0.31733 0.19793 0.0
H2020 H 0.28639 0.27295 0.23906 0.0
H2021 H 0.20784 0.29051 0.22173 0.0
H2022 H 0.17378 0.28714 0.20552 0.0
H2023 H 0.16716 0.21235 0.21513 0.0
H2024 H 0.20144 0.21518 0.23125 0.0
H2025 H 0.24475 0.26267 0.30846 0.0
H2026 H 0.2497 0.27593 0.28439 0.0
H2027 H 0.22828 0.20609 0.2698 0.0
H2028 H 0.22285 0.1928 0.29384 0.0
H2029 H 0.20798 0.24063 0.25451 0.0
H2030 H 0.28716 0.22222 0.27088 0.0
H2031 H 0.3217 0.22475 0.2868 0.0
H2032 H 0.32765 0.30013 0.27873 0.0
H2033 H 0.2929 0.29811 0.2629 0.0
C2034 C 0.25688 0.25848 0.19379 0.0
C2035 C 0.2637 0.28183 0.19002 0.0
C2036 C 0.25266 0.2527 0.20772 0.0
C2037 C 0.25519 0.27013 0.21812 0.0
C2038 C 0.26236 0.29335 0.21444 0.0
C2039 C 0.26646 0.29921 0.20049 0.0
C2040 C 0.25044 0.26401 0.23286 0.0
C2041 C 0.26915 0.26625 0.24251 0.0
C2042 C 0.22809 0.25475 0.23722 0.0
C2043 C 0.20736 0.25302 0.2276 0.0
C2044 C 0.19925 0.2733 0.2203 0.0
C2045 C 0.17988 0.27149 0.21114 0.0
C2046 C 0.16835 0.24953 0.20927 0.0
C2047 C 0.17613 0.22934 0.21658 0.0
C2048 C 0.19551 0.23104 0.22574 0.0
C2049 C 0.24099 0.25015 0.30013 0.0
C2050 C 0.23355 0.22663 0.30306 0.0
C2051 C 0.24391 0.25774 0.28638 0.0
C2052 C 0.23969 0.24189 0.27531 0.0
C2053 C 0.23168 0.21859 0.27819 0.0
C2054 C 0.22866 0.21102 0.29194 0.0
C2055 C 0.24398 0.24943 0.26073 0.0
C2056 C 0.2252 0.24745 0.25109 0.0
C2057 C 0.26631 0.25882 0.25636 0.0
C2058 C 0.28727 0.26006 0.26582 0.0
C2059 C 0.29571 0.23937 0.27258 0.0
C2060 C 0.31535 0.2407 0.28158 0.0
C2061 C 0.32682 0.2626 0.28381 0.0
C2062 C 0.31872 0.28319 0.27701 0.0
C2063 C 0.29907 0.28196 0.26802 0.0
H2064 H 0.34202 0.2636 0.29077 0.0
H2065 H 0.15336 0.24817 0.20217 0.0
H2066 H 0.99106 0.00817 0.56541 0.0
H2067 H 0.98062 0.00943 0.54075 0.0
H2068 H 0.05548 0.00546 0.52984 0.0
H2069 H 0.06612 0.0047 0.55454 0.0
H2070 H 0.03302 0.03779 0.51414 0.0
H2071 H 0.01919 0.95629 0.52735 0.0
H2072 H 0.00249 0.92346 0.54151 0.0
H2073 H 0.93116 0.94608 0.53121 0.0
H2074 H 0.94744 0.97926 0.51714 0.0
H2075 H 0.01433 0.00771 0.44289 0.0
H2076 H 0.02629 0.00682 0.46737 0.0
H2077 H 0.95236 0.01376 0.47977 0.0
H2078 H 0.94019 0.01441 0.45534 0.0
H2079 H 0.97533 0.97928 0.49451 0.0
H2080 H 0.98977 0.06127 0.48146 0.0
H2081 H 0.00698 0.09367 0.46717 0.0
H2082 H 0.07794 0.06932 0.47698 0.0
H2083 H 0.06113 0.03656 0.49119 0.0
C2084 C 0.00532 0.00758 0.55778 0.0
C2085 C 0.02942 0.00622 0.56193 0.0
C2086 C 0.99931 0.0082 0.54368 0.0
C2087 C 0.01725 0.00717 0.53346 0.0
C2088 C 0.04135 0.00621 0.53757 0.0
C2089 C 0.04739 0.00573 0.55168 0.0
C2090 C 0.01084 0.00712 0.51848 0.0
C2091 C 0.02068 0.02478 0.5098 0.0
C2092 C 0.9944 0.99041 0.51288 0.0
C2093 C 0.98454 0.9704 0.52129 0.0
C2094 C -6e-05 0.95437 0.52819 0.0
C2095 C 0.99055 0.93568 0.53618 0.0
C2096 C 0.96578 0.93272 0.53729 0.0
C2097 C 0.95035 0.94841 0.53036 0.0
C2098 C 0.95965 0.96715 0.52236 0.0
C2099 C 0.0006 0.00908 0.45082 0.0
C2100 C 0.9763 0.01117 0.44717 0.0
C2101 C 0.00749 0.00866 0.4648 0.0
C2102 C 0.99022 0.01045 0.47537 0.0
C2103 C 0.96596 0.01237 0.47176 0.0
C2104 C 0.95906 0.01281 0.45779 0.0
C2105 C 0.99738 0.01004 0.49021 0.0
C2106 C 0.98771 0.99225 0.49886 0.0
C2107 C 0.01405 0.02656 0.49575 0.0
C2108 C 0.02419 0.04632 0.48727 0.0
C2109 C 0.00904 0.06271 0.48048 0.0
C2110 C 0.01872 0.08116 0.47241 0.0
C2111 C 0.04354 0.08351 0.47114 0.0
C2112 C 0.05872 0.06746 0.47796 0.0
C2113 C 0.04913 0.04896 0.48603 0.0
H2114 H 0.051 0.09781 0.46488 0.0
H2115 H 0.95854 0.91824 0.54348 0.0
H2116 H 0.24987 0.74902 0.68049 0.0
H2117 H 0.25803 0.75851 0.70482 0.0
H2118 H 0.18944 0.72928 0.7166 0.0
H2119 H 0.18088 0.72017 0.69218 0.0
H2120 H 0.19821 0.77007 0.73027 0.0
H2121 H 0.24097 0.69725 0.72128 0.0
H2122 H 0.26886 0.67077 0.70866 0.0
H2123 H 0.32678 0.71919 0.71709 0.0
H2124 H 0.29916 0.74614 0.7296 0.0
H2125 H 0.22314 0.75756 0.80249 0.0
H2126 H 0.21361 0.74971 0.77809 0.0
H2127 H 0.28062 0.78162 0.76565 0.0
H2128 H 0.29044 0.78936 0.79005 0.0
H2129 H 0.27235 0.73928 0.75244 0.0
H2130 H 0.22908 0.81201 0.76158 0.0
H2131 H 0.20093 0.83795 0.77437 0.0
H2132 H 0.14362 0.78882 0.76591 0.0
H2133 H 0.17152 0.7624 0.75322 0.0
C2134 C 0.23648 0.74465 0.68824 0.0
C2135 C 0.21479 0.73368 0.68442 0.0
C2136 C 0.24121 0.75001 0.70215 0.0
C2137 C 0.22451 0.74423 0.71254 0.0
C2138 C 0.2026 0.73381 0.70874 0.0
C2139 C 0.19777 0.72857 0.69479 0.0
C2140 C 0.23006 0.74887 0.72738 0.0
C2141 C 0.21425 0.76307 0.73517 0.0
C2142 C 0.25124 0.7401 0.73369 0.0
C2143 C 0.26794 0.72382 0.72627 0.0
C2144 C 0.25962 0.70234 0.72036 0.0
C2145 C 0.27538 0.68723 0.71324 0.0
C2146 C 0.29956 0.69332 0.71204 0.0
C2147 C 0.30804 0.71451 0.71801 0.0
C2148 C 0.29234 0.72969 0.72513 0.0
C2149 C 0.23585 0.76296 0.79457 0.0
C2150 C 0.25753 0.77413 0.7982 0.0
C2151 C 0.23032 0.75854 0.78063 0.0
C2152 C 0.24632 0.7653 0.77008 0.0
C2153 C 0.26804 0.77631 0.77366 0.0
C2154 C 0.27357 0.78078 0.7876 0.0
C2155 C 0.24056 0.76054 0.75529 0.0
C2156 C 0.25632 0.74628 0.74752 0.0
C2157 C 0.2193 0.76916 0.74903 0.0
C2158 C 0.20245 0.78511 0.75656 0.0
C2159 C 0.21052 0.80664 0.76253 0.0
C2160 C 0.1946 0.82145 0.76975 0.0
C2161 C 0.17051 0.815 0.77098 0.0
C2162 C 0.16229 0.79377 0.76496 0.0
C2163 C 0.17814 0.77889 0.75774 0.0
H2164 H 0.15822 0.82649 0.77658 0.0
H2165 H 0.31174 0.68161 0.70652 0.0
H2166 H 0.43284 0.99413 0.05142 0.0
H2167 H 0.44345 0.99325 0.02669 0.0
H2168 H 0.51838 0.99678 0.03742 0.0
H2169 H 0.508 0.99795 0.06207 0.0
H2170 H 0.50745 0.02771 0.01678 0.0
H2171 H 0.49313 0.9445 0.02723 0.0
H2172 H 0.46958 0.91021 0.03584 0.0
H2173 H 0.41491 0.92479 0.00557 0.0
H2174 H 0.438 0.95939 0.9969 0.0
H2175 H 0.56162 0.99308 0.95339 0.0
H2176 H 0.54796 0.99519 0.97752 0.0
H2177 H 0.47456 0.99067 0.96375 0.0
H2178 H 0.48806 0.98818 0.93959 0.0
H2179 H 0.48265 0.96149 0.98553 0.0
H2180 H 0.49763 0.0436 0.97433 0.0
H2181 H 0.52121 0.07774 0.96555 0.0
H2182 H 0.57433 0.06553 0.99708 0.0
H2183 H 0.55124 0.03108 0.00593 0.0
C2184 C 0.45158 0.99463 0.04851 0.0
C2185 C 0.46957 0.99607 0.05871 0.0
C2186 C 0.4576 0.99408 0.03439 0.0
C2187 C 0.48171 0.99482 0.03024 0.0
C2188 C 0.49967 0.99625 0.0404 0.0
C2189 C 0.49369 0.99681 0.0545 0.0
C2190 C 0.48836 0.99429 0.01532 0.0
C2191 C 0.50225 0.01311 0.00998 0.0
C2192 C 0.48101 0.97556 0.00637 0.0
C2193 C 0.46717 0.95469 0.01152 0.0
C2194 C 0.476 0.94051 0.02249 0.0
C2195 C 0.46275 0.921 0.02737 0.0
C2196 C 0.44073 0.91537 0.02129 0.0
C2197 C 0.43195 0.9292 0.01029 0.0
C2198 C 0.44511 0.94875 0.00538 0.0
C2199 C 0.54257 0.99259 0.95548 0.0
C2200 C 0.52593 0.99054 0.94457 0.0
C2201 C 0.53479 0.99389 0.96927 0.0
C2202 C 0.51023 0.99335 0.9724 0.0
C2203 C 0.49359 0.99115 0.96155 0.0
C2204 C 0.50135 0.98981 0.94775 0.0
C2205 C 0.50197 0.99479 0.98703 0.0
C2206 C 0.48775 0.97616 0.99231 0.0
C2207 C 0.50898 0.01373 0.99591 0.0
C2208 C 0.52279 0.03462 0.99072 0.0
C2209 C 0.51442 0.04809 0.97933 0.0
C2210 C 0.52769 0.06751 0.97435 0.0
C2211 C 0.54928 0.07376 0.98073 0.0
C2212 C 0.55761 0.06065 0.99214 0.0
C2213 C 0.54443 0.04119 0.99715 0.0
H2214 H 0.55954 0.08879 0.97684 0.0
H2215 H 0.4305 0.90025 0.02508 0.0
H2216 H 0.25949 0.68535 0.29874 0.0
H2217 H 0.25788 0.69834 0.27446 0.0
H2218 H 0.26455 0.77195 0.28751 0.0
H2219 H 0.26573 0.75917 0.31182 0.0
H2220 H 0.23048 0.76751 0.26841 0.0
H2221 H 0.31186 0.74203 0.27307 0.0
H2222 H 0.34473 0.7144 0.27906 0.0
H2223 H 0.31859 0.66353 0.24919 0.0
H2224 H 0.28535 0.69073 0.24316 0.0
H2225 H 0.25543 0.81543 0.20134 0.0
H2226 H 0.2599 0.80316 0.22566 0.0
H2227 H 0.24704 0.72969 0.21406 0.0
H2228 H 0.24255 0.74174 0.18972 0.0
H2229 H 0.28517 0.73482 0.23239 0.0
H2230 H 0.20318 0.7606 0.22828 0.0
H2231 H 0.17085 0.78885 0.22227 0.0
H2232 H 0.19917 0.84007 0.25125 0.0
H2233 H 0.23189 0.81224 0.25728 0.0
C2234 C 0.26067 0.7043 0.29645 0.0
C2235 C 0.26276 0.72122 0.3072 0.0
C2236 C 0.25986 0.71169 0.28256 0.0
C2237 C 0.26137 0.7361 0.27917 0.0
C2238 C 0.26338 0.75303 0.28989 0.0
C2239 C 0.26409 0.74567 0.30378 0.0
C2240 C 0.26035 0.74404 0.26445 0.0
C2241 C 0.24268 0.76063 0.26058 0.0
C2242 C 0.27598 0.73471 0.25419 0.0
C2243 C 0.29598 0.71833 0.25777 0.0
C2244 C 0.31301 0.72487 0.26786 0.0
C2245 C 0.33173 0.7093 0.27125 0.0
C2246 C 0.33371 0.6872 0.26454 0.0
C2247 C 0.31701 0.68065 0.2544 0.0
C2248 C 0.29824 0.69614 0.25098 0.0
C2249 C 0.25363 0.79665 0.20395 0.0
C2250 C 0.24852 0.77957 0.19362 0.0
C2251 C 0.25613 0.78969 0.21784 0.0
C2252 C 0.25361 0.76555 0.22164 0.0
C2253 C 0.24903 0.7484 0.21132 0.0
C2254 C 0.24638 0.75535 0.19744 0.0
C2255 C 0.25531 0.75821 0.2364 0.0
C2256 C 0.27307 0.74173 0.24026 0.0
C2257 C 0.23986 0.76773 0.24667 0.0
C2258 C 0.22012 0.78443 0.24312 0.0
C2259 C 0.20263 0.77796 0.23328 0.0
C2260 C 0.18421 0.79389 0.22989 0.0
C2261 C 0.18299 0.81627 0.23634 0.0
C2262 C 0.20016 0.82274 0.24624 0.0
C2263 C 0.21863 0.8069 0.24965 0.0
H2264 H 0.16872 0.82857 0.23371 0.0
H2265 H 0.34822 0.67517 0.26717 0.0
H2266 H 0.47635 0.02278 0.44094 0.0
H2267 H 0.48092 0.03044 0.46584 0.0
H2268 H 0.4629 0.95686 0.47471 0.0
H2269 H 0.45762 0.94924 0.44985 0.0
H2270 H 0.44179 0.98538 0.49281 0.0
H2271 H 0.52148 0.97683 0.47471 0.0
H2272 H 0.55536 0.98554 0.45904 0.0
H2273 H 0.55647 0.05846 0.47318 0.0
H2274 H 0.52235 0.05025 0.48881 0.0
H2275 H 0.49394 0.97459 0.56017 0.0
H2276 H 0.48374 0.97091 0.53551 0.0
H2277 H 0.49463 0.04677 0.53001 0.0
H2278 H 0.50484 0.05067 0.55468 0.0
H2279 H 0.51827 0.01909 0.51033 0.0
H2280 H 0.43941 0.0258 0.52976 0.0
H2281 H 0.40641 0.01547 0.54572 0.0
H2282 H 0.40491 0.94392 0.52941 0.0
H2283 H 0.43817 0.95372 0.51348 0.0
C2284 C 0.47329 0.00824 0.44819 0.0
C2285 C 0.46679 0.98536 0.44343 0.0
C2286 C 0.47598 0.01263 0.46242 0.0
C2287 C 0.47262 0.99412 0.47212 0.0
C2288 C 0.46561 0.9714 0.4674 0.0
C2289 C 0.46268 0.96706 0.45319 0.0
C2290 C 0.47685 0.99828 0.48717 0.0
C2291 C 0.45861 0.99252 0.49665 0.0
C2292 C 0.49862 0.00803 0.49216 0.0
C2293 C 0.5192 0.01298 0.48281 0.0
C2294 C 0.52883 0.99476 0.4744 0.0
C2295 C 0.5481 -0.0004 0.46554 0.0
C2296 C 0.55802 0.02256 0.46509 0.0
C2297 C 0.54874 0.0407 0.47353 0.0
C2298 C 0.52945 0.03596 0.48239 0.0
C2299 C 0.49401 0.99053 0.55374 0.0
C2300 C 0.50024 0.01292 0.55936 0.0
C2301 C 0.48809 0.9884 0.53967 0.0
C2302 C 0.48832 0.0086 0.53099 0.0
C2303 C 0.49433 0.03099 0.53657 0.0
C2304 C 0.50009 0.03318 0.55067 0.0
C2305 C 0.48328 0.0061 0.51594 0.0
C2306 C 0.5014 0.01212 0.50646 0.0
C2307 C 0.46151 0.99636 0.51099 0.0
C2308 C 0.44143 0.99044 0.52051 0.0
C2309 C 0.43218 0.0078 0.52966 0.0
C2310 C 0.4134 0.00205 0.53868 0.0
C2311 C 0.40361 0.97904 0.5386 0.0
C2312 C 0.41254 0.96174 0.52947 0.0
C2313 C 0.43133 0.96739 0.52043 0.0
H2314 H 0.38907 0.97462 0.5456 0.0
H2315 H 0.57294 0.02627 0.45822 0.0
H2316 H 0.25894 0.24472 0.80866 0.0
H2317 H 0.26564 0.23346 0.78441 0.0
H2318 H 0.22912 0.29737 0.77081 0.0
H2319 H 0.22229 0.30883 0.7951 0.0
H2320 H 0.214 0.25651 0.75694 0.0
H2321 H 0.28791 0.29529 0.76841 0.0
H2322 H 0.32419 0.30306 0.78232 0.0
H2323 H 0.34803 0.23095 0.77537 0.0
H2324 H 0.3117 0.22264 0.76158 0.0
H2325 H 0.24952 0.25236 0.68609 0.0
H2326 H 0.24307 0.26426 0.71025 0.0
H2327 H 0.281 0.20144 0.72429 0.0
H2328 H 0.2877 0.18942 0.70009 0.0
H2329 H 0.29535 0.24205 0.7379 0.0
H2330 H 0.2215 0.20312 0.72653 0.0
H2331 H 0.18528 0.19519 0.71261 0.0
H2332 H 0.16125 0.26727 0.7194 0.0
H2333 H 0.19753 0.27575 0.7332 0.0
C2334 C 0.25241 0.25646 0.80052 0.0
C2335 C 0.24012 0.2777 0.8038 0.0
C2336 C 0.25632 0.25002 0.78668 0.0
C2337 C 0.248 0.26467 0.77585 0.0
C2338 C 0.23569 0.28586 0.77905 0.0
C2339 C 0.2319 0.29241 0.79291 0.0
C2340 C 0.25186 0.25757 0.76118 0.0
C2341 C 0.23178 0.25369 0.7527 0.0
C2342 C 0.27506 0.25332 0.75581 0.0
C2343 C 0.29696 0.25827 0.76408 0.0
C2344 C 0.30078 0.28102 0.76995 0.0
C2345 C 0.32138 0.28554 0.77779 0.0
C2346 C 0.33837 0.26749 0.77976 0.0
C2347 C 0.33484 0.2449 0.77385 0.0
C2348 C 0.31425 0.24028 0.76601 0.0
C2349 C 0.25645 0.24101 0.6943 0.0
C2350 C 0.26909 0.2199 0.69118 0.0
C2351 C 0.25267 0.24781 0.7081 0.0
C2352 C 0.26138 0.23361 0.71903 0.0
C2353 C 0.27411 0.21261 0.71597 0.0
C2354 C 0.27785 0.20573 0.70215 0.0
C2355 C 0.25749 0.24095 0.73366 0.0
C2356 C 0.27756 0.24488 0.74214 0.0
C2357 C 0.23428 0.24521 0.73903 0.0
C2358 C 0.21237 0.24014 0.73079 0.0
C2359 C 0.2086 0.21735 0.72496 0.0
C2360 C 0.18803 0.21274 0.71711 0.0
C2361 C 0.171 0.23073 0.71508 0.0
C2362 C 0.17447 0.25336 0.72095 0.0
C2363 C 0.19503 0.25807 0.72881 0.0
H2364 H 0.1551 0.22713 0.709 0.0
H2365 H 0.35431 0.27103 0.78583 0.0
H2366 H 0.00166 0.98089 0.94129 0.0
H2367 H 0.99843 0.9747 0.96636 0.0
H2368 H 0.00092 0.05106 0.97297 0.0
H2369 H 0.00457 0.05744 0.94784 0.0
H2370 H 0.03005 0.02782 0.99075 0.0
H2371 H 0.94847 0.02066 0.97598 0.0
H2372 H 0.91501 0.00528 0.96181 0.0
H2373 H 0.92893 0.93398 0.97646 0.0
H2374 H 0.9627 0.94889 0.99057 0.0
H2375 H 0.99109 0.02539 0.06135 0.0
H2376 H 0.99541 0.0325 0.03639 0.0
H2377 H 0.99423 0.95637 0.02888 0.0
H2378 H 0.98963 0.94906 0.05385 0.0
H2379 H 0.96423 0.98012 0.01161 0.0
H2380 H 0.04603 0.9875 0.02635 0.0
H2381 H 0.07933 0.00311 0.04054 0.0
H2382 H 0.06471 0.07437 0.02606 0.0
H2383 H 0.03108 0.05923 0.01192 0.0
C2384 C 0.0014 0.99641 0.94805 0.0
C2385 C 0.00331 0.01968 0.94257 0.0
C2386 C 0.99948 0.99283 0.96238 0.0
C2387 C 0.99919 0.01243 0.97151 0.0
C2388 C 0.00109 0.03569 0.96609 0.0
C2389 C 0.00308 0.0393 0.95173 0.0
C2390 C 0.99736 0.00855 0.98674 0.0
C2391 C 0.01547 0.0177 0.99535 0.0
C2392 C 0.97862 0.99487 0.99267 0.0
C2393 C 0.95826 0.98587 0.98423 0.0
C2394 C 0.94451 0.00167 0.97609 0.0
C2395 C 0.92547 0.99305 0.96809 0.0
C2396 C 0.91989 0.96866 0.96821 0.0
C2397 C 0.9333 0.95286 0.97637 0.0
C2398 C 0.95237 0.96139 0.98438 0.0
C2399 C 0.99193 0.01013 0.05441 0.0
C2400 C 0.98999 0.98665 0.05958 0.0
C2401 C 0.99448 0.01424 0.04015 0.0
C2402 C 0.99529 0.99495 0.0308 0.0
C2403 C 0.99363 0.97149 0.03594 0.0
C2404 C 0.99109 0.96736 0.05021 0.0
C2405 C 0.99697 0.99929 0.01562 0.0
C2406 C 0.9788 0.99026 0.00702 0.0
C2407 C 0.01562 0.01311 0.00971 0.0
C2408 C 0.03588 0.02225 0.01818 0.0
C2409 C 0.04978 0.00653 0.02628 0.0
C2410 C 0.06874 0.01529 0.0343 0.0
C2411 C 0.07409 0.03972 0.03423 0.0
C2412 C 0.06052 0.05545 0.02611 0.0
C2413 C 0.04152 0.04678 0.01808 0.0
H2414 H 0.08878 0.04647 0.04045 0.0
H2415 H 0.90514 0.96202 0.96201 0.0
H2416 H 0.75851 0.81563 0.70294 0.0
H2417 H 0.75347 0.80477 0.72743 0.0
H2418 H 0.75578 0.72991 0.71644 0.0
H2419 H 0.76138 0.74059 0.69201 0.0
H2420 H 0.71951 0.78149 0.74064 0.0
H2421 H 0.78121 0.69789 0.74233 0.0
H2422 H 0.8179 0.68294 0.73096 0.0
H2423 H 0.83987 0.75509 0.72231 0.0
H2424 H 0.8035 0.77048 0.73379 0.0
H2425 H 0.69392 0.71165 0.80011 0.0
H2426 H 0.70219 0.7246 0.77629 0.0
H2427 H 0.77244 0.74848 0.78879 0.0
H2428 H 0.76448 0.73526 0.8126 0.0
H2429 H 0.77464 0.72528 0.76461 0.0
H2430 H 0.7278 0.78855 0.78395 0.0
H2431 H 0.69338 0.80666 0.79611 0.0
H2432 H 0.64607 0.78125 0.76412 0.0
H2433 H 0.68018 0.76268 0.75187 0.0
C2434 C 0.75801 0.79685 0.70574 0.0
C2435 C 0.76045 0.77897 0.69555 0.0
C2436 C 0.75508 0.79068 0.71974 0.0
C2437 C 0.75452 0.76654 0.72379 0.0
C2438 C 0.75662 0.74866 0.7136 0.0
C2439 C 0.75972 0.7548 0.69962 0.0
C2440 C 0.75139 0.76003 0.73865 0.0
C2441 C 0.73158 0.76922 0.74588 0.0
C2442 C 0.7674 0.74438 0.74558 0.0
C2443 C 0.7895 0.73531 0.73881 0.0
C2444 C 0.79392 0.71057 0.73805 0.0
C2445 C 0.81465 0.70202 0.73158 0.0
C2446 C 0.83117 0.71805 0.72588 0.0
C2447 C 0.82703 0.74269 0.72668 0.0
C2448 C 0.80634 0.75133 0.73316 0.0
C2449 C 0.71116 0.7196 0.7978 0.0
C2450 C 0.72851 0.72251 0.80827 0.0
C2451 C 0.71582 0.72707 0.78419 0.0
C2452 C 0.73782 0.73776 0.78082 0.0
C2453 C 0.75533 0.7403 0.79118 0.0
C2454 C 0.75072 0.73278 0.80479 0.0
C2455 C 0.74251 0.74639 0.76648 0.0
C2456 C 0.7626 0.73757 0.75936 0.0
C2457 C 0.72708 0.76283 0.75975 0.0
C2458 C 0.70652 0.77404 0.76706 0.0
C2459 C 0.71003 0.78667 0.77957 0.0
C2460 C 0.69058 0.79704 0.78646 0.0
C2461 C 0.66755 0.79506 0.78091 0.0
C2462 C 0.66392 0.78275 0.76842 0.0
C2463 C 0.68331 0.77231 0.76149 0.0
H2464 H 0.65251 0.8031 0.78626 0.0
H2465 H 0.84719 0.7114 0.72086 0.0
H2466 H 0.74813 0.19408 0.20622 0.0
H2467 H 0.75195 0.20526 0.2307 0.0
H2468 H 0.73912 0.2792 0.22008 0.0
H2469 H 0.73549 0.26823 0.19552 0.0
H2470 H 0.77611 0.27433 0.23843 0.0
H2471 H 0.69515 0.24671 0.23431 0.0
H2472 H 0.66305 0.21848 0.22792 0.0
H2473 H 0.69272 0.16567 0.25546 0.0
H2474 H 0.72522 0.19349 0.26187 0.0
H2475 H 0.75203 0.31511 0.3073 0.0
H2476 H 0.74904 0.30529 0.28255 0.0
H2477 H 0.76088 0.23071 0.292 0.0
H2478 H 0.76364 0.24029 0.31676 0.0
H2479 H 0.72402 0.23667 0.27412 0.0
H2480 H 0.80516 0.26432 0.27815 0.0
H2481 H 0.83709 0.2927 0.28461 0.0
H2482 H 0.80695 0.34561 0.25731 0.0
H2483 H 0.77461 0.31765 0.25083 0.0
C2484 C 0.74614 0.21273 0.20907 0.0
C2485 C 0.7414 0.23025 0.19893 0.0
C2486 C 0.74825 0.21907 0.22308 0.0
C2487 C 0.74556 0.24302 0.22721 0.0
C2488 C 0.74122 0.26062 0.2171 0.0
C2489 C 0.73907 0.25429 0.20308 0.0
C2490 C 0.74715 0.24964 0.2421 0.0
C2491 C 0.76451 0.26636 0.24622 0.0
C2492 C 0.73232 0.23886 0.25227 0.0
C2493 C 0.71276 0.22211 0.24846 0.0
C2494 C 0.69495 0.22901 0.23892 0.0
C2495 C 0.67666 0.21309 0.23531 0.0
C2496 C 0.67588 0.19027 0.24125 0.0
C2497 C 0.69337 0.18334 0.25085 0.0
C2498 C 0.71171 0.19919 0.25449 0.0
C2499 C 0.75405 0.29663 0.30411 0.0
C2500 C 0.75811 0.27849 0.31399 0.0
C2501 C 0.75243 0.29107 0.28996 0.0
C2502 C 0.75495 0.2673 0.28544 0.0
C2503 C 0.7589 0.24916 0.29528 0.0
C2504 C 0.76054 0.25469 0.30942 0.0
C2505 C 0.75307 0.26125 0.27048 0.0
C2506 C 0.73562 0.24466 0.26633 0.0
C2507 C 0.76781 0.27217 0.26031 0.0
C2508 C 0.78732 0.28897 0.26412 0.0
C2509 C 0.80523 0.28207 0.27361 0.0
C2510 C 0.82342 0.29807 0.27726 0.0
C2511 C 0.82401 0.32097 0.27141 0.0
C2512 C 0.80644 0.32789 0.26185 0.0
C2513 C 0.78819 0.31196 0.25818 0.0
H2514 H 0.8381 0.33334 0.27425 0.0
H2515 H 0.6617 0.17798 0.23845 0.0
H2516 H 0.75599 0.25835 0.80938 0.0
H2517 H 0.75375 0.2681 0.78466 0.0
H2518 H 0.723 0.19877 0.77621 0.0
H2519 H 0.72539 0.1887 0.801 0.0
H2520 H 0.75814 0.21012 0.75774 0.0
H2521 H 0.68795 0.24782 0.77618 0.0
H2522 H 0.66499 0.2736 0.79217 0.0
H2523 H 0.7056 0.33477 0.77891 0.0
H2524 H 0.72905 0.30928 0.76297 0.0
H2525 H 0.72077 0.23665 0.68879 0.0
H2526 H 0.72148 0.22584 0.71342 0.0
H2527 H 0.75187 0.29471 0.72345 0.0
H2528 H 0.75097 0.30582 0.69882 0.0
H2529 H 0.71594 0.28289 0.74107 0.0
H2530 H 0.78665 0.24512 0.72302 0.0
H2531 H 0.80982 0.21937 0.7071 0.0
H2532 H 0.76829 0.15838 0.71967 0.0
H2533 H 0.74465 0.18384 0.73554 0.0
C2534 C 0.74868 0.24516 0.80229 0.0
C2535 C 0.74078 0.22276 0.80716 0.0
C2536 C 0.74734 0.25081 0.78817 0.0
C2537 C 0.73795 0.23427 0.77864 0.0
C2538 C 0.73025 0.21181 0.78342 0.0
C2539 C 0.73157 0.20612 0.79758 0.0
C2540 C 0.73652 0.24039 0.76365 0.0
C2541 C 0.7486 0.22582 0.75405 0.0
C2542 C 0.72454 0.26119 0.75893 0.0
C2543 C 0.71041 0.27659 0.76847 0.0
C2544 C 0.69212 0.26673 0.77675 0.0
C2545 C 0.67899 0.2813 0.78579 0.0
C2546 C 0.68387 0.30579 0.78658 0.0
C2547 C 0.70185 0.31579 0.7783 0.0
C2548 C 0.71505 0.30129 0.76925 0.0
C2549 C 0.72764 0.24952 0.69622 0.0
C2550 C 0.73589 0.27209 0.69184 0.0
C2551 C 0.72811 0.24326 0.71029 0.0
C2552 C 0.73697 0.25937 0.72024 0.0
C2553 C 0.745 0.282 0.71593 0.0
C2554 C 0.74453 0.28829 0.70185 0.0
C2555 C 0.73765 0.25269 0.73516 0.0
C2556 C 0.72542 0.26716 0.74475 0.0
C2557 C 0.7495 0.2318 0.73988 0.0
C2558 C 0.76372 0.21644 0.73036 0.0
C2559 C 0.78233 0.22625 0.72231 0.0
C2560 C 0.79557 0.2117 0.71331 0.0
C2561 C 0.79049 0.18726 0.71235 0.0
C2562 C 0.77219 0.17732 0.72041 0.0
C2563 C 0.75887 0.1918 0.72942 0.0
H2564 H 0.80076 0.17603 0.70538 0.0
H2565 H 0.67368 0.31704 0.79359 0.0
H2566 H 0.77199 0.75613 0.31718 0.0
H2567 H 0.78104 0.75058 0.29256 0.0
H2568 H 0.70554 0.75039 0.28305 0.0
H2569 H 0.69624 0.75562 0.30779 0.0
H2570 H 0.72938 0.71602 0.26867 0.0
H2571 H 0.73847 0.80001 0.27735 0.0
H2572 H 0.75374 0.83573 0.28953 0.0
H2573 H 0.82584 0.81596 0.27909 0.0
H2574 H 0.81102 0.77991 0.267 0.0
H2575 H 0.73943 0.73719 0.19629 0.0
H2576 H 0.73032 0.74145 0.221 0.0
H2577 H 0.80575 0.73974 0.23064 0.0
H2578 H 0.81511 0.73565 0.20584 0.0
H2579 H 0.78188 0.77499 0.24492 0.0
H2580 H 0.77236 0.69095 0.23603 0.0
H2581 H 0.75669 0.65553 0.22373 0.0
H2582 H 0.68483 0.67586 0.23439 0.0
H2583 H 0.70006 0.71161 0.2466 0.0
C2584 C 0.75726 0.75479 0.30989 0.0
C2585 C 0.73337 0.75649 0.31443 0.0
C2586 C 0.76249 0.75171 0.29581 0.0
C2587 C 0.74397 0.75048 0.28597 0.0
C2588 C 0.72009 0.75141 0.29049 0.0
C2589 C 0.71481 0.75444 0.30461 0.0
C2590 C 0.74964 0.74859 0.27095 0.0
C2591 C 0.74059 0.72908 0.26342 0.0
C2592 C 0.76467 0.76539 0.2642 0.0
C2593 C 0.77364 0.78713 0.27139 0.0
C2594 C 0.7576 0.80318 0.27774 0.0
C2595 C 0.76617 0.8235 0.28461 0.0
C2596 C 0.79075 0.82808 0.28511 0.0
C2597 C 0.80681 0.81237 0.27871 0.0
C2598 C 0.79833 0.792 0.27183 0.0
C2599 C 0.75413 0.73779 0.20364 0.0
C2600 C 0.77802 0.73598 0.1991 0.0
C2601 C 0.74886 0.74012 0.21777 0.0
C2602 C 0.76735 0.74059 0.22764 0.0
C2603 C 0.79123 0.73932 0.22316 0.0
C2604 C 0.79654 0.73694 0.209 0.0
C2605 C 0.76167 0.7424 0.24266 0.0
C2606 C 0.77069 0.76192 0.25017 0.0
C2607 C 0.74655 0.72565 0.24938 0.0
C2608 C 0.73735 0.70408 0.24212 0.0
C2609 C 0.75321 0.68797 0.23566 0.0
C2610 C 0.7444 0.66782 0.22872 0.0
C2611 C 0.71978 0.66348 0.22825 0.0
C2612 C 0.7039 0.67926 0.23475 0.0
C2613 C 0.71261 0.69946 0.24169 0.0
H2614 H 0.713 0.64787 0.22286 0.0
H2615 H 0.79735 0.84382 0.29044 0.0
H2616 H 0.56997 0.53909 0.0469 0.0
H2617 H 0.56446 0.54112 0.02164 0.0
H2618 H 0.5063 0.49054 0.0245 0.0
H2619 H 0.51172 0.48828 0.04969 0.0
H2620 H 0.53748 0.47988 0.00327 0.0
H2621 H 0.49472 0.54896 0.02068 0.0
H2622 H 0.49065 0.58675 0.03374 0.0
H2623 H 0.54529 0.61892 0.00844 0.0
H2624 H 0.5499 0.58119 0.99535 0.0
H2625 H 0.47565 0.49343 0.94013 0.0
H2626 H 0.48795 0.49231 0.96447 0.0
H2627 H 0.54084 0.5469 0.95642 0.0
H2628 H 0.52825 0.5485 0.93203 0.0
H2629 H 0.51683 0.55631 0.9798 0.0
H2630 H 0.55759 0.48864 0.96109 0.0
H2631 H 0.56202 0.45102 0.94792 0.0
H2632 H 0.51245 0.41619 0.97545 0.0
H2633 H 0.50744 0.45371 0.98868 0.0
C2634 C 0.55602 0.52838 0.04215 0.0
C2635 C 0.54122 0.51358 0.0503 0.0
C2636 C 0.55286 0.52962 0.02773 0.0
C2637 C 0.53487 0.51609 0.02124 0.0
C2638 C 0.5203 0.5011 0.02932 0.0
C2639 C 0.52336 0.49992 0.04372 0.0
C2640 C 0.53103 0.51758 0.00602 0.0
C2641 C 0.53276 0.49653 0.99813 0.0
C2642 C 0.52565 0.53948 -0.0007 0.0
C2643 C 0.52284 0.56218 0.00714 0.0
C2644 C 0.50601 0.56403 0.01798 0.0
C2645 C 0.50357 0.58545 0.02537 0.0
C2646 C 0.51775 0.6052 0.02195 0.0
C2647 C 0.53435 0.60359 0.0111 0.0
C2648 C 0.53687 0.5822 0.00368 0.0
C2649 C 0.48995 0.50517 0.9435 0.0
C2650 C 0.50102 0.52103 0.93413 0.0
C2651 C 0.49705 0.50441 0.95741 0.0
C2652 C 0.51556 0.51927 0.96222 0.0
C2653 C 0.52657 0.53523 0.95292 0.0
C2654 C 0.51938 0.53609 0.93899 0.0
C2655 C 0.52283 0.51849 0.97705 0.0
C2656 C 0.52179 0.53967 0.98488 0.0
C2657 C 0.52897 0.49672 0.9837 0.0
C2658 C 0.53201 0.47406 0.97581 0.0
C2659 C 0.5475 0.47301 0.96428 0.0
C2660 C 0.55014 0.45169 0.95681 0.0
C2661 C 0.53749 0.43124 0.96083 0.0
C2662 C 0.52222 0.43205 0.97235 0.0
C2663 C 0.5195 0.45333 0.97984 0.0
H2664 H 0.53956 0.41475 0.95503 0.0
H2665 H 0.51584 0.62177 0.02768 0.0
H2666 H 0.99774 0.50877 0.437 0.0
H2667 H 0.98503 0.5138 0.46119 0.0
H2668 H 0.04112 0.46599 0.47463 0.0
H2669 H 0.05397 0.46082 0.45047 0.0
H2670 H 0.99744 0.45629 0.48707 0.0
H2671 H 0.0484 0.52418 0.47874 0.0
H2672 H 0.06214 0.56021 0.46623 0.0
H2673 H 0.9944 0.59422 0.47374 0.0
H2674 H 0.98012 0.55823 0.48612 0.0
H2675 H -0.0004 0.48179 0.55903 0.0
H2676 H 0.01045 0.47754 0.53454 0.0
H2677 H 0.95502 0.52765 0.52314 0.0
H2678 H 0.94412 0.53219 0.54768 0.0
H2679 H 0.9969 0.53643 0.50938 0.0
H2680 H 0.9461 0.46923 0.51819 0.0
H2681 H 0.93205 0.4333 0.53067 0.0
H2682 H 0.99878 0.398 0.52216 0.0
H2683 H 0.01337 0.43388 0.50981 0.0
C2684 C 0.00737 0.4993 0.44509 0.0
C2685 C 0.02693 0.48446 0.44183 0.0
C2686 C 0.00012 0.50225 0.4589 0.0
C2687 C 0.01227 0.49041 0.46968 0.0
C2688 C 0.03154 0.4753 0.46644 0.0
C2689 C 0.03891 0.47245 0.45265 0.0
C2690 C 0.00492 0.49382 0.48434 0.0
C2691 C 0.99758 0.47375 0.49202 0.0
C2692 C 0.00454 0.51672 0.49063 0.0
C2693 C 0.0131 0.53841 0.48322 0.0
C2694 C 0.03635 0.53926 0.47761 0.0
C2695 C 0.04425 0.55969 0.47057 0.0
C2696 C 0.02912 0.57947 0.46916 0.0
C2697 C 0.00608 0.57887 0.47482 0.0
C2698 C 0.99808 0.55847 0.48186 0.0
C2699 C 0.98971 0.49195 0.55133 0.0
C2700 C 0.9709 0.50724 0.5553 0.0
C2701 C 0.99589 0.48942 0.53733 0.0
C2702 C 0.98333 0.50205 0.52703 0.0
C2703 C 0.96487 0.51769 0.53095 0.0
C2704 C 0.95863 0.5202 0.54497 0.0
C2705 C 0.98955 0.49887 0.51216 0.0
C2706 C 0.99667 0.51897 0.50444 0.0
C2707 C 0.98966 0.47601 0.50581 0.0
C2708 C 0.98092 0.45434 0.51319 0.0
C2709 C 0.95786 0.45389 0.51908 0.0
C2710 C 0.94978 0.43351 0.52611 0.0
C2711 C 0.96454 0.4134 0.52724 0.0
C2712 C 0.98738 0.4136 0.5213 0.0
C2713 C 0.99556 0.43395 0.51427 0.0
H2714 H 0.95825 0.39764 0.53269 0.0
H2715 H 0.03528 0.59527 0.4637 0.0
H2716 H 0.06287 0.52289 0.04861 0.0
H2717 H 0.05412 0.51734 0.02388 0.0
H2718 H 0.98753 0.48259 0.0344 0.0
H2719 H 0.99632 0.48764 0.05912 0.0
H2720 H 0.01008 0.45895 0.0141 0.0
H2721 H 0.98903 0.54099 0.02356 0.0
H2722 H 0.99612 0.58216 0.03184 0.0
H2723 H 0.05305 0.59044 0.00216 0.0
H2724 H 0.04649 0.54917 0.99383 0.0
H2725 H 0.9473 0.46855 0.95034 0.0
H2726 H 0.96071 0.47188 0.97446 0.0
H2727 H 0.02654 0.50463 0.96068 0.0
H2728 H 0.01315 0.50164 0.9365 0.0
H2729 H 0.00695 0.52877 0.9822 0.0
H2730 H 0.02622 0.44717 0.97184 0.0
H2731 H 0.01846 0.40616 0.96348 0.0
H2732 H 0.96432 0.3971 0.9948 0.0
H2733 H 0.97153 0.43819 0.00322 0.0
C2734 C 0.04638 0.51404 0.04566 0.0
C2735 C 0.03024 0.50579 0.05583 0.0
C2736 C 0.04138 0.51094 0.03152 0.0
C2737 C 0.02005 0.49979 0.02731 0.0
C2738 C 0.0041 0.49124 0.03743 0.0
C2739 C 0.00912 0.49422 0.05156 0.0
C2740 C 0.01415 0.49718 0.01234 0.0
C2741 C 0.00916 0.47423 0.00715 0.0
C2742 C 0.01353 0.51707 0.00321 0.0
C2743 C 0.01744 0.54191 0.00817 0.0
C2744 C 0.00318 0.55152 0.01887 0.0
C2745 C 0.00708 0.57489 0.02356 0.0
C2746 C 0.02507 0.58889 0.01756 0.0
C2747 C 0.03915 0.57957 0.00682 0.0
C2748 C 0.03534 0.5562 0.0021 0.0
C2749 C 0.96467 0.47638 0.95242 0.0
C2750 C 0.97917 0.48482 0.9415 0.0
C2751 C 0.97235 0.47817 0.96621 0.0
C2752 C 0.99473 0.48827 0.96934 0.0
C2753 C 0.00923 0.49674 0.95848 0.0
C2754 C 0.00157 0.49496 0.94467 0.0
C2755 C 0.00266 0.49056 0.98399 0.0
C2756 C 0.00803 0.51345 0.98912 0.0
C2757 C 0.00357 0.47063 0.99307 0.0
C2758 C 0.99928 0.44584 0.98808 0.0
C2759 C 0.01254 0.4365 0.97688 0.0
C2760 C 0.00826 0.41322 0.97214 0.0
C2761 C 0.99087 0.39905 0.97859 0.0
C2762 C 0.97777 0.4081 0.98981 0.0
C2763 C 0.98197 0.43138 0.99458 0.0
H2764 H 0.98758 0.38104 0.9749 0.0
H2765 H 0.02807 0.60697 0.02121 0.0
H2766 H 0.49042 0.54617 0.43997 0.0
H2767 H 0.48748 0.54035 0.46518 0.0
H2768 H 0.52054 0.47089 0.46117 0.0
H2769 H 0.52352 0.47649 0.43601 0.0
H2770 H 0.48157 0.47045 0.47881 0.0
H2771 H 0.55332 0.51661 0.4719 0.0
H2772 H 0.57702 0.55061 0.46303 0.0
H2773 H 0.53357 0.59951 0.48651 0.0
H2774 H 0.50937 0.56581 0.49537 0.0
H2775 H 0.5104 0.45047 0.54967 0.0
H2776 H 0.51347 0.45617 0.52448 0.0
H2777 H 0.48584 0.52794 0.52873 0.0
H2778 H 0.4832 0.5226 0.5539 0.0
H2779 H 0.52199 0.52723 0.51084 0.0
H2780 H 0.45008 0.48164 0.51773 0.0
H2781 H 0.42574 0.448 0.52646 0.0
H2782 H 0.4685 0.39851 0.50296 0.0
H2783 H 0.49332 0.43185 0.49423 0.0
C2784 C 0.49693 0.5296 0.44444 0.0
C2785 C 0.50731 0.51184 0.436 0.0
C2786 C 0.49533 0.52635 0.45884 0.0
C2787 C 0.50403 0.50529 0.46502 0.0
C2788 C 0.51377 0.48728 0.45659 0.0
C2789 C 0.51551 0.49056 0.44222 0.0
C2790 C 0.50335 0.50215 0.48031 0.0
C2791 C 0.49063 0.48268 0.48582 0.0
C2792 C 0.51477 0.51843 0.48943 0.0
C2793 C 0.52938 0.53871 0.48418 0.0
C2794 C 0.54869 0.53463 0.47508 0.0
C2795 C 0.56224 0.55384 0.47007 0.0
C2796 C 0.55676 0.57721 0.47417 0.0
C2797 C 0.53777 0.5814 0.48332 0.0
C2798 C 0.52414 0.56225 0.48835 0.0
C2799 C 0.50507 0.4675 0.54525 0.0
C2800 C 0.49643 0.48604 0.55377 0.0
C2801 C 0.50674 0.47069 0.53085 0.0
C2802 C 0.49953 0.49236 0.52471 0.0
C2803 C 0.49144 0.51106 0.53324 0.0
C2804 C 0.48991 0.50795 0.54763 0.0
C2805 C 0.50016 0.49551 0.50938 0.0
C2806 C 0.51289 0.51498 0.50385 0.0
C2807 C 0.48865 0.47928 0.50025 0.0
C2808 C 0.4737 0.45922 0.50544 0.0
C2809 C 0.45441 0.46356 0.51451 0.0
C2810 C 0.4405 0.44455 0.51944 0.0
C2811 C 0.44561 0.42113 0.5153 0.0
C2812 C 0.46459 0.41667 0.50618 0.0
C2813 C 0.47857 0.43561 0.50122 0.0
H2814 H 0.43482 0.40643 0.51913 0.0
H2815 H 0.56727 0.59206 0.47028 0.0
H2816 H 0.30635 0.20166 0.36996 0.0
H2817 H 0.34208 0.17945 0.37719 0.0
H2818 H 0.34693 0.14771 0.33636 0.0
H2819 H 0.31135 0.16969 0.32906 0.0
H2820 H 0.34681 0.1145 0.35704 0.0
H2821 H 0.38799 0.18775 0.34662 0.0
H2822 H 0.39582 0.23111 0.34806 0.0
H2823 H 0.40799 0.225 0.39206 0.0
H2824 H 0.3999 0.18162 0.39092 0.0
H2825 H 0.44995 0.04717 0.36838 0.0
H2826 H 0.42497 0.07865 0.35834 0.0
H2827 H 0.42107 0.11353 0.39835 0.0
H2828 H 0.44656 0.08243 0.4084 0.0
H2829 H 0.42202 0.14618 0.37748 0.0
H2830 H 0.37789 0.0749 0.38868 0.0
H2831 H 0.36912 0.03164 0.38818 0.0
H2832 H 0.36085 0.03448 0.34376 0.0
H2833 H 0.36992 0.07772 0.34398 0.0
C2834 C 0.31524 0.19023 0.36246 0.0
C2835 C 0.30589 0.18727 0.34898 0.0
C2836 C 0.33571 0.17764 0.36659 0.0
C2837 C 0.34714 0.16197 0.35729 0.0
C2838 C 0.33834 0.15969 0.34369 0.0
C2839 C 0.31798 0.17229 0.33955 0.0
C2840 C 0.36689 0.14628 0.36206 0.0
C2841 C 0.36344 0.12145 0.36127 0.0
C2842 C 0.38821 0.15538 0.36799 0.0
C2843 C 0.39311 0.18146 0.36871 0.0
C2844 C 0.39213 0.19568 0.35663 0.0
C2845 C 0.39666 0.22026 0.35738 0.0
C2846 C 0.40234 0.23082 0.37015 0.0
C2847 C 0.40356 0.2168 0.38218 0.0
C2848 C 0.39903 0.19221 0.38148 0.0
C2849 C 0.44416 0.06177 0.37499 0.0
C2850 C 0.4499 0.0621 0.38923 0.0
C2851 C 0.42986 0.07973 0.36924 0.0
C2852 C 0.42073 0.09811 0.37768 0.0
C2853 C 0.42783 0.09943 0.39167 0.0
C2854 C 0.44234 0.08159 0.3974 0.0
C2855 C 0.40198 0.11446 0.3723 0.0
C2856 C 0.40549 0.13931 0.37309 0.0
C2857 C 0.3805 0.10544 0.36648 0.0
C2858 C 0.37484 0.07948 0.36633 0.0
C2859 C 0.37437 0.06626 0.3788 0.0
C2860 C 0.36932 0.04175 0.37856 0.0
C2861 C 0.3645 0.0303 0.36594 0.0
C2862 C 0.36464 0.04336 0.35353 0.0
C2863 C 0.36972 0.06787 0.3537 0.0
H2864 H 0.3606 0.01132 0.36578 0.0
H2865 H 0.40585 0.24985 0.37071 0.0
H2866 H 0.03908 0.09477 0.59339 0.0
H2867 H 0.06559 0.12823 0.59917 0.0
H2868 H 0.0871 0.09201 0.63682 0.0
H2869 H 0.06061 0.05869 0.63122 0.0
H2870 H 0.08325 0.14059 0.64066 0.0
H2871 H 0.11897 0.08515 0.60736 0.0
H2872 H 0.12027 0.06336 0.58503 0.0
H2873 H 0.11897 0.13002 0.56275 0.0
H2874 H 0.11733 0.15219 0.58497 0.0
H2875 H 0.20249 0.16172 0.65707 0.0
H2876 H 0.16346 0.14671 0.65007 0.0
H2877 H 0.16293 0.19517 0.61508 0.0
H2878 H 0.20246 0.21031 0.622 0.0
H2879 H 0.15092 0.14992 0.60759 0.0
H2880 H 0.12508 0.20513 0.64184 0.0
H2881 H 0.12526 0.22589 0.66449 0.0
H2882 H 0.10872 0.15989 0.6853 0.0
H2883 H 0.10879 0.13863 0.66281 0.0
C2884 C 0.04909 0.09415 0.60304 0.0
C2885 C 0.04801 0.07392 0.61176 0.0
C2886 C 0.06425 0.11327 0.60631 0.0
C2887 C 0.07853 0.11242 0.61832 0.0
C2888 C 0.07624 0.09301 0.62749 0.0
C2889 C 0.06118 0.0739 0.62423 0.0
C2890 C 0.09766 0.1303 0.62076 0.0
C2891 C 0.09804 0.14275 0.63344 0.0
C2892 C 0.11658 0.13359 0.61113 0.0
C2893 C 0.11771 0.12029 0.5978 0.0
C2894 C 0.11878 0.09514 0.59769 0.0
C2895 C 0.1196 0.08272 0.58506 0.0
C2896 C 0.11962 0.09529 0.57248 0.0
C2897 C 0.11889 0.12031 0.5725 0.0
C2898 C 0.11801 0.1328 0.58511 0.0
C2899 C 0.19409 0.16936 0.64792 0.0
C2900 C 0.20561 0.18719 0.64007 0.0
C2901 C 0.17164 0.16087 0.644 0.0
C2902 C 0.1601 0.17009 0.63219 0.0
C2903 C 0.17147 0.18797 0.62431 0.0
C2904 C 0.19402 0.19657 0.62826 0.0
C2905 C 0.13696 0.15964 0.62772 0.0
C2906 C 0.13584 0.14848 0.61466 0.0
C2907 C 0.11741 0.15751 0.63703 0.0
C2908 C 0.11704 0.17025 0.65061 0.0
C2909 C 0.12161 0.195 0.65125 0.0
C2910 C 0.12166 0.20687 0.66407 0.0
C2911 C 0.11704 0.19422 0.67633 0.0
C2912 C 0.11229 0.16968 0.67579 0.0
C2913 C 0.11224 0.15771 0.663 0.0
H2914 H 0.11711 0.20343 0.68624 0.0
H2915 H 0.12026 0.08566 0.56271 0.0
H2916 H 0.17916 0.79225 0.85574 0.0
H2917 H 0.14339 0.81255 0.86499 0.0
H2918 H 0.18635 0.87422 0.87526 0.0
H2919 H 0.22177 0.85445 0.86581 0.0
H2920 H 0.15232 0.85804 0.89675 0.0
H2921 H 0.15852 0.87659 0.84667 0.0
H2922 H 0.15953 0.86447 0.82198 0.0
H2923 H 0.09128 0.82992 0.82657 0.0
H2924 H 0.09006 0.84159 0.85136 0.0
H2925 H 0.0963 0.96741 0.9017 0.0
H2926 H 0.12011 0.93239 0.89596 0.0
H2927 H 0.05745 0.89747 0.87924 0.0
H2928 H 0.03347 0.93318 0.88457 0.0
H2929 H 0.09363 0.89006 0.8627 0.0
H2930 H 0.08239 0.87944 0.91094 0.0
H2931 H 0.08035 0.89027 0.93579 0.0
H2932 H 0.15549 0.90654 0.93572 0.0
H2933 H 0.15794 0.89616 0.91081 0.0
C2934 C 0.18093 0.81002 0.86013 0.0
C2935 C 0.20315 0.82188 0.86001 0.0
C2936 C 0.16055 0.82156 0.86537 0.0
C2937 C 0.16235 0.84483 0.87078 0.0
C2938 C 0.18469 0.85623 0.87116 0.0
C2939 C 0.20485 0.84496 0.8657 0.0
C2940 C 0.14099 0.85828 0.87536 0.0
C2941 C 0.13936 0.86501 0.88938 0.0
C2942 C 0.12363 0.86648 0.86578 0.0
C2943 C 0.12434 0.85967 0.85088 0.0
C2944 C 0.14384 0.86622 0.84244 0.0
C2945 C 0.14443 0.85948 0.82843 0.0
C2946 C 0.12552 0.84636 0.82272 0.0
C2947 C 0.10594 0.84003 0.83101 0.0
C2948 C 0.10529 0.8467 0.84504 0.0
C2949 C 0.08749 0.95227 0.89686 0.0
C2950 C 0.06297 0.953 0.89366 0.0
C2951 C 0.10112 0.93213 0.89368 0.0
C2952 C 0.09048 0.91199 0.88751 0.0
C2953 C 0.066 0.91271 0.88413 0.0
C2954 C 0.05234 0.9331 0.88717 0.0
C2955 C 0.10549 0.89085 0.88408 0.0
C2956 C 0.10599 0.88262 0.87026 0.0
C2957 C 0.12159 0.88093 0.89393 0.0
C2958 C 0.12031 0.88707 0.90897 0.0
C2959 C 0.09846 0.88545 0.91619 0.0
C2960 C 0.09724 0.8915 0.9303 0.0
C2961 C 0.11778 0.8991 0.93733 0.0
C2962 C 0.1396 0.90062 0.93027 0.0
C2963 C 0.14092 0.89461 0.91616 0.0
H2964 H 0.11679 0.90378 0.94824 0.0
H2965 H 0.12601 0.84115 0.81187 0.0
H2966 H 0.30512 0.78805 0.12948 0.0
H2967 H 0.34328 0.80475 0.12122 0.0
H2968 H 0.32007 0.87535 0.1335 0.0
H2969 H 0.28218 0.85907 0.14147 0.0
H2970 H 0.33977 0.87663 0.10845 0.0
H2971 H 0.35861 0.84135 0.15353 0.0
H2972 H 0.36195 0.80799 0.17025 0.0
H2973 H 0.4094 0.77098 0.14241 0.0
H2974 H 0.40609 0.80404 0.12545 0.0
H2975 H 0.43304 0.95096 0.12639 0.0
H2976 H 0.40411 0.91906 0.13039 0.0
H2977 H 0.43976 0.87481 0.10005 0.0
H2978 H 0.46886 0.90691 0.09574 0.0
H2979 H 0.41751 0.85328 0.12954 0.0
H2980 H 0.40087 0.89277 0.08534 0.0
H2981 H 0.39834 0.92878 0.07053 0.0
H2982 H 0.34651 0.9594 0.09835 0.0
H2983 H 0.34907 0.92372 0.11345 0.0
C2984 C 0.30818 0.80713 0.13034 0.0
C2985 C 0.29062 0.82223 0.13613 0.0
C2986 C 0.32998 0.81662 0.12567 0.0
C2987 C 0.33453 0.84129 0.12679 0.0
C2988 C 0.31691 0.85629 0.13245 0.0
C2989 C 0.29524 0.8469 0.13706 0.0
C2990 C 0.35757 0.85197 0.12229 0.0
C2991 C 0.35677 0.87131 0.11297 0.0
C2992 C 0.37987 0.8448 0.12796 0.0
C2993 C 0.38185 0.82499 0.13815 0.0
C2994 C 0.36959 0.826 0.15093 0.0
C2995 C 0.3715 0.80717 0.16046 0.0
C2996 C 0.3858 0.78734 0.15737 0.0
C2997 C 0.39828 0.78633 0.14477 0.0
C2998 C 0.39639 0.8051 0.1352 0.0
C2999 C 0.43514 0.9343 0.12075 0.0
C3000 C 0.45305 0.93163 0.11058 0.0
C3001 C 0.41862 0.91606 0.1231 0.0
C3002 C 0.41981 0.89476 0.11545 0.0
C3003 C 0.43869 0.89117 0.10606 0.0
C3004 C 0.45521 0.90956 0.1036 0.0
C3005 C 0.39935 0.8781 0.11604 0.0
C3006 C 0.40061 0.85788 0.12465 0.0
C3007 C 0.37736 0.88447 0.1098 0.0
C3008 C 0.3753 0.90567 0.10057 0.0
C3009 C 0.38907 0.90726 0.08835 0.0
C3010 C 0.38761 0.9276 0.07989 0.0
C3011 C 0.3723 0.94638 0.08351 0.0
C3012 C 0.35836 0.94483 0.09556 0.0
C3013 C 0.35979 0.92455 0.10406 0.0
H3014 H 0.37122 0.96212 0.07696 0.0
H3015 H 0.38728 0.77278 0.16477 0.0
H3016 H 0.73133 0.81545 0.60592 0.0
H3017 H 0.69671 0.83943 0.59906 0.0
H3018 H 0.6618 0.82233 0.63787 0.0
H3019 H 0.69626 0.79806 0.64478 0.0
H3020 H 0.62978 0.82432 0.61579 0.0
H3021 H 0.69187 0.87263 0.6358 0.0
H3022 H 0.73305 0.88791 0.63842 0.0
H3023 H 0.73145 0.91468 0.59651 0.0
H3024 H 0.69036 0.8992 0.59357 0.0
H3025 H 0.55407 0.92888 0.61895 0.0
H3026 H 0.58225 0.89618 0.62361 0.0
H3027 H 0.61939 0.91195 0.58531 0.0
H3028 H 0.59153 0.94453 0.5806 0.0
H3029 H 0.64947 0.90978 0.60748 0.0
H3030 H 0.58601 0.86231 0.58799 0.0
H3031 H 0.54468 0.8472 0.58596 0.0
H3032 H 0.54829 0.81959 0.62764 0.0
H3033 H 0.58956 0.83485 0.62999 0.0
C3034 C 0.71614 0.81641 0.6129 0.0
C3035 C 0.7167 0.80514 0.62598 0.0
C3036 C 0.69638 0.83016 0.60897 0.0
C3037 C 0.67691 0.83297 0.61807 0.0
C3038 C 0.67669 0.82044 0.63073 0.0
C3039 C 0.69646 0.80666 0.63467 0.0
C3040 C 0.6579 0.85066 0.61494 0.0
C3041 C 0.634 0.84305 0.61409 0.0
C3042 C 0.6635 0.87505 0.61265 0.0
C3043 C 0.68814 0.88453 0.61441 0.0
C3044 C 0.70037 0.8816 0.6271 0.0
C3045 C 0.72368 0.89032 0.62866 0.0
C3046 C 0.73488 0.9022 0.61763 0.0
C3047 C 0.72276 0.90544 0.60504 0.0
C3048 C 0.69946 0.8967 0.60342 0.0
C3049 C 0.56807 0.92519 0.61145 0.0
C3050 C 0.57065 0.9394 0.59945 0.0
C3051 C 0.5841 0.90646 0.6141 0.0
C3052 C 0.60288 0.90165 0.60479 0.0
C3053 C 0.60505 0.91541 0.59264 0.0
C3054 C 0.58906 0.93402 0.58997 0.0
C3055 C 0.62131 0.88344 0.60807 0.0
C3056 C 0.64519 0.89103 0.60908 0.0
C3057 C 0.61559 0.85914 0.6106 0.0
C3058 C 0.59079 0.84995 0.60921 0.0
C3059 C 0.57792 0.85322 0.59677 0.0
C3060 C 0.55452 0.84458 0.59555 0.0
C3061 C 0.54384 0.8325 0.60668 0.0
C3062 C 0.55657 0.82898 0.61904 0.0
C3063 C 0.57998 0.8376 0.62031 0.0
H3064 H 0.52572 0.82582 0.60572 0.0
H3065 H 0.75293 0.90895 0.61885 0.0
H3066 H 0.95879 0.94425 0.37709 0.0
H3067 H 0.93531 0.91073 0.36808 0.0
H3068 H 0.91445 0.89187 0.40993 0.0
H3069 H 0.93841 0.92486 0.41904 0.0
H3070 H 0.91988 0.85234 0.39439 0.0
H3071 H 0.87936 0.92832 0.38994 0.0
H3072 H 0.87514 0.97032 0.38237 0.0
H3073 H 0.88247 0.94871 0.33967 0.0
H3074 H 0.88706 0.90661 0.34702 0.0
H3075 H 0.80414 0.8012 0.38281 0.0
H3076 H 0.83965 0.82364 0.39005 0.0
H3077 H 0.85669 0.83799 0.34703 0.0
H3078 H 0.82115 0.81596 0.33973 0.0
H3079 H 0.85579 0.87804 0.36188 0.0
H3080 H 0.89156 0.80059 0.36676 0.0
H3081 H 0.89456 0.75887 0.37497 0.0
H3082 H 0.89459 0.78308 0.4174 0.0
H3083 H 0.89125 0.82495 0.40945 0.0
C3084 C 0.94957 0.93269 0.38439 0.0
C3085 C 0.95014 0.93743 0.39876 0.0
C3086 C 0.93612 0.91357 0.37923 0.0
C3087 C 0.9227 0.89915 0.38832 0.0
C3088 C 0.92458 0.90283 0.40272 0.0
C3089 C 0.93823 0.92178 0.40791 0.0
C3090 C 0.90495 0.88184 0.38283 0.0
C3091 C 0.90578 0.85793 0.38733 0.0
C3092 C 0.88675 0.88909 0.37348 0.0
C3093 C 0.88382 0.91437 0.36904 0.0
C3094 C 0.88023 0.93256 0.37895 0.0
C3095 C 0.87775 0.95637 0.3747 0.0
C3096 C 0.8786 0.96219 0.36055 0.0
C3097 C 0.88186 0.94419 0.35063 0.0
C3098 C 0.88439 0.92035 0.35483 0.0
C3099 C 0.81565 0.80883 0.37489 0.0
C3100 C 0.80971 0.80701 0.36071 0.0
C3101 C 0.83601 0.82154 0.37904 0.0
C3102 C 0.85086 0.83242 0.36907 0.0
C3103 C 0.84545 0.82978 0.35489 0.0
C3104 C 0.82511 0.81718 0.35075 0.0
C3105 C 0.87065 0.84844 0.3734 0.0
C3106 C 0.87008 0.87225 0.36876 0.0
C3107 C 0.88889 0.84107 0.38269 0.0
C3108 C 0.89096 0.81591 0.38751 0.0
C3109 C 0.89201 0.79701 0.37785 0.0
C3110 C 0.89381 0.77334 0.38245 0.0
C3111 C 0.89471 0.76832 0.3967 0.0
C3112 C 0.89387 0.78699 0.40637 0.0
C3113 C 0.89206 0.8107 0.40182 0.0
H3114 H 0.8961 0.74998 0.40024 0.0
H3115 H 0.87668 0.98064 0.35728 0.0
H3116 H 0.80494 0.20068 0.15108 0.0
H3117 H 0.83787 0.17318 0.14579 0.0
H3118 H 0.80214 0.15175 0.10799 0.0
H3119 H 0.76925 0.17917 0.11313 0.0
H3120 H 0.81569 0.11347 0.12477 0.0
H3121 H 0.85031 0.18577 0.10596 0.0
H3122 H 0.86395 0.22773 0.10682 0.0
H3123 H 0.91326 0.2101 0.13956 0.0
H3124 H 0.89965 0.16808 0.13903 0.0
H3125 H 0.90082 0.04726 0.08842 0.0
H3126 H 0.87357 0.0791 0.09538 0.0
H3127 H 0.91716 0.09357 0.13147 0.0
H3128 H 0.94482 0.06155 0.12453 0.0
H3129 H 0.90107 0.13524 0.11797 0.0
H3130 H 0.86861 0.06308 0.13632 0.0
H3131 H 0.85546 0.02095 0.13593 0.0
H3132 H 0.80222 0.03801 0.10524 0.0
H3133 H 0.81531 0.0802 0.10527 0.0
C3134 C 0.80425 0.19034 0.14154 0.0
C3135 C 0.78444 0.19204 0.13254 0.0
C3136 C 0.82309 0.17469 0.13854 0.0
C3137 C 0.82238 0.16046 0.12651 0.0
C3138 C 0.80295 0.16257 0.11734 0.0
C3139 C 0.78423 0.17833 0.12027 0.0
C3140 C 0.84117 0.14237 0.12382 0.0
C3141 C 0.83432 0.11824 0.12313 0.0
C3142 C 0.86558 0.14859 0.12223 0.0
C3143 C 0.87376 0.17384 0.12256 0.0
C3144 C 0.86389 0.19089 0.11343 0.0
C3145 C 0.87166 0.21467 0.11384 0.0
C3146 C 0.88941 0.22159 0.12327 0.0
C3147 C 0.89948 0.20472 0.13228 0.0
C3148 C 0.89176 0.18092 0.13192 0.0
C3149 C 0.90478 0.05725 0.09781 0.0
C3150 C 0.9249 0.05174 0.10599 0.0
C3151 C 0.88912 0.07542 0.10178 0.0
C3152 C 0.8932 0.08843 0.11403 0.0
C3153 C 0.91371 0.08363 0.122 0.0
C3154 C 0.92942 0.06533 0.11804 0.0
C3155 C 0.87545 0.10644 0.1186 0.0
C3156 C 0.88247 0.13048 0.1197 0.0
C3157 C 0.85118 0.10015 0.12071 0.0
C3158 C 0.8431 0.0748 0.12071 0.0
C3159 C 0.85422 0.05783 0.1294 0.0
C3160 C 0.84676 0.03393 0.12926 0.0
C3161 C 0.82806 0.0268 0.12055 0.0
C3162 C 0.81673 0.04356 0.11198 0.0
C3163 C 0.82415 0.06748 0.11206 0.0
H3164 H 0.82231 0.00829 0.12045 0.0
H3165 H 0.8954 0.24001 0.12356 0.0
H3166 H 0.60337 0.03596 0.90487 0.0
H3167 H 0.62139 0.07502 0.90101 0.0
H3168 H 0.56104 0.09602 0.87579 0.0
H3169 H 0.5425 0.0566 0.87975 0.0
H3170 H 0.60754 0.10519 0.86383 0.0
H3171 H 0.56455 0.12183 0.90538 0.0
H3172 H 0.54967 0.11396 0.92912 0.0
H3173 H 0.62172 0.11458 0.94472 0.0
H3174 H 0.63708 0.12208 0.92104 0.0
H3175 H 0.67664 0.21109 0.85852 0.0
H3176 H 0.64074 0.18743 0.86343 0.0
H3177 H 0.67847 0.15027 0.89615 0.0
H3178 H 0.71406 0.17423 0.8916 0.0
H3179 H 0.63314 0.15639 0.90335 0.0
H3180 H 0.67573 0.12867 0.86207 0.0
H3181 H 0.69258 0.13358 0.83849 0.0
H3182 H 0.62288 0.15134 0.82267 0.0
H3183 H 0.60569 0.14683 0.84622 0.0
C3184 C 0.59382 0.04881 0.8985 0.0
C3185 C 0.57151 0.04317 0.89259 0.0
C3186 C 0.60409 0.07121 0.8964 0.0
C3187 C 0.59239 0.08846 0.88828 0.0
C3188 C 0.57022 0.08293 0.88219 0.0
C3189 C 0.55969 0.06047 0.88445 0.0
C3190 C 0.60429 0.11174 0.88583 0.0
C3191 C 0.61256 0.11686 0.87238 0.0
C3192 C 0.61112 0.12661 0.89707 0.0
C3193 C 0.60198 0.12245 0.9114 0.0
C3194 C 0.57724 0.12016 0.91386 0.0
C3195 C 0.56872 0.11577 0.92731 0.0
C3196 C 0.58474 0.11375 0.93842 0.0
C3197 C 0.60932 0.11617 0.9361 0.0
C3198 C 0.61795 0.12053 0.92267 0.0
C3199 C 0.67713 0.1982 0.86694 0.0
C3200 C 0.69831 0.19428 0.87454 0.0
C3201 C 0.65661 0.18465 0.86971 0.0
C3202 C 0.65706 0.16674 0.87997 0.0
C3203 C 0.6777 0.16394 0.88816 0.0
C3204 C 0.6981 0.17761 0.8855 0.0
C3205 C 0.63715 0.14933 0.88143 0.0
C3206 C 0.62745 0.14526 0.89471 0.0
C3207 C 0.62922 0.13522 0.87006 0.0
C3208 C 0.6395 0.13772 0.85591 0.0
C3209 C 0.66404 0.13377 0.85358 0.0
C3210 C 0.67365 0.13646 0.84022 0.0
C3211 C 0.65882 0.14285 0.8291 0.0
C3212 C 0.63435 0.14646 0.8313 0.0
C3213 C 0.62466 0.14384 0.84465 0.0
H3214 H 0.66629 0.14493 0.81877 0.0
H3215 H 0.5781 0.11033 0.94882 0.0
H3216 H 0.82977 0.71051 0.84467 0.0
H3217 H 0.86539 0.68848 0.85222 0.0
H3218 H 0.8266 0.66164 0.88778 0.0
H3219 H 0.79102 0.68358 0.88037 0.0
H3220 H 0.87426 0.67262 0.89393 0.0
H3221 H 0.8282 0.62938 0.85875 0.0
H3222 H 0.80966 0.62507 0.83558 0.0
H3223 H 0.87818 0.63532 0.81616 0.0
H3224 H 0.89706 0.64 0.83924 0.0
H3225 H 0.91228 0.55791 0.91222 0.0
H3226 H 0.89297 0.59498 0.90515 0.0
H3227 H 0.94079 0.60043 0.86998 0.0
H3228 H 0.95996 0.56277 0.87686 0.0
H3229 H 0.89655 0.60656 0.86191 0.0
H3230 H 0.944 0.64073 0.89747 0.0
H3231 H 0.96261 0.64466 0.92063 0.0
H3232 H 0.89318 0.65202 0.93935 0.0
H3233 H 0.8741 0.64778 0.91634 0.0
C3234 C 0.82896 0.70028 0.85424 0.0
C3235 C 0.80748 0.6985 0.86182 0.0
C3236 C 0.84931 0.68771 0.85852 0.0
C3237 C 0.8485 0.67324 0.87046 0.0
C3238 C 0.82758 0.67271 0.87853 0.0
C3239 C 0.80721 0.68515 0.87423 0.0
C3240 C 0.86833 0.65666 0.87384 0.0
C3241 C 0.87924 0.65816 0.88697 0.0
C3242 C 0.87529 0.63831 0.86454 0.0
C3243 C 0.86397 0.63534 0.85069 0.0
C3244 C 0.83927 0.63089 0.84953 0.0
C3245 C 0.82871 0.62836 0.83642 0.0
C3246 C 0.84272 0.63 0.8244 0.0
C3247 C 0.86734 0.63411 0.82547 0.0
C3248 C 0.87798 0.6367 0.83857 0.0
C3249 C 0.91894 0.56709 0.90307 0.0
C3250 C 0.93759 0.55731 0.89506 0.0
C3251 C 0.90799 0.58846 0.8991 0.0
C3252 C 0.91564 0.60072 0.88714 0.0
C3253 C 0.93467 0.59133 0.87929 0.0
C3254 C 0.9456 0.56982 0.88323 0.0
C3255 C 0.90212 0.62198 0.88223 0.0
C3256 C 0.89226 0.62135 0.8688 0.0
C3257 C 0.89625 0.64117 0.89125 0.0
C3258 C 0.90761 0.64382 0.90515 0.0
C3259 C 0.93268 0.64303 0.90653 0.0
C3260 C 0.94332 0.64534 0.91964 0.0
C3261 C 0.92909 0.64856 0.93146 0.0
C3262 C 0.90418 0.64953 0.93019 0.0
C3263 C 0.89345 0.64722 0.91711 0.0
H3264 H 0.93736 0.65034 0.9416 0.0
H3265 H 0.83452 0.62803 0.81426 0.0
H3266 H 0.69802 0.67027 0.16686 0.0
H3267 H 0.6642 0.64888 0.15692 0.0
H3268 H 0.66975 0.69106 0.1194 0.0
H3269 H 0.70431 0.71223 0.12919 0.0
H3270 H 0.62088 0.65697 0.14687 0.0
H3271 H 0.66024 0.65367 0.0919 0.0
H3272 H 0.69893 0.65901 0.07984 0.0
H3273 H 0.73637 0.63591 0.11652 0.0
H3274 H 0.69789 0.63015 0.12871 0.0
H3275 H 0.54779 0.57385 0.10726 0.0
H3276 H 0.56873 0.61061 0.11431 0.0
H3277 H 0.6345 0.57066 0.11846 0.0
H3278 H 0.61404 0.53435 0.11128 0.0
H3279 H 0.64234 0.61062 0.10462 0.0
H3280 H 0.60034 0.58706 0.14681 0.0
H3281 H 0.56448 0.57785 0.16083 0.0
H3282 H 0.5366 0.64815 0.15273 0.0
H3283 H 0.57221 0.65766 0.13852 0.0
C3284 C 0.69191 0.67528 0.15656 0.0
C3285 C 0.70415 0.69263 0.1487 0.0
C3286 C 0.67239 0.66314 0.15093 0.0
C3287 C 0.66463 0.66813 0.13735 0.0
C3288 C 0.67567 0.6867 0.12984 0.0
C3289 C 0.69541 0.69877 0.13544 0.0
C3290 C 0.64712 0.65182 0.13068 0.0
C3291 C 0.62536 0.6471 0.13749 0.0
C3292 C 0.65304 0.63877 0.11853 0.0
C3293 C 0.67624 0.64181 0.11125 0.0
C3294 C 0.67674 0.64969 0.09736 0.0
C3295 C 0.69862 0.65278 0.09051 0.0
C3296 C 0.72009 0.64789 0.09743 0.0
C3297 C 0.71973 0.63977 0.11119 0.0
C3298 C 0.6979 0.6366 0.11808 0.0
C3299 C 0.56669 0.57297 0.10975 0.0
C3300 C 0.57929 0.55123 0.10867 0.0
C3301 C 0.57861 0.59395 0.11375 0.0
C3302 C 0.6032 0.59337 0.11685 0.0
C3303 C 0.61559 0.57159 0.11596 0.0
C3304 C 0.60381 0.5508 0.11191 0.0
C3305 C 0.61649 0.61515 0.12108 0.0
C3306 C 0.63743 0.62099 0.11374 0.0
C3307 C 0.61013 0.62868 0.13297 0.0
C3308 C 0.58874 0.62295 0.14146 0.0
C3309 C 0.58645 0.60047 0.14792 0.0
C3310 C 0.56621 0.59521 0.15592 0.0
C3311 C 0.54823 0.61237 0.15763 0.0
C3312 C 0.55051 0.63485 0.15137 0.0
C3313 C 0.57071 0.64019 0.14335 0.0
H3314 H 0.53257 0.60827 0.16383 0.0
H3315 H 0.73701 0.65034 0.09211 0.0
H3316 H 0.67177 0.28117 0.34262 0.0
H3317 H 0.63593 0.30489 0.34766 0.0
H3318 H 0.6654 0.32449 0.38757 0.0
H3319 H 0.70126 0.30094 0.38263 0.0
H3320 H 0.61544 0.31613 0.38823 0.0
H3321 H 0.67494 0.35993 0.36094 0.0
H3322 H 0.70081 0.36561 0.34038 0.0
H3323 H 0.6391 0.36412 0.31372 0.0
H3324 H 0.6129 0.35807 0.33413 0.0
H3325 H 0.58279 0.43087 0.40887 0.0
H3326 H 0.6006 0.39322 0.40156 0.0
H3327 H 0.56289 0.3975 0.36242 0.0
H3328 H 0.54519 0.43574 0.36962 0.0
H3329 H 0.6087 0.38824 0.35829 0.0
H3330 H 0.54839 0.35396 0.38637 0.0
H3331 H 0.52252 0.34855 0.40692 0.0
H3332 H 0.58401 0.33174 0.43191 0.0
H3333 H 0.61033 0.33739 0.41157 0.0
C3334 C 0.6704 0.29011 0.3526 0.0
C3335 C 0.68946 0.28945 0.36217 0.0
C3336 C 0.64993 0.30366 0.35544 0.0
C3337 C 0.64818 0.31659 0.36792 0.0
C3338 C 0.66644 0.31461 0.37788 0.0
C3339 C 0.68697 0.30127 0.375 0.0
C3340 C 0.62882 0.33428 0.37007 0.0
C3341 C 0.61384 0.3319 0.38171 0.0
C3342 C 0.6263 0.35441 0.36125 0.0
C3343 C 0.64202 0.35824 0.34902 0.0
C3344 C 0.66692 0.36062 0.35068 0.0
C3345 C 0.68164 0.36394 0.33906 0.0
C3346 C 0.67161 0.36514 0.32574 0.0
C3347 C 0.64684 0.36312 0.32403 0.0
C3348 C 0.63206 0.35975 0.33562 0.0
C3349 C 0.57802 0.42374 0.39876 0.0
C3350 C 0.56266 0.43637 0.3898 0.0
C3351 C 0.58807 0.40204 0.39464 0.0
C3352 C 0.58282 0.39233 0.38152 0.0
C3353 C 0.56707 0.40461 0.37263 0.0
C3354 C 0.55698 0.42643 0.37675 0.0
C3355 C 0.59569 0.37058 0.37677 0.0
C3356 C 0.6096 0.37219 0.36463 0.0
C3357 C 0.5971 0.34972 0.38511 0.0
C3358 C 0.58136 0.34621 0.39742 0.0
C3359 C 0.55643 0.34927 0.39626 0.0
C3360 C 0.54168 0.34613 0.40788 0.0
C3361 C 0.55162 0.33983 0.42072 0.0
C3362 C 0.57633 0.33661 0.42196 0.0
C3363 C 0.59118 0.33974 0.41038 0.0
H3364 H 0.54016 0.33742 0.4297 0.0
H3365 H 0.68303 0.36772 0.31676 0.0
H3366 H 0.9397 0.42769 0.61811 0.0
H3367 H 0.91418 0.39277 0.62254 0.0
H3368 H 0.87341 0.40867 0.58552 0.0
H3369 H 0.89848 0.44351 0.58112 0.0
H3370 H 0.84485 0.40203 0.60748 0.0
H3371 H 0.91176 0.3614 0.58662 0.0
H3372 H 0.95417 0.34995 0.58404 0.0
H3373 H 0.95375 0.31946 0.62509 0.0
H3374 H 0.91139 0.33103 0.62799 0.0
H3375 H 0.77183 0.30209 0.60234 0.0
H3376 H 0.80588 0.32739 0.59624 0.0
H3377 H 0.83788 0.31347 0.63628 0.0
H3378 H 0.80385 0.28804 0.64253 0.0
H3379 H 0.87188 0.31802 0.61364 0.0
H3380 H 0.80562 0.35967 0.63469 0.0
H3381 H 0.76302 0.37041 0.63723 0.0
H3382 H 0.76261 0.39927 0.59578 0.0
H3383 H 0.80514 0.38828 0.59291 0.0
C3384 C 0.92543 0.42359 0.61086 0.0
C3385 C 0.921 0.43846 0.59932 0.0
C3386 C 0.91094 0.40359 0.61337 0.0
C3387 C 0.89194 0.39811 0.60433 0.0
C3388 C 0.88792 0.41262 0.59265 0.0
C3389 C 0.9023 0.43255 0.59015 0.0
C3390 C 0.87522 0.37819 0.60739 0.0
C3391 C 0.85078 0.38363 0.60863 0.0
C3392 C 0.88302 0.35429 0.60931 0.0
C3393 C 0.90848 0.34732 0.60758 0.0
C3394 C 0.92077 0.35245 0.59515 0.0
C3395 C 0.94478 0.34589 0.59362 0.0
C3396 C 0.95667 0.33405 0.60441 0.0
C3397 C 0.94453 0.32867 0.61675 0.0
C3398 C 0.92051 0.3352 0.61834 0.0
C3399 C 0.78636 0.30389 0.60974 0.0
C3400 C 0.78492 0.29342 0.62302 0.0
C3401 C 0.80581 0.31835 0.60622 0.0
C3402 C 0.82413 0.32255 0.61591 0.0
C3403 C 0.82384 0.31046 0.62869 0.0
C3404 C 0.80433 0.29603 0.63225 0.0
C3405 C 0.84165 0.34193 0.61341 0.0
C3406 C 0.8661 0.33644 0.61242 0.0
C3407 C 0.83395 0.36588 0.61174 0.0
C3408 C 0.80849 0.37292 0.61353 0.0
C3409 C 0.7964 0.36814 0.62608 0.0
C3410 C 0.77227 0.37429 0.62758 0.0
C3411 C 0.76009 0.38546 0.61666 0.0
C3412 C 0.77205 0.39058 0.60422 0.0
C3413 C 0.79617 0.3844 0.60265 0.0
H3414 H 0.7414 0.39019 0.61784 0.0
H3415 H 0.97526 0.32898 0.6032 0.0
H3416 H 0.09353 0.44201 0.0902 0.0
H3417 H 0.11362 0.40572 0.09788 0.0
H3418 H 0.06439 0.39958 0.13232 0.0
H3419 H 0.04415 0.43637 0.12473 0.0
H3420 H 0.11014 0.39396 0.14063 0.0
H3421 H 0.06104 0.35998 0.10567 0.0
H3422 H 0.04176 0.35629 0.08268 0.0
H3423 H 0.11059 0.34824 0.06331 0.0
H3424 H 0.13034 0.35223 0.08615 0.0
H3425 H 0.17538 0.28819 0.15728 0.0
H3426 H 0.14053 0.31216 0.15059 0.0
H3427 H 0.17777 0.33606 0.11377 0.0
H3428 H 0.21252 0.31206 0.12028 0.0
H3429 H 0.13023 0.32718 0.10862 0.0
H3430 H 0.17842 0.3694 0.14306 0.0
H3431 H 0.1979 0.37356 0.16599 0.0
H3432 H 0.12979 0.3659 0.18627 0.0
H3433 H 0.10996 0.36138 0.16345 0.0
C3434 C 0.08679 0.43292 0.09936 0.0
C3435 C 0.06724 0.44212 0.10686 0.0
C3436 C 0.09822 0.41202 0.10368 0.0
C3437 C 0.09029 0.39972 0.11555 0.0
C3438 C 0.07068 0.40873 0.12307 0.0
C3439 C 0.05914 0.42971 0.11871 0.0
C3440 C 0.10368 0.37839 0.12046 0.0
C3441 C 0.11401 0.37903 0.13377 0.0
C3442 C 0.10896 0.35904 0.11144 0.0
C3443 C 0.09718 0.35652 0.09764 0.0
C3444 C 0.07209 0.35758 0.0965 0.0
C3445 C 0.06107 0.35541 0.08349 0.0
C3446 C 0.07494 0.35206 0.07154 0.0
C3447 C 0.09986 0.35083 0.07258 0.0
C3448 C 0.11098 0.353 0.08556 0.0
C3449 C 0.17601 0.29824 0.14764 0.0
C3450 C 0.19683 0.29843 0.13938 0.0
C3451 C 0.1561 0.31197 0.14386 0.0
C3452 C 0.1567 0.3261 0.13178 0.0
C3453 C 0.17695 0.32528 0.12314 0.0
C3454 C 0.19685 0.31164 0.12692 0.0
C3455 C 0.1372 0.34323 0.12857 0.0
C3456 C 0.12579 0.3418 0.11559 0.0
C3457 C 0.13088 0.36183 0.13789 0.0
C3458 C 0.14277 0.36476 0.15158 0.0
C3459 C 0.16764 0.36843 0.15242 0.0
C3460 C 0.17873 0.37088 0.16539 0.0
C3461 C 0.1651 0.36992 0.17758 0.0
C3462 C 0.14033 0.36659 0.17682 0.0
C3463 C 0.12916 0.36409 0.16388 0.0
H3464 H 0.17372 0.37181 0.18761 0.0
H3465 H 0.06637 0.35038 0.06148 0.0
H3466 H 0.39722 0.45205 0.9142 0.0
H3467 H 0.37385 0.41591 0.91027 0.0
H3468 H 0.42097 0.39597 0.8766 0.0
H3469 H 0.44424 0.4326 0.88027 0.0
H3470 H 0.37616 0.39191 0.86883 0.0
H3471 H 0.42068 0.3648 0.90794 0.0
H3472 H 0.43818 0.36654 0.93149 0.0
H3473 H 0.36778 0.36968 0.94937 0.0
H3474 H 0.34984 0.3683 0.92592 0.0
H3475 H 0.30783 0.28726 0.85931 0.0
H3476 H 0.34314 0.31059 0.86576 0.0
H3477 H 0.30304 0.34458 0.89866 0.0
H3478 H 0.26775 0.32111 0.89243 0.0
H3479 H 0.34977 0.33652 0.90622 0.0
H3480 H 0.3065 0.37036 0.86696 0.0
H3481 H 0.28883 0.36907 0.84344 0.0
H3482 H 0.35782 0.35324 0.82596 0.0
H3483 H 0.37584 0.35413 0.84943 0.0
C3484 C 0.4028 0.4399 0.90603 0.0
C3485 C 0.42256 0.44524 0.89752 0.0
C3486 C 0.3895 0.4191 0.90387 0.0
C3487 C 0.39585 0.403 0.89328 0.0
C3488 C 0.41581 0.40808 0.88488 0.0
C3489 C 0.42908 0.42901 0.88698 0.0
C3490 C 0.38047 0.38192 0.89037 0.0
C3491 C 0.37089 0.37945 0.87694 0.0
C3492 C 0.37322 0.36588 0.901 0.0
C3493 C 0.38392 0.36658 0.91515 0.0
C3494 C 0.40892 0.36602 0.91689 0.0
C3495 C 0.41892 0.36692 0.93022 0.0
C3496 C 0.4041 0.36826 0.94191 0.0
C3497 C 0.37924 0.36865 0.9403 0.0
C3498 C 0.36914 0.36777 0.92699 0.0
C3499 C 0.30663 0.29935 0.8681 0.0
C3500 C 0.28486 0.30261 0.87522 0.0
C3501 C 0.32683 0.31269 0.87175 0.0
C3502 C 0.32555 0.32963 0.88251 0.0
C3503 C 0.30437 0.33166 0.89028 0.0
C3504 C 0.28418 0.31827 0.88667 0.0
C3505 C 0.34529 0.3469 0.8848 0.0
C3506 C 0.35556 0.34869 0.89809 0.0
C3507 C 0.35324 0.36233 0.87406 0.0
C3508 C 0.34245 0.36203 0.85995 0.0
C3509 C 0.31786 0.36644 0.85811 0.0
C3510 C 0.30779 0.36581 0.84479 0.0
C3511 C 0.32218 0.361 0.83322 0.0
C3512 C 0.34669 0.35691 0.83494 0.0
C3513 C 0.35684 0.35748 0.84824 0.0
H3514 H 0.31435 0.36051 0.82291 0.0
H3515 H 0.41188 0.36896 0.95223 0.0
H3516 H 0.39799 0.53936 0.59112 0.0
H3517 H 0.37345 0.57311 0.5983 0.0
H3518 H 0.43239 0.60125 0.62231 0.0
H3519 H 0.45703 0.56684 0.61545 0.0
H3520 H 0.39334 0.60447 0.63681 0.0
H3521 H 0.41471 0.62855 0.59154 0.0
H3522 H 0.42174 0.62496 0.56628 0.0
H3523 H 0.34686 0.61181 0.55963 0.0
H3524 H 0.33941 0.61496 0.58487 0.0
H3525 H 0.29708 0.70638 0.62319 0.0
H3526 H 0.33472 0.68659 0.61686 0.0
H3527 H 0.31456 0.62517 0.64151 0.0
H3528 H 0.27755 0.64504 0.64818 0.0
H3529 H 0.34305 0.64849 0.60276 0.0
H3530 H 0.36071 0.59657 0.6548 0.0
H3531 H 0.3565 0.60366 0.68002 0.0
H3532 H 0.35936 0.67958 0.6732 0.0
H3533 H 0.36397 0.67297 0.64797 0.0
C3534 C 0.40585 0.55276 0.59787 0.0
C3535 C 0.4295 0.55047 0.60268 0.0
C3536 C 0.39182 0.57218 0.60189 0.0
C3537 C 0.40121 0.59002 0.61062 0.0
C3538 C 0.42482 0.58778 0.6155 0.0
C3539 C 0.43887 0.56814 0.61156 0.0
C3540 C 0.38572 0.6102 0.61508 0.0
C3541 C 0.38252 0.61429 0.62937 0.0
C3542 C 0.37223 0.6237 0.60536 0.0
C3543 C 0.37653 0.62191 0.59013 0.0
C3544 C 0.39976 0.62475 0.5847 0.0
C3545 C 0.40381 0.62281 0.57039 0.0
C3546 C 0.38476 0.61815 0.56136 0.0
C3547 C 0.3616 0.61545 0.56663 0.0
C3548 C 0.35744 0.61735 0.58095 0.0
C3549 C 0.30082 0.68874 0.62733 0.0
C3550 C 0.28439 0.67729 0.63621 0.0
C3551 C 0.32232 0.67746 0.62372 0.0
C3552 C 0.3277 0.65455 0.6289 0.0
C3553 C 0.31119 0.64311 0.63769 0.0
C3554 C 0.28989 0.65443 0.64141 0.0
C3555 C 0.34974 0.64175 0.6245 0.0
C3556 C 0.35421 0.63908 0.61021 0.0
C3557 C 0.36489 0.63016 0.63422 0.0
C3558 C 0.36256 0.63425 0.64945 0.0
C3559 C 0.36062 0.61478 0.65868 0.0
C3560 C 0.35812 0.61872 0.67298 0.0
C3561 C 0.35761 0.64205 0.67821 0.0
C3562 C 0.35969 0.66151 0.66914 0.0
C3563 C 0.36222 0.65767 0.65483 0.0
H3564 H 0.35562 0.64506 0.68928 0.0
H3565 H 0.38794 0.61664 0.55028 0.0
H3566 H 0.0475 0.55493 0.37249 0.0
H3567 H 0.06744 0.59092 0.3637 0.0
H3568 H 0.10369 0.59936 0.40306 0.0
H3569 H 0.0836 0.56378 0.41199 0.0
H3570 H 0.09052 0.64222 0.39268 0.0
H3571 H 0.13073 0.57106 0.37604 0.0
H3572 H 0.13327 0.53223 0.36391 0.0
H3573 H 0.1104 0.56547 0.32584 0.0
H3574 H 0.10742 0.60447 0.33781 0.0
H3575 H 0.20283 0.69482 0.37726 0.0
H3576 H 0.16826 0.67084 0.3842 0.0
H3577 H 0.13957 0.6762 0.34262 0.0
H3578 H 0.1741 0.70029 0.33557 0.0
H3579 H 0.14338 0.62983 0.35179 0.0
H3580 H 0.11045 0.70299 0.36839 0.0
H3581 H 0.10984 0.74137 0.38105 0.0
H3582 H 0.12091 0.70432 0.41969 0.0
H3583 H 0.12195 0.66572 0.40725 0.0
C3584 C 0.05948 0.56464 0.37933 0.0
C3585 C 0.06421 0.55633 0.39288 0.0
C3586 C 0.07087 0.58517 0.37429 0.0
C3587 C 0.08729 0.59761 0.38267 0.0
C3588 C 0.0911 0.59003 0.39641 0.0
C3589 C 0.07969 0.56958 0.40147 0.0
C3590 C 0.10198 0.61736 0.37689 0.0
C3591 C 0.10212 0.63955 0.38376 0.0
C3592 C 0.11672 0.614 0.36506 0.0
C3593 C 0.11855 0.5906 0.35785 0.0
C3594 C 0.12605 0.57004 0.36511 0.0
C3595 C 0.1276 0.54802 0.35826 0.0
C3596 C 0.12192 0.54637 0.34413 0.0
C3597 C 0.11474 0.56677 0.3368 0.0
C3598 C 0.11312 0.58883 0.34361 0.0
C3599 C 0.18897 0.69126 0.36965 0.0
C3600 C 0.19129 0.69931 0.35584 0.0
C3601 C 0.16916 0.67767 0.37365 0.0
C3602 C 0.15133 0.67183 0.36393 0.0
C3603 C 0.15312 0.68058 0.35028 0.0
C3604 C 0.17285 0.69438 0.34629 0.0
C3605 C 0.13226 0.6546 0.36772 0.0
C3606 C 0.13138 0.63278 0.36051 0.0
C3607 C 0.11706 0.65827 0.3793 0.0
C3608 C 0.11643 0.68145 0.38686 0.0
C3609 C 0.11295 0.70303 0.37957 0.0
C3610 C 0.11249 0.72483 0.38671 0.0
C3611 C 0.11537 0.72529 0.40116 0.0
C3612 C 0.11868 0.70394 0.4085 0.0
C3613 C 0.11917 0.68209 0.40141 0.0
H3614 H 0.11501 0.74218 0.40667 0.0
H3615 H 0.12314 0.5293 0.33884 0.0
loop_
_geom_bond_atom_site_label_1
_geom_bond_atom_site_label_2
_geom_bond_distance
_geom_bond_site_symmetry_2
_ccdc_geom_bond_type
C0 O1 1.160 . S
C0 O7 1.185 . S
O1 C0 1.160 . S
O2 Zn3 1.899 . S
O2 C10 1.284 . S
Zn3 O2 1.899 . S
Zn3 O4 2.032 . S
Zn3 O7 2.086 . S
Zn3 O12 1.977 . S
O4 Zn3 2.032 . S
O4 C8 1.278 . S
C5 O6 1.203 . S
C5 O12 1.267 . S
O6 C5 1.203 . S
O7 C0 1.185 . S
O7 Zn3 2.086 . S
C8 O4 1.278 . S
C8 O9 1.211 . S
O9 C8 1.211 . S
C10 O2 1.284 . S
C10 O11 1.273 . S
O11 C10 1.273 . S
O12 Zn3 1.977 . S
O12 C5 1.267 . S
C13 O14 1.160 . S
C13 O20 1.185 . S
O14 C13 1.160 . S
O15 Zn16 1.899 . S
O15 C23 1.284 . S
Zn16 O15 1.899 . S
Zn16 O17 2.032 . S
Zn16 O20 2.086 1_565 S
Zn16 O25 1.977 . S
O17 Zn16 2.032 . S
O17 C21 1.278 . S
C18 O19 1.203 . S
C18 O25 1.267 1_655 S
O19 C18 1.203 . S
O20 C13 1.185 . S
O20 Zn16 2.086 1_545 S
C21 O17 1.278 . S
C21 O22 1.211 . S
O22 C21 1.211 . S
C23 O15 1.284 . S
C23 O24 1.273 . S
O24 C23 1.273 . S
O25 Zn16 1.977 . S
O25 C18 1.267 1_455 S
C26 O27 1.160 . S
C26 O33 1.185 . S
O27 C26 1.160 . S
O28 Zn29 1.899 . S
O28 C36 1.284 . S
Zn29 O28 1.899 . S
Zn29 O30 2.032 . S
Zn29 O33 2.086 . S
Zn29 O38 1.977 . S
O30 Zn29 2.032 . S
O30 C34 1.278 . S
C31 O32 1.203 . S
C31 O38 1.267 . S
O32 C31 1.203 . S
O33 C26 1.185 . S
O33 Zn29 2.086 . S
C34 O30 1.278 . S
C34 O35 1.211 . S
O35 C34 1.211 . S
C36 O28 1.284 . S
C36 O37 1.273 . S
O37 C36 1.273 . S
O38 Zn29 1.977 . S
O38 C31 1.267 . S
C39 O40 1.160 . S
C39 O46 1.185 . S
O40 C39 1.160 . S
O41 Zn42 1.899 . S
O41 C49 1.284 . S
Zn42 O41 1.899 . S
Zn42 O43 2.032 . S
Zn42 O46 2.086 1_545 S
Zn42 O51 1.977 . S
O43 Zn42 2.032 . S
O43 C47 1.278 . S
C44 O45 1.203 . S
C44 O51 1.267 . S
O45 C44 1.203 . S
O46 C39 1.185 . S
O46 Zn42 2.086 1_565 S
C47 O43 1.278 . S
C47 O48 1.211 . S
O48 C47 1.211 . S
C49 O41 1.284 . S
C49 O50 1.273 . S
O50 C49 1.273 . S
O51 Zn42 1.977 . S
O51 C44 1.267 . S
C52 O53 1.160 . S
C52 O59 1.185 . S
O53 C52 1.160 . S
O54 Zn55 1.899 . S
O54 C62 1.284 . S
Zn55 O54 1.899 . S
Zn55 O56 2.032 . S
Zn55 O59 2.086 . S
Zn55 O64 1.977 . S
O56 Zn55 2.032 . S
O56 C60 1.278 . S
C57 O58 1.203 . S
C57 O64 1.267 . S
O58 C57 1.203 . S
O59 C52 1.185 . S
O59 Zn55 2.086 . S
C60 O56 1.278 . S
C60 O61 1.211 . S
O61 C60 1.211 . S
C62 O54 1.284 . S
C62 O63 1.273 . S
O63 C62 1.273 . S
O64 Zn55 1.977 . S
O64 C57 1.267 . S
C65 O66 1.160 . S
C65 O72 1.185 . S
O66 C65 1.160 . S
O67 Zn68 1.899 . S
O67 C75 1.284 . S
Zn68 O67 1.899 . S
Zn68 O69 2.032 . S
Zn68 O72 2.086 1_565 S
Zn68 O77 1.977 . S
O69 Zn68 2.032 . S
O69 C73 1.278 . S
C70 O71 1.203 . S
C70 O77 1.267 . S
O71 C70 1.203 . S
O72 C65 1.185 . S
O72 Zn68 2.086 1_545 S
C73 O69 1.278 . S
C73 O74 1.211 . S
O74 C73 1.211 . S
C75 O67 1.284 . S
C75 O76 1.273 . S
O76 C75 1.273 . S
O77 Zn68 1.977 . S
O77 C70 1.267 . S
C78 O79 1.160 . S
C78 O85 1.185 . S
O79 C78 1.160 . S
O80 Zn81 1.899 . S
O80 C88 1.284 . S
Zn81 O80 1.899 . S
Zn81 O82 2.032 . S
Zn81 O85 2.086 . S
Zn81 O90 1.977 . S
O82 Zn81 2.032 . S
O82 C86 1.278 . S
C83 O84 1.203 . S
C83 O90 1.267 . S
O84 C83 1.203 . S
O85 C78 1.185 . S
O85 Zn81 2.086 . S
C86 O82 1.278 . S
C86 O87 1.211 . S
O87 C86 1.211 . S
C88 O80 1.284 . S
C88 O89 1.273 . S
O89 C88 1.273 . S
O90 Zn81 1.977 . S
O90 C83 1.267 . S
C91 O92 1.160 . S
C91 O98 1.185 . S
O92 C91 1.160 . S
O93 Zn94 1.899 . S
O93 C101 1.284 . S
Zn94 O93 1.899 . S
Zn94 O95 2.032 . S
Zn94 O98 2.086 1_545 S
Zn94 O103 1.977 . S
O95 Zn94 2.032 . S
O95 C99 1.278 . S
C96 O97 1.203 . S
C96 O103 1.267 1_655 S
O97 C96 1.203 . S
O98 C91 1.185 . S
O98 Zn94 2.086 1_565 S
C99 O95 1.278 . S
C99 O100 1.211 . S
O100 C99 1.211 . S
C101 O93 1.284 . S
C101 O102 1.273 . S
O102 C101 1.273 . S
O103 Zn94 1.977 . S
O103 C96 1.267 1_455 S
C104 O105 1.160 . S
C104 O111 1.185 . S
O105 C104 1.160 . S
O106 Zn107 1.899 . S
O106 C114 1.284 . S
Zn107 O106 1.899 . S
Zn107 O108 2.032 . S
Zn107 O111 2.086 . S
Zn107 O116 1.977 . S
O108 Zn107 2.032 . S
O108 C112 1.278 . S
C109 O110 1.203 . S
C109 O116 1.267 . S
O110 C109 1.203 . S
O111 C104 1.185 . S
O111 Zn107 2.086 . S
C112 O108 1.278 . S
C112 O113 1.211 . S
O113 C112 1.211 . S
C114 O106 1.284 . S
C114 O115 1.273 . S
O115 C114 1.273 . S
O116 Zn107 1.977 . S
O116 C109 1.267 . S
C117 O118 1.160 . S
C117 O124 1.185 . S
O118 C117 1.160 . S
O119 Zn120 1.899 . S
O119 C127 1.284 . S
Zn120 O119 1.899 . S
Zn120 O121 2.032 . S
Zn120 O124 2.086 1_545 S
Zn120 O129 1.977 . S
O121 Zn120 2.032 . S
O121 C125 1.278 . S
C122 O123 1.203 . S
C122 O129 1.267 1_455 S
O123 C122 1.203 . S
O124 C117 1.185 . S
O124 Zn120 2.086 1_565 S
C125 O121 1.278 . S
C125 O126 1.211 . S
O126 C125 1.211 . S
C127 O119 1.284 . S
C127 O128 1.273 . S
O128 C127 1.273 . S
O129 Zn120 1.977 . S
O129 C122 1.267 1_655 S
C130 O131 1.160 . S
C130 O137 1.185 . S
O131 C130 1.160 . S
O132 Zn133 1.899 . S
O132 C140 1.284 . S
Zn133 O132 1.899 . S
Zn133 O134 2.032 . S
Zn133 O137 2.086 . S
Zn133 O142 1.977 . S
O134 Zn133 2.032 . S
O134 C138 1.278 . S
C135 O136 1.203 . S
C135 O142 1.267 . S
O136 C135 1.203 . S
O137 C130 1.185 . S
O137 Zn133 2.086 . S
C138 O134 1.278 . S
C138 O139 1.211 . S
O139 C138 1.211 . S
C140 O132 1.284 . S
C140 O141 1.273 . S
O141 C140 1.273 . S
O142 Zn133 1.977 . S
O142 C135 1.267 . S
C143 O144 1.160 . S
C143 O150 1.185 . S
O144 C143 1.160 . S
O145 Zn146 1.899 . S
O145 C153 1.284 . S
Zn146 O145 1.899 . S
Zn146 O147 2.032 . S
Zn146 O150 2.086 1_565 S
Zn146 O155 1.977 . S
O147 Zn146 2.032 . S
O147 C151 1.278 . S
C148 O149 1.203 . S
C148 O155 1.267 . S
O149 C148 1.203 . S
O150 C143 1.185 . S
O150 Zn146 2.086 1_545 S
C151 O147 1.278 . S
C151 O152 1.211 . S
O152 C151 1.211 . S
C153 O145 1.284 . S
C153 O154 1.273 . S
O154 C153 1.273 . S
O155 Zn146 1.977 . S
O155 C148 1.267 . S
C156 O157 1.160 . S
C156 O163 1.185 . S
O157 C156 1.160 . S
O158 Zn159 1.899 . S
O158 C166 1.284 . S
Zn159 O158 1.899 . S
Zn159 O160 2.032 . S
Zn159 O163 2.086 . S
Zn159 O168 1.977 . S
O160 Zn159 2.032 . S
O160 C164 1.278 . S
C161 O162 1.203 . S
C161 O168 1.267 . S
O162 C161 1.203 . S
O163 C156 1.185 . S
O163 Zn159 2.086 . S
C164 O160 1.278 . S
C164 O165 1.211 . S
O165 C164 1.211 . S
C166 O158 1.284 . S
C166 O167 1.273 . S
O167 C166 1.273 . S
O168 Zn159 1.977 . S
O168 C161 1.267 . S
C169 O170 1.160 . S
C169 O176 1.185 . S
O170 C169 1.160 . S
O171 Zn172 1.899 . S
O171 C179 1.284 . S
Zn172 O171 1.899 . S
Zn172 O173 2.032 . S
Zn172 O176 2.086 1_545 S
Zn172 O181 1.977 . S
O173 Zn172 2.032 . S
O173 C177 1.278 . S
C174 O175 1.203 . S
C174 O181 1.267 . S
O175 C174 1.203 . S
O176 C169 1.185 . S
O176 Zn172 2.086 1_565 S
C177 O173 1.278 . S
C177 O178 1.211 . S
O178 C177 1.211 . S
C179 O171 1.284 . S
C179 O180 1.273 . S
O180 C179 1.273 . S
O181 Zn172 1.977 . S
O181 C174 1.267 . S
C182 O183 1.160 . S
C182 O189 1.185 . S
O183 C182 1.160 . S
O184 Zn185 1.899 . S
O184 C192 1.284 . S
Zn185 O184 1.899 . S
Zn185 O186 2.032 . S
Zn185 O189 2.086 . S
Zn185 O194 1.977 . S
O186 Zn185 2.032 . S
O186 C190 1.278 . S
C187 O188 1.203 . S
C187 O194 1.267 . S
O188 C187 1.203 . S
O189 C182 1.185 . S
O189 Zn185 2.086 . S
C190 O186 1.278 . S
C190 O191 1.211 . S
O191 C190 1.211 . S
C192 O184 1.284 . S
C192 O193 1.273 . S
O193 C192 1.273 . S
O194 Zn185 1.977 . S
O194 C187 1.267 . S
C195 O196 1.160 . S
C195 O202 1.185 . S
O196 C195 1.160 . S
O197 Zn198 1.899 . S
O197 C205 1.284 . S
Zn198 O197 1.899 . S
Zn198 O199 2.032 . S
Zn198 O202 2.086 1_565 S
Zn198 O207 1.977 . S
O199 Zn198 2.032 . S
O199 C203 1.278 . S
C200 O201 1.203 . S
C200 O207 1.267 1_455 S
O201 C200 1.203 . S
O202 C195 1.185 . S
O202 Zn198 2.086 1_545 S
C203 O199 1.278 . S
C203 O204 1.211 . S
O204 C203 1.211 . S
C205 O197 1.284 . S
C205 O206 1.273 . S
O206 C205 1.273 . S
O207 Zn198 1.977 . S
O207 C200 1.267 1_655 S
C208 O209 1.160 . S
C208 O215 1.185 . S
O209 C208 1.160 . S
O210 Zn211 1.899 . S
O210 C218 1.284 . S
Zn211 O210 1.899 . S
Zn211 O212 2.032 . S
Zn211 O215 2.086 . S
Zn211 O220 1.977 . S
O212 Zn211 2.032 . S
O212 C216 1.278 . S
C213 O214 1.203 . S
C213 O220 1.267 . S
O214 C213 1.203 . S
O215 C208 1.185 . S
O215 Zn211 2.086 . S
C216 O212 1.278 . S
C216 O217 1.211 . S
O217 C216 1.211 . S
C218 O210 1.284 . S
C218 O219 1.273 . S
O219 C218 1.273 . S
O220 Zn211 1.977 . S
O220 C213 1.267 . S
C221 O222 1.160 . S
C221 O228 1.185 . S
O222 C221 1.160 . S
O223 Zn224 1.899 . S
O223 C231 1.284 . S
Zn224 O223 1.899 . S
Zn224 O225 2.032 . S
Zn224 O228 2.086 . S
Zn224 O233 1.977 . S
O225 Zn224 2.032 . S
O225 C229 1.278 . S
C226 O227 1.203 . S
C226 O233 1.267 . S
O227 C226 1.203 . S
O228 C221 1.185 . S
O228 Zn224 2.086 . S
C229 O225 1.278 . S
C229 O230 1.211 . S
O230 C229 1.211 . S
C231 O223 1.284 . S
C231 O232 1.273 . S
O232 C231 1.273 . S
O233 Zn224 1.977 . S
O233 C226 1.267 . S
C234 O235 1.160 . S
C234 O241 1.185 . S
O235 C234 1.160 . S
O236 Zn237 1.899 . S
O236 C244 1.284 . S
Zn237 O236 1.899 . S
Zn237 O238 2.032 . S
Zn237 O241 2.086 . S
Zn237 O246 1.977 . S
O238 Zn237 2.032 . S
O238 C242 1.278 . S
C239 O240 1.203 . S
C239 O246 1.267 . S
O240 C239 1.203 . S
O241 C234 1.185 . S
O241 Zn237 2.086 . S
C242 O238 1.278 . S
C242 O243 1.211 . S
O243 C242 1.211 . S
C244 O236 1.284 . S
C244 O245 1.273 . S
O245 C244 1.273 . S
O246 Zn237 1.977 . S
O246 C239 1.267 . S
C247 O248 1.160 . S
C247 O254 1.185 . S
O248 C247 1.160 . S
O249 Zn250 1.899 . S
O249 C257 1.284 . S
Zn250 O249 1.899 . S
Zn250 O251 2.032 . S
Zn250 O254 2.086 . S
Zn250 O259 1.977 . S
O251 Zn250 2.032 . S
O251 C255 1.278 . S
C252 O253 1.203 . S
C252 O259 1.267 1_455 S
O253 C252 1.203 . S
O254 C247 1.185 . S
O254 Zn250 2.086 . S
C255 O251 1.278 . S
C255 O256 1.211 . S
O256 C255 1.211 . S
C257 O249 1.284 . S
C257 O258 1.273 . S
O258 C257 1.273 . S
O259 Zn250 1.977 . S
O259 C252 1.267 1_655 S
C260 O261 1.160 . S
C260 O267 1.185 . S
O261 C260 1.160 . S
O262 Zn263 1.899 . S
O262 C270 1.284 . S
Zn263 O262 1.899 . S
Zn263 O264 2.032 . S
Zn263 O267 2.086 . S
Zn263 O272 1.977 . S
O264 Zn263 2.032 . S
O264 C268 1.278 . S
C265 O266 1.203 . S
C265 O272 1.267 . S
O266 C265 1.203 . S
O267 C260 1.185 . S
O267 Zn263 2.086 . S
C268 O264 1.278 . S
C268 O269 1.211 . S
O269 C268 1.211 . S
C270 O262 1.284 . S
C270 O271 1.273 . S
O271 C270 1.273 . S
O272 Zn263 1.977 . S
O272 C265 1.267 . S
C273 O274 1.160 . S
C273 O280 1.185 . S
O274 C273 1.160 . S
O275 Zn276 1.899 . S
O275 C283 1.284 . S
Zn276 O275 1.899 . S
Zn276 O277 2.032 . S
Zn276 O280 2.086 . S
Zn276 O285 1.977 . S
O277 Zn276 2.032 . S
O277 C281 1.278 . S
C278 O279 1.203 . S
C278 O285 1.267 1_455 S
O279 C278 1.203 . S
O280 C273 1.185 . S
O280 Zn276 2.086 . S
C281 O277 1.278 . S
C281 O282 1.211 . S
O282 C281 1.211 . S
C283 O275 1.284 . S
C283 O284 1.273 . S
O284 C283 1.273 . S
O285 Zn276 1.977 . S
O285 C278 1.267 1_655 S
C286 O287 1.160 . S
C286 O293 1.185 . S
O287 C286 1.160 . S
O288 Zn289 1.899 . S
O288 C296 1.284 . S
Zn289 O288 1.899 . S
Zn289 O290 2.032 . S
Zn289 O293 2.086 . S
Zn289 O298 1.977 . S
O290 Zn289 2.032 . S
O290 C294 1.278 . S
C291 O292 1.203 . S
C291 O298 1.267 . S
O292 C291 1.203 . S
O293 C286 1.185 . S
O293 Zn289 2.086 . S
C294 O290 1.278 . S
C294 O295 1.211 . S
O295 C294 1.211 . S
C296 O288 1.284 . S
C296 O297 1.273 . S
O297 C296 1.273 . S
O298 Zn289 1.977 . S
O298 C291 1.267 . S
C299 O300 1.160 . S
C299 O306 1.185 . S
O300 C299 1.160 . S
O301 Zn302 1.899 . S
O301 C309 1.284 . S
Zn302 O301 1.899 . S
Zn302 O303 2.032 . S
Zn302 O306 2.086 . S
Zn302 O311 1.977 . S
O303 Zn302 2.032 . S
O303 C307 1.278 . S
C304 O305 1.203 . S
C304 O311 1.267 . S
O305 C304 1.203 . S
O306 C299 1.185 . S
O306 Zn302 2.086 . S
C307 O303 1.278 . S
C307 O308 1.211 . S
O308 C307 1.211 . S
C309 O301 1.284 . S
C309 O310 1.273 . S
O310 C309 1.273 . S
O311 Zn302 1.977 . S
O311 C304 1.267 . S
C312 O313 1.160 . S
C312 O319 1.185 . S
O313 C312 1.160 . S
O314 Zn315 1.899 . S
O314 C322 1.284 . S
Zn315 O314 1.899 . S
Zn315 O316 2.032 . S
Zn315 O319 2.086 . S
Zn315 O324 1.977 . S
O316 Zn315 2.032 . S
O316 C320 1.278 . S
C317 O318 1.203 . S
C317 O324 1.267 . S
O318 C317 1.203 . S
O319 C312 1.185 . S
O319 Zn315 2.086 . S
C320 O316 1.278 . S
C320 O321 1.211 . S
O321 C320 1.211 . S
C322 O314 1.284 . S
C322 O323 1.273 . S
O323 C322 1.273 . S
O324 Zn315 1.977 . S
O324 C317 1.267 . S
C325 O326 1.160 . S
C325 O332 1.185 . S
O326 C325 1.160 . S
O327 Zn328 1.899 . S
O327 C335 1.284 . S
Zn328 O327 1.899 . S
Zn328 O329 2.032 . S
Zn328 O332 2.086 . S
Zn328 O337 1.977 . S
O329 Zn328 2.032 . S
O329 C333 1.278 . S
C330 O331 1.203 . S
C330 O337 1.267 . S
O331 C330 1.203 . S
O332 C325 1.185 . S
O332 Zn328 2.086 . S
C333 O329 1.278 . S
C333 O334 1.211 . S
O334 C333 1.211 . S
C335 O327 1.284 . S
C335 O336 1.273 . S
O336 C335 1.273 . S
O337 Zn328 1.977 . S
O337 C330 1.267 . S
C338 O339 1.160 . S
C338 O345 1.185 . S
O339 C338 1.160 . S
O340 Zn341 1.899 . S
O340 C348 1.284 . S
Zn341 O340 1.899 . S
Zn341 O342 2.032 . S
Zn341 O345 2.086 . S
Zn341 O350 1.977 . S
O342 Zn341 2.032 . S
O342 C346 1.278 . S
C343 O344 1.203 . S
C343 O350 1.267 . S
O344 C343 1.203 . S
O345 C338 1.185 . S
O345 Zn341 2.086 . S
C346 O342 1.278 . S
C346 O347 1.211 . S
O347 C346 1.211 . S
C348 O340 1.284 . S
C348 O349 1.273 . S
O349 C348 1.273 . S
O350 Zn341 1.977 . S
O350 C343 1.267 . S
C351 O352 1.160 . S
C351 O358 1.185 . S
O352 C351 1.160 . S
O353 Zn354 1.899 . S
O353 C361 1.284 . S
Zn354 O353 1.899 . S
Zn354 O355 2.032 . S
Zn354 O358 2.086 . S
Zn354 O363 1.977 . S
O355 Zn354 2.032 . S
O355 C359 1.278 . S
C356 O357 1.203 . S
C356 O363 1.267 1_655 S
O357 C356 1.203 . S
O358 C351 1.185 . S
O358 Zn354 2.086 . S
C359 O355 1.278 . S
C359 O360 1.211 . S
O360 C359 1.211 . S
C361 O353 1.284 . S
C361 O362 1.273 . S
O362 C361 1.273 . S
O363 Zn354 1.977 . S
O363 C356 1.267 1_455 S
C364 O365 1.160 . S
C364 O371 1.185 . S
O365 C364 1.160 . S
O366 Zn367 1.899 . S
O366 C374 1.284 . S
Zn367 O366 1.899 . S
Zn367 O368 2.032 . S
Zn367 O371 2.086 . S
Zn367 O376 1.977 . S
O368 Zn367 2.032 . S
O368 C372 1.278 . S
C369 O370 1.203 . S
C369 O376 1.267 . S
O370 C369 1.203 . S
O371 C364 1.185 . S
O371 Zn367 2.086 . S
C372 O368 1.278 . S
C372 O373 1.211 . S
O373 C372 1.211 . S
C374 O366 1.284 . S
C374 O375 1.273 . S
O375 C374 1.273 . S
O376 Zn367 1.977 . S
O376 C369 1.267 . S
C377 O378 1.160 . S
C377 O384 1.185 . S
O378 C377 1.160 . S
O379 Zn380 1.899 . S
O379 C387 1.284 . S
Zn380 O379 1.899 . S
Zn380 O381 2.032 . S
Zn380 O384 2.086 . S
Zn380 O389 1.977 . S
O381 Zn380 2.032 . S
O381 C385 1.278 . S
C382 O383 1.203 . S
C382 O389 1.267 1_655 S
O383 C382 1.203 . S
O384 C377 1.185 . S
O384 Zn380 2.086 . S
C385 O381 1.278 . S
C385 O386 1.211 . S
O386 C385 1.211 . S
C387 O379 1.284 . S
C387 O388 1.273 . S
O388 C387 1.273 . S
O389 Zn380 1.977 . S
O389 C382 1.267 1_455 S
C390 O391 1.160 . S
C390 O397 1.185 . S
O391 C390 1.160 . S
O392 Zn393 1.899 . S
O392 C400 1.284 . S
Zn393 O392 1.899 . S
Zn393 O394 2.032 . S
Zn393 O397 2.086 . S
Zn393 O402 1.977 . S
O394 Zn393 2.032 . S
O394 C398 1.278 . S
C395 O396 1.203 . S
C395 O402 1.267 . S
O396 C395 1.203 . S
O397 C390 1.185 . S
O397 Zn393 2.086 . S
C398 O394 1.278 . S
C398 O399 1.211 . S
O399 C398 1.211 . S
C400 O392 1.284 . S
C400 O401 1.273 . S
O401 C400 1.273 . S
O402 Zn393 1.977 . S
O402 C395 1.267 . S
C403 O404 1.160 . S
C403 O410 1.185 . S
O404 C403 1.160 . S
O405 Zn406 1.899 . S
O405 C413 1.284 . S
Zn406 O405 1.899 . S
Zn406 O407 2.032 . S
Zn406 O410 2.086 . S
Zn406 O415 1.977 . S
O407 Zn406 2.032 . S
O407 C411 1.278 . S
C408 O409 1.203 . S
C408 O415 1.267 . S
O409 C408 1.203 . S
O410 C403 1.185 . S
O410 Zn406 2.086 . S
C411 O407 1.278 . S
C411 O412 1.211 . S
O412 C411 1.211 . S
C413 O405 1.284 . S
C413 O414 1.273 . S
O414 C413 1.273 . S
O415 Zn406 1.977 . S
O415 C408 1.267 . S
H416 C434 0.951 . S
H417 C436 0.951 . S
H418 C438 0.950 . S
H419 C439 0.950 . S
H420 C441 0.950 . S
H421 C444 0.950 . S
H422 C445 0.950 . S
H423 C447 0.950 . S
H424 C448 0.950 . S
H425 C449 0.951 . S
H426 C451 0.951 . S
H427 C453 0.950 . S
H428 C454 0.950 . S
H429 C456 0.950 . S
H430 C459 0.950 . S
H431 C460 0.950 . S
H432 C462 0.950 . S
H433 C463 0.950 . S
C434 H416 0.951 . S
C434 C435 1.366 . S
C434 C436 1.388 . S
C435 C434 1.366 . S
C435 C439 1.385 . S
C436 H417 0.951 . S
C436 C434 1.388 . S
C436 C437 1.366 . S
C437 C436 1.366 . S
C437 C438 1.414 . S
C437 C440 1.499 . S
C438 H418 0.950 . S
C438 C437 1.414 . S
C438 C439 1.374 . S
C439 H419 0.950 . S
C439 C435 1.385 . S
C439 C438 1.374 . S
C440 C437 1.499 . S
C440 C441 1.373 . S
C440 C442 1.389 . S
C441 H420 0.950 . S
C441 C440 1.373 . S
C441 C457 1.377 . S
C442 C440 1.389 . S
C442 C443 1.524 . S
C442 C456 1.377 . S
C443 C442 1.524 . S
C443 C444 1.397 . S
C443 C448 1.363 . S
C444 H421 0.950 . S
C444 C443 1.397 . S
C444 C445 1.334 . S
C445 H422 0.950 . S
C445 C444 1.334 . S
C445 C446 1.287 . S
C446 C445 1.287 . S
C446 C447 1.524 . S
C446 H465 0.913 . S
C447 H423 0.950 . S
C447 C446 1.524 . S
C447 C448 1.415 . S
C448 H424 0.950 . S
C448 C443 1.363 . S
C448 C447 1.415 . S
C449 H425 0.951 . S
C449 C450 1.366 . S
C449 C451 1.388 . S
C450 C449 1.366 . S
C450 C454 1.385 . S
C451 H426 0.951 . S
C451 C449 1.388 . S
C451 C452 1.366 . S
C452 C451 1.366 . S
C452 C453 1.414 . S
C452 C455 1.499 . S
C453 H427 0.950 . S
C453 C452 1.414 . S
C453 C454 1.374 . S
C454 H428 0.950 . S
C454 C450 1.385 . S
C454 C453 1.374 . S
C455 C452 1.499 . S
C455 C456 1.373 . S
C455 C457 1.389 . S
C456 H429 0.950 . S
C456 C442 1.377 . S
C456 C455 1.373 . S
C457 C441 1.377 . S
C457 C455 1.389 . S
C457 C458 1.524 . S
C458 C457 1.524 . S
C458 C459 1.397 . S
C458 C463 1.363 . S
C459 H430 0.950 . S
C459 C458 1.397 . S
C459 C460 1.334 . S
C460 H431 0.950 . S
C460 C459 1.334 . S
C460 C461 1.287 . S
C461 C460 1.287 . S
C461 C462 1.524 . S
C461 H464 0.999 . S
C462 H432 0.950 . S
C462 C461 1.524 . S
C462 C463 1.415 . S
C463 H433 0.950 . S
C463 C458 1.363 . S
C463 C462 1.415 . S
H464 C461 0.999 . S
H465 C446 0.913 . S
H466 C484 0.951 . S
H467 C486 0.951 . S
H468 C488 0.950 . S
H469 C489 0.950 . S
H470 C491 0.950 . S
H471 C494 0.950 . S
H472 C495 0.950 . S
H473 C497 0.950 . S
H474 C498 0.950 . S
H475 C499 0.951 . S
H476 C501 0.951 . S
H477 C503 0.950 . S
H478 C504 0.950 . S
H479 C506 0.950 . S
H480 C509 0.950 . S
H481 C510 0.950 . S
H482 C512 0.950 . S
H483 C513 0.950 . S
C484 H466 0.951 . S
C484 C485 1.366 . S
C484 C486 1.388 . S
C485 C484 1.366 . S
C485 C489 1.385 . S
C486 H467 0.951 . S
C486 C484 1.388 . S
C486 C487 1.366 . S
C487 C486 1.366 . S
C487 C488 1.414 . S
C487 C490 1.499 . S
C488 H468 0.950 . S
C488 C487 1.414 . S
C488 C489 1.374 . S
C489 H469 0.950 . S
C489 C485 1.385 . S
C489 C488 1.374 . S
C490 C487 1.499 . S
C490 C491 1.373 . S
C490 C492 1.389 . S
C491 H470 0.950 . S
C491 C490 1.373 . S
C491 C507 1.377 . S
C492 C490 1.389 . S
C492 C493 1.524 . S
C492 C506 1.377 . S
C493 C492 1.524 . S
C493 C494 1.397 . S
C493 C498 1.363 . S
C494 H471 0.950 . S
C494 C493 1.397 . S
C494 C495 1.334 . S
C495 H472 0.950 . S
C495 C494 1.334 . S
C495 C496 1.287 . S
C496 C495 1.287 . S
C496 C497 1.524 . S
C496 H515 0.913 . S
C497 H473 0.950 . S
C497 C496 1.524 . S
C497 C498 1.415 . S
C498 H474 0.950 . S
C498 C493 1.363 . S
C498 C497 1.415 . S
C499 H475 0.951 . S
C499 C500 1.366 . S
C499 C501 1.388 . S
C500 C499 1.366 . S
C500 C504 1.385 . S
C501 H476 0.951 . S
C501 C499 1.388 . S
C501 C502 1.366 . S
C502 C501 1.366 . S
C502 C503 1.414 . S
C502 C505 1.499 . S
C503 H477 0.950 . S
C503 C502 1.414 . S
C503 C504 1.374 . S
C504 H478 0.950 . S
C504 C500 1.385 . S
C504 C503 1.374 . S
C505 C502 1.499 . S
C505 C506 1.373 . S
C505 C507 1.389 . S
C506 H479 0.950 . S
C506 C492 1.377 . S
C506 C505 1.373 . S
C507 C491 1.377 . S
C507 C505 1.389 . S
C507 C508 1.524 . S
C508 C507 1.524 . S
C508 C509 1.397 . S
C508 C513 1.363 . S
C509 H480 0.950 . S
C509 C508 1.397 . S
C509 C510 1.334 . S
C510 H481 0.950 . S
C510 C509 1.334 . S
C510 C511 1.287 . S
C511 C510 1.287 . S
C511 C512 1.524 . S
C511 H514 0.999 . S
C512 H482 0.950 . S
C512 C511 1.524 . S
C512 C513 1.415 . S
C513 H483 0.950 . S
C513 C508 1.363 . S
C513 C512 1.415 . S
H514 C511 0.999 . S
H515 C496 0.913 . S
H516 C534 0.951 . S
H517 C536 0.951 . S
H518 C538 0.950 . S
H519 C539 0.950 . S
H520 C541 0.950 . S
H521 C544 0.950 . S
H522 C545 0.950 . S
H523 C547 0.950 . S
H524 C548 0.950 . S
H525 C549 0.951 . S
H526 C551 0.951 . S
H527 C553 0.950 . S
H528 C554 0.950 . S
H529 C556 0.950 . S
H530 C559 0.950 . S
H531 C560 0.950 . S
H532 C562 0.950 . S
H533 C563 0.950 . S
C534 H516 0.951 . S
C534 C535 1.366 . S
C534 C536 1.388 . S
C535 C534 1.366 . S
C535 C539 1.385 . S
C536 H517 0.951 . S
C536 C534 1.388 . S
C536 C537 1.366 . S
C537 C536 1.366 . S
C537 C538 1.414 . S
C537 C540 1.499 . S
C538 H518 0.950 . S
C538 C537 1.414 . S
C538 C539 1.374 . S
C539 H519 0.950 . S
C539 C535 1.385 . S
C539 C538 1.374 . S
C540 C537 1.499 . S
C540 C541 1.373 . S
C540 C542 1.389 . S
C541 H520 0.950 . S
C541 C540 1.373 . S
C541 C557 1.377 . S
C542 C540 1.389 . S
C542 C543 1.524 . S
C542 C556 1.377 . S
C543 C542 1.524 . S
C543 C544 1.397 . S
C543 C548 1.363 . S
C544 H521 0.950 . S
C544 C543 1.397 . S
C544 C545 1.334 . S
C545 H522 0.950 . S
C545 C544 1.334 . S
C545 C546 1.287 . S
C546 C545 1.287 . S
C546 C547 1.524 . S
C546 H565 0.913 . S
C547 H523 0.950 . S
C547 C546 1.524 . S
C547 C548 1.415 . S
C548 H524 0.950 . S
C548 C543 1.363 . S
C548 C547 1.415 . S
C549 H525 0.951 . S
C549 C550 1.366 . S
C549 C551 1.388 . S
C550 C549 1.366 . S
C550 C554 1.385 . S
C551 H526 0.951 . S
C551 C549 1.388 . S
C551 C552 1.366 . S
C552 C551 1.366 . S
C552 C553 1.414 . S
C552 C555 1.499 . S
C553 H527 0.950 . S
C553 C552 1.414 . S
C553 C554 1.374 . S
C554 H528 0.950 . S
C554 C550 1.385 . S
C554 C553 1.374 . S
C555 C552 1.499 . S
C555 C556 1.373 . S
C555 C557 1.389 . S
C556 H529 0.950 . S
C556 C542 1.377 . S
C556 C555 1.373 . S
C557 C541 1.377 . S
C557 C555 1.389 . S
C557 C558 1.524 . S
C558 C557 1.524 . S
C558 C559 1.397 . S
C558 C563 1.363 . S
C559 H530 0.950 . S
C559 C558 1.397 . S
C559 C560 1.334 . S
C560 H531 0.950 . S
C560 C559 1.334 . S
C560 C561 1.287 . S
C561 C560 1.287 . S
C561 C562 1.524 . S
C561 H564 0.999 . S
C562 H532 0.950 . S
C562 C561 1.524 . S
C562 C563 1.415 . S
C563 H533 0.950 . S
C563 C558 1.363 . S
C563 C562 1.415 . S
H564 C561 0.999 . S
H565 C546 0.913 . S
H566 C584 0.951 . S
H567 C586 0.951 . S
H568 C588 0.950 . S
H569 C589 0.950 . S
H570 C591 0.950 . S
H571 C594 0.950 . S
H572 C595 0.950 . S
H573 C597 0.950 . S
H574 C598 0.950 . S
H575 C599 0.951 . S
H576 C601 0.951 . S
H577 C603 0.950 . S
H578 C604 0.950 . S
H579 C606 0.950 . S
H580 C609 0.950 . S
H581 C610 0.950 . S
H582 C612 0.950 . S
H583 C613 0.950 . S
C584 H566 0.951 . S
C584 C585 1.366 . S
C584 C586 1.388 . S
C585 C584 1.366 . S
C585 C589 1.385 . S
C586 H567 0.951 . S
C586 C584 1.388 . S
C586 C587 1.366 . S
C587 C586 1.366 . S
C587 C588 1.414 . S
C587 C590 1.499 . S
C588 H568 0.950 . S
C588 C587 1.414 . S
C588 C589 1.374 . S
C589 H569 0.950 . S
C589 C585 1.385 . S
C589 C588 1.374 . S
C590 C587 1.499 . S
C590 C591 1.373 . S
C590 C592 1.389 . S
C591 H570 0.950 . S
C591 C590 1.373 . S
C591 C607 1.377 . S
C592 C590 1.389 . S
C592 C593 1.524 . S
C592 C606 1.377 . S
C593 C592 1.524 . S
C593 C594 1.397 . S
C593 C598 1.363 . S
C594 H571 0.950 . S
C594 C593 1.397 . S
C594 C595 1.334 . S
C595 H572 0.950 . S
C595 C594 1.334 . S
C595 C596 1.287 . S
C596 C595 1.287 . S
C596 C597 1.524 . S
C596 H615 0.913 . S
C597 H573 0.950 . S
C597 C596 1.524 . S
C597 C598 1.415 . S
C598 H574 0.950 . S
C598 C593 1.363 . S
C598 C597 1.415 . S
C599 H575 0.951 . S
C599 C600 1.366 . S
C599 C601 1.388 . S
C600 C599 1.366 . S
C600 C604 1.385 . S
C601 H576 0.951 . S
C601 C599 1.388 . S
C601 C602 1.366 . S
C602 C601 1.366 . S
C602 C603 1.414 . S
C602 C605 1.499 . S
C603 H577 0.950 . S
C603 C602 1.414 . S
C603 C604 1.374 . S
C604 H578 0.950 . S
C604 C600 1.385 . S
C604 C603 1.374 . S
C605 C602 1.499 . S
C605 C606 1.373 . S
C605 C607 1.389 . S
C606 H579 0.950 . S
C606 C592 1.377 . S
C606 C605 1.373 . S
C607 C591 1.377 . S
C607 C605 1.389 . S
C607 C608 1.524 . S
C608 C607 1.524 . S
C608 C609 1.397 . S
C608 C613 1.363 . S
C609 H580 0.950 . S
C609 C608 1.397 . S
C609 C610 1.334 . S
C610 H581 0.950 . S
C610 C609 1.334 . S
C610 C611 1.287 . S
C611 C610 1.287 . S
C611 C612 1.524 . S
C611 H614 0.999 . S
C612 H582 0.950 . S
C612 C611 1.524 . S
C612 C613 1.415 . S
C613 H583 0.950 . S
C613 C608 1.363 . S
C613 C612 1.415 . S
H614 C611 0.999 . S
H615 C596 0.913 . S
H616 C634 0.951 . S
H617 C636 0.951 . S
H618 C638 0.950 . S
H619 C639 0.950 . S
H620 C641 0.950 . S
H621 C644 0.950 . S
H622 C645 0.950 . S
H623 C647 0.950 . S
H624 C648 0.950 . S
H625 C649 0.951 . S
H626 C651 0.951 . S
H627 C653 0.950 . S
H628 C654 0.950 . S
H629 C656 0.950 . S
H630 C659 0.950 . S
H631 C660 0.950 . S
H632 C662 0.950 . S
H633 C663 0.950 . S
C634 H616 0.951 . S
C634 C635 1.366 . S
C634 C636 1.388 . S
C635 C634 1.366 . S
C635 C639 1.385 . S
C636 H617 0.951 . S
C636 C634 1.388 . S
C636 C637 1.366 . S
C637 C636 1.366 . S
C637 C638 1.414 . S
C637 C640 1.499 . S
C638 H618 0.950 . S
C638 C637 1.414 . S
C638 C639 1.374 . S
C639 H619 0.950 . S
C639 C635 1.385 . S
C639 C638 1.374 . S
C640 C637 1.499 . S
C640 C641 1.373 . S
C640 C642 1.389 . S
C641 H620 0.950 . S
C641 C640 1.373 . S
C641 C657 1.377 . S
C642 C640 1.389 . S
C642 C643 1.524 . S
C642 C656 1.377 . S
C643 C642 1.524 . S
C643 C644 1.397 . S
C643 C648 1.363 . S
C644 H621 0.950 . S
C644 C643 1.397 . S
C644 C645 1.334 . S
C645 H622 0.950 . S
C645 C644 1.334 . S
C645 C646 1.287 . S
C646 C645 1.287 . S
C646 C647 1.524 . S
C646 H665 0.913 . S
C647 H623 0.950 . S
C647 C646 1.524 . S
C647 C648 1.415 . S
C648 H624 0.950 . S
C648 C643 1.363 . S
C648 C647 1.415 . S
C649 H625 0.951 . S
C649 C650 1.366 . S
C649 C651 1.388 . S
C650 C649 1.366 . S
C650 C654 1.385 . S
C651 H626 0.951 . S
C651 C649 1.388 . S
C651 C652 1.366 . S
C652 C651 1.366 . S
C652 C653 1.414 . S
C652 C655 1.499 . S
C653 H627 0.950 . S
C653 C652 1.414 . S
C653 C654 1.374 . S
C654 H628 0.950 . S
C654 C650 1.385 . S
C654 C653 1.374 . S
C655 C652 1.499 . S
C655 C656 1.373 . S
C655 C657 1.389 . S
C656 H629 0.950 . S
C656 C642 1.377 . S
C656 C655 1.373 . S
C657 C641 1.377 . S
C657 C655 1.389 . S
C657 C658 1.524 . S
C658 C657 1.524 . S
C658 C659 1.397 . S
C658 C663 1.363 . S
C659 H630 0.950 . S
C659 C658 1.397 . S
C659 C660 1.334 . S
C660 H631 0.950 . S
C660 C659 1.334 . S
C660 C661 1.287 . S
C661 C660 1.287 . S
C661 C662 1.524 . S
C661 H664 0.999 . S
C662 H632 0.950 . S
C662 C661 1.524 . S
C662 C663 1.415 . S
C663 H633 0.950 . S
C663 C658 1.363 . S
C663 C662 1.415 . S
H664 C661 0.999 . S
H665 C646 0.913 . S
H666 C684 0.951 . S
H667 C686 0.951 . S
H668 C688 0.950 . S
H669 C689 0.950 . S
H670 C691 0.950 . S
H671 C694 0.950 . S
H672 C695 0.950 . S
H673 C697 0.950 . S
H674 C698 0.950 . S
H675 C699 0.951 . S
H676 C701 0.951 . S
H677 C703 0.950 . S
H678 C704 0.950 . S
H679 C706 0.950 . S
H680 C709 0.950 . S
H681 C710 0.950 . S
H682 C712 0.950 . S
H683 C713 0.950 . S
C684 H666 0.951 . S
C684 C685 1.366 . S
C684 C686 1.388 . S
C685 C684 1.366 . S
C685 C689 1.385 . S
C686 H667 0.951 . S
C686 C684 1.388 . S
C686 C687 1.366 . S
C687 C686 1.366 . S
C687 C688 1.414 . S
C687 C690 1.499 . S
C688 H668 0.950 . S
C688 C687 1.414 . S
C688 C689 1.374 . S
C689 H669 0.950 . S
C689 C685 1.385 . S
C689 C688 1.374 . S
C690 C687 1.499 . S
C690 C691 1.373 . S
C690 C692 1.389 . S
C691 H670 0.950 . S
C691 C690 1.373 . S
C691 C707 1.377 . S
C692 C690 1.389 . S
C692 C693 1.524 . S
C692 C706 1.377 . S
C693 C692 1.524 . S
C693 C694 1.397 . S
C693 C698 1.363 . S
C694 H671 0.950 . S
C694 C693 1.397 . S
C694 C695 1.334 . S
C695 H672 0.950 . S
C695 C694 1.334 . S
C695 C696 1.287 . S
C696 C695 1.287 . S
C696 C697 1.524 . S
C696 H715 0.913 . S
C697 H673 0.950 . S
C697 C696 1.524 . S
C697 C698 1.415 . S
C698 H674 0.950 . S
C698 C693 1.363 . S
C698 C697 1.415 . S
C699 H675 0.951 . S
C699 C700 1.366 . S
C699 C701 1.388 . S
C700 C699 1.366 . S
C700 C704 1.385 . S
C701 H676 0.951 . S
C701 C699 1.388 . S
C701 C702 1.366 . S
C702 C701 1.366 . S
C702 C703 1.414 . S
C702 C705 1.499 . S
C703 H677 0.950 . S
C703 C702 1.414 . S
C703 C704 1.374 . S
C704 H678 0.950 . S
C704 C700 1.385 . S
C704 C703 1.374 . S
C705 C702 1.499 . S
C705 C706 1.373 . S
C705 C707 1.389 . S
C706 H679 0.950 . S
C706 C692 1.377 . S
C706 C705 1.373 . S
C707 C691 1.377 . S
C707 C705 1.389 . S
C707 C708 1.524 . S
C708 C707 1.524 . S
C708 C709 1.397 . S
C708 C713 1.363 . S
C709 H680 0.950 . S
C709 C708 1.397 . S
C709 C710 1.334 . S
C710 H681 0.950 . S
C710 C709 1.334 . S
C710 C711 1.287 . S
C711 C710 1.287 . S
C711 C712 1.524 . S
C711 H714 0.999 . S
C712 H682 0.950 . S
C712 C711 1.524 . S
C712 C713 1.415 . S
C713 H683 0.950 . S
C713 C708 1.363 . S
C713 C712 1.415 . S
H714 C711 0.999 . S
H715 C696 0.913 . S
H716 C734 0.951 . S
H717 C736 0.951 . S
H718 C738 0.950 . S
H719 C739 0.950 . S
H720 C741 0.950 . S
H721 C744 0.950 . S
H722 C745 0.950 . S
H723 C747 0.950 . S
H724 C748 0.950 . S
H725 C749 0.951 . S
H726 C751 0.951 . S
H727 C753 0.950 . S
H728 C754 0.950 . S
H729 C756 0.950 . S
H730 C759 0.950 . S
H731 C760 0.950 . S
H732 C762 0.950 . S
H733 C763 0.950 . S
C734 H716 0.951 . S
C734 C735 1.366 . S
C734 C736 1.388 . S
C735 C734 1.366 . S
C735 C739 1.385 . S
C736 H717 0.951 . S
C736 C734 1.388 . S
C736 C737 1.366 . S
C737 C736 1.366 . S
C737 C738 1.414 . S
C737 C740 1.499 . S
C738 H718 0.950 . S
C738 C737 1.414 . S
C738 C739 1.374 . S
C739 H719 0.950 . S
C739 C735 1.385 . S
C739 C738 1.374 . S
C740 C737 1.499 . S
C740 C741 1.373 . S
C740 C742 1.389 . S
C741 H720 0.950 . S
C741 C740 1.373 . S
C741 C757 1.377 . S
C742 C740 1.389 . S
C742 C743 1.524 . S
C742 C756 1.377 . S
C743 C742 1.524 . S
C743 C744 1.397 . S
C743 C748 1.363 . S
C744 H721 0.950 . S
C744 C743 1.397 . S
C744 C745 1.334 . S
C745 H722 0.950 . S
C745 C744 1.334 . S
C745 C746 1.287 . S
C746 C745 1.287 . S
C746 C747 1.524 . S
C746 H765 0.913 . S
C747 H723 0.950 . S
C747 C746 1.524 . S
C747 C748 1.415 . S
C748 H724 0.950 . S
C748 C743 1.363 . S
C748 C747 1.415 . S
C749 H725 0.951 . S
C749 C750 1.366 . S
C749 C751 1.388 . S
C750 C749 1.366 . S
C750 C754 1.385 . S
C751 H726 0.951 . S
C751 C749 1.388 . S
C751 C752 1.366 . S
C752 C751 1.366 . S
C752 C753 1.414 . S
C752 C755 1.499 . S
C753 H727 0.950 . S
C753 C752 1.414 . S
C753 C754 1.374 . S
C754 H728 0.950 . S
C754 C750 1.385 . S
C754 C753 1.374 . S
C755 C752 1.499 . S
C755 C756 1.373 . S
C755 C757 1.389 . S
C756 H729 0.950 . S
C756 C742 1.377 . S
C756 C755 1.373 . S
C757 C741 1.377 . S
C757 C755 1.389 . S
C757 C758 1.524 . S
C758 C757 1.524 . S
C758 C759 1.397 . S
C758 C763 1.363 . S
C759 H730 0.950 . S
C759 C758 1.397 . S
C759 C760 1.334 . S
C760 H731 0.950 . S
C760 C759 1.334 . S
C760 C761 1.287 . S
C761 C760 1.287 . S
C761 C762 1.524 . S
C761 H764 0.999 . S
C762 H732 0.950 . S
C762 C761 1.524 . S
C762 C763 1.415 . S
C763 H733 0.950 . S
C763 C758 1.363 . S
C763 C762 1.415 . S
H764 C761 0.999 . S
H765 C746 0.913 . S
H766 C784 0.951 . S
H767 C786 0.951 . S
H768 C788 0.950 . S
H769 C789 0.950 . S
H770 C791 0.950 . S
H771 C794 0.950 . S
H772 C795 0.950 . S
H773 C797 0.950 . S
H774 C798 0.950 . S
H775 C799 0.951 . S
H776 C801 0.951 . S
H777 C803 0.950 . S
H778 C804 0.950 . S
H779 C806 0.950 . S
H780 C809 0.950 . S
H781 C810 0.950 . S
H782 C812 0.950 . S
H783 C813 0.950 . S
C784 H766 0.951 . S
C784 C785 1.366 . S
C784 C786 1.388 . S
C785 C784 1.366 . S
C785 C789 1.385 . S
C786 H767 0.951 . S
C786 C784 1.388 . S
C786 C787 1.366 . S
C787 C786 1.366 . S
C787 C788 1.414 . S
C787 C790 1.499 . S
C788 H768 0.950 . S
C788 C787 1.414 . S
C788 C789 1.374 . S
C789 H769 0.950 . S
C789 C785 1.385 . S
C789 C788 1.374 . S
C790 C787 1.499 . S
C790 C791 1.373 . S
C790 C792 1.389 . S
C791 H770 0.950 . S
C791 C790 1.373 . S
C791 C807 1.377 . S
C792 C790 1.389 . S
C792 C793 1.524 . S
C792 C806 1.377 . S
C793 C792 1.524 . S
C793 C794 1.397 . S
C793 C798 1.363 . S
C794 H771 0.950 . S
C794 C793 1.397 . S
C794 C795 1.334 . S
C795 H772 0.950 . S
C795 C794 1.334 . S
C795 C796 1.287 . S
C796 C795 1.287 . S
C796 C797 1.524 . S
C796 H815 0.913 . S
C797 H773 0.950 . S
C797 C796 1.524 . S
C797 C798 1.415 . S
C798 H774 0.950 . S
C798 C793 1.363 . S
C798 C797 1.415 . S
C799 H775 0.951 . S
C799 C800 1.366 . S
C799 C801 1.388 . S
C800 C799 1.366 . S
C800 C804 1.385 . S
C801 H776 0.951 . S
C801 C799 1.388 . S
C801 C802 1.366 . S
C802 C801 1.366 . S
C802 C803 1.414 . S
C802 C805 1.499 . S
C803 H777 0.950 . S
C803 C802 1.414 . S
C803 C804 1.374 . S
C804 H778 0.950 . S
C804 C800 1.385 . S
C804 C803 1.374 . S
C805 C802 1.499 . S
C805 C806 1.373 . S
C805 C807 1.389 . S
C806 H779 0.950 . S
C806 C792 1.377 . S
C806 C805 1.373 . S
C807 C791 1.377 . S
C807 C805 1.389 . S
C807 C808 1.524 . S
C808 C807 1.524 . S
C808 C809 1.397 . S
C808 C813 1.363 . S
C809 H780 0.950 . S
C809 C808 1.397 . S
C809 C810 1.334 . S
C810 H781 0.950 . S
C810 C809 1.334 . S
C810 C811 1.287 . S
C811 C810 1.287 . S
C811 C812 1.524 . S
C811 H814 0.999 . S
C812 H782 0.950 . S
C812 C811 1.524 . S
C812 C813 1.415 . S
C813 H783 0.950 . S
C813 C808 1.363 . S
C813 C812 1.415 . S
H814 C811 0.999 . S
H815 C796 0.913 . S
H816 C834 0.951 . S
H817 C836 0.951 . S
H818 C838 0.950 . S
H819 C839 0.950 . S
H820 C841 0.950 . S
H821 C844 0.950 . S
H822 C845 0.950 . S
H823 C847 0.950 . S
H824 C848 0.950 . S
H825 C849 0.951 . S
H826 C851 0.951 . S
H827 C853 0.950 . S
H828 C854 0.950 . S
H829 C856 0.950 . S
H830 C859 0.950 . S
H831 C860 0.950 . S
H832 C862 0.950 . S
H833 C863 0.950 . S
C834 H816 0.951 . S
C834 C835 1.366 . S
C834 C836 1.388 . S
C835 C834 1.366 . S
C835 C839 1.385 . S
C836 H817 0.951 . S
C836 C834 1.388 . S
C836 C837 1.366 . S
C837 C836 1.366 . S
C837 C838 1.414 . S
C837 C840 1.499 . S
C838 H818 0.950 . S
C838 C837 1.414 . S
C838 C839 1.374 . S
C839 H819 0.950 . S
C839 C835 1.385 . S
C839 C838 1.374 . S
C840 C837 1.499 . S
C840 C841 1.373 . S
C840 C842 1.389 . S
C841 H820 0.950 . S
C841 C840 1.373 . S
C841 C857 1.377 . S
C842 C840 1.389 . S
C842 C843 1.524 . S
C842 C856 1.377 . S
C843 C842 1.524 . S
C843 C844 1.397 . S
C843 C848 1.363 . S
C844 H821 0.950 . S
C844 C843 1.397 . S
C844 C845 1.334 . S
C845 H822 0.950 . S
C845 C844 1.334 . S
C845 C846 1.287 . S
C846 C845 1.287 . S
C846 C847 1.524 . S
C846 H865 0.913 . S
C847 H823 0.950 . S
C847 C846 1.524 . S
C847 C848 1.415 . S
C848 H824 0.950 . S
C848 C843 1.363 . S
C848 C847 1.415 . S
C849 H825 0.951 . S
C849 C850 1.366 . S
C849 C851 1.388 . S
C850 C849 1.366 . S
C850 C854 1.385 . S
C851 H826 0.951 . S
C851 C849 1.388 . S
C851 C852 1.366 . S
C852 C851 1.366 . S
C852 C853 1.414 . S
C852 C855 1.499 . S
C853 H827 0.950 . S
C853 C852 1.414 . S
C853 C854 1.374 . S
C854 H828 0.950 . S
C854 C850 1.385 . S
C854 C853 1.374 . S
C855 C852 1.499 . S
C855 C856 1.373 . S
C855 C857 1.389 . S
C856 H829 0.950 . S
C856 C842 1.377 . S
C856 C855 1.373 . S
C857 C841 1.377 . S
C857 C855 1.389 . S
C857 C858 1.524 . S
C858 C857 1.524 . S
C858 C859 1.397 . S
C858 C863 1.363 . S
C859 H830 0.950 . S
C859 C858 1.397 . S
C859 C860 1.334 . S
C860 H831 0.950 . S
C860 C859 1.334 . S
C860 C861 1.287 . S
C861 C860 1.287 . S
C861 C862 1.524 . S
C861 H864 0.999 . S
C862 H832 0.950 . S
C862 C861 1.524 . S
C862 C863 1.415 . S
C863 H833 0.950 . S
C863 C858 1.363 . S
C863 C862 1.415 . S
H864 C861 0.999 . S
H865 C846 0.913 . S
H866 C884 0.951 . S
H867 C886 0.951 . S
H868 C888 0.950 . S
H869 C889 0.950 . S
H870 C891 0.950 . S
H871 C894 0.950 . S
H872 C895 0.950 . S
H873 C897 0.950 . S
H874 C898 0.950 . S
H875 C899 0.951 . S
H876 C901 0.951 . S
H877 C903 0.950 . S
H878 C904 0.983 . S
H879 C906 0.950 . S
H880 C909 0.950 . S
H881 C910 0.950 . S
H882 C912 0.950 . S
H883 C913 0.950 . S
C884 H866 0.951 . S
C884 C885 1.366 . S
C884 C886 1.388 . S
C885 C884 1.366 . S
C885 C889 1.385 . S
C886 H867 0.951 . S
C886 C884 1.388 . S
C886 C887 1.366 . S
C887 C886 1.366 . S
C887 C888 1.414 . S
C887 C890 1.499 . S
C888 H868 0.950 . S
C888 C887 1.414 . S
C888 C889 1.374 . S
C889 H869 0.950 . S
C889 C885 1.385 . S
C889 C888 1.374 . S
C890 C887 1.499 . S
C890 C891 1.373 . S
C890 C892 1.389 . S
C891 H870 0.950 . S
C891 C890 1.373 . S
C891 C907 1.377 . S
C892 C890 1.389 . S
C892 C893 1.524 . S
C892 C906 1.377 . S
C893 C892 1.524 . S
C893 C894 1.397 . S
C893 C898 1.363 . S
C894 H871 0.950 . S
C894 C893 1.397 . S
C894 C895 1.334 . S
C895 H872 0.950 . S
C895 C894 1.334 . S
C895 C896 1.287 . S
C896 C895 1.287 . S
C896 C897 1.524 . S
C896 H915 0.913 . S
C897 H873 0.950 . S
C897 C896 1.524 . S
C897 C898 1.415 . S
C898 H874 0.950 . S
C898 C893 1.363 . S
C898 C897 1.415 . S
C899 H875 0.951 . S
C899 C900 1.366 . S
C899 C901 1.388 . S
C900 C899 1.366 . S
C900 C904 1.385 . S
C901 H876 0.951 . S
C901 C899 1.388 . S
C901 C902 1.366 . S
C902 C901 1.366 . S
C902 C903 1.414 . S
C902 C905 1.499 . S
C903 H877 0.950 . S
C903 C902 1.414 . S
C903 C904 1.374 . S
C904 H878 0.983 . S
C904 C900 1.385 . S
C904 C903 1.374 . S
C905 C902 1.499 . S
C905 C906 1.373 . S
C905 C907 1.389 . S
C906 H879 0.950 . S
C906 C892 1.377 . S
C906 C905 1.373 . S
C907 C891 1.377 . S
C907 C905 1.389 . S
C907 C908 1.524 . S
C908 C907 1.524 . S
C908 C909 1.397 . S
C908 C913 1.363 . S
C909 H880 0.950 . S
C909 C908 1.397 . S
C909 C910 1.334 . S
C910 H881 0.950 . S
C910 C909 1.334 . S
C910 C911 1.287 . S
C911 C910 1.287 . S
C911 C912 1.524 . S
C911 H914 0.999 1_545 S
C912 H882 0.950 . S
C912 C911 1.524 . S
C912 C913 1.415 . S
C913 H883 0.950 . S
C913 C908 1.363 . S
C913 C912 1.415 . S
H914 C911 0.999 1_565 S
H915 C896 0.913 . S
H916 C934 0.951 . S
H917 C936 0.951 . S
H918 C938 0.950 . S
H919 C939 0.950 . S
H920 C941 0.950 . S
H921 C944 0.950 . S
H922 C945 0.950 . S
H923 C947 0.950 . S
H924 C948 0.950 . S
H925 C949 0.951 . S
H926 C951 0.951 . S
H927 C953 0.950 . S
H928 C954 0.950 . S
H929 C956 0.950 . S
H930 C959 0.950 . S
H931 C960 0.950 . S
H932 C962 0.950 . S
H933 C963 0.950 . S
C934 H916 0.951 . S
C934 C935 1.366 . S
C934 C936 1.388 . S
C935 C934 1.366 . S
C935 C939 1.385 . S
C936 H917 0.951 . S
C936 C934 1.388 . S
C936 C937 1.366 . S
C937 C936 1.366 . S
C937 C938 1.414 . S
C937 C940 1.499 . S
C938 H918 0.950 . S
C938 C937 1.414 . S
C938 C939 1.374 . S
C939 H919 0.950 . S
C939 C935 1.385 . S
C939 C938 1.374 . S
C940 C937 1.499 . S
C940 C941 1.373 . S
C940 C942 1.389 . S
C941 H920 0.950 . S
C941 C940 1.373 . S
C941 C957 1.377 . S
C942 C940 1.389 . S
C942 C943 1.524 . S
C942 C956 1.377 . S
C943 C942 1.524 . S
C943 C944 1.397 . S
C943 C948 1.363 . S
C944 H921 0.950 . S
C944 C943 1.397 . S
C944 C945 1.334 . S
C945 H922 0.950 . S
C945 C944 1.334 . S
C945 C946 1.287 . S
C946 C945 1.287 . S
C946 C947 1.524 . S
C946 H965 0.913 . S
C947 H923 0.950 . S
C947 C946 1.524 . S
C947 C948 1.415 . S
C948 H924 0.950 . S
C948 C943 1.363 . S
C948 C947 1.415 . S
C949 H925 0.951 . S
C949 C950 1.366 . S
C949 C951 1.388 . S
C950 C949 1.366 . S
C950 C954 1.385 . S
C951 H926 0.951 . S
C951 C949 1.388 . S
C951 C952 1.366 . S
C952 C951 1.366 . S
C952 C953 1.414 . S
C952 C955 1.499 . S
C953 H927 0.950 . S
C953 C952 1.414 . S
C953 C954 1.374 . S
C954 H928 0.950 . S
C954 C950 1.385 . S
C954 C953 1.374 . S
C955 C952 1.499 . S
C955 C956 1.373 . S
C955 C957 1.389 . S
C956 H929 0.950 . S
C956 C942 1.377 . S
C956 C955 1.373 . S
C957 C941 1.377 . S
C957 C955 1.389 . S
C957 C958 1.524 . S
C958 C957 1.524 . S
C958 C959 1.397 . S
C958 C963 1.363 . S
C959 H930 0.950 . S
C959 C958 1.397 . S
C959 C960 1.334 . S
C960 H931 0.950 . S
C960 C959 1.334 . S
C960 C961 1.287 . S
C961 C960 1.287 . S
C961 C962 1.524 . S
C961 H964 0.999 . S
C962 H932 0.950 . S
C962 C961 1.524 . S
C962 C963 1.415 . S
C963 H933 0.950 . S
C963 C958 1.363 . S
C963 C962 1.415 . S
H964 C961 0.999 . S
H965 C946 0.913 . S
H966 C984 0.951 . S
H967 C986 0.951 . S
H968 C988 0.950 . S
H969 C989 0.950 . S
H970 C991 0.950 . S
H971 C994 0.950 . S
H972 C995 0.950 . S
H973 C997 0.950 . S
H974 C998 0.950 . S
H975 C999 0.951 . S
H976 C1001 0.951 . S
H977 C1003 0.950 . S
H978 C1004 0.950 . S
H979 C1006 0.950 . S
H980 C1009 0.950 . S
H981 C1010 0.950 . S
H982 C1012 0.950 . S
H983 C1013 0.950 . S
C984 H966 0.951 . S
C984 C985 1.366 . S
C984 C986 1.388 . S
C985 C984 1.366 . S
C985 C989 1.385 . S
C986 H967 0.951 . S
C986 C984 1.388 . S
C986 C987 1.366 . S
C987 C986 1.366 . S
C987 C988 1.414 . S
C987 C990 1.499 . S
C988 H968 0.950 . S
C988 C987 1.414 . S
C988 C989 1.374 . S
C989 H969 0.950 . S
C989 C985 1.385 . S
C989 C988 1.374 . S
C990 C987 1.499 . S
C990 C991 1.373 . S
C990 C992 1.389 . S
C991 H970 0.950 . S
C991 C990 1.373 . S
C991 C1007 1.377 . S
C992 C990 1.389 . S
C992 C993 1.524 . S
C992 C1006 1.377 . S
C993 C992 1.524 . S
C993 C994 1.397 . S
C993 C998 1.363 . S
C994 H971 0.950 . S
C994 C993 1.397 . S
C994 C995 1.334 . S
C995 H972 0.950 . S
C995 C994 1.334 . S
C995 C996 1.287 . S
C996 C995 1.287 . S
C996 C997 1.524 . S
C996 H1015 0.913 . S
C997 H973 0.950 . S
C997 C996 1.524 . S
C997 C998 1.415 . S
C998 H974 0.950 . S
C998 C993 1.363 . S
C998 C997 1.415 . S
C999 H975 0.951 . S
C999 C1000 1.366 . S
C999 C1001 1.388 . S
C1000 C999 1.366 . S
C1000 C1004 1.385 . S
C1001 H976 0.951 . S
C1001 C999 1.388 . S
C1001 C1002 1.366 . S
C1002 C1001 1.366 . S
C1002 C1003 1.414 . S
C1002 C1005 1.499 . S
C1003 H977 0.950 . S
C1003 C1002 1.414 . S
C1003 C1004 1.374 . S
C1004 H978 0.950 . S
C1004 C1000 1.385 . S
C1004 C1003 1.374 . S
C1005 C1002 1.499 . S
C1005 C1006 1.373 . S
C1005 C1007 1.389 . S
C1006 H979 0.950 . S
C1006 C992 1.377 . S
C1006 C1005 1.373 . S
C1007 C991 1.377 . S
C1007 C1005 1.389 . S
C1007 C1008 1.524 . S
C1008 C1007 1.524 . S
C1008 C1009 1.397 . S
C1008 C1013 1.363 . S
C1009 H980 0.950 . S
C1009 C1008 1.397 . S
C1009 C1010 1.334 . S
C1010 H981 0.950 . S
C1010 C1009 1.334 . S
C1010 C1011 1.287 . S
C1011 C1010 1.287 . S
C1011 C1012 1.524 . S
C1011 H1014 0.999 . S
C1012 H982 0.950 . S
C1012 C1011 1.524 . S
C1012 C1013 1.415 . S
C1013 H983 0.950 . S
C1013 C1008 1.363 . S
C1013 C1012 1.415 . S
H1014 C1011 0.999 . S
H1015 C996 0.913 . S
H1016 C1034 0.951 . S
H1017 C1036 0.951 . S
H1018 C1038 0.950 . S
H1019 C1039 0.950 . S
H1020 C1041 0.950 . S
H1021 C1044 0.950 . S
H1022 C1045 0.950 . S
H1023 C1047 0.950 . S
H1024 C1048 0.950 . S
H1025 C1049 0.951 . S
H1026 C1051 0.951 . S
H1027 C1053 0.950 . S
H1028 C1054 0.950 . S
H1029 C1056 0.950 . S
H1030 C1059 0.950 . S
H1031 C1060 0.950 . S
H1032 C1062 0.950 . S
H1033 C1063 0.950 . S
C1034 H1016 0.951 . S
C1034 C1035 1.366 . S
C1034 C1036 1.388 . S
C1035 C1034 1.366 . S
C1035 C1039 1.385 . S
C1036 H1017 0.951 . S
C1036 C1034 1.388 . S
C1036 C1037 1.366 . S
C1037 C1036 1.366 . S
C1037 C1038 1.414 . S
C1037 C1040 1.499 . S
C1038 H1018 0.950 . S
C1038 C1037 1.414 . S
C1038 C1039 1.374 . S
C1039 H1019 0.950 . S
C1039 C1035 1.385 . S
C1039 C1038 1.374 . S
C1040 C1037 1.499 . S
C1040 C1041 1.373 . S
C1040 C1042 1.389 . S
C1041 H1020 0.950 . S
C1041 C1040 1.373 . S
C1041 C1057 1.377 . S
C1042 C1040 1.389 . S
C1042 C1043 1.524 . S
C1042 C1056 1.377 . S
C1043 C1042 1.524 . S
C1043 C1044 1.397 . S
C1043 C1048 1.363 . S
C1044 H1021 0.950 . S
C1044 C1043 1.397 . S
C1044 C1045 1.334 . S
C1045 H1022 0.950 . S
C1045 C1044 1.334 . S
C1045 C1046 1.287 . S
C1046 C1045 1.287 . S
C1046 C1047 1.524 . S
C1046 H1065 0.913 . S
C1047 H1023 0.950 . S
C1047 C1046 1.524 . S
C1047 C1048 1.415 . S
C1048 H1024 0.950 . S
C1048 C1043 1.363 . S
C1048 C1047 1.415 . S
C1049 H1025 0.951 . S
C1049 C1050 1.366 . S
C1049 C1051 1.388 . S
C1050 C1049 1.366 . S
C1050 C1054 1.385 . S
C1051 H1026 0.951 . S
C1051 C1049 1.388 . S
C1051 C1052 1.366 . S
C1052 C1051 1.366 . S
C1052 C1053 1.414 . S
C1052 C1055 1.499 . S
C1053 H1027 0.950 . S
C1053 C1052 1.414 . S
C1053 C1054 1.374 . S
C1054 H1028 0.950 . S
C1054 C1050 1.385 . S
C1054 C1053 1.374 . S
C1055 C1052 1.499 . S
C1055 C1056 1.373 . S
C1055 C1057 1.389 . S
C1056 H1029 0.950 . S
C1056 C1042 1.377 . S
C1056 C1055 1.373 . S
C1057 C1041 1.377 . S
C1057 C1055 1.389 . S
C1057 C1058 1.524 . S
C1058 C1057 1.524 . S
C1058 C1059 1.397 . S
C1058 C1063 1.363 . S
C1059 H1030 0.950 . S
C1059 C1058 1.397 . S
C1059 C1060 1.334 . S
C1060 H1031 0.950 . S
C1060 C1059 1.334 . S
C1060 C1061 1.287 . S
C1061 C1060 1.287 . S
C1061 C1062 1.524 . S
C1061 H1064 0.999 . S
C1062 H1032 0.950 . S
C1062 C1061 1.524 . S
C1062 C1063 1.415 . S
C1063 H1033 0.950 . S
C1063 C1058 1.363 . S
C1063 C1062 1.415 . S
H1064 C1061 0.999 . S
H1065 C1046 0.913 . S
H1066 C1084 0.951 . S
H1067 C1086 0.951 . S
H1068 C1088 0.950 . S
H1069 C1089 0.950 . S
H1070 C1091 0.950 . S
H1071 C1094 0.950 . S
H1072 C1095 0.950 . S
H1073 C1097 0.950 . S
H1074 C1098 0.950 . S
H1075 C1099 0.951 . S
H1076 C1101 0.951 . S
H1077 C1103 0.950 . S
H1078 C1104 0.950 . S
H1079 C1106 0.950 . S
H1080 C1109 0.950 . S
H1081 C1110 0.950 . S
H1082 C1112 0.950 . S
H1083 C1113 0.950 . S
C1084 H1066 0.951 . S
C1084 C1085 1.366 . S
C1084 C1086 1.388 . S
C1085 C1084 1.366 . S
C1085 C1089 1.385 . S
C1086 H1067 0.951 . S
C1086 C1084 1.388 . S
C1086 C1087 1.366 . S
C1087 C1086 1.366 . S
C1087 C1088 1.414 . S
C1087 C1090 1.499 . S
C1088 H1068 0.950 . S
C1088 C1087 1.414 . S
C1088 C1089 1.374 . S
C1089 H1069 0.950 . S
C1089 C1085 1.385 . S
C1089 C1088 1.374 . S
C1090 C1087 1.499 . S
C1090 C1091 1.373 . S
C1090 C1092 1.389 . S
C1091 H1070 0.950 . S
C1091 C1090 1.373 . S
C1091 C1107 1.377 . S
C1092 C1090 1.389 . S
C1092 C1093 1.524 . S
C1092 C1106 1.377 . S
C1093 C1092 1.524 . S
C1093 C1094 1.397 . S
C1093 C1098 1.363 . S
C1094 H1071 0.950 . S
C1094 C1093 1.397 . S
C1094 C1095 1.334 . S
C1095 H1072 0.950 . S
C1095 C1094 1.334 . S
C1095 C1096 1.287 . S
C1096 C1095 1.287 . S
C1096 C1097 1.524 . S
C1096 H1115 0.913 . S
C1097 H1073 0.950 . S
C1097 C1096 1.524 . S
C1097 C1098 1.415 . S
C1098 H1074 0.950 . S
C1098 C1093 1.363 . S
C1098 C1097 1.415 . S
C1099 H1075 0.951 . S
C1099 C1100 1.366 . S
C1099 C1101 1.388 . S
C1100 C1099 1.366 . S
C1100 C1104 1.385 . S
C1101 H1076 0.951 . S
C1101 C1099 1.388 . S
C1101 C1102 1.366 . S
C1102 C1101 1.366 . S
C1102 C1103 1.414 . S
C1102 C1105 1.499 . S
C1103 H1077 0.950 . S
C1103 C1102 1.414 . S
C1103 C1104 1.374 . S
C1104 H1078 0.950 . S
C1104 C1100 1.385 . S
C1104 C1103 1.374 . S
C1105 C1102 1.499 . S
C1105 C1106 1.373 . S
C1105 C1107 1.389 . S
C1106 H1079 0.950 . S
C1106 C1092 1.377 . S
C1106 C1105 1.373 . S
C1107 C1091 1.377 . S
C1107 C1105 1.389 . S
C1107 C1108 1.524 . S
C1108 C1107 1.524 . S
C1108 C1109 1.397 . S
C1108 C1113 1.363 . S
C1109 H1080 0.950 . S
C1109 C1108 1.397 . S
C1109 C1110 1.334 . S
C1110 H1081 0.950 . S
C1110 C1109 1.334 . S
C1110 C1111 1.287 . S
C1111 C1110 1.287 . S
C1111 C1112 1.524 . S
C1111 H1114 0.999 . S
C1112 H1082 0.950 . S
C1112 C1111 1.524 . S
C1112 C1113 1.415 . S
C1113 H1083 0.950 . S
C1113 C1108 1.363 . S
C1113 C1112 1.415 . S
H1114 C1111 0.999 . S
H1115 C1096 0.913 . S
H1116 C1134 0.951 . S
H1117 C1136 0.951 . S
H1118 C1138 0.950 . S
H1119 C1139 0.950 . S
H1120 C1141 0.950 . S
H1121 C1144 0.950 . S
H1122 C1145 0.950 . S
H1123 C1147 0.950 . S
H1124 C1148 0.950 . S
H1125 C1149 0.951 . S
H1126 C1151 0.951 . S
H1127 C1153 0.950 . S
H1128 C1154 0.950 . S
H1129 C1156 0.950 . S
H1130 C1159 0.950 . S
H1131 C1160 0.950 . S
H1132 C1162 0.950 . S
H1133 C1163 0.950 . S
C1134 H1116 0.951 . S
C1134 C1135 1.366 . S
C1134 C1136 1.388 . S
C1135 C1134 1.366 . S
C1135 C1139 1.385 . S
C1136 H1117 0.951 . S
C1136 C1134 1.388 . S
C1136 C1137 1.366 . S
C1137 C1136 1.366 . S
C1137 C1138 1.414 . S
C1137 C1140 1.499 . S
C1138 H1118 0.950 . S
C1138 C1137 1.414 . S
C1138 C1139 1.374 . S
C1139 H1119 0.950 . S
C1139 C1135 1.385 . S
C1139 C1138 1.374 . S
C1140 C1137 1.499 . S
C1140 C1141 1.373 . S
C1140 C1142 1.389 . S
C1141 H1120 0.950 . S
C1141 C1140 1.373 . S
C1141 C1157 1.377 . S
C1142 C1140 1.389 . S
C1142 C1143 1.524 . S
C1142 C1156 1.377 . S
C1143 C1142 1.524 . S
C1143 C1144 1.397 . S
C1143 C1148 1.363 . S
C1144 H1121 0.950 . S
C1144 C1143 1.397 . S
C1144 C1145 1.334 . S
C1145 H1122 0.950 . S
C1145 C1144 1.334 . S
C1145 C1146 1.287 . S
C1146 C1145 1.287 . S
C1146 C1147 1.524 . S
C1146 H1165 0.913 . S
C1147 H1123 0.950 . S
C1147 C1146 1.524 . S
C1147 C1148 1.415 . S
C1148 H1124 0.950 . S
C1148 C1143 1.363 . S
C1148 C1147 1.415 . S
C1149 H1125 0.951 . S
C1149 C1150 1.366 . S
C1149 C1151 1.388 . S
C1150 C1149 1.366 . S
C1150 C1154 1.385 . S
C1151 H1126 0.951 . S
C1151 C1149 1.388 . S
C1151 C1152 1.366 . S
C1152 C1151 1.366 . S
C1152 C1153 1.414 . S
C1152 C1155 1.499 . S
C1153 H1127 0.950 . S
C1153 C1152 1.414 . S
C1153 C1154 1.374 . S
C1154 H1128 0.950 . S
C1154 C1150 1.385 . S
C1154 C1153 1.374 . S
C1155 C1152 1.499 . S
C1155 C1156 1.373 . S
C1155 C1157 1.389 . S
C1156 H1129 0.950 . S
C1156 C1142 1.377 . S
C1156 C1155 1.373 . S
C1157 C1141 1.377 . S
C1157 C1155 1.389 . S
C1157 C1158 1.524 . S
C1158 C1157 1.524 . S
C1158 C1159 1.397 . S
C1158 C1163 1.363 . S
C1159 H1130 0.950 . S
C1159 C1158 1.397 . S
C1159 C1160 1.334 . S
C1160 H1131 0.950 . S
C1160 C1159 1.334 . S
C1160 C1161 1.287 . S
C1161 C1160 1.287 . S
C1161 C1162 1.524 . S
C1161 H1164 0.999 . S
C1162 H1132 0.950 . S
C1162 C1161 1.524 . S
C1162 C1163 1.415 . S
C1163 H1133 0.950 . S
C1163 C1158 1.363 . S
C1163 C1162 1.415 . S
H1164 C1161 0.999 . S
H1165 C1146 0.913 . S
H1166 C1184 0.951 . S
H1167 C1186 0.951 . S
H1168 C1188 0.950 . S
H1169 C1189 0.950 . S
H1170 C1191 0.950 . S
H1171 C1194 0.950 . S
H1172 C1195 0.950 . S
H1173 C1197 0.950 . S
H1174 C1198 0.950 . S
H1175 C1199 0.951 . S
H1176 C1201 0.951 . S
H1177 C1203 0.950 . S
H1178 C1204 0.950 . S
H1179 C1206 0.950 . S
H1180 C1209 0.950 . S
H1181 C1210 0.950 . S
H1182 C1212 0.950 . S
H1183 C1213 0.950 . S
C1184 H1166 0.951 . S
C1184 C1185 1.366 . S
C1184 C1186 1.388 . S
C1185 C1184 1.366 . S
C1185 C1189 1.385 . S
C1186 H1167 0.951 . S
C1186 C1184 1.388 . S
C1186 C1187 1.366 . S
C1187 C1186 1.366 . S
C1187 C1188 1.414 . S
C1187 C1190 1.499 . S
C1188 H1168 0.950 . S
C1188 C1187 1.414 . S
C1188 C1189 1.374 . S
C1189 H1169 0.950 . S
C1189 C1185 1.385 . S
C1189 C1188 1.374 . S
C1190 C1187 1.499 . S
C1190 C1191 1.373 . S
C1190 C1192 1.389 . S
C1191 H1170 0.950 . S
C1191 C1190 1.373 . S
C1191 C1207 1.377 . S
C1192 C1190 1.389 . S
C1192 C1193 1.524 . S
C1192 C1206 1.377 . S
C1193 C1192 1.524 . S
C1193 C1194 1.397 . S
C1193 C1198 1.363 . S
C1194 H1171 0.950 . S
C1194 C1193 1.397 . S
C1194 C1195 1.334 . S
C1195 H1172 0.950 . S
C1195 C1194 1.334 . S
C1195 C1196 1.287 . S
C1196 C1195 1.287 . S
C1196 C1197 1.524 . S
C1196 H1215 0.913 . S
C1197 H1173 0.950 . S
C1197 C1196 1.524 . S
C1197 C1198 1.415 . S
C1198 H1174 0.950 . S
C1198 C1193 1.363 . S
C1198 C1197 1.415 . S
C1199 H1175 0.951 . S
C1199 C1200 1.366 . S
C1199 C1201 1.388 . S
C1200 C1199 1.366 . S
C1200 C1204 1.385 . S
C1201 H1176 0.951 . S
C1201 C1199 1.388 . S
C1201 C1202 1.366 . S
C1202 C1201 1.366 . S
C1202 C1203 1.414 . S
C1202 C1205 1.499 . S
C1203 H1177 0.950 . S
C1203 C1202 1.414 . S
C1203 C1204 1.374 . S
C1204 H1178 0.950 . S
C1204 C1200 1.385 . S
C1204 C1203 1.374 . S
C1205 C1202 1.499 . S
C1205 C1206 1.373 . S
C1205 C1207 1.389 . S
C1206 H1179 0.950 . S
C1206 C1192 1.377 . S
C1206 C1205 1.373 . S
C1207 C1191 1.377 . S
C1207 C1205 1.389 . S
C1207 C1208 1.524 . S
C1208 C1207 1.524 . S
C1208 C1209 1.397 . S
C1208 C1213 1.363 . S
C1209 H1180 0.950 . S
C1209 C1208 1.397 . S
C1209 C1210 1.334 . S
C1210 H1181 0.950 . S
C1210 C1209 1.334 . S
C1210 C1211 1.287 . S
C1211 C1210 1.287 . S
C1211 C1212 1.524 . S
C1211 H1214 0.999 1_565 S
C1212 H1182 0.950 . S
C1212 C1211 1.524 . S
C1212 C1213 1.415 . S
C1213 H1183 0.950 . S
C1213 C1208 1.363 . S
C1213 C1212 1.415 . S
H1214 C1211 0.999 1_545 S
H1215 C1196 0.913 . S
H1216 C1234 0.951 . S
H1217 C1236 0.951 . S
H1218 C1238 0.950 . S
H1219 C1239 0.950 . S
H1220 C1241 0.950 . S
H1221 C1244 0.950 . S
H1222 C1245 0.950 . S
H1223 C1247 0.950 . S
H1224 C1248 0.950 . S
H1225 C1249 0.951 . S
H1226 C1251 0.951 . S
H1227 C1253 0.950 . S
H1228 C1254 0.950 . S
H1229 C1256 0.950 . S
H1230 C1259 0.950 . S
H1231 C1260 0.950 . S
H1232 C1262 0.950 . S
H1233 C1263 0.950 . S
C1234 H1216 0.951 . S
C1234 C1235 1.366 . S
C1234 C1236 1.388 . S
C1235 C1234 1.366 . S
C1235 C1239 1.385 . S
C1236 H1217 0.951 . S
C1236 C1234 1.388 . S
C1236 C1237 1.366 . S
C1237 C1236 1.366 . S
C1237 C1238 1.414 . S
C1237 C1240 1.499 . S
C1238 H1218 0.950 . S
C1238 C1237 1.414 . S
C1238 C1239 1.374 . S
C1239 H1219 0.950 . S
C1239 C1235 1.385 . S
C1239 C1238 1.374 . S
C1240 C1237 1.499 . S
C1240 C1241 1.373 . S
C1240 C1242 1.389 . S
C1241 H1220 0.950 . S
C1241 C1240 1.373 . S
C1241 C1257 1.377 . S
C1242 C1240 1.389 . S
C1242 C1243 1.524 . S
C1242 C1256 1.377 . S
C1243 C1242 1.524 . S
C1243 C1244 1.397 . S
C1243 C1248 1.363 . S
C1244 H1221 0.950 . S
C1244 C1243 1.397 . S
C1244 C1245 1.334 . S
C1245 H1222 0.950 . S
C1245 C1244 1.334 . S
C1245 C1246 1.287 . S
C1246 C1245 1.287 . S
C1246 C1247 1.524 . S
C1246 H1265 0.913 . S
C1247 H1223 0.950 . S
C1247 C1246 1.524 . S
C1247 C1248 1.415 . S
C1248 H1224 0.950 . S
C1248 C1243 1.363 . S
C1248 C1247 1.415 . S
C1249 H1225 0.951 . S
C1249 C1250 1.366 . S
C1249 C1251 1.388 . S
C1250 C1249 1.366 . S
C1250 C1254 1.385 . S
C1251 H1226 0.951 . S
C1251 C1249 1.388 . S
C1251 C1252 1.366 . S
C1252 C1251 1.366 . S
C1252 C1253 1.414 . S
C1252 C1255 1.499 . S
C1253 H1227 0.950 . S
C1253 C1252 1.414 . S
C1253 C1254 1.374 . S
C1254 H1228 0.950 . S
C1254 C1250 1.385 . S
C1254 C1253 1.374 . S
C1255 C1252 1.499 . S
C1255 C1256 1.373 . S
C1255 C1257 1.389 . S
C1256 H1229 0.950 . S
C1256 C1242 1.377 . S
C1256 C1255 1.373 . S
C1257 C1241 1.377 . S
C1257 C1255 1.389 . S
C1257 C1258 1.524 . S
C1258 C1257 1.524 . S
C1258 C1259 1.397 . S
C1258 C1263 1.363 . S
C1259 H1230 0.950 . S
C1259 C1258 1.397 . S
C1259 C1260 1.334 . S
C1260 H1231 0.950 . S
C1260 C1259 1.334 . S
C1260 C1261 1.287 . S
C1261 C1260 1.287 . S
C1261 C1262 1.524 . S
C1261 H1264 0.999 . S
C1262 H1232 0.950 . S
C1262 C1261 1.524 . S
C1262 C1263 1.415 . S
C1263 H1233 0.950 . S
C1263 C1258 1.363 . S
C1263 C1262 1.415 . S
H1264 C1261 0.999 . S
H1265 C1246 0.913 . S
H1266 C1284 0.951 . S
H1267 C1286 0.951 . S
H1268 C1288 0.950 . S
H1269 C1289 0.950 . S
H1270 C1291 0.950 . S
H1271 C1294 0.950 . S
H1272 C1295 0.950 . S
H1273 C1297 0.950 . S
H1274 C1298 0.950 . S
H1275 C1299 0.951 . S
H1276 C1301 0.951 . S
H1277 C1303 0.950 . S
H1278 C1304 0.950 . S
H1279 C1306 0.950 . S
H1280 C1309 0.950 . S
H1281 C1310 0.950 . S
H1282 C1312 0.950 . S
H1283 C1313 0.950 . S
C1284 H1266 0.951 . S
C1284 C1285 1.366 . S
C1284 C1286 1.388 . S
C1285 C1284 1.366 . S
C1285 C1289 1.385 . S
C1286 H1267 0.951 . S
C1286 C1284 1.388 . S
C1286 C1287 1.366 . S
C1287 C1286 1.366 . S
C1287 C1288 1.414 . S
C1287 C1290 1.499 . S
C1288 H1268 0.950 . S
C1288 C1287 1.414 . S
C1288 C1289 1.374 . S
C1289 H1269 0.950 . S
C1289 C1285 1.385 . S
C1289 C1288 1.374 . S
C1290 C1287 1.499 . S
C1290 C1291 1.373 . S
C1290 C1292 1.389 . S
C1291 H1270 0.950 . S
C1291 C1290 1.373 . S
C1291 C1307 1.377 . S
C1292 C1290 1.389 . S
C1292 C1293 1.524 . S
C1292 C1306 1.377 . S
C1293 C1292 1.524 . S
C1293 C1294 1.397 . S
C1293 C1298 1.363 . S
C1294 H1271 0.950 . S
C1294 C1293 1.397 . S
C1294 C1295 1.334 . S
C1295 H1272 0.950 . S
C1295 C1294 1.334 . S
C1295 C1296 1.287 . S
C1296 C1295 1.287 . S
C1296 C1297 1.524 . S
C1296 H1315 0.913 . S
C1297 H1273 0.950 . S
C1297 C1296 1.524 . S
C1297 C1298 1.415 . S
C1298 H1274 0.950 . S
C1298 C1293 1.363 . S
C1298 C1297 1.415 . S
C1299 H1275 0.951 . S
C1299 C1300 1.366 . S
C1299 C1301 1.388 . S
C1300 C1299 1.366 . S
C1300 C1304 1.385 . S
C1301 H1276 0.951 . S
C1301 C1299 1.388 . S
C1301 C1302 1.366 . S
C1302 C1301 1.366 . S
C1302 C1303 1.414 . S
C1302 C1305 1.499 . S
C1303 H1277 0.950 . S
C1303 C1302 1.414 . S
C1303 C1304 1.374 . S
C1304 H1278 0.950 . S
C1304 C1300 1.385 . S
C1304 C1303 1.374 . S
C1305 C1302 1.499 . S
C1305 C1306 1.373 . S
C1305 C1307 1.389 . S
C1306 H1279 0.950 . S
C1306 C1292 1.377 . S
C1306 C1305 1.373 . S
C1307 C1291 1.377 . S
C1307 C1305 1.389 . S
C1307 C1308 1.524 . S
C1308 C1307 1.524 . S
C1308 C1309 1.397 . S
C1308 C1313 1.363 . S
C1309 H1280 0.950 . S
C1309 C1308 1.397 . S
C1309 C1310 1.334 . S
C1310 H1281 0.950 . S
C1310 C1309 1.334 . S
C1310 C1311 1.287 . S
C1311 C1310 1.287 . S
C1311 C1312 1.524 . S
C1311 H1314 0.999 . S
C1312 H1282 0.950 . S
C1312 C1311 1.524 . S
C1312 C1313 1.415 . S
C1313 H1283 0.950 . S
C1313 C1308 1.363 . S
C1313 C1312 1.415 . S
H1314 C1311 0.999 . S
H1315 C1296 0.913 . S
H1316 C1334 0.951 . S
H1317 C1336 0.951 . S
H1318 C1338 0.950 . S
H1319 C1339 0.950 . S
H1320 C1341 0.950 . S
H1321 C1344 0.950 . S
H1322 C1345 0.950 . S
H1323 C1347 0.950 . S
H1324 C1348 0.950 . S
H1325 C1349 0.951 . S
H1326 C1351 0.951 . S
H1327 C1353 0.950 . S
H1328 C1354 0.950 . S
H1329 C1356 0.950 . S
H1330 C1359 0.950 . S
H1331 C1360 0.950 . S
H1332 C1362 0.950 . S
H1333 C1363 0.950 . S
C1334 H1316 0.951 . S
C1334 C1335 1.366 . S
C1334 C1336 1.388 . S
C1335 C1334 1.366 . S
C1335 C1339 1.385 . S
C1336 H1317 0.951 . S
C1336 C1334 1.388 . S
C1336 C1337 1.366 . S
C1337 C1336 1.366 . S
C1337 C1338 1.414 . S
C1337 C1340 1.499 . S
C1338 H1318 0.950 . S
C1338 C1337 1.414 . S
C1338 C1339 1.374 . S
C1339 H1319 0.950 . S
C1339 C1335 1.385 . S
C1339 C1338 1.374 . S
C1340 C1337 1.499 . S
C1340 C1341 1.373 . S
C1340 C1342 1.389 . S
C1341 H1320 0.950 . S
C1341 C1340 1.373 . S
C1341 C1357 1.377 . S
C1342 C1340 1.389 . S
C1342 C1343 1.524 . S
C1342 C1356 1.377 . S
C1343 C1342 1.524 . S
C1343 C1344 1.397 . S
C1343 C1348 1.363 . S
C1344 H1321 0.950 . S
C1344 C1343 1.397 . S
C1344 C1345 1.334 . S
C1345 H1322 0.950 . S
C1345 C1344 1.334 . S
C1345 C1346 1.287 . S
C1346 C1345 1.287 . S
C1346 C1347 1.524 . S
C1346 H1365 0.913 . S
C1347 H1323 0.950 . S
C1347 C1346 1.524 . S
C1347 C1348 1.415 . S
C1348 H1324 0.950 . S
C1348 C1343 1.363 . S
C1348 C1347 1.415 . S
C1349 H1325 0.951 . S
C1349 C1350 1.366 . S
C1349 C1351 1.388 . S
C1350 C1349 1.366 . S
C1350 C1354 1.385 . S
C1351 H1326 0.951 . S
C1351 C1349 1.388 . S
C1351 C1352 1.366 . S
C1352 C1351 1.366 . S
C1352 C1353 1.414 . S
C1352 C1355 1.499 . S
C1353 H1327 0.950 . S
C1353 C1352 1.414 . S
C1353 C1354 1.374 . S
C1354 H1328 0.950 . S
C1354 C1350 1.385 . S
C1354 C1353 1.374 . S
C1355 C1352 1.499 . S
C1355 C1356 1.373 . S
C1355 C1357 1.389 . S
C1356 H1329 0.950 . S
C1356 C1342 1.377 . S
C1356 C1355 1.373 . S
C1357 C1341 1.377 . S
C1357 C1355 1.389 . S
C1357 C1358 1.524 . S
C1358 C1357 1.524 . S
C1358 C1359 1.397 . S
C1358 C1363 1.363 . S
C1359 H1330 0.950 . S
C1359 C1358 1.397 . S
C1359 C1360 1.334 . S
C1360 H1331 0.950 . S
C1360 C1359 1.334 . S
C1360 C1361 1.287 . S
C1361 C1360 1.287 . S
C1361 C1362 1.524 . S
C1361 H1364 0.999 . S
C1362 H1332 0.950 . S
C1362 C1361 1.524 . S
C1362 C1363 1.415 . S
C1363 H1333 0.950 . S
C1363 C1358 1.363 . S
C1363 C1362 1.415 . S
H1364 C1361 0.999 . S
H1365 C1346 0.913 . S
H1366 C1384 0.951 . S
H1367 C1386 0.951 . S
H1368 C1388 0.950 . S
H1369 C1389 0.950 . S
H1370 C1391 0.950 . S
H1371 C1394 0.950 . S
H1372 C1395 0.950 . S
H1373 C1397 0.950 . S
H1374 C1398 0.950 . S
H1375 C1399 0.951 . S
H1376 C1401 0.951 . S
H1377 C1403 0.950 . S
H1378 C1404 0.950 . S
H1379 C1406 0.950 . S
H1380 C1409 0.950 . S
H1381 C1410 0.950 . S
H1382 C1412 0.950 . S
H1383 C1413 0.950 . S
C1384 H1366 0.951 . S
C1384 C1385 1.366 . S
C1384 C1386 1.388 . S
C1385 C1384 1.366 . S
C1385 C1389 1.385 . S
C1386 H1367 0.951 . S
C1386 C1384 1.388 . S
C1386 C1387 1.366 . S
C1387 C1386 1.366 . S
C1387 C1388 1.414 . S
C1387 C1390 1.499 . S
C1388 H1368 0.950 . S
C1388 C1387 1.414 . S
C1388 C1389 1.374 . S
C1389 H1369 0.950 . S
C1389 C1385 1.385 . S
C1389 C1388 1.374 . S
C1390 C1387 1.499 . S
C1390 C1391 1.373 . S
C1390 C1392 1.389 . S
C1391 H1370 0.950 . S
C1391 C1390 1.373 . S
C1391 C1407 1.377 . S
C1392 C1390 1.389 . S
C1392 C1393 1.524 . S
C1392 C1406 1.377 . S
C1393 C1392 1.524 . S
C1393 C1394 1.397 . S
C1393 C1398 1.363 . S
C1394 H1371 0.950 . S
C1394 C1393 1.397 . S
C1394 C1395 1.334 . S
C1395 H1372 0.950 . S
C1395 C1394 1.334 . S
C1395 C1396 1.287 . S
C1396 C1395 1.287 . S
C1396 C1397 1.524 . S
C1396 H1415 0.913 . S
C1397 H1373 0.950 . S
C1397 C1396 1.524 . S
C1397 C1398 1.415 . S
C1398 H1374 0.950 . S
C1398 C1393 1.363 . S
C1398 C1397 1.415 . S
C1399 H1375 0.951 . S
C1399 C1400 1.366 . S
C1399 C1401 1.388 . S
C1400 C1399 1.366 . S
C1400 C1404 1.385 . S
C1401 H1376 0.951 . S
C1401 C1399 1.388 . S
C1401 C1402 1.366 . S
C1402 C1401 1.366 . S
C1402 C1403 1.414 . S
C1402 C1405 1.499 . S
C1403 H1377 0.950 . S
C1403 C1402 1.414 . S
C1403 C1404 1.374 . S
C1404 H1378 0.950 . S
C1404 C1400 1.385 . S
C1404 C1403 1.374 . S
C1405 C1402 1.499 . S
C1405 C1406 1.373 . S
C1405 C1407 1.389 . S
C1406 H1379 0.950 . S
C1406 C1392 1.377 . S
C1406 C1405 1.373 . S
C1407 C1391 1.377 . S
C1407 C1405 1.389 . S
C1407 C1408 1.524 . S
C1408 C1407 1.524 . S
C1408 C1409 1.397 . S
C1408 C1413 1.363 . S
C1409 H1380 0.950 . S
C1409 C1408 1.397 . S
C1409 C1410 1.334 . S
C1410 H1381 0.950 . S
C1410 C1409 1.334 . S
C1410 C1411 1.287 . S
C1411 C1410 1.287 . S
C1411 C1412 1.524 . S
C1411 H1414 0.999 1_455 S
C1412 H1382 0.950 . S
C1412 C1411 1.524 . S
C1412 C1413 1.415 . S
C1413 H1383 0.950 . S
C1413 C1408 1.363 . S
C1413 C1412 1.415 . S
H1414 C1411 0.999 1_655 S
H1415 C1396 0.913 . S
H1416 C1434 0.951 . S
H1417 C1436 0.951 . S
H1418 C1438 0.950 . S
H1419 C1439 0.950 . S
H1420 C1441 0.950 . S
H1421 C1444 0.950 . S
H1422 C1445 0.950 . S
H1423 C1447 0.950 . S
H1424 C1448 0.950 . S
H1425 C1449 0.951 . S
H1426 C1451 0.951 . S
H1427 C1453 0.950 . S
H1428 C1454 0.950 . S
H1429 C1456 0.950 . S
H1430 C1459 0.950 . S
H1431 C1460 0.950 . S
H1432 C1462 0.950 . S
H1433 C1463 0.950 . S
C1434 H1416 0.951 . S
C1434 C1435 1.366 . S
C1434 C1436 1.388 . S
C1435 C1434 1.366 . S
C1435 C1439 1.385 . S
C1436 H1417 0.951 . S
C1436 C1434 1.388 . S
C1436 C1437 1.366 . S
C1437 C1436 1.366 . S
C1437 C1438 1.414 . S
C1437 C1440 1.499 . S
C1438 H1418 0.950 . S
C1438 C1437 1.414 . S
C1438 C1439 1.374 . S
C1439 H1419 0.950 . S
C1439 C1435 1.385 . S
C1439 C1438 1.374 . S
C1440 C1437 1.499 . S
C1440 C1441 1.373 . S
C1440 C1442 1.389 . S
C1441 H1420 0.950 . S
C1441 C1440 1.373 . S
C1441 C1457 1.377 . S
C1442 C1440 1.389 . S
C1442 C1443 1.524 . S
C1442 C1456 1.377 . S
C1443 C1442 1.524 . S
C1443 C1444 1.397 . S
C1443 C1448 1.363 . S
C1444 H1421 0.950 . S
C1444 C1443 1.397 . S
C1444 C1445 1.334 . S
C1445 H1422 0.950 . S
C1445 C1444 1.334 . S
C1445 C1446 1.287 . S
C1446 C1445 1.287 . S
C1446 C1447 1.524 . S
C1446 H1465 0.913 . S
C1447 H1423 0.950 . S
C1447 C1446 1.524 . S
C1447 C1448 1.415 . S
C1448 H1424 0.950 . S
C1448 C1443 1.363 . S
C1448 C1447 1.415 . S
C1449 H1425 0.951 . S
C1449 C1450 1.366 . S
C1449 C1451 1.388 . S
C1450 C1449 1.366 . S
C1450 C1454 1.385 . S
C1451 H1426 0.951 . S
C1451 C1449 1.388 . S
C1451 C1452 1.366 . S
C1452 C1451 1.366 . S
C1452 C1453 1.414 . S
C1452 C1455 1.499 . S
C1453 H1427 0.950 . S
C1453 C1452 1.414 . S
C1453 C1454 1.374 . S
C1454 H1428 0.950 . S
C1454 C1450 1.385 . S
C1454 C1453 1.374 . S
C1455 C1452 1.499 . S
C1455 C1456 1.373 . S
C1455 C1457 1.389 . S
C1456 H1429 0.950 . S
C1456 C1442 1.377 . S
C1456 C1455 1.373 . S
C1457 C1441 1.377 . S
C1457 C1455 1.389 . S
C1457 C1458 1.524 . S
C1458 C1457 1.524 . S
C1458 C1459 1.397 . S
C1458 C1463 1.363 . S
C1459 H1430 0.950 . S
C1459 C1458 1.397 . S
C1459 C1460 1.334 . S
C1460 H1431 0.950 . S
C1460 C1459 1.334 . S
C1460 C1461 1.287 . S
C1461 C1460 1.287 . S
C1461 C1462 1.524 . S
C1461 H1464 0.999 . S
C1462 H1432 0.950 . S
C1462 C1461 1.524 . S
C1462 C1463 1.415 . S
C1463 H1433 0.950 . S
C1463 C1458 1.363 . S
C1463 C1462 1.415 . S
H1464 C1461 0.999 . S
H1465 C1446 0.913 . S
H1466 C1484 0.951 . S
H1467 C1486 0.951 . S
H1468 C1488 0.950 . S
H1469 C1489 0.950 . S
H1470 C1491 0.950 . S
H1471 C1494 0.950 . S
H1472 C1495 0.950 . S
H1473 C1497 0.950 . S
H1474 C1498 0.950 . S
H1475 C1499 0.951 . S
H1476 C1501 0.951 . S
H1477 C1503 0.950 . S
H1478 C1504 0.950 . S
H1479 C1506 0.950 . S
H1480 C1509 0.950 . S
H1481 C1510 0.950 . S
H1482 C1512 0.950 . S
H1483 C1513 0.950 . S
C1484 H1466 0.951 . S
C1484 C1485 1.366 . S
C1484 C1486 1.388 . S
C1485 C1484 1.366 . S
C1485 C1489 1.385 . S
C1486 H1467 0.951 . S
C1486 C1484 1.388 . S
C1486 C1487 1.366 . S
C1487 C1486 1.366 . S
C1487 C1488 1.414 . S
C1487 C1490 1.499 . S
C1488 H1468 0.950 . S
C1488 C1487 1.414 . S
C1488 C1489 1.374 . S
C1489 H1469 0.950 . S
C1489 C1485 1.385 . S
C1489 C1488 1.374 . S
C1490 C1487 1.499 . S
C1490 C1491 1.373 . S
C1490 C1492 1.389 . S
C1491 H1470 0.950 . S
C1491 C1490 1.373 . S
C1491 C1507 1.377 . S
C1492 C1490 1.389 . S
C1492 C1493 1.524 . S
C1492 C1506 1.377 . S
C1493 C1492 1.524 . S
C1493 C1494 1.397 . S
C1493 C1498 1.363 . S
C1494 H1471 0.950 . S
C1494 C1493 1.397 . S
C1494 C1495 1.334 . S
C1495 H1472 0.950 . S
C1495 C1494 1.334 . S
C1495 C1496 1.287 . S
C1496 C1495 1.287 . S
C1496 C1497 1.524 . S
C1496 H1515 0.913 . S
C1497 H1473 0.950 . S
C1497 C1496 1.524 . S
C1497 C1498 1.415 . S
C1498 H1474 0.950 . S
C1498 C1493 1.363 . S
C1498 C1497 1.415 . S
C1499 H1475 0.951 . S
C1499 C1500 1.366 . S
C1499 C1501 1.388 . S
C1500 C1499 1.366 . S
C1500 C1504 1.385 . S
C1501 H1476 0.951 . S
C1501 C1499 1.388 . S
C1501 C1502 1.366 . S
C1502 C1501 1.366 . S
C1502 C1503 1.414 . S
C1502 C1505 1.499 . S
C1503 H1477 0.950 . S
C1503 C1502 1.414 . S
C1503 C1504 1.374 . S
C1504 H1478 0.950 . S
C1504 C1500 1.385 . S
C1504 C1503 1.374 . S
C1505 C1502 1.499 . S
C1505 C1506 1.373 . S
C1505 C1507 1.389 . S
C1506 H1479 0.950 . S
C1506 C1492 1.377 . S
C1506 C1505 1.373 . S
C1507 C1491 1.377 . S
C1507 C1505 1.389 . S
C1507 C1508 1.524 . S
C1508 C1507 1.524 . S
C1508 C1509 1.397 . S
C1508 C1513 1.363 . S
C1509 H1480 0.950 . S
C1509 C1508 1.397 . S
C1509 C1510 1.334 . S
C1510 H1481 0.950 . S
C1510 C1509 1.334 . S
C1510 C1511 1.287 . S
C1511 C1510 1.287 . S
C1511 C1512 1.524 . S
C1511 H1514 0.999 . S
C1512 H1482 0.950 . S
C1512 C1511 1.524 . S
C1512 C1513 1.415 . S
C1513 H1483 0.950 . S
C1513 C1508 1.363 . S
C1513 C1512 1.415 . S
H1514 C1511 0.999 . S
H1515 C1496 0.913 . S
H1516 C1534 0.951 . S
H1517 C1536 0.951 . S
H1518 C1538 0.950 . S
H1519 C1539 0.950 . S
H1520 C1541 0.950 . S
H1521 C1544 0.950 . S
H1522 C1545 0.950 . S
H1523 C1547 0.950 . S
H1524 C1548 0.950 . S
H1525 C1549 0.951 . S
H1526 C1551 0.951 . S
H1527 C1553 0.950 . S
H1528 C1554 0.950 . S
H1529 C1556 0.950 . S
H1530 C1559 0.950 . S
H1531 C1560 0.950 . S
H1532 C1562 0.950 . S
H1533 C1563 0.950 . S
C1534 H1516 0.951 . S
C1534 C1535 1.366 . S
C1534 C1536 1.388 . S
C1535 C1534 1.366 . S
C1535 C1539 1.385 . S
C1536 H1517 0.951 . S
C1536 C1534 1.388 . S
C1536 C1537 1.366 . S
C1537 C1536 1.366 . S
C1537 C1538 1.414 . S
C1537 C1540 1.499 . S
C1538 H1518 0.950 . S
C1538 C1537 1.414 . S
C1538 C1539 1.374 . S
C1539 H1519 0.950 . S
C1539 C1535 1.385 . S
C1539 C1538 1.374 . S
C1540 C1537 1.499 . S
C1540 C1541 1.373 . S
C1540 C1542 1.389 . S
C1541 H1520 0.950 . S
C1541 C1540 1.373 . S
C1541 C1557 1.377 . S
C1542 C1540 1.389 . S
C1542 C1543 1.524 . S
C1542 C1556 1.377 . S
C1543 C1542 1.524 . S
C1543 C1544 1.397 . S
C1543 C1548 1.363 . S
C1544 H1521 0.950 . S
C1544 C1543 1.397 . S
C1544 C1545 1.334 . S
C1545 H1522 0.950 . S
C1545 C1544 1.334 . S
C1545 C1546 1.287 . S
C1546 C1545 1.287 . S
C1546 C1547 1.524 . S
C1546 H1565 0.913 . S
C1547 H1523 0.950 . S
C1547 C1546 1.524 . S
C1547 C1548 1.415 . S
C1548 H1524 0.950 . S
C1548 C1543 1.363 . S
C1548 C1547 1.415 . S
C1549 H1525 0.951 . S
C1549 C1550 1.366 . S
C1549 C1551 1.388 . S
C1550 C1549 1.366 . S
C1550 C1554 1.385 . S
C1551 H1526 0.951 . S
C1551 C1549 1.388 . S
C1551 C1552 1.366 . S
C1552 C1551 1.366 . S
C1552 C1553 1.414 . S
C1552 C1555 1.499 . S
C1553 H1527 0.950 . S
C1553 C1552 1.414 . S
C1553 C1554 1.374 . S
C1554 H1528 0.950 . S
C1554 C1550 1.385 . S
C1554 C1553 1.374 . S
C1555 C1552 1.499 . S
C1555 C1556 1.373 . S
C1555 C1557 1.389 . S
C1556 H1529 0.950 . S
C1556 C1542 1.377 . S
C1556 C1555 1.373 . S
C1557 C1541 1.377 . S
C1557 C1555 1.389 . S
C1557 C1558 1.524 . S
C1558 C1557 1.524 . S
C1558 C1559 1.397 . S
C1558 C1563 1.363 . S
C1559 H1530 0.950 . S
C1559 C1558 1.397 . S
C1559 C1560 1.334 . S
C1560 H1531 0.950 . S
C1560 C1559 1.334 . S
C1560 C1561 1.287 . S
C1561 C1560 1.287 . S
C1561 C1562 1.524 . S
C1561 H1564 0.999 . S
C1562 H1532 0.950 . S
C1562 C1561 1.524 . S
C1562 C1563 1.415 . S
C1563 H1533 0.950 . S
C1563 C1558 1.363 . S
C1563 C1562 1.415 . S
H1564 C1561 0.999 . S
H1565 C1546 0.913 . S
H1566 C1584 0.951 . S
H1567 C1586 0.951 . S
H1568 C1588 0.950 . S
H1569 C1589 0.950 . S
H1570 C1591 0.950 . S
H1571 C1594 0.950 . S
H1572 C1595 0.950 . S
H1573 C1597 0.950 . S
H1574 C1598 0.950 . S
H1575 C1599 0.951 . S
H1576 C1601 0.951 . S
H1577 C1603 0.950 . S
H1578 C1604 0.950 . S
H1579 C1606 0.950 . S
H1580 C1609 0.950 . S
H1581 C1610 0.950 . S
H1582 C1612 0.950 . S
H1583 C1613 0.950 . S
C1584 H1566 0.951 . S
C1584 C1585 1.366 . S
C1584 C1586 1.388 . S
C1585 C1584 1.366 . S
C1585 C1589 1.385 . S
C1586 H1567 0.951 . S
C1586 C1584 1.388 . S
C1586 C1587 1.366 . S
C1587 C1586 1.366 . S
C1587 C1588 1.414 . S
C1587 C1590 1.499 . S
C1588 H1568 0.950 . S
C1588 C1587 1.414 . S
C1588 C1589 1.374 . S
C1589 H1569 0.950 . S
C1589 C1585 1.385 . S
C1589 C1588 1.374 . S
C1590 C1587 1.499 . S
C1590 C1591 1.373 . S
C1590 C1592 1.389 . S
C1591 H1570 0.950 . S
C1591 C1590 1.373 . S
C1591 C1607 1.377 . S
C1592 C1590 1.389 . S
C1592 C1593 1.524 . S
C1592 C1606 1.377 . S
C1593 C1592 1.524 . S
C1593 C1594 1.397 . S
C1593 C1598 1.363 . S
C1594 H1571 0.950 . S
C1594 C1593 1.397 . S
C1594 C1595 1.334 . S
C1595 H1572 0.950 . S
C1595 C1594 1.334 . S
C1595 C1596 1.287 . S
C1596 C1595 1.287 . S
C1596 C1597 1.524 . S
C1596 H1615 0.913 . S
C1597 H1573 0.950 . S
C1597 C1596 1.524 . S
C1597 C1598 1.415 . S
C1598 H1574 0.950 . S
C1598 C1593 1.363 . S
C1598 C1597 1.415 . S
C1599 H1575 0.951 . S
C1599 C1600 1.366 . S
C1599 C1601 1.388 . S
C1600 C1599 1.366 . S
C1600 C1604 1.385 . S
C1601 H1576 0.951 . S
C1601 C1599 1.388 . S
C1601 C1602 1.366 . S
C1602 C1601 1.366 . S
C1602 C1603 1.414 . S
C1602 C1605 1.499 . S
C1603 H1577 0.950 . S
C1603 C1602 1.414 . S
C1603 C1604 1.374 . S
C1604 H1578 0.950 . S
C1604 C1600 1.385 . S
C1604 C1603 1.374 . S
C1605 C1602 1.499 . S
C1605 C1606 1.373 . S
C1605 C1607 1.389 . S
C1606 H1579 0.950 . S
C1606 C1592 1.377 . S
C1606 C1605 1.373 . S
C1607 C1591 1.377 . S
C1607 C1605 1.389 . S
C1607 C1608 1.524 . S
C1608 C1607 1.524 . S
C1608 C1609 1.397 . S
C1608 C1613 1.363 . S
C1609 H1580 0.950 . S
C1609 C1608 1.397 . S
C1609 C1610 1.334 . S
C1610 H1581 0.950 . S
C1610 C1609 1.334 . S
C1610 C1611 1.287 . S
C1611 C1610 1.287 . S
C1611 C1612 1.524 . S
C1611 H1614 0.999 . S
C1612 H1582 0.950 . S
C1612 C1611 1.524 . S
C1612 C1613 1.415 . S
C1613 H1583 0.950 . S
C1613 C1608 1.363 . S
C1613 C1612 1.415 . S
H1614 C1611 0.999 . S
H1615 C1596 0.913 . S
H1616 C1634 0.951 . S
H1617 C1636 0.951 . S
H1618 C1638 0.950 . S
H1619 C1639 0.950 . S
H1620 C1641 0.950 . S
H1621 C1644 0.950 . S
H1622 C1645 0.950 . S
H1623 C1647 0.950 . S
H1624 C1648 0.950 . S
H1625 C1649 0.951 . S
H1626 C1651 0.951 . S
H1627 C1653 0.950 . S
H1628 C1654 0.950 . S
H1629 C1656 0.950 . S
H1630 C1659 0.950 . S
H1631 C1660 0.950 . S
H1632 C1662 0.950 . S
H1633 C1663 0.950 . S
C1634 H1616 0.951 . S
C1634 C1635 1.366 . S
C1634 C1636 1.388 . S
C1635 C1634 1.366 . S
C1635 C1639 1.385 . S
C1636 H1617 0.951 . S
C1636 C1634 1.388 . S
C1636 C1637 1.366 . S
C1637 C1636 1.366 . S
C1637 C1638 1.414 . S
C1637 C1640 1.499 . S
C1638 H1618 0.950 . S
C1638 C1637 1.414 . S
C1638 C1639 1.374 . S
C1639 H1619 0.950 . S
C1639 C1635 1.385 . S
C1639 C1638 1.374 . S
C1640 C1637 1.499 . S
C1640 C1641 1.373 . S
C1640 C1642 1.389 . S
C1641 H1620 0.950 . S
C1641 C1640 1.373 . S
C1641 C1657 1.377 . S
C1642 C1640 1.389 . S
C1642 C1643 1.524 . S
C1642 C1656 1.377 . S
C1643 C1642 1.524 . S
C1643 C1644 1.397 . S
C1643 C1648 1.363 . S
C1644 H1621 0.950 . S
C1644 C1643 1.397 . S
C1644 C1645 1.334 . S
C1645 H1622 0.950 . S
C1645 C1644 1.334 . S
C1645 C1646 1.287 . S
C1646 C1645 1.287 . S
C1646 C1647 1.524 . S
C1646 H1665 0.913 . S
C1647 H1623 0.950 . S
C1647 C1646 1.524 . S
C1647 C1648 1.415 . S
C1648 H1624 0.950 . S
C1648 C1643 1.363 . S
C1648 C1647 1.415 . S
C1649 H1625 0.951 . S
C1649 C1650 1.366 . S
C1649 C1651 1.388 . S
C1650 C1649 1.366 . S
C1650 C1654 1.385 . S
C1651 H1626 0.951 . S
C1651 C1649 1.388 . S
C1651 C1652 1.366 . S
C1652 C1651 1.366 . S
C1652 C1653 1.414 . S
C1652 C1655 1.499 . S
C1653 H1627 0.950 . S
C1653 C1652 1.414 . S
C1653 C1654 1.374 . S
C1654 H1628 0.950 . S
C1654 C1650 1.385 . S
C1654 C1653 1.374 . S
C1655 C1652 1.499 . S
C1655 C1656 1.373 . S
C1655 C1657 1.389 . S
C1656 H1629 0.950 . S
C1656 C1642 1.377 . S
C1656 C1655 1.373 . S
C1657 C1641 1.377 . S
C1657 C1655 1.389 . S
C1657 C1658 1.524 . S
C1658 C1657 1.524 . S
C1658 C1659 1.397 . S
C1658 C1663 1.363 . S
C1659 H1630 0.950 . S
C1659 C1658 1.397 . S
C1659 C1660 1.334 . S
C1660 H1631 0.950 . S
C1660 C1659 1.334 . S
C1660 C1661 1.287 . S
C1661 C1660 1.287 . S
C1661 C1662 1.524 . S
C1661 H1664 0.999 . S
C1662 H1632 0.950 . S
C1662 C1661 1.524 . S
C1662 C1663 1.415 . S
C1663 H1633 0.950 . S
C1663 C1658 1.363 . S
C1663 C1662 1.415 . S
H1664 C1661 0.999 . S
H1665 C1646 0.913 . S
H1666 C1684 0.951 . S
H1667 C1686 0.951 . S
H1668 C1688 0.950 . S
H1669 C1689 0.950 . S
H1670 C1691 0.950 . S
H1671 C1694 0.950 . S
H1672 C1695 0.950 . S
H1673 C1697 0.950 . S
H1674 C1698 0.950 . S
H1675 C1699 0.951 . S
H1676 C1701 0.951 . S
H1677 C1703 0.950 . S
H1678 C1704 0.950 . S
H1679 C1706 0.950 . S
H1680 C1709 0.950 . S
H1681 C1710 0.950 . S
H1682 C1712 0.950 . S
H1683 C1713 0.950 . S
C1684 H1666 0.951 . S
C1684 C1685 1.366 . S
C1684 C1686 1.388 . S
C1685 C1684 1.366 . S
C1685 C1689 1.385 . S
C1686 H1667 0.951 . S
C1686 C1684 1.388 . S
C1686 C1687 1.366 . S
C1687 C1686 1.366 . S
C1687 C1688 1.414 . S
C1687 C1690 1.499 . S
C1688 H1668 0.950 . S
C1688 C1687 1.414 . S
C1688 C1689 1.374 . S
C1689 H1669 0.950 . S
C1689 C1685 1.385 . S
C1689 C1688 1.374 . S
C1690 C1687 1.499 . S
C1690 C1691 1.373 . S
C1690 C1692 1.389 . S
C1691 H1670 0.950 . S
C1691 C1690 1.373 . S
C1691 C1707 1.377 . S
C1692 C1690 1.389 . S
C1692 C1693 1.524 . S
C1692 C1706 1.377 . S
C1693 C1692 1.524 . S
C1693 C1694 1.397 . S
C1693 C1698 1.363 . S
C1694 H1671 0.950 . S
C1694 C1693 1.397 . S
C1694 C1695 1.334 . S
C1695 H1672 0.950 . S
C1695 C1694 1.334 . S
C1695 C1696 1.287 . S
C1696 C1695 1.287 . S
C1696 C1697 1.524 . S
C1696 H1715 0.913 . S
C1697 H1673 0.950 . S
C1697 C1696 1.524 . S
C1697 C1698 1.415 . S
C1698 H1674 0.950 . S
C1698 C1693 1.363 . S
C1698 C1697 1.415 . S
C1699 H1675 0.951 . S
C1699 C1700 1.366 . S
C1699 C1701 1.388 . S
C1700 C1699 1.366 . S
C1700 C1704 1.385 . S
C1701 H1676 0.951 . S
C1701 C1699 1.388 . S
C1701 C1702 1.366 . S
C1702 C1701 1.366 . S
C1702 C1703 1.414 . S
C1702 C1705 1.499 . S
C1703 H1677 0.950 . S
C1703 C1702 1.414 . S
C1703 C1704 1.374 . S
C1704 H1678 0.950 . S
C1704 C1700 1.385 . S
C1704 C1703 1.374 . S
C1705 C1702 1.499 . S
C1705 C1706 1.373 . S
C1705 C1707 1.389 . S
C1706 H1679 0.950 . S
C1706 C1692 1.377 . S
C1706 C1705 1.373 . S
C1707 C1691 1.377 . S
C1707 C1705 1.389 . S
C1707 C1708 1.524 . S
C1708 C1707 1.524 . S
C1708 C1709 1.397 . S
C1708 C1713 1.363 . S
C1709 H1680 0.950 . S
C1709 C1708 1.397 . S
C1709 C1710 1.334 . S
C1710 H1681 0.950 . S
C1710 C1709 1.334 . S
C1710 C1711 1.287 . S
C1711 C1710 1.287 . S
C1711 C1712 1.524 . S
C1711 H1714 0.999 . S
C1712 H1682 0.950 . S
C1712 C1711 1.524 . S
C1712 C1713 1.415 . S
C1713 H1683 0.950 . S
C1713 C1708 1.363 . S
C1713 C1712 1.415 . S
H1714 C1711 0.999 . S
H1715 C1696 0.913 . S
H1716 C1734 0.951 . S
H1717 C1736 0.951 . S
H1718 C1738 0.950 . S
H1719 C1739 0.950 . S
H1720 C1741 0.950 . S
H1721 C1744 0.950 . S
H1722 C1745 0.950 . S
H1723 C1747 0.950 . S
H1724 C1748 0.950 . S
H1725 C1749 0.951 . S
H1726 C1751 0.951 . S
H1727 C1753 0.950 . S
H1728 C1754 0.950 . S
H1729 C1756 0.950 . S
H1730 C1759 0.950 . S
H1731 C1760 0.950 . S
H1732 C1762 0.950 . S
H1733 C1763 0.950 . S
C1734 H1716 0.951 . S
C1734 C1735 1.366 . S
C1734 C1736 1.388 . S
C1735 C1734 1.366 . S
C1735 C1739 1.385 . S
C1736 H1717 0.951 . S
C1736 C1734 1.388 . S
C1736 C1737 1.366 . S
C1737 C1736 1.366 . S
C1737 C1738 1.414 . S
C1737 C1740 1.499 . S
C1738 H1718 0.950 . S
C1738 C1737 1.414 . S
C1738 C1739 1.374 . S
C1739 H1719 0.950 . S
C1739 C1735 1.385 . S
C1739 C1738 1.374 . S
C1740 C1737 1.499 . S
C1740 C1741 1.373 . S
C1740 C1742 1.389 . S
C1741 H1720 0.950 . S
C1741 C1740 1.373 . S
C1741 C1757 1.377 . S
C1742 C1740 1.389 . S
C1742 C1743 1.524 . S
C1742 C1756 1.377 . S
C1743 C1742 1.524 . S
C1743 C1744 1.397 . S
C1743 C1748 1.363 . S
C1744 H1721 0.950 . S
C1744 C1743 1.397 . S
C1744 C1745 1.334 . S
C1745 H1722 0.950 . S
C1745 C1744 1.334 . S
C1745 C1746 1.287 . S
C1746 C1745 1.287 . S
C1746 C1747 1.524 . S
C1746 H1765 0.913 . S
C1747 H1723 0.950 . S
C1747 C1746 1.524 . S
C1747 C1748 1.415 . S
C1748 H1724 0.950 . S
C1748 C1743 1.363 . S
C1748 C1747 1.415 . S
C1749 H1725 0.951 . S
C1749 C1750 1.366 . S
C1749 C1751 1.388 . S
C1750 C1749 1.366 . S
C1750 C1754 1.385 . S
C1751 H1726 0.951 . S
C1751 C1749 1.388 . S
C1751 C1752 1.366 . S
C1752 C1751 1.366 . S
C1752 C1753 1.414 . S
C1752 C1755 1.499 . S
C1753 H1727 0.950 . S
C1753 C1752 1.414 . S
C1753 C1754 1.374 . S
C1754 H1728 0.950 . S
C1754 C1750 1.385 . S
C1754 C1753 1.374 . S
C1755 C1752 1.499 . S
C1755 C1756 1.373 . S
C1755 C1757 1.389 . S
C1756 H1729 0.950 . S
C1756 C1742 1.377 . S
C1756 C1755 1.373 . S
C1757 C1741 1.377 . S
C1757 C1755 1.389 . S
C1757 C1758 1.524 . S
C1758 C1757 1.524 . S
C1758 C1759 1.397 . S
C1758 C1763 1.363 . S
C1759 H1730 0.950 . S
C1759 C1758 1.397 . S
C1759 C1760 1.334 . S
C1760 H1731 0.950 . S
C1760 C1759 1.334 . S
C1760 C1761 1.287 . S
C1761 C1760 1.287 . S
C1761 C1762 1.524 . S
C1761 H1764 0.999 . S
C1762 H1732 0.950 . S
C1762 C1761 1.524 . S
C1762 C1763 1.415 . S
C1763 H1733 0.950 . S
C1763 C1758 1.363 . S
C1763 C1762 1.415 . S
H1764 C1761 0.999 . S
H1765 C1746 0.913 . S
H1766 C1784 0.951 . S
H1767 C1786 0.951 . S
H1768 C1788 0.950 . S
H1769 C1789 0.993 . S
H1770 C1791 0.950 . S
H1771 C1794 0.950 . S
H1772 C1795 0.950 . S
H1773 C1797 0.950 . S
H1774 C1798 0.950 . S
H1775 C1799 0.951 . S
H1776 C1801 0.951 . S
H1777 C1803 0.950 . S
H1778 C1804 0.950 . S
H1779 C1806 0.950 . S
H1780 C1809 0.950 . S
H1781 C1810 0.950 . S
H1782 C1812 0.950 . S
H1783 C1813 0.950 . S
C1784 H1766 0.951 . S
C1784 C1785 1.366 . S
C1784 C1786 1.388 . S
C1785 C1784 1.366 . S
C1785 C1789 1.385 . S
C1786 H1767 0.951 . S
C1786 C1784 1.388 . S
C1786 C1787 1.366 . S
C1787 C1786 1.366 . S
C1787 C1788 1.414 . S
C1787 C1790 1.499 . S
C1788 H1768 0.950 . S
C1788 C1787 1.414 . S
C1788 C1789 1.374 . S
C1789 H1769 0.993 . S
C1789 C1785 1.385 . S
C1789 C1788 1.374 . S
C1790 C1787 1.499 . S
C1790 C1791 1.373 . S
C1790 C1792 1.389 . S
C1791 H1770 0.950 . S
C1791 C1790 1.373 . S
C1791 C1807 1.377 . S
C1792 C1790 1.389 . S
C1792 C1793 1.524 . S
C1792 C1806 1.377 . S
C1793 C1792 1.524 . S
C1793 C1794 1.397 . S
C1793 C1798 1.363 . S
C1794 H1771 0.950 . S
C1794 C1793 1.397 . S
C1794 C1795 1.334 . S
C1795 H1772 0.950 . S
C1795 C1794 1.334 . S
C1795 C1796 1.287 . S
C1796 C1795 1.287 . S
C1796 C1797 1.524 . S
C1796 H1815 0.913 . S
C1797 H1773 0.950 . S
C1797 C1796 1.524 . S
C1797 C1798 1.415 . S
C1798 H1774 0.950 . S
C1798 C1793 1.363 . S
C1798 C1797 1.415 . S
C1799 H1775 0.951 . S
C1799 C1800 1.366 . S
C1799 C1801 1.388 . S
C1800 C1799 1.366 . S
C1800 C1804 1.385 . S
C1801 H1776 0.951 . S
C1801 C1799 1.388 . S
C1801 C1802 1.366 . S
C1802 C1801 1.366 . S
C1802 C1803 1.414 . S
C1802 C1805 1.499 . S
C1803 H1777 0.950 . S
C1803 C1802 1.414 . S
C1803 C1804 1.374 . S
C1804 H1778 0.950 . S
C1804 C1800 1.385 . S
C1804 C1803 1.374 . S
C1805 C1802 1.499 . S
C1805 C1806 1.373 . S
C1805 C1807 1.389 . S
C1806 H1779 0.950 . S
C1806 C1792 1.377 . S
C1806 C1805 1.373 . S
C1807 C1791 1.377 . S
C1807 C1805 1.389 . S
C1807 C1808 1.524 . S
C1808 C1807 1.524 . S
C1808 C1809 1.397 . S
C1808 C1813 1.363 . S
C1809 H1780 0.950 . S
C1809 C1808 1.397 . S
C1809 C1810 1.334 . S
C1810 H1781 0.950 . S
C1810 C1809 1.334 . S
C1810 C1811 1.287 . S
C1811 C1810 1.287 . S
C1811 C1812 1.524 . S
C1811 H1814 0.999 . S
C1812 H1782 0.950 . S
C1812 C1811 1.524 . S
C1812 C1813 1.415 . S
C1813 H1783 0.950 . S
C1813 C1808 1.363 . S
C1813 C1812 1.415 . S
H1814 C1811 0.999 . S
H1815 C1796 0.913 . S
H1816 C1834 0.951 . S
H1817 C1836 0.951 . S
H1818 C1838 0.950 . S
H1819 C1839 0.950 . S
H1820 C1841 0.950 . S
H1821 C1844 0.950 . S
H1822 C1845 0.950 . S
H1823 C1847 0.950 . S
H1824 C1848 0.950 . S
H1825 C1849 0.951 . S
H1826 C1851 0.951 . S
H1827 C1853 0.950 . S
H1828 C1854 0.950 . S
H1829 C1856 0.950 . S
H1830 C1859 0.950 . S
H1831 C1860 0.950 . S
H1832 C1862 0.950 . S
H1833 C1863 0.950 . S
C1834 H1816 0.951 . S
C1834 C1835 1.366 . S
C1834 C1836 1.388 . S
C1835 C1834 1.366 . S
C1835 C1839 1.385 . S
C1836 H1817 0.951 . S
C1836 C1834 1.388 . S
C1836 C1837 1.366 . S
C1837 C1836 1.366 . S
C1837 C1838 1.414 . S
C1837 C1840 1.499 . S
C1838 H1818 0.950 . S
C1838 C1837 1.414 . S
C1838 C1839 1.374 . S
C1839 H1819 0.950 . S
C1839 C1835 1.385 . S
C1839 C1838 1.374 . S
C1840 C1837 1.499 . S
C1840 C1841 1.373 . S
C1840 C1842 1.389 . S
C1841 H1820 0.950 . S
C1841 C1840 1.373 . S
C1841 C1857 1.377 . S
C1842 C1840 1.389 . S
C1842 C1843 1.524 . S
C1842 C1856 1.377 . S
C1843 C1842 1.524 . S
C1843 C1844 1.397 . S
C1843 C1848 1.363 . S
C1844 H1821 0.950 . S
C1844 C1843 1.397 . S
C1844 C1845 1.334 . S
C1845 H1822 0.950 . S
C1845 C1844 1.334 . S
C1845 C1846 1.287 . S
C1846 C1845 1.287 . S
C1846 C1847 1.524 . S
C1846 H1865 0.913 . S
C1847 H1823 0.950 . S
C1847 C1846 1.524 . S
C1847 C1848 1.415 . S
C1848 H1824 0.950 . S
C1848 C1843 1.363 . S
C1848 C1847 1.415 . S
C1849 H1825 0.951 . S
C1849 C1850 1.366 . S
C1849 C1851 1.388 . S
C1850 C1849 1.366 . S
C1850 C1854 1.385 . S
C1851 H1826 0.951 . S
C1851 C1849 1.388 . S
C1851 C1852 1.366 . S
C1852 C1851 1.366 . S
C1852 C1853 1.414 . S
C1852 C1855 1.499 . S
C1853 H1827 0.950 . S
C1853 C1852 1.414 . S
C1853 C1854 1.374 . S
C1854 H1828 0.950 . S
C1854 C1850 1.385 . S
C1854 C1853 1.374 . S
C1855 C1852 1.499 . S
C1855 C1856 1.373 . S
C1855 C1857 1.389 . S
C1856 H1829 0.950 . S
C1856 C1842 1.377 . S
C1856 C1855 1.373 . S
C1857 C1841 1.377 . S
C1857 C1855 1.389 . S
C1857 C1858 1.524 . S
C1858 C1857 1.524 . S
C1858 C1859 1.397 . S
C1858 C1863 1.363 . S
C1859 H1830 0.950 . S
C1859 C1858 1.397 . S
C1859 C1860 1.334 . S
C1860 H1831 0.950 . S
C1860 C1859 1.334 . S
C1860 C1861 1.287 . S
C1861 C1860 1.287 . S
C1861 C1862 1.524 . S
C1861 H1864 0.999 . S
C1862 H1832 0.950 . S
C1862 C1861 1.524 . S
C1862 C1863 1.415 . S
C1863 H1833 0.950 . S
C1863 C1858 1.363 . S
C1863 C1862 1.415 . S
H1864 C1861 0.999 . S
H1865 C1846 0.913 . S
H1866 C1884 0.951 . S
H1867 C1886 0.951 . S
H1868 C1888 0.950 . S
H1869 C1889 0.950 . S
H1870 C1891 0.950 . S
H1871 C1894 0.950 . S
H1872 C1895 0.950 . S
H1873 C1897 0.950 . S
H1874 C1898 0.950 . S
H1875 C1899 0.951 . S
H1876 C1901 0.951 . S
H1877 C1903 0.950 . S
H1878 C1904 0.950 . S
H1879 C1906 0.950 . S
H1880 C1909 0.950 . S
H1881 C1910 0.950 . S
H1882 C1912 0.950 . S
H1883 C1913 0.950 . S
C1884 H1866 0.951 . S
C1884 C1885 1.366 . S
C1884 C1886 1.388 . S
C1885 C1884 1.366 . S
C1885 C1889 1.385 . S
C1886 H1867 0.951 . S
C1886 C1884 1.388 . S
C1886 C1887 1.366 . S
C1887 C1886 1.366 . S
C1887 C1888 1.414 . S
C1887 C1890 1.499 . S
C1888 H1868 0.950 . S
C1888 C1887 1.414 . S
C1888 C1889 1.374 . S
C1889 H1869 0.950 . S
C1889 C1885 1.385 . S
C1889 C1888 1.374 . S
C1890 C1887 1.499 . S
C1890 C1891 1.373 . S
C1890 C1892 1.389 . S
C1891 H1870 0.950 . S
C1891 C1890 1.373 . S
C1891 C1907 1.377 . S
C1892 C1890 1.389 . S
C1892 C1893 1.524 . S
C1892 C1906 1.377 . S
C1893 C1892 1.524 . S
C1893 C1894 1.397 . S
C1893 C1898 1.363 . S
C1894 H1871 0.950 . S
C1894 C1893 1.397 . S
C1894 C1895 1.334 . S
C1895 H1872 0.950 . S
C1895 C1894 1.334 . S
C1895 C1896 1.287 . S
C1896 C1895 1.287 . S
C1896 C1897 1.524 . S
C1896 H1915 0.913 . S
C1897 H1873 0.950 . S
C1897 C1896 1.524 . S
C1897 C1898 1.415 . S
C1898 H1874 0.950 . S
C1898 C1893 1.363 . S
C1898 C1897 1.415 . S
C1899 H1875 0.951 . S
C1899 C1900 1.366 . S
C1899 C1901 1.388 . S
C1900 C1899 1.366 . S
C1900 C1904 1.385 . S
C1901 H1876 0.951 . S
C1901 C1899 1.388 . S
C1901 C1902 1.366 . S
C1902 C1901 1.366 . S
C1902 C1903 1.414 . S
C1902 C1905 1.499 . S
C1903 H1877 0.950 . S
C1903 C1902 1.414 . S
C1903 C1904 1.374 . S
C1904 H1878 0.950 . S
C1904 C1900 1.385 . S
C1904 C1903 1.374 . S
C1905 C1902 1.499 . S
C1905 C1906 1.373 . S
C1905 C1907 1.389 . S
C1906 H1879 0.950 . S
C1906 C1892 1.377 . S
C1906 C1905 1.373 . S
C1907 C1891 1.377 . S
C1907 C1905 1.389 . S
C1907 C1908 1.524 . S
C1908 C1907 1.524 . S
C1908 C1909 1.397 . S
C1908 C1913 1.363 . S
C1909 H1880 0.950 . S
C1909 C1908 1.397 . S
C1909 C1910 1.334 . S
C1910 H1881 0.950 . S
C1910 C1909 1.334 . S
C1910 C1911 1.287 . S
C1911 C1910 1.287 . S
C1911 C1912 1.524 . S
C1911 H1914 0.999 . S
C1912 H1882 0.950 . S
C1912 C1911 1.524 . S
C1912 C1913 1.415 . S
C1913 H1883 0.950 . S
C1913 C1908 1.363 . S
C1913 C1912 1.415 . S
H1914 C1911 0.999 . S
H1915 C1896 0.913 . S
H1916 C1934 0.951 . S
H1917 C1936 0.951 . S
H1918 C1938 0.950 . S
H1919 C1939 0.950 . S
H1920 C1941 0.950 . S
H1921 C1944 0.950 . S
H1922 C1945 0.950 . S
H1923 C1947 0.950 . S
H1924 C1948 0.950 . S
H1925 C1949 0.951 . S
H1926 C1951 0.951 . S
H1927 C1953 0.950 . S
H1928 C1954 0.950 . S
H1929 C1956 0.950 . S
H1930 C1959 0.950 . S
H1931 C1960 0.950 . S
H1932 C1962 0.950 . S
H1933 C1963 0.950 . S
C1934 H1916 0.951 . S
C1934 C1935 1.366 . S
C1934 C1936 1.388 . S
C1935 C1934 1.366 . S
C1935 C1939 1.385 . S
C1936 H1917 0.951 . S
C1936 C1934 1.388 . S
C1936 C1937 1.366 . S
C1937 C1936 1.366 . S
C1937 C1938 1.414 . S
C1937 C1940 1.499 . S
C1938 H1918 0.950 . S
C1938 C1937 1.414 . S
C1938 C1939 1.374 . S
C1939 H1919 0.950 . S
C1939 C1935 1.385 . S
C1939 C1938 1.374 . S
C1940 C1937 1.499 . S
C1940 C1941 1.373 . S
C1940 C1942 1.389 . S
C1941 H1920 0.950 . S
C1941 C1940 1.373 . S
C1941 C1957 1.377 . S
C1942 C1940 1.389 . S
C1942 C1943 1.524 . S
C1942 C1956 1.377 . S
C1943 C1942 1.524 . S
C1943 C1944 1.397 . S
C1943 C1948 1.363 . S
C1944 H1921 0.950 . S
C1944 C1943 1.397 . S
C1944 C1945 1.334 . S
C1945 H1922 0.950 . S
C1945 C1944 1.334 . S
C1945 C1946 1.287 . S
C1946 C1945 1.287 . S
C1946 C1947 1.524 . S
C1946 H1965 0.913 . S
C1947 H1923 0.950 . S
C1947 C1946 1.524 . S
C1947 C1948 1.415 . S
C1948 H1924 0.950 . S
C1948 C1943 1.363 . S
C1948 C1947 1.415 . S
C1949 H1925 0.951 . S
C1949 C1950 1.366 . S
C1949 C1951 1.388 . S
C1950 C1949 1.366 . S
C1950 C1954 1.385 . S
C1951 H1926 0.951 . S
C1951 C1949 1.388 . S
C1951 C1952 1.366 . S
C1952 C1951 1.366 . S
C1952 C1953 1.414 . S
C1952 C1955 1.499 . S
C1953 H1927 0.950 . S
C1953 C1952 1.414 . S
C1953 C1954 1.374 . S
C1954 H1928 0.950 . S
C1954 C1950 1.385 . S
C1954 C1953 1.374 . S
C1955 C1952 1.499 . S
C1955 C1956 1.373 . S
C1955 C1957 1.389 . S
C1956 H1929 0.950 . S
C1956 C1942 1.377 . S
C1956 C1955 1.373 . S
C1957 C1941 1.377 . S
C1957 C1955 1.389 . S
C1957 C1958 1.524 . S
C1958 C1957 1.524 . S
C1958 C1959 1.397 . S
C1958 C1963 1.363 . S
C1959 H1930 0.950 . S
C1959 C1958 1.397 . S
C1959 C1960 1.334 . S
C1960 H1931 0.950 . S
C1960 C1959 1.334 . S
C1960 C1961 1.287 . S
C1961 C1960 1.287 . S
C1961 C1962 1.524 . S
C1961 H1964 0.999 . S
C1962 H1932 0.950 . S
C1962 C1961 1.524 . S
C1962 C1963 1.415 . S
C1963 H1933 0.950 . S
C1963 C1958 1.363 . S
C1963 C1962 1.415 . S
H1964 C1961 0.999 . S
H1965 C1946 0.913 . S
H1966 C1984 0.951 . S
H1967 C1986 0.951 . S
H1968 C1988 0.950 . S
H1969 C1989 0.950 . S
H1970 C1991 0.950 . S
H1971 C1994 0.950 . S
H1972 C1995 0.950 . S
H1973 C1997 0.950 . S
H1974 C1998 0.950 . S
H1975 C1999 0.951 . S
H1976 C2001 0.951 . S
H1977 C2003 0.950 . S
H1978 C2004 0.950 . S
H1979 C2006 0.950 . S
H1980 C2009 0.950 . S
H1981 C2010 0.950 . S
H1982 C2012 0.950 . S
H1983 C2013 0.950 . S
C1984 H1966 0.951 . S
C1984 C1985 1.366 . S
C1984 C1986 1.388 . S
C1985 C1984 1.366 . S
C1985 C1989 1.385 . S
C1986 H1967 0.951 . S
C1986 C1984 1.388 . S
C1986 C1987 1.366 . S
C1987 C1986 1.366 . S
C1987 C1988 1.414 . S
C1987 C1990 1.499 . S
C1988 H1968 0.950 . S
C1988 C1987 1.414 . S
C1988 C1989 1.374 . S
C1989 H1969 0.950 . S
C1989 C1985 1.385 . S
C1989 C1988 1.374 . S
C1990 C1987 1.499 . S
C1990 C1991 1.373 . S
C1990 C1992 1.389 . S
C1991 H1970 0.950 . S
C1991 C1990 1.373 . S
C1991 C2007 1.377 . S
C1992 C1990 1.389 . S
C1992 C1993 1.524 . S
C1992 C2006 1.377 . S
C1993 C1992 1.524 . S
C1993 C1994 1.397 . S
C1993 C1998 1.363 . S
C1994 H1971 0.950 . S
C1994 C1993 1.397 . S
C1994 C1995 1.334 . S
C1995 H1972 0.950 . S
C1995 C1994 1.334 . S
C1995 C1996 1.287 . S
C1996 C1995 1.287 . S
C1996 C1997 1.524 . S
C1996 H2015 0.913 . S
C1997 H1973 0.950 . S
C1997 C1996 1.524 . S
C1997 C1998 1.415 . S
C1998 H1974 0.950 . S
C1998 C1993 1.363 . S
C1998 C1997 1.415 . S
C1999 H1975 0.951 . S
C1999 C2000 1.366 . S
C1999 C2001 1.388 . S
C2000 C1999 1.366 . S
C2000 C2004 1.385 . S
C2001 H1976 0.951 . S
C2001 C1999 1.388 . S
C2001 C2002 1.366 . S
C2002 C2001 1.366 . S
C2002 C2003 1.414 . S
C2002 C2005 1.499 . S
C2003 H1977 0.950 . S
C2003 C2002 1.414 . S
C2003 C2004 1.374 . S
C2004 H1978 0.950 . S
C2004 C2000 1.385 . S
C2004 C2003 1.374 . S
C2005 C2002 1.499 . S
C2005 C2006 1.373 . S
C2005 C2007 1.389 . S
C2006 H1979 0.950 . S
C2006 C1992 1.377 . S
C2006 C2005 1.373 . S
C2007 C1991 1.377 . S
C2007 C2005 1.389 . S
C2007 C2008 1.524 . S
C2008 C2007 1.524 . S
C2008 C2009 1.397 . S
C2008 C2013 1.363 . S
C2009 H1980 0.950 . S
C2009 C2008 1.397 . S
C2009 C2010 1.334 . S
C2010 H1981 0.950 . S
C2010 C2009 1.334 . S
C2010 C2011 1.287 . S
C2011 C2010 1.287 . S
C2011 C2012 1.524 . S
C2011 H2014 0.999 . S
C2012 H1982 0.950 . S
C2012 C2011 1.524 . S
C2012 C2013 1.415 . S
C2013 H1983 0.950 . S
C2013 C2008 1.363 . S
C2013 C2012 1.415 . S
H2014 C2011 0.999 . S
H2015 C1996 0.913 . S
H2016 C2034 0.951 . S
H2017 C2036 0.951 . S
H2018 C2038 0.950 . S
H2019 C2039 0.950 . S
H2020 C2041 0.950 . S
H2021 C2044 0.950 . S
H2022 C2045 0.950 . S
H2023 C2047 0.950 . S
H2024 C2048 0.950 . S
H2025 C2049 0.951 . S
H2026 C2051 0.951 . S
H2027 C2053 0.950 . S
H2028 C2054 0.950 . S
H2029 C2056 0.950 . S
H2030 C2059 0.950 . S
H2031 C2060 0.950 . S
H2032 C2062 0.950 . S
H2033 C2063 0.950 . S
C2034 H2016 0.951 . S
C2034 C2035 1.366 . S
C2034 C2036 1.388 . S
C2035 C2034 1.366 . S
C2035 C2039 1.385 . S
C2036 H2017 0.951 . S
C2036 C2034 1.388 . S
C2036 C2037 1.366 . S
C2037 C2036 1.366 . S
C2037 C2038 1.414 . S
C2037 C2040 1.499 . S
C2038 H2018 0.950 . S
C2038 C2037 1.414 . S
C2038 C2039 1.374 . S
C2039 H2019 0.950 . S
C2039 C2035 1.385 . S
C2039 C2038 1.374 . S
C2040 C2037 1.499 . S
C2040 C2041 1.373 . S
C2040 C2042 1.389 . S
C2041 H2020 0.950 . S
C2041 C2040 1.373 . S
C2041 C2057 1.377 . S
C2042 C2040 1.389 . S
C2042 C2043 1.524 . S
C2042 C2056 1.377 . S
C2043 C2042 1.524 . S
C2043 C2044 1.397 . S
C2043 C2048 1.363 . S
C2044 H2021 0.950 . S
C2044 C2043 1.397 . S
C2044 C2045 1.334 . S
C2045 H2022 0.950 . S
C2045 C2044 1.334 . S
C2045 C2046 1.287 . S
C2046 C2045 1.287 . S
C2046 C2047 1.524 . S
C2046 H2065 0.913 . S
C2047 H2023 0.950 . S
C2047 C2046 1.524 . S
C2047 C2048 1.415 . S
C2048 H2024 0.950 . S
C2048 C2043 1.363 . S
C2048 C2047 1.415 . S
C2049 H2025 0.951 . S
C2049 C2050 1.366 . S
C2049 C2051 1.388 . S
C2050 C2049 1.366 . S
C2050 C2054 1.385 . S
C2051 H2026 0.951 . S
C2051 C2049 1.388 . S
C2051 C2052 1.366 . S
C2052 C2051 1.366 . S
C2052 C2053 1.414 . S
C2052 C2055 1.499 . S
C2053 H2027 0.950 . S
C2053 C2052 1.414 . S
C2053 C2054 1.374 . S
C2054 H2028 0.950 . S
C2054 C2050 1.385 . S
C2054 C2053 1.374 . S
C2055 C2052 1.499 . S
C2055 C2056 1.373 . S
C2055 C2057 1.389 . S
C2056 H2029 0.950 . S
C2056 C2042 1.377 . S
C2056 C2055 1.373 . S
C2057 C2041 1.377 . S
C2057 C2055 1.389 . S
C2057 C2058 1.524 . S
C2058 C2057 1.524 . S
C2058 C2059 1.397 . S
C2058 C2063 1.363 . S
C2059 H2030 0.950 . S
C2059 C2058 1.397 . S
C2059 C2060 1.334 . S
C2060 H2031 0.950 . S
C2060 C2059 1.334 . S
C2060 C2061 1.287 . S
C2061 C2060 1.287 . S
C2061 C2062 1.524 . S
C2061 H2064 0.999 . S
C2062 H2032 0.950 . S
C2062 C2061 1.524 . S
C2062 C2063 1.415 . S
C2063 H2033 0.950 . S
C2063 C2058 1.363 . S
C2063 C2062 1.415 . S
H2064 C2061 0.999 . S
H2065 C2046 0.913 . S
H2066 C2084 0.951 1_655 S
H2067 C2086 0.951 1_545 S
H2068 C2088 0.950 . S
H2069 C2089 0.950 . S
H2070 C2091 0.950 . S
H2071 C2094 0.950 . S
H2072 C2095 0.950 . S
H2073 C2097 0.950 . S
H2074 C2098 0.950 . S
H2075 C2099 0.951 1_455 S
H2076 C2101 0.951 1_565 S
H2077 C2103 0.950 . S
H2078 C2104 0.950 . S
H2079 C2106 0.950 . S
H2080 C2109 0.950 . S
H2081 C2110 0.950 . S
H2082 C2112 0.950 . S
H2083 C2113 0.950 . S
C2084 H2066 0.951 1_455 S
C2084 C2085 1.366 . S
C2084 C2086 1.388 1_455 S
C2085 C2084 1.366 . S
C2085 C2089 1.385 . S
C2086 H2067 0.951 1_565 S
C2086 C2084 1.388 1_655 S
C2086 C2087 1.366 1_655 S
C2087 C2086 1.366 1_455 S
C2087 C2088 1.414 . S
C2087 C2090 1.499 . S
C2088 H2068 0.950 . S
C2088 C2087 1.414 . S
C2088 C2089 1.374 . S
C2089 H2069 0.950 . S
C2089 C2085 1.385 . S
C2089 C2088 1.374 . S
C2090 C2087 1.499 . S
C2090 C2091 1.373 1_565 S
C2090 C2092 1.389 1_455 S
C2091 H2070 0.950 . S
C2091 C2090 1.373 1_545 S
C2091 C2107 1.377 . S
C2092 C2090 1.389 1_655 S
C2092 C2093 1.524 . S
C2092 C2106 1.377 . S
C2093 C2092 1.524 . S
C2093 C2094 1.397 . S
C2093 C2098 1.363 . S
C2094 H2071 0.950 . S
C2094 C2093 1.397 . S
C2094 C2095 1.334 . S
C2095 H2072 0.950 . S
C2095 C2094 1.334 . S
C2095 C2096 1.287 . S
C2096 C2095 1.287 . S
C2096 C2097 1.524 . S
C2096 H2115 0.913 . S
C2097 H2073 0.950 . S
C2097 C2096 1.524 . S
C2097 C2098 1.415 . S
C2098 H2074 0.950 . S
C2098 C2093 1.363 . S
C2098 C2097 1.415 . S
C2099 H2075 0.951 1_655 S
C2099 C2100 1.366 . S
C2099 C2101 1.388 1_655 S
C2100 C2099 1.366 . S
C2100 C2104 1.385 . S
C2101 H2076 0.951 1_545 S
C2101 C2099 1.388 1_455 S
C2101 C2102 1.366 1_455 S
C2102 C2101 1.366 1_655 S
C2102 C2103 1.414 . S
C2102 C2105 1.499 . S
C2103 H2077 0.950 . S
C2103 C2102 1.414 . S
C2103 C2104 1.374 . S
C2104 H2078 0.950 . S
C2104 C2100 1.385 . S
C2104 C2103 1.374 . S
C2105 C2102 1.499 . S
C2105 C2106 1.373 1_545 S
C2105 C2107 1.389 1_655 S
C2106 H2079 0.950 . S
C2106 C2092 1.377 . S
C2106 C2105 1.373 1_565 S
C2107 C2091 1.377 . S
C2107 C2105 1.389 1_455 S
C2107 C2108 1.524 . S
C2108 C2107 1.524 . S
C2108 C2109 1.397 . S
C2108 C2113 1.363 . S
C2109 H2080 0.950 . S
C2109 C2108 1.397 . S
C2109 C2110 1.334 . S
C2110 H2081 0.950 . S
C2110 C2109 1.334 . S
C2110 C2111 1.287 . S
C2111 C2110 1.287 . S
C2111 C2112 1.524 . S
C2111 H2114 0.999 . S
C2112 H2082 0.950 . S
C2112 C2111 1.524 . S
C2112 C2113 1.415 . S
C2113 H2083 0.950 . S
C2113 C2108 1.363 . S
C2113 C2112 1.415 . S
H2114 C2111 0.999 . S
H2115 C2096 0.913 . S
H2116 C2134 0.951 . S
H2117 C2136 0.951 . S
H2118 C2138 0.950 . S
H2119 C2139 0.950 . S
H2120 C2141 0.950 . S
H2121 C2144 0.950 . S
H2122 C2145 0.950 . S
H2123 C2147 0.950 . S
H2124 C2148 0.950 . S
H2125 C2149 0.951 . S
H2126 C2151 0.951 . S
H2127 C2153 0.950 . S
H2128 C2154 0.950 . S
H2129 C2156 0.950 . S
H2130 C2159 0.950 . S
H2131 C2160 0.950 . S
H2132 C2162 0.950 . S
H2133 C2163 0.950 . S
C2134 H2116 0.951 . S
C2134 C2135 1.366 . S
C2134 C2136 1.388 . S
C2135 C2134 1.366 . S
C2135 C2139 1.385 . S
C2136 H2117 0.951 . S
C2136 C2134 1.388 . S
C2136 C2137 1.366 . S
C2137 C2136 1.366 . S
C2137 C2138 1.414 . S
C2137 C2140 1.499 . S
C2138 H2118 0.950 . S
C2138 C2137 1.414 . S
C2138 C2139 1.374 . S
C2139 H2119 0.950 . S
C2139 C2135 1.385 . S
C2139 C2138 1.374 . S
C2140 C2137 1.499 . S
C2140 C2141 1.373 . S
C2140 C2142 1.389 . S
C2141 H2120 0.950 . S
C2141 C2140 1.373 . S
C2141 C2157 1.377 . S
C2142 C2140 1.389 . S
C2142 C2143 1.524 . S
C2142 C2156 1.377 . S
C2143 C2142 1.524 . S
C2143 C2144 1.397 . S
C2143 C2148 1.363 . S
C2144 H2121 0.950 . S
C2144 C2143 1.397 . S
C2144 C2145 1.334 . S
C2145 H2122 0.950 . S
C2145 C2144 1.334 . S
C2145 C2146 1.287 . S
C2146 C2145 1.287 . S
C2146 C2147 1.524 . S
C2146 H2165 0.913 . S
C2147 H2123 0.950 . S
C2147 C2146 1.524 . S
C2147 C2148 1.415 . S
C2148 H2124 0.950 . S
C2148 C2143 1.363 . S
C2148 C2147 1.415 . S
C2149 H2125 0.951 . S
C2149 C2150 1.366 . S
C2149 C2151 1.388 . S
C2150 C2149 1.366 . S
C2150 C2154 1.385 . S
C2151 H2126 0.951 . S
C2151 C2149 1.388 . S
C2151 C2152 1.366 . S
C2152 C2151 1.366 . S
C2152 C2153 1.414 . S
C2152 C2155 1.499 . S
C2153 H2127 0.950 . S
C2153 C2152 1.414 . S
C2153 C2154 1.374 . S
C2154 H2128 0.950 . S
C2154 C2150 1.385 . S
C2154 C2153 1.374 . S
C2155 C2152 1.499 . S
C2155 C2156 1.373 . S
C2155 C2157 1.389 . S
C2156 H2129 0.950 . S
C2156 C2142 1.377 . S
C2156 C2155 1.373 . S
C2157 C2141 1.377 . S
C2157 C2155 1.389 . S
C2157 C2158 1.524 . S
C2158 C2157 1.524 . S
C2158 C2159 1.397 . S
C2158 C2163 1.363 . S
C2159 H2130 0.950 . S
C2159 C2158 1.397 . S
C2159 C2160 1.334 . S
C2160 H2131 0.950 . S
C2160 C2159 1.334 . S
C2160 C2161 1.287 . S
C2161 C2160 1.287 . S
C2161 C2162 1.524 . S
C2161 H2164 0.999 . S
C2162 H2132 0.950 . S
C2162 C2161 1.524 . S
C2162 C2163 1.415 . S
C2163 H2133 0.950 . S
C2163 C2158 1.363 . S
C2163 C2162 1.415 . S
H2164 C2161 0.999 . S
H2165 C2146 0.913 . S
H2166 C2184 0.951 . S
H2167 C2186 0.951 . S
H2168 C2188 0.959 . S
H2169 C2189 0.950 . S
H2170 C2191 0.950 . S
H2171 C2194 0.950 . S
H2172 C2195 0.950 . S
H2173 C2197 0.950 . S
H2174 C2198 0.950 1_556 S
H2175 C2199 0.951 . S
H2176 C2201 0.951 . S
H2177 C2203 0.959 . S
H2178 C2204 0.950 . S
H2179 C2206 0.950 . S
H2180 C2209 0.950 . S
H2181 C2210 0.950 . S
H2182 C2212 0.950 . S
H2183 C2213 0.950 1_554 S
C2184 H2166 0.951 . S
C2184 C2185 1.366 . S
C2184 C2186 1.388 . S
C2185 C2184 1.366 . S
C2185 C2189 1.385 . S
C2186 H2167 0.951 . S
C2186 C2184 1.388 . S
C2186 C2187 1.366 . S
C2187 C2186 1.366 . S
C2187 C2188 1.414 . S
C2187 C2190 1.499 . S
C2188 H2168 0.959 . S
C2188 C2187 1.414 . S
C2188 C2189 1.374 . S
C2189 H2169 0.950 . S
C2189 C2185 1.385 . S
C2189 C2188 1.374 . S
C2190 C2187 1.499 . S
C2190 C2191 1.373 . S
C2190 C2192 1.389 1_545 S
C2191 H2170 0.950 . S
C2191 C2190 1.373 . S
C2191 C2207 1.377 1_554 S
C2192 C2190 1.389 1_565 S
C2192 C2193 1.524 . S
C2192 C2206 1.377 1_554 S
C2193 C2192 1.524 . S
C2193 C2194 1.397 . S
C2193 C2198 1.363 . S
C2194 H2171 0.950 . S
C2194 C2193 1.397 . S
C2194 C2195 1.334 . S
C2195 H2172 0.950 . S
C2195 C2194 1.334 . S
C2195 C2196 1.287 . S
C2196 C2195 1.287 . S
C2196 C2197 1.524 . S
C2196 H2215 0.913 . S
C2197 H2173 0.950 . S
C2197 C2196 1.524 . S
C2197 C2198 1.415 . S
C2198 H2174 0.950 1_554 S
C2198 C2193 1.363 . S
C2198 C2197 1.415 . S
C2199 H2175 0.951 . S
C2199 C2200 1.366 . S
C2199 C2201 1.388 . S
C2200 C2199 1.366 . S
C2200 C2204 1.385 . S
C2201 H2176 0.951 . S
C2201 C2199 1.388 . S
C2201 C2202 1.366 . S
C2202 C2201 1.366 . S
C2202 C2203 1.414 . S
C2202 C2205 1.499 . S
C2203 H2177 0.959 . S
C2203 C2202 1.414 . S
C2203 C2204 1.374 . S
C2204 H2178 0.950 . S
C2204 C2200 1.385 . S
C2204 C2203 1.374 . S
C2205 C2202 1.499 . S
C2205 C2206 1.373 . S
C2205 C2207 1.389 1_565 S
C2206 H2179 0.950 . S
C2206 C2192 1.377 1_556 S
C2206 C2205 1.373 . S
C2207 C2191 1.377 1_556 S
C2207 C2205 1.389 1_545 S
C2207 C2208 1.524 . S
C2208 C2207 1.524 . S
C2208 C2209 1.397 . S
C2208 C2213 1.363 . S
C2209 H2180 0.950 . S
C2209 C2208 1.397 . S
C2209 C2210 1.334 . S
C2210 H2181 0.950 . S
C2210 C2209 1.334 . S
C2210 C2211 1.287 . S
C2211 C2210 1.287 . S
C2211 C2212 1.524 . S
C2211 H2214 0.999 . S
C2212 H2182 0.950 . S
C2212 C2211 1.524 . S
C2212 C2213 1.415 . S
C2213 H2183 0.950 1_556 S
C2213 C2208 1.363 . S
C2213 C2212 1.415 . S
H2214 C2211 0.999 . S
H2215 C2196 0.913 . S
H2216 C2234 0.951 . S
H2217 C2236 0.951 . S
H2218 C2238 0.950 . S
H2219 C2239 0.950 . S
H2220 C2241 0.950 . S
H2221 C2244 0.950 . S
H2222 C2245 0.950 . S
H2223 C2247 0.950 . S
H2224 C2248 0.950 . S
H2225 C2249 0.951 . S
H2226 C2251 0.951 . S
H2227 C2253 0.950 . S
H2228 C2254 0.950 . S
H2229 C2256 0.950 . S
H2230 C2259 0.950 . S
H2231 C2260 0.950 . S
H2232 C2262 0.950 . S
H2233 C2263 0.950 . S
C2234 H2216 0.951 . S
C2234 C2235 1.366 . S
C2234 C2236 1.388 . S
C2235 C2234 1.366 . S
C2235 C2239 1.385 . S
C2236 H2217 0.951 . S
C2236 C2234 1.388 . S
C2236 C2237 1.366 . S
C2237 C2236 1.366 . S
C2237 C2238 1.414 . S
C2237 C2240 1.499 . S
C2238 H2218 0.950 . S
C2238 C2237 1.414 . S
C2238 C2239 1.374 . S
C2239 H2219 0.950 . S
C2239 C2235 1.385 . S
C2239 C2238 1.374 . S
C2240 C2237 1.499 . S
C2240 C2241 1.373 . S
C2240 C2242 1.389 . S
C2241 H2220 0.950 . S
C2241 C2240 1.373 . S
C2241 C2257 1.377 . S
C2242 C2240 1.389 . S
C2242 C2243 1.524 . S
C2242 C2256 1.377 . S
C2243 C2242 1.524 . S
C2243 C2244 1.397 . S
C2243 C2248 1.363 . S
C2244 H2221 0.950 . S
C2244 C2243 1.397 . S
C2244 C2245 1.334 . S
C2245 H2222 0.950 . S
C2245 C2244 1.334 . S
C2245 C2246 1.287 . S
C2246 C2245 1.287 . S
C2246 C2247 1.524 . S
C2246 H2265 0.913 . S
C2247 H2223 0.950 . S
C2247 C2246 1.524 . S
C2247 C2248 1.415 . S
C2248 H2224 0.950 . S
C2248 C2243 1.363 . S
C2248 C2247 1.415 . S
C2249 H2225 0.951 . S
C2249 C2250 1.366 . S
C2249 C2251 1.388 . S
C2250 C2249 1.366 . S
C2250 C2254 1.385 . S
C2251 H2226 0.951 . S
C2251 C2249 1.388 . S
C2251 C2252 1.366 . S
C2252 C2251 1.366 . S
C2252 C2253 1.414 . S
C2252 C2255 1.499 . S
C2253 H2227 0.950 . S
C2253 C2252 1.414 . S
C2253 C2254 1.374 . S
C2254 H2228 0.950 . S
C2254 C2250 1.385 . S
C2254 C2253 1.374 . S
C2255 C2252 1.499 . S
C2255 C2256 1.373 . S
C2255 C2257 1.389 . S
C2256 H2229 0.950 . S
C2256 C2242 1.377 . S
C2256 C2255 1.373 . S
C2257 C2241 1.377 . S
C2257 C2255 1.389 . S
C2257 C2258 1.524 . S
C2258 C2257 1.524 . S
C2258 C2259 1.397 . S
C2258 C2263 1.363 . S
C2259 H2230 0.950 . S
C2259 C2258 1.397 . S
C2259 C2260 1.334 . S
C2260 H2231 0.950 . S
C2260 C2259 1.334 . S
C2260 C2261 1.287 . S
C2261 C2260 1.287 . S
C2261 C2262 1.524 . S
C2261 H2264 0.999 . S
C2262 H2232 0.950 . S
C2262 C2261 1.524 . S
C2262 C2263 1.415 . S
C2263 H2233 0.950 . S
C2263 C2258 1.363 . S
C2263 C2262 1.415 . S
H2264 C2261 0.999 . S
H2265 C2246 0.913 . S
H2266 C2284 0.951 . S
H2267 C2286 0.951 . S
H2268 C2288 0.950 . S
H2269 C2289 0.950 . S
H2270 C2291 0.950 . S
H2271 C2294 0.956 . S
H2272 C2295 0.950 . S
H2273 C2297 0.950 . S
H2274 C2298 0.950 . S
H2275 C2299 0.951 . S
H2276 C2301 0.951 . S
H2277 C2303 0.950 . S
H2278 C2304 0.950 . S
H2279 C2306 0.950 . S
H2280 C2309 0.956 . S
H2281 C2310 0.950 . S
H2282 C2312 0.950 . S
H2283 C2313 0.950 . S
C2284 H2266 0.951 . S
C2284 C2285 1.366 1_545 S
C2284 C2286 1.388 . S
C2285 C2284 1.366 1_565 S
C2285 C2289 1.385 . S
C2286 H2267 0.951 . S
C2286 C2284 1.388 . S
C2286 C2287 1.366 1_545 S
C2287 C2286 1.366 1_565 S
C2287 C2288 1.414 . S
C2287 C2290 1.499 . S
C2288 H2268 0.950 . S
C2288 C2287 1.414 . S
C2288 C2289 1.374 . S
C2289 H2269 0.950 . S
C2289 C2285 1.385 . S
C2289 C2288 1.374 . S
C2290 C2287 1.499 . S
C2290 C2291 1.373 . S
C2290 C2292 1.389 1_565 S
C2291 H2270 0.950 . S
C2291 C2290 1.373 . S
C2291 C2307 1.377 . S
C2292 C2290 1.389 1_545 S
C2292 C2293 1.524 . S
C2292 C2306 1.377 . S
C2293 C2292 1.524 . S
C2293 C2294 1.397 . S
C2293 C2298 1.363 . S
C2294 H2271 0.956 . S
C2294 C2293 1.397 . S
C2294 C2295 1.334 . S
C2295 H2272 0.950 . S
C2295 C2294 1.334 . S
C2295 C2296 1.287 . S
C2296 C2295 1.287 . S
C2296 C2297 1.524 . S
C2296 H2315 0.913 . S
C2297 H2273 0.950 . S
C2297 C2296 1.524 . S
C2297 C2298 1.415 . S
C2298 H2274 0.950 . S
C2298 C2293 1.363 . S
C2298 C2297 1.415 . S
C2299 H2275 0.951 . S
C2299 C2300 1.366 1_565 S
C2299 C2301 1.388 . S
C2300 C2299 1.366 1_545 S
C2300 C2304 1.385 . S
C2301 H2276 0.951 . S
C2301 C2299 1.388 . S
C2301 C2302 1.366 1_565 S
C2302 C2301 1.366 1_545 S
C2302 C2303 1.414 . S
C2302 C2305 1.499 . S
C2303 H2277 0.950 . S
C2303 C2302 1.414 . S
C2303 C2304 1.374 . S
C2304 H2278 0.950 . S
C2304 C2300 1.385 . S
C2304 C2303 1.374 . S
C2305 C2302 1.499 . S
C2305 C2306 1.373 . S
C2305 C2307 1.389 1_545 S
C2306 H2279 0.950 . S
C2306 C2292 1.377 . S
C2306 C2305 1.373 . S
C2307 C2291 1.377 . S
C2307 C2305 1.389 1_565 S
C2307 C2308 1.524 . S
C2308 C2307 1.524 . S
C2308 C2309 1.397 . S
C2308 C2313 1.363 . S
C2309 H2280 0.956 . S
C2309 C2308 1.397 . S
C2309 C2310 1.334 . S
C2310 H2281 0.950 . S
C2310 C2309 1.334 . S
C2310 C2311 1.287 . S
C2311 C2310 1.287 . S
C2311 C2312 1.524 . S
C2311 H2314 0.999 . S
C2312 H2282 0.950 . S
C2312 C2311 1.524 . S
C2312 C2313 1.415 . S
C2313 H2283 0.950 . S
C2313 C2308 1.363 . S
C2313 C2312 1.415 . S
H2314 C2311 0.999 . S
H2315 C2296 0.913 . S
H2316 C2334 0.951 . S
H2317 C2336 0.951 . S
H2318 C2338 0.950 . S
H2319 C2339 0.950 . S
H2320 C2341 0.950 . S
H2321 C2344 0.950 . S
H2322 C2345 0.950 . S
H2323 C2347 0.950 . S
H2324 C2348 0.950 . S
H2325 C2349 0.951 . S
H2326 C2351 0.951 . S
H2327 C2353 0.950 . S
H2328 C2354 0.950 . S
H2329 C2356 0.950 . S
H2330 C2359 0.950 . S
H2331 C2360 0.950 . S
H2332 C2362 0.950 . S
H2333 C2363 0.950 . S
C2334 H2316 0.951 . S
C2334 C2335 1.366 . S
C2334 C2336 1.388 . S
C2335 C2334 1.366 . S
C2335 C2339 1.385 . S
C2336 H2317 0.951 . S
C2336 C2334 1.388 . S
C2336 C2337 1.366 . S
C2337 C2336 1.366 . S
C2337 C2338 1.414 . S
C2337 C2340 1.499 . S
C2338 H2318 0.950 . S
C2338 C2337 1.414 . S
C2338 C2339 1.374 . S
C2339 H2319 0.950 . S
C2339 C2335 1.385 . S
C2339 C2338 1.374 . S
C2340 C2337 1.499 . S
C2340 C2341 1.373 . S
C2340 C2342 1.389 . S
C2341 H2320 0.950 . S
C2341 C2340 1.373 . S
C2341 C2357 1.377 . S
C2342 C2340 1.389 . S
C2342 C2343 1.524 . S
C2342 C2356 1.377 . S
C2343 C2342 1.524 . S
C2343 C2344 1.397 . S
C2343 C2348 1.363 . S
C2344 H2321 0.950 . S
C2344 C2343 1.397 . S
C2344 C2345 1.334 . S
C2345 H2322 0.950 . S
C2345 C2344 1.334 . S
C2345 C2346 1.287 . S
C2346 C2345 1.287 . S
C2346 C2347 1.524 . S
C2346 H2365 0.913 . S
C2347 H2323 0.950 . S
C2347 C2346 1.524 . S
C2347 C2348 1.415 . S
C2348 H2324 0.950 . S
C2348 C2343 1.363 . S
C2348 C2347 1.415 . S
C2349 H2325 0.951 . S
C2349 C2350 1.366 . S
C2349 C2351 1.388 . S
C2350 C2349 1.366 . S
C2350 C2354 1.385 . S
C2351 H2326 0.951 . S
C2351 C2349 1.388 . S
C2351 C2352 1.366 . S
C2352 C2351 1.366 . S
C2352 C2353 1.414 . S
C2352 C2355 1.499 . S
C2353 H2327 0.950 . S
C2353 C2352 1.414 . S
C2353 C2354 1.374 . S
C2354 H2328 0.950 . S
C2354 C2350 1.385 . S
C2354 C2353 1.374 . S
C2355 C2352 1.499 . S
C2355 C2356 1.373 . S
C2355 C2357 1.389 . S
C2356 H2329 0.950 . S
C2356 C2342 1.377 . S
C2356 C2355 1.373 . S
C2357 C2341 1.377 . S
C2357 C2355 1.389 . S
C2357 C2358 1.524 . S
C2358 C2357 1.524 . S
C2358 C2359 1.397 . S
C2358 C2363 1.363 . S
C2359 H2330 0.950 . S
C2359 C2358 1.397 . S
C2359 C2360 1.334 . S
C2360 H2331 0.950 . S
C2360 C2359 1.334 . S
C2360 C2361 1.287 . S
C2361 C2360 1.287 . S
C2361 C2362 1.524 . S
C2361 H2364 0.999 . S
C2362 H2332 0.950 . S
C2362 C2361 1.524 . S
C2362 C2363 1.415 . S
C2363 H2333 0.950 . S
C2363 C2358 1.363 . S
C2363 C2362 1.415 . S
H2364 C2361 0.999 . S
H2365 C2346 0.913 . S
H2366 C2384 0.951 . S
H2367 C2386 0.951 . S
H2368 C2388 0.950 . S
H2369 C2389 0.950 . S
H2370 C2391 0.950 . S
H2371 C2394 0.950 1_545 S
H2372 C2395 0.950 1_545 S
H2373 C2397 0.950 . S
H2374 C2398 0.950 . S
H2375 C2399 0.951 . S
H2376 C2401 0.951 . S
H2377 C2403 0.950 . S
H2378 C2404 0.950 . S
H2379 C2406 0.950 . S
H2380 C2409 0.950 1_565 S
H2381 C2410 0.950 1_565 S
H2382 C2412 0.950 . S
H2383 C2413 0.950 . S
C2384 H2366 0.951 . S
C2384 C2385 1.366 1_565 S
C2384 C2386 1.388 . S
C2385 C2384 1.366 1_545 S
C2385 C2389 1.385 . S
C2386 H2367 0.951 . S
C2386 C2384 1.388 . S
C2386 C2387 1.366 1_565 S
C2387 C2386 1.366 1_545 S
C2387 C2388 1.414 . S
C2387 C2390 1.499 . S
C2388 H2368 0.950 . S
C2388 C2387 1.414 . S
C2388 C2389 1.374 . S
C2389 H2369 0.950 . S
C2389 C2385 1.385 . S
C2389 C2388 1.374 . S
C2390 C2387 1.499 . S
C2390 C2391 1.373 . S
C2390 C2392 1.389 1_445 S
C2391 H2370 0.950 . S
C2391 C2390 1.373 . S
C2391 C2407 1.377 1_556 S
C2392 C2390 1.389 1_665 S
C2392 C2393 1.524 . S
C2392 C2406 1.377 1_556 S
C2393 C2392 1.524 . S
C2393 C2394 1.397 . S
C2393 C2398 1.363 . S
C2394 H2371 0.950 1_565 S
C2394 C2393 1.397 . S
C2394 C2395 1.334 . S
C2395 H2372 0.950 1_565 S
C2395 C2394 1.334 . S
C2395 C2396 1.287 . S
C2396 C2395 1.287 . S
C2396 C2397 1.524 . S
C2396 H2415 0.913 . S
C2397 H2373 0.950 . S
C2397 C2396 1.524 . S
C2397 C2398 1.415 . S
C2398 H2374 0.950 . S
C2398 C2393 1.363 . S
C2398 C2397 1.415 . S
C2399 H2375 0.951 . S
C2399 C2400 1.366 1_545 S
C2399 C2401 1.388 . S
C2400 C2399 1.366 1_565 S
C2400 C2404 1.385 . S
C2401 H2376 0.951 . S
C2401 C2399 1.388 . S
C2401 C2402 1.366 1_545 S
C2402 C2401 1.366 1_565 S
C2402 C2403 1.414 . S
C2402 C2405 1.499 . S
C2403 H2377 0.950 . S
C2403 C2402 1.414 . S
C2403 C2404 1.374 . S
C2404 H2378 0.950 . S
C2404 C2400 1.385 . S
C2404 C2403 1.374 . S
C2405 C2402 1.499 . S
C2405 C2406 1.373 . S
C2405 C2407 1.389 1_665 S
C2406 H2379 0.950 . S
C2406 C2392 1.377 1_554 S
C2406 C2405 1.373 . S
C2407 C2391 1.377 1_554 S
C2407 C2405 1.389 1_445 S
C2407 C2408 1.524 . S
C2408 C2407 1.524 . S
C2408 C2409 1.397 . S
C2408 C2413 1.363 . S
C2409 H2380 0.950 1_545 S
C2409 C2408 1.397 . S
C2409 C2410 1.334 . S
C2410 H2381 0.950 1_545 S
C2410 C2409 1.334 . S
C2410 C2411 1.287 . S
C2411 C2410 1.287 . S
C2411 C2412 1.524 . S
C2411 H2414 0.999 . S
C2412 H2382 0.950 . S
C2412 C2411 1.524 . S
C2412 C2413 1.415 . S
C2413 H2383 0.950 . S
C2413 C2408 1.363 . S
C2413 C2412 1.415 . S
H2414 C2411 0.999 . S
H2415 C2396 0.913 . S
H2416 C2434 0.951 . S
H2417 C2436 0.951 . S
H2418 C2438 0.950 . S
H2419 C2439 0.950 . S
H2420 C2441 0.950 . S
H2421 C2444 0.950 . S
H2422 C2445 0.950 . S
H2423 C2447 0.950 . S
H2424 C2448 0.950 . S
H2425 C2449 0.951 . S
H2426 C2451 0.951 . S
H2427 C2453 0.950 . S
H2428 C2454 0.950 . S
H2429 C2456 0.950 . S
H2430 C2459 0.950 . S
H2431 C2460 0.950 . S
H2432 C2462 0.950 . S
H2433 C2463 0.950 . S
C2434 H2416 0.951 . S
C2434 C2435 1.366 . S
C2434 C2436 1.388 . S
C2435 C2434 1.366 . S
C2435 C2439 1.385 . S
C2436 H2417 0.951 . S
C2436 C2434 1.388 . S
C2436 C2437 1.366 . S
C2437 C2436 1.366 . S
C2437 C2438 1.414 . S
C2437 C2440 1.499 . S
C2438 H2418 0.950 . S
C2438 C2437 1.414 . S
C2438 C2439 1.374 . S
C2439 H2419 0.950 . S
C2439 C2435 1.385 . S
C2439 C2438 1.374 . S
C2440 C2437 1.499 . S
C2440 C2441 1.373 . S
C2440 C2442 1.389 . S
C2441 H2420 0.950 . S
C2441 C2440 1.373 . S
C2441 C2457 1.377 . S
C2442 C2440 1.389 . S
C2442 C2443 1.524 . S
C2442 C2456 1.377 . S
C2443 C2442 1.524 . S
C2443 C2444 1.397 . S
C2443 C2448 1.363 . S
C2444 H2421 0.950 . S
C2444 C2443 1.397 . S
C2444 C2445 1.334 . S
C2445 H2422 0.950 . S
C2445 C2444 1.334 . S
C2445 C2446 1.287 . S
C2446 C2445 1.287 . S
C2446 C2447 1.524 . S
C2446 H2465 0.913 . S
C2447 H2423 0.950 . S
C2447 C2446 1.524 . S
C2447 C2448 1.415 . S
C2448 H2424 0.950 . S
C2448 C2443 1.363 . S
C2448 C2447 1.415 . S
C2449 H2425 0.951 . S
C2449 C2450 1.366 . S
C2449 C2451 1.388 . S
C2450 C2449 1.366 . S
C2450 C2454 1.385 . S
C2451 H2426 0.951 . S
C2451 C2449 1.388 . S
C2451 C2452 1.366 . S
C2452 C2451 1.366 . S
C2452 C2453 1.414 . S
C2452 C2455 1.499 . S
C2453 H2427 0.950 . S
C2453 C2452 1.414 . S
C2453 C2454 1.374 . S
C2454 H2428 0.950 . S
C2454 C2450 1.385 . S
C2454 C2453 1.374 . S
C2455 C2452 1.499 . S
C2455 C2456 1.373 . S
C2455 C2457 1.389 . S
C2456 H2429 0.950 . S
C2456 C2442 1.377 . S
C2456 C2455 1.373 . S
C2457 C2441 1.377 . S
C2457 C2455 1.389 . S
C2457 C2458 1.524 . S
C2458 C2457 1.524 . S
C2458 C2459 1.397 . S
C2458 C2463 1.363 . S
C2459 H2430 0.950 . S
C2459 C2458 1.397 . S
C2459 C2460 1.334 . S
C2460 H2431 0.950 . S
C2460 C2459 1.334 . S
C2460 C2461 1.287 . S
C2461 C2460 1.287 . S
C2461 C2462 1.524 . S
C2461 H2464 0.999 . S
C2462 H2432 0.950 . S
C2462 C2461 1.524 . S
C2462 C2463 1.415 . S
C2463 H2433 0.950 . S
C2463 C2458 1.363 . S
C2463 C2462 1.415 . S
H2464 C2461 0.999 . S
H2465 C2446 0.913 . S
H2466 C2484 0.951 . S
H2467 C2486 0.951 . S
H2468 C2488 0.950 . S
H2469 C2489 0.950 . S
H2470 C2491 0.950 . S
H2471 C2494 0.950 . S
H2472 C2495 0.950 . S
H2473 C2497 0.950 . S
H2474 C2498 0.950 . S
H2475 C2499 0.951 . S
H2476 C2501 0.951 . S
H2477 C2503 0.950 . S
H2478 C2504 0.950 . S
H2479 C2506 0.950 . S
H2480 C2509 0.950 . S
H2481 C2510 0.950 . S
H2482 C2512 0.950 . S
H2483 C2513 0.950 . S
C2484 H2466 0.951 . S
C2484 C2485 1.366 . S
C2484 C2486 1.388 . S
C2485 C2484 1.366 . S
C2485 C2489 1.385 . S
C2486 H2467 0.951 . S
C2486 C2484 1.388 . S
C2486 C2487 1.366 . S
C2487 C2486 1.366 . S
C2487 C2488 1.414 . S
C2487 C2490 1.499 . S
C2488 H2468 0.950 . S
C2488 C2487 1.414 . S
C2488 C2489 1.374 . S
C2489 H2469 0.950 . S
C2489 C2485 1.385 . S
C2489 C2488 1.374 . S
C2490 C2487 1.499 . S
C2490 C2491 1.373 . S
C2490 C2492 1.389 . S
C2491 H2470 0.950 . S
C2491 C2490 1.373 . S
C2491 C2507 1.377 . S
C2492 C2490 1.389 . S
C2492 C2493 1.524 . S
C2492 C2506 1.377 . S
C2493 C2492 1.524 . S
C2493 C2494 1.397 . S
C2493 C2498 1.363 . S
C2494 H2471 0.950 . S
C2494 C2493 1.397 . S
C2494 C2495 1.334 . S
C2495 H2472 0.950 . S
C2495 C2494 1.334 . S
C2495 C2496 1.287 . S
C2496 C2495 1.287 . S
C2496 C2497 1.524 . S
C2496 H2515 0.913 . S
C2497 H2473 0.950 . S
C2497 C2496 1.524 . S
C2497 C2498 1.415 . S
C2498 H2474 0.950 . S
C2498 C2493 1.363 . S
C2498 C2497 1.415 . S
C2499 H2475 0.951 . S
C2499 C2500 1.366 . S
C2499 C2501 1.388 . S
C2500 C2499 1.366 . S
C2500 C2504 1.385 . S
C2501 H2476 0.951 . S
C2501 C2499 1.388 . S
C2501 C2502 1.366 . S
C2502 C2501 1.366 . S
C2502 C2503 1.414 . S
C2502 C2505 1.499 . S
C2503 H2477 0.950 . S
C2503 C2502 1.414 . S
C2503 C2504 1.374 . S
C2504 H2478 0.950 . S
C2504 C2500 1.385 . S
C2504 C2503 1.374 . S
C2505 C2502 1.499 . S
C2505 C2506 1.373 . S
C2505 C2507 1.389 . S
C2506 H2479 0.950 . S
C2506 C2492 1.377 . S
C2506 C2505 1.373 . S
C2507 C2491 1.377 . S
C2507 C2505 1.389 . S
C2507 C2508 1.524 . S
C2508 C2507 1.524 . S
C2508 C2509 1.397 . S
C2508 C2513 1.363 . S
C2509 H2480 0.950 . S
C2509 C2508 1.397 . S
C2509 C2510 1.334 . S
C2510 H2481 0.950 . S
C2510 C2509 1.334 . S
C2510 C2511 1.287 . S
C2511 C2510 1.287 . S
C2511 C2512 1.524 . S
C2511 H2514 0.999 . S
C2512 H2482 0.950 . S
C2512 C2511 1.524 . S
C2512 C2513 1.415 . S
C2513 H2483 0.950 . S
C2513 C2508 1.363 . S
C2513 C2512 1.415 . S
H2514 C2511 0.999 . S
H2515 C2496 0.913 . S
H2516 C2534 0.951 . S
H2517 C2536 0.951 . S
H2518 C2538 0.950 . S
H2519 C2539 0.950 . S
H2520 C2541 0.950 . S
H2521 C2544 0.950 . S
H2522 C2545 0.950 . S
H2523 C2547 0.950 . S
H2524 C2548 0.950 . S
H2525 C2549 0.951 . S
H2526 C2551 0.951 . S
H2527 C2553 0.950 . S
H2528 C2554 0.950 . S
H2529 C2556 0.950 . S
H2530 C2559 0.950 . S
H2531 C2560 0.950 . S
H2532 C2562 0.950 . S
H2533 C2563 0.950 . S
C2534 H2516 0.951 . S
C2534 C2535 1.366 . S
C2534 C2536 1.388 . S
C2535 C2534 1.366 . S
C2535 C2539 1.385 . S
C2536 H2517 0.951 . S
C2536 C2534 1.388 . S
C2536 C2537 1.366 . S
C2537 C2536 1.366 . S
C2537 C2538 1.414 . S
C2537 C2540 1.499 . S
C2538 H2518 0.950 . S
C2538 C2537 1.414 . S
C2538 C2539 1.374 . S
C2539 H2519 0.950 . S
C2539 C2535 1.385 . S
C2539 C2538 1.374 . S
C2540 C2537 1.499 . S
C2540 C2541 1.373 . S
C2540 C2542 1.389 . S
C2541 H2520 0.950 . S
C2541 C2540 1.373 . S
C2541 C2557 1.377 . S
C2542 C2540 1.389 . S
C2542 C2543 1.524 . S
C2542 C2556 1.377 . S
C2543 C2542 1.524 . S
C2543 C2544 1.397 . S
C2543 C2548 1.363 . S
C2544 H2521 0.950 . S
C2544 C2543 1.397 . S
C2544 C2545 1.334 . S
C2545 H2522 0.950 . S
C2545 C2544 1.334 . S
C2545 C2546 1.287 . S
C2546 C2545 1.287 . S
C2546 C2547 1.524 . S
C2546 H2565 0.913 . S
C2547 H2523 0.950 . S
C2547 C2546 1.524 . S
C2547 C2548 1.415 . S
C2548 H2524 0.950 . S
C2548 C2543 1.363 . S
C2548 C2547 1.415 . S
C2549 H2525 0.951 . S
C2549 C2550 1.366 . S
C2549 C2551 1.388 . S
C2550 C2549 1.366 . S
C2550 C2554 1.385 . S
C2551 H2526 0.951 . S
C2551 C2549 1.388 . S
C2551 C2552 1.366 . S
C2552 C2551 1.366 . S
C2552 C2553 1.414 . S
C2552 C2555 1.499 . S
C2553 H2527 0.950 . S
C2553 C2552 1.414 . S
C2553 C2554 1.374 . S
C2554 H2528 0.950 . S
C2554 C2550 1.385 . S
C2554 C2553 1.374 . S
C2555 C2552 1.499 . S
C2555 C2556 1.373 . S
C2555 C2557 1.389 . S
C2556 H2529 0.950 . S
C2556 C2542 1.377 . S
C2556 C2555 1.373 . S
C2557 C2541 1.377 . S
C2557 C2555 1.389 . S
C2557 C2558 1.524 . S
C2558 C2557 1.524 . S
C2558 C2559 1.397 . S
C2558 C2563 1.363 . S
C2559 H2530 0.950 . S
C2559 C2558 1.397 . S
C2559 C2560 1.334 . S
C2560 H2531 0.950 . S
C2560 C2559 1.334 . S
C2560 C2561 1.287 . S
C2561 C2560 1.287 . S
C2561 C2562 1.524 . S
C2561 H2564 0.999 . S
C2562 H2532 0.950 . S
C2562 C2561 1.524 . S
C2562 C2563 1.415 . S
C2563 H2533 0.950 . S
C2563 C2558 1.363 . S
C2563 C2562 1.415 . S
H2564 C2561 0.999 . S
H2565 C2546 0.913 . S
H2566 C2584 0.951 . S
H2567 C2586 0.951 . S
H2568 C2588 0.950 . S
H2569 C2589 0.950 . S
H2570 C2591 0.950 . S
H2571 C2594 0.950 . S
H2572 C2595 0.950 . S
H2573 C2597 0.950 . S
H2574 C2598 0.950 . S
H2575 C2599 0.951 . S
H2576 C2601 0.951 . S
H2577 C2603 0.950 . S
H2578 C2604 0.950 . S
H2579 C2606 0.950 . S
H2580 C2609 0.950 . S
H2581 C2610 0.950 . S
H2582 C2612 0.950 . S
H2583 C2613 0.950 . S
C2584 H2566 0.951 . S
C2584 C2585 1.366 . S
C2584 C2586 1.388 . S
C2585 C2584 1.366 . S
C2585 C2589 1.385 . S
C2586 H2567 0.951 . S
C2586 C2584 1.388 . S
C2586 C2587 1.366 . S
C2587 C2586 1.366 . S
C2587 C2588 1.414 . S
C2587 C2590 1.499 . S
C2588 H2568 0.950 . S
C2588 C2587 1.414 . S
C2588 C2589 1.374 . S
C2589 H2569 0.950 . S
C2589 C2585 1.385 . S
C2589 C2588 1.374 . S
C2590 C2587 1.499 . S
C2590 C2591 1.373 . S
C2590 C2592 1.389 . S
C2591 H2570 0.950 . S
C2591 C2590 1.373 . S
C2591 C2607 1.377 . S
C2592 C2590 1.389 . S
C2592 C2593 1.524 . S
C2592 C2606 1.377 . S
C2593 C2592 1.524 . S
C2593 C2594 1.397 . S
C2593 C2598 1.363 . S
C2594 H2571 0.950 . S
C2594 C2593 1.397 . S
C2594 C2595 1.334 . S
C2595 H2572 0.950 . S
C2595 C2594 1.334 . S
C2595 C2596 1.287 . S
C2596 C2595 1.287 . S
C2596 C2597 1.524 . S
C2596 H2615 0.913 . S
C2597 H2573 0.950 . S
C2597 C2596 1.524 . S
C2597 C2598 1.415 . S
C2598 H2574 0.950 . S
C2598 C2593 1.363 . S
C2598 C2597 1.415 . S
C2599 H2575 0.951 . S
C2599 C2600 1.366 . S
C2599 C2601 1.388 . S
C2600 C2599 1.366 . S
C2600 C2604 1.385 . S
C2601 H2576 0.951 . S
C2601 C2599 1.388 . S
C2601 C2602 1.366 . S
C2602 C2601 1.366 . S
C2602 C2603 1.414 . S
C2602 C2605 1.499 . S
C2603 H2577 0.950 . S
C2603 C2602 1.414 . S
C2603 C2604 1.374 . S
C2604 H2578 0.950 . S
C2604 C2600 1.385 . S
C2604 C2603 1.374 . S
C2605 C2602 1.499 . S
C2605 C2606 1.373 . S
C2605 C2607 1.389 . S
C2606 H2579 0.950 . S
C2606 C2592 1.377 . S
C2606 C2605 1.373 . S
C2607 C2591 1.377 . S
C2607 C2605 1.389 . S
C2607 C2608 1.524 . S
C2608 C2607 1.524 . S
C2608 C2609 1.397 . S
C2608 C2613 1.363 . S
C2609 H2580 0.950 . S
C2609 C2608 1.397 . S
C2609 C2610 1.334 . S
C2610 H2581 0.950 . S
C2610 C2609 1.334 . S
C2610 C2611 1.287 . S
C2611 C2610 1.287 . S
C2611 C2612 1.524 . S
C2611 H2614 0.999 . S
C2612 H2582 0.950 . S
C2612 C2611 1.524 . S
C2612 C2613 1.415 . S
C2613 H2583 0.950 . S
C2613 C2608 1.363 . S
C2613 C2612 1.415 . S
H2614 C2611 0.999 . S
H2615 C2596 0.913 . S
H2616 C2634 0.951 . S
H2617 C2636 0.951 . S
H2618 C2638 0.950 . S
H2619 C2639 0.950 . S
H2620 C2641 0.950 . S
H2621 C2644 0.950 . S
H2622 C2645 0.950 . S
H2623 C2647 0.950 . S
H2624 C2648 0.950 . S
H2625 C2649 0.951 . S
H2626 C2651 0.951 . S
H2627 C2653 0.950 . S
H2628 C2654 0.950 . S
H2629 C2656 0.950 . S
H2630 C2659 0.950 . S
H2631 C2660 0.950 . S
H2632 C2662 0.950 . S
H2633 C2663 0.950 . S
C2634 H2616 0.951 . S
C2634 C2635 1.366 . S
C2634 C2636 1.388 . S
C2635 C2634 1.366 . S
C2635 C2639 1.385 . S
C2636 H2617 0.951 . S
C2636 C2634 1.388 . S
C2636 C2637 1.366 . S
C2637 C2636 1.366 . S
C2637 C2638 1.414 . S
C2637 C2640 1.499 . S
C2638 H2618 0.950 . S
C2638 C2637 1.414 . S
C2638 C2639 1.374 . S
C2639 H2619 0.950 . S
C2639 C2635 1.385 . S
C2639 C2638 1.374 . S
C2640 C2637 1.499 . S
C2640 C2641 1.373 . S
C2640 C2642 1.389 . S
C2641 H2620 0.950 . S
C2641 C2640 1.373 . S
C2641 C2657 1.377 1_554 S
C2642 C2640 1.389 . S
C2642 C2643 1.524 . S
C2642 C2656 1.377 1_554 S
C2643 C2642 1.524 . S
C2643 C2644 1.397 . S
C2643 C2648 1.363 . S
C2644 H2621 0.950 . S
C2644 C2643 1.397 . S
C2644 C2645 1.334 . S
C2645 H2622 0.950 . S
C2645 C2644 1.334 . S
C2645 C2646 1.287 . S
C2646 C2645 1.287 . S
C2646 C2647 1.524 . S
C2646 H2665 0.913 . S
C2647 H2623 0.950 . S
C2647 C2646 1.524 . S
C2647 C2648 1.415 . S
C2648 H2624 0.950 . S
C2648 C2643 1.363 . S
C2648 C2647 1.415 . S
C2649 H2625 0.951 . S
C2649 C2650 1.366 . S
C2649 C2651 1.388 . S
C2650 C2649 1.366 . S
C2650 C2654 1.385 . S
C2651 H2626 0.951 . S
C2651 C2649 1.388 . S
C2651 C2652 1.366 . S
C2652 C2651 1.366 . S
C2652 C2653 1.414 . S
C2652 C2655 1.499 . S
C2653 H2627 0.950 . S
C2653 C2652 1.414 . S
C2653 C2654 1.374 . S
C2654 H2628 0.950 . S
C2654 C2650 1.385 . S
C2654 C2653 1.374 . S
C2655 C2652 1.499 . S
C2655 C2656 1.373 . S
C2655 C2657 1.389 . S
C2656 H2629 0.950 . S
C2656 C2642 1.377 1_556 S
C2656 C2655 1.373 . S
C2657 C2641 1.377 1_556 S
C2657 C2655 1.389 . S
C2657 C2658 1.524 . S
C2658 C2657 1.524 . S
C2658 C2659 1.397 . S
C2658 C2663 1.363 . S
C2659 H2630 0.950 . S
C2659 C2658 1.397 . S
C2659 C2660 1.334 . S
C2660 H2631 0.950 . S
C2660 C2659 1.334 . S
C2660 C2661 1.287 . S
C2661 C2660 1.287 . S
C2661 C2662 1.524 . S
C2661 H2664 0.999 . S
C2662 H2632 0.950 . S
C2662 C2661 1.524 . S
C2662 C2663 1.415 . S
C2663 H2633 0.950 . S
C2663 C2658 1.363 . S
C2663 C2662 1.415 . S
H2664 C2661 0.999 . S
H2665 C2646 0.913 . S
H2666 C2684 0.951 . S
H2667 C2686 0.951 . S
H2668 C2688 0.950 . S
H2669 C2689 0.950 . S
H2670 C2691 0.950 . S
H2671 C2694 0.950 . S
H2672 C2695 0.950 . S
H2673 C2697 0.950 . S
H2674 C2698 0.950 . S
H2675 C2699 0.951 . S
H2676 C2701 0.951 . S
H2677 C2703 0.950 . S
H2678 C2704 0.950 . S
H2679 C2706 0.950 . S
H2680 C2709 0.950 . S
H2681 C2710 0.950 . S
H2682 C2712 0.950 . S
H2683 C2713 0.950 . S
C2684 H2666 0.951 . S
C2684 C2685 1.366 . S
C2684 C2686 1.388 . S
C2685 C2684 1.366 . S
C2685 C2689 1.385 . S
C2686 H2667 0.951 . S
C2686 C2684 1.388 . S
C2686 C2687 1.366 . S
C2687 C2686 1.366 . S
C2687 C2688 1.414 . S
C2687 C2690 1.499 . S
C2688 H2668 0.950 . S
C2688 C2687 1.414 . S
C2688 C2689 1.374 . S
C2689 H2669 0.950 . S
C2689 C2685 1.385 . S
C2689 C2688 1.374 . S
C2690 C2687 1.499 . S
C2690 C2691 1.373 1_455 S
C2690 C2692 1.389 . S
C2691 H2670 0.950 . S
C2691 C2690 1.373 1_655 S
C2691 C2707 1.377 . S
C2692 C2690 1.389 . S
C2692 C2693 1.524 . S
C2692 C2706 1.377 . S
C2693 C2692 1.524 . S
C2693 C2694 1.397 . S
C2693 C2698 1.363 . S
C2694 H2671 0.950 . S
C2694 C2693 1.397 . S
C2694 C2695 1.334 . S
C2695 H2672 0.950 . S
C2695 C2694 1.334 . S
C2695 C2696 1.287 . S
C2696 C2695 1.287 . S
C2696 C2697 1.524 . S
C2696 H2715 0.913 . S
C2697 H2673 0.950 . S
C2697 C2696 1.524 . S
C2697 C2698 1.415 . S
C2698 H2674 0.950 . S
C2698 C2693 1.363 . S
C2698 C2697 1.415 . S
C2699 H2675 0.951 . S
C2699 C2700 1.366 . S
C2699 C2701 1.388 . S
C2700 C2699 1.366 . S
C2700 C2704 1.385 . S
C2701 H2676 0.951 . S
C2701 C2699 1.388 . S
C2701 C2702 1.366 . S
C2702 C2701 1.366 . S
C2702 C2703 1.414 . S
C2702 C2705 1.499 . S
C2703 H2677 0.950 . S
C2703 C2702 1.414 . S
C2703 C2704 1.374 . S
C2704 H2678 0.950 . S
C2704 C2700 1.385 . S
C2704 C2703 1.374 . S
C2705 C2702 1.499 . S
C2705 C2706 1.373 1_655 S
C2705 C2707 1.389 . S
C2706 H2679 0.950 . S
C2706 C2692 1.377 . S
C2706 C2705 1.373 1_455 S
C2707 C2691 1.377 . S
C2707 C2705 1.389 . S
C2707 C2708 1.524 . S
C2708 C2707 1.524 . S
C2708 C2709 1.397 . S
C2708 C2713 1.363 . S
C2709 H2680 0.950 . S
C2709 C2708 1.397 . S
C2709 C2710 1.334 . S
C2710 H2681 0.950 . S
C2710 C2709 1.334 . S
C2710 C2711 1.287 . S
C2711 C2710 1.287 . S
C2711 C2712 1.524 . S
C2711 H2714 0.999 . S
C2712 H2682 0.950 . S
C2712 C2711 1.524 . S
C2712 C2713 1.415 . S
C2713 H2683 0.950 . S
C2713 C2708 1.363 . S
C2713 C2712 1.415 . S
H2714 C2711 0.999 . S
H2715 C2696 0.913 . S
H2716 C2734 0.951 . S
H2717 C2736 0.951 . S
H2718 C2738 0.950 . S
H2719 C2739 0.950 1_655 S
H2720 C2741 0.950 . S
H2721 C2744 0.950 . S
H2722 C2745 0.950 . S
H2723 C2747 0.968 . S
H2724 C2748 0.950 . S
H2725 C2749 0.951 . S
H2726 C2751 0.951 . S
H2727 C2753 0.950 . S
H2728 C2754 0.950 1_455 S
H2729 C2756 0.950 . S
H2730 C2759 0.950 . S
H2731 C2760 0.950 . S
H2732 C2762 0.968 . S
H2733 C2763 0.950 . S
C2734 H2716 0.951 . S
C2734 C2735 1.366 . S
C2734 C2736 1.388 . S
C2735 C2734 1.366 . S
C2735 C2739 1.385 . S
C2736 H2717 0.951 . S
C2736 C2734 1.388 . S
C2736 C2737 1.366 . S
C2737 C2736 1.366 . S
C2737 C2738 1.414 1_455 S
C2737 C2740 1.499 . S
C2738 H2718 0.950 . S
C2738 C2737 1.414 1_655 S
C2738 C2739 1.374 1_655 S
C2739 H2719 0.950 1_455 S
C2739 C2735 1.385 . S
C2739 C2738 1.374 1_455 S
C2740 C2737 1.499 . S
C2740 C2741 1.373 1_455 S
C2740 C2742 1.389 . S
C2741 H2720 0.950 . S
C2741 C2740 1.373 1_655 S
C2741 C2757 1.377 1_554 S
C2742 C2740 1.389 . S
C2742 C2743 1.524 . S
C2742 C2756 1.377 1_554 S
C2743 C2742 1.524 . S
C2743 C2744 1.397 . S
C2743 C2748 1.363 1_554 S
C2744 H2721 0.950 . S
C2744 C2743 1.397 . S
C2744 C2745 1.334 . S
C2745 H2722 0.950 . S
C2745 C2744 1.334 . S
C2745 C2746 1.287 . S
C2746 C2745 1.287 . S
C2746 C2747 1.501 1_554 S
C2746 H2765 0.913 . S
C2747 H2723 0.968 . S
C2747 C2746 1.501 1_556 S
C2747 C2748 1.419 . S
C2748 H2724 0.950 . S
C2748 C2743 1.363 1_556 S
C2748 C2747 1.419 . S
C2749 H2725 0.951 . S
C2749 C2750 1.366 . S
C2749 C2751 1.388 . S
C2750 C2749 1.366 . S
C2750 C2754 1.385 . S
C2751 H2726 0.951 . S
C2751 C2749 1.388 . S
C2751 C2752 1.366 . S
C2752 C2751 1.366 . S
C2752 C2753 1.414 1_655 S
C2752 C2755 1.499 . S
C2753 H2727 0.950 . S
C2753 C2752 1.414 1_455 S
C2753 C2754 1.374 1_455 S
C2754 H2728 0.950 1_655 S
C2754 C2750 1.385 . S
C2754 C2753 1.374 1_655 S
C2755 C2752 1.499 . S
C2755 C2756 1.373 1_655 S
C2755 C2757 1.389 . S
C2756 H2729 0.950 . S
C2756 C2742 1.377 1_556 S
C2756 C2755 1.373 1_455 S
C2757 C2741 1.377 1_556 S
C2757 C2755 1.389 . S
C2757 C2758 1.524 . S
C2758 C2757 1.524 . S
C2758 C2759 1.397 . S
C2758 C2763 1.363 1_556 S
C2759 H2730 0.950 . S
C2759 C2758 1.397 . S
C2759 C2760 1.334 . S
C2760 H2731 0.950 . S
C2760 C2759 1.334 . S
C2760 C2761 1.287 . S
C2761 C2760 1.287 . S
C2761 C2762 1.501 1_556 S
C2761 H2764 0.999 . S
C2762 H2732 0.968 . S
C2762 C2761 1.501 1_554 S
C2762 C2763 1.419 . S
C2763 H2733 0.950 . S
C2763 C2758 1.363 1_554 S
C2763 C2762 1.419 . S
H2764 C2761 0.999 . S
H2765 C2746 0.913 . S
H2766 C2784 0.951 . S
H2767 C2786 0.951 . S
H2768 C2788 0.950 . S
H2769 C2789 0.950 . S
H2770 C2791 0.950 . S
H2771 C2794 0.950 . S
H2772 C2795 0.950 . S
H2773 C2797 0.950 . S
H2774 C2798 0.950 . S
H2775 C2799 0.951 . S
H2776 C2801 0.951 . S
H2777 C2803 0.950 . S
H2778 C2804 0.950 . S
H2779 C2806 0.950 . S
H2780 C2809 0.950 . S
H2781 C2810 0.950 . S
H2782 C2812 0.950 . S
H2783 C2813 0.950 . S
C2784 H2766 0.951 . S
C2784 C2785 1.366 . S
C2784 C2786 1.388 . S
C2785 C2784 1.366 . S
C2785 C2789 1.385 . S
C2786 H2767 0.951 . S
C2786 C2784 1.388 . S
C2786 C2787 1.366 . S
C2787 C2786 1.366 . S
C2787 C2788 1.414 . S
C2787 C2790 1.499 . S
C2788 H2768 0.950 . S
C2788 C2787 1.414 . S
C2788 C2789 1.374 . S
C2789 H2769 0.950 . S
C2789 C2785 1.385 . S
C2789 C2788 1.374 . S
C2790 C2787 1.499 . S
C2790 C2791 1.373 . S
C2790 C2792 1.389 . S
C2791 H2770 0.950 . S
C2791 C2790 1.373 . S
C2791 C2807 1.377 . S
C2792 C2790 1.389 . S
C2792 C2793 1.524 . S
C2792 C2806 1.377 . S
C2793 C2792 1.524 . S
C2793 C2794 1.397 . S
C2793 C2798 1.363 . S
C2794 H2771 0.950 . S
C2794 C2793 1.397 . S
C2794 C2795 1.334 . S
C2795 H2772 0.950 . S
C2795 C2794 1.334 . S
C2795 C2796 1.287 . S
C2796 C2795 1.287 . S
C2796 C2797 1.524 . S
C2796 H2815 0.913 . S
C2797 H2773 0.950 . S
C2797 C2796 1.524 . S
C2797 C2798 1.415 . S
C2798 H2774 0.950 . S
C2798 C2793 1.363 . S
C2798 C2797 1.415 . S
C2799 H2775 0.951 . S
C2799 C2800 1.366 . S
C2799 C2801 1.388 . S
C2800 C2799 1.366 . S
C2800 C2804 1.385 . S
C2801 H2776 0.951 . S
C2801 C2799 1.388 . S
C2801 C2802 1.366 . S
C2802 C2801 1.366 . S
C2802 C2803 1.414 . S
C2802 C2805 1.499 . S
C2803 H2777 0.950 . S
C2803 C2802 1.414 . S
C2803 C2804 1.374 . S
C2804 H2778 0.950 . S
C2804 C2800 1.385 . S
C2804 C2803 1.374 . S
C2805 C2802 1.499 . S
C2805 C2806 1.373 . S
C2805 C2807 1.389 . S
C2806 H2779 0.950 . S
C2806 C2792 1.377 . S
C2806 C2805 1.373 . S
C2807 C2791 1.377 . S
C2807 C2805 1.389 . S
C2807 C2808 1.524 . S
C2808 C2807 1.524 . S
C2808 C2809 1.397 . S
C2808 C2813 1.363 . S
C2809 H2780 0.950 . S
C2809 C2808 1.397 . S
C2809 C2810 1.334 . S
C2810 H2781 0.950 . S
C2810 C2809 1.334 . S
C2810 C2811 1.287 . S
C2811 C2810 1.287 . S
C2811 C2812 1.524 . S
C2811 H2814 0.999 . S
C2812 H2782 0.950 . S
C2812 C2811 1.524 . S
C2812 C2813 1.415 . S
C2813 H2783 0.950 . S
C2813 C2808 1.363 . S
C2813 C2812 1.415 . S
H2814 C2811 0.999 . S
H2815 C2796 0.913 . S
H2816 C2834 0.951 . S
H2817 C2836 0.951 . S
H2818 C2838 0.950 . S
H2819 C2839 0.950 . S
H2820 C2841 0.950 . S
H2821 C2844 0.950 . S
H2822 C2845 0.950 . S
H2823 C2847 0.950 . S
H2824 C2848 0.950 . S
H2825 C2849 0.951 . S
H2826 C2851 0.951 . S
H2827 C2853 0.950 . S
H2828 C2854 0.950 . S
H2829 C2856 0.950 . S
H2830 C2859 0.950 . S
H2831 C2860 0.950 . S
H2832 C2862 0.950 . S
H2833 C2863 0.950 . S
C2834 H2816 0.951 . S
C2834 C2835 1.366 . S
C2834 C2836 1.388 . S
C2835 C2834 1.366 . S
C2835 C2839 1.385 . S
C2836 H2817 0.951 . S
C2836 C2834 1.388 . S
C2836 C2837 1.366 . S
C2837 C2836 1.366 . S
C2837 C2838 1.414 . S
C2837 C2840 1.499 . S
C2838 H2818 0.950 . S
C2838 C2837 1.414 . S
C2838 C2839 1.374 . S
C2839 H2819 0.950 . S
C2839 C2835 1.385 . S
C2839 C2838 1.374 . S
C2840 C2837 1.499 . S
C2840 C2841 1.373 . S
C2840 C2842 1.389 . S
C2841 H2820 0.950 . S
C2841 C2840 1.373 . S
C2841 C2857 1.377 . S
C2842 C2840 1.389 . S
C2842 C2843 1.524 . S
C2842 C2856 1.377 . S
C2843 C2842 1.524 . S
C2843 C2844 1.397 . S
C2843 C2848 1.363 . S
C2844 H2821 0.950 . S
C2844 C2843 1.397 . S
C2844 C2845 1.334 . S
C2845 H2822 0.950 . S
C2845 C2844 1.334 . S
C2845 C2846 1.287 . S
C2846 C2845 1.287 . S
C2846 C2847 1.524 . S
C2846 H2865 0.913 . S
C2847 H2823 0.950 . S
C2847 C2846 1.524 . S
C2847 C2848 1.415 . S
C2848 H2824 0.950 . S
C2848 C2843 1.363 . S
C2848 C2847 1.415 . S
C2849 H2825 0.951 . S
C2849 C2850 1.366 . S
C2849 C2851 1.388 . S
C2850 C2849 1.366 . S
C2850 C2854 1.385 . S
C2851 H2826 0.951 . S
C2851 C2849 1.388 . S
C2851 C2852 1.366 . S
C2852 C2851 1.366 . S
C2852 C2853 1.414 . S
C2852 C2855 1.499 . S
C2853 H2827 0.950 . S
C2853 C2852 1.414 . S
C2853 C2854 1.374 . S
C2854 H2828 0.950 . S
C2854 C2850 1.385 . S
C2854 C2853 1.374 . S
C2855 C2852 1.499 . S
C2855 C2856 1.373 . S
C2855 C2857 1.389 . S
C2856 H2829 0.950 . S
C2856 C2842 1.377 . S
C2856 C2855 1.373 . S
C2857 C2841 1.377 . S
C2857 C2855 1.389 . S
C2857 C2858 1.524 . S
C2858 C2857 1.524 . S
C2858 C2859 1.397 . S
C2858 C2863 1.363 . S
C2859 H2830 0.950 . S
C2859 C2858 1.397 . S
C2859 C2860 1.334 . S
C2860 H2831 0.950 . S
C2860 C2859 1.334 . S
C2860 C2861 1.287 . S
C2861 C2860 1.287 . S
C2861 C2862 1.524 . S
C2861 H2864 0.961 1_545 S
C2862 H2832 0.950 . S
C2862 C2861 1.524 . S
C2862 C2863 1.415 . S
C2863 H2833 0.950 . S
C2863 C2858 1.363 . S
C2863 C2862 1.415 . S
H2864 C2861 0.961 1_565 S
H2865 C2846 0.913 . S
H2866 C2884 0.951 . S
H2867 C2886 0.951 . S
H2868 C2888 0.950 . S
H2869 C2889 0.950 . S
H2870 C2891 0.950 . S
H2871 C2894 0.950 . S
H2872 C2895 0.950 . S
H2873 C2897 0.950 . S
H2874 C2898 0.950 . S
H2875 C2899 0.951 . S
H2876 C2901 0.951 . S
H2877 C2903 0.950 . S
H2878 C2904 0.950 . S
H2879 C2906 0.950 . S
H2880 C2909 0.950 . S
H2881 C2910 0.950 . S
H2882 C2912 0.950 . S
H2883 C2913 0.950 . S
C2884 H2866 0.951 . S
C2884 C2885 1.366 . S
C2884 C2886 1.388 . S
C2885 C2884 1.366 . S
C2885 C2889 1.385 . S
C2886 H2867 0.951 . S
C2886 C2884 1.388 . S
C2886 C2887 1.366 . S
C2887 C2886 1.366 . S
C2887 C2888 1.414 . S
C2887 C2890 1.499 . S
C2888 H2868 0.950 . S
C2888 C2887 1.414 . S
C2888 C2889 1.374 . S
C2889 H2869 0.950 . S
C2889 C2885 1.385 . S
C2889 C2888 1.374 . S
C2890 C2887 1.499 . S
C2890 C2891 1.373 . S
C2890 C2892 1.389 . S
C2891 H2870 0.950 . S
C2891 C2890 1.373 . S
C2891 C2907 1.377 . S
C2892 C2890 1.389 . S
C2892 C2893 1.524 . S
C2892 C2906 1.377 . S
C2893 C2892 1.524 . S
C2893 C2894 1.397 . S
C2893 C2898 1.363 . S
C2894 H2871 0.950 . S
C2894 C2893 1.397 . S
C2894 C2895 1.334 . S
C2895 H2872 0.950 . S
C2895 C2894 1.334 . S
C2895 C2896 1.287 . S
C2896 C2895 1.287 . S
C2896 C2897 1.524 . S
C2896 H2915 0.913 . S
C2897 H2873 0.950 . S
C2897 C2896 1.524 . S
C2897 C2898 1.415 . S
C2898 H2874 0.950 . S
C2898 C2893 1.363 . S
C2898 C2897 1.415 . S
C2899 H2875 0.951 . S
C2899 C2900 1.366 . S
C2899 C2901 1.388 . S
C2900 C2899 1.366 . S
C2900 C2904 1.385 . S
C2901 H2876 0.951 . S
C2901 C2899 1.388 . S
C2901 C2902 1.366 . S
C2902 C2901 1.366 . S
C2902 C2903 1.414 . S
C2902 C2905 1.499 . S
C2903 H2877 0.950 . S
C2903 C2902 1.414 . S
C2903 C2904 1.374 . S
C2904 H2878 0.950 . S
C2904 C2900 1.385 . S
C2904 C2903 1.374 . S
C2905 C2902 1.499 . S
C2905 C2906 1.373 . S
C2905 C2907 1.389 . S
C2906 H2879 0.950 . S
C2906 C2892 1.377 . S
C2906 C2905 1.373 . S
C2907 C2891 1.377 . S
C2907 C2905 1.389 . S
C2907 C2908 1.524 . S
C2908 C2907 1.524 . S
C2908 C2909 1.397 . S
C2908 C2913 1.363 . S
C2909 H2880 0.950 . S
C2909 C2908 1.397 . S
C2909 C2910 1.334 . S
C2910 H2881 0.950 . S
C2910 C2909 1.334 . S
C2910 C2911 1.287 . S
C2911 C2910 1.287 . S
C2911 C2912 1.524 . S
C2911 H2914 0.999 . S
C2912 H2882 0.950 . S
C2912 C2911 1.524 . S
C2912 C2913 1.415 . S
C2913 H2883 0.950 . S
C2913 C2908 1.363 . S
C2913 C2912 1.415 . S
H2914 C2911 0.999 . S
H2915 C2896 0.913 . S
H2916 C2934 0.951 . S
H2917 C2936 0.951 . S
H2918 C2938 0.950 . S
H2919 C2939 0.950 . S
H2920 C2941 0.950 . S
H2921 C2944 0.950 . S
H2922 C2945 0.950 . S
H2923 C2947 0.950 . S
H2924 C2948 0.950 . S
H2925 C2949 0.951 . S
H2926 C2951 0.951 . S
H2927 C2953 0.950 . S
H2928 C2954 0.950 . S
H2929 C2956 0.950 . S
H2930 C2959 0.950 . S
H2931 C2960 0.950 . S
H2932 C2962 0.950 . S
H2933 C2963 0.950 . S
C2934 H2916 0.951 . S
C2934 C2935 1.366 . S
C2934 C2936 1.388 . S
C2935 C2934 1.366 . S
C2935 C2939 1.385 . S
C2936 H2917 0.951 . S
C2936 C2934 1.388 . S
C2936 C2937 1.366 . S
C2937 C2936 1.366 . S
C2937 C2938 1.414 . S
C2937 C2940 1.499 . S
C2938 H2918 0.950 . S
C2938 C2937 1.414 . S
C2938 C2939 1.374 . S
C2939 H2919 0.950 . S
C2939 C2935 1.385 . S
C2939 C2938 1.374 . S
C2940 C2937 1.499 . S
C2940 C2941 1.373 . S
C2940 C2942 1.389 . S
C2941 H2920 0.950 . S
C2941 C2940 1.373 . S
C2941 C2957 1.377 . S
C2942 C2940 1.389 . S
C2942 C2943 1.524 . S
C2942 C2956 1.377 . S
C2943 C2942 1.524 . S
C2943 C2944 1.397 . S
C2943 C2948 1.363 . S
C2944 H2921 0.950 . S
C2944 C2943 1.397 . S
C2944 C2945 1.334 . S
C2945 H2922 0.950 . S
C2945 C2944 1.334 . S
C2945 C2946 1.287 . S
C2946 C2945 1.287 . S
C2946 C2947 1.524 . S
C2946 H2965 0.913 . S
C2947 H2923 0.950 . S
C2947 C2946 1.524 . S
C2947 C2948 1.415 . S
C2948 H2924 0.950 . S
C2948 C2943 1.363 . S
C2948 C2947 1.415 . S
C2949 H2925 0.951 . S
C2949 C2950 1.366 . S
C2949 C2951 1.388 . S
C2950 C2949 1.366 . S
C2950 C2954 1.385 . S
C2951 H2926 0.951 . S
C2951 C2949 1.388 . S
C2951 C2952 1.366 . S
C2952 C2951 1.366 . S
C2952 C2953 1.414 . S
C2952 C2955 1.499 . S
C2953 H2927 0.950 . S
C2953 C2952 1.414 . S
C2953 C2954 1.374 . S
C2954 H2928 0.950 . S
C2954 C2950 1.385 . S
C2954 C2953 1.374 . S
C2955 C2952 1.499 . S
C2955 C2956 1.373 . S
C2955 C2957 1.389 . S
C2956 H2929 0.950 . S
C2956 C2942 1.377 . S
C2956 C2955 1.373 . S
C2957 C2941 1.377 . S
C2957 C2955 1.389 . S
C2957 C2958 1.524 . S
C2958 C2957 1.524 . S
C2958 C2959 1.397 . S
C2958 C2963 1.363 . S
C2959 H2930 0.950 . S
C2959 C2958 1.397 . S
C2959 C2960 1.334 . S
C2960 H2931 0.950 . S
C2960 C2959 1.334 . S
C2960 C2961 1.287 . S
C2961 C2960 1.287 . S
C2961 C2962 1.524 . S
C2961 H2964 0.999 . S
C2962 H2932 0.950 . S
C2962 C2961 1.524 . S
C2962 C2963 1.415 . S
C2963 H2933 0.950 . S
C2963 C2958 1.363 . S
C2963 C2962 1.415 . S
H2964 C2961 0.999 . S
H2965 C2946 0.913 . S
H2966 C2984 0.951 . S
H2967 C2986 0.951 . S
H2968 C2988 0.950 . S
H2969 C2989 0.950 . S
H2970 C2991 0.950 . S
H2971 C2994 0.950 . S
H2972 C2995 0.950 . S
H2973 C2997 0.950 . S
H2974 C2998 0.950 . S
H2975 C2999 0.951 . S
H2976 C3001 0.951 . S
H2977 C3003 0.950 . S
H2978 C3004 0.950 . S
H2979 C3006 0.950 . S
H2980 C3009 0.950 . S
H2981 C3010 0.950 . S
H2982 C3012 0.950 . S
H2983 C3013 0.950 . S
C2984 H2966 0.951 . S
C2984 C2985 1.366 . S
C2984 C2986 1.388 . S
C2985 C2984 1.366 . S
C2985 C2989 1.385 . S
C2986 H2967 0.951 . S
C2986 C2984 1.388 . S
C2986 C2987 1.366 . S
C2987 C2986 1.366 . S
C2987 C2988 1.414 . S
C2987 C2990 1.499 . S
C2988 H2968 0.950 . S
C2988 C2987 1.414 . S
C2988 C2989 1.374 . S
C2989 H2969 0.950 . S
C2989 C2985 1.385 . S
C2989 C2988 1.374 . S
C2990 C2987 1.499 . S
C2990 C2991 1.373 . S
C2990 C2992 1.389 . S
C2991 H2970 0.950 . S
C2991 C2990 1.373 . S
C2991 C3007 1.377 . S
C2992 C2990 1.389 . S
C2992 C2993 1.524 . S
C2992 C3006 1.377 . S
C2993 C2992 1.524 . S
C2993 C2994 1.397 . S
C2993 C2998 1.363 . S
C2994 H2971 0.950 . S
C2994 C2993 1.397 . S
C2994 C2995 1.334 . S
C2995 H2972 0.950 . S
C2995 C2994 1.334 . S
C2995 C2996 1.287 . S
C2996 C2995 1.287 . S
C2996 C2997 1.524 . S
C2996 H3015 0.913 . S
C2997 H2973 0.950 . S
C2997 C2996 1.524 . S
C2997 C2998 1.415 . S
C2998 H2974 0.950 . S
C2998 C2993 1.363 . S
C2998 C2997 1.415 . S
C2999 H2975 0.951 . S
C2999 C3000 1.366 . S
C2999 C3001 1.388 . S
C3000 C2999 1.366 . S
C3000 C3004 1.385 . S
C3001 H2976 0.951 . S
C3001 C2999 1.388 . S
C3001 C3002 1.366 . S
C3002 C3001 1.366 . S
C3002 C3003 1.414 . S
C3002 C3005 1.499 . S
C3003 H2977 0.950 . S
C3003 C3002 1.414 . S
C3003 C3004 1.374 . S
C3004 H2978 0.950 . S
C3004 C3000 1.385 . S
C3004 C3003 1.374 . S
C3005 C3002 1.499 . S
C3005 C3006 1.373 . S
C3005 C3007 1.389 . S
C3006 H2979 0.950 . S
C3006 C2992 1.377 . S
C3006 C3005 1.373 . S
C3007 C2991 1.377 . S
C3007 C3005 1.389 . S
C3007 C3008 1.524 . S
C3008 C3007 1.524 . S
C3008 C3009 1.397 . S
C3008 C3013 1.363 . S
C3009 H2980 0.950 . S
C3009 C3008 1.397 . S
C3009 C3010 1.334 . S
C3010 H2981 0.950 . S
C3010 C3009 1.334 . S
C3010 C3011 1.287 . S
C3011 C3010 1.287 . S
C3011 C3012 1.524 . S
C3011 H3014 0.999 . S
C3012 H2982 0.950 . S
C3012 C3011 1.524 . S
C3012 C3013 1.415 . S
C3013 H2983 0.950 . S
C3013 C3008 1.363 . S
C3013 C3012 1.415 . S
H3014 C3011 0.999 . S
H3015 C2996 0.913 . S
H3016 C3034 0.951 . S
H3017 C3036 0.951 . S
H3018 C3038 0.950 . S
H3019 C3039 0.950 . S
H3020 C3041 0.950 . S
H3021 C3044 0.950 . S
H3022 C3045 0.950 . S
H3023 C3047 0.950 . S
H3024 C3048 0.950 . S
H3025 C3049 0.951 . S
H3026 C3051 0.951 . S
H3027 C3053 0.950 . S
H3028 C3054 0.950 . S
H3029 C3056 0.950 . S
H3030 C3059 0.950 . S
H3031 C3060 0.950 . S
H3032 C3062 0.950 . S
H3033 C3063 0.950 . S
C3034 H3016 0.951 . S
C3034 C3035 1.366 . S
C3034 C3036 1.388 . S
C3035 C3034 1.366 . S
C3035 C3039 1.385 . S
C3036 H3017 0.951 . S
C3036 C3034 1.388 . S
C3036 C3037 1.366 . S
C3037 C3036 1.366 . S
C3037 C3038 1.414 . S
C3037 C3040 1.499 . S
C3038 H3018 0.950 . S
C3038 C3037 1.414 . S
C3038 C3039 1.374 . S
C3039 H3019 0.950 . S
C3039 C3035 1.385 . S
C3039 C3038 1.374 . S
C3040 C3037 1.499 . S
C3040 C3041 1.373 . S
C3040 C3042 1.389 . S
C3041 H3020 0.950 . S
C3041 C3040 1.373 . S
C3041 C3057 1.377 . S
C3042 C3040 1.389 . S
C3042 C3043 1.524 . S
C3042 C3056 1.377 . S
C3043 C3042 1.524 . S
C3043 C3044 1.397 . S
C3043 C3048 1.363 . S
C3044 H3021 0.950 . S
C3044 C3043 1.397 . S
C3044 C3045 1.334 . S
C3045 H3022 0.950 . S
C3045 C3044 1.334 . S
C3045 C3046 1.287 . S
C3046 C3045 1.287 . S
C3046 C3047 1.524 . S
C3046 H3065 0.913 . S
C3047 H3023 0.950 . S
C3047 C3046 1.524 . S
C3047 C3048 1.415 . S
C3048 H3024 0.950 . S
C3048 C3043 1.363 . S
C3048 C3047 1.415 . S
C3049 H3025 0.951 . S
C3049 C3050 1.366 . S
C3049 C3051 1.388 . S
C3050 C3049 1.366 . S
C3050 C3054 1.385 . S
C3051 H3026 0.951 . S
C3051 C3049 1.388 . S
C3051 C3052 1.366 . S
C3052 C3051 1.366 . S
C3052 C3053 1.414 . S
C3052 C3055 1.499 . S
C3053 H3027 0.950 . S
C3053 C3052 1.414 . S
C3053 C3054 1.374 . S
C3054 H3028 0.950 . S
C3054 C3050 1.385 . S
C3054 C3053 1.374 . S
C3055 C3052 1.499 . S
C3055 C3056 1.373 . S
C3055 C3057 1.389 . S
C3056 H3029 0.950 . S
C3056 C3042 1.377 . S
C3056 C3055 1.373 . S
C3057 C3041 1.377 . S
C3057 C3055 1.389 . S
C3057 C3058 1.524 . S
C3058 C3057 1.524 . S
C3058 C3059 1.397 . S
C3058 C3063 1.363 . S
C3059 H3030 0.950 . S
C3059 C3058 1.397 . S
C3059 C3060 1.334 . S
C3060 H3031 0.950 . S
C3060 C3059 1.334 . S
C3060 C3061 1.287 . S
C3061 C3060 1.287 . S
C3061 C3062 1.524 . S
C3061 H3064 0.999 . S
C3062 H3032 0.950 . S
C3062 C3061 1.524 . S
C3062 C3063 1.415 . S
C3063 H3033 0.950 . S
C3063 C3058 1.363 . S
C3063 C3062 1.415 . S
H3064 C3061 0.999 . S
H3065 C3046 0.913 . S
H3066 C3084 0.951 . S
H3067 C3086 0.951 . S
H3068 C3088 0.950 . S
H3069 C3089 0.950 . S
H3070 C3091 0.950 . S
H3071 C3094 0.950 . S
H3072 C3095 0.950 . S
H3073 C3097 0.950 . S
H3074 C3098 0.950 . S
H3075 C3099 0.951 . S
H3076 C3101 0.951 . S
H3077 C3103 0.950 . S
H3078 C3104 0.950 . S
H3079 C3106 0.950 . S
H3080 C3109 0.950 . S
H3081 C3110 0.950 . S
H3082 C3112 0.950 . S
H3083 C3113 0.950 . S
C3084 H3066 0.951 . S
C3084 C3085 1.366 . S
C3084 C3086 1.388 . S
C3085 C3084 1.366 . S
C3085 C3089 1.385 . S
C3086 H3067 0.951 . S
C3086 C3084 1.388 . S
C3086 C3087 1.366 . S
C3087 C3086 1.366 . S
C3087 C3088 1.414 . S
C3087 C3090 1.499 . S
C3088 H3068 0.950 . S
C3088 C3087 1.414 . S
C3088 C3089 1.374 . S
C3089 H3069 0.950 . S
C3089 C3085 1.385 . S
C3089 C3088 1.374 . S
C3090 C3087 1.499 . S
C3090 C3091 1.373 . S
C3090 C3092 1.389 . S
C3091 H3070 0.950 . S
C3091 C3090 1.373 . S
C3091 C3107 1.377 . S
C3092 C3090 1.389 . S
C3092 C3093 1.524 . S
C3092 C3106 1.377 . S
C3093 C3092 1.524 . S
C3093 C3094 1.397 . S
C3093 C3098 1.363 . S
C3094 H3071 0.950 . S
C3094 C3093 1.397 . S
C3094 C3095 1.334 . S
C3095 H3072 0.950 . S
C3095 C3094 1.334 . S
C3095 C3096 1.287 . S
C3096 C3095 1.287 . S
C3096 C3097 1.524 . S
C3096 H3115 0.913 . S
C3097 H3073 0.950 . S
C3097 C3096 1.524 . S
C3097 C3098 1.415 . S
C3098 H3074 0.950 . S
C3098 C3093 1.363 . S
C3098 C3097 1.415 . S
C3099 H3075 0.951 . S
C3099 C3100 1.366 . S
C3099 C3101 1.388 . S
C3100 C3099 1.366 . S
C3100 C3104 1.385 . S
C3101 H3076 0.951 . S
C3101 C3099 1.388 . S
C3101 C3102 1.366 . S
C3102 C3101 1.366 . S
C3102 C3103 1.414 . S
C3102 C3105 1.499 . S
C3103 H3077 0.950 . S
C3103 C3102 1.414 . S
C3103 C3104 1.374 . S
C3104 H3078 0.950 . S
C3104 C3100 1.385 . S
C3104 C3103 1.374 . S
C3105 C3102 1.499 . S
C3105 C3106 1.373 . S
C3105 C3107 1.389 . S
C3106 H3079 0.950 . S
C3106 C3092 1.377 . S
C3106 C3105 1.373 . S
C3107 C3091 1.377 . S
C3107 C3105 1.389 . S
C3107 C3108 1.524 . S
C3108 C3107 1.524 . S
C3108 C3109 1.397 . S
C3108 C3113 1.363 . S
C3109 H3080 0.950 . S
C3109 C3108 1.397 . S
C3109 C3110 1.334 . S
C3110 H3081 0.950 . S
C3110 C3109 1.334 . S
C3110 C3111 1.287 . S
C3111 C3110 1.287 . S
C3111 C3112 1.524 . S
C3111 H3114 0.999 . S
C3112 H3082 0.950 . S
C3112 C3111 1.524 . S
C3112 C3113 1.415 . S
C3113 H3083 0.950 . S
C3113 C3108 1.363 . S
C3113 C3112 1.415 . S
H3114 C3111 0.999 . S
H3115 C3096 0.913 . S
H3116 C3134 0.951 . S
H3117 C3136 0.951 . S
H3118 C3138 0.950 . S
H3119 C3139 0.950 . S
H3120 C3141 0.950 . S
H3121 C3144 0.950 . S
H3122 C3145 0.950 . S
H3123 C3147 0.950 . S
H3124 C3148 0.950 . S
H3125 C3149 0.951 . S
H3126 C3151 0.951 . S
H3127 C3153 0.950 . S
H3128 C3154 0.950 . S
H3129 C3156 0.950 . S
H3130 C3159 0.950 . S
H3131 C3160 0.950 . S
H3132 C3162 0.950 . S
H3133 C3163 0.950 . S
C3134 H3116 0.951 . S
C3134 C3135 1.366 . S
C3134 C3136 1.388 . S
C3135 C3134 1.366 . S
C3135 C3139 1.385 . S
C3136 H3117 0.951 . S
C3136 C3134 1.388 . S
C3136 C3137 1.366 . S
C3137 C3136 1.366 . S
C3137 C3138 1.414 . S
C3137 C3140 1.499 . S
C3138 H3118 0.950 . S
C3138 C3137 1.414 . S
C3138 C3139 1.374 . S
C3139 H3119 0.950 . S
C3139 C3135 1.385 . S
C3139 C3138 1.374 . S
C3140 C3137 1.499 . S
C3140 C3141 1.373 . S
C3140 C3142 1.389 . S
C3141 H3120 0.950 . S
C3141 C3140 1.373 . S
C3141 C3157 1.377 . S
C3142 C3140 1.389 . S
C3142 C3143 1.524 . S
C3142 C3156 1.377 . S
C3143 C3142 1.524 . S
C3143 C3144 1.397 . S
C3143 C3148 1.363 . S
C3144 H3121 0.950 . S
C3144 C3143 1.397 . S
C3144 C3145 1.334 . S
C3145 H3122 0.950 . S
C3145 C3144 1.334 . S
C3145 C3146 1.287 . S
C3146 C3145 1.287 . S
C3146 C3147 1.524 . S
C3146 H3165 0.913 . S
C3147 H3123 0.950 . S
C3147 C3146 1.524 . S
C3147 C3148 1.415 . S
C3148 H3124 0.950 . S
C3148 C3143 1.363 . S
C3148 C3147 1.415 . S
C3149 H3125 0.951 . S
C3149 C3150 1.366 . S
C3149 C3151 1.388 . S
C3150 C3149 1.366 . S
C3150 C3154 1.385 . S
C3151 H3126 0.951 . S
C3151 C3149 1.388 . S
C3151 C3152 1.366 . S
C3152 C3151 1.366 . S
C3152 C3153 1.414 . S
C3152 C3155 1.499 . S
C3153 H3127 0.950 . S
C3153 C3152 1.414 . S
C3153 C3154 1.374 . S
C3154 H3128 0.950 . S
C3154 C3150 1.385 . S
C3154 C3153 1.374 . S
C3155 C3152 1.499 . S
C3155 C3156 1.373 . S
C3155 C3157 1.389 . S
C3156 H3129 0.950 . S
C3156 C3142 1.377 . S
C3156 C3155 1.373 . S
C3157 C3141 1.377 . S
C3157 C3155 1.389 . S
C3157 C3158 1.524 . S
C3158 C3157 1.524 . S
C3158 C3159 1.397 . S
C3158 C3163 1.363 . S
C3159 H3130 0.950 . S
C3159 C3158 1.397 . S
C3159 C3160 1.334 . S
C3160 H3131 0.950 . S
C3160 C3159 1.334 . S
C3160 C3161 1.287 . S
C3161 C3160 1.287 . S
C3161 C3162 1.524 . S
C3161 H3164 0.999 . S
C3162 H3132 0.950 . S
C3162 C3161 1.524 . S
C3162 C3163 1.415 . S
C3163 H3133 0.950 . S
C3163 C3158 1.363 . S
C3163 C3162 1.415 . S
H3164 C3161 0.999 . S
H3165 C3146 0.913 . S
H3166 C3184 0.951 . S
H3167 C3186 0.951 . S
H3168 C3188 0.950 . S
H3169 C3189 0.950 . S
H3170 C3191 0.950 . S
H3171 C3194 0.950 . S
H3172 C3195 0.950 . S
H3173 C3197 0.950 . S
H3174 C3198 0.950 . S
H3175 C3199 0.951 . S
H3176 C3201 0.951 . S
H3177 C3203 0.950 . S
H3178 C3204 0.950 . S
H3179 C3206 0.950 . S
H3180 C3209 0.950 . S
H3181 C3210 0.950 . S
H3182 C3212 0.950 . S
H3183 C3213 0.950 . S
C3184 H3166 0.951 . S
C3184 C3185 1.366 . S
C3184 C3186 1.388 . S
C3185 C3184 1.366 . S
C3185 C3189 1.385 . S
C3186 H3167 0.951 . S
C3186 C3184 1.388 . S
C3186 C3187 1.366 . S
C3187 C3186 1.366 . S
C3187 C3188 1.414 . S
C3187 C3190 1.499 . S
C3188 H3168 0.950 . S
C3188 C3187 1.414 . S
C3188 C3189 1.374 . S
C3189 H3169 0.950 . S
C3189 C3185 1.385 . S
C3189 C3188 1.374 . S
C3190 C3187 1.499 . S
C3190 C3191 1.373 . S
C3190 C3192 1.389 . S
C3191 H3170 0.950 . S
C3191 C3190 1.373 . S
C3191 C3207 1.377 . S
C3192 C3190 1.389 . S
C3192 C3193 1.524 . S
C3192 C3206 1.377 . S
C3193 C3192 1.524 . S
C3193 C3194 1.397 . S
C3193 C3198 1.363 . S
C3194 H3171 0.950 . S
C3194 C3193 1.397 . S
C3194 C3195 1.334 . S
C3195 H3172 0.950 . S
C3195 C3194 1.334 . S
C3195 C3196 1.287 . S
C3196 C3195 1.287 . S
C3196 C3197 1.524 . S
C3196 H3215 0.913 . S
C3197 H3173 0.950 . S
C3197 C3196 1.524 . S
C3197 C3198 1.415 . S
C3198 H3174 0.950 . S
C3198 C3193 1.363 . S
C3198 C3197 1.415 . S
C3199 H3175 0.951 . S
C3199 C3200 1.366 . S
C3199 C3201 1.388 . S
C3200 C3199 1.366 . S
C3200 C3204 1.385 . S
C3201 H3176 0.951 . S
C3201 C3199 1.388 . S
C3201 C3202 1.366 . S
C3202 C3201 1.366 . S
C3202 C3203 1.414 . S
C3202 C3205 1.499 . S
C3203 H3177 0.950 . S
C3203 C3202 1.414 . S
C3203 C3204 1.374 . S
C3204 H3178 0.950 . S
C3204 C3200 1.385 . S
C3204 C3203 1.374 . S
C3205 C3202 1.499 . S
C3205 C3206 1.373 . S
C3205 C3207 1.389 . S
C3206 H3179 0.950 . S
C3206 C3192 1.377 . S
C3206 C3205 1.373 . S
C3207 C3191 1.377 . S
C3207 C3205 1.389 . S
C3207 C3208 1.524 . S
C3208 C3207 1.524 . S
C3208 C3209 1.397 . S
C3208 C3213 1.363 . S
C3209 H3180 0.950 . S
C3209 C3208 1.397 . S
C3209 C3210 1.334 . S
C3210 H3181 0.950 . S
C3210 C3209 1.334 . S
C3210 C3211 1.287 . S
C3211 C3210 1.287 . S
C3211 C3212 1.524 . S
C3211 H3214 0.999 . S
C3212 H3182 0.950 . S
C3212 C3211 1.524 . S
C3212 C3213 1.415 . S
C3213 H3183 0.950 . S
C3213 C3208 1.363 . S
C3213 C3212 1.415 . S
H3214 C3211 0.999 . S
H3215 C3196 0.913 . S
H3216 C3234 0.951 . S
H3217 C3236 0.951 . S
H3218 C3238 0.950 . S
H3219 C3239 0.950 . S
H3220 C3241 0.950 . S
H3221 C3244 0.950 . S
H3222 C3245 0.950 . S
H3223 C3247 0.950 . S
H3224 C3248 0.950 . S
H3225 C3249 0.951 . S
H3226 C3251 0.951 . S
H3227 C3253 0.950 . S
H3228 C3254 0.950 . S
H3229 C3256 0.950 . S
H3230 C3259 0.950 . S
H3231 C3260 0.950 . S
H3232 C3262 0.950 . S
H3233 C3263 0.950 . S
C3234 H3216 0.951 . S
C3234 C3235 1.366 . S
C3234 C3236 1.388 . S
C3235 C3234 1.366 . S
C3235 C3239 1.385 . S
C3236 H3217 0.951 . S
C3236 C3234 1.388 . S
C3236 C3237 1.366 . S
C3237 C3236 1.366 . S
C3237 C3238 1.414 . S
C3237 C3240 1.499 . S
C3238 H3218 0.950 . S
C3238 C3237 1.414 . S
C3238 C3239 1.374 . S
C3239 H3219 0.950 . S
C3239 C3235 1.385 . S
C3239 C3238 1.374 . S
C3240 C3237 1.499 . S
C3240 C3241 1.373 . S
C3240 C3242 1.389 . S
C3241 H3220 0.950 . S
C3241 C3240 1.373 . S
C3241 C3257 1.377 . S
C3242 C3240 1.389 . S
C3242 C3243 1.524 . S
C3242 C3256 1.377 . S
C3243 C3242 1.524 . S
C3243 C3244 1.397 . S
C3243 C3248 1.363 . S
C3244 H3221 0.950 . S
C3244 C3243 1.397 . S
C3244 C3245 1.334 . S
C3245 H3222 0.950 . S
C3245 C3244 1.334 . S
C3245 C3246 1.287 . S
C3246 C3245 1.287 . S
C3246 C3247 1.524 . S
C3246 H3265 0.913 . S
C3247 H3223 0.950 . S
C3247 C3246 1.524 . S
C3247 C3248 1.415 . S
C3248 H3224 0.950 . S
C3248 C3243 1.363 . S
C3248 C3247 1.415 . S
C3249 H3225 0.951 . S
C3249 C3250 1.366 . S
C3249 C3251 1.388 . S
C3250 C3249 1.366 . S
C3250 C3254 1.385 . S
C3251 H3226 0.951 . S
C3251 C3249 1.388 . S
C3251 C3252 1.366 . S
C3252 C3251 1.366 . S
C3252 C3253 1.414 . S
C3252 C3255 1.499 . S
C3253 H3227 0.950 . S
C3253 C3252 1.414 . S
C3253 C3254 1.374 . S
C3254 H3228 0.950 . S
C3254 C3250 1.385 . S
C3254 C3253 1.374 . S
C3255 C3252 1.499 . S
C3255 C3256 1.373 . S
C3255 C3257 1.389 . S
C3256 H3229 0.950 . S
C3256 C3242 1.377 . S
C3256 C3255 1.373 . S
C3257 C3241 1.377 . S
C3257 C3255 1.389 . S
C3257 C3258 1.524 . S
C3258 C3257 1.524 . S
C3258 C3259 1.397 . S
C3258 C3263 1.363 . S
C3259 H3230 0.950 . S
C3259 C3258 1.397 . S
C3259 C3260 1.334 . S
C3260 H3231 0.950 . S
C3260 C3259 1.334 . S
C3260 C3261 1.287 . S
C3261 C3260 1.287 . S
C3261 C3262 1.524 . S
C3261 H3264 0.999 . S
C3262 H3232 0.950 . S
C3262 C3261 1.524 . S
C3262 C3263 1.415 . S
C3263 H3233 0.950 . S
C3263 C3258 1.363 . S
C3263 C3262 1.415 . S
H3264 C3261 0.999 . S
H3265 C3246 0.913 . S
H3266 C3284 0.951 . S
H3267 C3286 0.951 . S
H3268 C3288 0.950 . S
H3269 C3289 0.950 . S
H3270 C3291 0.950 . S
H3271 C3294 0.950 . S
H3272 C3295 0.950 . S
H3273 C3297 0.950 . S
H3274 C3298 0.950 . S
H3275 C3299 0.951 . S
H3276 C3301 0.951 . S
H3277 C3303 0.950 . S
H3278 C3304 0.950 . S
H3279 C3306 0.950 . S
H3280 C3309 0.950 . S
H3281 C3310 0.950 . S
H3282 C3312 0.950 . S
H3283 C3313 0.950 . S
C3284 H3266 0.951 . S
C3284 C3285 1.366 . S
C3284 C3286 1.388 . S
C3285 C3284 1.366 . S
C3285 C3289 1.385 . S
C3286 H3267 0.951 . S
C3286 C3284 1.388 . S
C3286 C3287 1.366 . S
C3287 C3286 1.366 . S
C3287 C3288 1.414 . S
C3287 C3290 1.499 . S
C3288 H3268 0.950 . S
C3288 C3287 1.414 . S
C3288 C3289 1.374 . S
C3289 H3269 0.950 . S
C3289 C3285 1.385 . S
C3289 C3288 1.374 . S
C3290 C3287 1.499 . S
C3290 C3291 1.373 . S
C3290 C3292 1.389 . S
C3291 H3270 0.950 . S
C3291 C3290 1.373 . S
C3291 C3307 1.377 . S
C3292 C3290 1.389 . S
C3292 C3293 1.524 . S
C3292 C3306 1.377 . S
C3293 C3292 1.524 . S
C3293 C3294 1.397 . S
C3293 C3298 1.363 . S
C3294 H3271 0.950 . S
C3294 C3293 1.397 . S
C3294 C3295 1.334 . S
C3295 H3272 0.950 . S
C3295 C3294 1.334 . S
C3295 C3296 1.287 . S
C3296 C3295 1.287 . S
C3296 C3297 1.524 . S
C3296 H3315 0.913 . S
C3297 H3273 0.950 . S
C3297 C3296 1.524 . S
C3297 C3298 1.415 . S
C3298 H3274 0.950 . S
C3298 C3293 1.363 . S
C3298 C3297 1.415 . S
C3299 H3275 0.951 . S
C3299 C3300 1.366 . S
C3299 C3301 1.388 . S
C3300 C3299 1.366 . S
C3300 C3304 1.385 . S
C3301 H3276 0.951 . S
C3301 C3299 1.388 . S
C3301 C3302 1.366 . S
C3302 C3301 1.366 . S
C3302 C3303 1.414 . S
C3302 C3305 1.499 . S
C3303 H3277 0.950 . S
C3303 C3302 1.414 . S
C3303 C3304 1.374 . S
C3304 H3278 0.950 . S
C3304 C3300 1.385 . S
C3304 C3303 1.374 . S
C3305 C3302 1.499 . S
C3305 C3306 1.373 . S
C3305 C3307 1.389 . S
C3306 H3279 0.950 . S
C3306 C3292 1.377 . S
C3306 C3305 1.373 . S
C3307 C3291 1.377 . S
C3307 C3305 1.389 . S
C3307 C3308 1.524 . S
C3308 C3307 1.524 . S
C3308 C3309 1.397 . S
C3308 C3313 1.363 . S
C3309 H3280 0.950 . S
C3309 C3308 1.397 . S
C3309 C3310 1.334 . S
C3310 H3281 0.950 . S
C3310 C3309 1.334 . S
C3310 C3311 1.287 . S
C3311 C3310 1.287 . S
C3311 C3312 1.524 . S
C3311 H3314 0.999 . S
C3312 H3282 0.950 . S
C3312 C3311 1.524 . S
C3312 C3313 1.415 . S
C3313 H3283 0.950 . S
C3313 C3308 1.363 . S
C3313 C3312 1.415 . S
H3314 C3311 0.999 . S
H3315 C3296 0.913 . S
H3316 C3334 0.951 . S
H3317 C3336 0.951 . S
H3318 C3338 0.950 . S
H3319 C3339 0.950 . S
H3320 C3341 0.950 . S
H3321 C3344 0.950 . S
H3322 C3345 0.950 . S
H3323 C3347 0.950 . S
H3324 C3348 0.950 . S
H3325 C3349 0.951 . S
H3326 C3351 0.951 . S
H3327 C3353 0.950 . S
H3328 C3354 0.950 . S
H3329 C3356 0.950 . S
H3330 C3359 0.950 . S
H3331 C3360 0.950 . S
H3332 C3362 0.950 . S
H3333 C3363 0.950 . S
C3334 H3316 0.951 . S
C3334 C3335 1.366 . S
C3334 C3336 1.388 . S
C3335 C3334 1.366 . S
C3335 C3339 1.385 . S
C3336 H3317 0.951 . S
C3336 C3334 1.388 . S
C3336 C3337 1.366 . S
C3337 C3336 1.366 . S
C3337 C3338 1.414 . S
C3337 C3340 1.499 . S
C3338 H3318 0.950 . S
C3338 C3337 1.414 . S
C3338 C3339 1.374 . S
C3339 H3319 0.950 . S
C3339 C3335 1.385 . S
C3339 C3338 1.374 . S
C3340 C3337 1.499 . S
C3340 C3341 1.373 . S
C3340 C3342 1.389 . S
C3341 H3320 0.950 . S
C3341 C3340 1.373 . S
C3341 C3357 1.377 . S
C3342 C3340 1.389 . S
C3342 C3343 1.524 . S
C3342 C3356 1.377 . S
C3343 C3342 1.524 . S
C3343 C3344 1.397 . S
C3343 C3348 1.363 . S
C3344 H3321 0.950 . S
C3344 C3343 1.397 . S
C3344 C3345 1.334 . S
C3345 H3322 0.950 . S
C3345 C3344 1.334 . S
C3345 C3346 1.287 . S
C3346 C3345 1.287 . S
C3346 C3347 1.524 . S
C3346 H3365 0.913 . S
C3347 H3323 0.950 . S
C3347 C3346 1.524 . S
C3347 C3348 1.415 . S
C3348 H3324 0.950 . S
C3348 C3343 1.363 . S
C3348 C3347 1.415 . S
C3349 H3325 0.951 . S
C3349 C3350 1.366 . S
C3349 C3351 1.388 . S
C3350 C3349 1.366 . S
C3350 C3354 1.385 . S
C3351 H3326 0.951 . S
C3351 C3349 1.388 . S
C3351 C3352 1.366 . S
C3352 C3351 1.366 . S
C3352 C3353 1.414 . S
C3352 C3355 1.499 . S
C3353 H3327 0.950 . S
C3353 C3352 1.414 . S
C3353 C3354 1.374 . S
C3354 H3328 0.950 . S
C3354 C3350 1.385 . S
C3354 C3353 1.374 . S
C3355 C3352 1.499 . S
C3355 C3356 1.373 . S
C3355 C3357 1.389 . S
C3356 H3329 0.950 . S
C3356 C3342 1.377 . S
C3356 C3355 1.373 . S
C3357 C3341 1.377 . S
C3357 C3355 1.389 . S
C3357 C3358 1.524 . S
C3358 C3357 1.524 . S
C3358 C3359 1.397 . S
C3358 C3363 1.363 . S
C3359 H3330 0.950 . S
C3359 C3358 1.397 . S
C3359 C3360 1.334 . S
C3360 H3331 0.950 . S
C3360 C3359 1.334 . S
C3360 C3361 1.287 . S
C3361 C3360 1.287 . S
C3361 C3362 1.524 . S
C3361 H3364 0.999 . S
C3362 H3332 0.950 . S
C3362 C3361 1.524 . S
C3362 C3363 1.415 . S
C3363 H3333 0.950 . S
C3363 C3358 1.363 . S
C3363 C3362 1.415 . S
H3364 C3361 0.999 . S
H3365 C3346 0.913 . S
H3366 C3384 0.951 . S
H3367 C3386 0.951 . S
H3368 C3388 0.950 . S
H3369 C3389 0.950 . S
H3370 C3391 0.950 . S
H3371 C3394 0.950 . S
H3372 C3395 0.950 . S
H3373 C3397 0.950 . S
H3374 C3398 0.950 . S
H3375 C3399 0.951 . S
H3376 C3401 0.951 . S
H3377 C3403 0.950 . S
H3378 C3404 0.950 . S
H3379 C3406 0.950 . S
H3380 C3409 0.950 . S
H3381 C3410 0.950 . S
H3382 C3412 0.950 . S
H3383 C3413 0.950 . S
C3384 H3366 0.951 . S
C3384 C3385 1.366 . S
C3384 C3386 1.388 . S
C3385 C3384 1.366 . S
C3385 C3389 1.385 . S
C3386 H3367 0.951 . S
C3386 C3384 1.388 . S
C3386 C3387 1.366 . S
C3387 C3386 1.366 . S
C3387 C3388 1.414 . S
C3387 C3390 1.499 . S
C3388 H3368 0.950 . S
C3388 C3387 1.414 . S
C3388 C3389 1.374 . S
C3389 H3369 0.950 . S
C3389 C3385 1.385 . S
C3389 C3388 1.374 . S
C3390 C3387 1.499 . S
C3390 C3391 1.373 . S
C3390 C3392 1.389 . S
C3391 H3370 0.950 . S
C3391 C3390 1.373 . S
C3391 C3407 1.377 . S
C3392 C3390 1.389 . S
C3392 C3393 1.524 . S
C3392 C3406 1.377 . S
C3393 C3392 1.524 . S
C3393 C3394 1.397 . S
C3393 C3398 1.363 . S
C3394 H3371 0.950 . S
C3394 C3393 1.397 . S
C3394 C3395 1.334 . S
C3395 H3372 0.950 . S
C3395 C3394 1.334 . S
C3395 C3396 1.287 . S
C3396 C3395 1.287 . S
C3396 C3397 1.524 . S
C3396 H3415 0.913 . S
C3397 H3373 0.950 . S
C3397 C3396 1.524 . S
C3397 C3398 1.415 . S
C3398 H3374 0.950 . S
C3398 C3393 1.363 . S
C3398 C3397 1.415 . S
C3399 H3375 0.951 . S
C3399 C3400 1.366 . S
C3399 C3401 1.388 . S
C3400 C3399 1.366 . S
C3400 C3404 1.385 . S
C3401 H3376 0.951 . S
C3401 C3399 1.388 . S
C3401 C3402 1.366 . S
C3402 C3401 1.366 . S
C3402 C3403 1.414 . S
C3402 C3405 1.499 . S
C3403 H3377 0.950 . S
C3403 C3402 1.414 . S
C3403 C3404 1.374 . S
C3404 H3378 0.950 . S
C3404 C3400 1.385 . S
C3404 C3403 1.374 . S
C3405 C3402 1.499 . S
C3405 C3406 1.373 . S
C3405 C3407 1.389 . S
C3406 H3379 0.950 . S
C3406 C3392 1.377 . S
C3406 C3405 1.373 . S
C3407 C3391 1.377 . S
C3407 C3405 1.389 . S
C3407 C3408 1.524 . S
C3408 C3407 1.524 . S
C3408 C3409 1.397 . S
C3408 C3413 1.363 . S
C3409 H3380 0.950 . S
C3409 C3408 1.397 . S
C3409 C3410 1.334 . S
C3410 H3381 0.950 . S
C3410 C3409 1.334 . S
C3410 C3411 1.287 . S
C3411 C3410 1.287 . S
C3411 C3412 1.524 . S
C3411 H3414 0.999 . S
C3412 H3382 0.950 . S
C3412 C3411 1.524 . S
C3412 C3413 1.415 . S
C3413 H3383 0.950 . S
C3413 C3408 1.363 . S
C3413 C3412 1.415 . S
H3414 C3411 0.999 . S
H3415 C3396 0.913 . S
H3416 C3434 0.951 . S
H3417 C3436 0.951 . S
H3418 C3438 0.950 . S
H3419 C3439 0.950 . S
H3420 C3441 0.950 . S
H3421 C3444 0.950 . S
H3422 C3445 0.950 . S
H3423 C3447 0.950 . S
H3424 C3448 0.950 . S
H3425 C3449 0.951 . S
H3426 C3451 0.951 . S
H3427 C3453 0.950 . S
H3428 C3454 0.950 . S
H3429 C3456 0.950 . S
H3430 C3459 0.950 . S
H3431 C3460 0.950 . S
H3432 C3462 0.950 . S
H3433 C3463 0.950 . S
C3434 H3416 0.951 . S
C3434 C3435 1.366 . S
C3434 C3436 1.388 . S
C3435 C3434 1.366 . S
C3435 C3439 1.385 . S
C3436 H3417 0.951 . S
C3436 C3434 1.388 . S
C3436 C3437 1.366 . S
C3437 C3436 1.366 . S
C3437 C3438 1.414 . S
C3437 C3440 1.499 . S
C3438 H3418 0.950 . S
C3438 C3437 1.414 . S
C3438 C3439 1.374 . S
C3439 H3419 0.950 . S
C3439 C3435 1.385 . S
C3439 C3438 1.374 . S
C3440 C3437 1.499 . S
C3440 C3441 1.373 . S
C3440 C3442 1.389 . S
C3441 H3420 0.950 . S
C3441 C3440 1.373 . S
C3441 C3457 1.377 . S
C3442 C3440 1.389 . S
C3442 C3443 1.524 . S
C3442 C3456 1.377 . S
C3443 C3442 1.524 . S
C3443 C3444 1.397 . S
C3443 C3448 1.363 . S
C3444 H3421 0.950 . S
C3444 C3443 1.397 . S
C3444 C3445 1.334 . S
C3445 H3422 0.950 . S
C3445 C3444 1.334 . S
C3445 C3446 1.287 . S
C3446 C3445 1.287 . S
C3446 C3447 1.524 . S
C3446 H3465 0.913 . S
C3447 H3423 0.950 . S
C3447 C3446 1.524 . S
C3447 C3448 1.415 . S
C3448 H3424 0.950 . S
C3448 C3443 1.363 . S
C3448 C3447 1.415 . S
C3449 H3425 0.951 . S
C3449 C3450 1.366 . S
C3449 C3451 1.388 . S
C3450 C3449 1.366 . S
C3450 C3454 1.385 . S
C3451 H3426 0.951 . S
C3451 C3449 1.388 . S
C3451 C3452 1.366 . S
C3452 C3451 1.366 . S
C3452 C3453 1.414 . S
C3452 C3455 1.499 . S
C3453 H3427 0.950 . S
C3453 C3452 1.414 . S
C3453 C3454 1.374 . S
C3454 H3428 0.950 . S
C3454 C3450 1.385 . S
C3454 C3453 1.374 . S
C3455 C3452 1.499 . S
C3455 C3456 1.373 . S
C3455 C3457 1.389 . S
C3456 H3429 0.950 . S
C3456 C3442 1.377 . S
C3456 C3455 1.373 . S
C3457 C3441 1.377 . S
C3457 C3455 1.389 . S
C3457 C3458 1.524 . S
C3458 C3457 1.524 . S
C3458 C3459 1.397 . S
C3458 C3463 1.363 . S
C3459 H3430 0.950 . S
C3459 C3458 1.397 . S
C3459 C3460 1.334 . S
C3460 H3431 0.950 . S
C3460 C3459 1.334 . S
C3460 C3461 1.287 . S
C3461 C3460 1.287 . S
C3461 C3462 1.524 . S
C3461 H3464 0.999 . S
C3462 H3432 0.950 . S
C3462 C3461 1.524 . S
C3462 C3463 1.415 . S
C3463 H3433 0.950 . S
C3463 C3458 1.363 . S
C3463 C3462 1.415 . S
H3464 C3461 0.999 . S
H3465 C3446 0.913 . S
H3466 C3484 0.951 . S
H3467 C3486 0.951 . S
H3468 C3488 0.950 . S
H3469 C3489 0.950 . S
H3470 C3491 0.950 . S
H3471 C3494 0.950 . S
H3472 C3495 0.950 . S
H3473 C3497 0.950 . S
H3474 C3498 0.950 . S
H3475 C3499 0.951 . S
H3476 C3501 0.951 . S
H3477 C3503 0.950 . S
H3478 C3504 0.950 . S
H3479 C3506 0.950 . S
H3480 C3509 0.950 . S
H3481 C3510 0.950 . S
H3482 C3512 0.950 . S
H3483 C3513 0.950 . S
C3484 H3466 0.951 . S
C3484 C3485 1.366 . S
C3484 C3486 1.388 . S
C3485 C3484 1.366 . S
C3485 C3489 1.385 . S
C3486 H3467 0.951 . S
C3486 C3484 1.388 . S
C3486 C3487 1.366 . S
C3487 C3486 1.366 . S
C3487 C3488 1.414 . S
C3487 C3490 1.499 . S
C3488 H3468 0.950 . S
C3488 C3487 1.414 . S
C3488 C3489 1.374 . S
C3489 H3469 0.950 . S
C3489 C3485 1.385 . S
C3489 C3488 1.374 . S
C3490 C3487 1.499 . S
C3490 C3491 1.373 . S
C3490 C3492 1.389 . S
C3491 H3470 0.950 . S
C3491 C3490 1.373 . S
C3491 C3507 1.377 . S
C3492 C3490 1.389 . S
C3492 C3493 1.524 . S
C3492 C3506 1.377 . S
C3493 C3492 1.524 . S
C3493 C3494 1.397 . S
C3493 C3498 1.363 . S
C3494 H3471 0.950 . S
C3494 C3493 1.397 . S
C3494 C3495 1.334 . S
C3495 H3472 0.950 . S
C3495 C3494 1.334 . S
C3495 C3496 1.287 . S
C3496 C3495 1.287 . S
C3496 C3497 1.524 . S
C3496 H3515 0.913 . S
C3497 H3473 0.950 . S
C3497 C3496 1.524 . S
C3497 C3498 1.415 . S
C3498 H3474 0.950 . S
C3498 C3493 1.363 . S
C3498 C3497 1.415 . S
C3499 H3475 0.951 . S
C3499 C3500 1.366 . S
C3499 C3501 1.388 . S
C3500 C3499 1.366 . S
C3500 C3504 1.385 . S
C3501 H3476 0.951 . S
C3501 C3499 1.388 . S
C3501 C3502 1.366 . S
C3502 C3501 1.366 . S
C3502 C3503 1.414 . S
C3502 C3505 1.499 . S
C3503 H3477 0.950 . S
C3503 C3502 1.414 . S
C3503 C3504 1.374 . S
C3504 H3478 0.950 . S
C3504 C3500 1.385 . S
C3504 C3503 1.374 . S
C3505 C3502 1.499 . S
C3505 C3506 1.373 . S
C3505 C3507 1.389 . S
C3506 H3479 0.950 . S
C3506 C3492 1.377 . S
C3506 C3505 1.373 . S
C3507 C3491 1.377 . S
C3507 C3505 1.389 . S
C3507 C3508 1.524 . S
C3508 C3507 1.524 . S
C3508 C3509 1.397 . S
C3508 C3513 1.363 . S
C3509 H3480 0.950 . S
C3509 C3508 1.397 . S
C3509 C3510 1.334 . S
C3510 H3481 0.950 . S
C3510 C3509 1.334 . S
C3510 C3511 1.287 . S
C3511 C3510 1.287 . S
C3511 C3512 1.524 . S
C3511 H3514 0.999 . S
C3512 H3482 0.950 . S
C3512 C3511 1.524 . S
C3512 C3513 1.415 . S
C3513 H3483 0.950 . S
C3513 C3508 1.363 . S
C3513 C3512 1.415 . S
H3514 C3511 0.999 . S
H3515 C3496 0.913 . S
H3516 C3534 0.951 . S
H3517 C3536 0.951 . S
H3518 C3538 0.950 . S
H3519 C3539 0.950 . S
H3520 C3541 0.950 . S
H3521 C3544 0.950 . S
H3522 C3545 0.950 . S
H3523 C3547 0.950 . S
H3524 C3548 0.950 . S
H3525 C3549 0.951 . S
H3526 C3551 0.951 . S
H3527 C3553 0.950 . S
H3528 C3554 0.950 . S
H3529 C3556 0.950 . S
H3530 C3559 0.950 . S
H3531 C3560 0.950 . S
H3532 C3562 0.950 . S
H3533 C3563 0.950 . S
C3534 H3516 0.951 . S
C3534 C3535 1.366 . S
C3534 C3536 1.388 . S
C3535 C3534 1.366 . S
C3535 C3539 1.385 . S
C3536 H3517 0.951 . S
C3536 C3534 1.388 . S
C3536 C3537 1.366 . S
C3537 C3536 1.366 . S
C3537 C3538 1.414 . S
C3537 C3540 1.499 . S
C3538 H3518 0.950 . S
C3538 C3537 1.414 . S
C3538 C3539 1.374 . S
C3539 H3519 0.950 . S
C3539 C3535 1.385 . S
C3539 C3538 1.374 . S
C3540 C3537 1.499 . S
C3540 C3541 1.373 . S
C3540 C3542 1.389 . S
C3541 H3520 0.950 . S
C3541 C3540 1.373 . S
C3541 C3557 1.377 . S
C3542 C3540 1.389 . S
C3542 C3543 1.524 . S
C3542 C3556 1.377 . S
C3543 C3542 1.524 . S
C3543 C3544 1.397 . S
C3543 C3548 1.363 . S
C3544 H3521 0.950 . S
C3544 C3543 1.397 . S
C3544 C3545 1.334 . S
C3545 H3522 0.950 . S
C3545 C3544 1.334 . S
C3545 C3546 1.287 . S
C3546 C3545 1.287 . S
C3546 C3547 1.524 . S
C3546 H3565 0.913 . S
C3547 H3523 0.950 . S
C3547 C3546 1.524 . S
C3547 C3548 1.415 . S
C3548 H3524 0.950 . S
C3548 C3543 1.363 . S
C3548 C3547 1.415 . S
C3549 H3525 0.951 . S
C3549 C3550 1.366 . S
C3549 C3551 1.388 . S
C3550 C3549 1.366 . S
C3550 C3554 1.385 . S
C3551 H3526 0.951 . S
C3551 C3549 1.388 . S
C3551 C3552 1.366 . S
C3552 C3551 1.366 . S
C3552 C3553 1.414 . S
C3552 C3555 1.499 . S
C3553 H3527 0.950 . S
C3553 C3552 1.414 . S
C3553 C3554 1.374 . S
C3554 H3528 0.950 . S
C3554 C3550 1.385 . S
C3554 C3553 1.374 . S
C3555 C3552 1.499 . S
C3555 C3556 1.373 . S
C3555 C3557 1.389 . S
C3556 H3529 0.950 . S
C3556 C3542 1.377 . S
C3556 C3555 1.373 . S
C3557 C3541 1.377 . S
C3557 C3555 1.389 . S
C3557 C3558 1.524 . S
C3558 C3557 1.524 . S
C3558 C3559 1.397 . S
C3558 C3563 1.363 . S
C3559 H3530 0.950 . S
C3559 C3558 1.397 . S
C3559 C3560 1.334 . S
C3560 H3531 0.950 . S
C3560 C3559 1.334 . S
C3560 C3561 1.287 . S
C3561 C3560 1.287 . S
C3561 C3562 1.524 . S
C3561 H3564 0.999 . S
C3562 H3532 0.950 . S
C3562 C3561 1.524 . S
C3562 C3563 1.415 . S
C3563 H3533 0.950 . S
C3563 C3558 1.363 . S
C3563 C3562 1.415 . S
H3564 C3561 0.999 . S
H3565 C3546 0.913 . S
H3566 C3584 0.951 . S
H3567 C3586 0.951 . S
H3568 C3588 0.950 . S
H3569 C3589 0.950 . S
H3570 C3591 0.950 . S
H3571 C3594 0.950 . S
H3572 C3595 0.950 . S
H3573 C3597 0.950 . S
H3574 C3598 0.950 . S
H3575 C3599 0.951 . S
H3576 C3601 0.951 . S
H3577 C3603 0.950 . S
H3578 C3604 0.950 . S
H3579 C3606 0.950 . S
H3580 C3609 0.950 . S
H3581 C3610 0.950 . S
H3582 C3612 0.950 . S
H3583 C3613 0.950 . S
C3584 H3566 0.951 . S
C3584 C3585 1.366 . S
C3584 C3586 1.388 . S
C3585 C3584 1.366 . S
C3585 C3589 1.385 . S
C3586 H3567 0.951 . S
C3586 C3584 1.388 . S
C3586 C3587 1.366 . S
C3587 C3586 1.366 . S
C3587 C3588 1.414 . S
C3587 C3590 1.499 . S
C3588 H3568 0.950 . S
C3588 C3587 1.414 . S
C3588 C3589 1.374 . S
C3589 H3569 0.950 . S
C3589 C3585 1.385 . S
C3589 C3588 1.374 . S
C3590 C3587 1.499 . S
C3590 C3591 1.373 . S
C3590 C3592 1.389 . S
C3591 H3570 0.950 . S
C3591 C3590 1.373 . S
C3591 C3607 1.377 . S
C3592 C3590 1.389 . S
C3592 C3593 1.524 . S
C3592 C3606 1.377 . S
C3593 C3592 1.524 . S
C3593 C3594 1.397 . S
C3593 C3598 1.363 . S
C3594 H3571 0.950 . S
C3594 C3593 1.397 . S
C3594 C3595 1.334 . S
C3595 H3572 0.950 . S
C3595 C3594 1.334 . S
C3595 C3596 1.287 . S
C3596 C3595 1.287 . S
C3596 C3597 1.524 . S
C3596 H3615 0.913 . S
C3597 H3573 0.950 . S
C3597 C3596 1.524 . S
C3597 C3598 1.415 . S
C3598 H3574 0.950 . S
C3598 C3593 1.363 . S
C3598 C3597 1.415 . S
C3599 H3575 0.951 . S
C3599 C3600 1.366 . S
C3599 C3601 1.388 . S
C3600 C3599 1.366 . S
C3600 C3604 1.385 . S
C3601 H3576 0.951 . S
C3601 C3599 1.388 . S
C3601 C3602 1.366 . S
C3602 C3601 1.366 . S
C3602 C3603 1.414 . S
C3602 C3605 1.499 . S
C3603 H3577 0.950 . S
C3603 C3602 1.414 . S
C3603 C3604 1.374 . S
C3604 H3578 0.950 . S
C3604 C3600 1.385 . S
C3604 C3603 1.374 . S
C3605 C3602 1.499 . S
C3605 C3606 1.373 . S
C3605 C3607 1.389 . S
C3606 H3579 0.950 . S
C3606 C3592 1.377 . S
C3606 C3605 1.373 . S
C3607 C3591 1.377 . S
C3607 C3605 1.389 . S
C3607 C3608 1.524 . S
C3608 C3607 1.524 . S
C3608 C3609 1.397 . S
C3608 C3613 1.363 . S
C3609 H3580 0.950 . S
C3609 C3608 1.397 . S
C3609 C3610 1.334 . S
C3610 H3581 0.950 . S
C3610 C3609 1.334 . S
C3610 C3611 1.287 . S
C3611 C3610 1.287 . S
C3611 C3612 1.524 . S
C3611 H3614 0.999 . S
C3612 H3582 0.950 . S
C3612 C3611 1.524 . S
C3612 C3613 1.415 . S
C3613 H3583 0.950 . S
C3613 C3608 1.363 . S
C3613 C3612 1.415 . S
H3614 C3611 0.999 . S
H3615 C3596 0.913 . S
C435 C359 1.266 . S
C450 C5 1.230 . S
C485 C18 1.230 . S
C500 C112 1.266 . S
C535 C333 1.266 . S
C550 C31 1.231 . S
C585 C44 1.230 . S
C600 C138 1.266 . S
C635 C57 1.230 . S
C650 C385 1.266 . S
C685 C70 1.231 . S
C700 C190 1.266 . S
C735 C83 1.231 . S
C750 C411 1.266 . S
C785 C96 1.230 . S
C800 C164 1.266 . S
C835 C255 1.266 . S
C850 C109 1.229 . S
C885 C8 1.267 . S
C900 C122 1.230 . S
C935 C229 1.267 . S
C950 C135 1.230 . S
C985 C148 1.230 . S
C1000 C34 1.266 . S
C1035 C281 1.266 . S
C1050 C161 1.231 . S
C1085 C86 1.265 . S
C1100 C174 1.231 . S
C1135 C187 1.231 . S
C1150 C307 1.266 . S
C1185 C60 1.267 . S
C1200 C200 1.230 . S
C1235 C213 1.230 . S
C1250 C151 1.266 . S
C1285 C226 1.230 . S
C1300 C320 1.266 . S
C1335 C125 1.266 . S
C1350 C239 1.230 . S
C1385 C346 1.266 . S
C1400 C252 1.230 . S
C1435 C177 1.266 . S
C1450 C265 1.230 . S
C1485 C398 1.267 . S
C1500 C278 1.230 . S
C1535 C203 1.266 . S
C1550 C291 1.230 . S
C1585 C304 1.231 . S
C1600 C372 1.266 . S
C1635 C47 1.266 . S
C1650 C317 1.230 . S
C1685 C330 1.231 . S
C1700 C216 1.266 . S
C1735 C343 1.231 . S
C1750 C21 1.265 . S
C1785 C356 1.231 . S
C1800 C242 1.266 . S
C1835 C369 1.231 . S
C1850 C73 1.266 . S
C1885 C382 1.230 . S
C1900 C294 1.266 . S
C1935 C395 1.230 . S
C1950 C99 1.266 . S
C1985 C408 1.231 . S
C2000 C268 1.265 . S
C2035 C322 1.499 . S
C2050 C10 1.499 . S
C2085 C23 1.500 . S
C2100 C127 1.500 . S
C2135 C348 1.500 . S
C2150 C36 1.500 . S
C2185 C49 1.499 . S
C2200 C153 1.499 . S
C2235 C374 1.500 . S
C2250 C62 1.500 . S
C2285 C75 1.499 . S
C2300 C179 1.499 . S
C2335 C400 1.500 . S
C2350 C88 1.500 . S
C2385 C101 1.499 . S
C2400 C205 1.499 . S
C2435 C114 1.500 . S
C2450 C218 1.500 . S
C2485 C140 1.500 . S
C2500 C244 1.500 . S
C2535 C166 1.499 . S
C2550 C270 1.499 . S
C2585 C192 1.500 . S
C2600 C296 1.500 . S
C2635 C231 1.499 . S
C2650 C335 1.499 . S
C2685 C361 1.499 . S
C2700 C257 1.499 . S
C2735 C387 1.500 . S
C2750 C283 1.500 . S
C2785 C309 1.500 . S
C2800 C413 1.500 . S
C2835 C0 0.897 . S
C2850 C65 0.897 . S
C2885 C13 0.897 . S
C2900 C78 0.897 . S
C2935 C26 0.898 . S
C2950 C91 0.898 . S
C2985 C52 0.897 . S
C3000 C39 0.898 . S
C3035 C104 0.898 . S
C3050 C169 0.898 . S
C3085 C117 0.897 . S
C3100 C182 0.896 . S
C3135 C130 0.896 . S
C3150 C195 0.896 . S
C3185 C143 0.898 . S
C3200 C156 0.898 . S
C3235 C208 0.898 . S
C3250 C273 0.898 . S
C3285 C286 0.896 . S
C3300 C221 0.896 . S
C3335 C234 0.897 . S
C3350 C299 0.897 . S
C3385 C247 0.898 . S
C3400 C260 0.898 . S
C3435 C377 0.897 . S
C3450 C312 0.898 . S
C3485 C325 0.898 . S
C3500 C390 0.898 . S
C3535 C403 0.898 . S
C3550 C338 0.898 . S
C3585 C351 0.897 . S
C3600 C364 0.897 . S
