# Generated by pormake.
# Topology rkf, (6)-cn, num edge types: 1
# Building blocks:
#     Node 0, Type 0, BuildingBlock: CUWYAW_clean_sbu_0, # of connection points: 6
#     Node 1, Type 0, BuildingBlock: CUWYAW_clean_sbu_0, # of connection points: 6
#     Node 2, Type 0, BuildingBlock: CUWYAW_clean_sbu_0, # of connection points: 6
#     Node 3, Type 0, BuildingBlock: CUWYAW_clean_sbu_0, # of connection points: 6
#     Node 4, Type 0, BuildingBlock: CUWYAW_clean_sbu_0, # of connection points: 6
#     Node 5, Type 0, BuildingBlock: CUWYAW_clean_sbu_0, # of connection points: 6
#     Edge 6, Type (0, 0), BuildingBlock: AJUNOK_clean_linker_0, # of connection points: 2
#     Edge 7, Type (0, 0), BuildingBlock: AJUNOK_clean_linker_0, # of connection points: 2
#     Edge 8, Type (0, 0), BuildingBlock: AJUNOK_clean_linker_0, # of connection points: 2
#     Edge 9, Type (0, 0), BuildingBlock: AJUNOK_clean_linker_0, # of connection points: 2
#     Edge 10, Type (0, 0), BuildingBlock: AJUNOK_clean_linker_0, # of connection points: 2
#     Edge 11, Type (0, 0), BuildingBlock: AJUNOK_clean_linker_0, # of connection points: 2
#     Edge 12, Type (0, 0), BuildingBlock: AJUNOK_clean_linker_0, # of connection points: 2
#     Edge 13, Type (0, 0), BuildingBlock: AJUNOK_clean_linker_0, # of connection points: 2
#     Edge 14, Type (0, 0), BuildingBlock: AJUNOK_clean_linker_0, # of connection points: 2
#     Edge 15, Type (0, 0), BuildingBlock: AJUNOK_clean_linker_0, # of connection points: 2
#     Edge 16, Type (0, 0), BuildingBlock: AJUNOK_clean_linker_0, # of connection points: 2
#     Edge 17, Type (0, 0), BuildingBlock: AJUNOK_clean_linker_0, # of connection points: 2
#     Edge 18, Type (0, 0), BuildingBlock: AJUNOK_clean_linker_0, # of connection points: 2
#     Edge 19, Type (0, 0), BuildingBlock: AJUNOK_clean_linker_0, # of connection points: 2
#     Edge 20, Type (0, 0), BuildingBlock: AJUNOK_clean_linker_0, # of connection points: 2
#     Edge 21, Type (0, 0), BuildingBlock: AJUNOK_clean_linker_0, # of connection points: 2
#     Edge 22, Type (0, 0), BuildingBlock: AJUNOK_clean_linker_0, # of connection points: 2
#     Edge 23, Type (0, 0), BuildingBlock: AJUNOK_clean_linker_0, # of connection points: 2
# Relax obj value: 1.071
# Max RMSD: 0.260
# Mean RMSD: 0.260
data_MOF--net-rkf--node1-CUWYAW_clean_sbu_0--edge1-AJUNOK_clean_linker_0
_symmetry_space_group_name_H-M    P1
_symmetry_Int_Tables_number       1
_symmetry_cell_setting            triclinic
loop_
_symmetry_equiv_pos_as_xyz
'x, y, z'
_cell_length_a     20.29311
_cell_length_b     20.386166
_cell_length_c     31.323563
_cell_angle_alpha  90.044928
_cell_angle_beta   90.430319
_cell_angle_gamma 120.45362
loop_
_atom_site_label
_atom_site_type_symbol
_atom_site_fract_x
_atom_site_fract_y
_atom_site_fract_z
_atom_type_partial_charge
C0 C 0.43707 0.333 1.21048 0.0
Eu1 Eu 0.36376 0.19086 1.2336 0.0
C2 C 0.44561 0.40714 1.21995 0.0
C3 C 0.48274 0.46462 1.18993 0.0
C4 C 0.47634 0.52921 1.19168 0.0
C5 C 0.43308 0.5381 1.22384 0.0
C6 C 0.4048 0.48474 0.25728 0.0
C7 C 0.40988 0.41874 0.25496 0.0
C8 C 0.44405 0.11757 1.23312 0.0
C9 C 0.25815 0.05289 1.17004 0.0
C10 C 0.2582 0.90728 0.29571 0.0
Eu11 Eu 0.2859 0.04187 0.27351 0.0
C12 C 0.28574 0.87957 0.33086 0.0
C13 C 0.23463 0.81153 0.35108 0.0
C14 C 0.25393 0.79359 0.39042 0.0
C15 C 0.32461 0.84381 0.41022 0.0
C16 C 0.37928 0.90703 0.38726 0.0
C17 C 0.3596 0.92527 0.34802 0.0
C18 C 0.19953 0.10744 0.27497 0.0
C19 C 0.34922 0.18299 0.33698 0.0
O20 O 0.46358 0.30489 1.23865 0.0
O21 O 0.37135 0.28192 1.19403 0.0
O22 O 0.4355 0.15069 1.20025 0.0
O23 O 0.40871 0.12306 0.26455 0.0
O24 O 0.29711 0.12772 1.17457 0.0
O25 O 0.24826 0.0085 1.20326 0.0
O26 O 0.30893 0.94908 0.26718 0.0
O27 O 0.21514 0.93504 0.30695 0.0
O28 O 0.19812 0.06217 0.3046 0.0
O29 O 0.24035 0.1103 1.2439 0.0
O30 O 0.33585 0.11244 0.334 0.0
O31 O 0.35177 0.22084 0.3022 0.0
H32 H 0.51133 0.45678 1.16297 0.0
H33 H 0.49855 0.56781 1.16498 0.0
H34 H 0.37356 0.49083 0.28333 0.0
H35 H 0.38197 0.37499 0.27889 0.0
H36 H 0.17758 0.77538 0.33816 0.0
H37 H 0.21017 0.74461 0.40732 0.0
H38 H 0.4344 0.94619 0.40148 0.0
H39 H 0.40007 -0.02215 0.33269 0.0
C40 C 0.13484 0.37405 0.55391 0.0
Eu41 Eu 0.25773 0.36654 0.56863 0.0
C42 C 0.11132 0.42549 0.53511 0.0
C43 C 0.08416 0.46224 0.56169 0.0
C44 C 0.05057 0.50154 0.54412 0.0
C45 C 0.04269 0.50371 0.49968 0.0
C46 C 0.0753 0.47188 0.47327 0.0
C47 C 0.10917 0.43318 0.49076 0.0
C48 C 0.3931 0.50338 0.56086 0.0
C49 C 0.33529 0.31858 0.49978 0.0
C50 C 0.49414 0.35012 0.61948 0.0
Eu51 Eu 0.37613 0.36158 0.59849 0.0
C52 C 0.55829 0.38256 0.64983 0.0
C53 C 0.55094 0.40997 0.68938 0.0
C54 C 0.59678 0.41337 0.72359 0.0
C55 C 0.64989 0.38866 0.71852 0.0
C56 C 0.66785 0.37757 0.67684 0.0
C57 C 0.62083 0.37272 0.64265 0.0
C58 C 0.22615 0.21883 0.62057 0.0
C59 C 0.27711 0.37552 0.67097 0.0
O60 O 0.15865 0.33969 0.52845 0.0
O61 O 0.17441 0.39692 0.58921 0.0
O62 O 0.34557 0.4691 0.52982 0.0
O63 O 0.36908 0.46371 0.59355 0.0
O64 O 0.26722 0.30421 0.51137 0.0
O65 O 0.39378 0.35779 0.52618 0.0
O66 O 0.49551 0.39434 0.58888 0.0
O67 O 0.42626 0.30867 0.63614 0.0
O68 O 0.26205 0.25981 0.588 0.0
O69 O 0.26282 0.26044 0.58849 0.0
O70 O 0.34856 0.39375 0.66346 0.0
O71 O 0.22851 0.35298 0.63878 0.0
H72 H 0.08561 0.45754 0.59609 0.0
H73 H 0.02704 0.52645 0.56522 0.0
H74 H 0.06953 0.47165 0.43885 0.0
H75 H 0.12991 0.40596 0.4694 0.0
H76 H 0.50414 0.42 0.69513 0.0
H77 H 0.58217 0.42431 0.75494 0.0
H78 H 0.71094 0.36209 0.67157 0.0
H79 H 0.62861 0.35373 0.61176 0.0
C80 C 0.85274 0.23388 0.86529 0.0
Eu81 Eu -0.00953 0.3229 0.89479 0.0
C82 C 0.77731 0.16744 0.87332 0.0
C83 C 0.71923 0.15163 0.84382 0.0
C84 C 0.65177 0.08165 0.84423 0.0
C85 C 0.63975 0.02601 0.87483 0.0
C86 C 0.6956 0.04536 0.90711 0.0
C87 C 0.76442 0.1155 0.90613 0.0
C88 C 0.04978 0.47574 0.89318 0.0
C89 C 0.13931 0.37847 0.8362 0.0
C90 C 0.26385 0.5289 0.96988 0.0
Eu91 Eu 0.14022 0.41399 0.93916 0.0
C92 C 0.28324 0.55474 1.01427 0.0
C93 C 0.25706 0.50068 1.04689 0.0
C94 C 0.27115 0.52362 1.08927 0.0
C95 C 0.31024 0.60139 1.1004 0.0
C96 C 0.33545 0.65581 1.06764 0.0
C97 C 0.32167 0.63251 1.02475 0.0
C98 C 0.08803 0.26341 0.94101 0.0
C99 C -0.00404 0.32019 0.99961 0.0
O100 O 0.87238 0.29604 0.8869 0.0
O101 O 0.90938 0.22161 0.85942 0.0
O102 O 0.01914 0.43182 0.86034 0.0
O103 O 0.04766 0.43726 0.9251 0.0
O104 O 0.06463 0.33121 0.83899 0.0
O105 O 0.17913 0.4208 0.86952 0.0
O106 O 0.20759 0.53508 0.95382 0.0
O107 O 0.25816 0.46338 0.96083 0.0
O108 O 0.12763 0.30945 0.97206 0.0
O109 O 0.08314 0.29951 0.9096 0.0
O110 O 0.0667 0.37866 0.99839 0.0
O111 O -0.04159 0.28526 0.96419 0.0
H112 H 0.72833 0.19113 0.81826 0.0
H113 H 0.61275 0.06902 0.81772 0.0
H114 H 0.68854 0.00427 0.9312 0.0
H115 H 0.80893 0.12733 0.92938 0.0
H116 H 0.22606 0.44028 1.03968 0.0
H117 H 0.25377 0.47975 1.11322 0.0
H118 H 0.36673 0.71601 1.07518 0.0
H119 H 0.34099 0.67497 0.99983 0.0
C120 C 0.82867 0.91978 1.2244 0.0
Eu121 Eu 0.81818 0.04146 1.23193 0.0
C122 C 0.7927 0.84035 1.21041 0.0
C123 C 0.71315 0.79077 1.21078 0.0
C124 C 0.68196 0.71548 1.19659 0.0
C125 C 0.72991 0.6894 1.18182 0.0
C126 C 0.80955 0.73879 1.18332 0.0
C127 C 0.84051 0.81341 1.19751 0.0
C128 C 0.68576 0.04435 1.233 0.0
C129 C 0.86365 0.17135 1.16278 0.0
C130 C 0.80664 0.301 0.27662 0.0
Eu131 Eu 0.83185 0.18885 0.26497 0.0
C132 C 0.7979 0.34211 0.31231 0.0
C133 C 0.78548 0.31157 0.35337 0.0
C134 C 0.79937 0.35844 0.3887 0.0
C135 C 0.82642 0.4368 0.38346 0.0
C136 C 0.82904 0.46453 0.34204 0.0
C137 C 0.8153 0.41741 0.30659 0.0
C138 C -0.03641 0.18664 0.2682 0.0
C139 C 0.82678 0.07357 0.33485 0.0
O140 O 0.85227 -0.02754 1.19512 0.0
O141 O 0.79949 0.93445 0.25746 0.0
O142 O 0.70156 0.01034 1.20313 0.0
O143 O 0.73778 0.07056 0.26064 0.0
O144 O 0.86973 0.11163 1.17276 0.0
O145 O 0.83906 0.20232 1.19133 0.0
O146 O 0.75213 0.23037 0.2708 0.0
O147 O 0.87488 0.30979 0.27315 0.0
O148 O -0.05376 0.22221 0.29654 0.0
O149 O 0.9137 0.15941 1.23905 0.0
O150 O 0.80705 0.12586 0.32863 0.0
O151 O 0.84724 0.04652 0.30239 0.0
H152 H 0.67537 0.81052 1.22124 0.0
H153 H 0.62065 0.6784 1.19587 0.0
H154 H 0.84806 0.72102 1.17133 0.0
H155 H 0.90205 0.85075 1.19751 0.0
H156 H 0.77204 0.25345 0.35825 0.0
H157 H 0.79774 0.33477 0.41986 0.0
H158 H 0.84927 0.52432 0.33697 0.0
H159 H 0.82463 0.44154 0.27487 0.0
C160 C -0.03866 0.78715 0.53469 0.0
Eu161 Eu 0.86769 0.8312 0.55888 0.0
C162 C 0.02631 0.77863 0.54709 0.0
C163 C 0.03574 0.72422 0.52531 0.0
C164 C 0.10571 0.72728 0.52673 0.0
C165 C 0.16787 0.78538 0.54991 0.0
C166 C 0.15348 0.83111 0.57768 0.0
C167 C 0.08337 0.82893 0.5756 0.0
C168 C 0.71598 0.72929 0.5543 0.0
C169 C 0.81314 0.92137 0.49763 0.0
C170 C 0.63966 0.87084 0.62627 0.0
Eu171 Eu 0.76337 0.8778 0.59917 0.0
C172 C 0.60979 0.85579 0.66985 0.0
C173 C 0.66138 0.87644 0.70403 0.0
C174 C 0.63548 0.86444 0.7457 0.0
C175 C 0.55688 0.83045 0.75455 0.0
C176 C 0.50459 0.80472 0.72005 0.0
C177 C 0.53102 0.81759 0.67786 0.0
C178 C 0.91036 -0.01534 0.60642 0.0
C179 C 0.86646 0.84108 0.66281 0.0
O180 O 0.89578 0.74175 0.55259 0.0
O181 O -0.02591 0.85626 0.52881 0.0
O182 O 0.76096 0.7461 0.522 0.0
O183 O 0.75261 0.76752 0.58644 0.0
O184 O 0.86307 0.89861 0.50345 0.0
O185 O 0.76418 0.91273 0.5284 0.0
O186 O 0.63992 0.81347 0.60782 0.0
O187 O 0.7039 0.93529 0.62097 0.0
O188 O 0.8597 -0.02496 0.63484 0.0
O189 O 0.88009 0.94287 0.57402 0.0
O190 O 0.80133 0.8415 0.6594 0.0
O191 O 0.90569 0.84498 0.62842 0.0
H192 H -0.0086 0.68375 0.50393 0.0
H193 H 0.11308 0.68984 0.50531 0.0
H194 H 0.19859 0.87366 0.59776 0.0
H195 H 0.07585 0.86988 0.59378 0.0
H196 H 0.72237 0.90413 0.69862 0.0
H197 H 0.67823 0.88634 0.77092 0.0
H198 H 0.4437 0.77683 0.72556 0.0
H199 H 0.49028 0.79894 0.65164 0.0
C200 C 0.28116 0.06122 0.89204 0.0
Eu201 Eu 0.15033 0.93527 0.89755 0.0
C202 C 0.35855 0.10756 0.87484 0.0
C203 C 0.41331 0.08477 0.87775 0.0
C204 C 0.48803 0.13312 0.86369 0.0
C205 C 0.50875 0.20461 0.84673 0.0
C206 C 0.45442 0.22793 0.84517 0.0
C207 C 0.38016 0.17993 0.85917 0.0
C208 C 0.13211 0.79424 0.89612 0.0
C209 C 0.0139 0.85775 0.8291 0.0
C210 C 0.88221 0.67394 0.94379 0.0
Eu211 Eu -0.00087 0.81022 0.93284 0.0
C212 C 0.84776 0.61907 0.97837 0.0
C213 C 0.88415 0.63492 1.01824 0.0
C214 C 0.84232 0.59752 1.05431 0.0
C215 C 0.76332 0.54457 1.05089 0.0
C216 C 0.73069 0.52014 1.01003 0.0
C217 C 0.77262 0.55813 0.97386 0.0
C218 C 0.01466 0.94934 0.93476 0.0
C219 C 0.12168 0.91831 1.00142 0.0
O220 O 0.22186 0.04714 0.86832 0.0
O221 O 0.26833 0.00546 0.91759 0.0
O222 O 0.1678 0.84446 0.86661 0.0
O223 O 0.11265 0.82257 0.92572 0.0
O224 O 0.08488 0.91463 0.8353 0.0
O225 O -0.02541 0.81032 0.86059 0.0
O226 O -0.05141 0.68699 0.93023 0.0
O227 O 0.87952 0.73637 0.94853 0.0
O228 O -0.02344 0.89803 0.96367 0.0
O229 O 0.03681 0.92248 0.90571 0.0
O230 O 0.06443 0.84726 0.99633 0.0
O231 O 0.15081 -0.03702 0.96791 0.0
H232 H 0.39843 0.02975 0.89069 0.0
H233 H 0.52922 0.11438 0.86521 0.0
H234 H 0.46853 0.28226 0.83144 0.0
H235 H 0.33935 0.1993 0.85757 0.0
H236 H -0.05748 0.68139 1.02209 0.0
H237 H 0.86973 0.61765 1.08519 0.0
H238 H 0.67056 0.4782 1.00639 0.0
H239 H 0.74424 0.5446 0.94296 0.0
C240 C 0.05102 0.15135 1.23329 0.0
C241 C 0.02918 0.17435 0.27036 0.0
C242 C 0.1087 0.13284 1.23463 0.0
C243 C 0.14494 0.13473 0.27332 0.0
H244 H 0.02265 0.14663 1.20304 0.0
H245 H 0.12286 0.1141 1.20552 0.0
S246 S 0.11303 0.1963 0.37871 0.0
N247 N 0.0523 0.20323 0.34623 0.0
N248 N 0.15867 0.16524 0.34902 0.0
C249 C 0.1252 0.15944 0.31038 0.0
C250 C 0.06784 0.18023 0.30883 0.0
C251 C 0.03666 0.06839 0.57345 0.0
C252 C -0.0083 0.04113 0.61025 0.0
C253 C 0.11354 0.12543 0.57642 0.0
C254 C 0.14762 0.15547 0.61644 0.0
H255 H 0.01186 0.04701 0.54214 0.0
H256 H 0.14601 0.14642 0.54729 0.0
S257 S 0.05573 0.09877 0.72202 0.0
N258 N -0.01288 0.04534 0.68766 0.0
N259 N 0.1326 0.1517 0.69326 0.0
C260 C 0.10405 0.12654 0.65336 0.0
C261 C 0.02563 0.06953 0.6503 0.0
C262 C 0.02579 0.06145 0.97399 0.0
C263 C 0.03132 0.02869 0.93566 0.0
C264 C 0.04482 0.13792 0.97563 0.0
C265 C 0.06824 0.18332 0.93882 0.0
H266 H 0.00804 0.02829 1.00303 0.0
H267 H 0.04054 0.16138 1.00576 0.0
S268 S 0.09443 0.12543 0.83115 0.0
N269 N 0.06388 0.0482 0.86036 0.0
N270 N 0.09797 0.1911 0.86344 0.0
C271 C 0.07362 0.15117 0.90036 0.0
C272 C 0.05563 0.07399 0.89881 0.0
C273 C 0.44641 0.65447 1.18971 0.0
C274 C 0.40207 0.58931 1.2148 0.0
C275 C 0.41358 0.66938 1.15426 0.0
C276 C 0.33505 0.62275 1.1455 0.0
H277 H 0.50812 0.68415 1.19201 0.0
H278 H 0.45149 0.70894 1.13057 0.0
S279 S 0.18993 0.48142 1.2182 0.0
N280 N 0.27282 0.50203 1.23972 0.0
N281 N 0.2109 0.5365 1.17588 0.0
C282 C 0.28854 0.57572 1.17842 0.0
C283 C 0.32215 0.55753 1.21305 0.0
C284 C 0.00686 0.56081 0.44037 0.0
C285 C -0.01146 0.52393 0.4801 0.0
C286 C -0.05036 0.54363 0.40983 0.0
C287 C 0.87275 0.48962 0.41857 0.0
H288 H 0.06601 0.59373 0.43056 0.0
H289 H -0.03243 0.56336 0.37757 0.0
S290 S 0.79341 0.40827 0.52423 0.0
N291 N 0.88705 0.45289 0.53128 0.0
N292 N 0.77952 0.42385 0.47414 0.0
C293 C 0.85299 0.46848 0.46128 0.0
C294 C 0.91122 0.48468 0.49221 0.0
C295 C 0.60492 0.89105 0.86527 0.0
C296 C 0.58101 0.94498 0.86542 0.0
C297 C 0.58008 0.83594 0.83287 0.0
C298 C 0.53462 0.83693 0.79889 0.0
H299 H 0.65203 0.8987 0.8853 0.0
H300 H 0.60861 0.80337 0.82991 0.0
S301 S 0.42076 0.9329 0.80174 0.0
N302 N 0.47924 -0.03229 0.84328 0.0
N303 N 0.4393 0.87084 0.77915 0.0
C304 C 0.49406 0.87494 0.80609 0.0
C305 C 0.51616 0.92791 0.84051 0.0
C306 C 0.73367 0.57254 1.16343 0.0
C307 C 0.69978 0.61742 1.15741 0.0
C308 C 0.74089 0.53247 1.12916 0.0
C309 C 0.71513 0.53727 1.08808 0.0
H310 H 0.76426 0.57728 1.19285 0.0
H311 H 0.77736 0.50833 1.13327 0.0
S312 S 0.59535 0.62144 1.06088 0.0
N313 N 0.62019 0.64504 1.1113 0.0
N314 N 0.63261 0.56904 1.04713 0.0
C315 C 0.66615 0.56723 1.08451 0.0
C316 C 0.65914 0.60825 1.11929 0.0
C317 C 0.26111 0.75594 0.51626 0.0
C318 C 0.24653 0.81084 0.53418 0.0
C319 C 0.30065 0.77047 0.47766 0.0
C320 C 0.32948 0.84127 0.45742 0.0
H321 H 0.23033 0.69779 0.52758 0.0
H322 H 0.29859 0.72313 0.46067 0.0
S323 S 0.34249 0.01482 0.50392 0.0
N324 N 0.2902 0.94641 0.53785 0.0
N325 N 0.36658 -0.02584 0.46649 0.0
C326 C 0.33337 0.90162 0.48126 0.0
C327 C 0.29175 0.88643 0.51994 0.0
C328 C 0.6241 0.32918 0.83016 0.0
C329 C 0.58093 0.25008 0.82337 0.0
C330 C 0.66519 0.37821 0.79667 0.0
C331 C 0.66118 0.34904 0.75533 0.0
H332 H 0.61766 0.35355 0.85948 0.0
H333 H 0.68839 0.43871 0.80131 0.0
S334 S 0.58162 0.1454 0.72697 0.0
N335 N 0.55631 0.14465 0.77695 0.0
N336 N 0.63324 0.23606 0.71406 0.0
C337 C 0.63326 0.27022 0.75137 0.0
C338 C 0.59191 0.2205 0.78547 0.0
C339 C 0.52171 0.07074 1.19688 0.0
C340 C 0.50033 0.09179 1.23488 0.0
C341 C 0.57952 0.05207 1.19667 0.0
C342 C 0.6188 0.055 1.23438 0.0
H343 H 0.49431 0.06983 1.16688 0.0
H344 H 0.59541 0.03802 1.16656 0.0
S345 S 0.58313 0.10452 0.3426 0.0
N346 N 0.5219 0.1128 0.31133 0.0
N347 N 0.6299 0.07725 0.31117 0.0
C348 C 0.59642 0.07382 0.27283 0.0
C349 C 0.53734 0.09238 0.27304 0.0
C350 C 0.51719 0.5948 0.59477 0.0
C351 C 0.47327 0.56573 0.55717 0.0
C352 C 0.59539 0.64781 0.59328 0.0
C353 C 0.63299 0.67403 0.55414 0.0
H354 H 0.49125 0.57536 0.62578 0.0
H355 H 0.62682 0.66762 0.62315 0.0
S356 S 0.54391 0.61778 0.44647 0.0
N357 N 0.47265 0.56834 0.47959 0.0
N358 N 0.62042 0.66861 0.47677 0.0
C359 C 0.58981 0.64649 0.51622 0.0
C360 C 0.50966 0.59241 0.51774 0.0
C361 C 0.07651 0.59445 0.9323 0.0
C362 C 0.0754 0.55803 0.89389 0.0
C363 C 0.09557 0.6711 0.93285 0.0
C364 C 0.11559 0.71447 0.89516 0.0
H365 H 0.06062 0.56301 0.96196 0.0
H366 H 0.09408 0.69641 0.963 0.0
S367 S 0.12665 0.64706 0.78687 0.0
N368 N 0.09897 0.57191 0.81759 0.0
N369 N 0.13638 0.716 0.81878 0.0
C370 C 0.11717 0.67933 0.85686 0.0
C371 C 0.09656 0.60109 0.85619 0.0
C372 C 0.29887 0.1739 0.41151 0.0
C373 C 0.35174 0.21753 0.37969 0.0
C374 C 0.29407 0.20732 0.44999 0.0
C375 C 0.34375 0.28521 0.45907 0.0
H376 H 0.25874 0.11402 0.40595 0.0
H377 H 0.25105 0.17171 0.47295 0.0
S378 S 0.49374 0.42422 0.38721 0.0
N379 N 0.45463 0.34332 0.3601 0.0
N380 N 0.44839 0.4046 0.43322 0.0
C381 C 0.39825 0.32899 0.42815 0.0
C382 C 0.40144 0.29559 0.38833 0.0
C383 C 0.16698 0.34652 0.71899 0.0
C384 C 0.24661 0.37726 0.71451 0.0
C385 C 0.134 0.34787 0.75799 0.0
C386 C 0.17846 0.38045 0.79508 0.0
H387 H 0.12871 0.32059 0.69195 0.0
H388 H 0.07255 0.32319 0.75882 0.0
S389 S 0.38947 0.46601 0.80218 0.0
N390 N 0.36908 0.4394 0.75165 0.0
N391 N 0.30729 0.44236 0.82509 0.0
C392 C 0.25827 0.41092 0.79152 0.0
C393 C 0.29211 0.40908 0.75143 0.0
C394 C -0.0045 0.25248 1.06656 0.0
C395 C -0.03789 0.28566 1.04171 0.0
C396 C -0.03782 0.21448 1.10496 0.0
C397 C 0.89542 0.21031 1.12109 0.0
H398 H 0.04727 0.25484 1.05588 0.0
H399 H -0.01011 0.18927 1.12258 0.0
S400 S 0.78801 0.29186 1.06933 0.0
N401 N 0.8589 0.31268 1.03616 0.0
N402 N 0.79882 0.24545 1.10949 0.0
C403 C 0.86272 0.24528 1.09713 0.0
C404 C 0.89532 0.28176 1.0572 0.0
C405 C 0.7751 0.03275 0.41029 0.0
C406 C 0.8279 0.04271 0.37826 0.0
C407 C 0.77004 -0.00649 0.44868 0.0
C408 C 0.81777 -0.03715 0.45676 0.0
H409 H 0.73568 0.0531 0.40509 0.0
H410 H 0.72786 -0.01343 0.47198 0.0
S411 S -0.0296 -0.02058 0.38427 0.0
N412 N -0.06808 0.02252 0.35861 0.0
N413 N 0.92293 -0.04999 0.42933 0.0
C414 C 0.87237 -0.02511 0.42527 0.0
C415 C 0.8773 0.0144 0.38656 0.0
C416 C -0.01928 0.87068 0.70938 0.0
C417 C 0.9014 0.84338 0.70584 0.0
C418 C 0.01641 0.87524 0.74901 0.0
C419 C -0.02558 0.85105 0.78709 0.0
H420 H 0.01629 0.89008 0.68127 0.0
H421 H 0.07751 0.89742 0.74971 0.0
S422 S 0.76597 0.77826 0.79639 0.0
N423 N 0.78276 0.79476 0.74486 0.0
N424 N 0.84895 0.80129 0.8188 0.0
C425 C 0.89513 0.82388 0.78416 0.0
C426 C 0.85899 0.82068 0.74384 0.0
C427 C 0.13443 0.90811 1.08222 0.0
C428 C 0.15429 -0.04749 1.04483 0.0
C429 C 0.16802 0.94037 1.12242 0.0
C430 C 0.2227 0.01865 1.12721 0.0
H431 H 0.09321 0.84775 1.08044 0.0
H432 H 0.1507 0.90349 1.14999 0.0
S433 S 0.29461 0.16091 1.03971 0.0
N434 N 0.23258 0.08041 1.01609 0.0
N435 N 0.29471 0.13941 1.0904 0.0
C436 C 0.24251 0.06361 1.09012 0.0
C437 C 0.20869 0.03109 1.04943 0.0
loop_
_geom_bond_atom_site_label_1
_geom_bond_atom_site_label_2
_geom_bond_distance
_geom_bond_site_symmetry_2
_ccdc_geom_bond_type
C0 Eu1 2.835 . S
C0 C2 1.500 . S
C0 O20 1.257 . S
C0 O21 1.260 . S
Eu1 C0 2.835 . S
Eu1 O20 2.473 . S
Eu1 O21 2.480 . S
Eu1 O22 2.430 . S
Eu1 O23 2.670 1_556 S
Eu1 O24 2.394 . S
Eu1 O29 2.355 1_556 S
Eu1 O31 2.374 1_556 S
C2 C0 1.500 . S
C2 C3 1.377 . S
C2 C7 1.377 . S
C3 C2 1.377 . S
C3 C4 1.395 . S
C3 H32 0.931 . S
C4 C3 1.395 . S
C4 C5 1.383 . S
C4 H33 0.931 . S
C5 C4 1.383 . S
C5 C6 1.394 . S
C6 C5 1.394 . S
C6 C7 1.378 . S
C6 H34 0.931 . S
C7 C2 1.377 . S
C7 C6 1.378 . S
C7 H35 0.931 . S
C8 O22 1.259 1_554 S
C8 O23 1.270 . S
C9 O24 1.251 . S
C9 O25 1.251 . S
C10 Eu11 2.835 . S
C10 C12 1.500 . S
C10 O26 1.257 . S
C10 O27 1.260 . S
Eu11 C10 2.835 . S
Eu11 O23 2.355 . S
Eu11 O25 2.374 1_554 S
Eu11 O26 2.473 . S
Eu11 O27 2.480 . S
Eu11 O28 2.430 . S
Eu11 O29 2.670 . S
Eu11 O30 2.394 . S
C12 C10 1.500 . S
C12 C13 1.377 . S
C12 C17 1.377 . S
C13 C12 1.377 . S
C13 C14 1.395 . S
C13 H36 0.931 . S
C14 C13 1.395 . S
C14 C15 1.383 . S
C14 H37 0.931 . S
C15 C14 1.383 . S
C15 C16 1.394 . S
C16 C15 1.394 . S
C16 C17 1.378 . S
C16 H38 0.931 . S
C17 C12 1.377 . S
C17 C16 1.378 . S
C17 H39 0.931 . S
C18 O28 1.259 . S
C18 O29 1.270 . S
C19 O30 1.251 . S
C19 O31 1.251 . S
O20 C0 1.257 . S
O20 Eu1 2.473 . S
O21 C0 1.260 . S
O21 Eu1 2.480 . S
O22 Eu1 2.430 . S
O22 C8 1.259 1_556 S
O23 Eu1 2.670 1_554 S
O23 C8 1.270 . S
O23 Eu11 2.355 . S
O24 Eu1 2.394 . S
O24 C9 1.251 . S
O25 C9 1.251 . S
O25 Eu11 2.374 1_556 S
O26 C10 1.257 . S
O26 Eu11 2.473 . S
O27 C10 1.260 . S
O27 Eu11 2.480 . S
O28 Eu11 2.430 . S
O28 C18 1.259 . S
O29 Eu1 2.355 1_554 S
O29 Eu11 2.670 . S
O29 C18 1.270 . S
O30 Eu11 2.394 . S
O30 C19 1.251 . S
O31 Eu1 2.374 1_554 S
O31 C19 1.251 . S
H32 C3 0.931 . S
H33 C4 0.931 . S
H34 C6 0.931 . S
H35 C7 0.931 . S
H36 C13 0.931 . S
H37 C14 0.931 . S
H38 C16 0.931 . S
H39 C17 0.931 . S
C40 Eu41 2.835 . S
C40 C42 1.500 . S
C40 O60 1.257 . S
C40 O61 1.260 . S
Eu41 C40 2.835 . S
Eu41 O60 2.473 . S
Eu41 O61 2.480 . S
Eu41 O62 2.430 . S
Eu41 O63 2.670 . S
Eu41 O64 2.394 . S
Eu41 O69 2.355 . S
Eu41 O71 2.374 . S
C42 C40 1.500 . S
C42 C43 1.377 . S
C42 C47 1.377 . S
C43 C42 1.377 . S
C43 C44 1.395 . S
C43 H72 0.931 . S
C44 C43 1.395 . S
C44 C45 1.383 . S
C44 H73 0.931 . S
C45 C44 1.383 . S
C45 C46 1.394 . S
C46 C45 1.394 . S
C46 C47 1.378 . S
C46 H74 0.931 . S
C47 C42 1.377 . S
C47 C46 1.378 . S
C47 H75 0.931 . S
C48 O62 1.259 . S
C48 O63 1.270 . S
C49 O64 1.251 . S
C49 O65 1.251 . S
C50 Eu51 2.835 . S
C50 C52 1.500 . S
C50 O66 1.257 . S
C50 O67 1.260 . S
Eu51 C50 2.835 . S
Eu51 O63 2.355 . S
Eu51 O65 2.374 . S
Eu51 O66 2.473 . S
Eu51 O67 2.480 . S
Eu51 O68 2.430 . S
Eu51 O69 2.670 . S
Eu51 O70 2.394 . S
C52 C50 1.500 . S
C52 C53 1.377 . S
C52 C57 1.377 . S
C53 C52 1.377 . S
C53 C54 1.395 . S
C53 H76 0.931 . S
C54 C53 1.395 . S
C54 C55 1.383 . S
C54 H77 0.931 . S
C55 C54 1.383 . S
C55 C56 1.394 . S
C56 C55 1.394 . S
C56 C57 1.378 . S
C56 H78 0.931 . S
C57 C52 1.377 . S
C57 C56 1.378 . S
C57 H79 0.931 . S
C58 O68 1.259 . S
C58 O69 1.270 . S
C59 O70 1.251 . S
C59 O71 1.251 . S
O60 C40 1.257 . S
O60 Eu41 2.473 . S
O61 C40 1.260 . S
O61 Eu41 2.480 . S
O62 Eu41 2.430 . S
O62 C48 1.259 . S
O63 Eu41 2.670 . S
O63 C48 1.270 . S
O63 Eu51 2.355 . S
O64 Eu41 2.394 . S
O64 C49 1.251 . S
O65 C49 1.251 . S
O65 Eu51 2.374 . S
O66 C50 1.257 . S
O66 Eu51 2.473 . S
O67 C50 1.260 . S
O67 Eu51 2.480 . S
O68 Eu51 2.430 . S
O68 C58 1.259 . S
O69 Eu41 2.355 . S
O69 Eu51 2.670 . S
O69 C58 1.270 . S
O70 Eu51 2.394 . S
O70 C59 1.251 . S
O71 Eu41 2.374 . S
O71 C59 1.251 . S
H72 C43 0.931 . S
H73 C44 0.931 . S
H74 C46 0.931 . S
H75 C47 0.931 . S
H76 C53 0.931 . S
H77 C54 0.931 . S
H78 C56 0.931 . S
H79 C57 0.931 . S
C80 Eu81 2.835 . S
C80 C82 1.500 . S
C80 O100 1.257 . S
C80 O101 1.260 . S
Eu81 C80 2.835 . S
Eu81 O100 2.473 . S
Eu81 O101 2.480 . S
Eu81 O102 2.430 . S
Eu81 O103 2.672 . S
Eu81 O104 2.394 1_655 S
Eu81 O109 2.355 1_655 S
Eu81 O111 2.374 . S
C82 C80 1.500 . S
C82 C83 1.377 . S
C82 C87 1.377 . S
C83 C82 1.377 . S
C83 C84 1.395 . S
C83 H112 0.931 . S
C84 C83 1.395 . S
C84 C85 1.383 . S
C84 H113 0.931 . S
C85 C84 1.383 . S
C85 C86 1.394 . S
C86 C85 1.394 . S
C86 C87 1.378 . S
C86 H114 0.931 . S
C87 C82 1.377 . S
C87 C86 1.378 . S
C87 H115 0.931 . S
C88 O102 1.259 . S
C88 O103 1.276 . S
C89 O104 1.251 . S
C89 O105 1.251 . S
C90 Eu91 2.835 . S
C90 C92 1.500 . S
C90 O106 1.257 . S
C90 O107 1.260 . S
Eu91 C90 2.835 . S
Eu91 O103 2.348 1_455 S
Eu91 O105 2.374 . S
Eu91 O106 2.473 . S
Eu91 O107 2.480 . S
Eu91 O108 2.430 . S
Eu91 O109 2.670 . S
Eu91 O110 2.392 1_455 S
C92 C90 1.500 . S
C92 C93 1.377 . S
C92 C97 1.377 . S
C93 C92 1.377 . S
C93 C94 1.395 . S
C93 H116 0.931 . S
C94 C93 1.395 . S
C94 C95 1.383 . S
C94 H117 0.931 . S
C95 C94 1.383 . S
C95 C96 1.394 . S
C96 C95 1.394 . S
C96 C97 1.378 . S
C96 H118 0.931 . S
C97 C92 1.377 . S
C97 C96 1.378 . S
C97 H119 0.931 . S
C98 O108 1.259 . S
C98 O109 1.270 . S
C99 O110 1.254 . S
C99 O111 1.251 . S
O100 C80 1.257 . S
O100 Eu81 2.473 . S
O101 C80 1.260 . S
O101 Eu81 2.480 . S
O102 Eu81 2.430 . S
O102 C88 1.259 . S
O103 Eu81 2.672 . S
O103 C88 1.276 . S
O103 Eu91 2.348 1_655 S
O104 Eu81 2.394 1_455 S
O104 C89 1.251 . S
O105 C89 1.251 . S
O105 Eu91 2.374 . S
O106 C90 1.257 . S
O106 Eu91 2.473 . S
O107 C90 1.260 . S
O107 Eu91 2.480 . S
O108 Eu91 2.430 . S
O108 C98 1.259 . S
O109 Eu81 2.355 1_455 S
O109 Eu91 2.670 . S
O109 C98 1.270 . S
O110 Eu91 2.392 1_655 S
O110 C99 1.254 . S
O111 Eu81 2.374 . S
O111 C99 1.251 . S
H112 C83 0.931 . S
H113 C84 0.931 . S
H114 C86 0.931 . S
H115 C87 0.931 . S
H116 C93 0.931 . S
H117 C94 0.931 . S
H118 C96 0.931 . S
H119 C97 0.931 . S
C120 Eu121 2.835 . S
C120 C122 1.500 . S
C120 O140 1.257 . S
C120 O141 1.260 . S
Eu121 C120 2.835 . S
Eu121 O140 2.473 . S
Eu121 O141 2.480 . S
Eu121 O142 2.430 . S
Eu121 O143 2.670 1_566 S
Eu121 O144 2.394 1_565 S
Eu121 O149 2.355 1_566 S
Eu121 O151 2.374 1_556 S
C122 C120 1.500 . S
C122 C123 1.377 . S
C122 C127 1.377 . S
C123 C122 1.377 . S
C123 C124 1.395 . S
C123 H152 0.931 . S
C124 C123 1.395 . S
C124 C125 1.383 . S
C124 H153 0.931 . S
C125 C124 1.383 . S
C125 C126 1.394 . S
C126 C125 1.394 . S
C126 C127 1.378 . S
C126 H154 0.931 . S
C127 C122 1.377 . S
C127 C126 1.378 . S
C127 H155 0.931 . S
C128 O142 1.259 1_554 S
C128 O143 1.270 1_565 S
C129 O144 1.251 . S
C129 O145 1.251 . S
C130 Eu131 2.835 . S
C130 C132 1.500 . S
C130 O146 1.257 . S
C130 O147 1.260 . S
Eu131 C130 2.835 . S
Eu131 O143 2.355 . S
Eu131 O145 2.374 1_554 S
Eu131 O146 2.473 . S
Eu131 O147 2.480 . S
Eu131 O148 2.445 . S
Eu131 O149 2.670 . S
Eu131 O150 2.394 . S
C132 C130 1.500 . S
C132 C133 1.377 . S
C132 C137 1.377 . S
C133 C132 1.377 . S
C133 C134 1.395 . S
C133 H156 0.931 . S
C134 C133 1.395 . S
C134 C135 1.383 . S
C134 H157 0.931 1_655 S
C135 C134 1.383 . S
C135 C136 1.394 . S
C136 C135 1.394 . S
C136 C137 1.378 . S
C136 H158 0.931 . S
C137 C132 1.377 . S
C137 C136 1.378 . S
C137 H159 0.931 . S
C138 O148 1.258 . S
C138 O149 1.270 . S
C139 O150 1.251 1_565 S
C139 O151 1.251 . S
O140 C120 1.257 . S
O140 Eu121 2.473 . S
O141 C120 1.260 . S
O141 Eu121 2.480 . S
O142 Eu121 2.430 . S
O142 C128 1.259 1_556 S
O143 Eu121 2.670 1_544 S
O143 C128 1.270 1_545 S
O143 Eu131 2.355 . S
O144 Eu121 2.394 1_545 S
O144 C129 1.251 . S
O145 C129 1.251 . S
O145 Eu131 2.374 1_556 S
O146 C130 1.257 . S
O146 Eu131 2.473 . S
O147 C130 1.260 . S
O147 Eu131 2.480 . S
O148 Eu131 2.445 . S
O148 C138 1.258 . S
O149 Eu121 2.355 1_544 S
O149 Eu131 2.670 . S
O149 C138 1.270 . S
O150 Eu131 2.394 . S
O150 C139 1.251 1_545 S
O151 Eu121 2.374 1_554 S
O151 C139 1.251 . S
H152 C123 0.931 . S
H153 C124 0.931 . S
H154 C126 0.931 . S
H155 C127 0.931 . S
H156 C133 0.931 . S
H157 C134 0.931 1_455 S
H158 C136 0.931 . S
H159 C137 0.931 . S
C160 Eu161 2.835 . S
C160 C162 1.500 . S
C160 O180 1.257 . S
C160 O181 1.260 . S
Eu161 C160 2.835 . S
Eu161 O180 2.473 . S
Eu161 O181 2.480 . S
Eu161 O182 2.430 1_455 S
Eu161 O183 2.670 1_455 S
Eu161 O184 2.394 1_455 S
Eu161 O189 2.355 . S
Eu161 O191 2.374 . S
C162 C160 1.500 . S
C162 C163 1.377 . S
C162 C167 1.377 . S
C163 C162 1.377 . S
C163 C164 1.395 . S
C163 H192 0.931 . S
C164 C163 1.395 . S
C164 C165 1.383 . S
C164 H193 0.931 . S
C165 C164 1.383 . S
C165 C166 1.394 . S
C166 C165 1.394 . S
C166 C167 1.378 . S
C166 H194 0.931 . S
C167 C162 1.377 . S
C167 C166 1.378 . S
C167 H195 0.931 . S
C168 O182 1.259 . S
C168 O183 1.270 . S
C169 O184 1.251 . S
C169 O185 1.251 . S
C170 Eu171 2.835 . S
C170 C172 1.500 . S
C170 O186 1.257 . S
C170 O187 1.260 . S
Eu171 C170 2.835 . S
Eu171 O183 2.355 . S
Eu171 O185 2.374 . S
Eu171 O186 2.473 . S
Eu171 O187 2.480 . S
Eu171 O188 2.430 1_665 S
Eu171 O189 2.670 1_655 S
Eu171 O190 2.394 . S
C172 C170 1.500 . S
C172 C173 1.377 . S
C172 C177 1.377 . S
C173 C172 1.377 . S
C173 C174 1.395 . S
C173 H196 0.931 1_565 S
C174 C173 1.395 . S
C174 C175 1.383 . S
C174 H197 0.931 1_565 S
C175 C174 1.383 . S
C175 C176 1.394 . S
C176 C175 1.394 . S
C176 C177 1.378 . S
C176 H198 0.931 . S
C177 C172 1.377 . S
C177 C176 1.378 . S
C177 H199 0.931 . S
C178 O188 1.259 1_565 S
C178 O189 1.270 . S
C179 O190 1.251 1_455 S
C179 O191 1.251 . S
O180 C160 1.257 . S
O180 Eu161 2.473 . S
O181 C160 1.260 . S
O181 Eu161 2.480 . S
O182 Eu161 2.430 1_655 S
O182 C168 1.259 . S
O183 Eu161 2.670 1_655 S
O183 C168 1.270 . S
O183 Eu171 2.355 . S
O184 Eu161 2.394 1_655 S
O184 C169 1.251 . S
O185 C169 1.251 . S
O185 Eu171 2.374 . S
O186 C170 1.257 . S
O186 Eu171 2.473 . S
O187 C170 1.260 . S
O187 Eu171 2.480 . S
O188 Eu171 2.430 1_445 S
O188 C178 1.259 1_545 S
O189 Eu161 2.355 . S
O189 Eu171 2.670 1_455 S
O189 C178 1.270 . S
O190 Eu171 2.394 . S
O190 C179 1.251 1_655 S
O191 Eu161 2.374 . S
O191 C179 1.251 . S
H192 C163 0.931 . S
H193 C164 0.931 . S
H194 C166 0.931 . S
H195 C167 0.931 . S
H196 C173 0.931 1_545 S
H197 C174 0.931 1_545 S
H198 C176 0.931 . S
H199 C177 0.931 . S
C200 Eu201 2.835 . S
C200 C202 1.500 . S
C200 O220 1.257 . S
C200 O221 1.260 . S
Eu201 C200 2.835 . S
Eu201 O220 2.473 . S
Eu201 O221 2.480 . S
Eu201 O222 2.430 1_545 S
Eu201 O223 2.670 1_545 S
Eu201 O224 2.394 1_545 S
Eu201 O229 2.355 . S
Eu201 O231 2.374 . S
C202 C200 1.500 . S
C202 C203 1.377 . S
C202 C207 1.377 . S
C203 C202 1.377 . S
C203 C204 1.395 . S
C203 H232 0.931 . S
C204 C203 1.395 . S
C204 C205 1.383 . S
C204 H233 0.931 . S
C205 C204 1.383 . S
C205 C206 1.394 . S
C206 C205 1.394 . S
C206 C207 1.378 . S
C206 H234 0.931 . S
C207 C202 1.377 . S
C207 C206 1.378 . S
C207 H235 0.931 . S
C208 O222 1.259 . S
C208 O223 1.270 . S
C209 O224 1.251 . S
C209 O225 1.251 . S
C210 Eu211 2.835 . S
C210 C212 1.500 . S
C210 O226 1.257 . S
C210 O227 1.260 . S
Eu211 C210 2.835 . S
Eu211 O223 2.355 . S
Eu211 O225 2.374 . S
Eu211 O226 2.473 . S
Eu211 O227 2.480 . S
Eu211 O228 2.430 1_565 S
Eu211 O229 2.670 1_565 S
Eu211 O230 2.394 1_565 S
C212 C210 1.500 . S
C212 C213 1.377 . S
C212 C217 1.377 . S
C213 C212 1.377 . S
C213 C214 1.395 . S
C213 H236 0.931 . S
C214 C213 1.395 . S
C214 C215 1.383 . S
C214 H237 0.931 1_455 S
C215 C214 1.383 . S
C215 C216 1.394 . S
C216 C215 1.394 . S
C216 C217 1.378 . S
C216 H238 0.931 . S
C217 C212 1.377 . S
C217 C216 1.378 . S
C217 H239 0.931 . S
C218 O228 1.259 . S
C218 O229 1.270 . S
C219 O230 1.251 . S
C219 O231 1.251 . S
O220 C200 1.257 . S
O220 Eu201 2.473 . S
O221 C200 1.260 . S
O221 Eu201 2.480 . S
O222 Eu201 2.430 1_565 S
O222 C208 1.259 . S
O223 Eu201 2.670 1_565 S
O223 C208 1.270 . S
O223 Eu211 2.355 . S
O224 Eu201 2.394 1_565 S
O224 C209 1.251 . S
O225 C209 1.251 . S
O225 Eu211 2.374 . S
O226 C210 1.257 . S
O226 Eu211 2.473 . S
O227 C210 1.260 . S
O227 Eu211 2.480 . S
O228 Eu211 2.430 1_545 S
O228 C218 1.259 . S
O229 Eu201 2.355 . S
O229 Eu211 2.670 1_545 S
O229 C218 1.270 . S
O230 Eu211 2.394 1_545 S
O230 C219 1.251 . S
O231 Eu201 2.374 . S
O231 C219 1.251 . S
H232 C203 0.931 . S
H233 C204 0.931 . S
H234 C206 0.931 . S
H235 C207 0.931 . S
H236 C213 0.931 . S
H237 C214 0.931 1_655 S
H238 C216 0.931 . S
H239 C217 0.931 . S
C240 C241 1.369 1_556 S
C240 C242 1.419 . S
C240 H244 0.930 . S
C241 C240 1.369 1_554 S
C241 C250 1.429 . S
C242 C240 1.419 . S
C242 C243 1.363 1_556 S
C242 H245 0.929 . S
C243 C242 1.363 1_554 S
C243 C249 1.428 . S
H244 C240 0.930 . S
H245 C242 0.929 . S
S246 N247 1.613 . S
S246 N248 1.610 . S
N247 S246 1.613 . S
N247 C250 1.350 . S
N248 S246 1.610 . S
N248 C249 1.351 . S
C249 C243 1.428 . S
C249 N248 1.351 . S
C249 C250 1.434 . S
C250 C241 1.429 . S
C250 N247 1.350 . S
C250 C249 1.434 . S
C251 C252 1.369 . S
C251 C253 1.419 . S
C251 H255 0.930 . S
C252 C251 1.369 . S
C252 C261 1.429 . S
C253 C251 1.419 . S
C253 C254 1.363 . S
C253 H256 0.929 . S
C254 C253 1.363 . S
C254 C260 1.428 . S
H255 C251 0.930 . S
H256 C253 0.929 . S
S257 N258 1.613 . S
S257 N259 1.610 . S
N258 S257 1.613 . S
N258 C261 1.350 . S
N259 S257 1.610 . S
N259 C260 1.351 . S
C260 C254 1.428 . S
C260 N259 1.351 . S
C260 C261 1.434 . S
C261 C252 1.429 . S
C261 N258 1.350 . S
C261 C260 1.434 . S
C262 C263 1.369 . S
C262 C264 1.419 . S
C262 H266 0.930 . S
C263 C262 1.369 . S
C263 C272 1.429 . S
C264 C262 1.419 . S
C264 C265 1.363 . S
C264 H267 0.929 . S
C265 C264 1.363 . S
C265 C271 1.428 . S
H266 C262 0.930 . S
H267 C264 0.929 . S
S268 N269 1.613 . S
S268 N270 1.610 . S
N269 S268 1.613 . S
N269 C272 1.350 . S
N270 S268 1.610 . S
N270 C271 1.351 . S
C271 C265 1.428 . S
C271 N270 1.351 . S
C271 C272 1.434 . S
C272 C263 1.429 . S
C272 N269 1.350 . S
C272 C271 1.434 . S
C273 C274 1.369 . S
C273 C275 1.419 . S
C273 H277 0.930 . S
C274 C273 1.369 . S
C274 C283 1.429 . S
C275 C273 1.419 . S
C275 C276 1.363 . S
C275 H278 0.929 . S
C276 C275 1.363 . S
C276 C282 1.428 . S
H277 C273 0.930 . S
H278 C275 0.929 . S
S279 N280 1.613 . S
S279 N281 1.610 . S
N280 S279 1.613 . S
N280 C283 1.350 . S
N281 S279 1.610 . S
N281 C282 1.351 . S
C282 C276 1.428 . S
C282 N281 1.351 . S
C282 C283 1.434 . S
C283 C274 1.429 . S
C283 N280 1.350 . S
C283 C282 1.434 . S
C284 C285 1.369 . S
C284 C286 1.419 1_455 S
C284 H288 0.930 . S
C285 C284 1.369 . S
C285 C294 1.429 . S
C286 C284 1.419 1_655 S
C286 C287 1.363 . S
C286 H289 0.929 . S
C287 C286 1.363 . S
C287 C293 1.428 . S
H288 C284 0.930 . S
H289 C286 0.929 . S
S290 N291 1.613 1_655 S
S290 N292 1.610 . S
N291 S290 1.613 1_455 S
N291 C294 1.350 . S
N292 S290 1.610 . S
N292 C293 1.351 . S
C293 C287 1.428 . S
C293 N292 1.351 . S
C293 C294 1.434 1_655 S
C294 C285 1.429 . S
C294 N291 1.350 . S
C294 C293 1.434 1_455 S
C295 C296 1.369 . S
C295 C297 1.419 . S
C295 H299 0.930 . S
C296 C295 1.369 . S
C296 C305 1.429 . S
C297 C295 1.419 . S
C297 C298 1.363 1_545 S
C297 H300 0.929 . S
C298 C297 1.363 1_565 S
C298 C304 1.428 . S
H299 C295 0.930 . S
H300 C297 0.929 . S
S301 N302 1.613 . S
S301 N303 1.610 . S
N302 S301 1.613 . S
N302 C305 1.350 1_565 S
N303 S301 1.610 . S
N303 C304 1.351 . S
C304 C298 1.428 . S
C304 N303 1.351 . S
C304 C305 1.434 1_565 S
C305 C296 1.429 . S
C305 N302 1.350 1_545 S
C305 C304 1.434 1_545 S
C306 C307 1.369 . S
C306 C308 1.419 . S
C306 H310 0.930 . S
C307 C306 1.369 . S
C307 C316 1.429 . S
C308 C306 1.419 . S
C308 C309 1.363 . S
C308 H311 0.929 . S
C309 C308 1.363 . S
C309 C315 1.428 . S
H310 C306 0.930 . S
H311 C308 0.929 . S
S312 N313 1.613 . S
S312 N314 1.610 . S
N313 S312 1.613 . S
N313 C316 1.350 . S
N314 S312 1.610 . S
N314 C315 1.351 . S
C315 C309 1.428 . S
C315 N314 1.351 . S
C315 C316 1.434 . S
C316 C307 1.429 . S
C316 N313 1.350 . S
C316 C315 1.434 . S
C317 C318 1.369 . S
C317 C319 1.419 . S
C317 H321 0.930 . S
C318 C317 1.369 . S
C318 C327 1.429 . S
C319 C317 1.419 . S
C319 C320 1.363 . S
C319 H322 0.929 . S
C320 C319 1.363 . S
C320 C326 1.428 . S
H321 C317 0.930 . S
H322 C319 0.929 . S
S323 N324 1.613 1_545 S
S323 N325 1.610 . S
N324 S323 1.613 1_565 S
N324 C327 1.350 . S
N325 S323 1.610 . S
N325 C326 1.351 1_545 S
C326 C320 1.428 . S
C326 N325 1.351 1_565 S
C326 C327 1.434 . S
C327 C318 1.429 . S
C327 N324 1.350 . S
C327 C326 1.434 . S
C328 C329 1.369 . S
C328 C330 1.419 . S
C328 H332 0.930 . S
C329 C328 1.369 . S
C329 C338 1.429 . S
C330 C328 1.419 . S
C330 C331 1.363 . S
C330 H333 0.929 . S
C331 C330 1.363 . S
C331 C337 1.428 . S
H332 C328 0.930 . S
H333 C330 0.929 . S
S334 N335 1.613 . S
S334 N336 1.610 . S
N335 S334 1.613 . S
N335 C338 1.350 . S
N336 S334 1.610 . S
N336 C337 1.351 . S
C337 C331 1.428 . S
C337 N336 1.351 . S
C337 C338 1.434 . S
C338 C329 1.429 . S
C338 N335 1.350 . S
C338 C337 1.434 . S
C339 C340 1.369 1_556 S
C339 C341 1.419 . S
C339 H343 0.930 . S
C340 C339 1.369 1_554 S
C340 C349 1.429 . S
C341 C339 1.419 . S
C341 C342 1.363 1_556 S
C341 H344 0.929 . S
C342 C341 1.363 1_554 S
C342 C348 1.428 . S
H343 C339 0.930 . S
H344 C341 0.929 . S
S345 N346 1.613 . S
S345 N347 1.610 . S
N346 S345 1.613 . S
N346 C349 1.350 . S
N347 S345 1.610 . S
N347 C348 1.351 . S
C348 C342 1.428 . S
C348 N347 1.351 . S
C348 C349 1.434 . S
C349 C340 1.429 . S
C349 N346 1.350 . S
C349 C348 1.434 . S
C350 C351 1.369 . S
C350 C352 1.419 . S
C350 H354 0.930 . S
C351 C350 1.369 . S
C351 C360 1.429 . S
C352 C350 1.419 . S
C352 C353 1.363 . S
C352 H355 0.929 . S
C353 C352 1.363 . S
C353 C359 1.428 . S
H354 C350 0.930 . S
H355 C352 0.929 . S
S356 N357 1.613 . S
S356 N358 1.610 . S
N357 S356 1.613 . S
N357 C360 1.350 . S
N358 S356 1.610 . S
N358 C359 1.351 . S
C359 C353 1.428 . S
C359 N358 1.351 . S
C359 C360 1.434 . S
C360 C351 1.429 . S
C360 N357 1.350 . S
C360 C359 1.434 . S
C361 C362 1.369 . S
C361 C363 1.419 . S
C361 H365 0.930 . S
C362 C361 1.369 . S
C362 C371 1.429 . S
C363 C361 1.419 . S
C363 C364 1.363 . S
C363 H366 0.929 . S
C364 C363 1.363 . S
C364 C370 1.428 . S
H365 C361 0.930 . S
H366 C363 0.929 . S
S367 N368 1.613 . S
S367 N369 1.610 . S
N368 S367 1.613 . S
N368 C371 1.350 . S
N369 S367 1.610 . S
N369 C370 1.351 . S
C370 C364 1.428 . S
C370 N369 1.351 . S
C370 C371 1.434 . S
C371 C362 1.429 . S
C371 N368 1.350 . S
C371 C370 1.434 . S
C372 C373 1.369 . S
C372 C374 1.419 . S
C372 H376 0.930 . S
C373 C372 1.369 . S
C373 C382 1.429 . S
C374 C372 1.419 . S
C374 C375 1.363 . S
C374 H377 0.929 . S
C375 C374 1.363 . S
C375 C381 1.428 . S
H376 C372 0.930 . S
H377 C374 0.929 . S
S378 N379 1.613 . S
S378 N380 1.610 . S
N379 S378 1.613 . S
N379 C382 1.350 . S
N380 S378 1.610 . S
N380 C381 1.351 . S
C381 C375 1.428 . S
C381 N380 1.351 . S
C381 C382 1.434 . S
C382 C373 1.429 . S
C382 N379 1.350 . S
C382 C381 1.434 . S
C383 C384 1.369 . S
C383 C385 1.419 . S
C383 H387 0.930 . S
C384 C383 1.369 . S
C384 C393 1.429 . S
C385 C383 1.419 . S
C385 C386 1.363 . S
C385 H388 0.929 . S
C386 C385 1.363 . S
C386 C392 1.428 . S
H387 C383 0.930 . S
H388 C385 0.929 . S
S389 N390 1.613 . S
S389 N391 1.610 . S
N390 S389 1.613 . S
N390 C393 1.350 . S
N391 S389 1.610 . S
N391 C392 1.351 . S
C392 C386 1.428 . S
C392 N391 1.351 . S
C392 C393 1.434 . S
C393 C384 1.429 . S
C393 N390 1.350 . S
C393 C392 1.434 . S
C394 C395 1.369 . S
C394 C396 1.419 . S
C394 H398 0.930 . S
C395 C394 1.369 . S
C395 C404 1.429 . S
C396 C394 1.419 . S
C396 C397 1.363 . S
C396 H399 0.929 . S
C397 C396 1.363 . S
C397 C403 1.428 . S
H398 C394 0.930 . S
H399 C396 0.929 . S
S400 N401 1.613 . S
S400 N402 1.610 . S
N401 S400 1.613 . S
N401 C404 1.350 . S
N402 S400 1.610 . S
N402 C403 1.351 . S
C403 C397 1.428 . S
C403 N402 1.351 . S
C403 C404 1.434 . S
C404 C395 1.429 . S
C404 N401 1.350 . S
C404 C403 1.434 . S
C405 C406 1.369 . S
C405 C407 1.419 . S
C405 H409 0.930 . S
C406 C405 1.369 . S
C406 C415 1.429 . S
C407 C405 1.419 . S
C407 C408 1.363 . S
C407 H410 0.929 . S
C408 C407 1.363 . S
C408 C414 1.428 . S
H409 C405 0.930 . S
H410 C407 0.929 . S
S411 N412 1.611 1_455 S
S411 N413 1.612 . S
N412 S411 1.611 1_655 S
N412 C415 1.350 . S
N413 S411 1.612 . S
N413 C414 1.351 1_455 S
C414 C408 1.428 . S
C414 N413 1.351 1_655 S
C414 C415 1.434 . S
C415 C406 1.429 . S
C415 N412 1.350 . S
C415 C414 1.434 . S
C416 C417 1.369 . S
C416 C418 1.419 . S
C416 H420 0.930 . S
C417 C416 1.369 . S
C417 C426 1.429 . S
C418 C416 1.419 . S
C418 C419 1.363 . S
C418 H421 0.929 . S
C419 C418 1.363 . S
C419 C425 1.428 . S
H420 C416 0.930 . S
H421 C418 0.929 . S
S422 N423 1.613 . S
S422 N424 1.610 . S
N423 S422 1.613 . S
N423 C426 1.350 1_655 S
N424 S422 1.610 . S
N424 C425 1.351 1_655 S
C425 C419 1.428 . S
C425 N424 1.351 1_455 S
C425 C426 1.434 . S
C426 C417 1.429 . S
C426 N423 1.350 1_455 S
C426 C425 1.434 . S
C427 C428 1.369 . S
C427 C429 1.419 . S
C427 H431 0.930 . S
C428 C427 1.369 . S
C428 C437 1.429 . S
C429 C427 1.419 . S
C429 C430 1.363 . S
C429 H432 0.929 . S
C430 C429 1.363 . S
C430 C436 1.428 . S
H431 C427 0.930 . S
H432 C429 0.929 . S
S433 N434 1.613 . S
S433 N435 1.610 . S
N434 S433 1.613 . S
N434 C437 1.350 . S
N435 S433 1.610 . S
N435 C436 1.351 . S
C436 C430 1.428 . S
C436 N435 1.351 . S
C436 C437 1.434 . S
C437 C428 1.429 . S
C437 N434 1.350 . S
C437 C436 1.434 . S
C241 C138 1.400 1_455 S
C243 C18 1.415 . S
C252 C178 1.408 1_545 S
C254 C58 1.406 . S
C263 C218 1.417 . S
C265 C98 1.402 . S
C274 C5 1.174 . S
C276 C95 1.242 . S
C285 C45 1.164 . S
C287 C135 1.254 . S
C296 C85 1.179 . S
C298 C175 1.250 . S
C307 C125 1.186 . S
C309 C215 1.242 1_655 S
C318 C165 1.176 . S
C320 C15 1.240 1_565 S
C329 C205 1.185 . S
C331 C55 1.240 . S
C340 C8 2.003 . S
C342 C128 1.999 1_545 S
C351 C48 2.004 . S
C353 C168 1.996 . S
C362 C88 1.998 1_455 S
C364 C208 2.004 . S
C373 C19 4.195 . S
C375 C49 4.251 . S
C384 C59 4.193 . S
C386 C89 4.252 . S
C395 C99 4.195 . S
C397 C129 4.251 . S
C406 C139 4.193 . S
C408 C169 4.251 . S
C417 C179 4.193 . S
C419 C209 4.252 . S
C428 C219 4.194 . S
C430 C9 4.250 . S
