# Generated by pormake.
# Topology whc, (6)-cn, num edge types: 1
# Building blocks:
#     Node 0, Type 0, BuildingBlock: OJICUG_clean_sbu_0, # of connection points: 6
#     Node 1, Type 0, BuildingBlock: OJICUG_clean_sbu_0, # of connection points: 6
#     Node 2, Type 0, BuildingBlock: OJICUG_clean_sbu_0, # of connection points: 6
#     Node 3, Type 0, BuildingBlock: OJICUG_clean_sbu_0, # of connection points: 6
#     Node 4, Type 0, BuildingBlock: OJICUG_clean_sbu_0, # of connection points: 6
#     Node 5, Type 0, BuildingBlock: OJICUG_clean_sbu_0, # of connection points: 6
#     Node 6, Type 0, BuildingBlock: OJICUG_clean_sbu_0, # of connection points: 6
#     Node 7, Type 0, BuildingBlock: OJICUG_clean_sbu_0, # of connection points: 6
#     Edge 8, Type (0, 0), BuildingBlock: ZUJKAS_clean_linker_0, # of connection points: 2
#     Edge 9, Type (0, 0), BuildingBlock: ZUJKAS_clean_linker_0, # of connection points: 2
#     Edge 10, Type (0, 0), BuildingBlock: ZUJKAS_clean_linker_0, # of connection points: 2
#     Edge 11, Type (0, 0), BuildingBlock: ZUJKAS_clean_linker_0, # of connection points: 2
#     Edge 12, Type (0, 0), BuildingBlock: ZUJKAS_clean_linker_0, # of connection points: 2
#     Edge 13, Type (0, 0), BuildingBlock: ZUJKAS_clean_linker_0, # of connection points: 2
#     Edge 14, Type (0, 0), BuildingBlock: ZUJKAS_clean_linker_0, # of connection points: 2
#     Edge 15, Type (0, 0), BuildingBlock: ZUJKAS_clean_linker_0, # of connection points: 2
#     Edge 16, Type (0, 0), BuildingBlock: ZUJKAS_clean_linker_0, # of connection points: 2
#     Edge 17, Type (0, 0), BuildingBlock: ZUJKAS_clean_linker_0, # of connection points: 2
#     Edge 18, Type (0, 0), BuildingBlock: ZUJKAS_clean_linker_0, # of connection points: 2
#     Edge 19, Type (0, 0), BuildingBlock: ZUJKAS_clean_linker_0, # of connection points: 2
#     Edge 20, Type (0, 0), BuildingBlock: ZUJKAS_clean_linker_0, # of connection points: 2
#     Edge 21, Type (0, 0), BuildingBlock: ZUJKAS_clean_linker_0, # of connection points: 2
#     Edge 22, Type (0, 0), BuildingBlock: ZUJKAS_clean_linker_0, # of connection points: 2
#     Edge 23, Type (0, 0), BuildingBlock: ZUJKAS_clean_linker_0, # of connection points: 2
#     Edge 24, Type (0, 0), BuildingBlock: ZUJKAS_clean_linker_0, # of connection points: 2
#     Edge 25, Type (0, 0), BuildingBlock: ZUJKAS_clean_linker_0, # of connection points: 2
#     Edge 26, Type (0, 0), BuildingBlock: ZUJKAS_clean_linker_0, # of connection points: 2
#     Edge 27, Type (0, 0), BuildingBlock: ZUJKAS_clean_linker_0, # of connection points: 2
#     Edge 28, Type (0, 0), BuildingBlock: ZUJKAS_clean_linker_0, # of connection points: 2
#     Edge 29, Type (0, 0), BuildingBlock: ZUJKAS_clean_linker_0, # of connection points: 2
#     Edge 30, Type (0, 0), BuildingBlock: ZUJKAS_clean_linker_0, # of connection points: 2
#     Edge 31, Type (0, 0), BuildingBlock: ZUJKAS_clean_linker_0, # of connection points: 2
# Relax obj value: 0.339
# Max RMSD: 0.283
# Mean RMSD: 0.283
data_MOF--net-whc--node1-OJICUG_clean_sbu_0--edge1-ZUJKAS_clean_linker_0
_symmetry_space_group_name_H-M    P1
_symmetry_Int_Tables_number       1
_symmetry_cell_setting            triclinic
loop_
_symmetry_equiv_pos_as_xyz
'x, y, z'
_cell_length_a     44.660803
_cell_length_b     44.662109
_cell_length_c     39.376506
_cell_angle_alpha  90.026813
_cell_angle_beta   90.006853
_cell_angle_gamma 90.01067
loop_
_atom_site_label
_atom_site_type_symbol
_atom_site_fract_x
_atom_site_fract_y
_atom_site_fract_z
_atom_type_partial_charge
Sc0 Sc 0.44261 0.23416 0.11462 0.0
Sc1 Sc 0.40206 0.17764 0.07174 0.0
Sc2 Sc 0.48008 0.17043 0.08522 0.0
O3 O 0.44152 0.19412 0.09038 0.0
C4 C 0.50458 0.23608 0.07394 0.0
C5 C 0.3996 0.24705 0.05168 0.0
C6 C 0.44846 0.15839 0.01388 0.0
C7 C 0.37942 0.20847 0.13953 0.0
C8 C 0.48516 0.19508 0.16138 0.0
C9 C 0.43232 0.12053 0.10525 0.0
O10 O 0.48379 0.24825 0.09109 0.0
O11 O 0.39111 0.21997 0.04806 0.0
O12 O 0.47147 0.15977 0.03279 0.0
O13 O 0.4019 0.22571 0.14191 0.0
O14 O 0.49315 0.17775 0.13739 0.0
O15 O 0.40903 0.13408 0.09481 0.0
O16 O 0.46638 0.21614 0.15729 0.0
O17 O 0.37631 0.18956 0.11576 0.0
O18 O 0.45864 0.13081 0.10251 0.0
O19 O 0.41851 0.25532 0.07399 0.0
O20 O 0.50557 0.20817 0.06803 0.0
O21 O 0.42223 0.16407 0.02455 0.0
Sc22 Sc 0.23141 0.55447 0.87712 0.0
Sc23 Sc 0.17646 0.59635 0.92054 0.0
Sc24 Sc 0.16645 0.51881 0.90677 0.0
O25 O 0.19152 0.55656 0.9016 0.0
C26 C 0.19016 0.51275 0.83076 0.0
C27 C 0.20761 0.61787 0.85187 0.0
C28 C 0.11803 0.56868 0.88792 0.0
C29 C 0.24556 0.59738 0.94023 0.0
C30 C 0.2321 0.49272 0.91784 0.0
C31 C 0.15626 0.54997 0.97828 0.0
O32 O 0.2131 0.52909 0.83556 0.0
O33 O 0.19053 0.62212 0.87718 0.0
O34 O 0.12661 0.54191 0.89245 0.0
O35 O 0.25334 0.58013 0.91605 0.0
O36 O 0.20384 0.49122 0.92097 0.0
O37 O 0.16085 0.57627 0.96711 0.0
O38 O 0.24517 0.51443 0.90318 0.0
O39 O 0.21847 0.60471 0.94598 0.0
O40 O 0.15847 0.52675 0.95981 0.0
O41 O 0.22283 0.59411 0.84802 0.0
O42 O 0.17134 0.50699 0.85406 0.0
O43 O 0.13352 0.59152 0.89574 0.0
Sc44 Sc 0.55156 0.76005 0.12439 0.0
Sc45 Sc 0.59352 0.81111 0.07515 0.0
Sc46 Sc 0.5165 0.82334 0.08963 0.0
O47 O 0.55388 0.79807 0.09628 0.0
C48 C 0.48878 0.75787 0.08579 0.0
C49 C 0.59245 0.7407 0.06137 0.0
C50 C 0.5465 0.82802 0.01683 0.0
C51 C 0.6163 0.78411 0.14519 0.0
C52 C 0.51221 0.80538 0.16797 0.0
C53 C 0.56731 0.87211 0.10295 0.0
O54 O 0.51001 0.74559 0.1021 0.0
O55 O 0.60085 0.76717 0.05388 0.0
O56 O 0.52356 0.82775 0.03589 0.0
O57 O 0.59258 0.76926 0.15086 0.0
O58 O 0.50574 0.82223 0.143 0.0
O59 O 0.58979 0.85585 0.09581 0.0
O60 O 0.52832 0.78205 0.16511 0.0
O61 O 0.62 0.79985 0.11876 0.0
O62 O 0.54037 0.86355 0.10008 0.0
O63 O 0.57499 0.73488 0.08608 0.0
O64 O 0.48829 0.78561 0.07884 0.0
O65 O 0.57285 0.82353 0.02785 0.0
Sc66 Sc 0.76809 0.44148 0.87404 0.0
Sc67 Sc 0.82138 0.40066 0.92025 0.0
Sc68 Sc 0.8295 0.47831 0.91011 0.0
O69 O 0.80618 0.44019 0.90157 0.0
C70 C 0.81074 0.48614 0.83283 0.0
C71 C 0.79372 0.37962 0.84929 0.0
C72 C 0.88004 0.43024 0.89262 0.0
C73 C 0.75236 0.39666 0.93537 0.0
C74 C 0.76202 0.50138 0.9167 0.0
C75 C 0.83726 0.44621 0.98065 0.0
O76 O 0.78707 0.47056 0.83614 0.0
O77 O 0.80699 0.37447 0.87719 0.0
O78 O 0.87147 0.45631 0.90118 0.0
O79 O 0.74565 0.41208 0.90921 0.0
O80 O 0.79013 0.50473 0.91996 0.0
O81 O 0.83745 0.42029 0.9672 0.0
O82 O 0.75047 0.47879 0.90211 0.0
O83 O 0.77922 0.39226 0.94512 0.0
O84 O 0.83187 0.46979 0.9637 0.0
O85 O 0.78126 0.40448 0.84275 0.0
O86 O 0.82926 0.49019 0.85696 0.0
O87 O 0.86375 0.40701 0.89496 0.0
Sc88 Sc 0.51518 0.1689 0.58489 0.0
Sc89 Sc 0.59197 0.179 0.57445 0.0
Sc90 Sc 0.55045 0.23051 0.62185 0.0
O91 O 0.55248 0.19313 0.59352 0.0
C92 C 0.48988 0.23582 0.58148 0.0
C93 C 0.54596 0.16456 0.5142 0.0
C94 C 0.59492 0.24798 0.56065 0.0
C95 C 0.56403 0.11945 0.60017 0.0
C96 C 0.50832 0.18482 0.6624 0.0
C97 C 0.61256 0.20559 0.64592 0.0
O98 O 0.48676 0.20759 0.57959 0.0
O99 O 0.57179 0.1626 0.52779 0.0
O100 O 0.58013 0.25398 0.58755 0.0
O101 O 0.53854 0.12695 0.5887 0.0
O102 O 0.52106 0.21015 0.65881 0.0
O103 O 0.61821 0.19394 0.61721 0.0
O104 O 0.50605 0.16583 0.63843 0.0
O105 O 0.58649 0.13687 0.60038 0.0
O106 O 0.58725 0.21677 0.65324 0.0
O107 O 0.52254 0.17045 0.53124 0.0
O108 O 0.51326 0.24806 0.59352 0.0
O109 O 0.59899 0.2214 0.54974 0.0
Sc110 Sc 0.167 0.47883 0.4068 0.0
Sc111 Sc 0.17915 0.40191 0.41889 0.0
Sc112 Sc 0.23032 0.44472 0.37157 0.0
O113 O 0.19234 0.44185 0.39924 0.0
C114 C 0.18495 0.48579 0.32939 0.0
C115 C 0.11856 0.42805 0.39191 0.0
C116 C 0.20605 0.38171 0.34761 0.0
C117 C 0.16224 0.44802 0.47835 0.0
C118 C 0.23317 0.50593 0.41192 0.0
C119 C 0.24866 0.40142 0.43344 0.0
O120 O 0.16611 0.48896 0.35333 0.0
O121 O 0.13598 0.40574 0.39477 0.0
O122 O 0.21856 0.40658 0.34118 0.0
O123 O 0.16567 0.47147 0.46055 0.0
O124 O 0.24607 0.48353 0.39847 0.0
O125 O 0.22203 0.39527 0.44273 0.0
O126 O 0.20491 0.5077 0.41507 0.0
O127 O 0.16353 0.42178 0.46582 0.0
O128 O 0.25459 0.41733 0.40742 0.0
O129 O 0.12603 0.4547 0.39929 0.0
O130 O 0.20973 0.47211 0.33308 0.0
O131 O 0.19326 0.37607 0.37564 0.0
Sc132 Sc 0.47823 0.82824 0.58787 0.0
Sc133 Sc 0.40061 0.81812 0.57435 0.0
Sc134 Sc 0.44341 0.76204 0.61495 0.0
O135 O 0.44071 0.80275 0.59226 0.0
C136 C 0.50506 0.76348 0.57378 0.0
C137 C 0.4463 0.83968 0.51675 0.0
C138 C 0.39996 0.74917 0.55232 0.0
C139 C 0.42854 0.87605 0.60862 0.0
C140 C 0.48442 0.8021 0.66293 0.0
C141 C 0.37994 0.78526 0.64201 0.0
O142 O 0.50575 0.79177 0.57079 0.0
O143 O 0.4202 0.8334 0.52748 0.0
O144 O 0.41892 0.74107 0.57459 0.0
O145 O 0.45526 0.86708 0.60513 0.0
O146 O 0.46786 0.77943 0.65762 0.0
O147 O 0.37597 0.8043 0.61852 0.0
O148 O 0.49057 0.82124 0.64011 0.0
O149 O 0.4058 0.86136 0.5987 0.0
O150 O 0.40307 0.76878 0.64373 0.0
O151 O 0.46946 0.83859 0.53546 0.0
O152 O 0.4841 0.74983 0.58912 0.0
O153 O 0.391 0.77612 0.54917 0.0
Sc154 Sc 0.82874 0.51457 0.41061 0.0
Sc155 Sc 0.82032 0.59256 0.42048 0.0
Sc156 Sc 0.76703 0.55099 0.37437 0.0
O157 O 0.80521 0.55269 0.402 0.0
C158 C 0.80958 0.50642 0.33315 0.0
C159 C 0.87933 0.56252 0.39297 0.0
C160 C 0.79415 0.61252 0.3488 0.0
C161 C 0.83618 0.54746 0.48132 0.0
C162 C 0.76149 0.49118 0.4176 0.0
C163 C 0.75067 0.59656 0.43484 0.0
O164 O 0.82751 0.50162 0.35767 0.0
O165 O 0.86354 0.58588 0.39713 0.0
O166 O 0.77984 0.58843 0.34348 0.0
O167 O 0.83265 0.5237 0.46403 0.0
O168 O 0.74981 0.51289 0.40153 0.0
O169 O 0.77757 0.60235 0.44348 0.0
O170 O 0.78953 0.48866 0.42223 0.0
O171 O 0.8345 0.57345 0.46828 0.0
O172 O 0.74402 0.57957 0.40994 0.0
O173 O 0.87036 0.53622 0.39972 0.0
O174 O 0.78644 0.52278 0.33607 0.0
O175 O 0.80803 0.61787 0.37622 0.0
H176 H 0.20412 0.3862 0.27877 0.0
H177 H 0.21873 0.34775 0.23774 0.0
H178 H 0.23259 0.2852 0.31987 0.0
H179 H 0.21608 0.32292 0.36048 0.0
H180 H 0.27197 0.33003 0.23631 0.0
H181 H 0.20405 0.22799 0.25082 0.0
H182 H 0.19238 0.26347 0.26837 0.0
H183 H 0.2175 0.23938 0.29165 0.0
C184 C 0.2093 0.36388 0.2878 0.0
C185 C 0.20925 0.35746 0.32265 0.0
C186 C 0.21755 0.34191 0.26441 0.0
C187 C 0.22669 0.31345 0.27561 0.0
C188 C 0.22486 0.30657 0.31036 0.0
H189 H 0.38249 0.22895 0.20443 0.0
H190 H 0.34115 0.24939 0.23776 0.0
C191 C 0.21574 0.32829 0.33365 0.0
C192 C 0.24364 0.29352 0.25242 0.0
H193 H 0.25587 0.2202 0.23164 0.0
C194 C 0.26784 0.30613 0.23474 0.0
C195 C 0.23839 0.26229 0.25004 0.0
C196 C 0.21143 0.24764 0.26598 0.0
C197 C 0.28778 0.28836 0.21636 0.0
C198 C 0.28411 0.25694 0.21659 0.0
C199 C 0.259 0.24427 0.2324 0.0
C200 C 0.30701 0.23746 0.20118 0.0
C201 C 0.31307 0.3034 0.19743 0.0
C202 C 0.30103 0.22217 0.17085 0.0
C203 C 0.32461 0.21008 0.15194 0.0
C204 C 0.35434 0.21355 0.1631 0.0
C205 C 0.35982 0.22636 0.19506 0.0
C206 C 0.33627 0.23798 0.21411 0.0
H207 H 0.30798 0.32728 0.19201 0.0
H208 H 0.33365 0.30263 0.21319 0.0
H209 H 0.31775 0.29182 0.17303 0.0
H210 H 0.27852 0.22154 0.16061 0.0
H211 H 0.31978 0.20028 0.12737 0.0
H212 H 0.23877 0.61588 0.79236 0.0
H213 H 0.2539 0.65795 0.75722 0.0
H214 H 0.20206 0.71797 0.81972 0.0
H215 H 0.18713 0.67585 0.8558 0.0
H216 H 0.22429 0.7027 0.72021 0.0
H217 H 0.28816 0.74892 0.83019 0.0
H218 H 0.27241 0.71175 0.83106 0.0
H219 H 0.24843 0.74382 0.83486 0.0
C220 C 0.23018 0.6379 0.79851 0.0
C221 C 0.21222 0.64255 0.82734 0.0
C222 C 0.23874 0.66195 0.77823 0.0
C223 C 0.22951 0.69111 0.78626 0.0
C224 C 0.20981 0.69566 0.8135 0.0
H225 H 0.32394 0.81082 0.64344 0.0
H226 H 0.2821 0.79718 0.68058 0.0
C227 C 0.20123 0.67153 0.83396 0.0
C228 C 0.24339 0.7164 0.76788 0.0
H229 H 0.30017 0.76696 0.77634 0.0
C230 C 0.24029 0.71745 0.73245 0.0
C231 C 0.26422 0.73552 0.78412 0.0
C232 C 0.26877 0.73504 0.82212 0.0
C233 C 0.25939 0.7351 0.7125 0.0
C234 C 0.28174 0.75249 0.72863 0.0
C235 C 0.28296 0.75355 0.7642 0.0
C236 C 0.3074 0.7646 0.70934 0.0
C237 C 0.25729 0.7329 0.67432 0.0
C238 C 0.33572 0.75179 0.71433 0.0
C239 C 0.35962 0.75957 0.69343 0.0
C240 C 0.35569 0.78035 0.66702 0.0
C241 C 0.32768 0.79452 0.66335 0.0
C242 C 0.3037 0.7867 0.68442 0.0
H243 H 0.24074 0.71583 0.66598 0.0
H244 H 0.2504 0.75488 0.66377 0.0
H245 H 0.27945 0.72711 0.66334 0.0
H246 H 0.33903 0.73471 0.73351 0.0
H247 H 0.3809 0.74843 0.69727 0.0
H248 H 0.79312 0.60689 0.28003 0.0
H249 H 0.77755 0.64512 0.23926 0.0
H250 H 0.77059 0.70955 0.3207 0.0
H251 H 0.78799 0.67196 0.36093 0.0
H252 H 0.72437 0.6639 0.24286 0.0
H253 H 0.79558 0.76455 0.24735 0.0
H254 H 0.80768 0.72916 0.26476 0.0
H255 H 0.78483 0.75429 0.28957 0.0
C256 C 0.78936 0.62956 0.28887 0.0
C257 C 0.79144 0.63654 0.32352 0.0
C258 C 0.78055 0.6514 0.26563 0.0
C259 C 0.77287 0.6803 0.27683 0.0
C260 C 0.77707 0.68777 0.31115 0.0
H261 H 0.61494 0.76693 0.21158 0.0
H262 H 0.6569 0.74697 0.24432 0.0
C263 C 0.78674 0.66614 0.33425 0.0
C264 C 0.75473 0.70006 0.2547 0.0
H265 H 0.74309 0.77294 0.23176 0.0
C266 C 0.72899 0.6876 0.23989 0.0
C267 C 0.76057 0.73103 0.25063 0.0
C268 C 0.78888 0.74539 0.26366 0.0
C269 C 0.70833 0.70531 0.22249 0.0
C270 C 0.71292 0.73658 0.22086 0.0
C271 C 0.73932 0.74903 0.23398 0.0
C272 C 0.69 0.75611 0.20556 0.0
C273 C 0.68149 0.69035 0.20639 0.0
C274 C 0.6953 0.76976 0.17412 0.0
C275 C 0.67142 0.78154 0.15552 0.0
C276 C 0.64199 0.77942 0.16809 0.0
C277 C 0.63731 0.76842 0.20107 0.0
C278 C 0.66122 0.75708 0.21979 0.0
H279 H 0.68544 0.66609 0.20206 0.0
H280 H 0.66192 0.6926 0.22356 0.0
H281 H 0.67578 0.70096 0.18173 0.0
H282 H 0.71744 0.76926 0.16287 0.0
H283 H 0.67571 0.79 0.1302 0.0
H284 H 0.77966 0.38282 0.78195 0.0
H285 H 0.75775 0.34285 0.74763 0.0
H286 H 0.77227 0.28003 0.82907 0.0
H287 H 0.79484 0.31971 0.86341 0.0
H288 H 0.77659 0.25488 0.75989 0.0
H289 H 0.67331 0.32029 0.78542 0.0
H290 H 0.70251 0.34153 0.76534 0.0
H291 H 0.70803 0.32711 0.80752 0.0
C292 C 0.77906 0.36031 0.79218 0.0
C293 C 0.78837 0.35453 0.82562 0.0
C294 C 0.76657 0.33752 0.77253 0.0
C295 C 0.76284 0.30877 0.78622 0.0
C296 C 0.77489 0.30216 0.8182 0.0
H297 H 0.60887 0.21012 0.71486 0.0
H298 H 0.6482 0.22727 0.75341 0.0
C299 C 0.78775 0.3249 0.83777 0.0
C300 C 0.74217 0.28749 0.76969 0.0
H301 H 0.66919 0.28053 0.7461 0.0
C302 C 0.75305 0.26024 0.75698 0.0
C303 C 0.71134 0.29424 0.76698 0.0
C304 C 0.69797 0.32223 0.78232 0.0
C305 C 0.73393 0.24005 0.74017 0.0
C306 C 0.70343 0.24774 0.7356 0.0
C307 C 0.69254 0.27454 0.74953 0.0
C308 C 0.68247 0.22988 0.71459 0.0
C309 C 0.74657 0.21076 0.72765 0.0
C310 C 0.68899 0.22431 0.68029 0.0
C311 C 0.66668 0.21396 0.65838 0.0
C312 C 0.6373 0.20977 0.67026 0.0
C313 C 0.63127 0.21344 0.705 0.0
C314 C 0.65374 0.22317 0.72702 0.0
H315 H 0.76587 0.20351 0.74345 0.0
H316 H 0.7294 0.19277 0.7278 0.0
H317 H 0.75478 0.21367 0.70126 0.0
H318 H 0.71068 0.23 0.66984 0.0
H319 H 0.67191 0.2115 0.63166 0.0
H320 H 0.49535 0.22233 0.71492 0.0
H321 H 0.48399 0.20874 0.77347 0.0
H322 H 0.48694 0.11512 0.74674 0.0
H323 H 0.49778 0.12854 0.68763 0.0
H324 H 0.44064 0.12904 0.79195 0.0
H325 H 0.54865 0.17544 0.83618 0.0
H326 H 0.52738 0.20244 0.81263 0.0
H327 H 0.5406 0.16903 0.79185 0.0
C328 C 0.49333 0.19884 0.72136 0.0
C329 C 0.49777 0.17652 0.69671 0.0
C330 C 0.48698 0.19111 0.75487 0.0
C331 C 0.48541 0.16094 0.76455 0.0
C332 C 0.48833 0.13854 0.73977 0.0
H333 H 0.49652 0.13155 0.98334 0.0
H334 H 0.50511 0.12483 0.92248 0.0
C335 C 0.49444 0.14627 0.70603 0.0
C336 C 0.48166 0.15317 0.80082 0.0
H337 H 0.51123 0.16758 0.8789 0.0
C338 C 0.45624 0.13706 0.81101 0.0
C339 C 0.50249 0.16289 0.82553 0.0
C340 C 0.53148 0.17811 0.81598 0.0
C341 C 0.45018 0.13201 0.84556 0.0
C342 C 0.46971 0.14407 0.87039 0.0
C343 C 0.49601 0.15863 0.85997 0.0
C344 C 0.46259 0.14384 0.9072 0.0
C345 C 0.42288 0.11396 0.85498 0.0
C346 C 0.43568 0.15638 0.91892 0.0
C347 C 0.43057 0.1599 0.95367 0.0
C348 C 0.45257 0.15156 0.97741 0.0
C349 C 0.47921 0.13835 0.96569 0.0
C350 C 0.48411 0.13443 0.93093 0.0
H351 H 0.41726 0.09751 0.83477 0.0
H352 H 0.42616 0.10173 0.87924 0.0
H353 H 0.40344 0.12923 0.8578 0.0
H354 H 0.41913 0.1647 0.9012 0.0
H355 H 0.40992 0.17041 0.96182 0.0
H356 H 0.12935 0.50235 0.00939 0.0
H357 H 0.12401 0.49367 0.07038 0.0
H358 H 0.16552 0.57907 0.09078 0.0
H359 H 0.16979 0.5884 0.02997 0.0
H360 H 0.16773 0.48675 0.11238 0.0
H361 H 0.10021 0.58154 0.15944 0.0
H362 H 0.10327 0.57289 0.11479 0.0
H363 H 0.13172 0.59485 0.13568 0.0
C364 C 0.13677 0.51954 0.0269 0.0
C365 C 0.15001 0.54604 0.01489 0.0
C366 C 0.13366 0.51458 0.06174 0.0
C367 C 0.14399 0.53587 0.08526 0.0
C368 C 0.15653 0.56269 0.07325 0.0
H369 H 0.2231 0.49761 0.2771 0.0
H370 H 0.21014 0.5104 0.21872 0.0
C371 C 0.15919 0.56789 0.03841 0.0
C372 C 0.14504 0.52852 0.122 0.0
H373 H 0.13152 0.55673 0.20119 0.0
C374 C 0.15933 0.50188 0.13172 0.0
C375 C 0.13374 0.54796 0.14737 0.0
C376 C 0.11609 0.57572 0.13874 0.0
C377 C 0.16384 0.49479 0.16597 0.0
C378 C 0.1547 0.51537 0.19123 0.0
C379 C 0.13906 0.54129 0.18172 0.0
C380 C 0.16228 0.51067 0.22742 0.0
C381 C 0.17851 0.46532 0.1747 0.0
C382 C 0.13972 0.50822 0.25207 0.0
C383 C 0.14712 0.50134 0.28571 0.0
C384 C 0.17718 0.49672 0.29508 0.0
C385 C 0.19973 0.5006 0.27059 0.0
C386 C 0.19235 0.50776 0.23718 0.0
H387 H 0.17531 0.44856 0.15414 0.0
H388 H 0.20294 0.46883 0.17789 0.0
H389 H 0.16942 0.45595 0.1987 0.0
H390 H 0.11639 0.51063 0.24508 0.0
H391 H 0.12927 0.49846 0.30403 0.0
H392 H 0.58425 0.81091 0.96601 0.0
H393 H 0.57516 0.813 0.90505 0.0
H394 H 0.49049 0.8568 0.92295 0.0
H395 H 0.4989 0.85365 0.98422 0.0
H396 H 0.48333 0.81245 0.88136 0.0
H397 H 0.58032 0.87782 0.83603 0.0
H398 H 0.59244 0.84625 0.86048 0.0
H399 H 0.5707 0.87536 0.88044 0.0
C400 C 0.56391 0.82145 0.95698 0.0
C401 C 0.54226 0.8321 0.97992 0.0
C402 C 0.55885 0.82285 0.92206 0.0
C403 C 0.53241 0.83558 0.90934 0.0
C404 C 0.51113 0.84701 0.93219 0.0
H405 H 0.5005 0.85554 0.69135 0.0
H406 H 0.5121 0.86534 0.75105 0.0
C407 C 0.51594 0.84516 0.96718 0.0
C408 C 0.52569 0.83424 0.87251 0.0
H409 H 0.55529 0.84736 0.79398 0.0
C410 C 0.4989 0.82048 0.86229 0.0
C411 C 0.54576 0.84511 0.84756 0.0
C412 C 0.57373 0.86225 0.85673 0.0
C413 C 0.49212 0.81632 0.8279 0.0
C414 C 0.51321 0.82516 0.80305 0.0
C415 C 0.53945 0.84001 0.81312 0.0
C416 C 0.50839 0.81898 0.76653 0.0
C417 C 0.46228 0.80267 0.81863 0.0
C418 C 0.50349 0.78956 0.75528 0.0
C419 C 0.49652 0.78394 0.72134 0.0
C420 C 0.49503 0.80757 0.69788 0.0
C421 C 0.50161 0.83684 0.70882 0.0
C422 C 0.50815 0.8425 0.74291 0.0
H423 H 0.44545 0.80615 0.83904 0.0
H424 H 0.45337 0.81232 0.79468 0.0
H425 H 0.46504 0.77817 0.81512 0.0
H426 H 0.5045 0.77098 0.7729 0.0
H427 H 0.49192 0.76112 0.71357 0.0
H428 H 0.86061 0.47707 0.31213 0.0
H429 H 0.87245 0.4598 0.25453 0.0
H430 H 0.78627 0.49073 0.21975 0.0
H431 H 0.77404 0.50747 0.27684 0.0
H432 H 0.80106 0.43449 0.19514 0.0
H433 H 0.89368 0.51623 0.17574 0.0
H434 H 0.89682 0.49177 0.21183 0.0
H435 H 0.86759 0.51932 0.21056 0.0
C436 C 0.84407 0.47992 0.29228 0.0
C437 C 0.81641 0.49381 0.29915 0.0
C438 C 0.85098 0.47024 0.25933 0.0
C439 C 0.83038 0.47436 0.23279 0.0
C440 C 0.80251 0.48739 0.23984 0.0
H441 H 0.83322 0.49664 0.01996 0.0
H442 H 0.83581 0.50005 0.08171 0.0
C443 C 0.7956 0.49702 0.27257 0.0
C444 C 0.83753 0.46592 0.19729 0.0
H445 H 0.88017 0.48629 0.12911 0.0
C446 C 0.81864 0.44545 0.18076 0.0
C447 C 0.86033 0.4805 0.17862 0.0
C448 C 0.8807 0.50335 0.19488 0.0
C449 C 0.82111 0.44003 0.14577 0.0
C450 C 0.84351 0.45508 0.12693 0.0
C451 C 0.86314 0.4747 0.14369 0.0
C452 C 0.84494 0.45297 0.08937 0.0
C453 C 0.79865 0.41954 0.12898 0.0
C454 C 0.85 0.42547 0.0731 0.0
C455 C 0.84833 0.42337 0.0377 0.0
C456 C 0.84183 0.4488 0.01789 0.0
C457 C 0.83816 0.47656 0.0343 0.0
C458 C 0.8397 0.47859 0.06966 0.0
H459 H 0.77931 0.41459 0.14582 0.0
H460 H 0.79008 0.42958 0.10509 0.0
H461 H 0.80968 0.39801 0.12255 0.0
H462 H 0.85465 0.40553 0.08782 0.0
H463 H 0.85157 0.40167 0.02594 0.0
H464 H 0.521 0.14889 0.18306 0.0
H465 H 0.53777 0.13879 0.24113 0.0
H466 H 0.49274 0.21848 0.27596 0.0
H467 H 0.4762 0.22905 0.21822 0.0
H468 H 0.55126 0.21096 0.30222 0.0
H469 H 0.48105 0.10872 0.31688 0.0
H470 H 0.50606 0.10951 0.2811 0.0
H471 H 0.47527 0.13528 0.28296 0.0
C472 C 0.51486 0.16442 0.20301 0.0
C473 C 0.49711 0.18973 0.19595 0.0
C474 C 0.52432 0.15849 0.23619 0.0
C475 C 0.51614 0.17769 0.2628 0.0
C476 C 0.4992 0.20335 0.25571 0.0
H477 H 0.49496 0.16668 0.47579 0.0
H478 H 0.4911 0.16648 0.41402 0.0
C479 C 0.48972 0.20931 0.22267 0.0
C480 C 0.5245 0.17104 0.29832 0.0
H481 H 0.50929 0.12388 0.3643 0.0
C482 C 0.54244 0.19174 0.31577 0.0
C483 C 0.51266 0.14605 0.31581 0.0
C484 C 0.4925 0.12365 0.29843 0.0
C485 C 0.54821 0.18858 0.35058 0.0
C486 C 0.53602 0.16383 0.3682 0.0
C487 C 0.51875 0.14269 0.35056 0.0
C488 C 0.53864 0.1611 0.40549 0.0
C489 C 0.5661 0.2125 0.36857 0.0
C490 C 0.56661 0.15738 0.4211 0.0
C491 C 0.56896 0.15756 0.4565 0.0
C492 C 0.54332 0.16138 0.47686 0.0
C493 C 0.51519 0.16385 0.46099 0.0
C494 C 0.51291 0.16366 0.42566 0.0
H495 H 0.56919 0.23276 0.35259 0.0
H496 H 0.55494 0.21919 0.39261 0.0
H497 H 0.58856 0.20354 0.37501 0.0
H498 H 0.58667 0.15492 0.40589 0.0
H499 H 0.59096 0.15543 0.46783 0.0
H500 H 0.16274 0.49977 0.51556 0.0
H501 H 0.16168 0.50477 0.5772 0.0
H502 H 0.15154 0.40919 0.58736 0.0
H503 H 0.15308 0.40376 0.52558 0.0
H504 H 0.11985 0.488 0.62676 0.0
H505 H 0.228 0.42742 0.64132 0.0
H506 H 0.21455 0.44032 0.60068 0.0
H507 H 0.19885 0.40729 0.61968 0.0
C508 C 0.16002 0.47978 0.53078 0.0
C509 C 0.15836 0.45131 0.51554 0.0
C510 C 0.15936 0.48271 0.56604 0.0
C511 C 0.15702 0.45731 0.58678 0.0
C512 C 0.15392 0.429 0.57175 0.0
H513 H 0.14216 0.47963 0.80847 0.0
H514 H 0.13206 0.46273 0.75049 0.0
C515 C 0.15469 0.426 0.53643 0.0
C516 C 0.15943 0.46061 0.62405 0.0
H517 H 0.20549 0.44574 0.6911 0.0
C518 C 0.13837 0.47853 0.64099 0.0
C519 C 0.18381 0.44841 0.64232 0.0
C520 C 0.20777 0.42997 0.62515 0.0
C521 C 0.14146 0.48522 0.67564 0.0
C522 C 0.16603 0.47326 0.6938 0.0
C523 C 0.1866 0.45468 0.67706 0.0
C524 C 0.1724 0.48198 0.7293 0.0
C525 C 0.11923 0.50613 0.69212 0.0
C526 C 0.19884 0.49761 0.7367 0.0
C527 C 0.20485 0.50706 0.76975 0.0
C528 C 0.18453 0.50102 0.79615 0.0
C529 C 0.15831 0.48473 0.78877 0.0
C530 C 0.15236 0.47521 0.75562 0.0
H531 H 0.10518 0.51795 0.67309 0.0
H532 H 0.10417 0.49307 0.70894 0.0
H533 H 0.13091 0.52309 0.70795 0.0
H534 H 0.21463 0.50298 0.71671 0.0
H535 H 0.22527 0.51949 0.77443 0.0
H536 H 0.49567 0.86109 0.1902 0.0
H537 H 0.48393 0.87603 0.2486 0.0
H538 H 0.49359 0.78434 0.28123 0.0
H539 H 0.50608 0.76939 0.22335 0.0
H540 H 0.4405 0.86007 0.29369 0.0
H541 H 0.55154 0.82735 0.34311 0.0
H542 H 0.54371 0.82987 0.29825 0.0
H543 H 0.53376 0.7967 0.32171 0.0
C544 C 0.49504 0.84409 0.2098 0.0
C545 C 0.50208 0.81409 0.20228 0.0
C546 C 0.48841 0.85268 0.24313 0.0
C547 C 0.48865 0.8314 0.26934 0.0
C548 C 0.49419 0.80125 0.26154 0.0
H549 H 0.40954 0.82369 0.46454 0.0
H550 H 0.41949 0.82826 0.40396 0.0
C551 C 0.50115 0.79271 0.22842 0.0
C552 C 0.48342 0.84044 0.30501 0.0
H553 H 0.5124 0.83271 0.38453 0.0
C554 C 0.45636 0.85452 0.31358 0.0
C555 C 0.50453 0.83405 0.33078 0.0
C556 C 0.53514 0.82148 0.32294 0.0
C557 C 0.44908 0.86068 0.34757 0.0
C558 C 0.46905 0.85171 0.37358 0.0
C559 C 0.49684 0.83927 0.36473 0.0
C560 C 0.461 0.85281 0.41012 0.0
C561 C 0.42006 0.87661 0.35512 0.0
C562 C 0.48114 0.86477 0.43395 0.0
C563 C 0.47589 0.86144 0.46871 0.0
C564 C 0.45021 0.84639 0.48029 0.0
C565 C 0.42938 0.83569 0.45643 0.0
C566 C 0.43491 0.83853 0.4217 0.0
H567 H 0.41369 0.89172 0.33391 0.0
H568 H 0.40192 0.85981 0.35799 0.0
H569 H 0.42152 0.88999 0.37884 0.0
H570 H 0.50147 0.87578 0.42563 0.0
H571 H 0.49227 0.87006 0.4865 0.0
H572 H 0.86257 0.51335 0.81097 0.0
H573 H 0.87382 0.53147 0.75359 0.0
H574 H 0.78564 0.50498 0.72053 0.0
H575 H 0.77405 0.4873 0.77742 0.0
H576 H 0.87442 0.49846 0.69402 0.0
H577 H 0.79165 0.59001 0.68445 0.0
H578 H 0.80211 0.57342 0.72456 0.0
H579 H 0.77453 0.55569 0.69792 0.0
C580 C 0.84542 0.5118 0.7916 0.0
C581 C 0.81734 0.49897 0.79891 0.0
C582 C 0.85193 0.5221 0.75883 0.0
C583 C 0.83037 0.52004 0.73297 0.0
C584 C 0.80235 0.50746 0.74029 0.0
H585 H 0.83531 0.49657 0.52012 0.0
H586 H 0.83907 0.49285 0.58171 0.0
C587 C 0.79585 0.49714 0.77286 0.0
C588 C 0.83737 0.52919 0.69769 0.0
H589 H 0.80927 0.56945 0.63137 0.0
C590 C 0.86055 0.5144 0.68043 0.0
C591 C 0.81965 0.55037 0.68014 0.0
C592 C 0.79581 0.56852 0.69785 0.0
C593 C 0.86521 0.51882 0.64552 0.0
C594 C 0.84579 0.53809 0.62739 0.0
C595 C 0.82389 0.55433 0.64514 0.0
C596 C 0.84632 0.54025 0.58979 0.0
C597 C 0.8906 0.50248 0.62836 0.0
C598 C 0.84867 0.56821 0.57378 0.0
C599 C 0.84617 0.57051 0.53848 0.0
C600 C 0.84112 0.54485 0.51848 0.0
C601 C 0.83938 0.51679 0.53461 0.0
C602 C 0.84177 0.51457 0.56989 0.0
H603 H 0.90889 0.4974 0.6466 0.0
H604 H 0.88221 0.48087 0.61819 0.0
H605 H 0.89996 0.51572 0.60699 0.0
H606 H 0.85196 0.58835 0.58868 0.0
H607 H 0.84764 0.59247 0.52698 0.0
H608 H 0.21279 0.43808 0.94044 0.0
H609 H 0.24343 0.39599 0.95966 0.0
H610 H 0.32345 0.44801 0.94356 0.0
H611 H 0.29315 0.49031 0.92408 0.0
H612 H 0.29851 0.36998 0.91729 0.0
H613 H 0.32077 0.41367 0.04754 0.0
H614 H 0.2877 0.42411 0.02389 0.0
H615 H 0.32345 0.43904 0.01207 0.0
C616 C 0.23689 0.4407 0.9411 0.0
C617 C 0.25051 0.46762 0.93073 0.0
C618 C 0.25431 0.41658 0.95194 0.0
C619 C 0.28555 0.41907 0.95292 0.0
C620 C 0.29929 0.44584 0.94292 0.0
H621 H 0.42069 0.30325 0.03897 0.0
H622 H 0.39443 0.34423 0.01081 0.0
C623 C 0.28193 0.46993 0.93183 0.0
C624 C 0.30382 0.3936 0.96455 0.0
H625 H 0.34291 0.36776 0.03276 0.0
C626 C 0.30832 0.36938 0.94249 0.0
C627 C 0.31657 0.39322 -0.0027 0.0
C628 C 0.31192 0.41877 0.02181 0.0
C629 C 0.32558 0.34461 0.95237 0.0
C630 C 0.33795 0.34393 0.98546 0.0
C631 C 0.33348 0.36835 0.00738 0.0
C632 C 0.35518 0.318 -0.00162 0.0
C633 C 0.33085 0.31975 0.92712 0.0
C634 C 0.34206 0.28947 0.00014 0.0
C635 C 0.35717 0.26586 0.01591 0.0
C636 C 0.38542 0.27058 0.03076 0.0
C637 C 0.39887 0.29894 0.02797 0.0
C638 C 0.38391 0.32239 0.01189 0.0
H639 H 0.32799 0.3277 0.90058 0.0
H640 H 0.35365 0.31015 0.92987 0.0
H641 H 0.31429 0.30165 0.93156 0.0
H642 H 0.31963 0.28573 0.9906 0.0
H643 H 0.3461 0.24435 0.01791 0.0
H644 H 0.30478 0.60204 0.92498 0.0
H645 H 0.34394 0.6258 0.95832 0.0
H646 H 0.28016 0.64542 0.03758 0.0
H647 H 0.2403 0.62252 0.00355 0.0
H648 H 0.31254 0.69269 0.02458 0.0
H649 H 0.38986 0.5974 0.03855 0.0
H650 H 0.3817 0.6032 0.99452 0.0
H651 H 0.35206 0.59273 0.02328 0.0
C652 C 0.29907 0.61104 0.94969 0.0
C653 C 0.26943 0.6103 0.96168 0.0
C654 C 0.32159 0.62442 0.96888 0.0
C655 C 0.31518 0.63672 0.00085 0.0
C656 C 0.28566 0.63581 0.0131 0.0
H657 H 0.46981 0.7053 0.11392 0.0
H658 H 0.42575 0.67589 0.09814 0.0
C659 C 0.26292 0.62278 0.99363 0.0
C660 C 0.33899 0.65252 0.01996 0.0
H661 H 0.4123 0.64677 0.04328 0.0
C662 C 0.33418 0.68247 0.02925 0.0
C663 C 0.36703 0.63905 0.02684 0.0
C664 C 0.37281 0.60622 0.02061 0.0
C665 C 0.3572 0.69983 0.04335 0.0
C666 C 0.38607 0.68716 0.04707 0.0
C667 C 0.39036 0.65671 0.03972 0.0
C668 C 0.41236 0.70533 0.05718 0.0
C669 C 0.35025 0.73155 0.05399 0.0
C670 C 0.41981 0.73133 0.03901 0.0
C671 C 0.44467 0.74838 0.04828 0.0
C672 C 0.46304 0.73931 0.07534 0.0
C673 C 0.45611 0.71279 0.09288 0.0
C674 C 0.4309 0.69602 0.08396 0.0
H675 H 0.32631 0.73399 0.06116 0.0
H676 H 0.3643 0.73869 0.0758 0.0
H677 H 0.35453 0.74685 0.03233 0.0
H678 H 0.40651 0.73836 0.01745 0.0
H679 H 0.44969 0.76851 0.03401 0.0
H680 H 0.63472 0.74234 0.01087 0.0
H681 H 0.6587 0.69978 0.98302 0.0
H682 H 0.60243 0.63901 0.03929 0.0
H683 H 0.57852 0.68128 0.06764 0.0
H684 H 0.66261 0.62606 0.04452 0.0
H685 H 0.62996 0.6414 0.90974 0.0
H686 H 0.64589 0.6743 0.92878 0.0
H687 H 0.61084 0.65995 0.94427 0.0
C688 C 0.62708 0.71997 0.01699 0.0
C689 C 0.60479 0.71527 0.04169 0.0
C690 C 0.64071 0.69567 0.00086 0.0
C691 C 0.63211 0.66631 0.00888 0.0
C692 C 0.60928 0.66155 0.0327 0.0
H693 H 0.7009 0.50489 0.91124 0.0
H694 H 0.66805 0.54387 0.93396 0.0
C695 C 0.59567 0.68578 0.04888 0.0
C696 C 0.64873 0.64054 0.99476 0.0
H697 H 0.66997 0.60713 0.92063 0.0
C698 C 0.664 0.62174 0.01745 0.0
C699 C 0.65025 0.63486 0.95948 0.0
C700 C 0.63313 0.65351 0.93413 0.0
C701 C 0.68152 0.59787 0.00573 0.0
C702 C 0.68411 0.593 0.9704 0.0
C703 C 0.66811 0.61118 0.94771 0.0
C704 C 0.70395 0.56955 0.95656 0.0
C705 C 0.69712 0.57805 0.03123 0.0
C706 C 0.73497 0.57138 0.96151 0.0
C707 C 0.75382 0.54923 0.94861 0.0
C708 C 0.74196 0.52485 0.93039 0.0
C709 C 0.71079 0.52326 0.92525 0.0
C710 C 0.69197 0.54552 0.93812 0.0
H711 H 0.68689 0.57993 0.05686 0.0
H712 H 0.69642 0.55424 0.02312 0.0
H713 H 0.72094 0.58488 0.03323 0.0
H714 H 0.74462 0.59006 0.97526 0.0
H715 H 0.77768 0.55126 0.95297 0.0
H716 H 0.69526 0.38761 0.91359 0.0
H717 H 0.65445 0.36345 0.94382 0.0
H718 H 0.71179 0.35015 0.0307 0.0
H719 H 0.75339 0.37366 3e-05 0.0
H720 H 0.6814 0.30069 0.01619 0.0
H721 H 0.60218 0.39546 0.01788 0.0
H722 H 0.61422 0.38783 0.97535 0.0
H723 H 0.64108 0.40004 0.00662 0.0
C724 C 0.69922 0.37985 0.93926 0.0
C725 C 0.72755 0.38272 0.9545 0.0
C726 C 0.67574 0.36622 0.95661 0.0
C727 C 0.67984 0.35571 0.98982 0.0
C728 C 0.7081 0.35842 0.00518 0.0
H729 H 0.52189 0.2906 0.09841 0.0
H730 H 0.5657 0.31986 0.08164 0.0
C731 C 0.73182 0.37179 0.98763 0.0
C732 C 0.65496 0.34029 0.0074 0.0
H733 H 0.58038 0.34627 0.0247 0.0
C734 C 0.65942 0.3108 0.01857 0.0
C735 C 0.62645 0.3537 0.01117 0.0
C736 C 0.62081 0.38612 0.00246 0.0
C737 C 0.63573 0.29383 0.03179 0.0
C738 C 0.60665 0.30641 0.03276 0.0
C739 C 0.60255 0.33641 0.02328 0.0
C740 C 0.58008 0.28869 0.0428 0.0
C741 C 0.6422 0.26264 0.04456 0.0
C742 C 0.57321 0.26185 0.02596 0.0
C743 C 0.54843 0.24491 0.03575 0.0
C744 C 0.52964 0.25489 0.06204 0.0
C745 C 0.5359 0.28236 0.07799 0.0
C746 C 0.56097 0.29905 0.06853 0.0
H747 H 0.66588 0.26041 0.05285 0.0
H748 H 0.62742 0.2566 0.06618 0.0
H749 H 0.63844 0.24635 0.0237 0.0
H750 H 0.58704 0.25395 0.00522 0.0
H751 H 0.54397 0.22401 0.02271 0.0
H752 H 0.61465 0.24924 0.49471 0.0
H753 H 0.63947 0.29083 0.46552 0.0
H754 H 0.63264 0.34454 0.55632 0.0
H755 H 0.60696 0.30371 0.58512 0.0
H756 H 0.61952 0.37679 0.50171 0.0
H757 H 0.72532 0.31441 0.47966 0.0
H758 H 0.69301 0.29722 0.46086 0.0
H759 H 0.69581 0.30011 0.50633 0.0
C760 C 0.6184 0.26996 0.50837 0.0
C761 C 0.60901 0.27314 0.54227 0.0
C762 C 0.63271 0.29363 0.49174 0.0
C763 C 0.63843 0.32057 0.50897 0.0
C764 C 0.62851 0.32394 0.54255 0.0
H765 H 0.77351 0.45203 0.46886 0.0
H766 H 0.74182 0.41145 0.48961 0.0
C767 C 0.61384 0.30054 0.55898 0.0
C768 C 0.65514 0.34529 0.49258 0.0
H769 H 0.72246 0.36325 0.45712 0.0
C770 C 0.64202 0.37385 0.49187 0.0
C771 C 0.68461 0.34143 0.48015 0.0
C772 C 0.70067 0.31173 0.48203 0.0
C773 C 0.65774 0.39881 0.47966 0.0
C774 C 0.68705 0.39486 0.46678 0.0
C775 C 0.69993 0.36619 0.46688 0.0
C776 C 0.70545 0.42028 0.45466 0.0
C777 C 0.64324 0.42927 0.48201 0.0
C778 C 0.69549 0.4388 0.42817 0.0
C779 C 0.71337 0.46237 0.41664 0.0
C780 C 0.74181 0.46736 0.43089 0.0
C781 C 0.75176 0.44868 0.45728 0.0
C782 C 0.7337 0.42547 0.46913 0.0
H783 H 0.6247 0.42954 0.50082 0.0
H784 H 0.6598 0.44669 0.48924 0.0
H785 H 0.6337 0.43529 0.45691 0.0
H786 H 0.67411 0.43475 0.41604 0.0
H787 H 0.70526 0.47617 0.39598 0.0
H788 H 0.43671 0.21798 0.55359 0.0
H789 H 0.39675 0.24951 0.53124 0.0
H790 H 0.44697 0.32857 0.55777 0.0
H791 H 0.48721 0.29724 0.58057 0.0
H792 H 0.3842 0.32992 0.57578 0.0
H793 H 0.4038 0.2974 0.44144 0.0
H794 H 0.39933 0.26645 0.47012 0.0
H795 H 0.43104 0.29092 0.47453 0.0
C796 C 0.43937 0.24206 0.55478 0.0
C797 C 0.46533 0.25506 0.5687 0.0
C798 C 0.4165 0.26002 0.54188 0.0
C799 C 0.41917 0.29127 0.5425 0.0
C800 C 0.44465 0.30443 0.55699 0.0
H801 H 0.3085 0.41034 0.42263 0.0
H802 H 0.35032 0.38626 0.45156 0.0
C803 C 0.46761 0.28648 0.56991 0.0
C804 C 0.39541 0.3101 0.52757 0.0
H805 H 0.35944 0.32483 0.45306 0.0
C806 C 0.37884 0.32902 0.54893 0.0
C807 C 0.38881 0.30903 0.49249 0.0
C808 C 0.40682 0.29008 0.46819 0.0
C809 C 0.35519 0.3464 0.53617 0.0
C810 C 0.34791 0.34446 0.5013 0.0
C811 C 0.36499 0.32609 0.47985 0.0
C812 C 0.32254 0.36108 0.4863 0.0
C813 C 0.33835 0.36681 0.55998 0.0
C814 C 0.29305 0.35501 0.49646 0.0
C815 C 0.26899 0.36873 0.47997 0.0
C816 C 0.27403 0.3886 0.45282 0.0
C817 C 0.30371 0.3951 0.44331 0.0
C818 C 0.32769 0.38139 0.45983 0.0
H819 H 0.35136 0.3715 0.58344 0.0
H820 H 0.33286 0.38838 0.54742 0.0
H821 H 0.31704 0.35589 0.5675 0.0
H822 H 0.28861 0.33896 0.51645 0.0
H823 H 0.24646 0.36315 0.48793 0.0
H824 H 0.41727 0.69074 0.54703 0.0
H825 H 0.39136 0.65033 0.51764 0.0
H826 H 0.3259 0.71302 0.48 0.0
H827 H 0.35178 0.7539 0.50924 0.0
H828 H 0.33135 0.63581 0.53299 0.0
H829 H 0.34724 0.66103 0.3959 0.0
H830 H 0.37095 0.67664 0.42862 0.0
H831 H 0.33419 0.69167 0.42158 0.0
C832 C 0.39762 0.69614 0.53212 0.0
C833 C 0.38645 0.72558 0.53078 0.0
C834 C 0.38289 0.67297 0.5153 0.0
C835 C 0.35685 0.67875 0.49661 0.0
C836 C 0.34625 0.70822 0.49394 0.0
H837 H 0.21484 0.55475 0.44838 0.0
H838 H 0.24534 0.59669 0.46809 0.0
C839 C 0.36101 0.73152 0.51078 0.0
C840 C 0.3393 0.65346 0.4829 0.0
H841 H 0.31312 0.62202 0.40967 0.0
C842 C 0.32743 0.63272 0.50603 0.0
C843 C 0.33444 0.64952 0.44772 0.0
C844 C 0.34754 0.67072 0.42189 0.0
C845 C 0.31048 0.60823 0.49492 0.0
C846 C 0.30507 0.60462 0.45983 0.0
C847 C 0.31725 0.62508 0.43659 0.0
C848 C 0.28665 0.57967 0.44697 0.0
C849 C 0.29864 0.58624 0.52074 0.0
C850 C 0.29987 0.55648 0.42827 0.0
C851 C 0.28257 0.53236 0.41703 0.0
C852 C 0.25169 0.53125 0.42408 0.0
C853 C 0.23854 0.55482 0.44253 0.0
C854 C 0.2559 0.5788 0.45387 0.0
H855 H 0.30977 0.58884 0.54581 0.0
H856 H 0.27427 0.58998 0.52425 0.0
H857 H 0.30184 0.56287 0.51179 0.0
H858 H 0.32363 0.55688 0.42274 0.0
H859 H 0.29339 0.51469 0.40275 0.0
H860 H 0.75412 0.64028 0.4838 0.0
H861 H 0.71253 0.66753 0.5099 0.0
H862 H 0.64951 0.61369 0.45371 0.0
H863 H 0.69068 0.58655 0.42726 0.0
H864 H 0.64006 0.67521 0.44754 0.0
H865 H 0.65172 0.64103 0.58259 0.0
H866 H 0.68524 0.65543 0.56334 0.0
H867 H 0.66944 0.62091 0.54824 0.0
C868 C 0.73142 0.63394 0.47732 0.0
C869 C 0.72579 0.61128 0.45329 0.0
C870 C 0.70769 0.64948 0.49237 0.0
C871 C 0.678 0.64245 0.48386 0.0
C872 C 0.6723 0.61941 0.46059 0.0
H873 H 0.51285 0.70265 0.57612 0.0
H874 H 0.55487 0.67367 0.55381 0.0
C875 C 0.69592 0.60392 0.44551 0.0
C876 C 0.6528 0.66024 0.49748 0.0
H877 H 0.61647 0.67935 0.57056 0.0
C878 C 0.63485 0.67611 0.47443 0.0
C879 C 0.64601 0.6611 0.53251 0.0
C880 C 0.66391 0.64353 0.55816 0.0
C881 C 0.6103 0.69303 0.48552 0.0
C882 C 0.60387 0.69441 0.52062 0.0
C883 C 0.62166 0.67836 0.54367 0.0
C884 C 0.57848 0.71211 0.53386 0.0
C885 C 0.59114 0.70885 0.45954 0.0
C886 C 0.57799 0.74332 0.53011 0.0
C887 C 0.554 0.75999 0.54273 0.0
C888 C 0.53011 0.74573 0.55952 0.0
C889 C 0.53078 0.71439 0.56327 0.0
C890 C 0.55481 0.69777 0.55064 0.0
H891 H 0.59471 0.6998 0.43357 0.0
H892 H 0.56702 0.70685 0.466 0.0
H893 H 0.59701 0.73299 0.45923 0.0
H894 H 0.59631 0.75481 0.51766 0.0
H895 H 0.55434 0.78407 0.53952 0.0
H896 H 0.42312 0.06562 0.07803 0.0
H897 H 0.44489 0.02012 0.10209 0.0
H898 H 0.46225 0.06682 0.19596 0.0
H899 H 0.44028 0.1122 0.17195 0.0
H900 H 0.51341 0.05129 0.15713 0.0
H901 H 0.43897 0.95343 0.17546 0.0
H902 H 0.43114 0.97394 0.13723 0.0
H903 H 0.42565 0.99164 0.17779 0.0
C904 C 0.4296 0.06547 0.10456 0.0
C905 C 0.42996 0.0921 0.12331 0.0
C906 C 0.4422 0.03954 0.1183 0.0
C907 C 0.45528 0.04023 0.15076 0.0
C908 C 0.45208 0.06583 0.171 0.0
H909 H 0.56615 0.88277 0.16978 0.0
H910 H 0.54567 0.92871 0.19426 0.0
C911 C 0.43934 0.09164 0.15735 0.0
C912 C 0.47846 0.01793 0.1592 0.0
H913 H 0.49051 0.94277 0.16064 0.0
C914 C 0.50844 0.02757 0.15902 0.0
C915 C 0.47192 0.98716 0.1618 0.0
C916 C 0.44014 0.9759 0.16341 0.0
C917 C 0.53205 0.00695 0.15814 0.0
C918 C 0.52538 0.97613 0.15754 0.0
C919 C 0.49554 0.96654 0.161 0.0
C920 C 0.54777 0.95363 0.14728 0.0
C921 C 0.56381 0.01819 0.15577 0.0
C922 C 0.55752 0.95325 0.11336 0.0
C923 C 0.56913 0.92699 0.09933 0.0
C924 C 0.57129 0.90114 0.11926 0.0
C925 C 0.56529 0.90277 0.15422 0.0
C926 C 0.55335 0.92887 0.16816 0.0
H927 H 0.56595 0.0411 0.16651 0.0
H928 H 0.57946 0.00298 0.16928 0.0
H929 H 0.57057 0.01908 0.12866 0.0
H930 H 0.55291 0.97201 0.09672 0.0
H931 H 0.57288 0.92589 0.07216 0.0
H932 H 0.93522 0.43533 0.91963 0.0
H933 H 0.97769 0.45715 0.88948 0.0
H934 H 0.93 0.44881 0.79468 0.0
H935 H 0.88753 0.42641 0.82496 0.0
H936 H 0.01459 0.44742 0.82617 0.0
H937 H 0.93152 0.54071 0.82114 0.0
H938 H 0.92485 0.50854 0.84777 0.0
H939 H 0.92286 0.50492 0.80246 0.0
C940 C 0.93465 0.43636 0.89214 0.0
C941 C 0.90848 0.42902 0.87446 0.0
C942 C 0.95876 0.44901 0.87491 0.0
C943 C 0.95667 0.45495 0.83998 0.0
C944 C 0.93193 0.44439 0.82163 0.0
H945 H 0.11116 0.57055 0.82016 0.0
H946 H 0.06762 0.54917 0.79107 0.0
C947 C 0.90789 0.43133 0.83888 0.0
C948 C 0.97712 0.47753 0.82556 0.0
H949 H 0.98233 0.55369 0.8226 0.0
C950 C 0.00763 0.47059 0.82376 0.0
C951 C 0.9677 0.50768 0.8224 0.0
C952 C 0.93498 0.51616 0.82351 0.0
C953 C 0.02926 0.49332 0.82287 0.0
C954 C 0.01985 0.52362 0.82398 0.0
C955 C 0.98932 0.53044 0.82178 0.0
C956 C 0.04049 0.54696 0.83646 0.0
C957 C 0.06195 0.48477 0.82471 0.0
C958 C 0.03844 0.55526 0.87079 0.0
C959 C 0.06315 0.56757 0.88734 0.0
C960 C 0.08988 0.57199 0.86952 0.0
C961 C 0.09044 0.56779 0.83416 0.0
C962 C 0.06575 0.55531 0.8176 0.0
H963 H 0.06529 0.46012 0.82479 0.0
H964 H 0.07405 0.49418 0.80254 0.0
H965 H 0.07224 0.49419 0.84806 0.0
H966 H 0.01908 0.54891 0.88575 0.0
H967 H 0.06252 0.5701 0.9147 0.0
H968 H 0.43431 0.88307 0.67586 0.0
H969 H 0.45362 0.92861 0.70238 0.0
H970 H 0.43824 0.9769 0.60913 0.0
H971 H 0.41896 0.93133 0.58272 0.0
H972 H 0.50508 0.94603 0.66998 0.0
H973 H 0.42895 0.04291 0.68055 0.0
H974 H 0.41558 0.00465 0.6806 0.0
H975 H 0.42353 0.02346 0.64115 0.0
C976 C 0.43318 0.90394 0.66188 0.0
C977 C 0.42502 0.904 0.62744 0.0
C978 C 0.44438 0.92988 0.67698 0.0
C979 C 0.44742 0.95611 0.65775 0.0
C980 C 0.43558 0.95706 0.62467 0.0
H981 H 0.56565 0.06296 0.5756 0.0
H982 H 0.54365 0.01997 0.60475 0.0
C983 C 0.42447 0.93105 0.60952 0.0
C984 C 0.46969 0.97893 0.6678 0.0
H985 H 0.48094 0.05423 0.66494 0.0
C986 C 0.49973 0.96973 0.67018 0.0
C987 C 0.46277 0.00973 0.66842 0.0
C988 C 0.43088 0.02074 0.6679 0.0
C989 C 0.52313 0.99058 0.66906 0.0
C990 C 0.51619 0.02119 0.66558 0.0
C991 C 0.4862 0.0306 0.66731 0.0
C992 C 0.53847 0.04284 0.65291 0.0
C993 C 0.55505 0.97962 0.669 0.0
C994 C 0.54434 0.06926 0.67093 0.0
C995 C 0.55766 0.09353 0.65446 0.0
C996 C 0.56456 0.09173 0.61971 0.0
C997 C 0.56126 0.06445 0.60262 0.0
C998 C 0.54854 0.04 0.61926 0.0
H999 H 0.55709 0.9578 0.68235 0.0
H1000 H 0.56251 0.97637 0.64237 0.0
H1001 H 0.5702 0.99613 0.68124 0.0
H1002 H 0.53632 0.07197 0.69672 0.0
H1003 H 0.55925 0.11473 0.66775 0.0
H1004 H 0.88601 0.56558 0.3253 0.0
H1005 H 0.92843 0.54333 0.29485 0.0
H1006 H 0.97742 0.53754 0.38903 0.0
H1007 H 0.93493 0.55916 0.41941 0.0
H1008 H 0.01316 0.54633 0.32332 0.0
H1009 H 0.93123 0.45193 0.32541 0.0
H1010 H 0.92165 0.48713 0.30591 0.0
H1011 H 0.92488 0.48469 0.35122 0.0
C1012 C 0.90662 0.56129 0.339 0.0
C1013 C 0.90759 0.56421 0.37452 0.0
C1014 C 0.93066 0.54835 0.32166 0.0
C1015 C 0.95575 0.53851 0.33984 0.0
C1016 C 0.9582 0.54514 0.3746 0.0
H1017 H 0.0635 0.43087 0.4197 0.0
H1018 H 0.01984 0.45032 0.38969 0.0
C1019 C 0.93408 0.55768 0.39195 0.0
C1020 C 0.97611 0.51574 0.32571 0.0
H1021 H 0.98228 0.43965 0.32714 0.0
C1022 C 0.00645 0.523 0.32246 0.0
C1023 C 0.96703 0.48538 0.32442 0.0
C1024 C 0.93445 0.47656 0.32688 0.0
C1025 C 0.02834 0.50051 0.32215 0.0
C1026 C 0.01939 0.47023 0.32561 0.0
C1027 C 0.98892 0.4629 0.32459 0.0
C1028 C 0.0404 0.44813 0.33994 0.0
C1029 C 0.06094 0.50946 0.32205 0.0
C1030 C 0.0653 0.43817 0.32146 0.0
C1031 C 0.09007 0.42648 0.33866 0.0
C1032 C 0.08999 0.42492 0.3743 0.0
C1033 C 0.06371 0.43136 0.39218 0.0
C1034 C 0.03889 0.44264 0.37501 0.0
H1035 H 0.06401 0.53405 0.31966 0.0
H1036 H 0.07193 0.50189 0.34585 0.0
H1037 H 0.07249 0.49847 0.30045 0.0
H1038 H 0.0668 0.44226 0.2944 0.0
H1039 H 0.11047 0.42222 0.32455 0.0
loop_
_geom_bond_atom_site_label_1
_geom_bond_atom_site_label_2
_geom_bond_distance
_geom_bond_site_symmetry_2
_ccdc_geom_bond_type
Sc0 O3 2.025 . S
Sc0 O10 2.105 . S
Sc0 O13 2.105 . S
Sc0 O16 2.105 . S
Sc0 O19 2.105 . S
Sc1 O3 2.025 . S
Sc1 O11 2.105 . S
Sc1 O15 2.105 . S
Sc1 O17 2.105 . S
Sc1 O21 2.105 . S
Sc2 O3 2.025 . S
Sc2 O12 2.105 . S
Sc2 O14 2.105 . S
Sc2 O18 2.105 . S
Sc2 O20 2.105 . S
O3 Sc0 2.025 . S
O3 Sc1 2.025 . S
O3 Sc2 2.025 . S
C4 O10 1.268 . S
C4 O20 1.268 . S
C5 O11 1.268 . S
C5 O19 1.268 . S
C6 O12 1.268 . S
C6 O21 1.268 . S
C7 O13 1.268 . S
C7 O17 1.268 . S
C8 O14 1.268 . S
C8 O16 1.268 . S
C9 O15 1.268 . S
C9 O18 1.268 . S
O10 Sc0 2.105 . S
O10 C4 1.268 . S
O11 Sc1 2.105 . S
O11 C5 1.268 . S
O12 Sc2 2.105 . S
O12 C6 1.268 . S
O13 Sc0 2.105 . S
O13 C7 1.268 . S
O14 Sc2 2.105 . S
O14 C8 1.268 . S
O15 Sc1 2.105 . S
O15 C9 1.268 . S
O16 Sc0 2.105 . S
O16 C8 1.268 . S
O17 Sc1 2.105 . S
O17 C7 1.268 . S
O18 Sc2 2.105 . S
O18 C9 1.268 . S
O19 Sc0 2.105 . S
O19 C5 1.268 . S
O20 Sc2 2.105 . S
O20 C4 1.268 . S
O21 Sc1 2.105 . S
O21 C6 1.268 . S
Sc22 O25 2.025 . S
Sc22 O32 2.105 . S
Sc22 O35 2.105 . S
Sc22 O38 2.105 . S
Sc22 O41 2.105 . S
Sc23 O25 2.025 . S
Sc23 O33 2.105 . S
Sc23 O37 2.105 . S
Sc23 O39 2.105 . S
Sc23 O43 2.105 . S
Sc24 O25 2.025 . S
Sc24 O34 2.105 . S
Sc24 O36 2.105 . S
Sc24 O40 2.105 . S
Sc24 O42 2.105 . S
O25 Sc22 2.025 . S
O25 Sc23 2.025 . S
O25 Sc24 2.025 . S
C26 O32 1.268 . S
C26 O42 1.268 . S
C27 O33 1.268 . S
C27 O41 1.268 . S
C28 O34 1.268 . S
C28 O43 1.268 . S
C29 O35 1.268 . S
C29 O39 1.268 . S
C30 O36 1.268 . S
C30 O38 1.268 . S
C31 O37 1.268 . S
C31 O40 1.268 . S
O32 Sc22 2.105 . S
O32 C26 1.268 . S
O33 Sc23 2.105 . S
O33 C27 1.268 . S
O34 Sc24 2.105 . S
O34 C28 1.268 . S
O35 Sc22 2.105 . S
O35 C29 1.268 . S
O36 Sc24 2.105 . S
O36 C30 1.268 . S
O37 Sc23 2.105 . S
O37 C31 1.268 . S
O38 Sc22 2.105 . S
O38 C30 1.268 . S
O39 Sc23 2.105 . S
O39 C29 1.268 . S
O40 Sc24 2.105 . S
O40 C31 1.268 . S
O41 Sc22 2.105 . S
O41 C27 1.268 . S
O42 Sc24 2.105 . S
O42 C26 1.268 . S
O43 Sc23 2.105 . S
O43 C28 1.268 . S
Sc44 O47 2.025 . S
Sc44 O54 2.105 . S
Sc44 O57 2.105 . S
Sc44 O60 2.105 . S
Sc44 O63 2.105 . S
Sc45 O47 2.025 . S
Sc45 O55 2.105 . S
Sc45 O59 2.105 . S
Sc45 O61 2.105 . S
Sc45 O65 2.105 . S
Sc46 O47 2.025 . S
Sc46 O56 2.105 . S
Sc46 O58 2.105 . S
Sc46 O62 2.105 . S
Sc46 O64 2.105 . S
O47 Sc44 2.025 . S
O47 Sc45 2.025 . S
O47 Sc46 2.025 . S
C48 O54 1.268 . S
C48 O64 1.268 . S
C49 O55 1.268 . S
C49 O63 1.268 . S
C50 O56 1.268 . S
C50 O65 1.268 . S
C51 O57 1.268 . S
C51 O61 1.268 . S
C52 O58 1.268 . S
C52 O60 1.268 . S
C53 O59 1.268 . S
C53 O62 1.268 . S
O54 Sc44 2.105 . S
O54 C48 1.268 . S
O55 Sc45 2.105 . S
O55 C49 1.268 . S
O56 Sc46 2.105 . S
O56 C50 1.268 . S
O57 Sc44 2.105 . S
O57 C51 1.268 . S
O58 Sc46 2.105 . S
O58 C52 1.268 . S
O59 Sc45 2.105 . S
O59 C53 1.268 . S
O60 Sc44 2.105 . S
O60 C52 1.268 . S
O61 Sc45 2.105 . S
O61 C51 1.268 . S
O62 Sc46 2.105 . S
O62 C53 1.268 . S
O63 Sc44 2.105 . S
O63 C49 1.268 . S
O64 Sc46 2.105 . S
O64 C48 1.268 . S
O65 Sc45 2.105 . S
O65 C50 1.268 . S
Sc66 O69 2.025 . S
Sc66 O76 2.105 . S
Sc66 O79 2.105 . S
Sc66 O82 2.105 . S
Sc66 O85 2.105 . S
Sc67 O69 2.025 . S
Sc67 O77 2.105 . S
Sc67 O81 2.105 . S
Sc67 O83 2.105 . S
Sc67 O87 2.105 . S
Sc68 O69 2.025 . S
Sc68 O78 2.105 . S
Sc68 O80 2.105 . S
Sc68 O84 2.105 . S
Sc68 O86 2.105 . S
O69 Sc66 2.025 . S
O69 Sc67 2.025 . S
O69 Sc68 2.025 . S
C70 O76 1.268 . S
C70 O86 1.268 . S
C71 O77 1.268 . S
C71 O85 1.268 . S
C72 O78 1.268 . S
C72 O87 1.268 . S
C73 O79 1.268 . S
C73 O83 1.268 . S
C74 O80 1.268 . S
C74 O82 1.268 . S
C75 O81 1.268 . S
C75 O84 1.268 . S
O76 Sc66 2.105 . S
O76 C70 1.268 . S
O77 Sc67 2.105 . S
O77 C71 1.268 . S
O78 Sc68 2.105 . S
O78 C72 1.268 . S
O79 Sc66 2.105 . S
O79 C73 1.268 . S
O80 Sc68 2.105 . S
O80 C74 1.268 . S
O81 Sc67 2.105 . S
O81 C75 1.268 . S
O82 Sc66 2.105 . S
O82 C74 1.268 . S
O83 Sc67 2.105 . S
O83 C73 1.268 . S
O84 Sc68 2.105 . S
O84 C75 1.268 . S
O85 Sc66 2.105 . S
O85 C71 1.268 . S
O86 Sc68 2.105 . S
O86 C70 1.268 . S
O87 Sc67 2.105 . S
O87 C72 1.268 . S
Sc88 O91 2.025 . S
Sc88 O98 2.105 . S
Sc88 O101 2.105 . S
Sc88 O104 2.105 . S
Sc88 O107 2.105 . S
Sc89 O91 2.025 . S
Sc89 O99 2.105 . S
Sc89 O103 2.105 . S
Sc89 O105 2.105 . S
Sc89 O109 2.105 . S
Sc90 O91 2.025 . S
Sc90 O100 2.105 . S
Sc90 O102 2.105 . S
Sc90 O106 2.105 . S
Sc90 O108 2.105 . S
O91 Sc88 2.025 . S
O91 Sc89 2.025 . S
O91 Sc90 2.025 . S
C92 O98 1.268 . S
C92 O108 1.268 . S
C93 O99 1.268 . S
C93 O107 1.268 . S
C94 O100 1.268 . S
C94 O109 1.268 . S
C95 O101 1.268 . S
C95 O105 1.268 . S
C96 O102 1.268 . S
C96 O104 1.268 . S
C97 O103 1.268 . S
C97 O106 1.268 . S
O98 Sc88 2.105 . S
O98 C92 1.268 . S
O99 Sc89 2.105 . S
O99 C93 1.268 . S
O100 Sc90 2.105 . S
O100 C94 1.268 . S
O101 Sc88 2.105 . S
O101 C95 1.268 . S
O102 Sc90 2.105 . S
O102 C96 1.268 . S
O103 Sc89 2.105 . S
O103 C97 1.268 . S
O104 Sc88 2.105 . S
O104 C96 1.268 . S
O105 Sc89 2.105 . S
O105 C95 1.268 . S
O106 Sc90 2.105 . S
O106 C97 1.268 . S
O107 Sc88 2.105 . S
O107 C93 1.268 . S
O108 Sc90 2.105 . S
O108 C92 1.268 . S
O109 Sc89 2.105 . S
O109 C94 1.268 . S
Sc110 O113 2.025 . S
Sc110 O120 2.105 . S
Sc110 O123 2.105 . S
Sc110 O126 2.105 . S
Sc110 O129 2.105 . S
Sc111 O113 2.025 . S
Sc111 O121 2.105 . S
Sc111 O125 2.105 . S
Sc111 O127 2.105 . S
Sc111 O131 2.105 . S
Sc112 O113 2.025 . S
Sc112 O122 2.105 . S
Sc112 O124 2.105 . S
Sc112 O128 2.105 . S
Sc112 O130 2.105 . S
O113 Sc110 2.025 . S
O113 Sc111 2.025 . S
O113 Sc112 2.025 . S
C114 O120 1.268 . S
C114 O130 1.268 . S
C115 O121 1.268 . S
C115 O129 1.268 . S
C116 O122 1.268 . S
C116 O131 1.268 . S
C117 O123 1.268 . S
C117 O127 1.268 . S
C118 O124 1.268 . S
C118 O126 1.268 . S
C119 O125 1.268 . S
C119 O128 1.268 . S
O120 Sc110 2.105 . S
O120 C114 1.268 . S
O121 Sc111 2.105 . S
O121 C115 1.268 . S
O122 Sc112 2.105 . S
O122 C116 1.268 . S
O123 Sc110 2.105 . S
O123 C117 1.268 . S
O124 Sc112 2.105 . S
O124 C118 1.268 . S
O125 Sc111 2.105 . S
O125 C119 1.268 . S
O126 Sc110 2.105 . S
O126 C118 1.268 . S
O127 Sc111 2.105 . S
O127 C117 1.268 . S
O128 Sc112 2.105 . S
O128 C119 1.268 . S
O129 Sc110 2.105 . S
O129 C115 1.268 . S
O130 Sc112 2.105 . S
O130 C114 1.268 . S
O131 Sc111 2.105 . S
O131 C116 1.268 . S
Sc132 O135 2.025 . S
Sc132 O142 2.105 . S
Sc132 O145 2.105 . S
Sc132 O148 2.105 . S
Sc132 O151 2.105 . S
Sc133 O135 2.025 . S
Sc133 O143 2.105 . S
Sc133 O147 2.105 . S
Sc133 O149 2.105 . S
Sc133 O153 2.105 . S
Sc134 O135 2.025 . S
Sc134 O144 2.105 . S
Sc134 O146 2.105 . S
Sc134 O150 2.105 . S
Sc134 O152 2.105 . S
O135 Sc132 2.025 . S
O135 Sc133 2.025 . S
O135 Sc134 2.025 . S
C136 O142 1.268 . S
C136 O152 1.268 . S
C137 O143 1.268 . S
C137 O151 1.268 . S
C138 O144 1.268 . S
C138 O153 1.268 . S
C139 O145 1.268 . S
C139 O149 1.268 . S
C140 O146 1.268 . S
C140 O148 1.268 . S
C141 O147 1.268 . S
C141 O150 1.268 . S
O142 Sc132 2.105 . S
O142 C136 1.268 . S
O143 Sc133 2.105 . S
O143 C137 1.268 . S
O144 Sc134 2.105 . S
O144 C138 1.268 . S
O145 Sc132 2.105 . S
O145 C139 1.268 . S
O146 Sc134 2.105 . S
O146 C140 1.268 . S
O147 Sc133 2.105 . S
O147 C141 1.268 . S
O148 Sc132 2.105 . S
O148 C140 1.268 . S
O149 Sc133 2.105 . S
O149 C139 1.268 . S
O150 Sc134 2.105 . S
O150 C141 1.268 . S
O151 Sc132 2.105 . S
O151 C137 1.268 . S
O152 Sc134 2.105 . S
O152 C136 1.268 . S
O153 Sc133 2.105 . S
O153 C138 1.268 . S
Sc154 O157 2.025 . S
Sc154 O164 2.105 . S
Sc154 O167 2.105 . S
Sc154 O170 2.105 . S
Sc154 O173 2.105 . S
Sc155 O157 2.025 . S
Sc155 O165 2.105 . S
Sc155 O169 2.105 . S
Sc155 O171 2.105 . S
Sc155 O175 2.105 . S
Sc156 O157 2.025 . S
Sc156 O166 2.105 . S
Sc156 O168 2.105 . S
Sc156 O172 2.105 . S
Sc156 O174 2.105 . S
O157 Sc154 2.025 . S
O157 Sc155 2.025 . S
O157 Sc156 2.025 . S
C158 O164 1.268 . S
C158 O174 1.268 . S
C159 O165 1.268 . S
C159 O173 1.268 . S
C160 O166 1.268 . S
C160 O175 1.268 . S
C161 O167 1.268 . S
C161 O171 1.268 . S
C162 O168 1.268 . S
C162 O170 1.268 . S
C163 O169 1.268 . S
C163 O172 1.268 . S
O164 Sc154 2.105 . S
O164 C158 1.268 . S
O165 Sc155 2.105 . S
O165 C159 1.268 . S
O166 Sc156 2.105 . S
O166 C160 1.268 . S
O167 Sc154 2.105 . S
O167 C161 1.268 . S
O168 Sc156 2.105 . S
O168 C162 1.268 . S
O169 Sc155 2.105 . S
O169 C163 1.268 . S
O170 Sc154 2.105 . S
O170 C162 1.268 . S
O171 Sc155 2.105 . S
O171 C161 1.268 . S
O172 Sc156 2.105 . S
O172 C163 1.268 . S
O173 Sc154 2.105 . S
O173 C159 1.268 . S
O174 Sc156 2.105 . S
O174 C158 1.268 . S
O175 Sc155 2.105 . S
O175 C160 1.268 . S
H176 C184 0.929 . S
H177 C186 0.930 . S
H178 C188 0.930 . S
H179 C191 0.929 . S
H180 C194 0.930 . S
H181 C196 0.960 . S
H182 C196 0.960 . S
H183 C196 0.960 . S
C184 H176 0.929 . S
C184 C185 1.377 . S
C184 C186 1.384 . S
C185 C184 1.377 . S
C185 C191 1.390 . S
C186 H177 0.930 . S
C186 C184 1.384 . S
C186 C187 1.372 . S
C187 C186 1.372 . S
C187 C188 1.400 . S
C187 C192 1.490 . S
C188 H178 0.930 . S
C188 C187 1.400 . S
C188 C191 1.386 . S
H189 C205 0.930 . S
H190 C206 0.931 . S
C191 H179 0.929 . S
C191 C185 1.390 . S
C191 C188 1.386 . S
C192 C187 1.490 . S
C192 C194 1.395 . S
C192 C195 1.403 . S
H193 C199 0.930 . S
C194 H180 0.930 . S
C194 C192 1.395 . S
C194 C197 1.403 . S
C195 C192 1.403 . S
C195 C196 1.524 . S
C195 C199 1.400 . S
C196 H181 0.960 . S
C196 H182 0.960 . S
C196 H183 0.960 . S
C196 C195 1.524 . S
C197 C194 1.403 . S
C197 C198 1.392 . S
C197 C201 1.495 . S
C198 C197 1.392 . S
C198 C199 1.385 . S
C198 C200 1.478 . S
C199 H193 0.930 . S
C199 C195 1.400 . S
C199 C198 1.385 . S
C200 C198 1.478 . S
C200 C202 1.381 . S
C200 C206 1.383 . S
C201 C197 1.495 . S
C201 H207 0.959 . S
C201 H208 0.961 . S
C201 H209 0.960 . S
C202 C200 1.381 . S
C202 C203 1.394 . S
C202 H210 0.930 . S
C203 C202 1.394 . S
C203 C204 1.383 . S
C203 H211 0.929 . S
C204 C203 1.383 . S
C204 C205 1.377 . S
C205 H189 0.930 . S
C205 C204 1.377 . S
C205 C206 1.379 . S
C206 H190 0.931 . S
C206 C200 1.383 . S
C206 C205 1.379 . S
H207 C201 0.959 . S
H208 C201 0.961 . S
H209 C201 0.960 . S
H210 C202 0.930 . S
H211 C203 0.929 . S
H212 C220 0.929 . S
H213 C222 0.930 . S
H214 C224 0.930 . S
H215 C227 0.929 . S
H216 C230 0.930 . S
H217 C232 0.960 . S
H218 C232 0.960 . S
H219 C232 0.960 . S
C220 H212 0.929 . S
C220 C221 1.377 . S
C220 C222 1.384 . S
C221 C220 1.377 . S
C221 C227 1.390 . S
C222 H213 0.930 . S
C222 C220 1.384 . S
C222 C223 1.372 . S
C223 C222 1.372 . S
C223 C224 1.400 . S
C223 C228 1.490 . S
C224 H214 0.930 . S
C224 C223 1.400 . S
C224 C227 1.386 . S
H225 C241 0.930 . S
H226 C242 0.931 . S
C227 H215 0.929 . S
C227 C221 1.390 . S
C227 C224 1.386 . S
C228 C223 1.490 . S
C228 C230 1.395 . S
C228 C231 1.403 . S
H229 C235 0.930 . S
C230 H216 0.930 . S
C230 C228 1.395 . S
C230 C233 1.403 . S
C231 C228 1.403 . S
C231 C232 1.524 . S
C231 C235 1.400 . S
C232 H217 0.960 . S
C232 H218 0.960 . S
C232 H219 0.960 . S
C232 C231 1.524 . S
C233 C230 1.403 . S
C233 C234 1.392 . S
C233 C237 1.495 . S
C234 C233 1.392 . S
C234 C235 1.385 . S
C234 C236 1.478 . S
C235 H229 0.930 . S
C235 C231 1.400 . S
C235 C234 1.385 . S
C236 C234 1.478 . S
C236 C238 1.381 . S
C236 C242 1.383 . S
C237 C233 1.495 . S
C237 H243 0.959 . S
C237 H244 0.961 . S
C237 H245 0.960 . S
C238 C236 1.381 . S
C238 C239 1.394 . S
C238 H246 0.930 . S
C239 C238 1.394 . S
C239 C240 1.383 . S
C239 H247 0.929 . S
C240 C239 1.383 . S
C240 C241 1.377 . S
C241 H225 0.930 . S
C241 C240 1.377 . S
C241 C242 1.379 . S
C242 H226 0.931 . S
C242 C236 1.383 . S
C242 C241 1.379 . S
H243 C237 0.959 . S
H244 C237 0.961 . S
H245 C237 0.960 . S
H246 C238 0.930 . S
H247 C239 0.929 . S
H248 C256 0.929 . S
H249 C258 0.930 . S
H250 C260 0.930 . S
H251 C263 0.929 . S
H252 C266 0.930 . S
H253 C268 0.960 . S
H254 C268 0.960 . S
H255 C268 0.960 . S
C256 H248 0.929 . S
C256 C257 1.377 . S
C256 C258 1.384 . S
C257 C256 1.377 . S
C257 C263 1.390 . S
C258 H249 0.930 . S
C258 C256 1.384 . S
C258 C259 1.372 . S
C259 C258 1.372 . S
C259 C260 1.400 . S
C259 C264 1.490 . S
C260 H250 0.930 . S
C260 C259 1.400 . S
C260 C263 1.386 . S
H261 C277 0.930 . S
H262 C278 0.931 . S
C263 H251 0.929 . S
C263 C257 1.390 . S
C263 C260 1.386 . S
C264 C259 1.490 . S
C264 C266 1.395 . S
C264 C267 1.403 . S
H265 C271 0.930 . S
C266 H252 0.930 . S
C266 C264 1.395 . S
C266 C269 1.403 . S
C267 C264 1.403 . S
C267 C268 1.524 . S
C267 C271 1.400 . S
C268 H253 0.960 . S
C268 H254 0.960 . S
C268 H255 0.960 . S
C268 C267 1.524 . S
C269 C266 1.403 . S
C269 C270 1.392 . S
C269 C273 1.495 . S
C270 C269 1.392 . S
C270 C271 1.385 . S
C270 C272 1.478 . S
C271 H265 0.930 . S
C271 C267 1.400 . S
C271 C270 1.385 . S
C272 C270 1.478 . S
C272 C274 1.381 . S
C272 C278 1.383 . S
C273 C269 1.495 . S
C273 H279 0.959 . S
C273 H280 0.961 . S
C273 H281 0.960 . S
C274 C272 1.381 . S
C274 C275 1.394 . S
C274 H282 0.930 . S
C275 C274 1.394 . S
C275 C276 1.383 . S
C275 H283 0.929 . S
C276 C275 1.383 . S
C276 C277 1.377 . S
C277 H261 0.930 . S
C277 C276 1.377 . S
C277 C278 1.379 . S
C278 H262 0.931 . S
C278 C272 1.383 . S
C278 C277 1.379 . S
H279 C273 0.959 . S
H280 C273 0.961 . S
H281 C273 0.960 . S
H282 C274 0.930 . S
H283 C275 0.929 . S
H284 C292 0.929 . S
H285 C294 0.930 . S
H286 C296 0.930 . S
H287 C299 0.929 . S
H288 C302 0.930 . S
H289 C304 0.960 . S
H290 C304 0.960 . S
H291 C304 0.960 . S
C292 H284 0.929 . S
C292 C293 1.377 . S
C292 C294 1.384 . S
C293 C292 1.377 . S
C293 C299 1.390 . S
C294 H285 0.930 . S
C294 C292 1.384 . S
C294 C295 1.372 . S
C295 C294 1.372 . S
C295 C296 1.400 . S
C295 C300 1.490 . S
C296 H286 0.930 . S
C296 C295 1.400 . S
C296 C299 1.386 . S
H297 C313 0.930 . S
H298 C314 0.931 . S
C299 H287 0.929 . S
C299 C293 1.390 . S
C299 C296 1.386 . S
C300 C295 1.490 . S
C300 C302 1.395 . S
C300 C303 1.403 . S
H301 C307 0.930 . S
C302 H288 0.930 . S
C302 C300 1.395 . S
C302 C305 1.403 . S
C303 C300 1.403 . S
C303 C304 1.524 . S
C303 C307 1.400 . S
C304 H289 0.960 . S
C304 H290 0.960 . S
C304 H291 0.960 . S
C304 C303 1.524 . S
C305 C302 1.403 . S
C305 C306 1.392 . S
C305 C309 1.495 . S
C306 C305 1.392 . S
C306 C307 1.385 . S
C306 C308 1.478 . S
C307 H301 0.930 . S
C307 C303 1.400 . S
C307 C306 1.385 . S
C308 C306 1.478 . S
C308 C310 1.381 . S
C308 C314 1.383 . S
C309 C305 1.495 . S
C309 H315 0.959 . S
C309 H316 0.961 . S
C309 H317 0.960 . S
C310 C308 1.381 . S
C310 C311 1.394 . S
C310 H318 0.930 . S
C311 C310 1.394 . S
C311 C312 1.383 . S
C311 H319 0.929 . S
C312 C311 1.383 . S
C312 C313 1.377 . S
C313 H297 0.930 . S
C313 C312 1.377 . S
C313 C314 1.379 . S
C314 H298 0.931 . S
C314 C308 1.383 . S
C314 C313 1.379 . S
H315 C309 0.959 . S
H316 C309 0.961 . S
H317 C309 0.960 . S
H318 C310 0.930 . S
H319 C311 0.929 . S
H320 C328 0.929 . S
H321 C330 0.930 . S
H322 C332 0.930 . S
H323 C335 0.929 . S
H324 C338 0.930 . S
H325 C340 0.960 . S
H326 C340 0.960 . S
H327 C340 0.960 . S
C328 H320 0.929 . S
C328 C329 1.377 . S
C328 C330 1.384 . S
C329 C328 1.377 . S
C329 C335 1.390 . S
C330 H321 0.930 . S
C330 C328 1.384 . S
C330 C331 1.372 . S
C331 C330 1.372 . S
C331 C332 1.400 . S
C331 C336 1.490 . S
C332 H322 0.930 . S
C332 C331 1.400 . S
C332 C335 1.386 . S
H333 C349 0.930 . S
H334 C350 0.931 . S
C335 H323 0.929 . S
C335 C329 1.390 . S
C335 C332 1.386 . S
C336 C331 1.490 . S
C336 C338 1.395 . S
C336 C339 1.403 . S
H337 C343 0.930 . S
C338 H324 0.930 . S
C338 C336 1.395 . S
C338 C341 1.403 . S
C339 C336 1.403 . S
C339 C340 1.524 . S
C339 C343 1.400 . S
C340 H325 0.960 . S
C340 H326 0.960 . S
C340 H327 0.960 . S
C340 C339 1.524 . S
C341 C338 1.403 . S
C341 C342 1.392 . S
C341 C345 1.495 . S
C342 C341 1.392 . S
C342 C343 1.385 . S
C342 C344 1.478 . S
C343 H337 0.930 . S
C343 C339 1.400 . S
C343 C342 1.385 . S
C344 C342 1.478 . S
C344 C346 1.381 . S
C344 C350 1.383 . S
C345 C341 1.495 . S
C345 H351 0.959 . S
C345 H352 0.961 . S
C345 H353 0.960 . S
C346 C344 1.381 . S
C346 C347 1.394 . S
C346 H354 0.930 . S
C347 C346 1.394 . S
C347 C348 1.383 . S
C347 H355 0.929 . S
C348 C347 1.383 . S
C348 C349 1.377 . S
C349 H333 0.930 . S
C349 C348 1.377 . S
C349 C350 1.379 . S
C350 H334 0.931 . S
C350 C344 1.383 . S
C350 C349 1.379 . S
H351 C345 0.959 . S
H352 C345 0.961 . S
H353 C345 0.960 . S
H354 C346 0.930 . S
H355 C347 0.929 . S
H356 C364 0.929 . S
H357 C366 0.930 . S
H358 C368 0.930 . S
H359 C371 0.929 . S
H360 C374 0.930 . S
H361 C376 0.960 . S
H362 C376 0.960 . S
H363 C376 0.960 . S
C364 H356 0.929 . S
C364 C365 1.377 . S
C364 C366 1.384 . S
C365 C364 1.377 . S
C365 C371 1.390 . S
C366 H357 0.930 . S
C366 C364 1.384 . S
C366 C367 1.372 . S
C367 C366 1.372 . S
C367 C368 1.400 . S
C367 C372 1.490 . S
C368 H358 0.930 . S
C368 C367 1.400 . S
C368 C371 1.386 . S
H369 C385 0.930 . S
H370 C386 0.931 . S
C371 H359 0.929 . S
C371 C365 1.390 . S
C371 C368 1.386 . S
C372 C367 1.490 . S
C372 C374 1.395 . S
C372 C375 1.403 . S
H373 C379 0.930 . S
C374 H360 0.930 . S
C374 C372 1.395 . S
C374 C377 1.403 . S
C375 C372 1.403 . S
C375 C376 1.524 . S
C375 C379 1.400 . S
C376 H361 0.960 . S
C376 H362 0.960 . S
C376 H363 0.960 . S
C376 C375 1.524 . S
C377 C374 1.403 . S
C377 C378 1.392 . S
C377 C381 1.495 . S
C378 C377 1.392 . S
C378 C379 1.385 . S
C378 C380 1.478 . S
C379 H373 0.930 . S
C379 C375 1.400 . S
C379 C378 1.385 . S
C380 C378 1.478 . S
C380 C382 1.381 . S
C380 C386 1.383 . S
C381 C377 1.495 . S
C381 H387 0.959 . S
C381 H388 0.961 . S
C381 H389 0.960 . S
C382 C380 1.381 . S
C382 C383 1.394 . S
C382 H390 0.930 . S
C383 C382 1.394 . S
C383 C384 1.383 . S
C383 H391 0.929 . S
C384 C383 1.383 . S
C384 C385 1.377 . S
C385 H369 0.930 . S
C385 C384 1.377 . S
C385 C386 1.379 . S
C386 H370 0.931 . S
C386 C380 1.383 . S
C386 C385 1.379 . S
H387 C381 0.959 . S
H388 C381 0.961 . S
H389 C381 0.960 . S
H390 C382 0.930 . S
H391 C383 0.929 . S
H392 C400 0.929 . S
H393 C402 0.930 . S
H394 C404 0.930 . S
H395 C407 0.929 . S
H396 C410 0.930 . S
H397 C412 0.960 . S
H398 C412 0.960 . S
H399 C412 0.960 . S
C400 H392 0.929 . S
C400 C401 1.377 . S
C400 C402 1.384 . S
C401 C400 1.377 . S
C401 C407 1.390 . S
C402 H393 0.930 . S
C402 C400 1.384 . S
C402 C403 1.372 . S
C403 C402 1.372 . S
C403 C404 1.400 . S
C403 C408 1.490 . S
C404 H394 0.930 . S
C404 C403 1.400 . S
C404 C407 1.386 . S
H405 C421 0.930 . S
H406 C422 0.931 . S
C407 H395 0.929 . S
C407 C401 1.390 . S
C407 C404 1.386 . S
C408 C403 1.490 . S
C408 C410 1.395 . S
C408 C411 1.403 . S
H409 C415 0.930 . S
C410 H396 0.930 . S
C410 C408 1.395 . S
C410 C413 1.403 . S
C411 C408 1.403 . S
C411 C412 1.524 . S
C411 C415 1.400 . S
C412 H397 0.960 . S
C412 H398 0.960 . S
C412 H399 0.960 . S
C412 C411 1.524 . S
C413 C410 1.403 . S
C413 C414 1.392 . S
C413 C417 1.495 . S
C414 C413 1.392 . S
C414 C415 1.385 . S
C414 C416 1.478 . S
C415 H409 0.930 . S
C415 C411 1.400 . S
C415 C414 1.385 . S
C416 C414 1.478 . S
C416 C418 1.381 . S
C416 C422 1.383 . S
C417 C413 1.495 . S
C417 H423 0.959 . S
C417 H424 0.961 . S
C417 H425 0.960 . S
C418 C416 1.381 . S
C418 C419 1.394 . S
C418 H426 0.930 . S
C419 C418 1.394 . S
C419 C420 1.383 . S
C419 H427 0.929 . S
C420 C419 1.383 . S
C420 C421 1.377 . S
C421 H405 0.930 . S
C421 C420 1.377 . S
C421 C422 1.379 . S
C422 H406 0.931 . S
C422 C416 1.383 . S
C422 C421 1.379 . S
H423 C417 0.959 . S
H424 C417 0.961 . S
H425 C417 0.960 . S
H426 C418 0.930 . S
H427 C419 0.929 . S
H428 C436 0.929 . S
H429 C438 0.930 . S
H430 C440 0.930 . S
H431 C443 0.929 . S
H432 C446 0.930 . S
H433 C448 0.960 . S
H434 C448 0.960 . S
H435 C448 0.960 . S
C436 H428 0.929 . S
C436 C437 1.377 . S
C436 C438 1.384 . S
C437 C436 1.377 . S
C437 C443 1.390 . S
C438 H429 0.930 . S
C438 C436 1.384 . S
C438 C439 1.372 . S
C439 C438 1.372 . S
C439 C440 1.400 . S
C439 C444 1.490 . S
C440 H430 0.930 . S
C440 C439 1.400 . S
C440 C443 1.386 . S
H441 C457 0.930 . S
H442 C458 0.931 . S
C443 H431 0.929 . S
C443 C437 1.390 . S
C443 C440 1.386 . S
C444 C439 1.490 . S
C444 C446 1.395 . S
C444 C447 1.403 . S
H445 C451 0.930 . S
C446 H432 0.930 . S
C446 C444 1.395 . S
C446 C449 1.403 . S
C447 C444 1.403 . S
C447 C448 1.524 . S
C447 C451 1.400 . S
C448 H433 0.960 . S
C448 H434 0.960 . S
C448 H435 0.960 . S
C448 C447 1.524 . S
C449 C446 1.403 . S
C449 C450 1.392 . S
C449 C453 1.495 . S
C450 C449 1.392 . S
C450 C451 1.385 . S
C450 C452 1.478 . S
C451 H445 0.930 . S
C451 C447 1.400 . S
C451 C450 1.385 . S
C452 C450 1.478 . S
C452 C454 1.381 . S
C452 C458 1.383 . S
C453 C449 1.495 . S
C453 H459 0.959 . S
C453 H460 0.961 . S
C453 H461 0.960 . S
C454 C452 1.381 . S
C454 C455 1.394 . S
C454 H462 0.930 . S
C455 C454 1.394 . S
C455 C456 1.383 . S
C455 H463 0.929 . S
C456 C455 1.383 . S
C456 C457 1.377 . S
C457 H441 0.930 . S
C457 C456 1.377 . S
C457 C458 1.379 . S
C458 H442 0.931 . S
C458 C452 1.383 . S
C458 C457 1.379 . S
H459 C453 0.959 . S
H460 C453 0.961 . S
H461 C453 0.960 . S
H462 C454 0.930 . S
H463 C455 0.929 . S
H464 C472 0.929 . S
H465 C474 0.930 . S
H466 C476 0.930 . S
H467 C479 0.929 . S
H468 C482 0.930 . S
H469 C484 0.960 . S
H470 C484 0.960 . S
H471 C484 0.960 . S
C472 H464 0.929 . S
C472 C473 1.377 . S
C472 C474 1.384 . S
C473 C472 1.377 . S
C473 C479 1.390 . S
C474 H465 0.930 . S
C474 C472 1.384 . S
C474 C475 1.372 . S
C475 C474 1.372 . S
C475 C476 1.400 . S
C475 C480 1.490 . S
C476 H466 0.930 . S
C476 C475 1.400 . S
C476 C479 1.386 . S
H477 C493 0.930 . S
H478 C494 0.931 . S
C479 H467 0.929 . S
C479 C473 1.390 . S
C479 C476 1.386 . S
C480 C475 1.490 . S
C480 C482 1.395 . S
C480 C483 1.403 . S
H481 C487 0.930 . S
C482 H468 0.930 . S
C482 C480 1.395 . S
C482 C485 1.403 . S
C483 C480 1.403 . S
C483 C484 1.524 . S
C483 C487 1.400 . S
C484 H469 0.960 . S
C484 H470 0.960 . S
C484 H471 0.960 . S
C484 C483 1.524 . S
C485 C482 1.403 . S
C485 C486 1.392 . S
C485 C489 1.495 . S
C486 C485 1.392 . S
C486 C487 1.385 . S
C486 C488 1.478 . S
C487 H481 0.930 . S
C487 C483 1.400 . S
C487 C486 1.385 . S
C488 C486 1.478 . S
C488 C490 1.381 . S
C488 C494 1.383 . S
C489 C485 1.495 . S
C489 H495 0.959 . S
C489 H496 0.961 . S
C489 H497 0.960 . S
C490 C488 1.381 . S
C490 C491 1.394 . S
C490 H498 0.930 . S
C491 C490 1.394 . S
C491 C492 1.383 . S
C491 H499 0.929 . S
C492 C491 1.383 . S
C492 C493 1.377 . S
C493 H477 0.930 . S
C493 C492 1.377 . S
C493 C494 1.379 . S
C494 H478 0.931 . S
C494 C488 1.383 . S
C494 C493 1.379 . S
H495 C489 0.959 . S
H496 C489 0.961 . S
H497 C489 0.960 . S
H498 C490 0.930 . S
H499 C491 0.929 . S
H500 C508 0.929 . S
H501 C510 0.930 . S
H502 C512 0.930 . S
H503 C515 0.929 . S
H504 C518 0.930 . S
H505 C520 0.960 . S
H506 C520 0.960 . S
H507 C520 0.960 . S
C508 H500 0.929 . S
C508 C509 1.377 . S
C508 C510 1.384 . S
C509 C508 1.377 . S
C509 C515 1.390 . S
C510 H501 0.930 . S
C510 C508 1.384 . S
C510 C511 1.372 . S
C511 C510 1.372 . S
C511 C512 1.400 . S
C511 C516 1.490 . S
C512 H502 0.930 . S
C512 C511 1.400 . S
C512 C515 1.386 . S
H513 C529 0.930 . S
H514 C530 0.931 . S
C515 H503 0.929 . S
C515 C509 1.390 . S
C515 C512 1.386 . S
C516 C511 1.490 . S
C516 C518 1.395 . S
C516 C519 1.403 . S
H517 C523 0.930 . S
C518 H504 0.930 . S
C518 C516 1.395 . S
C518 C521 1.403 . S
C519 C516 1.403 . S
C519 C520 1.524 . S
C519 C523 1.400 . S
C520 H505 0.960 . S
C520 H506 0.960 . S
C520 H507 0.960 . S
C520 C519 1.524 . S
C521 C518 1.403 . S
C521 C522 1.392 . S
C521 C525 1.495 . S
C522 C521 1.392 . S
C522 C523 1.385 . S
C522 C524 1.478 . S
C523 H517 0.930 . S
C523 C519 1.400 . S
C523 C522 1.385 . S
C524 C522 1.478 . S
C524 C526 1.381 . S
C524 C530 1.383 . S
C525 C521 1.495 . S
C525 H531 0.959 . S
C525 H532 0.961 . S
C525 H533 0.960 . S
C526 C524 1.381 . S
C526 C527 1.394 . S
C526 H534 0.930 . S
C527 C526 1.394 . S
C527 C528 1.383 . S
C527 H535 0.929 . S
C528 C527 1.383 . S
C528 C529 1.377 . S
C529 H513 0.930 . S
C529 C528 1.377 . S
C529 C530 1.379 . S
C530 H514 0.931 . S
C530 C524 1.383 . S
C530 C529 1.379 . S
H531 C525 0.959 . S
H532 C525 0.961 . S
H533 C525 0.960 . S
H534 C526 0.930 . S
H535 C527 0.929 . S
H536 C544 0.929 . S
H537 C546 0.930 . S
H538 C548 0.930 . S
H539 C551 0.929 . S
H540 C554 0.930 . S
H541 C556 0.960 . S
H542 C556 0.960 . S
H543 C556 0.960 . S
C544 H536 0.929 . S
C544 C545 1.377 . S
C544 C546 1.384 . S
C545 C544 1.377 . S
C545 C551 1.390 . S
C546 H537 0.930 . S
C546 C544 1.384 . S
C546 C547 1.372 . S
C547 C546 1.372 . S
C547 C548 1.400 . S
C547 C552 1.490 . S
C548 H538 0.930 . S
C548 C547 1.400 . S
C548 C551 1.386 . S
H549 C565 0.930 . S
H550 C566 0.931 . S
C551 H539 0.929 . S
C551 C545 1.390 . S
C551 C548 1.386 . S
C552 C547 1.490 . S
C552 C554 1.395 . S
C552 C555 1.403 . S
H553 C559 0.930 . S
C554 H540 0.930 . S
C554 C552 1.395 . S
C554 C557 1.403 . S
C555 C552 1.403 . S
C555 C556 1.524 . S
C555 C559 1.400 . S
C556 H541 0.960 . S
C556 H542 0.960 . S
C556 H543 0.960 . S
C556 C555 1.524 . S
C557 C554 1.403 . S
C557 C558 1.392 . S
C557 C561 1.495 . S
C558 C557 1.392 . S
C558 C559 1.385 . S
C558 C560 1.478 . S
C559 H553 0.930 . S
C559 C555 1.400 . S
C559 C558 1.385 . S
C560 C558 1.478 . S
C560 C562 1.381 . S
C560 C566 1.383 . S
C561 C557 1.495 . S
C561 H567 0.959 . S
C561 H568 0.961 . S
C561 H569 0.960 . S
C562 C560 1.381 . S
C562 C563 1.394 . S
C562 H570 0.930 . S
C563 C562 1.394 . S
C563 C564 1.383 . S
C563 H571 0.929 . S
C564 C563 1.383 . S
C564 C565 1.377 . S
C565 H549 0.930 . S
C565 C564 1.377 . S
C565 C566 1.379 . S
C566 H550 0.931 . S
C566 C560 1.383 . S
C566 C565 1.379 . S
H567 C561 0.959 . S
H568 C561 0.961 . S
H569 C561 0.960 . S
H570 C562 0.930 . S
H571 C563 0.929 . S
H572 C580 0.929 . S
H573 C582 0.930 . S
H574 C584 0.930 . S
H575 C587 0.929 . S
H576 C590 0.930 . S
H577 C592 0.960 . S
H578 C592 0.960 . S
H579 C592 0.960 . S
C580 H572 0.929 . S
C580 C581 1.377 . S
C580 C582 1.384 . S
C581 C580 1.377 . S
C581 C587 1.390 . S
C582 H573 0.930 . S
C582 C580 1.384 . S
C582 C583 1.372 . S
C583 C582 1.372 . S
C583 C584 1.400 . S
C583 C588 1.490 . S
C584 H574 0.930 . S
C584 C583 1.400 . S
C584 C587 1.386 . S
H585 C601 0.930 . S
H586 C602 0.931 . S
C587 H575 0.929 . S
C587 C581 1.390 . S
C587 C584 1.386 . S
C588 C583 1.490 . S
C588 C590 1.395 . S
C588 C591 1.403 . S
H589 C595 0.930 . S
C590 H576 0.930 . S
C590 C588 1.395 . S
C590 C593 1.403 . S
C591 C588 1.403 . S
C591 C592 1.524 . S
C591 C595 1.400 . S
C592 H577 0.960 . S
C592 H578 0.960 . S
C592 H579 0.960 . S
C592 C591 1.524 . S
C593 C590 1.403 . S
C593 C594 1.392 . S
C593 C597 1.495 . S
C594 C593 1.392 . S
C594 C595 1.385 . S
C594 C596 1.478 . S
C595 H589 0.930 . S
C595 C591 1.400 . S
C595 C594 1.385 . S
C596 C594 1.478 . S
C596 C598 1.381 . S
C596 C602 1.383 . S
C597 C593 1.495 . S
C597 H603 0.959 . S
C597 H604 0.961 . S
C597 H605 0.960 . S
C598 C596 1.381 . S
C598 C599 1.394 . S
C598 H606 0.930 . S
C599 C598 1.394 . S
C599 C600 1.383 . S
C599 H607 0.929 . S
C600 C599 1.383 . S
C600 C601 1.377 . S
C601 H585 0.930 . S
C601 C600 1.377 . S
C601 C602 1.379 . S
C602 H586 0.931 . S
C602 C596 1.383 . S
C602 C601 1.379 . S
H603 C597 0.959 . S
H604 C597 0.961 . S
H605 C597 0.960 . S
H606 C598 0.930 . S
H607 C599 0.929 . S
H608 C616 0.929 . S
H609 C618 0.930 . S
H610 C620 0.930 . S
H611 C623 0.929 . S
H612 C626 0.930 . S
H613 C628 0.960 1_554 S
H614 C628 0.960 1_554 S
H615 C628 0.960 . S
C616 H608 0.929 . S
C616 C617 1.377 . S
C616 C618 1.384 . S
C617 C616 1.377 . S
C617 C623 1.390 . S
C618 H609 0.930 . S
C618 C616 1.384 . S
C618 C619 1.372 . S
C619 C618 1.372 . S
C619 C620 1.400 . S
C619 C624 1.490 . S
C620 H610 0.930 . S
C620 C619 1.400 . S
C620 C623 1.386 . S
H621 C637 0.930 . S
H622 C638 0.932 . S
C623 H611 0.929 . S
C623 C617 1.390 . S
C623 C620 1.386 . S
C624 C619 1.490 . S
C624 C626 1.395 . S
C624 C627 1.403 . S
H625 C631 0.930 . S
C626 H612 0.930 . S
C626 C624 1.395 . S
C626 C629 1.403 . S
C627 C624 1.403 . S
C627 C628 1.524 . S
C627 C631 1.400 1_556 S
C628 H613 0.960 1_556 S
C628 H614 0.960 1_556 S
C628 H615 0.960 . S
C628 C627 1.524 . S
C629 C626 1.403 . S
C629 C630 1.377 1_556 S
C629 C633 1.495 . S
C630 C629 1.377 1_554 S
C630 C631 1.389 . S
C630 C632 1.490 . S
C631 H625 0.930 . S
C631 C627 1.400 1_554 S
C631 C630 1.389 . S
C632 C630 1.490 . S
C632 C634 1.381 . S
C632 C638 1.382 1_554 S
C633 C629 1.495 . S
C633 H639 0.959 . S
C633 H640 0.961 . S
C633 H641 0.960 1_556 S
C634 C632 1.381 . S
C634 C635 1.394 . S
C634 H642 0.930 . S
C635 C634 1.394 . S
C635 C636 1.383 . S
C635 H643 0.929 . S
C636 C635 1.383 . S
C636 C637 1.377 . S
C637 H621 0.930 . S
C637 C636 1.377 . S
C637 C638 1.379 1_554 S
C638 H622 0.932 . S
C638 C632 1.382 1_556 S
C638 C637 1.379 1_556 S
H639 C633 0.959 . S
H640 C633 0.961 . S
H641 C633 0.960 1_554 S
H642 C634 0.930 . S
H643 C635 0.929 . S
H644 C652 0.929 . S
H645 C654 0.930 . S
H646 C656 0.930 . S
H647 C659 0.929 1_554 S
H648 C662 0.930 1_556 S
H649 C664 0.960 1_554 S
H650 C664 0.960 . S
H651 C664 0.960 1_554 S
C652 H644 0.929 . S
C652 C653 1.377 . S
C652 C654 1.384 . S
C653 C652 1.377 . S
C653 C659 1.390 . S
C654 H645 0.930 . S
C654 C652 1.384 . S
C654 C655 1.372 . S
C655 C654 1.372 . S
C655 C656 1.400 1_556 S
C655 C660 1.490 . S
C656 H646 0.930 . S
C656 C655 1.400 1_554 S
C656 C659 1.386 1_554 S
H657 C673 0.930 . S
H658 C674 0.931 . S
C659 H647 0.929 1_556 S
C659 C653 1.390 . S
C659 C656 1.386 1_556 S
C660 C655 1.490 . S
C660 C662 1.395 1_556 S
C660 C663 1.403 1_556 S
H661 C667 0.930 . S
C662 H648 0.930 1_554 S
C662 C660 1.395 1_554 S
C662 C665 1.403 . S
C663 C660 1.403 1_554 S
C663 C664 1.524 1_554 S
C663 C667 1.400 . S
C664 H649 0.960 1_556 S
C664 H650 0.960 . S
C664 H651 0.960 1_556 S
C664 C663 1.524 1_556 S
C665 C662 1.403 . S
C665 C666 1.392 . S
C665 C669 1.495 . S
C666 C665 1.392 . S
C666 C667 1.385 . S
C666 C668 1.478 . S
C667 H661 0.930 . S
C667 C663 1.400 . S
C667 C666 1.385 . S
C668 C666 1.478 . S
C668 C670 1.381 . S
C668 C674 1.383 . S
C669 C665 1.495 . S
C669 H675 0.959 . S
C669 H676 0.961 . S
C669 H677 0.960 . S
C670 C668 1.381 . S
C670 C671 1.394 . S
C670 H678 0.930 1_554 S
C671 C670 1.394 . S
C671 C672 1.383 . S
C671 H679 0.929 . S
C672 C671 1.383 . S
C672 C673 1.377 . S
C673 H657 0.930 . S
C673 C672 1.377 . S
C673 C674 1.379 . S
C674 H658 0.931 . S
C674 C668 1.383 . S
C674 C673 1.379 . S
H675 C669 0.959 . S
H676 C669 0.961 . S
H677 C669 0.960 . S
H678 C670 0.930 1_556 S
H679 C671 0.929 . S
H680 C688 0.929 . S
H681 C690 0.930 . S
H682 C692 0.930 1_556 S
H683 C695 0.929 . S
H684 C698 0.930 . S
H685 C700 0.960 . S
H686 C700 0.960 . S
H687 C700 0.960 . S
C688 H680 0.929 . S
C688 C689 1.377 . S
C688 C690 1.384 . S
C689 C688 1.377 . S
C689 C695 1.390 . S
C690 H681 0.930 . S
C690 C688 1.384 . S
C690 C691 1.372 . S
C691 C690 1.372 . S
C691 C692 1.400 . S
C691 C696 1.490 . S
C692 H682 0.930 1_554 S
C692 C691 1.400 . S
C692 C695 1.386 . S
H693 C709 0.930 . S
H694 C710 0.931 . S
C695 H683 0.929 . S
C695 C689 1.390 . S
C695 C692 1.386 . S
C696 C691 1.490 . S
C696 C698 1.395 . S
C696 C699 1.403 1_554 S
H697 C703 0.930 . S
C698 H684 0.930 . S
C698 C696 1.395 . S
C698 C701 1.403 . S
C699 C696 1.403 1_556 S
C699 C700 1.524 . S
C699 C703 1.400 . S
C700 H685 0.960 . S
C700 H686 0.960 . S
C700 H687 0.960 . S
C700 C699 1.524 . S
C701 C698 1.403 . S
C701 C702 1.392 1_554 S
C701 C705 1.495 . S
C702 C701 1.392 1_556 S
C702 C703 1.385 . S
C702 C704 1.478 . S
C703 H697 0.930 . S
C703 C699 1.400 . S
C703 C702 1.385 . S
C704 C702 1.478 . S
C704 C706 1.381 . S
C704 C710 1.383 . S
C705 C701 1.495 . S
C705 H711 0.959 . S
C705 H712 0.961 . S
C705 H713 0.960 . S
C706 C704 1.381 . S
C706 C707 1.394 . S
C706 H714 0.930 . S
C707 C706 1.394 . S
C707 C708 1.383 . S
C707 H715 0.929 . S
C708 C707 1.383 . S
C708 C709 1.377 . S
C709 H693 0.930 . S
C709 C708 1.377 . S
C709 C710 1.379 . S
C710 H694 0.931 . S
C710 C704 1.383 . S
C710 C709 1.379 . S
H711 C705 0.959 . S
H712 C705 0.961 . S
H713 C705 0.960 . S
H714 C706 0.930 . S
H715 C707 0.929 . S
H716 C724 0.929 . S
H717 C726 0.930 . S
H718 C728 0.930 . S
H719 C731 0.929 1_554 S
H720 C734 0.924 1_556 S
H721 C736 0.957 1_554 S
H722 C736 0.970 . S
H723 C736 0.955 1_554 S
C724 H716 0.929 . S
C724 C725 1.377 . S
C724 C726 1.384 . S
C725 C724 1.377 . S
C725 C731 1.390 . S
C726 H717 0.930 . S
C726 C724 1.384 . S
C726 C727 1.372 . S
C727 C726 1.372 . S
C727 C728 1.400 1_556 S
C727 C732 1.490 . S
C728 H718 0.930 . S
C728 C727 1.400 1_554 S
C728 C731 1.386 1_554 S
H729 C745 0.930 . S
H730 C746 0.931 . S
C731 H719 0.929 1_556 S
C731 C725 1.390 . S
C731 C728 1.386 1_556 S
C732 C727 1.490 . S
C732 C734 1.392 1_556 S
C732 C735 1.403 1_556 S
H733 C739 0.930 . S
C734 H720 0.924 1_554 S
C734 C732 1.392 1_554 S
C734 C737 1.413 . S
C735 C732 1.403 1_554 S
C735 C736 1.522 1_554 S
C735 C739 1.400 . S
C736 H721 0.957 1_556 S
C736 H722 0.970 . S
C736 H723 0.955 1_556 S
C736 C735 1.522 1_556 S
C737 C734 1.413 . S
C737 C738 1.392 . S
C737 C741 1.495 . S
C738 C737 1.392 . S
C738 C739 1.385 . S
C738 C740 1.478 . S
C739 H733 0.930 . S
C739 C735 1.400 . S
C739 C738 1.385 . S
C740 C738 1.478 . S
C740 C742 1.381 . S
C740 C746 1.383 . S
C741 C737 1.495 . S
C741 H747 0.959 . S
C741 H748 0.961 . S
C741 H749 0.960 . S
C742 C740 1.381 . S
C742 C743 1.394 . S
C742 H750 0.930 1_554 S
C743 C742 1.394 . S
C743 C744 1.383 . S
C743 H751 0.929 . S
C744 C743 1.383 . S
C744 C745 1.377 . S
C745 H729 0.930 . S
C745 C744 1.377 . S
C745 C746 1.379 . S
C746 H730 0.931 . S
C746 C740 1.383 . S
C746 C745 1.379 . S
H747 C741 0.959 . S
H748 C741 0.961 . S
H749 C741 0.960 . S
H750 C742 0.930 1_556 S
H751 C743 0.929 . S
H752 C760 0.929 . S
H753 C762 0.930 . S
H754 C764 0.930 . S
H755 C767 0.929 . S
H756 C770 0.930 . S
H757 C772 0.960 . S
H758 C772 0.960 . S
H759 C772 0.960 . S
C760 H752 0.929 . S
C760 C761 1.377 . S
C760 C762 1.384 . S
C761 C760 1.377 . S
C761 C767 1.390 . S
C762 H753 0.930 . S
C762 C760 1.384 . S
C762 C763 1.372 . S
C763 C762 1.372 . S
C763 C764 1.400 . S
C763 C768 1.490 . S
C764 H754 0.930 . S
C764 C763 1.400 . S
C764 C767 1.386 . S
H765 C781 0.930 . S
H766 C782 0.931 . S
C767 H755 0.929 . S
C767 C761 1.390 . S
C767 C764 1.386 . S
C768 C763 1.490 . S
C768 C770 1.395 . S
C768 C771 1.403 . S
H769 C775 0.930 . S
C770 H756 0.930 . S
C770 C768 1.395 . S
C770 C773 1.403 . S
C771 C768 1.403 . S
C771 C772 1.524 . S
C771 C775 1.400 . S
C772 H757 0.960 . S
C772 H758 0.960 . S
C772 H759 0.960 . S
C772 C771 1.524 . S
C773 C770 1.403 . S
C773 C774 1.392 . S
C773 C777 1.495 . S
C774 C773 1.392 . S
C774 C775 1.385 . S
C774 C776 1.478 . S
C775 H769 0.930 . S
C775 C771 1.400 . S
C775 C774 1.385 . S
C776 C774 1.478 . S
C776 C778 1.381 . S
C776 C782 1.383 . S
C777 C773 1.495 . S
C777 H783 0.959 . S
C777 H784 0.961 . S
C777 H785 0.960 . S
C778 C776 1.381 . S
C778 C779 1.394 . S
C778 H786 0.930 . S
C779 C778 1.394 . S
C779 C780 1.383 . S
C779 H787 0.929 . S
C780 C779 1.383 . S
C780 C781 1.377 . S
C781 H765 0.930 . S
C781 C780 1.377 . S
C781 C782 1.379 . S
C782 H766 0.931 . S
C782 C776 1.383 . S
C782 C781 1.379 . S
H783 C777 0.959 . S
H784 C777 0.961 . S
H785 C777 0.960 . S
H786 C778 0.930 . S
H787 C779 0.929 . S
H788 C796 0.929 . S
H789 C798 0.930 . S
H790 C800 0.930 . S
H791 C803 0.929 . S
H792 C806 0.930 . S
H793 C808 0.960 . S
H794 C808 0.960 . S
H795 C808 0.960 . S
C796 H788 0.929 . S
C796 C797 1.377 . S
C796 C798 1.384 . S
C797 C796 1.377 . S
C797 C803 1.390 . S
C798 H789 0.930 . S
C798 C796 1.384 . S
C798 C799 1.372 . S
C799 C798 1.372 . S
C799 C800 1.400 . S
C799 C804 1.490 . S
C800 H790 0.930 . S
C800 C799 1.400 . S
C800 C803 1.386 . S
H801 C817 0.930 . S
H802 C818 0.931 . S
C803 H791 0.929 . S
C803 C797 1.390 . S
C803 C800 1.386 . S
C804 C799 1.490 . S
C804 C806 1.395 . S
C804 C807 1.403 . S
H805 C811 0.930 . S
C806 H792 0.930 . S
C806 C804 1.395 . S
C806 C809 1.403 . S
C807 C804 1.403 . S
C807 C808 1.524 . S
C807 C811 1.400 . S
C808 H793 0.960 . S
C808 H794 0.960 . S
C808 H795 0.960 . S
C808 C807 1.524 . S
C809 C806 1.403 . S
C809 C810 1.392 . S
C809 C813 1.495 . S
C810 C809 1.392 . S
C810 C811 1.385 . S
C810 C812 1.478 . S
C811 H805 0.930 . S
C811 C807 1.400 . S
C811 C810 1.385 . S
C812 C810 1.478 . S
C812 C814 1.381 . S
C812 C818 1.383 . S
C813 C809 1.495 . S
C813 H819 0.959 . S
C813 H820 0.961 . S
C813 H821 0.960 . S
C814 C812 1.381 . S
C814 C815 1.394 . S
C814 H822 0.930 . S
C815 C814 1.394 . S
C815 C816 1.383 . S
C815 H823 0.929 . S
C816 C815 1.383 . S
C816 C817 1.377 . S
C817 H801 0.930 . S
C817 C816 1.377 . S
C817 C818 1.379 . S
C818 H802 0.931 . S
C818 C812 1.383 . S
C818 C817 1.379 . S
H819 C813 0.959 . S
H820 C813 0.961 . S
H821 C813 0.960 . S
H822 C814 0.930 . S
H823 C815 0.929 . S
H824 C832 0.929 . S
H825 C834 0.930 . S
H826 C836 0.930 . S
H827 C839 0.929 . S
H828 C842 0.930 . S
H829 C844 0.960 . S
H830 C844 0.960 . S
H831 C844 0.960 . S
C832 H824 0.929 . S
C832 C833 1.377 . S
C832 C834 1.384 . S
C833 C832 1.377 . S
C833 C839 1.390 . S
C834 H825 0.930 . S
C834 C832 1.384 . S
C834 C835 1.372 . S
C835 C834 1.372 . S
C835 C836 1.400 . S
C835 C840 1.490 . S
C836 H826 0.930 . S
C836 C835 1.400 . S
C836 C839 1.386 . S
H837 C853 0.930 . S
H838 C854 0.931 . S
C839 H827 0.929 . S
C839 C833 1.390 . S
C839 C836 1.386 . S
C840 C835 1.490 . S
C840 C842 1.395 . S
C840 C843 1.403 . S
H841 C847 0.930 . S
C842 H828 0.930 . S
C842 C840 1.395 . S
C842 C845 1.403 . S
C843 C840 1.403 . S
C843 C844 1.524 . S
C843 C847 1.400 . S
C844 H829 0.960 . S
C844 H830 0.960 . S
C844 H831 0.960 . S
C844 C843 1.524 . S
C845 C842 1.403 . S
C845 C846 1.392 . S
C845 C849 1.495 . S
C846 C845 1.392 . S
C846 C847 1.385 . S
C846 C848 1.478 . S
C847 H841 0.930 . S
C847 C843 1.400 . S
C847 C846 1.385 . S
C848 C846 1.478 . S
C848 C850 1.381 . S
C848 C854 1.383 . S
C849 C845 1.495 . S
C849 H855 0.959 . S
C849 H856 0.961 . S
C849 H857 0.960 . S
C850 C848 1.381 . S
C850 C851 1.394 . S
C850 H858 0.930 . S
C851 C850 1.394 . S
C851 C852 1.383 . S
C851 H859 0.929 . S
C852 C851 1.383 . S
C852 C853 1.377 . S
C853 H837 0.930 . S
C853 C852 1.377 . S
C853 C854 1.379 . S
C854 H838 0.931 . S
C854 C848 1.383 . S
C854 C853 1.379 . S
H855 C849 0.959 . S
H856 C849 0.961 . S
H857 C849 0.960 . S
H858 C850 0.930 . S
H859 C851 0.929 . S
H860 C868 0.929 . S
H861 C870 0.930 . S
H862 C872 0.930 . S
H863 C875 0.929 . S
H864 C878 0.930 . S
H865 C880 0.960 . S
H866 C880 0.960 . S
H867 C880 0.960 . S
C868 H860 0.929 . S
C868 C869 1.377 . S
C868 C870 1.384 . S
C869 C868 1.377 . S
C869 C875 1.390 . S
C870 H861 0.930 . S
C870 C868 1.384 . S
C870 C871 1.372 . S
C871 C870 1.372 . S
C871 C872 1.400 . S
C871 C876 1.490 . S
C872 H862 0.930 . S
C872 C871 1.400 . S
C872 C875 1.386 . S
H873 C889 0.930 . S
H874 C890 0.931 . S
C875 H863 0.929 . S
C875 C869 1.390 . S
C875 C872 1.386 . S
C876 C871 1.490 . S
C876 C878 1.395 . S
C876 C879 1.403 . S
H877 C883 0.930 . S
C878 H864 0.930 . S
C878 C876 1.395 . S
C878 C881 1.403 . S
C879 C876 1.403 . S
C879 C880 1.524 . S
C879 C883 1.400 . S
C880 H865 0.960 . S
C880 H866 0.960 . S
C880 H867 0.960 . S
C880 C879 1.524 . S
C881 C878 1.403 . S
C881 C882 1.392 . S
C881 C885 1.495 . S
C882 C881 1.392 . S
C882 C883 1.385 . S
C882 C884 1.478 . S
C883 H877 0.930 . S
C883 C879 1.400 . S
C883 C882 1.385 . S
C884 C882 1.478 . S
C884 C886 1.381 . S
C884 C890 1.383 . S
C885 C881 1.495 . S
C885 H891 0.959 . S
C885 H892 0.961 . S
C885 H893 0.960 . S
C886 C884 1.381 . S
C886 C887 1.394 . S
C886 H894 0.930 . S
C887 C886 1.394 . S
C887 C888 1.383 . S
C887 H895 0.929 . S
C888 C887 1.383 . S
C888 C889 1.377 . S
C889 H873 0.930 . S
C889 C888 1.377 . S
C889 C890 1.379 . S
C890 H874 0.931 . S
C890 C884 1.383 . S
C890 C889 1.379 . S
H891 C885 0.959 . S
H892 C885 0.961 . S
H893 C885 0.960 . S
H894 C886 0.930 . S
H895 C887 0.929 . S
H896 C904 0.929 . S
H897 C906 0.930 . S
H898 C908 0.930 . S
H899 C911 0.929 . S
H900 C914 0.930 . S
H901 C916 0.960 . S
H902 C916 0.960 . S
H903 C916 0.960 . S
C904 H896 0.929 . S
C904 C905 1.377 . S
C904 C906 1.384 . S
C905 C904 1.377 . S
C905 C911 1.390 . S
C906 H897 0.930 . S
C906 C904 1.384 . S
C906 C907 1.372 . S
C907 C906 1.372 . S
C907 C908 1.400 . S
C907 C912 1.490 . S
C908 H898 0.930 . S
C908 C907 1.400 . S
C908 C911 1.386 . S
H909 C925 0.930 . S
H910 C926 0.931 . S
C911 H899 0.929 . S
C911 C905 1.390 . S
C911 C908 1.386 . S
C912 C907 1.490 . S
C912 C914 1.395 . S
C912 C915 1.403 . S
H913 C919 0.930 . S
C914 H900 0.930 . S
C914 C912 1.395 . S
C914 C917 1.403 1_545 S
C915 C912 1.403 . S
C915 C916 1.524 . S
C915 C919 1.400 1_545 S
C916 H901 0.960 . S
C916 H902 0.960 . S
C916 H903 0.960 . S
C916 C915 1.524 . S
C917 C914 1.403 1_565 S
C917 C918 1.392 . S
C917 C921 1.495 . S
C918 C917 1.392 . S
C918 C919 1.385 . S
C918 C920 1.478 . S
C919 H913 0.930 . S
C919 C915 1.400 1_565 S
C919 C918 1.385 . S
C920 C918 1.478 . S
C920 C922 1.381 . S
C920 C926 1.383 . S
C921 C917 1.495 . S
C921 H927 0.959 . S
C921 H928 0.961 . S
C921 H929 0.960 . S
C922 C920 1.381 . S
C922 C923 1.394 . S
C922 H930 0.930 . S
C923 C922 1.394 . S
C923 C924 1.383 . S
C923 H931 0.929 . S
C924 C923 1.383 . S
C924 C925 1.377 . S
C925 H909 0.930 . S
C925 C924 1.377 . S
C925 C926 1.379 . S
C926 H910 0.931 . S
C926 C920 1.383 . S
C926 C925 1.379 . S
H927 C921 0.959 . S
H928 C921 0.961 . S
H929 C921 0.960 . S
H930 C922 0.930 . S
H931 C923 0.929 . S
H932 C940 0.929 . S
H933 C942 0.930 . S
H934 C944 0.930 . S
H935 C947 0.929 . S
H936 C950 0.931 . S
H937 C952 0.960 . S
H938 C952 0.960 . S
H939 C952 0.960 . S
C940 H932 0.929 . S
C940 C941 1.377 . S
C940 C942 1.384 . S
C941 C940 1.377 . S
C941 C947 1.390 . S
C942 H933 0.930 . S
C942 C940 1.384 . S
C942 C943 1.372 . S
C943 C942 1.372 . S
C943 C944 1.400 . S
C943 C948 1.490 . S
C944 H934 0.930 . S
C944 C943 1.400 . S
C944 C947 1.386 . S
H945 C961 0.930 . S
H946 C962 0.931 . S
C947 H935 0.929 . S
C947 C941 1.390 . S
C947 C944 1.386 . S
C948 C943 1.490 . S
C948 C950 1.403 . S
C948 C951 1.403 . S
H949 C955 0.930 . S
C950 H936 0.931 . S
C950 C948 1.403 . S
C950 C953 1.394 1_655 S
C951 C948 1.403 . S
C951 C952 1.524 . S
C951 C955 1.400 1_655 S
C952 H937 0.960 . S
C952 H938 0.960 . S
C952 H939 0.960 . S
C952 C951 1.524 . S
C953 C950 1.394 1_455 S
C953 C954 1.392 . S
C953 C957 1.495 . S
C954 C953 1.392 . S
C954 C955 1.385 . S
C954 C956 1.478 . S
C955 H949 0.930 . S
C955 C951 1.400 1_455 S
C955 C954 1.385 . S
C956 C954 1.478 . S
C956 C958 1.381 . S
C956 C962 1.383 . S
C957 C953 1.495 . S
C957 H963 0.959 . S
C957 H964 0.961 . S
C957 H965 0.960 . S
C958 C956 1.381 . S
C958 C959 1.394 . S
C958 H966 0.930 . S
C959 C958 1.394 . S
C959 C960 1.383 . S
C959 H967 0.929 . S
C960 C959 1.383 . S
C960 C961 1.377 . S
C961 H945 0.930 . S
C961 C960 1.377 . S
C961 C962 1.379 . S
C962 H946 0.931 . S
C962 C956 1.383 . S
C962 C961 1.379 . S
H963 C957 0.959 . S
H964 C957 0.961 . S
H965 C957 0.960 . S
H966 C958 0.930 . S
H967 C959 0.929 . S
H968 C976 0.929 . S
H969 C978 0.930 . S
H970 C980 0.930 . S
H971 C983 0.929 . S
H972 C986 0.930 . S
H973 C988 0.960 . S
H974 C988 0.960 1_565 S
H975 C988 0.960 1_565 S
C976 H968 0.929 . S
C976 C977 1.377 . S
C976 C978 1.384 . S
C977 C976 1.377 . S
C977 C983 1.390 . S
C978 H969 0.930 . S
C978 C976 1.384 . S
C978 C979 1.372 . S
C979 C978 1.372 . S
C979 C980 1.400 . S
C979 C984 1.490 . S
C980 H970 0.930 . S
C980 C979 1.400 . S
C980 C983 1.386 . S
H981 C997 0.930 . S
H982 C998 0.931 . S
C983 H971 0.929 . S
C983 C977 1.390 . S
C983 C980 1.386 . S
C984 C979 1.490 . S
C984 C986 1.395 . S
C984 C987 1.413 . S
H985 C991 0.930 . S
C986 H972 0.930 . S
C986 C984 1.395 . S
C986 C989 1.403 . S
C987 C984 1.413 . S
C987 C988 1.523 1_565 S
C987 C991 1.390 1_565 S
C988 H973 0.960 . S
C988 H974 0.960 1_545 S
C988 H975 0.960 1_545 S
C988 C987 1.523 1_545 S
C989 C986 1.403 . S
C989 C990 1.392 1_565 S
C989 C993 1.495 . S
C990 C989 1.392 1_545 S
C990 C991 1.385 . S
C990 C992 1.478 . S
C991 H985 0.930 . S
C991 C987 1.390 1_545 S
C991 C990 1.385 . S
C992 C990 1.478 . S
C992 C994 1.381 . S
C992 C998 1.383 . S
C993 C989 1.495 . S
C993 H999 0.959 . S
C993 H1000 0.961 1_565 S
C993 H1001 0.960 1_565 S
C994 C992 1.381 . S
C994 C995 1.394 . S
C994 H1002 0.930 . S
C995 C994 1.394 . S
C995 C996 1.383 . S
C995 H1003 0.929 . S
C996 C995 1.383 . S
C996 C997 1.377 . S
C997 H981 0.930 . S
C997 C996 1.377 . S
C997 C998 1.379 . S
C998 H982 0.931 . S
C998 C992 1.383 . S
C998 C997 1.379 . S
H999 C993 0.959 . S
H1000 C993 0.961 1_545 S
H1001 C993 0.960 1_545 S
H1002 C994 0.930 . S
H1003 C995 0.929 . S
H1004 C1012 0.929 . S
H1005 C1014 0.930 . S
H1006 C1016 0.930 . S
H1007 C1019 0.929 . S
H1008 C1022 0.930 . S
H1009 C1024 0.960 . S
H1010 C1024 0.960 . S
H1011 C1024 0.960 . S
C1012 H1004 0.929 . S
C1012 C1013 1.377 . S
C1012 C1014 1.384 . S
C1013 C1012 1.377 . S
C1013 C1019 1.390 . S
C1014 H1005 0.930 . S
C1014 C1012 1.384 . S
C1014 C1015 1.372 . S
C1015 C1014 1.372 . S
C1015 C1016 1.400 . S
C1015 C1020 1.490 . S
C1016 H1006 0.930 . S
C1016 C1015 1.400 . S
C1016 C1019 1.386 . S
H1017 C1033 0.930 . S
H1018 C1034 0.931 . S
C1019 H1007 0.929 . S
C1019 C1013 1.390 . S
C1019 C1016 1.386 . S
C1020 C1015 1.490 . S
C1020 C1022 1.395 . S
C1020 C1023 1.403 . S
H1021 C1027 0.930 . S
C1022 H1008 0.930 . S
C1022 C1020 1.395 . S
C1022 C1025 1.403 1_655 S
C1023 C1020 1.403 . S
C1023 C1024 1.524 . S
C1023 C1027 1.400 1_655 S
C1024 H1009 0.960 . S
C1024 H1010 0.960 . S
C1024 H1011 0.960 . S
C1024 C1023 1.524 . S
C1025 C1022 1.403 1_455 S
C1025 C1026 1.392 . S
C1025 C1029 1.495 . S
C1026 C1025 1.392 . S
C1026 C1027 1.385 . S
C1026 C1028 1.478 . S
C1027 H1021 0.930 . S
C1027 C1023 1.400 1_455 S
C1027 C1026 1.385 . S
C1028 C1026 1.478 . S
C1028 C1030 1.381 . S
C1028 C1034 1.383 . S
C1029 C1025 1.495 . S
C1029 H1035 0.959 . S
C1029 H1036 0.961 . S
C1029 H1037 0.960 . S
C1030 C1028 1.381 . S
C1030 C1031 1.394 . S
C1030 H1038 0.930 . S
C1031 C1030 1.394 . S
C1031 C1032 1.383 . S
C1031 H1039 0.929 . S
C1032 C1031 1.383 . S
C1032 C1033 1.377 . S
C1033 H1017 0.930 . S
C1033 C1032 1.377 . S
C1033 C1034 1.379 . S
C1034 H1018 0.931 . S
C1034 C1028 1.383 . S
C1034 C1033 1.379 . S
H1035 C1029 0.959 . S
H1036 C1029 0.961 . S
H1037 C1029 0.960 . S
H1038 C1030 0.930 . S
H1039 C1031 0.929 . S
C185 C116 1.029 . S
C204 C7 0.966 . S
C221 C27 1.010 . S
C240 C141 0.966 . S
C257 C160 1.029 . S
C276 C51 0.984 . S
C293 C71 1.010 . S
C312 C97 1.002 . S
C329 C96 1.367 . S
C348 C6 1.377 1_556 S
C365 C31 1.378 1_554 S
C384 C114 1.356 . S
C401 C50 1.378 1_556 S
C420 C140 1.355 . S
C437 C158 1.371 . S
C456 C75 1.377 1_554 S
C473 C8 1.371 . S
C492 C93 1.373 . S
C509 C117 1.378 . S
C528 C26 1.372 . S
C545 C52 1.369 . S
C564 C137 1.377 . S
C581 C70 1.370 . S
C600 C161 1.375 . S
C617 C30 0.893 . S
C636 C5 0.883 . S
C653 C29 0.881 . S
C672 C48 0.871 . S
C689 C49 0.883 . S
C708 C74 0.909 . S
C725 C73 0.881 . S
C744 C4 0.872 . S
C761 C94 0.890 . S
C780 C162 0.908 . S
C797 C92 0.886 . S
C816 C119 0.910 . S
C833 C138 0.889 . S
C852 C118 0.897 . S
C869 C163 0.890 . S
C888 C136 0.888 . S
C905 C9 1.419 . S
C924 C53 1.395 . S
C941 C72 1.404 . S
C960 C28 1.381 . S
C977 C139 1.420 . S
C996 C95 1.444 . S
C1013 C159 1.418 . S
C1032 C115 1.369 . S
