# Generated by pormake.
# Topology cag, (4)-cn, num edge types: 1
# Building blocks:
#     Node 0, Type 0, BuildingBlock: NAHDIM_clean_sbu_0, # of connection points: 4
#     Node 1, Type 0, BuildingBlock: NAHDIM_clean_sbu_0, # of connection points: 4
#     Node 2, Type 0, BuildingBlock: NAHDIM_clean_sbu_0, # of connection points: 4
#     Node 3, Type 0, BuildingBlock: NAHDIM_clean_sbu_0, # of connection points: 4
#     Node 4, Type 0, BuildingBlock: NAHDIM_clean_sbu_0, # of connection points: 4
#     Node 5, Type 0, BuildingBlock: NAHDIM_clean_sbu_0, # of connection points: 4
#     Node 6, Type 0, BuildingBlock: NAHDIM_clean_sbu_0, # of connection points: 4
#     Node 7, Type 0, BuildingBlock: NAHDIM_clean_sbu_0, # of connection points: 4
#     Node 8, Type 0, BuildingBlock: NAHDIM_clean_sbu_0, # of connection points: 4
#     Node 9, Type 0, BuildingBlock: NAHDIM_clean_sbu_0, # of connection points: 4
#     Node 10, Type 0, BuildingBlock: NAHDIM_clean_sbu_0, # of connection points: 4
#     Node 11, Type 0, BuildingBlock: NAHDIM_clean_sbu_0, # of connection points: 4
#     Node 12, Type 0, BuildingBlock: NAHDIM_clean_sbu_0, # of connection points: 4
#     Node 13, Type 0, BuildingBlock: NAHDIM_clean_sbu_0, # of connection points: 4
#     Node 14, Type 0, BuildingBlock: NAHDIM_clean_sbu_0, # of connection points: 4
#     Node 15, Type 0, BuildingBlock: NAHDIM_clean_sbu_0, # of connection points: 4
#     Edge 16, Type (0, 0), BuildingBlock: XUDNAN_clean_linker_2, # of connection points: 2
#     Edge 17, Type (0, 0), BuildingBlock: XUDNAN_clean_linker_2, # of connection points: 2
#     Edge 18, Type (0, 0), BuildingBlock: XUDNAN_clean_linker_2, # of connection points: 2
#     Edge 19, Type (0, 0), BuildingBlock: XUDNAN_clean_linker_2, # of connection points: 2
#     Edge 20, Type (0, 0), BuildingBlock: XUDNAN_clean_linker_2, # of connection points: 2
#     Edge 21, Type (0, 0), BuildingBlock: XUDNAN_clean_linker_2, # of connection points: 2
#     Edge 22, Type (0, 0), BuildingBlock: XUDNAN_clean_linker_2, # of connection points: 2
#     Edge 23, Type (0, 0), BuildingBlock: XUDNAN_clean_linker_2, # of connection points: 2
#     Edge 24, Type (0, 0), BuildingBlock: XUDNAN_clean_linker_2, # of connection points: 2
#     Edge 25, Type (0, 0), BuildingBlock: XUDNAN_clean_linker_2, # of connection points: 2
#     Edge 26, Type (0, 0), BuildingBlock: XUDNAN_clean_linker_2, # of connection points: 2
#     Edge 27, Type (0, 0), BuildingBlock: XUDNAN_clean_linker_2, # of connection points: 2
#     Edge 28, Type (0, 0), BuildingBlock: XUDNAN_clean_linker_2, # of connection points: 2
#     Edge 29, Type (0, 0), BuildingBlock: XUDNAN_clean_linker_2, # of connection points: 2
#     Edge 30, Type (0, 0), BuildingBlock: XUDNAN_clean_linker_2, # of connection points: 2
#     Edge 31, Type (0, 0), BuildingBlock: XUDNAN_clean_linker_2, # of connection points: 2
#     Edge 32, Type (0, 0), BuildingBlock: XUDNAN_clean_linker_2, # of connection points: 2
#     Edge 33, Type (0, 0), BuildingBlock: XUDNAN_clean_linker_2, # of connection points: 2
#     Edge 34, Type (0, 0), BuildingBlock: XUDNAN_clean_linker_2, # of connection points: 2
#     Edge 35, Type (0, 0), BuildingBlock: XUDNAN_clean_linker_2, # of connection points: 2
#     Edge 36, Type (0, 0), BuildingBlock: XUDNAN_clean_linker_2, # of connection points: 2
#     Edge 37, Type (0, 0), BuildingBlock: XUDNAN_clean_linker_2, # of connection points: 2
#     Edge 38, Type (0, 0), BuildingBlock: XUDNAN_clean_linker_2, # of connection points: 2
#     Edge 39, Type (0, 0), BuildingBlock: XUDNAN_clean_linker_2, # of connection points: 2
#     Edge 40, Type (0, 0), BuildingBlock: XUDNAN_clean_linker_2, # of connection points: 2
#     Edge 41, Type (0, 0), BuildingBlock: XUDNAN_clean_linker_2, # of connection points: 2
#     Edge 42, Type (0, 0), BuildingBlock: XUDNAN_clean_linker_2, # of connection points: 2
#     Edge 43, Type (0, 0), BuildingBlock: XUDNAN_clean_linker_2, # of connection points: 2
#     Edge 44, Type (0, 0), BuildingBlock: XUDNAN_clean_linker_2, # of connection points: 2
#     Edge 45, Type (0, 0), BuildingBlock: XUDNAN_clean_linker_2, # of connection points: 2
#     Edge 46, Type (0, 0), BuildingBlock: XUDNAN_clean_linker_2, # of connection points: 2
#     Edge 47, Type (0, 0), BuildingBlock: XUDNAN_clean_linker_2, # of connection points: 2
# Relax obj value: 0.038
# Max RMSD: 0.071
# Mean RMSD: 0.071
data_MOF--net-cag--node1-NAHDIM_clean_sbu_0--edge1-XUDNAN_clean_linker_2
_symmetry_space_group_name_H-M    P1
_symmetry_Int_Tables_number       1
_symmetry_cell_setting            triclinic
loop_
_symmetry_equiv_pos_as_xyz
'x, y, z'
_cell_length_a     41.812018
_cell_length_b     50.271708
_cell_length_c     42.859022
_cell_angle_alpha  90.008683
_cell_angle_beta   89.992633
_cell_angle_gamma 90.012126
loop_
_atom_site_label
_atom_site_type_symbol
_atom_site_fract_x
_atom_site_fract_y
_atom_site_fract_z
_atom_type_partial_charge
C0 C 0.27709 0.1976 0.08876 0.0
O1 O 0.2807 0.19381 0.11888 0.0
O2 O 0.35976 0.15478 0.07733 0.0
Zn3 Zn 0.31287 0.14817 0.08445 0.0
O4 O 0.30564 0.14241 0.13047 0.0
C5 C 0.30348 0.09245 0.0662 0.0
O6 O 0.31682 0.08686 0.09316 0.0
O7 O 0.28865 0.18071 0.06977 0.0
C8 C 0.27984 0.13347 0.14214 0.0
O9 O 0.25643 0.12635 0.12348 0.0
C10 C 0.38121 0.14097 0.09071 0.0
O11 O 0.37262 0.12172 0.10967 0.0
O12 O 0.29915 0.11664 0.05862 0.0
C13 C 0.20329 0.8214 0.54599 0.0
O14 O 0.17313 0.82469 0.53834 0.0
O15 O 0.14675 0.86343 0.58641 0.0
Zn16 Zn 0.19442 0.8693 0.58422 0.0
O17 O 0.21348 0.87385 0.62701 0.0
C18 C 0.18625 0.92316 0.5644 0.0
O19 O 0.16321 0.92197 0.58521 0.0
O20 O 0.21653 0.83792 0.56436 0.0
C21 C 0.19872 0.88111 0.65149 0.0
O22 O 0.168 0.88643 0.65002 0.0
C23 C 0.13379 0.84555 0.60312 0.0
O24 O 0.15199 0.82973 0.61985 0.0
O25 O 0.20322 0.9026 0.55948 0.0
C26 C 0.28418 0.82765 0.92369 0.0
O27 O 0.29203 0.82932 0.8941 0.0
O28 O 0.3625 0.87265 0.92745 0.0
Zn29 Zn 0.31487 0.87878 0.92433 0.0
O30 O 0.30418 0.88266 0.87855 0.0
C31 C 0.29869 0.93416 0.93309 0.0
O32 O 0.30029 0.93414 0.90251 0.0
O33 O 0.29137 0.84674 0.94192 0.0
C34 C 0.27591 0.88478 0.8679 0.0
O35 O 0.25167 0.88512 0.88741 0.0
C36 C 0.3758 0.85656 0.90859 0.0
O37 O 0.35803 0.84402 0.88804 0.0
O38 O 0.30377 0.91261 0.94786 0.0
C39 C 0.18293 0.18608 0.4694 0.0
O40 O 0.15446 0.17517 0.47133 0.0
O41 O 0.14411 0.14363 0.41707 0.0
Zn42 Zn 0.19177 0.14421 0.42423 0.0
O43 O 0.21479 0.14623 0.38295 0.0
C44 C 0.18581 0.0996 0.46583 0.0
O45 O 0.15961 0.11225 0.47397 0.0
O46 O 0.2035 0.17599 0.45101 0.0
C47 C 0.20426 0.13386 0.35918 0.0
O48 O 0.17784 0.11987 0.36167 0.0
C49 C 0.12939 0.16065 0.40053 0.0
O50 O 0.14571 0.17961 0.38667 0.0
O51 O 0.20404 0.10989 0.44539 0.0
C52 C 0.68772 0.84866 0.84784 0.0
O53 O 0.66674 0.83076 0.85682 0.0
O54 O 0.63114 0.8573 0.9075 0.0
Zn55 Zn 0.67804 0.86618 0.91064 0.0
O56 O 0.70046 0.83698 0.93412 0.0
C57 C 0.67473 0.92179 0.91249 0.0
O58 O 0.66385 0.91643 0.88442 0.0
O59 O 0.6965 0.86645 0.8671 0.0
C60 C 0.69815 0.83126 0.96291 0.0
O61 O 0.68043 0.84617 0.98121 0.0
C62 C 0.60972 0.86732 0.92497 0.0
O63 O 0.61804 0.88429 0.94681 0.0
O64 O 0.68342 0.90261 0.92987 0.0
C65 C 0.79793 0.13527 0.35217 0.0
O66 O 0.80172 0.16005 0.36118 0.0
O67 O 0.87474 0.13621 0.40296 0.0
Zn68 Zn 0.82932 0.12391 0.41095 0.0
O69 O 0.80534 0.15242 0.43455 0.0
C70 C 0.83143 0.09059 0.46604 0.0
O71 O 0.83494 0.11363 0.4801 0.0
O72 O 0.80773 0.11661 0.36974 0.0
C73 C 0.7784 0.14664 0.44648 0.0
O74 O 0.76662 0.1227 0.44206 0.0
C75 C 0.89896 0.12409 0.4139 0.0
O76 O 0.89466 0.10273 0.43103 0.0
O77 O 0.82887 0.09001 0.43647 0.0
C78 C 0.69968 0.13155 0.14369 0.0
O79 O 0.69243 0.15593 0.1352 0.0
O80 O 0.62823 0.12743 0.08627 0.0
Zn81 Zn 0.67584 0.12056 0.08237 0.0
O82 O 0.69664 0.15363 0.06486 0.0
C83 C 0.67277 0.09212 0.02504 0.0
O84 O 0.66103 0.11514 0.01611 0.0
O85 O 0.69456 0.11256 0.12474 0.0
C86 C 0.71929 0.15461 0.04511 0.0
O87 O 0.73237 0.13241 0.0352 0.0
C88 C 0.61534 0.14635 0.07106 0.0
O89 O 0.63339 0.1616 0.05348 0.0
O90 O 0.68177 0.08938 0.05318 0.0
C91 C 0.80619 0.86605 0.6506 0.0
O92 O 0.82781 0.88492 0.65297 0.0
O93 O 0.87761 0.85104 0.59839 0.0
Zn94 Zn 0.83196 0.86071 0.58808 0.0
O95 O 0.81667 0.8382 0.55209 0.0
C96 C 0.82781 0.90844 0.54966 0.0
O97 O 0.82737 0.89132 0.52651 0.0
O98 O 0.8038 0.85319 0.62517 0.0
C99 C 0.81096 0.81367 0.55668 0.0
O100 O 0.81556 0.80368 0.58465 0.0
C101 C 0.90044 0.86054 0.58228 0.0
O102 O 0.89381 0.87652 0.55891 0.0
O103 O 0.82941 0.89987 0.57754 0.0
C104 C 0.78386 0.67628 0.07575 0.0
O105 O 0.78385 0.68024 0.10605 0.0
O106 O 0.86379 0.6324 0.089 0.0
Zn107 Zn 0.8165 0.62499 0.08844 0.0
O108 O 0.801 0.62145 0.13299 0.0
C109 C 0.8298 0.57303 0.0614 0.0
O110 O 0.85832 0.57687 0.07342 0.0
O111 O 0.79537 0.65481 0.0648 0.0
C112 C 0.81701 0.6054 0.14978 0.0
O113 O 0.84106 0.59256 0.13704 0.0
C114 C 0.87573 0.64844 0.10873 0.0
O115 O 0.85674 0.66046 0.12868 0.0
O116 O 0.80834 0.59069 0.06507 0.0
C117 C 0.69589 0.29593 0.57129 0.0
O118 O 0.67314 0.29633 0.59244 0.0
O119 O 0.64056 0.34567 0.57902 0.0
Zn120 Zn 0.6884 0.35102 0.58102 0.0
O121 O 0.70305 0.35638 0.6257 0.0
C122 C 0.68354 0.39331 0.53451 0.0
O123 O 0.65705 0.38103 0.52649 0.0
O124 O 0.70819 0.31786 0.56264 0.0
C125 C 0.70417 0.38005 0.63615 0.0
O126 O 0.69504 0.39967 0.61798 0.0
C127 C 0.61918 0.36032 0.59121 0.0
O128 O 0.62769 0.38147 0.60717 0.0
O129 O 0.70086 0.38353 0.55602 0.0
C130 C 0.80147 0.3075 0.92644 0.0
O131 O 0.82454 0.29991 0.90762 0.0
O132 O 0.86366 0.35105 0.90068 0.0
Zn133 Zn 0.81678 0.36033 0.90311 0.0
O134 O 0.79813 0.36352 0.85963 0.0
C135 C 0.82791 0.40281 0.94854 0.0
O136 O 0.8515 0.3876 0.95809 0.0
O137 O 0.79389 0.33197 0.92764 0.0
C138 C 0.7974 0.38638 0.84694 0.0
O139 O 0.80917 0.4068 0.86224 0.0
C140 C 0.88523 0.36812 0.89465 0.0
O141 O 0.87696 0.3929 0.88923 0.0
O142 O 0.81048 0.39512 0.92597 0.0
C143 C 0.72185 0.67549 0.41946 0.0
O144 O 0.71348 0.67625 0.38992 0.0
O145 O 0.65014 0.62739 0.41024 0.0
Zn146 Zn 0.69782 0.6223 0.41347 0.0
O147 O 0.71715 0.61801 0.3706 0.0
C148 C 0.68996 0.56818 0.43241 0.0
O149 O 0.66818 0.56915 0.41035 0.0
O150 O 0.7175 0.65413 0.43479 0.0
C151 C 0.74346 0.60561 0.36783 0.0
O152 O 0.75726 0.59599 0.39296 0.0
C153 C 0.6369 0.63748 0.38632 0.0
O154 O 0.65481 0.64533 0.36288 0.0
O155 O 0.70615 0.58897 0.43845 0.0
C156 C 0.20584 0.36504 0.86243 0.0
O157 O 0.1949 0.3413 0.86956 0.0
O158 O 0.13094 0.37638 0.9143 0.0
Zn159 Zn 0.1781 0.38153 0.92235 0.0
O160 O 0.19479 0.35129 0.94891 0.0
C161 C 0.16358 0.42795 0.96098 0.0
O162 O 0.13476 0.4176 0.96233 0.0
O163 O 0.20159 0.38417 0.88137 0.0
C164 C 0.18391 0.34966 0.97656 0.0
O165 O 0.16278 0.36726 0.98593 0.0
C166 C 0.11876 0.35327 0.91241 0.0
O167 O 0.13741 0.33238 0.91525 0.0
O168 O 0.18522 0.41608 0.94544 0.0
C169 C 0.31099 0.66386 0.35228 0.0
O170 O 0.32645 0.6819 0.36856 0.0
O171 O 0.38108 0.63646 0.39225 0.0
Zn172 Zn 0.33427 0.63181 0.40177 0.0
O173 O 0.32126 0.65827 0.43484 0.0
C174 C 0.32503 0.5866 0.44343 0.0
O175 O 0.32949 0.60438 0.46548 0.0
O176 O 0.31043 0.64001 0.36211 0.0
C177 C 0.29246 0.66614 0.43717 0.0
O178 O 0.27066 0.65579 0.41873 0.0
C179 C 0.40333 0.63045 0.41115 0.0
O180 O 0.39596 0.62058 0.43861 0.0
O181 O 0.32569 0.59392 0.41504 0.0
C182 C 0.20536 0.67733 0.14806 0.0
O183 O 0.19441 0.69813 0.13289 0.0
O184 O 0.13091 0.65641 0.10413 0.0
Zn185 Zn 0.17787 0.6511 0.09566 0.0
O186 O 0.19315 0.67968 0.06612 0.0
C187 C 0.1686 0.59482 0.0802 0.0
O188 O 0.14379 0.59643 0.09892 0.0
O189 O 0.20143 0.65432 0.1364 0.0
C190 C 0.19115 0.6761 0.03683 0.0
O191 O 0.17912 0.6537 0.02629 0.0
C192 C 0.1092 0.65076 0.08447 0.0
O193 O 0.11729 0.6409 0.0572 0.0
O194 O 0.18625 0.61514 0.0762 0.0
C195 C 0.30123 0.36341 0.65259 0.0
O196 O 0.30361 0.33884 0.6424 0.0
O197 O 0.37218 0.36801 0.59204 0.0
Zn198 Zn 0.32488 0.37588 0.59079 0.0
O199 O 0.3003 0.34528 0.57163 0.0
C200 C 0.31716 0.40764 0.53543 0.0
O201 O 0.31884 0.38419 0.52198 0.0
O202 O 0.3091 0.38247 0.63465 0.0
C203 C 0.26996 0.34499 0.57333 0.0
O204 O 0.25528 0.36474 0.58742 0.0
C205 C 0.38491 0.34969 0.57581 0.0
O206 O 0.36666 0.33476 0.55803 0.0
O207 O 0.31868 0.40907 0.56501 0.0
H208 H 0.27426 0.21651 0.02857 0.0
H209 H 0.24168 0.2328 0.12288 0.0
H210 H 0.21385 0.27298 0.10413 0.0
H211 H 0.28935 0.28441 0.00761 0.0
H212 H 0.27591 0.28062 0.9679 0.0
H213 H 0.2925 0.25259 0.98844 0.0
H214 H 0.2411 0.22541 0.97729 0.0
H215 H 0.22435 0.25335 0.95667 0.0
H216 H 0.2028 0.23867 0.98876 0.0
H217 H 0.18957 0.3112 0.07545 0.0
H218 H 0.17151 0.34589 0.03888 0.0
H219 H 0.22089 0.30571 0.96318 0.0
C220 C 0.26113 0.22844 0.04525 0.0
C221 C 0.26007 0.22146 0.07721 0.0
C222 C 0.24286 0.23774 0.09832 0.0
C223 C 0.22692 0.26059 0.08789 0.0
C224 C 0.22854 0.26697 0.05631 0.0
C225 C 0.24527 0.25146 0.03528 0.0
C226 C 0.2438 0.26317 0.0027 0.0
C227 C 0.27739 0.27064 0.99099 0.0
C228 C 0.227 0.244 0.98003 0.0
C229 C 0.22366 0.28769 0.00875 0.0
C230 C 0.21499 0.28938 0.0398 0.0
C231 C 0.19623 0.31013 0.05108 0.0
C232 C 0.18606 0.32973 0.03008 0.0
C233 C 0.19483 0.32858 0.99817 0.0
C234 C 0.21391 0.30722 0.98745 0.0
H235 H 0.2347 0.69165 0.44279 0.0
H236 H 0.33164 0.6912 0.47916 0.0
H237 H 0.31886 0.73012 0.51198 0.0
H238 H 0.22676 0.76161 0.43761 0.0
H239 H 0.18532 0.76222 0.44918 0.0
H240 H 0.2014 0.73335 0.42992 0.0
H241 H 0.18289 0.70361 0.4759 0.0
H242 H 0.16657 0.73239 0.49524 0.0
H243 H 0.19532 0.71169 0.51505 0.0
H244 H 0.29635 0.77025 0.53899 0.0
H245 H 0.26538 0.80828 0.5592 0.0
H246 H 0.18308 0.78268 0.50513 0.0
C247 C 0.25316 0.69951 0.45793 0.0
C248 C 0.28417 0.68831 0.45844 0.0
C249 C 0.3077 0.69939 0.47839 0.0
C250 C 0.30067 0.7215 0.49713 0.0
C251 C 0.27001 0.73228 0.4957 0.0
C252 C 0.24658 0.7216 0.47674 0.0
C253 C 0.21582 0.73743 0.47887 0.0
C254 C 0.20682 0.74936 0.447 0.0
C255 C 0.18854 0.72025 0.49206 0.0
C256 C 0.22572 0.75885 0.50175 0.0
C257 C 0.25704 0.75546 0.51124 0.0
C258 C 0.27174 0.77303 0.53186 0.0
C259 C 0.25394 0.79462 0.54316 0.0
C260 C 0.22176 0.7985 0.53379 0.0
C261 C 0.20757 0.78027 0.51283 0.0
H262 H 0.27136 0.81366 0.98467 0.0
H263 H 0.25991 0.78698 0.88891 0.0
H264 H 0.23382 0.74605 0.90753 0.0
H265 H 0.28998 0.7499 0.01667 0.0
H266 H 0.26848 0.75521 0.05259 0.0
H267 H 0.28516 0.7831 0.03186 0.0
H268 H 0.22933 0.80542 0.03007 0.0
H269 H 0.21248 0.7776 0.05085 0.0
H270 H 0.19596 0.78745 0.01377 0.0
H271 H 0.21018 0.70764 0.9361 0.0
H272 H 0.19059 0.67386 0.97314 0.0
H273 H 0.21757 0.7249 0.0506 0.0
C274 C 0.26314 0.7993 0.96762 0.0
C275 C 0.26766 0.80357 0.93531 0.0
C276 C 0.25678 0.78418 0.91378 0.0
C277 C 0.24187 0.76085 0.9241 0.0
C278 C 0.23801 0.75715 0.95605 0.0
C279 C 0.24829 0.77578 0.97754 0.0
C280 C 0.24186 0.7665 0.01061 0.0
C281 C 0.27324 0.7635 0.029 0.0
C282 C 0.21851 0.78537 0.0273 0.0
C283 C 0.22656 0.7397 0.00427 0.0
C284 C 0.22448 0.73478 0.97263 0.0
C285 C 0.21158 0.71126 0.96096 0.0
C286 C 0.20054 0.69218 0.9822 0.0
C287 C 0.20252 0.69669 0.01478 0.0
C288 C 0.21566 0.72085 0.02585 0.0
H289 H 0.29185 0.3038 0.53679 0.0
H290 H 0.20601 0.3354 0.58018 0.0
H291 H 0.17482 0.29792 0.55887 0.0
H292 H 0.25391 0.28151 0.4661 0.0
H293 H 0.27813 0.252 0.46268 0.0
H294 H 0.29392 0.28109 0.48177 0.0
H295 H 0.30597 0.25312 0.53116 0.0
H296 H 0.29017 0.22394 0.51224 0.0
H297 H 0.27418 0.23446 0.54931 0.0
H298 H 0.15299 0.25694 0.53349 0.0
H299 H 0.14146 0.21593 0.50402 0.0
H300 H 0.24112 0.21126 0.47597 0.0
C301 C 0.2665 0.30282 0.54187 0.0
C302 C 0.25138 0.32253 0.56024 0.0
C303 C 0.21813 0.32058 0.56616 0.0
C304 C 0.2002 0.29933 0.55421 0.0
C305 C 0.21582 0.28024 0.53625 0.0
C306 C 0.24817 0.28182 0.52995 0.0
C307 C 0.25897 0.25886 0.50956 0.0
C308 C 0.27199 0.26898 0.47816 0.0
C309 C 0.28379 0.24158 0.52659 0.0
C310 C 0.22761 0.24414 0.5054 0.0
C311 C 0.20309 0.25677 0.52114 0.0
C312 C 0.17198 0.24689 0.52102 0.0
C313 C 0.16569 0.22354 0.50424 0.0
C314 C 0.19035 0.21036 0.48763 0.0
C315 C 0.22173 0.22088 0.48834 0.0
H316 H 0.75294 0.72331 0.08992 0.0
H317 H 0.78896 0.67646 0.01229 0.0
H318 H 0.77177 0.71134 0.97571 0.0
H319 H 0.68286 0.74822 0.04996 0.0
H320 H 0.6848 0.78067 0.06776 0.0
H321 H 0.70017 0.75211 0.08822 0.0
H322 H 0.75507 0.7755 0.09397 0.0
H323 H 0.73991 0.80409 0.07341 0.0
H324 H 0.7754 0.78747 0.05963 0.0
H325 H 0.75212 0.75117 0.94752 0.0
H326 H 0.72815 0.79287 0.92876 0.0
H327 H 0.70314 0.81411 0.02397 0.0
C328 C 0.75716 0.72038 0.06523 0.0
C329 C 0.77237 0.69712 0.05403 0.0
C330 C 0.77733 0.69404 0.0215 0.0
C331 C 0.76773 0.71378 0.00049 0.0
C332 C 0.75302 0.73648 0.01226 0.0
C333 C 0.74749 0.73987 0.04379 0.0
C334 C 0.73071 0.76611 0.05006 0.0
C335 C 0.69767 0.76149 0.06487 0.0
C336 C 0.75152 0.78437 0.07048 0.0
C337 C 0.72775 0.77685 0.01711 0.0
C338 C 0.74101 0.75946 0.99577 0.0
C339 C 0.74156 0.76494 0.96397 0.0
C340 C 0.72793 0.78876 0.95356 0.0
C341 C 0.71368 0.80681 0.97486 0.0
C342 C 0.71376 0.80073 0.0071 0.0
H343 H 0.79212 0.19967 0.45566 0.0
H344 H 0.72665 0.13696 0.48362 0.0
H345 H 0.69952 0.16813 0.51925 0.0
H346 H 0.79961 0.23073 0.53085 0.0
H347 H 0.80039 0.26414 0.51561 0.0
H348 H 0.81498 0.23695 0.49222 0.0
H349 H 0.77581 0.24982 0.44789 0.0
H350 H 0.76123 0.27714 0.47107 0.0
H351 H 0.73368 0.25262 0.45625 0.0
H352 H 0.68023 0.20546 0.55261 0.0
H353 H 0.66759 0.24752 0.57934 0.0
H354 H 0.74444 0.28677 0.52899 0.0
C355 C 0.77205 0.19251 0.46925 0.0
C356 C 0.76155 0.16583 0.46688 0.0
C357 C 0.7351 0.15729 0.48495 0.0
C358 C 0.71958 0.17483 0.50536 0.0
C359 C 0.73065 0.2009 0.5073 0.0
C360 C 0.75608 0.20983 0.48958 0.0
C361 C 0.76275 0.23902 0.49576 0.0
C362 C 0.79643 0.24293 0.50943 0.0
C363 C 0.75808 0.25563 0.46597 0.0
C364 C 0.73711 0.24505 0.51975 0.0
C365 C 0.71905 0.22269 0.52619 0.0
C366 C 0.69413 0.22314 0.54771 0.0
C367 C 0.6872 0.24715 0.56284 0.0
C368 C 0.70498 0.2705 0.55626 0.0
C369 C 0.73039 0.2693 0.53451 0.0
H370 H 0.8105 0.25333 0.92893 0.0
H371 H 0.75609 0.31767 0.97088 0.0
H372 H 0.73023 0.28565 0.00639 0.0
H373 H 0.74745 0.20447 0.93168 0.0
H374 H 0.77397 0.17726 0.94061 0.0
H375 H 0.78839 0.20527 0.91852 0.0
H376 H 0.83386 0.21221 0.95879 0.0
H377 H 0.81948 0.18429 0.98109 0.0
H378 H 0.82399 0.21633 0.99946 0.0
H379 H 0.71045 0.24696 0.03749 0.0
H380 H 0.69661 0.20377 0.06108 0.0
H381 H 0.76359 0.1643 0.99892 0.0
C382 C 0.79312 0.2607 0.94554 0.0
C383 C 0.78536 0.28805 0.9471 0.0
C384 C 0.76243 0.29684 0.96918 0.0
C385 C 0.74764 0.27881 0.98952 0.0
C386 C 0.75597 0.25205 0.98748 0.0
C387 C 0.77804 0.24296 0.966 0.0
C388 C 0.78241 0.2131 0.96848 0.0
C389 C 0.77245 0.19921 0.93801 0.0
C390 C 0.81699 0.20608 0.9775 0.0
C391 C 0.75935 0.20686 0.99475 0.0
C392 C 0.74443 0.22964 0.0054 0.0
C393 C 0.72197 0.22897 0.02937 0.0
C394 C 0.71431 0.20431 0.04264 0.0
C395 C 0.72903 0.1806 0.03191 0.0
C396 C 0.752 0.18204 0.00776 0.0
H397 H 0.79343 0.76118 0.55994 0.0
H398 H 0.80055 0.82767 0.49565 0.0
H399 H 0.77924 0.79937 0.45335 0.0
H400 H 0.81629 0.70995 0.50533 0.0
H401 H 0.7886 0.68586 0.52087 0.0
H402 H 0.80494 0.71125 0.54589 0.0
H403 H 0.74762 0.72622 0.5608 0.0
H404 H 0.73111 0.7009 0.53582 0.0
H405 H 0.71981 0.7352 0.53044 0.0
H406 H 0.75647 0.76391 0.41824 0.0
H407 H 0.7338 0.72403 0.39294 0.0
H408 H 0.74142 0.68085 0.48037 0.0
C409 C 0.79065 0.76981 0.53695 0.0
C410 C 0.79871 0.79666 0.53111 0.0
C411 C 0.79456 0.80716 0.5007 0.0
C412 C 0.78248 0.79124 0.47651 0.0
C413 C 0.77468 0.76488 0.48312 0.0
C414 C 0.7786 0.75424 0.51259 0.0
C415 C 0.76799 0.72544 0.51368 0.0
C416 C 0.79614 0.70704 0.52192 0.0
C417 C 0.73997 0.72174 0.53654 0.0
C418 C 0.75738 0.72155 0.48022 0.0
C419 C 0.76149 0.74451 0.46296 0.0
C420 C 0.75319 0.7458 0.43152 0.0
C421 C 0.74032 0.72303 0.41736 0.0
C422 C 0.73581 0.69928 0.43464 0.0
C423 C 0.74457 0.69865 0.46648 0.0
H424 H 0.31443 0.03871 0.07232 0.0
H425 H 0.27551 0.09779 0.00887 0.0
H426 H 0.26637 0.06286 0.96954 0.0
H427 H 0.3566 0.00216 0.01613 0.0
H428 H 0.34866 0.97 0.03301 0.0
H429 H 0.34945 0.99909 0.05746 0.0
H430 H 0.29227 0.9884 0.07714 0.0
H431 H 0.29134 0.95917 0.05278 0.0
H432 H 0.2604 0.98396 0.0493 0.0
H433 H 0.26596 0.02275 0.93544 0.0
H434 H 0.27302 0.97955 0.90909 0.0
H435 H 0.31114 0.94592 0.99464 0.0
C436 C 0.3035 0.04425 0.05036 0.0
C437 C 0.29566 0.07103 0.04373 0.0
C438 C 0.28169 0.07744 0.01455 0.0
C439 C 0.27634 0.05772 0.99205 0.0
C440 C 0.28485 0.03163 0.99911 0.0
C441 C 0.29791 0.02478 0.0276 0.0
C442 C 0.30635 0.99545 0.02862 0.0
C443 C 0.3424 0.99146 0.03412 0.0
C444 C 0.28639 0.98089 0.05343 0.0
C445 C 0.29672 0.98708 0.99596 0.0
C446 C 0.28421 0.00826 0.97943 0.0
C447 C 0.27531 0.00592 0.94825 0.0
C448 C 0.27953 0.98132 0.93346 0.0
C449 C 0.29245 0.95934 0.94985 0.0
C450 C 0.30075 0.96224 0.98165 0.0
H451 H 0.15092 0.96905 0.56587 0.0
H452 H 0.23542 0.93384 0.52388 0.0
H453 H 0.2456 0.97571 0.49535 0.0
H454 H 0.12537 0.00483 0.49827 0.0
H455 H 0.11127 0.03319 0.52003 0.0
H456 H 0.11126 0.00072 0.53773 0.0
H457 H 0.14534 0.01882 0.58358 0.0
H458 H 0.14553 0.05135 0.56596 0.0
H459 H 0.18278 0.03523 0.57547 0.0
H460 H 0.2462 0.0214 0.47102 0.0
H461 H 0.23621 0.06687 0.45146 0.0
H462 H 0.15104 0.07178 0.50917 0.0
C463 C 0.17165 0.97012 0.55078 0.0
C464 C 0.19242 0.94816 0.54717 0.0
C465 C 0.21916 0.95039 0.52701 0.0
C466 C 0.22519 0.97411 0.51076 0.0
C467 C 0.20423 0.99538 0.51489 0.0
C468 C 0.17794 0.99357 0.53432 0.0
C469 C 0.15869 0.01907 0.53413 0.0
C470 C 0.12464 0.01415 0.5218 0.0
C471 C 0.15807 0.03187 0.56672 0.0
C472 C 0.17817 0.0355 0.51146 0.0
C473 C 0.20443 0.02154 0.50072 0.0
C474 C 0.22574 0.03254 0.47931 0.0
C475 C 0.21988 0.05839 0.46836 0.0
C476 C 0.19286 0.07293 0.47878 0.0
C477 C 0.17195 0.06127 0.50079 0.0
H478 H 0.68882 0.94016 0.97159 0.0
H479 H 0.66215 0.9665 0.87865 0.0
H480 H 0.66122 0.01291 0.89698 0.0
H481 H 0.63909 0.98542 0.0129 0.0
H482 H 0.66721 0.99124 0.04404 0.0
H483 H 0.66762 0.96006 0.02337 0.0
H484 H 0.72751 0.96689 0.01001 0.0
H485 H 0.72728 0.9981 0.03069 0.0
H486 H 0.73994 0.99693 0.9905 0.0
H487 H 0.66074 0.05607 0.92543 0.0
H488 H 0.66075 0.09355 0.96248 0.0
H489 H 0.68784 0.03977 0.03725 0.0
C490 C 0.68312 0.95572 0.95503 0.0
C491 C 0.67563 0.94966 0.92364 0.0
C492 C 0.66799 0.97059 0.90279 0.0
C493 C 0.66744 0.99706 0.91296 0.0
C494 C 0.67465 0.00234 0.94404 0.0
C495 C 0.6824 0.98233 0.96481 0.0
C496 C 0.68811 0.99345 0.99724 0.0
C497 C 0.66407 0.98185 0.02077 0.0
C498 C 0.72278 0.98855 0.00772 0.0
C499 C 0.68197 0.02277 0.99145 0.0
C500 C 0.67439 0.02742 0.96056 0.0
C501 C 0.66685 0.05274 0.94965 0.0
C502 C 0.66687 0.0739 0.97092 0.0
C503 C 0.67436 0.06965 0.00276 0.0
C504 C 0.68225 0.04372 0.01302 0.0
H505 H 0.8283 0.03931 0.44403 0.0
H506 H 0.83288 0.08541 0.52961 0.0
H507 H 0.83166 0.04389 0.56033 0.0
H508 H 0.77465 0.98871 0.47238 0.0
H509 H 0.7942 0.96217 0.4515 0.0
H510 H 0.79513 0.99554 0.43623 0.0
H511 H 0.85707 0.99397 0.43462 0.0
H512 H 0.85634 0.96059 0.44985 0.0
H513 H 0.87893 0.98604 0.46967 0.0
H514 H 0.83024 0.99733 0.58177 0.0
H515 H 0.8294 0.94906 0.59232 0.0
H516 H 0.82595 0.93342 0.49271 0.0
C517 C 0.82898 0.04071 0.46923 0.0
C518 C 0.83066 0.06565 0.4844 0.0
C519 C 0.83162 0.06656 0.51744 0.0
C520 C 0.8309 0.04308 0.53511 0.0
C521 C 0.82925 0.01885 0.51942 0.0
C522 C 0.82835 0.01749 0.48723 0.0
C523 C 0.82698 0.98892 0.47609 0.0
C524 C 0.79589 0.98352 0.45799 0.0
C525 C 0.85659 0.98198 0.4564 0.0
C526 C 0.82728 0.97442 0.50705 0.0
C527 C 0.82854 0.99204 0.53176 0.0
C528 C 0.82923 0.98333 0.56261 0.0
C529 C 0.82873 0.95586 0.56835 0.0
C530 C 0.82759 0.93741 0.54336 0.0
C531 C 0.82677 0.94696 0.51235 0.0
H532 H 0.86696 0.42995 0.989 0.0
H533 H 0.77533 0.43468 0.94168 0.0
H534 H 0.7653 0.4783 0.96628 0.0
H535 H 0.84244 0.4608 0.06117 0.0
H536 H 0.87952 0.47859 0.06623 0.0
H537 H 0.87909 0.44738 0.04557 0.0
H538 H 0.90555 0.47001 0.99775 0.0
H539 H 0.90606 0.50127 0.01826 0.0
H540 H 0.88697 0.4989 0.98065 0.0
H541 H 0.76519 0.52137 0.99611 0.0
H542 H 0.77594 0.56162 0.02746 0.0
H543 H 0.86828 0.52926 0.05412 0.0
C544 C 0.84469 0.44007 0.98395 0.0
C545 C 0.82185 0.42884 0.96354 0.0
C546 C 0.79318 0.44288 0.95726 0.0
C547 C 0.78723 0.46765 0.97116 0.0
C548 C 0.81027 0.47818 0.99113 0.0
C549 C 0.8385 0.46491 0.9974 0.0
C550 C 0.85971 0.48095 0.019 0.0
C551 C 0.86552 0.46604 0.04982 0.0
C552 C 0.89145 0.48821 0.00295 0.0
C553 C 0.83898 0.50528 0.02394 0.0
C554 C 0.81049 0.50323 0.0078 0.0
C555 C 0.78744 0.52322 0.00883 0.0
C556 C 0.79375 0.54599 0.02674 0.0
C557 C 0.82297 0.54864 0.04321 0.0
C558 C 0.84576 0.52791 0.04175 0.0
H559 H 0.65111 0.42042 0.48878 0.0
H560 H 0.73419 0.42558 0.54928 0.0
H561 H 0.74577 0.47044 0.52878 0.0
H562 H 0.68606 0.45551 0.42258 0.0
H563 H 0.64912 0.47199 0.41281 0.0
H564 H 0.64833 0.43978 0.43123 0.0
H565 H 0.61269 0.45876 0.47542 0.0
H566 H 0.61351 0.49104 0.45725 0.0
H567 H 0.62622 0.48732 0.4972 0.0
H568 H 0.74662 0.51578 0.50369 0.0
H569 H 0.73774 0.5575 0.47445 0.0
H570 H 0.6545 0.52236 0.43004 0.0
C571 C 0.67195 0.43083 0.4975 0.0
C572 C 0.69177 0.41942 0.52062 0.0
C573 C 0.7187 0.43383 0.5315 0.0
C574 C 0.72547 0.45936 0.52002 0.0
C575 C 0.70518 0.47016 0.49757 0.0
C576 C 0.6791 0.45628 0.48627 0.0
C577 C 0.66067 0.4726 0.46264 0.0
C578 C 0.66108 0.45917 0.4304 0.0
C579 C 0.62624 0.47773 0.47381 0.0
C580 C 0.68025 0.49793 0.46267 0.0
C581 C 0.70583 0.49614 0.48296 0.0
C582 C 0.7268 0.51734 0.48756 0.0
C583 C 0.7215 0.54098 0.47092 0.0
C584 C 0.69549 0.54319 0.44988 0.0
C585 C 0.67473 0.52128 0.44577 0.0
H586 H 0.12839 0.55227 0.07184 0.0
H587 H 0.22264 0.58201 0.0475 0.0
H588 H 0.23218 0.54193 0.01553 0.0
H589 H 0.14949 0.4822 0.07609 0.0
H590 H 0.11236 0.47131 0.05895 0.0
H591 H 0.11367 0.50167 0.08127 0.0
H592 H 0.09017 0.52752 0.03425 0.0
H593 H 0.08891 0.49729 0.01176 0.0
H594 H 0.11007 0.52587 0.99698 0.0
H595 H 0.23104 0.49914 0.98534 0.0
H596 H 0.21894 0.457 0.95823 0.0
H597 H 0.12484 0.45577 0.00113 0.0
C598 C 0.15119 0.55022 0.0601 0.0
C599 C 0.17486 0.5702 0.06232 0.0
C600 C 0.20418 0.56693 0.04619 0.0
C601 C 0.20984 0.54422 0.028 0.0
C602 C 0.18589 0.52504 0.02606 0.0
C603 C 0.15713 0.5278 0.04162 0.0
C604 C 0.13488 0.50475 0.03466 0.0
C605 C 0.12716 0.48906 0.06452 0.0
C606 C 0.1042 0.51445 0.01844 0.0
C607 C 0.15559 0.48867 0.01266 0.0
C608 C 0.18498 0.50063 0.00816 0.0
C609 C 0.20812 0.48955 0.98871 0.0
C610 C 0.201 0.46561 0.97341 0.0
C611 C 0.17092 0.45308 0.97749 0.0
C612 C 0.14802 0.46485 0.99744 0.0
H613 H 0.32555 0.56372 0.50166 0.0
H614 H 0.31492 0.54502 0.40328 0.0
H615 H 0.30965 0.49742 0.41634 0.0
H616 H 0.37292 0.50753 0.5213 0.0
H617 H 0.35479 0.50266 0.55903 0.0
H618 H 0.35618 0.53542 0.54212 0.0
H619 H 0.29464 0.53943 0.5476 0.0
H620 H 0.29307 0.50667 0.56458 0.0
H621 H 0.26931 0.51426 0.53063 0.0
H622 H 0.3078 0.45167 0.43984 0.0
H623 H 0.30919 0.41106 0.47217 0.0
H624 H 0.32069 0.45957 0.55526 0.0
C625 C 0.32185 0.54967 0.48285 0.0
C626 C 0.3206 0.55816 0.45142 0.0
C627 C 0.31591 0.53905 0.42753 0.0
C628 C 0.31286 0.51194 0.43471 0.0
C629 C 0.31446 0.50425 0.4659 0.0
C630 C 0.31875 0.52254 0.4896 0.0
C631 C 0.32047 0.50896 0.52112 0.0
C632 C 0.35303 0.51394 0.5368 0.0
C633 C 0.29271 0.51786 0.54222 0.0
C634 C 0.3168 0.48016 0.5114 0.0
C635 C 0.31327 0.47788 0.47946 0.0
C636 C 0.31035 0.45322 0.4649 0.0
C637 C 0.31121 0.43025 0.48348 0.0
C638 C 0.31496 0.43209 0.51627 0.0
C639 C 0.31757 0.45746 0.5303 0.0
H640 H 0.56975 0.11629 0.10121 0.0
H641 H 0.58169 0.18604 0.04255 0.0
H642 H 0.5233 0.19261 0.04203 0.0
H643 H 0.49902 0.09208 0.06424 0.0
H644 H 0.4807 0.08064 0.09986 0.0
H645 H 0.52361 0.08183 0.09663 0.0
H646 H 0.52655 0.11151 0.146 0.0
H647 H 0.48363 0.11035 0.14943 0.0
H648 H 0.50384 0.14197 0.14742 0.0
H649 H 0.46373 0.19097 0.04642 0.0
H650 H 0.4067 0.18159 0.05622 0.0
H651 H 0.43323 0.11303 0.11218 0.0
C652 C 0.56012 0.13305 0.08845 0.0
C653 C 0.58034 0.15066 0.07194 0.0
C654 C 0.56673 0.17227 0.05538 0.0
C655 C 0.53356 0.1762 0.05493 0.0
C656 C 0.51431 0.15837 0.0712 0.0
C657 C 0.52702 0.13727 0.08773 0.0
C658 C 0.50089 0.12078 0.10277 0.0
C659 C 0.50108 0.09214 0.09011 0.0
C660 C 0.50391 0.12119 0.13853 0.0
C661 C 0.47154 0.13585 0.09197 0.0
C662 C 0.47984 0.15747 0.0738 0.0
C663 C 0.4569 0.17416 0.06072 0.0
C664 C 0.42456 0.16864 0.06639 0.0
C665 C 0.41546 0.14661 0.08501 0.0
C666 C 0.43938 0.13008 0.09796 0.0
H667 H 0.95454 0.88148 0.55593 0.0
H668 H 0.92248 0.82488 0.62576 0.0
H669 H 0.97876 0.81422 0.63826 0.0
H670 H 0.02214 0.84383 0.52852 0.0
H671 H 0.04701 0.87276 0.52319 0.0
H672 H 0.00424 0.87553 0.51949 0.0
H673 H 0.00377 0.9127 0.56142 0.0
H674 H 0.04654 0.91006 0.56523 0.0
H675 H 0.02137 0.9064 0.59911 0.0
H676 H 0.03886 0.80985 0.64304 0.0
H677 H 0.09782 0.81292 0.64061 0.0
H678 H 0.08992 0.8729 0.56814 0.0
C679 C 0.95928 0.86676 0.57379 0.0
C680 C 0.93407 0.85396 0.58981 0.0
C681 C 0.94139 0.83494 0.61316 0.0
C682 C 0.97327 0.82873 0.62039 0.0
C683 C 0.99754 0.84176 0.60414 0.0
C684 C 0.99089 0.86043 0.58138 0.0
C685 C 0.02124 0.87194 0.56768 0.0
C686 C 0.0238 0.86563 0.53265 0.0
C687 C 0.02334 0.90206 0.57374 0.0
C688 C 0.04605 0.85687 0.5863 0.0
C689 C 0.03196 0.83947 0.60713 0.0
C690 C 0.05015 0.82341 0.62682 0.0
C691 C 0.08362 0.82527 0.62525 0.0
C692 C 0.09852 0.84316 0.60422 0.0
C693 C 0.07932 0.85906 0.58451 0.0
H694 H 0.4206 0.88272 0.94427 0.0
H695 H 0.41047 0.82205 0.87278 0.0
H696 H 0.46907 0.81696 0.87088 0.0
H697 H 0.48937 0.91365 0.91224 0.0
H698 H 0.5079 0.92045 0.94937 0.0
H699 H 0.46502 0.91832 0.94653 0.0
H700 H 0.46442 0.88194 0.98936 0.0
H701 H 0.50733 0.88401 0.9924 0.0
H702 H 0.48847 0.85248 0.98446 0.0
H703 H 0.52863 0.81985 0.8748 0.0
H704 H 0.58536 0.83032 0.88462 0.0
H705 H 0.55703 0.88901 0.95369 0.0
C706 C 0.43067 0.86816 0.92844 0.0
C707 C 0.4109 0.85275 0.9087 0.0
C708 C 0.42508 0.83408 0.88815 0.0
C709 C 0.45836 0.831 0.88691 0.0
C710 C 0.47716 0.84669 0.90642 0.0
C711 C 0.46388 0.86484 0.92687 0.0
C712 C 0.48957 0.87982 0.94459 0.0
C713 C 0.48785 0.90983 0.93776 0.0
C714 C 0.4873 0.87422 0.97979 0.0
C715 C 0.51934 0.86747 0.9306 0.0
C716 C 0.51162 0.84833 0.90872 0.0
C717 C 0.535 0.83467 0.89202 0.0
C718 C 0.56717 0.84081 0.89775 0.0
C719 C 0.57568 0.86044 0.91998 0.0
C720 C 0.55134 0.87378 0.9367 0.0
H721 H 0.08877 0.12601 0.42982 0.0
H722 H 0.09025 0.19239 0.36502 0.0
H723 H 0.03129 0.19035 0.36113 0.0
H724 H 0.02538 0.08946 0.39313 0.0
H725 H 0.00831 0.07845 0.42953 0.0
H726 H 0.05053 0.08518 0.42693 0.0
H727 H 0.04596 0.1184 0.47296 0.0
H728 H 0.00372 0.11182 0.47569 0.0
H729 H 0.01775 0.14544 0.47061 0.0
H730 H 0.97185 0.18113 0.36489 0.0
H731 H 0.91695 0.16525 0.37556 0.0
H732 H 0.95516 0.10496 0.4378 0.0
C733 C 0.07678 0.1401 0.4147 0.0
C734 C 0.09415 0.15935 0.39768 0.0
C735 C 0.07745 0.17746 0.37829 0.0
C736 C 0.04397 0.17646 0.37593 0.0
C737 C 0.0276 0.15726 0.39314 0.0
C738 C 0.04348 0.13941 0.41213 0.0
C739 C 0.02041 0.12083 0.42839 0.0
C740 C 0.02652 0.09176 0.41891 0.0
C741 C 0.02206 0.12435 0.46402 0.0
C742 C 0.989 0.1309 0.41547 0.0
C743 C 0.99359 0.15196 0.39525 0.0
C744 C 0.96799 0.16463 0.38066 0.0
C745 C 0.9369 0.15548 0.38689 0.0
C746 C 0.93173 0.13383 0.40746 0.0
C747 C 0.95824 0.12148 0.42186 0.0
H748 H 0.05671 0.63198 0.05308 0.0
H749 H 0.08476 0.67752 0.13471 0.0
H750 H 0.02794 0.6829 0.14909 0.0
H751 H 0.9853 0.66943 0.0347 0.0
H752 H 0.9629 0.64045 0.02303 0.0
H753 H 0.00574 0.641 0.01858 0.0
H754 H 0.01021 0.59778 0.05128 0.0
H755 H 0.96741 0.59711 0.05585 0.0
H756 H 0.99287 0.5967 0.08978 0.0
H757 H 0.9681 0.683 0.1548 0.0
H758 H 0.90959 0.67663 0.1523 0.0
H759 H 0.92091 0.63013 0.06762 0.0
C760 C 0.05092 0.64326 0.07386 0.0
C761 C 0.07516 0.65443 0.09271 0.0
C762 C 0.06658 0.66879 0.11991 0.0
C763 C 0.03438 0.672 0.12824 0.0
C764 C 0.01109 0.66064 0.10921 0.0
C765 C 0.01894 0.64648 0.08265 0.0
C766 C 0.98939 0.63557 0.06674 0.0
C767 C 0.98562 0.64732 0.03382 0.0
C768 C 0.99002 0.60498 0.06588 0.0
C769 C 0.9637 0.64575 0.08856 0.0
C770 C 0.97668 0.6603 0.1128 0.0
C771 C 0.95764 0.67166 0.13592 0.0
C772 C 0.92444 0.66795 0.13428 0.0
C773 C 0.91067 0.65287 0.10979 0.0
C774 C 0.93068 0.64173 0.08666 0.0
H775 H 0.56657 0.38736 0.61324 0.0
H776 H 0.59435 0.31824 0.55878 0.0
H777 H 0.53755 0.30741 0.55014 0.0
H778 H 0.49759 0.35717 0.65038 0.0
H779 H 0.474 0.38715 0.64883 0.0
H780 H 0.51694 0.38921 0.65139 0.0
H781 H 0.5182 0.4182 0.60141 0.0
H782 H 0.4753 0.41623 0.59869 0.0
H783 H 0.49974 0.40595 0.56621 0.0
H784 H 0.47783 0.3047 0.54605 0.0
H785 H 0.41918 0.31024 0.54714 0.0
H786 H 0.43015 0.3808 0.60465 0.0
C787 C 0.56073 0.36987 0.59961 0.0
C788 C 0.58498 0.35366 0.5867 0.0
C789 C 0.57626 0.33099 0.56894 0.0
C790 C 0.54403 0.32463 0.5639 0.0
C791 C 0.52076 0.34108 0.57684 0.0
C792 C 0.52866 0.36319 0.59439 0.0
C793 C 0.49897 0.37777 0.60528 0.0
C794 C 0.49675 0.37781 0.6411 0.0
C795 C 0.49801 0.40622 0.5921 0.0
C796 C 0.47319 0.36049 0.59091 0.0
C797 C 0.48628 0.33941 0.57464 0.0
C798 C 0.46728 0.32106 0.55884 0.0
C799 C 0.43398 0.32439 0.55958 0.0
C800 C 0.42002 0.34589 0.57604 0.0
C801 C 0.44002 0.36405 0.59201 0.0
H802 H 0.07359 0.39232 0.90424 0.0
H803 H 0.08493 0.30664 0.911 0.0
H804 H 0.02656 0.30104 0.90547 0.0
H805 H 0.00162 0.39673 0.9481 0.0
H806 H 0.98437 0.42256 0.92429 0.0
H807 H 0.02715 0.41978 0.92764 0.0
H808 H 0.03199 0.41662 0.86746 0.0
H809 H 0.98919 0.41941 0.86392 0.0
H810 H 0.00972 0.39147 0.84678 0.0
H811 H 0.9668 0.30485 0.90144 0.0
H812 H 0.90993 0.31778 0.89826 0.0
H813 H 0.93771 0.40091 0.89321 0.0
C814 C 0.06386 0.37235 0.90437 0.0
C815 C 0.08388 0.34991 0.90805 0.0
C816 C 0.07012 0.32414 0.90817 0.0
C817 C 0.03698 0.32075 0.90503 0.0
C818 C 0.01794 0.3433 0.90164 0.0
C819 C 0.03087 0.36859 0.90115 0.0
C820 C 0.00507 0.38954 0.89772 0.0
C821 C 0.00453 0.40825 0.92613 0.0
C822 C 0.00925 0.40518 0.86715 0.0
C823 C 0.97558 0.37208 0.89669 0.0
C824 C 0.98353 0.34547 0.89895 0.0
C825 C 0.96029 0.32562 0.89943 0.0
C826 C 0.92805 0.33317 0.89766 0.0
C827 C 0.91935 0.36034 0.89535 0.0
C828 C 0.94356 0.37996 0.89467 0.0
H829 H 0.59298 0.62175 0.43021 0.0
H830 H 0.601 0.65804 0.33859 0.0
H831 H 0.54213 0.66078 0.33533 0.0
H832 H 0.52439 0.58189 0.41359 0.0
H833 H 0.50674 0.58626 0.45162 0.0
H834 H 0.54951 0.58777 0.44707 0.0
H835 H 0.55018 0.63449 0.47264 0.0
H836 H 0.50739 0.63312 0.47731 0.0
H837 H 0.52545 0.66053 0.45669 0.0
H838 H 0.48243 0.65873 0.3416 0.0
H839 H 0.42611 0.65238 0.35705 0.0
H840 H 0.45715 0.61751 0.44468 0.0
C841 C 0.58242 0.63039 0.4095 0.0
C842 C 0.60164 0.6397 0.38465 0.0
C843 C 0.58679 0.65079 0.35793 0.0
C844 C 0.55337 0.65244 0.35586 0.0
C845 C 0.53516 0.64295 0.38071 0.0
C846 C 0.54913 0.63219 0.40704 0.0
C847 C 0.52413 0.62314 0.43032 0.0
C848 C 0.52633 0.59298 0.43596 0.0
C849 C 0.52696 0.63876 0.46105 0.0
C850 C 0.49387 0.63038 0.41289 0.0
C851 C 0.50076 0.64181 0.38434 0.0
C852 C 0.47674 0.64987 0.36393 0.0
C853 C 0.44481 0.64615 0.37293 0.0
C854 C 0.43717 0.63446 0.4021 0.0
C855 C 0.46215 0.62656 0.42228 0.0
H856 H 0.22781 0.11574 0.17547 0.0
H857 H 0.32166 0.15162 0.1864 0.0
H858 H 0.31303 0.15459 0.24319 0.0
H859 H 0.18791 0.15506 0.2319 0.0
H860 H 0.16302 0.12847 0.24626 0.0
H861 H 0.17707 0.12788 0.20656 0.0
H862 H 0.20217 0.0814 0.21565 0.0
H863 H 0.18803 0.08177 0.25536 0.0
H864 H 0.22992 0.07672 0.24737 0.0
H865 H 0.29306 0.15616 0.29831 0.0
H866 H 0.26404 0.15416 0.34844 0.0
H867 H 0.1837 0.11641 0.30192 0.0
C868 C 0.24669 0.12398 0.18982 0.0
C869 C 0.27541 0.13346 0.17642 0.0
C870 C 0.29946 0.14417 0.19607 0.0
C871 C 0.29479 0.14598 0.22838 0.0
C872 C 0.26604 0.13682 0.24076 0.0
C873 C 0.2425 0.12582 0.22216 0.0
C874 C 0.21358 0.11787 0.24133 0.0
C875 C 0.18363 0.13325 0.23089 0.0
C876 C 0.20812 0.08764 0.23984 0.0
C877 C 0.2244 0.12646 0.27352 0.0
C878 C 0.25472 0.13736 0.27267 0.0
C879 C 0.2694 0.14746 0.29933 0.0
C880 C 0.25269 0.14632 0.32767 0.0
C881 C 0.22166 0.13504 0.32914 0.0
C882 C 0.20748 0.12496 0.30163 0.0
H883 H 0.21868 0.88948 0.83671 0.0
H884 H 0.32106 0.8819 0.82191 0.0
H885 H 0.31237 0.88166 0.76505 0.0
H886 H 0.19463 0.84647 0.77516 0.0
H887 H 0.16029 0.866 0.76415 0.0
H888 H 0.17451 0.86674 0.80379 0.0
H889 H 0.17973 0.91804 0.80091 0.0
H890 H 0.16547 0.91748 0.76125 0.0
H891 H 0.2033 0.93286 0.77027 0.0
H892 H 0.29272 0.88017 0.71016 0.0
H893 H 0.26332 0.87844 0.66037 0.0
H894 H 0.17363 0.88763 0.71037 0.0
C895 C 0.2393 0.88796 0.82152 0.0
C896 C 0.27056 0.88573 0.8338 0.0
C897 C 0.29688 0.88369 0.81309 0.0
C898 C 0.29221 0.88354 0.78074 0.0
C899 C 0.2611 0.88557 0.76942 0.0
C900 C 0.23508 0.88786 0.78911 0.0
C901 C 0.2041 0.88923 0.77082 0.0
C902 C 0.1821 0.8657 0.77897 0.0
C903 C 0.18716 0.916 0.77613 0.0
C904 C 0.21679 0.88702 0.73781 0.0
C905 C 0.24974 0.88497 0.73758 0.0
C906 C 0.26692 0.88195 0.70999 0.0
C907 C 0.24998 0.88092 0.68183 0.0
C908 C 0.21617 0.88297 0.68144 0.0
C909 C 0.19947 0.88622 0.70986 0.0
H910 H 0.73563 0.87975 0.82322 0.0
H911 H 0.6704 0.81542 0.80023 0.0
H912 H 0.69323 0.81324 0.74722 0.0
H913 H 0.73365 0.91222 0.74811 0.0
H914 H 0.77549 0.92086 0.74879 0.0
H915 H 0.75364 0.91768 0.78483 0.0
H916 H 0.79492 0.88312 0.80456 0.0
H917 H 0.81686 0.88615 0.76857 0.0
H918 H 0.80309 0.85397 0.78136 0.0
H919 H 0.72342 0.81765 0.69695 0.0
H920 H 0.75904 0.8283 0.6528 0.0
H921 H 0.80492 0.88958 0.70852 0.0
C922 C 0.72604 0.86527 0.80702 0.0
C923 C 0.70118 0.84776 0.8159 0.0
C924 C 0.68944 0.82903 0.79401 0.0
C925 C 0.70224 0.82764 0.76381 0.0
C926 C 0.7268 0.84509 0.75587 0.0
C927 C 0.73861 0.86354 0.7768 0.0
C928 C 0.76542 0.87973 0.76247 0.0
C929 C 0.7565 0.90938 0.76096 0.0
C930 C 0.79694 0.87548 0.7803 0.0
C931 C 0.76682 0.86748 0.7302 0.0
C932 C 0.74432 0.84756 0.72689 0.0
C933 C 0.74112 0.83324 0.69924 0.0
C934 C 0.76149 0.83944 0.67429 0.0
C935 C 0.7848 0.85978 0.67714 0.0
C936 C 0.78737 0.87394 0.70554 0.0
H937 H 0.77405 0.17048 0.30908 0.0
H938 H 0.788 0.08613 0.32614 0.0
H939 H 0.76387 0.07591 0.27495 0.0
H940 H 0.69785 0.16453 0.27009 0.0
H941 H 0.70628 0.19072 0.24258 0.0
H942 H 0.72433 0.19135 0.28073 0.0
H943 H 0.78055 0.19413 0.25545 0.0
H944 H 0.76268 0.19349 0.21724 0.0
H945 H 0.79253 0.16917 0.22759 0.0
H946 H 0.73904 0.07493 0.22136 0.0
H947 H 0.71486 0.0833 0.16969 0.0
H948 H 0.7169 0.16824 0.188 0.0
C949 C 0.77197 0.14984 0.30214 0.0
C950 C 0.78295 0.12911 0.32167 0.0
C951 C 0.77977 0.10237 0.31162 0.0
C952 C 0.76609 0.09635 0.28256 0.0
C953 C 0.75564 0.11727 0.26385 0.0
C954 C 0.75835 0.14347 0.27325 0.0
C955 C 0.74544 0.16227 0.24868 0.0
C956 C 0.71677 0.17815 0.26128 0.0
C957 C 0.77188 0.18085 0.23653 0.0
C958 C 0.73515 0.14255 0.22393 0.0
C959 C 0.74123 0.1167 0.23311 0.0
C960 C 0.73409 0.09509 0.21396 0.0
C961 C 0.72038 0.10005 0.18464 0.0
C962 C 0.71392 0.12641 0.17477 0.0
C963 C 0.72142 0.14785 0.19483 0.0
H964 H 0.72562 0.62808 0.31189 0.0
H965 H 0.79531 0.57487 0.35374 0.0
H966 H 0.82077 0.56864 0.30239 0.0
H967 H 0.71727 0.59281 0.23886 0.0
H968 H 0.71405 0.62263 0.21573 0.0
H969 H 0.70076 0.62266 0.25571 0.0
H970 H 0.73811 0.6625 0.26765 0.0
H971 H 0.75151 0.66261 0.22771 0.0
H972 H 0.78019 0.6599 0.25895 0.0
H973 H 0.83882 0.56813 0.24708 0.0
H974 H 0.84933 0.57411 0.19103 0.0
H975 H 0.7686 0.62822 0.18451 0.0
C976 C 0.74616 0.61504 0.31022 0.0
C977 C 0.75844 0.60191 0.33685 0.0
C978 C 0.78548 0.58516 0.33372 0.0
C979 C 0.8001 0.58144 0.30463 0.0
C980 C 0.78746 0.59468 0.27891 0.0
C981 C 0.76119 0.61121 0.28136 0.0
C982 C 0.75283 0.62345 0.25005 0.0
C983 C 0.71923 0.61486 0.23947 0.0
C984 C 0.75585 0.65392 0.25117 0.0
C985 C 0.77855 0.6112 0.22967 0.0
C986 C 0.79815 0.59461 0.24684 0.0
C987 C 0.82365 0.58106 0.23335 0.0
C988 C 0.82939 0.5846 0.20145 0.0
C989 C 0.80981 0.60164 0.18331 0.0
C990 C 0.78399 0.61505 0.19771 0.0
H991 H 0.72337 0.34445 0.68155 0.0
H992 H 0.71344 0.4289 0.66228 0.0
H993 H 0.73568 0.43931 0.71402 0.0
H994 H 0.70205 0.3483 0.76358 0.0
H995 H 0.73053 0.32334 0.77539 0.0
H996 H 0.71341 0.32228 0.73683 0.0
H997 H 0.77023 0.32254 0.71272 0.0
H998 H 0.78752 0.32367 0.75119 0.0
H999 H 0.79769 0.34881 0.72289 0.0
H1000 H 0.76038 0.44093 0.76671 0.0
H1001 H 0.78448 0.43364 0.81842 0.0
H1002 H 0.77774 0.34819 0.8048 0.0
C1003 C 0.72576 0.36512 0.68827 0.0
C1004 C 0.71666 0.38585 0.66777 0.0
C1005 C 0.72018 0.41264 0.6775 0.0
C1006 C 0.73283 0.4188 0.70687 0.0
C1007 C 0.74174 0.39796 0.72638 0.0
C1008 C 0.73825 0.37166 0.71765 0.0
C1009 C 0.74982 0.35314 0.74322 0.0
C1010 C 0.72231 0.33574 0.75548 0.0
C1011 C 0.77799 0.33604 0.73181 0.0
C1012 C 0.76052 0.37319 0.76753 0.0
C1013 C 0.75568 0.39891 0.75722 0.0
C1014 C 0.76417 0.42089 0.77514 0.0
C1015 C 0.77792 0.41651 0.80448 0.0
C1016 C 0.78296 0.39035 0.81574 0.0
C1017 C 0.77405 0.36842 0.79694 0.0
H1018 H 0.275 0.32789 0.69402 0.0
H1019 H 0.2997 0.41128 0.68308 0.0
H1020 H 0.27899 0.42048 0.73592 0.0
H1021 H 0.20146 0.33873 0.73502 0.0
H1022 H 0.20626 0.31037 0.76032 0.0
H1023 H 0.22384 0.31017 0.72196 0.0
H1024 H 0.27944 0.3005 0.74612 0.0
H1025 H 0.26204 0.30068 0.78457 0.0
H1026 H 0.29508 0.32244 0.7757 0.0
H1027 H 0.25533 0.42072 0.78969 0.0
H1028 H 0.22928 0.41225 0.84033 0.0
H1029 H 0.21926 0.32876 0.81612 0.0
C1030 C 0.27621 0.34807 0.70277 0.0
C1031 C 0.28908 0.36886 0.68441 0.0
C1032 C 0.28996 0.39503 0.69668 0.0
C1033 C 0.2783 0.40045 0.72669 0.0
C1034 C 0.26573 0.37952 0.74412 0.0
C1035 C 0.26452 0.35387 0.73261 0.0
C1036 C 0.24917 0.33509 0.75588 0.0
C1037 C 0.21835 0.32288 0.74249 0.0
C1038 C 0.27285 0.3134 0.76618 0.0
C1039 C 0.24193 0.35421 0.78228 0.0
C1040 C 0.25177 0.37971 0.77503 0.0
C1041 C 0.24753 0.40083 0.79563 0.0
C1042 C 0.23271 0.39579 0.82437 0.0
C1043 C 0.22219 0.36983 0.83226 0.0
C1044 C 0.22703 0.34881 0.81085 0.0
H1045 H 0.28468 0.63049 0.30846 0.0
H1046 H 0.3016 0.71389 0.32909 0.0
H1047 H 0.27616 0.72637 0.27925 0.0
H1048 H 0.30128 0.63468 0.22662 0.0
H1049 H 0.27068 0.61122 0.21564 0.0
H1050 H 0.28942 0.60882 0.25336 0.0
H1051 H 0.2339 0.61137 0.28008 0.0
H1052 H 0.21497 0.61372 0.24243 0.0
H1053 H 0.20774 0.63893 0.2715 0.0
H1054 H 0.24908 0.72982 0.22723 0.0
H1055 H 0.22267 0.724 0.17619 0.0
H1056 H 0.22437 0.6383 0.18894 0.0
C1057 C 0.28289 0.65139 0.30259 0.0
C1058 C 0.29508 0.67123 0.32271 0.0
C1059 C 0.29247 0.69834 0.31404 0.0
C1060 C 0.27803 0.70564 0.2858 0.0
C1061 C 0.26644 0.68559 0.26643 0.0
C1062 C 0.26874 0.65902 0.2744 0.0
C1063 C 0.25485 0.64139 0.24914 0.0
C1064 C 0.2806 0.62295 0.23538 0.0
C1065 C 0.22616 0.62541 0.26153 0.0
C1066 C 0.24441 0.6622 0.22573 0.0
C1067 C 0.25122 0.68757 0.23621 0.0
C1068 C 0.24364 0.71006 0.21874 0.0
C1069 C 0.22864 0.70653 0.18978 0.0
C1070 C 0.22151 0.6807 0.17852 0.0
C1071 C 0.22962 0.6583 0.19681 0.0
loop_
_geom_bond_atom_site_label_1
_geom_bond_atom_site_label_2
_geom_bond_distance
_geom_bond_site_symmetry_2
_ccdc_geom_bond_type
C0 O1 1.160 . S
C0 O7 1.185 . S
O1 C0 1.160 . S
O2 Zn3 1.899 . S
O2 C10 1.284 . S
Zn3 O2 1.899 . S
Zn3 O4 2.032 . S
Zn3 O7 2.086 . S
Zn3 O12 1.977 . S
O4 Zn3 2.032 . S
O4 C8 1.278 . S
C5 O6 1.203 . S
C5 O12 1.267 . S
O6 C5 1.203 . S
O7 C0 1.185 . S
O7 Zn3 2.086 . S
C8 O4 1.278 . S
C8 O9 1.211 . S
O9 C8 1.211 . S
C10 O2 1.284 . S
C10 O11 1.273 . S
O11 C10 1.273 . S
O12 Zn3 1.977 . S
O12 C5 1.267 . S
C13 O14 1.160 . S
C13 O20 1.185 . S
O14 C13 1.160 . S
O15 Zn16 1.899 . S
O15 C23 1.284 . S
Zn16 O15 1.899 . S
Zn16 O17 2.032 . S
Zn16 O20 2.086 . S
Zn16 O25 1.977 . S
O17 Zn16 2.032 . S
O17 C21 1.278 . S
C18 O19 1.203 . S
C18 O25 1.267 . S
O19 C18 1.203 . S
O20 C13 1.185 . S
O20 Zn16 2.086 . S
C21 O17 1.278 . S
C21 O22 1.211 . S
O22 C21 1.211 . S
C23 O15 1.284 . S
C23 O24 1.273 . S
O24 C23 1.273 . S
O25 Zn16 1.977 . S
O25 C18 1.267 . S
C26 O27 1.160 . S
C26 O33 1.185 . S
O27 C26 1.160 . S
O28 Zn29 1.899 . S
O28 C36 1.284 . S
Zn29 O28 1.899 . S
Zn29 O30 2.032 . S
Zn29 O33 2.086 . S
Zn29 O38 1.977 . S
O30 Zn29 2.032 . S
O30 C34 1.278 . S
C31 O32 1.203 . S
C31 O38 1.267 . S
O32 C31 1.203 . S
O33 C26 1.185 . S
O33 Zn29 2.086 . S
C34 O30 1.278 . S
C34 O35 1.211 . S
O35 C34 1.211 . S
C36 O28 1.284 . S
C36 O37 1.273 . S
O37 C36 1.273 . S
O38 Zn29 1.977 . S
O38 C31 1.267 . S
C39 O40 1.160 . S
C39 O46 1.185 . S
O40 C39 1.160 . S
O41 Zn42 1.899 . S
O41 C49 1.284 . S
Zn42 O41 1.899 . S
Zn42 O43 2.032 . S
Zn42 O46 2.086 . S
Zn42 O51 1.977 . S
O43 Zn42 2.032 . S
O43 C47 1.278 . S
C44 O45 1.203 . S
C44 O51 1.267 . S
O45 C44 1.203 . S
O46 C39 1.185 . S
O46 Zn42 2.086 . S
C47 O43 1.278 . S
C47 O48 1.211 . S
O48 C47 1.211 . S
C49 O41 1.284 . S
C49 O50 1.273 . S
O50 C49 1.273 . S
O51 Zn42 1.977 . S
O51 C44 1.267 . S
C52 O53 1.160 . S
C52 O59 1.185 . S
O53 C52 1.160 . S
O54 Zn55 1.899 . S
O54 C62 1.284 . S
Zn55 O54 1.899 . S
Zn55 O56 2.032 . S
Zn55 O59 2.086 . S
Zn55 O64 1.977 . S
O56 Zn55 2.032 . S
O56 C60 1.278 . S
C57 O58 1.203 . S
C57 O64 1.267 . S
O58 C57 1.203 . S
O59 C52 1.185 . S
O59 Zn55 2.086 . S
C60 O56 1.278 . S
C60 O61 1.211 . S
O61 C60 1.211 . S
C62 O54 1.284 . S
C62 O63 1.273 . S
O63 C62 1.273 . S
O64 Zn55 1.977 . S
O64 C57 1.267 . S
C65 O66 1.160 . S
C65 O72 1.185 . S
O66 C65 1.160 . S
O67 Zn68 1.899 . S
O67 C75 1.284 . S
Zn68 O67 1.899 . S
Zn68 O69 2.032 . S
Zn68 O72 2.086 . S
Zn68 O77 1.977 . S
O69 Zn68 2.032 . S
O69 C73 1.278 . S
C70 O71 1.203 . S
C70 O77 1.267 . S
O71 C70 1.203 . S
O72 C65 1.185 . S
O72 Zn68 2.086 . S
C73 O69 1.278 . S
C73 O74 1.211 . S
O74 C73 1.211 . S
C75 O67 1.284 . S
C75 O76 1.273 . S
O76 C75 1.273 . S
O77 Zn68 1.977 . S
O77 C70 1.267 . S
C78 O79 1.160 . S
C78 O85 1.185 . S
O79 C78 1.160 . S
O80 Zn81 1.899 . S
O80 C88 1.284 . S
Zn81 O80 1.899 . S
Zn81 O82 2.032 . S
Zn81 O85 2.086 . S
Zn81 O90 1.977 . S
O82 Zn81 2.032 . S
O82 C86 1.278 . S
C83 O84 1.203 . S
C83 O90 1.267 . S
O84 C83 1.203 . S
O85 C78 1.185 . S
O85 Zn81 2.086 . S
C86 O82 1.278 . S
C86 O87 1.211 . S
O87 C86 1.211 . S
C88 O80 1.284 . S
C88 O89 1.273 . S
O89 C88 1.273 . S
O90 Zn81 1.977 . S
O90 C83 1.267 . S
C91 O92 1.160 . S
C91 O98 1.185 . S
O92 C91 1.160 . S
O93 Zn94 1.899 . S
O93 C101 1.284 . S
Zn94 O93 1.899 . S
Zn94 O95 2.032 . S
Zn94 O98 2.086 . S
Zn94 O103 1.977 . S
O95 Zn94 2.032 . S
O95 C99 1.278 . S
C96 O97 1.203 . S
C96 O103 1.267 . S
O97 C96 1.203 . S
O98 C91 1.185 . S
O98 Zn94 2.086 . S
C99 O95 1.278 . S
C99 O100 1.211 . S
O100 C99 1.211 . S
C101 O93 1.284 . S
C101 O102 1.273 . S
O102 C101 1.273 . S
O103 Zn94 1.977 . S
O103 C96 1.267 . S
C104 O105 1.160 . S
C104 O111 1.185 . S
O105 C104 1.160 . S
O106 Zn107 1.899 . S
O106 C114 1.284 . S
Zn107 O106 1.899 . S
Zn107 O108 2.032 . S
Zn107 O111 2.086 . S
Zn107 O116 1.977 . S
O108 Zn107 2.032 . S
O108 C112 1.278 . S
C109 O110 1.203 . S
C109 O116 1.267 . S
O110 C109 1.203 . S
O111 C104 1.185 . S
O111 Zn107 2.086 . S
C112 O108 1.278 . S
C112 O113 1.211 . S
O113 C112 1.211 . S
C114 O106 1.284 . S
C114 O115 1.273 . S
O115 C114 1.273 . S
O116 Zn107 1.977 . S
O116 C109 1.267 . S
C117 O118 1.160 . S
C117 O124 1.185 . S
O118 C117 1.160 . S
O119 Zn120 1.899 . S
O119 C127 1.284 . S
Zn120 O119 1.899 . S
Zn120 O121 2.032 . S
Zn120 O124 2.086 . S
Zn120 O129 1.977 . S
O121 Zn120 2.032 . S
O121 C125 1.278 . S
C122 O123 1.203 . S
C122 O129 1.267 . S
O123 C122 1.203 . S
O124 C117 1.185 . S
O124 Zn120 2.086 . S
C125 O121 1.278 . S
C125 O126 1.211 . S
O126 C125 1.211 . S
C127 O119 1.284 . S
C127 O128 1.273 . S
O128 C127 1.273 . S
O129 Zn120 1.977 . S
O129 C122 1.267 . S
C130 O131 1.160 . S
C130 O137 1.185 . S
O131 C130 1.160 . S
O132 Zn133 1.899 . S
O132 C140 1.284 . S
Zn133 O132 1.899 . S
Zn133 O134 2.032 . S
Zn133 O137 2.086 . S
Zn133 O142 1.977 . S
O134 Zn133 2.032 . S
O134 C138 1.278 . S
C135 O136 1.203 . S
C135 O142 1.267 . S
O136 C135 1.203 . S
O137 C130 1.185 . S
O137 Zn133 2.086 . S
C138 O134 1.278 . S
C138 O139 1.211 . S
O139 C138 1.211 . S
C140 O132 1.284 . S
C140 O141 1.273 . S
O141 C140 1.273 . S
O142 Zn133 1.977 . S
O142 C135 1.267 . S
C143 O144 1.160 . S
C143 O150 1.185 . S
O144 C143 1.160 . S
O145 Zn146 1.899 . S
O145 C153 1.284 . S
Zn146 O145 1.899 . S
Zn146 O147 2.032 . S
Zn146 O150 2.086 . S
Zn146 O155 1.977 . S
O147 Zn146 2.032 . S
O147 C151 1.278 . S
C148 O149 1.203 . S
C148 O155 1.267 . S
O149 C148 1.203 . S
O150 C143 1.185 . S
O150 Zn146 2.086 . S
C151 O147 1.278 . S
C151 O152 1.211 . S
O152 C151 1.211 . S
C153 O145 1.284 . S
C153 O154 1.273 . S
O154 C153 1.273 . S
O155 Zn146 1.977 . S
O155 C148 1.267 . S
C156 O157 1.160 . S
C156 O163 1.185 . S
O157 C156 1.160 . S
O158 Zn159 1.899 . S
O158 C166 1.284 . S
Zn159 O158 1.899 . S
Zn159 O160 2.032 . S
Zn159 O163 2.086 . S
Zn159 O168 1.977 . S
O160 Zn159 2.032 . S
O160 C164 1.278 . S
C161 O162 1.203 . S
C161 O168 1.267 . S
O162 C161 1.203 . S
O163 C156 1.185 . S
O163 Zn159 2.086 . S
C164 O160 1.278 . S
C164 O165 1.211 . S
O165 C164 1.211 . S
C166 O158 1.284 . S
C166 O167 1.273 . S
O167 C166 1.273 . S
O168 Zn159 1.977 . S
O168 C161 1.267 . S
C169 O170 1.160 . S
C169 O176 1.185 . S
O170 C169 1.160 . S
O171 Zn172 1.899 . S
O171 C179 1.284 . S
Zn172 O171 1.899 . S
Zn172 O173 2.032 . S
Zn172 O176 2.086 . S
Zn172 O181 1.977 . S
O173 Zn172 2.032 . S
O173 C177 1.278 . S
C174 O175 1.203 . S
C174 O181 1.267 . S
O175 C174 1.203 . S
O176 C169 1.185 . S
O176 Zn172 2.086 . S
C177 O173 1.278 . S
C177 O178 1.211 . S
O178 C177 1.211 . S
C179 O171 1.284 . S
C179 O180 1.273 . S
O180 C179 1.273 . S
O181 Zn172 1.977 . S
O181 C174 1.267 . S
C182 O183 1.160 . S
C182 O189 1.185 . S
O183 C182 1.160 . S
O184 Zn185 1.899 . S
O184 C192 1.284 . S
Zn185 O184 1.899 . S
Zn185 O186 2.032 . S
Zn185 O189 2.086 . S
Zn185 O194 1.977 . S
O186 Zn185 2.032 . S
O186 C190 1.278 . S
C187 O188 1.203 . S
C187 O194 1.267 . S
O188 C187 1.203 . S
O189 C182 1.185 . S
O189 Zn185 2.086 . S
C190 O186 1.278 . S
C190 O191 1.211 . S
O191 C190 1.211 . S
C192 O184 1.284 . S
C192 O193 1.273 . S
O193 C192 1.273 . S
O194 Zn185 1.977 . S
O194 C187 1.267 . S
C195 O196 1.160 . S
C195 O202 1.185 . S
O196 C195 1.160 . S
O197 Zn198 1.899 . S
O197 C205 1.284 . S
Zn198 O197 1.899 . S
Zn198 O199 2.032 . S
Zn198 O202 2.086 . S
Zn198 O207 1.977 . S
O199 Zn198 2.032 . S
O199 C203 1.278 . S
C200 O201 1.203 . S
C200 O207 1.267 . S
O201 C200 1.203 . S
O202 C195 1.185 . S
O202 Zn198 2.086 . S
C203 O199 1.278 . S
C203 O204 1.211 . S
O204 C203 1.211 . S
C205 O197 1.284 . S
C205 O206 1.273 . S
O206 C205 1.273 . S
O207 Zn198 1.977 . S
O207 C200 1.267 . S
H208 C220 0.920 1_556 S
H209 C222 0.930 . S
H210 C223 0.930 . S
H211 C227 0.959 . S
H212 C227 0.959 . S
H213 C227 0.961 . S
H214 C228 0.960 . S
H215 C228 0.961 . S
H216 C228 0.959 . S
H217 C231 0.929 . S
H218 C232 0.931 . S
H219 C234 0.930 . S
C220 H208 0.920 1_554 S
C220 C221 1.399 . S
C220 C225 1.409 . S
C221 C220 1.399 . S
C221 C222 1.376 . S
C222 H209 0.930 . S
C222 C221 1.376 . S
C222 C223 1.388 . S
C223 H210 0.930 . S
C223 C222 1.388 . S
C223 C224 1.390 . S
C224 C223 1.390 . S
C224 C225 1.410 . S
C224 C230 1.465 . S
C225 C220 1.409 . S
C225 C224 1.410 . S
C225 C226 1.491 1_554 S
C226 C225 1.491 1_556 S
C226 C227 1.502 . S
C226 C228 1.561 . S
C226 C229 1.526 . S
C227 H211 0.959 . S
C227 H212 0.959 . S
C227 H213 0.961 . S
C227 C226 1.502 . S
C228 H214 0.960 . S
C228 H215 0.961 . S
C228 H216 0.959 . S
C228 C226 1.561 . S
C229 C226 1.526 . S
C229 C230 1.396 1_556 S
C229 C234 1.390 . S
C230 C224 1.465 . S
C230 C229 1.396 1_554 S
C230 C231 1.399 . S
C231 H217 0.929 . S
C231 C230 1.399 . S
C231 C232 1.385 1_554 S
C232 H218 0.931 . S
C232 C231 1.385 1_556 S
C232 C233 1.389 . S
C233 C232 1.389 . S
C233 C234 1.387 . S
C234 H219 0.930 . S
C234 C229 1.390 . S
C234 C233 1.387 . S
H235 C247 0.930 . S
H236 C249 0.930 . S
H237 C250 0.930 . S
H238 C254 0.959 . S
H239 C254 0.959 . S
H240 C254 0.961 . S
H241 C255 0.960 . S
H242 C255 0.961 . S
H243 C255 0.959 . S
H244 C258 0.929 . S
H245 C259 0.931 . S
H246 C261 0.930 . S
C247 H235 0.930 . S
C247 C248 1.399 . S
C247 C252 1.399 . S
C248 C247 1.399 . S
C248 C249 1.376 . S
C249 H236 0.930 . S
C249 C248 1.376 . S
C249 C250 1.388 . S
C250 H237 0.930 . S
C250 C249 1.388 . S
C250 C251 1.390 . S
C251 C250 1.390 . S
C251 C252 1.394 . S
C251 C257 1.465 . S
C252 C247 1.399 . S
C252 C251 1.394 . S
C252 C253 1.516 . S
C253 C252 1.516 . S
C253 C254 1.502 . S
C253 C255 1.561 . S
C253 C256 1.526 . S
C254 H238 0.959 . S
C254 H239 0.959 . S
C254 H240 0.961 . S
C254 C253 1.502 . S
C255 H241 0.960 . S
C255 H242 0.961 . S
C255 H243 0.959 . S
C255 C253 1.561 . S
C256 C253 1.526 . S
C256 C257 1.396 . S
C256 C261 1.390 . S
C257 C251 1.465 . S
C257 C256 1.396 . S
C257 C258 1.399 . S
C258 H244 0.929 . S
C258 C257 1.399 . S
C258 C259 1.385 . S
C259 H245 0.931 . S
C259 C258 1.385 . S
C259 C260 1.389 . S
C260 C259 1.389 . S
C260 C261 1.387 . S
C261 H246 0.930 . S
C261 C256 1.390 . S
C261 C260 1.387 . S
H262 C274 0.930 1_554 S
H263 C276 0.930 . S
H264 C277 0.930 . S
H265 C281 0.959 . S
H266 C281 0.959 . S
H267 C281 0.961 . S
H268 C282 0.960 . S
H269 C282 0.961 . S
H270 C282 0.959 . S
H271 C285 0.929 . S
H272 C286 0.938 . S
H273 C288 0.930 . S
C274 H262 0.930 1_556 S
C274 C275 1.399 . S
C274 C279 1.405 . S
C275 C274 1.399 . S
C275 C276 1.376 . S
C276 H263 0.930 . S
C276 C275 1.376 . S
C276 C277 1.388 . S
C277 H264 0.930 . S
C277 C276 1.388 . S
C277 C278 1.390 . S
C278 C277 1.390 . S
C278 C279 1.404 . S
C278 C284 1.465 . S
C279 C274 1.405 . S
C279 C278 1.404 . S
C279 C280 1.501 1_556 S
C280 C279 1.501 1_554 S
C280 C281 1.502 . S
C280 C282 1.561 . S
C280 C283 1.526 . S
C281 H265 0.959 . S
C281 H266 0.959 . S
C281 H267 0.961 . S
C281 C280 1.502 . S
C282 H268 0.960 . S
C282 H269 0.961 . S
C282 H270 0.959 . S
C282 C280 1.561 . S
C283 C280 1.526 . S
C283 C284 1.396 1_554 S
C283 C288 1.390 . S
C284 C278 1.465 . S
C284 C283 1.396 1_556 S
C284 C285 1.399 . S
C285 H271 0.929 . S
C285 C284 1.399 . S
C285 C286 1.385 1_556 S
C286 H272 0.938 . S
C286 C285 1.385 1_554 S
C286 C287 1.389 . S
C287 C286 1.389 . S
C287 C288 1.387 . S
C288 H273 0.930 . S
C288 C283 1.390 . S
C288 C287 1.387 . S
H289 C301 0.930 . S
H290 C303 0.930 . S
H291 C304 0.930 . S
H292 C308 0.959 . S
H293 C308 0.959 . S
H294 C308 0.961 . S
H295 C309 0.960 . S
H296 C309 0.961 . S
H297 C309 0.959 . S
H298 C312 0.929 . S
H299 C313 0.931 . S
H300 C315 0.930 . S
C301 H289 0.930 . S
C301 C302 1.399 . S
C301 C306 1.399 . S
C302 C301 1.399 . S
C302 C303 1.376 . S
C303 H290 0.930 . S
C303 C302 1.376 . S
C303 C304 1.388 . S
C304 H291 0.930 . S
C304 C303 1.388 . S
C304 C305 1.390 . S
C305 C304 1.390 . S
C305 C306 1.394 . S
C305 C311 1.465 . S
C306 C301 1.399 . S
C306 C305 1.394 . S
C306 C307 1.516 . S
C307 C306 1.516 . S
C307 C308 1.502 . S
C307 C309 1.561 . S
C307 C310 1.526 . S
C308 H292 0.959 . S
C308 H293 0.959 . S
C308 H294 0.961 . S
C308 C307 1.502 . S
C309 H295 0.960 . S
C309 H296 0.961 . S
C309 H297 0.959 . S
C309 C307 1.561 . S
C310 C307 1.526 . S
C310 C311 1.396 . S
C310 C315 1.390 . S
C311 C305 1.465 . S
C311 C310 1.396 . S
C311 C312 1.399 . S
C312 H298 0.929 . S
C312 C311 1.399 . S
C312 C313 1.385 . S
C313 H299 0.931 . S
C313 C312 1.385 . S
C313 C314 1.389 . S
C314 C313 1.389 . S
C314 C315 1.387 . S
C315 H300 0.930 . S
C315 C310 1.390 . S
C315 C314 1.387 . S
H316 C328 0.930 . S
H317 C330 0.931 1_556 S
H318 C331 0.930 . S
H319 C335 0.959 . S
H320 C335 0.959 . S
H321 C335 0.961 . S
H322 C336 0.960 . S
H323 C336 0.961 . S
H324 C336 0.959 . S
H325 C339 0.929 . S
H326 C340 0.931 . S
H327 C342 0.930 1_554 S
C328 H316 0.930 . S
C328 C329 1.399 . S
C328 C333 1.399 . S
C329 C328 1.399 . S
C329 C330 1.376 . S
C330 H317 0.931 1_554 S
C330 C329 1.376 . S
C330 C331 1.388 1_554 S
C331 H318 0.930 . S
C331 C330 1.388 1_556 S
C331 C332 1.390 . S
C332 C331 1.390 . S
C332 C333 1.394 1_556 S
C332 C338 1.465 . S
C333 C328 1.399 . S
C333 C332 1.394 1_554 S
C333 C334 1.516 . S
C334 C333 1.516 . S
C334 C335 1.502 . S
C334 C336 1.561 . S
C334 C337 1.526 1_554 S
C335 H319 0.959 . S
C335 H320 0.959 . S
C335 H321 0.961 . S
C335 C334 1.502 . S
C336 H322 0.960 . S
C336 H323 0.961 . S
C336 H324 0.959 . S
C336 C334 1.561 . S
C337 C334 1.526 1_556 S
C337 C338 1.396 . S
C337 C342 1.390 . S
C338 C332 1.465 . S
C338 C337 1.396 . S
C338 C339 1.399 . S
C339 H325 0.929 . S
C339 C338 1.399 . S
C339 C340 1.385 . S
C340 H326 0.931 . S
C340 C339 1.385 . S
C340 C341 1.389 . S
C341 C340 1.389 . S
C341 C342 1.387 . S
C342 H327 0.930 1_556 S
C342 C337 1.390 . S
C342 C341 1.387 . S
H343 C355 0.930 . S
H344 C357 0.930 . S
H345 C358 0.930 . S
H346 C362 0.959 . S
H347 C362 0.959 . S
H348 C362 0.961 . S
H349 C363 0.960 . S
H350 C363 0.961 . S
H351 C363 0.959 . S
H352 C366 0.929 . S
H353 C367 0.931 . S
H354 C369 0.930 . S
C355 H343 0.930 . S
C355 C356 1.399 . S
C355 C360 1.399 . S
C356 C355 1.399 . S
C356 C357 1.376 . S
C357 H344 0.930 . S
C357 C356 1.376 . S
C357 C358 1.388 . S
C358 H345 0.930 . S
C358 C357 1.388 . S
C358 C359 1.390 . S
C359 C358 1.390 . S
C359 C360 1.394 . S
C359 C365 1.465 . S
C360 C355 1.399 . S
C360 C359 1.394 . S
C360 C361 1.516 . S
C361 C360 1.516 . S
C361 C362 1.502 . S
C361 C363 1.561 . S
C361 C364 1.526 . S
C362 H346 0.959 . S
C362 H347 0.959 . S
C362 H348 0.961 . S
C362 C361 1.502 . S
C363 H349 0.960 . S
C363 H350 0.961 . S
C363 H351 0.959 . S
C363 C361 1.561 . S
C364 C361 1.526 . S
C364 C365 1.396 . S
C364 C369 1.390 . S
C365 C359 1.465 . S
C365 C364 1.396 . S
C365 C366 1.399 . S
C366 H352 0.929 . S
C366 C365 1.399 . S
C366 C367 1.385 . S
C367 H353 0.931 . S
C367 C366 1.385 . S
C367 C368 1.389 . S
C368 C367 1.389 . S
C368 C369 1.387 . S
C369 H354 0.930 . S
C369 C364 1.390 . S
C369 C368 1.387 . S
H370 C382 0.930 . S
H371 C384 0.930 . S
H372 C385 0.930 . S
H373 C389 0.959 . S
H374 C389 0.959 . S
H375 C389 0.961 . S
H376 C390 0.960 . S
H377 C390 0.961 . S
H378 C390 0.959 . S
H379 C393 0.929 . S
H380 C394 0.931 . S
H381 C396 0.930 . S
C382 H370 0.930 . S
C382 C383 1.399 . S
C382 C387 1.399 . S
C383 C382 1.399 . S
C383 C384 1.376 . S
C384 H371 0.930 . S
C384 C383 1.376 . S
C384 C385 1.388 1_556 S
C385 H372 0.930 . S
C385 C384 1.388 1_554 S
C385 C386 1.390 . S
C386 C385 1.390 . S
C386 C387 1.394 1_554 S
C386 C392 1.465 . S
C387 C382 1.399 . S
C387 C386 1.394 1_556 S
C387 C388 1.516 . S
C388 C387 1.516 . S
C388 C389 1.502 . S
C388 C390 1.561 . S
C388 C391 1.526 1_556 S
C389 H373 0.959 . S
C389 H374 0.959 . S
C389 H375 0.961 . S
C389 C388 1.502 . S
C390 H376 0.960 . S
C390 H377 0.961 . S
C390 H378 0.959 . S
C390 C388 1.561 . S
C391 C388 1.526 1_554 S
C391 C392 1.396 . S
C391 C396 1.390 . S
C392 C386 1.465 . S
C392 C391 1.396 . S
C392 C393 1.399 . S
C393 H379 0.929 . S
C393 C392 1.399 . S
C393 C394 1.385 . S
C394 H380 0.931 . S
C394 C393 1.385 . S
C394 C395 1.389 . S
C395 C394 1.389 . S
C395 C396 1.387 . S
C396 H381 0.930 . S
C396 C391 1.390 . S
C396 C395 1.387 . S
H397 C409 0.930 . S
H398 C411 0.930 . S
H399 C412 0.930 . S
H400 C416 0.959 . S
H401 C416 0.959 . S
H402 C416 0.961 . S
H403 C417 0.960 . S
H404 C417 0.961 . S
H405 C417 0.959 . S
H406 C420 0.929 . S
H407 C421 0.931 . S
H408 C423 0.930 . S
C409 H397 0.930 . S
C409 C410 1.399 . S
C409 C414 1.399 . S
C410 C409 1.399 . S
C410 C411 1.376 . S
C411 H398 0.930 . S
C411 C410 1.376 . S
C411 C412 1.388 . S
C412 H399 0.930 . S
C412 C411 1.388 . S
C412 C413 1.390 . S
C413 C412 1.390 . S
C413 C414 1.394 . S
C413 C419 1.465 . S
C414 C409 1.399 . S
C414 C413 1.394 . S
C414 C415 1.516 . S
C415 C414 1.516 . S
C415 C416 1.502 . S
C415 C417 1.561 . S
C415 C418 1.526 . S
C416 H400 0.959 . S
C416 H401 0.959 . S
C416 H402 0.961 . S
C416 C415 1.502 . S
C417 H403 0.960 . S
C417 H404 0.961 . S
C417 H405 0.959 . S
C417 C415 1.561 . S
C418 C415 1.526 . S
C418 C419 1.396 . S
C418 C423 1.390 . S
C419 C413 1.465 . S
C419 C418 1.396 . S
C419 C420 1.399 . S
C420 H406 0.929 . S
C420 C419 1.399 . S
C420 C421 1.385 . S
C421 H407 0.931 . S
C421 C420 1.385 . S
C421 C422 1.389 . S
C422 C421 1.389 . S
C422 C423 1.387 . S
C423 H408 0.930 . S
C423 C418 1.390 . S
C423 C422 1.387 . S
H424 C436 0.930 . S
H425 C438 0.930 . S
H426 C439 0.930 . S
H427 C443 0.959 . S
H428 C443 0.959 . S
H429 C443 0.961 . S
H430 C444 0.960 . S
H431 C444 0.961 . S
H432 C444 0.959 . S
H433 C447 0.929 1_545 S
H434 C448 0.931 . S
H435 C450 0.949 . S
C436 H424 0.930 . S
C436 C437 1.399 . S
C436 C441 1.399 . S
C437 C436 1.399 . S
C437 C438 1.376 . S
C438 H425 0.930 . S
C438 C437 1.376 . S
C438 C439 1.388 1_554 S
C439 H426 0.930 . S
C439 C438 1.388 1_556 S
C439 C440 1.390 . S
C440 C439 1.390 . S
C440 C441 1.394 1_556 S
C440 C446 1.465 1_545 S
C441 C436 1.399 . S
C441 C440 1.394 1_554 S
C441 C442 1.516 1_545 S
C442 C441 1.516 1_565 S
C442 C443 1.502 . S
C442 C444 1.561 . S
C442 C445 1.526 1_554 S
C443 H427 0.959 . S
C443 H428 0.959 . S
C443 H429 0.961 . S
C443 C442 1.502 . S
C444 H430 0.960 . S
C444 H431 0.961 . S
C444 H432 0.959 . S
C444 C442 1.561 . S
C445 C442 1.526 1_556 S
C445 C446 1.396 . S
C445 C450 1.390 . S
C446 C440 1.465 1_565 S
C446 C445 1.396 . S
C446 C447 1.399 . S
C447 H433 0.929 1_565 S
C447 C446 1.399 . S
C447 C448 1.385 . S
C448 H434 0.931 . S
C448 C447 1.385 . S
C448 C449 1.389 . S
C449 C448 1.389 . S
C449 C450 1.387 . S
C450 H435 0.949 . S
C450 C445 1.390 . S
C450 C449 1.387 . S
H451 C463 0.930 . S
H452 C465 0.930 . S
H453 C466 0.930 . S
H454 C470 0.959 . S
H455 C470 0.959 . S
H456 C470 0.962 . S
H457 C471 0.960 . S
H458 C471 0.961 . S
H459 C471 0.959 . S
H460 C474 0.929 . S
H461 C475 0.931 . S
H462 C477 0.930 . S
C463 H451 0.930 . S
C463 C464 1.399 . S
C463 C468 1.399 . S
C464 C463 1.399 . S
C464 C465 1.376 . S
C465 H452 0.930 . S
C465 C464 1.376 . S
C465 C466 1.388 . S
C466 H453 0.930 . S
C466 C465 1.388 . S
C466 C467 1.390 . S
C467 C466 1.390 . S
C467 C468 1.394 . S
C467 C473 1.465 1_565 S
C468 C463 1.399 . S
C468 C467 1.394 . S
C468 C469 1.516 1_565 S
C469 C468 1.516 1_545 S
C469 C470 1.502 . S
C469 C471 1.561 . S
C469 C472 1.526 . S
C470 H454 0.959 . S
C470 H455 0.959 . S
C470 H456 0.962 . S
C470 C469 1.502 . S
C471 H457 0.960 . S
C471 H458 0.961 . S
C471 H459 0.959 . S
C471 C469 1.561 . S
C472 C469 1.526 . S
C472 C473 1.396 . S
C472 C477 1.390 . S
C473 C467 1.465 1_545 S
C473 C472 1.396 . S
C473 C474 1.399 . S
C474 H460 0.929 . S
C474 C473 1.399 . S
C474 C475 1.385 . S
C475 H461 0.931 . S
C475 C474 1.385 . S
C475 C476 1.389 . S
C476 C475 1.389 . S
C476 C477 1.387 . S
C477 H462 0.930 . S
C477 C472 1.390 . S
C477 C476 1.387 . S
H478 C490 0.930 . S
H479 C492 0.930 . S
H480 C493 0.930 . S
H481 C497 0.959 . S
H482 C497 0.959 1_545 S
H483 C497 0.961 . S
H484 C498 0.960 . S
H485 C498 0.961 . S
H486 C498 0.959 . S
H487 C501 0.929 . S
H488 C502 0.931 . S
H489 C504 0.930 . S
C490 H478 0.930 . S
C490 C491 1.399 . S
C490 C495 1.399 . S
C491 C490 1.399 . S
C491 C492 1.376 . S
C492 H479 0.930 . S
C492 C491 1.376 . S
C492 C493 1.388 . S
C493 H480 0.930 . S
C493 C492 1.388 . S
C493 C494 1.390 . S
C494 C493 1.390 . S
C494 C495 1.394 . S
C494 C500 1.465 1_566 S
C495 C490 1.399 . S
C495 C494 1.394 . S
C495 C496 1.516 1_565 S
C496 C495 1.516 1_545 S
C496 C497 1.502 1_546 S
C496 C498 1.561 . S
C496 C499 1.526 1_556 S
C497 H481 0.959 . S
C497 H482 0.959 1_565 S
C497 H483 0.961 . S
C497 C496 1.502 1_564 S
C498 H484 0.960 . S
C498 H485 0.961 . S
C498 H486 0.959 . S
C498 C496 1.561 . S
C499 C496 1.526 1_554 S
C499 C500 1.396 . S
C499 C504 1.390 . S
C500 C494 1.465 1_544 S
C500 C499 1.396 . S
C500 C501 1.399 . S
C501 H487 0.929 . S
C501 C500 1.399 . S
C501 C502 1.385 . S
C502 H488 0.931 . S
C502 C501 1.385 . S
C502 C503 1.389 . S
C503 C502 1.389 . S
C503 C504 1.387 . S
C504 H489 0.930 . S
C504 C499 1.390 . S
C504 C503 1.387 . S
H505 C517 0.930 . S
H506 C519 0.930 . S
H507 C520 0.930 . S
H508 C524 0.959 . S
H509 C524 0.959 . S
H510 C524 0.961 . S
H511 C525 0.960 . S
H512 C525 0.961 . S
H513 C525 0.959 . S
H514 C528 0.943 . S
H515 C529 0.931 . S
H516 C531 0.930 . S
C517 H505 0.930 . S
C517 C518 1.399 . S
C517 C522 1.399 . S
C518 C517 1.399 . S
C518 C519 1.376 . S
C519 H506 0.930 . S
C519 C518 1.376 . S
C519 C520 1.388 . S
C520 H507 0.930 . S
C520 C519 1.388 . S
C520 C521 1.390 . S
C521 C520 1.390 . S
C521 C522 1.394 . S
C521 C527 1.465 1_545 S
C522 C517 1.399 . S
C522 C521 1.394 . S
C522 C523 1.516 1_545 S
C523 C522 1.516 1_565 S
C523 C524 1.502 . S
C523 C525 1.561 . S
C523 C526 1.526 . S
C524 H508 0.959 . S
C524 H509 0.959 . S
C524 H510 0.961 . S
C524 C523 1.502 . S
C525 H511 0.960 . S
C525 H512 0.961 . S
C525 H513 0.959 . S
C525 C523 1.561 . S
C526 C523 1.526 . S
C526 C527 1.396 . S
C526 C531 1.390 . S
C527 C521 1.465 1_565 S
C527 C526 1.396 . S
C527 C528 1.399 . S
C528 H514 0.943 . S
C528 C527 1.399 . S
C528 C529 1.385 . S
C529 H515 0.931 . S
C529 C528 1.385 . S
C529 C530 1.389 . S
C530 C529 1.389 . S
C530 C531 1.387 . S
C531 H516 0.930 . S
C531 C526 1.390 . S
C531 C530 1.387 . S
H532 C544 0.930 . S
H533 C546 0.930 . S
H534 C547 0.930 . S
H535 C551 0.959 . S
H536 C551 0.959 . S
H537 C551 0.961 . S
H538 C552 0.960 . S
H539 C552 0.961 . S
H540 C552 0.959 . S
H541 C555 0.929 . S
H542 C556 0.931 . S
H543 C558 0.930 . S
C544 H532 0.930 . S
C544 C545 1.399 . S
C544 C549 1.399 . S
C545 C544 1.399 . S
C545 C546 1.376 . S
C546 H533 0.930 . S
C546 C545 1.376 . S
C546 C547 1.388 1_556 S
C547 H534 0.930 . S
C547 C546 1.388 1_554 S
C547 C548 1.390 . S
C548 C547 1.390 . S
C548 C549 1.394 1_554 S
C548 C554 1.465 . S
C549 C544 1.399 . S
C549 C548 1.394 1_556 S
C549 C550 1.516 . S
C550 C549 1.516 . S
C550 C551 1.502 . S
C550 C552 1.561 . S
C550 C553 1.526 1_556 S
C551 H535 0.959 . S
C551 H536 0.959 . S
C551 H537 0.961 . S
C551 C550 1.502 . S
C552 H538 0.960 . S
C552 H539 0.961 . S
C552 H540 0.959 . S
C552 C550 1.561 . S
C553 C550 1.526 1_554 S
C553 C554 1.396 . S
C553 C558 1.390 . S
C554 C548 1.465 . S
C554 C553 1.396 . S
C554 C555 1.399 . S
C555 H541 0.929 . S
C555 C554 1.399 . S
C555 C556 1.385 . S
C556 H542 0.931 . S
C556 C555 1.385 . S
C556 C557 1.389 . S
C557 C556 1.389 . S
C557 C558 1.387 . S
C558 H543 0.930 . S
C558 C553 1.390 . S
C558 C557 1.387 . S
H559 C571 0.930 . S
H560 C573 0.930 . S
H561 C574 0.930 . S
H562 C578 0.959 . S
H563 C578 0.959 . S
H564 C578 0.961 . S
H565 C579 0.960 . S
H566 C579 0.961 . S
H567 C579 0.959 . S
H568 C582 0.929 . S
H569 C583 0.931 . S
H570 C585 0.930 . S
C571 H559 0.930 . S
C571 C572 1.399 . S
C571 C576 1.399 . S
C572 C571 1.399 . S
C572 C573 1.376 . S
C573 H560 0.930 . S
C573 C572 1.376 . S
C573 C574 1.388 . S
C574 H561 0.930 . S
C574 C573 1.388 . S
C574 C575 1.390 . S
C575 C574 1.390 . S
C575 C576 1.394 . S
C575 C581 1.465 . S
C576 C571 1.399 . S
C576 C575 1.394 . S
C576 C577 1.516 . S
C577 C576 1.516 . S
C577 C578 1.502 . S
C577 C579 1.561 . S
C577 C580 1.526 . S
C578 H562 0.959 . S
C578 H563 0.959 . S
C578 H564 0.961 . S
C578 C577 1.502 . S
C579 H565 0.960 . S
C579 H566 0.961 . S
C579 H567 0.959 . S
C579 C577 1.561 . S
C580 C577 1.526 . S
C580 C581 1.396 . S
C580 C585 1.390 . S
C581 C575 1.465 . S
C581 C580 1.396 . S
C581 C582 1.399 . S
C582 H568 0.929 . S
C582 C581 1.399 . S
C582 C583 1.385 . S
C583 H569 0.931 . S
C583 C582 1.385 . S
C583 C584 1.389 . S
C584 C583 1.389 . S
C584 C585 1.387 . S
C585 H570 0.930 . S
C585 C580 1.390 . S
C585 C584 1.387 . S
H586 C598 0.930 1_556 S
H587 C600 0.930 . S
H588 C601 0.930 . S
H589 C605 0.959 . S
H590 C605 0.959 . S
H591 C605 0.961 . S
H592 C606 0.960 . S
H593 C606 0.961 . S
H594 C606 0.959 . S
H595 C609 0.929 . S
H596 C610 0.931 1_554 S
H597 C612 0.930 . S
C598 H586 0.930 1_554 S
C598 C599 1.399 . S
C598 C603 1.391 1_554 S
C599 C598 1.399 . S
C599 C600 1.376 . S
C600 H587 0.930 . S
C600 C599 1.376 . S
C600 C601 1.388 . S
C601 H588 0.930 . S
C601 C600 1.388 . S
C601 C602 1.390 . S
C602 C601 1.390 . S
C602 C603 1.378 1_554 S
C602 C608 1.465 . S
C603 C598 1.391 1_556 S
C603 C602 1.378 1_556 S
C603 C604 1.539 . S
C604 C603 1.539 . S
C604 C605 1.502 . S
C604 C606 1.561 . S
C604 C607 1.526 . S
C605 H589 0.959 . S
C605 H590 0.959 . S
C605 H591 0.961 . S
C605 C604 1.502 . S
C606 H592 0.960 . S
C606 H593 0.961 . S
C606 H594 0.959 . S
C606 C604 1.561 . S
C607 C604 1.526 . S
C607 C608 1.396 1_556 S
C607 C612 1.390 . S
C608 C602 1.465 . S
C608 C607 1.396 1_554 S
C608 C609 1.399 . S
C609 H595 0.929 . S
C609 C608 1.399 . S
C609 C610 1.385 1_554 S
C610 H596 0.931 1_556 S
C610 C609 1.385 1_556 S
C610 C611 1.389 . S
C611 C610 1.389 . S
C611 C612 1.387 . S
C612 H597 0.930 . S
C612 C607 1.390 . S
C612 C611 1.387 . S
H613 C625 0.930 . S
H614 C627 0.930 . S
H615 C628 0.930 . S
H616 C632 0.959 . S
H617 C632 0.959 . S
H618 C632 0.961 . S
H619 C633 0.960 . S
H620 C633 0.961 . S
H621 C633 0.959 . S
H622 C636 0.929 . S
H623 C637 0.931 . S
H624 C639 0.930 . S
C625 H613 0.930 . S
C625 C626 1.399 . S
C625 C630 1.399 . S
C626 C625 1.399 . S
C626 C627 1.376 . S
C627 H614 0.930 . S
C627 C626 1.376 . S
C627 C628 1.388 . S
C628 H615 0.930 . S
C628 C627 1.388 . S
C628 C629 1.390 . S
C629 C628 1.390 . S
C629 C630 1.394 . S
C629 C635 1.465 . S
C630 C625 1.399 . S
C630 C629 1.394 . S
C630 C631 1.516 . S
C631 C630 1.516 . S
C631 C632 1.502 . S
C631 C633 1.561 . S
C631 C634 1.526 . S
C632 H616 0.959 . S
C632 H617 0.959 . S
C632 H618 0.961 . S
C632 C631 1.502 . S
C633 H619 0.960 . S
C633 H620 0.961 . S
C633 H621 0.959 . S
C633 C631 1.561 . S
C634 C631 1.526 . S
C634 C635 1.396 . S
C634 C639 1.390 . S
C635 C629 1.465 . S
C635 C634 1.396 . S
C635 C636 1.399 . S
C636 H622 0.929 . S
C636 C635 1.399 . S
C636 C637 1.385 . S
C637 H623 0.931 . S
C637 C636 1.385 . S
C637 C638 1.389 . S
C638 C637 1.389 . S
C638 C639 1.387 . S
C639 H624 0.930 . S
C639 C634 1.390 . S
C639 C638 1.387 . S
H640 C652 0.930 . S
H641 C654 0.930 . S
H642 C655 0.930 . S
H643 C659 0.959 . S
H644 C659 0.959 . S
H645 C659 0.961 . S
H646 C660 0.960 . S
H647 C660 0.961 . S
H648 C660 0.959 . S
H649 C663 0.929 . S
H650 C664 0.931 . S
H651 C666 0.930 . S
C652 H640 0.930 . S
C652 C653 1.399 . S
C652 C657 1.399 . S
C653 C652 1.399 . S
C653 C654 1.376 . S
C654 H641 0.930 . S
C654 C653 1.376 . S
C654 C655 1.388 . S
C655 H642 0.930 . S
C655 C654 1.388 . S
C655 C656 1.390 . S
C656 C655 1.390 . S
C656 C657 1.394 . S
C656 C662 1.465 . S
C657 C652 1.399 . S
C657 C656 1.394 . S
C657 C658 1.516 . S
C658 C657 1.516 . S
C658 C659 1.502 . S
C658 C660 1.561 . S
C658 C661 1.526 . S
C659 H643 0.959 . S
C659 H644 0.959 . S
C659 H645 0.961 . S
C659 C658 1.502 . S
C660 H646 0.960 . S
C660 H647 0.961 . S
C660 H648 0.959 . S
C660 C658 1.561 . S
C661 C658 1.526 . S
C661 C662 1.396 . S
C661 C666 1.390 . S
C662 C656 1.465 . S
C662 C661 1.396 . S
C662 C663 1.399 . S
C663 H649 0.929 . S
C663 C662 1.399 . S
C663 C664 1.385 . S
C664 H650 0.931 . S
C664 C663 1.385 . S
C664 C665 1.389 . S
C665 C664 1.389 . S
C665 C666 1.387 . S
C666 H651 0.930 . S
C666 C661 1.390 . S
C666 C665 1.387 . S
H667 C679 0.930 . S
H668 C681 0.930 . S
H669 C682 0.930 . S
H670 C686 0.959 . S
H671 C686 0.959 . S
H672 C686 0.961 1_655 S
H673 C687 0.960 1_655 S
H674 C687 0.961 . S
H675 C687 0.959 . S
H676 C690 0.929 . S
H677 C691 0.931 . S
H678 C693 0.930 . S
C679 H667 0.930 . S
C679 C680 1.399 . S
C679 C684 1.399 . S
C680 C679 1.399 . S
C680 C681 1.376 . S
C681 H668 0.930 . S
C681 C680 1.376 . S
C681 C682 1.388 . S
C682 H669 0.930 . S
C682 C681 1.388 . S
C682 C683 1.390 . S
C683 C682 1.390 . S
C683 C684 1.394 . S
C683 C689 1.465 1_655 S
C684 C679 1.399 . S
C684 C683 1.394 . S
C684 C685 1.516 1_655 S
C685 C684 1.516 1_455 S
C685 C686 1.502 . S
C685 C687 1.561 . S
C685 C688 1.526 . S
C686 H670 0.959 . S
C686 H671 0.959 . S
C686 H672 0.961 1_455 S
C686 C685 1.502 . S
C687 H673 0.960 1_455 S
C687 H674 0.961 . S
C687 H675 0.959 . S
C687 C685 1.561 . S
C688 C685 1.526 . S
C688 C689 1.396 . S
C688 C693 1.390 . S
C689 C683 1.465 1_455 S
C689 C688 1.396 . S
C689 C690 1.399 . S
C690 H676 0.929 . S
C690 C689 1.399 . S
C690 C691 1.385 . S
C691 H677 0.931 . S
C691 C690 1.385 . S
C691 C692 1.389 . S
C692 C691 1.389 . S
C692 C693 1.387 . S
C693 H678 0.930 . S
C693 C688 1.390 . S
C693 C692 1.387 . S
H694 C706 0.930 . S
H695 C708 0.930 . S
H696 C709 0.930 . S
H697 C713 0.959 . S
H698 C713 0.959 . S
H699 C713 0.961 . S
H700 C714 0.960 . S
H701 C714 0.961 . S
H702 C714 0.959 . S
H703 C717 0.929 . S
H704 C718 0.931 . S
H705 C720 0.930 . S
C706 H694 0.930 . S
C706 C707 1.399 . S
C706 C711 1.399 . S
C707 C706 1.399 . S
C707 C708 1.376 . S
C708 H695 0.930 . S
C708 C707 1.376 . S
C708 C709 1.388 . S
C709 H696 0.930 . S
C709 C708 1.388 . S
C709 C710 1.390 . S
C710 C709 1.390 . S
C710 C711 1.394 . S
C710 C716 1.465 . S
C711 C706 1.399 . S
C711 C710 1.394 . S
C711 C712 1.516 . S
C712 C711 1.516 . S
C712 C713 1.502 . S
C712 C714 1.561 . S
C712 C715 1.526 . S
C713 H697 0.959 . S
C713 H698 0.959 . S
C713 H699 0.961 . S
C713 C712 1.502 . S
C714 H700 0.960 . S
C714 H701 0.961 . S
C714 H702 0.959 . S
C714 C712 1.561 . S
C715 C712 1.526 . S
C715 C716 1.396 . S
C715 C720 1.390 . S
C716 C710 1.465 . S
C716 C715 1.396 . S
C716 C717 1.399 . S
C717 H703 0.929 . S
C717 C716 1.399 . S
C717 C718 1.385 . S
C718 H704 0.931 . S
C718 C717 1.385 . S
C718 C719 1.389 . S
C719 C718 1.389 . S
C719 C720 1.387 . S
C720 H705 0.930 . S
C720 C715 1.390 . S
C720 C719 1.387 . S
H721 C733 0.930 . S
H722 C735 0.930 . S
H723 C736 0.930 . S
H724 C740 0.959 . S
H725 C740 0.959 1_655 S
H726 C740 0.961 . S
H727 C741 0.960 . S
H728 C741 0.961 1_655 S
H729 C741 0.959 . S
H730 C744 0.929 . S
H731 C745 0.931 . S
H732 C747 0.930 . S
C733 H721 0.930 . S
C733 C734 1.399 . S
C733 C738 1.399 . S
C734 C733 1.399 . S
C734 C735 1.376 . S
C735 H722 0.930 . S
C735 C734 1.376 . S
C735 C736 1.388 . S
C736 H723 0.930 . S
C736 C735 1.388 . S
C736 C737 1.390 . S
C737 C736 1.390 . S
C737 C738 1.394 . S
C737 C743 1.465 1_455 S
C738 C733 1.399 . S
C738 C737 1.394 . S
C738 C739 1.516 . S
C739 C738 1.516 . S
C739 C740 1.502 . S
C739 C741 1.561 . S
C739 C742 1.526 1_455 S
C740 H724 0.959 . S
C740 H725 0.959 1_455 S
C740 H726 0.961 . S
C740 C739 1.502 . S
C741 H727 0.960 . S
C741 H728 0.961 1_455 S
C741 H729 0.959 . S
C741 C739 1.561 . S
C742 C739 1.526 1_655 S
C742 C743 1.396 . S
C742 C747 1.390 . S
C743 C737 1.465 1_655 S
C743 C742 1.396 . S
C743 C744 1.399 . S
C744 H730 0.929 . S
C744 C743 1.399 . S
C744 C745 1.385 . S
C745 H731 0.931 . S
C745 C744 1.385 . S
C745 C746 1.389 . S
C746 C745 1.389 . S
C746 C747 1.387 . S
C747 H732 0.930 . S
C747 C742 1.390 . S
C747 C746 1.387 . S
H748 C760 0.930 . S
H749 C762 0.930 . S
H750 C763 0.930 . S
H751 C767 0.959 . S
H752 C767 0.959 . S
H753 C767 0.961 1_455 S
H754 C768 0.960 1_455 S
H755 C768 0.961 . S
H756 C768 0.959 . S
H757 C771 0.929 . S
H758 C772 0.931 . S
H759 C774 0.930 . S
C760 H748 0.930 . S
C760 C761 1.399 . S
C760 C765 1.399 . S
C761 C760 1.399 . S
C761 C762 1.376 . S
C762 H749 0.930 . S
C762 C761 1.376 . S
C762 C763 1.388 . S
C763 H750 0.930 . S
C763 C762 1.388 . S
C763 C764 1.390 . S
C764 C763 1.390 . S
C764 C765 1.394 . S
C764 C770 1.465 1_455 S
C765 C760 1.399 . S
C765 C764 1.394 . S
C765 C766 1.516 1_455 S
C766 C765 1.516 1_655 S
C766 C767 1.502 . S
C766 C768 1.561 . S
C766 C769 1.526 . S
C767 H751 0.959 . S
C767 H752 0.959 . S
C767 H753 0.961 1_655 S
C767 C766 1.502 . S
C768 H754 0.960 1_655 S
C768 H755 0.961 . S
C768 H756 0.959 . S
C768 C766 1.561 . S
C769 C766 1.526 . S
C769 C770 1.396 . S
C769 C774 1.390 . S
C770 C764 1.465 1_655 S
C770 C769 1.396 . S
C770 C771 1.399 . S
C771 H757 0.929 . S
C771 C770 1.399 . S
C771 C772 1.385 . S
C772 H758 0.931 . S
C772 C771 1.385 . S
C772 C773 1.389 . S
C773 C772 1.389 . S
C773 C774 1.387 . S
C774 H759 0.930 . S
C774 C769 1.390 . S
C774 C773 1.387 . S
H775 C787 0.930 . S
H776 C789 0.930 . S
H777 C790 0.930 . S
H778 C794 0.959 . S
H779 C794 0.959 . S
H780 C794 0.961 . S
H781 C795 0.960 . S
H782 C795 0.961 . S
H783 C795 0.959 . S
H784 C798 0.929 . S
H785 C799 0.931 . S
H786 C801 0.930 . S
C787 H775 0.930 . S
C787 C788 1.399 . S
C787 C792 1.399 . S
C788 C787 1.399 . S
C788 C789 1.376 . S
C789 H776 0.930 . S
C789 C788 1.376 . S
C789 C790 1.388 . S
C790 H777 0.930 . S
C790 C789 1.388 . S
C790 C791 1.390 . S
C791 C790 1.390 . S
C791 C792 1.394 . S
C791 C797 1.465 . S
C792 C787 1.399 . S
C792 C791 1.394 . S
C792 C793 1.516 . S
C793 C792 1.516 . S
C793 C794 1.502 . S
C793 C795 1.561 . S
C793 C796 1.526 . S
C794 H778 0.959 . S
C794 H779 0.959 . S
C794 H780 0.961 . S
C794 C793 1.502 . S
C795 H781 0.960 . S
C795 H782 0.961 . S
C795 H783 0.959 . S
C795 C793 1.561 . S
C796 C793 1.526 . S
C796 C797 1.396 . S
C796 C801 1.390 . S
C797 C791 1.465 . S
C797 C796 1.396 . S
C797 C798 1.399 . S
C798 H784 0.929 . S
C798 C797 1.399 . S
C798 C799 1.385 . S
C799 H785 0.931 . S
C799 C798 1.385 . S
C799 C800 1.389 . S
C800 C799 1.389 . S
C800 C801 1.387 . S
C801 H786 0.930 . S
C801 C796 1.390 . S
C801 C800 1.387 . S
H802 C814 0.930 . S
H803 C816 0.930 . S
H804 C817 0.930 . S
H805 C821 0.959 . S
H806 C821 0.959 . S
H807 C821 0.961 1_455 S
H808 C822 0.960 1_455 S
H809 C822 0.961 . S
H810 C822 0.959 . S
H811 C825 0.929 . S
H812 C826 0.931 . S
H813 C828 0.930 . S
C814 H802 0.930 . S
C814 C815 1.399 . S
C814 C819 1.399 . S
C815 C814 1.399 . S
C815 C816 1.376 . S
C816 H803 0.930 . S
C816 C815 1.376 . S
C816 C817 1.388 . S
C817 H804 0.930 . S
C817 C816 1.388 . S
C817 C818 1.390 . S
C818 C817 1.390 . S
C818 C819 1.394 . S
C818 C824 1.465 1_455 S
C819 C814 1.399 . S
C819 C818 1.394 . S
C819 C820 1.516 1_455 S
C820 C819 1.516 1_655 S
C820 C821 1.502 . S
C820 C822 1.561 . S
C820 C823 1.526 . S
C821 H805 0.959 . S
C821 H806 0.959 . S
C821 H807 0.961 1_655 S
C821 C820 1.502 . S
C822 H808 0.960 1_655 S
C822 H809 0.961 . S
C822 H810 0.959 . S
C822 C820 1.561 . S
C823 C820 1.526 . S
C823 C824 1.396 . S
C823 C828 1.390 . S
C824 C818 1.465 1_655 S
C824 C823 1.396 . S
C824 C825 1.399 . S
C825 H811 0.929 . S
C825 C824 1.399 . S
C825 C826 1.385 . S
C826 H812 0.931 . S
C826 C825 1.385 . S
C826 C827 1.389 . S
C827 C826 1.389 . S
C827 C828 1.387 . S
C828 H813 0.930 . S
C828 C823 1.390 . S
C828 C827 1.387 . S
H829 C841 0.930 . S
H830 C843 0.930 . S
H831 C844 0.930 . S
H832 C848 0.959 . S
H833 C848 0.959 . S
H834 C848 0.961 . S
H835 C849 0.960 . S
H836 C849 0.961 . S
H837 C849 0.959 . S
H838 C852 0.929 . S
H839 C853 0.931 . S
H840 C855 0.930 . S
C841 H829 0.930 . S
C841 C842 1.399 . S
C841 C846 1.399 . S
C842 C841 1.399 . S
C842 C843 1.376 . S
C843 H830 0.930 . S
C843 C842 1.376 . S
C843 C844 1.388 . S
C844 H831 0.930 . S
C844 C843 1.388 . S
C844 C845 1.390 . S
C845 C844 1.390 . S
C845 C846 1.394 . S
C845 C851 1.465 . S
C846 C841 1.399 . S
C846 C845 1.394 . S
C846 C847 1.516 . S
C847 C846 1.516 . S
C847 C848 1.502 . S
C847 C849 1.561 . S
C847 C850 1.526 . S
C848 H832 0.959 . S
C848 H833 0.959 . S
C848 H834 0.961 . S
C848 C847 1.502 . S
C849 H835 0.960 . S
C849 H836 0.961 . S
C849 H837 0.959 . S
C849 C847 1.561 . S
C850 C847 1.526 . S
C850 C851 1.396 . S
C850 C855 1.390 . S
C851 C845 1.465 . S
C851 C850 1.396 . S
C851 C852 1.399 . S
C852 H838 0.929 . S
C852 C851 1.399 . S
C852 C853 1.385 . S
C853 H839 0.931 . S
C853 C852 1.385 . S
C853 C854 1.389 . S
C854 C853 1.389 . S
C854 C855 1.387 . S
C855 H840 0.930 . S
C855 C850 1.390 . S
C855 C854 1.387 . S
H856 C868 0.930 . S
H857 C870 0.930 . S
H858 C871 0.930 . S
H859 C875 0.959 . S
H860 C875 0.959 . S
H861 C875 0.961 . S
H862 C876 0.960 . S
H863 C876 0.961 . S
H864 C876 0.959 . S
H865 C879 0.929 . S
H866 C880 0.931 . S
H867 C882 0.930 . S
C868 H856 0.930 . S
C868 C869 1.399 . S
C868 C873 1.399 . S
C869 C868 1.399 . S
C869 C870 1.376 . S
C870 H857 0.930 . S
C870 C869 1.376 . S
C870 C871 1.388 . S
C871 H858 0.930 . S
C871 C870 1.388 . S
C871 C872 1.390 . S
C872 C871 1.390 . S
C872 C873 1.394 . S
C872 C878 1.465 . S
C873 C868 1.399 . S
C873 C872 1.394 . S
C873 C874 1.516 . S
C874 C873 1.516 . S
C874 C875 1.502 . S
C874 C876 1.561 . S
C874 C877 1.526 . S
C875 H859 0.959 . S
C875 H860 0.959 . S
C875 H861 0.961 . S
C875 C874 1.502 . S
C876 H862 0.960 . S
C876 H863 0.961 . S
C876 H864 0.959 . S
C876 C874 1.561 . S
C877 C874 1.526 . S
C877 C878 1.396 . S
C877 C882 1.390 . S
C878 C872 1.465 . S
C878 C877 1.396 . S
C878 C879 1.399 . S
C879 H865 0.929 . S
C879 C878 1.399 . S
C879 C880 1.385 . S
C880 H866 0.931 . S
C880 C879 1.385 . S
C880 C881 1.389 . S
C881 C880 1.389 . S
C881 C882 1.387 . S
C882 H867 0.930 . S
C882 C877 1.390 . S
C882 C881 1.387 . S
H883 C895 0.930 . S
H884 C897 0.930 . S
H885 C898 0.930 . S
H886 C902 0.959 . S
H887 C902 0.959 . S
H888 C902 0.961 . S
H889 C903 0.960 . S
H890 C903 0.961 . S
H891 C903 0.959 . S
H892 C906 0.929 . S
H893 C907 0.931 . S
H894 C909 0.930 . S
C895 H883 0.930 . S
C895 C896 1.399 . S
C895 C900 1.399 . S
C896 C895 1.399 . S
C896 C897 1.376 . S
C897 H884 0.930 . S
C897 C896 1.376 . S
C897 C898 1.388 . S
C898 H885 0.930 . S
C898 C897 1.388 . S
C898 C899 1.390 . S
C899 C898 1.390 . S
C899 C900 1.394 . S
C899 C905 1.465 . S
C900 C895 1.399 . S
C900 C899 1.394 . S
C900 C901 1.516 . S
C901 C900 1.516 . S
C901 C902 1.502 . S
C901 C903 1.561 . S
C901 C904 1.526 . S
C902 H886 0.959 . S
C902 H887 0.959 . S
C902 H888 0.961 . S
C902 C901 1.502 . S
C903 H889 0.960 . S
C903 H890 0.961 . S
C903 H891 0.959 . S
C903 C901 1.561 . S
C904 C901 1.526 . S
C904 C905 1.396 . S
C904 C909 1.390 . S
C905 C899 1.465 . S
C905 C904 1.396 . S
C905 C906 1.399 . S
C906 H892 0.929 . S
C906 C905 1.399 . S
C906 C907 1.385 . S
C907 H893 0.931 . S
C907 C906 1.385 . S
C907 C908 1.389 . S
C908 C907 1.389 . S
C908 C909 1.387 . S
C909 H894 0.930 . S
C909 C904 1.390 . S
C909 C908 1.387 . S
H910 C922 0.930 . S
H911 C924 0.930 . S
H912 C925 0.930 . S
H913 C929 0.959 . S
H914 C929 0.959 . S
H915 C929 0.961 . S
H916 C930 0.960 . S
H917 C930 0.961 . S
H918 C930 0.959 . S
H919 C933 0.929 . S
H920 C934 0.931 . S
H921 C936 0.930 . S
C922 H910 0.930 . S
C922 C923 1.399 . S
C922 C927 1.399 . S
C923 C922 1.399 . S
C923 C924 1.376 . S
C924 H911 0.930 . S
C924 C923 1.376 . S
C924 C925 1.388 . S
C925 H912 0.930 . S
C925 C924 1.388 . S
C925 C926 1.390 . S
C926 C925 1.390 . S
C926 C927 1.394 . S
C926 C932 1.465 . S
C927 C922 1.399 . S
C927 C926 1.394 . S
C927 C928 1.516 . S
C928 C927 1.516 . S
C928 C929 1.502 . S
C928 C930 1.561 . S
C928 C931 1.526 . S
C929 H913 0.959 . S
C929 H914 0.959 . S
C929 H915 0.961 . S
C929 C928 1.502 . S
C930 H916 0.960 . S
C930 H917 0.961 . S
C930 H918 0.959 . S
C930 C928 1.561 . S
C931 C928 1.526 . S
C931 C932 1.396 . S
C931 C936 1.390 . S
C932 C926 1.465 . S
C932 C931 1.396 . S
C932 C933 1.399 . S
C933 H919 0.929 . S
C933 C932 1.399 . S
C933 C934 1.385 . S
C934 H920 0.931 . S
C934 C933 1.385 . S
C934 C935 1.389 . S
C935 C934 1.389 . S
C935 C936 1.387 . S
C936 H921 0.930 . S
C936 C931 1.390 . S
C936 C935 1.387 . S
H937 C949 0.930 . S
H938 C951 0.930 . S
H939 C952 0.930 . S
H940 C956 0.959 . S
H941 C956 0.959 . S
H942 C956 0.961 . S
H943 C957 0.960 . S
H944 C957 0.961 . S
H945 C957 0.959 . S
H946 C960 0.929 . S
H947 C961 0.931 . S
H948 C963 0.930 . S
C949 H937 0.930 . S
C949 C950 1.399 . S
C949 C954 1.399 . S
C950 C949 1.399 . S
C950 C951 1.376 . S
C951 H938 0.930 . S
C951 C950 1.376 . S
C951 C952 1.388 . S
C952 H939 0.930 . S
C952 C951 1.388 . S
C952 C953 1.390 . S
C953 C952 1.390 . S
C953 C954 1.394 . S
C953 C959 1.465 . S
C954 C949 1.399 . S
C954 C953 1.394 . S
C954 C955 1.516 . S
C955 C954 1.516 . S
C955 C956 1.502 . S
C955 C957 1.561 . S
C955 C958 1.526 . S
C956 H940 0.959 . S
C956 H941 0.959 . S
C956 H942 0.961 . S
C956 C955 1.502 . S
C957 H943 0.960 . S
C957 H944 0.961 . S
C957 H945 0.959 . S
C957 C955 1.561 . S
C958 C955 1.526 . S
C958 C959 1.396 . S
C958 C963 1.390 . S
C959 C953 1.465 . S
C959 C958 1.396 . S
C959 C960 1.399 . S
C960 H946 0.929 . S
C960 C959 1.399 . S
C960 C961 1.385 . S
C961 H947 0.931 . S
C961 C960 1.385 . S
C961 C962 1.389 . S
C962 C961 1.389 . S
C962 C963 1.387 . S
C963 H948 0.930 . S
C963 C958 1.390 . S
C963 C962 1.387 . S
H964 C976 0.930 . S
H965 C978 0.930 . S
H966 C979 0.930 . S
H967 C983 0.959 . S
H968 C983 0.959 . S
H969 C983 0.961 . S
H970 C984 0.960 . S
H971 C984 0.961 . S
H972 C984 0.959 . S
H973 C987 0.929 . S
H974 C988 0.931 . S
H975 C990 0.930 . S
C976 H964 0.930 . S
C976 C977 1.399 . S
C976 C981 1.399 . S
C977 C976 1.399 . S
C977 C978 1.376 . S
C978 H965 0.930 . S
C978 C977 1.376 . S
C978 C979 1.388 . S
C979 H966 0.930 . S
C979 C978 1.388 . S
C979 C980 1.390 . S
C980 C979 1.390 . S
C980 C981 1.394 . S
C980 C986 1.465 . S
C981 C976 1.399 . S
C981 C980 1.394 . S
C981 C982 1.516 . S
C982 C981 1.516 . S
C982 C983 1.502 . S
C982 C984 1.561 . S
C982 C985 1.526 . S
C983 H967 0.959 . S
C983 H968 0.959 . S
C983 H969 0.961 . S
C983 C982 1.502 . S
C984 H970 0.960 . S
C984 H971 0.961 . S
C984 H972 0.959 . S
C984 C982 1.561 . S
C985 C982 1.526 . S
C985 C986 1.396 . S
C985 C990 1.390 . S
C986 C980 1.465 . S
C986 C985 1.396 . S
C986 C987 1.399 . S
C987 H973 0.929 . S
C987 C986 1.399 . S
C987 C988 1.385 . S
C988 H974 0.931 . S
C988 C987 1.385 . S
C988 C989 1.389 . S
C989 C988 1.389 . S
C989 C990 1.387 . S
C990 H975 0.930 . S
C990 C985 1.390 . S
C990 C989 1.387 . S
H991 C1003 0.930 . S
H992 C1005 0.930 . S
H993 C1006 0.930 . S
H994 C1010 0.959 . S
H995 C1010 0.959 . S
H996 C1010 0.961 . S
H997 C1011 0.960 . S
H998 C1011 0.961 . S
H999 C1011 0.959 . S
H1000 C1014 0.929 . S
H1001 C1015 0.931 . S
H1002 C1017 0.930 . S
C1003 H991 0.930 . S
C1003 C1004 1.399 . S
C1003 C1008 1.399 . S
C1004 C1003 1.399 . S
C1004 C1005 1.376 . S
C1005 H992 0.930 . S
C1005 C1004 1.376 . S
C1005 C1006 1.388 . S
C1006 H993 0.930 . S
C1006 C1005 1.388 . S
C1006 C1007 1.390 . S
C1007 C1006 1.390 . S
C1007 C1008 1.394 . S
C1007 C1013 1.465 . S
C1008 C1003 1.399 . S
C1008 C1007 1.394 . S
C1008 C1009 1.516 . S
C1009 C1008 1.516 . S
C1009 C1010 1.502 . S
C1009 C1011 1.561 . S
C1009 C1012 1.526 . S
C1010 H994 0.959 . S
C1010 H995 0.959 . S
C1010 H996 0.961 . S
C1010 C1009 1.502 . S
C1011 H997 0.960 . S
C1011 H998 0.961 . S
C1011 H999 0.959 . S
C1011 C1009 1.561 . S
C1012 C1009 1.526 . S
C1012 C1013 1.396 . S
C1012 C1017 1.390 . S
C1013 C1007 1.465 . S
C1013 C1012 1.396 . S
C1013 C1014 1.399 . S
C1014 H1000 0.929 . S
C1014 C1013 1.399 . S
C1014 C1015 1.385 . S
C1015 H1001 0.931 . S
C1015 C1014 1.385 . S
C1015 C1016 1.389 . S
C1016 C1015 1.389 . S
C1016 C1017 1.387 . S
C1017 H1002 0.930 . S
C1017 C1012 1.390 . S
C1017 C1016 1.387 . S
H1018 C1030 0.930 . S
H1019 C1032 0.930 . S
H1020 C1033 0.930 . S
H1021 C1037 0.959 . S
H1022 C1037 0.959 . S
H1023 C1037 0.961 . S
H1024 C1038 0.960 . S
H1025 C1038 0.961 . S
H1026 C1038 0.959 . S
H1027 C1041 0.929 . S
H1028 C1042 0.931 . S
H1029 C1044 0.930 . S
C1030 H1018 0.930 . S
C1030 C1031 1.399 . S
C1030 C1035 1.399 . S
C1031 C1030 1.399 . S
C1031 C1032 1.376 . S
C1032 H1019 0.930 . S
C1032 C1031 1.376 . S
C1032 C1033 1.388 . S
C1033 H1020 0.930 . S
C1033 C1032 1.388 . S
C1033 C1034 1.390 . S
C1034 C1033 1.390 . S
C1034 C1035 1.394 . S
C1034 C1040 1.465 . S
C1035 C1030 1.399 . S
C1035 C1034 1.394 . S
C1035 C1036 1.516 . S
C1036 C1035 1.516 . S
C1036 C1037 1.502 . S
C1036 C1038 1.561 . S
C1036 C1039 1.526 . S
C1037 H1021 0.959 . S
C1037 H1022 0.959 . S
C1037 H1023 0.961 . S
C1037 C1036 1.502 . S
C1038 H1024 0.960 . S
C1038 H1025 0.961 . S
C1038 H1026 0.959 . S
C1038 C1036 1.561 . S
C1039 C1036 1.526 . S
C1039 C1040 1.396 . S
C1039 C1044 1.390 . S
C1040 C1034 1.465 . S
C1040 C1039 1.396 . S
C1040 C1041 1.399 . S
C1041 H1027 0.929 . S
C1041 C1040 1.399 . S
C1041 C1042 1.385 . S
C1042 H1028 0.931 . S
C1042 C1041 1.385 . S
C1042 C1043 1.389 . S
C1043 C1042 1.389 . S
C1043 C1044 1.387 . S
C1044 H1029 0.930 . S
C1044 C1039 1.390 . S
C1044 C1043 1.387 . S
H1045 C1057 0.930 . S
H1046 C1059 0.930 . S
H1047 C1060 0.930 . S
H1048 C1064 0.959 . S
H1049 C1064 0.959 . S
H1050 C1064 0.961 . S
H1051 C1065 0.960 . S
H1052 C1065 0.961 . S
H1053 C1065 0.959 . S
H1054 C1068 0.929 . S
H1055 C1069 0.931 . S
H1056 C1071 0.930 . S
C1057 H1045 0.930 . S
C1057 C1058 1.399 . S
C1057 C1062 1.399 . S
C1058 C1057 1.399 . S
C1058 C1059 1.376 . S
C1059 H1046 0.930 . S
C1059 C1058 1.376 . S
C1059 C1060 1.388 . S
C1060 H1047 0.930 . S
C1060 C1059 1.388 . S
C1060 C1061 1.390 . S
C1061 C1060 1.390 . S
C1061 C1062 1.394 . S
C1061 C1067 1.465 . S
C1062 C1057 1.399 . S
C1062 C1061 1.394 . S
C1062 C1063 1.516 . S
C1063 C1062 1.516 . S
C1063 C1064 1.502 . S
C1063 C1065 1.561 . S
C1063 C1066 1.526 . S
C1064 H1048 0.959 . S
C1064 H1049 0.959 . S
C1064 H1050 0.961 . S
C1064 C1063 1.502 . S
C1065 H1051 0.960 . S
C1065 H1052 0.961 . S
C1065 H1053 0.959 . S
C1065 C1063 1.561 . S
C1066 C1063 1.526 . S
C1066 C1067 1.396 . S
C1066 C1071 1.390 . S
C1067 C1061 1.465 . S
C1067 C1066 1.396 . S
C1067 C1068 1.399 . S
C1068 H1054 0.929 . S
C1068 C1067 1.399 . S
C1068 C1069 1.385 . S
C1069 H1055 0.931 . S
C1069 C1068 1.385 . S
C1069 C1070 1.389 . S
C1070 C1069 1.389 . S
C1070 C1071 1.387 . S
C1071 H1056 0.930 . S
C1071 C1066 1.390 . S
C1071 C1070 1.387 . S
C221 C0 1.422 . S
C233 C164 1.381 . S
C248 C177 1.424 . S
C260 C13 1.402 . S
C275 C26 1.420 . S
C287 C190 1.378 . S
C302 C203 1.374 . S
C314 C39 1.392 . S
C329 C104 1.373 . S
C341 C60 1.426 . S
C356 C73 1.372 . S
C368 C117 1.402 . S
C383 C130 1.364 . S
C395 C86 1.418 . S
C410 C99 1.373 . S
C422 C143 1.411 . S
C437 C5 1.544 . S
C449 C31 1.528 . S
C464 C18 1.552 . S
C476 C44 1.545 . S
C491 C57 1.322 . S
C503 C83 1.317 . S
C518 C70 1.331 . S
C530 C96 1.354 . S
C545 C135 1.546 . S
C557 C109 1.531 . S
C572 C122 1.507 . S
C584 C148 1.526 . S
C599 C187 1.381 . S
C611 C161 1.365 . S
C626 C174 1.347 . S
C638 C200 1.326 . S
C653 C88 1.436 . S
C665 C10 1.470 . S
C680 C101 1.461 . S
C692 C23 1.453 . S
C707 C36 1.450 . S
C719 C62 1.464 . S
C734 C49 1.457 . S
C746 C75 1.457 . S
C761 C192 1.463 . S
C773 C114 1.451 . S
C788 C127 1.463 . S
C800 C205 1.442 . S
C815 C166 1.436 . S
C827 C140 1.472 . S
C842 C153 1.455 . S
C854 C179 1.459 . S
C869 C8 1.562 . S
C881 C47 1.569 . S
C896 C34 1.561 . S
C908 C21 1.568 . S
C923 C52 1.225 . S
C935 C91 1.286 . S
C950 C65 1.233 . S
C962 C78 1.273 . S
C977 C151 1.531 . S
C989 C112 1.525 . S
C1004 C125 1.527 . S
C1016 C138 1.524 . S
C1031 C195 1.239 . S
C1043 C156 1.266 . S
C1058 C169 1.279 . S
C1070 C182 1.241 . S
