# Generated by pormake.
# Topology uoz, (4)-cn, num edge types: 1
# Building blocks:
#     Node 0, Type 0, BuildingBlock: AZAVOO_clean_sbu_0, # of connection points: 4
#     Node 1, Type 0, BuildingBlock: AZAVOO_clean_sbu_0, # of connection points: 4
#     Node 2, Type 0, BuildingBlock: AZAVOO_clean_sbu_0, # of connection points: 4
#     Node 3, Type 0, BuildingBlock: AZAVOO_clean_sbu_0, # of connection points: 4
#     Node 4, Type 0, BuildingBlock: AZAVOO_clean_sbu_0, # of connection points: 4
#     Node 5, Type 0, BuildingBlock: AZAVOO_clean_sbu_0, # of connection points: 4
#     Node 6, Type 0, BuildingBlock: AZAVOO_clean_sbu_0, # of connection points: 4
#     Node 7, Type 0, BuildingBlock: AZAVOO_clean_sbu_0, # of connection points: 4
#     Node 8, Type 0, BuildingBlock: AZAVOO_clean_sbu_0, # of connection points: 4
#     Node 9, Type 0, BuildingBlock: AZAVOO_clean_sbu_0, # of connection points: 4
#     Node 10, Type 0, BuildingBlock: AZAVOO_clean_sbu_0, # of connection points: 4
#     Node 11, Type 0, BuildingBlock: AZAVOO_clean_sbu_0, # of connection points: 4
#     Node 12, Type 0, BuildingBlock: AZAVOO_clean_sbu_0, # of connection points: 4
#     Node 13, Type 0, BuildingBlock: AZAVOO_clean_sbu_0, # of connection points: 4
#     Node 14, Type 0, BuildingBlock: AZAVOO_clean_sbu_0, # of connection points: 4
#     Node 15, Type 0, BuildingBlock: AZAVOO_clean_sbu_0, # of connection points: 4
#     Edge 16, Type (0, 0), BuildingBlock: XIVTED_clean_linker_0, # of connection points: 2
#     Edge 17, Type (0, 0), BuildingBlock: XIVTED_clean_linker_0, # of connection points: 2
#     Edge 18, Type (0, 0), BuildingBlock: XIVTED_clean_linker_0, # of connection points: 2
#     Edge 19, Type (0, 0), BuildingBlock: XIVTED_clean_linker_0, # of connection points: 2
#     Edge 20, Type (0, 0), BuildingBlock: XIVTED_clean_linker_0, # of connection points: 2
#     Edge 21, Type (0, 0), BuildingBlock: XIVTED_clean_linker_0, # of connection points: 2
#     Edge 22, Type (0, 0), BuildingBlock: XIVTED_clean_linker_0, # of connection points: 2
#     Edge 23, Type (0, 0), BuildingBlock: XIVTED_clean_linker_0, # of connection points: 2
#     Edge 24, Type (0, 0), BuildingBlock: XIVTED_clean_linker_0, # of connection points: 2
#     Edge 25, Type (0, 0), BuildingBlock: XIVTED_clean_linker_0, # of connection points: 2
#     Edge 26, Type (0, 0), BuildingBlock: XIVTED_clean_linker_0, # of connection points: 2
#     Edge 27, Type (0, 0), BuildingBlock: XIVTED_clean_linker_0, # of connection points: 2
#     Edge 28, Type (0, 0), BuildingBlock: XIVTED_clean_linker_0, # of connection points: 2
#     Edge 29, Type (0, 0), BuildingBlock: XIVTED_clean_linker_0, # of connection points: 2
#     Edge 30, Type (0, 0), BuildingBlock: XIVTED_clean_linker_0, # of connection points: 2
#     Edge 31, Type (0, 0), BuildingBlock: XIVTED_clean_linker_0, # of connection points: 2
#     Edge 32, Type (0, 0), BuildingBlock: XIVTED_clean_linker_0, # of connection points: 2
#     Edge 33, Type (0, 0), BuildingBlock: XIVTED_clean_linker_0, # of connection points: 2
#     Edge 34, Type (0, 0), BuildingBlock: XIVTED_clean_linker_0, # of connection points: 2
#     Edge 35, Type (0, 0), BuildingBlock: XIVTED_clean_linker_0, # of connection points: 2
#     Edge 36, Type (0, 0), BuildingBlock: XIVTED_clean_linker_0, # of connection points: 2
#     Edge 37, Type (0, 0), BuildingBlock: XIVTED_clean_linker_0, # of connection points: 2
#     Edge 38, Type (0, 0), BuildingBlock: XIVTED_clean_linker_0, # of connection points: 2
#     Edge 39, Type (0, 0), BuildingBlock: XIVTED_clean_linker_0, # of connection points: 2
#     Edge 40, Type (0, 0), BuildingBlock: XIVTED_clean_linker_0, # of connection points: 2
#     Edge 41, Type (0, 0), BuildingBlock: XIVTED_clean_linker_0, # of connection points: 2
#     Edge 42, Type (0, 0), BuildingBlock: XIVTED_clean_linker_0, # of connection points: 2
#     Edge 43, Type (0, 0), BuildingBlock: XIVTED_clean_linker_0, # of connection points: 2
#     Edge 44, Type (0, 0), BuildingBlock: XIVTED_clean_linker_0, # of connection points: 2
#     Edge 45, Type (0, 0), BuildingBlock: XIVTED_clean_linker_0, # of connection points: 2
#     Edge 46, Type (0, 0), BuildingBlock: XIVTED_clean_linker_0, # of connection points: 2
#     Edge 47, Type (0, 0), BuildingBlock: XIVTED_clean_linker_0, # of connection points: 2
# Relax obj value: 0.114
# Max RMSD: 0.104
# Mean RMSD: 0.104
data_MOF--net-uoz--node1-AZAVOO_clean_sbu_0--edge1-XIVTED_clean_linker_0
_symmetry_space_group_name_H-M    P1
_symmetry_Int_Tables_number       1
_symmetry_cell_setting            triclinic
loop_
_symmetry_equiv_pos_as_xyz
'x, y, z'
_cell_length_a     59.818228
_cell_length_b     59.819229
_cell_length_c     22.570469
_cell_angle_alpha  89.932955
_cell_angle_beta   89.984888
_cell_angle_gamma 90.285506
loop_
_atom_site_label
_atom_site_type_symbol
_atom_site_fract_x
_atom_site_fract_y
_atom_site_fract_z
_atom_type_partial_charge
Mg0 Mg 0.0186 0.58448 0.32392 0.0
O1 O 0.00821 0.55994 0.25002 0.0
O2 O 0.00738 0.57919 0.16483 0.0
Mg3 Mg 0.01851 0.61486 0.18187 0.0
C4 C 0.0047 0.56112 0.19414 0.0
C5 C 0.01349 0.55921 0.44084 0.0
O6 O 0.00277 0.57805 0.44942 0.0
O7 O 0.05513 0.58216 0.29289 0.0
O8 O 0.05262 0.60088 0.20733 0.0
O9 O 0.98284 0.59491 0.33556 0.0
O10 O 0.00632 0.61061 0.27231 0.0
C11 C 0.06386 0.58975 0.24521 0.0
C12 C 0.98629 0.6088 0.29253 0.0
O13 O 0.02289 0.55601 0.39101 0.0
Mg14 Mg 0.67309 0.74086 0.57457 0.0
O15 O 0.6986 0.73187 0.50197 0.0
O16 O 0.68005 0.73032 0.41585 0.0
Mg17 Mg 0.64374 0.73919 0.43111 0.0
C18 C 0.698 0.72853 0.44598 0.0
C19 C 0.69746 0.73789 0.69325 0.0
O20 O 0.67882 0.72662 0.70186 0.0
O21 O 0.674 0.77743 0.54336 0.0
O22 O 0.65583 0.77402 0.45717 0.0
O23 O 0.66391 0.70451 0.5855 0.0
O24 O 0.64794 0.72751 0.52185 0.0
C25 C 0.66624 0.7858 0.4955 0.0
C26 C 0.65026 0.70755 0.54183 0.0
O27 O 0.70084 0.74676 0.64276 0.0
Mg28 Mg 0.5197 0.40781 0.80708 0.0
O29 O 0.52409 0.43202 0.72883 0.0
O30 O 0.52979 0.41218 0.64614 0.0
Mg31 Mg 0.52828 0.37535 0.67034 0.0
C32 C 0.52774 0.4308 0.67309 0.0
C33 C 0.51882 0.45425 0.86899 0.0
O34 O 0.53604 0.4567 0.8334 0.0
O35 O 0.48406 0.40049 0.7747 0.0
O36 O 0.49151 0.38079 0.69294 0.0
O37 O 0.55689 0.40689 0.82089 0.0
O38 O 0.53827 0.3846 0.76019 0.0
C39 C 0.47767 0.38977 0.72871 0.0
C40 C 0.55713 0.39176 0.78 0.0
O41 O 0.50788 0.43597 0.86801 0.0
Mg42 Mg 0.86293 0.22526 0.07483 0.0
O43 O 0.84005 0.23481 0.99672 0.0
O44 O 0.86084 0.23577 0.91414 0.0
Mg45 Mg 0.89612 0.22533 0.9374 0.0
C46 C 0.84223 0.23819 0.941 0.0
C47 C 0.81792 0.23521 0.13889 0.0
O48 O 0.81932 0.25236 0.10262 0.0
O49 O 0.86152 0.18863 0.04464 0.0
O50 O 0.88164 0.19114 0.96142 0.0
O51 O 0.87217 0.26128 0.08687 0.0
O52 O 0.88978 0.23826 0.02645 0.0
C53 C 0.86987 0.17987 0.99808 0.0
C54 C 0.88677 0.25833 0.04536 0.0
O55 O 0.83307 0.22039 0.13733 0.0
Mg56 Mg 0.0165 0.39838 0.83115 0.0
O57 O 0.00644 0.4222 0.90673 0.0
O58 O 0.0052 0.40249 0.9911 0.0
Mg59 Mg 0.01563 0.36687 0.97165 0.0
C60 C 0.00289 0.42075 0.96252 0.0
C61 C 0.00707 0.44285 0.76222 0.0
O62 O 0.98942 0.44208 0.79685 0.0
O63 O 0.05293 0.40022 0.86295 0.0
O64 O 0.05001 0.38086 0.94751 0.0
O65 O 0.98058 0.38793 0.81859 0.0
O66 O 0.00402 0.37191 0.88101 0.0
C67 C 0.06146 0.39223 0.91032 0.0
C68 C 0.98404 0.37372 0.86084 0.0
O69 O 0.02168 0.42756 0.76651 0.0
Mg70 Mg 0.85934 0.7506 0.07848 0.0
O71 O 0.83586 0.73971 0.15422 0.0
O72 O 0.8558 0.73785 0.23803 0.0
Mg73 Mg 0.89132 0.74885 0.21786 0.0
C74 C 0.83746 0.73565 0.20973 0.0
C75 C 0.81493 0.74079 0.01097 0.0
O76 O 0.81638 0.72297 0.04479 0.0
O77 O 0.85759 0.78675 0.11236 0.0
O78 O 0.87709 0.78325 0.19637 0.0
O79 O 0.86913 0.7149 0.06338 0.0
O80 O 0.8859 0.73751 0.12691 0.0
C81 C 0.8656 0.79491 0.16019 0.0
C82 C 0.88345 0.71769 0.1057 0.0
O83 O 0.82987 0.75591 0.01523 0.0
Mg84 Mg 0.50367 0.59459 0.30106 0.0
O85 O 0.51071 0.56908 0.37535 0.0
O86 O 0.51262 0.5883 0.46041 0.0
Mg87 Mg 0.50558 0.62485 0.44279 0.0
C88 C 0.51374 0.57002 0.43146 0.0
C89 C 0.50286 0.57196 0.18106 0.0
O90 O 0.5109 0.5921 0.17104 0.0
O91 O 0.46683 0.59579 0.3295 0.0
O92 O 0.47047 0.61411 0.4153 0.0
O93 O 0.54044 0.60098 0.29169 0.0
O94 O 0.51845 0.61918 0.3536 0.0
C95 C 0.45851 0.6041 0.37668 0.0
C96 C 0.53833 0.61494 0.33504 0.0
O97 O 0.49704 0.56688 0.23359 0.0
Mg98 Mg 0.6783 0.25195 0.57488 0.0
O99 O 0.70429 0.25731 0.64884 0.0
O100 O 0.68543 0.26359 0.73297 0.0
Mg101 Mg 0.6482 0.26151 0.71493 0.0
C102 C 0.70373 0.26149 0.70444 0.0
C103 C 0.70121 0.24675 0.45631 0.0
O104 O 0.68294 0.25819 0.44571 0.0
O105 O 0.67205 0.21644 0.61055 0.0
O106 O 0.65364 0.22465 0.69398 0.0
O107 O 0.67647 0.28905 0.55879 0.0
O108 O 0.65577 0.27061 0.62372 0.0
C109 C 0.66213 0.21048 0.65829 0.0
C110 C 0.66211 0.28939 0.60161 0.0
O111 O 0.70495 0.24031 0.5091 0.0
Mg112 Mg 0.35538 0.24001 0.58834 0.0
O113 O 0.33076 0.23455 0.66554 0.0
O114 O 0.35058 0.23086 0.74914 0.0
Mg115 Mg 0.38734 0.23501 0.72726 0.0
C116 C 0.33198 0.23128 0.72148 0.0
C117 C 0.30938 0.23772 0.52305 0.0
O118 O 0.30735 0.22064 0.5593 0.0
O119 O 0.36024 0.27639 0.61804 0.0
O120 O 0.37942 0.27102 0.7019 0.0
O121 O 0.35881 0.20282 0.57769 0.0
O122 O 0.37942 0.22353 0.63784 0.0
C123 C 0.36994 0.28386 0.66447 0.0
C124 C 0.37357 0.20404 0.61946 0.0
O125 O 0.32709 0.24954 0.5249 0.0
Mg126 Mg 0.16591 0.73236 0.06776 0.0
O127 O 0.18677 0.74542 0.14544 0.0
O128 O 0.1655 0.74676 0.22683 0.0
Mg129 Mg 0.13158 0.73211 0.20277 0.0
C130 C 0.18403 0.75007 0.20017 0.0
C131 C 0.19523 0.72365 0.95725 0.0
O132 O 0.17527 0.71809 0.93776 0.0
O133 O 0.16982 0.69641 0.10239 0.0
O134 O 0.14898 0.69895 0.18449 0.0
O135 O 0.15332 0.76738 0.05393 0.0
O136 O 0.13689 0.742 0.11053 0.0
C137 C 0.16178 0.68796 0.14998 0.0
C138 C 0.13781 0.76222 0.09164 0.0
O139 O 0.19733 0.72997 0.01074 0.0
Mg140 Mg 0.1687 0.25026 0.08956 0.0
O141 O 0.19352 0.23969 0.0169 0.0
O142 O 0.17421 0.23628 0.93231 0.0
Mg143 Mg 0.13805 0.24541 0.94862 0.0
C144 C 0.19244 0.2352 0.96153 0.0
C145 C 0.19197 0.25115 0.20818 0.0
O146 O 0.17184 0.24314 0.21845 0.0
O147 O 0.16952 0.28604 0.05273 0.0
O148 O 0.15051 0.2808 0.96845 0.0
O149 O 0.15982 0.21442 0.10728 0.0
O150 O 0.14312 0.23566 0.04061 0.0
C151 C 0.16133 0.29337 0.00418 0.0
C152 C 0.14577 0.21626 0.06404 0.0
O153 O 0.1969 0.25705 0.1556 0.0
Mg154 Mg 0.34855 0.74815 0.55548 0.0
O155 O 0.32282 0.75935 0.48628 0.0
O156 O 0.34079 0.76519 0.40063 0.0
Mg157 Mg 0.37755 0.75727 0.41353 0.0
C158 C 0.32294 0.765 0.43163 0.0
C159 C 0.32364 0.741 0.67442 0.0
O160 O 0.34299 0.74887 0.6927 0.0
O161 O 0.349 0.71328 0.51304 0.0
O162 O 0.36732 0.72089 0.42896 0.0
O163 O 0.35656 0.78402 0.5777 0.0
O164 O 0.37327 0.76448 0.5076 0.0
C165 C 0.35735 0.70717 0.46352 0.0
C166 C 0.37037 0.78332 0.53363 0.0
O167 O 0.32052 0.73828 0.61917 0.0
Mg168 Mg 0.51641 0.08618 0.83296 0.0
O169 O 0.51071 0.06214 0.75473 0.0
O170 O 0.50492 0.08234 0.6726 0.0
Mg171 Mg 0.50783 0.11904 0.69647 0.0
C172 C 0.50658 0.06361 0.69925 0.0
C173 C 0.5158 0.03961 0.89435 0.0
O174 O 0.49862 0.03788 0.85838 0.0
O175 O 0.55217 0.09248 0.79901 0.0
O176 O 0.54442 0.11199 0.71688 0.0
O177 O 0.47928 0.08824 0.84797 0.0
O178 O 0.49833 0.11006 0.78682 0.0
C179 C 0.55832 0.10271 0.75191 0.0
C180 C 0.47935 0.1034 0.80705 0.0
O181 O 0.52741 0.05749 0.89374 0.0
Mg182 Mg 0.00811 0.89595 0.33485 0.0
O183 O 0.02013 0.91792 0.2575 0.0
O184 O 0.0204 0.89728 0.17491 0.0
Mg185 Mg 0.00617 0.86308 0.19739 0.0
C186 C 0.02403 0.91562 0.20216 0.0
C187 C 0.02177 0.93998 0.40293 0.0
O188 O 0.04001 0.93746 0.37122 0.0
O189 O 0.97178 0.9002 0.30362 0.0
O190 O 0.97327 0.88027 0.21983 0.0
O191 O 0.0433 0.88302 0.34484 0.0
O192 O 0.01725 0.8676 0.28869 0.0
C193 C 0.96275 0.89271 0.25624 0.0
C194 C 0.03763 0.86802 0.30625 0.0
O195 O 0.00573 0.92618 0.39644 0.0
Mg196 Mg 0.52173 0.89963 0.33071 0.0
O197 O 0.51443 0.92448 0.40609 0.0
O198 O 0.51063 0.90452 0.48967 0.0
Mg199 Mg 0.51679 0.86797 0.47 0.0
C200 C 0.51059 0.92311 0.4618 0.0
C201 C 0.52562 0.92303 0.21205 0.0
O202 O 0.51767 0.90301 0.20012 0.0
O203 O 0.55801 0.89714 0.3631 0.0
O204 O 0.5526 0.87801 0.44711 0.0
O205 O 0.48499 0.89445 0.317 0.0
O206 O 0.50541 0.87499 0.38001 0.0
C207 C 0.5654 0.88812 0.4105 0.0
C208 C 0.48597 0.87998 0.35952 0.0
O209 O 0.53023 0.92777 0.2656 0.0
Mg210 Mg 0.01194 0.07984 0.84393 0.0
O211 O 0.02408 0.05421 0.91303 0.0
O212 O 0.02369 0.07107 1.00142 0.0
Mg213 Mg 0.00967 0.10585 0.99139 0.0
C214 C 0.02766 0.05414 0.96889 0.0
C215 C 0.02176 0.05517 0.72672 0.0
O216 O 0.03455 0.07302 0.72253 0.0
O217 O 0.97561 0.07381 0.87327 0.0
O218 O 0.97662 0.09024 0.96217 0.0
O219 O 0.04679 0.09388 0.83641 0.0
O220 O 0.02156 0.10605 0.89965 0.0
C221 C 0.96622 0.07944 0.92188 0.0
C222 C 0.04175 0.10685 0.88022 0.0
O223 O 0.00982 0.05258 0.7729 0.0
H224 H 0.16042 0.65305 0.07176 0.0
H225 H 0.09742 0.59381 0.32715 0.0
H226 H 0.16693 0.66823 0.25752 0.0
H227 H 0.08555 0.58422 0.14058 0.0
H228 H 0.13514 0.60731 0.3042 0.0
H229 H 0.14709 0.61558 0.09782 0.0
C230 C 0.16004 0.64814 0.11797 0.0
C231 C 0.16395 0.6639 0.16268 0.0
C232 C 0.12459 0.60148 0.26834 0.0
C233 C 0.14811 0.62154 0.19285 0.0
C234 C 0.1031 0.59362 0.28157 0.0
C235 C 0.0882 0.58871 0.23546 0.0
C236 C 0.13089 0.60461 0.20874 0.0
C237 C 0.0964 0.58858 0.17724 0.0
C238 C 0.15223 0.6268 0.13296 0.0
C239 C 0.16336 0.65668 0.22181 0.0
N240 N 0.117 0.59705 0.16534 0.0
N241 N 0.15488 0.63622 0.23532 0.0
H242 H 0.59955 0.88414 0.33007 0.0
H243 H 0.662 0.81892 0.57849 0.0
H244 H 0.58622 0.8887 0.51737 0.0
H245 H 0.66946 0.80804 0.39079 0.0
H246 H 0.64717 0.85616 0.55772 0.0
H247 H 0.63659 0.86907 0.35259 0.0
C248 C 0.60475 0.88275 0.3759 0.0
C249 C 0.58962 0.88686 0.42197 0.0
C250 C 0.65276 0.84593 0.52108 0.0
C251 C 0.63157 0.86933 0.44805 0.0
C252 C 0.66139 0.82472 0.53304 0.0
C253 C 0.66615 0.81019 0.48614 0.0
C254 C 0.64875 0.85233 0.46196 0.0
C255 C 0.66524 0.81857 0.42811 0.0
C256 C 0.62585 0.87405 0.38883 0.0
C257 C 0.59722 0.885 0.48057 0.0
N258 N 0.65607 0.83887 0.41751 0.0
N259 N 0.61746 0.87585 0.49199 0.0
H260 H 0.4427 0.39101 0.80819 0.0
H261 H 0.37066 0.30615 0.769 0.0
H262 H 0.45778 0.3793 0.62393 0.0
H263 H 0.37693 0.31635 0.58071 0.0
H264 H 0.38835 0.34202 0.78628 0.0
H265 H 0.40559 0.37475 0.7928 0.0
C266 C 0.43807 0.38533 0.76431 0.0
C267 C 0.45365 0.38559 0.71789 0.0
C268 C 0.38519 0.33711 0.74098 0.0
C269 C 0.41168 0.36612 0.70034 0.0
C270 C 0.37509 0.31643 0.73116 0.0
C271 C 0.37292 0.30808 0.67341 0.0
C272 C 0.39359 0.34934 0.69254 0.0
C273 C 0.3786 0.32209 0.62597 0.0
C274 C 0.41694 0.37575 0.7556 0.0
C275 C 0.44658 0.37859 0.66159 0.0
N276 N 0.38933 0.34178 0.63663 0.0
N277 N 0.42631 0.36872 0.65471 0.0
H278 H 0.87093 0.14615 0.08045 0.0
H279 H 0.93387 0.08216 0.83629 0.0
H280 H 0.8664 0.15835 0.89263 0.0
H281 H 0.94289 0.07328 0.02426 0.0
H282 H 0.89631 0.09634 0.85494 0.0
H283 H 0.88313 0.10794 0.05971 0.0
C284 C 0.87163 0.1405 0.0349 0.0
C285 C 0.86853 0.15556 0.98809 0.0
C286 C 0.90616 0.09054 0.89209 0.0
C287 C 0.88291 0.11228 0.96398 0.0
C288 C 0.92759 0.08223 0.88131 0.0
C289 C 0.94177 0.07751 0.92904 0.0
C290 C 0.89928 0.09439 0.95088 0.0
C291 C 0.93268 0.0776 0.98637 0.0
C292 C 0.87871 0.11871 0.02297 0.0
C293 C 0.86942 0.14737 0.92994 0.0
N294 N 0.91226 0.08667 0.99595 0.0
N295 N 0.8771 0.12646 0.91944 0.0
H296 H 0.09498 0.38855 0.82834 0.0
H297 H 0.15884 0.32845 0.08192 0.0
H298 H 0.08312 0.3969 0.01533 0.0
H299 H 0.1635 0.3131 0.89579 0.0
H300 H 0.14486 0.36563 0.05645 0.0
H301 H 0.13244 0.37459 0.85077 0.0
C302 C 0.10063 0.38837 0.87395 0.0
C303 C 0.08579 0.39307 0.92025 0.0
C304 C 0.14967 0.35441 0.02109 0.0
C305 C 0.12815 0.37667 0.9463 0.0
C306 C 0.15777 0.33323 0.0357 0.0
C307 C 0.16148 0.3175 0.99085 0.0
C308 C 0.14512 0.35961 0.96144 0.0
C309 C 0.16007 0.32458 0.93169 0.0
C310 C 0.12196 0.38025 0.88685 0.0
C311 C 0.09393 0.39272 0.9785 0.0
N312 N 0.15143 0.34492 0.91864 0.0
N313 N 0.11437 0.38402 0.99006 0.0
H314 H 0.92879 0.89013 0.33724 0.0
H315 H 0.8681 0.82966 0.08114 0.0
H316 H 0.94178 0.89951 0.15109 0.0
H317 H 0.86097 0.81505 0.26721 0.0
H318 H 0.88086 0.86741 0.10646 0.0
H319 H 0.89118 0.87679 0.31302 0.0
C320 C 0.92336 0.89039 0.29146 0.0
C321 C 0.93857 0.89507 0.24586 0.0
C322 C 0.87573 0.85623 0.14177 0.0
C323 C 0.89607 0.8792 0.2177 0.0
C324 C 0.86832 0.83471 0.12722 0.0
C325 C 0.86434 0.81908 0.1723 0.0
C326 C 0.87936 0.86181 0.20164 0.0
C327 C 0.86466 0.82649 0.23123 0.0
C328 C 0.90193 0.88257 0.27749 0.0
C329 C 0.93067 0.89531 0.18736 0.0
N330 N 0.87268 0.84714 0.24433 0.0
N331 N 0.91017 0.88678 0.17472 0.0
H332 H 0.35459 0.6705 0.53721 0.0
H333 H 0.43589 0.59905 0.47989 0.0
H334 H 0.36271 0.6891 0.35376 0.0
H335 H 0.42598 0.61208 0.29407 0.0
H336 H 0.3995 0.61453 0.50103 0.0
H337 H 0.36852 0.63328 0.51389 0.0
C338 C 0.35889 0.6666 0.49177 0.0
C339 C 0.35854 0.68321 0.44791 0.0
C340 C 0.40457 0.61339 0.45522 0.0
C341 C 0.37565 0.64109 0.42126 0.0
C342 C 0.42555 0.60447 0.4432 0.0
C343 C 0.43413 0.60494 0.38543 0.0
C344 C 0.39235 0.62338 0.40908 0.0
C345 C 0.42006 0.61177 0.3394 0.0
C346 C 0.36723 0.64538 0.47848 0.0
C347 C 0.36365 0.67705 0.38951 0.0
N348 N 0.40011 0.62141 0.35245 0.0
N349 N 0.37254 0.6567 0.3782 0.0
H350 H 0.66088 0.17472 0.58141 0.0
H351 H 0.57782 0.10239 0.64368 0.0
H352 H 0.65479 0.19175 0.76634 0.0
H353 H 0.59268 0.11171 0.82878 0.0
H354 H 0.61284 0.12031 0.61786 0.0
H355 H 0.64486 0.13792 0.60298 0.0
C356 C 0.65651 0.17056 0.62669 0.0
C357 C 0.65828 0.18659 0.67172 0.0
C358 C 0.60917 0.11781 0.66427 0.0
C359 C 0.63903 0.145 0.69654 0.0
C360 C 0.58897 0.10756 0.67901 0.0
C361 C 0.58218 0.10609 0.73835 0.0
C362 C 0.6225 0.12705 0.70937 0.0
C363 C 0.59723 0.11277 0.78243 0.0
C364 C 0.64703 0.14962 0.63901 0.0
C365 C 0.6529 0.18016 0.72984 0.0
N366 N 0.61643 0.12358 0.76698 0.0
N367 N 0.64309 0.16007 0.74033 0.0
H368 H 0.97508 0.36867 0.97822 0.0
H369 H 0.89606 0.2643 0.92777 0.0
H370 H 0.95149 0.34952 0.80515 0.0
H371 H 0.9022 0.29651 0.09772 0.0
H372 H 0.91639 0.29515 0.88213 0.0
H373 H 0.9484 0.34274 0.02321 0.0
C374 C 0.9642 0.35901 0.94973 0.0
C375 C 0.96572 0.36083 0.88796 0.0
C376 C 0.91323 0.29556 0.92936 0.0
C377 C 0.93517 0.33114 0.93896 0.0
C378 C 0.9019 0.27773 0.95566 0.0
C379 C 0.898 0.27753 0.0169 0.0
C380 C 0.92098 0.31323 0.9647 0.0
C381 C 0.9051 0.29596 0.05039 0.0
C382 C 0.94884 0.34436 0.97543 0.0
C383 C 0.95081 0.34847 0.85301 0.0
N384 N 0.91656 0.31296 0.02398 0.0
N385 N 0.93636 0.33381 0.87899 0.0
H386 H 0.46882 0.10463 0.69018 0.0
H387 H 0.37697 0.19582 0.7376 0.0
H388 H 0.44278 0.12065 0.8628 0.0
H389 H 0.39032 0.16661 0.56696 0.0
H390 H 0.3978 0.16582 0.78495 0.0
H391 H 0.43756 0.12403 0.64452 0.0
C392 C 0.45637 0.11212 0.71845 0.0
C393 C 0.45856 0.11154 0.78019 0.0
C394 C 0.39594 0.16571 0.73723 0.0
C395 C 0.42276 0.13392 0.72843 0.0
C396 C 0.38423 0.18298 0.71014 0.0
C397 C 0.38252 0.18395 0.6483 0.0
C398 C 0.40638 0.14952 0.70202 0.0
C399 C 0.39151 0.1665 0.61482 0.0
C400 C 0.4384 0.12306 0.69238 0.0
C401 C 0.44168 0.12094 0.81493 0.0
N402 N 0.4035 0.15018 0.64206 0.0
N403 N 0.42465 0.1322 0.78853 0.0
H404 H 0.57747 0.62934 0.28558 0.0
H405 H 0.62673 0.67375 0.59437 0.0
H406 H 0.54446 0.62082 0.45389 0.0
H407 H 0.64736 0.69889 0.42386 0.0
H408 H 0.6022 0.64664 0.54415 0.0
H409 H 0.60883 0.64765 0.33679 0.0
C410 C 0.57689 0.63122 0.33329 0.0
C411 C 0.55807 0.62425 0.36542 0.0
C412 C 0.61231 0.65797 0.5178 0.0
C413 C 0.59377 0.64471 0.42413 0.0
C414 C 0.62634 0.67328 0.5464 0.0
C415 C 0.63856 0.68884 0.51304 0.0
C416 C 0.61084 0.65816 0.45559 0.0
C417 C 0.63762 0.68763 0.45108 0.0
C418 C 0.59472 0.64165 0.36242 0.0
C419 C 0.5582 0.62678 0.42717 0.0
N420 N 0.62385 0.67267 0.42427 0.0
N421 N 0.57571 0.6369 0.45454 0.0
H422 H 0.09674 0.75487 0.13676 0.0
H423 H 0.08317 0.87375 0.29133 0.0
H424 H 0.14549 0.80726 0.1094 0.0
H425 H 0.02866 0.82822 0.25564 0.0
H426 H 0.10837 0.84882 0.23565 0.0
H427 H 0.07333 0.78096 0.19063 0.0
C428 C 0.10242 0.772 0.14176 0.0
C429 C 0.123 0.77899 0.11845 0.0
C430 C 0.09087 0.84441 0.24023 0.0
C431 C 0.09637 0.80898 0.18102 0.0
C432 C 0.0766 0.85845 0.27235 0.0
C433 C 0.05386 0.85297 0.27798 0.0
C434 C 0.08225 0.82473 0.21477 0.0
C435 C 0.04606 0.83312 0.25215 0.0
C436 C 0.08905 0.7869 0.17257 0.0
C437 C 0.12958 0.80135 0.12627 0.0
N438 N 0.06021 0.81975 0.22191 0.0
N439 N 0.11634 0.81561 0.15749 0.0
H440 H 0.95114 0.62875 0.34782 0.0
H441 H 0.90245 0.68229 0.04891 0.0
H442 H 0.97909 0.61661 0.17488 0.0
H443 H 0.89061 0.70932 0.22294 0.0
H444 H 0.92479 0.65238 0.09412 0.0
H445 H 0.92274 0.65272 0.3019 0.0
C446 C 0.95117 0.63101 0.30018 0.0
C447 C 0.9678 0.62126 0.26517 0.0
C448 C 0.91721 0.66487 0.12232 0.0
C449 C 0.93549 0.64829 0.21249 0.0
C450 C 0.90445 0.68183 0.0966 0.0
C451 C 0.89526 0.6986 0.1322 0.0
C452 C 0.92034 0.66455 0.18406 0.0
C453 C 0.89812 0.69722 0.19375 0.0
C454 C 0.93508 0.64471 0.27406 0.0
C455 C 0.96709 0.6245 0.20366 0.0
N456 N 0.91046 0.68055 0.21776 0.0
N457 N 0.95125 0.63782 0.17923 0.0
H458 H 0.03605 0.13388 0.9767 0.0
H459 H 0.12403 0.18372 0.12582 0.0
H460 H 0.08598 0.1131 0.8503 0.0
H461 H 0.1409 0.20434 0.94823 0.0
H462 H 0.10015 0.154 0.08435 0.0
H463 H 0.06397 0.15649 0.02681 0.0
C464 C 0.05295 0.13359 0.96006 0.0
C465 C 0.05874 0.12094 0.91007 0.0
C466 C 0.10927 0.16499 0.05469 0.0
C467 C 0.09068 0.1476 0.96651 0.0
C468 C 0.12291 0.18177 0.07819 0.0
C469 C 0.1339 0.19671 0.04019 0.0
C470 C 0.1071 0.16301 0.99295 0.0
C471 C 0.13211 0.19352 0.97882 0.0
C472 C 0.06889 0.14661 0.98882 0.0
C473 C 0.08084 0.12234 0.88915 0.0
N474 N 0.11888 0.17697 0.95691 0.0
N475 N 0.096 0.13574 0.91704 0.0
H476 H 0.64623 0.32568 0.54206 0.0
H477 H 0.59473 0.37814 0.8378 0.0
H478 H 0.65918 0.30082 0.71791 0.0
H479 H 0.56718 0.38734 0.66316 0.0
H480 H 0.62663 0.35847 0.7935 0.0
H481 H 0.62558 0.35708 0.58555 0.0
C482 C 0.64509 0.32712 0.58981 0.0
C483 C 0.65377 0.31043 0.62658 0.0
C484 C 0.61373 0.36512 0.76489 0.0
C485 C 0.63044 0.34598 0.67638 0.0
C486 C 0.59564 0.37636 0.7901 0.0
C487 C 0.57812 0.38371 0.75403 0.0
C488 C 0.61426 0.36157 0.70331 0.0
C489 C 0.58001 0.38119 0.69254 0.0
C490 C 0.63327 0.34491 0.61457 0.0
C491 C 0.65201 0.31297 0.68811 0.0
N492 N 0.59766 0.37013 0.66907 0.0
N493 N 0.64033 0.33029 0.71116 0.0
H494 H 0.39394 0.81426 0.59701 0.0
H495 H 0.44703 0.86864 0.30406 0.0
H496 H 0.37307 0.79771 0.41966 0.0
H497 H 0.47791 0.87102 0.47644 0.0
H498 H 0.41442 0.85 0.34851 0.0
H499 H 0.4192 0.84289 0.55598 0.0
C500 C 0.39437 0.817 0.54957 0.0
C501 C 0.38191 0.80337 0.5114 0.0
C502 C 0.42833 0.85473 0.37658 0.0
C503 C 0.41057 0.83572 0.46432 0.0
C504 C 0.44688 0.86535 0.35127 0.0
C505 C 0.46548 0.87066 0.38634 0.0
C506 C 0.42835 0.84973 0.43748 0.0
C507 C 0.46439 0.86634 0.44736 0.0
C508 C 0.40885 0.83317 0.52614 0.0
C509 C 0.38297 0.80746 0.45032 0.0
N510 N 0.44621 0.856 0.47097 0.0
N511 N 0.39723 0.82314 0.42854 0.0
H512 H -0.00521 0.55749 0.07625 0.0
H513 H -0.0055 0.42424 0.08133 0.0
H514 H 0.00095 0.51808 0.23594 0.0
H515 H -0.0012 0.46378 0.92132 0.0
H516 H 0.98989 0.45839 0.1385 0.0
H517 H 0.98928 0.5233 0.01969 0.0
C518 C -0.0052 0.54167 0.09963 0.0
C519 C -0.00129 0.54066 0.16095 0.0
C520 C 0.99165 0.45958 0.09084 0.0
C521 C 0.99242 0.5014 0.09609 0.0
C522 C -0.00573 0.44007 0.05803 0.0
C523 C -0.00259 0.44113 0.99639 0.0
C524 C 0.99215 0.48033 0.06192 0.0
C525 C -0.00332 0.46215 0.96877 0.0
C526 C 0.99165 0.52214 0.06716 0.0
C527 C -0.00177 0.51966 0.18871 0.0
N528 N -0.00566 0.48094 1.00185 0.0
N529 N -0.00462 0.50083 0.15594 0.0
H530 H 0.79503 0.72834 0.16745 0.0
H531 H 0.74086 0.72699 0.48975 0.0
H532 H 0.8337 0.72866 0.32914 0.0
H533 H 0.70292 0.71968 0.32796 0.0
H534 H 0.77532 0.72397 0.43227 0.0
H535 H 0.76131 0.72165 0.22579 0.0
C536 C 0.79648 0.72683 0.21512 0.0
C537 C 0.8172 0.72938 0.24344 0.0
C538 C 0.75943 0.72279 0.40949 0.0
C539 C 0.77866 0.72183 0.31052 0.0
C540 C 0.73974 0.7245 0.44232 0.0
C541 C 0.71895 0.72395 0.41359 0.0
C542 C 0.75829 0.72064 0.34756 0.0
C543 C 0.71855 0.72053 0.35201 0.0
C544 C 0.77721 0.72297 0.24844 0.0
C545 C 0.81807 0.72704 0.30536 0.0
N546 N 0.73792 0.71926 0.32103 0.0
N547 N 0.79904 0.72365 0.33685 0.0
H548 H 0.51727 0.52704 0.38926 0.0
H549 H 0.5266 0.474 0.71323 0.0
H550 H 0.5206 0.56582 0.55051 0.0
H551 H 0.53069 0.43504 0.55252 0.0
H552 H 0.52549 0.50796 0.6536 0.0
H553 H 0.52318 0.4931 0.44763 0.0
C554 C 0.51932 0.52845 0.43679 0.0
C555 C 0.51826 0.54931 0.465 0.0
C556 C 0.52677 0.49198 0.63137 0.0
C557 C 0.52498 0.51062 0.53191 0.0
C558 C 0.52739 0.47257 0.66544 0.0
C559 C 0.52859 0.45161 0.63789 0.0
C560 C 0.5272 0.49044 0.56927 0.0
C561 C 0.52967 0.45082 0.57573 0.0
C562 C 0.52272 0.50908 0.47007 0.0
C563 C 0.52114 0.55012 0.52673 0.0
N564 N 0.52879 0.46996 0.54349 0.0
N565 N 0.52424 0.53106 0.55806 0.0
H566 H 0.83982 0.24417 0.82101 0.0
H567 H 0.70903 0.26972 0.82277 0.0
H568 H 0.79976 0.24722 0.98015 0.0
H569 H 0.74655 0.25516 0.66389 0.0
H570 H 0.74331 0.26706 0.88028 0.0
H571 H 0.80689 0.25337 0.76265 0.0
C572 C 0.82413 0.24686 0.84382 0.0
C573 C 0.82254 0.24472 0.90567 0.0
C574 C 0.74407 0.26458 0.8328 0.0
C575 C 0.78477 0.25531 0.83882 0.0
C576 C 0.7245 0.26614 0.79978 0.0
C577 C 0.72484 0.26238 0.73835 0.0
C578 C 0.76417 0.25925 0.80431 0.0
C579 C 0.74545 0.25801 0.71115 0.0
C580 C 0.80533 0.25211 0.81034 0.0
C581 C 0.80176 0.24852 0.93261 0.0
N582 N 0.76429 0.25641 0.74443 0.0
N583 N 0.78366 0.25356 0.89894 0.0
H584 H 0.23542 0.23302 1.00402 0.0
H585 H 0.28883 0.22886 0.68052 0.0
H586 H 0.19666 0.22597 0.8435 0.0
H587 H 0.32782 0.22705 0.84162 0.0
H588 H 0.2548 0.22604 0.73982 0.0
H589 H 0.26955 0.22874 0.94575 0.0
C590 C 0.23405 0.23036 0.95669 0.0
C591 C 0.21314 0.23014 0.92858 0.0
C592 C 0.27082 0.2261 0.76212 0.0
C593 C 0.25208 0.22541 0.86165 0.0
C594 C 0.29026 0.22777 0.72828 0.0
C595 C 0.31122 0.2284 0.7561 0.0
C596 C 0.27236 0.22521 0.82421 0.0
C597 C 0.31204 0.22677 0.81818 0.0
C598 C 0.25354 0.22793 0.92343 0.0
C599 C 0.2124 0.22649 0.86711 0.0
N600 N 0.29288 0.22543 0.85014 0.0
N601 N 0.23159 0.2245 0.83567 0.0
H602 H 0.2805 0.76271 0.47787 0.0
H603 H 0.22484 0.76381 0.15847 0.0
H604 H 0.31646 0.77756 0.31638 0.0
H605 H 0.18727 0.75527 0.32049 0.0
H606 H 0.25775 0.77343 0.21685 0.0
H607 H 0.24543 0.76469 0.42283 0.0
C608 C 0.28104 0.76669 0.43106 0.0
C609 C 0.3015 0.76954 0.40151 0.0
C610 C 0.24225 0.7697 0.23967 0.0
C611 C 0.26146 0.77166 0.33824 0.0
C612 C 0.22344 0.76413 0.20631 0.0
C613 C 0.20335 0.75836 0.23462 0.0
C614 C 0.24103 0.76926 0.30181 0.0
C615 C 0.20247 0.75938 0.29675 0.0
C616 C 0.26099 0.7678 0.39964 0.0
C617 C 0.30112 0.77487 0.34091 0.0
N618 N 0.22114 0.76441 0.3283 0.0
N619 N 0.28145 0.77545 0.31116 0.0
H620 H 0.50319 0.92668 0.5809 0.0
H621 H 0.50092 0.06002 0.57936 0.0
H622 H 0.50946 0.9665 0.4218 0.0
H623 H 0.50702 0.02014 0.73828 0.0
H624 H 0.49914 0.02586 0.5209 0.0
H625 H 0.49957 0.96077 0.63861 0.0
C626 C 0.5037 0.94258 0.55793 0.0
C627 C 0.50685 0.94371 0.49631 0.0
C628 C 0.50079 0.0246 0.56857 0.0
C629 C 0.50273 0.98285 0.56252 0.0
C630 C 0.50178 0.0441 0.6021 0.0
C631 C 0.5043 0.04297 0.66391 0.0
C632 C 0.50226 0.00381 0.59699 0.0
C633 C 0.50522 0.02184 0.69077 0.0
C634 C 0.50166 0.96205 0.59107 0.0
C635 C 0.50721 0.96482 0.46918 0.0
N636 N 0.50427 0.00308 0.65707 0.0
N637 N 0.50528 0.98359 0.50256 0.0
H638 H 0.02987 0.01173 0.92243 0.0
H639 H 0.03592 0.95716 0.24301 0.0
H640 H 0.04143 0.04904 0.08338 0.0
H641 H 0.02918 0.9188 0.08185 0.0
H642 H 0.04354 0.99042 0.18369 0.0
H643 H 0.03536 0.97704 0.97786 0.0
C644 C 0.03392 0.01266 0.96914 0.0
C645 C 0.0347 0.0333 0.99855 0.0
C646 C 0.04066 0.97467 0.16128 0.0
C647 C 0.0408 -0.00625 0.06224 0.0
C648 C 0.03626 0.95566 0.19519 0.0
C649 C 0.0315 0.93523 0.1674 0.0
C650 C 0.04006 0.97329 0.09914 0.0
C651 C 0.03248 0.93426 0.10524 0.0
C652 C 0.03701 0.99285 1.00081 0.0
C653 C 0.0402 0.0335 0.05905 0.0
N654 N 0.03633 0.9531 0.07319 0.0
N655 N 0.04272 0.01403 0.08901 0.0
H656 H 0.98196 0.48065 0.75115 0.0
H657 H 0.03653 0.51941 0.44362 0.0
H658 H 0.03684 0.44564 0.66955 0.0
H659 H 0.99135 0.5599 0.54648 0.0
H660 H 0.03609 0.49133 0.52305 0.0
H661 H 0.98438 0.50908 0.67383 0.0
C662 C -0.00542 0.47896 0.71704 0.0
C663 C 0.00919 0.46069 0.71686 0.0
C664 C 0.02636 0.50642 0.5282 0.0
C665 C 0.01198 0.49321 0.62763 0.0
C666 C 0.02655 0.52242 0.48283 0.0
C667 C 0.01393 0.54204 0.48829 0.0
C668 C 0.0133 0.51 0.57909 0.0
C669 C 0.00135 0.54506 0.54019 0.0
C670 C -0.00402 0.49524 0.67287 0.0
C671 C 0.02525 0.45946 0.67151 0.0
N672 N 0.00129 0.52921 0.5833 0.0
N673 N 0.02613 0.47543 0.62851 0.0
H674 H 0.81125 0.77048 0.91832 0.0
H675 H 0.6964 0.71731 0.80114 0.0
H676 H 0.77761 0.7146 1.00114 0.0
H677 H 0.73663 0.76235 0.69563 0.0
H678 H 0.72418 0.71941 0.87983 0.0
H679 H 0.78223 0.77101 0.84157 0.0
C680 C 0.7977 0.75843 0.92064 0.0
C681 C 0.79691 0.7424 0.96614 0.0
C682 C 0.72697 0.72886 0.83953 0.0
C683 C 0.7637 0.74296 0.87858 0.0
C684 C 0.71107 0.72771 0.79449 0.0
C685 C 0.7142 0.7396 0.74147 0.0
C686 C 0.74619 0.74211 0.83193 0.0
C687 C 0.73357 0.75282 0.73564 0.0
C688 C 0.7812 0.7587 0.87667 0.0
C689 C 0.77899 0.72718 0.96679 0.0
N690 N 0.74885 0.75372 0.78035 0.0
N691 N 0.76313 0.72784 0.92375 0.0
H692 H 0.51691 0.5775 0.06699 0.0
H693 H 0.49117 0.45169 0.9662 0.0
H694 H 0.4876 0.5284 0.18433 0.0
H695 H 0.5342 0.49726 0.87056 0.0
H696 H 0.48486 0.4808 0.04077 0.0
H697 H 0.51834 0.5495 0.98889 0.0
C698 C 0.51064 0.56084 0.07633 0.0
C699 C 0.50227 0.55527 0.13258 0.0
C700 C 0.49558 0.48441 1.00327 0.0
C701 C 0.50391 0.523 0.04288 0.0
C702 C 0.49913 0.46786 0.96058 0.0
C703 C 0.51336 0.47201 0.91223 0.0
C704 C 0.50616 0.50531 0.99718 0.0
C705 C 0.52325 0.49325 0.90728 0.0
C706 C 0.51152 0.54483 0.03163 0.0
C707 C 0.4943 0.5334 0.14175 0.0
N708 N 0.51948 0.50905 0.9492 0.0
N709 N 0.49538 0.51802 0.09739 0.0
H710 H 0.81481 0.20835 0.23764 0.0
H711 H 0.69878 0.26153 0.34223 0.0
H712 H 0.77977 0.25999 0.14222 0.0
H713 H 0.74063 0.22297 0.45951 0.0
H714 H 0.72615 0.25674 0.26353 0.0
H715 H 0.78568 0.20924 0.31423 0.0
C716 C 0.80091 0.21972 0.2325 0.0
C717 C 0.79978 0.2342 0.18354 0.0
C718 C 0.72937 0.24926 0.30639 0.0
C719 C 0.76647 0.23526 0.27082 0.0
C720 C 0.7137 0.25194 0.35146 0.0
C721 C 0.71744 0.24275 0.40783 0.0
C722 C 0.749 0.2372 0.31733 0.0
C723 C 0.7371 0.23044 0.41684 0.0
C724 C 0.78437 0.22029 0.27636 0.0
C725 C 0.78143 0.24863 0.17931 0.0
N726 N 0.75219 0.22805 0.37206 0.0
N727 N 0.76555 0.24879 0.22231 0.0
H728 H 0.3115 0.26528 0.42557 0.0
H729 H 0.18679 0.2363 0.3216 0.0
H730 H 0.26714 0.22031 0.51891 0.0
H731 H 0.23535 0.26699 0.20521 0.0
H732 H 0.21481 0.23498 0.39967 0.0
H733 H 0.2826 0.27054 0.34977 0.0
C734 C 0.29564 0.25665 0.43038 0.0
C735 C 0.29176 0.24224 0.47856 0.0
C736 C 0.21937 0.24207 0.35715 0.0
C737 C 0.25869 0.24825 0.39221 0.0
C738 C 0.20334 0.24289 0.31245 0.0
C739 C 0.20874 0.25166 0.2565 0.0
C740 C 0.24104 0.25016 0.34623 0.0
C741 C 0.23048 0.26 0.24757 0.0
C742 C 0.27921 0.25959 0.38699 0.0
C743 C 0.27093 0.23146 0.48242 0.0
N744 N 0.24588 0.259 0.29197 0.0
N745 N 0.25522 0.23468 0.43989 0.0
H746 H 0.32465 0.74604 0.79495 0.0
H747 H 0.19603 0.7122 0.83988 0.0
H748 H 0.28115 0.72559 0.65214 0.0
H749 H 0.23865 0.73569 0.98128 0.0
H750 H 0.22767 0.71462 0.77175 0.0
H751 H 0.29404 0.74002 0.86484 0.0
C752 C 0.30869 0.74019 0.77825 0.0
C753 C 0.30546 0.73641 0.71746 0.0
C754 C 0.23014 0.71917 0.81772 0.0
C755 C 0.27026 0.72951 0.79745 0.0
C756 C 0.21207 0.71777 0.85673 0.0
C757 C 0.21463 0.72386 0.91641 0.0
C758 C 0.25098 0.72673 0.8384 0.0
C759 C 0.23585 0.73089 0.93564 0.0
C760 C 0.29119 0.73677 0.81826 0.0
C761 C 0.28441 0.72879 0.69854 0.0
N762 N 0.25317 0.73221 0.89671 0.0
N763 N 0.2676 0.72566 0.73835 0.0
H764 H 0.54136 0.96638 0.21877 0.0
H765 H 0.5001 -0.00322 0.89246 0.0
H766 H 0.51388 0.91826 0.09601 0.0
H767 H 0.54146 0.04147 0.99546 0.0
H768 H 0.50492 0.96802 0.96789 0.0
H769 H 0.5416 -0.00559 0.13919 0.0
C770 C 0.53552 0.96166 0.1751 0.0
C771 C 0.52745 0.93995 0.16421 0.0
C772 C 0.51311 0.98404 0.97394 0.0
C773 C 0.52755 0.97192 0.07327 0.0
C774 C 0.51032 0.00051 0.93085 0.0
C775 C 0.52031 0.0216 0.93775 0.0
C776 C 0.52575 0.98871 0.02493 0.0
C777 C 0.53347 0.02542 0.98833 0.0
C778 C 0.53569 0.97765 0.12971 0.0
C779 C 0.52015 0.93478 0.1067 0.0
N780 N 0.53564 0.0092 0.03034 0.0
N781 N 0.52022 0.95065 0.06368 0.0
H782 H 0.04836 0.05405 0.62835 0.0
H783 H 0.98947 0.94601 0.4877 0.0
H784 H -0.0057 0.01845 0.71387 0.0
H785 H 0.05134 0.97428 0.42273 0.0
H786 H 0.98888 0.97429 0.56591 0.0
H787 H 0.04769 0.02673 0.54823 0.0
C788 C 0.03631 0.04049 0.63032 0.0
C789 C 0.02138 0.03854 0.67808 0.0
C790 C 0.00256 0.97432 0.53447 0.0
C791 C 0.02049 0.00716 0.58602 0.0
C792 C 0.00287 0.95823 0.48962 0.0
C793 C 0.02053 0.95772 0.4486 0.0
C794 C 0.01993 0.99012 0.53816 0.0
C795 C 0.03744 0.97397 0.45344 0.0
C796 C 0.03597 0.02486 0.5845 0.0
C797 C 0.00616 0.02058 0.67807 0.0
N798 N 0.03672 0.98949 0.49736 0.0
N799 N 0.00608 0.00561 0.63269 0.0
loop_
_geom_bond_atom_site_label_1
_geom_bond_atom_site_label_2
_geom_bond_distance
_geom_bond_site_symmetry_2
_ccdc_geom_bond_type
Mg0 O1 2.028 . S
Mg0 O7 1.986 . S
Mg0 O9 2.114 1_455 S
Mg0 O10 2.251 1_455 S
Mg0 O13 2.010 . S
O1 Mg0 2.028 . S
O1 C4 1.250 . S
O2 Mg3 2.028 . S
O2 C4 1.248 . S
Mg3 O2 2.028 . S
Mg3 O8 2.032 . S
Mg3 O10 2.079 1_455 S
C4 O1 1.250 . S
C4 O2 1.248 . S
C5 O6 1.264 . S
C5 O13 1.249 . S
O6 C5 1.264 . S
O7 Mg0 1.986 . S
O7 C11 1.246 . S
O8 Mg3 2.032 . S
O8 C11 1.259 . S
O9 Mg0 2.114 1_655 S
O9 C12 1.252 . S
O10 Mg0 2.251 1_655 S
O10 Mg3 2.079 1_655 S
O10 C12 1.273 . S
C11 O7 1.246 . S
C11 O8 1.259 . S
C12 O9 1.252 . S
C12 O10 1.273 . S
O13 Mg0 2.010 . S
O13 C5 1.249 . S
Mg14 O15 2.028 . S
Mg14 O21 1.986 . S
Mg14 O23 2.114 . S
Mg14 O24 2.251 . S
Mg14 O27 2.010 . S
O15 Mg14 2.028 . S
O15 C18 1.250 . S
O16 Mg17 2.028 . S
O16 C18 1.248 . S
Mg17 O16 2.028 . S
Mg17 O22 2.032 . S
Mg17 O24 2.079 . S
C18 O15 1.250 . S
C18 O16 1.248 . S
C19 O20 1.264 . S
C19 O27 1.249 . S
O20 C19 1.264 . S
O21 Mg14 1.986 . S
O21 C25 1.246 . S
O22 Mg17 2.032 . S
O22 C25 1.259 . S
O23 Mg14 2.114 . S
O23 C26 1.252 . S
O24 Mg14 2.251 . S
O24 Mg17 2.079 . S
O24 C26 1.273 . S
C25 O21 1.246 . S
C25 O22 1.259 . S
C26 O23 1.252 . S
C26 O24 1.273 . S
O27 Mg14 2.010 . S
O27 C19 1.249 . S
Mg28 O29 2.028 . S
Mg28 O35 1.986 . S
Mg28 O37 2.114 . S
Mg28 O38 2.251 . S
Mg28 O41 2.010 . S
O29 Mg28 2.028 . S
O29 C32 1.250 . S
O30 Mg31 2.028 . S
O30 C32 1.248 . S
Mg31 O30 2.028 . S
Mg31 O36 2.032 . S
Mg31 O38 2.079 . S
C32 O29 1.250 . S
C32 O30 1.248 . S
C33 O34 1.264 . S
C33 O41 1.249 . S
O34 C33 1.264 . S
O35 Mg28 1.986 . S
O35 C39 1.246 . S
O36 Mg31 2.032 . S
O36 C39 1.259 . S
O37 Mg28 2.114 . S
O37 C40 1.252 . S
O38 Mg28 2.251 . S
O38 Mg31 2.079 . S
O38 C40 1.273 . S
C39 O35 1.246 . S
C39 O36 1.259 . S
C40 O37 1.252 . S
C40 O38 1.273 . S
O41 Mg28 2.010 . S
O41 C33 1.249 . S
Mg42 O43 2.028 1_554 S
Mg42 O49 1.986 . S
Mg42 O51 2.114 . S
Mg42 O52 2.251 1_554 S
Mg42 O55 2.010 . S
O43 Mg42 2.028 1_556 S
O43 C46 1.250 . S
O44 Mg45 2.028 . S
O44 C46 1.248 . S
Mg45 O44 2.028 . S
Mg45 O50 2.032 . S
Mg45 O52 2.079 . S
C46 O43 1.250 . S
C46 O44 1.248 . S
C47 O48 1.264 . S
C47 O55 1.249 . S
O48 C47 1.264 . S
O49 Mg42 1.986 . S
O49 C53 1.246 1_554 S
O50 Mg45 2.032 . S
O50 C53 1.259 . S
O51 Mg42 2.114 . S
O51 C54 1.252 1_554 S
O52 Mg42 2.251 1_556 S
O52 Mg45 2.079 . S
O52 C54 1.273 . S
C53 O49 1.246 1_556 S
C53 O50 1.259 . S
C54 O51 1.252 1_556 S
C54 O52 1.273 . S
O55 Mg42 2.010 . S
O55 C47 1.249 . S
Mg56 O57 2.028 . S
Mg56 O63 1.986 . S
Mg56 O65 2.114 1_455 S
Mg56 O66 2.251 1_455 S
Mg56 O69 2.010 . S
O57 Mg56 2.028 . S
O57 C60 1.250 . S
O58 Mg59 2.028 . S
O58 C60 1.248 . S
Mg59 O58 2.028 . S
Mg59 O64 2.032 . S
Mg59 O66 2.079 1_455 S
C60 O57 1.250 . S
C60 O58 1.248 . S
C61 O62 1.264 . S
C61 O69 1.249 . S
O62 C61 1.264 . S
O63 Mg56 1.986 . S
O63 C67 1.246 . S
O64 Mg59 2.032 . S
O64 C67 1.259 . S
O65 Mg56 2.114 1_655 S
O65 C68 1.252 . S
O66 Mg56 2.251 1_655 S
O66 Mg59 2.079 1_655 S
O66 C68 1.273 . S
C67 O63 1.246 . S
C67 O64 1.259 . S
C68 O65 1.252 . S
C68 O66 1.273 . S
O69 Mg56 2.010 . S
O69 C61 1.249 . S
Mg70 O71 2.028 . S
Mg70 O77 1.986 . S
Mg70 O79 2.114 . S
Mg70 O80 2.251 . S
Mg70 O83 2.010 . S
O71 Mg70 2.028 . S
O71 C74 1.250 . S
O72 Mg73 2.028 . S
O72 C74 1.248 . S
Mg73 O72 2.028 . S
Mg73 O78 2.032 . S
Mg73 O80 2.079 . S
C74 O71 1.250 . S
C74 O72 1.248 . S
C75 O76 1.264 . S
C75 O83 1.249 1_556 S
O76 C75 1.264 . S
O77 Mg70 1.986 . S
O77 C81 1.246 . S
O78 Mg73 2.032 . S
O78 C81 1.259 . S
O79 Mg70 2.114 . S
O79 C82 1.252 . S
O80 Mg70 2.251 . S
O80 Mg73 2.079 . S
O80 C82 1.273 . S
C81 O77 1.246 . S
C81 O78 1.259 . S
C82 O79 1.252 . S
C82 O80 1.273 . S
O83 Mg70 2.010 . S
O83 C75 1.249 1_554 S
Mg84 O85 2.028 . S
Mg84 O91 1.986 . S
Mg84 O93 2.114 . S
Mg84 O94 2.251 . S
Mg84 O97 2.010 . S
O85 Mg84 2.028 . S
O85 C88 1.250 . S
O86 Mg87 2.028 . S
O86 C88 1.248 . S
Mg87 O86 2.028 . S
Mg87 O92 2.032 . S
Mg87 O94 2.079 . S
C88 O85 1.250 . S
C88 O86 1.248 . S
C89 O90 1.264 . S
C89 O97 1.249 . S
O90 C89 1.264 . S
O91 Mg84 1.986 . S
O91 C95 1.246 . S
O92 Mg87 2.032 . S
O92 C95 1.259 . S
O93 Mg84 2.114 . S
O93 C96 1.252 . S
O94 Mg84 2.251 . S
O94 Mg87 2.079 . S
O94 C96 1.273 . S
C95 O91 1.246 . S
C95 O92 1.259 . S
C96 O93 1.252 . S
C96 O94 1.273 . S
O97 Mg84 2.010 . S
O97 C89 1.249 . S
Mg98 O99 2.028 . S
Mg98 O105 1.986 . S
Mg98 O107 2.114 . S
Mg98 O108 2.251 . S
Mg98 O111 2.010 . S
O99 Mg98 2.028 . S
O99 C102 1.250 . S
O100 Mg101 2.028 . S
O100 C102 1.248 . S
Mg101 O100 2.028 . S
Mg101 O106 2.032 . S
Mg101 O108 2.079 . S
C102 O99 1.250 . S
C102 O100 1.248 . S
C103 O104 1.264 . S
C103 O111 1.249 . S
O104 C103 1.264 . S
O105 Mg98 1.986 . S
O105 C109 1.246 . S
O106 Mg101 2.032 . S
O106 C109 1.259 . S
O107 Mg98 2.114 . S
O107 C110 1.252 . S
O108 Mg98 2.251 . S
O108 Mg101 2.079 . S
O108 C110 1.273 . S
C109 O105 1.246 . S
C109 O106 1.259 . S
C110 O107 1.252 . S
C110 O108 1.273 . S
O111 Mg98 2.010 . S
O111 C103 1.249 . S
Mg112 O113 2.028 . S
Mg112 O119 1.986 . S
Mg112 O121 2.114 . S
Mg112 O122 2.251 . S
Mg112 O125 2.010 . S
O113 Mg112 2.028 . S
O113 C116 1.250 . S
O114 Mg115 2.028 . S
O114 C116 1.248 . S
Mg115 O114 2.028 . S
Mg115 O120 2.032 . S
Mg115 O122 2.079 . S
C116 O113 1.250 . S
C116 O114 1.248 . S
C117 O118 1.264 . S
C117 O125 1.249 . S
O118 C117 1.264 . S
O119 Mg112 1.986 . S
O119 C123 1.246 . S
O120 Mg115 2.032 . S
O120 C123 1.259 . S
O121 Mg112 2.114 . S
O121 C124 1.252 . S
O122 Mg112 2.251 . S
O122 Mg115 2.079 . S
O122 C124 1.273 . S
C123 O119 1.246 . S
C123 O120 1.259 . S
C124 O121 1.252 . S
C124 O122 1.273 . S
O125 Mg112 2.010 . S
O125 C117 1.249 . S
Mg126 O127 2.028 . S
Mg126 O133 1.986 . S
Mg126 O135 2.114 . S
Mg126 O136 2.251 . S
Mg126 O139 2.010 . S
O127 Mg126 2.028 . S
O127 C130 1.250 . S
O128 Mg129 2.028 . S
O128 C130 1.248 . S
Mg129 O128 2.028 . S
Mg129 O134 2.032 . S
Mg129 O136 2.079 . S
C130 O127 1.250 . S
C130 O128 1.248 . S
C131 O132 1.264 . S
C131 O139 1.249 1_556 S
O132 C131 1.264 . S
O133 Mg126 1.986 . S
O133 C137 1.246 . S
O134 Mg129 2.032 . S
O134 C137 1.259 . S
O135 Mg126 2.114 . S
O135 C138 1.252 . S
O136 Mg126 2.251 . S
O136 Mg129 2.079 . S
O136 C138 1.273 . S
C137 O133 1.246 . S
C137 O134 1.259 . S
C138 O135 1.252 . S
C138 O136 1.273 . S
O139 Mg126 2.010 . S
O139 C131 1.249 1_554 S
Mg140 O141 2.028 1_554 S
Mg140 O147 1.986 . S
Mg140 O149 2.114 . S
Mg140 O150 2.251 1_554 S
Mg140 O153 2.010 . S
O141 Mg140 2.028 1_556 S
O141 C144 1.250 . S
O142 Mg143 2.028 . S
O142 C144 1.248 . S
Mg143 O142 2.028 . S
Mg143 O148 2.032 . S
Mg143 O150 2.079 . S
C144 O141 1.250 . S
C144 O142 1.248 . S
C145 O146 1.264 . S
C145 O153 1.249 . S
O146 C145 1.264 . S
O147 Mg140 1.986 . S
O147 C151 1.246 1_554 S
O148 Mg143 2.032 . S
O148 C151 1.259 . S
O149 Mg140 2.114 . S
O149 C152 1.252 1_554 S
O150 Mg140 2.251 1_556 S
O150 Mg143 2.079 . S
O150 C152 1.273 . S
C151 O147 1.246 1_556 S
C151 O148 1.259 . S
C152 O149 1.252 1_556 S
C152 O150 1.273 . S
O153 Mg140 2.010 . S
O153 C145 1.249 . S
Mg154 O155 2.028 . S
Mg154 O161 1.986 . S
Mg154 O163 2.114 . S
Mg154 O164 2.251 . S
Mg154 O167 2.010 . S
O155 Mg154 2.028 . S
O155 C158 1.250 . S
O156 Mg157 2.028 . S
O156 C158 1.248 . S
Mg157 O156 2.028 . S
Mg157 O162 2.032 . S
Mg157 O164 2.079 . S
C158 O155 1.250 . S
C158 O156 1.248 . S
C159 O160 1.264 . S
C159 O167 1.249 . S
O160 C159 1.264 . S
O161 Mg154 1.986 . S
O161 C165 1.246 . S
O162 Mg157 2.032 . S
O162 C165 1.259 . S
O163 Mg154 2.114 . S
O163 C166 1.252 . S
O164 Mg154 2.251 . S
O164 Mg157 2.079 . S
O164 C166 1.273 . S
C165 O161 1.246 . S
C165 O162 1.259 . S
C166 O163 1.252 . S
C166 O164 1.273 . S
O167 Mg154 2.010 . S
O167 C159 1.249 . S
Mg168 O169 2.028 . S
Mg168 O175 1.986 . S
Mg168 O177 2.114 . S
Mg168 O178 2.251 . S
Mg168 O181 2.010 . S
O169 Mg168 2.028 . S
O169 C172 1.250 . S
O170 Mg171 2.028 . S
O170 C172 1.248 . S
Mg171 O170 2.028 . S
Mg171 O176 2.032 . S
Mg171 O178 2.079 . S
C172 O169 1.250 . S
C172 O170 1.248 . S
C173 O174 1.264 . S
C173 O181 1.249 . S
O174 C173 1.264 . S
O175 Mg168 1.986 . S
O175 C179 1.246 . S
O176 Mg171 2.032 . S
O176 C179 1.259 . S
O177 Mg168 2.114 . S
O177 C180 1.252 . S
O178 Mg168 2.251 . S
O178 Mg171 2.079 . S
O178 C180 1.273 . S
C179 O175 1.246 . S
C179 O176 1.259 . S
C180 O177 1.252 . S
C180 O178 1.273 . S
O181 Mg168 2.010 . S
O181 C173 1.249 . S
Mg182 O183 2.028 . S
Mg182 O189 1.986 1_455 S
Mg182 O191 2.114 . S
Mg182 O192 2.251 . S
Mg182 O195 2.010 . S
O183 Mg182 2.028 . S
O183 C186 1.250 . S
O184 Mg185 2.028 . S
O184 C186 1.248 . S
Mg185 O184 2.028 . S
Mg185 O190 2.032 1_455 S
Mg185 O192 2.079 . S
C186 O183 1.250 . S
C186 O184 1.248 . S
C187 O188 1.264 . S
C187 O195 1.249 . S
O188 C187 1.264 . S
O189 Mg182 1.986 1_655 S
O189 C193 1.246 . S
O190 Mg185 2.032 1_655 S
O190 C193 1.259 . S
O191 Mg182 2.114 . S
O191 C194 1.252 . S
O192 Mg182 2.251 . S
O192 Mg185 2.079 . S
O192 C194 1.273 . S
C193 O189 1.246 . S
C193 O190 1.259 . S
C194 O191 1.252 . S
C194 O192 1.273 . S
O195 Mg182 2.010 . S
O195 C187 1.249 . S
Mg196 O197 2.028 . S
Mg196 O203 1.986 . S
Mg196 O205 2.114 . S
Mg196 O206 2.251 . S
Mg196 O209 2.010 . S
O197 Mg196 2.028 . S
O197 C200 1.250 . S
O198 Mg199 2.028 . S
O198 C200 1.248 . S
Mg199 O198 2.028 . S
Mg199 O204 2.032 . S
Mg199 O206 2.079 . S
C200 O197 1.250 . S
C200 O198 1.248 . S
C201 O202 1.264 . S
C201 O209 1.249 . S
O202 C201 1.264 . S
O203 Mg196 1.986 . S
O203 C207 1.246 . S
O204 Mg199 2.032 . S
O204 C207 1.259 . S
O205 Mg196 2.114 . S
O205 C208 1.252 . S
O206 Mg196 2.251 . S
O206 Mg199 2.079 . S
O206 C208 1.273 . S
C207 O203 1.246 . S
C207 O204 1.259 . S
C208 O205 1.252 . S
C208 O206 1.273 . S
O209 Mg196 2.010 . S
O209 C201 1.249 . S
Mg210 O211 2.028 . S
Mg210 O217 1.986 1_455 S
Mg210 O219 2.114 . S
Mg210 O220 2.251 . S
Mg210 O223 2.010 . S
O211 Mg210 2.028 . S
O211 C214 1.250 . S
O212 Mg213 2.028 . S
O212 C214 1.248 . S
Mg213 O212 2.028 . S
Mg213 O218 2.032 1_455 S
Mg213 O220 2.079 . S
C214 O211 1.250 . S
C214 O212 1.248 . S
C215 O216 1.264 . S
C215 O223 1.249 . S
O216 C215 1.264 . S
O217 Mg210 1.986 1_655 S
O217 C221 1.246 . S
O218 Mg213 2.032 1_655 S
O218 C221 1.259 . S
O219 Mg210 2.114 . S
O219 C222 1.252 . S
O220 Mg210 2.251 . S
O220 Mg213 2.079 . S
O220 C222 1.273 . S
C221 O217 1.246 . S
C221 O218 1.259 . S
C222 O219 1.252 . S
C222 O220 1.273 . S
O223 Mg210 2.010 . S
O223 C215 1.249 . S
H224 C230 0.930 . S
H225 C234 0.930 . S
H226 C239 0.929 . S
H227 C237 0.929 . S
H228 C232 0.929 . S
H229 C238 0.929 . S
C230 H224 0.930 . S
C230 C231 1.367 . S
C230 C238 1.378 . S
C231 C230 1.367 . S
C231 C239 1.433 . S
C232 H228 0.929 . S
C232 C234 1.378 . S
C232 C236 1.350 . S
C233 C236 1.463 . S
C233 C238 1.350 . S
C233 N241 1.427 . S
C234 H225 0.930 . S
C234 C232 1.378 . S
C234 C235 1.367 . S
C235 C234 1.367 . S
C235 C237 1.433 . S
C236 C232 1.350 . S
C236 C233 1.463 . S
C236 N240 1.427 . S
C237 H227 0.929 . S
C237 C235 1.433 . S
C237 N240 1.384 . S
C238 H229 0.929 . S
C238 C230 1.378 . S
C238 C233 1.350 . S
C239 H226 0.929 . S
C239 C231 1.433 . S
C239 N241 1.384 . S
N240 C236 1.427 . S
N240 C237 1.384 . S
N241 C233 1.427 . S
N241 C239 1.384 . S
H242 C248 0.930 . S
H243 C252 0.930 . S
H244 C257 0.929 . S
H245 C255 0.929 . S
H246 C250 0.929 . S
H247 C256 0.929 . S
C248 H242 0.930 . S
C248 C249 1.367 . S
C248 C256 1.378 . S
C249 C248 1.367 . S
C249 C257 1.433 . S
C250 H246 0.929 . S
C250 C252 1.378 . S
C250 C254 1.350 . S
C251 C254 1.463 . S
C251 C256 1.350 . S
C251 N259 1.427 . S
C252 H243 0.930 . S
C252 C250 1.378 . S
C252 C253 1.367 . S
C253 C252 1.367 . S
C253 C255 1.433 . S
C254 C250 1.350 . S
C254 C251 1.463 . S
C254 N258 1.427 . S
C255 H245 0.929 . S
C255 C253 1.433 . S
C255 N258 1.384 . S
C256 H247 0.929 . S
C256 C248 1.378 . S
C256 C251 1.350 . S
C257 H244 0.929 . S
C257 C249 1.433 . S
C257 N259 1.384 . S
N258 C254 1.427 . S
N258 C255 1.384 . S
N259 C251 1.427 . S
N259 C257 1.384 . S
H260 C266 0.930 . S
H261 C270 0.930 . S
H262 C275 0.929 . S
H263 C273 0.929 . S
H264 C268 0.929 . S
H265 C274 0.929 . S
C266 H260 0.930 . S
C266 C267 1.367 . S
C266 C274 1.378 . S
C267 C266 1.367 . S
C267 C275 1.433 . S
C268 H264 0.929 . S
C268 C270 1.378 . S
C268 C272 1.350 . S
C269 C272 1.463 . S
C269 C274 1.350 . S
C269 N277 1.427 . S
C270 H261 0.930 . S
C270 C268 1.378 . S
C270 C271 1.367 . S
C271 C270 1.367 . S
C271 C273 1.433 . S
C272 C268 1.350 . S
C272 C269 1.463 . S
C272 N276 1.427 . S
C273 H263 0.929 . S
C273 C271 1.433 . S
C273 N276 1.384 . S
C274 H265 0.929 . S
C274 C266 1.378 . S
C274 C269 1.350 . S
C275 H262 0.929 . S
C275 C267 1.433 . S
C275 N277 1.384 . S
N276 C272 1.427 . S
N276 C273 1.384 . S
N277 C269 1.427 . S
N277 C275 1.384 . S
H278 C284 0.930 . S
H279 C288 0.930 . S
H280 C293 0.929 . S
H281 C291 0.929 . S
H282 C286 0.929 . S
H283 C292 0.929 1_554 S
C284 H278 0.930 . S
C284 C285 1.367 1_554 S
C284 C292 1.378 1_554 S
C285 C284 1.367 1_556 S
C285 C293 1.433 . S
C286 H282 0.929 . S
C286 C288 1.378 . S
C286 C290 1.350 . S
C287 C290 1.463 . S
C287 C292 1.350 . S
C287 N295 1.427 . S
C288 H279 0.930 . S
C288 C286 1.378 . S
C288 C289 1.367 . S
C289 C288 1.367 . S
C289 C291 1.433 . S
C290 C286 1.350 . S
C290 C287 1.463 . S
C290 N294 1.427 . S
C291 H281 0.929 . S
C291 C289 1.433 . S
C291 N294 1.384 . S
C292 H283 0.929 1_556 S
C292 C284 1.378 1_556 S
C292 C287 1.350 . S
C293 H280 0.929 . S
C293 C285 1.433 . S
C293 N295 1.384 . S
N294 C290 1.427 . S
N294 C291 1.384 . S
N295 C287 1.427 . S
N295 C293 1.384 . S
H296 C302 0.930 . S
H297 C306 0.930 . S
H298 C311 0.929 . S
H299 C309 0.929 . S
H300 C304 0.935 . S
H301 C310 0.929 . S
C302 H296 0.930 . S
C302 C303 1.367 . S
C302 C310 1.378 . S
C303 C302 1.367 . S
C303 C311 1.433 . S
C304 H300 0.935 . S
C304 C306 1.381 . S
C304 C308 1.340 1_554 S
C305 C308 1.463 . S
C305 C310 1.350 . S
C305 N313 1.427 . S
C306 H297 0.930 . S
C306 C304 1.381 . S
C306 C307 1.367 1_554 S
C307 C306 1.367 1_556 S
C307 C309 1.433 . S
C308 C304 1.340 1_556 S
C308 C305 1.463 . S
C308 N312 1.427 . S
C309 H299 0.929 . S
C309 C307 1.433 . S
C309 N312 1.384 . S
C310 H301 0.929 . S
C310 C302 1.378 . S
C310 C305 1.350 . S
C311 H298 0.929 . S
C311 C303 1.433 . S
C311 N313 1.384 . S
N312 C308 1.427 . S
N312 C309 1.384 . S
N313 C305 1.427 . S
N313 C311 1.384 . S
H314 C320 0.930 . S
H315 C324 0.930 . S
H316 C329 0.929 . S
H317 C327 0.929 . S
H318 C322 0.929 . S
H319 C328 0.929 . S
C320 H314 0.930 . S
C320 C321 1.367 . S
C320 C328 1.378 . S
C321 C320 1.367 . S
C321 C329 1.433 . S
C322 H318 0.929 . S
C322 C324 1.378 . S
C322 C326 1.350 . S
C323 C326 1.463 . S
C323 C328 1.350 . S
C323 N331 1.427 . S
C324 H315 0.930 . S
C324 C322 1.378 . S
C324 C325 1.367 . S
C325 C324 1.367 . S
C325 C327 1.433 . S
C326 C322 1.350 . S
C326 C323 1.463 . S
C326 N330 1.427 . S
C327 H317 0.929 . S
C327 C325 1.433 . S
C327 N330 1.384 . S
C328 H319 0.929 . S
C328 C320 1.378 . S
C328 C323 1.350 . S
C329 H316 0.929 . S
C329 C321 1.433 . S
C329 N331 1.384 . S
N330 C326 1.427 . S
N330 C327 1.384 . S
N331 C323 1.427 . S
N331 C329 1.384 . S
H332 C338 0.930 . S
H333 C342 0.930 . S
H334 C347 0.929 . S
H335 C345 0.929 . S
H336 C340 0.929 . S
H337 C346 0.929 . S
C338 H332 0.930 . S
C338 C339 1.367 . S
C338 C346 1.378 . S
C339 C338 1.367 . S
C339 C347 1.433 . S
C340 H336 0.929 . S
C340 C342 1.378 . S
C340 C344 1.350 . S
C341 C344 1.463 . S
C341 C346 1.350 . S
C341 N349 1.427 . S
C342 H333 0.930 . S
C342 C340 1.378 . S
C342 C343 1.367 . S
C343 C342 1.367 . S
C343 C345 1.433 . S
C344 C340 1.350 . S
C344 C341 1.463 . S
C344 N348 1.427 . S
C345 H335 0.929 . S
C345 C343 1.433 . S
C345 N348 1.384 . S
C346 H337 0.929 . S
C346 C338 1.378 . S
C346 C341 1.350 . S
C347 H334 0.929 . S
C347 C339 1.433 . S
C347 N349 1.384 . S
N348 C344 1.427 . S
N348 C345 1.384 . S
N349 C341 1.427 . S
N349 C347 1.384 . S
H350 C356 0.930 . S
H351 C360 0.930 . S
H352 C365 0.929 . S
H353 C363 0.929 . S
H354 C358 0.929 . S
H355 C364 0.929 . S
C356 H350 0.930 . S
C356 C357 1.367 . S
C356 C364 1.378 . S
C357 C356 1.367 . S
C357 C365 1.433 . S
C358 H354 0.929 . S
C358 C360 1.378 . S
C358 C362 1.350 . S
C359 C362 1.463 . S
C359 C364 1.350 . S
C359 N367 1.427 . S
C360 H351 0.930 . S
C360 C358 1.378 . S
C360 C361 1.367 . S
C361 C360 1.367 . S
C361 C363 1.433 . S
C362 C358 1.350 . S
C362 C359 1.463 . S
C362 N366 1.427 . S
C363 H353 0.929 . S
C363 C361 1.433 . S
C363 N366 1.384 . S
C364 H355 0.929 . S
C364 C356 1.378 . S
C364 C359 1.350 . S
C365 H352 0.929 . S
C365 C357 1.433 . S
C365 N367 1.384 . S
N366 C362 1.427 . S
N366 C363 1.384 . S
N367 C359 1.427 . S
N367 C365 1.384 . S
H368 C374 0.930 . S
H369 C378 0.930 . S
H370 C383 0.929 . S
H371 C381 0.929 . S
H372 C376 0.929 . S
H373 C382 0.929 1_554 S
C374 H368 0.930 . S
C374 C375 1.367 . S
C374 C382 1.378 . S
C375 C374 1.367 . S
C375 C383 1.433 . S
C376 H372 0.929 . S
C376 C378 1.378 . S
C376 C380 1.350 . S
C377 C380 1.463 . S
C377 C382 1.350 . S
C377 N385 1.427 . S
C378 H369 0.930 . S
C378 C376 1.378 . S
C378 C379 1.367 . S
C379 C378 1.367 . S
C379 C381 1.433 1_556 S
C380 C376 1.350 . S
C380 C377 1.463 . S
C380 N384 1.427 1_556 S
C381 H371 0.929 . S
C381 C379 1.433 1_554 S
C381 N384 1.384 . S
C382 H373 0.929 1_556 S
C382 C374 1.378 . S
C382 C377 1.350 . S
C383 H370 0.929 . S
C383 C375 1.433 . S
C383 N385 1.384 . S
N384 C380 1.427 1_554 S
N384 C381 1.384 . S
N385 C377 1.427 . S
N385 C383 1.384 . S
H386 C392 0.930 . S
H387 C396 0.930 . S
H388 C401 0.929 . S
H389 C399 0.929 . S
H390 C394 0.929 . S
H391 C400 0.929 . S
C392 H386 0.930 . S
C392 C393 1.367 . S
C392 C400 1.378 . S
C393 C392 1.367 . S
C393 C401 1.433 . S
C394 H390 0.929 . S
C394 C396 1.378 . S
C394 C398 1.350 . S
C395 C398 1.463 . S
C395 C400 1.350 . S
C395 N403 1.427 . S
C396 H387 0.930 . S
C396 C394 1.378 . S
C396 C397 1.367 . S
C397 C396 1.367 . S
C397 C399 1.433 . S
C398 C394 1.350 . S
C398 C395 1.463 . S
C398 N402 1.427 . S
C399 H389 0.929 . S
C399 C397 1.433 . S
C399 N402 1.384 . S
C400 H391 0.929 . S
C400 C392 1.378 . S
C400 C395 1.350 . S
C401 H388 0.929 . S
C401 C393 1.433 . S
C401 N403 1.384 . S
N402 C398 1.427 . S
N402 C399 1.384 . S
N403 C395 1.427 . S
N403 C401 1.384 . S
H404 C410 0.930 . S
H405 C414 0.930 . S
H406 C419 0.929 . S
H407 C417 0.929 . S
H408 C412 0.929 . S
H409 C418 0.929 . S
C410 H404 0.930 . S
C410 C411 1.367 . S
C410 C418 1.378 . S
C411 C410 1.367 . S
C411 C419 1.433 . S
C412 H408 0.929 . S
C412 C414 1.378 . S
C412 C416 1.350 . S
C413 C416 1.463 . S
C413 C418 1.350 . S
C413 N421 1.427 . S
C414 H405 0.930 . S
C414 C412 1.378 . S
C414 C415 1.367 . S
C415 C414 1.367 . S
C415 C417 1.433 . S
C416 C412 1.350 . S
C416 C413 1.463 . S
C416 N420 1.427 . S
C417 H407 0.929 . S
C417 C415 1.433 . S
C417 N420 1.384 . S
C418 H409 0.929 . S
C418 C410 1.378 . S
C418 C413 1.350 . S
C419 H406 0.929 . S
C419 C411 1.433 . S
C419 N421 1.384 . S
N420 C416 1.427 . S
N420 C417 1.384 . S
N421 C413 1.427 . S
N421 C419 1.384 . S
H422 C428 0.930 . S
H423 C432 0.930 . S
H424 C437 0.929 . S
H425 C435 0.929 . S
H426 C430 0.929 . S
H427 C436 0.929 . S
C428 H422 0.930 . S
C428 C429 1.367 . S
C428 C436 1.378 . S
C429 C428 1.367 . S
C429 C437 1.433 . S
C430 H426 0.929 . S
C430 C432 1.378 . S
C430 C434 1.350 . S
C431 C434 1.463 . S
C431 C436 1.350 . S
C431 N439 1.427 . S
C432 H423 0.930 . S
C432 C430 1.378 . S
C432 C433 1.367 . S
C433 C432 1.367 . S
C433 C435 1.433 . S
C434 C430 1.350 . S
C434 C431 1.463 . S
C434 N438 1.427 . S
C435 H425 0.929 . S
C435 C433 1.433 . S
C435 N438 1.384 . S
C436 H427 0.929 . S
C436 C428 1.378 . S
C436 C431 1.350 . S
C437 H424 0.929 . S
C437 C429 1.433 . S
C437 N439 1.384 . S
N438 C434 1.427 . S
N438 C435 1.384 . S
N439 C431 1.427 . S
N439 C437 1.384 . S
H440 C446 0.930 . S
H441 C450 0.930 . S
H442 C455 0.929 . S
H443 C453 0.929 . S
H444 C448 0.929 . S
H445 C454 0.929 . S
C446 H440 0.930 . S
C446 C447 1.367 . S
C446 C454 1.378 . S
C447 C446 1.367 . S
C447 C455 1.433 . S
C448 H444 0.929 . S
C448 C450 1.378 . S
C448 C452 1.350 . S
C449 C452 1.463 . S
C449 C454 1.350 . S
C449 N457 1.427 . S
C450 H441 0.930 . S
C450 C448 1.378 . S
C450 C451 1.367 . S
C451 C450 1.367 . S
C451 C453 1.433 . S
C452 C448 1.350 . S
C452 C449 1.463 . S
C452 N456 1.427 . S
C453 H443 0.929 . S
C453 C451 1.433 . S
C453 N456 1.384 . S
C454 H445 0.929 . S
C454 C446 1.378 . S
C454 C449 1.350 . S
C455 H442 0.929 . S
C455 C447 1.433 . S
C455 N457 1.384 . S
N456 C452 1.427 . S
N456 C453 1.384 . S
N457 C449 1.427 . S
N457 C455 1.384 . S
H458 C464 0.930 . S
H459 C468 0.930 . S
H460 C473 0.929 . S
H461 C471 0.929 . S
H462 C466 0.929 . S
H463 C472 0.929 . S
C464 H458 0.930 . S
C464 C465 1.367 . S
C464 C472 1.378 . S
C465 C464 1.367 . S
C465 C473 1.433 . S
C466 H462 0.929 . S
C466 C468 1.378 . S
C466 C470 1.350 . S
C467 C470 1.463 . S
C467 C472 1.350 . S
C467 N475 1.427 . S
C468 H459 0.930 . S
C468 C466 1.378 . S
C468 C469 1.367 . S
C469 C468 1.367 . S
C469 C471 1.433 . S
C470 C466 1.350 . S
C470 C467 1.463 . S
C470 N474 1.427 . S
C471 H461 0.929 . S
C471 C469 1.433 . S
C471 N474 1.384 . S
C472 H463 0.929 . S
C472 C464 1.378 . S
C472 C467 1.350 . S
C473 H460 0.929 . S
C473 C465 1.433 . S
C473 N475 1.384 . S
N474 C470 1.427 . S
N474 C471 1.384 . S
N475 C467 1.427 . S
N475 C473 1.384 . S
H476 C482 0.930 . S
H477 C486 0.930 . S
H478 C491 0.929 . S
H479 C489 0.929 . S
H480 C484 0.929 . S
H481 C490 0.929 . S
C482 H476 0.930 . S
C482 C483 1.367 . S
C482 C490 1.378 . S
C483 C482 1.367 . S
C483 C491 1.433 . S
C484 H480 0.929 . S
C484 C486 1.378 . S
C484 C488 1.350 . S
C485 C488 1.463 . S
C485 C490 1.350 . S
C485 N493 1.427 . S
C486 H477 0.930 . S
C486 C484 1.378 . S
C486 C487 1.367 . S
C487 C486 1.367 . S
C487 C489 1.433 . S
C488 C484 1.350 . S
C488 C485 1.463 . S
C488 N492 1.427 . S
C489 H479 0.929 . S
C489 C487 1.433 . S
C489 N492 1.384 . S
C490 H481 0.929 . S
C490 C482 1.378 . S
C490 C485 1.350 . S
C491 H478 0.929 . S
C491 C483 1.433 . S
C491 N493 1.384 . S
N492 C488 1.427 . S
N492 C489 1.384 . S
N493 C485 1.427 . S
N493 C491 1.384 . S
H494 C500 0.930 . S
H495 C504 0.930 . S
H496 C509 0.929 . S
H497 C507 0.929 . S
H498 C502 0.929 . S
H499 C508 0.929 . S
C500 H494 0.930 . S
C500 C501 1.367 . S
C500 C508 1.378 . S
C501 C500 1.367 . S
C501 C509 1.433 . S
C502 H498 0.929 . S
C502 C504 1.378 . S
C502 C506 1.350 . S
C503 C506 1.463 . S
C503 C508 1.350 . S
C503 N511 1.427 . S
C504 H495 0.930 . S
C504 C502 1.378 . S
C504 C505 1.367 . S
C505 C504 1.367 . S
C505 C507 1.433 . S
C506 C502 1.350 . S
C506 C503 1.463 . S
C506 N510 1.427 . S
C507 H497 0.929 . S
C507 C505 1.433 . S
C507 N510 1.384 . S
C508 H499 0.929 . S
C508 C500 1.378 . S
C508 C503 1.350 . S
C509 H496 0.929 . S
C509 C501 1.433 . S
C509 N511 1.384 . S
N510 C506 1.427 . S
N510 C507 1.384 . S
N511 C503 1.427 . S
N511 C509 1.384 . S
H512 C518 0.930 . S
H513 C522 0.930 . S
H514 C527 0.929 . S
H515 C525 0.929 . S
H516 C520 0.929 . S
H517 C526 0.929 . S
C518 H512 0.930 . S
C518 C519 1.367 . S
C518 C526 1.378 . S
C519 C518 1.367 . S
C519 C527 1.433 . S
C520 H516 0.929 . S
C520 C522 1.378 . S
C520 C524 1.350 . S
C521 C524 1.463 . S
C521 C526 1.350 . S
C521 N529 1.427 . S
C522 H513 0.930 . S
C522 C520 1.378 . S
C522 C523 1.367 1_554 S
C523 C522 1.367 1_556 S
C523 C525 1.433 . S
C524 C520 1.350 . S
C524 C521 1.463 . S
C524 N528 1.427 1_554 S
C525 H515 0.929 . S
C525 C523 1.433 . S
C525 N528 1.384 . S
C526 H517 0.929 . S
C526 C518 1.378 . S
C526 C521 1.350 . S
C527 H514 0.929 . S
C527 C519 1.433 . S
C527 N529 1.384 . S
N528 C524 1.427 1_556 S
N528 C525 1.384 . S
N529 C521 1.427 . S
N529 C527 1.384 . S
H530 C536 0.930 . S
H531 C540 0.930 . S
H532 C545 0.929 . S
H533 C543 0.929 . S
H534 C538 0.929 . S
H535 C544 0.929 . S
C536 H530 0.930 . S
C536 C537 1.367 . S
C536 C544 1.378 . S
C537 C536 1.367 . S
C537 C545 1.433 . S
C538 H534 0.929 . S
C538 C540 1.378 . S
C538 C542 1.350 . S
C539 C542 1.463 . S
C539 C544 1.350 . S
C539 N547 1.427 . S
C540 H531 0.930 . S
C540 C538 1.378 . S
C540 C541 1.367 . S
C541 C540 1.367 . S
C541 C543 1.433 . S
C542 C538 1.350 . S
C542 C539 1.463 . S
C542 N546 1.427 . S
C543 H533 0.929 . S
C543 C541 1.433 . S
C543 N546 1.384 . S
C544 H535 0.929 . S
C544 C536 1.378 . S
C544 C539 1.350 . S
C545 H532 0.929 . S
C545 C537 1.433 . S
C545 N547 1.384 . S
N546 C542 1.427 . S
N546 C543 1.384 . S
N547 C539 1.427 . S
N547 C545 1.384 . S
H548 C554 0.930 . S
H549 C558 0.930 . S
H550 C563 0.929 . S
H551 C561 0.929 . S
H552 C556 0.929 . S
H553 C562 0.929 . S
C554 H548 0.930 . S
C554 C555 1.367 . S
C554 C562 1.378 . S
C555 C554 1.367 . S
C555 C563 1.433 . S
C556 H552 0.929 . S
C556 C558 1.378 . S
C556 C560 1.350 . S
C557 C560 1.463 . S
C557 C562 1.350 . S
C557 N565 1.427 . S
C558 H549 0.930 . S
C558 C556 1.378 . S
C558 C559 1.367 . S
C559 C558 1.367 . S
C559 C561 1.433 . S
C560 C556 1.350 . S
C560 C557 1.463 . S
C560 N564 1.427 . S
C561 H551 0.929 . S
C561 C559 1.433 . S
C561 N564 1.384 . S
C562 H553 0.929 . S
C562 C554 1.378 . S
C562 C557 1.350 . S
C563 H550 0.929 . S
C563 C555 1.433 . S
C563 N565 1.384 . S
N564 C560 1.427 . S
N564 C561 1.384 . S
N565 C557 1.427 . S
N565 C563 1.384 . S
H566 C572 0.930 . S
H567 C576 0.930 . S
H568 C581 0.929 . S
H569 C579 0.929 . S
H570 C574 0.929 . S
H571 C580 0.929 . S
C572 H566 0.930 . S
C572 C573 1.367 . S
C572 C580 1.378 . S
C573 C572 1.367 . S
C573 C581 1.433 . S
C574 H570 0.929 . S
C574 C576 1.378 . S
C574 C578 1.350 . S
C575 C578 1.463 . S
C575 C580 1.350 . S
C575 N583 1.427 . S
C576 H567 0.930 . S
C576 C574 1.378 . S
C576 C577 1.367 . S
C577 C576 1.367 . S
C577 C579 1.433 . S
C578 C574 1.350 . S
C578 C575 1.463 . S
C578 N582 1.427 . S
C579 H569 0.929 . S
C579 C577 1.433 . S
C579 N582 1.384 . S
C580 H571 0.929 . S
C580 C572 1.378 . S
C580 C575 1.350 . S
C581 H568 0.929 . S
C581 C573 1.433 . S
C581 N583 1.384 . S
N582 C578 1.427 . S
N582 C579 1.384 . S
N583 C575 1.427 . S
N583 C581 1.384 . S
H584 C590 0.930 . S
H585 C594 0.930 . S
H586 C599 0.929 . S
H587 C597 0.929 . S
H588 C592 0.929 . S
H589 C598 0.929 . S
C590 H584 0.930 . S
C590 C591 1.367 . S
C590 C598 1.378 . S
C591 C590 1.367 . S
C591 C599 1.433 . S
C592 H588 0.929 . S
C592 C594 1.378 . S
C592 C596 1.350 . S
C593 C596 1.463 . S
C593 C598 1.350 . S
C593 N601 1.427 . S
C594 H585 0.930 . S
C594 C592 1.378 . S
C594 C595 1.367 . S
C595 C594 1.367 . S
C595 C597 1.433 . S
C596 C592 1.350 . S
C596 C593 1.463 . S
C596 N600 1.427 . S
C597 H587 0.929 . S
C597 C595 1.433 . S
C597 N600 1.384 . S
C598 H589 0.929 . S
C598 C590 1.378 . S
C598 C593 1.350 . S
C599 H586 0.929 . S
C599 C591 1.433 . S
C599 N601 1.384 . S
N600 C596 1.427 . S
N600 C597 1.384 . S
N601 C593 1.427 . S
N601 C599 1.384 . S
H602 C608 0.930 . S
H603 C612 0.930 . S
H604 C617 0.929 . S
H605 C615 0.929 . S
H606 C610 0.929 . S
H607 C616 0.929 . S
C608 H602 0.930 . S
C608 C609 1.367 . S
C608 C616 1.378 . S
C609 C608 1.367 . S
C609 C617 1.433 . S
C610 H606 0.929 . S
C610 C612 1.378 . S
C610 C614 1.350 . S
C611 C614 1.463 . S
C611 C616 1.350 . S
C611 N619 1.427 . S
C612 H603 0.930 . S
C612 C610 1.378 . S
C612 C613 1.367 . S
C613 C612 1.367 . S
C613 C615 1.433 . S
C614 C610 1.350 . S
C614 C611 1.463 . S
C614 N618 1.427 . S
C615 H605 0.929 . S
C615 C613 1.433 . S
C615 N618 1.384 . S
C616 H607 0.929 . S
C616 C608 1.378 . S
C616 C611 1.350 . S
C617 H604 0.929 . S
C617 C609 1.433 . S
C617 N619 1.384 . S
N618 C614 1.427 . S
N618 C615 1.384 . S
N619 C611 1.427 . S
N619 C617 1.384 . S
H620 C626 0.930 . S
H621 C630 0.930 . S
H622 C635 0.929 . S
H623 C633 0.929 . S
H624 C628 0.929 . S
H625 C634 0.929 . S
C626 H620 0.930 . S
C626 C627 1.367 . S
C626 C634 1.378 . S
C627 C626 1.367 . S
C627 C635 1.433 . S
C628 H624 0.929 . S
C628 C630 1.378 . S
C628 C632 1.350 . S
C629 C632 1.463 1_565 S
C629 C634 1.350 . S
C629 N637 1.427 . S
C630 H621 0.930 . S
C630 C628 1.378 . S
C630 C631 1.367 . S
C631 C630 1.367 . S
C631 C633 1.433 . S
C632 C628 1.350 . S
C632 C629 1.463 1_545 S
C632 N636 1.427 . S
C633 H623 0.929 . S
C633 C631 1.433 . S
C633 N636 1.384 . S
C634 H625 0.929 . S
C634 C626 1.378 . S
C634 C629 1.350 . S
C635 H622 0.929 . S
C635 C627 1.433 . S
C635 N637 1.384 . S
N636 C632 1.427 . S
N636 C633 1.384 . S
N637 C629 1.427 . S
N637 C635 1.384 . S
H638 C644 0.930 . S
H639 C648 0.930 . S
H640 C653 0.929 . S
H641 C651 0.929 . S
H642 C646 0.929 1_545 S
H643 C652 0.929 1_565 S
C644 H638 0.930 . S
C644 C645 1.367 . S
C644 C652 1.378 . S
C645 C644 1.367 . S
C645 C653 1.433 1_556 S
C646 H642 0.929 1_565 S
C646 C648 1.378 . S
C646 C650 1.350 . S
C647 C650 1.463 1_545 S
C647 C652 1.350 1_554 S
C647 N655 1.427 . S
C648 H639 0.930 . S
C648 C646 1.378 . S
C648 C649 1.367 . S
C649 C648 1.367 . S
C649 C651 1.433 . S
C650 C646 1.350 . S
C650 C647 1.463 1_565 S
C650 N654 1.427 . S
C651 H641 0.929 . S
C651 C649 1.433 . S
C651 N654 1.384 . S
C652 H643 0.929 1_545 S
C652 C644 1.378 . S
C652 C647 1.350 1_556 S
C653 H640 0.929 . S
C653 C645 1.433 1_554 S
C653 N655 1.384 . S
N654 C650 1.427 . S
N654 C651 1.384 . S
N655 C647 1.427 . S
N655 C653 1.384 . S
H656 C662 0.970 . S
H657 C666 0.930 . S
H658 C671 0.929 . S
H659 C669 0.929 . S
H660 C664 0.929 . S
H661 C670 0.968 . S
C662 H656 0.970 . S
C662 C663 1.328 1_655 S
C662 C670 1.378 . S
C663 C662 1.328 1_455 S
C663 C671 1.433 . S
C664 H660 0.929 . S
C664 C666 1.378 . S
C664 C668 1.350 . S
C665 C668 1.463 . S
C665 C670 1.311 1_455 S
C665 N673 1.427 . S
C666 H657 0.930 . S
C666 C664 1.378 . S
C666 C667 1.367 . S
C667 C666 1.367 . S
C667 C669 1.433 1_455 S
C668 C664 1.350 . S
C668 C665 1.463 . S
C668 N672 1.427 1_455 S
C669 H659 0.929 . S
C669 C667 1.433 1_655 S
C669 N672 1.384 . S
C670 H661 0.968 . S
C670 C662 1.378 . S
C670 C665 1.311 1_655 S
C671 H658 0.929 . S
C671 C663 1.433 . S
C671 N673 1.384 . S
N672 C668 1.427 1_655 S
N672 C669 1.384 . S
N673 C665 1.427 . S
N673 C671 1.384 . S
H674 C680 0.930 . S
H675 C684 0.930 . S
H676 C689 0.929 . S
H677 C687 0.929 . S
H678 C682 0.929 . S
H679 C688 0.929 . S
C680 H674 0.930 . S
C680 C681 1.367 . S
C680 C688 1.378 . S
C681 C680 1.367 . S
C681 C689 1.433 . S
C682 H678 0.929 . S
C682 C684 1.378 . S
C682 C686 1.350 . S
C683 C686 1.463 . S
C683 C688 1.350 . S
C683 N691 1.427 . S
C684 H675 0.930 . S
C684 C682 1.378 . S
C684 C685 1.367 . S
C685 C684 1.367 . S
C685 C687 1.433 . S
C686 C682 1.350 . S
C686 C683 1.463 . S
C686 N690 1.427 . S
C687 H677 0.929 . S
C687 C685 1.433 . S
C687 N690 1.384 . S
C688 H679 0.929 . S
C688 C680 1.378 . S
C688 C683 1.350 . S
C689 H676 0.929 . S
C689 C681 1.433 . S
C689 N691 1.384 . S
N690 C686 1.427 . S
N690 C687 1.384 . S
N691 C683 1.427 . S
N691 C689 1.384 . S
H692 C698 0.930 . S
H693 C702 0.930 . S
H694 C707 0.929 . S
H695 C705 0.929 . S
H696 C700 0.929 . S
H697 C706 0.929 . S
C698 H692 0.930 . S
C698 C699 1.367 . S
C698 C706 1.378 . S
C699 C698 1.367 . S
C699 C707 1.433 . S
C700 H696 0.929 . S
C700 C702 1.378 1_554 S
C700 C704 1.350 . S
C701 C704 1.463 . S
C701 C706 1.350 . S
C701 N709 1.427 . S
C702 H693 0.930 . S
C702 C700 1.378 1_556 S
C702 C703 1.367 . S
C703 C702 1.367 . S
C703 C705 1.433 . S
C704 C700 1.350 . S
C704 C701 1.463 . S
C704 N708 1.441 . S
C705 H695 0.929 . S
C705 C703 1.433 . S
C705 N708 1.367 1_556 S
C706 H697 0.929 . S
C706 C698 1.378 . S
C706 C701 1.350 . S
C707 H694 0.929 . S
C707 C699 1.433 . S
C707 N709 1.384 . S
N708 C704 1.441 . S
N708 C705 1.367 1_554 S
N709 C701 1.427 . S
N709 C707 1.384 . S
H710 C716 0.930 . S
H711 C720 0.930 . S
H712 C725 0.929 . S
H713 C723 0.929 . S
H714 C718 0.929 . S
H715 C724 0.929 . S
C716 H710 0.930 . S
C716 C717 1.367 . S
C716 C724 1.378 . S
C717 C716 1.367 . S
C717 C725 1.433 . S
C718 H714 0.929 . S
C718 C720 1.378 . S
C718 C722 1.350 . S
C719 C722 1.463 . S
C719 C724 1.350 . S
C719 N727 1.427 . S
C720 H711 0.930 . S
C720 C718 1.378 . S
C720 C721 1.367 . S
C721 C720 1.367 . S
C721 C723 1.433 . S
C722 C718 1.350 . S
C722 C719 1.463 . S
C722 N726 1.427 . S
C723 H713 0.929 . S
C723 C721 1.433 . S
C723 N726 1.384 . S
C724 H715 0.929 . S
C724 C716 1.378 . S
C724 C719 1.350 . S
C725 H712 0.929 . S
C725 C717 1.433 . S
C725 N727 1.384 . S
N726 C722 1.427 . S
N726 C723 1.384 . S
N727 C719 1.427 . S
N727 C725 1.384 . S
H728 C734 0.930 . S
H729 C738 0.930 . S
H730 C743 0.929 . S
H731 C741 0.929 . S
H732 C736 0.929 . S
H733 C742 0.929 . S
C734 H728 0.930 . S
C734 C735 1.367 . S
C734 C742 1.378 . S
C735 C734 1.367 . S
C735 C743 1.433 . S
C736 H732 0.929 . S
C736 C738 1.378 . S
C736 C740 1.350 . S
C737 C740 1.463 . S
C737 C742 1.350 . S
C737 N745 1.427 . S
C738 H729 0.930 . S
C738 C736 1.378 . S
C738 C739 1.367 . S
C739 C738 1.367 . S
C739 C741 1.433 . S
C740 C736 1.350 . S
C740 C737 1.463 . S
C740 N744 1.427 . S
C741 H731 0.929 . S
C741 C739 1.433 . S
C741 N744 1.384 . S
C742 H733 0.929 . S
C742 C734 1.378 . S
C742 C737 1.350 . S
C743 H730 0.929 . S
C743 C735 1.433 . S
C743 N745 1.384 . S
N744 C740 1.427 . S
N744 C741 1.384 . S
N745 C737 1.427 . S
N745 C743 1.384 . S
H746 C752 0.930 . S
H747 C756 0.930 . S
H748 C761 0.929 . S
H749 C759 0.929 . S
H750 C754 0.929 . S
H751 C760 0.929 . S
C752 H746 0.930 . S
C752 C753 1.367 . S
C752 C760 1.378 . S
C753 C752 1.367 . S
C753 C761 1.433 . S
C754 H750 0.929 . S
C754 C756 1.378 . S
C754 C758 1.350 . S
C755 C758 1.463 . S
C755 C760 1.350 . S
C755 N763 1.427 . S
C756 H747 0.930 . S
C756 C754 1.378 . S
C756 C757 1.367 . S
C757 C756 1.367 . S
C757 C759 1.433 . S
C758 C754 1.350 . S
C758 C755 1.463 . S
C758 N762 1.427 . S
C759 H749 0.929 . S
C759 C757 1.433 . S
C759 N762 1.384 . S
C760 H751 0.929 . S
C760 C752 1.378 . S
C760 C755 1.350 . S
C761 H748 0.929 . S
C761 C753 1.433 . S
C761 N763 1.384 . S
N762 C758 1.427 . S
N762 C759 1.384 . S
N763 C755 1.427 . S
N763 C761 1.384 . S
H764 C770 0.930 . S
H765 C774 0.930 . S
H766 C779 0.929 . S
H767 C777 0.929 . S
H768 C772 0.929 . S
H769 C778 0.929 . S
C770 H764 0.930 . S
C770 C771 1.367 . S
C770 C778 1.378 1_565 S
C771 C770 1.367 . S
C771 C779 1.433 . S
C772 H768 0.929 . S
C772 C774 1.378 1_565 S
C772 C776 1.350 1_566 S
C773 C776 1.463 1_565 S
C773 C778 1.350 1_565 S
C773 N781 1.427 . S
C774 H765 0.930 . S
C774 C772 1.378 1_545 S
C774 C775 1.367 . S
C775 C774 1.367 . S
C775 C777 1.433 . S
C776 C772 1.350 1_544 S
C776 C773 1.463 1_545 S
C776 N780 1.427 . S
C777 H767 0.929 . S
C777 C775 1.433 . S
C777 N780 1.384 1_556 S
C778 H769 0.929 . S
C778 C770 1.378 1_545 S
C778 C773 1.350 1_545 S
C779 H766 0.929 . S
C779 C771 1.433 . S
C779 N781 1.384 . S
N780 C776 1.427 . S
N780 C777 1.384 1_554 S
N781 C773 1.427 . S
N781 C779 1.384 . S
H782 C788 0.930 . S
H783 C792 0.930 . S
H784 C797 0.929 . S
H785 C795 0.929 . S
H786 C790 0.929 . S
H787 C796 0.929 . S
C788 H782 0.930 . S
C788 C789 1.367 . S
C788 C796 1.378 . S
C789 C788 1.367 . S
C789 C797 1.433 . S
C790 H786 0.929 . S
C790 C792 1.378 . S
C790 C794 1.350 . S
C791 C794 1.463 1_545 S
C791 C796 1.350 . S
C791 N799 1.427 1_545 S
C792 H783 0.930 . S
C792 C790 1.378 . S
C792 C793 1.367 . S
C793 C792 1.367 . S
C793 C795 1.433 . S
C794 C790 1.350 . S
C794 C791 1.463 1_565 S
C794 N798 1.427 1_565 S
C795 H785 0.929 . S
C795 C793 1.433 . S
C795 N798 1.384 1_565 S
C796 H787 0.929 . S
C796 C788 1.378 . S
C796 C791 1.350 . S
C797 H784 0.929 . S
C797 C789 1.433 . S
C797 N799 1.384 1_545 S
N798 C794 1.427 1_545 S
N798 C795 1.384 1_545 S
N799 C791 1.427 1_565 S
N799 C797 1.384 1_565 S
C231 C137 1.442 . S
C235 C11 1.439 . S
C249 C207 1.441 . S
C253 C25 1.440 . S
C267 C39 1.431 . S
C271 C123 1.439 . S
C285 C53 1.441 . S
C289 C221 1.434 . S
C303 C67 1.436 . S
C307 C151 1.442 . S
C321 C193 1.440 . S
C325 C81 1.441 . S
C339 C165 1.430 . S
C343 C95 1.439 . S
C357 C109 1.429 . S
C361 C179 1.438 . S
C375 C68 1.443 . S
C379 C54 1.440 . S
C393 C180 1.442 . S
C397 C124 1.440 . S
C411 C96 1.440 . S
C415 C26 1.445 . S
C429 C138 1.440 . S
C433 C194 1.445 . S
C447 C12 1.442 . S
C451 C82 1.444 . S
C465 C222 1.439 . S
C469 C152 1.445 . S
C483 C110 1.442 . S
C487 C40 1.443 . S
C501 C166 1.444 . S
C505 C208 1.441 . S
C519 C4 0.549 . S
C523 C60 0.549 . S
C537 C74 0.572 . S
C541 C18 0.572 . S
C555 C88 0.566 . S
C559 C32 0.566 . S
C573 C46 0.550 . S
C577 C102 0.550 . S
C591 C144 0.576 . S
C595 C116 0.576 . S
C609 C158 0.579 . S
C613 C130 0.579 . S
C627 C200 0.555 . S
C631 C172 0.555 . S
C645 C214 0.581 . S
C649 C186 0.581 . S
C663 C61 1.397 . S
C667 C5 1.397 . S
C681 C75 1.383 . S
C685 C19 1.382 . S
C699 C89 1.382 . S
C703 C33 1.383 . S
C717 C47 1.379 . S
C721 C103 1.379 . S
C735 C117 1.382 . S
C739 C145 1.381 . S
C753 C159 1.378 . S
C757 C131 1.378 . S
C771 C201 1.404 . S
C775 C173 1.404 . S
C789 C215 1.378 . S
C793 C187 1.379 . S
