# Generated by pormake.
# Topology cag, (4)-cn, num edge types: 1
# Building blocks:
#     Node 0, Type 0, BuildingBlock: KUFVIS_clean_sbu_0, # of connection points: 4
#     Node 1, Type 0, BuildingBlock: KUFVIS_clean_sbu_0, # of connection points: 4
#     Node 2, Type 0, BuildingBlock: KUFVIS_clean_sbu_0, # of connection points: 4
#     Node 3, Type 0, BuildingBlock: KUFVIS_clean_sbu_0, # of connection points: 4
#     Node 4, Type 0, BuildingBlock: KUFVIS_clean_sbu_0, # of connection points: 4
#     Node 5, Type 0, BuildingBlock: KUFVIS_clean_sbu_0, # of connection points: 4
#     Node 6, Type 0, BuildingBlock: KUFVIS_clean_sbu_0, # of connection points: 4
#     Node 7, Type 0, BuildingBlock: KUFVIS_clean_sbu_0, # of connection points: 4
#     Node 8, Type 0, BuildingBlock: KUFVIS_clean_sbu_0, # of connection points: 4
#     Node 9, Type 0, BuildingBlock: KUFVIS_clean_sbu_0, # of connection points: 4
#     Node 10, Type 0, BuildingBlock: KUFVIS_clean_sbu_0, # of connection points: 4
#     Node 11, Type 0, BuildingBlock: KUFVIS_clean_sbu_0, # of connection points: 4
#     Node 12, Type 0, BuildingBlock: KUFVIS_clean_sbu_0, # of connection points: 4
#     Node 13, Type 0, BuildingBlock: KUFVIS_clean_sbu_0, # of connection points: 4
#     Node 14, Type 0, BuildingBlock: KUFVIS_clean_sbu_0, # of connection points: 4
#     Node 15, Type 0, BuildingBlock: KUFVIS_clean_sbu_0, # of connection points: 4
#     Edge 16, Type (0, 0), BuildingBlock: KIFKEQ_clean_linker_1, # of connection points: 2
#     Edge 17, Type (0, 0), BuildingBlock: KIFKEQ_clean_linker_1, # of connection points: 2
#     Edge 18, Type (0, 0), BuildingBlock: KIFKEQ_clean_linker_1, # of connection points: 2
#     Edge 19, Type (0, 0), BuildingBlock: KIFKEQ_clean_linker_1, # of connection points: 2
#     Edge 20, Type (0, 0), BuildingBlock: KIFKEQ_clean_linker_1, # of connection points: 2
#     Edge 21, Type (0, 0), BuildingBlock: KIFKEQ_clean_linker_1, # of connection points: 2
#     Edge 22, Type (0, 0), BuildingBlock: KIFKEQ_clean_linker_1, # of connection points: 2
#     Edge 23, Type (0, 0), BuildingBlock: KIFKEQ_clean_linker_1, # of connection points: 2
#     Edge 24, Type (0, 0), BuildingBlock: KIFKEQ_clean_linker_1, # of connection points: 2
#     Edge 25, Type (0, 0), BuildingBlock: KIFKEQ_clean_linker_1, # of connection points: 2
#     Edge 26, Type (0, 0), BuildingBlock: KIFKEQ_clean_linker_1, # of connection points: 2
#     Edge 27, Type (0, 0), BuildingBlock: KIFKEQ_clean_linker_1, # of connection points: 2
#     Edge 28, Type (0, 0), BuildingBlock: KIFKEQ_clean_linker_1, # of connection points: 2
#     Edge 29, Type (0, 0), BuildingBlock: KIFKEQ_clean_linker_1, # of connection points: 2
#     Edge 30, Type (0, 0), BuildingBlock: KIFKEQ_clean_linker_1, # of connection points: 2
#     Edge 31, Type (0, 0), BuildingBlock: KIFKEQ_clean_linker_1, # of connection points: 2
#     Edge 32, Type (0, 0), BuildingBlock: KIFKEQ_clean_linker_1, # of connection points: 2
#     Edge 33, Type (0, 0), BuildingBlock: KIFKEQ_clean_linker_1, # of connection points: 2
#     Edge 34, Type (0, 0), BuildingBlock: KIFKEQ_clean_linker_1, # of connection points: 2
#     Edge 35, Type (0, 0), BuildingBlock: KIFKEQ_clean_linker_1, # of connection points: 2
#     Edge 36, Type (0, 0), BuildingBlock: KIFKEQ_clean_linker_1, # of connection points: 2
#     Edge 37, Type (0, 0), BuildingBlock: KIFKEQ_clean_linker_1, # of connection points: 2
#     Edge 38, Type (0, 0), BuildingBlock: KIFKEQ_clean_linker_1, # of connection points: 2
#     Edge 39, Type (0, 0), BuildingBlock: KIFKEQ_clean_linker_1, # of connection points: 2
#     Edge 40, Type (0, 0), BuildingBlock: KIFKEQ_clean_linker_1, # of connection points: 2
#     Edge 41, Type (0, 0), BuildingBlock: KIFKEQ_clean_linker_1, # of connection points: 2
#     Edge 42, Type (0, 0), BuildingBlock: KIFKEQ_clean_linker_1, # of connection points: 2
#     Edge 43, Type (0, 0), BuildingBlock: KIFKEQ_clean_linker_1, # of connection points: 2
#     Edge 44, Type (0, 0), BuildingBlock: KIFKEQ_clean_linker_1, # of connection points: 2
#     Edge 45, Type (0, 0), BuildingBlock: KIFKEQ_clean_linker_1, # of connection points: 2
#     Edge 46, Type (0, 0), BuildingBlock: KIFKEQ_clean_linker_1, # of connection points: 2
#     Edge 47, Type (0, 0), BuildingBlock: KIFKEQ_clean_linker_1, # of connection points: 2
# Relax obj value: 0.083
# Max RMSD: 0.120
# Mean RMSD: 0.116
data_MOF--net-cag--node1-KUFVIS_clean_sbu_0--edge1-KIFKEQ_clean_linker_1
_symmetry_space_group_name_H-M    P1
_symmetry_Int_Tables_number       1
_symmetry_cell_setting            triclinic
loop_
_symmetry_equiv_pos_as_xyz
'x, y, z'
_cell_length_a     42.324635
_cell_length_b     50.090048
_cell_length_c     41.514116
_cell_angle_alpha  90.028282
_cell_angle_beta   89.987443
_cell_angle_gamma 89.94505
loop_
_atom_site_label
_atom_site_type_symbol
_atom_site_fract_x
_atom_site_fract_y
_atom_site_fract_z
_atom_type_partial_charge
Mn0 Mn 0.35393 0.14411 0.10435 0.0
Mn1 Mn 0.37936 0.18694 0.16181 0.0
C2 C 0.4055 0.16014 0.10388 0.0
C3 C 0.34615 0.10191 0.08101 0.0
C4 C 0.33857 0.20436 0.10595 0.0
O5 O 0.32121 0.13852 0.14044 0.0
O6 O 0.34015 0.16876 0.17595 0.0
C7 C 0.3961 0.14651 0.21104 0.0
N8 N 0.40455 0.16741 0.19193 0.0
C9 C 0.45757 0.16692 0.21282 0.0
C10 C 0.4494 0.14548 0.23284 0.0
C11 C 0.41854 0.13519 0.23189 0.0
C12 C 0.43422 0.17734 0.19251 0.0
H13 H 0.37244 0.13849 0.21037 0.0
C14 C 0.32019 0.15095 0.16741 0.0
O15 O 0.32926 0.12242 0.07294 0.0
O16 O 0.36634 0.10541 0.10423 0.0
N17 N 0.4173 0.20576 0.15167 0.0
C18 C 0.42142 0.22623 0.13048 0.0
C19 C 0.45086 0.23897 0.12868 0.0
C20 C 0.4756 0.23063 0.1488 0.0
C21 C 0.47084 0.20954 0.17044 0.0
C22 C 0.44085 0.19787 0.17148 0.0
H23 H 0.40241 0.23284 0.1151 0.0
O24 O 0.39228 0.15194 0.07747 0.0
O25 O 0.38811 0.15911 0.12961 0.0
O26 O 0.33565 0.18101 0.09408 0.0
O27 O 0.35453 0.20909 0.1314 0.0
C28 C 0.49461 0.19963 0.19098 0.0
C29 C 0.48804 0.17822 0.21201 0.0
H30 H 0.46665 0.13668 0.24894 0.0
H31 H 0.41207 0.11859 0.24719 0.0
H32 H 0.45445 0.25523 0.11193 0.0
H33 H 0.498 0.24075 0.14752 0.0
H34 H 0.5181 0.20811 0.19066 0.0
H35 H 0.5066 0.17059 0.22743 0.0
Mn36 Mn 0.15155 0.89498 0.60941 0.0
Mn37 Mn 0.12424 0.84959 0.66286 0.0
C38 C 0.09915 0.8812 0.60772 0.0
C39 C 0.16193 0.93741 0.58812 0.0
C40 C 0.163 0.83422 0.60511 0.0
O41 O 0.18441 0.89781 0.64553 0.0
O42 O 0.16535 0.86467 0.67675 0.0
C43 C 0.11302 0.88684 0.71719 0.0
N44 N 0.10234 0.86754 0.69681 0.0
C45 C 0.05281 0.86477 0.72503 0.0
C46 C 0.06329 0.88455 0.74641 0.0
C47 C 0.09345 0.89575 0.74233 0.0
C48 C 0.07319 0.85694 0.70021 0.0
H49 H 0.13631 0.89528 0.71439 0.0
C50 C 0.18577 0.88275 0.67037 0.0
O51 O 0.17741 0.9164 0.57913 0.0
O52 O 0.14168 0.93426 0.61141 0.0
N53 N 0.08457 0.83322 0.6534 0.0
C54 C 0.07748 0.81539 0.6297 0.0
C55 C 0.04821 0.80226 0.63024 0.0
C56 C 0.02677 0.80735 0.65533 0.0
C57 C 0.03434 0.82615 0.67915 0.0
C58 C 0.06392 0.8385 0.67743 0.0
H59 H 0.09423 0.81092 0.61083 0.0
O60 O 0.11334 0.88984 0.58205 0.0
O61 O 0.11615 0.88015 0.63384 0.0
O62 O 0.16824 0.85815 0.59643 0.0
O63 O 0.14572 0.82838 0.6292 0.0
C64 C 0.01389 0.83297 0.70468 0.0
C65 C 0.02295 0.85252 0.72734 0.0
H66 H 0.04835 0.89135 0.76596 0.0
H67 H 0.1017 0.91107 0.75869 0.0
H68 H 0.04242 0.78787 0.6117 0.0
H69 H 0.00468 0.79652 0.65613 0.0
H70 H 0.99108 0.82343 0.70711 0.0
H71 H 0.0068 0.85791 0.74653 0.0
Mn72 Mn 0.36023 0.89227 0.92517 0.0
Mn73 Mn 0.38944 0.84285 0.87808 0.0
C74 C 0.41206 0.87715 0.93219 0.0
C75 C 0.35066 0.9365 0.9413 0.0
C76 C 0.34321 0.83294 0.93219 0.0
O77 O 0.33064 0.89378 0.88566 0.0
O78 O 0.3537 0.86101 0.85669 0.0
C79 C 0.41411 0.87444 0.82321 0.0
N80 N 0.4186 0.85594 0.84679 0.0
C81 C 0.47005 0.84468 0.82619 0.0
C82 C 0.466 0.86359 0.80163 0.0
C83 C 0.43802 0.8787 0.80031 0.0
C84 C 0.44571 0.84173 0.8487 0.0
H85 H 0.39241 0.88574 0.82183 0.0
C86 C 0.33316 0.8796 0.86002 0.0
O87 O 0.3331 0.91686 0.95069 0.0
O88 O 0.37271 0.93085 0.92053 0.0
N89 N 0.42452 0.82383 0.89563 0.0
C90 C 0.42551 0.80782 0.92213 0.0
C91 C 0.45206 0.79159 0.92739 0.0
C92 C 0.47698 0.79166 0.90506 0.0
C93 C 0.47562 0.80865 0.87824 0.0
C94 C 0.44873 0.82457 0.87447 0.0
H95 H 0.40596 0.80709 0.93883 0.0
O96 O 0.39639 0.88773 0.95588 0.0
O97 O 0.39659 0.87462 0.90533 0.0
O98 O 0.34063 0.85724 0.94055 0.0
O99 O 0.3604 0.82553 0.90874 0.0
C100 C 0.49974 0.81027 0.85496 0.0
C101 C 0.49719 0.82855 0.8292 0.0
H102 H 0.48423 0.86672 0.78371 0.0
H103 H 0.43473 0.89336 0.78146 0.0
H104 H 0.45305 0.77867 0.94826 0.0
H105 H 0.49718 0.77874 0.90889 0.0
H106 H 0.52064 0.79787 0.85695 0.0
H107 H 0.51626 0.83008 0.8119 0.0
Mn108 Mn 0.1533 0.1461 0.42791 0.0
Mn109 Mn 0.12628 0.18929 0.37167 0.0
C110 C 0.10123 0.16101 0.42901 0.0
C111 C 0.16281 0.10413 0.45086 0.0
C112 C 0.16678 0.20661 0.42766 0.0
O113 O 0.18601 0.14162 0.39153 0.0
O114 O 0.16601 0.17216 0.35703 0.0
C115 C 0.11058 0.14925 0.32161 0.0
N116 N 0.10159 0.16973 0.34119 0.0
C117 C 0.04848 0.16843 0.32057 0.0
C118 C 0.0572 0.14743 0.30007 0.0
C119 C 0.08837 0.13776 0.30065 0.0
C120 C 0.07161 0.17904 0.34098 0.0
H121 H 0.13448 0.14171 0.32202 0.0
C122 C 0.18659 0.1546 0.36494 0.0
O123 O 0.17873 0.1251 0.45911 0.0
O124 O 0.14263 0.10701 0.42748 0.0
N125 N 0.08784 0.20717 0.38239 0.0
C126 C 0.08321 0.22725 0.40405 0.0
C127 C 0.05343 0.23937 0.40626 0.0
C128 C 0.02886 0.23084 0.38607 0.0
C129 C 0.03414 0.21017 0.36394 0.0
C130 C 0.06446 0.19912 0.3625 0.0
H131 H 0.10208 0.234 0.41952 0.0
O132 O 0.11487 0.15273 0.45514 0.0
O133 O 0.11846 0.16068 0.40313 0.0
O134 O 0.17036 0.18314 0.43883 0.0
O135 O 0.15054 0.21154 0.40247 0.0
C136 C 0.01056 0.20007 0.34331 0.0
C137 C 0.01768 0.17909 0.32179 0.0
H138 H 0.04014 0.13849 0.28389 0.0
H139 H 0.09526 0.12149 0.28499 0.0
H140 H 0.04944 0.25532 0.42339 0.0
H141 H 0.00621 0.24051 0.38768 0.0
H142 H 0.98682 0.20807 0.34395 0.0
H143 H 0.99927 0.17129 0.30631 0.0
Mn144 Mn 0.70378 0.89277 0.94898 0.0
Mn145 Mn 0.67278 0.83241 0.93105 0.0
C146 C 0.65104 0.8891 0.93494 0.0
C147 C 0.71549 0.9283 0.98321 0.0
C148 C 0.71601 0.86251 0.88596 0.0
O149 O 0.73501 0.86678 0.97024 0.0
O150 O 0.71109 0.82764 0.9579 0.0
C151 C 0.65289 0.81438 0.99585 0.0
N152 N 0.64556 0.8204 0.96475 0.0
C153 C 0.59091 0.80923 0.97326 0.0
C154 C 0.59791 0.80274 1.00533 0.0
C155 C 0.62904 0.80531 1.01666 0.0
C156 C 0.61578 0.81764 0.95346 0.0
H157 H 0.67675 0.81652 1.00471 0.0
C158 C 0.73306 0.84126 0.97138 0.0
O159 O 0.73127 0.9242 0.9569 0.0
O160 O 0.69442 0.91057 0.99094 0.0
N161 N 0.63542 0.83495 0.90547 0.0
C162 C 0.63214 0.8448 0.87506 0.0
C163 C 0.60204 0.84586 0.86104 0.0
C164 C 0.57573 0.83677 0.8784 0.0
C165 C 0.57978 0.82617 0.90938 0.0
C166 C 0.61037 0.82552 0.92209 0.0
H167 H 0.65221 0.85239 0.86191 0.0
O168 O 0.66608 0.91136 0.93038 0.0
O169 O 0.66762 0.8694 0.94641 0.0
O170 O 0.71934 0.883 0.90374 0.0
O171 O 0.69975 0.84226 0.89417 0.0
C172 C 0.55448 0.81764 0.92881 0.0
C173 C 0.56004 0.80882 0.96057 0.0
H174 H 0.57948 0.79617 0.0216 0.0
H175 H 0.63459 0.8005 0.04143 0.0
H176 H 0.59901 0.85419 0.83719 0.0
H177 H 0.5525 0.83884 0.86804 0.0
H178 H 0.53055 0.81882 0.92 0.0
H179 H 0.54025 0.80279 0.97541 0.0
Mn180 Mn 0.81029 0.15277 0.43804 0.0
Mn181 Mn 0.83565 0.21662 0.4331 0.0
C182 C 0.86281 0.16191 0.42627 0.0
C183 C 0.7993 0.11309 0.46533 0.0
C184 C 0.79809 0.18972 0.38041 0.0
O185 O 0.77527 0.17356 0.46146 0.0
O186 O 0.79589 0.21507 0.45811 0.0
C187 C 0.85089 0.22478 0.50202 0.0
N188 N 0.86003 0.22476 0.47056 0.0
C189 C 0.91274 0.23831 0.48475 0.0
C190 C 0.90386 0.23862 0.5173 0.0
C191 C 0.87282 0.23175 0.52596 0.0
C192 C 0.88989 0.23112 0.46199 0.0
H193 H 0.82707 0.21946 0.50878 0.0
C194 C 0.77464 0.19863 0.46738 0.0
O195 O 0.78548 0.11921 0.43849 0.0
O196 O 0.81868 0.13063 0.47728 0.0
N197 N 0.87412 0.22106 0.40969 0.0
C198 C 0.87896 0.21918 0.37732 0.0
C199 C 0.90864 0.22569 0.36456 0.0
C200 C 0.93289 0.2342 0.38517 0.0
C201 C 0.92744 0.23586 0.41844 0.0
C202 C 0.89723 0.22948 0.4297 0.0
H203 H 0.8603 0.21289 0.36132 0.0
O204 O 0.85042 0.13917 0.4183 0.0
O205 O 0.8442 0.17857 0.44101 0.0
O206 O 0.7962 0.1672 0.39444 0.0
O207 O 0.81144 0.21005 0.39295 0.0
C208 C 0.95069 0.24361 0.44088 0.0
C209 C 0.94341 0.24463 0.47402 0.0
H210 H 0.92071 0.24398 0.53584 0.0
H211 H 0.86582 0.23184 0.55104 0.0
H212 H 0.91276 0.22435 0.33888 0.0
H213 H 0.95539 0.23966 0.375 0.0
H214 H 0.9743 0.24867 0.43304 0.0
H215 H 0.96159 0.25031 0.49105 0.0
Mn216 Mn 0.69608 0.15546 0.09607 0.0
Mn217 Mn 0.6698 0.21893 0.10303 0.0
C218 C 0.64378 0.164 0.10946 0.0
C219 C 0.70679 0.11604 0.06817 0.0
C220 C 0.70863 0.19179 0.15441 0.0
O221 O 0.72985 0.17665 0.07154 0.0
O222 O 0.70975 0.21807 0.07821 0.0
C223 C 0.65488 0.22795 0.03418 0.0
N224 N 0.64554 0.22738 0.06557 0.0
C225 C 0.59267 0.24048 0.05127 0.0
C226 C 0.60176 0.24135 0.0188 0.0
C227 C 0.63299 0.23499 1.01023 0.0
C228 C 0.6155 0.23326 0.07405 0.0
H229 H 0.67884 0.22302 0.02746 0.0
C230 C 0.73066 0.20193 0.06732 0.0
O231 O 0.72175 0.12235 0.0943 0.0
O232 O 0.68638 0.13323 0.05728 0.0
N233 N 0.63112 0.22276 0.12627 0.0
C234 C 0.62609 0.22042 0.15856 0.0
C235 C 0.59618 0.2264 0.17122 0.0
C236 C 0.5719 0.23484 0.15058 0.0
C237 C 0.57756 0.23699 0.1174 0.0
C238 C 0.60798 0.23114 0.10625 0.0
H239 H 0.64477 0.21416 0.17457 0.0
O240 O 0.65684 0.14142 0.11713 0.0
O241 O 0.66172 0.18093 0.09441 0.0
O242 O 0.71155 0.16984 0.13924 0.0
O243 O 0.69384 0.21193 0.14314 0.0
C244 C 0.55431 0.24473 0.09495 0.0
C245 C 0.5618 0.24628 0.06189 0.0
H246 H 0.58493 0.24676 1.00025 0.0
H247 H 0.64016 0.23551 0.98521 0.0
H248 H 0.5919 0.22467 0.19683 0.0
H249 H 0.54918 0.23986 0.16065 0.0
H250 H 0.53055 0.24939 0.10272 0.0
H251 H 0.54363 0.25196 0.04484 0.0
Mn252 Mn 0.80607 0.89203 0.59365 0.0
Mn253 Mn 0.83623 0.83048 0.60734 0.0
C254 C 0.85927 0.88692 0.60508 0.0
C255 C 0.79285 0.92883 0.5619 0.0
C256 C 0.79801 0.86073 0.65677 0.0
O257 O 0.77263 0.86753 0.57346 0.0
O258 O 0.79532 0.8277 0.58436 0.0
C259 C 0.84863 0.81446 0.53982 0.0
N260 N 0.85923 0.81862 0.57039 0.0
C261 C 0.9117 0.80446 0.55598 0.0
C262 C 0.9013 0.79985 0.5244 0.0
C263 C 0.86963 0.80491 0.51629 0.0
C264 C 0.8896 0.81368 0.5785 0.0
H265 H 0.82435 0.81843 0.53343 0.0
C266 C 0.77316 0.84199 0.57233 0.0
O267 O 0.7791 0.92422 0.58922 0.0
O268 O 0.8129 0.91101 0.55181 0.0
N269 N 0.87602 0.83028 0.62902 0.0
C270 C 0.88283 0.83811 0.65968 0.0
C271 C 0.91395 0.836 0.67099 0.0
C272 C 0.93756 0.82566 0.65078 0.0
C273 C 0.9299 0.81721 0.61958 0.0
C274 C 0.89847 0.81978 0.60961 0.0
H275 H 0.86477 0.84634 0.67515 0.0
O276 O 0.84502 0.90936 0.61083 0.0
O277 O 0.84191 0.86783 0.59322 0.0
O278 O 0.79315 0.8812 0.63932 0.0
O279 O 0.81358 0.84043 0.64722 0.0
C280 C 0.95243 0.80745 0.5975 0.0
C281 C 0.94332 0.801 0.56576 0.0
H282 H 0.9175 0.79273 0.5061 0.0
H283 H 0.86146 0.80154 0.49192 0.0
H284 H 0.91983 0.84263 0.69507 0.0
H285 H 0.9616 0.8249 0.65921 0.0
H286 H 0.97697 0.80544 0.60438 0.0
H287 H 0.96097 0.79397 0.54885 0.0
Mn288 Mn 0.85345 0.64125 0.10409 0.0
Mn289 Mn 0.87603 0.68298 0.16372 0.0
C290 C 0.90531 0.65681 0.10699 0.0
C291 C 0.84563 0.59954 0.07986 0.0
C292 C 0.83545 0.70031 0.10733 0.0
O293 O 0.81874 0.63599 0.13832 0.0
O294 O 0.83951 0.66144 0.17816 0.0
C295 C 0.89863 0.64364 0.21182 0.0
N296 N 0.90388 0.66555 0.1932 0.0
C297 C 0.95462 0.6729 0.21772 0.0
C298 C 0.94973 0.65047 0.2373 0.0
C299 C 0.92174 0.63563 0.2341 0.0
C300 C 0.93114 0.67945 0.19536 0.0
H301 H 0.87699 0.63247 0.20968 0.0
C302 C 0.81899 0.64498 0.16727 0.0
O303 O 0.83018 0.62059 0.071 0.0
O304 O 0.86456 0.60221 0.10436 0.0
N305 N 0.91149 0.70478 0.15293 0.0
C306 C 0.91322 0.72499 0.13104 0.0
C307 C 0.9395 0.74203 0.1312 0.0
C308 C 0.96346 0.73833 0.15413 0.0
C309 C 0.96155 0.71694 0.17585 0.0
C310 C 0.93493 0.7005 0.17436 0.0
H311 H 0.89449 0.72839 0.11392 0.0
O312 O 0.8936 0.64875 0.07977 0.0
O313 O 0.88635 0.65579 0.13142 0.0
O314 O 0.83637 0.67801 0.09284 0.0
O315 O 0.84823 0.70408 0.13476 0.0
C316 C 0.98469 0.71161 0.19934 0.0
C317 C 0.98162 0.68926 0.21979 0.0
H318 H 0.96728 0.64448 0.25486 0.0
H319 H 0.91781 0.61826 0.24906 0.0
H320 H 0.94097 0.75831 0.11414 0.0
H321 H 0.98324 0.75201 0.15474 0.0
H322 H 0.00486 0.72468 0.20188 0.0
H323 H 0.99992 0.68507 0.23731 0.0
Mn324 Mn 0.65118 0.39465 0.59975 0.0
Mn325 Mn 0.62606 0.35315 0.65875 0.0
C326 C 0.59908 0.38003 0.60112 0.0
C327 C 0.66047 0.43632 0.57605 0.0
C328 C 0.66513 0.33437 0.60199 0.0
O329 O 0.68538 0.39933 0.63444 0.0
O330 O 0.66539 0.37151 0.67219 0.0
C331 C 0.60993 0.39431 0.70735 0.0
N332 N 0.60123 0.37315 0.68876 0.0
C333 C 0.54848 0.37399 0.71036 0.0
C334 C 0.55693 0.3957 0.72986 0.0
C335 C 0.58777 0.40594 0.72828 0.0
C336 C 0.57156 0.36327 0.68992 0.0
H337 H 0.63356 0.40229 0.70618 0.0
C338 C 0.68598 0.38829 0.66226 0.0
O339 O 0.6756 0.41507 0.56719 0.0
O340 O 0.64102 0.4338 0.60012 0.0
N341 N 0.58791 0.33435 0.6493 0.0
C342 C 0.58344 0.31366 0.62847 0.0
C343 C 0.55395 0.30096 0.62729 0.0
C344 C 0.5295 0.30954 0.64766 0.0
C345 C 0.53459 0.33088 0.66888 0.0
C346 C 0.56462 0.34251 0.66931 0.0
H347 H 0.60222 0.30684 0.61292 0.0
O348 O 0.61166 0.38797 0.57429 0.0
O349 O 0.61728 0.38075 0.62628 0.0
O350 O 0.66731 0.35733 0.58909 0.0
O351 O 0.65059 0.33033 0.62851 0.0
C352 C 0.51112 0.34108 0.68961 0.0
C353 C 0.51799 0.36273 0.71017 0.0
H354 H 0.53989 0.40473 0.74602 0.0
H355 H 0.59446 0.42276 0.74317 0.0
H356 H 0.5501 0.2845 0.61086 0.0
H357 H 0.50707 0.29941 0.64692 0.0
H358 H 0.48762 0.33262 0.68981 0.0
H359 H 0.49964 0.37058 0.72571 0.0
Mn360 Mn 0.85468 0.39061 0.92031 0.0
Mn361 Mn 0.88184 0.34605 0.86581 0.0
C362 C 0.90669 0.37559 0.9221 0.0
C363 C 0.84522 0.43295 0.94221 0.0
C364 C 0.84126 0.33008 0.92216 0.0
O365 O 0.82225 0.39453 0.88366 0.0
O366 O 0.84183 0.36247 0.85101 0.0
C367 C 0.89641 0.38503 0.81422 0.0
N368 N 0.90591 0.36514 0.8344 0.0
C369 C 0.95863 0.36621 0.81276 0.0
C370 C 0.94938 0.38662 0.79166 0.0
C371 C 0.91815 0.39612 0.79247 0.0
C372 C 0.93598 0.35606 0.83405 0.0
H373 H 0.87245 0.3924 0.81471 0.0
C374 C 0.82139 0.38045 0.85789 0.0
O375 O 0.8291 0.41218 0.95077 0.0
O376 O 0.86557 0.42963 0.91905 0.0
N377 N 0.92063 0.32878 0.87662 0.0
C378 C 0.9257 0.30909 0.89866 0.0
C379 C 0.95549 0.29692 0.90043 0.0
C380 C 0.97961 0.30499 0.8794 0.0
C381 C 0.97395 0.32542 0.85705 0.0
C382 C 0.94364 0.33653 0.85609 0.0
H383 H 0.90712 0.30258 0.91463 0.0
O384 O 0.89289 0.38433 0.94795 0.0
O385 O 0.88961 0.37546 0.89613 0.0
O386 O 0.83726 0.3539 0.93203 0.0
O387 O 0.85814 0.32436 0.89764 0.0
C388 C 0.99702 0.33503 0.83548 0.0
C389 C 0.98944 0.35558 0.81357 0.0
H390 H 0.96607 0.39518 0.7748 0.0
H391 H 0.91085 0.41192 0.77633 0.0
H392 H 0.95978 0.28118 0.91774 0.0
H393 H 1.00213 0.29499 0.8804 0.0
H394 H 0.02068 0.32689 0.83551 0.0
H395 H 0.00746 0.36296 0.79734 0.0
Mn396 Mn 0.65225 0.64862 0.42415 0.0
Mn397 Mn 0.62408 0.695 0.37244 0.0
C398 C 0.60005 0.66281 0.42756 0.0
C399 C 0.66242 0.60564 0.44385 0.0
C400 C 0.6646 0.70912 0.42952 0.0
O401 O 0.6839 0.64584 0.38694 0.0
O402 O 0.66426 0.67932 0.35671 0.0
C403 C 0.61048 0.65882 0.31761 0.0
N404 N 0.60082 0.67795 0.33879 0.0
C405 C 0.55064 0.68211 0.31205 0.0
C406 C 0.5601 0.66254 0.28987 0.0
C407 C 0.59007 0.65072 0.29281 0.0
C408 C 0.57185 0.68913 0.33648 0.0
H409 H 0.63362 0.64989 0.31952 0.0
C410 C 0.68448 0.66079 0.36195 0.0
O411 O 0.6785 0.62622 0.45311 0.0
O412 O 0.64163 0.60958 0.42126 0.0
N413 N 0.58499 0.71175 0.38359 0.0
C414 C 0.57879 0.72904 0.40814 0.0
C415 C 0.54965 0.74243 0.40898 0.0
C416 C 0.52744 0.73819 0.38437 0.0
C417 C 0.53416 0.71999 0.35961 0.0
C418 C 0.56358 0.70725 0.36005 0.0
H419 H 0.59611 0.73283 0.42668 0.0
O420 O 0.61482 0.65373 0.45267 0.0
O421 O 0.61643 0.66415 0.40106 0.0
O422 O 0.6698 0.68503 0.43762 0.0
O423 O 0.64694 0.7154 0.40587 0.0
C424 C 0.51296 0.71408 0.3344 0.0
C425 C 0.52102 0.6949 0.3109 0.0
H426 H 0.54449 0.65637 0.27058 0.0
H427 H 0.59752 0.63556 0.27584 0.0
H428 H 0.54452 0.75633 0.42825 0.0
H429 H 0.50538 0.74911 0.38471 0.0
H430 H 0.49032 0.72406 0.33285 0.0
H431 H 0.50427 0.69017 0.29202 0.0
Mn432 Mn 0.197 0.38806 0.94108 0.0
Mn433 Mn 0.17136 0.32452 0.9326 0.0
C434 C 0.1451 0.37944 0.92613 0.0
C435 C 0.20626 0.42735 0.97003 0.0
C436 C 0.21115 0.35236 0.88249 0.0
O437 O 0.2305 0.36663 0.96602 0.0
O438 O 0.21056 0.32529 0.95846 0.0
C439 C 0.1546 0.31506 1.00093 0.0
N440 N 0.14615 0.31573 0.96929 0.0
C441 C 0.09294 0.30254 0.98199 0.0
C442 C 0.10111 0.30155 1.01469 0.0
C443 C 0.13207 0.3079 0.0242 0.0
C444 C 0.11638 0.30987 0.95991 0.0
H445 H 0.17834 0.32001 1.00836 0.0
C446 C 0.23122 0.34129 0.96995 0.0
O447 O 0.22209 0.4215 0.94425 0.0
O448 O 0.18604 0.40969 0.98007 0.0
N449 N 0.13341 0.32065 0.90824 0.0
C450 C 0.12937 0.3229 0.87579 0.0
C451 C 0.0999 0.31685 0.86223 0.0
C452 C 0.07506 0.30842 0.88214 0.0
C453 C 0.07973 0.30622 0.91546 0.0
C454 C 0.10977 0.31211 0.92752 0.0
H455 H 0.14849 0.32918 0.86035 0.0
O456 O 0.1581 0.4022 0.91932 0.0
O457 O 0.16281 0.36243 0.94138 0.0
O458 O 0.21355 0.37425 0.89791 0.0
O459 O 0.19639 0.33204 0.8933 0.0
C460 C 0.05585 0.29845 0.93718 0.0
C461 C 0.06239 0.29679 0.97044 0.0
H462 H 0.08379 0.29607 0.03272 0.0
H463 H 0.13853 0.30729 0.04941 0.0
H464 H 0.09637 0.31856 0.8365 0.0
H465 H 0.05268 0.30346 0.87144 0.0
H466 H 0.03231 0.2939 0.9287 0.0
H467 H 0.04375 0.29108 0.98692 0.0
Mn468 Mn 0.30765 0.65003 0.44564 0.0
Mn469 Mn 0.33719 0.71176 0.43206 0.0
C470 C 0.36056 0.6554 0.43325 0.0
C471 C 0.29561 0.61314 0.47772 0.0
C472 C 0.29875 0.68173 0.3828 0.0
O473 O 0.2744 0.67417 0.46667 0.0
O474 O 0.29612 0.71414 0.45484 0.0
C475 C 0.34907 0.72732 0.49983 0.0
N476 N 0.35987 0.72351 0.46925 0.0
C477 C 0.41208 0.73794 0.48409 0.0
C478 C 0.40146 0.7422 0.51568 0.0
C479 C 0.36982 0.73683 0.52357 0.0
C480 C 0.3902 0.72875 0.46135 0.0
H481 H 0.32481 0.72311 0.50606 0.0
C482 C 0.27435 0.69971 0.46726 0.0
O483 O 0.28091 0.61767 0.45088 0.0
O484 O 0.31592 0.63098 0.48704 0.0
N485 N 0.37709 0.71246 0.41057 0.0
C486 C 0.38416 0.70497 0.37984 0.0
C487 C 0.41532 0.70742 0.36871 0.0
C488 C 0.43869 0.71778 0.38918 0.0
C489 C 0.43074 0.72591 0.42043 0.0
C490 C 0.3993 0.72299 0.43021 0.0
H491 H 0.36628 0.69674 0.36418 0.0
O492 O 0.34635 0.63297 0.42744 0.0
O493 O 0.34329 0.67434 0.44563 0.0
O494 O 0.29369 0.6613 0.40033 0.0
O495 O 0.31482 0.70181 0.39211 0.0
C496 C 0.45304 0.73565 0.44273 0.0
C497 C 0.44369 0.74174 0.47451 0.0
H498 H 0.41748 0.74929 0.53414 0.0
H499 H 0.36149 0.73993 0.54794 0.0
H500 H 0.42142 0.70104 0.34459 0.0
H501 H 0.46279 0.71879 0.38096 0.0
H502 H 0.47758 0.73791 0.43598 0.0
H503 H 0.46116 0.74876 0.49159 0.0
Mn504 Mn 0.19585 0.64956 0.09478 0.0
Mn505 Mn 0.1631 0.70892 0.11388 0.0
C506 C 0.14383 0.65194 0.1131 0.0
C507 C 0.20703 0.61428 0.05975 0.0
C508 C 0.21156 0.68111 0.1557 0.0
O509 O 0.22472 0.67672 0.07138 0.0
O510 O 0.1972 0.71432 0.08228 0.0
C511 C 0.13424 0.72269 0.05103 0.0
N512 N 0.13127 0.71821 0.08324 0.0
C513 C 0.07541 0.72696 0.08129 0.0
C514 C 0.07794 0.73204 0.04818 0.0
C515 C 0.10747 0.72979 0.03297 0.0
C516 C 0.10293 0.7201 0.09807 0.0
H517 H 0.15682 0.72069 0.03918 0.0
C518 C 0.21959 0.70186 0.06795 0.0
O519 O 0.2242 0.61893 0.08498 0.0
O520 O 0.18467 0.6313 0.0535 0.0
N521 N 0.12933 0.70581 0.14411 0.0
C522 C 0.1306 0.69844 0.17568 0.0
C523 C 0.10282 0.69833 0.19406 0.0
C524 C 0.07412 0.70586 0.17982 0.0
C525 C 0.07347 0.71368 0.14738 0.0
C526 C 0.10194 0.7136 0.13033 0.0
H527 H 0.15256 0.69248 0.18674 0.0
O528 O 0.15977 0.62993 0.11601 0.0
O529 O 0.15899 0.67168 0.10025 0.0
O530 O 0.21348 0.66002 0.13876 0.0
O531 O 0.19491 0.70127 0.14765 0.0
C532 C 0.0456 0.72078 0.13103 0.0
C533 C 0.04654 0.72766 0.09812 0.0
H534 H 0.05729 0.7373 0.03413 0.0
H535 H 0.10957 0.73341 1.00736 0.0
H536 H 0.10346 0.69222 0.21905 0.0
H537 H 0.05275 0.70508 0.19396 0.0
H538 H 0.02325 0.72026 0.14335 0.0
H539 H 0.02481 0.73281 0.08583 0.0
Mn540 Mn 0.30878 0.38719 0.59527 0.0
Mn541 Mn 0.33471 0.32369 0.60329 0.0
C542 C 0.36103 0.37858 0.60871 0.0
C543 C 0.29864 0.42622 0.56628 0.0
C544 C 0.29637 0.35176 0.65444 0.0
O545 O 0.27475 0.3658 0.5713 0.0
O546 O 0.29461 0.32442 0.5788 0.0
C547 C 0.34899 0.31376 0.53446 0.0
N548 N 0.3586 0.31465 0.56576 0.0
C549 C 0.41125 0.3011 0.55119 0.0
C550 C 0.40188 0.2999 0.51882 0.0
C551 C 0.37063 0.30632 0.51043 0.0
C552 C 0.38866 0.30872 0.57406 0.0
H553 H 0.32502 0.31874 0.52788 0.0
C554 C 0.27377 0.34046 0.56767 0.0
O555 O 0.28354 0.4206 0.59257 0.0
O556 O 0.31873 0.40856 0.55589 0.0
N557 N 0.37355 0.31992 0.62625 0.0
C558 C 0.37885 0.32251 0.65847 0.0
C559 C 0.40881 0.31648 0.67094 0.0
C560 C 0.43287 0.3077 0.65021 0.0
C561 C 0.42692 0.30525 0.61712 0.0
C562 C 0.39646 0.31117 0.60616 0.0
H563 H 0.36034 0.32903 0.67456 0.0
O564 O 0.34818 0.40135 0.6159 0.0
O565 O 0.34294 0.36153 0.59404 0.0
O566 O 0.29334 0.37353 0.63891 0.0
O567 O 0.31104 0.33144 0.64342 0.0
C568 C 0.44993 0.29715 0.59458 0.0
C569 C 0.44216 0.29527 0.56162 0.0
H570 H 0.41851 0.29418 0.50021 0.0
H571 H 0.36325 0.30554 0.48549 0.0
H572 H 0.41331 0.31841 0.6965 0.0
H573 H 0.45564 0.30264 0.6601 0.0
H574 H 0.47372 0.29246 0.60221 0.0
H575 H 0.46015 0.2893 0.5445 0.0
H576 H 0.34404 0.25839 0.11807 0.0
H577 H 0.30067 0.20204 0.05276 0.0
H578 H 0.32352 0.29533 0.0855 0.0
H579 H 0.28013 0.23864 0.02087 0.0
H580 H 0.2717 0.30321 0.95037 0.0
H581 H 0.30084 0.2723 0.98458 0.0
H582 H 0.27306 0.31756 0.06856 0.0
H583 H 0.24446 0.34905 0.03376 0.0
C584 C 0.32996 0.25382 0.097 0.0
C585 C 0.32423 0.22711 0.08802 0.0
C586 C 0.31823 0.27503 0.07834 0.0
C587 C 0.30068 0.26998 0.05022 0.0
C588 C 0.29428 0.24331 0.04186 0.0
C589 C 0.30588 0.22224 0.0604 0.0
C590 C 0.27288 0.30711 0.97602 0.0
C591 C 0.25615 0.32859 0.98944 0.0
C592 C 0.28914 0.2892 0.99571 0.0
C593 C 0.28861 0.29204 0.02941 0.0
C594 C 0.27395 0.31479 0.0427 0.0
C595 C 0.25779 0.33295 0.02282 0.0
H596 H 0.25029 0.68894 0.52714 0.0
H597 H 0.244 0.74429 0.44787 0.0
H598 H 0.22046 0.7201 0.56117 0.0
H599 H 0.21338 0.77486 0.48108 0.0
H600 H 0.20731 0.83848 0.55765 0.0
H601 H 0.22911 0.80346 0.52408 0.0
H602 H 0.17198 0.74498 0.57356 0.0
H603 H 0.15047 0.78026 0.60804 0.0
C604 C 0.24147 0.7073 0.5167 0.0
C605 C 0.24952 0.71432 0.48499 0.0
C606 C 0.22451 0.72523 0.53618 0.0
C607 C 0.21519 0.75032 0.52411 0.0
C608 C 0.22101 0.75612 0.4915 0.0
C609 C 0.23821 0.73847 0.47231 0.0
C610 C 0.19928 0.8182 0.5615 0.0
C611 C 0.17697 0.81231 0.58554 0.0
C612 C 0.21163 0.79806 0.54198 0.0
C613 C 0.20191 0.77138 0.54566 0.0
C614 C 0.18002 0.76529 0.57008 0.0
C615 C 0.16767 0.78554 0.58981 0.0
H616 H 0.34143 0.77856 0.92216 0.0
H617 H 0.30777 0.84024 0.98653 0.0
H618 H 0.31355 0.74494 0.95412 0.0
H619 H 0.28083 0.80678 0.01854 0.0
H620 H 0.20392 0.75006 0.04314 0.0
H621 H 0.23478 0.77941 1.00996 0.0
H622 H 0.3109 0.72197 1.00843 0.0
H623 H 0.27906 0.69148 0.04189 0.0
C624 C 0.32817 0.78499 0.9431 0.0
C625 C 0.32647 0.81226 0.95141 0.0
C626 C 0.31247 0.76564 0.96156 0.0
C627 C 0.29471 0.77316 0.9887 0.0
C628 C 0.29377 0.80031 0.99741 0.0
C629 C 0.30929 0.81957 0.979 0.0
C630 C 0.2272 0.74335 0.03592 0.0
C631 C 0.2391 0.71837 0.04575 0.0
C632 C 0.24503 0.76044 1.01689 0.0
C633 C 0.27561 0.75339 1.00712 0.0
C634 C 0.28739 0.72801 1.01572 0.0
C635 C 0.26923 0.71059 0.03489 0.0
H636 H 0.23517 0.3007 0.58624 0.0
H637 H 0.25803 0.3506 0.50497 0.0
H638 H 0.20563 0.27076 0.55117 0.0
H639 H 0.22912 0.32006 0.46925 0.0
H640 H 0.15867 0.26087 0.41864 0.0
H641 H 0.17881 0.29714 0.45261 0.0
H642 H 0.22682 0.23933 0.51225 0.0
H643 H 0.20671 0.20345 0.47906 0.0
C644 C 0.23298 0.30565 0.56093 0.0
C645 C 0.24865 0.32796 0.54829 0.0
C646 C 0.21646 0.28833 0.54073 0.0
C647 C 0.21574 0.29262 0.50726 0.0
C648 C 0.22924 0.31618 0.49491 0.0
C649 C 0.2456 0.33377 0.51534 0.0
C650 C 0.17368 0.25595 0.43891 0.0
C651 C 0.18082 0.22913 0.44618 0.0
C652 C 0.18517 0.27675 0.45837 0.0
C653 C 0.20388 0.27113 0.48555 0.0
C654 C 0.21173 0.24439 0.49209 0.0
C655 C 0.20036 0.22375 0.47278 0.0
H656 H 0.79446 0.69803 0.0569 0.0
H657 H 0.8426 0.75425 0.11868 0.0
H658 H 0.77379 0.73454 0.02501 0.0
H659 H 0.82265 0.79113 0.08574 0.0
H660 H 0.7504 0.84912 0.03414 0.0
H661 H 0.77641 0.81631 0.06912 0.0
H662 H 0.79239 0.76543 0.98654 0.0
H663 H 0.76524 0.79754 0.95236 0.0
C664 C 0.80073 0.71823 0.06367 0.0
C665 C 0.8205 0.72311 0.0902 0.0
C666 C 0.78911 0.73925 0.04511 0.0
C667 C 0.79718 0.76586 0.0522 0.0
C668 C 0.816 0.77092 0.07949 0.0
C669 C 0.82745 0.74976 0.09838 0.0
C670 C 0.76035 0.83123 0.02351 0.0
C671 C 0.75588 0.82576 0.99064 0.0
C672 C 0.77511 0.81236 0.04351 0.0
C673 C 0.7858 0.78785 0.03084 0.0
C674 C 0.78353 0.78363 0.9974 0.0
C675 C 0.76842 0.80218 0.97766 0.0
H676 H 0.76296 0.19154 0.53136 0.0
H677 H 0.73104 0.23397 0.44717 0.0
H678 H 0.73287 0.22228 0.5658 0.0
H679 H 0.70031 0.26413 0.48109 0.0
H680 H 0.70051 0.33606 0.54714 0.0
H681 H 0.72077 0.29927 0.51557 0.0
H682 H 0.68154 0.24313 0.58356 0.0
H683 H 0.66115 0.28042 0.61587 0.0
C684 C 0.74825 0.20665 0.52022 0.0
C685 C 0.74895 0.21032 0.48669 0.0
C686 C 0.7312 0.22436 0.53989 0.0
C687 C 0.71474 0.24602 0.52623 0.0
C688 C 0.71332 0.24805 0.49245 0.0
C689 C 0.7305 0.23057 0.47295 0.0
C690 C 0.69606 0.31596 0.55559 0.0
C691 C 0.67898 0.31135 0.58412 0.0
C692 C 0.7075 0.29475 0.53721 0.0
C693 C 0.70225 0.26818 0.54663 0.0
C694 C 0.68588 0.26338 0.57557 0.0
C695 C 0.67425 0.28476 0.59408 0.0
H696 H 0.85096 0.27557 0.91761 0.0
H697 H 0.79835 0.33515 0.97067 0.0
H698 H 0.82963 0.24077 0.95312 0.0
H699 H 0.77713 0.30077 1.00532 0.0
H700 H 0.7671 0.24374 0.08385 0.0
H701 H 0.79746 0.27211 0.04772 0.0
H702 H 0.77872 0.21787 0.9691 0.0
H703 H 0.74894 0.18888 1.00599 0.0
C704 C 0.83471 0.28126 0.93658 0.0
C705 C 0.82667 0.30827 0.94141 0.0
C706 C 0.82253 0.26131 0.9569 0.0
C707 C 0.80223 0.26805 0.9825 0.0
C708 C 0.79345 0.29492 0.98648 0.0
C709 C 0.80549 0.31469 0.96634 0.0
C710 C 0.77039 0.23744 0.0591 0.0
C711 C 0.75578 0.21418 0.04766 0.0
C712 C 0.78744 0.25382 0.03828 0.0
C713 C 0.78978 0.24764 1.00532 0.0
C714 C 0.77731 0.22321 0.99435 0.0
C715 C 0.76043 0.20654 1.01544 0.0
H716 H 0.74478 0.79591 0.5897 0.0
H717 H 0.74827 0.85396 0.51311 0.0
H718 H 0.71533 0.76557 0.5552 0.0
H719 H 0.71962 0.82309 0.47776 0.0
H720 H 0.6513 0.76299 0.42863 0.0
H721 H 0.67229 0.79757 0.46433 0.0
H722 H 0.73116 0.73859 0.51088 0.0
H723 H 0.70981 0.7042 0.47607 0.0
C724 C 0.73863 0.80236 0.56559 0.0
C725 C 0.7488 0.82725 0.55406 0.0
C726 C 0.72212 0.78484 0.54562 0.0
C727 C 0.71585 0.79152 0.51334 0.0
C728 C 0.72404 0.81726 0.50247 0.0
C729 C 0.74031 0.83503 0.52273 0.0
C730 C 0.66882 0.75745 0.44643 0.0
C731 C 0.67868 0.7307 0.44954 0.0
C732 C 0.68087 0.77731 0.46688 0.0
C733 C 0.70306 0.77087 0.49089 0.0
C734 C 0.71344 0.74424 0.49334 0.0
C735 C 0.70136 0.72447 0.4731 0.0
H736 H 0.29986 0.08591 0.03942 0.0
H737 H 0.38998 0.06166 0.07839 0.0
H738 H 0.30023 0.04721 1.00349 0.0
H739 H 0.39048 0.02307 0.04213 0.0
H740 H 0.39602 0.9753 0.94684 0.0
H741 H 0.39423 1.01517 0.9811 0.0
H742 H 0.29803 0.99671 1.00733 0.0
H743 H 0.29992 0.95682 0.97349 0.0
C744 C 0.31961 0.07217 0.04055 0.0
C745 C 0.34482 0.07681 0.06192 0.0
C746 C 0.31983 0.05002 0.01991 0.0
C747 C 0.34552 0.0322 0.01971 0.0
C748 C 0.37054 0.03662 0.0414 0.0
C749 C 0.37007 0.05856 0.06244 0.0
C750 C 0.37431 0.98005 0.95942 0.0
C751 C 0.34807 0.96294 0.95734 0.0
C752 C 0.37341 1.00269 0.97936 0.0
C753 C 0.34608 1.00896 0.99718 0.0
C754 C 0.3194 0.9925 0.99388 0.0
C755 C 0.32049 0.96965 0.97444 0.0
H756 H 0.14079 0.98768 0.60452 0.0
H757 H 0.18852 0.94401 0.52905 0.0
H758 H 0.14224 0.0281 0.57097 0.0
H759 H 0.18911 0.98398 0.49556 0.0
H760 H 0.1424 0.05372 0.43483 0.0
H761 H 0.14345 1.01362 0.46887 0.0
H762 H 0.18777 0.05867 0.545 0.0
H763 H 0.18758 0.09841 0.51094 0.0
C764 C 0.15174 0.98674 0.58096 0.0
C765 C 0.16468 0.96266 0.56958 0.0
C766 C 0.15253 1.00981 0.56177 0.0
C767 C 0.16558 1.00906 0.53057 0.0
C768 C 0.17867 0.98506 0.51936 0.0
C769 C 0.17852 0.96224 0.53872 0.0
C770 C 0.15267 0.05495 0.45868 0.0
C771 C 0.1651 0.07919 0.47005 0.0
C772 C 0.15324 0.03206 0.47815 0.0
C773 C 0.16552 0.03314 0.50964 0.0
C774 C 0.17795 0.05733 0.52096 0.0
C775 C 0.17805 0.08001 0.50129 0.0
H776 H 0.67177 0.95103 0.02292 0.0
H777 H 0.76362 0.96451 0.98061 0.0
H778 H 0.67107 0.99705 0.04267 0.0
H779 H 0.76309 1.0104 1.00098 0.0
H780 H 0.75661 0.08205 0.0754 0.0
H781 H 0.76065 0.03581 0.05673 0.0
H782 H 0.66948 0.04288 1.01101 0.0
H783 H 0.66563 0.08932 0.02911 0.0
C784 C 0.69213 0.9636 0.01851 0.0
C785 C 0.71778 0.95416 1.00025 0.0
C786 C 0.69154 0.99 0.02949 0.0
C787 C 0.71685 1.00731 0.02297 0.0
C788 C 0.74327 0.99746 1.00627 0.0
C789 C 0.74359 0.9712 0.99473 0.0
C790 C 0.73763 0.07384 0.06097 0.0
C791 C 0.71082 0.0893 0.05363 0.0
C792 C 0.73996 0.04741 0.05035 0.0
C793 C 0.71523 0.03575 0.03278 0.0
C794 C 0.68871 0.05134 0.02486 0.0
C795 C 0.68666 0.07796 0.03493 0.0
H796 H 0.77407 0.06894 0.43706 0.0
H797 H 0.81524 0.09667 0.5262 0.0
H798 H 0.77007 0.02391 0.45926 0.0
H799 H 0.8106 0.05155 0.5486 0.0
H800 H 0.76495 0.97358 0.58594 0.0
H801 H 0.76466 1.01829 0.56265 0.0
H802 H 0.81197 0.98828 0.47797 0.0
H803 H 0.81289 0.9434 0.50152 0.0
C804 C 0.78193 0.0655 0.46154 0.0
C805 C 0.79494 0.08638 0.47994 0.0
C806 C 0.7798 0.03968 0.47412 0.0
C807 C 0.79006 0.03428 0.50558 0.0
C808 C 0.80236 0.05525 0.5243 0.0
C809 C 0.80506 0.08102 0.5115 0.0
C810 C 0.77494 0.97637 0.56216 0.0
C811 C 0.78896 0.95491 0.54555 0.0
C812 C 0.77497 1.00204 0.54899 0.0
C813 C 0.78849 1.00675 0.51867 0.0
C814 C 0.80132 0.98514 0.50139 0.0
C815 C 0.80182 0.95948 0.51484 0.0
H816 H 0.8186 0.43973 1.00129 0.0
H817 H 0.8676 0.4828 0.92629 0.0
H818 H 0.81874 0.47963 0.03501 0.0
H819 H 0.86695 0.52311 0.96003 0.0
H820 H 0.82271 0.59411 0.01906 0.0
H821 H 0.8224 0.55431 0.98516 0.0
H822 H 0.86398 0.50872 0.06245 0.0
H823 H 0.86508 0.5489 0.09642 0.0
C824 C 0.82905 0.45782 0.99178 0.0
C825 C 0.84299 0.45811 0.96098 0.0
C826 C 0.82934 0.48059 1.01128 0.0
C827 C 0.843 0.50438 1.00023 0.0
C828 C 0.85622 0.50499 0.96911 0.0
C829 C 0.85655 0.48197 0.94981 0.0
C830 C 0.83166 0.57559 0.02899 0.0
C831 C 0.84382 0.57464 0.06054 0.0
C832 C 0.83169 0.55287 1.00942 0.0
C833 C 0.84326 0.52849 0.02111 0.0
C834 C 0.85485 0.5273 0.05287 0.0
C835 C 0.85547 0.55025 0.0723 0.0
H836 H 0.64265 0.48699 0.59382 0.0
H837 H 0.68368 0.44219 0.51531 0.0
H838 H 0.64475 0.52764 0.56087 0.0
H839 H 0.68496 0.48257 0.48234 0.0
H840 H 0.63957 0.55628 0.4263 0.0
H841 H 0.64052 0.51511 0.45844 0.0
H842 H 0.69076 0.5563 0.53393 0.0
H843 H 0.69061 0.59705 0.50179 0.0
C844 C 0.65221 0.48584 0.56965 0.0
C845 C 0.66316 0.46142 0.55727 0.0
C846 C 0.6534 0.50906 0.55082 0.0
C847 C 0.66488 0.50817 0.51901 0.0
C848 C 0.6758 0.48377 0.50667 0.0
C849 C 0.67527 0.46073 0.52569 0.0
C850 C 0.65117 0.55641 0.44955 0.0
C851 C 0.66512 0.57991 0.46138 0.0
C852 C 0.65169 0.5329 0.46793 0.0
C853 C 0.66551 0.53264 0.49877 0.0
C854 C 0.67971 0.55602 0.51039 0.0
C855 C 0.67981 0.57928 0.4918 0.0
H856 H 0.16278 0.59027 0.02167 0.0
H857 H 0.25701 0.57971 0.05949 0.0
H858 H 0.16389 0.54466 1.00058 0.0
H859 H 0.25824 0.53424 0.03789 0.0
H860 H 0.25411 0.46341 0.96304 0.0
H861 H 0.25586 0.50944 0.98277 0.0
H862 H 0.1656 0.49829 0.02918 0.0
H863 H 0.16403 0.45211 1.00993 0.0
C864 C 0.18399 0.57844 0.02486 0.0
C865 C 0.20983 0.58861 0.04221 0.0
C866 C 0.18447 0.55224 1.01311 0.0
C867 C 0.21101 0.53583 0.01793 0.0
C868 C 0.23748 0.54644 0.03383 0.0
C869 C 0.23678 0.57248 0.04612 0.0
C870 C 0.23484 0.47068 0.97781 0.0
C871 C 0.20897 0.45411 0.98501 0.0
C872 C 0.23585 0.49702 0.98906 0.0
C873 C 0.21071 0.50751 1.0072 0.0
C874 C 0.18511 0.49081 1.0149 0.0
C875 C 0.18438 0.46431 1.00417 0.0
H876 H 0.24751 0.577 0.47273 0.0
H877 H 0.33766 0.58996 0.51885 0.0
H878 H 0.24645 0.53129 0.4938 0.0
H879 H 0.33686 0.54412 0.53917 0.0
H880 H 0.34071 0.45142 0.52686 0.0
H881 H 0.3382 0.49749 0.5073 0.0
H882 H 0.24679 0.50718 0.55181 0.0
H883 H 0.24955 0.4613 0.57209 0.0
C884 C 0.26686 0.57021 0.48772 0.0
C885 C 0.29262 0.58708 0.49423 0.0
C886 C 0.26626 0.54408 0.49968 0.0
C887 C 0.29174 0.53416 0.51775 0.0
C888 C 0.31708 0.55124 0.525 0.0
C889 C 0.31736 0.57753 0.51364 0.0
C890 C 0.31991 0.46325 0.53212 0.0
C891 C 0.29532 0.45276 0.55098 0.0
C892 C 0.31861 0.48966 0.52119 0.0
C893 C 0.29242 0.50589 0.52831 0.0
C894 C 0.26724 0.49507 0.54602 0.0
C895 C 0.26883 0.46885 0.55757 0.0
H896 H 0.60543 0.17454 0.05902 0.0
H897 H 0.60423 0.158 0.16083 0.0
H898 H 0.54791 0.1753 0.05813 0.0
H899 H 0.5465 0.16023 0.16077 0.0
H900 H 0.44531 0.13332 0.14296 0.0
H901 H 0.50265 0.13601 0.1452 0.0
H902 H 0.50106 0.19671 0.07104 0.0
H903 H 0.44351 0.19252 0.06776 0.0
C904 C 0.59267 0.17165 0.08138 0.0
C905 C 0.60909 0.16666 0.1101 0.0
C906 C 0.55965 0.17222 0.08098 0.0
C907 C 0.54218 0.16784 0.10938 0.0
C908 C 0.5589 0.16319 0.13825 0.0
C909 C 0.59198 0.16212 0.13846 0.0
C910 C 0.45735 0.1473 0.12728 0.0
C911 C 0.44013 0.1631 0.10563 0.0
C912 C 0.49026 0.14903 0.12867 0.0
C913 C 0.50685 0.16676 0.10849 0.0
C914 C 0.48936 0.18253 0.08667 0.0
C915 C 0.45638 0.18034 0.08487 0.0
H916 H 0.89792 0.8669 0.55897 0.0
H917 H 0.89886 0.90735 0.65028 0.0
H918 H 0.95451 0.86311 0.55996 0.0
H919 H 0.95579 0.9069 0.65041 0.0
H920 H 0.05939 0.89483 0.65641 0.0
H921 H 1.00272 0.89334 0.65726 0.0
H922 H 0.00363 0.87 0.55637 0.0
H923 H 0.06031 0.86711 0.55843 0.0
C924 C 0.9106 0.87483 0.57951 0.0
C925 C 0.89409 0.88583 0.60551 0.0
C926 C 0.94357 0.87332 0.57992 0.0
C927 C 0.96129 0.884 0.60579 0.0
C928 C 0.94419 0.89695 0.63066 0.0
C929 C 0.91113 0.89768 0.63056 0.0
C930 C 0.04719 0.88785 0.63515 0.0
C931 C 0.06426 0.8795 0.60809 0.0
C932 C 0.01418 0.88802 0.63496 0.0
C933 C 0.99698 0.88192 0.60669 0.0
C934 C 0.01466 0.87431 0.57919 0.0
C935 C 0.04767 0.87283 0.58006 0.0
H936 H 0.45031 0.87064 0.98462 0.0
H937 H 0.45265 0.88706 0.883 0.0
H938 H 0.50701 0.87698 0.98743 0.0
H939 H 0.50939 0.88827 0.88385 0.0
H940 H 0.61036 0.91085 0.89125 0.0
H941 H 0.55303 0.91003 0.8925 0.0
H942 H 0.55658 0.86636 0.98266 0.0
H943 H 0.61347 0.86991 0.98226 0.0
C944 C 0.46321 0.87437 0.96254 0.0
C945 C 0.44707 0.87679 0.9332 0.0
C946 C 0.49606 0.87784 0.96396 0.0
C947 C 0.51387 0.88318 0.93584 0.0
C948 C 0.49734 0.88492 0.90642 0.0
C949 C 0.46448 0.88285 0.90545 0.0
C950 C 0.59857 0.90117 0.91125 0.0
C951 C 0.61619 0.88901 0.93569 0.0
C952 C 0.5655 0.90027 0.91191 0.0
C953 C 0.5492 0.88692 0.93695 0.0
C954 C 0.56734 0.87664 0.96262 0.0
C955 C 0.60031 0.8781 0.96218 0.0
H956 H 0.06141 0.13439 0.3897 0.0
H957 H 0.06306 0.1923 0.46642 0.0
H958 H 0.00399 0.13642 0.38832 0.0
H959 H 0.00541 0.19586 0.46402 0.0
H960 H 0.90143 0.17245 0.47661 0.0
H961 H 0.95897 0.17389 0.4769 0.0
H962 H 0.95957 0.16033 0.37393 0.0
H963 H 0.90193 0.15738 0.37446 0.0
C964 C 0.04931 0.14796 0.40589 0.0
C965 C 0.06652 0.16359 0.42771 0.0
C966 C 0.01634 0.14931 0.40501 0.0
C967 C 0.99968 0.16649 0.42587 0.0
C968 C 0.01716 0.18209 0.44787 0.0
C969 C 0.05021 0.18027 0.44916 0.0
C970 C 0.91402 0.17006 0.45406 0.0
C971 C 0.89741 0.16528 0.42541 0.0
C972 C 0.94705 0.171 0.45411 0.0
C973 C 0.96431 0.16721 0.42543 0.0
C974 C 0.94737 0.16282 0.39664 0.0
C975 C 0.91432 0.16135 0.39678 0.0
H976 H 0.10495 0.66147 0.06329 0.0
H977 H 0.10459 0.6406 0.16389 0.0
H978 H 0.0477 0.66246 0.06284 0.0
H979 H 0.04698 0.64395 0.16479 0.0
H980 H 0.94133 0.63049 0.15036 0.0
H981 H 0.99857 0.6282 0.15281 0.0
H982 H 0.0042 0.68572 0.07511 0.0
H983 H 0.94681 0.68647 0.07188 0.0
C984 C 0.09236 0.65742 0.0855 0.0
C985 C 0.109 0.65161 0.11381 0.0
C986 C 0.0594 0.6583 0.08545 0.0
C987 C 0.04207 0.654 0.11397 0.0
C988 C 0.05902 0.64719 0.14215 0.0
C989 C 0.09214 0.6455 0.14187 0.0
C990 C 0.955 0.64295 0.13423 0.0
C991 C 0.93981 0.65888 0.11115 0.0
C992 C 0.98799 0.64172 0.13561 0.0
C993 C 0.0067 0.65659 0.11403 0.0
C994 C 0.99109 0.67335 0.0917 0.0
C995 C 0.95808 0.67412 0.08996 0.0
H996 H 0.56033 0.34735 0.56644 0.0
H997 H 0.56022 0.40746 0.64068 0.0
H998 H 0.5028 0.34374 0.5705 0.0
H999 H 0.50284 0.40533 0.64368 0.0
H1000 H 0.40074 0.3848 0.65992 0.0
H1001 H 0.45846 0.38188 0.65976 0.0
H1002 H 0.45657 0.36591 0.5573 0.0
H1003 H 0.39909 0.36734 0.55832 0.0
C1004 C 0.54783 0.35982 0.58355 0.0
C1005 C 0.56453 0.3772 0.60377 0.0
C1006 C 0.51486 0.35798 0.58578 0.0
C1007 C 0.49784 0.37424 0.60747 0.0
C1008 C 0.51488 0.39199 0.62724 0.0
C1009 C 0.5478 0.39339 0.62543 0.0
C1010 C 0.41289 0.38035 0.63757 0.0
C1011 C 0.39568 0.37571 0.60931 0.0
C1012 C 0.44595 0.37888 0.63732 0.0
C1013 C 0.46251 0.37372 0.60847 0.0
C1014 C 0.44494 0.36934 0.58015 0.0
C1015 C 0.41194 0.3703 0.58061 0.0
H1016 H 0.10768 0.38419 0.87292 0.0
H1017 H 0.10483 0.36917 0.97502 0.0
H1018 H 0.05022 0.3798 0.87016 0.0
H1019 H 0.04744 0.36665 0.9732 0.0
H1020 H 0.94512 0.34551 0.96054 0.0
H1021 H 1.00283 0.34334 0.95933 0.0
H1022 H 0.00368 0.40111 0.88179 0.0
H1023 H 0.94624 0.40159 0.88192 0.0
C1024 C 0.09457 0.38007 0.89478 0.0
C1025 C 0.11052 0.37638 0.92401 0.0
C1026 C 0.0616 0.37778 0.89337 0.0
C1027 C 0.04375 0.37286 0.92147 0.0
C1028 C 0.06005 0.36976 0.95084 0.0
C1029 C 0.093 0.3714 0.95202 0.0
C1030 C 0.95787 0.35743 0.94309 0.0
C1031 C 0.94142 0.37331 0.92095 0.0
C1032 C 0.99097 0.35643 0.94249 0.0
C1033 C 0.00836 0.37216 0.92054 0.0
C1034 C 0.9915 0.38822 0.8986 0.0
C1035 C 0.95849 0.38869 0.89876 0.0
H1036 H 0.55969 0.65029 0.37905 0.0
H1037 H 0.56185 0.67494 0.47821 0.0
H1038 H 0.50298 0.65145 0.37919 0.0
H1039 H 0.50517 0.67126 0.4811 0.0
H1040 H 0.39939 0.67533 0.47916 0.0
H1041 H 0.45601 0.67947 0.47757 0.0
H1042 H 0.45693 0.63567 0.38718 0.0
H1043 H 0.39992 0.63502 0.38773 0.0
C1044 C 0.54777 0.65658 0.40079 0.0
C1045 C 0.56516 0.66425 0.42791 0.0
C1046 C 0.5148 0.65611 0.40152 0.0
C1047 C 0.49802 0.66108 0.43035 0.0
C1048 C 0.51598 0.66793 0.45791 0.0
C1049 C 0.54894 0.66983 0.45654 0.0
C1050 C 0.41197 0.6675 0.45848 0.0
C1051 C 0.39535 0.65651 0.43256 0.0
C1052 C 0.44491 0.66918 0.45776 0.0
C1053 C 0.46245 0.65865 0.43169 0.0
C1054 C 0.44531 0.64558 0.40699 0.0
C1055 C 0.41227 0.64472 0.40736 0.0
H1056 H 0.31478 0.10732 0.20644 0.0
H1057 H 0.27198 0.18314 0.18414 0.0
H1058 H 0.28413 0.10511 0.25668 0.0
H1059 H 0.24083 0.18083 0.23344 0.0
H1060 H 0.22516 0.19102 0.33827 0.0
H1061 H 0.25574 0.18647 0.28894 0.0
H1062 H 0.23178 0.10273 0.28451 0.0
H1063 H 0.20162 0.10738 0.33493 0.0
C1064 C 0.29776 0.1229 0.21164 0.0
C1065 C 0.29525 0.14518 0.19123 0.0
C1066 C 0.28043 0.12179 0.24053 0.0
C1067 C 0.26054 0.14309 0.24954 0.0
C1068 C 0.25652 0.16439 0.22777 0.0
C1069 C 0.27389 0.16553 0.19918 0.0
C1070 C 0.22722 0.17146 0.32727 0.0
C1071 C 0.21134 0.14951 0.34056 0.0
C1072 C 0.24428 0.1689 0.29866 0.0
C1073 C 0.24549 0.14439 0.28214 0.0
C1074 C 0.23126 0.12192 0.29652 0.0
C1075 C 0.21426 0.12448 0.32553 0.0
H1076 H 0.27835 0.91028 0.85466 0.0
H1077 H 0.34247 0.86092 0.7994 0.0
H1078 H 0.24455 0.91489 0.80652 0.0
H1079 H 0.3094 0.86572 0.75253 0.0
H1080 H 0.21862 0.84327 0.69866 0.0
H1081 H 0.25445 0.84636 0.74428 0.0
H1082 H 0.24501 0.93218 0.74408 0.0
H1083 H 0.20879 0.92901 0.69757 0.0
C1084 C 0.28542 0.90067 0.83242 0.0
C1085 C 0.31284 0.88475 0.83132 0.0
C1086 C 0.26622 0.90346 0.80486 0.0
C1087 C 0.27424 0.89039 0.77591 0.0
C1088 C 0.30234 0.87568 0.77458 0.0
C1089 C 0.32127 0.87288 0.80173 0.0
C1090 C 0.22463 0.86286 0.70792 0.0
C1091 C 0.21135 0.88591 0.6943 0.0
C1092 C 0.24503 0.86464 0.73414 0.0
C1093 C 0.25247 0.88951 0.74781 0.0
C1094 C 0.23951 0.91275 0.73408 0.0
C1095 C 0.21927 0.91098 0.70725 0.0
H1096 H 0.71983 0.90427 0.84431 0.0
H1097 H 0.74323 0.82089 0.85402 0.0
H1098 H 0.73858 0.90376 0.78898 0.0
H1099 H 0.7646 0.82058 0.79959 0.0
H1100 H 0.77349 0.81921 0.69115 0.0
H1101 H 0.75374 0.81986 0.74622 0.0
H1102 H 0.77927 0.90335 0.75385 0.0
H1103 H 0.79636 0.90287 0.69798 0.0
C1104 C 0.72974 0.88596 0.83472 0.0
C1105 C 0.73014 0.86264 0.8534 0.0
C1106 C 0.74073 0.88562 0.80293 0.0
C1107 C 0.7533 0.8621 0.78926 0.0
C1108 C 0.75443 0.83895 0.80857 0.0
C1109 C 0.74252 0.83913 0.84002 0.0
C1110 C 0.77459 0.83768 0.70469 0.0
C1111 C 0.78616 0.86103 0.69027 0.0
C1112 C 0.76358 0.83808 0.73649 0.0
C1113 C 0.76481 0.86167 0.75506 0.0
C1114 C 0.77699 0.88491 0.74048 0.0
C1115 C 0.78707 0.88466 0.70839 0.0
H1116 H 0.79831 0.15095 0.33505 0.0
H1117 H 0.77048 0.23282 0.35063 0.0
H1118 H 0.7783 0.15292 0.28048 0.0
H1119 H 0.74814 0.23447 0.29628 0.0
H1120 H 0.73336 0.23506 0.18644 0.0
H1121 H 0.75605 0.23577 0.24068 0.0
H1122 H 0.73249 0.15222 0.2518 0.0
H1123 H 0.71214 0.15132 0.19735 0.0
C1124 C 0.78738 0.16931 0.32686 0.0
C1125 C 0.78562 0.19163 0.34721 0.0
C1126 C 0.77562 0.17043 0.29553 0.0
C1127 C 0.76087 0.1937 0.28381 0.0
C1128 C 0.75951 0.21625 0.30415 0.0
C1129 C 0.77209 0.2153 0.33541 0.0
C1130 C 0.7333 0.2169 0.20059 0.0
C1131 C 0.72149 0.19304 0.18751 0.0
C1132 C 0.74609 0.21729 0.23179 0.0
C1133 C 0.74665 0.19395 0.25079 0.0
C1134 C 0.73368 0.17041 0.23779 0.0
C1135 C 0.72172 0.16989 0.20651 0.0
H1136 H 0.70368 0.69541 0.3157 0.0
H1137 H 0.71512 0.6137 0.34685 0.0
H1138 H 0.73233 0.68561 0.26656 0.0
H1139 H 0.74404 0.60375 0.29695 0.0
H1140 H 0.82664 0.61361 0.2197 0.0
H1141 H 0.7936 0.61435 0.26789 0.0
H1142 H 0.72385 0.66086 0.21664 0.0
H1143 H 0.75757 0.66061 0.16871 0.0
C1144 C 0.71255 0.67532 0.31218 0.0
C1145 C 0.70697 0.65532 0.33526 0.0
C1146 C 0.72864 0.66961 0.2837 0.0
C1147 C 0.73971 0.64371 0.27732 0.0
C1148 C 0.73558 0.62388 0.30103 0.0
C1149 C 0.71929 0.62962 0.32974 0.0
C1150 C 0.80372 0.62316 0.21846 0.0
C1151 C 0.79453 0.63697 0.19053 0.0
C1152 C 0.78479 0.62363 0.2461 0.0
C1153 C 0.75641 0.63817 0.24638 0.0
C1154 C 0.74593 0.64994 0.21742 0.0
C1155 C 0.76489 0.64941 0.18976 0.0
H1156 H 0.68503 0.42735 0.70758 0.0
H1157 H 0.74109 0.36211 0.67133 0.0
H1158 H 0.71687 0.42829 0.75689 0.0
H1159 H 0.77358 0.36338 0.71994 0.0
H1160 H 0.79878 0.42836 0.83466 0.0
H1161 H 0.76871 0.43477 0.78449 0.0
H1162 H 0.76068 0.34924 0.77412 0.0
H1163 H 0.79081 0.34303 0.82331 0.0
C1164 C 0.70507 0.414 0.70964 0.0
C1165 C 0.71099 0.39491 0.68556 0.0
C1166 C 0.7232 0.41442 0.73794 0.0
C1167 C 0.74736 0.39554 0.74273 0.0
C1168 C 0.75468 0.37782 0.71739 0.0
C1169 C 0.73652 0.37737 0.68925 0.0
C1170 C 0.78979 0.41106 0.82199 0.0
C1171 C 0.79713 0.3852 0.83284 0.0
C1172 C 0.77286 0.41468 0.79313 0.0
C1173 C 0.7631 0.39249 0.77473 0.0
C1174 C 0.76875 0.36678 0.78696 0.0
C1175 C 0.78562 0.3632 0.81547 0.0
H1176 H 0.2951 0.3922 0.69769 0.0
H1177 H 0.2705 0.30918 0.68655 0.0
H1178 H 0.27654 0.39138 0.75286 0.0
H1179 H 0.24939 0.30861 0.74135 0.0
H1180 H 0.23682 0.30945 0.85066 0.0
H1181 H 0.2584 0.30856 0.79606 0.0
H1182 H 0.23311 0.39177 0.78449 0.0
H1183 H 0.21405 0.39288 0.83945 0.0
C1184 C 0.28509 0.37385 0.70697 0.0
C1185 C 0.28397 0.35083 0.68774 0.0
C1186 C 0.27415 0.37336 0.73868 0.0
C1187 C 0.26083 0.35003 0.75188 0.0
C1188 C 0.2598 0.3269 0.73247 0.0
C1189 C 0.27163 0.32723 0.7009 0.0
C1190 C 0.23624 0.32753 0.83637 0.0
C1191 C 0.22422 0.35132 0.84945 0.0
C1192 C 0.24834 0.32703 0.8049 0.0
C1193 C 0.2479 0.35016 0.78551 0.0
C1194 C 0.23502 0.37372 0.79866 0.0
C1195 C 0.22381 0.37437 0.83026 0.0
H1196 H 0.29709 0.64011 0.34087 0.0
H1197 H 0.27334 0.7235 0.34958 0.0
H1198 H 0.27927 0.64023 0.28526 0.0
H1199 H 0.25281 0.72343 0.29479 0.0
H1200 H 0.23905 0.72316 0.18711 0.0
H1201 H 0.26199 0.72335 0.24098 0.0
H1202 H 0.23773 0.63982 0.25148 0.0
H1203 H 0.2175 0.63944 0.19689 0.0
C1204 C 0.28742 0.65837 0.33094 0.0
C1205 C 0.28644 0.68175 0.3495 0.0
C1206 C 0.27693 0.65848 0.299 0.0
C1207 C 0.26419 0.68181 0.28504 0.0
C1208 C 0.263 0.70516 0.30403 0.0
C1209 C 0.27445 0.70521 0.33568 0.0
C1210 C 0.23915 0.70482 0.20094 0.0
C1211 C 0.22686 0.68123 0.18772 0.0
C1212 C 0.25195 0.70492 0.23207 0.0
C1213 C 0.25183 0.68161 0.25116 0.0
C1214 C 0.23926 0.65807 0.23765 0.0
C1215 C 0.2274 0.65782 0.20625 0.0
loop_
_geom_bond_atom_site_label_1
_geom_bond_atom_site_label_2
_geom_bond_distance
_geom_bond_site_symmetry_2
_ccdc_geom_bond_type
Mn0 O5 2.095 . S
Mn0 O15 2.162 . S
Mn0 O16 2.297 . S
Mn0 O24 2.385 . S
Mn0 O25 2.209 . S
Mn0 O26 2.094 . S
Mn1 O6 2.121 . S
Mn1 N8 2.257 . S
Mn1 N17 2.282 . S
Mn1 O25 2.215 . S
Mn1 O27 2.117 . S
C2 O24 1.234 . S
C2 O25 1.283 . S
C3 O15 1.281 . S
C3 O16 1.236 . S
C4 O26 1.240 . S
C4 O27 1.264 . S
O5 Mn0 2.095 . S
O5 C14 1.250 . S
O6 Mn1 2.121 . S
O6 C14 1.258 . S
C7 N8 1.326 . S
C7 C11 1.460 . S
C7 H13 0.929 . S
N8 Mn1 2.257 . S
N8 C7 1.326 . S
N8 C12 1.362 . S
C9 C10 1.258 . S
C9 C12 1.431 . S
C9 C29 1.449 . S
C10 C9 1.258 . S
C10 C11 1.477 . S
C10 H30 0.931 . S
C11 C7 1.460 . S
C11 C10 1.477 . S
C11 H31 0.930 . S
C12 N8 1.362 . S
C12 C9 1.431 . S
C12 C22 1.476 . S
H13 C7 0.929 . S
C14 O5 1.250 . S
C14 O6 1.258 . S
O15 Mn0 2.162 . S
O15 C3 1.281 . S
O16 Mn0 2.297 . S
O16 C3 1.236 . S
N17 Mn1 2.282 . S
N17 C18 1.328 . S
N17 C22 1.318 . S
C18 N17 1.328 . S
C18 C19 1.457 . S
C18 H23 0.929 . S
C19 C18 1.457 . S
C19 C20 1.291 . S
C19 H32 0.931 . S
C20 C19 1.291 . S
C20 C21 1.373 . S
C20 H33 0.929 . S
C21 C20 1.373 . S
C21 C22 1.396 . S
C21 C28 1.403 . S
C22 C12 1.476 . S
C22 N17 1.318 . S
C22 C21 1.396 . S
H23 C18 0.929 . S
O24 Mn0 2.385 . S
O24 C2 1.234 . S
O25 Mn0 2.209 . S
O25 Mn1 2.215 . S
O25 C2 1.283 . S
O26 Mn0 2.094 . S
O26 C4 1.240 . S
O27 Mn1 2.117 . S
O27 C4 1.264 . S
C28 C21 1.403 . S
C28 C29 1.399 . S
C28 H34 0.929 . S
C29 C9 1.449 . S
C29 C28 1.399 . S
C29 H35 0.930 . S
H30 C10 0.931 . S
H31 C11 0.930 . S
H32 C19 0.931 . S
H33 C20 0.929 . S
H34 C28 0.929 . S
H35 C29 0.930 . S
Mn36 O41 2.095 . S
Mn36 O51 2.162 . S
Mn36 O52 2.297 . S
Mn36 O60 2.385 . S
Mn36 O61 2.209 . S
Mn36 O62 2.094 . S
Mn37 O42 2.121 . S
Mn37 N44 2.257 . S
Mn37 N53 2.282 . S
Mn37 O61 2.215 . S
Mn37 O63 2.117 . S
C38 O60 1.234 . S
C38 O61 1.283 . S
C39 O51 1.281 . S
C39 O52 1.236 . S
C40 O62 1.240 . S
C40 O63 1.264 . S
O41 Mn36 2.095 . S
O41 C50 1.250 . S
O42 Mn37 2.121 . S
O42 C50 1.258 . S
C43 N44 1.326 . S
C43 C47 1.460 . S
C43 H49 0.929 . S
N44 Mn37 2.257 . S
N44 C43 1.326 . S
N44 C48 1.362 . S
C45 C46 1.258 . S
C45 C48 1.431 . S
C45 C65 1.449 . S
C46 C45 1.258 . S
C46 C47 1.477 . S
C46 H66 0.931 . S
C47 C43 1.460 . S
C47 C46 1.477 . S
C47 H67 0.930 . S
C48 N44 1.362 . S
C48 C45 1.431 . S
C48 C58 1.476 . S
H49 C43 0.929 . S
C50 O41 1.250 . S
C50 O42 1.258 . S
O51 Mn36 2.162 . S
O51 C39 1.281 . S
O52 Mn36 2.297 . S
O52 C39 1.236 . S
N53 Mn37 2.282 . S
N53 C54 1.328 . S
N53 C58 1.318 . S
C54 N53 1.328 . S
C54 C55 1.457 . S
C54 H59 0.929 . S
C55 C54 1.457 . S
C55 C56 1.291 . S
C55 H68 0.931 . S
C56 C55 1.291 . S
C56 C57 1.373 . S
C56 H69 0.929 . S
C57 C56 1.373 . S
C57 C58 1.396 . S
C57 C64 1.403 . S
C58 C48 1.476 . S
C58 N53 1.318 . S
C58 C57 1.396 . S
H59 C54 0.929 . S
O60 Mn36 2.385 . S
O60 C38 1.234 . S
O61 Mn36 2.209 . S
O61 Mn37 2.215 . S
O61 C38 1.283 . S
O62 Mn36 2.094 . S
O62 C40 1.240 . S
O63 Mn37 2.117 . S
O63 C40 1.264 . S
C64 C57 1.403 . S
C64 C65 1.399 . S
C64 H70 0.929 . S
C65 C45 1.449 . S
C65 C64 1.399 . S
C65 H71 0.930 . S
H66 C46 0.931 . S
H67 C47 0.930 . S
H68 C55 0.931 . S
H69 C56 0.929 . S
H70 C64 0.929 . S
H71 C65 0.930 . S
Mn72 O77 2.095 . S
Mn72 O87 2.162 . S
Mn72 O88 2.297 . S
Mn72 O96 2.385 . S
Mn72 O97 2.209 . S
Mn72 O98 2.094 . S
Mn73 O78 2.121 . S
Mn73 N80 2.257 . S
Mn73 N89 2.282 . S
Mn73 O97 2.215 . S
Mn73 O99 2.117 . S
C74 O96 1.234 . S
C74 O97 1.283 . S
C75 O87 1.281 . S
C75 O88 1.236 . S
C76 O98 1.240 . S
C76 O99 1.264 . S
O77 Mn72 2.095 . S
O77 C86 1.250 . S
O78 Mn73 2.121 . S
O78 C86 1.258 . S
C79 N80 1.326 . S
C79 C83 1.460 . S
C79 H85 0.929 . S
N80 Mn73 2.257 . S
N80 C79 1.326 . S
N80 C84 1.362 . S
C81 C82 1.258 . S
C81 C84 1.431 . S
C81 C101 1.449 . S
C82 C81 1.258 . S
C82 C83 1.477 . S
C82 H102 0.931 . S
C83 C79 1.460 . S
C83 C82 1.477 . S
C83 H103 0.930 . S
C84 N80 1.362 . S
C84 C81 1.431 . S
C84 C94 1.476 . S
H85 C79 0.929 . S
C86 O77 1.250 . S
C86 O78 1.258 . S
O87 Mn72 2.162 . S
O87 C75 1.281 . S
O88 Mn72 2.297 . S
O88 C75 1.236 . S
N89 Mn73 2.282 . S
N89 C90 1.328 . S
N89 C94 1.318 . S
C90 N89 1.328 . S
C90 C91 1.457 . S
C90 H95 0.929 . S
C91 C90 1.457 . S
C91 C92 1.291 . S
C91 H104 0.931 . S
C92 C91 1.291 . S
C92 C93 1.373 . S
C92 H105 0.929 . S
C93 C92 1.373 . S
C93 C94 1.396 . S
C93 C100 1.403 . S
C94 C84 1.476 . S
C94 N89 1.318 . S
C94 C93 1.396 . S
H95 C90 0.929 . S
O96 Mn72 2.385 . S
O96 C74 1.234 . S
O97 Mn72 2.209 . S
O97 Mn73 2.215 . S
O97 C74 1.283 . S
O98 Mn72 2.094 . S
O98 C76 1.240 . S
O99 Mn73 2.117 . S
O99 C76 1.264 . S
C100 C93 1.403 . S
C100 C101 1.399 . S
C100 H106 0.929 . S
C101 C81 1.449 . S
C101 C100 1.399 . S
C101 H107 0.930 . S
H102 C82 0.931 . S
H103 C83 0.930 . S
H104 C91 0.931 . S
H105 C92 0.929 . S
H106 C100 0.929 . S
H107 C101 0.930 . S
Mn108 O113 2.095 . S
Mn108 O123 2.162 . S
Mn108 O124 2.297 . S
Mn108 O132 2.385 . S
Mn108 O133 2.209 . S
Mn108 O134 2.094 . S
Mn109 O114 2.121 . S
Mn109 N116 2.257 . S
Mn109 N125 2.282 . S
Mn109 O133 2.215 . S
Mn109 O135 2.117 . S
C110 O132 1.234 . S
C110 O133 1.283 . S
C111 O123 1.281 . S
C111 O124 1.236 . S
C112 O134 1.240 . S
C112 O135 1.264 . S
O113 Mn108 2.095 . S
O113 C122 1.250 . S
O114 Mn109 2.121 . S
O114 C122 1.258 . S
C115 N116 1.326 . S
C115 C119 1.460 . S
C115 H121 0.929 . S
N116 Mn109 2.257 . S
N116 C115 1.326 . S
N116 C120 1.362 . S
C117 C118 1.258 . S
C117 C120 1.431 . S
C117 C137 1.449 . S
C118 C117 1.258 . S
C118 C119 1.477 . S
C118 H138 0.931 . S
C119 C115 1.460 . S
C119 C118 1.477 . S
C119 H139 0.930 . S
C120 N116 1.362 . S
C120 C117 1.431 . S
C120 C130 1.476 . S
H121 C115 0.929 . S
C122 O113 1.250 . S
C122 O114 1.258 . S
O123 Mn108 2.162 . S
O123 C111 1.281 . S
O124 Mn108 2.297 . S
O124 C111 1.236 . S
N125 Mn109 2.282 . S
N125 C126 1.328 . S
N125 C130 1.318 . S
C126 N125 1.328 . S
C126 C127 1.457 . S
C126 H131 0.929 . S
C127 C126 1.457 . S
C127 C128 1.291 . S
C127 H140 0.931 . S
C128 C127 1.291 . S
C128 C129 1.373 . S
C128 H141 0.929 . S
C129 C128 1.373 . S
C129 C130 1.396 . S
C129 C136 1.403 . S
C130 C120 1.476 . S
C130 N125 1.318 . S
C130 C129 1.396 . S
H131 C126 0.929 . S
O132 Mn108 2.385 . S
O132 C110 1.234 . S
O133 Mn108 2.209 . S
O133 Mn109 2.215 . S
O133 C110 1.283 . S
O134 Mn108 2.094 . S
O134 C112 1.240 . S
O135 Mn109 2.117 . S
O135 C112 1.264 . S
C136 C129 1.403 . S
C136 C137 1.399 . S
C136 H142 0.929 . S
C137 C117 1.449 . S
C137 C136 1.399 . S
C137 H143 0.930 . S
H138 C118 0.931 . S
H139 C119 0.930 . S
H140 C127 0.931 . S
H141 C128 0.929 . S
H142 C136 0.929 . S
H143 C137 0.930 . S
Mn144 O149 2.095 . S
Mn144 O159 2.162 . S
Mn144 O160 2.297 . S
Mn144 O168 2.385 . S
Mn144 O169 2.209 . S
Mn144 O170 2.094 . S
Mn145 O150 2.121 . S
Mn145 N152 2.257 . S
Mn145 N161 2.282 . S
Mn145 O169 2.215 . S
Mn145 O171 2.117 . S
C146 O168 1.234 . S
C146 O169 1.283 . S
C147 O159 1.281 . S
C147 O160 1.236 . S
C148 O170 1.240 . S
C148 O171 1.264 . S
O149 Mn144 2.095 . S
O149 C158 1.250 . S
O150 Mn145 2.121 . S
O150 C158 1.258 . S
C151 N152 1.326 . S
C151 C155 1.460 . S
C151 H157 0.929 . S
N152 Mn145 2.257 . S
N152 C151 1.326 . S
N152 C156 1.362 . S
C153 C154 1.258 . S
C153 C156 1.431 . S
C153 C173 1.449 . S
C154 C153 1.258 . S
C154 C155 1.477 . S
C154 H174 0.931 . S
C155 C151 1.460 . S
C155 C154 1.477 . S
C155 H175 0.930 . S
C156 N152 1.362 . S
C156 C153 1.431 . S
C156 C166 1.476 . S
H157 C151 0.929 . S
C158 O149 1.250 . S
C158 O150 1.258 . S
O159 Mn144 2.162 . S
O159 C147 1.281 . S
O160 Mn144 2.297 . S
O160 C147 1.236 . S
N161 Mn145 2.282 . S
N161 C162 1.328 . S
N161 C166 1.318 . S
C162 N161 1.328 . S
C162 C163 1.457 . S
C162 H167 0.929 . S
C163 C162 1.457 . S
C163 C164 1.291 . S
C163 H176 0.931 . S
C164 C163 1.291 . S
C164 C165 1.373 . S
C164 H177 0.929 . S
C165 C164 1.373 . S
C165 C166 1.396 . S
C165 C172 1.403 . S
C166 C156 1.476 . S
C166 N161 1.318 . S
C166 C165 1.396 . S
H167 C162 0.929 . S
O168 Mn144 2.385 . S
O168 C146 1.234 . S
O169 Mn144 2.209 . S
O169 Mn145 2.215 . S
O169 C146 1.283 . S
O170 Mn144 2.094 . S
O170 C148 1.240 . S
O171 Mn145 2.117 . S
O171 C148 1.264 . S
C172 C165 1.403 . S
C172 C173 1.399 . S
C172 H178 0.929 . S
C173 C153 1.449 . S
C173 C172 1.399 . S
C173 H179 0.930 . S
H174 C154 0.931 . S
H175 C155 0.930 . S
H176 C163 0.931 . S
H177 C164 0.929 . S
H178 C172 0.929 . S
H179 C173 0.930 . S
Mn180 O185 2.095 . S
Mn180 O195 2.162 . S
Mn180 O196 2.297 . S
Mn180 O204 2.385 . S
Mn180 O205 2.209 . S
Mn180 O206 2.094 . S
Mn181 O186 2.121 . S
Mn181 N188 2.257 . S
Mn181 N197 2.282 . S
Mn181 O205 2.215 . S
Mn181 O207 2.117 . S
C182 O204 1.234 . S
C182 O205 1.283 . S
C183 O195 1.281 . S
C183 O196 1.236 . S
C184 O206 1.240 . S
C184 O207 1.264 . S
O185 Mn180 2.095 . S
O185 C194 1.250 . S
O186 Mn181 2.121 . S
O186 C194 1.258 . S
C187 N188 1.326 . S
C187 C191 1.460 . S
C187 H193 0.929 . S
N188 Mn181 2.257 . S
N188 C187 1.326 . S
N188 C192 1.362 . S
C189 C190 1.258 . S
C189 C192 1.431 . S
C189 C209 1.449 . S
C190 C189 1.258 . S
C190 C191 1.477 . S
C190 H210 0.931 . S
C191 C187 1.460 . S
C191 C190 1.477 . S
C191 H211 0.930 . S
C192 N188 1.362 . S
C192 C189 1.431 . S
C192 C202 1.476 . S
H193 C187 0.929 . S
C194 O185 1.250 . S
C194 O186 1.258 . S
O195 Mn180 2.162 . S
O195 C183 1.281 . S
O196 Mn180 2.297 . S
O196 C183 1.236 . S
N197 Mn181 2.282 . S
N197 C198 1.328 . S
N197 C202 1.318 . S
C198 N197 1.328 . S
C198 C199 1.457 . S
C198 H203 0.929 . S
C199 C198 1.457 . S
C199 C200 1.291 . S
C199 H212 0.931 . S
C200 C199 1.291 . S
C200 C201 1.373 . S
C200 H213 0.929 . S
C201 C200 1.373 . S
C201 C202 1.396 . S
C201 C208 1.403 . S
C202 C192 1.476 . S
C202 N197 1.318 . S
C202 C201 1.396 . S
H203 C198 0.929 . S
O204 Mn180 2.385 . S
O204 C182 1.234 . S
O205 Mn180 2.209 . S
O205 Mn181 2.215 . S
O205 C182 1.283 . S
O206 Mn180 2.094 . S
O206 C184 1.240 . S
O207 Mn181 2.117 . S
O207 C184 1.264 . S
C208 C201 1.403 . S
C208 C209 1.399 . S
C208 H214 0.929 . S
C209 C189 1.449 . S
C209 C208 1.399 . S
C209 H215 0.930 . S
H210 C190 0.931 . S
H211 C191 0.930 . S
H212 C199 0.931 . S
H213 C200 0.929 . S
H214 C208 0.929 . S
H215 C209 0.930 . S
Mn216 O221 2.095 . S
Mn216 O231 2.162 . S
Mn216 O232 2.297 . S
Mn216 O240 2.385 . S
Mn216 O241 2.209 . S
Mn216 O242 2.094 . S
Mn217 O222 2.121 . S
Mn217 N224 2.257 . S
Mn217 N233 2.282 . S
Mn217 O241 2.215 . S
Mn217 O243 2.117 . S
C218 O240 1.234 . S
C218 O241 1.283 . S
C219 O231 1.281 . S
C219 O232 1.236 . S
C220 O242 1.240 . S
C220 O243 1.264 . S
O221 Mn216 2.095 . S
O221 C230 1.250 . S
O222 Mn217 2.121 . S
O222 C230 1.258 . S
C223 N224 1.326 . S
C223 C227 1.460 . S
C223 H229 0.929 . S
N224 Mn217 2.257 . S
N224 C223 1.326 . S
N224 C228 1.362 . S
C225 C226 1.258 . S
C225 C228 1.431 . S
C225 C245 1.449 . S
C226 C225 1.258 . S
C226 C227 1.477 . S
C226 H246 0.931 . S
C227 C223 1.460 . S
C227 C226 1.477 . S
C227 H247 0.930 . S
C228 N224 1.362 . S
C228 C225 1.431 . S
C228 C238 1.476 . S
H229 C223 0.929 . S
C230 O221 1.250 . S
C230 O222 1.258 . S
O231 Mn216 2.162 . S
O231 C219 1.281 . S
O232 Mn216 2.297 . S
O232 C219 1.236 . S
N233 Mn217 2.282 . S
N233 C234 1.328 . S
N233 C238 1.318 . S
C234 N233 1.328 . S
C234 C235 1.457 . S
C234 H239 0.929 . S
C235 C234 1.457 . S
C235 C236 1.291 . S
C235 H248 0.931 . S
C236 C235 1.291 . S
C236 C237 1.373 . S
C236 H249 0.929 . S
C237 C236 1.373 . S
C237 C238 1.396 . S
C237 C244 1.403 . S
C238 C228 1.476 . S
C238 N233 1.318 . S
C238 C237 1.396 . S
H239 C234 0.929 . S
O240 Mn216 2.385 . S
O240 C218 1.234 . S
O241 Mn216 2.209 . S
O241 Mn217 2.215 . S
O241 C218 1.283 . S
O242 Mn216 2.094 . S
O242 C220 1.240 . S
O243 Mn217 2.117 . S
O243 C220 1.264 . S
C244 C237 1.403 . S
C244 C245 1.399 . S
C244 H250 0.929 . S
C245 C225 1.449 . S
C245 C244 1.399 . S
C245 H251 0.930 . S
H246 C226 0.931 . S
H247 C227 0.930 . S
H248 C235 0.931 . S
H249 C236 0.929 . S
H250 C244 0.929 . S
H251 C245 0.930 . S
Mn252 O257 2.095 . S
Mn252 O267 2.162 . S
Mn252 O268 2.297 . S
Mn252 O276 2.385 . S
Mn252 O277 2.209 . S
Mn252 O278 2.094 . S
Mn253 O258 2.121 . S
Mn253 N260 2.257 . S
Mn253 N269 2.282 . S
Mn253 O277 2.215 . S
Mn253 O279 2.117 . S
C254 O276 1.234 . S
C254 O277 1.283 . S
C255 O267 1.281 . S
C255 O268 1.236 . S
C256 O278 1.240 . S
C256 O279 1.264 . S
O257 Mn252 2.095 . S
O257 C266 1.250 . S
O258 Mn253 2.121 . S
O258 C266 1.258 . S
C259 N260 1.326 . S
C259 C263 1.460 . S
C259 H265 0.929 . S
N260 Mn253 2.257 . S
N260 C259 1.326 . S
N260 C264 1.362 . S
C261 C262 1.258 . S
C261 C264 1.431 . S
C261 C281 1.449 . S
C262 C261 1.258 . S
C262 C263 1.477 . S
C262 H282 0.931 . S
C263 C259 1.460 . S
C263 C262 1.477 . S
C263 H283 0.930 . S
C264 N260 1.362 . S
C264 C261 1.431 . S
C264 C274 1.476 . S
H265 C259 0.929 . S
C266 O257 1.250 . S
C266 O258 1.258 . S
O267 Mn252 2.162 . S
O267 C255 1.281 . S
O268 Mn252 2.297 . S
O268 C255 1.236 . S
N269 Mn253 2.282 . S
N269 C270 1.328 . S
N269 C274 1.318 . S
C270 N269 1.328 . S
C270 C271 1.457 . S
C270 H275 0.929 . S
C271 C270 1.457 . S
C271 C272 1.291 . S
C271 H284 0.931 . S
C272 C271 1.291 . S
C272 C273 1.373 . S
C272 H285 0.929 . S
C273 C272 1.373 . S
C273 C274 1.396 . S
C273 C280 1.403 . S
C274 C264 1.476 . S
C274 N269 1.318 . S
C274 C273 1.396 . S
H275 C270 0.929 . S
O276 Mn252 2.385 . S
O276 C254 1.234 . S
O277 Mn252 2.209 . S
O277 Mn253 2.215 . S
O277 C254 1.283 . S
O278 Mn252 2.094 . S
O278 C256 1.240 . S
O279 Mn253 2.117 . S
O279 C256 1.264 . S
C280 C273 1.403 . S
C280 C281 1.399 . S
C280 H286 0.929 . S
C281 C261 1.449 . S
C281 C280 1.399 . S
C281 H287 0.930 . S
H282 C262 0.931 . S
H283 C263 0.930 . S
H284 C271 0.931 . S
H285 C272 0.929 . S
H286 C280 0.929 . S
H287 C281 0.930 . S
Mn288 O293 2.095 . S
Mn288 O303 2.162 . S
Mn288 O304 2.297 . S
Mn288 O312 2.385 . S
Mn288 O313 2.209 . S
Mn288 O314 2.094 . S
Mn289 O294 2.121 . S
Mn289 N296 2.257 . S
Mn289 N305 2.282 . S
Mn289 O313 2.215 . S
Mn289 O315 2.117 . S
C290 O312 1.234 . S
C290 O313 1.283 . S
C291 O303 1.281 . S
C291 O304 1.236 . S
C292 O314 1.240 . S
C292 O315 1.264 . S
O293 Mn288 2.095 . S
O293 C302 1.250 . S
O294 Mn289 2.121 . S
O294 C302 1.258 . S
C295 N296 1.326 . S
C295 C299 1.460 . S
C295 H301 0.929 . S
N296 Mn289 2.257 . S
N296 C295 1.326 . S
N296 C300 1.362 . S
C297 C298 1.258 . S
C297 C300 1.431 . S
C297 C317 1.449 . S
C298 C297 1.258 . S
C298 C299 1.477 . S
C298 H318 0.931 . S
C299 C295 1.460 . S
C299 C298 1.477 . S
C299 H319 0.930 . S
C300 N296 1.362 . S
C300 C297 1.431 . S
C300 C310 1.476 . S
H301 C295 0.929 . S
C302 O293 1.250 . S
C302 O294 1.258 . S
O303 Mn288 2.162 . S
O303 C291 1.281 . S
O304 Mn288 2.297 . S
O304 C291 1.236 . S
N305 Mn289 2.282 . S
N305 C306 1.328 . S
N305 C310 1.318 . S
C306 N305 1.328 . S
C306 C307 1.457 . S
C306 H311 0.929 . S
C307 C306 1.457 . S
C307 C308 1.291 . S
C307 H320 0.931 . S
C308 C307 1.291 . S
C308 C309 1.373 . S
C308 H321 0.929 . S
C309 C308 1.373 . S
C309 C310 1.396 . S
C309 C316 1.403 . S
C310 C300 1.476 . S
C310 N305 1.318 . S
C310 C309 1.396 . S
H311 C306 0.929 . S
O312 Mn288 2.385 . S
O312 C290 1.234 . S
O313 Mn288 2.209 . S
O313 Mn289 2.215 . S
O313 C290 1.283 . S
O314 Mn288 2.094 . S
O314 C292 1.240 . S
O315 Mn289 2.117 . S
O315 C292 1.264 . S
C316 C309 1.403 . S
C316 C317 1.399 . S
C316 H322 0.929 . S
C317 C297 1.449 . S
C317 C316 1.399 . S
C317 H323 0.930 . S
H318 C298 0.931 . S
H319 C299 0.930 . S
H320 C307 0.931 . S
H321 C308 0.929 . S
H322 C316 0.929 . S
H323 C317 0.930 . S
Mn324 O329 2.095 . S
Mn324 O339 2.162 . S
Mn324 O340 2.297 . S
Mn324 O348 2.385 . S
Mn324 O349 2.209 . S
Mn324 O350 2.094 . S
Mn325 O330 2.121 . S
Mn325 N332 2.257 . S
Mn325 N341 2.282 . S
Mn325 O349 2.215 . S
Mn325 O351 2.117 . S
C326 O348 1.234 . S
C326 O349 1.283 . S
C327 O339 1.281 . S
C327 O340 1.236 . S
C328 O350 1.240 . S
C328 O351 1.264 . S
O329 Mn324 2.095 . S
O329 C338 1.250 . S
O330 Mn325 2.121 . S
O330 C338 1.258 . S
C331 N332 1.326 . S
C331 C335 1.460 . S
C331 H337 0.929 . S
N332 Mn325 2.257 . S
N332 C331 1.326 . S
N332 C336 1.362 . S
C333 C334 1.258 . S
C333 C336 1.431 . S
C333 C353 1.449 . S
C334 C333 1.258 . S
C334 C335 1.477 . S
C334 H354 0.931 . S
C335 C331 1.460 . S
C335 C334 1.477 . S
C335 H355 0.930 . S
C336 N332 1.362 . S
C336 C333 1.431 . S
C336 C346 1.476 . S
H337 C331 0.929 . S
C338 O329 1.250 . S
C338 O330 1.258 . S
O339 Mn324 2.162 . S
O339 C327 1.281 . S
O340 Mn324 2.297 . S
O340 C327 1.236 . S
N341 Mn325 2.282 . S
N341 C342 1.328 . S
N341 C346 1.318 . S
C342 N341 1.328 . S
C342 C343 1.457 . S
C342 H347 0.929 . S
C343 C342 1.457 . S
C343 C344 1.291 . S
C343 H356 0.931 . S
C344 C343 1.291 . S
C344 C345 1.373 . S
C344 H357 0.929 . S
C345 C344 1.373 . S
C345 C346 1.396 . S
C345 C352 1.403 . S
C346 C336 1.476 . S
C346 N341 1.318 . S
C346 C345 1.396 . S
H347 C342 0.929 . S
O348 Mn324 2.385 . S
O348 C326 1.234 . S
O349 Mn324 2.209 . S
O349 Mn325 2.215 . S
O349 C326 1.283 . S
O350 Mn324 2.094 . S
O350 C328 1.240 . S
O351 Mn325 2.117 . S
O351 C328 1.264 . S
C352 C345 1.403 . S
C352 C353 1.399 . S
C352 H358 0.929 . S
C353 C333 1.449 . S
C353 C352 1.399 . S
C353 H359 0.930 . S
H354 C334 0.931 . S
H355 C335 0.930 . S
H356 C343 0.931 . S
H357 C344 0.929 . S
H358 C352 0.929 . S
H359 C353 0.930 . S
Mn360 O365 2.095 . S
Mn360 O375 2.162 . S
Mn360 O376 2.297 . S
Mn360 O384 2.385 . S
Mn360 O385 2.209 . S
Mn360 O386 2.094 . S
Mn361 O366 2.121 . S
Mn361 N368 2.257 . S
Mn361 N377 2.282 . S
Mn361 O385 2.215 . S
Mn361 O387 2.117 . S
C362 O384 1.234 . S
C362 O385 1.283 . S
C363 O375 1.281 . S
C363 O376 1.236 . S
C364 O386 1.240 . S
C364 O387 1.264 . S
O365 Mn360 2.095 . S
O365 C374 1.250 . S
O366 Mn361 2.121 . S
O366 C374 1.258 . S
C367 N368 1.326 . S
C367 C371 1.460 . S
C367 H373 0.929 . S
N368 Mn361 2.257 . S
N368 C367 1.326 . S
N368 C372 1.362 . S
C369 C370 1.258 . S
C369 C372 1.431 . S
C369 C389 1.449 . S
C370 C369 1.258 . S
C370 C371 1.477 . S
C370 H390 0.931 . S
C371 C367 1.460 . S
C371 C370 1.477 . S
C371 H391 0.930 . S
C372 N368 1.362 . S
C372 C369 1.431 . S
C372 C382 1.476 . S
H373 C367 0.929 . S
C374 O365 1.250 . S
C374 O366 1.258 . S
O375 Mn360 2.162 . S
O375 C363 1.281 . S
O376 Mn360 2.297 . S
O376 C363 1.236 . S
N377 Mn361 2.282 . S
N377 C378 1.328 . S
N377 C382 1.318 . S
C378 N377 1.328 . S
C378 C379 1.457 . S
C378 H383 0.929 . S
C379 C378 1.457 . S
C379 C380 1.291 . S
C379 H392 0.931 . S
C380 C379 1.291 . S
C380 C381 1.373 . S
C380 H393 0.929 . S
C381 C380 1.373 . S
C381 C382 1.396 . S
C381 C388 1.403 . S
C382 C372 1.476 . S
C382 N377 1.318 . S
C382 C381 1.396 . S
H383 C378 0.929 . S
O384 Mn360 2.385 . S
O384 C362 1.234 . S
O385 Mn360 2.209 . S
O385 Mn361 2.215 . S
O385 C362 1.283 . S
O386 Mn360 2.094 . S
O386 C364 1.240 . S
O387 Mn361 2.117 . S
O387 C364 1.264 . S
C388 C381 1.403 . S
C388 C389 1.399 . S
C388 H394 0.929 . S
C389 C369 1.449 . S
C389 C388 1.399 . S
C389 H395 0.930 . S
H390 C370 0.931 . S
H391 C371 0.930 . S
H392 C379 0.931 . S
H393 C380 0.929 . S
H394 C388 0.929 . S
H395 C389 0.930 . S
Mn396 O401 2.095 . S
Mn396 O411 2.162 . S
Mn396 O412 2.297 . S
Mn396 O420 2.385 . S
Mn396 O421 2.209 . S
Mn396 O422 2.094 . S
Mn397 O402 2.121 . S
Mn397 N404 2.257 . S
Mn397 N413 2.282 . S
Mn397 O421 2.215 . S
Mn397 O423 2.117 . S
C398 O420 1.234 . S
C398 O421 1.283 . S
C399 O411 1.281 . S
C399 O412 1.236 . S
C400 O422 1.240 . S
C400 O423 1.264 . S
O401 Mn396 2.095 . S
O401 C410 1.250 . S
O402 Mn397 2.121 . S
O402 C410 1.258 . S
C403 N404 1.326 . S
C403 C407 1.460 . S
C403 H409 0.929 . S
N404 Mn397 2.257 . S
N404 C403 1.326 . S
N404 C408 1.362 . S
C405 C406 1.258 . S
C405 C408 1.431 . S
C405 C425 1.449 . S
C406 C405 1.258 . S
C406 C407 1.477 . S
C406 H426 0.931 . S
C407 C403 1.460 . S
C407 C406 1.477 . S
C407 H427 0.930 . S
C408 N404 1.362 . S
C408 C405 1.431 . S
C408 C418 1.476 . S
H409 C403 0.929 . S
C410 O401 1.250 . S
C410 O402 1.258 . S
O411 Mn396 2.162 . S
O411 C399 1.281 . S
O412 Mn396 2.297 . S
O412 C399 1.236 . S
N413 Mn397 2.282 . S
N413 C414 1.328 . S
N413 C418 1.318 . S
C414 N413 1.328 . S
C414 C415 1.457 . S
C414 H419 0.929 . S
C415 C414 1.457 . S
C415 C416 1.291 . S
C415 H428 0.931 . S
C416 C415 1.291 . S
C416 C417 1.373 . S
C416 H429 0.929 . S
C417 C416 1.373 . S
C417 C418 1.396 . S
C417 C424 1.403 . S
C418 C408 1.476 . S
C418 N413 1.318 . S
C418 C417 1.396 . S
H419 C414 0.929 . S
O420 Mn396 2.385 . S
O420 C398 1.234 . S
O421 Mn396 2.209 . S
O421 Mn397 2.215 . S
O421 C398 1.283 . S
O422 Mn396 2.094 . S
O422 C400 1.240 . S
O423 Mn397 2.117 . S
O423 C400 1.264 . S
C424 C417 1.403 . S
C424 C425 1.399 . S
C424 H430 0.929 . S
C425 C405 1.449 . S
C425 C424 1.399 . S
C425 H431 0.930 . S
H426 C406 0.931 . S
H427 C407 0.930 . S
H428 C415 0.931 . S
H429 C416 0.929 . S
H430 C424 0.929 . S
H431 C425 0.930 . S
Mn432 O437 2.095 . S
Mn432 O447 2.162 . S
Mn432 O448 2.297 . S
Mn432 O456 2.385 . S
Mn432 O457 2.209 . S
Mn432 O458 2.094 . S
Mn433 O438 2.121 . S
Mn433 N440 2.257 . S
Mn433 N449 2.282 . S
Mn433 O457 2.215 . S
Mn433 O459 2.117 . S
C434 O456 1.234 . S
C434 O457 1.283 . S
C435 O447 1.281 . S
C435 O448 1.236 . S
C436 O458 1.240 . S
C436 O459 1.264 . S
O437 Mn432 2.095 . S
O437 C446 1.250 . S
O438 Mn433 2.121 . S
O438 C446 1.258 . S
C439 N440 1.326 . S
C439 C443 1.460 . S
C439 H445 0.929 . S
N440 Mn433 2.257 . S
N440 C439 1.326 . S
N440 C444 1.362 . S
C441 C442 1.258 . S
C441 C444 1.431 . S
C441 C461 1.449 . S
C442 C441 1.258 . S
C442 C443 1.477 . S
C442 H462 0.931 . S
C443 C439 1.460 . S
C443 C442 1.477 . S
C443 H463 0.930 . S
C444 N440 1.362 . S
C444 C441 1.431 . S
C444 C454 1.476 . S
H445 C439 0.929 . S
C446 O437 1.250 . S
C446 O438 1.258 . S
O447 Mn432 2.162 . S
O447 C435 1.281 . S
O448 Mn432 2.297 . S
O448 C435 1.236 . S
N449 Mn433 2.282 . S
N449 C450 1.328 . S
N449 C454 1.318 . S
C450 N449 1.328 . S
C450 C451 1.457 . S
C450 H455 0.929 . S
C451 C450 1.457 . S
C451 C452 1.291 . S
C451 H464 0.931 . S
C452 C451 1.291 . S
C452 C453 1.373 . S
C452 H465 0.929 . S
C453 C452 1.373 . S
C453 C454 1.396 . S
C453 C460 1.403 . S
C454 C444 1.476 . S
C454 N449 1.318 . S
C454 C453 1.396 . S
H455 C450 0.929 . S
O456 Mn432 2.385 . S
O456 C434 1.234 . S
O457 Mn432 2.209 . S
O457 Mn433 2.215 . S
O457 C434 1.283 . S
O458 Mn432 2.094 . S
O458 C436 1.240 . S
O459 Mn433 2.117 . S
O459 C436 1.264 . S
C460 C453 1.403 . S
C460 C461 1.399 . S
C460 H466 0.929 . S
C461 C441 1.449 . S
C461 C460 1.399 . S
C461 H467 0.930 . S
H462 C442 0.931 . S
H463 C443 0.930 . S
H464 C451 0.931 . S
H465 C452 0.929 . S
H466 C460 0.929 . S
H467 C461 0.930 . S
Mn468 O473 2.095 . S
Mn468 O483 2.162 . S
Mn468 O484 2.297 . S
Mn468 O492 2.385 . S
Mn468 O493 2.209 . S
Mn468 O494 2.094 . S
Mn469 O474 2.121 . S
Mn469 N476 2.257 . S
Mn469 N485 2.282 . S
Mn469 O493 2.215 . S
Mn469 O495 2.117 . S
C470 O492 1.234 . S
C470 O493 1.283 . S
C471 O483 1.281 . S
C471 O484 1.236 . S
C472 O494 1.240 . S
C472 O495 1.264 . S
O473 Mn468 2.095 . S
O473 C482 1.250 . S
O474 Mn469 2.121 . S
O474 C482 1.258 . S
C475 N476 1.326 . S
C475 C479 1.460 . S
C475 H481 0.929 . S
N476 Mn469 2.257 . S
N476 C475 1.326 . S
N476 C480 1.362 . S
C477 C478 1.258 . S
C477 C480 1.431 . S
C477 C497 1.449 . S
C478 C477 1.258 . S
C478 C479 1.477 . S
C478 H498 0.931 . S
C479 C475 1.460 . S
C479 C478 1.477 . S
C479 H499 0.930 . S
C480 N476 1.362 . S
C480 C477 1.431 . S
C480 C490 1.476 . S
H481 C475 0.929 . S
C482 O473 1.250 . S
C482 O474 1.258 . S
O483 Mn468 2.162 . S
O483 C471 1.281 . S
O484 Mn468 2.297 . S
O484 C471 1.236 . S
N485 Mn469 2.282 . S
N485 C486 1.328 . S
N485 C490 1.318 . S
C486 N485 1.328 . S
C486 C487 1.457 . S
C486 H491 0.929 . S
C487 C486 1.457 . S
C487 C488 1.291 . S
C487 H500 0.931 . S
C488 C487 1.291 . S
C488 C489 1.373 . S
C488 H501 0.929 . S
C489 C488 1.373 . S
C489 C490 1.396 . S
C489 C496 1.403 . S
C490 C480 1.476 . S
C490 N485 1.318 . S
C490 C489 1.396 . S
H491 C486 0.929 . S
O492 Mn468 2.385 . S
O492 C470 1.234 . S
O493 Mn468 2.209 . S
O493 Mn469 2.215 . S
O493 C470 1.283 . S
O494 Mn468 2.094 . S
O494 C472 1.240 . S
O495 Mn469 2.117 . S
O495 C472 1.264 . S
C496 C489 1.403 . S
C496 C497 1.399 . S
C496 H502 0.929 . S
C497 C477 1.449 . S
C497 C496 1.399 . S
C497 H503 0.930 . S
H498 C478 0.931 . S
H499 C479 0.930 . S
H500 C487 0.931 . S
H501 C488 0.929 . S
H502 C496 0.929 . S
H503 C497 0.930 . S
Mn504 O509 2.095 . S
Mn504 O519 2.162 . S
Mn504 O520 2.297 . S
Mn504 O528 2.385 . S
Mn504 O529 2.209 . S
Mn504 O530 2.094 . S
Mn505 O510 2.121 . S
Mn505 N512 2.257 . S
Mn505 N521 2.282 . S
Mn505 O529 2.215 . S
Mn505 O531 2.117 . S
C506 O528 1.234 . S
C506 O529 1.283 . S
C507 O519 1.281 . S
C507 O520 1.236 . S
C508 O530 1.240 . S
C508 O531 1.264 . S
O509 Mn504 2.095 . S
O509 C518 1.250 . S
O510 Mn505 2.121 . S
O510 C518 1.258 . S
C511 N512 1.326 . S
C511 C515 1.460 . S
C511 H517 0.929 . S
N512 Mn505 2.257 . S
N512 C511 1.326 . S
N512 C516 1.362 . S
C513 C514 1.258 . S
C513 C516 1.431 . S
C513 C533 1.449 . S
C514 C513 1.258 . S
C514 C515 1.477 . S
C514 H534 0.931 . S
C515 C511 1.460 . S
C515 C514 1.477 . S
C515 H535 0.930 . S
C516 N512 1.362 . S
C516 C513 1.431 . S
C516 C526 1.476 . S
H517 C511 0.929 . S
C518 O509 1.250 . S
C518 O510 1.258 . S
O519 Mn504 2.162 . S
O519 C507 1.281 . S
O520 Mn504 2.297 . S
O520 C507 1.236 . S
N521 Mn505 2.282 . S
N521 C522 1.328 . S
N521 C526 1.318 . S
C522 N521 1.328 . S
C522 C523 1.457 . S
C522 H527 0.929 . S
C523 C522 1.457 . S
C523 C524 1.291 . S
C523 H536 0.931 . S
C524 C523 1.291 . S
C524 C525 1.373 . S
C524 H537 0.929 . S
C525 C524 1.373 . S
C525 C526 1.396 . S
C525 C532 1.403 . S
C526 C516 1.476 . S
C526 N521 1.318 . S
C526 C525 1.396 . S
H527 C522 0.929 . S
O528 Mn504 2.385 . S
O528 C506 1.234 . S
O529 Mn504 2.209 . S
O529 Mn505 2.215 . S
O529 C506 1.283 . S
O530 Mn504 2.094 . S
O530 C508 1.240 . S
O531 Mn505 2.117 . S
O531 C508 1.264 . S
C532 C525 1.403 . S
C532 C533 1.399 . S
C532 H538 0.929 . S
C533 C513 1.449 . S
C533 C532 1.399 . S
C533 H539 0.930 . S
H534 C514 0.931 . S
H535 C515 0.930 . S
H536 C523 0.931 . S
H537 C524 0.929 . S
H538 C532 0.929 . S
H539 C533 0.930 . S
Mn540 O545 2.095 . S
Mn540 O555 2.162 . S
Mn540 O556 2.297 . S
Mn540 O564 2.385 . S
Mn540 O565 2.209 . S
Mn540 O566 2.094 . S
Mn541 O546 2.121 . S
Mn541 N548 2.257 . S
Mn541 N557 2.282 . S
Mn541 O565 2.215 . S
Mn541 O567 2.117 . S
C542 O564 1.234 . S
C542 O565 1.283 . S
C543 O555 1.281 . S
C543 O556 1.236 . S
C544 O566 1.240 . S
C544 O567 1.264 . S
O545 Mn540 2.095 . S
O545 C554 1.250 . S
O546 Mn541 2.121 . S
O546 C554 1.258 . S
C547 N548 1.326 . S
C547 C551 1.460 . S
C547 H553 0.929 . S
N548 Mn541 2.257 . S
N548 C547 1.326 . S
N548 C552 1.362 . S
C549 C550 1.258 . S
C549 C552 1.431 . S
C549 C569 1.449 . S
C550 C549 1.258 . S
C550 C551 1.477 . S
C550 H570 0.931 . S
C551 C547 1.460 . S
C551 C550 1.477 . S
C551 H571 0.930 . S
C552 N548 1.362 . S
C552 C549 1.431 . S
C552 C562 1.476 . S
H553 C547 0.929 . S
C554 O545 1.250 . S
C554 O546 1.258 . S
O555 Mn540 2.162 . S
O555 C543 1.281 . S
O556 Mn540 2.297 . S
O556 C543 1.236 . S
N557 Mn541 2.282 . S
N557 C558 1.328 . S
N557 C562 1.318 . S
C558 N557 1.328 . S
C558 C559 1.457 . S
C558 H563 0.929 . S
C559 C558 1.457 . S
C559 C560 1.291 . S
C559 H572 0.931 . S
C560 C559 1.291 . S
C560 C561 1.373 . S
C560 H573 0.929 . S
C561 C560 1.373 . S
C561 C562 1.396 . S
C561 C568 1.403 . S
C562 C552 1.476 . S
C562 N557 1.318 . S
C562 C561 1.396 . S
H563 C558 0.929 . S
O564 Mn540 2.385 . S
O564 C542 1.234 . S
O565 Mn540 2.209 . S
O565 Mn541 2.215 . S
O565 C542 1.283 . S
O566 Mn540 2.094 . S
O566 C544 1.240 . S
O567 Mn541 2.117 . S
O567 C544 1.264 . S
C568 C561 1.403 . S
C568 C569 1.399 . S
C568 H574 0.929 . S
C569 C549 1.449 . S
C569 C568 1.399 . S
C569 H575 0.930 . S
H570 C550 0.931 . S
H571 C551 0.930 . S
H572 C559 0.931 . S
H573 C560 0.929 . S
H574 C568 0.929 . S
H575 C569 0.930 . S
H576 C584 0.950 . S
H577 C589 0.950 . S
H578 C586 0.950 . S
H579 C588 0.950 1_556 S
H580 C590 0.950 . S
H581 C592 0.950 . S
H582 C594 0.950 . S
H583 C595 0.950 . S
C584 H576 0.950 . S
C584 C585 1.386 . S
C584 C586 1.391 . S
C585 C584 1.386 . S
C585 C589 1.393 . S
C586 H578 0.950 . S
C586 C584 1.391 . S
C586 C587 1.400 . S
C587 C586 1.400 . S
C587 C588 1.398 . S
C587 C593 1.491 1_554 S
C588 H579 0.950 1_554 S
C588 C587 1.398 . S
C588 C589 1.391 . S
C589 H577 0.950 . S
C589 C585 1.393 . S
C589 C588 1.391 . S
C590 H580 0.950 . S
C590 C591 1.386 . S
C590 C592 1.391 . S
C591 C590 1.386 . S
C591 C595 1.393 . S
C592 H581 0.950 . S
C592 C590 1.391 . S
C592 C593 1.400 . S
C593 C587 1.491 1_556 S
C593 C592 1.400 . S
C593 C594 1.398 1_556 S
C594 H582 0.950 . S
C594 C593 1.398 1_554 S
C594 C595 1.391 1_554 S
C595 H583 0.950 . S
C595 C591 1.393 . S
C595 C594 1.391 1_556 S
H596 C604 0.950 . S
H597 C609 0.950 . S
H598 C606 0.950 . S
H599 C608 0.950 . S
H600 C610 0.950 . S
H601 C612 0.950 . S
H602 C614 0.950 . S
H603 C615 0.950 . S
C604 H596 0.950 . S
C604 C605 1.386 . S
C604 C606 1.391 . S
C605 C604 1.386 . S
C605 C609 1.393 . S
C606 H598 0.950 . S
C606 C604 1.391 . S
C606 C607 1.400 . S
C607 C606 1.400 . S
C607 C608 1.398 . S
C607 C613 1.491 . S
C608 H599 0.950 . S
C608 C607 1.398 . S
C608 C609 1.391 . S
C609 H597 0.950 . S
C609 C605 1.393 . S
C609 C608 1.391 . S
C610 H600 0.950 . S
C610 C611 1.386 . S
C610 C612 1.391 . S
C611 C610 1.386 . S
C611 C615 1.393 . S
C612 H601 0.950 . S
C612 C610 1.391 . S
C612 C613 1.400 . S
C613 C607 1.491 . S
C613 C612 1.400 . S
C613 C614 1.398 . S
C614 H602 0.950 . S
C614 C613 1.398 . S
C614 C615 1.391 . S
C615 H603 0.950 . S
C615 C611 1.393 . S
C615 C614 1.391 . S
H616 C624 0.950 . S
H617 C629 0.950 . S
H618 C626 0.950 . S
H619 C628 0.941 1_554 S
H620 C630 0.950 . S
H621 C632 0.950 . S
H622 C634 0.946 1_556 S
H623 C635 0.950 . S
C624 H616 0.950 . S
C624 C625 1.386 . S
C624 C626 1.391 . S
C625 C624 1.386 . S
C625 C629 1.393 . S
C626 H618 0.950 . S
C626 C624 1.391 . S
C626 C627 1.400 . S
C627 C626 1.400 . S
C627 C628 1.398 . S
C627 C633 1.491 1_556 S
C628 H619 0.941 1_556 S
C628 C627 1.398 . S
C628 C629 1.391 . S
C629 H617 0.950 . S
C629 C625 1.393 . S
C629 C628 1.391 . S
C630 H620 0.950 . S
C630 C631 1.386 . S
C630 C632 1.391 . S
C631 C630 1.386 . S
C631 C635 1.393 . S
C632 H621 0.950 . S
C632 C630 1.391 . S
C632 C633 1.400 . S
C633 C627 1.491 1_554 S
C633 C632 1.400 . S
C633 C634 1.399 . S
C634 H622 0.946 1_554 S
C634 C633 1.399 . S
C634 C635 1.394 . S
C635 H623 0.950 . S
C635 C631 1.393 . S
C635 C634 1.394 . S
H636 C644 0.950 . S
H637 C649 0.950 . S
H638 C646 0.950 . S
H639 C648 0.950 . S
H640 C650 0.950 . S
H641 C652 0.950 . S
H642 C654 0.950 . S
H643 C655 0.950 . S
C644 H636 0.950 . S
C644 C645 1.386 . S
C644 C646 1.391 . S
C645 C644 1.386 . S
C645 C649 1.393 . S
C646 H638 0.950 . S
C646 C644 1.391 . S
C646 C647 1.400 . S
C647 C646 1.400 . S
C647 C648 1.398 . S
C647 C653 1.491 . S
C648 H639 0.950 . S
C648 C647 1.398 . S
C648 C649 1.391 . S
C649 H637 0.950 . S
C649 C645 1.393 . S
C649 C648 1.391 . S
C650 H640 0.950 . S
C650 C651 1.386 . S
C650 C652 1.391 . S
C651 C650 1.386 . S
C651 C655 1.393 . S
C652 H641 0.950 . S
C652 C650 1.391 . S
C652 C653 1.400 . S
C653 C647 1.491 . S
C653 C652 1.400 . S
C653 C654 1.398 . S
C654 H642 0.950 . S
C654 C653 1.398 . S
C654 C655 1.391 . S
C655 H643 0.950 . S
C655 C651 1.393 . S
C655 C654 1.391 . S
H656 C664 0.950 . S
H657 C669 0.950 . S
H658 C666 0.950 1_556 S
H659 C668 0.950 . S
H660 C670 0.950 1_554 S
H661 C672 0.950 . S
H662 C674 0.950 . S
H663 C675 0.950 . S
C664 H656 0.950 . S
C664 C665 1.386 . S
C664 C666 1.391 . S
C665 C664 1.386 . S
C665 C669 1.393 . S
C666 H658 0.950 1_554 S
C666 C664 1.391 . S
C666 C667 1.400 . S
C667 C666 1.400 . S
C667 C668 1.398 . S
C667 C673 1.491 1_554 S
C668 H659 0.950 . S
C668 C667 1.398 . S
C668 C669 1.391 . S
C669 H657 0.950 . S
C669 C665 1.393 . S
C669 C668 1.391 . S
C670 H660 0.950 1_556 S
C670 C671 1.386 . S
C670 C672 1.391 1_556 S
C671 C670 1.386 . S
C671 C675 1.393 . S
C672 H661 0.950 . S
C672 C670 1.391 1_554 S
C672 C673 1.400 1_554 S
C673 C667 1.491 1_556 S
C673 C672 1.400 1_556 S
C673 C674 1.398 . S
C674 H662 0.950 . S
C674 C673 1.398 . S
C674 C675 1.391 . S
C675 H663 0.950 . S
C675 C671 1.393 . S
C675 C674 1.391 . S
H676 C684 0.950 . S
H677 C689 0.950 . S
H678 C686 0.950 . S
H679 C688 0.950 . S
H680 C690 0.950 . S
H681 C692 0.950 . S
H682 C694 0.950 . S
H683 C695 0.950 . S
C684 H676 0.950 . S
C684 C685 1.386 . S
C684 C686 1.391 . S
C685 C684 1.386 . S
C685 C689 1.393 . S
C686 H678 0.950 . S
C686 C684 1.391 . S
C686 C687 1.400 . S
C687 C686 1.400 . S
C687 C688 1.398 . S
C687 C693 1.491 . S
C688 H679 0.950 . S
C688 C687 1.398 . S
C688 C689 1.391 . S
C689 H677 0.950 . S
C689 C685 1.393 . S
C689 C688 1.391 . S
C690 H680 0.950 . S
C690 C691 1.386 . S
C690 C692 1.391 . S
C691 C690 1.386 . S
C691 C695 1.393 . S
C692 H681 0.950 . S
C692 C690 1.391 . S
C692 C693 1.400 . S
C693 C687 1.491 . S
C693 C692 1.400 . S
C693 C694 1.398 . S
C694 H682 0.950 . S
C694 C693 1.398 . S
C694 C695 1.391 . S
C695 H683 0.950 . S
C695 C691 1.393 . S
C695 C694 1.391 . S
H696 C704 0.950 . S
H697 C709 0.950 . S
H698 C706 0.950 . S
H699 C708 0.950 1_554 S
H700 C710 0.950 . S
H701 C712 0.950 . S
H702 C714 0.950 . S
H703 C715 0.950 . S
C704 H696 0.950 . S
C704 C705 1.386 . S
C704 C706 1.391 . S
C705 C704 1.386 . S
C705 C709 1.393 . S
C706 H698 0.950 . S
C706 C704 1.391 . S
C706 C707 1.400 . S
C707 C706 1.400 . S
C707 C708 1.398 . S
C707 C713 1.491 1_556 S
C708 H699 0.950 1_556 S
C708 C707 1.398 . S
C708 C709 1.391 . S
C709 H697 0.950 . S
C709 C705 1.393 . S
C709 C708 1.391 . S
C710 H700 0.950 . S
C710 C711 1.386 . S
C710 C712 1.391 . S
C711 C710 1.386 . S
C711 C715 1.393 . S
C712 H701 0.950 . S
C712 C710 1.391 . S
C712 C713 1.400 . S
C713 C707 1.491 1_554 S
C713 C712 1.400 . S
C713 C714 1.398 1_554 S
C714 H702 0.950 . S
C714 C713 1.398 1_556 S
C714 C715 1.391 1_556 S
C715 H703 0.950 . S
C715 C711 1.393 . S
C715 C714 1.391 1_554 S
H716 C724 0.950 . S
H717 C729 0.950 . S
H718 C726 0.950 . S
H719 C728 0.950 . S
H720 C730 0.950 . S
H721 C732 0.950 . S
H722 C734 0.950 . S
H723 C735 0.950 . S
C724 H716 0.950 . S
C724 C725 1.386 . S
C724 C726 1.391 . S
C725 C724 1.386 . S
C725 C729 1.393 . S
C726 H718 0.950 . S
C726 C724 1.391 . S
C726 C727 1.400 . S
C727 C726 1.400 . S
C727 C728 1.398 . S
C727 C733 1.491 . S
C728 H719 0.950 . S
C728 C727 1.398 . S
C728 C729 1.391 . S
C729 H717 0.950 . S
C729 C725 1.393 . S
C729 C728 1.391 . S
C730 H720 0.950 . S
C730 C731 1.386 . S
C730 C732 1.391 . S
C731 C730 1.386 . S
C731 C735 1.393 . S
C732 H721 0.950 . S
C732 C730 1.391 . S
C732 C733 1.400 . S
C733 C727 1.491 . S
C733 C732 1.400 . S
C733 C734 1.398 . S
C734 H722 0.950 . S
C734 C733 1.398 . S
C734 C735 1.391 . S
C735 H723 0.950 . S
C735 C731 1.393 . S
C735 C734 1.391 . S
H736 C744 0.950 . S
H737 C749 0.950 . S
H738 C746 0.950 . S
H739 C748 0.950 . S
H740 C750 0.950 . S
H741 C752 0.950 . S
H742 C754 0.950 . S
H743 C755 0.950 . S
C744 H736 0.950 . S
C744 C745 1.386 . S
C744 C746 1.391 . S
C745 C744 1.386 . S
C745 C749 1.393 . S
C746 H738 0.950 . S
C746 C744 1.391 . S
C746 C747 1.400 . S
C747 C746 1.400 . S
C747 C748 1.398 . S
C747 C753 1.491 1_544 S
C748 H739 0.950 . S
C748 C747 1.398 . S
C748 C749 1.391 . S
C749 H737 0.950 . S
C749 C745 1.393 . S
C749 C748 1.391 . S
C750 H740 0.950 . S
C750 C751 1.386 . S
C750 C752 1.391 . S
C751 C750 1.386 . S
C751 C755 1.393 . S
C752 H741 0.950 . S
C752 C750 1.391 . S
C752 C753 1.400 . S
C753 C747 1.491 1_566 S
C753 C752 1.400 . S
C753 C754 1.398 . S
C754 H742 0.950 . S
C754 C753 1.398 . S
C754 C755 1.391 . S
C755 H743 0.950 . S
C755 C751 1.393 . S
C755 C754 1.391 . S
H756 C764 0.950 . S
H757 C769 0.950 . S
H758 C766 0.950 1_545 S
H759 C768 0.950 . S
H760 C770 0.950 . S
H761 C772 0.950 1_565 S
H762 C774 0.950 . S
H763 C775 0.950 . S
C764 H756 0.950 . S
C764 C765 1.386 . S
C764 C766 1.391 . S
C765 C764 1.386 . S
C765 C769 1.393 . S
C766 H758 0.950 1_565 S
C766 C764 1.391 . S
C766 C767 1.400 . S
C767 C766 1.400 . S
C767 C768 1.398 . S
C767 C773 1.491 1_565 S
C768 H759 0.950 . S
C768 C767 1.398 . S
C768 C769 1.391 . S
C769 H757 0.950 . S
C769 C765 1.393 . S
C769 C768 1.391 . S
C770 H760 0.950 . S
C770 C771 1.386 . S
C770 C772 1.391 . S
C771 C770 1.386 . S
C771 C775 1.393 . S
C772 H761 0.950 1_545 S
C772 C770 1.391 . S
C772 C773 1.400 . S
C773 C767 1.491 1_545 S
C773 C772 1.400 . S
C773 C774 1.398 . S
C774 H762 0.950 . S
C774 C773 1.398 . S
C774 C775 1.391 . S
C775 H763 0.950 . S
C775 C771 1.393 . S
C775 C774 1.391 . S
H776 C784 0.950 . S
H777 C789 0.950 . S
H778 C786 0.955 . S
H779 C788 0.950 . S
H780 C790 0.950 . S
H781 C792 0.955 . S
H782 C794 0.950 . S
H783 C795 0.950 . S
C784 H776 0.950 . S
C784 C785 1.386 . S
C784 C786 1.388 1_556 S
C785 C784 1.386 . S
C785 C789 1.393 . S
C786 H778 0.955 . S
C786 C784 1.388 1_554 S
C786 C787 1.399 1_554 S
C787 C786 1.399 1_556 S
C787 C788 1.398 . S
C787 C793 1.491 1_566 S
C788 H779 0.950 . S
C788 C787 1.398 . S
C788 C789 1.391 . S
C789 H777 0.950 . S
C789 C785 1.393 . S
C789 C788 1.391 . S
C790 H780 0.950 . S
C790 C791 1.386 . S
C790 C792 1.388 1_554 S
C791 C790 1.386 . S
C791 C795 1.393 . S
C792 H781 0.955 . S
C792 C790 1.388 1_556 S
C792 C793 1.399 1_556 S
C793 C787 1.491 1_544 S
C793 C792 1.399 1_554 S
C793 C794 1.398 . S
C794 H782 0.950 . S
C794 C793 1.398 . S
C794 C795 1.391 . S
C795 H783 0.950 . S
C795 C791 1.393 . S
C795 C794 1.391 . S
H796 C804 0.950 . S
H797 C809 0.950 . S
H798 C806 0.950 . S
H799 C808 0.950 . S
H800 C810 0.950 . S
H801 C812 0.950 . S
H802 C814 0.950 . S
H803 C815 0.950 . S
C804 H796 0.950 . S
C804 C805 1.386 . S
C804 C806 1.391 . S
C805 C804 1.386 . S
C805 C809 1.393 . S
C806 H798 0.950 . S
C806 C804 1.391 . S
C806 C807 1.400 . S
C807 C806 1.400 . S
C807 C808 1.398 . S
C807 C813 1.491 1_545 S
C808 H799 0.950 . S
C808 C807 1.398 . S
C808 C809 1.391 . S
C809 H797 0.950 . S
C809 C805 1.393 . S
C809 C808 1.391 . S
C810 H800 0.950 . S
C810 C811 1.386 . S
C810 C812 1.391 . S
C811 C810 1.386 . S
C811 C815 1.393 . S
C812 H801 0.950 . S
C812 C810 1.391 . S
C812 C813 1.400 . S
C813 C807 1.491 1_565 S
C813 C812 1.400 . S
C813 C814 1.398 . S
C814 H802 0.950 . S
C814 C813 1.398 . S
C814 C815 1.391 . S
C815 H803 0.950 . S
C815 C811 1.393 . S
C815 C814 1.391 . S
H816 C824 0.950 . S
H817 C829 0.950 . S
H818 C826 0.946 . S
H819 C828 0.950 . S
H820 C830 0.950 . S
H821 C832 0.946 . S
H822 C834 0.950 . S
H823 C835 0.950 . S
C824 H816 0.950 . S
C824 C825 1.386 . S
C824 C826 1.394 1_556 S
C825 C824 1.386 . S
C825 C829 1.393 . S
C826 H818 0.946 . S
C826 C824 1.394 1_554 S
C826 C827 1.401 1_554 S
C827 C826 1.401 1_556 S
C827 C828 1.398 . S
C827 C833 1.491 1_556 S
C828 H819 0.950 . S
C828 C827 1.398 . S
C828 C829 1.391 . S
C829 H817 0.950 . S
C829 C825 1.393 . S
C829 C828 1.391 . S
C830 H820 0.950 . S
C830 C831 1.386 . S
C830 C832 1.394 1_554 S
C831 C830 1.386 . S
C831 C835 1.393 . S
C832 H821 0.946 . S
C832 C830 1.394 1_556 S
C832 C833 1.401 1_556 S
C833 C827 1.491 1_554 S
C833 C832 1.401 1_554 S
C833 C834 1.398 . S
C834 H822 0.950 . S
C834 C833 1.398 . S
C834 C835 1.391 . S
C835 H823 0.950 . S
C835 C831 1.393 . S
C835 C834 1.391 . S
H836 C844 0.950 . S
H837 C849 0.950 . S
H838 C846 0.950 . S
H839 C848 0.950 . S
H840 C850 0.950 . S
H841 C852 0.950 . S
H842 C854 0.950 . S
H843 C855 0.950 . S
C844 H836 0.950 . S
C844 C845 1.386 . S
C844 C846 1.391 . S
C845 C844 1.386 . S
C845 C849 1.393 . S
C846 H838 0.950 . S
C846 C844 1.391 . S
C846 C847 1.400 . S
C847 C846 1.400 . S
C847 C848 1.398 . S
C847 C853 1.491 . S
C848 H839 0.950 . S
C848 C847 1.398 . S
C848 C849 1.391 . S
C849 H837 0.950 . S
C849 C845 1.393 . S
C849 C848 1.391 . S
C850 H840 0.950 . S
C850 C851 1.386 . S
C850 C852 1.391 . S
C851 C850 1.386 . S
C851 C855 1.393 . S
C852 H841 0.950 . S
C852 C850 1.391 . S
C852 C853 1.400 . S
C853 C847 1.491 . S
C853 C852 1.400 . S
C853 C854 1.398 . S
C854 H842 0.950 . S
C854 C853 1.398 . S
C854 C855 1.391 . S
C855 H843 0.950 . S
C855 C851 1.393 . S
C855 C854 1.391 . S
H856 C864 0.950 . S
H857 C869 0.950 1_556 S
H858 C866 0.950 . S
H859 C868 0.950 . S
H860 C870 0.950 . S
H861 C872 0.950 . S
H862 C874 0.950 . S
H863 C875 0.950 1_554 S
C864 H856 0.950 . S
C864 C865 1.386 . S
C864 C866 1.391 . S
C865 C864 1.386 . S
C865 C869 1.393 . S
C866 H858 0.950 . S
C866 C864 1.391 . S
C866 C867 1.400 . S
C867 C866 1.400 . S
C867 C868 1.398 1_554 S
C867 C873 1.491 1_554 S
C868 H859 0.950 . S
C868 C867 1.398 1_556 S
C868 C869 1.391 1_556 S
C869 H857 0.950 1_554 S
C869 C865 1.393 . S
C869 C868 1.391 1_554 S
C870 H860 0.950 . S
C870 C871 1.386 . S
C870 C872 1.391 . S
C871 C870 1.386 . S
C871 C875 1.393 . S
C872 H861 0.950 . S
C872 C870 1.391 . S
C872 C873 1.400 . S
C873 C867 1.491 1_556 S
C873 C872 1.400 . S
C873 C874 1.398 1_556 S
C874 H862 0.950 . S
C874 C873 1.398 1_554 S
C874 C875 1.391 1_554 S
C875 H863 0.950 1_556 S
C875 C871 1.393 . S
C875 C874 1.391 1_556 S
H876 C884 0.950 . S
H877 C889 0.950 . S
H878 C886 0.950 . S
H879 C888 0.950 . S
H880 C890 0.950 . S
H881 C892 0.950 . S
H882 C894 0.950 . S
H883 C895 0.950 . S
C884 H876 0.950 . S
C884 C885 1.386 . S
C884 C886 1.391 . S
C885 C884 1.386 . S
C885 C889 1.393 . S
C886 H878 0.950 . S
C886 C884 1.391 . S
C886 C887 1.400 . S
C887 C886 1.400 . S
C887 C888 1.398 . S
C887 C893 1.491 . S
C888 H879 0.950 . S
C888 C887 1.398 . S
C888 C889 1.391 . S
C889 H877 0.950 . S
C889 C885 1.393 . S
C889 C888 1.391 . S
C890 H880 0.950 . S
C890 C891 1.386 . S
C890 C892 1.391 . S
C891 C890 1.386 . S
C891 C895 1.393 . S
C892 H881 0.950 . S
C892 C890 1.391 . S
C892 C893 1.400 . S
C893 C887 1.491 . S
C893 C892 1.400 . S
C893 C894 1.398 . S
C894 H882 0.950 . S
C894 C893 1.398 . S
C894 C895 1.391 . S
C895 H883 0.950 . S
C895 C891 1.393 . S
C895 C894 1.391 . S
H896 C904 0.950 . S
H897 C909 0.950 . S
H898 C906 0.950 . S
H899 C908 0.950 . S
H900 C910 0.950 . S
H901 C912 0.950 . S
H902 C914 0.950 . S
H903 C915 0.950 . S
C904 H896 0.950 . S
C904 C905 1.386 . S
C904 C906 1.391 . S
C905 C904 1.386 . S
C905 C909 1.393 . S
C906 H898 0.950 . S
C906 C904 1.391 . S
C906 C907 1.400 . S
C907 C906 1.400 . S
C907 C908 1.398 . S
C907 C913 1.491 . S
C908 H899 0.950 . S
C908 C907 1.398 . S
C908 C909 1.391 . S
C909 H897 0.950 . S
C909 C905 1.393 . S
C909 C908 1.391 . S
C910 H900 0.950 . S
C910 C911 1.386 . S
C910 C912 1.391 . S
C911 C910 1.386 . S
C911 C915 1.393 . S
C912 H901 0.950 . S
C912 C910 1.391 . S
C912 C913 1.400 . S
C913 C907 1.491 . S
C913 C912 1.400 . S
C913 C914 1.398 . S
C914 H902 0.950 . S
C914 C913 1.398 . S
C914 C915 1.391 . S
C915 H903 0.950 . S
C915 C911 1.393 . S
C915 C914 1.391 . S
H916 C924 0.950 . S
H917 C929 0.950 . S
H918 C926 0.950 . S
H919 C928 0.950 . S
H920 C930 0.950 . S
H921 C932 0.950 . S
H922 C934 0.950 . S
H923 C935 0.950 . S
C924 H916 0.950 . S
C924 C925 1.386 . S
C924 C926 1.391 . S
C925 C924 1.386 . S
C925 C929 1.393 . S
C926 H918 0.950 . S
C926 C924 1.391 . S
C926 C927 1.400 . S
C927 C926 1.400 . S
C927 C928 1.398 . S
C927 C933 1.491 1_655 S
C928 H919 0.950 . S
C928 C927 1.398 . S
C928 C929 1.391 . S
C929 H917 0.950 . S
C929 C925 1.393 . S
C929 C928 1.391 . S
C930 H920 0.950 . S
C930 C931 1.386 . S
C930 C932 1.391 . S
C931 C930 1.386 . S
C931 C935 1.393 . S
C932 H921 0.950 . S
C932 C930 1.391 . S
C932 C933 1.400 . S
C933 C927 1.491 1_455 S
C933 C932 1.400 . S
C933 C934 1.398 . S
C934 H922 0.950 . S
C934 C933 1.398 . S
C934 C935 1.391 . S
C935 H923 0.950 . S
C935 C931 1.393 . S
C935 C934 1.391 . S
H936 C944 0.950 . S
H937 C949 0.950 . S
H938 C946 0.950 . S
H939 C948 0.950 . S
H940 C950 0.950 . S
H941 C952 0.950 . S
H942 C954 0.950 . S
H943 C955 0.950 . S
C944 H936 0.950 . S
C944 C945 1.386 . S
C944 C946 1.391 . S
C945 C944 1.386 . S
C945 C949 1.393 . S
C946 H938 0.950 . S
C946 C944 1.391 . S
C946 C947 1.400 . S
C947 C946 1.400 . S
C947 C948 1.398 . S
C947 C953 1.491 . S
C948 H939 0.950 . S
C948 C947 1.398 . S
C948 C949 1.391 . S
C949 H937 0.950 . S
C949 C945 1.393 . S
C949 C948 1.391 . S
C950 H940 0.950 . S
C950 C951 1.386 . S
C950 C952 1.391 . S
C951 C950 1.386 . S
C951 C955 1.393 . S
C952 H941 0.950 . S
C952 C950 1.391 . S
C952 C953 1.400 . S
C953 C947 1.491 . S
C953 C952 1.400 . S
C953 C954 1.398 . S
C954 H942 0.950 . S
C954 C953 1.398 . S
C954 C955 1.391 . S
C955 H943 0.950 . S
C955 C951 1.393 . S
C955 C954 1.391 . S
H956 C964 0.950 . S
H957 C969 0.950 . S
H958 C966 0.950 . S
H959 C968 0.950 . S
H960 C970 0.950 . S
H961 C972 0.950 . S
H962 C974 0.950 . S
H963 C975 0.950 . S
C964 H956 0.950 . S
C964 C965 1.386 . S
C964 C966 1.391 . S
C965 C964 1.386 . S
C965 C969 1.393 . S
C966 H958 0.950 . S
C966 C964 1.391 . S
C966 C967 1.400 . S
C967 C966 1.400 . S
C967 C968 1.398 . S
C967 C973 1.491 1_455 S
C968 H959 0.950 . S
C968 C967 1.398 . S
C968 C969 1.391 . S
C969 H957 0.950 . S
C969 C965 1.393 . S
C969 C968 1.391 . S
C970 H960 0.950 . S
C970 C971 1.386 . S
C970 C972 1.391 . S
C971 C970 1.386 . S
C971 C975 1.393 . S
C972 H961 0.950 . S
C972 C970 1.391 . S
C972 C973 1.400 . S
C973 C967 1.491 1_655 S
C973 C972 1.400 . S
C973 C974 1.398 . S
C974 H962 0.950 . S
C974 C973 1.398 . S
C974 C975 1.391 . S
C975 H963 0.950 . S
C975 C971 1.393 . S
C975 C974 1.391 . S
H976 C984 0.950 . S
H977 C989 0.950 . S
H978 C986 0.950 . S
H979 C988 0.950 . S
H980 C990 0.950 . S
H981 C992 0.950 . S
H982 C994 0.950 . S
H983 C995 0.950 . S
C984 H976 0.950 . S
C984 C985 1.386 . S
C984 C986 1.391 . S
C985 C984 1.386 . S
C985 C989 1.393 . S
C986 H978 0.950 . S
C986 C984 1.391 . S
C986 C987 1.400 . S
C987 C986 1.400 . S
C987 C988 1.398 . S
C987 C993 1.491 1_455 S
C988 H979 0.950 . S
C988 C987 1.398 . S
C988 C989 1.391 . S
C989 H977 0.950 . S
C989 C985 1.393 . S
C989 C988 1.391 . S
C990 H980 0.950 . S
C990 C991 1.386 . S
C990 C992 1.391 . S
C991 C990 1.386 . S
C991 C995 1.393 . S
C992 H981 0.950 . S
C992 C990 1.391 . S
C992 C993 1.400 . S
C993 C987 1.491 1_655 S
C993 C992 1.400 . S
C993 C994 1.398 . S
C994 H982 0.950 . S
C994 C993 1.398 . S
C994 C995 1.391 . S
C995 H983 0.950 . S
C995 C991 1.393 . S
C995 C994 1.391 . S
H996 C1004 0.950 . S
H997 C1009 0.950 . S
H998 C1006 0.950 . S
H999 C1008 0.950 . S
H1000 C1010 0.950 . S
H1001 C1012 0.950 . S
H1002 C1014 0.950 . S
H1003 C1015 0.950 . S
C1004 H996 0.950 . S
C1004 C1005 1.386 . S
C1004 C1006 1.391 . S
C1005 C1004 1.386 . S
C1005 C1009 1.393 . S
C1006 H998 0.950 . S
C1006 C1004 1.391 . S
C1006 C1007 1.400 . S
C1007 C1006 1.400 . S
C1007 C1008 1.398 . S
C1007 C1013 1.491 . S
C1008 H999 0.950 . S
C1008 C1007 1.398 . S
C1008 C1009 1.391 . S
C1009 H997 0.950 . S
C1009 C1005 1.393 . S
C1009 C1008 1.391 . S
C1010 H1000 0.950 . S
C1010 C1011 1.386 . S
C1010 C1012 1.391 . S
C1011 C1010 1.386 . S
C1011 C1015 1.393 . S
C1012 H1001 0.950 . S
C1012 C1010 1.391 . S
C1012 C1013 1.400 . S
C1013 C1007 1.491 . S
C1013 C1012 1.400 . S
C1013 C1014 1.398 . S
C1014 H1002 0.950 . S
C1014 C1013 1.398 . S
C1014 C1015 1.391 . S
C1015 H1003 0.950 . S
C1015 C1011 1.393 . S
C1015 C1014 1.391 . S
H1016 C1024 0.950 . S
H1017 C1029 0.950 . S
H1018 C1026 0.950 . S
H1019 C1028 0.950 . S
H1020 C1030 0.950 . S
H1021 C1032 0.950 . S
H1022 C1034 0.950 . S
H1023 C1035 0.950 . S
C1024 H1016 0.950 . S
C1024 C1025 1.386 . S
C1024 C1026 1.391 . S
C1025 C1024 1.386 . S
C1025 C1029 1.393 . S
C1026 H1018 0.950 . S
C1026 C1024 1.391 . S
C1026 C1027 1.400 . S
C1027 C1026 1.400 . S
C1027 C1028 1.398 . S
C1027 C1033 1.491 1_455 S
C1028 H1019 0.950 . S
C1028 C1027 1.398 . S
C1028 C1029 1.391 . S
C1029 H1017 0.950 . S
C1029 C1025 1.393 . S
C1029 C1028 1.391 . S
C1030 H1020 0.950 . S
C1030 C1031 1.386 . S
C1030 C1032 1.391 . S
C1031 C1030 1.386 . S
C1031 C1035 1.393 . S
C1032 H1021 0.950 . S
C1032 C1030 1.391 . S
C1032 C1033 1.400 . S
C1033 C1027 1.491 1_655 S
C1033 C1032 1.400 . S
C1033 C1034 1.398 . S
C1034 H1022 0.950 . S
C1034 C1033 1.398 . S
C1034 C1035 1.391 . S
C1035 H1023 0.950 . S
C1035 C1031 1.393 . S
C1035 C1034 1.391 . S
H1036 C1044 0.950 . S
H1037 C1049 0.950 . S
H1038 C1046 0.950 . S
H1039 C1048 0.950 . S
H1040 C1050 0.950 . S
H1041 C1052 0.950 . S
H1042 C1054 0.950 . S
H1043 C1055 0.950 . S
C1044 H1036 0.950 . S
C1044 C1045 1.386 . S
C1044 C1046 1.391 . S
C1045 C1044 1.386 . S
C1045 C1049 1.393 . S
C1046 H1038 0.950 . S
C1046 C1044 1.391 . S
C1046 C1047 1.400 . S
C1047 C1046 1.400 . S
C1047 C1048 1.398 . S
C1047 C1053 1.491 . S
C1048 H1039 0.950 . S
C1048 C1047 1.398 . S
C1048 C1049 1.391 . S
C1049 H1037 0.950 . S
C1049 C1045 1.393 . S
C1049 C1048 1.391 . S
C1050 H1040 0.950 . S
C1050 C1051 1.386 . S
C1050 C1052 1.391 . S
C1051 C1050 1.386 . S
C1051 C1055 1.393 . S
C1052 H1041 0.950 . S
C1052 C1050 1.391 . S
C1052 C1053 1.400 . S
C1053 C1047 1.491 . S
C1053 C1052 1.400 . S
C1053 C1054 1.398 . S
C1054 H1042 0.950 . S
C1054 C1053 1.398 . S
C1054 C1055 1.391 . S
C1055 H1043 0.950 . S
C1055 C1051 1.393 . S
C1055 C1054 1.391 . S
H1056 C1064 0.950 . S
H1057 C1069 0.950 . S
H1058 C1066 0.950 . S
H1059 C1068 0.950 . S
H1060 C1070 0.950 . S
H1061 C1072 0.950 . S
H1062 C1074 0.950 . S
H1063 C1075 0.950 . S
C1064 H1056 0.950 . S
C1064 C1065 1.386 . S
C1064 C1066 1.391 . S
C1065 C1064 1.386 . S
C1065 C1069 1.393 . S
C1066 H1058 0.950 . S
C1066 C1064 1.391 . S
C1066 C1067 1.400 . S
C1067 C1066 1.400 . S
C1067 C1068 1.398 . S
C1067 C1073 1.491 . S
C1068 H1059 0.950 . S
C1068 C1067 1.398 . S
C1068 C1069 1.391 . S
C1069 H1057 0.950 . S
C1069 C1065 1.393 . S
C1069 C1068 1.391 . S
C1070 H1060 0.950 . S
C1070 C1071 1.386 . S
C1070 C1072 1.391 . S
C1071 C1070 1.386 . S
C1071 C1075 1.393 . S
C1072 H1061 0.950 . S
C1072 C1070 1.391 . S
C1072 C1073 1.400 . S
C1073 C1067 1.491 . S
C1073 C1072 1.400 . S
C1073 C1074 1.398 . S
C1074 H1062 0.950 . S
C1074 C1073 1.398 . S
C1074 C1075 1.391 . S
C1075 H1063 0.950 . S
C1075 C1071 1.393 . S
C1075 C1074 1.391 . S
H1076 C1084 0.950 . S
H1077 C1089 0.950 . S
H1078 C1086 0.950 . S
H1079 C1088 0.950 . S
H1080 C1090 0.950 . S
H1081 C1092 0.950 . S
H1082 C1094 0.950 . S
H1083 C1095 0.950 . S
C1084 H1076 0.950 . S
C1084 C1085 1.386 . S
C1084 C1086 1.391 . S
C1085 C1084 1.386 . S
C1085 C1089 1.393 . S
C1086 H1078 0.950 . S
C1086 C1084 1.391 . S
C1086 C1087 1.400 . S
C1087 C1086 1.400 . S
C1087 C1088 1.398 . S
C1087 C1093 1.491 . S
C1088 H1079 0.950 . S
C1088 C1087 1.398 . S
C1088 C1089 1.391 . S
C1089 H1077 0.950 . S
C1089 C1085 1.393 . S
C1089 C1088 1.391 . S
C1090 H1080 0.950 . S
C1090 C1091 1.386 . S
C1090 C1092 1.391 . S
C1091 C1090 1.386 . S
C1091 C1095 1.393 . S
C1092 H1081 0.950 . S
C1092 C1090 1.391 . S
C1092 C1093 1.400 . S
C1093 C1087 1.491 . S
C1093 C1092 1.400 . S
C1093 C1094 1.398 . S
C1094 H1082 0.950 . S
C1094 C1093 1.398 . S
C1094 C1095 1.391 . S
C1095 H1083 0.950 . S
C1095 C1091 1.393 . S
C1095 C1094 1.391 . S
H1096 C1104 0.950 . S
H1097 C1109 0.950 . S
H1098 C1106 0.950 . S
H1099 C1108 0.950 . S
H1100 C1110 0.950 . S
H1101 C1112 0.950 . S
H1102 C1114 0.950 . S
H1103 C1115 0.950 . S
C1104 H1096 0.950 . S
C1104 C1105 1.386 . S
C1104 C1106 1.391 . S
C1105 C1104 1.386 . S
C1105 C1109 1.393 . S
C1106 H1098 0.950 . S
C1106 C1104 1.391 . S
C1106 C1107 1.400 . S
C1107 C1106 1.400 . S
C1107 C1108 1.398 . S
C1107 C1113 1.491 . S
C1108 H1099 0.950 . S
C1108 C1107 1.398 . S
C1108 C1109 1.391 . S
C1109 H1097 0.950 . S
C1109 C1105 1.393 . S
C1109 C1108 1.391 . S
C1110 H1100 0.950 . S
C1110 C1111 1.386 . S
C1110 C1112 1.391 . S
C1111 C1110 1.386 . S
C1111 C1115 1.393 . S
C1112 H1101 0.950 . S
C1112 C1110 1.391 . S
C1112 C1113 1.400 . S
C1113 C1107 1.491 . S
C1113 C1112 1.400 . S
C1113 C1114 1.398 . S
C1114 H1102 0.950 . S
C1114 C1113 1.398 . S
C1114 C1115 1.391 . S
C1115 H1103 0.950 . S
C1115 C1111 1.393 . S
C1115 C1114 1.391 . S
H1116 C1124 0.950 . S
H1117 C1129 0.950 . S
H1118 C1126 0.950 . S
H1119 C1128 0.950 . S
H1120 C1130 0.950 . S
H1121 C1132 0.950 . S
H1122 C1134 0.950 . S
H1123 C1135 0.950 . S
C1124 H1116 0.950 . S
C1124 C1125 1.386 . S
C1124 C1126 1.391 . S
C1125 C1124 1.386 . S
C1125 C1129 1.393 . S
C1126 H1118 0.950 . S
C1126 C1124 1.391 . S
C1126 C1127 1.400 . S
C1127 C1126 1.400 . S
C1127 C1128 1.398 . S
C1127 C1133 1.491 . S
C1128 H1119 0.950 . S
C1128 C1127 1.398 . S
C1128 C1129 1.391 . S
C1129 H1117 0.950 . S
C1129 C1125 1.393 . S
C1129 C1128 1.391 . S
C1130 H1120 0.950 . S
C1130 C1131 1.386 . S
C1130 C1132 1.391 . S
C1131 C1130 1.386 . S
C1131 C1135 1.393 . S
C1132 H1121 0.950 . S
C1132 C1130 1.391 . S
C1132 C1133 1.400 . S
C1133 C1127 1.491 . S
C1133 C1132 1.400 . S
C1133 C1134 1.398 . S
C1134 H1122 0.950 . S
C1134 C1133 1.398 . S
C1134 C1135 1.391 . S
C1135 H1123 0.950 . S
C1135 C1131 1.393 . S
C1135 C1134 1.391 . S
H1136 C1144 0.950 . S
H1137 C1149 0.950 . S
H1138 C1146 0.950 . S
H1139 C1148 0.950 . S
H1140 C1150 0.950 . S
H1141 C1152 0.950 . S
H1142 C1154 0.950 . S
H1143 C1155 0.950 . S
C1144 H1136 0.950 . S
C1144 C1145 1.386 . S
C1144 C1146 1.391 . S
C1145 C1144 1.386 . S
C1145 C1149 1.393 . S
C1146 H1138 0.950 . S
C1146 C1144 1.391 . S
C1146 C1147 1.400 . S
C1147 C1146 1.400 . S
C1147 C1148 1.398 . S
C1147 C1153 1.491 . S
C1148 H1139 0.950 . S
C1148 C1147 1.398 . S
C1148 C1149 1.391 . S
C1149 H1137 0.950 . S
C1149 C1145 1.393 . S
C1149 C1148 1.391 . S
C1150 H1140 0.950 . S
C1150 C1151 1.386 . S
C1150 C1152 1.391 . S
C1151 C1150 1.386 . S
C1151 C1155 1.393 . S
C1152 H1141 0.950 . S
C1152 C1150 1.391 . S
C1152 C1153 1.400 . S
C1153 C1147 1.491 . S
C1153 C1152 1.400 . S
C1153 C1154 1.398 . S
C1154 H1142 0.950 . S
C1154 C1153 1.398 . S
C1154 C1155 1.391 . S
C1155 H1143 0.950 . S
C1155 C1151 1.393 . S
C1155 C1154 1.391 . S
H1156 C1164 0.950 . S
H1157 C1169 0.950 . S
H1158 C1166 0.950 . S
H1159 C1168 0.950 . S
H1160 C1170 0.950 . S
H1161 C1172 0.950 . S
H1162 C1174 0.950 . S
H1163 C1175 0.950 . S
C1164 H1156 0.950 . S
C1164 C1165 1.386 . S
C1164 C1166 1.391 . S
C1165 C1164 1.386 . S
C1165 C1169 1.393 . S
C1166 H1158 0.950 . S
C1166 C1164 1.391 . S
C1166 C1167 1.400 . S
C1167 C1166 1.400 . S
C1167 C1168 1.398 . S
C1167 C1173 1.491 . S
C1168 H1159 0.950 . S
C1168 C1167 1.398 . S
C1168 C1169 1.391 . S
C1169 H1157 0.950 . S
C1169 C1165 1.393 . S
C1169 C1168 1.391 . S
C1170 H1160 0.950 . S
C1170 C1171 1.386 . S
C1170 C1172 1.391 . S
C1171 C1170 1.386 . S
C1171 C1175 1.393 . S
C1172 H1161 0.950 . S
C1172 C1170 1.391 . S
C1172 C1173 1.400 . S
C1173 C1167 1.491 . S
C1173 C1172 1.400 . S
C1173 C1174 1.398 . S
C1174 H1162 0.950 . S
C1174 C1173 1.398 . S
C1174 C1175 1.391 . S
C1175 H1163 0.950 . S
C1175 C1171 1.393 . S
C1175 C1174 1.391 . S
H1176 C1184 0.950 . S
H1177 C1189 0.950 . S
H1178 C1186 0.950 . S
H1179 C1188 0.950 . S
H1180 C1190 0.950 . S
H1181 C1192 0.950 . S
H1182 C1194 0.950 . S
H1183 C1195 0.950 . S
C1184 H1176 0.950 . S
C1184 C1185 1.386 . S
C1184 C1186 1.391 . S
C1185 C1184 1.386 . S
C1185 C1189 1.393 . S
C1186 H1178 0.950 . S
C1186 C1184 1.391 . S
C1186 C1187 1.400 . S
C1187 C1186 1.400 . S
C1187 C1188 1.398 . S
C1187 C1193 1.491 . S
C1188 H1179 0.950 . S
C1188 C1187 1.398 . S
C1188 C1189 1.391 . S
C1189 H1177 0.950 . S
C1189 C1185 1.393 . S
C1189 C1188 1.391 . S
C1190 H1180 0.950 . S
C1190 C1191 1.386 . S
C1190 C1192 1.391 . S
C1191 C1190 1.386 . S
C1191 C1195 1.393 . S
C1192 H1181 0.950 . S
C1192 C1190 1.391 . S
C1192 C1193 1.400 . S
C1193 C1187 1.491 . S
C1193 C1192 1.400 . S
C1193 C1194 1.398 . S
C1194 H1182 0.950 . S
C1194 C1193 1.398 . S
C1194 C1195 1.391 . S
C1195 H1183 0.950 . S
C1195 C1191 1.393 . S
C1195 C1194 1.391 . S
H1196 C1204 0.950 . S
H1197 C1209 0.950 . S
H1198 C1206 0.950 . S
H1199 C1208 0.950 . S
H1200 C1210 0.950 . S
H1201 C1212 0.950 . S
H1202 C1214 0.950 . S
H1203 C1215 0.950 . S
C1204 H1196 0.950 . S
C1204 C1205 1.386 . S
C1204 C1206 1.391 . S
C1205 C1204 1.386 . S
C1205 C1209 1.393 . S
C1206 H1198 0.950 . S
C1206 C1204 1.391 . S
C1206 C1207 1.400 . S
C1207 C1206 1.400 . S
C1207 C1208 1.398 . S
C1207 C1213 1.491 . S
C1208 H1199 0.950 . S
C1208 C1207 1.398 . S
C1208 C1209 1.391 . S
C1209 H1197 0.950 . S
C1209 C1205 1.393 . S
C1209 C1208 1.391 . S
C1210 H1200 0.950 . S
C1210 C1211 1.386 . S
C1210 C1212 1.391 . S
C1211 C1210 1.386 . S
C1211 C1215 1.393 . S
C1212 H1201 0.950 . S
C1212 C1210 1.391 . S
C1212 C1213 1.400 . S
C1213 C1207 1.491 . S
C1213 C1212 1.400 . S
C1213 C1214 1.398 . S
C1214 H1202 0.950 . S
C1214 C1213 1.398 . S
C1214 C1215 1.391 . S
C1215 H1203 0.950 . S
C1215 C1211 1.393 . S
C1215 C1214 1.391 . S
C585 C4 1.490 . S
C591 C446 1.417 . S
C605 C482 1.420 . S
C611 C40 1.490 . S
C625 C76 1.490 . S
C631 C518 1.416 . S
C645 C554 1.429 . S
C651 C112 1.492 . S
C665 C292 1.492 . S
C671 C158 1.443 . S
C685 C194 1.428 . S
C691 C328 1.490 . S
C705 C364 1.490 . S
C711 C230 1.433 . S
C725 C266 1.436 . S
C731 C400 1.492 . S
C745 C3 1.599 . S
C751 C75 1.599 . S
C765 C39 1.603 . S
C771 C111 1.603 . S
C785 C147 1.479 . S
C791 C219 1.479 . S
C805 C183 1.475 . S
C811 C255 1.475 . S
C825 C363 1.609 . S
C831 C291 1.608 . S
C845 C327 1.607 . S
C851 C399 1.608 . S
C865 C507 1.479 . S
C871 C435 1.479 . S
C885 C471 1.466 . S
C891 C543 1.466 . S
C905 C218 1.474 . S
C911 C2 1.477 . S
C925 C254 1.473 . S
C931 C38 1.477 . S
C945 C74 1.477 . S
C951 C146 1.473 . S
C965 C110 1.469 . S
C971 C182 1.481 . S
C985 C506 1.478 . S
C991 C290 1.474 . S
C1005 C326 1.474 . S
C1011 C542 1.472 . S
C1025 C434 1.480 . S
C1031 C362 1.466 . S
C1045 C398 1.468 . S
C1051 C470 1.481 . S
C1065 C14 1.636 . S
C1071 C122 1.631 . S
C1085 C86 1.649 . S
C1091 C50 1.627 . S
C1105 C148 1.255 . S
C1111 C256 1.255 . S
C1125 C184 1.254 . S
C1131 C220 1.254 . S
C1145 C410 1.647 . S
C1151 C302 1.637 . S
C1165 C338 1.626 . S
C1171 C374 1.649 . S
C1185 C544 1.255 . S
C1191 C436 1.255 . S
C1205 C472 1.255 . S
C1211 C508 1.255 . S
