# Generated by pormake.
# Topology lcy-e, (6)-cn, num edge types: 1
# Building blocks:
#     Node 0, Type 0, BuildingBlock: UKALOJ_clean_sbu_0, # of connection points: 6
#     Node 1, Type 0, BuildingBlock: UKALOJ_clean_sbu_0, # of connection points: 6
#     Node 2, Type 0, BuildingBlock: UKALOJ_clean_sbu_0, # of connection points: 6
#     Node 3, Type 0, BuildingBlock: UKALOJ_clean_sbu_0, # of connection points: 6
#     Node 4, Type 0, BuildingBlock: UKALOJ_clean_sbu_0, # of connection points: 6
#     Node 5, Type 0, BuildingBlock: UKALOJ_clean_sbu_0, # of connection points: 6
#     Node 6, Type 0, BuildingBlock: UKALOJ_clean_sbu_0, # of connection points: 6
#     Node 7, Type 0, BuildingBlock: UKALOJ_clean_sbu_0, # of connection points: 6
#     Node 8, Type 0, BuildingBlock: UKALOJ_clean_sbu_0, # of connection points: 6
#     Node 9, Type 0, BuildingBlock: UKALOJ_clean_sbu_0, # of connection points: 6
#     Node 10, Type 0, BuildingBlock: UKALOJ_clean_sbu_0, # of connection points: 6
#     Node 11, Type 0, BuildingBlock: UKALOJ_clean_sbu_0, # of connection points: 6
#     Edge 12, Type (0, 0), BuildingBlock: UVAHIK_clean_linker_0, # of connection points: 2
#     Edge 13, Type (0, 0), BuildingBlock: UVAHIK_clean_linker_0, # of connection points: 2
#     Edge 14, Type (0, 0), BuildingBlock: UVAHIK_clean_linker_0, # of connection points: 2
#     Edge 15, Type (0, 0), BuildingBlock: UVAHIK_clean_linker_0, # of connection points: 2
#     Edge 16, Type (0, 0), BuildingBlock: UVAHIK_clean_linker_0, # of connection points: 2
#     Edge 17, Type (0, 0), BuildingBlock: UVAHIK_clean_linker_0, # of connection points: 2
#     Edge 18, Type (0, 0), BuildingBlock: UVAHIK_clean_linker_0, # of connection points: 2
#     Edge 19, Type (0, 0), BuildingBlock: UVAHIK_clean_linker_0, # of connection points: 2
#     Edge 20, Type (0, 0), BuildingBlock: UVAHIK_clean_linker_0, # of connection points: 2
#     Edge 21, Type (0, 0), BuildingBlock: UVAHIK_clean_linker_0, # of connection points: 2
#     Edge 22, Type (0, 0), BuildingBlock: UVAHIK_clean_linker_0, # of connection points: 2
#     Edge 23, Type (0, 0), BuildingBlock: UVAHIK_clean_linker_0, # of connection points: 2
#     Edge 24, Type (0, 0), BuildingBlock: UVAHIK_clean_linker_0, # of connection points: 2
#     Edge 25, Type (0, 0), BuildingBlock: UVAHIK_clean_linker_0, # of connection points: 2
#     Edge 26, Type (0, 0), BuildingBlock: UVAHIK_clean_linker_0, # of connection points: 2
#     Edge 27, Type (0, 0), BuildingBlock: UVAHIK_clean_linker_0, # of connection points: 2
#     Edge 28, Type (0, 0), BuildingBlock: UVAHIK_clean_linker_0, # of connection points: 2
#     Edge 29, Type (0, 0), BuildingBlock: UVAHIK_clean_linker_0, # of connection points: 2
#     Edge 30, Type (0, 0), BuildingBlock: UVAHIK_clean_linker_0, # of connection points: 2
#     Edge 31, Type (0, 0), BuildingBlock: UVAHIK_clean_linker_0, # of connection points: 2
#     Edge 32, Type (0, 0), BuildingBlock: UVAHIK_clean_linker_0, # of connection points: 2
#     Edge 33, Type (0, 0), BuildingBlock: UVAHIK_clean_linker_0, # of connection points: 2
#     Edge 34, Type (0, 0), BuildingBlock: UVAHIK_clean_linker_0, # of connection points: 2
#     Edge 35, Type (0, 0), BuildingBlock: UVAHIK_clean_linker_0, # of connection points: 2
#     Edge 36, Type (0, 0), BuildingBlock: UVAHIK_clean_linker_0, # of connection points: 2
#     Edge 37, Type (0, 0), BuildingBlock: UVAHIK_clean_linker_0, # of connection points: 2
#     Edge 38, Type (0, 0), BuildingBlock: UVAHIK_clean_linker_0, # of connection points: 2
#     Edge 39, Type (0, 0), BuildingBlock: UVAHIK_clean_linker_0, # of connection points: 2
#     Edge 40, Type (0, 0), BuildingBlock: UVAHIK_clean_linker_0, # of connection points: 2
#     Edge 41, Type (0, 0), BuildingBlock: UVAHIK_clean_linker_0, # of connection points: 2
#     Edge 42, Type (0, 0), BuildingBlock: UVAHIK_clean_linker_0, # of connection points: 2
#     Edge 43, Type (0, 0), BuildingBlock: UVAHIK_clean_linker_0, # of connection points: 2
#     Edge 44, Type (0, 0), BuildingBlock: UVAHIK_clean_linker_0, # of connection points: 2
#     Edge 45, Type (0, 0), BuildingBlock: UVAHIK_clean_linker_0, # of connection points: 2
#     Edge 46, Type (0, 0), BuildingBlock: UVAHIK_clean_linker_0, # of connection points: 2
#     Edge 47, Type (0, 0), BuildingBlock: UVAHIK_clean_linker_0, # of connection points: 2
# Relax obj value: 0.288
# Max RMSD: 0.288
# Mean RMSD: 0.288
data_MOF--net-lcy-e--node1-UKALOJ_clean_sbu_0--edge1-UVAHIK_clean_linker_0
_symmetry_space_group_name_H-M    P1
_symmetry_Int_Tables_number       1
_symmetry_cell_setting            triclinic
loop_
_symmetry_equiv_pos_as_xyz
'x, y, z'
_cell_length_a     48.929723
_cell_length_b     48.938685
_cell_length_c     48.875764
_cell_angle_alpha  90.078487
_cell_angle_beta   90.052051
_cell_angle_gamma 90.034208
loop_
_atom_site_label
_atom_site_type_symbol
_atom_site_fract_x
_atom_site_fract_y
_atom_site_fract_z
_atom_type_partial_charge
Zn0 Zn 0.11089 0.21939 0.44102 0.0
O1 O 0.14156 0.24867 0.44344 0.0
C2 C 0.14824 0.18297 0.40854 0.0
Zn3 Zn 0.13672 0.19224 0.46654 0.0
C4 C 0.16313 0.2459 0.45753 0.0
O5 O 0.16728 0.22356 0.47024 0.0
C6 C 0.08328 0.16723 0.44945 0.0
O7 O 0.11795 0.20825 0.50104 0.0
O8 O 0.0926 0.23654 0.47723 0.0
N9 N 0.15928 0.16627 0.49004 0.0
C10 C 0.15194 0.15082 0.51158 0.0
C11 C 0.19217 0.13866 0.50015 0.0
N12 N 0.18438 0.15885 0.48308 0.0
N13 N 0.17228 0.13362 0.51846 0.0
C14 C 0.09436 0.25636 0.39269 0.0
C15 C 0.05348 0.26784 0.40247 0.0
N16 N 0.08814 0.24455 0.41675 0.0
N17 N 0.06272 0.25167 0.42283 0.0
N18 N 0.07286 0.2707 0.38316 0.0
H19 H 0.12674 0.27521 0.36946 0.0
H20 H 0.12158 0.23946 0.36299 0.0
H21 H 0.13833 0.2503 0.39385 0.0
C22 C 0.12191 0.25532 0.3792 0.0
C23 C 0.12417 0.1508 0.5247 0.0
H24 H 0.10846 0.16027 0.5116 0.0
H25 H 0.12531 0.16238 0.5442 0.0
H26 H 0.11767 0.12964 0.5296 0.0
O27 O 0.10545 0.16135 0.46171 0.0
O28 O 0.08009 0.19077 0.43926 0.0
C29 C 0.10021 0.22708 0.50028 0.0
O30 O 0.12962 0.20084 0.40535 0.0
O31 O 0.15563 0.17653 0.43248 0.0
Zn32 Zn 0.01526 0.86917 0.68061 0.0
O33 O 0.98474 0.89455 0.69607 0.0
C34 C 0.04879 0.919 0.66801 0.0
Zn35 Zn 0.04321 0.88157 0.71389 0.0
C36 C 0.9878 0.90657 0.71889 0.0
O37 O 0.01044 0.90447 0.7316 0.0
C38 C 0.06939 0.84348 0.67438 0.0
O39 O 0.03013 0.84766 0.73561 0.0
O40 O -0.00064 0.83633 0.70496 0.0
N41 N 0.06846 0.89256 0.74514 0.0
C42 C 0.08956 0.87911 0.75657 0.0
C43 C 0.08832 0.91879 0.77461 0.0
N44 N 0.06761 0.91717 0.75645 0.0
N45 N 0.10249 0.89523 0.77482 0.0
C46 C 0.9819 0.87297 0.62743 0.0
C47 C 0.9756 0.83109 0.61713 0.0
N48 N 0.9915 0.85794 0.64837 0.0
N49 N 0.98742 0.83191 0.64205 0.0
N50 N 0.97224 0.8566 0.60743 0.0
H51 H 0.96282 0.91073 0.61521 0.0
H52 H -0.00054 0.91173 0.61695 0.0
H53 H 0.97982 0.91203 0.648 0.0
C54 C 0.98085 0.90362 0.62701 0.0
C55 C 0.09684 0.84987 0.75086 0.0
H56 H 0.10543 0.84008 0.76944 0.0
H57 H 0.11257 0.84913 0.73458 0.0
H58 H 0.07887 0.83803 0.74393 0.0
O59 O 0.07533 0.85823 0.69498 0.0
O60 O 0.04521 0.84375 0.66522 0.0
C61 C 0.0108 0.83215 0.72799 0.0
O62 O 0.03233 0.90202 0.6572 0.0
O63 O 0.05608 0.91577 0.69264 0.0
Zn64 Zn 0.37063 0.80029 0.97472 0.0
O65 O 0.40356 0.78781 -0.00141 0.0
C66 C 0.41042 0.82452 0.93481 0.0
Zn67 Zn 0.38389 0.7717 0.94226 0.0
C68 C 0.41867 0.7678 0.99198 0.0
O69 O 0.4151 0.75602 0.96897 0.0
C70 C 0.33496 0.80474 0.92671 0.0
O71 O 0.35692 0.74316 0.95851 0.0
O72 O 0.34625 0.76931 0.9935 0.0
N73 N 0.39481 0.74536 0.91174 0.0
C74 C 0.37948 0.73434 0.89165 0.0
C75 C 0.4211 0.72554 0.88233 0.0
N76 N 0.42068 0.73973 0.90602 0.0
N77 N 0.39548 0.72218 0.87282 0.0
C78 C 0.37251 0.85091 0.01198 0.0
C79 C 0.33084 0.85544 0.02377 0.0
N80 N 0.35904 0.82859 0.00308 0.0
N81 N 0.33318 0.83131 0.01063 0.0
N82 N 0.35519 0.86826 0.02456 0.0
H83 H 0.41386 0.83571 0.00822 0.0
H84 H 0.41054 0.8672 0.02715 0.0
H85 H 0.40725 0.8671 0.99063 0.0
C86 C 0.40277 0.85533 0.00941 0.0
C87 C 0.34881 0.73453 0.89078 0.0
H88 H 0.33996 0.73647 0.91148 0.0
H89 H 0.34107 0.7155 0.88111 0.0
H90 H 0.34172 0.75201 0.87826 0.0
O91 O 0.35233 0.78821 0.91676 0.0
O92 O 0.33746 0.8124 0.95131 0.0
C93 C 0.34403 0.7467 0.98074 0.0
O94 O 0.39494 0.83047 0.95479 0.0
O95 O 0.41097 0.80017 0.92603 0.0
Zn96 Zn 0.46512 0.14252 0.19609 0.0
O97 O 0.49328 0.11194 0.20332 0.0
C98 C 0.43129 0.10229 0.1644 0.0
Zn99 Zn 0.4366 0.11843 0.22193 0.0
C100 C 0.48979 0.09114 0.21831 0.0
O101 O 0.46693 0.08771 0.23031 0.0
C102 C 0.41308 0.17033 0.19764 0.0
O103 O 0.44989 0.13976 0.25598 0.0
O104 O 0.47966 0.16365 0.23234 0.0
N105 N 0.40779 0.09815 0.2443 0.0
C106 C 0.38585 0.10832 0.25742 0.0
C107 C 0.37943 0.06548 0.25308 0.0
N108 N 0.40393 0.07145 0.24189 0.0
N109 N 0.3677 0.08837 0.26284 0.0
C110 C 0.50565 0.15321 0.14908 0.0
C111 C 0.51587 0.19534 0.1535 0.0
N112 N 0.49276 0.16232 0.17166 0.0
N113 N 0.49924 0.1885 0.17448 0.0
N114 N 0.51996 0.17348 0.1373 0.0
H115 H 0.52486 0.11861 0.1299 0.0
H116 H 0.48977 0.12371 0.12106 0.0
H117 H 0.4985 0.10961 0.15394 0.0
C118 C 0.5046 0.12454 0.13819 0.0
C119 C 0.38173 0.1378 0.26482 0.0
H120 H 0.40135 0.14894 0.26593 0.0
H121 H 0.37111 0.13934 0.28483 0.0
H122 H 0.36852 0.14772 0.24935 0.0
O123 O 0.4071 0.14953 0.21202 0.0
O124 O 0.43725 0.17314 0.18888 0.0
C125 C 0.46872 0.15756 0.25525 0.0
O126 O 0.44911 0.12088 0.16083 0.0
O127 O 0.42339 0.09688 0.1884 0.0
Zn128 Zn 0.60526 0.25567 0.56413 0.0
O129 O 0.63345 0.22784 0.54913 0.0
C130 C 0.65127 0.28903 0.58882 0.0
Zn131 Zn 0.6234 0.28664 0.53631 0.0
C132 C 0.65084 0.23305 0.53067 0.0
O133 O 0.65191 0.25703 0.52059 0.0
C134 C 0.57701 0.30787 0.57073 0.0
O135 O 0.59527 0.2738 0.50723 0.0
O136 O 0.57695 0.24202 0.53306 0.0
N137 N 0.63795 0.31577 0.51021 0.0
C138 C 0.62514 0.33701 0.49827 0.0
C139 C 0.66747 0.34036 0.48853 0.0
N140 N 0.66424 0.31781 0.50405 0.0
N141 N 0.64324 0.35287 0.48488 0.0
C142 C 0.60572 0.21194 0.60963 0.0
C143 C 0.5639 0.21017 0.62164 0.0
N144 N 0.59149 0.22757 0.59192 0.0
N145 N 0.56546 0.22623 0.59928 0.0
N146 N 0.58888 0.20077 0.62838 0.0
H147 H 0.6468 0.22334 0.59616 0.0
H148 H 0.64236 0.1884 0.60558 0.0
H149 H 0.64379 0.21416 0.63162 0.0
C150 C 0.63636 0.20966 0.61063 0.0
C151 C 0.59482 0.3416 0.49853 0.0
H152 H 0.58805 0.35101 0.47902 0.0
H153 H 0.58959 0.35581 0.51539 0.0
H154 H 0.5835 0.32232 0.50166 0.0
O155 O 0.59461 0.31529 0.55308 0.0
O156 O 0.57668 0.28326 0.57869 0.0
C157 C 0.57812 0.2546 0.51023 0.0
O158 O 0.63381 0.27058 0.59429 0.0
O159 O 0.65172 0.2993 0.56507 0.0
Zn160 Zn 0.95588 0.35669 0.78834 0.0
O161 O 0.97195 0.3333 0.75681 0.0
C162 C 0.94432 0.30449 0.81894 0.0
Zn163 Zn 0.98995 0.342 0.81438 0.0
C164 C 0.99441 0.32041 0.75817 0.0
O165 O 0.00782 0.32033 0.78057 0.0
C166 C 0.94966 0.37842 0.84339 0.0
O167 O 0.01116 0.37669 0.80219 0.0
O168 O 0.9794 0.39089 0.77396 0.0
N169 N 0.02125 0.33169 0.84019 0.0
C170 C 0.03488 0.34741 0.85834 0.0
C171 C 0.04626 0.3061 0.86607 0.0
N172 N 0.02848 0.30603 0.84491 0.0
N173 N 0.05081 0.33189 0.87453 0.0
C174 C 0.90341 0.35303 0.75328 0.0
C175 C 0.89341 0.39494 0.74701 0.0
N176 N 0.92355 0.36804 0.76463 0.0
N177 N 0.91737 0.39407 0.76061 0.0
N178 N 0.88411 0.36943 0.74241 0.0
H179 H 0.92441 0.31424 0.75149 0.0
H180 H 0.89256 0.31542 0.73289 0.0
H181 H 0.89249 0.31395 0.76965 0.0
C182 C 0.90333 0.32241 0.75163 0.0
C183 C 0.0307 0.37757 0.86258 0.0
H184 H 0.0142 0.3862 0.84999 0.0
H185 H 0.04993 0.38849 0.85762 0.0
H186 H 0.02608 0.38169 0.88443 0.0
O187 O 0.97061 0.36365 0.84756 0.0
O188 O 0.93986 0.38004 0.81949 0.0
C189 C 0.00292 0.3939 0.78469 0.0
O190 O 0.93331 0.32253 0.80382 0.0
O191 O 0.96911 0.30706 0.82593 0.0
Zn192 Zn 0.87367 0.71855 0.02371 0.0
O193 O 0.83745 0.73831 0.01341 0.0
C194 C 0.84026 0.68185 0.05884 0.0
Zn195 Zn 0.85774 0.6826 0.00131 0.0
C196 C 0.8195 0.72863 -0.00262 0.0
O197 O 0.82262 0.70484 0.9873 0.0
C198 C 0.9121 0.6738 0.02918 0.0
O199 O 0.87839 0.69495 0.96629 0.0
O200 O 0.89211 0.73273 0.9866 0.0
N201 N 0.84423 0.6478 0.98283 0.0
C202 C 0.85855 0.62595 0.97423 0.0
C203 C 0.8166 0.61422 0.97526 0.0
N204 N 0.81813 0.64057 0.98325 0.0
N205 N 0.84177 0.60457 0.96976 0.0
C206 C 0.87375 0.76721 0.06345 0.0
C207 C 0.91611 0.77664 0.06714 0.0
N208 N 0.8871 0.75187 0.04491 0.0
N209 N 0.91341 0.75793 0.04702 0.0
N210 N 0.89148 0.78272 0.07775 0.0
H211 H 0.83428 0.77723 0.04783 0.0
H212 H 0.83682 0.78117 0.08406 0.0
H213 H 0.83458 0.7475 0.06915 0.0
C214 C 0.84321 0.76821 0.0666 0.0
C215 C 0.88882 0.62563 0.96936 0.0
H216 H 0.89655 0.6464 0.9648 0.0
H217 H 0.89382 0.6118 0.95205 0.0
H218 H 0.89946 0.61782 0.9878 0.0
O219 O 0.89314 0.66125 0.01657 0.0
O220 O 0.90963 0.69908 0.03387 0.0
C221 C 0.8909 0.71766 0.96532 0.0
O222 O 0.85539 0.7029 0.06046 0.0
O223 O 0.83694 0.67038 0.03586 0.0
Zn224 Zn 0.55803 0.60013 0.2613 0.0
O225 O 0.54513 0.62711 0.23119 0.0
C226 C 0.57604 0.64859 0.29527 0.0
Zn227 Zn 0.52629 0.61657 0.28906 0.0
C228 C 0.52439 0.64239 0.23392 0.0
O229 O 0.5112 0.64216 0.25642 0.0
C230 C 0.56127 0.57372 0.31522 0.0
O231 O 0.50102 0.58529 0.27556 0.0
O232 O 0.53021 0.56999 0.24502 0.0
N233 N 0.49665 0.63018 0.31499 0.0
C234 C 0.48436 0.61727 0.33596 0.0
C235 C 0.47141 0.65885 0.33712 0.0
N236 N 0.48849 0.656 0.31563 0.0
N237 N 0.4688 0.63485 0.35029 0.0
C238 C 0.61078 0.60018 0.22715 0.0
C239 C 0.61931 0.55773 0.22239 0.0
N240 N 0.58924 0.58638 0.23731 0.0
N241 N 0.59447 0.55999 0.23417 0.0
N242 N 0.63003 0.5827 0.21813 0.0
H243 H 0.59241 0.64044 0.22504 0.0
H244 H 0.62385 0.63659 0.20621 0.0
H245 H 0.62441 0.63881 0.24276 0.0
C246 C 0.61276 0.63073 0.22511 0.0
C247 C 0.48663 0.58728 0.34199 0.0
H248 H 0.4923 0.57542 0.32363 0.0
H249 H 0.46696 0.57937 0.35007 0.0
H250 H 0.50245 0.58404 0.35786 0.0
O251 O 0.54255 0.59085 0.32075 0.0
O252 O 0.57083 0.57283 0.29118 0.0
C253 C 0.50691 0.56865 0.25658 0.0
O254 O 0.58478 0.63068 0.27855 0.0
O255 O 0.55125 0.64794 0.30258 0.0
Zn256 Zn 0.18765 0.49389 0.1488 0.0
O257 O 0.2045 0.51928 0.11931 0.0
C258 C 0.1574 0.46671 0.10333 0.0
Zn259 Zn 0.21033 0.45953 0.13029 0.0
C260 C 0.22289 0.51161 0.10276 0.0
O261 O 0.23101 0.48691 0.10308 0.0
C262 C 0.17361 0.44293 0.17655 0.0
O263 O 0.24143 0.46526 0.15865 0.0
O264 O 0.22227 0.50251 0.17477 0.0
N265 N 0.23036 0.42713 0.11367 0.0
C266 C 0.2384 0.4034 0.12498 0.0
C267 C 0.24791 0.40132 0.08245 0.0
N268 N 0.23629 0.42585 0.08725 0.0
N269 N 0.24908 0.3868 0.10578 0.0
C270 C 0.14874 0.54321 0.15275 0.0
C271 C 0.14442 0.54879 0.19576 0.0
N272 N 0.16617 0.52578 0.16498 0.0
N273 N 0.16368 0.52947 0.19174 0.0
N274 N 0.13509 0.55794 0.17154 0.0
H275 H 0.13936 0.56504 0.11574 0.0
H276 H 0.12274 0.53263 0.11916 0.0
H277 H 0.15839 0.53407 0.11025 0.0
C278 C 0.14225 0.54367 0.12271 0.0
C279 C 0.23726 0.39697 0.15498 0.0
H280 H 0.2551 0.38437 0.16109 0.0
H281 H 0.21847 0.38507 0.15927 0.0
H282 H 0.23696 0.41575 0.16756 0.0
O283 O 0.18861 0.43303 0.15775 0.0
O284 O 0.17086 0.4686 0.17832 0.0
C285 C 0.24225 0.48579 0.17448 0.0
O286 O 0.15381 0.48418 0.12223 0.0
O287 O 0.17986 0.45409 0.10154 0.0
Zn288 Zn 0.72883 0.0422 0.90175 0.0
O289 O 0.75622 0.02811 0.87247 0.0
C290 C 0.70564 0.07675 0.85777 0.0
Zn291 Zn 0.69584 0.0213 0.87912 0.0
C292 C 0.74975 0.01125 0.85386 0.0
O293 O 0.72517 0.00294 0.85202 0.0
C294 C 0.67612 0.05404 0.9273 0.0
O295 O 0.69898 0.98736 0.90475 0.0
O296 O 0.73515 0.00526 0.92447 0.0
N297 N 0.66468 0.00357 0.85793 0.0
C298 C 0.63983 -0.00464 0.86634 0.0
C299 C 0.64135 0.98952 0.82311 0.0
N300 N 0.66565 -0.00011 0.83107 0.0
N301 N 0.62476 0.98687 0.84489 0.0
C302 C 0.78038 0.07671 0.91391 0.0
C303 C 0.78029 0.07878 0.95748 0.0
N304 N 0.75958 0.061 0.9227 0.0
N305 N 0.75968 0.06212 0.9498 0.0
N306 N 0.7938 0.08775 0.93528 0.0
H307 H 0.77081 0.07554 0.87034 0.0
H308 H 0.80654 0.07457 0.87898 0.0
H309 H 0.78801 0.1059 0.882 0.0
C310 C 0.78643 0.08342 0.88456 0.0
C311 C 0.63074 0.99426 0.89564 0.0
H312 H 0.64835 0.9923 0.9097 0.0
H313 H 0.6167 0.97675 0.89895 0.0
H314 H 0.61952 0.01329 0.90069 0.0
O315 O 0.66735 0.04093 0.90657 0.0
O316 O 0.70164 0.05626 0.93093 0.0
C317 C 0.71863 0.98532 0.92158 0.0
O318 O 0.72157 0.07873 0.87823 0.0
O319 O 0.69318 0.05456 0.85315 0.0
Zn320 Zn 0.77101 0.95342 0.35867 0.0
O321 O 0.73987 0.96662 0.33338 0.0
C322 C 0.80279 0.93478 0.30916 0.0
Zn323 Zn 0.79694 0.98549 0.33972 0.0
C324 C 0.74155 0.98607 0.31636 0.0
O325 O 0.76411 -0.00111 0.3137 0.0
C326 C 0.82524 0.95098 0.38244 0.0
O327 O 0.78286 0.01195 0.36967 0.0
O328 O 0.75698 0.98141 0.38969 0.0
N329 N 0.82303 0.01487 0.32548 0.0
C330 C 0.84029 0.03117 0.33954 0.0
C331 C 0.85104 0.03428 0.29741 0.0
N332 N 0.82961 0.01698 0.29927 0.0
N333 N 0.85783 0.04368 0.32241 0.0
C334 C 0.73466 0.90191 0.36125 0.0
C335 C 0.72771 0.8971 0.40403 0.0
N336 N 0.7466 0.92325 0.37392 0.0
N337 N 0.74213 0.92034 0.4005 0.0
N338 N 0.72299 0.88513 0.37967 0.0
H339 H 0.71415 0.88741 0.32499 0.0
H340 H 0.7507 0.88477 0.32434 0.0
H341 H 0.73473 0.91759 0.31987 0.0
C342 C 0.73342 0.89788 0.33084 0.0
C343 C 0.84219 0.03301 0.37023 0.0
H344 H 0.83007 0.01735 0.38086 0.0
H345 H 0.83486 0.05341 0.37685 0.0
H346 H 0.8638 0.03106 0.37686 0.0
O347 O 0.8292 0.97051 0.36579 0.0
O348 O 0.80177 0.94026 0.38401 0.0
C349 C 0.76616 0.00573 0.38843 0.0
O350 O 0.78627 0.92634 0.32738 0.0
O351 O 0.81042 0.95949 0.30948 0.0
Zn352 Zn 0.28402 0.51738 0.62449 0.0
O353 O 0.27058 0.48762 0.59771 0.0
C354 C 0.30803 0.5485 0.57765 0.0
Zn355 Zn 0.25478 0.54608 0.60509 0.0
C356 C 0.25263 0.49125 0.57937 0.0
O357 O 0.24148 0.51468 0.5769 0.0
C358 C 0.28833 0.57067 0.65084 0.0
O359 O 0.22478 0.53381 0.63228 0.0
O360 O 0.25266 0.50537 0.65295 0.0
N361 N 0.22924 0.5741 0.58781 0.0
C362 C 0.21765 0.59631 0.59918 0.0
C363 C 0.21339 0.60026 0.55597 0.0
N364 N 0.22634 0.57642 0.56095 0.0
N365 N 0.20792 0.61312 0.5797 0.0
C366 C 0.33241 0.47757 0.63058 0.0
C367 C 0.334 0.47062 0.6736 0.0
N368 N 0.31096 0.49068 0.64172 0.0
N369 N 0.31183 0.48619 0.66845 0.0
N370 N 0.34728 0.46515 0.65013 0.0
H371 H 0.31978 0.4785 0.58814 0.0
H372 H 0.34835 0.45634 0.5954 0.0
H373 H 0.35302 0.49268 0.59509 0.0
C374 C 0.33854 0.47614 0.60054 0.0
C375 C 0.21556 0.60173 0.62933 0.0
H376 H 0.21663 0.58262 0.64131 0.0
H377 H 0.19608 0.61238 0.63398 0.0
H378 H 0.23247 0.61531 0.63581 0.0
O379 O 0.2698 0.57671 0.63358 0.0
O380 O 0.29756 0.54656 0.65137 0.0
C381 C 0.22902 0.5161 0.65069 0.0
O382 O 0.31455 0.53071 0.59544 0.0
O383 O 0.28405 0.55807 0.57763 0.0
C384 C 0.19928 0.27155 0.4835 0.0
C385 C 0.18085 0.27006 0.4615 0.0
C386 C 0.21134 0.29656 0.49052 0.0
C387 C 0.19431 0.36875 0.48825 0.0
H388 H 0.26812 0.3796 0.51485 0.0
C389 C 0.22921 0.47085 0.53803 0.0
C390 C 0.24547 0.46786 0.56154 0.0
C391 C 0.22359 0.44817 0.52133 0.0
C392 C 0.24737 0.37687 0.50761 0.0
H393 H 0.16263 0.29294 0.42807 0.0
H394 H 0.18361 0.33631 0.44041 0.0
H395 H 0.25569 0.33621 0.49351 0.0
H396 H 0.26821 0.43866 0.58614 0.0
H397 H 0.25789 0.39962 0.55783 0.0
H398 H 0.18551 0.40877 0.5035 0.0
C399 C 0.18836 0.31837 0.45248 0.0
C400 C 0.24034 0.35206 0.49533 0.0
C401 C 0.17645 0.29347 0.4454 0.0
C402 C 0.25577 0.44185 0.56807 0.0
C403 C 0.25009 0.41937 0.55161 0.0
C404 C 0.20125 0.39346 0.5008 0.0
C405 C 0.2051 0.32038 0.47569 0.0
C406 C 0.21361 0.34757 0.48598 0.0
C407 C 0.2341 0.42217 0.52794 0.0
C408 C 0.22769 0.39757 0.51124 0.0
H409 H 0.20305 0.25389 0.49629 0.0
H410 H 0.22416 0.29757 0.50858 0.0
H411 H 0.17343 0.36574 0.48148 0.0
H412 H 0.22108 0.49065 0.53243 0.0
H413 H 0.21125 0.45102 0.50316 0.0
C414 C 0.79328 0.0192 0.82932 0.0
C415 C 0.77126 0.00175 0.83509 0.0
C416 C 0.81569 0.00982 0.81457 0.0
C417 C 0.84119 0.95338 0.77081 0.0
H418 H 0.91138 0.97896 0.79758 0.0
C419 C 0.96345 0.92625 0.7594 0.0
C420 C 0.96429 0.92091 0.73119 0.0
C421 C 0.93977 0.93685 0.77136 0.0
C422 C 0.89201 0.97139 0.78998 0.0
H423 H 0.75475 0.96114 0.82908 0.0
H424 H 0.79455 0.94424 0.80374 0.0
H425 H 0.86971 0.99475 0.81929 0.0
H426 H 0.94151 0.92362 0.69317 0.0
H427 H 0.90066 0.94296 0.71385 0.0
H428 H 0.86367 0.92909 0.74223 0.0
C429 C 0.79425 0.96539 0.81027 0.0
C430 C 0.86802 0.98078 0.80217 0.0
C431 C 0.77148 0.97499 0.82478 0.0
C432 C 0.94141 0.92733 0.71503 0.0
C433 C 0.91788 0.93818 0.72693 0.0
C434 C 0.86525 0.94378 0.75875 0.0
C435 C 0.81691 0.98256 0.80561 0.0
C436 C 0.84229 0.97207 0.79262 0.0
C437 C 0.91657 0.94261 0.75531 0.0
C438 C 0.89096 0.95277 0.76812 0.0
H439 H 0.7934 0.0401 0.83666 0.0
H440 H 0.83232 0.02388 0.81061 0.0
H441 H 0.82175 0.94636 0.76285 0.0
H442 H 0.98068 0.92129 0.77239 0.0
H443 H 0.9394 0.93972 0.79333 0.0
C444 C 0.32309 0.7214 0.02006 0.0
C445 C 0.32809 0.72373 0.99188 0.0
C446 C 0.31109 0.69767 0.03056 0.0
C447 C 0.26927 0.63829 0.01159 0.0
H448 H 0.30426 0.60301 0.07342 0.0
C449 C 0.21891 0.55443 0.07615 0.0
C450 C 0.2349 0.53207 0.08434 0.0
C451 C 0.23062 0.57612 0.06201 0.0
C452 C 0.29451 0.61251 0.05595 0.0
H453 H 0.32339 0.70376 0.95246 0.0
H454 H 0.30214 0.66274 0.97073 0.0
H455 H 0.32279 0.64596 0.05573 0.0
H456 H 0.2754 0.51426 0.08347 0.0
H457 H 0.29621 0.55277 0.05884 0.0
H458 H 0.24083 0.60503 0.01197 0.0
C459 C 0.3076 0.67905 0.98472 0.0
C460 C 0.30484 0.63723 0.04611 0.0
C461 C 0.31985 0.70251 0.97431 0.0
C462 C 0.26266 0.53123 0.0772 0.0
C463 C 0.27454 0.55328 0.06337 0.0
C464 C 0.25879 0.61375 0.02159 0.0
C465 C 0.30356 0.67617 0.01297 0.0
C466 C 0.29224 0.65038 0.0239 0.0
C467 C 0.25865 0.57609 0.05607 0.0
C468 C 0.27124 0.6007 0.04393 0.0
H469 H 0.32938 0.73741 0.03405 0.0
H470 H 0.30792 0.696 0.05243 0.0
H471 H 0.25916 0.64804 0.99446 0.0
H472 H 0.19742 0.55552 0.08135 0.0
H473 H 0.21795 0.59351 0.05682 0.0
C474 C 0.53631 0.07561 0.20546 0.0
C475 C 0.51338 0.07284 0.22262 0.0
C476 C 0.56072 0.0625 0.21167 0.0
C477 C 0.5938 0.00838 0.25022 0.0
H478 H 0.65353 0.06016 0.25741 0.0
C479 C 0.69149 0.98224 0.30889 0.0
C480 C 0.71663 0.99382 0.30115 0.0
C481 C 0.66736 0.98974 0.2959 0.0
C482 C 0.63734 0.04526 0.25493 0.0
H483 H 0.49746 0.05242 0.25854 0.0
H484 H 0.54057 0.02896 0.2693 0.0
H485 H 0.60924 0.07566 0.24091 0.0
H486 H 0.73623 0.02189 0.27311 0.0
H487 H 0.69385 0.03459 0.24961 0.0
H488 H 0.62187 0.97784 0.2638 0.0
C489 C 0.53939 0.04159 0.25115 0.0
C490 C 0.61191 0.0542 0.24567 0.0
C491 C 0.5148 0.05495 0.24502 0.0
C492 C 0.71715 0.01275 0.2796 0.0
C493 C 0.69285 0.02007 0.26627 0.0
C494 C 0.61939 -0.0007 0.25906 0.0
C495 C 0.56276 0.04611 0.23502 0.0
C496 C 0.58984 0.03593 0.24362 0.0
C497 C 0.66762 0.0088 0.27448 0.0
C498 C 0.64136 0.01775 0.26205 0.0
H499 H 0.53582 0.0889 0.18776 0.0
H500 H 0.57834 0.06592 0.19869 0.0
H501 H 0.57714 0.99389 0.24847 0.0
H502 H 0.69021 0.9677 0.32553 0.0
H503 H 0.64839 0.98111 0.30331 0.0
C504 C 0.66557 0.1844 0.53234 0.0
C505 C 0.66796 0.21041 0.52028 0.0
C506 C 0.67887 0.16191 0.52112 0.0
C507 C 0.73446 0.13971 0.4767 0.0
H508 H 0.68742 0.0776 0.4616 0.0
C509 C 0.76611 0.05443 0.40303 0.0
C510 C 0.75722 0.02746 0.40749 0.0
C511 C 0.75711 0.07568 0.41964 0.0
C512 C 0.70102 0.09446 0.46616 0.0
H513 H 0.6874 0.23339 0.48778 0.0
H514 H 0.71112 0.19373 0.46822 0.0
H515 H 0.66898 0.11743 0.48509 0.0
H516 H 0.73243 0.00157 0.43346 0.0
H517 H 0.71704 0.03888 0.46316 0.0
H518 H 0.76661 0.11676 0.4581 0.0
C519 C 0.6987 0.19099 0.48635 0.0
C520 C 0.69039 0.11736 0.47946 0.0
C521 C 0.68513 0.21363 0.49749 0.0
C522 C 0.73953 0.02214 0.42945 0.0
C523 C 0.73064 0.04355 0.44634 0.0
C524 C 0.74521 0.11666 0.46372 0.0
C525 C 0.6951 0.16484 0.49772 0.0
C526 C 0.70691 0.14032 0.48453 0.0
C527 C 0.73916 0.07063 0.44143 0.0
C528 C 0.7285 0.09392 0.45785 0.0
H529 H 0.65275 0.18115 0.5501 0.0
H530 H 0.67611 0.14206 0.53053 0.0
H531 H 0.74768 0.15702 0.48073 0.0
H532 H 0.77966 0.05939 0.38624 0.0
H533 H 0.76367 0.09625 0.41478 0.0
C534 C 0.04619 0.41971 0.79092 0.0
C535 C 0.02225 0.41523 0.7756 0.0
C536 C 0.06749 0.43525 0.78031 0.0
C537 C 0.08891 0.4849 0.72931 0.0
H538 H 0.15534 0.4417 0.72642 0.0
C539 C 0.17912 0.51423 0.66019 0.0
C540 C 0.20592 0.50758 0.66815 0.0
C541 C 0.15681 0.50569 0.67564 0.0
C542 C 0.13725 0.45437 0.72754 0.0
H543 H 0.00091 0.42551 0.73812 0.0
H544 H 0.03843 0.45323 0.71955 0.0
H545 H 0.1152 0.42364 0.7494 0.0
H546 H 0.23041 0.48744 0.69903 0.0
H547 H 0.19137 0.47323 0.72678 0.0
H548 H 0.111 0.5159 0.7079 0.0
C549 C 0.04055 0.44439 0.73975 0.0
C550 C 0.11418 0.4439 0.74055 0.0
C551 C 0.01913 0.42858 0.75035 0.0
C552 C 0.20998 0.49266 0.6923 0.0
C553 C 0.18757 0.48443 0.70808 0.0
C554 C 0.11219 0.49563 0.71666 0.0
C555 C 0.06528 0.44688 0.75425 0.0
C556 C 0.08975 0.45893 0.74131 0.0
C557 C 0.16066 0.4906 0.69976 0.0
C558 C 0.13657 0.48032 0.71525 0.0
H559 H 0.04912 0.41007 0.81062 0.0
H560 H 0.08619 0.43727 0.79205 0.0
H561 H 0.07034 0.49693 0.72987 0.0
H562 H 0.17523 0.52556 0.64156 0.0
H563 H 0.13651 0.51033 0.66815 0.0
C564 C 0.70308 0.93869 0.9353 0.0
C565 C 0.72377 0.95866 0.93477 0.0
C566 C 0.70896 0.91192 0.94324 0.0
C567 C 0.76553 0.86385 0.94257 0.0
H568 H 0.72151 0.82003 0.99183 0.0
C569 C 0.79208 0.75169 0.96123 0.0
C570 C 0.79705 0.74672 0.98904 0.0
C571 C 0.77726 0.77484 0.95331 0.0
C572 C 0.7338 0.83199 0.97783 0.0
H573 H 0.76652 0.96657 0.9434 0.0
H574 H 0.77682 0.91966 0.95715 0.0
H575 H 0.70885 0.86769 0.98294 0.0
H576 H 0.78844 0.76004 0.03039 0.0
H577 H 0.76213 0.80002 0.01667 0.0
H578 H 0.79072 0.8285 0.93771 0.0
C579 C 0.75609 0.92478 0.95128 0.0
C580 C 0.72659 0.8592 0.97278 0.0
C581 C 0.75014 0.95167 0.94368 0.0
C582 C 0.78481 0.76355 0.0088 0.0
C583 C 0.76971 0.78638 0.00094 0.0
C584 C 0.77251 0.83663 0.94733 0.0
C585 C 0.7357 0.90453 0.95047 0.0
C586 C 0.7427 0.8755 0.95549 0.0
C587 C 0.76694 0.793 0.97313 0.0
C588 C 0.75698 0.82051 0.96531 0.0
H589 H 0.68253 0.94351 0.92859 0.0
H590 H 0.69287 0.89672 0.94241 0.0
H591 H 0.77805 0.87584 0.92881 0.0
H592 H 0.80161 0.73913 0.94567 0.0
H593 H 0.77519 0.77939 0.93172 0.0
C594 C 0.46723 0.53916 0.26697 0.0
C595 C 0.48531 0.54981 0.24741 0.0
C596 C 0.44253 0.52742 0.25899 0.0
C597 C 0.39205 0.53507 0.20504 0.0
H598 H 0.3561 0.47471 0.2417 0.0
C599 C 0.27582 0.51809 0.19598 0.0
C600 C 0.26795 0.49128 0.1894 0.0
C601 C 0.30258 0.52356 0.20463 0.0
C602 C 0.36588 0.49156 0.23122 0.0
H603 H 0.49269 0.55513 0.2041 0.0
H604 H 0.44916 0.53443 0.18991 0.0
H605 H 0.40435 0.48392 0.25072 0.0
H606 H 0.28123 0.44899 0.18851 0.0
H607 H 0.32757 0.45849 0.20379 0.0
H608 H 0.35361 0.54274 0.18555 0.0
C609 C 0.45417 0.53528 0.21148 0.0
C610 C 0.39349 0.49685 0.23641 0.0
C611 C 0.47919 0.54678 0.21952 0.0
C612 C 0.28672 0.46989 0.19338 0.0
C613 C 0.31329 0.47532 0.2022 0.0
C614 C 0.36441 0.52987 0.19996 0.0
C615 C 0.43521 0.52637 0.23123 0.0
C616 C 0.40683 0.51878 0.22351 0.0
C617 C 0.32179 0.50229 0.2071 0.0
C618 C 0.35097 0.50818 0.21313 0.0
H619 H 0.4715 0.54136 0.28863 0.0
H620 H 0.42837 0.52094 0.27472 0.0
H621 H 0.40161 0.55237 0.1951 0.0
H622 H 0.26184 0.53498 0.19297 0.0
H623 H 0.30845 0.54452 0.20869 0.0
C624 C 0.46889 0.15813 0.30621 0.0
C625 C 0.47814 0.16957 0.28146 0.0
C626 C 0.47794 0.1682 0.33128 0.0
C627 C 0.50537 0.22819 0.36561 0.0
H628 H 0.53212 0.17618 0.41916 0.0
C629 C 0.56331 0.26196 0.46206 0.0
C630 C 0.56145 0.24647 0.48622 0.0
C631 C 0.55057 0.25333 0.43809 0.0
C632 C 0.52421 0.19096 0.40473 0.0
H633 H 0.50387 0.20097 0.26378 0.0
H634 H 0.51947 0.21905 0.30809 0.0
H635 H 0.51614 0.16002 0.37476 0.0
H636 H 0.54353 0.21032 0.5044 0.0
H637 H 0.52042 0.19545 0.46243 0.0
H638 H 0.51285 0.25912 0.39561 0.0
C639 C 0.50524 0.20209 0.30776 0.0
C640 C 0.51529 0.1817 0.37918 0.0
C641 C 0.49641 0.19172 0.28245 0.0
C642 C 0.54542 0.22266 0.48612 0.0
C643 C 0.53241 0.21405 0.46199 0.0
C644 C 0.51396 0.23744 0.3913 0.0
C645 C 0.49626 0.19018 0.33237 0.0
C646 C 0.50599 0.20023 0.3593 0.0
C647 C 0.53527 0.22906 0.43753 0.0
C648 C 0.5238 0.21898 0.41111 0.0
H649 H 0.45481 0.14105 0.30632 0.0
H650 H 0.47045 0.15885 0.3499 0.0
H651 H 0.49787 0.24285 0.35082 0.0
H652 H 0.57541 0.28049 0.4613 0.0
H653 H 0.55368 0.26526 0.41971 0.0
C654 C 0.06522 0.2532 0.5275 0.0
C655 C 0.08928 0.23762 0.52641 0.0
C656 C 0.05482 0.26185 0.55278 0.0
C657 C 0.07483 0.27543 0.624 0.0
H658 H -0.00135 0.26187 0.64083 0.0
C659 C 0.03084 0.29496 0.73211 0.0
C660 C 0.00499 0.30737 0.73299 0.0
C661 C 0.04115 0.28486 0.70733 0.0
C662 C 0.01991 0.26609 0.63639 0.0
H663 H 0.12167 0.21946 0.55082 0.0
H664 H 0.10372 0.23476 0.5945 0.0
H665 H 0.01642 0.24979 0.59582 0.0
H666 H 0.96942 0.31828 0.70865 0.0
H667 H 0.98751 0.30149 0.6659 0.0
H668 H 0.07832 0.29224 0.66427 0.0
C669 C 0.09285 0.24025 0.57599 0.0
C670 C 0.03003 0.2592 0.61058 0.0
C671 C 0.103 0.23136 0.55092 0.0
C672 C 0.98944 0.30884 0.70881 0.0
C673 C -0.00026 0.29897 0.68419 0.0
C674 C 0.06466 0.2826 0.64972 0.0
C675 C 0.06859 0.2554 0.57723 0.0
C676 C 0.05758 0.26379 0.60415 0.0
C677 C 0.0258 0.28708 0.68301 0.0
C678 C 0.03705 0.27808 0.65622 0.0
H679 H 0.05422 0.25829 0.50895 0.0
H680 H 0.03611 0.27366 0.55323 0.0
H681 H 0.09615 0.27933 0.61948 0.0
H682 H 0.04328 0.29349 0.75039 0.0
H683 H 0.06118 0.27546 0.7072 0.0
C684 C 0.01457 0.80751 0.77223 0.0
C685 C 0.00052 0.81149 0.74747 0.0
C686 C 0.00315 0.79193 0.79307 0.0
C687 C 0.93564 0.76979 0.81784 0.0
H688 H 0.97998 0.73478 0.87355 0.0
C689 C 0.893 0.71576 0.91448 0.0
C690 C 0.90325 0.72629 0.93924 0.0
C691 C 0.90462 0.72331 0.88958 0.0
C692 C 0.96743 0.74451 0.8581 0.0
H693 H 0.96436 0.80045 0.72432 0.0
H694 H 0.94462 0.77225 0.76062 0.0
H695 H 0.00109 0.74935 0.83078 0.0
H696 H 0.93375 0.7528 0.95745 0.0
H697 H 0.95472 0.76546 0.91362 0.0
H698 H 0.9019 0.76426 0.84527 0.0
C699 C 0.96419 0.78197 0.76416 0.0
C700 C 0.97944 0.75292 0.83363 0.0
C701 C 0.97559 0.79789 0.74325 0.0
C702 C 0.92543 0.74448 0.93866 0.0
C703 C 0.93747 0.75157 0.9137 0.0
C704 C 0.92354 0.76082 0.8421 0.0
C705 C 0.97747 0.77952 0.78965 0.0
C706 C 0.96388 0.76644 0.81351 0.0
C707 C 0.92707 0.74107 0.88902 0.0
C708 C 0.93949 0.74877 0.86266 0.0
H709 H 0.03394 0.81753 0.77616 0.0
H710 H 0.01392 0.79097 0.8124 0.0
H711 H 0.92303 0.78043 0.80309 0.0
H712 H 0.87581 0.70179 0.91433 0.0
H713 H 0.89633 0.71499 0.87077 0.0
C714 C 0.534 0.66353 0.18864 0.0
C715 C 0.51565 0.65912 0.21031 0.0
C716 C 0.52559 0.6768 0.16488 0.0
C717 C 0.49861 0.68783 0.11059 0.0
H718 H 0.44864 0.74917 0.1117 0.0
C719 C 0.44323 0.72863 0.0139 0.0
C720 C 0.43744 0.7567 0.01284 0.0
C721 C 0.4556 0.71737 0.03715 0.0
C722 C 0.46289 0.73227 0.111 0.0
H723 H 0.47424 0.66591 0.22438 0.0
H724 H 0.45926 0.68887 0.18248 0.0
H725 H 0.46399 0.72933 0.15467 0.0
H726 H 0.44213 0.79535 0.03408 0.0
H727 H 0.46451 0.77596 0.07403 0.0
H728 H 0.49792 0.69112 0.06692 0.0
C729 C 0.48033 0.68229 0.18407 0.0
C730 C 0.47137 0.72063 0.13568 0.0
C731 C 0.48885 0.66912 0.20807 0.0
C732 C 0.44611 0.77357 0.03445 0.0
C733 C 0.45867 0.76241 0.05749 0.0
C734 C 0.49021 0.69954 0.08591 0.0
C735 C 0.49851 0.68583 0.16201 0.0
C736 C 0.48934 0.69828 0.13579 0.0
C737 C 0.4626 0.73406 0.05961 0.0
C738 C 0.47226 0.72192 0.08579 0.0
H739 H 0.55491 0.65637 0.18983 0.0
H740 H 0.54034 0.6798 0.14865 0.0
H741 H 0.51215 0.67036 0.10987 0.0
H742 H 0.43655 0.71512 -0.00237 0.0
H743 H 0.45825 0.69543 0.03811 0.0
C744 C 0.06454 0.31494 0.36104 0.0
C745 C 0.07168 0.2873 0.35906 0.0
C746 C 0.06877 0.3324 0.33885 0.0
C747 C 0.08823 0.33485 0.26508 0.0
H748 H 0.12783 0.39963 0.28797 0.0
C749 C 0.15944 0.39656 0.19341 0.0
C750 C 0.15869 0.42516 0.19584 0.0
C751 C 0.14489 0.38016 0.21176 0.0
C752 C 0.11646 0.38186 0.28118 0.0
H753 H 0.08559 0.25534 0.33187 0.0
H754 H 0.09376 0.28577 0.29326 0.0
H755 H 0.10662 0.37069 0.32216 0.0
H756 H 0.1416 0.45898 0.21905 0.0
H757 H 0.1163 0.43047 0.25073 0.0
H758 H 0.09897 0.34582 0.22402 0.0
C759 C 0.08497 0.29419 0.31177 0.0
C760 C 0.10415 0.36532 0.3008 0.0
C761 C 0.08062 0.2768 0.33391 0.0
C762 C 0.14286 0.437 0.21671 0.0
C763 C 0.12837 0.42067 0.23495 0.0
C764 C 0.10065 0.35143 0.2454 0.0
C765 C 0.08017 0.32239 0.31437 0.0
C766 C 0.09016 0.34145 0.29304 0.0
C767 C 0.12938 0.39209 0.23284 0.0
C768 C 0.11513 0.37495 0.25332 0.0
H769 H 0.05737 0.3233 0.38026 0.0
H770 H 0.0643 0.35394 0.34127 0.0
H771 H 0.0774 0.3167 0.25845 0.0
H772 H 0.17122 0.38685 0.1774 0.0
H773 H 0.14623 0.35815 0.2098 0.0
C774 C 0.9409 0.8516 0.56843 0.0
C775 C 0.96395 0.86383 0.58025 0.0
C776 C 0.93233 0.85934 0.5423 0.0
C777 C 0.93382 0.91778 0.49669 0.0
H778 H 0.90374 0.86643 0.44423 0.0
C779 C 0.87268 0.9536 0.40209 0.0
C780 C 0.84744 0.94011 0.39966 0.0
C781 C 0.89291 0.94325 0.41952 0.0
C782 C 0.91219 0.88101 0.45863 0.0
H783 H -0.0022 0.89149 0.57321 0.0
H784 H 0.98237 0.90575 0.52791 0.0
H785 H 0.928 0.84939 0.48439 0.0
H786 H 0.82393 0.90479 0.41276 0.0
H787 H 0.8587 0.88719 0.44306 0.0
H788 H 0.91672 0.94937 0.47181 0.0
C789 C 0.97056 0.8907 0.53904 0.0
C790 C 0.92601 0.87125 0.48158 0.0
C791 C 0.97918 0.88281 0.56504 0.0
C792 C 0.8431 0.9158 0.41426 0.0
C793 C 0.86321 0.90546 0.43142 0.0
C794 C 0.91982 0.92755 0.47383 0.0
C795 C 0.94684 0.87933 0.5276 0.0
C796 C 0.93613 0.88953 0.50126 0.0
C797 C 0.88823 0.91915 0.43448 0.0
C798 C 0.90798 0.90922 0.45513 0.0
H799 H 0.92915 0.83665 0.57974 0.0
H800 H 0.91384 0.85038 0.53401 0.0
H801 H 0.94135 0.93232 0.51164 0.0
H802 H 0.87659 0.97234 0.39099 0.0
H803 H 0.91207 0.95418 0.42149 0.0
C804 C 0.29138 0.61842 0.67026 0.0
C805 C 0.3 0.59102 0.66995 0.0
C806 C 0.30318 0.63707 0.68861 0.0
C807 C 0.36449 0.64694 0.73193 0.0
H808 H 0.31706 0.69008 0.77847 0.0
C809 C 0.39716 0.68581 0.83809 0.0
C810 C 0.38773 0.71144 0.84663 0.0
C811 C 0.38826 0.67476 0.81324 0.0
C812 C 0.33065 0.67855 0.76533 0.0
H813 H 0.3279 0.56185 0.68856 0.0
H814 H 0.34807 0.59404 0.72015 0.0
H815 H 0.2976 0.66477 0.74004 0.0
H816 H 0.36381 0.74681 0.83513 0.0
H817 H 0.34791 0.72747 0.79186 0.0
H818 H 0.39742 0.65998 0.75767 0.0
C819 C 0.33252 0.60131 0.70615 0.0
C820 C 0.31949 0.66412 0.7433 0.0
C821 C 0.32071 0.58278 0.68812 0.0
C822 C 0.37043 0.72651 0.82939 0.0
C823 C 0.3615 0.71552 0.80461 0.0
C824 C 0.37564 0.66133 0.75392 0.0
C825 C 0.32397 0.62864 0.70662 0.0
C826 C 0.3362 0.64754 0.7269 0.0
C827 C 0.36996 0.68934 0.79647 0.0
C828 C 0.35873 0.67669 0.77129 0.0
H829 H 0.27568 0.62546 0.65636 0.0
H830 H 0.29624 0.65809 0.68857 0.0
H831 H 0.37792 0.63468 0.71929 0.0
H832 H 0.4107 0.67405 0.85107 0.0
H833 H 0.39499 0.65444 0.80761 0.0
C834 C 0.51934 0.16607 0.08782 0.0
C835 C 0.53401 0.1723 0.11168 0.0
C836 C 0.53305 0.15851 0.06399 0.0
C837 C 0.60125 0.15439 0.03103 0.0
H838 H 0.57248 0.08709 0.00028 0.0
C839 C 0.66819 0.08082 0.96989 0.0
C840 C 0.65743 0.06819 0.94637 0.0
C841 C 0.65151 0.09612 0.98712 0.0
C842 C 0.58053 0.10612 0.00826 0.0
H843 H 0.57411 0.17718 0.12938 0.0
H844 H 0.5985 0.16389 0.08763 0.0
H845 H 0.54646 0.11145 0.03505 0.0
H846 H 0.62051 0.0614 0.92275 0.0
H847 H 0.5911 0.08821 0.95321 0.0
H848 H 0.63569 0.14859 0.00474 0.0
C849 C 0.57641 0.1651 0.08712 0.0
C850 C 0.56562 0.12014 0.02817 0.0
C851 C 0.56259 0.17274 0.11098 0.0
C852 C 0.62937 0.07074 0.9408 0.0
C853 C 0.61257 0.08612 0.95818 0.0
C854 C 0.61615 0.14038 0.01111 0.0
C855 C 0.56172 0.15693 0.06368 0.0
C856 C 0.57608 0.14412 0.04019 0.0
C857 C 0.6236 0.09925 0.98135 0.0
C858 C 0.60626 0.11574 -1e-05 0.0
H859 H 0.49721 0.16567 0.08817 0.0
H860 H 0.52119 0.15282 0.04614 0.0
H861 H 0.60964 0.17302 0.0396 0.0
H862 H 0.68969 0.07915 0.97494 0.0
H863 H 0.66052 0.10538 0.00515 0.0
C864 C 0.61483 0.16629 0.654 0.0
C865 C 0.59681 0.18852 0.65384 0.0
C866 C 0.62734 0.15812 0.67831 0.0
C867 C 0.62415 0.16107 0.75311 0.0
H868 H 0.70248 0.15008 0.74749 0.0
C869 C 0.6865 0.12209 0.845 0.0
C870 C 0.70204 0.09902 0.83817 0.0
C871 C 0.67636 0.13908 0.82428 0.0
C872 C 0.68064 0.15313 0.74942 0.0
H873 H 0.57604 0.21845 0.67889 0.0
H874 H 0.59747 0.20373 0.72183 0.0
H875 H 0.67676 0.16533 0.7076 0.0
H876 H 0.72057 0.07615 0.8052 0.0
H877 H 0.70346 0.10576 0.76919 0.0
H878 H 0.62786 0.14778 0.79466 0.0
C879 C 0.60217 0.19284 0.70311 0.0
C880 C 0.66591 0.16172 0.72657 0.0
C881 C 0.5898 0.20114 0.67868 0.0
C882 C 0.70896 0.09416 0.81082 0.0
C883 C 0.69913 0.11116 0.79024 0.0
C884 C 0.63889 0.15226 0.776 0.0
C885 C 0.62179 0.17189 0.70294 0.0
C886 C 0.63743 0.16505 0.72797 0.0
C887 C 0.68183 0.1332 0.79661 0.0
C888 C 0.6672 0.14746 0.77417 0.0
H889 H 0.62007 0.15601 0.6351 0.0
H890 H 0.64186 0.14143 0.67773 0.0
H891 H 0.60222 0.16355 0.75474 0.0
H892 H 0.68056 0.12581 0.86602 0.0
H893 H 0.66325 0.15604 0.8298 0.0
C894 C 0.11517 0.44273 0.08888 0.0
C895 C 0.13646 0.46089 0.08283 0.0
C896 C 0.10059 0.43018 0.06764 0.0
C897 C 0.08969 0.43054 0.99227 0.0
H898 H 0.08903 0.35163 1e-05 0.0
C899 C 0.08333 0.36144 0.89853 0.0
C900 C 0.06374 0.34059 0.89936 0.0
C901 C 0.09072 0.37522 0.9224 0.0
C902 C 0.0888 0.37364 -0.00234 0.0
H903 H 0.15856 0.48148 0.05062 0.0
H904 H 0.133 0.46012 0.01356 0.0
H905 H 0.10035 0.38029 0.03937 0.0
H906 H 0.03774 0.31637 0.92555 0.0
H907 H 0.05097 0.3402 0.96774 0.0
H908 H 0.0789 0.42388 0.95039 0.0
C909 C 0.12714 0.45561 0.03444 0.0
C910 C 0.09507 0.39008 0.02023 0.0
C911 C 0.14177 0.46792 0.0556 0.0
C912 C 0.05318 0.33221 0.92466 0.0
C913 C 0.06059 0.34597 0.94865 0.0
C914 C 0.08352 0.41413 0.96973 0.0
C915 C 0.1072 0.43573 0.04018 0.0
C916 C 0.09616 0.41869 0.0176 0.0
C917 C 0.07863 0.36832 0.94755 0.0
C918 C 0.08365 0.3855 0.97203 0.0
H919 H 0.11124 0.43668 0.10983 0.0
H920 H 0.08516 0.41513 0.07266 0.0
H921 H 0.08999 0.45252 0.9897 0.0
H922 H 0.0917 0.36804 0.87913 0.0
H923 H 0.10519 0.39193 0.92104 0.0
C924 C 0.8298 0.92737 0.26671 0.0
C925 C 0.81357 0.91644 0.28776 0.0
C926 C 0.84055 0.91055 0.24646 0.0
C927 C 0.82956 0.8453 0.21188 0.0
H928 H 0.90267 0.85859 0.18411 0.0
C929 C 0.87473 0.78095 0.12491 0.0
C930 C 0.88678 0.79577 0.10353 0.0
C931 C 0.8684 0.79375 0.14954 0.0
C932 C 0.88219 0.85475 0.19159 0.0
H933 H 0.79621 0.87917 0.30423 0.0
H934 H 0.81505 0.84957 0.2685 0.0
H935 H 0.88639 0.88393 0.22394 0.0
H936 H 0.90335 0.83474 0.09126 0.0
H937 H 0.89204 0.85765 0.13458 0.0
H938 H 0.82517 0.81648 0.17928 0.0
C939 C 0.81918 0.8713 0.26772 0.0
C940 C 0.87288 0.8692 0.21437 0.0
C941 C 0.80838 0.88821 0.28813 0.0
C942 C 0.8938 0.8232 0.10755 0.0
C943 C 0.88744 0.83612 0.13228 0.0
C944 C 0.8389 0.83082 0.18914 0.0
C945 C 0.83542 0.88235 0.24672 0.0
C946 C 0.84629 0.86497 0.22444 0.0
C947 C 0.87419 0.8216 0.1533 0.0
C948 C 0.86515 0.8357 0.17852 0.0
H949 H 0.83414 0.94906 0.26572 0.0
H950 H 0.8525 0.91977 0.23026 0.0
H951 H 0.80887 0.84185 0.21895 0.0
H952 H 0.86982 0.75952 0.12226 0.0
H953 H 0.85873 0.78192 0.16556 0.0
C954 C 0.31748 0.57527 0.53563 0.0
C955 C 0.32722 0.55784 0.55631 0.0
C956 C 0.33453 0.58381 0.51463 0.0
C957 C 0.4052 0.59499 0.49492 0.0
H958 H 0.37532 0.591 0.42143 0.0
C959 C 0.46801 0.61696 0.3972 0.0
C960 C 0.45459 0.62991 0.37541 0.0
C961 C 0.45361 0.60939 0.42058 0.0
C962 C 0.38381 0.59263 0.44184 0.0
H963 H 0.36283 0.53634 0.57153 0.0
H964 H 0.39301 0.55148 0.53432 0.0
H965 H 0.34881 0.57369 0.45975 0.0
H966 H 0.41642 0.64706 0.36142 0.0
H967 H 0.39095 0.63428 0.40268 0.0
H968 H 0.44017 0.61423 0.47692 0.0
C969 C 0.37197 0.55834 0.53464 0.0
C970 C 0.36872 0.58254 0.46375 0.0
C971 C 0.35472 0.54958 0.55578 0.0
C972 C 0.42695 0.63679 0.37797 0.0
C973 C 0.41247 0.62926 0.4014 0.0
C974 C 0.42034 0.6052 0.47293 0.0
C975 C 0.36181 0.57523 0.5137 0.0
C976 C 0.37911 0.58391 0.49051 0.0
C977 C 0.42553 0.61488 0.42266 0.0
C978 C 0.40965 0.60436 0.4462 0.0
H979 H 0.29646 0.58222 0.5354 0.0
H980 H 0.3263 0.59723 0.49905 0.0
H981 H 0.41354 0.59648 0.51541 0.0
H982 H 0.48957 0.61225 0.39588 0.0
H983 H 0.46426 0.59836 0.43655 0.0
C984 C 0.17552 0.14456 0.39 0.0
C985 C 0.16147 0.16912 0.38523 0.0
C986 C 0.19074 0.13232 0.36937 0.0
C987 C 0.23009 0.15155 0.30967 0.0
H988 H 0.24388 0.07349 0.30712 0.0
C989 C 0.32301 0.10875 0.25306 0.0
C990 C 0.33939 0.09179 0.26939 0.0
C991 C 0.29629 0.11477 0.26081 0.0
C992 C 0.24015 0.09531 0.3075 0.0
H993 H 0.15095 0.19928 0.35461 0.0
H994 H 0.17796 0.17781 0.31815 0.0
H995 H 0.20367 0.09076 0.33116 0.0
H996 H 0.34057 0.06613 0.30522 0.0
H997 H 0.29353 0.07672 0.31922 0.0
H998 H 0.26705 0.15621 0.28691 0.0
C999 C 0.17722 0.16821 0.33808 0.0
C1000 C 0.21715 0.10521 0.32119 0.0
C1001 C 0.16172 0.18045 0.35887 0.0
C1002 C 0.32817 0.0794 0.29258 0.0
C1003 C 0.30133 0.08538 0.30039 0.0
C1004 C 0.25296 0.14164 0.29581 0.0
C1005 C 0.19238 0.14431 0.34336 0.0
C1006 C 0.21252 0.13351 0.32341 0.0
C1007 C 0.28541 0.10374 0.28495 0.0
C1008 C 0.25876 0.11351 0.29548 0.0
H1009 H 0.17547 0.13508 0.41003 0.0
H1010 H 0.20244 0.11421 0.37435 0.0
H1011 H 0.22734 0.17346 0.31122 0.0
H1012 H 0.3312 0.11784 0.23463 0.0
H1013 H 0.28436 0.12858 0.24828 0.0
C1014 C 0.16487 0.11342 0.5636 0.0
C1015 C 0.16979 0.11012 0.53559 0.0
C1016 C 0.15543 0.09148 0.57914 0.0
C1017 C 0.14068 0.01654 0.57725 0.0
H1018 H 0.08214 0.03762 0.62642 0.0
C1019 C 0.06276 0.94006 0.6235 0.0
C1020 C 0.06066 0.94159 0.65212 0.0
C1021 C 0.07679 0.96035 0.60905 0.0
C1022 C 0.09851 0.03148 0.61283 0.0
H1023 H 0.17022 0.08162 0.50186 0.0
H1024 H 0.1531 0.0432 0.52865 0.0
H1025 H 0.10829 0.07276 0.60299 0.0
H1026 H 0.07054 0.96587 0.68798 0.0
H1027 H 0.09436 0.0015 0.66269 0.0
H1028 H 0.13 0.97509 0.58669 0.0
C1029 C 0.15707 0.06238 0.53899 0.0
C1030 C 0.11373 0.05158 0.59961 0.0
C1031 C 0.16692 0.08427 0.52361 0.0
C1032 C 0.0719 0.96415 0.66591 0.0
C1033 C 0.08547 0.98456 0.65148 0.0
C1034 C 0.12516 -0.0036 0.59026 0.0
C1035 C 0.15019 0.06602 0.56671 0.0
C1036 C 0.1351 0.0444 0.58174 0.0
C1037 C 0.0884 0.98264 0.62301 0.0
C1038 C 0.10403 0.00375 0.60821 0.0
H1039 H 0.16689 0.13338 0.573 0.0
H1040 H 0.15104 0.09481 0.6006 0.0
H1041 H 0.15712 0.01028 0.56383 0.0
H1042 H 0.05438 0.92279 0.61242 0.0
H1043 H 0.07865 0.9586 0.58704 0.0
C1044 C 0.1286 0.89511 0.81782 0.0
C1045 C 0.12712 0.88975 0.7897 0.0
C1046 C 0.15202 0.88804 0.83258 0.0
C1047 C 0.22499 0.86925 0.82471 0.0
H1048 H 0.2136 0.83223 0.89387 0.0
C1049 C 0.31048 0.81064 0.88194 0.0
C1050 C 0.31187 0.81508 0.91031 0.0
C1051 C 0.28842 0.82076 0.86683 0.0
C1052 C 0.21711 0.84276 0.8747 0.0
H1053 H 0.14941 0.87514 0.75438 0.0
H1054 H 0.18999 0.86197 0.78009 0.0
H1055 H 0.17443 0.84963 0.86857 0.0
H1056 H 0.29137 0.83371 0.94505 0.0
H1057 H 0.25316 0.8513 0.91873 0.0
H1058 H 0.26773 0.86197 0.8308 0.0
C1059 C 0.17319 0.87148 0.79091 0.0
C1060 C 0.1947 0.85283 0.86028 0.0
C1061 C 0.14983 0.87858 0.77624 0.0
C1062 C 0.2909 0.82986 0.92322 0.0
C1063 C 0.26889 0.83982 0.9082 0.0
C1064 C 0.24743 0.85907 0.83912 0.0
C1065 C 0.17438 0.87571 0.81932 0.0
C1066 C 0.19838 0.86616 0.83512 0.0
C1067 C 0.26737 0.83533 0.87989 0.0
C1068 C 0.24368 0.84574 0.86426 0.0
H1069 H 0.11135 0.90404 0.82842 0.0
H1070 H 0.15254 0.892 0.85438 0.0
H1071 H 0.22849 0.8797 0.80551 0.0
H1072 H 0.32646 0.79954 0.8714 0.0
H1073 H 0.28764 0.81689 0.84502 0.0
C1074 C 0.39605 0.07068 0.14631 0.0
C1075 C 0.41956 0.08644 0.14152 0.0
C1076 C 0.38614 0.05297 0.12642 0.0
C1077 C 0.4112 0.0116 0.07001 0.0
H1078 H 0.33487 0.9902 0.0668 0.0
C1079 C 0.37461 0.91377 0.01513 0.0
C1080 C 0.35974 0.8962 0.03231 0.0
C1081 C 0.37965 0.94072 0.02287 0.0
C1082 C 0.35622 -0.00393 0.06739 0.0
H1083 H 0.45005 0.09738 0.11135 0.0
H1084 H 0.43264 0.06609 0.07619 0.0
H1085 H 0.34757 0.03342 0.08837 0.0
H1086 H 0.33664 0.89343 0.06986 0.0
H1087 H 0.34518 0.94098 0.0835 0.0
H1088 H 0.41979 0.97392 0.04946 0.0
C1089 C 0.42213 0.06735 0.09564 0.0
C1090 C 0.36352 0.02076 0.07969 0.0
C1091 C 0.43206 0.0853 0.1157 0.0
C1092 C 0.34855 0.90653 0.05659 0.0
C1093 C 0.3533 0.93366 0.06422 0.0
C1094 C 0.40384 0.98708 0.05736 0.0
C1095 C 0.39941 0.05052 0.10109 0.0
C1096 C 0.3912 0.0282 0.08224 0.0
C1097 C 0.36928 0.95082 0.04761 0.0
C1098 C 0.3764 0.97864 0.05693 0.0
H1099 H 0.38567 0.0713 0.16588 0.0
H1100 H 0.3689 0.04009 0.13159 0.0
H1101 H 0.4327 0.01654 0.07182 0.0
H1102 H 0.38213 0.90677 0.99555 0.0
H1103 H 0.3916 0.95371 0.00951 0.0
C1104 C 0.84153 0.34245 0.74309 0.0
C1105 C 0.85815 0.36229 0.7307 0.0
C1106 C 0.81638 0.33541 0.73158 0.0
C1107 C 0.76325 0.35988 0.68405 0.0
H1108 H 0.74717 0.28285 0.67426 0.0
C1109 C 0.68797 0.32106 0.60357 0.0
C1110 C 0.6712 0.29851 0.60945 0.0
C1111 C 0.70776 0.32967 0.62214 0.0
C1112 C 0.75107 0.30443 0.67732 0.0
H1113 H 0.86115 0.39131 0.69756 0.0
H1114 H 0.8171 0.379 0.67716 0.0
H1115 H 0.78792 0.29659 0.69958 0.0
H1116 H 0.66164 0.2676 0.63973 0.0
H1117 H 0.69654 0.28274 0.67242 0.0
H1118 H 0.72674 0.36773 0.6613 0.0
C1119 C 0.82353 0.3688 0.69573 0.0
C1120 C 0.77444 0.3123 0.69175 0.0
C1121 C 0.84873 0.37576 0.70723 0.0
C1122 C 0.67431 0.28502 0.63463 0.0
C1123 C 0.69431 0.29361 0.65326 0.0
C1124 C 0.73987 0.35202 0.66969 0.0
C1125 C 0.8072 0.34837 0.70767 0.0
C1126 C 0.78109 0.3401 0.6947 0.0
C1127 C 0.71135 0.31594 0.64708 0.0
C1128 C 0.7339 0.32421 0.66559 0.0
H1129 H 0.84781 0.33263 0.76188 0.0
H1130 H 0.804 0.32 0.74153 0.0
H1131 H 0.76757 0.38146 0.68649 0.0
H1132 H 0.68609 0.33196 0.58438 0.0
H1133 H 0.72083 0.34663 0.61654 0.0
C1134 C 0.9498 0.39863 0.89069 0.0
C1135 C 0.93646 0.39379 0.86569 0.0
C1136 C 0.93771 0.41549 0.91043 0.0
C1137 C 0.87241 0.45072 0.92823 0.0
H1138 H 0.92016 0.50963 0.95129 0.0
C1139 C 0.83652 0.56105 0.94511 0.0
C1140 C 0.84908 0.57652 0.9657 0.0
C1141 C 0.84513 0.53429 0.94005 0.0
C1142 C 0.90659 0.49307 0.94557 0.0
H1143 H 0.89936 0.40125 0.84245 0.0
H1144 H 0.87869 0.43065 0.87635 0.0
H1145 H 0.9397 0.46901 0.93039 0.0
H1146 H 0.87813 0.57563 -0.00088 0.0
H1147 H 0.89367 0.52908 0.98999 0.0
H1148 H 0.83917 0.47569 0.94195 0.0
C1149 C 0.89826 0.42143 0.88104 0.0
C1150 C 0.91782 0.46972 0.93368 0.0
C1151 C 0.91032 0.40483 0.86139 0.0
C1152 C 0.86906 0.56438 0.98234 0.0
C1153 C 0.87772 0.53774 0.9773 0.0
C1154 C 0.86117 0.47417 0.93996 0.0
C1155 C 0.91202 0.42749 0.90552 0.0
C1156 C 0.90076 0.44879 0.92388 0.0
C1157 C 0.86629 0.52265 0.9557 0.0
C1158 C 0.87811 0.49596 0.94782 0.0
H1159 H 0.96991 0.39022 0.89458 0.0
H1160 H 0.94871 0.4197 0.92921 0.0
H1161 H 0.85879 0.43465 0.92135 0.0
H1162 H 0.82083 0.57006 0.93235 0.0
H1163 H 0.83608 0.52319 0.92313 0.0
C1164 C 0.82513 0.68419 0.10802 0.0
C1165 C 0.8266 0.6701 0.083 0.0
C1166 C 0.81038 0.67308 0.12993 0.0
C1167 C 0.77642 0.60874 0.1532 0.0
H1168 H 0.72311 0.65793 0.18497 0.0
C1169 C 0.66838 0.57692 0.18613 0.0
C1170 C 0.65746 0.5888 0.20979 0.0
C1171 C 0.69425 0.58472 0.17687 0.0
C1172 C 0.7382 0.644 0.17671 0.0
H1173 H 0.81498 0.63283 0.06174 0.0
H1174 H 0.78919 0.61401 0.09925 0.0
H1175 H 0.76054 0.67648 0.15794 0.0
H1176 H 0.66593 0.61552 0.24414 0.0
H1177 H 0.7107 0.63001 0.22744 0.0
H1178 H 0.75283 0.57615 0.17048 0.0
C1179 C 0.79955 0.63333 0.10238 0.0
C1180 C 0.75973 0.65463 0.16133 0.0
C1181 C 0.81409 0.64436 0.08066 0.0
C1182 C 0.67344 0.60714 0.22509 0.0
C1183 C 0.69912 0.61515 0.21575 0.0
C1184 C 0.7547 0.5981 0.16829 0.0
C1185 C 0.79713 0.64767 0.12714 0.0
C1186 C 0.77844 0.63704 0.1485 0.0
C1187 C 0.7095 0.60446 0.19125 0.0
C1188 C 0.73491 0.6156 0.17937 0.0
H1189 H 0.83471 0.70401 0.11042 0.0
H1190 H 0.80896 0.68455 0.14884 0.0
H1191 H 0.7909 0.59469 0.14408 0.0
H1192 H 0.65644 0.56247 0.17431 0.0
H1193 H 0.70177 0.57627 0.15782 0.0
C1194 C 0.62293 0.39885 0.48376 0.0
C1195 C 0.63854 0.37835 0.47118 0.0
C1196 C 0.61691 0.42298 0.46984 0.0
C1197 C 0.63727 0.46549 0.41084 0.0
H1198 H 0.56143 0.48857 0.41202 0.0
C1199 C 0.59127 0.5348 0.32852 0.0
C1200 C 0.57192 0.55464 0.33609 0.0
C1201 C 0.60112 0.51615 0.34762 0.0
C1202 C 0.58278 0.48273 0.41186 0.0
H1203 H 0.66153 0.36735 0.43511 0.0
H1204 H 0.65092 0.40958 0.41039 0.0
H1205 H 0.57604 0.45055 0.44062 0.0
H1206 H 0.54838 0.57096 0.36993 0.0
H1207 H 0.56556 0.53808 0.40345 0.0
H1208 H 0.64386 0.49734 0.38163 0.0
C1209 C 0.64327 0.40705 0.43102 0.0
C1210 C 0.59116 0.46092 0.42822 0.0
C1211 C 0.64927 0.38289 0.44501 0.0
C1212 C 0.56298 0.5557 0.36338 0.0
C1213 C 0.57283 0.5369 0.38256 0.0
C1214 C 0.6289 0.48733 0.39451 0.0
C1215 C 0.62662 0.42715 0.44314 0.0
C1216 C 0.61838 0.45175 0.42751 0.0
C1217 C 0.59192 0.51686 0.37481 0.0
C1218 C 0.60144 0.49583 0.39444 0.0
H1219 H 0.61534 0.39618 0.50437 0.0
H1220 H 0.60457 0.43833 0.47995 0.0
H1221 H 0.65848 0.4592 0.41023 0.0
H1222 H 0.59862 0.53336 0.30767 0.0
H1223 H 0.61546 0.5007 0.34087 0.0
C1224 C 0.24509 0.33995 0.12339 0.0
C1225 C 0.26002 0.3599 0.10923 0.0
C1226 C 0.25706 0.3149 0.12979 0.0
C1227 C 0.31738 0.27103 0.1156 0.0
H1228 H 0.30948 0.2504 0.19185 0.0
C1229 C 0.39966 0.21272 0.17312 0.0
C1230 C 0.39197 0.18999 0.18887 0.0
C1231 C 0.37997 0.22994 0.16206 0.0
C1232 C 0.31149 0.25561 0.1704 0.0
H1233 H 0.29812 0.36911 0.089 0.0
H1234 H 0.31949 0.32549 0.10047 0.0
H1235 H 0.28077 0.28652 0.17298 0.0
H1236 H 0.3575 0.16785 0.20585 0.0
H1237 H 0.32288 0.19876 0.18701 0.0
H1238 H 0.34912 0.24105 0.11354 0.0
C1239 C 0.29847 0.32892 0.10649 0.0
C1240 C 0.29503 0.27622 0.15953 0.0
C1241 C 0.2864 0.3539 0.09999 0.0
C1242 C 0.36408 0.18536 0.19406 0.0
C1243 C 0.34428 0.20289 0.18316 0.0
C1244 C 0.33394 0.25061 0.12653 0.0
C1245 C 0.28416 0.30942 0.12208 0.0
C1246 C 0.29839 0.28471 0.13223 0.0
C1247 C 0.35213 0.22499 0.16664 0.0
C1248 C 0.33169 0.24334 0.15422 0.0
H1249 H 0.22439 0.34405 0.13001 0.0
H1250 H 0.24532 0.30009 0.1413 0.0
H1251 H 0.32004 0.2767 0.09435 0.0
H1252 H 0.42095 0.21698 0.16879 0.0
H1253 H 0.38655 0.2472 0.14985 0.0
C1254 C 0.90021 0.28474 0.8352 0.0
C1255 C 0.92826 0.28174 0.83017 0.0
C1256 C 0.88593 0.26449 0.84938 0.0
C1257 C 0.89826 0.20482 0.89516 0.0
H1258 H 0.82227 0.18902 0.87918 0.0
C1259 C 0.83851 0.10637 0.92296 0.0
C1260 C 0.81238 0.11021 0.93398 0.0
C1261 C 0.85414 0.12888 0.91504 0.0
C1262 C 0.84341 0.19353 0.88404 0.0
H1263 H 0.96312 0.25479 0.8344 0.0
H1264 H 0.93802 0.21881 0.85762 0.0
H1265 H 0.84592 0.22425 0.8532 0.0
H1266 H 0.78221 0.13988 0.94648 0.0
H1267 H 0.8094 0.17955 0.93219 0.0
H1268 H 0.89584 0.1728 0.92501 0.0
C1269 C 0.92717 0.23721 0.85191 0.0
C1270 C 0.85697 0.21374 0.86923 0.0
C1271 C 0.94152 0.25767 0.83829 0.0
C1272 C 0.80259 0.13674 0.93846 0.0
C1273 C 0.81795 0.15924 0.93009 0.0
C1274 C 0.8848 0.18422 0.90958 0.0
C1275 C 0.89935 0.24063 0.85827 0.0
C1276 C 0.88464 0.21955 0.87446 0.0
C1277 C 0.84346 0.15539 0.91756 0.0
C1278 C 0.85731 0.17843 0.90406 0.0
H1279 H 0.88961 0.30326 0.82933 0.0
H1280 H 0.86462 0.26801 0.85412 0.0
H1281 H 0.91935 0.20915 0.90027 0.0
H1282 H 0.84602 0.08593 0.919 0.0
H1283 H 0.87368 0.12548 0.9052 0.0
C1284 C 0.11113 0.5985 0.15493 0.0
C1285 C 0.11025 0.57247 0.16672 0.0
C1286 C 0.08756 0.60984 0.14352 0.0
C1287 C 0.02644 0.58727 0.10843 0.0
H1288 H 0.00449 0.66316 0.11343 0.0
C1289 C 0.93334 0.63211 0.04977 0.0
C1290 C 0.93568 0.65928 0.0409 0.0
C1291 C 0.95399 0.62044 0.06579 0.0
C1292 C 0.01058 0.64197 0.11152 0.0
H1293 H 0.08455 0.53811 0.177 0.0
H1294 H 0.04299 0.55791 0.15708 0.0
H1295 H 0.04065 0.64607 0.14316 0.0
H1296 H 0.96211 0.69482 0.03977 0.0
H1297 H -0.0015 0.67419 0.06652 0.0
H1298 H -0.00289 0.5833 0.07615 0.0
C1299 C 0.06178 0.56962 0.15672 0.0
C1300 C 0.03112 0.6322 0.12872 0.0
C1301 C 0.08531 0.55848 0.16838 0.0
C1302 C 0.95968 0.67391 0.04664 0.0
C1303 C 0.98038 0.66219 0.06225 0.0
C1304 C 0.00606 0.59711 0.091 0.0
C1305 C 0.06292 0.59502 0.14343 0.0
C1306 C 0.03943 0.60484 0.12714 0.0
C1307 C 0.97738 0.6357 0.07288 0.0
C1308 C -0.00183 0.62469 0.09208 0.0
H1309 H 0.13042 0.60919 0.15306 0.0
H1310 H 0.08904 0.62935 0.13319 0.0
H1311 H 0.03276 0.56614 0.10654 0.0
H1312 H 0.91492 0.62048 0.04573 0.0
H1313 H 0.95102 0.59998 0.07365 0.0
C1314 C 0.68514 0.85254 0.38521 0.0
C1315 C 0.71116 0.85874 0.37506 0.0
C1316 C 0.67297 0.82741 0.37905 0.0
C1317 C 0.67633 0.77222 0.32769 0.0
H1318 H 0.62893 0.73429 0.37858 0.0
C1319 C 0.6222 0.67067 0.30026 0.0
C1320 C 0.59414 0.67013 0.30633 0.0
C1321 C 0.6388 0.69161 0.3105 0.0
C1322 C 0.6421 0.74471 0.36416 0.0
H1323 H 0.74592 0.84326 0.3526 0.0
H1324 H 0.72496 0.79921 0.34201 0.0
H1325 H 0.65383 0.77484 0.3937 0.0
H1326 H 0.56165 0.69081 0.32845 0.0
H1327 H 0.59052 0.72709 0.34618 0.0
H1328 H 0.66434 0.74225 0.29808 0.0
C1329 C 0.71345 0.81394 0.35388 0.0
C1330 C 0.65628 0.76796 0.37278 0.0
C1331 C 0.72545 0.83908 0.35988 0.0
C1332 C 0.58318 0.69059 0.32331 0.0
C1333 C 0.59975 0.71132 0.33366 0.0
C1334 C 0.66226 0.74891 0.31913 0.0
C1335 C 0.68685 0.808 0.36293 0.0
C1336 C 0.67323 0.78221 0.35451 0.0
C1337 C 0.62767 0.71217 0.32723 0.0
C1338 C 0.64467 0.73519 0.33714 0.0
H1339 H 0.67394 0.86751 0.39707 0.0
H1340 H 0.65236 0.82358 0.38616 0.0
H1341 H 0.6889 0.78294 0.31296 0.0
H1342 H 0.63137 0.65495 0.28769 0.0
H1343 H 0.66035 0.69166 0.30545 0.0
C1344 C 0.55739 0.35511 0.57505 0.0
C1345 C 0.55685 0.32728 0.58202 0.0
C1346 C 0.53765 0.37296 0.58547 0.0
C1347 C 0.48527 0.37963 0.63986 0.0
H1348 H 0.44954 0.42778 0.58811 0.0
C1349 C 0.37828 0.4263 0.6574 0.0
C1350 C 0.37359 0.45267 0.64738 0.0
C1351 C 0.40328 0.41336 0.65244 0.0
C1352 C 0.45959 0.41481 0.60297 0.0
H1353 H 0.53554 0.29648 0.60586 0.0
H1354 H 0.50117 0.32742 0.62363 0.0
H1355 H 0.48902 0.40127 0.57364 0.0
H1356 H 0.39159 0.48732 0.62672 0.0
H1357 H 0.43531 0.46491 0.61804 0.0
H1358 H 0.45532 0.39272 0.669 0.0
C1359 C 0.51696 0.33559 0.61044 0.0
C1360 C 0.48224 0.39965 0.59466 0.0
C1361 C 0.53657 0.3178 0.60003 0.0
C1362 C 0.39463 0.4666 0.63382 0.0
C1363 C 0.41957 0.4538 0.62893 0.0
C1364 C 0.46258 0.3948 0.64818 0.0
C1365 C 0.51714 0.36331 0.60314 0.0
C1366 C 0.49503 0.38155 0.61288 0.0
C1367 C 0.42394 0.42681 0.6376 0.0
C1368 C 0.44926 0.41224 0.62968 0.0
H1369 H 0.57297 0.3631 0.56154 0.0
H1370 H 0.53843 0.39431 0.5797 0.0
H1371 H 0.49498 0.36613 0.65447 0.0
H1372 H 0.36225 0.4154 0.66806 0.0
H1373 H 0.40599 0.39249 0.65926 0.0
C1374 C 0.21699 0.65921 0.5972 0.0
C1375 C 0.19993 0.64108 0.58291 0.0
C1376 C 0.20824 0.68564 0.60309 0.0
C1377 C 0.15711 0.73824 0.58628 0.0
H1378 H 0.16133 0.75548 0.66369 0.0
C1379 C 0.08165 0.80957 0.63855 0.0
C1380 C 0.08976 0.82572 0.66094 0.0
C1381 C 0.09988 0.7916 0.62624 0.0
C1382 C 0.16055 0.75142 0.64191 0.0
H1383 H 0.16154 0.63652 0.5616 0.0
H1384 H 0.14585 0.68311 0.57191 0.0
H1385 H 0.18457 0.7152 0.64612 0.0
H1386 H 0.12383 0.83653 0.68719 0.0
H1387 H 0.15599 0.80486 0.66552 0.0
H1388 H 0.13256 0.77413 0.58217 0.0
C1389 C 0.16597 0.67683 0.57867 0.0
C1390 C 0.17379 0.72826 0.63185 0.0
C1391 C 0.17477 0.65026 0.57287 0.0
C1392 C 0.11689 0.82412 0.67021 0.0
C1393 C 0.13527 0.80601 0.65779 0.0
C1394 C 0.14406 0.76154 0.59629 0.0
C1395 C 0.18235 0.69448 0.59451 0.0
C1396 C 0.1715 0.72101 0.6041 0.0
C1397 C 0.1268 0.78933 0.63587 0.0
C1398 C 0.14485 0.76786 0.62439 0.0
H1399 H 0.23692 0.65268 0.60427 0.0
H1400 H 0.22147 0.69898 0.61485 0.0
H1401 H 0.15542 0.73333 0.56472 0.0
H1402 H 0.06092 0.81029 0.63077 0.0
H1403 H 0.09246 0.77872 0.6098 0.0
C1404 C 0.42401 0.87341 0.92791 0.0
C1405 C 0.42718 0.84564 0.92134 0.0
C1406 C 0.4401 0.89319 0.91507 0.0
C1407 C 0.48582 0.90449 0.85561 0.0
H1408 H 0.52224 0.95562 0.90406 0.0
C1409 C 0.59117 0.95118 0.83418 0.0
C1410 C 0.59724 0.97695 0.84505 0.0
C1411 C 0.56546 0.93956 0.83846 0.0
C1412 C 0.51182 0.94198 0.89005 0.0
H1413 H 0.44917 0.81686 0.89567 0.0
H1414 H 0.47741 0.85122 0.87367 0.0
H1415 H 0.48597 0.92682 0.92178 0.0
H1416 H 0.58096 0.01221 0.86613 0.0
H1417 H 0.53576 0.99213 0.87349 0.0
H1418 H 0.51255 0.91898 0.82413 0.0
C1419 C 0.46229 0.85781 0.88843 0.0
C1420 C 0.49101 0.92542 0.90025 0.0
C1421 C 0.44628 0.83809 0.90127 0.0
C1422 C 0.5767 0.99197 0.85821 0.0
C1423 C 0.55097 0.98049 0.86237 0.0
C1424 C 0.50665 0.92108 0.84538 0.0
C1425 C 0.45954 0.88554 0.89534 0.0
C1426 C 0.47838 0.90594 0.88335 0.0
C1427 C 0.54542 0.95374 0.85348 0.0
C1428 C 0.52039 0.93944 0.86271 0.0
H1429 H 0.40907 0.87992 0.94289 0.0
H1430 H 0.43738 0.91445 0.92061 0.0
H1431 H 0.47606 0.88996 0.842 0.0
H1432 H 0.60686 0.93941 0.82391 0.0
H1433 H 0.56191 0.91883 0.83151 0.0
C1434 C 0.88148 0.08035 0.34697 0.0
C1435 C 0.88263 0.05718 0.33018 0.0
C1436 C 0.90484 0.08944 0.36058 0.0
C1437 C 0.98003 0.08396 0.36434 0.0
H1438 H 0.96735 0.1033 0.4403 0.0
C1439 C 0.06753 0.12116 0.43419 0.0
C1440 C 0.06157 0.14701 0.4451 0.0
C1441 C 0.0465 0.10504 0.42324 0.0
C1442 C 0.97122 0.09781 0.41918 0.0
H1443 H 0.90893 0.02617 0.31297 0.0
H1444 H 0.95016 0.04215 0.33662 0.0
H1445 H 0.92934 0.08762 0.4121 0.0
H1446 H 0.02934 0.17554 0.45521 0.0
H1447 H 0.9927 0.14729 0.43697 0.0
H1448 H 0.02189 0.09477 0.37141 0.0
C1449 C 0.93128 0.05339 0.33925 0.0
C1450 C 0.94944 0.08909 0.40295 0.0
C1451 C 0.90784 0.04435 0.32557 0.0
C1452 C 0.03431 0.15557 0.447 0.0
C1453 C 0.01336 0.13936 0.43658 0.0
C1454 C 0.00188 0.09267 0.38064 0.0
C1455 C 0.92975 0.0754 0.35771 0.0
C1456 C 0.95345 0.0828 0.37516 0.0
C1457 C 0.01933 0.11444 0.42363 0.0
C1458 C -0.00249 0.10035 0.40802 0.0
H1459 H 0.86213 0.09041 0.35071 0.0
H1460 H 0.90318 0.1069 0.37412 0.0
H1461 H 0.98375 0.07922 0.34302 0.0
H1462 H 0.08851 0.11437 0.43225 0.0
H1463 H 0.05158 0.08582 0.41349 0.0
loop_
_geom_bond_atom_site_label_1
_geom_bond_atom_site_label_2
_geom_bond_distance
_geom_bond_site_symmetry_2
_ccdc_geom_bond_type
Zn0 O1 2.055 . S
Zn0 O8 2.046 . S
Zn0 N16 2.036 . S
Zn0 O28 2.053 . S
Zn0 O30 2.066 . S
O1 Zn0 2.055 . S
O1 C4 1.259 . S
C2 O30 1.256 . S
C2 O31 1.244 . S
Zn3 O5 2.046 . S
Zn3 O7 2.055 . S
Zn3 N9 2.036 . S
Zn3 O27 2.066 . S
Zn3 O31 2.053 . S
C4 O1 1.259 . S
C4 O5 1.254 . S
O5 Zn3 2.046 . S
O5 C4 1.254 . S
C6 O27 1.256 . S
C6 O28 1.244 . S
O7 Zn3 2.055 . S
O7 C29 1.259 . S
O8 Zn0 2.046 . S
O8 C29 1.254 . S
N9 Zn3 2.036 . S
N9 C10 1.298 . S
N9 N12 1.398 . S
C10 N9 1.298 . S
C10 N13 1.367 . S
C10 C23 1.481 . S
C11 N12 1.299 . S
C11 N13 1.379 . S
N12 N9 1.398 . S
N12 C11 1.299 . S
N13 C10 1.367 . S
N13 C11 1.379 . S
C14 N16 1.298 . S
C14 N18 1.367 . S
C14 C22 1.481 . S
C15 N17 1.299 . S
C15 N18 1.379 . S
N16 Zn0 2.036 . S
N16 C14 1.298 . S
N16 N17 1.398 . S
N17 C15 1.299 . S
N17 N16 1.398 . S
N18 C14 1.367 . S
N18 C15 1.379 . S
H19 C22 0.980 . S
H20 C22 0.981 . S
H21 C22 0.981 . S
C22 C14 1.481 . S
C22 H19 0.980 . S
C22 H20 0.981 . S
C22 H21 0.981 . S
C23 C10 1.481 . S
C23 H24 0.980 . S
C23 H25 0.981 . S
C23 H26 0.981 . S
H24 C23 0.980 . S
H25 C23 0.981 . S
H26 C23 0.981 . S
O27 Zn3 2.066 . S
O27 C6 1.256 . S
O28 Zn0 2.053 . S
O28 C6 1.244 . S
C29 O7 1.259 . S
C29 O8 1.254 . S
O30 Zn0 2.066 . S
O30 C2 1.256 . S
O31 C2 1.244 . S
O31 Zn3 2.053 . S
Zn32 O33 2.055 1_455 S
Zn32 O40 2.046 1_455 S
Zn32 N48 2.036 1_455 S
Zn32 O60 2.053 . S
Zn32 O62 2.066 . S
O33 Zn32 2.055 1_655 S
O33 C36 1.259 . S
C34 O62 1.256 . S
C34 O63 1.244 . S
Zn35 O37 2.046 . S
Zn35 O39 2.055 . S
Zn35 N41 2.036 . S
Zn35 O59 2.066 . S
Zn35 O63 2.053 . S
C36 O33 1.259 . S
C36 O37 1.254 1_655 S
O37 Zn35 2.046 . S
O37 C36 1.254 1_455 S
C38 O59 1.256 . S
C38 O60 1.244 . S
O39 Zn35 2.055 . S
O39 C61 1.259 . S
O40 Zn32 2.046 1_655 S
O40 C61 1.254 1_655 S
N41 Zn35 2.036 . S
N41 C42 1.298 . S
N41 N44 1.398 . S
C42 N41 1.298 . S
C42 N45 1.367 . S
C42 C55 1.481 . S
C43 N44 1.299 . S
C43 N45 1.379 . S
N44 N41 1.398 . S
N44 C43 1.299 . S
N45 C42 1.367 . S
N45 C43 1.379 . S
C46 N48 1.298 . S
C46 N50 1.367 . S
C46 C54 1.481 . S
C47 N49 1.299 . S
C47 N50 1.379 . S
N48 Zn32 2.036 1_655 S
N48 C46 1.298 . S
N48 N49 1.398 . S
N49 C47 1.299 . S
N49 N48 1.398 . S
N50 C46 1.367 . S
N50 C47 1.379 . S
H51 C54 0.980 . S
H52 C54 0.981 . S
H53 C54 0.981 . S
C54 C46 1.481 . S
C54 H51 0.980 . S
C54 H52 0.981 . S
C54 H53 0.981 . S
C55 C42 1.481 . S
C55 H56 0.980 . S
C55 H57 0.981 . S
C55 H58 0.981 . S
H56 C55 0.980 . S
H57 C55 0.981 . S
H58 C55 0.981 . S
O59 Zn35 2.066 . S
O59 C38 1.256 . S
O60 Zn32 2.053 . S
O60 C38 1.244 . S
C61 O39 1.259 . S
C61 O40 1.254 1_455 S
O62 Zn32 2.066 . S
O62 C34 1.256 . S
O63 C34 1.244 . S
O63 Zn35 2.053 . S
Zn64 O65 2.055 1_556 S
Zn64 O72 2.046 1_556 S
Zn64 N80 2.036 1_556 S
Zn64 O92 2.053 . S
Zn64 O94 2.066 . S
O65 Zn64 2.055 1_554 S
O65 C68 1.259 . S
C66 O94 1.256 . S
C66 O95 1.244 . S
Zn67 O69 2.046 . S
Zn67 O71 2.055 . S
Zn67 N73 2.036 . S
Zn67 O91 2.066 . S
Zn67 O95 2.053 . S
C68 O65 1.259 . S
C68 O69 1.254 1_554 S
O69 Zn67 2.046 . S
O69 C68 1.254 1_556 S
C70 O91 1.256 . S
C70 O92 1.244 . S
O71 Zn67 2.055 . S
O71 C93 1.259 . S
O72 Zn64 2.046 1_554 S
O72 C93 1.254 1_554 S
N73 Zn67 2.036 . S
N73 C74 1.298 . S
N73 N76 1.398 . S
C74 N73 1.298 . S
C74 N77 1.367 . S
C74 C87 1.481 . S
C75 N76 1.299 . S
C75 N77 1.379 . S
N76 N73 1.398 . S
N76 C75 1.299 . S
N77 C74 1.367 . S
N77 C75 1.379 . S
C78 N80 1.298 . S
C78 N82 1.367 . S
C78 C86 1.481 . S
C79 N81 1.299 . S
C79 N82 1.379 . S
N80 Zn64 2.036 1_554 S
N80 C78 1.298 . S
N80 N81 1.398 . S
N81 C79 1.299 . S
N81 N80 1.398 . S
N82 C78 1.367 . S
N82 C79 1.379 . S
H83 C86 0.980 . S
H84 C86 0.981 . S
H85 C86 0.981 . S
C86 C78 1.481 . S
C86 H83 0.980 . S
C86 H84 0.981 . S
C86 H85 0.981 . S
C87 C74 1.481 . S
C87 H88 0.980 . S
C87 H89 0.981 . S
C87 H90 0.981 . S
H88 C87 0.980 . S
H89 C87 0.981 . S
H90 C87 0.981 . S
O91 Zn67 2.066 . S
O91 C70 1.256 . S
O92 Zn64 2.053 . S
O92 C70 1.244 . S
C93 O71 1.259 . S
C93 O72 1.254 1_556 S
O94 Zn64 2.066 . S
O94 C66 1.256 . S
O95 C66 1.244 . S
O95 Zn67 2.053 . S
Zn96 O97 2.055 . S
Zn96 O104 2.046 . S
Zn96 N112 2.036 . S
Zn96 O124 2.053 . S
Zn96 O126 2.066 . S
O97 Zn96 2.055 . S
O97 C100 1.259 . S
C98 O126 1.256 . S
C98 O127 1.244 . S
Zn99 O101 2.046 . S
Zn99 O103 2.055 . S
Zn99 N105 2.036 . S
Zn99 O123 2.066 . S
Zn99 O127 2.053 . S
C100 O97 1.259 . S
C100 O101 1.254 . S
O101 Zn99 2.046 . S
O101 C100 1.254 . S
C102 O123 1.256 . S
C102 O124 1.244 . S
O103 Zn99 2.055 . S
O103 C125 1.259 . S
O104 Zn96 2.046 . S
O104 C125 1.254 . S
N105 Zn99 2.036 . S
N105 C106 1.298 . S
N105 N108 1.398 . S
C106 N105 1.298 . S
C106 N109 1.367 . S
C106 C119 1.481 . S
C107 N108 1.299 . S
C107 N109 1.379 . S
N108 N105 1.398 . S
N108 C107 1.299 . S
N109 C106 1.367 . S
N109 C107 1.379 . S
C110 N112 1.298 . S
C110 N114 1.367 . S
C110 C118 1.481 . S
C111 N113 1.299 . S
C111 N114 1.379 . S
N112 Zn96 2.036 . S
N112 C110 1.298 . S
N112 N113 1.398 . S
N113 C111 1.299 . S
N113 N112 1.398 . S
N114 C110 1.367 . S
N114 C111 1.379 . S
H115 C118 0.980 . S
H116 C118 0.981 . S
H117 C118 0.981 . S
C118 C110 1.481 . S
C118 H115 0.980 . S
C118 H116 0.981 . S
C118 H117 0.981 . S
C119 C106 1.481 . S
C119 H120 0.980 . S
C119 H121 0.981 . S
C119 H122 0.981 . S
H120 C119 0.980 . S
H121 C119 0.981 . S
H122 C119 0.981 . S
O123 Zn99 2.066 . S
O123 C102 1.256 . S
O124 Zn96 2.053 . S
O124 C102 1.244 . S
C125 O103 1.259 . S
C125 O104 1.254 . S
O126 Zn96 2.066 . S
O126 C98 1.256 . S
O127 C98 1.244 . S
O127 Zn99 2.053 . S
Zn128 O129 2.055 . S
Zn128 O136 2.046 . S
Zn128 N144 2.036 . S
Zn128 O156 2.053 . S
Zn128 O158 2.066 . S
O129 Zn128 2.055 . S
O129 C132 1.259 . S
C130 O158 1.256 . S
C130 O159 1.244 . S
Zn131 O133 2.046 . S
Zn131 O135 2.055 . S
Zn131 N137 2.036 . S
Zn131 O155 2.066 . S
Zn131 O159 2.053 . S
C132 O129 1.259 . S
C132 O133 1.254 . S
O133 Zn131 2.046 . S
O133 C132 1.254 . S
C134 O155 1.256 . S
C134 O156 1.244 . S
O135 Zn131 2.055 . S
O135 C157 1.259 . S
O136 Zn128 2.046 . S
O136 C157 1.254 . S
N137 Zn131 2.036 . S
N137 C138 1.298 . S
N137 N140 1.398 . S
C138 N137 1.298 . S
C138 N141 1.367 . S
C138 C151 1.481 . S
C139 N140 1.299 . S
C139 N141 1.379 . S
N140 N137 1.398 . S
N140 C139 1.299 . S
N141 C138 1.367 . S
N141 C139 1.379 . S
C142 N144 1.298 . S
C142 N146 1.367 . S
C142 C150 1.481 . S
C143 N145 1.299 . S
C143 N146 1.379 . S
N144 Zn128 2.036 . S
N144 C142 1.298 . S
N144 N145 1.398 . S
N145 C143 1.299 . S
N145 N144 1.398 . S
N146 C142 1.367 . S
N146 C143 1.379 . S
H147 C150 0.980 . S
H148 C150 0.981 . S
H149 C150 0.981 . S
C150 C142 1.481 . S
C150 H147 0.980 . S
C150 H148 0.981 . S
C150 H149 0.981 . S
C151 C138 1.481 . S
C151 H152 0.980 . S
C151 H153 0.981 . S
C151 H154 0.981 . S
H152 C151 0.980 . S
H153 C151 0.981 . S
H154 C151 0.981 . S
O155 Zn131 2.066 . S
O155 C134 1.256 . S
O156 Zn128 2.053 . S
O156 C134 1.244 . S
C157 O135 1.259 . S
C157 O136 1.254 . S
O158 Zn128 2.066 . S
O158 C130 1.256 . S
O159 C130 1.244 . S
O159 Zn131 2.053 . S
Zn160 O161 2.055 . S
Zn160 O168 2.046 . S
Zn160 N176 2.036 . S
Zn160 O188 2.053 . S
Zn160 O190 2.066 . S
O161 Zn160 2.055 . S
O161 C164 1.259 . S
C162 O190 1.256 . S
C162 O191 1.244 . S
Zn163 O165 2.046 1_655 S
Zn163 O167 2.055 1_655 S
Zn163 N169 2.036 1_655 S
Zn163 O187 2.066 . S
Zn163 O191 2.053 . S
C164 O161 1.259 . S
C164 O165 1.254 1_655 S
O165 Zn163 2.046 1_455 S
O165 C164 1.254 1_455 S
C166 O187 1.256 . S
C166 O188 1.244 . S
O167 Zn163 2.055 1_455 S
O167 C189 1.259 . S
O168 Zn160 2.046 . S
O168 C189 1.254 1_655 S
N169 Zn163 2.036 1_455 S
N169 C170 1.298 . S
N169 N172 1.398 . S
C170 N169 1.298 . S
C170 N173 1.367 . S
C170 C183 1.481 . S
C171 N172 1.299 . S
C171 N173 1.379 . S
N172 N169 1.398 . S
N172 C171 1.299 . S
N173 C170 1.367 . S
N173 C171 1.379 . S
C174 N176 1.298 . S
C174 N178 1.367 . S
C174 C182 1.481 . S
C175 N177 1.299 . S
C175 N178 1.379 . S
N176 Zn160 2.036 . S
N176 C174 1.298 . S
N176 N177 1.398 . S
N177 C175 1.299 . S
N177 N176 1.398 . S
N178 C174 1.367 . S
N178 C175 1.379 . S
H179 C182 0.980 . S
H180 C182 0.981 . S
H181 C182 0.981 . S
C182 C174 1.481 . S
C182 H179 0.980 . S
C182 H180 0.981 . S
C182 H181 0.981 . S
C183 C170 1.481 . S
C183 H184 0.980 . S
C183 H185 0.981 . S
C183 H186 0.981 . S
H184 C183 0.980 . S
H185 C183 0.981 . S
H186 C183 0.981 . S
O187 Zn163 2.066 . S
O187 C166 1.256 . S
O188 Zn160 2.053 . S
O188 C166 1.244 . S
C189 O167 1.259 . S
C189 O168 1.254 1_455 S
O190 Zn160 2.066 . S
O190 C162 1.256 . S
O191 C162 1.244 . S
O191 Zn163 2.053 . S
Zn192 O193 2.055 . S
Zn192 O200 2.046 . S
Zn192 N208 2.036 . S
Zn192 O220 2.053 . S
Zn192 O222 2.066 . S
O193 Zn192 2.055 . S
O193 C196 1.259 . S
C194 O222 1.256 . S
C194 O223 1.244 . S
Zn195 O197 2.046 1_554 S
Zn195 O199 2.055 1_554 S
Zn195 N201 2.036 1_554 S
Zn195 O219 2.066 . S
Zn195 O223 2.053 . S
C196 O193 1.259 . S
C196 O197 1.254 1_554 S
O197 Zn195 2.046 1_556 S
O197 C196 1.254 1_556 S
C198 O219 1.256 . S
C198 O220 1.244 . S
O199 Zn195 2.055 1_556 S
O199 C221 1.259 . S
O200 Zn192 2.046 . S
O200 C221 1.254 1_554 S
N201 Zn195 2.036 1_556 S
N201 C202 1.298 . S
N201 N204 1.398 . S
C202 N201 1.298 . S
C202 N205 1.367 . S
C202 C215 1.481 . S
C203 N204 1.299 . S
C203 N205 1.379 . S
N204 N201 1.398 . S
N204 C203 1.299 . S
N205 C202 1.367 . S
N205 C203 1.379 . S
C206 N208 1.298 . S
C206 N210 1.367 . S
C206 C214 1.481 . S
C207 N209 1.299 . S
C207 N210 1.379 . S
N208 Zn192 2.036 . S
N208 C206 1.298 . S
N208 N209 1.398 . S
N209 C207 1.299 . S
N209 N208 1.398 . S
N210 C206 1.367 . S
N210 C207 1.379 . S
H211 C214 0.980 . S
H212 C214 0.981 . S
H213 C214 0.981 . S
C214 C206 1.481 . S
C214 H211 0.980 . S
C214 H212 0.981 . S
C214 H213 0.981 . S
C215 C202 1.481 . S
C215 H216 0.980 . S
C215 H217 0.981 . S
C215 H218 0.981 . S
H216 C215 0.980 . S
H217 C215 0.981 . S
H218 C215 0.981 . S
O219 Zn195 2.066 . S
O219 C198 1.256 . S
O220 Zn192 2.053 . S
O220 C198 1.244 . S
C221 O199 1.259 . S
C221 O200 1.254 1_556 S
O222 Zn192 2.066 . S
O222 C194 1.256 . S
O223 C194 1.244 . S
O223 Zn195 2.053 . S
Zn224 O225 2.055 . S
Zn224 O232 2.046 . S
Zn224 N240 2.036 . S
Zn224 O252 2.053 . S
Zn224 O254 2.066 . S
O225 Zn224 2.055 . S
O225 C228 1.259 . S
C226 O254 1.256 . S
C226 O255 1.244 . S
Zn227 O229 2.046 . S
Zn227 O231 2.055 . S
Zn227 N233 2.036 . S
Zn227 O251 2.066 . S
Zn227 O255 2.053 . S
C228 O225 1.259 . S
C228 O229 1.254 . S
O229 Zn227 2.046 . S
O229 C228 1.254 . S
C230 O251 1.256 . S
C230 O252 1.244 . S
O231 Zn227 2.055 . S
O231 C253 1.259 . S
O232 Zn224 2.046 . S
O232 C253 1.254 . S
N233 Zn227 2.036 . S
N233 C234 1.298 . S
N233 N236 1.398 . S
C234 N233 1.298 . S
C234 N237 1.367 . S
C234 C247 1.481 . S
C235 N236 1.299 . S
C235 N237 1.379 . S
N236 N233 1.398 . S
N236 C235 1.299 . S
N237 C234 1.367 . S
N237 C235 1.379 . S
C238 N240 1.298 . S
C238 N242 1.367 . S
C238 C246 1.481 . S
C239 N241 1.299 . S
C239 N242 1.379 . S
N240 Zn224 2.036 . S
N240 C238 1.298 . S
N240 N241 1.398 . S
N241 C239 1.299 . S
N241 N240 1.398 . S
N242 C238 1.367 . S
N242 C239 1.379 . S
H243 C246 0.980 . S
H244 C246 0.981 . S
H245 C246 0.981 . S
C246 C238 1.481 . S
C246 H243 0.980 . S
C246 H244 0.981 . S
C246 H245 0.981 . S
C247 C234 1.481 . S
C247 H248 0.980 . S
C247 H249 0.981 . S
C247 H250 0.981 . S
H248 C247 0.980 . S
H249 C247 0.981 . S
H250 C247 0.981 . S
O251 Zn227 2.066 . S
O251 C230 1.256 . S
O252 Zn224 2.053 . S
O252 C230 1.244 . S
C253 O231 1.259 . S
C253 O232 1.254 . S
O254 Zn224 2.066 . S
O254 C226 1.256 . S
O255 C226 1.244 . S
O255 Zn227 2.053 . S
Zn256 O257 2.055 . S
Zn256 O264 2.046 . S
Zn256 N272 2.036 . S
Zn256 O284 2.053 . S
Zn256 O286 2.066 . S
O257 Zn256 2.055 . S
O257 C260 1.259 . S
C258 O286 1.256 . S
C258 O287 1.244 . S
Zn259 O261 2.046 . S
Zn259 O263 2.055 . S
Zn259 N265 2.036 . S
Zn259 O283 2.066 . S
Zn259 O287 2.053 . S
C260 O257 1.259 . S
C260 O261 1.254 . S
O261 Zn259 2.046 . S
O261 C260 1.254 . S
C262 O283 1.256 . S
C262 O284 1.244 . S
O263 Zn259 2.055 . S
O263 C285 1.259 . S
O264 Zn256 2.046 . S
O264 C285 1.254 . S
N265 Zn259 2.036 . S
N265 C266 1.298 . S
N265 N268 1.398 . S
C266 N265 1.298 . S
C266 N269 1.367 . S
C266 C279 1.481 . S
C267 N268 1.299 . S
C267 N269 1.379 . S
N268 N265 1.398 . S
N268 C267 1.299 . S
N269 C266 1.367 . S
N269 C267 1.379 . S
C270 N272 1.298 . S
C270 N274 1.367 . S
C270 C278 1.481 . S
C271 N273 1.299 . S
C271 N274 1.379 . S
N272 Zn256 2.036 . S
N272 C270 1.298 . S
N272 N273 1.398 . S
N273 C271 1.299 . S
N273 N272 1.398 . S
N274 C270 1.367 . S
N274 C271 1.379 . S
H275 C278 0.980 . S
H276 C278 0.981 . S
H277 C278 0.981 . S
C278 C270 1.481 . S
C278 H275 0.980 . S
C278 H276 0.981 . S
C278 H277 0.981 . S
C279 C266 1.481 . S
C279 H280 0.980 . S
C279 H281 0.981 . S
C279 H282 0.981 . S
H280 C279 0.980 . S
H281 C279 0.981 . S
H282 C279 0.981 . S
O283 Zn259 2.066 . S
O283 C262 1.256 . S
O284 Zn256 2.053 . S
O284 C262 1.244 . S
C285 O263 1.259 . S
C285 O264 1.254 . S
O286 Zn256 2.066 . S
O286 C258 1.256 . S
O287 C258 1.244 . S
O287 Zn259 2.053 . S
Zn288 O289 2.055 . S
Zn288 O296 2.046 . S
Zn288 N304 2.036 . S
Zn288 O316 2.053 . S
Zn288 O318 2.066 . S
O289 Zn288 2.055 . S
O289 C292 1.259 . S
C290 O318 1.256 . S
C290 O319 1.244 . S
Zn291 O293 2.046 1_545 S
Zn291 O295 2.055 1_545 S
Zn291 N297 2.036 1_545 S
Zn291 O315 2.066 . S
Zn291 O319 2.053 . S
C292 O289 1.259 . S
C292 O293 1.254 1_545 S
O293 Zn291 2.046 1_565 S
O293 C292 1.254 1_565 S
C294 O315 1.256 . S
C294 O316 1.244 . S
O295 Zn291 2.055 1_565 S
O295 C317 1.259 . S
O296 Zn288 2.046 . S
O296 C317 1.254 1_545 S
N297 Zn291 2.036 1_565 S
N297 C298 1.298 . S
N297 N300 1.398 . S
C298 N297 1.298 . S
C298 N301 1.367 . S
C298 C311 1.481 . S
C299 N300 1.299 . S
C299 N301 1.379 . S
N300 N297 1.398 . S
N300 C299 1.299 . S
N301 C298 1.367 . S
N301 C299 1.379 . S
C302 N304 1.298 . S
C302 N306 1.367 . S
C302 C310 1.481 . S
C303 N305 1.299 . S
C303 N306 1.379 . S
N304 Zn288 2.036 . S
N304 C302 1.298 . S
N304 N305 1.398 . S
N305 C303 1.299 . S
N305 N304 1.398 . S
N306 C302 1.367 . S
N306 C303 1.379 . S
H307 C310 0.980 . S
H308 C310 0.981 . S
H309 C310 0.981 . S
C310 C302 1.481 . S
C310 H307 0.980 . S
C310 H308 0.981 . S
C310 H309 0.981 . S
C311 C298 1.481 . S
C311 H312 0.980 . S
C311 H313 0.981 . S
C311 H314 0.981 . S
H312 C311 0.980 . S
H313 C311 0.981 . S
H314 C311 0.981 . S
O315 Zn291 2.066 . S
O315 C294 1.256 . S
O316 Zn288 2.053 . S
O316 C294 1.244 . S
C317 O295 1.259 . S
C317 O296 1.254 1_565 S
O318 Zn288 2.066 . S
O318 C290 1.256 . S
O319 C290 1.244 . S
O319 Zn291 2.053 . S
Zn320 O321 2.055 . S
Zn320 O328 2.046 . S
Zn320 N336 2.036 . S
Zn320 O348 2.053 . S
Zn320 O350 2.066 . S
O321 Zn320 2.055 . S
O321 C324 1.259 . S
C322 O350 1.256 . S
C322 O351 1.244 . S
Zn323 O325 2.046 1_565 S
Zn323 O327 2.055 1_565 S
Zn323 N329 2.036 1_565 S
Zn323 O347 2.066 . S
Zn323 O351 2.053 . S
C324 O321 1.259 . S
C324 O325 1.254 1_565 S
O325 Zn323 2.046 1_545 S
O325 C324 1.254 1_545 S
C326 O347 1.256 . S
C326 O348 1.244 . S
O327 Zn323 2.055 1_545 S
O327 C349 1.259 . S
O328 Zn320 2.046 . S
O328 C349 1.254 1_565 S
N329 Zn323 2.036 1_545 S
N329 C330 1.298 . S
N329 N332 1.398 . S
C330 N329 1.298 . S
C330 N333 1.367 . S
C330 C343 1.481 . S
C331 N332 1.299 . S
C331 N333 1.379 . S
N332 N329 1.398 . S
N332 C331 1.299 . S
N333 C330 1.367 . S
N333 C331 1.379 . S
C334 N336 1.298 . S
C334 N338 1.367 . S
C334 C342 1.481 . S
C335 N337 1.299 . S
C335 N338 1.379 . S
N336 Zn320 2.036 . S
N336 C334 1.298 . S
N336 N337 1.398 . S
N337 C335 1.299 . S
N337 N336 1.398 . S
N338 C334 1.367 . S
N338 C335 1.379 . S
H339 C342 0.980 . S
H340 C342 0.981 . S
H341 C342 0.981 . S
C342 C334 1.481 . S
C342 H339 0.980 . S
C342 H340 0.981 . S
C342 H341 0.981 . S
C343 C330 1.481 . S
C343 H344 0.980 . S
C343 H345 0.981 . S
C343 H346 0.981 . S
H344 C343 0.980 . S
H345 C343 0.981 . S
H346 C343 0.981 . S
O347 Zn323 2.066 . S
O347 C326 1.256 . S
O348 Zn320 2.053 . S
O348 C326 1.244 . S
C349 O327 1.259 . S
C349 O328 1.254 1_545 S
O350 Zn320 2.066 . S
O350 C322 1.256 . S
O351 C322 1.244 . S
O351 Zn323 2.053 . S
Zn352 O353 2.055 . S
Zn352 O360 2.046 . S
Zn352 N368 2.036 . S
Zn352 O380 2.053 . S
Zn352 O382 2.066 . S
O353 Zn352 2.055 . S
O353 C356 1.259 . S
C354 O382 1.256 . S
C354 O383 1.244 . S
Zn355 O357 2.046 . S
Zn355 O359 2.055 . S
Zn355 N361 2.036 . S
Zn355 O379 2.066 . S
Zn355 O383 2.053 . S
C356 O353 1.259 . S
C356 O357 1.254 . S
O357 Zn355 2.046 . S
O357 C356 1.254 . S
C358 O379 1.256 . S
C358 O380 1.244 . S
O359 Zn355 2.055 . S
O359 C381 1.259 . S
O360 Zn352 2.046 . S
O360 C381 1.254 . S
N361 Zn355 2.036 . S
N361 C362 1.298 . S
N361 N364 1.398 . S
C362 N361 1.298 . S
C362 N365 1.367 . S
C362 C375 1.481 . S
C363 N364 1.299 . S
C363 N365 1.379 . S
N364 N361 1.398 . S
N364 C363 1.299 . S
N365 C362 1.367 . S
N365 C363 1.379 . S
C366 N368 1.298 . S
C366 N370 1.367 . S
C366 C374 1.481 . S
C367 N369 1.299 . S
C367 N370 1.379 . S
N368 Zn352 2.036 . S
N368 C366 1.298 . S
N368 N369 1.398 . S
N369 C367 1.299 . S
N369 N368 1.398 . S
N370 C366 1.367 . S
N370 C367 1.379 . S
H371 C374 0.980 . S
H372 C374 0.981 . S
H373 C374 0.981 . S
C374 C366 1.481 . S
C374 H371 0.980 . S
C374 H372 0.981 . S
C374 H373 0.981 . S
C375 C362 1.481 . S
C375 H376 0.980 . S
C375 H377 0.981 . S
C375 H378 0.981 . S
H376 C375 0.980 . S
H377 C375 0.981 . S
H378 C375 0.981 . S
O379 Zn355 2.066 . S
O379 C358 1.256 . S
O380 Zn352 2.053 . S
O380 C358 1.244 . S
C381 O359 1.259 . S
C381 O360 1.254 . S
O382 Zn352 2.066 . S
O382 C354 1.256 . S
O383 C354 1.244 . S
O383 Zn355 2.053 . S
C384 C385 1.349 . S
C384 C386 1.327 . S
C384 H409 0.950 . S
C385 C384 1.349 . S
C385 C401 1.349 . S
C386 C384 1.327 . S
C386 C405 1.429 . S
C386 H410 0.950 . S
C387 C404 1.574 . S
C387 C406 1.368 . S
C387 H411 0.949 . S
H388 C392 0.949 . S
C389 C390 1.349 . S
C389 C391 1.327 . S
C389 H412 0.950 . S
C390 C389 1.349 . S
C390 C402 1.349 . S
C391 C389 1.327 . S
C391 C407 1.429 . S
C391 H413 0.950 . S
C392 H388 0.949 . S
C392 C400 1.574 . S
C392 C408 1.368 . S
H393 C401 0.950 . S
H394 C399 0.950 . S
H395 C400 0.949 . S
H396 C402 0.950 . S
H397 C403 0.950 . S
H398 C404 0.949 . S
C399 H394 0.950 . S
C399 C401 1.327 . S
C399 C405 1.429 . S
C400 C392 1.574 . S
C400 H395 0.949 . S
C400 C406 1.368 . S
C401 C385 1.349 . S
C401 H393 0.950 . S
C401 C399 1.327 . S
C402 C390 1.349 . S
C402 H396 0.950 . S
C402 C403 1.327 . S
C403 H397 0.950 . S
C403 C402 1.327 . S
C403 C407 1.429 . S
C404 C387 1.574 . S
C404 H398 0.949 . S
C404 C408 1.368 . S
C405 C386 1.429 . S
C405 C399 1.429 . S
C405 C406 1.523 . S
C406 C387 1.368 . S
C406 C400 1.368 . S
C406 C405 1.523 . S
C407 C391 1.429 . S
C407 C403 1.429 . S
C407 C408 1.523 . S
C408 C392 1.368 . S
C408 C404 1.368 . S
C408 C407 1.523 . S
H409 C384 0.950 . S
H410 C386 0.950 . S
H411 C387 0.949 . S
H412 C389 0.950 . S
H413 C391 0.950 . S
C414 C415 1.349 1_545 S
C414 C416 1.327 . S
C414 H439 0.950 . S
C415 C414 1.349 1_565 S
C415 C431 1.349 . S
C416 C414 1.327 . S
C416 C435 1.429 1_545 S
C416 H440 0.950 . S
C417 C434 1.574 . S
C417 C436 1.368 . S
C417 H441 0.949 . S
H418 C422 0.949 . S
C419 C420 1.349 . S
C419 C421 1.327 . S
C419 H442 0.950 . S
C420 C419 1.349 . S
C420 C432 1.349 . S
C421 C419 1.327 . S
C421 C437 1.429 . S
C421 H443 0.950 . S
C422 H418 0.949 . S
C422 C430 1.574 . S
C422 C438 1.368 . S
H423 C431 0.950 . S
H424 C429 0.950 . S
H425 C430 0.949 1_545 S
H426 C432 0.950 . S
H427 C433 0.950 . S
H428 C434 0.949 . S
C429 H424 0.950 . S
C429 C431 1.327 . S
C429 C435 1.429 . S
C430 C422 1.574 . S
C430 H425 0.949 1_565 S
C430 C436 1.368 . S
C431 C415 1.349 . S
C431 H423 0.950 . S
C431 C429 1.327 . S
C432 C420 1.349 . S
C432 H426 0.950 . S
C432 C433 1.327 . S
C433 H427 0.950 . S
C433 C432 1.327 . S
C433 C437 1.429 . S
C434 C417 1.574 . S
C434 H428 0.949 . S
C434 C438 1.368 . S
C435 C416 1.429 1_565 S
C435 C429 1.429 . S
C435 C436 1.523 . S
C436 C417 1.368 . S
C436 C430 1.368 . S
C436 C435 1.523 . S
C437 C421 1.429 . S
C437 C433 1.429 . S
C437 C438 1.523 . S
C438 C422 1.368 . S
C438 C434 1.368 . S
C438 C437 1.523 . S
H439 C414 0.950 . S
H440 C416 0.950 . S
H441 C417 0.949 . S
H442 C419 0.950 . S
H443 C421 0.950 . S
C444 C445 1.349 . S
C444 C446 1.327 . S
C444 H469 0.950 . S
C445 C444 1.349 . S
C445 C461 1.349 1_554 S
C446 C444 1.327 . S
C446 C465 1.429 . S
C446 H470 0.950 . S
C447 C464 1.574 . S
C447 C466 1.368 . S
C447 H471 0.944 1_554 S
H448 C452 0.949 . S
C449 C450 1.349 . S
C449 C451 1.327 . S
C449 H472 0.950 . S
C450 C449 1.349 . S
C450 C462 1.349 . S
C451 C449 1.327 . S
C451 C467 1.429 . S
C451 H473 0.950 . S
C452 H448 0.949 . S
C452 C460 1.574 . S
C452 C468 1.368 . S
H453 C461 0.950 . S
H454 C459 0.950 . S
H455 C460 0.949 . S
H456 C462 0.950 . S
H457 C463 0.950 . S
H458 C464 0.949 . S
C459 H454 0.950 . S
C459 C461 1.327 . S
C459 C465 1.429 1_556 S
C460 C452 1.574 . S
C460 H455 0.949 . S
C460 C466 1.368 . S
C461 C445 1.349 1_556 S
C461 H453 0.950 . S
C461 C459 1.327 . S
C462 C450 1.349 . S
C462 H456 0.950 . S
C462 C463 1.327 . S
C463 H457 0.950 . S
C463 C462 1.327 . S
C463 C467 1.429 . S
C464 C447 1.574 . S
C464 H458 0.949 . S
C464 C468 1.368 . S
C465 C446 1.429 . S
C465 C459 1.429 1_554 S
C465 C466 1.523 . S
C466 C447 1.368 . S
C466 C460 1.368 . S
C466 C465 1.523 . S
C467 C451 1.429 . S
C467 C463 1.429 . S
C467 C468 1.523 . S
C468 C452 1.368 . S
C468 C464 1.368 . S
C468 C467 1.523 . S
H469 C444 0.950 . S
H470 C446 0.950 . S
H471 C447 0.944 1_556 S
H472 C449 0.950 . S
H473 C451 0.950 . S
C474 C475 1.349 . S
C474 C476 1.327 . S
C474 H499 0.950 . S
C475 C474 1.349 . S
C475 C491 1.349 . S
C476 C474 1.327 . S
C476 C495 1.429 . S
C476 H500 0.950 . S
C477 C494 1.574 . S
C477 C496 1.368 . S
C477 H501 0.949 . S
H478 C482 0.949 . S
C479 C480 1.349 . S
C479 C481 1.327 . S
C479 H502 0.950 . S
C480 C479 1.349 . S
C480 C492 1.349 . S
C481 C479 1.327 . S
C481 C497 1.429 . S
C481 H503 0.950 . S
C482 H478 0.949 . S
C482 C490 1.574 . S
C482 C498 1.368 . S
H483 C491 0.950 . S
H484 C489 0.950 . S
H485 C490 0.949 . S
H486 C492 0.950 . S
H487 C493 0.950 . S
H488 C494 0.949 . S
C489 H484 0.950 . S
C489 C491 1.327 . S
C489 C495 1.429 . S
C490 C482 1.574 . S
C490 H485 0.949 . S
C490 C496 1.368 . S
C491 C475 1.349 . S
C491 H483 0.950 . S
C491 C489 1.327 . S
C492 C480 1.349 . S
C492 H486 0.950 . S
C492 C493 1.327 . S
C493 H487 0.950 . S
C493 C492 1.327 . S
C493 C497 1.429 . S
C494 C477 1.574 . S
C494 H488 0.949 . S
C494 C498 1.368 . S
C495 C476 1.429 . S
C495 C489 1.429 . S
C495 C496 1.523 . S
C496 C477 1.368 . S
C496 C490 1.368 . S
C496 C495 1.523 . S
C497 C481 1.429 . S
C497 C493 1.429 . S
C497 C498 1.523 . S
C498 C482 1.368 . S
C498 C494 1.368 . S
C498 C497 1.523 . S
H499 C474 0.950 . S
H500 C476 0.950 . S
H501 C477 0.949 . S
H502 C479 0.950 . S
H503 C481 0.950 . S
C504 C505 1.349 . S
C504 C506 1.327 . S
C504 H529 0.950 . S
C505 C504 1.349 . S
C505 C521 1.349 . S
C506 C504 1.327 . S
C506 C525 1.429 . S
C506 H530 0.950 . S
C507 C524 1.574 . S
C507 C526 1.368 . S
C507 H531 0.949 . S
H508 C512 0.949 . S
C509 C510 1.349 . S
C509 C511 1.327 . S
C509 H532 0.950 . S
C510 C509 1.349 . S
C510 C522 1.349 . S
C511 C509 1.327 . S
C511 C527 1.429 . S
C511 H533 0.950 . S
C512 H508 0.949 . S
C512 C520 1.574 . S
C512 C528 1.368 . S
H513 C521 0.950 . S
H514 C519 0.950 . S
H515 C520 0.949 . S
H516 C522 0.950 . S
H517 C523 0.950 . S
H518 C524 0.949 . S
C519 H514 0.950 . S
C519 C521 1.327 . S
C519 C525 1.429 . S
C520 C512 1.574 . S
C520 H515 0.949 . S
C520 C526 1.368 . S
C521 C505 1.349 . S
C521 H513 0.950 . S
C521 C519 1.327 . S
C522 C510 1.349 . S
C522 H516 0.950 . S
C522 C523 1.327 . S
C523 H517 0.950 . S
C523 C522 1.327 . S
C523 C527 1.429 . S
C524 C507 1.574 . S
C524 H518 0.949 . S
C524 C528 1.368 . S
C525 C506 1.429 . S
C525 C519 1.429 . S
C525 C526 1.523 . S
C526 C507 1.368 . S
C526 C520 1.368 . S
C526 C525 1.523 . S
C527 C511 1.429 . S
C527 C523 1.429 . S
C527 C528 1.523 . S
C528 C512 1.368 . S
C528 C524 1.368 . S
C528 C527 1.523 . S
H529 C504 0.950 . S
H530 C506 0.950 . S
H531 C507 0.949 . S
H532 C509 0.950 . S
H533 C511 0.950 . S
C534 C535 1.349 . S
C534 C536 1.327 . S
C534 H559 0.950 . S
C535 C534 1.349 . S
C535 C551 1.349 . S
C536 C534 1.327 . S
C536 C555 1.429 . S
C536 H560 0.950 . S
C537 C554 1.574 . S
C537 C556 1.368 . S
C537 H561 0.949 . S
H538 C542 0.949 . S
C539 C540 1.349 . S
C539 C541 1.327 . S
C539 H562 0.950 . S
C540 C539 1.349 . S
C540 C552 1.349 . S
C541 C539 1.327 . S
C541 C557 1.429 . S
C541 H563 0.950 . S
C542 H538 0.949 . S
C542 C550 1.574 . S
C542 C558 1.368 . S
H543 C551 0.950 . S
H544 C549 0.950 . S
H545 C550 0.949 . S
H546 C552 0.950 . S
H547 C553 0.950 . S
H548 C554 0.949 . S
C549 H544 0.950 . S
C549 C551 1.327 . S
C549 C555 1.429 . S
C550 C542 1.574 . S
C550 H545 0.949 . S
C550 C556 1.368 . S
C551 C535 1.349 . S
C551 H543 0.950 . S
C551 C549 1.327 . S
C552 C540 1.349 . S
C552 H546 0.950 . S
C552 C553 1.327 . S
C553 H547 0.950 . S
C553 C552 1.327 . S
C553 C557 1.429 . S
C554 C537 1.574 . S
C554 H548 0.949 . S
C554 C558 1.368 . S
C555 C536 1.429 . S
C555 C549 1.429 . S
C555 C556 1.523 . S
C556 C537 1.368 . S
C556 C550 1.368 . S
C556 C555 1.523 . S
C557 C541 1.429 . S
C557 C553 1.429 . S
C557 C558 1.523 . S
C558 C542 1.368 . S
C558 C554 1.368 . S
C558 C557 1.523 . S
H559 C534 0.950 . S
H560 C536 0.950 . S
H561 C537 0.949 . S
H562 C539 0.950 . S
H563 C541 0.950 . S
C564 C565 1.349 . S
C564 C566 1.327 . S
C564 H589 0.950 . S
C565 C564 1.349 . S
C565 C581 1.349 . S
C566 C564 1.327 . S
C566 C585 1.429 . S
C566 H590 0.950 . S
C567 C584 1.574 . S
C567 C586 1.368 . S
C567 H591 0.949 . S
H568 C572 0.949 1_554 S
C569 C570 1.349 . S
C569 C571 1.327 . S
C569 H592 0.950 . S
C570 C569 1.349 . S
C570 C582 1.349 1_556 S
C571 C569 1.327 . S
C571 C587 1.429 . S
C571 H593 0.950 . S
C572 H568 0.949 1_556 S
C572 C580 1.574 . S
C572 C588 1.368 . S
H573 C581 0.950 . S
H574 C579 0.950 . S
H575 C580 0.949 . S
H576 C582 0.950 . S
H577 C583 0.950 . S
H578 C584 0.949 . S
C579 H574 0.950 . S
C579 C581 1.327 . S
C579 C585 1.429 . S
C580 C572 1.574 . S
C580 H575 0.949 . S
C580 C586 1.368 . S
C581 C565 1.349 . S
C581 H573 0.950 . S
C581 C579 1.327 . S
C582 C570 1.349 1_554 S
C582 H576 0.950 . S
C582 C583 1.327 . S
C583 H577 0.950 . S
C583 C582 1.327 . S
C583 C587 1.429 1_554 S
C584 C567 1.574 . S
C584 H578 0.949 . S
C584 C588 1.368 . S
C585 C566 1.429 . S
C585 C579 1.429 . S
C585 C586 1.523 . S
C586 C567 1.368 . S
C586 C580 1.368 . S
C586 C585 1.523 . S
C587 C571 1.429 . S
C587 C583 1.429 1_556 S
C587 C588 1.523 . S
C588 C572 1.368 . S
C588 C584 1.368 . S
C588 C587 1.523 . S
H589 C564 0.950 . S
H590 C566 0.950 . S
H591 C567 0.949 . S
H592 C569 0.950 . S
H593 C571 0.950 . S
C594 C595 1.349 . S
C594 C596 1.327 . S
C594 H619 0.950 . S
C595 C594 1.349 . S
C595 C611 1.349 . S
C596 C594 1.327 . S
C596 C615 1.429 . S
C596 H620 0.950 . S
C597 C614 1.574 . S
C597 C616 1.368 . S
C597 H621 0.949 . S
H598 C602 0.949 . S
C599 C600 1.349 . S
C599 C601 1.327 . S
C599 H622 0.950 . S
C600 C599 1.349 . S
C600 C612 1.349 . S
C601 C599 1.327 . S
C601 C617 1.429 . S
C601 H623 0.950 . S
C602 H598 0.949 . S
C602 C610 1.574 . S
C602 C618 1.368 . S
H603 C611 0.950 . S
H604 C609 0.950 . S
H605 C610 0.949 . S
H606 C612 0.950 . S
H607 C613 0.950 . S
H608 C614 0.949 . S
C609 H604 0.950 . S
C609 C611 1.327 . S
C609 C615 1.429 . S
C610 C602 1.574 . S
C610 H605 0.949 . S
C610 C616 1.368 . S
C611 C595 1.349 . S
C611 H603 0.950 . S
C611 C609 1.327 . S
C612 C600 1.349 . S
C612 H606 0.950 . S
C612 C613 1.327 . S
C613 H607 0.950 . S
C613 C612 1.327 . S
C613 C617 1.429 . S
C614 C597 1.574 . S
C614 H608 0.949 . S
C614 C618 1.368 . S
C615 C596 1.429 . S
C615 C609 1.429 . S
C615 C616 1.523 . S
C616 C597 1.368 . S
C616 C610 1.368 . S
C616 C615 1.523 . S
C617 C601 1.429 . S
C617 C613 1.429 . S
C617 C618 1.523 . S
C618 C602 1.368 . S
C618 C614 1.368 . S
C618 C617 1.523 . S
H619 C594 0.950 . S
H620 C596 0.950 . S
H621 C597 0.949 . S
H622 C599 0.950 . S
H623 C601 0.950 . S
C624 C625 1.349 . S
C624 C626 1.327 . S
C624 H649 0.950 . S
C625 C624 1.349 . S
C625 C641 1.349 . S
C626 C624 1.327 . S
C626 C645 1.429 . S
C626 H650 0.950 . S
C627 C644 1.574 . S
C627 C646 1.368 . S
C627 H651 0.949 . S
H628 C632 0.949 . S
C629 C630 1.349 . S
C629 C631 1.327 . S
C629 H652 0.950 . S
C630 C629 1.349 . S
C630 C642 1.349 . S
C631 C629 1.327 . S
C631 C647 1.429 . S
C631 H653 0.950 . S
C632 H628 0.949 . S
C632 C640 1.574 . S
C632 C648 1.368 . S
H633 C641 0.950 . S
H634 C639 0.950 . S
H635 C640 0.949 . S
H636 C642 0.950 . S
H637 C643 0.950 . S
H638 C644 0.949 . S
C639 H634 0.950 . S
C639 C641 1.327 . S
C639 C645 1.429 . S
C640 C632 1.574 . S
C640 H635 0.949 . S
C640 C646 1.368 . S
C641 C625 1.349 . S
C641 H633 0.950 . S
C641 C639 1.327 . S
C642 C630 1.349 . S
C642 H636 0.950 . S
C642 C643 1.327 . S
C643 H637 0.950 . S
C643 C642 1.327 . S
C643 C647 1.429 . S
C644 C627 1.574 . S
C644 H638 0.949 . S
C644 C648 1.368 . S
C645 C626 1.429 . S
C645 C639 1.429 . S
C645 C646 1.523 . S
C646 C627 1.368 . S
C646 C640 1.368 . S
C646 C645 1.523 . S
C647 C631 1.429 . S
C647 C643 1.429 . S
C647 C648 1.523 . S
C648 C632 1.368 . S
C648 C644 1.368 . S
C648 C647 1.523 . S
H649 C624 0.950 . S
H650 C626 0.950 . S
H651 C627 0.949 . S
H652 C629 0.950 . S
H653 C631 0.950 . S
C654 C655 1.349 . S
C654 C656 1.327 . S
C654 H679 0.950 . S
C655 C654 1.349 . S
C655 C671 1.349 . S
C656 C654 1.327 . S
C656 C675 1.429 . S
C656 H680 0.950 . S
C657 C674 1.574 . S
C657 C676 1.368 . S
C657 H681 0.949 . S
H658 C662 0.949 . S
C659 C660 1.349 . S
C659 C661 1.327 . S
C659 H682 0.950 . S
C660 C659 1.349 . S
C660 C672 1.349 1_455 S
C661 C659 1.327 . S
C661 C677 1.429 . S
C661 H683 0.950 . S
C662 H658 0.949 . S
C662 C670 1.574 . S
C662 C678 1.368 . S
H663 C671 0.950 . S
H664 C669 0.950 . S
H665 C670 0.949 . S
H666 C672 0.950 . S
H667 C673 0.950 1_655 S
H668 C674 0.949 . S
C669 H664 0.950 . S
C669 C671 1.327 . S
C669 C675 1.429 . S
C670 C662 1.574 . S
C670 H665 0.949 . S
C670 C676 1.368 . S
C671 C655 1.349 . S
C671 H663 0.950 . S
C671 C669 1.327 . S
C672 C660 1.349 1_655 S
C672 H666 0.950 . S
C672 C673 1.327 1_655 S
C673 H667 0.950 1_455 S
C673 C672 1.327 1_455 S
C673 C677 1.429 . S
C674 C657 1.574 . S
C674 H668 0.949 . S
C674 C678 1.368 . S
C675 C656 1.429 . S
C675 C669 1.429 . S
C675 C676 1.523 . S
C676 C657 1.368 . S
C676 C670 1.368 . S
C676 C675 1.523 . S
C677 C661 1.429 . S
C677 C673 1.429 . S
C677 C678 1.523 . S
C678 C662 1.368 . S
C678 C674 1.368 . S
C678 C677 1.523 . S
H679 C654 0.950 . S
H680 C656 0.950 . S
H681 C657 0.949 . S
H682 C659 0.950 . S
H683 C661 0.950 . S
C684 C685 1.349 1_455 S
C684 C686 1.327 1_455 S
C684 H709 0.950 . S
C685 C684 1.349 1_655 S
C685 C701 1.349 . S
C686 C684 1.327 1_655 S
C686 C705 1.429 . S
C686 H710 0.950 . S
C687 C704 1.574 . S
C687 C706 1.368 . S
C687 H711 0.949 . S
H688 C692 0.949 . S
C689 C690 1.349 . S
C689 C691 1.327 . S
C689 H712 0.950 . S
C690 C689 1.349 . S
C690 C702 1.349 . S
C691 C689 1.327 . S
C691 C707 1.429 . S
C691 H713 0.950 . S
C692 H688 0.949 . S
C692 C700 1.574 . S
C692 C708 1.368 . S
H693 C701 0.950 . S
H694 C699 0.950 . S
H695 C700 0.949 . S
H696 C702 0.950 . S
H697 C703 0.950 . S
H698 C704 0.949 . S
C699 H694 0.950 . S
C699 C701 1.327 . S
C699 C705 1.429 . S
C700 C692 1.574 . S
C700 H695 0.949 . S
C700 C706 1.368 . S
C701 C685 1.349 . S
C701 H693 0.950 . S
C701 C699 1.327 . S
C702 C690 1.349 . S
C702 H696 0.950 . S
C702 C703 1.327 . S
C703 H697 0.950 . S
C703 C702 1.327 . S
C703 C707 1.429 . S
C704 C687 1.574 . S
C704 H698 0.949 . S
C704 C708 1.368 . S
C705 C686 1.429 . S
C705 C699 1.429 . S
C705 C706 1.523 . S
C706 C687 1.368 . S
C706 C700 1.368 . S
C706 C705 1.523 . S
C707 C691 1.429 . S
C707 C703 1.429 . S
C707 C708 1.523 . S
C708 C692 1.368 . S
C708 C704 1.368 . S
C708 C707 1.523 . S
H709 C684 0.950 . S
H710 C686 0.950 . S
H711 C687 0.949 . S
H712 C689 0.950 . S
H713 C691 0.950 . S
C714 C715 1.349 . S
C714 C716 1.327 . S
C714 H739 0.950 . S
C715 C714 1.349 . S
C715 C731 1.349 . S
C716 C714 1.327 . S
C716 C735 1.429 . S
C716 H740 0.950 . S
C717 C734 1.574 . S
C717 C736 1.368 . S
C717 H741 0.949 . S
H718 C722 0.949 . S
C719 C720 1.349 . S
C719 C721 1.327 . S
C719 H742 0.950 . S
C720 C719 1.349 . S
C720 C732 1.349 . S
C721 C719 1.327 . S
C721 C737 1.429 . S
C721 H743 0.950 . S
C722 H718 0.949 . S
C722 C730 1.574 . S
C722 C738 1.368 . S
H723 C731 0.950 . S
H724 C729 0.950 . S
H725 C730 0.949 . S
H726 C732 0.950 . S
H727 C733 0.950 . S
H728 C734 0.949 . S
C729 H724 0.950 . S
C729 C731 1.327 . S
C729 C735 1.429 . S
C730 C722 1.574 . S
C730 H725 0.949 . S
C730 C736 1.368 . S
C731 C715 1.349 . S
C731 H723 0.950 . S
C731 C729 1.327 . S
C732 C720 1.349 . S
C732 H726 0.950 . S
C732 C733 1.327 . S
C733 H727 0.950 . S
C733 C732 1.327 . S
C733 C737 1.429 . S
C734 C717 1.574 . S
C734 H728 0.949 . S
C734 C738 1.368 . S
C735 C716 1.429 . S
C735 C729 1.429 . S
C735 C736 1.523 . S
C736 C717 1.368 . S
C736 C730 1.368 . S
C736 C735 1.523 . S
C737 C721 1.429 . S
C737 C733 1.429 . S
C737 C738 1.523 . S
C738 C722 1.368 . S
C738 C734 1.368 . S
C738 C737 1.523 . S
H739 C714 0.950 . S
H740 C716 0.950 . S
H741 C717 0.949 . S
H742 C719 0.950 . S
H743 C721 0.950 . S
C744 C745 1.349 . S
C744 C746 1.327 . S
C744 H769 0.950 . S
C745 C744 1.349 . S
C745 C761 1.349 . S
C746 C744 1.327 . S
C746 C765 1.429 . S
C746 H770 0.950 . S
C747 C764 1.574 . S
C747 C766 1.368 . S
C747 H771 0.949 . S
H748 C752 0.949 . S
C749 C750 1.349 . S
C749 C751 1.327 . S
C749 H772 0.950 . S
C750 C749 1.349 . S
C750 C762 1.349 . S
C751 C749 1.327 . S
C751 C767 1.429 . S
C751 H773 0.950 . S
C752 H748 0.949 . S
C752 C760 1.574 . S
C752 C768 1.368 . S
H753 C761 0.950 . S
H754 C759 0.950 . S
H755 C760 0.949 . S
H756 C762 0.950 . S
H757 C763 0.950 . S
H758 C764 0.949 . S
C759 H754 0.950 . S
C759 C761 1.327 . S
C759 C765 1.429 . S
C760 C752 1.574 . S
C760 H755 0.949 . S
C760 C766 1.368 . S
C761 C745 1.349 . S
C761 H753 0.950 . S
C761 C759 1.327 . S
C762 C750 1.349 . S
C762 H756 0.950 . S
C762 C763 1.327 . S
C763 H757 0.950 . S
C763 C762 1.327 . S
C763 C767 1.429 . S
C764 C747 1.574 . S
C764 H758 0.949 . S
C764 C768 1.368 . S
C765 C746 1.429 . S
C765 C759 1.429 . S
C765 C766 1.523 . S
C766 C747 1.368 . S
C766 C760 1.368 . S
C766 C765 1.523 . S
C767 C751 1.429 . S
C767 C763 1.429 . S
C767 C768 1.523 . S
C768 C752 1.368 . S
C768 C764 1.368 . S
C768 C767 1.523 . S
H769 C744 0.950 . S
H770 C746 0.950 . S
H771 C747 0.949 . S
H772 C749 0.950 . S
H773 C751 0.950 . S
C774 C775 1.349 . S
C774 C776 1.327 . S
C774 H799 0.950 . S
C775 C774 1.349 . S
C775 C791 1.349 . S
C776 C774 1.327 . S
C776 C795 1.429 . S
C776 H800 0.950 . S
C777 C794 1.574 . S
C777 C796 1.368 . S
C777 H801 0.949 . S
H778 C782 0.949 . S
C779 C780 1.349 . S
C779 C781 1.327 . S
C779 H802 0.950 . S
C780 C779 1.349 . S
C780 C792 1.349 . S
C781 C779 1.327 . S
C781 C797 1.429 . S
C781 H803 0.950 . S
C782 H778 0.949 . S
C782 C790 1.574 . S
C782 C798 1.368 . S
H783 C791 0.950 . S
H784 C789 0.950 . S
H785 C790 0.949 . S
H786 C792 0.950 . S
H787 C793 0.950 . S
H788 C794 0.949 . S
C789 H784 0.950 . S
C789 C791 1.327 . S
C789 C795 1.429 . S
C790 C782 1.574 . S
C790 H785 0.949 . S
C790 C796 1.368 . S
C791 C775 1.349 . S
C791 H783 0.950 . S
C791 C789 1.327 . S
C792 C780 1.349 . S
C792 H786 0.950 . S
C792 C793 1.327 . S
C793 H787 0.950 . S
C793 C792 1.327 . S
C793 C797 1.429 . S
C794 C777 1.574 . S
C794 H788 0.949 . S
C794 C798 1.368 . S
C795 C776 1.429 . S
C795 C789 1.429 . S
C795 C796 1.523 . S
C796 C777 1.368 . S
C796 C790 1.368 . S
C796 C795 1.523 . S
C797 C781 1.429 . S
C797 C793 1.429 . S
C797 C798 1.523 . S
C798 C782 1.368 . S
C798 C794 1.368 . S
C798 C797 1.523 . S
H799 C774 0.950 . S
H800 C776 0.950 . S
H801 C777 0.949 . S
H802 C779 0.950 . S
H803 C781 0.950 . S
C804 C805 1.349 . S
C804 C806 1.327 . S
C804 H829 0.950 . S
C805 C804 1.349 . S
C805 C821 1.349 . S
C806 C804 1.327 . S
C806 C825 1.429 . S
C806 H830 0.950 . S
C807 C824 1.574 . S
C807 C826 1.368 . S
C807 H831 0.949 . S
H808 C812 0.949 . S
C809 C810 1.349 . S
C809 C811 1.327 . S
C809 H832 0.950 . S
C810 C809 1.349 . S
C810 C822 1.349 . S
C811 C809 1.327 . S
C811 C827 1.429 . S
C811 H833 0.950 . S
C812 H808 0.949 . S
C812 C820 1.574 . S
C812 C828 1.368 . S
H813 C821 0.950 . S
H814 C819 0.950 . S
H815 C820 0.949 . S
H816 C822 0.950 . S
H817 C823 0.950 . S
H818 C824 0.949 . S
C819 H814 0.950 . S
C819 C821 1.327 . S
C819 C825 1.429 . S
C820 C812 1.574 . S
C820 H815 0.949 . S
C820 C826 1.368 . S
C821 C805 1.349 . S
C821 H813 0.950 . S
C821 C819 1.327 . S
C822 C810 1.349 . S
C822 H816 0.950 . S
C822 C823 1.327 . S
C823 H817 0.950 . S
C823 C822 1.327 . S
C823 C827 1.429 . S
C824 C807 1.574 . S
C824 H818 0.949 . S
C824 C828 1.368 . S
C825 C806 1.429 . S
C825 C819 1.429 . S
C825 C826 1.523 . S
C826 C807 1.368 . S
C826 C820 1.368 . S
C826 C825 1.523 . S
C827 C811 1.429 . S
C827 C823 1.429 . S
C827 C828 1.523 . S
C828 C812 1.368 . S
C828 C824 1.368 . S
C828 C827 1.523 . S
H829 C804 0.950 . S
H830 C806 0.950 . S
H831 C807 0.949 . S
H832 C809 0.950 . S
H833 C811 0.950 . S
C834 C835 1.349 . S
C834 C836 1.327 . S
C834 H859 0.950 . S
C835 C834 1.349 . S
C835 C851 1.349 . S
C836 C834 1.327 . S
C836 C855 1.429 . S
C836 H860 0.950 . S
C837 C854 1.574 . S
C837 C856 1.368 . S
C837 H861 0.949 . S
H838 C842 0.949 1_556 S
C839 C840 1.349 . S
C839 C841 1.327 . S
C839 H862 0.950 . S
C840 C839 1.349 . S
C840 C852 1.349 . S
C841 C839 1.327 . S
C841 C857 1.429 . S
C841 H863 0.950 . S
C842 H838 0.949 1_554 S
C842 C850 1.574 . S
C842 C858 1.368 . S
H843 C851 0.950 . S
H844 C849 0.950 . S
H845 C850 0.949 . S
H846 C852 0.950 . S
H847 C853 0.950 . S
H848 C854 0.949 . S
C849 H844 0.950 . S
C849 C851 1.327 . S
C849 C855 1.429 . S
C850 C842 1.574 . S
C850 H845 0.949 . S
C850 C856 1.368 . S
C851 C835 1.349 . S
C851 H843 0.950 . S
C851 C849 1.327 . S
C852 C840 1.349 . S
C852 H846 0.950 . S
C852 C853 1.327 . S
C853 H847 0.950 . S
C853 C852 1.327 . S
C853 C857 1.429 . S
C854 C837 1.574 . S
C854 H848 0.949 . S
C854 C858 1.368 . S
C855 C836 1.429 . S
C855 C849 1.429 . S
C855 C856 1.523 . S
C856 C837 1.368 . S
C856 C850 1.368 . S
C856 C855 1.523 . S
C857 C841 1.429 . S
C857 C853 1.429 . S
C857 C858 1.523 1_556 S
C858 C842 1.368 . S
C858 C854 1.368 . S
C858 C857 1.523 1_554 S
H859 C834 0.950 . S
H860 C836 0.950 . S
H861 C837 0.949 . S
H862 C839 0.950 . S
H863 C841 0.950 . S
C864 C865 1.349 . S
C864 C866 1.327 . S
C864 H889 0.950 . S
C865 C864 1.349 . S
C865 C881 1.349 . S
C866 C864 1.327 . S
C866 C885 1.429 . S
C866 H890 0.950 . S
C867 C884 1.574 . S
C867 C886 1.368 . S
C867 H891 0.949 . S
H868 C872 0.949 . S
C869 C870 1.349 . S
C869 C871 1.327 . S
C869 H892 0.950 . S
C870 C869 1.349 . S
C870 C882 1.349 . S
C871 C869 1.327 . S
C871 C887 1.429 . S
C871 H893 0.950 . S
C872 H868 0.949 . S
C872 C880 1.574 . S
C872 C888 1.368 . S
H873 C881 0.950 . S
H874 C879 0.950 . S
H875 C880 0.949 . S
H876 C882 0.950 . S
H877 C883 0.950 . S
H878 C884 0.949 . S
C879 H874 0.950 . S
C879 C881 1.327 . S
C879 C885 1.429 . S
C880 C872 1.574 . S
C880 H875 0.949 . S
C880 C886 1.368 . S
C881 C865 1.349 . S
C881 H873 0.950 . S
C881 C879 1.327 . S
C882 C870 1.349 . S
C882 H876 0.950 . S
C882 C883 1.327 . S
C883 H877 0.950 . S
C883 C882 1.327 . S
C883 C887 1.429 . S
C884 C867 1.574 . S
C884 H878 0.949 . S
C884 C888 1.368 . S
C885 C866 1.429 . S
C885 C879 1.429 . S
C885 C886 1.523 . S
C886 C867 1.368 . S
C886 C880 1.368 . S
C886 C885 1.523 . S
C887 C871 1.429 . S
C887 C883 1.429 . S
C887 C888 1.523 . S
C888 C872 1.368 . S
C888 C884 1.368 . S
C888 C887 1.523 . S
H889 C864 0.950 . S
H890 C866 0.950 . S
H891 C867 0.949 . S
H892 C869 0.950 . S
H893 C871 0.950 . S
C894 C895 1.349 . S
C894 C896 1.327 . S
C894 H919 0.950 . S
C895 C894 1.349 . S
C895 C911 1.349 . S
C896 C894 1.327 . S
C896 C915 1.429 . S
C896 H920 0.950 . S
C897 C914 1.574 . S
C897 C916 1.368 . S
C897 H921 0.949 . S
H898 C902 0.949 . S
C899 C900 1.349 . S
C899 C901 1.327 . S
C899 H922 0.950 . S
C900 C899 1.349 . S
C900 C912 1.349 . S
C901 C899 1.327 . S
C901 C917 1.429 . S
C901 H923 0.950 . S
C902 H898 0.949 . S
C902 C910 1.574 1_556 S
C902 C918 1.368 . S
H903 C911 0.950 . S
H904 C909 0.950 . S
H905 C910 0.949 . S
H906 C912 0.950 . S
H907 C913 0.950 . S
H908 C914 0.949 . S
C909 H904 0.950 . S
C909 C911 1.327 . S
C909 C915 1.429 . S
C910 C902 1.574 1_554 S
C910 H905 0.949 . S
C910 C916 1.368 1_554 S
C911 C895 1.349 . S
C911 H903 0.950 . S
C911 C909 1.327 . S
C912 C900 1.349 . S
C912 H906 0.950 . S
C912 C913 1.327 . S
C913 H907 0.950 . S
C913 C912 1.327 . S
C913 C917 1.429 . S
C914 C897 1.574 . S
C914 H908 0.949 . S
C914 C918 1.368 . S
C915 C896 1.429 . S
C915 C909 1.429 . S
C915 C916 1.523 1_554 S
C916 C897 1.368 . S
C916 C910 1.368 1_556 S
C916 C915 1.523 1_556 S
C917 C901 1.429 . S
C917 C913 1.429 . S
C917 C918 1.523 . S
C918 C902 1.368 . S
C918 C914 1.368 . S
C918 C917 1.523 . S
H919 C894 0.950 . S
H920 C896 0.950 . S
H921 C897 0.949 . S
H922 C899 0.950 . S
H923 C901 0.950 . S
C924 C925 1.349 . S
C924 C926 1.327 . S
C924 H949 0.950 . S
C925 C924 1.349 . S
C925 C941 1.349 . S
C926 C924 1.327 . S
C926 C945 1.429 . S
C926 H950 0.950 . S
C927 C944 1.574 . S
C927 C946 1.368 . S
C927 H951 0.949 . S
H928 C932 0.949 . S
C929 C930 1.349 . S
C929 C931 1.327 . S
C929 H952 0.950 . S
C930 C929 1.349 . S
C930 C942 1.349 . S
C931 C929 1.327 . S
C931 C947 1.429 . S
C931 H953 0.950 . S
C932 H928 0.949 . S
C932 C940 1.574 . S
C932 C948 1.368 . S
H933 C941 0.950 . S
H934 C939 0.950 . S
H935 C940 0.949 . S
H936 C942 0.950 . S
H937 C943 0.950 . S
H938 C944 0.949 . S
C939 H934 0.950 . S
C939 C941 1.327 . S
C939 C945 1.429 . S
C940 C932 1.574 . S
C940 H935 0.949 . S
C940 C946 1.368 . S
C941 C925 1.349 . S
C941 H933 0.950 . S
C941 C939 1.327 . S
C942 C930 1.349 . S
C942 H936 0.950 . S
C942 C943 1.327 . S
C943 H937 0.950 . S
C943 C942 1.327 . S
C943 C947 1.429 . S
C944 C927 1.574 . S
C944 H938 0.949 . S
C944 C948 1.368 . S
C945 C926 1.429 . S
C945 C939 1.429 . S
C945 C946 1.523 . S
C946 C927 1.368 . S
C946 C940 1.368 . S
C946 C945 1.523 . S
C947 C931 1.429 . S
C947 C943 1.429 . S
C947 C948 1.523 . S
C948 C932 1.368 . S
C948 C944 1.368 . S
C948 C947 1.523 . S
H949 C924 0.950 . S
H950 C926 0.950 . S
H951 C927 0.949 . S
H952 C929 0.950 . S
H953 C931 0.950 . S
C954 C955 1.349 . S
C954 C956 1.327 . S
C954 H979 0.950 . S
C955 C954 1.349 . S
C955 C971 1.349 . S
C956 C954 1.327 . S
C956 C975 1.429 . S
C956 H980 0.950 . S
C957 C974 1.574 . S
C957 C976 1.368 . S
C957 H981 0.949 . S
H958 C962 0.949 . S
C959 C960 1.349 . S
C959 C961 1.327 . S
C959 H982 0.950 . S
C960 C959 1.349 . S
C960 C972 1.349 . S
C961 C959 1.327 . S
C961 C977 1.429 . S
C961 H983 0.950 . S
C962 H958 0.949 . S
C962 C970 1.574 . S
C962 C978 1.368 . S
H963 C971 0.950 . S
H964 C969 0.950 . S
H965 C970 0.949 . S
H966 C972 0.950 . S
H967 C973 0.950 . S
H968 C974 0.949 . S
C969 H964 0.950 . S
C969 C971 1.327 . S
C969 C975 1.429 . S
C970 C962 1.574 . S
C970 H965 0.949 . S
C970 C976 1.368 . S
C971 C955 1.349 . S
C971 H963 0.950 . S
C971 C969 1.327 . S
C972 C960 1.349 . S
C972 H966 0.950 . S
C972 C973 1.327 . S
C973 H967 0.950 . S
C973 C972 1.327 . S
C973 C977 1.429 . S
C974 C957 1.574 . S
C974 H968 0.949 . S
C974 C978 1.368 . S
C975 C956 1.429 . S
C975 C969 1.429 . S
C975 C976 1.523 . S
C976 C957 1.368 . S
C976 C970 1.368 . S
C976 C975 1.523 . S
C977 C961 1.429 . S
C977 C973 1.429 . S
C977 C978 1.523 . S
C978 C962 1.368 . S
C978 C974 1.368 . S
C978 C977 1.523 . S
H979 C954 0.950 . S
H980 C956 0.950 . S
H981 C957 0.949 . S
H982 C959 0.950 . S
H983 C961 0.950 . S
C984 C985 1.349 . S
C984 C986 1.327 . S
C984 H1009 0.950 . S
C985 C984 1.349 . S
C985 C1001 1.349 . S
C986 C984 1.327 . S
C986 C1005 1.429 . S
C986 H1010 0.950 . S
C987 C1004 1.574 . S
C987 C1006 1.368 . S
C987 H1011 0.949 . S
H988 C992 0.949 . S
C989 C990 1.349 . S
C989 C991 1.327 . S
C989 H1012 0.950 . S
C990 C989 1.349 . S
C990 C1002 1.349 . S
C991 C989 1.327 . S
C991 C1007 1.429 . S
C991 H1013 0.950 . S
C992 H988 0.949 . S
C992 C1000 1.574 . S
C992 C1008 1.368 . S
H993 C1001 0.950 . S
H994 C999 0.950 . S
H995 C1000 0.949 . S
H996 C1002 0.950 . S
H997 C1003 0.950 . S
H998 C1004 0.949 . S
C999 H994 0.950 . S
C999 C1001 1.327 . S
C999 C1005 1.429 . S
C1000 C992 1.574 . S
C1000 H995 0.949 . S
C1000 C1006 1.368 . S
C1001 C985 1.349 . S
C1001 H993 0.950 . S
C1001 C999 1.327 . S
C1002 C990 1.349 . S
C1002 H996 0.950 . S
C1002 C1003 1.327 . S
C1003 H997 0.950 . S
C1003 C1002 1.327 . S
C1003 C1007 1.429 . S
C1004 C987 1.574 . S
C1004 H998 0.949 . S
C1004 C1008 1.368 . S
C1005 C986 1.429 . S
C1005 C999 1.429 . S
C1005 C1006 1.523 . S
C1006 C987 1.368 . S
C1006 C1000 1.368 . S
C1006 C1005 1.523 . S
C1007 C991 1.429 . S
C1007 C1003 1.429 . S
C1007 C1008 1.523 . S
C1008 C992 1.368 . S
C1008 C1004 1.368 . S
C1008 C1007 1.523 . S
H1009 C984 0.950 . S
H1010 C986 0.950 . S
H1011 C987 0.949 . S
H1012 C989 0.950 . S
H1013 C991 0.950 . S
C1014 C1015 1.349 . S
C1014 C1016 1.327 . S
C1014 H1039 0.950 . S
C1015 C1014 1.349 . S
C1015 C1031 1.349 . S
C1016 C1014 1.327 . S
C1016 C1035 1.429 . S
C1016 H1040 0.950 . S
C1017 C1034 1.574 1_545 S
C1017 C1036 1.368 . S
C1017 H1041 0.949 . S
H1018 C1022 0.949 . S
C1019 C1020 1.349 . S
C1019 C1021 1.327 . S
C1019 H1042 0.950 . S
C1020 C1019 1.349 . S
C1020 C1032 1.349 . S
C1021 C1019 1.327 . S
C1021 C1037 1.429 . S
C1021 H1043 0.950 . S
C1022 H1018 0.949 . S
C1022 C1030 1.574 . S
C1022 C1038 1.368 . S
H1023 C1031 0.950 . S
H1024 C1029 0.950 . S
H1025 C1030 0.949 . S
H1026 C1032 0.950 . S
H1027 C1033 0.950 . S
H1028 C1034 0.949 . S
C1029 H1024 0.950 . S
C1029 C1031 1.327 . S
C1029 C1035 1.429 . S
C1030 C1022 1.574 . S
C1030 H1025 0.949 . S
C1030 C1036 1.368 . S
C1031 C1015 1.349 . S
C1031 H1023 0.950 . S
C1031 C1029 1.327 . S
C1032 C1020 1.349 . S
C1032 H1026 0.950 . S
C1032 C1033 1.327 . S
C1033 H1027 0.950 . S
C1033 C1032 1.327 . S
C1033 C1037 1.429 . S
C1034 C1017 1.574 1_565 S
C1034 H1028 0.949 . S
C1034 C1038 1.368 1_565 S
C1035 C1016 1.429 . S
C1035 C1029 1.429 . S
C1035 C1036 1.523 . S
C1036 C1017 1.368 . S
C1036 C1030 1.368 . S
C1036 C1035 1.523 . S
C1037 C1021 1.429 . S
C1037 C1033 1.429 . S
C1037 C1038 1.523 1_565 S
C1038 C1022 1.368 . S
C1038 C1034 1.368 1_545 S
C1038 C1037 1.523 1_545 S
H1039 C1014 0.950 . S
H1040 C1016 0.950 . S
H1041 C1017 0.949 . S
H1042 C1019 0.950 . S
H1043 C1021 0.950 . S
C1044 C1045 1.349 . S
C1044 C1046 1.327 . S
C1044 H1069 0.950 . S
C1045 C1044 1.349 . S
C1045 C1061 1.349 . S
C1046 C1044 1.327 . S
C1046 C1065 1.429 . S
C1046 H1070 0.950 . S
C1047 C1064 1.574 . S
C1047 C1066 1.368 . S
C1047 H1071 0.949 . S
H1048 C1052 0.949 . S
C1049 C1050 1.349 . S
C1049 C1051 1.327 . S
C1049 H1072 0.950 . S
C1050 C1049 1.349 . S
C1050 C1062 1.349 . S
C1051 C1049 1.327 . S
C1051 C1067 1.429 . S
C1051 H1073 0.950 . S
C1052 H1048 0.949 . S
C1052 C1060 1.574 . S
C1052 C1068 1.368 . S
H1053 C1061 0.950 . S
H1054 C1059 0.950 . S
H1055 C1060 0.949 . S
H1056 C1062 0.950 . S
H1057 C1063 0.950 . S
H1058 C1064 0.949 . S
C1059 H1054 0.950 . S
C1059 C1061 1.327 . S
C1059 C1065 1.429 . S
C1060 C1052 1.574 . S
C1060 H1055 0.949 . S
C1060 C1066 1.368 . S
C1061 C1045 1.349 . S
C1061 H1053 0.950 . S
C1061 C1059 1.327 . S
C1062 C1050 1.349 . S
C1062 H1056 0.950 . S
C1062 C1063 1.327 . S
C1063 H1057 0.950 . S
C1063 C1062 1.327 . S
C1063 C1067 1.429 . S
C1064 C1047 1.574 . S
C1064 H1058 0.949 . S
C1064 C1068 1.368 . S
C1065 C1046 1.429 . S
C1065 C1059 1.429 . S
C1065 C1066 1.523 . S
C1066 C1047 1.368 . S
C1066 C1060 1.368 . S
C1066 C1065 1.523 . S
C1067 C1051 1.429 . S
C1067 C1063 1.429 . S
C1067 C1068 1.523 . S
C1068 C1052 1.368 . S
C1068 C1064 1.368 . S
C1068 C1067 1.523 . S
H1069 C1044 0.950 . S
H1070 C1046 0.950 . S
H1071 C1047 0.949 . S
H1072 C1049 0.950 . S
H1073 C1051 0.950 . S
C1074 C1075 1.349 . S
C1074 C1076 1.327 . S
C1074 H1099 0.950 . S
C1075 C1074 1.349 . S
C1075 C1091 1.349 . S
C1076 C1074 1.327 . S
C1076 C1095 1.429 . S
C1076 H1100 0.950 . S
C1077 C1094 1.574 . S
C1077 C1096 1.368 . S
C1077 H1101 0.961 . S
H1078 C1082 0.949 . S
C1079 C1080 1.349 . S
C1079 C1081 1.327 . S
C1079 H1102 0.950 . S
C1080 C1079 1.349 . S
C1080 C1092 1.349 . S
C1081 C1079 1.327 . S
C1081 C1097 1.429 . S
C1081 H1103 0.950 . S
C1082 H1078 0.949 . S
C1082 C1090 1.574 . S
C1082 C1098 1.368 . S
H1083 C1091 0.950 . S
H1084 C1089 0.950 . S
H1085 C1090 0.949 . S
H1086 C1092 0.950 . S
H1087 C1093 0.950 . S
H1088 C1094 0.949 . S
C1089 H1084 0.950 . S
C1089 C1091 1.327 . S
C1089 C1095 1.429 . S
C1090 C1082 1.574 . S
C1090 H1085 0.949 . S
C1090 C1096 1.368 . S
C1091 C1075 1.349 . S
C1091 H1083 0.950 . S
C1091 C1089 1.327 . S
C1092 C1080 1.349 . S
C1092 H1086 0.950 . S
C1092 C1093 1.327 . S
C1093 H1087 0.950 . S
C1093 C1092 1.327 . S
C1093 C1097 1.429 . S
C1094 C1077 1.574 . S
C1094 H1088 0.949 . S
C1094 C1098 1.368 . S
C1095 C1076 1.429 . S
C1095 C1089 1.429 . S
C1095 C1096 1.523 1_545 S
C1096 C1077 1.368 . S
C1096 C1090 1.368 . S
C1096 C1095 1.523 1_565 S
C1097 C1081 1.429 . S
C1097 C1093 1.429 . S
C1097 C1098 1.523 . S
C1098 C1082 1.368 . S
C1098 C1094 1.368 . S
C1098 C1097 1.523 . S
H1099 C1074 0.950 . S
H1100 C1076 0.950 . S
H1101 C1077 0.961 . S
H1102 C1079 0.950 . S
H1103 C1081 0.950 . S
C1104 C1105 1.349 . S
C1104 C1106 1.327 . S
C1104 H1129 0.950 . S
C1105 C1104 1.349 . S
C1105 C1121 1.349 . S
C1106 C1104 1.327 . S
C1106 C1125 1.429 . S
C1106 H1130 0.950 . S
C1107 C1124 1.574 . S
C1107 C1126 1.368 . S
C1107 H1131 0.949 . S
H1108 C1112 0.949 . S
C1109 C1110 1.349 . S
C1109 C1111 1.327 . S
C1109 H1132 0.950 . S
C1110 C1109 1.349 . S
C1110 C1122 1.349 . S
C1111 C1109 1.327 . S
C1111 C1127 1.429 . S
C1111 H1133 0.950 . S
C1112 H1108 0.949 . S
C1112 C1120 1.574 . S
C1112 C1128 1.368 . S
H1113 C1121 0.950 . S
H1114 C1119 0.950 . S
H1115 C1120 0.949 . S
H1116 C1122 0.950 . S
H1117 C1123 0.950 . S
H1118 C1124 0.949 . S
C1119 H1114 0.950 . S
C1119 C1121 1.327 . S
C1119 C1125 1.429 . S
C1120 C1112 1.574 . S
C1120 H1115 0.949 . S
C1120 C1126 1.368 . S
C1121 C1105 1.349 . S
C1121 H1113 0.950 . S
C1121 C1119 1.327 . S
C1122 C1110 1.349 . S
C1122 H1116 0.950 . S
C1122 C1123 1.327 . S
C1123 H1117 0.950 . S
C1123 C1122 1.327 . S
C1123 C1127 1.429 . S
C1124 C1107 1.574 . S
C1124 H1118 0.949 . S
C1124 C1128 1.368 . S
C1125 C1106 1.429 . S
C1125 C1119 1.429 . S
C1125 C1126 1.523 . S
C1126 C1107 1.368 . S
C1126 C1120 1.368 . S
C1126 C1125 1.523 . S
C1127 C1111 1.429 . S
C1127 C1123 1.429 . S
C1127 C1128 1.523 . S
C1128 C1112 1.368 . S
C1128 C1124 1.368 . S
C1128 C1127 1.523 . S
H1129 C1104 0.950 . S
H1130 C1106 0.950 . S
H1131 C1107 0.949 . S
H1132 C1109 0.950 . S
H1133 C1111 0.950 . S
C1134 C1135 1.349 . S
C1134 C1136 1.327 . S
C1134 H1159 0.950 . S
C1135 C1134 1.349 . S
C1135 C1151 1.349 . S
C1136 C1134 1.327 . S
C1136 C1155 1.429 . S
C1136 H1160 0.950 . S
C1137 C1154 1.574 . S
C1137 C1156 1.368 . S
C1137 H1161 0.949 . S
H1138 C1142 0.949 . S
C1139 C1140 1.349 . S
C1139 C1141 1.327 . S
C1139 H1162 0.950 . S
C1140 C1139 1.349 . S
C1140 C1152 1.349 . S
C1141 C1139 1.327 . S
C1141 C1157 1.429 . S
C1141 H1163 0.950 . S
C1142 H1138 0.949 . S
C1142 C1150 1.574 . S
C1142 C1158 1.368 . S
H1143 C1151 0.950 . S
H1144 C1149 0.950 . S
H1145 C1150 0.949 . S
H1146 C1152 0.950 . S
H1147 C1153 0.950 . S
H1148 C1154 0.949 . S
C1149 H1144 0.950 . S
C1149 C1151 1.327 . S
C1149 C1155 1.429 . S
C1150 C1142 1.574 . S
C1150 H1145 0.949 . S
C1150 C1156 1.368 . S
C1151 C1135 1.349 . S
C1151 H1143 0.950 . S
C1151 C1149 1.327 . S
C1152 C1140 1.349 . S
C1152 H1146 0.950 . S
C1152 C1153 1.327 . S
C1153 H1147 0.950 . S
C1153 C1152 1.327 . S
C1153 C1157 1.429 . S
C1154 C1137 1.574 . S
C1154 H1148 0.949 . S
C1154 C1158 1.368 . S
C1155 C1136 1.429 . S
C1155 C1149 1.429 . S
C1155 C1156 1.523 . S
C1156 C1137 1.368 . S
C1156 C1150 1.368 . S
C1156 C1155 1.523 . S
C1157 C1141 1.429 . S
C1157 C1153 1.429 . S
C1157 C1158 1.523 . S
C1158 C1142 1.368 . S
C1158 C1154 1.368 . S
C1158 C1157 1.523 . S
H1159 C1134 0.950 . S
H1160 C1136 0.950 . S
H1161 C1137 0.949 . S
H1162 C1139 0.950 . S
H1163 C1141 0.950 . S
C1164 C1165 1.349 . S
C1164 C1166 1.327 . S
C1164 H1189 0.950 . S
C1165 C1164 1.349 . S
C1165 C1181 1.349 . S
C1166 C1164 1.327 . S
C1166 C1185 1.429 . S
C1166 H1190 0.950 . S
C1167 C1184 1.574 . S
C1167 C1186 1.368 . S
C1167 H1191 0.949 . S
H1168 C1172 0.949 . S
C1169 C1170 1.349 . S
C1169 C1171 1.327 . S
C1169 H1192 0.950 . S
C1170 C1169 1.349 . S
C1170 C1182 1.349 . S
C1171 C1169 1.327 . S
C1171 C1187 1.429 . S
C1171 H1193 0.950 . S
C1172 H1168 0.949 . S
C1172 C1180 1.574 . S
C1172 C1188 1.368 . S
H1173 C1181 0.950 . S
H1174 C1179 0.950 . S
H1175 C1180 0.949 . S
H1176 C1182 0.950 . S
H1177 C1183 0.950 . S
H1178 C1184 0.949 . S
C1179 H1174 0.950 . S
C1179 C1181 1.327 . S
C1179 C1185 1.429 . S
C1180 C1172 1.574 . S
C1180 H1175 0.949 . S
C1180 C1186 1.368 . S
C1181 C1165 1.349 . S
C1181 H1173 0.950 . S
C1181 C1179 1.327 . S
C1182 C1170 1.349 . S
C1182 H1176 0.950 . S
C1182 C1183 1.327 . S
C1183 H1177 0.950 . S
C1183 C1182 1.327 . S
C1183 C1187 1.429 . S
C1184 C1167 1.574 . S
C1184 H1178 0.949 . S
C1184 C1188 1.368 . S
C1185 C1166 1.429 . S
C1185 C1179 1.429 . S
C1185 C1186 1.523 . S
C1186 C1167 1.368 . S
C1186 C1180 1.368 . S
C1186 C1185 1.523 . S
C1187 C1171 1.429 . S
C1187 C1183 1.429 . S
C1187 C1188 1.523 . S
C1188 C1172 1.368 . S
C1188 C1184 1.368 . S
C1188 C1187 1.523 . S
H1189 C1164 0.950 . S
H1190 C1166 0.950 . S
H1191 C1167 0.949 . S
H1192 C1169 0.950 . S
H1193 C1171 0.950 . S
C1194 C1195 1.349 . S
C1194 C1196 1.327 . S
C1194 H1219 0.950 . S
C1195 C1194 1.349 . S
C1195 C1211 1.349 . S
C1196 C1194 1.327 . S
C1196 C1215 1.429 . S
C1196 H1220 0.950 . S
C1197 C1214 1.574 . S
C1197 C1216 1.368 . S
C1197 H1221 0.949 . S
H1198 C1202 0.949 . S
C1199 C1200 1.349 . S
C1199 C1201 1.327 . S
C1199 H1222 0.950 . S
C1200 C1199 1.349 . S
C1200 C1212 1.349 . S
C1201 C1199 1.327 . S
C1201 C1217 1.429 . S
C1201 H1223 0.950 . S
C1202 H1198 0.949 . S
C1202 C1210 1.574 . S
C1202 C1218 1.368 . S
H1203 C1211 0.950 . S
H1204 C1209 0.950 . S
H1205 C1210 0.949 . S
H1206 C1212 0.950 . S
H1207 C1213 0.950 . S
H1208 C1214 0.949 . S
C1209 H1204 0.950 . S
C1209 C1211 1.327 . S
C1209 C1215 1.429 . S
C1210 C1202 1.574 . S
C1210 H1205 0.949 . S
C1210 C1216 1.368 . S
C1211 C1195 1.349 . S
C1211 H1203 0.950 . S
C1211 C1209 1.327 . S
C1212 C1200 1.349 . S
C1212 H1206 0.950 . S
C1212 C1213 1.327 . S
C1213 H1207 0.950 . S
C1213 C1212 1.327 . S
C1213 C1217 1.429 . S
C1214 C1197 1.574 . S
C1214 H1208 0.949 . S
C1214 C1218 1.368 . S
C1215 C1196 1.429 . S
C1215 C1209 1.429 . S
C1215 C1216 1.523 . S
C1216 C1197 1.368 . S
C1216 C1210 1.368 . S
C1216 C1215 1.523 . S
C1217 C1201 1.429 . S
C1217 C1213 1.429 . S
C1217 C1218 1.523 . S
C1218 C1202 1.368 . S
C1218 C1214 1.368 . S
C1218 C1217 1.523 . S
H1219 C1194 0.950 . S
H1220 C1196 0.950 . S
H1221 C1197 0.949 . S
H1222 C1199 0.950 . S
H1223 C1201 0.950 . S
C1224 C1225 1.349 . S
C1224 C1226 1.327 . S
C1224 H1249 0.950 . S
C1225 C1224 1.349 . S
C1225 C1241 1.349 . S
C1226 C1224 1.327 . S
C1226 C1245 1.429 . S
C1226 H1250 0.950 . S
C1227 C1244 1.574 . S
C1227 C1246 1.368 . S
C1227 H1251 0.949 . S
H1228 C1232 0.949 . S
C1229 C1230 1.349 . S
C1229 C1231 1.327 . S
C1229 H1252 0.950 . S
C1230 C1229 1.349 . S
C1230 C1242 1.349 . S
C1231 C1229 1.327 . S
C1231 C1247 1.429 . S
C1231 H1253 0.950 . S
C1232 H1228 0.949 . S
C1232 C1240 1.574 . S
C1232 C1248 1.368 . S
H1233 C1241 0.950 . S
H1234 C1239 0.950 . S
H1235 C1240 0.949 . S
H1236 C1242 0.950 . S
H1237 C1243 0.950 . S
H1238 C1244 0.949 . S
C1239 H1234 0.950 . S
C1239 C1241 1.327 . S
C1239 C1245 1.429 . S
C1240 C1232 1.574 . S
C1240 H1235 0.949 . S
C1240 C1246 1.368 . S
C1241 C1225 1.349 . S
C1241 H1233 0.950 . S
C1241 C1239 1.327 . S
C1242 C1230 1.349 . S
C1242 H1236 0.950 . S
C1242 C1243 1.327 . S
C1243 H1237 0.950 . S
C1243 C1242 1.327 . S
C1243 C1247 1.429 . S
C1244 C1227 1.574 . S
C1244 H1238 0.949 . S
C1244 C1248 1.368 . S
C1245 C1226 1.429 . S
C1245 C1239 1.429 . S
C1245 C1246 1.523 . S
C1246 C1227 1.368 . S
C1246 C1240 1.368 . S
C1246 C1245 1.523 . S
C1247 C1231 1.429 . S
C1247 C1243 1.429 . S
C1247 C1248 1.523 . S
C1248 C1232 1.368 . S
C1248 C1244 1.368 . S
C1248 C1247 1.523 . S
H1249 C1224 0.950 . S
H1250 C1226 0.950 . S
H1251 C1227 0.949 . S
H1252 C1229 0.950 . S
H1253 C1231 0.950 . S
C1254 C1255 1.349 . S
C1254 C1256 1.327 . S
C1254 H1279 0.950 . S
C1255 C1254 1.349 . S
C1255 C1271 1.349 . S
C1256 C1254 1.327 . S
C1256 C1275 1.429 . S
C1256 H1280 0.950 . S
C1257 C1274 1.574 . S
C1257 C1276 1.368 . S
C1257 H1281 0.949 . S
H1258 C1262 0.949 . S
C1259 C1260 1.349 . S
C1259 C1261 1.327 . S
C1259 H1282 0.950 . S
C1260 C1259 1.349 . S
C1260 C1272 1.349 . S
C1261 C1259 1.327 . S
C1261 C1277 1.429 . S
C1261 H1283 0.950 . S
C1262 H1258 0.949 . S
C1262 C1270 1.574 . S
C1262 C1278 1.368 . S
H1263 C1271 0.950 . S
H1264 C1269 0.950 . S
H1265 C1270 0.949 . S
H1266 C1272 0.950 . S
H1267 C1273 0.950 . S
H1268 C1274 0.949 . S
C1269 H1264 0.950 . S
C1269 C1271 1.327 . S
C1269 C1275 1.429 . S
C1270 C1262 1.574 . S
C1270 H1265 0.949 . S
C1270 C1276 1.368 . S
C1271 C1255 1.349 . S
C1271 H1263 0.950 . S
C1271 C1269 1.327 . S
C1272 C1260 1.349 . S
C1272 H1266 0.950 . S
C1272 C1273 1.327 . S
C1273 H1267 0.950 . S
C1273 C1272 1.327 . S
C1273 C1277 1.429 . S
C1274 C1257 1.574 . S
C1274 H1268 0.949 . S
C1274 C1278 1.368 . S
C1275 C1256 1.429 . S
C1275 C1269 1.429 . S
C1275 C1276 1.523 . S
C1276 C1257 1.368 . S
C1276 C1270 1.368 . S
C1276 C1275 1.523 . S
C1277 C1261 1.429 . S
C1277 C1273 1.429 . S
C1277 C1278 1.523 . S
C1278 C1262 1.368 . S
C1278 C1274 1.368 . S
C1278 C1277 1.523 . S
H1279 C1254 0.950 . S
H1280 C1256 0.950 . S
H1281 C1257 0.949 . S
H1282 C1259 0.950 . S
H1283 C1261 0.950 . S
C1284 C1285 1.349 . S
C1284 C1286 1.327 . S
C1284 H1309 0.950 . S
C1285 C1284 1.349 . S
C1285 C1301 1.349 . S
C1286 C1284 1.327 . S
C1286 C1305 1.429 . S
C1286 H1310 0.950 . S
C1287 C1304 1.574 . S
C1287 C1306 1.368 . S
C1287 H1311 0.949 . S
H1288 C1292 0.949 . S
C1289 C1290 1.349 . S
C1289 C1291 1.327 . S
C1289 H1312 0.950 . S
C1290 C1289 1.349 . S
C1290 C1302 1.349 . S
C1291 C1289 1.327 . S
C1291 C1307 1.429 . S
C1291 H1313 0.950 . S
C1292 H1288 0.949 . S
C1292 C1300 1.574 . S
C1292 C1308 1.368 . S
H1293 C1301 0.950 . S
H1294 C1299 0.950 . S
H1295 C1300 0.949 . S
H1296 C1302 0.950 . S
H1297 C1303 0.950 . S
H1298 C1304 0.949 1_655 S
C1299 H1294 0.950 . S
C1299 C1301 1.327 . S
C1299 C1305 1.429 . S
C1300 C1292 1.574 . S
C1300 H1295 0.949 . S
C1300 C1306 1.368 . S
C1301 C1285 1.349 . S
C1301 H1293 0.950 . S
C1301 C1299 1.327 . S
C1302 C1290 1.349 . S
C1302 H1296 0.950 . S
C1302 C1303 1.327 . S
C1303 H1297 0.950 . S
C1303 C1302 1.327 . S
C1303 C1307 1.429 . S
C1304 C1287 1.574 . S
C1304 H1298 0.949 1_455 S
C1304 C1308 1.368 . S
C1305 C1286 1.429 . S
C1305 C1299 1.429 . S
C1305 C1306 1.523 . S
C1306 C1287 1.368 . S
C1306 C1300 1.368 . S
C1306 C1305 1.523 . S
C1307 C1291 1.429 . S
C1307 C1303 1.429 . S
C1307 C1308 1.523 1_655 S
C1308 C1292 1.368 . S
C1308 C1304 1.368 . S
C1308 C1307 1.523 1_455 S
H1309 C1284 0.950 . S
H1310 C1286 0.950 . S
H1311 C1287 0.949 . S
H1312 C1289 0.950 . S
H1313 C1291 0.950 . S
C1314 C1315 1.349 . S
C1314 C1316 1.327 . S
C1314 H1339 0.950 . S
C1315 C1314 1.349 . S
C1315 C1331 1.349 . S
C1316 C1314 1.327 . S
C1316 C1335 1.429 . S
C1316 H1340 0.950 . S
C1317 C1334 1.574 . S
C1317 C1336 1.368 . S
C1317 H1341 0.949 . S
H1318 C1322 0.949 . S
C1319 C1320 1.349 . S
C1319 C1321 1.327 . S
C1319 H1342 0.950 . S
C1320 C1319 1.349 . S
C1320 C1332 1.349 . S
C1321 C1319 1.327 . S
C1321 C1337 1.429 . S
C1321 H1343 0.950 . S
C1322 H1318 0.949 . S
C1322 C1330 1.574 . S
C1322 C1338 1.368 . S
H1323 C1331 0.950 . S
H1324 C1329 0.950 . S
H1325 C1330 0.949 . S
H1326 C1332 0.950 . S
H1327 C1333 0.950 . S
H1328 C1334 0.949 . S
C1329 H1324 0.950 . S
C1329 C1331 1.327 . S
C1329 C1335 1.429 . S
C1330 C1322 1.574 . S
C1330 H1325 0.949 . S
C1330 C1336 1.368 . S
C1331 C1315 1.349 . S
C1331 H1323 0.950 . S
C1331 C1329 1.327 . S
C1332 C1320 1.349 . S
C1332 H1326 0.950 . S
C1332 C1333 1.327 . S
C1333 H1327 0.950 . S
C1333 C1332 1.327 . S
C1333 C1337 1.429 . S
C1334 C1317 1.574 . S
C1334 H1328 0.949 . S
C1334 C1338 1.368 . S
C1335 C1316 1.429 . S
C1335 C1329 1.429 . S
C1335 C1336 1.523 . S
C1336 C1317 1.368 . S
C1336 C1330 1.368 . S
C1336 C1335 1.523 . S
C1337 C1321 1.429 . S
C1337 C1333 1.429 . S
C1337 C1338 1.523 . S
C1338 C1322 1.368 . S
C1338 C1334 1.368 . S
C1338 C1337 1.523 . S
H1339 C1314 0.950 . S
H1340 C1316 0.950 . S
H1341 C1317 0.949 . S
H1342 C1319 0.950 . S
H1343 C1321 0.950 . S
C1344 C1345 1.349 . S
C1344 C1346 1.327 . S
C1344 H1369 0.950 . S
C1345 C1344 1.349 . S
C1345 C1361 1.349 . S
C1346 C1344 1.327 . S
C1346 C1365 1.429 . S
C1346 H1370 0.950 . S
C1347 C1364 1.574 . S
C1347 C1366 1.368 . S
C1347 H1371 0.949 . S
H1348 C1352 0.949 . S
C1349 C1350 1.349 . S
C1349 C1351 1.327 . S
C1349 H1372 0.950 . S
C1350 C1349 1.349 . S
C1350 C1362 1.349 . S
C1351 C1349 1.327 . S
C1351 C1367 1.429 . S
C1351 H1373 0.950 . S
C1352 H1348 0.949 . S
C1352 C1360 1.574 . S
C1352 C1368 1.368 . S
H1353 C1361 0.950 . S
H1354 C1359 0.950 . S
H1355 C1360 0.949 . S
H1356 C1362 0.950 . S
H1357 C1363 0.950 . S
H1358 C1364 0.949 . S
C1359 H1354 0.950 . S
C1359 C1361 1.327 . S
C1359 C1365 1.429 . S
C1360 C1352 1.574 . S
C1360 H1355 0.949 . S
C1360 C1366 1.368 . S
C1361 C1345 1.349 . S
C1361 H1353 0.950 . S
C1361 C1359 1.327 . S
C1362 C1350 1.349 . S
C1362 H1356 0.950 . S
C1362 C1363 1.327 . S
C1363 H1357 0.950 . S
C1363 C1362 1.327 . S
C1363 C1367 1.429 . S
C1364 C1347 1.574 . S
C1364 H1358 0.949 . S
C1364 C1368 1.368 . S
C1365 C1346 1.429 . S
C1365 C1359 1.429 . S
C1365 C1366 1.523 . S
C1366 C1347 1.368 . S
C1366 C1360 1.368 . S
C1366 C1365 1.523 . S
C1367 C1351 1.429 . S
C1367 C1363 1.429 . S
C1367 C1368 1.523 . S
C1368 C1352 1.368 . S
C1368 C1364 1.368 . S
C1368 C1367 1.523 . S
H1369 C1344 0.950 . S
H1370 C1346 0.950 . S
H1371 C1347 0.949 . S
H1372 C1349 0.950 . S
H1373 C1351 0.950 . S
C1374 C1375 1.349 . S
C1374 C1376 1.327 . S
C1374 H1399 0.950 . S
C1375 C1374 1.349 . S
C1375 C1391 1.349 . S
C1376 C1374 1.327 . S
C1376 C1395 1.429 . S
C1376 H1400 0.950 . S
C1377 C1394 1.574 . S
C1377 C1396 1.368 . S
C1377 H1401 0.949 . S
H1378 C1382 0.949 . S
C1379 C1380 1.349 . S
C1379 C1381 1.327 . S
C1379 H1402 0.950 . S
C1380 C1379 1.349 . S
C1380 C1392 1.349 . S
C1381 C1379 1.327 . S
C1381 C1397 1.429 . S
C1381 H1403 0.950 . S
C1382 H1378 0.949 . S
C1382 C1390 1.574 . S
C1382 C1398 1.368 . S
H1383 C1391 0.950 . S
H1384 C1389 0.950 . S
H1385 C1390 0.949 . S
H1386 C1392 0.950 . S
H1387 C1393 0.950 . S
H1388 C1394 0.949 . S
C1389 H1384 0.950 . S
C1389 C1391 1.327 . S
C1389 C1395 1.429 . S
C1390 C1382 1.574 . S
C1390 H1385 0.949 . S
C1390 C1396 1.368 . S
C1391 C1375 1.349 . S
C1391 H1383 0.950 . S
C1391 C1389 1.327 . S
C1392 C1380 1.349 . S
C1392 H1386 0.950 . S
C1392 C1393 1.327 . S
C1393 H1387 0.950 . S
C1393 C1392 1.327 . S
C1393 C1397 1.429 . S
C1394 C1377 1.574 . S
C1394 H1388 0.949 . S
C1394 C1398 1.368 . S
C1395 C1376 1.429 . S
C1395 C1389 1.429 . S
C1395 C1396 1.523 . S
C1396 C1377 1.368 . S
C1396 C1390 1.368 . S
C1396 C1395 1.523 . S
C1397 C1381 1.429 . S
C1397 C1393 1.429 . S
C1397 C1398 1.523 . S
C1398 C1382 1.368 . S
C1398 C1394 1.368 . S
C1398 C1397 1.523 . S
H1399 C1374 0.950 . S
H1400 C1376 0.950 . S
H1401 C1377 0.949 . S
H1402 C1379 0.950 . S
H1403 C1381 0.950 . S
C1404 C1405 1.349 . S
C1404 C1406 1.327 . S
C1404 H1429 0.950 . S
C1405 C1404 1.349 . S
C1405 C1421 1.349 . S
C1406 C1404 1.327 . S
C1406 C1425 1.429 . S
C1406 H1430 0.950 . S
C1407 C1424 1.574 . S
C1407 C1426 1.368 . S
C1407 H1431 0.949 . S
H1408 C1412 0.949 . S
C1409 C1410 1.349 . S
C1409 C1411 1.327 . S
C1409 H1432 0.950 . S
C1410 C1409 1.349 . S
C1410 C1422 1.349 . S
C1411 C1409 1.327 . S
C1411 C1427 1.429 . S
C1411 H1433 0.950 . S
C1412 H1408 0.949 . S
C1412 C1420 1.574 . S
C1412 C1428 1.368 . S
H1413 C1421 0.950 . S
H1414 C1419 0.950 . S
H1415 C1420 0.949 . S
H1416 C1422 0.950 . S
H1417 C1423 0.950 . S
H1418 C1424 0.949 . S
C1419 H1414 0.950 . S
C1419 C1421 1.327 . S
C1419 C1425 1.429 . S
C1420 C1412 1.574 . S
C1420 H1415 0.949 . S
C1420 C1426 1.368 . S
C1421 C1405 1.349 . S
C1421 H1413 0.950 . S
C1421 C1419 1.327 . S
C1422 C1410 1.349 . S
C1422 H1416 0.950 . S
C1422 C1423 1.327 . S
C1423 H1417 0.950 . S
C1423 C1422 1.327 . S
C1423 C1427 1.429 . S
C1424 C1407 1.574 . S
C1424 H1418 0.949 . S
C1424 C1428 1.368 . S
C1425 C1406 1.429 . S
C1425 C1419 1.429 . S
C1425 C1426 1.523 . S
C1426 C1407 1.368 . S
C1426 C1420 1.368 . S
C1426 C1425 1.523 . S
C1427 C1411 1.429 . S
C1427 C1423 1.429 . S
C1427 C1428 1.523 . S
C1428 C1412 1.368 . S
C1428 C1424 1.368 . S
C1428 C1427 1.523 . S
H1429 C1404 0.950 . S
H1430 C1406 0.950 . S
H1431 C1407 0.949 . S
H1432 C1409 0.950 . S
H1433 C1411 0.950 . S
C1434 C1435 1.349 . S
C1434 C1436 1.327 . S
C1434 H1459 0.950 . S
C1435 C1434 1.349 . S
C1435 C1451 1.349 . S
C1436 C1434 1.327 . S
C1436 C1455 1.429 . S
C1436 H1460 0.950 . S
C1437 C1454 1.574 1_655 S
C1437 C1456 1.368 . S
C1437 H1461 0.949 . S
H1438 C1442 0.949 . S
C1439 C1440 1.349 . S
C1439 C1441 1.327 . S
C1439 H1462 0.950 . S
C1440 C1439 1.349 . S
C1440 C1452 1.349 . S
C1441 C1439 1.327 . S
C1441 C1457 1.429 . S
C1441 H1463 0.950 . S
C1442 H1438 0.949 . S
C1442 C1450 1.574 . S
C1442 C1458 1.368 . S
H1443 C1451 0.950 . S
H1444 C1449 0.950 . S
H1445 C1450 0.949 . S
H1446 C1452 0.950 . S
H1447 C1453 0.950 . S
H1448 C1454 0.949 . S
C1449 H1444 0.950 . S
C1449 C1451 1.327 . S
C1449 C1455 1.429 . S
C1450 C1442 1.574 . S
C1450 H1445 0.949 . S
C1450 C1456 1.368 . S
C1451 C1435 1.349 . S
C1451 H1443 0.950 . S
C1451 C1449 1.327 . S
C1452 C1440 1.349 . S
C1452 H1446 0.950 . S
C1452 C1453 1.327 . S
C1453 H1447 0.950 . S
C1453 C1452 1.327 . S
C1453 C1457 1.429 . S
C1454 C1437 1.574 1_455 S
C1454 H1448 0.949 . S
C1454 C1458 1.368 1_455 S
C1455 C1436 1.429 . S
C1455 C1449 1.429 . S
C1455 C1456 1.523 . S
C1456 C1437 1.368 . S
C1456 C1450 1.368 . S
C1456 C1455 1.523 . S
C1457 C1441 1.429 . S
C1457 C1453 1.429 . S
C1457 C1458 1.523 1_455 S
C1458 C1442 1.368 . S
C1458 C1454 1.368 1_655 S
C1458 C1457 1.523 1_655 S
H1459 C1434 0.950 . S
H1460 C1436 0.950 . S
H1461 C1437 0.949 . S
H1462 C1439 0.950 . S
H1463 C1441 0.950 . S
C385 C4 1.188 . S
C390 C356 1.188 . S
C415 C292 1.188 1_565 S
C420 C36 1.188 . S
C445 C93 1.188 1_554 S
C450 C260 1.188 . S
C475 C100 1.188 . S
C480 C324 1.188 1_545 S
C505 C132 1.188 . S
C510 C349 1.188 . S
C535 C189 1.188 . S
C540 C381 1.188 . S
C565 C317 1.188 . S
C570 C196 1.188 1_556 S
C595 C253 1.188 . S
C600 C285 1.188 . S
C625 C125 1.188 . S
C630 C157 1.188 . S
C655 C29 1.188 . S
C660 C164 1.188 1_455 S
C685 C61 1.188 1_655 S
C690 C221 1.188 . S
C715 C228 1.188 . S
C720 C68 1.188 . S
C745 N18 1.144 . S
C750 C262 1.147 . S
C775 N50 1.144 . S
C780 C326 1.147 . S
C805 C358 1.147 . S
C810 N77 1.144 . S
C835 N114 1.144 . S
C840 C294 1.147 . S
C865 N146 1.144 . S
C870 C290 1.147 . S
C895 C258 1.147 . S
C900 N173 1.144 . S
C925 C322 1.147 . S
C930 N210 1.144 . S
C955 C354 1.147 . S
C960 N237 1.144 . S
C985 C2 1.147 . S
C990 N109 1.144 . S
C1015 N13 1.144 . S
C1020 C34 1.147 . S
C1045 N45 1.144 . S
C1050 C70 1.147 . S
C1075 C98 1.147 . S
C1080 N82 1.144 . S
C1105 N178 1.144 . S
C1110 C130 1.147 . S
C1135 C166 1.147 . S
C1140 N205 1.144 . S
C1165 C194 1.147 . S
C1170 N242 1.144 . S
C1195 N141 1.144 . S
C1200 C230 1.147 . S
C1225 N269 1.144 . S
C1230 C102 1.147 . S
C1255 C162 1.147 . S
C1260 N306 1.144 . S
C1285 N274 1.144 . S
C1290 C198 1.147 . S
C1315 N338 1.144 . S
C1320 C226 1.147 . S
C1345 C134 1.147 . S
C1350 N370 1.144 . S
C1375 N365 1.144 . S
C1380 C38 1.147 . S
C1405 C66 1.147 . S
C1410 N301 1.144 . S
C1435 N333 1.144 . S
C1440 C6 1.147 . S
