# Generated by pormake.
# Topology ure, (4)-cn, num edge types: 1
# Building blocks:
#     Node 0, Type 0, BuildingBlock: QUQFOY_clean_sbu_1, # of connection points: 4
#     Node 1, Type 0, BuildingBlock: QUQFOY_clean_sbu_1, # of connection points: 4
#     Node 2, Type 0, BuildingBlock: QUQFOY_clean_sbu_1, # of connection points: 4
#     Node 3, Type 0, BuildingBlock: QUQFOY_clean_sbu_1, # of connection points: 4
#     Node 4, Type 0, BuildingBlock: QUQFOY_clean_sbu_1, # of connection points: 4
#     Node 5, Type 0, BuildingBlock: QUQFOY_clean_sbu_1, # of connection points: 4
#     Node 6, Type 0, BuildingBlock: QUQFOY_clean_sbu_1, # of connection points: 4
#     Node 7, Type 0, BuildingBlock: QUQFOY_clean_sbu_1, # of connection points: 4
#     Node 8, Type 0, BuildingBlock: QUQFOY_clean_sbu_1, # of connection points: 4
#     Node 9, Type 0, BuildingBlock: QUQFOY_clean_sbu_1, # of connection points: 4
#     Node 10, Type 0, BuildingBlock: QUQFOY_clean_sbu_1, # of connection points: 4
#     Node 11, Type 0, BuildingBlock: QUQFOY_clean_sbu_1, # of connection points: 4
#     Node 12, Type 0, BuildingBlock: QUQFOY_clean_sbu_1, # of connection points: 4
#     Node 13, Type 0, BuildingBlock: QUQFOY_clean_sbu_1, # of connection points: 4
#     Node 14, Type 0, BuildingBlock: QUQFOY_clean_sbu_1, # of connection points: 4
#     Node 15, Type 0, BuildingBlock: QUQFOY_clean_sbu_1, # of connection points: 4
#     Edge 16, Type (0, 0), BuildingBlock: XIVTED_clean_linker_0, # of connection points: 2
#     Edge 17, Type (0, 0), BuildingBlock: XIVTED_clean_linker_0, # of connection points: 2
#     Edge 18, Type (0, 0), BuildingBlock: XIVTED_clean_linker_0, # of connection points: 2
#     Edge 19, Type (0, 0), BuildingBlock: XIVTED_clean_linker_0, # of connection points: 2
#     Edge 20, Type (0, 0), BuildingBlock: XIVTED_clean_linker_0, # of connection points: 2
#     Edge 21, Type (0, 0), BuildingBlock: XIVTED_clean_linker_0, # of connection points: 2
#     Edge 22, Type (0, 0), BuildingBlock: XIVTED_clean_linker_0, # of connection points: 2
#     Edge 23, Type (0, 0), BuildingBlock: XIVTED_clean_linker_0, # of connection points: 2
#     Edge 24, Type (0, 0), BuildingBlock: XIVTED_clean_linker_0, # of connection points: 2
#     Edge 25, Type (0, 0), BuildingBlock: XIVTED_clean_linker_0, # of connection points: 2
#     Edge 26, Type (0, 0), BuildingBlock: XIVTED_clean_linker_0, # of connection points: 2
#     Edge 27, Type (0, 0), BuildingBlock: XIVTED_clean_linker_0, # of connection points: 2
#     Edge 28, Type (0, 0), BuildingBlock: XIVTED_clean_linker_0, # of connection points: 2
#     Edge 29, Type (0, 0), BuildingBlock: XIVTED_clean_linker_0, # of connection points: 2
#     Edge 30, Type (0, 0), BuildingBlock: XIVTED_clean_linker_0, # of connection points: 2
#     Edge 31, Type (0, 0), BuildingBlock: XIVTED_clean_linker_0, # of connection points: 2
#     Edge 32, Type (0, 0), BuildingBlock: XIVTED_clean_linker_0, # of connection points: 2
#     Edge 33, Type (0, 0), BuildingBlock: XIVTED_clean_linker_0, # of connection points: 2
#     Edge 34, Type (0, 0), BuildingBlock: XIVTED_clean_linker_0, # of connection points: 2
#     Edge 35, Type (0, 0), BuildingBlock: XIVTED_clean_linker_0, # of connection points: 2
#     Edge 36, Type (0, 0), BuildingBlock: XIVTED_clean_linker_0, # of connection points: 2
#     Edge 37, Type (0, 0), BuildingBlock: XIVTED_clean_linker_0, # of connection points: 2
#     Edge 38, Type (0, 0), BuildingBlock: XIVTED_clean_linker_0, # of connection points: 2
#     Edge 39, Type (0, 0), BuildingBlock: XIVTED_clean_linker_0, # of connection points: 2
#     Edge 40, Type (0, 0), BuildingBlock: XIVTED_clean_linker_0, # of connection points: 2
#     Edge 41, Type (0, 0), BuildingBlock: XIVTED_clean_linker_0, # of connection points: 2
#     Edge 42, Type (0, 0), BuildingBlock: XIVTED_clean_linker_0, # of connection points: 2
#     Edge 43, Type (0, 0), BuildingBlock: XIVTED_clean_linker_0, # of connection points: 2
#     Edge 44, Type (0, 0), BuildingBlock: XIVTED_clean_linker_0, # of connection points: 2
#     Edge 45, Type (0, 0), BuildingBlock: XIVTED_clean_linker_0, # of connection points: 2
#     Edge 46, Type (0, 0), BuildingBlock: XIVTED_clean_linker_0, # of connection points: 2
#     Edge 47, Type (0, 0), BuildingBlock: XIVTED_clean_linker_0, # of connection points: 2
# Relax obj value: 0.280
# Max RMSD: 0.317
# Mean RMSD: 0.224
data_MOF--net-ure--node1-QUQFOY_clean_sbu_1--edge1-XIVTED_clean_linker_0
_symmetry_space_group_name_H-M    P1
_symmetry_Int_Tables_number       1
_symmetry_cell_setting            triclinic
loop_
_symmetry_equiv_pos_as_xyz
'x, y, z'
_cell_length_a     31.363894
_cell_length_b     34.512491
_cell_length_c     32.543665
_cell_angle_alpha  94.07357
_cell_angle_beta   94.251043
_cell_angle_gamma 97.626378
loop_
_atom_site_label
_atom_site_type_symbol
_atom_site_fract_x
_atom_site_fract_y
_atom_site_fract_z
_atom_type_partial_charge
O0 O 0.3616 0.21879 0.27714 0.0
Cd1 Cd 0.29896 0.21192 0.29452 0.0
Cd2 Cd 0.32091 0.29222 0.31717 0.0
O3 O 0.37371 0.28344 0.28603 0.0
O4 O 0.26906 0.16224 0.26455 0.0
O5 O 0.25053 0.22061 0.25368 0.0
C6 C 0.24457 0.18307 0.24467 0.0
C7 C 0.29774 0.35385 0.31313 0.0
C8 C 0.38573 0.251 0.27436 0.0
C9 C 0.30362 0.23627 0.38411 0.0
O10 O 0.31796 0.27016 0.37415 0.0
O11 O 0.29044 0.20838 0.35665 0.0
O12 O 0.33249 0.34938 0.33472 0.0
O13 O 0.27569 0.32315 0.29313 0.0
O14 O 0.00755 0.96377 0.54765 0.0
Cd15 Cd 0.98823 0.95128 0.48573 0.0
Cd16 Cd 0.98877 0.03865 0.49456 0.0
O17 O 0.0163 0.02864 0.55203 0.0
O18 O 0.00499 0.89866 0.47216 0.0
O19 O 0.03299 0.95204 0.44443 0.0
C20 C 0.03188 0.9149 0.44827 0.0
C21 C 0.99222 0.10491 0.4803 0.0
C22 C 0.01877 0.99658 0.56849 0.0
C23 C 0.90538 0.97931 0.46643 0.0
O24 O 0.927 0.01291 0.47582 0.0
O25 O 0.92338 0.94854 0.46772 0.0
O26 O 0.97212 0.09093 0.51004 0.0
O27 O 0.01334 0.08181 0.45948 0.0
O28 O 0.2265 0.80464 0.78043 0.0
Cd29 Cd 0.29123 0.81687 0.7984 0.0
Cd30 Cd 0.28385 0.73177 0.79441 0.0
O31 O 0.2236 0.74037 0.76899 0.0
O32 O 0.31516 0.86551 0.77408 0.0
O33 O 0.33062 0.80628 0.7548 0.0
C34 C 0.33426 0.84342 0.74979 0.0
C35 C 0.29941 0.66705 0.7868 0.0
C36 C 0.20562 0.77128 0.76788 0.0
C37 C 0.31293 0.78496 0.87637 0.0
O38 O 0.3042 0.75266 0.85431 0.0
O39 O 0.31018 0.81719 0.86055 0.0
O40 O 0.26968 0.67686 0.80878 0.0
O41 O 0.31926 0.69358 0.7664 0.0
O42 O 0.55109 0.97074 0.91157 0.0
Cd43 Cd 0.48531 0.95779 0.9093 0.0
Cd44 Cd 0.49947 0.95902 0.99399 0.0
O45 O 0.56055 0.98217 0.97948 0.0
O46 O 0.45795 0.98676 0.86633 0.0
O47 O 0.45468 0.99967 0.93383 0.0
C48 C 0.44608 0.00838 0.89635 0.0
C49 C 0.4827 0.97255 0.06205 0.0
C50 C 0.57559 0.98206 0.94422 0.0
C51 C 0.46166 0.88222 0.94093 0.0
O52 O 0.47591 0.90131 0.97506 0.0
O53 O 0.4606 0.89935 0.90771 0.0
O54 O 0.51102 0.95034 0.05316 0.0
O55 O 0.46493 0.98935 0.0324 0.0
O56 O 0.28742 0.65985 0.31931 0.0
Cd57 Cd 0.3039 0.71978 0.31982 0.0
Cd58 Cd 0.31055 0.70025 0.23659 0.0
O59 O 0.28181 0.64618 0.25172 0.0
O60 O 0.27741 0.74332 0.36736 0.0
O61 O 0.2596 0.75371 0.30223 0.0
C62 C 0.25404 0.75951 0.34106 0.0
C63 C 0.30259 0.71574 0.16763 0.0
C64 C 0.27829 0.63521 0.28795 0.0
C65 C 0.39117 0.73541 0.29355 0.0
O66 O 0.37331 0.71891 0.25933 0.0
O67 O 0.3688 0.741 0.32381 0.0
O68 O 0.32194 0.68704 0.1784 0.0
O69 O 0.2848 0.73464 0.1958 0.0
O70 O 0.46476 0.97201 0.38381 0.0
Cd71 Cd 0.49479 0.96904 0.44187 0.0
Cd72 Cd 0.51981 0.04795 0.43801 0.0
O73 O 0.48937 0.03439 0.37938 0.0
O74 O 0.46711 0.92261 0.46755 0.0
O75 O 0.46892 0.98378 0.49429 0.0
C76 C 0.45843 0.94658 0.49708 0.0
C77 C 0.51424 0.11131 0.46639 0.0
C78 C 0.46854 0.00212 0.36327 0.0
C79 C 0.58897 0.99456 0.44872 0.0
O80 O 0.57899 0.0291 0.44927 0.0
O81 O 0.55973 0.96507 0.44462 0.0
O82 O 0.49225 0.08117 0.47977 0.0
O83 O 0.53912 0.10526 0.43766 0.0
O84 O 0.32083 0.36797 0.82392 0.0
Cd85 Cd 0.29362 0.31147 0.83112 0.0
Cd86 Cd 0.27455 0.30569 0.74777 0.0
O87 O 0.30034 0.36425 0.75721 0.0
O88 O 0.3249 0.28423 0.87331 0.0
O89 O 0.31823 0.266 0.80602 0.0
C90 C 0.3315 0.25974 0.84324 0.0
C91 C 0.28313 0.27545 0.68271 0.0
C92 C 0.31798 0.38399 0.78999 0.0
C93 C 0.20209 0.29073 0.80538 0.0
O94 O 0.2155 0.28814 0.76951 0.0
O95 O 0.22832 0.30241 0.83672 0.0
O96 O 0.25602 0.29988 0.68757 0.0
O97 O 0.30631 0.2681 0.71489 0.0
O98 O 0.01029 0.02555 0.8944 0.0
Cd99 Cd 0.98799 0.02989 0.95266 0.0
Cd100 Cd 0.96586 0.94814 0.93529 0.0
O101 O 0.99661 0.96104 0.88314 0.0
O102 O 0.01783 0.0795 0.98281 0.0
O103 O 0.02549 0.02059 0.00273 0.0
C104 C 0.03498 0.0583 0.0088 0.0
C105 C 0.96943 0.88541 0.95757 0.0
C106 C 0.01118 0.99427 0.87148 0.0
C107 C 0.89471 0.9993 0.94839 0.0
O108 O 0.90648 0.96604 0.94005 0.0
O109 O 0.92245 0.02978 0.9559 0.0
O110 O 0.94618 0.89073 0.92481 0.0
O111 O 0.9918 0.91579 0.97783 0.0
O112 O 0.77604 0.16594 0.82582 0.0
Cd113 Cd 0.79363 0.22596 0.83016 0.0
Cd114 Cd 0.79691 0.21197 0.74653 0.0
O115 O 0.76589 0.15757 0.75784 0.0
O116 O 0.76543 0.24896 0.87677 0.0
O117 O 0.7511 0.26087 0.81138 0.0
C118 C 0.74366 0.26595 0.84983 0.0
C119 C 0.79095 0.22971 0.67812 0.0
C120 C 0.76432 0.14374 0.79296 0.0
C121 C 0.88 0.24005 0.80382 0.0
O122 O 0.86037 0.22623 0.76931 0.0
O123 O 0.85892 0.24554 0.83502 0.0
O124 O 0.80865 0.19994 0.6883 0.0
O125 O 0.77376 0.24878 0.70658 0.0
O126 O 0.93785 0.46542 0.88012 0.0
Cd127 Cd 0.97159 0.46288 0.93661 0.0
Cd128 Cd 0.99726 0.54132 0.93062 0.0
O129 O 0.96338 0.52722 0.87366 0.0
O130 O 0.94566 0.41719 0.9646 0.0
O131 O 0.94989 0.47877 0.99088 0.0
C132 C 0.93947 0.44173 0.99469 0.0
C133 C 0.99454 0.60543 0.95839 0.0
C134 C 0.94104 0.49513 0.85896 0.0
C135 C 0.06573 0.48697 0.93718 0.0
O136 O 0.05643 0.52175 0.93835 0.0
O137 O 0.03607 0.45792 0.93515 0.0
O138 O 0.01758 0.59824 0.92848 0.0
O139 O 0.97276 0.57609 0.97334 0.0
O140 O 0.83212 0.87139 0.33408 0.0
Cd141 Cd 0.80298 0.81407 0.33207 0.0
Cd142 Cd 0.79086 0.81773 0.2476 0.0
O143 O 0.82211 0.87326 0.26652 0.0
O144 O 0.82818 0.78337 0.3747 0.0
O145 O 0.83036 0.77002 0.30714 0.0
C146 C 0.83856 0.76097 0.34455 0.0
C147 C 0.79849 0.80073 0.17757 0.0
C148 C 0.83561 0.89007 0.30194 0.0
C149 C 0.71257 0.80039 0.29802 0.0
O150 O 0.72858 0.8027 0.26337 0.0
O151 O 0.73693 0.80534 0.33141 0.0
O152 O 0.77684 0.82792 0.18934 0.0
O153 O 0.81608 0.78208 0.20575 0.0
O154 O 0.06181 0.48174 0.43113 0.0
Cd155 Cd 0.99741 0.46326 0.41592 0.0
Cd156 Cd 0.9938 0.45664 0.49971 0.0
O157 O 0.0584 0.47849 0.49839 0.0
O158 O 0.97535 0.49343 0.3711 0.0
O159 O 0.95772 0.49961 0.43591 0.0
C160 C 0.95552 0.51096 0.39884 0.0
C161 C 0.96434 0.46727 0.5631 0.0
C162 C 0.07998 0.48617 0.46767 0.0
C163 C 0.97006 0.38369 0.43789 0.0
O164 O 0.9733 0.40054 0.47416 0.0
O165 O 0.97852 0.40333 0.40724 0.0
O166 O 0.99235 0.44378 0.55816 0.0
O167 O 0.95358 0.48643 0.53223 0.0
O168 O 0.47605 0.45593 0.04729 0.0
Cd169 Cd 0.46222 0.44515 0.98445 0.0
Cd170 Cd 0.45856 0.53269 0.99496 0.0
O171 O 0.48283 0.52076 0.05306 0.0
O172 O 0.48134 0.39344 0.97138 0.0
O173 O 0.51089 0.44823 0.94727 0.0
C174 C 0.51016 0.411 0.95025 0.0
C175 C 0.46232 0.59973 0.98415 0.0
C176 C 0.48513 0.48843 0.06906 0.0
C177 C 0.37981 0.4714 0.95808 0.0
O178 O 0.39925 0.50549 0.96966 0.0
O179 O 0.39881 0.44137 0.96121 0.0
O180 O 0.43937 0.58391 0.01114 0.0
O181 O 0.48541 0.57791 0.96406 0.0
O182 O 0.86886 0.72492 0.76739 0.0
Cd183 Cd 0.80811 0.71722 0.78792 0.0
Cd184 Cd 0.82013 0.80033 0.79294 0.0
O185 O 0.87391 0.78903 0.76376 0.0
O186 O 0.77564 0.66702 0.7618 0.0
O187 O 0.75854 0.7256 0.74886 0.0
C188 C 0.75121 0.68783 0.74169 0.0
C189 C 0.79965 0.86299 0.78684 0.0
C190 C 0.88939 0.75701 0.75822 0.0
C191 C 0.80993 0.75509 0.87144 0.0
O192 O 0.81632 0.7863 0.85303 0.0
O193 O 0.80414 0.72181 0.85105 0.0
O194 O 0.83519 0.85783 0.8065 0.0
O195 O 0.77585 0.83246 0.76838 0.0
O196 O 0.72284 0.3025 0.28661 0.0
Cd197 Cd 0.78737 0.31671 0.30458 0.0
Cd198 Cd 0.78126 0.23227 0.30564 0.0
O199 O 0.72032 0.23799 0.27947 0.0
O200 O 0.80932 0.36508 0.27865 0.0
O201 O 0.8276 0.30643 0.26156 0.0
C202 C 0.82952 0.3432 0.2552 0.0
C203 C 0.80119 0.1689 0.30065 0.0
C204 C 0.70209 0.26859 0.27631 0.0
C205 C 0.80797 0.28916 0.38513 0.0
O206 O 0.79984 0.25585 0.36493 0.0
O207 O 0.80553 0.32035 0.36719 0.0
O208 O 0.77012 0.17752 0.32149 0.0
O209 O 0.81985 0.19572 0.27981 0.0
O210 O 0.50523 0.52012 0.39838 0.0
Cd211 Cd 0.48844 0.52915 0.45776 0.0
Cd212 Cd 0.46176 0.4493 0.45073 0.0
O213 O 0.47775 0.4575 0.39091 0.0
O214 O 0.52274 0.57812 0.48475 0.0
O215 O 0.52702 0.51929 0.50673 0.0
C216 C 0.53898 0.5568 0.51121 0.0
C217 C 0.47346 0.38863 0.47416 0.0
C218 C 0.49586 0.48798 0.37599 0.0
C219 C 0.39716 0.5043 0.47141 0.0
O220 O 0.40721 0.46982 0.47034 0.0
O221 O 0.42449 0.53314 0.46453 0.0
O222 O 0.44179 0.39186 0.44779 0.0
O223 O 0.49917 0.42007 0.48757 0.0
H224 H 0.22219 0.10477 0.22199 0.0
H225 H 0.05757 0.13664 0.03138 0.0
H226 H 0.1921 0.21848 0.19207 0.0
H227 H 0.07983 0.02257 0.06748 0.0
H228 H 0.10681 0.1671 0.08985 0.0
H229 H 0.17015 0.07421 0.1657 0.0
C230 C 0.20452 0.12335 0.20368 0.0
C231 C 0.21161 0.16431 0.21176 0.0
C232 C 0.10089 0.13541 0.08507 0.0
C233 C 0.15199 0.12939 0.14696 0.0
C234 C 0.07279 0.11795 0.05161 0.0
C235 C 0.06458 0.07693 0.04443 0.0
C236 C 0.12115 0.11174 0.11158 0.0
C237 C 0.08521 0.05428 0.07178 0.0
C238 C 0.17478 0.10583 0.1715 0.0
C239 C 0.18769 0.18682 0.18699 0.0
N240 N 0.11261 0.07199 0.10407 0.0
N241 N 0.15909 0.16907 0.15562 0.0
H242 H 0.08382 0.9349 0.38624 0.0
H243 H 0.21954 0.75917 0.41524 0.0
H244 H 0.04953 0.84236 0.46527 0.0
H245 H 0.21319 0.81289 0.29956 0.0
H246 H 0.164 0.79661 0.43878 0.0
H247 H 0.13743 0.89688 0.35766 0.0
C248 C 0.08737 0.90657 0.39738 0.0
C249 C 0.06223 0.89179 0.42822 0.0
C250 C 0.17469 0.80018 0.40821 0.0
C251 C 0.12366 0.8488 0.39634 0.0
C252 C 0.20657 0.77899 0.39482 0.0
C253 C 0.22096 0.7829 0.35536 0.0
C254 C 0.15746 0.82605 0.38229 0.0
C255 C 0.20282 0.80893 0.33017 0.0
C256 C 0.11783 0.88494 0.38103 0.0
C257 C 0.0681 0.85491 0.44152 0.0
N258 N 0.17213 0.82982 0.34418 0.0
N259 N 0.09848 0.83493 0.42583 0.0
H260 H 0.43798 0.8701 0.51348 0.0
H261 H 0.35033 0.9204 0.73297 0.0
H262 H 0.43571 0.98847 0.56509 0.0
H263 H 0.36838 0.80376 0.68706 0.0
H264 H 0.38077 0.94608 0.67174 0.0
H265 H 0.41031 0.84539 0.5761 0.0
C266 C 0.43144 0.89094 0.53789 0.0
C267 C 0.43916 0.93146 0.53397 0.0
C268 C 0.37833 0.91491 0.67519 0.0
C269 C 0.40766 0.90326 0.60608 0.0
C270 C 0.36106 0.90021 0.71021 0.0
C271 C 0.35673 0.85982 0.71515 0.0
C272 C 0.39112 0.88902 0.64469 0.0
C273 C 0.37114 0.83509 0.6846 0.0
C274 C 0.41582 0.87678 0.57378 0.0
C275 C 0.43019 0.95701 0.56675 0.0
N276 N 0.38743 0.85005 0.65059 0.0
N277 N 0.41489 0.94248 0.60143 0.0
H278 H 0.42266 0.03381 0.82127 0.0
H279 H 0.35837 0.2358 0.91815 0.0
H280 H 0.42502 0.06427 0.95248 0.0
H281 H 0.34835 0.20193 0.78714 0.0
H282 H 0.38493 0.17403 0.9313 0.0
H283 H 0.39593 0.09546 0.80817 0.0
C284 C 0.41723 0.05331 0.84735 0.0
C285 C 0.42611 0.04383 0.88805 0.0
C286 C 0.37704 0.18015 0.89966 0.0
C287 C 0.39594 0.11477 0.87324 0.0
C288 C 0.36206 0.21552 0.89211 0.0
C289 C 0.35107 0.22406 0.85147 0.0
C290 C 0.3811 0.15307 0.86634 0.0
C291 C 0.35642 0.19659 0.81897 0.0
C292 C 0.4021 0.0886 0.83983 0.0
C293 C 0.41853 0.07031 0.9206 0.0
N294 N 0.37096 0.16232 0.82713 0.0
N295 N 0.40406 0.10464 0.91249 0.0
H296 H 0.70513 0.31998 0.80729 0.0
H297 H 0.52803 0.33854 0.96724 0.0
H298 H 0.70503 0.26427 0.92191 0.0
H299 H 0.56685 0.43374 0.89287 0.0
H300 H 0.58481 0.30403 0.94141 0.0
H301 H 0.64724 0.35617 0.82979 0.0
C302 C 0.69299 0.31541 0.83713 0.0
C303 C 0.7099 0.28914 0.86283 0.0
C304 C 0.58085 0.33244 0.93067 0.0
C305 C 0.64362 0.32966 0.88816 0.0
C306 C 0.54827 0.35209 0.94518 0.0
C307 C 0.54279 0.38918 0.9323 0.0
C308 C 0.60787 0.34962 0.90254 0.0
C309 C 0.57014 0.40527 0.90373 0.0
C310 C 0.66015 0.33609 0.84992 0.0
C311 C 0.69311 0.28434 0.90119 0.0
N312 N 0.60153 0.3853 0.88963 0.0
N313 N 0.66068 0.30412 0.91251 0.0
H314 H 0.92176 0.36577 0.01379 0.0
H315 H 0.84311 0.41972 0.23627 0.0
H316 H 0.92063 0.48491 0.0636 0.0
H317 H 0.86375 0.30311 0.19285 0.0
H318 H 0.8709 0.44441 0.17347 0.0
H319 H 0.89848 0.34241 0.07861 0.0
C320 C 0.91639 0.38706 0.03829 0.0
C321 C 0.92308 0.42741 0.03317 0.0
C322 C 0.86966 0.41348 0.17782 0.0
C323 C 0.8966 0.40074 0.10778 0.0
C324 C 0.8539 0.39935 0.21374 0.0
C325 C 0.85098 0.35923 0.21981 0.0
C326 C 0.88227 0.38727 0.14753 0.0
C327 C 0.86543 0.33425 0.18952 0.0
C328 C 0.90332 0.37367 0.07543 0.0
C329 C 0.91579 0.45356 0.06614 0.0
N330 N 0.88012 0.34862 0.15458 0.0
N331 N 0.90287 0.43977 0.10203 0.0
H332 H 0.9434 0.54091 0.32377 0.0
H333 H 0.85421 0.73158 0.41921 0.0
H334 H 0.91959 0.55981 0.45213 0.0
H335 H 0.86403 0.7072 0.28855 0.0
H336 H 0.88004 0.66951 0.43188 0.0
H337 H 0.9148 0.60166 0.31004 0.0
C338 C 0.93178 0.55762 0.34901 0.0
C339 C 0.93398 0.54526 0.3892 0.0
C340 C 0.87661 0.67771 0.40043 0.0
C341 C 0.90171 0.61514 0.37377 0.0
C342 C 0.86206 0.7133 0.39317 0.0
C343 C 0.85698 0.72467 0.35274 0.0
C344 C 0.88632 0.65326 0.36705 0.0
C345 C 0.86751 0.69965 0.32023 0.0
C346 C 0.91557 0.59239 0.34115 0.0
C347 C 0.91849 0.56816 0.42066 0.0
N348 N 0.88168 0.66512 0.3281 0.0
N349 N 0.90328 0.60209 0.41233 0.0
H350 H 0.58199 0.52072 0.57089 0.0
H351 H 0.6985 0.72309 0.68945 0.0
H352 H 0.56557 0.63496 0.53126 0.0
H353 H 0.72653 0.60929 0.72132 0.0
H354 H 0.64572 0.69105 0.63431 0.0
H355 H 0.63177 0.55238 0.62875 0.0
C356 C 0.58888 0.55243 0.57431 0.0
C357 C 0.56968 0.5752 0.54609 0.0
C358 C 0.66332 0.67307 0.65344 0.0
C359 C 0.62639 0.61164 0.61235 0.0
C360 C 0.69337 0.69136 0.68504 0.0
C361 C 0.7171 0.66886 0.70998 0.0
C362 C 0.65683 0.63195 0.64672 0.0
C363 C 0.70908 0.62783 0.70278 0.0
C364 C 0.61727 0.5705 0.60737 0.0
C365 C 0.57972 0.6162 0.55214 0.0
N366 N 0.67972 0.61071 0.67178 0.0
N367 N 0.60731 0.63306 0.58457 0.0
H368 H 0.23923 0.19631 0.42328 0.0
H369 H 0.35657 0.25696 0.64991 0.0
H370 H 0.36644 0.26246 0.44493 0.0
H371 H 0.21976 0.25436 0.62088 0.0
H372 H 0.36383 0.23703 0.57683 0.0
H373 H 0.23552 0.19551 0.49857 0.0
C374 C 0.26665 0.2099 0.44392 0.0
C375 C 0.30293 0.23001 0.4283 0.0
C376 C 0.33218 0.24014 0.58683 0.0
C377 C 0.29928 0.22866 0.51354 0.0
C378 C 0.32802 0.25131 0.62835 0.0
C379 C 0.28761 0.25766 0.64106 0.0
C380 C 0.29548 0.23445 0.55841 0.0
C381 C 0.25155 0.25019 0.61203 0.0
C382 C 0.2645 0.20956 0.48666 0.0
C383 C 0.33768 0.24727 0.4561 0.0
N384 N 0.25633 0.23905 0.57198 0.0
N385 N 0.33501 0.24634 0.49747 0.0
H386 H 0.03263 0.05992 0.83013 0.0
H387 H 0.0301 0.93436 0.614 0.0
H388 H 0.02146 0.93352 0.81595 0.0
H389 H 0.03417 0.06025 0.62588 0.0
H390 H 0.03915 0.93487 0.68909 0.0
H391 H 0.04533 0.0618 0.757 0.0
C392 C 0.03348 0.03259 0.81186 0.0
C393 C 0.02535 0.99647 0.82915 0.0
C394 C 0.03855 0.96246 0.6753 0.0
C395 C 0.03961 0.99844 0.74535 0.0
C396 C 0.03342 0.96221 0.63234 0.0
C397 C 0.03073 0.99727 0.6135 0.0
C398 C 0.04077 0.99799 0.69978 0.0
C399 C 0.03568 0.03246 0.63899 0.0
C400 C 0.04062 0.0337 0.77004 0.0
C401 C 0.02702 0.96204 0.80392 0.0
N402 N 0.03992 0.03186 0.68082 0.0
N403 N 0.03352 0.96388 0.76327 0.0
H404 H 0.29574 0.83577 0.94057 0.0
H405 H 0.33231 0.67694 0.1026 0.0
H406 H 0.34846 0.7283 0.91423 0.0
H407 H 0.27826 0.78241 0.13577 0.0
H408 H 0.34159 0.69854 0.03426 0.0
H409 H 0.29527 0.82161 0.01369 0.0
C410 C 0.3082 0.80979 0.95034 0.0
C411 C 0.32171 0.78293 0.92131 0.0
C412 C 0.32776 0.71719 0.05631 0.0
C413 C 0.32041 0.76623 0.00409 0.0
C414 C 0.32213 0.70466 0.09543 0.0
C415 C 0.30428 0.7278 0.12499 0.0
C416 C 0.31555 0.75329 0.04626 0.0
C417 C 0.29185 0.76352 0.11377 0.0
C418 C 0.30746 0.80149 0.99189 0.0
C419 C 0.33715 0.74954 0.93545 0.0
N420 N 0.29773 0.77524 0.07519 0.0
N421 N 0.33565 0.742 0.9756 0.0
H422 H 0.464 0.06089 0.31122 0.0
H423 H 0.48425 0.91844 0.11788 0.0
H424 H 0.44227 0.93486 0.31304 0.0
H425 H 0.4521 0.03462 0.103 0.0
H426 H 0.46779 0.9247 0.18973 0.0
H427 H 0.4567 0.05329 0.23559 0.0
C428 C 0.45681 0.03164 0.29577 0.0
C429 C 0.4545 0.99841 0.31855 0.0
C430 C 0.46382 0.94875 0.17078 0.0
C431 C 0.44682 0.98964 0.23216 0.0
C432 C 0.47358 0.94532 0.12983 0.0
C433 C 0.47002 0.97628 0.10472 0.0
C434 C 0.45133 0.98378 0.18723 0.0
C435 C 0.45543 0.01019 0.12154 0.0
C436 C 0.45262 0.02737 0.25259 0.0
C437 C 0.44475 0.9613 0.29686 0.0
N438 N 0.44731 0.01337 0.16214 0.0
N439 N 0.44214 0.95791 0.25489 0.0
H440 H 0.42982 0.18816 0.26107 0.0
H441 H 0.65398 0.32696 0.25933 0.0
H442 H 0.44278 0.31412 0.25872 0.0
H443 H 0.64349 0.2014 0.26461 0.0
H444 H 0.57571 0.32111 0.24754 0.0
H445 H 0.50659 0.19077 0.25074 0.0
C446 C 0.44859 0.21628 0.25771 0.0
C447 C 0.42996 0.25104 0.26144 0.0
C448 C 0.59049 0.29474 0.25083 0.0
C449 C 0.51779 0.25424 0.24991 0.0
C450 C 0.63526 0.29807 0.25759 0.0
C451 C 0.65534 0.26469 0.26362 0.0
C452 C 0.56545 0.2578 0.25043 0.0
C453 C 0.62938 0.22798 0.26052 0.0
C454 C 0.49246 0.21775 0.25193 0.0
C455 C 0.45584 0.28661 0.25666 0.0
N456 N 0.58571 0.22558 0.25468 0.0
N457 N 0.49847 0.28732 0.25162 0.0
H458 H 0.92377 0.33689 0.48653 0.0
H459 H 0.02536 0.14461 0.41609 0.0
H460 H 0.00027 0.33234 0.38192 0.0
H461 H 0.94802 0.15679 0.5194 0.0
H462 H 0.01326 0.21079 0.39843 0.0
H463 H 0.92728 0.2679 0.49329 0.0
C464 C 0.9404 0.321 0.46423 0.0
C465 C 0.96209 0.34043 0.43386 0.0
C466 C -0.00104 0.19876 0.42486 0.0
C467 C 0.96633 0.26086 0.44142 0.0
C468 C 0.0061 0.16119 0.43512 0.0
C469 C 0.98803 0.14526 0.4695 0.0
C470 C 0.9735 0.22023 0.44916 0.0
C471 C 0.96293 0.16781 0.49281 0.0
C472 C 0.94253 0.2815 0.46816 0.0
C473 C 0.98298 0.31833 0.40569 0.0
N474 N 0.95651 0.20394 0.48222 0.0
N475 N 0.98513 0.27967 0.41048 0.0
H476 H 0.94464 0.82084 0.74051 0.0
H477 H 0.14814 0.7044 0.74737 0.0
H478 H 0.9359 0.69559 0.7478 0.0
H479 H 0.15688 0.83072 0.75774 0.0
H480 H 0.06999 0.69976 0.73326 0.0
H481 H 0.02153 0.82363 0.73193 0.0
C482 C 0.95869 0.7938 0.73968 0.0
C483 C 0.93386 0.758 0.74565 0.0
C484 C 0.08908 0.72848 0.73819 0.0
C485 C 0.02205 0.76111 0.73615 0.0
C486 C 0.13374 0.73119 0.74622 0.0
C487 C 0.15909 0.76803 0.75442 0.0
C488 C 0.06962 0.76285 0.73833 0.0
C489 C 0.13861 0.80169 0.75217 0.0
C490 C 0.00268 0.79546 0.73489 0.0
C491 C 0.95385 0.72391 0.74385 0.0
N492 N 0.09504 0.79828 0.74473 0.0
N493 N 0.99691 0.72639 0.7398 0.0
H494 H 0.42554 0.65343 0.02958 0.0
H495 H 0.46931 0.82548 0.87915 0.0
H496 H 0.49221 0.63965 0.91919 0.0
H497 H 0.43105 0.84141 0.00317 0.0
H498 H 0.46626 0.75475 0.88683 0.0
H499 H 0.41807 0.72031 0.01475 0.0
C500 C 0.43875 0.66451 0.00219 0.0
C501 C 0.45993 0.64098 0.97578 0.0
C502 C 0.45811 0.77378 0.91211 0.0
C503 C 0.45067 0.71773 0.95816 0.0
C504 C 0.45931 0.81397 0.90756 0.0
C505 C 0.45086 0.83927 0.94076 0.0
C506 C 0.44804 0.75909 0.94994 0.0
C507 C 0.43836 0.82298 0.977 0.0
C508 C 0.43424 0.70273 0.99363 0.0
C509 C 0.4761 0.65696 0.94061 0.0
N510 N 0.43769 0.78406 0.98072 0.0
N511 N 0.4711 0.69444 0.93276 0.0
H512 H 0.65261 0.78664 0.23195 0.0
H513 H 0.44629 0.76065 0.36344 0.0
H514 H 0.6643 0.79597 0.36551 0.0
H515 H 0.44363 0.7384 0.2309 0.0
H516 H 0.52519 0.77828 0.36629 0.0
H517 H 0.57487 0.77347 0.23243 0.0
C518 C 0.63884 0.78589 0.2615 0.0
C519 C 0.66516 0.79226 0.29876 0.0
C520 C 0.50712 0.76956 0.33669 0.0
C521 C 0.57544 0.77707 0.29953 0.0
C522 C 0.46218 0.75963 0.33503 0.0
C523 C 0.43834 0.74781 0.29692 0.0
C524 C 0.52798 0.76786 0.29995 0.0
C525 C 0.46054 0.747 0.26106 0.0
C526 C 0.59426 0.77833 0.26175 0.0
C527 C 0.64522 0.79104 0.33604 0.0
N528 N 0.50392 0.75682 0.26351 0.0
N529 N 0.60143 0.78353 0.33551 0.0
H530 H 0.44404 0.13903 0.49735 0.0
H531 H 0.54972 0.36382 0.50009 0.0
H532 H 0.57452 0.17578 0.46843 0.0
H533 H 0.41317 0.32465 0.4761 0.0
H534 H 0.56118 0.29592 0.50993 0.0
H535 H 0.43467 0.2083 0.51078 0.0
C536 C 0.47096 0.16163 0.49475 0.0
C537 C 0.50993 0.15185 0.48134 0.0
C538 C 0.52867 0.30239 0.50314 0.0
C539 C 0.49965 0.23059 0.49687 0.0
C540 C 0.52212 0.34105 0.49771 0.0
C541 C 0.48054 0.34957 0.48663 0.0
C542 C 0.49328 0.27236 0.49809 0.0
C543 C 0.44583 0.31906 0.48391 0.0
C544 C 0.46555 0.20104 0.50219 0.0
C545 C 0.54378 0.18218 0.47823 0.0
N546 N 0.45298 0.28173 0.48935 0.0
N547 N 0.53781 0.2202 0.48573 0.0
H548 H 0.15642 0.30484 0.87314 0.0
H549 H 0.93144 0.23129 0.74144 0.0
H550 H 0.14099 0.25515 0.74643 0.0
H551 H 0.93748 0.26749 0.87185 0.0
H552 H 0.00913 0.24222 0.74447 0.0
H553 H 0.07752 0.29256 0.87543 0.0
C554 C 0.13657 0.29109 0.846 0.0
C555 C 0.15532 0.28125 0.80943 0.0
C556 C 0.99378 0.24781 0.77261 0.0
C557 C 0.06564 0.26746 0.81181 0.0
C558 C 0.94911 0.24164 0.7709 0.0
C559 C 0.92768 0.24838 0.80651 0.0
C560 C 0.01785 0.261 0.8102 0.0
C561 C 0.95271 0.26191 0.84365 0.0
C562 C 0.09164 0.28423 0.84732 0.0
C563 C 0.12814 0.26361 0.77519 0.0
N564 N 0.99667 0.26782 0.84458 0.0
N565 N 0.08488 0.25747 0.77725 0.0
H566 H 0.90552 0.82339 0.94463 0.0
H567 H 0.05909 0.66669 0.96567 0.0
H568 H 0.03628 0.85637 0.99847 0.0
H569 H 0.92383 0.63724 0.98207 0.0
H570 H 0.05211 0.73629 0.97742 0.0
H571 H 0.91068 0.75508 0.95746 0.0
C572 C 0.93515 0.81624 0.95963 0.0
C573 C 0.97071 0.84536 0.9702 0.0
C574 C 0.02415 0.71461 0.97933 0.0
C575 C 0.97705 0.76739 0.98421 0.0
C576 C 0.02808 0.67497 0.97252 0.0
C577 C 0.99193 0.64639 0.97283 0.0
C578 C 0.98346 0.72575 0.98513 0.0
C579 C 0.95246 0.6585 0.98178 0.0
C580 C 0.93796 0.77735 0.96715 0.0
C581 C 0.00822 0.8347 0.9898 0.0
N582 N 0.94899 0.69744 0.98665 0.0
N583 N 0.01078 0.79634 0.99539 0.0
H584 H 0.24574 0.38082 0.25288 0.0
H585 H 0.28223 0.5998 0.36058 0.0
H586 H 0.32043 0.4167 0.36929 0.0
H587 H 0.25298 0.5738 0.22892 0.0
H588 H 0.27795 0.52965 0.3686 0.0
H589 H 0.23111 0.44876 0.24827 0.0
C590 C 0.25852 0.40284 0.27767 0.0
C591 C 0.2847 0.39331 0.31128 0.0
C592 C 0.27196 0.53934 0.33805 0.0
C593 C 0.26776 0.47046 0.30646 0.0
C594 C 0.27418 0.5794 0.3334 0.0
C595 C 0.26857 0.59284 0.29389 0.0
C596 C 0.26376 0.51242 0.30306 0.0
C597 C 0.25804 0.56482 0.2599 0.0
C598 C 0.2503 0.44151 0.27496 0.0
C599 C 0.30052 0.4229 0.34258 0.0
N600 N 0.25633 0.52591 0.26521 0.0
N601 N 0.29187 0.46011 0.33938 0.0
H602 H 0.77606 0.10232 0.86054 0.0
H603 H 0.73651 0.89026 0.73725 0.0
H604 H 0.7335 0.08686 0.73039 0.0
H605 H 0.83272 0.92583 0.83944 0.0
H606 H 0.71736 0.95745 0.74099 0.0
H607 H 0.77662 0.03174 0.86051 0.0
C608 C 0.76586 0.08407 0.83214 0.0
C609 C 0.75545 0.10071 0.79521 0.0
C610 C 0.74238 0.95018 0.76269 0.0
C611 C 0.75599 0.01979 0.79518 0.0
C612 C 0.75334 0.91204 0.76055 0.0
C613 C 0.78644 0.90259 0.78791 0.0
C614 C 0.76401 0.97846 0.79302 0.0
C615 C 0.80716 0.93183 0.81761 0.0
C616 C 0.7664 0.04377 0.83217 0.0
C617 C 0.74233 0.07535 0.75944 0.0
N618 N 0.79553 0.96831 0.81945 0.0
N619 N 0.74338 0.0361 0.76018 0.0
H620 H 0.33906 0.5262 0.92215 0.0
H621 H 0.10084 0.41815 0.94261 0.0
H622 H 0.31564 0.40914 0.9618 0.0
H623 H 0.13462 0.54156 0.92792 0.0
H624 H 0.17711 0.40966 0.9392 0.0
H625 H 0.26174 0.52651 0.91068 0.0
C626 C 0.31751 0.50032 0.92803 0.0
C627 C 0.33368 0.46787 0.94369 0.0
C628 C 0.1676 0.43849 0.93662 0.0
C629 C 0.2448 0.4683 0.93136 0.0
C630 C 0.1242 0.44341 0.93869 0.0
C631 C 0.11137 0.48072 0.93595 0.0
C632 C 0.19809 0.47104 0.93136 0.0
C633 C 0.14293 0.51233 0.93061 0.0
C634 C 0.27331 0.50055 0.92159 0.0
C635 C 0.30436 0.43484 0.94997 0.0
N636 N 0.18466 0.50673 0.92851 0.0
N637 N 0.26108 0.4361 0.94441 0.0
H638 H 0.78713 0.11946 0.36071 0.0
H639 H 0.86044 0.93709 0.24119 0.0
H640 H 0.8492 0.13043 0.2473 0.0
H641 H 0.8374 0.9412 0.37035 0.0
H642 H 0.86219 0.00826 0.24338 0.0
H643 H 0.8086 0.05471 0.36502 0.0
C644 C 0.80534 0.10819 0.33662 0.0
C645 C 0.81585 0.13013 0.30321 0.0
C646 C 0.85774 0.99371 0.27147 0.0
C647 C 0.84073 0.05564 0.30815 0.0
C648 C 0.85681 0.95308 0.2703 0.0
C649 C 0.84816 0.93311 0.30558 0.0
C650 C 0.84925 0.01436 0.30798 0.0
C651 C 0.844 0.95534 0.34245 0.0
C652 C 0.81799 0.07129 0.33939 0.0
C653 C 0.84016 0.11428 0.27337 0.0
N654 N 0.84369 0.99467 0.34248 0.0
N655 N 0.85126 0.07763 0.27619 0.0
H656 H 0.85382 0.05906 0.98106 0.0
H657 H 0.62212 0.96441 0.87948 0.0
H658 H 0.82924 0.94538 0.91264 0.0
H659 H 0.63592 0.0225 0.0027 0.0
H660 H 0.70069 0.97409 0.87857 0.0
H661 H 0.77529 0.06091 0.97779 0.0
C662 C 0.83204 0.03471 0.96519 0.0
C663 C 0.84803 0.00199 0.94711 0.0
C664 C 0.68632 0.98506 0.90556 0.0
C665 C 0.75924 0.0045 0.94246 0.0
C666 C 0.64158 0.97973 0.9061 0.0
C667 C 0.6225 0.99219 0.94148 0.0
C668 C 0.71209 0.00351 0.94034 0.0
C669 C 0.64941 0.01198 0.97504 0.0
C670 C 0.78749 0.03581 0.9634 0.0
C671 C 0.81843 0.97119 0.92696 0.0
N672 N 0.69303 0.01694 0.97374 0.0
N673 N 0.77554 0.97333 0.92492 0.0
H674 H 0.29109 0.62005 0.84942 0.0
H675 H 0.32629 0.42692 0.72257 0.0
H676 H 0.33547 0.62382 0.72723 0.0
H677 H 0.3356 0.43895 0.85597 0.0
H678 H 0.33148 0.49828 0.72225 0.0
H679 H 0.30733 0.55322 0.85142 0.0
C680 C 0.30433 0.60672 0.82293 0.0
C681 C 0.31146 0.62725 0.78785 0.0
C682 C 0.33322 0.48531 0.75156 0.0
C683 C 0.32999 0.55044 0.78993 0.0
C684 C 0.33021 0.44459 0.75182 0.0
C685 C 0.32984 0.42689 0.7894 0.0
C686 C 0.33511 0.50835 0.7891 0.0
C687 C 0.33536 0.45126 0.82631 0.0
C688 C 0.31396 0.56865 0.82428 0.0
C689 C 0.32932 0.60881 0.75473 0.0
N690 N 0.33695 0.49069 0.82521 0.0
N691 N 0.33734 0.57105 0.75626 0.0
H692 H 0.13333 0.47495 0.53466 0.0
H693 H 0.35122 0.55946 0.4407 0.0
H694 H 0.13412 0.52255 0.41549 0.0
H695 H 0.34117 0.46122 0.51608 0.0
H696 H 0.27374 0.56228 0.44476 0.0
H697 H 0.2123 0.48642 0.54137 0.0
C698 C 0.15007 0.48841 0.51022 0.0
C699 C 0.1272 0.49743 0.47424 0.0
C700 C 0.28881 0.54053 0.46081 0.0
C701 C 0.21722 0.51085 0.482 0.0
C702 C 0.33289 0.53904 0.45876 0.0
C703 C 0.35237 0.50992 0.47794 0.0
C704 C 0.26454 0.51318 0.4828 0.0
C705 C 0.32721 0.48391 0.5006 0.0
C706 C 0.19505 0.49477 0.51404 0.0
C707 C 0.15057 0.51476 0.44352 0.0
N708 N 0.28451 0.48612 0.50239 0.0
N709 N 0.19443 0.52082 0.44803 0.0
H710 H 0.81172 0.6976 0.92664 0.0
H711 H 0.78303 0.84775 0.11692 0.0
H712 H 0.80837 0.82177 0.92027 0.0
H713 H 0.82387 0.73544 0.13685 0.0
H714 H 0.78745 0.83506 0.04342 0.0
H715 H 0.81204 0.70719 0.0025 0.0
C716 C 0.81089 0.72672 0.94106 0.0
C717 C 0.80965 0.75886 0.91699 0.0
C718 C 0.79567 0.81309 0.06366 0.0
C719 C 0.81005 0.76989 0.00307 0.0
C720 C 0.79298 0.82028 0.10578 0.0
C721 C 0.80298 0.79255 0.13307 0.0
C722 C 0.80807 0.77765 0.0482 0.0
C723 C 0.81598 0.7576 0.11675 0.0
C724 C 0.81136 0.73218 0.98425 0.0
C725 C 0.80913 0.79601 0.9373 0.0
N726 N 0.81789 0.75094 0.07512 0.0
N727 N 0.80914 0.80038 0.97892 0.0
H728 H 0.48447 0.42379 0.31958 0.0
H729 H 0.50882 0.5518 0.12583 0.0
H730 H 0.52316 0.54918 0.33065 0.0
H731 H 0.48495 0.42519 0.11551 0.0
H732 H 0.51884 0.55118 0.20091 0.0
H733 H 0.48915 0.42331 0.24502 0.0
C734 C 0.49434 0.4512 0.30642 0.0
C735 C 0.50307 0.48665 0.33146 0.0
C736 C 0.5118 0.52352 0.1822 0.0
C737 C 0.50814 0.48633 0.2459 0.0
C738 C 0.50605 0.52384 0.13927 0.0
C739 C 0.49562 0.4885 0.11423 0.0
C740 C 0.50677 0.48762 0.20033 0.0
C741 C 0.4927 0.45319 0.1335 0.0
C742 C 0.49701 0.45089 0.26379 0.0
C743 C 0.51593 0.52118 0.3126 0.0
N744 N 0.49782 0.45367 0.17537 0.0
N745 N 0.51765 0.52021 0.27094 0.0
H746 H 0.84944 0.23834 0.42637 0.0
H747 H 0.76515 0.2958 0.6457 0.0
H748 H 0.78348 0.33915 0.44633 0.0
H749 H 0.8243 0.19278 0.61429 0.0
H750 H 0.77589 0.3168 0.5759 0.0
H751 H 0.84795 0.22748 0.499 0.0
C752 C 0.83527 0.25868 0.44639 0.0
C753 C 0.8163 0.28951 0.43033 0.0
C754 C 0.78646 0.28965 0.58452 0.0
C755 C 0.81336 0.27667 0.5139 0.0
C756 C 0.78007 0.27753 0.62415 0.0
C757 C 0.79363 0.24237 0.63579 0.0
C758 C 0.80667 0.26645 0.55672 0.0
C759 C 0.81316 0.22002 0.60683 0.0
C760 C 0.83411 0.25231 0.48792 0.0
C761 C 0.79866 0.31514 0.45768 0.0
N762 N 0.81906 0.23245 0.5689 0.0
N763 N 0.79699 0.30781 0.49823 0.0
H764 H 0.93472 0.53159 0.60024 0.0
H765 H 0.90949 0.4276 0.8107 0.0
H766 H 0.95143 0.41148 0.61683 0.0
H767 H 0.93658 0.55313 0.80607 0.0
H768 H 0.90058 0.42026 0.73523 0.0
H769 H 0.91308 0.53833 0.67138 0.0
C770 C 0.93305 0.50653 0.61858 0.0
C771 C 0.94556 0.47117 0.60313 0.0
C772 C 0.90768 0.44946 0.75081 0.0
C773 C 0.92045 0.47838 0.68358 0.0
C774 C 0.91253 0.4537 0.79393 0.0
C775 C 0.92481 0.49097 0.81475 0.0
C776 C 0.91506 0.48269 0.7284 0.0
C777 C 0.92795 0.52375 0.79126 0.0
C778 C 0.92082 0.51037 0.65905 0.0
C779 C 0.9428 0.43948 0.62794 0.0
N780 N 0.92382 0.51882 0.74928 0.0
N781 N 0.93079 0.4439 0.66697 0.0
H782 H 0.86313 0.0381 0.44151 0.0
H783 H 0.62473 0.92574 0.4508 0.0
H784 H 0.84064 0.91684 0.46892 0.0
H785 H 0.65837 0.05114 0.44964 0.0
H786 H 0.70167 0.91864 0.45021 0.0
H787 H 0.78601 0.0395 0.43497 0.0
C788 C 0.84187 0.01155 0.4459 0.0
C789 C 0.85842 0.97744 0.45644 0.0
C790 C 0.69199 0.94761 0.45014 0.0
C791 C 0.7694 0.97893 0.44896 0.0
C792 C 0.6482 0.95174 0.45058 0.0
C793 C 0.63505 0.98914 0.45039 0.0
C794 C 0.72256 0.98109 0.44914 0.0
C795 C 0.6668 0.02174 0.44994 0.0
C796 C 0.79769 0.01241 0.44215 0.0
C797 C 0.82917 0.94379 0.46095 0.0
N798 N 0.70888 0.0169 0.44924 0.0
N799 N 0.78585 0.94544 0.45753 0.0
loop_
_geom_bond_atom_site_label_1
_geom_bond_atom_site_label_2
_geom_bond_distance
_geom_bond_site_symmetry_2
_ccdc_geom_bond_type
O0 Cd1 2.223 . S
O0 C8 1.315 . S
Cd1 O0 2.223 . S
Cd1 O4 2.297 . S
Cd1 O5 2.439 . S
Cd1 O11 2.240 . S
Cd2 O3 2.240 . S
Cd2 O10 2.223 . S
Cd2 O12 2.297 . S
Cd2 O13 2.439 . S
O3 Cd2 2.240 . S
O3 C8 1.279 . S
O4 Cd1 2.297 . S
O4 C6 1.247 . S
O5 Cd1 2.439 . S
O5 C6 1.208 . S
C6 O4 1.247 . S
C6 O5 1.208 . S
C7 O12 1.247 . S
C7 O13 1.208 . S
C8 O0 1.315 . S
C8 O3 1.279 . S
C9 O10 1.315 . S
C9 O11 1.279 . S
O10 Cd2 2.223 . S
O10 C9 1.315 . S
O11 Cd1 2.240 . S
O11 C9 1.279 . S
O12 Cd2 2.297 . S
O12 C7 1.247 . S
O13 Cd2 2.439 . S
O13 C7 1.208 . S
O14 Cd15 2.223 . S
O14 C22 1.315 . S
Cd15 O14 2.223 . S
Cd15 O18 2.297 1_655 S
Cd15 O19 2.439 1_665 S
Cd15 O25 2.240 1_565 S
Cd16 O17 2.240 1_655 S
Cd16 O24 2.223 . S
Cd16 O26 2.297 . S
Cd16 O27 2.439 1_655 S
O17 Cd16 2.240 1_455 S
O17 C22 1.279 1_445 S
O18 Cd15 2.297 1_455 S
O18 C20 1.247 . S
O19 Cd15 2.439 1_445 S
O19 C20 1.208 1_545 S
C20 O18 1.247 . S
C20 O19 1.208 1_565 S
C21 O26 1.247 . S
C21 O27 1.208 1_655 S
C22 O14 1.315 . S
C22 O17 1.279 1_665 S
C23 O24 1.315 . S
C23 O25 1.279 . S
O24 Cd16 2.223 . S
O24 C23 1.315 . S
O25 Cd15 2.240 1_545 S
O25 C23 1.279 . S
O26 Cd16 2.297 . S
O26 C21 1.247 . S
O27 Cd16 2.439 1_455 S
O27 C21 1.208 1_455 S
O28 Cd29 2.223 . S
O28 C36 1.315 . S
Cd29 O28 2.223 . S
Cd29 O32 2.297 . S
Cd29 O33 2.439 . S
Cd29 O39 2.240 . S
Cd30 O31 2.240 . S
Cd30 O38 2.223 . S
Cd30 O40 2.297 . S
Cd30 O41 2.439 . S
O31 Cd30 2.240 . S
O31 C36 1.279 . S
O32 Cd29 2.297 . S
O32 C34 1.247 . S
O33 Cd29 2.439 . S
O33 C34 1.208 . S
C34 O32 1.247 . S
C34 O33 1.208 . S
C35 O40 1.247 . S
C35 O41 1.208 . S
C36 O28 1.315 . S
C36 O31 1.279 . S
C37 O38 1.315 . S
C37 O39 1.279 . S
O38 Cd30 2.223 . S
O38 C37 1.315 . S
O39 Cd29 2.240 . S
O39 C37 1.279 . S
O40 Cd30 2.297 . S
O40 C35 1.247 . S
O41 Cd30 2.439 . S
O41 C35 1.208 . S
O42 Cd43 2.223 . S
O42 C50 1.315 . S
Cd43 O42 2.223 . S
Cd43 O46 2.297 . S
Cd43 O47 2.439 1_565 S
Cd43 O53 2.240 . S
Cd44 O45 2.240 1_554 S
Cd44 O52 2.223 . S
Cd44 O54 2.297 . S
Cd44 O55 2.439 . S
O45 Cd44 2.240 1_556 S
O45 C50 1.279 . S
O46 Cd43 2.297 . S
O46 C48 1.247 1_565 S
O47 Cd43 2.439 1_545 S
O47 C48 1.208 . S
C48 O46 1.247 1_545 S
C48 O47 1.208 . S
C49 O54 1.247 . S
C49 O55 1.208 . S
C50 O42 1.315 . S
C50 O45 1.279 . S
C51 O52 1.315 . S
C51 O53 1.279 1_554 S
O52 Cd44 2.223 . S
O52 C51 1.315 . S
O53 Cd43 2.240 . S
O53 C51 1.279 1_556 S
O54 Cd44 2.297 . S
O54 C49 1.247 . S
O55 Cd44 2.439 . S
O55 C49 1.208 . S
O56 Cd57 2.223 . S
O56 C64 1.315 . S
Cd57 O56 2.223 . S
Cd57 O60 2.297 . S
Cd57 O61 2.439 . S
Cd57 O67 2.240 . S
Cd58 O59 2.240 . S
Cd58 O66 2.223 . S
Cd58 O68 2.297 . S
Cd58 O69 2.439 . S
O59 Cd58 2.240 . S
O59 C64 1.279 . S
O60 Cd57 2.297 . S
O60 C62 1.247 . S
O61 Cd57 2.439 . S
O61 C62 1.208 . S
C62 O60 1.247 . S
C62 O61 1.208 . S
C63 O68 1.247 . S
C63 O69 1.208 . S
C64 O56 1.315 . S
C64 O59 1.279 . S
C65 O66 1.315 . S
C65 O67 1.279 . S
O66 Cd58 2.223 . S
O66 C65 1.315 . S
O67 Cd57 2.240 . S
O67 C65 1.279 . S
O68 Cd58 2.297 . S
O68 C63 1.247 . S
O69 Cd58 2.439 . S
O69 C63 1.208 . S
O70 Cd71 2.223 . S
O70 C78 1.315 . S
Cd71 O70 2.223 . S
Cd71 O74 2.297 . S
Cd71 O75 2.439 . S
Cd71 O81 2.240 1_565 S
Cd72 O73 2.240 1_545 S
Cd72 O80 2.223 . S
Cd72 O82 2.297 . S
Cd72 O83 2.439 . S
O73 Cd72 2.240 1_565 S
O73 C78 1.279 . S
O74 Cd71 2.297 . S
O74 C76 1.247 . S
O75 Cd71 2.439 . S
O75 C76 1.208 . S
C76 O74 1.247 . S
C76 O75 1.208 . S
C77 O82 1.247 . S
C77 O83 1.208 . S
C78 O70 1.315 . S
C78 O73 1.279 . S
C79 O80 1.315 . S
C79 O81 1.279 . S
O80 Cd72 2.223 . S
O80 C79 1.315 . S
O81 Cd71 2.240 1_545 S
O81 C79 1.279 . S
O82 Cd72 2.297 . S
O82 C77 1.247 . S
O83 Cd72 2.439 . S
O83 C77 1.208 . S
O84 Cd85 2.223 . S
O84 C92 1.315 . S
Cd85 O84 2.223 . S
Cd85 O88 2.297 . S
Cd85 O89 2.439 . S
Cd85 O95 2.240 . S
Cd86 O87 2.240 . S
Cd86 O94 2.223 . S
Cd86 O96 2.297 . S
Cd86 O97 2.439 . S
O87 Cd86 2.240 . S
O87 C92 1.279 . S
O88 Cd85 2.297 . S
O88 C90 1.247 . S
O89 Cd85 2.439 . S
O89 C90 1.208 . S
C90 O88 1.247 . S
C90 O89 1.208 . S
C91 O96 1.247 . S
C91 O97 1.208 . S
C92 O84 1.315 . S
C92 O87 1.279 . S
C93 O94 1.315 . S
C93 O95 1.279 . S
O94 Cd86 2.223 . S
O94 C93 1.315 . S
O95 Cd85 2.240 . S
O95 C93 1.279 . S
O96 Cd86 2.297 . S
O96 C91 1.247 . S
O97 Cd86 2.439 . S
O97 C91 1.208 . S
O98 Cd99 2.223 . S
O98 C106 1.315 1_545 S
Cd99 O98 2.223 . S
Cd99 O102 2.297 1_655 S
Cd99 O103 2.439 1_645 S
Cd99 O109 2.240 1_545 S
Cd100 O101 2.240 1_655 S
Cd100 O108 2.223 . S
Cd100 O110 2.297 . S
Cd100 O111 2.439 1_655 S
O101 Cd100 2.240 1_455 S
O101 C106 1.279 1_455 S
O102 Cd99 2.297 1_455 S
O102 C104 1.247 1_556 S
O103 Cd99 2.439 1_465 S
O103 C104 1.208 1_566 S
C104 O102 1.247 1_554 S
C104 O103 1.208 1_544 S
C105 O110 1.247 . S
C105 O111 1.208 1_655 S
C106 O98 1.315 1_565 S
C106 O101 1.279 1_655 S
C107 O108 1.315 . S
C107 O109 1.279 . S
O108 Cd100 2.223 . S
O108 C107 1.315 . S
O109 Cd99 2.240 1_565 S
O109 C107 1.279 . S
O110 Cd100 2.297 . S
O110 C105 1.247 . S
O111 Cd100 2.439 1_455 S
O111 C105 1.208 1_455 S
O112 Cd113 2.223 . S
O112 C120 1.315 . S
Cd113 O112 2.223 . S
Cd113 O116 2.297 . S
Cd113 O117 2.439 . S
Cd113 O123 2.240 . S
Cd114 O115 2.240 . S
Cd114 O122 2.223 . S
Cd114 O124 2.297 . S
Cd114 O125 2.439 . S
O115 Cd114 2.240 . S
O115 C120 1.279 . S
O116 Cd113 2.297 . S
O116 C118 1.247 . S
O117 Cd113 2.439 . S
O117 C118 1.208 . S
C118 O116 1.247 . S
C118 O117 1.208 . S
C119 O124 1.247 . S
C119 O125 1.208 . S
C120 O112 1.315 . S
C120 O115 1.279 . S
C121 O122 1.315 . S
C121 O123 1.279 . S
O122 Cd114 2.223 . S
O122 C121 1.315 . S
O123 Cd113 2.240 . S
O123 C121 1.279 . S
O124 Cd114 2.297 . S
O124 C119 1.247 . S
O125 Cd114 2.439 . S
O125 C119 1.208 . S
O126 Cd127 2.223 1_556 S
O126 C134 1.315 1_455 S
Cd127 O126 2.223 1_554 S
Cd127 O130 2.297 1_455 S
Cd127 O131 2.439 1_455 S
Cd127 O137 2.240 . S
Cd128 O129 2.240 1_455 S
Cd128 O136 2.223 . S
Cd128 O138 2.297 . S
Cd128 O139 2.439 1_456 S
O129 Cd128 2.240 1_655 S
O129 C134 1.279 . S
O130 Cd127 2.297 1_655 S
O130 C132 1.247 . S
O131 Cd127 2.439 1_655 S
O131 C132 1.208 . S
C132 O130 1.247 . S
C132 O131 1.208 . S
C133 O138 1.247 1_654 S
C133 O139 1.208 . S
C134 O126 1.315 1_655 S
C134 O129 1.279 . S
C135 O136 1.315 . S
C135 O137 1.279 1_556 S
O136 Cd128 2.223 . S
O136 C135 1.315 . S
O137 Cd127 2.240 . S
O137 C135 1.279 1_554 S
O138 Cd128 2.297 . S
O138 C133 1.247 1_456 S
O139 Cd128 2.439 1_654 S
O139 C133 1.208 . S
O140 Cd141 2.223 . S
O140 C148 1.315 . S
Cd141 O140 2.223 . S
Cd141 O144 2.297 . S
Cd141 O145 2.439 . S
Cd141 O151 2.240 . S
Cd142 O143 2.240 . S
Cd142 O150 2.223 . S
Cd142 O152 2.297 . S
Cd142 O153 2.439 . S
O143 Cd142 2.240 . S
O143 C148 1.279 . S
O144 Cd141 2.297 . S
O144 C146 1.247 . S
O145 Cd141 2.439 . S
O145 C146 1.208 . S
C146 O144 1.247 . S
C146 O145 1.208 . S
C147 O152 1.247 . S
C147 O153 1.208 . S
C148 O140 1.315 . S
C148 O143 1.279 . S
C149 O150 1.315 . S
C149 O151 1.279 . S
O150 Cd142 2.223 . S
O150 C149 1.315 . S
O151 Cd141 2.240 . S
O151 C149 1.279 . S
O152 Cd142 2.297 . S
O152 C147 1.247 . S
O153 Cd142 2.439 . S
O153 C147 1.208 . S
O154 Cd155 2.223 1_455 S
O154 C162 1.315 . S
Cd155 O154 2.223 1_655 S
Cd155 O158 2.297 . S
Cd155 O159 2.439 . S
Cd155 O165 2.240 . S
Cd156 O157 2.240 . S
Cd156 O164 2.223 . S
Cd156 O166 2.297 . S
Cd156 O167 2.439 1_455 S
O157 Cd156 2.240 . S
O157 C162 1.279 . S
O158 Cd155 2.297 . S
O158 C160 1.247 . S
O159 Cd155 2.439 . S
O159 C160 1.208 . S
C160 O158 1.247 . S
C160 O159 1.208 . S
C161 O166 1.247 . S
C161 O167 1.208 1_455 S
C162 O154 1.315 . S
C162 O157 1.279 . S
C163 O164 1.315 . S
C163 O165 1.279 1_455 S
O164 Cd156 2.223 . S
O164 C163 1.315 . S
O165 Cd155 2.240 . S
O165 C163 1.279 1_655 S
O166 Cd156 2.297 . S
O166 C161 1.247 . S
O167 Cd156 2.439 1_655 S
O167 C161 1.208 1_655 S
O168 Cd169 2.223 1_554 S
O168 C176 1.315 . S
Cd169 O168 2.223 1_556 S
Cd169 O172 2.297 . S
Cd169 O173 2.439 . S
Cd169 O179 2.240 . S
Cd170 O171 2.240 . S
Cd170 O178 2.223 . S
Cd170 O180 2.297 . S
Cd170 O181 2.439 1_554 S
O171 Cd170 2.240 . S
O171 C176 1.279 . S
O172 Cd169 2.297 . S
O172 C174 1.247 . S
O173 Cd169 2.439 . S
O173 C174 1.208 . S
C174 O172 1.247 . S
C174 O173 1.208 . S
C175 O180 1.247 1_556 S
C175 O181 1.208 . S
C176 O168 1.315 . S
C176 O171 1.279 . S
C177 O178 1.315 . S
C177 O179 1.279 1_554 S
O178 Cd170 2.223 . S
O178 C177 1.315 . S
O179 Cd169 2.240 . S
O179 C177 1.279 1_556 S
O180 Cd170 2.297 . S
O180 C175 1.247 1_554 S
O181 Cd170 2.439 1_556 S
O181 C175 1.208 . S
O182 Cd183 2.223 . S
O182 C190 1.315 . S
Cd183 O182 2.223 . S
Cd183 O186 2.297 . S
Cd183 O187 2.439 . S
Cd183 O193 2.240 . S
Cd184 O185 2.240 . S
Cd184 O192 2.223 . S
Cd184 O194 2.297 . S
Cd184 O195 2.439 . S
O185 Cd184 2.240 . S
O185 C190 1.279 . S
O186 Cd183 2.297 . S
O186 C188 1.247 . S
O187 Cd183 2.439 . S
O187 C188 1.208 . S
C188 O186 1.247 . S
C188 O187 1.208 . S
C189 O194 1.247 . S
C189 O195 1.208 . S
C190 O182 1.315 . S
C190 O185 1.279 . S
C191 O192 1.315 . S
C191 O193 1.279 . S
O192 Cd184 2.223 . S
O192 C191 1.315 . S
O193 Cd183 2.240 . S
O193 C191 1.279 . S
O194 Cd184 2.297 . S
O194 C189 1.247 . S
O195 Cd184 2.439 . S
O195 C189 1.208 . S
O196 Cd197 2.223 . S
O196 C204 1.315 . S
Cd197 O196 2.223 . S
Cd197 O200 2.297 . S
Cd197 O201 2.439 . S
Cd197 O207 2.240 . S
Cd198 O199 2.240 . S
Cd198 O206 2.223 . S
Cd198 O208 2.297 . S
Cd198 O209 2.439 . S
O199 Cd198 2.240 . S
O199 C204 1.279 . S
O200 Cd197 2.297 . S
O200 C202 1.247 . S
O201 Cd197 2.439 . S
O201 C202 1.208 . S
C202 O200 1.247 . S
C202 O201 1.208 . S
C203 O208 1.247 . S
C203 O209 1.208 . S
C204 O196 1.315 . S
C204 O199 1.279 . S
C205 O206 1.315 . S
C205 O207 1.279 . S
O206 Cd198 2.223 . S
O206 C205 1.315 . S
O207 Cd197 2.240 . S
O207 C205 1.279 . S
O208 Cd198 2.297 . S
O208 C203 1.247 . S
O209 Cd198 2.439 . S
O209 C203 1.208 . S
O210 Cd211 2.223 . S
O210 C218 1.315 . S
Cd211 O210 2.223 . S
Cd211 O214 2.297 . S
Cd211 O215 2.439 . S
Cd211 O221 2.240 . S
Cd212 O213 2.240 . S
Cd212 O220 2.223 . S
Cd212 O222 2.297 . S
Cd212 O223 2.439 . S
O213 Cd212 2.240 . S
O213 C218 1.279 . S
O214 Cd211 2.297 . S
O214 C216 1.247 . S
O215 Cd211 2.439 . S
O215 C216 1.208 . S
C216 O214 1.247 . S
C216 O215 1.208 . S
C217 O222 1.247 . S
C217 O223 1.208 . S
C218 O210 1.315 . S
C218 O213 1.279 . S
C219 O220 1.315 . S
C219 O221 1.279 . S
O220 Cd212 2.223 . S
O220 C219 1.315 . S
O221 Cd211 2.240 . S
O221 C219 1.279 . S
O222 Cd212 2.297 . S
O222 C217 1.247 . S
O223 Cd212 2.439 . S
O223 C217 1.208 . S
H224 C230 0.930 . S
H225 C234 0.930 . S
H226 C239 0.929 . S
H227 C237 0.929 . S
H228 C232 0.929 . S
H229 C238 0.929 . S
C230 H224 0.930 . S
C230 C231 1.367 . S
C230 C238 1.378 . S
C231 C230 1.367 . S
C231 C239 1.433 . S
C232 H228 0.929 . S
C232 C234 1.378 . S
C232 C236 1.350 . S
C233 C236 1.463 . S
C233 C238 1.350 . S
C233 N241 1.427 . S
C234 H225 0.930 . S
C234 C232 1.378 . S
C234 C235 1.367 . S
C235 C234 1.367 . S
C235 C237 1.433 . S
C236 C232 1.350 . S
C236 C233 1.463 . S
C236 N240 1.427 . S
C237 H227 0.929 . S
C237 C235 1.433 . S
C237 N240 1.384 . S
C238 H229 0.929 . S
C238 C230 1.378 . S
C238 C233 1.350 . S
C239 H226 0.929 . S
C239 C231 1.433 . S
C239 N241 1.384 . S
N240 C236 1.427 . S
N240 C237 1.384 . S
N241 C233 1.427 . S
N241 C239 1.384 . S
H242 C248 0.930 . S
H243 C252 0.930 . S
H244 C257 0.929 . S
H245 C255 0.929 . S
H246 C250 0.929 . S
H247 C256 0.929 . S
C248 H242 0.930 . S
C248 C249 1.367 . S
C248 C256 1.378 . S
C249 C248 1.367 . S
C249 C257 1.433 . S
C250 H246 0.929 . S
C250 C252 1.378 . S
C250 C254 1.350 . S
C251 C254 1.463 . S
C251 C256 1.350 . S
C251 N259 1.427 . S
C252 H243 0.930 . S
C252 C250 1.378 . S
C252 C253 1.367 . S
C253 C252 1.367 . S
C253 C255 1.433 . S
C254 C250 1.350 . S
C254 C251 1.463 . S
C254 N258 1.427 . S
C255 H245 0.929 . S
C255 C253 1.433 . S
C255 N258 1.384 . S
C256 H247 0.929 . S
C256 C248 1.378 . S
C256 C251 1.350 . S
C257 H244 0.929 . S
C257 C249 1.433 . S
C257 N259 1.384 . S
N258 C254 1.427 . S
N258 C255 1.384 . S
N259 C251 1.427 . S
N259 C257 1.384 . S
H260 C266 0.930 . S
H261 C270 0.930 . S
H262 C275 0.929 . S
H263 C273 0.929 . S
H264 C268 0.929 . S
H265 C274 0.929 . S
C266 H260 0.930 . S
C266 C267 1.367 . S
C266 C274 1.378 . S
C267 C266 1.367 . S
C267 C275 1.433 . S
C268 H264 0.929 . S
C268 C270 1.378 . S
C268 C272 1.350 . S
C269 C272 1.463 . S
C269 C274 1.350 . S
C269 N277 1.427 . S
C270 H261 0.930 . S
C270 C268 1.378 . S
C270 C271 1.367 . S
C271 C270 1.367 . S
C271 C273 1.433 . S
C272 C268 1.350 . S
C272 C269 1.463 . S
C272 N276 1.427 . S
C273 H263 0.929 . S
C273 C271 1.433 . S
C273 N276 1.384 . S
C274 H265 0.929 . S
C274 C266 1.378 . S
C274 C269 1.350 . S
C275 H262 0.929 . S
C275 C267 1.433 . S
C275 N277 1.384 . S
N276 C272 1.427 . S
N276 C273 1.384 . S
N277 C269 1.427 . S
N277 C275 1.384 . S
H278 C284 0.930 . S
H279 C288 0.930 . S
H280 C293 0.929 . S
H281 C291 0.929 . S
H282 C286 0.929 . S
H283 C292 0.929 . S
C284 H278 0.930 . S
C284 C285 1.367 . S
C284 C292 1.378 . S
C285 C284 1.367 . S
C285 C293 1.433 . S
C286 H282 0.929 . S
C286 C288 1.378 . S
C286 C290 1.350 . S
C287 C290 1.463 . S
C287 C292 1.350 . S
C287 N295 1.427 . S
C288 H279 0.930 . S
C288 C286 1.378 . S
C288 C289 1.367 . S
C289 C288 1.367 . S
C289 C291 1.433 . S
C290 C286 1.350 . S
C290 C287 1.463 . S
C290 N294 1.427 . S
C291 H281 0.929 . S
C291 C289 1.433 . S
C291 N294 1.384 . S
C292 H283 0.929 . S
C292 C284 1.378 . S
C292 C287 1.350 . S
C293 H280 0.929 . S
C293 C285 1.433 . S
C293 N295 1.384 . S
N294 C290 1.427 . S
N294 C291 1.384 . S
N295 C287 1.427 . S
N295 C293 1.384 . S
H296 C302 0.930 . S
H297 C306 0.930 . S
H298 C311 0.929 . S
H299 C309 0.929 . S
H300 C304 0.929 . S
H301 C310 0.929 . S
C302 H296 0.930 . S
C302 C303 1.367 . S
C302 C310 1.378 . S
C303 C302 1.367 . S
C303 C311 1.433 . S
C304 H300 0.929 . S
C304 C306 1.378 . S
C304 C308 1.350 . S
C305 C308 1.463 . S
C305 C310 1.350 . S
C305 N313 1.427 . S
C306 H297 0.930 . S
C306 C304 1.378 . S
C306 C307 1.367 . S
C307 C306 1.367 . S
C307 C309 1.433 . S
C308 C304 1.350 . S
C308 C305 1.463 . S
C308 N312 1.427 . S
C309 H299 0.929 . S
C309 C307 1.433 . S
C309 N312 1.384 . S
C310 H301 0.929 . S
C310 C302 1.378 . S
C310 C305 1.350 . S
C311 H298 0.929 . S
C311 C303 1.433 . S
C311 N313 1.384 . S
N312 C308 1.427 . S
N312 C309 1.384 . S
N313 C305 1.427 . S
N313 C311 1.384 . S
H314 C320 0.930 . S
H315 C324 0.930 . S
H316 C329 0.929 . S
H317 C327 0.929 . S
H318 C322 0.929 . S
H319 C328 0.929 . S
C320 H314 0.930 . S
C320 C321 1.367 . S
C320 C328 1.378 . S
C321 C320 1.367 . S
C321 C329 1.433 . S
C322 H318 0.929 . S
C322 C324 1.378 . S
C322 C326 1.350 . S
C323 C326 1.463 . S
C323 C328 1.350 . S
C323 N331 1.427 . S
C324 H315 0.930 . S
C324 C322 1.378 . S
C324 C325 1.367 . S
C325 C324 1.367 . S
C325 C327 1.433 . S
C326 C322 1.350 . S
C326 C323 1.463 . S
C326 N330 1.427 . S
C327 H317 0.929 . S
C327 C325 1.433 . S
C327 N330 1.384 . S
C328 H319 0.929 . S
C328 C320 1.378 . S
C328 C323 1.350 . S
C329 H316 0.929 . S
C329 C321 1.433 . S
C329 N331 1.384 . S
N330 C326 1.427 . S
N330 C327 1.384 . S
N331 C323 1.427 . S
N331 C329 1.384 . S
H332 C338 0.930 . S
H333 C342 0.930 . S
H334 C347 0.929 . S
H335 C345 0.929 . S
H336 C340 0.929 . S
H337 C346 0.929 . S
C338 H332 0.930 . S
C338 C339 1.367 . S
C338 C346 1.378 . S
C339 C338 1.367 . S
C339 C347 1.433 . S
C340 H336 0.929 . S
C340 C342 1.378 . S
C340 C344 1.350 . S
C341 C344 1.463 . S
C341 C346 1.350 . S
C341 N349 1.427 . S
C342 H333 0.930 . S
C342 C340 1.378 . S
C342 C343 1.367 . S
C343 C342 1.367 . S
C343 C345 1.433 . S
C344 C340 1.350 . S
C344 C341 1.463 . S
C344 N348 1.427 . S
C345 H335 0.929 . S
C345 C343 1.433 . S
C345 N348 1.384 . S
C346 H337 0.929 . S
C346 C338 1.378 . S
C346 C341 1.350 . S
C347 H334 0.929 . S
C347 C339 1.433 . S
C347 N349 1.384 . S
N348 C344 1.427 . S
N348 C345 1.384 . S
N349 C341 1.427 . S
N349 C347 1.384 . S
H350 C356 0.930 . S
H351 C360 0.930 . S
H352 C365 0.929 . S
H353 C363 0.929 . S
H354 C358 0.929 . S
H355 C364 0.929 . S
C356 H350 0.930 . S
C356 C357 1.367 . S
C356 C364 1.378 . S
C357 C356 1.367 . S
C357 C365 1.433 . S
C358 H354 0.929 . S
C358 C360 1.378 . S
C358 C362 1.350 . S
C359 C362 1.463 . S
C359 C364 1.350 . S
C359 N367 1.427 . S
C360 H351 0.930 . S
C360 C358 1.378 . S
C360 C361 1.367 . S
C361 C360 1.367 . S
C361 C363 1.433 . S
C362 C358 1.350 . S
C362 C359 1.463 . S
C362 N366 1.427 . S
C363 H353 0.929 . S
C363 C361 1.433 . S
C363 N366 1.384 . S
C364 H355 0.929 . S
C364 C356 1.378 . S
C364 C359 1.350 . S
C365 H352 0.929 . S
C365 C357 1.433 . S
C365 N367 1.384 . S
N366 C362 1.427 . S
N366 C363 1.384 . S
N367 C359 1.427 . S
N367 C365 1.384 . S
H368 C374 0.930 . S
H369 C378 0.930 . S
H370 C383 0.929 . S
H371 C381 0.929 . S
H372 C376 0.929 . S
H373 C382 0.929 . S
C374 H368 0.930 . S
C374 C375 1.367 . S
C374 C382 1.378 . S
C375 C374 1.367 . S
C375 C383 1.433 . S
C376 H372 0.929 . S
C376 C378 1.378 . S
C376 C380 1.350 . S
C377 C380 1.463 . S
C377 C382 1.350 . S
C377 N385 1.427 . S
C378 H369 0.930 . S
C378 C376 1.378 . S
C378 C379 1.367 . S
C379 C378 1.367 . S
C379 C381 1.433 . S
C380 C376 1.350 . S
C380 C377 1.463 . S
C380 N384 1.427 . S
C381 H371 0.929 . S
C381 C379 1.433 . S
C381 N384 1.384 . S
C382 H373 0.929 . S
C382 C374 1.378 . S
C382 C377 1.350 . S
C383 H370 0.929 . S
C383 C375 1.433 . S
C383 N385 1.384 . S
N384 C380 1.427 . S
N384 C381 1.384 . S
N385 C377 1.427 . S
N385 C383 1.384 . S
H386 C392 0.930 . S
H387 C396 0.930 . S
H388 C401 0.929 . S
H389 C399 0.929 . S
H390 C394 0.929 . S
H391 C400 0.929 . S
C392 H386 0.930 . S
C392 C393 1.363 1_445 S
C392 C400 1.378 . S
C393 C392 1.363 1_665 S
C393 C401 1.437 . S
C394 H390 0.929 . S
C394 C396 1.378 . S
C394 C398 1.350 . S
C395 C398 1.463 . S
C395 C400 1.350 1_665 S
C395 N403 1.427 . S
C396 H387 0.930 . S
C396 C394 1.378 . S
C396 C397 1.367 . S
C397 C396 1.367 . S
C397 C399 1.433 1_665 S
C398 C394 1.350 . S
C398 C395 1.463 . S
C398 N402 1.427 1_665 S
C399 H389 0.929 . S
C399 C397 1.433 1_445 S
C399 N402 1.384 . S
C400 H391 0.929 . S
C400 C392 1.378 . S
C400 C395 1.350 1_445 S
C401 H388 0.929 . S
C401 C393 1.437 . S
C401 N403 1.384 . S
N402 C398 1.427 1_445 S
N402 C399 1.384 . S
N403 C395 1.427 . S
N403 C401 1.384 . S
H404 C410 0.930 . S
H405 C414 0.930 . S
H406 C419 0.929 . S
H407 C417 0.929 . S
H408 C412 0.929 . S
H409 C418 0.929 . S
C410 H404 0.930 . S
C410 C411 1.367 . S
C410 C418 1.378 . S
C411 C410 1.367 . S
C411 C419 1.433 . S
C412 H408 0.929 . S
C412 C414 1.378 . S
C412 C416 1.350 . S
C413 C416 1.463 1_556 S
C413 C418 1.350 . S
C413 N421 1.427 . S
C414 H405 0.930 . S
C414 C412 1.378 . S
C414 C415 1.367 . S
C415 C414 1.367 . S
C415 C417 1.433 . S
C416 C412 1.350 . S
C416 C413 1.463 1_554 S
C416 N420 1.427 . S
C417 H407 0.929 . S
C417 C415 1.433 . S
C417 N420 1.384 . S
C418 H409 0.929 . S
C418 C410 1.378 . S
C418 C413 1.350 . S
C419 H406 0.929 . S
C419 C411 1.433 . S
C419 N421 1.384 . S
N420 C416 1.427 . S
N420 C417 1.384 . S
N421 C413 1.427 . S
N421 C419 1.384 . S
H422 C428 0.930 1_545 S
H423 C432 0.930 . S
H424 C437 0.929 . S
H425 C435 0.929 1_545 S
H426 C430 0.929 . S
H427 C436 0.929 1_545 S
C428 H422 0.930 1_565 S
C428 C429 1.367 . S
C428 C436 1.378 . S
C429 C428 1.367 . S
C429 C437 1.433 . S
C430 H426 0.929 . S
C430 C432 1.378 . S
C430 C434 1.350 . S
C431 C434 1.463 . S
C431 C436 1.350 . S
C431 N439 1.427 . S
C432 H423 0.930 . S
C432 C430 1.378 . S
C432 C433 1.367 . S
C433 C432 1.367 . S
C433 C435 1.433 . S
C434 C430 1.350 . S
C434 C431 1.463 . S
C434 N438 1.427 . S
C435 H425 0.929 1_565 S
C435 C433 1.433 . S
C435 N438 1.384 . S
C436 H427 0.929 1_565 S
C436 C428 1.378 . S
C436 C431 1.350 . S
C437 H424 0.929 . S
C437 C429 1.433 . S
C437 N439 1.384 . S
N438 C434 1.427 . S
N438 C435 1.384 . S
N439 C431 1.427 . S
N439 C437 1.384 . S
H440 C446 0.930 . S
H441 C450 0.930 . S
H442 C455 0.929 . S
H443 C453 0.929 . S
H444 C448 0.929 . S
H445 C454 0.929 . S
C446 H440 0.930 . S
C446 C447 1.367 . S
C446 C454 1.378 . S
C447 C446 1.367 . S
C447 C455 1.433 . S
C448 H444 0.929 . S
C448 C450 1.378 . S
C448 C452 1.350 . S
C449 C452 1.463 . S
C449 C454 1.350 . S
C449 N457 1.427 . S
C450 H441 0.930 . S
C450 C448 1.378 . S
C450 C451 1.367 . S
C451 C450 1.367 . S
C451 C453 1.433 . S
C452 C448 1.350 . S
C452 C449 1.463 . S
C452 N456 1.427 . S
C453 H443 0.929 . S
C453 C451 1.433 . S
C453 N456 1.384 . S
C454 H445 0.929 . S
C454 C446 1.378 . S
C454 C449 1.350 . S
C455 H442 0.929 . S
C455 C447 1.433 . S
C455 N457 1.384 . S
N456 C452 1.427 . S
N456 C453 1.384 . S
N457 C449 1.427 . S
N457 C455 1.384 . S
H458 C464 0.930 . S
H459 C468 0.930 . S
H460 C473 0.929 . S
H461 C471 0.929 . S
H462 C466 0.929 . S
H463 C472 0.929 . S
C464 H458 0.930 . S
C464 C465 1.367 . S
C464 C472 1.378 . S
C465 C464 1.367 . S
C465 C473 1.433 1_455 S
C466 H462 0.929 . S
C466 C468 1.378 . S
C466 C470 1.350 1_655 S
C467 C470 1.463 . S
C467 C472 1.350 . S
C467 N475 1.427 1_455 S
C468 H459 0.930 . S
C468 C466 1.378 . S
C468 C469 1.367 1_655 S
C469 C468 1.367 1_455 S
C469 C471 1.433 . S
C470 C466 1.350 1_455 S
C470 C467 1.463 . S
C470 N474 1.427 . S
C471 H461 0.929 . S
C471 C469 1.433 . S
C471 N474 1.384 . S
C472 H463 0.929 . S
C472 C464 1.378 . S
C472 C467 1.350 . S
C473 H460 0.929 . S
C473 C465 1.433 1_655 S
C473 N475 1.384 . S
N474 C470 1.427 . S
N474 C471 1.384 . S
N475 C467 1.427 1_655 S
N475 C473 1.384 . S
H476 C482 0.930 . S
H477 C486 0.930 . S
H478 C491 0.929 . S
H479 C489 0.929 . S
H480 C484 0.929 . S
H481 C490 0.929 1_455 S
C482 H476 0.930 . S
C482 C483 1.367 . S
C482 C490 1.378 . S
C483 C482 1.367 . S
C483 C491 1.433 . S
C484 H480 0.929 . S
C484 C486 1.378 . S
C484 C488 1.350 . S
C485 C488 1.468 . S
C485 C490 1.348 1_455 S
C485 N493 1.425 1_455 S
C486 H477 0.930 . S
C486 C484 1.378 . S
C486 C487 1.367 . S
C487 C486 1.367 . S
C487 C489 1.433 . S
C488 C484 1.350 . S
C488 C485 1.468 . S
C488 N492 1.427 . S
C489 H479 0.929 . S
C489 C487 1.433 . S
C489 N492 1.384 . S
C490 H481 0.929 1_655 S
C490 C482 1.378 . S
C490 C485 1.348 1_655 S
C491 H478 0.929 . S
C491 C483 1.433 . S
C491 N493 1.384 . S
N492 C488 1.427 . S
N492 C489 1.384 . S
N493 C485 1.425 1_655 S
N493 C491 1.384 . S
H494 C500 0.930 . S
H495 C504 0.930 . S
H496 C509 0.929 . S
H497 C507 0.929 . S
H498 C502 0.929 . S
H499 C508 0.929 . S
C500 H494 0.930 . S
C500 C501 1.367 1_554 S
C500 C508 1.378 . S
C501 C500 1.367 1_556 S
C501 C509 1.433 . S
C502 H498 0.929 . S
C502 C504 1.378 . S
C502 C506 1.350 . S
C503 C506 1.463 . S
C503 C508 1.350 1_556 S
C503 N511 1.427 . S
C504 H495 0.930 . S
C504 C502 1.378 . S
C504 C505 1.367 . S
C505 C504 1.367 . S
C505 C507 1.433 1_556 S
C506 C502 1.350 . S
C506 C503 1.463 . S
C506 N510 1.427 1_556 S
C507 H497 0.929 . S
C507 C505 1.433 1_554 S
C507 N510 1.384 . S
C508 H499 0.929 . S
C508 C500 1.378 . S
C508 C503 1.350 1_554 S
C509 H496 0.929 . S
C509 C501 1.433 . S
C509 N511 1.384 . S
N510 C506 1.427 1_554 S
N510 C507 1.384 . S
N511 C503 1.427 . S
N511 C509 1.384 . S
H512 C518 0.930 . S
H513 C522 0.930 . S
H514 C527 0.929 . S
H515 C525 0.929 . S
H516 C520 0.929 . S
H517 C526 0.929 . S
C518 H512 0.930 . S
C518 C519 1.367 . S
C518 C526 1.378 . S
C519 C518 1.367 . S
C519 C527 1.433 . S
C520 H516 0.929 . S
C520 C522 1.378 . S
C520 C524 1.350 . S
C521 C524 1.463 . S
C521 C526 1.350 . S
C521 N529 1.427 . S
C522 H513 0.930 . S
C522 C520 1.378 . S
C522 C523 1.367 . S
C523 C522 1.367 . S
C523 C525 1.433 . S
C524 C520 1.350 . S
C524 C521 1.463 . S
C524 N528 1.427 . S
C525 H515 0.929 . S
C525 C523 1.433 . S
C525 N528 1.384 . S
C526 H517 0.929 . S
C526 C518 1.378 . S
C526 C521 1.350 . S
C527 H514 0.929 . S
C527 C519 1.433 . S
C527 N529 1.384 . S
N528 C524 1.427 . S
N528 C525 1.384 . S
N529 C521 1.427 . S
N529 C527 1.384 . S
H530 C536 0.930 . S
H531 C540 0.930 . S
H532 C545 0.929 . S
H533 C543 0.929 . S
H534 C538 0.929 . S
H535 C544 0.929 . S
C536 H530 0.930 . S
C536 C537 1.367 . S
C536 C544 1.378 . S
C537 C536 1.367 . S
C537 C545 1.433 . S
C538 H534 0.929 . S
C538 C540 1.378 . S
C538 C542 1.350 . S
C539 C542 1.463 . S
C539 C544 1.350 . S
C539 N547 1.427 . S
C540 H531 0.930 . S
C540 C538 1.378 . S
C540 C541 1.367 . S
C541 C540 1.367 . S
C541 C543 1.433 . S
C542 C538 1.350 . S
C542 C539 1.463 . S
C542 N546 1.427 . S
C543 H533 0.929 . S
C543 C541 1.433 . S
C543 N546 1.384 . S
C544 H535 0.929 . S
C544 C536 1.378 . S
C544 C539 1.350 . S
C545 H532 0.929 . S
C545 C537 1.433 . S
C545 N547 1.384 . S
N546 C542 1.427 . S
N546 C543 1.384 . S
N547 C539 1.427 . S
N547 C545 1.384 . S
H548 C554 0.930 . S
H549 C558 0.930 . S
H550 C563 0.929 . S
H551 C561 0.929 . S
H552 C556 0.929 . S
H553 C562 0.929 . S
C554 H548 0.930 . S
C554 C555 1.367 . S
C554 C562 1.378 . S
C555 C554 1.367 . S
C555 C563 1.433 . S
C556 H552 0.929 . S
C556 C558 1.378 1_455 S
C556 C560 1.350 . S
C557 C560 1.463 . S
C557 C562 1.350 . S
C557 N565 1.427 . S
C558 H549 0.930 . S
C558 C556 1.378 1_655 S
C558 C559 1.367 . S
C559 C558 1.367 . S
C559 C561 1.433 . S
C560 C556 1.350 . S
C560 C557 1.463 . S
C560 N564 1.427 . S
C561 H551 0.929 . S
C561 C559 1.433 . S
C561 N564 1.384 1_655 S
C562 H553 0.929 . S
C562 C554 1.378 . S
C562 C557 1.350 . S
C563 H550 0.929 . S
C563 C555 1.433 . S
C563 N565 1.384 . S
N564 C560 1.427 . S
N564 C561 1.384 1_455 S
N565 C557 1.427 . S
N565 C563 1.384 . S
H566 C572 0.930 . S
H567 C576 0.930 . S
H568 C581 0.929 . S
H569 C579 0.937 . S
H570 C574 0.929 . S
H571 C580 0.929 . S
C572 H566 0.930 . S
C572 C573 1.367 1_455 S
C572 C580 1.378 . S
C573 C572 1.367 1_655 S
C573 C581 1.433 1_556 S
C574 H570 0.929 . S
C574 C576 1.378 . S
C574 C578 1.350 . S
C575 C578 1.463 1_556 S
C575 C580 1.350 1_655 S
C575 N583 1.427 1_556 S
C576 H567 0.930 . S
C576 C574 1.378 . S
C576 C577 1.367 . S
C577 C576 1.367 . S
C577 C579 1.429 1_654 S
C578 C574 1.350 . S
C578 C575 1.463 1_554 S
C578 N582 1.419 1_654 S
C579 H569 0.937 . S
C579 C577 1.429 1_456 S
C579 N582 1.384 . S
C580 H571 0.929 . S
C580 C572 1.378 . S
C580 C575 1.350 1_455 S
C581 H568 0.929 . S
C581 C573 1.433 1_554 S
C581 N583 1.384 . S
N582 C578 1.419 1_456 S
N582 C579 1.384 . S
N583 C575 1.427 1_554 S
N583 C581 1.384 . S
H584 C590 0.930 . S
H585 C594 0.930 . S
H586 C599 0.929 . S
H587 C597 0.929 . S
H588 C592 0.929 . S
H589 C598 0.929 . S
C590 H584 0.930 . S
C590 C591 1.367 . S
C590 C598 1.378 . S
C591 C590 1.367 . S
C591 C599 1.433 . S
C592 H588 0.929 . S
C592 C594 1.378 . S
C592 C596 1.350 . S
C593 C596 1.463 . S
C593 C598 1.350 . S
C593 N601 1.427 . S
C594 H585 0.930 . S
C594 C592 1.378 . S
C594 C595 1.367 . S
C595 C594 1.367 . S
C595 C597 1.433 . S
C596 C592 1.350 . S
C596 C593 1.463 . S
C596 N600 1.427 . S
C597 H587 0.929 . S
C597 C595 1.433 . S
C597 N600 1.384 . S
C598 H589 0.929 . S
C598 C590 1.378 . S
C598 C593 1.350 . S
C599 H586 0.929 . S
C599 C591 1.433 . S
C599 N601 1.384 . S
N600 C596 1.427 . S
N600 C597 1.384 . S
N601 C593 1.427 . S
N601 C599 1.384 . S
H602 C608 0.930 . S
H603 C612 0.930 . S
H604 C617 0.929 . S
H605 C615 0.929 . S
H606 C610 0.929 1_545 S
H607 C616 0.929 . S
C608 H602 0.930 . S
C608 C609 1.367 . S
C608 C616 1.378 . S
C609 C608 1.367 . S
C609 C617 1.433 . S
C610 H606 0.929 1_565 S
C610 C612 1.378 . S
C610 C614 1.350 1_565 S
C611 C614 1.463 . S
C611 C616 1.350 . S
C611 N619 1.427 . S
C612 H603 0.930 . S
C612 C610 1.378 . S
C612 C613 1.367 . S
C613 C612 1.367 . S
C613 C615 1.433 . S
C614 C610 1.350 1_545 S
C614 C611 1.463 . S
C614 N618 1.427 . S
C615 H605 0.929 . S
C615 C613 1.433 . S
C615 N618 1.384 1_565 S
C616 H607 0.929 . S
C616 C608 1.378 . S
C616 C611 1.350 . S
C617 H604 0.929 . S
C617 C609 1.433 . S
C617 N619 1.384 . S
N618 C614 1.427 . S
N618 C615 1.384 1_545 S
N619 C611 1.427 . S
N619 C617 1.384 . S
H620 C626 0.935 . S
H621 C630 0.930 1_554 S
H622 C635 0.929 . S
H623 C633 0.929 . S
H624 C628 0.929 . S
H625 C634 0.929 . S
C626 H620 0.935 . S
C626 C627 1.361 1_556 S
C626 C634 1.379 . S
C627 C626 1.361 1_554 S
C627 C635 1.433 . S
C628 H624 0.929 . S
C628 C630 1.378 1_554 S
C628 C632 1.350 1_554 S
C629 C632 1.463 1_554 S
C629 C634 1.350 1_554 S
C629 N637 1.427 . S
C630 H621 0.930 1_556 S
C630 C628 1.378 1_556 S
C630 C631 1.367 . S
C631 C630 1.367 . S
C631 C633 1.433 . S
C632 C628 1.350 1_556 S
C632 C629 1.463 1_556 S
C632 N636 1.427 . S
C633 H623 0.929 . S
C633 C631 1.433 . S
C633 N636 1.384 . S
C634 H625 0.929 . S
C634 C626 1.379 . S
C634 C629 1.350 1_556 S
C635 H622 0.929 . S
C635 C627 1.433 . S
C635 N637 1.384 . S
N636 C632 1.427 . S
N636 C633 1.384 . S
N637 C629 1.427 . S
N637 C635 1.384 . S
H638 C644 0.930 . S
H639 C648 0.930 . S
H640 C653 0.929 . S
H641 C651 0.929 . S
H642 C646 0.929 . S
H643 C652 0.929 . S
C644 H638 0.930 . S
C644 C645 1.367 . S
C644 C652 1.378 . S
C645 C644 1.367 . S
C645 C653 1.433 . S
C646 H642 0.929 . S
C646 C648 1.378 . S
C646 C650 1.350 . S
C647 C650 1.463 1_545 S
C647 C652 1.350 . S
C647 N655 1.427 . S
C648 H639 0.930 . S
C648 C646 1.378 . S
C648 C649 1.367 . S
C649 C648 1.367 . S
C649 C651 1.433 . S
C650 C646 1.350 . S
C650 C647 1.463 1_565 S
C650 N654 1.427 . S
C651 H641 0.929 . S
C651 C649 1.433 . S
C651 N654 1.384 . S
C652 H643 0.929 . S
C652 C644 1.378 . S
C652 C647 1.350 . S
C653 H640 0.929 . S
C653 C645 1.433 . S
C653 N655 1.384 . S
N654 C650 1.427 . S
N654 C651 1.384 . S
N655 C647 1.427 . S
N655 C653 1.384 . S
H656 C662 0.930 . S
H657 C666 0.930 . S
H658 C671 0.929 . S
H659 C669 0.929 . S
H660 C664 0.929 . S
H661 C670 0.929 . S
C662 H656 0.930 . S
C662 C663 1.367 . S
C662 C670 1.378 . S
C663 C662 1.367 . S
C663 C671 1.433 . S
C664 H660 0.929 . S
C664 C666 1.378 . S
C664 C668 1.350 . S
C665 C668 1.463 . S
C665 C670 1.350 . S
C665 N673 1.427 . S
C666 H657 0.930 . S
C666 C664 1.378 . S
C666 C667 1.367 . S
C667 C666 1.367 . S
C667 C669 1.433 . S
C668 C664 1.350 . S
C668 C665 1.463 . S
C668 N672 1.427 . S
C669 H659 0.929 . S
C669 C667 1.433 . S
C669 N672 1.384 . S
C670 H661 0.929 . S
C670 C662 1.378 . S
C670 C665 1.350 . S
C671 H658 0.929 . S
C671 C663 1.433 . S
C671 N673 1.384 . S
N672 C668 1.427 . S
N672 C669 1.384 . S
N673 C665 1.427 . S
N673 C671 1.384 . S
H674 C680 0.930 . S
H675 C684 0.930 . S
H676 C689 0.929 . S
H677 C687 0.929 . S
H678 C682 0.929 . S
H679 C688 0.929 . S
C680 H674 0.930 . S
C680 C681 1.367 . S
C680 C688 1.378 . S
C681 C680 1.367 . S
C681 C689 1.433 . S
C682 H678 0.929 . S
C682 C684 1.378 . S
C682 C686 1.350 . S
C683 C686 1.463 . S
C683 C688 1.350 . S
C683 N691 1.427 . S
C684 H675 0.930 . S
C684 C682 1.378 . S
C684 C685 1.367 . S
C685 C684 1.367 . S
C685 C687 1.433 . S
C686 C682 1.350 . S
C686 C683 1.463 . S
C686 N690 1.427 . S
C687 H677 0.929 . S
C687 C685 1.433 . S
C687 N690 1.384 . S
C688 H679 0.929 . S
C688 C680 1.378 . S
C688 C683 1.350 . S
C689 H676 0.929 . S
C689 C681 1.433 . S
C689 N691 1.384 . S
N690 C686 1.427 . S
N690 C687 1.384 . S
N691 C683 1.427 . S
N691 C689 1.384 . S
H692 C698 0.930 . S
H693 C702 0.930 . S
H694 C707 0.929 . S
H695 C705 0.929 . S
H696 C700 0.929 . S
H697 C706 0.929 . S
C698 H692 0.930 . S
C698 C699 1.367 . S
C698 C706 1.378 . S
C699 C698 1.367 . S
C699 C707 1.433 . S
C700 H696 0.929 . S
C700 C702 1.378 . S
C700 C704 1.350 . S
C701 C704 1.463 . S
C701 C706 1.350 . S
C701 N709 1.427 . S
C702 H693 0.930 . S
C702 C700 1.378 . S
C702 C703 1.367 . S
C703 C702 1.367 . S
C703 C705 1.433 . S
C704 C700 1.350 . S
C704 C701 1.463 . S
C704 N708 1.427 . S
C705 H695 0.929 . S
C705 C703 1.433 . S
C705 N708 1.384 . S
C706 H697 0.929 . S
C706 C698 1.378 . S
C706 C701 1.350 . S
C707 H694 0.929 . S
C707 C699 1.433 . S
C707 N709 1.384 . S
N708 C704 1.427 . S
N708 C705 1.384 . S
N709 C701 1.427 . S
N709 C707 1.384 . S
H710 C716 0.930 . S
H711 C720 0.930 . S
H712 C725 0.929 . S
H713 C723 0.929 . S
H714 C718 0.929 . S
H715 C724 0.929 . S
C716 H710 0.930 . S
C716 C717 1.367 . S
C716 C724 1.378 . S
C717 C716 1.367 . S
C717 C725 1.433 . S
C718 H714 0.929 . S
C718 C720 1.378 . S
C718 C722 1.350 . S
C719 C722 1.463 1_556 S
C719 C724 1.350 . S
C719 N727 1.427 . S
C720 H711 0.930 . S
C720 C718 1.378 . S
C720 C721 1.367 . S
C721 C720 1.367 . S
C721 C723 1.433 . S
C722 C718 1.350 . S
C722 C719 1.463 1_554 S
C722 N726 1.427 . S
C723 H713 0.929 . S
C723 C721 1.433 . S
C723 N726 1.384 . S
C724 H715 0.929 . S
C724 C716 1.378 . S
C724 C719 1.350 . S
C725 H712 0.929 . S
C725 C717 1.433 . S
C725 N727 1.384 . S
N726 C722 1.427 . S
N726 C723 1.384 . S
N727 C719 1.427 . S
N727 C725 1.384 . S
H728 C734 0.930 . S
H729 C738 0.930 . S
H730 C743 0.929 . S
H731 C741 0.929 . S
H732 C736 0.929 . S
H733 C742 0.929 . S
C734 H728 0.930 . S
C734 C735 1.367 . S
C734 C742 1.378 . S
C735 C734 1.367 . S
C735 C743 1.433 . S
C736 H732 0.929 . S
C736 C738 1.378 . S
C736 C740 1.350 . S
C737 C740 1.463 . S
C737 C742 1.350 . S
C737 N745 1.427 . S
C738 H729 0.930 . S
C738 C736 1.378 . S
C738 C739 1.367 . S
C739 C738 1.367 . S
C739 C741 1.433 . S
C740 C736 1.350 . S
C740 C737 1.463 . S
C740 N744 1.427 . S
C741 H731 0.929 . S
C741 C739 1.433 . S
C741 N744 1.384 . S
C742 H733 0.929 . S
C742 C734 1.378 . S
C742 C737 1.350 . S
C743 H730 0.929 . S
C743 C735 1.433 . S
C743 N745 1.384 . S
N744 C740 1.427 . S
N744 C741 1.384 . S
N745 C737 1.427 . S
N745 C743 1.384 . S
H746 C752 0.930 . S
H747 C756 0.930 . S
H748 C761 0.929 . S
H749 C759 0.929 . S
H750 C754 0.929 . S
H751 C760 0.929 . S
C752 H746 0.930 . S
C752 C753 1.367 . S
C752 C760 1.378 . S
C753 C752 1.367 . S
C753 C761 1.433 . S
C754 H750 0.929 . S
C754 C756 1.378 . S
C754 C758 1.350 . S
C755 C758 1.463 . S
C755 C760 1.350 . S
C755 N763 1.427 . S
C756 H747 0.930 . S
C756 C754 1.378 . S
C756 C757 1.367 . S
C757 C756 1.367 . S
C757 C759 1.433 . S
C758 C754 1.350 . S
C758 C755 1.463 . S
C758 N762 1.427 . S
C759 H749 0.929 . S
C759 C757 1.433 . S
C759 N762 1.384 . S
C760 H751 0.929 . S
C760 C752 1.378 . S
C760 C755 1.350 . S
C761 H748 0.929 . S
C761 C753 1.433 . S
C761 N763 1.384 . S
N762 C758 1.427 . S
N762 C759 1.384 . S
N763 C755 1.427 . S
N763 C761 1.384 . S
H764 C770 0.930 . S
H765 C774 0.930 . S
H766 C779 0.929 . S
H767 C777 0.930 1_455 S
H768 C772 0.929 . S
H769 C778 0.929 . S
C770 H764 0.930 . S
C770 C771 1.367 . S
C770 C778 1.378 . S
C771 C770 1.367 . S
C771 C779 1.433 . S
C772 H768 0.929 . S
C772 C774 1.378 . S
C772 C776 1.350 . S
C773 C776 1.463 . S
C773 C778 1.350 . S
C773 N781 1.427 . S
C774 H765 0.930 . S
C774 C772 1.378 . S
C774 C775 1.367 . S
C775 C774 1.367 . S
C775 C777 1.433 . S
C776 C772 1.350 . S
C776 C773 1.463 . S
C776 N780 1.427 . S
C777 H767 0.930 1_655 S
C777 C775 1.433 . S
C777 N780 1.383 . S
C778 H769 0.929 . S
C778 C770 1.378 . S
C778 C773 1.350 . S
C779 H766 0.929 . S
C779 C771 1.433 . S
C779 N781 1.384 . S
N780 C776 1.427 . S
N780 C777 1.383 . S
N781 C773 1.427 . S
N781 C779 1.384 . S
H782 C788 0.930 . S
H783 C792 0.930 1_565 S
H784 C797 0.929 1_565 S
H785 C795 0.929 . S
H786 C790 0.929 1_565 S
H787 C796 0.929 . S
C788 H782 0.930 . S
C788 C789 1.367 . S
C788 C796 1.378 . S
C789 C788 1.367 . S
C789 C797 1.433 . S
C790 H786 0.929 1_545 S
C790 C792 1.378 . S
C790 C794 1.350 . S
C791 C794 1.463 . S
C791 C796 1.350 . S
C791 N799 1.427 . S
C792 H783 0.930 1_545 S
C792 C790 1.378 . S
C792 C793 1.367 . S
C793 C792 1.367 . S
C793 C795 1.433 . S
C794 C790 1.350 . S
C794 C791 1.463 . S
C794 N798 1.427 . S
C795 H785 0.929 . S
C795 C793 1.433 . S
C795 N798 1.384 . S
C796 H787 0.929 . S
C796 C788 1.378 . S
C796 C791 1.350 . S
C797 H784 0.929 1_545 S
C797 C789 1.433 . S
C797 N799 1.384 . S
N798 C794 1.427 . S
N798 C795 1.384 . S
N799 C791 1.427 . S
N799 C797 1.384 . S
C231 C6 1.714 . S
C235 C104 1.674 . S
C249 C20 1.843 . S
C253 C62 1.845 . S
C267 C76 1.587 . S
C271 C34 1.635 . S
C285 C48 1.884 . S
C289 C90 1.779 . S
C303 C118 1.841 . S
C307 C174 1.836 . S
C321 C132 1.579 . S
C325 C202 1.639 . S
C339 C160 1.884 . S
C343 C146 1.780 . S
C357 C216 1.687 . S
C361 C188 1.717 . S
C375 C9 1.097 . S
C379 C91 1.017 . S
C393 C106 1.676 . S
C397 C22 1.676 . S
C411 C37 1.101 . S
C415 C63 0.999 . S
C429 C78 1.763 . S
C433 C49 1.657 . S
C447 C8 1.359 . S
C451 C204 1.358 . S
C465 C163 0.776 . S
C469 C21 0.789 1_455 S
C483 C190 1.358 . S
C487 C36 1.359 . S
C501 C175 0.763 . S
C505 C51 0.793 1_556 S
C519 C149 1.928 . S
C523 C65 1.903 . S
C537 C77 0.934 . S
C541 C217 0.945 . S
C555 C93 1.930 . S
C559 C121 1.899 . S
C573 C105 0.944 . S
C577 C133 0.935 . S
C591 C7 1.531 . S
C595 C64 1.617 . S
C609 C120 1.617 . S
C613 C189 1.531 . S
C627 C177 1.604 . S
C631 C135 1.630 . S
C645 C203 1.223 . S
C649 C148 1.258 . S
C663 C107 1.546 . S
C667 C50 1.554 . S
C681 C35 1.218 . S
C685 C92 1.262 . S
C699 C162 1.553 . S
C703 C219 1.545 . S
C717 C191 1.097 . S
C721 C147 0.994 . S
C735 C218 1.673 . S
C739 C176 1.674 . S
C753 C205 1.098 . S
C757 C119 1.028 . S
C771 C161 1.665 1_655 S
C775 C134 1.768 . S
C789 C23 1.605 . S
C793 C79 1.632 . S
