# Generated by pormake.
# Topology gis, (4)-cn, num edge types: 1
# Building blocks:
#     Node 0, Type 0, BuildingBlock: TATPOV_clean_sbu_0, # of connection points: 4
#     Node 1, Type 0, BuildingBlock: TATPOV_clean_sbu_0, # of connection points: 4
#     Node 2, Type 0, BuildingBlock: TATPOV_clean_sbu_0, # of connection points: 4
#     Node 3, Type 0, BuildingBlock: TATPOV_clean_sbu_0, # of connection points: 4
#     Node 4, Type 0, BuildingBlock: TATPOV_clean_sbu_0, # of connection points: 4
#     Node 5, Type 0, BuildingBlock: TATPOV_clean_sbu_0, # of connection points: 4
#     Node 6, Type 0, BuildingBlock: TATPOV_clean_sbu_0, # of connection points: 4
#     Node 7, Type 0, BuildingBlock: TATPOV_clean_sbu_0, # of connection points: 4
#     Node 8, Type 0, BuildingBlock: TATPOV_clean_sbu_0, # of connection points: 4
#     Node 9, Type 0, BuildingBlock: TATPOV_clean_sbu_0, # of connection points: 4
#     Node 10, Type 0, BuildingBlock: TATPOV_clean_sbu_0, # of connection points: 4
#     Node 11, Type 0, BuildingBlock: TATPOV_clean_sbu_0, # of connection points: 4
#     Node 12, Type 0, BuildingBlock: TATPOV_clean_sbu_0, # of connection points: 4
#     Node 13, Type 0, BuildingBlock: TATPOV_clean_sbu_0, # of connection points: 4
#     Node 14, Type 0, BuildingBlock: TATPOV_clean_sbu_0, # of connection points: 4
#     Node 15, Type 0, BuildingBlock: TATPOV_clean_sbu_0, # of connection points: 4
#     Edge 16, Type (0, 0), BuildingBlock: CIFDUS_clean_linker_0, # of connection points: 2
#     Edge 17, Type (0, 0), BuildingBlock: CIFDUS_clean_linker_0, # of connection points: 2
#     Edge 18, Type (0, 0), BuildingBlock: CIFDUS_clean_linker_0, # of connection points: 2
#     Edge 19, Type (0, 0), BuildingBlock: CIFDUS_clean_linker_0, # of connection points: 2
#     Edge 20, Type (0, 0), BuildingBlock: CIFDUS_clean_linker_0, # of connection points: 2
#     Edge 21, Type (0, 0), BuildingBlock: CIFDUS_clean_linker_0, # of connection points: 2
#     Edge 22, Type (0, 0), BuildingBlock: CIFDUS_clean_linker_0, # of connection points: 2
#     Edge 23, Type (0, 0), BuildingBlock: CIFDUS_clean_linker_0, # of connection points: 2
#     Edge 24, Type (0, 0), BuildingBlock: CIFDUS_clean_linker_0, # of connection points: 2
#     Edge 25, Type (0, 0), BuildingBlock: CIFDUS_clean_linker_0, # of connection points: 2
#     Edge 26, Type (0, 0), BuildingBlock: CIFDUS_clean_linker_0, # of connection points: 2
#     Edge 27, Type (0, 0), BuildingBlock: CIFDUS_clean_linker_0, # of connection points: 2
#     Edge 28, Type (0, 0), BuildingBlock: CIFDUS_clean_linker_0, # of connection points: 2
#     Edge 29, Type (0, 0), BuildingBlock: CIFDUS_clean_linker_0, # of connection points: 2
#     Edge 30, Type (0, 0), BuildingBlock: CIFDUS_clean_linker_0, # of connection points: 2
#     Edge 31, Type (0, 0), BuildingBlock: CIFDUS_clean_linker_0, # of connection points: 2
#     Edge 32, Type (0, 0), BuildingBlock: CIFDUS_clean_linker_0, # of connection points: 2
#     Edge 33, Type (0, 0), BuildingBlock: CIFDUS_clean_linker_0, # of connection points: 2
#     Edge 34, Type (0, 0), BuildingBlock: CIFDUS_clean_linker_0, # of connection points: 2
#     Edge 35, Type (0, 0), BuildingBlock: CIFDUS_clean_linker_0, # of connection points: 2
#     Edge 36, Type (0, 0), BuildingBlock: CIFDUS_clean_linker_0, # of connection points: 2
#     Edge 37, Type (0, 0), BuildingBlock: CIFDUS_clean_linker_0, # of connection points: 2
#     Edge 38, Type (0, 0), BuildingBlock: CIFDUS_clean_linker_0, # of connection points: 2
#     Edge 39, Type (0, 0), BuildingBlock: CIFDUS_clean_linker_0, # of connection points: 2
#     Edge 40, Type (0, 0), BuildingBlock: CIFDUS_clean_linker_0, # of connection points: 2
#     Edge 41, Type (0, 0), BuildingBlock: CIFDUS_clean_linker_0, # of connection points: 2
#     Edge 42, Type (0, 0), BuildingBlock: CIFDUS_clean_linker_0, # of connection points: 2
#     Edge 43, Type (0, 0), BuildingBlock: CIFDUS_clean_linker_0, # of connection points: 2
#     Edge 44, Type (0, 0), BuildingBlock: CIFDUS_clean_linker_0, # of connection points: 2
#     Edge 45, Type (0, 0), BuildingBlock: CIFDUS_clean_linker_0, # of connection points: 2
#     Edge 46, Type (0, 0), BuildingBlock: CIFDUS_clean_linker_0, # of connection points: 2
#     Edge 47, Type (0, 0), BuildingBlock: CIFDUS_clean_linker_0, # of connection points: 2
# Relax obj value: 0.143
# Max RMSD: 0.162
# Mean RMSD: 0.141
data_MOF--net-gis--node1-TATPOV_clean_sbu_0--edge1-CIFDUS_clean_linker_0
_symmetry_space_group_name_H-M    P1
_symmetry_Int_Tables_number       1
_symmetry_cell_setting            triclinic
loop_
_symmetry_equiv_pos_as_xyz
'x, y, z'
_cell_length_a     41.820297
_cell_length_b     41.736146
_cell_length_c     41.95757
_cell_angle_alpha  91.917922
_cell_angle_beta   91.646096
_cell_angle_gamma 89.911379
loop_
_atom_site_label
_atom_site_type_symbol
_atom_site_fract_x
_atom_site_fract_y
_atom_site_fract_z
_atom_type_partial_charge
Zn0 Zn 0.13237 0.62605 0.0652 0.0
Zn1 Zn 0.14765 0.60546 0.12345 0.0
O2 O 0.17136 0.57529 0.09157 0.0
O3 O 0.16285 0.59515 0.04419 0.0
O4 O 0.16307 0.59174 0.16694 0.0
O5 O 0.14565 0.67135 0.07773 0.0
O6 O 0.15841 0.65371 0.12522 0.0
C7 C 0.17571 0.57423 0.06156 0.0
C8 C 0.07894 0.60047 0.10045 0.0
O9 O 0.09942 0.59765 0.1232 0.0
O10 O 0.08727 0.61085 0.07386 0.0
C11 C 0.17249 0.56361 0.17326 0.0
O12 O 0.17188 0.54112 0.1506 0.0
C13 C 0.15609 0.6767 0.10602 0.0
Zn14 Zn 0.64847 0.87383 0.44761 0.0
Zn15 Zn 0.67306 0.88952 0.39195 0.0
O16 O 0.68755 0.92453 0.42542 0.0
O17 O 0.6734 0.90784 0.47216 0.0
O18 O 0.69593 0.9008 0.35151 0.0
O19 O 0.6646 0.82868 0.44413 0.0
O20 O 0.68371 0.84122 0.39782 0.0
C21 C 0.68678 0.92845 0.45563 0.0
C22 C 0.60158 0.89335 0.39863 0.0
O23 O 0.62577 0.89538 0.38105 0.0
O24 O 0.60511 0.88527 0.42742 0.0
C25 C 0.70643 0.92881 0.34661 0.0
O26 O 0.70222 0.9518 0.36823 0.0
C27 C 0.67884 0.82053 0.41894 0.0
Zn28 Zn 0.3433 0.38939 0.55963 0.0
Zn29 Zn 0.31854 0.40635 0.61547 0.0
O30 O 0.30125 0.44088 0.5844 0.0
O31 O 0.31768 0.42287 0.53764 0.0
O32 O 0.29677 0.41534 0.65752 0.0
O33 O 0.32584 0.34488 0.56055 0.0
O34 O 0.30573 0.35852 0.60696 0.0
C35 C 0.30241 0.44323 0.55419 0.0
C36 C 0.39084 0.40995 0.60783 0.0
O37 O 0.36665 0.41259 0.62561 0.0
O38 O 0.38715 0.40078 0.57885 0.0
C39 C 0.28066 0.44014 0.66532 0.0
O40 O 0.27817 0.46375 0.64547 0.0
C41 C 0.3101 0.33768 0.58457 0.0
Zn42 Zn 0.85857 0.0722 0.79448 0.0
Zn43 Zn 0.84439 0.0535 0.85298 0.0
O44 O 0.8082 0.03536 0.82309 0.0
O45 O 0.82186 0.04777 0.7748 0.0
O46 O 0.83034 0.039 0.89591 0.0
O47 O 0.90077 0.05045 0.79895 0.0
O48 O 0.89064 0.03592 0.84771 0.0
C49 C 0.8027 0.03453 0.79304 0.0
C50 C 0.84596 0.12487 0.83803 0.0
O51 O 0.8427 0.10227 0.85731 0.0
O52 O 0.85264 0.11858 0.80923 0.0
C53 C 0.83514 0.05452 0.92224 0.0
O54 O 0.85171 0.08124 0.92276 0.0
C55 C 0.90933 0.03669 0.82421 0.0
Zn56 Zn 0.14674 0.37178 0.94336 0.0
Zn57 Zn 0.16782 0.38532 0.88708 0.0
O58 O 0.18698 0.42021 0.91899 0.0
O59 O 0.17503 0.40381 0.96646 0.0
O60 O 0.19109 0.39135 0.84601 0.0
O61 O 0.15857 0.32523 0.94099 0.0
O62 O 0.17562 0.33683 0.89369 0.0
C63 C 0.18849 0.42388 0.94936 0.0
C64 C 0.09785 0.39408 0.89706 0.0
O65 O 0.1203 0.39396 0.87715 0.0
O66 O 0.10354 0.38654 0.92572 0.0
C67 C 0.19167 0.41635 0.8295 0.0
O68 O 0.17559 0.44187 0.83886 0.0
C69 C 0.17089 0.31636 0.91499 0.0
Zn70 Zn 0.8385 0.88604 0.06313 0.0
Zn71 Zn 0.81725 0.90768 0.11646 0.0
O72 O 0.7982 0.93843 0.08207 0.0
O73 O 0.80904 0.91229 0.03722 0.0
O74 O 0.79289 0.91609 0.15688 0.0
O75 O 0.8281 0.84028 0.06795 0.0
O76 O 0.80892 0.85848 0.11327 0.0
C77 C 0.79607 0.93571 0.05164 0.0
C78 C 0.88692 0.91676 0.10524 0.0
O79 O 0.86468 0.91869 0.12543 0.0
O80 O 0.88131 0.90461 0.07755 0.0
C81 C 0.7959 0.93568 0.18063 0.0
O82 O 0.8182 0.95782 0.1809 0.0
C83 C 0.81428 0.8353 0.09365 0.0
Zn84 Zn 0.35901 0.58655 0.31251 0.0
Zn85 Zn 0.33491 0.57893 0.36792 0.0
O86 O 0.30429 0.55719 0.33308 0.0
O87 O 0.32963 0.5573 0.2879 0.0
O88 O 0.31629 0.56527 0.40958 0.0
O89 O 0.40184 0.57053 0.32505 0.0
O90 O 0.38302 0.56463 0.37295 0.0
C91 C 0.30567 0.54943 0.30346 0.0
C92 C 0.33639 0.64564 0.34396 0.0
O93 O 0.33065 0.62784 0.36722 0.0
O94 O 0.34765 0.63352 0.31853 0.0
C95 C 0.28747 0.55601 0.41172 0.0
O96 O 0.26794 0.55746 0.38674 0.0
C97 C 0.40606 0.56259 0.35364 0.0
Zn98 Zn 0.61386 0.11755 0.68004 0.0
Zn99 Zn 0.63236 0.09678 0.62186 0.0
O100 O 0.65661 0.07105 0.65604 0.0
O101 O 0.64012 0.08544 0.70362 0.0
O102 O 0.64996 0.0759 0.58193 0.0
O103 O 0.56873 0.10632 0.66652 0.0
O104 O 0.5837 0.08948 0.61884 0.0
C105 C 0.65755 0.06793 0.68614 0.0
C106 C 0.64338 0.1663 0.64183 0.0
O107 O 0.64413 0.14437 0.62002 0.0
O108 O 0.63287 0.16035 0.66906 0.0
C109 C 0.67969 0.0693 0.58208 0.0
O110 O 0.69794 0.07905 0.60648 0.0
C111 C 0.56183 0.09456 0.63898 0.0
Zn112 Zn 0.8595 0.36087 0.92287 0.0
Zn113 Zn 0.84474 0.38571 0.86754 0.0
O114 O 0.8164 0.40682 0.9022 0.0
O115 O 0.82474 0.38203 0.94702 0.0
O116 O 0.82577 0.40668 0.82859 0.0
O117 O 0.85281 0.31685 0.90435 0.0
O118 O 0.83905 0.33699 0.85809 0.0
C119 C 0.80997 0.40305 0.9314 0.0
C120 C 0.9112 0.39666 0.8956 0.0
O121 O 0.89236 0.39898 0.87135 0.0
O122 O 0.90213 0.3829 0.92024 0.0
C123 C 0.83369 0.40308 0.79967 0.0
O124 O 0.85784 0.38425 0.79256 0.0
C125 C 0.84358 0.31284 0.87553 0.0
Zn126 Zn 0.32706 0.09719 0.52862 0.0
Zn127 Zn 0.31517 0.08771 0.58928 0.0
O128 O 0.2954 0.04804 0.56469 0.0
O129 O 0.30004 0.05988 0.51429 0.0
O130 O 0.30472 0.08164 0.63556 0.0
O131 O 0.30813 0.14095 0.53053 0.0
O132 O 0.29825 0.13399 0.58106 0.0
C133 C 0.29055 0.04116 0.5351 0.0
C134 C 0.38395 0.08679 0.56722 0.0
O135 O 0.36381 0.08566 0.58937 0.0
O136 O 0.37442 0.09094 0.53871 0.0
C137 C 0.30052 0.05483 0.64846 0.0
O138 O 0.30278 0.02817 0.63113 0.0
C139 C 0.29746 0.15159 0.55672 0.0
Zn140 Zn 0.63684 0.59202 0.30829 0.0
Zn141 Zn 0.66118 0.57072 0.36102 0.0
O142 O 0.69139 0.55345 0.32525 0.0
O143 O 0.66519 0.56551 0.28098 0.0
O144 O 0.6763 0.54734 0.40039 0.0
O145 O 0.59281 0.57663 0.31521 0.0
O146 O 0.61284 0.55727 0.35967 0.0
C147 C 0.68882 0.55249 0.29482 0.0
C148 C 0.66428 0.64209 0.35029 0.0
O149 O 0.66879 0.61941 0.36963 0.0
O150 O 0.65151 0.63622 0.32297 0.0
C151 C 0.67317 0.55883 0.42859 0.0
O152 O 0.66244 0.58825 0.43258 0.0
C153 C 0.58919 0.56143 0.34036 0.0
Zn154 Zn 0.12258 0.90932 0.19509 0.0
Zn155 Zn 0.13327 0.93469 0.13857 0.0
O156 O 0.1667 0.95589 0.16974 0.0
O157 O 0.154 0.93934 0.21696 0.0
O158 O 0.14055 0.95729 0.09729 0.0
O159 O 0.07608 0.92079 0.19273 0.0
O160 O 0.08505 0.94188 0.14643 0.0
C161 C 0.17142 0.95615 0.19991 0.0
C162 C 0.1445 0.86327 0.14675 0.0
O163 O 0.14315 0.88727 0.12874 0.0
O164 O 0.13776 0.86666 0.17595 0.0
C165 C 0.16239 0.94913 0.07811 0.0
O166 O 0.18094 0.92468 0.08479 0.0
C167 C 0.06584 0.93496 0.16829 0.0
Zn168 Zn 0.83291 0.5962 0.04624 0.0
Zn169 Zn 0.8248 0.58301 0.10423 0.0
O170 O 0.80178 0.54757 0.07572 0.0
O171 O 0.80316 0.56427 0.02676 0.0
O172 O 0.81092 0.56973 0.14755 0.0
O173 O 0.81748 0.64046 0.0512 0.0
O174 O 0.80861 0.63047 0.10136 0.0
C175 C 0.79405 0.54397 0.04616 0.0
C176 C 0.89176 0.57959 0.07938 0.0
O177 O 0.87424 0.57902 0.10377 0.0
O178 O 0.87938 0.58535 0.05227 0.0
C179 C 0.82501 0.57235 0.17478 0.0
O180 O 0.85332 0.58591 0.17747 0.0
C181 C 0.80748 0.6495 0.07813 0.0
Zn182 Zn 0.13981 0.08404 0.80413 0.0
Zn183 Zn 0.16345 0.06604 0.85976 0.0
O184 O 0.19619 0.04704 0.82717 0.0
O185 O 0.17341 0.05987 0.78121 0.0
O186 O 0.17574 0.04884 0.90308 0.0
O187 O 0.09726 0.06378 0.80971 0.0
O188 O 0.11627 0.0504 0.85681 0.0
C189 C 0.19583 0.04659 0.79668 0.0
C190 C 0.16119 0.13718 0.8454 0.0
O191 O 0.16791 0.11523 0.86496 0.0
O192 O 0.14884 0.12998 0.81818 0.0
C193 C 0.15892 0.05963 0.92588 0.0
O194 O 0.13806 0.08243 0.92005 0.0
C195 C 0.09344 0.05073 0.83607 0.0
Zn196 Zn 0.62795 0.41222 0.68679 0.0
Zn197 Zn 0.6499 0.41973 0.63213 0.0
O198 O 0.68248 0.43728 0.66739 0.0
O199 O 0.65655 0.44236 0.71196 0.0
O200 O 0.66432 0.44067 0.59185 0.0
O201 O 0.58211 0.42247 0.67803 0.0
O202 O 0.60064 0.42903 0.63031 0.0
C203 C 0.68194 0.44591 0.69686 0.0
C204 C 0.65412 0.35413 0.6533 0.0
O205 O 0.65691 0.37122 0.62891 0.0
O206 O 0.6438 0.36648 0.6791 0.0
C207 C 0.66522 0.47115 0.59442 0.0
O208 O 0.65837 0.48495 0.62201 0.0
C209 C 0.57712 0.42878 0.64909 0.0
Zn210 Zn 0.36921 0.89307 0.30358 0.0
Zn211 Zn 0.34436 0.89773 0.36207 0.0
O212 O 0.31936 0.92848 0.33318 0.0
O213 O 0.3411 0.92789 0.28618 0.0
O214 O 0.32384 0.9072 0.40427 0.0
O215 O 0.41275 0.90315 0.32297 0.0
O216 O 0.39227 0.90642 0.37074 0.0
C217 C 0.32016 0.93859 0.30491 0.0
C218 C 0.34061 0.83405 0.32597 0.0
O219 O 0.33576 0.85041 0.35154 0.0
O220 O 0.35337 0.84698 0.30252 0.0
C221 C 0.29358 0.91021 0.40493 0.0
O222 O 0.27642 0.90378 0.37878 0.0
C223 C 0.41637 0.90747 0.35288 0.0
H224 H 0.16088 0.81038 0.17951 0.0
H225 H 0.14484 0.8434 0.08397 0.0
H226 H 0.15046 0.78859 0.0625 0.0
H227 H 0.15446 0.73083 0.07144 0.0
H228 H 0.17026 0.69797 0.16714 0.0
H229 H 0.17071 0.75328 0.18785 0.0
C230 C 0.1589 0.80565 0.15395 0.0
C231 C 0.15193 0.83089 0.13343 0.0
C232 C 0.16202 0.7741 0.14179 0.0
C233 C 0.14999 0.82441 0.10033 0.0
C234 C 0.15311 0.79305 0.08804 0.0
C235 C 0.15845 0.73573 0.09678 0.0
C236 C 0.16184 0.71018 0.11772 0.0
C237 C 0.15831 0.76762 0.10863 0.0
C238 C 0.16737 0.71708 0.15045 0.0
C239 C 0.16749 0.74874 0.16237 0.0
H240 H 0.47192 0.91152 0.32132 0.0
H241 H 0.43457 0.90914 0.41612 0.0
H242 H 0.48888 0.90605 0.43879 0.0
H243 H 0.54657 0.89984 0.43128 0.0
H244 H 0.58365 0.90162 0.33634 0.0
H245 H 0.5297 0.90909 0.31414 0.0
C246 C 0.47559 0.91068 0.34703 0.0
C247 C 0.44914 0.91026 0.36698 0.0
C248 C 0.50682 0.90844 0.35981 0.0
C249 C 0.45442 0.90942 0.4002 0.0
C250 C 0.4855 0.90748 0.41314 0.0
C251 C 0.54289 0.90198 0.4057 0.0
C252 C 0.56911 0.8998 0.38545 0.0
C253 C 0.5118 0.90624 0.39312 0.0
C254 C 0.56395 0.90304 0.35245 0.0
C255 C 0.53307 0.9073 0.33976 0.0
H256 H 0.28885 0.2985 0.53642 0.0
H257 H 0.30708 0.30205 0.63805 0.0
H258 H 0.2997 0.2438 0.63957 0.0
H259 H 0.29644 0.1912 0.6102 0.0
H260 H 0.27845 0.18914 0.5083 0.0
H261 H 0.27664 0.24739 0.5088 0.0
C262 C 0.29057 0.28656 0.55899 0.0
C263 C 0.29899 0.3043 0.58698 0.0
C264 C 0.28653 0.25327 0.55958 0.0
C265 C 0.30068 0.28878 0.61617 0.0
C266 C 0.29667 0.25547 0.61699 0.0
C267 C 0.29121 0.20351 0.5883 0.0
C268 C 0.2882 0.18584 0.55916 0.0
C269 C 0.29077 0.2373 0.58861 0.0
C270 C 0.28136 0.20216 0.53097 0.0
C271 C 0.28043 0.23552 0.53118 0.0
H272 H 0.05235 0.02006 0.79534 0.0
H273 H 0.06287 0.05522 0.89276 0.0
H274 H 0.00543 0.04769 0.90024 0.0
H275 H 0.95115 0.04095 0.87534 0.0
H276 H 0.94197 0.00724 0.77721 0.0
H277 H -0.00011 0.00337 0.77395 0.0
C278 C 0.04214 0.02528 0.81843 0.0
C279 C 0.06144 0.03869 0.84327 0.0
C280 C 0.00927 0.02127 0.82234 0.0
C281 C 0.04827 0.04496 0.87326 0.0
C282 C 0.01542 0.04086 0.87745 0.0
C283 C 0.9619 0.0316 0.85371 0.0
C284 C 0.94249 0.02481 0.8264 0.0
C285 C -0.00455 0.03042 0.85168 0.0
C286 C 0.95657 0.01291 0.7984 0.0
C287 C 0.98967 0.01089 0.79645 0.0
H288 H 0.17683 0.28709 0.85684 0.0
H289 H 0.17457 0.26777 0.95713 0.0
H290 H 0.17402 0.21013 0.94465 0.0
H291 H 0.16918 0.16531 0.90487 0.0
H292 H 0.16784 0.18571 0.80465 0.0
H293 H 0.17484 0.24263 0.81749 0.0
C294 C 0.17682 0.27029 0.87602 0.0
C295 C 0.17569 0.28174 0.90784 0.0
C296 C 0.17543 0.23727 0.86865 0.0
C297 C 0.17536 0.25959 0.93239 0.0
C298 C 0.17492 0.22661 0.92527 0.0
C299 C 0.17076 0.18222 0.8859 0.0
C300 C 0.16769 0.1713 0.85388 0.0
C301 C 0.17412 0.21518 0.89344 0.0
C302 C 0.16971 0.1935 0.82952 0.0
C303 C 0.17382 0.22609 0.83681 0.0
H304 H 0.91601 0.92265 0.16428 0.0
H305 H 0.93152 0.9357 0.0643 0.0
H306 H 0.98777 0.9474 0.07578 0.0
H307 H 0.0337 0.9475 0.11301 0.0
H308 H 0.01946 0.93114 0.21262 0.0
H309 H 0.96174 0.92776 0.20261 0.0
C310 C 0.93164 0.92858 0.14515 0.0
C311 C 0.91974 0.92787 0.11348 0.0
C312 C 0.9643 0.93453 0.1518 0.0
C313 C 0.94023 0.93559 0.08887 0.0
C314 C 0.97242 0.94235 0.09538 0.0
C315 C 0.01796 0.94388 0.13267 0.0
C316 C 0.03093 0.93927 0.16341 0.0
C317 C 0.98491 0.94093 0.1266 0.0
C318 C 0.01012 0.93451 0.18861 0.0
C319 C 0.97709 0.93245 0.18291 0.0
H320 H 0.33349 0.68625 0.29535 0.0
H321 H 0.32727 0.68371 0.39771 0.0
H322 H 0.3246 0.7424 0.40101 0.0
H323 H 0.32933 0.79439 0.37493 0.0
H324 H 0.33701 0.79552 0.27252 0.0
H325 H 0.3335 0.73732 0.26917 0.0
C326 C 0.33137 0.69845 0.31843 0.0
C327 C 0.33112 0.68068 0.34629 0.0
C328 C 0.33021 0.73196 0.32013 0.0
C329 C 0.32772 0.69687 0.37591 0.0
C330 C 0.32629 0.73041 0.37781 0.0
C331 C 0.32973 0.78191 0.35186 0.0
C332 C 0.33384 0.79927 0.32406 0.0
C333 C 0.32827 0.74823 0.3501 0.0
C334 C 0.33426 0.78275 0.29433 0.0
C335 C 0.33229 0.74944 0.29236 0.0
H336 H 0.53469 0.08753 0.57932 0.0
H337 H 0.51276 0.08811 0.67928 0.0
H338 H 0.45591 0.08363 0.66572 0.0
H339 H 0.4123 0.08337 0.62591 0.0
H340 H 0.43342 0.08486 0.52583 0.0
H341 H 0.49067 0.08453 0.53906 0.0
C342 C 0.51748 0.08624 0.59809 0.0
C343 C 0.52791 0.08837 0.63022 0.0
C344 C 0.48466 0.08431 0.59016 0.0
C345 C 0.50533 0.08682 0.65432 0.0
C346 C 0.4728 0.08426 0.64663 0.0
C347 C 0.42937 0.08339 0.60692 0.0
C348 C 0.41856 0.0844 0.57497 0.0
C349 C 0.46217 0.08365 0.61467 0.0
C350 C 0.44108 0.08431 0.55069 0.0
C351 C 0.47384 0.08412 0.55821 0.0
H352 H 0.84315 0.1784 0.80247 0.0
H353 H 0.84056 0.14692 0.89944 0.0
H354 H 0.83727 0.20233 0.91903 0.0
H355 H 0.83801 0.25938 0.90913 0.0
H356 H 0.84065 0.29199 0.8127 0.0
H357 H 0.84049 0.23625 0.79231 0.0
C358 C 0.84179 0.18367 0.82788 0.0
C359 C 0.84245 0.15853 0.84947 0.0
C360 C 0.83983 0.21568 0.83906 0.0
C361 C 0.84026 0.16575 0.88229 0.0
C362 C 0.83838 0.19745 0.89355 0.0
C363 C 0.83839 0.25438 0.8836 0.0
C364 C 0.83972 0.27974 0.86246 0.0
C365 C 0.83857 0.22253 0.87219 0.0
C366 C 0.83967 0.27285 0.82946 0.0
C367 C 0.83976 0.24102 0.81783 0.0
H368 H 0.67411 0.66987 0.4099 0.0
H369 H 0.67547 0.68962 0.30962 0.0
H370 H 0.68524 0.74612 0.32222 0.0
H371 H 0.68728 0.7909 0.36123 0.0
H372 H 0.68261 0.77241 0.46152 0.0
H373 H 0.68097 0.71474 0.44948 0.0
C374 C 0.67699 0.68651 0.39088 0.0
C375 C 0.67359 0.67557 0.3589 0.0
C376 C 0.68197 0.71934 0.39827 0.0
C377 C 0.67744 0.69744 0.33448 0.0
C378 C 0.68313 0.72982 0.34162 0.0
C379 C 0.68669 0.77426 0.38052 0.0
C380 C 0.68488 0.786 0.41218 0.0
C381 C 0.68458 0.7412 0.37338 0.0
C382 C 0.68386 0.76402 0.43688 0.0
C383 C 0.68274 0.73101 0.43001 0.0
H384 H 0.81519 0.69117 0.12965 0.0
H385 H 0.77525 0.68257 0.03377 0.0
H386 H 0.76943 0.74044 0.03201 0.0
H387 H 0.78467 0.79323 0.05368 0.0
H388 H 0.82494 0.80373 0.14901 0.0
H389 H 0.82136 0.74553 0.15537 0.0
C390 C 0.80426 0.70202 0.10889 0.0
C391 C 0.79619 0.68282 0.08167 0.0
C392 C 0.80161 0.73562 0.10772 0.0
C393 C 0.78208 0.69702 0.05481 0.0
C394 C 0.77884 0.7301 0.05371 0.0
C395 C 0.79192 0.78276 0.0761 0.0
C396 C 0.80545 0.80229 0.10065 0.0
C397 C 0.78998 0.74961 0.07936 0.0
C398 C 0.81447 0.78887 0.1298 0.0
C399 C 0.81262 0.75564 0.13332 0.0
H400 H 0.64846 0.31033 0.60313 0.0
H401 H 0.67738 0.32068 0.70252 0.0
H402 H 0.68098 0.2628 0.70636 0.0
H403 H 0.66842 0.20967 0.68406 0.0
H404 H 0.63816 0.19749 0.58538 0.0
H405 H 0.64303 0.25543 0.57845 0.0
C406 C 0.65625 0.29982 0.62533 0.0
C407 C 0.66208 0.31966 0.65266 0.0
C408 C 0.65764 0.26621 0.62762 0.0
C409 C 0.67221 0.30583 0.68132 0.0
C410 C 0.67428 0.27274 0.68358 0.0
C411 C 0.66341 0.21965 0.66088 0.0
C412 C 0.65246 0.19958 0.63543 0.0
C413 C 0.66581 0.25275 0.65729 0.0
C414 C 0.64657 0.2126 0.60537 0.0
C415 C 0.64913 0.24573 0.60148 0.0
H416 H 0.05358 0.42256 0.9333 0.0
H417 H 0.06743 0.3816 0.83908 0.0
H418 H 0.00955 0.38392 0.82769 0.0
H419 H 0.95451 0.38962 0.84831 0.0
H420 H 0.94239 0.42843 0.94376 0.0
H421 H -1e-05 0.43567 0.9507 0.0
C422 C 0.04396 0.41467 0.91006 0.0
C423 C 0.0645 0.4014 0.88728 0.0
C424 C 0.0109 0.41562 0.90399 0.0
C425 C 0.05195 0.39179 0.85704 0.0
C426 C 0.01887 0.39294 0.85063 0.0
C427 C 0.96455 0.40059 0.87016 0.0
C428 C 0.94444 0.40828 0.89562 0.0
C429 C -0.00202 0.40368 0.8744 0.0
C430 C 0.95756 0.42216 0.92398 0.0
C431 C 0.99047 0.42615 0.92802 0.0
H432 H 0.5507 0.57453 0.39057 0.0
H433 H 0.55614 0.52046 0.30157 0.0
H434 H 0.49884 0.50973 0.30188 0.0
H435 H 0.44656 0.52498 0.32144 0.0
H436 H 0.43915 0.58231 0.40814 0.0
H437 H 0.49764 0.582 0.4154 0.0
C438 C 0.53936 0.55947 0.37196 0.0
C439 C 0.55734 0.54827 0.34603 0.0
C440 C 0.506 0.55445 0.37169 0.0
C441 C 0.54257 0.52923 0.3217 0.0
C442 C 0.50984 0.52326 0.32179 0.0
C443 C 0.45776 0.5365 0.34248 0.0
C444 C 0.43882 0.55388 0.36405 0.0
C445 C 0.49116 0.5371 0.34576 0.0
C446 C 0.45336 0.56864 0.39131 0.0
C447 C 0.48681 0.56879 0.3952 0.0
H448 H 0.52254 0.43005 0.68292 0.0
H449 H 0.55649 0.43289 0.58682 0.0
H450 H 0.50157 0.42863 0.56572 0.0
H451 H 0.44449 0.41974 0.5744 0.0
H452 H 0.41053 0.41683 0.67046 0.0
H453 H 0.46498 0.42546 0.69169 0.0
C454 C 0.51796 0.43017 0.65735 0.0
C455 C 0.54373 0.43151 0.6365 0.0
C456 C 0.48636 0.4273 0.64535 0.0
C457 C 0.53721 0.43184 0.60345 0.0
C458 C 0.50579 0.42921 0.59134 0.0
C459 C 0.44894 0.42109 0.60001 0.0
C460 C 0.42348 0.41721 0.62081 0.0
C461 C 0.48028 0.42615 0.61204 0.0
C462 C 0.42966 0.41956 0.6539 0.0
C463 C 0.46081 0.42448 0.66606 0.0
H464 H 0.03862 0.57445 0.05606 0.0
H465 H 0.04363 0.60815 0.15424 0.0
H466 H 0.98554 0.6013 0.15804 0.0
H467 H 0.93255 0.59122 0.13099 0.0
H468 H 0.92953 0.5574 0.03256 0.0
H469 H 0.98756 0.55815 0.03151 0.0
C470 C 0.02701 0.57996 0.07839 0.0
C471 C 0.04508 0.59224 0.10464 0.0
C472 C -0.00608 0.57596 0.08032 0.0
C473 C 0.03001 0.59874 0.13366 0.0
C474 C -0.00316 0.59495 0.13578 0.0
C475 C 0.94471 0.58343 0.1096 0.0
C476 C 0.92676 0.57485 0.08172 0.0
C477 C 0.97839 0.58435 0.10895 0.0
C478 C 0.94278 0.56468 0.05416 0.0
C479 C 0.97599 0.5651 0.05348 0.0
H480 H 0.19057 0.56557 -0.00097 0.0
H481 H 0.19473 0.5186 0.08921 0.0
H482 H 0.20602 0.46759 0.06178 0.0
H483 H 0.20393 0.43511 0.01197 0.0
H484 H 0.19725 0.48157 0.92168 0.0
H485 H 0.19862 0.534 0.94938 0.0
C486 C 0.19468 0.54434 0.01279 0.0
C487 C 0.19095 0.54581 0.0461 0.0
C488 C 0.20042 0.51487 -0.00322 0.0
C489 C 0.197 0.51817 0.06356 0.0
C490 C 0.2033 0.48889 0.04784 0.0
C491 C 0.20365 0.45671 -0.00171 0.0
C492 C 0.19975 0.45441 0.96484 0.0
C493 C 0.20343 0.48673 0.0144 0.0
C494 C 0.20002 0.48261 0.94744 0.0
C495 C 0.20048 0.51264 0.96331 0.0
H496 H 0.71001 0.89115 0.29251 0.0
H497 H 0.74208 0.98163 0.33464 0.0
H498 H 0.77211 0.99222 0.28705 0.0
H499 H 0.79042 0.97519 0.2337 0.0
H500 H 0.75671 0.88529 0.19134 0.0
H501 H 0.72626 0.8753 0.23853 0.0
C502 C 0.72356 0.91319 0.2913 0.0
C503 C 0.72391 0.93542 0.31724 0.0
C504 C 0.74056 0.91932 0.26371 0.0
C505 C 0.74136 0.96404 0.31506 0.0
C506 C 0.75861 0.97013 0.28783 0.0
C507 C 0.77631 0.95349 0.23474 0.0
C508 C 0.77606 0.93104 0.20894 0.0
C509 C 0.75854 0.94786 0.26204 0.0
C510 C 0.75743 0.9031 0.21072 0.0
C511 C 0.74 0.89725 0.2378 0.0
H512 H 0.2613 0.44543 0.50376 0.0
H513 H 0.32038 0.50462 0.56738 0.0
H514 H 0.31828 0.54788 0.52932 0.0
H515 H 0.308 0.5641 0.47371 0.0
H516 H 0.24688 0.5054 0.41125 0.0
H517 H 0.24094 0.4669 0.45315 0.0
C518 C 0.27252 0.46835 0.50977 0.0
C519 C 0.29098 0.472 0.53812 0.0
C520 C 0.27142 0.49287 0.48768 0.0
C521 C 0.30571 0.50156 0.54578 0.0
C522 C 0.3049 0.52607 0.52381 0.0
C523 C 0.29278 0.54326 0.46963 0.0
C524 C 0.27844 0.53722 0.4393 0.0
C525 C 0.28917 0.52131 0.49401 0.0
C526 C 0.25833 0.51047 0.43436 0.0
C527 C 0.25503 0.48834 0.45827 0.0
H528 H 0.66344 0.05238 0.74846 0.0
H529 H 0.70698 0.0369 0.65714 0.0
H530 H 0.75502 0.01619 0.68341 0.0
H531 H 0.78842 0.01514 0.73225 0.0
H532 H 0.74597 0.03342 0.82357 0.0
H533 H 0.69346 0.03912 0.79744 0.0
C534 C 0.68313 0.04375 0.73425 0.0
C535 C 0.68215 0.04733 0.70101 0.0
C536 C 0.71099 0.03253 0.74956 0.0
C537 C 0.70742 0.03516 0.68283 0.0
C538 C 0.73497 0.02335 0.69785 0.0
C539 C 0.76745 0.01926 0.74649 0.0
C540 C 0.7711 0.02485 0.7796 0.0
C541 C 0.73767 0.02382 0.73123 0.0
C542 C 0.74379 0.02938 0.79796 0.0
C543 C 0.71381 0.03306 0.78298 0.0
H544 H 0.79743 0.4055 -0.0054 0.0
H545 H 0.77809 0.45449 0.90706 0.0
H546 H 0.76147 0.50211 0.9375 0.0
H547 H 0.76668 0.53323 0.98772 0.0
H548 H 0.79237 0.48593 0.07469 0.0
H549 H 0.79105 0.43406 0.04598 0.0
C550 C 0.78872 0.42626 0.98211 0.0
C551 C 0.79016 0.42691 0.94864 0.0
C552 C 0.7807 0.45405 -0.00022 0.0
C553 C 0.77797 0.45365 0.93283 0.0
C554 C 0.76859 0.48096 0.95024 0.0
C555 C 0.771 0.51144 0.0006 0.0
C556 C 0.78078 0.51342 0.03296 0.0
C557 C 0.77205 0.48206 0.98361 0.0
C558 C 0.78533 0.48507 0.04962 0.0
C559 C 0.78494 0.45543 0.03312 0.0
H560 H 0.24567 0.08295 0.78401 0.0
H561 H 0.20502 0.98936 0.76536 0.0
H562 H 0.23853 0.9816 0.71869 0.0
H563 H 0.27137 0.00594 0.67799 0.0
H564 H 0.30677 0.10238 0.69422 0.0
H565 H 0.28355 0.10466 0.74691 0.0
C566 C 0.24538 0.06029 0.77052 0.0
C567 C 0.22362 0.03643 0.77834 0.0
C568 C 0.26304 0.05704 0.74266 0.0
C569 C 0.22232 0.00763 0.76016 0.0
C570 C 0.24103 0.0035 0.73317 0.0
C571 C 0.27453 0.02721 0.69332 0.0
C572 C 0.29036 0.05414 0.68198 0.0
C573 C 0.26025 0.02872 0.72331 0.0
C574 C 0.29427 0.08151 0.70215 0.0
C575 C 0.28107 0.08281 0.73235 0.0
H576 H 0.67501 0.57703 0.4914 0.0
H577 H 0.68014 0.49349 0.42835 0.0
H578 H 0.68007 0.45875 0.47411 0.0
H579 H 0.67435 0.45197 0.53204 0.0
H580 H 0.66945 0.53613 0.59444 0.0
H581 H 0.67384 0.57047 0.54909 0.0
C582 C 0.67643 0.55124 0.48764 0.0
C583 C 0.67727 0.53797 0.45643 0.0
C584 C 0.67622 0.53137 0.51403 0.0
C585 C 0.67943 0.50445 0.45209 0.0
C586 C 0.67925 0.4845 0.47828 0.0
C587 C 0.67457 0.4778 0.53573 0.0
C588 C 0.67117 0.49133 0.56667 0.0
C589 C 0.677 0.49766 0.50936 0.0
C590 C 0.6717 0.52492 0.57096 0.0
C591 C 0.67422 0.5447 0.54498 0.0
H592 H 0.31204 0.96084 0.24493 0.0
H593 H 0.26701 0.95899 0.3362 0.0
H594 H 0.21593 0.97327 0.3112 0.0
H595 H 0.18253 0.97217 0.26226 0.0
H596 H 0.22695 0.97047 0.17069 0.0
H597 H 0.27976 0.97281 0.19699 0.0
C598 C 0.29128 0.96449 0.25953 0.0
C599 C 0.29306 0.95759 0.29215 0.0
C600 C 0.2617 0.97167 0.24483 0.0
C601 C 0.26616 0.96332 0.31088 0.0
C602 C 0.23684 0.97137 0.29657 0.0
C603 C 0.20376 0.97339 0.24808 0.0
C604 C 0.20096 0.97006 0.21466 0.0
C605 C 0.234 0.97341 0.26333 0.0
C606 C 0.2285 0.97254 0.1965 0.0
C607 C 0.25875 0.97352 0.21154 0.0
H608 H 0.66922 0.06411 0.51786 0.0
H609 H 0.71627 0.01834 0.597 0.0
H610 H 0.72739 0.9712 0.56306 0.0
H611 H 0.71612 0.9401 0.51314 0.0
H612 H 0.67249 0.98683 0.43281 0.0
H613 H 0.66847 0.03683 0.46453 0.0
C614 C 0.68253 0.04405 0.52734 0.0
C615 C 0.6915 0.0443 0.55983 0.0
C616 C 0.68941 0.01725 0.50751 0.0
C617 C 0.70909 0.01852 0.57198 0.0
C618 C 0.71534 0.99152 0.55265 0.0
C619 C 0.70679 0.96159 0.50235 0.0
C620 C 0.69436 0.95986 0.47093 0.0
C621 C 0.70461 0.99019 0.52069 0.0
C622 C 0.68239 0.98774 0.45698 0.0
C623 C 0.6797 0.01621 0.47522 0.0
H624 H 0.27718 0.3936 0.70904 0.0
H625 H 0.24494 0.48958 0.69008 0.0
H626 H 0.21486 0.49092 0.73919 0.0
H627 H 0.19692 0.46444 0.78721 0.0
H628 H 0.22895 0.36816 0.80536 0.0
H629 H 0.25978 0.36745 0.75695 0.0
C630 C 0.26371 0.41491 0.71566 0.0
C631 C 0.26339 0.44145 0.6958 0.0
C632 C 0.24627 0.41546 0.74382 0.0
C633 C 0.24566 0.46878 0.70484 0.0
C634 C 0.2284 0.46957 0.73294 0.0
C635 C 0.21066 0.44332 0.78061 0.0
C636 C 0.2105 0.4164 0.79999 0.0
C637 C 0.22838 0.44297 0.75256 0.0
C638 C 0.22851 0.38924 0.79097 0.0
C639 C 0.24622 0.38878 0.76325 0.0
H640 H 0.78895 0.00977 0.92852 0.0
H641 H 0.85511 0.07033 0.98338 0.0
H642 H 0.84153 0.04334 0.03201 0.0
H643 H 0.81839 -0.00386 0.05656 0.0
H644 H 0.75507 0.93384 0.00059 0.0
H645 H 0.75874 0.96865 0.95519 0.0
C646 C 0.80008 0.01735 0.95119 0.0
C647 C 0.82361 0.04143 0.95222 0.0
C648 C 0.79234 0.00158 0.97897 0.0
C649 C 0.83726 0.05153 0.98187 0.0
C650 C 0.82948 0.03612 0.00971 0.0
C651 C 0.80413 0.99118 0.03494 0.0
C652 C 0.78636 0.96264 0.03184 0.0
C653 C 0.80796 0.0103 0.00833 0.0
C654 C 0.76859 0.95592 0.00351 0.0
C655 C 0.77119 0.9755 0.97738 0.0
H656 H 0.21603 0.51749 0.1872 0.0
H657 H 0.16475 0.59728 0.22929 0.0
H658 H 0.19759 0.59406 0.27817 0.0
H659 H 0.24685 0.57512 0.30466 0.0
H660 H 0.30231 0.50046 0.25932 0.0
H661 H 0.2615 0.49421 0.2166 0.0
C662 C 0.21155 0.53366 0.20736 0.0
C663 C 0.1883 0.55784 0.20452 0.0
C664 C 0.23141 0.53252 0.23488 0.0
C665 C 0.18282 0.57872 0.23078 0.0
C666 C 0.20158 0.57688 0.25874 0.0
C667 C 0.24922 0.55659 0.2861 0.0
C668 C 0.27722 0.53804 0.28511 0.0
C669 C 0.22679 0.55476 0.26054 0.0
C670 C 0.28067 0.51471 0.26058 0.0
C671 C 0.25756 0.51145 0.23599 0.0
H672 H 0.24734 0.02505 0.48842 0.0
H673 H 0.31516 0.98515 0.55535 0.0
H674 H 0.31875 0.93628 0.52183 0.0
H675 H 0.3123 0.91161 0.46761 0.0
H676 H 0.24349 0.95141 0.40132 0.0
H677 H 0.2301 -0.00672 0.4406 0.0
C678 C 0.26166 0.00496 0.49634 0.0
C679 C 0.28125 0.00866 0.52394 0.0
C680 C 0.26406 0.9773 0.47664 0.0
C681 C 0.29976 0.98266 0.53419 0.0
C682 C 0.30222 0.95494 0.51475 0.0
C683 C 0.29368 0.92889 0.46222 0.0
C684 C 0.27947 0.92896 0.43145 0.0
C685 C 0.28605 0.95297 0.48497 0.0
C686 C 0.25497 0.95103 0.42479 0.0
C687 C 0.2474 0.97513 0.44718 0.0
H688 H 0.77205 0.53526 0.17624 0.0
H689 H 0.83898 0.58842 0.23763 0.0
H690 H 0.80498 0.58045 0.28322 0.0
H691 H 0.75185 0.5664 0.30318 0.0
H692 H 0.68407 0.51656 0.24017 0.0
H693 H 0.72305 0.51435 0.19795 0.0
C694 C 0.77948 0.54474 0.19968 0.0
C695 C 0.80764 0.56305 0.20337 0.0
C696 C 0.7596 0.54056 0.22556 0.0
C697 C 0.81723 0.57456 0.23404 0.0
C698 C 0.79775 0.57006 0.26012 0.0
C699 C 0.74621 0.55391 0.28063 0.0
C700 C 0.71526 0.54158 0.2747 0.0
C701 C 0.76828 0.55415 0.25591 0.0
C702 C 0.70786 0.52605 0.24521 0.0
C703 C 0.73 0.52513 0.22097 0.0
H704 H 0.13549 0.006 0.06208 0.0
H705 H 0.19947 0.93228 0.02756 0.0
H706 H 0.20569 0.96074 0.97817 0.0
H707 H 0.19123 0.00564 0.94374 0.0
H708 H 0.12739 0.07926 0.97891 0.0
H709 H 0.12322 0.05196 0.02901 0.0
C710 C 0.15084 -0.00386 0.04378 0.0
C711 C 0.16678 0.9669 0.04849 0.0
C712 C 0.15444 0.0127 0.01548 0.0
C713 C 0.18683 0.9547 0.0246 0.0
C714 C 0.19041 0.97097 -0.0037 0.0
C715 C 0.1767 0.0159 0.96249 0.0
C716 C 0.15954 0.04442 0.95739 0.0
C717 C 0.17415 -0.00011 0.99135 0.0
C718 C 0.14078 0.0573 0.98202 0.0
C719 C 0.13828 0.04165 0.01073 0.0
H720 H 0.7418 0.42631 0.68177 0.0
H721 H 0.68931 0.47731 0.75457 0.0
H722 H 0.7345 0.4722 0.79216 0.0
H723 H 0.7845 0.44511 0.80683 0.0
H724 H 0.83579 0.39117 0.7351 0.0
H725 H 0.7957 0.40581 0.69461 0.0
C726 C 0.74066 0.43729 0.70551 0.0
C727 C 0.71209 0.45191 0.71545 0.0
C728 C 0.76627 0.43304 0.72745 0.0
C729 C 0.71095 0.46579 0.74639 0.0
C730 C 0.7367 0.46261 0.76799 0.0
C731 C 0.78723 0.43693 0.78225 0.0
C732 C 0.81279 0.41649 0.77419 0.0
C733 C 0.76378 0.44491 0.75923 0.0
C734 C 0.81619 0.40661 0.74209 0.0
C735 C 0.79321 0.41493 0.7189 0.0
loop_
_geom_bond_atom_site_label_1
_geom_bond_atom_site_label_2
_geom_bond_distance
_geom_bond_site_symmetry_2
_ccdc_geom_bond_type
Zn0 O3 2.031 . S
Zn0 O5 2.049 . S
Zn0 O10 2.067 . S
Zn1 O2 1.962 . S
Zn1 O4 1.986 . S
Zn1 O6 1.996 . S
Zn1 O9 1.943 . S
O2 Zn1 1.962 . S
O2 C7 1.254 . S
O3 Zn0 2.031 . S
O3 C7 1.269 . S
O4 Zn1 1.986 . S
O4 C11 1.262 . S
O5 Zn0 2.049 . S
O5 C13 1.260 . S
O6 Zn1 1.996 . S
O6 C13 1.257 . S
C7 O2 1.254 . S
C7 O3 1.269 . S
C8 O9 1.249 . S
C8 O10 1.270 . S
O9 Zn1 1.943 . S
O9 C8 1.249 . S
O10 Zn0 2.067 . S
O10 C8 1.270 . S
C11 O4 1.262 . S
C11 O12 1.232 . S
O12 C11 1.232 . S
C13 O5 1.260 . S
C13 O6 1.257 . S
Zn14 O17 2.031 . S
Zn14 O19 2.049 . S
Zn14 O24 2.067 . S
Zn15 O16 1.962 . S
Zn15 O18 1.986 . S
Zn15 O20 1.996 . S
Zn15 O23 1.943 . S
O16 Zn15 1.962 . S
O16 C21 1.254 . S
O17 Zn14 2.031 . S
O17 C21 1.269 . S
O18 Zn15 1.986 . S
O18 C25 1.262 . S
O19 Zn14 2.049 . S
O19 C27 1.260 . S
O20 Zn15 1.996 . S
O20 C27 1.257 . S
C21 O16 1.254 . S
C21 O17 1.269 . S
C22 O23 1.249 . S
C22 O24 1.270 . S
O23 Zn15 1.943 . S
O23 C22 1.249 . S
O24 Zn14 2.067 . S
O24 C22 1.270 . S
C25 O18 1.262 . S
C25 O26 1.232 . S
O26 C25 1.232 . S
C27 O19 1.260 . S
C27 O20 1.257 . S
Zn28 O31 2.031 . S
Zn28 O33 2.049 . S
Zn28 O38 2.067 . S
Zn29 O30 1.962 . S
Zn29 O32 1.986 . S
Zn29 O34 1.996 . S
Zn29 O37 1.943 . S
O30 Zn29 1.962 . S
O30 C35 1.254 . S
O31 Zn28 2.031 . S
O31 C35 1.269 . S
O32 Zn29 1.986 . S
O32 C39 1.262 . S
O33 Zn28 2.049 . S
O33 C41 1.260 . S
O34 Zn29 1.996 . S
O34 C41 1.257 . S
C35 O30 1.254 . S
C35 O31 1.269 . S
C36 O37 1.249 . S
C36 O38 1.270 . S
O37 Zn29 1.943 . S
O37 C36 1.249 . S
O38 Zn28 2.067 . S
O38 C36 1.270 . S
C39 O32 1.262 . S
C39 O40 1.232 . S
O40 C39 1.232 . S
C41 O33 1.260 . S
C41 O34 1.257 . S
Zn42 O45 2.031 . S
Zn42 O47 2.049 . S
Zn42 O52 2.067 . S
Zn43 O44 1.962 . S
Zn43 O46 1.986 . S
Zn43 O48 1.996 . S
Zn43 O51 1.943 . S
O44 Zn43 1.962 . S
O44 C49 1.254 . S
O45 Zn42 2.031 . S
O45 C49 1.269 . S
O46 Zn43 1.986 . S
O46 C53 1.262 . S
O47 Zn42 2.049 . S
O47 C55 1.260 . S
O48 Zn43 1.996 . S
O48 C55 1.257 . S
C49 O44 1.254 . S
C49 O45 1.269 . S
C50 O51 1.249 . S
C50 O52 1.270 . S
O51 Zn43 1.943 . S
O51 C50 1.249 . S
O52 Zn42 2.067 . S
O52 C50 1.270 . S
C53 O46 1.262 . S
C53 O54 1.232 . S
O54 C53 1.232 . S
C55 O47 1.260 . S
C55 O48 1.257 . S
Zn56 O59 2.031 . S
Zn56 O61 2.049 . S
Zn56 O66 2.067 . S
Zn57 O58 1.962 . S
Zn57 O60 1.986 . S
Zn57 O62 1.996 . S
Zn57 O65 1.943 . S
O58 Zn57 1.962 . S
O58 C63 1.254 . S
O59 Zn56 2.031 . S
O59 C63 1.269 . S
O60 Zn57 1.986 . S
O60 C67 1.262 . S
O61 Zn56 2.049 . S
O61 C69 1.260 . S
O62 Zn57 1.996 . S
O62 C69 1.257 . S
C63 O58 1.254 . S
C63 O59 1.269 . S
C64 O65 1.249 . S
C64 O66 1.270 . S
O65 Zn57 1.943 . S
O65 C64 1.249 . S
O66 Zn56 2.067 . S
O66 C64 1.270 . S
C67 O60 1.262 . S
C67 O68 1.232 . S
O68 C67 1.232 . S
C69 O61 1.260 . S
C69 O62 1.257 . S
Zn70 O73 2.031 . S
Zn70 O75 2.049 . S
Zn70 O80 2.067 . S
Zn71 O72 1.962 . S
Zn71 O74 1.986 . S
Zn71 O76 1.996 . S
Zn71 O79 1.943 . S
O72 Zn71 1.962 . S
O72 C77 1.254 . S
O73 Zn70 2.031 . S
O73 C77 1.269 . S
O74 Zn71 1.986 . S
O74 C81 1.262 . S
O75 Zn70 2.049 . S
O75 C83 1.260 . S
O76 Zn71 1.996 . S
O76 C83 1.257 . S
C77 O72 1.254 . S
C77 O73 1.269 . S
C78 O79 1.249 . S
C78 O80 1.270 . S
O79 Zn71 1.943 . S
O79 C78 1.249 . S
O80 Zn70 2.067 . S
O80 C78 1.270 . S
C81 O74 1.262 . S
C81 O82 1.232 . S
O82 C81 1.232 . S
C83 O75 1.260 . S
C83 O76 1.257 . S
Zn84 O87 2.031 . S
Zn84 O89 2.049 . S
Zn84 O94 2.067 . S
Zn85 O86 1.962 . S
Zn85 O88 1.986 . S
Zn85 O90 1.996 . S
Zn85 O93 1.943 . S
O86 Zn85 1.962 . S
O86 C91 1.254 . S
O87 Zn84 2.031 . S
O87 C91 1.269 . S
O88 Zn85 1.986 . S
O88 C95 1.262 . S
O89 Zn84 2.049 . S
O89 C97 1.260 . S
O90 Zn85 1.996 . S
O90 C97 1.257 . S
C91 O86 1.254 . S
C91 O87 1.269 . S
C92 O93 1.249 . S
C92 O94 1.270 . S
O93 Zn85 1.943 . S
O93 C92 1.249 . S
O94 Zn84 2.067 . S
O94 C92 1.270 . S
C95 O88 1.262 . S
C95 O96 1.232 . S
O96 C95 1.232 . S
C97 O89 1.260 . S
C97 O90 1.257 . S
Zn98 O101 2.031 . S
Zn98 O103 2.049 . S
Zn98 O108 2.067 . S
Zn99 O100 1.962 . S
Zn99 O102 1.986 . S
Zn99 O104 1.996 . S
Zn99 O107 1.943 . S
O100 Zn99 1.962 . S
O100 C105 1.254 . S
O101 Zn98 2.031 . S
O101 C105 1.269 . S
O102 Zn99 1.986 . S
O102 C109 1.262 . S
O103 Zn98 2.049 . S
O103 C111 1.260 . S
O104 Zn99 1.996 . S
O104 C111 1.257 . S
C105 O100 1.254 . S
C105 O101 1.269 . S
C106 O107 1.249 . S
C106 O108 1.270 . S
O107 Zn99 1.943 . S
O107 C106 1.249 . S
O108 Zn98 2.067 . S
O108 C106 1.270 . S
C109 O102 1.262 . S
C109 O110 1.232 . S
O110 C109 1.232 . S
C111 O103 1.260 . S
C111 O104 1.257 . S
Zn112 O115 2.031 . S
Zn112 O117 2.049 . S
Zn112 O122 2.067 . S
Zn113 O114 1.962 . S
Zn113 O116 1.986 . S
Zn113 O118 1.996 . S
Zn113 O121 1.943 . S
O114 Zn113 1.962 . S
O114 C119 1.254 . S
O115 Zn112 2.031 . S
O115 C119 1.269 . S
O116 Zn113 1.986 . S
O116 C123 1.262 . S
O117 Zn112 2.049 . S
O117 C125 1.260 . S
O118 Zn113 1.996 . S
O118 C125 1.257 . S
C119 O114 1.254 . S
C119 O115 1.269 . S
C120 O121 1.249 . S
C120 O122 1.270 . S
O121 Zn113 1.943 . S
O121 C120 1.249 . S
O122 Zn112 2.067 . S
O122 C120 1.270 . S
C123 O116 1.262 . S
C123 O124 1.232 . S
O124 C123 1.232 . S
C125 O117 1.260 . S
C125 O118 1.257 . S
Zn126 O129 2.031 . S
Zn126 O131 2.049 . S
Zn126 O136 2.067 . S
Zn127 O128 1.962 . S
Zn127 O130 1.986 . S
Zn127 O132 1.996 . S
Zn127 O135 1.943 . S
O128 Zn127 1.962 . S
O128 C133 1.254 . S
O129 Zn126 2.031 . S
O129 C133 1.269 . S
O130 Zn127 1.986 . S
O130 C137 1.262 . S
O131 Zn126 2.049 . S
O131 C139 1.260 . S
O132 Zn127 1.996 . S
O132 C139 1.257 . S
C133 O128 1.254 . S
C133 O129 1.269 . S
C134 O135 1.249 . S
C134 O136 1.270 . S
O135 Zn127 1.943 . S
O135 C134 1.249 . S
O136 Zn126 2.067 . S
O136 C134 1.270 . S
C137 O130 1.262 . S
C137 O138 1.232 . S
O138 C137 1.232 . S
C139 O131 1.260 . S
C139 O132 1.257 . S
Zn140 O143 2.031 . S
Zn140 O145 2.049 . S
Zn140 O150 2.067 . S
Zn141 O142 1.962 . S
Zn141 O144 1.986 . S
Zn141 O146 1.996 . S
Zn141 O149 1.943 . S
O142 Zn141 1.962 . S
O142 C147 1.254 . S
O143 Zn140 2.031 . S
O143 C147 1.269 . S
O144 Zn141 1.986 . S
O144 C151 1.262 . S
O145 Zn140 2.049 . S
O145 C153 1.260 . S
O146 Zn141 1.996 . S
O146 C153 1.257 . S
C147 O142 1.254 . S
C147 O143 1.269 . S
C148 O149 1.249 . S
C148 O150 1.270 . S
O149 Zn141 1.943 . S
O149 C148 1.249 . S
O150 Zn140 2.067 . S
O150 C148 1.270 . S
C151 O144 1.262 . S
C151 O152 1.232 . S
O152 C151 1.232 . S
C153 O145 1.260 . S
C153 O146 1.257 . S
Zn154 O157 2.031 . S
Zn154 O159 2.049 . S
Zn154 O164 2.067 . S
Zn155 O156 1.962 . S
Zn155 O158 1.986 . S
Zn155 O160 1.996 . S
Zn155 O163 1.943 . S
O156 Zn155 1.962 . S
O156 C161 1.254 . S
O157 Zn154 2.031 . S
O157 C161 1.269 . S
O158 Zn155 1.986 . S
O158 C165 1.262 . S
O159 Zn154 2.049 . S
O159 C167 1.260 . S
O160 Zn155 1.996 . S
O160 C167 1.257 . S
C161 O156 1.254 . S
C161 O157 1.269 . S
C162 O163 1.249 . S
C162 O164 1.270 . S
O163 Zn155 1.943 . S
O163 C162 1.249 . S
O164 Zn154 2.067 . S
O164 C162 1.270 . S
C165 O158 1.262 . S
C165 O166 1.232 . S
O166 C165 1.232 . S
C167 O159 1.260 . S
C167 O160 1.257 . S
Zn168 O171 2.031 . S
Zn168 O173 2.049 . S
Zn168 O178 2.067 . S
Zn169 O170 1.962 . S
Zn169 O172 1.986 . S
Zn169 O174 1.996 . S
Zn169 O177 1.943 . S
O170 Zn169 1.962 . S
O170 C175 1.254 . S
O171 Zn168 2.031 . S
O171 C175 1.269 . S
O172 Zn169 1.986 . S
O172 C179 1.262 . S
O173 Zn168 2.049 . S
O173 C181 1.260 . S
O174 Zn169 1.996 . S
O174 C181 1.257 . S
C175 O170 1.254 . S
C175 O171 1.269 . S
C176 O177 1.249 . S
C176 O178 1.270 . S
O177 Zn169 1.943 . S
O177 C176 1.249 . S
O178 Zn168 2.067 . S
O178 C176 1.270 . S
C179 O172 1.262 . S
C179 O180 1.232 . S
O180 C179 1.232 . S
C181 O173 1.260 . S
C181 O174 1.257 . S
Zn182 O185 2.031 . S
Zn182 O187 2.049 . S
Zn182 O192 2.067 . S
Zn183 O184 1.962 . S
Zn183 O186 1.986 . S
Zn183 O188 1.996 . S
Zn183 O191 1.943 . S
O184 Zn183 1.962 . S
O184 C189 1.254 . S
O185 Zn182 2.031 . S
O185 C189 1.269 . S
O186 Zn183 1.986 . S
O186 C193 1.262 . S
O187 Zn182 2.049 . S
O187 C195 1.260 . S
O188 Zn183 1.996 . S
O188 C195 1.257 . S
C189 O184 1.254 . S
C189 O185 1.269 . S
C190 O191 1.249 . S
C190 O192 1.270 . S
O191 Zn183 1.943 . S
O191 C190 1.249 . S
O192 Zn182 2.067 . S
O192 C190 1.270 . S
C193 O186 1.262 . S
C193 O194 1.232 . S
O194 C193 1.232 . S
C195 O187 1.260 . S
C195 O188 1.257 . S
Zn196 O199 2.031 . S
Zn196 O201 2.049 . S
Zn196 O206 2.067 . S
Zn197 O198 1.962 . S
Zn197 O200 1.986 . S
Zn197 O202 1.996 . S
Zn197 O205 1.943 . S
O198 Zn197 1.962 . S
O198 C203 1.254 . S
O199 Zn196 2.031 . S
O199 C203 1.269 . S
O200 Zn197 1.986 . S
O200 C207 1.262 . S
O201 Zn196 2.049 . S
O201 C209 1.260 . S
O202 Zn197 1.996 . S
O202 C209 1.257 . S
C203 O198 1.254 . S
C203 O199 1.269 . S
C204 O205 1.249 . S
C204 O206 1.270 . S
O205 Zn197 1.943 . S
O205 C204 1.249 . S
O206 Zn196 2.067 . S
O206 C204 1.270 . S
C207 O200 1.262 . S
C207 O208 1.232 . S
O208 C207 1.232 . S
C209 O201 1.260 . S
C209 O202 1.257 . S
Zn210 O213 2.031 . S
Zn210 O215 2.049 . S
Zn210 O220 2.067 . S
Zn211 O212 1.962 . S
Zn211 O214 1.986 . S
Zn211 O216 1.996 . S
Zn211 O219 1.943 . S
O212 Zn211 1.962 . S
O212 C217 1.254 . S
O213 Zn210 2.031 . S
O213 C217 1.269 . S
O214 Zn211 1.986 . S
O214 C221 1.262 . S
O215 Zn210 2.049 . S
O215 C223 1.260 . S
O216 Zn211 1.996 . S
O216 C223 1.257 . S
C217 O212 1.254 . S
C217 O213 1.269 . S
C218 O219 1.249 . S
C218 O220 1.270 . S
O219 Zn211 1.943 . S
O219 C218 1.249 . S
O220 Zn210 2.067 . S
O220 C218 1.270 . S
C221 O214 1.262 . S
C221 O222 1.232 . S
O222 C221 1.232 . S
C223 O215 1.260 . S
C223 O216 1.257 . S
H224 C230 0.930 . S
H225 C233 0.930 . S
H226 C234 0.930 . S
H227 C235 0.930 . S
H228 C238 0.930 . S
H229 C239 0.930 . S
C230 H224 0.930 . S
C230 C231 1.355 . S
C230 C232 1.415 . S
C231 C230 1.355 . S
C231 C233 1.419 . S
C232 C230 1.415 . S
C232 C237 1.425 . S
C232 C239 1.409 . S
C233 H225 0.930 . S
C233 C231 1.419 . S
C233 C234 1.362 . S
C234 H226 0.930 . S
C234 C233 1.362 . S
C234 C237 1.409 . S
C235 H227 0.930 . S
C235 C236 1.355 . S
C235 C237 1.415 . S
C236 C235 1.355 . S
C236 C238 1.419 . S
C237 C232 1.425 . S
C237 C234 1.409 . S
C237 C235 1.415 . S
C238 H228 0.930 . S
C238 C236 1.419 . S
C238 C239 1.362 . S
C239 H229 0.930 . S
C239 C232 1.409 . S
C239 C238 1.362 . S
H240 C246 0.930 . S
H241 C249 0.930 . S
H242 C250 0.930 . S
H243 C251 0.930 . S
H244 C254 0.930 . S
H245 C255 0.930 . S
C246 H240 0.930 . S
C246 C247 1.355 . S
C246 C248 1.415 . S
C247 C246 1.355 . S
C247 C249 1.419 . S
C248 C246 1.415 . S
C248 C253 1.425 . S
C248 C255 1.409 . S
C249 H241 0.930 . S
C249 C247 1.419 . S
C249 C250 1.362 . S
C250 H242 0.930 . S
C250 C249 1.362 . S
C250 C253 1.409 . S
C251 H243 0.930 . S
C251 C252 1.355 . S
C251 C253 1.415 . S
C252 C251 1.355 . S
C252 C254 1.419 . S
C253 C248 1.425 . S
C253 C250 1.409 . S
C253 C251 1.415 . S
C254 H244 0.930 . S
C254 C252 1.419 . S
C254 C255 1.362 . S
C255 H245 0.930 . S
C255 C248 1.409 . S
C255 C254 1.362 . S
H256 C262 0.930 . S
H257 C265 0.930 . S
H258 C266 0.930 . S
H259 C267 0.930 . S
H260 C270 0.930 . S
H261 C271 0.930 . S
C262 H256 0.930 . S
C262 C263 1.355 . S
C262 C264 1.415 . S
C263 C262 1.355 . S
C263 C265 1.419 . S
C264 C262 1.415 . S
C264 C269 1.425 . S
C264 C271 1.409 . S
C265 H257 0.930 . S
C265 C263 1.419 . S
C265 C266 1.362 . S
C266 H258 0.930 . S
C266 C265 1.362 . S
C266 C269 1.409 . S
C267 H259 0.930 . S
C267 C268 1.355 . S
C267 C269 1.415 . S
C268 C267 1.355 . S
C268 C270 1.419 . S
C269 C264 1.425 . S
C269 C266 1.409 . S
C269 C267 1.415 . S
C270 H260 0.930 . S
C270 C268 1.419 . S
C270 C271 1.362 . S
C271 H261 0.930 . S
C271 C264 1.409 . S
C271 C270 1.362 . S
H272 C278 0.930 . S
H273 C281 0.930 . S
H274 C282 0.930 . S
H275 C283 0.930 . S
H276 C286 0.930 . S
H277 C287 0.930 . S
C278 H272 0.930 . S
C278 C279 1.355 . S
C278 C280 1.415 . S
C279 C278 1.355 . S
C279 C281 1.419 . S
C280 C278 1.415 . S
C280 C285 1.425 1_455 S
C280 C287 1.409 1_455 S
C281 H273 0.930 . S
C281 C279 1.419 . S
C281 C282 1.362 . S
C282 H274 0.930 . S
C282 C281 1.362 . S
C282 C285 1.409 1_455 S
C283 H275 0.930 . S
C283 C284 1.355 . S
C283 C285 1.415 . S
C284 C283 1.355 . S
C284 C286 1.419 . S
C285 C280 1.425 1_655 S
C285 C282 1.409 1_655 S
C285 C283 1.415 . S
C286 H276 0.930 . S
C286 C284 1.419 . S
C286 C287 1.362 . S
C287 H277 0.930 . S
C287 C280 1.409 1_655 S
C287 C286 1.362 . S
H288 C294 0.930 . S
H289 C297 0.930 . S
H290 C298 0.930 . S
H291 C299 0.930 . S
H292 C302 0.930 . S
H293 C303 0.930 . S
C294 H288 0.930 . S
C294 C295 1.355 . S
C294 C296 1.415 . S
C295 C294 1.355 . S
C295 C297 1.419 . S
C296 C294 1.415 . S
C296 C301 1.425 . S
C296 C303 1.409 . S
C297 H289 0.930 . S
C297 C295 1.419 . S
C297 C298 1.362 . S
C298 H290 0.930 . S
C298 C297 1.362 . S
C298 C301 1.409 . S
C299 H291 0.930 . S
C299 C300 1.355 . S
C299 C301 1.415 . S
C300 C299 1.355 . S
C300 C302 1.419 . S
C301 C296 1.425 . S
C301 C298 1.409 . S
C301 C299 1.415 . S
C302 H292 0.930 . S
C302 C300 1.419 . S
C302 C303 1.362 . S
C303 H293 0.930 . S
C303 C296 1.409 . S
C303 C302 1.362 . S
H304 C310 0.930 . S
H305 C313 0.930 . S
H306 C314 0.930 . S
H307 C315 0.930 . S
H308 C318 0.930 . S
H309 C319 0.930 . S
C310 H304 0.930 . S
C310 C311 1.355 . S
C310 C312 1.415 . S
C311 C310 1.355 . S
C311 C313 1.419 . S
C312 C310 1.415 . S
C312 C317 1.421 1_655 S
C312 C319 1.409 1_655 S
C313 H305 0.930 . S
C313 C311 1.419 . S
C313 C314 1.362 . S
C314 H306 0.930 . S
C314 C313 1.362 . S
C314 C317 1.401 1_655 S
C315 H307 0.930 . S
C315 C316 1.355 . S
C315 C317 1.427 . S
C316 C315 1.355 . S
C316 C318 1.419 . S
C317 C312 1.421 1_455 S
C317 C314 1.401 1_455 S
C317 C315 1.427 . S
C318 H308 0.930 . S
C318 C316 1.419 . S
C318 C319 1.362 . S
C319 H309 0.930 . S
C319 C312 1.409 1_455 S
C319 C318 1.362 . S
H320 C326 0.930 . S
H321 C329 0.930 . S
H322 C330 0.930 . S
H323 C331 0.930 . S
H324 C334 0.930 . S
H325 C335 0.930 . S
C326 H320 0.930 . S
C326 C327 1.355 . S
C326 C328 1.415 . S
C327 C326 1.355 . S
C327 C329 1.419 . S
C328 C326 1.415 . S
C328 C333 1.425 . S
C328 C335 1.409 . S
C329 H321 0.930 . S
C329 C327 1.419 . S
C329 C330 1.362 . S
C330 H322 0.930 . S
C330 C329 1.362 . S
C330 C333 1.409 . S
C331 H323 0.930 . S
C331 C332 1.355 . S
C331 C333 1.415 . S
C332 C331 1.355 . S
C332 C334 1.419 . S
C333 C328 1.425 . S
C333 C330 1.409 . S
C333 C331 1.415 . S
C334 H324 0.930 . S
C334 C332 1.419 . S
C334 C335 1.362 . S
C335 H325 0.930 . S
C335 C328 1.409 . S
C335 C334 1.362 . S
H336 C342 0.930 . S
H337 C345 0.930 . S
H338 C346 0.930 . S
H339 C347 0.930 . S
H340 C350 0.930 . S
H341 C351 0.930 . S
C342 H336 0.930 . S
C342 C343 1.355 . S
C342 C344 1.415 . S
C343 C342 1.355 . S
C343 C345 1.419 . S
C344 C342 1.415 . S
C344 C349 1.425 . S
C344 C351 1.409 . S
C345 H337 0.930 . S
C345 C343 1.419 . S
C345 C346 1.362 . S
C346 H338 0.930 . S
C346 C345 1.362 . S
C346 C349 1.409 . S
C347 H339 0.930 . S
C347 C348 1.355 . S
C347 C349 1.415 . S
C348 C347 1.355 . S
C348 C350 1.419 . S
C349 C344 1.425 . S
C349 C346 1.409 . S
C349 C347 1.415 . S
C350 H340 0.930 . S
C350 C348 1.419 . S
C350 C351 1.362 . S
C351 H341 0.930 . S
C351 C344 1.409 . S
C351 C350 1.362 . S
H352 C358 0.930 . S
H353 C361 0.930 . S
H354 C362 0.930 . S
H355 C363 0.930 . S
H356 C366 0.930 . S
H357 C367 0.930 . S
C358 H352 0.930 . S
C358 C359 1.355 . S
C358 C360 1.415 . S
C359 C358 1.355 . S
C359 C361 1.419 . S
C360 C358 1.415 . S
C360 C365 1.425 . S
C360 C367 1.409 . S
C361 H353 0.930 . S
C361 C359 1.419 . S
C361 C362 1.362 . S
C362 H354 0.930 . S
C362 C361 1.362 . S
C362 C365 1.409 . S
C363 H355 0.930 . S
C363 C364 1.355 . S
C363 C365 1.415 . S
C364 C363 1.355 . S
C364 C366 1.419 . S
C365 C360 1.425 . S
C365 C362 1.409 . S
C365 C363 1.415 . S
C366 H356 0.930 . S
C366 C364 1.419 . S
C366 C367 1.362 . S
C367 H357 0.930 . S
C367 C360 1.409 . S
C367 C366 1.362 . S
H368 C374 0.930 . S
H369 C377 0.930 . S
H370 C378 0.930 . S
H371 C379 0.930 . S
H372 C382 0.930 . S
H373 C383 0.930 . S
C374 H368 0.930 . S
C374 C375 1.355 . S
C374 C376 1.415 . S
C375 C374 1.355 . S
C375 C377 1.419 . S
C376 C374 1.415 . S
C376 C381 1.425 . S
C376 C383 1.409 . S
C377 H369 0.930 . S
C377 C375 1.419 . S
C377 C378 1.362 . S
C378 H370 0.930 . S
C378 C377 1.362 . S
C378 C381 1.409 . S
C379 H371 0.930 . S
C379 C380 1.355 . S
C379 C381 1.415 . S
C380 C379 1.355 . S
C380 C382 1.419 . S
C381 C376 1.425 . S
C381 C378 1.409 . S
C381 C379 1.415 . S
C382 H372 0.930 . S
C382 C380 1.419 . S
C382 C383 1.362 . S
C383 H373 0.930 . S
C383 C376 1.409 . S
C383 C382 1.362 . S
H384 C390 0.930 . S
H385 C393 0.930 . S
H386 C394 0.930 . S
H387 C395 0.930 . S
H388 C398 0.930 . S
H389 C399 0.930 . S
C390 H384 0.930 . S
C390 C391 1.355 . S
C390 C392 1.415 . S
C391 C390 1.355 . S
C391 C393 1.419 . S
C392 C390 1.415 . S
C392 C397 1.425 . S
C392 C399 1.409 . S
C393 H385 0.930 . S
C393 C391 1.419 . S
C393 C394 1.362 . S
C394 H386 0.930 . S
C394 C393 1.362 . S
C394 C397 1.409 . S
C395 H387 0.930 . S
C395 C396 1.355 . S
C395 C397 1.415 . S
C396 C395 1.355 . S
C396 C398 1.419 . S
C397 C392 1.425 . S
C397 C394 1.409 . S
C397 C395 1.415 . S
C398 H388 0.930 . S
C398 C396 1.419 . S
C398 C399 1.362 . S
C399 H389 0.930 . S
C399 C392 1.409 . S
C399 C398 1.362 . S
H400 C406 0.930 . S
H401 C409 0.930 . S
H402 C410 0.930 . S
H403 C411 0.930 . S
H404 C414 0.930 . S
H405 C415 0.930 . S
C406 H400 0.930 . S
C406 C407 1.355 . S
C406 C408 1.415 . S
C407 C406 1.355 . S
C407 C409 1.419 . S
C408 C406 1.415 . S
C408 C413 1.425 . S
C408 C415 1.409 . S
C409 H401 0.930 . S
C409 C407 1.419 . S
C409 C410 1.362 . S
C410 H402 0.930 . S
C410 C409 1.362 . S
C410 C413 1.409 . S
C411 H403 0.930 . S
C411 C412 1.355 . S
C411 C413 1.415 . S
C412 C411 1.355 . S
C412 C414 1.419 . S
C413 C408 1.425 . S
C413 C410 1.409 . S
C413 C411 1.415 . S
C414 H404 0.930 . S
C414 C412 1.419 . S
C414 C415 1.362 . S
C415 H405 0.930 . S
C415 C408 1.409 . S
C415 C414 1.362 . S
H416 C422 0.930 . S
H417 C425 0.930 . S
H418 C426 0.930 . S
H419 C427 0.930 . S
H420 C430 0.930 . S
H421 C431 0.930 . S
C422 H416 0.930 . S
C422 C423 1.355 . S
C422 C424 1.415 . S
C423 C422 1.355 . S
C423 C425 1.419 . S
C424 C422 1.415 . S
C424 C429 1.425 1_455 S
C424 C431 1.409 1_455 S
C425 H417 0.930 . S
C425 C423 1.419 . S
C425 C426 1.362 . S
C426 H418 0.930 . S
C426 C425 1.362 . S
C426 C429 1.409 1_455 S
C427 H419 0.930 . S
C427 C428 1.355 . S
C427 C429 1.415 . S
C428 C427 1.355 . S
C428 C430 1.419 . S
C429 C424 1.425 1_655 S
C429 C426 1.409 1_655 S
C429 C427 1.415 . S
C430 H420 0.930 . S
C430 C428 1.419 . S
C430 C431 1.362 . S
C431 H421 0.930 . S
C431 C424 1.409 1_655 S
C431 C430 1.362 . S
H432 C438 0.930 . S
H433 C441 0.930 . S
H434 C442 0.930 . S
H435 C443 0.930 . S
H436 C446 0.930 . S
H437 C447 0.930 . S
C438 H432 0.930 . S
C438 C439 1.355 . S
C438 C440 1.415 . S
C439 C438 1.355 . S
C439 C441 1.419 . S
C440 C438 1.415 . S
C440 C445 1.425 . S
C440 C447 1.409 . S
C441 H433 0.930 . S
C441 C439 1.419 . S
C441 C442 1.362 . S
C442 H434 0.930 . S
C442 C441 1.362 . S
C442 C445 1.409 . S
C443 H435 0.930 . S
C443 C444 1.355 . S
C443 C445 1.415 . S
C444 C443 1.355 . S
C444 C446 1.419 . S
C445 C440 1.425 . S
C445 C442 1.409 . S
C445 C443 1.415 . S
C446 H436 0.930 . S
C446 C444 1.419 . S
C446 C447 1.362 . S
C447 H437 0.930 . S
C447 C440 1.409 . S
C447 C446 1.362 . S
H448 C454 0.930 . S
H449 C457 0.930 . S
H450 C458 0.930 . S
H451 C459 0.930 . S
H452 C462 0.930 . S
H453 C463 0.930 . S
C454 H448 0.930 . S
C454 C455 1.355 . S
C454 C456 1.415 . S
C455 C454 1.355 . S
C455 C457 1.419 . S
C456 C454 1.415 . S
C456 C461 1.425 . S
C456 C463 1.409 . S
C457 H449 0.930 . S
C457 C455 1.419 . S
C457 C458 1.362 . S
C458 H450 0.930 . S
C458 C457 1.362 . S
C458 C461 1.409 . S
C459 H451 0.930 . S
C459 C460 1.355 . S
C459 C461 1.415 . S
C460 C459 1.355 . S
C460 C462 1.419 . S
C461 C456 1.425 . S
C461 C458 1.409 . S
C461 C459 1.415 . S
C462 H452 0.930 . S
C462 C460 1.419 . S
C462 C463 1.362 . S
C463 H453 0.930 . S
C463 C456 1.409 . S
C463 C462 1.362 . S
H464 C470 0.930 . S
H465 C473 0.930 . S
H466 C474 0.930 . S
H467 C475 0.930 . S
H468 C478 0.930 . S
H469 C479 0.930 . S
C470 H464 0.930 . S
C470 C471 1.355 . S
C470 C472 1.415 . S
C471 C470 1.355 . S
C471 C473 1.419 . S
C472 C470 1.415 . S
C472 C477 1.425 1_455 S
C472 C479 1.409 1_455 S
C473 H465 0.930 . S
C473 C471 1.419 . S
C473 C474 1.362 . S
C474 H466 0.930 . S
C474 C473 1.362 . S
C474 C477 1.409 1_455 S
C475 H467 0.930 . S
C475 C476 1.355 . S
C475 C477 1.415 . S
C476 C475 1.355 . S
C476 C478 1.419 . S
C477 C472 1.425 1_655 S
C477 C474 1.409 1_655 S
C477 C475 1.415 . S
C478 H468 0.930 . S
C478 C476 1.419 . S
C478 C479 1.362 . S
C479 H469 0.930 . S
C479 C472 1.409 1_655 S
C479 C478 1.362 . S
H480 C486 0.930 . S
H481 C489 0.930 . S
H482 C490 0.930 . S
H483 C491 0.930 . S
H484 C494 0.930 . S
H485 C495 0.930 . S
C486 H480 0.930 . S
C486 C487 1.355 . S
C486 C488 1.415 1_554 S
C487 C486 1.355 . S
C487 C489 1.419 . S
C488 C486 1.415 1_556 S
C488 C493 1.425 1_556 S
C488 C495 1.409 . S
C489 H481 0.930 . S
C489 C487 1.419 . S
C489 C490 1.362 . S
C490 H482 0.930 . S
C490 C489 1.362 . S
C490 C493 1.409 . S
C491 H483 0.930 . S
C491 C492 1.355 . S
C491 C493 1.415 1_556 S
C492 C491 1.355 . S
C492 C494 1.419 . S
C493 C488 1.425 1_554 S
C493 C490 1.409 . S
C493 C491 1.415 1_554 S
C494 H484 0.930 . S
C494 C492 1.419 . S
C494 C495 1.362 . S
C495 H485 0.930 . S
C495 C488 1.409 . S
C495 C494 1.362 . S
H496 C502 0.930 . S
H497 C505 0.930 . S
H498 C506 0.930 . S
H499 C507 0.930 . S
H500 C510 0.930 . S
H501 C511 0.930 . S
C502 H496 0.930 . S
C502 C503 1.355 . S
C502 C504 1.415 . S
C503 C502 1.355 . S
C503 C505 1.419 . S
C504 C502 1.415 . S
C504 C509 1.425 . S
C504 C511 1.409 . S
C505 H497 0.930 . S
C505 C503 1.419 . S
C505 C506 1.362 . S
C506 H498 0.930 . S
C506 C505 1.362 . S
C506 C509 1.409 . S
C507 H499 0.930 . S
C507 C508 1.355 . S
C507 C509 1.415 . S
C508 C507 1.355 . S
C508 C510 1.419 . S
C509 C504 1.425 . S
C509 C506 1.409 . S
C509 C507 1.415 . S
C510 H500 0.930 . S
C510 C508 1.419 . S
C510 C511 1.362 . S
C511 H501 0.930 . S
C511 C504 1.409 . S
C511 C510 1.362 . S
H512 C518 0.930 . S
H513 C521 0.930 . S
H514 C522 0.930 . S
H515 C523 0.930 . S
H516 C526 0.930 . S
H517 C527 0.930 . S
C518 H512 0.930 . S
C518 C519 1.355 . S
C518 C520 1.415 . S
C519 C518 1.355 . S
C519 C521 1.419 . S
C520 C518 1.415 . S
C520 C525 1.425 . S
C520 C527 1.409 . S
C521 H513 0.930 . S
C521 C519 1.419 . S
C521 C522 1.362 . S
C522 H514 0.930 . S
C522 C521 1.362 . S
C522 C525 1.409 . S
C523 H515 0.930 . S
C523 C524 1.355 . S
C523 C525 1.415 . S
C524 C523 1.355 . S
C524 C526 1.419 . S
C525 C520 1.425 . S
C525 C522 1.409 . S
C525 C523 1.415 . S
C526 H516 0.930 . S
C526 C524 1.419 . S
C526 C527 1.362 . S
C527 H517 0.930 . S
C527 C520 1.409 . S
C527 C526 1.362 . S
H528 C534 0.930 . S
H529 C537 0.930 . S
H530 C538 0.930 . S
H531 C539 0.930 . S
H532 C542 0.930 . S
H533 C543 0.930 . S
C534 H528 0.930 . S
C534 C535 1.355 . S
C534 C536 1.415 . S
C535 C534 1.355 . S
C535 C537 1.419 . S
C536 C534 1.415 . S
C536 C541 1.425 . S
C536 C543 1.409 . S
C537 H529 0.930 . S
C537 C535 1.419 . S
C537 C538 1.362 . S
C538 H530 0.930 . S
C538 C537 1.362 . S
C538 C541 1.409 . S
C539 H531 0.930 . S
C539 C540 1.355 . S
C539 C541 1.415 . S
C540 C539 1.355 . S
C540 C542 1.419 . S
C541 C536 1.425 . S
C541 C538 1.409 . S
C541 C539 1.415 . S
C542 H532 0.930 . S
C542 C540 1.419 . S
C542 C543 1.362 . S
C543 H533 0.930 . S
C543 C536 1.409 . S
C543 C542 1.362 . S
H544 C550 0.930 . S
H545 C553 0.930 . S
H546 C554 0.930 . S
H547 C555 0.930 . S
H548 C558 0.930 . S
H549 C559 0.930 . S
C550 H544 0.930 . S
C550 C551 1.355 . S
C550 C552 1.415 1_556 S
C551 C550 1.355 . S
C551 C553 1.419 . S
C552 C550 1.415 1_554 S
C552 C557 1.425 1_554 S
C552 C559 1.409 . S
C553 H545 0.930 . S
C553 C551 1.419 . S
C553 C554 1.362 . S
C554 H546 0.930 . S
C554 C553 1.362 . S
C554 C557 1.409 . S
C555 H547 0.930 . S
C555 C556 1.355 . S
C555 C557 1.415 1_554 S
C556 C555 1.355 . S
C556 C558 1.419 . S
C557 C552 1.425 1_556 S
C557 C554 1.409 . S
C557 C555 1.415 1_556 S
C558 H548 0.930 . S
C558 C556 1.419 . S
C558 C559 1.362 . S
C559 H549 0.930 . S
C559 C552 1.409 . S
C559 C558 1.362 . S
H560 C566 0.930 . S
H561 C569 0.930 . S
H562 C570 0.930 . S
H563 C571 0.930 . S
H564 C574 0.930 . S
H565 C575 0.930 . S
C566 H560 0.930 . S
C566 C567 1.355 . S
C566 C568 1.415 . S
C567 C566 1.355 . S
C567 C569 1.419 . S
C568 C566 1.415 . S
C568 C573 1.425 . S
C568 C575 1.409 . S
C569 H561 0.930 . S
C569 C567 1.419 . S
C569 C570 1.362 . S
C570 H562 0.930 . S
C570 C569 1.362 . S
C570 C573 1.409 . S
C571 H563 0.930 . S
C571 C572 1.355 . S
C571 C573 1.415 . S
C572 C571 1.355 . S
C572 C574 1.419 . S
C573 C568 1.425 . S
C573 C570 1.409 . S
C573 C571 1.415 . S
C574 H564 0.930 . S
C574 C572 1.419 . S
C574 C575 1.362 . S
C575 H565 0.930 . S
C575 C568 1.409 . S
C575 C574 1.362 . S
H576 C582 0.930 . S
H577 C585 0.930 . S
H578 C586 0.930 . S
H579 C587 0.930 . S
H580 C590 0.930 . S
H581 C591 0.930 . S
C582 H576 0.930 . S
C582 C583 1.355 . S
C582 C584 1.415 . S
C583 C582 1.355 . S
C583 C585 1.419 . S
C584 C582 1.415 . S
C584 C589 1.425 . S
C584 C591 1.409 . S
C585 H577 0.930 . S
C585 C583 1.419 . S
C585 C586 1.362 . S
C586 H578 0.930 . S
C586 C585 1.362 . S
C586 C589 1.409 . S
C587 H579 0.930 . S
C587 C588 1.355 . S
C587 C589 1.415 . S
C588 C587 1.355 . S
C588 C590 1.419 . S
C589 C584 1.425 . S
C589 C586 1.409 . S
C589 C587 1.415 . S
C590 H580 0.930 . S
C590 C588 1.419 . S
C590 C591 1.362 . S
C591 H581 0.930 . S
C591 C584 1.409 . S
C591 C590 1.362 . S
H592 C598 0.930 . S
H593 C601 0.930 . S
H594 C602 0.930 . S
H595 C603 0.930 . S
H596 C606 0.930 . S
H597 C607 0.930 . S
C598 H592 0.930 . S
C598 C599 1.355 . S
C598 C600 1.415 . S
C599 C598 1.355 . S
C599 C601 1.419 . S
C600 C598 1.415 . S
C600 C605 1.425 . S
C600 C607 1.409 . S
C601 H593 0.930 . S
C601 C599 1.419 . S
C601 C602 1.362 . S
C602 H594 0.930 . S
C602 C601 1.362 . S
C602 C605 1.409 . S
C603 H595 0.930 . S
C603 C604 1.355 . S
C603 C605 1.415 . S
C604 C603 1.355 . S
C604 C606 1.419 . S
C605 C600 1.425 . S
C605 C602 1.409 . S
C605 C603 1.415 . S
C606 H596 0.930 . S
C606 C604 1.419 . S
C606 C607 1.362 . S
C607 H597 0.930 . S
C607 C600 1.409 . S
C607 C606 1.362 . S
H608 C614 0.930 . S
H609 C617 0.930 . S
H610 C618 0.929 1_565 S
H611 C619 0.930 . S
H612 C622 0.930 . S
H613 C623 0.930 . S
C614 H608 0.930 . S
C614 C615 1.355 . S
C614 C616 1.415 . S
C615 C614 1.355 . S
C615 C617 1.419 . S
C616 C614 1.415 . S
C616 C621 1.425 1_545 S
C616 C623 1.409 1_545 S
C617 H609 0.930 . S
C617 C615 1.419 . S
C617 C618 1.362 . S
C618 H610 0.929 1_545 S
C618 C617 1.362 . S
C618 C621 1.409 1_545 S
C619 H611 0.930 . S
C619 C620 1.355 . S
C619 C621 1.415 . S
C620 C619 1.355 . S
C620 C622 1.419 . S
C621 C616 1.425 1_565 S
C621 C618 1.409 1_565 S
C621 C619 1.415 . S
C622 H612 0.930 . S
C622 C620 1.419 . S
C622 C623 1.362 . S
C623 H613 0.930 . S
C623 C616 1.409 1_565 S
C623 C622 1.362 . S
H624 C630 0.930 . S
H625 C633 0.930 . S
H626 C634 0.930 . S
H627 C635 0.930 . S
H628 C638 0.930 . S
H629 C639 0.930 . S
C630 H624 0.930 . S
C630 C631 1.355 . S
C630 C632 1.415 . S
C631 C630 1.355 . S
C631 C633 1.419 . S
C632 C630 1.415 . S
C632 C637 1.425 . S
C632 C639 1.409 . S
C633 H625 0.930 . S
C633 C631 1.419 . S
C633 C634 1.362 . S
C634 H626 0.930 . S
C634 C633 1.362 . S
C634 C637 1.409 . S
C635 H627 0.930 . S
C635 C636 1.355 . S
C635 C637 1.415 . S
C636 C635 1.355 . S
C636 C638 1.419 . S
C637 C632 1.425 . S
C637 C634 1.409 . S
C637 C635 1.415 . S
C638 H628 0.930 . S
C638 C636 1.419 . S
C638 C639 1.362 . S
C639 H629 0.930 . S
C639 C632 1.409 . S
C639 C638 1.362 . S
H640 C646 0.930 1_565 S
H641 C649 0.930 . S
H642 C650 0.930 . S
H643 C651 0.930 1_545 S
H644 C654 0.930 . S
H645 C655 0.930 . S
C646 H640 0.930 1_545 S
C646 C647 1.355 . S
C646 C648 1.415 1_545 S
C647 C646 1.355 . S
C647 C649 1.419 . S
C648 C646 1.415 1_565 S
C648 C653 1.425 1_566 S
C648 C655 1.409 . S
C649 H641 0.930 . S
C649 C647 1.419 . S
C649 C650 1.362 1_556 S
C650 H642 0.930 . S
C650 C649 1.362 1_554 S
C650 C653 1.409 . S
C651 H643 0.930 1_565 S
C651 C652 1.355 . S
C651 C653 1.415 1_565 S
C652 C651 1.355 . S
C652 C654 1.419 . S
C653 C648 1.425 1_544 S
C653 C650 1.409 . S
C653 C651 1.415 1_545 S
C654 H644 0.930 . S
C654 C652 1.419 . S
C654 C655 1.362 1_554 S
C655 H645 0.930 . S
C655 C648 1.409 . S
C655 C654 1.362 1_556 S
H656 C662 0.930 . S
H657 C665 0.930 . S
H658 C666 0.930 . S
H659 C667 0.930 . S
H660 C670 0.930 . S
H661 C671 0.930 . S
C662 H656 0.930 . S
C662 C663 1.355 . S
C662 C664 1.415 . S
C663 C662 1.355 . S
C663 C665 1.419 . S
C664 C662 1.415 . S
C664 C669 1.425 . S
C664 C671 1.409 . S
C665 H657 0.930 . S
C665 C663 1.419 . S
C665 C666 1.362 . S
C666 H658 0.930 . S
C666 C665 1.362 . S
C666 C669 1.409 . S
C667 H659 0.930 . S
C667 C668 1.355 . S
C667 C669 1.415 . S
C668 C667 1.355 . S
C668 C670 1.419 . S
C669 C664 1.425 . S
C669 C666 1.409 . S
C669 C667 1.415 . S
C670 H660 0.930 . S
C670 C668 1.419 . S
C670 C671 1.362 . S
C671 H661 0.930 . S
C671 C664 1.409 . S
C671 C670 1.362 . S
H672 C678 0.930 . S
H673 C681 0.930 . S
H674 C682 0.930 . S
H675 C683 0.930 . S
H676 C686 0.930 . S
H677 C687 0.930 . S
C678 H672 0.930 . S
C678 C679 1.355 . S
C678 C680 1.415 . S
C679 C678 1.355 . S
C679 C681 1.419 . S
C680 C678 1.415 . S
C680 C685 1.425 1_545 S
C680 C687 1.409 . S
C681 H673 0.930 . S
C681 C679 1.419 . S
C681 C682 1.362 1_545 S
C682 H674 0.930 . S
C682 C681 1.362 1_565 S
C682 C685 1.409 . S
C683 H675 0.930 . S
C683 C684 1.355 . S
C683 C685 1.415 . S
C684 C683 1.355 . S
C684 C686 1.419 . S
C685 C680 1.425 1_565 S
C685 C682 1.409 . S
C685 C683 1.415 . S
C686 H676 0.930 . S
C686 C684 1.419 . S
C686 C687 1.362 1_565 S
C687 H677 0.930 . S
C687 C680 1.409 . S
C687 C686 1.362 1_545 S
H688 C694 0.930 . S
H689 C697 0.930 . S
H690 C698 0.930 . S
H691 C699 0.930 . S
H692 C702 0.930 . S
H693 C703 0.930 . S
C694 H688 0.930 . S
C694 C695 1.355 . S
C694 C696 1.415 . S
C695 C694 1.355 . S
C695 C697 1.419 . S
C696 C694 1.415 . S
C696 C701 1.425 . S
C696 C703 1.409 . S
C697 H689 0.930 . S
C697 C695 1.419 . S
C697 C698 1.362 . S
C698 H690 0.930 . S
C698 C697 1.362 . S
C698 C701 1.409 . S
C699 H691 0.930 . S
C699 C700 1.355 . S
C699 C701 1.415 . S
C700 C699 1.355 . S
C700 C702 1.419 . S
C701 C696 1.425 . S
C701 C698 1.409 . S
C701 C699 1.415 . S
C702 H692 0.930 . S
C702 C700 1.419 . S
C702 C703 1.362 . S
C703 H693 0.930 . S
C703 C696 1.409 . S
C703 C702 1.362 . S
H704 C710 0.930 1_545 S
H705 C713 0.930 . S
H706 C714 0.930 . S
H707 C715 0.930 1_565 S
H708 C718 0.930 . S
H709 C719 0.930 . S
C710 H704 0.930 1_565 S
C710 C711 1.355 . S
C710 C712 1.415 1_565 S
C711 C710 1.355 . S
C711 C713 1.419 . S
C712 C710 1.415 1_545 S
C712 C717 1.425 1_544 S
C712 C719 1.409 . S
C713 H705 0.930 . S
C713 C711 1.419 . S
C713 C714 1.362 1_554 S
C714 H706 0.930 . S
C714 C713 1.362 1_556 S
C714 C717 1.409 . S
C715 H707 0.930 1_545 S
C715 C716 1.355 . S
C715 C717 1.415 1_545 S
C716 C715 1.355 . S
C716 C718 1.419 . S
C717 C712 1.425 1_566 S
C717 C714 1.409 . S
C717 C715 1.415 1_565 S
C718 H708 0.930 . S
C718 C716 1.419 . S
C718 C719 1.362 1_556 S
C719 H709 0.930 . S
C719 C712 1.409 . S
C719 C718 1.362 1_554 S
H720 C726 0.930 . S
H721 C729 0.930 . S
H722 C730 0.930 . S
H723 C731 0.930 . S
H724 C734 0.930 . S
H725 C735 0.930 . S
C726 H720 0.930 . S
C726 C727 1.355 . S
C726 C728 1.415 . S
C727 C726 1.355 . S
C727 C729 1.419 . S
C728 C726 1.415 . S
C728 C733 1.425 . S
C728 C735 1.409 . S
C729 H721 0.930 . S
C729 C727 1.419 . S
C729 C730 1.362 . S
C730 H722 0.930 . S
C730 C729 1.362 . S
C730 C733 1.409 . S
C731 H723 0.930 . S
C731 C732 1.355 . S
C731 C733 1.415 . S
C732 C731 1.355 . S
C732 C734 1.419 . S
C733 C728 1.425 . S
C733 C730 1.409 . S
C733 C731 1.415 . S
C734 H724 0.930 . S
C734 C732 1.419 . S
C734 C735 1.362 . S
C735 H725 0.930 . S
C735 C728 1.409 . S
C735 C734 1.362 . S
C231 C162 1.279 . S
C236 C13 1.355 . S
C247 C223 1.406 . S
C252 C22 1.343 . S
C263 C41 1.289 . S
C268 C139 1.181 . S
C279 C195 1.265 . S
C284 C55 1.180 . S
C295 C69 1.392 . S
C300 C190 1.433 . S
C311 C78 1.435 . S
C316 C167 1.391 . S
C327 C92 1.477 . S
C332 C218 1.458 . S
C343 C111 1.324 . S
C348 C134 1.394 . S
C359 C50 1.289 . S
C364 C125 1.344 . S
C375 C148 1.420 . S
C380 C27 1.367 . S
C391 C181 1.272 . S
C396 C83 1.244 . S
C407 C204 1.519 . S
C412 C106 1.450 . S
C423 C64 1.373 . S
C428 C120 1.469 . S
C439 C153 1.320 . S
C444 C97 1.227 . S
C455 C209 1.483 . S
C460 C36 1.409 . S
C471 C8 1.367 . S
C476 C176 1.442 . S
C487 C7 1.244 . S
C492 C63 1.228 . S
C503 C25 1.125 . S
C508 C81 1.109 . S
C519 C35 1.240 . S
C524 C95 1.291 . S
C535 C105 1.315 . S
C540 C49 1.315 . S
C551 C119 1.238 . S
C556 C175 1.225 . S
C567 C189 1.226 . S
C572 C137 1.228 . S
C583 C151 1.165 . S
C588 C207 1.170 . S
C599 C217 1.327 . S
C604 C161 1.304 . S
C615 C109 1.251 . S
C620 C21 1.226 . S
C631 C39 1.199 . S
C636 C67 1.201 . S
C647 C53 1.276 . S
C652 C77 1.228 . S
C663 C11 1.170 . S
C668 C91 1.162 . S
C679 C133 1.236 . S
C684 C221 1.240 . S
C695 C179 1.325 . S
C700 C147 1.277 . S
C711 C165 1.166 . S
C716 C193 1.175 . S
C727 C203 1.141 . S
C732 C123 1.188 . S
