# Generated by pormake.
# Topology pcl, (4)-cn, num edge types: 1
# Building blocks:
#     Node 0, Type 0, BuildingBlock: UXUYUI_clean_sbu_0, # of connection points: 4
#     Node 1, Type 0, BuildingBlock: UXUYUI_clean_sbu_0, # of connection points: 4
#     Node 2, Type 0, BuildingBlock: UXUYUI_clean_sbu_0, # of connection points: 4
#     Node 3, Type 0, BuildingBlock: UXUYUI_clean_sbu_0, # of connection points: 4
#     Node 4, Type 0, BuildingBlock: UXUYUI_clean_sbu_0, # of connection points: 4
#     Node 5, Type 0, BuildingBlock: UXUYUI_clean_sbu_0, # of connection points: 4
#     Node 6, Type 0, BuildingBlock: UXUYUI_clean_sbu_0, # of connection points: 4
#     Node 7, Type 0, BuildingBlock: UXUYUI_clean_sbu_0, # of connection points: 4
#     Node 8, Type 0, BuildingBlock: UXUYUI_clean_sbu_0, # of connection points: 4
#     Node 9, Type 0, BuildingBlock: UXUYUI_clean_sbu_0, # of connection points: 4
#     Node 10, Type 0, BuildingBlock: UXUYUI_clean_sbu_0, # of connection points: 4
#     Node 11, Type 0, BuildingBlock: UXUYUI_clean_sbu_0, # of connection points: 4
#     Node 12, Type 0, BuildingBlock: UXUYUI_clean_sbu_0, # of connection points: 4
#     Node 13, Type 0, BuildingBlock: UXUYUI_clean_sbu_0, # of connection points: 4
#     Node 14, Type 0, BuildingBlock: UXUYUI_clean_sbu_0, # of connection points: 4
#     Node 15, Type 0, BuildingBlock: UXUYUI_clean_sbu_0, # of connection points: 4
#     Edge 16, Type (0, 0), BuildingBlock: TEMPAE_clean_linker_10, # of connection points: 2
#     Edge 17, Type (0, 0), BuildingBlock: TEMPAE_clean_linker_10, # of connection points: 2
#     Edge 18, Type (0, 0), BuildingBlock: TEMPAE_clean_linker_10, # of connection points: 2
#     Edge 19, Type (0, 0), BuildingBlock: TEMPAE_clean_linker_10, # of connection points: 2
#     Edge 20, Type (0, 0), BuildingBlock: TEMPAE_clean_linker_10, # of connection points: 2
#     Edge 21, Type (0, 0), BuildingBlock: TEMPAE_clean_linker_10, # of connection points: 2
#     Edge 22, Type (0, 0), BuildingBlock: TEMPAE_clean_linker_10, # of connection points: 2
#     Edge 23, Type (0, 0), BuildingBlock: TEMPAE_clean_linker_10, # of connection points: 2
#     Edge 24, Type (0, 0), BuildingBlock: TEMPAE_clean_linker_10, # of connection points: 2
#     Edge 25, Type (0, 0), BuildingBlock: TEMPAE_clean_linker_10, # of connection points: 2
#     Edge 26, Type (0, 0), BuildingBlock: TEMPAE_clean_linker_10, # of connection points: 2
#     Edge 27, Type (0, 0), BuildingBlock: TEMPAE_clean_linker_10, # of connection points: 2
#     Edge 28, Type (0, 0), BuildingBlock: TEMPAE_clean_linker_10, # of connection points: 2
#     Edge 29, Type (0, 0), BuildingBlock: TEMPAE_clean_linker_10, # of connection points: 2
#     Edge 30, Type (0, 0), BuildingBlock: TEMPAE_clean_linker_10, # of connection points: 2
#     Edge 31, Type (0, 0), BuildingBlock: TEMPAE_clean_linker_10, # of connection points: 2
#     Edge 32, Type (0, 0), BuildingBlock: TEMPAE_clean_linker_10, # of connection points: 2
#     Edge 33, Type (0, 0), BuildingBlock: TEMPAE_clean_linker_10, # of connection points: 2
#     Edge 34, Type (0, 0), BuildingBlock: TEMPAE_clean_linker_10, # of connection points: 2
#     Edge 35, Type (0, 0), BuildingBlock: TEMPAE_clean_linker_10, # of connection points: 2
#     Edge 36, Type (0, 0), BuildingBlock: TEMPAE_clean_linker_10, # of connection points: 2
#     Edge 37, Type (0, 0), BuildingBlock: TEMPAE_clean_linker_10, # of connection points: 2
#     Edge 38, Type (0, 0), BuildingBlock: TEMPAE_clean_linker_10, # of connection points: 2
#     Edge 39, Type (0, 0), BuildingBlock: TEMPAE_clean_linker_10, # of connection points: 2
#     Edge 40, Type (0, 0), BuildingBlock: TEMPAE_clean_linker_10, # of connection points: 2
#     Edge 41, Type (0, 0), BuildingBlock: TEMPAE_clean_linker_10, # of connection points: 2
#     Edge 42, Type (0, 0), BuildingBlock: TEMPAE_clean_linker_10, # of connection points: 2
#     Edge 43, Type (0, 0), BuildingBlock: TEMPAE_clean_linker_10, # of connection points: 2
#     Edge 44, Type (0, 0), BuildingBlock: TEMPAE_clean_linker_10, # of connection points: 2
#     Edge 45, Type (0, 0), BuildingBlock: TEMPAE_clean_linker_10, # of connection points: 2
#     Edge 46, Type (0, 0), BuildingBlock: TEMPAE_clean_linker_10, # of connection points: 2
#     Edge 47, Type (0, 0), BuildingBlock: TEMPAE_clean_linker_10, # of connection points: 2
# Relax obj value: 0.133
# Max RMSD: 0.100
# Mean RMSD: 0.099
data_MOF--net-pcl--node1-UXUYUI_clean_sbu_0--edge1-TEMPAE_clean_linker_10
_symmetry_space_group_name_H-M    P1
_symmetry_Int_Tables_number       1
_symmetry_cell_setting            triclinic
loop_
_symmetry_equiv_pos_as_xyz
'x, y, z'
_cell_length_a     63.6582
_cell_length_b     74.020814
_cell_length_c     65.421791
_cell_angle_alpha  90.007082
_cell_angle_beta   89.999332
_cell_angle_gamma 90.005108
loop_
_atom_site_label
_atom_site_type_symbol
_atom_site_fract_x
_atom_site_fract_y
_atom_site_fract_z
_atom_type_partial_charge
Li0 Li 0.18243 0.36874 0.10154 0.0
Li1 Li 0.18863 0.35251 0.07002 0.0
Li2 Li 0.18289 0.38556 0.06964 0.0
Li3 Li 0.15361 0.36475 0.07672 0.0
C4 C 0.22438 0.36411 0.09036 0.0
N5 N 0.2601 0.34824 0.10626 0.0
C6 C 0.22285 0.34828 0.10191 0.0
C7 C 0.24407 0.37188 0.08692 0.0
C8 C 0.24109 0.34046 0.10981 0.0
C9 C 0.26194 0.36365 0.09508 0.0
C10 C 0.16227 0.32863 0.09327 0.0
C11 C 0.14341 0.30351 0.07866 0.0
N12 N 0.14897 0.29313 0.09494 0.0
C13 C 0.16766 0.31777 0.10995 0.0
C14 C 0.14994 0.3215 0.07757 0.0
C15 C 0.16085 0.29984 0.11047 0.0
C16 C 0.17374 0.36116 0.14225 0.0
N17 N 0.18784 0.36969 0.13003 0.0
C18 C 0.20764 0.37934 0.15909 0.0
C19 C 0.20462 0.37866 0.13794 0.0
C20 C 0.19325 0.37069 0.17214 0.0
C21 C 0.17619 0.36142 0.16342 0.0
H22 H 0.16051 0.3542 0.13549 0.0
H23 H 0.21553 0.38544 0.12785 0.0
C24 C 0.21152 0.33692 0.03797 0.0
N25 N 0.20358 0.33347 0.05685 0.0
C26 C 0.22181 0.32336 0.02702 0.0
C27 C 0.21598 0.30303 0.05535 0.0
C28 C 0.20596 0.31702 0.06579 0.0
C29 C 0.22394 0.30604 0.0356 0.0
H30 H 0.20964 0.35021 0.03132 0.0
H31 H 0.19999 0.31465 0.08097 0.0
C32 C 0.16365 0.40239 0.10321 0.0
N33 N 0.1677 0.43345 0.12628 0.0
C34 C 0.14598 0.41024 0.11224 0.0
C35 C 0.18338 0.41033 0.10591 0.0
C36 C 0.14835 0.42595 0.12385 0.0
C37 C 0.1851 0.42603 0.11763 0.0
C38 C 0.16239 0.36376 0.0329 0.0
C39 C 0.15679 0.37823 0.02029 0.0
C40 C 0.15968 0.34606 0.02593 0.0
C41 C 0.14815 0.37473 0.00106 0.0
C42 C 0.15101 0.34313 0.00659 0.0
N43 N 0.14545 0.3574 0.99467 0.0
C44 C 0.20826 0.41187 0.04937 0.0
C45 C 0.17241 0.41938 0.0544 0.0
C46 C 0.21182 0.42837 0.03953 0.0
N47 N 0.18878 0.40777 0.05651 0.0
C48 C 0.17526 0.43598 0.04476 0.0
C49 C 0.19517 0.44068 0.03717 0.0
H50 H 0.22097 0.40232 0.05127 0.0
H51 H 0.15706 0.41563 0.06007 0.0
C52 C 0.11379 0.35378 0.09014 0.0
N53 N 0.12407 0.36159 0.07423 0.0
C54 C 0.09198 0.35188 0.08968 0.0
C55 C 0.09172 0.36614 0.05645 0.0
C56 C 0.11353 0.36782 0.0576 0.0
C57 C 0.08062 0.3582 0.0727 0.0
H58 H 0.12255 0.34927 0.10337 0.0
H59 H 0.12194 0.37437 0.04537 0.0
O60 O 0.20678 0.37207 0.08243 0.0
O61 O 0.16887 0.34621 0.09259 0.0
O62 O 0.16154 0.38697 0.09187 0.0
O63 O 0.17103 0.367 0.0517 0.0
H64 H 0.20778 0.34211 0.10483 0.0
H65 H 0.2455 0.38415 0.07803 0.0
H66 H 0.24013 0.32821 0.11878 0.0
H67 H 0.27729 0.36952 0.09254 0.0
H68 H 0.13386 0.29781 0.06659 0.0
H69 H 0.17716 0.32311 0.12228 0.0
H70 H 0.14526 0.3298 0.06479 0.0
H71 H 0.165 0.29125 0.12323 0.0
H72 H 0.22087 0.38682 0.16515 0.0
H73 H 0.16489 0.35434 0.17284 0.0
H74 H 0.22804 0.32642 0.01201 0.0
H75 H 0.21706 0.2899 0.06256 0.0
H76 H 0.1306 0.40423 0.1103 0.0
H77 H 0.19724 0.40443 0.09906 0.0
H78 H 0.13481 0.43218 0.13094 0.0
H79 H 0.20027 0.43231 0.11986 0.0
H80 H 0.15895 0.39201 0.02535 0.0
H81 H 0.16441 0.3347 0.0352 0.0
H82 H 0.14362 0.3858 0.9912 0.0
H83 H 0.1488 0.3295 0.00103 0.0
H84 H 0.22742 0.43153 0.03398 0.0
H85 H 0.16191 0.4449 0.04295 0.0
H86 H 0.08406 0.34598 0.10272 0.0
H87 H 0.08364 0.37109 0.043 0.0
Li88 Li 0.81596 0.63349 0.60315 0.0
Li89 Li 0.81261 0.649 0.57144 0.0
Li90 Li 0.81669 0.61619 0.57142 0.0
Li91 Li 0.847 0.6374 0.58125 0.0
C92 C 0.77474 0.63805 0.58933 0.0
N93 N 0.73779 0.65357 0.60281 0.0
C94 C 0.77511 0.65472 0.59934 0.0
C95 C 0.75559 0.62928 0.58614 0.0
C96 C 0.75627 0.66235 0.60605 0.0
C97 C 0.73707 0.63734 0.59309 0.0
C98 C 0.83689 0.67277 0.59986 0.0
C99 C 0.85922 0.6985 0.59347 0.0
N100 N 0.85004 0.70737 0.60933 0.0
C101 C 0.82772 0.68215 0.61615 0.0
C102 C 0.8528 0.681 0.58845 0.0
C103 C 0.83456 0.69963 0.62067 0.0
C104 C 0.82238 0.64127 0.64414 0.0
N105 N 0.80863 0.63297 0.63134 0.0
C106 C 0.78717 0.62396 0.65955 0.0
C107 C 0.79125 0.62437 0.63854 0.0
C108 C 0.80102 0.63265 0.67308 0.0
C109 C 0.81879 0.64139 0.66514 0.0
H110 H 0.83632 0.6476 0.63801 0.0
H111 H 0.78075 0.61764 0.62802 0.0
C112 C 0.78631 0.66383 0.54087 0.0
N113 N 0.79851 0.66826 0.5572 0.0
C114 C 0.77639 0.67731 0.52944 0.0
C115 C 0.79071 0.69959 0.55253 0.0
C116 C 0.80059 0.68574 0.56329 0.0
C117 C 0.7786 0.69546 0.53526 0.0
H118 H 0.78441 0.64981 0.53664 0.0
H119 H 0.80987 0.6891 0.57647 0.0
C120 C 0.83706 0.60429 0.61188 0.0
N121 N 0.83633 0.58427 0.6475 0.0
C122 C 0.8529 0.60646 0.62645 0.0
C123 C 0.82091 0.59187 0.61534 0.0
C124 C 0.85223 0.59623 0.64439 0.0
C125 C 0.82081 0.58188 0.63346 0.0
C126 C 0.83131 0.64167 0.5355 0.0
C127 C 0.82065 0.63273 0.51979 0.0
C128 C 0.84073 0.65838 0.53164 0.0
C129 C 0.81929 0.64083 0.50055 0.0
C130 C 0.83898 0.66605 0.51221 0.0
N131 N 0.82837 0.6572 0.4972 0.0
C132 C 0.7937 0.59182 0.54616 0.0
C133 C 0.82445 0.58009 0.56169 0.0
C134 C 0.79026 0.57545 0.536 0.0
N135 N 0.81071 0.59384 0.55851 0.0
C136 C 0.82148 0.56347 0.55208 0.0
C137 C 0.80437 0.56101 0.53876 0.0
H138 H 0.78307 0.60304 0.54389 0.0
H139 H 0.83783 0.58209 0.57162 0.0
C140 C 0.88678 0.64431 0.59821 0.0
N141 N 0.87645 0.64051 0.58055 0.0
C142 C 0.90861 0.64609 0.59823 0.0
C143 C 0.90862 0.64055 0.56178 0.0
C144 C 0.88681 0.6387 0.5625 0.0
C145 C 0.91979 0.64411 0.57985 0.0
H146 H 0.87803 0.64589 0.61227 0.0
H147 H 0.87813 0.63565 0.54872 0.0
O148 O 0.79296 0.63026 0.58263 0.0
O149 O 0.83033 0.65563 0.59524 0.0
O150 O 0.83699 0.61463 0.59456 0.0
O151 O 0.83254 0.63406 0.55452 0.0
H152 H 0.78976 0.66171 0.60191 0.0
H153 H 0.75506 0.61636 0.5784 0.0
H154 H 0.75633 0.67525 0.61382 0.0
H155 H 0.72213 0.63069 0.59074 0.0
H156 H 0.87151 0.70501 0.58475 0.0
H157 H 0.81533 0.67606 0.62513 0.0
H158 H 0.86016 0.674 0.57588 0.0
H159 H 0.82756 0.70704 0.63318 0.0
H160 H 0.77334 0.61703 0.66515 0.0
H161 H 0.83006 0.64792 0.67511 0.0
H162 H 0.76693 0.67359 0.51633 0.0
H163 H 0.79282 0.71344 0.55748 0.0
H164 H 0.86547 0.61605 0.62403 0.0
H165 H 0.8084 0.59017 0.60429 0.0
H166 H 0.86433 0.59783 0.65586 0.0
H167 H 0.80833 0.57231 0.63642 0.0
H168 H 0.81341 0.61974 0.52246 0.0
H169 H 0.84913 0.66543 0.54356 0.0
H170 H 0.81098 0.63412 0.48828 0.0
H171 H 0.84604 0.67905 0.50907 0.0
H172 H 0.777 0.57428 0.52572 0.0
H173 H 0.83254 0.55267 0.55506 0.0
H174 H 0.91666 0.64903 0.61243 0.0
H175 H 0.91671 0.63877 0.54736 0.0
Li176 Li 0.18131 0.61461 0.93001 0.0
Li177 Li 0.15187 0.63499 0.9228 0.0
Li178 Li 0.18277 0.63195 0.8985 0.0
Li179 Li 0.18661 0.64812 0.93112 0.0
C180 C 0.15737 0.59593 0.90369 0.0
N181 N 0.14975 0.5595 0.89835 0.0
C182 C 0.13906 0.58816 0.91152 0.0
C183 C 0.17165 0.58525 0.89287 0.0
C184 C 0.13553 0.56969 0.90874 0.0
C185 C 0.16755 0.56684 0.89041 0.0
C186 C 0.15688 0.63892 0.96483 0.0
C187 C 0.13903 0.66321 0.98219 0.0
N188 N 0.13379 0.65168 0.99755 0.0
C189 C 0.15146 0.62733 0.98085 0.0
C190 C 0.15073 0.65702 0.96554 0.0
C191 C 0.13973 0.63403 0.99723 0.0
C192 C 0.20669 0.58464 0.94269 0.0
N193 N 0.18719 0.59214 0.94279 0.0
C194 C 0.1734 0.56704 0.96137 0.0
C195 C 0.17074 0.58382 0.95208 0.0
C196 C 0.19327 0.55881 0.96131 0.0
C197 C 0.21011 0.56787 0.95196 0.0
H198 H 0.21956 0.59166 0.93543 0.0
H199 H 0.15548 0.59024 0.95218 0.0
C200 C 0.11214 0.64754 0.91006 0.0
N201 N 0.12226 0.6377 0.92458 0.0
C202 C 0.09028 0.64915 0.91051 0.0
C203 C 0.08972 0.63052 0.94087 0.0
C204 C 0.11155 0.62915 0.93972 0.0
C205 C 0.07881 0.64054 0.92606 0.0
H206 H 0.12104 0.65396 0.898 0.0
H207 H 0.11991 0.62094 0.95069 0.0
C208 C 0.22406 0.62791 0.90949 0.0
N209 N 0.26188 0.62562 0.88892 0.0
C210 C 0.23812 0.64241 0.90985 0.0
C211 C 0.22933 0.61217 0.89885 0.0
C212 C 0.25714 0.64101 0.89932 0.0
C213 C 0.24849 0.61131 0.88848 0.0
C214 C 0.16635 0.67177 0.9026 0.0
C215 C 0.17934 0.67877 0.8873 0.0
C216 C 0.15163 0.68302 0.91207 0.0
C217 C 0.17774 0.69701 0.88207 0.0
C218 C 0.15051 0.70119 0.90642 0.0
N219 N 0.1635 0.70776 0.89168 0.0
C220 C 0.17402 0.6242 0.85794 0.0
C221 C 0.20705 0.63859 0.86176 0.0
C222 C 0.1764 0.62383 0.83676 0.0
N223 N 0.18922 0.63149 0.86998 0.0
C224 C 0.21019 0.63832 0.84061 0.0
C225 C 0.19463 0.63101 0.82785 0.0
H226 H 0.15987 0.61888 0.86481 0.0
H227 H 0.21862 0.64487 0.87148 0.0
C228 C 0.20222 0.66622 0.96589 0.0
N229 N 0.20024 0.66747 0.94524 0.0
C230 C 0.2112 0.68032 0.97705 0.0
C231 C 0.21686 0.69644 0.94541 0.0
C232 C 0.20768 0.68205 0.93489 0.0
C233 C 0.21851 0.69576 0.96681 0.0
H234 H 0.19673 0.65427 0.97376 0.0
H235 H 0.20662 0.68252 0.91846 0.0
O236 O 0.16128 0.61392 0.90656 0.0
O237 O 0.16811 0.63252 0.94853 0.0
O238 O 0.2054 0.62904 0.91976 0.0
O239 O 0.16758 0.65389 0.90778 0.0
H240 H 0.1278 0.59627 0.91984 0.0
H241 H 0.18572 0.59112 0.88643 0.0
H242 H 0.1215 0.56346 0.91486 0.0
H243 H 0.17852 0.55838 0.88216 0.0
H244 H 0.13416 0.6772 0.98292 0.0
H245 H 0.1562 0.6133 0.9806 0.0
H246 H 0.15509 0.6662 0.95345 0.0
H247 H 0.13534 0.62519 0.00969 0.0
H248 H 0.16008 0.56068 0.96875 0.0
H249 H 0.22567 0.56196 0.95157 0.0
H250 H 0.08243 0.65703 0.89884 0.0
H251 H 0.08142 0.6234 0.95287 0.0
H252 H 0.23438 0.65463 0.91814 0.0
H253 H 0.21873 0.60078 0.89855 0.0
H254 H 0.26814 0.65215 0.89941 0.0
H255 H 0.25272 0.59925 0.8801 0.0
H256 H 0.19072 0.67026 0.87973 0.0
H257 H 0.14103 0.67777 0.92354 0.0
H258 H 0.18784 0.70263 0.87039 0.0
H259 H 0.13925 0.71005 0.91368 0.0
H260 H 0.16409 0.61799 0.82743 0.0
H261 H 0.22433 0.64421 0.83426 0.0
H262 H 0.21256 0.67909 0.99349 0.0
H263 H 0.2223 0.70809 0.93691 0.0
Li264 Li 0.81475 0.38785 0.43084 0.0
Li265 Li 0.84585 0.36727 0.42278 0.0
Li266 Li 0.81576 0.36982 0.39965 0.0
Li267 Li 0.81143 0.3536 0.43142 0.0
C268 C 0.83728 0.39885 0.39067 0.0
N269 N 0.83952 0.41685 0.35376 0.0
C270 C 0.85475 0.39659 0.37801 0.0
C271 C 0.821 0.41036 0.38465 0.0
C272 C 0.85558 0.40579 0.35938 0.0
C273 C 0.82242 0.41931 0.36591 0.0
C274 C 0.83869 0.36327 0.46599 0.0
C275 C 0.85547 0.33912 0.48454 0.0
N276 N 0.85795 0.35032 0.50085 0.0
C277 C 0.84132 0.37453 0.48293 0.0
C278 C 0.84576 0.34542 0.46677 0.0
C279 C 0.85114 0.36774 0.50042 0.0
C280 C 0.79272 0.41047 0.45872 0.0
N281 N 0.80742 0.40993 0.44366 0.0
C282 C 0.81421 0.44149 0.44743 0.0
C283 C 0.81812 0.42498 0.43791 0.0
C284 C 0.79932 0.44249 0.46322 0.0
C285 C 0.78843 0.42672 0.46883 0.0
H286 H 0.78458 0.39823 0.46307 0.0
H287 H 0.83002 0.42409 0.42616 0.0
C288 C 0.88559 0.35821 0.40768 0.0
N289 N 0.87551 0.36487 0.42436 0.0
C290 C 0.90746 0.35685 0.40747 0.0
C291 C 0.90815 0.36889 0.44181 0.0
C292 C 0.88628 0.37026 0.44122 0.0
C293 C 0.91911 0.36227 0.4247 0.0
H294 H 0.8766 0.35423 0.39438 0.0
H295 H 0.87796 0.3758 0.45417 0.0
C296 C 0.77318 0.37004 0.41066 0.0
N297 N 0.73463 0.36579 0.39194 0.0
C298 C 0.76782 0.3535 0.4018 0.0
C299 C 0.75895 0.38441 0.4101 0.0
C300 C 0.74825 0.35163 0.39237 0.0
C301 C 0.73953 0.38199 0.40054 0.0
C302 C 0.83401 0.33067 0.4026 0.0
C303 C 0.82178 0.32304 0.38709 0.0
C304 C 0.84994 0.32047 0.41169 0.0
C305 C 0.82547 0.30519 0.38117 0.0
C306 C 0.85314 0.30266 0.40534 0.0
N307 N 0.84093 0.29544 0.39036 0.0
C308 C 0.82519 0.36262 0.35908 0.0
C309 C 0.79227 0.37722 0.36244 0.0
C310 C 0.82331 0.36253 0.33786 0.0
N311 N 0.80978 0.36981 0.37092 0.0
C312 C 0.78962 0.37724 0.34122 0.0
C313 C 0.8053 0.36984 0.3286 0.0
H314 H 0.8392 0.35724 0.36619 0.0
H315 H 0.78052 0.38343 0.37201 0.0
C316 C 0.79357 0.336 0.4657 0.0
N317 N 0.79818 0.33395 0.44552 0.0
C318 C 0.78454 0.32182 0.47674 0.0
C319 C 0.7846 0.30382 0.44595 0.0
C320 C 0.79362 0.31833 0.43554 0.0
C321 C 0.78002 0.3054 0.46687 0.0
H322 H 0.797 0.34866 0.47325 0.0
H323 H 0.79695 0.31703 0.41948 0.0
O324 O 0.83583 0.38951 0.40864 0.0
O325 O 0.82924 0.36977 0.44873 0.0
O326 O 0.79228 0.37226 0.41981 0.0
O327 O 0.83079 0.34821 0.40843 0.0
H328 H 0.86744 0.38769 0.38244 0.0
H329 H 0.80726 0.4121 0.39421 0.0
H330 H 0.86895 0.40409 0.34936 0.0
H331 H 0.80987 0.42815 0.36097 0.0
H332 H 0.86101 0.32533 0.48537 0.0
H333 H 0.83589 0.38839 0.48253 0.0
H334 H 0.84363 0.33651 0.45386 0.0
H335 H 0.85334 0.37631 0.51364 0.0
H336 H 0.82323 0.45323 0.44291 0.0
H337 H 0.77682 0.42695 0.48092 0.0
H338 H 0.91514 0.35199 0.39377 0.0
H339 H 0.91634 0.37301 0.45554 0.0
H340 H 0.77874 0.34233 0.402 0.0
H341 H 0.76293 0.3973 0.4169 0.0
H342 H 0.74391 0.33893 0.38536 0.0
H343 H 0.72836 0.39299 0.39993 0.0
H344 H 0.8094 0.33074 0.37985 0.0
H345 H 0.85984 0.32625 0.42342 0.0
H346 H 0.81603 0.29907 0.36929 0.0
H347 H 0.86538 0.29459 0.41228 0.0
H348 H 0.83609 0.35712 0.32882 0.0
H349 H 0.77544 0.383 0.33482 0.0
H350 H 0.78096 0.32375 0.49278 0.0
H351 H 0.78155 0.2914 0.43772 0.0
Li352 Li 0.81251 0.64637 0.93052 0.0
Li353 Li 0.81776 0.61426 0.92995 0.0
Li354 Li 0.84721 0.63349 0.92199 0.0
Li355 Li 0.8171 0.62896 0.89698 0.0
C356 C 0.83785 0.64128 0.96491 0.0
N357 N 0.85011 0.66061 0.99901 0.0
C358 C 0.83165 0.63566 0.98439 0.0
C359 C 0.85037 0.65666 0.96278 0.0
C360 C 0.83797 0.64564 0.00144 0.0
C361 C 0.8564 0.66626 0.9802 0.0
C362 C 0.77571 0.62088 0.92452 0.0
C363 C 0.74257 0.60599 0.91869 0.0
N364 N 0.73877 0.60622 0.93915 0.0
C365 C 0.77147 0.62103 0.94547 0.0
C366 C 0.76118 0.61334 0.91098 0.0
C367 C 0.75271 0.61352 0.95258 0.0
C368 C 0.79487 0.68131 0.93075 0.0
N369 N 0.7986 0.66653 0.94254 0.0
C370 C 0.78336 0.68108 0.97158 0.0
C371 C 0.79282 0.66607 0.96253 0.0
C372 C 0.77971 0.6967 0.95992 0.0
C373 C 0.78548 0.69665 0.93918 0.0
H374 H 0.7993 0.68121 0.91479 0.0
H375 H 0.79565 0.65411 0.97155 0.0
C376 C 0.82357 0.58822 0.96013 0.0
N377 N 0.81122 0.59218 0.9438 0.0
C378 C 0.82098 0.57201 0.97067 0.0
C379 C 0.79289 0.56416 0.94746 0.0
C380 C 0.79612 0.58052 0.93728 0.0
C381 C 0.80548 0.55969 0.96438 0.0
H382 H 0.83584 0.5975 0.96465 0.0
H383 H 0.78687 0.58371 0.92392 0.0
C384 C 0.84076 0.66613 0.89791 0.0
N385 N 0.86143 0.69493 0.88008 0.0
C386 C 0.84602 0.66562 0.87717 0.0
C387 C 0.84576 0.6814 0.90951 0.0
C388 C 0.85654 0.68029 0.86846 0.0
C389 C 0.85629 0.69579 0.90024 0.0
C390 C 0.84146 0.59333 0.9078 0.0
C391 C 0.8579 0.5863 0.91951 0.0
C392 C 0.82782 0.58159 0.8976 0.0
C393 C 0.86033 0.56759 0.92094 0.0
C394 C 0.8308 0.56296 0.8994 0.0
N395 N 0.84684 0.5564 0.91095 0.0
C396 C 0.88689 0.6296 0.94061 0.0
C397 C 0.88788 0.64448 0.90855 0.0
C398 C 0.90872 0.63077 0.94234 0.0
N399 N 0.87695 0.63645 0.92392 0.0
C400 C 0.90968 0.64616 0.90977 0.0
C401 C 0.92036 0.63916 0.92678 0.0
H402 H 0.87786 0.62302 0.95247 0.0
H403 H 0.8798 0.64927 0.89513 0.0
C404 C 0.79602 0.63952 0.86064 0.0
N405 N 0.81045 0.62807 0.86879 0.0
C406 C 0.7925 0.63971 0.83953 0.0
C407 C 0.8184 0.61605 0.83583 0.0
C408 C 0.82154 0.61644 0.85691 0.0
C409 C 0.80395 0.62798 0.82679 0.0
H410 H 0.78764 0.6488 0.87048 0.0
H411 H 0.83316 0.60769 0.86377 0.0
O412 O 0.83157 0.63173 0.94808 0.0
O413 O 0.79404 0.628 0.91726 0.0
O414 O 0.83033 0.65192 0.90663 0.0
O415 O 0.83844 0.61159 0.90672 0.0
H416 H 0.82186 0.62382 0.9863 0.0
H417 H 0.85549 0.66107 0.94786 0.0
H418 H 0.8332 0.6415 0.0166 0.0
H419 H 0.8661 0.67819 0.97876 0.0
H420 H 0.73118 0.60007 0.90841 0.0
H421 H 0.78272 0.62659 0.95614 0.0
H422 H 0.76429 0.61312 0.89471 0.0
H423 H 0.74926 0.61344 0.96877 0.0
H424 H 0.77932 0.68057 0.98765 0.0
H425 H 0.78266 0.70831 0.92956 0.0
H426 H 0.83141 0.56897 0.98328 0.0
H427 H 0.78072 0.55511 0.9421 0.0
H428 H 0.84222 0.65395 0.86793 0.0
H429 H 0.84142 0.68224 0.92545 0.0
H430 H 0.86083 0.68003 0.85246 0.0
H431 H 0.8603 0.70766 0.90905 0.0
H432 H 0.86852 0.5952 0.92758 0.0
H433 H 0.81484 0.58681 0.88869 0.0
H434 H 0.87291 0.56195 0.93005 0.0
H435 H 0.82027 0.55371 0.89171 0.0
H436 H 0.91642 0.6252 0.95569 0.0
H437 H 0.91816 0.65242 0.89729 0.0
H438 H 0.78143 0.64932 0.83323 0.0
H439 H 0.82735 0.60658 0.82671 0.0
Li440 Li 0.18125 0.38487 0.42897 0.0
Li441 Li 0.18468 0.35286 0.42866 0.0
Li442 Li 0.18223 0.37055 0.39548 0.0
Li443 Li 0.15152 0.3662 0.4193 0.0
C444 C 0.22257 0.38048 0.41937 0.0
N445 N 0.25896 0.40024 0.42489 0.0
C446 C 0.23107 0.38256 0.43893 0.0
C447 C 0.23261 0.38838 0.4026 0.0
C448 C 0.24946 0.39264 0.44141 0.0
C449 C 0.25099 0.39833 0.40571 0.0
C450 C 0.16748 0.35882 0.46426 0.0
C451 C 0.15866 0.33398 0.48652 0.0
N452 N 0.17203 0.34063 0.50088 0.0
C453 C 0.18108 0.36545 0.47927 0.0
C454 C 0.15609 0.34301 0.46793 0.0
C455 C 0.18317 0.35606 0.49767 0.0
C456 C 0.17487 0.41076 0.45936 0.0
N457 N 0.18742 0.40705 0.44309 0.0
C458 C 0.2048 0.43552 0.44681 0.0
C459 C 0.202 0.41917 0.43651 0.0
C460 C 0.1921 0.4397 0.46375 0.0
C461 C 0.17692 0.42703 0.46992 0.0
H462 H 0.16284 0.40124 0.46383 0.0
H463 H 0.21114 0.41642 0.42299 0.0
C464 C 0.19225 0.31542 0.43386 0.0
N465 N 0.19751 0.33211 0.44086 0.0
C466 C 0.20087 0.29998 0.44283 0.0
C467 C 0.22041 0.31919 0.46585 0.0
C468 C 0.21151 0.33423 0.45636 0.0
C469 C 0.21507 0.30174 0.45915 0.0
H470 H 0.18139 0.31406 0.42128 0.0
H471 H 0.21559 0.34759 0.46158 0.0
C472 C 0.15686 0.40615 0.40717 0.0
N473 N 0.14829 0.44244 0.41239 0.0
C474 C 0.13989 0.41157 0.41925 0.0
C475 C 0.16942 0.41917 0.39765 0.0
C476 C 0.13583 0.42999 0.42172 0.0
C477 C 0.16483 0.43745 0.4005 0.0
C478 C 0.15265 0.33704 0.39504 0.0
C479 C 0.1488 0.33814 0.37404 0.0
C480 C 0.14073 0.32525 0.40706 0.0
C481 C 0.13294 0.32754 0.36544 0.0
C482 C 0.12499 0.3149 0.39789 0.0
N483 N 0.12144 0.31626 0.37745 0.0
C484 C 0.2038 0.35997 0.35957 0.0
C485 C 0.18016 0.38451 0.35575 0.0
C486 C 0.20809 0.36009 0.33861 0.0
N487 N 0.18993 0.372 0.3676 0.0
C488 C 0.18412 0.38522 0.3348 0.0
C489 C 0.19806 0.37277 0.32595 0.0
H490 H 0.21115 0.35006 0.36939 0.0
H491 H 0.16883 0.39361 0.36247 0.0
C492 C 0.11163 0.36388 0.43817 0.0
N493 N 0.12171 0.36411 0.41988 0.0
C494 C 0.08973 0.36289 0.43895 0.0
C495 C 0.08903 0.36231 0.40202 0.0
C496 C 0.1109 0.36364 0.40198 0.0
C497 C 0.07807 0.36201 0.4207 0.0
H498 H 0.12056 0.3648 0.45218 0.0
H499 H 0.11927 0.36434 0.38763 0.0
O500 O 0.20472 0.37053 0.41654 0.0
O501 O 0.16541 0.3677 0.44603 0.0
O502 O 0.16148 0.38821 0.40511 0.0
O503 O 0.168 0.34742 0.40377 0.0
H504 H 0.22335 0.37681 0.45211 0.0
H505 H 0.22626 0.38688 0.38736 0.0
H506 H 0.25613 0.39448 0.45647 0.0
H507 H 0.25891 0.40454 0.39288 0.0
H508 H 0.15003 0.32167 0.48951 0.0
H509 H 0.19017 0.37758 0.47663 0.0
H510 H 0.14548 0.3377 0.45651 0.0
H511 H 0.19373 0.36098 0.50937 0.0
H512 H 0.21673 0.44481 0.44146 0.0
H513 H 0.1663 0.42981 0.48246 0.0
H514 H 0.19659 0.28682 0.43692 0.0
H515 H 0.23108 0.32122 0.47853 0.0
H516 H 0.13012 0.40167 0.42683 0.0
H517 H 0.18279 0.41519 0.38848 0.0
H518 H 0.12282 0.43439 0.43112 0.0
H519 H 0.17451 0.44768 0.39338 0.0
H520 H 0.15786 0.34716 0.36448 0.0
H521 H 0.14351 0.32421 0.42332 0.0
H522 H 0.12973 0.32832 0.34923 0.0
H523 H 0.11557 0.30581 0.40703 0.0
H524 H 0.21897 0.35029 0.33235 0.0
H525 H 0.17577 0.39497 0.32552 0.0
H526 H 0.08206 0.36318 0.45371 0.0
H527 H 0.08085 0.36149 0.38755 0.0
Li528 Li 0.82014 0.3686 0.10382 0.0
Li529 Li 0.8491 0.36354 0.07992 0.0
Li530 Li 0.81903 0.3847 0.07141 0.0
Li531 Li 0.81403 0.35178 0.0709 0.0
C532 C 0.84486 0.39763 0.10934 0.0
N533 N 0.853 0.41979 0.1424 0.0
C534 C 0.86335 0.39547 0.1206 0.0
C535 C 0.83069 0.41124 0.1147 0.0
C536 C 0.86713 0.40676 0.13732 0.0
C537 C 0.83504 0.42226 0.13151 0.0
C538 C 0.84393 0.32981 0.09711 0.0
C539 C 0.86205 0.30414 0.08277 0.0
N540 N 0.86812 0.29908 0.10187 0.0
C541 C 0.85013 0.32422 0.11661 0.0
C542 C 0.84976 0.31959 0.08008 0.0
C543 C 0.86243 0.3087 0.11869 0.0
C544 C 0.79528 0.37381 0.13998 0.0
N545 N 0.8146 0.36982 0.13236 0.0
C546 C 0.82883 0.36752 0.16603 0.0
C547 C 0.83119 0.36661 0.14488 0.0
C548 C 0.80915 0.3718 0.17445 0.0
C549 C 0.79219 0.37491 0.16112 0.0
H550 H 0.78229 0.37617 0.12969 0.0
H551 H 0.84635 0.36339 0.13839 0.0
C552 C 0.88875 0.36451 0.06051 0.0
N553 N 0.8786 0.36005 0.07808 0.0
C554 C 0.91057 0.36288 0.05919 0.0
C555 C 0.91107 0.35223 0.09412 0.0
C556 C 0.88926 0.35403 0.09474 0.0
C557 C 0.92203 0.35679 0.07621 0.0
H558 H 0.87994 0.36969 0.04766 0.0
H559 H 0.88087 0.35099 0.10868 0.0
C560 C 0.7777 0.37941 0.08072 0.0
N561 N 0.74081 0.39784 0.0729 0.0
C562 C 0.7635 0.37282 0.06623 0.0
C563 C 0.77299 0.39524 0.09143 0.0
C564 C 0.74496 0.38236 0.06245 0.0
C565 C 0.75431 0.4044 0.08719 0.0
C566 C 0.8344 0.3612 0.03389 0.0
C567 C 0.82231 0.37002 0.0191 0.0
C568 C 0.84777 0.34715 0.02801 0.0
C569 C 0.82338 0.36431 0.99877 0.0
C570 C 0.8484 0.34184 0.00752 0.0
N571 N 0.83627 0.35044 0.99345 0.0
C572 C 0.82757 0.42041 0.06091 0.0
C573 C 0.79612 0.40968 0.04584 0.0
C574 C 0.82538 0.43699 0.05103 0.0
N575 N 0.81306 0.40716 0.0582 0.0
C576 C 0.79332 0.42608 0.03559 0.0
C577 C 0.8082 0.43995 0.03798 0.0
H578 H 0.84108 0.41801 0.07053 0.0
H579 H 0.78508 0.39882 0.04342 0.0
C580 C 0.79816 0.31616 0.06861 0.0
N581 N 0.79975 0.332 0.05819 0.0
C582 C 0.78898 0.30106 0.05945 0.0
C583 C 0.78235 0.31903 0.02931 0.0
C584 C 0.79169 0.33376 0.03905 0.0
C585 C 0.78112 0.30233 0.03943 0.0
H586 H 0.80417 0.3152 0.08402 0.0
H587 H 0.79245 0.34659 0.0313 0.0
O588 O 0.84071 0.38653 0.0931 0.0
O589 O 0.83217 0.34515 0.09474 0.0
O590 O 0.79592 0.37023 0.08463 0.0
O591 O 0.83354 0.36665 0.05388 0.0
H592 H 0.87457 0.38511 0.11659 0.0
H593 H 0.81652 0.41333 0.10592 0.0
H594 H 0.8813 0.40515 0.14627 0.0
H595 H 0.82415 0.4328 0.13587 0.0
H596 H 0.86671 0.29615 0.06969 0.0
H597 H 0.84553 0.33177 0.13002 0.0
H598 H 0.84467 0.32345 0.06497 0.0
H599 H 0.86744 0.30429 0.13368 0.0
H600 H 0.84225 0.36467 0.17566 0.0
H601 H 0.77677 0.37836 0.16694 0.0
H602 H 0.91842 0.36685 0.04521 0.0
H603 H 0.91927 0.3474 0.10756 0.0
H604 H 0.76675 0.3605 0.05797 0.0
H605 H 0.78361 0.40039 0.10291 0.0
H606 H 0.73389 0.37745 0.0512 0.0
H607 H 0.75052 0.41672 0.0953 0.0
H608 H 0.81202 0.38099 0.02329 0.0
H609 H 0.85776 0.34053 0.03905 0.0
H610 H 0.81395 0.37091 0.98722 0.0
H611 H 0.85862 0.33094 0.0028 0.0
H612 H 0.83711 0.44736 0.05352 0.0
H613 H 0.78001 0.42767 0.02544 0.0
H614 H 0.78797 0.28855 0.06797 0.0
H615 H 0.77652 0.32063 0.01386 0.0
Li616 Li 0.18008 0.63094 0.60442 0.0
Li617 Li 0.15093 0.63633 0.58051 0.0
Li618 Li 0.18 0.6149 0.57121 0.0
Li619 Li 0.18525 0.64767 0.57105 0.0
C620 C 0.15579 0.59884 0.60617 0.0
N621 N 0.14894 0.56931 0.63112 0.0
C622 C 0.13615 0.5962 0.61524 0.0
C623 C 0.17185 0.58634 0.60957 0.0
C624 C 0.13302 0.58122 0.62788 0.0
C625 C 0.16811 0.57152 0.62228 0.0
C626 C 0.15389 0.66702 0.60186 0.0
C627 C 0.12991 0.69145 0.59475 0.0
N628 N 0.12432 0.69184 0.61481 0.0
C629 C 0.14807 0.66779 0.62245 0.0
C630 C 0.1449 0.67906 0.58793 0.0
C631 C 0.13304 0.68039 0.62868 0.0
C632 C 0.20632 0.63405 0.6396 0.0
N633 N 0.18685 0.62956 0.63271 0.0
C634 C 0.17513 0.6237 0.66674 0.0
C635 C 0.1713 0.62464 0.64581 0.0
C636 C 0.19506 0.6282 0.67434 0.0
C637 C 0.21079 0.63352 0.66054 0.0
H638 H 0.2183 0.6382 0.62886 0.0
H639 H 0.15575 0.62186 0.64006 0.0
C640 C 0.11158 0.64008 0.56088 0.0
N641 N 0.12142 0.63994 0.57932 0.0
C642 C 0.08978 0.64197 0.55982 0.0
C643 C 0.08873 0.64371 0.59672 0.0
C644 C 0.1105 0.64157 0.59707 0.0
C645 C 0.07811 0.6438 0.57791 0.0
H646 H 0.12061 0.63845 0.54702 0.0
H647 H 0.11866 0.64092 0.61154 0.0
C648 C 0.2222 0.6201 0.58345 0.0
N649 N 0.26048 0.60252 0.5823 0.0
C650 C 0.2368 0.62421 0.56819 0.0
C651 C 0.22726 0.60731 0.59837 0.0
C652 C 0.25602 0.6151 0.56779 0.0
C653 C 0.24664 0.59849 0.59746 0.0
C654 C 0.16705 0.63976 0.53458 0.0
C655 C 0.17796 0.63004 0.51964 0.0
C656 C 0.1577 0.65623 0.52948 0.0
C657 C 0.17964 0.63714 0.49993 0.0
C658 C 0.15976 0.6629 0.5096 0.0
N659 N 0.17062 0.6533 0.49537 0.0
C660 C 0.1694 0.58018 0.55855 0.0
C661 C 0.20312 0.58905 0.54702 0.0
C662 C 0.17125 0.56361 0.5486 0.0
N663 N 0.18526 0.59245 0.55777 0.0
C664 C 0.20555 0.57269 0.5366 0.0
C665 C 0.18943 0.5597 0.53725 0.0
H666 H 0.15513 0.58335 0.56675 0.0
H667 H 0.21521 0.59921 0.54598 0.0
C668 C 0.19859 0.68377 0.56736 0.0
N669 N 0.19955 0.66729 0.55825 0.0
C670 C 0.20788 0.69878 0.55813 0.0
C671 C 0.21933 0.67953 0.53045 0.0
C672 C 0.20998 0.66488 0.54033 0.0
C673 C 0.21822 0.69683 0.53927 0.0
H674 H 0.19053 0.68529 0.5818 0.0
H675 H 0.21082 0.65161 0.53352 0.0
O676 O 0.15912 0.6135 0.59384 0.0
O677 O 0.16837 0.6546 0.59542 0.0
O678 O 0.20338 0.62901 0.58415 0.0
O679 O 0.16536 0.63306 0.554 0.0
H680 H 0.12348 0.60566 0.61263 0.0
H681 H 0.18694 0.58792 0.60227 0.0
H682 H 0.11794 0.57907 0.63509 0.0
H683 H 0.18042 0.56175 0.62505 0.0
H684 H 0.12274 0.70077 0.5841 0.0
H685 H 0.155 0.6587 0.63348 0.0
H686 H 0.14943 0.67881 0.57202 0.0
H687 H 0.12829 0.68106 0.64454 0.0
H688 H 0.16245 0.61996 0.67694 0.0
H689 H 0.22633 0.63716 0.66587 0.0
H690 H 0.08213 0.64198 0.54503 0.0
H691 H 0.08022 0.64477 0.61101 0.0
H692 H 0.23328 0.63423 0.55668 0.0
H693 H 0.21646 0.60434 0.61067 0.0
H694 H 0.26738 0.61805 0.55596 0.0
H695 H 0.25071 0.58852 0.60888 0.0
H696 H 0.18516 0.61721 0.52326 0.0
H697 H 0.14897 0.66382 0.54075 0.0
H698 H 0.18815 0.62981 0.48826 0.0
H699 H 0.15271 0.67569 0.50549 0.0
H700 H 0.15851 0.55398 0.5498 0.0
H701 H 0.21967 0.57045 0.52772 0.0
H702 H 0.20701 0.71175 0.56573 0.0
H703 H 0.22696 0.67737 0.51586 0.0
Li704 Li 0.68403 0.869 0.10111 0.0
Li705 Li 0.68772 0.8526 0.06935 0.0
Li706 Li 0.68486 0.8868 0.06971 0.0
Li707 Li 0.65366 0.86668 0.07823 0.0
C708 C 0.72663 0.86897 0.08906 0.0
N709 N 0.76592 0.8649 0.10632 0.0
C710 C 0.73243 0.85247 0.09775 0.0
C711 C 0.7408 0.88339 0.08906 0.0
C712 C 0.75237 0.85069 0.10643 0.0
C713 C 0.7606 0.88106 0.09788 0.0
C714 C 0.66679 0.82979 0.09864 0.0
C715 C 0.64972 0.80075 0.09656 0.0
N716 N 0.66281 0.79433 0.1113 0.0
C717 C 0.67995 0.82294 0.11391 0.0
C718 C 0.65142 0.81865 0.09002 0.0
C719 C 0.67774 0.80497 0.12004 0.0
C720 C 0.67528 0.86215 0.14198 0.0
N721 N 0.69064 0.86888 0.12973 0.0
C722 C 0.71187 0.87581 0.15886 0.0
C723 C 0.70865 0.87579 0.13773 0.0
C724 C 0.69626 0.86889 0.1719 0.0
C725 C 0.67773 0.86205 0.16315 0.0
H726 H 0.6609 0.85711 0.13525 0.0
H727 H 0.72038 0.88164 0.12785 0.0
C728 C 0.70445 0.83513 0.03469 0.0
N729 N 0.7008 0.83301 0.05503 0.0
C730 C 0.71341 0.82113 0.02329 0.0
C731 C 0.71535 0.80324 0.05411 0.0
C732 C 0.70627 0.81752 0.06485 0.0
C733 C 0.71892 0.80489 0.03301 0.0
H734 H 0.70033 0.84769 0.02726 0.0
H735 H 0.70368 0.81617 0.08103 0.0
C736 C 0.6599 0.89666 0.11082 0.0
N737 N 0.65191 0.91145 0.14884 0.0
C738 C 0.64049 0.89388 0.12029 0.0
C739 C 0.6752 0.9071 0.12064 0.0
C740 C 0.63676 0.90146 0.13951 0.0
C741 C 0.67088 0.9144 0.13988 0.0
C742 C 0.65882 0.86191 0.03586 0.0
C743 C 0.65365 0.87305 0.01937 0.0
C744 C 0.65247 0.84384 0.03582 0.0
C745 C 0.64211 0.8659 0.00309 0.0
C746 C 0.64098 0.8372 0.01926 0.0
N747 N 0.63607 0.84828 0.00338 0.0
C748 C 0.69666 0.90788 0.03573 0.0
C749 C 0.69313 0.92423 0.06668 0.0
C750 C 0.70039 0.92385 0.02492 0.0
N751 N 0.69277 0.90842 0.05615 0.0
C752 C 0.69702 0.94047 0.05655 0.0
C753 C 0.70026 0.9405 0.03529 0.0
H754 H 0.69625 0.89509 0.02775 0.0
H755 H 0.68991 0.92431 0.08286 0.0
C756 C 0.61383 0.85499 0.09142 0.0
N757 N 0.62399 0.86424 0.07643 0.0
C758 C 0.592 0.85322 0.09094 0.0
C759 C 0.59152 0.87026 0.05941 0.0
C760 C 0.61331 0.87198 0.0607 0.0
C761 C 0.58062 0.86087 0.07473 0.0
H762 H 0.62271 0.84919 0.1039 0.0
H763 H 0.62168 0.87966 0.04927 0.0
O764 O 0.70716 0.8711 0.08063 0.0
O765 O 0.66853 0.84743 0.09261 0.0
O766 O 0.66402 0.88897 0.09222 0.0
O767 O 0.66992 0.86873 0.05202 0.0
H768 H 0.72158 0.84125 0.09798 0.0
H769 H 0.73648 0.89625 0.08239 0.0
H770 H 0.75705 0.83802 0.1133 0.0
H771 H 0.77173 0.89211 0.09805 0.0
H772 H 0.63793 0.79197 0.08998 0.0
H773 H 0.69193 0.83133 0.12078 0.0
H774 H 0.64082 0.82378 0.07848 0.0
H775 H 0.68791 0.79947 0.13173 0.0
H776 H 0.72642 0.88118 0.16488 0.0
H777 H 0.66503 0.857 0.17255 0.0
H778 H 0.71618 0.82307 0.00711 0.0
H779 H 0.71923 0.79092 0.0622 0.0
H780 H 0.62845 0.88592 0.11292 0.0
H781 H 0.69049 0.90906 0.11378 0.0
H782 H 0.62183 0.89936 0.14704 0.0
H783 H 0.68267 0.9223 0.14775 0.0
H784 H 0.65833 0.8871 0.01922 0.0
H785 H 0.65649 0.83503 0.04839 0.0
H786 H 0.63793 0.87438 0.99025 0.0
H787 H 0.63598 0.82323 0.01903 0.0
H788 H 0.70257 0.92319 0.00853 0.0
H789 H 0.69715 0.95291 0.06527 0.0
H790 H 0.58409 0.84589 0.10303 0.0
H791 H 0.5832 0.87657 0.04686 0.0
Li792 Li 0.31231 0.14859 0.56878 0.0
Li793 Li 0.31741 0.13146 0.6 0.0
Li794 Li 0.34727 0.13598 0.57625 0.0
Li795 Li 0.31805 0.11564 0.56747 0.0
C796 C 0.3332 0.16996 0.6021 0.0
N797 N 0.33693 0.20223 0.62307 0.0
C798 C 0.31803 0.17497 0.61649 0.0
C799 C 0.35035 0.18132 0.59851 0.0
C800 C 0.32018 0.19133 0.62691 0.0
C801 C 0.35192 0.1976 0.60922 0.0
C802 C 0.27474 0.13295 0.58754 0.0
C803 C 0.23979 0.12382 0.59734 0.0
N804 N 0.23572 0.14098 0.60364 0.0
C805 C 0.27017 0.1505 0.59398 0.0
C806 C 0.25941 0.1195 0.58911 0.0
C807 C 0.25037 0.15429 0.60212 0.0
C808 C 0.28628 0.16396 0.539 0.0
N809 N 0.29832 0.16812 0.5555 0.0
C810 C 0.29086 0.19954 0.55133 0.0
C811 C 0.30079 0.18551 0.56177 0.0
C812 C 0.27839 0.19568 0.53418 0.0
C813 C 0.27615 0.1776 0.52802 0.0
H814 H 0.2847 0.15001 0.53431 0.0
H815 H 0.31061 0.18858 0.57472 0.0
C816 C 0.32778 0.13579 0.64067 0.0
N817 N 0.31175 0.13011 0.62856 0.0
C818 C 0.32549 0.13607 0.66186 0.0
C819 C 0.29043 0.12404 0.65787 0.0
C820 C 0.29338 0.12406 0.63668 0.0
C821 C 0.30656 0.13027 0.67073 0.0
H822 H 0.34233 0.14025 0.63379 0.0
H823 H 0.281 0.11926 0.62682 0.0
C824 C 0.33898 0.14555 0.53512 0.0
N825 N 0.35438 0.16783 0.50475 0.0
C826 C 0.33902 0.13975 0.5148 0.0
C827 C 0.3467 0.16269 0.54 0.0
C828 C 0.34691 0.15121 0.49966 0.0
C829 C 0.35443 0.17376 0.52443 0.0
C830 C 0.33564 0.09746 0.60058 0.0
C831 C 0.353 0.08789 0.60787 0.0
C832 C 0.31541 0.09064 0.60372 0.0
C833 C 0.34984 0.0716 0.61822 0.0
C834 C 0.3129 0.07432 0.61415 0.0
N835 N 0.33002 0.06522 0.62112 0.0
C836 C 0.38712 0.1439 0.59213 0.0
C837 C 0.38733 0.13551 0.55717 0.0
C838 C 0.40899 0.14538 0.59217 0.0
N839 N 0.37681 0.13905 0.5748 0.0
C840 C 0.40918 0.13697 0.55647 0.0
C841 C 0.42035 0.14182 0.57418 0.0
H842 H 0.37833 0.14631 0.60602 0.0
H843 H 0.3788 0.13132 0.54369 0.0
C844 C 0.29281 0.08923 0.54711 0.0
N845 N 0.31242 0.0938 0.55351 0.0
C846 C 0.28952 0.07297 0.53669 0.0
C847 C 0.32665 0.06658 0.53972 0.0
C848 C 0.3292 0.08291 0.55004 0.0
C849 C 0.30662 0.06144 0.5328 0.0
H850 H 0.27979 0.09826 0.54999 0.0
H851 H 0.3446 0.08694 0.55534 0.0
O852 O 0.3315 0.15394 0.59176 0.0
O853 O 0.29403 0.12885 0.57958 0.0
O854 O 0.33113 0.13454 0.55006 0.0
O855 O 0.33855 0.1134 0.59038 0.0
H856 H 0.3048 0.16629 0.61975 0.0
H857 H 0.36233 0.17765 0.58754 0.0
H858 H 0.30856 0.19536 0.63808 0.0
H859 H 0.36508 0.20653 0.60654 0.0
H860 H 0.22781 0.11353 0.59875 0.0
H861 H 0.28173 0.1611 0.59267 0.0
H862 H 0.2627 0.10583 0.58419 0.0
H863 H 0.24665 0.16782 0.60721 0.0
H864 H 0.29327 0.21332 0.5564 0.0
H865 H 0.26656 0.17403 0.51495 0.0
H866 H 0.33849 0.14062 0.67121 0.0
H867 H 0.2756 0.11945 0.66409 0.0
H868 H 0.33302 0.12653 0.51079 0.0
H869 H 0.34665 0.16742 0.55561 0.0
H870 H 0.34707 0.1469 0.48386 0.0
H871 H 0.36043 0.18706 0.528 0.0
H872 H 0.36876 0.093 0.60553 0.0
H873 H 0.30179 0.09783 0.59816 0.0
H874 H 0.36313 0.06404 0.62394 0.0
H875 H 0.29734 0.06889 0.61669 0.0
H876 H 0.41691 0.14883 0.60629 0.0
H877 H 0.41721 0.13427 0.5422 0.0
H878 H 0.27386 0.06959 0.53147 0.0
H879 H 0.34021 0.05799 0.53737 0.0
Li880 Li 0.68309 0.11394 0.92792 0.0
Li881 Li 0.65316 0.13418 0.92162 0.0
Li882 Li 0.68338 0.13118 0.89659 0.0
Li883 Li 0.6882 0.14745 0.92898 0.0
C884 C 0.65715 0.0952 0.90375 0.0
N885 N 0.64717 0.05894 0.90156 0.0
C886 C 0.63803 0.08897 0.91154 0.0
C887 C 0.67106 0.08305 0.89459 0.0
C888 C 0.6333 0.07057 0.91034 0.0
C889 C 0.66577 0.06475 0.89371 0.0
C890 C 0.66157 0.13821 0.96443 0.0
C891 C 0.64717 0.16272 0.98427 0.0
N892 N 0.64383 0.15115 9e-05 0.0
C893 C 0.65814 0.12658 0.98093 0.0
C894 C 0.65614 0.15644 0.96613 0.0
C895 C 0.64909 0.13337 0.99881 0.0
C896 C 0.70936 0.08445 0.94011 0.0
N897 N 0.68964 0.09152 0.94053 0.0
C898 C 0.67673 0.06587 0.95872 0.0
C899 C 0.67353 0.08277 0.94987 0.0
C900 C 0.69683 0.05813 0.95837 0.0
C901 C 0.71337 0.06767 0.94915 0.0
H902 H 0.72192 0.0918 0.93273 0.0
H903 H 0.65812 0.08889 0.95031 0.0
C904 C 0.61316 0.1421 0.90652 0.0
N905 N 0.62355 0.13687 0.92367 0.0
C906 C 0.59128 0.14342 0.90654 0.0
C907 C 0.59122 0.13414 0.94196 0.0
C908 C 0.61308 0.13282 0.94118 0.0
C909 C 0.57996 0.13934 0.92442 0.0
H910 H 0.62191 0.14497 0.89272 0.0
H911 H 0.62157 0.12826 0.95447 0.0
C912 C 0.72457 0.12827 0.90538 0.0
N913 N 0.76049 0.12791 0.8817 0.0
C914 C 0.73778 0.14334 0.90495 0.0
C915 C 0.72972 0.11294 0.89396 0.0
C916 C 0.75586 0.14291 0.89284 0.0
C917 C 0.74791 0.11306 0.88201 0.0
C918 C 0.66359 0.17061 0.90181 0.0
C919 C 0.67374 0.17951 0.88576 0.0
C920 C 0.64791 0.17955 0.91281 0.0
C921 C 0.66837 0.19738 0.8813 0.0
C922 C 0.64298 0.19742 0.90787 0.0
N923 N 0.65324 0.20589 0.89237 0.0
C924 C 0.6764 0.1208 0.85616 0.0
C925 C 0.70489 0.14118 0.85958 0.0
C926 C 0.67876 0.12063 0.83496 0.0
N927 N 0.68935 0.13098 0.86799 0.0
C928 C 0.70799 0.14124 0.83843 0.0
C929 C 0.69466 0.13101 0.82585 0.0
H930 H 0.66396 0.11302 0.86315 0.0
H931 H 0.71461 0.14957 0.86921 0.0
C932 C 0.7077 0.16438 0.96248 0.0
N933 N 0.7021 0.16684 0.94262 0.0
C934 C 0.71699 0.17842 0.97352 0.0
C935 C 0.71528 0.19707 0.94325 0.0
C936 C 0.70602 0.18267 0.93282 0.0
C937 C 0.72072 0.19511 0.96395 0.0
H938 H 0.70475 0.15154 0.96982 0.0
H939 H 0.70195 0.18419 0.91692 0.0
O940 O 0.66221 0.11311 0.90509 0.0
O941 O 0.67033 0.13172 0.94681 0.0
O942 O 0.70681 0.12845 0.91712 0.0
O943 O 0.66854 0.15305 0.90624 0.0
H944 H 0.62706 0.09822 0.91862 0.0
H945 H 0.68583 0.08769 0.88834 0.0
H946 H 0.61863 0.06553 0.91643 0.0
H947 H 0.67645 0.05516 0.8868 0.0
H948 H 0.64291 0.1768 0.9858 0.0
H949 H 0.66235 0.11245 0.97991 0.0
H950 H 0.65905 0.16568 0.95368 0.0
H951 H 0.64627 0.12451 0.01167 0.0
H952 H 0.66368 0.05901 0.96598 0.0
H953 H 0.72909 0.06209 0.94868 0.0
H954 H 0.58333 0.14714 0.89254 0.0
H955 H 0.58325 0.13104 0.95615 0.0
H956 H 0.73408 0.15527 0.91379 0.0
H957 H 0.71974 0.10113 0.89423 0.0
H958 H 0.76619 0.15451 0.89228 0.0
H959 H 0.75204 0.10133 0.87299 0.0
H960 H 0.68578 0.17275 0.87697 0.0
H961 H 0.63946 0.17276 0.92491 0.0
H962 H 0.67623 0.20447 0.86903 0.0
H963 H 0.63091 0.20451 0.91631 0.0
H964 H 0.66823 0.11249 0.82578 0.0
H965 H 0.72025 0.14961 0.83193 0.0
H966 H 0.72128 0.1762 0.98934 0.0
H967 H 0.71779 0.20971 0.93528 0.0
Li968 Li 0.3466 0.86558 0.42165 0.0
Li969 Li 0.31699 0.88529 0.42981 0.0
Li970 Li 0.31197 0.85184 0.42943 0.0
Li971 Li 0.31558 0.86934 0.3977 0.0
C972 C 0.34052 0.85913 0.46378 0.0
N973 N 0.36107 0.84361 0.49659 0.0
C974 C 0.34601 0.86962 0.48072 0.0
C975 C 0.34527 0.8407 0.46365 0.0
C976 C 0.35647 0.86155 0.49712 0.0
C977 C 0.3557 0.83311 0.48035 0.0
C978 C 0.34086 0.90537 0.40587 0.0
C979 C 0.33011 0.93571 0.39746 0.0
N980 N 0.34827 0.94214 0.40563 0.0
C981 C 0.35951 0.91225 0.41402 0.0
C982 C 0.32611 0.91715 0.39736 0.0
C983 C 0.36294 0.9309 0.41381 0.0
C984 C 0.38653 0.85488 0.40755 0.0
N985 N 0.37623 0.86305 0.42322 0.0
C986 C 0.40864 0.86902 0.44035 0.0
C987 C 0.38678 0.87016 0.43939 0.0
C988 C 0.41974 0.86058 0.42444 0.0
C989 C 0.4084 0.85338 0.40791 0.0
H990 H 0.37777 0.84971 0.39465 0.0
H991 H 0.37826 0.87703 0.45137 0.0
C992 C 0.2918 0.9153 0.4428 0.0
N993 N 0.31093 0.90718 0.44378 0.0
C994 C 0.28838 0.93172 0.45285 0.0
C995 C 0.32433 0.93092 0.46474 0.0
C996 C 0.32701 0.91455 0.45456 0.0
C997 C 0.30481 0.93976 0.46399 0.0
H998 H 0.27925 0.90907 0.4342 0.0
H999 H 0.34207 0.90781 0.45496 0.0
C1000 C 0.33501 0.82968 0.4001 0.0
N1001 N 0.34352 0.79459 0.38817 0.0
C1002 C 0.32394 0.82186 0.38391 0.0
C1003 C 0.35066 0.81972 0.41 0.0
C1004 C 0.32839 0.80408 0.37817 0.0
C1005 C 0.35466 0.80199 0.40381 0.0
C1006 C 0.27462 0.8712 0.40814 0.0
C1007 C 0.26186 0.85583 0.40788 0.0
C1008 C 0.26847 0.88661 0.39735 0.0
C1009 C 0.24322 0.85608 0.3966 0.0
C1010 C 0.24974 0.88631 0.38622 0.0
N1011 N 0.23762 0.87117 0.38607 0.0
C1012 C 0.29246 0.83454 0.46248 0.0
C1013 C 0.29516 0.81608 0.43301 0.0
C1014 C 0.28318 0.82044 0.47342 0.0
N1015 N 0.29846 0.83206 0.44273 0.0
C1016 C 0.28604 0.8016 0.44339 0.0
C1017 C 0.28001 0.80362 0.46393 0.0
H1018 H 0.29504 0.84746 0.46977 0.0
H1019 H 0.29958 0.8145 0.41723 0.0
C1020 C 0.32077 0.88132 0.35751 0.0
N1021 N 0.30844 0.87061 0.36937 0.0
C1022 C 0.31756 0.88216 0.33644 0.0
C1023 C 0.28881 0.8611 0.3401 0.0
C1024 C 0.29266 0.86059 0.36112 0.0
C1025 C 0.30149 0.87187 0.32741 0.0
H1026 H 0.33347 0.88888 0.36435 0.0
H1027 H 0.28333 0.85187 0.37074 0.0
O1028 O 0.33038 0.86688 0.44755 0.0
O1029 O 0.33701 0.8872 0.40634 0.0
O1030 O 0.33092 0.84713 0.40581 0.0
O1031 O 0.2929 0.8712 0.41911 0.0
H1032 H 0.34229 0.88387 0.4812 0.0
H1033 H 0.34072 0.83231 0.45092 0.0
H1034 H 0.3609 0.86954 0.51028 0.0
H1035 H 0.35947 0.81886 0.48042 0.0
H1036 H 0.31876 0.94499 0.39105 0.0
H1037 H 0.37112 0.90332 0.42061 0.0
H1038 H 0.31168 0.91201 0.39085 0.0
H1039 H 0.37724 0.93643 0.42019 0.0
H1040 H 0.41676 0.8747 0.4534 0.0
H1041 H 0.41636 0.84705 0.39515 0.0
H1042 H 0.27303 0.93798 0.45203 0.0
H1043 H 0.33756 0.93675 0.47279 0.0
H1044 H 0.31189 0.82934 0.37597 0.0
H1045 H 0.35982 0.82563 0.42219 0.0
H1046 H 0.31982 0.79784 0.36576 0.0
H1047 H 0.36669 0.79414 0.41138 0.0
H1048 H 0.26631 0.84382 0.41623 0.0
H1049 H 0.27811 0.89863 0.39746 0.0
H1050 H 0.23323 0.84426 0.39619 0.0
H1051 H 0.24485 0.8981 0.3777 0.0
H1052 H 0.27844 0.82274 0.4891 0.0
H1053 H 0.28406 0.78887 0.43546 0.0
H1054 H 0.32803 0.89036 0.32726 0.0
H1055 H 0.27618 0.85301 0.33384 0.0
Li1056 Li 0.31456 0.14812 0.92855 0.0
Li1057 Li 0.31748 0.11583 0.9288 0.0
Li1058 Li 0.34771 0.13426 0.91959 0.0
Li1059 Li 0.31753 0.13046 0.89529 0.0
C1060 C 0.33128 0.14064 0.96487 0.0
N1061 N 0.32702 0.15637 0.00295 0.0
C1062 C 0.31817 0.13279 0.97954 0.0
C1063 C 0.34232 0.15641 0.96962 0.0
C1064 C 0.31622 0.14096 0.9987 0.0
C1065 C 0.33991 0.16419 0.98893 0.0
C1066 C 0.27607 0.12134 0.91676 0.0
C1067 C 0.24975 0.10277 0.90057 0.0
N1068 N 0.2382 0.10315 0.91806 0.0
C1069 C 0.2639 0.12162 0.93454 0.0
C1070 C 0.26894 0.1119 0.8996 0.0
C1071 C 0.24481 0.1123 0.9349 0.0
C1072 C 0.3057 0.18543 0.93289 0.0
N1073 N 0.30184 0.16881 0.94088 0.0
C1074 C 0.2808 0.18176 0.96735 0.0
C1075 C 0.28935 0.16672 0.95756 0.0
C1076 C 0.28476 0.19916 0.95967 0.0
C1077 C 0.29726 0.20085 0.94205 0.0
H1078 H 0.31534 0.18673 0.91938 0.0
H1079 H 0.28626 0.15339 0.96349 0.0
C1080 C 0.32588 0.08911 0.95725 0.0
N1081 N 0.31103 0.09391 0.94335 0.0
C1082 C 0.32416 0.07294 0.96804 0.0
C1083 C 0.29166 0.06689 0.9503 0.0
C1084 C 0.29421 0.08306 0.93958 0.0
C1085 C 0.30683 0.06154 0.9647 0.0
H1086 H 0.3394 0.0977 0.9596 0.0
H1087 H 0.28299 0.0866 0.92795 0.0
C1088 C 0.3476 0.16406 0.8966 0.0
N1089 N 0.37982 0.18532 0.88168 0.0
C1090 C 0.35318 0.16315 0.87596 0.0
C1091 C 0.35828 0.17589 0.90961 0.0
C1092 C 0.36954 0.17399 0.86872 0.0
C1093 C 0.37457 0.18649 0.90179 0.0
C1094 C 0.34186 0.09433 0.90736 0.0
C1095 C 0.36018 0.08868 0.91725 0.0
C1096 C 0.32758 0.08147 0.90013 0.0
C1097 C 0.36385 0.07022 0.91986 0.0
C1098 C 0.33181 0.06314 0.90308 0.0
N1099 N 0.3497 0.05794 0.91281 0.0
C1100 C 0.38746 0.13713 0.93886 0.0
C1101 C 0.38836 0.13596 0.90268 0.0
C1102 C 0.40935 0.13816 0.93969 0.0
N1103 N 0.37747 0.13619 0.92054 0.0
C1104 C 0.41023 0.13724 0.90277 0.0
C1105 C 0.42108 0.13829 0.92146 0.0
H1106 H 0.37845 0.13679 0.95285 0.0
H1107 H 0.38004 0.13474 0.88835 0.0
C1108 C 0.30083 0.14341 0.85785 0.0
N1109 N 0.31077 0.12936 0.86709 0.0
C1110 C 0.29788 0.14338 0.83666 0.0
C1111 C 0.31479 0.11417 0.83514 0.0
C1112 C 0.31759 0.11485 0.85626 0.0
C1113 C 0.3052 0.12872 0.82497 0.0
H1114 H 0.29585 0.15489 0.86686 0.0
H1115 H 0.3257 0.10399 0.86394 0.0
O1116 O 0.33331 0.1329 0.94598 0.0
O1117 O 0.29462 0.13061 0.91596 0.0
O1118 O 0.33182 0.15338 0.90404 0.0
O1119 O 0.33768 0.11235 0.90521 0.0
H1120 H 0.30932 0.1207 0.97609 0.0
H1121 H 0.35256 0.16264 0.95847 0.0
H1122 H 0.30604 0.1351 0.01016 0.0
H1123 H 0.34828 0.17644 0.99277 0.0
H1124 H 0.24406 0.09537 0.88744 0.0
H1125 H 0.26921 0.1288 0.94796 0.0
H1126 H 0.27813 0.11156 0.88571 0.0
H1127 H 0.23528 0.11233 0.94859 0.0
H1128 H 0.2715 0.17974 0.98102 0.0
H1129 H 0.30039 0.21394 0.9353 0.0
H1130 H 0.3366 0.06924 0.97852 0.0
H1131 H 0.27798 0.05864 0.94721 0.0
H1132 H 0.34513 0.15403 0.86568 0.0
H1133 H 0.35412 0.1768 0.9256 0.0
H1134 H 0.3741 0.17336 0.85281 0.0
H1135 H 0.38304 0.19563 0.91172 0.0
H1136 H 0.37133 0.09845 0.92304 0.0
H1137 H 0.31317 0.08562 0.89272 0.0
H1138 H 0.37791 0.06565 0.92758 0.0
H1139 H 0.32081 0.05305 0.89775 0.0
H1140 H 0.41697 0.13849 0.95447 0.0
H1141 H 0.41849 0.13748 0.88831 0.0
H1142 H 0.29066 0.155 0.82948 0.0
H1143 H 0.32037 0.10246 0.82684 0.0
Li1144 Li 0.68544 0.85104 0.42688 0.0
Li1145 Li 0.68023 0.88368 0.4289 0.0
Li1146 Li 0.65172 0.86331 0.41708 0.0
Li1147 Li 0.68193 0.86894 0.39529 0.0
C1148 C 0.66574 0.85813 0.46354 0.0
N1149 N 0.66685 0.84488 0.50302 0.0
C1150 C 0.67925 0.8658 0.47797 0.0
C1151 C 0.65251 0.84394 0.46929 0.0
C1152 C 0.67966 0.85885 0.49782 0.0
C1153 C 0.65339 0.83737 0.48929 0.0
C1154 C 0.71959 0.88249 0.41022 0.0
C1155 C 0.72928 0.91139 0.39603 0.0
N1156 N 0.74987 0.90657 0.39704 0.0
C1157 C 0.74084 0.87783 0.41112 0.0
C1158 C 0.71374 0.89941 0.40261 0.0
C1159 C 0.75591 0.89019 0.40438 0.0
C1160 C 0.69735 0.81431 0.43066 0.0
N1161 N 0.69933 0.83095 0.43926 0.0
C1162 C 0.72024 0.81874 0.46631 0.0
C1163 C 0.71098 0.83347 0.45645 0.0
C1164 C 0.71767 0.80129 0.45823 0.0
C1165 C 0.7063 0.79922 0.44 0.0
H1166 H 0.68884 0.81269 0.41653 0.0
H1167 H 0.71298 0.84691 0.46259 0.0
C1168 C 0.66868 0.91644 0.44614 0.0
N1169 N 0.68531 0.90511 0.44409 0.0
C1170 C 0.67072 0.93252 0.45705 0.0
C1171 C 0.70699 0.92491 0.46383 0.0
C1172 C 0.70424 0.90895 0.45269 0.0
C1173 C 0.69006 0.93695 0.46614 0.0
H1174 H 0.65377 0.91292 0.43928 0.0
H1175 H 0.71715 0.89956 0.45103 0.0
C1176 C 0.65619 0.83133 0.39681 0.0
N1177 N 0.62982 0.80312 0.38644 0.0
C1178 C 0.65221 0.82741 0.37626 0.0
C1179 C 0.64686 0.82082 0.41206 0.0
C1180 C 0.6388 0.81311 0.37134 0.0
C1181 C 0.63355 0.80664 0.40652 0.0
C1182 C 0.64691 0.89242 0.39059 0.0
C1183 C 0.64116 0.88087 0.37464 0.0
C1184 C 0.63825 0.90975 0.3916 0.0
C1185 C 0.62677 0.88681 0.36 0.0
C1186 C 0.62389 0.91519 0.37667 0.0
N1187 N 0.61849 0.90371 0.36131 0.0
C1188 C 0.61211 0.86597 0.43541 0.0
C1189 C 0.61076 0.85371 0.40199 0.0
C1190 C 0.59025 0.86515 0.43701 0.0
N1191 N 0.6219 0.86031 0.41809 0.0
C1192 C 0.58892 0.8526 0.40294 0.0
C1193 C 0.57834 0.8585 0.42056 0.0
H1194 H 0.62129 0.87143 0.44788 0.0
H1195 H 0.61872 0.84952 0.38823 0.0
C1196 C 0.69784 0.85626 0.35784 0.0
N1197 N 0.69089 0.8713 0.36765 0.0
C1198 C 0.70189 0.85673 0.33686 0.0
C1199 C 0.69239 0.88836 0.33669 0.0
C1200 C 0.6887 0.88731 0.35768 0.0
C1201 C 0.69862 0.87283 0.32596 0.0
H1202 H 0.69945 0.84372 0.36619 0.0
H1203 H 0.6833 0.89912 0.36586 0.0
O1204 O 0.66505 0.8648 0.44406 0.0
O1205 O 0.70471 0.87047 0.41674 0.0
O1206 O 0.66917 0.84535 0.40194 0.0
O1207 O 0.66098 0.8869 0.40512 0.0
H1208 H 0.68949 0.87686 0.47383 0.0
H1209 H 0.64156 0.83814 0.45849 0.0
H1210 H 0.69018 0.86456 0.50909 0.0
H1211 H 0.6433 0.82635 0.49393 0.0
H1212 H 0.72497 0.92453 0.39012 0.0
H1213 H 0.74561 0.86477 0.41697 0.0
H1214 H 0.6974 0.90332 0.40186 0.0
H1215 H 0.77242 0.88675 0.40499 0.0
H1216 H 0.72895 0.82095 0.48031 0.0
H1217 H 0.70441 0.78607 0.43297 0.0
H1218 H 0.65732 0.94149 0.45815 0.0
H1219 H 0.72209 0.92766 0.47077 0.0
H1220 H 0.65927 0.83539 0.36424 0.0
H1221 H 0.64994 0.82357 0.42799 0.0
H1222 H 0.63552 0.80997 0.35551 0.0
H1223 H 0.62621 0.79843 0.41818 0.0
H1224 H 0.64779 0.86747 0.37355 0.0
H1225 H 0.64261 0.91892 0.40377 0.0
H1226 H 0.62219 0.87798 0.3476 0.0
H1227 H 0.61706 0.92856 0.37728 0.0
H1228 H 0.58275 0.8701 0.45077 0.0
H1229 H 0.5804 0.8472 0.38998 0.0
H1230 H 0.70656 0.84445 0.3291 0.0
H1231 H 0.68993 0.90107 0.32885 0.0
Li1232 Li 0.32212 0.86957 0.10331 0.0
Li1233 Li 0.34879 0.86568 0.07817 0.0
Li1234 Li 0.32107 0.88562 0.07024 0.0
Li1235 Li 0.31579 0.85185 0.07034 0.0
C1236 C 0.33749 0.90405 0.10308 0.0
N1237 N 0.32885 0.93579 0.12378 0.0
C1238 C 0.35386 0.9146 0.11089 0.0
C1239 C 0.31671 0.90969 0.10587 0.0
C1240 C 0.34918 0.93058 0.12129 0.0
C1241 C 0.31267 0.92576 0.11634 0.0
C1242 C 0.34975 0.83567 0.10142 0.0
C1243 C 0.36836 0.80732 0.10213 0.0
N1244 N 0.38155 0.81413 0.11657 0.0
C1245 C 0.36337 0.84236 0.11636 0.0
C1246 C 0.35215 0.818 0.09429 0.0
C1247 C 0.37941 0.83127 0.12377 0.0
C1248 C 0.29797 0.8628 0.1391 0.0
N1249 N 0.31593 0.87029 0.13171 0.0
C1250 C 0.3271 0.87805 0.16542 0.0
C1251 C 0.33041 0.8778 0.14438 0.0
C1252 C 0.30886 0.87021 0.17364 0.0
C1253 C 0.29407 0.86263 0.16015 0.0
H1254 H 0.28685 0.8567 0.12866 0.0
H1255 H 0.34471 0.88341 0.13817 0.0
C1256 C 0.3904 0.87766 0.07934 0.0
N1257 N 0.37861 0.86282 0.07514 0.0
C1258 C 0.41224 0.87692 0.07808 0.0
C1259 C 0.40954 0.84571 0.0676 0.0
C1260 C 0.3877 0.84704 0.0692 0.0
C1261 C 0.42215 0.86077 0.07219 0.0
H1262 H 0.38282 0.8901 0.08374 0.0
H1263 H 0.37805 0.83546 0.06565 0.0
C1264 C 0.27766 0.87435 0.07916 0.0
N1265 N 0.23587 0.88032 0.06996 0.0
C1266 C 0.26995 0.8703 0.0597 0.0
C1267 C 0.26412 0.88137 0.09397 0.0
C1268 C 0.24878 0.87343 0.05533 0.0
C1269 C 0.24305 0.88432 0.08901 0.0
C1270 C 0.34841 0.86322 0.03823 0.0
C1271 C 0.36092 0.87715 0.0305 0.0
C1272 C 0.3521 0.84542 0.03205 0.0
C1273 C 0.37704 0.87302 0.01679 0.0
C1274 C 0.36835 0.84185 0.01828 0.0
N1275 N 0.3804 0.8556 0.01102 0.0
C1276 C 0.33187 0.91899 0.05477 0.0
C1277 C 0.29574 0.9129 0.04965 0.0
C1278 C 0.32998 0.93563 0.04499 0.0
N1279 N 0.31493 0.90798 0.05688 0.0
C1280 C 0.29315 0.92942 0.03957 0.0
C1281 C 0.31046 0.941 0.03701 0.0
H1282 H 0.34696 0.91479 0.0607 0.0
H1283 H 0.28244 0.90406 0.05148 0.0
C1284 C 0.29506 0.81809 0.07051 0.0
N1285 N 0.30135 0.83205 0.05848 0.0
C1286 C 0.28504 0.80313 0.06186 0.0
C1287 C 0.28795 0.81735 0.02871 0.0
C1288 C 0.29799 0.83197 0.03796 0.0
C1289 C 0.28141 0.80264 0.04067 0.0
H1290 H 0.29799 0.81855 0.08679 0.0
H1291 H 0.30328 0.84322 0.02876 0.0
O1292 O 0.34196 0.88833 0.09287 0.0
O1293 O 0.33406 0.84634 0.09385 0.0
O1294 O 0.29824 0.87108 0.0839 0.0
O1295 O 0.33269 0.86696 0.05183 0.0
H1296 H 0.37004 0.91046 0.10904 0.0
H1297 H 0.3038 0.90184 0.09998 0.0
H1298 H 0.36171 0.93884 0.12741 0.0
H1299 H 0.29667 0.93025 0.11855 0.0
H1300 H 0.37048 0.79364 0.0967 0.0
H1301 H 0.36178 0.85604 0.12192 0.0
H1302 H 0.34171 0.81264 0.08271 0.0
H1303 H 0.39018 0.8363 0.13523 0.0
H1304 H 0.33879 0.88431 0.17515 0.0
H1305 H 0.27992 0.85624 0.16581 0.0
H1306 H 0.42126 0.88882 0.08202 0.0
H1307 H 0.41644 0.83307 0.06267 0.0
H1308 H 0.28028 0.86517 0.04796 0.0
H1309 H 0.26982 0.88452 0.10915 0.0
H1310 H 0.24262 0.87045 0.04029 0.0
H1311 H 0.23239 0.88977 0.10032 0.0
H1312 H 0.35829 0.89099 0.03514 0.0
H1313 H 0.34278 0.83444 0.03809 0.0
H1314 H 0.38691 0.88365 0.01075 0.0
H1315 H 0.37147 0.82812 0.01347 0.0
H1316 H 0.34369 0.94423 0.04379 0.0
H1317 H 0.27784 0.93289 0.03352 0.0
H1318 H 0.2801 0.79212 0.07164 0.0
H1319 H 0.28572 0.81741 0.01229 0.0
Li1320 Li 0.6524 0.13464 0.57836 0.0
Li1321 Li 0.68175 0.13013 0.60202 0.0
Li1322 Li 0.68621 0.1462 0.56906 0.0
Li1323 Li 0.68135 0.11386 0.56865 0.0
C1324 C 0.65489 0.16528 0.6002 0.0
N1325 N 0.62537 0.1895 0.6146 0.0
C1326 C 0.64831 0.16452 0.62057 0.0
C1327 C 0.64671 0.17854 0.58725 0.0
C1328 C 0.6333 0.17684 0.62753 0.0
C1329 C 0.63173 0.19061 0.59479 0.0
C1330 C 0.6634 0.0953 0.60088 0.0
C1331 C 0.68529 0.07212 0.61561 0.0
N1332 N 0.66803 0.06156 0.61833 0.0
C1333 C 0.64589 0.08422 0.60379 0.0
C1334 C 0.68328 0.08923 0.6068 0.0
C1335 C 0.64855 0.06721 0.61266 0.0
C1336 C 0.61258 0.13876 0.55942 0.0
N1337 N 0.62275 0.13774 0.57764 0.0
C1338 C 0.59024 0.1398 0.59575 0.0
C1339 C 0.61206 0.13802 0.59562 0.0
C1340 C 0.5792 0.14084 0.57716 0.0
C1341 C 0.59072 0.1403 0.55882 0.0
H1342 H 0.62137 0.13799 0.54533 0.0
H1343 H 0.6205 0.13668 0.60988 0.0
C1344 C 0.70591 0.13749 0.63771 0.0
N1345 N 0.68843 0.12915 0.63036 0.0
C1346 C 0.71006 0.13755 0.65871 0.0
C1347 C 0.67824 0.12037 0.66407 0.0
C1348 C 0.67459 0.12081 0.64307 0.0
C1349 C 0.69611 0.12887 0.67214 0.0
H1350 H 0.71641 0.14434 0.6273 0.0
H1351 H 0.66044 0.11483 0.63695 0.0
C1352 C 0.66679 0.13916 0.53258 0.0
N1353 N 0.66747 0.154 0.49384 0.0
C1354 C 0.67611 0.12975 0.51642 0.0
C1355 C 0.65755 0.15598 0.52897 0.0
C1356 C 0.67635 0.13752 0.49695 0.0
C1357 C 0.65814 0.1633 0.5093 0.0
C1358 C 0.72412 0.12811 0.57227 0.0
C1359 C 0.72625 0.12331 0.55172 0.0
C1360 C 0.74172 0.13389 0.58323 0.0
C1361 C 0.74597 0.12438 0.54244 0.0
C1362 C 0.76119 0.13476 0.57342 0.0
N1363 N 0.76289 0.13004 0.55339 0.0
C1364 C 0.70126 0.18188 0.56731 0.0
C1365 C 0.70922 0.16488 0.53764 0.0
C1366 C 0.71063 0.19723 0.55887 0.0
N1367 N 0.70048 0.16618 0.55656 0.0
C1368 C 0.71861 0.17992 0.52856 0.0
C1369 C 0.71928 0.19645 0.53912 0.0
H1370 H 0.69451 0.18252 0.58245 0.0
H1371 H 0.7087 0.15227 0.52941 0.0
C1372 C 0.67124 0.08499 0.54342 0.0
N1373 N 0.68674 0.09134 0.55573 0.0
C1374 C 0.67345 0.06838 0.53361 0.0
C1375 C 0.70752 0.06501 0.54949 0.0
C1376 C 0.70462 0.08173 0.55905 0.0
C1377 C 0.69181 0.05815 0.53652 0.0
H1378 H 0.65706 0.09284 0.54135 0.0
H1379 H 0.71657 0.08699 0.56917 0.0
O1380 O 0.66946 0.15325 0.59306 0.0
O1381 O 0.66104 0.11193 0.59205 0.0
O1382 O 0.66641 0.13177 0.55175 0.0
O1383 O 0.70494 0.12718 0.58164 0.0
H1384 H 0.65458 0.15444 0.63085 0.0
H1385 H 0.65193 0.17955 0.57158 0.0
H1386 H 0.62795 0.17632 0.64321 0.0
H1387 H 0.62519 0.20089 0.5849 0.0
H1388 H 0.70058 0.06724 0.62026 0.0
H1389 H 0.6304 0.08874 0.59922 0.0
H1390 H 0.69702 0.0976 0.60462 0.0
H1391 H 0.63514 0.05848 0.61502 0.0
H1392 H 0.58213 0.14032 0.61029 0.0
H1393 H 0.58293 0.14062 0.54411 0.0
H1394 H 0.72398 0.1443 0.66439 0.0
H1395 H 0.66686 0.11388 0.67395 0.0
H1396 H 0.68315 0.11664 0.51886 0.0
H1397 H 0.65002 0.16331 0.54122 0.0
H1398 H 0.68361 0.13044 0.48433 0.0
H1399 H 0.65115 0.17636 0.50632 0.0
H1400 H 0.71278 0.11894 0.54297 0.0
H1401 H 0.74038 0.13763 0.59916 0.0
H1402 H 0.7478 0.12076 0.52652 0.0
H1403 H 0.77495 0.1392 0.58172 0.0
H1404 H 0.71113 0.20956 0.56777 0.0
H1405 H 0.72487 0.17867 0.51323 0.0
H1406 H 0.66074 0.06347 0.52411 0.0
H1407 H 0.72196 0.05762 0.55211 0.0
C1408 C 0.04689 0.34172 0.07969 0.0
C1409 C 0.05729 0.3571 0.07229 0.0
C1410 C 0.02486 0.34083 0.08007 0.0
C1411 C 0.01296 0.35565 0.0728 0.0
C1412 C 0.02335 0.37109 0.06502 0.0
C1413 C 0.04537 0.37165 0.06491 0.0
C1414 C 0.01432 0.32413 0.08847 0.0
C1415 C 0.01119 0.38718 0.05715 0.0
C1416 C 0.95568 0.34908 0.05825 0.0
C1417 C 0.94532 0.35588 0.07554 0.0
C1418 C 0.9777 0.34868 0.05724 0.0
C1419 C 0.98963 0.35528 0.07391 0.0
C1420 C 0.97928 0.36199 0.09148 0.0
C1421 C 0.95726 0.36221 0.09208 0.0
C1422 C 0.98821 0.34138 0.03827 0.0
C1423 C 0.99146 0.36921 0.10954 0.0
H1424 H 0.05598 0.33032 0.08515 0.0
H1425 H 0.05326 0.3837 0.05946 0.0
H1426 H 0.00469 0.32775 0.102 0.0
H1427 H 0.00353 0.31833 0.07688 0.0
H1428 H 0.02583 0.31359 0.09304 0.0
H1429 H 0.02163 0.39787 0.05091 0.0
H1430 H 0.00015 0.38288 0.04496 0.0
H1431 H 0.00165 0.39307 0.06968 0.0
H1432 H 0.94653 0.34398 0.04551 0.0
H1433 H 0.94936 0.36773 0.10537 0.0
H1434 H 0.99898 0.33017 0.04238 0.0
H1435 H 0.99786 0.35211 0.03105 0.0
H1436 H 0.97669 0.33634 0.02686 0.0
H1437 H 0.00245 0.35876 0.1153 0.0
H1438 H 0.98103 0.37346 0.12228 0.0
H1439 H 0.00104 0.38099 0.10473 0.0
C1440 C 0.95342 0.6554 0.56464 0.0
C1441 C 0.94303 0.64522 0.57962 0.0
C1442 C 0.97544 0.65615 0.56398 0.0
C1443 C 0.9873 0.64628 0.5785 0.0
C1444 C 0.97687 0.63605 0.59371 0.0
C1445 C 0.95485 0.63573 0.59415 0.0
C1446 C 0.98602 0.66739 0.54771 0.0
C1447 C 0.98898 0.62519 0.6093 0.0
C1448 C 0.04325 0.63283 0.5655 0.0
C1449 C 0.0549 0.64507 0.57729 0.0
C1450 C 0.02123 0.63321 0.56558 0.0
C1451 C 0.01063 0.64629 0.57754 0.0
C1452 C 0.02232 0.65896 0.5891 0.0
C1453 C 0.04435 0.65811 0.58894 0.0
C1454 C 0.00929 0.61934 0.55326 0.0
C1455 C 0.01157 0.67326 0.6018 0.0
H1456 H 0.94428 0.66289 0.55351 0.0
H1457 H 0.94685 0.62768 0.6056 0.0
H1458 H 0.99675 0.67735 0.55489 0.0
H1459 H 0.99573 0.6586 0.53774 0.0
H1460 H 0.97453 0.67475 0.53801 0.0
H1461 H 0.97849 0.61809 0.62024 0.0
H1462 H 0.99888 0.61499 0.60143 0.0
H1463 H 0.99968 0.63414 0.61804 0.0
H1464 H 0.05139 0.62261 0.55666 0.0
H1465 H 0.05336 0.66768 0.59791 0.0
H1466 H 0.99844 0.62614 0.54246 0.0
H1467 H 0.99957 0.6109 0.5636 0.0
H1468 H 0.0199 0.61034 0.54441 0.0
H1469 H 0.00067 0.68124 0.59213 0.0
H1470 H 0.02294 0.68263 0.60912 0.0
H1471 H 0.00203 0.66677 0.61395 0.0
C1472 C 0.9541 0.65631 0.92372 0.0
C1473 C 0.94359 0.64007 0.92786 0.0
C1474 C 0.97613 0.65718 0.92399 0.0
C1475 C 0.98787 0.64137 0.9282 0.0
C1476 C 0.97731 0.62497 0.93253 0.0
C1477 C 0.95528 0.62455 0.93245 0.0
C1478 C 0.98682 0.67497 0.91961 0.0
C1479 C 0.98929 0.60778 0.93683 0.0
C1480 C 0.04393 0.63847 0.90862 0.0
C1481 C 0.05554 0.64147 0.9265 0.0
C1482 C 0.02189 0.63852 0.90894 0.0
C1483 C 0.01122 0.64183 0.92756 0.0
C1484 C 0.02287 0.6452 0.9456 0.0
C1485 C 0.04491 0.64488 0.94487 0.0
C1486 C 0.01002 0.63467 0.88943 0.0
C1487 C 0.01205 0.64902 0.96568 0.0
H1488 H 0.94505 0.66835 0.92034 0.0
H1489 H 0.94717 0.61195 0.93544 0.0
H1490 H 0.99756 0.67853 0.93234 0.0
H1491 H 0.99653 0.67378 0.90559 0.0
H1492 H 0.97541 0.68616 0.91746 0.0
H1493 H 0.97872 0.59621 0.94019 0.0
H1494 H 0.99919 0.60425 0.92345 0.0
H1495 H -1e-05 0.60976 0.95003 0.0
H1496 H 0.0521 0.63562 0.89444 0.0
H1497 H 0.05386 0.64738 0.95868 0.0
H1498 H 0.99926 0.64603 0.88587 0.0
H1499 H 0.0002 0.62241 0.89138 0.0
H1500 H 0.02067 0.63258 0.87618 0.0
H1501 H 0.00126 0.6607 0.96399 0.0
H1502 H 0.02339 0.652 0.97814 0.0
H1503 H 0.00238 0.63723 0.97024 0.0
C1504 C 0.04273 0.37028 0.40628 0.0
C1505 C 0.05467 0.36122 0.42115 0.0
C1506 C 0.0207 0.36984 0.40664 0.0
C1507 C 0.01026 0.36043 0.42249 0.0
C1508 C 0.02212 0.35125 0.43755 0.0
C1509 C 0.04415 0.3516 0.43659 0.0
C1510 C 0.00859 0.37961 0.39015 0.0
C1511 C 0.01154 0.34125 0.45483 0.0
C1512 C 0.95437 0.37507 0.43415 0.0
C1513 C 0.94251 0.36147 0.4246 0.0
C1514 C 0.9764 0.37469 0.43391 0.0
C1515 C 0.98692 0.36056 0.42354 0.0
C1516 C 0.97513 0.34678 0.41387 0.0
C1517 C 0.95309 0.34732 0.41467 0.0
C1518 C 0.98844 0.38952 0.4446 0.0
C1519 C 0.98579 0.3316 0.40246 0.0
H1520 H 0.05058 0.37803 0.3945 0.0
H1521 H 0.05314 0.34427 0.44794 0.0
H1522 H 0.99748 0.37018 0.38259 0.0
H1523 H 0.99913 0.39063 0.39703 0.0
H1524 H 0.01905 0.38552 0.37832 0.0
H1525 H 0.02302 0.33483 0.46535 0.0
H1526 H 0.0016 0.35071 0.46376 0.0
H1527 H 0.00104 0.33062 0.44863 0.0
H1528 H 0.94645 0.38625 0.44154 0.0
H1529 H 0.94416 0.33657 0.40754 0.0
H1530 H 0.99783 0.39724 0.43331 0.0
H1531 H 0.9996 0.3836 0.45578 0.0
H1532 H 0.97792 0.39907 0.45279 0.0
H1533 H 0.99566 0.33721 0.39 0.0
H1534 H 0.97435 0.32195 0.39571 0.0
H1535 H 0.99637 0.32407 0.41289 0.0
C1536 C 0.45607 0.84418 0.078 0.0
C1537 C 0.44548 0.85969 0.0712 0.0
C1538 C 0.47811 0.84336 0.07804 0.0
C1539 C 0.48985 0.85849 0.07136 0.0
C1540 C 0.47928 0.87406 0.06417 0.0
C1541 C 0.45726 0.87442 0.06403 0.0
C1542 C 0.48883 0.82644 0.08561 0.0
C1543 C 0.49125 0.89051 0.05701 0.0
C1544 C 0.54547 0.86457 0.09115 0.0
C1545 C 0.55743 0.85954 0.07409 0.0
C1546 C 0.52345 0.86418 0.0905 0.0
C1547 C 0.51319 0.85831 0.07247 0.0
C1548 C 0.52522 0.85282 0.05536 0.0
C1549 C 0.54723 0.85368 0.05631 0.0
C1550 C 0.51117 0.87043 0.10893 0.0
C1551 C 0.51484 0.84616 0.03602 0.0
H1552 H 0.44715 0.83281 0.08379 0.0
H1553 H 0.44924 0.88632 0.05836 0.0
H1554 H 0.50017 0.82148 0.07401 0.0
H1555 H 0.49789 0.82949 0.09968 0.0
H1556 H 0.47748 0.81546 0.08907 0.0
H1557 H 0.48067 0.90147 0.05168 0.0
H1558 H 0.50111 0.8958 0.06965 0.0
H1559 H 0.50197 0.8868 0.04432 0.0
H1560 H 0.55338 0.86927 0.10483 0.0
H1561 H 0.55652 0.84965 0.04318 0.0
H1562 H 0.50045 0.85957 0.11419 0.0
H1563 H 0.50127 0.88221 0.10475 0.0
H1564 H 0.52154 0.87436 0.12185 0.0
H1565 H 0.50411 0.83477 0.03955 0.0
H1566 H 0.52646 0.8416 0.02444 0.0
H1567 H 0.50518 0.8571 0.02924 0.0
C1568 C 0.54385 0.13222 0.59118 0.0
C1569 C 0.55583 0.14193 0.57689 0.0
C1570 C 0.52183 0.13282 0.5909 0.0
C1571 C 0.51145 0.14315 0.57576 0.0
C1572 C 0.52337 0.15302 0.56132 0.0
C1573 C 0.5454 0.15239 0.56214 0.0
C1574 C 0.50966 0.12222 0.60668 0.0
C1575 C 0.51285 0.16407 0.54484 0.0
C1576 C 0.45539 0.12962 0.56325 0.0
C1577 C 0.44372 0.14257 0.57407 0.0
C1578 C 0.47742 0.12987 0.56338 0.0
C1579 C 0.48811 0.14326 0.5748 0.0
C1580 C 0.47649 0.15643 0.58566 0.0
C1581 C 0.45445 0.15599 0.58509 0.0
C1582 C 0.48926 0.11564 0.5515 0.0
C1583 C 0.48735 0.17086 0.5981 0.0
H1584 H 0.55167 0.12382 0.60241 0.0
H1585 H 0.55446 0.16018 0.55123 0.0
H1586 H 0.49873 0.13128 0.61501 0.0
H1587 H 0.49999 0.11174 0.59902 0.0
H1588 H 0.52009 0.11549 0.61796 0.0
H1589 H 0.52437 0.17106 0.53483 0.0
H1590 H 0.50286 0.15521 0.53521 0.0
H1591 H 0.5024 0.17435 0.55184 0.0
H1592 H 0.44729 0.11902 0.55497 0.0
H1593 H 0.4456 0.16621 0.59325 0.0
H1594 H 0.49869 0.10723 0.56212 0.0
H1595 H 0.50039 0.12215 0.54071 0.0
H1596 H 0.47862 0.10664 0.5427 0.0
H1597 H 0.49711 0.16449 0.61016 0.0
H1598 H 0.47604 0.18025 0.60549 0.0
H1599 H 0.49806 0.17882 0.58822 0.0
C1600 C 0.54502 0.12692 0.93538 0.0
C1601 C 0.55657 0.13997 0.9246 0.0
C1602 C 0.52298 0.1271 0.93538 0.0
C1603 C 0.51218 0.14046 0.92404 0.0
C1604 C 0.52368 0.15371 0.91317 0.0
C1605 C 0.54572 0.15339 0.9137 0.0
C1606 C 0.51126 0.11283 0.94731 0.0
C1607 C 0.51269 0.16808 0.90076 0.0
C1608 C 0.45644 0.1293 0.90775 0.0
C1609 C 0.44446 0.13913 0.92194 0.0
C1610 C 0.47846 0.12988 0.90805 0.0
C1611 C 0.48884 0.14026 0.92314 0.0
C1612 C 0.47692 0.15018 0.93756 0.0
C1613 C 0.4549 0.14961 0.93668 0.0
C1614 C 0.49063 0.11925 0.89229 0.0
C1615 C 0.48745 0.16125 0.95402 0.0
H1616 H 0.55318 0.11631 0.94356 0.0
H1617 H 0.55446 0.16371 0.90559 0.0
H1618 H 0.5001 0.1193 0.95809 0.0
H1619 H 0.50189 0.10434 0.93672 0.0
H1620 H 0.52198 0.10391 0.95612 0.0
H1621 H 0.52392 0.17748 0.89327 0.0
H1622 H 0.50287 0.16166 0.88878 0.0
H1623 H 0.50202 0.17604 0.91069 0.0
H1624 H 0.44862 0.12089 0.89653 0.0
H1625 H 0.44585 0.1575 0.94751 0.0
H1626 H 0.50037 0.10884 0.89996 0.0
H1627 H 0.50148 0.12833 0.88389 0.0
H1628 H 0.48019 0.11244 0.88107 0.0
H1629 H 0.4976 0.15244 0.96354 0.0
H1630 H 0.47593 0.16812 0.96413 0.0
H1631 H 0.49773 0.17163 0.94699 0.0
C1632 C 0.45357 0.84392 0.4189 0.0
C1633 C 0.44305 0.85974 0.42478 0.0
C1634 C 0.4756 0.84314 0.41863 0.0
C1635 C 0.48737 0.85856 0.42435 0.0
C1636 C 0.47685 0.87451 0.4305 0.0
C1637 C 0.45482 0.8749 0.43064 0.0
C1638 C 0.48627 0.82588 0.41204 0.0
C1639 C 0.48887 0.89125 0.43662 0.0
C1640 C 0.54463 0.85299 0.43949 0.0
C1641 C 0.55502 0.8582 0.42152 0.0
C1642 C 0.52261 0.85294 0.44062 0.0
C1643 C 0.5107 0.85821 0.42334 0.0
C1644 C 0.52107 0.86339 0.40513 0.0
C1645 C 0.54309 0.86336 0.40445 0.0
C1646 C 0.51208 0.84733 0.4603 0.0
C1647 C 0.50891 0.86913 0.3864 0.0
H1648 H 0.44455 0.8321 0.41459 0.0
H1649 H 0.44679 0.88724 0.43494 0.0
H1650 H 0.49595 0.82842 0.39824 0.0
H1651 H 0.49704 0.82111 0.42424 0.0
H1652 H 0.47486 0.81496 0.40855 0.0
H1653 H 0.47833 0.90238 0.44159 0.0
H1654 H 0.49986 0.88807 0.44928 0.0
H1655 H 0.49845 0.89608 0.42356 0.0
H1656 H 0.55374 0.84878 0.45266 0.0
H1657 H 0.55098 0.8677 0.39062 0.0
H1658 H 0.50147 0.8357 0.45747 0.0
H1659 H 0.50225 0.85856 0.46619 0.0
H1660 H 0.52359 0.84347 0.47229 0.0
H1661 H 0.49803 0.8582 0.38165 0.0
H1662 H 0.51935 0.87245 0.37332 0.0
H1663 H 0.49919 0.88116 0.38999 0.0
C1664 C 0.21564 0.3697 0.20378 0.0
C1665 C 0.19575 0.37148 0.19472 0.0
C1666 C 0.21801 0.37006 0.22513 0.0
C1667 C 0.20007 0.37216 0.23769 0.0
C1668 C 0.18 0.37412 0.22864 0.0
C1669 C 0.17811 0.37384 0.2073 0.0
C1670 C 0.23966 0.36802 0.23426 0.0
C1671 C 0.16048 0.37641 0.24151 0.0
C1672 C 0.19968 0.35605 0.29275 0.0
C1673 C 0.20099 0.37242 0.30345 0.0
C1674 C 0.20012 0.3557 0.27131 0.0
C1675 C 0.20206 0.37211 0.26034 0.0
C1676 C 0.20432 0.3886 0.27109 0.0
C1677 C 0.20366 0.38856 0.29253 0.0
C1678 C 0.19752 0.33787 0.26039 0.0
C1679 C 0.20667 0.40634 0.25994 0.0
H1680 H 0.22932 0.3677 0.19419 0.0
H1681 H 0.16275 0.37557 0.20043 0.0
H1682 H 0.24318 0.37965 0.24439 0.0
H1683 H 0.24029 0.35566 0.24383 0.0
H1684 H 0.25209 0.36711 0.22238 0.0
H1685 H 0.14604 0.37773 0.23208 0.0
H1686 H 0.15859 0.36463 0.25184 0.0
H1687 H 0.16196 0.3886 0.25127 0.0
H1688 H 0.19739 0.34357 0.30113 0.0
H1689 H 0.20493 0.40122 0.30078 0.0
H1690 H 0.21018 0.33602 0.24893 0.0
H1691 H 0.18236 0.33776 0.25203 0.0
H1692 H 0.19777 0.32622 0.2711 0.0
H1693 H 0.2195 0.40545 0.24851 0.0
H1694 H 0.21006 0.41772 0.27051 0.0
H1695 H 0.19198 0.40942 0.25151 0.0
C1696 C 0.79973 0.64805 0.70705 0.0
C1697 C 0.79756 0.63222 0.69548 0.0
C1698 C 0.79868 0.64761 0.72845 0.0
C1699 C 0.79562 0.63089 0.73852 0.0
C1700 C 0.7926 0.61496 0.72688 0.0
C1701 C 0.79351 0.61583 0.70545 0.0
C1702 C 0.8017 0.66493 0.7403 0.0
C1703 C 0.78948 0.59686 0.73707 0.0
C1704 C 0.81924 0.6268 0.79152 0.0
C1705 C 0.80154 0.62859 0.80416 0.0
C1706 C 0.81743 0.62728 0.77018 0.0
C1707 C 0.79745 0.62987 0.76116 0.0
C1708 C 0.7795 0.6318 0.77375 0.0
C1709 C 0.78175 0.63107 0.79511 0.0
C1710 C 0.83696 0.62515 0.75729 0.0
C1711 C 0.75798 0.63471 0.76466 0.0
H1712 H 0.80261 0.66077 0.69932 0.0
H1713 H 0.79199 0.60356 0.69653 0.0
H1714 H 0.78897 0.66661 0.75172 0.0
H1715 H 0.81677 0.66437 0.7488 0.0
H1716 H 0.80194 0.67698 0.73019 0.0
H1717 H 0.78558 0.58605 0.7259 0.0
H1718 H 0.80405 0.59297 0.74527 0.0
H1719 H 0.77672 0.59766 0.74858 0.0
H1720 H 0.83466 0.62528 0.79832 0.0
H1721 H 0.76796 0.63228 0.80473 0.0
H1722 H 0.83954 0.63752 0.74805 0.0
H1723 H 0.83499 0.61374 0.74646 0.0
H1724 H 0.85122 0.62266 0.76667 0.0
H1725 H 0.75796 0.64714 0.75518 0.0
H1726 H 0.7456 0.63599 0.77655 0.0
H1727 H 0.75389 0.62328 0.75444 0.0
C1728 C 0.18042 0.63726 0.79301 0.0
C1729 C 0.19702 0.63125 0.80531 0.0
C1730 C 0.182 0.63704 0.77164 0.0
C1731 C 0.20057 0.63045 0.76234 0.0
C1732 C 0.21753 0.62461 0.77469 0.0
C1733 C 0.2156 0.62519 0.79608 0.0
C1734 C 0.16366 0.64361 0.75902 0.0
C1735 C 0.23747 0.61733 0.76531 0.0
C1736 C 0.1923 0.61317 0.70841 0.0
C1737 C 0.19889 0.62796 0.69668 0.0
C1738 C 0.19371 0.61347 0.7298 0.0
C1739 C 0.2017 0.62903 0.73969 0.0
C1740 C 0.20914 0.64374 0.72788 0.0
C1741 C 0.20775 0.64298 0.70647 0.0
C1742 C 0.18588 0.59741 0.74182 0.0
C1743 C 0.21759 0.66062 0.73788 0.0
H1744 H 0.16616 0.6422 0.80014 0.0
H1745 H 0.2284 0.62044 0.80559 0.0
H1746 H 0.16891 0.65429 0.74826 0.0
H1747 H 0.15731 0.63233 0.74972 0.0
H1748 H 0.15077 0.64912 0.76862 0.0
H1749 H 0.24954 0.61407 0.77701 0.0
H1750 H 0.23392 0.60489 0.75649 0.0
H1751 H 0.24414 0.62729 0.75443 0.0
H1752 H 0.18567 0.60145 0.70083 0.0
H1753 H 0.21271 0.65449 0.69742 0.0
H1754 H 0.17162 0.60126 0.75055 0.0
H1755 H 0.1979 0.59304 0.75306 0.0
H1756 H 0.18192 0.58577 0.73182 0.0
H1757 H 0.20472 0.6676 0.74615 0.0
H1758 H 0.22443 0.67017 0.72658 0.0
H1759 H 0.22981 0.65714 0.7493 0.0
C1760 C 0.78858 0.36556 0.20649 0.0
C1761 C 0.80648 0.3728 0.19702 0.0
C1762 C 0.78658 0.36547 0.22788 0.0
C1763 C 0.80294 0.37267 0.24007 0.0
C1764 C 0.8208 0.38038 0.2306 0.0
C1765 C 0.82229 0.38044 0.20921 0.0
C1766 C 0.76721 0.35728 0.23744 0.0
C1767 C 0.83861 0.38816 0.24306 0.0
C1768 C 0.79455 0.38508 0.29585 0.0
C1769 C 0.80328 0.3701 0.30591 0.0
C1770 C 0.79365 0.38584 0.27441 0.0
C1771 C 0.80196 0.37141 0.26275 0.0
C1772 C 0.81038 0.3561 0.27278 0.0
C1773 C 0.81076 0.35556 0.2942 0.0
C1774 C 0.78432 0.4023 0.26425 0.0
C1775 C 0.81951 0.34047 0.26088 0.0
H1776 H 0.77637 0.35948 0.19721 0.0
H1777 H 0.83598 0.3864 0.20202 0.0
H1778 H 0.7716 0.34502 0.24621 0.0
H1779 H 0.76003 0.36693 0.24838 0.0
H1780 H 0.75525 0.35346 0.22585 0.0
H1781 H 0.85114 0.39411 0.23333 0.0
H1782 H 0.83262 0.39877 0.25351 0.0
H1783 H 0.84569 0.37742 0.25268 0.0
H1784 H 0.78894 0.39648 0.30469 0.0
H1785 H 0.81711 0.34375 0.30179 0.0
H1786 H 0.77228 0.3982 0.2529 0.0
H1787 H 0.79676 0.40972 0.25585 0.0
H1788 H 0.77698 0.41166 0.27544 0.0
H1789 H 0.80767 0.33503 0.25008 0.0
H1790 H 0.82491 0.32934 0.27098 0.0
H1791 H 0.83307 0.34522 0.25166 0.0
C1792 C 0.71733 0.86513 0.29335 0.0
C1793 C 0.70019 0.87309 0.30335 0.0
C1794 C 0.71833 0.8646 0.27191 0.0
C1795 C 0.70164 0.87196 0.26027 0.0
C1796 C 0.68439 0.88014 0.27032 0.0
C1797 C 0.68394 0.88069 0.29173 0.0
C1798 C 0.7371 0.856 0.26171 0.0
C1799 C 0.66614 0.88791 0.25847 0.0
C1800 C 0.70828 0.88408 0.20422 0.0
C1801 C 0.69893 0.8692 0.19451 0.0
C1802 C 0.70991 0.8849 0.2256 0.0
C1803 C 0.70174 0.87061 0.23759 0.0
C1804 C 0.69265 0.85541 0.2279 0.0
C1805 C 0.6915 0.85483 0.2065 0.0
C1806 C 0.71987 0.90127 0.23539 0.0
C1807 C 0.68365 0.83994 0.24015 0.0
H1808 H 0.72997 0.85935 0.30233 0.0
H1809 H 0.67052 0.88661 0.29943 0.0
H1810 H 0.73203 0.84403 0.25278 0.0
H1811 H 0.74436 0.86564 0.25081 0.0
H1812 H 0.74921 0.85167 0.27292 0.0
H1813 H 0.65414 0.89413 0.2686 0.0
H1814 H 0.67181 0.89831 0.24758 0.0
H1815 H 0.65852 0.87711 0.24935 0.0
H1816 H 0.71384 0.89536 0.19515 0.0
H1817 H 0.68463 0.84311 0.19915 0.0
H1818 H 0.73228 0.89704 0.2463 0.0
H1819 H 0.70788 0.90883 0.24423 0.0
H1820 H 0.72692 0.91054 0.22393 0.0
H1821 H 0.69578 0.83434 0.25055 0.0
H1822 H 0.67767 0.82887 0.23028 0.0
H1823 H 0.67055 0.8449 0.24984 0.0
C1824 C 0.28603 0.13581 0.79227 0.0
C1825 C 0.30383 0.12891 0.80225 0.0
C1826 C 0.28491 0.13633 0.77082 0.0
C1827 C 0.30194 0.12969 0.75909 0.0
C1828 C 0.31986 0.1226 0.76905 0.0
C1829 C 0.32063 0.12239 0.79046 0.0
C1830 C 0.26559 0.14406 0.76071 0.0
C1831 C 0.33836 0.1154 0.7571 0.0
C1832 C 0.2949 0.11591 0.70356 0.0
C1833 C 0.30391 0.13062 0.69328 0.0
C1834 C 0.29356 0.11565 0.72499 0.0
C1835 C 0.30137 0.13047 0.73637 0.0
C1836 C 0.30987 0.1456 0.72605 0.0
C1837 C 0.31104 0.14548 0.70464 0.0
C1838 C 0.28447 0.09924 0.73547 0.0
C1839 C 0.31824 0.16172 0.73763 0.0
H1840 H 0.27289 0.1407 0.80123 0.0
H1841 H 0.33464 0.11739 0.79798 0.0
H1842 H 0.27001 0.15575 0.75101 0.0
H1843 H 0.25836 0.13381 0.75053 0.0
H1844 H 0.25365 0.14857 0.77199 0.0
H1845 H 0.35083 0.10984 0.76717 0.0
H1846 H 0.3331 0.10461 0.7465 0.0
H1847 H 0.34526 0.12635 0.74765 0.0
H1848 H 0.28951 0.10432 0.69488 0.0
H1849 H 0.31769 0.15703 0.69675 0.0
H1850 H 0.27195 0.10334 0.74632 0.0
H1851 H 0.2969 0.09239 0.74448 0.0
H1852 H 0.2778 0.08939 0.72442 0.0
H1853 H 0.30611 0.16695 0.74827 0.0
H1854 H 0.32318 0.17284 0.72729 0.0
H1855 H 0.33195 0.15759 0.747 0.0
C1856 C 0.67897 0.13419 0.79107 0.0
C1857 C 0.69678 0.13154 0.8033 0.0
C1858 C 0.68047 0.13428 0.7697 0.0
C1859 C 0.70023 0.13144 0.7603 0.0
C1860 C 0.71834 0.12897 0.77257 0.0
C1861 C 0.71641 0.12916 0.79397 0.0
C1862 C 0.66083 0.13721 0.75717 0.0
C1863 C 0.73962 0.12572 0.76309 0.0
C1864 C 0.69682 0.11344 0.70614 0.0
C1865 C 0.6995 0.12921 0.69457 0.0
C1866 C 0.69795 0.11385 0.72754 0.0
C1867 C 0.70164 0.13047 0.73763 0.0
C1868 C 0.7051 0.14633 0.726 0.0
C1869 C 0.70408 0.1455 0.70457 0.0
C1870 C 0.69444 0.09659 0.73938 0.0
C1871 C 0.70891 0.16433 0.7362 0.0
H1872 H 0.66383 0.13629 0.79827 0.0
H1873 H 0.73018 0.12702 0.80342 0.0
H1874 H 0.6631 0.14873 0.74653 0.0
H1875 H 0.65759 0.12507 0.74773 0.0
H1876 H 0.64685 0.13998 0.76684 0.0
H1877 H 0.75226 0.12466 0.77474 0.0
H1878 H 0.7393 0.11304 0.75405 0.0
H1879 H 0.74358 0.13684 0.75239 0.0
H1880 H 0.69353 0.10079 0.69841 0.0
H1881 H 0.70599 0.15774 0.69567 0.0
H1882 H 0.67957 0.09759 0.74817 0.0
H1883 H 0.70732 0.09451 0.75055 0.0
H1884 H 0.69351 0.08458 0.72924 0.0
H1885 H 0.69458 0.16852 0.74462 0.0
H1886 H 0.71297 0.17508 0.72502 0.0
H1887 H 0.7218 0.16322 0.74753 0.0
C1888 C 0.32276 0.86634 0.20918 0.0
C1889 C 0.30567 0.86968 0.19617 0.0
C1890 C 0.32039 0.86654 0.23047 0.0
C1891 C 0.30036 0.86991 0.23905 0.0
C1892 C 0.2829 0.87283 0.22606 0.0
C1893 C 0.28577 0.87276 0.20475 0.0
C1894 C 0.33942 0.86337 0.2438 0.0
C1895 C 0.26127 0.87629 0.23467 0.0
C1896 C 0.29488 0.85545 0.29445 0.0
C1897 C 0.29884 0.8717 0.30481 0.0
C1898 C 0.29432 0.85481 0.27301 0.0
C1899 C 0.298 0.87077 0.26165 0.0
C1900 C 0.3012 0.88734 0.272 0.0
C1901 C 0.30147 0.88762 0.29344 0.0
C1902 C 0.29069 0.83691 0.26252 0.0
C1903 C 0.30522 0.90465 0.26043 0.0
H1904 H 0.33809 0.86353 0.20271 0.0
H1905 H 0.27251 0.87548 0.19484 0.0
H1906 H 0.34215 0.8753 0.25372 0.0
H1907 H 0.33669 0.85162 0.25398 0.0
H1908 H 0.35386 0.86083 0.23471 0.0
H1909 H 0.24915 0.87741 0.22252 0.0
H1910 H 0.25676 0.86523 0.24524 0.0
H1911 H 0.26134 0.889 0.24367 0.0
H1912 H 0.29303 0.84304 0.30305 0.0
H1913 H 0.30413 0.9003 0.30132 0.0
H1914 H 0.30535 0.83252 0.25479 0.0
H1915 H 0.27842 0.83825 0.25058 0.0
H1916 H 0.28585 0.82618 0.27343 0.0
H1917 H 0.32032 0.90359 0.25204 0.0
H1918 H 0.30598 0.91659 0.2707 0.0
H1919 H 0.2927 0.90693 0.24893 0.0
C1920 C 0.25585 0.21495 0.97876 0.0
C1921 C 0.27602 0.2154 0.97009 0.0
C1922 C 0.24768 0.22993 0.98921 0.0
C1923 C 0.25981 0.24589 0.99078 0.0
C1924 C 0.28002 0.24659 0.98179 0.0
C1925 C 0.28793 0.23131 0.97169 0.0
C1926 C 0.22611 0.22862 0.99872 0.0
C1927 C 0.29334 0.26344 0.983 0.0
C1928 C 0.23031 0.28919 0.00285 0.0
C1929 C 0.23395 0.29108 0.02391 0.0
C1930 C 0.239 0.27477 0.99179 0.0
C1931 C 0.25141 0.26176 0.00206 0.0
C1932 C 0.25534 0.26366 0.02325 0.0
C1933 C 0.24669 0.27835 0.03388 0.0
C1934 C 0.23462 0.27328 0.96916 0.0
C1935 C 0.2684 0.25 0.03476 0.0
H1936 H 0.24635 0.20287 0.97732 0.0
H1937 H 0.30364 0.23174 0.96533 0.0
H1938 H 0.22716 0.23114 0.01541 0.0
H1939 H 0.21566 0.23914 0.9922 0.0
H1940 H 0.21875 0.21519 0.99624 0.0
H1941 H 0.3084 0.262 0.97459 0.0
H1942 H 0.2846 0.27511 0.97659 0.0
H1943 H 0.29687 0.26664 0.9992 0.0
H1944 H 0.22026 0.29878 0.99504 0.0
H1945 H 0.24991 0.27984 0.05005 0.0
H1946 H 0.22559 0.26077 0.96601 0.0
H1947 H 0.2496 0.27231 0.96055 0.0
H1948 H 0.22556 0.285 0.96326 0.0
H1949 H 0.261 0.23646 0.03366 0.0
H1950 H 0.27017 0.25354 0.05118 0.0
H1951 H 0.28425 0.24896 0.02783 0.0
C1952 C 0.77096 0.71096 0.5021 0.0
C1953 C 0.76857 0.71014 0.52337 0.0
C1954 C 0.76264 0.72544 0.49084 0.0
C1955 C 0.75146 0.73927 0.50112 0.0
C1956 C 0.74859 0.73826 0.52255 0.0
C1957 C 0.7573 0.72376 0.53343 0.0
C1958 C 0.76617 0.72614 0.46804 0.0
C1959 C 0.73652 0.75261 0.53402 0.0
C1960 C 0.74691 0.78579 0.47701 0.0
C1961 C 0.72656 0.78528 0.46884 0.0
C1962 C 0.75533 0.77081 0.48731 0.0
C1963 C 0.74304 0.75498 0.48957 0.0
C1964 C 0.72254 0.75434 0.48124 0.0
C1965 C 0.71456 0.76949 0.47095 0.0
C1966 C 0.77732 0.77194 0.49586 0.0
C1967 C 0.70891 0.73776 0.48348 0.0
H1968 H 0.77985 0.70051 0.49434 0.0
H1969 H 0.75527 0.72304 0.54987 0.0
H1970 H 0.7509 0.727 0.45993 0.0
H1971 H 0.77523 0.73845 0.46405 0.0
H1972 H 0.77484 0.71414 0.46231 0.0
H1973 H 0.73511 0.7495 0.55058 0.0
H1974 H 0.74447 0.76586 0.5323 0.0
H1975 H 0.72051 0.75401 0.5275 0.0
H1976 H 0.75635 0.79787 0.4752 0.0
H1977 H 0.69871 0.7691 0.46489 0.0
H1978 H 0.78711 0.76086 0.48956 0.0
H1979 H 0.77691 0.77022 0.5127 0.0
H1980 H 0.78502 0.78504 0.49232 0.0
H1981 H 0.71703 0.7258 0.47701 0.0
H1982 H 0.69349 0.7393 0.47572 0.0
H1983 H 0.70609 0.73496 0.49992 0.0
C1984 C 0.27738 0.76917 0.03637 0.0
C1985 C 0.27129 0.78674 0.03095 0.0
C1986 C 0.26866 0.75405 0.02659 0.0
C1987 C 0.25344 0.75657 0.01107 0.0
C1988 C 0.24694 0.77425 0.00579 0.0
C1989 C 0.25597 0.78912 0.01578 0.0
C1990 C 0.27604 0.73539 0.03257 0.0
C1991 C 0.23064 0.77747 0.98943 0.0
C1992 C 0.24589 0.71977 0.97129 0.0
C1993 C 0.22769 0.71112 0.97837 0.0
C1994 C 0.25452 0.73449 0.98188 0.0
C1995 C 0.24469 0.74073 0.99996 0.0
C1996 C 0.22638 0.732 0.00726 0.0
C1997 C 0.21812 0.71728 0.99639 0.0
C1998 C 0.27413 0.7434 0.97368 0.0
C1999 C 0.21539 0.73834 0.02642 0.0
H2000 H 0.28938 0.76726 0.04793 0.0
H2001 H 0.25101 0.80267 0.01173 0.0
H2002 H 0.26245 0.72694 0.03717 0.0
H2003 H 0.28352 0.72871 0.01925 0.0
H2004 H 0.2875 0.73572 0.04536 0.0
H2005 H 0.22685 0.79203 0.98757 0.0
H2006 H 0.23637 0.77217 0.97458 0.0
H2007 H 0.21597 0.77009 0.9932 0.0
H2008 H 0.2535 0.71492 0.95752 0.0
H2009 H 0.2039 0.71078 0.00179 0.0
H2010 H 0.28672 0.74304 0.9854 0.0
H2011 H 0.27093 0.75781 0.97022 0.0
H2012 H 0.28002 0.73674 0.95958 0.0
H2013 H 0.22643 0.73804 0.03953 0.0
H2014 H 0.2015 0.72991 0.03022 0.0
H2015 H 0.21018 0.75254 0.0245 0.0
C2016 C 0.74674 0.21142 0.51732 0.0
C2017 C 0.72862 0.2128 0.52946 0.0
C2018 C 0.75527 0.22663 0.50755 0.0
C2019 C 0.74557 0.24369 0.51009 0.0
C2020 C 0.7275 0.24526 0.52257 0.0
C2021 C 0.71919 0.2298 0.53202 0.0
C2022 C 0.77453 0.2244 0.49432 0.0
C2023 C 0.71675 0.26324 0.52571 0.0
C2024 C 0.77781 0.28561 0.49798 0.0
C2025 C 0.77074 0.28994 0.47827 0.0
C2026 C 0.76963 0.27069 0.50861 0.0
C2027 C 0.75404 0.25982 0.49928 0.0
C2028 C 0.74669 0.26421 0.47947 0.0
C2029 C 0.75508 0.27923 0.46924 0.0
C2030 C 0.77782 0.26645 0.52973 0.0
C2031 C 0.73007 0.25296 0.46901 0.0
H2032 H 0.75435 0.19842 0.51551 0.0
H2033 H 0.70502 0.23099 0.5411 0.0
H2034 H 0.77092 0.22855 0.4784 0.0
H2035 H 0.78732 0.23331 0.4999 0.0
H2036 H 0.78034 0.21025 0.49411 0.0
H2037 H 0.70332 0.2623 0.5365 0.0
H2038 H 0.72813 0.27329 0.53169 0.0
H2039 H 0.71088 0.26843 0.51086 0.0
H2040 H 0.79008 0.29366 0.50497 0.0
H2041 H 0.74928 0.28265 0.45415 0.0
H2042 H 0.78525 0.25289 0.5298 0.0
H2043 H 0.76465 0.26607 0.54082 0.0
H2044 H 0.78956 0.27652 0.53506 0.0
H2045 H 0.73565 0.23884 0.46735 0.0
H2046 H 0.72596 0.25826 0.45364 0.0
H2047 H 0.71562 0.25258 0.47848 0.0
C2048 C 0.7451 0.77984 0.02936 0.0
C2049 C 0.72821 0.78968 0.02128 0.0
C2050 C 0.75357 0.76503 0.01882 0.0
C2051 C 0.74492 0.75991 0.99975 0.0
C2052 C 0.72805 0.76993 0.99137 0.0
C2053 C 0.71991 0.78472 0.00223 0.0
C2054 C 0.77165 0.75474 0.02821 0.0
C2055 C 0.71837 0.76484 0.9711 0.0
C2056 C 0.77831 0.73023 0.96525 0.0
C2057 C 0.77023 0.71299 0.96945 0.0
C2058 C 0.77004 0.74567 0.97477 0.0
C2059 C 0.75326 0.74381 0.98882 0.0
C2060 C 0.74481 0.72649 0.99289 0.0
C2061 C 0.7534 0.7113 0.98316 0.0
C2062 C 0.7795 0.76391 0.97009 0.0
C2063 C 0.72686 0.72398 0.00771 0.0
H2064 H 0.75177 0.78377 0.04394 0.0
H2065 H 0.7067 0.79216 0.99602 0.0
H2066 H 0.76696 0.74051 0.03094 0.0
H2067 H 0.78518 0.75453 0.01752 0.0
H2068 H 0.77688 0.76071 0.04293 0.0
H2069 H 0.70574 0.77433 0.96641 0.0
H2070 H 0.7306 0.76463 0.95901 0.0
H2071 H 0.71167 0.75103 0.97203 0.0
H2072 H 0.79148 0.73162 0.95486 0.0
H2073 H 0.74688 0.69805 0.98625 0.0
H2074 H 0.78634 0.76978 0.98421 0.0
H2075 H 0.76712 0.77333 0.96471 0.0
H2076 H 0.79199 0.76313 0.95827 0.0
H2077 H 0.73164 0.72861 0.02315 0.0
H2078 H 0.72172 0.70966 0.00877 0.0
H2079 H 0.71325 0.73234 0.00297 0.0
C2080 C 0.26872 0.21082 0.50122 0.0
C2081 C 0.2681 0.21051 0.52265 0.0
C2082 C 0.2598 0.22517 0.4902 0.0
C2083 C 0.24999 0.23951 0.50088 0.0
C2084 C 0.249 0.23911 0.52249 0.0
C2085 C 0.25809 0.22463 0.53311 0.0
C2086 C 0.26121 0.22515 0.46716 0.0
C2087 C 0.23856 0.25411 0.53441 0.0
C2088 C 0.24532 0.28538 0.47534 0.0
C2089 C 0.22418 0.28553 0.46925 0.0
C2090 C 0.25395 0.27042 0.48547 0.0
C2091 C 0.24119 0.25518 0.48951 0.0
C2092 C 0.21995 0.2551 0.48314 0.0
C2093 C 0.21168 0.27029 0.47314 0.0
C2094 C 0.27669 0.27101 0.49203 0.0
C2095 C 0.20587 0.23907 0.48715 0.0
H2096 H 0.27664 0.20003 0.49308 0.0
H2097 H 0.25733 0.22433 0.54966 0.0
H2098 H 0.24529 0.22635 0.46041 0.0
H2099 H 0.27041 0.23702 0.46194 0.0
H2100 H 0.26876 0.21271 0.46115 0.0
H2101 H 0.23868 0.25154 0.55114 0.0
H2102 H 0.24673 0.26708 0.53142 0.0
H2103 H 0.22204 0.25574 0.52934 0.0
H2104 H 0.25518 0.29697 0.4721 0.0
H2105 H 0.19527 0.27038 0.46873 0.0
H2106 H 0.28538 0.25948 0.48525 0.0
H2107 H 0.27777 0.26965 0.50888 0.0
H2108 H 0.28458 0.28376 0.48742 0.0
H2109 H 0.21292 0.22665 0.48059 0.0
H2110 H 0.18992 0.24088 0.48057 0.0
H2111 H 0.20433 0.23688 0.50386 0.0
C2112 C 0.78168 0.26934 0.03074 0.0
C2113 C 0.77197 0.28629 0.02906 0.0
C2114 C 0.77355 0.25417 0.02059 0.0
C2115 C 0.75527 0.256 0.00844 0.0
C2116 C 0.74528 0.27302 0.00681 0.0
C2117 C 0.75375 0.28796 0.01715 0.0
C2118 C 0.78465 0.23624 0.02267 0.0
C2119 C 0.72572 0.27548 0.99406 0.0
C2120 C 0.74512 0.22164 0.96646 0.0
C2121 C 0.72996 0.21046 0.97553 0.0
C2122 C 0.75357 0.23644 0.97704 0.0
C2123 C 0.74673 0.24015 0.9972 0.0
C2124 C 0.73158 0.22883 0.00653 0.0
C2125 C 0.72336 0.21414 0.99557 0.0
C2126 C 0.76974 0.24818 0.96661 0.0
C2127 C 0.7239 0.23236 0.028 0.0
H2128 H 0.79592 0.268 0.0397 0.0
H2129 H 0.746 0.30096 0.016 0.0
H2130 H 0.77363 0.22589 0.02863 0.0
H2131 H 0.79006 0.23155 0.00744 0.0
H2132 H 0.79844 0.237 0.03305 0.0
H2133 H 0.71973 0.28957 0.99455 0.0
H2134 H 0.72904 0.27188 0.97792 0.0
H2135 H 0.71316 0.26628 0.99953 0.0
H2136 H 0.75052 0.21873 0.9511 0.0
H2137 H 0.71144 0.20572 0.00258 0.0
H2138 H 0.78443 0.24844 0.97572 0.0
H2139 H 0.76392 0.26228 0.96562 0.0
H2140 H 0.77351 0.24339 0.95094 0.0
H2141 H 0.73735 0.23246 0.03878 0.0
H2142 H 0.71238 0.22206 0.0332 0.0
H2143 H 0.71639 0.24586 0.0288 0.0
C2144 C 0.21711 0.72947 0.52892 0.0
C2145 C 0.22753 0.71275 0.52874 0.0
C2146 C 0.22553 0.74455 0.51883 0.0
C2147 C 0.24473 0.74284 0.5081 0.0
C2148 C 0.25536 0.72605 0.50786 0.0
C2149 C 0.2467 0.71124 0.51827 0.0
C2150 C 0.21379 0.76227 0.51951 0.0
C2151 C 0.27583 0.7237 0.4965 0.0
C2152 C 0.2564 0.77651 0.4658 0.0
C2153 C 0.27066 0.78823 0.47538 0.0
C2154 C 0.24787 0.76168 0.47627 0.0
C2155 C 0.25356 0.75858 0.49688 0.0
C2156 C 0.26775 0.77045 0.50673 0.0
C2157 C 0.2762 0.78508 0.49584 0.0
C2158 C 0.23282 0.74928 0.46522 0.0
C2159 C 0.2741 0.76763 0.52874 0.0
H2160 H 0.20214 0.73072 0.53667 0.0
H2161 H 0.25504 0.69848 0.51831 0.0
H2162 H 0.2241 0.77303 0.52574 0.0
H2163 H 0.20925 0.76638 0.50382 0.0
H2164 H 0.19938 0.76149 0.52905 0.0
H2165 H 0.28211 0.70974 0.49778 0.0
H2166 H 0.27357 0.72691 0.48008 0.0
H2167 H 0.28775 0.73325 0.50253 0.0
H2168 H 0.25175 0.77899 0.45012 0.0
H2169 H 0.28744 0.79389 0.50329 0.0
H2170 H 0.2175 0.749 0.47329 0.0
H2171 H 0.23905 0.73528 0.46525 0.0
H2172 H 0.23012 0.75349 0.44914 0.0
H2173 H 0.25996 0.76745 0.53865 0.0
H2174 H 0.28493 0.77832 0.53431 0.0
H2175 H 0.28196 0.75434 0.53046 0.0
C2176 C 0.21337 0.5378 0.98418 0.0
C2177 C 0.19623 0.54094 0.97118 0.0
C2178 C 0.21541 0.52137 0.99475 0.0
C2179 C 0.19997 0.50778 0.99216 0.0
C2180 C 0.18304 0.51066 0.97851 0.0
C2181 C 0.18138 0.5272 0.96821 0.0
C2182 C 0.23365 0.51879 0.00919 0.0
C2183 C 0.16634 0.49646 0.97522 0.0
C2184 C 0.20947 0.4591 0.00812 0.0
C2185 C 0.1982 0.4582 0.02652 0.0
C2186 C 0.21082 0.47532 0.99705 0.0
C2187 C 0.20067 0.49098 0.0046 0.0
C2188 C 0.18995 0.49031 0.02354 0.0
C2189 C 0.18886 0.47394 0.03427 0.0
C2190 C 0.22241 0.47553 0.97693 0.0
C2191 C 0.17902 0.50674 0.03218 0.0
H2192 H 0.22482 0.54843 0.98662 0.0
H2193 H 0.1683 0.52946 0.9579 0.0
H2194 H 0.22776 0.51785 0.02511 0.0
H2195 H 0.24192 0.50595 0.00576 0.0
H2196 H 0.24513 0.53007 0.00831 0.0
H2197 H 0.15485 0.50043 0.96325 0.0
H2198 H 0.17367 0.48346 0.97072 0.0
H2199 H 0.1577 0.4941 0.9897 0.0
H2200 H 0.21659 0.44695 0.00198 0.0
H2201 H 0.18045 0.4734 0.04866 0.0
H2202 H 0.23385 0.48683 0.97656 0.0
H2203 H 0.2111 0.47777 0.96428 0.0
H2204 H 0.23093 0.46268 0.97404 0.0
H2205 H 0.19012 0.51826 0.03308 0.0
H2206 H 0.17244 0.50423 0.04765 0.0
H2207 H 0.16601 0.51082 0.02188 0.0
C2208 C 0.78165 0.53627 0.52419 0.0
C2209 C 0.80169 0.54364 0.52753 0.0
C2210 C 0.77912 0.51985 0.51367 0.0
C2211 C 0.79705 0.51048 0.50651 0.0
C2212 C 0.81729 0.51784 0.5098 0.0
C2213 C 0.81935 0.53436 0.52009 0.0
C2214 C 0.75728 0.51249 0.51027 0.0
C2215 C 0.83684 0.50825 0.50245 0.0
C2216 C 0.79606 0.46007 0.49578 0.0
C2217 C 0.79613 0.45975 0.47435 0.0
C2218 C 0.79552 0.4765 0.5065 0.0
C2219 C 0.79488 0.49298 0.49551 0.0
C2220 C 0.79391 0.49269 0.47389 0.0
C2221 C 0.79464 0.47608 0.46357 0.0
C2222 C 0.79671 0.47624 0.52955 0.0
C2223 C 0.79296 0.50995 0.46163 0.0
H2224 H 0.76792 0.54321 0.53004 0.0
H2225 H 0.83487 0.54009 0.52214 0.0
H2226 H 0.75448 0.51044 0.49369 0.0
H2227 H 0.7557 0.49912 0.51777 0.0
H2228 H 0.74492 0.52162 0.51637 0.0
H2229 H 0.85144 0.51561 0.5066 0.0
H2230 H 0.83759 0.49449 0.50913 0.0
H2231 H 0.83633 0.5067 0.48559 0.0
H2232 H 0.79739 0.44749 0.50417 0.0
H2233 H 0.79441 0.47587 0.447 0.0
H2234 H 0.78407 0.48471 0.53621 0.0
H2235 H 0.81193 0.48207 0.53456 0.0
H2236 H 0.79536 0.46235 0.53584 0.0
H2237 H 0.7802 0.51879 0.46741 0.0
H2238 H 0.7903 0.50737 0.4451 0.0
H2239 H 0.80792 0.51748 0.46337 0.0
C2240 C 0.8241 0.46525 0.01782 0.0
C2241 C 0.80625 0.45722 0.02653 0.0
C2242 C 0.82275 0.48176 0.0074 0.0
C2243 C 0.80304 0.49044 0.00549 0.0
C2244 C 0.78487 0.48228 0.0139 0.0
C2245 C 0.78669 0.46577 0.02436 0.0
C2246 C 0.8425 0.49001 0.99863 0.0
C2247 C 0.76358 0.49111 0.01208 0.0
C2248 C 0.80516 0.54102 0.99638 0.0
C2249 C 0.80308 0.54206 0.97505 0.0
C2250 C 0.8046 0.52434 0.00653 0.0
C2251 C 0.80169 0.50829 0.99513 0.0
C2252 C 0.79879 0.50926 0.9737 0.0
C2253 C 0.79962 0.52613 0.96391 0.0
C2254 C 0.8078 0.52386 0.0294 0.0
C2255 C 0.79552 0.49244 0.96104 0.0
H2256 H 0.83919 0.45857 0.01907 0.0
H2257 H 0.77286 0.45972 0.03117 0.0
H2258 H 0.84063 0.49215 0.98194 0.0
H2259 H 0.84533 0.50343 0.00566 0.0
H2260 H 0.85656 0.48142 0.00122 0.0
H2261 H 0.75087 0.48267 0.01874 0.0
H2262 H 0.76372 0.50435 0.02003 0.0
H2263 H 0.75987 0.49375 0.99579 0.0
H2264 H 0.80743 0.55328 0.00516 0.0
H2265 H 0.79823 0.52675 0.94741 0.0
H2266 H 0.82249 0.51644 0.03302 0.0
H2267 H 0.79469 0.5165 0.03685 0.0
H2268 H 0.80885 0.5376 0.03615 0.0
H2269 H 0.80993 0.48403 0.96144 0.0
H2270 H 0.79179 0.49561 0.94485 0.0
H2271 H 0.78256 0.48421 0.96751 0.0
C2272 C 0.19818 0.47327 0.46354 0.0
C2273 C 0.19407 0.45736 0.47452 0.0
C2274 C 0.19902 0.4901 0.4734 0.0
C2275 C 0.19527 0.49111 0.4947 0.0
C2276 C 0.19148 0.47511 0.50594 0.0
C2277 C 0.19113 0.45843 0.49576 0.0
C2278 C 0.20338 0.50686 0.46094 0.0
C2279 C 0.1872 0.47565 0.52864 0.0
C2280 C 0.21047 0.53311 0.52475 0.0
C2281 C 0.19124 0.54236 0.52585 0.0
C2282 C 0.21214 0.51657 0.51435 0.0
C2283 C 0.1941 0.50898 0.50505 0.0
C2284 C 0.17471 0.51828 0.50595 0.0
C2285 C 0.17357 0.5349 0.51616 0.0
C2286 C 0.23314 0.50712 0.51347 0.0
C2287 C 0.15508 0.51058 0.49632 0.0
H2288 H 0.20018 0.47269 0.44711 0.0
H2289 H 0.18839 0.44621 0.50448 0.0
H2290 H 0.18925 0.51563 0.46077 0.0
H2291 H 0.21631 0.51477 0.46797 0.0
H2292 H 0.20771 0.50363 0.4449 0.0
H2293 H 0.18515 0.46194 0.53526 0.0
H2294 H 0.20029 0.4825 0.53672 0.0
H2295 H 0.17274 0.4836 0.53163 0.0
H2296 H 0.22417 0.53864 0.53233 0.0
H2297 H 0.15875 0.5421 0.51648 0.0
H2298 H 0.23748 0.50433 0.49735 0.0
H2299 H 0.23214 0.49392 0.52143 0.0
H2300 H 0.24585 0.51522 0.52065 0.0
H2301 H 0.15756 0.50852 0.47971 0.0
H2302 H 0.14121 0.51949 0.49847 0.0
H2303 H 0.15153 0.49718 0.50309 0.0
C2304 C 0.68723 0.02571 0.96281 0.0
C2305 C 0.70032 0.04025 0.96787 0.0
C2306 C 0.68905 0.00908 0.97291 0.0
C2307 C 0.70409 0.00707 0.98869 0.0
C2308 C 0.7178 0.02156 0.99343 0.0
C2309 C 0.71586 0.03797 0.98282 0.0
C2310 C 0.67439 0.99387 0.96716 0.0
C2311 C 0.73383 0.02001 0.01034 0.0
C2312 C 0.68986 0.97275 0.0294 0.0
C2313 C 0.70227 0.95784 0.0239 0.0
C2314 C 0.69079 0.98897 0.01841 0.0
C2315 C 0.70424 0.99032 0.00126 0.0
C2316 C 0.71702 0.97546 0.99571 0.0
C2317 C 0.71595 0.95941 0.00715 0.0
C2318 C 0.67697 0.00455 0.02488 0.0
C2319 C 0.73146 0.97638 0.97744 0.0
H2320 H 0.67536 0.02746 0.95109 0.0
H2321 H 0.72589 0.04927 0.98679 0.0
H2322 H 0.68343 0.98133 0.9642 0.0
H2323 H 0.66352 0.99105 0.98003 0.0
H2324 H 0.66489 0.99709 0.95338 0.0
H2325 H 0.74438 0.03195 0.01104 0.0
H2326 H 0.72565 0.01868 0.02525 0.0
H2327 H 0.74354 0.0077 0.00826 0.0
H2328 H 0.67894 0.97161 0.04204 0.0
H2329 H 0.7258 0.94808 0.00293 0.0
H2330 H 0.66534 0.00751 0.0127 0.0
H2331 H 0.68657 0.01691 0.02708 0.0
H2332 H 0.66834 0.00169 0.03928 0.0
H2333 H 0.7221 0.97853 0.96335 0.0
H2334 H 0.74092 0.96387 0.97557 0.0
H2335 H 0.74231 0.98803 0.97893 0.0
C2336 C 0.311 0.96036 0.49378 0.0
C2337 C 0.30193 0.9574 0.47452 0.0
C2338 C 0.31 0.97735 0.50322 0.0
C2339 C 0.29951 0.99172 0.49326 0.0
C2340 C 0.28957 0.98865 0.4742 0.0
C2341 C 0.29096 0.97154 0.46502 0.0
C2342 C 0.3208 0.98006 0.52355 0.0
C2343 C 0.27812 0.00362 0.46319 0.0
C2344 C 0.28674 0.03274 0.52597 0.0
C2345 C 0.3038 0.04412 0.52163 0.0
C2346 C 0.28475 0.01583 0.5164 0.0
C2347 C 0.30021 0.01018 0.50221 0.0
C2348 C 0.31711 0.02183 0.49734 0.0
C2349 C 0.31866 0.03866 0.50706 0.0
C2350 C 0.26646 0.00379 0.5219 0.0
C2351 C 0.33391 0.01633 0.48226 0.0
H2352 H 0.31914 0.94941 0.50141 0.0
H2353 H 0.28405 0.96941 0.45008 0.0
H2354 H 0.33379 0.98994 0.52182 0.0
H2355 H 0.30961 0.98572 0.53486 0.0
H2356 H 0.32738 0.96728 0.52975 0.0
H2357 H 0.26967 0.99866 0.44943 0.0
H2358 H 0.26664 0.01018 0.47357 0.0
H2359 H 0.2895 0.01414 0.45836 0.0
H2360 H 0.27527 0.03681 0.53732 0.0
H2361 H 0.33165 0.04753 0.50333 0.0
H2362 H 0.27228 0.99154 0.52985 0.0
H2363 H 0.25824 0.99923 0.50787 0.0
H2364 H 0.25496 0.01071 0.532 0.0
H2365 H 0.34236 0.00426 0.48805 0.0
H2366 H 0.34554 0.02725 0.47953 0.0
H2367 H 0.32667 0.01256 0.46743 0.0
C2368 C 0.32455 0.96453 0.01309 0.0
C2369 C 0.30838 0.9585 0.02598 0.0
C2370 C 0.32329 0.98127 0.00315 0.0
C2371 C 0.30526 0.99218 0.00587 0.0
C2372 C 0.28864 0.98605 0.01846 0.0
C2373 C 0.29045 0.96933 0.02847 0.0
C2374 C 0.34142 0.98739 0.98994 0.0
C2375 C 0.26906 0.99723 0.02153 0.0
C2376 C 0.31202 0.04237 0.996 0.0
C2377 C 0.30507 0.04397 0.97571 0.0
C2378 C 0.31186 0.02565 0.0061 0.0
C2379 C 0.30412 0.01019 0.99585 0.0
C2380 C 0.29633 0.01179 0.97568 0.0
C2381 C 0.2971 0.0286 0.96577 0.0
C2382 C 0.32052 0.02445 0.02756 0.0
C2383 C 0.28767 0.99565 0.96435 0.0
H2384 H 0.33827 0.95612 0.01069 0.0
H2385 H 0.27796 0.9649 0.03855 0.0
H2386 H 0.33591 0.98988 0.97411 0.0
H2387 H 0.3478 0.00033 0.99584 0.0
H2388 H 0.35434 0.97731 0.98945 0.0
H2389 H 0.25713 0.99015 0.03099 0.0
H2390 H 0.27314 0.01017 0.02911 0.0
H2391 H 0.26195 0.00061 0.00652 0.0
H2392 H 0.31777 0.05419 0.00401 0.0
H2393 H 0.29196 0.02955 0.95002 0.0
H2394 H 0.33428 0.01526 0.02778 0.0
H2395 H 0.30856 0.01867 0.038 0.0
H2396 H 0.32546 0.03783 0.03358 0.0
H2397 H 0.30042 0.98574 0.96154 0.0
H2398 H 0.2806 0.99944 0.94943 0.0
H2399 H 0.27556 0.98877 0.97374 0.0
C2400 C 0.68742 0.03797 0.50605 0.0
C2401 C 0.69425 0.04033 0.52627 0.0
C2402 C 0.68823 0.02099 0.49657 0.0
C2403 C 0.69622 0.00599 0.50749 0.0
C2404 C 0.70381 0.00837 0.52766 0.0
C2405 C 0.70268 0.0255 0.53683 0.0
C2406 C 0.67998 0.01902 0.47503 0.0
C2407 C 0.71256 0.99271 0.53974 0.0
C2408 C 0.67609 0.96014 0.49053 0.0
C2409 C 0.6924 0.95408 0.47783 0.0
C2410 C 0.67737 0.97681 0.50063 0.0
C2411 C 0.69549 0.98767 0.49813 0.0
C2412 C 0.71233 0.9814 0.4859 0.0
C2413 C 0.71056 0.96469 0.47584 0.0
C2414 C 0.65907 0.98302 0.51355 0.0
C2415 C 0.73196 0.99255 0.483 0.0
H2416 H 0.68126 0.04942 0.49764 0.0
H2417 H 0.70783 0.02716 0.55251 0.0
H2418 H 0.69218 0.01297 0.46505 0.0
H2419 H 0.66629 0.00975 0.47495 0.0
H2420 H 0.67506 0.03215 0.46836 0.0
H2421 H 0.71929 0.99706 0.55462 0.0
H2422 H 0.69993 0.98272 0.54273 0.0
H2423 H 0.72496 0.98571 0.53084 0.0
H2424 H 0.66219 0.95186 0.4925 0.0
H2425 H 0.72316 0.96019 0.46594 0.0
H2426 H 0.65231 0.99556 0.50699 0.0
H2427 H 0.66447 0.98625 0.52925 0.0
H2428 H 0.64645 0.97269 0.51452 0.0
H2429 H 0.72805 0.00517 0.47469 0.0
H2430 H 0.74422 0.98519 0.47425 0.0
H2431 H 0.73854 0.99652 0.49804 0.0
loop_
_geom_bond_atom_site_label_1
_geom_bond_atom_site_label_2
_geom_bond_distance
_geom_bond_site_symmetry_2
_ccdc_geom_bond_type
Li0 N17 1.990 . S
Li0 O60 1.956 . S
Li0 O61 1.970 . S
Li0 O62 1.961 . S
Li1 N25 1.990 . S
Li1 O60 1.970 . S
Li1 O61 1.956 . S
Li1 O63 1.961 . S
Li2 N47 1.990 . S
Li2 O60 1.961 . S
Li2 O62 1.956 . S
Li2 O63 1.970 . S
Li3 N53 1.990 . S
Li3 O61 1.961 . S
Li3 O62 1.970 . S
Li3 O63 1.956 . S
C4 C6 1.348 . S
C4 C7 1.356 . S
C4 O60 1.325 . S
N5 C8 1.314 . S
N5 C9 1.279 . S
C6 C4 1.348 . S
C6 C8 1.353 . S
C6 H64 0.929 . S
C7 C4 1.356 . S
C7 C9 1.358 . S
C7 H65 0.930 . S
C8 N5 1.314 . S
C8 C6 1.353 . S
C8 H66 0.930 . S
C9 N5 1.279 . S
C9 C7 1.358 . S
C9 H67 0.930 . S
C10 C13 1.348 . S
C10 C14 1.356 . S
C10 O61 1.325 . S
C11 N12 1.279 . S
C11 C14 1.358 . S
C11 H68 0.930 . S
N12 C11 1.279 . S
N12 C15 1.314 . S
C13 C10 1.348 . S
C13 C15 1.353 . S
C13 H69 0.929 . S
C14 C10 1.356 . S
C14 C11 1.358 . S
C14 H70 0.930 . S
C15 N12 1.314 . S
C15 C13 1.353 . S
C15 H71 0.930 . S
C16 N17 1.314 . S
C16 C21 1.353 . S
C16 H22 0.930 . S
N17 Li0 1.990 . S
N17 C16 1.314 . S
N17 C19 1.279 . S
C18 C19 1.358 . S
C18 C20 1.356 . S
C18 H72 0.930 . S
C19 N17 1.279 . S
C19 C18 1.358 . S
C19 H23 0.930 . S
C20 C18 1.356 . S
C20 C21 1.348 . S
C21 C16 1.353 . S
C21 C20 1.348 . S
C21 H73 0.929 . S
H22 C16 0.930 . S
H23 C19 0.930 . S
C24 N25 1.314 . S
C24 C26 1.353 . S
C24 H30 0.930 . S
N25 Li1 1.990 . S
N25 C24 1.314 . S
N25 C28 1.279 . S
C26 C24 1.353 . S
C26 C29 1.348 . S
C26 H74 0.929 . S
C27 C28 1.358 . S
C27 C29 1.356 . S
C27 H75 0.930 . S
C28 N25 1.279 . S
C28 C27 1.358 . S
C28 H31 0.930 . S
C29 C26 1.348 . S
C29 C27 1.356 . S
H30 C24 0.930 . S
H31 C28 0.930 . S
C32 C34 1.348 . S
C32 C35 1.356 . S
C32 O62 1.325 . S
N33 C36 1.314 . S
N33 C37 1.279 . S
C34 C32 1.348 . S
C34 C36 1.353 . S
C34 H76 0.929 . S
C35 C32 1.356 . S
C35 C37 1.358 . S
C35 H77 0.930 . S
C36 N33 1.314 . S
C36 C34 1.353 . S
C36 H78 0.930 . S
C37 N33 1.279 . S
C37 C35 1.358 . S
C37 H79 0.930 . S
C38 C39 1.348 . S
C38 C40 1.356 . S
C38 O63 1.325 . S
C39 C38 1.348 . S
C39 C41 1.353 . S
C39 H80 0.929 . S
C40 C38 1.356 . S
C40 C42 1.358 . S
C40 H81 0.930 . S
C41 C39 1.353 . S
C41 N43 1.314 1_554 S
C41 H82 0.930 1_554 S
C42 C40 1.358 . S
C42 N43 1.279 1_554 S
C42 H83 0.930 1_554 S
N43 C41 1.314 1_556 S
N43 C42 1.279 1_556 S
C44 C46 1.353 . S
C44 N47 1.314 . S
C44 H50 0.930 . S
C45 N47 1.279 . S
C45 C48 1.358 . S
C45 H51 0.930 . S
C46 C44 1.353 . S
C46 C49 1.348 . S
C46 H84 0.929 . S
N47 Li2 1.990 . S
N47 C44 1.314 . S
N47 C45 1.279 . S
C48 C45 1.358 . S
C48 C49 1.356 . S
C48 H85 0.930 . S
C49 C46 1.348 . S
C49 C48 1.356 . S
H50 C44 0.930 . S
H51 C45 0.930 . S
C52 N53 1.314 . S
C52 C54 1.353 . S
C52 H58 0.930 . S
N53 Li3 1.990 . S
N53 C52 1.314 . S
N53 C56 1.279 . S
C54 C52 1.353 . S
C54 C57 1.348 . S
C54 H86 0.929 . S
C55 C56 1.358 . S
C55 C57 1.356 . S
C55 H87 0.930 . S
C56 N53 1.279 . S
C56 C55 1.358 . S
C56 H59 0.930 . S
C57 C54 1.348 . S
C57 C55 1.356 . S
H58 C52 0.930 . S
H59 C56 0.930 . S
O60 Li0 1.956 . S
O60 Li1 1.970 . S
O60 Li2 1.961 . S
O60 C4 1.325 . S
O61 Li0 1.970 . S
O61 Li1 1.956 . S
O61 Li3 1.961 . S
O61 C10 1.325 . S
O62 Li0 1.961 . S
O62 Li2 1.956 . S
O62 Li3 1.970 . S
O62 C32 1.325 . S
O63 Li1 1.961 . S
O63 Li2 1.970 . S
O63 Li3 1.956 . S
O63 C38 1.325 . S
H64 C6 0.929 . S
H65 C7 0.930 . S
H66 C8 0.930 . S
H67 C9 0.930 . S
H68 C11 0.930 . S
H69 C13 0.929 . S
H70 C14 0.930 . S
H71 C15 0.930 . S
H72 C18 0.930 . S
H73 C21 0.929 . S
H74 C26 0.929 . S
H75 C27 0.930 . S
H76 C34 0.929 . S
H77 C35 0.930 . S
H78 C36 0.930 . S
H79 C37 0.930 . S
H80 C39 0.929 . S
H81 C40 0.930 . S
H82 C41 0.930 1_556 S
H83 C42 0.930 1_556 S
H84 C46 0.929 . S
H85 C48 0.930 . S
H86 C54 0.929 . S
H87 C55 0.930 . S
Li88 N105 1.990 . S
Li88 O148 1.956 . S
Li88 O149 1.970 . S
Li88 O150 1.961 . S
Li89 N113 1.990 . S
Li89 O148 1.970 . S
Li89 O149 1.956 . S
Li89 O151 1.961 . S
Li90 N135 1.990 . S
Li90 O148 1.961 . S
Li90 O150 1.956 . S
Li90 O151 1.970 . S
Li91 N141 1.990 . S
Li91 O149 1.961 . S
Li91 O150 1.970 . S
Li91 O151 1.956 . S
C92 C94 1.348 . S
C92 C95 1.356 . S
C92 O148 1.325 . S
N93 C96 1.314 . S
N93 C97 1.279 . S
C94 C92 1.348 . S
C94 C96 1.353 . S
C94 H152 0.929 . S
C95 C92 1.356 . S
C95 C97 1.358 . S
C95 H153 0.930 . S
C96 N93 1.314 . S
C96 C94 1.353 . S
C96 H154 0.930 . S
C97 N93 1.279 . S
C97 C95 1.358 . S
C97 H155 0.930 . S
C98 C101 1.348 . S
C98 C102 1.356 . S
C98 O149 1.325 . S
C99 N100 1.279 . S
C99 C102 1.358 . S
C99 H156 0.930 . S
N100 C99 1.279 . S
N100 C103 1.314 . S
C101 C98 1.348 . S
C101 C103 1.353 . S
C101 H157 0.929 . S
C102 C98 1.356 . S
C102 C99 1.358 . S
C102 H158 0.930 . S
C103 N100 1.314 . S
C103 C101 1.353 . S
C103 H159 0.930 . S
C104 N105 1.314 . S
C104 C109 1.353 . S
C104 H110 0.930 . S
N105 Li88 1.990 . S
N105 C104 1.314 . S
N105 C107 1.279 . S
C106 C107 1.358 . S
C106 C108 1.356 . S
C106 H160 0.930 . S
C107 N105 1.279 . S
C107 C106 1.358 . S
C107 H111 0.930 . S
C108 C106 1.356 . S
C108 C109 1.348 . S
C109 C104 1.353 . S
C109 C108 1.348 . S
C109 H161 0.929 . S
H110 C104 0.930 . S
H111 C107 0.930 . S
C112 N113 1.314 . S
C112 C114 1.353 . S
C112 H118 0.930 . S
N113 Li89 1.990 . S
N113 C112 1.314 . S
N113 C116 1.279 . S
C114 C112 1.353 . S
C114 C117 1.348 . S
C114 H162 0.929 . S
C115 C116 1.358 . S
C115 C117 1.356 . S
C115 H163 0.930 . S
C116 N113 1.279 . S
C116 C115 1.358 . S
C116 H119 0.930 . S
C117 C114 1.348 . S
C117 C115 1.356 . S
H118 C112 0.930 . S
H119 C116 0.930 . S
C120 C122 1.348 . S
C120 C123 1.356 . S
C120 O150 1.325 . S
N121 C124 1.314 . S
N121 C125 1.279 . S
C122 C120 1.348 . S
C122 C124 1.353 . S
C122 H164 0.929 . S
C123 C120 1.356 . S
C123 C125 1.358 . S
C123 H165 0.930 . S
C124 N121 1.314 . S
C124 C122 1.353 . S
C124 H166 0.930 . S
C125 N121 1.279 . S
C125 C123 1.358 . S
C125 H167 0.930 . S
C126 C127 1.348 . S
C126 C128 1.356 . S
C126 O151 1.325 . S
C127 C126 1.348 . S
C127 C129 1.353 . S
C127 H168 0.929 . S
C128 C126 1.356 . S
C128 C130 1.358 . S
C128 H169 0.930 . S
C129 C127 1.353 . S
C129 N131 1.314 . S
C129 H170 0.930 . S
C130 C128 1.358 . S
C130 N131 1.279 . S
C130 H171 0.930 . S
N131 C129 1.314 . S
N131 C130 1.279 . S
C132 C134 1.353 . S
C132 N135 1.314 . S
C132 H138 0.930 . S
C133 N135 1.279 . S
C133 C136 1.358 . S
C133 H139 0.930 . S
C134 C132 1.353 . S
C134 C137 1.348 . S
C134 H172 0.929 . S
N135 Li90 1.990 . S
N135 C132 1.314 . S
N135 C133 1.279 . S
C136 C133 1.358 . S
C136 C137 1.356 . S
C136 H173 0.930 . S
C137 C134 1.348 . S
C137 C136 1.356 . S
H138 C132 0.930 . S
H139 C133 0.930 . S
C140 N141 1.314 . S
C140 C142 1.353 . S
C140 H146 0.930 . S
N141 Li91 1.990 . S
N141 C140 1.314 . S
N141 C144 1.279 . S
C142 C140 1.353 . S
C142 C145 1.348 . S
C142 H174 0.929 . S
C143 C144 1.358 . S
C143 C145 1.356 . S
C143 H175 0.930 . S
C144 N141 1.279 . S
C144 C143 1.358 . S
C144 H147 0.930 . S
C145 C142 1.348 . S
C145 C143 1.356 . S
H146 C140 0.930 . S
H147 C144 0.930 . S
O148 Li88 1.956 . S
O148 Li89 1.970 . S
O148 Li90 1.961 . S
O148 C92 1.325 . S
O149 Li88 1.970 . S
O149 Li89 1.956 . S
O149 Li91 1.961 . S
O149 C98 1.325 . S
O150 Li88 1.961 . S
O150 Li90 1.956 . S
O150 Li91 1.970 . S
O150 C120 1.325 . S
O151 Li89 1.961 . S
O151 Li90 1.970 . S
O151 Li91 1.956 . S
O151 C126 1.325 . S
H152 C94 0.929 . S
H153 C95 0.930 . S
H154 C96 0.930 . S
H155 C97 0.930 . S
H156 C99 0.930 . S
H157 C101 0.929 . S
H158 C102 0.930 . S
H159 C103 0.930 . S
H160 C106 0.930 . S
H161 C109 0.929 . S
H162 C114 0.929 . S
H163 C115 0.930 . S
H164 C122 0.929 . S
H165 C123 0.930 . S
H166 C124 0.930 . S
H167 C125 0.930 . S
H168 C127 0.929 . S
H169 C128 0.930 . S
H170 C129 0.930 . S
H171 C130 0.930 . S
H172 C134 0.929 . S
H173 C136 0.930 . S
H174 C142 0.929 . S
H175 C143 0.930 . S
Li176 N193 1.990 . S
Li176 O236 1.956 . S
Li176 O237 1.970 . S
Li176 O238 1.961 . S
Li177 N201 1.990 . S
Li177 O236 1.970 . S
Li177 O237 1.956 . S
Li177 O239 1.961 . S
Li178 N223 1.990 . S
Li178 O236 1.961 . S
Li178 O238 1.956 . S
Li178 O239 1.970 . S
Li179 N229 1.990 . S
Li179 O237 1.961 . S
Li179 O238 1.970 . S
Li179 O239 1.956 . S
C180 C182 1.348 . S
C180 C183 1.356 . S
C180 O236 1.325 . S
N181 C184 1.314 . S
N181 C185 1.279 . S
C182 C180 1.348 . S
C182 C184 1.353 . S
C182 H240 0.929 . S
C183 C180 1.356 . S
C183 C185 1.358 . S
C183 H241 0.930 . S
C184 N181 1.314 . S
C184 C182 1.353 . S
C184 H242 0.930 . S
C185 N181 1.279 . S
C185 C183 1.358 . S
C185 H243 0.930 . S
C186 C189 1.348 . S
C186 C190 1.356 . S
C186 O237 1.325 . S
C187 N188 1.279 1_556 S
C187 C190 1.358 . S
C187 H244 0.930 1_556 S
N188 C187 1.279 1_554 S
N188 C191 1.314 1_554 S
C189 C186 1.348 . S
C189 C191 1.353 . S
C189 H245 0.929 . S
C190 C186 1.356 . S
C190 C187 1.358 . S
C190 H246 0.930 . S
C191 N188 1.314 1_556 S
C191 C189 1.353 . S
C191 H247 0.930 1_556 S
C192 N193 1.314 . S
C192 C197 1.353 . S
C192 H198 0.930 . S
N193 Li176 1.990 . S
N193 C192 1.314 . S
N193 C195 1.279 . S
C194 C195 1.358 . S
C194 C196 1.356 . S
C194 H248 0.930 . S
C195 N193 1.279 . S
C195 C194 1.358 . S
C195 H199 0.930 . S
C196 C194 1.356 . S
C196 C197 1.348 . S
C197 C192 1.353 . S
C197 C196 1.348 . S
C197 H249 0.929 . S
H198 C192 0.930 . S
H199 C195 0.930 . S
C200 N201 1.314 . S
C200 C202 1.353 . S
C200 H206 0.930 . S
N201 Li177 1.990 . S
N201 C200 1.314 . S
N201 C204 1.279 . S
C202 C200 1.353 . S
C202 C205 1.348 . S
C202 H250 0.929 . S
C203 C204 1.358 . S
C203 C205 1.356 . S
C203 H251 0.930 . S
C204 N201 1.279 . S
C204 C203 1.358 . S
C204 H207 0.930 . S
C205 C202 1.348 . S
C205 C203 1.356 . S
H206 C200 0.930 . S
H207 C204 0.930 . S
C208 C210 1.348 . S
C208 C211 1.356 . S
C208 O238 1.325 . S
N209 C212 1.314 . S
N209 C213 1.279 . S
C210 C208 1.348 . S
C210 C212 1.353 . S
C210 H252 0.929 . S
C211 C208 1.356 . S
C211 C213 1.358 . S
C211 H253 0.930 . S
C212 N209 1.314 . S
C212 C210 1.353 . S
C212 H254 0.930 . S
C213 N209 1.279 . S
C213 C211 1.358 . S
C213 H255 0.930 . S
C214 C215 1.348 . S
C214 C216 1.356 . S
C214 O239 1.325 . S
C215 C214 1.348 . S
C215 C217 1.353 . S
C215 H256 0.929 . S
C216 C214 1.356 . S
C216 C218 1.358 . S
C216 H257 0.930 . S
C217 C215 1.353 . S
C217 N219 1.314 . S
C217 H258 0.930 . S
C218 C216 1.358 . S
C218 N219 1.279 . S
C218 H259 0.930 . S
N219 C217 1.314 . S
N219 C218 1.279 . S
C220 C222 1.353 . S
C220 N223 1.314 . S
C220 H226 0.930 . S
C221 N223 1.279 . S
C221 C224 1.358 . S
C221 H227 0.930 . S
C222 C220 1.353 . S
C222 C225 1.348 . S
C222 H260 0.929 . S
N223 Li178 1.990 . S
N223 C220 1.314 . S
N223 C221 1.279 . S
C224 C221 1.358 . S
C224 C225 1.356 . S
C224 H261 0.930 . S
C225 C222 1.348 . S
C225 C224 1.356 . S
H226 C220 0.930 . S
H227 C221 0.930 . S
C228 N229 1.314 . S
C228 C230 1.353 . S
C228 H234 0.930 . S
N229 Li179 1.990 . S
N229 C228 1.314 . S
N229 C232 1.279 . S
C230 C228 1.353 . S
C230 C233 1.348 . S
C230 H262 0.929 . S
C231 C232 1.358 . S
C231 C233 1.356 . S
C231 H263 0.930 . S
C232 N229 1.279 . S
C232 C231 1.358 . S
C232 H235 0.930 . S
C233 C230 1.348 . S
C233 C231 1.356 . S
H234 C228 0.930 . S
H235 C232 0.930 . S
O236 Li176 1.956 . S
O236 Li177 1.970 . S
O236 Li178 1.961 . S
O236 C180 1.325 . S
O237 Li176 1.970 . S
O237 Li177 1.956 . S
O237 Li179 1.961 . S
O237 C186 1.325 . S
O238 Li176 1.961 . S
O238 Li178 1.956 . S
O238 Li179 1.970 . S
O238 C208 1.325 . S
O239 Li177 1.961 . S
O239 Li178 1.970 . S
O239 Li179 1.956 . S
O239 C214 1.325 . S
H240 C182 0.929 . S
H241 C183 0.930 . S
H242 C184 0.930 . S
H243 C185 0.930 . S
H244 C187 0.930 1_554 S
H245 C189 0.929 . S
H246 C190 0.930 . S
H247 C191 0.930 1_554 S
H248 C194 0.930 . S
H249 C197 0.929 . S
H250 C202 0.929 . S
H251 C203 0.930 . S
H252 C210 0.929 . S
H253 C211 0.930 . S
H254 C212 0.930 . S
H255 C213 0.930 . S
H256 C215 0.929 . S
H257 C216 0.930 . S
H258 C217 0.930 . S
H259 C218 0.930 . S
H260 C222 0.929 . S
H261 C224 0.930 . S
H262 C230 0.929 . S
H263 C231 0.930 . S
Li264 N281 1.990 . S
Li264 O324 1.956 . S
Li264 O325 1.970 . S
Li264 O326 1.961 . S
Li265 N289 1.990 . S
Li265 O324 1.970 . S
Li265 O325 1.956 . S
Li265 O327 1.961 . S
Li266 N311 1.990 . S
Li266 O324 1.961 . S
Li266 O326 1.956 . S
Li266 O327 1.970 . S
Li267 N317 1.990 . S
Li267 O325 1.961 . S
Li267 O326 1.970 . S
Li267 O327 1.956 . S
C268 C270 1.348 . S
C268 C271 1.356 . S
C268 O324 1.325 . S
N269 C272 1.314 . S
N269 C273 1.279 . S
C270 C268 1.348 . S
C270 C272 1.353 . S
C270 H328 0.929 . S
C271 C268 1.356 . S
C271 C273 1.358 . S
C271 H329 0.930 . S
C272 N269 1.314 . S
C272 C270 1.353 . S
C272 H330 0.930 . S
C273 N269 1.279 . S
C273 C271 1.358 . S
C273 H331 0.930 . S
C274 C277 1.348 . S
C274 C278 1.356 . S
C274 O325 1.325 . S
C275 N276 1.279 . S
C275 C278 1.358 . S
C275 H332 0.930 . S
N276 C275 1.279 . S
N276 C279 1.314 . S
C277 C274 1.348 . S
C277 C279 1.353 . S
C277 H333 0.929 . S
C278 C274 1.356 . S
C278 C275 1.358 . S
C278 H334 0.930 . S
C279 N276 1.314 . S
C279 C277 1.353 . S
C279 H335 0.930 . S
C280 N281 1.314 . S
C280 C285 1.353 . S
C280 H286 0.930 . S
N281 Li264 1.990 . S
N281 C280 1.314 . S
N281 C283 1.279 . S
C282 C283 1.358 . S
C282 C284 1.356 . S
C282 H336 0.930 . S
C283 N281 1.279 . S
C283 C282 1.358 . S
C283 H287 0.930 . S
C284 C282 1.356 . S
C284 C285 1.348 . S
C285 C280 1.353 . S
C285 C284 1.348 . S
C285 H337 0.929 . S
H286 C280 0.930 . S
H287 C283 0.930 . S
C288 N289 1.314 . S
C288 C290 1.353 . S
C288 H294 0.930 . S
N289 Li265 1.990 . S
N289 C288 1.314 . S
N289 C292 1.279 . S
C290 C288 1.353 . S
C290 C293 1.348 . S
C290 H338 0.929 . S
C291 C292 1.358 . S
C291 C293 1.356 . S
C291 H339 0.930 . S
C292 N289 1.279 . S
C292 C291 1.358 . S
C292 H295 0.930 . S
C293 C290 1.348 . S
C293 C291 1.356 . S
H294 C288 0.930 . S
H295 C292 0.930 . S
C296 C298 1.348 . S
C296 C299 1.356 . S
C296 O326 1.325 . S
N297 C300 1.314 . S
N297 C301 1.279 . S
C298 C296 1.348 . S
C298 C300 1.353 . S
C298 H340 0.929 . S
C299 C296 1.356 . S
C299 C301 1.358 . S
C299 H341 0.930 . S
C300 N297 1.314 . S
C300 C298 1.353 . S
C300 H342 0.930 . S
C301 N297 1.279 . S
C301 C299 1.358 . S
C301 H343 0.930 . S
C302 C303 1.348 . S
C302 C304 1.356 . S
C302 O327 1.325 . S
C303 C302 1.348 . S
C303 C305 1.353 . S
C303 H344 0.929 . S
C304 C302 1.356 . S
C304 C306 1.358 . S
C304 H345 0.930 . S
C305 C303 1.353 . S
C305 N307 1.314 . S
C305 H346 0.930 . S
C306 C304 1.358 . S
C306 N307 1.279 . S
C306 H347 0.930 . S
N307 C305 1.314 . S
N307 C306 1.279 . S
C308 C310 1.353 . S
C308 N311 1.314 . S
C308 H314 0.930 . S
C309 N311 1.279 . S
C309 C312 1.358 . S
C309 H315 0.930 . S
C310 C308 1.353 . S
C310 C313 1.348 . S
C310 H348 0.929 . S
N311 Li266 1.990 . S
N311 C308 1.314 . S
N311 C309 1.279 . S
C312 C309 1.358 . S
C312 C313 1.356 . S
C312 H349 0.930 . S
C313 C310 1.348 . S
C313 C312 1.356 . S
H314 C308 0.930 . S
H315 C309 0.930 . S
C316 N317 1.314 . S
C316 C318 1.353 . S
C316 H322 0.930 . S
N317 Li267 1.990 . S
N317 C316 1.314 . S
N317 C320 1.279 . S
C318 C316 1.353 . S
C318 C321 1.348 . S
C318 H350 0.929 . S
C319 C320 1.358 . S
C319 C321 1.356 . S
C319 H351 0.930 . S
C320 N317 1.279 . S
C320 C319 1.358 . S
C320 H323 0.930 . S
C321 C318 1.348 . S
C321 C319 1.356 . S
H322 C316 0.930 . S
H323 C320 0.930 . S
O324 Li264 1.956 . S
O324 Li265 1.970 . S
O324 Li266 1.961 . S
O324 C268 1.325 . S
O325 Li264 1.970 . S
O325 Li265 1.956 . S
O325 Li267 1.961 . S
O325 C274 1.325 . S
O326 Li264 1.961 . S
O326 Li266 1.956 . S
O326 Li267 1.970 . S
O326 C296 1.325 . S
O327 Li265 1.961 . S
O327 Li266 1.970 . S
O327 Li267 1.956 . S
O327 C302 1.325 . S
H328 C270 0.929 . S
H329 C271 0.930 . S
H330 C272 0.930 . S
H331 C273 0.930 . S
H332 C275 0.930 . S
H333 C277 0.929 . S
H334 C278 0.930 . S
H335 C279 0.930 . S
H336 C282 0.930 . S
H337 C285 0.929 . S
H338 C290 0.929 . S
H339 C291 0.930 . S
H340 C298 0.929 . S
H341 C299 0.930 . S
H342 C300 0.930 . S
H343 C301 0.930 . S
H344 C303 0.929 . S
H345 C304 0.930 . S
H346 C305 0.930 . S
H347 C306 0.930 . S
H348 C310 0.929 . S
H349 C312 0.930 . S
H350 C318 0.929 . S
H351 C319 0.930 . S
Li352 N369 1.990 . S
Li352 O412 1.956 . S
Li352 O413 1.970 . S
Li352 O414 1.961 . S
Li353 N377 1.990 . S
Li353 O412 1.970 . S
Li353 O413 1.956 . S
Li353 O415 1.961 . S
Li354 N399 1.990 . S
Li354 O412 1.961 . S
Li354 O414 1.956 . S
Li354 O415 1.970 . S
Li355 N405 1.990 . S
Li355 O413 1.961 . S
Li355 O414 1.970 . S
Li355 O415 1.956 . S
C356 C358 1.348 . S
C356 C359 1.356 . S
C356 O412 1.325 . S
N357 C360 1.313 . S
N357 C361 1.279 1_554 S
C358 C356 1.348 . S
C358 C360 1.356 1_556 S
C358 H416 0.929 . S
C359 C356 1.356 . S
C359 C361 1.358 . S
C359 H417 0.930 . S
C360 N357 1.313 . S
C360 C358 1.356 1_554 S
C360 H418 0.928 . S
C361 N357 1.279 1_556 S
C361 C359 1.358 . S
C361 H419 0.930 . S
C362 C365 1.348 . S
C362 C366 1.356 . S
C362 O413 1.325 . S
C363 N364 1.279 . S
C363 C366 1.358 . S
C363 H420 0.930 . S
N364 C363 1.279 . S
N364 C367 1.314 . S
C365 C362 1.348 . S
C365 C367 1.353 . S
C365 H421 0.929 . S
C366 C362 1.356 . S
C366 C363 1.358 . S
C366 H422 0.930 . S
C367 N364 1.314 . S
C367 C365 1.353 . S
C367 H423 0.930 . S
C368 N369 1.314 . S
C368 C373 1.353 . S
C368 H374 0.930 . S
N369 Li352 1.990 . S
N369 C368 1.314 . S
N369 C371 1.279 . S
C370 C371 1.358 . S
C370 C372 1.356 . S
C370 H424 0.930 . S
C371 N369 1.279 . S
C371 C370 1.358 . S
C371 H375 0.930 . S
C372 C370 1.356 . S
C372 C373 1.348 . S
C373 C368 1.353 . S
C373 C372 1.348 . S
C373 H425 0.929 . S
H374 C368 0.930 . S
H375 C371 0.930 . S
C376 N377 1.314 . S
C376 C378 1.353 . S
C376 H382 0.930 . S
N377 Li353 1.990 . S
N377 C376 1.314 . S
N377 C380 1.279 . S
C378 C376 1.353 . S
C378 C381 1.348 . S
C378 H426 0.929 . S
C379 C380 1.358 . S
C379 C381 1.356 . S
C379 H427 0.930 . S
C380 N377 1.279 . S
C380 C379 1.358 . S
C380 H383 0.930 . S
C381 C378 1.348 . S
C381 C379 1.356 . S
H382 C376 0.930 . S
H383 C380 0.930 . S
C384 C386 1.348 . S
C384 C387 1.356 . S
C384 O414 1.325 . S
N385 C388 1.314 . S
N385 C389 1.279 . S
C386 C384 1.348 . S
C386 C388 1.353 . S
C386 H428 0.929 . S
C387 C384 1.356 . S
C387 C389 1.358 . S
C387 H429 0.930 . S
C388 N385 1.314 . S
C388 C386 1.353 . S
C388 H430 0.930 . S
C389 N385 1.279 . S
C389 C387 1.358 . S
C389 H431 0.930 . S
C390 C391 1.348 . S
C390 C392 1.356 . S
C390 O415 1.325 . S
C391 C390 1.348 . S
C391 C393 1.353 . S
C391 H432 0.929 . S
C392 C390 1.356 . S
C392 C394 1.358 . S
C392 H433 0.930 . S
C393 C391 1.353 . S
C393 N395 1.314 . S
C393 H434 0.930 . S
C394 C392 1.358 . S
C394 N395 1.279 . S
C394 H435 0.930 . S
N395 C393 1.314 . S
N395 C394 1.279 . S
C396 C398 1.353 . S
C396 N399 1.314 . S
C396 H402 0.930 . S
C397 N399 1.279 . S
C397 C400 1.358 . S
C397 H403 0.930 . S
C398 C396 1.353 . S
C398 C401 1.348 . S
C398 H436 0.929 . S
N399 Li354 1.990 . S
N399 C396 1.314 . S
N399 C397 1.279 . S
C400 C397 1.358 . S
C400 C401 1.356 . S
C400 H437 0.930 . S
C401 C398 1.348 . S
C401 C400 1.356 . S
H402 C396 0.930 . S
H403 C397 0.930 . S
C404 N405 1.314 . S
C404 C406 1.353 . S
C404 H410 0.930 . S
N405 Li355 1.990 . S
N405 C404 1.314 . S
N405 C408 1.279 . S
C406 C404 1.353 . S
C406 C409 1.348 . S
C406 H438 0.929 . S
C407 C408 1.358 . S
C407 C409 1.356 . S
C407 H439 0.930 . S
C408 N405 1.279 . S
C408 C407 1.358 . S
C408 H411 0.930 . S
C409 C406 1.348 . S
C409 C407 1.356 . S
H410 C404 0.930 . S
H411 C408 0.930 . S
O412 Li352 1.956 . S
O412 Li353 1.970 . S
O412 Li354 1.961 . S
O412 C356 1.325 . S
O413 Li352 1.970 . S
O413 Li353 1.956 . S
O413 Li355 1.961 . S
O413 C362 1.325 . S
O414 Li352 1.961 . S
O414 Li354 1.956 . S
O414 Li355 1.970 . S
O414 C384 1.325 . S
O415 Li353 1.961 . S
O415 Li354 1.970 . S
O415 Li355 1.956 . S
O415 C390 1.325 . S
H416 C358 0.929 . S
H417 C359 0.930 . S
H418 C360 0.928 . S
H419 C361 0.930 . S
H420 C363 0.930 . S
H421 C365 0.929 . S
H422 C366 0.930 . S
H423 C367 0.930 . S
H424 C370 0.930 . S
H425 C373 0.929 . S
H426 C378 0.929 . S
H427 C379 0.930 . S
H428 C386 0.929 . S
H429 C387 0.930 . S
H430 C388 0.930 . S
H431 C389 0.930 . S
H432 C391 0.929 . S
H433 C392 0.930 . S
H434 C393 0.930 . S
H435 C394 0.930 . S
H436 C398 0.929 . S
H437 C400 0.930 . S
H438 C406 0.929 . S
H439 C407 0.930 . S
Li440 N457 1.990 . S
Li440 O500 1.956 . S
Li440 O501 1.970 . S
Li440 O502 1.961 . S
Li441 N465 1.990 . S
Li441 O500 1.970 . S
Li441 O501 1.956 . S
Li441 O503 1.961 . S
Li442 N487 1.990 . S
Li442 O500 1.961 . S
Li442 O502 1.956 . S
Li442 O503 1.970 . S
Li443 N493 1.990 . S
Li443 O501 1.961 . S
Li443 O502 1.970 . S
Li443 O503 1.956 . S
C444 C446 1.348 . S
C444 C447 1.356 . S
C444 O500 1.325 . S
N445 C448 1.314 . S
N445 C449 1.279 . S
C446 C444 1.348 . S
C446 C448 1.353 . S
C446 H504 0.929 . S
C447 C444 1.356 . S
C447 C449 1.358 . S
C447 H505 0.930 . S
C448 N445 1.314 . S
C448 C446 1.353 . S
C448 H506 0.930 . S
C449 N445 1.279 . S
C449 C447 1.358 . S
C449 H507 0.930 . S
C450 C453 1.348 . S
C450 C454 1.356 . S
C450 O501 1.325 . S
C451 N452 1.279 . S
C451 C454 1.358 . S
C451 H508 0.930 . S
N452 C451 1.279 . S
N452 C455 1.314 . S
C453 C450 1.348 . S
C453 C455 1.353 . S
C453 H509 0.929 . S
C454 C450 1.356 . S
C454 C451 1.358 . S
C454 H510 0.930 . S
C455 N452 1.314 . S
C455 C453 1.353 . S
C455 H511 0.930 . S
C456 N457 1.314 . S
C456 C461 1.353 . S
C456 H462 0.930 . S
N457 Li440 1.990 . S
N457 C456 1.314 . S
N457 C459 1.279 . S
C458 C459 1.358 . S
C458 C460 1.356 . S
C458 H512 0.930 . S
C459 N457 1.279 . S
C459 C458 1.358 . S
C459 H463 0.930 . S
C460 C458 1.356 . S
C460 C461 1.348 . S
C461 C456 1.353 . S
C461 C460 1.348 . S
C461 H513 0.929 . S
H462 C456 0.930 . S
H463 C459 0.930 . S
C464 N465 1.314 . S
C464 C466 1.353 . S
C464 H470 0.930 . S
N465 Li441 1.990 . S
N465 C464 1.314 . S
N465 C468 1.279 . S
C466 C464 1.353 . S
C466 C469 1.348 . S
C466 H514 0.929 . S
C467 C468 1.358 . S
C467 C469 1.356 . S
C467 H515 0.930 . S
C468 N465 1.279 . S
C468 C467 1.358 . S
C468 H471 0.930 . S
C469 C466 1.348 . S
C469 C467 1.356 . S
H470 C464 0.930 . S
H471 C468 0.930 . S
C472 C474 1.348 . S
C472 C475 1.356 . S
C472 O502 1.325 . S
N473 C476 1.314 . S
N473 C477 1.279 . S
C474 C472 1.348 . S
C474 C476 1.353 . S
C474 H516 0.929 . S
C475 C472 1.356 . S
C475 C477 1.358 . S
C475 H517 0.930 . S
C476 N473 1.314 . S
C476 C474 1.353 . S
C476 H518 0.930 . S
C477 N473 1.279 . S
C477 C475 1.358 . S
C477 H519 0.930 . S
C478 C479 1.348 . S
C478 C480 1.356 . S
C478 O503 1.325 . S
C479 C478 1.348 . S
C479 C481 1.353 . S
C479 H520 0.929 . S
C480 C478 1.356 . S
C480 C482 1.358 . S
C480 H521 0.930 . S
C481 C479 1.353 . S
C481 N483 1.314 . S
C481 H522 0.930 . S
C482 C480 1.358 . S
C482 N483 1.279 . S
C482 H523 0.930 . S
N483 C481 1.314 . S
N483 C482 1.279 . S
C484 C486 1.353 . S
C484 N487 1.314 . S
C484 H490 0.930 . S
C485 N487 1.279 . S
C485 C488 1.358 . S
C485 H491 0.930 . S
C486 C484 1.353 . S
C486 C489 1.348 . S
C486 H524 0.929 . S
N487 Li442 1.990 . S
N487 C484 1.314 . S
N487 C485 1.279 . S
C488 C485 1.358 . S
C488 C489 1.356 . S
C488 H525 0.930 . S
C489 C486 1.348 . S
C489 C488 1.356 . S
H490 C484 0.930 . S
H491 C485 0.930 . S
C492 N493 1.314 . S
C492 C494 1.353 . S
C492 H498 0.930 . S
N493 Li443 1.990 . S
N493 C492 1.314 . S
N493 C496 1.279 . S
C494 C492 1.353 . S
C494 C497 1.348 . S
C494 H526 0.929 . S
C495 C496 1.358 . S
C495 C497 1.356 . S
C495 H527 0.930 . S
C496 N493 1.279 . S
C496 C495 1.358 . S
C496 H499 0.930 . S
C497 C494 1.348 . S
C497 C495 1.356 . S
H498 C492 0.930 . S
H499 C496 0.930 . S
O500 Li440 1.956 . S
O500 Li441 1.970 . S
O500 Li442 1.961 . S
O500 C444 1.325 . S
O501 Li440 1.970 . S
O501 Li441 1.956 . S
O501 Li443 1.961 . S
O501 C450 1.325 . S
O502 Li440 1.961 . S
O502 Li442 1.956 . S
O502 Li443 1.970 . S
O502 C472 1.325 . S
O503 Li441 1.961 . S
O503 Li442 1.970 . S
O503 Li443 1.956 . S
O503 C478 1.325 . S
H504 C446 0.929 . S
H505 C447 0.930 . S
H506 C448 0.930 . S
H507 C449 0.930 . S
H508 C451 0.930 . S
H509 C453 0.929 . S
H510 C454 0.930 . S
H511 C455 0.930 . S
H512 C458 0.930 . S
H513 C461 0.929 . S
H514 C466 0.929 . S
H515 C467 0.930 . S
H516 C474 0.929 . S
H517 C475 0.930 . S
H518 C476 0.930 . S
H519 C477 0.930 . S
H520 C479 0.929 . S
H521 C480 0.930 . S
H522 C481 0.930 . S
H523 C482 0.930 . S
H524 C486 0.929 . S
H525 C488 0.930 . S
H526 C494 0.929 . S
H527 C495 0.930 . S
Li528 N545 1.990 . S
Li528 O588 1.956 . S
Li528 O589 1.970 . S
Li528 O590 1.961 . S
Li529 N553 1.990 . S
Li529 O588 1.970 . S
Li529 O589 1.956 . S
Li529 O591 1.961 . S
Li530 N575 1.990 . S
Li530 O588 1.961 . S
Li530 O590 1.956 . S
Li530 O591 1.970 . S
Li531 N581 1.990 . S
Li531 O589 1.961 . S
Li531 O590 1.970 . S
Li531 O591 1.956 . S
C532 C534 1.348 . S
C532 C535 1.356 . S
C532 O588 1.325 . S
N533 C536 1.314 . S
N533 C537 1.279 . S
C534 C532 1.348 . S
C534 C536 1.353 . S
C534 H592 0.929 . S
C535 C532 1.356 . S
C535 C537 1.358 . S
C535 H593 0.930 . S
C536 N533 1.314 . S
C536 C534 1.353 . S
C536 H594 0.930 . S
C537 N533 1.279 . S
C537 C535 1.358 . S
C537 H595 0.930 . S
C538 C541 1.348 . S
C538 C542 1.356 . S
C538 O589 1.325 . S
C539 N540 1.279 . S
C539 C542 1.358 . S
C539 H596 0.930 . S
N540 C539 1.279 . S
N540 C543 1.314 . S
C541 C538 1.348 . S
C541 C543 1.353 . S
C541 H597 0.929 . S
C542 C538 1.356 . S
C542 C539 1.358 . S
C542 H598 0.930 . S
C543 N540 1.314 . S
C543 C541 1.353 . S
C543 H599 0.930 . S
C544 N545 1.314 . S
C544 C549 1.353 . S
C544 H550 0.930 . S
N545 Li528 1.990 . S
N545 C544 1.314 . S
N545 C547 1.279 . S
C546 C547 1.358 . S
C546 C548 1.356 . S
C546 H600 0.930 . S
C547 N545 1.279 . S
C547 C546 1.358 . S
C547 H551 0.930 . S
C548 C546 1.356 . S
C548 C549 1.348 . S
C549 C544 1.353 . S
C549 C548 1.348 . S
C549 H601 0.929 . S
H550 C544 0.930 . S
H551 C547 0.930 . S
C552 N553 1.314 . S
C552 C554 1.353 . S
C552 H558 0.930 . S
N553 Li529 1.990 . S
N553 C552 1.314 . S
N553 C556 1.279 . S
C554 C552 1.353 . S
C554 C557 1.348 . S
C554 H602 0.929 . S
C555 C556 1.358 . S
C555 C557 1.356 . S
C555 H603 0.930 . S
C556 N553 1.279 . S
C556 C555 1.358 . S
C556 H559 0.930 . S
C557 C554 1.348 . S
C557 C555 1.356 . S
H558 C552 0.930 . S
H559 C556 0.930 . S
C560 C562 1.348 . S
C560 C563 1.356 . S
C560 O590 1.325 . S
N561 C564 1.314 . S
N561 C565 1.279 . S
C562 C560 1.348 . S
C562 C564 1.353 . S
C562 H604 0.929 . S
C563 C560 1.356 . S
C563 C565 1.358 . S
C563 H605 0.930 . S
C564 N561 1.314 . S
C564 C562 1.353 . S
C564 H606 0.930 . S
C565 N561 1.279 . S
C565 C563 1.358 . S
C565 H607 0.930 . S
C566 C567 1.348 . S
C566 C568 1.356 . S
C566 O591 1.325 . S
C567 C566 1.348 . S
C567 C569 1.356 1_554 S
C567 H608 0.929 . S
C568 C566 1.356 . S
C568 C570 1.358 . S
C568 H609 0.930 . S
C569 C567 1.356 1_556 S
C569 N571 1.313 . S
C569 H610 0.928 . S
C570 C568 1.358 . S
C570 N571 1.279 1_554 S
C570 H611 0.930 . S
N571 C569 1.313 . S
N571 C570 1.279 1_556 S
C572 C574 1.353 . S
C572 N575 1.314 . S
C572 H578 0.930 . S
C573 N575 1.279 . S
C573 C576 1.358 . S
C573 H579 0.930 . S
C574 C572 1.353 . S
C574 C577 1.348 . S
C574 H612 0.929 . S
N575 Li530 1.990 . S
N575 C572 1.314 . S
N575 C573 1.279 . S
C576 C573 1.358 . S
C576 C577 1.356 . S
C576 H613 0.930 . S
C577 C574 1.348 . S
C577 C576 1.356 . S
H578 C572 0.930 . S
H579 C573 0.930 . S
C580 N581 1.314 . S
C580 C582 1.353 . S
C580 H586 0.930 . S
N581 Li531 1.990 . S
N581 C580 1.314 . S
N581 C584 1.279 . S
C582 C580 1.353 . S
C582 C585 1.348 . S
C582 H614 0.929 . S
C583 C584 1.358 . S
C583 C585 1.356 . S
C583 H615 0.930 . S
C584 N581 1.279 . S
C584 C583 1.358 . S
C584 H587 0.930 . S
C585 C582 1.348 . S
C585 C583 1.356 . S
H586 C580 0.930 . S
H587 C584 0.930 . S
O588 Li528 1.956 . S
O588 Li529 1.970 . S
O588 Li530 1.961 . S
O588 C532 1.325 . S
O589 Li528 1.970 . S
O589 Li529 1.956 . S
O589 Li531 1.961 . S
O589 C538 1.325 . S
O590 Li528 1.961 . S
O590 Li530 1.956 . S
O590 Li531 1.970 . S
O590 C560 1.325 . S
O591 Li529 1.961 . S
O591 Li530 1.970 . S
O591 Li531 1.956 . S
O591 C566 1.325 . S
H592 C534 0.929 . S
H593 C535 0.930 . S
H594 C536 0.930 . S
H595 C537 0.930 . S
H596 C539 0.930 . S
H597 C541 0.929 . S
H598 C542 0.930 . S
H599 C543 0.930 . S
H600 C546 0.930 . S
H601 C549 0.929 . S
H602 C554 0.929 . S
H603 C555 0.930 . S
H604 C562 0.929 . S
H605 C563 0.930 . S
H606 C564 0.930 . S
H607 C565 0.930 . S
H608 C567 0.929 . S
H609 C568 0.930 . S
H610 C569 0.928 . S
H611 C570 0.930 . S
H612 C574 0.929 . S
H613 C576 0.930 . S
H614 C582 0.929 . S
H615 C583 0.930 . S
Li616 N633 1.990 . S
Li616 O676 1.956 . S
Li616 O677 1.970 . S
Li616 O678 1.961 . S
Li617 N641 1.990 . S
Li617 O676 1.970 . S
Li617 O677 1.956 . S
Li617 O679 1.961 . S
Li618 N663 1.990 . S
Li618 O676 1.961 . S
Li618 O678 1.956 . S
Li618 O679 1.970 . S
Li619 N669 1.990 . S
Li619 O677 1.961 . S
Li619 O678 1.970 . S
Li619 O679 1.956 . S
C620 C622 1.348 . S
C620 C623 1.356 . S
C620 O676 1.325 . S
N621 C624 1.314 . S
N621 C625 1.279 . S
C622 C620 1.348 . S
C622 C624 1.353 . S
C622 H680 0.929 . S
C623 C620 1.356 . S
C623 C625 1.358 . S
C623 H681 0.930 . S
C624 N621 1.314 . S
C624 C622 1.353 . S
C624 H682 0.930 . S
C625 N621 1.279 . S
C625 C623 1.358 . S
C625 H683 0.930 . S
C626 C629 1.348 . S
C626 C630 1.356 . S
C626 O677 1.325 . S
C627 N628 1.279 . S
C627 C630 1.358 . S
C627 H684 0.930 . S
N628 C627 1.279 . S
N628 C631 1.314 . S
C629 C626 1.348 . S
C629 C631 1.353 . S
C629 H685 0.929 . S
C630 C626 1.356 . S
C630 C627 1.358 . S
C630 H686 0.930 . S
C631 N628 1.314 . S
C631 C629 1.353 . S
C631 H687 0.930 . S
C632 N633 1.314 . S
C632 C637 1.353 . S
C632 H638 0.930 . S
N633 Li616 1.990 . S
N633 C632 1.314 . S
N633 C635 1.279 . S
C634 C635 1.358 . S
C634 C636 1.356 . S
C634 H688 0.930 . S
C635 N633 1.279 . S
C635 C634 1.358 . S
C635 H639 0.930 . S
C636 C634 1.356 . S
C636 C637 1.348 . S
C637 C632 1.353 . S
C637 C636 1.348 . S
C637 H689 0.929 . S
H638 C632 0.930 . S
H639 C635 0.930 . S
C640 N641 1.314 . S
C640 C642 1.353 . S
C640 H646 0.930 . S
N641 Li617 1.990 . S
N641 C640 1.314 . S
N641 C644 1.279 . S
C642 C640 1.353 . S
C642 C645 1.348 . S
C642 H690 0.929 . S
C643 C644 1.358 . S
C643 C645 1.356 . S
C643 H691 0.930 . S
C644 N641 1.279 . S
C644 C643 1.358 . S
C644 H647 0.930 . S
C645 C642 1.348 . S
C645 C643 1.356 . S
H646 C640 0.930 . S
H647 C644 0.930 . S
C648 C650 1.348 . S
C648 C651 1.356 . S
C648 O678 1.325 . S
N649 C652 1.314 . S
N649 C653 1.279 . S
C650 C648 1.348 . S
C650 C652 1.353 . S
C650 H692 0.929 . S
C651 C648 1.356 . S
C651 C653 1.358 . S
C651 H693 0.930 . S
C652 N649 1.314 . S
C652 C650 1.353 . S
C652 H694 0.930 . S
C653 N649 1.279 . S
C653 C651 1.358 . S
C653 H695 0.930 . S
C654 C655 1.348 . S
C654 C656 1.356 . S
C654 O679 1.325 . S
C655 C654 1.348 . S
C655 C657 1.353 . S
C655 H696 0.929 . S
C656 C654 1.356 . S
C656 C658 1.358 . S
C656 H697 0.930 . S
C657 C655 1.353 . S
C657 N659 1.314 . S
C657 H698 0.930 . S
C658 C656 1.358 . S
C658 N659 1.279 . S
C658 H699 0.930 . S
N659 C657 1.314 . S
N659 C658 1.279 . S
C660 C662 1.353 . S
C660 N663 1.314 . S
C660 H666 0.930 . S
C661 N663 1.279 . S
C661 C664 1.358 . S
C661 H667 0.930 . S
C662 C660 1.353 . S
C662 C665 1.348 . S
C662 H700 0.929 . S
N663 Li618 1.990 . S
N663 C660 1.314 . S
N663 C661 1.279 . S
C664 C661 1.358 . S
C664 C665 1.356 . S
C664 H701 0.930 . S
C665 C662 1.348 . S
C665 C664 1.356 . S
H666 C660 0.930 . S
H667 C661 0.930 . S
C668 N669 1.314 . S
C668 C670 1.353 . S
C668 H674 0.930 . S
N669 Li619 1.990 . S
N669 C668 1.314 . S
N669 C672 1.279 . S
C670 C668 1.353 . S
C670 C673 1.348 . S
C670 H702 0.929 . S
C671 C672 1.358 . S
C671 C673 1.356 . S
C671 H703 0.930 . S
C672 N669 1.279 . S
C672 C671 1.358 . S
C672 H675 0.930 . S
C673 C670 1.348 . S
C673 C671 1.356 . S
H674 C668 0.930 . S
H675 C672 0.930 . S
O676 Li616 1.956 . S
O676 Li617 1.970 . S
O676 Li618 1.961 . S
O676 C620 1.325 . S
O677 Li616 1.970 . S
O677 Li617 1.956 . S
O677 Li619 1.961 . S
O677 C626 1.325 . S
O678 Li616 1.961 . S
O678 Li618 1.956 . S
O678 Li619 1.970 . S
O678 C648 1.325 . S
O679 Li617 1.961 . S
O679 Li618 1.970 . S
O679 Li619 1.956 . S
O679 C654 1.325 . S
H680 C622 0.929 . S
H681 C623 0.930 . S
H682 C624 0.930 . S
H683 C625 0.930 . S
H684 C627 0.930 . S
H685 C629 0.929 . S
H686 C630 0.930 . S
H687 C631 0.930 . S
H688 C634 0.930 . S
H689 C637 0.929 . S
H690 C642 0.929 . S
H691 C643 0.930 . S
H692 C650 0.929 . S
H693 C651 0.930 . S
H694 C652 0.930 . S
H695 C653 0.930 . S
H696 C655 0.929 . S
H697 C656 0.930 . S
H698 C657 0.930 . S
H699 C658 0.930 . S
H700 C662 0.929 . S
H701 C664 0.930 . S
H702 C670 0.929 . S
H703 C671 0.930 . S
Li704 N721 1.990 . S
Li704 O764 1.956 . S
Li704 O765 1.970 . S
Li704 O766 1.961 . S
Li705 N729 1.990 . S
Li705 O764 1.970 . S
Li705 O765 1.956 . S
Li705 O767 1.961 . S
Li706 N751 1.990 . S
Li706 O764 1.961 . S
Li706 O766 1.956 . S
Li706 O767 1.970 . S
Li707 N757 1.990 . S
Li707 O765 1.961 . S
Li707 O766 1.970 . S
Li707 O767 1.956 . S
C708 C710 1.348 . S
C708 C711 1.356 . S
C708 O764 1.325 . S
N709 C712 1.314 . S
N709 C713 1.279 . S
C710 C708 1.348 . S
C710 C712 1.353 . S
C710 H768 0.929 . S
C711 C708 1.356 . S
C711 C713 1.358 . S
C711 H769 0.930 . S
C712 N709 1.314 . S
C712 C710 1.353 . S
C712 H770 0.930 . S
C713 N709 1.279 . S
C713 C711 1.358 . S
C713 H771 0.930 . S
C714 C717 1.348 . S
C714 C718 1.356 . S
C714 O765 1.325 . S
C715 N716 1.279 . S
C715 C718 1.358 . S
C715 H772 0.930 . S
N716 C715 1.279 . S
N716 C719 1.314 . S
C717 C714 1.348 . S
C717 C719 1.353 . S
C717 H773 0.929 . S
C718 C714 1.356 . S
C718 C715 1.358 . S
C718 H774 0.930 . S
C719 N716 1.314 . S
C719 C717 1.353 . S
C719 H775 0.930 . S
C720 N721 1.314 . S
C720 C725 1.353 . S
C720 H726 0.930 . S
N721 Li704 1.990 . S
N721 C720 1.314 . S
N721 C723 1.279 . S
C722 C723 1.358 . S
C722 C724 1.356 . S
C722 H776 0.930 . S
C723 N721 1.279 . S
C723 C722 1.358 . S
C723 H727 0.930 . S
C724 C722 1.356 . S
C724 C725 1.348 . S
C725 C720 1.353 . S
C725 C724 1.348 . S
C725 H777 0.929 . S
H726 C720 0.930 . S
H727 C723 0.930 . S
C728 N729 1.314 . S
C728 C730 1.353 . S
C728 H734 0.930 . S
N729 Li705 1.990 . S
N729 C728 1.314 . S
N729 C732 1.279 . S
C730 C728 1.353 . S
C730 C733 1.348 . S
C730 H778 0.929 . S
C731 C732 1.358 . S
C731 C733 1.356 . S
C731 H779 0.930 . S
C732 N729 1.279 . S
C732 C731 1.358 . S
C732 H735 0.930 . S
C733 C730 1.348 . S
C733 C731 1.356 . S
H734 C728 0.930 . S
H735 C732 0.930 . S
C736 C738 1.348 . S
C736 C739 1.356 . S
C736 O766 1.325 . S
N737 C740 1.314 . S
N737 C741 1.279 . S
C738 C736 1.348 . S
C738 C740 1.353 . S
C738 H780 0.929 . S
C739 C736 1.356 . S
C739 C741 1.358 . S
C739 H781 0.930 . S
C740 N737 1.314 . S
C740 C738 1.353 . S
C740 H782 0.930 . S
C741 N737 1.279 . S
C741 C739 1.358 . S
C741 H783 0.930 . S
C742 C743 1.348 . S
C742 C744 1.356 . S
C742 O767 1.325 . S
C743 C742 1.348 . S
C743 C745 1.353 . S
C743 H784 0.929 . S
C744 C742 1.356 . S
C744 C746 1.358 . S
C744 H785 0.930 . S
C745 C743 1.353 . S
C745 N747 1.314 1_554 S
C745 H786 0.930 1_554 S
C746 C744 1.358 . S
C746 N747 1.279 1_554 S
C746 H787 0.930 1_554 S
N747 C745 1.314 1_556 S
N747 C746 1.279 1_556 S
C748 C750 1.353 . S
C748 N751 1.314 . S
C748 H754 0.930 . S
C749 N751 1.279 . S
C749 C752 1.358 . S
C749 H755 0.930 . S
C750 C748 1.353 . S
C750 C753 1.348 . S
C750 H788 0.929 . S
N751 Li706 1.990 . S
N751 C748 1.314 . S
N751 C749 1.279 . S
C752 C749 1.358 . S
C752 C753 1.356 . S
C752 H789 0.930 . S
C753 C750 1.348 . S
C753 C752 1.356 . S
H754 C748 0.930 . S
H755 C749 0.930 . S
C756 N757 1.314 . S
C756 C758 1.353 . S
C756 H762 0.930 . S
N757 Li707 1.990 . S
N757 C756 1.314 . S
N757 C760 1.279 . S
C758 C756 1.353 . S
C758 C761 1.348 . S
C758 H790 0.929 . S
C759 C760 1.358 . S
C759 C761 1.356 . S
C759 H791 0.930 . S
C760 N757 1.279 . S
C760 C759 1.358 . S
C760 H763 0.930 . S
C761 C758 1.348 . S
C761 C759 1.356 . S
H762 C756 0.930 . S
H763 C760 0.930 . S
O764 Li704 1.956 . S
O764 Li705 1.970 . S
O764 Li706 1.961 . S
O764 C708 1.325 . S
O765 Li704 1.970 . S
O765 Li705 1.956 . S
O765 Li707 1.961 . S
O765 C714 1.325 . S
O766 Li704 1.961 . S
O766 Li706 1.956 . S
O766 Li707 1.970 . S
O766 C736 1.325 . S
O767 Li705 1.961 . S
O767 Li706 1.970 . S
O767 Li707 1.956 . S
O767 C742 1.325 . S
H768 C710 0.929 . S
H769 C711 0.930 . S
H770 C712 0.930 . S
H771 C713 0.930 . S
H772 C715 0.930 . S
H773 C717 0.929 . S
H774 C718 0.930 . S
H775 C719 0.930 . S
H776 C722 0.930 . S
H777 C725 0.929 . S
H778 C730 0.929 . S
H779 C731 0.930 . S
H780 C738 0.929 . S
H781 C739 0.930 . S
H782 C740 0.930 . S
H783 C741 0.930 . S
H784 C743 0.929 . S
H785 C744 0.930 . S
H786 C745 0.930 1_556 S
H787 C746 0.930 1_556 S
H788 C750 0.929 . S
H789 C752 0.930 . S
H790 C758 0.929 . S
H791 C759 0.930 . S
Li792 N809 1.990 . S
Li792 O852 1.956 . S
Li792 O853 1.970 . S
Li792 O854 1.961 . S
Li793 N817 1.990 . S
Li793 O852 1.970 . S
Li793 O853 1.956 . S
Li793 O855 1.961 . S
Li794 N839 1.990 . S
Li794 O852 1.961 . S
Li794 O854 1.956 . S
Li794 O855 1.970 . S
Li795 N845 1.990 . S
Li795 O853 1.961 . S
Li795 O854 1.970 . S
Li795 O855 1.956 . S
C796 C798 1.348 . S
C796 C799 1.356 . S
C796 O852 1.325 . S
N797 C800 1.314 . S
N797 C801 1.279 . S
C798 C796 1.348 . S
C798 C800 1.353 . S
C798 H856 0.929 . S
C799 C796 1.356 . S
C799 C801 1.358 . S
C799 H857 0.930 . S
C800 N797 1.314 . S
C800 C798 1.353 . S
C800 H858 0.930 . S
C801 N797 1.279 . S
C801 C799 1.358 . S
C801 H859 0.930 . S
C802 C805 1.348 . S
C802 C806 1.356 . S
C802 O853 1.325 . S
C803 N804 1.279 . S
C803 C806 1.358 . S
C803 H860 0.930 . S
N804 C803 1.279 . S
N804 C807 1.314 . S
C805 C802 1.348 . S
C805 C807 1.353 . S
C805 H861 0.929 . S
C806 C802 1.356 . S
C806 C803 1.358 . S
C806 H862 0.930 . S
C807 N804 1.314 . S
C807 C805 1.353 . S
C807 H863 0.930 . S
C808 N809 1.314 . S
C808 C813 1.353 . S
C808 H814 0.930 . S
N809 Li792 1.990 . S
N809 C808 1.314 . S
N809 C811 1.279 . S
C810 C811 1.358 . S
C810 C812 1.356 . S
C810 H864 0.930 . S
C811 N809 1.279 . S
C811 C810 1.358 . S
C811 H815 0.930 . S
C812 C810 1.356 . S
C812 C813 1.348 . S
C813 C808 1.353 . S
C813 C812 1.348 . S
C813 H865 0.929 . S
H814 C808 0.930 . S
H815 C811 0.930 . S
C816 N817 1.314 . S
C816 C818 1.353 . S
C816 H822 0.930 . S
N817 Li793 1.990 . S
N817 C816 1.314 . S
N817 C820 1.279 . S
C818 C816 1.353 . S
C818 C821 1.348 . S
C818 H866 0.929 . S
C819 C820 1.358 . S
C819 C821 1.356 . S
C819 H867 0.930 . S
C820 N817 1.279 . S
C820 C819 1.358 . S
C820 H823 0.930 . S
C821 C818 1.348 . S
C821 C819 1.356 . S
H822 C816 0.930 . S
H823 C820 0.930 . S
C824 C826 1.348 . S
C824 C827 1.356 . S
C824 O854 1.325 . S
N825 C828 1.314 . S
N825 C829 1.279 . S
C826 C824 1.348 . S
C826 C828 1.353 . S
C826 H868 0.929 . S
C827 C824 1.356 . S
C827 C829 1.358 . S
C827 H869 0.930 . S
C828 N825 1.314 . S
C828 C826 1.353 . S
C828 H870 0.930 . S
C829 N825 1.279 . S
C829 C827 1.358 . S
C829 H871 0.930 . S
C830 C831 1.348 . S
C830 C832 1.356 . S
C830 O855 1.325 . S
C831 C830 1.348 . S
C831 C833 1.353 . S
C831 H872 0.929 . S
C832 C830 1.356 . S
C832 C834 1.358 . S
C832 H873 0.930 . S
C833 C831 1.353 . S
C833 N835 1.314 . S
C833 H874 0.930 . S
C834 C832 1.358 . S
C834 N835 1.279 . S
C834 H875 0.930 . S
N835 C833 1.314 . S
N835 C834 1.279 . S
C836 C838 1.353 . S
C836 N839 1.314 . S
C836 H842 0.930 . S
C837 N839 1.279 . S
C837 C840 1.358 . S
C837 H843 0.930 . S
C838 C836 1.353 . S
C838 C841 1.348 . S
C838 H876 0.929 . S
N839 Li794 1.990 . S
N839 C836 1.314 . S
N839 C837 1.279 . S
C840 C837 1.358 . S
C840 C841 1.356 . S
C840 H877 0.930 . S
C841 C838 1.348 . S
C841 C840 1.356 . S
H842 C836 0.930 . S
H843 C837 0.930 . S
C844 N845 1.314 . S
C844 C846 1.353 . S
C844 H850 0.930 . S
N845 Li795 1.990 . S
N845 C844 1.314 . S
N845 C848 1.279 . S
C846 C844 1.353 . S
C846 C849 1.348 . S
C846 H878 0.929 . S
C847 C848 1.358 . S
C847 C849 1.356 . S
C847 H879 0.930 . S
C848 N845 1.279 . S
C848 C847 1.358 . S
C848 H851 0.930 . S
C849 C846 1.348 . S
C849 C847 1.356 . S
H850 C844 0.930 . S
H851 C848 0.930 . S
O852 Li792 1.956 . S
O852 Li793 1.970 . S
O852 Li794 1.961 . S
O852 C796 1.325 . S
O853 Li792 1.970 . S
O853 Li793 1.956 . S
O853 Li795 1.961 . S
O853 C802 1.325 . S
O854 Li792 1.961 . S
O854 Li794 1.956 . S
O854 Li795 1.970 . S
O854 C824 1.325 . S
O855 Li793 1.961 . S
O855 Li794 1.970 . S
O855 Li795 1.956 . S
O855 C830 1.325 . S
H856 C798 0.929 . S
H857 C799 0.930 . S
H858 C800 0.930 . S
H859 C801 0.930 . S
H860 C803 0.930 . S
H861 C805 0.929 . S
H862 C806 0.930 . S
H863 C807 0.930 . S
H864 C810 0.930 . S
H865 C813 0.929 . S
H866 C818 0.929 . S
H867 C819 0.930 . S
H868 C826 0.929 . S
H869 C827 0.930 . S
H870 C828 0.930 . S
H871 C829 0.930 . S
H872 C831 0.929 . S
H873 C832 0.930 . S
H874 C833 0.930 . S
H875 C834 0.930 . S
H876 C838 0.929 . S
H877 C840 0.930 . S
H878 C846 0.929 . S
H879 C847 0.930 . S
Li880 N897 1.990 . S
Li880 O940 1.956 . S
Li880 O941 1.970 . S
Li880 O942 1.961 . S
Li881 N905 1.990 . S
Li881 O940 1.970 . S
Li881 O941 1.956 . S
Li881 O943 1.961 . S
Li882 N927 1.990 . S
Li882 O940 1.961 . S
Li882 O942 1.956 . S
Li882 O943 1.970 . S
Li883 N933 1.990 . S
Li883 O941 1.961 . S
Li883 O942 1.970 . S
Li883 O943 1.956 . S
C884 C886 1.348 . S
C884 C887 1.356 . S
C884 O940 1.325 . S
N885 C888 1.314 . S
N885 C889 1.279 . S
C886 C884 1.348 . S
C886 C888 1.353 . S
C886 H944 0.929 . S
C887 C884 1.356 . S
C887 C889 1.358 . S
C887 H945 0.930 . S
C888 N885 1.314 . S
C888 C886 1.353 . S
C888 H946 0.930 . S
C889 N885 1.279 . S
C889 C887 1.358 . S
C889 H947 0.930 . S
C890 C893 1.348 . S
C890 C894 1.356 . S
C890 O941 1.325 . S
C891 N892 1.279 1_556 S
C891 C894 1.358 . S
C891 H948 0.930 1_556 S
N892 C891 1.279 1_554 S
N892 C895 1.314 1_554 S
C893 C890 1.348 . S
C893 C895 1.353 . S
C893 H949 0.929 . S
C894 C890 1.356 . S
C894 C891 1.358 . S
C894 H950 0.930 . S
C895 N892 1.314 1_556 S
C895 C893 1.353 . S
C895 H951 0.930 1_556 S
C896 N897 1.314 . S
C896 C901 1.353 . S
C896 H902 0.930 . S
N897 Li880 1.990 . S
N897 C896 1.314 . S
N897 C899 1.279 . S
C898 C899 1.358 . S
C898 C900 1.356 . S
C898 H952 0.930 . S
C899 N897 1.279 . S
C899 C898 1.358 . S
C899 H903 0.930 . S
C900 C898 1.356 . S
C900 C901 1.348 . S
C901 C896 1.353 . S
C901 C900 1.348 . S
C901 H953 0.929 . S
H902 C896 0.930 . S
H903 C899 0.930 . S
C904 N905 1.314 . S
C904 C906 1.353 . S
C904 H910 0.930 . S
N905 Li881 1.990 . S
N905 C904 1.314 . S
N905 C908 1.279 . S
C906 C904 1.353 . S
C906 C909 1.348 . S
C906 H954 0.929 . S
C907 C908 1.358 . S
C907 C909 1.356 . S
C907 H955 0.930 . S
C908 N905 1.279 . S
C908 C907 1.358 . S
C908 H911 0.930 . S
C909 C906 1.348 . S
C909 C907 1.356 . S
H910 C904 0.930 . S
H911 C908 0.930 . S
C912 C914 1.348 . S
C912 C915 1.356 . S
C912 O942 1.325 . S
N913 C916 1.314 . S
N913 C917 1.279 . S
C914 C912 1.348 . S
C914 C916 1.353 . S
C914 H956 0.929 . S
C915 C912 1.356 . S
C915 C917 1.358 . S
C915 H957 0.930 . S
C916 N913 1.314 . S
C916 C914 1.353 . S
C916 H958 0.930 . S
C917 N913 1.279 . S
C917 C915 1.358 . S
C917 H959 0.930 . S
C918 C919 1.348 . S
C918 C920 1.356 . S
C918 O943 1.325 . S
C919 C918 1.348 . S
C919 C921 1.353 . S
C919 H960 0.929 . S
C920 C918 1.356 . S
C920 C922 1.358 . S
C920 H961 0.930 . S
C921 C919 1.353 . S
C921 N923 1.314 . S
C921 H962 0.930 . S
C922 C920 1.358 . S
C922 N923 1.279 . S
C922 H963 0.930 . S
N923 C921 1.314 . S
N923 C922 1.279 . S
C924 C926 1.353 . S
C924 N927 1.314 . S
C924 H930 0.930 . S
C925 N927 1.279 . S
C925 C928 1.358 . S
C925 H931 0.930 . S
C926 C924 1.353 . S
C926 C929 1.348 . S
C926 H964 0.929 . S
N927 Li882 1.990 . S
N927 C924 1.314 . S
N927 C925 1.279 . S
C928 C925 1.358 . S
C928 C929 1.356 . S
C928 H965 0.930 . S
C929 C926 1.348 . S
C929 C928 1.356 . S
H930 C924 0.930 . S
H931 C925 0.930 . S
C932 N933 1.314 . S
C932 C934 1.353 . S
C932 H938 0.930 . S
N933 Li883 1.990 . S
N933 C932 1.314 . S
N933 C936 1.279 . S
C934 C932 1.353 . S
C934 C937 1.348 . S
C934 H966 0.929 . S
C935 C936 1.358 . S
C935 C937 1.356 . S
C935 H967 0.930 . S
C936 N933 1.279 . S
C936 C935 1.358 . S
C936 H939 0.930 . S
C937 C934 1.348 . S
C937 C935 1.356 . S
H938 C932 0.930 . S
H939 C936 0.930 . S
O940 Li880 1.956 . S
O940 Li881 1.970 . S
O940 Li882 1.961 . S
O940 C884 1.325 . S
O941 Li880 1.970 . S
O941 Li881 1.956 . S
O941 Li883 1.961 . S
O941 C890 1.325 . S
O942 Li880 1.961 . S
O942 Li882 1.956 . S
O942 Li883 1.970 . S
O942 C912 1.325 . S
O943 Li881 1.961 . S
O943 Li882 1.970 . S
O943 Li883 1.956 . S
O943 C918 1.325 . S
H944 C886 0.929 . S
H945 C887 0.930 . S
H946 C888 0.930 . S
H947 C889 0.930 . S
H948 C891 0.930 1_554 S
H949 C893 0.929 . S
H950 C894 0.930 . S
H951 C895 0.930 1_554 S
H952 C898 0.930 . S
H953 C901 0.929 . S
H954 C906 0.929 . S
H955 C907 0.930 . S
H956 C914 0.929 . S
H957 C915 0.930 . S
H958 C916 0.930 . S
H959 C917 0.930 . S
H960 C919 0.929 . S
H961 C920 0.930 . S
H962 C921 0.930 . S
H963 C922 0.930 . S
H964 C926 0.929 . S
H965 C928 0.930 . S
H966 C934 0.929 . S
H967 C935 0.930 . S
Li968 N985 1.990 . S
Li968 O1028 1.956 . S
Li968 O1029 1.970 . S
Li968 O1030 1.961 . S
Li969 N993 1.990 . S
Li969 O1028 1.970 . S
Li969 O1029 1.956 . S
Li969 O1031 1.961 . S
Li970 N1015 1.990 . S
Li970 O1028 1.961 . S
Li970 O1030 1.956 . S
Li970 O1031 1.970 . S
Li971 N1021 1.990 . S
Li971 O1029 1.961 . S
Li971 O1030 1.970 . S
Li971 O1031 1.956 . S
C972 C974 1.348 . S
C972 C975 1.356 . S
C972 O1028 1.325 . S
N973 C976 1.314 . S
N973 C977 1.279 . S
C974 C972 1.348 . S
C974 C976 1.353 . S
C974 H1032 0.929 . S
C975 C972 1.356 . S
C975 C977 1.358 . S
C975 H1033 0.930 . S
C976 N973 1.314 . S
C976 C974 1.353 . S
C976 H1034 0.930 . S
C977 N973 1.279 . S
C977 C975 1.358 . S
C977 H1035 0.930 . S
C978 C981 1.348 . S
C978 C982 1.356 . S
C978 O1029 1.325 . S
C979 N980 1.279 . S
C979 C982 1.358 . S
C979 H1036 0.930 . S
N980 C979 1.279 . S
N980 C983 1.314 . S
C981 C978 1.348 . S
C981 C983 1.353 . S
C981 H1037 0.929 . S
C982 C978 1.356 . S
C982 C979 1.358 . S
C982 H1038 0.930 . S
C983 N980 1.314 . S
C983 C981 1.353 . S
C983 H1039 0.930 . S
C984 N985 1.314 . S
C984 C989 1.353 . S
C984 H990 0.930 . S
N985 Li968 1.990 . S
N985 C984 1.314 . S
N985 C987 1.279 . S
C986 C987 1.358 . S
C986 C988 1.356 . S
C986 H1040 0.930 . S
C987 N985 1.279 . S
C987 C986 1.358 . S
C987 H991 0.930 . S
C988 C986 1.356 . S
C988 C989 1.348 . S
C989 C984 1.353 . S
C989 C988 1.348 . S
C989 H1041 0.929 . S
H990 C984 0.930 . S
H991 C987 0.930 . S
C992 N993 1.314 . S
C992 C994 1.353 . S
C992 H998 0.930 . S
N993 Li969 1.990 . S
N993 C992 1.314 . S
N993 C996 1.279 . S
C994 C992 1.353 . S
C994 C997 1.348 . S
C994 H1042 0.929 . S
C995 C996 1.358 . S
C995 C997 1.356 . S
C995 H1043 0.930 . S
C996 N993 1.279 . S
C996 C995 1.358 . S
C996 H999 0.930 . S
C997 C994 1.348 . S
C997 C995 1.356 . S
H998 C992 0.930 . S
H999 C996 0.930 . S
C1000 C1002 1.348 . S
C1000 C1003 1.356 . S
C1000 O1030 1.325 . S
N1001 C1004 1.314 . S
N1001 C1005 1.279 . S
C1002 C1000 1.348 . S
C1002 C1004 1.353 . S
C1002 H1044 0.929 . S
C1003 C1000 1.356 . S
C1003 C1005 1.358 . S
C1003 H1045 0.930 . S
C1004 N1001 1.314 . S
C1004 C1002 1.353 . S
C1004 H1046 0.930 . S
C1005 N1001 1.279 . S
C1005 C1003 1.358 . S
C1005 H1047 0.930 . S
C1006 C1007 1.348 . S
C1006 C1008 1.356 . S
C1006 O1031 1.325 . S
C1007 C1006 1.348 . S
C1007 C1009 1.353 . S
C1007 H1048 0.929 . S
C1008 C1006 1.356 . S
C1008 C1010 1.358 . S
C1008 H1049 0.930 . S
C1009 C1007 1.353 . S
C1009 N1011 1.314 . S
C1009 H1050 0.930 . S
C1010 C1008 1.358 . S
C1010 N1011 1.279 . S
C1010 H1051 0.930 . S
N1011 C1009 1.314 . S
N1011 C1010 1.279 . S
C1012 C1014 1.353 . S
C1012 N1015 1.314 . S
C1012 H1018 0.930 . S
C1013 N1015 1.279 . S
C1013 C1016 1.358 . S
C1013 H1019 0.930 . S
C1014 C1012 1.353 . S
C1014 C1017 1.348 . S
C1014 H1052 0.929 . S
N1015 Li970 1.990 . S
N1015 C1012 1.314 . S
N1015 C1013 1.279 . S
C1016 C1013 1.358 . S
C1016 C1017 1.356 . S
C1016 H1053 0.930 . S
C1017 C1014 1.348 . S
C1017 C1016 1.356 . S
H1018 C1012 0.930 . S
H1019 C1013 0.930 . S
C1020 N1021 1.314 . S
C1020 C1022 1.353 . S
C1020 H1026 0.930 . S
N1021 Li971 1.990 . S
N1021 C1020 1.314 . S
N1021 C1024 1.279 . S
C1022 C1020 1.353 . S
C1022 C1025 1.348 . S
C1022 H1054 0.929 . S
C1023 C1024 1.358 . S
C1023 C1025 1.356 . S
C1023 H1055 0.930 . S
C1024 N1021 1.279 . S
C1024 C1023 1.358 . S
C1024 H1027 0.930 . S
C1025 C1022 1.348 . S
C1025 C1023 1.356 . S
H1026 C1020 0.930 . S
H1027 C1024 0.930 . S
O1028 Li968 1.956 . S
O1028 Li969 1.970 . S
O1028 Li970 1.961 . S
O1028 C972 1.325 . S
O1029 Li968 1.970 . S
O1029 Li969 1.956 . S
O1029 Li971 1.961 . S
O1029 C978 1.325 . S
O1030 Li968 1.961 . S
O1030 Li970 1.956 . S
O1030 Li971 1.970 . S
O1030 C1000 1.325 . S
O1031 Li969 1.961 . S
O1031 Li970 1.970 . S
O1031 Li971 1.956 . S
O1031 C1006 1.325 . S
H1032 C974 0.929 . S
H1033 C975 0.930 . S
H1034 C976 0.930 . S
H1035 C977 0.930 . S
H1036 C979 0.930 . S
H1037 C981 0.929 . S
H1038 C982 0.930 . S
H1039 C983 0.930 . S
H1040 C986 0.930 . S
H1041 C989 0.929 . S
H1042 C994 0.929 . S
H1043 C995 0.930 . S
H1044 C1002 0.929 . S
H1045 C1003 0.930 . S
H1046 C1004 0.930 . S
H1047 C1005 0.930 . S
H1048 C1007 0.929 . S
H1049 C1008 0.930 . S
H1050 C1009 0.930 . S
H1051 C1010 0.930 . S
H1052 C1014 0.929 . S
H1053 C1016 0.930 . S
H1054 C1022 0.929 . S
H1055 C1023 0.930 . S
Li1056 N1073 1.990 . S
Li1056 O1116 1.956 . S
Li1056 O1117 1.970 . S
Li1056 O1118 1.961 . S
Li1057 N1081 1.990 . S
Li1057 O1116 1.970 . S
Li1057 O1117 1.956 . S
Li1057 O1119 1.961 . S
Li1058 N1103 1.990 . S
Li1058 O1116 1.961 . S
Li1058 O1118 1.956 . S
Li1058 O1119 1.970 . S
Li1059 N1109 1.990 . S
Li1059 O1117 1.961 . S
Li1059 O1118 1.970 . S
Li1059 O1119 1.956 . S
C1060 C1062 1.348 . S
C1060 C1063 1.356 . S
C1060 O1116 1.325 . S
N1061 C1064 1.313 . S
N1061 C1065 1.279 1_554 S
C1062 C1060 1.348 . S
C1062 C1064 1.356 1_556 S
C1062 H1120 0.929 . S
C1063 C1060 1.356 . S
C1063 C1065 1.358 . S
C1063 H1121 0.930 . S
C1064 N1061 1.313 . S
C1064 C1062 1.356 1_554 S
C1064 H1122 0.928 . S
C1065 N1061 1.279 1_556 S
C1065 C1063 1.358 . S
C1065 H1123 0.930 . S
C1066 C1069 1.348 . S
C1066 C1070 1.356 . S
C1066 O1117 1.325 . S
C1067 N1068 1.279 . S
C1067 C1070 1.358 . S
C1067 H1124 0.930 . S
N1068 C1067 1.279 . S
N1068 C1071 1.314 . S
C1069 C1066 1.348 . S
C1069 C1071 1.353 . S
C1069 H1125 0.929 . S
C1070 C1066 1.356 . S
C1070 C1067 1.358 . S
C1070 H1126 0.930 . S
C1071 N1068 1.314 . S
C1071 C1069 1.353 . S
C1071 H1127 0.930 . S
C1072 N1073 1.314 . S
C1072 C1077 1.353 . S
C1072 H1078 0.930 . S
N1073 Li1056 1.990 . S
N1073 C1072 1.314 . S
N1073 C1075 1.279 . S
C1074 C1075 1.358 . S
C1074 C1076 1.356 . S
C1074 H1128 0.930 . S
C1075 N1073 1.279 . S
C1075 C1074 1.358 . S
C1075 H1079 0.930 . S
C1076 C1074 1.356 . S
C1076 C1077 1.348 . S
C1077 C1072 1.353 . S
C1077 C1076 1.348 . S
C1077 H1129 0.929 . S
H1078 C1072 0.930 . S
H1079 C1075 0.930 . S
C1080 N1081 1.314 . S
C1080 C1082 1.353 . S
C1080 H1086 0.930 . S
N1081 Li1057 1.990 . S
N1081 C1080 1.314 . S
N1081 C1084 1.279 . S
C1082 C1080 1.353 . S
C1082 C1085 1.348 . S
C1082 H1130 0.929 . S
C1083 C1084 1.358 . S
C1083 C1085 1.356 . S
C1083 H1131 0.930 . S
C1084 N1081 1.279 . S
C1084 C1083 1.358 . S
C1084 H1087 0.930 . S
C1085 C1082 1.348 . S
C1085 C1083 1.356 . S
H1086 C1080 0.930 . S
H1087 C1084 0.930 . S
C1088 C1090 1.348 . S
C1088 C1091 1.356 . S
C1088 O1118 1.325 . S
N1089 C1092 1.314 . S
N1089 C1093 1.279 . S
C1090 C1088 1.348 . S
C1090 C1092 1.353 . S
C1090 H1132 0.929 . S
C1091 C1088 1.356 . S
C1091 C1093 1.358 . S
C1091 H1133 0.930 . S
C1092 N1089 1.314 . S
C1092 C1090 1.353 . S
C1092 H1134 0.930 . S
C1093 N1089 1.279 . S
C1093 C1091 1.358 . S
C1093 H1135 0.930 . S
C1094 C1095 1.348 . S
C1094 C1096 1.356 . S
C1094 O1119 1.325 . S
C1095 C1094 1.348 . S
C1095 C1097 1.353 . S
C1095 H1136 0.929 . S
C1096 C1094 1.356 . S
C1096 C1098 1.358 . S
C1096 H1137 0.930 . S
C1097 C1095 1.353 . S
C1097 N1099 1.314 . S
C1097 H1138 0.930 . S
C1098 C1096 1.358 . S
C1098 N1099 1.279 . S
C1098 H1139 0.930 . S
N1099 C1097 1.314 . S
N1099 C1098 1.279 . S
C1100 C1102 1.353 . S
C1100 N1103 1.314 . S
C1100 H1106 0.930 . S
C1101 N1103 1.279 . S
C1101 C1104 1.358 . S
C1101 H1107 0.930 . S
C1102 C1100 1.353 . S
C1102 C1105 1.348 . S
C1102 H1140 0.929 . S
N1103 Li1058 1.990 . S
N1103 C1100 1.314 . S
N1103 C1101 1.279 . S
C1104 C1101 1.358 . S
C1104 C1105 1.356 . S
C1104 H1141 0.930 . S
C1105 C1102 1.348 . S
C1105 C1104 1.356 . S
H1106 C1100 0.930 . S
H1107 C1101 0.930 . S
C1108 N1109 1.314 . S
C1108 C1110 1.353 . S
C1108 H1114 0.930 . S
N1109 Li1059 1.990 . S
N1109 C1108 1.314 . S
N1109 C1112 1.279 . S
C1110 C1108 1.353 . S
C1110 C1113 1.348 . S
C1110 H1142 0.929 . S
C1111 C1112 1.358 . S
C1111 C1113 1.356 . S
C1111 H1143 0.930 . S
C1112 N1109 1.279 . S
C1112 C1111 1.358 . S
C1112 H1115 0.930 . S
C1113 C1110 1.348 . S
C1113 C1111 1.356 . S
H1114 C1108 0.930 . S
H1115 C1112 0.930 . S
O1116 Li1056 1.956 . S
O1116 Li1057 1.970 . S
O1116 Li1058 1.961 . S
O1116 C1060 1.325 . S
O1117 Li1056 1.970 . S
O1117 Li1057 1.956 . S
O1117 Li1059 1.961 . S
O1117 C1066 1.325 . S
O1118 Li1056 1.961 . S
O1118 Li1058 1.956 . S
O1118 Li1059 1.970 . S
O1118 C1088 1.325 . S
O1119 Li1057 1.961 . S
O1119 Li1058 1.970 . S
O1119 Li1059 1.956 . S
O1119 C1094 1.325 . S
H1120 C1062 0.929 . S
H1121 C1063 0.930 . S
H1122 C1064 0.928 . S
H1123 C1065 0.930 . S
H1124 C1067 0.930 . S
H1125 C1069 0.929 . S
H1126 C1070 0.930 . S
H1127 C1071 0.930 . S
H1128 C1074 0.930 . S
H1129 C1077 0.929 . S
H1130 C1082 0.929 . S
H1131 C1083 0.930 . S
H1132 C1090 0.929 . S
H1133 C1091 0.930 . S
H1134 C1092 0.930 . S
H1135 C1093 0.930 . S
H1136 C1095 0.929 . S
H1137 C1096 0.930 . S
H1138 C1097 0.930 . S
H1139 C1098 0.930 . S
H1140 C1102 0.929 . S
H1141 C1104 0.930 . S
H1142 C1110 0.929 . S
H1143 C1111 0.930 . S
Li1144 N1161 1.990 . S
Li1144 O1204 1.956 . S
Li1144 O1205 1.970 . S
Li1144 O1206 1.961 . S
Li1145 N1169 1.990 . S
Li1145 O1204 1.970 . S
Li1145 O1205 1.956 . S
Li1145 O1207 1.961 . S
Li1146 N1191 1.990 . S
Li1146 O1204 1.961 . S
Li1146 O1206 1.956 . S
Li1146 O1207 1.970 . S
Li1147 N1197 1.990 . S
Li1147 O1205 1.961 . S
Li1147 O1206 1.970 . S
Li1147 O1207 1.956 . S
C1148 C1150 1.348 . S
C1148 C1151 1.356 . S
C1148 O1204 1.325 . S
N1149 C1152 1.314 . S
N1149 C1153 1.279 . S
C1150 C1148 1.348 . S
C1150 C1152 1.353 . S
C1150 H1208 0.929 . S
C1151 C1148 1.356 . S
C1151 C1153 1.358 . S
C1151 H1209 0.930 . S
C1152 N1149 1.314 . S
C1152 C1150 1.353 . S
C1152 H1210 0.930 . S
C1153 N1149 1.279 . S
C1153 C1151 1.358 . S
C1153 H1211 0.930 . S
C1154 C1157 1.348 . S
C1154 C1158 1.356 . S
C1154 O1205 1.325 . S
C1155 N1156 1.279 . S
C1155 C1158 1.358 . S
C1155 H1212 0.930 . S
N1156 C1155 1.279 . S
N1156 C1159 1.314 . S
C1157 C1154 1.348 . S
C1157 C1159 1.353 . S
C1157 H1213 0.929 . S
C1158 C1154 1.356 . S
C1158 C1155 1.358 . S
C1158 H1214 0.930 . S
C1159 N1156 1.314 . S
C1159 C1157 1.353 . S
C1159 H1215 0.930 . S
C1160 N1161 1.314 . S
C1160 C1165 1.353 . S
C1160 H1166 0.930 . S
N1161 Li1144 1.990 . S
N1161 C1160 1.314 . S
N1161 C1163 1.279 . S
C1162 C1163 1.358 . S
C1162 C1164 1.356 . S
C1162 H1216 0.930 . S
C1163 N1161 1.279 . S
C1163 C1162 1.358 . S
C1163 H1167 0.930 . S
C1164 C1162 1.356 . S
C1164 C1165 1.348 . S
C1165 C1160 1.353 . S
C1165 C1164 1.348 . S
C1165 H1217 0.929 . S
H1166 C1160 0.930 . S
H1167 C1163 0.930 . S
C1168 N1169 1.314 . S
C1168 C1170 1.353 . S
C1168 H1174 0.930 . S
N1169 Li1145 1.990 . S
N1169 C1168 1.314 . S
N1169 C1172 1.279 . S
C1170 C1168 1.353 . S
C1170 C1173 1.348 . S
C1170 H1218 0.929 . S
C1171 C1172 1.358 . S
C1171 C1173 1.356 . S
C1171 H1219 0.930 . S
C1172 N1169 1.279 . S
C1172 C1171 1.358 . S
C1172 H1175 0.930 . S
C1173 C1170 1.348 . S
C1173 C1171 1.356 . S
H1174 C1168 0.930 . S
H1175 C1172 0.930 . S
C1176 C1178 1.348 . S
C1176 C1179 1.356 . S
C1176 O1206 1.325 . S
N1177 C1180 1.314 . S
N1177 C1181 1.279 . S
C1178 C1176 1.348 . S
C1178 C1180 1.353 . S
C1178 H1220 0.929 . S
C1179 C1176 1.356 . S
C1179 C1181 1.358 . S
C1179 H1221 0.930 . S
C1180 N1177 1.314 . S
C1180 C1178 1.353 . S
C1180 H1222 0.930 . S
C1181 N1177 1.279 . S
C1181 C1179 1.358 . S
C1181 H1223 0.930 . S
C1182 C1183 1.348 . S
C1182 C1184 1.356 . S
C1182 O1207 1.325 . S
C1183 C1182 1.348 . S
C1183 C1185 1.353 . S
C1183 H1224 0.929 . S
C1184 C1182 1.356 . S
C1184 C1186 1.358 . S
C1184 H1225 0.930 . S
C1185 C1183 1.353 . S
C1185 N1187 1.314 . S
C1185 H1226 0.930 . S
C1186 C1184 1.358 . S
C1186 N1187 1.279 . S
C1186 H1227 0.930 . S
N1187 C1185 1.314 . S
N1187 C1186 1.279 . S
C1188 C1190 1.353 . S
C1188 N1191 1.314 . S
C1188 H1194 0.930 . S
C1189 N1191 1.279 . S
C1189 C1192 1.358 . S
C1189 H1195 0.930 . S
C1190 C1188 1.353 . S
C1190 C1193 1.348 . S
C1190 H1228 0.929 . S
N1191 Li1146 1.990 . S
N1191 C1188 1.314 . S
N1191 C1189 1.279 . S
C1192 C1189 1.358 . S
C1192 C1193 1.356 . S
C1192 H1229 0.930 . S
C1193 C1190 1.348 . S
C1193 C1192 1.356 . S
H1194 C1188 0.930 . S
H1195 C1189 0.930 . S
C1196 N1197 1.314 . S
C1196 C1198 1.353 . S
C1196 H1202 0.930 . S
N1197 Li1147 1.990 . S
N1197 C1196 1.314 . S
N1197 C1200 1.279 . S
C1198 C1196 1.353 . S
C1198 C1201 1.348 . S
C1198 H1230 0.929 . S
C1199 C1200 1.358 . S
C1199 C1201 1.356 . S
C1199 H1231 0.930 . S
C1200 N1197 1.279 . S
C1200 C1199 1.358 . S
C1200 H1203 0.930 . S
C1201 C1198 1.348 . S
C1201 C1199 1.356 . S
H1202 C1196 0.930 . S
H1203 C1200 0.930 . S
O1204 Li1144 1.956 . S
O1204 Li1145 1.970 . S
O1204 Li1146 1.961 . S
O1204 C1148 1.325 . S
O1205 Li1144 1.970 . S
O1205 Li1145 1.956 . S
O1205 Li1147 1.961 . S
O1205 C1154 1.325 . S
O1206 Li1144 1.961 . S
O1206 Li1146 1.956 . S
O1206 Li1147 1.970 . S
O1206 C1176 1.325 . S
O1207 Li1145 1.961 . S
O1207 Li1146 1.970 . S
O1207 Li1147 1.956 . S
O1207 C1182 1.325 . S
H1208 C1150 0.929 . S
H1209 C1151 0.930 . S
H1210 C1152 0.930 . S
H1211 C1153 0.930 . S
H1212 C1155 0.930 . S
H1213 C1157 0.929 . S
H1214 C1158 0.930 . S
H1215 C1159 0.930 . S
H1216 C1162 0.930 . S
H1217 C1165 0.929 . S
H1218 C1170 0.929 . S
H1219 C1171 0.930 . S
H1220 C1178 0.929 . S
H1221 C1179 0.930 . S
H1222 C1180 0.930 . S
H1223 C1181 0.930 . S
H1224 C1183 0.929 . S
H1225 C1184 0.930 . S
H1226 C1185 0.930 . S
H1227 C1186 0.930 . S
H1228 C1190 0.929 . S
H1229 C1192 0.930 . S
H1230 C1198 0.929 . S
H1231 C1199 0.930 . S
Li1232 N1249 1.990 . S
Li1232 O1292 1.956 . S
Li1232 O1293 1.970 . S
Li1232 O1294 1.961 . S
Li1233 N1257 1.990 . S
Li1233 O1292 1.970 . S
Li1233 O1293 1.956 . S
Li1233 O1295 1.961 . S
Li1234 N1279 1.990 . S
Li1234 O1292 1.961 . S
Li1234 O1294 1.956 . S
Li1234 O1295 1.970 . S
Li1235 N1285 1.990 . S
Li1235 O1293 1.961 . S
Li1235 O1294 1.970 . S
Li1235 O1295 1.956 . S
C1236 C1238 1.348 . S
C1236 C1239 1.356 . S
C1236 O1292 1.325 . S
N1237 C1240 1.314 . S
N1237 C1241 1.279 . S
C1238 C1236 1.348 . S
C1238 C1240 1.353 . S
C1238 H1296 0.929 . S
C1239 C1236 1.356 . S
C1239 C1241 1.358 . S
C1239 H1297 0.930 . S
C1240 N1237 1.314 . S
C1240 C1238 1.353 . S
C1240 H1298 0.930 . S
C1241 N1237 1.279 . S
C1241 C1239 1.358 . S
C1241 H1299 0.930 . S
C1242 C1245 1.348 . S
C1242 C1246 1.356 . S
C1242 O1293 1.325 . S
C1243 N1244 1.279 . S
C1243 C1246 1.358 . S
C1243 H1300 0.930 . S
N1244 C1243 1.279 . S
N1244 C1247 1.314 . S
C1245 C1242 1.348 . S
C1245 C1247 1.353 . S
C1245 H1301 0.929 . S
C1246 C1242 1.356 . S
C1246 C1243 1.358 . S
C1246 H1302 0.930 . S
C1247 N1244 1.314 . S
C1247 C1245 1.353 . S
C1247 H1303 0.930 . S
C1248 N1249 1.314 . S
C1248 C1253 1.353 . S
C1248 H1254 0.930 . S
N1249 Li1232 1.990 . S
N1249 C1248 1.314 . S
N1249 C1251 1.279 . S
C1250 C1251 1.358 . S
C1250 C1252 1.356 . S
C1250 H1304 0.930 . S
C1251 N1249 1.279 . S
C1251 C1250 1.358 . S
C1251 H1255 0.930 . S
C1252 C1250 1.356 . S
C1252 C1253 1.348 . S
C1253 C1248 1.353 . S
C1253 C1252 1.348 . S
C1253 H1305 0.929 . S
H1254 C1248 0.930 . S
H1255 C1251 0.930 . S
C1256 N1257 1.314 . S
C1256 C1258 1.353 . S
C1256 H1262 0.930 . S
N1257 Li1233 1.990 . S
N1257 C1256 1.314 . S
N1257 C1260 1.279 . S
C1258 C1256 1.353 . S
C1258 C1261 1.348 . S
C1258 H1306 0.929 . S
C1259 C1260 1.358 . S
C1259 C1261 1.356 . S
C1259 H1307 0.930 . S
C1260 N1257 1.279 . S
C1260 C1259 1.358 . S
C1260 H1263 0.930 . S
C1261 C1258 1.348 . S
C1261 C1259 1.356 . S
H1262 C1256 0.930 . S
H1263 C1260 0.930 . S
C1264 C1266 1.348 . S
C1264 C1267 1.356 . S
C1264 O1294 1.325 . S
N1265 C1268 1.314 . S
N1265 C1269 1.279 . S
C1266 C1264 1.348 . S
C1266 C1268 1.353 . S
C1266 H1308 0.929 . S
C1267 C1264 1.356 . S
C1267 C1269 1.358 . S
C1267 H1309 0.930 . S
C1268 N1265 1.314 . S
C1268 C1266 1.353 . S
C1268 H1310 0.930 . S
C1269 N1265 1.279 . S
C1269 C1267 1.358 . S
C1269 H1311 0.930 . S
C1270 C1271 1.348 . S
C1270 C1272 1.356 . S
C1270 O1295 1.325 . S
C1271 C1270 1.348 . S
C1271 C1273 1.356 1_554 S
C1271 H1312 0.929 . S
C1272 C1270 1.356 . S
C1272 C1274 1.358 . S
C1272 H1313 0.930 . S
C1273 C1271 1.356 1_556 S
C1273 N1275 1.313 . S
C1273 H1314 0.928 . S
C1274 C1272 1.358 . S
C1274 N1275 1.279 1_554 S
C1274 H1315 0.930 . S
N1275 C1273 1.313 . S
N1275 C1274 1.279 1_556 S
C1276 C1278 1.353 . S
C1276 N1279 1.314 . S
C1276 H1282 0.930 . S
C1277 N1279 1.279 . S
C1277 C1280 1.358 . S
C1277 H1283 0.930 . S
C1278 C1276 1.353 . S
C1278 C1281 1.348 . S
C1278 H1316 0.929 . S
N1279 Li1234 1.990 . S
N1279 C1276 1.314 . S
N1279 C1277 1.279 . S
C1280 C1277 1.358 . S
C1280 C1281 1.356 . S
C1280 H1317 0.930 . S
C1281 C1278 1.348 . S
C1281 C1280 1.356 . S
H1282 C1276 0.930 . S
H1283 C1277 0.930 . S
C1284 N1285 1.314 . S
C1284 C1286 1.353 . S
C1284 H1290 0.930 . S
N1285 Li1235 1.990 . S
N1285 C1284 1.314 . S
N1285 C1288 1.279 . S
C1286 C1284 1.353 . S
C1286 C1289 1.348 . S
C1286 H1318 0.929 . S
C1287 C1288 1.358 . S
C1287 C1289 1.356 . S
C1287 H1319 0.930 . S
C1288 N1285 1.279 . S
C1288 C1287 1.358 . S
C1288 H1291 0.930 . S
C1289 C1286 1.348 . S
C1289 C1287 1.356 . S
H1290 C1284 0.930 . S
H1291 C1288 0.930 . S
O1292 Li1232 1.956 . S
O1292 Li1233 1.970 . S
O1292 Li1234 1.961 . S
O1292 C1236 1.325 . S
O1293 Li1232 1.970 . S
O1293 Li1233 1.956 . S
O1293 Li1235 1.961 . S
O1293 C1242 1.325 . S
O1294 Li1232 1.961 . S
O1294 Li1234 1.956 . S
O1294 Li1235 1.970 . S
O1294 C1264 1.325 . S
O1295 Li1233 1.961 . S
O1295 Li1234 1.970 . S
O1295 Li1235 1.956 . S
O1295 C1270 1.325 . S
H1296 C1238 0.929 . S
H1297 C1239 0.930 . S
H1298 C1240 0.930 . S
H1299 C1241 0.930 . S
H1300 C1243 0.930 . S
H1301 C1245 0.929 . S
H1302 C1246 0.930 . S
H1303 C1247 0.930 . S
H1304 C1250 0.930 . S
H1305 C1253 0.929 . S
H1306 C1258 0.929 . S
H1307 C1259 0.930 . S
H1308 C1266 0.929 . S
H1309 C1267 0.930 . S
H1310 C1268 0.930 . S
H1311 C1269 0.930 . S
H1312 C1271 0.929 . S
H1313 C1272 0.930 . S
H1314 C1273 0.928 . S
H1315 C1274 0.930 . S
H1316 C1278 0.929 . S
H1317 C1280 0.930 . S
H1318 C1286 0.929 . S
H1319 C1287 0.930 . S
Li1320 N1337 1.990 . S
Li1320 O1380 1.956 . S
Li1320 O1381 1.970 . S
Li1320 O1382 1.961 . S
Li1321 N1345 1.990 . S
Li1321 O1380 1.970 . S
Li1321 O1381 1.956 . S
Li1321 O1383 1.961 . S
Li1322 N1367 1.990 . S
Li1322 O1380 1.961 . S
Li1322 O1382 1.956 . S
Li1322 O1383 1.970 . S
Li1323 N1373 1.990 . S
Li1323 O1381 1.961 . S
Li1323 O1382 1.970 . S
Li1323 O1383 1.956 . S
C1324 C1326 1.348 . S
C1324 C1327 1.356 . S
C1324 O1380 1.325 . S
N1325 C1328 1.314 . S
N1325 C1329 1.279 . S
C1326 C1324 1.348 . S
C1326 C1328 1.353 . S
C1326 H1384 0.929 . S
C1327 C1324 1.356 . S
C1327 C1329 1.358 . S
C1327 H1385 0.930 . S
C1328 N1325 1.314 . S
C1328 C1326 1.353 . S
C1328 H1386 0.930 . S
C1329 N1325 1.279 . S
C1329 C1327 1.358 . S
C1329 H1387 0.930 . S
C1330 C1333 1.348 . S
C1330 C1334 1.356 . S
C1330 O1381 1.325 . S
C1331 N1332 1.279 . S
C1331 C1334 1.358 . S
C1331 H1388 0.930 . S
N1332 C1331 1.279 . S
N1332 C1335 1.314 . S
C1333 C1330 1.348 . S
C1333 C1335 1.353 . S
C1333 H1389 0.929 . S
C1334 C1330 1.356 . S
C1334 C1331 1.358 . S
C1334 H1390 0.930 . S
C1335 N1332 1.314 . S
C1335 C1333 1.353 . S
C1335 H1391 0.930 . S
C1336 N1337 1.314 . S
C1336 C1341 1.353 . S
C1336 H1342 0.930 . S
N1337 Li1320 1.990 . S
N1337 C1336 1.314 . S
N1337 C1339 1.279 . S
C1338 C1339 1.358 . S
C1338 C1340 1.356 . S
C1338 H1392 0.930 . S
C1339 N1337 1.279 . S
C1339 C1338 1.358 . S
C1339 H1343 0.930 . S
C1340 C1338 1.356 . S
C1340 C1341 1.348 . S
C1341 C1336 1.353 . S
C1341 C1340 1.348 . S
C1341 H1393 0.929 . S
H1342 C1336 0.930 . S
H1343 C1339 0.930 . S
C1344 N1345 1.314 . S
C1344 C1346 1.353 . S
C1344 H1350 0.930 . S
N1345 Li1321 1.990 . S
N1345 C1344 1.314 . S
N1345 C1348 1.279 . S
C1346 C1344 1.353 . S
C1346 C1349 1.348 . S
C1346 H1394 0.929 . S
C1347 C1348 1.358 . S
C1347 C1349 1.356 . S
C1347 H1395 0.930 . S
C1348 N1345 1.279 . S
C1348 C1347 1.358 . S
C1348 H1351 0.930 . S
C1349 C1346 1.348 . S
C1349 C1347 1.356 . S
H1350 C1344 0.930 . S
H1351 C1348 0.930 . S
C1352 C1354 1.348 . S
C1352 C1355 1.356 . S
C1352 O1382 1.325 . S
N1353 C1356 1.314 . S
N1353 C1357 1.279 . S
C1354 C1352 1.348 . S
C1354 C1356 1.353 . S
C1354 H1396 0.929 . S
C1355 C1352 1.356 . S
C1355 C1357 1.358 . S
C1355 H1397 0.930 . S
C1356 N1353 1.314 . S
C1356 C1354 1.353 . S
C1356 H1398 0.930 . S
C1357 N1353 1.279 . S
C1357 C1355 1.358 . S
C1357 H1399 0.930 . S
C1358 C1359 1.348 . S
C1358 C1360 1.356 . S
C1358 O1383 1.325 . S
C1359 C1358 1.348 . S
C1359 C1361 1.353 . S
C1359 H1400 0.929 . S
C1360 C1358 1.356 . S
C1360 C1362 1.358 . S
C1360 H1401 0.930 . S
C1361 C1359 1.353 . S
C1361 N1363 1.314 . S
C1361 H1402 0.930 . S
C1362 C1360 1.358 . S
C1362 N1363 1.279 . S
C1362 H1403 0.930 . S
N1363 C1361 1.314 . S
N1363 C1362 1.279 . S
C1364 C1366 1.353 . S
C1364 N1367 1.314 . S
C1364 H1370 0.930 . S
C1365 N1367 1.279 . S
C1365 C1368 1.358 . S
C1365 H1371 0.930 . S
C1366 C1364 1.353 . S
C1366 C1369 1.348 . S
C1366 H1404 0.929 . S
N1367 Li1322 1.990 . S
N1367 C1364 1.314 . S
N1367 C1365 1.279 . S
C1368 C1365 1.358 . S
C1368 C1369 1.356 . S
C1368 H1405 0.930 . S
C1369 C1366 1.348 . S
C1369 C1368 1.356 . S
H1370 C1364 0.930 . S
H1371 C1365 0.930 . S
C1372 N1373 1.314 . S
C1372 C1374 1.353 . S
C1372 H1378 0.930 . S
N1373 Li1323 1.990 . S
N1373 C1372 1.314 . S
N1373 C1376 1.279 . S
C1374 C1372 1.353 . S
C1374 C1377 1.348 . S
C1374 H1406 0.929 . S
C1375 C1376 1.358 . S
C1375 C1377 1.356 . S
C1375 H1407 0.930 . S
C1376 N1373 1.279 . S
C1376 C1375 1.358 . S
C1376 H1379 0.930 . S
C1377 C1374 1.348 . S
C1377 C1375 1.356 . S
H1378 C1372 0.930 . S
H1379 C1376 0.930 . S
O1380 Li1320 1.956 . S
O1380 Li1321 1.970 . S
O1380 Li1322 1.961 . S
O1380 C1324 1.325 . S
O1381 Li1320 1.970 . S
O1381 Li1321 1.956 . S
O1381 Li1323 1.961 . S
O1381 C1330 1.325 . S
O1382 Li1320 1.961 . S
O1382 Li1322 1.956 . S
O1382 Li1323 1.970 . S
O1382 C1352 1.325 . S
O1383 Li1321 1.961 . S
O1383 Li1322 1.970 . S
O1383 Li1323 1.956 . S
O1383 C1358 1.325 . S
H1384 C1326 0.929 . S
H1385 C1327 0.930 . S
H1386 C1328 0.930 . S
H1387 C1329 0.930 . S
H1388 C1331 0.930 . S
H1389 C1333 0.929 . S
H1390 C1334 0.930 . S
H1391 C1335 0.930 . S
H1392 C1338 0.930 . S
H1393 C1341 0.929 . S
H1394 C1346 0.929 . S
H1395 C1347 0.930 . S
H1396 C1354 0.929 . S
H1397 C1355 0.930 . S
H1398 C1356 0.930 . S
H1399 C1357 0.930 . S
H1400 C1359 0.929 . S
H1401 C1360 0.930 . S
H1402 C1361 0.930 . S
H1403 C1362 0.930 . S
H1404 C1366 0.929 . S
H1405 C1368 0.930 . S
H1406 C1374 0.929 . S
H1407 C1375 0.930 . S
C1408 C1409 1.391 . S
C1408 C1410 1.394 . S
C1408 H1424 0.931 . S
C1409 C1408 1.391 . S
C1409 C1413 1.376 . S
C1410 C1408 1.394 . S
C1410 C1411 1.369 . S
C1410 C1414 1.531 . S
C1411 C1410 1.369 . S
C1411 C1412 1.410 . S
C1411 C1419 1.503 1_455 S
C1412 C1411 1.410 . S
C1412 C1413 1.392 . S
C1412 C1415 1.511 . S
C1413 C1409 1.376 . S
C1413 C1412 1.392 . S
C1413 H1425 0.929 . S
C1414 C1410 1.531 . S
C1414 H1426 0.960 1_455 S
C1414 H1427 0.962 . S
C1414 H1428 0.960 . S
C1415 C1412 1.511 . S
C1415 H1429 0.961 . S
C1415 H1430 0.961 1_455 S
C1415 H1431 0.961 . S
C1416 C1417 1.370 . S
C1416 C1418 1.363 . S
C1416 H1432 0.931 . S
C1417 C1416 1.370 . S
C1417 C1421 1.408 . S
C1418 C1416 1.363 . S
C1418 C1419 1.370 . S
C1418 C1422 1.524 . S
C1419 C1411 1.503 1_655 S
C1419 C1418 1.370 . S
C1419 C1420 1.403 . S
C1420 C1419 1.403 . S
C1420 C1421 1.404 . S
C1420 C1423 1.539 . S
C1421 C1417 1.408 . S
C1421 C1420 1.404 . S
C1421 H1433 0.930 . S
C1422 C1418 1.524 . S
C1422 H1434 0.967 . S
C1422 H1435 0.961 1_655 S
C1422 H1436 0.961 . S
C1423 C1420 1.539 . S
C1423 H1437 0.958 . S
C1423 H1438 0.961 . S
C1423 H1439 0.955 1_655 S
H1424 C1408 0.931 . S
H1425 C1413 0.929 . S
H1426 C1414 0.960 1_655 S
H1427 C1414 0.962 . S
H1428 C1414 0.960 . S
H1429 C1415 0.961 . S
H1430 C1415 0.961 1_655 S
H1431 C1415 0.961 . S
H1432 C1416 0.931 . S
H1433 C1421 0.930 . S
H1434 C1422 0.967 . S
H1435 C1422 0.961 1_455 S
H1436 C1422 0.961 . S
H1437 C1423 0.958 . S
H1438 C1423 0.961 . S
H1439 C1423 0.955 1_455 S
C1440 C1441 1.391 . S
C1440 C1442 1.394 . S
C1440 H1456 0.931 . S
C1441 C1440 1.391 . S
C1441 C1445 1.376 . S
C1442 C1440 1.394 . S
C1442 C1443 1.369 . S
C1442 C1446 1.531 . S
C1443 C1442 1.369 . S
C1443 C1444 1.410 . S
C1443 C1451 1.503 1_655 S
C1444 C1443 1.410 . S
C1444 C1445 1.392 . S
C1444 C1447 1.511 . S
C1445 C1441 1.376 . S
C1445 C1444 1.392 . S
C1445 H1457 0.929 . S
C1446 C1442 1.531 . S
C1446 H1458 0.960 1_655 S
C1446 H1459 0.962 . S
C1446 H1460 0.960 . S
C1447 C1444 1.511 . S
C1447 H1461 0.961 . S
C1447 H1462 0.961 1_655 S
C1447 H1463 0.961 . S
C1448 C1449 1.370 . S
C1448 C1450 1.363 . S
C1448 H1464 0.931 . S
C1449 C1448 1.370 . S
C1449 C1453 1.408 . S
C1450 C1448 1.363 . S
C1450 C1451 1.370 . S
C1450 C1454 1.524 . S
C1451 C1443 1.503 1_455 S
C1451 C1450 1.370 . S
C1451 C1452 1.403 . S
C1452 C1451 1.403 . S
C1452 C1453 1.404 . S
C1452 C1455 1.539 . S
C1453 C1449 1.408 . S
C1453 C1452 1.404 . S
C1453 H1465 0.930 . S
C1454 C1450 1.524 . S
C1454 H1466 0.967 . S
C1454 H1467 0.961 1_455 S
C1454 H1468 0.961 . S
C1455 C1452 1.539 . S
C1455 H1469 0.958 . S
C1455 H1470 0.961 . S
C1455 H1471 0.955 1_455 S
H1456 C1440 0.931 . S
H1457 C1445 0.929 . S
H1458 C1446 0.960 1_455 S
H1459 C1446 0.962 . S
H1460 C1446 0.960 . S
H1461 C1447 0.961 . S
H1462 C1447 0.961 1_455 S
H1463 C1447 0.961 . S
H1464 C1448 0.931 . S
H1465 C1453 0.930 . S
H1466 C1454 0.967 . S
H1467 C1454 0.961 1_655 S
H1468 C1454 0.961 . S
H1469 C1455 0.958 . S
H1470 C1455 0.961 . S
H1471 C1455 0.955 1_655 S
C1472 C1473 1.391 . S
C1472 C1474 1.394 . S
C1472 H1488 0.931 . S
C1473 C1472 1.391 . S
C1473 C1477 1.376 . S
C1474 C1472 1.394 . S
C1474 C1475 1.369 . S
C1474 C1478 1.531 . S
C1475 C1474 1.369 . S
C1475 C1476 1.410 . S
C1475 C1483 1.503 1_655 S
C1476 C1475 1.410 . S
C1476 C1477 1.392 . S
C1476 C1479 1.511 . S
C1477 C1473 1.376 . S
C1477 C1476 1.392 . S
C1477 H1489 0.929 . S
C1478 C1474 1.531 . S
C1478 H1490 0.960 1_655 S
C1478 H1491 0.962 . S
C1478 H1492 0.960 . S
C1479 C1476 1.511 . S
C1479 H1493 0.961 . S
C1479 H1494 0.961 1_655 S
C1479 H1495 0.961 . S
C1480 C1481 1.370 . S
C1480 C1482 1.363 . S
C1480 H1496 0.931 . S
C1481 C1480 1.370 . S
C1481 C1485 1.408 . S
C1482 C1480 1.363 . S
C1482 C1483 1.370 . S
C1482 C1486 1.524 . S
C1483 C1475 1.503 1_455 S
C1483 C1482 1.370 . S
C1483 C1484 1.403 . S
C1484 C1483 1.403 . S
C1484 C1485 1.404 . S
C1484 C1487 1.539 . S
C1485 C1481 1.408 . S
C1485 C1484 1.404 . S
C1485 H1497 0.930 . S
C1486 C1482 1.524 . S
C1486 H1498 0.956 . S
C1486 H1499 0.935 1_455 S
C1486 H1500 0.961 . S
C1487 C1484 1.539 . S
C1487 H1501 0.958 . S
C1487 H1502 0.961 . S
C1487 H1503 0.998 . S
H1488 C1472 0.931 . S
H1489 C1477 0.929 . S
H1490 C1478 0.960 1_455 S
H1491 C1478 0.962 . S
H1492 C1478 0.960 . S
H1493 C1479 0.961 . S
H1494 C1479 0.961 1_455 S
H1495 C1479 0.961 . S
H1496 C1480 0.931 . S
H1497 C1485 0.930 . S
H1498 C1486 0.956 . S
H1499 C1486 0.935 1_655 S
H1500 C1486 0.961 . S
H1501 C1487 0.958 . S
H1502 C1487 0.961 . S
H1503 C1487 0.998 . S
C1504 C1505 1.391 . S
C1504 C1506 1.394 . S
C1504 H1520 0.931 . S
C1505 C1504 1.391 . S
C1505 C1509 1.376 . S
C1506 C1504 1.394 . S
C1506 C1507 1.369 . S
C1506 C1510 1.531 . S
C1507 C1506 1.369 . S
C1507 C1508 1.410 . S
C1507 C1515 1.503 1_455 S
C1508 C1507 1.410 . S
C1508 C1509 1.392 . S
C1508 C1511 1.511 . S
C1509 C1505 1.376 . S
C1509 C1508 1.392 . S
C1509 H1521 0.929 . S
C1510 C1506 1.531 . S
C1510 H1522 0.960 1_455 S
C1510 H1523 0.962 . S
C1510 H1524 0.960 . S
C1511 C1508 1.511 . S
C1511 H1525 0.961 . S
C1511 H1526 0.961 1_455 S
C1511 H1527 0.961 . S
C1512 C1513 1.370 . S
C1512 C1514 1.363 . S
C1512 H1528 0.931 . S
C1513 C1512 1.370 . S
C1513 C1517 1.408 . S
C1514 C1512 1.363 . S
C1514 C1515 1.370 . S
C1514 C1518 1.524 . S
C1515 C1507 1.503 1_655 S
C1515 C1514 1.370 . S
C1515 C1516 1.403 . S
C1516 C1515 1.403 . S
C1516 C1517 1.404 . S
C1516 C1519 1.539 . S
C1517 C1513 1.408 . S
C1517 C1516 1.404 . S
C1517 H1529 0.930 . S
C1518 C1514 1.524 . S
C1518 H1530 0.956 . S
C1518 H1531 0.936 1_655 S
C1518 H1532 0.961 . S
C1519 C1516 1.539 . S
C1519 H1533 0.958 . S
C1519 H1534 0.961 . S
C1519 H1535 0.996 . S
H1520 C1504 0.931 . S
H1521 C1509 0.929 . S
H1522 C1510 0.960 1_655 S
H1523 C1510 0.962 . S
H1524 C1510 0.960 . S
H1525 C1511 0.961 . S
H1526 C1511 0.961 1_655 S
H1527 C1511 0.961 . S
H1528 C1512 0.931 . S
H1529 C1517 0.930 . S
H1530 C1518 0.956 . S
H1531 C1518 0.936 1_455 S
H1532 C1518 0.961 . S
H1533 C1519 0.958 . S
H1534 C1519 0.961 . S
H1535 C1519 0.996 . S
C1536 C1537 1.391 . S
C1536 C1538 1.394 . S
C1536 H1552 0.931 . S
C1537 C1536 1.391 . S
C1537 C1541 1.376 . S
C1538 C1536 1.394 . S
C1538 C1539 1.369 . S
C1538 C1542 1.531 . S
C1539 C1538 1.369 . S
C1539 C1540 1.410 . S
C1539 C1547 1.503 . S
C1540 C1539 1.410 . S
C1540 C1541 1.392 . S
C1540 C1543 1.511 . S
C1541 C1537 1.376 . S
C1541 C1540 1.392 . S
C1541 H1553 0.929 . S
C1542 C1538 1.531 . S
C1542 H1554 0.960 . S
C1542 H1555 0.962 . S
C1542 H1556 0.960 . S
C1543 C1540 1.511 . S
C1543 H1557 0.961 . S
C1543 H1558 0.961 . S
C1543 H1559 0.961 . S
C1544 C1545 1.370 . S
C1544 C1546 1.363 . S
C1544 H1560 0.931 . S
C1545 C1544 1.370 . S
C1545 C1549 1.408 . S
C1546 C1544 1.363 . S
C1546 C1547 1.370 . S
C1546 C1550 1.524 . S
C1547 C1539 1.503 . S
C1547 C1546 1.370 . S
C1547 C1548 1.403 . S
C1548 C1547 1.403 . S
C1548 C1549 1.404 . S
C1548 C1551 1.539 . S
C1549 C1545 1.408 . S
C1549 C1548 1.404 . S
C1549 H1561 0.930 . S
C1550 C1546 1.524 . S
C1550 H1562 0.956 . S
C1550 H1563 0.961 . S
C1550 H1564 0.961 . S
C1551 C1548 1.539 . S
C1551 H1565 0.958 . S
C1551 H1566 0.961 . S
C1551 H1567 0.960 . S
H1552 C1536 0.931 . S
H1553 C1541 0.929 . S
H1554 C1542 0.960 . S
H1555 C1542 0.962 . S
H1556 C1542 0.960 . S
H1557 C1543 0.961 . S
H1558 C1543 0.961 . S
H1559 C1543 0.961 . S
H1560 C1544 0.931 . S
H1561 C1549 0.930 . S
H1562 C1550 0.956 . S
H1563 C1550 0.961 . S
H1564 C1550 0.961 . S
H1565 C1551 0.958 . S
H1566 C1551 0.961 . S
H1567 C1551 0.960 . S
C1568 C1569 1.391 . S
C1568 C1570 1.394 . S
C1568 H1584 0.931 . S
C1569 C1568 1.391 . S
C1569 C1573 1.376 . S
C1570 C1568 1.394 . S
C1570 C1571 1.369 . S
C1570 C1574 1.531 . S
C1571 C1570 1.369 . S
C1571 C1572 1.410 . S
C1571 C1579 1.503 . S
C1572 C1571 1.410 . S
C1572 C1573 1.392 . S
C1572 C1575 1.511 . S
C1573 C1569 1.376 . S
C1573 C1572 1.392 . S
C1573 H1585 0.929 . S
C1574 C1570 1.531 . S
C1574 H1586 0.960 . S
C1574 H1587 0.962 . S
C1574 H1588 0.960 . S
C1575 C1572 1.511 . S
C1575 H1589 0.961 . S
C1575 H1590 0.961 . S
C1575 H1591 0.961 . S
C1576 C1577 1.370 . S
C1576 C1578 1.363 . S
C1576 H1592 0.931 . S
C1577 C1576 1.370 . S
C1577 C1581 1.408 . S
C1578 C1576 1.363 . S
C1578 C1579 1.370 . S
C1578 C1582 1.524 . S
C1579 C1571 1.503 . S
C1579 C1578 1.370 . S
C1579 C1580 1.403 . S
C1580 C1579 1.403 . S
C1580 C1581 1.404 . S
C1580 C1583 1.539 . S
C1581 C1577 1.408 . S
C1581 C1580 1.404 . S
C1581 H1593 0.930 . S
C1582 C1578 1.524 . S
C1582 H1594 0.956 . S
C1582 H1595 0.961 . S
C1582 H1596 0.961 . S
C1583 C1580 1.539 . S
C1583 H1597 0.958 . S
C1583 H1598 0.961 . S
C1583 H1599 0.960 . S
H1584 C1568 0.931 . S
H1585 C1573 0.929 . S
H1586 C1574 0.960 . S
H1587 C1574 0.962 . S
H1588 C1574 0.960 . S
H1589 C1575 0.961 . S
H1590 C1575 0.961 . S
H1591 C1575 0.961 . S
H1592 C1576 0.931 . S
H1593 C1581 0.930 . S
H1594 C1582 0.956 . S
H1595 C1582 0.961 . S
H1596 C1582 0.961 . S
H1597 C1583 0.958 . S
H1598 C1583 0.961 . S
H1599 C1583 0.960 . S
C1600 C1601 1.391 . S
C1600 C1602 1.394 . S
C1600 H1616 0.931 . S
C1601 C1600 1.391 . S
C1601 C1605 1.376 . S
C1602 C1600 1.394 . S
C1602 C1603 1.369 . S
C1602 C1606 1.531 . S
C1603 C1602 1.369 . S
C1603 C1604 1.410 . S
C1603 C1611 1.503 . S
C1604 C1603 1.410 . S
C1604 C1605 1.392 . S
C1604 C1607 1.511 . S
C1605 C1601 1.376 . S
C1605 C1604 1.392 . S
C1605 H1617 0.929 . S
C1606 C1602 1.531 . S
C1606 H1618 0.960 . S
C1606 H1619 0.962 . S
C1606 H1620 0.960 . S
C1607 C1604 1.511 . S
C1607 H1621 0.961 . S
C1607 H1622 0.961 . S
C1607 H1623 0.961 . S
C1608 C1609 1.370 . S
C1608 C1610 1.363 . S
C1608 H1624 0.931 . S
C1609 C1608 1.370 . S
C1609 C1613 1.408 . S
C1610 C1608 1.363 . S
C1610 C1611 1.370 . S
C1610 C1614 1.524 . S
C1611 C1603 1.503 . S
C1611 C1610 1.370 . S
C1611 C1612 1.403 . S
C1612 C1611 1.403 . S
C1612 C1613 1.404 . S
C1612 C1615 1.539 . S
C1613 C1609 1.408 . S
C1613 C1612 1.404 . S
C1613 H1625 0.930 . S
C1614 C1610 1.524 . S
C1614 H1626 0.956 . S
C1614 H1627 0.961 . S
C1614 H1628 0.961 . S
C1615 C1612 1.539 . S
C1615 H1629 0.958 . S
C1615 H1630 0.961 . S
C1615 H1631 0.960 . S
H1616 C1600 0.931 . S
H1617 C1605 0.929 . S
H1618 C1606 0.960 . S
H1619 C1606 0.962 . S
H1620 C1606 0.960 . S
H1621 C1607 0.961 . S
H1622 C1607 0.961 . S
H1623 C1607 0.961 . S
H1624 C1608 0.931 . S
H1625 C1613 0.930 . S
H1626 C1614 0.956 . S
H1627 C1614 0.961 . S
H1628 C1614 0.961 . S
H1629 C1615 0.958 . S
H1630 C1615 0.961 . S
H1631 C1615 0.960 . S
C1632 C1633 1.391 . S
C1632 C1634 1.394 . S
C1632 H1648 0.931 . S
C1633 C1632 1.391 . S
C1633 C1637 1.376 . S
C1634 C1632 1.394 . S
C1634 C1635 1.369 . S
C1634 C1638 1.531 . S
C1635 C1634 1.369 . S
C1635 C1636 1.410 . S
C1635 C1643 1.503 . S
C1636 C1635 1.410 . S
C1636 C1637 1.392 . S
C1636 C1639 1.511 . S
C1637 C1633 1.376 . S
C1637 C1636 1.392 . S
C1637 H1649 0.929 . S
C1638 C1634 1.531 . S
C1638 H1650 0.960 . S
C1638 H1651 0.962 . S
C1638 H1652 0.960 . S
C1639 C1636 1.511 . S
C1639 H1653 0.961 . S
C1639 H1654 0.961 . S
C1639 H1655 0.961 . S
C1640 C1641 1.370 . S
C1640 C1642 1.363 . S
C1640 H1656 0.931 . S
C1641 C1640 1.370 . S
C1641 C1645 1.408 . S
C1642 C1640 1.363 . S
C1642 C1643 1.370 . S
C1642 C1646 1.524 . S
C1643 C1635 1.503 . S
C1643 C1642 1.370 . S
C1643 C1644 1.403 . S
C1644 C1643 1.403 . S
C1644 C1645 1.404 . S
C1644 C1647 1.539 . S
C1645 C1641 1.408 . S
C1645 C1644 1.404 . S
C1645 H1657 0.930 . S
C1646 C1642 1.524 . S
C1646 H1658 0.956 . S
C1646 H1659 0.961 . S
C1646 H1660 0.961 . S
C1647 C1644 1.539 . S
C1647 H1661 0.958 . S
C1647 H1662 0.961 . S
C1647 H1663 0.960 . S
H1648 C1632 0.931 . S
H1649 C1637 0.929 . S
H1650 C1638 0.960 . S
H1651 C1638 0.962 . S
H1652 C1638 0.960 . S
H1653 C1639 0.961 . S
H1654 C1639 0.961 . S
H1655 C1639 0.961 . S
H1656 C1640 0.931 . S
H1657 C1645 0.930 . S
H1658 C1646 0.956 . S
H1659 C1646 0.961 . S
H1660 C1646 0.961 . S
H1661 C1647 0.958 . S
H1662 C1647 0.961 . S
H1663 C1647 0.960 . S
C1664 C1665 1.391 . S
C1664 C1666 1.394 . S
C1664 H1680 0.931 . S
C1665 C1664 1.391 . S
C1665 C1669 1.376 . S
C1666 C1664 1.394 . S
C1666 C1667 1.369 . S
C1666 C1670 1.531 . S
C1667 C1666 1.369 . S
C1667 C1668 1.410 . S
C1667 C1675 1.503 . S
C1668 C1667 1.410 . S
C1668 C1669 1.392 . S
C1668 C1671 1.511 . S
C1669 C1665 1.376 . S
C1669 C1668 1.392 . S
C1669 H1681 0.929 . S
C1670 C1666 1.531 . S
C1670 H1682 0.960 . S
C1670 H1683 0.962 . S
C1670 H1684 0.960 . S
C1671 C1668 1.511 . S
C1671 H1685 0.961 . S
C1671 H1686 0.961 . S
C1671 H1687 0.961 . S
C1672 C1673 1.370 . S
C1672 C1674 1.363 . S
C1672 H1688 0.931 . S
C1673 C1672 1.370 . S
C1673 C1677 1.408 . S
C1674 C1672 1.363 . S
C1674 C1675 1.370 . S
C1674 C1678 1.524 . S
C1675 C1667 1.503 . S
C1675 C1674 1.370 . S
C1675 C1676 1.403 . S
C1676 C1675 1.403 . S
C1676 C1677 1.404 . S
C1676 C1679 1.539 . S
C1677 C1673 1.408 . S
C1677 C1676 1.404 . S
C1677 H1689 0.930 . S
C1678 C1674 1.524 . S
C1678 H1690 0.956 . S
C1678 H1691 0.961 . S
C1678 H1692 0.961 . S
C1679 C1676 1.539 . S
C1679 H1693 0.958 . S
C1679 H1694 0.961 . S
C1679 H1695 0.960 . S
H1680 C1664 0.931 . S
H1681 C1669 0.929 . S
H1682 C1670 0.960 . S
H1683 C1670 0.962 . S
H1684 C1670 0.960 . S
H1685 C1671 0.961 . S
H1686 C1671 0.961 . S
H1687 C1671 0.961 . S
H1688 C1672 0.931 . S
H1689 C1677 0.930 . S
H1690 C1678 0.956 . S
H1691 C1678 0.961 . S
H1692 C1678 0.961 . S
H1693 C1679 0.958 . S
H1694 C1679 0.961 . S
H1695 C1679 0.960 . S
C1696 C1697 1.391 . S
C1696 C1698 1.394 . S
C1696 H1712 0.931 . S
C1697 C1696 1.391 . S
C1697 C1701 1.376 . S
C1698 C1696 1.394 . S
C1698 C1699 1.369 . S
C1698 C1702 1.531 . S
C1699 C1698 1.369 . S
C1699 C1700 1.410 . S
C1699 C1707 1.503 . S
C1700 C1699 1.410 . S
C1700 C1701 1.392 . S
C1700 C1703 1.511 . S
C1701 C1697 1.376 . S
C1701 C1700 1.392 . S
C1701 H1713 0.929 . S
C1702 C1698 1.531 . S
C1702 H1714 0.960 . S
C1702 H1715 0.962 . S
C1702 H1716 0.960 . S
C1703 C1700 1.511 . S
C1703 H1717 0.961 . S
C1703 H1718 0.961 . S
C1703 H1719 0.961 . S
C1704 C1705 1.370 . S
C1704 C1706 1.363 . S
C1704 H1720 0.931 . S
C1705 C1704 1.370 . S
C1705 C1709 1.408 . S
C1706 C1704 1.363 . S
C1706 C1707 1.370 . S
C1706 C1710 1.524 . S
C1707 C1699 1.503 . S
C1707 C1706 1.370 . S
C1707 C1708 1.403 . S
C1708 C1707 1.403 . S
C1708 C1709 1.404 . S
C1708 C1711 1.539 . S
C1709 C1705 1.408 . S
C1709 C1708 1.404 . S
C1709 H1721 0.930 . S
C1710 C1706 1.524 . S
C1710 H1722 0.956 . S
C1710 H1723 0.961 . S
C1710 H1724 0.961 . S
C1711 C1708 1.539 . S
C1711 H1725 0.958 . S
C1711 H1726 0.961 . S
C1711 H1727 0.960 . S
H1712 C1696 0.931 . S
H1713 C1701 0.929 . S
H1714 C1702 0.960 . S
H1715 C1702 0.962 . S
H1716 C1702 0.960 . S
H1717 C1703 0.961 . S
H1718 C1703 0.961 . S
H1719 C1703 0.961 . S
H1720 C1704 0.931 . S
H1721 C1709 0.930 . S
H1722 C1710 0.956 . S
H1723 C1710 0.961 . S
H1724 C1710 0.961 . S
H1725 C1711 0.958 . S
H1726 C1711 0.961 . S
H1727 C1711 0.960 . S
C1728 C1729 1.391 . S
C1728 C1730 1.394 . S
C1728 H1744 0.931 . S
C1729 C1728 1.391 . S
C1729 C1733 1.376 . S
C1730 C1728 1.394 . S
C1730 C1731 1.369 . S
C1730 C1734 1.531 . S
C1731 C1730 1.369 . S
C1731 C1732 1.410 . S
C1731 C1739 1.503 . S
C1732 C1731 1.410 . S
C1732 C1733 1.392 . S
C1732 C1735 1.511 . S
C1733 C1729 1.376 . S
C1733 C1732 1.392 . S
C1733 H1745 0.929 . S
C1734 C1730 1.531 . S
C1734 H1746 0.960 . S
C1734 H1747 0.962 . S
C1734 H1748 0.960 . S
C1735 C1732 1.511 . S
C1735 H1749 0.961 . S
C1735 H1750 0.961 . S
C1735 H1751 0.961 . S
C1736 C1737 1.370 . S
C1736 C1738 1.363 . S
C1736 H1752 0.931 . S
C1737 C1736 1.370 . S
C1737 C1741 1.408 . S
C1738 C1736 1.363 . S
C1738 C1739 1.370 . S
C1738 C1742 1.524 . S
C1739 C1731 1.503 . S
C1739 C1738 1.370 . S
C1739 C1740 1.403 . S
C1740 C1739 1.403 . S
C1740 C1741 1.404 . S
C1740 C1743 1.539 . S
C1741 C1737 1.408 . S
C1741 C1740 1.404 . S
C1741 H1753 0.930 . S
C1742 C1738 1.524 . S
C1742 H1754 0.956 . S
C1742 H1755 0.961 . S
C1742 H1756 0.961 . S
C1743 C1740 1.539 . S
C1743 H1757 0.958 . S
C1743 H1758 0.961 . S
C1743 H1759 0.960 . S
H1744 C1728 0.931 . S
H1745 C1733 0.929 . S
H1746 C1734 0.960 . S
H1747 C1734 0.962 . S
H1748 C1734 0.960 . S
H1749 C1735 0.961 . S
H1750 C1735 0.961 . S
H1751 C1735 0.961 . S
H1752 C1736 0.931 . S
H1753 C1741 0.930 . S
H1754 C1742 0.956 . S
H1755 C1742 0.961 . S
H1756 C1742 0.961 . S
H1757 C1743 0.958 . S
H1758 C1743 0.961 . S
H1759 C1743 0.960 . S
C1760 C1761 1.391 . S
C1760 C1762 1.394 . S
C1760 H1776 0.931 . S
C1761 C1760 1.391 . S
C1761 C1765 1.376 . S
C1762 C1760 1.394 . S
C1762 C1763 1.369 . S
C1762 C1766 1.531 . S
C1763 C1762 1.369 . S
C1763 C1764 1.410 . S
C1763 C1771 1.503 . S
C1764 C1763 1.410 . S
C1764 C1765 1.392 . S
C1764 C1767 1.511 . S
C1765 C1761 1.376 . S
C1765 C1764 1.392 . S
C1765 H1777 0.929 . S
C1766 C1762 1.531 . S
C1766 H1778 0.960 . S
C1766 H1779 0.962 . S
C1766 H1780 0.960 . S
C1767 C1764 1.511 . S
C1767 H1781 0.961 . S
C1767 H1782 0.961 . S
C1767 H1783 0.961 . S
C1768 C1769 1.370 . S
C1768 C1770 1.363 . S
C1768 H1784 0.931 . S
C1769 C1768 1.370 . S
C1769 C1773 1.408 . S
C1770 C1768 1.363 . S
C1770 C1771 1.370 . S
C1770 C1774 1.524 . S
C1771 C1763 1.503 . S
C1771 C1770 1.370 . S
C1771 C1772 1.403 . S
C1772 C1771 1.403 . S
C1772 C1773 1.404 . S
C1772 C1775 1.539 . S
C1773 C1769 1.408 . S
C1773 C1772 1.404 . S
C1773 H1785 0.930 . S
C1774 C1770 1.524 . S
C1774 H1786 0.956 . S
C1774 H1787 0.961 . S
C1774 H1788 0.961 . S
C1775 C1772 1.539 . S
C1775 H1789 0.958 . S
C1775 H1790 0.961 . S
C1775 H1791 0.960 . S
H1776 C1760 0.931 . S
H1777 C1765 0.929 . S
H1778 C1766 0.960 . S
H1779 C1766 0.962 . S
H1780 C1766 0.960 . S
H1781 C1767 0.961 . S
H1782 C1767 0.961 . S
H1783 C1767 0.961 . S
H1784 C1768 0.931 . S
H1785 C1773 0.930 . S
H1786 C1774 0.956 . S
H1787 C1774 0.961 . S
H1788 C1774 0.961 . S
H1789 C1775 0.958 . S
H1790 C1775 0.961 . S
H1791 C1775 0.960 . S
C1792 C1793 1.391 . S
C1792 C1794 1.394 . S
C1792 H1808 0.931 . S
C1793 C1792 1.391 . S
C1793 C1797 1.376 . S
C1794 C1792 1.394 . S
C1794 C1795 1.369 . S
C1794 C1798 1.531 . S
C1795 C1794 1.369 . S
C1795 C1796 1.410 . S
C1795 C1803 1.503 . S
C1796 C1795 1.410 . S
C1796 C1797 1.392 . S
C1796 C1799 1.511 . S
C1797 C1793 1.376 . S
C1797 C1796 1.392 . S
C1797 H1809 0.929 . S
C1798 C1794 1.531 . S
C1798 H1810 0.960 . S
C1798 H1811 0.962 . S
C1798 H1812 0.960 . S
C1799 C1796 1.511 . S
C1799 H1813 0.961 . S
C1799 H1814 0.961 . S
C1799 H1815 0.961 . S
C1800 C1801 1.370 . S
C1800 C1802 1.363 . S
C1800 H1816 0.931 . S
C1801 C1800 1.370 . S
C1801 C1805 1.408 . S
C1802 C1800 1.363 . S
C1802 C1803 1.370 . S
C1802 C1806 1.524 . S
C1803 C1795 1.503 . S
C1803 C1802 1.370 . S
C1803 C1804 1.403 . S
C1804 C1803 1.403 . S
C1804 C1805 1.404 . S
C1804 C1807 1.539 . S
C1805 C1801 1.408 . S
C1805 C1804 1.404 . S
C1805 H1817 0.930 . S
C1806 C1802 1.524 . S
C1806 H1818 0.956 . S
C1806 H1819 0.961 . S
C1806 H1820 0.961 . S
C1807 C1804 1.539 . S
C1807 H1821 0.958 . S
C1807 H1822 0.961 . S
C1807 H1823 0.960 . S
H1808 C1792 0.931 . S
H1809 C1797 0.929 . S
H1810 C1798 0.960 . S
H1811 C1798 0.962 . S
H1812 C1798 0.960 . S
H1813 C1799 0.961 . S
H1814 C1799 0.961 . S
H1815 C1799 0.961 . S
H1816 C1800 0.931 . S
H1817 C1805 0.930 . S
H1818 C1806 0.956 . S
H1819 C1806 0.961 . S
H1820 C1806 0.961 . S
H1821 C1807 0.958 . S
H1822 C1807 0.961 . S
H1823 C1807 0.960 . S
C1824 C1825 1.391 . S
C1824 C1826 1.394 . S
C1824 H1840 0.931 . S
C1825 C1824 1.391 . S
C1825 C1829 1.376 . S
C1826 C1824 1.394 . S
C1826 C1827 1.369 . S
C1826 C1830 1.531 . S
C1827 C1826 1.369 . S
C1827 C1828 1.410 . S
C1827 C1835 1.503 . S
C1828 C1827 1.410 . S
C1828 C1829 1.392 . S
C1828 C1831 1.511 . S
C1829 C1825 1.376 . S
C1829 C1828 1.392 . S
C1829 H1841 0.929 . S
C1830 C1826 1.531 . S
C1830 H1842 0.960 . S
C1830 H1843 0.962 . S
C1830 H1844 0.960 . S
C1831 C1828 1.511 . S
C1831 H1845 0.961 . S
C1831 H1846 0.961 . S
C1831 H1847 0.961 . S
C1832 C1833 1.370 . S
C1832 C1834 1.363 . S
C1832 H1848 0.931 . S
C1833 C1832 1.370 . S
C1833 C1837 1.408 . S
C1834 C1832 1.363 . S
C1834 C1835 1.370 . S
C1834 C1838 1.524 . S
C1835 C1827 1.503 . S
C1835 C1834 1.370 . S
C1835 C1836 1.403 . S
C1836 C1835 1.403 . S
C1836 C1837 1.404 . S
C1836 C1839 1.539 . S
C1837 C1833 1.408 . S
C1837 C1836 1.404 . S
C1837 H1849 0.930 . S
C1838 C1834 1.524 . S
C1838 H1850 0.956 . S
C1838 H1851 0.961 . S
C1838 H1852 0.961 . S
C1839 C1836 1.539 . S
C1839 H1853 0.958 . S
C1839 H1854 0.961 . S
C1839 H1855 0.960 . S
H1840 C1824 0.931 . S
H1841 C1829 0.929 . S
H1842 C1830 0.960 . S
H1843 C1830 0.962 . S
H1844 C1830 0.960 . S
H1845 C1831 0.961 . S
H1846 C1831 0.961 . S
H1847 C1831 0.961 . S
H1848 C1832 0.931 . S
H1849 C1837 0.930 . S
H1850 C1838 0.956 . S
H1851 C1838 0.961 . S
H1852 C1838 0.961 . S
H1853 C1839 0.958 . S
H1854 C1839 0.961 . S
H1855 C1839 0.960 . S
C1856 C1857 1.391 . S
C1856 C1858 1.394 . S
C1856 H1872 0.931 . S
C1857 C1856 1.391 . S
C1857 C1861 1.376 . S
C1858 C1856 1.394 . S
C1858 C1859 1.369 . S
C1858 C1862 1.531 . S
C1859 C1858 1.369 . S
C1859 C1860 1.410 . S
C1859 C1867 1.503 . S
C1860 C1859 1.410 . S
C1860 C1861 1.392 . S
C1860 C1863 1.511 . S
C1861 C1857 1.376 . S
C1861 C1860 1.392 . S
C1861 H1873 0.929 . S
C1862 C1858 1.531 . S
C1862 H1874 0.960 . S
C1862 H1875 0.962 . S
C1862 H1876 0.960 . S
C1863 C1860 1.511 . S
C1863 H1877 0.961 . S
C1863 H1878 0.961 . S
C1863 H1879 0.961 . S
C1864 C1865 1.370 . S
C1864 C1866 1.363 . S
C1864 H1880 0.931 . S
C1865 C1864 1.370 . S
C1865 C1869 1.408 . S
C1866 C1864 1.363 . S
C1866 C1867 1.370 . S
C1866 C1870 1.524 . S
C1867 C1859 1.503 . S
C1867 C1866 1.370 . S
C1867 C1868 1.403 . S
C1868 C1867 1.403 . S
C1868 C1869 1.404 . S
C1868 C1871 1.539 . S
C1869 C1865 1.408 . S
C1869 C1868 1.404 . S
C1869 H1881 0.930 . S
C1870 C1866 1.524 . S
C1870 H1882 0.956 . S
C1870 H1883 0.961 . S
C1870 H1884 0.961 . S
C1871 C1868 1.539 . S
C1871 H1885 0.958 . S
C1871 H1886 0.961 . S
C1871 H1887 0.960 . S
H1872 C1856 0.931 . S
H1873 C1861 0.929 . S
H1874 C1862 0.960 . S
H1875 C1862 0.962 . S
H1876 C1862 0.960 . S
H1877 C1863 0.961 . S
H1878 C1863 0.961 . S
H1879 C1863 0.961 . S
H1880 C1864 0.931 . S
H1881 C1869 0.930 . S
H1882 C1870 0.956 . S
H1883 C1870 0.961 . S
H1884 C1870 0.961 . S
H1885 C1871 0.958 . S
H1886 C1871 0.961 . S
H1887 C1871 0.960 . S
C1888 C1889 1.391 . S
C1888 C1890 1.394 . S
C1888 H1904 0.931 . S
C1889 C1888 1.391 . S
C1889 C1893 1.376 . S
C1890 C1888 1.394 . S
C1890 C1891 1.369 . S
C1890 C1894 1.531 . S
C1891 C1890 1.369 . S
C1891 C1892 1.410 . S
C1891 C1899 1.503 . S
C1892 C1891 1.410 . S
C1892 C1893 1.392 . S
C1892 C1895 1.511 . S
C1893 C1889 1.376 . S
C1893 C1892 1.392 . S
C1893 H1905 0.929 . S
C1894 C1890 1.531 . S
C1894 H1906 0.960 . S
C1894 H1907 0.962 . S
C1894 H1908 0.960 . S
C1895 C1892 1.511 . S
C1895 H1909 0.961 . S
C1895 H1910 0.961 . S
C1895 H1911 0.961 . S
C1896 C1897 1.370 . S
C1896 C1898 1.363 . S
C1896 H1912 0.931 . S
C1897 C1896 1.370 . S
C1897 C1901 1.408 . S
C1898 C1896 1.363 . S
C1898 C1899 1.370 . S
C1898 C1902 1.524 . S
C1899 C1891 1.503 . S
C1899 C1898 1.370 . S
C1899 C1900 1.403 . S
C1900 C1899 1.403 . S
C1900 C1901 1.404 . S
C1900 C1903 1.539 . S
C1901 C1897 1.408 . S
C1901 C1900 1.404 . S
C1901 H1913 0.930 . S
C1902 C1898 1.524 . S
C1902 H1914 0.956 . S
C1902 H1915 0.961 . S
C1902 H1916 0.961 . S
C1903 C1900 1.539 . S
C1903 H1917 0.958 . S
C1903 H1918 0.961 . S
C1903 H1919 0.960 . S
H1904 C1888 0.931 . S
H1905 C1893 0.929 . S
H1906 C1894 0.960 . S
H1907 C1894 0.962 . S
H1908 C1894 0.960 . S
H1909 C1895 0.961 . S
H1910 C1895 0.961 . S
H1911 C1895 0.961 . S
H1912 C1896 0.931 . S
H1913 C1901 0.930 . S
H1914 C1902 0.956 . S
H1915 C1902 0.961 . S
H1916 C1902 0.961 . S
H1917 C1903 0.958 . S
H1918 C1903 0.961 . S
H1919 C1903 0.960 . S
C1920 C1921 1.391 . S
C1920 C1922 1.394 . S
C1920 H1936 0.931 . S
C1921 C1920 1.391 . S
C1921 C1925 1.376 . S
C1922 C1920 1.394 . S
C1922 C1923 1.369 . S
C1922 C1926 1.531 1_556 S
C1923 C1922 1.369 . S
C1923 C1924 1.410 . S
C1923 C1931 1.503 1_556 S
C1924 C1923 1.410 . S
C1924 C1925 1.392 . S
C1924 C1927 1.511 . S
C1925 C1921 1.376 . S
C1925 C1924 1.392 . S
C1925 H1937 0.929 . S
C1926 C1922 1.531 1_554 S
C1926 H1938 0.960 . S
C1926 H1939 0.962 1_554 S
C1926 H1940 0.960 . S
C1927 C1924 1.511 . S
C1927 H1941 0.961 . S
C1927 H1942 0.961 . S
C1927 H1943 0.961 1_556 S
C1928 C1929 1.370 . S
C1928 C1930 1.363 1_554 S
C1928 H1944 0.904 1_554 S
C1929 C1928 1.370 . S
C1929 C1933 1.408 . S
C1930 C1928 1.363 1_556 S
C1930 C1931 1.370 1_556 S
C1930 C1934 1.524 . S
C1931 C1923 1.503 1_554 S
C1931 C1930 1.370 1_554 S
C1931 C1932 1.403 . S
C1932 C1931 1.403 . S
C1932 C1933 1.404 . S
C1932 C1935 1.539 . S
C1933 C1929 1.408 . S
C1933 C1932 1.404 . S
C1933 H1945 0.930 . S
C1934 C1930 1.524 . S
C1934 H1946 0.956 . S
C1934 H1947 0.961 . S
C1934 H1948 0.961 . S
C1935 C1932 1.539 . S
C1935 H1949 0.958 . S
C1935 H1950 0.961 . S
C1935 H1951 0.960 . S
H1936 C1920 0.931 . S
H1937 C1925 0.929 . S
H1938 C1926 0.960 . S
H1939 C1926 0.962 1_556 S
H1940 C1926 0.960 . S
H1941 C1927 0.961 . S
H1942 C1927 0.961 . S
H1943 C1927 0.961 1_554 S
H1944 C1928 0.904 1_556 S
H1945 C1933 0.930 . S
H1946 C1934 0.956 . S
H1947 C1934 0.961 . S
H1948 C1934 0.961 . S
H1949 C1935 0.958 . S
H1950 C1935 0.961 . S
H1951 C1935 0.960 . S
C1952 C1953 1.391 . S
C1952 C1954 1.394 . S
C1952 H1968 0.931 . S
C1953 C1952 1.391 . S
C1953 C1957 1.376 . S
C1954 C1952 1.394 . S
C1954 C1955 1.369 . S
C1954 C1958 1.531 . S
C1955 C1954 1.369 . S
C1955 C1956 1.410 . S
C1955 C1963 1.503 . S
C1956 C1955 1.410 . S
C1956 C1957 1.392 . S
C1956 C1959 1.511 . S
C1957 C1953 1.376 . S
C1957 C1956 1.392 . S
C1957 H1969 0.929 . S
C1958 C1954 1.531 . S
C1958 H1970 0.960 . S
C1958 H1971 0.962 . S
C1958 H1972 0.960 . S
C1959 C1956 1.511 . S
C1959 H1973 0.961 . S
C1959 H1974 0.961 . S
C1959 H1975 0.961 . S
C1960 C1961 1.370 . S
C1960 C1962 1.363 . S
C1960 H1976 0.931 . S
C1961 C1960 1.370 . S
C1961 C1965 1.408 . S
C1962 C1960 1.363 . S
C1962 C1963 1.370 . S
C1962 C1966 1.524 . S
C1963 C1955 1.503 . S
C1963 C1962 1.370 . S
C1963 C1964 1.403 . S
C1964 C1963 1.403 . S
C1964 C1965 1.404 . S
C1964 C1967 1.539 . S
C1965 C1961 1.408 . S
C1965 C1964 1.404 . S
C1965 H1977 0.930 . S
C1966 C1962 1.524 . S
C1966 H1978 0.956 . S
C1966 H1979 0.961 . S
C1966 H1980 0.961 . S
C1967 C1964 1.539 . S
C1967 H1981 0.958 . S
C1967 H1982 0.961 . S
C1967 H1983 0.960 . S
H1968 C1952 0.931 . S
H1969 C1957 0.929 . S
H1970 C1958 0.960 . S
H1971 C1958 0.962 . S
H1972 C1958 0.960 . S
H1973 C1959 0.961 . S
H1974 C1959 0.961 . S
H1975 C1959 0.961 . S
H1976 C1960 0.931 . S
H1977 C1965 0.930 . S
H1978 C1966 0.956 . S
H1979 C1966 0.961 . S
H1980 C1966 0.961 . S
H1981 C1967 0.958 . S
H1982 C1967 0.961 . S
H1983 C1967 0.960 . S
C1984 C1985 1.391 . S
C1984 C1986 1.394 . S
C1984 H2000 0.931 . S
C1985 C1984 1.391 . S
C1985 C1989 1.376 . S
C1986 C1984 1.394 . S
C1986 C1987 1.369 . S
C1986 C1990 1.531 . S
C1987 C1986 1.369 . S
C1987 C1988 1.410 . S
C1987 C1995 1.503 1_554 S
C1988 C1987 1.410 . S
C1988 C1989 1.392 . S
C1988 C1991 1.511 1_554 S
C1989 C1985 1.376 . S
C1989 C1988 1.392 . S
C1989 H2001 0.929 . S
C1990 C1986 1.531 . S
C1990 H2002 0.960 . S
C1990 H2003 0.962 . S
C1990 H2004 0.960 . S
C1991 C1988 1.511 1_556 S
C1991 H2005 0.961 . S
C1991 H2006 0.961 . S
C1991 H2007 0.961 1_556 S
C1992 C1993 1.370 . S
C1992 C1994 1.363 . S
C1992 H2008 0.931 . S
C1993 C1992 1.370 . S
C1993 C1997 1.408 . S
C1994 C1992 1.363 . S
C1994 C1995 1.370 . S
C1994 C1998 1.524 . S
C1995 C1987 1.503 1_556 S
C1995 C1994 1.370 . S
C1995 C1996 1.403 1_556 S
C1996 C1995 1.403 1_554 S
C1996 C1997 1.404 1_554 S
C1996 C1999 1.539 . S
C1997 C1993 1.408 . S
C1997 C1996 1.404 1_556 S
C1997 H2009 0.930 . S
C1998 C1994 1.524 . S
C1998 H2010 0.956 . S
C1998 H2011 0.961 . S
C1998 H2012 0.961 . S
C1999 C1996 1.539 . S
C1999 H2013 0.958 . S
C1999 H2014 0.961 . S
C1999 H2015 0.960 . S
H2000 C1984 0.931 . S
H2001 C1989 0.929 . S
H2002 C1990 0.960 . S
H2003 C1990 0.962 . S
H2004 C1990 0.960 . S
H2005 C1991 0.961 . S
H2006 C1991 0.961 . S
H2007 C1991 0.961 1_554 S
H2008 C1992 0.931 . S
H2009 C1997 0.930 . S
H2010 C1998 0.956 . S
H2011 C1998 0.961 . S
H2012 C1998 0.961 . S
H2013 C1999 0.958 . S
H2014 C1999 0.961 . S
H2015 C1999 0.960 . S
C2016 C2017 1.391 . S
C2016 C2018 1.394 . S
C2016 H2032 0.931 . S
C2017 C2016 1.391 . S
C2017 C2021 1.376 . S
C2018 C2016 1.394 . S
C2018 C2019 1.369 . S
C2018 C2022 1.531 . S
C2019 C2018 1.369 . S
C2019 C2020 1.410 . S
C2019 C2027 1.503 . S
C2020 C2019 1.410 . S
C2020 C2021 1.392 . S
C2020 C2023 1.511 . S
C2021 C2017 1.376 . S
C2021 C2020 1.392 . S
C2021 H2033 0.929 . S
C2022 C2018 1.531 . S
C2022 H2034 0.960 . S
C2022 H2035 0.962 . S
C2022 H2036 0.960 . S
C2023 C2020 1.511 . S
C2023 H2037 0.961 . S
C2023 H2038 0.961 . S
C2023 H2039 0.961 . S
C2024 C2025 1.370 . S
C2024 C2026 1.363 . S
C2024 H2040 0.931 . S
C2025 C2024 1.370 . S
C2025 C2029 1.408 . S
C2026 C2024 1.363 . S
C2026 C2027 1.370 . S
C2026 C2030 1.524 . S
C2027 C2019 1.503 . S
C2027 C2026 1.370 . S
C2027 C2028 1.403 . S
C2028 C2027 1.403 . S
C2028 C2029 1.404 . S
C2028 C2031 1.539 . S
C2029 C2025 1.408 . S
C2029 C2028 1.404 . S
C2029 H2041 0.930 . S
C2030 C2026 1.524 . S
C2030 H2042 0.956 . S
C2030 H2043 0.961 . S
C2030 H2044 0.961 . S
C2031 C2028 1.539 . S
C2031 H2045 0.958 . S
C2031 H2046 0.961 . S
C2031 H2047 0.960 . S
H2032 C2016 0.931 . S
H2033 C2021 0.929 . S
H2034 C2022 0.960 . S
H2035 C2022 0.962 . S
H2036 C2022 0.960 . S
H2037 C2023 0.961 . S
H2038 C2023 0.961 . S
H2039 C2023 0.961 . S
H2040 C2024 0.931 . S
H2041 C2029 0.930 . S
H2042 C2030 0.956 . S
H2043 C2030 0.961 . S
H2044 C2030 0.961 . S
H2045 C2031 0.958 . S
H2046 C2031 0.961 . S
H2047 C2031 0.960 . S
C2048 C2049 1.391 . S
C2048 C2050 1.394 . S
C2048 H2064 0.931 . S
C2049 C2048 1.391 . S
C2049 C2053 1.376 . S
C2050 C2048 1.394 . S
C2050 C2051 1.369 . S
C2050 C2054 1.531 . S
C2051 C2050 1.369 . S
C2051 C2052 1.410 . S
C2051 C2059 1.503 1_554 S
C2052 C2051 1.410 . S
C2052 C2053 1.392 . S
C2052 C2055 1.511 1_554 S
C2053 C2049 1.376 . S
C2053 C2052 1.392 . S
C2053 H2065 0.929 . S
C2054 C2050 1.531 . S
C2054 H2066 0.960 . S
C2054 H2067 0.962 . S
C2054 H2068 0.960 . S
C2055 C2052 1.511 1_556 S
C2055 H2069 0.961 . S
C2055 H2070 0.961 . S
C2055 H2071 0.961 1_556 S
C2056 C2057 1.370 . S
C2056 C2058 1.363 . S
C2056 H2072 0.931 . S
C2057 C2056 1.370 . S
C2057 C2061 1.408 . S
C2058 C2056 1.363 . S
C2058 C2059 1.370 . S
C2058 C2062 1.524 . S
C2059 C2051 1.503 1_556 S
C2059 C2058 1.370 . S
C2059 C2060 1.403 1_556 S
C2060 C2059 1.403 1_554 S
C2060 C2061 1.404 1_554 S
C2060 C2063 1.539 . S
C2061 C2057 1.408 . S
C2061 C2060 1.404 1_556 S
C2061 H2073 0.937 . S
C2062 C2058 1.524 . S
C2062 H2074 0.956 . S
C2062 H2075 0.961 . S
C2062 H2076 0.961 . S
C2063 C2060 1.539 . S
C2063 H2077 0.958 . S
C2063 H2078 0.961 . S
C2063 H2079 0.960 . S
H2064 C2048 0.931 . S
H2065 C2053 0.929 . S
H2066 C2054 0.960 . S
H2067 C2054 0.962 . S
H2068 C2054 0.960 . S
H2069 C2055 0.961 . S
H2070 C2055 0.961 . S
H2071 C2055 0.961 1_554 S
H2072 C2056 0.931 . S
H2073 C2061 0.937 . S
H2074 C2062 0.956 . S
H2075 C2062 0.961 . S
H2076 C2062 0.961 . S
H2077 C2063 0.958 . S
H2078 C2063 0.961 . S
H2079 C2063 0.960 . S
C2080 C2081 1.391 . S
C2080 C2082 1.394 . S
C2080 H2096 0.931 . S
C2081 C2080 1.391 . S
C2081 C2085 1.376 . S
C2082 C2080 1.394 . S
C2082 C2083 1.369 . S
C2082 C2086 1.531 . S
C2083 C2082 1.369 . S
C2083 C2084 1.410 . S
C2083 C2091 1.503 . S
C2084 C2083 1.410 . S
C2084 C2085 1.392 . S
C2084 C2087 1.511 . S
C2085 C2081 1.376 . S
C2085 C2084 1.392 . S
C2085 H2097 0.929 . S
C2086 C2082 1.531 . S
C2086 H2098 0.960 . S
C2086 H2099 0.962 . S
C2086 H2100 0.960 . S
C2087 C2084 1.511 . S
C2087 H2101 0.961 . S
C2087 H2102 0.961 . S
C2087 H2103 0.961 . S
C2088 C2089 1.370 . S
C2088 C2090 1.363 . S
C2088 H2104 0.931 . S
C2089 C2088 1.370 . S
C2089 C2093 1.408 . S
C2090 C2088 1.363 . S
C2090 C2091 1.370 . S
C2090 C2094 1.524 . S
C2091 C2083 1.503 . S
C2091 C2090 1.370 . S
C2091 C2092 1.403 . S
C2092 C2091 1.403 . S
C2092 C2093 1.404 . S
C2092 C2095 1.539 . S
C2093 C2089 1.408 . S
C2093 C2092 1.404 . S
C2093 H2105 0.930 . S
C2094 C2090 1.524 . S
C2094 H2106 0.956 . S
C2094 H2107 0.961 . S
C2094 H2108 0.961 . S
C2095 C2092 1.539 . S
C2095 H2109 0.958 . S
C2095 H2110 0.961 . S
C2095 H2111 0.960 . S
H2096 C2080 0.931 . S
H2097 C2085 0.929 . S
H2098 C2086 0.960 . S
H2099 C2086 0.962 . S
H2100 C2086 0.960 . S
H2101 C2087 0.961 . S
H2102 C2087 0.961 . S
H2103 C2087 0.961 . S
H2104 C2088 0.931 . S
H2105 C2093 0.930 . S
H2106 C2094 0.956 . S
H2107 C2094 0.961 . S
H2108 C2094 0.961 . S
H2109 C2095 0.958 . S
H2110 C2095 0.961 . S
H2111 C2095 0.960 . S
C2112 C2113 1.391 . S
C2112 C2114 1.394 . S
C2112 H2128 0.931 . S
C2113 C2112 1.391 . S
C2113 C2117 1.376 . S
C2114 C2112 1.394 . S
C2114 C2115 1.369 . S
C2114 C2118 1.531 . S
C2115 C2114 1.369 . S
C2115 C2116 1.410 . S
C2115 C2123 1.503 1_554 S
C2116 C2115 1.410 . S
C2116 C2117 1.392 . S
C2116 C2119 1.511 1_554 S
C2117 C2113 1.376 . S
C2117 C2116 1.392 . S
C2117 H2129 0.929 . S
C2118 C2114 1.531 . S
C2118 H2130 0.960 . S
C2118 H2131 0.962 . S
C2118 H2132 0.960 . S
C2119 C2116 1.511 1_556 S
C2119 H2133 0.961 . S
C2119 H2134 0.961 . S
C2119 H2135 0.961 1_556 S
C2120 C2121 1.370 . S
C2120 C2122 1.363 . S
C2120 H2136 0.931 . S
C2121 C2120 1.370 . S
C2121 C2125 1.408 . S
C2122 C2120 1.363 . S
C2122 C2123 1.370 . S
C2122 C2126 1.524 . S
C2123 C2115 1.503 1_556 S
C2123 C2122 1.370 . S
C2123 C2124 1.403 1_556 S
C2124 C2123 1.403 1_554 S
C2124 C2125 1.404 1_554 S
C2124 C2127 1.539 . S
C2125 C2121 1.408 . S
C2125 C2124 1.404 1_556 S
C2125 H2137 0.930 . S
C2126 C2122 1.524 . S
C2126 H2138 0.956 . S
C2126 H2139 0.961 . S
C2126 H2140 0.961 . S
C2127 C2124 1.539 . S
C2127 H2141 0.958 . S
C2127 H2142 0.961 . S
C2127 H2143 0.960 . S
H2128 C2112 0.931 . S
H2129 C2117 0.929 . S
H2130 C2118 0.960 . S
H2131 C2118 0.962 . S
H2132 C2118 0.960 . S
H2133 C2119 0.961 . S
H2134 C2119 0.961 . S
H2135 C2119 0.961 1_554 S
H2136 C2120 0.931 . S
H2137 C2125 0.930 . S
H2138 C2126 0.956 . S
H2139 C2126 0.961 . S
H2140 C2126 0.961 . S
H2141 C2127 0.958 . S
H2142 C2127 0.961 . S
H2143 C2127 0.960 . S
C2144 C2145 1.391 . S
C2144 C2146 1.394 . S
C2144 H2160 0.931 . S
C2145 C2144 1.391 . S
C2145 C2149 1.376 . S
C2146 C2144 1.394 . S
C2146 C2147 1.369 . S
C2146 C2150 1.531 . S
C2147 C2146 1.369 . S
C2147 C2148 1.410 . S
C2147 C2155 1.503 . S
C2148 C2147 1.410 . S
C2148 C2149 1.392 . S
C2148 C2151 1.511 . S
C2149 C2145 1.376 . S
C2149 C2148 1.392 . S
C2149 H2161 0.929 . S
C2150 C2146 1.531 . S
C2150 H2162 0.960 . S
C2150 H2163 0.962 . S
C2150 H2164 0.960 . S
C2151 C2148 1.511 . S
C2151 H2165 0.961 . S
C2151 H2166 0.961 . S
C2151 H2167 0.961 . S
C2152 C2153 1.370 . S
C2152 C2154 1.363 . S
C2152 H2168 0.931 . S
C2153 C2152 1.370 . S
C2153 C2157 1.408 . S
C2154 C2152 1.363 . S
C2154 C2155 1.370 . S
C2154 C2158 1.524 . S
C2155 C2147 1.503 . S
C2155 C2154 1.370 . S
C2155 C2156 1.403 . S
C2156 C2155 1.403 . S
C2156 C2157 1.404 . S
C2156 C2159 1.539 . S
C2157 C2153 1.408 . S
C2157 C2156 1.404 . S
C2157 H2169 0.930 . S
C2158 C2154 1.524 . S
C2158 H2170 0.956 . S
C2158 H2171 0.961 . S
C2158 H2172 0.961 . S
C2159 C2156 1.539 . S
C2159 H2173 0.958 . S
C2159 H2174 0.961 . S
C2159 H2175 0.960 . S
H2160 C2144 0.931 . S
H2161 C2149 0.929 . S
H2162 C2150 0.960 . S
H2163 C2150 0.962 . S
H2164 C2150 0.960 . S
H2165 C2151 0.961 . S
H2166 C2151 0.961 . S
H2167 C2151 0.961 . S
H2168 C2152 0.931 . S
H2169 C2157 0.930 . S
H2170 C2158 0.956 . S
H2171 C2158 0.961 . S
H2172 C2158 0.961 . S
H2173 C2159 0.958 . S
H2174 C2159 0.961 . S
H2175 C2159 0.960 . S
C2176 C2177 1.391 . S
C2176 C2178 1.394 1_556 S
C2176 H2192 0.931 . S
C2177 C2176 1.391 . S
C2177 C2181 1.376 . S
C2178 C2176 1.394 1_554 S
C2178 C2179 1.369 1_554 S
C2178 C2182 1.531 . S
C2179 C2178 1.369 1_556 S
C2179 C2180 1.410 . S
C2179 C2187 1.503 1_556 S
C2180 C2179 1.410 . S
C2180 C2181 1.392 . S
C2180 C2183 1.511 . S
C2181 C2177 1.376 . S
C2181 C2180 1.392 . S
C2181 H2193 0.929 . S
C2182 C2178 1.531 . S
C2182 H2194 0.960 . S
C2182 H2195 0.962 . S
C2182 H2196 0.960 . S
C2183 C2180 1.511 . S
C2183 H2197 0.961 . S
C2183 H2198 0.961 . S
C2183 H2199 0.961 . S
C2184 C2185 1.370 . S
C2184 C2186 1.363 . S
C2184 H2200 0.931 . S
C2185 C2184 1.370 . S
C2185 C2189 1.408 . S
C2186 C2184 1.363 . S
C2186 C2187 1.370 . S
C2186 C2190 1.524 1_554 S
C2187 C2179 1.503 1_554 S
C2187 C2186 1.370 . S
C2187 C2188 1.403 . S
C2188 C2187 1.403 . S
C2188 C2189 1.404 . S
C2188 C2191 1.539 . S
C2189 C2185 1.408 . S
C2189 C2188 1.404 . S
C2189 H2201 0.930 . S
C2190 C2186 1.524 1_556 S
C2190 H2202 0.956 . S
C2190 H2203 0.961 . S
C2190 H2204 0.961 . S
C2191 C2188 1.539 . S
C2191 H2205 0.958 . S
C2191 H2206 0.961 . S
C2191 H2207 0.960 . S
H2192 C2176 0.931 . S
H2193 C2181 0.929 . S
H2194 C2182 0.960 . S
H2195 C2182 0.962 . S
H2196 C2182 0.960 . S
H2197 C2183 0.961 . S
H2198 C2183 0.961 . S
H2199 C2183 0.961 . S
H2200 C2184 0.931 . S
H2201 C2189 0.930 . S
H2202 C2190 0.956 . S
H2203 C2190 0.961 . S
H2204 C2190 0.961 . S
H2205 C2191 0.958 . S
H2206 C2191 0.961 . S
H2207 C2191 0.960 . S
C2208 C2209 1.391 . S
C2208 C2210 1.394 . S
C2208 H2224 0.931 . S
C2209 C2208 1.391 . S
C2209 C2213 1.376 . S
C2210 C2208 1.394 . S
C2210 C2211 1.369 . S
C2210 C2214 1.531 . S
C2211 C2210 1.369 . S
C2211 C2212 1.410 . S
C2211 C2219 1.503 . S
C2212 C2211 1.410 . S
C2212 C2213 1.392 . S
C2212 C2215 1.511 . S
C2213 C2209 1.376 . S
C2213 C2212 1.392 . S
C2213 H2225 0.929 . S
C2214 C2210 1.531 . S
C2214 H2226 0.960 . S
C2214 H2227 0.962 . S
C2214 H2228 0.960 . S
C2215 C2212 1.511 . S
C2215 H2229 0.961 . S
C2215 H2230 0.961 . S
C2215 H2231 0.961 . S
C2216 C2217 1.370 . S
C2216 C2218 1.363 . S
C2216 H2232 0.931 . S
C2217 C2216 1.370 . S
C2217 C2221 1.408 . S
C2218 C2216 1.363 . S
C2218 C2219 1.370 . S
C2218 C2222 1.524 . S
C2219 C2211 1.503 . S
C2219 C2218 1.370 . S
C2219 C2220 1.403 . S
C2220 C2219 1.403 . S
C2220 C2221 1.404 . S
C2220 C2223 1.539 . S
C2221 C2217 1.408 . S
C2221 C2220 1.404 . S
C2221 H2233 0.930 . S
C2222 C2218 1.524 . S
C2222 H2234 0.956 . S
C2222 H2235 0.961 . S
C2222 H2236 0.961 . S
C2223 C2220 1.539 . S
C2223 H2237 0.958 . S
C2223 H2238 0.961 . S
C2223 H2239 0.960 . S
H2224 C2208 0.931 . S
H2225 C2213 0.929 . S
H2226 C2214 0.960 . S
H2227 C2214 0.962 . S
H2228 C2214 0.960 . S
H2229 C2215 0.961 . S
H2230 C2215 0.961 . S
H2231 C2215 0.961 . S
H2232 C2216 0.931 . S
H2233 C2221 0.930 . S
H2234 C2222 0.956 . S
H2235 C2222 0.961 . S
H2236 C2222 0.961 . S
H2237 C2223 0.958 . S
H2238 C2223 0.961 . S
H2239 C2223 0.960 . S
C2240 C2241 1.391 . S
C2240 C2242 1.374 1_554 S
C2240 H2256 0.931 . S
C2241 C2240 1.391 . S
C2241 C2245 1.376 . S
C2242 C2240 1.374 1_556 S
C2242 C2243 1.364 1_556 S
C2242 C2246 1.557 . S
C2243 C2242 1.364 1_554 S
C2243 C2244 1.410 . S
C2243 C2251 1.503 1_554 S
C2244 C2243 1.410 . S
C2244 C2245 1.392 . S
C2244 C2247 1.511 . S
C2245 C2241 1.376 . S
C2245 C2244 1.392 . S
C2245 H2257 0.929 . S
C2246 C2242 1.557 . S
C2246 H2258 0.960 . S
C2246 H2259 0.962 . S
C2246 H2260 0.960 . S
C2247 C2244 1.511 . S
C2247 H2261 0.961 . S
C2247 H2262 0.961 . S
C2247 H2263 0.961 . S
C2248 C2249 1.370 . S
C2248 C2250 1.341 1_556 S
C2248 H2264 0.931 . S
C2249 C2248 1.370 . S
C2249 C2253 1.408 . S
C2250 C2248 1.341 1_554 S
C2250 C2251 1.349 1_554 S
C2250 C2254 1.570 . S
C2251 C2243 1.503 1_556 S
C2251 C2250 1.349 1_556 S
C2251 C2252 1.403 . S
C2252 C2251 1.403 . S
C2252 C2253 1.404 . S
C2252 C2255 1.539 . S
C2253 C2249 1.408 . S
C2253 C2252 1.404 . S
C2253 H2265 0.930 . S
C2254 C2250 1.570 . S
C2254 H2266 0.956 . S
C2254 H2267 0.961 . S
C2254 H2268 0.961 . S
C2255 C2252 1.539 . S
C2255 H2269 0.958 . S
C2255 H2270 0.961 . S
C2255 H2271 0.960 . S
H2256 C2240 0.931 . S
H2257 C2245 0.929 . S
H2258 C2246 0.960 . S
H2259 C2246 0.962 . S
H2260 C2246 0.960 . S
H2261 C2247 0.961 . S
H2262 C2247 0.961 . S
H2263 C2247 0.961 . S
H2264 C2248 0.931 . S
H2265 C2253 0.930 . S
H2266 C2254 0.956 . S
H2267 C2254 0.961 . S
H2268 C2254 0.961 . S
H2269 C2255 0.958 . S
H2270 C2255 0.961 . S
H2271 C2255 0.960 . S
C2272 C2273 1.391 . S
C2272 C2274 1.394 . S
C2272 H2288 0.931 . S
C2273 C2272 1.391 . S
C2273 C2277 1.376 . S
C2274 C2272 1.394 . S
C2274 C2275 1.369 . S
C2274 C2278 1.531 . S
C2275 C2274 1.369 . S
C2275 C2276 1.410 . S
C2275 C2283 1.503 . S
C2276 C2275 1.410 . S
C2276 C2277 1.392 . S
C2276 C2279 1.511 . S
C2277 C2273 1.376 . S
C2277 C2276 1.392 . S
C2277 H2289 0.929 . S
C2278 C2274 1.531 . S
C2278 H2290 0.960 . S
C2278 H2291 0.962 . S
C2278 H2292 0.960 . S
C2279 C2276 1.511 . S
C2279 H2293 0.961 . S
C2279 H2294 0.961 . S
C2279 H2295 0.961 . S
C2280 C2281 1.370 . S
C2280 C2282 1.363 . S
C2280 H2296 0.931 . S
C2281 C2280 1.370 . S
C2281 C2285 1.408 . S
C2282 C2280 1.363 . S
C2282 C2283 1.370 . S
C2282 C2286 1.524 . S
C2283 C2275 1.503 . S
C2283 C2282 1.370 . S
C2283 C2284 1.403 . S
C2284 C2283 1.403 . S
C2284 C2285 1.404 . S
C2284 C2287 1.539 . S
C2285 C2281 1.408 . S
C2285 C2284 1.404 . S
C2285 H2297 0.930 . S
C2286 C2282 1.524 . S
C2286 H2298 0.956 . S
C2286 H2299 0.961 . S
C2286 H2300 0.961 . S
C2287 C2284 1.539 . S
C2287 H2301 0.958 . S
C2287 H2302 0.961 . S
C2287 H2303 0.960 . S
H2288 C2272 0.931 . S
H2289 C2277 0.929 . S
H2290 C2278 0.960 . S
H2291 C2278 0.962 . S
H2292 C2278 0.960 . S
H2293 C2279 0.961 . S
H2294 C2279 0.961 . S
H2295 C2279 0.961 . S
H2296 C2280 0.931 . S
H2297 C2285 0.930 . S
H2298 C2286 0.956 . S
H2299 C2286 0.961 . S
H2300 C2286 0.961 . S
H2301 C2287 0.958 . S
H2302 C2287 0.961 . S
H2303 C2287 0.960 . S
C2304 C2305 1.391 . S
C2304 C2306 1.394 . S
C2304 H2320 0.931 . S
C2305 C2304 1.391 . S
C2305 C2309 1.376 . S
C2306 C2304 1.394 . S
C2306 C2307 1.369 . S
C2306 C2310 1.531 1_545 S
C2307 C2306 1.369 . S
C2307 C2308 1.392 1_556 S
C2307 C2315 1.503 1_546 S
C2308 C2307 1.392 1_554 S
C2308 C2309 1.372 1_554 S
C2308 C2311 1.549 . S
C2309 C2305 1.376 . S
C2309 C2308 1.372 1_556 S
C2309 H2321 0.929 . S
C2310 C2306 1.531 1_565 S
C2310 H2322 0.960 . S
C2310 H2323 0.962 . S
C2310 H2324 0.960 . S
C2311 C2308 1.549 . S
C2311 H2325 0.961 . S
C2311 H2326 0.961 . S
C2311 H2327 0.961 . S
C2312 C2313 1.370 . S
C2312 C2314 1.363 . S
C2312 H2328 0.931 . S
C2313 C2312 1.370 . S
C2313 C2317 1.408 . S
C2314 C2312 1.363 . S
C2314 C2315 1.370 . S
C2314 C2318 1.524 1_565 S
C2315 C2307 1.503 1_564 S
C2315 C2314 1.370 . S
C2315 C2316 1.403 . S
C2316 C2315 1.403 . S
C2316 C2317 1.404 . S
C2316 C2319 1.539 1_554 S
C2317 C2313 1.408 . S
C2317 C2316 1.404 . S
C2317 H2329 0.930 . S
C2318 C2314 1.524 1_545 S
C2318 H2330 0.956 . S
C2318 H2331 0.961 . S
C2318 H2332 0.961 1_545 S
C2319 C2316 1.539 1_556 S
C2319 H2333 0.958 . S
C2319 H2334 0.961 . S
C2319 H2335 0.960 . S
H2320 C2304 0.931 . S
H2321 C2309 0.929 . S
H2322 C2310 0.960 . S
H2323 C2310 0.962 . S
H2324 C2310 0.960 . S
H2325 C2311 0.961 . S
H2326 C2311 0.961 . S
H2327 C2311 0.961 . S
H2328 C2312 0.931 . S
H2329 C2317 0.930 . S
H2330 C2318 0.956 . S
H2331 C2318 0.961 . S
H2332 C2318 0.961 1_565 S
H2333 C2319 0.958 . S
H2334 C2319 0.961 . S
H2335 C2319 0.960 . S
C2336 C2337 1.391 . S
C2336 C2338 1.394 . S
C2336 H2352 0.931 . S
C2337 C2336 1.391 . S
C2337 C2341 1.376 . S
C2338 C2336 1.394 . S
C2338 C2339 1.369 . S
C2338 C2342 1.531 . S
C2339 C2338 1.369 . S
C2339 C2340 1.410 . S
C2339 C2347 1.503 1_565 S
C2340 C2339 1.410 . S
C2340 C2341 1.392 . S
C2340 C2343 1.511 1_565 S
C2341 C2337 1.376 . S
C2341 C2340 1.392 . S
C2341 H2353 0.929 . S
C2342 C2338 1.531 . S
C2342 H2354 0.960 . S
C2342 H2355 0.962 . S
C2342 H2356 0.960 . S
C2343 C2340 1.511 1_545 S
C2343 H2357 0.962 1_545 S
C2343 H2358 0.961 . S
C2343 H2359 0.961 . S
C2344 C2345 1.370 . S
C2344 C2346 1.363 . S
C2344 H2360 0.931 . S
C2345 C2344 1.370 . S
C2345 C2349 1.408 . S
C2346 C2344 1.363 . S
C2346 C2347 1.370 . S
C2346 C2350 1.524 1_545 S
C2347 C2339 1.503 1_545 S
C2347 C2346 1.370 . S
C2347 C2348 1.403 . S
C2348 C2347 1.403 . S
C2348 C2349 1.404 . S
C2348 C2351 1.539 . S
C2349 C2345 1.408 . S
C2349 C2348 1.404 . S
C2349 H2361 0.930 . S
C2350 C2346 1.524 1_565 S
C2350 H2362 0.956 . S
C2350 H2363 0.961 . S
C2350 H2364 0.961 . S
C2351 C2348 1.539 . S
C2351 H2365 0.958 . S
C2351 H2366 0.961 . S
C2351 H2367 0.960 . S
H2352 C2336 0.931 . S
H2353 C2341 0.929 . S
H2354 C2342 0.960 . S
H2355 C2342 0.962 . S
H2356 C2342 0.960 . S
H2357 C2343 0.962 1_565 S
H2358 C2343 0.961 . S
H2359 C2343 0.961 . S
H2360 C2344 0.931 . S
H2361 C2349 0.930 . S
H2362 C2350 0.956 . S
H2363 C2350 0.961 . S
H2364 C2350 0.961 . S
H2365 C2351 0.958 . S
H2366 C2351 0.961 . S
H2367 C2351 0.960 . S
C2368 C2369 1.391 . S
C2368 C2370 1.394 . S
C2368 H2384 0.931 . S
C2369 C2368 1.391 . S
C2369 C2373 1.376 . S
C2370 C2368 1.394 . S
C2370 C2371 1.369 . S
C2370 C2374 1.531 1_554 S
C2371 C2370 1.369 . S
C2371 C2372 1.410 . S
C2371 C2379 1.503 1_564 S
C2372 C2371 1.410 . S
C2372 C2373 1.392 . S
C2372 C2375 1.511 . S
C2373 C2369 1.376 . S
C2373 C2372 1.392 . S
C2373 H2385 0.929 . S
C2374 C2370 1.531 1_556 S
C2374 H2386 0.960 . S
C2374 H2387 0.962 . S
C2374 H2388 0.960 . S
C2375 C2372 1.511 . S
C2375 H2389 0.961 . S
C2375 H2390 0.961 1_565 S
C2375 H2391 0.961 . S
C2376 C2377 1.370 . S
C2376 C2378 1.363 1_556 S
C2376 H2392 0.943 . S
C2377 C2376 1.370 . S
C2377 C2381 1.408 . S
C2378 C2376 1.363 1_554 S
C2378 C2379 1.370 1_554 S
C2378 C2382 1.524 . S
C2379 C2371 1.503 1_546 S
C2379 C2378 1.370 1_556 S
C2379 C2380 1.403 . S
C2380 C2379 1.403 . S
C2380 C2381 1.404 . S
C2380 C2383 1.539 1_545 S
C2381 C2377 1.408 . S
C2381 C2380 1.404 . S
C2381 H2393 0.930 . S
C2382 C2378 1.524 . S
C2382 H2394 0.956 . S
C2382 H2395 0.961 . S
C2382 H2396 0.961 . S
C2383 C2380 1.539 1_565 S
C2383 H2397 0.958 . S
C2383 H2398 0.961 . S
C2383 H2399 0.960 . S
H2384 C2368 0.931 . S
H2385 C2373 0.929 . S
H2386 C2374 0.960 . S
H2387 C2374 0.962 . S
H2388 C2374 0.960 . S
H2389 C2375 0.961 . S
H2390 C2375 0.961 1_545 S
H2391 C2375 0.961 . S
H2392 C2376 0.943 . S
H2393 C2381 0.930 . S
H2394 C2382 0.956 . S
H2395 C2382 0.961 . S
H2396 C2382 0.961 . S
H2397 C2383 0.958 . S
H2398 C2383 0.961 . S
H2399 C2383 0.960 . S
C2400 C2401 1.391 . S
C2400 C2402 1.394 . S
C2400 H2416 0.931 . S
C2401 C2400 1.391 . S
C2401 C2405 1.376 . S
C2402 C2400 1.394 . S
C2402 C2403 1.369 . S
C2402 C2406 1.531 . S
C2403 C2402 1.369 . S
C2403 C2404 1.410 . S
C2403 C2411 1.503 1_545 S
C2404 C2403 1.410 . S
C2404 C2405 1.392 . S
C2404 C2407 1.511 1_545 S
C2405 C2401 1.376 . S
C2405 C2404 1.392 . S
C2405 H2417 0.929 . S
C2406 C2402 1.531 . S
C2406 H2418 0.960 . S
C2406 H2419 0.962 . S
C2406 H2420 0.960 . S
C2407 C2404 1.511 1_565 S
C2407 H2421 0.961 . S
C2407 H2422 0.961 . S
C2407 H2423 0.961 . S
C2408 C2409 1.370 . S
C2408 C2410 1.363 . S
C2408 H2424 0.931 . S
C2409 C2408 1.370 . S
C2409 C2413 1.408 . S
C2410 C2408 1.363 . S
C2410 C2411 1.370 . S
C2410 C2414 1.524 . S
C2411 C2403 1.503 1_565 S
C2411 C2410 1.370 . S
C2411 C2412 1.403 . S
C2412 C2411 1.403 . S
C2412 C2413 1.404 . S
C2412 C2415 1.539 . S
C2413 C2409 1.408 . S
C2413 C2412 1.404 . S
C2413 H2425 0.930 . S
C2414 C2410 1.524 . S
C2414 H2426 1.003 . S
C2414 H2427 0.961 . S
C2414 H2428 0.961 . S
C2415 C2412 1.539 . S
C2415 H2429 0.958 1_565 S
C2415 H2430 0.961 . S
C2415 H2431 0.960 1_565 S
H2416 C2400 0.931 . S
H2417 C2405 0.929 . S
H2418 C2406 0.960 . S
H2419 C2406 0.962 . S
H2420 C2406 0.960 . S
H2421 C2407 0.961 . S
H2422 C2407 0.961 . S
H2423 C2407 0.961 . S
H2424 C2408 0.931 . S
H2425 C2413 0.930 . S
H2426 C2414 1.003 . S
H2427 C2414 0.961 . S
H2428 C2414 0.961 . S
H2429 C2415 0.958 1_545 S
H2430 C2415 0.961 . S
H2431 C2415 0.960 1_545 S
C1409 C57 1.515 . S
C1417 C557 1.522 . S
C1441 C145 1.524 . S
C1449 C645 1.525 . S
C1473 C401 1.524 . S
C1481 C205 1.525 . S
C1505 C497 1.521 . S
C1513 C293 1.526 . S
C1537 C1261 1.528 . S
C1545 C761 1.527 . S
C1569 C1340 1.522 . S
C1577 C841 1.526 . S
C1601 C909 1.527 . S
C1609 C1105 1.528 . S
C1633 C988 1.519 . S
C1641 C1193 1.523 . S
C1665 C20 1.429 . S
C1673 C489 1.428 . S
C1697 C108 1.441 . S
C1705 C409 1.435 . S
C1729 C225 1.434 . S
C1737 C636 1.433 . S
C1761 C548 1.414 . S
C1769 C313 1.426 . S
C1793 C1201 1.419 . S
C1801 C724 1.427 . S
C1825 C1113 1.417 . S
C1833 C821 1.426 . S
C1857 C929 1.431 . S
C1865 C1349 1.432 . S
C1889 C1252 1.428 . S
C1897 C1025 1.433 . S
C1921 C1076 1.167 . S
C1929 C29 1.182 . S
C1953 C117 1.195 . S
C1961 C1164 1.170 . S
C1985 C1289 1.188 . S
C1993 C233 1.172 . S
C2017 C1369 1.156 . S
C2025 C321 1.186 . S
C2049 C733 1.169 . S
C2057 C372 1.181 . S
C2081 C812 1.191 . S
C2089 C469 1.171 . S
C2113 C585 1.188 . S
C2121 C937 1.172 . S
C2145 C673 1.189 . S
C2153 C1017 1.172 . S
C2177 C196 1.415 . S
C2185 C49 1.426 . S
C2209 C137 1.423 . S
C2217 C284 1.429 . S
C2241 C577 1.435 . S
C2249 C381 1.437 . S
C2273 C460 1.418 . S
C2281 C665 1.427 . S
C2305 C900 1.441 . S
C2313 C753 1.437 . S
C2337 C997 1.417 . S
C2345 C849 1.427 . S
C2369 C1281 1.433 . S
C2377 C1085 1.436 . S
C2401 C1377 1.441 . S
C2409 C1173 1.438 . S
