# Generated by pormake.
# Topology sow, (4)-cn, num edge types: 1
# Building blocks:
#     Node 0, Type 0, BuildingBlock: ESEHIV_clean_sbu_0, # of connection points: 4
#     Node 1, Type 0, BuildingBlock: ESEHIV_clean_sbu_0, # of connection points: 4
#     Node 2, Type 0, BuildingBlock: ESEHIV_clean_sbu_0, # of connection points: 4
#     Node 3, Type 0, BuildingBlock: ESEHIV_clean_sbu_0, # of connection points: 4
#     Node 4, Type 0, BuildingBlock: ESEHIV_clean_sbu_0, # of connection points: 4
#     Node 5, Type 0, BuildingBlock: ESEHIV_clean_sbu_0, # of connection points: 4
#     Node 6, Type 0, BuildingBlock: ESEHIV_clean_sbu_0, # of connection points: 4
#     Node 7, Type 0, BuildingBlock: ESEHIV_clean_sbu_0, # of connection points: 4
#     Edge 8, Type (0, 0), BuildingBlock: AJUNOK_clean_linker_0, # of connection points: 2
#     Edge 9, Type (0, 0), BuildingBlock: AJUNOK_clean_linker_0, # of connection points: 2
#     Edge 10, Type (0, 0), BuildingBlock: AJUNOK_clean_linker_0, # of connection points: 2
#     Edge 11, Type (0, 0), BuildingBlock: AJUNOK_clean_linker_0, # of connection points: 2
#     Edge 12, Type (0, 0), BuildingBlock: AJUNOK_clean_linker_0, # of connection points: 2
#     Edge 13, Type (0, 0), BuildingBlock: AJUNOK_clean_linker_0, # of connection points: 2
#     Edge 14, Type (0, 0), BuildingBlock: AJUNOK_clean_linker_0, # of connection points: 2
#     Edge 15, Type (0, 0), BuildingBlock: AJUNOK_clean_linker_0, # of connection points: 2
#     Edge 16, Type (0, 0), BuildingBlock: AJUNOK_clean_linker_0, # of connection points: 2
#     Edge 17, Type (0, 0), BuildingBlock: AJUNOK_clean_linker_0, # of connection points: 2
#     Edge 18, Type (0, 0), BuildingBlock: AJUNOK_clean_linker_0, # of connection points: 2
#     Edge 19, Type (0, 0), BuildingBlock: AJUNOK_clean_linker_0, # of connection points: 2
#     Edge 20, Type (0, 0), BuildingBlock: AJUNOK_clean_linker_0, # of connection points: 2
#     Edge 21, Type (0, 0), BuildingBlock: AJUNOK_clean_linker_0, # of connection points: 2
#     Edge 22, Type (0, 0), BuildingBlock: AJUNOK_clean_linker_0, # of connection points: 2
#     Edge 23, Type (0, 0), BuildingBlock: AJUNOK_clean_linker_0, # of connection points: 2
# Relax obj value: 0.069
# Max RMSD: 0.227
# Mean RMSD: 0.189
data_MOF--net-sow--node1-ESEHIV_clean_sbu_0--edge1-AJUNOK_clean_linker_0
_symmetry_space_group_name_H-M    P1
_symmetry_Int_Tables_number       1
_symmetry_cell_setting            triclinic
loop_
_symmetry_equiv_pos_as_xyz
'x, y, z'
_cell_length_a     36.220278
_cell_length_b     14.271717
_cell_length_c     17.235972
_cell_angle_alpha  90.827921
_cell_angle_beta   90.368138
_cell_angle_gamma 90.538102
loop_
_atom_site_label
_atom_site_type_symbol
_atom_site_fract_x
_atom_site_fract_y
_atom_site_fract_z
_atom_type_partial_charge
Cu0 Cu 0.16915 0.25387 0.18627 0.0
N1 N 0.19259 0.31252 0.2748 0.0
N2 N 0.23696 0.33518 0.36709 0.0
C3 C 0.2293 0.32578 0.28974 0.0
C4 C 0.20395 0.32494 0.40158 0.0
C5 C 0.17736 0.31114 0.34603 0.0
O6 O 0.20864 0.19639 0.12421 0.0
C7 C 0.10236 0.24419 0.25256 0.0
O8 O 0.11025 0.33405 0.24948 0.0
H9 H 0.2502 0.32201 0.24549 0.0
H10 H 0.14949 0.29058 0.35924 0.0
N11 N 0.14144 0.31741 0.10966 0.0
N12 N 0.09115 0.31138 0.0319 0.0
C13 C 0.1185 0.26303 0.06597 0.0
C14 C 0.12905 0.4054 0.1006 0.0
C15 C 0.09798 0.40173 0.05251 0.0
C16 C 0.22705 0.25917 0.0882 0.0
O17 O 0.21842 0.34753 0.09908 0.0
H18 H 0.11962 0.18726 0.0663 0.0
H19 H 0.13891 0.46579 0.13353 0.0
O20 O 0.1269 0.18482 0.23105 0.0
H21 H 0.19928 0.31787 0.46309 0.0
H22 H 0.0798 0.45959 0.04054 0.0
Cu23 Cu 0.41184 0.34433 0.69378 0.0
N24 N 0.38446 0.35323 0.78666 0.0
N25 N 0.34527 0.32314 0.88383 0.0
C26 C 0.361 0.28971 0.81805 0.0
C27 C 0.35849 0.41109 0.8928 0.0
C28 C 0.38269 0.42926 0.83354 0.0
O29 O 0.37494 0.31488 0.61248 0.0
C30 C 0.47155 0.25795 0.7708 0.0
O31 O 0.45926 0.30934 0.82865 0.0
H32 H 0.35555 0.2208 0.79328 0.0
H33 H 0.39769 0.49404 0.82495 0.0
N34 N 0.43428 0.46028 0.67201 0.0
N35 N 0.4798 0.56297 0.64651 0.0
C36 C 0.47011 0.47168 0.65371 0.0
C37 C 0.42033 0.54738 0.67467 0.0
C38 C 0.44834 0.61084 0.65894 0.0
C39 C 0.37611 0.3284 0.53938 0.0
O40 O 0.40733 0.35354 0.50707 0.0
H41 H 0.48857 0.41343 0.64537 0.0
H42 H 0.39202 0.56376 0.68866 0.0
O43 O 0.45348 0.25667 0.70664 0.0
H44 H 0.35045 0.45935 0.93849 0.0
H45 H 0.44596 0.68638 0.65884 0.0
Cu46 Cu 0.66263 0.19251 0.87618 0.0
N47 N 0.68028 0.25219 0.78852 0.0
N48 N 0.71858 0.27814 0.68979 0.0
C49 C 0.70592 0.21534 0.74123 0.0
C50 C 0.70011 0.35794 0.70552 0.0
C51 C 0.67662 0.34177 0.7669 0.0
O52 O 0.70589 0.17695 0.94387 0.0
C53 C 0.60711 0.04887 0.82082 0.0
O54 O 0.60076 0.95975 0.80563 0.0
H55 H 0.71623 0.14478 0.74681 0.0
H56 H 0.65993 0.39302 0.79685 0.0
N57 N 0.63035 0.26488 0.93524 0.0
N58 N 0.57878 0.32729 0.98236 0.0
C59 C 0.59697 0.30022 0.91773 0.0
C60 C 0.63366 0.27328 1.01285 0.0
C61 C 0.60191 0.31134 0.04207 0.0
C62 C 0.72733 0.10765 0.95364 0.0
O63 O 0.72144 0.02917 0.91461 0.0
H64 H 0.58517 0.29977 0.85996 0.0
H65 H 0.65658 0.24714 0.04645 0.0
O66 O 0.63928 0.07298 0.84591 0.0
H67 H 0.7049 0.42472 0.67815 0.0
H68 H 0.59543 0.32174 0.10282 0.0
Cu69 Cu 0.89347 0.11154 0.40191 0.0
N70 N 0.87163 0.13858 0.30613 0.0
N71 N 0.82979 0.16557 0.21324 0.0
C72 C 0.83562 0.13201 0.28523 0.0
C73 C 0.86335 0.19351 0.18834 0.0
C74 C 0.88899 0.17513 0.24472 0.0
O75 O 0.85961 0.14555 0.48463 0.0
C76 C 0.95461 0.23887 0.37587 0.0
O77 O 0.93131 0.30051 0.3487 0.0
H78 H 0.81435 0.10249 0.32157 0.0
H79 H 0.91847 0.18481 0.23979 0.0
N80 N 0.90598 0.98571 0.40705 0.0
N81 N 0.9495 0.88291 0.43881 0.0
C82 C 0.94143 0.96025 0.39869 0.0
C83 C 0.89045 0.91926 0.45099 0.0
C84 C 0.91732 0.85566 0.47103 0.0
C85 C 0.84045 0.21954 0.4791 0.0
O86 O 0.8468 0.27656 0.42145 0.0
H87 H 0.96228 0.00541 0.3739 0.0
H88 H 0.86306 0.92351 0.4747 0.0
O89 O 0.94229 0.16879 0.41219 0.0
H90 H 0.8694 0.21827 0.13066 0.0
H91 H 0.91434 0.79996 0.51259 0.0
Cu92 Cu 0.90492 0.96938 0.91417 0.0
N93 N 0.92408 0.84859 0.90557 0.0
N94 N 0.95837 0.73017 0.86221 0.0
C95 C 0.95554 0.82396 0.86978 0.0
C96 C 0.92781 0.69406 0.89486 0.0
C97 C 0.90687 0.76743 0.92252 0.0
O98 O 0.94698 0.05583 0.93474 0.0
C99 C 0.87911 0.94994 0.75924 0.0
O100 O 0.9128 0.92398 0.74244 0.0
H101 H 0.97471 0.87382 0.84523 0.0
H102 H 0.88008 0.76218 0.94954 0.0
N103 N 0.8741 0.97344 1.00028 0.0
N104 N 0.8277 0.95705 0.08458 0.0
C105 C 0.83831 0.94686 1.00978 0.0
C106 C 0.88649 -0.0012 0.07083 0.0
C107 C 0.8585 0.98685 0.12248 0.0
C108 C 0.95811 0.13124 0.903 0.0
O109 O 0.93988 0.16367 0.84316 0.0
H110 H 0.82121 0.91619 0.96427 0.0
H111 H 0.91468 0.01921 0.08425 0.0
O112 O 0.87276 0.98712 0.82523 0.0
H113 H 0.92052 0.62034 0.89568 0.0
H114 H 0.8614 -0.0078 0.18484 0.0
Cu115 Cu 0.67546 0.74776 0.45624 0.0
N116 N 0.65494 0.65904 0.38801 0.0
N117 N 0.60879 0.61611 0.30832 0.0
C118 C 0.62052 0.67636 0.36371 0.0
C119 C 0.63726 0.55719 0.29639 0.0
C120 C 0.66595 0.58383 0.34635 0.0
O121 O 0.63316 0.76862 0.52509 0.0
C122 C 0.72197 0.81246 0.3492 0.0
O123 O 0.73094 0.72458 0.35952 0.0
H124 H 0.6049 0.73622 0.38381 0.0
H125 H 0.69306 0.553 0.34971 0.0
N126 N 0.71619 0.71535 0.51707 0.0
N127 N 0.76562 0.74474 0.59168 0.0
C128 C 0.73868 0.78161 0.5481 0.0
C129 C 0.72964 0.633 0.54113 0.0
C130 C 0.76018 0.65107 0.58786 0.0
C131 C 0.62546 0.69261 0.56032 0.0
O132 O 0.64863 0.62297 0.55303 0.0
H133 H 0.73487 0.856 0.53994 0.0
H134 H 0.71784 0.56516 0.52674 0.0
O135 O 0.69466 0.84456 0.38781 0.0
H136 H 0.63759 0.50041 0.2541 0.0
H137 H 0.77709 0.59961 0.61643 0.0
Cu138 Cu 0.38621 0.60717 0.03551 0.0
N139 N 0.4208 0.68242 0.08826 0.0
N140 N 0.47332 0.70598 0.15488 0.0
C141 C 0.45635 0.65783 0.09707 0.0
C142 C 0.44759 0.76561 0.18242 0.0
C143 C 0.4152 0.75116 0.14093 0.0
O144 O 0.41425 0.5023 0.997 0.0
C145 C 0.34867 0.56504 0.17661 0.0
O146 O 0.38148 0.57316 0.20894 0.0
H147 H 0.46854 0.59915 0.06724 0.0
H148 H 0.38866 0.78184 0.15339 0.0
N149 N 0.36659 0.66627 0.9491 0.0
N150 N 0.32617 0.6894 0.85277 0.0
C151 C 0.33102 0.66062 0.92647 0.0
C152 C 0.38497 0.7012 0.88826 0.0
C153 C 0.36004 0.71619 0.82886 0.0
C154 C 0.43017 0.44373 0.04026 0.0
O155 O 0.42128 0.44063 0.11391 0.0
H156 H 0.30955 0.63114 0.96226 0.0
H157 H 0.41468 0.7085 0.88527 0.0
O158 O 0.34564 0.57244 0.10331 0.0
H159 H 0.45108 0.81142 0.23259 0.0
H160 H 0.36671 0.73836 0.77076 0.0
Cu161 Cu 0.14949 0.66595 0.53109 0.0
N162 N 0.11539 0.5911 0.58361 0.0
N163 N 0.06737 0.57105 0.66289 0.0
C164 C 0.09822 0.62099 0.64825 0.0
C165 C 0.06582 0.5041 0.60672 0.0
C166 C 0.09545 0.51688 0.55767 0.0
O167 O 0.11891 0.76313 0.48819 0.0
C168 C 0.2006 0.64041 0.64604 0.0
O169 O 0.18775 0.55503 0.63401 0.0
H170 H 0.1063 0.68375 0.68004 0.0
H171 H 0.10031 0.47935 0.50385 0.0
N172 N 0.1716 0.6039 0.44775 0.0
N173 N 0.21379 0.56865 0.35746 0.0
C174 C 0.20736 0.61021 0.42721 0.0
C175 C 0.15449 0.55854 0.38877 0.0
C176 C 0.18028 0.53707 0.33315 0.0
C177 C 0.10037 0.81647 0.53246 0.0
O178 O 0.11163 0.82972 0.60435 0.0
H179 H 0.22742 0.65015 0.46083 0.0
H180 H 0.12505 0.54608 0.38469 0.0
O181 O 0.18762 0.70615 0.60501 0.0
H182 H 0.04385 0.45286 0.59899 0.0
H183 H 0.1744 0.50214 0.27832 0.0
C184 C 0.28394 0.24988 0.90614 0.0
C185 C 0.31875 0.27938 0.93444 0.0
C186 C 0.25456 0.23131 0.95742 0.0
C187 C 0.25935 0.23948 0.03851 0.0
H188 H 0.27855 0.24929 0.84427 0.0
H189 H 0.22726 0.21823 0.93336 0.0
S190 S 0.3464 0.30257 0.14124 0.0
N191 N 0.35715 0.30681 0.04835 0.0
N192 N 0.30247 0.27089 0.14396 0.0
C193 C 0.29483 0.26126 0.06699 0.0
C194 C 0.3244 0.28127 0.01517 0.0
C195 C 0.30496 0.30439 0.37367 0.0
C196 C 0.27245 0.33983 0.40757 0.0
C197 C 0.33859 0.30122 0.41581 0.0
C198 C 0.34085 0.3314 0.49401 0.0
H199 H 0.30434 0.27686 0.3149 0.0
H200 H 0.36276 0.27294 0.38754 0.0
S201 S 0.26636 0.44618 0.60553 0.0
N202 N 0.24706 0.4193 0.52113 0.0
N203 N 0.309 0.40765 0.60035 0.0
C204 C 0.30908 0.36997 0.52744 0.0
C205 C 0.2753 0.37557 0.48436 0.0
C206 C 0.79249 0.22012 0.10386 0.0
C207 C 0.79803 0.15457 0.16309 0.0
C208 C 0.77079 0.20259 0.0369 0.0
C209 C 0.75569 0.11411 0.01663 0.0
H210 H 0.80585 0.28813 0.1093 0.0
H211 H 0.76642 0.26075 0.99826 0.0
S212 S 0.74156 0.84116 0.12933 0.0
N213 N 0.77661 0.98826 0.219 0.0
N214 N 0.74484 0.93902 0.04869 0.0
C215 C 0.76192 0.03919 0.06637 0.0
C216 C 0.77973 0.06875 0.15524 0.0
C217 C 0.77903 0.20892 0.65706 0.0
C218 C 0.74882 0.26521 0.63661 0.0
C219 C 0.80866 0.19503 0.60619 0.0
C220 C 0.80937 0.23734 0.533 0.0
H221 H 0.78 0.17604 0.71322 0.0
H222 H 0.83126 0.15125 0.62463 0.0
S223 S 0.73537 0.38365 0.44864 0.0
N224 N 0.72036 0.35827 0.53619 0.0
N225 N 0.7761 0.33356 0.4409 0.0
C226 C 0.77915 0.29308 0.51153 0.0
C227 C 0.74891 0.30674 0.56323 0.0
C228 C 0.72529 0.98512 0.16954 0.0
C229 C 0.79642 0.91559 0.12546 0.0
C230 C 0.71519 0.93821 0.24674 0.0
C231 C 0.7406 0.86481 0.28602 0.0
H232 H 0.70765 0.03996 0.14618 0.0
H233 H 0.68877 0.95517 0.27207 0.0
S234 S 0.83765 0.74519 0.27516 0.0
N235 N 0.8399 0.80288 0.19309 0.0
N236 N 0.7972 0.76876 0.31439 0.0
C237 C 0.78052 0.82724 0.26372 0.0
C238 C 0.80682 0.84647 0.19194 0.0
C239 C 0.81301 0.87024 0.59911 0.0
C240 C 0.79348 0.79664 0.63442 0.0
C241 C 0.84054 0.92132 0.63983 0.0
C242 C 0.84821 0.90265 0.71795 0.0
H243 H 0.80728 0.88695 0.53921 0.0
H244 H 0.85581 0.97569 0.61038 0.0
S245 S 0.80238 0.72321 0.8387 0.0
N246 N 0.78251 0.7109 0.75259 0.0
N247 N 0.83294 0.80894 0.83003 0.0
C248 C 0.82785 0.83167 0.75453 0.0
C249 C 0.80075 0.7781 0.71257 0.0
C250 C 0.28521 0.74615 0.74819 0.0
C251 C 0.29338 0.67941 0.80506 0.0
C252 C 0.25441 0.73526 0.69859 0.0
C253 C 0.23084 0.65663 0.70358 0.0
H254 H 0.30295 0.807 0.74177 0.0
H255 H 0.24967 0.78745 0.65472 0.0
S256 S 0.23997 0.46154 0.84277 0.0
N257 N 0.27545 0.53131 0.86258 0.0
N258 N 0.21719 0.5124 0.77197 0.0
C259 C 0.23832 0.5904 0.76136 0.0
C260 C 0.26967 0.60127 0.81137 0.0
C261 C 0.27999 0.54939 0.18957 0.0
C262 C 0.31491 0.55851 0.22523 0.0
C263 C 0.24744 0.55243 0.23302 0.0
C264 C 0.24812 0.5645 0.31442 0.0
H265 H 0.2776 0.54161 0.12711 0.0
H266 H 0.22152 0.54728 0.20174 0.0
S267 S 0.33289 0.58556 0.43689 0.0
N268 N 0.34844 0.57545 0.34747 0.0
N269 N 0.2875 0.58123 0.42908 0.0
C270 C 0.28303 0.57136 0.35111 0.0
C271 C 0.31627 0.56784 0.30668 0.0
C272 C 0.03577 0.27045 0.24059 0.0
C273 C 0.06442 0.22055 0.27627 0.0
C274 C 1.0008 0.27725 0.27405 0.0
C275 C 0.9928 0.2341 0.34484 0.0
H276 H 0.04102 0.3088 0.18787 0.0
H277 H 0.97995 0.31714 0.24404 0.0
S278 S 0.058 0.09236 0.4609 0.0
N279 N 0.08255 0.12584 0.38551 0.0
N280 N 1.01631 0.1359 0.44825 0.0
C281 C 1.02083 0.18059 0.37985 0.0
C282 C 0.05673 0.17434 0.34562 0.0
C283 C 0.515 0.16662 0.85409 0.0
C284 C 0.50686 0.20627 0.78156 0.0
C285 C 0.54844 0.11979 0.86764 0.0
C286 C 0.57593 0.11443 0.81049 0.0
H287 H 0.49497 0.17001 0.90044 0.0
H288 H 0.55268 0.08666 0.92311 0.0
S289 S 0.56967 0.21118 0.61245 0.0
N290 N 0.52981 0.23886 0.65248 0.0
N291 N 0.59305 0.15372 0.67899 0.0
C292 C 0.5686 0.15551 0.73839 0.0
C293 C 0.53411 0.20111 0.7238 0.0
C294 C 0.04882 0.64155 0.78817 0.0
C295 C 0.03892 0.59975 0.71629 0.0
C296 C 1.02224 0.68212 0.83672 0.0
C297 C 0.9848 0.68109 0.81562 0.0
H298 H 0.07752 0.64477 0.80606 0.0
H299 H 1.03096 0.71583 0.89055 0.0
S300 S 0.94417 0.58657 0.63295 0.0
N301 N 0.9887 0.56433 0.62562 0.0
N302 N 0.93888 0.63803 0.71853 0.0
C303 C 0.97427 0.63846 0.74506 0.0
C304 C 1.00129 0.59823 0.69499 0.0
C305 C 0.5103 0.68047 0.27314 0.0
C306 C 0.5075 0.67979 0.19182 0.0
C307 C 0.54277 0.65323 0.31049 0.0
C308 C 0.57396 0.62453 0.26829 0.0
H309 H 0.48714 0.70183 0.30838 0.0
H310 H 0.54389 0.65687 0.37329 0.0
S311 S 0.58063 0.60647 0.05419 0.0
N312 N 0.53836 0.64458 0.0699 0.0
N313 N 0.59964 0.59394 0.14075 0.0
C314 C 0.57123 0.62014 0.18703 0.0
C315 C 0.538 0.64788 0.14869 0.0
C316 C 0.0423 0.18822 0.03106 0.0
C317 C 0.05743 0.27046 0.99926 0.0
C318 C 1.01039 0.14497 0.99986 0.0
C319 C 0.99184 0.18132 0.93487 0.0
H320 H 0.05507 0.15707 0.08132 0.0
H321 H 1.00029 0.08198 0.02726 0.0
S322 S 1.01996 0.39601 0.82963 0.0
N323 N 0.05124 0.38724 0.89928 0.0
N324 N 0.99131 0.30639 0.84012 0.0
C325 C 1.00647 0.26434 0.90276 0.0
C326 C 0.03908 0.30877 0.93509 0.0
C327 C 0.55651 0.71802 0.56979 0.0
C328 C 0.58856 0.67126 0.59401 0.0
C329 C 0.52103 0.68391 0.58885 0.0
C330 C 0.51631 0.60108 0.63172 0.0
H331 H 0.55875 0.77847 0.53278 0.0
H332 H 0.49713 0.72032 0.56698 0.0
S333 S 0.59146 0.45853 0.7159 0.0
N334 N 0.61308 0.54324 0.67002 0.0
N335 N 0.54713 0.47791 0.70247 0.0
C336 C 0.54823 0.55634 0.6588 0.0
C337 C 0.58409 0.59189 0.641 0.0
C338 C 0.48191 0.33157 0.05765 0.0
C339 C 0.46581 0.40385 0.01491 0.0
C340 C 0.51852 0.30503 0.0449 0.0
C341 C 0.54037 0.34978 0.98906 0.0
H342 H 0.46655 0.29749 0.10318 0.0
H343 H 0.53016 0.2503 0.0801 0.0
S344 S 0.51184 0.54308 0.86211 0.0
N345 N 0.47473 0.51879 0.91318 0.0
N346 N 0.54362 0.46846 0.89041 0.0
C347 C 0.5244 0.4195 0.94398 0.0
C348 C 0.48709 0.44668 0.95664 0.0
C349 C 0.05134 0.83712 0.43082 0.0
C350 C 0.06182 0.83868 0.50971 0.0
C351 C 1.01439 0.84895 0.40816 0.0
C352 C 0.98637 0.86018 0.46343 0.0
H353 H 0.07187 0.82695 0.38613 0.0
H354 H 1.00755 0.84967 0.34692 0.0
S355 S 0.99887 0.87203 0.6769 0.0
N356 N 0.0408 0.85457 0.64316 0.0
N357 N 0.97155 0.87583 0.60007 0.0
C358 C 0.99634 0.86204 0.54232 0.0
C359 C 0.03399 0.85164 0.56553 0.0
loop_
_geom_bond_atom_site_label_1
_geom_bond_atom_site_label_2
_geom_bond_distance
_geom_bond_site_symmetry_2
_ccdc_geom_bond_type
Cu0 N1 1.999 . S
Cu0 O6 1.974 . S
Cu0 N11 1.985 . S
Cu0 O20 1.959 . S
N1 Cu0 1.999 . S
N1 C3 1.263 . S
N1 C5 1.389 . S
N2 C3 1.358 . S
N2 C4 1.400 . S
C3 N1 1.263 . S
C3 N2 1.358 . S
C3 H9 0.930 . S
C4 N2 1.400 . S
C4 C5 1.351 . S
C4 H21 0.930 . S
C5 N1 1.389 . S
C5 C4 1.351 . S
C5 H10 0.930 . S
O6 Cu0 1.974 . S
O6 C16 1.282 . S
C7 O8 1.261 . S
C7 O20 1.251 . S
O8 C7 1.261 . S
H9 C3 0.930 . S
H10 C5 0.930 . S
N11 Cu0 1.985 . S
N11 C13 1.335 . S
N11 C14 1.390 . S
N12 C13 1.345 . S
N12 C15 1.336 1_554 S
C13 N11 1.335 . S
C13 N12 1.345 . S
C13 H18 0.930 . S
C14 N11 1.390 . S
C14 C15 1.346 1_554 S
C14 H19 0.930 1_554 S
C15 N12 1.336 1_556 S
C15 C14 1.346 1_556 S
C15 H22 0.929 . S
C16 O6 1.282 . S
C16 O17 1.216 . S
O17 C16 1.216 . S
H18 C13 0.930 . S
H19 C14 0.930 1_556 S
O20 Cu0 1.959 . S
O20 C7 1.251 . S
H21 C4 0.930 . S
H22 C15 0.929 . S
Cu23 N24 1.999 . S
Cu23 O29 1.974 . S
Cu23 N34 1.985 . S
Cu23 O43 1.959 . S
N24 Cu23 1.999 . S
N24 C26 1.263 . S
N24 C28 1.389 . S
N25 C26 1.358 . S
N25 C27 1.400 . S
C26 N24 1.263 . S
C26 N25 1.358 . S
C26 H32 0.930 . S
C27 N25 1.400 . S
C27 C28 1.351 . S
C27 H44 0.930 . S
C28 N24 1.389 . S
C28 C27 1.351 . S
C28 H33 0.930 . S
O29 Cu23 1.974 . S
O29 C39 1.282 . S
C30 O31 1.261 . S
C30 O43 1.251 . S
O31 C30 1.261 . S
H32 C26 0.930 . S
H33 C28 0.930 . S
N34 Cu23 1.985 . S
N34 C36 1.335 . S
N34 C37 1.390 . S
N35 C36 1.345 . S
N35 C38 1.336 . S
C36 N34 1.335 . S
C36 N35 1.345 . S
C36 H41 0.930 . S
C37 N34 1.390 . S
C37 C38 1.346 . S
C37 H42 0.930 . S
C38 N35 1.336 . S
C38 C37 1.346 . S
C38 H45 0.929 . S
C39 O29 1.282 . S
C39 O40 1.216 . S
O40 C39 1.216 . S
H41 C36 0.930 . S
H42 C37 0.930 . S
O43 Cu23 1.959 . S
O43 C30 1.251 . S
H44 C27 0.930 . S
H45 C38 0.929 . S
Cu46 N47 1.999 . S
Cu46 O52 1.974 . S
Cu46 N57 1.985 . S
Cu46 O66 1.959 . S
N47 Cu46 1.999 . S
N47 C49 1.263 . S
N47 C51 1.389 . S
N48 C49 1.358 . S
N48 C50 1.400 . S
C49 N47 1.263 . S
C49 N48 1.358 . S
C49 H55 0.930 . S
C50 N48 1.400 . S
C50 C51 1.351 . S
C50 H67 0.930 . S
C51 N47 1.389 . S
C51 C50 1.351 . S
C51 H56 0.930 . S
O52 Cu46 1.974 . S
O52 C62 1.282 . S
C53 O54 1.261 . S
C53 O66 1.251 . S
O54 C53 1.261 . S
H55 C49 0.930 . S
H56 C51 0.930 . S
N57 Cu46 1.985 . S
N57 C59 1.335 . S
N57 C60 1.390 . S
N58 C59 1.345 . S
N58 C61 1.336 1_556 S
C59 N57 1.335 . S
C59 N58 1.345 . S
C59 H64 0.930 . S
C60 N57 1.390 . S
C60 C61 1.346 1_556 S
C60 H65 0.930 1_556 S
C61 N58 1.336 1_554 S
C61 C60 1.346 1_554 S
C61 H68 0.929 . S
C62 O52 1.282 . S
C62 O63 1.216 . S
O63 C62 1.216 . S
H64 C59 0.930 . S
H65 C60 0.930 1_554 S
O66 Cu46 1.959 . S
O66 C53 1.251 . S
H67 C50 0.930 . S
H68 C61 0.929 . S
Cu69 N70 1.999 . S
Cu69 O75 1.974 . S
Cu69 N80 1.985 . S
Cu69 O89 1.959 . S
N70 Cu69 1.999 . S
N70 C72 1.263 . S
N70 C74 1.389 . S
N71 C72 1.358 . S
N71 C73 1.400 . S
C72 N70 1.263 . S
C72 N71 1.358 . S
C72 H78 0.930 . S
C73 N71 1.400 . S
C73 C74 1.351 . S
C73 H90 0.930 . S
C74 N70 1.389 . S
C74 C73 1.351 . S
C74 H79 0.930 . S
O75 Cu69 1.974 . S
O75 C85 1.282 . S
C76 O77 1.261 . S
C76 O89 1.251 . S
O77 C76 1.261 . S
H78 C72 0.930 . S
H79 C74 0.930 . S
N80 Cu69 1.985 . S
N80 C82 1.335 1_545 S
N80 C83 1.390 . S
N81 C82 1.345 . S
N81 C84 1.336 . S
C82 N80 1.335 1_565 S
C82 N81 1.345 . S
C82 H87 0.930 . S
C83 N80 1.390 . S
C83 C84 1.346 1_545 S
C83 H88 0.930 . S
C84 N81 1.336 . S
C84 C83 1.346 1_565 S
C84 H91 0.929 . S
C85 O75 1.282 . S
C85 O86 1.216 . S
O86 C85 1.216 . S
H87 C82 0.930 . S
H88 C83 0.930 . S
O89 Cu69 1.959 . S
O89 C76 1.251 . S
H90 C73 0.930 . S
H91 C84 0.929 . S
Cu92 N93 1.999 . S
Cu92 O98 1.975 . S
Cu92 N103 1.985 1_566 S
Cu92 O112 1.959 . S
N93 Cu92 1.999 . S
N93 C95 1.263 . S
N93 C97 1.389 . S
N94 C95 1.358 . S
N94 C96 1.400 . S
C95 N93 1.263 . S
C95 N94 1.358 . S
C95 H101 0.930 . S
C96 N94 1.400 . S
C96 C97 1.351 . S
C96 H113 0.930 . S
C97 N93 1.389 . S
C97 C96 1.351 . S
C97 H102 0.930 . S
O98 Cu92 1.975 . S
O98 C108 1.282 1_565 S
C99 O100 1.261 1_565 S
C99 O112 1.251 . S
O100 C99 1.261 1_545 S
H101 C95 0.930 . S
H102 C97 0.930 . S
N103 Cu92 1.985 1_544 S
N103 C105 1.335 1_545 S
N103 C106 1.390 . S
N104 C105 1.345 1_545 S
N104 C107 1.336 . S
C105 N103 1.335 1_565 S
C105 N104 1.345 1_565 S
C105 H110 0.930 . S
C106 N103 1.390 . S
C106 C107 1.346 . S
C106 H111 0.930 . S
C107 N104 1.336 . S
C107 C106 1.346 . S
C107 H114 0.929 . S
C108 O98 1.282 1_545 S
C108 O109 1.216 . S
O109 C108 1.216 . S
H110 C105 0.930 . S
H111 C106 0.930 . S
O112 Cu92 1.959 . S
O112 C99 1.251 . S
H113 C96 0.930 . S
H114 C107 0.929 . S
Cu115 N116 1.999 . S
Cu115 O121 1.974 . S
Cu115 N126 1.985 . S
Cu115 O135 1.959 1_565 S
N116 Cu115 1.999 . S
N116 C118 1.263 . S
N116 C120 1.389 1_565 S
N117 C118 1.358 . S
N117 C119 1.400 . S
C118 N116 1.263 . S
C118 N117 1.358 . S
C118 H124 0.930 . S
C119 N117 1.400 . S
C119 C120 1.351 1_565 S
C119 H136 0.930 1_565 S
C120 N116 1.389 1_545 S
C120 C119 1.351 1_545 S
C120 H125 0.930 . S
O121 Cu115 1.974 . S
O121 C131 1.282 . S
C122 O123 1.261 . S
C122 O135 1.251 1_565 S
O123 C122 1.261 . S
H124 C118 0.930 . S
H125 C120 0.930 . S
N126 Cu115 1.985 . S
N126 C128 1.335 1_565 S
N126 C129 1.390 . S
N127 C128 1.345 . S
N127 C130 1.336 1_545 S
C128 N126 1.335 1_545 S
C128 N127 1.345 . S
C128 H133 0.930 . S
C129 N126 1.390 . S
C129 C130 1.346 . S
C129 H134 0.930 . S
C130 N127 1.336 1_565 S
C130 C129 1.346 . S
C130 H137 0.929 . S
C131 O121 1.282 . S
C131 O132 1.216 . S
O132 C131 1.216 . S
H133 C128 0.930 . S
H134 C129 0.930 . S
O135 Cu115 1.959 1_545 S
O135 C122 1.251 1_545 S
H136 C119 0.930 1_545 S
H137 C130 0.929 . S
Cu138 N139 1.999 . S
Cu138 O144 1.975 . S
Cu138 N149 1.985 1_554 S
Cu138 O158 1.959 . S
N139 Cu138 1.999 . S
N139 C141 1.263 . S
N139 C143 1.389 . S
N140 C141 1.358 . S
N140 C142 1.400 . S
C141 N139 1.263 . S
C141 N140 1.358 . S
C141 H147 0.930 . S
C142 N140 1.400 . S
C142 C143 1.351 . S
C142 H159 0.930 . S
C143 N139 1.389 . S
C143 C142 1.351 . S
C143 H148 0.930 . S
O144 Cu138 1.975 . S
O144 C154 1.282 . S
C145 O146 1.261 . S
C145 O158 1.251 . S
O146 C145 1.261 . S
H147 C141 0.930 . S
H148 C143 0.930 . S
N149 Cu138 1.985 1_556 S
N149 C151 1.335 . S
N149 C152 1.390 . S
N150 C151 1.345 . S
N150 C153 1.336 . S
C151 N149 1.335 . S
C151 N150 1.345 . S
C151 H156 0.930 . S
C152 N149 1.390 . S
C152 C153 1.346 . S
C152 H157 0.930 . S
C153 N150 1.336 . S
C153 C152 1.346 . S
C153 H160 0.929 . S
C154 O144 1.282 . S
C154 O155 1.216 . S
O155 C154 1.216 . S
H156 C151 0.930 . S
H157 C152 0.930 . S
O158 Cu138 1.959 . S
O158 C145 1.251 . S
H159 C142 0.930 . S
H160 C153 0.929 . S
Cu161 N162 1.999 . S
Cu161 O167 1.974 . S
Cu161 N172 1.985 . S
Cu161 O181 1.959 . S
N162 Cu161 1.999 . S
N162 C164 1.263 . S
N162 C166 1.389 . S
N163 C164 1.358 . S
N163 C165 1.400 . S
C164 N162 1.263 . S
C164 N163 1.358 . S
C164 H170 0.930 . S
C165 N163 1.400 . S
C165 C166 1.351 . S
C165 H182 0.930 . S
C166 N162 1.389 . S
C166 C165 1.351 . S
C166 H171 0.930 . S
O167 Cu161 1.974 . S
O167 C177 1.282 . S
C168 O169 1.261 . S
C168 O181 1.251 . S
O169 C168 1.261 . S
H170 C164 0.930 . S
H171 C166 0.930 . S
N172 Cu161 1.985 . S
N172 C174 1.335 . S
N172 C175 1.390 . S
N173 C174 1.345 . S
N173 C176 1.336 . S
C174 N172 1.335 . S
C174 N173 1.345 . S
C174 H179 0.930 . S
C175 N172 1.390 . S
C175 C176 1.346 . S
C175 H180 0.930 . S
C176 N173 1.336 . S
C176 C175 1.346 . S
C176 H183 0.929 . S
C177 O167 1.282 . S
C177 O178 1.216 . S
O178 C177 1.216 . S
H179 C174 0.930 . S
H180 C175 0.930 . S
O181 Cu161 1.959 . S
O181 C168 1.251 . S
H182 C165 0.930 . S
H183 C176 0.929 . S
C184 C185 1.369 . S
C184 C186 1.419 . S
C184 H188 0.930 . S
C185 C184 1.369 . S
C185 C194 1.429 . S
C186 C184 1.419 . S
C186 C187 1.363 . S
C186 H189 0.929 . S
C187 C186 1.363 . S
C187 C193 1.428 1_556 S
H188 C184 0.930 . S
H189 C186 0.929 . S
S190 N191 1.613 1_554 S
S190 N192 1.610 . S
N191 S190 1.613 1_556 S
N191 C194 1.350 . S
N192 S190 1.610 . S
N192 C193 1.351 . S
C193 C187 1.428 1_554 S
C193 N192 1.351 . S
C193 C194 1.434 1_554 S
C194 C185 1.429 . S
C194 N191 1.350 . S
C194 C193 1.434 1_556 S
C195 C196 1.369 . S
C195 C197 1.419 . S
C195 H199 0.930 . S
C196 C195 1.369 . S
C196 C205 1.429 . S
C197 C195 1.419 . S
C197 C198 1.363 . S
C197 H200 0.929 . S
C198 C197 1.363 . S
C198 C204 1.428 . S
H199 C195 0.930 . S
H200 C197 0.929 . S
S201 N202 1.613 . S
S201 N203 1.610 . S
N202 S201 1.613 . S
N202 C205 1.350 . S
N203 S201 1.610 . S
N203 C204 1.351 . S
C204 C198 1.428 . S
C204 N203 1.351 . S
C204 C205 1.434 . S
C205 C196 1.429 . S
C205 N202 1.350 . S
C205 C204 1.434 . S
C206 C207 1.369 . S
C206 C208 1.419 1_554 S
C206 H210 0.930 . S
C207 C206 1.369 . S
C207 C216 1.429 . S
C208 C206 1.419 1_556 S
C208 C209 1.363 1_556 S
C208 H211 0.929 . S
C209 C208 1.363 1_554 S
C209 C215 1.428 . S
H210 C206 0.930 . S
H211 C208 0.929 . S
S212 N213 1.613 . S
S212 N214 1.610 . S
N213 S212 1.613 . S
N213 C216 1.350 . S
N214 S212 1.610 . S
N214 C215 1.351 . S
C215 C209 1.428 . S
C215 N214 1.351 . S
C215 C216 1.434 . S
C216 C207 1.429 . S
C216 N213 1.350 . S
C216 C215 1.434 . S
C217 C218 1.369 . S
C217 C219 1.419 . S
C217 H221 0.930 . S
C218 C217 1.369 . S
C218 C227 1.429 . S
C219 C217 1.419 . S
C219 C220 1.363 . S
C219 H222 0.929 . S
C220 C219 1.363 . S
C220 C226 1.428 . S
H221 C217 0.930 . S
H222 C219 0.929 . S
S223 N224 1.613 . S
S223 N225 1.610 . S
N224 S223 1.613 . S
N224 C227 1.350 . S
N225 S223 1.610 . S
N225 C226 1.351 . S
C226 C220 1.428 . S
C226 N225 1.351 . S
C226 C227 1.434 . S
C227 C218 1.429 . S
C227 N224 1.350 . S
C227 C226 1.434 . S
C228 C229 1.369 . S
C228 C230 1.419 . S
C228 H232 0.930 . S
C229 C228 1.369 . S
C229 C238 1.429 1_545 S
C230 C228 1.419 . S
C230 C231 1.363 . S
C230 H233 0.929 . S
C231 C230 1.363 . S
C231 C237 1.428 1_545 S
H232 C228 0.930 . S
H233 C230 0.929 . S
S234 N235 1.613 . S
S234 N236 1.610 . S
N235 S234 1.613 . S
N235 C238 1.350 . S
N236 S234 1.610 . S
N236 C237 1.351 . S
C237 C231 1.428 1_565 S
C237 N236 1.351 . S
C237 C238 1.434 . S
C238 C229 1.429 1_565 S
C238 N235 1.350 . S
C238 C237 1.434 . S
C239 C240 1.369 . S
C239 C241 1.419 . S
C239 H243 0.930 . S
C240 C239 1.369 . S
C240 C249 1.429 1_545 S
C241 C239 1.419 . S
C241 C242 1.363 1_545 S
C241 H244 0.929 . S
C242 C241 1.363 1_565 S
C242 C248 1.428 . S
H243 C239 0.930 . S
H244 C241 0.929 . S
S245 N246 1.613 . S
S245 N247 1.610 . S
N246 S245 1.613 . S
N246 C249 1.350 . S
N247 S245 1.610 . S
N247 C248 1.351 . S
C248 C242 1.428 . S
C248 N247 1.351 . S
C248 C249 1.434 . S
C249 C240 1.429 1_565 S
C249 N246 1.350 . S
C249 C248 1.434 . S
C250 C251 1.369 . S
C250 C252 1.419 . S
C250 H254 0.930 . S
C251 C250 1.369 . S
C251 C260 1.429 . S
C252 C250 1.419 . S
C252 C253 1.363 . S
C252 H255 0.929 . S
C253 C252 1.363 . S
C253 C259 1.428 . S
H254 C250 0.930 . S
H255 C252 0.929 . S
S256 N257 1.613 . S
S256 N258 1.610 . S
N257 S256 1.613 . S
N257 C260 1.350 . S
N258 S256 1.610 . S
N258 C259 1.351 . S
C259 C253 1.428 . S
C259 N258 1.351 . S
C259 C260 1.434 . S
C260 C251 1.429 . S
C260 N257 1.350 . S
C260 C259 1.434 . S
C261 C262 1.369 . S
C261 C263 1.419 . S
C261 H265 0.930 . S
C262 C261 1.369 . S
C262 C271 1.429 . S
C263 C261 1.419 . S
C263 C264 1.363 . S
C263 H266 0.929 . S
C264 C263 1.363 . S
C264 C270 1.428 . S
H265 C261 0.930 . S
H266 C263 0.929 . S
S267 N268 1.613 . S
S267 N269 1.610 . S
N268 S267 1.613 . S
N268 C271 1.350 . S
N269 S267 1.610 . S
N269 C270 1.351 . S
C270 C264 1.428 . S
C270 N269 1.351 . S
C270 C271 1.434 . S
C271 C262 1.429 . S
C271 N268 1.350 . S
C271 C270 1.434 . S
C272 C273 1.369 . S
C272 C274 1.419 1_455 S
C272 H276 0.930 . S
C273 C272 1.369 . S
C273 C282 1.429 . S
C274 C272 1.419 1_655 S
C274 C275 1.363 . S
C274 H277 0.929 . S
C275 C274 1.363 . S
C275 C281 1.428 1_655 S
H276 C272 0.930 . S
H277 C274 0.929 . S
S278 N279 1.613 . S
S278 N280 1.610 . S
N279 S278 1.613 . S
N279 C282 1.350 . S
N280 S278 1.610 . S
N280 C281 1.351 . S
C281 C275 1.428 1_455 S
C281 N280 1.351 . S
C281 C282 1.434 . S
C282 C273 1.429 . S
C282 N279 1.350 . S
C282 C281 1.434 . S
C283 C284 1.369 . S
C283 C285 1.419 . S
C283 H287 0.930 . S
C284 C283 1.369 . S
C284 C293 1.429 . S
C285 C283 1.419 . S
C285 C286 1.363 . S
C285 H288 0.929 . S
C286 C285 1.363 . S
C286 C292 1.428 . S
H287 C283 0.930 . S
H288 C285 0.929 . S
S289 N290 1.613 . S
S289 N291 1.610 . S
N290 S289 1.613 . S
N290 C293 1.350 . S
N291 S289 1.610 . S
N291 C292 1.351 . S
C292 C286 1.428 . S
C292 N291 1.351 . S
C292 C293 1.434 . S
C293 C284 1.429 . S
C293 N290 1.350 . S
C293 C292 1.434 . S
C294 C295 1.369 . S
C294 C296 1.419 . S
C294 H298 0.930 . S
C295 C294 1.369 . S
C295 C304 1.429 1_455 S
C296 C294 1.419 . S
C296 C297 1.363 1_455 S
C296 H299 0.929 . S
C297 C296 1.363 1_655 S
C297 C303 1.428 . S
H298 C294 0.930 . S
H299 C296 0.929 . S
S300 N301 1.613 . S
S300 N302 1.610 . S
N301 S300 1.613 . S
N301 C304 1.350 . S
N302 S300 1.610 . S
N302 C303 1.351 . S
C303 C297 1.428 . S
C303 N302 1.351 . S
C303 C304 1.434 . S
C304 C295 1.429 1_655 S
C304 N301 1.350 . S
C304 C303 1.434 . S
C305 C306 1.369 . S
C305 C307 1.419 . S
C305 H309 0.930 . S
C306 C305 1.369 . S
C306 C315 1.429 . S
C307 C305 1.419 . S
C307 C308 1.363 . S
C307 H310 0.929 . S
C308 C307 1.363 . S
C308 C314 1.428 . S
H309 C305 0.930 . S
H310 C307 0.929 . S
S311 N312 1.613 . S
S311 N313 1.610 . S
N312 S311 1.613 . S
N312 C315 1.350 . S
N313 S311 1.610 . S
N313 C314 1.351 . S
C314 C308 1.428 . S
C314 N313 1.351 . S
C314 C315 1.434 . S
C315 C306 1.429 . S
C315 N312 1.350 . S
C315 C314 1.434 . S
C316 C317 1.359 1_554 S
C316 C318 1.419 1_455 S
C316 H320 0.930 . S
C317 C316 1.359 1_556 S
C317 C326 1.438 1_455 S
C318 C316 1.419 1_655 S
C318 C319 1.363 . S
C318 H321 0.929 . S
C319 C318 1.363 . S
C319 C325 1.428 1_554 S
H320 C316 0.930 . S
H321 C318 0.929 . S
S322 N323 1.613 1_655 S
S322 N324 1.610 . S
N323 S322 1.613 1_455 S
N323 C326 1.350 1_455 S
N324 S322 1.610 . S
N324 C325 1.351 . S
C325 C319 1.428 1_556 S
C325 N324 1.351 . S
C325 C326 1.434 . S
C326 C317 1.438 1_655 S
C326 N323 1.350 1_655 S
C326 C325 1.434 . S
C327 C328 1.369 . S
C327 C329 1.419 . S
C327 H331 0.930 . S
C328 C327 1.369 . S
C328 C337 1.429 . S
C329 C327 1.419 . S
C329 C330 1.363 . S
C329 H332 0.929 . S
C330 C329 1.363 . S
C330 C336 1.428 . S
H331 C327 0.930 . S
H332 C329 0.929 . S
S333 N334 1.613 . S
S333 N335 1.610 . S
N334 S333 1.613 . S
N334 C337 1.350 . S
N335 S333 1.610 . S
N335 C336 1.351 . S
C336 C330 1.428 . S
C336 N335 1.351 . S
C336 C337 1.434 . S
C337 C328 1.429 . S
C337 N334 1.350 . S
C337 C336 1.434 . S
C338 C339 1.369 . S
C338 C340 1.418 1_556 S
C338 H342 0.930 . S
C339 C338 1.369 . S
C339 C348 1.429 . S
C340 C338 1.418 1_554 S
C340 C341 1.363 1_554 S
C340 H343 0.930 . S
C341 C340 1.363 1_556 S
C341 C347 1.429 . S
H342 C338 0.930 . S
H343 C340 0.930 . S
S344 N345 1.613 . S
S344 N346 1.610 . S
N345 S344 1.613 . S
N345 C348 1.350 . S
N346 S344 1.610 . S
N346 C347 1.351 . S
C347 C341 1.429 . S
C347 N346 1.351 . S
C347 C348 1.434 . S
C348 C339 1.429 . S
C348 N345 1.350 . S
C348 C347 1.434 . S
C349 C350 1.369 . S
C349 C351 1.419 1_455 S
C349 H353 0.930 1_455 S
C350 C349 1.369 . S
C350 C359 1.429 . S
C351 C349 1.419 1_655 S
C351 C352 1.363 . S
C351 H354 0.929 . S
C352 C351 1.363 . S
C352 C358 1.428 1_655 S
H353 C349 0.930 1_655 S
H354 C351 0.929 . S
S355 N356 1.613 . S
S355 N357 1.610 . S
N356 S355 1.613 . S
N356 C359 1.350 . S
N357 S355 1.610 . S
N357 C358 1.351 . S
C358 C352 1.428 1_455 S
C358 N357 1.351 . S
C358 C359 1.434 . S
C359 C350 1.429 . S
C359 N356 1.350 . S
C359 C358 1.434 . S
C185 N25 1.856 . S
C187 C16 2.069 1_556 S
C196 N2 1.752 . S
C198 C39 1.806 . S
C207 N71 1.854 . S
C209 C62 2.069 1_554 S
C218 N48 1.748 . S
C220 C85 1.806 . S
C229 N104 1.847 . S
C231 C122 1.890 1_545 S
C240 N127 1.722 . S
C242 C99 1.830 . S
C251 N150 1.850 . S
C253 C168 1.891 . S
C262 C145 1.826 . S
C264 N173 1.727 . S
C273 C7 1.530 . S
C275 C76 1.550 . S
C284 C30 1.542 . S
C286 C53 1.539 . S
C295 N163 1.595 . S
C297 N94 1.343 . S
C306 N140 1.347 . S
C308 N117 1.596 . S
C317 N12 1.506 1_556 S
C319 C108 1.416 1_554 S
C328 C131 1.555 . S
C330 N35 1.649 . S
C339 C154 1.426 1_556 S
C341 N58 1.503 . S
C350 C177 1.555 . S
C352 N81 1.649 . S
