# Generated by pormake.
# Topology rob, (6)-cn, num edge types: 1
# Building blocks:
#     Node 0, Type 0, BuildingBlock: KUMBOL_clean_sbu_1, # of connection points: 6
#     Node 1, Type 0, BuildingBlock: KUMBOL_clean_sbu_1, # of connection points: 6
#     Node 2, Type 0, BuildingBlock: KUMBOL_clean_sbu_1, # of connection points: 6
#     Node 3, Type 0, BuildingBlock: KUMBOL_clean_sbu_1, # of connection points: 6
#     Edge 4, Type (0, 0), BuildingBlock: EZIPEK_clean_linker_0, # of connection points: 2
#     Edge 5, Type (0, 0), BuildingBlock: EZIPEK_clean_linker_0, # of connection points: 2
#     Edge 6, Type (0, 0), BuildingBlock: EZIPEK_clean_linker_0, # of connection points: 2
#     Edge 7, Type (0, 0), BuildingBlock: EZIPEK_clean_linker_0, # of connection points: 2
#     Edge 8, Type (0, 0), BuildingBlock: EZIPEK_clean_linker_0, # of connection points: 2
#     Edge 9, Type (0, 0), BuildingBlock: EZIPEK_clean_linker_0, # of connection points: 2
#     Edge 10, Type (0, 0), BuildingBlock: EZIPEK_clean_linker_0, # of connection points: 2
#     Edge 11, Type (0, 0), BuildingBlock: EZIPEK_clean_linker_0, # of connection points: 2
#     Edge 12, Type (0, 0), BuildingBlock: EZIPEK_clean_linker_0, # of connection points: 2
#     Edge 13, Type (0, 0), BuildingBlock: EZIPEK_clean_linker_0, # of connection points: 2
#     Edge 14, Type (0, 0), BuildingBlock: EZIPEK_clean_linker_0, # of connection points: 2
#     Edge 15, Type (0, 0), BuildingBlock: EZIPEK_clean_linker_0, # of connection points: 2
# Relax obj value: 0.026
# Max RMSD: 0.137
# Mean RMSD: 0.137
data_MOF--net-rob--node1-KUMBOL_clean_sbu_1--edge1-EZIPEK_clean_linker_0
_symmetry_space_group_name_H-M    P1
_symmetry_Int_Tables_number       1
_symmetry_cell_setting            triclinic
loop_
_symmetry_equiv_pos_as_xyz
'x, y, z'
_cell_length_a     15.158233
_cell_length_b     17.610364
_cell_length_c     27.194428
_cell_angle_alpha  108.17066
_cell_angle_beta   90.37048
_cell_angle_gamma 89.903359
loop_
_atom_site_label
_atom_site_type_symbol
_atom_site_fract_x
_atom_site_fract_y
_atom_site_fract_z
_atom_type_partial_charge
C0 C 0.06905 0.42135 0.04869 0.0
C1 C 0.92023 0.38773 0.01522 0.0
C2 C 0.00453 0.36418 0.02643 0.0
C3 C 0.905 0.4682 0.02174 0.0
C4 C 0.05471 0.50132 0.05329 0.0
C5 C 0.9743 0.5232 0.03798 0.0
N6 N 0.14503 0.39909 0.0665 0.0
C7 C 0.20733 0.45475 0.09072 0.0
C8 C 0.1227 0.5569 0.07149 0.0
C9 C 0.20043 0.53273 0.0894 0.0
Gd10 Gd 0.32537 0.11959 0.95571 0.0
Gd11 Gd 0.15895 0.26199 0.04847 0.0
N12 N 0.02335 0.28603 0.01729 0.0
C13 C 0.85535 0.32936 0.99568 0.0
C14 C 0.96026 0.22856 0.99984 0.0
C15 C 0.87574 0.24918 0.9877 0.0
H16 H 0.97444 0.16703 0.99598 0.0
H17 H 0.82651 0.20339 0.97243 0.0
H18 H 0.50166 0.2393 0.95881 0.0
H19 H 0.26526 0.43908 0.10868 0.0
H20 H 0.65702 0.24566 0.98438 0.0
H21 H 0.79009 0.34541 0.98584 0.0
H22 H 0.8421 0.48659 0.01063 0.0
H23 H 0.2655 0.92618 0.92891 0.0
H24 H 0.11519 0.6187 0.07286 0.0
H25 H 0.25393 0.57458 0.10373 0.0
H26 H 0.70288 0.00496 0.02753 0.0
H27 H 0.96945 0.58251 0.03678 0.0
H28 H 0.47131 0.80973 0.98166 0.0
H29 H 0.32524 0.8062 0.94393 0.0
N30 N 0.37463 0.00022 0.96464 0.0
C31 C 0.45794 0.0027 0.98367 0.0
C32 C 0.32774 0.93046 0.949 0.0
C33 C 0.44526 0.8643 0.97836 0.0
C34 C 0.36201 0.86166 0.95634 0.0
C35 C 0.49486 0.93503 0.99202 0.0
H36 H 0.61086 0.88906 0.01828 0.0
N37 N 0.47381 0.13418 0.9792 0.0
C38 C 0.50963 0.07056 0.98996 0.0
C39 C 0.65259 0.13549 1.00294 0.0
C40 C 0.59976 0.07065 1.00334 0.0
C41 C 0.5265 0.19455 0.97451 0.0
C42 C 0.6161 0.197 0.98734 0.0
O43 O 0.13727 0.24356 0.96142 0.0
O44 O 0.18974 0.11748 0.92209 0.0
O45 O 0.35244 0.15089 0.8862 0.0
O46 O 0.38031 0.03168 0.88698 0.0
O47 O 0.11466 0.1328 0.0296 0.0
O48 O 0.19798 0.04901 0.96443 0.0
O49 O 0.35286 0.14703 0.04567 0.0
O50 O 0.29614 0.27074 0.07656 0.0
O51 O 0.1448 0.21334 0.11419 0.0
O52 O 0.06985 0.31593 0.11071 0.0
O53 O 0.3479 0.25163 0.96182 0.0
O54 O 0.29262 0.32459 0.04032 0.0
C55 C 0.14725 0.18079 0.91977 0.0
C56 C 0.12959 0.06162 0.9968 0.0
C57 C 0.47491 0.0884 0.83731 0.0
C58 C 0.56213 0.12491 0.77244 0.0
C59 C 0.63541 0.08809 0.84129 0.0
C60 C 0.55395 0.07411 0.86019 0.0
C61 C 0.63956 0.11426 0.79813 0.0
C62 C 0.47942 0.11285 0.79255 0.0
C63 C 0.38843 0.08285 0.86149 0.0
C64 C 0.63449 0.00564 0.01577 0.0
C65 C 0.58161 0.93897 0.01063 0.0
H66 H 0.72193 0.13726 0.01309 0.0
C67 C 0.33886 0.21308 0.08541 0.0
C68 C 0.3468 0.3183 1.00091 0.0
C69 C 0.07514 0.2983 0.19316 0.0
C70 C 0.0177 0.29061 0.27605 0.0
C71 C 0.07813 0.41451 0.26989 0.0
C72 C 0.09211 0.37982 0.21731 0.0
C73 C 0.04104 0.37085 0.29904 0.0
C74 C 0.03622 0.25347 0.22278 0.0
C75 C 0.08366 0.26538 0.13594 0.0
H76 H 0.6956 0.07819 0.86007 0.0
H77 H 0.55349 0.0531 0.89321 0.0
H78 H 0.70349 0.12379 0.78354 0.0
H79 H 0.41929 0.12229 0.77347 0.0
H80 H 0.09392 0.47623 0.28768 0.0
H81 H 0.11652 0.41737 0.19549 0.0
H82 H 0.02675 0.40086 0.33939 0.0
H83 H 0.01666 0.19199 0.20418 0.0
C84 C 0.5429 0.92283 0.11978 0.0
C85 C 0.38894 0.88669 0.10714 0.0
C86 C 0.47916 0.86755 0.09812 0.0
C87 C 0.36489 -0.03627 0.13776 0.0
C88 C 0.51991 -0.00163 0.15321 0.0
C89 C 0.43049 0.01929 0.16102 0.0
N90 N 0.62813 0.90178 0.10912 0.0
C91 C 0.69414 0.95439 0.13056 0.0
C92 C 0.58775 0.04923 0.17861 0.0
C93 C 0.67523 0.02855 0.16619 0.0
Gd94 Gd 0.79765 0.62732 0.93846 0.0
Gd95 Gd 0.65968 0.7686 0.06087 0.0
N96 N 0.50574 0.79401 0.06934 0.0
C97 C 0.32603 0.8274 0.08607 0.0
C98 C 0.44449 0.73467 0.05187 0.0
C99 C 0.35415 0.75053 0.05883 0.0
H100 H 0.46426 0.67456 0.03333 0.0
H101 H 0.30647 0.70305 0.04392 0.0
H102 H 0.00286 0.69919 0.97807 0.0
H103 H 0.76159 0.93703 0.12333 0.0
H104 H 0.15314 0.64738 0.97602 0.0
H105 H 0.25613 0.83965 0.09197 0.0
H106 H 0.2961 -0.01964 0.14452 0.0
H107 H 0.67834 0.47247 0.86573 0.0
H108 H 0.57388 0.10267 0.20933 0.0
H109 H 0.72805 0.0682 0.18549 0.0
H110 H 0.11172 0.36444 0.92031 0.0
H111 H 0.41114 0.07821 0.18422 0.0
H112 H 0.82429 0.26205 0.85949 0.0
H113 H 0.68797 0.32497 0.84039 0.0
N114 N 0.80865 0.49055 0.89653 0.0
C115 C 0.88716 0.45698 0.901 0.0
C116 C 0.73915 0.44474 0.87197 0.0
C117 C 0.82184 0.32605 0.8678 0.0
C118 C 0.74433 0.36148 0.85766 0.0
C119 C 0.89536 0.37394 0.88807 0.0
H120 H 0.97771 0.28123 0.89718 0.0
N121 N 0.94436 0.58572 0.94107 0.0
C122 C 0.95833 0.50615 0.92112 0.0
C123 C 0.11342 0.52474 0.94236 0.0
C124 C 0.04216 0.47316 0.92411 0.0
C125 C 0.01323 0.63628 0.96081 0.0
C126 C 0.09899 0.60691 0.9603 0.0
O127 O 0.61358 0.75529 0.97781 0.0
O128 O 0.65484 0.63164 0.92778 0.0
O129 O 0.78353 0.71109 0.89517 0.0
O130 O 0.83658 0.59297 0.85754 0.0
O131 O 0.61164 0.63754 0.03468 0.0
O132 O 0.67874 0.557 0.95976 0.0
O133 O 0.83517 0.62563 0.01884 0.0
O134 O 0.8028 0.75215 0.06374 0.0
O135 O 0.62472 0.69965 0.11205 0.0
O136 O 0.72245 0.79385 0.13557 0.0
O137 O 0.85713 0.75406 0.97347 0.0
O138 O 0.76392 0.84498 0.03068 0.0
C139 C 0.61249 0.6973 0.93308 0.0
C140 C 0.61996 0.56773 0.99808 0.0
C141 C 0.90075 0.70105 0.83721 0.0
C142 C 0.98346 0.73742 0.77174 0.0
C143 C 0.04495 0.76436 0.85757 0.0
C144 C 0.97034 0.73132 0.87197 0.0
C145 C 0.05115 0.76846 0.80776 0.0
C146 C 0.90763 0.7037 0.78632 0.0
C147 C 0.82397 0.66479 0.85449 0.0
C148 C 0.04993 0.39052 0.91367 0.0
C149 C 0.97523 0.34206 0.8983 0.0
H150 H 0.17868 0.50187 0.94518 0.0
C151 C 0.83605 0.68441 0.06247 0.0
C152 C 0.83646 0.82883 1.00053 0.0
C153 C 0.62642 0.78121 0.19989 0.0
C154 C 0.52981 0.76895 0.26792 0.0
C155 C 0.58882 0.89847 0.27155 0.0
C156 C 0.63585 0.86325 0.22668 0.0
C157 C 0.53567 0.85194 0.292 0.0
C158 C 0.57276 0.73401 0.22066 0.0
C159 C 0.67141 0.74579 0.15023 0.0
H160 H 0.09777 0.7872 0.88521 0.0
H161 H 0.96676 0.7315 0.91084 0.0
H162 H 0.11055 0.79289 0.79654 0.0
H163 H 0.85671 0.67734 0.75799 0.0
H164 H 0.59354 -0.03799 0.29022 0.0
H165 H 0.6787 0.90098 0.21291 0.0
H166 H 0.4985 0.88084 0.3266 0.0
H167 H 0.56501 0.67068 0.20059 0.0
C168 C 0.05776 0.48023 0.44983 0.0
C169 C 0.90517 0.51 0.47303 0.0
C170 C 0.98975 0.53502 0.46484 0.0
C171 C 0.89491 0.43325 0.47624 0.0
C172 C 0.04716 0.40212 0.4506 0.0
C173 C 0.9681 0.38141 0.46826 0.0
N174 N 0.13198 0.5021 0.43103 0.0
C175 C 0.19098 0.44559 0.40425 0.0
C176 C 0.11576 0.34723 0.43287 0.0
C177 C 0.18619 0.36787 0.40694 0.0
Gd178 Gd 0.31002 0.77017 0.55278 0.0
Gd179 Gd 0.14578 0.63942 0.44817 0.0
N180 N 0.00487 0.6115 0.46768 0.0
C181 C 0.8345 0.56321 0.47816 0.0
C182 C 0.93723 0.66391 0.47142 0.0
C183 C 0.85063 0.63964 0.47503 0.0
H184 H 0.94943 0.72286 0.46876 0.0
H185 H 0.79697 0.67905 0.47366 0.0
H186 H 0.46576 0.63312 0.55141 0.0
H187 H 0.2433 0.46096 0.38241 0.0
H188 H 0.62525 0.61894 0.54398 0.0
H189 H 0.76756 0.54505 0.48271 0.0
H190 H 0.83175 0.41665 0.4876 0.0
H191 H 0.27141 -0.03327 0.58934 0.0
H192 H 0.11248 0.28763 0.43597 0.0
H193 H 0.23617 0.32422 0.38912 0.0
H194 H 0.72134 0.86898 0.52789 0.0
H195 H 0.96574 0.32563 0.4761 0.0
H196 H 0.50663 0.0807 0.56978 0.0
H197 H 0.35299 0.08929 0.59524 0.0
N198 N 0.38056 0.88965 0.55995 0.0
C199 C 0.46803 0.88418 0.5495 0.0
C200 C 0.3393 -0.0379 0.57731 0.0
C201 C 0.47405 0.02676 0.56839 0.0
C202 C 0.38565 0.03184 0.58201 0.0
C203 C 0.51729 0.95282 0.55296 0.0
H204 H 0.64397 -0.00692 0.53504 0.0
N205 N 0.46092 0.74587 0.5381 0.0
C206 C 0.50954 0.81031 0.53821 0.0
C207 C 0.64394 0.73568 0.53636 0.0
C208 C 0.60227 0.80558 0.5349 0.0
C209 C 0.50185 0.67877 0.54201 0.0
C210 C 0.59352 0.67184 0.54001 0.0
O211 O 0.11663 0.65694 0.53332 0.0
O212 O 0.16951 0.78211 0.57339 0.0
O213 O 0.32875 0.72409 0.61711 0.0
O214 O 0.33633 0.85108 0.63022 0.0
O215 O 0.10322 0.77127 0.47403 0.0
O216 O 0.20332 0.85168 0.53135 0.0
O217 O 0.3483 0.75247 0.46867 0.0
O218 O 0.27992 0.63822 0.4166 0.0
O219 O 0.083 0.57677 0.37468 0.0
O220 O 0.11128 0.70318 0.39538 0.0
O221 O 0.31077 0.63408 0.53907 0.0
O222 O 0.27745 0.57709 0.45452 0.0
C223 C 0.12104 0.72209 0.57359 0.0
C224 C 0.13035 0.84308 0.50214 0.0
C225 C 0.43183 0.79513 0.67873 0.0
C226 C 0.51488 0.75841 0.74436 0.0
C227 C 0.59 0.81879 0.68776 0.0
C228 C 0.5094 0.82708 0.66514 0.0
C229 C 0.5929 0.78457 0.72732 0.0
C230 C 0.43464 0.76139 0.71909 0.0
C231 C 0.34917 0.79332 0.64975 0.0
C232 C 0.65059 0.87241 0.53373 0.0
C233 C 0.60715 0.94475 0.54044 0.0
H234 H 0.71474 0.7333 0.53946 0.0
C235 C 0.335 0.69708 0.42345 0.0
C236 C 0.3223 0.57487 0.49571 0.0
C237 C 0.10488 0.63303 0.30756 0.0
C238 C 0.06695 0.6506 0.22508 0.0
C239 C 0.21631 0.61386 0.24168 0.0
C240 C 0.1909 0.61123 0.29024 0.0
C241 C 0.15543 0.63652 0.21022 0.0
C242 C 0.04251 0.65121 0.27472 0.0
C243 C 0.0797 0.64073 0.36038 0.0
H244 H 0.6499 0.84111 0.67575 0.0
H245 H 0.50801 0.85926 0.63761 0.0
H246 H 0.65532 0.78202 0.74643 0.0
H247 H 0.37468 0.73974 0.73171 0.0
H248 H 0.28369 0.60037 0.22895 0.0
H249 H 0.23865 0.5945 0.31475 0.0
H250 H 0.17729 0.64474 0.17475 0.0
H251 H 0.97527 0.66592 0.28768 0.0
C252 C 0.57108 -0.03561 0.43045 0.0
C253 C 0.41606 -0.0133 0.45185 0.0
C254 C 0.50112 0.01675 0.44899 0.0
C255 C 0.40561 0.90497 0.4433 0.0
C256 C 0.56048 0.88248 0.42138 0.0
C257 C 0.47966 0.85487 0.4319 0.0
N258 N 0.65042 -0.00636 0.42335 0.0
C259 C 0.71886 0.94398 0.40193 0.0
C260 C 0.63264 0.83126 0.40467 0.0
C261 C 0.71158 0.8619 0.39305 0.0
Gd262 Gd 0.78135 0.29333 0.57107 0.0
Gd263 Gd 0.66119 0.13124 0.45308 0.0
N264 N 0.51641 0.09645 0.46506 0.0
C265 C 0.34586 0.04022 0.46779 0.0
C266 C 0.44876 0.14941 0.48221 0.0
C267 C 0.36245 0.12212 0.48312 0.0
H268 H 0.45971 0.21278 0.49518 0.0
H269 H 0.30907 0.16427 0.49655 0.0
H270 H 0.99406 0.22838 0.56532 0.0
H271 H 0.77913 -0.03209 0.39221 0.0
H272 H 0.14126 0.28342 0.56347 0.0
H273 H 0.27949 0.01899 0.47034 0.0
H274 H 0.34257 0.88215 0.45045 0.0
H275 H 0.64986 0.45397 0.62437 0.0
H276 H 0.62764 0.76809 0.39981 0.0
H277 H 0.76682 0.82273 0.37796 0.0
H278 H 0.08509 0.55221 0.5715 0.0
H279 H 0.47811 0.79682 0.43583 0.0
H280 H 0.79602 0.66044 0.62198 0.0
H281 H 0.65707 0.59953 0.6393 0.0
N282 N 0.78362 0.43339 0.59965 0.0
C283 C 0.86226 0.46699 0.59647 0.0
C284 C 0.71124 0.48031 0.6177 0.0
C285 C 0.79347 0.59696 0.61701 0.0
C286 C 0.715 0.56281 0.62645 0.0
C287 C 0.86849 0.54887 0.60263 0.0
H288 H 0.94915 0.63716 0.58688 0.0
N289 N 0.92684 0.33915 0.57526 0.0
C290 C 0.93641 0.4188 0.58546 0.0
C291 C 0.09408 0.40273 0.5741 0.0
C292 C 0.01951 0.45187 0.58221 0.0
C293 C -0.0005 0.29093 0.56957 0.0
C294 C 0.08411 0.32205 0.56904 0.0
O295 O 0.63207 0.12631 0.53455 0.0
O296 O 0.64408 0.25583 0.5705 0.0
O297 O 0.80757 0.22766 0.62539 0.0
O298 O 0.76743 0.35067 0.6536 0.0
O299 O 0.59394 0.25413 0.47141 0.0
O300 O 0.65797 0.34879 0.54165 0.0
O301 O 0.82414 0.28446 0.48837 0.0
O302 O 0.80001 0.1551 0.43859 0.0
O303 O 0.6485 0.19653 0.39779 0.0
O304 O 0.63587 0.06748 0.3724 0.0
O305 O 0.85714 0.1718 0.54442 0.0
O306 O 0.78821 0.0762 0.47659 0.0
C307 C 0.6277 0.18793 0.57663 0.0
C308 C 0.5982 0.32812 0.50331 0.0
C309 C 0.87268 0.30861 0.70475 0.0
C310 C 0.98117 0.26716 0.75939 0.0
C311 C 0.96356 0.40808 0.76587 0.0
C312 C 0.8971 0.38877 0.72878 0.0
C313 C 0.00525 0.34836 0.78073 0.0
C314 C 0.91659 0.24761 0.71939 0.0
C315 C 0.79982 0.29046 0.66586 0.0
C316 C 0.024 0.53064 0.58196 0.0
C317 C 0.94816 0.57878 0.59138 0.0
H318 H 0.15912 0.42623 0.57121 0.0
C319 C 0.83238 0.22532 0.44421 0.0
C320 C 0.85341 0.09776 0.51138 0.0
C321 C 0.53962 0.13967 0.33452 0.0
C322 C 0.45333 0.19729 0.2784 0.0
C323 C 0.38834 0.09746 0.31273 0.0
C324 C 0.46729 0.09155 0.33742 0.0
C325 C 0.3814 0.1492 0.28332 0.0
C326 C 0.53136 0.19429 0.30648 0.0
C327 C 0.62371 0.13307 0.36061 0.0
H328 H 0.98247 0.46993 0.78362 0.0
H329 H 0.86533 0.43718 0.71882 0.0
H330 H 0.05679 0.36643 0.80966 0.0
H331 H 0.90068 0.18588 0.69944 0.0
H332 H 0.33297 0.06005 0.31514 0.0
H333 H 0.47161 0.0487 0.35836 0.0
H334 H 0.32027 0.14867 0.26236 0.0
H335 H 0.58624 0.23315 0.30706 0.0
C336 C 0.46635 0.49799 0.9718 0.0
C337 C 0.55061 0.50174 0.99682 0.0
C338 C 0.49416 0.3961 0.0324 0.0
C339 C 0.41455 0.3855 1.00234 0.0
N340 N 0.3306 0.42513 0.93942 0.0
N341 N 0.64727 0.44049 0.04365 0.0
C342 C 0.40317 0.4358 0.97065 0.0
C343 C 0.5648 0.44666 0.02499 0.0
N344 N 0.44362 0.55663 0.95121 0.0
N345 N 0.50223 0.35917 0.06935 0.0
H346 H 0.69994 0.47413 0.03749 0.0
H347 H 0.6654 0.39646 0.05994 0.0
H348 H 0.45269 0.32333 0.07618 0.0
H349 H 0.55365 0.37017 0.09625 0.0
H350 H 0.38044 0.56339 0.93788 0.0
H351 H 0.4858 0.60349 0.95221 0.0
H352 H 0.32451 0.44954 0.90924 0.0
H353 H 0.27792 0.38915 0.94269 0.0
C354 C 0.3945 0.47504 0.53786 0.0
C355 C 0.38604 0.50371 0.49408 0.0
C356 C 0.51057 0.41115 0.45421 0.0
C357 C 0.52327 0.38735 0.49948 0.0
N358 N 0.45298 0.37616 0.57541 0.0
N359 N 0.42354 0.47455 0.40326 0.0
C360 C 0.45904 0.41476 0.53919 0.0
C361 C 0.44045 0.46483 0.45032 0.0
N362 N 0.33605 0.50153 0.57733 0.0
N363 N 0.5666 0.38269 0.41382 0.0
H364 H 0.38097 0.51648 0.39704 0.0
H365 H 0.44828 0.43682 0.36857 0.0
H366 H 0.60458 0.33257 0.4099 0.0
H367 H 0.57542 0.40883 0.3847 0.0
H368 H 0.34591 0.49655 0.61412 0.0
H369 H 0.27616 0.52706 0.57223 0.0
H370 H 0.40475 0.38714 0.6038 0.0
H371 H 0.48992 0.32524 0.57263 0.0
C372 C 0.03559 -0.01775 0.04363 0.0
C373 C 0.06009 -0.00407 0.9963 0.0
C374 C 0.93059 0.91108 0.95476 0.0
C375 C 0.9076 0.89417 1.00131 0.0
N376 N 0.93413 0.92682 0.09282 0.0
N377 N 0.04017 0.9541 0.90387 0.0
C378 C 0.95915 0.93384 0.04642 0.0
C379 C 0.01013 0.95472 0.95117 0.0
N380 N 0.09059 0.01028 0.08546 0.0
N381 N 0.87289 0.88951 0.91414 0.0
H382 H 0.09953 -0.02007 0.89872 0.0
H383 H 0.00965 0.92357 0.86898 0.0
H384 H 0.81499 0.85895 0.91535 0.0
H385 H 0.87776 0.90819 0.88152 0.0
H386 H 0.08442 -0.00342 0.11981 0.0
H387 H 0.1487 0.04122 0.08416 0.0
H388 H 0.95785 -0.03748 0.12849 0.0
H389 H 0.88654 0.88622 0.09569 0.0
C390 C 0.96507 -0.01322 0.46177 0.0
C391 C 0.93004 0.0367 0.50992 0.0
C392 C 0.04029 -0.02943 0.55368 0.0
C393 C 0.06759 0.91505 0.50552 0.0
N394 N 0.05193 0.87365 0.41293 0.0
N395 N 0.93332 0.0654 0.60288 0.0
C396 C 0.02781 0.92418 0.45981 0.0
C397 C 0.96868 0.02627 0.55594 0.0
N398 N 0.94445 0.00246 0.41698 0.0
N399 N 0.08176 -0.02899 0.5985 0.0
H400 H 0.8856 0.10858 0.60788 0.0
H401 H 0.94588 0.05043 0.63641 0.0
H402 H 0.12396 0.92644 0.60168 0.0
H403 H 0.0777 0.0186 0.6327 0.0
H404 H 0.9765 -0.02313 0.38196 0.0
H405 H 0.90184 0.04724 0.41507 0.0
H406 H 0.01373 0.86272 0.37943 0.0
H407 H 0.1111 0.84324 0.40806 0.0
C408 C 0.50426 0.2286 0.19796 0.0
C409 C 0.44521 0.24242 0.23969 0.0
C410 C 0.3371 0.28163 0.18528 0.0
C411 C 0.38048 0.23187 0.13944 0.0
N412 N 0.52395 0.18541 0.10616 0.0
N413 N 0.3119 0.3076 0.27696 0.0
C414 C 0.46943 0.21175 0.14697 0.0
C415 C 0.36404 0.27786 0.23457 0.0
N416 N 0.59215 0.24296 0.2072 0.0
N417 N 0.27853 0.33965 0.18419 0.0
H418 H 0.33411 0.31137 0.31409 0.0
H419 H 0.24692 0.32577 0.27449 0.0
H420 H 0.25095 0.34834 0.15162 0.0
H421 H 0.2656 0.38702 0.21758 0.0
H422 H 0.63784 0.23924 0.17807 0.0
H423 H 0.61683 0.27051 0.24418 0.0
H424 H 0.58537 0.15995 0.10852 0.0
H425 H 0.5081 0.19555 0.07184 0.0
C426 C 0.38466 0.7451 0.29981 0.0
C427 C 0.47385 0.72235 0.29257 0.0
C428 C 0.46604 0.66406 0.36347 0.0
C429 C 0.38158 0.70002 0.37619 0.0
N430 N 0.26654 0.78462 0.36102 0.0
N431 N 0.59667 0.64682 0.30914 0.0
C432 C 0.34162 0.74173 0.34489 0.0
C433 C 0.51308 0.67572 0.32103 0.0
N434 N 0.34285 0.77294 0.26419 0.0
N435 N 0.50465 0.62757 0.39573 0.0
H436 H 0.63271 0.65583 0.27899 0.0
H437 H 0.63047 0.61208 0.32766 0.0
H438 H 0.47551 0.62693 0.43019 0.0
H439 H 0.56603 0.60004 0.39006 0.0
H440 H 0.27561 0.78552 0.26508 0.0
H441 H 0.37436 0.77529 0.23064 0.0
H442 H 0.23817 0.8223 0.34249 0.0
H443 H 0.23898 0.78963 0.39672 0.0
C444 C 0.57938 0.78766 0.87947 0.0
C445 C 0.57584 0.71018 0.88489 0.0
C446 C 0.52512 0.65973 0.79389 0.0
C447 C 0.51781 0.73927 0.79331 0.0
N448 N 0.50975 0.87877 0.8418 0.0
N449 N 0.53203 0.57041 0.84508 0.0
C450 C 0.53366 0.80285 0.8386 0.0
C451 C 0.54428 0.64534 0.84161 0.0
N452 N 0.63588 0.8444 0.90829 0.0
N453 N 0.51761 0.59813 0.74868 0.0
H454 H 0.54847 0.55333 0.87705 0.0
H455 H 0.4992 0.52543 0.8167 0.0
H456 H 0.50074 0.60699 0.7136 0.0
H457 H 0.53387 0.53924 0.74542 0.0
H458 H 0.68013 0.83393 0.93471 0.0
H459 H 0.64576 0.89874 0.90122 0.0
H460 H 0.51431 0.9248 0.87672 0.0
H461 H 0.47681 0.89278 0.81191 0.0
C462 C 0.64955 0.10999 0.64035 0.0
C463 C 0.61645 0.17929 0.63038 0.0
C464 C 0.55178 0.21941 0.71858 0.0
C465 C 0.57119 0.1427 0.72243 0.0
N466 N 0.62494 0.00933 0.68162 0.0
N467 N 0.54221 0.30715 0.66606 0.0
C468 C 0.61548 0.08639 0.68153 0.0
C469 C 0.56923 0.23621 0.67123 0.0
N470 N 0.71912 0.06954 0.61317 0.0
N471 N 0.52196 0.27796 0.7612 0.0
H472 H 0.57107 0.33291 0.64074 0.0
H473 H 0.49323 0.34236 0.68889 0.0
H474 H 0.50808 0.26775 0.79612 0.0
H475 H 0.51716 0.33792 0.76338 0.0
H476 H 0.75265 0.02467 0.62321 0.0
H477 H 0.74641 0.08463 0.58268 0.0
H478 H 0.65081 -0.03554 0.65032 0.0
H479 H 0.59879 -0.01107 0.71059 0.0
C480 C 0.96639 0.7286 0.12284 0.0
C481 C 0.89 0.68012 0.10767 0.0
C482 C 0.93025 0.60971 0.1694 0.0
C483 C 0.00074 0.6645 0.1882 0.0
N484 N 0.07041 0.78901 0.19141 0.0
N485 N 0.79069 0.58362 0.12343 0.0
C486 C 0.01348 0.72833 0.16782 0.0
C487 C 0.86868 0.62415 0.13364 0.0
N488 N -0.00102 0.76969 0.09204 0.0
N489 N 0.9254 0.541 0.18258 0.0
H490 H 0.74572 0.59127 0.09628 0.0
H491 H 0.76791 0.54779 0.14477 0.0
H492 H 0.97097 0.52613 0.20693 0.0
H493 H 0.88126 0.49501 0.16523 0.0
H494 H 0.06034 0.79789 0.09828 0.0
H495 H 0.96844 0.76928 0.05769 0.0
H496 H 0.07627 0.84023 0.18016 0.0
H497 H 0.10455 0.79187 0.22539 0.0
C498 C 0.96426 0.20024 0.38298 0.0
C499 C 0.88006 0.23603 0.39809 0.0
C500 C 0.87767 0.28034 0.32074 0.0
C501 C 0.96495 0.25269 0.30865 0.0
N502 N 0.09203 0.18369 0.32591 0.0
N503 N 0.7689 0.32718 0.38749 0.0
C504 C 0.00787 0.21032 0.33861 0.0
C505 C 0.8397 0.27993 0.36826 0.0
N506 N 0.0055 0.16287 0.41384 0.0
N507 N 0.83132 0.30821 0.28668 0.0
H508 H 0.74357 0.33264 0.42385 0.0
H509 H 0.74309 0.36819 0.37071 0.0
H510 H 0.85772 0.30899 0.25147 0.0
H511 H 0.76447 0.32249 0.29085 0.0
H512 H 0.06348 0.13013 0.40434 0.0
H513 H 0.98148 0.16561 0.45021 0.0
H514 H 0.13144 0.15716 0.34735 0.0
H515 H 0.12354 0.18913 0.29316 0.0
C516 C 0.11968 0.21885 0.78882 0.0
C517 C 0.02802 0.20754 0.78055 0.0
C518 C 0.02669 0.14426 0.84995 0.0
C519 C 0.1096 0.18086 0.86819 0.0
N520 N 0.23352 0.25707 0.85369 0.0
N521 N 0.89724 0.13982 0.79559 0.0
C522 C 0.15684 0.21735 0.83649 0.0
C523 C 0.98301 0.16156 0.80749 0.0
N524 N 0.16941 0.23687 0.75234 0.0
N525 N 0.98596 0.1004 0.87653 0.0
H526 H 0.86363 0.14974 0.76486 0.0
H527 H 0.85758 0.11378 0.81695 0.0
H528 H 0.01085 0.09702 0.91146 0.0
H529 H 0.93019 0.06539 0.8635 0.0
H530 H 0.23804 0.24078 0.75435 0.0
H531 H 0.14148 0.23941 0.71764 0.0
H532 H 0.26636 0.29103 0.83427 0.0
H533 H 0.25842 0.26339 0.89028 0.0
C534 C 0.00691 0.77691 0.64279 0.0
C535 C 0.08012 0.72607 0.62342 0.0
C536 C 0.06979 0.67065 0.69465 0.0
C537 C 0.00358 0.72677 0.71724 0.0
N538 N 0.91302 0.83901 0.71665 0.0
N539 N 0.19465 0.6425 0.63727 0.0
C540 C 0.97275 0.78165 0.69237 0.0
C541 C 0.11587 0.67886 0.65188 0.0
N542 N 0.96818 0.8174 0.61294 0.0
N543 N 0.08679 0.60834 0.7133 0.0
H544 H 0.22984 0.61253 0.65867 0.0
H545 H 0.22984 0.61253 0.65867 0.0
H546 H 0.05248 0.59986 0.74433 0.0
H547 H 0.12729 0.5604 0.69437 0.0
H548 H 0.90972 0.84954 0.62278 0.0
H549 H 0.99123 0.8137 0.57621 0.0
H550 H 0.89489 0.88596 0.70305 0.0
H551 H 0.88501 0.84178 0.75213 0.0
loop_
_geom_bond_atom_site_label_1
_geom_bond_atom_site_label_2
_geom_bond_distance
_geom_bond_site_symmetry_2
_ccdc_geom_bond_type
C0 C2 1.422 1_455 S
C0 C4 1.415 1_455 S
C0 N6 1.369 . S
C1 C2 1.421 . S
C1 C3 1.417 . S
C1 C13 1.422 1_554 S
C2 C0 1.422 1_655 S
C2 C1 1.421 . S
C2 N12 1.359 . S
C3 C1 1.417 . S
C3 C5 1.329 . S
C3 H22 0.930 1_554 S
C4 C0 1.415 1_655 S
C4 C5 1.437 . S
C4 C8 1.413 1_655 S
C5 C3 1.329 . S
C5 C4 1.437 . S
C5 H27 0.929 . S
N6 C0 1.369 . S
N6 C7 1.338 . S
N6 Gd11 2.622 . S
C7 N6 1.338 . S
C7 C9 1.378 . S
C7 H19 0.929 . S
C8 C4 1.413 1_455 S
C8 C9 1.348 . S
C8 H24 0.931 . S
C9 C7 1.378 . S
C9 C8 1.348 . S
C9 H25 0.930 . S
Gd10 N30 2.622 1_545 S
Gd10 N37 2.570 . S
Gd10 O44 2.353 . S
Gd10 O45 2.468 . S
Gd10 O46 2.427 . S
Gd10 O48 2.388 . S
Gd10 O49 2.386 1_556 S
Gd10 O53 2.307 . S
Gd10 C63 2.805 . S
Gd11 N6 2.622 . S
Gd11 N12 2.570 1_455 S
Gd11 O43 2.386 1_554 S
Gd11 O47 2.307 . S
Gd11 O50 2.353 . S
Gd11 O51 2.468 . S
Gd11 O52 2.427 . S
Gd11 O54 2.388 . S
Gd11 C75 2.805 . S
N12 C2 1.359 . S
N12 Gd11 2.570 1_655 S
N12 C14 1.343 . S
C13 C1 1.422 1_556 S
C13 C15 1.321 1_556 S
C13 H21 0.931 . S
C14 N12 1.343 . S
C14 C15 1.390 . S
C14 H16 0.931 . S
C15 C13 1.321 1_554 S
C15 C14 1.390 . S
C15 H17 0.930 1_554 S
H16 C14 0.931 . S
H17 C15 0.930 1_556 S
H18 C41 0.931 . S
H19 C7 0.929 . S
H20 C42 0.930 1_554 S
H21 C13 0.931 . S
H22 C3 0.930 1_556 S
H23 C32 0.929 . S
H24 C8 0.931 . S
H25 C9 0.930 . S
H26 C64 0.930 1_554 S
H27 C5 0.929 . S
H28 C33 0.931 . S
H29 C34 0.930 . S
N30 Gd10 2.622 1_565 S
N30 C31 1.369 . S
N30 C32 1.338 . S
C31 N30 1.369 . S
C31 C35 1.415 . S
C31 C38 1.422 1_565 S
C32 H23 0.929 . S
C32 N30 1.338 . S
C32 C34 1.378 . S
C33 H28 0.931 . S
C33 C34 1.348 . S
C33 C35 1.413 . S
C34 H29 0.930 . S
C34 C32 1.378 . S
C34 C33 1.348 . S
C35 C31 1.415 . S
C35 C33 1.413 . S
C35 C65 1.437 . S
H36 C65 0.929 . S
N37 Gd10 2.570 . S
N37 C38 1.359 . S
N37 C41 1.343 . S
C38 C31 1.422 1_545 S
C38 N37 1.359 . S
C38 C40 1.421 . S
C39 C40 1.422 1_554 S
C39 C42 1.321 1_554 S
C39 H66 0.931 . S
C40 C38 1.421 . S
C40 C39 1.422 1_556 S
C40 C64 1.417 1_545 S
C41 H18 0.931 . S
C41 N37 1.343 . S
C41 C42 1.390 . S
C42 H20 0.930 1_556 S
C42 C39 1.321 1_556 S
C42 C41 1.390 . S
O43 Gd11 2.386 1_556 S
O43 C55 1.265 . S
O44 Gd10 2.353 . S
O44 C55 1.242 . S
O45 Gd10 2.468 . S
O45 C63 1.263 . S
O46 Gd10 2.427 . S
O46 C63 1.252 . S
O47 Gd11 2.307 . S
O47 C56 1.261 1_554 S
O48 Gd10 2.388 . S
O48 C56 1.252 . S
O49 Gd10 2.386 1_554 S
O49 C67 1.265 . S
O50 Gd11 2.353 . S
O50 C67 1.242 . S
O51 Gd11 2.468 . S
O51 C75 1.263 . S
O52 Gd11 2.427 . S
O52 C75 1.252 . S
O53 Gd10 2.307 . S
O53 C68 1.261 1_556 S
O54 Gd11 2.388 . S
O54 C68 1.252 . S
C55 O43 1.265 . S
C55 O44 1.242 . S
C56 O47 1.261 1_556 S
C56 O48 1.252 . S
C57 C60 1.394 . S
C57 C62 1.370 . S
C57 C63 1.500 . S
C58 C61 1.383 . S
C58 C62 1.395 . S
C59 C60 1.396 1_565 S
C59 C61 1.365 1_565 S
C59 H76 0.929 . S
C60 C57 1.394 . S
C60 C59 1.396 1_545 S
C60 H77 0.930 1_545 S
C61 C58 1.383 . S
C61 C59 1.365 1_545 S
C61 H78 0.931 . S
C62 C57 1.370 . S
C62 C58 1.395 . S
C62 H79 0.930 . S
C63 Gd10 2.805 . S
C63 O45 1.263 . S
C63 O46 1.252 . S
C63 C57 1.500 . S
C64 H26 0.930 1_556 S
C64 C40 1.417 1_565 S
C64 C65 1.329 . S
C65 C35 1.437 . S
C65 H36 0.929 . S
C65 C64 1.329 . S
H66 C39 0.931 . S
C67 O49 1.265 . S
C67 O50 1.242 . S
C68 O53 1.261 1_554 S
C68 O54 1.252 . S
C69 C72 1.394 . S
C69 C74 1.370 . S
C69 C75 1.500 . S
C70 C73 1.383 . S
C70 C74 1.395 1_655 S
C71 C72 1.396 . S
C71 C73 1.365 1_455 S
C71 H80 0.929 . S
C72 C69 1.394 . S
C72 C71 1.396 . S
C72 H81 0.930 . S
C73 C70 1.383 . S
C73 C71 1.365 1_655 S
C73 H82 0.931 . S
C74 C69 1.370 . S
C74 C70 1.395 1_455 S
C74 H83 0.930 . S
C75 Gd11 2.805 . S
C75 O51 1.263 . S
C75 O52 1.252 . S
C75 C69 1.500 . S
H76 C59 0.929 . S
H77 C60 0.930 1_565 S
H78 C61 0.931 . S
H79 C62 0.930 . S
H80 C71 0.929 . S
H81 C72 0.930 . S
H82 C73 0.931 . S
H83 C74 0.930 . S
C84 C86 1.422 1_545 S
C84 C88 1.415 . S
C84 N90 1.369 . S
C85 C86 1.421 . S
C85 C87 1.417 1_565 S
C85 C97 1.422 1_554 S
C86 C84 1.422 1_565 S
C86 C85 1.421 . S
C86 N96 1.359 . S
C87 C85 1.417 1_545 S
C87 C89 1.329 . S
C87 H106 0.930 1_554 S
C88 C84 1.415 . S
C88 C89 1.437 . S
C88 C92 1.413 . S
C89 C87 1.329 . S
C89 C88 1.437 . S
C89 H111 0.929 . S
N90 C84 1.369 . S
N90 C91 1.338 . S
N90 Gd95 2.622 1_545 S
C91 N90 1.338 . S
C91 C93 1.378 . S
C91 H103 0.929 . S
C92 C88 1.413 . S
C92 C93 1.348 . S
C92 H108 0.931 . S
C93 C91 1.378 . S
C93 C92 1.348 . S
C93 H109 0.930 . S
Gd94 N114 2.622 . S
Gd94 N121 2.570 1_655 S
Gd94 O128 2.353 . S
Gd94 O129 2.468 . S
Gd94 O130 2.427 . S
Gd94 O132 2.388 . S
Gd94 O133 2.386 1_556 S
Gd94 O137 2.307 . S
Gd94 C147 2.805 . S
Gd95 N90 2.622 1_565 S
Gd95 N96 2.570 . S
Gd95 O127 2.386 1_554 S
Gd95 O131 2.307 . S
Gd95 O134 2.353 . S
Gd95 O135 2.468 . S
Gd95 O136 2.427 . S
Gd95 O138 2.388 . S
Gd95 C159 2.805 . S
N96 C86 1.359 . S
N96 Gd95 2.570 . S
N96 C98 1.343 . S
C97 C85 1.422 1_556 S
C97 C99 1.321 1_556 S
C97 H105 0.931 . S
C98 N96 1.343 . S
C98 C99 1.390 . S
C98 H100 0.931 . S
C99 C97 1.321 1_554 S
C99 C98 1.390 . S
C99 H101 0.930 1_554 S
H100 C98 0.931 . S
H101 C99 0.930 1_556 S
H102 C125 0.931 . S
H103 C91 0.929 . S
H104 C126 0.930 1_554 S
H105 C97 0.931 . S
H106 C87 0.930 1_556 S
H107 C116 0.929 . S
H108 C92 0.931 . S
H109 C93 0.930 . S
H110 C148 0.930 1_554 S
H111 C89 0.929 . S
H112 C117 0.931 . S
H113 C118 0.930 . S
N114 Gd94 2.622 . S
N114 C115 1.369 . S
N114 C116 1.338 . S
C115 N114 1.369 . S
C115 C119 1.415 1_655 S
C115 C122 1.422 1_655 S
C116 H107 0.929 . S
C116 N114 1.338 . S
C116 C118 1.378 . S
C117 H112 0.931 . S
C117 C118 1.348 . S
C117 C119 1.413 1_655 S
C118 H113 0.930 . S
C118 C116 1.378 . S
C118 C117 1.348 . S
C119 C115 1.415 1_455 S
C119 C117 1.413 1_455 S
C119 C149 1.437 . S
H120 C149 0.929 . S
N121 Gd94 2.570 1_455 S
N121 C122 1.359 . S
N121 C125 1.343 . S
C122 C115 1.422 1_455 S
C122 N121 1.359 . S
C122 C124 1.421 . S
C123 C124 1.422 1_554 S
C123 C126 1.321 1_554 S
C123 H150 0.931 . S
C124 C122 1.421 . S
C124 C123 1.422 1_556 S
C124 C148 1.417 . S
C125 H102 0.931 . S
C125 N121 1.343 . S
C125 C126 1.390 . S
C126 H104 0.930 1_556 S
C126 C123 1.321 1_556 S
C126 C125 1.390 . S
O127 Gd95 2.386 1_556 S
O127 C139 1.265 . S
O128 Gd94 2.353 . S
O128 C139 1.242 . S
O129 Gd94 2.468 . S
O129 C147 1.263 . S
O130 Gd94 2.427 . S
O130 C147 1.252 . S
O131 Gd95 2.307 . S
O131 C140 1.261 1_554 S
O132 Gd94 2.388 . S
O132 C140 1.252 . S
O133 Gd94 2.386 1_554 S
O133 C151 1.265 . S
O134 Gd95 2.353 . S
O134 C151 1.242 . S
O135 Gd95 2.468 . S
O135 C159 1.263 . S
O136 Gd95 2.427 . S
O136 C159 1.252 . S
O137 Gd94 2.307 . S
O137 C152 1.261 1_556 S
O138 Gd95 2.388 . S
O138 C152 1.252 . S
C139 O127 1.265 . S
C139 O128 1.242 . S
C140 O131 1.261 1_556 S
C140 O132 1.252 . S
C141 C144 1.394 . S
C141 C146 1.370 . S
C141 C147 1.500 . S
C142 C145 1.383 . S
C142 C146 1.395 1_455 S
C143 C144 1.396 . S
C143 C145 1.365 1_655 S
C143 H160 0.929 . S
C144 C141 1.394 . S
C144 C143 1.396 . S
C144 H161 0.930 . S
C145 C142 1.383 . S
C145 C143 1.365 1_455 S
C145 H162 0.931 . S
C146 C141 1.370 . S
C146 C142 1.395 1_655 S
C146 H163 0.930 . S
C147 Gd94 2.805 . S
C147 O129 1.263 . S
C147 O130 1.252 . S
C147 C141 1.500 . S
C148 H110 0.930 1_556 S
C148 C124 1.417 . S
C148 C149 1.329 . S
C149 C119 1.437 . S
C149 H120 0.929 . S
C149 C148 1.329 . S
H150 C123 0.931 . S
C151 O133 1.265 . S
C151 O134 1.242 . S
C152 O137 1.261 1_554 S
C152 O138 1.252 . S
C153 C156 1.394 . S
C153 C158 1.370 . S
C153 C159 1.500 . S
C154 C157 1.383 . S
C154 C158 1.395 . S
C155 C156 1.396 1_545 S
C155 C157 1.365 1_545 S
C155 H164 0.929 . S
C156 C153 1.394 . S
C156 C155 1.396 1_565 S
C156 H165 0.930 1_565 S
C157 C154 1.383 . S
C157 C155 1.365 1_565 S
C157 H166 0.931 . S
C158 C153 1.370 . S
C158 C154 1.395 . S
C158 H167 0.930 . S
C159 Gd95 2.805 . S
C159 O135 1.263 . S
C159 O136 1.252 . S
C159 C153 1.500 . S
H160 C143 0.929 . S
H161 C144 0.930 . S
H162 C145 0.931 . S
H163 C146 0.930 . S
H164 C155 0.929 . S
H165 C156 0.930 1_545 S
H166 C157 0.931 . S
H167 C158 0.930 . S
C168 C170 1.422 1_455 S
C168 C172 1.415 1_455 S
C168 N174 1.369 . S
C169 C170 1.421 . S
C169 C171 1.417 . S
C169 C181 1.422 . S
C170 C168 1.422 1_655 S
C170 C169 1.421 . S
C170 N180 1.359 . S
C171 C169 1.417 . S
C171 C173 1.329 . S
C171 H190 0.930 . S
C172 C168 1.415 1_655 S
C172 C173 1.437 . S
C172 C176 1.413 1_655 S
C173 C171 1.329 . S
C173 C172 1.437 . S
C173 H195 0.929 . S
N174 C168 1.369 . S
N174 C175 1.338 . S
N174 Gd179 2.622 . S
C175 N174 1.338 . S
C175 C177 1.378 . S
C175 H187 0.929 . S
C176 C172 1.413 1_455 S
C176 C177 1.348 . S
C176 H192 0.931 . S
C177 C175 1.378 . S
C177 C176 1.348 . S
C177 H193 0.930 . S
Gd178 N198 2.622 1_565 S
Gd178 N205 2.570 . S
Gd178 O212 2.353 . S
Gd178 O213 2.468 . S
Gd178 O214 2.427 . S
Gd178 O216 2.388 . S
Gd178 O217 2.386 . S
Gd178 O221 2.307 . S
Gd178 C231 2.805 . S
Gd179 N174 2.622 . S
Gd179 N180 2.570 1_455 S
Gd179 O211 2.386 . S
Gd179 O215 2.307 . S
Gd179 O218 2.353 . S
Gd179 O219 2.468 . S
Gd179 O220 2.427 . S
Gd179 O222 2.388 . S
Gd179 C243 2.805 . S
N180 C170 1.359 . S
N180 Gd179 2.570 1_655 S
N180 C182 1.343 . S
C181 C169 1.422 . S
C181 C183 1.321 . S
C181 H189 0.931 . S
C182 N180 1.343 . S
C182 C183 1.390 . S
C182 H184 0.931 . S
C183 C181 1.321 . S
C183 C182 1.390 . S
C183 H185 0.930 . S
H184 C182 0.931 . S
H185 C183 0.930 . S
H186 C209 0.931 . S
H187 C175 0.929 . S
H188 C210 0.930 . S
H189 C181 0.931 . S
H190 C171 0.930 . S
H191 C200 0.929 . S
H192 C176 0.931 . S
H193 C177 0.930 . S
H194 C232 0.930 . S
H195 C173 0.929 . S
H196 C201 0.931 . S
H197 C202 0.930 . S
N198 Gd178 2.622 1_545 S
N198 C199 1.369 . S
N198 C200 1.338 . S
C199 N198 1.369 . S
C199 C203 1.415 . S
C199 C206 1.422 1_545 S
C200 H191 0.929 . S
C200 N198 1.338 . S
C200 C202 1.378 . S
C201 H196 0.931 . S
C201 C202 1.348 . S
C201 C203 1.413 . S
C202 H197 0.930 . S
C202 C200 1.378 . S
C202 C201 1.348 . S
C203 C199 1.415 . S
C203 C201 1.413 . S
C203 C233 1.437 . S
H204 C233 0.929 . S
N205 Gd178 2.570 . S
N205 C206 1.359 . S
N205 C209 1.343 . S
C206 C199 1.422 1_565 S
C206 N205 1.359 . S
C206 C208 1.421 . S
C207 C208 1.422 . S
C207 C210 1.321 . S
C207 H234 0.931 . S
C208 C206 1.421 . S
C208 C207 1.422 . S
C208 C232 1.417 1_565 S
C209 H186 0.931 . S
C209 N205 1.343 . S
C209 C210 1.390 . S
C210 H188 0.930 . S
C210 C207 1.321 . S
C210 C209 1.390 . S
O211 Gd179 2.386 . S
O211 C223 1.265 . S
O212 Gd178 2.353 . S
O212 C223 1.242 . S
O213 Gd178 2.468 . S
O213 C231 1.263 . S
O214 Gd178 2.427 . S
O214 C231 1.252 . S
O215 Gd179 2.307 . S
O215 C224 1.261 . S
O216 Gd178 2.388 . S
O216 C224 1.252 . S
O217 Gd178 2.386 . S
O217 C235 1.265 . S
O218 Gd179 2.353 . S
O218 C235 1.242 . S
O219 Gd179 2.468 . S
O219 C243 1.263 . S
O220 Gd179 2.427 . S
O220 C243 1.252 . S
O221 Gd178 2.307 . S
O221 C236 1.261 . S
O222 Gd179 2.388 . S
O222 C236 1.252 . S
C223 O211 1.265 . S
C223 O212 1.242 . S
C224 O215 1.261 . S
C224 O216 1.252 . S
C225 C228 1.394 . S
C225 C230 1.370 . S
C225 C231 1.500 . S
C226 C229 1.383 . S
C226 C230 1.395 . S
C227 C228 1.396 1_545 S
C227 C229 1.365 1_545 S
C227 H244 0.929 . S
C228 C225 1.394 . S
C228 C227 1.396 1_565 S
C228 H245 0.930 1_565 S
C229 C226 1.383 . S
C229 C227 1.365 1_565 S
C229 H246 0.931 . S
C230 C225 1.370 . S
C230 C226 1.395 . S
C230 H247 0.930 . S
C231 Gd178 2.805 . S
C231 O213 1.263 . S
C231 O214 1.252 . S
C231 C225 1.500 . S
C232 H194 0.930 . S
C232 C208 1.417 1_545 S
C232 C233 1.329 . S
C233 C203 1.437 . S
C233 H204 0.929 . S
C233 C232 1.329 . S
H234 C207 0.931 . S
C235 O217 1.265 . S
C235 O218 1.242 . S
C236 O221 1.261 . S
C236 O222 1.252 . S
C237 C240 1.394 . S
C237 C242 1.370 . S
C237 C243 1.500 . S
C238 C241 1.383 . S
C238 C242 1.395 1_655 S
C239 C240 1.396 . S
C239 C241 1.365 1_455 S
C239 H248 0.929 . S
C240 C237 1.394 . S
C240 C239 1.396 . S
C240 H249 0.930 . S
C241 C238 1.383 . S
C241 C239 1.365 1_655 S
C241 H250 0.931 . S
C242 C237 1.370 . S
C242 C238 1.395 1_455 S
C242 H251 0.930 . S
C243 Gd179 2.805 . S
C243 O219 1.263 . S
C243 O220 1.252 . S
C243 C237 1.500 . S
H244 C227 0.929 . S
H245 C228 0.930 1_545 S
H246 C229 0.931 . S
H247 C230 0.930 . S
H248 C239 0.929 . S
H249 C240 0.930 . S
H250 C241 0.931 . S
H251 C242 0.930 . S
C252 C254 1.422 1_565 S
C252 C256 1.415 . S
C252 N258 1.369 . S
C253 C254 1.421 . S
C253 C255 1.417 1_545 S
C253 C265 1.422 . S
C254 C252 1.422 1_545 S
C254 C253 1.421 . S
C254 N264 1.359 . S
C255 C253 1.417 1_565 S
C255 C257 1.329 . S
C255 H274 0.930 . S
C256 C252 1.415 . S
C256 C257 1.437 . S
C256 C260 1.413 . S
C257 C255 1.329 . S
C257 C256 1.437 . S
C257 H279 0.929 . S
N258 C252 1.369 . S
N258 C259 1.338 . S
N258 Gd263 2.622 1_565 S
C259 N258 1.338 . S
C259 C261 1.378 . S
C259 H271 0.929 . S
C260 C256 1.413 . S
C260 C261 1.348 . S
C260 H276 0.931 . S
C261 C259 1.378 . S
C261 C260 1.348 . S
C261 H277 0.930 . S
Gd262 N282 2.622 . S
Gd262 N289 2.570 1_655 S
Gd262 O296 2.353 . S
Gd262 O297 2.468 . S
Gd262 O298 2.427 . S
Gd262 O300 2.388 . S
Gd262 O301 2.386 . S
Gd262 O305 2.307 . S
Gd262 C315 2.805 . S
Gd263 N258 2.622 1_545 S
Gd263 N264 2.570 . S
Gd263 O295 2.386 . S
Gd263 O299 2.307 . S
Gd263 O302 2.353 . S
Gd263 O303 2.468 . S
Gd263 O304 2.427 . S
Gd263 O306 2.388 . S
Gd263 C327 2.805 . S
N264 C254 1.359 . S
N264 Gd263 2.570 . S
N264 C266 1.343 . S
C265 C253 1.422 . S
C265 C267 1.321 . S
C265 H273 0.931 . S
C266 N264 1.343 . S
C266 C267 1.390 . S
C266 H268 0.931 . S
C267 C265 1.321 . S
C267 C266 1.390 . S
C267 H269 0.930 . S
H268 C266 0.931 . S
H269 C267 0.930 . S
H270 C293 0.931 . S
H271 C259 0.929 . S
H272 C294 0.930 . S
H273 C265 0.931 . S
H274 C255 0.930 . S
H275 C284 0.929 . S
H276 C260 0.931 . S
H277 C261 0.930 . S
H278 C316 0.930 . S
H279 C257 0.929 . S
H280 C285 0.931 . S
H281 C286 0.930 . S
N282 Gd262 2.622 . S
N282 C283 1.369 . S
N282 C284 1.338 . S
C283 N282 1.369 . S
C283 C287 1.415 1_655 S
C283 C290 1.422 1_655 S
C284 H275 0.929 . S
C284 N282 1.338 . S
C284 C286 1.378 . S
C285 H280 0.931 . S
C285 C286 1.348 . S
C285 C287 1.413 1_655 S
C286 H281 0.930 . S
C286 C284 1.378 . S
C286 C285 1.348 . S
C287 C283 1.415 1_455 S
C287 C285 1.413 1_455 S
C287 C317 1.437 . S
H288 C317 0.929 . S
N289 Gd262 2.570 1_455 S
N289 C290 1.359 . S
N289 C293 1.343 . S
C290 C283 1.422 1_455 S
C290 N289 1.359 . S
C290 C292 1.421 . S
C291 C292 1.422 . S
C291 C294 1.321 . S
C291 H318 0.931 . S
C292 C290 1.421 . S
C292 C291 1.422 . S
C292 C316 1.417 . S
C293 H270 0.931 . S
C293 N289 1.343 . S
C293 C294 1.390 . S
C294 H272 0.930 . S
C294 C291 1.321 . S
C294 C293 1.390 . S
O295 Gd263 2.386 . S
O295 C307 1.265 . S
O296 Gd262 2.353 . S
O296 C307 1.242 . S
O297 Gd262 2.468 . S
O297 C315 1.263 . S
O298 Gd262 2.427 . S
O298 C315 1.252 . S
O299 Gd263 2.307 . S
O299 C308 1.261 . S
O300 Gd262 2.388 . S
O300 C308 1.252 . S
O301 Gd262 2.386 . S
O301 C319 1.265 . S
O302 Gd263 2.353 . S
O302 C319 1.242 . S
O303 Gd263 2.468 . S
O303 C327 1.263 . S
O304 Gd263 2.427 . S
O304 C327 1.252 . S
O305 Gd262 2.307 . S
O305 C320 1.261 . S
O306 Gd263 2.388 . S
O306 C320 1.252 . S
C307 O295 1.265 . S
C307 O296 1.242 . S
C308 O299 1.261 . S
C308 O300 1.252 . S
C309 C312 1.394 . S
C309 C314 1.370 . S
C309 C315 1.500 . S
C310 C313 1.383 . S
C310 C314 1.395 1_455 S
C311 C312 1.396 . S
C311 C313 1.365 1_655 S
C311 H328 0.929 . S
C312 C309 1.394 . S
C312 C311 1.396 . S
C312 H329 0.930 . S
C313 C310 1.383 . S
C313 C311 1.365 1_455 S
C313 H330 0.931 . S
C314 C309 1.370 . S
C314 C310 1.395 1_655 S
C314 H331 0.930 . S
C315 Gd262 2.805 . S
C315 O297 1.263 . S
C315 O298 1.252 . S
C315 C309 1.500 . S
C316 H278 0.930 . S
C316 C292 1.417 . S
C316 C317 1.329 . S
C317 C287 1.437 . S
C317 H288 0.929 . S
C317 C316 1.329 . S
H318 C291 0.931 . S
C319 O301 1.265 . S
C319 O302 1.242 . S
C320 O305 1.261 . S
C320 O306 1.252 . S
C321 C324 1.394 . S
C321 C326 1.370 . S
C321 C327 1.500 . S
C322 C325 1.383 . S
C322 C326 1.395 . S
C323 C324 1.396 1_565 S
C323 C325 1.365 1_565 S
C323 H332 0.929 . S
C324 C321 1.394 . S
C324 C323 1.396 1_545 S
C324 H333 0.930 1_545 S
C325 C322 1.383 . S
C325 C323 1.365 1_545 S
C325 H334 0.931 . S
C326 C321 1.370 . S
C326 C322 1.395 . S
C326 H335 0.930 . S
C327 Gd263 2.805 . S
C327 O303 1.263 . S
C327 O304 1.252 . S
C327 C321 1.500 . S
H328 C311 0.929 . S
H329 C312 0.930 . S
H330 C313 0.931 . S
H331 C314 0.930 . S
H332 C323 0.929 . S
H333 C324 0.930 1_565 S
H334 C325 0.931 . S
H335 C326 0.930 . S
C336 C337 1.363 . S
C336 C342 1.379 . S
C336 N344 1.356 . S
C337 C336 1.363 . S
C337 C343 1.363 1_556 S
C338 C339 1.363 . S
C338 C343 1.379 . S
C338 N345 1.356 . S
C339 C338 1.363 . S
C339 C342 1.363 1_554 S
N340 C342 1.356 . S
N340 H352 0.984 . S
N340 H353 0.985 . S
N341 C343 1.356 . S
N341 H346 0.984 . S
N341 H347 0.985 . S
C342 C336 1.379 . S
C342 C339 1.363 1_556 S
C342 N340 1.356 . S
C343 C337 1.363 1_554 S
C343 C338 1.379 . S
C343 N341 1.356 . S
N344 C336 1.356 . S
N344 H350 0.984 . S
N344 H351 0.984 . S
N345 C338 1.356 . S
N345 H348 0.984 . S
N345 H349 0.985 . S
H346 N341 0.984 . S
H347 N341 0.985 . S
H348 N345 0.984 . S
H349 N345 0.985 . S
H350 N344 0.984 . S
H351 N344 0.984 . S
H352 N340 0.984 . S
H353 N340 0.985 . S
C354 C355 1.363 . S
C354 C360 1.379 . S
C354 N362 1.356 . S
C355 C354 1.363 . S
C355 C361 1.363 . S
C356 C357 1.363 . S
C356 C361 1.379 . S
C356 N363 1.356 . S
C357 C356 1.363 . S
C357 C360 1.363 . S
N358 C360 1.356 . S
N358 H370 0.984 . S
N358 H371 0.985 . S
N359 C361 1.356 . S
N359 H364 0.984 . S
N359 H365 0.985 . S
C360 C354 1.379 . S
C360 C357 1.363 . S
C360 N358 1.356 . S
C361 C355 1.363 . S
C361 C356 1.379 . S
C361 N359 1.356 . S
N362 C354 1.356 . S
N362 H368 0.984 . S
N362 H369 0.984 . S
N363 C356 1.356 . S
N363 H366 0.984 . S
N363 H367 0.985 . S
H364 N359 0.984 . S
H365 N359 0.985 . S
H366 N363 0.984 . S
H367 N363 0.985 . S
H368 N362 0.984 . S
H369 N362 0.984 . S
H370 N358 0.984 . S
H371 N358 0.985 . S
C372 C373 1.363 1_554 S
C372 C378 1.379 1_445 S
C372 N380 1.356 . S
C373 C372 1.363 1_556 S
C373 C379 1.363 . S
C374 C375 1.363 1_556 S
C374 C379 1.379 1_665 S
C374 N381 1.356 . S
C375 C374 1.363 1_554 S
C375 C378 1.363 . S
N376 C378 1.356 . S
N376 H388 0.984 . S
N376 H389 0.985 . S
N377 C379 1.356 . S
N377 H382 0.984 . S
N377 H383 0.985 . S
C378 C372 1.379 1_665 S
C378 C375 1.363 . S
C378 N376 1.356 . S
C379 C373 1.363 . S
C379 C374 1.379 1_445 S
C379 N377 1.356 . S
N380 C372 1.356 . S
N380 H386 0.984 . S
N380 H387 0.984 . S
N381 C374 1.356 . S
N381 H384 0.984 . S
N381 H385 0.985 . S
H382 N377 0.984 . S
H383 N377 0.985 . S
H384 N381 0.984 . S
H385 N381 0.985 . S
H386 N380 0.984 . S
H387 N380 0.984 . S
H388 N376 0.984 . S
H389 N376 0.985 . S
C390 C391 1.363 . S
C390 C396 1.379 1_645 S
C390 N398 1.356 . S
C391 C390 1.363 . S
C391 C397 1.363 . S
C392 C393 1.363 . S
C392 C397 1.379 1_465 S
C392 N399 1.356 . S
C393 C392 1.363 . S
C393 C396 1.363 . S
N394 C396 1.356 . S
N394 H406 0.984 . S
N394 H407 0.985 . S
N395 C397 1.356 . S
N395 H400 0.984 . S
N395 H401 0.985 . S
C396 C390 1.379 1_465 S
C396 C393 1.363 . S
C396 N394 1.356 . S
C397 C391 1.363 . S
C397 C392 1.379 1_645 S
C397 N395 1.356 . S
N398 C390 1.356 . S
N398 H404 0.984 1_545 S
N398 H405 0.984 . S
N399 C392 1.356 . S
N399 H402 0.984 . S
N399 H403 0.985 1_565 S
H400 N395 0.984 . S
H401 N395 0.985 . S
H402 N399 0.984 . S
H403 N399 0.985 1_545 S
H404 N398 0.984 1_565 S
H405 N398 0.984 . S
H406 N394 0.984 . S
H407 N394 0.985 . S
C408 C409 1.363 . S
C408 C414 1.379 . S
C408 N416 1.356 . S
C409 C408 1.363 . S
C409 C415 1.363 . S
C410 C411 1.363 . S
C410 C415 1.379 . S
C410 N417 1.356 . S
C411 C410 1.363 . S
C411 C414 1.363 . S
N412 C414 1.356 . S
N412 H424 0.984 . S
N412 H425 0.985 . S
N413 C415 1.356 . S
N413 H418 0.984 . S
N413 H419 0.985 . S
C414 C408 1.379 . S
C414 C411 1.363 . S
C414 N412 1.356 . S
C415 C409 1.363 . S
C415 C410 1.379 . S
C415 N413 1.356 . S
N416 C408 1.356 . S
N416 H422 0.984 . S
N416 H423 0.984 . S
N417 C410 1.356 . S
N417 H420 0.984 . S
N417 H421 0.985 . S
H418 N413 0.984 . S
H419 N413 0.985 . S
H420 N417 0.984 . S
H421 N417 0.985 . S
H422 N416 0.984 . S
H423 N416 0.984 . S
H424 N412 0.984 . S
H425 N412 0.985 . S
C426 C427 1.363 . S
C426 C432 1.379 . S
C426 N434 1.356 . S
C427 C426 1.363 . S
C427 C433 1.363 . S
C428 C429 1.363 . S
C428 C433 1.379 . S
C428 N435 1.356 . S
C429 C428 1.363 . S
C429 C432 1.363 . S
N430 C432 1.356 . S
N430 H442 0.984 . S
N430 H443 0.985 . S
N431 C433 1.356 . S
N431 H436 0.984 . S
N431 H437 0.985 . S
C432 C426 1.379 . S
C432 C429 1.363 . S
C432 N430 1.356 . S
C433 C427 1.363 . S
C433 C428 1.379 . S
C433 N431 1.356 . S
N434 C426 1.356 . S
N434 H440 0.984 1_565 S
N434 H441 0.984 . S
N435 C428 1.356 . S
N435 H438 0.984 . S
N435 H439 0.985 . S
H436 N431 0.984 . S
H437 N431 0.985 . S
H438 N435 0.984 . S
H439 N435 0.985 . S
H440 N434 0.984 1_545 S
H441 N434 0.984 . S
H442 N430 0.984 . S
H443 N430 0.985 . S
C444 C445 1.363 . S
C444 C450 1.379 . S
C444 N452 1.356 . S
C445 C444 1.363 . S
C445 C451 1.363 . S
C446 C447 1.363 . S
C446 C451 1.379 . S
C446 N453 1.356 . S
C447 C446 1.363 . S
C447 C450 1.363 . S
N448 C450 1.356 . S
N448 H460 0.984 . S
N448 H461 0.985 . S
N449 C451 1.356 . S
N449 H454 0.984 . S
N449 H455 0.985 . S
C450 C444 1.379 . S
C450 C447 1.363 . S
C450 N448 1.356 . S
C451 C445 1.363 . S
C451 C446 1.379 . S
C451 N449 1.356 . S
N452 C444 1.356 . S
N452 H458 0.984 . S
N452 H459 0.984 . S
N453 C446 1.356 . S
N453 H456 0.984 . S
N453 H457 0.985 . S
H454 N449 0.984 . S
H455 N449 0.985 . S
H456 N453 0.984 . S
H457 N453 0.985 . S
H458 N452 0.984 . S
H459 N452 0.984 . S
H460 N448 0.984 . S
H461 N448 0.985 . S
C462 C463 1.363 . S
C462 C468 1.379 . S
C462 N470 1.356 . S
C463 C462 1.363 . S
C463 C469 1.363 . S
C464 C465 1.363 . S
C464 C469 1.379 . S
C464 N471 1.356 . S
C465 C464 1.363 . S
C465 C468 1.363 . S
N466 C468 1.356 . S
N466 H478 0.984 . S
N466 H479 0.985 . S
N467 C469 1.356 . S
N467 H472 0.984 . S
N467 H473 0.985 . S
C468 C462 1.379 . S
C468 C465 1.363 . S
C468 N466 1.356 . S
C469 C463 1.363 . S
C469 C464 1.379 . S
C469 N467 1.356 . S
N470 C462 1.356 . S
N470 H476 0.984 . S
N470 H477 0.984 . S
N471 C464 1.356 . S
N471 H474 0.984 . S
N471 H475 0.985 . S
H472 N467 0.984 . S
H473 N467 0.985 . S
H474 N471 0.984 . S
H475 N471 0.985 . S
H476 N470 0.984 . S
H477 N470 0.984 . S
H478 N466 0.984 . S
H479 N466 0.985 . S
C480 C481 1.363 . S
C480 C486 1.379 . S
C480 N488 1.356 . S
C481 C480 1.363 . S
C481 C487 1.363 . S
C482 C483 1.363 . S
C482 C487 1.379 . S
C482 N489 1.356 . S
C483 C482 1.363 . S
C483 C486 1.363 . S
N484 C486 1.356 1_455 S
N484 H496 0.984 . S
N484 H497 0.985 . S
N485 C487 1.356 . S
N485 H490 0.984 . S
N485 H491 0.985 . S
C486 C480 1.379 . S
C486 C483 1.363 . S
C486 N484 1.356 1_655 S
C487 C481 1.363 . S
C487 C482 1.379 . S
C487 N485 1.356 . S
N488 C480 1.356 . S
N488 H494 0.984 1_655 S
N488 H495 0.984 . S
N489 C482 1.356 . S
N489 H492 0.984 . S
N489 H493 0.985 . S
H490 N485 0.984 . S
H491 N485 0.985 . S
H492 N489 0.984 . S
H493 N489 0.985 . S
H494 N488 0.984 1_455 S
H495 N488 0.984 . S
H496 N484 0.984 . S
H497 N484 0.985 . S
C498 C499 1.363 . S
C498 C504 1.379 . S
C498 N506 1.356 . S
C499 C498 1.363 . S
C499 C505 1.363 . S
C500 C501 1.363 . S
C500 C505 1.379 . S
C500 N507 1.356 . S
C501 C500 1.363 . S
C501 C504 1.363 . S
N502 C504 1.356 1_455 S
N502 H514 0.984 . S
N502 H515 0.985 . S
N503 C505 1.356 . S
N503 H508 0.984 . S
N503 H509 0.985 . S
C504 C498 1.379 . S
C504 C501 1.363 . S
C504 N502 1.356 1_655 S
C505 C499 1.363 . S
C505 C500 1.379 . S
C505 N503 1.356 . S
N506 C498 1.356 . S
N506 H512 0.984 . S
N506 H513 0.984 . S
N507 C500 1.356 . S
N507 H510 0.984 . S
N507 H511 0.985 . S
H508 N503 0.984 . S
H509 N503 0.985 . S
H510 N507 0.984 . S
H511 N507 0.985 . S
H512 N506 0.984 . S
H513 N506 0.984 . S
H514 N502 0.984 . S
H515 N502 0.985 . S
C516 C517 1.363 . S
C516 C522 1.379 . S
C516 N524 1.356 . S
C517 C516 1.363 . S
C517 C523 1.363 . S
C518 C519 1.363 . S
C518 C523 1.379 . S
C518 N525 1.356 . S
C519 C518 1.363 . S
C519 C522 1.363 . S
N520 C522 1.356 . S
N520 H532 0.984 . S
N520 H533 0.985 . S
N521 C523 1.356 1_655 S
N521 H526 0.984 . S
N521 H527 0.985 . S
C522 C516 1.379 . S
C522 C519 1.363 . S
C522 N520 1.356 . S
C523 C517 1.363 . S
C523 C518 1.379 . S
C523 N521 1.356 1_455 S
N524 C516 1.356 . S
N524 H530 0.984 . S
N524 H531 0.984 . S
N525 C518 1.356 . S
N525 H528 0.984 . S
N525 H529 0.985 1_455 S
H526 N521 0.984 . S
H527 N521 0.985 . S
H528 N525 0.984 . S
H529 N525 0.985 1_655 S
H530 N524 0.984 . S
H531 N524 0.984 . S
H532 N520 0.984 . S
H533 N520 0.985 . S
C534 C535 1.363 . S
C534 C540 1.379 . S
C534 N542 1.356 . S
C535 C534 1.363 . S
C535 C541 1.363 . S
C536 C537 1.363 . S
C536 C541 1.379 . S
C536 N543 1.356 . S
C537 C536 1.363 . S
C537 C540 1.363 . S
N538 C540 1.356 . S
N538 H550 0.984 . S
N538 H551 0.985 . S
N539 C541 1.356 . S
N539 H544 0.984 . S
N539 H545 0.985 . S
C540 C534 1.379 . S
C540 C537 1.363 . S
C540 N538 1.356 . S
C541 C535 1.363 . S
C541 C536 1.379 . S
C541 N539 1.356 . S
N542 C534 1.356 . S
N542 H548 0.984 . S
N542 H549 0.984 . S
N543 C536 1.356 . S
N543 H546 0.984 1_455 S
N543 H547 0.985 1_455 S
H544 N539 0.984 . S
H545 N539 0.985 . S
H546 N543 0.984 1_655 S
H547 N543 0.985 1_655 S
H548 N542 0.984 . S
H549 N542 0.984 . S
H550 N538 0.984 . S
H551 N538 0.985 . S
C337 C140 1.538 . S
C339 C68 1.538 . S
C355 C236 1.538 . S
C357 C308 1.538 . S
C373 C56 1.538 . S
C375 C152 1.538 . S
C391 C320 1.538 . S
C393 C224 1.538 . S
C409 C322 1.336 . S
C411 C67 1.389 . S
C427 C154 1.336 . S
C429 C235 1.389 . S
C445 C139 1.391 . S
C447 C226 1.338 . S
C463 C307 1.391 . S
C465 C58 1.338 . S
C481 C151 1.391 . S
C483 C238 1.335 . S
C499 C319 1.391 . S
C501 C70 1.335 . S
C517 C310 1.336 . S
C519 C55 1.393 . S
C535 C223 1.391 . S
C537 C142 1.338 . S
