# Generated by pormake.
# Topology fnu, (5)-cn, num edge types: 1
# Building blocks:
#     Node 0, Type 0, BuildingBlock: XOMCOT_clean_sbu_0, # of connection points: 5
#     Node 1, Type 0, BuildingBlock: XOMCOT_clean_sbu_0, # of connection points: 5
#     Node 2, Type 0, BuildingBlock: XOMCOT_clean_sbu_0, # of connection points: 5
#     Node 3, Type 0, BuildingBlock: XOMCOT_clean_sbu_0, # of connection points: 5
#     Node 4, Type 0, BuildingBlock: XOMCOT_clean_sbu_0, # of connection points: 5
#     Node 5, Type 0, BuildingBlock: XOMCOT_clean_sbu_0, # of connection points: 5
#     Edge 6, Type (0, 0), BuildingBlock: ZUJKAS_clean_linker_0, # of connection points: 2
#     Edge 7, Type (0, 0), BuildingBlock: ZUJKAS_clean_linker_0, # of connection points: 2
#     Edge 8, Type (0, 0), BuildingBlock: ZUJKAS_clean_linker_0, # of connection points: 2
#     Edge 9, Type (0, 0), BuildingBlock: ZUJKAS_clean_linker_0, # of connection points: 2
#     Edge 10, Type (0, 0), BuildingBlock: ZUJKAS_clean_linker_0, # of connection points: 2
#     Edge 11, Type (0, 0), BuildingBlock: ZUJKAS_clean_linker_0, # of connection points: 2
#     Edge 12, Type (0, 0), BuildingBlock: ZUJKAS_clean_linker_0, # of connection points: 2
#     Edge 13, Type (0, 0), BuildingBlock: ZUJKAS_clean_linker_0, # of connection points: 2
#     Edge 14, Type (0, 0), BuildingBlock: ZUJKAS_clean_linker_0, # of connection points: 2
#     Edge 15, Type (0, 0), BuildingBlock: ZUJKAS_clean_linker_0, # of connection points: 2
#     Edge 16, Type (0, 0), BuildingBlock: ZUJKAS_clean_linker_0, # of connection points: 2
#     Edge 17, Type (0, 0), BuildingBlock: ZUJKAS_clean_linker_0, # of connection points: 2
#     Edge 18, Type (0, 0), BuildingBlock: ZUJKAS_clean_linker_0, # of connection points: 2
#     Edge 19, Type (0, 0), BuildingBlock: ZUJKAS_clean_linker_0, # of connection points: 2
#     Edge 20, Type (0, 0), BuildingBlock: ZUJKAS_clean_linker_0, # of connection points: 2
# Relax obj value: 0.167
# Max RMSD: 0.129
# Mean RMSD: 0.129
data_MOF--net-fnu--node1-XOMCOT_clean_sbu_0--edge1-ZUJKAS_clean_linker_0
_symmetry_space_group_name_H-M    P1
_symmetry_Int_Tables_number       1
_symmetry_cell_setting            triclinic
loop_
_symmetry_equiv_pos_as_xyz
'x, y, z'
_cell_length_a     33.85793
_cell_length_b     36.169997
_cell_length_c     41.889791
_cell_angle_alpha  89.92149
_cell_angle_beta   98.869159
_cell_angle_gamma 122.38714
loop_
_atom_site_label
_atom_site_type_symbol
_atom_site_fract_x
_atom_site_fract_y
_atom_site_fract_z
_atom_type_partial_charge
Co0 Co 0.07786 0.03568 0.24531 0.0
C1 C 0.07343 0.03468 0.31618 0.0
C2 C 0.14365 0.07958 0.30656 0.0
C3 C 0.14517 0.08262 0.33945 0.0
N4 N 0.09885 0.04949 0.2919 0.0
N5 N 0.10104 0.05465 0.3457 0.0
H6 H 1.03547 1.0108 0.31221 0.0
H7 H 0.17326 0.09872 0.29419 0.0
C8 C 0.1579 0.03776 0.21854 0.0
O9 O 0.12607 1.00178 0.19949 0.0
N10 N 0.05787 1.0235 0.19864 0.0
C11 C 1.02352 0.98579 0.18047 0.0
C12 C 1.03158 0.98918 0.14909 0.0
C13 C 0.08414 0.05014 0.17765 0.0
N14 N 0.07004 0.02943 0.14764 0.0
C15 C 1.0058 0.94542 0.24923 0.0
C16 C 0.05966 0.90999 0.24486 0.0
C17 C 1.00979 0.8819 0.23791 0.0
C18 C 0.98319 0.89999 0.24258 0.0
C19 C 0.08093 0.95556 0.25185 0.0
N20 N 0.05364 0.97313 0.2502 0.0
H21 H 0.98367 0.95822 0.25032 0.0
H22 H 0.11917 0.97645 0.25706 0.0
H23 H 0.99663 0.95645 0.18922 0.0
H24 H 0.11701 0.08172 0.18515 0.0
O25 O 1.02052 0.03473 0.24803 0.0
O26 O 0.08808 0.09383 0.24107 0.0
O27 O 0.14485 0.05238 0.24001 0.0
C28 C 0.04347 0.07598 0.24286 0.0
H29 H 0.1767 0.10395 0.35736 0.0
H30 H 1.01328 0.96288 0.12957 0.0
H31 H 0.08204 0.89741 0.24318 0.0
H32 H 0.94476 0.87949 0.23937 0.0
Co33 Co 1.02116 0.04692 0.76786 0.0
C34 C 1.02318 0.03451 0.69783 0.0
C35 C 0.95251 1.0086 0.70668 0.0
C36 C 0.95014 1.00181 0.67396 0.0
N37 N 0.99817 0.02879 0.72174 0.0
N38 N 0.9945 1.01808 0.66828 0.0
H39 H 0.06141 0.05027 0.70198 0.0
H40 H 0.92285 1.00004 0.71848 0.0
C41 C 0.94293 0.98008 0.80252 0.0
O42 O 0.9758 0.98269 0.82544 0.0
N43 N 0.04401 0.06623 0.81364 0.0
C44 C 1.02397 0.07927 0.83248 0.0
C45 C 0.05244 0.0952 0.86259 0.0
C46 C 0.08514 0.0757 0.83223 0.0
N47 N 0.09096 0.09299 0.86238 0.0
C48 C 0.0914 1.02472 0.77089 0.0
C49 C 1.03629 0.93837 0.78397 0.0
C50 C 0.0857 0.95801 0.78754 0.0
C51 C 0.11286 1.00124 0.7794 0.0
C52 C 1.01608 0.963 0.77478 0.0
N53 N 0.04418 1.00687 0.77114 0.0
H54 H 0.11398 0.05853 0.76626 0.0
H55 H 0.978 0.94655 0.77117 0.0
H56 H 0.99082 0.07725 0.82478 0.0
H57 H 0.11095 0.07119 0.82394 0.0
O58 O 0.07835 0.1 0.75945 0.0
O59 O 1.01182 0.0955 0.76348 0.0
O60 O 0.95491 1.00086 0.77725 0.0
C61 C 0.05638 0.12021 0.76081 0.0
H62 H 0.91822 0.98711 0.6556 0.0
H63 H 0.04454 0.10635 0.88324 0.0
H64 H 1.01346 0.90432 0.78842 0.0
H65 H 0.15099 1.01779 0.78118 0.0
Co66 Co 0.73728 0.38037 0.57869 0.0
C67 C 0.73338 0.36526 0.64865 0.0
C68 C 0.8049 0.40416 0.63976 0.0
C69 C 0.80656 0.39999 0.67248 0.0
N70 N 0.75912 0.38221 0.62469 0.0
N71 N 0.76168 0.3756 0.67823 0.0
H72 H 0.69491 0.34609 0.64455 0.0
H73 H 0.83531 0.42307 0.62808 0.0
C74 C 0.81376 0.39024 0.54361 0.0
O75 O 0.77974 0.36006 0.52113 0.0
N76 N 0.71611 0.38036 0.53303 0.0
C77 C 0.67552 0.35092 0.51276 0.0
C78 C 0.67389 0.36884 0.48398 0.0
C79 C 0.73783 0.4159 0.51651 0.0
N80 N 0.71306 0.4099 0.48643 0.0
C81 C 0.66486 0.28816 0.56996 0.0
C82 C 0.7217 0.25599 0.56546 0.0
C83 C 0.67198 0.22637 0.55843 0.0
C84 C 0.64378 0.24322 0.56183 0.0
C85 C 0.74142 0.30108 0.57351 0.0
N86 N 0.71289 0.31716 0.57339 0.0
H87 H 0.64176 0.29976 0.57169 0.0
H88 H 0.77958 0.32278 0.57948 0.0
H89 H 0.64798 0.31919 0.51821 0.0
H90 H 0.7707 0.44601 0.52694 0.0
O91 O 0.68049 0.37659 0.58729 0.0
O92 O 0.7483 0.43871 0.58532 0.0
O93 O 0.8031 0.39976 0.56921 0.0
C94 C 0.70354 0.41912 0.58734 0.0
H95 H 0.83856 0.41524 0.69079 0.0
H96 H 0.64583 0.35257 0.46295 0.0
H97 H 0.74529 0.24455 0.56472 0.0
H98 H 0.60535 0.22228 0.55699 0.0
Co99 Co 0.7102 0.3562 0.10524 0.0
C100 C 0.7023 0.34654 0.03347 0.0
C101 C 0.63409 0.31783 0.04747 0.0
C102 C 0.62767 0.31393 0.01411 0.0
N103 N 0.68084 0.3381 0.05971 0.0
N104 N 0.67054 0.33215 1.00516 0.0
H105 H 0.74043 0.36428 0.03503 0.0
H106 H 0.6064 0.30753 0.06163 0.0
C107 C 0.63574 0.29686 0.14593 0.0
O108 O 0.67002 0.30628 0.17038 0.0
N109 N 0.74114 0.37624 0.15011 0.0
C110 C 0.78442 0.38448 0.16332 0.0
C111 C 0.80113 0.41155 0.19165 0.0
C112 C 0.73238 0.39869 0.17059 0.0
N113 N 0.76842 0.42051 0.19593 0.0
C114 C 0.77338 0.32935 0.09422 0.0
C115 C 0.73335 0.25372 0.12561 0.0
C116 C 0.77871 0.27044 0.11815 0.0
C117 C 0.79751 0.30776 0.1008 0.0
C118 C 0.71023 0.27612 0.1183 0.0
N119 N 0.73164 0.31519 0.10476 0.0
H120 H 0.79018 0.35929 0.08248 0.0
H121 H 0.67587 0.26214 0.1247 0.0
H122 H 0.80433 0.37443 0.15223 0.0
H123 H 0.70161 0.40124 0.16599 0.0
O124 O 0.76561 0.40903 0.09426 0.0
O125 O 0.70126 0.40496 0.10391 0.0
O126 O 0.64596 0.31075 0.11819 0.0
C127 C 0.74461 0.42951 0.09872 0.0
H128 H 0.59382 0.29897 0.99776 0.0
H129 H 0.83517 0.42458 0.20745 0.0
H130 H 0.71649 0.22463 0.13843 0.0
H131 H 0.83144 0.32119 0.0932 0.0
Co132 Co 0.38618 0.73091 0.90873 0.0
C133 C 0.3876 0.71955 0.97961 0.0
C134 C 0.45764 0.75895 0.96825 0.0
C135 C 0.46172 0.7573 1.00128 0.0
N136 N 0.41126 0.73528 0.95451 0.0
N137 N 0.41776 0.73283 0.00865 0.0
H138 H 0.34922 0.70013 0.97675 0.0
H139 H 0.48683 0.77728 0.95539 0.0
C140 C 0.46168 0.73975 0.87232 0.0
O141 O 0.42777 0.70838 0.85046 0.0
N142 N 0.36134 0.72809 0.86335 0.0
C143 C 0.31588 0.70254 0.84751 0.0
C144 C 0.31122 0.71926 0.81867 0.0
C145 C 0.38325 0.76043 0.84414 0.0
N146 N 0.35362 0.75563 0.81677 0.0
C147 C 0.31457 0.63862 0.90185 0.0
C148 C 0.37099 0.60708 0.89359 0.0
C149 C 0.32127 0.57794 0.88633 0.0
C150 C 0.2933 0.59406 0.89217 0.0
C151 C 0.39092 0.65186 0.90321 0.0
N152 N 0.36246 0.66779 0.90452 0.0
H153 H 0.29172 0.64978 0.90572 0.0
H154 H 0.42911 0.67357 0.90869 0.0
H155 H 0.28692 0.67554 0.85684 0.0
H156 H 0.41945 0.78841 0.85095 0.0
O157 O 0.33019 0.72713 0.91911 0.0
O158 O 0.39645 0.78913 0.91416 0.0
O159 O 0.45114 0.75041 0.89748 0.0
C160 C 0.35228 0.76942 0.91778 0.0
H161 H 0.49482 0.77329 0.01855 0.0
H162 H 0.27898 0.70625 0.8008 0.0
H163 H 0.39425 0.59587 0.89065 0.0
H164 H 0.25492 0.57251 0.88864 0.0
Co165 Co 0.37164 0.69584 0.43764 0.0
C166 C 0.36602 0.68574 0.36609 0.0
C167 C 0.29697 0.65513 0.37907 0.0
C168 C 0.29147 0.65031 0.34579 0.0
N169 N 0.34367 0.67709 0.39192 0.0
N170 N 0.33483 0.66957 0.33749 0.0
H171 H 0.40426 0.70382 0.36819 0.0
H172 H 0.26862 0.64435 0.39269 0.0
C173 C 0.29604 0.63639 0.47749 0.0
O174 O 0.32985 0.64499 0.50208 0.0
N175 N 0.40096 0.71633 0.48278 0.0
C176 C 0.44187 0.72151 0.49831 0.0
C177 C 0.4564 0.74704 0.52718 0.0
C178 C 0.39167 0.73932 0.50227 0.0
N179 N 0.42499 0.75852 0.52944 0.0
C180 C 0.43632 0.66952 0.42995 0.0
C181 C 0.39314 0.59278 0.45986 0.0
C182 C 0.43978 0.61017 0.45474 0.0
C183 C 0.46023 0.64798 0.438 0.0
C184 C 0.37031 0.61517 0.45113 0.0
N185 N 0.39326 0.65487 0.43857 0.0
H186 H 0.45424 0.69979 0.41873 0.0
H187 H 0.33481 0.60062 0.45558 0.0
H188 H 0.46158 0.70988 0.48886 0.0
H189 H 0.3615 0.74257 0.49626 0.0
O190 O 0.42754 0.74854 0.42698 0.0
O191 O 0.36249 0.74442 0.43494 0.0
O192 O 0.30686 0.6508 0.44998 0.0
C193 C 0.40611 0.76893 0.43028 0.0
H194 H 0.25799 0.63511 0.32897 0.0
H195 H 0.48868 0.75782 0.54448 0.0
H196 H 0.37495 0.56317 0.47195 0.0
H197 H 0.49523 0.66186 0.43204 0.0
H198 H 0.23294 0.11999 0.24624 0.0
H199 H 0.31246 0.16354 0.23196 0.0
H200 H 0.27484 0.0582 0.16131 0.0
H201 H 0.19588 1.01459 0.17544 0.0
H202 H 0.36405 0.09232 0.19919 0.0
H203 H 0.34723 0.22612 0.14881 0.0
H204 H 0.33442 0.21565 0.18913 0.0
H205 H 0.29666 0.17414 0.15587 0.0
C206 C 0.24169 0.10594 0.22785 0.0
C207 C 0.20777 0.06354 0.21218 0.0
C208 C 0.2871 0.1311 0.21944 0.0
C209 C 0.29969 0.11454 0.19516 0.0
C210 C 0.26619 0.07194 0.18 0.0
H211 H 0.55191 0.26721 0.10209 0.0
H212 H 0.46996 0.22214 0.1123 0.0
C213 C 0.22089 0.04691 0.18825 0.0
C214 C 0.3479 0.1409 0.18589 0.0
H215 H 0.42389 0.23696 0.15539 0.0
C216 C 0.37703 0.12392 0.18959 0.0
C217 C 0.36471 0.18172 0.17259 0.0
C218 C 0.33406 0.20044 0.16601 0.0
C219 C 0.42267 0.14699 0.18128 0.0
C220 C 0.44045 0.18881 0.16939 0.0
C221 C 0.41077 0.20523 0.16479 0.0
C222 C 0.49022 0.21639 0.16275 0.0
C223 C 0.45115 0.12591 0.18494 0.0
C224 C 0.5292 0.22884 0.18764 0.0
C225 C 0.57586 0.25433 0.18185 0.0
C226 C 0.58528 0.26861 0.15098 0.0
C227 C 0.54624 0.25664 0.12607 0.0
C228 C 0.49928 0.23095 0.13193 0.0
H229 H 0.42781 0.08957 0.18439 0.0
H230 H 0.47256 0.13384 0.16546 0.0
H231 H 0.47577 0.13841 0.2087 0.0
H232 H 0.52358 0.21914 0.21183 0.0
H233 H 0.60468 0.26313 0.20187 0.0
H234 H 0.08106 0.16178 0.22923 0.0
H235 H 1.03775 0.19694 0.21056 0.0
H236 H 0.90531 0.07688 0.21755 0.0
H237 H 0.94834 0.04218 0.23707 0.0
H238 H 0.97387 0.17669 0.15683 0.0
H239 H 0.88694 0.16291 0.2616 0.0
H240 H 0.93396 0.15283 0.26366 0.0
H241 H 0.87362 0.11052 0.24612 0.0
C242 C 1.0428 0.14318 0.22744 0.0
C243 C 1.01831 0.09925 0.23499 0.0
C244 C 1.01799 0.16326 0.21658 0.0
C245 C 0.96811 0.13994 0.21302 0.0
C246 C 0.94376 0.09618 0.22087 0.0
H247 H 0.74672 0.18312 0.12539 0.0
H248 H 0.79311 0.15255 0.14808 0.0
C249 C 0.96852 0.07623 0.23194 0.0
C250 C 0.94135 0.16034 0.19936 0.0
H251 H 0.85626 0.17977 0.21232 0.0
C252 C 0.94853 0.17771 0.16919 0.0
C253 C 0.90806 0.16179 0.21529 0.0
C254 C 0.90052 0.14643 0.2486 0.0
C255 C 0.92277 0.19538 0.1543 0.0
C256 C 0.88893 0.19601 0.16995 0.0
C257 C 0.88189 0.17896 0.20017 0.0
C258 C 0.8609 0.21469 0.15553 0.0
C259 C 0.93115 0.21244 0.12153 0.0
C260 C 0.88343 0.2599 0.15225 0.0
C261 C 0.85694 0.27769 0.13966 0.0
C262 C 0.8071 0.2507 0.12986 0.0
C263 C 0.78478 0.20524 0.13295 0.0
C264 C 0.81132 0.18755 0.14581 0.0
H265 H 0.95107 0.20166 0.10977 0.0
H266 H 0.89684 0.20117 0.10516 0.0
H267 H 0.95217 0.24894 0.12453 0.0
H268 H 0.92152 0.28166 0.16006 0.0
H269 H 0.87558 0.31291 0.13851 0.0
H270 H 0.71368 0.47942 0.12015 0.0
H271 H 0.7619 0.55675 0.14202 0.0
H272 H 0.88658 0.56717 0.11806 0.0
H273 H 0.83851 0.48965 0.0961 0.0
H274 H 0.84078 0.59314 0.19448 0.0
H275 H 0.89263 0.67684 0.08291 0.0
H276 H 0.8433 0.62061 0.0816 0.0
H277 H 0.90322 0.63351 0.08959 0.0
C278 C 0.75113 0.49835 0.11874 0.0
C279 C 0.77203 0.47825 0.106 0.0
C280 C 0.77878 0.54257 0.13156 0.0
C281 C 0.82792 0.568 0.13166 0.0
C282 C 0.84867 0.54851 0.11792 0.0
H283 H 1.03137 0.81937 0.25351 0.0
H284 H 0.99001 0.74326 0.22866 0.0
C285 C 0.82105 0.50413 0.10525 0.0
C286 C 0.85756 0.61408 0.14759 0.0
H287 H 0.92761 0.72166 0.1328 0.0
C288 C 0.85989 0.62124 0.18101 0.0
C289 C 0.88239 0.65082 0.13005 0.0
C290 C 0.88016 0.64536 0.094 0.0
C291 C 0.88614 0.66399 0.19726 0.0
C292 C 0.91112 0.70075 0.17974 0.0
C293 C 0.90886 0.69355 0.14634 0.0
C294 C 0.93713 0.74701 0.19508 0.0
C295 C 0.88579 0.66957 0.23287 0.0
C296 C 0.9219 0.77482 0.1842 0.0
C297 C 0.94539 0.81814 0.19829 0.0
C298 C 0.98511 0.83515 0.22362 0.0
C299 C 1.00093 0.80747 0.23417 0.0
C300 C 0.97707 0.76381 0.22012 0.0
H301 H 0.85773 0.63885 0.24134 0.0
H302 H 0.92074 0.67872 0.24719 0.0
H303 H 0.8801 0.69633 0.23798 0.0
H304 H 0.89147 0.76289 0.1648 0.0
H305 H 0.93273 0.83861 0.18891 0.0
H306 H 0.15035 0.17973 0.75869 0.0
H307 H 0.19775 0.25817 0.77794 0.0
H308 H 0.07172 0.24992 0.79656 0.0
H309 H 1.02407 0.17143 0.77747 0.0
H310 H 0.19184 0.33141 0.75933 0.0
H311 H 0.1626 0.29658 0.88563 0.0
H312 H 0.14969 0.25464 0.85499 0.0
H313 H 0.10916 0.27218 0.85556 0.0
C314 C 0.13248 0.19473 0.76629 0.0
C315 C 0.08329 0.16912 0.76649 0.0
C316 C 0.15974 0.23963 0.77744 0.0
C317 C 0.13857 0.25989 0.78935 0.0
C318 C 0.08909 0.23493 0.78808 0.0
H319 H 0.2457 0.53436 0.83634 0.0
H320 H 0.20486 0.4582 0.81302 0.0
C321 C 0.06175 0.19007 0.77679 0.0
C322 C 0.16839 0.30662 0.80402 0.0
H323 H 0.20193 0.37151 0.87487 0.0
C324 C 0.19411 0.34013 0.7846 0.0
C325 C 0.17216 0.31812 0.83719 0.0
C326 C 0.14734 0.28355 0.85972 0.0
C327 C 0.22217 0.38474 0.79716 0.0
C328 C 0.22456 0.39634 0.83001 0.0
C329 C 0.19996 0.36274 0.84967 0.0
C330 C 0.25076 0.4432 0.844 0.0
C331 C 0.24931 0.4192 0.7752 0.0
C332 C 0.29009 0.46032 0.86955 0.0
C333 C 0.31376 0.50422 0.88303 0.0
C334 C 0.29796 0.5316 0.87164 0.0
C335 C 0.25858 0.51418 0.84603 0.0
C336 C 0.23536 0.47065 0.83241 0.0
H337 H 0.25331 0.40471 0.75351 0.0
H338 H 0.22976 0.43513 0.76673 0.0
H339 H 0.28518 0.44508 0.7884 0.0
H340 H 0.3025 0.43972 0.87904 0.0
H341 H 0.34372 0.5164 0.90281 0.0
H342 H 0.49981 0.71288 0.8319 0.0
H343 H 0.58074 0.75286 0.82068 0.0
H344 H 0.61779 0.8624 0.88692 0.0
H345 H 0.53736 0.82146 0.89943 0.0
H346 H 0.62901 0.82297 0.79362 0.0
H347 H 0.7287 0.85482 0.9186 0.0
H348 H 0.66491 0.81863 0.90892 0.0
H349 H 0.69242 0.87734 0.91506 0.0
C350 C 0.52535 0.74526 0.84446 0.0
C351 C 0.51198 0.76365 0.86688 0.0
C352 C 0.5718 0.76831 0.83789 0.0
C353 C 0.60634 0.81071 0.85324 0.0
C354 C 0.59282 0.82933 0.87541 0.0
H355 H 0.8681 0.98676 0.77433 0.0
H356 H 0.78699 0.947 0.78579 0.0
C357 C 0.5465 0.80591 0.88246 0.0
C358 C 0.65564 0.83553 0.84513 0.0
H359 H 0.77426 0.89424 0.87858 0.0
C360 C 0.6607 0.8383 0.8123 0.0
C361 C 0.69754 0.85528 0.86921 0.0
C362 C 0.69569 0.851 0.90487 0.0
C363 C 0.70575 0.86003 0.80295 0.0
C364 C 0.74767 0.88138 0.82705 0.0
C365 C 0.74258 0.87849 0.85988 0.0
C366 C 0.79704 0.90554 0.81906 0.0
C367 C 0.70758 0.85835 0.76725 0.0
C368 C 0.83091 0.8969 0.83439 0.0
C369 C 0.87767 0.92044 0.82845 0.0
C370 C 0.89206 0.95309 0.80666 0.0
C371 C 0.85813 0.96138 0.79085 0.0
C372 C 0.81146 0.93835 0.7973 0.0
H373 H 0.67431 0.82964 0.75329 0.0
H374 H 0.71152 0.88849 0.75755 0.0
H375 H 0.738 0.85642 0.76295 0.0
H376 H 0.82128 0.87194 0.85123 0.0
H377 H 0.90271 0.9131 0.84112 0.0
H378 H 0.15745 0.95581 0.76637 0.0
H379 H 0.20084 0.92324 0.79118 0.0
H380 H 0.11233 0.87596 0.86413 0.0
H381 H 0.06878 0.90863 0.8395 0.0
H382 H 0.21605 0.92344 0.88821 0.0
H383 H 0.15127 0.78919 0.79091 0.0
H384 H 0.17295 0.84311 0.77774 0.0
H385 H 0.12019 0.81626 0.79534 0.0
C386 C 0.14697 0.93827 0.78759 0.0
C387 C 0.10941 0.93475 0.80083 0.0
C388 C 0.17173 0.91949 0.80168 0.0
C389 C 0.15978 0.89693 0.82947 0.0
C390 C 0.12214 0.89307 0.84265 0.0
H391 H 0.25664 0.73204 0.91353 0.0
H392 H 0.21042 0.76411 0.89459 0.0
C393 C 0.09699 0.91146 0.82836 0.0
C394 C 0.1873 0.87832 0.84513 0.0
H395 H 0.21342 0.80079 0.83285 0.0
C396 C 0.21538 0.89654 0.87615 0.0
C397 C 0.1863 0.84307 0.82952 0.0
C398 C 0.15583 0.82139 0.79664 0.0
C399 C 0.24301 0.88097 0.89166 0.0
C400 C 0.24264 0.84623 0.87579 0.0
C401 C 0.21393 0.82755 0.845 0.0
C402 C 0.27149 0.8285 0.89063 0.0
C403 C 0.27207 0.90144 0.92507 0.0
C404 C 0.32145 0.85418 0.89535 0.0
C405 C 0.34813 0.83586 0.90619 0.0
C406 C 0.32542 0.79146 0.91264 0.0
C407 C 0.27548 0.76643 0.90915 0.0
C408 C 0.24888 0.78464 0.89809 0.0
H409 H 0.26127 0.92149 0.93665 0.0
H410 H 0.2686 0.87568 0.94101 0.0
H411 H 0.31015 0.9232 0.92319 0.0
H412 H 0.33976 0.88794 0.8894 0.0
H413 H 0.38641 0.85598 0.90818 0.0
H414 H 0.89402 0.46252 0.57988 0.0
H415 H 0.97511 0.50378 0.56806 0.0
H416 H 0.92846 0.41441 0.48263 0.0
H417 H 0.84786 0.37302 0.49431 0.0
H418 H 1.01364 0.43219 0.51815 0.0
H419 H 1.02229 0.58765 0.49709 0.0
H420 H 1.00771 0.56775 0.53561 0.0
H421 H 0.9672 0.53637 0.49883 0.0
C422 C 0.90104 0.4515 0.55866 0.0
C423 C 0.86407 0.41433 0.53807 0.0
C424 C 0.94745 0.47541 0.55174 0.0
C425 C 0.95805 0.46279 0.52408 0.0
C426 C 0.92142 0.42513 0.504 0.0
H427 H 0.21421 0.61836 0.4362 0.0
H428 H 0.13203 0.57561 0.44619 0.0
C429 C 0.87514 0.4014 0.51078 0.0
C430 C 1.00715 0.4882 0.51605 0.0
H431 H 0.09343 0.58932 0.49753 0.0
C432 C 1.03099 0.46654 0.51365 0.0
C433 C 1.02982 0.53291 0.50956 0.0
C434 C 1.0054 0.55756 0.51007 0.0
C435 C 0.07684 0.48838 0.50568 0.0
C436 C 0.10012 0.53345 0.50017 0.0
C437 C 0.07593 0.55491 0.5019 0.0
C438 C 0.14999 0.55902 0.49357 0.0
C439 C 0.09975 0.46275 0.5028 0.0
C440 C 0.18774 0.56434 0.5168 0.0
C441 C 0.2346 0.58872 0.51117 0.0
C442 C 0.24532 0.60864 0.48209 0.0
C443 C 0.20745 0.60325 0.45872 0.0
C444 C 0.16039 0.57895 0.4645 0.0
H445 H 0.073 0.42674 0.49887 0.0
H446 H 0.11989 0.4727 0.48249 0.0
H447 H 0.12502 0.46941 0.52562 0.0
H448 H 0.18108 0.5501 0.53965 0.0
H449 H 0.26256 0.59218 0.52992 0.0
H450 H 0.74042 0.50652 0.57985 0.0
H451 H 0.69637 0.54085 0.5611 0.0
H452 H 0.56408 0.41723 0.56098 0.0
H453 H 0.6078 0.3832 0.58055 0.0
H454 H 0.63754 0.52125 0.50474 0.0
H455 H 0.53611 0.4979 0.60275 0.0
H456 H 0.58483 0.48989 0.60755 0.0
H457 H 0.52647 0.44711 0.58697 0.0
C458 C 0.70198 0.48697 0.57678 0.0
C459 C 0.67777 0.44214 0.58208 0.0
C460 C 0.67675 0.50658 0.56578 0.0
C461 C 0.6267 0.48192 0.55985 0.0
C462 C 0.60256 0.43747 0.56607 0.0
H463 H 0.40772 0.52272 0.46163 0.0
H464 H 0.45318 0.4924 0.48689 0.0
C465 C 0.62775 0.41793 0.57725 0.0
C466 C 0.59983 0.5016 0.54482 0.0
H467 H 0.51005 0.51676 0.5526 0.0
C468 C 0.61002 0.52061 0.51545 0.0
C469 C 0.56359 0.50074 0.55853 0.0
C470 C 0.55241 0.48321 0.59084 0.0
C471 C 0.58459 0.53786 0.49923 0.0
C472 C 0.54802 0.53644 0.51273 0.0
C473 C 0.53784 0.5176 0.5421 0.0
C474 C 0.52049 0.55496 0.49696 0.0
C475 C 0.59635 0.55666 0.46735 0.0
C476 C 0.543 0.60032 0.49432 0.0
C477 C 0.51702 0.61792 0.48022 0.0
C478 C 0.46771 0.59063 0.46823 0.0
C479 C 0.44536 0.54504 0.4708 0.0
C480 C 0.47139 0.52752 0.48515 0.0
H481 H 0.61782 0.54672 0.45676 0.0
H482 H 0.56337 0.54595 0.44955 0.0
H483 H 0.61719 0.59311 0.47132 0.0
H484 H 0.58065 0.62231 0.50375 0.0
H485 H 0.53556 0.65322 0.47956 0.0
H486 H 0.49855 0.82972 0.42429 0.0
H487 H 0.54635 0.90806 0.44452 0.0
H488 H 0.42351 0.89641 0.47304 0.0
H489 H 0.37548 0.81852 0.45268 0.0
H490 H 0.52824 0.98119 0.42989 0.0
H491 H 0.52967 0.94125 0.55814 0.0
H492 H 0.51682 0.9023 0.52499 0.0
H493 H 0.47269 0.91315 0.53154 0.0
C494 C 0.48143 0.84406 0.43418 0.0
C495 C 0.43303 0.81774 0.43665 0.0
C496 C 0.50889 0.88882 0.4459 0.0
C497 C 0.48869 0.908 0.46071 0.0
C498 C 0.43999 0.88227 0.46199 0.0
H499 H 0.58848 0.15417 0.57088 0.0
H500 H 0.5467 0.07859 0.54657 0.0
C501 C 0.41245 0.83774 0.45003 0.0
C502 C 0.51865 0.95435 0.47592 0.0
H503 H 0.5638 1.01615 0.54933 0.0
C504 C 0.53633 0.98895 0.456 0.0
C505 C 0.5289 0.96439 0.50999 0.0
C506 C 0.51141 0.92846 0.53257 0.0
C507 C 0.56281 0.03331 0.46914 0.0
C508 C 0.57341 0.04354 0.50334 0.0
C509 C 0.55605 1.00868 0.5232 0.0
C510 C 0.60057 0.08994 0.51894 0.0
C511 C 0.57738 0.06861 0.44606 0.0
C512 C 0.64573 0.12188 0.51245 0.0
C513 C 0.66953 0.16573 0.52591 0.0
C514 C 0.64914 0.17876 0.54666 0.0
C515 C 0.60501 0.14608 0.55438 0.0
C516 C 0.58109 0.10246 0.54066 0.0
H517 H 0.55501 0.05536 0.42149 0.0
H518 H 0.57479 0.09593 0.45513 0.0
H519 H 0.61478 0.08213 0.44356 0.0
H520 H 0.6625 0.11307 0.49666 0.0
H521 H 0.70328 0.18964 0.51921 0.0
H522 H 0.94135 0.95845 0.61598 0.0
H523 H 0.95969 0.96204 0.56149 0.0
H524 H 0.09448 0.08354 0.59377 0.0
H525 H 0.07643 0.07967 0.64865 0.0
H526 H 0.97325 1.02184 0.51988 0.0
H527 H 0.13613 1.01764 0.54615 0.0
H528 H 0.09778 1.00517 0.57542 0.0
H529 H 0.14057 0.06143 0.5698 0.0
C530 C 0.97503 0.98586 0.61157 0.0
C531 C 1.00739 1.01882 0.63677 0.0
C532 C 0.98554 0.98784 0.58033 0.0
C533 C 1.02871 1.0228 0.57335 0.0
C534 C 0.0614 0.05561 0.59855 0.0
H535 H 0.1468 0.11326 0.39954 0.0
H536 H 0.1271 0.10296 0.45363 0.0
C537 C 0.05104 0.05345 0.62998 0.0
C538 C 1.03819 1.02568 0.5394 0.0
H539 H 0.11835 0.03607 0.49353 0.0
C540 C 1.00482 1.02458 0.51413 0.0
C541 C 0.07929 0.02915 0.53168 0.0
C542 C 0.11526 0.02798 0.55713 0.0
C543 C 1.01195 1.02794 0.48173 0.0
C544 C 0.05338 0.03212 0.47415 0.0
C545 C 0.08657 0.03288 0.49931 0.0
C546 C 0.06409 0.03773 0.44057 0.0
C547 C 0.97576 0.02828 0.45596 0.0
C548 C 1.03518 1.00445 0.4149 0.0
C549 C 0.04664 1.01006 0.38363 0.0
C550 C 0.0874 0.04903 0.37742 0.0
C551 C 0.11573 0.08239 0.40325 0.0
C552 C 0.10438 0.0767 0.43434 0.0
H553 H 0.95097 0.03372 0.46661 0.0
H554 H 0.99361 0.05432 0.43967 0.0
H555 H 0.95448 0.99613 0.44096 0.0
H556 H 1.00419 0.9738 0.41917 0.0
H557 H 1.02421 0.98351 0.36457 0.0
H558 H 0.74705 0.3413 0.98356 0.0
H559 H 0.76128 0.34775 0.92751 0.0
H560 H 0.6287 0.33839 0.89568 0.0
H561 H 0.61494 0.3333 0.95134 0.0
H562 H 0.70594 0.28848 0.87215 0.0
H563 H 0.72122 0.44751 0.85569 0.0
H564 H 0.72416 0.42798 0.89511 0.0
H565 H 0.66759 0.40691 0.86906 0.0
C566 C 0.72122 0.34119 0.96472 0.0
C567 C 0.67981 0.33674 0.97222 0.0
C568 C 0.72926 0.34461 0.93261 0.0
C569 C 0.69638 0.34415 0.90731 0.0
C570 C 0.65506 0.33964 0.91473 0.0
H571 H 0.68153 0.36167 0.69715 0.0
H572 H 0.66296 0.35074 0.75216 0.0
C573 C 0.64696 0.33616 0.9467 0.0
C574 C 0.70445 0.3472 0.87306 0.0
H575 H 0.71569 0.40783 0.80831 0.0
C576 C 0.70833 0.31472 0.85827 0.0
C577 C 0.70722 0.38124 0.85473 0.0
C578 C 0.70528 0.41814 0.86949 0.0
C579 C 0.71421 0.31498 0.82568 0.0
C580 C 0.71721 0.34912 0.8074 0.0
C581 C 0.71312 0.3815 0.82215 0.0
C582 C 0.72676 0.35303 0.77349 0.0
C583 C 0.71624 0.27812 0.81094 0.0
C584 C 0.76867 0.35789 0.76701 0.0
C585 C 0.77919 0.36393 0.73567 0.0
C586 C 0.7483 0.36565 0.70988 0.0
C587 C 0.70588 0.36006 0.71625 0.0
C588 C 0.6954 0.35412 0.74777 0.0
H589 H 0.69924 0.2484 0.8243 0.0
H590 H 0.69843 0.26897 0.78507 0.0
H591 H 0.75398 0.28899 0.81221 0.0
H592 H 0.79392 0.358 0.78639 0.0
H593 H 0.81192 0.36764 0.73171 0.0
H594 H 0.27694 0.61509 0.28332 0.0
H595 H 0.29077 0.62397 0.22755 0.0
H596 H 0.42845 0.74202 0.26057 0.0
H597 H 0.41479 0.73335 0.31665 0.0
H598 H 0.30526 0.69104 0.19076 0.0
H599 H 0.46101 0.67548 0.2032 0.0
H600 H 0.42433 0.66049 0.23388 0.0
H601 H 0.46896 0.71726 0.23138 0.0
C602 C 0.31023 0.64302 0.27886 0.0
C603 C 0.34468 0.67356 0.30471 0.0
C604 C 0.31814 0.64796 0.24683 0.0
C605 C 0.36084 0.68341 0.23968 0.0
C606 C 0.39559 0.71382 0.26541 0.0
H607 H 0.47237 0.78385 0.06489 0.0
H608 H 0.45616 0.76978 0.1197 0.0
C609 C 0.38772 0.70884 0.29756 0.0
C610 C 0.36798 0.68918 0.2052 0.0
H611 H 0.44167 0.69922 0.15366 0.0
C612 C 0.33494 0.69254 0.18262 0.0
C613 C 0.4066 0.69106 0.19441 0.0
C614 C 0.44203 0.68547 0.21687 0.0
C615 C 0.34013 0.69885 0.14994 0.0
C616 C 0.37902 0.70118 0.13924 0.0
C617 C 0.41183 0.69745 0.16176 0.0
C618 C 0.3876 0.70931 0.10521 0.0
C619 C 0.3047 0.70434 0.12739 0.0
C620 C 0.35447 0.67998 0.07843 0.0
C621 C 0.36379 0.68785 0.04669 0.0
C622 C 0.40664 0.72506 0.04107 0.0
C623 C 0.4394 0.7544 0.06804 0.0
C624 C 0.43009 0.74653 0.09958 0.0
H625 H 0.28389 0.71215 0.14092 0.0
H626 H 0.32285 0.73086 0.11151 0.0
H627 H 0.27938 0.67321 0.11165 0.0
H628 H 0.32173 0.65057 0.08209 0.0
H629 H 0.33795 0.66432 0.02667 0.0
H630 H 0.10354 0.98346 0.12625 0.0
H631 H 0.15342 1.00274 0.08471 0.0
H632 H 0.15357 0.12174 0.07475 0.0
H633 H 0.10585 0.10322 0.11752 0.0
H634 H 0.12128 1.00378 0.02662 0.0
H635 H 0.2841 0.1667 0.05958 0.0
H636 H 0.24978 0.1349 0.08959 0.0
H637 H 0.23606 0.17077 0.06749 0.0
C638 C 0.11489 1.01392 0.11527 0.0
C639 C 0.10008 0.04144 0.12399 0.0
C640 C 0.14388 1.02525 0.09202 0.0
C641 C 0.15786 0.06397 0.07681 0.0
C642 C 0.14465 0.09239 0.08674 0.0
H643 H 0.11783 0.14673 0.91709 0.0
H644 H 0.1597 0.14392 0.96864 0.0
C645 C 0.11653 0.08147 0.11055 0.0
C646 C 0.17654 0.06995 0.04623 0.0
H647 H 0.2433 0.15194 1.00109 0.0
C648 C 0.14939 0.03566 0.02122 0.0
C649 C 0.2139 0.11114 0.03929 0.0
C650 C 0.24787 0.14767 0.06565 0.0
C651 C 0.15329 0.04331 0.98881 0.0
C652 C 0.18584 0.08648 0.98141 0.0
C653 C 0.21782 0.1191 1.00677 0.0
C654 C 0.17747 0.10026 0.94918 0.0
C655 C 0.11817 1.00641 0.9628 0.0
C656 C 0.17677 0.07945 0.9207 0.0
C657 C 0.15119 0.07972 0.89123 0.0
C658 C 0.127 0.10167 0.88991 0.0
C659 C 0.13422 0.12795 0.91756 0.0
C660 C 0.15902 0.12705 0.947 0.0
H661 H 0.09334 0.97571 0.97306 0.0
H662 H 0.09672 1.01629 0.94676 0.0
H663 H 0.13759 0.99881 0.9477 0.0
H664 H 0.19193 0.05954 0.92178 0.0
H665 H 0.14717 0.05969 0.87033 0.0
H666 H 0.84618 0.49778 0.22404 0.0
H667 H 0.8542 0.53801 0.2743 0.0
H668 H 0.70591 0.44449 0.27685 0.0
H669 H 0.6976 0.40557 0.2262 0.0
H670 H 0.73855 0.52894 0.30438 0.0
H671 H 0.86026 0.47366 0.35208 0.0
H672 H 0.87685 0.51117 0.32131 0.0
H673 H 0.82624 0.45571 0.31148 0.0
C674 C 0.81526 0.48654 0.23516 0.0
C675 C 0.77158 0.44806 0.22201 0.0
C676 C 0.81977 0.50956 0.26365 0.0
C677 C 0.78096 0.49351 0.27968 0.0
C678 C 0.73635 0.45741 0.26488 0.0
H679 H 0.65676 0.40649 0.43113 0.0
H680 H 0.68318 0.44855 0.38532 0.0
C681 C 0.73163 0.43499 0.23611 0.0
C682 C 0.7876 0.50791 0.31413 0.0
H683 H 0.8253 0.48876 0.38866 0.0
C684 C 0.75864 0.52151 0.32303 0.0
C685 C 0.81448 0.49892 0.33848 0.0
C686 C 0.84611 0.48389 0.33057 0.0
C687 C 0.75201 0.52182 0.35526 0.0
C688 C 0.77432 0.50749 0.37876 0.0
C689 C 0.8078 0.49934 0.37056 0.0
C690 C 0.75664 0.49131 0.40926 0.0
C691 C 0.71914 0.53507 0.36335 0.0
C692 C 0.78883 0.5014 0.43829 0.0
C693 C 0.77413 0.47602 0.46424 0.0
C694 C 0.72673 0.44021 0.46178 0.0
C695 C 0.69374 0.43286 0.43373 0.0
C696 C 0.70863 0.45782 0.40764 0.0
H697 H 0.72285 0.56247 0.34925 0.0
H698 H 0.68176 0.50684 0.3564 0.0
H699 H 0.7263 0.54544 0.38964 0.0
H700 H 0.82612 0.52689 0.44003 0.0
H701 H 0.8008 0.48307 0.4853 0.0
H702 H 0.46701 0.77008 0.59204 0.0
H703 H 0.4589 0.80572 0.63753 0.0
H704 H 0.37747 0.84302 0.57204 0.0
H705 H 0.38636 0.80811 0.52595 0.0
H706 H 0.47246 0.89424 0.65412 0.0
H707 H 0.28495 0.74923 0.62868 0.0
H708 H 0.3299 0.74938 0.61042 0.0
H709 H 0.30965 0.7847 0.59744 0.0
C710 C 0.4486 0.78694 0.58709 0.0
C711 C 0.42627 0.78522 0.55548 0.0
C712 C 0.44414 0.80747 0.61313 0.0
C713 C 0.41725 0.82656 0.60805 0.0
C714 C 0.39808 0.82812 0.57635 0.0
H715 H 0.29807 0.77902 0.78129 0.0
H716 H 0.31353 0.81709 0.73187 0.0
C717 C 0.40265 0.80764 0.55017 0.0
C718 C 0.40279 0.83692 0.63641 0.0
H719 H 0.31658 0.78207 0.68167 0.0
C720 C 0.43783 0.87076 0.65996 0.0
C721 C 0.35727 0.80686 0.64362 0.0
C722 C 0.31806 0.77039 0.61885 0.0
C723 C 0.43008 0.87231 0.69174 0.0
C724 C 0.387 0.83821 0.70015 0.0
C725 C 0.34994 0.80792 0.67548 0.0
C726 C 0.38299 0.82705 0.73406 0.0
C727 C 0.46915 0.90899 0.71629 0.0
C728 C 0.41741 0.82121 0.75234 0.0
C729 C 0.40881 0.80005 0.78064 0.0
C730 C 0.36514 0.78328 0.79071 0.0
C731 C 0.33172 0.79115 0.77358 0.0
C732 C 0.34073 0.8132 0.74559 0.0
H733 H 0.48641 0.9405 0.705 0.0
H734 H 0.45562 0.91317 0.73764 0.0
H735 H 0.49693 0.90185 0.7246 0.0
H736 H 0.44951 0.82996 0.74356 0.0
H737 H 0.43488 0.794 0.79336 0.0
loop_
_geom_bond_atom_site_label_1
_geom_bond_atom_site_label_2
_geom_bond_distance
_geom_bond_site_symmetry_2
_ccdc_geom_bond_type
Co0 N4 2.148 . S
Co0 N10 2.128 . S
Co0 N20 2.194 1_445 S
Co0 O25 2.351 1_455 S
Co0 O26 2.155 . S
Co0 O27 2.096 . S
C1 N4 1.301 . S
C1 N5 1.328 . S
C1 H6 0.930 1_455 S
C2 C3 1.333 . S
C2 N4 1.317 . S
C2 H7 0.930 . S
C3 C2 1.333 . S
C3 N5 1.350 . S
C3 H29 0.931 . S
N4 Co0 2.148 . S
N4 C1 1.301 . S
N4 C2 1.317 . S
N5 C1 1.328 . S
N5 C3 1.350 . S
H6 C1 0.930 1_655 S
H7 C2 0.930 . S
C8 O9 1.224 . S
C8 O27 1.247 . S
O9 C8 1.224 . S
N10 Co0 2.128 . S
N10 C11 1.355 1_445 S
N10 C13 1.311 . S
C11 N10 1.355 1_665 S
C11 C12 1.363 . S
C11 H23 0.929 . S
C12 C11 1.363 . S
C12 N14 1.375 1_665 S
C12 H30 0.931 . S
C13 N10 1.311 . S
C13 N14 1.347 . S
C13 H24 0.929 . S
N14 C12 1.375 1_445 S
N14 C13 1.347 . S
C15 C18 1.365 . S
C15 N20 1.328 . S
C15 H21 0.929 . S
C16 C17 1.362 . S
C16 C19 1.378 1_655 S
C16 H31 0.929 1_655 S
C17 C16 1.362 . S
C17 C18 1.366 . S
C18 C15 1.365 . S
C18 C17 1.366 . S
C18 H32 0.930 . S
C19 C16 1.378 1_455 S
C19 N20 1.315 1_455 S
C19 H22 0.930 . S
N20 Co0 2.194 1_665 S
N20 C15 1.328 . S
N20 C19 1.315 1_655 S
H21 C15 0.929 . S
H22 C19 0.930 . S
H23 C11 0.929 . S
H24 C13 0.929 . S
O25 Co0 2.351 1_655 S
O25 C28 1.244 . S
O26 Co0 2.155 . S
O26 C28 1.240 1_455 S
O27 Co0 2.096 . S
O27 C8 1.247 . S
C28 O25 1.244 . S
C28 O26 1.240 1_655 S
H29 C3 0.931 . S
H30 C12 0.931 . S
H31 C16 0.929 1_455 S
H32 C18 0.930 . S
Co33 N37 2.148 1_455 S
Co33 N43 2.128 . S
Co33 N53 2.194 1_545 S
Co33 O58 2.351 . S
Co33 O59 2.155 . S
Co33 O60 2.096 1_445 S
C34 N37 1.301 1_455 S
C34 N38 1.328 1_455 S
C34 H39 0.930 . S
C35 C36 1.333 . S
C35 N37 1.317 1_565 S
C35 H40 0.930 . S
C36 C35 1.333 . S
C36 N38 1.350 1_565 S
C36 H62 0.931 . S
N37 Co33 2.148 1_655 S
N37 C34 1.301 1_655 S
N37 C35 1.317 1_545 S
N38 C34 1.328 1_655 S
N38 C36 1.350 1_545 S
H39 C34 0.930 . S
H40 C35 0.930 . S
C41 O42 1.224 . S
C41 O60 1.247 . S
O42 C41 1.224 . S
N43 Co33 2.128 . S
N43 C44 1.355 . S
N43 C46 1.311 1_455 S
C44 N43 1.355 . S
C44 C45 1.363 . S
C44 H56 0.929 . S
C45 C44 1.363 . S
C45 N47 1.375 . S
C45 H63 0.931 . S
C46 N43 1.311 1_655 S
C46 N47 1.347 1_655 S
C46 H57 0.929 . S
N47 C45 1.375 . S
N47 C46 1.347 1_455 S
C48 C51 1.365 1_545 S
C48 N53 1.328 1_545 S
C48 H54 0.929 . S
C49 C50 1.362 . S
C49 C52 1.378 . S
C49 H64 0.929 . S
C50 C49 1.362 . S
C50 C51 1.366 . S
C51 C48 1.365 1_565 S
C51 C50 1.366 . S
C51 H65 0.930 . S
C52 C49 1.378 . S
C52 N53 1.315 . S
C52 H55 0.930 1_455 S
N53 Co33 2.194 1_565 S
N53 C48 1.328 1_565 S
N53 C52 1.315 . S
H54 C48 0.929 . S
H55 C52 0.930 1_655 S
H56 C44 0.929 . S
H57 C46 0.929 . S
O58 Co33 2.351 . S
O58 C61 1.244 . S
O59 Co33 2.155 . S
O59 C61 1.240 . S
O60 Co33 2.096 1_665 S
O60 C41 1.247 . S
C61 O58 1.244 . S
C61 O59 1.240 . S
H62 C36 0.931 . S
H63 C45 0.931 . S
H64 C49 0.929 . S
H65 C51 0.930 . S
Co66 N70 2.148 . S
Co66 N76 2.128 . S
Co66 N86 2.194 . S
Co66 O91 2.351 . S
Co66 O92 2.155 . S
Co66 O93 2.096 . S
C67 N70 1.301 . S
C67 N71 1.328 . S
C67 H72 0.930 . S
C68 C69 1.333 . S
C68 N70 1.317 . S
C68 H73 0.930 . S
C69 C68 1.333 . S
C69 N71 1.350 . S
C69 H95 0.931 . S
N70 Co66 2.148 . S
N70 C67 1.301 . S
N70 C68 1.317 . S
N71 C67 1.328 . S
N71 C69 1.350 . S
H72 C67 0.930 . S
H73 C68 0.930 . S
C74 O75 1.224 . S
C74 O93 1.247 . S
O75 C74 1.224 . S
N76 Co66 2.128 . S
N76 C77 1.355 . S
N76 C79 1.311 . S
C77 N76 1.355 . S
C77 C78 1.363 . S
C77 H89 0.929 . S
C78 C77 1.363 . S
C78 N80 1.375 . S
C78 H96 0.931 . S
C79 N76 1.311 . S
C79 N80 1.347 . S
C79 H90 0.929 . S
N80 C78 1.375 . S
N80 C79 1.347 . S
C81 C84 1.365 . S
C81 N86 1.328 . S
C81 H87 0.929 . S
C82 C83 1.362 . S
C82 C85 1.378 . S
C82 H97 0.929 . S
C83 C82 1.362 . S
C83 C84 1.366 . S
C84 C81 1.365 . S
C84 C83 1.366 . S
C84 H98 0.930 . S
C85 C82 1.378 . S
C85 N86 1.315 . S
C85 H88 0.930 . S
N86 Co66 2.194 . S
N86 C81 1.328 . S
N86 C85 1.315 . S
H87 C81 0.929 . S
H88 C85 0.930 . S
H89 C77 0.929 . S
H90 C79 0.929 . S
O91 Co66 2.351 . S
O91 C94 1.244 . S
O92 Co66 2.155 . S
O92 C94 1.240 . S
O93 Co66 2.096 . S
O93 C74 1.247 . S
C94 O91 1.244 . S
C94 O92 1.240 . S
H95 C69 0.931 . S
H96 C78 0.931 . S
H97 C82 0.929 . S
H98 C84 0.930 . S
Co99 N103 2.148 . S
Co99 N109 2.128 . S
Co99 N119 2.194 . S
Co99 O124 2.351 . S
Co99 O125 2.155 . S
Co99 O126 2.096 . S
C100 N103 1.301 . S
C100 N104 1.328 . S
C100 H105 0.930 . S
C101 C102 1.333 . S
C101 N103 1.317 . S
C101 H106 0.930 . S
C102 C101 1.333 . S
C102 N104 1.350 . S
C102 H128 0.931 . S
N103 Co99 2.148 . S
N103 C100 1.301 . S
N103 C101 1.317 . S
N104 C100 1.328 . S
N104 C102 1.350 . S
H105 C100 0.930 . S
H106 C101 0.930 . S
C107 O108 1.224 . S
C107 O126 1.247 . S
O108 C107 1.224 . S
N109 Co99 2.128 . S
N109 C110 1.355 . S
N109 C112 1.311 . S
C110 N109 1.355 . S
C110 C111 1.363 . S
C110 H122 0.929 . S
C111 C110 1.363 . S
C111 N113 1.375 . S
C111 H129 0.931 . S
C112 N109 1.311 . S
C112 N113 1.347 . S
C112 H123 0.929 . S
N113 C111 1.375 . S
N113 C112 1.347 . S
C114 C117 1.365 . S
C114 N119 1.328 . S
C114 H120 0.929 . S
C115 C116 1.362 . S
C115 C118 1.378 . S
C115 H130 0.929 . S
C116 C115 1.362 . S
C116 C117 1.366 . S
C117 C114 1.365 . S
C117 C116 1.366 . S
C117 H131 0.930 . S
C118 C115 1.378 . S
C118 N119 1.315 . S
C118 H121 0.930 . S
N119 Co99 2.194 . S
N119 C114 1.328 . S
N119 C118 1.315 . S
H120 C114 0.929 . S
H121 C118 0.930 . S
H122 C110 0.929 . S
H123 C112 0.929 . S
O124 Co99 2.351 . S
O124 C127 1.244 . S
O125 Co99 2.155 . S
O125 C127 1.240 . S
O126 Co99 2.096 . S
O126 C107 1.247 . S
C127 O124 1.244 . S
C127 O125 1.240 . S
H128 C102 0.931 . S
H129 C111 0.931 . S
H130 C115 0.929 . S
H131 C117 0.930 . S
Co132 N136 2.148 . S
Co132 N142 2.128 . S
Co132 N152 2.194 . S
Co132 O157 2.351 . S
Co132 O158 2.155 . S
Co132 O159 2.096 . S
C133 N136 1.301 . S
C133 N137 1.328 . S
C133 H138 0.930 . S
C134 C135 1.333 . S
C134 N136 1.317 . S
C134 H139 0.930 . S
C135 C134 1.333 . S
C135 N137 1.350 . S
C135 H161 0.931 . S
N136 Co132 2.148 . S
N136 C133 1.301 . S
N136 C134 1.317 . S
N137 C133 1.328 . S
N137 C135 1.350 . S
H138 C133 0.930 . S
H139 C134 0.930 . S
C140 O141 1.224 . S
C140 O159 1.247 . S
O141 C140 1.224 . S
N142 Co132 2.128 . S
N142 C143 1.355 . S
N142 C145 1.311 . S
C143 N142 1.355 . S
C143 C144 1.363 . S
C143 H155 0.929 . S
C144 C143 1.363 . S
C144 N146 1.375 . S
C144 H162 0.931 . S
C145 N142 1.311 . S
C145 N146 1.347 . S
C145 H156 0.929 . S
N146 C144 1.375 . S
N146 C145 1.347 . S
C147 C150 1.365 . S
C147 N152 1.328 . S
C147 H153 0.929 . S
C148 C149 1.362 . S
C148 C151 1.378 . S
C148 H163 0.929 . S
C149 C148 1.362 . S
C149 C150 1.366 . S
C150 C147 1.365 . S
C150 C149 1.366 . S
C150 H164 0.930 . S
C151 C148 1.378 . S
C151 N152 1.315 . S
C151 H154 0.930 . S
N152 Co132 2.194 . S
N152 C147 1.328 . S
N152 C151 1.315 . S
H153 C147 0.929 . S
H154 C151 0.930 . S
H155 C143 0.929 . S
H156 C145 0.929 . S
O157 Co132 2.351 . S
O157 C160 1.244 . S
O158 Co132 2.155 . S
O158 C160 1.240 . S
O159 Co132 2.096 . S
O159 C140 1.247 . S
C160 O157 1.244 . S
C160 O158 1.240 . S
H161 C135 0.931 . S
H162 C144 0.931 . S
H163 C148 0.929 . S
H164 C150 0.930 . S
Co165 N169 2.148 . S
Co165 N175 2.128 . S
Co165 N185 2.194 . S
Co165 O190 2.351 . S
Co165 O191 2.155 . S
Co165 O192 2.096 . S
C166 N169 1.301 . S
C166 N170 1.328 . S
C166 H171 0.930 . S
C167 C168 1.333 . S
C167 N169 1.317 . S
C167 H172 0.930 . S
C168 C167 1.333 . S
C168 N170 1.350 . S
C168 H194 0.931 . S
N169 Co165 2.148 . S
N169 C166 1.301 . S
N169 C167 1.317 . S
N170 C166 1.328 . S
N170 C168 1.350 . S
H171 C166 0.930 . S
H172 C167 0.930 . S
C173 O174 1.224 . S
C173 O192 1.247 . S
O174 C173 1.224 . S
N175 Co165 2.128 . S
N175 C176 1.355 . S
N175 C178 1.311 . S
C176 N175 1.355 . S
C176 C177 1.363 . S
C176 H188 0.929 . S
C177 C176 1.363 . S
C177 N179 1.375 . S
C177 H195 0.931 . S
C178 N175 1.311 . S
C178 N179 1.347 . S
C178 H189 0.929 . S
N179 C177 1.375 . S
N179 C178 1.347 . S
C180 C183 1.365 . S
C180 N185 1.328 . S
C180 H186 0.929 . S
C181 C182 1.362 . S
C181 C184 1.378 . S
C181 H196 0.929 . S
C182 C181 1.362 . S
C182 C183 1.366 . S
C183 C180 1.365 . S
C183 C182 1.366 . S
C183 H197 0.930 . S
C184 C181 1.378 . S
C184 N185 1.315 . S
C184 H187 0.930 . S
N185 Co165 2.194 . S
N185 C180 1.328 . S
N185 C184 1.315 . S
H186 C180 0.929 . S
H187 C184 0.930 . S
H188 C176 0.929 . S
H189 C178 0.929 . S
O190 Co165 2.351 . S
O190 C193 1.244 . S
O191 Co165 2.155 . S
O191 C193 1.240 . S
O192 Co165 2.096 . S
O192 C173 1.247 . S
C193 O190 1.244 . S
C193 O191 1.240 . S
H194 C168 0.931 . S
H195 C177 0.931 . S
H196 C181 0.929 . S
H197 C183 0.930 . S
H198 C206 0.929 . S
H199 C208 0.930 . S
H200 C210 0.930 . S
H201 C213 0.929 . S
H202 C216 0.930 . S
H203 C218 0.960 . S
H204 C218 0.960 . S
H205 C218 0.960 . S
C206 H198 0.929 . S
C206 C207 1.377 . S
C206 C208 1.384 . S
C207 C206 1.377 . S
C207 C213 1.390 . S
C208 H199 0.930 . S
C208 C206 1.384 . S
C208 C209 1.372 . S
C209 C208 1.372 . S
C209 C210 1.400 . S
C209 C214 1.490 . S
C210 H200 0.930 . S
C210 C209 1.400 . S
C210 C213 1.386 . S
H211 C227 0.930 . S
H212 C228 0.931 . S
C213 H201 0.929 . S
C213 C207 1.390 . S
C213 C210 1.386 . S
C214 C209 1.490 . S
C214 C216 1.395 . S
C214 C217 1.403 . S
H215 C221 0.930 . S
C216 H202 0.930 . S
C216 C214 1.395 . S
C216 C219 1.403 . S
C217 C214 1.403 . S
C217 C218 1.524 . S
C217 C221 1.400 . S
C218 H203 0.960 . S
C218 H204 0.960 . S
C218 H205 0.960 . S
C218 C217 1.524 . S
C219 C216 1.403 . S
C219 C220 1.392 . S
C219 C223 1.495 . S
C220 C219 1.392 . S
C220 C221 1.385 . S
C220 C222 1.478 . S
C221 H215 0.930 . S
C221 C217 1.400 . S
C221 C220 1.385 . S
C222 C220 1.478 . S
C222 C224 1.381 . S
C222 C228 1.383 . S
C223 C219 1.495 . S
C223 H229 0.959 . S
C223 H230 0.961 . S
C223 H231 0.960 . S
C224 C222 1.381 . S
C224 C225 1.394 . S
C224 H232 0.930 . S
C225 C224 1.394 . S
C225 C226 1.383 . S
C225 H233 0.929 . S
C226 C225 1.383 . S
C226 C227 1.377 . S
C227 H211 0.930 . S
C227 C226 1.377 . S
C227 C228 1.379 . S
C228 H212 0.931 . S
C228 C222 1.383 . S
C228 C227 1.379 . S
H229 C223 0.959 . S
H230 C223 0.961 . S
H231 C223 0.960 . S
H232 C224 0.930 . S
H233 C225 0.929 . S
H234 C242 0.929 . S
H235 C244 0.930 . S
H236 C246 0.930 . S
H237 C249 0.929 . S
H238 C252 0.930 . S
H239 C254 0.960 . S
H240 C254 0.960 . S
H241 C254 0.960 . S
C242 H234 0.929 . S
C242 C243 1.377 . S
C242 C244 1.384 . S
C243 C242 1.377 . S
C243 C249 1.390 . S
C244 H235 0.930 . S
C244 C242 1.384 . S
C244 C245 1.372 . S
C245 C244 1.372 . S
C245 C246 1.400 . S
C245 C250 1.490 . S
C246 H236 0.930 . S
C246 C245 1.400 . S
C246 C249 1.386 . S
H247 C263 0.930 . S
H248 C264 0.931 . S
C249 H237 0.929 . S
C249 C243 1.390 . S
C249 C246 1.386 . S
C250 C245 1.490 . S
C250 C252 1.395 . S
C250 C253 1.403 . S
H251 C257 0.930 . S
C252 H238 0.930 . S
C252 C250 1.395 . S
C252 C255 1.403 . S
C253 C250 1.403 . S
C253 C254 1.524 . S
C253 C257 1.400 . S
C254 H239 0.960 . S
C254 H240 0.960 . S
C254 H241 0.960 . S
C254 C253 1.524 . S
C255 C252 1.403 . S
C255 C256 1.392 . S
C255 C259 1.495 . S
C256 C255 1.392 . S
C256 C257 1.385 . S
C256 C258 1.478 . S
C257 H251 0.930 . S
C257 C253 1.400 . S
C257 C256 1.385 . S
C258 C256 1.478 . S
C258 C260 1.381 . S
C258 C264 1.383 . S
C259 C255 1.495 . S
C259 H265 0.959 . S
C259 H266 0.961 . S
C259 H267 0.960 . S
C260 C258 1.381 . S
C260 C261 1.394 . S
C260 H268 0.930 . S
C261 C260 1.394 . S
C261 C262 1.383 . S
C261 H269 0.929 . S
C262 C261 1.383 . S
C262 C263 1.377 . S
C263 H247 0.930 . S
C263 C262 1.377 . S
C263 C264 1.379 . S
C264 H248 0.931 . S
C264 C258 1.383 . S
C264 C263 1.379 . S
H265 C259 0.959 . S
H266 C259 0.961 . S
H267 C259 0.960 . S
H268 C260 0.930 . S
H269 C261 0.929 . S
H270 C278 0.929 . S
H271 C280 0.930 . S
H272 C282 0.930 . S
H273 C285 0.929 . S
H274 C288 0.930 . S
H275 C290 0.960 . S
H276 C290 0.960 . S
H277 C290 0.960 . S
C278 H270 0.929 . S
C278 C279 1.377 . S
C278 C280 1.384 . S
C279 C278 1.377 . S
C279 C285 1.390 . S
C280 H271 0.930 . S
C280 C278 1.384 . S
C280 C281 1.372 . S
C281 C280 1.372 . S
C281 C282 1.400 . S
C281 C286 1.490 . S
C282 H272 0.930 . S
C282 C281 1.400 . S
C282 C285 1.386 . S
H283 C299 0.930 . S
H284 C300 0.931 . S
C285 H273 0.929 . S
C285 C279 1.390 . S
C285 C282 1.386 . S
C286 C281 1.490 . S
C286 C288 1.395 . S
C286 C289 1.403 . S
H287 C293 0.930 . S
C288 H274 0.930 . S
C288 C286 1.395 . S
C288 C291 1.403 . S
C289 C286 1.403 . S
C289 C290 1.524 . S
C289 C293 1.400 . S
C290 H275 0.960 . S
C290 H276 0.960 . S
C290 H277 0.960 . S
C290 C289 1.524 . S
C291 C288 1.403 . S
C291 C292 1.392 . S
C291 C295 1.495 . S
C292 C291 1.392 . S
C292 C293 1.385 . S
C292 C294 1.478 . S
C293 H287 0.930 . S
C293 C289 1.400 . S
C293 C292 1.385 . S
C294 C292 1.478 . S
C294 C296 1.381 . S
C294 C300 1.383 . S
C295 C291 1.495 . S
C295 H301 0.959 . S
C295 H302 0.961 . S
C295 H303 0.960 . S
C296 C294 1.381 . S
C296 C297 1.394 . S
C296 H304 0.930 . S
C297 C296 1.394 . S
C297 C298 1.383 . S
C297 H305 0.929 . S
C298 C297 1.383 . S
C298 C299 1.377 . S
C299 H283 0.930 . S
C299 C298 1.377 . S
C299 C300 1.379 . S
C300 H284 0.931 . S
C300 C294 1.383 . S
C300 C299 1.379 . S
H301 C295 0.959 . S
H302 C295 0.961 . S
H303 C295 0.960 . S
H304 C296 0.930 . S
H305 C297 0.929 . S
H306 C314 0.929 . S
H307 C316 0.930 . S
H308 C318 0.930 . S
H309 C321 0.929 . S
H310 C324 0.930 . S
H311 C326 0.960 . S
H312 C326 0.960 . S
H313 C326 0.960 . S
C314 H306 0.929 . S
C314 C315 1.377 . S
C314 C316 1.384 . S
C315 C314 1.377 . S
C315 C321 1.390 . S
C316 H307 0.930 . S
C316 C314 1.384 . S
C316 C317 1.372 . S
C317 C316 1.372 . S
C317 C318 1.400 . S
C317 C322 1.490 . S
C318 H308 0.930 . S
C318 C317 1.400 . S
C318 C321 1.386 . S
H319 C335 0.930 . S
H320 C336 0.931 . S
C321 H309 0.929 . S
C321 C315 1.390 . S
C321 C318 1.386 . S
C322 C317 1.490 . S
C322 C324 1.395 . S
C322 C325 1.403 . S
H323 C329 0.930 . S
C324 H310 0.930 . S
C324 C322 1.395 . S
C324 C327 1.403 . S
C325 C322 1.403 . S
C325 C326 1.524 . S
C325 C329 1.400 . S
C326 H311 0.960 . S
C326 H312 0.960 . S
C326 H313 0.960 . S
C326 C325 1.524 . S
C327 C324 1.403 . S
C327 C328 1.392 . S
C327 C331 1.495 . S
C328 C327 1.392 . S
C328 C329 1.385 . S
C328 C330 1.478 . S
C329 H323 0.930 . S
C329 C325 1.400 . S
C329 C328 1.385 . S
C330 C328 1.478 . S
C330 C332 1.381 . S
C330 C336 1.383 . S
C331 C327 1.495 . S
C331 H337 0.959 . S
C331 H338 0.961 . S
C331 H339 0.960 . S
C332 C330 1.381 . S
C332 C333 1.394 . S
C332 H340 0.930 . S
C333 C332 1.394 . S
C333 C334 1.383 . S
C333 H341 0.929 . S
C334 C333 1.383 . S
C334 C335 1.377 . S
C335 H319 0.930 . S
C335 C334 1.377 . S
C335 C336 1.379 . S
C336 H320 0.931 . S
C336 C330 1.383 . S
C336 C335 1.379 . S
H337 C331 0.959 . S
H338 C331 0.961 . S
H339 C331 0.960 . S
H340 C332 0.930 . S
H341 C333 0.929 . S
H342 C350 0.929 . S
H343 C352 0.930 . S
H344 C354 0.930 . S
H345 C357 0.929 . S
H346 C360 0.930 . S
H347 C362 0.960 . S
H348 C362 0.960 . S
H349 C362 0.960 . S
C350 H342 0.929 . S
C350 C351 1.377 . S
C350 C352 1.384 . S
C351 C350 1.377 . S
C351 C357 1.390 . S
C352 H343 0.930 . S
C352 C350 1.384 . S
C352 C353 1.372 . S
C353 C352 1.372 . S
C353 C354 1.400 . S
C353 C358 1.490 . S
C354 H344 0.930 . S
C354 C353 1.400 . S
C354 C357 1.386 . S
H355 C371 0.930 . S
H356 C372 0.931 . S
C357 H345 0.929 . S
C357 C351 1.390 . S
C357 C354 1.386 . S
C358 C353 1.490 . S
C358 C360 1.395 . S
C358 C361 1.403 . S
H359 C365 0.930 . S
C360 H346 0.930 . S
C360 C358 1.395 . S
C360 C363 1.403 . S
C361 C358 1.403 . S
C361 C362 1.524 . S
C361 C365 1.400 . S
C362 H347 0.960 . S
C362 H348 0.960 . S
C362 H349 0.960 . S
C362 C361 1.524 . S
C363 C360 1.403 . S
C363 C364 1.392 . S
C363 C367 1.495 . S
C364 C363 1.392 . S
C364 C365 1.385 . S
C364 C366 1.478 . S
C365 H359 0.930 . S
C365 C361 1.400 . S
C365 C364 1.385 . S
C366 C364 1.478 . S
C366 C368 1.381 . S
C366 C372 1.383 . S
C367 C363 1.495 . S
C367 H373 0.959 . S
C367 H374 0.961 . S
C367 H375 0.960 . S
C368 C366 1.381 . S
C368 C369 1.394 . S
C368 H376 0.930 . S
C369 C368 1.394 . S
C369 C370 1.383 . S
C369 H377 0.929 . S
C370 C369 1.383 . S
C370 C371 1.377 . S
C371 H355 0.930 . S
C371 C370 1.377 . S
C371 C372 1.379 . S
C372 H356 0.931 . S
C372 C366 1.383 . S
C372 C371 1.379 . S
H373 C367 0.959 . S
H374 C367 0.961 . S
H375 C367 0.960 . S
H376 C368 0.930 . S
H377 C369 0.929 . S
H378 C386 0.929 . S
H379 C388 0.930 . S
H380 C390 0.930 . S
H381 C393 0.929 . S
H382 C396 0.930 . S
H383 C398 0.960 . S
H384 C398 0.960 . S
H385 C398 0.960 . S
C386 H378 0.929 . S
C386 C387 1.377 . S
C386 C388 1.384 . S
C387 C386 1.377 . S
C387 C393 1.390 . S
C388 H379 0.930 . S
C388 C386 1.384 . S
C388 C389 1.372 . S
C389 C388 1.372 . S
C389 C390 1.400 . S
C389 C394 1.490 . S
C390 H380 0.930 . S
C390 C389 1.400 . S
C390 C393 1.386 . S
H391 C407 0.930 . S
H392 C408 0.931 . S
C393 H381 0.929 . S
C393 C387 1.390 . S
C393 C390 1.386 . S
C394 C389 1.490 . S
C394 C396 1.395 . S
C394 C397 1.403 . S
H395 C401 0.930 . S
C396 H382 0.930 . S
C396 C394 1.395 . S
C396 C399 1.403 . S
C397 C394 1.403 . S
C397 C398 1.524 . S
C397 C401 1.400 . S
C398 H383 0.960 . S
C398 H384 0.960 . S
C398 H385 0.960 . S
C398 C397 1.524 . S
C399 C396 1.403 . S
C399 C400 1.392 . S
C399 C403 1.495 . S
C400 C399 1.392 . S
C400 C401 1.385 . S
C400 C402 1.478 . S
C401 H395 0.930 . S
C401 C397 1.400 . S
C401 C400 1.385 . S
C402 C400 1.478 . S
C402 C404 1.381 . S
C402 C408 1.383 . S
C403 C399 1.495 . S
C403 H409 0.959 . S
C403 H410 0.961 . S
C403 H411 0.960 . S
C404 C402 1.381 . S
C404 C405 1.394 . S
C404 H412 0.930 . S
C405 C404 1.394 . S
C405 C406 1.383 . S
C405 H413 0.929 . S
C406 C405 1.383 . S
C406 C407 1.377 . S
C407 H391 0.930 . S
C407 C406 1.377 . S
C407 C408 1.379 . S
C408 H392 0.931 . S
C408 C402 1.383 . S
C408 C407 1.379 . S
H409 C403 0.959 . S
H410 C403 0.961 . S
H411 C403 0.960 . S
H412 C404 0.930 . S
H413 C405 0.929 . S
H414 C422 0.929 . S
H415 C424 0.930 . S
H416 C426 0.930 . S
H417 C429 0.929 . S
H418 C432 0.930 . S
H419 C434 0.960 . S
H420 C434 0.960 . S
H421 C434 0.960 . S
C422 H414 0.929 . S
C422 C423 1.377 . S
C422 C424 1.384 . S
C423 C422 1.377 . S
C423 C429 1.390 . S
C424 H415 0.930 . S
C424 C422 1.384 . S
C424 C425 1.372 . S
C425 C424 1.372 . S
C425 C426 1.400 . S
C425 C430 1.490 . S
C426 H416 0.930 . S
C426 C425 1.400 . S
C426 C429 1.386 . S
H427 C443 0.930 . S
H428 C444 0.931 . S
C429 H417 0.929 . S
C429 C423 1.390 . S
C429 C426 1.386 . S
C430 C425 1.490 . S
C430 C432 1.395 . S
C430 C433 1.403 . S
H431 C437 0.930 . S
C432 H418 0.930 . S
C432 C430 1.395 . S
C432 C435 1.403 1_655 S
C433 C430 1.403 . S
C433 C434 1.524 . S
C433 C437 1.400 1_655 S
C434 H419 0.960 . S
C434 H420 0.960 . S
C434 H421 0.960 . S
C434 C433 1.524 . S
C435 C432 1.403 1_455 S
C435 C436 1.392 . S
C435 C439 1.495 . S
C436 C435 1.392 . S
C436 C437 1.385 . S
C436 C438 1.478 . S
C437 H431 0.930 . S
C437 C433 1.400 1_455 S
C437 C436 1.385 . S
C438 C436 1.478 . S
C438 C440 1.381 . S
C438 C444 1.383 . S
C439 C435 1.495 . S
C439 H445 0.959 . S
C439 H446 0.961 . S
C439 H447 0.960 . S
C440 C438 1.381 . S
C440 C441 1.394 . S
C440 H448 0.930 . S
C441 C440 1.394 . S
C441 C442 1.383 . S
C441 H449 0.929 . S
C442 C441 1.383 . S
C442 C443 1.377 . S
C443 H427 0.930 . S
C443 C442 1.377 . S
C443 C444 1.379 . S
C444 H428 0.931 . S
C444 C438 1.383 . S
C444 C443 1.379 . S
H445 C439 0.959 . S
H446 C439 0.961 . S
H447 C439 0.960 . S
H448 C440 0.930 . S
H449 C441 0.929 . S
H450 C458 0.929 . S
H451 C460 0.930 . S
H452 C462 0.930 . S
H453 C465 0.929 . S
H454 C468 0.930 . S
H455 C470 0.960 . S
H456 C470 0.960 . S
H457 C470 0.960 . S
C458 H450 0.929 . S
C458 C459 1.377 . S
C458 C460 1.384 . S
C459 C458 1.377 . S
C459 C465 1.390 . S
C460 H451 0.930 . S
C460 C458 1.384 . S
C460 C461 1.372 . S
C461 C460 1.372 . S
C461 C462 1.400 . S
C461 C466 1.490 . S
C462 H452 0.930 . S
C462 C461 1.400 . S
C462 C465 1.386 . S
H463 C479 0.930 . S
H464 C480 0.931 . S
C465 H453 0.929 . S
C465 C459 1.390 . S
C465 C462 1.386 . S
C466 C461 1.490 . S
C466 C468 1.395 . S
C466 C469 1.403 . S
H467 C473 0.930 . S
C468 H454 0.930 . S
C468 C466 1.395 . S
C468 C471 1.403 . S
C469 C466 1.403 . S
C469 C470 1.524 . S
C469 C473 1.400 . S
C470 H455 0.960 . S
C470 H456 0.960 . S
C470 H457 0.960 . S
C470 C469 1.524 . S
C471 C468 1.403 . S
C471 C472 1.392 . S
C471 C475 1.495 . S
C472 C471 1.392 . S
C472 C473 1.385 . S
C472 C474 1.478 . S
C473 H467 0.930 . S
C473 C469 1.400 . S
C473 C472 1.385 . S
C474 C472 1.478 . S
C474 C476 1.381 . S
C474 C480 1.383 . S
C475 C471 1.495 . S
C475 H481 0.959 . S
C475 H482 0.961 . S
C475 H483 0.960 . S
C476 C474 1.381 . S
C476 C477 1.394 . S
C476 H484 0.930 . S
C477 C476 1.394 . S
C477 C478 1.383 . S
C477 H485 0.929 . S
C478 C477 1.383 . S
C478 C479 1.377 . S
C479 H463 0.930 . S
C479 C478 1.377 . S
C479 C480 1.379 . S
C480 H464 0.931 . S
C480 C474 1.383 . S
C480 C479 1.379 . S
H481 C475 0.959 . S
H482 C475 0.961 . S
H483 C475 0.960 . S
H484 C476 0.930 . S
H485 C477 0.929 . S
H486 C494 0.929 . S
H487 C496 0.930 . S
H488 C498 0.930 . S
H489 C501 0.929 . S
H490 C504 0.930 . S
H491 C506 0.960 . S
H492 C506 0.960 . S
H493 C506 0.960 . S
C494 H486 0.929 . S
C494 C495 1.377 . S
C494 C496 1.384 . S
C495 C494 1.377 . S
C495 C501 1.390 . S
C496 H487 0.930 . S
C496 C494 1.384 . S
C496 C497 1.372 . S
C497 C496 1.372 . S
C497 C498 1.400 . S
C497 C502 1.490 . S
C498 H488 0.930 . S
C498 C497 1.400 . S
C498 C501 1.386 . S
H499 C515 0.930 . S
H500 C516 0.931 . S
C501 H489 0.929 . S
C501 C495 1.390 . S
C501 C498 1.386 . S
C502 C497 1.490 . S
C502 C504 1.395 . S
C502 C505 1.403 . S
H503 C509 0.930 . S
C504 H490 0.930 . S
C504 C502 1.395 . S
C504 C507 1.403 1_565 S
C505 C502 1.403 . S
C505 C506 1.524 . S
C505 C509 1.400 1_565 S
C506 H491 0.960 . S
C506 H492 0.960 . S
C506 H493 0.960 . S
C506 C505 1.524 . S
C507 C504 1.403 1_545 S
C507 C508 1.392 . S
C507 C511 1.495 . S
C508 C507 1.392 . S
C508 C509 1.385 . S
C508 C510 1.478 . S
C509 H503 0.930 . S
C509 C505 1.400 1_545 S
C509 C508 1.385 . S
C510 C508 1.478 . S
C510 C512 1.381 . S
C510 C516 1.383 . S
C511 C507 1.495 . S
C511 H517 0.959 . S
C511 H518 0.961 . S
C511 H519 0.960 . S
C512 C510 1.381 . S
C512 C513 1.394 . S
C512 H520 0.930 . S
C513 C512 1.394 . S
C513 C514 1.383 . S
C513 H521 0.929 . S
C514 C513 1.383 . S
C514 C515 1.377 . S
C515 H499 0.930 . S
C515 C514 1.377 . S
C515 C516 1.379 . S
C516 H500 0.931 . S
C516 C510 1.383 . S
C516 C515 1.379 . S
H517 C511 0.959 . S
H518 C511 0.961 . S
H519 C511 0.960 . S
H520 C512 0.930 . S
H521 C513 0.929 . S
H522 C530 0.929 . S
H523 C532 0.930 . S
H524 C534 0.930 . S
H525 C537 0.929 . S
H526 C540 0.930 . S
H527 C542 0.960 . S
H528 C542 0.960 1_565 S
H529 C542 0.960 . S
C530 H522 0.929 . S
C530 C531 1.377 1_665 S
C530 C532 1.384 . S
C531 C530 1.377 1_445 S
C531 C537 1.390 . S
C532 H523 0.930 . S
C532 C530 1.384 . S
C532 C533 1.372 1_665 S
C533 C532 1.372 1_445 S
C533 C534 1.400 . S
C533 C538 1.490 . S
C534 H524 0.930 . S
C534 C533 1.400 . S
C534 C537 1.386 . S
H535 C551 0.930 . S
H536 C552 0.931 . S
C537 H525 0.929 . S
C537 C531 1.390 . S
C537 C534 1.386 . S
C538 C533 1.490 . S
C538 C540 1.395 1_455 S
C538 C541 1.403 . S
H539 C545 0.930 . S
C540 H526 0.930 . S
C540 C538 1.395 1_655 S
C540 C543 1.403 . S
C541 C538 1.403 . S
C541 C542 1.524 . S
C541 C545 1.400 . S
C542 H527 0.960 . S
C542 H528 0.960 1_545 S
C542 H529 0.960 . S
C542 C541 1.524 . S
C543 C540 1.403 . S
C543 C544 1.392 1_655 S
C543 C547 1.495 . S
C544 C543 1.392 1_455 S
C544 C545 1.385 . S
C544 C546 1.478 . S
C545 H539 0.930 . S
C545 C541 1.400 . S
C545 C544 1.385 . S
C546 C544 1.478 . S
C546 C548 1.381 1_445 S
C546 C552 1.383 . S
C547 C543 1.495 . S
C547 H553 0.959 . S
C547 H554 0.961 . S
C547 H555 0.960 . S
C548 C546 1.381 1_665 S
C548 C549 1.394 . S
C548 H556 0.930 . S
C549 C548 1.394 . S
C549 C550 1.383 1_665 S
C549 H557 0.929 . S
C550 C549 1.383 1_445 S
C550 C551 1.377 . S
C551 H535 0.930 . S
C551 C550 1.377 . S
C551 C552 1.379 . S
C552 H536 0.931 . S
C552 C546 1.383 . S
C552 C551 1.379 . S
H553 C547 0.959 . S
H554 C547 0.961 . S
H555 C547 0.960 . S
H556 C548 0.930 . S
H557 C549 0.929 . S
H558 C566 0.929 . S
H559 C568 0.930 . S
H560 C570 0.930 . S
H561 C573 0.929 . S
H562 C576 0.930 . S
H563 C578 0.960 . S
H564 C578 0.960 . S
H565 C578 0.960 . S
C566 H558 0.929 . S
C566 C567 1.377 . S
C566 C568 1.384 . S
C567 C566 1.377 . S
C567 C573 1.390 . S
C568 H559 0.930 . S
C568 C566 1.384 . S
C568 C569 1.372 . S
C569 C568 1.372 . S
C569 C570 1.400 . S
C569 C574 1.490 . S
C570 H560 0.930 . S
C570 C569 1.400 . S
C570 C573 1.386 . S
H571 C587 0.930 . S
H572 C588 0.931 . S
C573 H561 0.929 . S
C573 C567 1.390 . S
C573 C570 1.386 . S
C574 C569 1.490 . S
C574 C576 1.395 . S
C574 C577 1.403 . S
H575 C581 0.930 . S
C576 H562 0.930 . S
C576 C574 1.395 . S
C576 C579 1.403 . S
C577 C574 1.403 . S
C577 C578 1.524 . S
C577 C581 1.400 . S
C578 H563 0.960 . S
C578 H564 0.960 . S
C578 H565 0.960 . S
C578 C577 1.524 . S
C579 C576 1.403 . S
C579 C580 1.392 . S
C579 C583 1.495 . S
C580 C579 1.392 . S
C580 C581 1.385 . S
C580 C582 1.478 . S
C581 H575 0.930 . S
C581 C577 1.400 . S
C581 C580 1.385 . S
C582 C580 1.478 . S
C582 C584 1.381 . S
C582 C588 1.383 . S
C583 C579 1.495 . S
C583 H589 0.959 . S
C583 H590 0.961 . S
C583 H591 0.960 . S
C584 C582 1.381 . S
C584 C585 1.394 . S
C584 H592 0.930 . S
C585 C584 1.394 . S
C585 C586 1.383 . S
C585 H593 0.929 . S
C586 C585 1.383 . S
C586 C587 1.377 . S
C587 H571 0.930 . S
C587 C586 1.377 . S
C587 C588 1.379 . S
C588 H572 0.931 . S
C588 C582 1.383 . S
C588 C587 1.379 . S
H589 C583 0.959 . S
H590 C583 0.961 . S
H591 C583 0.960 . S
H592 C584 0.930 . S
H593 C585 0.929 . S
H594 C602 0.929 . S
H595 C604 0.930 . S
H596 C606 0.930 . S
H597 C609 0.929 . S
H598 C612 0.930 . S
H599 C614 0.960 . S
H600 C614 0.960 . S
H601 C614 0.960 . S
C602 H594 0.929 . S
C602 C603 1.377 . S
C602 C604 1.384 . S
C603 C602 1.377 . S
C603 C609 1.390 . S
C604 H595 0.930 . S
C604 C602 1.384 . S
C604 C605 1.372 . S
C605 C604 1.372 . S
C605 C606 1.400 . S
C605 C610 1.490 . S
C606 H596 0.930 . S
C606 C605 1.400 . S
C606 C609 1.386 . S
H607 C623 0.930 . S
H608 C624 0.931 . S
C609 H597 0.929 . S
C609 C603 1.390 . S
C609 C606 1.386 . S
C610 C605 1.490 . S
C610 C612 1.395 . S
C610 C613 1.403 . S
H611 C617 0.930 . S
C612 H598 0.930 . S
C612 C610 1.395 . S
C612 C615 1.403 . S
C613 C610 1.403 . S
C613 C614 1.524 . S
C613 C617 1.400 . S
C614 H599 0.960 . S
C614 H600 0.960 . S
C614 H601 0.960 . S
C614 C613 1.524 . S
C615 C612 1.403 . S
C615 C616 1.392 . S
C615 C619 1.495 . S
C616 C615 1.392 . S
C616 C617 1.385 . S
C616 C618 1.478 . S
C617 H611 0.930 . S
C617 C613 1.400 . S
C617 C616 1.385 . S
C618 C616 1.478 . S
C618 C620 1.381 . S
C618 C624 1.383 . S
C619 C615 1.495 . S
C619 H625 0.959 . S
C619 H626 0.961 . S
C619 H627 0.960 . S
C620 C618 1.381 . S
C620 C621 1.394 . S
C620 H628 0.930 . S
C621 C620 1.394 . S
C621 C622 1.383 . S
C621 H629 0.929 . S
C622 C621 1.383 . S
C622 C623 1.377 . S
C623 H607 0.930 . S
C623 C622 1.377 . S
C623 C624 1.379 . S
C624 H608 0.931 . S
C624 C618 1.383 . S
C624 C623 1.379 . S
H625 C619 0.959 . S
H626 C619 0.961 . S
H627 C619 0.960 . S
H628 C620 0.930 . S
H629 C621 0.929 . S
H630 C638 0.929 . S
H631 C640 0.929 1_655 S
H632 C642 0.930 . S
H633 C645 0.929 . S
H634 C648 0.930 . S
H635 C650 0.960 . S
H636 C650 0.960 . S
H637 C650 0.960 . S
C638 H630 0.929 . S
C638 C639 1.377 1_565 S
C638 C640 1.384 . S
C639 C638 1.377 1_545 S
C639 C645 1.390 . S
C640 H631 0.929 1_455 S
C640 C638 1.384 . S
C640 C641 1.372 1_565 S
C641 C640 1.372 1_545 S
C641 C642 1.400 . S
C641 C646 1.490 . S
C642 H632 0.930 . S
C642 C641 1.400 . S
C642 C645 1.386 . S
H643 C659 0.930 . S
H644 C660 0.931 . S
C645 H633 0.929 . S
C645 C639 1.390 . S
C645 C642 1.386 . S
C646 C641 1.490 . S
C646 C648 1.395 1_445 S
C646 C649 1.403 . S
H647 C653 0.930 . S
C648 H634 0.930 . S
C648 C646 1.395 1_665 S
C648 C651 1.403 1_554 S
C649 C646 1.403 . S
C649 C650 1.524 . S
C649 C653 1.400 1_554 S
C650 H635 0.960 . S
C650 H636 0.960 . S
C650 H637 0.960 . S
C650 C649 1.524 . S
C651 C648 1.403 1_556 S
C651 C652 1.392 1_665 S
C651 C655 1.495 . S
C652 C651 1.392 1_445 S
C652 C653 1.385 . S
C652 C654 1.478 1_455 S
C653 H647 0.930 . S
C653 C649 1.400 1_556 S
C653 C652 1.385 . S
C654 C652 1.478 1_655 S
C654 C656 1.381 1_545 S
C654 C660 1.383 1_655 S
C655 C651 1.495 . S
C655 H661 0.959 . S
C655 H662 0.961 . S
C655 H663 0.960 . S
C656 C654 1.381 1_565 S
C656 C657 1.394 . S
C656 H664 0.930 . S
C657 C656 1.394 . S
C657 C658 1.383 1_565 S
C657 H665 0.929 . S
C658 C657 1.383 1_545 S
C658 C659 1.377 1_655 S
C659 H643 0.930 . S
C659 C658 1.377 1_455 S
C659 C660 1.379 . S
C660 H644 0.931 . S
C660 C654 1.383 1_455 S
C660 C659 1.379 . S
H661 C655 0.959 . S
H662 C655 0.961 . S
H663 C655 0.960 . S
H664 C656 0.930 . S
H665 C657 0.929 . S
H666 C674 0.929 . S
H667 C676 0.930 . S
H668 C678 0.930 . S
H669 C681 0.929 . S
H670 C684 0.930 . S
H671 C686 0.960 . S
H672 C686 0.960 . S
H673 C686 0.960 . S
C674 H666 0.929 . S
C674 C675 1.377 . S
C674 C676 1.384 . S
C675 C674 1.377 . S
C675 C681 1.390 . S
C676 H667 0.930 . S
C676 C674 1.384 . S
C676 C677 1.372 . S
C677 C676 1.372 . S
C677 C678 1.400 . S
C677 C682 1.490 . S
C678 H668 0.930 . S
C678 C677 1.400 . S
C678 C681 1.386 . S
H679 C695 0.930 . S
H680 C696 0.931 . S
C681 H669 0.929 . S
C681 C675 1.390 . S
C681 C678 1.386 . S
C682 C677 1.490 . S
C682 C684 1.395 . S
C682 C685 1.403 . S
H683 C689 0.930 . S
C684 H670 0.930 . S
C684 C682 1.395 . S
C684 C687 1.403 . S
C685 C682 1.403 . S
C685 C686 1.524 . S
C685 C689 1.400 . S
C686 H671 0.960 . S
C686 H672 0.960 . S
C686 H673 0.960 . S
C686 C685 1.524 . S
C687 C684 1.403 . S
C687 C688 1.392 . S
C687 C691 1.495 . S
C688 C687 1.392 . S
C688 C689 1.385 . S
C688 C690 1.478 . S
C689 H683 0.930 . S
C689 C685 1.400 . S
C689 C688 1.385 . S
C690 C688 1.478 . S
C690 C692 1.381 . S
C690 C696 1.383 . S
C691 C687 1.495 . S
C691 H697 0.959 . S
C691 H698 0.961 . S
C691 H699 0.960 . S
C692 C690 1.381 . S
C692 C693 1.394 . S
C692 H700 0.930 . S
C693 C692 1.394 . S
C693 C694 1.383 . S
C693 H701 0.929 . S
C694 C693 1.383 . S
C694 C695 1.377 . S
C695 H679 0.930 . S
C695 C694 1.377 . S
C695 C696 1.379 . S
C696 H680 0.931 . S
C696 C690 1.383 . S
C696 C695 1.379 . S
H697 C691 0.959 . S
H698 C691 0.961 . S
H699 C691 0.960 . S
H700 C692 0.930 . S
H701 C693 0.929 . S
H702 C710 0.929 . S
H703 C712 0.930 . S
H704 C714 0.930 . S
H705 C717 0.929 . S
H706 C720 0.930 . S
H707 C722 0.960 . S
H708 C722 0.960 . S
H709 C722 0.960 . S
C710 H702 0.929 . S
C710 C711 1.377 . S
C710 C712 1.384 . S
C711 C710 1.377 . S
C711 C717 1.390 . S
C712 H703 0.930 . S
C712 C710 1.384 . S
C712 C713 1.372 . S
C713 C712 1.372 . S
C713 C714 1.400 . S
C713 C718 1.490 . S
C714 H704 0.930 . S
C714 C713 1.400 . S
C714 C717 1.386 . S
H715 C731 0.930 . S
H716 C732 0.931 . S
C717 H705 0.929 . S
C717 C711 1.390 . S
C717 C714 1.386 . S
C718 C713 1.490 . S
C718 C720 1.395 . S
C718 C721 1.403 . S
H719 C725 0.930 . S
C720 H706 0.930 . S
C720 C718 1.395 . S
C720 C723 1.403 . S
C721 C718 1.403 . S
C721 C722 1.524 . S
C721 C725 1.400 . S
C722 H707 0.960 . S
C722 H708 0.960 . S
C722 H709 0.960 . S
C722 C721 1.524 . S
C723 C720 1.403 . S
C723 C724 1.392 . S
C723 C727 1.495 . S
C724 C723 1.392 . S
C724 C725 1.385 . S
C724 C726 1.478 . S
C725 H719 0.930 . S
C725 C721 1.400 . S
C725 C724 1.385 . S
C726 C724 1.478 . S
C726 C728 1.381 . S
C726 C732 1.383 . S
C727 C723 1.495 . S
C727 H733 0.959 . S
C727 H734 0.961 . S
C727 H735 0.960 . S
C728 C726 1.381 . S
C728 C729 1.394 . S
C728 H736 0.930 . S
C729 C728 1.394 . S
C729 C730 1.383 . S
C729 H737 0.929 . S
C730 C729 1.383 . S
C730 C731 1.377 . S
C731 H715 0.930 . S
C731 C730 1.377 . S
C731 C732 1.379 . S
C732 H716 0.931 . S
C732 C726 1.383 . S
C732 C731 1.379 . S
H733 C727 0.959 . S
H734 C727 0.961 . S
H735 C727 0.960 . S
H736 C728 0.930 . S
H737 C729 0.929 . S
C207 C8 1.996 . S
C226 C107 1.983 . S
C243 C28 1.543 . S
C262 C116 1.568 . S
C279 C127 1.543 . S
C298 C17 1.569 . S
C315 C61 1.536 . S
C334 C149 1.557 . S
C351 C140 1.999 . S
C370 C41 2.000 . S
C387 C50 1.569 . S
C406 C160 1.522 . S
C423 C74 1.999 . S
C442 C173 1.990 . S
C459 C94 1.541 . S
C478 C182 1.572 . S
C495 C193 1.538 . S
C514 C83 1.557 . S
C531 N38 2.349 1_455 S
C550 N5 2.354 . S
C567 N104 2.352 1_556 S
C586 N71 2.345 . S
C603 N170 2.348 . S
C622 N137 2.352 1_554 S
C639 N14 0.955 . S
C658 N47 0.999 1_655 S
C675 N113 0.944 . S
C694 N80 0.959 . S
C711 N179 0.952 . S
C730 N146 0.996 . S
