# Generated by pormake.
# Topology upa, (4)-cn, num edge types: 1
# Building blocks:
#     Node 0, Type 0, BuildingBlock: AZAVOO_clean_sbu_0, # of connection points: 4
#     Node 1, Type 0, BuildingBlock: AZAVOO_clean_sbu_0, # of connection points: 4
#     Node 2, Type 0, BuildingBlock: AZAVOO_clean_sbu_0, # of connection points: 4
#     Node 3, Type 0, BuildingBlock: AZAVOO_clean_sbu_0, # of connection points: 4
#     Node 4, Type 0, BuildingBlock: AZAVOO_clean_sbu_0, # of connection points: 4
#     Node 5, Type 0, BuildingBlock: AZAVOO_clean_sbu_0, # of connection points: 4
#     Node 6, Type 0, BuildingBlock: AZAVOO_clean_sbu_0, # of connection points: 4
#     Node 7, Type 0, BuildingBlock: AZAVOO_clean_sbu_0, # of connection points: 4
#     Edge 8, Type (0, 0), BuildingBlock: XUDNAN_clean_linker_2, # of connection points: 2
#     Edge 9, Type (0, 0), BuildingBlock: XUDNAN_clean_linker_2, # of connection points: 2
#     Edge 10, Type (0, 0), BuildingBlock: XUDNAN_clean_linker_2, # of connection points: 2
#     Edge 11, Type (0, 0), BuildingBlock: XUDNAN_clean_linker_2, # of connection points: 2
#     Edge 12, Type (0, 0), BuildingBlock: XUDNAN_clean_linker_2, # of connection points: 2
#     Edge 13, Type (0, 0), BuildingBlock: XUDNAN_clean_linker_2, # of connection points: 2
#     Edge 14, Type (0, 0), BuildingBlock: XUDNAN_clean_linker_2, # of connection points: 2
#     Edge 15, Type (0, 0), BuildingBlock: XUDNAN_clean_linker_2, # of connection points: 2
#     Edge 16, Type (0, 0), BuildingBlock: XUDNAN_clean_linker_2, # of connection points: 2
#     Edge 17, Type (0, 0), BuildingBlock: XUDNAN_clean_linker_2, # of connection points: 2
#     Edge 18, Type (0, 0), BuildingBlock: XUDNAN_clean_linker_2, # of connection points: 2
#     Edge 19, Type (0, 0), BuildingBlock: XUDNAN_clean_linker_2, # of connection points: 2
#     Edge 20, Type (0, 0), BuildingBlock: XUDNAN_clean_linker_2, # of connection points: 2
#     Edge 21, Type (0, 0), BuildingBlock: XUDNAN_clean_linker_2, # of connection points: 2
#     Edge 22, Type (0, 0), BuildingBlock: XUDNAN_clean_linker_2, # of connection points: 2
#     Edge 23, Type (0, 0), BuildingBlock: XUDNAN_clean_linker_2, # of connection points: 2
# Relax obj value: 0.203
# Max RMSD: 0.199
# Mean RMSD: 0.199
data_MOF--net-upa--node1-AZAVOO_clean_sbu_0--edge1-XUDNAN_clean_linker_2
_symmetry_space_group_name_H-M    P1
_symmetry_Int_Tables_number       1
_symmetry_cell_setting            triclinic
loop_
_symmetry_equiv_pos_as_xyz
'x, y, z'
_cell_length_a     26.94238
_cell_length_b     26.96903
_cell_length_c     43.076601
_cell_angle_alpha  89.890039
_cell_angle_beta   89.958966
_cell_angle_gamma 90.015776
loop_
_atom_site_label
_atom_site_type_symbol
_atom_site_fract_x
_atom_site_fract_y
_atom_site_fract_z
_atom_type_partial_charge
Mg0 Mg 0.13875 0.27497 0.3394 0.0
O1 O 0.1062 0.20049 0.32391 0.0
O2 O 0.16093 0.14021 0.33406 0.0
Mg3 Mg 0.22735 0.17523 0.3584 0.0
C4 C 0.11934 0.15506 0.32341 0.0
C5 C 0.03946 0.32866 0.3275 0.0
O6 O 0.04202 0.32917 0.35794 0.0
O7 O 0.19442 0.2764 0.29857 0.0
O8 O 0.24647 0.21636 0.31384 0.0
O9 O 0.10516 0.26294 0.38631 0.0
O10 O 0.18019 0.23748 0.37282 0.0
C11 C 0.23347 0.25007 0.29469 0.0
C12 C 0.1448 0.23811 0.39284 0.0
O13 O 0.07642 0.3125 0.31211 0.0
Mg14 Mg 0.26537 0.64678 0.82802 0.0
O15 O 0.3398 0.61612 0.84347 0.0
O16 O 0.37778 0.66693 0.87657 0.0
Mg17 Mg 0.32513 0.73272 0.88245 0.0
C18 C 0.37627 0.62686 0.86094 0.0
C19 C 0.23572 0.54993 0.79434 0.0
O20 O 0.19739 0.55514 0.81291 0.0
O21 O 0.30389 0.70343 0.79601 0.0
O22 O 0.33744 0.75352 0.83171 0.0
O23 O 0.23114 0.61096 0.86957 0.0
O24 O 0.26008 0.68769 0.86886 0.0
C25 C 0.32933 0.7417 0.80348 0.0
C26 C 0.24207 0.65114 0.88446 0.0
O27 O 0.26752 0.58462 0.79251 0.0
Mg28 Mg 0.84759 0.77626 0.32379 0.0
O29 O 0.87747 0.85378 0.31622 0.0
O30 O 0.82867 0.91226 0.33614 0.0
Mg31 Mg 0.76388 0.86892 0.35824 0.0
C32 C 0.86765 0.89915 0.32145 0.0
C33 C 0.94198 0.72136 0.30046 0.0
O34 O 0.9324 0.69425 0.32509 0.0
O35 O 0.78895 0.78933 0.28563 0.0
O36 O 0.73793 0.84137 0.31057 0.0
O37 O 0.88592 0.77224 0.36964 0.0
O38 O 0.80994 0.80167 0.36307 0.0
C39 C 0.74877 0.81469 0.28702 0.0
C40 C 0.84726 0.79393 0.38106 0.0
O41 O 0.90981 0.75257 0.29116 0.0
Mg42 Mg 0.73313 0.32044 0.82455 0.0
O43 O 0.66107 0.36048 0.83243 0.0
O44 O 0.59976 0.31349 0.85042 0.0
Mg45 Mg 0.63657 0.23674 0.85466 0.0
C46 C 0.61671 0.3554 0.84179 0.0
C47 C 0.79024 0.41921 0.79735 0.0
O48 O 0.83145 0.40419 0.81062 0.0
O49 O 0.70534 0.27938 0.78107 0.0
O50 O 0.6488 0.22884 0.80251 0.0
O51 O 0.75105 0.33549 0.87462 0.0
O52 O 0.71305 0.26797 0.8581 0.0
C53 C 0.67313 0.24462 0.77907 0.0
C54 C 0.72876 0.2941 0.88094 0.0
O55 O 0.75179 0.39189 0.79812 0.0
Mg56 Mg 0.65235 0.26846 0.15985 0.0
O57 O 0.62915 0.34638 0.14792 0.0
O58 O 0.68635 0.38616 0.11991 0.0
Mg59 Mg 0.74712 0.32802 0.11078 0.0
C60 C 0.6446 0.38493 0.1339 0.0
C61 C 0.55092 0.24212 0.19002 0.0
O62 O 0.55382 0.20683 0.16913 0.0
O63 O 0.70937 0.29842 0.19486 0.0
O64 O 0.76718 0.32763 0.16224 0.0
O65 O 0.61656 0.24109 0.11645 0.0
O66 O 0.69448 0.26671 0.11916 0.0
C67 C 0.752 0.31771 0.18965 0.0
C68 C 0.65768 0.25201 0.10253 0.0
O69 O 0.58812 0.27028 0.19434 0.0
Mg70 Mg 0.27731 0.13426 0.65215 0.0
O71 O 0.20472 0.0973 0.66685 0.0
O72 O 0.13937 0.14216 0.65227 0.0
Mg73 Mg 0.17111 0.21143 0.62882 0.0
C74 C 0.15798 0.1038 0.66512 0.0
C75 C 0.30634 0.0317 0.67384 0.0
O76 O 0.27498 0.02454 0.65096 0.0
O77 O 0.27138 0.19107 0.69146 0.0
O78 O 0.20755 0.23661 0.67417 0.0
O79 O 0.27183 0.0979 0.60606 0.0
O80 O 0.23986 0.17145 0.61657 0.0
C81 C 0.24152 0.22771 0.6941 0.0
C82 C 0.24548 0.13545 0.59731 0.0
O83 O 0.31777 0.07596 0.68127 0.0
Mg84 Mg 0.33917 0.74959 0.15569 0.0
O85 O 0.38434 0.67904 0.15776 0.0
O86 O 0.33895 0.61153 0.14932 0.0
Mg87 Mg 0.26007 0.64039 0.14039 0.0
C88 C 0.3805 0.63232 0.15491 0.0
C89 C 0.44731 0.78086 0.1607 0.0
O90 O 0.44259 0.76122 0.13299 0.0
O91 O 0.30101 0.73436 0.20255 0.0
O92 O 0.25096 0.67171 0.18921 0.0
O93 O 0.35192 0.75369 0.10434 0.0
O94 O 0.28907 0.71367 0.12581 0.0
C95 C 0.26617 0.70362 0.20888 0.0
C96 C 0.31382 0.72497 0.10131 0.0
O97 O 0.40841 0.78635 0.17725 0.0
Mg98 Mg 0.77628 0.84502 0.65822 0.0
O99 O 0.85564 0.87054 0.6685 0.0
O100 O 0.90841 0.81613 0.64746 0.0
Mg101 Mg 0.86287 0.75738 0.62215 0.0
C102 C 0.89963 0.85536 0.66304 0.0
C103 C 0.70851 0.92579 0.68154 0.0
O104 O 0.68506 0.90664 0.65767 0.0
O105 O 0.78197 0.78187 0.6942 0.0
O106 O 0.83267 0.72983 0.66901 0.0
O107 O 0.77773 0.8886 0.61497 0.0
O108 O 0.80075 0.81002 0.61751 0.0
C109 C 0.80553 0.7407 0.69236 0.0
C110 C 0.79649 0.85021 0.60142 0.0
O111 O 0.74759 0.90439 0.69135 0.0
H112 H 0.0207 0.14999 0.33662 0.0
H113 H 0.13907 0.07441 0.28769 0.0
H114 H 0.08169 0.00581 0.27499 0.0
H115 H 0.97682 0.04556 0.37334 0.0
H116 H 0.91199 0.06201 0.37228 0.0
H117 H 0.95849 0.10982 0.37189 0.0
H118 H 0.92163 0.14551 0.321 0.0
H119 H 0.87471 0.09783 0.3213 0.0
H120 H 0.9141 0.10563 0.28781 0.0
H121 H 0.01548 0.94241 0.27242 0.0
H122 H 0.94709 0.88471 0.28328 0.0
H123 H 0.87259 0.99817 0.33747 0.0
C124 C 0.03383 0.11975 0.32228 0.0
C125 C 0.08379 0.11763 0.31249 0.0
C126 C 0.10064 0.07671 0.29497 0.0
C127 C 0.06829 0.03783 0.28756 0.0
C128 C 0.01947 0.04031 0.2982 0.0
C129 C 0.00228 0.08006 0.31534 0.0
C130 C 0.95044 0.07034 0.32768 0.0
C131 C 0.94942 0.07202 0.36341 0.0
C132 C 0.913 0.10701 0.3136 0.0
C133 C 0.94187 0.01824 0.31571 0.0
C134 C 0.98171 0.00227 0.29812 0.0
C135 C 0.98389 0.95462 0.28592 0.0
C136 C 0.94492 0.92198 0.29244 0.0
C137 C 0.90459 0.93667 0.3115 0.0
C138 C 0.90262 0.98592 0.32264 0.0
H139 H 0.37475 0.52693 0.85008 0.0
H140 H 0.47304 0.64856 0.87408 0.0
H141 H 0.54473 0.59153 0.87198 0.0
H142 H 0.44018 0.43316 0.89591 0.0
H143 H 0.42896 0.38465 0.86805 0.0
H144 H 0.38531 0.43486 0.872 0.0
H145 H 0.39361 0.4539 0.8134 0.0
H146 H 0.43754 0.40409 0.80914 0.0
H147 H 0.45403 0.46598 0.79706 0.0
H148 H 0.60559 0.52389 0.86307 0.0
H149 H 0.65248 0.44708 0.85403 0.0
H150 H 0.51469 0.36684 0.83942 0.0
C151 C 0.41136 0.54146 0.8551 0.0
C152 C 0.41854 0.59218 0.8621 0.0
C153 C 0.46681 0.6098 0.86879 0.0
C154 C 0.50769 0.57777 0.86753 0.0
C155 C 0.49941 0.52817 0.8601 0.0
C156 C 0.45243 0.50981 0.85455 0.0
C157 C 0.45381 0.45473 0.84752 0.0
C158 C 0.42539 0.42511 0.87236 0.0
C159 C 0.43358 0.44407 0.81483 0.0
C160 C 0.50914 0.44518 0.8494 0.0
C161 C 0.53461 0.48828 0.85641 0.0
C162 C 0.58609 0.48977 0.85798 0.0
C163 C 0.61235 0.44595 0.85261 0.0
C164 C 0.58716 0.40096 0.84614 0.0
C165 C 0.5348 0.40059 0.84462 0.0
H166 H 0.54427 0.38741 0.14079 0.0
H167 H 0.6732 0.48241 0.12982 0.0
H168 H 0.61962 0.55631 0.13646 0.0
H169 H 0.45964 0.46603 0.09814 0.0
H170 H 0.40766 0.45141 0.12289 0.0
H171 H 0.45649 0.4067 0.1174 0.0
H172 H 0.4688 0.40194 0.17681 0.0
H173 H 0.42071 0.44728 0.18272 0.0
H174 H 0.48187 0.45766 0.19837 0.0
H175 H 0.55258 0.61893 0.14695 0.0
H176 H 0.47586 0.66707 0.15355 0.0
H177 H 0.39005 0.53061 0.15509 0.0
C178 C 0.56127 0.42379 0.13967 0.0
C179 C 0.61289 0.42939 0.13499 0.0
C180 C 0.63368 0.47748 0.13329 0.0
C181 C 0.60363 0.51951 0.13724 0.0
C182 C 0.55297 0.51256 0.14244 0.0
C183 C 0.53184 0.46593 0.14309 0.0
C184 C 0.47626 0.46849 0.14798 0.0
C185 C 0.44838 0.4469 0.11992 0.0
C186 C 0.46104 0.44232 0.17828 0.0
C187 C 0.46933 0.52399 0.15022 0.0
C188 C 0.51411 0.54866 0.14733 0.0
C189 C 0.51728 0.60004 0.14899 0.0
C190 C 0.47335 0.62703 0.15289 0.0
C191 C 0.4267 0.60266 0.15468 0.0
C192 C 0.42498 0.55036 0.15373 0.0
H193 H 0.05592 0.10272 0.66588 0.0
H194 H 0.18496 0.01195 0.68655 0.0
H195 H 0.13064 0.93997 0.69528 0.0
H196 H 0.96935 0.03898 0.72228 0.0
H197 H 0.91775 0.04504 0.69593 0.0
H198 H 0.96593 0.09144 0.69636 0.0
H199 H 0.9797 0.0786 0.63738 0.0
H200 H 0.93199 0.03205 0.63681 0.0
H201 H 0.99342 0.01736 0.62302 0.0
H202 H 0.06507 0.87516 0.69195 0.0
H203 H 0.99133 0.82346 0.68103 0.0
H204 H 0.9039 0.95622 0.66575 0.0
C205 C 0.07268 0.0681 0.67313 0.0
C206 C 0.12478 0.06312 0.6754 0.0
C207 C 0.1452 0.01691 0.68464 0.0
C208 C 0.1146 0.9757 0.68974 0.0
C209 C 0.06357 0.98143 0.68614 0.0
C210 C 0.0426 0.02668 0.67864 0.0
C211 C 0.9871 0.02195 0.67374 0.0
C212 C 0.95834 0.05108 0.69856 0.0
C213 C 0.97223 0.03845 0.64079 0.0
C214 C 0.98065 0.9666 0.67809 0.0
C215 C 0.02515 0.94396 0.68547 0.0
C216 C 0.0297 0.89252 0.68708 0.0
C217 C 0.98779 0.86347 0.68069 0.0
C218 C 0.94195 0.88598 0.67308 0.0
C219 C 0.93821 0.93818 0.67242 0.0
H220 H 0.1296 0.27079 0.45151 0.0
H221 H 0.17045 0.14107 0.39821 0.0
H222 H 0.18923 0.09569 0.44662 0.0
H223 H 0.22592 0.26367 0.50235 0.0
H224 H 0.19271 0.28441 0.53627 0.0
H225 H 0.17225 0.30309 0.49833 0.0
H226 H 0.08485 0.26698 0.50952 0.0
H227 H 0.10503 0.24836 0.5477 0.0
H228 H 0.07876 0.20324 0.52163 0.0
H229 H 0.2147 0.06891 0.49942 0.0
H230 H 0.24693 0.06306 0.55292 0.0
H231 H 0.19231 0.21145 0.57169 0.0
C232 C 0.14083 0.23227 0.45028 0.0
C233 C 0.14862 0.2091 0.42146 0.0
C234 C 0.16478 0.15932 0.42026 0.0
C235 C 0.17498 0.13317 0.4476 0.0
C236 C 0.1688 0.15755 0.4758 0.0
C237 C 0.15191 0.20596 0.47738 0.0
C238 C 0.15484 0.22578 0.51015 0.0
C239 C 0.18844 0.27193 0.51185 0.0
C240 C 0.10276 0.23672 0.523 0.0
C241 C 0.17804 0.18178 0.52641 0.0
C242 C 0.1847 0.1424 0.50638 0.0
C243 C 0.20886 0.09911 0.51552 0.0
C244 C 0.22724 0.09623 0.54588 0.0
C245 C 0.22183 0.13668 0.5665 0.0
C246 C 0.19622 0.17956 0.55669 0.0
H247 H 0.25778 0.73204 0.92083 0.0
H248 H 0.22811 0.57398 0.92536 0.0
H249 H 0.2404 0.57611 0.98229 0.0
H250 H 0.35712 0.73049 0.97318 0.0
H251 H 0.34298 0.78985 0.99019 0.0
H252 H 0.32549 0.77719 0.95068 0.0
H253 H 0.23384 0.79834 0.96338 0.0
H254 H 0.25109 0.81169 0.00289 0.0
H255 H 0.20315 0.76684 -0.00503 0.0
H256 H 0.26158 0.59499 0.0381 0.0
H257 H 0.28844 0.62914 0.08851 0.0
H258 H 0.30955 0.77345 0.0461 0.0
C259 C 0.25362 0.69781 0.93371 0.0
C260 C 0.24249 0.65273 0.91866 0.0
C261 C 0.2365 0.60897 0.93648 0.0
C262 C 0.24358 0.60981 0.96876 0.0
C263 C 0.25664 0.65464 0.98263 0.0
C264 C 0.26139 0.69785 0.96565 0.0
C265 C 0.27874 0.74057 0.98556 0.0
C266 C 0.32907 0.76068 0.97422 0.0
C267 C 0.23934 0.78178 0.98678 0.0
C268 C 0.28363 0.71458 0.01647 0.0
C269 C 0.27017 0.66518 0.01441 0.0
C270 C 0.27171 0.63369 0.04004 0.0
C271 C 0.28671 0.65346 0.06859 0.0
C272 C 0.30037 0.70395 0.07108 0.0
C273 C 0.29942 0.73465 0.04465 0.0
H274 H 0.83191 0.77499 0.56445 0.0
H275 H 0.79558 0.93189 0.56417 0.0
H276 H 0.81341 0.93596 0.50821 0.0
H277 H 0.93282 0.78288 0.50505 0.0
H278 H 0.91566 0.72434 0.48803 0.0
H279 H 0.90597 0.73485 0.5289 0.0
H280 H 0.81297 0.71266 0.52254 0.0
H281 H 0.82224 0.70241 0.4817 0.0
H282 H 0.776 0.74607 0.49459 0.0
H283 H 0.82346 0.92122 0.45191 0.0
H284 H 0.83004 0.88887 0.39846 0.0
H285 H 0.86372 0.74266 0.43457 0.0
C286 C 0.82889 0.81043 0.55276 0.0
C287 C 0.81243 0.85312 0.56869 0.0
C288 C 0.80816 0.89867 0.55248 0.0
C289 C 0.81836 0.90145 0.52068 0.0
C290 C 0.83335 0.85851 0.50551 0.0
C291 C 0.83924 0.81395 0.52098 0.0
C292 C 0.8527 0.77268 0.49868 0.0
C293 C 0.9049 0.75251 0.50558 0.0
C294 C 0.81364 0.73102 0.49943 0.0
C295 C 0.85155 0.8007 0.46818 0.0
C296 C 0.84057 0.85024 0.47273 0.0
C297 C 0.83304 0.88276 0.44802 0.0
C298 C 0.83643 0.86407 0.41782 0.0
C299 C 0.84758 0.81358 0.41272 0.0
C300 C 0.85613 0.78168 0.43811 0.0
H301 H 0.74227 0.34678 0.93519 0.0
H302 H 0.68724 0.20679 0.89924 0.0
H303 H 0.65992 0.18273 0.95153 0.0
H304 H 0.79015 0.29548 0.00679 0.0
H305 H 0.77351 0.34877 0.02973 0.0
H306 H 0.78764 0.35608 0.98911 0.0
H307 H 0.70228 0.39819 0.98044 0.0
H308 H 0.68778 0.39076 0.02102 0.0
H309 H 0.64644 0.36621 0.99198 0.0
H310 H 0.63532 0.17467 0.00712 0.0
H311 H 0.62402 0.17969 0.06413 0.0
H312 H 0.69864 0.3221 0.06453 0.0
C313 C 0.72463 0.31105 0.93836 0.0
C314 C 0.71599 0.27918 0.91297 0.0
C315 C 0.69322 0.23246 0.91815 0.0
C316 C 0.67766 0.21826 0.94782 0.0
C317 C 0.68574 0.25085 0.97222 0.0
C318 C 0.70931 0.29594 0.968 0.0
C319 C 0.71476 0.3232 -0.00151 0.0
C320 C 0.76979 0.33134 0.0065 0.0
C321 C 0.6861 0.3725 -0.00207 0.0
C322 C 0.69077 0.28624 0.02036 0.0
C323 C 0.67365 0.24507 0.00466 0.0
C324 C 0.64898 0.20649 0.01978 0.0
C325 C 0.64252 0.20969 0.05201 0.0
C326 C 0.66147 0.25069 0.06857 0.0
C327 C 0.68525 0.28964 0.0525 0.0
H328 H 0.47385 0.17878 0.20156 0.0
H329 H 0.51842 0.33269 0.21005 0.0
H330 H 0.43491 0.35396 0.22986 0.0
H331 H 0.34455 0.19984 0.17982 0.0
H332 H 0.32189 0.14891 0.20299 0.0
H333 H 0.38342 0.14651 0.18659 0.0
H334 H 0.42108 0.13213 0.24129 0.0
H335 H 0.35968 0.13329 0.25761 0.0
H336 H 0.40657 0.17491 0.2721 0.0
H337 H 0.34666 0.35791 0.24998 0.0
H338 H 0.26793 0.34149 0.27795 0.0
H339 H 0.28333 0.1847 0.25865 0.0
C340 C 0.4659 0.21698 0.20748 0.0
C341 C 0.50245 0.2541 0.20423 0.0
C342 C 0.49099 0.30358 0.21259 0.0
C343 C 0.44348 0.31613 0.22346 0.0
C344 C 0.408 0.27871 0.22604 0.0
C345 C 0.41902 0.22996 0.21886 0.0
C346 C 0.37619 0.19587 0.22667 0.0
C347 C 0.35529 0.17134 0.19726 0.0
C348 C 0.39181 0.15678 0.25086 0.0
C349 C 0.33974 0.23281 0.24005 0.0
C350 C 0.35807 0.28064 0.23867 0.0
C351 C 0.33176 0.32067 0.25096 0.0
C352 C 0.28681 0.31115 0.26648 0.0
C353 C 0.2695 0.26196 0.27005 0.0
C354 C 0.29544 0.22273 0.25571 0.0
H355 H 0.28271 0.76474 0.74884 0.0
H356 H 0.40966 0.80244 0.80592 0.0
H357 H 0.42429 0.87705 0.77412 0.0
H358 H 0.33328 0.81812 0.67307 0.0
H359 H 0.27253 0.8401 0.66222 0.0
H360 H 0.27877 0.78421 0.68491 0.0
H361 H 0.22027 0.82147 0.72655 0.0
H362 H 0.21463 0.87768 0.70439 0.0
H363 H 0.2358 0.88016 0.74403 0.0
H364 H 0.4149 0.95521 0.74375 0.0
H365 H 0.38672 0.02754 0.71299 0.0
H366 H 0.267 0.93879 0.67499 0.0
C367 C 0.31497 0.78742 0.75363 0.0
C368 C 0.3453 0.77768 0.77962 0.0
C369 C 0.38614 0.80918 0.78596 0.0
C370 C 0.39477 0.85165 0.76803 0.0
C371 C 0.36248 0.86192 0.74366 0.0
C372 C 0.32393 0.83025 0.736 0.0
C373 C 0.29139 0.85264 0.71098 0.0
C374 C 0.29419 0.82194 0.68101 0.0
C375 C 0.23736 0.85832 0.72218 0.0
C376 C 0.31628 0.90259 0.70693 0.0
C377 C 0.35749 0.90711 0.72575 0.0
C378 C 0.3835 0.95171 0.72826 0.0
C379 C 0.36705 0.99267 0.71094 0.0
C380 C 0.32511 0.98857 0.69139 0.0
C381 C 0.29988 0.94276 0.68923 0.0
H382 H 0.65044 0.83881 0.29046 0.0
H383 H 0.76153 0.78068 0.2272 0.0
H384 H 0.69689 0.77148 0.18672 0.0
H385 H 0.55523 0.75594 0.26897 0.0
H386 H 0.50589 0.80055 0.27318 0.0
H387 H 0.5615 0.80653 0.29598 0.0
H388 H 0.57413 0.89577 0.275 0.0
H389 H 0.5185 0.89008 0.25208 0.0
H390 H 0.57641 0.90623 0.23368 0.0
H391 H 0.61951 0.76627 0.154 0.0
H392 H 0.53537 0.76045 0.13221 0.0
H393 H 0.47407 0.81911 0.21788 0.0
C394 C 0.66154 0.82488 0.26794 0.0
C395 C 0.71131 0.81098 0.26188 0.0
C396 C 0.72378 0.79181 0.23232 0.0
C397 C 0.68734 0.78661 0.2092 0.0
C398 C 0.63861 0.80041 0.21611 0.0
C399 C 0.62566 0.8189 0.24484 0.0
C400 C 0.57023 0.828 0.24716 0.0
C401 C 0.54685 0.79583 0.27284 0.0
C402 C 0.55918 0.88331 0.25228 0.0
C403 C 0.55373 0.81135 0.21525 0.0
C404 C 0.59385 0.79613 0.19761 0.0
C405 C 0.58792 0.77828 0.16757 0.0
C406 C 0.5398 0.77523 0.1554 0.0
C407 C 0.49788 0.78947 0.17328 0.0
C408 C 0.50523 0.80825 0.20353 0.0
H409 H 0.75032 0.19171 0.75749 0.0
H410 H 0.5935 0.21833 0.7439 0.0
H411 H 0.58721 0.14136 0.713 0.0
H412 H 0.77618 0.12329 0.68171 0.0
H413 H 0.81721 0.08087 0.70141 0.0
H414 H 0.81197 0.14407 0.71454 0.0
H415 H 0.79034 0.11178 0.76953 0.0
H416 H 0.79367 0.04863 0.75643 0.0
H417 H 0.73779 0.07113 0.77463 0.0
H418 H 0.5952 0.05567 0.69114 0.0
H419 H 0.61761 0.96966 0.67729 0.0
H420 H 0.7679 0.99537 0.70961 0.0
C421 C 0.71548 0.18287 0.74624 0.0
C422 C 0.67276 0.21181 0.75186 0.0
C423 C 0.62688 0.19751 0.73875 0.0
C424 C 0.62297 0.15361 0.72147 0.0
C425 C 0.66518 0.12416 0.71798 0.0
C426 C 0.71079 0.13846 0.72969 0.0
C427 C 0.74863 0.09704 0.72677 0.0
C428 C 0.791 0.11222 0.70479 0.0
C429 C 0.76875 0.08124 0.75875 0.0
C430 C 0.7168 0.05671 0.71262 0.0
C431 C 0.66907 0.07338 0.70721 0.0
C432 C 0.63261 0.04242 0.69497 0.0
C433 C 0.64557 0.99352 0.68741 0.0
C434 C 0.69429 0.97569 0.69268 0.0
C435 C 0.73016 0.00772 0.70571 0.0
H436 H 0.02029 0.33155 0.26497 0.0
H437 H 0.94944 0.34537 0.35508 0.0
H438 H 0.86748 0.34889 0.3297 0.0
H439 H 0.93381 0.41381 0.22266 0.0
H440 H 0.93602 0.37587 0.18828 0.0
H441 H 0.98916 0.37918 0.21357 0.0
H442 H 0.98854 0.28339 0.21885 0.0
H443 H 0.93518 0.2798 0.19389 0.0
H444 H 0.93299 0.25265 0.23213 0.0
H445 H 0.79232 0.3405 0.29459 0.0
H446 H 0.73139 0.32871 0.25206 0.0
H447 H 0.85242 0.32413 0.18558 0.0
C448 C 0.98767 0.33641 0.27935 0.0
C449 C 0.99138 0.33819 0.312 0.0
C450 C 0.94765 0.34415 0.32998 0.0
C451 C 0.90083 0.34607 0.3158 0.0
C452 C 0.89837 0.3427 0.28359 0.0
C453 C 0.94073 0.33884 0.26558 0.0
C454 C 0.92804 0.3339 0.23156 0.0
C455 C 0.94793 0.37835 0.21293 0.0
C456 C 0.94732 0.2845 0.21835 0.0
C457 C 0.87199 0.33453 0.23331 0.0
C458 C 0.85537 0.33949 0.26346 0.0
C459 C 0.80489 0.33754 0.2708 0.0
C460 C 0.77058 0.33063 0.24658 0.0
C461 C 0.78707 0.32621 0.2155 0.0
C462 C 0.83845 0.32846 0.209 0.0
H463 H 0.1727 0.28582 0.72265 0.0
H464 H 0.33102 0.25882 0.71655 0.0
H465 H 0.34707 0.33772 0.74396 0.0
H466 H 0.17437 0.40902 0.70692 0.0
H467 H 0.12689 0.42754 0.73401 0.0
H468 H 0.127 0.3656 0.71864 0.0
H469 H 0.12915 0.32867 0.77418 0.0
H470 H 0.12756 0.39057 0.78986 0.0
H471 H 0.1765 0.34857 0.80096 0.0
H472 H 0.34557 0.42619 0.76266 0.0
H473 H 0.32682 0.51099 0.78092 0.0
H474 H 0.16928 0.47811 0.77757 0.0
C475 C 0.21067 0.29567 0.72815 0.0
C476 C 0.25065 0.26626 0.71766 0.0
C477 C 0.29989 0.28047 0.72484 0.0
C478 C 0.30933 0.32543 0.74013 0.0
C479 C 0.26906 0.35494 0.74865 0.0
C480 C 0.22064 0.33987 0.74383 0.0
C481 C 0.18401 0.37924 0.75398 0.0
C482 C 0.15116 0.39634 0.72676 0.0
C483 C 0.15245 0.36065 0.78138 0.0
C484 C 0.21936 0.41973 0.76398 0.0
C485 C 0.26825 0.4051 0.76063 0.0
C486 C 0.30747 0.43763 0.76609 0.0
C487 C 0.29642 0.48589 0.77605 0.0
C488 C 0.24658 0.50097 0.78067 0.0
C489 C 0.2077 0.46739 0.77447 0.0
H490 H 0.2066 0.63676 0.2387 0.0
H491 H 0.2471 0.79236 0.23679 0.0
H492 H 0.16997 0.81299 0.26466 0.0
H493 H 0.08801 0.64937 0.22104 0.0
H494 H 0.06196 0.60288 0.24638 0.0
H495 H 0.12522 0.59751 0.2336 0.0
H496 H 0.15636 0.59407 0.29036 0.0
H497 H 0.09291 0.59744 0.30353 0.0
H498 H 0.13789 0.64173 0.31728 0.0
H499 H 0.08046 0.81869 0.27917 0.0
H500 H 0.99165 0.80749 0.29146 0.0
H501 H 0.00968 0.64797 0.28753 0.0
C502 C 0.2005 0.67484 0.24567 0.0
C503 C 0.23294 0.71293 0.23561 0.0
C504 C 0.2233 0.76246 0.24461 0.0
C505 C 0.1792 0.77461 0.26018 0.0
C506 C 0.14596 0.73662 0.26737 0.0
C507 C 0.15696 0.68745 0.26158 0.0
C508 C 0.11322 0.65415 0.26938 0.0
C509 C 0.09613 0.62425 0.2409 0.0
C510 C 0.12584 0.61982 0.29678 0.0
C511 C 0.07491 0.69253 0.27856 0.0
C512 C 0.0946 0.73987 0.27719 0.0
C513 C 0.06508 0.78176 0.28124 0.0
C514 C 0.01452 0.77508 0.28769 0.0
C515 C 0.99399 0.72693 0.2903 0.0
C516 C 0.02468 0.68515 0.28586 0.0
H517 H 0.86152 0.47806 0.76974 0.0
H518 H 0.70746 0.47679 0.79911 0.0
H519 H 0.69786 0.56318 0.7812 0.0
H520 H 0.88792 0.60873 0.78738 0.0
H521 H 0.92528 0.61756 0.75309 0.0
H522 H 0.92199 0.55736 0.77122 0.0
H523 H 0.89314 0.51855 0.71926 0.0
H524 H 0.89688 0.57845 0.70097 0.0
H525 H 0.83965 0.54387 0.69973 0.0
H526 H 0.70418 0.64937 0.75912 0.0
H527 H 0.72252 0.724 0.72763 0.0
H528 H 0.87037 0.6675 0.7093 0.0
C529 C 0.82599 0.49625 0.77264 0.0
C530 C 0.78533 0.47082 0.78592 0.0
C531 C 0.73909 0.4955 0.78886 0.0
C532 C 0.73337 0.54475 0.77903 0.0
C533 C 0.77406 0.56883 0.76595 0.0
C534 C 0.81928 0.54521 0.76229 0.0
C535 C 0.85562 0.57794 0.74485 0.0
C536 C 0.90035 0.59117 0.76537 0.0
C537 C 0.87227 0.55323 0.7144 0.0
C538 C 0.82345 0.62308 0.73876 0.0
C539 C 0.77696 0.61764 0.75184 0.0
C540 C 0.74053 0.65413 0.74883 0.0
C541 C 0.75135 0.69656 0.73108 0.0
C542 C 0.79782 0.70156 0.71606 0.0
C543 C 0.83455 0.66474 0.7206 0.0
loop_
_geom_bond_atom_site_label_1
_geom_bond_atom_site_label_2
_geom_bond_distance
_geom_bond_site_symmetry_2
_ccdc_geom_bond_type
Mg0 O1 2.028 . S
Mg0 O7 1.986 . S
Mg0 O9 2.114 . S
Mg0 O10 2.251 . S
Mg0 O13 2.010 . S
O1 Mg0 2.028 . S
O1 C4 1.250 . S
O2 Mg3 2.028 . S
O2 C4 1.248 . S
Mg3 O2 2.028 . S
Mg3 O8 2.032 . S
Mg3 O10 2.079 . S
C4 O1 1.250 . S
C4 O2 1.248 . S
C5 O6 1.264 . S
C5 O13 1.249 1_655 S
O6 C5 1.264 . S
O7 Mg0 1.986 . S
O7 C11 1.246 . S
O8 Mg3 2.032 . S
O8 C11 1.259 . S
O9 Mg0 2.114 . S
O9 C12 1.252 . S
O10 Mg0 2.251 . S
O10 Mg3 2.079 . S
O10 C12 1.273 . S
C11 O7 1.246 . S
C11 O8 1.259 . S
C12 O9 1.252 . S
C12 O10 1.273 . S
O13 Mg0 2.010 . S
O13 C5 1.249 1_455 S
Mg14 O15 2.028 . S
Mg14 O21 1.986 . S
Mg14 O23 2.114 . S
Mg14 O24 2.251 . S
Mg14 O27 2.010 . S
O15 Mg14 2.028 . S
O15 C18 1.250 . S
O16 Mg17 2.028 . S
O16 C18 1.248 . S
Mg17 O16 2.028 . S
Mg17 O22 2.032 . S
Mg17 O24 2.079 . S
C18 O15 1.250 . S
C18 O16 1.248 . S
C19 O20 1.264 . S
C19 O27 1.249 . S
O20 C19 1.264 . S
O21 Mg14 1.986 . S
O21 C25 1.246 . S
O22 Mg17 2.032 . S
O22 C25 1.259 . S
O23 Mg14 2.114 . S
O23 C26 1.252 . S
O24 Mg14 2.251 . S
O24 Mg17 2.079 . S
O24 C26 1.273 . S
C25 O21 1.246 . S
C25 O22 1.259 . S
C26 O23 1.252 . S
C26 O24 1.273 . S
O27 Mg14 2.010 . S
O27 C19 1.249 . S
Mg28 O29 2.028 . S
Mg28 O35 1.986 . S
Mg28 O37 2.114 . S
Mg28 O38 2.251 . S
Mg28 O41 2.010 . S
O29 Mg28 2.028 . S
O29 C32 1.250 . S
O30 Mg31 2.028 . S
O30 C32 1.248 . S
Mg31 O30 2.028 . S
Mg31 O36 2.032 . S
Mg31 O38 2.079 . S
C32 O29 1.250 . S
C32 O30 1.248 . S
C33 O34 1.264 . S
C33 O41 1.249 1_455 S
O34 C33 1.264 . S
O35 Mg28 1.986 . S
O35 C39 1.246 . S
O36 Mg31 2.032 . S
O36 C39 1.259 . S
O37 Mg28 2.114 . S
O37 C40 1.252 . S
O38 Mg28 2.251 . S
O38 Mg31 2.079 . S
O38 C40 1.273 . S
C39 O35 1.246 . S
C39 O36 1.259 . S
C40 O37 1.252 . S
C40 O38 1.273 . S
O41 Mg28 2.010 . S
O41 C33 1.249 1_655 S
Mg42 O43 2.028 . S
Mg42 O49 1.986 . S
Mg42 O51 2.114 . S
Mg42 O52 2.251 . S
Mg42 O55 2.010 . S
O43 Mg42 2.028 . S
O43 C46 1.250 . S
O44 Mg45 2.028 . S
O44 C46 1.248 . S
Mg45 O44 2.028 . S
Mg45 O50 2.032 . S
Mg45 O52 2.079 . S
C46 O43 1.250 . S
C46 O44 1.248 . S
C47 O48 1.264 . S
C47 O55 1.249 . S
O48 C47 1.264 . S
O49 Mg42 1.986 . S
O49 C53 1.246 . S
O50 Mg45 2.032 . S
O50 C53 1.259 . S
O51 Mg42 2.114 . S
O51 C54 1.252 . S
O52 Mg42 2.251 . S
O52 Mg45 2.079 . S
O52 C54 1.273 . S
C53 O49 1.246 . S
C53 O50 1.259 . S
C54 O51 1.252 . S
C54 O52 1.273 . S
O55 Mg42 2.010 . S
O55 C47 1.249 . S
Mg56 O57 2.028 . S
Mg56 O63 1.986 . S
Mg56 O65 2.114 . S
Mg56 O66 2.251 . S
Mg56 O69 2.010 . S
O57 Mg56 2.028 . S
O57 C60 1.250 . S
O58 Mg59 2.028 . S
O58 C60 1.248 . S
Mg59 O58 2.028 . S
Mg59 O64 2.032 . S
Mg59 O66 2.079 . S
C60 O57 1.250 . S
C60 O58 1.248 . S
C61 O62 1.264 . S
C61 O69 1.249 . S
O62 C61 1.264 . S
O63 Mg56 1.986 . S
O63 C67 1.246 . S
O64 Mg59 2.032 . S
O64 C67 1.259 . S
O65 Mg56 2.114 . S
O65 C68 1.252 . S
O66 Mg56 2.251 . S
O66 Mg59 2.079 . S
O66 C68 1.273 . S
C67 O63 1.246 . S
C67 O64 1.259 . S
C68 O65 1.252 . S
C68 O66 1.273 . S
O69 Mg56 2.010 . S
O69 C61 1.249 . S
Mg70 O71 2.028 . S
Mg70 O77 1.986 . S
Mg70 O79 2.114 . S
Mg70 O80 2.251 . S
Mg70 O83 2.010 . S
O71 Mg70 2.028 . S
O71 C74 1.250 . S
O72 Mg73 2.028 . S
O72 C74 1.248 . S
Mg73 O72 2.028 . S
Mg73 O78 2.032 . S
Mg73 O80 2.079 . S
C74 O71 1.250 . S
C74 O72 1.248 . S
C75 O76 1.264 . S
C75 O83 1.249 1_565 S
O76 C75 1.264 . S
O77 Mg70 1.986 . S
O77 C81 1.246 . S
O78 Mg73 2.032 . S
O78 C81 1.259 . S
O79 Mg70 2.114 . S
O79 C82 1.252 . S
O80 Mg70 2.251 . S
O80 Mg73 2.079 . S
O80 C82 1.273 . S
C81 O77 1.246 . S
C81 O78 1.259 . S
C82 O79 1.252 . S
C82 O80 1.273 . S
O83 Mg70 2.010 . S
O83 C75 1.249 1_545 S
Mg84 O85 2.028 . S
Mg84 O91 1.986 . S
Mg84 O93 2.114 . S
Mg84 O94 2.251 . S
Mg84 O97 2.010 . S
O85 Mg84 2.028 . S
O85 C88 1.250 . S
O86 Mg87 2.028 . S
O86 C88 1.248 . S
Mg87 O86 2.028 . S
Mg87 O92 2.032 . S
Mg87 O94 2.079 . S
C88 O85 1.250 . S
C88 O86 1.248 . S
C89 O90 1.264 . S
C89 O97 1.249 . S
O90 C89 1.264 . S
O91 Mg84 1.986 . S
O91 C95 1.246 . S
O92 Mg87 2.032 . S
O92 C95 1.259 . S
O93 Mg84 2.114 . S
O93 C96 1.252 . S
O94 Mg84 2.251 . S
O94 Mg87 2.079 . S
O94 C96 1.273 . S
C95 O91 1.246 . S
C95 O92 1.259 . S
C96 O93 1.252 . S
C96 O94 1.273 . S
O97 Mg84 2.010 . S
O97 C89 1.249 . S
Mg98 O99 2.028 . S
Mg98 O105 1.986 . S
Mg98 O107 2.114 . S
Mg98 O108 2.251 . S
Mg98 O111 2.010 . S
O99 Mg98 2.028 . S
O99 C102 1.250 . S
O100 Mg101 2.028 . S
O100 C102 1.248 . S
Mg101 O100 2.028 . S
Mg101 O106 2.032 . S
Mg101 O108 2.079 . S
C102 O99 1.250 . S
C102 O100 1.248 . S
C103 O104 1.264 . S
C103 O111 1.249 1_545 S
O104 C103 1.264 . S
O105 Mg98 1.986 . S
O105 C109 1.246 . S
O106 Mg101 2.032 . S
O106 C109 1.259 . S
O107 Mg98 2.114 . S
O107 C110 1.252 . S
O108 Mg98 2.251 . S
O108 Mg101 2.079 . S
O108 C110 1.273 . S
C109 O105 1.246 . S
C109 O106 1.259 . S
C110 O107 1.252 . S
C110 O108 1.273 . S
O111 Mg98 2.010 . S
O111 C103 1.249 1_565 S
H112 C124 0.930 . S
H113 C126 0.930 . S
H114 C127 0.930 . S
H115 C131 0.959 . S
H116 C131 0.959 . S
H117 C131 0.961 . S
H118 C132 0.960 . S
H119 C132 0.961 . S
H120 C132 0.959 . S
H121 C135 0.929 . S
H122 C136 0.931 . S
H123 C138 0.930 . S
C124 H112 0.930 . S
C124 C125 1.399 . S
C124 C129 1.399 . S
C125 C124 1.399 . S
C125 C126 1.376 . S
C126 H113 0.930 . S
C126 C125 1.376 . S
C126 C127 1.388 . S
C127 H114 0.930 . S
C127 C126 1.388 . S
C127 C128 1.390 . S
C128 C127 1.390 . S
C128 C129 1.394 . S
C128 C134 1.465 1_445 S
C129 C124 1.399 . S
C129 C128 1.394 . S
C129 C130 1.516 1_455 S
C130 C129 1.516 1_655 S
C130 C131 1.502 . S
C130 C132 1.561 . S
C130 C133 1.526 1_545 S
C131 H115 0.959 . S
C131 H116 0.959 . S
C131 H117 0.961 . S
C131 C130 1.502 . S
C132 H118 0.960 . S
C132 H119 0.961 . S
C132 H120 0.959 . S
C132 C130 1.561 . S
C133 C130 1.526 1_565 S
C133 C134 1.396 . S
C133 C138 1.390 . S
C134 C128 1.465 1_665 S
C134 C133 1.396 . S
C134 C135 1.399 1_655 S
C135 H121 0.929 . S
C135 C134 1.399 1_455 S
C135 C136 1.385 1_455 S
C136 H122 0.931 . S
C136 C135 1.385 1_655 S
C136 C137 1.389 . S
C137 C136 1.389 . S
C137 C138 1.387 . S
C138 H123 0.930 . S
C138 C133 1.390 . S
C138 C137 1.387 . S
H139 C151 0.930 . S
H140 C153 0.930 . S
H141 C154 0.930 . S
H142 C158 0.959 . S
H143 C158 0.959 . S
H144 C158 0.961 . S
H145 C159 0.960 . S
H146 C159 0.961 . S
H147 C159 0.959 . S
H148 C162 0.929 . S
H149 C163 0.931 . S
H150 C165 0.930 . S
C151 H139 0.930 . S
C151 C152 1.399 . S
C151 C156 1.399 . S
C152 C151 1.399 . S
C152 C153 1.376 . S
C153 H140 0.930 . S
C153 C152 1.376 . S
C153 C154 1.388 . S
C154 H141 0.930 . S
C154 C153 1.388 . S
C154 C155 1.390 . S
C155 C154 1.390 . S
C155 C156 1.394 . S
C155 C161 1.465 . S
C156 C151 1.399 . S
C156 C155 1.394 . S
C156 C157 1.516 . S
C157 C156 1.516 . S
C157 C158 1.502 . S
C157 C159 1.561 . S
C157 C160 1.526 . S
C158 H142 0.959 . S
C158 H143 0.959 . S
C158 H144 0.961 . S
C158 C157 1.502 . S
C159 H145 0.960 . S
C159 H146 0.961 . S
C159 H147 0.959 . S
C159 C157 1.561 . S
C160 C157 1.526 . S
C160 C161 1.396 . S
C160 C165 1.390 . S
C161 C155 1.465 . S
C161 C160 1.396 . S
C161 C162 1.399 . S
C162 H148 0.929 . S
C162 C161 1.399 . S
C162 C163 1.385 . S
C163 H149 0.931 . S
C163 C162 1.385 . S
C163 C164 1.389 . S
C164 C163 1.389 . S
C164 C165 1.387 . S
C165 H150 0.930 . S
C165 C160 1.390 . S
C165 C164 1.387 . S
H166 C178 0.930 . S
H167 C180 0.930 . S
H168 C181 0.930 . S
H169 C185 0.959 . S
H170 C185 0.959 . S
H171 C185 0.961 . S
H172 C186 0.960 . S
H173 C186 0.961 . S
H174 C186 0.959 . S
H175 C189 0.929 . S
H176 C190 0.931 . S
H177 C192 0.930 . S
C178 H166 0.930 . S
C178 C179 1.399 . S
C178 C183 1.399 . S
C179 C178 1.399 . S
C179 C180 1.376 . S
C180 H167 0.930 . S
C180 C179 1.376 . S
C180 C181 1.388 . S
C181 H168 0.930 . S
C181 C180 1.388 . S
C181 C182 1.390 . S
C182 C181 1.390 . S
C182 C183 1.394 . S
C182 C188 1.465 . S
C183 C178 1.399 . S
C183 C182 1.394 . S
C183 C184 1.516 . S
C184 C183 1.516 . S
C184 C185 1.502 . S
C184 C186 1.561 . S
C184 C187 1.526 . S
C185 H169 0.959 . S
C185 H170 0.959 . S
C185 H171 0.961 . S
C185 C184 1.502 . S
C186 H172 0.960 . S
C186 H173 0.961 . S
C186 H174 0.959 . S
C186 C184 1.561 . S
C187 C184 1.526 . S
C187 C188 1.396 . S
C187 C192 1.390 . S
C188 C182 1.465 . S
C188 C187 1.396 . S
C188 C189 1.399 . S
C189 H175 0.929 . S
C189 C188 1.399 . S
C189 C190 1.385 . S
C190 H176 0.931 . S
C190 C189 1.385 . S
C190 C191 1.389 . S
C191 C190 1.389 . S
C191 C192 1.387 . S
C192 H177 0.930 . S
C192 C187 1.390 . S
C192 C191 1.387 . S
H193 C205 0.930 . S
H194 C207 0.930 . S
H195 C208 0.930 1_565 S
H196 C212 0.959 . S
H197 C212 0.959 . S
H198 C212 0.961 . S
H199 C213 0.960 1_545 S
H200 C213 0.961 1_655 S
H201 C213 0.959 . S
H202 C216 0.929 . S
H203 C217 0.931 . S
H204 C219 0.930 . S
C205 H193 0.930 . S
C205 C206 1.399 . S
C205 C210 1.399 . S
C206 C205 1.399 . S
C206 C207 1.376 . S
C207 H194 0.930 . S
C207 C206 1.376 . S
C207 C208 1.388 . S
C208 H195 0.930 1_545 S
C208 C207 1.388 . S
C208 C209 1.390 . S
C209 C208 1.390 . S
C209 C210 1.394 . S
C209 C215 1.465 1_445 S
C210 C205 1.399 . S
C210 C209 1.394 . S
C210 C211 1.516 1_455 S
C211 C210 1.516 1_655 S
C211 C212 1.502 . S
C211 C213 1.561 1_645 S
C211 C214 1.526 1_545 S
C212 H196 0.959 . S
C212 H197 0.959 . S
C212 H198 0.961 . S
C212 C211 1.502 . S
C213 H199 0.960 1_565 S
C213 H200 0.961 1_455 S
C213 H201 0.959 . S
C213 C211 1.561 1_465 S
C214 C211 1.526 1_565 S
C214 C215 1.396 . S
C214 C219 1.390 . S
C215 C209 1.465 1_665 S
C215 C214 1.396 . S
C215 C216 1.399 . S
C216 H202 0.929 . S
C216 C215 1.399 . S
C216 C217 1.385 . S
C217 H203 0.931 . S
C217 C216 1.385 . S
C217 C218 1.389 . S
C218 C217 1.389 . S
C218 C219 1.387 . S
C219 H204 0.930 . S
C219 C214 1.390 . S
C219 C218 1.387 . S
H220 C232 0.930 . S
H221 C234 0.930 . S
H222 C235 0.930 . S
H223 C239 0.959 . S
H224 C239 0.959 . S
H225 C239 0.961 . S
H226 C240 0.960 . S
H227 C240 0.961 . S
H228 C240 0.959 . S
H229 C243 0.929 . S
H230 C244 0.931 . S
H231 C246 0.930 . S
C232 H220 0.930 . S
C232 C233 1.399 . S
C232 C237 1.399 . S
C233 C232 1.399 . S
C233 C234 1.376 . S
C234 H221 0.930 . S
C234 C233 1.376 . S
C234 C235 1.388 . S
C235 H222 0.930 . S
C235 C234 1.388 . S
C235 C236 1.390 . S
C236 C235 1.390 . S
C236 C237 1.394 . S
C236 C242 1.465 . S
C237 C232 1.399 . S
C237 C236 1.394 . S
C237 C238 1.516 . S
C238 C237 1.516 . S
C238 C239 1.502 . S
C238 C240 1.561 . S
C238 C241 1.526 . S
C239 H223 0.959 . S
C239 H224 0.959 . S
C239 H225 0.961 . S
C239 C238 1.502 . S
C240 H226 0.960 . S
C240 H227 0.961 . S
C240 H228 0.959 . S
C240 C238 1.561 . S
C241 C238 1.526 . S
C241 C242 1.396 . S
C241 C246 1.390 . S
C242 C236 1.465 . S
C242 C241 1.396 . S
C242 C243 1.399 . S
C243 H229 0.929 . S
C243 C242 1.399 . S
C243 C244 1.385 . S
C244 H230 0.931 . S
C244 C243 1.385 . S
C244 C245 1.389 . S
C245 C244 1.389 . S
C245 C246 1.387 . S
C246 H231 0.930 . S
C246 C241 1.390 . S
C246 C245 1.387 . S
H247 C259 0.930 . S
H248 C261 0.930 . S
H249 C262 0.908 1_554 S
H250 C266 0.959 . S
H251 C266 0.959 . S
H252 C266 0.961 . S
H253 C267 0.960 . S
H254 C267 0.961 . S
H255 C267 0.959 . S
H256 C270 0.929 . S
H257 C271 0.931 . S
H258 C273 0.930 . S
C259 H247 0.930 . S
C259 C260 1.399 . S
C259 C264 1.399 . S
C260 C259 1.399 . S
C260 C261 1.376 . S
C261 H248 0.930 . S
C261 C260 1.376 . S
C261 C262 1.388 . S
C262 H249 0.908 1_556 S
C262 C261 1.388 . S
C262 C263 1.390 . S
C263 C262 1.390 . S
C263 C264 1.394 . S
C263 C269 1.465 1_556 S
C264 C259 1.399 . S
C264 C263 1.394 . S
C264 C265 1.516 . S
C265 C264 1.516 . S
C265 C266 1.502 . S
C265 C267 1.561 . S
C265 C268 1.526 1_556 S
C266 H250 0.959 . S
C266 H251 0.959 . S
C266 H252 0.961 . S
C266 C265 1.502 . S
C267 H253 0.960 . S
C267 H254 0.961 . S
C267 H255 0.959 . S
C267 C265 1.561 . S
C268 C265 1.526 1_554 S
C268 C269 1.396 . S
C268 C273 1.390 . S
C269 C263 1.465 1_554 S
C269 C268 1.396 . S
C269 C270 1.399 . S
C270 H256 0.929 . S
C270 C269 1.399 . S
C270 C271 1.385 . S
C271 H257 0.931 . S
C271 C270 1.385 . S
C271 C272 1.389 . S
C272 C271 1.389 . S
C272 C273 1.387 . S
C273 H258 0.930 . S
C273 C268 1.390 . S
C273 C272 1.387 . S
H274 C286 0.930 . S
H275 C288 0.930 . S
H276 C289 0.930 . S
H277 C293 0.959 . S
H278 C293 0.959 . S
H279 C293 0.961 . S
H280 C294 0.960 . S
H281 C294 0.961 . S
H282 C294 0.959 . S
H283 C297 0.929 . S
H284 C298 0.931 . S
H285 C300 0.930 . S
C286 H274 0.930 . S
C286 C287 1.399 . S
C286 C291 1.399 . S
C287 C286 1.399 . S
C287 C288 1.376 . S
C288 H275 0.930 . S
C288 C287 1.376 . S
C288 C289 1.388 . S
C289 H276 0.930 . S
C289 C288 1.388 . S
C289 C290 1.390 . S
C290 C289 1.390 . S
C290 C291 1.394 . S
C290 C296 1.465 . S
C291 C286 1.399 . S
C291 C290 1.394 . S
C291 C292 1.516 . S
C292 C291 1.516 . S
C292 C293 1.502 . S
C292 C294 1.561 . S
C292 C295 1.526 . S
C293 H277 0.959 . S
C293 H278 0.959 . S
C293 H279 0.961 . S
C293 C292 1.502 . S
C294 H280 0.960 . S
C294 H281 0.961 . S
C294 H282 0.959 . S
C294 C292 1.561 . S
C295 C292 1.526 . S
C295 C296 1.396 . S
C295 C300 1.390 . S
C296 C290 1.465 . S
C296 C295 1.396 . S
C296 C297 1.399 . S
C297 H283 0.929 . S
C297 C296 1.399 . S
C297 C298 1.385 . S
C298 H284 0.931 . S
C298 C297 1.385 . S
C298 C299 1.389 . S
C299 C298 1.389 . S
C299 C300 1.387 . S
C300 H285 0.930 . S
C300 C295 1.390 . S
C300 C299 1.387 . S
H301 C313 0.930 . S
H302 C315 0.930 . S
H303 C316 0.930 . S
H304 C320 0.959 . S
H305 C320 0.959 . S
H306 C320 0.961 . S
H307 C321 0.960 . S
H308 C321 0.961 . S
H309 C321 0.959 . S
H310 C324 0.919 1_556 S
H311 C325 0.931 . S
H312 C327 0.930 . S
C313 H301 0.930 . S
C313 C314 1.399 . S
C313 C318 1.399 . S
C314 C313 1.399 . S
C314 C315 1.376 . S
C315 H302 0.930 . S
C315 C314 1.376 . S
C315 C316 1.388 . S
C316 H303 0.930 . S
C316 C315 1.388 . S
C316 C317 1.390 . S
C317 C316 1.390 . S
C317 C318 1.394 . S
C317 C323 1.465 1_556 S
C318 C313 1.399 . S
C318 C317 1.394 . S
C318 C319 1.516 1_556 S
C319 C318 1.516 1_554 S
C319 C320 1.502 . S
C319 C321 1.561 . S
C319 C322 1.526 . S
C320 H304 0.959 . S
C320 H305 0.959 . S
C320 H306 0.961 . S
C320 C319 1.502 . S
C321 H307 0.960 . S
C321 H308 0.961 . S
C321 H309 0.959 . S
C321 C319 1.561 . S
C322 C319 1.526 . S
C322 C323 1.396 . S
C322 C327 1.390 . S
C323 C317 1.465 1_554 S
C323 C322 1.396 . S
C323 C324 1.399 . S
C324 H310 0.919 1_554 S
C324 C323 1.399 . S
C324 C325 1.385 . S
C325 H311 0.931 . S
C325 C324 1.385 . S
C325 C326 1.389 . S
C326 C325 1.389 . S
C326 C327 1.387 . S
C327 H312 0.930 . S
C327 C322 1.390 . S
C327 C326 1.387 . S
H328 C340 0.930 . S
H329 C342 0.930 . S
H330 C343 0.930 . S
H331 C347 0.959 . S
H332 C347 0.959 . S
H333 C347 0.961 . S
H334 C348 0.960 . S
H335 C348 0.961 . S
H336 C348 0.959 . S
H337 C351 0.929 . S
H338 C352 0.931 . S
H339 C354 0.930 . S
C340 H328 0.930 . S
C340 C341 1.399 . S
C340 C345 1.399 . S
C341 C340 1.399 . S
C341 C342 1.376 . S
C342 H329 0.930 . S
C342 C341 1.376 . S
C342 C343 1.388 . S
C343 H330 0.930 . S
C343 C342 1.388 . S
C343 C344 1.390 . S
C344 C343 1.390 . S
C344 C345 1.394 . S
C344 C350 1.465 . S
C345 C340 1.399 . S
C345 C344 1.394 . S
C345 C346 1.516 . S
C346 C345 1.516 . S
C346 C347 1.502 . S
C346 C348 1.561 . S
C346 C349 1.526 . S
C347 H331 0.959 . S
C347 H332 0.959 . S
C347 H333 0.961 . S
C347 C346 1.502 . S
C348 H334 0.960 . S
C348 H335 0.961 . S
C348 H336 0.959 . S
C348 C346 1.561 . S
C349 C346 1.526 . S
C349 C350 1.396 . S
C349 C354 1.390 . S
C350 C344 1.465 . S
C350 C349 1.396 . S
C350 C351 1.399 . S
C351 H337 0.929 . S
C351 C350 1.399 . S
C351 C352 1.385 . S
C352 H338 0.931 . S
C352 C351 1.385 . S
C352 C353 1.389 . S
C353 C352 1.389 . S
C353 C354 1.387 . S
C354 H339 0.930 . S
C354 C349 1.390 . S
C354 C353 1.387 . S
H355 C367 0.930 . S
H356 C369 0.930 . S
H357 C370 0.930 . S
H358 C374 0.959 . S
H359 C374 0.959 . S
H360 C374 0.961 . S
H361 C375 0.960 . S
H362 C375 0.961 . S
H363 C375 0.959 . S
H364 C378 0.929 . S
H365 C379 0.931 . S
H366 C381 0.930 . S
C367 H355 0.930 . S
C367 C368 1.399 . S
C367 C372 1.399 . S
C368 C367 1.399 . S
C368 C369 1.376 . S
C369 H356 0.930 . S
C369 C368 1.376 . S
C369 C370 1.388 . S
C370 H357 0.930 . S
C370 C369 1.388 . S
C370 C371 1.390 . S
C371 C370 1.390 . S
C371 C372 1.394 . S
C371 C377 1.465 . S
C372 C367 1.399 . S
C372 C371 1.394 . S
C372 C373 1.516 . S
C373 C372 1.516 . S
C373 C374 1.502 . S
C373 C375 1.561 . S
C373 C376 1.526 . S
C374 H358 0.959 . S
C374 H359 0.959 . S
C374 H360 0.961 . S
C374 C373 1.502 . S
C375 H361 0.960 . S
C375 H362 0.961 . S
C375 H363 0.959 . S
C375 C373 1.561 . S
C376 C373 1.526 . S
C376 C377 1.396 . S
C376 C381 1.390 . S
C377 C371 1.465 . S
C377 C376 1.396 . S
C377 C378 1.399 . S
C378 H364 0.929 . S
C378 C377 1.399 . S
C378 C379 1.385 . S
C379 H365 0.931 . S
C379 C378 1.385 . S
C379 C380 1.389 . S
C380 C379 1.389 . S
C380 C381 1.387 . S
C381 H366 0.930 . S
C381 C376 1.390 . S
C381 C380 1.387 . S
H382 C394 0.930 . S
H383 C396 0.930 . S
H384 C397 0.930 . S
H385 C401 0.959 . S
H386 C401 0.959 . S
H387 C401 0.961 . S
H388 C402 0.960 . S
H389 C402 0.961 . S
H390 C402 0.959 . S
H391 C405 0.929 . S
H392 C406 0.931 . S
H393 C408 0.930 . S
C394 H382 0.930 . S
C394 C395 1.399 . S
C394 C399 1.399 . S
C395 C394 1.399 . S
C395 C396 1.376 . S
C396 H383 0.930 . S
C396 C395 1.376 . S
C396 C397 1.388 . S
C397 H384 0.930 . S
C397 C396 1.388 . S
C397 C398 1.390 . S
C398 C397 1.390 . S
C398 C399 1.394 . S
C398 C404 1.465 . S
C399 C394 1.399 . S
C399 C398 1.394 . S
C399 C400 1.516 . S
C400 C399 1.516 . S
C400 C401 1.502 . S
C400 C402 1.561 . S
C400 C403 1.526 . S
C401 H385 0.959 . S
C401 H386 0.959 . S
C401 H387 0.961 . S
C401 C400 1.502 . S
C402 H388 0.960 . S
C402 H389 0.961 . S
C402 H390 0.959 . S
C402 C400 1.561 . S
C403 C400 1.526 . S
C403 C404 1.396 . S
C403 C408 1.390 . S
C404 C398 1.465 . S
C404 C403 1.396 . S
C404 C405 1.399 . S
C405 H391 0.929 . S
C405 C404 1.399 . S
C405 C406 1.385 . S
C406 H392 0.931 . S
C406 C405 1.385 . S
C406 C407 1.389 . S
C407 C406 1.389 . S
C407 C408 1.387 . S
C408 H393 0.930 . S
C408 C403 1.390 . S
C408 C407 1.387 . S
H409 C421 0.930 . S
H410 C423 0.930 . S
H411 C424 0.930 . S
H412 C428 0.959 . S
H413 C428 0.959 . S
H414 C428 0.961 . S
H415 C429 0.960 . S
H416 C429 0.961 . S
H417 C429 0.959 . S
H418 C432 0.929 . S
H419 C433 0.931 . S
H420 C435 0.930 . S
C421 H409 0.930 . S
C421 C422 1.399 . S
C421 C426 1.399 . S
C422 C421 1.399 . S
C422 C423 1.376 . S
C423 H410 0.930 . S
C423 C422 1.376 . S
C423 C424 1.388 . S
C424 H411 0.930 . S
C424 C423 1.388 . S
C424 C425 1.390 . S
C425 C424 1.390 . S
C425 C426 1.394 . S
C425 C431 1.465 . S
C426 C421 1.399 . S
C426 C425 1.394 . S
C426 C427 1.516 . S
C427 C426 1.516 . S
C427 C428 1.502 . S
C427 C429 1.561 . S
C427 C430 1.526 . S
C428 H412 0.959 . S
C428 H413 0.959 . S
C428 H414 0.961 . S
C428 C427 1.502 . S
C429 H415 0.960 . S
C429 H416 0.961 . S
C429 H417 0.959 . S
C429 C427 1.561 . S
C430 C427 1.526 . S
C430 C431 1.396 . S
C430 C435 1.390 . S
C431 C425 1.465 . S
C431 C430 1.396 . S
C431 C432 1.399 . S
C432 H418 0.929 . S
C432 C431 1.399 . S
C432 C433 1.385 . S
C433 H419 0.931 . S
C433 C432 1.385 . S
C433 C434 1.389 . S
C434 C433 1.389 . S
C434 C435 1.387 . S
C435 H420 0.930 . S
C435 C430 1.390 . S
C435 C434 1.387 . S
H436 C448 0.930 . S
H437 C450 0.930 . S
H438 C451 0.930 . S
H439 C455 0.959 . S
H440 C455 0.959 . S
H441 C455 0.961 . S
H442 C456 0.960 . S
H443 C456 0.961 . S
H444 C456 0.959 . S
H445 C459 0.929 . S
H446 C460 0.931 . S
H447 C462 0.930 . S
C448 H436 0.930 . S
C448 C449 1.399 . S
C448 C453 1.399 . S
C449 C448 1.399 . S
C449 C450 1.376 . S
C450 H437 0.930 . S
C450 C449 1.376 . S
C450 C451 1.388 . S
C451 H438 0.930 . S
C451 C450 1.388 . S
C451 C452 1.390 . S
C452 C451 1.390 . S
C452 C453 1.394 . S
C452 C458 1.465 . S
C453 C448 1.399 . S
C453 C452 1.394 . S
C453 C454 1.516 . S
C454 C453 1.516 . S
C454 C455 1.502 . S
C454 C456 1.561 . S
C454 C457 1.526 . S
C455 H439 0.959 . S
C455 H440 0.959 . S
C455 H441 0.961 . S
C455 C454 1.502 . S
C456 H442 0.960 . S
C456 H443 0.961 . S
C456 H444 0.959 . S
C456 C454 1.561 . S
C457 C454 1.526 . S
C457 C458 1.396 . S
C457 C462 1.390 . S
C458 C452 1.465 . S
C458 C457 1.396 . S
C458 C459 1.399 . S
C459 H445 0.929 . S
C459 C458 1.399 . S
C459 C460 1.385 . S
C460 H446 0.931 . S
C460 C459 1.385 . S
C460 C461 1.389 . S
C461 C460 1.389 . S
C461 C462 1.387 . S
C462 H447 0.930 . S
C462 C457 1.390 . S
C462 C461 1.387 . S
H463 C475 0.930 . S
H464 C477 0.930 . S
H465 C478 0.930 . S
H466 C482 0.959 . S
H467 C482 0.959 . S
H468 C482 0.961 . S
H469 C483 0.960 . S
H470 C483 0.961 . S
H471 C483 0.959 . S
H472 C486 0.929 . S
H473 C487 0.931 . S
H474 C489 0.930 . S
C475 H463 0.930 . S
C475 C476 1.399 . S
C475 C480 1.399 . S
C476 C475 1.399 . S
C476 C477 1.376 . S
C477 H464 0.930 . S
C477 C476 1.376 . S
C477 C478 1.388 . S
C478 H465 0.930 . S
C478 C477 1.388 . S
C478 C479 1.390 . S
C479 C478 1.390 . S
C479 C480 1.394 . S
C479 C485 1.465 . S
C480 C475 1.399 . S
C480 C479 1.394 . S
C480 C481 1.516 . S
C481 C480 1.516 . S
C481 C482 1.502 . S
C481 C483 1.561 . S
C481 C484 1.526 . S
C482 H466 0.959 . S
C482 H467 0.959 . S
C482 H468 0.961 . S
C482 C481 1.502 . S
C483 H469 0.960 . S
C483 H470 0.961 . S
C483 H471 0.959 . S
C483 C481 1.561 . S
C484 C481 1.526 . S
C484 C485 1.396 . S
C484 C489 1.390 . S
C485 C479 1.465 . S
C485 C484 1.396 . S
C485 C486 1.399 . S
C486 H472 0.929 . S
C486 C485 1.399 . S
C486 C487 1.385 . S
C487 H473 0.931 . S
C487 C486 1.385 . S
C487 C488 1.389 . S
C488 C487 1.389 . S
C488 C489 1.387 . S
C489 H474 0.930 . S
C489 C484 1.390 . S
C489 C488 1.387 . S
H490 C502 0.930 . S
H491 C504 0.930 . S
H492 C505 0.930 . S
H493 C509 0.959 . S
H494 C509 0.959 . S
H495 C509 0.961 . S
H496 C510 0.960 . S
H497 C510 0.961 . S
H498 C510 0.959 . S
H499 C513 0.929 . S
H500 C514 0.931 . S
H501 C516 0.930 . S
C502 H490 0.930 . S
C502 C503 1.399 . S
C502 C507 1.399 . S
C503 C502 1.399 . S
C503 C504 1.376 . S
C504 H491 0.930 . S
C504 C503 1.376 . S
C504 C505 1.388 . S
C505 H492 0.930 . S
C505 C504 1.388 . S
C505 C506 1.390 . S
C506 C505 1.390 . S
C506 C507 1.394 . S
C506 C512 1.465 . S
C507 C502 1.399 . S
C507 C506 1.394 . S
C507 C508 1.516 . S
C508 C507 1.516 . S
C508 C509 1.502 . S
C508 C510 1.561 . S
C508 C511 1.526 . S
C509 H493 0.959 . S
C509 H494 0.959 . S
C509 H495 0.961 . S
C509 C508 1.502 . S
C510 H496 0.960 . S
C510 H497 0.961 . S
C510 H498 0.959 . S
C510 C508 1.561 . S
C511 C508 1.526 . S
C511 C512 1.396 . S
C511 C516 1.390 . S
C512 C506 1.465 . S
C512 C511 1.396 . S
C512 C513 1.399 . S
C513 H499 0.929 . S
C513 C512 1.399 . S
C513 C514 1.385 . S
C514 H500 0.931 . S
C514 C513 1.385 . S
C514 C515 1.389 . S
C515 C514 1.389 . S
C515 C516 1.387 . S
C516 H501 0.930 . S
C516 C511 1.390 . S
C516 C515 1.387 . S
H517 C529 0.930 . S
H518 C531 0.930 . S
H519 C532 0.930 . S
H520 C536 0.959 . S
H521 C536 0.959 . S
H522 C536 0.961 . S
H523 C537 0.960 . S
H524 C537 0.961 . S
H525 C537 0.959 . S
H526 C540 0.929 . S
H527 C541 0.931 . S
H528 C543 0.930 . S
C529 H517 0.930 . S
C529 C530 1.399 . S
C529 C534 1.399 . S
C530 C529 1.399 . S
C530 C531 1.376 . S
C531 H518 0.930 . S
C531 C530 1.376 . S
C531 C532 1.388 . S
C532 H519 0.930 . S
C532 C531 1.388 . S
C532 C533 1.390 . S
C533 C532 1.390 . S
C533 C534 1.394 . S
C533 C539 1.465 . S
C534 C529 1.399 . S
C534 C533 1.394 . S
C534 C535 1.516 . S
C535 C534 1.516 . S
C535 C536 1.502 . S
C535 C537 1.561 . S
C535 C538 1.526 . S
C536 H520 0.959 . S
C536 H521 0.959 . S
C536 H522 0.961 . S
C536 C535 1.502 . S
C537 H523 0.960 . S
C537 H524 0.961 . S
C537 H525 0.959 . S
C537 C535 1.561 . S
C538 C535 1.526 . S
C538 C539 1.396 . S
C538 C543 1.390 . S
C539 C533 1.465 . S
C539 C538 1.396 . S
C539 C540 1.399 . S
C540 H526 0.929 . S
C540 C539 1.399 . S
C540 C541 1.385 . S
C541 H527 0.931 . S
C541 C540 1.385 . S
C541 C542 1.389 . S
C542 C541 1.389 . S
C542 C543 1.387 . S
C543 H528 0.930 . S
C543 C538 1.390 . S
C543 C542 1.387 . S
C125 C4 0.416 . S
C137 C32 0.422 . S
C152 C18 0.232 . S
C164 C46 0.247 . S
C179 C60 0.236 . S
C191 C88 0.252 . S
C206 C74 0.417 . S
C218 C102 0.404 . S
C233 C12 1.515 . S
C245 C82 1.548 . S
C260 C26 1.568 . S
C272 C96 1.509 . S
C287 C110 1.569 . S
C299 C40 1.511 . S
C314 C54 1.508 . S
C326 C68 1.568 . S
C341 C61 1.468 . S
C353 C11 1.481 . S
C368 C25 1.441 . S
C380 C75 1.420 . S
C395 C39 1.427 . S
C407 C89 1.391 . S
C422 C53 1.446 . S
C434 C103 1.400 . S
C449 C5 1.404 . S
C461 C67 1.452 . S
C476 C81 1.469 . S
C488 C19 1.456 . S
C503 C95 1.477 . S
C515 C33 1.464 . S
C530 C47 1.427 . S
C542 C109 1.446 . S
