# Generated by pormake.
# Topology unb, (4)-cn, num edge types: 1
# Building blocks:
#     Node 0, Type 0, BuildingBlock: UXUYUI_clean_sbu_0, # of connection points: 4
#     Node 1, Type 0, BuildingBlock: UXUYUI_clean_sbu_0, # of connection points: 4
#     Node 2, Type 0, BuildingBlock: UXUYUI_clean_sbu_0, # of connection points: 4
#     Node 3, Type 0, BuildingBlock: UXUYUI_clean_sbu_0, # of connection points: 4
#     Node 4, Type 0, BuildingBlock: UXUYUI_clean_sbu_0, # of connection points: 4
#     Node 5, Type 0, BuildingBlock: UXUYUI_clean_sbu_0, # of connection points: 4
#     Node 6, Type 0, BuildingBlock: UXUYUI_clean_sbu_0, # of connection points: 4
#     Node 7, Type 0, BuildingBlock: UXUYUI_clean_sbu_0, # of connection points: 4
#     Node 8, Type 0, BuildingBlock: UXUYUI_clean_sbu_0, # of connection points: 4
#     Node 9, Type 0, BuildingBlock: UXUYUI_clean_sbu_0, # of connection points: 4
#     Node 10, Type 0, BuildingBlock: UXUYUI_clean_sbu_0, # of connection points: 4
#     Node 11, Type 0, BuildingBlock: UXUYUI_clean_sbu_0, # of connection points: 4
#     Node 12, Type 0, BuildingBlock: UXUYUI_clean_sbu_0, # of connection points: 4
#     Node 13, Type 0, BuildingBlock: UXUYUI_clean_sbu_0, # of connection points: 4
#     Node 14, Type 0, BuildingBlock: UXUYUI_clean_sbu_0, # of connection points: 4
#     Node 15, Type 0, BuildingBlock: UXUYUI_clean_sbu_0, # of connection points: 4
#     Node 16, Type 0, BuildingBlock: UXUYUI_clean_sbu_0, # of connection points: 4
#     Node 17, Type 0, BuildingBlock: UXUYUI_clean_sbu_0, # of connection points: 4
#     Edge 18, Type (0, 0), BuildingBlock: OJICUG_clean_linker_0, # of connection points: 2
#     Edge 19, Type (0, 0), BuildingBlock: OJICUG_clean_linker_0, # of connection points: 2
#     Edge 20, Type (0, 0), BuildingBlock: OJICUG_clean_linker_0, # of connection points: 2
#     Edge 21, Type (0, 0), BuildingBlock: OJICUG_clean_linker_0, # of connection points: 2
#     Edge 22, Type (0, 0), BuildingBlock: OJICUG_clean_linker_0, # of connection points: 2
#     Edge 23, Type (0, 0), BuildingBlock: OJICUG_clean_linker_0, # of connection points: 2
#     Edge 24, Type (0, 0), BuildingBlock: OJICUG_clean_linker_0, # of connection points: 2
#     Edge 25, Type (0, 0), BuildingBlock: OJICUG_clean_linker_0, # of connection points: 2
#     Edge 26, Type (0, 0), BuildingBlock: OJICUG_clean_linker_0, # of connection points: 2
#     Edge 27, Type (0, 0), BuildingBlock: OJICUG_clean_linker_0, # of connection points: 2
#     Edge 28, Type (0, 0), BuildingBlock: OJICUG_clean_linker_0, # of connection points: 2
#     Edge 29, Type (0, 0), BuildingBlock: OJICUG_clean_linker_0, # of connection points: 2
#     Edge 30, Type (0, 0), BuildingBlock: OJICUG_clean_linker_0, # of connection points: 2
#     Edge 31, Type (0, 0), BuildingBlock: OJICUG_clean_linker_0, # of connection points: 2
#     Edge 32, Type (0, 0), BuildingBlock: OJICUG_clean_linker_0, # of connection points: 2
#     Edge 33, Type (0, 0), BuildingBlock: OJICUG_clean_linker_0, # of connection points: 2
#     Edge 34, Type (0, 0), BuildingBlock: OJICUG_clean_linker_0, # of connection points: 2
#     Edge 35, Type (0, 0), BuildingBlock: OJICUG_clean_linker_0, # of connection points: 2
#     Edge 36, Type (0, 0), BuildingBlock: OJICUG_clean_linker_0, # of connection points: 2
#     Edge 37, Type (0, 0), BuildingBlock: OJICUG_clean_linker_0, # of connection points: 2
#     Edge 38, Type (0, 0), BuildingBlock: OJICUG_clean_linker_0, # of connection points: 2
#     Edge 39, Type (0, 0), BuildingBlock: OJICUG_clean_linker_0, # of connection points: 2
#     Edge 40, Type (0, 0), BuildingBlock: OJICUG_clean_linker_0, # of connection points: 2
#     Edge 41, Type (0, 0), BuildingBlock: OJICUG_clean_linker_0, # of connection points: 2
#     Edge 42, Type (0, 0), BuildingBlock: OJICUG_clean_linker_0, # of connection points: 2
#     Edge 43, Type (0, 0), BuildingBlock: OJICUG_clean_linker_0, # of connection points: 2
#     Edge 44, Type (0, 0), BuildingBlock: OJICUG_clean_linker_0, # of connection points: 2
#     Edge 45, Type (0, 0), BuildingBlock: OJICUG_clean_linker_0, # of connection points: 2
#     Edge 46, Type (0, 0), BuildingBlock: OJICUG_clean_linker_0, # of connection points: 2
#     Edge 47, Type (0, 0), BuildingBlock: OJICUG_clean_linker_0, # of connection points: 2
#     Edge 48, Type (0, 0), BuildingBlock: OJICUG_clean_linker_0, # of connection points: 2
#     Edge 49, Type (0, 0), BuildingBlock: OJICUG_clean_linker_0, # of connection points: 2
#     Edge 50, Type (0, 0), BuildingBlock: OJICUG_clean_linker_0, # of connection points: 2
#     Edge 51, Type (0, 0), BuildingBlock: OJICUG_clean_linker_0, # of connection points: 2
#     Edge 52, Type (0, 0), BuildingBlock: OJICUG_clean_linker_0, # of connection points: 2
#     Edge 53, Type (0, 0), BuildingBlock: OJICUG_clean_linker_0, # of connection points: 2
# Relax obj value: 0.067
# Max RMSD: 0.057
# Mean RMSD: 0.057
data_MOF--net-unb--node1-UXUYUI_clean_sbu_0--edge1-OJICUG_clean_linker_0
_symmetry_space_group_name_H-M    P1
_symmetry_Int_Tables_number       1
_symmetry_cell_setting            triclinic
loop_
_symmetry_equiv_pos_as_xyz
'x, y, z'
_cell_length_a     80.704523
_cell_length_b     80.752807
_cell_length_c     28.549112
_cell_angle_alpha  89.99472
_cell_angle_beta   89.977204
_cell_angle_gamma 119.94667
loop_
_atom_site_label
_atom_site_type_symbol
_atom_site_fract_x
_atom_site_fract_y
_atom_site_fract_z
_atom_type_partial_charge
Li0 Li 0.1455 0.27142 0.13504 0.0
Li1 Li 0.15018 0.2492 0.08094 0.0
Li2 Li 0.1472 0.27529 0.05101 0.0
Li3 Li 0.11889 0.24803 0.08022 0.0
C4 C 0.18274 0.29303 0.07671 0.0
N5 N 0.21306 0.32594 0.04025 0.0
C6 C 0.19649 0.29199 0.04913 0.0
C7 C 0.1845 0.31084 0.08611 0.0
C8 C 0.21169 0.30878 0.03091 0.0
C9 C 0.19991 0.3273 0.06729 0.0
C10 C 0.13642 0.23524 0.17244 0.0
C11 C 0.1289 0.21142 0.2322 0.0
N12 N 0.14714 0.22157 0.24842 0.0
C13 C 0.15511 0.24543 0.18964 0.0
C14 C 0.1232 0.21811 0.19381 0.0
C15 C 0.16024 0.23828 0.22813 0.0
C16 C 0.13977 0.28648 0.22254 0.0
N17 N 0.15274 0.28587 0.19318 0.0
C18 C 0.17854 0.31022 0.23789 0.0
C19 C 0.17181 0.29709 0.20103 0.0
C20 C 0.16562 0.31163 0.26855 0.0
C21 C 0.14591 0.29915 0.26076 0.0
H22 H 0.12465 0.27749 0.21565 0.0
H23 H 0.18193 0.29633 0.17767 0.0
C24 C 0.17134 0.23873 0.02478 0.0
N25 N 0.1628 0.23471 0.06757 0.0
C26 C 0.18067 0.22919 0.00871 0.0
C27 C 0.17213 0.21116 0.08076 0.0
C28 C 0.16286 0.22106 0.09546 0.0
C29 C 0.1813 0.21523 0.03682 0.0
H30 H 0.17072 0.2493 1.00274 0.0
H31 H 0.15567 0.2177 0.12892 0.0
C32 C 0.12209 0.28776 0.0822 0.0
N33 N 0.11025 0.31331 0.05757 0.0
C34 C 0.11142 0.28489 0.04141 0.0
C35 C 0.12672 0.30361 0.11053 0.0
C36 C 0.10559 0.29798 0.02952 0.0
C37 C 0.12059 0.31636 0.09746 0.0
C38 C 0.12703 0.23148 1.00594 0.0
C39 C 0.12748 0.22995 0.95726 0.0
C40 C 0.11853 0.21492 0.0334 0.0
C41 C 0.11938 0.21185 0.9368 0.0
C42 C 0.1106 0.19709 0.0116 0.0
N43 N 0.11118 0.19593 0.96416 0.0
C44 C 0.16271 0.28839 0.96288 0.0
C45 C 0.15673 0.31054 1.0033 0.0
C46 C 0.16954 0.30047 0.92409 0.0
N47 N 0.15628 0.29349 1.00122 0.0
C48 C 0.16306 0.32287 0.96495 0.0
C49 C 0.16947 0.31778 0.92477 0.0
H50 H 0.16253 0.27492 0.96255 0.0
H51 H 0.15241 0.31475 0.03473 0.0
C52 C 0.078 0.22321 0.09942 0.0
N53 N 0.09182 0.23288 0.06677 0.0
C54 C 0.05865 0.21303 0.08614 0.0
C55 C 0.06822 0.22275 1.00613 0.0
C56 C 0.08721 0.23275 0.02089 0.0
C57 C 0.05351 0.21281 0.03882 0.0
H58 H 0.08196 0.22355 0.13576 0.0
H59 H 0.09834 0.24058 0.99544 0.0
O60 O 0.1675 0.27671 0.09405 0.0
O61 O 0.13101 0.24192 0.13484 0.0
O62 O 0.12798 0.27516 0.09455 0.0
O63 O 0.1351 0.24917 0.02635 0.0
H64 H 0.19549 0.27839 0.04187 0.0
H65 H 0.17386 0.31189 0.10696 0.0
H66 H 0.22239 0.30817 0.00935 0.0
H67 H 0.20135 0.34114 0.07394 0.0
H68 H 0.11881 0.19817 0.24909 0.0
H69 H 0.1656 0.25861 0.17324 0.0
H70 H 0.10868 0.21005 0.18081 0.0
H71 H 0.17466 0.246 0.24177 0.0
H72 H 0.19382 0.31955 0.24102 0.0
H73 H 0.13523 0.29919 0.28358 0.0
H74 H 0.18707 0.23256 0.97417 0.0
H75 H 0.17226 0.20057 0.10379 0.0
H76 H 0.10799 0.2729 0.01873 0.0
H77 H 0.13505 0.3061 0.14209 0.0
H78 H 0.09742 0.29599 0.99791 0.0
H79 H 0.1241 0.32871 0.11899 0.0
H80 H 0.13402 0.24262 0.93551 0.0
H81 H 0.11806 0.21577 0.0711 0.0
H82 H 0.11962 0.21045 0.89915 0.0
H83 H 0.10398 0.18417 0.03241 0.0
H84 H 0.17445 0.29618 0.89356 0.0
H85 H 0.16315 0.33631 0.96678 0.0
H86 H 0.04785 0.20575 0.11279 0.0
H87 H 0.06515 0.22276 0.96922 0.0
Li88 Li 0.77453 0.90554 0.08799 0.0
Li89 Li 0.75192 0.87828 0.13476 0.0
Li90 Li 0.77674 0.87607 0.08106 0.0
Li91 Li 0.74855 0.87784 0.05072 0.0
C92 C 0.79615 0.9061 0.16202 0.0
N93 N 0.82716 0.9343 0.20981 0.0
C94 C 0.7937 0.91811 0.19297 0.0
C95 C 0.81432 0.90834 0.15549 0.0
C96 C 0.80958 0.93232 0.21674 0.0
C97 C 0.82983 0.9227 0.17999 0.0
C98 C 0.73655 0.90066 0.12335 0.0
C99 C 0.7069 0.89353 0.16076 0.0
N100 N 0.71589 0.91097 0.18179 0.0
C101 C 0.7455 0.9185 0.1454 0.0
C102 C 0.71708 0.88806 0.13106 0.0
C103 C 0.7348 0.92345 0.17476 0.0
C104 C 0.77925 0.93932 0.0507 0.0
N105 N 0.78889 0.93303 0.07768 0.0
C106 C 0.81692 0.96412 0.0748 0.0
C107 C 0.80745 0.94503 0.08977 0.0
C108 C 0.80742 0.97093 0.04597 0.0
C109 C 0.78824 0.9581 0.0342 0.0
H110 H 0.7647 0.92942 0.04029 0.0
H111 H 0.81521 0.93977 0.10966 0.0
C112 C 0.72511 0.84982 0.19722 0.0
N113 N 0.73699 0.86899 0.19242 0.0
C114 C 0.71212 0.84248 0.23453 0.0
C115 C 0.72418 0.87463 0.26263 0.0
C116 C 0.73712 0.88132 0.22511 0.0
C117 C 0.71114 0.85493 0.26751 0.0
H118 H 0.72542 0.84016 0.17151 0.0
H119 H 0.74673 0.89648 0.22117 0.0
C120 C 0.78862 0.90581 1.00308 0.0
N121 N 0.81548 0.93534 0.94877 0.0
C122 C 0.78277 0.91319 0.96647 0.0
C123 C 0.80811 0.91333 0.01192 0.0
C124 C 0.79658 0.92816 0.93944 0.0
C125 C 0.82147 0.92829 0.98409 0.0
C126 C 0.73507 0.84193 0.06699 0.0
C127 C 0.74055 0.83222 0.03576 0.0
C128 C 0.71569 0.83607 0.07245 0.0
C129 C 0.72653 0.81683 0.01023 0.0
C130 C 0.70211 0.82064 0.04625 0.0
N131 N 0.70776 0.81143 0.01592 0.0
C132 C 0.79802 0.85649 0.09907 0.0
C133 C 0.7963 0.86459 0.02021 0.0
C134 C 0.80813 0.84731 0.08545 0.0
N135 N 0.79227 0.86483 0.06641 0.0
C136 C 0.80644 0.85573 1.00514 0.0
C137 C 0.8124 0.84677 0.0378 0.0
H138 H 0.79451 0.85671 0.13556 0.0
H139 H 0.79121 0.8709 0.99471 0.0
C140 C 0.71464 0.86924 1.00106 0.0
N141 N 0.73171 0.86978 0.99894 0.0
C142 C 0.70247 0.86319 0.96238 0.0
C143 C 0.72589 0.85874 0.91988 0.0
C144 C 0.73751 0.86471 0.95952 0.0
C145 C 0.70806 0.85788 0.92097 0.0
H146 H 0.71044 0.87343 0.0328 0.0
H147 H 0.75125 0.8654 0.95891 0.0
O148 O 0.7808 0.89196 0.13888 0.0
O149 O 0.74676 0.89554 0.0944 0.0
O150 O 0.77533 0.89158 0.03084 0.0
O151 O 0.74863 0.85741 0.09116 0.0
H152 H 0.77973 0.91657 0.19828 0.0
H153 H 0.81641 0.89909 0.13172 0.0
H154 H 0.80793 0.94179 0.24065 0.0
H155 H 0.84399 0.92464 0.17524 0.0
H156 H 0.69186 0.88387 0.16728 0.0
H157 H 0.76058 0.92836 0.14037 0.0
H158 H 0.70998 0.87406 0.11503 0.0
H159 H 0.74156 0.93719 0.19213 0.0
H160 H 0.8316 0.97334 0.08544 0.0
H161 H 0.7803 0.96224 0.01112 0.0
H162 H 0.70285 0.82716 0.23717 0.0
H163 H 0.72403 0.88495 0.28655 0.0
H164 H 0.76772 0.90758 0.9594 0.0
H165 H 0.81284 0.90785 0.04039 0.0
H166 H 0.79228 0.93411 0.91118 0.0
H167 H 0.83661 0.93435 0.99072 0.0
H168 H 0.75548 0.83659 0.031 0.0
H169 H 0.71122 0.84358 0.09605 0.0
H170 H 0.73057 0.80923 0.98578 0.0
H171 H 0.68708 0.81605 0.04985 0.0
H172 H 0.81254 0.8407 0.11192 0.0
H173 H 0.80906 0.8554 0.96804 0.0
H174 H 0.68875 0.8625 0.96509 0.0
H175 H 0.73095 0.85509 0.88857 0.0
Li176 Li 0.14493 0.877 0.13681 0.0
Li177 Li 0.11932 0.87357 0.08536 0.0
Li178 Li 0.14717 0.87466 0.05083 0.0
Li179 Li 0.14843 0.90476 0.08262 0.0
C180 C 0.12925 0.83917 0.10477 0.0
N181 N 0.13085 0.8067 0.12712 0.0
C182 C 0.11305 0.82301 0.12218 0.0
C183 C 0.14619 0.83875 0.09839 0.0
C184 C 0.11417 0.80675 0.13339 0.0
C185 C 0.14674 0.82222 0.10996 0.0
C186 C 0.11574 0.89032 0.16194 0.0
C187 C 0.09526 0.90253 0.18615 0.0
N188 N 0.08369 0.8857 0.20831 0.0
C189 C 0.10376 0.87321 0.18523 0.0
C190 C 0.11158 0.90516 0.16254 0.0
C191 C 0.08757 0.87113 0.20835 0.0
C192 C 0.17082 0.88205 0.21175 0.0
N193 N 0.15289 0.8704 0.19494 0.0
C194 C 0.14765 0.84688 0.25326 0.0
C195 C 0.14112 0.85335 0.21594 0.0
C196 C 0.16643 0.8582 0.27025 0.0
C197 C 0.17787 0.87626 0.24945 0.0
H198 H 0.1799 0.89569 0.19507 0.0
H199 H 0.12678 0.84445 0.20289 0.0
C200 C 0.08366 0.84263 0.05932 0.0
N201 N 0.0919 0.861 0.07459 0.0
C202 C 0.06459 0.83292 0.04467 0.0
C203 C 0.0626 0.86114 0.06169 0.0
C204 C 0.08176 0.87033 0.07602 0.0
C205 C 0.05376 0.84218 0.04534 0.0
H206 H 0.09214 0.83572 0.05663 0.0
H207 H 0.08869 0.88514 0.08652 0.0
C208 C 0.18512 0.90028 0.08778 0.0
N209 N 0.2234 0.91223 0.07436 0.0
C210 C 0.19709 0.9177 0.06561 0.0
C211 C 0.19272 0.88908 0.10374 0.0
C212 C 0.21637 0.92345 0.05897 0.0
C213 C 0.21208 0.89533 0.09646 0.0
C214 C 0.12013 0.88655 0.99974 0.0
C215 C 0.11148 0.87095 0.96929 0.0
C216 C 0.114 0.89996 1.00037 0.0
C217 C 0.09667 0.86893 0.94019 0.0
C218 C 0.09918 0.89746 0.97063 0.0
N219 N 0.09087 0.88211 0.94146 0.0
C220 C 0.14418 0.84802 0.98317 0.0
C221 C 0.17325 0.87754 0.98037 0.0
C222 C 0.14958 0.8414 0.94415 0.0
N223 N 0.15602 0.86579 1.00042 0.0
C224 C 0.17936 0.87143 0.94179 0.0
C225 C 0.16739 0.8532 0.92277 0.0
H226 H 0.13034 0.83913 0.99917 0.0
H227 H 0.18216 0.8918 0.99365 0.0
C228 C 0.16629 0.94564 0.10159 0.0
N229 N 0.16025 0.9316 0.06874 0.0
C230 C 0.17542 0.96491 0.08785 0.0
C231 C 0.1717 0.95482 0.00705 0.0
C232 C 0.16284 0.93588 0.02227 0.0
C233 C 0.17821 0.96971 0.03991 0.0
H234 H 0.16417 0.94191 0.13835 0.0
H235 H 0.15822 0.9245 0.99683 0.0
O236 O 0.1284 0.85526 0.09415 0.0
O237 O 0.13158 0.89259 0.13892 0.0
O238 O 0.1662 0.89449 0.09458 0.0
O239 O 0.13427 0.88848 0.02947 0.0
H240 H 0.09983 0.82311 0.12762 0.0
H241 H 0.15874 0.85098 0.0843 0.0
H242 H 0.10179 0.79419 0.14718 0.0
H243 H 0.15978 0.82172 0.1052 0.0
H244 H 0.09178 0.91384 0.18677 0.0
H245 H 0.10685 0.86161 0.18501 0.0
H246 H 0.12078 0.9185 0.1447 0.0
H247 H 0.07807 0.85792 0.22628 0.0
H248 H 0.13818 0.83282 0.26745 0.0
H249 H 0.19224 0.88583 0.26179 0.0
H250 H 0.05863 0.8185 0.03139 0.0
H251 H 0.05487 0.86888 0.06304 0.0
H252 H 0.19154 0.92664 0.05329 0.0
H253 H 0.18386 0.8758 0.12197 0.0
H254 H 0.22575 0.93683 0.04158 0.0
H255 H 0.21812 0.88678 0.10855 0.0
H256 H 0.11599 0.86039 0.96858 0.0
H257 H 0.12041 0.91201 0.0241 0.0
H258 H 0.08974 0.85685 0.91669 0.0
H259 H 0.0942 0.90765 0.97094 0.0
H260 H 0.13969 0.8274 0.93029 0.0
H261 H 0.1933 0.88097 0.92702 0.0
H262 H 0.18012 0.97591 0.11442 0.0
H263 H 0.17383 0.95779 0.96986 0.0
Li264 Li 0.25328 0.11371 0.93147 0.0
Li265 Li 0.28199 0.14383 0.96353 0.0
Li266 Li 0.25528 0.14485 0.92912 0.0
Li267 Li 0.27747 0.14162 0.87739 0.0
C268 C 0.24258 0.13134 0.01391 0.0
N269 N 0.21677 0.13479 0.07083 0.0
C270 C 0.24894 0.14661 0.04526 0.0
C271 C 0.22312 0.11776 0.01169 0.0
C272 C 0.23565 0.14813 0.07365 0.0
C273 C 0.21029 0.11976 0.04078 0.0
C274 C 0.29394 0.11757 0.9245 0.0
C275 C 0.32485 0.12059 0.91069 0.0
N276 N 0.31912 0.10393 0.93413 0.0
C277 C 0.28833 0.10038 0.94807 0.0
C278 C 0.31232 0.12768 0.90531 0.0
C279 C 0.30127 0.09377 0.95273 0.0
C280 C 0.23021 0.0727 0.9128 0.0
N281 N 0.23831 0.08683 0.94536 0.0
C282 C 0.22675 0.0638 0.00745 0.0
C283 C 0.23673 0.08269 0.99189 0.0
C284 C 0.21835 0.04877 0.97493 0.0
C285 C 0.22011 0.05346 0.9269 0.0
H286 H 0.23175 0.07631 0.87597 0.0
H287 H 0.24343 0.09414 0.01715 0.0
C288 C 0.30442 0.16988 0.03335 0.0
N289 N 0.29977 0.15274 0.01387 0.0
C290 C 0.31645 0.17655 0.07232 0.0
C291 C 0.31902 0.148 0.06969 0.0
C292 C 0.30673 0.14178 0.0313 0.0
C293 C 0.32388 0.16551 0.0912 0.0
H294 H 0.29847 0.1782 0.01912 0.0
H295 H 0.30255 0.12806 0.01603 0.0
C296 C 0.23507 0.12819 0.85209 0.0
N297 N 0.20776 0.1328 0.8051 0.0
C298 C 0.24025 0.14529 0.82867 0.0
C299 C 0.21608 0.11335 0.85128 0.0
C300 C 0.2262 0.14737 0.80524 0.0
C301 C 0.20246 0.11599 0.82737 0.0
C302 C 0.30036 0.17891 0.91221 0.0
C303 C 0.30199 0.19631 0.89871 0.0
C304 C 0.31683 0.17752 0.91727 0.0
C305 C 0.32011 0.21198 0.89005 0.0
C306 C 0.33469 0.1935 0.90834 0.0
N307 N 0.33594 0.21026 0.89498 0.0
C308 C 0.25037 0.17565 0.95539 0.0
C309 C 0.22087 0.148 0.93791 0.0
C310 C 0.24094 0.18531 0.96999 0.0
N311 N 0.24032 0.15732 0.9398 0.0
C312 C 0.21083 0.15713 0.95215 0.0
C313 C 0.22085 0.17604 0.96889 0.0
H314 H 0.26575 0.18257 0.95834 0.0
H315 H 0.21305 0.13322 0.9271 0.0
C316 C 0.29713 0.13618 0.79989 0.0
N317 N 0.29195 0.14837 0.81912 0.0
C318 C 0.31002 0.14205 0.76225 0.0
C319 C 0.31149 0.17262 0.76353 0.0
C320 C 0.29836 0.16607 0.80058 0.0
C321 C 0.31779 0.1607 0.74438 0.0
H322 H 0.29179 0.12212 0.81487 0.0
H323 H 0.29369 0.17537 0.81533 0.0
O324 O 0.25528 0.1299 0.98488 0.0
O325 O 0.28135 0.12417 0.91947 0.0
O326 O 0.24857 0.12592 0.87539 0.0
O327 O 0.28267 0.16339 0.92027 0.0
H328 H 0.26392 0.15729 0.04723 0.0
H329 H 0.21793 0.10598 0.98721 0.0
H330 H 0.24035 0.15995 0.09783 0.0
H331 H 0.19518 0.10943 0.03923 0.0
H332 H 0.33911 0.1283 0.89608 0.0
H333 H 0.27419 0.0923 0.96303 0.0
H334 H 0.31689 0.14078 0.8861 0.0
H335 H 0.29713 0.08056 0.97115 0.0
H336 H 0.22557 0.06106 0.04477 0.0
H337 H 0.21409 0.04241 0.90041 0.0
H338 H 0.31949 0.18997 0.08805 0.0
H339 H 0.3246 0.13911 0.08236 0.0
H340 H 0.25493 0.15687 0.82899 0.0
H341 H 0.2119 0.10002 0.86921 0.0
H342 H 0.22996 0.16057 0.7872 0.0
H343 H 0.18768 0.10468 0.8266 0.0
H344 H 0.28938 0.19763 0.89436 0.0
H345 H 0.31585 0.1643 0.92835 0.0
H346 H 0.32157 0.22549 0.87931 0.0
H347 H 0.34754 0.1926 0.91212 0.0
H348 H 0.24932 0.19969 0.98354 0.0
H349 H 0.19536 0.14939 0.95042 0.0
H350 H 0.31446 0.13236 0.74855 0.0
H351 H 0.31678 0.18696 0.75023 0.0
Li352 Li 0.90919 0.1437 0.93324 0.0
Li353 Li 0.87931 0.14205 0.96474 0.0
Li354 Li 0.8776 0.11415 0.92796 0.0
Li355 Li 0.88167 0.14101 0.88034 0.0
C356 C 0.89124 0.11452 0.01363 0.0
N357 N 0.88769 0.08539 0.07095 0.0
C358 C 0.87789 0.10785 0.05004 0.0
C359 C 0.90291 0.10652 1.00655 0.0
C360 C 0.87628 0.09307 0.0786 0.0
C361 C 0.90086 0.09176 0.03587 0.0
C362 C 0.9018 0.17823 0.9447 0.0
C363 C 0.89013 0.19967 0.96407 0.0
N364 N 0.90603 0.21025 0.99047 0.0
C365 C 0.91807 0.18937 0.97179 0.0
C366 C 0.88776 0.18346 0.94054 0.0
C367 C 0.91993 0.20549 0.99472 0.0
C368 C 0.95004 0.16269 0.91441 0.0
N369 N 0.93599 0.15499 0.94731 0.0
C370 C 0.95927 0.16443 0.00857 0.0
C371 C 0.94028 0.15574 0.99363 0.0
C372 C 0.97417 0.17268 0.97565 0.0
C373 C 0.96933 0.17168 0.9279 0.0
H374 H 0.9463 0.16205 0.87781 0.0
H375 H 0.9289 0.1499 0.01926 0.0
C376 C 0.8523 0.14645 0.019 0.0
N377 N 0.8707 0.15033 0.01646 0.0
C378 C 0.84606 0.1523 0.0579 0.0
C379 C 0.87783 0.16591 0.09079 0.0
C380 C 0.8834 0.15967 0.05145 0.0
C381 C 0.85892 0.16221 0.09437 0.0
H382 H 0.84244 0.1387 0.99101 0.0
H383 H 0.89784 0.16218 0.04879 0.0
C384 C 0.89773 0.11319 0.85221 0.0
N385 N 0.89942 0.08462 0.80306 0.0
C386 C 0.8827 0.10114 0.82264 0.0
C387 C 0.91366 0.11081 0.85665 0.0
C388 C 0.88381 0.08674 0.79817 0.0
C389 C 0.91424 0.09626 0.83149 0.0
C390 C 0.84383 0.11886 0.89528 0.0
C391 C 0.83449 0.10101 0.87335 0.0
C392 C 0.83682 0.13146 0.88983 0.0
C393 C 0.81829 0.09608 0.84614 0.0
C394 C 0.82061 0.12602 0.86224 0.0
N395 N 0.81176 0.10859 0.84116 0.0
C396 C 0.84882 0.08028 0.96596 0.0
C397 C 0.87155 0.07489 0.92694 0.0
C398 C 0.83928 0.06151 0.98266 0.0
N399 N 0.86474 0.08671 0.9389 0.0
C400 C 0.86219 0.05583 0.94211 0.0
C401 C 0.84589 0.04887 0.97101 0.0
H402 H 0.84396 0.09004 0.97624 0.0
H403 H 0.88456 0.08028 0.90698 0.0
C404 C 0.88363 0.16922 0.81652 0.0
N405 N 0.87555 0.15002 0.82286 0.0
C406 C 0.87802 0.17658 0.77915 0.0
C407 C 0.85612 0.14433 0.75446 0.0
C408 C 0.86242 0.13761 0.79181 0.0
C409 C 0.8637 0.16412 0.74783 0.0
H410 H 0.89426 0.17892 0.841 0.0
H411 H 0.85628 0.12242 0.79684 0.0
O412 O 0.89262 0.12856 0.98441 0.0
O413 O 0.89949 0.16213 0.92292 0.0
O414 O 0.89704 0.12748 0.87608 0.0
O415 O 0.8597 0.12395 0.92207 0.0
H416 H 0.86871 0.11389 0.05579 0.0
H417 H 0.91323 0.11148 0.97827 0.0
H418 H 0.86592 0.08766 0.10674 0.0
H419 H 0.90968 0.08532 0.03061 0.0
H420 H 0.87932 0.20381 0.96144 0.0
H421 H 0.92907 0.18552 0.97535 0.0
H422 H 0.87506 0.17495 0.9198 0.0
H423 H 0.93239 0.2142 0.016 0.0
H424 H 0.96225 0.16513 0.04572 0.0
H425 H 0.98034 0.17775 0.90125 0.0
H426 H 0.83139 0.14926 0.05927 0.0
H427 H 0.8881 0.17324 0.11848 0.0
H428 H 0.87028 0.10281 0.81893 0.0
H429 H 0.92541 0.12007 0.87936 0.0
H430 H 0.87225 0.07724 0.77532 0.0
H431 H 0.92645 0.09421 0.83462 0.0
H432 H 0.83978 0.09112 0.87684 0.0
H433 H 0.84394 0.14538 0.9063 0.0
H434 H 0.81096 0.08234 0.82883 0.0
H435 H 0.8151 0.13567 0.85749 0.0
H436 H 0.82719 0.05725 1.00578 0.0
H437 H 0.86785 0.04676 0.93153 0.0
H438 H 0.88483 0.19192 0.77518 0.0
H439 H 0.84495 0.13398 0.73201 0.0
Li440 Li 0.88003 0.7697 0.9329 0.0
Li441 Li 0.88106 0.74247 0.96267 0.0
Li442 Li 0.91013 0.76849 0.93259 0.0
Li443 Li 0.88325 0.74611 0.87859 0.0
C444 C 0.90458 0.78637 0.00718 0.0
N445 N 0.92411 0.82199 0.04865 0.0
C446 C 0.90635 0.78799 0.05589 0.0
C447 C 0.91276 0.80288 0.97954 0.0
C448 C 0.91627 0.80613 0.07619 0.0
C449 C 0.92257 0.82075 1.00118 0.0
C450 C 0.84355 0.72953 0.9307 0.0
C451 C 0.81414 0.70026 0.91512 0.0
N452 N 0.80626 0.7032 0.95412 0.0
C453 C 0.83515 0.73228 0.97054 0.0
C454 C 0.83297 0.71341 0.90267 0.0
C455 C 0.81629 0.71879 0.98184 0.0
C456 C 0.86465 0.79516 0.91362 0.0
N457 N 0.86823 0.78498 0.94606 0.0
C458 C 0.85458 0.79501 1.00656 0.0
C459 C 0.86337 0.78481 0.99176 0.0
C460 C 0.85042 0.80549 0.97408 0.0
C461 C 0.85571 0.80556 0.92694 0.0
H462 H 0.8686 0.79509 0.87743 0.0
H463 H 0.86629 0.77663 0.01704 0.0
C464 C 0.88362 0.72975 0.05111 0.0
N465 N 0.87201 0.72445 0.01294 0.0
C466 C 0.87856 0.71782 0.09015 0.0
C467 C 0.84967 0.69515 0.04994 0.0
C468 C 0.85548 0.70734 0.01133 0.0
C469 C 0.86127 0.70043 0.08992 0.0
H470 H 0.89687 0.74326 0.05107 0.0
H471 H 0.84687 0.70295 0.98006 0.0
C472 C 0.91042 0.78232 0.84093 0.0
N473 N 0.935 0.79606 0.76527 0.0
C474 C 0.91878 0.77202 0.8235 0.0
C475 C 0.91456 0.7996 0.81996 0.0
C476 C 0.93115 0.7792 0.78518 0.0
C477 C 0.92704 0.80632 0.78174 0.0
C478 C 0.899 0.72475 0.93784 0.0
C479 C 0.9139 0.72602 0.96538 0.0
C480 C 0.88299 0.70686 0.9291 0.0
C481 C 0.91243 0.70937 0.98423 0.0
C482 C 0.88207 0.69054 0.94854 0.0
N483 N 0.89667 0.69213 0.97553 0.0
C484 C 0.94169 0.77921 0.98912 0.0
C485 C 0.95095 0.79656 0.91797 0.0
C486 C 0.96052 0.78883 1.0053 0.0
N487 N 0.93722 0.78303 0.94605 0.0
C488 C 0.97009 0.80654 0.93278 0.0
C489 C 0.97513 0.80267 0.97701 0.0
H490 H 0.93049 0.76873 0.01129 0.0
H491 H 0.94715 0.79975 0.88427 0.0
C492 C 0.86275 0.73111 0.79063 0.0
N493 N 0.87604 0.73151 0.8206 0.0
C494 C 0.85619 0.71835 0.75259 0.0
C495 C 0.87714 0.70671 0.77695 0.0
C496 C 0.88359 0.71996 0.81354 0.0
C497 C 0.86309 0.70552 0.74564 0.0
H498 H 0.85686 0.74037 0.79686 0.0
H499 H 0.89428 0.72057 0.83732 0.0
O500 O 0.89501 0.76864 0.98694 0.0
O501 O 0.86197 0.74254 0.91889 0.0
O502 O 0.89827 0.77563 0.8784 0.0
O503 O 0.89996 0.74093 0.91987 0.0
H504 H 0.90011 0.77536 0.07778 0.0
H505 H 0.91159 0.80196 0.94181 0.0
H506 H 0.91775 0.80759 0.11385 0.0
H507 H 0.92897 0.83363 0.98022 0.0
H508 H 0.8058 0.6877 0.89383 0.0
H509 H 0.84318 0.74452 0.99291 0.0
H510 H 0.83927 0.71101 0.87183 0.0
H511 H 0.80965 0.72069 0.01273 0.0
H512 H 0.85122 0.79476 0.04336 0.0
H513 H 0.85267 0.81327 0.90046 0.0
H514 H 0.88785 0.72227 0.1205 0.0
H515 H 0.83638 0.68164 0.04841 0.0
H516 H 0.9159 0.75873 0.83959 0.0
H517 H 0.90822 0.80774 0.83317 0.0
H518 H 0.93775 0.7714 0.77135 0.0
H519 H 0.93039 0.81968 0.76516 0.0
H520 H 0.92648 0.73968 0.97211 0.0
H521 H 0.87122 0.70563 0.90828 0.0
H522 H 0.92383 0.71015 1.00577 0.0
H523 H 0.86969 0.67664 0.9424 0.0
H524 H 0.96352 0.78562 0.04004 0.0
H525 H 0.98082 0.81703 0.90961 0.0
H526 H 0.84572 0.71851 0.72926 0.0
H527 H 0.88282 0.69713 0.77454 0.0
Li528 Li 0.81792 0.5839 0.41055 0.0
Li529 Li 0.81364 0.60653 0.46436 0.0
Li530 Li 0.78672 0.58294 0.41027 0.0
Li531 Li 0.81506 0.61 0.38027 0.0
C532 C 0.80429 0.57026 0.50241 0.0
N533 N 0.81482 0.55635 0.57828 0.0
C534 C 0.82289 0.58048 0.52014 0.0
C535 C 0.79105 0.55297 0.5232 0.0
C536 C 0.82793 0.57321 0.55856 0.0
C537 C 0.79666 0.54618 0.56153 0.0
C538 C 0.85074 0.62747 0.40468 0.0
C539 C 0.86829 0.66163 0.39323 0.0
N540 N 0.88113 0.65976 0.36616 0.0
C541 C 0.86419 0.62591 0.37706 0.0
C542 C 0.85285 0.64549 0.41309 0.0
C543 C 0.87943 0.6424 0.35778 0.0
C544 C 0.83853 0.57255 0.35435 0.0
N545 N 0.83018 0.56902 0.39735 0.0
C546 C 0.8387 0.54494 0.41139 0.0
C547 C 0.82999 0.55539 0.42579 0.0
C548 C 0.84759 0.54842 0.36718 0.0
C549 C 0.84735 0.56246 0.33858 0.0
H550 H 0.83811 0.58311 0.33185 0.0
H551 H 0.82295 0.55244 0.45942 0.0
C552 C 0.80815 0.62157 0.5523 0.0
N553 N 0.82106 0.62122 0.52222 0.0
C554 C 0.81434 0.63437 0.59026 0.0
C555 C 0.84691 0.64612 0.56562 0.0
C556 C 0.84013 0.63284 0.5291 0.0
C557 C 0.83404 0.64726 0.59705 0.0
H558 H 0.79302 0.61225 0.5462 0.0
H559 H 0.85021 0.63225 0.50527 0.0
C560 C 0.79439 0.566 0.33622 0.0
N561 N 0.77801 0.53026 0.29529 0.0
C562 C 0.79445 0.56425 0.28754 0.0
C563 C 0.78599 0.54956 0.36411 0.0
C564 C 0.78609 0.54605 0.26751 0.0
C565 C 0.77779 0.53163 0.34274 0.0
C566 C 0.79061 0.62319 0.41208 0.0
C567 C 0.77951 0.62044 0.37217 0.0
C568 C 0.79613 0.63932 0.44008 0.0
C569 C 0.77418 0.63396 0.36075 0.0
C570 C 0.79048 0.65249 0.42751 0.0
N571 N 0.77972 0.64956 0.38843 0.0
C572 C 0.74595 0.5577 0.43009 0.0
C573 C 0.75487 0.56787 0.35177 0.0
C574 C 0.72658 0.54733 0.41705 0.0
N575 N 0.75963 0.56777 0.39743 0.0
C576 C 0.73585 0.55769 0.33725 0.0
C577 C 0.72128 0.54731 0.36996 0.0
H578 H 0.75003 0.55783 0.46624 0.0
H579 H 0.76592 0.57595 0.32632 0.0
C580 C 0.83015 0.62255 0.29151 0.0
N581 N 0.82404 0.62796 0.32988 0.0
C582 C 0.83695 0.63444 0.25238 0.0
C583 C 0.83106 0.6573 0.29294 0.0
C584 C 0.82475 0.64514 0.33161 0.0
C585 C 0.83716 0.6519 0.25274 0.0
H586 H 0.82979 0.60899 0.29145 0.0
H587 H 0.82069 0.64961 0.36303 0.0
O588 O 0.79898 0.57703 0.46484 0.0
O589 O 0.83547 0.61145 0.42306 0.0
O590 O 0.80268 0.58378 0.3562 0.0
O591 O 0.796 0.61016 0.424 0.0
H592 H 0.83337 0.59377 0.50419 0.0
H593 H 0.77661 0.54489 0.50976 0.0
H594 H 0.84227 0.58095 0.57262 0.0
H595 H 0.78657 0.53281 0.57796 0.0
H596 H 0.86999 0.67563 0.3991 0.0
H597 H 0.86293 0.61215 0.37059 0.0
H598 H 0.84245 0.64694 0.43396 0.0
H599 H 0.8899 0.64139 0.33618 0.0
H600 H 0.83858 0.53434 0.43483 0.0
H601 H 0.85359 0.56541 0.30388 0.0
H602 H 0.80371 0.63416 0.61369 0.0
H603 H 0.86216 0.65576 0.56791 0.0
H604 H 0.80089 0.57682 0.26546 0.0
H605 H 0.7858 0.55058 0.40182 0.0
H606 H 0.78604 0.54449 0.22987 0.0
H607 H 0.77126 0.5188 0.36389 0.0
H608 H 0.77533 0.6082 0.34982 0.0
H609 H 0.80479 0.64171 0.47098 0.0
H610 H 0.76568 0.63207 0.3298 0.0
H611 H 0.79468 0.66506 0.44877 0.0
H612 H 0.71589 0.53969 0.44369 0.0
H613 H 0.73267 0.55787 0.30048 0.0
H614 H 0.84161 0.6299 0.22186 0.0
H615 H 0.83139 0.67086 0.29457 0.0
Li616 Li 0.44088 0.23838 0.41787 0.0
Li617 Li 0.41814 0.21205 0.467 0.0
Li618 Li 0.44288 0.20887 0.41441 0.0
Li619 Li 0.41442 0.21022 0.38186 0.0
C620 C 0.46112 0.24017 0.49592 0.0
N621 N 0.48957 0.2696 0.54722 0.0
C622 C 0.45694 0.25209 0.52273 0.0
C623 C 0.47971 0.24309 0.49535 0.0
C624 C 0.47154 0.26694 0.54834 0.0
C625 C 0.49391 0.25808 0.52154 0.0
C626 C 0.40124 0.23343 0.44598 0.0
C627 C 0.36949 0.22559 0.46997 0.0
N628 N 0.37683 0.24303 0.49061 0.0
C629 C 0.40847 0.25133 0.4672 0.0
C630 C 0.3816 0.22049 0.44708 0.0
C631 C 0.39589 0.2559 0.48966 0.0
C632 C 0.44577 0.27214 0.37948 0.0
N633 N 0.45532 0.26574 0.40637 0.0
C634 C 0.48358 0.29663 0.40294 0.0
C635 C 0.47396 0.27757 0.4181 0.0
C636 C 0.47416 0.30357 0.37425 0.0
C637 C 0.45491 0.2909 0.36276 0.0
H638 H 0.43114 0.26236 0.36935 0.0
H639 H 0.48162 0.27219 0.43798 0.0
C640 C 0.39313 0.18439 0.53361 0.0
N641 N 0.40285 0.20346 0.52421 0.0
C642 C 0.37999 0.17711 0.57065 0.0
C643 C 0.38735 0.20923 0.58881 0.0
C644 C 0.40057 0.2159 0.5519 0.0
C645 C 0.37654 0.1895 0.59844 0.0
H646 H 0.3953 0.1747 0.51178 0.0
H647 H 0.40857 0.23102 0.54461 0.0
C648 C 0.45354 0.23749 0.33205 0.0
N649 N 0.47835 0.26654 0.27341 0.0
C650 C 0.44639 0.24383 0.29596 0.0
C651 C 0.47328 0.24577 0.33814 0.0
C652 C 0.45918 0.25857 0.26672 0.0
C653 C 0.4856 0.26048 0.30816 0.0
C654 C 0.40074 0.17343 0.40924 0.0
C655 C 0.40554 0.16082 0.38785 0.0
C656 C 0.38152 0.16823 0.4143 0.0
C657 C 0.39098 0.14326 0.37133 0.0
C658 C 0.36738 0.15055 0.39729 0.0
N659 N 0.37236 0.13854 0.3763 0.0
C660 C 0.46459 0.1897 0.43404 0.0
C661 C 0.46152 0.19623 0.35465 0.0
C662 C 0.47475 0.18053 0.42072 0.0
N663 N 0.45818 0.19728 0.40096 0.0
C664 C 0.47171 0.18739 0.33987 0.0
C665 C 0.47841 0.17926 0.37297 0.0
H666 H 0.46163 0.19057 0.47065 0.0
H667 H 0.45596 0.202 0.32889 0.0
C668 C 0.38669 0.21033 0.32219 0.0
N669 N 0.39714 0.20168 0.33099 0.0
C670 C 0.37446 0.20479 0.28361 0.0
C671 C 0.38397 0.18157 0.26409 0.0
C672 C 0.39628 0.18781 0.30247 0.0
C673 C 0.37294 0.19015 0.2543 0.0
H674 H 0.38807 0.22169 0.34475 0.0
H675 H 0.40532 0.18173 0.30923 0.0
O676 O 0.44704 0.2255 0.47085 0.0
O677 O 0.41333 0.22869 0.42388 0.0
O678 O 0.44126 0.22351 0.36193 0.0
O679 O 0.41481 0.19076 0.42521 0.0
H680 H 0.44261 0.24999 0.52342 0.0
H681 H 0.48312 0.23392 0.4748 0.0
H682 H 0.46856 0.27636 0.56908 0.0
H683 H 0.50838 0.26057 0.52139 0.0
H684 H 0.35427 0.21568 0.47129 0.0
H685 H 0.42365 0.2615 0.4668 0.0
H686 H 0.37577 0.20665 0.43054 0.0
H687 H 0.40128 0.26965 0.50645 0.0
H688 H 0.49832 0.30573 0.41338 0.0
H689 H 0.44703 0.29513 0.33978 0.0
H690 H 0.37256 0.16188 0.57711 0.0
H691 H 0.38527 0.21948 0.60853 0.0
H692 H 0.43112 0.23758 0.29096 0.0
H693 H 0.479 0.24106 0.36614 0.0
H694 H 0.45387 0.26373 0.23882 0.0
H695 H 0.50092 0.26714 0.31264 0.0
H696 H 0.42036 0.16461 0.3838 0.0
H697 H 0.37759 0.17779 0.43102 0.0
H698 H 0.39447 0.13339 0.3545 0.0
H699 H 0.35245 0.14638 0.40076 0.0
H700 H 0.47972 0.17454 0.44748 0.0
H701 H 0.47386 0.18647 0.30272 0.0
H702 H 0.36618 0.21175 0.27692 0.0
H703 H 0.38339 0.17046 0.24168 0.0
Li704 Li 0.81248 0.21189 0.46796 0.0
Li705 Li 0.78609 0.20749 0.41822 0.0
Li706 Li 0.81444 0.21029 0.38228 0.0
Li707 Li 0.81516 0.23908 0.41743 0.0
C708 C 0.80098 0.17597 0.428 0.0
N709 N 0.81005 0.14724 0.43292 0.0
C710 C 0.7866 0.15685 0.42458 0.0
C711 C 0.82 0.1805 0.43366 0.0
C712 C 0.79147 0.14253 0.42722 0.0
C713 C 0.82428 0.16577 0.43616 0.0
C714 C 0.78454 0.22219 0.50576 0.0
C715 C 0.76635 0.2319 0.55394 0.0
N716 N 0.75711 0.21417 0.57347 0.0
C717 C 0.77486 0.20406 0.5262 0.0
C718 C 0.78027 0.23623 0.5196 0.0
C719 C 0.76104 0.20029 0.56042 0.0
C720 C 0.83718 0.21728 0.54629 0.0
N721 N 0.82031 0.20472 0.52558 0.0
C722 C 0.81649 0.18001 0.5787 0.0
C723 C 0.80976 0.18649 0.54182 0.0
C724 C 0.83409 0.19248 0.59996 0.0
C725 C 0.84428 0.21148 0.58396 0.0
H726 H 0.84542 0.23166 0.53271 0.0
H727 H 0.79638 0.17668 0.52511 0.0
C728 C 0.75252 0.17916 0.37732 0.0
N729 N 0.75863 0.19368 0.40879 0.0
C730 C 0.73353 0.16955 0.36212 0.0
C731 C 0.72713 0.18958 0.41299 0.0
C732 C 0.74631 0.19886 0.42719 0.0
C733 C 0.72055 0.17488 0.37941 0.0
H734 H 0.76263 0.17545 0.3628 0.0
H735 H 0.75148 0.21075 0.45118 0.0
C736 C 0.8508 0.24199 0.40463 0.0
N737 N 0.88485 0.26746 0.36177 0.0
C738 C 0.85074 0.24907 0.35994 0.0
C739 C 0.86816 0.24784 0.42746 0.0
C740 C 0.86811 0.26194 0.3389 0.0
C741 C 0.88523 0.26072 0.4052 0.0
C742 C 0.7862 0.22318 0.33643 0.0
C743 C 0.78237 0.21536 0.29139 0.0
C744 C 0.77513 0.23055 0.35474 0.0
C745 C 0.76726 0.21466 0.26584 0.0
C746 C 0.76015 0.22959 0.32811 0.0
N747 N 0.75654 0.22169 0.28461 0.0
C748 C 0.81002 0.18927 0.30115 0.0
C749 C 0.84182 0.20514 0.32973 0.0
C750 C 0.81541 0.18234 0.26275 0.0
N751 N 0.82329 0.20089 0.33286 0.0
C752 C 0.84783 0.19847 0.29202 0.0
C753 C 0.83461 0.18715 0.25745 0.0
H754 H 0.79524 0.18545 0.30567 0.0
H755 H 0.85196 0.21363 0.35649 0.0
C756 C 0.84329 0.27884 0.43163 0.0
N757 N 0.82703 0.26654 0.4082 0.0
C758 C 0.85359 0.29823 0.41909 0.0
C759 C 0.8298 0.29217 0.36017 0.0
C760 C 0.82022 0.27293 0.37316 0.0
C761 C 0.84691 0.30507 0.38258 0.0
H762 H 0.84871 0.27345 0.45876 0.0
H763 H 0.80779 0.26304 0.35367 0.0
O764 O 0.79641 0.19012 0.42501 0.0
O765 O 0.79784 0.22609 0.47158 0.0
O766 O 0.83397 0.22959 0.42631 0.0
O767 O 0.80065 0.2236 0.36255 0.0
H768 H 0.77182 0.15313 0.41996 0.0
H769 H 0.83134 0.19522 0.4362 0.0
H770 H 0.78048 0.12766 0.4247 0.0
H771 H 0.83893 0.16906 0.44064 0.0
H772 H 0.76286 0.24261 0.56498 0.0
H773 H 0.77778 0.19296 0.51519 0.0
H774 H 0.78758 0.2503 0.50378 0.0
H775 H 0.75338 0.1863 0.57646 0.0
H776 H 0.80805 0.16532 0.59024 0.0
H777 H 0.85794 0.22155 0.59924 0.0
H778 H 0.72911 0.15813 0.33679 0.0
H779 H 0.71775 0.19438 0.42689 0.0
H780 H 0.83745 0.24469 0.34167 0.0
H781 H 0.86845 0.24249 0.46204 0.0
H782 H 0.86828 0.26756 0.30439 0.0
H783 H 0.89878 0.26538 0.42246 0.0
H784 H 0.79104 0.21004 0.27604 0.0
H785 H 0.77792 0.23671 0.38953 0.0
H786 H 0.7641 0.20856 0.23102 0.0
H787 H 0.75136 0.23505 0.34212 0.0
H788 H 0.8047 0.17363 0.23708 0.0
H789 H 0.86266 0.20205 0.29013 0.0
H790 H 0.86674 0.30771 0.43733 0.0
H791 H 0.82431 0.29672 0.3313 0.0
Li792 Li 0.9232 0.44767 0.26661 0.0
Li793 Li 0.94936 0.47695 0.30059 0.0
Li794 Li 0.9211 0.47678 0.26808 0.0
Li795 Li 0.94539 0.47536 0.21659 0.0
C796 C 0.91257 0.44853 0.35377 0.0
N797 N 0.8923 0.41912 0.41645 0.0
C798 C 0.92217 0.4446 0.3889 0.0
C799 C 0.89265 0.43756 0.35066 0.0
C800 C 0.91166 0.42967 0.42026 0.0
C801 C 0.88267 0.42273 0.38261 0.0
C802 C 0.96195 0.45431 0.22999 0.0
C803 C 0.99178 0.46279 0.19156 0.0
N804 N 0.98332 0.44541 0.17028 0.0
C805 C 0.95356 0.43652 0.20778 0.0
C806 C 0.98123 0.46755 0.22195 0.0
C807 C 0.96461 0.43229 0.17774 0.0
C808 C 0.89137 0.40876 0.26238 0.0
N809 N 0.90958 0.42045 0.27732 0.0
C810 C 0.90878 0.39504 0.32238 0.0
C811 C 0.91847 0.41385 0.30595 0.0
C812 C 0.88973 0.38266 0.30884 0.0
C813 C 0.88118 0.38971 0.27759 0.0
H814 H 0.88454 0.41436 0.23992 0.0
H815 H 0.93288 0.42352 0.31779 0.0
C816 C 0.96293 0.49474 0.38728 0.0
N817 N 0.96679 0.48621 0.35121 0.0
C818 C 0.97507 0.50145 0.42594 0.0
C819 C 0.99479 0.49026 0.38975 0.0
C820 C 0.98227 0.48379 0.35173 0.0
C821 C 0.99122 0.49919 0.42756 0.0
H822 H 0.9503 0.49616 0.3861 0.0
H823 H 0.98482 0.47672 0.32284 0.0
C824 C 0.90344 0.4617 0.18928 0.0
N825 N 0.87692 0.46787 0.14321 0.0
C826 C 0.9089 0.4737 0.15018 0.0
C827 C 0.8845 0.45276 0.20486 0.0
C828 C 0.89527 0.47664 0.12735 0.0
C829 C 0.87131 0.4561 0.18114 0.0
C830 C 0.96105 0.5126 0.28116 0.0
C831 C 0.95433 0.5226 0.30766 0.0
C832 C 0.98067 0.5191 0.27955 0.0
C833 C 0.96737 0.5389 0.33229 0.0
C834 C 0.99324 0.53543 0.30475 0.0
N835 N 0.98639 0.54491 0.33038 0.0
C836 C 0.8958 0.48394 0.3212 0.0
C837 C 0.90407 0.50023 0.24854 0.0
C838 C 0.88551 0.49292 0.33417 0.0
N839 N 0.90483 0.48767 0.27905 0.0
C840 C 0.89394 0.5096 0.26018 0.0
C841 C 0.88461 0.50613 0.30379 0.0
H842 H 0.89713 0.47451 0.3457 0.0
H843 H 0.91177 0.5034 0.21575 0.0
C844 C 0.95825 0.47091 0.12498 0.0
N845 N 0.96009 0.48364 0.15868 0.0
C846 C 0.97092 0.47678 0.08685 0.0
C847 C 0.98647 0.50892 0.11733 0.0
C848 C 0.97357 0.50244 0.15482 0.0
C849 C 0.98553 0.496 0.08296 0.0
H850 H 0.94734 0.45606 0.12843 0.0
H851 H 0.97468 0.51239 0.18153 0.0
O852 O 0.92263 0.46275 0.32189 0.0
O853 O 0.9513 0.45883 0.25899 0.0
O854 O 0.91662 0.45886 0.21246 0.0
O855 O 0.94846 0.49637 0.25761 0.0
H856 H 0.93758 0.45279 0.39159 0.0
H857 H 0.88501 0.44028 0.32336 0.0
H858 H 0.91891 0.4264 0.44746 0.0
H859 H 0.86727 0.41403 0.38036 0.0
H860 H 1.00666 0.47296 0.18472 0.0
H861 H 0.93863 0.42616 0.21329 0.0
H862 H 0.98789 0.48148 0.23837 0.0
H863 H 0.9583 0.4186 0.1602 0.0
H864 H 0.91599 0.39054 0.34689 0.0
H865 H 0.86668 0.38072 0.26536 0.0
H866 H 0.97162 0.50797 0.45466 0.0
H867 H 1.00717 0.48837 0.38944 0.0
H868 H 0.92353 0.48075 0.13778 0.0
H869 H 0.8801 0.44351 0.23523 0.0
H870 H 0.89929 0.48593 0.09712 0.0
H871 H 0.85663 0.44937 0.19294 0.0
H872 H 0.93921 0.51776 0.30953 0.0
H873 H 0.98611 0.51139 0.25978 0.0
H874 H 0.96236 0.54673 0.35306 0.0
H875 H 1.00844 0.54051 0.30412 0.0
H876 H 0.87896 0.49007 0.36853 0.0
H877 H 0.8936 0.5196 0.23547 0.0
H878 H 0.96935 0.46632 0.0609 0.0
H879 H 0.99748 0.52383 0.11627 0.0
Li880 Li 0.57694 0.47649 0.26438 0.0
Li881 Li 0.54691 0.47457 0.29477 0.0
Li882 Li 0.54538 0.44693 0.25759 0.0
Li883 Li 0.54984 0.47409 0.21073 0.0
C884 C 0.55921 0.44677 0.34254 0.0
N885 N 0.55664 0.41732 0.397 0.0
C886 C 0.54598 0.43939 0.37917 0.0
C887 C 0.57123 0.43929 0.33376 0.0
C888 C 0.54488 0.42447 0.40628 0.0
C889 C 0.56968 0.42438 0.36166 0.0
C890 C 0.56917 0.51049 0.27838 0.0
C891 C 0.55734 0.53167 0.29911 0.0
N892 N 0.57219 0.54095 0.32939 0.0
C893 C 0.58435 0.52028 0.30957 0.0
C894 C 0.55558 0.51626 0.27293 0.0
C895 C 0.58562 0.53563 0.33507 0.0
C896 C 0.61776 0.49616 0.24609 0.0
N897 N 0.60372 0.48783 0.27888 0.0
C898 C 0.62705 0.49703 0.33996 0.0
C899 C 0.60804 0.48812 0.32505 0.0
C900 C 0.64192 0.50598 0.30717 0.0
C901 C 0.63705 0.50538 0.25956 0.0
H902 H 0.61398 0.49588 0.20963 0.0
H903 H 0.59666 0.4818 0.35063 0.0
C904 C 0.52142 0.48295 0.34439 0.0
N905 N 0.53804 0.48259 0.34652 0.0
C906 C 0.51521 0.48896 0.38304 0.0
C907 C 0.54319 0.49371 0.4255 0.0
C908 C 0.54892 0.48778 0.3859 0.0
C909 C 0.52612 0.49439 0.42442 0.0
H910 H 0.51303 0.47866 0.31269 0.0
H911 H 0.56204 0.48722 0.38652 0.0
C912 C 0.56648 0.44645 0.18347 0.0
N913 N 0.56949 0.41834 0.13563 0.0
C914 C 0.55206 0.43438 0.15255 0.0
C915 C 0.58248 0.44431 0.18994 0.0
C916 C 0.55382 0.42022 0.12876 0.0
C917 C 0.58373 0.43 0.16542 0.0
C918 C 0.51214 0.45158 0.22226 0.0
C919 C 0.50332 0.43372 0.20031 0.0
C920 C 0.50518 0.46411 0.2145 0.0
C921 C 0.48765 0.42868 0.171 0.0
C922 C 0.48951 0.45855 0.18486 0.0
N923 N 0.48114 0.4411 0.16392 0.0
C924 C 0.5165 0.4131 0.29501 0.0
C925 C 0.53905 0.40752 0.25573 0.0
C926 C 0.5068 0.39431 0.31149 0.0
N927 N 0.5324 0.41945 0.26793 0.0
C928 C 0.52952 0.38842 0.27066 0.0
C929 C 0.51323 0.38155 0.29958 0.0
H930 H 0.51177 0.42295 0.30549 0.0
H931 H 0.55205 0.41283 0.23577 0.0
C932 C 0.5513 0.50243 0.14815 0.0
N933 N 0.54412 0.48328 0.15304 0.0
C934 C 0.54558 0.50968 0.11078 0.0
C935 C 0.52565 0.47748 0.08286 0.0
C936 C 0.53196 0.47088 0.12042 0.0
C937 C 0.5322 0.49716 0.07787 0.0
H938 H 0.56123 0.51213 0.17381 0.0
H939 H 0.52649 0.45573 0.12446 0.0
O940 O 0.56009 0.46096 0.31469 0.0
O941 O 0.56734 0.49503 0.25423 0.0
O942 O 0.56517 0.46054 0.20663 0.0
O943 O 0.52748 0.45678 0.25117 0.0
H944 H 0.53651 0.44498 0.38619 0.0
H945 H 0.58144 0.44478 0.30527 0.0
H946 H 0.53463 0.41852 0.43456 0.0
H947 H 0.5788 0.41835 0.35509 0.0
H948 H 0.54684 0.53619 0.29552 0.0
H949 H 0.59496 0.51597 0.31431 0.0
H950 H 0.54361 0.5087 0.24936 0.0
H951 H 0.59725 0.54329 0.35949 0.0
H952 H 0.63005 0.4974 0.37703 0.0
H953 H 0.64803 0.51197 0.23299 0.0
H954 H 0.50211 0.4895 0.38033 0.0
H955 H 0.5519 0.49746 0.45679 0.0
H956 H 0.53958 0.43584 0.1473 0.0
H957 H 0.59379 0.4536 0.21368 0.0
H958 H 0.54273 0.41071 0.10488 0.0
H959 H 0.596 0.42814 0.17012 0.0
H960 H 0.50861 0.42391 0.20538 0.0
H961 H 0.51202 0.47812 0.23045 0.0
H962 H 0.48073 0.41493 0.15371 0.0
H963 H 0.48406 0.46816 0.1783 0.0
H964 H 0.49474 0.39011 0.33465 0.0
H965 H 0.53505 0.37926 0.25991 0.0
H966 H 0.55155 0.52499 0.10805 0.0
H967 H 0.51522 0.46711 0.059 0.0
Li968 Li 0.5469 0.10302 0.26783 0.0
Li969 Li 0.54797 0.07571 0.29674 0.0
Li970 Li 0.577 0.10178 0.26691 0.0
Li971 Li 0.55011 0.0796 0.21274 0.0
C972 C 0.5716 0.11948 0.34201 0.0
N973 N 0.59133 0.155 0.3839 0.0
C974 C 0.57363 0.12099 0.39068 0.0
C975 C 0.57963 0.13605 0.31462 0.0
C976 C 0.58365 0.13907 0.4112 0.0
C977 C 0.58954 0.15387 0.33647 0.0
C978 C 0.51041 0.06315 0.26558 0.0
C979 C 0.48057 0.0343 0.25032 0.0
N980 N 0.47309 0.03732 0.28996 0.0
C981 C 0.50242 0.06599 0.30609 0.0
C982 C 0.49941 0.0472 0.23739 0.0
C983 C 0.48354 0.05276 0.31786 0.0
C984 C 0.53102 0.12803 0.24896 0.0
N985 N 0.53505 0.11822 0.28148 0.0
C986 C 0.52168 0.12842 0.34229 0.0
C987 C 0.53054 0.1183 0.32737 0.0
C988 C 0.51705 0.13852 0.30974 0.0
C989 C 0.52196 0.13831 0.26239 0.0
H990 H 0.53466 0.12773 0.21261 0.0
H991 H 0.53376 0.11036 0.3527 0.0
C992 C 0.55053 0.06269 0.38473 0.0
N993 N 0.53892 0.05755 0.34659 0.0
C994 C 0.54536 0.05069 0.42365 0.0
C995 C 0.51639 0.02826 0.3833 0.0
C996 C 0.52231 0.04051 0.34481 0.0
C997 C 0.52797 0.03341 0.42329 0.0
H998 H 0.56383 0.07615 0.38481 0.0
H999 H 0.5137 0.03625 0.31353 0.0
C1000 C 0.57725 0.11612 0.17581 0.0
N1001 N 0.60194 0.13057 0.10051 0.0
C1002 C 0.58564 0.10599 0.15746 0.0
C1003 C 0.58143 0.13359 0.15595 0.0
C1004 C 0.59807 0.11353 0.11933 0.0
C1005 C 0.59396 0.14067 0.11789 0.0
C1006 C 0.56572 0.05793 0.27084 0.0
C1007 C 0.58056 0.05891 0.2981 0.0
C1008 C 0.54962 0.04016 0.26166 0.0
C1009 C 0.57893 0.04209 0.31626 0.0
C1010 C 0.54853 0.02367 0.28041 0.0
N1011 N 0.56308 0.02497 0.30715 0.0
C1012 C 0.60869 0.11215 0.32279 0.0
C1013 C 0.61769 0.13015 0.25259 0.0
C1014 C 0.62753 0.12187 0.33895 0.0
N1015 N 0.60409 0.11629 0.28025 0.0
C1016 C 0.63681 0.14025 0.2674 0.0
C1017 C 0.64196 0.1362 0.31127 0.0
H1018 H 0.5976 0.10131 0.34453 0.0
H1019 H 0.61376 0.13363 0.21942 0.0
C1020 C 0.52933 0.06461 0.12517 0.0
N1021 N 0.54287 0.06517 0.15455 0.0
C1022 C 0.52276 0.05192 0.087 0.0
C1023 C 0.54419 0.0407 0.10999 0.0
C1024 C 0.55064 0.05386 0.14677 0.0
C1025 C 0.5299 0.03935 0.07929 0.0
H1026 H 0.52326 0.07367 0.13201 0.0
H1027 H 0.56149 0.05458 0.17013 0.0
O1028 O 0.56197 0.1018 0.32154 0.0
O1029 O 0.52886 0.0759 0.25334 0.0
O1030 O 0.56509 0.1091 0.21321 0.0
O1031 O 0.56684 0.07428 0.25356 0.0
H1032 H 0.56752 0.1083 0.41238 0.0
H1033 H 0.57827 0.13523 0.27692 0.0
H1034 H 0.58533 0.14044 0.44883 0.0
H1035 H 0.59583 0.16681 0.31571 0.0
H1036 H 0.4719 0.02187 0.22891 0.0
H1037 H 0.5108 0.07808 0.32863 0.0
H1038 H 0.5054 0.04473 0.20603 0.0
H1039 H 0.47721 0.05472 0.34926 0.0
H1040 H 0.51861 0.12839 0.37922 0.0
H1041 H 0.51855 0.14571 0.23583 0.0
H1042 H 0.55463 0.05503 0.45403 0.0
H1043 H 0.50303 0.01484 0.38172 0.0
H1044 H 0.58275 0.09256 0.17274 0.0
H1045 H 0.57508 0.14161 0.16991 0.0
H1046 H 0.60469 0.10587 0.1048 0.0
H1047 H 0.59734 0.15419 0.10218 0.0
H1048 H 0.59321 0.07247 0.30514 0.0
H1049 H 0.53789 0.03915 0.24103 0.0
H1050 H 0.59027 0.04264 0.33758 0.0
H1051 H 0.53608 0.00985 0.27393 0.0
H1052 H 0.63075 0.11804 0.37271 0.0
H1053 H 0.64737 0.15136 0.24512 0.0
H1054 H 0.51208 0.05193 0.06416 0.0
H1055 H 0.55007 0.03129 0.10695 0.0
Li1056 Li 0.48016 0.9403 0.79817 0.0
Li1057 Li 0.48404 0.91733 0.7439 0.0
Li1058 Li 0.4812 0.94335 0.71404 0.0
Li1059 Li 0.45274 0.91643 0.74431 0.0
C1060 C 0.51714 0.95979 0.73527 0.0
N1061 N 0.54778 0.99 0.69096 0.0
C1062 C 0.52895 0.95647 0.70561 0.0
C1063 C 0.52101 0.97851 0.74267 0.0
C1064 C 0.54435 0.97192 0.68345 0.0
C1065 C 0.53655 0.99358 0.71989 0.0
C1066 C 0.46931 0.902 0.834 0.0
C1067 C 0.46061 0.87405 0.88109 0.0
N1068 N 0.4771 0.88401 0.90588 0.0
C1069 C 0.48617 0.91198 0.8599 0.0
C1070 C 0.4564 0.8829 0.84464 0.0
C1071 C 0.48984 0.90263 0.89615 0.0
C1072 C 0.47492 0.95514 0.88674 0.0
N1073 N 0.48774 0.95519 0.85567 0.0
C1074 C 0.51362 0.9806 0.89783 0.0
C1075 C 0.5068 0.96729 0.86138 0.0
C1076 C 0.50083 0.9813 0.93033 0.0
C1077 C 0.48118 0.96797 0.92463 0.0
H1078 H 0.4598 0.94544 0.88155 0.0
H1079 H 0.51681 0.96699 0.83679 0.0
C1080 C 0.50138 0.90295 0.68476 0.0
N1081 N 0.4966 0.90261 0.7306 0.0
C1082 C 0.51028 0.89291 0.66935 0.0
C1083 C 0.51 0.88272 0.74887 0.0
C1084 C 0.50072 0.89271 0.76265 0.0
C1085 C 0.51491 0.88265 0.70148 0.0
H1086 H 0.49831 0.91114 0.65984 0.0
H1087 H 0.49701 0.89262 0.79896 0.0
C1088 C 0.45769 0.9574 0.74613 0.0
N1089 N 0.44831 0.98491 0.7228 0.0
C1090 C 0.44656 0.95506 0.70653 0.0
C1091 C 0.46398 0.97369 0.77401 0.0
C1092 C 0.442 0.96916 0.69526 0.0
C1093 C 0.45909 0.98744 0.7616 0.0
C1094 C 0.45961 0.89922 0.6703 0.0
C1095 C 0.45825 0.89728 0.6216 0.0
C1096 C 0.45198 0.88289 0.69852 0.0
C1097 C 0.4493 0.87901 0.60189 0.0
C1098 C 0.44314 0.86488 0.67747 0.0
N1099 N 0.442 0.86332 0.63 0.0
C1100 C 0.49536 0.95528 0.62439 0.0
C1101 C 0.49173 0.97876 0.66568 0.0
C1102 C 0.50219 0.96709 0.58514 0.0
N1103 N 0.49013 0.96119 0.66344 0.0
C1104 C 0.49809 0.99085 0.6269 0.0
C1105 C 0.50334 0.98497 0.58609 0.0
H1106 H 0.49432 0.9414 0.62393 0.0
H1107 H 0.48839 0.98359 0.69761 0.0
C1108 C 0.41194 0.89076 0.76399 0.0
N1109 N 0.42563 0.90137 0.73184 0.0
C1110 C 0.39261 0.88039 0.75065 0.0
C1111 C 0.40195 0.89188 0.67159 0.0
C1112 C 0.42092 0.90205 0.68643 0.0
C1113 C 0.38736 0.88091 0.70376 0.0
H1114 H 0.41599 0.8904 0.79994 0.0
H1115 H 0.43198 0.91054 0.66137 0.0
O1116 O 0.50173 0.94479 0.75644 0.0
O1117 O 0.46532 0.9109 0.79868 0.0
O1118 O 0.46229 0.94378 0.75794 0.0
O1119 O 0.46837 0.91709 0.68994 0.0
H1120 H 0.52626 0.94212 0.69965 0.0
H1121 H 0.51185 0.98134 0.76494 0.0
H1122 H 0.55355 0.96953 0.66025 0.0
H1123 H 0.53959 1.00811 0.72497 0.0
H1124 H 0.45076 0.85926 0.88969 0.0
H1125 H 0.49645 0.92667 0.85168 0.0
H1126 H 0.44326 0.87502 0.82495 0.0
H1127 H 0.50286 0.91014 0.9164 0.0
H1128 H 0.52881 0.99059 0.89931 0.0
H1129 H 0.47063 0.96744 0.9489 0.0
H1130 H 0.51332 0.89314 0.63237 0.0
H1131 H 0.5135 0.87538 0.77537 0.0
H1132 H 0.44173 0.94267 0.68434 0.0
H1133 H 0.47266 0.97576 0.8047 0.0
H1134 H 0.43349 0.96759 0.66455 0.0
H1135 H 0.46391 1.00014 0.78277 0.0
H1136 H 0.46403 0.90977 0.59926 0.0
H1137 H 0.45286 0.88406 0.73621 0.0
H1138 H 0.44815 0.8773 0.56424 0.0
H1139 H 0.4372 0.85213 0.69889 0.0
H1140 H 0.50619 0.96218 0.55412 0.0
H1141 H 0.49915 1.00475 0.62893 0.0
H1142 H 0.3819 0.87229 0.77692 0.0
H1143 H 0.39884 0.89248 0.63495 0.0
Li1144 Li 0.10731 0.5716 0.75724 0.0
Li1145 Li 0.08451 0.5444 0.80317 0.0
Li1146 Li 0.10927 0.54202 0.74999 0.0
Li1147 Li 0.08123 0.54413 0.71933 0.0
C1148 C 0.12932 0.57187 0.82965 0.0
N1149 N 0.16151 0.5998 0.87447 0.0
C1150 C 0.12784 0.58438 0.86092 0.0
C1151 C 0.14713 0.57348 0.82127 0.0
C1152 C 0.1443 0.59844 0.88317 0.0
C1153 C 0.16325 0.58771 0.84429 0.0
C1154 C 0.06922 0.56649 0.79278 0.0
C1155 C 0.03935 0.55875 0.82987 0.0
N1156 N 0.04832 0.5756 0.85358 0.0
C1157 C 0.07815 0.58373 0.81749 0.0
C1158 C 0.04965 0.55391 0.79888 0.0
C1159 C 0.06733 0.58808 0.84803 0.0
C1160 C 0.11202 0.60573 0.72229 0.0
N1161 N 0.12181 0.59911 0.7475 0.0
C1162 C 0.15016 0.62991 0.74321 0.0
C1163 C 0.1406 0.6108 0.75801 0.0
C1164 C 0.14051 0.63704 0.71604 0.0
C1165 C 0.12109 0.62453 0.70592 0.0
H1166 H 0.09726 0.59606 0.71301 0.0
H1167 H 0.14847 0.60527 0.77635 0.0
C1168 C 0.05558 0.51648 0.86265 0.0
N1169 N 0.06932 0.53525 0.86042 0.0
C1170 C 0.04239 0.50962 0.89958 0.0
C1171 C 0.05807 0.54132 0.93266 0.0
C1172 C 0.07104 0.54755 0.8952 0.0
C1173 C 0.04324 0.52216 0.93488 0.0
H1174 H 0.05451 0.50685 0.83507 0.0
H1175 H 0.08207 0.56238 0.89314 0.0
C1176 C 0.12048 0.57205 0.67106 0.0
N1177 N 0.14563 0.60181 0.61457 0.0
C1178 C 0.11354 0.57907 0.63605 0.0
C1179 C 0.14019 0.58003 0.67715 0.0
C1180 C 0.1265 0.59416 0.60789 0.0
C1181 C 0.15268 0.5951 0.64827 0.0
C1182 C 0.0679 0.50786 0.73511 0.0
C1183 C 0.07374 0.49728 0.70802 0.0
C1184 C 0.04855 0.50259 0.73644 0.0
C1185 C 0.06013 0.48166 0.68234 0.0
C1186 C 0.03539 0.4869 0.71019 0.0
N1187 N 0.04141 0.47686 0.6839 0.0
C1188 C 0.1302 0.52191 0.76677 0.0
C1189 C 0.12893 0.53099 0.6886 0.0
C1190 C 0.14029 0.51281 0.75237 0.0
N1191 N 0.1247 0.53072 0.73482 0.0
C1192 C 0.13904 0.52221 0.67277 0.0
C1193 C 0.14474 0.51274 0.70462 0.0
H1194 H 0.12645 0.52165 0.80326 0.0
H1195 H 0.12415 0.53778 0.66367 0.0
C1196 C 0.04918 0.53899 0.66658 0.0
N1197 N 0.06457 0.53641 0.66733 0.0
C1198 C 0.03704 0.5331 0.62782 0.0
C1199 C 0.05701 0.52228 0.59132 0.0
C1200 C 0.06878 0.52842 0.63068 0.0
C1201 C 0.04087 0.52456 0.5896 0.0
H1202 H 0.04634 0.54559 0.69605 0.0
H1203 H 0.0813 0.52681 0.63218 0.0
O1204 O 0.11337 0.55784 0.80807 0.0
O1205 O 0.0796 0.56187 0.76308 0.0
O1206 O 0.10804 0.55769 0.69992 0.0
O1207 O 0.08108 0.5235 0.75956 0.0
H1208 H 0.11417 0.58336 0.86761 0.0
H1209 H 0.14849 0.56387 0.79721 0.0
H1210 H 0.1434 0.60829 0.9073 0.0
H1211 H 0.17714 0.58916 0.8381 0.0
H1212 H 0.02423 0.54909 0.8352 0.0
H1213 H 0.09331 0.59356 0.81356 0.0
H1214 H 0.04255 0.54041 0.78046 0.0
H1215 H 0.07407 0.60134 0.86751 0.0
H1216 H 0.16505 0.63887 0.75259 0.0
H1217 H 0.11299 0.62891 0.6841 0.0
H1218 H 0.03122 0.49476 0.89949 0.0
H1219 H 0.05956 0.55149 0.9594 0.0
H1220 H 0.0983 0.57308 0.63109 0.0
H1221 H 0.14576 0.57481 0.70435 0.0
H1222 H 0.12135 0.59984 0.58085 0.0
H1223 H 0.16798 0.60152 0.65279 0.0
H1224 H 0.08863 0.50113 0.70661 0.0
H1225 H 0.04381 0.51074 0.75684 0.0
H1226 H 0.06446 0.47339 0.66107 0.0
H1227 H 0.02042 0.48277 0.71057 0.0
H1228 H 0.14412 0.5055 0.77825 0.0
H1229 H 0.14232 0.52285 0.63582 0.0
H1230 H 0.02466 0.53499 0.62801 0.0
H1231 H 0.06065 0.51604 0.56231 0.0
Li1232 Li 0.48011 0.5433 0.79719 0.0
Li1233 Li 0.45281 0.53921 0.74411 0.0
Li1234 Li 0.48115 0.54154 0.71324 0.0
Li1235 Li 0.48331 0.57033 0.7421 0.0
C1236 C 0.46219 0.50586 0.73756 0.0
N1237 N 0.462 0.47478 0.69651 0.0
C1238 C 0.44826 0.49486 0.70442 0.0
C1239 C 0.47597 0.501 0.75001 0.0
C1240 C 0.44843 0.47923 0.68398 0.0
C1241 C 0.47564 0.48523 0.72885 0.0
C1242 C 0.45347 0.55535 0.83373 0.0
C1243 C 0.43575 0.56584 0.88128 0.0
N1244 N 0.42896 0.54964 0.90735 0.0
C1245 C 0.44633 0.53881 0.86098 0.0
C1246 C 0.4482 0.56901 0.84395 0.0
C1247 C 0.43395 0.53618 0.89808 0.0
C1248 C 0.50308 0.54961 0.88013 0.0
N1249 N 0.48791 0.5364 0.85488 0.0
C1250 C 0.48574 0.51125 0.90383 0.0
C1251 C 0.47899 0.51756 0.86671 0.0
C1252 C 0.50175 0.52444 0.92968 0.0
C1253 C 0.51019 0.54393 0.91802 0.0
H1254 H 0.51009 0.56449 0.86985 0.0
H1255 H 0.4669 0.50729 0.84641 0.0
C1256 C 0.42044 0.52168 0.68717 0.0
N1257 N 0.42541 0.52671 0.73272 0.0
C1258 C 0.40134 0.51282 0.67311 0.0
C1259 C 0.39237 0.51359 0.75337 0.0
C1260 C 0.41178 0.52284 0.7658 0.0
C1261 C 0.38699 0.50859 0.70637 0.0
H1262 H 0.43138 0.52445 0.66151 0.0
H1263 H 0.41582 0.52682 0.8018 0.0
C1264 C 0.51874 0.56521 0.73856 0.0
N1265 N 0.55435 0.57423 0.70472 0.0
C1266 C 0.52524 0.57486 0.69597 0.0
C1267 C 0.53039 0.56024 0.76411 0.0
C1268 C 0.54327 0.57926 0.67938 0.0
C1269 C 0.54835 0.56491 0.74637 0.0
C1270 C 0.45837 0.56319 0.67022 0.0
C1271 C 0.45722 0.56451 0.62163 0.0
C1272 C 0.45006 0.57094 0.69944 0.0
C1273 C 0.44773 0.57352 0.60308 0.0
C1274 C 0.4407 0.57983 0.67954 0.0
N1275 N 0.43973 0.58092 0.63217 0.0
C1276 C 0.48038 0.529 0.62196 0.0
C1277 C 0.50442 0.52832 0.66817 0.0
C1278 C 0.48579 0.52237 0.58308 0.0
N1279 N 0.48984 0.53206 0.66325 0.0
C1280 C 0.51047 0.52189 0.63005 0.0
C1281 C 0.50115 0.51894 0.5868 0.0
H1282 H 0.46857 0.5317 0.61928 0.0
H1283 H 0.51129 0.53017 0.7017 0.0
C1284 C 0.50028 0.61095 0.7637 0.0
N1285 N 0.49546 0.59747 0.72978 0.0
C1286 C 0.50946 0.63042 0.75174 0.0
C1287 C 0.50816 0.62169 0.6704 0.0
C1288 C 0.49937 0.60255 0.6839 0.0
C1289 C 0.5134 0.63596 0.70443 0.0
H1290 H 0.49713 0.60662 0.79998 0.0
H1291 H 0.49582 0.59171 0.65751 0.0
O1292 O 0.46251 0.52148 0.75718 0.0
O1293 O 0.46579 0.55834 0.79764 0.0
O1294 O 0.50113 0.56073 0.7554 0.0
O1295 O 0.46765 0.55437 0.68872 0.0
H1296 H 0.43749 0.4984 0.69436 0.0
H1297 H 0.48708 0.50955 0.77495 0.0
H1298 H 0.43778 0.47064 0.65811 0.0
H1299 H 0.48631 0.4814 0.73788 0.0
H1300 H 0.43152 0.57628 0.88957 0.0
H1301 H 0.45004 0.52798 0.85311 0.0
H1302 H 0.45369 0.58194 0.82328 0.0
H1303 H 0.42825 0.52341 0.91935 0.0
H1304 H 0.47859 0.49614 0.91198 0.0
H1305 H 0.5226 0.55459 0.93682 0.0
H1306 H 0.39779 0.50894 0.63666 0.0
H1307 H 0.3817 0.51058 0.78008 0.0
H1308 H 0.51633 0.57862 0.67555 0.0
H1309 H 0.52555 0.55271 0.79707 0.0
H1310 H 0.54842 0.5866 0.6463 0.0
H1311 H 0.55749 0.56109 0.76566 0.0
H1312 H 0.46363 0.55868 0.59845 0.0
H1313 H 0.45077 0.57011 0.73703 0.0
H1314 H 0.44674 0.57463 0.56554 0.0
H1315 H 0.43419 0.58586 0.70176 0.0
H1316 H 0.47826 0.52026 0.55026 0.0
H1317 H 0.52215 0.51905 0.63446 0.0
H1318 H 0.51327 0.64101 0.77908 0.0
H1319 H 0.51122 0.62531 0.63368 0.0
Li1320 Li 0.61599 0.81005 0.63235 0.0
Li1321 Li 0.58941 0.7811 0.60395 0.0
Li1322 Li 0.61298 0.80815 0.54843 0.0
Li1323 Li 0.58977 0.81212 0.60192 0.0
C1324 C 0.63045 0.78692 0.60628 0.0
N1325 N 0.658 0.77896 0.63857 0.0
C1326 C 0.62778 0.77721 0.64862 0.0
C1327 C 0.64708 0.79248 0.5802 0.0
C1328 C 0.64189 0.77337 0.66442 0.0
C1329 C 0.66085 0.78834 0.59715 0.0
C1330 C 0.57169 0.78816 0.67614 0.0
C1331 C 0.53737 0.77139 0.66752 0.0
N1332 N 0.53545 0.7702 0.71492 0.0
C1333 C 0.56937 0.78674 0.72478 0.0
C1334 C 0.55555 0.78039 0.64725 0.0
C1335 C 0.55094 0.77762 0.7437 0.0
C1336 C 0.62773 0.82265 0.72353 0.0
N1337 N 0.63421 0.81971 0.68218 0.0
C1338 C 0.66508 0.83023 0.71524 0.0
C1339 C 0.65261 0.82369 0.67716 0.0
C1340 C 0.65863 0.83304 0.75856 0.0
C1341 C 0.63977 0.82938 0.76237 0.0
H1342 H 0.61318 0.81978 0.72628 0.0
H1343 H 0.65769 0.82197 0.64359 0.0
C1344 C 0.56518 0.74027 0.58408 0.0
N1345 N 0.57459 0.75401 0.617 0.0
C1346 C 0.55494 0.72091 0.5971 0.0
C1347 C 0.564 0.73029 0.67746 0.0
C1348 C 0.57421 0.74929 0.66289 0.0
C1349 C 0.55425 0.71564 0.64453 0.0
H1350 H 0.56573 0.74431 0.54773 0.0
H1351 H 0.58188 0.76036 0.68854 0.0
C1352 C 0.63234 0.84568 0.60785 0.0
N1353 N 0.6631 0.87695 0.64859 0.0
C1354 C 0.62932 0.85661 0.64106 0.0
C1355 C 0.65101 0.85071 0.5952 0.0
C1356 C 0.64505 0.87235 0.66133 0.0
C1357 C 0.66637 0.86657 0.61619 0.0
C1358 C 0.57405 0.79575 0.51271 0.0
C1359 C 0.58325 0.81217 0.48498 0.0
C1360 C 0.55507 0.78203 0.50329 0.0
C1361 C 0.57324 0.81462 0.44823 0.0
C1362 C 0.54554 0.78503 0.46628 0.0
N1363 N 0.55475 0.80112 0.43974 0.0
C1364 C 0.62959 0.80196 0.46507 0.0
C1365 C 0.63736 0.83395 0.47873 0.0
C1366 C 0.64236 0.80773 0.42713 0.0
N1367 N 0.62756 0.81511 0.4905 0.0
C1368 C 0.6504 0.84035 0.44156 0.0
C1369 C 0.65331 0.82724 0.41558 0.0
H1370 H 0.62181 0.78708 0.47529 0.0
H1371 H 0.63547 0.84417 0.49915 0.0
C1372 C 0.57477 0.82944 0.65924 0.0
N1373 N 0.57476 0.8245 0.61361 0.0
C1374 C 0.56447 0.83823 0.67346 0.0
C1375 C 0.55481 0.83762 0.59322 0.0
C1376 C 0.56502 0.82843 0.58062 0.0
C1377 C 0.55436 0.8425 0.64029 0.0
H1378 H 0.58295 0.82666 0.68482 0.0
H1379 H 0.56515 0.82456 0.54455 0.0
O1380 O 0.61683 0.79085 0.59016 0.0
O1381 O 0.58973 0.79708 0.65726 0.0
O1382 O 0.61711 0.82996 0.58839 0.0
O1383 O 0.58362 0.79293 0.54848 0.0
H1384 H 0.61511 0.77298 0.66943 0.0
H1385 H 0.64942 0.80007 0.54744 0.0
H1386 H 0.64007 0.76598 0.69729 0.0
H1387 H 0.67382 0.79262 0.57744 0.0
H1388 H 0.52477 0.76534 0.64555 0.0
H1389 H 0.58168 0.79257 0.74771 0.0
H1390 H 0.55697 0.78129 0.60964 0.0
H1391 H 0.54895 0.77642 0.78127 0.0
H1392 H 0.67966 0.83326 0.71076 0.0
H1393 H 0.63429 0.83138 0.79524 0.0
H1394 H 0.54791 0.71021 0.57014 0.0
H1395 H 0.56367 0.72722 0.71446 0.0
H1396 H 0.61499 0.85294 0.65128 0.0
H1397 H 0.65365 0.84221 0.57021 0.0
H1398 H 0.64292 0.88088 0.68724 0.0
H1399 H 0.68089 0.87053 0.60699 0.0
H1400 H 0.59783 0.82304 0.49222 0.0
H1401 H 0.54779 0.76919 0.52432 0.0
H1402 H 0.58015 0.8273 0.4266 0.0
H1403 H 0.53083 0.77455 0.45861 0.0
H1404 H 0.64419 0.79713 0.40822 0.0
H1405 H 0.65828 0.85547 0.43349 0.0
H1406 H 0.56474 0.84202 0.70996 0.0
H1407 H 0.54718 0.8407 0.56657 0.0
Li1408 Li 0.24298 0.8094 0.59917 0.0
Li1409 Li 0.21327 0.80837 0.63219 0.0
Li1410 Li 0.21144 0.78001 0.59647 0.0
Li1411 Li 0.21503 0.80623 0.54658 0.0
C1412 C 0.22504 0.781 0.6821 0.0
N1413 N 0.22073 0.75193 0.74079 0.0
C1414 C 0.21187 0.77501 0.71887 0.0
C1415 C 0.23615 0.77235 0.67536 0.0
C1416 C 0.20988 0.76025 0.74813 0.0
C1417 C 0.23372 0.75763 0.70537 0.0
C1418 C 0.23678 0.84537 0.60081 0.0
C1419 C 0.22719 0.86918 0.60695 0.0
N1420 N 0.24439 0.88146 0.62659 0.0
C1421 C 0.25441 0.85825 0.62076 0.0
C1422 C 0.2231 0.85088 0.59356 0.0
C1423 C 0.25796 0.87643 0.63366 0.0
C1424 C 0.28384 0.82933 0.57934 0.0
N1425 N 0.26988 0.82105 0.61233 0.0
C1426 C 0.29334 0.83049 0.67315 0.0
C1427 C 0.27431 0.82153 0.65848 0.0
C1428 C 0.30813 0.83936 0.64017 0.0
C1429 C 0.30317 0.83867 0.59259 0.0
H1430 H 0.27998 0.82894 0.5429 0.0
H1431 H 0.26301 0.81525 0.68424 0.0
C1432 C 0.18572 0.80714 0.69444 0.0
N1433 N 0.20455 0.81712 0.68274 0.0
C1434 C 0.17898 0.81266 0.733 0.0
C1435 C 0.21114 0.83862 0.74657 0.0
C1436 C 0.21731 0.83239 0.70831 0.0
C1437 C 0.19177 0.82864 0.75933 0.0
H1438 H 0.176 0.79472 0.67426 0.0
H1439 H 0.23232 0.83956 0.6995 0.0
C1440 C 0.22879 0.77782 0.51652 0.0
N1441 N 0.22576 0.74808 0.46251 0.0
C1442 C 0.21205 0.76634 0.49137 0.0
C1443 C 0.24405 0.77429 0.51408 0.0
C1444 C 0.21077 0.75133 0.46434 0.0
C1445 C 0.24223 0.75916 0.48655 0.0
C1446 C 0.17647 0.78557 0.57169 0.0
C1447 C 0.16465 0.7676 0.55188 0.0
C1448 C 0.17044 0.79906 0.57282 0.0
C1449 C 0.14704 0.76351 0.53297 0.0
C1450 C 0.15275 0.79443 0.55348 0.0
N1451 N 0.14152 0.7769 0.53411 0.0
C1452 C 0.18274 0.74652 0.63609 0.0
C1453 C 0.20483 0.74065 0.59543 0.0
C1454 C 0.17313 0.72779 0.65302 0.0
N1455 N 0.19838 0.75268 0.60816 0.0
C1456 C 0.19535 0.7216 0.61072 0.0
C1457 C 0.17935 0.7149 0.64058 0.0
H1458 H 0.17818 0.75646 0.64688 0.0
H1459 H 0.21762 0.74585 0.5746 0.0
C1460 C 0.21858 0.83348 0.47738 0.0
N1461 N 0.2082 0.81468 0.48941 0.0
C1462 C 0.21269 0.8408 0.44047 0.0
C1463 C 0.18577 0.80924 0.42788 0.0
C1464 C 0.19236 0.80247 0.46448 0.0
C1465 C 0.19581 0.82871 0.41585 0.0
H1466 H 0.23121 0.84297 0.49726 0.0
H1467 H 0.18447 0.78753 0.47364 0.0
O1468 O 0.2268 0.79501 0.65222 0.0
O1469 O 0.23302 0.82749 0.58825 0.0
O1470 O 0.23035 0.79259 0.54307 0.0
O1471 O 0.19377 0.78985 0.59022 0.0
H1472 H 0.20314 0.78155 0.7244 0.0
H1473 H 0.24633 0.77678 0.64683 0.0
H1474 H 0.19965 0.75537 0.77657 0.0
H1475 H 0.2421 0.75069 0.70038 0.0
H1476 H 0.21671 0.87362 0.6017 0.0
H1477 H 0.26518 0.85422 0.62647 0.0
H1478 H 0.20947 0.84113 0.57777 0.0
H1479 H 0.2715 0.88653 0.64934 0.0
H1480 H 0.29642 0.83095 0.7102 0.0
H1481 H 0.31411 0.84526 0.56593 0.0
H1482 H 0.16394 0.8046 0.74201 0.0
H1483 H 0.22147 0.8508 0.76669 0.0
H1484 H 0.20012 0.76889 0.4931 0.0
H1485 H 0.25711 0.78311 0.53334 0.0
H1486 H 0.19786 0.74224 0.44486 0.0
H1487 H 0.25388 0.7562 0.48437 0.0
H1488 H 0.16911 0.75701 0.55067 0.0
H1489 H 0.17933 0.81295 0.58847 0.0
H1490 H 0.13778 0.74971 0.5173 0.0
H1491 H 0.14794 0.80476 0.55393 0.0
H1492 H 0.16131 0.72375 0.67688 0.0
H1493 H 0.20069 0.71234 0.59945 0.0
H1494 H 0.22088 0.85591 0.43243 0.0
H1495 H 0.17288 0.79933 0.40932 0.0
Li1496 Li 0.21155 0.4348 0.60279 0.0
Li1497 Li 0.21285 0.40782 0.6338 0.0
Li1498 Li 0.24181 0.43367 0.60383 0.0
Li1499 Li 0.21498 0.41066 0.54963 0.0
C1500 C 0.23544 0.45203 0.67702 0.0
N1501 N 0.25363 0.48797 0.71709 0.0
C1502 C 0.23573 0.45403 0.72568 0.0
C1503 C 0.24438 0.46832 0.64873 0.0
C1504 C 0.245 0.47232 0.74527 0.0
C1505 C 0.25351 0.48636 0.66965 0.0
C1506 C 0.17541 0.39383 0.60124 0.0
C1507 C 0.14689 0.3637 0.58591 0.0
N1508 N 0.13849 0.36633 0.62432 0.0
C1509 C 0.16646 0.39628 0.64041 0.0
C1510 C 0.16554 0.37744 0.57364 0.0
C1511 C 0.14781 0.38219 0.65157 0.0
C1512 C 0.19727 0.46102 0.58175 0.0
N1513 N 0.1998 0.45019 0.61438 0.0
C1514 C 0.18582 0.46036 0.67371 0.0
C1515 C 0.19418 0.44967 0.65954 0.0
C1516 C 0.18299 0.47171 0.6411 0.0
C1517 C 0.18874 0.47188 0.5944 0.0
H1518 H 0.20191 0.46128 0.54606 0.0
H1519 H 0.19622 0.44091 0.68489 0.0
C1520 C 0.21495 0.39604 0.72376 0.0
N1521 N 0.20383 0.39011 0.68471 0.0
C1522 C 0.20996 0.38429 0.76312 0.0
C1523 C 0.18209 0.36051 0.7215 0.0
C1524 C 0.18784 0.37255 0.68262 0.0
C1525 C 0.19322 0.36641 0.76228 0.0
H1526 H 0.22781 0.4099 0.72412 0.0
H1527 H 0.17969 0.36769 0.65071 0.0
C1528 C 0.24262 0.44895 0.51347 0.0
N1529 N 0.26848 0.46696 0.44176 0.0
C1530 C 0.24939 0.43892 0.48732 0.0
C1531 C 0.24895 0.46811 0.50315 0.0
C1532 C 0.26246 0.44828 0.45117 0.0
C1533 C 0.26206 0.47697 0.4668 0.0
C1534 C 0.2323 0.3912 0.61339 0.0
C1535 C 0.24739 0.3946 0.64327 0.0
C1536 C 0.21746 0.37247 0.60626 0.0
C1537 C 0.24728 0.37921 0.66591 0.0
C1538 C 0.21788 0.35747 0.62951 0.0
N1539 N 0.23265 0.36112 0.65865 0.0
C1540 C 0.27354 0.44826 0.66305 0.0
C1541 C 0.28308 0.45795 0.58484 0.0
C1542 C 0.29249 0.45832 0.6783 0.0
N1543 N 0.26908 0.44833 0.61711 0.0
C1544 C 0.30235 0.46796 0.59847 0.0
C1545 C 0.30736 0.46832 0.64594 0.0
H1546 H 0.26229 0.44028 0.68815 0.0
H1547 H 0.27945 0.45782 0.54847 0.0
C1548 C 0.19511 0.39592 0.46094 0.0
N1549 N 0.20769 0.39569 0.4923 0.0
C1550 C 0.18852 0.38308 0.42306 0.0
C1551 C 0.20793 0.37008 0.45048 0.0
C1552 C 0.21444 0.38339 0.48692 0.0
C1553 C 0.19464 0.36957 0.41768 0.0
H1554 H 0.18985 0.40577 0.46586 0.0
H1555 H 0.2246 0.38356 0.51176 0.0
O1556 O 0.22634 0.43415 0.65749 0.0
O1557 O 0.19363 0.40745 0.58955 0.0
O1558 O 0.22967 0.44004 0.54867 0.0
O1559 O 0.23193 0.40615 0.59176 0.0
H1560 H 0.22883 0.44157 0.74808 0.0
H1561 H 0.24432 0.46709 0.61106 0.0
H1562 H 0.24534 0.47408 0.78288 0.0
H1563 H 0.26049 0.49907 0.64817 0.0
H1564 H 0.13911 0.35092 0.56497 0.0
H1565 H 0.17391 0.40877 0.66235 0.0
H1566 H 0.17226 0.37528 0.54327 0.0
H1567 H 0.14075 0.38384 0.68196 0.0
H1568 H 0.18135 0.45949 0.70983 0.0
H1569 H 0.18691 0.4805 0.56812 0.0
H1570 H 0.21888 0.38921 0.7941 0.0
H1571 H 0.16926 0.34663 0.71955 0.0
H1572 H 0.24484 0.42417 0.49527 0.0
H1573 H 0.24378 0.47603 0.52301 0.0
H1574 H 0.26788 0.44073 0.43073 0.0
H1575 H 0.26712 0.49181 0.45844 0.0
H1576 H 0.25904 0.40896 0.64905 0.0
H1577 H 0.2055 0.36959 0.58382 0.0
H1578 H 0.25883 0.38165 0.68929 0.0
H1579 H 0.20639 0.34293 0.62464 0.0
H1580 H 0.29533 0.45831 0.71533 0.0
H1581 H 0.31318 0.47508 0.57181 0.0
H1582 H 0.17866 0.38376 0.39854 0.0
H1583 H 0.21298 0.35995 0.44922 0.0
C1584 C 0.19815 0.34711 0.36167 0.0
C1585 C 0.18714 0.35488 0.37902 0.0
H1586 H 0.19992 0.32706 0.31656 0.0
C1587 C 0.16877 0.34808 0.35972 0.0
H1588 H 0.2125 0.35202 0.3743 0.0
C1589 C 0.1618 0.33417 0.32422 0.0
C1590 C 0.17277 0.32624 0.30737 0.0
H1591 H 0.15956 0.35329 0.37221 0.0
H1592 H 0.14784 0.32986 0.30974 0.0
C1593 C 0.191 0.33287 0.32723 0.0
C1594 C 0.68632 0.85011 0.38509 0.0
C1595 C 0.66813 0.83405 0.37783 0.0
H1596 H 0.71418 0.86884 0.35735 0.0
C1597 C 0.66429 0.82466 0.33438 0.0
H1598 H 0.68989 0.85749 0.41842 0.0
C1599 C 0.67816 0.83137 0.29883 0.0
C1600 C 0.69641 0.8475 0.30591 0.0
H1601 H 0.65037 0.81236 0.32745 0.0
H1602 H 0.67436 0.82406 0.26542 0.0
C1603 C 0.70027 0.85666 0.34983 0.0
C1604 C 0.169 0.83126 0.37787 0.0
C1605 C 0.18841 0.83642 0.3788 0.0
H1606 H 0.14703 0.8345 0.34477 0.0
C1607 C 0.20064 0.84907 0.34439 0.0
H1608 H 0.15925 0.82179 0.40433 0.0
C1609 C 0.19358 0.85614 0.30947 0.0
C1610 C 0.17411 0.85101 0.30836 0.0
H1611 H 0.21564 0.85321 0.34387 0.0
H1612 H 0.20339 0.86534 0.2828 0.0
C1613 C 0.16198 0.83855 0.34344 0.0
C1614 C 0.34491 0.16384 0.63217 0.0
C1615 C 0.36157 0.18191 0.63635 0.0
H1616 H 0.31818 0.14301 0.66264 0.0
C1617 C 0.36357 0.19278 0.6768 0.0
H1618 H 0.34248 0.15511 0.60138 0.0
C1619 C 0.34935 0.18595 0.71142 0.0
C1620 C 0.3328 0.16792 0.70711 0.0
H1621 H 0.37626 0.20654 0.68222 0.0
H1622 H 0.35146 0.19469 0.74208 0.0
C1623 C 0.33083 0.15689 0.66722 0.0
C1624 C 0.84923 0.19579 0.67931 0.0
C1625 C 0.84195 0.18547 0.63754 0.0
H1626 H 0.86105 0.19701 0.74707 0.0
C1627 C 0.84216 0.16828 0.63184 0.0
H1628 H 0.84911 0.20899 0.68494 0.0
C1629 C 0.84947 0.16157 0.66698 0.0
C1630 C 0.85649 0.17167 0.70936 0.0
H1631 H 0.83692 0.16013 0.59977 0.0
H1632 H 0.84975 0.14851 0.66047 0.0
C1633 C 0.85622 0.18891 0.71487 0.0
C1634 C 0.86692 0.68361 0.68835 0.0
C1635 C 0.85559 0.6908 0.707 0.0
H1636 H 0.86899 0.66394 0.64255 0.0
C1637 C 0.83691 0.68335 0.68908 0.0
H1638 H 0.8815 0.68904 0.6998 0.0
C1639 C 0.82995 0.66938 0.65371 0.0
C1640 C 0.84123 0.662 0.63564 0.0
H1641 H 0.82744 0.68808 0.70257 0.0
H1642 H 0.81572 0.66457 0.64035 0.0
C1643 C 0.85978 0.66929 0.65412 0.0
C1644 C 1.0073 0.49088 0.02845 0.0
C1645 C 1.00002 0.50251 0.04425 0.0
H1646 H 0.02674 0.48797 0.98259 0.0
C1647 C 1.00711 0.52066 0.02362 0.0
H1648 H 1.00249 0.47697 0.04396 0.0
C1649 C 0.02113 0.52702 0.98853 0.0
C1650 C 0.02847 0.51542 0.97288 0.0
H1651 H 1.00168 0.52994 0.03419 0.0
H1652 H 0.02599 0.54095 0.97308 0.0
C1653 C 0.0213 0.49723 0.99326 0.0
C1654 C 0.51956 0.49528 0.99556 0.0
C1655 C 0.52481 0.50448 0.03942 0.0
H1656 H 0.50831 0.49432 0.92698 0.0
C1657 C 0.52259 0.52057 0.04643 0.0
H1658 H 0.52138 0.48314 0.9881 0.0
C1659 C 0.51534 0.52717 0.01085 0.0
C1660 C 0.50984 0.51774 0.96744 0.0
H1661 H 0.52606 0.5279 0.0798 0.0
H1662 H 0.51364 0.53943 0.0177 0.0
C1663 C 0.51209 0.50174 0.96027 0.0
C1664 C 0.5339 0.01789 0.02088 0.0
C1665 C 0.5224 0.0247 0.04053 0.0
H1666 H 0.53613 0.99858 0.9741 0.0
C1667 C 0.50355 0.01691 0.0235 0.0
H1668 H 0.5486 0.02359 0.03167 0.0
C1669 C 0.49658 1.00298 0.98805 0.0
C1670 C 0.50804 0.996 0.96897 0.0
H1671 H 0.49397 0.02135 0.03779 0.0
H1672 H 0.4822 0.99789 0.97541 0.0
C1673 C 0.52678 1.00363 0.98652 0.0
C1674 C 0.16337 0.33586 0.86303 0.0
C1675 C 0.1757 0.33035 0.88338 0.0
H1676 H 0.15929 0.35149 0.8079 0.0
C1677 C 0.19386 0.33674 0.86381 0.0
H1678 H 0.14927 0.33098 0.87752 0.0
C1679 C 0.19968 0.34869 0.82461 0.0
C1680 C 0.18725 0.35401 0.80395 0.0
H1681 H 0.20357 0.33266 0.87917 0.0
H1682 H 0.21378 0.35357 0.81003 0.0
C1683 C 0.16904 0.34746 0.82327 0.0
C1684 C 0.67271 0.8543 0.82831 0.0
C1685 C 0.67145 0.83958 0.79971 0.0
H1686 H 0.68559 0.87196 0.88826 0.0
C1687 C 0.68231 0.83094 0.811 0.0
H1688 H 0.66463 0.86134 0.82002 0.0
C1689 C 0.69411 0.8368 0.85043 0.0
C1690 C 0.69544 0.85158 0.87913 0.0
H1691 H 0.6814 0.81938 0.78982 0.0
H1692 H 0.70195 0.82953 0.85878 0.0
C1693 C 0.68465 0.86031 0.86748 0.0
C1694 C 0.18402 0.85984 0.84484 0.0
C1695 C 0.17332 0.84674 0.8804 0.0
H1696 H 0.19824 0.86433 0.77876 0.0
C1697 C 0.16842 0.82749 0.87511 0.0
H1698 H 0.18768 0.87467 0.84704 0.0
C1699 C 0.17413 0.82154 0.83538 0.0
C1700 C 0.18509 0.83475 0.8005 0.0
H1701 H 0.16046 0.81706 0.90203 0.0
H1702 H 0.17037 0.80669 0.83243 0.0
C1703 C 0.18997 0.85393 0.80553 0.0
C1704 C 0.34709 0.16454 0.20607 0.0
C1705 C 0.36012 0.18398 0.21324 0.0
H1706 H 0.32498 0.14352 0.16305 0.0
C1707 C 0.36107 0.19743 0.18062 0.0
H1708 H 0.34597 0.15394 0.23111 0.0
C1709 C 0.34939 0.19147 0.14094 0.0
C1710 C 0.3363 0.17196 0.1335 0.0
H1711 H 0.37118 0.2125 0.18527 0.0
H1712 H 0.35088 0.20215 0.11574 0.0
C1713 C 0.33518 0.1586 0.16687 0.0
C1714 C 0.86431 0.18691 0.15472 0.0
C1715 C 0.85267 0.16855 0.1361 0.0
H1716 H 0.86759 0.20728 0.20696 0.0
C1717 C 0.83508 0.15628 0.15775 0.0
H1718 H 0.87782 0.19676 0.13837 0.0
C1719 C 0.82926 0.16223 0.1973 0.0
C1720 C 0.84088 0.18063 0.21589 0.0
H1721 H 0.82594 0.14195 0.14454 0.0
H1722 H 0.81578 0.15232 0.21365 0.0
C1723 C 0.85846 0.1929 0.19409 0.0
C1724 C 0.86726 0.68203 0.15141 0.0
C1725 C 0.85517 0.68795 0.13149 0.0
H1726 H 0.87082 0.66562 0.20551 0.0
C1727 C 0.83719 0.68199 0.15161 0.0
H1728 H 0.88117 0.68645 0.13625 0.0
C1729 C 0.83144 0.67042 0.1914 0.0
C1730 C 0.84344 0.66434 0.21108 0.0
H1731 H 0.8277 0.68649 0.13687 0.0
H1732 H 0.81753 0.66602 0.20651 0.0
C1733 C 0.86135 0.67012 0.19069 0.0
C1734 C 1.01122 0.49447 0.48737 0.0
C1735 C 1.00406 0.50578 0.46885 0.0
H1736 H 0.02819 0.49139 0.54045 0.0
C1737 C 1.00909 0.52333 0.49037 0.0
H1738 H 1.00734 0.48073 0.47206 0.0
C1739 C 0.02101 0.52941 0.5296 0.0
C1740 C 0.02816 0.51809 0.54809 0.0
H1741 H 1.00402 0.53248 0.47652 0.0
H1742 H 0.02486 0.54312 0.54502 0.0
C1743 C 0.02314 0.50056 0.52656 0.0
C1744 C 0.49416 0.49768 0.51711 0.0
C1745 C 0.50753 0.51249 0.54562 0.0
H1746 H 0.48955 0.48001 0.45723 0.0
C1747 C 0.52703 0.5213 0.53425 0.0
H1748 H 0.47905 0.49051 0.52546 0.0
C1749 C 0.53305 0.5155 0.49483 0.0
C1750 C 0.51971 0.50063 0.46622 0.0
H1751 H 0.5376 0.53293 0.55535 0.0
H1752 H 0.54815 0.52289 0.48642 0.0
C1753 C 0.50019 0.49174 0.47795 0.0
C1754 C 0.49806 1.00393 0.52522 0.0
C1755 C 0.50974 0.99738 0.54445 0.0
H1756 H 0.49469 0.02035 0.47094 0.0
C1757 C 0.52746 1.00266 0.52362 0.0
H1758 H 0.4843 0.99992 0.54071 0.0
C1759 C 0.53351 0.01456 0.48432 0.0
C1760 C 0.52172 0.02093 0.46483 0.0
H1761 H 0.53668 0.99778 0.53812 0.0
H1762 H 0.54728 0.0186 0.46882 0.0
C1763 C 0.50393 0.01547 0.48538 0.0
C1764 C 0.20855 0.21498 0.99426 0.0
C1765 C 0.19144 0.2051 0.02003 0.0
H1766 H 0.23091 0.21363 0.95734 0.0
C1767 C 0.18406 0.1855 0.02878 0.0
H1768 H 0.21485 0.23012 0.98728 0.0
C1769 C 0.19348 0.17605 0.01202 0.0
C1770 C 0.21055 0.18594 0.9861 0.0
H1771 H 0.17085 0.17736 0.04808 0.0
H1772 H 0.18749 0.16101 0.01994 0.0
C1773 C 0.21792 0.20554 0.97748 0.0
C1774 C 0.84638 0.01935 0.99955 0.0
C1775 C 0.83608 0.02882 0.98983 0.0
H1776 H 0.84562 0.99387 0.02331 0.0
C1777 C 0.8163 0.01902 0.99915 0.0
H1778 H 0.86166 0.02637 0.99377 0.0
C1779 C 0.80719 1.00057 0.01804 0.0
C1780 C 0.81742 0.991 0.0273 0.0
H1781 H 0.80766 0.0255 0.99159 0.0
H1782 H 0.79207 0.9939 0.02563 0.0
C1783 C 0.83718 1.0007 0.01757 0.0
C1784 C 1.00259 0.80313 0.0202 0.0
C1785 C 0.99538 0.81289 0.99393 0.0
H1786 H 0.02627 0.80464 0.0576 0.0
C1787 C 1.00757 0.83246 0.98477 0.0
H1788 H 0.99377 0.78801 0.02751 0.0
C1789 C 0.02641 0.84199 1.00164 0.0
C1790 C 0.03358 0.83221 0.02806 0.0
H1791 H 1.0025 0.84051 0.96508 0.0
H1792 H 0.03544 0.857 0.99341 0.0
C1793 C 0.02138 0.81264 0.03707 0.0
C1794 C 0.84538 0.83399 0.97063 0.0
C1795 C 0.84056 0.81607 0.98976 0.0
H1796 H 0.84059 0.85783 0.9712 0.0
C1797 C 0.82642 0.80844 0.02493 0.0
H1798 H 0.85636 0.84048 0.94402 0.0
C1799 C 0.81754 0.81849 0.04085 0.0
C1800 C 0.82238 0.83639 0.02181 0.0
H1801 H 0.82198 0.79452 0.0399 0.0
H1802 H 0.80655 0.81201 0.06746 0.0
C1803 C 0.83638 0.84399 0.98638 0.0
C1804 C 0.18168 0.99561 0.98452 0.0
C1805 C 0.18822 0.99003 0.02391 0.0
H1806 H 0.18573 0.01834 0.93866 0.0
C1807 C 0.20475 1.00391 0.04689 0.0
H1808 H 0.16887 0.98534 0.96625 0.0
C1809 C 0.21455 0.02281 0.03077 0.0
C1810 C 0.20801 0.02845 0.99141 0.0
H1811 H 0.21039 1.00007 0.07678 0.0
H1812 H 0.22747 0.03294 0.04885 0.0
C1813 C 0.19141 0.01455 0.96854 0.0
C1814 C 1.0079 0.20031 0.97144 0.0
C1815 C 0.99453 0.18275 0.99144 0.0
H1816 H 0.03658 0.22377 0.9715 0.0
C1817 C 1.00064 0.1752 0.02765 0.0
H1818 H 1.00363 0.20674 0.94418 0.0
C1819 C 0.01966 0.18493 0.04325 0.0
C1820 C 0.03306 0.20251 0.0232 0.0
H1821 H 0.99076 0.16161 0.04358 0.0
H1822 H 0.0239 0.17847 0.0705 0.0
C1823 C 0.02685 0.21009 0.98721 0.0
C1824 C 0.84886 0.51787 0.36039 0.0
C1825 C 0.85695 0.53749 0.35064 0.0
H1826 H 0.8509 0.49256 0.35252 0.0
C1827 C 0.87402 0.54657 0.32446 0.0
H1828 H 0.83558 0.51029 0.37969 0.0
C1829 C 0.88278 0.53637 0.30868 0.0
C1830 C 0.87476 0.51679 0.31869 0.0
H1831 H 0.88087 0.56171 0.31685 0.0
H1832 H 0.89612 0.54398 0.28959 0.0
C1833 C 0.85764 0.50767 0.34464 0.0
C1834 C 0.5134 0.35182 0.32771 0.0
C1835 C 0.50327 0.36147 0.3182 0.0
H1836 H 0.51238 0.32619 0.35125 0.0
C1837 C 0.48349 0.35183 0.3276 0.0
H1838 H 0.52867 0.35871 0.32187 0.0
C1839 C 0.47424 0.33337 0.34643 0.0
C1840 C 0.48431 0.32363 0.35551 0.0
H1841 H 0.47497 0.35845 0.32018 0.0
H1842 H 0.45913 0.32684 0.35412 0.0
C1843 C 0.50405 0.33316 0.34565 0.0
C1844 C 0.66626 0.15186 0.37583 0.0
C1845 C 0.66216 0.14672 0.32833 0.0
H1846 H 0.68766 0.16451 0.42921 0.0
C1847 C 0.6775 0.15132 0.29763 0.0
H1848 H 0.65486 0.1488 0.40042 0.0
C1849 C 0.69637 0.16052 0.31413 0.0
C1850 C 0.70044 0.1654 0.36177 0.0
H1851 H 0.67492 0.14749 0.26094 0.0
H1852 H 0.7078 0.16389 0.28938 0.0
C1853 C 0.68512 0.16107 0.3923 0.0
C1854 C 0.49336 0.14157 0.36167 0.0
C1855 C 0.50709 0.149 0.32552 0.0
H1856 H 0.47367 0.14519 0.40487 0.0
C1857 C 0.51137 0.16661 0.30539 0.0
H1858 H 0.48932 0.12788 0.37747 0.0
C1859 C 0.50222 0.17648 0.321 0.0
C1860 C 0.48861 0.16906 0.35732 0.0
H1861 H 0.52203 0.17296 0.27803 0.0
H1862 H 0.50599 0.19006 0.30495 0.0
C1863 C 0.48433 0.1515 0.37749 0.0
C1864 C 0.87777 0.33379 0.35732 0.0
C1865 C 0.85804 0.32523 0.36594 0.0
H1866 H 0.90304 0.3581 0.33111 0.0
C1867 C 0.84883 0.3357 0.35601 0.0
H1868 H 0.88523 0.32598 0.36385 0.0
C1869 C 0.85906 0.35426 0.33775 0.0
C1870 C 0.87878 0.36279 0.32831 0.0
H1871 H 0.83366 0.32956 0.36262 0.0
H1872 H 0.85149 0.36196 0.33156 0.0
C1873 C 0.88798 0.35226 0.33849 0.0
C1874 C 0.6753 0.53426 0.30374 0.0
C1875 C 0.66228 0.51638 0.32297 0.0
H1876 H 0.7037 0.55821 0.3043 0.0
C1877 C 0.66874 0.50883 0.35838 0.0
H1878 H 0.67075 0.5407 0.27714 0.0
C1879 C 0.68776 0.51885 0.37391 0.0
C1880 C 0.70082 0.53673 0.35456 0.0
H1881 H 0.65915 0.49501 0.37371 0.0
H1882 H 0.6923 0.51239 0.40049 0.0
C1883 C 0.69425 0.54431 0.31943 0.0
C1884 C 0.54685 0.86901 0.63192 0.0
C1885 C 0.54381 0.85238 0.65496 0.0
H1886 H 0.54098 0.892 0.62946 0.0
C1887 C 0.53119 0.84565 0.69325 0.0
H1888 H 0.55672 0.87469 0.60275 0.0
C1889 C 0.52172 0.85529 0.70806 0.0
C1890 C 0.52489 0.87216 0.6855 0.0
H1891 H 0.5285 0.83277 0.7115 0.0
H1892 H 0.51175 0.84934 0.73694 0.0
C1893 C 0.53769 0.87888 0.64726 0.0
C1894 C 0.17952 0.68508 0.66786 0.0
C1895 C 0.16944 0.69487 0.65953 0.0
H1896 H 0.17849 0.65936 0.69053 0.0
C1897 C 0.14979 0.68542 0.67035 0.0
H1898 H 0.1947 0.69181 0.66092 0.0
C1899 C 0.14062 0.667 0.68942 0.0
C1900 C 0.15061 0.6571 0.69725 0.0
H1901 H 0.14129 0.69214 0.66386 0.0
H1902 H 0.12562 0.66062 0.69823 0.0
C1903 C 0.17023 0.66645 0.68597 0.0
C1904 C 0.36064 0.50524 0.65329 0.0
C1905 C 0.36656 0.49868 0.69188 0.0
H1906 H 0.33748 0.50138 0.60953 0.0
C1907 C 0.35297 0.48219 0.71543 0.0
H1908 H 0.37081 0.518 0.63466 0.0
C1909 C 0.33393 0.4723 0.7003 0.0
C1910 C 0.32784 0.47884 0.66174 0.0
H1911 H 0.35719 0.47665 0.74484 0.0
H1912 H 0.3241 0.45929 0.71851 0.0
C1913 C 0.34152 0.49556 0.63867 0.0
C1914 C 0.17868 0.49272 0.69931 0.0
C1915 C 0.17383 0.48297 0.65618 0.0
H1916 H 0.1737 0.50995 0.74797 0.0
C1917 C 0.1596 0.48339 0.62872 0.0
H1918 H 0.18977 0.49292 0.72107 0.0
C1919 C 0.15022 0.493 0.64439 0.0
C1920 C 0.15492 0.50263 0.68779 0.0
H1921 H 0.15532 0.47581 0.59568 0.0
H1922 H 0.13895 0.4925 0.62282 0.0
C1923 C 0.16939 0.50244 0.71486 0.0
C1924 C 0.51681 0.66257 0.65203 0.0
C1925 C 0.52341 0.65645 0.69021 0.0
H1926 H 0.52091 0.68589 0.60842 0.0
C1927 C 0.54015 0.66985 0.71322 0.0
H1928 H 0.50387 0.65258 0.63375 0.0
C1929 C 0.5502 0.68888 0.69807 0.0
C1930 C 0.54361 0.69514 0.65994 0.0
H1931 H 0.54578 0.66551 0.7422 0.0
H1932 H 0.56336 0.69858 0.71592 0.0
C1933 C 0.5267 0.68168 0.63728 0.0
C1934 C 0.33502 0.84208 0.69075 0.0
C1935 C 0.32849 0.84977 0.65586 0.0
H1936 H 0.35858 0.84558 0.73266 0.0
C1937 C 0.34139 0.86782 0.6373 0.0
H1938 H 0.32549 0.82813 0.70554 0.0
C1939 C 0.36029 0.87794 0.6533 0.0
C1940 C 0.36694 0.87024 0.68799 0.0
H1941 H 0.33676 0.87433 0.61109 0.0
H1942 H 0.36963 0.89199 0.6388 0.0
C1943 C 0.35399 0.85215 0.70651 0.0
loop_
_geom_bond_atom_site_label_1
_geom_bond_atom_site_label_2
_geom_bond_distance
_geom_bond_site_symmetry_2
_ccdc_geom_bond_type
Li0 N17 1.990 . S
Li0 O60 1.956 . S
Li0 O61 1.970 . S
Li0 O62 1.961 . S
Li1 N25 1.990 . S
Li1 O60 1.970 . S
Li1 O61 1.956 . S
Li1 O63 1.961 . S
Li2 N47 1.990 1_554 S
Li2 O60 1.961 . S
Li2 O62 1.956 . S
Li2 O63 1.970 . S
Li3 N53 1.990 . S
Li3 O61 1.961 . S
Li3 O62 1.970 . S
Li3 O63 1.956 . S
C4 C6 1.348 . S
C4 C7 1.356 . S
C4 O60 1.325 . S
N5 C8 1.314 . S
N5 C9 1.279 . S
C6 C4 1.348 . S
C6 C8 1.353 . S
C6 H64 0.929 . S
C7 C4 1.356 . S
C7 C9 1.358 . S
C7 H65 0.930 . S
C8 N5 1.314 . S
C8 C6 1.353 . S
C8 H66 0.930 . S
C9 N5 1.279 . S
C9 C7 1.358 . S
C9 H67 0.930 . S
C10 C13 1.348 . S
C10 C14 1.356 . S
C10 O61 1.325 . S
C11 N12 1.279 . S
C11 C14 1.358 . S
C11 H68 0.930 . S
N12 C11 1.279 . S
N12 C15 1.314 . S
C13 C10 1.348 . S
C13 C15 1.353 . S
C13 H69 0.929 . S
C14 C10 1.356 . S
C14 C11 1.358 . S
C14 H70 0.930 . S
C15 N12 1.314 . S
C15 C13 1.353 . S
C15 H71 0.930 . S
C16 N17 1.314 . S
C16 C21 1.353 . S
C16 H22 0.930 . S
N17 Li0 1.990 . S
N17 C16 1.314 . S
N17 C19 1.279 . S
C18 C19 1.358 . S
C18 C20 1.356 . S
C18 H72 0.930 . S
C19 N17 1.279 . S
C19 C18 1.358 . S
C19 H23 0.930 . S
C20 C18 1.356 . S
C20 C21 1.348 . S
C21 C16 1.353 . S
C21 C20 1.348 . S
C21 H73 0.929 . S
H22 C16 0.930 . S
H23 C19 0.930 . S
C24 N25 1.314 . S
C24 C26 1.353 . S
C24 H30 0.930 1_554 S
N25 Li1 1.990 . S
N25 C24 1.314 . S
N25 C28 1.279 . S
C26 C24 1.353 . S
C26 C29 1.348 . S
C26 H74 0.929 1_554 S
C27 C28 1.358 . S
C27 C29 1.356 . S
C27 H75 0.930 . S
C28 N25 1.279 . S
C28 C27 1.358 . S
C28 H31 0.930 . S
C29 C26 1.348 . S
C29 C27 1.356 . S
H30 C24 0.930 1_556 S
H31 C28 0.930 . S
C32 C34 1.348 . S
C32 C35 1.356 . S
C32 O62 1.325 . S
N33 C36 1.314 . S
N33 C37 1.279 . S
C34 C32 1.348 . S
C34 C36 1.353 . S
C34 H76 0.929 . S
C35 C32 1.356 . S
C35 C37 1.358 . S
C35 H77 0.930 . S
C36 N33 1.314 . S
C36 C34 1.353 . S
C36 H78 0.930 . S
C37 N33 1.279 . S
C37 C35 1.358 . S
C37 H79 0.930 . S
C38 C39 1.348 . S
C38 C40 1.356 . S
C38 O63 1.325 1_556 S
C39 C38 1.348 . S
C39 C41 1.353 . S
C39 H80 0.929 . S
C40 C38 1.356 . S
C40 C42 1.358 . S
C40 H81 0.930 . S
C41 C39 1.353 . S
C41 N43 1.314 . S
C41 H82 0.930 . S
C42 C40 1.358 . S
C42 N43 1.279 . S
C42 H83 0.930 . S
N43 C41 1.314 . S
N43 C42 1.279 . S
C44 C46 1.353 . S
C44 N47 1.314 . S
C44 H50 0.930 . S
C45 N47 1.279 . S
C45 C48 1.358 . S
C45 H51 0.930 . S
C46 C44 1.353 . S
C46 C49 1.348 . S
C46 H84 0.929 . S
N47 Li2 1.990 1_556 S
N47 C44 1.314 . S
N47 C45 1.279 . S
C48 C45 1.358 . S
C48 C49 1.356 . S
C48 H85 0.930 . S
C49 C46 1.348 . S
C49 C48 1.356 . S
H50 C44 0.930 . S
H51 C45 0.930 . S
C52 N53 1.314 . S
C52 C54 1.353 . S
C52 H58 0.930 . S
N53 Li3 1.990 . S
N53 C52 1.314 . S
N53 C56 1.279 . S
C54 C52 1.353 . S
C54 C57 1.348 . S
C54 H86 0.929 . S
C55 C56 1.358 . S
C55 C57 1.356 . S
C55 H87 0.930 1_554 S
C56 N53 1.279 . S
C56 C55 1.358 . S
C56 H59 0.930 1_554 S
C57 C54 1.348 . S
C57 C55 1.356 . S
H58 C52 0.930 . S
H59 C56 0.930 1_556 S
O60 Li0 1.956 . S
O60 Li1 1.970 . S
O60 Li2 1.961 . S
O60 C4 1.325 . S
O61 Li0 1.970 . S
O61 Li1 1.956 . S
O61 Li3 1.961 . S
O61 C10 1.325 . S
O62 Li0 1.961 . S
O62 Li2 1.956 . S
O62 Li3 1.970 . S
O62 C32 1.325 . S
O63 Li1 1.961 . S
O63 Li2 1.970 . S
O63 Li3 1.956 . S
O63 C38 1.325 1_554 S
H64 C6 0.929 . S
H65 C7 0.930 . S
H66 C8 0.930 . S
H67 C9 0.930 . S
H68 C11 0.930 . S
H69 C13 0.929 . S
H70 C14 0.930 . S
H71 C15 0.930 . S
H72 C18 0.930 . S
H73 C21 0.929 . S
H74 C26 0.929 1_556 S
H75 C27 0.930 . S
H76 C34 0.929 . S
H77 C35 0.930 . S
H78 C36 0.930 . S
H79 C37 0.930 . S
H80 C39 0.929 . S
H81 C40 0.930 . S
H82 C41 0.930 . S
H83 C42 0.930 . S
H84 C46 0.929 . S
H85 C48 0.930 . S
H86 C54 0.929 . S
H87 C55 0.930 1_556 S
Li88 N105 1.990 . S
Li88 O148 1.956 . S
Li88 O149 1.970 . S
Li88 O150 1.961 . S
Li89 N113 1.990 . S
Li89 O148 1.970 . S
Li89 O149 1.956 . S
Li89 O151 1.961 . S
Li90 N135 1.990 . S
Li90 O148 1.961 . S
Li90 O150 1.956 . S
Li90 O151 1.970 . S
Li91 N141 1.990 1_554 S
Li91 O149 1.961 . S
Li91 O150 1.970 . S
Li91 O151 1.956 . S
C92 C94 1.348 . S
C92 C95 1.356 . S
C92 O148 1.325 . S
N93 C96 1.314 . S
N93 C97 1.279 . S
C94 C92 1.348 . S
C94 C96 1.353 . S
C94 H152 0.929 . S
C95 C92 1.356 . S
C95 C97 1.358 . S
C95 H153 0.930 . S
C96 N93 1.314 . S
C96 C94 1.353 . S
C96 H154 0.930 . S
C97 N93 1.279 . S
C97 C95 1.358 . S
C97 H155 0.930 . S
C98 C101 1.348 . S
C98 C102 1.356 . S
C98 O149 1.325 . S
C99 N100 1.279 . S
C99 C102 1.358 . S
C99 H156 0.930 . S
N100 C99 1.279 . S
N100 C103 1.314 . S
C101 C98 1.348 . S
C101 C103 1.353 . S
C101 H157 0.929 . S
C102 C98 1.356 . S
C102 C99 1.358 . S
C102 H158 0.930 . S
C103 N100 1.314 . S
C103 C101 1.353 . S
C103 H159 0.930 . S
C104 N105 1.314 . S
C104 C109 1.353 . S
C104 H110 0.930 1_554 S
N105 Li88 1.990 . S
N105 C104 1.314 . S
N105 C107 1.279 . S
C106 C107 1.358 . S
C106 C108 1.356 . S
C106 H160 0.930 . S
C107 N105 1.279 . S
C107 C106 1.358 . S
C107 H111 0.930 . S
C108 C106 1.356 . S
C108 C109 1.348 . S
C109 C104 1.353 . S
C109 C108 1.348 . S
C109 H161 0.929 1_554 S
H110 C104 0.930 1_556 S
H111 C107 0.930 . S
C112 N113 1.314 . S
C112 C114 1.353 . S
C112 H118 0.930 . S
N113 Li89 1.990 . S
N113 C112 1.314 . S
N113 C116 1.279 . S
C114 C112 1.353 . S
C114 C117 1.348 . S
C114 H162 0.929 . S
C115 C116 1.358 . S
C115 C117 1.356 . S
C115 H163 0.930 . S
C116 N113 1.279 . S
C116 C115 1.358 . S
C116 H119 0.930 . S
C117 C114 1.348 . S
C117 C115 1.356 . S
H118 C112 0.930 . S
H119 C116 0.930 . S
C120 C122 1.348 . S
C120 C123 1.356 . S
C120 O150 1.325 1_556 S
N121 C124 1.314 . S
N121 C125 1.279 . S
C122 C120 1.348 . S
C122 C124 1.353 . S
C122 H164 0.929 . S
C123 C120 1.356 . S
C123 C125 1.358 . S
C123 H165 0.930 . S
C124 N121 1.314 . S
C124 C122 1.353 . S
C124 H166 0.930 . S
C125 N121 1.279 . S
C125 C123 1.358 . S
C125 H167 0.930 . S
C126 C127 1.348 . S
C126 C128 1.356 . S
C126 O151 1.325 . S
C127 C126 1.348 . S
C127 C129 1.353 . S
C127 H168 0.929 . S
C128 C126 1.356 . S
C128 C130 1.358 . S
C128 H169 0.930 . S
C129 C127 1.353 . S
C129 N131 1.314 . S
C129 H170 0.930 . S
C130 C128 1.358 . S
C130 N131 1.279 . S
C130 H171 0.930 . S
N131 C129 1.314 . S
N131 C130 1.279 . S
C132 C134 1.353 . S
C132 N135 1.314 . S
C132 H138 0.930 . S
C133 N135 1.279 . S
C133 C136 1.358 . S
C133 H139 0.930 1_554 S
C134 C132 1.353 . S
C134 C137 1.348 . S
C134 H172 0.929 . S
N135 Li90 1.990 . S
N135 C132 1.314 . S
N135 C133 1.279 . S
C136 C133 1.358 . S
C136 C137 1.356 . S
C136 H173 0.930 1_554 S
C137 C134 1.348 . S
C137 C136 1.356 . S
H138 C132 0.930 . S
H139 C133 0.930 1_556 S
C140 N141 1.314 . S
C140 C142 1.353 . S
C140 H146 0.930 . S
N141 Li91 1.990 1_556 S
N141 C140 1.314 . S
N141 C144 1.279 . S
C142 C140 1.353 . S
C142 C145 1.348 . S
C142 H174 0.929 . S
C143 C144 1.358 . S
C143 C145 1.356 . S
C143 H175 0.930 . S
C144 N141 1.279 . S
C144 C143 1.358 . S
C144 H147 0.930 . S
C145 C142 1.348 . S
C145 C143 1.356 . S
H146 C140 0.930 . S
H147 C144 0.930 . S
O148 Li88 1.956 . S
O148 Li89 1.970 . S
O148 Li90 1.961 . S
O148 C92 1.325 . S
O149 Li88 1.970 . S
O149 Li89 1.956 . S
O149 Li91 1.961 . S
O149 C98 1.325 . S
O150 Li88 1.961 . S
O150 Li90 1.956 . S
O150 Li91 1.970 . S
O150 C120 1.325 1_554 S
O151 Li89 1.961 . S
O151 Li90 1.970 . S
O151 Li91 1.956 . S
O151 C126 1.325 . S
H152 C94 0.929 . S
H153 C95 0.930 . S
H154 C96 0.930 . S
H155 C97 0.930 . S
H156 C99 0.930 . S
H157 C101 0.929 . S
H158 C102 0.930 . S
H159 C103 0.930 . S
H160 C106 0.930 . S
H161 C109 0.929 1_556 S
H162 C114 0.929 . S
H163 C115 0.930 . S
H164 C122 0.929 . S
H165 C123 0.930 . S
H166 C124 0.930 . S
H167 C125 0.930 . S
H168 C127 0.929 . S
H169 C128 0.930 . S
H170 C129 0.930 . S
H171 C130 0.930 . S
H172 C134 0.929 . S
H173 C136 0.930 1_556 S
H174 C142 0.929 . S
H175 C143 0.930 . S
Li176 N193 1.990 . S
Li176 O236 1.956 . S
Li176 O237 1.970 . S
Li176 O238 1.961 . S
Li177 N201 1.990 . S
Li177 O236 1.970 . S
Li177 O237 1.956 . S
Li177 O239 1.961 . S
Li178 N223 1.990 1_554 S
Li178 O236 1.961 . S
Li178 O238 1.956 . S
Li178 O239 1.970 . S
Li179 N229 1.990 . S
Li179 O237 1.961 . S
Li179 O238 1.970 . S
Li179 O239 1.956 . S
C180 C182 1.348 . S
C180 C183 1.356 . S
C180 O236 1.325 . S
N181 C184 1.314 . S
N181 C185 1.279 . S
C182 C180 1.348 . S
C182 C184 1.353 . S
C182 H240 0.929 . S
C183 C180 1.356 . S
C183 C185 1.358 . S
C183 H241 0.930 . S
C184 N181 1.314 . S
C184 C182 1.353 . S
C184 H242 0.930 . S
C185 N181 1.279 . S
C185 C183 1.358 . S
C185 H243 0.930 . S
C186 C189 1.348 . S
C186 C190 1.356 . S
C186 O237 1.325 . S
C187 N188 1.279 . S
C187 C190 1.358 . S
C187 H244 0.930 . S
N188 C187 1.279 . S
N188 C191 1.314 . S
C189 C186 1.348 . S
C189 C191 1.353 . S
C189 H245 0.929 . S
C190 C186 1.356 . S
C190 C187 1.358 . S
C190 H246 0.930 . S
C191 N188 1.314 . S
C191 C189 1.353 . S
C191 H247 0.930 . S
C192 N193 1.314 . S
C192 C197 1.353 . S
C192 H198 0.930 . S
N193 Li176 1.990 . S
N193 C192 1.314 . S
N193 C195 1.279 . S
C194 C195 1.358 . S
C194 C196 1.356 . S
C194 H248 0.930 . S
C195 N193 1.279 . S
C195 C194 1.358 . S
C195 H199 0.930 . S
C196 C194 1.356 . S
C196 C197 1.348 . S
C197 C192 1.353 . S
C197 C196 1.348 . S
C197 H249 0.929 . S
H198 C192 0.930 . S
H199 C195 0.930 . S
C200 N201 1.314 . S
C200 C202 1.353 . S
C200 H206 0.930 1_554 S
N201 Li177 1.990 . S
N201 C200 1.314 . S
N201 C204 1.279 . S
C202 C200 1.353 . S
C202 C205 1.348 . S
C202 H250 0.929 1_554 S
C203 C204 1.358 . S
C203 C205 1.356 . S
C203 H251 0.930 . S
C204 N201 1.279 . S
C204 C203 1.358 . S
C204 H207 0.930 . S
C205 C202 1.348 . S
C205 C203 1.356 . S
H206 C200 0.930 1_556 S
H207 C204 0.930 . S
C208 C210 1.348 . S
C208 C211 1.356 . S
C208 O238 1.325 . S
N209 C212 1.314 . S
N209 C213 1.279 . S
C210 C208 1.348 . S
C210 C212 1.353 . S
C210 H252 0.929 . S
C211 C208 1.356 . S
C211 C213 1.358 . S
C211 H253 0.930 . S
C212 N209 1.314 . S
C212 C210 1.353 . S
C212 H254 0.930 . S
C213 N209 1.279 . S
C213 C211 1.358 . S
C213 H255 0.930 . S
C214 C215 1.348 . S
C214 C216 1.356 . S
C214 O239 1.325 1_556 S
C215 C214 1.348 . S
C215 C217 1.353 . S
C215 H256 0.929 . S
C216 C214 1.356 . S
C216 C218 1.358 . S
C216 H257 0.930 . S
C217 C215 1.353 . S
C217 N219 1.314 . S
C217 H258 0.930 . S
C218 C216 1.358 . S
C218 N219 1.279 . S
C218 H259 0.930 . S
N219 C217 1.314 . S
N219 C218 1.279 . S
C220 C222 1.353 . S
C220 N223 1.314 . S
C220 H226 0.930 . S
C221 N223 1.279 . S
C221 C224 1.358 . S
C221 H227 0.930 . S
C222 C220 1.353 . S
C222 C225 1.348 . S
C222 H260 0.929 . S
N223 Li178 1.990 1_556 S
N223 C220 1.314 . S
N223 C221 1.279 . S
C224 C221 1.358 . S
C224 C225 1.356 . S
C224 H261 0.930 . S
C225 C222 1.348 . S
C225 C224 1.356 . S
H226 C220 0.930 . S
H227 C221 0.930 . S
C228 N229 1.314 . S
C228 C230 1.353 . S
C228 H234 0.930 . S
N229 Li179 1.990 . S
N229 C228 1.314 . S
N229 C232 1.279 . S
C230 C228 1.353 . S
C230 C233 1.348 . S
C230 H262 0.929 . S
C231 C232 1.358 . S
C231 C233 1.356 . S
C231 H263 0.930 1_554 S
C232 N229 1.279 . S
C232 C231 1.358 . S
C232 H235 0.930 1_554 S
C233 C230 1.348 . S
C233 C231 1.356 . S
H234 C228 0.930 . S
H235 C232 0.930 1_556 S
O236 Li176 1.956 . S
O236 Li177 1.970 . S
O236 Li178 1.961 . S
O236 C180 1.325 . S
O237 Li176 1.970 . S
O237 Li177 1.956 . S
O237 Li179 1.961 . S
O237 C186 1.325 . S
O238 Li176 1.961 . S
O238 Li178 1.956 . S
O238 Li179 1.970 . S
O238 C208 1.325 . S
O239 Li177 1.961 . S
O239 Li178 1.970 . S
O239 Li179 1.956 . S
O239 C214 1.325 1_554 S
H240 C182 0.929 . S
H241 C183 0.930 . S
H242 C184 0.930 . S
H243 C185 0.930 . S
H244 C187 0.930 . S
H245 C189 0.929 . S
H246 C190 0.930 . S
H247 C191 0.930 . S
H248 C194 0.930 . S
H249 C197 0.929 . S
H250 C202 0.929 1_556 S
H251 C203 0.930 . S
H252 C210 0.929 . S
H253 C211 0.930 . S
H254 C212 0.930 . S
H255 C213 0.930 . S
H256 C215 0.929 . S
H257 C216 0.930 . S
H258 C217 0.930 . S
H259 C218 0.930 . S
H260 C222 0.929 . S
H261 C224 0.930 . S
H262 C230 0.929 . S
H263 C231 0.930 1_556 S
Li264 N281 1.990 . S
Li264 O324 1.956 . S
Li264 O325 1.970 . S
Li264 O326 1.961 . S
Li265 N289 1.990 1_556 S
Li265 O324 1.970 . S
Li265 O325 1.956 . S
Li265 O327 1.961 . S
Li266 N311 1.990 . S
Li266 O324 1.961 . S
Li266 O326 1.956 . S
Li266 O327 1.970 . S
Li267 N317 1.990 . S
Li267 O325 1.961 . S
Li267 O326 1.970 . S
Li267 O327 1.956 . S
C268 C270 1.348 . S
C268 C271 1.356 . S
C268 O324 1.325 1_554 S
N269 C272 1.314 . S
N269 C273 1.279 . S
C270 C268 1.348 . S
C270 C272 1.353 . S
C270 H328 0.929 . S
C271 C268 1.356 . S
C271 C273 1.358 . S
C271 H329 0.930 . S
C272 N269 1.314 . S
C272 C270 1.353 . S
C272 H330 0.930 . S
C273 N269 1.279 . S
C273 C271 1.358 . S
C273 H331 0.930 . S
C274 C277 1.348 . S
C274 C278 1.356 . S
C274 O325 1.325 . S
C275 N276 1.279 . S
C275 C278 1.358 . S
C275 H332 0.930 . S
N276 C275 1.279 . S
N276 C279 1.314 . S
C277 C274 1.348 . S
C277 C279 1.353 . S
C277 H333 0.929 . S
C278 C274 1.356 . S
C278 C275 1.358 . S
C278 H334 0.930 . S
C279 N276 1.314 . S
C279 C277 1.353 . S
C279 H335 0.930 . S
C280 N281 1.314 . S
C280 C285 1.353 . S
C280 H286 0.930 . S
N281 Li264 1.990 . S
N281 C280 1.314 . S
N281 C283 1.279 . S
C282 C283 1.358 . S
C282 C284 1.356 . S
C282 H336 0.930 1_556 S
C283 N281 1.279 . S
C283 C282 1.358 . S
C283 H287 0.930 1_556 S
C284 C282 1.356 . S
C284 C285 1.348 . S
C285 C280 1.353 . S
C285 C284 1.348 . S
C285 H337 0.929 . S
H286 C280 0.930 . S
H287 C283 0.930 1_554 S
C288 N289 1.314 . S
C288 C290 1.353 . S
C288 H294 0.930 . S
N289 Li265 1.990 1_554 S
N289 C288 1.314 . S
N289 C292 1.279 . S
C290 C288 1.353 . S
C290 C293 1.348 . S
C290 H338 0.929 . S
C291 C292 1.358 . S
C291 C293 1.356 . S
C291 H339 0.930 . S
C292 N289 1.279 . S
C292 C291 1.358 . S
C292 H295 0.930 . S
C293 C290 1.348 . S
C293 C291 1.356 . S
H294 C288 0.930 . S
H295 C292 0.930 . S
C296 C298 1.348 . S
C296 C299 1.356 . S
C296 O326 1.325 . S
N297 C300 1.314 . S
N297 C301 1.279 . S
C298 C296 1.348 . S
C298 C300 1.353 . S
C298 H340 0.929 . S
C299 C296 1.356 . S
C299 C301 1.358 . S
C299 H341 0.930 . S
C300 N297 1.314 . S
C300 C298 1.353 . S
C300 H342 0.930 . S
C301 N297 1.279 . S
C301 C299 1.358 . S
C301 H343 0.930 . S
C302 C303 1.348 . S
C302 C304 1.356 . S
C302 O327 1.325 . S
C303 C302 1.348 . S
C303 C305 1.353 . S
C303 H344 0.929 . S
C304 C302 1.356 . S
C304 C306 1.358 . S
C304 H345 0.930 . S
C305 C303 1.353 . S
C305 N307 1.314 . S
C305 H346 0.930 . S
C306 C304 1.358 . S
C306 N307 1.279 . S
C306 H347 0.930 . S
N307 C305 1.314 . S
N307 C306 1.279 . S
C308 C310 1.353 . S
C308 N311 1.314 . S
C308 H314 0.930 1_556 S
C309 N311 1.279 . S
C309 C312 1.358 . S
C309 H315 0.930 . S
C310 C308 1.353 . S
C310 C313 1.348 . S
C310 H348 0.929 1_556 S
N311 Li266 1.990 . S
N311 C308 1.314 . S
N311 C309 1.279 . S
C312 C309 1.358 . S
C312 C313 1.356 . S
C312 H349 0.930 . S
C313 C310 1.348 . S
C313 C312 1.356 . S
H314 C308 0.930 1_554 S
H315 C309 0.930 . S
C316 N317 1.314 . S
C316 C318 1.353 . S
C316 H322 0.930 . S
N317 Li267 1.990 . S
N317 C316 1.314 . S
N317 C320 1.279 . S
C318 C316 1.353 . S
C318 C321 1.348 . S
C318 H350 0.929 . S
C319 C320 1.358 . S
C319 C321 1.356 . S
C319 H351 0.930 . S
C320 N317 1.279 . S
C320 C319 1.358 . S
C320 H323 0.930 . S
C321 C318 1.348 . S
C321 C319 1.356 . S
H322 C316 0.930 . S
H323 C320 0.930 . S
O324 Li264 1.956 . S
O324 Li265 1.970 . S
O324 Li266 1.961 . S
O324 C268 1.325 1_556 S
O325 Li264 1.970 . S
O325 Li265 1.956 . S
O325 Li267 1.961 . S
O325 C274 1.325 . S
O326 Li264 1.961 . S
O326 Li266 1.956 . S
O326 Li267 1.970 . S
O326 C296 1.325 . S
O327 Li265 1.961 . S
O327 Li266 1.970 . S
O327 Li267 1.956 . S
O327 C302 1.325 . S
H328 C270 0.929 . S
H329 C271 0.930 . S
H330 C272 0.930 . S
H331 C273 0.930 . S
H332 C275 0.930 . S
H333 C277 0.929 . S
H334 C278 0.930 . S
H335 C279 0.930 . S
H336 C282 0.930 1_554 S
H337 C285 0.929 . S
H338 C290 0.929 . S
H339 C291 0.930 . S
H340 C298 0.929 . S
H341 C299 0.930 . S
H342 C300 0.930 . S
H343 C301 0.930 . S
H344 C303 0.929 . S
H345 C304 0.930 . S
H346 C305 0.930 . S
H347 C306 0.930 . S
H348 C310 0.929 1_554 S
H349 C312 0.930 . S
H350 C318 0.929 . S
H351 C319 0.930 . S
Li352 N369 1.990 . S
Li352 O412 1.956 . S
Li352 O413 1.970 . S
Li352 O414 1.961 . S
Li353 N377 1.990 1_556 S
Li353 O412 1.970 . S
Li353 O413 1.956 . S
Li353 O415 1.961 . S
Li354 N399 1.990 . S
Li354 O412 1.961 . S
Li354 O414 1.956 . S
Li354 O415 1.970 . S
Li355 N405 1.990 . S
Li355 O413 1.961 . S
Li355 O414 1.970 . S
Li355 O415 1.956 . S
C356 C358 1.348 . S
C356 C359 1.356 . S
C356 O412 1.325 1_554 S
N357 C360 1.314 . S
N357 C361 1.279 . S
C358 C356 1.348 . S
C358 C360 1.353 . S
C358 H416 0.929 . S
C359 C356 1.356 . S
C359 C361 1.358 . S
C359 H417 0.930 . S
C360 N357 1.314 . S
C360 C358 1.353 . S
C360 H418 0.930 . S
C361 N357 1.279 . S
C361 C359 1.358 . S
C361 H419 0.930 . S
C362 C365 1.348 . S
C362 C366 1.356 . S
C362 O413 1.325 . S
C363 N364 1.279 . S
C363 C366 1.358 . S
C363 H420 0.930 . S
N364 C363 1.279 . S
N364 C367 1.314 . S
C365 C362 1.348 . S
C365 C367 1.353 . S
C365 H421 0.929 . S
C366 C362 1.356 . S
C366 C363 1.358 . S
C366 H422 0.930 . S
C367 N364 1.314 . S
C367 C365 1.353 . S
C367 H423 0.930 . S
C368 N369 1.314 . S
C368 C373 1.353 . S
C368 H374 0.930 . S
N369 Li352 1.990 . S
N369 C368 1.314 . S
N369 C371 1.279 . S
C370 C371 1.358 . S
C370 C372 1.356 . S
C370 H424 0.930 1_556 S
C371 N369 1.279 . S
C371 C370 1.358 . S
C371 H375 0.930 1_556 S
C372 C370 1.356 . S
C372 C373 1.348 . S
C373 C368 1.353 . S
C373 C372 1.348 . S
C373 H425 0.929 . S
H374 C368 0.930 . S
H375 C371 0.930 1_554 S
C376 N377 1.314 . S
C376 C378 1.353 . S
C376 H382 0.930 . S
N377 Li353 1.990 1_554 S
N377 C376 1.314 . S
N377 C380 1.279 . S
C378 C376 1.353 . S
C378 C381 1.348 . S
C378 H426 0.929 . S
C379 C380 1.358 . S
C379 C381 1.356 . S
C379 H427 0.930 . S
C380 N377 1.279 . S
C380 C379 1.358 . S
C380 H383 0.930 . S
C381 C378 1.348 . S
C381 C379 1.356 . S
H382 C376 0.930 . S
H383 C380 0.930 . S
C384 C386 1.348 . S
C384 C387 1.356 . S
C384 O414 1.325 . S
N385 C388 1.314 . S
N385 C389 1.279 . S
C386 C384 1.348 . S
C386 C388 1.353 . S
C386 H428 0.929 . S
C387 C384 1.356 . S
C387 C389 1.358 . S
C387 H429 0.930 . S
C388 N385 1.314 . S
C388 C386 1.353 . S
C388 H430 0.930 . S
C389 N385 1.279 . S
C389 C387 1.358 . S
C389 H431 0.930 . S
C390 C391 1.348 . S
C390 C392 1.356 . S
C390 O415 1.325 . S
C391 C390 1.348 . S
C391 C393 1.353 . S
C391 H432 0.929 . S
C392 C390 1.356 . S
C392 C394 1.358 . S
C392 H433 0.930 . S
C393 C391 1.353 . S
C393 N395 1.314 . S
C393 H434 0.930 . S
C394 C392 1.358 . S
C394 N395 1.279 . S
C394 H435 0.930 . S
N395 C393 1.314 . S
N395 C394 1.279 . S
C396 C398 1.353 . S
C396 N399 1.314 . S
C396 H402 0.930 1_556 S
C397 N399 1.279 . S
C397 C400 1.358 . S
C397 H403 0.930 . S
C398 C396 1.353 . S
C398 C401 1.348 . S
C398 H436 0.929 1_556 S
N399 Li354 1.990 . S
N399 C396 1.314 . S
N399 C397 1.279 . S
C400 C397 1.358 . S
C400 C401 1.356 . S
C400 H437 0.930 . S
C401 C398 1.348 . S
C401 C400 1.356 . S
H402 C396 0.930 1_554 S
H403 C397 0.930 . S
C404 N405 1.314 . S
C404 C406 1.353 . S
C404 H410 0.930 . S
N405 Li355 1.990 . S
N405 C404 1.314 . S
N405 C408 1.279 . S
C406 C404 1.353 . S
C406 C409 1.348 . S
C406 H438 0.929 . S
C407 C408 1.358 . S
C407 C409 1.356 . S
C407 H439 0.930 . S
C408 N405 1.279 . S
C408 C407 1.358 . S
C408 H411 0.930 . S
C409 C406 1.348 . S
C409 C407 1.356 . S
H410 C404 0.930 . S
H411 C408 0.930 . S
O412 Li352 1.956 . S
O412 Li353 1.970 . S
O412 Li354 1.961 . S
O412 C356 1.325 1_556 S
O413 Li352 1.970 . S
O413 Li353 1.956 . S
O413 Li355 1.961 . S
O413 C362 1.325 . S
O414 Li352 1.961 . S
O414 Li354 1.956 . S
O414 Li355 1.970 . S
O414 C384 1.325 . S
O415 Li353 1.961 . S
O415 Li354 1.970 . S
O415 Li355 1.956 . S
O415 C390 1.325 . S
H416 C358 0.929 . S
H417 C359 0.930 . S
H418 C360 0.930 . S
H419 C361 0.930 . S
H420 C363 0.930 . S
H421 C365 0.929 . S
H422 C366 0.930 . S
H423 C367 0.930 . S
H424 C370 0.930 1_554 S
H425 C373 0.929 . S
H426 C378 0.929 . S
H427 C379 0.930 . S
H428 C386 0.929 . S
H429 C387 0.930 . S
H430 C388 0.930 . S
H431 C389 0.930 . S
H432 C391 0.929 . S
H433 C392 0.930 . S
H434 C393 0.930 . S
H435 C394 0.930 . S
H436 C398 0.929 1_554 S
H437 C400 0.930 . S
H438 C406 0.929 . S
H439 C407 0.930 . S
Li440 N457 1.990 . S
Li440 O500 1.956 . S
Li440 O501 1.970 . S
Li440 O502 1.961 . S
Li441 N465 1.990 1_556 S
Li441 O500 1.970 . S
Li441 O501 1.956 . S
Li441 O503 1.961 . S
Li442 N487 1.990 . S
Li442 O500 1.961 . S
Li442 O502 1.956 . S
Li442 O503 1.970 . S
Li443 N493 1.990 . S
Li443 O501 1.961 . S
Li443 O502 1.970 . S
Li443 O503 1.956 . S
C444 C446 1.348 . S
C444 C447 1.356 . S
C444 O500 1.325 1_554 S
N445 C448 1.314 . S
N445 C449 1.279 . S
C446 C444 1.348 . S
C446 C448 1.353 . S
C446 H504 0.929 . S
C447 C444 1.356 . S
C447 C449 1.358 . S
C447 H505 0.930 . S
C448 N445 1.314 . S
C448 C446 1.353 . S
C448 H506 0.930 . S
C449 N445 1.279 . S
C449 C447 1.358 . S
C449 H507 0.930 . S
C450 C453 1.348 . S
C450 C454 1.356 . S
C450 O501 1.325 . S
C451 N452 1.279 . S
C451 C454 1.358 . S
C451 H508 0.930 . S
N452 C451 1.279 . S
N452 C455 1.314 . S
C453 C450 1.348 . S
C453 C455 1.353 . S
C453 H509 0.929 . S
C454 C450 1.356 . S
C454 C451 1.358 . S
C454 H510 0.930 . S
C455 N452 1.314 . S
C455 C453 1.353 . S
C455 H511 0.930 . S
C456 N457 1.314 . S
C456 C461 1.353 . S
C456 H462 0.930 . S
N457 Li440 1.990 . S
N457 C456 1.314 . S
N457 C459 1.279 . S
C458 C459 1.358 . S
C458 C460 1.356 . S
C458 H512 0.930 1_556 S
C459 N457 1.279 . S
C459 C458 1.358 . S
C459 H463 0.930 1_556 S
C460 C458 1.356 . S
C460 C461 1.348 . S
C461 C456 1.353 . S
C461 C460 1.348 . S
C461 H513 0.929 . S
H462 C456 0.930 . S
H463 C459 0.930 1_554 S
C464 N465 1.314 . S
C464 C466 1.353 . S
C464 H470 0.930 . S
N465 Li441 1.990 1_554 S
N465 C464 1.314 . S
N465 C468 1.279 . S
C466 C464 1.353 . S
C466 C469 1.348 . S
C466 H514 0.929 . S
C467 C468 1.358 . S
C467 C469 1.356 . S
C467 H515 0.930 . S
C468 N465 1.279 . S
C468 C467 1.358 . S
C468 H471 0.930 . S
C469 C466 1.348 . S
C469 C467 1.356 . S
H470 C464 0.930 . S
H471 C468 0.930 . S
C472 C474 1.348 . S
C472 C475 1.356 . S
C472 O502 1.325 . S
N473 C476 1.314 . S
N473 C477 1.279 . S
C474 C472 1.348 . S
C474 C476 1.353 . S
C474 H516 0.929 . S
C475 C472 1.356 . S
C475 C477 1.358 . S
C475 H517 0.930 . S
C476 N473 1.314 . S
C476 C474 1.353 . S
C476 H518 0.930 . S
C477 N473 1.279 . S
C477 C475 1.358 . S
C477 H519 0.930 . S
C478 C479 1.348 . S
C478 C480 1.356 . S
C478 O503 1.325 . S
C479 C478 1.348 . S
C479 C481 1.353 . S
C479 H520 0.929 . S
C480 C478 1.356 . S
C480 C482 1.358 . S
C480 H521 0.930 . S
C481 C479 1.353 . S
C481 N483 1.314 . S
C481 H522 0.930 . S
C482 C480 1.358 . S
C482 N483 1.279 . S
C482 H523 0.930 . S
N483 C481 1.314 . S
N483 C482 1.279 . S
C484 C486 1.353 . S
C484 N487 1.314 . S
C484 H490 0.930 1_556 S
C485 N487 1.279 . S
C485 C488 1.358 . S
C485 H491 0.930 . S
C486 C484 1.353 . S
C486 C489 1.348 . S
C486 H524 0.929 1_556 S
N487 Li442 1.990 . S
N487 C484 1.314 . S
N487 C485 1.279 . S
C488 C485 1.358 . S
C488 C489 1.356 . S
C488 H525 0.930 . S
C489 C486 1.348 . S
C489 C488 1.356 . S
H490 C484 0.930 1_554 S
H491 C485 0.930 . S
C492 N493 1.314 . S
C492 C494 1.353 . S
C492 H498 0.930 . S
N493 Li443 1.990 . S
N493 C492 1.314 . S
N493 C496 1.279 . S
C494 C492 1.353 . S
C494 C497 1.348 . S
C494 H526 0.929 . S
C495 C496 1.358 . S
C495 C497 1.356 . S
C495 H527 0.930 . S
C496 N493 1.279 . S
C496 C495 1.358 . S
C496 H499 0.930 . S
C497 C494 1.348 . S
C497 C495 1.356 . S
H498 C492 0.930 . S
H499 C496 0.930 . S
O500 Li440 1.956 . S
O500 Li441 1.970 . S
O500 Li442 1.961 . S
O500 C444 1.325 1_556 S
O501 Li440 1.970 . S
O501 Li441 1.956 . S
O501 Li443 1.961 . S
O501 C450 1.325 . S
O502 Li440 1.961 . S
O502 Li442 1.956 . S
O502 Li443 1.970 . S
O502 C472 1.325 . S
O503 Li441 1.961 . S
O503 Li442 1.970 . S
O503 Li443 1.956 . S
O503 C478 1.325 . S
H504 C446 0.929 . S
H505 C447 0.930 . S
H506 C448 0.930 . S
H507 C449 0.930 . S
H508 C451 0.930 . S
H509 C453 0.929 . S
H510 C454 0.930 . S
H511 C455 0.930 . S
H512 C458 0.930 1_554 S
H513 C461 0.929 . S
H514 C466 0.929 . S
H515 C467 0.930 . S
H516 C474 0.929 . S
H517 C475 0.930 . S
H518 C476 0.930 . S
H519 C477 0.930 . S
H520 C479 0.929 . S
H521 C480 0.930 . S
H522 C481 0.930 . S
H523 C482 0.930 . S
H524 C486 0.929 1_554 S
H525 C488 0.930 . S
H526 C494 0.929 . S
H527 C495 0.930 . S
Li528 N545 1.990 . S
Li528 O588 1.956 . S
Li528 O589 1.970 . S
Li528 O590 1.961 . S
Li529 N553 1.990 . S
Li529 O588 1.970 . S
Li529 O589 1.956 . S
Li529 O591 1.961 . S
Li530 N575 1.990 . S
Li530 O588 1.961 . S
Li530 O590 1.956 . S
Li530 O591 1.970 . S
Li531 N581 1.990 . S
Li531 O589 1.961 . S
Li531 O590 1.970 . S
Li531 O591 1.956 . S
C532 C534 1.348 . S
C532 C535 1.356 . S
C532 O588 1.325 . S
N533 C536 1.314 . S
N533 C537 1.279 . S
C534 C532 1.348 . S
C534 C536 1.353 . S
C534 H592 0.929 . S
C535 C532 1.356 . S
C535 C537 1.358 . S
C535 H593 0.930 . S
C536 N533 1.314 . S
C536 C534 1.353 . S
C536 H594 0.930 . S
C537 N533 1.279 . S
C537 C535 1.358 . S
C537 H595 0.930 . S
C538 C541 1.348 . S
C538 C542 1.356 . S
C538 O589 1.325 . S
C539 N540 1.279 . S
C539 C542 1.358 . S
C539 H596 0.930 . S
N540 C539 1.279 . S
N540 C543 1.314 . S
C541 C538 1.348 . S
C541 C543 1.353 . S
C541 H597 0.929 . S
C542 C538 1.356 . S
C542 C539 1.358 . S
C542 H598 0.930 . S
C543 N540 1.314 . S
C543 C541 1.353 . S
C543 H599 0.930 . S
C544 N545 1.314 . S
C544 C549 1.353 . S
C544 H550 0.930 . S
N545 Li528 1.990 . S
N545 C544 1.314 . S
N545 C547 1.279 . S
C546 C547 1.358 . S
C546 C548 1.356 . S
C546 H600 0.930 . S
C547 N545 1.279 . S
C547 C546 1.358 . S
C547 H551 0.930 . S
C548 C546 1.356 . S
C548 C549 1.348 . S
C549 C544 1.353 . S
C549 C548 1.348 . S
C549 H601 0.929 . S
H550 C544 0.930 . S
H551 C547 0.930 . S
C552 N553 1.314 . S
C552 C554 1.353 . S
C552 H558 0.930 . S
N553 Li529 1.990 . S
N553 C552 1.314 . S
N553 C556 1.279 . S
C554 C552 1.353 . S
C554 C557 1.348 . S
C554 H602 0.929 . S
C555 C556 1.358 . S
C555 C557 1.356 . S
C555 H603 0.930 . S
C556 N553 1.279 . S
C556 C555 1.358 . S
C556 H559 0.930 . S
C557 C554 1.348 . S
C557 C555 1.356 . S
H558 C552 0.930 . S
H559 C556 0.930 . S
C560 C562 1.348 . S
C560 C563 1.356 . S
C560 O590 1.325 . S
N561 C564 1.314 . S
N561 C565 1.279 . S
C562 C560 1.348 . S
C562 C564 1.353 . S
C562 H604 0.929 . S
C563 C560 1.356 . S
C563 C565 1.358 . S
C563 H605 0.930 . S
C564 N561 1.314 . S
C564 C562 1.353 . S
C564 H606 0.930 . S
C565 N561 1.279 . S
C565 C563 1.358 . S
C565 H607 0.930 . S
C566 C567 1.348 . S
C566 C568 1.356 . S
C566 O591 1.325 . S
C567 C566 1.348 . S
C567 C569 1.353 . S
C567 H608 0.929 . S
C568 C566 1.356 . S
C568 C570 1.358 . S
C568 H609 0.930 . S
C569 C567 1.353 . S
C569 N571 1.314 . S
C569 H610 0.930 . S
C570 C568 1.358 . S
C570 N571 1.279 . S
C570 H611 0.930 . S
N571 C569 1.314 . S
N571 C570 1.279 . S
C572 C574 1.353 . S
C572 N575 1.314 . S
C572 H578 0.930 . S
C573 N575 1.279 . S
C573 C576 1.358 . S
C573 H579 0.930 . S
C574 C572 1.353 . S
C574 C577 1.348 . S
C574 H612 0.929 . S
N575 Li530 1.990 . S
N575 C572 1.314 . S
N575 C573 1.279 . S
C576 C573 1.358 . S
C576 C577 1.356 . S
C576 H613 0.930 . S
C577 C574 1.348 . S
C577 C576 1.356 . S
H578 C572 0.930 . S
H579 C573 0.930 . S
C580 N581 1.314 . S
C580 C582 1.353 . S
C580 H586 0.930 . S
N581 Li531 1.990 . S
N581 C580 1.314 . S
N581 C584 1.279 . S
C582 C580 1.353 . S
C582 C585 1.348 . S
C582 H614 0.929 . S
C583 C584 1.358 . S
C583 C585 1.356 . S
C583 H615 0.930 . S
C584 N581 1.279 . S
C584 C583 1.358 . S
C584 H587 0.930 . S
C585 C582 1.348 . S
C585 C583 1.356 . S
H586 C580 0.930 . S
H587 C584 0.930 . S
O588 Li528 1.956 . S
O588 Li529 1.970 . S
O588 Li530 1.961 . S
O588 C532 1.325 . S
O589 Li528 1.970 . S
O589 Li529 1.956 . S
O589 Li531 1.961 . S
O589 C538 1.325 . S
O590 Li528 1.961 . S
O590 Li530 1.956 . S
O590 Li531 1.970 . S
O590 C560 1.325 . S
O591 Li529 1.961 . S
O591 Li530 1.970 . S
O591 Li531 1.956 . S
O591 C566 1.325 . S
H592 C534 0.929 . S
H593 C535 0.930 . S
H594 C536 0.930 . S
H595 C537 0.930 . S
H596 C539 0.930 . S
H597 C541 0.929 . S
H598 C542 0.930 . S
H599 C543 0.930 . S
H600 C546 0.930 . S
H601 C549 0.929 . S
H602 C554 0.929 . S
H603 C555 0.930 . S
H604 C562 0.929 . S
H605 C563 0.930 . S
H606 C564 0.930 . S
H607 C565 0.930 . S
H608 C567 0.929 . S
H609 C568 0.930 . S
H610 C569 0.930 . S
H611 C570 0.930 . S
H612 C574 0.929 . S
H613 C576 0.930 . S
H614 C582 0.929 . S
H615 C583 0.930 . S
Li616 N633 1.990 . S
Li616 O676 1.956 . S
Li616 O677 1.970 . S
Li616 O678 1.961 . S
Li617 N641 1.990 . S
Li617 O676 1.970 . S
Li617 O677 1.956 . S
Li617 O679 1.961 . S
Li618 N663 1.990 . S
Li618 O676 1.961 . S
Li618 O678 1.956 . S
Li618 O679 1.970 . S
Li619 N669 1.990 . S
Li619 O677 1.961 . S
Li619 O678 1.970 . S
Li619 O679 1.956 . S
C620 C622 1.348 . S
C620 C623 1.356 . S
C620 O676 1.325 . S
N621 C624 1.314 . S
N621 C625 1.279 . S
C622 C620 1.348 . S
C622 C624 1.353 . S
C622 H680 0.929 . S
C623 C620 1.356 . S
C623 C625 1.358 . S
C623 H681 0.930 . S
C624 N621 1.314 . S
C624 C622 1.353 . S
C624 H682 0.930 . S
C625 N621 1.279 . S
C625 C623 1.358 . S
C625 H683 0.930 . S
C626 C629 1.348 . S
C626 C630 1.356 . S
C626 O677 1.325 . S
C627 N628 1.279 . S
C627 C630 1.358 . S
C627 H684 0.930 . S
N628 C627 1.279 . S
N628 C631 1.314 . S
C629 C626 1.348 . S
C629 C631 1.353 . S
C629 H685 0.929 . S
C630 C626 1.356 . S
C630 C627 1.358 . S
C630 H686 0.930 . S
C631 N628 1.314 . S
C631 C629 1.353 . S
C631 H687 0.930 . S
C632 N633 1.314 . S
C632 C637 1.353 . S
C632 H638 0.930 . S
N633 Li616 1.990 . S
N633 C632 1.314 . S
N633 C635 1.279 . S
C634 C635 1.358 . S
C634 C636 1.356 . S
C634 H688 0.930 . S
C635 N633 1.279 . S
C635 C634 1.358 . S
C635 H639 0.930 . S
C636 C634 1.356 . S
C636 C637 1.348 . S
C637 C632 1.353 . S
C637 C636 1.348 . S
C637 H689 0.929 . S
H638 C632 0.930 . S
H639 C635 0.930 . S
C640 N641 1.314 . S
C640 C642 1.353 . S
C640 H646 0.930 . S
N641 Li617 1.990 . S
N641 C640 1.314 . S
N641 C644 1.279 . S
C642 C640 1.353 . S
C642 C645 1.348 . S
C642 H690 0.929 . S
C643 C644 1.358 . S
C643 C645 1.356 . S
C643 H691 0.930 . S
C644 N641 1.279 . S
C644 C643 1.358 . S
C644 H647 0.930 . S
C645 C642 1.348 . S
C645 C643 1.356 . S
H646 C640 0.930 . S
H647 C644 0.930 . S
C648 C650 1.348 . S
C648 C651 1.356 . S
C648 O678 1.325 . S
N649 C652 1.314 . S
N649 C653 1.279 . S
C650 C648 1.348 . S
C650 C652 1.353 . S
C650 H692 0.929 . S
C651 C648 1.356 . S
C651 C653 1.358 . S
C651 H693 0.930 . S
C652 N649 1.314 . S
C652 C650 1.353 . S
C652 H694 0.930 . S
C653 N649 1.279 . S
C653 C651 1.358 . S
C653 H695 0.930 . S
C654 C655 1.348 . S
C654 C656 1.356 . S
C654 O679 1.325 . S
C655 C654 1.348 . S
C655 C657 1.353 . S
C655 H696 0.929 . S
C656 C654 1.356 . S
C656 C658 1.358 . S
C656 H697 0.930 . S
C657 C655 1.353 . S
C657 N659 1.314 . S
C657 H698 0.930 . S
C658 C656 1.358 . S
C658 N659 1.279 . S
C658 H699 0.930 . S
N659 C657 1.314 . S
N659 C658 1.279 . S
C660 C662 1.353 . S
C660 N663 1.314 . S
C660 H666 0.930 . S
C661 N663 1.279 . S
C661 C664 1.358 . S
C661 H667 0.930 . S
C662 C660 1.353 . S
C662 C665 1.348 . S
C662 H700 0.929 . S
N663 Li618 1.990 . S
N663 C660 1.314 . S
N663 C661 1.279 . S
C664 C661 1.358 . S
C664 C665 1.356 . S
C664 H701 0.930 . S
C665 C662 1.348 . S
C665 C664 1.356 . S
H666 C660 0.930 . S
H667 C661 0.930 . S
C668 N669 1.314 . S
C668 C670 1.353 . S
C668 H674 0.930 . S
N669 Li619 1.990 . S
N669 C668 1.314 . S
N669 C672 1.279 . S
C670 C668 1.353 . S
C670 C673 1.348 . S
C670 H702 0.929 . S
C671 C672 1.358 . S
C671 C673 1.356 . S
C671 H703 0.930 . S
C672 N669 1.279 . S
C672 C671 1.358 . S
C672 H675 0.930 . S
C673 C670 1.348 . S
C673 C671 1.356 . S
H674 C668 0.930 . S
H675 C672 0.930 . S
O676 Li616 1.956 . S
O676 Li617 1.970 . S
O676 Li618 1.961 . S
O676 C620 1.325 . S
O677 Li616 1.970 . S
O677 Li617 1.956 . S
O677 Li619 1.961 . S
O677 C626 1.325 . S
O678 Li616 1.961 . S
O678 Li618 1.956 . S
O678 Li619 1.970 . S
O678 C648 1.325 . S
O679 Li617 1.961 . S
O679 Li618 1.970 . S
O679 Li619 1.956 . S
O679 C654 1.325 . S
H680 C622 0.929 . S
H681 C623 0.930 . S
H682 C624 0.930 . S
H683 C625 0.930 . S
H684 C627 0.930 . S
H685 C629 0.929 . S
H686 C630 0.930 . S
H687 C631 0.930 . S
H688 C634 0.930 . S
H689 C637 0.929 . S
H690 C642 0.929 . S
H691 C643 0.930 . S
H692 C650 0.929 . S
H693 C651 0.930 . S
H694 C652 0.930 . S
H695 C653 0.930 . S
H696 C655 0.929 . S
H697 C656 0.930 . S
H698 C657 0.930 . S
H699 C658 0.930 . S
H700 C662 0.929 . S
H701 C664 0.930 . S
H702 C670 0.929 . S
H703 C671 0.930 . S
Li704 N721 1.990 . S
Li704 O764 1.956 . S
Li704 O765 1.970 . S
Li704 O766 1.961 . S
Li705 N729 1.990 . S
Li705 O764 1.970 . S
Li705 O765 1.956 . S
Li705 O767 1.961 . S
Li706 N751 1.990 . S
Li706 O764 1.961 . S
Li706 O766 1.956 . S
Li706 O767 1.970 . S
Li707 N757 1.990 . S
Li707 O765 1.961 . S
Li707 O766 1.970 . S
Li707 O767 1.956 . S
C708 C710 1.348 . S
C708 C711 1.356 . S
C708 O764 1.325 . S
N709 C712 1.314 . S
N709 C713 1.279 . S
C710 C708 1.348 . S
C710 C712 1.353 . S
C710 H768 0.929 . S
C711 C708 1.356 . S
C711 C713 1.358 . S
C711 H769 0.930 . S
C712 N709 1.314 . S
C712 C710 1.353 . S
C712 H770 0.930 . S
C713 N709 1.279 . S
C713 C711 1.358 . S
C713 H771 0.930 . S
C714 C717 1.348 . S
C714 C718 1.356 . S
C714 O765 1.325 . S
C715 N716 1.279 . S
C715 C718 1.358 . S
C715 H772 0.930 . S
N716 C715 1.279 . S
N716 C719 1.314 . S
C717 C714 1.348 . S
C717 C719 1.353 . S
C717 H773 0.929 . S
C718 C714 1.356 . S
C718 C715 1.358 . S
C718 H774 0.930 . S
C719 N716 1.314 . S
C719 C717 1.353 . S
C719 H775 0.930 . S
C720 N721 1.314 . S
C720 C725 1.353 . S
C720 H726 0.930 . S
N721 Li704 1.990 . S
N721 C720 1.314 . S
N721 C723 1.279 . S
C722 C723 1.358 . S
C722 C724 1.356 . S
C722 H776 0.930 . S
C723 N721 1.279 . S
C723 C722 1.358 . S
C723 H727 0.930 . S
C724 C722 1.356 . S
C724 C725 1.348 . S
C725 C720 1.353 . S
C725 C724 1.348 . S
C725 H777 0.929 . S
H726 C720 0.930 . S
H727 C723 0.930 . S
C728 N729 1.314 . S
C728 C730 1.353 . S
C728 H734 0.930 . S
N729 Li705 1.990 . S
N729 C728 1.314 . S
N729 C732 1.279 . S
C730 C728 1.353 . S
C730 C733 1.348 . S
C730 H778 0.929 . S
C731 C732 1.358 . S
C731 C733 1.356 . S
C731 H779 0.930 . S
C732 N729 1.279 . S
C732 C731 1.358 . S
C732 H735 0.930 . S
C733 C730 1.348 . S
C733 C731 1.356 . S
H734 C728 0.930 . S
H735 C732 0.930 . S
C736 C738 1.348 . S
C736 C739 1.356 . S
C736 O766 1.325 . S
N737 C740 1.314 . S
N737 C741 1.279 . S
C738 C736 1.348 . S
C738 C740 1.353 . S
C738 H780 0.929 . S
C739 C736 1.356 . S
C739 C741 1.358 . S
C739 H781 0.930 . S
C740 N737 1.314 . S
C740 C738 1.353 . S
C740 H782 0.930 . S
C741 N737 1.279 . S
C741 C739 1.358 . S
C741 H783 0.930 . S
C742 C743 1.348 . S
C742 C744 1.356 . S
C742 O767 1.325 . S
C743 C742 1.348 . S
C743 C745 1.353 . S
C743 H784 0.929 . S
C744 C742 1.356 . S
C744 C746 1.358 . S
C744 H785 0.930 . S
C745 C743 1.353 . S
C745 N747 1.314 . S
C745 H786 0.930 . S
C746 C744 1.358 . S
C746 N747 1.279 . S
C746 H787 0.930 . S
N747 C745 1.314 . S
N747 C746 1.279 . S
C748 C750 1.353 . S
C748 N751 1.314 . S
C748 H754 0.930 . S
C749 N751 1.279 . S
C749 C752 1.358 . S
C749 H755 0.930 . S
C750 C748 1.353 . S
C750 C753 1.348 . S
C750 H788 0.929 . S
N751 Li706 1.990 . S
N751 C748 1.314 . S
N751 C749 1.279 . S
C752 C749 1.358 . S
C752 C753 1.356 . S
C752 H789 0.930 . S
C753 C750 1.348 . S
C753 C752 1.356 . S
H754 C748 0.930 . S
H755 C749 0.930 . S
C756 N757 1.314 . S
C756 C758 1.353 . S
C756 H762 0.930 . S
N757 Li707 1.990 . S
N757 C756 1.314 . S
N757 C760 1.279 . S
C758 C756 1.353 . S
C758 C761 1.348 . S
C758 H790 0.929 . S
C759 C760 1.358 . S
C759 C761 1.356 . S
C759 H791 0.930 . S
C760 N757 1.279 . S
C760 C759 1.358 . S
C760 H763 0.930 . S
C761 C758 1.348 . S
C761 C759 1.356 . S
H762 C756 0.930 . S
H763 C760 0.930 . S
O764 Li704 1.956 . S
O764 Li705 1.970 . S
O764 Li706 1.961 . S
O764 C708 1.325 . S
O765 Li704 1.970 . S
O765 Li705 1.956 . S
O765 Li707 1.961 . S
O765 C714 1.325 . S
O766 Li704 1.961 . S
O766 Li706 1.956 . S
O766 Li707 1.970 . S
O766 C736 1.325 . S
O767 Li705 1.961 . S
O767 Li706 1.970 . S
O767 Li707 1.956 . S
O767 C742 1.325 . S
H768 C710 0.929 . S
H769 C711 0.930 . S
H770 C712 0.930 . S
H771 C713 0.930 . S
H772 C715 0.930 . S
H773 C717 0.929 . S
H774 C718 0.930 . S
H775 C719 0.930 . S
H776 C722 0.930 . S
H777 C725 0.929 . S
H778 C730 0.929 . S
H779 C731 0.930 . S
H780 C738 0.929 . S
H781 C739 0.930 . S
H782 C740 0.930 . S
H783 C741 0.930 . S
H784 C743 0.929 . S
H785 C744 0.930 . S
H786 C745 0.930 . S
H787 C746 0.930 . S
H788 C750 0.929 . S
H789 C752 0.930 . S
H790 C758 0.929 . S
H791 C759 0.930 . S
Li792 N809 1.990 . S
Li792 O852 1.956 . S
Li792 O853 1.970 . S
Li792 O854 1.961 . S
Li793 N817 1.990 . S
Li793 O852 1.970 . S
Li793 O853 1.956 . S
Li793 O855 1.961 . S
Li794 N839 1.990 . S
Li794 O852 1.961 . S
Li794 O854 1.956 . S
Li794 O855 1.970 . S
Li795 N845 1.990 . S
Li795 O853 1.961 . S
Li795 O854 1.970 . S
Li795 O855 1.956 . S
C796 C798 1.348 . S
C796 C799 1.356 . S
C796 O852 1.325 . S
N797 C800 1.314 . S
N797 C801 1.279 . S
C798 C796 1.348 . S
C798 C800 1.353 . S
C798 H856 0.929 . S
C799 C796 1.356 . S
C799 C801 1.358 . S
C799 H857 0.930 . S
C800 N797 1.314 . S
C800 C798 1.353 . S
C800 H858 0.930 . S
C801 N797 1.279 . S
C801 C799 1.358 . S
C801 H859 0.930 . S
C802 C805 1.348 . S
C802 C806 1.356 . S
C802 O853 1.325 . S
C803 N804 1.279 . S
C803 C806 1.358 . S
C803 H860 0.930 . S
N804 C803 1.279 . S
N804 C807 1.314 . S
C805 C802 1.348 . S
C805 C807 1.353 . S
C805 H861 0.929 . S
C806 C802 1.356 . S
C806 C803 1.358 . S
C806 H862 0.930 . S
C807 N804 1.314 . S
C807 C805 1.353 . S
C807 H863 0.930 . S
C808 N809 1.314 . S
C808 C813 1.353 . S
C808 H814 0.930 . S
N809 Li792 1.990 . S
N809 C808 1.314 . S
N809 C811 1.279 . S
C810 C811 1.358 . S
C810 C812 1.356 . S
C810 H864 0.930 . S
C811 N809 1.279 . S
C811 C810 1.358 . S
C811 H815 0.930 . S
C812 C810 1.356 . S
C812 C813 1.348 . S
C813 C808 1.353 . S
C813 C812 1.348 . S
C813 H865 0.929 . S
H814 C808 0.930 . S
H815 C811 0.930 . S
C816 N817 1.314 . S
C816 C818 1.353 . S
C816 H822 0.930 . S
N817 Li793 1.990 . S
N817 C816 1.314 . S
N817 C820 1.279 . S
C818 C816 1.353 . S
C818 C821 1.348 . S
C818 H866 0.929 . S
C819 C820 1.358 . S
C819 C821 1.356 . S
C819 H867 0.930 . S
C820 N817 1.279 . S
C820 C819 1.358 . S
C820 H823 0.930 . S
C821 C818 1.348 . S
C821 C819 1.356 . S
H822 C816 0.930 . S
H823 C820 0.930 . S
C824 C826 1.348 . S
C824 C827 1.356 . S
C824 O854 1.325 . S
N825 C828 1.314 . S
N825 C829 1.279 . S
C826 C824 1.348 . S
C826 C828 1.353 . S
C826 H868 0.929 . S
C827 C824 1.356 . S
C827 C829 1.358 . S
C827 H869 0.930 . S
C828 N825 1.314 . S
C828 C826 1.353 . S
C828 H870 0.930 . S
C829 N825 1.279 . S
C829 C827 1.358 . S
C829 H871 0.930 . S
C830 C831 1.348 . S
C830 C832 1.356 . S
C830 O855 1.325 . S
C831 C830 1.348 . S
C831 C833 1.353 . S
C831 H872 0.929 . S
C832 C830 1.356 . S
C832 C834 1.358 . S
C832 H873 0.930 . S
C833 C831 1.353 . S
C833 N835 1.314 . S
C833 H874 0.930 . S
C834 C832 1.358 . S
C834 N835 1.279 . S
C834 H875 0.930 . S
N835 C833 1.314 . S
N835 C834 1.279 . S
C836 C838 1.353 . S
C836 N839 1.314 . S
C836 H842 0.930 . S
C837 N839 1.279 . S
C837 C840 1.358 . S
C837 H843 0.930 . S
C838 C836 1.353 . S
C838 C841 1.348 . S
C838 H876 0.929 . S
N839 Li794 1.990 . S
N839 C836 1.314 . S
N839 C837 1.279 . S
C840 C837 1.358 . S
C840 C841 1.356 . S
C840 H877 0.930 . S
C841 C838 1.348 . S
C841 C840 1.356 . S
H842 C836 0.930 . S
H843 C837 0.930 . S
C844 N845 1.314 . S
C844 C846 1.353 . S
C844 H850 0.930 . S
N845 Li795 1.990 . S
N845 C844 1.314 . S
N845 C848 1.279 . S
C846 C844 1.353 . S
C846 C849 1.348 . S
C846 H878 0.929 . S
C847 C848 1.358 . S
C847 C849 1.356 . S
C847 H879 0.930 . S
C848 N845 1.279 . S
C848 C847 1.358 . S
C848 H851 0.930 . S
C849 C846 1.348 . S
C849 C847 1.356 . S
H850 C844 0.930 . S
H851 C848 0.930 . S
O852 Li792 1.956 . S
O852 Li793 1.970 . S
O852 Li794 1.961 . S
O852 C796 1.325 . S
O853 Li792 1.970 . S
O853 Li793 1.956 . S
O853 Li795 1.961 . S
O853 C802 1.325 . S
O854 Li792 1.961 . S
O854 Li794 1.956 . S
O854 Li795 1.970 . S
O854 C824 1.325 . S
O855 Li793 1.961 . S
O855 Li794 1.970 . S
O855 Li795 1.956 . S
O855 C830 1.325 . S
H856 C798 0.929 . S
H857 C799 0.930 . S
H858 C800 0.930 . S
H859 C801 0.930 . S
H860 C803 0.930 . S
H861 C805 0.929 . S
H862 C806 0.930 . S
H863 C807 0.930 . S
H864 C810 0.930 . S
H865 C813 0.929 . S
H866 C818 0.929 . S
H867 C819 0.930 . S
H868 C826 0.929 . S
H869 C827 0.930 . S
H870 C828 0.930 . S
H871 C829 0.930 . S
H872 C831 0.929 . S
H873 C832 0.930 . S
H874 C833 0.930 . S
H875 C834 0.930 . S
H876 C838 0.929 . S
H877 C840 0.930 . S
H878 C846 0.929 . S
H879 C847 0.930 . S
Li880 N897 1.990 . S
Li880 O940 1.956 . S
Li880 O941 1.970 . S
Li880 O942 1.961 . S
Li881 N905 1.990 . S
Li881 O940 1.970 . S
Li881 O941 1.956 . S
Li881 O943 1.961 . S
Li882 N927 1.990 . S
Li882 O940 1.961 . S
Li882 O942 1.956 . S
Li882 O943 1.970 . S
Li883 N933 1.990 . S
Li883 O941 1.961 . S
Li883 O942 1.970 . S
Li883 O943 1.956 . S
C884 C886 1.348 . S
C884 C887 1.356 . S
C884 O940 1.325 . S
N885 C888 1.314 . S
N885 C889 1.279 . S
C886 C884 1.348 . S
C886 C888 1.353 . S
C886 H944 0.929 . S
C887 C884 1.356 . S
C887 C889 1.358 . S
C887 H945 0.930 . S
C888 N885 1.314 . S
C888 C886 1.353 . S
C888 H946 0.930 . S
C889 N885 1.279 . S
C889 C887 1.358 . S
C889 H947 0.930 . S
C890 C893 1.348 . S
C890 C894 1.356 . S
C890 O941 1.325 . S
C891 N892 1.279 . S
C891 C894 1.358 . S
C891 H948 0.930 . S
N892 C891 1.279 . S
N892 C895 1.314 . S
C893 C890 1.348 . S
C893 C895 1.353 . S
C893 H949 0.929 . S
C894 C890 1.356 . S
C894 C891 1.358 . S
C894 H950 0.930 . S
C895 N892 1.314 . S
C895 C893 1.353 . S
C895 H951 0.930 . S
C896 N897 1.314 . S
C896 C901 1.353 . S
C896 H902 0.930 . S
N897 Li880 1.990 . S
N897 C896 1.314 . S
N897 C899 1.279 . S
C898 C899 1.358 . S
C898 C900 1.356 . S
C898 H952 0.930 . S
C899 N897 1.279 . S
C899 C898 1.358 . S
C899 H903 0.930 . S
C900 C898 1.356 . S
C900 C901 1.348 . S
C901 C896 1.353 . S
C901 C900 1.348 . S
C901 H953 0.929 . S
H902 C896 0.930 . S
H903 C899 0.930 . S
C904 N905 1.314 . S
C904 C906 1.353 . S
C904 H910 0.930 . S
N905 Li881 1.990 . S
N905 C904 1.314 . S
N905 C908 1.279 . S
C906 C904 1.353 . S
C906 C909 1.348 . S
C906 H954 0.929 . S
C907 C908 1.358 . S
C907 C909 1.356 . S
C907 H955 0.930 . S
C908 N905 1.279 . S
C908 C907 1.358 . S
C908 H911 0.930 . S
C909 C906 1.348 . S
C909 C907 1.356 . S
H910 C904 0.930 . S
H911 C908 0.930 . S
C912 C914 1.348 . S
C912 C915 1.356 . S
C912 O942 1.325 . S
N913 C916 1.314 . S
N913 C917 1.279 . S
C914 C912 1.348 . S
C914 C916 1.353 . S
C914 H956 0.929 . S
C915 C912 1.356 . S
C915 C917 1.358 . S
C915 H957 0.930 . S
C916 N913 1.314 . S
C916 C914 1.353 . S
C916 H958 0.930 . S
C917 N913 1.279 . S
C917 C915 1.358 . S
C917 H959 0.930 . S
C918 C919 1.348 . S
C918 C920 1.356 . S
C918 O943 1.325 . S
C919 C918 1.348 . S
C919 C921 1.353 . S
C919 H960 0.929 . S
C920 C918 1.356 . S
C920 C922 1.358 . S
C920 H961 0.930 . S
C921 C919 1.353 . S
C921 N923 1.314 . S
C921 H962 0.930 . S
C922 C920 1.358 . S
C922 N923 1.279 . S
C922 H963 0.930 . S
N923 C921 1.314 . S
N923 C922 1.279 . S
C924 C926 1.353 . S
C924 N927 1.314 . S
C924 H930 0.930 . S
C925 N927 1.279 . S
C925 C928 1.358 . S
C925 H931 0.930 . S
C926 C924 1.353 . S
C926 C929 1.348 . S
C926 H964 0.929 . S
N927 Li882 1.990 . S
N927 C924 1.314 . S
N927 C925 1.279 . S
C928 C925 1.358 . S
C928 C929 1.356 . S
C928 H965 0.930 . S
C929 C926 1.348 . S
C929 C928 1.356 . S
H930 C924 0.930 . S
H931 C925 0.930 . S
C932 N933 1.314 . S
C932 C934 1.353 . S
C932 H938 0.930 . S
N933 Li883 1.990 . S
N933 C932 1.314 . S
N933 C936 1.279 . S
C934 C932 1.353 . S
C934 C937 1.348 . S
C934 H966 0.929 . S
C935 C936 1.358 . S
C935 C937 1.356 . S
C935 H967 0.930 . S
C936 N933 1.279 . S
C936 C935 1.358 . S
C936 H939 0.930 . S
C937 C934 1.348 . S
C937 C935 1.356 . S
H938 C932 0.930 . S
H939 C936 0.930 . S
O940 Li880 1.956 . S
O940 Li881 1.970 . S
O940 Li882 1.961 . S
O940 C884 1.325 . S
O941 Li880 1.970 . S
O941 Li881 1.956 . S
O941 Li883 1.961 . S
O941 C890 1.325 . S
O942 Li880 1.961 . S
O942 Li882 1.956 . S
O942 Li883 1.970 . S
O942 C912 1.325 . S
O943 Li881 1.961 . S
O943 Li882 1.970 . S
O943 Li883 1.956 . S
O943 C918 1.325 . S
H944 C886 0.929 . S
H945 C887 0.930 . S
H946 C888 0.930 . S
H947 C889 0.930 . S
H948 C891 0.930 . S
H949 C893 0.929 . S
H950 C894 0.930 . S
H951 C895 0.930 . S
H952 C898 0.930 . S
H953 C901 0.929 . S
H954 C906 0.929 . S
H955 C907 0.930 . S
H956 C914 0.929 . S
H957 C915 0.930 . S
H958 C916 0.930 . S
H959 C917 0.930 . S
H960 C919 0.929 . S
H961 C920 0.930 . S
H962 C921 0.930 . S
H963 C922 0.930 . S
H964 C926 0.929 . S
H965 C928 0.930 . S
H966 C934 0.929 . S
H967 C935 0.930 . S
Li968 N985 1.990 . S
Li968 O1028 1.956 . S
Li968 O1029 1.970 . S
Li968 O1030 1.961 . S
Li969 N993 1.990 . S
Li969 O1028 1.970 . S
Li969 O1029 1.956 . S
Li969 O1031 1.961 . S
Li970 N1015 1.990 . S
Li970 O1028 1.961 . S
Li970 O1030 1.956 . S
Li970 O1031 1.970 . S
Li971 N1021 1.990 . S
Li971 O1029 1.961 . S
Li971 O1030 1.970 . S
Li971 O1031 1.956 . S
C972 C974 1.348 . S
C972 C975 1.356 . S
C972 O1028 1.325 . S
N973 C976 1.314 . S
N973 C977 1.279 . S
C974 C972 1.348 . S
C974 C976 1.353 . S
C974 H1032 0.929 . S
C975 C972 1.356 . S
C975 C977 1.358 . S
C975 H1033 0.930 . S
C976 N973 1.314 . S
C976 C974 1.353 . S
C976 H1034 0.930 . S
C977 N973 1.279 . S
C977 C975 1.358 . S
C977 H1035 0.930 . S
C978 C981 1.348 . S
C978 C982 1.356 . S
C978 O1029 1.325 . S
C979 N980 1.279 . S
C979 C982 1.358 . S
C979 H1036 0.930 . S
N980 C979 1.279 . S
N980 C983 1.314 . S
C981 C978 1.348 . S
C981 C983 1.353 . S
C981 H1037 0.929 . S
C982 C978 1.356 . S
C982 C979 1.358 . S
C982 H1038 0.930 . S
C983 N980 1.314 . S
C983 C981 1.353 . S
C983 H1039 0.930 . S
C984 N985 1.314 . S
C984 C989 1.353 . S
C984 H990 0.930 . S
N985 Li968 1.990 . S
N985 C984 1.314 . S
N985 C987 1.279 . S
C986 C987 1.358 . S
C986 C988 1.356 . S
C986 H1040 0.930 . S
C987 N985 1.279 . S
C987 C986 1.358 . S
C987 H991 0.930 . S
C988 C986 1.356 . S
C988 C989 1.348 . S
C989 C984 1.353 . S
C989 C988 1.348 . S
C989 H1041 0.929 . S
H990 C984 0.930 . S
H991 C987 0.930 . S
C992 N993 1.314 . S
C992 C994 1.353 . S
C992 H998 0.930 . S
N993 Li969 1.990 . S
N993 C992 1.314 . S
N993 C996 1.279 . S
C994 C992 1.353 . S
C994 C997 1.348 . S
C994 H1042 0.929 . S
C995 C996 1.358 . S
C995 C997 1.356 . S
C995 H1043 0.930 . S
C996 N993 1.279 . S
C996 C995 1.358 . S
C996 H999 0.930 . S
C997 C994 1.348 . S
C997 C995 1.356 . S
H998 C992 0.930 . S
H999 C996 0.930 . S
C1000 C1002 1.348 . S
C1000 C1003 1.356 . S
C1000 O1030 1.325 . S
N1001 C1004 1.314 . S
N1001 C1005 1.279 . S
C1002 C1000 1.348 . S
C1002 C1004 1.353 . S
C1002 H1044 0.929 . S
C1003 C1000 1.356 . S
C1003 C1005 1.358 . S
C1003 H1045 0.930 . S
C1004 N1001 1.314 . S
C1004 C1002 1.353 . S
C1004 H1046 0.930 . S
C1005 N1001 1.279 . S
C1005 C1003 1.358 . S
C1005 H1047 0.930 . S
C1006 C1007 1.348 . S
C1006 C1008 1.356 . S
C1006 O1031 1.325 . S
C1007 C1006 1.348 . S
C1007 C1009 1.353 . S
C1007 H1048 0.929 . S
C1008 C1006 1.356 . S
C1008 C1010 1.358 . S
C1008 H1049 0.930 . S
C1009 C1007 1.353 . S
C1009 N1011 1.314 . S
C1009 H1050 0.930 . S
C1010 C1008 1.358 . S
C1010 N1011 1.279 . S
C1010 H1051 0.930 . S
N1011 C1009 1.314 . S
N1011 C1010 1.279 . S
C1012 C1014 1.353 . S
C1012 N1015 1.314 . S
C1012 H1018 0.930 . S
C1013 N1015 1.279 . S
C1013 C1016 1.358 . S
C1013 H1019 0.930 . S
C1014 C1012 1.353 . S
C1014 C1017 1.348 . S
C1014 H1052 0.929 . S
N1015 Li970 1.990 . S
N1015 C1012 1.314 . S
N1015 C1013 1.279 . S
C1016 C1013 1.358 . S
C1016 C1017 1.356 . S
C1016 H1053 0.930 . S
C1017 C1014 1.348 . S
C1017 C1016 1.356 . S
H1018 C1012 0.930 . S
H1019 C1013 0.930 . S
C1020 N1021 1.314 . S
C1020 C1022 1.353 . S
C1020 H1026 0.930 . S
N1021 Li971 1.990 . S
N1021 C1020 1.314 . S
N1021 C1024 1.279 . S
C1022 C1020 1.353 . S
C1022 C1025 1.348 . S
C1022 H1054 0.929 . S
C1023 C1024 1.358 . S
C1023 C1025 1.356 . S
C1023 H1055 0.930 . S
C1024 N1021 1.279 . S
C1024 C1023 1.358 . S
C1024 H1027 0.930 . S
C1025 C1022 1.348 . S
C1025 C1023 1.356 . S
H1026 C1020 0.930 . S
H1027 C1024 0.930 . S
O1028 Li968 1.956 . S
O1028 Li969 1.970 . S
O1028 Li970 1.961 . S
O1028 C972 1.325 . S
O1029 Li968 1.970 . S
O1029 Li969 1.956 . S
O1029 Li971 1.961 . S
O1029 C978 1.325 . S
O1030 Li968 1.961 . S
O1030 Li970 1.956 . S
O1030 Li971 1.970 . S
O1030 C1000 1.325 . S
O1031 Li969 1.961 . S
O1031 Li970 1.970 . S
O1031 Li971 1.956 . S
O1031 C1006 1.325 . S
H1032 C974 0.929 . S
H1033 C975 0.930 . S
H1034 C976 0.930 . S
H1035 C977 0.930 . S
H1036 C979 0.930 . S
H1037 C981 0.929 . S
H1038 C982 0.930 . S
H1039 C983 0.930 . S
H1040 C986 0.930 . S
H1041 C989 0.929 . S
H1042 C994 0.929 . S
H1043 C995 0.930 . S
H1044 C1002 0.929 . S
H1045 C1003 0.930 . S
H1046 C1004 0.930 . S
H1047 C1005 0.930 . S
H1048 C1007 0.929 . S
H1049 C1008 0.930 . S
H1050 C1009 0.930 . S
H1051 C1010 0.930 . S
H1052 C1014 0.929 . S
H1053 C1016 0.930 . S
H1054 C1022 0.929 . S
H1055 C1023 0.930 . S
Li1056 N1073 1.990 . S
Li1056 O1116 1.956 . S
Li1056 O1117 1.970 . S
Li1056 O1118 1.961 . S
Li1057 N1081 1.990 . S
Li1057 O1116 1.970 . S
Li1057 O1117 1.956 . S
Li1057 O1119 1.961 . S
Li1058 N1103 1.990 . S
Li1058 O1116 1.961 . S
Li1058 O1118 1.956 . S
Li1058 O1119 1.970 . S
Li1059 N1109 1.990 . S
Li1059 O1117 1.961 . S
Li1059 O1118 1.970 . S
Li1059 O1119 1.956 . S
C1060 C1062 1.348 . S
C1060 C1063 1.356 . S
C1060 O1116 1.325 . S
N1061 C1064 1.314 . S
N1061 C1065 1.279 . S
C1062 C1060 1.348 . S
C1062 C1064 1.353 . S
C1062 H1120 0.929 . S
C1063 C1060 1.356 . S
C1063 C1065 1.358 . S
C1063 H1121 0.930 . S
C1064 N1061 1.314 . S
C1064 C1062 1.353 . S
C1064 H1122 0.930 . S
C1065 N1061 1.279 . S
C1065 C1063 1.358 . S
C1065 H1123 0.930 . S
C1066 C1069 1.348 . S
C1066 C1070 1.356 . S
C1066 O1117 1.325 . S
C1067 N1068 1.279 . S
C1067 C1070 1.358 . S
C1067 H1124 0.930 . S
N1068 C1067 1.279 . S
N1068 C1071 1.314 . S
C1069 C1066 1.348 . S
C1069 C1071 1.353 . S
C1069 H1125 0.929 . S
C1070 C1066 1.356 . S
C1070 C1067 1.358 . S
C1070 H1126 0.930 . S
C1071 N1068 1.314 . S
C1071 C1069 1.353 . S
C1071 H1127 0.930 . S
C1072 N1073 1.314 . S
C1072 C1077 1.353 . S
C1072 H1078 0.930 . S
N1073 Li1056 1.990 . S
N1073 C1072 1.314 . S
N1073 C1075 1.279 . S
C1074 C1075 1.358 . S
C1074 C1076 1.356 . S
C1074 H1128 0.930 . S
C1075 N1073 1.279 . S
C1075 C1074 1.358 . S
C1075 H1079 0.930 . S
C1076 C1074 1.356 . S
C1076 C1077 1.348 . S
C1077 C1072 1.353 . S
C1077 C1076 1.348 . S
C1077 H1129 0.929 . S
H1078 C1072 0.930 . S
H1079 C1075 0.930 . S
C1080 N1081 1.314 . S
C1080 C1082 1.353 . S
C1080 H1086 0.930 . S
N1081 Li1057 1.990 . S
N1081 C1080 1.314 . S
N1081 C1084 1.279 . S
C1082 C1080 1.353 . S
C1082 C1085 1.348 . S
C1082 H1130 0.929 . S
C1083 C1084 1.358 . S
C1083 C1085 1.356 . S
C1083 H1131 0.930 . S
C1084 N1081 1.279 . S
C1084 C1083 1.358 . S
C1084 H1087 0.930 . S
C1085 C1082 1.348 . S
C1085 C1083 1.356 . S
H1086 C1080 0.930 . S
H1087 C1084 0.930 . S
C1088 C1090 1.348 . S
C1088 C1091 1.356 . S
C1088 O1118 1.325 . S
N1089 C1092 1.314 . S
N1089 C1093 1.279 . S
C1090 C1088 1.348 . S
C1090 C1092 1.353 . S
C1090 H1132 0.929 . S
C1091 C1088 1.356 . S
C1091 C1093 1.358 . S
C1091 H1133 0.930 . S
C1092 N1089 1.314 . S
C1092 C1090 1.353 . S
C1092 H1134 0.930 . S
C1093 N1089 1.279 . S
C1093 C1091 1.358 . S
C1093 H1135 0.930 . S
C1094 C1095 1.348 . S
C1094 C1096 1.356 . S
C1094 O1119 1.325 . S
C1095 C1094 1.348 . S
C1095 C1097 1.353 . S
C1095 H1136 0.929 . S
C1096 C1094 1.356 . S
C1096 C1098 1.358 . S
C1096 H1137 0.930 . S
C1097 C1095 1.353 . S
C1097 N1099 1.314 . S
C1097 H1138 0.930 . S
C1098 C1096 1.358 . S
C1098 N1099 1.279 . S
C1098 H1139 0.930 . S
N1099 C1097 1.314 . S
N1099 C1098 1.279 . S
C1100 C1102 1.353 . S
C1100 N1103 1.314 . S
C1100 H1106 0.930 . S
C1101 N1103 1.279 . S
C1101 C1104 1.358 . S
C1101 H1107 0.930 . S
C1102 C1100 1.353 . S
C1102 C1105 1.348 . S
C1102 H1140 0.929 . S
N1103 Li1058 1.990 . S
N1103 C1100 1.314 . S
N1103 C1101 1.279 . S
C1104 C1101 1.358 . S
C1104 C1105 1.356 . S
C1104 H1141 0.930 . S
C1105 C1102 1.348 . S
C1105 C1104 1.356 . S
H1106 C1100 0.930 . S
H1107 C1101 0.930 . S
C1108 N1109 1.314 . S
C1108 C1110 1.353 . S
C1108 H1114 0.930 . S
N1109 Li1059 1.990 . S
N1109 C1108 1.314 . S
N1109 C1112 1.279 . S
C1110 C1108 1.353 . S
C1110 C1113 1.348 . S
C1110 H1142 0.929 . S
C1111 C1112 1.358 . S
C1111 C1113 1.356 . S
C1111 H1143 0.930 . S
C1112 N1109 1.279 . S
C1112 C1111 1.358 . S
C1112 H1115 0.930 . S
C1113 C1110 1.348 . S
C1113 C1111 1.356 . S
H1114 C1108 0.930 . S
H1115 C1112 0.930 . S
O1116 Li1056 1.956 . S
O1116 Li1057 1.970 . S
O1116 Li1058 1.961 . S
O1116 C1060 1.325 . S
O1117 Li1056 1.970 . S
O1117 Li1057 1.956 . S
O1117 Li1059 1.961 . S
O1117 C1066 1.325 . S
O1118 Li1056 1.961 . S
O1118 Li1058 1.956 . S
O1118 Li1059 1.970 . S
O1118 C1088 1.325 . S
O1119 Li1057 1.961 . S
O1119 Li1058 1.970 . S
O1119 Li1059 1.956 . S
O1119 C1094 1.325 . S
H1120 C1062 0.929 . S
H1121 C1063 0.930 . S
H1122 C1064 0.930 . S
H1123 C1065 0.930 . S
H1124 C1067 0.930 . S
H1125 C1069 0.929 . S
H1126 C1070 0.930 . S
H1127 C1071 0.930 . S
H1128 C1074 0.930 . S
H1129 C1077 0.929 . S
H1130 C1082 0.929 . S
H1131 C1083 0.930 . S
H1132 C1090 0.929 . S
H1133 C1091 0.930 . S
H1134 C1092 0.930 . S
H1135 C1093 0.930 . S
H1136 C1095 0.929 . S
H1137 C1096 0.930 . S
H1138 C1097 0.930 . S
H1139 C1098 0.930 . S
H1140 C1102 0.929 . S
H1141 C1104 0.930 . S
H1142 C1110 0.929 . S
H1143 C1111 0.930 . S
Li1144 N1161 1.990 . S
Li1144 O1204 1.956 . S
Li1144 O1205 1.970 . S
Li1144 O1206 1.961 . S
Li1145 N1169 1.990 . S
Li1145 O1204 1.970 . S
Li1145 O1205 1.956 . S
Li1145 O1207 1.961 . S
Li1146 N1191 1.990 . S
Li1146 O1204 1.961 . S
Li1146 O1206 1.956 . S
Li1146 O1207 1.970 . S
Li1147 N1197 1.990 . S
Li1147 O1205 1.961 . S
Li1147 O1206 1.970 . S
Li1147 O1207 1.956 . S
C1148 C1150 1.348 . S
C1148 C1151 1.356 . S
C1148 O1204 1.325 . S
N1149 C1152 1.314 . S
N1149 C1153 1.279 . S
C1150 C1148 1.348 . S
C1150 C1152 1.353 . S
C1150 H1208 0.929 . S
C1151 C1148 1.356 . S
C1151 C1153 1.358 . S
C1151 H1209 0.930 . S
C1152 N1149 1.314 . S
C1152 C1150 1.353 . S
C1152 H1210 0.930 . S
C1153 N1149 1.279 . S
C1153 C1151 1.358 . S
C1153 H1211 0.930 . S
C1154 C1157 1.348 . S
C1154 C1158 1.356 . S
C1154 O1205 1.325 . S
C1155 N1156 1.279 . S
C1155 C1158 1.358 . S
C1155 H1212 0.930 . S
N1156 C1155 1.279 . S
N1156 C1159 1.314 . S
C1157 C1154 1.348 . S
C1157 C1159 1.353 . S
C1157 H1213 0.929 . S
C1158 C1154 1.356 . S
C1158 C1155 1.358 . S
C1158 H1214 0.930 . S
C1159 N1156 1.314 . S
C1159 C1157 1.353 . S
C1159 H1215 0.930 . S
C1160 N1161 1.314 . S
C1160 C1165 1.353 . S
C1160 H1166 0.930 . S
N1161 Li1144 1.990 . S
N1161 C1160 1.314 . S
N1161 C1163 1.279 . S
C1162 C1163 1.358 . S
C1162 C1164 1.356 . S
C1162 H1216 0.930 . S
C1163 N1161 1.279 . S
C1163 C1162 1.358 . S
C1163 H1167 0.930 . S
C1164 C1162 1.356 . S
C1164 C1165 1.348 . S
C1165 C1160 1.353 . S
C1165 C1164 1.348 . S
C1165 H1217 0.929 . S
H1166 C1160 0.930 . S
H1167 C1163 0.930 . S
C1168 N1169 1.314 . S
C1168 C1170 1.353 . S
C1168 H1174 0.930 . S
N1169 Li1145 1.990 . S
N1169 C1168 1.314 . S
N1169 C1172 1.279 . S
C1170 C1168 1.353 . S
C1170 C1173 1.348 . S
C1170 H1218 0.929 . S
C1171 C1172 1.358 . S
C1171 C1173 1.356 . S
C1171 H1219 0.930 . S
C1172 N1169 1.279 . S
C1172 C1171 1.358 . S
C1172 H1175 0.930 . S
C1173 C1170 1.348 . S
C1173 C1171 1.356 . S
H1174 C1168 0.930 . S
H1175 C1172 0.930 . S
C1176 C1178 1.348 . S
C1176 C1179 1.356 . S
C1176 O1206 1.325 . S
N1177 C1180 1.314 . S
N1177 C1181 1.279 . S
C1178 C1176 1.348 . S
C1178 C1180 1.353 . S
C1178 H1220 0.929 . S
C1179 C1176 1.356 . S
C1179 C1181 1.358 . S
C1179 H1221 0.930 . S
C1180 N1177 1.314 . S
C1180 C1178 1.353 . S
C1180 H1222 0.930 . S
C1181 N1177 1.279 . S
C1181 C1179 1.358 . S
C1181 H1223 0.930 . S
C1182 C1183 1.348 . S
C1182 C1184 1.356 . S
C1182 O1207 1.325 . S
C1183 C1182 1.348 . S
C1183 C1185 1.353 . S
C1183 H1224 0.929 . S
C1184 C1182 1.356 . S
C1184 C1186 1.358 . S
C1184 H1225 0.930 . S
C1185 C1183 1.353 . S
C1185 N1187 1.314 . S
C1185 H1226 0.930 . S
C1186 C1184 1.358 . S
C1186 N1187 1.279 . S
C1186 H1227 0.930 . S
N1187 C1185 1.314 . S
N1187 C1186 1.279 . S
C1188 C1190 1.353 . S
C1188 N1191 1.314 . S
C1188 H1194 0.930 . S
C1189 N1191 1.279 . S
C1189 C1192 1.358 . S
C1189 H1195 0.930 . S
C1190 C1188 1.353 . S
C1190 C1193 1.348 . S
C1190 H1228 0.929 . S
N1191 Li1146 1.990 . S
N1191 C1188 1.314 . S
N1191 C1189 1.279 . S
C1192 C1189 1.358 . S
C1192 C1193 1.356 . S
C1192 H1229 0.930 . S
C1193 C1190 1.348 . S
C1193 C1192 1.356 . S
H1194 C1188 0.930 . S
H1195 C1189 0.930 . S
C1196 N1197 1.314 . S
C1196 C1198 1.353 . S
C1196 H1202 0.930 . S
N1197 Li1147 1.990 . S
N1197 C1196 1.314 . S
N1197 C1200 1.279 . S
C1198 C1196 1.353 . S
C1198 C1201 1.348 . S
C1198 H1230 0.929 . S
C1199 C1200 1.358 . S
C1199 C1201 1.356 . S
C1199 H1231 0.930 . S
C1200 N1197 1.279 . S
C1200 C1199 1.358 . S
C1200 H1203 0.930 . S
C1201 C1198 1.348 . S
C1201 C1199 1.356 . S
H1202 C1196 0.930 . S
H1203 C1200 0.930 . S
O1204 Li1144 1.956 . S
O1204 Li1145 1.970 . S
O1204 Li1146 1.961 . S
O1204 C1148 1.325 . S
O1205 Li1144 1.970 . S
O1205 Li1145 1.956 . S
O1205 Li1147 1.961 . S
O1205 C1154 1.325 . S
O1206 Li1144 1.961 . S
O1206 Li1146 1.956 . S
O1206 Li1147 1.970 . S
O1206 C1176 1.325 . S
O1207 Li1145 1.961 . S
O1207 Li1146 1.970 . S
O1207 Li1147 1.956 . S
O1207 C1182 1.325 . S
H1208 C1150 0.929 . S
H1209 C1151 0.930 . S
H1210 C1152 0.930 . S
H1211 C1153 0.930 . S
H1212 C1155 0.930 . S
H1213 C1157 0.929 . S
H1214 C1158 0.930 . S
H1215 C1159 0.930 . S
H1216 C1162 0.930 . S
H1217 C1165 0.929 . S
H1218 C1170 0.929 . S
H1219 C1171 0.930 . S
H1220 C1178 0.929 . S
H1221 C1179 0.930 . S
H1222 C1180 0.930 . S
H1223 C1181 0.930 . S
H1224 C1183 0.929 . S
H1225 C1184 0.930 . S
H1226 C1185 0.930 . S
H1227 C1186 0.930 . S
H1228 C1190 0.929 . S
H1229 C1192 0.930 . S
H1230 C1198 0.929 . S
H1231 C1199 0.930 . S
Li1232 N1249 1.990 . S
Li1232 O1292 1.956 . S
Li1232 O1293 1.970 . S
Li1232 O1294 1.961 . S
Li1233 N1257 1.990 . S
Li1233 O1292 1.970 . S
Li1233 O1293 1.956 . S
Li1233 O1295 1.961 . S
Li1234 N1279 1.990 . S
Li1234 O1292 1.961 . S
Li1234 O1294 1.956 . S
Li1234 O1295 1.970 . S
Li1235 N1285 1.990 . S
Li1235 O1293 1.961 . S
Li1235 O1294 1.970 . S
Li1235 O1295 1.956 . S
C1236 C1238 1.348 . S
C1236 C1239 1.356 . S
C1236 O1292 1.325 . S
N1237 C1240 1.314 . S
N1237 C1241 1.279 . S
C1238 C1236 1.348 . S
C1238 C1240 1.353 . S
C1238 H1296 0.929 . S
C1239 C1236 1.356 . S
C1239 C1241 1.358 . S
C1239 H1297 0.930 . S
C1240 N1237 1.314 . S
C1240 C1238 1.353 . S
C1240 H1298 0.930 . S
C1241 N1237 1.279 . S
C1241 C1239 1.358 . S
C1241 H1299 0.930 . S
C1242 C1245 1.348 . S
C1242 C1246 1.356 . S
C1242 O1293 1.325 . S
C1243 N1244 1.279 . S
C1243 C1246 1.358 . S
C1243 H1300 0.930 . S
N1244 C1243 1.279 . S
N1244 C1247 1.314 . S
C1245 C1242 1.348 . S
C1245 C1247 1.353 . S
C1245 H1301 0.929 . S
C1246 C1242 1.356 . S
C1246 C1243 1.358 . S
C1246 H1302 0.930 . S
C1247 N1244 1.314 . S
C1247 C1245 1.353 . S
C1247 H1303 0.930 . S
C1248 N1249 1.314 . S
C1248 C1253 1.353 . S
C1248 H1254 0.930 . S
N1249 Li1232 1.990 . S
N1249 C1248 1.314 . S
N1249 C1251 1.279 . S
C1250 C1251 1.358 . S
C1250 C1252 1.356 . S
C1250 H1304 0.930 . S
C1251 N1249 1.279 . S
C1251 C1250 1.358 . S
C1251 H1255 0.930 . S
C1252 C1250 1.356 . S
C1252 C1253 1.348 . S
C1253 C1248 1.353 . S
C1253 C1252 1.348 . S
C1253 H1305 0.929 . S
H1254 C1248 0.930 . S
H1255 C1251 0.930 . S
C1256 N1257 1.314 . S
C1256 C1258 1.353 . S
C1256 H1262 0.930 . S
N1257 Li1233 1.990 . S
N1257 C1256 1.314 . S
N1257 C1260 1.279 . S
C1258 C1256 1.353 . S
C1258 C1261 1.348 . S
C1258 H1306 0.929 . S
C1259 C1260 1.358 . S
C1259 C1261 1.356 . S
C1259 H1307 0.930 . S
C1260 N1257 1.279 . S
C1260 C1259 1.358 . S
C1260 H1263 0.930 . S
C1261 C1258 1.348 . S
C1261 C1259 1.356 . S
H1262 C1256 0.930 . S
H1263 C1260 0.930 . S
C1264 C1266 1.348 . S
C1264 C1267 1.356 . S
C1264 O1294 1.325 . S
N1265 C1268 1.314 . S
N1265 C1269 1.279 . S
C1266 C1264 1.348 . S
C1266 C1268 1.353 . S
C1266 H1308 0.929 . S
C1267 C1264 1.356 . S
C1267 C1269 1.358 . S
C1267 H1309 0.930 . S
C1268 N1265 1.314 . S
C1268 C1266 1.353 . S
C1268 H1310 0.930 . S
C1269 N1265 1.279 . S
C1269 C1267 1.358 . S
C1269 H1311 0.930 . S
C1270 C1271 1.348 . S
C1270 C1272 1.356 . S
C1270 O1295 1.325 . S
C1271 C1270 1.348 . S
C1271 C1273 1.353 . S
C1271 H1312 0.929 . S
C1272 C1270 1.356 . S
C1272 C1274 1.358 . S
C1272 H1313 0.930 . S
C1273 C1271 1.353 . S
C1273 N1275 1.314 . S
C1273 H1314 0.930 . S
C1274 C1272 1.358 . S
C1274 N1275 1.279 . S
C1274 H1315 0.930 . S
N1275 C1273 1.314 . S
N1275 C1274 1.279 . S
C1276 C1278 1.353 . S
C1276 N1279 1.314 . S
C1276 H1282 0.930 . S
C1277 N1279 1.279 . S
C1277 C1280 1.358 . S
C1277 H1283 0.930 . S
C1278 C1276 1.353 . S
C1278 C1281 1.348 . S
C1278 H1316 0.929 . S
N1279 Li1234 1.990 . S
N1279 C1276 1.314 . S
N1279 C1277 1.279 . S
C1280 C1277 1.358 . S
C1280 C1281 1.356 . S
C1280 H1317 0.930 . S
C1281 C1278 1.348 . S
C1281 C1280 1.356 . S
H1282 C1276 0.930 . S
H1283 C1277 0.930 . S
C1284 N1285 1.314 . S
C1284 C1286 1.353 . S
C1284 H1290 0.930 . S
N1285 Li1235 1.990 . S
N1285 C1284 1.314 . S
N1285 C1288 1.279 . S
C1286 C1284 1.353 . S
C1286 C1289 1.348 . S
C1286 H1318 0.929 . S
C1287 C1288 1.358 . S
C1287 C1289 1.356 . S
C1287 H1319 0.930 . S
C1288 N1285 1.279 . S
C1288 C1287 1.358 . S
C1288 H1291 0.930 . S
C1289 C1286 1.348 . S
C1289 C1287 1.356 . S
H1290 C1284 0.930 . S
H1291 C1288 0.930 . S
O1292 Li1232 1.956 . S
O1292 Li1233 1.970 . S
O1292 Li1234 1.961 . S
O1292 C1236 1.325 . S
O1293 Li1232 1.970 . S
O1293 Li1233 1.956 . S
O1293 Li1235 1.961 . S
O1293 C1242 1.325 . S
O1294 Li1232 1.961 . S
O1294 Li1234 1.956 . S
O1294 Li1235 1.970 . S
O1294 C1264 1.325 . S
O1295 Li1233 1.961 . S
O1295 Li1234 1.970 . S
O1295 Li1235 1.956 . S
O1295 C1270 1.325 . S
H1296 C1238 0.929 . S
H1297 C1239 0.930 . S
H1298 C1240 0.930 . S
H1299 C1241 0.930 . S
H1300 C1243 0.930 . S
H1301 C1245 0.929 . S
H1302 C1246 0.930 . S
H1303 C1247 0.930 . S
H1304 C1250 0.930 . S
H1305 C1253 0.929 . S
H1306 C1258 0.929 . S
H1307 C1259 0.930 . S
H1308 C1266 0.929 . S
H1309 C1267 0.930 . S
H1310 C1268 0.930 . S
H1311 C1269 0.930 . S
H1312 C1271 0.929 . S
H1313 C1272 0.930 . S
H1314 C1273 0.930 . S
H1315 C1274 0.930 . S
H1316 C1278 0.929 . S
H1317 C1280 0.930 . S
H1318 C1286 0.929 . S
H1319 C1287 0.930 . S
Li1320 N1337 1.990 . S
Li1320 O1380 1.956 . S
Li1320 O1381 1.970 . S
Li1320 O1382 1.961 . S
Li1321 N1345 1.990 . S
Li1321 O1380 1.970 . S
Li1321 O1381 1.956 . S
Li1321 O1383 1.961 . S
Li1322 N1367 1.990 . S
Li1322 O1380 1.961 . S
Li1322 O1382 1.956 . S
Li1322 O1383 1.970 . S
Li1323 N1373 1.990 . S
Li1323 O1381 1.961 . S
Li1323 O1382 1.970 . S
Li1323 O1383 1.956 . S
C1324 C1326 1.348 . S
C1324 C1327 1.356 . S
C1324 O1380 1.325 . S
N1325 C1328 1.314 . S
N1325 C1329 1.279 . S
C1326 C1324 1.348 . S
C1326 C1328 1.353 . S
C1326 H1384 0.929 . S
C1327 C1324 1.356 . S
C1327 C1329 1.358 . S
C1327 H1385 0.930 . S
C1328 N1325 1.314 . S
C1328 C1326 1.353 . S
C1328 H1386 0.930 . S
C1329 N1325 1.279 . S
C1329 C1327 1.358 . S
C1329 H1387 0.930 . S
C1330 C1333 1.348 . S
C1330 C1334 1.356 . S
C1330 O1381 1.325 . S
C1331 N1332 1.279 . S
C1331 C1334 1.358 . S
C1331 H1388 0.930 . S
N1332 C1331 1.279 . S
N1332 C1335 1.314 . S
C1333 C1330 1.348 . S
C1333 C1335 1.353 . S
C1333 H1389 0.929 . S
C1334 C1330 1.356 . S
C1334 C1331 1.358 . S
C1334 H1390 0.930 . S
C1335 N1332 1.314 . S
C1335 C1333 1.353 . S
C1335 H1391 0.930 . S
C1336 N1337 1.314 . S
C1336 C1341 1.353 . S
C1336 H1342 0.930 . S
N1337 Li1320 1.990 . S
N1337 C1336 1.314 . S
N1337 C1339 1.279 . S
C1338 C1339 1.358 . S
C1338 C1340 1.356 . S
C1338 H1392 0.930 . S
C1339 N1337 1.279 . S
C1339 C1338 1.358 . S
C1339 H1343 0.930 . S
C1340 C1338 1.356 . S
C1340 C1341 1.348 . S
C1341 C1336 1.353 . S
C1341 C1340 1.348 . S
C1341 H1393 0.929 . S
H1342 C1336 0.930 . S
H1343 C1339 0.930 . S
C1344 N1345 1.314 . S
C1344 C1346 1.353 . S
C1344 H1350 0.930 . S
N1345 Li1321 1.990 . S
N1345 C1344 1.314 . S
N1345 C1348 1.279 . S
C1346 C1344 1.353 . S
C1346 C1349 1.348 . S
C1346 H1394 0.929 . S
C1347 C1348 1.358 . S
C1347 C1349 1.356 . S
C1347 H1395 0.930 . S
C1348 N1345 1.279 . S
C1348 C1347 1.358 . S
C1348 H1351 0.930 . S
C1349 C1346 1.348 . S
C1349 C1347 1.356 . S
H1350 C1344 0.930 . S
H1351 C1348 0.930 . S
C1352 C1354 1.348 . S
C1352 C1355 1.356 . S
C1352 O1382 1.325 . S
N1353 C1356 1.314 . S
N1353 C1357 1.279 . S
C1354 C1352 1.348 . S
C1354 C1356 1.353 . S
C1354 H1396 0.929 . S
C1355 C1352 1.356 . S
C1355 C1357 1.358 . S
C1355 H1397 0.930 . S
C1356 N1353 1.314 . S
C1356 C1354 1.353 . S
C1356 H1398 0.930 . S
C1357 N1353 1.279 . S
C1357 C1355 1.358 . S
C1357 H1399 0.930 . S
C1358 C1359 1.348 . S
C1358 C1360 1.356 . S
C1358 O1383 1.325 . S
C1359 C1358 1.348 . S
C1359 C1361 1.353 . S
C1359 H1400 0.929 . S
C1360 C1358 1.356 . S
C1360 C1362 1.358 . S
C1360 H1401 0.930 . S
C1361 C1359 1.353 . S
C1361 N1363 1.314 . S
C1361 H1402 0.930 . S
C1362 C1360 1.358 . S
C1362 N1363 1.279 . S
C1362 H1403 0.930 . S
N1363 C1361 1.314 . S
N1363 C1362 1.279 . S
C1364 C1366 1.353 . S
C1364 N1367 1.314 . S
C1364 H1370 0.930 . S
C1365 N1367 1.279 . S
C1365 C1368 1.358 . S
C1365 H1371 0.930 . S
C1366 C1364 1.353 . S
C1366 C1369 1.348 . S
C1366 H1404 0.929 . S
N1367 Li1322 1.990 . S
N1367 C1364 1.314 . S
N1367 C1365 1.279 . S
C1368 C1365 1.358 . S
C1368 C1369 1.356 . S
C1368 H1405 0.930 . S
C1369 C1366 1.348 . S
C1369 C1368 1.356 . S
H1370 C1364 0.930 . S
H1371 C1365 0.930 . S
C1372 N1373 1.314 . S
C1372 C1374 1.353 . S
C1372 H1378 0.930 . S
N1373 Li1323 1.990 . S
N1373 C1372 1.314 . S
N1373 C1376 1.279 . S
C1374 C1372 1.353 . S
C1374 C1377 1.348 . S
C1374 H1406 0.929 . S
C1375 C1376 1.358 . S
C1375 C1377 1.356 . S
C1375 H1407 0.930 . S
C1376 N1373 1.279 . S
C1376 C1375 1.358 . S
C1376 H1379 0.930 . S
C1377 C1374 1.348 . S
C1377 C1375 1.356 . S
H1378 C1372 0.930 . S
H1379 C1376 0.930 . S
O1380 Li1320 1.956 . S
O1380 Li1321 1.970 . S
O1380 Li1322 1.961 . S
O1380 C1324 1.325 . S
O1381 Li1320 1.970 . S
O1381 Li1321 1.956 . S
O1381 Li1323 1.961 . S
O1381 C1330 1.325 . S
O1382 Li1320 1.961 . S
O1382 Li1322 1.956 . S
O1382 Li1323 1.970 . S
O1382 C1352 1.325 . S
O1383 Li1321 1.961 . S
O1383 Li1322 1.970 . S
O1383 Li1323 1.956 . S
O1383 C1358 1.325 . S
H1384 C1326 0.929 . S
H1385 C1327 0.930 . S
H1386 C1328 0.930 . S
H1387 C1329 0.930 . S
H1388 C1331 0.930 . S
H1389 C1333 0.929 . S
H1390 C1334 0.930 . S
H1391 C1335 0.930 . S
H1392 C1338 0.930 . S
H1393 C1341 0.929 . S
H1394 C1346 0.929 . S
H1395 C1347 0.930 . S
H1396 C1354 0.929 . S
H1397 C1355 0.930 . S
H1398 C1356 0.930 . S
H1399 C1357 0.930 . S
H1400 C1359 0.929 . S
H1401 C1360 0.930 . S
H1402 C1361 0.930 . S
H1403 C1362 0.930 . S
H1404 C1366 0.929 . S
H1405 C1368 0.930 . S
H1406 C1374 0.929 . S
H1407 C1375 0.930 . S
Li1408 N1425 1.990 . S
Li1408 O1468 1.956 . S
Li1408 O1469 1.970 . S
Li1408 O1470 1.961 . S
Li1409 N1433 1.990 . S
Li1409 O1468 1.970 . S
Li1409 O1469 1.956 . S
Li1409 O1471 1.961 . S
Li1410 N1455 1.990 . S
Li1410 O1468 1.961 . S
Li1410 O1470 1.956 . S
Li1410 O1471 1.970 . S
Li1411 N1461 1.990 . S
Li1411 O1469 1.961 . S
Li1411 O1470 1.970 . S
Li1411 O1471 1.956 . S
C1412 C1414 1.348 . S
C1412 C1415 1.356 . S
C1412 O1468 1.325 . S
N1413 C1416 1.314 . S
N1413 C1417 1.279 . S
C1414 C1412 1.348 . S
C1414 C1416 1.353 . S
C1414 H1472 0.929 . S
C1415 C1412 1.356 . S
C1415 C1417 1.358 . S
C1415 H1473 0.930 . S
C1416 N1413 1.314 . S
C1416 C1414 1.353 . S
C1416 H1474 0.930 . S
C1417 N1413 1.279 . S
C1417 C1415 1.358 . S
C1417 H1475 0.930 . S
C1418 C1421 1.348 . S
C1418 C1422 1.356 . S
C1418 O1469 1.325 . S
C1419 N1420 1.279 . S
C1419 C1422 1.358 . S
C1419 H1476 0.930 . S
N1420 C1419 1.279 . S
N1420 C1423 1.314 . S
C1421 C1418 1.348 . S
C1421 C1423 1.353 . S
C1421 H1477 0.929 . S
C1422 C1418 1.356 . S
C1422 C1419 1.358 . S
C1422 H1478 0.930 . S
C1423 N1420 1.314 . S
C1423 C1421 1.353 . S
C1423 H1479 0.930 . S
C1424 N1425 1.314 . S
C1424 C1429 1.353 . S
C1424 H1430 0.930 . S
N1425 Li1408 1.990 . S
N1425 C1424 1.314 . S
N1425 C1427 1.279 . S
C1426 C1427 1.358 . S
C1426 C1428 1.356 . S
C1426 H1480 0.930 . S
C1427 N1425 1.279 . S
C1427 C1426 1.358 . S
C1427 H1431 0.930 . S
C1428 C1426 1.356 . S
C1428 C1429 1.348 . S
C1429 C1424 1.353 . S
C1429 C1428 1.348 . S
C1429 H1481 0.929 . S
H1430 C1424 0.930 . S
H1431 C1427 0.930 . S
C1432 N1433 1.314 . S
C1432 C1434 1.353 . S
C1432 H1438 0.930 . S
N1433 Li1409 1.990 . S
N1433 C1432 1.314 . S
N1433 C1436 1.279 . S
C1434 C1432 1.353 . S
C1434 C1437 1.348 . S
C1434 H1482 0.929 . S
C1435 C1436 1.358 . S
C1435 C1437 1.356 . S
C1435 H1483 0.930 . S
C1436 N1433 1.279 . S
C1436 C1435 1.358 . S
C1436 H1439 0.930 . S
C1437 C1434 1.348 . S
C1437 C1435 1.356 . S
H1438 C1432 0.930 . S
H1439 C1436 0.930 . S
C1440 C1442 1.348 . S
C1440 C1443 1.356 . S
C1440 O1470 1.325 . S
N1441 C1444 1.314 . S
N1441 C1445 1.279 . S
C1442 C1440 1.348 . S
C1442 C1444 1.353 . S
C1442 H1484 0.929 . S
C1443 C1440 1.356 . S
C1443 C1445 1.358 . S
C1443 H1485 0.930 . S
C1444 N1441 1.314 . S
C1444 C1442 1.353 . S
C1444 H1486 0.930 . S
C1445 N1441 1.279 . S
C1445 C1443 1.358 . S
C1445 H1487 0.930 . S
C1446 C1447 1.348 . S
C1446 C1448 1.356 . S
C1446 O1471 1.325 . S
C1447 C1446 1.348 . S
C1447 C1449 1.353 . S
C1447 H1488 0.929 . S
C1448 C1446 1.356 . S
C1448 C1450 1.358 . S
C1448 H1489 0.930 . S
C1449 C1447 1.353 . S
C1449 N1451 1.314 . S
C1449 H1490 0.930 . S
C1450 C1448 1.358 . S
C1450 N1451 1.279 . S
C1450 H1491 0.930 . S
N1451 C1449 1.314 . S
N1451 C1450 1.279 . S
C1452 C1454 1.353 . S
C1452 N1455 1.314 . S
C1452 H1458 0.930 . S
C1453 N1455 1.279 . S
C1453 C1456 1.358 . S
C1453 H1459 0.930 . S
C1454 C1452 1.353 . S
C1454 C1457 1.348 . S
C1454 H1492 0.929 . S
N1455 Li1410 1.990 . S
N1455 C1452 1.314 . S
N1455 C1453 1.279 . S
C1456 C1453 1.358 . S
C1456 C1457 1.356 . S
C1456 H1493 0.930 . S
C1457 C1454 1.348 . S
C1457 C1456 1.356 . S
H1458 C1452 0.930 . S
H1459 C1453 0.930 . S
C1460 N1461 1.314 . S
C1460 C1462 1.353 . S
C1460 H1466 0.930 . S
N1461 Li1411 1.990 . S
N1461 C1460 1.314 . S
N1461 C1464 1.279 . S
C1462 C1460 1.353 . S
C1462 C1465 1.348 . S
C1462 H1494 0.929 . S
C1463 C1464 1.358 . S
C1463 C1465 1.356 . S
C1463 H1495 0.930 . S
C1464 N1461 1.279 . S
C1464 C1463 1.358 . S
C1464 H1467 0.930 . S
C1465 C1462 1.348 . S
C1465 C1463 1.356 . S
H1466 C1460 0.930 . S
H1467 C1464 0.930 . S
O1468 Li1408 1.956 . S
O1468 Li1409 1.970 . S
O1468 Li1410 1.961 . S
O1468 C1412 1.325 . S
O1469 Li1408 1.970 . S
O1469 Li1409 1.956 . S
O1469 Li1411 1.961 . S
O1469 C1418 1.325 . S
O1470 Li1408 1.961 . S
O1470 Li1410 1.956 . S
O1470 Li1411 1.970 . S
O1470 C1440 1.325 . S
O1471 Li1409 1.961 . S
O1471 Li1410 1.970 . S
O1471 Li1411 1.956 . S
O1471 C1446 1.325 . S
H1472 C1414 0.929 . S
H1473 C1415 0.930 . S
H1474 C1416 0.930 . S
H1475 C1417 0.930 . S
H1476 C1419 0.930 . S
H1477 C1421 0.929 . S
H1478 C1422 0.930 . S
H1479 C1423 0.930 . S
H1480 C1426 0.930 . S
H1481 C1429 0.929 . S
H1482 C1434 0.929 . S
H1483 C1435 0.930 . S
H1484 C1442 0.929 . S
H1485 C1443 0.930 . S
H1486 C1444 0.930 . S
H1487 C1445 0.930 . S
H1488 C1447 0.929 . S
H1489 C1448 0.930 . S
H1490 C1449 0.930 . S
H1491 C1450 0.930 . S
H1492 C1454 0.929 . S
H1493 C1456 0.930 . S
H1494 C1462 0.929 . S
H1495 C1463 0.930 . S
Li1496 N1513 1.990 . S
Li1496 O1556 1.956 . S
Li1496 O1557 1.970 . S
Li1496 O1558 1.961 . S
Li1497 N1521 1.990 . S
Li1497 O1556 1.970 . S
Li1497 O1557 1.956 . S
Li1497 O1559 1.961 . S
Li1498 N1543 1.990 . S
Li1498 O1556 1.961 . S
Li1498 O1558 1.956 . S
Li1498 O1559 1.970 . S
Li1499 N1549 1.990 . S
Li1499 O1557 1.961 . S
Li1499 O1558 1.970 . S
Li1499 O1559 1.956 . S
C1500 C1502 1.348 . S
C1500 C1503 1.356 . S
C1500 O1556 1.325 . S
N1501 C1504 1.314 . S
N1501 C1505 1.279 . S
C1502 C1500 1.348 . S
C1502 C1504 1.353 . S
C1502 H1560 0.929 . S
C1503 C1500 1.356 . S
C1503 C1505 1.358 . S
C1503 H1561 0.930 . S
C1504 N1501 1.314 . S
C1504 C1502 1.353 . S
C1504 H1562 0.930 . S
C1505 N1501 1.279 . S
C1505 C1503 1.358 . S
C1505 H1563 0.930 . S
C1506 C1509 1.348 . S
C1506 C1510 1.356 . S
C1506 O1557 1.325 . S
C1507 N1508 1.279 . S
C1507 C1510 1.358 . S
C1507 H1564 0.930 . S
N1508 C1507 1.279 . S
N1508 C1511 1.314 . S
C1509 C1506 1.348 . S
C1509 C1511 1.353 . S
C1509 H1565 0.929 . S
C1510 C1506 1.356 . S
C1510 C1507 1.358 . S
C1510 H1566 0.930 . S
C1511 N1508 1.314 . S
C1511 C1509 1.353 . S
C1511 H1567 0.930 . S
C1512 N1513 1.314 . S
C1512 C1517 1.353 . S
C1512 H1518 0.930 . S
N1513 Li1496 1.990 . S
N1513 C1512 1.314 . S
N1513 C1515 1.279 . S
C1514 C1515 1.358 . S
C1514 C1516 1.356 . S
C1514 H1568 0.930 . S
C1515 N1513 1.279 . S
C1515 C1514 1.358 . S
C1515 H1519 0.930 . S
C1516 C1514 1.356 . S
C1516 C1517 1.348 . S
C1517 C1512 1.353 . S
C1517 C1516 1.348 . S
C1517 H1569 0.929 . S
H1518 C1512 0.930 . S
H1519 C1515 0.930 . S
C1520 N1521 1.314 . S
C1520 C1522 1.353 . S
C1520 H1526 0.930 . S
N1521 Li1497 1.990 . S
N1521 C1520 1.314 . S
N1521 C1524 1.279 . S
C1522 C1520 1.353 . S
C1522 C1525 1.348 . S
C1522 H1570 0.929 . S
C1523 C1524 1.358 . S
C1523 C1525 1.356 . S
C1523 H1571 0.930 . S
C1524 N1521 1.279 . S
C1524 C1523 1.358 . S
C1524 H1527 0.930 . S
C1525 C1522 1.348 . S
C1525 C1523 1.356 . S
H1526 C1520 0.930 . S
H1527 C1524 0.930 . S
C1528 C1530 1.348 . S
C1528 C1531 1.356 . S
C1528 O1558 1.325 . S
N1529 C1532 1.314 . S
N1529 C1533 1.279 . S
C1530 C1528 1.348 . S
C1530 C1532 1.353 . S
C1530 H1572 0.929 . S
C1531 C1528 1.356 . S
C1531 C1533 1.358 . S
C1531 H1573 0.930 . S
C1532 N1529 1.314 . S
C1532 C1530 1.353 . S
C1532 H1574 0.930 . S
C1533 N1529 1.279 . S
C1533 C1531 1.358 . S
C1533 H1575 0.930 . S
C1534 C1535 1.348 . S
C1534 C1536 1.356 . S
C1534 O1559 1.325 . S
C1535 C1534 1.348 . S
C1535 C1537 1.353 . S
C1535 H1576 0.929 . S
C1536 C1534 1.356 . S
C1536 C1538 1.358 . S
C1536 H1577 0.930 . S
C1537 C1535 1.353 . S
C1537 N1539 1.314 . S
C1537 H1578 0.930 . S
C1538 C1536 1.358 . S
C1538 N1539 1.279 . S
C1538 H1579 0.930 . S
N1539 C1537 1.314 . S
N1539 C1538 1.279 . S
C1540 C1542 1.353 . S
C1540 N1543 1.314 . S
C1540 H1546 0.930 . S
C1541 N1543 1.279 . S
C1541 C1544 1.358 . S
C1541 H1547 0.930 . S
C1542 C1540 1.353 . S
C1542 C1545 1.348 . S
C1542 H1580 0.929 . S
N1543 Li1498 1.990 . S
N1543 C1540 1.314 . S
N1543 C1541 1.279 . S
C1544 C1541 1.358 . S
C1544 C1545 1.356 . S
C1544 H1581 0.930 . S
C1545 C1542 1.348 . S
C1545 C1544 1.356 . S
H1546 C1540 0.930 . S
H1547 C1541 0.930 . S
C1548 N1549 1.314 . S
C1548 C1550 1.353 . S
C1548 H1554 0.930 . S
N1549 Li1499 1.990 . S
N1549 C1548 1.314 . S
N1549 C1552 1.279 . S
C1550 C1548 1.353 . S
C1550 C1553 1.348 . S
C1550 H1582 0.929 . S
C1551 C1552 1.358 . S
C1551 C1553 1.356 . S
C1551 H1583 0.930 . S
C1552 N1549 1.279 . S
C1552 C1551 1.358 . S
C1552 H1555 0.930 . S
C1553 C1550 1.348 . S
C1553 C1551 1.356 . S
H1554 C1548 0.930 . S
H1555 C1552 0.930 . S
O1556 Li1496 1.956 . S
O1556 Li1497 1.970 . S
O1556 Li1498 1.961 . S
O1556 C1500 1.325 . S
O1557 Li1496 1.970 . S
O1557 Li1497 1.956 . S
O1557 Li1499 1.961 . S
O1557 C1506 1.325 . S
O1558 Li1496 1.961 . S
O1558 Li1498 1.956 . S
O1558 Li1499 1.970 . S
O1558 C1528 1.325 . S
O1559 Li1497 1.961 . S
O1559 Li1498 1.970 . S
O1559 Li1499 1.956 . S
O1559 C1534 1.325 . S
H1560 C1502 0.929 . S
H1561 C1503 0.930 . S
H1562 C1504 0.930 . S
H1563 C1505 0.930 . S
H1564 C1507 0.930 . S
H1565 C1509 0.929 . S
H1566 C1510 0.930 . S
H1567 C1511 0.930 . S
H1568 C1514 0.930 . S
H1569 C1517 0.929 . S
H1570 C1522 0.929 . S
H1571 C1523 0.930 . S
H1572 C1530 0.929 . S
H1573 C1531 0.930 . S
H1574 C1532 0.930 . S
H1575 C1533 0.930 . S
H1576 C1535 0.929 . S
H1577 C1536 0.930 . S
H1578 C1537 0.930 . S
H1579 C1538 0.930 . S
H1580 C1542 0.929 . S
H1581 C1544 0.930 . S
H1582 C1550 0.929 . S
H1583 C1551 0.930 . S
C1584 C1585 1.387 . S
C1584 H1588 0.950 . S
C1584 C1593 1.390 . S
C1585 C1584 1.387 . S
C1585 C1587 1.387 . S
H1586 C1593 0.950 . S
C1587 C1585 1.387 . S
C1587 C1589 1.390 . S
C1587 H1591 0.950 . S
H1588 C1584 0.950 . S
C1589 C1587 1.390 . S
C1589 C1590 1.387 . S
C1589 H1592 0.950 . S
C1590 C1589 1.387 . S
C1590 C1593 1.387 . S
H1591 C1587 0.950 . S
H1592 C1589 0.950 . S
C1593 C1584 1.390 . S
C1593 H1586 0.950 . S
C1593 C1590 1.387 . S
C1594 C1595 1.387 . S
C1594 H1598 0.950 . S
C1594 C1603 1.390 . S
C1595 C1594 1.387 . S
C1595 C1597 1.387 . S
H1596 C1603 0.950 . S
C1597 C1595 1.387 . S
C1597 C1599 1.390 . S
C1597 H1601 0.950 . S
H1598 C1594 0.950 . S
C1599 C1597 1.390 . S
C1599 C1600 1.387 . S
C1599 H1602 0.950 . S
C1600 C1599 1.387 . S
C1600 C1603 1.387 . S
H1601 C1597 0.950 . S
H1602 C1599 0.950 . S
C1603 C1594 1.390 . S
C1603 H1596 0.950 . S
C1603 C1600 1.387 . S
C1604 C1605 1.387 . S
C1604 H1608 0.950 . S
C1604 C1613 1.390 . S
C1605 C1604 1.387 . S
C1605 C1607 1.387 . S
H1606 C1613 0.950 . S
C1607 C1605 1.387 . S
C1607 C1609 1.390 . S
C1607 H1611 0.950 . S
H1608 C1604 0.950 . S
C1609 C1607 1.390 . S
C1609 C1610 1.387 . S
C1609 H1612 0.950 . S
C1610 C1609 1.387 . S
C1610 C1613 1.387 . S
H1611 C1607 0.950 . S
H1612 C1609 0.950 . S
C1613 C1604 1.390 . S
C1613 H1606 0.950 . S
C1613 C1610 1.387 . S
C1614 C1615 1.387 . S
C1614 H1618 0.950 . S
C1614 C1623 1.390 . S
C1615 C1614 1.387 . S
C1615 C1617 1.387 . S
H1616 C1623 0.950 . S
C1617 C1615 1.387 . S
C1617 C1619 1.390 . S
C1617 H1621 0.950 . S
H1618 C1614 0.950 . S
C1619 C1617 1.390 . S
C1619 C1620 1.387 . S
C1619 H1622 0.950 . S
C1620 C1619 1.387 . S
C1620 C1623 1.387 . S
H1621 C1617 0.950 . S
H1622 C1619 0.950 . S
C1623 C1614 1.390 . S
C1623 H1616 0.950 . S
C1623 C1620 1.387 . S
C1624 C1625 1.387 . S
C1624 H1628 0.950 . S
C1624 C1633 1.390 . S
C1625 C1624 1.387 . S
C1625 C1627 1.387 . S
H1626 C1633 0.950 . S
C1627 C1625 1.387 . S
C1627 C1629 1.390 . S
C1627 H1631 0.950 . S
H1628 C1624 0.950 . S
C1629 C1627 1.390 . S
C1629 C1630 1.387 . S
C1629 H1632 0.950 . S
C1630 C1629 1.387 . S
C1630 C1633 1.387 . S
H1631 C1627 0.950 . S
H1632 C1629 0.950 . S
C1633 C1624 1.390 . S
C1633 H1626 0.950 . S
C1633 C1630 1.387 . S
C1634 C1635 1.387 . S
C1634 H1638 0.950 . S
C1634 C1643 1.390 . S
C1635 C1634 1.387 . S
C1635 C1637 1.387 . S
H1636 C1643 0.950 . S
C1637 C1635 1.387 . S
C1637 C1639 1.390 . S
C1637 H1641 0.950 . S
H1638 C1634 0.950 . S
C1639 C1637 1.390 . S
C1639 C1640 1.387 . S
C1639 H1642 0.950 . S
C1640 C1639 1.387 . S
C1640 C1643 1.387 . S
H1641 C1637 0.950 . S
H1642 C1639 0.950 . S
C1643 C1634 1.390 . S
C1643 H1636 0.950 . S
C1643 C1640 1.387 . S
C1644 C1645 1.387 . S
C1644 H1648 0.950 . S
C1644 C1653 1.390 1_655 S
C1645 C1644 1.387 . S
C1645 C1647 1.387 1_554 S
H1646 C1653 0.950 . S
C1647 C1645 1.387 1_556 S
C1647 C1649 1.390 1_655 S
C1647 H1651 0.950 . S
H1648 C1644 0.950 . S
C1649 C1647 1.390 1_455 S
C1649 C1650 1.387 . S
C1649 H1652 0.950 . S
C1650 C1649 1.387 . S
C1650 C1653 1.387 1_556 S
H1651 C1647 0.950 . S
H1652 C1649 0.950 . S
C1653 C1644 1.390 1_455 S
C1653 H1646 0.950 . S
C1653 C1650 1.387 1_554 S
C1654 C1655 1.387 . S
C1654 H1658 0.950 . S
C1654 C1663 1.390 1_554 S
C1655 C1654 1.387 . S
C1655 C1657 1.387 . S
H1656 C1663 0.950 . S
C1657 C1655 1.387 . S
C1657 C1659 1.390 1_554 S
C1657 H1661 0.950 . S
H1658 C1654 0.950 . S
C1659 C1657 1.390 1_556 S
C1659 C1660 1.387 . S
C1659 H1662 0.950 . S
C1660 C1659 1.387 . S
C1660 C1663 1.387 . S
H1661 C1657 0.950 . S
H1662 C1659 0.950 . S
C1663 C1654 1.390 1_556 S
C1663 H1656 0.950 . S
C1663 C1660 1.387 . S
C1664 C1665 1.387 . S
C1664 H1668 0.950 . S
C1664 C1673 1.390 1_544 S
C1665 C1664 1.387 . S
C1665 C1667 1.387 . S
H1666 C1673 0.950 . S
C1667 C1665 1.387 . S
C1667 C1669 1.390 1_544 S
C1667 H1671 0.950 . S
H1668 C1664 0.950 . S
C1669 C1667 1.390 1_566 S
C1669 C1670 1.387 . S
C1669 H1672 0.950 . S
C1670 C1669 1.387 . S
C1670 C1673 1.387 . S
H1671 C1667 0.950 . S
H1672 C1669 0.950 . S
C1673 C1664 1.390 1_566 S
C1673 H1666 0.950 . S
C1673 C1670 1.387 . S
C1674 C1675 1.387 . S
C1674 H1678 0.950 . S
C1674 C1683 1.390 . S
C1675 C1674 1.387 . S
C1675 C1677 1.387 . S
H1676 C1683 0.950 . S
C1677 C1675 1.387 . S
C1677 C1679 1.390 . S
C1677 H1681 0.950 . S
H1678 C1674 0.950 . S
C1679 C1677 1.390 . S
C1679 C1680 1.387 . S
C1679 H1682 0.950 . S
C1680 C1679 1.387 . S
C1680 C1683 1.387 . S
H1681 C1677 0.950 . S
H1682 C1679 0.950 . S
C1683 C1674 1.390 . S
C1683 H1676 0.950 . S
C1683 C1680 1.387 . S
C1684 C1685 1.387 . S
C1684 H1688 0.950 . S
C1684 C1693 1.390 . S
C1685 C1684 1.387 . S
C1685 C1687 1.387 . S
H1686 C1693 0.950 . S
C1687 C1685 1.387 . S
C1687 C1689 1.390 . S
C1687 H1691 0.950 . S
H1688 C1684 0.950 . S
C1689 C1687 1.390 . S
C1689 C1690 1.387 . S
C1689 H1692 0.950 . S
C1690 C1689 1.387 . S
C1690 C1693 1.387 . S
H1691 C1687 0.950 . S
H1692 C1689 0.950 . S
C1693 C1684 1.390 . S
C1693 H1686 0.950 . S
C1693 C1690 1.387 . S
C1694 C1695 1.387 . S
C1694 H1698 0.950 . S
C1694 C1703 1.390 . S
C1695 C1694 1.387 . S
C1695 C1697 1.387 . S
H1696 C1703 0.950 . S
C1697 C1695 1.387 . S
C1697 C1699 1.390 . S
C1697 H1701 0.950 . S
H1698 C1694 0.950 . S
C1699 C1697 1.390 . S
C1699 C1700 1.387 . S
C1699 H1702 0.950 . S
C1700 C1699 1.387 . S
C1700 C1703 1.387 . S
H1701 C1697 0.950 . S
H1702 C1699 0.950 . S
C1703 C1694 1.390 . S
C1703 H1696 0.950 . S
C1703 C1700 1.387 . S
C1704 C1705 1.387 . S
C1704 H1708 0.950 . S
C1704 C1713 1.390 . S
C1705 C1704 1.387 . S
C1705 C1707 1.387 . S
H1706 C1713 0.950 . S
C1707 C1705 1.387 . S
C1707 C1709 1.390 . S
C1707 H1711 0.950 . S
H1708 C1704 0.950 . S
C1709 C1707 1.390 . S
C1709 C1710 1.387 . S
C1709 H1712 0.950 . S
C1710 C1709 1.387 . S
C1710 C1713 1.387 . S
H1711 C1707 0.950 . S
H1712 C1709 0.950 . S
C1713 C1704 1.390 . S
C1713 H1706 0.950 . S
C1713 C1710 1.387 . S
C1714 C1715 1.387 . S
C1714 H1718 0.950 . S
C1714 C1723 1.390 . S
C1715 C1714 1.387 . S
C1715 C1717 1.387 . S
H1716 C1723 0.950 . S
C1717 C1715 1.387 . S
C1717 C1719 1.390 . S
C1717 H1721 0.950 . S
H1718 C1714 0.950 . S
C1719 C1717 1.390 . S
C1719 C1720 1.387 . S
C1719 H1722 0.950 . S
C1720 C1719 1.387 . S
C1720 C1723 1.387 . S
H1721 C1717 0.950 . S
H1722 C1719 0.950 . S
C1723 C1714 1.390 . S
C1723 H1716 0.950 . S
C1723 C1720 1.387 . S
C1724 C1725 1.387 . S
C1724 H1728 0.950 . S
C1724 C1733 1.390 . S
C1725 C1724 1.387 . S
C1725 C1727 1.387 . S
H1726 C1733 0.950 . S
C1727 C1725 1.387 . S
C1727 C1729 1.390 . S
C1727 H1731 0.950 . S
H1728 C1724 0.950 . S
C1729 C1727 1.390 . S
C1729 C1730 1.387 . S
C1729 H1732 0.950 . S
C1730 C1729 1.387 . S
C1730 C1733 1.387 . S
H1731 C1727 0.950 . S
H1732 C1729 0.950 . S
C1733 C1724 1.390 . S
C1733 H1726 0.950 . S
C1733 C1730 1.387 . S
C1734 C1735 1.387 . S
C1734 H1738 0.950 . S
C1734 C1743 1.390 . S
C1735 C1734 1.387 . S
C1735 C1737 1.387 1_655 S
H1736 C1743 0.950 . S
C1737 C1735 1.387 1_455 S
C1737 C1739 1.390 . S
C1737 H1741 0.950 . S
H1738 C1734 0.950 . S
C1739 C1737 1.390 . S
C1739 C1740 1.387 . S
C1739 H1742 0.950 . S
C1740 C1739 1.387 . S
C1740 C1743 1.387 1_455 S
H1741 C1737 0.950 . S
H1742 C1739 0.950 . S
C1743 C1734 1.390 . S
C1743 H1736 0.950 . S
C1743 C1740 1.387 1_655 S
C1744 C1745 1.387 . S
C1744 H1748 0.950 . S
C1744 C1753 1.390 . S
C1745 C1744 1.387 . S
C1745 C1747 1.387 . S
H1746 C1753 0.950 . S
C1747 C1745 1.387 . S
C1747 C1749 1.390 . S
C1747 H1751 0.950 . S
H1748 C1744 0.950 . S
C1749 C1747 1.390 . S
C1749 C1750 1.387 . S
C1749 H1752 0.950 . S
C1750 C1749 1.387 . S
C1750 C1753 1.387 . S
H1751 C1747 0.950 . S
H1752 C1749 0.950 . S
C1753 C1744 1.390 . S
C1753 H1746 0.950 . S
C1753 C1750 1.387 . S
C1754 C1755 1.387 . S
C1754 H1758 0.950 . S
C1754 C1763 1.390 1_565 S
C1755 C1754 1.387 . S
C1755 C1757 1.387 . S
H1756 C1763 0.950 . S
C1757 C1755 1.387 . S
C1757 C1759 1.390 1_565 S
C1757 H1761 0.950 . S
H1758 C1754 0.950 . S
C1759 C1757 1.390 1_545 S
C1759 C1760 1.387 . S
C1759 H1762 0.950 . S
C1760 C1759 1.387 . S
C1760 C1763 1.387 . S
H1761 C1757 0.950 . S
H1762 C1759 0.950 . S
C1763 C1754 1.390 1_545 S
C1763 H1756 0.950 . S
C1763 C1760 1.387 . S
C1764 C1765 1.383 1_556 S
C1764 H1768 0.950 . S
C1764 C1773 1.394 . S
C1765 C1764 1.383 1_554 S
C1765 C1767 1.387 . S
H1766 C1773 0.950 . S
C1767 C1765 1.387 . S
C1767 C1769 1.394 . S
C1767 H1771 0.950 . S
H1768 C1764 0.950 . S
C1769 C1767 1.394 . S
C1769 C1770 1.383 1_554 S
C1769 H1772 0.950 . S
C1770 C1769 1.383 1_556 S
C1770 C1773 1.387 . S
H1771 C1767 0.950 . S
H1772 C1769 0.950 . S
C1773 C1764 1.394 . S
C1773 H1766 0.950 . S
C1773 C1770 1.387 . S
C1774 C1775 1.387 . S
C1774 H1778 0.950 . S
C1774 C1783 1.390 1_546 S
C1775 C1774 1.387 . S
C1775 C1777 1.387 . S
H1776 C1783 0.950 . S
C1777 C1775 1.387 . S
C1777 C1779 1.390 1_546 S
C1777 H1781 0.950 . S
H1778 C1774 0.950 . S
C1779 C1777 1.390 1_564 S
C1779 C1780 1.387 . S
C1779 H1782 0.950 . S
C1780 C1779 1.387 . S
C1780 C1783 1.387 . S
H1781 C1777 0.950 . S
H1782 C1779 0.950 . S
C1783 C1774 1.390 1_564 S
C1783 H1776 0.950 . S
C1783 C1780 1.387 . S
C1784 C1785 1.387 . S
C1784 H1788 0.950 . S
C1784 C1793 1.390 1_656 S
C1785 C1784 1.387 . S
C1785 C1787 1.387 . S
H1786 C1793 0.950 . S
C1787 C1785 1.387 . S
C1787 C1789 1.390 1_656 S
C1787 H1791 0.950 . S
H1788 C1784 0.950 . S
C1789 C1787 1.390 1_454 S
C1789 C1790 1.387 . S
C1789 H1792 0.950 . S
C1790 C1789 1.387 . S
C1790 C1793 1.387 . S
H1791 C1787 0.950 . S
H1792 C1789 0.950 . S
C1793 C1784 1.390 1_454 S
C1793 H1786 0.950 . S
C1793 C1790 1.387 . S
C1794 C1795 1.387 . S
C1794 H1798 0.950 . S
C1794 C1803 1.390 . S
C1795 C1794 1.387 . S
C1795 C1797 1.387 1_556 S
H1796 C1803 0.950 . S
C1797 C1795 1.387 1_554 S
C1797 C1799 1.390 . S
C1797 H1801 0.950 . S
H1798 C1794 0.950 . S
C1799 C1797 1.390 . S
C1799 C1800 1.387 . S
C1799 H1802 0.950 . S
C1800 C1799 1.387 . S
C1800 C1803 1.387 1_554 S
H1801 C1797 0.950 . S
H1802 C1799 0.950 . S
C1803 C1794 1.390 . S
C1803 H1796 0.950 . S
C1803 C1800 1.387 1_556 S
C1804 C1805 1.387 . S
C1804 H1808 0.950 . S
C1804 C1813 1.390 1_564 S
C1805 C1804 1.387 . S
C1805 C1807 1.387 . S
H1806 C1813 0.950 . S
C1807 C1805 1.387 . S
C1807 C1809 1.390 1_564 S
C1807 H1811 0.950 . S
H1808 C1804 0.950 . S
C1809 C1807 1.390 1_546 S
C1809 C1810 1.387 . S
C1809 H1812 0.950 . S
C1810 C1809 1.387 . S
C1810 C1813 1.387 . S
H1811 C1807 0.950 . S
H1812 C1809 0.950 . S
C1813 C1804 1.390 1_546 S
C1813 H1806 0.950 . S
C1813 C1810 1.387 . S
C1814 C1815 1.387 . S
C1814 H1818 0.950 . S
C1814 C1823 1.390 1_655 S
C1815 C1814 1.387 . S
C1815 C1817 1.387 1_556 S
H1816 C1823 0.950 . S
C1817 C1815 1.387 1_554 S
C1817 C1819 1.390 1_655 S
C1817 H1821 0.950 . S
H1818 C1814 0.950 . S
C1819 C1817 1.390 1_455 S
C1819 C1820 1.387 . S
C1819 H1822 0.950 . S
C1820 C1819 1.387 . S
C1820 C1823 1.387 1_554 S
H1821 C1817 0.950 . S
H1822 C1819 0.950 . S
C1823 C1814 1.390 1_455 S
C1823 H1816 0.950 . S
C1823 C1820 1.387 1_556 S
C1824 C1825 1.387 . S
C1824 H1828 0.950 . S
C1824 C1833 1.390 . S
C1825 C1824 1.387 . S
C1825 C1827 1.387 . S
H1826 C1833 0.950 . S
C1827 C1825 1.387 . S
C1827 C1829 1.390 . S
C1827 H1831 0.950 . S
H1828 C1824 0.950 . S
C1829 C1827 1.390 . S
C1829 C1830 1.387 . S
C1829 H1832 0.950 . S
C1830 C1829 1.387 . S
C1830 C1833 1.387 . S
H1831 C1827 0.950 . S
H1832 C1829 0.950 . S
C1833 C1824 1.390 . S
C1833 H1826 0.950 . S
C1833 C1830 1.387 . S
C1834 C1835 1.387 . S
C1834 H1838 0.950 . S
C1834 C1843 1.390 . S
C1835 C1834 1.387 . S
C1835 C1837 1.387 . S
H1836 C1843 0.950 . S
C1837 C1835 1.387 . S
C1837 C1839 1.390 . S
C1837 H1841 0.950 . S
H1838 C1834 0.950 . S
C1839 C1837 1.390 . S
C1839 C1840 1.387 . S
C1839 H1842 0.950 . S
C1840 C1839 1.387 . S
C1840 C1843 1.387 . S
H1841 C1837 0.950 . S
H1842 C1839 0.950 . S
C1843 C1834 1.390 . S
C1843 H1836 0.950 . S
C1843 C1840 1.387 . S
C1844 C1845 1.387 . S
C1844 H1848 0.950 . S
C1844 C1853 1.390 . S
C1845 C1844 1.387 . S
C1845 C1847 1.387 . S
H1846 C1853 0.950 . S
C1847 C1845 1.387 . S
C1847 C1849 1.390 . S
C1847 H1851 0.950 . S
H1848 C1844 0.950 . S
C1849 C1847 1.390 . S
C1849 C1850 1.387 . S
C1849 H1852 0.950 . S
C1850 C1849 1.387 . S
C1850 C1853 1.387 . S
H1851 C1847 0.950 . S
H1852 C1849 0.950 . S
C1853 C1844 1.390 . S
C1853 H1846 0.950 . S
C1853 C1850 1.387 . S
C1854 C1855 1.387 . S
C1854 H1858 0.950 . S
C1854 C1863 1.390 . S
C1855 C1854 1.387 . S
C1855 C1857 1.387 . S
H1856 C1863 0.950 . S
C1857 C1855 1.387 . S
C1857 C1859 1.390 . S
C1857 H1861 0.950 . S
H1858 C1854 0.950 . S
C1859 C1857 1.390 . S
C1859 C1860 1.387 . S
C1859 H1862 0.950 . S
C1860 C1859 1.387 . S
C1860 C1863 1.387 . S
H1861 C1857 0.950 . S
H1862 C1859 0.950 . S
C1863 C1854 1.390 . S
C1863 H1856 0.950 . S
C1863 C1860 1.387 . S
C1864 C1865 1.387 . S
C1864 H1868 0.950 . S
C1864 C1873 1.390 . S
C1865 C1864 1.387 . S
C1865 C1867 1.387 . S
H1866 C1873 0.950 . S
C1867 C1865 1.387 . S
C1867 C1869 1.390 . S
C1867 H1871 0.950 . S
H1868 C1864 0.950 . S
C1869 C1867 1.390 . S
C1869 C1870 1.387 . S
C1869 H1872 0.950 . S
C1870 C1869 1.387 . S
C1870 C1873 1.387 . S
H1871 C1867 0.950 . S
H1872 C1869 0.950 . S
C1873 C1864 1.390 . S
C1873 H1866 0.950 . S
C1873 C1870 1.387 . S
C1874 C1875 1.387 . S
C1874 H1878 0.950 . S
C1874 C1883 1.390 . S
C1875 C1874 1.387 . S
C1875 C1877 1.387 . S
H1876 C1883 0.950 . S
C1877 C1875 1.387 . S
C1877 C1879 1.390 . S
C1877 H1881 0.950 . S
H1878 C1874 0.950 . S
C1879 C1877 1.390 . S
C1879 C1880 1.387 . S
C1879 H1882 0.950 . S
C1880 C1879 1.387 . S
C1880 C1883 1.387 . S
H1881 C1877 0.950 . S
H1882 C1879 0.950 . S
C1883 C1874 1.390 . S
C1883 H1876 0.950 . S
C1883 C1880 1.387 . S
C1884 C1885 1.387 . S
C1884 H1888 0.950 . S
C1884 C1893 1.390 . S
C1885 C1884 1.387 . S
C1885 C1887 1.387 . S
H1886 C1893 0.950 . S
C1887 C1885 1.387 . S
C1887 C1889 1.390 . S
C1887 H1891 0.950 . S
H1888 C1884 0.950 . S
C1889 C1887 1.390 . S
C1889 C1890 1.387 . S
C1889 H1892 0.950 . S
C1890 C1889 1.387 . S
C1890 C1893 1.387 . S
H1891 C1887 0.950 . S
H1892 C1889 0.950 . S
C1893 C1884 1.390 . S
C1893 H1886 0.950 . S
C1893 C1890 1.387 . S
C1894 C1895 1.387 . S
C1894 H1898 0.950 . S
C1894 C1903 1.390 . S
C1895 C1894 1.387 . S
C1895 C1897 1.387 . S
H1896 C1903 0.950 . S
C1897 C1895 1.387 . S
C1897 C1899 1.390 . S
C1897 H1901 0.950 . S
H1898 C1894 0.950 . S
C1899 C1897 1.390 . S
C1899 C1900 1.387 . S
C1899 H1902 0.950 . S
C1900 C1899 1.387 . S
C1900 C1903 1.387 . S
H1901 C1897 0.950 . S
H1902 C1899 0.950 . S
C1903 C1894 1.390 . S
C1903 H1896 0.950 . S
C1903 C1900 1.387 . S
C1904 C1905 1.387 . S
C1904 H1908 0.950 . S
C1904 C1913 1.390 . S
C1905 C1904 1.387 . S
C1905 C1907 1.387 . S
H1906 C1913 0.950 . S
C1907 C1905 1.387 . S
C1907 C1909 1.390 . S
C1907 H1911 0.950 . S
H1908 C1904 0.950 . S
C1909 C1907 1.390 . S
C1909 C1910 1.387 . S
C1909 H1912 0.950 . S
C1910 C1909 1.387 . S
C1910 C1913 1.387 . S
H1911 C1907 0.950 . S
H1912 C1909 0.950 . S
C1913 C1904 1.390 . S
C1913 H1906 0.950 . S
C1913 C1910 1.387 . S
C1914 C1915 1.387 . S
C1914 H1918 0.950 . S
C1914 C1923 1.390 . S
C1915 C1914 1.387 . S
C1915 C1917 1.387 . S
H1916 C1923 0.950 . S
C1917 C1915 1.387 . S
C1917 C1919 1.390 . S
C1917 H1921 0.950 . S
H1918 C1914 0.950 . S
C1919 C1917 1.390 . S
C1919 C1920 1.387 . S
C1919 H1922 0.950 . S
C1920 C1919 1.387 . S
C1920 C1923 1.387 . S
H1921 C1917 0.950 . S
H1922 C1919 0.950 . S
C1923 C1914 1.390 . S
C1923 H1916 0.950 . S
C1923 C1920 1.387 . S
C1924 C1925 1.387 . S
C1924 H1928 0.950 . S
C1924 C1933 1.390 . S
C1925 C1924 1.387 . S
C1925 C1927 1.387 . S
H1926 C1933 0.950 . S
C1927 C1925 1.387 . S
C1927 C1929 1.390 . S
C1927 H1931 0.950 . S
H1928 C1924 0.950 . S
C1929 C1927 1.390 . S
C1929 C1930 1.387 . S
C1929 H1932 0.950 . S
C1930 C1929 1.387 . S
C1930 C1933 1.387 . S
H1931 C1927 0.950 . S
H1932 C1929 0.950 . S
C1933 C1924 1.390 . S
C1933 H1926 0.950 . S
C1933 C1930 1.387 . S
C1934 C1935 1.387 . S
C1934 H1938 0.950 . S
C1934 C1943 1.390 . S
C1935 C1934 1.387 . S
C1935 C1937 1.387 . S
H1936 C1943 0.950 . S
C1937 C1935 1.387 . S
C1937 C1939 1.390 . S
C1937 H1941 0.950 . S
H1938 C1934 0.950 . S
C1939 C1937 1.390 . S
C1939 C1940 1.387 . S
C1939 H1942 0.950 . S
C1940 C1939 1.387 . S
C1940 C1943 1.387 . S
H1941 C1937 0.950 . S
H1942 C1939 0.950 . S
C1943 C1934 1.390 . S
C1943 H1936 0.950 . S
C1943 C1940 1.387 . S
C1585 C1553 2.042 . S
C1590 C20 2.042 . S
C1595 C1369 2.042 . S
C1600 C117 2.042 . S
C1605 C1465 2.042 . S
C1610 C196 2.042 . S
C1615 C645 2.040 . S
C1620 C321 2.041 . S
C1625 C724 2.041 . S
C1630 C409 2.041 . S
C1635 C497 2.042 . S
C1640 C557 2.042 . S
C1645 C849 2.040 . S
C1650 C1173 2.040 . S
C1655 C937 2.042 . S
C1660 C1252 2.042 . S
C1665 C1025 2.042 . S
C1670 C1076 2.042 . S
C1675 C49 0.743 . S
C1680 C1525 0.743 . S
C1685 C1340 0.744 . S
C1690 C145 0.744 . S
C1695 C225 0.743 . S
C1700 C1437 0.743 . S
C1705 C673 0.744 . S
C1710 C293 0.744 . S
C1715 C381 0.743 . S
C1720 C753 0.743 . S
C1725 C469 0.744 . S
C1730 C585 0.744 . S
C1735 C821 0.744 . S
C1740 C1201 0.743 . S
C1745 C1281 0.744 . S
C1750 C909 0.744 . S
C1755 C1105 0.743 . S
C1760 C997 0.743 . S
C1765 C29 1.590 . S
C1770 C313 1.590 . S
C1775 C401 1.592 . S
C1780 C108 1.592 . S
C1785 C489 1.590 . S
C1790 C205 1.590 . S
C1795 C460 1.590 . S
C1800 C137 1.590 . S
C1805 C233 1.590 . S
C1810 C284 1.590 . S
C1815 C372 1.593 . S
C1820 C57 1.592 . S
C1825 C548 1.592 . S
C1830 C841 1.592 . S
C1835 C929 1.592 . S
C1840 C636 1.592 . S
C1845 C1017 1.591 . S
C1850 C733 1.591 . S
C1855 C988 1.592 . S
C1860 C665 1.592 . S
C1865 C761 1.593 . S
C1870 C812 1.593 . S
C1875 C900 1.592 . S
C1880 C577 1.592 . S
C1885 C1377 1.590 . S
C1890 C1085 1.590 . S
C1895 C1457 1.592 . S
C1900 C1164 1.592 . S
C1905 C1261 1.592 . S
C1910 C1545 1.592 . S
C1915 C1516 1.590 . S
C1920 C1193 1.590 . S
C1925 C1289 1.590 . S
C1930 C1349 1.590 . S
C1935 C1428 1.590 . S
C1940 C1113 1.590 . S
