# Generated by pormake.
# Topology cag, (4)-cn, num edge types: 1
# Building blocks:
#     Node 0, Type 0, BuildingBlock: NAHDIM_clean_sbu_0, # of connection points: 4
#     Node 1, Type 0, BuildingBlock: NAHDIM_clean_sbu_0, # of connection points: 4
#     Node 2, Type 0, BuildingBlock: NAHDIM_clean_sbu_0, # of connection points: 4
#     Node 3, Type 0, BuildingBlock: NAHDIM_clean_sbu_0, # of connection points: 4
#     Node 4, Type 0, BuildingBlock: NAHDIM_clean_sbu_0, # of connection points: 4
#     Node 5, Type 0, BuildingBlock: NAHDIM_clean_sbu_0, # of connection points: 4
#     Node 6, Type 0, BuildingBlock: NAHDIM_clean_sbu_0, # of connection points: 4
#     Node 7, Type 0, BuildingBlock: NAHDIM_clean_sbu_0, # of connection points: 4
#     Node 8, Type 0, BuildingBlock: NAHDIM_clean_sbu_0, # of connection points: 4
#     Node 9, Type 0, BuildingBlock: NAHDIM_clean_sbu_0, # of connection points: 4
#     Node 10, Type 0, BuildingBlock: NAHDIM_clean_sbu_0, # of connection points: 4
#     Node 11, Type 0, BuildingBlock: NAHDIM_clean_sbu_0, # of connection points: 4
#     Node 12, Type 0, BuildingBlock: NAHDIM_clean_sbu_0, # of connection points: 4
#     Node 13, Type 0, BuildingBlock: NAHDIM_clean_sbu_0, # of connection points: 4
#     Node 14, Type 0, BuildingBlock: NAHDIM_clean_sbu_0, # of connection points: 4
#     Node 15, Type 0, BuildingBlock: NAHDIM_clean_sbu_0, # of connection points: 4
#     Edge 16, Type (0, 0), BuildingBlock: OJICUG_clean_linker_0, # of connection points: 2
#     Edge 17, Type (0, 0), BuildingBlock: OJICUG_clean_linker_0, # of connection points: 2
#     Edge 18, Type (0, 0), BuildingBlock: OJICUG_clean_linker_0, # of connection points: 2
#     Edge 19, Type (0, 0), BuildingBlock: OJICUG_clean_linker_0, # of connection points: 2
#     Edge 20, Type (0, 0), BuildingBlock: OJICUG_clean_linker_0, # of connection points: 2
#     Edge 21, Type (0, 0), BuildingBlock: OJICUG_clean_linker_0, # of connection points: 2
#     Edge 22, Type (0, 0), BuildingBlock: OJICUG_clean_linker_0, # of connection points: 2
#     Edge 23, Type (0, 0), BuildingBlock: OJICUG_clean_linker_0, # of connection points: 2
#     Edge 24, Type (0, 0), BuildingBlock: OJICUG_clean_linker_0, # of connection points: 2
#     Edge 25, Type (0, 0), BuildingBlock: OJICUG_clean_linker_0, # of connection points: 2
#     Edge 26, Type (0, 0), BuildingBlock: OJICUG_clean_linker_0, # of connection points: 2
#     Edge 27, Type (0, 0), BuildingBlock: OJICUG_clean_linker_0, # of connection points: 2
#     Edge 28, Type (0, 0), BuildingBlock: OJICUG_clean_linker_0, # of connection points: 2
#     Edge 29, Type (0, 0), BuildingBlock: OJICUG_clean_linker_0, # of connection points: 2
#     Edge 30, Type (0, 0), BuildingBlock: OJICUG_clean_linker_0, # of connection points: 2
#     Edge 31, Type (0, 0), BuildingBlock: OJICUG_clean_linker_0, # of connection points: 2
#     Edge 32, Type (0, 0), BuildingBlock: OJICUG_clean_linker_0, # of connection points: 2
#     Edge 33, Type (0, 0), BuildingBlock: OJICUG_clean_linker_0, # of connection points: 2
#     Edge 34, Type (0, 0), BuildingBlock: OJICUG_clean_linker_0, # of connection points: 2
#     Edge 35, Type (0, 0), BuildingBlock: OJICUG_clean_linker_0, # of connection points: 2
#     Edge 36, Type (0, 0), BuildingBlock: OJICUG_clean_linker_0, # of connection points: 2
#     Edge 37, Type (0, 0), BuildingBlock: OJICUG_clean_linker_0, # of connection points: 2
#     Edge 38, Type (0, 0), BuildingBlock: OJICUG_clean_linker_0, # of connection points: 2
#     Edge 39, Type (0, 0), BuildingBlock: OJICUG_clean_linker_0, # of connection points: 2
#     Edge 40, Type (0, 0), BuildingBlock: OJICUG_clean_linker_0, # of connection points: 2
#     Edge 41, Type (0, 0), BuildingBlock: OJICUG_clean_linker_0, # of connection points: 2
#     Edge 42, Type (0, 0), BuildingBlock: OJICUG_clean_linker_0, # of connection points: 2
#     Edge 43, Type (0, 0), BuildingBlock: OJICUG_clean_linker_0, # of connection points: 2
#     Edge 44, Type (0, 0), BuildingBlock: OJICUG_clean_linker_0, # of connection points: 2
#     Edge 45, Type (0, 0), BuildingBlock: OJICUG_clean_linker_0, # of connection points: 2
#     Edge 46, Type (0, 0), BuildingBlock: OJICUG_clean_linker_0, # of connection points: 2
#     Edge 47, Type (0, 0), BuildingBlock: OJICUG_clean_linker_0, # of connection points: 2
# Relax obj value: 0.040
# Max RMSD: 0.072
# Mean RMSD: 0.071
data_MOF--net-cag--node1-NAHDIM_clean_sbu_0--edge1-OJICUG_clean_linker_0
_symmetry_space_group_name_H-M    P1
_symmetry_Int_Tables_number       1
_symmetry_cell_setting            triclinic
loop_
_symmetry_equiv_pos_as_xyz
'x, y, z'
_cell_length_a     30.600549
_cell_length_b     36.925935
_cell_length_c     31.567631
_cell_angle_alpha  90.048593
_cell_angle_beta   90.044245
_cell_angle_gamma 90.218295
loop_
_atom_site_label
_atom_site_type_symbol
_atom_site_fract_x
_atom_site_fract_y
_atom_site_fract_z
_atom_type_partial_charge
C0 C 0.28213 0.19014 0.03656 0.0
O1 O 0.32496 0.19071 0.03405 0.0
O2 O 0.36311 0.14051 0.08529 0.0
Zn3 Zn 0.29913 0.12669 0.08701 0.0
O4 O 0.27849 0.12194 0.14732 0.0
C5 C 0.30751 0.07743 0.01865 0.0
O6 O 0.3261 0.10623 0.00202 0.0
O7 O 0.26351 0.16509 0.05754 0.0
C8 C 0.2829 0.0927 0.16808 0.0
O9 O 0.30105 0.0646 0.14967 0.0
C10 C 0.39127 0.13158 0.11293 0.0
O11 O 0.37893 0.11256 0.14597 0.0
O12 O 0.29211 0.07945 0.05594 0.0
C13 C 0.19945 0.77244 0.55944 0.0
O14 O 0.16459 0.76864 0.58332 0.0
O15 O 0.12515 0.84139 0.58965 0.0
Zn16 Zn 0.19104 0.84687 0.58567 0.0
O17 O 0.21577 0.85103 0.64463 0.0
C18 C 0.19285 0.89452 0.51449 0.0
O19 O 0.17368 0.86642 0.49678 0.0
O20 O 0.21684 0.8036 0.55582 0.0
C21 C 0.20304 0.87662 0.66854 0.0
O22 O 0.17461 0.90003 0.65388 0.0
C23 C 0.10044 0.86886 0.58619 0.0
O24 O 0.1181 0.90088 0.57997 0.0
O25 O 0.20502 0.89225 0.55289 0.0
C26 C 0.28756 0.80615 0.97606 0.0
O27 O 0.32648 0.8133 0.99163 0.0
O28 O 0.37348 0.85488 0.92374 0.0
Zn29 Zn 0.30882 0.86423 0.91753 0.0
O30 O 0.29202 0.86569 0.85586 0.0
C31 C 0.31335 0.94059 0.92976 0.0
O32 O 0.33621 0.93789 0.89469 0.0
O33 O 0.2735 0.82468 0.94507 0.0
C34 C 0.25959 0.88411 0.84312 0.0
O35 O 0.23708 0.90307 0.87069 0.0
C36 C 0.40013 0.86166 0.89387 0.0
O37 O 0.38493 0.87311 0.85735 0.0
O38 O 0.2967 0.91212 0.94571 0.0
C39 C 0.22593 0.18109 0.43118 0.0
O40 O 0.21032 0.18389 0.39254 0.0
O41 O 0.12571 0.11788 0.42846 0.0
Zn42 Zn 0.19033 0.11008 0.42174 0.0
O43 O 0.2065 0.1091 0.35978 0.0
C44 C 0.18628 0.0342 0.43258 0.0
O45 O 0.16157 0.03818 0.39884 0.0
O46 O 0.22192 0.15115 0.45071 0.0
C47 C 0.2363 0.08862 0.34537 0.0
O48 O 0.25746 0.06721 0.37143 0.0
C49 C 0.10134 0.13189 0.40034 0.0
O50 O 0.11859 0.14251 0.36432 0.0
O51 O 0.20402 0.06208 0.44897 0.0
C52 C 0.71519 0.85848 0.83344 0.0
O53 O 0.7021 0.82752 0.84965 0.0
O54 O 0.61223 0.8761 0.89733 0.0
Zn55 Zn 0.67608 0.88419 0.90941 0.0
O56 O 0.69964 0.84208 0.94295 0.0
C57 C 0.66782 0.95977 0.92507 0.0
O58 O 0.6498 0.95801 0.88732 0.0
O59 O 0.70799 0.88753 0.85381 0.0
C60 C 0.70837 0.8439 0.98226 0.0
O61 O 0.70204 0.8745 0.00256 0.0
C62 C 0.58606 0.86588 0.92622 0.0
O63 O 0.60127 0.86001 0.96452 0.0
O64 O 0.68266 0.93098 0.94163 0.0
C65 C 0.7898 0.17229 0.33012 0.0
O66 O 0.80382 0.20296 0.34643 0.0
O67 O 0.88908 0.14812 0.39903 0.0
Zn68 Zn 0.82411 0.14442 0.40799 0.0
O69 O 0.8031 0.18739 0.44161 0.0
C70 C 0.82253 0.06836 0.42197 0.0
O71 O 0.84006 0.06912 0.38399 0.0
O72 O 0.79458 0.14321 0.35107 0.0
C73 C 0.80031 0.18645 0.48177 0.0
O74 O 0.81128 0.1567 0.50187 0.0
C75 C 0.91486 0.13905 0.42871 0.0
O76 O 0.89837 0.12839 0.46506 0.0
O77 O 0.81148 0.09802 0.43924 0.0
C78 C 0.70646 0.17001 0.16559 0.0
O79 O 0.69188 0.20024 0.14891 0.0
O80 O 0.60291 0.14292 0.10454 0.0
Zn81 Zn 0.66705 0.14143 0.09088 0.0
O82 O 0.686 0.18514 0.05704 0.0
C83 C 0.66363 0.09402 0.01956 0.0
O84 O 0.64414 0.12244 0.00328 0.0
O85 O 0.70023 0.14039 0.14591 0.0
C86 C 0.72184 0.18361 0.03682 0.0
O87 O 0.74474 0.1536 0.03819 0.0
C88 C 0.57456 0.1587 0.08174 0.0
O89 O 0.58727 0.17661 0.04796 0.0
O90 O 0.67769 0.09571 0.05742 0.0
C91 C 0.79443 0.86102 0.66714 0.0
O92 O 0.80298 0.83036 0.64775 0.0
O93 O 0.88906 0.88359 0.58744 0.0
Zn94 Zn 0.82343 0.88789 0.58759 0.0
O95 O 0.79366 0.84564 0.55886 0.0
C96 C 0.8221 0.93478 0.5172 0.0
O97 O 0.84111 0.90615 0.50088 0.0
O98 O 0.80118 0.89065 0.64765 0.0
C99 C 0.81134 0.82359 0.5332 0.0
O100 O 0.85262 0.82786 0.52293 0.0
C101 C 0.91227 0.85667 0.59826 0.0
O102 O 0.89322 0.82681 0.61145 0.0
O103 O 0.8096 0.93365 0.55559 0.0
C104 C 0.7772 0.71882 0.06978 0.0
O105 O 0.79152 0.72175 0.1089 0.0
O106 O 0.87162 0.65444 0.08652 0.0
Zn107 Zn 0.80663 0.64614 0.08159 0.0
O108 O 0.78145 0.64236 0.14023 0.0
C109 C 0.80749 0.59673 0.01124 0.0
O110 O 0.82666 0.6244 0.99271 0.0
O111 O 0.77988 0.68841 0.0511 0.0
C112 C 0.78093 0.61249 0.16021 0.0
O113 O 0.7964 0.58331 0.1418 0.0
C114 C 0.89725 0.62765 0.09037 0.0
O115 O 0.88079 0.59474 0.09091 0.0
O116 O 0.79506 0.59991 0.04944 0.0
C117 C 0.73371 0.30982 0.57421 0.0
O118 O 0.72382 0.30671 0.61454 0.0
O119 O 0.63166 0.37488 0.57915 0.0
Zn120 Zn 0.69669 0.38064 0.58602 0.0
O121 O 0.71473 0.38093 0.64785 0.0
C122 C 0.69717 0.45697 0.57483 0.0
O123 O 0.67465 0.45455 0.61012 0.0
O124 O 0.72583 0.33947 0.55529 0.0
C125 C 0.68881 0.38904 0.67785 0.0
O126 O 0.64834 0.39799 0.66893 0.0
C127 C 0.60789 0.35092 0.59669 0.0
O128 O 0.62576 0.3274 0.62259 0.0
O129 O 0.71224 0.4282 0.55833 0.0
C130 C 0.78991 0.30752 0.94584 0.0
O131 O 0.82129 0.30312 0.91793 0.0
O132 O 0.87107 0.37526 0.92789 0.0
Zn133 Zn 0.80578 0.38049 0.92252 0.0
O134 O 0.78711 0.37988 0.8613 0.0
C135 C 0.8055 0.45663 0.92948 0.0
O136 O 0.82671 0.45237 0.89365 0.0
O137 O 0.77653 0.33938 0.95368 0.0
C138 C 0.74776 0.3875 0.85216 0.0
O139 O 0.72053 0.3954 0.88295 0.0
C140 C 0.89656 0.36621 0.89797 0.0
O141 O 0.88019 0.35883 0.86045 0.0
O142 O 0.79102 0.42873 0.94851 0.0
C143 C 0.70963 0.70486 0.46459 0.0
O144 O 0.66781 0.70191 0.47335 0.0
O145 O 0.62886 0.64917 0.41743 0.0
Zn146 Zn 0.69373 0.64043 0.41391 0.0
O147 O 0.71145 0.63716 0.3527 0.0
C148 C 0.69568 0.59263 0.48393 0.0
O149 O 0.67784 0.62124 0.50153 0.0
O150 O 0.72734 0.68165 0.44039 0.0
C151 C 0.72207 0.60794 0.33417 0.0
O152 O 0.72149 0.57739 0.35546 0.0
C153 C 0.60312 0.62797 0.39771 0.0
O154 O 0.6197 0.60165 0.37483 0.0
O155 O 0.70673 0.59418 0.44518 0.0
C156 C 0.20354 0.33802 0.82527 0.0
O157 O 0.18617 0.30932 0.84331 0.0
O158 O 0.10964 0.36108 0.8952 0.0
Zn159 Zn 0.17452 0.36821 0.90228 0.0
O160 O 0.20192 0.3282 0.9361 0.0
C161 C 0.17038 0.4447 0.91746 0.0
O162 O 0.14866 0.4438 0.88154 0.0
O163 O 0.20243 0.36814 0.84475 0.0
C164 C 0.18207 0.30108 0.9518 0.0
O165 O 0.13958 0.29801 0.94703 0.0
C166 C 0.08354 0.36914 0.92501 0.0
O167 O 0.09958 0.38099 0.9611 0.0
O168 O 0.18563 0.41541 0.93231 0.0
C169 C 0.28378 0.6384 0.33874 0.0
O170 O 0.29404 0.66902 0.35758 0.0
O171 O 0.39085 0.61516 0.40074 0.0
Zn172 Zn 0.32628 0.61027 0.41214 0.0
O173 O 0.30434 0.65232 0.44704 0.0
C174 C 0.33238 0.56145 0.4814 0.0
O175 O 0.35175 0.58994 0.49803 0.0
O176 O 0.29414 0.60871 0.35638 0.0
C177 C 0.26824 0.64992 0.46674 0.0
O178 O 0.24575 0.6196 0.46446 0.0
C179 C 0.41594 0.63661 0.42093 0.0
O180 O 0.39936 0.65787 0.45012 0.0
O181 O 0.31732 0.56359 0.44396 0.0
C182 C 0.2015 0.64147 0.17367 0.0
O183 O 0.18802 0.67245 0.15805 0.0
O184 O 0.10915 0.62142 0.09371 0.0
Zn185 Zn 0.1749 0.61927 0.09169 0.0
O186 O 0.20269 0.66413 0.06668 0.0
C187 C 0.17144 0.57501 0.01887 0.0
O188 O 0.147 0.60234 0.00699 0.0
O189 O 0.19873 0.61317 0.15084 0.0
C190 C 0.18599 0.68534 0.03949 0.0
O191 O 0.14655 0.67873 0.02491 0.0
C192 C 0.08448 0.6483 0.10107 0.0
O193 O 0.10184 0.68017 0.10909 0.0
O194 O 0.18927 0.576 0.05527 0.0
C195 C 0.28785 0.3253 0.66209 0.0
O196 O 0.29397 0.2933 0.64492 0.0
O197 O 0.39508 0.34284 0.59491 0.0
Zn198 Zn 0.33047 0.34956 0.58589 0.0
O199 O 0.30627 0.30675 0.55385 0.0
C200 C 0.33356 0.42531 0.57184 0.0
O201 O 0.3512 0.42355 0.60974 0.0
O202 O 0.3009 0.35337 0.64252 0.0
C203 C 0.3007 0.30674 0.51396 0.0
O204 O 0.3108 0.33588 0.49215 0.0
C205 C 0.42162 0.35364 0.56663 0.0
O206 O 0.40613 0.36811 0.53173 0.0
O207 O 0.32078 0.3962 0.55415 0.0
C208 C 0.27728 0.24754 0.99511 0.0
C209 C 0.25613 0.21848 0.01528 0.0
H210 H 0.27058 0.29635 0.95952 0.0
C211 C 0.21021 0.21688 0.01479 0.0
H212 H 0.31259 0.24965 0.99495 0.0
C213 C 0.18599 0.24373 0.99427 0.0
C214 C 0.20724 0.27277 0.97407 0.0
H215 H 0.19295 0.19481 0.03005 0.0
H216 H 0.15067 0.24172 0.99426 0.0
C217 C 0.25313 0.2744 0.97484 0.0
C218 C 0.21283 0.67766 0.51517 0.0
C219 C 0.25128 0.6811 0.49116 0.0
H220 H 0.16646 0.70365 0.55563 0.0
C221 C 0.27296 0.71473 0.4903 0.0
H222 H 0.19536 0.65212 0.51659 0.0
C223 C 0.25627 0.74436 0.51259 0.0
C224 C 0.21766 0.74096 0.5364 0.0
H225 H 0.30265 0.71831 0.4721 0.0
H226 H 0.27361 0.76996 0.51104 0.0
C227 C 0.19626 0.70722 0.53761 0.0
C228 C 0.27742 0.75388 0.02569 0.0
C229 C 0.26096 0.77599 0.99325 0.0
H230 H 0.26675 0.708 0.06571 0.0
C231 C 0.21917 0.76851 0.97674 0.0
H232 H 0.30945 0.75889 0.03914 0.0
C233 C 0.19462 0.73931 0.992 0.0
C234 C 0.21135 0.71689 0.02404 0.0
H235 H 0.20546 0.78505 0.95176 0.0
H236 H 0.16269 0.73414 0.97839 0.0
C237 C 0.25292 0.72464 0.04089 0.0
C238 C 0.27171 0.27537 0.4493 0.0
C239 C 0.28255 0.27433 0.49253 0.0
H240 H 0.24533 0.2468 0.39605 0.0
C241 C 0.2755 0.24208 0.51524 0.0
H242 H 0.27674 0.29977 0.43089 0.0
C243 C 0.25772 0.21162 0.49521 0.0
C244 C 0.24632 0.21283 0.4521 0.0
H245 H 0.28362 0.24033 0.54858 0.0
H246 H 0.25245 0.18729 0.51367 0.0
C247 C 0.25367 0.24498 0.42933 0.0
C248 C 0.74662 0.7483 0.00476 0.0
C249 C 0.759 0.75067 0.04756 0.0
H250 H 0.72106 0.77581 0.95057 0.0
C251 C 0.75426 0.78389 0.0688 0.0
H252 H 0.74987 0.72311 0.98744 0.0
C253 C 0.73763 0.81412 0.04768 0.0
C254 C 0.72554 0.81181 0.0048 0.0
H255 H 0.76344 0.78663 0.1018 0.0
H256 H 0.73449 0.83933 0.06495 0.0
C257 C 0.73014 0.77854 0.9836 0.0
C258 C 0.77815 0.21648 0.54959 0.0
C259 C 0.78431 0.21832 0.50553 0.0
H260 H 0.75741 0.24387 0.60581 0.0
C261 C 0.77463 0.25081 0.48437 0.0
H262 H 0.78533 0.19189 0.56688 0.0
C263 C 0.75877 0.28068 0.50673 0.0
C264 C 0.75208 0.27868 0.55072 0.0
H265 H 0.77911 0.25317 0.45045 0.0
H266 H 0.75133 0.30521 0.48942 0.0
C267 C 0.76213 0.24631 0.57193 0.0
C268 C 0.73489 0.27938 0.99498 0.0
C269 C 0.77152 0.27584 0.96846 0.0
H270 H 0.69017 0.25295 0.03717 0.0
C271 C 0.79099 0.24164 0.96404 0.0
H272 H 0.71908 0.30535 -0.00103 0.0
C273 C 0.77465 0.21175 0.98607 0.0
C274 C 0.73821 0.21527 0.01278 0.0
H275 H 0.81926 0.23794 0.94388 0.0
H276 H 0.79069 0.18586 0.98216 0.0
C277 C 0.71827 0.24934 0.01678 0.0
C278 C 0.74111 0.78906 0.52622 0.0
C279 C 0.78545 0.7932 0.51552 0.0
H280 H 0.68248 0.75801 0.51861 0.0
C281 C 0.80473 0.76794 0.48804 0.0
H282 H 0.72524 0.80801 0.54736 0.0
C283 C 0.78017 0.73917 0.47161 0.0
C284 C 0.73579 0.7351 0.48226 0.0
H285 H 0.83881 0.77032 0.47922 0.0
H286 H 0.79599 0.72019 0.45048 0.0
C287 C 0.71656 0.76035 0.50975 0.0
C288 C 0.32628 0.04031 0.95492 0.0
C289 C 0.30665 0.04279 0.99504 0.0
H290 H 0.34365 0.00622 0.90286 0.0
C291 C 0.28747 0.01164 0.01277 0.0
H292 H 0.34126 0.06379 0.94029 0.0
C293 C 0.28876 0.97856 0.9912 0.0
C294 C 0.30935 0.97593 0.95152 0.0
H295 H 0.27199 0.01266 0.04359 0.0
H296 H 0.27429 0.95493 0.00599 0.0
C297 C 0.32766 0.00726 0.93343 0.0
C298 C 0.21391 0.96021 0.5113 0.0
C299 C 0.19501 0.92961 0.49193 0.0
H300 H 0.22623 0.01727 0.50767 0.0
C301 C 0.17565 0.93338 0.45182 0.0
H302 H 0.22917 0.95821 0.54217 0.0
C303 C 0.17377 0.96722 0.43219 0.0
C304 C 0.19139 0.99804 0.45212 0.0
H305 H 0.16086 0.91037 0.43596 0.0
H306 H 0.15775 0.96929 0.40168 0.0
C307 C 0.21221 0.99407 0.49154 0.0
C308 C 0.68636 0.99631 0.9898 0.0
C309 C 0.66891 0.99446 0.94863 0.0
H310 H 0.69856 0.0292 0.04451 0.0
C311 C 0.6513 0.02595 0.93051 0.0
H312 H 0.70024 0.97255 0.00466 0.0
C313 C 0.65035 0.05836 0.95331 0.0
C314 C 0.66698 0.06008 0.99479 0.0
H315 H 0.63769 0.02551 0.89883 0.0
H316 H 0.636 0.08197 0.93855 0.0
C317 C 0.68541 0.02878 0.01264 0.0
C318 C 0.80341 0.03302 0.48737 0.0
C319 C 0.819 0.0338 0.44547 0.0
H320 H 0.7919 0.0011 0.54294 0.0
C321 C 0.83314 0.00137 0.42676 0.0
H322 H 0.79219 0.05754 0.50269 0.0
C323 C 0.83299 0.96911 0.44979 0.0
C324 C 0.81868 0.96849 0.49208 0.0
H325 H 0.84519 0.00095 0.39451 0.0
H326 H 0.84493 0.94477 0.43459 0.0
C327 C 0.80322 0.00068 0.51044 0.0
C328 C 0.78456 0.49737 0.98979 0.0
C329 C 0.80233 0.49298 0.94907 0.0
H330 H 0.77215 0.53357 0.04138 0.0
C331 C 0.81938 0.52346 0.92805 0.0
H332 H 0.7711 0.47445 0.00683 0.0
C333 C 0.81997 0.55733 0.94782 0.0
C334 C 0.80357 0.56149 0.98908 0.0
H335 H 0.83318 0.52108 0.89659 0.0
H336 H 0.83418 0.58006 0.93103 0.0
C337 C 0.78521 0.53126 0.00961 0.0
C338 C 0.68487 0.52379 0.57201 0.0
C339 C 0.70087 0.49219 0.55274 0.0
H340 H 0.67097 0.58017 0.56558 0.0
C341 C 0.71778 0.49436 0.51141 0.0
H342 H 0.67181 0.52312 0.60389 0.0
C343 C 0.71715 0.52719 0.48929 0.0
C344 C 0.69976 0.5585 0.50814 0.0
H345 H 0.73037 0.47051 0.49568 0.0
H346 H 0.72941 0.52783 0.45712 0.0
C347 C 0.68438 0.55655 0.55001 0.0
C348 C 0.15468 0.54209 0.95151 0.0
C349 C 0.17472 0.5425 0.99161 0.0
H350 H 0.1378 0.51106 0.89662 0.0
C351 C 0.19569 0.51105 0.00603 0.0
H352 H 0.13839 0.5659 0.93933 0.0
C353 C 0.19529 0.47949 0.98148 0.0
C354 C 0.17398 0.47879 0.94197 0.0
H355 H 0.2115 0.5105 0.03674 0.0
H356 H 0.21089 0.45545 0.9939 0.0
C357 C 0.15434 0.51061 0.92697 0.0
C358 C 0.34704 0.52495 0.54658 0.0
C359 C 0.33034 0.52695 0.50518 0.0
H360 H 0.36098 0.49146 0.60007 0.0
C361 C 0.31311 0.49544 0.48638 0.0
H362 H 0.36046 0.54872 0.56205 0.0
C363 C 0.31347 0.46249 0.50822 0.0
C364 C 0.33099 0.4604 0.54933 0.0
H365 H 0.29995 0.49606 0.45453 0.0
H366 H 0.30056 0.43858 0.49265 0.0
C367 C 0.34733 0.49207 0.56841 0.0
C368 C 0.49557 0.16783 0.06369 0.0
C369 C 0.52751 0.15423 0.09136 0.0
H370 H 0.42749 0.1714 0.04877 0.0
C371 C 0.51409 0.13473 0.12736 0.0
H372 H 0.50478 0.18301 0.03572 0.0
C373 C 0.4698 0.1281 0.13488 0.0
C374 C 0.43793 0.14075 0.10653 0.0
H375 H 0.53785 0.12397 0.14942 0.0
H376 H 0.46066 0.11243 0.1625 0.0
C377 C 0.45124 0.16112 0.07115 0.0
C378 C 0.9803 0.8924 0.58454 0.0
C379 C 0.96048 0.85929 0.59539 0.0
H380 H 0.03969 0.92132 0.57324 0.0
C381 C 0.98713 0.82907 0.60313 0.0
H382 H 0.96081 0.91625 0.57837 0.0
C383 C 0.03267 0.83197 0.59998 0.0
C384 C 0.05237 0.8652 0.58927 0.0
H385 H 0.97286 0.80316 0.61147 0.0
H386 H 0.05239 0.80825 0.6061 0.0
C387 C 0.02564 0.89533 0.58163 0.0
C388 C 0.47729 0.86914 0.8689 0.0
C389 C 0.44785 0.85997 0.90135 0.0
H390 H 0.54391 0.87811 0.85122 0.0
C391 C 0.46443 0.85104 0.94155 0.0
H392 H 0.46563 0.87608 0.83755 0.0
C393 C 0.50939 0.85227 0.94942 0.0
C394 C 0.53872 0.86241 0.91726 0.0
H395 H 0.44265 0.8438 0.96724 0.0
H396 H 0.52104 0.84585 0.98093 0.0
C397 C 0.52221 0.87034 0.87676 0.0
C398 C 0.02577 0.14805 0.37608 0.0
C399 C 0.05377 0.1351 0.40792 0.0
H400 H 0.95991 0.15952 0.35763 0.0
C401 C 0.03579 0.12452 0.44699 0.0
H402 H 0.03858 0.15645 0.34565 0.0
C403 C 0.99079 0.12635 0.45388 0.0
C404 C 0.96269 0.13873 0.42185 0.0
H405 H 0.05643 0.1145 0.47226 0.0
H406 H 0.97804 0.11764 0.48422 0.0
C407 C 0.98068 0.1498 0.38296 0.0
C408 C 0.00818 0.67326 0.10079 0.0
C409 C 0.03647 0.64339 0.09934 0.0
H410 H 0.94192 0.6918 0.09883 0.0
C411 C 0.0185 0.60844 0.09539 0.0
H412 H 0.021 0.70053 0.10373 0.0
C413 C 0.97336 0.60344 0.09279 0.0
C414 C 0.94504 0.63326 0.09378 0.0
H415 H 0.03932 0.5848 0.09424 0.0
H416 H 0.96073 0.57612 0.08965 0.0
C417 C 0.9629 0.66825 0.09787 0.0
C418 C 0.54294 0.37047 0.55464 0.0
C419 C 0.56032 0.35041 0.58848 0.0
H420 H 0.48571 0.38686 0.521 0.0
C421 C 0.53178 0.33057 0.61455 0.0
H422 H 0.56408 0.38591 0.53384 0.0
C423 C 0.48665 0.3314 0.6074 0.0
C424 C 0.46932 0.35168 0.5737 0.0
H425 H 0.5442 0.31491 0.64091 0.0
H426 H 0.46536 0.31622 0.62832 0.0
C427 C 0.498 0.37091 0.54718 0.0
C428 C 0.01833 0.35635 0.87907 0.0
C429 C 0.03571 0.36672 0.91854 0.0
H430 H 0.9608 0.34801 0.84157 0.0
C431 C 0.0069 0.3758 0.95147 0.0
H432 H 0.03963 0.34915 0.85303 0.0
C433 C 0.96176 0.3751 0.94491 0.0
C434 C 0.94436 0.36538 0.90524 0.0
H435 H 0.01918 0.38384 0.98228 0.0
H436 H 0.94054 0.38264 0.97089 0.0
C437 C 0.97312 0.35572 0.87248 0.0
C438 C 0.53714 0.65723 0.42999 0.0
C439 C 0.55517 0.63166 0.40205 0.0
H440 H 0.47906 0.6789 0.45786 0.0
C441 C 0.52693 0.60879 0.37916 0.0
H442 H 0.558 0.67528 0.44809 0.0
C443 C 0.48172 0.61094 0.38467 0.0
C444 C 0.46369 0.63592 0.41332 0.0
H445 H 0.53971 0.58888 0.35727 0.0
H446 H 0.46097 0.59255 0.36692 0.0
C447 C 0.49187 0.65929 0.43562 0.0
C448 C 0.24368 0.11834 0.23082 0.0
C449 C 0.26984 0.09104 0.21312 0.0
H450 H 0.21224 0.13882 0.2864 0.0
C451 C 0.28424 0.06259 0.2391 0.0
H452 H 0.23198 0.14057 0.21159 0.0
C453 C 0.27334 0.06181 0.28207 0.0
C454 C 0.24733 0.08918 0.2998 0.0
H455 H 0.30453 0.0412 0.22642 0.0
H456 H 0.28525 0.0397 0.30137 0.0
C457 C 0.2323 0.1173 0.27366 0.0
C458 C 0.26583 0.8585 0.76983 0.0
C459 C 0.24637 0.8831 0.79805 0.0
H460 H 0.26731 0.83702 0.70683 0.0
C461 C 0.21344 0.90618 0.78302 0.0
H462 H 0.29131 0.84035 0.78042 0.0
C463 C 0.19989 0.90442 0.7408 0.0
C464 C 0.21874 0.87935 0.71276 0.0
H465 H 0.1979 0.92552 0.80391 0.0
H466 H 0.17417 0.9224 0.73033 0.0
C467 C 0.25203 0.85654 0.72766 0.0
C468 C 0.7474 0.89254 0.77204 0.0
C469 C 0.73685 0.85941 0.79154 0.0
H470 H 0.77387 0.91912 0.7174 0.0
C471 C 0.74644 0.82699 0.77024 0.0
H472 H 0.74045 0.91801 0.78763 0.0
C473 C 0.76566 0.82762 0.73015 0.0
C474 C 0.77561 0.8607 0.71032 0.0
H475 H 0.73887 0.801 0.78439 0.0
H476 H 0.77226 0.80209 0.71455 0.0
C477 C 0.76653 0.89318 0.73179 0.0
C478 C 0.75915 0.20409 0.26675 0.0
C479 C 0.7689 0.17161 0.28783 0.0
H480 H 0.73177 0.22905 0.21172 0.0
C481 C 0.75852 0.13852 0.2681 0.0
H482 H 0.76672 0.23003 0.28106 0.0
C483 C 0.73871 0.13795 0.22817 0.0
C484 C 0.72858 0.17046 0.20729 0.0
H485 H 0.76573 0.11301 0.28344 0.0
H486 H 0.73099 0.11202 0.21389 0.0
C487 C 0.73907 0.20352 0.22698 0.0
C488 C 0.75001 0.577 0.26886 0.0
C489 C 0.73587 0.6087 0.28926 0.0
H490 H 0.77531 0.55329 0.21207 0.0
C491 C 0.73566 0.64142 0.26652 0.0
H492 H 0.75052 0.55135 0.28547 0.0
C493 C 0.74979 0.64252 0.2245 0.0
C494 C 0.76451 0.61095 0.20425 0.0
H495 H 0.72486 0.66633 0.28123 0.0
H496 H 0.74953 0.66826 0.20805 0.0
C497 C 0.76423 0.57812 0.22678 0.0
C498 C 0.74741 0.37935 0.73233 0.0
C499 C 0.70404 0.38852 0.7224 0.0
H500 H 0.79528 0.37184 0.78102 0.0
C501 C 0.67523 0.39722 0.7555 0.0
H502 H 0.77044 0.37249 0.70759 0.0
C503 C 0.68945 0.39681 0.79758 0.0
C504 C 0.73281 0.38773 0.80753 0.0
H505 H 0.6416 0.40438 0.74899 0.0
H506 H 0.66637 0.40369 0.82228 0.0
C507 C 0.76165 0.37898 0.77444 0.0
C508 C 0.24916 0.29791 0.72419 0.0
C509 C 0.26605 0.32868 0.70371 0.0
H510 H 0.21607 0.27675 0.77848 0.0
C511 C 0.26193 0.36267 0.7234 0.0
H512 H 0.25171 0.27134 0.70986 0.0
C513 C 0.24156 0.36577 0.76284 0.0
C514 C 0.22473 0.33497 0.78334 0.0
H515 H 0.27461 0.38692 0.70846 0.0
H516 H 0.23904 0.39232 0.77725 0.0
C517 C 0.22865 0.30103 0.76353 0.0
C518 C 0.24747 0.67158 0.27942 0.0
C519 C 0.26146 0.6387 0.29711 0.0
H520 H 0.21743 0.69817 0.2269 0.0
C521 C 0.25459 0.60644 0.2743 0.0
H522 H 0.25211 0.69691 0.29618 0.0
C523 C 0.23475 0.60717 0.23434 0.0
C524 C 0.22121 0.64016 0.2165 0.0
H525 H 0.26498 0.58065 0.28706 0.0
H526 H 0.23031 0.58193 0.21734 0.0
C527 C 0.22749 0.67229 0.23966 0.0
loop_
_geom_bond_atom_site_label_1
_geom_bond_atom_site_label_2
_geom_bond_distance
_geom_bond_site_symmetry_2
_ccdc_geom_bond_type
C0 O1 1.160 . S
C0 O7 1.185 . S
O1 C0 1.160 . S
O2 Zn3 1.899 . S
O2 C10 1.284 . S
Zn3 O2 1.899 . S
Zn3 O4 2.032 . S
Zn3 O7 2.086 . S
Zn3 O12 1.977 . S
O4 Zn3 2.032 . S
O4 C8 1.278 . S
C5 O6 1.203 . S
C5 O12 1.267 . S
O6 C5 1.203 . S
O7 C0 1.185 . S
O7 Zn3 2.086 . S
C8 O4 1.278 . S
C8 O9 1.211 . S
O9 C8 1.211 . S
C10 O2 1.284 . S
C10 O11 1.273 . S
O11 C10 1.273 . S
O12 Zn3 1.977 . S
O12 C5 1.267 . S
C13 O14 1.160 . S
C13 O20 1.185 . S
O14 C13 1.160 . S
O15 Zn16 1.899 . S
O15 C23 1.284 . S
Zn16 O15 1.899 . S
Zn16 O17 2.032 . S
Zn16 O20 2.086 . S
Zn16 O25 1.977 . S
O17 Zn16 2.032 . S
O17 C21 1.278 . S
C18 O19 1.203 . S
C18 O25 1.267 . S
O19 C18 1.203 . S
O20 C13 1.185 . S
O20 Zn16 2.086 . S
C21 O17 1.278 . S
C21 O22 1.211 . S
O22 C21 1.211 . S
C23 O15 1.284 . S
C23 O24 1.273 . S
O24 C23 1.273 . S
O25 Zn16 1.977 . S
O25 C18 1.267 . S
C26 O27 1.160 . S
C26 O33 1.185 . S
O27 C26 1.160 . S
O28 Zn29 1.899 . S
O28 C36 1.284 . S
Zn29 O28 1.899 . S
Zn29 O30 2.032 . S
Zn29 O33 2.086 . S
Zn29 O38 1.977 . S
O30 Zn29 2.032 . S
O30 C34 1.278 . S
C31 O32 1.203 . S
C31 O38 1.267 . S
O32 C31 1.203 . S
O33 C26 1.185 . S
O33 Zn29 2.086 . S
C34 O30 1.278 . S
C34 O35 1.211 . S
O35 C34 1.211 . S
C36 O28 1.284 . S
C36 O37 1.273 . S
O37 C36 1.273 . S
O38 Zn29 1.977 . S
O38 C31 1.267 . S
C39 O40 1.160 . S
C39 O46 1.185 . S
O40 C39 1.160 . S
O41 Zn42 1.899 . S
O41 C49 1.284 . S
Zn42 O41 1.899 . S
Zn42 O43 2.032 . S
Zn42 O46 2.086 . S
Zn42 O51 1.977 . S
O43 Zn42 2.032 . S
O43 C47 1.278 . S
C44 O45 1.203 . S
C44 O51 1.267 . S
O45 C44 1.203 . S
O46 C39 1.185 . S
O46 Zn42 2.086 . S
C47 O43 1.278 . S
C47 O48 1.211 . S
O48 C47 1.211 . S
C49 O41 1.284 . S
C49 O50 1.273 . S
O50 C49 1.273 . S
O51 Zn42 1.977 . S
O51 C44 1.267 . S
C52 O53 1.160 . S
C52 O59 1.185 . S
O53 C52 1.160 . S
O54 Zn55 1.899 . S
O54 C62 1.284 . S
Zn55 O54 1.899 . S
Zn55 O56 2.032 . S
Zn55 O59 2.086 . S
Zn55 O64 1.977 . S
O56 Zn55 2.032 . S
O56 C60 1.278 . S
C57 O58 1.203 . S
C57 O64 1.267 . S
O58 C57 1.203 . S
O59 C52 1.185 . S
O59 Zn55 2.086 . S
C60 O56 1.278 . S
C60 O61 1.211 . S
O61 C60 1.211 . S
C62 O54 1.284 . S
C62 O63 1.273 . S
O63 C62 1.273 . S
O64 Zn55 1.977 . S
O64 C57 1.267 . S
C65 O66 1.160 . S
C65 O72 1.185 . S
O66 C65 1.160 . S
O67 Zn68 1.899 . S
O67 C75 1.284 . S
Zn68 O67 1.899 . S
Zn68 O69 2.032 . S
Zn68 O72 2.086 . S
Zn68 O77 1.977 . S
O69 Zn68 2.032 . S
O69 C73 1.278 . S
C70 O71 1.203 . S
C70 O77 1.267 . S
O71 C70 1.203 . S
O72 C65 1.185 . S
O72 Zn68 2.086 . S
C73 O69 1.278 . S
C73 O74 1.211 . S
O74 C73 1.211 . S
C75 O67 1.284 . S
C75 O76 1.273 . S
O76 C75 1.273 . S
O77 Zn68 1.977 . S
O77 C70 1.267 . S
C78 O79 1.160 . S
C78 O85 1.185 . S
O79 C78 1.160 . S
O80 Zn81 1.899 . S
O80 C88 1.284 . S
Zn81 O80 1.899 . S
Zn81 O82 2.032 . S
Zn81 O85 2.086 . S
Zn81 O90 1.977 . S
O82 Zn81 2.032 . S
O82 C86 1.278 . S
C83 O84 1.203 . S
C83 O90 1.267 . S
O84 C83 1.203 . S
O85 C78 1.185 . S
O85 Zn81 2.086 . S
C86 O82 1.278 . S
C86 O87 1.211 . S
O87 C86 1.211 . S
C88 O80 1.284 . S
C88 O89 1.273 . S
O89 C88 1.273 . S
O90 Zn81 1.977 . S
O90 C83 1.267 . S
C91 O92 1.160 . S
C91 O98 1.185 . S
O92 C91 1.160 . S
O93 Zn94 1.899 . S
O93 C101 1.284 . S
Zn94 O93 1.899 . S
Zn94 O95 2.032 . S
Zn94 O98 2.086 . S
Zn94 O103 1.977 . S
O95 Zn94 2.032 . S
O95 C99 1.278 . S
C96 O97 1.203 . S
C96 O103 1.267 . S
O97 C96 1.203 . S
O98 C91 1.185 . S
O98 Zn94 2.086 . S
C99 O95 1.278 . S
C99 O100 1.211 . S
O100 C99 1.211 . S
C101 O93 1.284 . S
C101 O102 1.273 . S
O102 C101 1.273 . S
O103 Zn94 1.977 . S
O103 C96 1.267 . S
C104 O105 1.160 . S
C104 O111 1.185 . S
O105 C104 1.160 . S
O106 Zn107 1.899 . S
O106 C114 1.284 . S
Zn107 O106 1.899 . S
Zn107 O108 2.032 . S
Zn107 O111 2.086 . S
Zn107 O116 1.977 . S
O108 Zn107 2.032 . S
O108 C112 1.278 . S
C109 O110 1.203 . S
C109 O116 1.267 . S
O110 C109 1.203 . S
O111 C104 1.185 . S
O111 Zn107 2.086 . S
C112 O108 1.278 . S
C112 O113 1.211 . S
O113 C112 1.211 . S
C114 O106 1.284 . S
C114 O115 1.273 . S
O115 C114 1.273 . S
O116 Zn107 1.977 . S
O116 C109 1.267 . S
C117 O118 1.160 . S
C117 O124 1.185 . S
O118 C117 1.160 . S
O119 Zn120 1.899 . S
O119 C127 1.284 . S
Zn120 O119 1.899 . S
Zn120 O121 2.032 . S
Zn120 O124 2.086 . S
Zn120 O129 1.977 . S
O121 Zn120 2.032 . S
O121 C125 1.278 . S
C122 O123 1.203 . S
C122 O129 1.267 . S
O123 C122 1.203 . S
O124 C117 1.185 . S
O124 Zn120 2.086 . S
C125 O121 1.278 . S
C125 O126 1.211 . S
O126 C125 1.211 . S
C127 O119 1.284 . S
C127 O128 1.273 . S
O128 C127 1.273 . S
O129 Zn120 1.977 . S
O129 C122 1.267 . S
C130 O131 1.160 . S
C130 O137 1.185 . S
O131 C130 1.160 . S
O132 Zn133 1.899 . S
O132 C140 1.284 . S
Zn133 O132 1.899 . S
Zn133 O134 2.032 . S
Zn133 O137 2.086 . S
Zn133 O142 1.977 . S
O134 Zn133 2.032 . S
O134 C138 1.278 . S
C135 O136 1.203 . S
C135 O142 1.267 . S
O136 C135 1.203 . S
O137 C130 1.185 . S
O137 Zn133 2.086 . S
C138 O134 1.278 . S
C138 O139 1.211 . S
O139 C138 1.211 . S
C140 O132 1.284 . S
C140 O141 1.273 . S
O141 C140 1.273 . S
O142 Zn133 1.977 . S
O142 C135 1.267 . S
C143 O144 1.160 . S
C143 O150 1.185 . S
O144 C143 1.160 . S
O145 Zn146 1.899 . S
O145 C153 1.284 . S
Zn146 O145 1.899 . S
Zn146 O147 2.032 . S
Zn146 O150 2.086 . S
Zn146 O155 1.977 . S
O147 Zn146 2.032 . S
O147 C151 1.278 . S
C148 O149 1.203 . S
C148 O155 1.267 . S
O149 C148 1.203 . S
O150 C143 1.185 . S
O150 Zn146 2.086 . S
C151 O147 1.278 . S
C151 O152 1.211 . S
O152 C151 1.211 . S
C153 O145 1.284 . S
C153 O154 1.273 . S
O154 C153 1.273 . S
O155 Zn146 1.977 . S
O155 C148 1.267 . S
C156 O157 1.160 . S
C156 O163 1.185 . S
O157 C156 1.160 . S
O158 Zn159 1.899 . S
O158 C166 1.284 . S
Zn159 O158 1.899 . S
Zn159 O160 2.032 . S
Zn159 O163 2.086 . S
Zn159 O168 1.977 . S
O160 Zn159 2.032 . S
O160 C164 1.278 . S
C161 O162 1.203 . S
C161 O168 1.267 . S
O162 C161 1.203 . S
O163 C156 1.185 . S
O163 Zn159 2.086 . S
C164 O160 1.278 . S
C164 O165 1.211 . S
O165 C164 1.211 . S
C166 O158 1.284 . S
C166 O167 1.273 . S
O167 C166 1.273 . S
O168 Zn159 1.977 . S
O168 C161 1.267 . S
C169 O170 1.160 . S
C169 O176 1.185 . S
O170 C169 1.160 . S
O171 Zn172 1.899 . S
O171 C179 1.284 . S
Zn172 O171 1.899 . S
Zn172 O173 2.032 . S
Zn172 O176 2.086 . S
Zn172 O181 1.977 . S
O173 Zn172 2.032 . S
O173 C177 1.278 . S
C174 O175 1.203 . S
C174 O181 1.267 . S
O175 C174 1.203 . S
O176 C169 1.185 . S
O176 Zn172 2.086 . S
C177 O173 1.278 . S
C177 O178 1.211 . S
O178 C177 1.211 . S
C179 O171 1.284 . S
C179 O180 1.273 . S
O180 C179 1.273 . S
O181 Zn172 1.977 . S
O181 C174 1.267 . S
C182 O183 1.160 . S
C182 O189 1.185 . S
O183 C182 1.160 . S
O184 Zn185 1.899 . S
O184 C192 1.284 . S
Zn185 O184 1.899 . S
Zn185 O186 2.032 . S
Zn185 O189 2.086 . S
Zn185 O194 1.977 . S
O186 Zn185 2.032 . S
O186 C190 1.278 . S
C187 O188 1.203 . S
C187 O194 1.267 . S
O188 C187 1.203 . S
O189 C182 1.185 . S
O189 Zn185 2.086 . S
C190 O186 1.278 . S
C190 O191 1.211 . S
O191 C190 1.211 . S
C192 O184 1.284 . S
C192 O193 1.273 . S
O193 C192 1.273 . S
O194 Zn185 1.977 . S
O194 C187 1.267 . S
C195 O196 1.160 . S
C195 O202 1.185 . S
O196 C195 1.160 . S
O197 Zn198 1.899 . S
O197 C205 1.284 . S
Zn198 O197 1.899 . S
Zn198 O199 2.032 . S
Zn198 O202 2.086 . S
Zn198 O207 1.977 . S
O199 Zn198 2.032 . S
O199 C203 1.278 . S
C200 O201 1.203 . S
C200 O207 1.267 . S
O201 C200 1.203 . S
O202 C195 1.185 . S
O202 Zn198 2.086 . S
C203 O199 1.278 . S
C203 O204 1.211 . S
O204 C203 1.211 . S
C205 O197 1.284 . S
C205 O206 1.273 . S
O206 C205 1.273 . S
O207 Zn198 1.977 . S
O207 C200 1.267 . S
C208 C209 1.387 1_556 S
C208 H212 0.950 . S
C208 C217 1.390 . S
C209 C208 1.387 1_554 S
C209 C211 1.387 . S
H210 C217 0.950 . S
C211 C209 1.387 . S
C211 C213 1.390 . S
C211 H215 0.950 . S
H212 C208 0.950 . S
C213 C211 1.390 . S
C213 C214 1.387 1_554 S
C213 H216 0.950 . S
C214 C213 1.387 1_556 S
C214 C217 1.387 . S
H215 C211 0.950 . S
H216 C213 0.950 . S
C217 C208 1.390 . S
C217 H210 0.950 . S
C217 C214 1.387 . S
C218 C219 1.387 . S
C218 H222 0.950 . S
C218 C227 1.390 . S
C219 C218 1.387 . S
C219 C221 1.387 . S
H220 C227 0.950 . S
C221 C219 1.387 . S
C221 C223 1.390 . S
C221 H225 0.950 . S
H222 C218 0.950 . S
C223 C221 1.390 . S
C223 C224 1.387 . S
C223 H226 0.950 . S
C224 C223 1.387 . S
C224 C227 1.387 . S
H225 C221 0.950 . S
H226 C223 0.950 . S
C227 C218 1.390 . S
C227 H220 0.950 . S
C227 C224 1.387 . S
C228 C229 1.387 . S
C228 H232 0.950 . S
C228 C237 1.390 1_556 S
C229 C228 1.387 . S
C229 C231 1.387 . S
H230 C237 0.950 . S
C231 C229 1.387 . S
C231 C233 1.390 1_556 S
C231 H235 0.950 . S
H232 C228 0.950 . S
C233 C231 1.390 1_554 S
C233 C234 1.387 . S
C233 H236 0.950 . S
C234 C233 1.387 . S
C234 C237 1.387 . S
H235 C231 0.950 . S
H236 C233 0.950 . S
C237 C228 1.390 1_554 S
C237 H230 0.950 . S
C237 C234 1.387 . S
C238 C239 1.387 . S
C238 H242 0.950 . S
C238 C247 1.390 . S
C239 C238 1.387 . S
C239 C241 1.387 . S
H240 C247 0.950 . S
C241 C239 1.387 . S
C241 C243 1.390 . S
C241 H245 0.950 . S
H242 C238 0.950 . S
C243 C241 1.390 . S
C243 C244 1.387 . S
C243 H246 0.950 . S
C244 C243 1.387 . S
C244 C247 1.387 . S
H245 C241 0.950 . S
H246 C243 0.950 . S
C247 C238 1.390 . S
C247 H240 0.950 . S
C247 C244 1.387 . S
C248 C249 1.387 1_556 S
C248 H252 0.950 . S
C248 C257 1.390 . S
C249 C248 1.387 1_554 S
C249 C251 1.387 . S
H250 C257 0.950 . S
C251 C249 1.387 . S
C251 C253 1.390 . S
C251 H255 0.950 . S
H252 C248 0.950 . S
C253 C251 1.390 . S
C253 C254 1.387 1_554 S
C253 H256 0.950 . S
C254 C253 1.387 1_556 S
C254 C257 1.387 . S
H255 C251 0.950 . S
H256 C253 0.950 . S
C257 C248 1.390 . S
C257 H250 0.950 . S
C257 C254 1.387 . S
C258 C259 1.387 . S
C258 H262 0.950 . S
C258 C267 1.390 . S
C259 C258 1.387 . S
C259 C261 1.387 . S
H260 C267 0.950 . S
C261 C259 1.387 . S
C261 C263 1.390 . S
C261 H265 0.950 . S
H262 C258 0.950 . S
C263 C261 1.390 . S
C263 C264 1.387 . S
C263 H266 0.950 . S
C264 C263 1.387 . S
C264 C267 1.387 . S
H265 C261 0.950 . S
H266 C263 0.950 . S
C267 C258 1.390 . S
C267 H260 0.950 . S
C267 C264 1.387 . S
C268 C269 1.387 . S
C268 H272 0.950 . S
C268 C277 1.390 1_556 S
C269 C268 1.387 . S
C269 C271 1.387 . S
H270 C277 0.950 . S
C271 C269 1.387 . S
C271 C273 1.390 1_556 S
C271 H275 0.950 . S
H272 C268 0.950 . S
C273 C271 1.390 1_554 S
C273 C274 1.387 . S
C273 H276 0.950 . S
C274 C273 1.387 . S
C274 C277 1.387 . S
H275 C271 0.950 . S
H276 C273 0.950 . S
C277 C268 1.390 1_554 S
C277 H270 0.950 . S
C277 C274 1.387 . S
C278 C279 1.387 . S
C278 H282 0.950 . S
C278 C287 1.390 . S
C279 C278 1.387 . S
C279 C281 1.387 . S
H280 C287 0.950 . S
C281 C279 1.387 . S
C281 C283 1.390 . S
C281 H285 0.950 . S
H282 C278 0.950 . S
C283 C281 1.390 . S
C283 C284 1.387 . S
C283 H286 0.950 . S
C284 C283 1.387 . S
C284 C287 1.387 . S
H285 C281 0.950 . S
H286 C283 0.950 . S
C287 C278 1.390 . S
C287 H280 0.950 . S
C287 C284 1.387 . S
C288 C289 1.387 . S
C288 H292 0.950 . S
C288 C297 1.390 1_544 S
C289 C288 1.387 . S
C289 C291 1.387 . S
H290 C297 0.950 . S
C291 C289 1.387 . S
C291 C293 1.390 1_544 S
C291 H295 0.950 . S
H292 C288 0.950 . S
C293 C291 1.390 1_566 S
C293 C294 1.387 . S
C293 H296 0.950 . S
C294 C293 1.387 . S
C294 C297 1.387 . S
H295 C291 0.950 . S
H296 C293 0.950 . S
C297 C288 1.390 1_566 S
C297 H290 0.950 . S
C297 C294 1.387 . S
C298 C299 1.387 . S
C298 H302 0.950 . S
C298 C307 1.390 1_565 S
C299 C298 1.387 . S
C299 C301 1.387 . S
H300 C307 0.950 . S
C301 C299 1.387 . S
C301 C303 1.390 1_565 S
C301 H305 0.950 . S
H302 C298 0.950 . S
C303 C301 1.390 1_545 S
C303 C304 1.387 . S
C303 H306 0.950 . S
C304 C303 1.387 . S
C304 C307 1.387 . S
H305 C301 0.950 . S
H306 C303 0.950 . S
C307 C298 1.390 1_545 S
C307 H300 0.950 . S
C307 C304 1.387 . S
C308 C309 1.387 . S
C308 H312 0.950 . S
C308 C317 1.390 1_566 S
C309 C308 1.387 . S
C309 C311 1.387 . S
H310 C317 0.950 . S
C311 C309 1.387 . S
C311 C313 1.390 1_566 S
C311 H315 0.950 . S
H312 C308 0.950 . S
C313 C311 1.390 1_544 S
C313 C314 1.387 . S
C313 H316 0.950 . S
C314 C313 1.387 . S
C314 C317 1.387 . S
H315 C311 0.950 . S
H316 C313 0.950 . S
C317 C308 1.390 1_544 S
C317 H310 0.950 . S
C317 C314 1.387 . S
C318 C319 1.387 . S
C318 H322 0.950 . S
C318 C327 1.390 1_545 S
C319 C318 1.387 . S
C319 C321 1.387 . S
H320 C327 0.950 . S
C321 C319 1.387 . S
C321 C323 1.390 1_545 S
C321 H325 0.950 . S
H322 C318 0.950 . S
C323 C321 1.390 1_565 S
C323 C324 1.387 . S
C323 H326 0.950 . S
C324 C323 1.387 . S
C324 C327 1.387 . S
H325 C321 0.950 . S
H326 C323 0.950 . S
C327 C318 1.390 1_565 S
C327 H320 0.950 . S
C327 C324 1.387 . S
C328 C329 1.387 . S
C328 H332 0.950 . S
C328 C337 1.390 1_556 S
C329 C328 1.387 . S
C329 C331 1.387 . S
H330 C337 0.950 . S
C331 C329 1.387 . S
C331 C333 1.390 1_556 S
C331 H335 0.950 . S
H332 C328 0.950 . S
C333 C331 1.390 1_554 S
C333 C334 1.387 . S
C333 H336 0.950 . S
C334 C333 1.387 . S
C334 C337 1.387 . S
H335 C331 0.950 . S
H336 C333 0.950 . S
C337 C328 1.390 1_554 S
C337 H330 0.950 . S
C337 C334 1.387 . S
C338 C339 1.387 . S
C338 H342 0.950 . S
C338 C347 1.390 . S
C339 C338 1.387 . S
C339 C341 1.387 . S
H340 C347 0.950 . S
C341 C339 1.387 . S
C341 C343 1.390 . S
C341 H345 0.950 . S
H342 C338 0.950 . S
C343 C341 1.390 . S
C343 C344 1.387 . S
C343 H346 0.950 . S
C344 C343 1.387 . S
C344 C347 1.387 . S
H345 C341 0.950 . S
H346 C343 0.950 . S
C347 C338 1.390 . S
C347 H340 0.950 . S
C347 C344 1.387 . S
C348 C349 1.387 . S
C348 H352 0.950 . S
C348 C357 1.390 1_554 S
C349 C348 1.387 . S
C349 C351 1.387 . S
H350 C357 0.950 . S
C351 C349 1.387 . S
C351 C353 1.390 1_554 S
C351 H355 0.950 . S
H352 C348 0.950 . S
C353 C351 1.390 1_556 S
C353 C354 1.387 . S
C353 H356 0.950 . S
C354 C353 1.387 . S
C354 C357 1.387 . S
H355 C351 0.950 . S
H356 C353 0.950 . S
C357 C348 1.390 1_556 S
C357 H350 0.950 . S
C357 C354 1.387 . S
C358 C359 1.387 . S
C358 H362 0.950 . S
C358 C367 1.390 . S
C359 C358 1.387 . S
C359 C361 1.387 . S
H360 C367 0.950 . S
C361 C359 1.387 . S
C361 C363 1.390 . S
C361 H365 0.950 . S
H362 C358 0.950 . S
C363 C361 1.390 . S
C363 C364 1.387 . S
C363 H366 0.950 . S
C364 C363 1.387 . S
C364 C367 1.387 . S
H365 C361 0.950 . S
H366 C363 0.950 . S
C367 C358 1.390 . S
C367 H360 0.950 . S
C367 C364 1.387 . S
C368 C369 1.387 . S
C368 H372 0.950 . S
C368 C377 1.390 . S
C369 C368 1.387 . S
C369 C371 1.387 . S
H370 C377 0.950 . S
C371 C369 1.387 . S
C371 C373 1.390 . S
C371 H375 0.950 . S
H372 C368 0.950 . S
C373 C371 1.390 . S
C373 C374 1.387 . S
C373 H376 0.950 . S
C374 C373 1.387 . S
C374 C377 1.387 . S
H375 C371 0.950 . S
H376 C373 0.950 . S
C377 C368 1.390 . S
C377 H370 0.950 . S
C377 C374 1.387 . S
C378 C379 1.387 . S
C378 H382 0.950 . S
C378 C387 1.390 1_655 S
C379 C378 1.387 . S
C379 C381 1.387 . S
H380 C387 0.950 . S
C381 C379 1.387 . S
C381 C383 1.390 1_655 S
C381 H385 0.950 . S
H382 C378 0.950 . S
C383 C381 1.390 1_455 S
C383 C384 1.387 . S
C383 H386 0.950 . S
C384 C383 1.387 . S
C384 C387 1.387 . S
H385 C381 0.950 . S
H386 C383 0.950 . S
C387 C378 1.390 1_455 S
C387 H380 0.950 . S
C387 C384 1.387 . S
C388 C389 1.387 . S
C388 H392 0.950 . S
C388 C397 1.390 . S
C389 C388 1.387 . S
C389 C391 1.387 . S
H390 C397 0.950 . S
C391 C389 1.387 . S
C391 C393 1.390 . S
C391 H395 0.950 . S
H392 C388 0.950 . S
C393 C391 1.390 . S
C393 C394 1.387 . S
C393 H396 0.950 . S
C394 C393 1.387 . S
C394 C397 1.387 . S
H395 C391 0.950 . S
H396 C393 0.950 . S
C397 C388 1.390 . S
C397 H390 0.950 . S
C397 C394 1.387 . S
C398 C399 1.387 . S
C398 H402 0.950 . S
C398 C407 1.390 1_455 S
C399 C398 1.387 . S
C399 C401 1.387 . S
H400 C407 0.950 . S
C401 C399 1.387 . S
C401 C403 1.390 1_455 S
C401 H405 0.950 . S
H402 C398 0.950 . S
C403 C401 1.390 1_655 S
C403 C404 1.387 . S
C403 H406 0.950 . S
C404 C403 1.387 . S
C404 C407 1.387 . S
H405 C401 0.950 . S
H406 C403 0.950 . S
C407 C398 1.390 1_655 S
C407 H400 0.950 . S
C407 C404 1.387 . S
C408 C409 1.387 . S
C408 H412 0.950 . S
C408 C417 1.390 1_455 S
C409 C408 1.387 . S
C409 C411 1.387 . S
H410 C417 0.950 . S
C411 C409 1.387 . S
C411 C413 1.390 1_455 S
C411 H415 0.950 . S
H412 C408 0.950 . S
C413 C411 1.390 1_655 S
C413 C414 1.387 . S
C413 H416 0.950 . S
C414 C413 1.387 . S
C414 C417 1.387 . S
H415 C411 0.950 . S
H416 C413 0.950 . S
C417 C408 1.390 1_655 S
C417 H410 0.950 . S
C417 C414 1.387 . S
C418 C419 1.387 . S
C418 H422 0.950 . S
C418 C427 1.390 . S
C419 C418 1.387 . S
C419 C421 1.387 . S
H420 C427 0.950 . S
C421 C419 1.387 . S
C421 C423 1.390 . S
C421 H425 0.950 . S
H422 C418 0.950 . S
C423 C421 1.390 . S
C423 C424 1.387 . S
C423 H426 0.950 . S
C424 C423 1.387 . S
C424 C427 1.387 . S
H425 C421 0.950 . S
H426 C423 0.950 . S
C427 C418 1.390 . S
C427 H420 0.950 . S
C427 C424 1.387 . S
C428 C429 1.387 . S
C428 H432 0.950 . S
C428 C437 1.390 1_455 S
C429 C428 1.387 . S
C429 C431 1.387 . S
H430 C437 0.950 . S
C431 C429 1.387 . S
C431 C433 1.390 1_455 S
C431 H435 0.950 . S
H432 C428 0.950 . S
C433 C431 1.390 1_655 S
C433 C434 1.387 . S
C433 H436 0.950 . S
C434 C433 1.387 . S
C434 C437 1.387 . S
H435 C431 0.950 . S
H436 C433 0.950 . S
C437 C428 1.390 1_655 S
C437 H430 0.950 . S
C437 C434 1.387 . S
C438 C439 1.387 . S
C438 H442 0.950 . S
C438 C447 1.390 . S
C439 C438 1.387 . S
C439 C441 1.387 . S
H440 C447 0.950 . S
C441 C439 1.387 . S
C441 C443 1.390 . S
C441 H445 0.950 . S
H442 C438 0.950 . S
C443 C441 1.390 . S
C443 C444 1.387 . S
C443 H446 0.950 . S
C444 C443 1.387 . S
C444 C447 1.387 . S
H445 C441 0.950 . S
H446 C443 0.950 . S
C447 C438 1.390 . S
C447 H440 0.950 . S
C447 C444 1.387 . S
C448 C449 1.387 . S
C448 H452 0.950 . S
C448 C457 1.390 . S
C449 C448 1.387 . S
C449 C451 1.387 . S
H450 C457 0.950 . S
C451 C449 1.387 . S
C451 C453 1.390 . S
C451 H455 0.950 . S
H452 C448 0.950 . S
C453 C451 1.390 . S
C453 C454 1.387 . S
C453 H456 0.950 . S
C454 C453 1.387 . S
C454 C457 1.387 . S
H455 C451 0.950 . S
H456 C453 0.950 . S
C457 C448 1.390 . S
C457 H450 0.950 . S
C457 C454 1.387 . S
C458 C459 1.387 . S
C458 H462 0.950 . S
C458 C467 1.390 . S
C459 C458 1.387 . S
C459 C461 1.387 . S
H460 C467 0.950 . S
C461 C459 1.387 . S
C461 C463 1.390 . S
C461 H465 0.950 . S
H462 C458 0.950 . S
C463 C461 1.390 . S
C463 C464 1.387 . S
C463 H466 0.950 . S
C464 C463 1.387 . S
C464 C467 1.387 . S
H465 C461 0.950 . S
H466 C463 0.950 . S
C467 C458 1.390 . S
C467 H460 0.950 . S
C467 C464 1.387 . S
C468 C469 1.387 . S
C468 H472 0.950 . S
C468 C477 1.390 . S
C469 C468 1.387 . S
C469 C471 1.387 . S
H470 C477 0.950 . S
C471 C469 1.387 . S
C471 C473 1.390 . S
C471 H475 0.950 . S
H472 C468 0.950 . S
C473 C471 1.390 . S
C473 C474 1.387 . S
C473 H476 0.950 . S
C474 C473 1.387 . S
C474 C477 1.387 . S
H475 C471 0.950 . S
H476 C473 0.950 . S
C477 C468 1.390 . S
C477 H470 0.950 . S
C477 C474 1.387 . S
C478 C479 1.387 . S
C478 H482 0.950 . S
C478 C487 1.390 . S
C479 C478 1.387 . S
C479 C481 1.387 . S
H480 C487 0.950 . S
C481 C479 1.387 . S
C481 C483 1.390 . S
C481 H485 0.950 . S
H482 C478 0.950 . S
C483 C481 1.390 . S
C483 C484 1.387 . S
C483 H486 0.950 . S
C484 C483 1.387 . S
C484 C487 1.387 . S
H485 C481 0.950 . S
H486 C483 0.950 . S
C487 C478 1.390 . S
C487 H480 0.950 . S
C487 C484 1.387 . S
C488 C489 1.387 . S
C488 H492 0.950 . S
C488 C497 1.390 . S
C489 C488 1.387 . S
C489 C491 1.387 . S
H490 C497 0.950 . S
C491 C489 1.387 . S
C491 C493 1.390 . S
C491 H495 0.950 . S
H492 C488 0.950 . S
C493 C491 1.390 . S
C493 C494 1.387 . S
C493 H496 0.950 . S
C494 C493 1.387 . S
C494 C497 1.387 . S
H495 C491 0.950 . S
H496 C493 0.950 . S
C497 C488 1.390 . S
C497 H490 0.950 . S
C497 C494 1.387 . S
C498 C499 1.387 . S
C498 H502 0.950 . S
C498 C507 1.390 . S
C499 C498 1.387 . S
C499 C501 1.387 . S
H500 C507 0.950 . S
C501 C499 1.387 . S
C501 C503 1.390 . S
C501 H505 0.950 . S
H502 C498 0.950 . S
C503 C501 1.390 . S
C503 C504 1.387 . S
C503 H506 0.950 . S
C504 C503 1.387 . S
C504 C507 1.387 . S
H505 C501 0.950 . S
H506 C503 0.950 . S
C507 C498 1.390 . S
C507 H500 0.950 . S
C507 C504 1.387 . S
C508 C509 1.387 . S
C508 H512 0.950 . S
C508 C517 1.390 . S
C509 C508 1.387 . S
C509 C511 1.387 . S
H510 C517 0.950 . S
C511 C509 1.387 . S
C511 C513 1.390 . S
C511 H515 0.950 . S
H512 C508 0.950 . S
C513 C511 1.390 . S
C513 C514 1.387 . S
C513 H516 0.950 . S
C514 C513 1.387 . S
C514 C517 1.387 . S
H515 C511 0.950 . S
H516 C513 0.950 . S
C517 C508 1.390 . S
C517 H510 0.950 . S
C517 C514 1.387 . S
C518 C519 1.387 . S
C518 H522 0.950 . S
C518 C527 1.390 . S
C519 C518 1.387 . S
C519 C521 1.387 . S
H520 C527 0.950 . S
C521 C519 1.387 . S
C521 C523 1.390 . S
C521 H525 0.950 . S
H522 C518 0.950 . S
C523 C521 1.390 . S
C523 C524 1.387 . S
C523 H526 0.950 . S
C524 C523 1.387 . S
C524 C527 1.387 . S
H525 C521 0.950 . S
H526 C523 0.950 . S
C527 C518 1.390 . S
C527 H520 0.950 . S
C527 C524 1.387 . S
C209 C0 1.419 . S
C214 C164 1.427 . S
C219 C177 1.426 . S
C224 C13 1.421 . S
C229 C26 1.419 . S
C234 C190 1.428 . S
C239 C203 1.426 . S
C244 C39 1.421 . S
C249 C104 1.418 . S
C254 C60 1.427 . S
C259 C73 1.426 . S
C264 C117 1.420 . S
C269 C130 1.419 . S
C274 C86 1.425 . S
C279 C99 1.428 . S
C284 C143 1.420 . S
C289 C5 1.542 . S
C294 C31 1.542 . S
C299 C18 1.542 . S
C304 C44 1.542 . S
C309 C57 1.395 . S
C314 C83 1.395 . S
C319 C70 1.395 . S
C324 C96 1.395 . S
C329 C135 1.542 . S
C334 C109 1.542 . S
C339 C122 1.542 . S
C344 C148 1.542 . S
C349 C187 1.395 . S
C354 C161 1.395 . S
C359 C174 1.395 . S
C364 C200 1.395 . S
C369 C88 1.472 . S
C374 C10 1.472 . S
C379 C101 1.473 . S
C384 C23 1.473 . S
C389 C36 1.473 . S
C394 C62 1.473 . S
C399 C49 1.473 . S
C404 C75 1.473 . S
C409 C192 1.472 . S
C414 C114 1.472 . S
C419 C127 1.472 . S
C424 C205 1.472 . S
C429 C166 1.473 . S
C434 C140 1.473 . S
C439 C153 1.472 . S
C444 C179 1.472 . S
C449 C8 1.552 . S
C454 C47 1.552 . S
C459 C34 1.552 . S
C464 C21 1.552 . S
C469 C52 1.313 . S
C474 C91 1.313 . S
C479 C65 1.315 . S
C484 C78 1.315 . S
C489 C151 1.552 . S
C494 C112 1.552 . S
C499 C125 1.552 . S
C504 C138 1.552 . S
C509 C195 1.315 . S
C514 C156 1.315 . S
C519 C169 1.315 . S
C524 C182 1.315 . S
