# Generated by pormake.
# Topology afw, (4)-cn, num edge types: 1
# Building blocks:
#     Node 0, Type 0, BuildingBlock: UXUYUI_clean_sbu_0, # of connection points: 4
#     Node 1, Type 0, BuildingBlock: UXUYUI_clean_sbu_0, # of connection points: 4
#     Node 2, Type 0, BuildingBlock: UXUYUI_clean_sbu_0, # of connection points: 4
#     Node 3, Type 0, BuildingBlock: UXUYUI_clean_sbu_0, # of connection points: 4
#     Node 4, Type 0, BuildingBlock: UXUYUI_clean_sbu_0, # of connection points: 4
#     Node 5, Type 0, BuildingBlock: UXUYUI_clean_sbu_0, # of connection points: 4
#     Node 6, Type 0, BuildingBlock: UXUYUI_clean_sbu_0, # of connection points: 4
#     Node 7, Type 0, BuildingBlock: UXUYUI_clean_sbu_0, # of connection points: 4
#     Node 8, Type 0, BuildingBlock: UXUYUI_clean_sbu_0, # of connection points: 4
#     Edge 9, Type (0, 0), BuildingBlock: OJICUG_clean_linker_0, # of connection points: 2
#     Edge 10, Type (0, 0), BuildingBlock: OJICUG_clean_linker_0, # of connection points: 2
#     Edge 11, Type (0, 0), BuildingBlock: OJICUG_clean_linker_0, # of connection points: 2
#     Edge 12, Type (0, 0), BuildingBlock: OJICUG_clean_linker_0, # of connection points: 2
#     Edge 13, Type (0, 0), BuildingBlock: OJICUG_clean_linker_0, # of connection points: 2
#     Edge 14, Type (0, 0), BuildingBlock: OJICUG_clean_linker_0, # of connection points: 2
#     Edge 15, Type (0, 0), BuildingBlock: OJICUG_clean_linker_0, # of connection points: 2
#     Edge 16, Type (0, 0), BuildingBlock: OJICUG_clean_linker_0, # of connection points: 2
#     Edge 17, Type (0, 0), BuildingBlock: OJICUG_clean_linker_0, # of connection points: 2
#     Edge 18, Type (0, 0), BuildingBlock: OJICUG_clean_linker_0, # of connection points: 2
#     Edge 19, Type (0, 0), BuildingBlock: OJICUG_clean_linker_0, # of connection points: 2
#     Edge 20, Type (0, 0), BuildingBlock: OJICUG_clean_linker_0, # of connection points: 2
#     Edge 21, Type (0, 0), BuildingBlock: OJICUG_clean_linker_0, # of connection points: 2
#     Edge 22, Type (0, 0), BuildingBlock: OJICUG_clean_linker_0, # of connection points: 2
#     Edge 23, Type (0, 0), BuildingBlock: OJICUG_clean_linker_0, # of connection points: 2
#     Edge 24, Type (0, 0), BuildingBlock: OJICUG_clean_linker_0, # of connection points: 2
#     Edge 25, Type (0, 0), BuildingBlock: OJICUG_clean_linker_0, # of connection points: 2
#     Edge 26, Type (0, 0), BuildingBlock: OJICUG_clean_linker_0, # of connection points: 2
# Relax obj value: 0.350
# Max RMSD: 0.270
# Mean RMSD: 0.270
data_MOF--net-afw--node1-UXUYUI_clean_sbu_0--edge1-OJICUG_clean_linker_0
_symmetry_space_group_name_H-M    P1
_symmetry_Int_Tables_number       1
_symmetry_cell_setting            triclinic
loop_
_symmetry_equiv_pos_as_xyz
'x, y, z'
_cell_length_a     47.285614
_cell_length_b     47.193183
_cell_length_c     44.178887
_cell_angle_alpha  90.023973
_cell_angle_beta   89.993793
_cell_angle_gamma 120.03171
loop_
_atom_site_label
_atom_site_type_symbol
_atom_site_fract_x
_atom_site_fract_y
_atom_site_fract_z
_atom_type_partial_charge
Li0 Li 0.0083 0.23579 0.02805 0.0
Li1 Li 0.97311 0.18696 -0.00125 0.0
Li2 Li 0.03263 0.20885 0.00184 0.0
Li3 Li 0.00999 0.23731 0.97274 0.0
C4 C 0.00837 0.17139 0.0501 0.0
N5 N 0.02717 0.1316 0.07922 0.0
C6 C 0.98949 0.13735 0.04741 0.0
C7 C 0.03677 0.18515 0.06769 0.0
C8 C -0.0006 0.11767 0.06232 0.0
C9 C 0.04589 0.16464 0.08217 0.0
C10 C 0.9409 0.21896 0.00151 0.0
C11 C 0.88818 0.19978 0.97848 0.0
N12 N 0.87466 0.19579 0.00645 0.0
C13 C 0.92656 0.21486 0.03002 0.0
C14 C 0.92166 0.21156 0.97551 0.0
C15 C 0.893 0.20305 0.03205 0.0
C16 C 0.00445 0.28489 0.06162 0.0
N17 N 0.00864 0.25847 0.06356 0.0
C18 C 0.00446 0.258 0.11737 0.0
C19 C 0.00927 0.24528 0.09069 0.0
C20 C -0.00133 0.28438 0.11606 0.0
C21 C -0.00039 0.2985 0.08783 0.0
H22 H 0.00334 0.29439 0.03965 0.0
H23 H 0.01199 0.22393 0.09157 0.0
C24 C 0.92263 0.12794 0.97369 0.0
N25 N 0.93214 0.1475 -0.00145 0.0
C26 C 0.896 0.09623 0.97525 0.0
C27 C 0.88851 0.10589 0.0276 0.0
C28 C 0.91521 0.13751 0.02498 0.0
C29 C 0.8793 0.08447 0.00278 0.0
H30 H 0.93685 0.1361 0.95319 0.0
H31 H 0.92374 0.15337 0.04457 0.0
C32 C 0.06518 0.28536 0.01541 0.0
N33 N 0.0989 0.3445 0.04538 0.0
C34 C 0.06419 0.31271 0.00471 0.0
C35 C 0.08347 0.2881 0.04122 0.0
C36 C 0.08139 0.3424 0.02021 0.0
C37 C 0.10029 0.31821 0.0561 0.0
C38 C 0.00342 0.18709 0.93589 0.0
C39 C 0.02767 0.18219 0.92309 0.0
C40 C 0.97946 0.18709 0.91735 0.0
C41 C 0.02761 0.17748 0.89186 0.0
C42 C 0.98026 0.18232 0.88623 0.0
N43 N 0.00412 0.17767 0.87423 0.0
C44 C 0.05695 0.16546 -0.00039 0.0
C45 C 0.09788 0.22147 0.00263 0.0
C46 C 0.08057 0.15607 1e-05 0.0
N47 N 0.06592 0.19762 0.00154 0.0
C48 C 0.12242 0.21319 0.00235 0.0
C49 C 0.11367 0.18011 0.00142 0.0
H50 H 0.0314 0.14711 -0.00217 0.0
H51 H 0.10429 0.24689 0.00361 0.0
C52 C 0.0035 0.28195 0.93374 0.0
N53 N 0.01785 0.26349 0.93792 0.0
C54 C 0.01196 0.30285 0.90874 0.0
C55 C 0.04827 0.28373 0.89226 0.0
C56 C 0.04021 0.26445 0.91809 0.0
C57 C 0.03485 0.30411 0.88752 0.0
H58 H 0.98627 0.28118 0.95029 0.0
H59 H 0.05205 0.25036 0.92247 0.0
O60 O -0.00072 0.19114 0.03542 0.0
O61 O 0.9736 0.22999 -0.00095 0.0
O62 O 0.04794 0.25592 0.00095 0.0
O63 O 0.00338 0.19215 0.96638 0.0
H64 H 0.96766 0.12619 0.03366 0.0
H65 H 0.05187 0.21142 0.06979 0.0
H66 H 0.98508 0.09131 0.06033 0.0
H67 H 0.06791 0.17499 0.09568 0.0
H68 H 0.87294 0.19383 0.95856 0.0
H69 H 0.94109 0.22036 0.05039 0.0
H70 H 0.93246 0.21484 0.95327 0.0
H71 H 0.88152 0.19956 0.05397 0.0
H72 H 0.00412 0.24658 0.13874 0.0
H73 H -0.00518 0.3186 0.08588 0.0
H74 H 0.89012 0.08036 0.95572 0.0
H75 H 0.87623 0.09777 0.04921 0.0
H76 H 0.05008 0.31098 0.98482 0.0
H77 H 0.08445 0.26715 0.04979 0.0
H78 H 0.08073 0.36374 0.01227 0.0
H79 H 0.11441 0.32066 0.07619 0.0
H80 H 0.04647 0.18224 0.93709 0.0
H81 H 0.96063 0.191 0.92689 0.0
H82 H 0.04628 0.17375 0.88162 0.0
H83 H 0.96195 0.1824 0.8716 0.0
H84 H 0.07313 0.13033 -0.00114 0.0
H85 H 0.14783 0.23227 0.00329 0.0
H86 H 0.0013 0.31838 0.90667 0.0
H87 H 0.06516 0.28269 0.87642 0.0
Li88 Li 0.8325 0.81547 0.00231 0.0
Li89 Li 0.7805 0.78882 0.03142 0.0
Li90 Li 0.78114 0.79189 0.97509 0.0
Li91 Li 0.79782 0.83949 0.00479 0.0
C92 C 0.8057 0.74943 0.98544 0.0
N93 N 0.82241 0.71015 0.95259 0.0
C94 C 0.79611 0.7178 0.99544 0.0
C95 C 0.82379 0.7611 0.95878 0.0
C96 C 0.8048 0.6983 0.9785 0.0
C97 C 0.83199 0.74088 0.94247 0.0
C98 C 0.82839 0.84884 0.06461 0.0
C99 C 0.81365 0.86127 0.11308 0.0
N100 N 0.84555 0.88367 0.11827 0.0
C101 C 0.86109 0.87171 0.07061 0.0
C102 C 0.80452 0.84331 0.08617 0.0
C103 C 0.86924 0.88919 0.09779 0.0
C104 C 0.89553 0.8326 0.97932 0.0
N105 N 0.87566 0.82276 0.00396 0.0
C106 C 0.91884 0.82746 0.03541 0.0
C107 C 0.88636 0.81931 0.03148 0.0
C108 C 0.94042 0.83925 0.01072 0.0
C109 C 0.92821 0.84107 0.98222 0.0
H110 H 0.88636 0.83487 0.9576 0.0
H111 H 0.86984 0.81115 0.05059 0.0
C112 C 0.72889 0.74238 0.06861 0.0
N113 N 0.7616 0.76284 0.06577 0.0
C114 C 0.71649 0.7221 0.09397 0.0
C115 C 0.77167 0.74537 0.11308 0.0
C116 C 0.78295 0.76465 0.08724 0.0
C117 C 0.73808 0.72322 0.11649 0.0
H118 H 0.7126 0.74133 0.05089 0.0
H119 H 0.80887 0.781 0.08411 0.0
C120 C 0.84728 0.86423 0.96036 0.0
N121 N 0.9015 0.92298 0.94437 0.0
C122 C 0.86671 0.8865 0.98268 0.0
C123 C 0.85544 0.87191 0.92988 0.0
C124 C 0.894 0.91605 0.97416 0.0
C125 C 0.88295 0.90171 0.92226 0.0
C126 C 0.73493 0.81364 0.00412 0.0
C127 C 0.72851 0.82422 0.97678 0.0
C128 C 0.72278 0.81867 0.03118 0.0
C129 C 0.71026 0.84008 0.97702 0.0
C130 C 0.70462 0.83462 0.03046 0.0
N131 N 0.69882 0.84493 0.00363 0.0
C132 C 0.72679 0.74639 0.94167 0.0
C133 C 0.77481 0.77854 0.91289 0.0
C134 C 0.70895 0.73206 0.91537 0.0
N135 N 0.75891 0.76951 0.93983 0.0
C136 C 0.75799 0.76483 0.88607 0.0
C137 C 0.72444 0.74184 0.88706 0.0
H138 H 0.71483 0.73998 0.9635 0.0
H139 H 0.80036 0.79702 0.9122 0.0
C140 C 0.79477 0.89313 0.03255 0.0
N141 N 0.79794 0.8804 0.00601 0.0
C142 C 0.80019 0.92501 0.03369 0.0
C143 C 0.80904 0.92914 0.97967 0.0
C144 C 0.80306 0.89705 0.97958 0.0
C145 C 0.80895 0.94401 0.00721 0.0
H146 H 0.78877 0.87895 0.05301 0.0
H147 H 0.80394 0.88595 0.95848 0.0
O148 O 0.79733 0.76874 0.00179 0.0
O149 O 0.82011 0.83083 0.03845 0.0
O150 O 0.82044 0.835 0.96808 0.0
O151 O 0.75344 0.79886 0.00441 0.0
H152 H 0.78209 0.70843 0.01607 0.0
H153 H 0.83139 0.7855 0.95074 0.0
H154 H 0.79754 0.67376 0.98595 0.0
H155 H 0.84598 0.74961 0.92178 0.0
H156 H 0.79537 0.8574 0.12983 0.0
H157 H 0.88006 0.87585 0.05455 0.0
H158 H 0.77911 0.82565 0.08201 0.0
H159 H 0.89443 0.90704 0.10265 0.0
H160 H 0.92713 0.82527 0.05768 0.0
H161 H 0.94404 0.85038 0.96263 0.0
H162 H 0.69049 0.70514 0.09546 0.0
H163 H 0.78919 0.74768 0.13008 0.0
H164 H 0.86066 0.8812 0.00627 0.0
H165 H 0.84068 0.85505 0.91226 0.0
H166 H 0.90918 0.93349 0.99124 0.0
H167 H 0.88954 0.90793 0.89875 0.0
H168 H 0.73787 0.82054 0.95567 0.0
H169 H 0.72755 0.81056 0.0525 0.0
H170 H 0.70527 0.84861 0.95607 0.0
H171 H 0.6952 0.83886 0.05124 0.0
H172 H 0.68304 0.71473 0.91709 0.0
H173 H 0.7709 0.77275 0.86473 0.0
H174 H 0.79868 0.93504 0.05529 0.0
H175 H 0.81556 0.94264 0.9586 0.0
Li176 Li 0.22441 0.04381 -0.00102 0.0
Li177 Li 0.2455 0.01782 0.03229 0.0
Li178 Li 0.23933 0.0069 0.97625 0.0
Li179 Li 0.1913 0.98405 0.00904 0.0
C180 C 0.28659 0.08146 0.99272 0.0
N181 N 0.32116 0.14812 0.98226 0.0
C182 C 0.30104 0.10324 0.01681 0.0
C183 C 0.29006 0.09356 0.96327 0.0
C184 C 0.31833 0.13686 0.01108 0.0
C185 C 0.30753 0.12734 0.95846 0.0
C186 C 0.19406 0.01479 0.06697 0.0
C187 C 0.17041 0.97751 0.10899 0.0
N188 N 0.16999 0.00164 0.12546 0.0
C189 C 0.19296 0.03909 0.08421 0.0
C190 C 0.18235 0.98367 0.07938 0.0
C191 C 0.18089 0.03202 0.11377 0.0
C192 C 0.20466 0.08454 0.9701 0.0
N193 N 0.22001 0.0814 0.99479 0.0
C194 C 0.21663 0.12419 0.02033 0.0
C195 C 0.22724 0.10143 0.01917 0.0
C196 C 0.19883 0.12646 0.99597 0.0
C197 C 0.19408 0.10734 0.97008 0.0
H198 H 0.19863 0.06789 0.95129 0.0
H199 H 0.23943 0.09829 0.03848 0.0
C200 C 0.28862 0.00904 0.07114 0.0
N201 N 0.27164 0.02499 0.06701 0.0
C202 C 0.30868 0.01583 0.09651 0.0
C203 C 0.29377 0.05569 0.11235 0.0
C204 C 0.27384 0.04792 0.08695 0.0
C205 C 0.31165 0.03971 0.11726 0.0
H206 H 0.2869 0.99139 0.05456 0.0
H207 H 0.2607 0.06078 0.08272 0.0
C208 C 0.18892 -0.00033 0.94106 0.0
N209 N 0.17055 0.98252 0.88145 0.0
C210 C 0.1615 0.96951 0.93409 0.0
C211 C 0.20676 0.02125 0.91771 0.0
C212 C 0.15266 0.96126 0.90381 0.0
C213 C 0.19716 0.01208 0.88772 0.0
C214 C 0.22004 0.94417 0.01896 0.0
C215 C 0.21374 0.92035 -0.00298 0.0
C216 C 0.21891 0.93618 0.04959 0.0
C217 C 0.20555 0.88879 0.00607 0.0
C218 C 0.21064 0.90435 0.05774 0.0
N219 N 0.20414 0.88149 0.036 0.0
C220 C 0.28913 0.01748 0.93414 0.0
C221 C 0.23742 0.97057 0.92522 0.0
C222 C 0.30226 0.01017 0.90896 0.0
N223 N 0.25723 -0.00231 0.94169 0.0
C224 C 0.24943 0.96237 0.89999 0.0
C225 C 0.28232 0.98211 0.89169 0.0
H226 H 0.30444 0.03874 0.94783 0.0
H227 H 0.2122 0.95517 0.93171 0.0
C228 C 0.12735 0.9622 0.02262 0.0
N229 N 0.14727 0.95049 0.01448 0.0
C230 C 0.09387 0.94116 0.02537 0.0
C231 C 0.10171 0.89612 0.01097 0.0
C232 C 0.13527 0.91812 0.00877 0.0
C233 C 0.0806 0.9077 0.01923 0.0
H234 H 0.13748 0.98817 0.02627 0.0
H235 H 0.15143 0.90948 0.00161 0.0
O236 O 0.26895 0.04848 -0.00205 0.0
O237 O 0.20585 0.02135 0.03793 0.0
O238 O 0.19805 0.00806 0.9706 0.0
O239 O 0.22856 0.97538 0.01042 0.0
H240 H 0.29875 0.09434 0.03971 0.0
H241 H 0.27936 0.07706 0.94434 0.0
H242 H 0.32946 0.154 0.02954 0.0
H243 H 0.31027 0.13704 0.93579 0.0
H244 H 0.16131 0.9535 0.11881 0.0
H245 H 0.2014 0.0632 0.07497 0.0
H246 H 0.18191 0.96428 0.06614 0.0
H247 H 0.18012 0.05068 0.12739 0.0
H248 H 0.22077 0.13862 0.04065 0.0
H249 H 0.18006 0.10812 0.95103 0.0
H250 H 0.32243 0.00331 0.09941 0.0
H251 H 0.29534 0.07417 0.12792 0.0
H252 H 0.14725 0.95256 0.95181 0.0
H253 H 0.22791 0.04473 0.92265 0.0
H254 H 0.13158 0.93793 0.8981 0.0
H255 H 0.21089 0.02847 0.86943 0.0
H256 H 0.21489 0.92601 0.97326 0.0
H257 H 0.22461 0.95435 0.06698 0.0
H258 H 0.20036 0.87011 0.98929 0.0
H259 H 0.20955 0.89787 0.08137 0.0
H260 H 0.32782 0.02588 0.90346 0.0
H261 H 0.23304 0.94083 0.88702 0.0
H262 H 0.07841 0.95124 0.0311 0.0
H263 H 0.09234 0.87049 0.00591 0.0
Li264 Li 0.63851 0.52156 0.33351 0.0
Li265 Li 0.67189 0.5699 0.36367 0.0
Li266 Li 0.6722 0.57145 0.30553 0.0
Li267 Li 0.69608 0.54438 0.334 0.0
C268 C 0.60353 0.55018 0.33469 0.0
N269 N 0.53645 0.52242 0.33509 0.0
C270 C 0.58629 0.53944 0.36189 0.0
C271 C 0.58678 0.54709 0.30773 0.0
C272 C 0.55234 0.52538 0.3616 0.0
C273 C 0.55282 0.53293 0.30841 0.0
C274 C 0.6685 0.50023 0.38005 0.0
C275 C 0.6818 0.47434 0.42028 0.0
N276 N 0.67399 0.44833 0.40187 0.0
C277 C 0.66064 0.47325 0.36156 0.0
C278 C 0.67918 0.50083 0.40967 0.0
C279 C 0.66355 0.44725 0.37299 0.0
C280 C 0.57818 0.47029 0.30856 0.0
N281 N 0.59693 0.48166 0.33388 0.0
C282 C 0.56099 0.43251 0.36048 0.0
C283 C 0.58769 0.46422 0.36008 0.0
C284 C 0.54319 0.41885 0.33376 0.0
C285 C 0.55116 0.43873 0.30793 0.0
H286 H 0.58455 0.48528 0.28858 0.0
H287 H 0.60195 0.47431 0.3804 0.0
C288 C 0.68383 0.62519 0.3977 0.0
N289 N 0.67357 0.5927 0.39899 0.0
C290 C 0.6822 0.64148 0.42346 0.0
C291 C 0.66062 0.59069 0.45135 0.0
C292 C 0.66237 0.57537 0.42505 0.0
C293 C 0.67008 0.62403 0.45061 0.0
H294 H 0.69241 0.63817 0.37648 0.0
H295 H 0.65377 0.54941 0.4251 0.0
C296 C 0.65336 0.50666 0.27544 0.0
N297 N 0.62583 0.46321 0.22786 0.0
C298 C 0.65773 0.47954 0.27313 0.0
C299 C 0.63549 0.51198 0.2532 0.0
C300 C 0.64347 0.45777 0.24901 0.0
C301 C 0.62162 0.48965 0.22942 0.0
C302 C 0.7422 0.60521 0.33801 0.0
C303 C 0.76184 0.61331 0.31222 0.0
C304 C 0.7563 0.60996 0.36671 0.0
C305 C 0.79541 0.62584 0.31558 0.0
C306 C 0.78998 0.62258 0.36911 0.0
N307 N 0.80866 0.63016 0.34371 0.0
C308 C 0.67022 0.62065 0.26994 0.0
C309 C 0.69368 0.59155 0.24745 0.0
C310 C 0.67782 0.64061 0.24437 0.0
N311 N 0.67852 0.59696 0.27096 0.0
C312 C 0.70115 0.6104 0.22136 0.0
C313 C 0.6939 0.63583 0.21977 0.0
H314 H 0.65849 0.62453 0.28925 0.0
H315 H 0.70031 0.57276 0.24916 0.0
C316 C 0.74595 0.53274 0.35699 0.0
N317 N 0.73111 0.53561 0.33178 0.0
C318 C 0.76943 0.52319 0.35452 0.0
C319 C 0.76366 0.52227 0.3001 0.0
C320 C 0.7401 0.5315 0.30366 0.0
C321 C 0.77797 0.51702 0.32578 0.0
H322 H 0.73902 0.53709 0.37905 0.0
H323 H 0.72845 0.53479 0.28398 0.0
O324 O 0.63664 0.56328 0.3344 0.0
O325 O 0.66622 0.52617 0.36912 0.0
O326 O 0.66779 0.52866 0.29855 0.0
O327 O 0.7092 0.59202 0.33521 0.0
H328 H 0.599 0.54162 0.38291 0.0
H329 H 0.59985 0.55529 0.28651 0.0
H330 H 0.53862 0.51674 0.38244 0.0
H331 H 0.53946 0.53019 0.28771 0.0
H332 H 0.69011 0.4745 0.44312 0.0
H333 H 0.65216 0.47234 0.33871 0.0
H334 H 0.68571 0.52166 0.42421 0.0
H335 H 0.65748 0.4262 0.35891 0.0
H336 H 0.55575 0.41823 0.38102 0.0
H337 H 0.53744 0.42957 0.28711 0.0
H338 H 0.6897 0.66721 0.42205 0.0
H339 H 0.65051 0.57624 0.47167 0.0
H340 H 0.67224 0.47546 0.28959 0.0
H341 H 0.6318 0.53278 0.25458 0.0
H342 H 0.64656 0.43664 0.24703 0.0
H343 H 0.60745 0.49331 0.21225 0.0
H344 H 0.7512 0.60961 0.28986 0.0
H345 H 0.74133 0.60361 0.38687 0.0
H346 H 0.81092 0.63206 0.29583 0.0
H347 H 0.80124 0.62623 0.39116 0.0
H348 H 0.67213 0.66016 0.24433 0.0
H349 H 0.71287 0.60529 0.20279 0.0
H350 H 0.77968 0.51935 0.37497 0.0
H351 H 0.77005 0.51858 0.27748 0.0
Li352 Li 0.50595 0.15474 0.33519 0.0
Li353 Li 0.45519 0.12675 0.36496 0.0
Li354 Li 0.45443 0.12791 0.30962 0.0
Li355 Li 0.46857 0.177 0.33869 0.0
C356 C 0.46165 0.07832 0.32208 0.0
N357 N 0.43588 0.01925 0.29191 0.0
C358 C 0.43329 0.05103 0.3328 0.0
C359 C 0.47704 0.07555 0.29616 0.0
C360 C 0.42062 0.02138 0.3172 0.0
C361 C 0.46357 0.04549 0.28118 0.0
C362 C 0.50007 0.17756 0.40108 0.0
C363 C 0.48333 0.18348 0.45115 0.0
N364 N 0.51219 0.18832 0.4624 0.0
C365 C 0.52959 0.18265 0.41312 0.0
C366 C 0.47675 0.17803 0.42021 0.0
C367 C 0.53525 0.18805 0.44419 0.0
C368 C 0.57404 0.19731 0.33595 0.0
N369 N 0.55027 0.16531 0.33511 0.0
C370 C 0.59012 0.14827 0.33549 0.0
C371 C 0.55757 0.14085 0.33511 0.0
C372 C 0.61504 0.18112 0.33539 0.0
C373 C 0.60682 0.20583 0.3356 0.0
H374 H 0.5675 0.2162 0.33694 0.0
H375 H 0.53812 0.1156 0.33502 0.0
C376 C 0.40426 0.08285 0.4043 0.0
N377 N 0.43706 0.1012 0.40014 0.0
C378 C 0.39176 0.06302 0.42995 0.0
C379 C 0.44709 0.08295 0.44706 0.0
C380 C 0.45838 0.10099 0.42053 0.0
C381 C 0.41329 0.06283 0.45195 0.0
H382 H 0.38785 0.083 0.38731 0.0
H383 H 0.48431 0.1149 0.4162 0.0
C384 C 0.51869 0.19248 0.28697 0.0
N385 N 0.57676 0.23283 0.25737 0.0
C386 C 0.53329 0.22649 0.28946 0.0
C387 C 0.53361 0.17902 0.26933 0.0
C388 C 0.56264 0.24646 0.27432 0.0
C389 C 0.56298 0.19982 0.2546 0.0
C390 C 0.40417 0.14495 0.337 0.0
C391 C 0.39289 0.14843 0.30879 0.0
C392 C 0.39316 0.15279 0.36332 0.0
C393 C 0.37096 0.16008 0.30736 0.0
C394 C 0.37125 0.16439 0.36094 0.0
N395 N 0.36071 0.16778 0.33324 0.0
C396 C 0.40103 0.07894 0.2764 0.0
C397 C 0.44579 0.11765 0.24711 0.0
C398 C 0.38261 0.06509 0.25024 0.0
N399 N 0.4318 0.10504 0.27432 0.0
C400 C 0.4283 0.10467 0.22046 0.0
C401 C 0.396 0.07862 0.22189 0.0
H402 H 0.39033 0.06985 0.29843 0.0
H403 H 0.47002 0.13871 0.24611 0.0
C404 C 0.47799 0.23607 0.36407 0.0
N405 N 0.46692 0.2164 0.33932 0.0
C406 C 0.48213 0.26743 0.3632 0.0
C407 C 0.46219 0.25736 0.31169 0.0
C408 C 0.45833 0.22608 0.31362 0.0
C409 C 0.47517 0.27882 0.33644 0.0
H410 H 0.48542 0.22823 0.38393 0.0
H411 H 0.45023 0.21018 0.29404 0.0
O412 O 0.474 0.10773 0.33662 0.0
O413 O 0.49398 0.17181 0.37076 0.0
O414 O 0.49006 0.17247 0.30179 0.0
O415 O 0.426 0.13407 0.33886 0.0
H416 H 0.42104 0.0528 0.35278 0.0
H417 H 0.49897 0.09648 0.28756 0.0
H418 H 0.3986 8e-05 0.32515 0.0
H419 H 0.47511 0.04302 0.26099 0.0
H420 H 0.46545 0.18378 0.46622 0.0
H421 H 0.54786 0.18224 0.39867 0.0
H422 H 0.45372 0.17396 0.41127 0.0
H423 H 0.55795 0.19194 0.45384 0.0
H424 H 0.59579 0.1287 0.33553 0.0
H425 H 0.62559 0.23142 0.33599 0.0
H426 H 0.36557 0.04758 0.43198 0.0
H427 H 0.46503 0.08487 0.46334 0.0
H428 H 0.52236 0.23742 0.30318 0.0
H429 H 0.52286 0.15278 0.26737 0.0
H430 H 0.57425 0.2728 0.27614 0.0
H431 H 0.57487 0.18972 0.24105 0.0
H432 H 0.40127 0.14258 0.28819 0.0
H433 H 0.40148 0.14999 0.38532 0.0
H434 H 0.36218 0.16309 0.28567 0.0
H435 H 0.3626 0.17068 0.3811 0.0
H436 H 0.35762 0.04526 0.25228 0.0
H437 H 0.43955 0.11562 0.19901 0.0
H438 H 0.49285 0.28333 0.38259 0.0
H439 H 0.4565 0.26518 0.29065 0.0
Li440 Li 0.91295 0.35025 0.36361 0.0
Li441 Li 0.88763 0.37424 0.33281 0.0
Li442 Li 0.86129 0.31414 0.34092 0.0
Li443 Li 0.90831 0.34175 0.30739 0.0
C444 C 0.87189 0.35772 0.4003 0.0
N445 N 0.8749 0.37592 0.46021 0.0
C446 C 0.87771 0.38901 0.40767 0.0
C447 C 0.86723 0.33558 0.42342 0.0
C448 C 0.87921 0.39776 0.43809 0.0
C449 C 0.86898 0.34528 0.45356 0.0
C450 C 0.95513 0.41456 0.32069 0.0
C451 C 0.98141 0.45335 0.28014 0.0
N452 N -0.00095 0.47708 0.30082 0.0
C453 C 0.97389 0.43927 0.34149 0.0
C454 C 0.95926 0.4216 0.28972 0.0
C455 C -0.00418 0.47073 0.33102 0.0
C456 C 0.94829 0.33542 0.40681 0.0
N457 N 0.93979 0.35777 0.39803 0.0
C458 C 0.96991 0.39311 0.43888 0.0
C459 C 0.95009 0.38613 0.41351 0.0
C460 C 0.97935 0.37069 0.44842 0.0
C461 C 0.96809 0.34135 0.43225 0.0
H462 H 0.93991 0.31312 0.39397 0.0
H463 H 0.94271 0.4033 0.40626 0.0
C464 C 0.84319 0.39358 0.32538 0.0
N465 N 0.87598 0.40706 0.3287 0.0
C466 C 0.82933 0.41337 0.32261 0.0
C467 C 0.88323 0.46095 0.32714 0.0
C468 C 0.89616 0.44007 0.32967 0.0
C469 C 0.84937 0.44753 0.32345 0.0
H470 H 0.82777 0.36723 0.32514 0.0
H471 H 0.92209 0.45026 0.33269 0.0
C472 C 0.886 0.2764 0.34362 0.0
N473 N 0.85415 0.20915 0.35 0.0
C474 C 0.88216 0.25654 0.31869 0.0
C475 C 0.87398 0.26207 0.37186 0.0
C476 C 0.86591 0.22258 0.32236 0.0
C477 C 0.85785 0.22803 0.37461 0.0
C478 C 0.85753 0.34423 0.27476 0.0
C479 C 0.83178 0.3193 0.25838 0.0
C480 C 0.87484 0.37562 0.26233 0.0
C481 C 0.82434 0.32601 0.2296 0.0
C482 C 0.86665 0.3814 0.23352 0.0
N483 N 0.84181 0.35666 0.21785 0.0
C484 C 0.80056 0.27402 0.36885 0.0
C485 C 0.80694 0.25593 0.32057 0.0
C486 C 0.76716 0.25142 0.36859 0.0
N487 N 0.81938 0.27649 0.34464 0.0
C488 C 0.77356 0.23336 0.31911 0.0
C489 C 0.75315 0.23182 0.34289 0.0
H490 H 0.81095 0.2911 0.3874 0.0
H491 H 0.82255 0.2586 0.30162 0.0
C492 C 0.96004 0.35155 0.26787 0.0
N493 N 0.9271 0.33586 0.27183 0.0
C494 C 0.9733 0.34536 0.24213 0.0
C495 C 0.91849 0.30671 0.22549 0.0
C496 C 0.90635 0.31387 0.25128 0.0
C497 C 0.95236 0.32231 0.22082 0.0
H498 H 0.97599 0.36847 0.28491 0.0
H499 H 0.88035 0.30111 0.25541 0.0
O500 O 0.87059 0.3488 0.37063 0.0
O501 O 0.93378 0.38348 0.33059 0.0
O502 O 0.90127 0.30966 0.34037 0.0
O503 O 0.86501 0.33804 0.3031 0.0
H504 H 0.88132 0.40648 0.39014 0.0
H505 H 0.86255 0.31124 0.41818 0.0
H506 H 0.88388 0.42195 0.44411 0.0
H507 H 0.86564 0.32846 0.47167 0.0
H508 H 0.98467 0.4591 0.25624 0.0
H509 H 0.97155 0.43437 0.36547 0.0
H510 H 0.94573 0.40276 0.27315 0.0
H511 H 0.01028 0.49008 0.34693 0.0
H512 H 0.9776 0.41575 0.45104 0.0
H513 H 0.97504 0.32357 0.43882 0.0
H514 H 0.80305 0.40198 0.32048 0.0
H515 H 0.89947 0.48719 0.32793 0.0
H516 H 0.89151 0.26717 0.29673 0.0
H517 H 0.8769 0.27707 0.39141 0.0
H518 H 0.86263 0.20692 0.30322 0.0
H519 H 0.84825 0.21662 0.3963 0.0
H520 H 0.81768 0.29496 0.26766 0.0
H521 H 0.89403 0.39549 0.27493 0.0
H522 H 0.80462 0.30686 0.21664 0.0
H523 H 0.87993 0.40561 0.22369 0.0
H524 H 0.75209 0.25121 0.38716 0.0
H525 H 0.76352 0.21857 0.29896 0.0
H526 H -0.00043 0.35757 0.23943 0.0
H527 H 0.90158 0.28885 0.2095 0.0
Li528 Li 0.3331 0.898 0.69367 0.0
Li529 Li 0.29825 0.85222 0.66112 0.0
Li530 Li 0.35732 0.87318 0.66449 0.0
Li531 Li 0.33636 0.90474 0.63882 0.0
C532 C 0.33417 0.83248 0.70861 0.0
N533 N 0.35674 0.79226 0.72985 0.0
C534 C 0.31854 0.79947 0.70024 0.0
C535 C 0.36143 0.84501 0.72767 0.0
C536 C 0.33025 0.77953 0.71129 0.0
C537 C 0.37244 0.8243 0.73817 0.0
C538 C 0.26652 0.88357 0.66885 0.0
C539 C 0.21365 0.86882 0.64837 0.0
N540 N 0.20019 0.85836 0.67624 0.0
C541 C 0.25222 0.87282 0.69732 0.0
C542 C 0.24717 0.88168 0.64418 0.0
C543 C 0.21861 0.8601 0.70058 0.0
C544 C 0.32757 0.94402 0.72977 0.0
N545 N 0.33293 0.91831 0.73062 0.0
C546 C 0.33162 0.91781 0.78459 0.0
C547 C 0.33529 0.90528 0.75724 0.0
C548 C 0.32487 0.94362 0.7845 0.0
C549 C 0.32353 0.95722 0.7566 0.0
H550 H 0.32526 0.95348 0.70818 0.0
H551 H 0.33886 0.88444 0.75729 0.0
C552 C 0.24254 0.79962 0.63179 0.0
N553 N 0.25682 0.81301 0.65874 0.0
C554 C 0.21616 0.76769 0.63057 0.0
C555 C 0.21836 0.76472 0.68503 0.0
C556 C 0.2443 0.7969 0.68521 0.0
C557 C 0.20482 0.74916 0.6573 0.0
H558 H 0.25254 0.81288 0.61106 0.0
H559 H 0.25609 0.80818 0.70636 0.0
C560 C 0.39 0.94865 0.68391 0.0
N561 N 0.42202 0.0056 0.71744 0.0
C562 C 0.38955 0.97671 0.67457 0.0
C563 C 0.40688 0.9496 0.71022 0.0
C564 C 0.40588 0.00527 0.69184 0.0
C565 C 0.42285 0.9786 0.72689 0.0
C566 C 0.32649 0.85726 0.59747 0.0
C567 C 0.34782 0.85065 0.58105 0.0
C568 C 0.30337 0.86201 0.58207 0.0
C569 C 0.34547 0.84866 0.54951 0.0
C570 C 0.30182 0.85986 0.55052 0.0
N571 N 0.32271 0.85327 0.53503 0.0
C572 C 0.38014 0.8308 0.65027 0.0
C573 C 0.421 0.8812 0.67094 0.0
C574 C 0.40233 0.81972 0.64779 0.0
N575 N 0.38972 0.86092 0.66183 0.0
C576 C 0.44411 0.87108 0.66889 0.0
C577 C 0.43482 0.83995 0.65712 0.0
H578 H 0.35508 0.81529 0.64316 0.0
H579 H 0.42798 0.90516 0.67979 0.0
C580 C 0.33259 0.95266 0.60127 0.0
N581 N 0.34632 0.9337 0.60588 0.0
C582 C 0.34258 0.97432 0.57674 0.0
C583 C 0.37924 0.95507 0.56176 0.0
C584 C 0.36966 0.93506 0.58712 0.0
C585 C 0.3663 0.97577 0.55644 0.0
H586 H 0.31445 0.95144 0.61696 0.0
H587 H 0.38072 0.92028 0.59181 0.0
O588 O 0.32355 0.85264 0.69748 0.0
O589 O 0.2992 0.89529 0.66505 0.0
O590 O 0.37353 0.92025 0.66769 0.0
O591 O 0.32899 0.8601 0.62834 0.0
H592 H 0.29803 0.78942 0.68486 0.0
H593 H 0.37443 0.87062 0.73379 0.0
H594 H 0.31843 0.754 0.70488 0.0
H595 H 0.39361 0.83376 0.75277 0.0
H596 H 0.19834 0.86712 0.62947 0.0
H597 H 0.26683 0.87386 0.71659 0.0
H598 H 0.25792 0.89003 0.62203 0.0
H599 H 0.20717 0.85151 0.72243 0.0
H600 H 0.33319 0.90681 0.80557 0.0
H601 H 0.31788 0.97676 0.75542 0.0
H602 H 0.20595 0.75709 0.60873 0.0
H603 H 0.2108 0.75157 0.70627 0.0
H604 H 0.37652 0.97641 0.65435 0.0
H605 H 0.40727 0.92805 0.71791 0.0
H606 H 0.40562 0.02713 0.68494 0.0
H607 H 0.43582 0.97962 0.7474 0.0
H608 H 0.3662 0.84738 0.59248 0.0
H609 H 0.28717 0.86786 0.59435 0.0
H610 H 0.36184 0.84358 0.53654 0.0
H611 H 0.28411 0.86362 0.53835 0.0
H612 H 0.39394 0.79531 0.63913 0.0
H613 H 0.46897 0.88748 0.67615 0.0
H614 H 0.3322 0.99006 0.57418 0.0
H615 H 0.39666 0.95406 0.5466 0.0
Li616 Li 0.1202 0.45766 0.69772 0.0
Li617 Li 0.17078 0.48452 0.66756 0.0
Li618 Li 0.1337 0.50725 0.66992 0.0
Li619 Li 0.11906 0.45723 0.64236 0.0
C620 C 0.16548 0.50969 0.73262 0.0
N621 N 0.17804 0.52263 0.79366 0.0
C622 C 0.19516 0.51537 0.74481 0.0
C623 C 0.14223 0.51066 0.75146 0.0
C624 C 0.20103 0.52187 0.77574 0.0
C625 C 0.14903 0.51722 0.78227 0.0
C626 C 0.12561 0.40798 0.65577 0.0
C627 C 0.12725 0.37394 0.61588 0.0
N628 N 0.09837 0.34868 0.62584 0.0
C629 C 0.096 0.38169 0.66566 0.0
C630 C 0.14145 0.40411 0.63073 0.0
C631 C 0.08262 0.35189 0.65021 0.0
C632 C 0.06959 0.41361 0.73735 0.0
N633 N 0.10234 0.43277 0.73336 0.0
C634 C 0.11289 0.41456 0.78008 0.0
C635 C 0.12391 0.43316 0.75384 0.0
C636 C 0.0792 0.39338 0.7846 0.0
C637 C 0.05741 0.3933 0.76276 0.0
H638 H 0.05301 0.41325 0.72029 0.0
H639 H 0.14982 0.44768 0.74963 0.0
C640 C 0.2389 0.52682 0.66796 0.0
N641 N 0.21506 0.49484 0.66755 0.0
C642 C 0.27164 0.53527 0.66688 0.0
C643 C 0.25483 0.47769 0.66706 0.0
C644 C 0.2223 0.47034 0.66747 0.0
C645 C 0.27982 0.51052 0.66633 0.0
H646 H 0.23242 0.54576 0.66894 0.0
H647 H 0.20283 0.44511 0.66775 0.0
C648 C 0.06933 0.47558 0.66983 0.0
N649 N 0.02625 0.49893 0.66709 0.0
C650 C 0.05845 0.48011 0.64181 0.0
C651 C 0.05811 0.48262 0.69645 0.0
C652 C 0.03672 0.49202 0.6409 0.0
C653 C 0.03639 0.49449 0.69459 0.0
C654 C 0.18375 0.52097 0.61856 0.0
C655 C 0.19829 0.55504 0.61997 0.0
C656 C 0.19902 0.507 0.60214 0.0
C657 C 0.22778 0.57455 0.60487 0.0
C658 C 0.22853 0.52735 0.58741 0.0
N659 N 0.24217 0.56041 0.58905 0.0
C660 C 0.14159 0.5668 0.69354 0.0
C661 C 0.12465 0.5558 0.64231 0.0
C662 C 0.14556 0.59806 0.69135 0.0
N663 N 0.13202 0.54671 0.66903 0.0
C664 C 0.12852 0.58696 0.63903 0.0
C665 C 0.14004 0.60886 0.66353 0.0
H666 H 0.14792 0.55935 0.71432 0.0
H667 H 0.11762 0.53952 0.62303 0.0
C668 C 0.06348 0.41104 0.60982 0.0
N669 N 0.0959 0.43314 0.60767 0.0
C670 C 0.04512 0.39685 0.58369 0.0
C671 C 0.09432 0.42716 0.55401 0.0
C672 C 0.11159 0.44086 0.58061 0.0
C673 C 0.06044 0.40567 0.55524 0.0
H674 H 0.05162 0.40562 0.63169 0.0
H675 H 0.13726 0.45865 0.57951 0.0
O676 O 0.15918 0.50284 0.70246 0.0
O677 O 0.1386 0.43761 0.67004 0.0
O678 O 0.091 0.46445 0.67118 0.0
O679 O 0.15493 0.50141 0.63336 0.0
H680 H 0.21337 0.51456 0.73059 0.0
H681 H 0.11908 0.50612 0.74243 0.0
H682 H 0.22385 0.52623 0.78549 0.0
H683 H 0.1312 0.51792 0.79712 0.0
H684 H 0.13913 0.37064 0.59638 0.0
H685 H 0.08334 0.38434 0.68487 0.0
H686 H 0.16426 0.4243 0.62265 0.0
H687 H 0.05964 0.33136 0.65754 0.0
H688 H 0.13092 0.41664 0.79635 0.0
H689 H 0.03131 0.37712 0.76463 0.0
H690 H 0.29041 0.56087 0.66686 0.0
H691 H 0.26041 0.45806 0.66685 0.0
H692 H 0.06703 0.4749 0.62098 0.0
H693 H 0.06609 0.47895 0.7183 0.0
H694 H 0.02825 0.49586 0.61938 0.0
H695 H 0.02758 0.50016 0.715 0.0
H696 H 0.18724 0.56642 0.63285 0.0
H697 H 0.18863 0.48075 0.60134 0.0
H698 H 0.23931 0.60093 0.60584 0.0
H699 H 0.24069 0.51684 0.57484 0.0
H700 H 0.15504 0.61437 0.71063 0.0
H701 H 0.12399 0.59438 0.61721 0.0
H702 H 0.019 0.38064 0.58565 0.0
H703 H 0.10716 0.43425 0.53258 0.0
Li704 Li 0.55028 0.70358 0.66556 0.0
Li705 Li 0.57579 0.67978 0.69619 0.0
Li706 Li 0.57376 0.67361 0.63978 0.0
Li707 Li 0.52555 0.6435 0.67158 0.0
C708 C 0.61931 0.74574 0.65637 0.0
N709 N 0.66607 0.80877 0.64021 0.0
C710 C 0.63516 0.76975 0.67855 0.0
C711 C 0.62786 0.75376 0.62597 0.0
C712 C 0.65854 0.80148 0.66994 0.0
C713 C 0.65136 0.78575 0.61825 0.0
C714 C 0.53182 0.68265 0.73245 0.0
C715 C 0.52914 0.66684 0.78475 0.0
N716 N 0.53092 0.69535 0.7934 0.0
C717 C 0.53341 0.71171 0.74184 0.0
C718 C 0.52944 0.65992 0.75405 0.0
C719 C 0.53298 0.7177 0.77277 0.0
C720 C 0.50605 0.72292 0.65407 0.0
N721 N 0.53791 0.73592 0.66197 0.0
C722 C 0.54424 0.78936 0.6654 0.0
C723 C 0.55714 0.76845 0.66778 0.0
C724 C 0.5115 0.77649 0.65669 0.0
C725 C 0.49238 0.74285 0.65096 0.0
H726 H 0.49112 0.69684 0.65044 0.0
H727 H 0.58217 0.77811 0.67472 0.0
C728 C 0.61322 0.6669 0.73869 0.0
N729 N 0.60209 0.68748 0.73097 0.0
C730 C 0.63352 0.67374 0.76391 0.0
C731 C 0.63014 0.72258 0.77258 0.0
C732 C 0.60991 0.71472 0.74744 0.0
C733 C 0.64251 0.70218 0.78089 0.0
H734 H 0.60667 0.64543 0.72508 0.0
H735 H 0.60036 0.73039 0.74106 0.0
C736 C 0.52327 0.67761 0.60689 0.0
N737 N 0.50945 0.69602 0.55193 0.0
C738 C 0.49573 0.65558 0.59034 0.0
C739 C 0.54343 0.70915 0.59565 0.0
C740 C 0.48926 0.66529 0.56255 0.0
C741 C 0.53613 0.71798 0.56781 0.0
C742 C 0.55157 0.60715 0.67172 0.0
C743 C 0.54711 0.59032 0.64451 0.0
C744 C 0.54037 0.58969 0.69878 0.0
C745 C 0.5312 0.55615 0.64479 0.0
C746 C 0.52456 0.55553 0.69811 0.0
N747 N 0.52032 0.53961 0.67136 0.0
C748 C 0.62808 0.68114 0.60679 0.0
C749 C 0.57834 0.65748 0.57928 0.0
C750 C 0.64448 0.67823 0.58173 0.0
N751 N 0.59564 0.67086 0.60503 0.0
C752 C 0.59378 0.65448 0.55367 0.0
C753 C 0.62721 0.66479 0.55476 0.0
H754 H 0.64108 0.69135 0.62775 0.0
H755 H 0.55239 0.64834 0.57876 0.0
C756 C 0.46549 0.59909 0.69875 0.0
N757 N 0.48411 0.60493 0.67357 0.0
C758 C 0.43216 0.57629 0.69789 0.0
C759 C 0.43827 0.56472 0.64572 0.0
C760 C 0.47159 0.5874 0.64775 0.0
C761 C 0.41799 0.55998 0.67069 0.0
H762 H 0.47591 0.61378 0.71878 0.0
H763 H 0.48703 0.59271 0.62806 0.0
O764 O 0.5968 0.7143 0.66449 0.0
O765 O 0.53243 0.67649 0.70227 0.0
O766 O 0.52992 0.66848 0.63424 0.0
O767 O 0.56643 0.64054 0.67181 0.0
H768 H 0.62934 0.76418 0.70217 0.0
H769 H 0.61666 0.73554 0.6084 0.0
H770 H 0.67072 0.82029 0.68692 0.0
H771 H 0.65802 0.79223 0.59479 0.0
H772 H 0.52756 0.64958 0.80171 0.0
H773 H 0.53512 0.72952 0.72546 0.0
H774 H 0.52825 0.63735 0.74719 0.0
H775 H 0.53434 0.74014 0.78036 0.0
H776 H 0.55959 0.81519 0.67024 0.0
H777 H 0.46683 0.7319 0.64489 0.0
H778 H 0.64269 0.65749 0.76963 0.0
H779 H 0.63601 0.74439 0.78545 0.0
H780 H 0.47947 0.63123 0.59879 0.0
H781 H 0.56405 0.72687 0.60858 0.0
H782 H 0.46813 0.64841 0.54946 0.0
H783 H 0.55157 0.74235 0.55892 0.0
H784 H 0.55558 0.60347 0.62336 0.0
H785 H 0.54368 0.60237 0.72003 0.0
H786 H 0.52743 0.54279 0.62388 0.0
H787 H 0.51561 0.54168 0.71886 0.0
H788 H 0.67027 0.68628 0.58341 0.0
H789 H 0.57946 0.64318 0.53352 0.0
H790 H 0.41724 0.57359 0.71748 0.0
H791 H 0.42815 0.55248 0.6244 0.0
C792 C 0.16013 0.13797 0.02419 0.0
C793 C 0.18091 0.1445 -0.00078 0.0
H794 H 0.12219 0.14406 0.04415 0.0
C795 C 0.18135 0.16515 0.9761 0.0
H796 H 0.15899 0.12173 0.04209 0.0
C797 C 0.1606 0.17827 0.97754 0.0
C798 C 0.13871 0.17027 0.00178 0.0
H799 H 0.19709 0.17039 0.95659 0.0
H800 H 0.16055 0.19338 0.95911 0.0
C801 C 0.13898 0.1505 0.02531 0.0
C802 C 0.84236 -0.00168 0.03261 0.0
C803 C 0.82169 0.97989 0.00867 0.0
H804 H 0.87662 0.04572 0.04947 0.0
C805 C 0.81669 0.9965 0.98468 0.0
H806 H 0.84727 0.9865 0.05124 0.0
C807 C 0.83385 0.03071 0.98358 0.0
C808 C 0.85613 0.04896 0.00657 0.0
H809 H 0.80044 0.98308 0.96617 0.0
H810 H 0.83064 0.04285 0.96418 0.0
C811 C 0.85929 0.03242 0.0316 0.0
C812 C 0.99184 0.87238 0.0403 0.0
C813 C 0.97597 0.85253 0.0151 0.0
H814 H 0.0374 0.90489 0.06162 0.0
C815 C -0.00523 0.84804 0.99298 0.0
H816 H 0.97816 0.87661 0.05762 0.0
C817 C 0.02883 0.86453 0.99518 0.0
C818 C 0.04469 0.8859 0.01948 0.0
H819 H 0.98321 0.83256 0.9735 0.0
H820 H 0.04277 0.86189 0.97706 0.0
C821 C 0.02581 0.88886 0.04246 0.0
C822 C 0.8434 0.49469 0.34162 0.0
C823 C 0.83436 0.46851 0.32146 0.0
H824 H 0.83296 0.53104 0.35857 0.0
C825 C 0.80881 0.46062 0.3009 0.0
H826 H 0.86293 0.50125 0.35779 0.0
C827 C 0.79143 0.47727 0.3016 0.0
C828 C 0.79929 0.5024 0.32276 0.0
H829 H 0.8016 0.44085 0.2848 0.0
H830 H 0.77085 0.46935 0.28642 0.0
C831 C 0.82599 0.51148 0.34229 0.0
C832 C 0.4833 0.33186 0.35746 0.0
C833 C 0.48609 0.31411 0.33322 0.0
H834 H 0.49844 0.37913 0.37637 0.0
C835 C 0.50366 0.33114 0.30736 0.0
H836 H 0.46949 0.31935 0.3775 0.0
C837 C 0.52029 0.36527 0.30674 0.0
C838 C 0.5197 0.38315 0.33196 0.0
H839 H 0.50667 0.31828 0.28844 0.0
H840 H 0.53558 0.37755 0.28736 0.0
C841 C 0.49991 0.36606 0.35683 0.0
C842 C 0.67025 0.20911 0.31198 0.0
C843 C 0.64966 0.19 0.33551 0.0
H844 H 0.71933 0.23668 0.29569 0.0
C845 C 0.66281 0.1818 0.36022 0.0
H846 H 0.66048 0.21569 0.29276 0.0
C847 C 0.69651 0.19416 0.36215 0.0
C848 C 0.7173 0.21423 0.33905 0.0
H849 H 0.64722 0.1672 0.37867 0.0
H850 H 0.70646 0.18886 0.38204 0.0
C851 C 0.70377 0.22087 0.31358 0.0
C852 C 0.45783 0.80943 0.63005 0.0
C853 C 0.45832 0.82791 0.65521 0.0
H854 H 0.47478 0.77907 0.61069 0.0
C855 C 0.47966 0.83263 0.67933 0.0
H856 H 0.44224 0.806 0.6108 0.0
C857 C 0.49859 0.81744 0.67909 0.0
C858 C 0.49632 0.79722 0.65479 0.0
H859 H 0.48046 0.84661 0.69909 0.0
H860 H 0.51353 0.82 0.69863 0.0
C861 C 0.47654 0.79416 0.6299 0.0
C862 C 0.16097 0.69604 0.67981 0.0
C863 C 0.18282 0.71301 0.65606 0.0
H864 H 0.12986 0.64953 0.7007 0.0
C865 C 0.18665 0.69479 0.63281 0.0
H866 H 0.15689 0.70919 0.69779 0.0
C867 C 0.1708 0.66074 0.63429 0.0
C868 C 0.15095 0.644 0.65916 0.0
H869 H 0.20363 0.70679 0.61441 0.0
H870 H 0.17599 0.64772 0.61697 0.0
C871 C 0.14536 0.66188 0.68144 0.0
C872 C 0.32772 0.5087 0.68808 0.0
C873 C 0.31445 0.51932 0.66531 0.0
H874 H 0.37141 0.51339 0.70769 0.0
C875 C 0.33494 0.54044 0.64268 0.0
H876 H 0.31228 0.49247 0.70581 0.0
C877 C 0.36842 0.55187 0.64343 0.0
C878 C 0.38208 0.54279 0.66713 0.0
H879 H 0.32512 0.54881 0.62486 0.0
H880 H 0.38386 0.56928 0.6264 0.0
C881 C 0.3614 0.52064 0.68917 0.0
C882 C 0.0253 0.33747 0.8481 0.0
C883 C 0.04578 0.32719 0.86129 0.0
H884 H 0.0199 0.3672 0.81475 0.0
C885 C 0.07725 0.33926 0.84913 0.0
H886 H 0.00075 0.32858 0.85638 0.0
C887 C 0.08752 0.35989 0.82411 0.0
C888 C 0.0674 0.37068 0.81113 0.0
H889 H 0.09443 0.33306 0.85889 0.0
H890 H 0.11136 0.36698 0.81495 0.0
C891 C 0.03613 0.35928 0.82363 0.0
C892 C 0.71036 0.75321 0.83577 0.0
C893 C 0.70515 0.73053 0.85875 0.0
H894 H 0.69484 0.76182 0.79307 0.0
C895 C 0.68027 0.69779 0.85512 0.0
H896 H 0.72905 0.77869 0.83803 0.0
C897 C 0.66046 0.68815 0.82931 0.0
C898 C 0.66505 0.7112 0.80692 0.0
H899 H 0.67587 0.67976 0.87239 0.0
H900 H 0.64091 0.66299 0.82734 0.0
C901 C 0.69053 0.74365 0.81017 0.0
C902 C 0.29643 0.93078 0.83457 0.0
C903 C 0.31639 0.95423 0.81304 0.0
H904 H 0.27064 0.92129 0.87641 0.0
C905 C 0.3265 0.98736 0.81835 0.0
H906 H 0.2878 0.90501 0.83105 0.0
C907 C 0.31618 0.99666 0.84428 0.0
C908 C 0.29545 0.97298 0.8653 0.0
H909 H 0.34212 0.00604 0.80232 0.0
H910 H 0.32362 0.02222 0.84741 0.0
C911 C 0.28619 0.94005 0.8604 0.0
C912 C 0.37594 0.09171 0.17472 0.0
C913 C 0.37549 0.06804 0.1943 0.0
H914 H 0.35624 0.10118 0.135 0.0
C915 C 0.35449 0.03471 0.18791 0.0
H916 H 0.39155 0.11758 0.17927 0.0
C917 C 0.33416 0.02531 0.16244 0.0
C918 C 0.33421 0.04911 0.14331 0.0
H919 H 0.35376 0.016 0.20262 0.0
H920 H 0.31786 -0.00049 0.15811 0.0
C921 C 0.35549 0.08235 0.14956 0.0
C922 C 0.001 0.32795 0.15052 0.0
C923 C 0.98834 0.29469 0.14359 0.0
H924 H -0.00032 0.36289 0.18081 0.0
C925 C 0.96447 0.27084 0.16257 0.0
H926 H 0.01947 0.3468 0.13627 0.0
C927 C 0.95314 0.27997 0.18772 0.0
C928 C 0.96551 0.31315 0.19458 0.0
H929 H 0.95394 0.24502 0.15757 0.0
H930 H 0.93461 0.26099 0.20185 0.0
C931 C 0.98985 0.33712 0.176 0.0
C932 C 0.73458 0.6669 0.17911 0.0
C933 C 0.70464 0.65808 0.1932 0.0
H934 H 0.76785 0.69307 0.14353 0.0
C935 C 0.68553 0.67085 0.18179 0.0
H936 H 0.75031 0.65813 0.18754 0.0
C937 C 0.69623 0.692 0.15689 0.0
C938 C 0.72616 0.70064 0.14281 0.0
H939 H 0.6622 0.66433 0.19193 0.0
H940 H 0.68123 0.70184 0.14894 0.0
C941 C 0.74499 0.68755 0.1541 0.0
C942 C 0.04782 0.41844 0.50387 0.0
C943 C 0.04089 0.39542 0.52699 0.0
H944 H 0.03411 0.42847 0.46088 0.0
C945 C 0.01429 0.36352 0.52346 0.0
H946 H 0.06781 0.44336 0.50605 0.0
C947 C -0.0053 0.35505 0.49753 0.0
C948 C 0.00123 0.37845 0.47489 0.0
H949 H 0.00849 0.34522 0.54084 0.0
H950 H 0.97391 0.33054 0.49563 0.0
C951 C 0.02826 0.41004 0.47814 0.0
C952 C 0.67159 0.63338 0.50655 0.0
C953 C 0.66418 0.63933 0.47726 0.0
H954 H 0.6659 0.6372 0.55422 0.0
C955 C 0.64784 0.6571 0.47375 0.0
H956 H 0.68439 0.61995 0.50983 0.0
C957 C 0.63724 0.66687 0.49907 0.0
C958 C 0.64303 0.6593 0.52833 0.0
H959 H 0.6416 0.66183 0.45145 0.0
H960 H 0.62348 0.67934 0.49577 0.0
C961 C 0.66124 0.64344 0.5319 0.0
C962 C 0.40983 0.01042 0.51871 0.0
C963 C 0.37819 -0.00112 0.53023 0.0
H964 H 0.44451 0.03675 0.48455 0.0
C965 C 0.35826 0.0093 0.51611 0.0
H966 H 0.42666 0.0042 0.52923 0.0
C967 C 0.3697 0.03051 0.49123 0.0
C968 C 0.40101 0.04107 0.47914 0.0
H969 H 0.33362 0.00087 0.5239 0.0
H970 H 0.35383 0.03852 0.48163 0.0
C971 C 0.42066 0.03032 0.49322 0.0
loop_
_geom_bond_atom_site_label_1
_geom_bond_atom_site_label_2
_geom_bond_distance
_geom_bond_site_symmetry_2
_ccdc_geom_bond_type
Li0 N17 1.990 . S
Li0 O60 1.956 . S
Li0 O61 1.970 1_454 S
Li0 O62 1.961 . S
Li1 N25 1.990 . S
Li1 O60 1.970 1_656 S
Li1 O61 1.956 . S
Li1 O63 1.961 1_655 S
Li2 N47 1.990 . S
Li2 O60 1.961 . S
Li2 O62 1.956 . S
Li2 O63 1.970 1_554 S
Li3 N53 1.990 . S
Li3 O61 1.961 1_455 S
Li3 O62 1.970 1_556 S
Li3 O63 1.956 . S
C4 C6 1.348 1_455 S
C4 C7 1.356 . S
C4 O60 1.325 . S
N5 C8 1.314 . S
N5 C9 1.279 1_655 S
C6 C4 1.348 1_655 S
C6 C8 1.353 . S
C6 H64 0.929 . S
C7 C4 1.356 . S
C7 C9 1.358 . S
C7 H65 0.930 . S
C8 N5 1.314 . S
C8 C6 1.353 . S
C8 H66 0.930 . S
C9 N5 1.279 1_455 S
C9 C7 1.358 . S
C9 H67 0.930 . S
C10 C13 1.348 1_556 S
C10 C14 1.356 . S
C10 O61 1.325 . S
C11 N12 1.279 . S
C11 C14 1.358 . S
C11 H68 0.930 . S
N12 C11 1.279 . S
N12 C15 1.314 1_556 S
C13 C10 1.348 1_554 S
C13 C15 1.353 . S
C13 H69 0.929 . S
C14 C10 1.356 . S
C14 C11 1.358 . S
C14 H70 0.930 . S
C15 N12 1.314 1_554 S
C15 C13 1.353 . S
C15 H71 0.930 . S
C16 N17 1.314 . S
C16 C21 1.353 . S
C16 H22 0.930 . S
N17 Li0 1.990 . S
N17 C16 1.314 . S
N17 C19 1.279 1_455 S
C18 C19 1.358 . S
C18 C20 1.356 . S
C18 H72 0.930 . S
C19 N17 1.279 1_655 S
C19 C18 1.358 . S
C19 H23 0.930 . S
C20 C18 1.356 . S
C20 C21 1.348 1_655 S
C21 C16 1.353 . S
C21 C20 1.348 1_455 S
C21 H73 0.929 . S
H22 C16 0.930 . S
H23 C19 0.930 . S
C24 N25 1.314 . S
C24 C26 1.353 . S
C24 H30 0.930 . S
N25 Li1 1.990 . S
N25 C24 1.314 . S
N25 C28 1.279 . S
C26 C24 1.353 . S
C26 C29 1.348 . S
C26 H74 0.929 . S
C27 C28 1.358 . S
C27 C29 1.356 . S
C27 H75 0.930 . S
C28 N25 1.279 . S
C28 C27 1.358 . S
C28 H31 0.930 . S
C29 C26 1.348 . S
C29 C27 1.356 . S
H30 C24 0.930 . S
H31 C28 0.930 . S
C32 C34 1.348 1_554 S
C32 C35 1.356 . S
C32 O62 1.325 . S
N33 C36 1.314 . S
N33 C37 1.279 . S
C34 C32 1.348 1_556 S
C34 C36 1.353 1_556 S
C34 H76 0.929 . S
C35 C32 1.356 . S
C35 C37 1.358 . S
C35 H77 0.930 . S
C36 N33 1.314 . S
C36 C34 1.353 1_554 S
C36 H78 0.930 1_554 S
C37 N33 1.279 . S
C37 C35 1.358 . S
C37 H79 0.930 . S
C38 C39 1.348 . S
C38 C40 1.356 . S
C38 O63 1.325 . S
C39 C38 1.348 . S
C39 C41 1.353 . S
C39 H80 0.929 . S
C40 C38 1.356 . S
C40 C42 1.358 . S
C40 H81 0.930 1_455 S
C41 C39 1.353 . S
C41 N43 1.314 . S
C41 H82 0.930 . S
C42 C40 1.358 . S
C42 N43 1.279 . S
C42 H83 0.930 1_455 S
N43 C41 1.314 . S
N43 C42 1.279 . S
C44 C46 1.353 . S
C44 N47 1.314 . S
C44 H50 0.930 . S
C45 N47 1.279 . S
C45 C48 1.358 . S
C45 H51 0.930 . S
C46 C44 1.353 . S
C46 C49 1.348 . S
C46 H84 0.929 . S
N47 Li2 1.990 . S
N47 C44 1.314 . S
N47 C45 1.279 . S
C48 C45 1.358 . S
C48 C49 1.356 . S
C48 H85 0.930 . S
C49 C46 1.348 . S
C49 C48 1.356 . S
H50 C44 0.930 . S
H51 C45 0.930 . S
C52 N53 1.314 . S
C52 C54 1.353 . S
C52 H58 0.930 . S
N53 Li3 1.990 . S
N53 C52 1.314 . S
N53 C56 1.279 . S
C54 C52 1.353 . S
C54 C57 1.348 . S
C54 H86 0.929 . S
C55 C56 1.358 . S
C55 C57 1.356 . S
C55 H87 0.930 . S
C56 N53 1.279 . S
C56 C55 1.358 . S
C56 H59 0.930 . S
C57 C54 1.348 . S
C57 C55 1.356 . S
H58 C52 0.930 . S
H59 C56 0.930 . S
O60 Li0 1.956 . S
O60 Li1 1.970 1_454 S
O60 Li2 1.961 . S
O60 C4 1.325 . S
O61 Li0 1.970 1_656 S
O61 Li1 1.956 . S
O61 Li3 1.961 1_655 S
O61 C10 1.325 . S
O62 Li0 1.961 . S
O62 Li2 1.956 . S
O62 Li3 1.970 1_554 S
O62 C32 1.325 . S
O63 Li1 1.961 1_455 S
O63 Li2 1.970 1_556 S
O63 Li3 1.956 . S
O63 C38 1.325 . S
H64 C6 0.929 . S
H65 C7 0.930 . S
H66 C8 0.930 . S
H67 C9 0.930 . S
H68 C11 0.930 . S
H69 C13 0.929 . S
H70 C14 0.930 . S
H71 C15 0.930 . S
H72 C18 0.930 . S
H73 C21 0.929 . S
H74 C26 0.929 . S
H75 C27 0.930 . S
H76 C34 0.929 . S
H77 C35 0.930 . S
H78 C36 0.930 1_556 S
H79 C37 0.930 . S
H80 C39 0.929 . S
H81 C40 0.930 1_655 S
H82 C41 0.930 . S
H83 C42 0.930 1_655 S
H84 C46 0.929 . S
H85 C48 0.930 . S
H86 C54 0.929 . S
H87 C55 0.930 . S
Li88 N105 1.990 . S
Li88 O148 1.956 . S
Li88 O149 1.970 1_556 S
Li88 O150 1.961 . S
Li89 N113 1.990 . S
Li89 O148 1.970 1_554 S
Li89 O149 1.956 . S
Li89 O151 1.961 . S
Li90 N135 1.990 . S
Li90 O148 1.961 . S
Li90 O150 1.956 . S
Li90 O151 1.970 1_556 S
Li91 N141 1.990 . S
Li91 O149 1.961 . S
Li91 O150 1.970 1_554 S
Li91 O151 1.956 . S
C92 C94 1.348 1_556 S
C92 C95 1.356 . S
C92 O148 1.325 . S
N93 C96 1.314 1_556 S
N93 C97 1.279 . S
C94 C92 1.348 1_554 S
C94 C96 1.353 . S
C94 H152 0.929 . S
C95 C92 1.356 . S
C95 C97 1.358 . S
C95 H153 0.930 . S
C96 N93 1.314 1_554 S
C96 C94 1.353 . S
C96 H154 0.930 . S
C97 N93 1.279 . S
C97 C95 1.358 . S
C97 H155 0.930 . S
C98 C101 1.348 . S
C98 C102 1.356 . S
C98 O149 1.325 . S
C99 N100 1.279 . S
C99 C102 1.358 . S
C99 H156 0.930 . S
N100 C99 1.279 . S
N100 C103 1.314 . S
C101 C98 1.348 . S
C101 C103 1.353 . S
C101 H157 0.929 . S
C102 C98 1.356 . S
C102 C99 1.358 . S
C102 H158 0.930 . S
C103 N100 1.314 . S
C103 C101 1.353 . S
C103 H159 0.930 . S
C104 N105 1.314 . S
C104 C109 1.353 . S
C104 H110 0.930 . S
N105 Li88 1.990 . S
N105 C104 1.314 . S
N105 C107 1.279 . S
C106 C107 1.358 . S
C106 C108 1.356 . S
C106 H160 0.930 . S
C107 N105 1.279 . S
C107 C106 1.358 . S
C107 H111 0.930 . S
C108 C106 1.356 . S
C108 C109 1.348 . S
C109 C104 1.353 . S
C109 C108 1.348 . S
C109 H161 0.929 . S
H110 C104 0.930 . S
H111 C107 0.930 . S
C112 N113 1.314 . S
C112 C114 1.353 . S
C112 H118 0.930 . S
N113 Li89 1.990 . S
N113 C112 1.314 . S
N113 C116 1.279 . S
C114 C112 1.353 . S
C114 C117 1.348 . S
C114 H162 0.929 . S
C115 C116 1.358 . S
C115 C117 1.356 . S
C115 H163 0.930 . S
C116 N113 1.279 . S
C116 C115 1.358 . S
C116 H119 0.930 . S
C117 C114 1.348 . S
C117 C115 1.356 . S
H118 C112 0.930 . S
H119 C116 0.930 . S
C120 C122 1.348 . S
C120 C123 1.356 . S
C120 O150 1.325 . S
N121 C124 1.314 . S
N121 C125 1.279 . S
C122 C120 1.348 . S
C122 C124 1.353 . S
C122 H164 0.929 . S
C123 C120 1.356 . S
C123 C125 1.358 . S
C123 H165 0.930 . S
C124 N121 1.314 . S
C124 C122 1.353 . S
C124 H166 0.930 . S
C125 N121 1.279 . S
C125 C123 1.358 . S
C125 H167 0.930 . S
C126 C127 1.348 1_554 S
C126 C128 1.356 . S
C126 O151 1.325 . S
C127 C126 1.348 1_556 S
C127 C129 1.353 1_556 S
C127 H168 0.929 . S
C128 C126 1.356 . S
C128 C130 1.358 . S
C128 H169 0.930 . S
C129 C127 1.353 1_554 S
C129 N131 1.314 . S
C129 H170 0.930 1_554 S
C130 C128 1.358 . S
C130 N131 1.279 . S
C130 H171 0.930 . S
N131 C129 1.314 . S
N131 C130 1.279 . S
C132 C134 1.353 . S
C132 N135 1.314 . S
C132 H138 0.930 . S
C133 N135 1.279 . S
C133 C136 1.358 . S
C133 H139 0.930 . S
C134 C132 1.353 . S
C134 C137 1.348 . S
C134 H172 0.929 . S
N135 Li90 1.990 . S
N135 C132 1.314 . S
N135 C133 1.279 . S
C136 C133 1.358 . S
C136 C137 1.356 . S
C136 H173 0.930 . S
C137 C134 1.348 . S
C137 C136 1.356 . S
H138 C132 0.930 . S
H139 C133 0.930 . S
C140 N141 1.314 . S
C140 C142 1.353 . S
C140 H146 0.930 . S
N141 Li91 1.990 . S
N141 C140 1.314 . S
N141 C144 1.279 . S
C142 C140 1.353 . S
C142 C145 1.348 . S
C142 H174 0.929 . S
C143 C144 1.358 . S
C143 C145 1.356 . S
C143 H175 0.930 . S
C144 N141 1.279 . S
C144 C143 1.358 . S
C144 H147 0.930 . S
C145 C142 1.348 . S
C145 C143 1.356 . S
H146 C140 0.930 . S
H147 C144 0.930 . S
O148 Li88 1.956 . S
O148 Li89 1.970 1_556 S
O148 Li90 1.961 . S
O148 C92 1.325 . S
O149 Li88 1.970 1_554 S
O149 Li89 1.956 . S
O149 Li91 1.961 . S
O149 C98 1.325 . S
O150 Li88 1.961 . S
O150 Li90 1.956 . S
O150 Li91 1.970 1_556 S
O150 C120 1.325 . S
O151 Li89 1.961 . S
O151 Li90 1.970 1_554 S
O151 Li91 1.956 . S
O151 C126 1.325 . S
H152 C94 0.929 . S
H153 C95 0.930 . S
H154 C96 0.930 . S
H155 C97 0.930 . S
H156 C99 0.930 . S
H157 C101 0.929 . S
H158 C102 0.930 . S
H159 C103 0.930 . S
H160 C106 0.930 . S
H161 C109 0.929 . S
H162 C114 0.929 . S
H163 C115 0.930 . S
H164 C122 0.929 . S
H165 C123 0.930 . S
H166 C124 0.930 . S
H167 C125 0.930 . S
H168 C127 0.929 . S
H169 C128 0.930 . S
H170 C129 0.930 1_556 S
H171 C130 0.930 . S
H172 C134 0.929 . S
H173 C136 0.930 . S
H174 C142 0.929 . S
H175 C143 0.930 . S
Li176 N193 1.990 . S
Li176 O236 1.956 . S
Li176 O237 1.970 1_556 S
Li176 O238 1.961 . S
Li177 N201 1.990 . S
Li177 O236 1.970 1_554 S
Li177 O237 1.956 . S
Li177 O239 1.961 1_545 S
Li178 N223 1.990 . S
Li178 O236 1.961 . S
Li178 O238 1.956 . S
Li178 O239 1.970 1_546 S
Li179 N229 1.990 . S
Li179 O237 1.961 1_565 S
Li179 O238 1.970 1_564 S
Li179 O239 1.956 . S
C180 C182 1.348 1_556 S
C180 C183 1.356 . S
C180 O236 1.325 . S
N181 C184 1.314 1_556 S
N181 C185 1.279 . S
C182 C180 1.348 1_554 S
C182 C184 1.353 . S
C182 H240 0.929 . S
C183 C180 1.356 . S
C183 C185 1.358 . S
C183 H241 0.930 . S
C184 N181 1.314 1_554 S
C184 C182 1.353 . S
C184 H242 0.930 . S
C185 N181 1.279 . S
C185 C183 1.358 . S
C185 H243 0.930 . S
C186 C189 1.348 . S
C186 C190 1.356 . S
C186 O237 1.325 . S
C187 N188 1.279 . S
C187 C190 1.358 . S
C187 H244 0.930 1_545 S
N188 C187 1.279 . S
N188 C191 1.314 . S
C189 C186 1.348 . S
C189 C191 1.353 . S
C189 H245 0.929 . S
C190 C186 1.356 . S
C190 C187 1.358 . S
C190 H246 0.930 1_545 S
C191 N188 1.314 . S
C191 C189 1.353 . S
C191 H247 0.930 . S
C192 N193 1.314 . S
C192 C197 1.353 . S
C192 H198 0.930 . S
N193 Li176 1.990 . S
N193 C192 1.314 . S
N193 C195 1.279 . S
C194 C195 1.358 . S
C194 C196 1.356 . S
C194 H248 0.930 . S
C195 N193 1.279 . S
C195 C194 1.358 . S
C195 H199 0.930 . S
C196 C194 1.356 . S
C196 C197 1.348 . S
C197 C192 1.353 . S
C197 C196 1.348 . S
C197 H249 0.929 . S
H198 C192 0.930 . S
H199 C195 0.930 . S
C200 N201 1.314 . S
C200 C202 1.353 . S
C200 H206 0.930 . S
N201 Li177 1.990 . S
N201 C200 1.314 . S
N201 C204 1.279 . S
C202 C200 1.353 . S
C202 C205 1.348 . S
C202 H250 0.929 . S
C203 C204 1.358 . S
C203 C205 1.356 . S
C203 H251 0.930 . S
C204 N201 1.279 . S
C204 C203 1.358 . S
C204 H207 0.930 . S
C205 C202 1.348 . S
C205 C203 1.356 . S
H206 C200 0.930 . S
H207 C204 0.930 . S
C208 C210 1.348 1_545 S
C208 C211 1.356 . S
C208 O238 1.325 . S
N209 C212 1.314 . S
N209 C213 1.279 1_565 S
C210 C208 1.348 1_565 S
C210 C212 1.353 . S
C210 H252 0.929 . S
C211 C208 1.356 . S
C211 C213 1.358 . S
C211 H253 0.930 . S
C212 N209 1.314 . S
C212 C210 1.353 . S
C212 H254 0.930 . S
C213 N209 1.279 1_545 S
C213 C211 1.358 . S
C213 H255 0.930 . S
C214 C215 1.348 1_554 S
C214 C216 1.356 . S
C214 O239 1.325 . S
C215 C214 1.348 1_556 S
C215 C217 1.353 1_556 S
C215 H256 0.929 . S
C216 C214 1.356 . S
C216 C218 1.358 . S
C216 H257 0.930 . S
C217 C215 1.353 1_554 S
C217 N219 1.314 . S
C217 H258 0.930 1_554 S
C218 C216 1.358 . S
C218 N219 1.279 . S
C218 H259 0.930 . S
N219 C217 1.314 . S
N219 C218 1.279 . S
C220 C222 1.353 . S
C220 N223 1.314 . S
C220 H226 0.930 . S
C221 N223 1.279 1_565 S
C221 C224 1.358 . S
C221 H227 0.930 . S
C222 C220 1.353 . S
C222 C225 1.348 1_545 S
C222 H260 0.929 . S
N223 Li178 1.990 . S
N223 C220 1.314 . S
N223 C221 1.279 1_545 S
C224 C221 1.358 . S
C224 C225 1.356 . S
C224 H261 0.930 . S
C225 C222 1.348 1_565 S
C225 C224 1.356 . S
H226 C220 0.930 . S
H227 C221 0.930 . S
C228 N229 1.314 . S
C228 C230 1.353 . S
C228 H234 0.930 . S
N229 Li179 1.990 . S
N229 C228 1.314 . S
N229 C232 1.279 . S
C230 C228 1.353 . S
C230 C233 1.348 . S
C230 H262 0.929 . S
C231 C232 1.358 . S
C231 C233 1.356 . S
C231 H263 0.930 . S
C232 N229 1.279 . S
C232 C231 1.358 . S
C232 H235 0.930 . S
C233 C230 1.348 . S
C233 C231 1.356 . S
H234 C228 0.930 . S
H235 C232 0.930 . S
O236 Li176 1.956 . S
O236 Li177 1.970 1_556 S
O236 Li178 1.961 . S
O236 C180 1.325 . S
O237 Li176 1.970 1_554 S
O237 Li177 1.956 . S
O237 Li179 1.961 1_545 S
O237 C186 1.325 . S
O238 Li176 1.961 . S
O238 Li178 1.956 . S
O238 Li179 1.970 1_546 S
O238 C208 1.325 . S
O239 Li177 1.961 1_565 S
O239 Li178 1.970 1_564 S
O239 Li179 1.956 . S
O239 C214 1.325 . S
H240 C182 0.929 . S
H241 C183 0.930 . S
H242 C184 0.930 . S
H243 C185 0.930 . S
H244 C187 0.930 1_565 S
H245 C189 0.929 . S
H246 C190 0.930 1_565 S
H247 C191 0.930 . S
H248 C194 0.930 . S
H249 C197 0.929 . S
H250 C202 0.929 . S
H251 C203 0.930 . S
H252 C210 0.929 . S
H253 C211 0.930 . S
H254 C212 0.930 . S
H255 C213 0.930 . S
H256 C215 0.929 . S
H257 C216 0.930 . S
H258 C217 0.930 1_556 S
H259 C218 0.930 . S
H260 C222 0.929 . S
H261 C224 0.930 . S
H262 C230 0.929 . S
H263 C231 0.930 . S
Li264 N281 1.990 . S
Li264 O324 1.956 . S
Li264 O325 1.970 . S
Li264 O326 1.961 . S
Li265 N289 1.990 . S
Li265 O324 1.970 . S
Li265 O325 1.956 . S
Li265 O327 1.961 . S
Li266 N311 1.990 . S
Li266 O324 1.961 . S
Li266 O326 1.956 . S
Li266 O327 1.970 . S
Li267 N317 1.990 . S
Li267 O325 1.961 . S
Li267 O326 1.970 . S
Li267 O327 1.956 . S
C268 C270 1.348 . S
C268 C271 1.356 . S
C268 O324 1.325 . S
N269 C272 1.314 . S
N269 C273 1.279 . S
C270 C268 1.348 . S
C270 C272 1.353 . S
C270 H328 0.929 . S
C271 C268 1.356 . S
C271 C273 1.358 . S
C271 H329 0.930 . S
C272 N269 1.314 . S
C272 C270 1.353 . S
C272 H330 0.930 . S
C273 N269 1.279 . S
C273 C271 1.358 . S
C273 H331 0.930 . S
C274 C277 1.348 . S
C274 C278 1.356 . S
C274 O325 1.325 . S
C275 N276 1.279 . S
C275 C278 1.358 . S
C275 H332 0.930 . S
N276 C275 1.279 . S
N276 C279 1.314 . S
C277 C274 1.348 . S
C277 C279 1.353 . S
C277 H333 0.929 . S
C278 C274 1.356 . S
C278 C275 1.358 . S
C278 H334 0.930 . S
C279 N276 1.314 . S
C279 C277 1.353 . S
C279 H335 0.930 . S
C280 N281 1.314 . S
C280 C285 1.353 . S
C280 H286 0.930 . S
N281 Li264 1.990 . S
N281 C280 1.314 . S
N281 C283 1.279 . S
C282 C283 1.358 . S
C282 C284 1.356 . S
C282 H336 0.930 . S
C283 N281 1.279 . S
C283 C282 1.358 . S
C283 H287 0.930 . S
C284 C282 1.356 . S
C284 C285 1.348 . S
C285 C280 1.353 . S
C285 C284 1.348 . S
C285 H337 0.929 . S
H286 C280 0.930 . S
H287 C283 0.930 . S
C288 N289 1.314 . S
C288 C290 1.353 . S
C288 H294 0.930 . S
N289 Li265 1.990 . S
N289 C288 1.314 . S
N289 C292 1.279 . S
C290 C288 1.353 . S
C290 C293 1.348 . S
C290 H338 0.929 . S
C291 C292 1.358 . S
C291 C293 1.356 . S
C291 H339 0.930 . S
C292 N289 1.279 . S
C292 C291 1.358 . S
C292 H295 0.930 . S
C293 C290 1.348 . S
C293 C291 1.356 . S
H294 C288 0.930 . S
H295 C292 0.930 . S
C296 C298 1.348 . S
C296 C299 1.356 . S
C296 O326 1.325 . S
N297 C300 1.314 . S
N297 C301 1.279 . S
C298 C296 1.348 . S
C298 C300 1.353 . S
C298 H340 0.929 . S
C299 C296 1.356 . S
C299 C301 1.358 . S
C299 H341 0.930 . S
C300 N297 1.314 . S
C300 C298 1.353 . S
C300 H342 0.930 . S
C301 N297 1.279 . S
C301 C299 1.358 . S
C301 H343 0.930 . S
C302 C303 1.348 . S
C302 C304 1.356 . S
C302 O327 1.325 . S
C303 C302 1.348 . S
C303 C305 1.353 . S
C303 H344 0.929 . S
C304 C302 1.356 . S
C304 C306 1.358 . S
C304 H345 0.930 . S
C305 C303 1.353 . S
C305 N307 1.314 . S
C305 H346 0.930 . S
C306 C304 1.358 . S
C306 N307 1.279 . S
C306 H347 0.930 . S
N307 C305 1.314 . S
N307 C306 1.279 . S
C308 C310 1.353 . S
C308 N311 1.314 . S
C308 H314 0.930 . S
C309 N311 1.279 . S
C309 C312 1.358 . S
C309 H315 0.930 . S
C310 C308 1.353 . S
C310 C313 1.348 . S
C310 H348 0.929 . S
N311 Li266 1.990 . S
N311 C308 1.314 . S
N311 C309 1.279 . S
C312 C309 1.358 . S
C312 C313 1.356 . S
C312 H349 0.930 . S
C313 C310 1.348 . S
C313 C312 1.356 . S
H314 C308 0.930 . S
H315 C309 0.930 . S
C316 N317 1.314 . S
C316 C318 1.353 . S
C316 H322 0.930 . S
N317 Li267 1.990 . S
N317 C316 1.314 . S
N317 C320 1.279 . S
C318 C316 1.353 . S
C318 C321 1.348 . S
C318 H350 0.929 . S
C319 C320 1.358 . S
C319 C321 1.356 . S
C319 H351 0.930 . S
C320 N317 1.279 . S
C320 C319 1.358 . S
C320 H323 0.930 . S
C321 C318 1.348 . S
C321 C319 1.356 . S
H322 C316 0.930 . S
H323 C320 0.930 . S
O324 Li264 1.956 . S
O324 Li265 1.970 . S
O324 Li266 1.961 . S
O324 C268 1.325 . S
O325 Li264 1.970 . S
O325 Li265 1.956 . S
O325 Li267 1.961 . S
O325 C274 1.325 . S
O326 Li264 1.961 . S
O326 Li266 1.956 . S
O326 Li267 1.970 . S
O326 C296 1.325 . S
O327 Li265 1.961 . S
O327 Li266 1.970 . S
O327 Li267 1.956 . S
O327 C302 1.325 . S
H328 C270 0.929 . S
H329 C271 0.930 . S
H330 C272 0.930 . S
H331 C273 0.930 . S
H332 C275 0.930 . S
H333 C277 0.929 . S
H334 C278 0.930 . S
H335 C279 0.930 . S
H336 C282 0.930 . S
H337 C285 0.929 . S
H338 C290 0.929 . S
H339 C291 0.930 . S
H340 C298 0.929 . S
H341 C299 0.930 . S
H342 C300 0.930 . S
H343 C301 0.930 . S
H344 C303 0.929 . S
H345 C304 0.930 . S
H346 C305 0.930 . S
H347 C306 0.930 . S
H348 C310 0.929 . S
H349 C312 0.930 . S
H350 C318 0.929 . S
H351 C319 0.930 . S
Li352 N369 1.990 . S
Li352 O412 1.956 . S
Li352 O413 1.970 . S
Li352 O414 1.961 . S
Li353 N377 1.990 . S
Li353 O412 1.970 . S
Li353 O413 1.956 . S
Li353 O415 1.961 . S
Li354 N399 1.990 . S
Li354 O412 1.961 . S
Li354 O414 1.956 . S
Li354 O415 1.970 . S
Li355 N405 1.990 . S
Li355 O413 1.961 . S
Li355 O414 1.970 . S
Li355 O415 1.956 . S
C356 C358 1.348 . S
C356 C359 1.356 . S
C356 O412 1.325 . S
N357 C360 1.314 . S
N357 C361 1.279 . S
C358 C356 1.348 . S
C358 C360 1.353 . S
C358 H416 0.929 . S
C359 C356 1.356 . S
C359 C361 1.358 . S
C359 H417 0.930 . S
C360 N357 1.314 . S
C360 C358 1.353 . S
C360 H418 0.930 . S
C361 N357 1.279 . S
C361 C359 1.358 . S
C361 H419 0.930 . S
C362 C365 1.348 . S
C362 C366 1.356 . S
C362 O413 1.325 . S
C363 N364 1.279 . S
C363 C366 1.358 . S
C363 H420 0.930 . S
N364 C363 1.279 . S
N364 C367 1.314 . S
C365 C362 1.348 . S
C365 C367 1.353 . S
C365 H421 0.929 . S
C366 C362 1.356 . S
C366 C363 1.358 . S
C366 H422 0.930 . S
C367 N364 1.314 . S
C367 C365 1.353 . S
C367 H423 0.930 . S
C368 N369 1.314 . S
C368 C373 1.353 . S
C368 H374 0.930 . S
N369 Li352 1.990 . S
N369 C368 1.314 . S
N369 C371 1.279 . S
C370 C371 1.358 . S
C370 C372 1.356 . S
C370 H424 0.930 . S
C371 N369 1.279 . S
C371 C370 1.358 . S
C371 H375 0.930 . S
C372 C370 1.356 . S
C372 C373 1.348 . S
C373 C368 1.353 . S
C373 C372 1.348 . S
C373 H425 0.929 . S
H374 C368 0.930 . S
H375 C371 0.930 . S
C376 N377 1.314 . S
C376 C378 1.353 . S
C376 H382 0.930 . S
N377 Li353 1.990 . S
N377 C376 1.314 . S
N377 C380 1.279 . S
C378 C376 1.353 . S
C378 C381 1.348 . S
C378 H426 0.929 . S
C379 C380 1.358 . S
C379 C381 1.356 . S
C379 H427 0.930 . S
C380 N377 1.279 . S
C380 C379 1.358 . S
C380 H383 0.930 . S
C381 C378 1.348 . S
C381 C379 1.356 . S
H382 C376 0.930 . S
H383 C380 0.930 . S
C384 C386 1.348 . S
C384 C387 1.356 . S
C384 O414 1.325 . S
N385 C388 1.314 . S
N385 C389 1.279 . S
C386 C384 1.348 . S
C386 C388 1.353 . S
C386 H428 0.929 . S
C387 C384 1.356 . S
C387 C389 1.358 . S
C387 H429 0.930 . S
C388 N385 1.314 . S
C388 C386 1.353 . S
C388 H430 0.930 . S
C389 N385 1.279 . S
C389 C387 1.358 . S
C389 H431 0.930 . S
C390 C391 1.348 . S
C390 C392 1.356 . S
C390 O415 1.325 . S
C391 C390 1.348 . S
C391 C393 1.353 . S
C391 H432 0.929 . S
C392 C390 1.356 . S
C392 C394 1.358 . S
C392 H433 0.930 . S
C393 C391 1.353 . S
C393 N395 1.314 . S
C393 H434 0.930 . S
C394 C392 1.358 . S
C394 N395 1.279 . S
C394 H435 0.930 . S
N395 C393 1.314 . S
N395 C394 1.279 . S
C396 C398 1.353 . S
C396 N399 1.314 . S
C396 H402 0.930 . S
C397 N399 1.279 . S
C397 C400 1.358 . S
C397 H403 0.930 . S
C398 C396 1.353 . S
C398 C401 1.348 . S
C398 H436 0.929 . S
N399 Li354 1.990 . S
N399 C396 1.314 . S
N399 C397 1.279 . S
C400 C397 1.358 . S
C400 C401 1.356 . S
C400 H437 0.930 . S
C401 C398 1.348 . S
C401 C400 1.356 . S
H402 C396 0.930 . S
H403 C397 0.930 . S
C404 N405 1.314 . S
C404 C406 1.353 . S
C404 H410 0.930 . S
N405 Li355 1.990 . S
N405 C404 1.314 . S
N405 C408 1.279 . S
C406 C404 1.353 . S
C406 C409 1.348 . S
C406 H438 0.929 . S
C407 C408 1.358 . S
C407 C409 1.356 . S
C407 H439 0.930 . S
C408 N405 1.279 . S
C408 C407 1.358 . S
C408 H411 0.930 . S
C409 C406 1.348 . S
C409 C407 1.356 . S
H410 C404 0.930 . S
H411 C408 0.930 . S
O412 Li352 1.956 . S
O412 Li353 1.970 . S
O412 Li354 1.961 . S
O412 C356 1.325 . S
O413 Li352 1.970 . S
O413 Li353 1.956 . S
O413 Li355 1.961 . S
O413 C362 1.325 . S
O414 Li352 1.961 . S
O414 Li354 1.956 . S
O414 Li355 1.970 . S
O414 C384 1.325 . S
O415 Li353 1.961 . S
O415 Li354 1.970 . S
O415 Li355 1.956 . S
O415 C390 1.325 . S
H416 C358 0.929 . S
H417 C359 0.930 . S
H418 C360 0.930 . S
H419 C361 0.930 . S
H420 C363 0.930 . S
H421 C365 0.929 . S
H422 C366 0.930 . S
H423 C367 0.930 . S
H424 C370 0.930 . S
H425 C373 0.929 . S
H426 C378 0.929 . S
H427 C379 0.930 . S
H428 C386 0.929 . S
H429 C387 0.930 . S
H430 C388 0.930 . S
H431 C389 0.930 . S
H432 C391 0.929 . S
H433 C392 0.930 . S
H434 C393 0.930 . S
H435 C394 0.930 . S
H436 C398 0.929 . S
H437 C400 0.930 . S
H438 C406 0.929 . S
H439 C407 0.930 . S
Li440 N457 1.990 . S
Li440 O500 1.956 . S
Li440 O501 1.970 . S
Li440 O502 1.961 . S
Li441 N465 1.990 . S
Li441 O500 1.970 . S
Li441 O501 1.956 . S
Li441 O503 1.961 . S
Li442 N487 1.990 . S
Li442 O500 1.961 . S
Li442 O502 1.956 . S
Li442 O503 1.970 . S
Li443 N493 1.990 . S
Li443 O501 1.961 . S
Li443 O502 1.970 . S
Li443 O503 1.956 . S
C444 C446 1.348 . S
C444 C447 1.356 . S
C444 O500 1.325 . S
N445 C448 1.314 . S
N445 C449 1.279 . S
C446 C444 1.348 . S
C446 C448 1.353 . S
C446 H504 0.929 . S
C447 C444 1.356 . S
C447 C449 1.358 . S
C447 H505 0.930 . S
C448 N445 1.314 . S
C448 C446 1.353 . S
C448 H506 0.930 . S
C449 N445 1.279 . S
C449 C447 1.358 . S
C449 H507 0.930 . S
C450 C453 1.348 . S
C450 C454 1.356 . S
C450 O501 1.325 . S
C451 N452 1.279 1_655 S
C451 C454 1.358 . S
C451 H508 0.930 . S
N452 C451 1.279 1_455 S
N452 C455 1.314 . S
C453 C450 1.348 . S
C453 C455 1.353 1_655 S
C453 H509 0.929 . S
C454 C450 1.356 . S
C454 C451 1.358 . S
C454 H510 0.930 . S
C455 N452 1.314 . S
C455 C453 1.353 1_455 S
C455 H511 0.930 . S
C456 N457 1.314 . S
C456 C461 1.353 . S
C456 H462 0.930 . S
N457 Li440 1.990 . S
N457 C456 1.314 . S
N457 C459 1.279 . S
C458 C459 1.358 . S
C458 C460 1.356 . S
C458 H512 0.930 . S
C459 N457 1.279 . S
C459 C458 1.358 . S
C459 H463 0.930 . S
C460 C458 1.356 . S
C460 C461 1.348 . S
C461 C456 1.353 . S
C461 C460 1.348 . S
C461 H513 0.929 . S
H462 C456 0.930 . S
H463 C459 0.930 . S
C464 N465 1.314 . S
C464 C466 1.353 . S
C464 H470 0.930 . S
N465 Li441 1.990 . S
N465 C464 1.314 . S
N465 C468 1.279 . S
C466 C464 1.353 . S
C466 C469 1.348 . S
C466 H514 0.929 . S
C467 C468 1.358 . S
C467 C469 1.356 . S
C467 H515 0.930 . S
C468 N465 1.279 . S
C468 C467 1.358 . S
C468 H471 0.930 . S
C469 C466 1.348 . S
C469 C467 1.356 . S
H470 C464 0.930 . S
H471 C468 0.930 . S
C472 C474 1.348 . S
C472 C475 1.356 . S
C472 O502 1.325 . S
N473 C476 1.314 . S
N473 C477 1.279 . S
C474 C472 1.348 . S
C474 C476 1.353 . S
C474 H516 0.929 . S
C475 C472 1.356 . S
C475 C477 1.358 . S
C475 H517 0.930 . S
C476 N473 1.314 . S
C476 C474 1.353 . S
C476 H518 0.930 . S
C477 N473 1.279 . S
C477 C475 1.358 . S
C477 H519 0.930 . S
C478 C479 1.348 . S
C478 C480 1.356 . S
C478 O503 1.325 . S
C479 C478 1.348 . S
C479 C481 1.353 . S
C479 H520 0.929 . S
C480 C478 1.356 . S
C480 C482 1.358 . S
C480 H521 0.930 . S
C481 C479 1.353 . S
C481 N483 1.314 . S
C481 H522 0.930 . S
C482 C480 1.358 . S
C482 N483 1.279 . S
C482 H523 0.930 . S
N483 C481 1.314 . S
N483 C482 1.279 . S
C484 C486 1.353 . S
C484 N487 1.314 . S
C484 H490 0.930 . S
C485 N487 1.279 . S
C485 C488 1.358 . S
C485 H491 0.930 . S
C486 C484 1.353 . S
C486 C489 1.348 . S
C486 H524 0.929 . S
N487 Li442 1.990 . S
N487 C484 1.314 . S
N487 C485 1.279 . S
C488 C485 1.358 . S
C488 C489 1.356 . S
C488 H525 0.930 . S
C489 C486 1.348 . S
C489 C488 1.356 . S
H490 C484 0.930 . S
H491 C485 0.930 . S
C492 N493 1.314 . S
C492 C494 1.353 . S
C492 H498 0.930 . S
N493 Li443 1.990 . S
N493 C492 1.314 . S
N493 C496 1.279 . S
C494 C492 1.353 . S
C494 C497 1.348 . S
C494 H526 0.929 . S
C495 C496 1.358 . S
C495 C497 1.356 . S
C495 H527 0.930 . S
C496 N493 1.279 . S
C496 C495 1.358 . S
C496 H499 0.930 . S
C497 C494 1.348 . S
C497 C495 1.356 . S
H498 C492 0.930 . S
H499 C496 0.930 . S
O500 Li440 1.956 . S
O500 Li441 1.970 . S
O500 Li442 1.961 . S
O500 C444 1.325 . S
O501 Li440 1.970 . S
O501 Li441 1.956 . S
O501 Li443 1.961 . S
O501 C450 1.325 . S
O502 Li440 1.961 . S
O502 Li442 1.956 . S
O502 Li443 1.970 . S
O502 C472 1.325 . S
O503 Li441 1.961 . S
O503 Li442 1.970 . S
O503 Li443 1.956 . S
O503 C478 1.325 . S
H504 C446 0.929 . S
H505 C447 0.930 . S
H506 C448 0.930 . S
H507 C449 0.930 . S
H508 C451 0.930 . S
H509 C453 0.929 . S
H510 C454 0.930 . S
H511 C455 0.930 . S
H512 C458 0.930 . S
H513 C461 0.929 . S
H514 C466 0.929 . S
H515 C467 0.930 . S
H516 C474 0.929 . S
H517 C475 0.930 . S
H518 C476 0.930 . S
H519 C477 0.930 . S
H520 C479 0.929 . S
H521 C480 0.930 . S
H522 C481 0.930 . S
H523 C482 0.930 . S
H524 C486 0.929 . S
H525 C488 0.930 . S
H526 C494 0.929 . S
H527 C495 0.930 . S
Li528 N545 1.990 . S
Li528 O588 1.956 . S
Li528 O589 1.970 . S
Li528 O590 1.961 . S
Li529 N553 1.990 . S
Li529 O588 1.970 . S
Li529 O589 1.956 . S
Li529 O591 1.961 . S
Li530 N575 1.990 . S
Li530 O588 1.961 . S
Li530 O590 1.956 . S
Li530 O591 1.970 . S
Li531 N581 1.990 . S
Li531 O589 1.961 . S
Li531 O590 1.970 . S
Li531 O591 1.956 . S
C532 C534 1.348 . S
C532 C535 1.356 . S
C532 O588 1.325 . S
N533 C536 1.314 . S
N533 C537 1.279 . S
C534 C532 1.348 . S
C534 C536 1.353 . S
C534 H592 0.929 . S
C535 C532 1.356 . S
C535 C537 1.358 . S
C535 H593 0.930 . S
C536 N533 1.314 . S
C536 C534 1.353 . S
C536 H594 0.930 . S
C537 N533 1.279 . S
C537 C535 1.358 . S
C537 H595 0.930 . S
C538 C541 1.348 . S
C538 C542 1.356 . S
C538 O589 1.325 . S
C539 N540 1.279 . S
C539 C542 1.358 . S
C539 H596 0.930 . S
N540 C539 1.279 . S
N540 C543 1.314 . S
C541 C538 1.348 . S
C541 C543 1.353 . S
C541 H597 0.929 . S
C542 C538 1.356 . S
C542 C539 1.358 . S
C542 H598 0.930 . S
C543 N540 1.314 . S
C543 C541 1.353 . S
C543 H599 0.930 . S
C544 N545 1.314 . S
C544 C549 1.353 . S
C544 H550 0.930 . S
N545 Li528 1.990 . S
N545 C544 1.314 . S
N545 C547 1.279 . S
C546 C547 1.358 . S
C546 C548 1.356 . S
C546 H600 0.930 . S
C547 N545 1.279 . S
C547 C546 1.358 . S
C547 H551 0.930 . S
C548 C546 1.356 . S
C548 C549 1.348 . S
C549 C544 1.353 . S
C549 C548 1.348 . S
C549 H601 0.929 . S
H550 C544 0.930 . S
H551 C547 0.930 . S
C552 N553 1.314 . S
C552 C554 1.353 . S
C552 H558 0.930 . S
N553 Li529 1.990 . S
N553 C552 1.314 . S
N553 C556 1.279 . S
C554 C552 1.353 . S
C554 C557 1.348 . S
C554 H602 0.929 . S
C555 C556 1.358 . S
C555 C557 1.356 . S
C555 H603 0.930 . S
C556 N553 1.279 . S
C556 C555 1.358 . S
C556 H559 0.930 . S
C557 C554 1.348 . S
C557 C555 1.356 . S
H558 C552 0.930 . S
H559 C556 0.930 . S
C560 C562 1.348 . S
C560 C563 1.356 . S
C560 O590 1.325 . S
N561 C564 1.314 . S
N561 C565 1.279 1_545 S
C562 C560 1.348 . S
C562 C564 1.353 1_565 S
C562 H604 0.929 . S
C563 C560 1.356 . S
C563 C565 1.358 . S
C563 H605 0.930 . S
C564 N561 1.314 . S
C564 C562 1.353 1_545 S
C564 H606 0.930 . S
C565 N561 1.279 1_565 S
C565 C563 1.358 . S
C565 H607 0.930 . S
C566 C567 1.348 . S
C566 C568 1.356 . S
C566 O591 1.325 . S
C567 C566 1.348 . S
C567 C569 1.353 . S
C567 H608 0.929 . S
C568 C566 1.356 . S
C568 C570 1.358 . S
C568 H609 0.930 . S
C569 C567 1.353 . S
C569 N571 1.314 . S
C569 H610 0.930 . S
C570 C568 1.358 . S
C570 N571 1.279 . S
C570 H611 0.930 . S
N571 C569 1.314 . S
N571 C570 1.279 . S
C572 C574 1.353 . S
C572 N575 1.314 . S
C572 H578 0.930 . S
C573 N575 1.279 . S
C573 C576 1.358 . S
C573 H579 0.930 . S
C574 C572 1.353 . S
C574 C577 1.348 . S
C574 H612 0.929 . S
N575 Li530 1.990 . S
N575 C572 1.314 . S
N575 C573 1.279 . S
C576 C573 1.358 . S
C576 C577 1.356 . S
C576 H613 0.930 . S
C577 C574 1.348 . S
C577 C576 1.356 . S
H578 C572 0.930 . S
H579 C573 0.930 . S
C580 N581 1.314 . S
C580 C582 1.353 . S
C580 H586 0.930 . S
N581 Li531 1.990 . S
N581 C580 1.314 . S
N581 C584 1.279 . S
C582 C580 1.353 . S
C582 C585 1.348 . S
C582 H614 0.929 . S
C583 C584 1.358 . S
C583 C585 1.356 . S
C583 H615 0.930 . S
C584 N581 1.279 . S
C584 C583 1.358 . S
C584 H587 0.930 . S
C585 C582 1.348 . S
C585 C583 1.356 . S
H586 C580 0.930 . S
H587 C584 0.930 . S
O588 Li528 1.956 . S
O588 Li529 1.970 . S
O588 Li530 1.961 . S
O588 C532 1.325 . S
O589 Li528 1.970 . S
O589 Li529 1.956 . S
O589 Li531 1.961 . S
O589 C538 1.325 . S
O590 Li528 1.961 . S
O590 Li530 1.956 . S
O590 Li531 1.970 . S
O590 C560 1.325 . S
O591 Li529 1.961 . S
O591 Li530 1.970 . S
O591 Li531 1.956 . S
O591 C566 1.325 . S
H592 C534 0.929 . S
H593 C535 0.930 . S
H594 C536 0.930 . S
H595 C537 0.930 . S
H596 C539 0.930 . S
H597 C541 0.929 . S
H598 C542 0.930 . S
H599 C543 0.930 . S
H600 C546 0.930 . S
H601 C549 0.929 . S
H602 C554 0.929 . S
H603 C555 0.930 . S
H604 C562 0.929 . S
H605 C563 0.930 . S
H606 C564 0.930 . S
H607 C565 0.930 . S
H608 C567 0.929 . S
H609 C568 0.930 . S
H610 C569 0.930 . S
H611 C570 0.930 . S
H612 C574 0.929 . S
H613 C576 0.930 . S
H614 C582 0.929 . S
H615 C583 0.930 . S
Li616 N633 1.990 . S
Li616 O676 1.956 . S
Li616 O677 1.970 . S
Li616 O678 1.961 . S
Li617 N641 1.990 . S
Li617 O676 1.970 . S
Li617 O677 1.956 . S
Li617 O679 1.961 . S
Li618 N663 1.990 . S
Li618 O676 1.961 . S
Li618 O678 1.956 . S
Li618 O679 1.970 . S
Li619 N669 1.990 . S
Li619 O677 1.961 . S
Li619 O678 1.970 . S
Li619 O679 1.956 . S
C620 C622 1.348 . S
C620 C623 1.356 . S
C620 O676 1.325 . S
N621 C624 1.314 . S
N621 C625 1.279 . S
C622 C620 1.348 . S
C622 C624 1.353 . S
C622 H680 0.929 . S
C623 C620 1.356 . S
C623 C625 1.358 . S
C623 H681 0.930 . S
C624 N621 1.314 . S
C624 C622 1.353 . S
C624 H682 0.930 . S
C625 N621 1.279 . S
C625 C623 1.358 . S
C625 H683 0.930 . S
C626 C629 1.348 . S
C626 C630 1.356 . S
C626 O677 1.325 . S
C627 N628 1.279 . S
C627 C630 1.358 . S
C627 H684 0.930 . S
N628 C627 1.279 . S
N628 C631 1.314 . S
C629 C626 1.348 . S
C629 C631 1.353 . S
C629 H685 0.929 . S
C630 C626 1.356 . S
C630 C627 1.358 . S
C630 H686 0.930 . S
C631 N628 1.314 . S
C631 C629 1.353 . S
C631 H687 0.930 . S
C632 N633 1.314 . S
C632 C637 1.353 . S
C632 H638 0.930 . S
N633 Li616 1.990 . S
N633 C632 1.314 . S
N633 C635 1.279 . S
C634 C635 1.358 . S
C634 C636 1.356 . S
C634 H688 0.930 . S
C635 N633 1.279 . S
C635 C634 1.358 . S
C635 H639 0.930 . S
C636 C634 1.356 . S
C636 C637 1.348 . S
C637 C632 1.353 . S
C637 C636 1.348 . S
C637 H689 0.929 . S
H638 C632 0.930 . S
H639 C635 0.930 . S
C640 N641 1.314 . S
C640 C642 1.353 . S
C640 H646 0.930 . S
N641 Li617 1.990 . S
N641 C640 1.314 . S
N641 C644 1.279 . S
C642 C640 1.353 . S
C642 C645 1.348 . S
C642 H690 0.929 . S
C643 C644 1.358 . S
C643 C645 1.356 . S
C643 H691 0.930 . S
C644 N641 1.279 . S
C644 C643 1.358 . S
C644 H647 0.930 . S
C645 C642 1.348 . S
C645 C643 1.356 . S
H646 C640 0.930 . S
H647 C644 0.930 . S
C648 C650 1.348 . S
C648 C651 1.356 . S
C648 O678 1.325 . S
N649 C652 1.314 . S
N649 C653 1.279 . S
C650 C648 1.348 . S
C650 C652 1.353 . S
C650 H692 0.929 . S
C651 C648 1.356 . S
C651 C653 1.358 . S
C651 H693 0.930 . S
C652 N649 1.314 . S
C652 C650 1.353 . S
C652 H694 0.930 . S
C653 N649 1.279 . S
C653 C651 1.358 . S
C653 H695 0.930 . S
C654 C655 1.348 . S
C654 C656 1.356 . S
C654 O679 1.325 . S
C655 C654 1.348 . S
C655 C657 1.353 . S
C655 H696 0.929 . S
C656 C654 1.356 . S
C656 C658 1.358 . S
C656 H697 0.930 . S
C657 C655 1.353 . S
C657 N659 1.314 . S
C657 H698 0.930 . S
C658 C656 1.358 . S
C658 N659 1.279 . S
C658 H699 0.930 . S
N659 C657 1.314 . S
N659 C658 1.279 . S
C660 C662 1.353 . S
C660 N663 1.314 . S
C660 H666 0.930 . S
C661 N663 1.279 . S
C661 C664 1.358 . S
C661 H667 0.930 . S
C662 C660 1.353 . S
C662 C665 1.348 . S
C662 H700 0.929 . S
N663 Li618 1.990 . S
N663 C660 1.314 . S
N663 C661 1.279 . S
C664 C661 1.358 . S
C664 C665 1.356 . S
C664 H701 0.930 . S
C665 C662 1.348 . S
C665 C664 1.356 . S
H666 C660 0.930 . S
H667 C661 0.930 . S
C668 N669 1.314 . S
C668 C670 1.353 . S
C668 H674 0.930 . S
N669 Li619 1.990 . S
N669 C668 1.314 . S
N669 C672 1.279 . S
C670 C668 1.353 . S
C670 C673 1.348 . S
C670 H702 0.929 . S
C671 C672 1.358 . S
C671 C673 1.356 . S
C671 H703 0.930 . S
C672 N669 1.279 . S
C672 C671 1.358 . S
C672 H675 0.930 . S
C673 C670 1.348 . S
C673 C671 1.356 . S
H674 C668 0.930 . S
H675 C672 0.930 . S
O676 Li616 1.956 . S
O676 Li617 1.970 . S
O676 Li618 1.961 . S
O676 C620 1.325 . S
O677 Li616 1.970 . S
O677 Li617 1.956 . S
O677 Li619 1.961 . S
O677 C626 1.325 . S
O678 Li616 1.961 . S
O678 Li618 1.956 . S
O678 Li619 1.970 . S
O678 C648 1.325 . S
O679 Li617 1.961 . S
O679 Li618 1.970 . S
O679 Li619 1.956 . S
O679 C654 1.325 . S
H680 C622 0.929 . S
H681 C623 0.930 . S
H682 C624 0.930 . S
H683 C625 0.930 . S
H684 C627 0.930 . S
H685 C629 0.929 . S
H686 C630 0.930 . S
H687 C631 0.930 . S
H688 C634 0.930 . S
H689 C637 0.929 . S
H690 C642 0.929 . S
H691 C643 0.930 . S
H692 C650 0.929 . S
H693 C651 0.930 . S
H694 C652 0.930 . S
H695 C653 0.930 . S
H696 C655 0.929 . S
H697 C656 0.930 . S
H698 C657 0.930 . S
H699 C658 0.930 . S
H700 C662 0.929 . S
H701 C664 0.930 . S
H702 C670 0.929 . S
H703 C671 0.930 . S
Li704 N721 1.990 . S
Li704 O764 1.956 . S
Li704 O765 1.970 . S
Li704 O766 1.961 . S
Li705 N729 1.990 . S
Li705 O764 1.970 . S
Li705 O765 1.956 . S
Li705 O767 1.961 . S
Li706 N751 1.990 . S
Li706 O764 1.961 . S
Li706 O766 1.956 . S
Li706 O767 1.970 . S
Li707 N757 1.990 . S
Li707 O765 1.961 . S
Li707 O766 1.970 . S
Li707 O767 1.956 . S
C708 C710 1.348 . S
C708 C711 1.356 . S
C708 O764 1.325 . S
N709 C712 1.314 . S
N709 C713 1.279 . S
C710 C708 1.348 . S
C710 C712 1.353 . S
C710 H768 0.929 . S
C711 C708 1.356 . S
C711 C713 1.358 . S
C711 H769 0.930 . S
C712 N709 1.314 . S
C712 C710 1.353 . S
C712 H770 0.930 . S
C713 N709 1.279 . S
C713 C711 1.358 . S
C713 H771 0.930 . S
C714 C717 1.348 . S
C714 C718 1.356 . S
C714 O765 1.325 . S
C715 N716 1.279 . S
C715 C718 1.358 . S
C715 H772 0.930 . S
N716 C715 1.279 . S
N716 C719 1.314 . S
C717 C714 1.348 . S
C717 C719 1.353 . S
C717 H773 0.929 . S
C718 C714 1.356 . S
C718 C715 1.358 . S
C718 H774 0.930 . S
C719 N716 1.314 . S
C719 C717 1.353 . S
C719 H775 0.930 . S
C720 N721 1.314 . S
C720 C725 1.353 . S
C720 H726 0.930 . S
N721 Li704 1.990 . S
N721 C720 1.314 . S
N721 C723 1.279 . S
C722 C723 1.358 . S
C722 C724 1.356 . S
C722 H776 0.930 . S
C723 N721 1.279 . S
C723 C722 1.358 . S
C723 H727 0.930 . S
C724 C722 1.356 . S
C724 C725 1.348 . S
C725 C720 1.353 . S
C725 C724 1.348 . S
C725 H777 0.929 . S
H726 C720 0.930 . S
H727 C723 0.930 . S
C728 N729 1.314 . S
C728 C730 1.353 . S
C728 H734 0.930 . S
N729 Li705 1.990 . S
N729 C728 1.314 . S
N729 C732 1.279 . S
C730 C728 1.353 . S
C730 C733 1.348 . S
C730 H778 0.929 . S
C731 C732 1.358 . S
C731 C733 1.356 . S
C731 H779 0.930 . S
C732 N729 1.279 . S
C732 C731 1.358 . S
C732 H735 0.930 . S
C733 C730 1.348 . S
C733 C731 1.356 . S
H734 C728 0.930 . S
H735 C732 0.930 . S
C736 C738 1.348 . S
C736 C739 1.356 . S
C736 O766 1.325 . S
N737 C740 1.314 . S
N737 C741 1.279 . S
C738 C736 1.348 . S
C738 C740 1.353 . S
C738 H780 0.929 . S
C739 C736 1.356 . S
C739 C741 1.358 . S
C739 H781 0.930 . S
C740 N737 1.314 . S
C740 C738 1.353 . S
C740 H782 0.930 . S
C741 N737 1.279 . S
C741 C739 1.358 . S
C741 H783 0.930 . S
C742 C743 1.348 . S
C742 C744 1.356 . S
C742 O767 1.325 . S
C743 C742 1.348 . S
C743 C745 1.353 . S
C743 H784 0.929 . S
C744 C742 1.356 . S
C744 C746 1.358 . S
C744 H785 0.930 . S
C745 C743 1.353 . S
C745 N747 1.314 . S
C745 H786 0.930 . S
C746 C744 1.358 . S
C746 N747 1.279 . S
C746 H787 0.930 . S
N747 C745 1.314 . S
N747 C746 1.279 . S
C748 C750 1.353 . S
C748 N751 1.314 . S
C748 H754 0.930 . S
C749 N751 1.279 . S
C749 C752 1.358 . S
C749 H755 0.930 . S
C750 C748 1.353 . S
C750 C753 1.348 . S
C750 H788 0.929 . S
N751 Li706 1.990 . S
N751 C748 1.314 . S
N751 C749 1.279 . S
C752 C749 1.358 . S
C752 C753 1.356 . S
C752 H789 0.930 . S
C753 C750 1.348 . S
C753 C752 1.356 . S
H754 C748 0.930 . S
H755 C749 0.930 . S
C756 N757 1.314 . S
C756 C758 1.353 . S
C756 H762 0.930 . S
N757 Li707 1.990 . S
N757 C756 1.314 . S
N757 C760 1.279 . S
C758 C756 1.353 . S
C758 C761 1.348 . S
C758 H790 0.929 . S
C759 C760 1.358 . S
C759 C761 1.356 . S
C759 H791 0.930 . S
C760 N757 1.279 . S
C760 C759 1.358 . S
C760 H763 0.930 . S
C761 C758 1.348 . S
C761 C759 1.356 . S
H762 C756 0.930 . S
H763 C760 0.930 . S
O764 Li704 1.956 . S
O764 Li705 1.970 . S
O764 Li706 1.961 . S
O764 C708 1.325 . S
O765 Li704 1.970 . S
O765 Li705 1.956 . S
O765 Li707 1.961 . S
O765 C714 1.325 . S
O766 Li704 1.961 . S
O766 Li706 1.956 . S
O766 Li707 1.970 . S
O766 C736 1.325 . S
O767 Li705 1.961 . S
O767 Li706 1.970 . S
O767 Li707 1.956 . S
O767 C742 1.325 . S
H768 C710 0.929 . S
H769 C711 0.930 . S
H770 C712 0.930 . S
H771 C713 0.930 . S
H772 C715 0.930 . S
H773 C717 0.929 . S
H774 C718 0.930 . S
H775 C719 0.930 . S
H776 C722 0.930 . S
H777 C725 0.929 . S
H778 C730 0.929 . S
H779 C731 0.930 . S
H780 C738 0.929 . S
H781 C739 0.930 . S
H782 C740 0.930 . S
H783 C741 0.930 . S
H784 C743 0.929 . S
H785 C744 0.930 . S
H786 C745 0.930 . S
H787 C746 0.930 . S
H788 C750 0.929 . S
H789 C752 0.930 . S
H790 C758 0.929 . S
H791 C759 0.930 . S
C792 C793 1.387 1_554 S
C792 H796 0.950 . S
C792 C801 1.390 . S
C793 C792 1.387 1_556 S
C793 C795 1.387 . S
H794 C801 0.950 . S
C795 C793 1.387 . S
C795 C797 1.390 . S
C795 H799 0.950 . S
H796 C792 0.950 . S
C797 C795 1.390 . S
C797 C798 1.387 1_556 S
C797 H800 0.950 . S
C798 C797 1.387 1_554 S
C798 C801 1.387 . S
H799 C795 0.950 . S
H800 C797 0.950 . S
C801 C792 1.390 . S
C801 H794 0.950 . S
C801 C798 1.387 . S
C802 C803 1.387 1_545 S
C802 H806 0.950 1_545 S
C802 C811 1.390 1_554 S
C803 C802 1.387 1_565 S
C803 C805 1.387 1_565 S
H804 C811 0.950 . S
C805 C803 1.387 1_545 S
C805 C807 1.390 1_554 S
C805 H809 0.950 1_545 S
H806 C802 0.950 1_565 S
C807 C805 1.390 1_556 S
C807 C808 1.387 . S
C807 H810 0.950 . S
C808 C807 1.387 . S
C808 C811 1.387 . S
H809 C805 0.950 1_565 S
H810 C807 0.950 . S
C811 C802 1.390 1_556 S
C811 H804 0.950 . S
C811 C808 1.387 . S
C812 C813 1.387 1_554 S
C812 H816 0.950 . S
C812 C821 1.390 1_655 S
C813 C812 1.387 1_556 S
C813 C815 1.387 1_655 S
H814 C821 0.950 . S
C815 C813 1.387 1_455 S
C815 C817 1.390 . S
C815 H819 0.950 . S
H816 C812 0.950 . S
C817 C815 1.390 . S
C817 C818 1.387 1_556 S
C817 H820 0.950 . S
C818 C817 1.387 1_554 S
C818 C821 1.387 . S
H819 C815 0.950 . S
H820 C817 0.950 . S
C821 C812 1.390 1_455 S
C821 H814 0.950 . S
C821 C818 1.387 . S
C822 C823 1.387 . S
C822 H826 0.950 . S
C822 C831 1.390 . S
C823 C822 1.387 . S
C823 C825 1.387 . S
H824 C831 0.950 . S
C825 C823 1.387 . S
C825 C827 1.390 . S
C825 H829 0.950 . S
H826 C822 0.950 . S
C827 C825 1.390 . S
C827 C828 1.387 . S
C827 H830 0.950 . S
C828 C827 1.387 . S
C828 C831 1.387 . S
H829 C825 0.950 . S
H830 C827 0.950 . S
C831 C822 1.390 . S
C831 H824 0.950 . S
C831 C828 1.387 . S
C832 C833 1.387 . S
C832 H836 0.950 . S
C832 C841 1.390 . S
C833 C832 1.387 . S
C833 C835 1.387 . S
H834 C841 0.950 . S
C835 C833 1.387 . S
C835 C837 1.390 . S
C835 H839 0.950 . S
H836 C832 0.950 . S
C837 C835 1.390 . S
C837 C838 1.387 . S
C837 H840 0.950 . S
C838 C837 1.387 . S
C838 C841 1.387 . S
H839 C835 0.950 . S
H840 C837 0.950 . S
C841 C832 1.390 . S
C841 H834 0.950 . S
C841 C838 1.387 . S
C842 C843 1.387 . S
C842 H846 0.950 . S
C842 C851 1.390 . S
C843 C842 1.387 . S
C843 C845 1.387 . S
H844 C851 0.950 . S
C845 C843 1.387 . S
C845 C847 1.390 . S
C845 H849 0.950 . S
H846 C842 0.950 . S
C847 C845 1.390 . S
C847 C848 1.387 . S
C847 H850 0.950 . S
C848 C847 1.387 . S
C848 C851 1.387 . S
H849 C845 0.950 . S
H850 C847 0.950 . S
C851 C842 1.390 . S
C851 H844 0.950 . S
C851 C848 1.387 . S
C852 C853 1.387 . S
C852 H856 0.950 . S
C852 C861 1.390 . S
C853 C852 1.387 . S
C853 C855 1.387 . S
H854 C861 0.950 . S
C855 C853 1.387 . S
C855 C857 1.390 . S
C855 H859 0.950 . S
H856 C852 0.950 . S
C857 C855 1.390 . S
C857 C858 1.387 . S
C857 H860 0.950 . S
C858 C857 1.387 . S
C858 C861 1.387 . S
H859 C855 0.950 . S
H860 C857 0.950 . S
C861 C852 1.390 . S
C861 H854 0.950 . S
C861 C858 1.387 . S
C862 C863 1.387 . S
C862 H866 0.950 . S
C862 C871 1.390 . S
C863 C862 1.387 . S
C863 C865 1.387 . S
H864 C871 0.950 . S
C865 C863 1.387 . S
C865 C867 1.390 . S
C865 H869 0.950 . S
H866 C862 0.950 . S
C867 C865 1.390 . S
C867 C868 1.387 . S
C867 H870 0.950 . S
C868 C867 1.387 . S
C868 C871 1.387 . S
H869 C865 0.950 . S
H870 C867 0.950 . S
C871 C862 1.390 . S
C871 H864 0.950 . S
C871 C868 1.387 . S
C872 C873 1.387 . S
C872 H876 0.950 . S
C872 C881 1.390 . S
C873 C872 1.387 . S
C873 C875 1.387 . S
H874 C881 0.950 . S
C875 C873 1.387 . S
C875 C877 1.390 . S
C875 H879 0.950 . S
H876 C872 0.950 . S
C877 C875 1.390 . S
C877 C878 1.387 . S
C877 H880 0.950 . S
C878 C877 1.387 . S
C878 C881 1.387 . S
H879 C875 0.950 . S
H880 C877 0.950 . S
C881 C872 1.390 . S
C881 H874 0.950 . S
C881 C878 1.387 . S
C882 C883 1.387 . S
C882 H886 0.950 . S
C882 C891 1.390 . S
C883 C882 1.387 . S
C883 C885 1.387 . S
H884 C891 0.950 . S
C885 C883 1.387 . S
C885 C887 1.390 . S
C885 H889 0.950 . S
H886 C882 0.950 . S
C887 C885 1.390 . S
C887 C888 1.387 . S
C887 H890 0.950 . S
C888 C887 1.387 . S
C888 C891 1.387 . S
H889 C885 0.950 . S
H890 C887 0.950 . S
C891 C882 1.390 . S
C891 H884 0.950 . S
C891 C888 1.387 . S
C892 C893 1.387 . S
C892 H896 0.950 . S
C892 C901 1.390 . S
C893 C892 1.387 . S
C893 C895 1.387 . S
H894 C901 0.950 . S
C895 C893 1.387 . S
C895 C897 1.390 . S
C895 H899 0.950 . S
H896 C892 0.950 . S
C897 C895 1.390 . S
C897 C898 1.387 . S
C897 H900 0.950 . S
C898 C897 1.387 . S
C898 C901 1.387 . S
H899 C895 0.950 . S
H900 C897 0.950 . S
C901 C892 1.390 . S
C901 H894 0.950 . S
C901 C898 1.387 . S
C902 C903 1.387 . S
C902 H906 0.950 . S
C902 C911 1.390 . S
C903 C902 1.387 . S
C903 C905 1.387 . S
H904 C911 0.950 . S
C905 C903 1.387 . S
C905 C907 1.390 1_565 S
C905 H909 0.950 1_565 S
H906 C902 0.950 . S
C907 C905 1.390 1_545 S
C907 C908 1.387 1_545 S
C907 H910 0.950 . S
C908 C907 1.387 1_565 S
C908 C911 1.387 . S
H909 C905 0.950 1_545 S
H910 C907 0.950 . S
C911 C902 1.390 . S
C911 H904 0.950 . S
C911 C908 1.387 . S
C912 C913 1.387 . S
C912 H916 0.950 . S
C912 C921 1.390 . S
C913 C912 1.387 . S
C913 C915 1.387 . S
H914 C921 0.950 . S
C915 C913 1.387 . S
C915 C917 1.390 . S
C915 H919 0.950 . S
H916 C912 0.950 . S
C917 C915 1.390 . S
C917 C918 1.387 . S
C917 H920 0.950 . S
C918 C917 1.387 . S
C918 C921 1.387 . S
H919 C915 0.950 . S
H920 C917 0.950 . S
C921 C912 1.390 . S
C921 H914 0.950 . S
C921 C918 1.387 . S
C922 C923 1.387 . S
C922 H926 0.950 1_655 S
C922 C931 1.390 . S
C923 C922 1.387 . S
C923 C925 1.387 . S
H924 C931 0.950 . S
C925 C923 1.387 . S
C925 C927 1.390 . S
C925 H929 0.950 . S
H926 C922 0.950 1_455 S
C927 C925 1.390 . S
C927 C928 1.387 . S
C927 H930 0.950 . S
C928 C927 1.387 . S
C928 C931 1.387 . S
H929 C925 0.950 . S
H930 C927 0.950 . S
C931 C922 1.390 . S
C931 H924 0.950 . S
C931 C928 1.387 . S
C932 C933 1.387 . S
C932 H936 0.950 . S
C932 C941 1.390 . S
C933 C932 1.387 . S
C933 C935 1.387 . S
H934 C941 0.950 . S
C935 C933 1.387 . S
C935 C937 1.390 . S
C935 H939 0.950 . S
H936 C932 0.950 . S
C937 C935 1.390 . S
C937 C938 1.387 . S
C937 H940 0.950 . S
C938 C937 1.387 . S
C938 C941 1.387 . S
H939 C935 0.950 . S
H940 C937 0.950 . S
C941 C932 1.390 . S
C941 H934 0.950 . S
C941 C938 1.387 . S
C942 C943 1.387 . S
C942 H946 0.950 . S
C942 C951 1.390 . S
C943 C942 1.387 . S
C943 C945 1.387 . S
H944 C951 0.950 . S
C945 C943 1.387 . S
C945 C947 1.390 1_455 S
C945 H949 0.950 . S
H946 C942 0.950 . S
C947 C945 1.390 1_655 S
C947 C948 1.387 . S
C947 H950 0.950 . S
C948 C947 1.387 . S
C948 C951 1.387 1_655 S
H949 C945 0.950 . S
H950 C947 0.950 . S
C951 C942 1.390 . S
C951 H944 0.950 . S
C951 C948 1.387 1_455 S
C952 C953 1.387 . S
C952 H956 0.950 . S
C952 C961 1.390 . S
C953 C952 1.387 . S
C953 C955 1.387 . S
H954 C961 0.950 . S
C955 C953 1.387 . S
C955 C957 1.390 . S
C955 H959 0.950 . S
H956 C952 0.950 . S
C957 C955 1.390 . S
C957 C958 1.387 . S
C957 H960 0.950 . S
C958 C957 1.387 . S
C958 C961 1.387 . S
H959 C955 0.950 . S
H960 C957 0.950 . S
C961 C952 1.390 . S
C961 H954 0.950 . S
C961 C958 1.387 . S
C962 C963 1.387 1_545 S
C962 H966 0.946 1_545 S
C962 C971 1.390 . S
C963 C962 1.387 1_565 S
C963 C965 1.387 1_565 S
H964 C971 0.950 . S
C965 C963 1.387 1_545 S
C965 C967 1.390 . S
C965 H969 0.951 1_545 S
H966 C962 0.946 1_565 S
C967 C965 1.390 . S
C967 C968 1.387 . S
C967 H970 0.950 . S
C968 C967 1.387 . S
C968 C971 1.387 . S
H969 C965 0.951 1_565 S
H970 C967 0.950 . S
C971 C962 1.390 . S
C971 H964 0.950 . S
C971 C968 1.387 . S
C793 C196 1.351 . S
C798 C49 1.353 . S
C803 C145 1.353 . S
C808 C29 1.353 . S
C813 C108 1.350 . S
C818 C233 1.353 . S
C823 C469 1.351 . S
C828 C321 1.353 . S
C833 C409 1.349 . S
C838 C284 1.349 . S
C843 C372 1.353 . S
C848 C489 1.351 . S
C853 C577 1.348 . S
C858 C724 1.350 . S
C863 C557 1.349 . S
C868 C665 1.349 . S
C873 C645 1.349 . S
C878 C761 1.351 . S
C883 C57 1.276 . S
C888 C636 1.276 . S
C893 C137 1.277 . S
C898 C733 1.277 . S
C903 C548 1.277 . S
C908 C225 1.277 . S
C913 C401 1.277 . S
C918 C205 1.277 . S
C923 C20 1.277 . S
C928 C497 1.276 . S
C933 C313 1.277 . S
C938 C117 1.277 . S
C943 C673 1.277 . S
C948 C460 1.277 . S
C953 C293 1.276 . S
C958 C753 1.277 . S
C963 C585 1.277 . S
C968 C381 1.277 . S
