# Generated by pormake.
# Topology vcj, (7)-cn, num edge types: 1
# Building blocks:
#     Node 0, Type 0, BuildingBlock: HICVOG_clean_sbu_0, # of connection points: 7
#     Node 1, Type 0, BuildingBlock: HICVOG_clean_sbu_0, # of connection points: 7
#     Node 2, Type 0, BuildingBlock: HICVOG_clean_sbu_0, # of connection points: 7
#     Node 3, Type 0, BuildingBlock: HICVOG_clean_sbu_0, # of connection points: 7
#     Node 4, Type 0, BuildingBlock: HICVOG_clean_sbu_0, # of connection points: 7
#     Node 5, Type 0, BuildingBlock: HICVOG_clean_sbu_0, # of connection points: 7
#     Node 6, Type 0, BuildingBlock: HICVOG_clean_sbu_0, # of connection points: 7
#     Node 7, Type 0, BuildingBlock: HICVOG_clean_sbu_0, # of connection points: 7
#     Edge 8, Type (0, 0), BuildingBlock: EZIPEK_clean_linker_0, # of connection points: 2
#     Edge 9, Type (0, 0), BuildingBlock: EZIPEK_clean_linker_0, # of connection points: 2
#     Edge 10, Type (0, 0), BuildingBlock: EZIPEK_clean_linker_0, # of connection points: 2
#     Edge 11, Type (0, 0), BuildingBlock: EZIPEK_clean_linker_0, # of connection points: 2
#     Edge 12, Type (0, 0), BuildingBlock: EZIPEK_clean_linker_0, # of connection points: 2
#     Edge 13, Type (0, 0), BuildingBlock: EZIPEK_clean_linker_0, # of connection points: 2
#     Edge 14, Type (0, 0), BuildingBlock: EZIPEK_clean_linker_0, # of connection points: 2
#     Edge 15, Type (0, 0), BuildingBlock: EZIPEK_clean_linker_0, # of connection points: 2
#     Edge 16, Type (0, 0), BuildingBlock: EZIPEK_clean_linker_0, # of connection points: 2
#     Edge 17, Type (0, 0), BuildingBlock: EZIPEK_clean_linker_0, # of connection points: 2
#     Edge 18, Type (0, 0), BuildingBlock: EZIPEK_clean_linker_0, # of connection points: 2
#     Edge 19, Type (0, 0), BuildingBlock: EZIPEK_clean_linker_0, # of connection points: 2
#     Edge 20, Type (0, 0), BuildingBlock: EZIPEK_clean_linker_0, # of connection points: 2
#     Edge 21, Type (0, 0), BuildingBlock: EZIPEK_clean_linker_0, # of connection points: 2
#     Edge 22, Type (0, 0), BuildingBlock: EZIPEK_clean_linker_0, # of connection points: 2
#     Edge 23, Type (0, 0), BuildingBlock: EZIPEK_clean_linker_0, # of connection points: 2
#     Edge 24, Type (0, 0), BuildingBlock: EZIPEK_clean_linker_0, # of connection points: 2
#     Edge 25, Type (0, 0), BuildingBlock: EZIPEK_clean_linker_0, # of connection points: 2
#     Edge 26, Type (0, 0), BuildingBlock: EZIPEK_clean_linker_0, # of connection points: 2
#     Edge 27, Type (0, 0), BuildingBlock: EZIPEK_clean_linker_0, # of connection points: 2
#     Edge 28, Type (0, 0), BuildingBlock: EZIPEK_clean_linker_0, # of connection points: 2
#     Edge 29, Type (0, 0), BuildingBlock: EZIPEK_clean_linker_0, # of connection points: 2
#     Edge 30, Type (0, 0), BuildingBlock: EZIPEK_clean_linker_0, # of connection points: 2
#     Edge 31, Type (0, 0), BuildingBlock: EZIPEK_clean_linker_0, # of connection points: 2
#     Edge 32, Type (0, 0), BuildingBlock: EZIPEK_clean_linker_0, # of connection points: 2
#     Edge 33, Type (0, 0), BuildingBlock: EZIPEK_clean_linker_0, # of connection points: 2
#     Edge 34, Type (0, 0), BuildingBlock: EZIPEK_clean_linker_0, # of connection points: 2
#     Edge 35, Type (0, 0), BuildingBlock: EZIPEK_clean_linker_0, # of connection points: 2
# Relax obj value: 0.127
# Max RMSD: 0.196
# Mean RMSD: 0.196
data_MOF--net-vcj--node1-HICVOG_clean_sbu_0--edge1-EZIPEK_clean_linker_0
_symmetry_space_group_name_H-M    P1
_symmetry_Int_Tables_number       1
_symmetry_cell_setting            triclinic
loop_
_symmetry_equiv_pos_as_xyz
'x, y, z'
_cell_length_a     27.467944
_cell_length_b     34.240782
_cell_length_c     16.93624
_cell_angle_alpha  89.763432
_cell_angle_beta   89.930736
_cell_angle_gamma 90.001613
loop_
_atom_site_label
_atom_site_type_symbol
_atom_site_fract_x
_atom_site_fract_y
_atom_site_fract_z
_atom_type_partial_charge
Zn0 Zn 0.3336 0.43791 0.25569 0.0
C1 C 0.41469 0.48838 0.08579 0.0
N2 N 0.3752 0.5105 0.07331 0.0
C3 C 0.3408 0.49296 0.11726 0.0
N4 N 0.35881 0.46154 0.15666 0.0
N5 N 0.4048 0.45757 0.1339 0.0
C6 C 0.53102 0.41762 0.18869 0.0
O7 O 0.50384 0.4196 0.25236 0.0
O8 O 0.26056 0.43674 0.26563 0.0
Zn9 Zn 0.43724 0.40634 0.13278 0.0
N10 N 0.35388 0.47042 0.34417 0.0
C11 C 0.41619 0.49678 0.42604 0.0
C12 C 0.40199 0.47576 0.35924 0.0
C13 C 0.31939 0.48532 0.39349 0.0
N14 N 0.3817 0.51162 0.47527 0.0
C15 C 0.33345 0.50625 0.4609 0.0
O16 O 0.42927 0.37255 0.23024 0.0
C17 C 0.39592 0.363 0.2786 0.0
O18 O 0.35704 0.38301 0.28542 0.0
H19 H 0.42903 0.46339 0.32021 0.0
H20 H 0.28122 0.48086 0.38092 0.0
C21 C 0.42429 0.34706 1.00061 0.0
C22 C 0.39289 0.32083 0.96033 0.0
C23 C 0.32508 0.34888 0.02572 0.0
C24 C 0.35598 0.37318 0.06772 0.0
N25 N 0.40474 0.37289 0.05366 0.0
N26 N 0.34419 0.32325 0.97371 0.0
H27 H 0.46334 0.3456 0.9926 0.0
C28 C 0.22568 0.42733 0.22063 0.0
O29 O 0.23451 0.41623 0.14787 0.0
O30 O 0.51029 0.41329 0.12192 0.0
H31 H 0.34106 0.39163 0.11316 0.0
H32 H 0.45438 0.50121 0.43869 0.0
H33 H 0.28622 0.34953 0.03613 0.0
Zn34 Zn 0.16813 0.60969 0.75042 0.0
C35 C 0.08466 0.55625 0.58904 0.0
N36 N 0.12467 0.53479 0.57494 0.0
C37 C 0.15922 0.55284 0.61747 0.0
N38 N 0.14054 0.5834 0.6579 0.0
N39 N 0.09436 0.5871 0.63675 0.0
C40 C 0.9679 0.61928 0.67206 0.0
O41 O 0.99147 0.60108 0.72877 0.0
O42 O 0.24173 0.60839 0.7499 0.0
Zn43 Zn 0.06406 0.63931 0.64102 0.0
N44 N 0.14842 0.58074 0.84493 0.0
C45 C 0.08675 0.56402 0.93831 0.0
C46 C 0.10077 0.58102 0.8666 0.0
C47 C 0.18249 0.5633 0.89166 0.0
N48 N 0.12097 0.54755 0.9859 0.0
C49 C 0.16872 0.5469 0.96459 0.0
O50 O 0.06705 0.66697 0.74671 0.0
C51 C 0.10438 0.68143 0.77998 0.0
O52 O 0.14644 0.66626 0.77142 0.0
H53 H 0.07405 0.59488 0.82902 0.0
H54 H 0.22009 0.56259 0.8729 0.0
C55 C 0.08047 0.70443 0.52528 0.0
C56 C 0.11177 0.73002 0.48333 0.0
C57 C 0.18006 0.69534 0.532 0.0
C58 C 0.14941 0.67086 0.5748 0.0
N59 N 0.1002 0.67495 0.56979 0.0
N60 N 0.16063 0.72433 0.48768 0.0
H61 H 0.04141 0.70851 0.52394 0.0
C62 C 0.26351 0.63098 0.79782 0.0
O63 O 0.23806 0.65586 0.83984 0.0
O64 O 0.99207 0.63708 0.6188 0.0
H65 H 0.16521 0.64932 0.61338 0.0
H66 H 0.04896 0.56429 0.95635 0.0
H67 H 0.21915 0.69187 0.5354 0.0
Zn68 Zn 0.93917 0.13877 0.89547 0.0
C69 C 0.84541 0.05096 0.91382 0.0
N70 N 0.88023 0.03299 0.95597 0.0
C71 C 0.91976 0.05506 0.94255 0.0
N72 N 0.90948 0.0863 0.89567 0.0
N73 N 0.86337 0.08227 0.87442 0.0
C74 C 0.73716 0.13395 0.77132 0.0
O75 O 0.75796 0.16845 0.77456 0.0
O76 O 0.01152 0.13502 0.91443 0.0
Zn77 Zn 0.8364 0.10553 0.77797 0.0
N78 N 0.90345 0.17263 0.96964 0.0
C79 C 0.82319 0.19308 1.00436 0.0
C80 C 0.85433 0.16892 0.96223 0.0
C81 C 0.92272 0.20173 0.01523 0.0
N82 N 0.84211 0.2217 0.04973 0.0
C83 C 0.89092 0.22732 0.05585 0.0
O84 O 0.85899 0.16061 0.74695 0.0
C85 C 0.89871 0.17982 0.7491 0.0
O86 O 0.93362 0.17022 0.79434 0.0
H87 H 0.83908 0.14801 0.92195 0.0
H88 H 0.96175 0.20583 0.01763 0.0
C89 C 0.82213 0.05931 0.63806 0.0
C90 C 0.83676 0.03846 0.57079 0.0
C91 C 0.91918 0.04706 0.60791 0.0
C92 C 0.90448 0.0678 0.67477 0.0
N93 N 0.85628 0.07355 0.68862 0.0
N94 N 0.88508 0.03275 0.55756 0.0
H95 H 0.78389 0.06415 0.64984 0.0
C96 C 0.03339 0.12536 0.85113 0.0
O97 O 0.0074 0.11622 0.78884 0.0
O98 O 0.76307 0.1034 0.77769 0.0
H99 H 0.93121 0.07962 0.71491 0.0
H100 H 0.78414 0.18981 0.99931 0.0
H101 H 0.95745 0.04235 0.59619 0.0
Zn102 Zn 0.67118 0.93601 0.28021 0.0
C103 C 0.58912 0.9879 0.447 0.0
N104 N 0.62943 1.009 0.4611 0.0
C105 C 0.66334 0.99152 0.41613 0.0
N106 N 0.64421 0.96155 0.37462 0.0
N107 N 0.59822 0.95781 0.39695 0.0
C108 C 0.4722 0.92389 0.35647 0.0
O109 O 0.49622 0.94185 0.29993 0.0
O110 O 0.74482 0.93755 0.27836 0.0
Zn111 Zn 0.56784 0.90592 0.38959 0.0
N112 N 0.65102 0.96591 0.18716 0.0
C113 C 0.58946 0.98515 0.09577 0.0
C114 C 0.60328 0.96678 0.16618 0.0
C115 C 0.68536 0.98329 0.14079 0.0
N116 N 0.62395 1.00168 0.04862 0.0
C117 C 0.67182 1.001 0.06909 0.0
O118 O 0.57032 0.8815 0.28027 0.0
C119 C 0.60717 0.86531 0.24889 0.0
O120 O 0.64971 0.87943 0.25826 0.0
H121 H 0.57632 0.95281 0.20322 0.0
H122 H 0.72306 0.98306 0.1589 0.0
C123 C 0.58426 0.84235 0.51042 0.0
C124 C 0.61565 0.81687 0.55254 0.0
C125 C 0.68373 0.84668 0.49107 0.0
C126 C 0.65289 0.87104 0.44841 0.0
N127 N 0.60386 0.86929 0.45938 0.0
N128 N 0.66449 0.82017 0.54167 0.0
H129 H 0.54516 0.84015 0.51689 0.0
C130 C 0.76634 0.91513 0.22967 0.0
O131 O 0.74072 0.88986 0.18899 0.0
O132 O 0.49596 0.90721 0.41155 0.0
H133 H 0.66832 0.89141 0.40671 0.0
H134 H 0.55159 0.9859 0.07836 0.0
H135 H 0.72276 0.84846 0.48317 0.0
Zn136 Zn 0.56492 0.63772 0.90486 0.0
C137 C 0.6615 0.55223 0.90284 0.0
N138 N 0.62982 0.53303 0.94948 0.0
C139 C 0.58857 0.55377 0.94132 0.0
N140 N 0.59501 0.58525 0.89277 0.0
N141 N 0.64005 0.58243 0.86497 0.0
C142 C 0.75858 0.62957 0.71056 0.0
O143 O 0.73164 0.65213 0.66543 0.0
O144 O 0.49199 0.63386 0.91046 0.0
Zn145 Zn 0.66436 0.60582 0.76628 0.0
N146 N 0.5927 0.66327 0.99915 0.0
C147 C 0.65164 0.65893 0.10222 0.0
C148 C 0.62787 0.64277 0.03765 0.0
C149 C 0.58137 0.70048 0.02215 0.0
N150 N 0.64023 0.69561 0.12537 0.0
C151 C 0.60601 0.71717 0.0871 0.0
O152 O 0.63798 0.65946 0.73855 0.0
C153 C 0.60419 0.68311 0.7571 0.0
O154 O 0.57552 0.67634 0.81459 0.0
H155 H 0.63839 0.6143 0.0175 0.0
H156 H 0.55428 0.71702 0.9899 0.0
C157 C 0.67988 0.55661 0.63113 0.0
C158 C 0.66652 0.53771 0.56095 0.0
C159 C 0.58364 0.5505 0.58959 0.0
C160 C 0.59723 0.57016 0.65836 0.0
N161 N 0.64509 0.57305 0.67766 0.0
N162 N 0.61852 0.53489 0.54217 0.0
H163 H 0.71776 0.55877 0.64766 0.0
C164 C 0.47191 0.62087 0.84822 0.0
O165 O 0.49955 0.6078 0.79081 0.0
O166 O 0.73823 0.60796 0.76236 0.0
H167 H 0.57 0.58372 0.69524 0.0
H168 H 0.67953 0.64261 0.13306 0.0
H169 H 0.54566 0.54814 0.57349 0.0
Zn170 Zn 0.93839 0.40653 0.3918 0.0
C171 C 0.84235 0.49312 0.40748 0.0
N172 N 0.87632 0.51133 0.45062 0.0
C173 C 0.91645 0.48988 0.43818 0.0
N174 N 0.90735 0.45872 0.39091 0.0
N175 N 0.86136 0.4623 0.36837 0.0
C176 C 0.73719 0.40993 0.25881 0.0
O177 O 0.75887 0.37573 0.25937 0.0
O178 O 0.01144 0.41052 0.40301 0.0
Zn179 Zn 0.83537 0.44054 0.26994 0.0
N180 N 0.90394 0.37237 0.46803 0.0
C181 C 0.82357 0.35138 0.50123 0.0
C182 C 0.85487 0.37539 0.45871 0.0
C183 C 0.9231 0.3439 0.51592 0.0
N184 N 0.84232 0.32343 0.54887 0.0
C185 C 0.89112 0.31835 0.55695 0.0
O186 O 0.86014 0.3869 0.23581 0.0
C187 C 0.89872 0.36654 0.24265 0.0
O188 O 0.93157 0.37464 0.29264 0.0
H189 H 0.83983 0.39568 0.41661 0.0
H190 H 0.96214 0.3402 0.51979 0.0
C191 C 0.81916 0.48569 0.1286 0.0
C192 C 0.83241 0.50986 0.06487 0.0
C193 C 0.91344 0.51137 0.11282 0.0
C194 C 0.90004 0.48753 0.17636 0.0
N195 N 0.85322 0.4752 0.1832 0.0
N196 N 0.8794 0.5221 0.05872 0.0
H197 H 0.78204 0.47555 0.13478 0.0
C198 C 0.02941 0.42769 0.34281 0.0
O199 O 0.99994 0.44275 0.28993 0.0
O200 O 0.76219 0.44068 0.26906 0.0
H201 H 0.9267 0.47874 0.21972 0.0
H202 H 0.78455 0.35419 0.49467 0.0
H203 H 0.95061 0.52137 0.1067 0.0
Zn204 Zn 0.17019 0.93894 0.25894 0.0
C205 C 0.09115 0.98927 0.0882 0.0
N206 N 0.13176 1.01031 0.07557 0.0
C207 C 0.1651 0.99194 0.12038 0.0
N208 N 0.1453 0.96151 0.16017 0.0
N209 N 0.09944 0.95834 0.1369 0.0
C210 C 0.97376 0.9288 0.17246 0.0
O211 O 0.99976 0.94722 0.22566 0.0
O212 O 0.24372 0.93638 0.26115 0.0
Zn213 Zn 0.06762 0.90661 0.13735 0.0
N214 N 0.15186 0.97354 0.34513 0.0
C215 C 0.08948 1.00296 0.42261 0.0
C216 C 0.10386 0.98105 0.35717 0.0
C217 C 0.18616 0.98738 0.39589 0.0
N218 N 0.12365 1.01604 0.47416 0.0
C219 C 0.1718 1.00867 0.46264 0.0
O220 O 0.06989 0.87636 0.23994 0.0
C221 C 0.10335 0.86685 0.28803 0.0
O222 O 0.1432 0.88573 0.29231 0.0
H223 H 0.07699 0.96951 0.31696 0.0
H224 H 0.22421 0.98161 0.38504 0.0
C225 C 0.08426 0.84463 1.01426 0.0
C226 C 0.11588 0.81774 0.97663 0.0
C227 C 0.18307 0.84635 0.04235 0.0
C228 C 0.15188 0.87174 0.08133 0.0
N229 N 0.1033 0.87132 0.06581 0.0
N230 N 0.16442 0.81997 0.9914 0.0
H231 H 0.04534 0.84337 1.00478 0.0
C232 C 0.2636 0.91382 0.31166 0.0
O233 O 0.23633 0.89041 0.3545 0.0
O234 O 0.99559 0.91037 0.11772 0.0
H235 H 0.16643 0.89121 0.12525 0.0
H236 H 0.05136 1.00903 0.43298 0.0
H237 H 0.2218 0.84698 0.05389 0.0
Zn238 Zn 0.43984 0.13508 0.6265 0.0
C239 C 0.3412 0.05154 0.62766 0.0
N240 N 0.37289 0.03225 0.58161 0.0
C241 C 0.41434 0.05251 0.59051 0.0
N242 N 0.40806 0.08366 0.63929 0.0
N243 N 0.36281 0.08133 0.66632 0.0
C244 C 0.23768 0.13204 0.76992 0.0
O245 O 0.25483 0.16579 0.74532 0.0
O246 O 0.513 0.12768 0.628 0.0
Zn247 Zn 0.33976 0.10451 0.76595 0.0
N248 N 0.41498 0.15982 0.52842 0.0
C249 C 0.35547 0.15493 0.42639 0.0
C250 C 0.37976 0.13912 0.49084 0.0
C251 C 0.42623 0.19694 0.50378 0.0
N252 N 0.36636 0.19158 0.40224 0.0
C253 C 0.4007 0.2135 0.4391 0.0
O254 O 0.36379 0.15937 0.79087 0.0
C255 C 0.39718 0.18293 0.76939 0.0
O256 O 0.42574 0.17534 0.71227 0.0
H257 H 0.369 0.11095 0.51228 0.0
H258 H 0.45351 0.21363 0.53501 0.0
C259 C 0.32764 0.05724 0.90438 0.0
C260 C 0.34216 0.03659 0.97209 0.0
C261 C 0.42465 0.04665 0.93634 0.0
C262 C 0.40997 0.06746 0.86916 0.0
N263 N 0.36173 0.07237 0.85441 0.0
N264 N 0.39051 0.03163 0.98628 0.0
H265 H 0.28937 0.06138 0.89221 0.0
C266 C 0.53151 0.12723 0.69697 0.0
O267 O 0.50252 0.12958 0.75842 0.0
O268 O 0.26639 0.10316 0.77657 0.0
H269 H 0.43672 0.07999 0.82962 0.0
H270 H 0.3274 0.13844 0.3966 0.0
H271 H 0.46294 0.04256 0.94876 0.0
C272 C 0.27054 0.47974 0.02755 0.0
C273 C 0.28899 0.49908 0.09554 0.0
C274 C 0.22383 0.54796 0.08432 0.0
C275 C 0.20565 0.52821 0.01679 0.0
N276 N 0.20245 0.46957 0.93924 0.0
N277 N 0.27915 0.54714 0.19692 0.0
C278 C 0.22584 0.49204 0.9939 0.0
C279 C 0.26387 0.53161 0.12702 0.0
N280 N 0.2977 0.45177 0.99074 0.0
N281 N 0.20448 0.58324 0.10498 0.0
H282 H 0.3083 0.53534 0.22857 0.0
H283 H 0.26059 0.56901 0.227 0.0
H284 H 0.17483 0.59561 0.0757 0.0
H285 H 0.21918 0.60124 0.14818 0.0
H286 H 0.28886 0.44012 0.93587 0.0
H287 H 0.33145 0.44267 1.01139 0.0
H288 H 0.21293 0.4411 0.92595 0.0
H289 H 0.16969 0.47797 0.91305 0.0
C290 C 0.24206 0.52224 0.62893 0.0
C291 C 0.21091 0.54965 0.59184 0.0
C292 C 0.26978 0.55697 0.48327 0.0
C293 C 0.29595 0.52448 0.51261 0.0
N294 N 0.30898 0.47622 0.61429 0.0
N295 N 0.19353 0.59184 0.48052 0.0
C296 C 0.28323 0.50754 0.58664 0.0
C297 C 0.22483 0.56726 0.51887 0.0
N298 N 0.23163 0.51005 0.70394 0.0
N299 N 0.28801 0.578 0.42109 0.0
H300 H 0.16066 0.60086 0.50475 0.0
H301 H 0.19853 0.60125 0.42252 0.0
H302 H 0.32091 0.57108 0.3936 0.0
H303 H 0.27316 0.60435 0.40185 0.0
H304 H 0.25459 0.49244 0.73754 0.0
H305 H 0.20147 0.52048 0.73495 0.0
H306 H 0.29878 0.45984 0.66349 0.0
H307 H 0.33964 0.46533 0.58539 0.0
C308 C 0.77882 0.06404 1.01109 0.0
C309 C 0.79387 0.04651 0.93895 0.0
C310 C 0.72378 1.00213 0.94525 0.0
C311 C 0.70926 1.01966 0.01758 0.0
N312 N 0.71366 0.07469 0.10511 0.0
N313 N 0.77558 1.00552 0.82841 0.0
C314 C 0.73368 0.05321 0.04547 0.0
C315 C 0.76429 1.01789 0.90276 0.0
N316 N 0.80924 0.08893 0.05015 0.0
N317 N 0.70073 0.96917 0.91968 0.0
H318 H 0.80534 1.01664 0.79719 0.0
H319 H 0.75341 0.98713 0.79537 0.0
H320 H 0.67092 0.95702 0.94898 0.0
H321 H 0.71282 0.95253 0.87224 0.0
H322 H 0.80281 0.09866 0.10742 0.0
H323 H 0.84295 0.0975 0.02813 0.0
H324 H 0.72737 0.10163 0.12283 0.0
H325 H 0.68044 0.06749 0.13138 0.0
C326 C 0.73136 0.97519 0.50835 0.0
C327 C 0.71539 0.99483 0.43879 0.0
C328 C 0.78536 0.03918 0.44686 0.0
C329 C 0.79984 1.02045 0.5181 0.0
N330 N 0.79629 0.96387 0.6026 0.0
N331 N 0.73238 0.03851 0.33129 0.0
C332 C 0.77611 0.98603 0.54379 0.0
C333 C 0.74449 0.02441 0.40422 0.0
N334 N 0.702 0.94819 0.54414 0.0
N335 N 0.80927 0.07205 0.42227 0.0
H336 H 0.70254 0.0278 0.29995 0.0
H337 H 0.75378 0.05805 0.29931 0.0
H338 H 0.83989 0.08286 0.4513 0.0
H339 H 0.79771 0.08954 0.37553 0.0
H340 H 0.70851 0.9367 0.60015 0.0
H341 H 0.66904 0.93917 0.52025 0.0
H342 H 0.78336 0.93637 0.61867 0.0
H343 H 0.8289 0.97134 0.63028 0.0
C344 C 0.74118 0.57493 0.95693 0.0
C345 C 0.71483 0.54645 0.91379 0.0
C346 C 0.77587 0.49713 0.95071 0.0
C347 C 0.79541 0.52353 1.0068 0.0
N348 N 0.79587 0.58747 0.06609 0.0
N349 N 0.70917 0.48163 0.86161 0.0
C350 C 0.77849 0.56266 1.00967 0.0
C351 C 0.73349 0.508 0.90724 0.0
N352 N 0.73034 0.61362 0.94829 0.0
N353 N 0.79799 0.46186 0.93916 0.0
H354 H 0.68009 0.4899 0.82551 0.0
H355 H 0.71673 0.45185 0.86084 0.0
H356 H 0.82901 0.45329 0.97027 0.0
H357 H 0.78812 0.44239 0.89497 0.0
H358 H 0.75064 0.63591 0.97382 0.0
H359 H 0.70465 0.62389 0.90823 0.0
H360 H 0.78053 0.61463 0.07794 0.0
H361 H 0.82334 0.5798 0.10567 0.0
C362 C 0.76012 0.52438 0.39563 0.0
C363 C 0.7906 0.49628 0.43205 0.0
C364 C 0.72995 0.48707 0.53715 0.0
C365 C 0.70442 0.52016 0.50928 0.0
N366 N 0.69397 0.57087 0.41161 0.0
N367 N 0.80695 0.45356 0.54319 0.0
C368 C 0.71858 0.5386 0.43744 0.0
C369 C 0.77577 0.47778 0.50363 0.0
N370 N 0.77149 0.53769 0.32178 0.0
N371 N 0.7104 0.46464 0.59612 0.0
H372 H 0.8413 0.44627 0.52206 0.0
H373 H 0.80044 0.4432 0.60014 0.0
H374 H 0.67673 0.47081 0.62186 0.0
H375 H 0.72504 0.43791 0.61367 0.0
H376 H 0.74885 0.55576 0.28858 0.0
H377 H 0.80201 0.52772 0.29108 0.0
H378 H 0.70549 0.58821 0.36457 0.0
H379 H 0.66313 0.58162 0.44016 0.0
C380 C 0.28053 0.9847 0.99822 0.0
C381 C 0.30484 1.01858 0.02464 0.0
C382 C 0.24678 0.02396 0.13483 0.0
C383 C 0.21747 0.99501 0.09902 0.0
N384 N 0.20476 0.94918 0.99273 0.0
N385 N 0.31356 0.07014 0.11975 0.0
C386 C 0.23438 0.97511 0.03061 0.0
C387 C 0.28922 0.03774 0.09449 0.0
N388 N 0.30147 0.96197 0.94136 0.0
N389 N 0.23341 0.03848 0.20664 0.0
H390 H 0.34535 0.08013 0.09259 0.0
H391 H 0.30134 0.08804 0.16516 0.0
H392 H 0.20229 0.02873 0.2362 0.0
H393 H 0.25482 0.05745 0.23957 0.0
H394 H 0.28787 0.9348 0.92491 0.0
H395 H 0.33522 0.96855 0.91624 0.0
H396 H 0.21248 0.93755 0.9374 0.0
H397 H 0.17052 0.9414 1.01373 0.0
C398 C 0.26239 0.07398 0.5689 0.0
C399 C 0.28806 0.04603 0.6152 0.0
C400 C 0.2279 0.99616 0.57763 0.0
C401 C 0.2084 0.02249 0.52086 0.0
N402 N 0.20314 0.088 0.46826 0.0
N403 N 0.29268 0.98184 0.67169 0.0
C404 C 0.22415 0.06182 0.51891 0.0
C405 C 0.26927 1.00762 0.62304 0.0
N406 N 0.27359 0.11265 0.57057 0.0
N407 N 0.20655 0.96044 0.58814 0.0
H408 H 0.32095 0.99062 0.70883 0.0
H409 H 0.28513 0.9521 0.67446 0.0
H410 H 0.17645 0.95139 0.55544 0.0
H411 H 0.21633 0.94074 0.63224 0.0
H412 H 0.29901 0.12495 0.60875 0.0
H413 H 0.29901 0.12495 0.60875 0.0
H414 H 0.21441 0.11708 0.46441 0.0
H415 H 0.17495 0.08061 0.42991 0.0
C416 C 0.49579 0.52153 0.09809 0.0
C417 C 0.46269 0.49979 0.05152 0.0
C418 C 0.50723 0.52 0.93149 0.0
C419 C 0.54219 0.53984 0.97871 0.0
N420 N 0.57539 0.55108 0.10886 0.0
N421 N 0.44024 0.47338 0.92575 0.0
C422 C 0.53813 0.53809 0.06254 0.0
C423 C 0.46943 0.49768 0.9686 0.0
N424 N 0.48573 0.52802 0.176 0.0
N425 N 0.51041 0.52216 0.85103 0.0
H426 H 0.41322 0.45623 0.95196 0.0
H427 H 0.44528 0.46742 0.86612 0.0
H428 H 0.53881 0.53626 0.82168 0.0
H429 H 0.48338 0.51228 0.81304 0.0
H430 H 0.50478 0.54809 0.21022 0.0
H431 H 0.45643 0.51511 0.2054 0.0
H432 H 0.57688 0.54628 0.1696 0.0
H433 H 0.60682 0.56379 0.08614 0.0
C434 C 0.97581 0.49198 0.54998 0.0
C435 C 0.96394 0.50272 0.47148 0.0
C436 C 0.02656 0.55442 0.47489 0.0
C437 C 0.03697 0.54466 0.55454 0.0
N438 N 0.01749 0.50845 0.67219 0.0
N439 N 0.97445 0.54596 0.36025 0.0
C440 C 0.01022 0.51469 0.5933 0.0
C441 C 0.98854 0.5344 0.43416 0.0
N442 N 0.95456 0.45957 0.58235 0.0
N443 N 0.0539 0.58237 0.4379 0.0
H444 H 0.94913 0.53044 0.32688 0.0
H445 H 0.98632 0.57149 0.33286 0.0
H446 H 0.07859 0.59983 0.46837 0.0
H447 H 0.05319 0.58766 0.37738 0.0
H448 H 0.96401 0.4478 0.63693 0.0
H449 H 0.92998 0.44233 0.55108 0.0
H450 H 0.99671 0.48946 0.70646 0.0
H451 H 0.04202 0.52497 0.70521 0.0
C452 C 0.03259 0.99258 0.97439 0.0
C453 C 0.04378 1.00196 0.05377 0.0
C454 C 0.98121 0.05369 0.05159 0.0
C455 C 0.96798 0.04268 0.97403 0.0
N456 N 0.97692 0.99903 0.86375 0.0
N457 N 0.0255 0.03788 0.17193 0.0
C458 C 0.99266 1.01141 0.93603 0.0
C459 C 0.01699 0.03151 0.0935 0.0
N460 N 0.06094 0.96621 0.93513 0.0
N461 N 0.95982 0.08578 0.08452 0.0
H462 H 0.05129 1.02207 0.20402 0.0
H463 H 0.00463 0.05635 0.20692 0.0
H464 H 0.93403 0.10253 0.05445 0.0
H465 H 0.97025 0.09781 0.13821 0.0
H466 H 0.05913 0.96162 0.87448 0.0
H467 H 0.08802 0.94994 0.96318 0.0
H468 H 0.98885 0.97345 0.83698 0.0
H469 H 0.95024 1.01377 0.83146 0.0
C470 C 0.49626 1.01991 0.60183 0.0
C471 C 0.46082 0.0387 0.55351 0.0
C472 C 0.50644 1.01865 0.43457 0.0
C473 C 0.54139 0.99935 0.48245 0.0
N474 N 0.57195 0.98315 0.61145 0.0
N475 N 0.4259 0.04629 0.42318 0.0
C476 C 0.53668 1.00028 0.56611 0.0
C477 C 0.46418 0.03534 0.46975 0.0
N478 N 0.48921 1.01825 0.68179 0.0
N479 N 0.51503 0.02338 0.35553 0.0
H480 H 0.39436 0.05907 0.44502 0.0
H481 H 0.42353 0.03947 0.36342 0.0
H482 H 0.54489 1.01123 0.32658 0.0
H483 H 0.49448 0.0418 0.31953 0.0
H484 H 0.50956 1.00101 0.72013 0.0
H485 H 0.46105 0.0328 0.71058 0.0
H486 H 0.57555 0.98709 0.67201 0.0
H487 H 0.59909 0.96548 0.58753 0.0
C488 C 0.38514 0.25559 0.78332 0.0
C489 C 0.40392 0.22005 0.81396 0.0
C490 C 0.42886 0.25394 0.93547 0.0
C491 C 0.40923 0.28939 0.90518 0.0
N492 N 0.38107 0.32631 0.79347 0.0
N493 N 0.45225 0.18649 0.91148 0.0
C494 C 0.39163 0.29085 0.82652 0.0
C495 C 0.42871 0.21967 0.88756 0.0
N496 N 0.35868 0.25527 0.71506 0.0
N497 N 0.44523 0.2525 1.01151 0.0
H498 H 0.45135 0.16058 0.87937 0.0
H499 H 0.4754 0.18526 0.96002 0.0
H500 H 0.44892 0.27733 0.04622 0.0
H501 H 0.45356 0.22671 0.04127 0.0
H502 H 0.33903 0.27923 0.69446 0.0
H503 H 0.35331 0.23005 0.68181 0.0
H504 H 0.37213 0.33013 0.7342 0.0
H505 H 0.38606 0.35244 0.82402 0.0
C506 C 0.09714 0.79374 0.30372 0.0
C507 C 0.09653 0.83149 0.33848 0.0
C508 C 0.0931 0.80159 0.47065 0.0
C509 C 0.0946 0.76397 0.43573 0.0
N510 N 0.08607 0.72374 0.32088 0.0
N511 N 0.08331 0.8717 0.45281 0.0
C512 C 0.09241 0.76 0.35268 0.0
C513 C 0.0911 0.8355 0.42144 0.0
N514 N 0.10534 0.79 0.2245 0.0
N515 N 0.09556 0.80478 0.55094 0.0
H516 H 0.08172 0.89697 0.41826 0.0
H517 H 0.07464 0.87649 0.5118 0.0
H518 H 0.09384 0.78052 0.58827 0.0
H519 H 0.10099 0.83102 0.58043 0.0
H520 H 0.11242 0.76342 0.19716 0.0
H521 H 0.10875 0.81382 0.18649 0.0
H522 H 0.0796 0.71888 0.26117 0.0
H523 H 0.0827 0.69868 0.35578 0.0
C524 C 0.90191 0.25856 0.18706 0.0
C525 C 0.90739 0.2611 0.10409 0.0
C526 C 0.91692 0.33243 0.11431 0.0
C527 C 0.90409 0.33021 0.19541 0.0
N528 N 0.88102 0.29154 0.30882 0.0
N529 N 0.92022 0.2999 0.98711 0.0
C530 C 0.89635 0.29331 0.23207 0.0
C531 C 0.91568 0.29789 0.06735 0.0
N532 N 0.90206 0.22265 0.22257 0.0
N533 N 0.93086 0.36749 0.08265 0.0
H534 H 0.92253 0.27504 0.95198 0.0
H535 H 0.91996 0.3259 0.95509 0.0
H536 H 0.93147 0.39328 0.11528 0.0
H537 H 0.94519 0.37066 0.02607 0.0
H538 H 0.90275 0.21854 0.28351 0.0
H539 H 0.9063 0.19687 0.19057 0.0
H540 H 0.86887 0.26601 0.33599 0.0
H541 H 0.87683 0.31621 0.34398 0.0
C542 C 0.60368 0.75669 0.73913 0.0
C543 C 0.59693 0.71872 0.70718 0.0
C544 C 0.59107 0.74689 0.57372 0.0
C545 C 0.59839 0.78476 0.60537 0.0
N546 N 0.60035 0.82704 0.71806 0.0
N547 N 0.57043 0.67898 0.59834 0.0
C548 C 0.60066 0.79002 0.6883 0.0
C549 C 0.58621 0.71429 0.6257 0.0
N550 N 0.61588 0.76077 0.81689 0.0
N551 N 0.59128 0.74179 0.49374 0.0
H552 H 0.56553 0.6548 0.63519 0.0
H553 H 0.55766 0.67466 0.54119 0.0
H554 H 0.59336 0.76508 0.45404 0.0
H555 H 0.59231 0.71452 0.46683 0.0
H556 H 0.62658 0.78711 0.84193 0.0
H557 H 0.61854 0.7372 0.85579 0.0
H558 H 0.59761 0.83328 0.77801 0.0
H559 H 0.59836 0.85172 0.68181 0.0
C560 C 0.62406 0.78938 0.08586 0.0
C561 C 0.59673 0.75752 0.11625 0.0
C562 C 0.57383 0.79661 0.23171 0.0
C563 C 0.60051 0.82901 0.20082 0.0
N564 N 0.63906 0.8592 0.08785 0.0
N565 N 0.5359 0.73376 0.20633 0.0
C566 C 0.62202 0.82629 0.12454 0.0
C567 C 0.56816 0.76233 0.18512 0.0
N568 N 0.65347 0.78399 0.0217 0.0
N569 N 0.55678 0.79727 0.30755 0.0
H570 H 0.53144 0.70827 0.17354 0.0
H571 H 0.51033 0.73698 0.25129 0.0
H572 H 0.562 0.82061 0.34571 0.0
H573 H 0.5413 0.77316 0.33553 0.0
H574 H 0.67879 0.80459 1.00244 0.0
H575 H 0.65458 0.75782 0.99043 0.0
H576 H 0.65098 0.85972 0.02946 0.0
H577 H 0.6366 0.88688 0.11295 0.0
C578 C 0.89927 0.28764 0.68985 0.0
C579 C 0.90724 0.28499 0.6074 0.0
C580 C 0.91874 0.2139 0.62078 0.0
C581 C 0.90368 0.2161 0.70086 0.0
N582 N 0.87617 0.25457 0.81111 0.0
N583 N 0.92355 0.24586 0.49259 0.0
C584 C 0.89355 0.25292 0.73555 0.0
C585 C 0.91746 0.2482 0.5725 0.0
N586 N 0.89732 0.32365 0.72423 0.0
N587 N 0.93456 0.17904 0.5912 0.0
H588 H 0.92541 0.27052 0.45641 0.0
H589 H 0.92474 0.21967 0.46168 0.0
H590 H 0.93495 0.15335 0.62455 0.0
H591 H 0.95056 0.17603 0.53582 0.0
H592 H 0.89607 0.32793 0.78503 0.0
H593 H 0.90174 0.34941 0.69179 0.0
H594 H 0.86228 0.27987 0.8365 0.0
H595 H 0.87228 0.22992 0.84687 0.0
C596 C 0.07641 0.71751 0.902 0.0
C597 C 0.09925 0.7182 0.82661 0.0
C598 C 0.11486 0.78855 0.842 0.0
C599 C 0.09946 0.78634 0.92177 0.0
N600 N 0.06685 0.74856 0.02983 0.0
N601 N 0.14121 0.75424 0.72454 0.0
C602 C 0.07973 0.75094 0.95201 0.0
C603 C 0.11843 0.7538 0.7963 0.0
N604 N 0.05197 0.68481 0.9262 0.0
N605 N 0.12563 0.82423 0.80996 0.0
H606 H 0.14215 0.7301 0.6874 0.0
H607 H 0.16133 0.77783 0.70338 0.0
H608 H 0.1227 0.85006 0.8422 0.0
H609 H 0.13276 0.82876 0.75024 0.0
H610 H 0.03022 0.68378 0.97655 0.0
H611 H 0.05037 0.65935 0.89279 0.0
H612 H 0.05849 0.72247 0.05854 0.0
H613 H 0.06687 0.77267 0.06714 0.0
C614 C 0.41242 0.29058 0.28237 0.0
C615 C 0.40146 0.32557 0.32358 0.0
C616 C 0.39556 0.28763 0.44713 0.0
C617 C 0.41 0.25336 0.40613 0.0
N618 N 0.44535 0.22514 0.28949 0.0
N619 N 0.39345 0.35856 0.44857 0.0
C620 C 0.42302 0.256 0.3254 0.0
C621 C 0.39639 0.32449 0.40715 0.0
N622 N 0.40904 0.28929 0.202 0.0
N623 N 0.37859 0.28487 0.52269 0.0
H624 H 0.3947 0.38597 0.42152 0.0
H625 H 0.39441 0.35967 0.51001 0.0
H626 H 0.37757 0.25857 0.55368 0.0
H627 H 0.36235 0.30807 0.55236 0.0
H628 H 0.41054 0.26321 0.17063 0.0
H629 H 0.39874 0.31316 0.16763 0.0
H630 H 0.45955 0.2267 0.23245 0.0
H631 H 0.45422 0.19951 0.31986 0.0
C632 C 0.65359 0.43765 0.28185 0.0
C633 C 0.68492 0.41321 0.23757 0.0
C634 C 0.61538 0.39119 0.15885 0.0
C635 C 0.58491 0.41857 0.19796 0.0
N636 N 0.57977 0.47581 0.28089 0.0
N637 N 0.69751 0.37663 0.11729 0.0
C638 C 0.60554 0.44435 0.25448 0.0
C639 C 0.66648 0.39296 0.17093 0.0
N640 N 0.66862 0.453 0.35207 0.0
N641 N 0.59603 0.36194 0.11411 0.0
H642 H 0.73526 0.37914 0.12107 0.0
H643 H 0.68556 0.3647 0.06418 0.0
H644 H 0.55882 0.35757 0.10682 0.0
H645 H 0.61706 0.33928 0.09129 0.0
H646 H 0.64536 0.46802 0.38997 0.0
H647 H 0.70261 0.44704 0.3766 0.0
H648 H 0.59496 0.49737 0.31649 0.0
H649 H 0.54519 0.48272 0.25994 0.0
C650 C 0.8946 0.64112 0.74783 0.0
C651 C 0.9143 0.62412 0.6784 0.0
C652 C 0.83174 0.61495 0.62562 0.0
C653 C 0.81217 0.62828 0.69872 0.0
N654 N 0.82421 0.65224 0.83102 0.0
N655 N 0.90313 0.5941 0.55153 0.0
C656 C 0.84344 0.64063 0.7604 0.0
C657 C 0.88325 0.61119 0.61691 0.0
N658 N 0.92469 0.6601 0.79943 0.0
N659 N 0.801 0.60529 0.56517 0.0
H660 H 0.94044 0.59023 0.5441 0.0
H661 H 0.88321 0.58235 0.50539 0.0
H662 H 0.76325 0.60524 0.57049 0.0
H663 H 0.81218 0.59883 0.50806 0.0
H664 H 0.91231 0.6766 0.84685 0.0
H665 H 0.96212 0.66284 0.79064 0.0
H666 H 0.84485 0.65598 0.88196 0.0
H667 H 0.78704 0.65641 0.84006 0.0
C668 C 0.16631 0.15802 0.84747 0.0
C669 C 0.18635 0.12856 0.79816 0.0
C670 C 0.10975 0.09211 0.80931 0.0
C671 C 0.08722 0.125 0.84425 0.0
N672 N 0.09334 0.19218 0.88703 0.0
N673 N 0.17377 0.06895 0.72446 0.0
C674 C 0.11528 0.15872 0.86145 0.0
C675 C 0.15733 0.09572 0.77763 0.0
N676 N 0.19604 0.18435 0.88396 0.0
N677 N 0.08584 0.05715 0.80724 0.0
H678 H 0.1519 0.04707 0.70079 0.0
H679 H 0.20769 0.07082 0.69801 0.0
H680 H 0.05113 0.05343 0.83096 0.0
H681 H 0.10235 0.03115 0.78987 0.0
H682 H 0.18346 0.20409 0.926 0.0
H683 H 0.23389 0.18335 0.87981 0.0
H684 H 0.11181 0.21867 0.89174 0.0
H685 H 0.05602 0.1946 0.89677 0.0
C686 C 0.39983 0.90347 0.27724 0.0
C687 C 0.41881 0.91863 0.34885 0.0
C688 C 0.33562 0.92671 0.39977 0.0
C689 C 0.3169 0.91511 0.32494 0.0
N690 N 0.3326 0.89039 0.19289 0.0
N691 N 0.40556 0.94747 0.47666 0.0
C692 C 0.34911 0.90342 0.26396 0.0
C693 C 0.38693 0.93059 0.41016 0.0
N694 N 0.43018 0.88786 0.22158 0.0
N695 N 0.30446 0.9338 0.46114 0.0
H696 H 0.44273 0.95073 0.48676 0.0
H697 H 0.38448 0.96055 0.52012 0.0
H698 H 0.26675 0.93352 0.45558 0.0
H699 H 0.31562 0.93745 0.51931 0.0
H700 H 0.41754 0.87701 0.16784 0.0
H701 H 0.46737 0.88372 0.23061 0.0
H702 H 0.29593 0.88808 0.17751 0.0
H703 H 0.29593 0.88808 0.17751 0.0
C704 C 0.39999 0.6405 0.76558 0.0
C705 C 0.4184 0.62384 0.8366 0.0
C706 C 0.33486 0.61541 0.8854 0.0
C707 C 0.31673 0.62774 0.81062 0.0
N708 N 0.33203 0.64715 0.67562 0.0
N709 N 0.40343 0.59023 0.95972 0.0
C710 C 0.34933 0.6384 0.74928 0.0
C711 C 0.38586 0.61004 0.89558 0.0
N712 N 0.4303 0.66089 0.71624 0.0
N713 N 0.30347 0.60875 0.94678 0.0
H714 H 0.44022 0.58432 0.96837 0.0
H715 H 0.3813 0.57679 1.00149 0.0
H716 H 0.26578 0.61022 0.9414 0.0
H717 H 0.31468 0.60446 1.00488 0.0
H718 H 0.41801 0.67691 0.66779 0.0
H719 H 0.46697 0.66579 0.72847 0.0
H720 H 0.35454 0.65035 0.62646 0.0
H721 H 0.29504 0.64853 0.66213 0.0
C722 C 0.15779 0.45922 0.29699 0.0
C723 C 0.17552 0.42652 0.25393 0.0
C724 C 0.09787 0.39269 0.27591 0.0
C725 C 0.08164 0.42441 0.32267 0.0
N726 N 0.0999 0.48309 0.39375 0.0
N727 N 0.16684 0.35819 0.22104 0.0
C728 C 0.11292 0.45617 0.33838 0.0
C729 C 0.1468 0.39209 0.24842 0.0
N730 N 0.18255 0.49384 0.29533 0.0
N731 N 0.06628 0.36344 0.25637 0.0
H732 H 0.20312 0.35579 0.20367 0.0
H733 H 0.14896 0.33138 0.22332 0.0
H734 H 0.03094 0.36172 0.27872 0.0
H735 H 0.07418 0.34226 0.21427 0.0
H736 H 0.16902 0.51963 0.31925 0.0
H737 H 0.21451 0.49782 0.26326 0.0
H738 H 0.12293 0.50525 0.41305 0.0
H739 H 0.06789 0.48046 0.42651 0.0
C740 C 0.8363 0.92962 0.13778 0.0
C741 C 0.81935 0.91898 0.21455 0.0
C742 C 0.90347 0.90972 0.25868 0.0
C743 C 0.92055 0.92424 0.18492 0.0
N744 N 0.90417 0.95111 0.05613 0.0
N745 N 0.83651 0.90321 0.35085 0.0
C746 C 0.88721 0.93478 0.12466 0.0
C747 C 0.85287 0.91066 0.27596 0.0
N748 N 0.80375 0.93521 0.07765 0.0
N749 N 0.93528 0.89243 0.31024 0.0
H750 H 0.79978 0.90051 0.36537 0.0
H751 H 0.85937 0.9022 0.39986 0.0
H752 H 0.97225 0.88893 0.29821 0.0
H753 H 0.92437 0.87763 0.36109 0.0
H754 H 0.81356 0.93845 0.01865 0.0
H755 H 0.76617 0.93457 0.08541 0.0
H756 H 0.88197 0.96173 1.01135 0.0
H757 H 0.94096 0.95629 0.0454 0.0
C758 C 0.61618 0.15269 0.66921 0.0
C759 C 0.58503 0.12627 0.70989 0.0
C760 C 0.65322 0.10668 0.79499 0.0
C761 C 0.68501 0.13051 0.74968 0.0
N762 N 0.69873 0.16668 0.62875 0.0
N763 N 0.57717 0.07112 0.7986 0.0
C764 C 0.66714 0.15067 0.68224 0.0
C765 C 0.60457 0.10108 0.76888 0.0
N766 N 0.59738 0.18131 0.62173 0.0
N767 N 0.66861 0.09081 0.86481 0.0
H768 H 0.54181 0.0654 0.77969 0.0
H769 H 0.59124 0.04959 0.83576 0.0
H770 H 0.70342 0.09537 0.88743 0.0
H771 H 0.64543 0.0764 0.904 0.0
H772 H 0.61863 0.20359 0.59759 0.0
H773 H 0.56021 0.18555 0.61315 0.0
H774 H 0.6874 0.17836 0.57489 0.0
H775 H 0.73645 0.16428 0.63374 0.0
loop_
_geom_bond_atom_site_label_1
_geom_bond_atom_site_label_2
_geom_bond_distance
_geom_bond_site_symmetry_2
_ccdc_geom_bond_type
Zn0 N4 2.020 . S
Zn0 O8 2.019 . S
Zn0 N10 2.119 . S
Zn0 O18 1.975 . S
C1 N2 1.334 . S
C1 N5 1.336 . S
N2 C1 1.334 . S
N2 C3 1.334 . S
C3 N2 1.334 . S
C3 N4 1.336 . S
N4 Zn0 2.020 . S
N4 C3 1.336 . S
N4 N5 1.354 . S
N5 C1 1.336 . S
N5 N4 1.354 . S
N5 Zn9 2.020 . S
C6 O7 1.244 . S
C6 O30 1.257 . S
O7 C6 1.244 . S
O8 Zn0 2.019 . S
O8 C28 1.257 . S
Zn9 N5 2.020 . S
Zn9 O16 1.975 . S
Zn9 N25 2.119 . S
Zn9 O30 2.019 . S
N10 Zn0 2.119 . S
N10 C12 1.334 . S
N10 C13 1.328 . S
C11 C12 1.391 . S
C11 N14 1.329 . S
C11 H32 0.930 . S
C12 N10 1.334 . S
C12 C11 1.391 . S
C12 H19 0.930 . S
C13 N10 1.328 . S
C13 C15 1.392 . S
C13 H20 0.930 . S
N14 C11 1.329 . S
N14 C15 1.331 . S
C15 C13 1.392 . S
C15 N14 1.331 . S
O16 Zn9 1.975 . S
O16 C17 1.252 . S
C17 O16 1.252 . S
C17 O18 1.252 . S
O18 Zn0 1.975 . S
O18 C17 1.252 . S
H19 C12 0.930 . S
H20 C13 0.930 . S
C21 C22 1.392 . S
C21 N25 1.328 . S
C21 H27 0.930 . S
C22 C21 1.392 . S
C22 N26 1.331 . S
C23 C24 1.391 . S
C23 N26 1.329 . S
C23 H33 0.930 . S
C24 C23 1.391 . S
C24 N25 1.334 . S
C24 H31 0.930 . S
N25 Zn9 2.119 . S
N25 C21 1.328 . S
N25 C24 1.334 . S
N26 C22 1.331 . S
N26 C23 1.329 . S
H27 C21 0.930 . S
C28 O8 1.257 . S
C28 O29 1.244 . S
O29 C28 1.244 . S
O30 C6 1.257 . S
O30 Zn9 2.019 . S
H31 C24 0.930 . S
H32 C11 0.930 . S
H33 C23 0.930 . S
Zn34 N38 2.020 . S
Zn34 O42 2.019 . S
Zn34 N44 2.119 . S
Zn34 O52 1.975 . S
C35 N36 1.334 . S
C35 N39 1.336 . S
N36 C35 1.334 . S
N36 C37 1.334 . S
C37 N36 1.334 . S
C37 N38 1.336 . S
N38 Zn34 2.020 . S
N38 C37 1.336 . S
N38 N39 1.354 . S
N39 C35 1.336 . S
N39 N38 1.354 . S
N39 Zn43 2.020 . S
C40 O41 1.244 . S
C40 O64 1.257 . S
O41 C40 1.244 . S
O42 Zn34 2.019 . S
O42 C62 1.257 . S
Zn43 N39 2.020 . S
Zn43 O50 1.975 . S
Zn43 N59 2.119 . S
Zn43 O64 2.019 1_455 S
N44 Zn34 2.119 . S
N44 C46 1.334 . S
N44 C47 1.328 . S
C45 C46 1.391 . S
C45 N48 1.329 . S
C45 H66 0.930 . S
C46 N44 1.334 . S
C46 C45 1.391 . S
C46 H53 0.930 . S
C47 N44 1.328 . S
C47 C49 1.392 . S
C47 H54 0.930 . S
N48 C45 1.329 . S
N48 C49 1.331 . S
C49 C47 1.392 . S
C49 N48 1.331 . S
O50 Zn43 1.975 . S
O50 C51 1.252 . S
C51 O50 1.252 . S
C51 O52 1.252 . S
O52 Zn34 1.975 . S
O52 C51 1.252 . S
H53 C46 0.930 . S
H54 C47 0.930 . S
C55 C56 1.392 . S
C55 N59 1.328 . S
C55 H61 0.928 . S
C56 C55 1.392 . S
C56 N60 1.331 . S
C57 C58 1.391 . S
C57 N60 1.329 . S
C57 H67 0.930 . S
C58 C57 1.391 . S
C58 N59 1.334 . S
C58 H65 0.930 . S
N59 Zn43 2.119 . S
N59 C55 1.328 . S
N59 C58 1.334 . S
N60 C56 1.331 . S
N60 C57 1.329 . S
H61 C55 0.928 . S
C62 O42 1.257 . S
C62 O63 1.244 . S
O63 C62 1.244 . S
O64 C40 1.257 . S
O64 Zn43 2.019 1_655 S
H65 C58 0.930 . S
H66 C45 0.930 . S
H67 C57 0.930 . S
Zn68 N72 2.020 . S
Zn68 O76 2.019 1_655 S
Zn68 N78 2.119 . S
Zn68 O86 1.975 . S
C69 N70 1.334 . S
C69 N73 1.336 . S
N70 C69 1.334 . S
N70 C71 1.334 . S
C71 N70 1.334 . S
C71 N72 1.336 . S
N72 Zn68 2.020 . S
N72 C71 1.336 . S
N72 N73 1.354 . S
N73 C69 1.336 . S
N73 N72 1.354 . S
N73 Zn77 2.020 . S
C74 O75 1.244 . S
C74 O98 1.257 . S
O75 C74 1.244 . S
O76 Zn68 2.019 1_455 S
O76 C96 1.257 . S
Zn77 N73 2.020 . S
Zn77 O84 1.975 . S
Zn77 N93 2.119 . S
Zn77 O98 2.019 . S
N78 Zn68 2.119 . S
N78 C80 1.334 . S
N78 C81 1.328 . S
C79 C80 1.391 . S
C79 N82 1.329 . S
C79 H100 0.930 . S
C80 N78 1.334 . S
C80 C79 1.391 . S
C80 H87 0.930 . S
C81 N78 1.328 . S
C81 C83 1.392 . S
C81 H88 0.928 . S
N82 C79 1.329 . S
N82 C83 1.331 . S
C83 C81 1.392 . S
C83 N82 1.331 . S
O84 Zn77 1.975 . S
O84 C85 1.252 . S
C85 O84 1.252 . S
C85 O86 1.252 . S
O86 Zn68 1.975 . S
O86 C85 1.252 . S
H87 C80 0.930 . S
H88 C81 0.928 . S
C89 C90 1.392 . S
C89 N93 1.328 . S
C89 H95 0.930 . S
C90 C89 1.392 . S
C90 N94 1.331 . S
C91 C92 1.391 . S
C91 N94 1.329 . S
C91 H101 0.930 . S
C92 C91 1.391 . S
C92 N93 1.334 . S
C92 H99 0.930 . S
N93 Zn77 2.119 . S
N93 C89 1.328 . S
N93 C92 1.334 . S
N94 C90 1.331 . S
N94 C91 1.329 . S
H95 C89 0.930 . S
C96 O76 1.257 . S
C96 O97 1.244 . S
O97 C96 1.244 . S
O98 C74 1.257 . S
O98 Zn77 2.019 . S
H99 C92 0.930 . S
H100 C79 0.930 . S
H101 C91 0.930 . S
Zn102 N106 2.020 . S
Zn102 O110 2.019 . S
Zn102 N112 2.119 . S
Zn102 O120 1.975 . S
C103 N104 1.334 . S
C103 N107 1.336 . S
N104 C103 1.334 . S
N104 C105 1.334 . S
C105 N104 1.334 . S
C105 N106 1.336 . S
N106 Zn102 2.020 . S
N106 C105 1.336 . S
N106 N107 1.354 . S
N107 C103 1.336 . S
N107 N106 1.354 . S
N107 Zn111 2.020 . S
C108 O109 1.244 . S
C108 O132 1.257 . S
O109 C108 1.244 . S
O110 Zn102 2.019 . S
O110 C130 1.257 . S
Zn111 N107 2.020 . S
Zn111 O118 1.975 . S
Zn111 N127 2.119 . S
Zn111 O132 2.019 . S
N112 Zn102 2.119 . S
N112 C114 1.334 . S
N112 C115 1.328 . S
C113 C114 1.391 . S
C113 N116 1.329 . S
C113 H134 0.930 . S
C114 N112 1.334 . S
C114 C113 1.391 . S
C114 H121 0.930 . S
C115 N112 1.328 . S
C115 C117 1.392 . S
C115 H122 0.930 . S
N116 C113 1.329 . S
N116 C117 1.331 . S
C117 C115 1.392 . S
C117 N116 1.331 . S
O118 Zn111 1.975 . S
O118 C119 1.252 . S
C119 O118 1.252 . S
C119 O120 1.252 . S
O120 Zn102 1.975 . S
O120 C119 1.252 . S
H121 C114 0.930 . S
H122 C115 0.930 . S
C123 C124 1.392 . S
C123 N127 1.328 . S
C123 H129 0.930 . S
C124 C123 1.392 . S
C124 N128 1.331 . S
C125 C126 1.391 . S
C125 N128 1.329 . S
C125 H135 0.930 . S
C126 C125 1.391 . S
C126 N127 1.334 . S
C126 H133 0.930 . S
N127 Zn111 2.119 . S
N127 C123 1.328 . S
N127 C126 1.334 . S
N128 C124 1.331 . S
N128 C125 1.329 . S
H129 C123 0.930 . S
C130 O110 1.257 . S
C130 O131 1.244 . S
O131 C130 1.244 . S
O132 C108 1.257 . S
O132 Zn111 2.019 . S
H133 C126 0.930 . S
H134 C113 0.930 . S
H135 C125 0.930 . S
Zn136 N140 2.020 . S
Zn136 O144 2.019 . S
Zn136 N146 2.119 . S
Zn136 O154 1.975 . S
C137 N138 1.334 . S
C137 N141 1.336 . S
N138 C137 1.334 . S
N138 C139 1.334 . S
C139 N138 1.334 . S
C139 N140 1.336 . S
N140 Zn136 2.020 . S
N140 C139 1.336 . S
N140 N141 1.354 . S
N141 C137 1.336 . S
N141 N140 1.354 . S
N141 Zn145 2.020 . S
C142 O143 1.244 . S
C142 O166 1.257 . S
O143 C142 1.244 . S
O144 Zn136 2.019 . S
O144 C164 1.257 . S
Zn145 N141 2.020 . S
Zn145 O152 1.975 . S
Zn145 N161 2.119 . S
Zn145 O166 2.019 . S
N146 Zn136 2.119 . S
N146 C148 1.334 . S
N146 C149 1.328 . S
C147 C148 1.391 . S
C147 N150 1.329 . S
C147 H168 0.930 . S
C148 N146 1.334 . S
C148 C147 1.391 . S
C148 H155 0.930 . S
C149 N146 1.328 . S
C149 C151 1.392 . S
C149 H156 0.930 . S
N150 C147 1.329 . S
N150 C151 1.331 . S
C151 C149 1.392 . S
C151 N150 1.331 . S
O152 Zn145 1.975 . S
O152 C153 1.252 . S
C153 O152 1.252 . S
C153 O154 1.252 . S
O154 Zn136 1.975 . S
O154 C153 1.252 . S
H155 C148 0.930 . S
H156 C149 0.930 . S
C157 C158 1.392 . S
C157 N161 1.328 . S
C157 H163 0.930 . S
C158 C157 1.392 . S
C158 N162 1.331 . S
C159 C160 1.391 . S
C159 N162 1.329 . S
C159 H169 0.930 . S
C160 C159 1.391 . S
C160 N161 1.334 . S
C160 H167 0.930 . S
N161 Zn145 2.119 . S
N161 C157 1.328 . S
N161 C160 1.334 . S
N162 C158 1.331 . S
N162 C159 1.329 . S
H163 C157 0.930 . S
C164 O144 1.257 . S
C164 O165 1.244 . S
O165 C164 1.244 . S
O166 C142 1.257 . S
O166 Zn145 2.019 . S
H167 C160 0.930 . S
H168 C147 0.930 . S
H169 C159 0.930 . S
Zn170 N174 2.020 . S
Zn170 O178 2.019 1_655 S
Zn170 N180 2.119 . S
Zn170 O188 1.975 . S
C171 N172 1.334 . S
C171 N175 1.336 . S
N172 C171 1.334 . S
N172 C173 1.334 . S
C173 N172 1.334 . S
C173 N174 1.336 . S
N174 Zn170 2.020 . S
N174 C173 1.336 . S
N174 N175 1.354 . S
N175 C171 1.336 . S
N175 N174 1.354 . S
N175 Zn179 2.020 . S
C176 O177 1.244 . S
C176 O200 1.257 . S
O177 C176 1.244 . S
O178 Zn170 2.019 1_455 S
O178 C198 1.257 . S
Zn179 N175 2.020 . S
Zn179 O186 1.975 . S
Zn179 N195 2.119 . S
Zn179 O200 2.019 . S
N180 Zn170 2.119 . S
N180 C182 1.334 . S
N180 C183 1.328 . S
C181 C182 1.391 . S
C181 N184 1.329 . S
C181 H202 0.930 . S
C182 N180 1.334 . S
C182 C181 1.391 . S
C182 H189 0.930 . S
C183 N180 1.328 . S
C183 C185 1.392 . S
C183 H190 0.928 . S
N184 C181 1.329 . S
N184 C185 1.331 . S
C185 C183 1.392 . S
C185 N184 1.331 . S
O186 Zn179 1.975 . S
O186 C187 1.252 . S
C187 O186 1.252 . S
C187 O188 1.252 . S
O188 Zn170 1.975 . S
O188 C187 1.252 . S
H189 C182 0.930 . S
H190 C183 0.928 . S
C191 C192 1.392 . S
C191 N195 1.328 . S
C191 H197 0.930 . S
C192 C191 1.392 . S
C192 N196 1.331 . S
C193 C194 1.391 . S
C193 N196 1.329 . S
C193 H203 0.930 . S
C194 C193 1.391 . S
C194 N195 1.334 . S
C194 H201 0.930 . S
N195 Zn179 2.119 . S
N195 C191 1.328 . S
N195 C194 1.334 . S
N196 C192 1.331 . S
N196 C193 1.329 . S
H197 C191 0.930 . S
C198 O178 1.257 . S
C198 O199 1.244 . S
O199 C198 1.244 . S
O200 C176 1.257 . S
O200 Zn179 2.019 . S
H201 C194 0.930 . S
H202 C181 0.930 . S
H203 C193 0.930 . S
Zn204 N208 2.020 . S
Zn204 O212 2.019 . S
Zn204 N214 2.119 . S
Zn204 O222 1.975 . S
C205 N206 1.334 . S
C205 N209 1.336 . S
N206 C205 1.334 . S
N206 C207 1.334 . S
C207 N206 1.334 . S
C207 N208 1.336 . S
N208 Zn204 2.020 . S
N208 C207 1.336 . S
N208 N209 1.354 . S
N209 C205 1.336 . S
N209 N208 1.354 . S
N209 Zn213 2.020 . S
C210 O211 1.244 . S
C210 O234 1.257 . S
O211 C210 1.244 . S
O212 Zn204 2.019 . S
O212 C232 1.257 . S
Zn213 N209 2.020 . S
Zn213 O220 1.975 . S
Zn213 N229 2.119 . S
Zn213 O234 2.019 1_455 S
N214 Zn204 2.119 . S
N214 C216 1.334 . S
N214 C217 1.328 . S
C215 C216 1.391 . S
C215 N218 1.329 . S
C215 H236 0.930 . S
C216 N214 1.334 . S
C216 C215 1.391 . S
C216 H223 0.930 . S
C217 N214 1.328 . S
C217 C219 1.392 . S
C217 H224 0.930 . S
N218 C215 1.329 . S
N218 C219 1.331 . S
C219 C217 1.392 . S
C219 N218 1.331 . S
O220 Zn213 1.975 . S
O220 C221 1.252 . S
C221 O220 1.252 . S
C221 O222 1.252 . S
O222 Zn204 1.975 . S
O222 C221 1.252 . S
H223 C216 0.930 . S
H224 C217 0.930 . S
C225 C226 1.392 . S
C225 N229 1.328 . S
C225 H231 0.928 . S
C226 C225 1.392 . S
C226 N230 1.331 . S
C227 C228 1.391 . S
C227 N230 1.329 . S
C227 H237 0.930 . S
C228 C227 1.391 . S
C228 N229 1.334 . S
C228 H235 0.930 . S
N229 Zn213 2.119 . S
N229 C225 1.328 . S
N229 C228 1.334 . S
N230 C226 1.331 . S
N230 C227 1.329 . S
H231 C225 0.928 . S
C232 O212 1.257 . S
C232 O233 1.244 . S
O233 C232 1.244 . S
O234 C210 1.257 . S
O234 Zn213 2.019 1_655 S
H235 C228 0.930 . S
H236 C215 0.930 . S
H237 C227 0.930 . S
Zn238 N242 2.020 . S
Zn238 O246 2.019 . S
Zn238 N248 2.119 . S
Zn238 O256 1.975 . S
C239 N240 1.334 . S
C239 N243 1.336 . S
N240 C239 1.334 . S
N240 C241 1.334 . S
C241 N240 1.334 . S
C241 N242 1.336 . S
N242 Zn238 2.020 . S
N242 C241 1.336 . S
N242 N243 1.354 . S
N243 C239 1.336 . S
N243 N242 1.354 . S
N243 Zn247 2.020 . S
C244 O245 1.244 . S
C244 O268 1.257 . S
O245 C244 1.244 . S
O246 Zn238 2.019 . S
O246 C266 1.257 . S
Zn247 N243 2.020 . S
Zn247 O254 1.975 . S
Zn247 N263 2.119 . S
Zn247 O268 2.019 . S
N248 Zn238 2.119 . S
N248 C250 1.334 . S
N248 C251 1.328 . S
C249 C250 1.391 . S
C249 N252 1.329 . S
C249 H270 0.930 . S
C250 N248 1.334 . S
C250 C249 1.391 . S
C250 H257 0.930 . S
C251 N248 1.328 . S
C251 C253 1.392 . S
C251 H258 0.930 . S
N252 C249 1.329 . S
N252 C253 1.331 . S
C253 C251 1.392 . S
C253 N252 1.331 . S
O254 Zn247 1.975 . S
O254 C255 1.252 . S
C255 O254 1.252 . S
C255 O256 1.252 . S
O256 Zn238 1.975 . S
O256 C255 1.252 . S
H257 C250 0.930 . S
H258 C251 0.930 . S
C259 C260 1.392 . S
C259 N263 1.328 . S
C259 H265 0.930 . S
C260 C259 1.392 . S
C260 N264 1.331 . S
C261 C262 1.391 . S
C261 N264 1.329 . S
C261 H271 0.930 . S
C262 C261 1.391 . S
C262 N263 1.334 . S
C262 H269 0.930 . S
N263 Zn247 2.119 . S
N263 C259 1.328 . S
N263 C262 1.334 . S
N264 C260 1.331 . S
N264 C261 1.329 . S
H265 C259 0.930 . S
C266 O246 1.257 . S
C266 O267 1.244 . S
O267 C266 1.244 . S
O268 C244 1.257 . S
O268 Zn247 2.019 . S
H269 C262 0.930 . S
H270 C249 0.930 . S
H271 C261 0.930 . S
C272 C273 1.363 . S
C272 C278 1.379 1_554 S
C272 N280 1.356 . S
C273 C272 1.363 . S
C273 C279 1.363 . S
C274 C275 1.368 . S
C274 C279 1.379 . S
C274 N281 1.356 . S
C275 C274 1.368 . S
C275 C278 1.361 1_554 S
N276 C278 1.356 . S
N276 H288 0.984 . S
N276 H289 0.985 . S
N277 C279 1.356 . S
N277 H282 0.984 . S
N277 H283 0.985 . S
C278 C272 1.379 1_556 S
C278 C275 1.361 1_556 S
C278 N276 1.356 . S
C279 C273 1.363 . S
C279 C274 1.379 . S
C279 N277 1.356 . S
N280 C272 1.356 . S
N280 H286 0.984 1_554 S
N280 H287 0.984 . S
N281 C274 1.356 . S
N281 H284 0.984 . S
N281 H285 0.985 . S
H282 N277 0.984 . S
H283 N277 0.985 . S
H284 N281 0.984 . S
H285 N281 0.985 . S
H286 N280 0.984 1_556 S
H287 N280 0.984 . S
H288 N276 0.984 . S
H289 N276 0.985 . S
C290 C291 1.363 . S
C290 C296 1.379 . S
C290 N298 1.356 . S
C291 C290 1.363 . S
C291 C297 1.363 . S
C292 C293 1.363 . S
C292 C297 1.379 . S
C292 N299 1.356 . S
C293 C292 1.363 . S
C293 C296 1.363 . S
N294 C296 1.356 . S
N294 H306 0.984 . S
N294 H307 0.985 . S
N295 C297 1.356 . S
N295 H300 0.984 . S
N295 H301 0.985 . S
C296 C290 1.379 . S
C296 C293 1.363 . S
C296 N294 1.356 . S
C297 C291 1.363 . S
C297 C292 1.379 . S
C297 N295 1.356 . S
N298 C290 1.356 . S
N298 H304 0.984 . S
N298 H305 0.984 . S
N299 C292 1.356 . S
N299 H302 0.984 . S
N299 H303 0.985 . S
H300 N295 0.984 . S
H301 N295 0.985 . S
H302 N299 0.984 . S
H303 N299 0.985 . S
H304 N298 0.984 . S
H305 N298 0.984 . S
H306 N294 0.984 . S
H307 N294 0.985 . S
C308 C309 1.363 . S
C308 C314 1.379 1_556 S
C308 N316 1.356 . S
C309 C308 1.363 . S
C309 C315 1.363 1_545 S
C310 C311 1.360 1_565 S
C310 C315 1.379 . S
C310 N317 1.356 . S
C311 C310 1.360 1_545 S
C311 C314 1.377 1_556 S
N312 C314 1.356 . S
N312 H324 0.984 . S
N312 H325 0.985 . S
N313 C315 1.356 . S
N313 H318 0.984 1_565 S
N313 H319 0.985 . S
C314 C308 1.379 1_554 S
C314 C311 1.377 1_554 S
C314 N312 1.356 . S
C315 C309 1.363 1_565 S
C315 C310 1.379 . S
C315 N313 1.356 . S
N316 C308 1.356 . S
N316 H322 0.984 1_556 S
N316 H323 0.984 . S
N317 C310 1.356 . S
N317 H320 0.984 . S
N317 H321 0.985 . S
H318 N313 0.984 1_545 S
H319 N313 0.985 . S
H320 N317 0.984 . S
H321 N317 0.985 . S
H322 N316 0.984 1_554 S
H323 N316 0.984 . S
H324 N312 0.984 . S
H325 N312 0.985 . S
C326 C327 1.363 . S
C326 C332 1.379 . S
C326 N334 1.356 . S
C327 C326 1.363 . S
C327 C333 1.373 . S
C328 C329 1.356 1_545 S
C328 C333 1.374 1_545 S
C328 N335 1.356 . S
C329 C328 1.356 1_565 S
C329 C332 1.377 . S
N330 C332 1.356 . S
N330 H342 0.984 . S
N330 H343 0.985 . S
N331 C333 1.354 1_545 S
N331 H336 0.984 1_545 S
N331 H337 0.985 . S
C332 C326 1.379 . S
C332 C329 1.377 . S
C332 N330 1.356 . S
C333 C327 1.373 . S
C333 C328 1.374 1_565 S
C333 N331 1.354 1_565 S
N334 C326 1.356 . S
N334 H340 0.984 . S
N334 H341 0.984 . S
N335 C328 1.356 . S
N335 H338 0.984 . S
N335 H339 0.985 . S
H336 N331 0.984 1_565 S
H337 N331 0.985 . S
H338 N335 0.984 . S
H339 N335 0.985 . S
H340 N334 0.984 . S
H341 N334 0.984 . S
H342 N330 0.984 . S
H343 N330 0.985 . S
C344 C345 1.363 . S
C344 C350 1.379 . S
C344 N352 1.356 . S
C345 C344 1.363 . S
C345 C351 1.363 . S
C346 C347 1.364 . S
C346 C351 1.379 . S
C346 N353 1.356 1_556 S
C347 C346 1.364 . S
C347 C350 1.366 . S
N348 C350 1.356 . S
N348 H360 0.984 . S
N348 H361 0.985 1_556 S
N349 C351 1.356 . S
N349 H354 0.984 . S
N349 H355 0.985 . S
C350 C344 1.379 . S
C350 C347 1.366 . S
C350 N348 1.356 . S
C351 C345 1.363 . S
C351 C346 1.379 . S
C351 N349 1.356 . S
N352 C344 1.356 . S
N352 H358 0.984 . S
N352 H359 0.984 . S
N353 C346 1.356 1_554 S
N353 H356 0.984 . S
N353 H357 0.985 . S
H354 N349 0.984 . S
H355 N349 0.985 . S
H356 N353 0.984 . S
H357 N353 0.985 . S
H358 N352 0.984 . S
H359 N352 0.984 . S
H360 N348 0.984 . S
H361 N348 0.985 1_554 S
C362 C363 1.363 . S
C362 C368 1.379 . S
C362 N370 1.356 . S
C363 C362 1.363 . S
C363 C369 1.363 . S
C364 C365 1.363 . S
C364 C369 1.379 . S
C364 N371 1.356 . S
C365 C364 1.363 . S
C365 C368 1.363 . S
N366 C368 1.356 . S
N366 H378 0.984 . S
N366 H379 0.985 . S
N367 C369 1.356 . S
N367 H372 0.984 . S
N367 H373 0.985 . S
C368 C362 1.379 . S
C368 C365 1.363 . S
C368 N366 1.356 . S
C369 C363 1.363 . S
C369 C364 1.379 . S
C369 N367 1.356 . S
N370 C362 1.356 . S
N370 H376 0.984 . S
N370 H377 0.984 . S
N371 C364 1.356 . S
N371 H374 0.984 . S
N371 H375 0.985 . S
H372 N367 0.984 . S
H373 N367 0.985 . S
H374 N371 0.984 . S
H375 N371 0.985 . S
H376 N370 0.984 . S
H377 N370 0.984 . S
H378 N366 0.984 . S
H379 N366 0.985 . S
C380 C381 1.384 . S
C380 C386 1.379 . S
C380 N388 1.356 . S
C381 C380 1.384 . S
C381 C387 1.353 1_565 S
C382 C383 1.363 1_545 S
C382 C387 1.379 . S
C382 N389 1.356 . S
C383 C382 1.363 1_565 S
C383 C386 1.363 . S
N384 C386 1.356 . S
N384 H396 0.984 . S
N384 H397 0.985 . S
N385 C387 1.356 1_556 S
N385 H390 0.984 . S
N385 H391 0.985 . S
C386 C380 1.379 . S
C386 C383 1.363 . S
C386 N384 1.356 . S
C387 C381 1.353 1_545 S
C387 C382 1.379 . S
C387 N385 1.356 1_554 S
N388 C380 1.356 . S
N388 H394 0.984 . S
N388 H395 0.984 1_554 S
N389 C382 1.356 . S
N389 H392 0.984 . S
N389 H393 0.985 . S
H390 N385 0.984 . S
H391 N385 0.985 . S
H392 N389 0.984 . S
H393 N389 0.985 . S
H394 N388 0.984 . S
H395 N388 0.984 1_556 S
H396 N384 0.984 . S
H397 N384 0.985 . S
C398 C399 1.363 . S
C398 C404 1.379 . S
C398 N406 1.356 . S
C399 C398 1.363 . S
C399 C405 1.372 . S
C400 C401 1.356 1_565 S
C400 C405 1.374 1_565 S
C400 N407 1.356 . S
C401 C400 1.356 1_545 S
C401 C404 1.377 . S
N402 C404 1.356 . S
N402 H414 0.984 . S
N402 H415 0.985 . S
N403 C405 1.354 1_565 S
N403 H408 0.984 1_565 S
N403 H409 0.985 . S
C404 C398 1.379 . S
C404 C401 1.377 . S
C404 N402 1.356 . S
C405 C399 1.372 . S
C405 C400 1.374 1_545 S
C405 N403 1.354 1_545 S
N406 C398 1.356 . S
N406 H412 0.984 . S
N406 H413 0.984 . S
N407 C400 1.356 . S
N407 H410 0.984 . S
N407 H411 0.985 . S
H408 N403 0.984 1_545 S
H409 N403 0.985 . S
H410 N407 0.984 . S
H411 N407 0.985 . S
H412 N406 0.984 . S
H413 N406 0.984 . S
H414 N402 0.984 . S
H415 N402 0.985 . S
C416 C417 1.363 . S
C416 C422 1.379 . S
C416 N424 1.356 . S
C417 C416 1.363 . S
C417 C423 1.363 1_554 S
C418 C419 1.363 . S
C418 C423 1.379 . S
C418 N425 1.356 . S
C419 C418 1.363 . S
C419 C422 1.363 1_556 S
N420 C422 1.356 . S
N420 H432 0.984 . S
N420 H433 0.985 . S
N421 C423 1.356 . S
N421 H426 0.984 . S
N421 H427 0.985 . S
C422 C416 1.379 . S
C422 C419 1.363 1_554 S
C422 N420 1.356 . S
C423 C417 1.363 1_556 S
C423 C418 1.379 . S
C423 N421 1.356 . S
N424 C416 1.356 . S
N424 H430 0.984 . S
N424 H431 0.984 . S
N425 C418 1.356 . S
N425 H428 0.984 . S
N425 H429 0.985 . S
H426 N421 0.984 . S
H427 N421 0.985 . S
H428 N425 0.984 . S
H429 N425 0.985 . S
H430 N424 0.984 . S
H431 N424 0.984 . S
H432 N420 0.984 . S
H433 N420 0.985 . S
C434 C435 1.363 . S
C434 C440 1.379 . S
C434 N442 1.356 . S
C435 C434 1.363 . S
C435 C441 1.363 1_655 S
C436 C437 1.363 . S
C436 C441 1.379 . S
C436 N443 1.356 . S
C437 C436 1.363 . S
C437 C440 1.363 1_455 S
N438 C440 1.356 . S
N438 H450 0.984 . S
N438 H451 0.985 1_655 S
N439 C441 1.356 . S
N439 H444 0.984 1_455 S
N439 H445 0.985 . S
C440 C434 1.379 . S
C440 C437 1.363 1_655 S
C440 N438 1.356 . S
C441 C435 1.363 1_455 S
C441 C436 1.379 . S
C441 N439 1.356 . S
N442 C434 1.356 . S
N442 H448 0.984 . S
N442 H449 0.984 . S
N443 C436 1.356 . S
N443 H446 0.984 . S
N443 H447 0.985 . S
H444 N439 0.984 1_655 S
H445 N439 0.985 . S
H446 N443 0.984 . S
H447 N443 0.985 . S
H448 N442 0.984 . S
H449 N442 0.984 . S
H450 N438 0.984 . S
H451 N438 0.985 1_455 S
C452 C453 1.363 1_655 S
C452 C458 1.379 1_554 S
C452 N460 1.356 . S
C453 C452 1.363 1_455 S
C453 C459 1.363 1_565 S
C454 C455 1.363 1_455 S
C454 C459 1.379 1_556 S
C454 N461 1.356 . S
C455 C454 1.363 1_655 S
C455 C458 1.363 1_545 S
N456 C458 1.358 . S
N456 H468 0.996 . S
N456 H469 0.971 1_565 S
N457 C459 1.358 . S
N457 H462 0.971 1_545 S
N457 H463 0.996 . S
C458 C452 1.379 1_556 S
C458 C455 1.363 1_565 S
C458 N456 1.358 . S
C459 C453 1.363 1_545 S
C459 C454 1.379 1_554 S
C459 N457 1.358 . S
N460 C452 1.356 . S
N460 H466 0.984 . S
N460 H467 1.002 . S
N461 C454 1.356 . S
N461 H464 1.002 . S
N461 H465 0.985 . S
H462 N457 0.971 1_565 S
H463 N457 0.996 . S
H464 N461 1.002 . S
H465 N461 0.985 . S
H466 N460 0.984 . S
H467 N460 1.002 . S
H468 N456 0.996 . S
H469 N456 0.971 1_545 S
C470 C471 1.363 . S
C470 C476 1.379 1_545 S
C470 N478 1.356 . S
C471 C470 1.363 . S
C471 C477 1.363 . S
C472 C473 1.363 . S
C472 C477 1.379 1_565 S
C472 N479 1.356 . S
C473 C472 1.363 . S
C473 C476 1.363 . S
N474 C476 1.356 . S
N474 H486 0.984 . S
N474 H487 0.985 . S
N475 C477 1.356 . S
N475 H480 0.984 . S
N475 H481 0.985 . S
C476 C470 1.379 1_565 S
C476 C473 1.363 . S
C476 N474 1.356 . S
C477 C471 1.363 . S
C477 C472 1.379 1_545 S
C477 N475 1.356 . S
N478 C470 1.356 . S
N478 H484 0.984 . S
N478 H485 0.984 . S
N479 C472 1.356 . S
N479 H482 0.984 . S
N479 H483 0.985 . S
H480 N475 0.984 . S
H481 N475 0.985 . S
H482 N479 0.984 . S
H483 N479 0.985 . S
H484 N478 0.984 . S
H485 N478 0.984 . S
H486 N474 0.984 . S
H487 N474 0.985 . S
C488 C489 1.363 . S
C488 C494 1.379 . S
C488 N496 1.356 . S
C489 C488 1.363 . S
C489 C495 1.363 . S
C490 C491 1.363 1_554 S
C490 C495 1.379 1_554 S
C490 N497 1.356 . S
C491 C490 1.363 1_556 S
C491 C494 1.363 . S
N492 C494 1.356 . S
N492 H504 0.984 . S
N492 H505 0.985 . S
N493 C495 1.356 . S
N493 H498 0.984 . S
N493 H499 0.985 1_556 S
C494 C488 1.379 . S
C494 C491 1.363 . S
C494 N492 1.356 . S
C495 C489 1.363 . S
C495 C490 1.379 1_556 S
C495 N493 1.356 . S
N496 C488 1.356 . S
N496 H502 0.984 . S
N496 H503 0.984 . S
N497 C490 1.356 . S
N497 H500 0.984 . S
N497 H501 0.985 . S
H498 N493 0.984 . S
H499 N493 0.985 1_554 S
H500 N497 0.984 . S
H501 N497 0.985 . S
H502 N496 0.984 . S
H503 N496 0.984 . S
H504 N492 0.984 . S
H505 N492 0.985 . S
C506 C507 1.363 . S
C506 C512 1.379 . S
C506 N514 1.356 . S
C507 C506 1.363 . S
C507 C513 1.363 . S
C508 C509 1.363 . S
C508 C513 1.379 . S
C508 N515 1.356 . S
C509 C508 1.363 . S
C509 C512 1.363 . S
N510 C512 1.356 1_655 S
N510 H522 0.984 . S
N510 H523 0.985 . S
N511 C513 1.356 . S
N511 H516 0.984 . S
N511 H517 0.985 . S
C512 C506 1.379 . S
C512 C509 1.363 . S
C512 N510 1.356 1_455 S
C513 C507 1.363 . S
C513 C508 1.379 . S
C513 N511 1.356 . S
N514 C506 1.356 . S
N514 H520 0.984 . S
N514 H521 0.984 . S
N515 C508 1.356 . S
N515 H518 0.984 . S
N515 H519 0.985 . S
H516 N511 0.984 . S
H517 N511 0.985 . S
H518 N515 0.984 . S
H519 N515 0.985 . S
H520 N514 0.984 . S
H521 N514 0.984 . S
H522 N510 0.984 . S
H523 N510 0.985 . S
C524 C525 1.363 . S
C524 C530 1.379 . S
C524 N532 1.356 . S
C525 C524 1.363 . S
C525 C531 1.363 1_554 S
C526 C527 1.363 . S
C526 C531 1.379 1_554 S
C526 N533 1.356 . S
C527 C526 1.363 . S
C527 C530 1.363 . S
N528 C530 1.356 . S
N528 H540 0.984 . S
N528 H541 0.985 . S
N529 C531 1.356 . S
N529 H534 0.984 . S
N529 H535 0.985 . S
C530 C524 1.379 . S
C530 C527 1.363 . S
C530 N528 1.356 . S
C531 C525 1.363 1_556 S
C531 C526 1.379 1_556 S
C531 N529 1.356 . S
N532 C524 1.356 . S
N532 H538 0.984 . S
N532 H539 0.984 . S
N533 C526 1.356 . S
N533 H536 0.984 . S
N533 H537 0.985 1_554 S
H534 N529 0.984 . S
H535 N529 0.985 . S
H536 N533 0.984 . S
H537 N533 0.985 1_556 S
H538 N532 0.984 . S
H539 N532 0.984 . S
H540 N528 0.984 . S
H541 N528 0.985 . S
C542 C543 1.363 . S
C542 C548 1.379 . S
C542 N550 1.356 . S
C543 C542 1.363 . S
C543 C549 1.363 . S
C544 C545 1.363 . S
C544 C549 1.379 . S
C544 N551 1.356 . S
C545 C544 1.363 . S
C545 C548 1.363 . S
N546 C548 1.356 . S
N546 H558 0.984 . S
N546 H559 0.985 . S
N547 C549 1.356 . S
N547 H552 0.984 . S
N547 H553 0.985 . S
C548 C542 1.379 . S
C548 C545 1.363 . S
C548 N546 1.356 . S
C549 C543 1.363 . S
C549 C544 1.379 . S
C549 N547 1.356 . S
N550 C542 1.356 . S
N550 H556 0.984 . S
N550 H557 0.984 . S
N551 C544 1.356 . S
N551 H554 0.984 . S
N551 H555 0.985 . S
H552 N547 0.984 . S
H553 N547 0.985 . S
H554 N551 0.984 . S
H555 N551 0.985 . S
H556 N550 0.984 . S
H557 N550 0.984 . S
H558 N546 0.984 . S
H559 N546 0.985 . S
C560 C561 1.358 1_556 S
C560 C566 1.371 1_556 S
C560 N568 1.370 . S
C561 C560 1.358 1_554 S
C561 C567 1.363 . S
C562 C563 1.363 . S
C562 C567 1.379 . S
C562 N569 1.356 . S
C563 C562 1.363 . S
C563 C566 1.363 . S
N564 C566 1.356 . S
N564 H576 0.984 1_554 S
N564 H577 0.985 . S
N565 C567 1.356 . S
N565 H570 0.984 . S
N565 H571 0.985 . S
C566 C560 1.371 1_554 S
C566 C563 1.363 . S
C566 N564 1.356 . S
C567 C561 1.363 . S
C567 C562 1.379 . S
C567 N565 1.356 . S
N568 C560 1.370 . S
N568 H574 0.984 . S
N568 H575 0.984 . S
N569 C562 1.356 . S
N569 H572 0.984 . S
N569 H573 0.985 . S
H570 N565 0.984 . S
H571 N565 0.985 . S
H572 N569 0.984 . S
H573 N569 0.985 . S
H574 N568 0.984 . S
H575 N568 0.984 . S
H576 N564 0.984 1_556 S
H577 N564 0.985 . S
C578 C579 1.363 . S
C578 C584 1.379 . S
C578 N586 1.356 . S
C579 C578 1.363 . S
C579 C585 1.363 . S
C580 C581 1.363 . S
C580 C585 1.379 . S
C580 N587 1.356 . S
C581 C580 1.363 . S
C581 C584 1.363 . S
N582 C584 1.356 . S
N582 H594 0.984 . S
N582 H595 0.985 . S
N583 C585 1.356 . S
N583 H588 0.984 . S
N583 H589 0.985 . S
C584 C578 1.379 . S
C584 C581 1.363 . S
C584 N582 1.356 . S
C585 C579 1.363 . S
C585 C580 1.379 . S
C585 N583 1.356 . S
N586 C578 1.356 . S
N586 H592 0.984 . S
N586 H593 0.984 . S
N587 C580 1.356 . S
N587 H590 0.984 . S
N587 H591 0.985 . S
H588 N583 0.984 . S
H589 N583 0.985 . S
H590 N587 0.984 . S
H591 N587 0.985 . S
H592 N586 0.984 . S
H593 N586 0.984 . S
H594 N582 0.984 . S
H595 N582 0.985 . S
C596 C597 1.363 . S
C596 C602 1.379 . S
C596 N604 1.356 . S
C597 C596 1.363 . S
C597 C603 1.363 . S
C598 C599 1.363 . S
C598 C603 1.379 . S
C598 N605 1.356 . S
C599 C598 1.363 . S
C599 C602 1.363 . S
N600 C602 1.356 1_654 S
N600 H612 0.984 . S
N600 H613 0.985 . S
N601 C603 1.356 . S
N601 H606 0.984 . S
N601 H607 0.985 . S
C602 C596 1.379 . S
C602 C599 1.363 . S
C602 N600 1.356 1_456 S
C603 C597 1.363 . S
C603 C598 1.379 . S
C603 N601 1.356 . S
N604 C596 1.356 . S
N604 H610 0.984 . S
N604 H611 0.984 . S
N605 C598 1.356 . S
N605 H608 0.984 . S
N605 H609 0.985 . S
H606 N601 0.984 . S
H607 N601 0.985 . S
H608 N605 0.984 . S
H609 N605 0.985 . S
H610 N604 0.984 . S
H611 N604 0.984 . S
H612 N600 0.984 . S
H613 N600 0.985 . S
C614 C615 1.363 . S
C614 C620 1.379 . S
C614 N622 1.356 . S
C615 C614 1.363 . S
C615 C621 1.363 . S
C616 C617 1.363 . S
C616 C621 1.379 . S
C616 N623 1.356 . S
C617 C616 1.363 . S
C617 C620 1.363 . S
N618 C620 1.356 . S
N618 H630 0.984 . S
N618 H631 0.985 . S
N619 C621 1.356 . S
N619 H624 0.984 . S
N619 H625 0.985 . S
C620 C614 1.379 . S
C620 C617 1.363 . S
C620 N618 1.356 . S
C621 C615 1.363 . S
C621 C616 1.379 . S
C621 N619 1.356 . S
N622 C614 1.356 . S
N622 H628 0.984 . S
N622 H629 0.984 . S
N623 C616 1.356 . S
N623 H626 0.984 . S
N623 H627 0.985 . S
H624 N619 0.984 . S
H625 N619 0.985 . S
H626 N623 0.984 . S
H627 N623 0.985 . S
H628 N622 0.984 . S
H629 N622 0.984 . S
H630 N618 0.984 . S
H631 N618 0.985 . S
C632 C633 1.363 . S
C632 C638 1.379 . S
C632 N640 1.356 . S
C633 C632 1.363 . S
C633 C639 1.363 . S
C634 C635 1.363 . S
C634 C639 1.379 . S
C634 N641 1.356 . S
C635 C634 1.363 . S
C635 C638 1.363 . S
N636 C638 1.356 . S
N636 H648 0.984 . S
N636 H649 0.985 . S
N637 C639 1.356 . S
N637 H642 0.984 . S
N637 H643 0.985 . S
C638 C632 1.379 . S
C638 C635 1.363 . S
C638 N636 1.356 . S
C639 C633 1.363 . S
C639 C634 1.379 . S
C639 N637 1.356 . S
N640 C632 1.356 . S
N640 H646 0.984 . S
N640 H647 0.984 . S
N641 C634 1.356 . S
N641 H644 0.984 . S
N641 H645 0.985 . S
H642 N637 0.984 . S
H643 N637 0.985 . S
H644 N641 0.984 . S
H645 N641 0.985 . S
H646 N640 0.984 . S
H647 N640 0.984 . S
H648 N636 0.984 . S
H649 N636 0.985 . S
C650 C651 1.363 . S
C650 C656 1.379 . S
C650 N658 1.356 . S
C651 C650 1.363 . S
C651 C657 1.363 . S
C652 C653 1.363 . S
C652 C657 1.379 . S
C652 N659 1.356 . S
C653 C652 1.363 . S
C653 C656 1.363 . S
N654 C656 1.356 . S
N654 H666 0.984 . S
N654 H667 0.985 . S
N655 C657 1.356 . S
N655 H660 0.984 . S
N655 H661 0.985 . S
C656 C650 1.379 . S
C656 C653 1.363 . S
C656 N654 1.356 . S
C657 C651 1.363 . S
C657 C652 1.379 . S
C657 N655 1.356 . S
N658 C650 1.356 . S
N658 H664 0.984 . S
N658 H665 0.984 . S
N659 C652 1.356 . S
N659 H662 0.984 . S
N659 H663 0.985 . S
H660 N655 0.984 . S
H661 N655 0.985 . S
H662 N659 0.984 . S
H663 N659 0.985 . S
H664 N658 0.984 . S
H665 N658 0.984 . S
H666 N654 0.984 . S
H667 N654 0.985 . S
C668 C669 1.363 . S
C668 C674 1.379 . S
C668 N676 1.356 . S
C669 C668 1.363 . S
C669 C675 1.363 . S
C670 C671 1.363 . S
C670 C675 1.379 . S
C670 N677 1.356 . S
C671 C670 1.363 . S
C671 C674 1.363 . S
N672 C674 1.356 . S
N672 H684 0.984 . S
N672 H685 0.985 . S
N673 C675 1.356 . S
N673 H678 0.984 . S
N673 H679 0.985 . S
C674 C668 1.379 . S
C674 C671 1.363 . S
C674 N672 1.356 . S
C675 C669 1.363 . S
C675 C670 1.379 . S
C675 N673 1.356 . S
N676 C668 1.356 . S
N676 H682 0.984 . S
N676 H683 0.984 . S
N677 C670 1.356 . S
N677 H680 0.984 . S
N677 H681 0.985 . S
H678 N673 0.984 . S
H679 N673 0.985 . S
H680 N677 0.984 . S
H681 N677 0.985 . S
H682 N676 0.984 . S
H683 N676 0.984 . S
H684 N672 0.984 . S
H685 N672 0.985 . S
C686 C687 1.363 . S
C686 C692 1.379 . S
C686 N694 1.356 . S
C687 C686 1.363 . S
C687 C693 1.363 . S
C688 C689 1.363 . S
C688 C693 1.379 . S
C688 N695 1.356 . S
C689 C688 1.363 . S
C689 C692 1.363 . S
N690 C692 1.356 . S
N690 H702 0.984 . S
N690 H703 0.985 . S
N691 C693 1.356 . S
N691 H696 0.984 . S
N691 H697 0.985 . S
C692 C686 1.379 . S
C692 C689 1.363 . S
C692 N690 1.356 . S
C693 C687 1.363 . S
C693 C688 1.379 . S
C693 N691 1.356 . S
N694 C686 1.356 . S
N694 H700 0.984 . S
N694 H701 0.984 . S
N695 C688 1.356 . S
N695 H698 0.984 . S
N695 H699 0.985 . S
H696 N691 0.984 . S
H697 N691 0.985 . S
H698 N695 0.984 . S
H699 N695 0.985 . S
H700 N694 0.984 . S
H701 N694 0.984 . S
H702 N690 0.984 . S
H703 N690 0.985 . S
C704 C705 1.363 . S
C704 C710 1.379 . S
C704 N712 1.356 . S
C705 C704 1.363 . S
C705 C711 1.363 . S
C706 C707 1.363 . S
C706 C711 1.379 . S
C706 N713 1.356 . S
C707 C706 1.363 . S
C707 C710 1.363 . S
N708 C710 1.356 . S
N708 H720 0.984 . S
N708 H721 0.985 . S
N709 C711 1.356 . S
N709 H714 0.984 . S
N709 H715 0.985 . S
C710 C704 1.379 . S
C710 C707 1.363 . S
C710 N708 1.356 . S
C711 C705 1.363 . S
C711 C706 1.379 . S
C711 N709 1.356 . S
N712 C704 1.356 . S
N712 H718 0.984 . S
N712 H719 0.984 . S
N713 C706 1.356 . S
N713 H716 0.984 . S
N713 H717 0.985 . S
H714 N709 0.984 . S
H715 N709 0.985 . S
H716 N713 0.984 . S
H717 N713 0.985 . S
H718 N712 0.984 . S
H719 N712 0.984 . S
H720 N708 0.984 . S
H721 N708 0.985 . S
C722 C723 1.363 . S
C722 C728 1.379 . S
C722 N730 1.356 . S
C723 C722 1.363 . S
C723 C729 1.363 . S
C724 C725 1.363 . S
C724 C729 1.379 . S
C724 N731 1.356 . S
C725 C724 1.363 . S
C725 C728 1.363 . S
N726 C728 1.356 . S
N726 H738 0.984 . S
N726 H739 0.985 . S
N727 C729 1.356 . S
N727 H732 0.984 . S
N727 H733 0.985 . S
C728 C722 1.379 . S
C728 C725 1.363 . S
C728 N726 1.356 . S
C729 C723 1.363 . S
C729 C724 1.379 . S
C729 N727 1.356 . S
N730 C722 1.356 . S
N730 H736 0.984 . S
N730 H737 0.984 . S
N731 C724 1.356 . S
N731 H734 0.984 . S
N731 H735 0.985 . S
H732 N727 0.984 . S
H733 N727 0.985 . S
H734 N731 0.984 . S
H735 N731 0.985 . S
H736 N730 0.984 . S
H737 N730 0.984 . S
H738 N726 0.984 . S
H739 N726 0.985 . S
C740 C741 1.363 . S
C740 C746 1.379 . S
C740 N748 1.356 . S
C741 C740 1.363 . S
C741 C747 1.363 . S
C742 C743 1.363 . S
C742 C747 1.379 . S
C742 N749 1.356 . S
C743 C742 1.363 . S
C743 C746 1.363 . S
N744 C746 1.356 . S
N744 H756 0.984 . S
N744 H757 0.985 . S
N745 C747 1.356 . S
N745 H750 0.984 . S
N745 H751 0.985 . S
C746 C740 1.379 . S
C746 C743 1.363 . S
C746 N744 1.356 . S
C747 C741 1.363 . S
C747 C742 1.379 . S
C747 N745 1.356 . S
N748 C740 1.356 . S
N748 H754 0.984 . S
N748 H755 0.984 . S
N749 C742 1.356 . S
N749 H752 0.984 . S
N749 H753 0.985 . S
H750 N745 0.984 . S
H751 N745 0.985 . S
H752 N749 0.984 . S
H753 N749 0.985 . S
H754 N748 0.984 . S
H755 N748 0.984 . S
H756 N744 0.984 . S
H757 N744 0.985 . S
C758 C759 1.363 . S
C758 C764 1.379 . S
C758 N766 1.356 . S
C759 C758 1.363 . S
C759 C765 1.363 . S
C760 C761 1.363 . S
C760 C765 1.379 . S
C760 N767 1.356 . S
C761 C760 1.363 . S
C761 C764 1.363 . S
N762 C764 1.356 . S
N762 H774 0.984 . S
N762 H775 0.985 . S
N763 C765 1.356 . S
N763 H768 0.984 . S
N763 H769 0.985 . S
C764 C758 1.379 . S
C764 C761 1.363 . S
C764 N762 1.356 . S
C765 C759 1.363 . S
C765 C760 1.379 . S
C765 N763 1.356 . S
N766 C758 1.356 . S
N766 H772 0.984 . S
N766 H773 0.984 . S
N767 C760 1.356 . S
N767 H770 0.984 . S
N767 H771 0.985 . S
H768 N763 0.984 . S
H769 N763 0.985 . S
H770 N767 0.984 . S
H771 N767 0.985 . S
H772 N766 0.984 . S
H773 N766 0.984 . S
H774 N762 0.984 . S
H775 N762 0.985 . S
C273 C3 1.568 . S
C275 C49 1.655 1_554 S
C291 C37 1.568 . S
C293 C15 1.658 . S
C309 C69 1.568 . S
C311 C117 1.647 1_546 S
C327 C105 1.568 . S
C329 C90 1.650 1_565 S
C345 C137 1.568 . S
C347 C192 1.655 1_556 S
C363 C171 1.568 . S
C365 C158 1.658 . S
C381 C260 1.647 1_564 S
C383 C207 1.568 . S
C399 C239 1.568 . S
C401 C219 1.650 1_545 S
C417 C1 2.015 . S
C419 C139 2.015 . S
C435 C173 2.015 . S
C437 C35 2.015 . S
C453 C205 2.015 . S
C455 C71 2.015 . S
C471 C241 2.015 . S
C473 C103 2.015 . S
C489 C255 2.026 . S
C491 C22 1.685 1_556 S
C507 C221 2.026 . S
C509 C56 1.685 . S
C525 C83 1.685 1_554 S
C527 C187 2.026 . S
C543 C153 2.026 . S
C545 C124 1.685 . S
C561 C151 1.685 1_554 S
C563 C119 2.026 . S
C579 C185 1.685 . S
C581 C85 2.026 . S
C597 C51 2.026 . S
C599 C226 1.685 1_556 S
C615 C17 2.026 . S
C617 C253 1.685 . S
C633 C176 1.268 . S
C635 C6 1.272 . S
C651 C40 1.272 . S
C653 C142 1.268 . S
C669 C244 1.268 . S
C671 C96 1.272 . S
C687 C108 1.272 . S
C689 C232 1.268 . S
C705 C164 1.272 . S
C707 C62 1.268 . S
C723 C28 1.268 . S
C725 C198 1.272 . S
C741 C130 1.268 . S
C743 C210 1.272 . S
C759 C266 1.272 . S
C761 C74 1.268 . S
