# Generated by pormake.
# Topology fcu, (12)-cn, num edge types: 1
# Building blocks:
#     Node 0, Type 0, BuildingBlock: QEWDON_clean_sbu_0, # of connection points: 12
#     Node 1, Type 0, BuildingBlock: QEWDON_clean_sbu_0, # of connection points: 12
#     Node 2, Type 0, BuildingBlock: QEWDON_clean_sbu_0, # of connection points: 12
#     Node 3, Type 0, BuildingBlock: QEWDON_clean_sbu_0, # of connection points: 12
#     Edge 4, Type (0, 0), BuildingBlock: KIFKEQ_clean_linker_1, # of connection points: 2
#     Edge 5, Type (0, 0), BuildingBlock: KIFKEQ_clean_linker_1, # of connection points: 2
#     Edge 6, Type (0, 0), BuildingBlock: KIFKEQ_clean_linker_1, # of connection points: 2
#     Edge 7, Type (0, 0), BuildingBlock: KIFKEQ_clean_linker_1, # of connection points: 2
#     Edge 8, Type (0, 0), BuildingBlock: KIFKEQ_clean_linker_1, # of connection points: 2
#     Edge 9, Type (0, 0), BuildingBlock: KIFKEQ_clean_linker_1, # of connection points: 2
#     Edge 10, Type (0, 0), BuildingBlock: KIFKEQ_clean_linker_1, # of connection points: 2
#     Edge 11, Type (0, 0), BuildingBlock: KIFKEQ_clean_linker_1, # of connection points: 2
#     Edge 12, Type (0, 0), BuildingBlock: KIFKEQ_clean_linker_1, # of connection points: 2
#     Edge 13, Type (0, 0), BuildingBlock: KIFKEQ_clean_linker_1, # of connection points: 2
#     Edge 14, Type (0, 0), BuildingBlock: KIFKEQ_clean_linker_1, # of connection points: 2
#     Edge 15, Type (0, 0), BuildingBlock: KIFKEQ_clean_linker_1, # of connection points: 2
#     Edge 16, Type (0, 0), BuildingBlock: KIFKEQ_clean_linker_1, # of connection points: 2
#     Edge 17, Type (0, 0), BuildingBlock: KIFKEQ_clean_linker_1, # of connection points: 2
#     Edge 18, Type (0, 0), BuildingBlock: KIFKEQ_clean_linker_1, # of connection points: 2
#     Edge 19, Type (0, 0), BuildingBlock: KIFKEQ_clean_linker_1, # of connection points: 2
#     Edge 20, Type (0, 0), BuildingBlock: KIFKEQ_clean_linker_1, # of connection points: 2
#     Edge 21, Type (0, 0), BuildingBlock: KIFKEQ_clean_linker_1, # of connection points: 2
#     Edge 22, Type (0, 0), BuildingBlock: KIFKEQ_clean_linker_1, # of connection points: 2
#     Edge 23, Type (0, 0), BuildingBlock: KIFKEQ_clean_linker_1, # of connection points: 2
#     Edge 24, Type (0, 0), BuildingBlock: KIFKEQ_clean_linker_1, # of connection points: 2
#     Edge 25, Type (0, 0), BuildingBlock: KIFKEQ_clean_linker_1, # of connection points: 2
#     Edge 26, Type (0, 0), BuildingBlock: KIFKEQ_clean_linker_1, # of connection points: 2
#     Edge 27, Type (0, 0), BuildingBlock: KIFKEQ_clean_linker_1, # of connection points: 2
# Relax obj value: 0.042
# Max RMSD: 0.120
# Mean RMSD: 0.109
data_MOF--net-fcu--node1-QEWDON_clean_sbu_0--edge1-KIFKEQ_clean_linker_1
_symmetry_space_group_name_H-M    P1
_symmetry_Int_Tables_number       1
_symmetry_cell_setting            triclinic
loop_
_symmetry_equiv_pos_as_xyz
'x, y, z'
_cell_length_a     27.453466
_cell_length_b     28.013906
_cell_length_c     28.308686
_cell_angle_alpha  90.102118
_cell_angle_beta   89.94282
_cell_angle_gamma 89.817893
loop_
_atom_site_label
_atom_site_type_symbol
_atom_site_fract_x
_atom_site_fract_y
_atom_site_fract_z
_atom_type_partial_charge
Zn0 Zn 0.91017 0.90015 0.96185 0.0
Zn1 Zn 0.93689 0.88668 0.07508 0.0
O2 O 0.92954 0.93438 0.02195 0.0
H3 H 0.94546 0.96501 0.02163 0.0
C4 C 0.03832 0.85335 0.88286 0.0
O5 O 0.01272 0.89299 0.88114 0.0
Zn6 Zn 0.04481 0.0936 0.07843 0.0
Zn7 Zn 0.05992 0.10089 0.96452 0.0
O8 O 0.05457 0.05423 0.01935 0.0
H9 H 0.04366 0.0217 0.01556 0.0
Zn10 Zn 0.09735 0.90277 0.95916 0.0
O11 O 0.05604 0.92121 0.016 0.0
Zn12 Zn 0.09981 0.93226 0.07184 0.0
H13 H 0.02264 0.93148 0.01355 0.0
Zn14 Zn 0.89364 0.04112 0.95715 0.0
O15 O 0.93056 0.05235 0.01803 0.0
H16 H 0.9588 0.0727 0.01656 0.0
Zn17 Zn 0.88382 0.04257 0.07259 0.0
C18 C 0.95287 0.09106 0.88167 0.0
O19 O -0.01048 0.06426 0.89547 0.0
O20 O 0.91054 0.8278 0.97243 0.0
O21 O 0.92371 0.82008 0.04985 0.0
O22 O 0.05404 0.17075 0.98606 0.0
O23 O 0.05819 0.16321 0.06429 0.0
O24 O 0.17018 0.89859 0.97645 0.0
O25 O 0.16879 0.91573 0.05319 0.0
C26 C 0.87504 0.94748 0.12869 0.0
O27 O 0.81997 0.04192 0.96937 0.0
O28 O 0.81547 0.05317 0.04728 0.0
O29 O 0.11124 0.08907 0.91081 0.0
C30 C 0.91543 0.80194 0.00918 0.0
O31 O 0.85662 0.92754 0.91597 0.0
C32 C 0.10565 0.02697 0.12744 0.0
O33 O 0.0732 0.84997 0.91228 0.0
C34 C 0.05714 0.18904 0.02719 0.0
O35 O 0.91162 0.08648 0.90157 0.0
C36 C 0.03683 0.87388 0.12762 0.0
O37 O 0.8904 0.9046 0.12827 0.0
O38 O 0.89036 0.975 0.09621 0.0
C39 C 0.19189 0.90387 0.0159 0.0
O40 O 0.08979 0.06961 0.12974 0.0
O41 O 0.09205 0.00109 0.09286 0.0
C42 C 0.94418 0.10249 0.12857 0.0
O43 O 0.08054 0.8883 0.12474 0.0
O44 O 0.00657 0.89025 0.09758 0.0
C45 C 0.7953 0.04988 0.00674 0.0
O46 O 0.90031 0.08835 0.12603 0.0
O47 O 0.97449 0.08609 0.0986 0.0
C48 C 0.11847 0.04856 0.89171 0.0
O49 O 0.09292 0.01179 0.90622 0.0
C50 C 0.86601 0.93106 0.87206 0.0
O51 O 0.90997 0.92005 0.85718 0.0
Zn52 Zn 0.91193 0.47254 0.37742 0.0
Zn53 Zn 0.89797 0.56936 0.43365 0.0
O54 O 0.93308 0.50656 0.43683 0.0
H55 H 0.93622 0.48951 0.46631 0.0
C56 C 0.89037 0.39705 0.56465 0.0
O57 O 0.91822 0.41347 0.53066 0.0
Zn58 Zn 0.08751 0.53125 0.5725 0.0
Zn59 Zn 0.06983 0.4187 0.58981 0.0
O60 O 0.03441 0.48236 0.58041 0.0
H61 H 0.00231 0.48547 0.56686 0.0
Zn62 Zn 0.93046 0.47571 0.61941 0.0
O63 O 0.91184 0.52153 0.56684 0.0
Zn64 Zn 0.92508 0.58015 0.60358 0.0
H65 H 0.88416 0.51584 0.54657 0.0
Zn66 Zn 0.04759 0.43063 0.41059 0.0
O67 O 0.02896 0.49256 0.44309 0.0
H68 H 0.02141 0.49508 0.47633 0.0
Zn69 Zn 0.05008 0.54516 0.40028 0.0
C70 C 0.08252 0.37346 0.48764 0.0
O71 O 0.10286 0.41479 0.49711 0.0
O72 O 0.84255 0.49272 0.36185 0.0
O73 O 0.82983 0.55934 0.40367 0.0
O74 O 0.13859 0.42858 0.61567 0.0
O75 O 0.15209 0.50375 0.59493 0.0
O76 O 0.90691 0.50049 0.684 0.0
O77 O 0.88954 0.57568 0.66638 0.0
C78 C 0.97176 0.61383 0.36797 0.0
O79 O 0.10028 0.43968 0.35939 0.0
O80 O 0.09911 0.51885 0.35265 0.0
O81 O 0.03586 0.3595 0.61932 0.0
C82 C 0.81497 0.52678 0.37528 0.0
O83 O 0.93039 0.40188 0.36021 0.0
C84 C 0.03399 0.60204 0.62735 0.0
O85 O 0.89432 0.41388 0.60608 0.0
C86 C 0.16631 0.46478 0.61372 0.0
O87 O 0.0547 0.37027 0.45198 0.0
C88 C 0.89344 0.63387 0.52221 0.0
O89 O 0.93396 0.61734 0.39385 0.0
O90 O -0.00747 0.57331 0.3629 0.0
C91 C 0.88754 0.54043 0.69475 0.0
O92 O 0.07617 0.58715 0.61627 0.0
O93 O -0.00215 0.58141 0.6083 0.0
C94 C 0.09952 0.5902 0.48131 0.0
O95 O 0.90185 0.63629 0.56634 0.0
O96 O 0.8985 0.59392 0.5012 0.0
C97 C 0.11584 0.47799 0.34056 0.0
O98 O 0.08687 0.5947 0.4382 0.0
O99 O 0.08509 0.55367 0.5041 0.0
C100 C 0.01153 0.36421 0.65725 0.0
O101 O 0.00421 0.40731 0.67429 0.0
C102 C 0.96686 0.39172 0.33427 0.0
O103 O -0.00388 0.42624 0.32105 0.0
Zn104 Zn 0.38947 0.90917 0.4706 0.0
Zn105 Zn 0.41179 0.90743 0.58393 0.0
O106 O 0.40572 0.95048 0.52722 0.0
H107 H 0.4165 0.98319 0.52508 0.0
C108 C 0.51253 0.88479 0.37114 0.0
O109 O 0.5247 0.92883 0.36057 0.0
Zn110 Zn 0.56407 0.09734 0.57714 0.0
Zn111 Zn 0.58872 0.08468 0.46377 0.0
O112 O 0.55975 0.05253 0.52163 0.0
H113 H 0.53667 0.02676 0.51979 0.0
Zn114 Zn 0.56167 0.91285 0.45714 0.0
O115 O 0.53363 0.93545 0.51902 0.0
Zn116 Zn 0.58543 0.93039 0.56885 0.0
H117 H 0.50215 0.95048 0.52243 0.0
Zn118 Zn 0.38038 0.09052 0.47922 0.0
O119 O 0.42962 0.08266 0.53153 0.0
H120 H 0.46217 0.07083 0.52603 0.0
Zn121 Zn 0.39236 0.07854 0.5925 0.0
C122 C 0.44109 0.13771 0.40257 0.0
O123 O 0.47913 0.11669 0.42162 0.0
O124 O 0.36911 0.84254 0.49222 0.0
O125 O 0.38007 0.84263 0.57019 0.0
O126 O 0.61256 0.152 0.47965 0.0
O127 O 0.59555 0.15941 0.55639 0.0
O128 O 0.633 0.89283 0.46321 0.0
O129 O 0.64818 0.90257 0.53993 0.0
C130 C 0.36758 0.98294 0.63869 0.0
O131 O 0.31235 0.1056 0.50592 0.0
O132 O 0.32314 0.10404 0.58391 0.0
O133 O 0.6334 0.04745 0.41615 0.0
C134 C 0.36553 0.82224 0.5323 0.0
O135 O 0.34261 0.93605 0.41907 0.0
C136 C 0.61433 0.02252 0.62791 0.0
O137 O 0.52161 0.86939 0.41236 0.0
C138 C 0.61318 0.17596 0.51794 0.0
O139 O 0.39902 0.1311 0.42027 0.0
C140 C 0.51383 0.87796 0.62248 0.0
O141 O 0.37298 0.9379 0.63649 0.0
O142 O 0.39188 0.00889 0.61045 0.0
C143 C 0.66162 0.88978 0.49843 0.0
O144 O 0.60606 0.06722 0.62749 0.0
O145 O 0.59516 -0.00285 0.59549 0.0
C146 C 0.47293 0.12564 0.63759 0.0
O147 O 0.5594 0.88485 0.61777 0.0
O148 O 0.48427 0.9032 0.59848 0.0
C149 C 0.29626 0.11149 0.54779 0.0
O150 O 0.42743 0.11817 0.64132 0.0
O151 O 0.49585 0.10602 0.60351 0.0
C152 C 0.62497 0.05029 0.37205 0.0
O153 O 0.58607 0.07359 0.35781 0.0
C154 C 0.35419 0.93836 0.37564 0.0
O155 O 0.39854 0.92638 0.36269 0.0
Zn156 Zn 0.44382 0.55073 0.03996 0.0
Zn157 Zn 0.44284 0.58412 0.93163 0.0
O158 O 0.46485 0.53079 0.97365 0.0
H159 H 0.47706 0.50023 0.96323 0.0
C160 C 0.52273 0.6619 0.09917 0.0
O161 O 0.52176 0.68156 0.05708 0.0
Zn162 Zn 0.54705 0.39935 0.94101 0.0
Zn163 Zn 0.54031 0.40163 0.05594 0.0
O164 O 0.53972 0.44246 0.99747 0.0
H165 H 0.54884 0.47565 0.99918 0.0
Zn166 Zn 0.56711 0.58418 0.04429 0.0
O167 O 0.53469 0.59462 0.98066 0.0
Zn168 Zn 0.58244 0.57112 0.93244 0.0
H169 H 0.54618 0.59125 0.01269 0.0
Zn170 Zn 0.39777 0.41643 0.05017 0.0
O171 O 0.43649 0.40801 0.98999 0.0
H172 H 0.42177 0.41108 0.02083 0.0
Zn173 Zn 0.39041 0.42169 0.93642 0.0
C174 C 0.44622 0.34476 0.11275 0.0
O175 O 0.46162 0.3267 0.07256 0.0
O176 O 0.42931 0.62265 0.04585 0.0
O177 O 0.42262 0.6411 0.96964 0.0
O178 O 0.56318 0.33309 0.04144 0.0
O179 O 0.56919 0.33391 0.9628 0.0
O180 O 0.64179 0.5817 0.03705 0.0
O181 O 0.6505 0.57803 0.9588 0.0
C182 C 0.37839 0.51785 0.8894 0.0
O183 O 0.32395 0.4173 0.03684 0.0
O184 O 0.32074 0.41106 0.95829 0.0
O185 O 0.56126 0.43321 0.11948 0.0
C186 C 0.42073 0.6526 0.01314 0.0
O187 O 0.39129 0.51204 0.0752 0.0
C188 C 0.60152 0.47473 0.8967 0.0
O189 O 0.54003 0.62 0.10361 0.0
C190 C 0.57284 0.31236 0.00237 0.0
O191 O 0.42003 0.38231 0.11221 0.0
C192 C 0.53055 0.62307 0.86406 0.0
O193 O 0.38957 0.56174 0.88886 0.0
O194 O 0.39772 0.49094 0.92019 0.0
C195 C 0.66865 0.58036 1.00029 0.0
O196 O 0.59668 0.42958 0.89812 0.0
O197 O 0.57145 0.50125 0.91875 0.0
C198 C 0.45536 0.37308 0.87824 0.0
O199 O 0.57399 0.61091 0.87378 0.0
O200 O 0.49641 0.60802 0.89022 0.0
C201 C 0.29976 0.41293 0.99864 0.0
O202 O 0.40974 0.38056 0.88041 0.0
O203 O 0.48145 0.39168 0.91044 0.0
C204 C 0.5865 0.47123 0.11952 0.0
O205 O 0.59866 0.49055 0.07898 0.0
C206 C 0.39807 0.49761 0.1172 0.0
O207 O 0.44129 0.50262 0.13645 0.0
H208 H 0.98803 0.18754 0.11233 0.0
H209 H 0.92575 0.10183 0.2228 0.0
H210 H 0.00199 0.25219 0.16817 0.0
H211 H 0.93916 0.16657 0.27948 0.0
H212 H 0.9031 0.31692 0.34016 0.0
H213 H 0.90476 0.24302 0.29501 0.0
H214 H 0.04409 0.28229 0.23573 0.0
H215 H 0.04166 0.35707 0.27996 0.0
C216 C 0.97959 0.18177 0.14911 0.0
C217 C 0.95758 0.13921 0.16359 0.0
C218 C 0.98694 0.21905 0.18123 0.0
C219 C 0.9719 0.21475 0.22862 0.0
C220 C 0.95081 0.17144 0.24326 0.0
C221 C 0.94339 0.13423 0.21096 0.0
C222 C 0.93448 0.30953 0.31807 0.0
C223 C 0.97186 0.34336 0.31313 0.0
C224 C 0.93559 0.26686 0.29227 0.0
C225 C 0.97429 0.25677 0.26111 0.0
C226 C 0.01317 0.2893 0.25853 0.0
C227 C 0.01192 0.3321 0.28413 0.0
H228 H 0.82031 0.02997 0.13188 0.0
H229 H 0.85008 0.90085 0.20964 0.0
H230 H 0.75977 0.05315 0.19062 0.0
H231 H 0.78976 0.92412 0.26869 0.0
H232 H 0.71395 0.00873 0.38884 0.0
H233 H 0.7752 0.98461 0.33082 0.0
H234 H 0.6785 0.02638 0.2179 0.0
H235 H 0.61748 0.05098 0.27575 0.0
C236 C 0.81409 0.00656 0.16138 0.0
C237 C 0.83988 0.96339 0.16555 0.0
C238 C 0.77915 0.01972 0.19508 0.0
C239 C 0.76966 -0.00967 0.23426 0.0
C240 C 0.79629 0.9477 0.23909 0.0
C241 C 0.83074 0.93428 0.20505 0.0
C242 C 0.70557 0.01244 0.35164 0.0
C243 C 0.6608 0.03197 0.33701 0.0
C244 C 0.74068 -0.00146 0.31838 0.0
C245 C 0.7319 0.00391 0.26971 0.0
C246 C 0.68676 0.02255 0.25511 0.0
C247 C 0.65163 0.03632 0.28833 0.0
H248 H 0.09641 0.83794 0.19535 0.0
H249 H 0.94924 0.82704 0.14253 0.0
H250 H 0.0799 0.77576 0.25255 0.0
H251 H 0.93269 0.76411 0.20048 0.0
H252 H 0.91304 0.69029 0.34719 0.0
H253 H 0.92656 0.75282 0.28897 0.0
H254 H 0.06428 0.6883 0.25142 0.0
H255 H 0.05079 0.62529 0.3097 0.0
C256 C 0.06036 0.82234 0.19584 0.0
C257 C 0.02418 0.83753 0.1639 0.0
C258 C 0.05107 0.78636 0.22862 0.0
C259 C 0.00523 0.76454 0.23078 0.0
C260 C 0.96844 0.78034 0.19975 0.0
C261 C 0.97789 0.81637 0.16649 0.0
C262 C 0.94632 0.68929 0.32662 0.0
C263 C 0.98092 0.65258 0.33321 0.0
C264 C 0.95379 0.72504 0.29293 0.0
C265 C -0.00363 0.72551 0.26545 0.0
C266 C 0.03117 0.68909 0.27225 0.0
C267 C 0.02343 0.65291 0.30554 0.0
H268 H 0.36836 0.95745 0.28188 0.0
H269 H 0.25579 0.94715 0.38807 0.0
H270 H 0.30698 0.97641 0.2226 0.0
H271 H 0.19425 0.96437 0.32859 0.0
H272 H 0.10426 0.04944 0.2208 0.0
H273 H 0.16373 0.02753 0.28097 0.0
H274 H 0.24219 0.94315 0.17778 0.0
H275 H 0.18425 0.96813 0.1175 0.0
C276 C 0.33049 0.95906 0.29254 0.0
C277 C 0.31704 0.95105 0.33977 0.0
C278 C 0.29517 0.96951 0.25845 0.0
C279 C 0.24548 0.97178 0.27066 0.0
C280 C 0.23214 0.96365 0.31795 0.0
C281 C 0.26748 0.95362 0.3521 0.0
C282 C 0.134 0.02581 0.21121 0.0
C283 C 0.13887 0.00918 0.16461 0.0
C284 C 0.16797 0.01298 0.24575 0.0
C285 C 0.20785 0.98336 0.23443 0.0
C286 C 0.21218 0.96621 0.18785 0.0
C287 C 0.17823 0.9793 0.15337 0.0
H288 H 0.08448 0.76715 0.87803 0.0
H289 H 0.97331 0.85119 0.80882 0.0
H290 H 0.07776 0.7067 0.81682 0.0
H291 H 0.9672 0.79048 0.74671 0.0
H292 H 0.95051 0.64587 0.6623 0.0
H293 H 0.94579 0.70514 0.72629 0.0
H294 H 0.10284 0.70671 0.7343 0.0
H295 H 0.10751 0.64748 0.67235 0.0
C296 C 0.05835 0.77268 0.8499 0.0
C297 C 0.02999 0.81447 0.84805 0.0
C298 C 0.05464 0.73803 0.81463 0.0
C299 C 0.02261 0.74419 0.77636 0.0
C300 C -0.00775 0.78471 0.77568 0.0
C301 C -0.00404 0.81957 0.81118 0.0
C302 C 0.98385 0.6587 0.67802 0.0
C303 C 0.02924 0.64097 0.66283 0.0
C304 C 0.9812 0.6929 0.7144 0.0
C305 C 0.02395 0.70986 0.73612 0.0
C306 C 0.06915 0.69345 0.7194 0.0
C307 C 0.07177 0.65959 0.68344 0.0
H308 H 0.14216 0.96719 0.84368 0.0
H309 H 0.17752 0.1171 0.85265 0.0
H310 H 0.20143 0.95726 0.78076 0.0
H311 H 0.23629 0.10742 0.78836 0.0
H312 H 0.37518 0.05315 0.7062 0.0
H313 H 0.31425 0.07264 0.76701 0.0
H314 H 0.21279 0.97594 0.70035 0.0
H315 H 0.27422 0.95514 0.64184 0.0
C316 C 0.1624 -0.00184 0.83206 0.0
C317 C 0.15489 0.04294 0.85322 0.0
C318 C 0.19623 -0.00741 0.79556 0.0
C319 C 0.22339 0.03169 0.77887 0.0
C320 C 0.21627 0.07648 0.80037 0.0
C321 C 0.18236 0.08205 0.83709 0.0
C322 C 0.33947 0.03691 0.70438 0.0
C323 C 0.3293 0.00242 0.66981 0.0
C324 C 0.30455 0.04795 0.73912 0.0
C325 C 0.25884 0.02501 0.73931 0.0
C326 C 0.24801 -0.00689 0.70241 0.0
C327 C 0.28298 0.98154 0.66852 0.0
H328 H 0.03869 0.27106 0.64275 0.0
H329 H 0.95413 0.36135 0.73597 0.0
H330 H 0.02293 0.20278 0.69408 0.0
H331 H 0.93882 0.2933 0.78731 0.0
H332 H 0.88484 0.15341 0.84772 0.0
H333 H 0.89602 0.2167 0.79001 0.0
H334 H 0.04725 0.17666 0.77456 0.0
H335 H 0.03603 0.1127 0.83216 0.0
C336 C 0.01629 0.27626 0.67388 0.0
C337 C -0.00227 0.32172 0.68533 0.0
C338 C 0.00764 0.2372 0.70348 0.0
C339 C 0.97986 0.24264 0.74491 0.0
C340 C 0.96003 0.28777 0.75547 0.0
C341 C 0.96895 0.32686 0.72611 0.0
C342 C 0.92048 0.15783 0.83191 0.0
C343 C 0.9596 0.12805 0.84479 0.0
C344 C 0.9269 0.19432 0.79894 0.0
C345 C 0.97255 0.20191 0.77784 0.0
C346 C 0.01149 0.17146 0.78985 0.0
C347 C 0.00512 0.13498 0.82306 0.0
H348 H 0.62692 0.05876 0.71561 0.0
H349 H 0.67356 0.94273 0.62565 0.0
H350 H 0.68576 0.03484 0.7752 0.0
H351 H 0.73304 0.91842 0.68586 0.0
H352 H 0.8737 0.93527 0.77588 0.0
H353 H 0.80991 0.95254 0.7185 0.0
H354 H 0.70656 0.972 0.83203 0.0
H355 H 0.77055 0.95515 0.88966 0.0
C356 C 0.6494 0.02763 0.70883 0.0
C357 C 0.64566 0.00268 0.66581 0.0
C358 C 0.68304 0.0138 0.74318 0.0
C359 C 0.71437 0.97488 0.73531 0.0
C360 C 0.70973 0.9489 0.69281 0.0
C361 C 0.67538 0.96244 0.65852 0.0
C362 C 0.8374 0.94325 0.78872 0.0
C363 C 0.82731 0.94369 0.83748 0.0
C364 C 0.80069 0.95269 0.75571 0.0
C365 C 0.75296 0.96312 0.77055 0.0
C366 C 0.74296 0.96419 0.81936 0.0
C367 C 0.77966 0.9545 0.85242 0.0
H368 H 0.23928 0.37993 0.92961 0.0
H369 H 0.24035 0.42566 0.07542 0.0
H370 H 0.16005 0.34468 0.94097 0.0
H371 H 0.15946 0.39223 0.08649 0.0
H372 H 0.09968 0.23582 0.10071 0.0
H373 H 0.14138 0.31142 0.09566 0.0
H374 H 0.07739 0.3363 0.95823 0.0
H375 H 0.03767 0.25878 0.96242 0.0
C376 C 0.2218 0.384 0.96371 0.0
C377 C 0.24686 0.40398 0.00206 0.0
C378 C 0.17579 0.36415 0.97024 0.0
C379 C 0.15365 0.3643 0.01518 0.0
C380 C 0.17606 0.39007 0.05183 0.0
C381 C 0.22245 0.40935 0.04545 0.0
C382 C 0.0933 0.25802 0.07001 0.0
C383 C 0.06736 0.24053 0.03102 0.0
C384 C 0.11697 0.30189 0.06719 0.0
C385 C 0.11446 0.32926 0.02554 0.0
C386 C 0.08178 0.31517 0.98995 0.0
C387 C 0.05889 0.27082 0.99238 0.0
H388 H 0.44552 0.73334 0.96678 0.0
H389 H 0.36339 0.68165 0.08616 0.0
H390 H 0.40789 0.81183 0.97563 0.0
H391 H 0.32392 0.75927 0.09388 0.0
H392 H 0.24544 0.89281 0.09684 0.0
H393 H 0.31903 0.84472 0.10506 0.0
H394 H 0.32617 0.8293 0.9532 0.0
H395 H 0.25385 0.87793 0.94498 0.0
C396 C 0.41997 0.7392 0.99544 0.0
C397 C 0.40621 0.70153 0.02509 0.0
C398 C 0.39851 0.78403 1.00055 0.0
C399 C 0.36203 0.79148 0.03463 0.0
C400 C 0.352 0.75493 0.06732 0.0
C401 C 0.3742 0.71026 0.06271 0.0
C402 C 0.26372 0.88054 0.06513 0.0
C403 C 0.243 0.88791 0.02025 0.0
C404 C 0.30579 0.8528 0.06993 0.0
C405 C 0.32782 0.83223 0.02995 0.0
C406 C 0.31033 0.84457 0.98487 0.0
C407 C 0.26841 0.87222 0.98008 0.0
H408 H 0.61439 0.26522 0.07587 0.0
H409 H 0.57 0.24682 0.93068 0.0
H410 H 0.65192 0.18708 0.07485 0.0
H411 H 0.60488 0.1669 0.93025 0.0
H412 H 0.75184 0.08383 0.92734 0.0
H413 H 0.68289 0.13717 0.92564 0.0
H414 H 0.65221 0.1046 0.07207 0.0
H415 H 0.7242 0.05354 0.07454 0.0
C416 C 0.61156 0.24387 0.04404 0.0
C417 C 0.59014 0.26252 0.00308 0.0
C418 C 0.63256 0.19855 0.04356 0.0
C419 C 0.63178 0.17033 0.00233 0.0
C420 C 0.60718 0.18786 0.96233 0.0
C421 C 0.58711 0.23371 0.96254 0.0
C422 C 0.7296 0.08683 0.95886 0.0
C423 C 0.74447 0.06606 1.00163 0.0
C424 C 0.68956 0.11745 0.95784 0.0
C425 C 0.66294 0.12688 0.99934 0.0
C426 C 0.67329 0.09987 0.04004 0.0
C427 C 0.71421 0.0702 0.0414 0.0
H428 H 0.92144 0.73339 0.07824 0.0
H429 H 0.88416 0.75387 0.93132 0.0
H430 H 0.88086 0.65617 0.07712 0.0
H431 H 0.84167 0.67911 0.93079 0.0
H432 H 0.73945 0.56917 0.93334 0.0
H433 H 0.82192 0.60001 0.93635 0.0
H434 H 0.79769 0.64418 0.08113 0.0
H435 H 0.71744 0.60951 0.07906 0.0
C436 C 0.90547 0.72102 0.04546 0.0
C437 C 0.90412 0.75059 0.00545 0.0
C438 C 0.88202 0.67682 0.04485 0.0
C439 C 0.85607 0.66204 0.00454 0.0
C440 C 0.86076 0.68889 0.96279 0.0
C441 C 0.88482 0.7325 0.96319 0.0
C442 C 0.75263 0.58355 0.96634 0.0
C443 C 0.72153 0.58801 0.00548 0.0
C444 C 0.79984 0.60173 0.96803 0.0
C445 C 0.81606 0.62651 0.00831 0.0
C446 C 0.78688 0.62566 0.04927 0.0
C447 C 0.74024 0.60619 0.04796 0.0
H448 H 0.69399 0.45715 0.92275 0.0
H449 H 0.60795 0.53681 0.82286 0.0
H450 H 0.76837 0.48369 0.88417 0.0
H451 H 0.68222 0.56209 0.78228 0.0
H452 H 0.82297 0.61136 0.72041 0.0
H453 H 0.75631 0.60435 0.77721 0.0
H454 H 0.80895 0.46414 0.8162 0.0
H455 H 0.87601 0.47226 0.76202 0.0
C456 C 0.69127 0.48054 0.89241 0.0
C457 C 0.64567 0.49491 0.87548 0.0
C458 C 0.73378 0.49551 0.86999 0.0
C459 C 0.73164 0.52447 0.82944 0.0
C460 C 0.68563 0.54043 0.81374 0.0
C461 C 0.64299 0.52588 0.83676 0.0
C462 C 0.82108 0.57977 0.74233 0.0
C463 C 0.85462 0.54216 0.73627 0.0
C464 C 0.78243 0.57544 0.77445 0.0
C465 C 0.77651 0.53336 0.801 0.0
C466 C 0.81221 0.49741 0.7971 0.0
C467 C 0.85085 0.50192 0.76555 0.0
H468 H 0.22208 0.54179 0.63677 0.0
H469 H 0.20902 0.38975 0.66034 0.0
H470 H 0.27577 0.54786 0.70476 0.0
H471 H 0.26361 0.39631 0.72834 0.0
H472 H 0.40085 0.44947 0.82556 0.0
H473 H 0.35533 0.42924 0.7538 0.0
H474 H 0.24396 0.5308 0.79349 0.0
H475 H 0.28851 0.54915 0.86613 0.0
C476 C 0.23183 0.50938 0.65538 0.0
C477 C 0.21035 0.46542 0.64372 0.0
C478 C 0.26223 0.51304 0.69456 0.0
C479 C 0.27244 0.47275 0.72221 0.0
C480 C 0.25563 0.42788 0.70767 0.0
C481 C 0.22459 0.42422 0.6687 0.0
C482 C 0.36521 0.46502 0.82026 0.0
C483 C 0.34695 0.49916 0.85205 0.0
C484 C 0.33981 0.45435 0.77882 0.0
C485 C 0.29661 0.47886 0.76824 0.0
C486 C 0.27755 0.51183 0.80088 0.0
C487 C 0.30264 0.52199 0.84245 0.0
H488 H 0.1795 0.4042 0.32478 0.0
H489 H 0.14194 0.5459 0.27647 0.0
H490 H 0.24721 0.40165 0.26842 0.0
H491 H 0.20908 0.54291 0.22002 0.0
H492 H 0.30184 0.50369 0.09399 0.0
H493 H 0.23213 0.49347 0.14623 0.0
H494 H 0.32818 0.45007 0.25896 0.0
H495 H 0.39846 0.46076 0.20679 0.0
C496 C 0.18537 0.43457 0.30186 0.0
C497 C 0.15534 0.47528 0.30503 0.0
C498 C 0.22422 0.43312 0.26984 0.0
C499 C 0.23313 0.47196 0.23982 0.0
C500 C 0.20264 0.51225 0.24244 0.0
C501 C 0.16438 0.51405 0.27492 0.0
C502 C 0.30822 0.49121 0.12965 0.0
C503 C 0.35579 0.48353 0.14641 0.0
C504 C 0.26825 0.48563 0.15958 0.0
C505 C 0.27489 0.47161 0.20669 0.0
C506 C 0.3221 0.4609 0.22271 0.0
C507 C 0.36228 0.46712 0.1929 0.0
H508 H 0.56469 0.44358 0.20973 0.0
H509 H 0.65349 0.54239 0.13066 0.0
H510 H 0.60615 0.46703 0.28224 0.0
H511 H 0.69583 0.56476 0.20273 0.0
H512 H 0.76734 0.60367 0.33703 0.0
H513 H 0.69881 0.59947 0.2815 0.0
H514 H 0.68674 0.44805 0.30815 0.0
H515 H 0.75404 0.45267 0.36329 0.0
C516 C 0.59265 0.47071 0.20789 0.0
C517 C 0.60646 0.4904 0.16428 0.0
C518 C 0.61644 0.48416 0.24946 0.0
C519 C 0.65483 0.51733 0.24833 0.0
C520 C 0.6662 0.53946 0.20514 0.0
C521 C 0.64218 0.52624 0.16361 0.0
C522 C 0.74853 0.57007 0.33231 0.0
C523 C 0.76594 0.52845 0.35415 0.0
C524 C 0.70974 0.56746 0.30014 0.0
C525 C 0.68763 0.52329 0.28981 0.0
C526 C 0.70239 0.48275 0.31532 0.0
C527 C 0.74117 0.4853 0.34692 0.0
H528 H 0.31659 0.78515 0.60879 0.0
H529 H 0.34511 0.76124 0.4604 0.0
H530 H 0.2494 0.72751 0.6053 0.0
H531 H 0.27819 0.70473 0.45714 0.0
H532 H 0.11648 0.67995 0.44945 0.0
H533 H 0.18472 0.73129 0.46964 0.0
H534 H 0.22838 0.63321 0.57906 0.0
H535 H 0.16015 0.58126 0.55827 0.0
C536 C 0.30962 0.76658 0.57591 0.0
C537 C 0.33563 0.77839 0.53465 0.0
C538 C 0.271 0.7339 0.57391 0.0
C539 C 0.25797 0.71292 0.53065 0.0
C540 C 0.28688 0.72137 0.49067 0.0
C541 C 0.3254 0.75353 0.49267 0.0
C542 C 0.13994 0.6696 0.47846 0.0
C543 C 0.13315 0.62594 0.50191 0.0
C544 C 0.17911 0.69896 0.48986 0.0
C545 C 0.2123 0.68556 0.52516 0.0
C546 C 0.20337 0.64415 0.55153 0.0
C547 C 0.16411 0.61449 0.53981 0.0
H548 H 0.04437 0.28343 0.4811 0.0
H549 H 0.15699 0.36477 0.55051 0.0
H550 H 0.0811 0.20962 0.51028 0.0
H551 H 0.19343 0.29166 0.57948 0.0
H552 H 0.26101 0.16004 0.62484 0.0
H553 H 0.19369 0.2173 0.62455 0.0
H554 H 0.15686 0.17401 0.48247 0.0
H555 H 0.22316 0.11669 0.48303 0.0
C556 C 0.07623 0.28567 0.50352 0.0
C557 C 0.09821 0.32992 0.51295 0.0
C558 C 0.09721 0.2434 0.52028 0.0
C559 C 0.14052 0.24466 0.54673 0.0
C560 C 0.1598 0.28925 0.55966 0.0
C561 C 0.13895 0.33138 0.54284 0.0
C562 C 0.23741 0.16155 0.59424 0.0
C563 C 0.24815 0.13477 0.55348 0.0
C564 C 0.19901 0.19455 0.59399 0.0
C565 C 0.17059 0.20096 0.55314 0.0
C566 C 0.17789 0.17007 0.51458 0.0
C567 C 0.21629 0.13737 0.51474 0.0
H568 H 0.82272 0.64194 0.45493 0.0
H569 H 0.9246 0.72375 0.53774 0.0
H570 H 0.77641 0.71465 0.43844 0.0
H571 H 0.87907 0.79652 0.52075 0.0
H572 H 0.6986 0.85253 0.41637 0.0
H573 H 0.76704 0.79758 0.40816 0.0
H574 H 0.79936 0.81457 0.55653 0.0
H575 H 0.73117 0.86954 0.5649 0.0
C576 C 0.8365 0.67579 0.46758 0.0
C577 C 0.87658 0.67733 0.49815 0.0
C578 C 0.80996 0.7175 0.45834 0.0
C579 C 0.82349 0.76111 0.47941 0.0
C580 C 0.86715 0.76328 0.50503 0.0
C581 C 0.89335 0.7217 0.51446 0.0
C582 C 0.72091 0.84541 0.44711 0.0
C583 C 0.70883 0.86487 0.49159 0.0
C584 C 0.76006 0.81378 0.44229 0.0
C585 C 0.78831 0.80139 0.48167 0.0
C586 C 0.77857 0.82371 0.52531 0.0
C587 C 0.73924 0.85509 0.53023 0.0
H588 H 0.66073 0.21977 0.44477 0.0
H589 H 0.6331 0.23138 0.59482 0.0
H590 H 0.72402 0.28015 0.45124 0.0
H591 H 0.69713 0.29009 0.60149 0.0
H592 H 0.80144 0.4091 0.6031 0.0
H593 H 0.72711 0.36631 0.58506 0.0
H594 H 0.80526 0.28063 0.48252 0.0
H595 H 0.87952 0.32606 0.49892 0.0
C596 C 0.66751 0.23577 0.47899 0.0
C597 C 0.64249 0.22007 0.5195 0.0
C598 C 0.70417 0.27001 0.48273 0.0
C599 C 0.71645 0.2892 0.52699 0.0
C600 C 0.68863 0.27629 0.56673 0.0
C601 C 0.65187 0.24235 0.56297 0.0
C602 C 0.80276 0.38099 0.57677 0.0
C603 C 0.84633 0.36986 0.55317 0.0
C604 C 0.76011 0.35654 0.56636 0.0
C605 C 0.76026 0.31952 0.53291 0.0
C606 C 0.80371 0.30928 0.5082 0.0
C607 C 0.84636 0.33472 0.51791 0.0
H608 H 0.52659 0.30494 0.88609 0.0
H609 H 0.42743 0.36888 0.78663 0.0
H610 H 0.54889 0.24405 0.82708 0.0
H611 H 0.4507 0.30963 0.72731 0.0
H612 H 0.51696 0.21086 0.62052 0.0
H613 H 0.52728 0.27525 0.6787 0.0
H614 H 0.48787 0.17824 0.79048 0.0
H615 H 0.47603 0.1147 0.73231 0.0
C616 C 0.51085 0.30682 0.85122 0.0
C617 C 0.47539 0.34149 0.84094 0.0
C618 C 0.52343 0.27202 0.81752 0.0
C619 C 0.5018 0.27235 0.77247 0.0
C620 C 0.4685 0.30885 0.76144 0.0
C621 C 0.45497 0.34261 0.79549 0.0
C622 C 0.51267 0.20289 0.65774 0.0
C623 C 0.49614 0.15782 0.67212 0.0
C624 C 0.51813 0.23977 0.69094 0.0
C625 C 0.50818 0.23174 0.73907 0.0
C626 C 0.49627 0.18536 0.75376 0.0
C627 C 0.48965 0.14894 0.72052 0.0
H628 H 0.46797 0.88098 0.70797 0.0
H629 H 0.52774 0.78512 0.60355 0.0
H630 H 0.46456 0.81514 0.76511 0.0
H631 H 0.52347 0.71926 0.65973 0.0
H632 H 0.59071 0.64857 0.79175 0.0
H633 H 0.57543 0.70736 0.73017 0.0
H634 H 0.43172 0.73353 0.78697 0.0
H635 H 0.44701 0.67445 0.84889 0.0
C636 C 0.47839 0.84537 0.6968 0.0
C637 C 0.49787 0.8377 0.65161 0.0
C638 C 0.47667 0.80776 0.72941 0.0
C639 C 0.49461 0.76223 0.71708 0.0
C640 C 0.51031 0.75411 0.67051 0.0
C641 C 0.51225 0.79158 0.63822 0.0
C642 C 0.55572 0.66655 0.79093 0.0
C643 C 0.52011 0.6568 0.82513 0.0
C644 C 0.54679 0.70002 0.75546 0.0
C645 C 0.5022 0.72486 0.75355 0.0
C646 C 0.4664 0.715 0.7876 0.0
C647 C 0.47513 0.68101 0.82285 0.0
H648 H 0.54396 0.6442 0.19181 0.0
H649 H 0.46728 0.74285 0.10125 0.0
H650 H 0.52878 0.69616 0.25914 0.0
H651 H 0.44873 0.79315 0.169 0.0
H652 H 0.50166 0.90386 0.27744 0.0
H653 H 0.49295 0.84693 0.21373 0.0
H654 H 0.47811 0.73267 0.31528 0.0
H655 H 0.48925 0.78992 0.37934 0.0
C656 C 0.52269 0.67638 0.18653 0.0
C657 C 0.50739 0.68975 0.1411 0.0
C658 C 0.51352 0.7061 0.2253 0.0
C659 C 0.48801 0.74944 0.21965 0.0
C660 C 0.46967 0.76084 0.17463 0.0
C661 C 0.47988 0.73173 0.13574 0.0
C662 C 0.49582 0.86672 0.2863 0.0
C663 C 0.49718 0.85136 0.33345 0.0
C664 C 0.49036 0.83388 0.2496 0.0
C665 C 0.48547 0.7848 0.25907 0.0
C666 C 0.48304 0.76995 0.30651 0.0
C667 C 0.48902 0.80285 0.3433 0.0
H668 H 0.52404 0.15739 0.35153 0.0
H669 H 0.37046 0.19083 0.36006 0.0
H670 H 0.5317 0.21076 0.28341 0.0
H671 H 0.37814 0.24342 0.29249 0.0
H672 H 0.41119 0.36771 0.20021 0.0
H673 H 0.41562 0.32024 0.27197 0.0
H674 H 0.50323 0.215 0.19915 0.0
H675 H 0.49942 0.26295 0.12714 0.0
C676 C 0.49198 0.17604 0.33896 0.0
C677 C 0.44662 0.16979 0.36128 0.0
C678 C 0.49638 0.2065 0.29992 0.0
C679 C 0.45561 0.23163 0.28284 0.0
C680 C 0.41044 0.22531 0.30529 0.0
C681 C 0.40598 0.19479 0.34389 0.0
C682 C 0.43198 0.33481 0.19954 0.0
C683 C 0.45428 0.31879 0.15768 0.0
C684 C 0.4343 0.30746 0.24065 0.0
C685 C 0.45908 0.26347 0.24101 0.0
C686 C 0.48387 0.24874 0.19999 0.0
C687 C 0.48142 0.2761 0.15868 0.0
loop_
_geom_bond_atom_site_label_1
_geom_bond_atom_site_label_2
_geom_bond_distance
_geom_bond_site_symmetry_2
_ccdc_geom_bond_type
Zn0 O2 1.933 1_556 S
Zn0 O20 1.985 . S
Zn0 O31 1.955 . S
Zn1 O2 1.911 . S
Zn1 O21 1.970 . S
Zn1 O37 1.945 . S
Zn1 O44 1.981 . S
O2 Zn0 1.933 1_554 S
O2 Zn1 1.911 . S
O2 H3 0.841 . S
H3 O2 0.841 . S
C4 O5 1.246 . S
C4 O33 1.276 1_655 S
O5 C4 1.246 . S
Zn6 O8 1.911 . S
Zn6 O23 1.970 . S
Zn6 O40 1.945 . S
Zn6 O47 1.981 . S
Zn7 O8 1.933 1_556 S
Zn7 O22 1.985 . S
Zn7 O29 1.955 . S
O8 Zn6 1.911 . S
O8 Zn7 1.933 1_554 S
O8 H9 0.841 . S
H9 O8 0.841 . S
Zn10 O11 1.933 1_556 S
Zn10 O24 1.985 . S
Zn10 O33 1.955 . S
O11 Zn10 1.933 1_554 S
O11 Zn12 1.911 . S
O11 H13 0.841 . S
Zn12 O11 1.911 . S
Zn12 O25 1.970 . S
Zn12 O41 1.981 . S
Zn12 O43 1.945 . S
H13 O11 0.841 . S
Zn14 O15 1.933 1_556 S
Zn14 O27 1.985 . S
Zn14 O35 1.955 . S
O15 Zn14 1.933 1_554 S
O15 H16 0.841 . S
O15 Zn17 1.911 . S
H16 O15 0.841 . S
Zn17 O15 1.911 . S
Zn17 O28 1.970 . S
Zn17 O38 1.981 . S
Zn17 O46 1.945 . S
C18 O19 1.246 . S
C18 O35 1.276 1_455 S
O19 C18 1.246 . S
O20 Zn0 1.985 . S
O20 C30 1.245 1_556 S
O21 Zn1 1.970 . S
O21 C30 1.263 . S
O22 Zn7 1.985 . S
O22 C34 1.245 1_556 S
O23 Zn6 1.970 . S
O23 C34 1.263 . S
O24 Zn10 1.985 . S
O24 C39 1.245 1_556 S
O25 Zn12 1.970 . S
O25 C39 1.263 . S
C26 O37 1.262 1_545 S
C26 O38 1.245 . S
O27 Zn14 1.985 . S
O27 C45 1.245 1_556 S
O28 Zn17 1.970 . S
O28 C45 1.263 . S
O29 Zn7 1.955 . S
O29 C48 1.282 . S
C30 O20 1.245 1_554 S
C30 O21 1.263 . S
O31 Zn0 1.955 . S
O31 C50 1.276 1_565 S
C32 O40 1.262 . S
C32 O41 1.245 1_545 S
O33 C4 1.276 1_455 S
O33 Zn10 1.955 . S
C34 O22 1.245 1_554 S
C34 O23 1.263 . S
O35 Zn14 1.955 . S
O35 C18 1.276 1_655 S
C36 O43 1.267 . S
C36 O44 1.242 1_455 S
O37 Zn1 1.945 . S
O37 C26 1.262 1_565 S
O38 Zn17 1.981 . S
O38 C26 1.245 . S
C39 O24 1.245 1_554 S
C39 O25 1.263 . S
O40 Zn6 1.945 . S
O40 C32 1.262 . S
O41 Zn12 1.981 . S
O41 C32 1.245 1_565 S
C42 O46 1.262 1_455 S
C42 O47 1.245 . S
O43 Zn12 1.945 . S
O43 C36 1.267 . S
O44 Zn1 1.981 . S
O44 C36 1.242 1_655 S
C45 O27 1.245 1_554 S
C45 O28 1.263 . S
O46 Zn17 1.945 . S
O46 C42 1.262 1_655 S
O47 Zn6 1.981 . S
O47 C42 1.245 . S
C48 O29 1.282 . S
C48 O49 1.242 1_545 S
O49 C48 1.242 1_565 S
C50 O31 1.276 1_545 S
C50 O51 1.246 . S
O51 C50 1.246 . S
Zn52 O54 1.933 . S
Zn52 O72 1.985 . S
Zn52 O83 1.955 . S
Zn53 O54 1.911 . S
Zn53 O73 1.970 . S
Zn53 O89 1.945 . S
Zn53 O96 1.981 . S
O54 Zn52 1.933 . S
O54 Zn53 1.911 . S
O54 H55 0.841 . S
H55 O54 0.841 . S
C56 O57 1.246 . S
C56 O85 1.276 . S
O57 C56 1.246 . S
Zn58 O60 1.911 . S
Zn58 O75 1.970 . S
Zn58 O92 1.945 . S
Zn58 O99 1.981 . S
Zn59 O60 1.933 . S
Zn59 O74 1.985 . S
Zn59 O81 1.955 . S
O60 Zn58 1.911 . S
O60 Zn59 1.933 . S
O60 H61 0.841 . S
H61 O60 0.841 . S
Zn62 O63 1.933 . S
Zn62 O76 1.985 . S
Zn62 O85 1.955 . S
O63 Zn62 1.933 . S
O63 Zn64 1.911 . S
O63 H65 0.841 . S
Zn64 O63 1.911 . S
Zn64 O77 1.970 . S
Zn64 O93 1.981 . S
Zn64 O95 1.945 . S
H65 O63 0.841 . S
Zn66 O67 1.933 . S
Zn66 O79 1.985 . S
Zn66 O87 1.955 . S
O67 Zn66 1.933 . S
O67 H68 0.841 . S
O67 Zn69 1.911 . S
H68 O67 0.841 . S
Zn69 O67 1.911 . S
Zn69 O80 1.970 . S
Zn69 O90 1.981 . S
Zn69 O98 1.945 . S
C70 O71 1.246 . S
C70 O87 1.276 . S
O71 C70 1.246 . S
O72 Zn52 1.985 . S
O72 C82 1.245 . S
O73 Zn53 1.970 . S
O73 C82 1.263 . S
O74 Zn59 1.985 . S
O74 C86 1.245 . S
O75 Zn58 1.970 . S
O75 C86 1.263 . S
O76 Zn62 1.985 . S
O76 C91 1.245 . S
O77 Zn64 1.970 . S
O77 C91 1.263 . S
C78 O89 1.262 . S
C78 O90 1.245 1_655 S
O79 Zn66 1.985 . S
O79 C97 1.245 . S
O80 Zn69 1.970 . S
O80 C97 1.263 . S
O81 Zn59 1.955 . S
O81 C100 1.276 1_455 S
C82 O72 1.245 . S
C82 O73 1.263 . S
O83 Zn52 1.955 . S
O83 C102 1.276 1_655 S
C84 O92 1.268 . S
C84 O93 1.242 1_455 S
O85 C56 1.276 . S
O85 Zn62 1.955 . S
C86 O74 1.245 . S
C86 O75 1.263 . S
O87 Zn66 1.955 . S
O87 C70 1.276 . S
C88 O95 1.262 . S
C88 O96 1.245 . S
O89 Zn53 1.945 . S
O89 C78 1.262 . S
O90 Zn69 1.981 . S
O90 C78 1.245 1_455 S
C91 O76 1.245 . S
C91 O77 1.263 . S
O92 Zn58 1.945 . S
O92 C84 1.268 . S
O93 Zn64 1.981 . S
O93 C84 1.242 1_655 S
C94 O98 1.262 . S
C94 O99 1.245 . S
O95 Zn64 1.945 . S
O95 C88 1.262 . S
O96 Zn53 1.981 . S
O96 C88 1.245 . S
C97 O79 1.245 . S
C97 O80 1.263 . S
O98 Zn69 1.945 . S
O98 C94 1.262 . S
O99 Zn58 1.981 . S
O99 C94 1.245 . S
C100 O81 1.276 1_655 S
C100 O101 1.246 . S
O101 C100 1.246 . S
C102 O83 1.276 1_455 S
C102 O103 1.246 . S
O103 C102 1.246 . S
Zn104 O106 1.933 . S
Zn104 O124 1.985 . S
Zn104 O135 1.955 . S
Zn105 O106 1.911 . S
Zn105 O125 1.970 . S
Zn105 O141 1.945 . S
Zn105 O148 1.981 . S
O106 Zn104 1.933 . S
O106 Zn105 1.911 . S
O106 H107 0.841 . S
H107 O106 0.841 . S
C108 O109 1.246 . S
C108 O137 1.276 . S
O109 C108 1.246 . S
Zn110 O112 1.911 . S
Zn110 O127 1.970 . S
Zn110 O144 1.945 . S
Zn110 O151 1.981 . S
Zn111 O112 1.933 . S
Zn111 O126 1.985 . S
Zn111 O133 1.955 . S
O112 Zn110 1.911 . S
O112 Zn111 1.933 . S
O112 H113 0.841 . S
H113 O112 0.841 . S
Zn114 O115 1.933 . S
Zn114 O128 1.985 . S
Zn114 O137 1.955 . S
O115 Zn114 1.933 . S
O115 Zn116 1.911 . S
O115 H117 0.841 . S
Zn116 O115 1.911 . S
Zn116 O129 1.970 . S
Zn116 O145 1.981 . S
Zn116 O147 1.945 . S
H117 O115 0.841 . S
Zn118 O119 1.933 . S
Zn118 O131 1.985 . S
Zn118 O139 1.955 . S
O119 Zn118 1.933 . S
O119 H120 0.841 . S
O119 Zn121 1.911 . S
H120 O119 0.841 . S
Zn121 O119 1.911 . S
Zn121 O132 1.970 . S
Zn121 O142 1.981 . S
Zn121 O150 1.945 . S
C122 O123 1.246 . S
C122 O139 1.276 . S
O123 C122 1.246 . S
O124 Zn104 1.985 . S
O124 C134 1.245 . S
O125 Zn105 1.970 . S
O125 C134 1.263 . S
O126 Zn111 1.985 . S
O126 C138 1.245 . S
O127 Zn110 1.970 . S
O127 C138 1.263 . S
O128 Zn114 1.985 . S
O128 C143 1.245 . S
O129 Zn116 1.970 . S
O129 C143 1.263 . S
C130 O141 1.262 1_545 S
C130 O142 1.245 . S
O131 Zn118 1.985 . S
O131 C149 1.245 . S
O132 Zn121 1.970 . S
O132 C149 1.263 . S
O133 Zn111 1.955 . S
O133 C152 1.282 . S
C134 O124 1.245 . S
C134 O125 1.263 . S
O135 Zn104 1.955 . S
O135 C154 1.276 1_565 S
C136 O144 1.262 . S
C136 O145 1.245 1_545 S
O137 C108 1.276 . S
O137 Zn114 1.955 . S
C138 O126 1.245 . S
C138 O127 1.263 . S
O139 Zn118 1.955 . S
O139 C122 1.276 . S
C140 O147 1.262 . S
C140 O148 1.245 . S
O141 Zn105 1.945 . S
O141 C130 1.262 1_565 S
O142 Zn121 1.981 . S
O142 C130 1.245 . S
C143 O128 1.245 . S
C143 O129 1.263 . S
O144 Zn110 1.945 . S
O144 C136 1.262 . S
O145 Zn116 1.981 . S
O145 C136 1.245 1_565 S
C146 O150 1.262 . S
C146 O151 1.245 . S
O147 Zn116 1.945 . S
O147 C140 1.262 . S
O148 Zn105 1.981 . S
O148 C140 1.245 . S
C149 O131 1.245 . S
C149 O132 1.263 . S
O150 Zn121 1.945 . S
O150 C146 1.262 . S
O151 Zn110 1.981 . S
O151 C146 1.245 . S
C152 O133 1.282 . S
C152 O153 1.242 1_545 S
O153 C152 1.242 1_565 S
C154 O135 1.276 1_545 S
C154 O155 1.246 . S
O155 C154 1.246 . S
Zn156 O158 1.933 . S
Zn156 O176 1.985 . S
Zn156 O187 1.955 . S
Zn157 O158 1.911 1_556 S
Zn157 O177 1.970 . S
Zn157 O193 1.945 . S
Zn157 O200 1.981 . S
O158 Zn156 1.933 . S
O158 Zn157 1.911 1_554 S
O158 H159 0.841 . S
H159 O158 0.841 . S
C160 O161 1.246 . S
C160 O189 1.276 . S
O161 C160 1.246 . S
Zn162 O164 1.911 1_556 S
Zn162 O179 1.970 . S
Zn162 O196 1.945 . S
Zn162 O203 1.981 . S
Zn163 O164 1.933 . S
Zn163 O178 1.985 . S
Zn163 O185 1.955 . S
O164 Zn162 1.911 1_554 S
O164 Zn163 1.933 . S
O164 H165 0.841 . S
H165 O164 0.841 . S
Zn166 O167 1.933 . S
Zn166 O180 1.985 . S
Zn166 O189 1.955 . S
O167 Zn166 1.933 . S
O167 Zn168 1.911 1_554 S
O167 H169 0.841 . S
Zn168 O167 1.911 1_556 S
Zn168 O181 1.970 . S
Zn168 O197 1.981 . S
Zn168 O199 1.945 . S
H169 O167 0.841 . S
Zn170 O171 1.933 . S
Zn170 O183 1.985 . S
Zn170 O191 1.955 . S
O171 Zn170 1.933 . S
O171 H172 0.841 . S
O171 Zn173 1.911 1_554 S
H172 O171 0.841 . S
Zn173 O171 1.911 1_556 S
Zn173 O184 1.970 . S
Zn173 O194 1.981 . S
Zn173 O202 1.945 . S
C174 O175 1.246 . S
C174 O191 1.276 . S
O175 C174 1.246 . S
O176 Zn156 1.985 . S
O176 C186 1.245 . S
O177 Zn157 1.970 . S
O177 C186 1.263 1_556 S
O178 Zn163 1.985 . S
O178 C190 1.245 . S
O179 Zn162 1.970 . S
O179 C190 1.263 1_556 S
O180 Zn166 1.985 . S
O180 C195 1.245 . S
O181 Zn168 1.970 . S
O181 C195 1.263 1_556 S
C182 O193 1.262 . S
C182 O194 1.245 . S
O183 Zn170 1.985 . S
O183 C201 1.245 . S
O184 Zn173 1.970 . S
O184 C201 1.263 1_556 S
O185 Zn163 1.955 . S
O185 C204 1.276 . S
C186 O176 1.245 . S
C186 O177 1.263 1_554 S
O187 Zn156 1.955 . S
O187 C206 1.276 . S
C188 O196 1.262 . S
C188 O197 1.245 . S
O189 C160 1.276 . S
O189 Zn166 1.955 . S
C190 O178 1.245 . S
C190 O179 1.263 1_554 S
O191 Zn170 1.955 . S
O191 C174 1.276 . S
C192 O199 1.262 . S
C192 O200 1.245 . S
O193 Zn157 1.945 . S
O193 C182 1.262 . S
O194 Zn173 1.981 . S
O194 C182 1.245 . S
C195 O180 1.245 . S
C195 O181 1.263 1_554 S
O196 Zn162 1.945 . S
O196 C188 1.262 . S
O197 Zn168 1.981 . S
O197 C188 1.245 . S
C198 O202 1.262 . S
C198 O203 1.245 . S
O199 Zn168 1.945 . S
O199 C192 1.262 . S
O200 Zn157 1.981 . S
O200 C192 1.245 . S
C201 O183 1.245 . S
C201 O184 1.263 1_554 S
O202 Zn173 1.945 . S
O202 C198 1.262 . S
O203 Zn162 1.981 . S
O203 C198 1.245 . S
C204 O185 1.276 . S
C204 O205 1.246 . S
O205 C204 1.246 . S
C206 O187 1.276 . S
C206 O207 1.246 . S
O207 C206 1.246 . S
H208 C216 0.950 . S
H209 C221 0.950 . S
H210 C218 0.950 . S
H211 C220 0.950 . S
H212 C222 0.950 . S
H213 C224 0.950 . S
H214 C226 0.950 . S
H215 C227 0.950 . S
C216 H208 0.950 . S
C216 C217 1.386 . S
C216 C218 1.391 . S
C217 C216 1.386 . S
C217 C221 1.393 1_455 S
C218 H210 0.950 . S
C218 C216 1.391 . S
C218 C219 1.400 . S
C219 C218 1.400 . S
C219 C220 1.398 1_455 S
C219 C225 1.491 . S
C220 H211 0.950 . S
C220 C219 1.398 1_655 S
C220 C221 1.391 . S
C221 H209 0.950 . S
C221 C217 1.393 1_655 S
C221 C220 1.391 . S
C222 H212 0.950 . S
C222 C223 1.386 1_655 S
C222 C224 1.391 . S
C223 C222 1.386 1_455 S
C223 C227 1.393 . S
C224 H213 0.950 . S
C224 C222 1.391 . S
C224 C225 1.400 1_655 S
C225 C219 1.491 . S
C225 C224 1.400 1_455 S
C225 C226 1.398 . S
C226 H214 0.950 . S
C226 C225 1.398 . S
C226 C227 1.391 . S
C227 H215 0.950 . S
C227 C223 1.393 . S
C227 C226 1.391 . S
H228 C236 0.950 . S
H229 C241 0.950 . S
H230 C238 0.950 . S
H231 C240 0.950 . S
H232 C242 0.950 . S
H233 C244 0.950 . S
H234 C246 0.950 . S
H235 C247 0.950 . S
C236 H228 0.950 . S
C236 C237 1.386 1_565 S
C236 C238 1.391 . S
C237 C236 1.386 1_545 S
C237 C241 1.393 . S
C238 H230 0.950 . S
C238 C236 1.391 . S
C238 C239 1.400 1_565 S
C239 C238 1.400 1_545 S
C239 C240 1.398 . S
C239 C245 1.491 . S
C240 H231 0.950 . S
C240 C239 1.398 . S
C240 C241 1.391 . S
C241 H229 0.950 . S
C241 C237 1.393 . S
C241 C240 1.391 . S
C242 H232 0.950 . S
C242 C243 1.386 1_545 S
C242 C244 1.391 . S
C243 C242 1.386 1_565 S
C243 C247 1.393 . S
C244 H233 0.950 . S
C244 C242 1.391 . S
C244 C245 1.405 . S
C245 C239 1.491 . S
C245 C244 1.405 . S
C245 C246 1.393 1_545 S
C246 H234 0.950 . S
C246 C245 1.393 1_565 S
C246 C247 1.391 . S
C247 H235 0.950 . S
C247 C243 1.393 . S
C247 C246 1.391 . S
H248 C256 0.950 . S
H249 C261 0.950 . S
H250 C258 0.950 . S
H251 C260 0.950 . S
H252 C262 0.950 . S
H253 C264 0.950 . S
H254 C266 0.950 . S
H255 C267 0.950 . S
C256 H248 0.950 . S
C256 C257 1.386 1_455 S
C256 C258 1.391 . S
C257 C256 1.386 1_655 S
C257 C261 1.393 . S
C258 H250 0.950 . S
C258 C256 1.391 . S
C258 C259 1.400 1_455 S
C259 C258 1.400 1_655 S
C259 C260 1.398 . S
C259 C265 1.491 1_655 S
C260 H251 0.950 . S
C260 C259 1.398 . S
C260 C261 1.391 . S
C261 H249 0.950 . S
C261 C257 1.393 . S
C261 C260 1.391 . S
C262 H252 0.950 . S
C262 C263 1.386 1_655 S
C262 C264 1.391 . S
C263 C262 1.386 1_455 S
C263 C267 1.393 . S
C264 H253 0.950 . S
C264 C262 1.391 . S
C264 C265 1.400 1_655 S
C265 C259 1.491 1_455 S
C265 C264 1.400 1_455 S
C265 C266 1.398 . S
C266 H254 0.950 . S
C266 C265 1.398 . S
C266 C267 1.391 . S
C267 H255 0.950 . S
C267 C263 1.393 . S
C267 C266 1.391 . S
H268 C276 0.950 . S
H269 C281 0.945 1_565 S
H270 C278 0.950 . S
H271 C280 0.950 . S
H272 C282 0.950 . S
H273 C284 0.950 . S
H274 C286 0.950 . S
H275 C287 0.950 . S
C276 H268 0.950 . S
C276 C277 1.386 . S
C276 C278 1.391 . S
C277 C276 1.386 . S
C277 C281 1.400 . S
C278 H270 0.950 . S
C278 C276 1.391 . S
C278 C279 1.400 . S
C279 C278 1.400 . S
C279 C280 1.398 1_545 S
C279 C285 1.491 . S
C280 H271 0.950 . S
C280 C279 1.398 1_565 S
C280 C281 1.389 1_565 S
C281 H269 0.945 1_545 S
C281 C277 1.400 . S
C281 C280 1.389 1_545 S
C282 H272 0.950 . S
C282 C283 1.386 . S
C282 C284 1.391 . S
C283 C282 1.386 . S
C283 C287 1.393 1_565 S
C284 H273 0.950 . S
C284 C282 1.391 . S
C284 C285 1.400 1_565 S
C285 C279 1.491 . S
C285 C284 1.400 1_545 S
C285 C286 1.398 . S
C286 H274 0.950 . S
C286 C285 1.398 . S
C286 C287 1.391 . S
C287 H275 0.950 . S
C287 C283 1.393 1_545 S
C287 C286 1.391 . S
H288 C296 0.950 . S
H289 C301 0.950 . S
H290 C298 0.950 . S
H291 C300 0.950 . S
H292 C302 0.950 . S
H293 C304 0.950 . S
H294 C306 0.950 . S
H295 C307 0.950 . S
C296 H288 0.950 . S
C296 C297 1.386 1_455 S
C296 C298 1.391 . S
C297 C296 1.386 1_655 S
C297 C301 1.393 . S
C298 H290 0.950 . S
C298 C296 1.391 . S
C298 C299 1.400 1_455 S
C299 C298 1.400 1_655 S
C299 C300 1.398 . S
C299 C305 1.491 . S
C300 H291 0.950 . S
C300 C299 1.398 . S
C300 C301 1.391 . S
C301 H289 0.950 . S
C301 C297 1.393 . S
C301 C300 1.391 . S
C302 H292 0.950 . S
C302 C303 1.386 . S
C302 C304 1.391 . S
C303 C302 1.386 . S
C303 C307 1.393 1_655 S
C304 H293 0.950 . S
C304 C302 1.391 . S
C304 C305 1.400 . S
C305 C299 1.491 . S
C305 C304 1.400 . S
C305 C306 1.398 1_655 S
C306 H294 0.950 . S
C306 C305 1.398 1_455 S
C306 C307 1.391 . S
C307 H295 0.950 . S
C307 C303 1.393 1_455 S
C307 C306 1.391 . S
H308 C316 0.950 . S
H309 C321 0.950 . S
H310 C318 0.950 . S
H311 C320 0.950 . S
H312 C322 0.950 . S
H313 C324 0.950 . S
H314 C326 0.950 . S
H315 C327 0.950 . S
C316 H308 0.950 . S
C316 C317 1.386 . S
C316 C318 1.391 . S
C317 C316 1.386 . S
C317 C321 1.393 1_565 S
C318 H310 0.950 . S
C318 C316 1.391 . S
C318 C319 1.393 1_565 S
C319 C318 1.393 1_545 S
C319 C320 1.405 . S
C319 C325 1.491 . S
C320 H311 0.950 . S
C320 C319 1.405 . S
C320 C321 1.391 . S
C321 H309 0.950 . S
C321 C317 1.393 1_545 S
C321 C320 1.391 . S
C322 H312 0.950 . S
C322 C323 1.386 . S
C322 C324 1.391 . S
C323 C322 1.386 . S
C323 C327 1.393 1_545 S
C324 H313 0.950 . S
C324 C322 1.391 . S
C324 C325 1.400 . S
C325 C319 1.491 . S
C325 C324 1.400 . S
C325 C326 1.398 1_545 S
C326 H314 0.950 . S
C326 C325 1.398 1_565 S
C326 C327 1.391 . S
C327 H315 0.950 . S
C327 C323 1.393 1_565 S
C327 C326 1.391 . S
H328 C336 0.950 . S
H329 C341 0.950 . S
H330 C338 0.950 . S
H331 C340 0.950 . S
H332 C342 0.950 . S
H333 C344 0.950 . S
H334 C346 0.950 . S
H335 C347 0.950 . S
C336 H328 0.950 . S
C336 C337 1.386 1_455 S
C336 C338 1.391 . S
C337 C336 1.386 1_655 S
C337 C341 1.393 . S
C338 H330 0.950 . S
C338 C336 1.391 . S
C338 C339 1.400 1_455 S
C339 C338 1.400 1_655 S
C339 C340 1.398 . S
C339 C345 1.491 1_655 S
C340 H331 0.950 . S
C340 C339 1.398 . S
C340 C341 1.391 . S
C341 H329 0.950 . S
C341 C337 1.393 . S
C341 C340 1.391 . S
C342 H332 0.950 . S
C342 C343 1.386 1_655 S
C342 C344 1.391 . S
C343 C342 1.386 1_455 S
C343 C347 1.393 . S
C344 H333 0.950 . S
C344 C342 1.391 . S
C344 C345 1.400 1_655 S
C345 C339 1.491 1_455 S
C345 C344 1.400 1_455 S
C345 C346 1.398 . S
C346 H334 0.950 . S
C346 C345 1.398 . S
C346 C347 1.391 . S
C347 H335 0.950 . S
C347 C343 1.393 . S
C347 C346 1.391 . S
H348 C356 0.950 . S
H349 C361 0.950 . S
H350 C358 0.950 . S
H351 C360 0.950 . S
H352 C362 0.950 . S
H353 C364 0.950 . S
H354 C366 0.950 . S
H355 C367 0.950 . S
C356 H348 0.950 . S
C356 C357 1.386 . S
C356 C358 1.391 . S
C357 C356 1.386 . S
C357 C361 1.393 . S
C358 H350 0.950 . S
C358 C356 1.391 . S
C358 C359 1.400 1_565 S
C359 C358 1.400 1_545 S
C359 C360 1.398 . S
C359 C365 1.491 . S
C360 H351 0.950 . S
C360 C359 1.398 . S
C360 C361 1.391 1_545 S
C361 H349 0.950 . S
C361 C357 1.393 . S
C361 C360 1.391 1_565 S
C362 H352 0.950 . S
C362 C363 1.386 . S
C362 C364 1.391 . S
C363 C362 1.386 . S
C363 C367 1.393 . S
C364 H353 0.950 . S
C364 C362 1.391 . S
C364 C365 1.400 . S
C365 C359 1.491 . S
C365 C364 1.400 . S
C365 C366 1.398 . S
C366 H354 0.950 . S
C366 C365 1.398 . S
C366 C367 1.391 . S
C367 H355 0.950 . S
C367 C363 1.393 . S
C367 C366 1.391 . S
H368 C376 0.950 . S
H369 C381 0.950 . S
H370 C378 0.950 . S
H371 C380 0.950 . S
H372 C382 0.950 . S
H373 C384 0.950 . S
H374 C386 0.950 . S
H375 C387 0.950 . S
C376 H368 0.950 . S
C376 C377 1.386 1_556 S
C376 C378 1.391 . S
C377 C376 1.386 1_554 S
C377 C381 1.393 . S
C378 H370 0.950 . S
C378 C376 1.391 . S
C378 C379 1.400 1_556 S
C379 C378 1.400 1_554 S
C379 C380 1.398 . S
C379 C385 1.491 . S
C380 H371 0.950 . S
C380 C379 1.398 . S
C380 C381 1.391 . S
C381 H369 0.950 . S
C381 C377 1.393 . S
C381 C380 1.391 . S
C382 H372 0.950 . S
C382 C383 1.386 . S
C382 C384 1.391 . S
C383 C382 1.386 . S
C383 C387 1.393 1_554 S
C384 H373 0.950 . S
C384 C382 1.391 . S
C384 C385 1.400 . S
C385 C379 1.491 . S
C385 C384 1.400 . S
C385 C386 1.398 1_554 S
C386 H374 0.950 . S
C386 C385 1.398 1_556 S
C386 C387 1.391 . S
C387 H375 0.950 . S
C387 C383 1.393 1_556 S
C387 C386 1.391 . S
H388 C396 0.950 . S
H389 C401 0.950 . S
H390 C398 0.950 . S
H391 C400 0.950 . S
H392 C402 0.950 . S
H393 C404 0.950 . S
H394 C406 0.950 . S
H395 C407 0.950 . S
C396 H388 0.950 . S
C396 C397 1.386 1_556 S
C396 C398 1.391 . S
C397 C396 1.386 1_554 S
C397 C401 1.393 . S
C398 H390 0.950 . S
C398 C396 1.391 . S
C398 C399 1.400 1_556 S
C399 C398 1.400 1_554 S
C399 C400 1.398 . S
C399 C405 1.491 . S
C400 H391 0.950 . S
C400 C399 1.398 . S
C400 C401 1.391 . S
C401 H389 0.950 . S
C401 C397 1.393 . S
C401 C400 1.391 . S
C402 H392 0.950 . S
C402 C403 1.386 . S
C402 C404 1.391 . S
C403 C402 1.386 . S
C403 C407 1.393 1_554 S
C404 H393 0.950 . S
C404 C402 1.391 . S
C404 C405 1.400 . S
C405 C399 1.491 . S
C405 C404 1.400 . S
C405 C406 1.398 1_554 S
C406 H394 0.950 . S
C406 C405 1.398 1_556 S
C406 C407 1.391 . S
C407 H395 0.950 . S
C407 C403 1.393 1_556 S
C407 C406 1.391 . S
H408 C416 0.950 . S
H409 C421 0.950 . S
H410 C418 0.950 . S
H411 C420 0.950 . S
H412 C422 0.950 . S
H413 C424 0.950 . S
H414 C426 0.950 . S
H415 C427 0.950 . S
C416 H408 0.950 . S
C416 C417 1.386 . S
C416 C418 1.391 . S
C417 C416 1.386 . S
C417 C421 1.393 1_554 S
C418 H410 0.950 . S
C418 C416 1.391 . S
C418 C419 1.400 . S
C419 C418 1.400 . S
C419 C420 1.398 1_554 S
C419 C425 1.491 . S
C420 H411 0.950 . S
C420 C419 1.398 1_556 S
C420 C421 1.391 . S
C421 H409 0.950 . S
C421 C417 1.393 1_556 S
C421 C420 1.391 . S
C422 H412 0.950 . S
C422 C423 1.386 1_556 S
C422 C424 1.391 . S
C423 C422 1.386 1_554 S
C423 C427 1.393 . S
C424 H413 0.950 . S
C424 C422 1.391 . S
C424 C425 1.400 1_556 S
C425 C419 1.491 . S
C425 C424 1.400 1_554 S
C425 C426 1.398 . S
C426 H414 0.950 . S
C426 C425 1.398 . S
C426 C427 1.391 . S
C427 H415 0.950 . S
C427 C423 1.393 . S
C427 C426 1.391 . S
H428 C436 0.950 . S
H429 C441 0.950 . S
H430 C438 0.950 . S
H431 C440 0.950 . S
H432 C442 0.950 . S
H433 C444 0.950 . S
H434 C446 0.950 . S
H435 C447 0.950 . S
C436 H428 0.950 . S
C436 C437 1.386 . S
C436 C438 1.391 . S
C437 C436 1.386 . S
C437 C441 1.393 1_554 S
C438 H430 0.950 . S
C438 C436 1.391 . S
C438 C439 1.400 . S
C439 C438 1.400 . S
C439 C440 1.398 1_554 S
C439 C445 1.491 . S
C440 H431 0.950 . S
C440 C439 1.398 1_556 S
C440 C441 1.391 . S
C441 H429 0.950 . S
C441 C437 1.393 1_556 S
C441 C440 1.391 . S
C442 H432 0.950 . S
C442 C443 1.386 1_556 S
C442 C444 1.391 . S
C443 C442 1.386 1_554 S
C443 C447 1.393 . S
C444 H433 0.950 . S
C444 C442 1.391 . S
C444 C445 1.400 1_556 S
C445 C439 1.491 . S
C445 C444 1.400 1_554 S
C445 C446 1.398 . S
C446 H434 0.950 . S
C446 C445 1.398 . S
C446 C447 1.391 . S
C447 H435 0.950 . S
C447 C443 1.393 . S
C447 C446 1.391 . S
H448 C456 0.950 . S
H449 C461 0.950 . S
H450 C458 0.950 . S
H451 C460 0.950 . S
H452 C462 0.950 . S
H453 C464 0.950 . S
H454 C466 0.950 . S
H455 C467 0.950 . S
C456 H448 0.950 . S
C456 C457 1.386 . S
C456 C458 1.391 . S
C457 C456 1.386 . S
C457 C461 1.393 . S
C458 H450 0.950 . S
C458 C456 1.391 . S
C458 C459 1.400 . S
C459 C458 1.400 . S
C459 C460 1.398 . S
C459 C465 1.491 . S
C460 H451 0.950 . S
C460 C459 1.398 . S
C460 C461 1.391 . S
C461 H449 0.950 . S
C461 C457 1.393 . S
C461 C460 1.391 . S
C462 H452 0.950 . S
C462 C463 1.386 . S
C462 C464 1.391 . S
C463 C462 1.386 . S
C463 C467 1.393 . S
C464 H453 0.950 . S
C464 C462 1.391 . S
C464 C465 1.400 . S
C465 C459 1.491 . S
C465 C464 1.400 . S
C465 C466 1.398 . S
C466 H454 0.950 . S
C466 C465 1.398 . S
C466 C467 1.391 . S
C467 H455 0.950 . S
C467 C463 1.393 . S
C467 C466 1.391 . S
H468 C476 0.950 . S
H469 C481 0.950 . S
H470 C478 0.950 . S
H471 C480 0.950 . S
H472 C482 0.950 . S
H473 C484 0.950 . S
H474 C486 0.950 . S
H475 C487 0.950 . S
C476 H468 0.950 . S
C476 C477 1.386 . S
C476 C478 1.391 . S
C477 C476 1.386 . S
C477 C481 1.393 . S
C478 H470 0.950 . S
C478 C476 1.391 . S
C478 C479 1.400 . S
C479 C478 1.400 . S
C479 C480 1.398 . S
C479 C485 1.491 . S
C480 H471 0.950 . S
C480 C479 1.398 . S
C480 C481 1.391 . S
C481 H469 0.950 . S
C481 C477 1.393 . S
C481 C480 1.391 . S
C482 H472 0.950 . S
C482 C483 1.386 . S
C482 C484 1.391 . S
C483 C482 1.386 . S
C483 C487 1.393 . S
C484 H473 0.950 . S
C484 C482 1.391 . S
C484 C485 1.400 . S
C485 C479 1.491 . S
C485 C484 1.400 . S
C485 C486 1.398 . S
C486 H474 0.950 . S
C486 C485 1.398 . S
C486 C487 1.391 . S
C487 H475 0.950 . S
C487 C483 1.393 . S
C487 C486 1.391 . S
H488 C496 0.950 . S
H489 C501 0.950 . S
H490 C498 0.950 . S
H491 C500 0.950 . S
H492 C502 0.950 . S
H493 C504 0.950 . S
H494 C506 0.950 . S
H495 C507 0.950 . S
C496 H488 0.950 . S
C496 C497 1.386 . S
C496 C498 1.391 . S
C497 C496 1.386 . S
C497 C501 1.393 . S
C498 H490 0.950 . S
C498 C496 1.391 . S
C498 C499 1.400 . S
C499 C498 1.400 . S
C499 C500 1.398 . S
C499 C505 1.491 . S
C500 H491 0.950 . S
C500 C499 1.398 . S
C500 C501 1.391 . S
C501 H489 0.950 . S
C501 C497 1.393 . S
C501 C500 1.391 . S
C502 H492 0.950 . S
C502 C503 1.386 . S
C502 C504 1.391 . S
C503 C502 1.386 . S
C503 C507 1.393 . S
C504 H493 0.950 . S
C504 C502 1.391 . S
C504 C505 1.400 . S
C505 C499 1.491 . S
C505 C504 1.400 . S
C505 C506 1.398 . S
C506 H494 0.950 . S
C506 C505 1.398 . S
C506 C507 1.391 . S
C507 H495 0.950 . S
C507 C503 1.393 . S
C507 C506 1.391 . S
H508 C516 0.950 . S
H509 C521 0.950 . S
H510 C518 0.950 . S
H511 C520 0.950 . S
H512 C522 0.950 . S
H513 C524 0.950 . S
H514 C526 0.950 . S
H515 C527 0.950 . S
C516 H508 0.950 . S
C516 C517 1.386 . S
C516 C518 1.391 . S
C517 C516 1.386 . S
C517 C521 1.393 . S
C518 H510 0.950 . S
C518 C516 1.391 . S
C518 C519 1.400 . S
C519 C518 1.400 . S
C519 C520 1.398 . S
C519 C525 1.491 . S
C520 H511 0.950 . S
C520 C519 1.398 . S
C520 C521 1.391 . S
C521 H509 0.950 . S
C521 C517 1.393 . S
C521 C520 1.391 . S
C522 H512 0.950 . S
C522 C523 1.386 . S
C522 C524 1.391 . S
C523 C522 1.386 . S
C523 C527 1.393 . S
C524 H513 0.950 . S
C524 C522 1.391 . S
C524 C525 1.400 . S
C525 C519 1.491 . S
C525 C524 1.400 . S
C525 C526 1.398 . S
C526 H514 0.950 . S
C526 C525 1.398 . S
C526 C527 1.391 . S
C527 H515 0.950 . S
C527 C523 1.393 . S
C527 C526 1.391 . S
H528 C536 0.950 . S
H529 C541 0.950 . S
H530 C538 0.950 . S
H531 C540 0.950 . S
H532 C542 0.950 . S
H533 C544 0.950 . S
H534 C546 0.950 . S
H535 C547 0.950 . S
C536 H528 0.950 . S
C536 C537 1.386 . S
C536 C538 1.391 . S
C537 C536 1.386 . S
C537 C541 1.393 . S
C538 H530 0.950 . S
C538 C536 1.391 . S
C538 C539 1.400 . S
C539 C538 1.400 . S
C539 C540 1.398 . S
C539 C545 1.491 . S
C540 H531 0.950 . S
C540 C539 1.398 . S
C540 C541 1.391 . S
C541 H529 0.950 . S
C541 C537 1.393 . S
C541 C540 1.391 . S
C542 H532 0.950 . S
C542 C543 1.386 . S
C542 C544 1.391 . S
C543 C542 1.386 . S
C543 C547 1.393 . S
C544 H533 0.950 . S
C544 C542 1.391 . S
C544 C545 1.400 . S
C545 C539 1.491 . S
C545 C544 1.400 . S
C545 C546 1.398 . S
C546 H534 0.950 . S
C546 C545 1.398 . S
C546 C547 1.391 . S
C547 H535 0.950 . S
C547 C543 1.393 . S
C547 C546 1.391 . S
H548 C556 0.950 . S
H549 C561 0.950 . S
H550 C558 0.950 . S
H551 C560 0.950 . S
H552 C562 0.950 . S
H553 C564 0.950 . S
H554 C566 0.950 . S
H555 C567 0.950 . S
C556 H548 0.950 . S
C556 C557 1.386 . S
C556 C558 1.391 . S
C557 C556 1.386 . S
C557 C561 1.393 . S
C558 H550 0.950 . S
C558 C556 1.391 . S
C558 C559 1.400 . S
C559 C558 1.400 . S
C559 C560 1.398 . S
C559 C565 1.491 . S
C560 H551 0.950 . S
C560 C559 1.398 . S
C560 C561 1.391 . S
C561 H549 0.950 . S
C561 C557 1.393 . S
C561 C560 1.391 . S
C562 H552 0.950 . S
C562 C563 1.386 . S
C562 C564 1.391 . S
C563 C562 1.386 . S
C563 C567 1.393 . S
C564 H553 0.950 . S
C564 C562 1.391 . S
C564 C565 1.400 . S
C565 C559 1.491 . S
C565 C564 1.400 . S
C565 C566 1.398 . S
C566 H554 0.950 . S
C566 C565 1.398 . S
C566 C567 1.391 . S
C567 H555 0.950 . S
C567 C563 1.393 . S
C567 C566 1.391 . S
H568 C576 0.950 . S
H569 C581 0.950 . S
H570 C578 0.950 . S
H571 C580 0.950 . S
H572 C582 0.950 . S
H573 C584 0.950 . S
H574 C586 0.950 . S
H575 C587 0.950 . S
C576 H568 0.950 . S
C576 C577 1.386 . S
C576 C578 1.391 . S
C577 C576 1.386 . S
C577 C581 1.393 . S
C578 H570 0.950 . S
C578 C576 1.391 . S
C578 C579 1.400 . S
C579 C578 1.400 . S
C579 C580 1.398 . S
C579 C585 1.491 . S
C580 H571 0.950 . S
C580 C579 1.398 . S
C580 C581 1.391 . S
C581 H569 0.950 . S
C581 C577 1.393 . S
C581 C580 1.391 . S
C582 H572 0.950 . S
C582 C583 1.386 . S
C582 C584 1.391 . S
C583 C582 1.386 . S
C583 C587 1.393 . S
C584 H573 0.950 . S
C584 C582 1.391 . S
C584 C585 1.400 . S
C585 C579 1.491 . S
C585 C584 1.400 . S
C585 C586 1.398 . S
C586 H574 0.950 . S
C586 C585 1.398 . S
C586 C587 1.391 . S
C587 H575 0.950 . S
C587 C583 1.393 . S
C587 C586 1.391 . S
H588 C596 0.950 . S
H589 C601 0.950 . S
H590 C598 0.950 . S
H591 C600 0.950 . S
H592 C602 0.950 . S
H593 C604 0.950 . S
H594 C606 0.950 . S
H595 C607 0.950 . S
C596 H588 0.950 . S
C596 C597 1.386 . S
C596 C598 1.391 . S
C597 C596 1.386 . S
C597 C601 1.393 . S
C598 H590 0.950 . S
C598 C596 1.391 . S
C598 C599 1.400 . S
C599 C598 1.400 . S
C599 C600 1.398 . S
C599 C605 1.491 . S
C600 H591 0.950 . S
C600 C599 1.398 . S
C600 C601 1.391 . S
C601 H589 0.950 . S
C601 C597 1.393 . S
C601 C600 1.391 . S
C602 H592 0.950 . S
C602 C603 1.386 . S
C602 C604 1.391 . S
C603 C602 1.386 . S
C603 C607 1.393 . S
C604 H593 0.950 . S
C604 C602 1.391 . S
C604 C605 1.400 . S
C605 C599 1.491 . S
C605 C604 1.400 . S
C605 C606 1.398 . S
C606 H594 0.950 . S
C606 C605 1.398 . S
C606 C607 1.391 . S
C607 H595 0.950 . S
C607 C603 1.393 . S
C607 C606 1.391 . S
H608 C616 0.950 . S
H609 C621 0.950 . S
H610 C618 0.950 . S
H611 C620 0.950 . S
H612 C622 0.950 . S
H613 C624 0.950 . S
H614 C626 0.950 . S
H615 C627 0.950 . S
C616 H608 0.950 . S
C616 C617 1.386 . S
C616 C618 1.391 . S
C617 C616 1.386 . S
C617 C621 1.393 . S
C618 H610 0.950 . S
C618 C616 1.391 . S
C618 C619 1.400 . S
C619 C618 1.400 . S
C619 C620 1.398 . S
C619 C625 1.491 . S
C620 H611 0.950 . S
C620 C619 1.398 . S
C620 C621 1.391 . S
C621 H609 0.950 . S
C621 C617 1.393 . S
C621 C620 1.391 . S
C622 H612 0.950 . S
C622 C623 1.386 . S
C622 C624 1.391 . S
C623 C622 1.386 . S
C623 C627 1.393 . S
C624 H613 0.950 . S
C624 C622 1.391 . S
C624 C625 1.400 . S
C625 C619 1.491 . S
C625 C624 1.400 . S
C625 C626 1.398 . S
C626 H614 0.950 . S
C626 C625 1.398 . S
C626 C627 1.391 . S
C627 H615 0.950 . S
C627 C623 1.393 . S
C627 C626 1.391 . S
H628 C636 0.950 . S
H629 C641 0.950 . S
H630 C638 0.950 . S
H631 C640 0.950 . S
H632 C642 0.950 . S
H633 C644 0.950 . S
H634 C646 0.950 . S
H635 C647 0.950 . S
C636 H628 0.950 . S
C636 C637 1.386 . S
C636 C638 1.391 . S
C637 C636 1.386 . S
C637 C641 1.393 . S
C638 H630 0.950 . S
C638 C636 1.391 . S
C638 C639 1.400 . S
C639 C638 1.400 . S
C639 C640 1.398 . S
C639 C645 1.491 . S
C640 H631 0.950 . S
C640 C639 1.398 . S
C640 C641 1.391 . S
C641 H629 0.950 . S
C641 C637 1.393 . S
C641 C640 1.391 . S
C642 H632 0.950 . S
C642 C643 1.386 . S
C642 C644 1.391 . S
C643 C642 1.386 . S
C643 C647 1.393 . S
C644 H633 0.950 . S
C644 C642 1.391 . S
C644 C645 1.400 . S
C645 C639 1.491 . S
C645 C644 1.400 . S
C645 C646 1.398 . S
C646 H634 0.950 . S
C646 C645 1.398 . S
C646 C647 1.391 . S
C647 H635 0.950 . S
C647 C643 1.393 . S
C647 C646 1.391 . S
H648 C656 0.950 . S
H649 C661 0.950 . S
H650 C658 0.950 . S
H651 C660 0.950 . S
H652 C662 0.950 . S
H653 C664 0.950 . S
H654 C666 0.950 . S
H655 C667 0.950 . S
C656 H648 0.950 . S
C656 C657 1.386 . S
C656 C658 1.391 . S
C657 C656 1.386 . S
C657 C661 1.393 . S
C658 H650 0.950 . S
C658 C656 1.391 . S
C658 C659 1.400 . S
C659 C658 1.400 . S
C659 C660 1.398 . S
C659 C665 1.491 . S
C660 H651 0.950 . S
C660 C659 1.398 . S
C660 C661 1.391 . S
C661 H649 0.950 . S
C661 C657 1.393 . S
C661 C660 1.391 . S
C662 H652 0.950 . S
C662 C663 1.386 . S
C662 C664 1.391 . S
C663 C662 1.386 . S
C663 C667 1.393 . S
C664 H653 0.950 . S
C664 C662 1.391 . S
C664 C665 1.400 . S
C665 C659 1.491 . S
C665 C664 1.400 . S
C665 C666 1.398 . S
C666 H654 0.950 . S
C666 C665 1.398 . S
C666 C667 1.391 . S
C667 H655 0.950 . S
C667 C663 1.393 . S
C667 C666 1.391 . S
H668 C676 0.950 . S
H669 C681 0.950 . S
H670 C678 0.950 . S
H671 C680 0.950 . S
H672 C682 0.950 . S
H673 C684 0.950 . S
H674 C686 0.950 . S
H675 C687 0.950 . S
C676 H668 0.950 . S
C676 C677 1.386 . S
C676 C678 1.391 . S
C677 C676 1.386 . S
C677 C681 1.393 . S
C678 H670 0.950 . S
C678 C676 1.391 . S
C678 C679 1.400 . S
C679 C678 1.400 . S
C679 C680 1.398 . S
C679 C685 1.491 . S
C680 H671 0.950 . S
C680 C679 1.398 . S
C680 C681 1.391 . S
C681 H669 0.950 . S
C681 C677 1.393 . S
C681 C680 1.391 . S
C682 H672 0.950 . S
C682 C683 1.386 . S
C682 C684 1.391 . S
C683 C682 1.386 . S
C683 C687 1.393 . S
C684 H673 0.950 . S
C684 C682 1.391 . S
C684 C685 1.400 . S
C685 C679 1.491 . S
C685 C684 1.400 . S
C685 C686 1.398 . S
C686 H674 0.950 . S
C686 C685 1.398 . S
C686 C687 1.391 . S
C687 H675 0.950 . S
C687 C683 1.393 . S
C687 C686 1.391 . S
C217 C42 1.870 . S
C223 C102 1.851 . S
C237 C26 1.742 . S
C243 C152 1.726 1_565 S
C257 C36 1.790 1_655 S
C263 C78 1.760 1_455 S
C277 C154 1.725 . S
C283 C32 1.740 1_565 S
C297 C4 1.818 . S
C303 C84 1.832 1_655 S
C317 C48 1.712 1_565 S
C323 C130 1.728 . S
C337 C100 1.887 . S
C343 C18 1.918 . S
C357 C136 1.746 1_565 S
C363 C50 1.732 . S
C377 C201 0.706 . S
C383 C34 0.731 . S
C397 C186 0.685 . S
C403 C39 0.718 . S
C417 C190 0.726 . S
C423 C45 0.702 . S
C437 C30 0.688 . S
C443 C195 0.726 . S
C457 C188 1.235 . S
C463 C91 1.292 . S
C477 C86 1.289 . S
C483 C182 1.281 . S
C497 C97 1.387 . S
C503 C206 1.313 . S
C517 C204 1.325 . S
C523 C82 1.391 . S
C537 C134 1.123 . S
C543 C94 1.072 . S
C557 C70 1.145 . S
C563 C149 1.218 . S
C577 C88 1.085 . S
C583 C143 1.112 . S
C597 C138 1.239 . S
C603 C56 1.172 . S
C617 C198 1.756 . S
C623 C146 1.771 . S
C637 C140 1.756 . S
C643 C192 1.742 . S
C657 C160 1.887 . S
C663 C108 1.902 . S
C677 C122 1.918 . S
C683 C174 1.927 . S
