# Generated by pormake.
# Topology whq, (6)-cn, num edge types: 1
# Building blocks:
#     Node 0, Type 0, BuildingBlock: OJICUG_clean_sbu_0, # of connection points: 6
#     Node 1, Type 0, BuildingBlock: OJICUG_clean_sbu_0, # of connection points: 6
#     Node 2, Type 0, BuildingBlock: OJICUG_clean_sbu_0, # of connection points: 6
#     Node 3, Type 0, BuildingBlock: OJICUG_clean_sbu_0, # of connection points: 6
#     Node 4, Type 0, BuildingBlock: OJICUG_clean_sbu_0, # of connection points: 6
#     Node 5, Type 0, BuildingBlock: OJICUG_clean_sbu_0, # of connection points: 6
#     Node 6, Type 0, BuildingBlock: OJICUG_clean_sbu_0, # of connection points: 6
#     Node 7, Type 0, BuildingBlock: OJICUG_clean_sbu_0, # of connection points: 6
#     Node 8, Type 0, BuildingBlock: OJICUG_clean_sbu_0, # of connection points: 6
#     Node 9, Type 0, BuildingBlock: OJICUG_clean_sbu_0, # of connection points: 6
#     Node 10, Type 0, BuildingBlock: OJICUG_clean_sbu_0, # of connection points: 6
#     Node 11, Type 0, BuildingBlock: OJICUG_clean_sbu_0, # of connection points: 6
#     Node 12, Type 0, BuildingBlock: OJICUG_clean_sbu_0, # of connection points: 6
#     Node 13, Type 0, BuildingBlock: OJICUG_clean_sbu_0, # of connection points: 6
#     Node 14, Type 0, BuildingBlock: OJICUG_clean_sbu_0, # of connection points: 6
#     Node 15, Type 0, BuildingBlock: OJICUG_clean_sbu_0, # of connection points: 6
#     Node 16, Type 0, BuildingBlock: OJICUG_clean_sbu_0, # of connection points: 6
#     Node 17, Type 0, BuildingBlock: OJICUG_clean_sbu_0, # of connection points: 6
#     Node 18, Type 0, BuildingBlock: OJICUG_clean_sbu_0, # of connection points: 6
#     Node 19, Type 0, BuildingBlock: OJICUG_clean_sbu_0, # of connection points: 6
#     Node 20, Type 0, BuildingBlock: OJICUG_clean_sbu_0, # of connection points: 6
#     Node 21, Type 0, BuildingBlock: OJICUG_clean_sbu_0, # of connection points: 6
#     Node 22, Type 0, BuildingBlock: OJICUG_clean_sbu_0, # of connection points: 6
#     Node 23, Type 0, BuildingBlock: OJICUG_clean_sbu_0, # of connection points: 6
#     Node 24, Type 0, BuildingBlock: OJICUG_clean_sbu_0, # of connection points: 6
#     Node 25, Type 0, BuildingBlock: OJICUG_clean_sbu_0, # of connection points: 6
#     Node 26, Type 0, BuildingBlock: OJICUG_clean_sbu_0, # of connection points: 6
#     Node 27, Type 0, BuildingBlock: OJICUG_clean_sbu_0, # of connection points: 6
#     Node 28, Type 0, BuildingBlock: OJICUG_clean_sbu_0, # of connection points: 6
#     Node 29, Type 0, BuildingBlock: OJICUG_clean_sbu_0, # of connection points: 6
#     Node 30, Type 0, BuildingBlock: OJICUG_clean_sbu_0, # of connection points: 6
#     Node 31, Type 0, BuildingBlock: OJICUG_clean_sbu_0, # of connection points: 6
#     Edge 32, Type (0, 0), BuildingBlock: XIVTED_clean_linker_0, # of connection points: 2
#     Edge 33, Type (0, 0), BuildingBlock: XIVTED_clean_linker_0, # of connection points: 2
#     Edge 34, Type (0, 0), BuildingBlock: XIVTED_clean_linker_0, # of connection points: 2
#     Edge 35, Type (0, 0), BuildingBlock: XIVTED_clean_linker_0, # of connection points: 2
#     Edge 36, Type (0, 0), BuildingBlock: XIVTED_clean_linker_0, # of connection points: 2
#     Edge 37, Type (0, 0), BuildingBlock: XIVTED_clean_linker_0, # of connection points: 2
#     Edge 38, Type (0, 0), BuildingBlock: XIVTED_clean_linker_0, # of connection points: 2
#     Edge 39, Type (0, 0), BuildingBlock: XIVTED_clean_linker_0, # of connection points: 2
#     Edge 40, Type (0, 0), BuildingBlock: XIVTED_clean_linker_0, # of connection points: 2
#     Edge 41, Type (0, 0), BuildingBlock: XIVTED_clean_linker_0, # of connection points: 2
#     Edge 42, Type (0, 0), BuildingBlock: XIVTED_clean_linker_0, # of connection points: 2
#     Edge 43, Type (0, 0), BuildingBlock: XIVTED_clean_linker_0, # of connection points: 2
#     Edge 44, Type (0, 0), BuildingBlock: XIVTED_clean_linker_0, # of connection points: 2
#     Edge 45, Type (0, 0), BuildingBlock: XIVTED_clean_linker_0, # of connection points: 2
#     Edge 46, Type (0, 0), BuildingBlock: XIVTED_clean_linker_0, # of connection points: 2
#     Edge 47, Type (0, 0), BuildingBlock: XIVTED_clean_linker_0, # of connection points: 2
#     Edge 48, Type (0, 0), BuildingBlock: XIVTED_clean_linker_0, # of connection points: 2
#     Edge 49, Type (0, 0), BuildingBlock: XIVTED_clean_linker_0, # of connection points: 2
#     Edge 50, Type (0, 0), BuildingBlock: XIVTED_clean_linker_0, # of connection points: 2
#     Edge 51, Type (0, 0), BuildingBlock: XIVTED_clean_linker_0, # of connection points: 2
#     Edge 52, Type (0, 0), BuildingBlock: XIVTED_clean_linker_0, # of connection points: 2
#     Edge 53, Type (0, 0), BuildingBlock: XIVTED_clean_linker_0, # of connection points: 2
#     Edge 54, Type (0, 0), BuildingBlock: XIVTED_clean_linker_0, # of connection points: 2
#     Edge 55, Type (0, 0), BuildingBlock: XIVTED_clean_linker_0, # of connection points: 2
#     Edge 56, Type (0, 0), BuildingBlock: XIVTED_clean_linker_0, # of connection points: 2
#     Edge 57, Type (0, 0), BuildingBlock: XIVTED_clean_linker_0, # of connection points: 2
#     Edge 58, Type (0, 0), BuildingBlock: XIVTED_clean_linker_0, # of connection points: 2
#     Edge 59, Type (0, 0), BuildingBlock: XIVTED_clean_linker_0, # of connection points: 2
#     Edge 60, Type (0, 0), BuildingBlock: XIVTED_clean_linker_0, # of connection points: 2
#     Edge 61, Type (0, 0), BuildingBlock: XIVTED_clean_linker_0, # of connection points: 2
#     Edge 62, Type (0, 0), BuildingBlock: XIVTED_clean_linker_0, # of connection points: 2
#     Edge 63, Type (0, 0), BuildingBlock: XIVTED_clean_linker_0, # of connection points: 2
#     Edge 64, Type (0, 0), BuildingBlock: XIVTED_clean_linker_0, # of connection points: 2
#     Edge 65, Type (0, 0), BuildingBlock: XIVTED_clean_linker_0, # of connection points: 2
#     Edge 66, Type (0, 0), BuildingBlock: XIVTED_clean_linker_0, # of connection points: 2
#     Edge 67, Type (0, 0), BuildingBlock: XIVTED_clean_linker_0, # of connection points: 2
#     Edge 68, Type (0, 0), BuildingBlock: XIVTED_clean_linker_0, # of connection points: 2
#     Edge 69, Type (0, 0), BuildingBlock: XIVTED_clean_linker_0, # of connection points: 2
#     Edge 70, Type (0, 0), BuildingBlock: XIVTED_clean_linker_0, # of connection points: 2
#     Edge 71, Type (0, 0), BuildingBlock: XIVTED_clean_linker_0, # of connection points: 2
#     Edge 72, Type (0, 0), BuildingBlock: XIVTED_clean_linker_0, # of connection points: 2
#     Edge 73, Type (0, 0), BuildingBlock: XIVTED_clean_linker_0, # of connection points: 2
#     Edge 74, Type (0, 0), BuildingBlock: XIVTED_clean_linker_0, # of connection points: 2
#     Edge 75, Type (0, 0), BuildingBlock: XIVTED_clean_linker_0, # of connection points: 2
#     Edge 76, Type (0, 0), BuildingBlock: XIVTED_clean_linker_0, # of connection points: 2
#     Edge 77, Type (0, 0), BuildingBlock: XIVTED_clean_linker_0, # of connection points: 2
#     Edge 78, Type (0, 0), BuildingBlock: XIVTED_clean_linker_0, # of connection points: 2
#     Edge 79, Type (0, 0), BuildingBlock: XIVTED_clean_linker_0, # of connection points: 2
#     Edge 80, Type (0, 0), BuildingBlock: XIVTED_clean_linker_0, # of connection points: 2
#     Edge 81, Type (0, 0), BuildingBlock: XIVTED_clean_linker_0, # of connection points: 2
#     Edge 82, Type (0, 0), BuildingBlock: XIVTED_clean_linker_0, # of connection points: 2
#     Edge 83, Type (0, 0), BuildingBlock: XIVTED_clean_linker_0, # of connection points: 2
#     Edge 84, Type (0, 0), BuildingBlock: XIVTED_clean_linker_0, # of connection points: 2
#     Edge 85, Type (0, 0), BuildingBlock: XIVTED_clean_linker_0, # of connection points: 2
#     Edge 86, Type (0, 0), BuildingBlock: XIVTED_clean_linker_0, # of connection points: 2
#     Edge 87, Type (0, 0), BuildingBlock: XIVTED_clean_linker_0, # of connection points: 2
#     Edge 88, Type (0, 0), BuildingBlock: XIVTED_clean_linker_0, # of connection points: 2
#     Edge 89, Type (0, 0), BuildingBlock: XIVTED_clean_linker_0, # of connection points: 2
#     Edge 90, Type (0, 0), BuildingBlock: XIVTED_clean_linker_0, # of connection points: 2
#     Edge 91, Type (0, 0), BuildingBlock: XIVTED_clean_linker_0, # of connection points: 2
#     Edge 92, Type (0, 0), BuildingBlock: XIVTED_clean_linker_0, # of connection points: 2
#     Edge 93, Type (0, 0), BuildingBlock: XIVTED_clean_linker_0, # of connection points: 2
#     Edge 94, Type (0, 0), BuildingBlock: XIVTED_clean_linker_0, # of connection points: 2
#     Edge 95, Type (0, 0), BuildingBlock: XIVTED_clean_linker_0, # of connection points: 2
#     Edge 96, Type (0, 0), BuildingBlock: XIVTED_clean_linker_0, # of connection points: 2
#     Edge 97, Type (0, 0), BuildingBlock: XIVTED_clean_linker_0, # of connection points: 2
#     Edge 98, Type (0, 0), BuildingBlock: XIVTED_clean_linker_0, # of connection points: 2
#     Edge 99, Type (0, 0), BuildingBlock: XIVTED_clean_linker_0, # of connection points: 2
#     Edge 100, Type (0, 0), BuildingBlock: XIVTED_clean_linker_0, # of connection points: 2
#     Edge 101, Type (0, 0), BuildingBlock: XIVTED_clean_linker_0, # of connection points: 2
#     Edge 102, Type (0, 0), BuildingBlock: XIVTED_clean_linker_0, # of connection points: 2
#     Edge 103, Type (0, 0), BuildingBlock: XIVTED_clean_linker_0, # of connection points: 2
#     Edge 104, Type (0, 0), BuildingBlock: XIVTED_clean_linker_0, # of connection points: 2
#     Edge 105, Type (0, 0), BuildingBlock: XIVTED_clean_linker_0, # of connection points: 2
#     Edge 106, Type (0, 0), BuildingBlock: XIVTED_clean_linker_0, # of connection points: 2
#     Edge 107, Type (0, 0), BuildingBlock: XIVTED_clean_linker_0, # of connection points: 2
#     Edge 108, Type (0, 0), BuildingBlock: XIVTED_clean_linker_0, # of connection points: 2
#     Edge 109, Type (0, 0), BuildingBlock: XIVTED_clean_linker_0, # of connection points: 2
#     Edge 110, Type (0, 0), BuildingBlock: XIVTED_clean_linker_0, # of connection points: 2
#     Edge 111, Type (0, 0), BuildingBlock: XIVTED_clean_linker_0, # of connection points: 2
#     Edge 112, Type (0, 0), BuildingBlock: XIVTED_clean_linker_0, # of connection points: 2
#     Edge 113, Type (0, 0), BuildingBlock: XIVTED_clean_linker_0, # of connection points: 2
#     Edge 114, Type (0, 0), BuildingBlock: XIVTED_clean_linker_0, # of connection points: 2
#     Edge 115, Type (0, 0), BuildingBlock: XIVTED_clean_linker_0, # of connection points: 2
#     Edge 116, Type (0, 0), BuildingBlock: XIVTED_clean_linker_0, # of connection points: 2
#     Edge 117, Type (0, 0), BuildingBlock: XIVTED_clean_linker_0, # of connection points: 2
#     Edge 118, Type (0, 0), BuildingBlock: XIVTED_clean_linker_0, # of connection points: 2
#     Edge 119, Type (0, 0), BuildingBlock: XIVTED_clean_linker_0, # of connection points: 2
#     Edge 120, Type (0, 0), BuildingBlock: XIVTED_clean_linker_0, # of connection points: 2
#     Edge 121, Type (0, 0), BuildingBlock: XIVTED_clean_linker_0, # of connection points: 2
#     Edge 122, Type (0, 0), BuildingBlock: XIVTED_clean_linker_0, # of connection points: 2
#     Edge 123, Type (0, 0), BuildingBlock: XIVTED_clean_linker_0, # of connection points: 2
#     Edge 124, Type (0, 0), BuildingBlock: XIVTED_clean_linker_0, # of connection points: 2
#     Edge 125, Type (0, 0), BuildingBlock: XIVTED_clean_linker_0, # of connection points: 2
#     Edge 126, Type (0, 0), BuildingBlock: XIVTED_clean_linker_0, # of connection points: 2
#     Edge 127, Type (0, 0), BuildingBlock: XIVTED_clean_linker_0, # of connection points: 2
# Relax obj value: 0.346
# Max RMSD: 0.215
# Mean RMSD: 0.215
data_MOF--net-whq--node1-OJICUG_clean_sbu_0--edge1-XIVTED_clean_linker_0
_symmetry_space_group_name_H-M    P1
_symmetry_Int_Tables_number       1
_symmetry_cell_setting            triclinic
loop_
_symmetry_equiv_pos_as_xyz
'x, y, z'
_cell_length_a     52.422958
_cell_length_b     52.439941
_cell_length_c     57.587824
_cell_angle_alpha  89.991877
_cell_angle_beta   89.954447
_cell_angle_gamma 89.989079
loop_
_atom_site_label
_atom_site_type_symbol
_atom_site_fract_x
_atom_site_fract_y
_atom_site_fract_z
_atom_type_partial_charge
Sc0 Sc 0.11067 0.20122 0.1298 0.0
Sc1 Sc 0.04764 0.22558 0.13001 0.0
Sc2 Sc 0.06789 0.18337 0.17378 0.0
O3 O 0.07543 0.20346 0.14452 0.0
C4 C 0.10102 0.14355 0.14498 0.0
C5 C 0.07455 0.20141 0.08527 0.0
C6 C 0.01595 0.17682 0.1455 0.0
C7 C 0.09657 0.26006 0.12343 0.0
C8 C 0.12494 0.2019 0.18362 0.0
C9 C 0.03955 0.23585 0.18401 0.0
O10 O 0.11246 0.16056 0.13324 0.0
O11 O 0.05611 0.21256 0.0954 0.0
O12 O 0.03142 0.17059 0.16147 0.0
O13 O 0.11222 0.24156 0.12413 0.0
O14 O 0.10322 0.19363 0.18977 0.0
O15 O 0.03564 0.24132 0.16282 0.0
O16 O 0.13081 0.2061 0.1625 0.0
O17 O 0.07267 0.25773 0.12613 0.0
O18 O 0.05138 0.21595 0.1905 0.0
O19 O 0.09518 0.19563 0.09559 0.0
O20 O 0.08404 0.14873 0.16005 0.0
O21 O 0.01953 0.19586 0.13225 0.0
Sc22 Sc 0.80116 0.06928 0.17591 0.0
Sc23 Sc 0.75977 0.04894 0.13153 0.0
Sc24 Sc 0.78433 0.11183 0.13144 0.0
O25 O 0.78167 0.07672 0.14628 0.0
C26 C 0.78242 0.12633 0.18522 0.0
C27 C 0.74853 0.04093 0.18541 0.0
C28 C 0.72553 0.09789 0.12432 0.0
C29 C 0.80842 0.01742 0.14761 0.0
C30 C 0.84164 0.1021 0.14755 0.0
C31 C 0.78468 0.07562 0.08698 0.0
O32 O 0.79037 0.10461 0.19167 0.0
O33 O 0.74347 0.03693 0.16415 0.0
O34 O 0.74408 0.11346 0.12517 0.0
O35 O 0.81429 0.03282 0.16376 0.0
O36 O 0.82492 0.11342 0.1354 0.0
O37 O 0.77323 0.05729 0.097 0.0
O38 O 0.83609 0.08541 0.16275 0.0
O39 O 0.78957 0.02097 0.13414 0.0
O40 O 0.79048 0.0962 0.09735 0.0
O41 O 0.76829 0.05279 0.19216 0.0
O42 O 0.77897 0.13217 0.16399 0.0
O43 O 0.72771 0.074 0.12724 0.0
Sc44 Sc 0.87424 0.78764 0.12853 0.0
Sc45 Sc 0.93624 0.76087 0.12868 0.0
Sc46 Sc 0.91706 0.80258 0.17331 0.0
O47 O 0.90915 0.78363 0.1435 0.0
C48 C 0.88551 0.84437 0.14525 0.0
C49 C 0.9106 0.78677 0.08415 0.0
C50 C 0.96906 0.8086 0.14493 0.0
C51 C 0.88604 0.72838 0.12145 0.0
C52 C 0.85948 0.78563 0.18235 0.0
C53 C 0.94417 0.74918 0.18242 0.0
O54 O 0.87411 0.82821 0.13256 0.0
O55 O 0.92848 0.7747 0.09421 0.0
O56 O 0.9537 0.81493 0.161 0.0
O57 O 0.87118 0.74751 0.12234 0.0
O58 O 0.88151 0.79241 0.18903 0.0
O59 O 0.94776 0.74401 0.16114 0.0
O60 O 0.85359 0.783 0.16103 0.0
O61 O 0.91001 0.72971 0.12434 0.0
O62 O 0.93294 0.76926 0.18929 0.0
O63 O 0.89017 0.79324 0.09446 0.0
O64 O 0.90164 0.83808 0.1607 0.0
O65 O 0.96516 0.78977 0.1315 0.0
Sc66 Sc 0.19991 0.87468 0.12872 0.0
Sc67 Sc 0.2254 0.93721 0.12835 0.0
Sc68 Sc 0.18307 0.91802 0.1725 0.0
O69 O 0.20286 0.90994 0.14318 0.0
C70 C 0.14252 0.88532 0.14425 0.0
C71 C 0.20051 0.91036 0.0839 0.0
C72 C 0.17712 0.96975 0.1437 0.0
C73 C 0.259 0.8876 0.12203 0.0
C74 C 0.20082 0.86079 0.18266 0.0
C75 C 0.23601 0.94569 0.18225 0.0
O76 O 0.15927 0.87357 0.13245 0.0
O77 O 0.21221 0.9286 0.0938 0.0
O78 O 0.17079 0.95452 0.15986 0.0
O79 O 0.24015 0.87239 0.1228 0.0
O80 O 0.19292 0.88266 0.18873 0.0
O81 O 0.24142 0.94938 0.16101 0.0
O82 O 0.20476 0.85473 0.16154 0.0
O83 O 0.25716 0.91156 0.12473 0.0
O84 O 0.216 0.93416 0.18891 0.0
O85 O 0.19426 0.89 0.09444 0.0
O86 O 0.14806 0.90229 0.15918 0.0
O87 O 0.19607 0.96581 0.1304 0.0
Sc88 Sc 0.06945 0.80204 0.3226 0.0
Sc89 Sc 0.04971 0.76036 0.36712 0.0
Sc90 Sc 0.1119 0.78659 0.3676 0.0
O91 O 0.07706 0.7829 0.35244 0.0
C92 C 0.12694 0.78476 0.31378 0.0
C93 C 0.04217 0.74869 0.31335 0.0
C94 C 0.09967 0.72755 0.37484 0.0
C95 C 0.01734 0.80839 0.35064 0.0
C96 C 0.10088 0.84343 0.35119 0.0
C97 C 0.07517 0.78594 0.41181 0.0
O98 O 0.10491 0.79141 0.30699 0.0
O99 O 0.03867 0.74332 0.33461 0.0
O100 O 0.11481 0.74642 0.37356 0.0
O101 O 0.03292 0.81488 0.3348 0.0
O102 O 0.11188 0.82716 0.36405 0.0
O103 O 0.05705 0.77445 0.40157 0.0
O104 O 0.08526 0.83737 0.33524 0.0
O105 O 0.02096 0.78931 0.36384 0.0
O106 O 0.09588 0.79182 0.40168 0.0
O107 O 0.05321 0.76892 0.30658 0.0
O108 O 0.13277 0.78233 0.33513 0.0
O109 O 0.07569 0.72914 0.37215 0.0
Sc110 Sc 0.19716 0.1119 0.36838 0.0
Sc111 Sc 0.22433 0.05014 0.36832 0.0
Sc112 Sc 0.18201 0.06861 0.32397 0.0
O113 O 0.20124 0.07692 0.35356 0.0
C114 C 0.14031 0.1001 0.35202 0.0
C115 C 0.19813 0.07576 0.41281 0.0
C116 C 0.1769 0.01668 0.35251 0.0
C117 C 0.25645 0.10033 0.37576 0.0
C118 C 0.19889 0.12628 0.31459 0.0
C119 C 0.23569 0.04224 0.31448 0.0
O120 O 0.15659 0.11204 0.36417 0.0
O121 O 0.21055 0.05804 0.40284 0.0
O122 O 0.1702 0.03174 0.33634 0.0
O123 O 0.23725 0.1151 0.37501 0.0
O124 O 0.19161 0.10431 0.30815 0.0
O125 O 0.24107 0.03866 0.33573 0.0
O126 O 0.2021 0.13227 0.33582 0.0
O127 O 0.2553 0.07644 0.37251 0.0
O128 O 0.21541 0.05321 0.30776 0.0
O129 O 0.19131 0.09601 0.40241 0.0
O130 O 0.14647 0.08353 0.33692 0.0
O131 O 0.19572 0.02108 0.36579 0.0
Sc132 Sc 0.91377 0.18164 0.32517 0.0
Sc133 Sc 0.93459 0.2226 0.36976 0.0
Sc134 Sc 0.87177 0.19792 0.37032 0.0
O135 O 0.90667 0.20081 0.35509 0.0
C136 C 0.85655 0.20012 0.31664 0.0
C137 C 0.94199 0.23443 0.31595 0.0
C138 C 0.88554 0.25665 0.37762 0.0
C139 C 0.96597 0.17417 0.35284 0.0
C140 C 0.88159 0.14086 0.35378 0.0
C141 C 0.90857 0.19741 0.41441 0.0
O142 O 0.87834 0.19276 0.3098 0.0
O143 O 0.94597 0.23942 0.33722 0.0
O144 O 0.86989 0.23816 0.3765 0.0
O145 O 0.9503 0.16824 0.33692 0.0
O146 O 0.87073 0.15737 0.36652 0.0
O147 O 0.92692 0.20862 0.40422 0.0
O148 O 0.89755 0.14659 0.33799 0.0
O149 O 0.96262 0.19301 0.36636 0.0
O150 O 0.88775 0.192 0.40428 0.0
O151 O 0.9303 0.2146 0.30913 0.0
O152 O 0.85091 0.20294 0.338 0.0
O153 O 0.90944 0.25443 0.3748 0.0
Sc154 Sc 0.8019 0.91544 0.32558 0.0
Sc155 Sc 0.75896 0.93302 0.36981 0.0
Sc156 Sc 0.78684 0.87157 0.36955 0.0
O157 O 0.7825 0.90664 0.35498 0.0
C158 C 0.78583 0.85771 0.3156 0.0
C159 C 0.74796 0.94126 0.31599 0.0
C160 C 0.72734 0.88232 0.37659 0.0
C161 C 0.80613 0.96718 0.35451 0.0
C162 C 0.84369 0.88403 0.35357 0.0
C163 C 0.78511 0.90733 0.41424 0.0
O164 O 0.7928 0.87986 0.30937 0.0
O165 O 0.74227 0.94451 0.33722 0.0
O166 O 0.74672 0.86778 0.37571 0.0
O167 O 0.81326 0.95227 0.33838 0.0
O168 O 0.82745 0.87192 0.36565 0.0
O169 O 0.77267 0.92506 0.40431 0.0
O170 O 0.83747 0.90065 0.33855 0.0
O171 O 0.78715 0.96252 0.36755 0.0
O172 O 0.79209 0.88717 0.40377 0.0
O173 O 0.76849 0.93071 0.30934 0.0
O174 O 0.78257 0.85147 0.33677 0.0
O175 O 0.72832 0.90629 0.37373 0.0
Sc176 Sc 0.87478 0.78606 0.86799 0.0
Sc177 Sc 0.93729 0.76039 0.86677 0.0
Sc178 Sc 0.91616 0.80116 0.82214 0.0
O179 O 0.90939 0.78247 0.85232 0.0
C180 C 0.85866 0.78311 0.81458 0.0
C181 C 0.88785 0.72716 0.87559 0.0
C182 C 0.94382 0.74803 0.81298 0.0
C183 C 0.91226 0.78641 0.91157 0.0
C184 C 0.88463 0.84277 0.85045 0.0
C185 C 0.96885 0.80843 0.84914 0.0
O186 O 0.85338 0.78065 0.83605 0.0
O187 O 0.91172 0.72888 0.87222 0.0
O188 O 0.93217 0.7679 0.80618 0.0
O189 O 0.89146 0.7923 0.90161 0.0
O190 O 0.90049 0.83654 0.83474 0.0
O191 O 0.96576 0.78964 0.8628 0.0
O192 O 0.8738 0.82658 0.86355 0.0
O193 O 0.9302 0.77466 0.90126 0.0
O194 O 0.95284 0.81435 0.83349 0.0
O195 O 0.8726 0.74599 0.87469 0.0
O196 O 0.8804 0.79018 0.80733 0.0
O197 O 0.9481 0.74319 0.83423 0.0
Sc198 Sc 0.19824 0.87445 0.86711 0.0
Sc199 Sc 0.2253 0.93632 0.86671 0.0
Sc200 Sc 0.18495 0.91667 0.82137 0.0
O201 O 0.20288 0.9091 0.85175 0.0
C202 C 0.20161 0.85877 0.81357 0.0
C203 C 0.25741 0.88625 0.87526 0.0
C204 C 0.23859 0.94342 0.81313 0.0
C205 C 0.19845 0.91121 0.91112 0.0
C206 C 0.14207 0.88583 0.84874 0.0
C207 C 0.17821 0.96905 0.84906 0.0
O208 O 0.20374 0.85327 0.83502 0.0
O209 O 0.25628 0.91012 0.87174 0.0
O210 O 0.21888 0.93183 0.80592 0.0
O211 O 0.19177 0.89083 0.90088 0.0
O212 O 0.14904 0.90184 0.83342 0.0
O213 O 0.19638 0.96506 0.8632 0.0
O214 O 0.1577 0.87438 0.86198 0.0
O215 O 0.21091 0.92881 0.90105 0.0
O216 O 0.17258 0.95372 0.83276 0.0
O217 O 0.23823 0.87142 0.87441 0.0
O218 O 0.19514 0.88073 0.80644 0.0
O219 O 0.24288 0.94767 0.83447 0.0
Sc220 Sc 0.1118 0.19907 0.86782 0.0
Sc221 Sc 0.04962 0.22538 0.86828 0.0
Sc222 Sc 0.06854 0.18384 0.82345 0.0
O223 O 0.07669 0.20282 0.8532 0.0
C224 C 0.12596 0.20127 0.81393 0.0
C225 C 0.09959 0.25819 0.87534 0.0
C226 C 0.04136 0.23724 0.81463 0.0
C227 C 0.07594 0.19953 0.91251 0.0
C228 C 0.10073 0.14226 0.85107 0.0
C229 C 0.01676 0.17763 0.85219 0.0
O230 O 0.13202 0.20416 0.83517 0.0
O231 O 0.07563 0.25669 0.87252 0.0
O232 O 0.05259 0.2172 0.80765 0.0
O233 O 0.09629 0.19314 0.902 0.0
O234 O 0.08416 0.14838 0.83595 0.0
O235 O 0.02086 0.19636 0.86568 0.0
O236 O 0.11229 0.15853 0.86352 0.0
O237 O 0.05789 0.21151 0.90263 0.0
O238 O 0.03192 0.1714 0.83592 0.0
O239 O 0.11459 0.23917 0.8743 0.0
O240 O 0.10397 0.19408 0.80748 0.0
O241 O 0.03774 0.24227 0.83594 0.0
Sc242 Sc 0.80173 0.06859 0.82495 0.0
Sc243 Sc 0.76025 0.04895 0.86955 0.0
Sc244 Sc 0.78671 0.11105 0.87006 0.0
O245 O 0.78284 0.07623 0.85487 0.0
C246 C 0.84351 0.10013 0.85291 0.0
C247 C 0.80791 0.01633 0.85291 0.0
C248 C 0.78613 0.07448 0.91421 0.0
C249 C 0.74843 0.04152 0.81574 0.0
C250 C 0.78442 0.12623 0.81643 0.0
C251 C 0.72752 0.09875 0.87742 0.0
O252 O 0.83727 0.08371 0.8377 0.0
O253 O 0.78937 0.0203 0.86667 0.0
O254 O 0.79283 0.09486 0.90395 0.0
O255 O 0.7683 0.05313 0.80889 0.0
O256 O 0.78144 0.13187 0.83777 0.0
O257 O 0.7289 0.07489 0.87397 0.0
O258 O 0.79169 0.10439 0.80964 0.0
O259 O 0.74354 0.0374 0.83701 0.0
O260 O 0.7466 0.1137 0.87685 0.0
O261 O 0.81396 0.03167 0.83673 0.0
O262 O 0.8273 0.11166 0.8655 0.0
O263 O 0.77391 0.05675 0.90409 0.0
Sc264 Sc 0.91523 0.18244 0.67623 0.0
Sc265 Sc 0.93512 0.22352 0.6314 0.0
Sc266 Sc 0.87296 0.1972 0.63092 0.0
O267 O 0.90773 0.20112 0.64617 0.0
C268 C 0.88393 0.14053 0.64824 0.0
C269 C 0.96771 0.17606 0.64864 0.0
C270 C 0.90988 0.19717 0.58692 0.0
C271 C 0.94199 0.23601 0.68512 0.0
C272 C 0.85753 0.19972 0.6845 0.0
C273 C 0.88531 0.25621 0.62305 0.0
O274 O 0.90012 0.14683 0.66362 0.0
O275 O 0.96386 0.19459 0.63487 0.0
O276 O 0.88928 0.19098 0.5971 0.0
O277 O 0.93065 0.21603 0.69208 0.0
O278 O 0.85195 0.20249 0.66313 0.0
O279 O 0.9092 0.25473 0.6263 0.0
O280 O 0.87938 0.19263 0.69139 0.0
O281 O 0.94612 0.24079 0.66384 0.0
O282 O 0.87024 0.23725 0.62403 0.0
O283 O 0.95221 0.17 0.66469 0.0
O284 O 0.87252 0.15668 0.63551 0.0
O285 O 0.92774 0.20921 0.59702 0.0
Sc286 Sc 0.80151 0.91417 0.67637 0.0
Sc287 Sc 0.76062 0.93467 0.63171 0.0
Sc288 Sc 0.78644 0.87231 0.63083 0.0
O289 O 0.78279 0.907 0.64629 0.0
C290 C 0.84322 0.88268 0.64825 0.0
C291 C 0.80844 0.96662 0.64888 0.0
C292 C 0.78651 0.90926 0.58696 0.0
C293 C 0.74842 0.94163 0.68555 0.0
C294 C 0.78374 0.85655 0.68428 0.0
C295 C 0.72745 0.88534 0.62324 0.0
O296 O 0.83701 0.899 0.66356 0.0
O297 O 0.79005 0.96291 0.63492 0.0
O298 O 0.79297 0.88874 0.59712 0.0
O299 O 0.76806 0.92966 0.69242 0.0
O300 O 0.78076 0.85119 0.66289 0.0
O301 O 0.72906 0.90914 0.62694 0.0
O302 O 0.79117 0.87825 0.69129 0.0
O303 O 0.74382 0.94609 0.66429 0.0
O304 O 0.74635 0.87015 0.6238 0.0
O305 O 0.81411 0.95115 0.66505 0.0
O306 O 0.82699 0.87133 0.63556 0.0
O307 O 0.77439 0.92703 0.59715 0.0
Sc308 Sc 0.0699 0.8017 0.67361 0.0
Sc309 Sc 0.05048 0.76034 0.62887 0.0
Sc310 Sc 0.11263 0.78668 0.62868 0.0
O311 O 0.07771 0.78285 0.64371 0.0
C312 C 0.10152 0.84345 0.64573 0.0
C313 C 0.01765 0.80778 0.64562 0.0
C314 C 0.07623 0.78651 0.58444 0.0
C315 C 0.04303 0.74825 0.68265 0.0
C316 C 0.12759 0.78448 0.68233 0.0
C317 C 0.10029 0.72761 0.62099 0.0
O318 O 0.08496 0.83728 0.66086 0.0
O319 O 0.02176 0.78933 0.63182 0.0
O320 O 0.09662 0.79298 0.59479 0.0
O321 O 0.05453 0.76815 0.68957 0.0
O322 O 0.1333 0.78132 0.66103 0.0
O323 O 0.07641 0.72906 0.62431 0.0
O324 O 0.10572 0.79182 0.68902 0.0
O325 O 0.03895 0.74344 0.66136 0.0
O326 O 0.11532 0.74661 0.62179 0.0
O327 O 0.03292 0.81384 0.66183 0.0
O328 O 0.11319 0.82721 0.6333 0.0
O329 O 0.05838 0.77428 0.59442 0.0
Sc330 Sc 0.19867 0.11182 0.62932 0.0
Sc331 Sc 0.22506 0.04968 0.62996 0.0
Sc332 Sc 0.18402 0.06967 0.67479 0.0
O333 O 0.20265 0.0771 0.64467 0.0
C334 C 0.20132 0.12734 0.68288 0.0
C335 C 0.25774 0.09946 0.62154 0.0
C336 C 0.23754 0.04276 0.68368 0.0
C337 C 0.19873 0.07485 0.5854 0.0
C338 C 0.14203 0.10099 0.64684 0.0
C339 C 0.17751 0.01724 0.64724 0.0
O340 O 0.20392 0.1329 0.66148 0.0
O341 O 0.25629 0.07559 0.62487 0.0
O342 O 0.21759 0.05416 0.69063 0.0
O343 O 0.19246 0.09544 0.59554 0.0
O344 O 0.1484 0.08488 0.66228 0.0
O345 O 0.19607 0.02102 0.63346 0.0
O346 O 0.15813 0.11228 0.63395 0.0
O347 O 0.21082 0.05705 0.59555 0.0
O348 O 0.17149 0.03276 0.66328 0.0
O349 O 0.23875 0.11452 0.62243 0.0
O350 O 0.19435 0.10548 0.68986 0.0
O351 O 0.24231 0.03863 0.66239 0.0
Sc352 Sc 0.6119 0.69857 0.63044 0.0
Sc353 Sc 0.54966 0.72474 0.63094 0.0
Sc354 Sc 0.5697 0.68392 0.67589 0.0
O355 O 0.57713 0.70248 0.64575 0.0
C356 C 0.60128 0.642 0.648 0.0
C357 C 0.57501 0.6984 0.58646 0.0
C358 C 0.51744 0.67703 0.6482 0.0
C359 C 0.59939 0.75758 0.62264 0.0
C360 C 0.62729 0.70143 0.68402 0.0
C361 C 0.54229 0.73721 0.68464 0.0
O362 O 0.61248 0.65808 0.63506 0.0
O363 O 0.55716 0.71047 0.59658 0.0
O364 O 0.53295 0.67113 0.66426 0.0
O365 O 0.61447 0.73861 0.62361 0.0
O366 O 0.6054 0.69452 0.69102 0.0
O367 O 0.53835 0.74196 0.66333 0.0
O368 O 0.6329 0.70389 0.66262 0.0
O369 O 0.57549 0.75607 0.62589 0.0
O370 O 0.55383 0.71737 0.69165 0.0
O371 O 0.59562 0.69226 0.59662 0.0
O372 O 0.58517 0.64836 0.66347 0.0
O373 O 0.52113 0.6956 0.63442 0.0
Sc374 Sc 0.30189 0.56977 0.67511 0.0
Sc375 Sc 0.26089 0.54949 0.63039 0.0
Sc376 Sc 0.28732 0.61158 0.62941 0.0
O377 O 0.28329 0.57699 0.64496 0.0
C378 C 0.28471 0.62748 0.68294 0.0
C379 C 0.24854 0.54258 0.68418 0.0
C380 C 0.22823 0.59932 0.62189 0.0
C381 C 0.30858 0.51728 0.64774 0.0
C382 C 0.34389 0.60084 0.64683 0.0
C383 C 0.28707 0.57438 0.58561 0.0
O384 O 0.29141 0.6056 0.69007 0.0
O385 O 0.2437 0.53852 0.6629 0.0
O386 O 0.24725 0.61431 0.62279 0.0
O387 O 0.31456 0.53292 0.66367 0.0
O388 O 0.32784 0.61191 0.63378 0.0
O389 O 0.27506 0.55663 0.5959 0.0
O390 O 0.33748 0.58505 0.66254 0.0
O391 O 0.28997 0.52088 0.63399 0.0
O392 O 0.29332 0.59504 0.59563 0.0
O393 O 0.26844 0.5541 0.69106 0.0
O394 O 0.28231 0.63291 0.66149 0.0
O395 O 0.22964 0.57542 0.62523 0.0
Sc396 Sc 0.37361 0.28704 0.63063 0.0
Sc397 Sc 0.43567 0.26054 0.63053 0.0
Sc398 Sc 0.41647 0.30197 0.67539 0.0
O399 O 0.40855 0.28311 0.64552 0.0
C400 C 0.38485 0.34375 0.64748 0.0
C401 C 0.40982 0.2866 0.58617 0.0
C402 C 0.46849 0.30814 0.64701 0.0
C403 C 0.38567 0.22791 0.62305 0.0
C404 C 0.35883 0.28493 0.6844 0.0
C405 C 0.44365 0.2486 0.68427 0.0
O406 O 0.3733 0.32754 0.63496 0.0
O407 O 0.42772 0.27445 0.59611 0.0
O408 O 0.45327 0.31425 0.66326 0.0
O409 O 0.37074 0.24699 0.62405 0.0
O410 O 0.3808 0.29195 0.69106 0.0
O411 O 0.44738 0.24366 0.66295 0.0
O412 O 0.35303 0.28203 0.66309 0.0
O413 O 0.40961 0.22928 0.62609 0.0
O414 O 0.43221 0.26852 0.69126 0.0
O415 O 0.38945 0.29305 0.5966 0.0
O416 O 0.4012 0.33754 0.66277 0.0
O417 O 0.46443 0.28955 0.63334 0.0
Sc418 Sc 0.69863 0.37367 0.63045 0.0
Sc419 Sc 0.72565 0.43553 0.63074 0.0
Sc420 Sc 0.68393 0.4164 0.67538 0.0
O421 O 0.7028 0.4085 0.64551 0.0
C422 C 0.64194 0.38499 0.64757 0.0
C423 C 0.69932 0.41016 0.58624 0.0
C424 C 0.67815 0.46855 0.64726 0.0
C425 C 0.75789 0.38537 0.62287 0.0
C426 C 0.70103 0.35878 0.68412 0.0
C427 C 0.73751 0.44306 0.68452 0.0
O428 O 0.65808 0.37338 0.63498 0.0
O429 O 0.71171 0.42783 0.59628 0.0
O430 O 0.67183 0.45326 0.66338 0.0
O431 O 0.73866 0.37063 0.62366 0.0
O432 O 0.69393 0.3807 0.69084 0.0
O433 O 0.7426 0.44692 0.66325 0.0
O434 O 0.7038 0.35295 0.66281 0.0
O435 O 0.75674 0.40927 0.62621 0.0
O436 O 0.71741 0.43183 0.69135 0.0
O437 O 0.69259 0.38981 0.59654 0.0
O438 O 0.64829 0.40136 0.66278 0.0
O439 O 0.69683 0.46448 0.63368 0.0
Sc440 Sc 0.5688 0.30304 0.82485 0.0
Sc441 Sc 0.54964 0.26059 0.869 0.0
Sc442 Sc 0.61146 0.28762 0.86968 0.0
O443 O 0.57665 0.28368 0.85452 0.0
C444 C 0.62635 0.28606 0.81585 0.0
C445 C 0.542 0.24951 0.81515 0.0
C446 C 0.60003 0.2283 0.87631 0.0
C447 C 0.51663 0.30843 0.853 0.0
C448 C 0.60008 0.34452 0.85355 0.0
C449 C 0.57478 0.28612 0.91387 0.0
O450 O 0.60429 0.29271 0.80911 0.0
O451 O 0.53871 0.2438 0.83636 0.0
O452 O 0.61484 0.24745 0.87535 0.0
O453 O 0.53216 0.31538 0.83728 0.0
O454 O 0.61116 0.32823 0.86634 0.0
O455 O 0.55689 0.27436 0.90356 0.0
O456 O 0.58443 0.33844 0.83764 0.0
O457 O 0.52049 0.28922 0.866 0.0
O458 O 0.59538 0.2925 0.90378 0.0
O459 O 0.55275 0.26996 0.80857 0.0
O460 O 0.63224 0.28361 0.83718 0.0
O461 O 0.57604 0.2296 0.87356 0.0
Sc462 Sc 0.69954 0.61239 0.86915 0.0
Sc463 Sc 0.72574 0.55019 0.86932 0.0
Sc464 Sc 0.68324 0.56893 0.82521 0.0
O465 O 0.7029 0.5772 0.85457 0.0
C466 C 0.64231 0.60146 0.85327 0.0
C467 C 0.7003 0.57659 0.91382 0.0
C468 C 0.6777 0.51721 0.85405 0.0
C469 C 0.75873 0.59998 0.87612 0.0
C470 C 0.70093 0.62625 0.81525 0.0
C471 C 0.73652 0.54184 0.81545 0.0
O472 O 0.65891 0.61325 0.86519 0.0
O473 O 0.71233 0.55857 0.90388 0.0
O474 O 0.67102 0.53229 0.83789 0.0
O475 O 0.73974 0.61503 0.87544 0.0
O476 O 0.69318 0.60436 0.80905 0.0
O477 O 0.74206 0.5383 0.83667 0.0
O478 O 0.70452 0.63237 0.8364 0.0
O479 O 0.75716 0.57607 0.87312 0.0
O480 O 0.71628 0.55297 0.80883 0.0
O481 O 0.69374 0.59688 0.90332 0.0
O482 O 0.64806 0.58453 0.83836 0.0
O483 O 0.69672 0.52144 0.86715 0.0
Sc484 Sc 0.41636 0.68332 0.824 0.0
Sc485 Sc 0.43544 0.72487 0.86877 0.0
Sc486 Sc 0.37329 0.69852 0.86857 0.0
O487 O 0.40833 0.70231 0.85379 0.0
C488 C 0.35886 0.70054 0.81472 0.0
C489 C 0.44358 0.73669 0.81505 0.0
C490 C 0.3854 0.75762 0.87601 0.0
C491 C 0.46827 0.67713 0.85244 0.0
C492 C 0.38451 0.64172 0.85197 0.0
C493 C 0.4093 0.69908 0.91314 0.0
O494 O 0.38087 0.69352 0.80816 0.0
O495 O 0.44715 0.74176 0.83636 0.0
O496 O 0.37041 0.73861 0.87489 0.0
O497 O 0.45298 0.6709 0.8363 0.0
O498 O 0.37298 0.65798 0.86448 0.0
O499 O 0.42738 0.71095 0.90317 0.0
O500 O 0.40085 0.64786 0.83664 0.0
O501 O 0.46428 0.69587 0.86595 0.0
O502 O 0.3889 0.69278 0.90272 0.0
O503 O 0.43232 0.71666 0.8081 0.0
O504 O 0.35289 0.70337 0.83601 0.0
O505 O 0.40938 0.75615 0.87321 0.0
Sc506 Sc 0.30114 0.41611 0.82404 0.0
Sc507 Sc 0.26021 0.43645 0.86879 0.0
Sc508 Sc 0.28573 0.37395 0.86929 0.0
O509 O 0.28229 0.40879 0.85405 0.0
C510 C 0.28346 0.3586 0.81566 0.0
C511 C 0.24825 0.44404 0.81499 0.0
C512 C 0.22674 0.3871 0.8766 0.0
C513 C 0.30828 0.46826 0.85191 0.0
C514 C 0.3426 0.38426 0.85217 0.0
C515 C 0.2856 0.41054 0.91347 0.0
O516 O 0.29064 0.38043 0.80878 0.0
O517 O 0.24355 0.44821 0.83629 0.0
O518 O 0.24554 0.3718 0.87586 0.0
O519 O 0.31395 0.45284 0.8357 0.0
O520 O 0.32632 0.37302 0.8649 0.0
O521 O 0.27383 0.42854 0.90331 0.0
O522 O 0.33647 0.40054 0.83679 0.0
O523 O 0.28976 0.46461 0.86577 0.0
O524 O 0.29183 0.38999 0.90324 0.0
O525 O 0.26787 0.43207 0.80805 0.0
O526 O 0.28055 0.35305 0.83702 0.0
O527 O 0.22852 0.41098 0.87335 0.0
Sc528 Sc 0.37338 0.28671 0.3697 0.0
Sc529 Sc 0.43545 0.26013 0.36886 0.0
Sc530 Sc 0.41551 0.30149 0.32426 0.0
O531 O 0.40808 0.28271 0.35429 0.0
C532 C 0.35783 0.2843 0.31614 0.0
C533 C 0.38553 0.2276 0.37719 0.0
C534 C 0.44237 0.248 0.31506 0.0
C535 C 0.41041 0.28631 0.41357 0.0
C536 C 0.38425 0.34335 0.35248 0.0
C537 C 0.46798 0.30773 0.35177 0.0
O538 O 0.35225 0.28172 0.33753 0.0
O539 O 0.40943 0.22896 0.37389 0.0
O540 O 0.43107 0.26805 0.30826 0.0
O541 O 0.38981 0.29264 0.4035 0.0
O542 O 0.40026 0.33704 0.33692 0.0
O543 O 0.46423 0.28904 0.36539 0.0
O544 O 0.37302 0.32722 0.36535 0.0
O545 O 0.4282 0.27425 0.40334 0.0
O546 O 0.4524 0.31395 0.33586 0.0
O547 O 0.37058 0.24666 0.3763 0.0
O548 O 0.37972 0.29119 0.30915 0.0
O549 O 0.44641 0.243 0.33632 0.0
Sc550 Sc 0.699 0.37187 0.36949 0.0
Sc551 Sc 0.7251 0.43409 0.36909 0.0
Sc552 Sc 0.68398 0.41422 0.32432 0.0
O553 O 0.70277 0.40668 0.3543 0.0
C554 C 0.70143 0.35664 0.31586 0.0
C555 C 0.75806 0.38443 0.37699 0.0
C556 C 0.73715 0.4417 0.3153 0.0
C557 C 0.69911 0.40846 0.41364 0.0
C558 C 0.64227 0.3826 0.35238 0.0
C559 C 0.67734 0.4664 0.35225 0.0
O560 O 0.70424 0.35102 0.33722 0.0
O561 O 0.75651 0.40831 0.37373 0.0
O562 O 0.71736 0.43003 0.30836 0.0
O563 O 0.69279 0.38797 0.40337 0.0
O564 O 0.64848 0.39884 0.33699 0.0
O565 O 0.69589 0.46258 0.366 0.0
O566 O 0.65848 0.37124 0.36506 0.0
O567 O 0.71119 0.42633 0.40356 0.0
O568 O 0.6714 0.45101 0.3361 0.0
O569 O 0.7391 0.36934 0.37615 0.0
O570 O 0.69433 0.37851 0.30901 0.0
O571 O 0.74198 0.44565 0.3366 0.0
Sc572 Sc 0.61195 0.69743 0.37 0.0
Sc573 Sc 0.54903 0.72214 0.36955 0.0
Sc574 Sc 0.57024 0.68189 0.32458 0.0
O575 O 0.57711 0.70057 0.35473 0.0
C576 C 0.62745 0.70054 0.31642 0.0
C577 C 0.598 0.75602 0.37804 0.0
C578 C 0.54201 0.73477 0.31586 0.0
C579 C 0.57493 0.69632 0.41398 0.0
C580 C 0.60245 0.64063 0.35258 0.0
C581 C 0.5179 0.6739 0.35196 0.0
O582 O 0.63299 0.7031 0.33782 0.0
O583 O 0.57413 0.75392 0.375 0.0
O584 O 0.55382 0.71507 0.30888 0.0
O585 O 0.59575 0.69091 0.4038 0.0
O586 O 0.58635 0.64669 0.33704 0.0
O587 O 0.52094 0.6926 0.36571 0.0
O588 O 0.61333 0.65693 0.36551 0.0
O589 O 0.55664 0.70773 0.40389 0.0
O590 O 0.53379 0.66827 0.33612 0.0
O591 O 0.61363 0.73753 0.37678 0.0
O592 O 0.60572 0.69322 0.30945 0.0
O593 O 0.53776 0.73941 0.33715 0.0
Sc594 Sc 0.30071 0.56899 0.32314 0.0
Sc595 Sc 0.26045 0.5497 0.36875 0.0
Sc596 Sc 0.28807 0.61132 0.3689 0.0
O597 O 0.28302 0.57672 0.35362 0.0
C598 C 0.34403 0.59905 0.35051 0.0
C599 C 0.30712 0.51659 0.35089 0.0
C600 C 0.28763 0.57469 0.41301 0.0
C601 C 0.2469 0.54269 0.31517 0.0
C602 C 0.28481 0.6271 0.31541 0.0
C603 C 0.22876 0.60014 0.37704 0.0
O604 O 0.33683 0.58323 0.33513 0.0
O605 O 0.28921 0.52078 0.36528 0.0
O606 O 0.29446 0.59494 0.40263 0.0
O607 O 0.26653 0.55436 0.30787 0.0
O608 O 0.2828 0.63259 0.33687 0.0
O609 O 0.22971 0.57622 0.37367 0.0
O610 O 0.29099 0.60508 0.30825 0.0
O611 O 0.24279 0.53828 0.33653 0.0
O612 O 0.2481 0.61477 0.37614 0.0
O613 O 0.3126 0.53179 0.33444 0.0
O614 O 0.32858 0.61078 0.36373 0.0
O615 O 0.2749 0.55719 0.4031 0.0
Sc616 Sc 0.41599 0.68295 0.17465 0.0
Sc617 Sc 0.43604 0.72514 0.13078 0.0
Sc618 Sc 0.37344 0.69981 0.13018 0.0
O619 O 0.40845 0.7027 0.14519 0.0
C620 C 0.38359 0.64243 0.14605 0.0
C621 C 0.46817 0.67677 0.14651 0.0
C622 C 0.40993 0.70033 0.08592 0.0
C623 C 0.44357 0.73581 0.18477 0.0
C624 C 0.35866 0.70105 0.18389 0.0
C625 C 0.38672 0.75885 0.12362 0.0
O626 O 0.40034 0.64799 0.16117 0.0
O627 O 0.46438 0.69569 0.13317 0.0
O628 O 0.38938 0.69404 0.09615 0.0
O629 O 0.43191 0.71583 0.19126 0.0
O630 O 0.35293 0.70482 0.16268 0.0
O631 O 0.41059 0.75694 0.12679 0.0
O632 O 0.38038 0.69309 0.19034 0.0
O633 O 0.44769 0.74117 0.16359 0.0
O634 O 0.3714 0.74008 0.12407 0.0
O635 O 0.45275 0.67047 0.16255 0.0
O636 O 0.3721 0.65916 0.13402 0.0
O637 O 0.42798 0.71201 0.09611 0.0
Sc638 Sc 0.30191 0.41651 0.17518 0.0
Sc639 Sc 0.25986 0.43582 0.13092 0.0
Sc640 Sc 0.2857 0.37342 0.13098 0.0
O641 O 0.28244 0.40856 0.14567 0.0
C642 C 0.34289 0.38411 0.14697 0.0
C643 C 0.308 0.46838 0.14661 0.0
C644 C 0.28504 0.40939 0.08635 0.0
C645 C 0.24875 0.44392 0.18477 0.0
C646 C 0.28416 0.35925 0.18486 0.0
C647 C 0.22656 0.38608 0.12423 0.0
O648 O 0.33707 0.40075 0.16213 0.0
O649 O 0.28904 0.46449 0.13333 0.0
O650 O 0.29129 0.38897 0.09677 0.0
O651 O 0.26886 0.43261 0.19145 0.0
O652 O 0.2809 0.35321 0.16365 0.0
O653 O 0.22833 0.41003 0.12696 0.0
O654 O 0.29167 0.38115 0.19121 0.0
O655 O 0.24342 0.44764 0.16353 0.0
O656 O 0.24545 0.37091 0.12503 0.0
O657 O 0.31438 0.45306 0.16268 0.0
O658 O 0.32634 0.37259 0.13476 0.0
O659 O 0.27334 0.42756 0.09636 0.0
Sc660 Sc 0.56886 0.30152 0.17573 0.0
Sc661 Sc 0.54925 0.26023 0.13101 0.0
Sc662 Sc 0.61154 0.28627 0.13086 0.0
O663 O 0.57658 0.28262 0.14585 0.0
C664 C 0.60069 0.34311 0.14777 0.0
C665 C 0.51674 0.30799 0.14758 0.0
C666 C 0.57523 0.28605 0.08655 0.0
C667 C 0.54158 0.2483 0.18479 0.0
C668 C 0.62642 0.28402 0.18452 0.0
C669 C 0.59898 0.22717 0.12353 0.0
O670 O 0.58417 0.33697 0.16295 0.0
O671 O 0.52068 0.28945 0.13383 0.0
O672 O 0.59563 0.29245 0.09692 0.0
O673 O 0.55321 0.26812 0.1917 0.0
O674 O 0.63214 0.28097 0.16321 0.0
O675 O 0.57507 0.22879 0.12668 0.0
O676 O 0.60456 0.29138 0.19122 0.0
O677 O 0.53751 0.24348 0.16351 0.0
O678 O 0.61407 0.24613 0.12427 0.0
O679 O 0.53204 0.31393 0.1638 0.0
O680 O 0.61226 0.32683 0.13529 0.0
O681 O 0.55729 0.27398 0.09653 0.0
Sc682 Sc 0.6987 0.61144 0.13112 0.0
Sc683 Sc 0.72529 0.54939 0.13111 0.0
Sc684 Sc 0.68348 0.56837 0.17572 0.0
O685 O 0.70256 0.57644 0.14598 0.0
C686 C 0.70079 0.62586 0.18496 0.0
C687 C 0.75792 0.59938 0.12377 0.0
C688 C 0.73679 0.54114 0.18487 0.0
C689 C 0.6995 0.57535 0.08664 0.0
C690 C 0.64183 0.60028 0.14788 0.0
C691 C 0.6775 0.51652 0.14716 0.0
O692 O 0.70371 0.63183 0.16368 0.0
O693 O 0.75657 0.57546 0.1269 0.0
O694 O 0.71676 0.55246 0.19174 0.0
O695 O 0.69284 0.59568 0.09701 0.0
O696 O 0.64802 0.58379 0.16304 0.0
O697 O 0.69628 0.5206 0.1337 0.0
O698 O 0.6581 0.61189 0.13542 0.0
O699 O 0.71163 0.55749 0.09667 0.0
O700 O 0.67118 0.53171 0.16337 0.0
O701 O 0.73882 0.6143 0.12454 0.0
O702 O 0.69362 0.6039 0.19151 0.0
O703 O 0.74197 0.53758 0.16358 0.0
H704 H 0.21759 0.12089 0.27085 0.0
H705 H 0.17627 0.19218 0.17986 0.0
H706 H 0.1824 0.17574 0.31646 0.0
H707 H 0.11826 0.2137 0.22925 0.0
H708 H 0.20486 0.18184 0.2122 0.0
H709 H 0.20845 0.14845 0.2379 0.0
C710 C 0.20875 0.13925 0.27398 0.0
C711 C 0.20056 0.14599 0.29635 0.0
C712 C 0.18599 0.18914 0.21596 0.0
C713 C 0.18967 0.17771 0.2586 0.0
C714 C 0.16981 0.19541 0.19749 0.0
C715 C 0.14467 0.20318 0.20193 0.0
C716 C 0.17681 0.1906 0.2389 0.0
C717 C 0.13733 0.20718 0.2251 0.0
C718 C 0.20363 0.15514 0.25513 0.0
C719 C 0.18907 0.16989 0.29948 0.0
N720 N 0.15316 0.20045 0.24271 0.0
N721 N 0.18327 0.18457 0.2807 0.0
H722 H 0.8609 0.21971 0.2731 0.0
H723 H 0.7636 0.12096 0.22896 0.0
H724 H 0.80734 0.18303 0.31903 0.0
H725 H 0.79849 0.17589 0.18323 0.0
H726 H 0.77295 0.1486 0.26197 0.0
H727 H 0.83299 0.21024 0.2403 0.0
C728 C 0.84281 0.21036 0.27634 0.0
C729 C 0.83651 0.20187 0.29872 0.0
C730 C 0.77792 0.15506 0.24469 0.0
C731 C 0.80487 0.19013 0.26117 0.0
C732 C 0.77253 0.13928 0.22582 0.0
C733 C 0.78056 0.14607 0.20342 0.0
C734 C 0.79217 0.17743 0.2412 0.0
C735 C 0.79203 0.16997 0.20026 0.0
C736 C 0.82687 0.2049 0.2576 0.0
C737 C 0.81289 0.18986 0.30201 0.0
N738 N 0.79814 0.18449 0.21904 0.0
N739 N 0.79823 0.1837 0.28333 0.0
H740 H 0.81 0.80198 0.17972 0.0
H741 H 0.80192 0.80812 0.31783 0.0
H742 H 0.86416 0.76738 0.2264 0.0
H743 H 0.76857 0.86325 0.27132 0.0
H744 H 0.81189 0.78091 0.28434 0.0
H745 H 0.78239 0.81165 0.21302 0.0
C746 C 0.81561 0.79554 0.19685 0.0
C747 C 0.83952 0.78423 0.20042 0.0
C748 C 0.80169 0.79861 0.28158 0.0
C749 C 0.80828 0.79535 0.23843 0.0
C750 C 0.79583 0.81404 0.30068 0.0
C751 C 0.78478 0.83809 0.29723 0.0
C752 C 0.7962 0.80729 0.25902 0.0
C753 C 0.77746 0.84496 0.27464 0.0
C754 C 0.79996 0.80124 0.21585 0.0
C755 C 0.84599 0.77647 0.223 0.0
N756 N 0.78363 0.82981 0.25634 0.0
N757 N 0.83064 0.7825 0.2412 0.0
H758 H 0.12264 0.76498 0.27035 0.0
H759 H 0.19214 0.80923 0.17906 0.0
H760 H 0.17577 0.803 0.31569 0.0
H761 H 0.21185 0.86784 0.22842 0.0
H762 H 0.18261 0.78037 0.21142 0.0
H763 H 0.14984 0.77503 0.23735 0.0
C764 C 0.14062 0.77461 0.27342 0.0
C765 C 0.14691 0.78334 0.29572 0.0
C766 C 0.18928 0.79945 0.21517 0.0
C767 C 0.17817 0.79532 0.2579 0.0
C768 C 0.19509 0.81581 0.19669 0.0
C769 C 0.20214 0.84116 0.20109 0.0
C770 C 0.19049 0.80866 0.23812 0.0
C771 C 0.20584 0.84862 0.22427 0.0
C772 C 0.15628 0.78029 0.25453 0.0
C773 C 0.17028 0.79588 0.29877 0.0
N774 N 0.19959 0.8326 0.24189 0.0
N775 N 0.18471 0.80218 0.27995 0.0
H776 H 0.80898 0.79853 0.81839 0.0
H777 H 0.79931 0.80691 0.68071 0.0
H778 H 0.86245 0.76481 0.77046 0.0
H779 H 0.76575 0.86061 0.72847 0.0
H780 H 0.80922 0.77875 0.71352 0.0
H781 H 0.78047 0.80799 0.78573 0.0
C782 C 0.81425 0.79222 0.80113 0.0
C783 C 0.83824 0.78128 0.797 0.0
C784 C 0.79895 0.79634 0.7167 0.0
C785 C 0.80598 0.79218 0.75971 0.0
C786 C 0.79311 0.8123 0.69797 0.0
C787 C 0.78209 0.83626 0.702 0.0
C788 C 0.79351 0.8044 0.73946 0.0
C789 C 0.77463 0.84242 0.72473 0.0
C790 C 0.79809 0.7978 0.78249 0.0
C791 C 0.84424 0.77365 0.77428 0.0
N792 N 0.78083 0.82679 0.74266 0.0
N793 N 0.82842 0.77961 0.75643 0.0
H794 H 0.17733 0.79992 0.6792 0.0
H795 H 0.18509 0.80942 0.81706 0.0
H796 H 0.12282 0.76711 0.72667 0.0
H797 H 0.21998 0.86245 0.76944 0.0
H798 H 0.17507 0.78134 0.78423 0.0
H799 H 0.20522 0.8098 0.71222 0.0
C800 C 0.17169 0.79391 0.69646 0.0
C801 C 0.14761 0.78306 0.70032 0.0
C802 C 0.18563 0.79876 0.78109 0.0
C803 C 0.17917 0.79443 0.73801 0.0
C804 C 0.19153 0.81467 0.79983 0.0
C805 C 0.203 0.83844 0.79585 0.0
C806 C 0.19145 0.80665 0.75836 0.0
C807 C 0.21076 0.84442 0.77316 0.0
C808 C 0.1875 0.79973 0.7153 0.0
C809 C 0.14112 0.77584 0.72304 0.0
N810 N 0.2045 0.82884 0.75521 0.0
N811 N 0.15662 0.78199 0.74108 0.0
H812 H 0.22104 0.12357 0.72641 0.0
H813 H 0.12054 0.21964 0.77002 0.0
H814 H 0.18348 0.17625 0.68027 0.0
H815 H 0.17564 0.18544 0.81599 0.0
H816 H 0.14846 0.21048 0.73713 0.0
H817 H 0.21101 0.15146 0.7591 0.0
C818 C 0.21138 0.14148 0.7231 0.0
C819 C 0.2028 0.14751 0.70069 0.0
C820 C 0.15488 0.2056 0.75444 0.0
C821 C 0.19042 0.17911 0.73811 0.0
C822 C 0.13892 0.21086 0.77323 0.0
C823 C 0.14568 0.20296 0.79567 0.0
C824 C 0.17741 0.19165 0.75803 0.0
C825 C 0.1697 0.19176 0.79893 0.0
C826 C 0.20559 0.1574 0.74178 0.0
C827 C 0.19039 0.17091 0.6973 0.0
N828 N 0.18442 0.18579 0.78021 0.0
N829 N 0.18392 0.18554 0.71593 0.0
H830 H 0.80007 0.1759 0.81939 0.0
H831 H 0.80802 0.18356 0.68146 0.0
H832 H 0.76639 0.12159 0.77233 0.0
H833 H 0.86179 0.21808 0.72853 0.0
H834 H 0.78018 0.17379 0.71457 0.0
H835 H 0.80962 0.20377 0.78626 0.0
C836 C 0.7938 0.17031 0.80221 0.0
C837 C 0.78281 0.14628 0.79848 0.0
C838 C 0.79771 0.18422 0.71753 0.0
C839 C 0.7938 0.17782 0.76065 0.0
C840 C 0.81348 0.18998 0.69863 0.0
C841 C 0.83737 0.20127 0.70238 0.0
C842 C 0.80588 0.19001 0.74018 0.0
C843 C 0.84365 0.209 0.725 0.0
C844 C 0.79943 0.18611 0.7833 0.0
C845 C 0.77524 0.13985 0.77585 0.0
N846 N 0.8282 0.20288 0.7431 0.0
N847 N 0.78122 0.15533 0.75774 0.0
H848 H 0.6235 0.7212 0.72756 0.0
H849 H 0.7188 0.62031 0.77124 0.0
H850 H 0.6762 0.68359 0.68142 0.0
H851 H 0.68559 0.67607 0.81717 0.0
H852 H 0.70978 0.64815 0.73828 0.0
H853 H 0.65134 0.71112 0.76026 0.0
C854 C 0.6414 0.71152 0.72425 0.0
C855 C 0.64745 0.70293 0.70184 0.0
C856 C 0.70509 0.65472 0.75559 0.0
C857 C 0.67898 0.69049 0.73927 0.0
C858 C 0.71027 0.63881 0.77442 0.0
C859 C 0.70262 0.64581 0.79688 0.0
C860 C 0.69145 0.67744 0.75917 0.0
C861 C 0.69172 0.66996 0.8001 0.0
C862 C 0.65729 0.7057 0.74293 0.0
C863 C 0.67084 0.6905 0.69845 0.0
N864 N 0.6858 0.68464 0.78136 0.0
N865 N 0.68543 0.684 0.71708 0.0
H866 H 0.30893 0.68555 0.81751 0.0
H867 H 0.30181 0.67662 0.67959 0.0
H868 H 0.36413 0.7178 0.77038 0.0
H869 H 0.26588 0.62395 0.72689 0.0
H870 H 0.31202 0.70447 0.71255 0.0
H871 H 0.2811 0.67614 0.78434 0.0
C872 C 0.31476 0.69152 0.8003 0.0
C873 C 0.339 0.70207 0.79658 0.0
C874 C 0.30119 0.68719 0.71559 0.0
C875 C 0.30749 0.69126 0.75871 0.0
C876 C 0.29517 0.67143 0.69677 0.0
C877 C 0.28334 0.64782 0.70064 0.0
C878 C 0.29513 0.6793 0.73827 0.0
C879 C 0.27536 0.64187 0.72327 0.0
C880 C 0.29898 0.68598 0.78137 0.0
C881 C 0.34571 0.70927 0.7739 0.0
N882 N 0.28174 0.6573 0.7413 0.0
N883 N 0.33023 0.70339 0.75578 0.0
H884 H 0.30903 0.3002 0.68117 0.0
H885 H 0.2998 0.30921 0.81904 0.0
H886 H 0.36354 0.26791 0.72888 0.0
H887 H 0.26569 0.36266 0.77139 0.0
H888 H 0.31033 0.28138 0.78614 0.0
H889 H 0.2809 0.30997 0.71408 0.0
C890 C 0.31464 0.29429 0.69846 0.0
C891 C 0.33878 0.28361 0.70241 0.0
C892 C 0.29982 0.29883 0.783 0.0
C893 C 0.3069 0.29482 0.73998 0.0
C894 C 0.29361 0.31459 0.80178 0.0
C895 C 0.28221 0.3384 0.79783 0.0
C896 C 0.29434 0.30691 0.76026 0.0
C897 C 0.27482 0.34458 0.77509 0.0
C898 C 0.29868 0.30005 0.71723 0.0
C899 C 0.34521 0.27651 0.72517 0.0
N900 N 0.28136 0.32913 0.75711 0.0
N901 N 0.32954 0.28258 0.74314 0.0
H902 H 0.72077 0.36342 0.72755 0.0
H903 H 0.62168 0.26649 0.77234 0.0
H904 H 0.68373 0.30964 0.68216 0.0
H905 H 0.67567 0.30299 0.8179 0.0
H906 H 0.64966 0.27537 0.73944 0.0
H907 H 0.71119 0.33589 0.7606 0.0
C908 C 0.71131 0.34536 0.72449 0.0
C909 C 0.70272 0.3389 0.70219 0.0
C910 C 0.65583 0.28083 0.75667 0.0
C911 C 0.69087 0.3077 0.74001 0.0
C912 C 0.63984 0.27573 0.77547 0.0
C913 C 0.64625 0.28436 0.79777 0.0
C914 C 0.67802 0.29535 0.7601 0.0
C915 C 0.67 0.29612 0.80095 0.0
C916 C 0.70578 0.32964 0.74337 0.0
C917 C 0.69061 0.31532 0.69911 0.0
N918 N 0.68474 0.30191 0.7822 0.0
N919 N 0.68439 0.30088 0.71792 0.0
H920 H 0.2658 0.36492 0.22873 0.0
H921 H 0.3616 0.26441 0.27266 0.0
H922 H 0.29987 0.30953 0.18293 0.0
H923 H 0.30895 0.30229 0.31868 0.0
H924 H 0.33375 0.27436 0.23994 0.0
H925 H 0.27486 0.33713 0.26172 0.0
C926 C 0.27452 0.3465 0.22558 0.0
C927 C 0.28241 0.33961 0.20316 0.0
C928 C 0.32781 0.27987 0.25724 0.0
C929 C 0.29363 0.30805 0.2409 0.0
C930 C 0.3437 0.27413 0.27594 0.0
C931 C 0.33767 0.28282 0.29832 0.0
C932 C 0.30612 0.2951 0.26086 0.0
C933 C 0.3143 0.29529 0.30167 0.0
C934 C 0.27973 0.33062 0.24443 0.0
C935 C 0.29355 0.31556 0.19998 0.0
N936 N 0.29969 0.30171 0.28302 0.0
N937 N 0.29948 0.30092 0.21874 0.0
H938 H 0.67634 0.29884 0.18129 0.0
H939 H 0.68512 0.30724 0.31914 0.0
H940 H 0.62153 0.26671 0.22887 0.0
H941 H 0.71945 0.36078 0.27167 0.0
H942 H 0.6748 0.27946 0.28617 0.0
H943 H 0.70452 0.30817 0.21423 0.0
C944 C 0.67068 0.29287 0.19855 0.0
C945 C 0.64645 0.28238 0.20248 0.0
C946 C 0.68532 0.29692 0.28309 0.0
C947 C 0.67837 0.29307 0.24006 0.0
C948 C 0.6914 0.31266 0.3019 0.0
C949 C 0.70278 0.33648 0.29801 0.0
C950 C 0.69091 0.30505 0.26038 0.0
C951 C 0.71031 0.3427 0.27531 0.0
C952 C 0.68666 0.29836 0.21734 0.0
C953 C 0.63994 0.27518 0.2252 0.0
N954 N 0.70389 0.32728 0.25729 0.0
N955 N 0.65563 0.281 0.24319 0.0
H956 H 0.71967 0.62066 0.22868 0.0
H957 H 0.62339 0.72065 0.27305 0.0
H958 H 0.68449 0.67539 0.18297 0.0
H959 H 0.67652 0.68307 0.31873 0.0
H960 H 0.6511 0.71085 0.24015 0.0
H961 H 0.71066 0.64854 0.26162 0.0
C962 C 0.71071 0.63896 0.22553 0.0
C963 C 0.70251 0.64563 0.20315 0.0
C964 C 0.65718 0.70538 0.25741 0.0
C965 C 0.69135 0.6773 0.24086 0.0
C966 C 0.64137 0.71106 0.27622 0.0
C967 C 0.64758 0.70239 0.29856 0.0
C968 C 0.67895 0.69024 0.26089 0.0
C969 C 0.67104 0.69005 0.30176 0.0
C970 C 0.70553 0.65489 0.24435 0.0
C971 C 0.69106 0.66954 0.19997 0.0
N972 N 0.68556 0.6837 0.28302 0.0
N973 N 0.68517 0.68422 0.21872 0.0
H974 H 0.3018 0.67627 0.31892 0.0
H975 H 0.30869 0.68633 0.18106 0.0
H976 H 0.26624 0.62369 0.27137 0.0
H977 H 0.36401 0.7181 0.22824 0.0
H978 H 0.28092 0.67665 0.21425 0.0
H979 H 0.31184 0.70441 0.28611 0.0
C980 C 0.29523 0.67113 0.30172 0.0
C981 C 0.28356 0.64747 0.29774 0.0
C982 C 0.29879 0.68646 0.21723 0.0
C983 C 0.29511 0.67932 0.26027 0.0
C984 C 0.31454 0.69217 0.19829 0.0
C985 C 0.33879 0.70265 0.20202 0.0
C986 C 0.30737 0.69152 0.2399 0.0
C987 C 0.34556 0.70966 0.22471 0.0
C988 C 0.30114 0.68708 0.28299 0.0
C989 C 0.27563 0.64163 0.27508 0.0
N990 N 0.33012 0.70362 0.24284 0.0
N991 N 0.28189 0.65725 0.25714 0.0
H992 H 0.18062 0.39601 0.14509 0.0
H993 H 0.12317 0.27251 0.08528 0.0
H994 H 0.21627 0.35125 0.0913 0.0
H995 H 0.09372 0.3038 0.14908 0.0
H996 H 0.14831 0.31109 0.07946 0.0
H997 H 0.14098 0.37154 0.13952 0.0
C998 C 0.17984 0.38142 0.1318 0.0
C999 C 0.20164 0.37503 0.11897 0.0
C1000 C 0.13605 0.30981 0.09456 0.0
C1001 C 0.15691 0.3476 0.11232 0.0
C1002 C 0.12176 0.28785 0.09784 0.0
C1003 C 0.10698 0.28509 0.11787 0.0
C1004 C 0.13616 0.32867 0.11187 0.0
C1005 C 0.10527 0.3054 0.13354 0.0
C1006 C 0.15735 0.36753 0.12863 0.0
C1007 C 0.19991 0.35622 0.10187 0.0
N1008 N 0.12031 0.32626 0.13053 0.0
N1009 N 0.17799 0.34301 0.09918 0.0
H1010 H 0.5888 0.18103 0.14383 0.0
H1011 H 0.71424 0.12514 0.08627 0.0
H1012 H 0.63424 0.21722 0.0908 0.0
H1013 H 0.6809 0.09436 0.14869 0.0
H1014 H 0.67566 0.15002 0.07966 0.0
H1015 H 0.61352 0.14155 0.13832 0.0
C1016 C 0.6036 0.1804 0.1307 0.0
C1017 C 0.6101 0.20232 0.11811 0.0
C1018 C 0.6765 0.13754 0.09463 0.0
C1019 C 0.63787 0.15777 0.11155 0.0
C1020 C 0.69847 0.12341 0.09836 0.0
C1021 C 0.70065 0.10833 0.11826 0.0
C1022 C 0.65702 0.1372 0.11137 0.0
C1023 C 0.67978 0.10617 0.13329 0.0
C1024 C 0.61763 0.158 0.12757 0.0
C1025 C 0.62917 0.20077 0.10121 0.0
N1026 N 0.65889 0.12107 0.12987 0.0
N1027 N 0.64255 0.17894 0.09857 0.0
H1028 H 0.76754 0.62912 0.08687 0.0
H1029 H 0.89548 0.68208 0.14183 0.0
H1030 H 0.80352 0.59503 0.14655 0.0
H1031 H 0.85049 0.71897 0.08894 0.0
H1032 H 0.86978 0.64319 0.13677 0.0
H1033 H 0.80585 0.65418 0.07985 0.0
C1034 C 0.78378 0.62678 0.09832 0.0
C1035 C 0.78244 0.61063 0.11757 0.0
C1036 C 0.86596 0.65964 0.12595 0.0
C1037 C 0.82592 0.63967 0.1102 0.0
C1038 C 0.88058 0.68171 0.12882 0.0
C1039 C 0.8745 0.70369 0.11615 0.0
C1040 C 0.84553 0.65981 0.11015 0.0
C1041 C 0.85526 0.70248 0.09941 0.0
C1042 C 0.80563 0.64101 0.09433 0.0
C1043 C 0.80396 0.60767 0.13169 0.0
N1044 N 0.84129 0.68099 0.09706 0.0
N1045 N 0.82477 0.62264 0.12808 0.0
H1046 H 0.3045 0.89598 0.14416 0.0
H1047 H 0.35858 0.77025 0.08612 0.0
H1048 H 0.26965 0.85411 0.08812 0.0
H1049 H 0.39078 0.80346 0.14795 0.0
H1050 H 0.33431 0.80917 0.07955 0.0
H1051 H 0.34353 0.87039 0.1392 0.0
C1052 C 0.30539 0.88183 0.13047 0.0
C1053 C 0.28392 0.87652 0.11684 0.0
C1054 C 0.34691 0.80822 0.09442 0.0
C1055 C 0.32792 0.84769 0.11099 0.0
C1056 C 0.36069 0.78602 0.09814 0.0
C1057 C 0.37606 0.78373 0.11782 0.0
C1058 C 0.34787 0.82786 0.11097 0.0
C1059 C 0.37873 0.80465 0.13272 0.0
C1060 C 0.32752 0.86728 0.12766 0.0
C1061 C 0.28575 0.85824 0.09928 0.0
N1062 N 0.36417 0.82578 0.12932 0.0
N1063 N 0.30728 0.84429 0.09702 0.0
H1064 H 0.12905 0.71832 0.41199 0.0
H1065 H 0.18193 0.58971 0.35824 0.0
H1066 H 0.09523 0.6817 0.35253 0.0
H1067 H 0.22013 0.63695 0.40869 0.0
H1068 H 0.14292 0.61511 0.36377 0.0
H1069 H 0.15417 0.68012 0.41938 0.0
C1070 C 0.12676 0.70195 0.4007 0.0
C1071 C 0.11072 0.70308 0.38136 0.0
C1072 C 0.15971 0.61949 0.37396 0.0
C1073 C 0.1398 0.65977 0.38915 0.0
C1074 C 0.18185 0.60507 0.37082 0.0
C1075 C 0.20421 0.61185 0.38262 0.0
C1076 C 0.16017 0.64042 0.38918 0.0
C1077 C 0.20335 0.63165 0.39884 0.0
C1078 C 0.14102 0.68017 0.40489 0.0
C1079 C 0.10781 0.68142 0.36743 0.0
N1080 N 0.18175 0.6454 0.40148 0.0
N1081 N 0.12281 0.66069 0.37124 0.0
H1082 H 0.39438 0.18113 0.35699 0.0
H1083 H 0.26552 0.13142 0.41185 0.0
H1084 H 0.35107 0.21858 0.41076 0.0
H1085 H 0.30253 0.09454 0.35405 0.0
H1086 H 0.30417 0.15577 0.41918 0.0
H1087 H 0.36845 0.14252 0.3627 0.0
C1088 C 0.37982 0.18092 0.37035 0.0
C1089 C 0.37419 0.203 0.38304 0.0
C1090 C 0.3041 0.14216 0.40503 0.0
C1091 C 0.34492 0.15949 0.38972 0.0
C1092 C 0.28202 0.12838 0.40085 0.0
C1093 C 0.28091 0.11165 0.38201 0.0
C1094 C 0.32485 0.13982 0.38973 0.0
C1095 C 0.30279 0.1077 0.36854 0.0
C1096 C 0.36507 0.15901 0.37359 0.0
C1097 C 0.35542 0.20201 0.40025 0.0
N1098 N 0.32383 0.12227 0.37228 0.0
N1099 N 0.34126 0.18069 0.40291 0.0
H1100 H 0.857 0.26765 0.41501 0.0
H1101 H 0.80454 0.39382 0.35694 0.0
H1102 H 0.89067 0.30163 0.35414 0.0
H1103 H 0.76736 0.35012 0.41061 0.0
H1104 H 0.84367 0.36879 0.3632 0.0
H1105 H 0.83279 0.30661 0.42169 0.0
C1106 C 0.85947 0.28361 0.40326 0.0
C1107 C 0.87517 0.28153 0.38375 0.0
C1108 C 0.8271 0.36514 0.37394 0.0
C1109 C 0.84707 0.32565 0.39068 0.0
C1110 C 0.80489 0.37935 0.37037 0.0
C1111 C 0.78278 0.37335 0.38289 0.0
C1112 C 0.82692 0.34522 0.39027 0.0
C1113 C 0.78397 0.35474 0.40022 0.0
C1114 C 0.84573 0.30582 0.40704 0.0
C1115 C 0.87833 0.30266 0.3692 0.0
N1116 N 0.8056 0.34114 0.40323 0.0
N1117 N 0.86378 0.32379 0.3726 0.0
H1118 H 0.62641 0.76662 0.41556 0.0
H1119 H 0.68029 0.89302 0.35827 0.0
H1120 H 0.59332 0.80112 0.3547 0.0
H1121 H 0.719 0.84543 0.40816 0.0
H1122 H 0.64096 0.86839 0.36489 0.0
H1123 H 0.65162 0.80502 0.42193 0.0
C1124 C 0.62422 0.78261 0.40379 0.0
C1125 C 0.60844 0.78081 0.38433 0.0
C1126 C 0.65797 0.86376 0.37469 0.0
C1127 C 0.63766 0.82419 0.39091 0.0
C1128 C 0.6803 0.8777 0.3709 0.0
C1129 C 0.70284 0.8706 0.38226 0.0
C1130 C 0.65843 0.84305 0.39017 0.0
C1131 C 0.70207 0.85093 0.39861 0.0
C1132 C 0.63855 0.80447 0.40739 0.0
C1133 C 0.6057 0.80195 0.36973 0.0
N1134 N 0.68027 0.83769 0.40193 0.0
N1135 N 0.62079 0.82272 0.37296 0.0
H1136 H 0.76905 0.63041 0.91241 0.0
H1137 H 0.8961 0.68099 0.85463 0.0
H1138 H 0.8041 0.59439 0.85316 0.0
H1139 H 0.85468 0.71758 0.91008 0.0
H1140 H 0.87031 0.6423 0.86053 0.0
H1141 H 0.80795 0.65467 0.91894 0.0
C1142 C 0.7852 0.62751 0.90093 0.0
C1143 C 0.78344 0.61104 0.88195 0.0
C1144 C 0.86733 0.65861 0.87175 0.0
C1145 C 0.82763 0.63915 0.88875 0.0
C1146 C 0.88202 0.68055 0.8684 0.0
C1147 C 0.87686 0.70242 0.88155 0.0
C1148 C 0.84773 0.65883 0.88843 0.0
C1149 C 0.85868 0.70116 0.89926 0.0
C1150 C 0.80741 0.64126 0.90465 0.0
C1151 C 0.80486 0.60732 0.86781 0.0
N1152 N 0.84456 0.67982 0.90201 0.0
N1153 N 0.82602 0.62186 0.87113 0.0
H1154 H 0.39478 0.80422 0.85616 0.0
H1155 H 0.26654 0.85545 0.91159 0.0
H1156 H 0.35037 0.7666 0.90908 0.0
H1157 H 0.30338 0.8916 0.85332 0.0
H1158 H 0.30494 0.83054 0.91859 0.0
H1159 H 0.36919 0.84307 0.86201 0.0
C1160 C 0.38003 0.80442 0.86934 0.0
C1161 C 0.37403 0.78225 0.88177 0.0
C1162 C 0.30489 0.84413 0.90442 0.0
C1163 C 0.3452 0.82605 0.88866 0.0
C1164 C 0.28298 0.85825 0.90045 0.0
C1165 C 0.28186 0.87493 0.88156 0.0
C1166 C 0.32546 0.84609 0.88888 0.0
C1167 C 0.30364 0.87851 0.86786 0.0
C1168 C 0.36548 0.82646 0.87267 0.0
C1169 C 0.35503 0.78324 0.89877 0.0
N1170 N 0.3245 0.86362 0.87142 0.0
N1171 N 0.3411 0.8047 0.90154 0.0
H1172 H 0.08992 0.30476 0.85559 0.0
H1173 H 0.21595 0.35806 0.91371 0.0
H1174 H 0.1346 0.26729 0.90837 0.0
H1175 H 0.18176 0.39176 0.853 0.0
H1176 H 0.17737 0.33313 0.91999 0.0
H1177 H 0.11492 0.34392 0.86182 0.0
C1178 C 0.10462 0.30504 0.86881 0.0
C1179 C 0.11085 0.28286 0.88111 0.0
C1180 C 0.17803 0.34623 0.90546 0.0
C1181 C 0.13893 0.32703 0.88847 0.0
C1182 C 0.20002 0.36038 0.90191 0.0
C1183 C 0.20196 0.37632 0.88256 0.0
C1184 C 0.15826 0.34741 0.88904 0.0
C1185 C 0.18085 0.37927 0.86794 0.0
C1186 C 0.11881 0.32727 0.87235 0.0
C1187 C 0.12977 0.28395 0.89816 0.0
N1188 N 0.15993 0.36434 0.87113 0.0
N1189 N 0.14331 0.30561 0.90118 0.0
H1190 H 0.59054 0.18162 0.85663 0.0
H1191 H 0.71732 0.12876 0.91405 0.0
H1192 H 0.63557 0.21945 0.90894 0.0
H1193 H 0.68228 0.09411 0.85418 0.0
H1194 H 0.679 0.15411 0.9202 0.0
H1195 H 0.6159 0.14262 0.86268 0.0
C1196 C 0.6054 0.18146 0.8697 0.0
C1197 C 0.61159 0.2037 0.88193 0.0
C1198 C 0.67942 0.14074 0.90588 0.0
C1199 C 0.64008 0.15971 0.88908 0.0
C1200 C 0.70127 0.12633 0.9024 0.0
C1201 C 0.70289 0.10996 0.88333 0.0
C1202 C 0.65946 0.13935 0.88967 0.0
C1203 C 0.68161 0.10692 0.86892 0.0
C1204 C 0.61979 0.15933 0.87314 0.0
C1205 C 0.63074 0.20275 0.89878 0.0
N1206 N 0.66083 0.12206 0.87203 0.0
N1207 N 0.64446 0.18119 0.9017 0.0
H1208 H 0.8046 0.39418 0.64267 0.0
H1209 H 0.85457 0.26578 0.58679 0.0
H1210 H 0.76653 0.35046 0.58961 0.0
H1211 H 0.89116 0.30203 0.64508 0.0
H1212 H 0.83002 0.30443 0.57992 0.0
H1213 H 0.84321 0.36827 0.63667 0.0
C1214 C 0.80465 0.37951 0.62943 0.0
C1215 C 0.78241 0.3738 0.61701 0.0
C1216 C 0.84363 0.3042 0.59406 0.0
C1217 C 0.82595 0.3446 0.60996 0.0
C1218 C 0.85756 0.28214 0.59796 0.0
C1219 C 0.87426 0.2808 0.61681 0.0
C1220 C 0.84581 0.32468 0.60965 0.0
C1221 C 0.87806 0.30247 0.63055 0.0
C1222 C 0.82656 0.36479 0.62601 0.0
C1223 C 0.78322 0.3549 0.59992 0.0
N1224 N 0.86336 0.32349 0.62707 0.0
N1225 N 0.80455 0.34078 0.59708 0.0
H1226 H 0.71744 0.85582 0.58625 0.0
H1227 H 0.58994 0.80408 0.64256 0.0
H1228 H 0.68185 0.89058 0.64584 0.0
H1229 H 0.63405 0.76678 0.58924 0.0
H1230 H 0.61531 0.84304 0.63662 0.0
H1231 H 0.67873 0.83139 0.57922 0.0
C1232 C 0.70121 0.85845 0.59767 0.0
C1233 C 0.70277 0.87455 0.61693 0.0
C1234 C 0.61898 0.82648 0.62588 0.0
C1235 C 0.65885 0.84624 0.60957 0.0
C1236 C 0.60457 0.80438 0.62926 0.0
C1237 C 0.61057 0.78226 0.61675 0.0
C1238 C 0.63914 0.8262 0.60977 0.0
C1239 C 0.6294 0.78338 0.59961 0.0
C1240 C 0.67912 0.84459 0.59368 0.0
C1241 C 0.68125 0.87793 0.63099 0.0
N1242 N 0.64322 0.80491 0.59679 0.0
N1243 N 0.66023 0.86328 0.6274 0.0
H1244 H 0.13094 0.71777 0.58468 0.0
H1245 H 0.18152 0.59031 0.6417 0.0
H1246 H 0.09459 0.68198 0.64339 0.0
H1247 H 0.2194 0.63367 0.58822 0.0
H1248 H 0.14272 0.61583 0.63539 0.0
H1249 H 0.15556 0.67911 0.57803 0.0
C1250 C 0.12802 0.70151 0.59599 0.0
C1251 C 0.11138 0.70299 0.61489 0.0
C1252 C 0.15937 0.61931 0.62471 0.0
C1253 C 0.13991 0.65911 0.60799 0.0
C1254 C 0.18139 0.60481 0.6283 0.0
C1255 C 0.20362 0.61056 0.61585 0.0
C1256 C 0.15987 0.63931 0.60845 0.0
C1257 C 0.20271 0.62923 0.59855 0.0
C1258 C 0.14199 0.67944 0.59222 0.0
C1259 C 0.10765 0.68143 0.62882 0.0
N1260 N 0.18127 0.64313 0.59554 0.0
N1261 N 0.1224 0.66043 0.62547 0.0
H1262 H 0.39487 0.18111 0.64258 0.0
H1263 H 0.26765 0.13006 0.58522 0.0
H1264 H 0.35087 0.21927 0.58974 0.0
H1265 H 0.3033 0.09389 0.64405 0.0
H1266 H 0.3062 0.15497 0.57882 0.0
H1267 H 0.36947 0.14226 0.63613 0.0
C1268 C 0.38024 0.18104 0.6293 0.0
C1269 C 0.3743 0.20334 0.61706 0.0
C1270 C 0.30586 0.14136 0.59297 0.0
C1271 C 0.34572 0.15954 0.60948 0.0
C1272 C 0.28387 0.12722 0.5966 0.0
C1273 C 0.28237 0.11056 0.61547 0.0
C1274 C 0.32609 0.13942 0.60886 0.0
C1275 C 0.30386 0.10696 0.62949 0.0
C1276 C 0.36582 0.15899 0.62563 0.0
C1277 C 0.35547 0.20252 0.59992 0.0
N1278 N 0.32479 0.12186 0.62628 0.0
N1279 N 0.34167 0.18105 0.59681 0.0
H1280 H 0.13481 0.98492 0.16804 0.0
H1281 H 0.13452 0.12446 0.11291 0.0
H1282 H 0.18579 0.0091 0.11329 0.0
H1283 H 0.08523 0.10133 0.16929 0.0
H1284 H 0.15 0.08084 0.10981 0.0
H1285 H 0.11307 0.0259 0.16568 0.0
C1286 C 0.14137 -0.00124 0.1554 0.0
C1287 C 0.16242 -0.00637 0.14103 0.0
C1288 C 0.13567 0.08525 0.12276 0.0
C1289 C 0.13755 0.04066 0.13832 0.0
C1290 C 0.1268 0.1102 0.12457 0.0
C1291 C 0.10876 0.1167 0.14161 0.0
C1292 C 0.12653 0.06662 0.13813 0.0
C1293 C 0.0993 0.09728 0.15602 0.0
C1294 C 0.1289 0.02217 0.15408 0.0
C1295 C 0.16982 0.01225 0.12486 0.0
N1296 N 0.10847 0.07315 0.15408 0.0
N1297 N 0.15752 0.03501 0.12408 0.0
H1298 H 0.0004 0.13548 0.17101 0.0
H1299 H 0.86153 0.13392 0.11455 0.0
H1300 H 0.97707 0.18431 0.1144 0.0
H1301 H 0.8833 0.08718 0.17308 0.0
H1302 H 0.90534 0.14877 0.11135 0.0
H1303 H 0.95929 0.11388 0.16902 0.0
C1304 C 0.98674 0.14157 0.15803 0.0
C1305 C 0.99212 0.16201 0.14304 0.0
C1306 C 0.90059 0.13515 0.12481 0.0
C1307 C 0.94498 0.13733 0.14076 0.0
C1308 C 0.87553 0.12665 0.12668 0.0
C1309 C 0.8686 0.10951 0.14433 0.0
C1310 C 0.91891 0.12656 0.14074 0.0
C1311 C 0.8877 0.10056 0.15933 0.0
C1312 C 0.96326 0.12919 0.15693 0.0
C1313 C 0.97372 0.16884 0.12647 0.0
N1314 N 0.91197 0.10937 0.15732 0.0
N1315 N 0.9509 0.15666 0.12591 0.0
H1316 H 0.85617 0.86592 0.11128 0.0
H1317 H 0.84858 0.00115 0.17431 0.0
H1318 H 0.89881 0.88473 0.17314 0.0
H1319 H 0.80312 0.97999 0.11478 0.0
H1320 H 0.87125 0.96066 0.1713 0.0
H1321 H 0.84094 0.90968 0.10942 0.0
C1322 C 0.86249 0.87928 0.12441 0.0
C1323 C 0.87851 0.8715 0.14261 0.0
C1324 C 0.85643 0.96498 0.15881 0.0
C1325 C 0.86099 0.92173 0.14059 0.0
C1326 C 0.84345 0.9881 0.1605 0.0
C1327 C 0.82365 -0.00612 0.14494 0.0
C1328 C 0.84958 0.9475 0.14145 0.0
C1329 C 0.81803 0.97628 0.12732 0.0
C1330 C 0.85377 0.90431 0.12331 0.0
C1331 C 0.88632 0.88981 0.15891 0.0
N1332 N 0.83081 0.95382 0.12617 0.0
N1333 N 0.87725 0.91404 0.15765 0.0
H1334 H 0.12264 0.85299 0.11169 0.0
H1335 H 0.9847 0.8501 0.17012 0.0
H1336 H 0.10091 0.90044 0.16978 0.0
H1337 H 0.00786 0.80086 0.11374 0.0
H1338 H 0.02547 0.8722 0.16737 0.0
H1339 H 0.07902 0.83741 0.10927 0.0
C1340 C 0.10868 0.86029 0.12387 0.0
C1341 C 0.11558 0.87781 0.1412 0.0
C1342 C 0.02156 0.85667 0.1555 0.0
C1343 C 0.06552 0.8599 0.13852 0.0
C1344 C -0.00173 0.84399 0.15706 0.0
C1345 C -0.00708 0.82334 0.14232 0.0
C1346 C 0.03967 0.84864 0.13912 0.0
C1347 C 0.01119 0.8165 0.12562 0.0
C1348 C 0.08373 0.85136 0.12245 0.0
C1349 C 0.09653 0.88678 0.15627 0.0
N1350 N 0.03383 0.829 0.1246 0.0
N1351 N 0.0724 0.87753 0.15472 0.0
H1352 H 0.18558 0.97923 0.38458 0.0
H1353 H 0.12008 0.86566 0.39016 0.0
H1354 H 0.13614 -0.00107 0.32731 0.0
H1355 H 0.0966 0.88276 0.32003 0.0
H1356 H 0.13511 0.90918 0.39445 0.0
H1357 H 0.16456 0.93832 0.38752 0.0
C1358 C 0.16998 0.97512 0.37284 0.0
C1359 C 0.16274 -0.00743 0.35559 0.0
C1360 C 0.12711 0.90346 0.37796 0.0
C1361 C 0.13779 0.94567 0.35931 0.0
C1362 C 0.11825 0.8786 0.37559 0.0
C1363 C 0.10758 0.87046 0.35453 0.0
C1364 C 0.12581 0.92018 0.35894 0.0
C1365 C 0.10497 0.88821 0.33648 0.0
C1366 C 0.15768 0.95171 0.37471 0.0
C1367 C 0.14244 0.98605 0.34084 0.0
N1368 N 0.11432 0.9122 0.33901 0.0
N1369 N 0.13083 0.96301 0.34291 0.0
H1370 H 0.9824 0.13455 0.32551 0.0
H1371 H 0.119 0.12936 0.38615 0.0
H1372 H 0.00365 0.17943 0.38538 0.0
H1373 H 0.09964 0.08603 0.32484 0.0
H1374 H 0.07498 0.14367 0.38884 0.0
H1375 H 0.02336 0.11256 0.32771 0.0
C1376 C -0.00444 0.13967 0.33923 0.0
C1377 C 0.98968 0.15915 0.3551 0.0
C1378 C 0.08028 0.13089 0.37488 0.0
C1379 C 0.03657 0.13404 0.35766 0.0
C1380 C 0.10546 0.12272 0.3733 0.0
C1381 C 0.11314 0.10675 0.35502 0.0
C1382 C 0.0626 0.1232 0.358 0.0
C1383 C 0.09463 0.09849 0.33911 0.0
C1384 C 0.01894 0.12709 0.34046 0.0
C1385 C 0.00743 0.16478 0.3726 0.0
N1386 N 0.07024 0.10704 0.34083 0.0
N1387 N 0.03014 0.15242 0.37328 0.0
H1388 H 0.79599 0.00482 0.38606 0.0
H1389 H 0.8603 0.11923 0.39221 0.0
H1390 H 0.84752 0.98514 0.33027 0.0
H1391 H 0.88692 0.10114 0.32319 0.0
H1392 H 0.84503 0.07579 0.39645 0.0
H1393 H 0.81645 0.046 0.3892 0.0
C1394 C 0.81193 0.00899 0.3747 0.0
C1395 C 0.81993 0.99147 0.35779 0.0
C1396 C 0.85377 0.08128 0.3802 0.0
C1397 C 0.84421 0.03868 0.36175 0.0
C1398 C 0.86275 0.1061 0.37786 0.0
C1399 C 0.87442 0.11394 0.35712 0.0
C1400 C 0.85599 0.06427 0.36146 0.0
C1401 C 0.87779 0.09595 0.33938 0.0
C1402 C 0.82389 0.03257 0.37669 0.0
C1403 C 0.84063 -0.00193 0.34351 0.0
N1404 N 0.86834 0.07199 0.34187 0.0
N1405 N 0.85191 0.02125 0.34569 0.0
H1406 H 0.8651 0.85382 0.38697 0.0
H1407 H 0.00088 0.84897 0.32457 0.0
H1408 H 0.88425 0.89867 0.32646 0.0
H1409 H 0.97964 0.80186 0.38305 0.0
H1410 H 0.96021 0.87128 0.32786 0.0
H1411 H 0.90897 0.83884 0.38875 0.0
C1412 C 0.87857 0.86068 0.37413 0.0
C1413 C 0.87086 0.87725 0.35631 0.0
C1414 C 0.96455 0.85618 0.34006 0.0
C1415 C 0.92118 0.86001 0.35822 0.0
C1416 C 0.98777 0.84339 0.3382 0.0
C1417 C -0.00641 0.82325 0.35338 0.0
C1418 C 0.94702 0.84877 0.35721 0.0
C1419 C 0.9759 0.81705 0.37079 0.0
C1420 C 0.90365 0.85211 0.37518 0.0
C1421 C 0.88928 0.88575 0.34039 0.0
N1422 N 0.95335 0.82964 0.37211 0.0
N1423 N 0.91355 0.8768 0.34157 0.0
H1424 H 0.80241 0.97905 0.88589 0.0
H1425 H 0.89914 0.88344 0.82341 0.0
H1426 H 0.84677 -0.00111 0.82524 0.0
H1427 H 0.85365 0.86394 0.88346 0.0
H1428 H 0.8837 0.92728 0.8262 0.0
H1429 H 0.82449 0.93822 0.8876 0.0
C1430 C 0.81688 0.97491 0.87299 0.0
C1431 C 0.8225 0.99235 0.85522 0.0
C1432 C 0.87727 0.91342 0.83885 0.0
C1433 C 0.84783 0.94554 0.85706 0.0
C1434 C 0.88609 0.88838 0.83729 0.0
C1435 C 0.87743 0.86986 0.85303 0.0
C1436 C 0.85966 0.91995 0.85626 0.0
C1437 C 0.86063 0.87746 0.87074 0.0
C1438 C 0.82951 0.95157 0.874 0.0
C1439 C 0.84164 0.98598 0.83914 0.0
N1440 N 0.85216 0.90186 0.87176 0.0
N1441 N 0.85347 0.96299 0.84034 0.0
H1442 H 0.97945 0.85415 0.82832 0.0
H1443 H 0.10301 0.90086 0.82023 0.0
H1444 H 0.01194 0.79774 0.87427 0.0
H1445 H 0.11889 0.85512 0.88092 0.0
H1446 H 0.05926 0.88591 0.82087 0.0
H1447 H 0.01925 0.87775 0.82956 0.0
C1448 C -0.00495 0.84662 0.83856 0.0
C1449 C 0.99245 0.82367 0.8509 0.0
C1450 C 0.07196 0.87956 0.83445 0.0
C1451 C 0.03863 0.85028 0.85185 0.0
C1452 C 0.09716 0.88802 0.83397 0.0
C1453 C 0.11476 0.87912 0.85044 0.0
C1454 C 0.06422 0.86216 0.85166 0.0
C1455 C 0.10607 0.86237 0.86775 0.0
C1456 C 0.01797 0.86006 0.83911 0.0
C1457 C 0.01312 0.8152 0.8643 0.0
N1458 N 0.08149 0.8543 0.86777 0.0
N1459 N 0.03538 0.82842 0.86426 0.0
H1460 H 0.13067 0.12093 0.8847 0.0
H1461 H 0.13901 0.98584 0.82146 0.0
H1462 H 0.08765 0.10187 0.82313 0.0
H1463 H 0.18341 0.00663 0.88176 0.0
H1464 H 0.11656 0.02648 0.82412 0.0
H1465 H 0.14639 0.07734 0.88631 0.0
C1466 C 0.12437 0.10754 0.87158 0.0
C1467 C 0.10807 0.1152 0.85355 0.0
C1468 C 0.13111 0.02206 0.83684 0.0
C1469 C 0.12617 0.06517 0.85527 0.0
C1470 C 0.14397 -0.00114 0.83534 0.0
C1471 C 0.16337 -0.00711 0.85126 0.0
C1472 C 0.13768 0.03944 0.85437 0.0
C1473 C 0.16879 0.01047 0.86896 0.0
C1474 C 0.13337 0.08261 0.87253 0.0
C1475 C 0.10033 0.09687 0.83724 0.0
N1476 N 0.15613 0.033 0.86993 0.0
N1477 N 0.10967 0.07274 0.83836 0.0
H1478 H 0.88414 0.08469 0.8262 0.0
H1479 H 0.97986 0.1836 0.88549 0.0
H1480 H 0.86484 0.13203 0.88508 0.0
H1481 H -0.00087 0.13815 0.82539 0.0
H1482 H 0.93921 0.16129 0.88813 0.0
H1483 H 0.92794 0.10036 0.82829 0.0
C1484 C 0.88912 0.09818 0.8397 0.0
C1485 C 0.87065 0.1073 0.85529 0.0
C1486 C 0.9524 0.15609 0.87445 0.0
C1487 C 0.92072 0.12535 0.8577 0.0
C1488 C 0.97564 0.16885 0.87291 0.0
C1489 C -0.00714 0.16298 0.85502 0.0
C1490 C 0.94624 0.13737 0.85794 0.0
C1491 C 0.98638 0.14349 0.83936 0.0
C1492 C 0.91414 0.10714 0.84085 0.0
C1493 C 0.8783 0.12467 0.87249 0.0
N1494 N 0.96349 0.13152 0.84108 0.0
N1495 N 0.90269 0.13327 0.87311 0.0
H1496 H 0.84741 0.98344 0.67672 0.0
H1497 H 0.85499 0.1189 0.61407 0.0
H1498 H 0.80355 0.00411 0.61605 0.0
H1499 H 0.89692 0.10026 0.67637 0.0
H1500 H 0.84005 0.07507 0.61201 0.0
H1501 H 0.86955 0.02428 0.67438 0.0
C1502 C 0.84253 -0.00355 0.66281 0.0
C1503 C 0.82334 0.99042 0.64672 0.0
C1504 C 0.85266 0.08049 0.62606 0.0
C1505 C 0.84865 0.03719 0.64399 0.0
C1506 C 0.8612 0.10556 0.62727 0.0
C1507 C 0.87697 0.1134 0.64562 0.0
C1508 C 0.85978 0.06308 0.64338 0.0
C1509 C 0.88464 0.09513 0.66201 0.0
C1510 C 0.85521 0.01978 0.6615 0.0
C1511 C 0.818 0.008 0.629 0.0
N1512 N 0.87575 0.07085 0.66063 0.0
N1513 N 0.83046 0.03064 0.62822 0.0
H1514 H 0.88391 0.89806 0.67481 0.0
H1515 H 0.98048 0.80202 0.61262 0.0
H1516 H 0.86449 0.85122 0.61568 0.0
H1517 H -0.00022 0.84641 0.67333 0.0
H1518 H 0.93938 0.82359 0.61097 0.0
H1519 H 0.92792 0.88307 0.67198 0.0
C1520 C 0.8889 0.8848 0.66112 0.0
C1521 C 0.87036 0.87565 0.64564 0.0
C1522 C 0.95267 0.82874 0.62457 0.0
C1523 C 0.92066 0.85841 0.64236 0.0
C1524 C 0.97617 0.8164 0.62554 0.0
C1525 C -0.00646 0.82217 0.64332 0.0
C1526 C 0.9464 0.84692 0.64153 0.0
C1527 C 0.98693 0.84117 0.65943 0.0
C1528 C 0.91404 0.87624 0.65954 0.0
C1529 C 0.87802 0.85859 0.62818 0.0
N1530 N 0.96379 0.85272 0.65826 0.0
N1531 N 0.90252 0.8504 0.62713 0.0
H1532 H 0.13146 0.86484 0.6121 0.0
H1533 H 0.138 0.00047 0.67455 0.0
H1534 H 0.08796 0.88388 0.67346 0.0
H1535 H 0.18321 0.97954 0.61472 0.0
H1536 H 0.11589 0.95965 0.67197 0.0
H1537 H 0.14672 0.90859 0.61027 0.0
C1538 C 0.12497 0.87825 0.62513 0.0
C1539 C 0.10866 0.87055 0.64317 0.0
C1540 C 0.13053 0.96408 0.65933 0.0
C1541 C 0.12622 0.92076 0.64119 0.0
C1542 C 0.1432 0.98739 0.66078 0.0
C1543 C 0.16274 -0.00663 0.64498 0.0
C1544 C 0.13745 0.94661 0.64197 0.0
C1545 C 0.16848 0.97571 0.62743 0.0
C1546 C 0.1337 0.90327 0.62406 0.0
C1547 C 0.10065 0.8889 0.65935 0.0
N1548 N 0.156 0.95307 0.6265 0.0
N1549 N 0.10973 0.91313 0.65811 0.0
H1550 H 0.12026 0.13043 0.61306 0.0
H1551 H 0.98482 0.13688 0.67613 0.0
H1552 H 0.10186 0.08772 0.67502 0.0
H1553 H 0.00527 0.1817 0.61595 0.0
H1554 H 0.02581 0.11501 0.67355 0.0
H1555 H 0.07641 0.14545 0.61136 0.0
C1556 C 0.10697 0.12407 0.62626 0.0
C1557 C 0.11488 0.10804 0.64441 0.0
C1558 C 0.02123 0.12952 0.66083 0.0
C1559 C 0.06454 0.12533 0.64257 0.0
C1560 C -0.00218 0.14204 0.66228 0.0
C1561 C 0.99167 0.16141 0.64638 0.0
C1562 C 0.03861 0.1364 0.64338 0.0
C1563 C 0.00925 0.16711 0.62874 0.0
C1564 C 0.08189 0.13267 0.62525 0.0
C1565 C 0.09667 0.1002 0.66081 0.0
N1566 N 0.03197 0.15478 0.62781 0.0
N1567 N 0.07238 0.10913 0.65963 0.0
H1568 H 0.68403 0.50565 0.61417 0.0
H1569 H 0.5865 0.60154 0.6752 0.0
H1570 H 0.63903 0.48615 0.67453 0.0
H1571 H 0.63234 0.62054 0.61524 0.0
H1572 H 0.60201 0.55769 0.67282 0.0
H1573 H 0.66186 0.5464 0.61199 0.0
C1574 C 0.66941 0.50985 0.62691 0.0
C1575 C 0.66362 0.49253 0.64473 0.0
C1576 C 0.6085 0.57144 0.66009 0.0
C1577 C 0.63818 0.53925 0.64234 0.0
C1578 C 0.59963 0.59648 0.66142 0.0
C1579 C 0.60839 0.61487 0.64559 0.0
C1580 C 0.62625 0.56479 0.64284 0.0
C1581 C 0.62529 0.60713 0.62802 0.0
C1582 C 0.65672 0.53314 0.62563 0.0
C1583 C 0.6443 0.49898 0.66059 0.0
N1584 N 0.63381 0.58274 0.62724 0.0
N1585 N 0.63241 0.52191 0.65913 0.0
H1586 H 0.36571 0.62942 0.61247 0.0
H1587 H 0.50076 0.63773 0.67573 0.0
H1588 H 0.384 0.5882 0.67527 0.0
H1589 H 0.47996 0.68211 0.6154 0.0
H1590 H 0.46007 0.61536 0.67315 0.0
H1591 H 0.40951 0.64454 0.61056 0.0
C1592 C 0.37897 0.6234 0.6258 0.0
C1593 C 0.37103 0.6078 0.64426 0.0
C1594 C 0.46451 0.62987 0.6604 0.0
C1595 C 0.4213 0.62519 0.64218 0.0
C1596 C 0.48774 0.64269 0.66185 0.0
C1597 C 0.49369 0.66209 0.64592 0.0
C1598 C 0.44711 0.63649 0.64291 0.0
C1599 C 0.47612 0.66751 0.62822 0.0
C1600 C 0.40401 0.63205 0.62468 0.0
C1601 C 0.3892 0.60036 0.66083 0.0
N1602 N 0.45356 0.6549 0.6273 0.0
N1603 N 0.41346 0.60935 0.65952 0.0
H1604 H 0.34804 0.5009 0.6752 0.0
H1605 H 0.35588 0.36512 0.61322 0.0
H1606 H 0.30323 0.47938 0.61536 0.0
H1607 H 0.39778 0.3842 0.67542 0.0
H1608 H 0.34069 0.40886 0.61103 0.0
H1609 H 0.37039 0.46019 0.67289 0.0
C1610 C 0.34298 0.48771 0.66148 0.0
C1611 C 0.32348 0.49348 0.64561 0.0
C1612 C 0.35334 0.40355 0.62508 0.0
C1613 C 0.34905 0.44686 0.64291 0.0
C1614 C 0.36203 0.37854 0.62637 0.0
C1615 C 0.37785 0.37085 0.64475 0.0
C1616 C 0.36037 0.42105 0.64234 0.0
C1617 C 0.38546 0.38922 0.66106 0.0
C1618 C 0.35579 0.46447 0.66019 0.0
C1619 C 0.31793 0.47569 0.62813 0.0
N1620 N 0.37643 0.41345 0.6596 0.0
N1621 N 0.33054 0.45312 0.62735 0.0
H1622 H 0.60142 0.40004 0.6746 0.0
H1623 H 0.50542 0.30263 0.61367 0.0
H1624 H 0.62047 0.35394 0.61485 0.0
H1625 H 0.48615 0.34711 0.67438 0.0
H1626 H 0.54612 0.32488 0.6114 0.0
H1627 H 0.55753 0.3846 0.67224 0.0
C1628 C 0.59636 0.38688 0.66086 0.0
C1629 C 0.61478 0.37801 0.64509 0.0
C1630 C 0.53292 0.32989 0.62514 0.0
C1631 C 0.56465 0.36024 0.64237 0.0
C1632 C 0.50966 0.31715 0.62647 0.0
C1633 C 0.49242 0.32276 0.64441 0.0
C1634 C 0.53909 0.34831 0.64192 0.0
C1635 C 0.49891 0.34198 0.66035 0.0
C1636 C 0.5713 0.37804 0.65955 0.0
C1637 C 0.60704 0.36107 0.62758 0.0
N1638 N 0.52183 0.35392 0.65883 0.0
N1639 N 0.58263 0.35259 0.62682 0.0
H1640 H 0.61966 0.36675 0.89238 0.0
H1641 H 0.68619 0.47975 0.88618 0.0
H1642 H 0.59576 0.38387 0.82238 0.0
H1643 H 0.63662 0.49972 0.8291 0.0
H1644 H 0.6648 0.43902 0.88932 0.0
H1645 H 0.63516 0.41014 0.89645 0.0
C1646 C 0.61781 0.37968 0.8778 0.0
C1647 C 0.60689 0.37155 0.85684 0.0
C1648 C 0.65797 0.45244 0.87651 0.0
C1649 C 0.62568 0.42113 0.86098 0.0
C1650 C 0.67048 0.47574 0.87452 0.0
C1651 C 0.66331 0.49322 0.85728 0.0
C1652 C 0.63794 0.44653 0.86121 0.0
C1653 C 0.64287 0.48683 0.84263 0.0
C1654 C 0.62695 0.40446 0.88004 0.0
C1655 C 0.6043 0.38929 0.83876 0.0
N1656 N 0.63106 0.4639 0.8448 0.0
N1657 N 0.61393 0.4132 0.84116 0.0
H1658 H 0.48447 0.63622 0.82668 0.0
H1659 H 0.62191 0.63334 0.88597 0.0
H1660 H 0.50665 0.68446 0.88406 0.0
H1661 H 0.60105 0.58648 0.82726 0.0
H1662 H 0.57817 0.64863 0.88825 0.0
H1663 H 0.52542 0.61439 0.82935 0.0
C1664 C 0.49786 0.64215 0.83994 0.0
C1665 C 0.49218 0.66246 0.855 0.0
C1666 C 0.58309 0.63487 0.87497 0.0
C1667 C 0.53914 0.63748 0.85809 0.0
C1668 C 0.60811 0.62611 0.87362 0.0
C1669 C 0.61529 0.60883 0.85618 0.0
C1670 C 0.56508 0.62641 0.8587 0.0
C1671 C 0.59645 0.59994 0.84088 0.0
C1672 C 0.52125 0.62964 0.84145 0.0
C1673 C 0.51024 0.6691 0.87194 0.0
N1674 N 0.57224 0.60903 0.84236 0.0
N1675 N 0.53297 0.65676 0.8729 0.0
H1676 H 0.35526 0.6205 0.88618 0.0
H1677 H 0.34794 0.48452 0.82457 0.0
H1678 H 0.39774 0.60112 0.82431 0.0
H1679 H 0.3031 0.50602 0.88446 0.0
H1680 H 0.37032 0.5252 0.8269 0.0
H1681 H 0.34021 0.57673 0.88853 0.0
C1682 C 0.36157 0.60701 0.87314 0.0
C1683 C 0.37751 0.61462 0.8548 0.0
C1684 C 0.35571 0.52092 0.83962 0.0
C1685 C 0.3602 0.56437 0.8574 0.0
C1686 C 0.34289 0.49769 0.83831 0.0
C1687 C 0.32334 0.49194 0.85417 0.0
C1688 C 0.34895 0.53853 0.8569 0.0
C1689 C 0.31782 0.5097 0.8717 0.0
C1690 C 0.35296 0.58197 0.87452 0.0
C1691 C 0.38531 0.59616 0.83864 0.0
N1692 N 0.33043 0.53226 0.87248 0.0
N1693 N 0.37635 0.57192 0.84018 0.0
H1694 H 0.3835 0.40021 0.82609 0.0
H1695 H 0.47899 0.30109 0.88537 0.0
H1696 H 0.36359 0.35184 0.88411 0.0
H1697 H 0.49926 0.3485 0.82681 0.0
H1698 H 0.438 0.32281 0.88762 0.0
H1699 H 0.42738 0.38486 0.82862 0.0
C1700 C 0.38836 0.38654 0.83948 0.0
C1701 C 0.36971 0.37707 0.85472 0.0
C1702 C 0.45148 0.32858 0.87437 0.0
C1703 C 0.41987 0.3594 0.85763 0.0
C1704 C 0.47492 0.31616 0.87305 0.0
C1705 C 0.49253 0.32275 0.85569 0.0
C1706 C 0.44552 0.34768 0.85816 0.0
C1707 C 0.48622 0.34261 0.84037 0.0
C1708 C 0.41343 0.37777 0.84089 0.0
C1709 C 0.3772 0.35948 0.8718 0.0
N1710 N 0.46314 0.35423 0.84185 0.0
N1711 N 0.40165 0.35109 0.87267 0.0
H1712 H 0.34595 0.49966 0.32292 0.0
H1713 H 0.35535 0.36498 0.38673 0.0
H1714 H 0.30223 0.47913 0.38378 0.0
H1715 H 0.39675 0.38351 0.32404 0.0
H1716 H 0.33979 0.40863 0.38846 0.0
H1717 H 0.36843 0.45906 0.3255 0.0
C1718 C 0.34113 0.4867 0.33691 0.0
C1719 C 0.32192 0.49273 0.35302 0.0
C1720 C 0.35241 0.40322 0.3744 0.0
C1721 C 0.34767 0.44623 0.35603 0.0
C1722 C 0.36133 0.37827 0.37338 0.0
C1723 C 0.37711 0.37044 0.35501 0.0
C1724 C 0.35919 0.42052 0.35687 0.0
C1725 C 0.38447 0.38863 0.33843 0.0
C1726 C 0.35403 0.46352 0.33836 0.0
C1727 C 0.3167 0.47524 0.37084 0.0
N1728 N 0.37523 0.41279 0.33962 0.0
N1729 N 0.32939 0.45272 0.37177 0.0
H1730 H 0.62088 0.35284 0.38615 0.0
H1731 H 0.48468 0.34739 0.32467 0.0
H1732 H 0.60178 0.39618 0.32475 0.0
H1733 H 0.50591 0.30158 0.38398 0.0
H1734 H 0.52568 0.36921 0.32705 0.0
H1735 H 0.57704 0.3379 0.38826 0.0
C1736 C 0.60745 0.35936 0.37316 0.0
C1737 C 0.61515 0.37553 0.35503 0.0
C1738 C 0.52127 0.3545 0.33962 0.0
C1739 C 0.56482 0.35835 0.35735 0.0
C1740 C 0.49786 0.342 0.33829 0.0
C1741 C 0.49192 0.32237 0.35399 0.0
C1742 C 0.53888 0.34733 0.35676 0.0
C1743 C 0.50972 0.31639 0.37135 0.0
C1744 C 0.58237 0.3508 0.3744 0.0
C1745 C 0.59676 0.38358 0.33892 0.0
N1746 N 0.53245 0.32871 0.37216 0.0
N1747 N 0.57247 0.37469 0.34033 0.0
H1748 H 0.63268 0.61954 0.38615 0.0
H1749 H 0.63763 0.48304 0.32521 0.0
H1750 H 0.58888 0.60003 0.32514 0.0
H1751 H 0.68338 0.50427 0.38455 0.0
H1752 H 0.61589 0.52407 0.32753 0.0
H1753 H 0.6476 0.57569 0.38841 0.0
C1754 C 0.62607 0.60602 0.37327 0.0
C1755 C 0.60976 0.6136 0.35522 0.0
C1756 C 0.63057 0.51966 0.34013 0.0
C1757 C 0.62688 0.56328 0.35772 0.0
C1758 C 0.64302 0.49623 0.33883 0.0
C1759 C 0.66262 0.49029 0.35454 0.0
C1760 C 0.63778 0.53729 0.35723 0.0
C1761 C 0.66859 0.50808 0.37191 0.0
C1762 C 0.6346 0.58094 0.3746 0.0
C1763 C 0.60161 0.59511 0.33924 0.0
N1764 N 0.65634 0.53084 0.37267 0.0
N1765 N 0.61045 0.57082 0.34075 0.0
H1766 H 0.38287 0.5838 0.32179 0.0
H1767 H 0.50703 0.62862 0.33044 0.0
H1768 H 0.36771 0.62829 0.38342 0.0
H1769 H 0.47528 0.68395 0.37793 0.0
H1770 H 0.4671 0.60521 0.33154 0.0
H1771 H 0.42697 0.59767 0.3229 0.0
C1772 C 0.38894 0.59614 0.33583 0.0
C1773 C 0.37146 0.60507 0.3524 0.0
C1774 C 0.46858 0.62262 0.34148 0.0
C1775 C 0.42236 0.62073 0.35417 0.0
C1776 C 0.49157 0.63593 0.34102 0.0
C1777 C 0.49438 0.65856 0.35379 0.0
C1778 C 0.4481 0.63222 0.35458 0.0
C1779 C 0.47392 0.66676 0.3676 0.0
C1780 C 0.41433 0.60396 0.33658 0.0
C1781 C 0.38043 0.6211 0.37012 0.0
N1782 N 0.45159 0.65369 0.36747 0.0
N1783 N 0.40518 0.62857 0.3704 0.0
H1784 H 0.34956 0.48424 0.17163 0.0
H1785 H 0.35092 0.62247 0.11376 0.0
H1786 H 0.29996 0.5071 0.11544 0.0
H1787 H 0.39904 0.60083 0.17138 0.0
H1788 H 0.33561 0.57875 0.1113 0.0
H1789 H 0.37128 0.52524 0.16894 0.0
C1790 C 0.34331 0.49778 0.15862 0.0
C1791 C 0.32266 0.49228 0.14392 0.0
C1792 C 0.34965 0.58351 0.12438 0.0
C1793 C 0.34748 0.53931 0.14082 0.0
C1794 C 0.35842 0.60851 0.12582 0.0
C1795 C 0.37608 0.61546 0.14302 0.0
C1796 C 0.35848 0.56528 0.14029 0.0
C1797 C 0.38528 0.59642 0.15797 0.0
C1798 C 0.35576 0.5212 0.1571 0.0
C1799 C 0.31561 0.51054 0.12729 0.0
N1800 N 0.37619 0.57223 0.15639 0.0
N1801 N 0.32788 0.5333 0.12632 0.0
H1802 H 0.36343 0.35275 0.11392 0.0
H1803 H 0.50049 0.34847 0.17389 0.0
H1804 H 0.38402 0.39858 0.17338 0.0
H1805 H 0.47851 0.30132 0.11571 0.0
H1806 H 0.45961 0.37047 0.17134 0.0
H1807 H 0.40715 0.3374 0.11166 0.0
C1808 C 0.37717 0.35974 0.12644 0.0
C1809 C 0.36991 0.37675 0.14408 0.0
C1810 C 0.46382 0.35543 0.15904 0.0
C1811 C 0.4201 0.35909 0.1416 0.0
C1812 C 0.48717 0.34282 0.16048 0.0
C1813 C 0.49287 0.32276 0.14516 0.0
C1814 C 0.44601 0.34793 0.14219 0.0
C1815 C 0.4749 0.31647 0.12804 0.0
C1816 C 0.40217 0.35095 0.12511 0.0
C1817 C 0.38868 0.38533 0.1596 0.0
N1818 N 0.45221 0.32889 0.12714 0.0
N1819 N 0.41288 0.37621 0.15813 0.0
H1820 H 0.6839 0.47932 0.11424 0.0
H1821 H 0.58487 0.38396 0.17396 0.0
H1822 H 0.63774 0.49913 0.17378 0.0
H1823 H 0.63283 0.36414 0.11561 0.0
H1824 H 0.60033 0.4278 0.17144 0.0
H1825 H 0.66175 0.43858 0.11186 0.0
C1826 C 0.66902 0.4752 0.12675 0.0
C1827 C 0.66292 0.4926 0.14442 0.0
C1828 C 0.6073 0.41388 0.15909 0.0
C1829 C 0.6375 0.44588 0.1418 0.0
C1830 C 0.59846 0.38883 0.16049 0.0
C1831 C 0.60782 0.37022 0.14518 0.0
C1832 C 0.62561 0.42032 0.14227 0.0
C1833 C 0.6253 0.37773 0.128 0.0
C1834 C 0.65635 0.45191 0.12536 0.0
C1835 C 0.64327 0.48624 0.15998 0.0
N1836 N 0.63377 0.40214 0.12714 0.0
N1837 N 0.63141 0.46331 0.15842 0.0
H1838 H 0.50536 0.68264 0.11347 0.0
H1839 H 0.601 0.58472 0.17427 0.0
H1840 H 0.48552 0.63729 0.17349 0.0
H1841 H 0.62068 0.63194 0.11543 0.0
H1842 H 0.55706 0.59999 0.17161 0.0
H1843 H 0.54614 0.66052 0.11134 0.0
C1844 C 0.50948 0.66793 0.12614 0.0
C1845 C 0.49206 0.66207 0.14387 0.0
C1846 C 0.57098 0.60684 0.15918 0.0
C1847 C 0.53885 0.63668 0.14155 0.0
C1848 C 0.59607 0.5981 0.16067 0.0
C1849 C 0.61468 0.60731 0.14525 0.0
C1850 C 0.56448 0.62489 0.14216 0.0
C1851 C 0.60711 0.62453 0.1279 0.0
C1852 C 0.5328 0.65528 0.1249 0.0
C1853 C 0.49842 0.64263 0.15964 0.0
N1854 N 0.58266 0.6329 0.12695 0.0
N1855 N 0.5214 0.63078 0.15822 0.0
H1856 H -0.00557 0.26178 0.18154 0.0
H1857 H 0.98689 0.26067 0.31878 0.0
H1858 H 0.05689 0.24491 0.2278 0.0
H1859 H 0.92444 0.24429 0.27236 0.0
H1860 H 0.01182 0.27618 0.28566 0.0
H1861 H 0.96936 0.2766 0.21484 0.0
C1862 C 0.00318 0.26204 0.19858 0.0
C1863 C 0.02742 0.25144 0.20215 0.0
C1864 C 0.99235 0.26998 0.28291 0.0
C1865 C -0.00094 0.26835 0.23999 0.0
C1866 C 0.9781 0.26119 0.30176 0.0
C1867 C 0.95393 0.25052 0.29806 0.0
C1868 C 0.98215 0.26817 0.26043 0.0
C1869 C 0.94334 0.25175 0.27575 0.0
C1870 C 0.98887 0.27045 0.21753 0.0
C1871 C 0.03796 0.25233 0.22449 0.0
N1872 N 0.95771 0.25996 0.25765 0.0
N1873 N 0.02353 0.26018 0.24269 0.0
H1874 H 0.73833 0.92303 0.27267 0.0
H1875 H 0.73824 0.05876 0.22879 0.0
H1876 H 0.72173 0.98616 0.3182 0.0
H1877 H 0.72319 -0.0045 0.18298 0.0
H1878 H 0.72261 0.03355 0.26139 0.0
H1879 H 0.72309 0.94806 0.23982 0.0
C1880 C 0.73077 0.94196 0.27578 0.0
C1881 C 0.73187 0.95287 0.29796 0.0
C1882 C 0.72196 0.02536 0.24414 0.0
C1883 C 0.71515 0.98187 0.26049 0.0
C1884 C 0.731 0.03974 0.22555 0.0
C1885 C 0.73263 0.02887 0.20337 0.0
C1886 C 0.71537 -0.0003 0.24058 0.0
C1887 C 0.7226 0.00439 0.19994 0.0
C1888 C 0.72199 0.95625 0.25705 0.0
C1889 C 0.72151 0.97724 0.30124 0.0
N1890 N 0.71511 0.99028 0.21852 0.0
N1891 N 0.71431 0.99129 0.28254 0.0
H1892 H 0.98885 0.72263 0.17923 0.0
H1893 H -0.00243 0.722 0.31637 0.0
H1894 H 0.92697 0.73953 0.22619 0.0
H1895 H 0.05946 0.73937 0.26956 0.0
H1896 H 0.9724 0.70678 0.28333 0.0
H1897 H 0.01406 0.70714 0.21215 0.0
C1898 C 0.98023 0.7222 0.19633 0.0
C1899 C 0.95614 0.73302 0.20023 0.0
C1900 C 0.99182 0.7131 0.28047 0.0
C1901 C 0.98466 0.71537 0.23764 0.0
C1902 C 0.0062 0.72172 0.29927 0.0
C1903 C 0.03027 0.73261 0.29547 0.0
C1904 C 0.00179 0.71527 0.25791 0.0
C1905 C 0.04065 0.73172 0.27304 0.0
C1906 C -0.00537 0.71342 0.21507 0.0
C1907 C 0.94578 0.73193 0.22265 0.0
N1908 N 0.02615 0.72365 0.25499 0.0
N1909 N 0.9603 0.72372 0.24064 0.0
H1910 H 0.26226 -0.00248 0.31697 0.0
H1911 H 0.26189 0.99081 0.17968 0.0
H1912 H 0.24527 0.06019 0.27099 0.0
H1913 H 0.2456 0.9281 0.22585 0.0
H1914 H 0.27707 0.0157 0.21294 0.0
H1915 H 0.27751 0.97283 0.2836 0.0
C1916 C 0.26263 0.00641 0.29999 0.0
C1917 C 0.25185 0.03058 0.2965 0.0
C1918 C 0.27097 -0.00382 0.21561 0.0
C1919 C 0.26919 0.00264 0.25857 0.0
C1920 C 0.26237 0.98197 0.19668 0.0
C1921 C 0.25184 0.95771 0.20026 0.0
C1922 C 0.26913 0.98585 0.23805 0.0
C1923 C 0.25298 0.94705 0.22255 0.0
C1924 C 0.27126 0.99231 0.28099 0.0
C1925 C 0.25285 0.04131 0.27422 0.0
N1926 N 0.26102 0.96137 0.24073 0.0
N1927 N 0.2609 0.02708 0.25598 0.0
H1928 H 0.92556 0.73775 0.76974 0.0
H1929 H 0.06126 0.73761 0.72582 0.0
H1930 H 0.9889 0.72205 0.81529 0.0
H1931 H -0.00213 0.72245 0.68018 0.0
H1932 H 0.0362 0.72183 0.75845 0.0
H1933 H 0.95055 0.72207 0.73702 0.0
C1934 C 0.94454 0.73033 0.77291 0.0
C1935 C 0.95552 0.73184 0.79504 0.0
C1936 C 0.02795 0.72117 0.74123 0.0
C1937 C 0.98446 0.71457 0.75769 0.0
C1938 C 0.04225 0.73028 0.72262 0.0
C1939 C 0.03128 0.73198 0.70049 0.0
C1940 C 0.00226 0.71459 0.73775 0.0
C1941 C 0.00683 0.72183 0.69711 0.0
C1942 C 0.9588 0.72128 0.75424 0.0
C1943 C 0.97993 0.72158 0.79837 0.0
N1944 N -0.00721 0.7143 0.71571 0.0
N1945 N -0.00605 0.7141 0.77972 0.0
H1946 H 0.24784 0.061 0.72692 0.0
H1947 H 0.25009 0.92528 0.77008 0.0
H1948 H 0.26424 -0.00188 0.68102 0.0
H1949 H 0.26411 0.98869 0.81599 0.0
H1950 H 0.26583 0.9506 0.73762 0.0
H1951 H 0.26421 0.03617 0.75943 0.0
C1952 C 0.25554 0.04216 0.72364 0.0
C1953 C 0.25402 0.03123 0.70148 0.0
C1954 C 0.26626 0.95881 0.75487 0.0
C1955 C 0.27211 0.00246 0.73858 0.0
C1956 C 0.25719 0.94434 0.77339 0.0
C1957 C 0.25513 0.95525 0.79552 0.0
C1958 C 0.27243 0.98458 0.75846 0.0
C1959 C 0.26499 0.97978 0.79905 0.0
C1960 C 0.265 0.02799 0.74218 0.0
C1961 C 0.26469 0.00702 0.69798 0.0
N1962 N 0.27247 -0.00602 0.78053 0.0
N1963 N 0.27256 -0.00692 0.71652 0.0
H1964 H 0.92374 0.24623 0.7284 0.0
H1965 H 0.05933 0.24796 0.77139 0.0
H1966 H 0.98655 0.26282 0.68242 0.0
H1967 H -0.00384 0.26291 0.81742 0.0
H1968 H 0.03404 0.26367 0.73891 0.0
H1969 H 0.9486 0.26255 0.7609 0.0
C1970 C 0.94256 0.25397 0.7251 0.0
C1971 C 0.95348 0.2525 0.70292 0.0
C1972 C 0.02588 0.26431 0.75619 0.0
C1973 C 0.98227 0.27054 0.74 0.0
C1974 C 0.04032 0.25524 0.7747 0.0
C1975 C 0.02947 0.25349 0.79689 0.0
C1976 C 0.00018 0.27077 0.75983 0.0
C1977 C 0.00501 0.26356 0.80044 0.0
C1978 C 0.95674 0.26341 0.74363 0.0
C1979 C 0.97766 0.26322 0.69939 0.0
N1980 N 0.99082 0.27104 0.78192 0.0
N1981 N 0.99162 0.27106 0.71792 0.0
H1982 H 0.73786 0.92357 0.72885 0.0
H1983 H 0.73809 0.05957 0.77243 0.0
H1984 H 0.72284 0.98693 0.6831 0.0
H1985 H 0.72272 -0.00369 0.81821 0.0
H1986 H 0.72253 0.03441 0.73981 0.0
H1987 H 0.72233 0.94878 0.76148 0.0
C1988 C 0.73062 0.9426 0.72562 0.0
C1989 C 0.73229 0.95351 0.70345 0.0
C1990 C 0.72179 0.02621 0.75706 0.0
C1991 C 0.71517 0.98269 0.7407 0.0
C1992 C 0.73076 0.04057 0.77567 0.0
C1993 C 0.73232 0.02968 0.79784 0.0
C1994 C 0.71519 0.00054 0.7606 0.0
C1995 C 0.72219 0.00523 0.80125 0.0
C1996 C 0.72166 0.95699 0.74423 0.0
C1997 C 0.72225 0.978 0.70005 0.0
N1998 N 0.71478 0.99112 0.78266 0.0
N1999 N 0.71484 0.99212 0.71864 0.0
H2000 H 0.48819 0.76333 0.8184 0.0
H2001 H 0.49752 0.76361 0.68135 0.0
H2002 H 0.42657 0.74641 0.77126 0.0
H2003 H 0.55942 0.74721 0.72836 0.0
H2004 H 0.47213 0.77893 0.71423 0.0
H2005 H 0.51351 0.77897 0.78557 0.0
C2006 C 0.47966 0.76377 0.80128 0.0
C2007 C 0.45562 0.7529 0.7973 0.0
C2008 C 0.49159 0.77279 0.71717 0.0
C2009 C 0.48426 0.77072 0.75999 0.0
C2010 C 0.5061 0.76412 0.69845 0.0
C2011 C 0.53025 0.75345 0.70237 0.0
C2012 C 0.50149 0.77088 0.73976 0.0
C2013 C 0.54056 0.75466 0.72479 0.0
C2014 C 0.49411 0.77264 0.78259 0.0
C2015 C 0.44535 0.75403 0.77486 0.0
N2016 N 0.52592 0.76274 0.74277 0.0
N2017 N 0.45993 0.76232 0.75692 0.0
H2018 H 0.22185 0.49797 0.68111 0.0
H2019 H 0.2223 0.48909 0.81821 0.0
H2020 H 0.23889 0.55987 0.72794 0.0
H2021 H 0.23823 0.42702 0.77123 0.0
H2022 H 0.20703 0.51449 0.78534 0.0
H2023 H 0.20647 0.4728 0.7141 0.0
C2024 C 0.22148 0.5066 0.6982 0.0
C2025 C 0.23233 0.53068 0.70202 0.0
C2026 C 0.21307 0.495 0.7824 0.0
C2027 C 0.21483 0.50217 0.73954 0.0
C2028 C 0.22172 0.48049 0.80112 0.0
C2029 C 0.23222 0.45626 0.79721 0.0
C2030 C 0.21483 0.48503 0.75983 0.0
C2031 C 0.23091 0.44593 0.7748 0.0
C2032 C 0.21277 0.49222 0.71699 0.0
C2033 C 0.23129 0.54105 0.72443 0.0
N2034 N 0.22284 0.46056 0.75683 0.0
N2035 N 0.22317 0.52654 0.74247 0.0
H2036 H 0.49788 0.22202 0.81811 0.0
H2037 H 0.48875 0.22281 0.68095 0.0
H2038 H 0.55916 0.24105 0.77117 0.0
H2039 H 0.42661 0.23843 0.728 0.0
H2040 H 0.51432 0.20783 0.71383 0.0
H2041 H 0.47289 0.20649 0.78507 0.0
C2042 C 0.50642 0.22207 0.80098 0.0
C2043 C 0.53025 0.23347 0.79715 0.0
C2044 C 0.49477 0.21371 0.71678 0.0
C2045 C 0.50199 0.21574 0.7596 0.0
C2046 C 0.48016 0.22218 0.69806 0.0
C2047 C 0.45587 0.23252 0.70199 0.0
C2048 C 0.48482 0.21546 0.73936 0.0
C2049 C 0.44556 0.2312 0.72443 0.0
C2050 C 0.49215 0.21326 0.78217 0.0
C2051 C 0.54054 0.23298 0.77468 0.0
N2052 N 0.46028 0.22329 0.7424 0.0
N2053 N 0.52615 0.2247 0.75664 0.0
H2054 H 0.74803 0.42464 0.72763 0.0
H2055 H 0.74631 0.56011 0.77214 0.0
H2056 H 0.76302 0.48838 0.68232 0.0
H2057 H 0.76258 0.49679 0.81756 0.0
H2058 H 0.76214 0.53535 0.73935 0.0
H2059 H 0.76323 0.44967 0.76048 0.0
C2060 C 0.75523 0.44371 0.72455 0.0
C2061 C 0.75366 0.45478 0.70245 0.0
C2062 C 0.76302 0.52705 0.75655 0.0
C2063 C 0.77033 0.48377 0.73994 0.0
C2064 C 0.75387 0.54118 0.77525 0.0
C2065 C 0.75254 0.53015 0.79738 0.0
C2066 C 0.77 0.50146 0.75995 0.0
C2067 C 0.76295 0.50579 0.80065 0.0
C2068 C 0.76399 0.45801 0.74329 0.0
C2069 C 0.76358 0.47933 0.69922 0.0
N2070 N 0.77053 0.49191 0.78196 0.0
N2071 N 0.77077 0.49336 0.71794 0.0
H2072 H 0.42403 0.23782 0.27185 0.0
H2073 H 0.5597 0.23762 0.22799 0.0
H2074 H 0.4873 0.22177 0.31737 0.0
H2075 H 0.49635 0.22262 0.18227 0.0
H2076 H 0.5346 0.22176 0.26057 0.0
H2077 H 0.44899 0.22216 0.23909 0.0
C2078 C 0.44298 0.23031 0.27499 0.0
C2079 C 0.45397 0.23173 0.29713 0.0
C2080 C 0.52637 0.22116 0.24334 0.0
C2081 C 0.48287 0.21449 0.25975 0.0
C2082 C 0.54069 0.23032 0.22476 0.0
C2083 C 0.52974 0.23208 0.20263 0.0
C2084 C 0.50068 0.21459 0.23982 0.0
C2085 C 0.50529 0.22196 0.1992 0.0
C2086 C 0.45723 0.22128 0.25631 0.0
C2087 C 0.47834 0.22137 0.30045 0.0
N2088 N 0.49122 0.21437 0.21778 0.0
N2089 N 0.49234 0.21392 0.28179 0.0
H2090 H 0.76332 0.49646 0.18151 0.0
H2091 H 0.76334 0.48658 0.31862 0.0
H2092 H 0.74619 0.55794 0.2288 0.0
H2093 H 0.74694 0.42485 0.27142 0.0
H2094 H 0.77844 0.51215 0.28578 0.0
H2095 H 0.77864 0.47098 0.21433 0.0
C2096 C 0.76365 0.50493 0.19867 0.0
C2097 C 0.75283 0.52899 0.20267 0.0
C2098 C 0.77234 0.49269 0.28278 0.0
C2099 C 0.77028 0.50015 0.23998 0.0
C2100 C 0.76379 0.47807 0.30148 0.0
C2101 C 0.75321 0.45391 0.29752 0.0
C2102 C 0.7704 0.48287 0.26016 0.0
C2103 C 0.75435 0.44371 0.27504 0.0
C2104 C 0.77233 0.49037 0.21735 0.0
C2105 C 0.7538 0.53915 0.22516 0.0
N2106 N 0.76232 0.45844 0.25709 0.0
N2107 N 0.76192 0.52449 0.24309 0.0
H2108 H 0.42503 0.74556 0.228 0.0
H2109 H 0.56055 0.74598 0.27291 0.0
H2110 H 0.48884 0.76151 0.183 0.0
H2111 H 0.4965 0.75999 0.31817 0.0
H2112 H 0.53566 0.76178 0.2402 0.0
H2113 H 0.44971 0.76088 0.26101 0.0
C2114 C 0.44406 0.75294 0.22503 0.0
C2115 C 0.45525 0.75163 0.20296 0.0
C2116 C 0.52722 0.76217 0.25736 0.0
C2117 C 0.48384 0.76853 0.24062 0.0
C2118 C 0.54142 0.75306 0.27602 0.0
C2119 C 0.53023 0.75104 0.29805 0.0
C2120 C 0.50142 0.76844 0.26071 0.0
C2121 C 0.50563 0.76086 0.30132 0.0
C2122 C 0.45814 0.7618 0.24385 0.0
C2123 C 0.47972 0.76185 0.19987 0.0
N2124 N 0.4917 0.76842 0.28267 0.0
N2125 N 0.49355 0.76915 0.21866 0.0
H2126 H 0.23883 0.42554 0.22802 0.0
H2127 H 0.2348 0.56123 0.27242 0.0
H2128 H 0.22243 0.48884 0.18261 0.0
H2129 H 0.22214 0.49697 0.31771 0.0
H2130 H 0.21968 0.53596 0.23971 0.0
H2131 H 0.22248 0.45006 0.26074 0.0
C2132 C 0.23116 0.44442 0.22489 0.0
C2133 C 0.2326 0.45552 0.2028 0.0
C2134 C 0.2194 0.52754 0.25688 0.0
C2135 C 0.21451 0.48395 0.24016 0.0
C2136 C 0.22809 0.54199 0.27555 0.0
C2137 C 0.23037 0.53086 0.29758 0.0
C2138 C 0.21383 0.50159 0.26021 0.0
C2139 C 0.22105 0.50608 0.30086 0.0
C2140 C 0.22171 0.45841 0.24356 0.0
C2141 C 0.222 0.47979 0.19951 0.0
N2142 N 0.21394 0.49194 0.28219 0.0
N2143 N 0.21411 0.49355 0.21817 0.0
H2144 H 0.11133 0.1771 0.94112 0.0
H2145 H 0.0338 0.21061 0.05659 0.0
H2146 H 0.03585 0.21021 0.94156 0.0
H2147 H 0.11047 0.18032 0.05635 0.0
H2148 H 0.03224 0.2056 0.01454 0.0
H2149 H 0.10926 0.17309 0.98328 0.0
C2150 C 0.09421 0.18331 0.95001 0.0
C2151 C 0.07386 0.19432 0.93772 0.0
C2152 C 0.04934 0.19987 0.0237 0.0
C2153 C 0.07145 0.18987 0.98608 0.0
C2154 C 0.05026 0.20272 0.04776 0.0
C2155 C 0.07243 0.19618 0.06007 0.0
C2156 C 0.07075 0.19047 0.0118 0.0
C2157 C 0.09304 0.18585 0.04762 0.0
C2158 C 0.09307 0.18103 0.97412 0.0
C2159 C 0.05212 0.20185 0.95026 0.0
N2160 N 0.09177 0.18353 0.02416 0.0
N2161 N 0.0516 0.19968 0.97375 0.0
H2162 H 0.80803 0.11066 0.05863 0.0
H2163 H 0.77545 0.03389 0.94267 0.0
H2164 H 0.77376 0.03574 0.05776 0.0
H2165 H 0.80824 0.10946 0.9434 0.0
H2166 H 0.77953 0.03215 0.98481 0.0
H2167 H 0.81299 0.10844 0.01657 0.0
C2168 C 0.80173 0.09364 0.04966 0.0
C2169 C 0.79015 0.07349 0.0618 0.0
C2170 C 0.78603 0.04903 0.97573 0.0
C2171 C 0.79573 0.0709 0.01353 0.0
C2172 C 0.78372 0.05005 0.95163 0.0
C2173 C 0.7912 0.072 0.93941 0.0
C2174 C 0.7958 0.07014 0.98779 0.0
C2175 C 0.802 0.09222 0.95203 0.0
C2176 C 0.80457 0.0924 0.0256 0.0
C2177 C 0.78257 0.05186 0.04918 0.0
N2178 N 0.80374 0.09089 0.97554 0.0
N2179 N 0.78529 0.05124 0.02573 0.0
H2180 H 0.95281 0.77553 0.94006 0.0
H2181 H 0.87643 0.81108 0.05562 0.0
H2182 H 0.87778 0.80965 0.94053 0.0
H2183 H 0.95039 0.7747 0.05516 0.0
H2184 H 0.87904 0.81576 0.01355 0.0
H2185 H 0.95465 0.78023 0.98216 0.0
C2186 C 0.93681 0.78424 0.94894 0.0
C2187 C 0.91494 0.79187 0.93669 0.0
C2188 C 0.89479 0.80694 0.02268 0.0
C2189 C 0.91693 0.79719 0.98499 0.0
C2190 C 0.89333 0.80426 0.04674 0.0
C2191 C 0.91307 0.79215 0.05899 0.0
C2192 C 0.91611 0.7974 0.01072 0.0
C2193 C 0.93457 0.78392 0.04648 0.0
C2194 C 0.93788 0.78689 0.97302 0.0
C2195 C 0.89492 0.80323 0.94921 0.0
N2196 N 0.9354 0.78649 0.02303 0.0
N2197 N 0.89631 0.80531 0.97268 0.0
H2198 H 0.20892 0.95194 0.93945 0.0
H2199 H 0.17703 0.87526 0.05571 0.0
H2200 H 0.17639 0.87625 0.94043 0.0
H2201 H 0.21167 0.95001 0.05448 0.0
H2202 H 0.17186 0.87742 0.01367 0.0
H2203 H 0.20506 0.95369 0.9816 0.0
C2204 C 0.20073 0.93576 0.94846 0.0
C2205 C 0.19328 0.91376 0.93632 0.0
C2206 C 0.18042 0.89343 0.02263 0.0
C2207 C 0.18896 0.91563 0.98472 0.0
C2208 C 0.18339 0.89223 0.04667 0.0
C2209 C 0.19511 0.91236 0.05871 0.0
C2210 C 0.18926 0.91488 0.01046 0.0
C2211 C 0.20276 0.93391 0.04599 0.0
C2212 C 0.19856 0.93678 0.97258 0.0
C2213 C 0.1826 0.89352 0.94901 0.0
N2214 N 0.19989 0.9345 0.02256 0.0
N2215 N 0.181 0.89485 0.97253 0.0
H2216 H 0.11068 0.8106 0.556 0.0
H2217 H 0.03446 0.77568 0.4403 0.0
H2218 H 0.03647 0.77477 0.55537 0.0
H2219 H 0.11015 0.80825 0.44085 0.0
H2220 H 0.03254 0.78046 0.48238 0.0
H2221 H 0.10839 0.81513 0.5139 0.0
C2222 C 0.09379 0.80389 0.54708 0.0
C2223 C 0.07388 0.79196 0.55929 0.0
C2224 C 0.04949 0.78676 0.47327 0.0
C2225 C 0.07122 0.79703 0.51099 0.0
C2226 C 0.05061 0.78404 0.4492 0.0
C2227 C 0.07265 0.79125 0.43697 0.0
C2228 C 0.07057 0.79669 0.48526 0.0
C2229 C 0.09286 0.80218 0.44951 0.0
C2230 C 0.09252 0.80647 0.523 0.0
C2231 C 0.05241 0.78385 0.54672 0.0
N2232 N 0.09142 0.80434 0.47298 0.0
N2233 N 0.05176 0.78632 0.52326 0.0
H2234 H 0.17357 0.10992 0.44121 0.0
H2235 H 0.20936 0.0342 0.55699 0.0
H2236 H 0.21045 0.03623 0.44195 0.0
H2237 H 0.17572 0.10943 0.55637 0.0
H2238 H 0.20458 0.03219 0.51493 0.0
H2239 H 0.16896 0.10756 0.4833 0.0
C2240 C 0.18052 0.09313 0.45015 0.0
C2241 C 0.19275 0.0734 0.43798 0.0
C2242 C 0.19804 0.04905 0.52402 0.0
C2243 C 0.18757 0.07065 0.48627 0.0
C2244 C 0.20075 0.05022 0.54808 0.0
C2245 C 0.19326 0.07218 0.56028 0.0
C2246 C 0.18784 0.06999 0.512 0.0
C2247 C 0.18202 0.09221 0.54773 0.0
C2248 C 0.17787 0.09182 0.47423 0.0
C2249 C 0.20114 0.05204 0.45057 0.0
N2250 N 0.17988 0.09073 0.52426 0.0
N2251 N 0.1986 0.05135 0.47403 0.0
H2252 H 0.95065 0.20732 0.55846 0.0
H2253 H 0.87383 0.17376 0.44285 0.0
H2254 H 0.87501 0.1746 0.55793 0.0
H2255 H 0.94866 0.20829 0.4434 0.0
H2256 H 0.87626 0.16882 0.48488 0.0
H2257 H 0.95252 0.20263 0.51637 0.0
C2258 C 0.93451 0.19893 0.54956 0.0
C2259 C 0.91248 0.19169 0.5618 0.0
C2260 C 0.89224 0.17728 0.47578 0.0
C2261 C 0.9145 0.18638 0.5135 0.0
C2262 C 0.89088 0.18012 0.45174 0.0
C2263 C 0.91093 0.1918 0.43953 0.0
C2264 C 0.91375 0.18625 0.48777 0.0
C2265 C 0.93261 0.19942 0.45205 0.0
C2266 C 0.93561 0.19627 0.52549 0.0
C2267 C 0.8923 0.18071 0.54926 0.0
N2268 N 0.93333 0.19673 0.4755 0.0
N2269 N 0.8937 0.17863 0.52579 0.0
H2270 H 0.80957 0.8731 0.44264 0.0
H2271 H 0.77536 0.94966 0.55843 0.0
H2272 H 0.77288 0.94689 0.44339 0.0
H2273 H 0.80925 0.87455 0.55787 0.0
H2274 H 0.77942 0.9513 0.51628 0.0
H2275 H 0.81455 0.87566 0.48468 0.0
C2276 C 0.80273 0.88995 0.45157 0.0
C2277 C 0.79047 0.90967 0.43941 0.0
C2278 C 0.78617 0.93455 0.52539 0.0
C2279 C 0.7961 0.91265 0.48765 0.0
C2280 C 0.78389 0.93359 0.54951 0.0
C2281 C 0.79166 0.91178 0.56177 0.0
C2282 C 0.79623 0.91352 0.51338 0.0
C2283 C 0.80276 0.89167 0.54919 0.0
C2284 C 0.80559 0.89137 0.47562 0.0
C2285 C 0.78221 0.93109 0.452 0.0
N2286 N 0.80448 0.89294 0.52568 0.0
N2287 N 0.78499 0.9319 0.47543 0.0
H2288 H 0.60975 0.67271 0.44233 0.0
H2289 H 0.53402 0.7081 0.5582 0.0
H2290 H 0.53496 0.70733 0.44313 0.0
H2291 H 0.60981 0.67571 0.5574 0.0
H2292 H 0.53175 0.7027 0.51621 0.0
H2293 H 0.60769 0.66836 0.48444 0.0
C2294 C 0.59277 0.67918 0.45129 0.0
C2295 C 0.57264 0.69075 0.43912 0.0
C2296 C 0.54879 0.69657 0.52525 0.0
C2297 C 0.57026 0.68591 0.48746 0.0
C2298 C 0.55012 0.69965 0.54927 0.0
C2299 C 0.57229 0.69269 0.56139 0.0
C2300 C 0.5698 0.68653 0.51319 0.0
C2301 C 0.59241 0.68161 0.54881 0.0
C2302 C 0.59163 0.6767 0.47538 0.0
C2303 C 0.55106 0.69854 0.45174 0.0
N2304 N 0.59077 0.67911 0.52538 0.0
N2305 N 0.55056 0.69621 0.47523 0.0
H2306 H 0.31292 0.60844 0.44124 0.0
H2307 H 0.27609 0.5337 0.55735 0.0
H2308 H 0.27494 0.53533 0.44226 0.0
H2309 H 0.31035 0.60863 0.55639 0.0
H2310 H 0.28093 0.53142 0.51529 0.0
H2311 H 0.31752 0.60615 0.48333 0.0
C2312 C 0.30575 0.59177 0.45024 0.0
C2313 C 0.2932 0.5722 0.43814 0.0
C2314 C 0.28759 0.54827 0.5243 0.0
C2315 C 0.29834 0.56956 0.48645 0.0
C2316 C 0.28485 0.5496 0.54837 0.0
C2317 C 0.2925 0.57156 0.56048 0.0
C2318 C 0.298 0.56905 0.51219 0.0
C2319 C 0.30392 0.59142 0.54782 0.0
C2320 C 0.30838 0.59051 0.47432 0.0
C2321 C 0.28452 0.55101 0.45081 0.0
N2322 N 0.3061 0.58978 0.52436 0.0
N2323 N 0.28704 0.55037 0.47428 0.0
H2324 H 0.3754 0.3109 0.55787 0.0
H2325 H 0.4511 0.27556 0.4419 0.0
H2326 H 0.44945 0.2747 0.55696 0.0
H2327 H 0.37587 0.30924 0.44272 0.0
H2328 H 0.45317 0.28028 0.48397 0.0
H2329 H 0.37767 0.31556 0.51578 0.0
C2330 C 0.39225 0.30412 0.54889 0.0
C2331 C 0.41212 0.29206 0.56102 0.0
C2332 C 0.4363 0.28684 0.47492 0.0
C2333 C 0.41475 0.29729 0.51272 0.0
C2334 C 0.43509 0.28417 0.45085 0.0
C2335 C 0.41312 0.29169 0.4387 0.0
C2336 C 0.41537 0.29704 0.48699 0.0
C2337 C 0.3931 0.30292 0.45132 0.0
C2338 C 0.39351 0.30679 0.52482 0.0
C2339 C 0.43354 0.28388 0.54838 0.0
N2340 N 0.39462 0.30502 0.47478 0.0
N2341 N 0.43417 0.28644 0.52492 0.0
H2342 H 0.71029 0.45056 0.55763 0.0
H2343 H 0.67486 0.3742 0.44216 0.0
H2344 H 0.67627 0.37551 0.55733 0.0
H2345 H 0.71092 0.44829 0.4426 0.0
H2346 H 0.6702 0.37672 0.48424 0.0
H2347 H 0.7056 0.45235 0.51555 0.0
C2348 C 0.70163 0.43453 0.54879 0.0
C2349 C 0.69399 0.41269 0.56109 0.0
C2350 C 0.67894 0.39252 0.4751 0.0
C2351 C 0.68867 0.41463 0.51278 0.0
C2352 C 0.68161 0.39111 0.45103 0.0
C2353 C 0.69363 0.41092 0.43877 0.0
C2354 C 0.68841 0.41384 0.48706 0.0
C2355 C 0.70176 0.43243 0.45128 0.0
C2356 C 0.69896 0.43558 0.52471 0.0
C2357 C 0.68267 0.39265 0.54861 0.0
N2358 N 0.69922 0.4332 0.47474 0.0
N2359 N 0.68059 0.39401 0.52514 0.0
H2360 H 0.60969 0.31031 0.05823 0.0
H2361 H 0.53416 0.27514 0.94224 0.0
H2362 H 0.53567 0.27408 0.05733 0.0
H2363 H 0.60944 0.30867 0.94309 0.0
H2364 H 0.53208 0.27966 0.98433 0.0
H2365 H 0.60753 0.31489 0.01614 0.0
C2366 C 0.59286 0.30351 0.04925 0.0
C2367 C 0.57297 0.29147 0.06139 0.0
C2368 C 0.54897 0.28622 0.97529 0.0
C2369 C 0.57046 0.2966 0.01309 0.0
C2370 C 0.55018 0.28365 0.95121 0.0
C2371 C 0.57216 0.29121 0.93906 0.0
C2372 C 0.5699 0.29635 0.98736 0.0
C2373 C 0.5922 0.30233 0.95169 0.0
C2374 C 0.59167 0.30613 0.02518 0.0
C2375 C 0.55159 0.28325 0.04875 0.0
N2376 N 0.59067 0.30434 0.97516 0.0
N2377 N 0.55102 0.28577 0.02528 0.0
H2378 H 0.67673 0.61148 0.94218 0.0
H2379 H 0.7099 0.53478 0.0581 0.0
H2380 H 0.71181 0.53692 0.94308 0.0
H2381 H 0.67769 0.61062 0.0575 0.0
H2382 H 0.70572 0.53312 0.01599 0.0
H2383 H 0.67201 0.60932 0.98428 0.0
C2384 C 0.68326 0.59455 0.95116 0.0
C2385 C 0.69499 0.57448 0.93902 0.0
C2386 C 0.69937 0.55005 0.02508 0.0
C2387 C 0.68969 0.57196 0.98732 0.0
C2388 C 0.70174 0.55102 0.04918 0.0
C2389 C 0.69444 0.57302 0.06142 0.0
C2390 C 0.68971 0.57124 0.01305 0.0
C2391 C 0.68378 0.59334 0.04883 0.0
C2392 C 0.68056 0.59335 0.97524 0.0
C2393 C 0.70288 0.55298 0.95166 0.0
N2394 N 0.68196 0.59205 0.02533 0.0
N2395 N 0.70027 0.55239 0.97512 0.0
H2396 H 0.37425 0.67594 0.94165 0.0
H2397 H 0.4506 0.71057 0.05738 0.0
H2398 H 0.44911 0.71041 0.94228 0.0
H2399 H 0.37473 0.67837 0.05686 0.0
H2400 H 0.45246 0.70577 0.0153 0.0
H2401 H 0.37627 0.67179 0.9838 0.0
C2402 C 0.39123 0.68243 0.95058 0.0
C2403 C 0.41141 0.69386 0.93835 0.0
C2404 C 0.43548 0.69957 0.02441 0.0
C2405 C 0.41376 0.68923 0.9867 0.0
C2406 C 0.43439 0.7023 0.04848 0.0
C2407 C 0.41234 0.69516 0.06073 0.0
C2408 C 0.41436 0.68972 0.01243 0.0
C2409 C 0.39205 0.68436 0.04819 0.0
C2410 C 0.39234 0.68007 0.97469 0.0
C2411 C 0.43297 0.70171 0.95093 0.0
N2412 N 0.39348 0.68218 0.02472 0.0
N2413 N 0.43347 0.69946 0.97442 0.0
H2414 H 0.30827 0.37434 0.05791 0.0
H2415 H 0.27533 0.4512 0.94198 0.0
H2416 H 0.27371 0.44915 0.0571 0.0
H2417 H 0.30731 0.37526 0.94264 0.0
H2418 H 0.27952 0.45286 0.98411 0.0
H2419 H 0.31288 0.37649 0.01581 0.0
C2420 C 0.30183 0.39133 0.04895 0.0
C2421 C 0.29029 0.41147 0.06112 0.0
C2422 C 0.28582 0.43591 0.97502 0.0
C2423 C 0.29547 0.41397 0.0128 0.0
C2424 C 0.28345 0.43494 0.95092 0.0
C2425 C 0.29068 0.41291 0.93869 0.0
C2426 C 0.29541 0.4147 0.98706 0.0
C2427 C 0.30127 0.39256 0.95129 0.0
C2428 C 0.30447 0.39251 0.02486 0.0
C2429 C 0.28251 0.43304 0.0485 0.0
N2430 N 0.30309 0.39386 0.97479 0.0
N2431 N 0.28505 0.43362 0.02503 0.0
loop_
_geom_bond_atom_site_label_1
_geom_bond_atom_site_label_2
_geom_bond_distance
_geom_bond_site_symmetry_2
_ccdc_geom_bond_type
Sc0 O3 2.025 . S
Sc0 O10 2.105 . S
Sc0 O13 2.105 . S
Sc0 O16 2.105 . S
Sc0 O19 2.105 . S
Sc1 O3 2.025 . S
Sc1 O11 2.105 . S
Sc1 O15 2.105 . S
Sc1 O17 2.105 . S
Sc1 O21 2.105 . S
Sc2 O3 2.025 . S
Sc2 O12 2.105 . S
Sc2 O14 2.105 . S
Sc2 O18 2.105 . S
Sc2 O20 2.105 . S
O3 Sc0 2.025 . S
O3 Sc1 2.025 . S
O3 Sc2 2.025 . S
C4 O10 1.268 . S
C4 O20 1.268 . S
C5 O11 1.268 . S
C5 O19 1.268 . S
C6 O12 1.268 . S
C6 O21 1.268 . S
C7 O13 1.268 . S
C7 O17 1.268 . S
C8 O14 1.268 . S
C8 O16 1.268 . S
C9 O15 1.268 . S
C9 O18 1.268 . S
O10 Sc0 2.105 . S
O10 C4 1.268 . S
O11 Sc1 2.105 . S
O11 C5 1.268 . S
O12 Sc2 2.105 . S
O12 C6 1.268 . S
O13 Sc0 2.105 . S
O13 C7 1.268 . S
O14 Sc2 2.105 . S
O14 C8 1.268 . S
O15 Sc1 2.105 . S
O15 C9 1.268 . S
O16 Sc0 2.105 . S
O16 C8 1.268 . S
O17 Sc1 2.105 . S
O17 C7 1.268 . S
O18 Sc2 2.105 . S
O18 C9 1.268 . S
O19 Sc0 2.105 . S
O19 C5 1.268 . S
O20 Sc2 2.105 . S
O20 C4 1.268 . S
O21 Sc1 2.105 . S
O21 C6 1.268 . S
Sc22 O25 2.025 . S
Sc22 O32 2.105 . S
Sc22 O35 2.105 . S
Sc22 O38 2.105 . S
Sc22 O41 2.105 . S
Sc23 O25 2.025 . S
Sc23 O33 2.105 . S
Sc23 O37 2.105 . S
Sc23 O39 2.105 . S
Sc23 O43 2.105 . S
Sc24 O25 2.025 . S
Sc24 O34 2.105 . S
Sc24 O36 2.105 . S
Sc24 O40 2.105 . S
Sc24 O42 2.105 . S
O25 Sc22 2.025 . S
O25 Sc23 2.025 . S
O25 Sc24 2.025 . S
C26 O32 1.268 . S
C26 O42 1.268 . S
C27 O33 1.268 . S
C27 O41 1.268 . S
C28 O34 1.268 . S
C28 O43 1.268 . S
C29 O35 1.268 . S
C29 O39 1.268 . S
C30 O36 1.268 . S
C30 O38 1.268 . S
C31 O37 1.268 . S
C31 O40 1.268 . S
O32 Sc22 2.105 . S
O32 C26 1.268 . S
O33 Sc23 2.105 . S
O33 C27 1.268 . S
O34 Sc24 2.105 . S
O34 C28 1.268 . S
O35 Sc22 2.105 . S
O35 C29 1.268 . S
O36 Sc24 2.105 . S
O36 C30 1.268 . S
O37 Sc23 2.105 . S
O37 C31 1.268 . S
O38 Sc22 2.105 . S
O38 C30 1.268 . S
O39 Sc23 2.105 . S
O39 C29 1.268 . S
O40 Sc24 2.105 . S
O40 C31 1.268 . S
O41 Sc22 2.105 . S
O41 C27 1.268 . S
O42 Sc24 2.105 . S
O42 C26 1.268 . S
O43 Sc23 2.105 . S
O43 C28 1.268 . S
Sc44 O47 2.025 . S
Sc44 O54 2.105 . S
Sc44 O57 2.105 . S
Sc44 O60 2.105 . S
Sc44 O63 2.105 . S
Sc45 O47 2.025 . S
Sc45 O55 2.105 . S
Sc45 O59 2.105 . S
Sc45 O61 2.105 . S
Sc45 O65 2.105 . S
Sc46 O47 2.025 . S
Sc46 O56 2.105 . S
Sc46 O58 2.105 . S
Sc46 O62 2.105 . S
Sc46 O64 2.105 . S
O47 Sc44 2.025 . S
O47 Sc45 2.025 . S
O47 Sc46 2.025 . S
C48 O54 1.268 . S
C48 O64 1.268 . S
C49 O55 1.268 . S
C49 O63 1.268 . S
C50 O56 1.268 . S
C50 O65 1.268 . S
C51 O57 1.268 . S
C51 O61 1.268 . S
C52 O58 1.268 . S
C52 O60 1.268 . S
C53 O59 1.268 . S
C53 O62 1.268 . S
O54 Sc44 2.105 . S
O54 C48 1.268 . S
O55 Sc45 2.105 . S
O55 C49 1.268 . S
O56 Sc46 2.105 . S
O56 C50 1.268 . S
O57 Sc44 2.105 . S
O57 C51 1.268 . S
O58 Sc46 2.105 . S
O58 C52 1.268 . S
O59 Sc45 2.105 . S
O59 C53 1.268 . S
O60 Sc44 2.105 . S
O60 C52 1.268 . S
O61 Sc45 2.105 . S
O61 C51 1.268 . S
O62 Sc46 2.105 . S
O62 C53 1.268 . S
O63 Sc44 2.105 . S
O63 C49 1.268 . S
O64 Sc46 2.105 . S
O64 C48 1.268 . S
O65 Sc45 2.105 . S
O65 C50 1.268 . S
Sc66 O69 2.025 . S
Sc66 O76 2.105 . S
Sc66 O79 2.105 . S
Sc66 O82 2.105 . S
Sc66 O85 2.105 . S
Sc67 O69 2.025 . S
Sc67 O77 2.105 . S
Sc67 O81 2.105 . S
Sc67 O83 2.105 . S
Sc67 O87 2.105 . S
Sc68 O69 2.025 . S
Sc68 O78 2.105 . S
Sc68 O80 2.105 . S
Sc68 O84 2.105 . S
Sc68 O86 2.105 . S
O69 Sc66 2.025 . S
O69 Sc67 2.025 . S
O69 Sc68 2.025 . S
C70 O76 1.268 . S
C70 O86 1.268 . S
C71 O77 1.268 . S
C71 O85 1.268 . S
C72 O78 1.268 . S
C72 O87 1.268 . S
C73 O79 1.268 . S
C73 O83 1.268 . S
C74 O80 1.268 . S
C74 O82 1.268 . S
C75 O81 1.268 . S
C75 O84 1.268 . S
O76 Sc66 2.105 . S
O76 C70 1.268 . S
O77 Sc67 2.105 . S
O77 C71 1.268 . S
O78 Sc68 2.105 . S
O78 C72 1.268 . S
O79 Sc66 2.105 . S
O79 C73 1.268 . S
O80 Sc68 2.105 . S
O80 C74 1.268 . S
O81 Sc67 2.105 . S
O81 C75 1.268 . S
O82 Sc66 2.105 . S
O82 C74 1.268 . S
O83 Sc67 2.105 . S
O83 C73 1.268 . S
O84 Sc68 2.105 . S
O84 C75 1.268 . S
O85 Sc66 2.105 . S
O85 C71 1.268 . S
O86 Sc68 2.105 . S
O86 C70 1.268 . S
O87 Sc67 2.105 . S
O87 C72 1.268 . S
Sc88 O91 2.025 . S
Sc88 O98 2.105 . S
Sc88 O101 2.105 . S
Sc88 O104 2.105 . S
Sc88 O107 2.105 . S
Sc89 O91 2.025 . S
Sc89 O99 2.105 . S
Sc89 O103 2.105 . S
Sc89 O105 2.105 . S
Sc89 O109 2.105 . S
Sc90 O91 2.025 . S
Sc90 O100 2.105 . S
Sc90 O102 2.105 . S
Sc90 O106 2.105 . S
Sc90 O108 2.105 . S
O91 Sc88 2.025 . S
O91 Sc89 2.025 . S
O91 Sc90 2.025 . S
C92 O98 1.268 . S
C92 O108 1.268 . S
C93 O99 1.268 . S
C93 O107 1.268 . S
C94 O100 1.268 . S
C94 O109 1.268 . S
C95 O101 1.268 . S
C95 O105 1.268 . S
C96 O102 1.268 . S
C96 O104 1.268 . S
C97 O103 1.268 . S
C97 O106 1.268 . S
O98 Sc88 2.105 . S
O98 C92 1.268 . S
O99 Sc89 2.105 . S
O99 C93 1.268 . S
O100 Sc90 2.105 . S
O100 C94 1.268 . S
O101 Sc88 2.105 . S
O101 C95 1.268 . S
O102 Sc90 2.105 . S
O102 C96 1.268 . S
O103 Sc89 2.105 . S
O103 C97 1.268 . S
O104 Sc88 2.105 . S
O104 C96 1.268 . S
O105 Sc89 2.105 . S
O105 C95 1.268 . S
O106 Sc90 2.105 . S
O106 C97 1.268 . S
O107 Sc88 2.105 . S
O107 C93 1.268 . S
O108 Sc90 2.105 . S
O108 C92 1.268 . S
O109 Sc89 2.105 . S
O109 C94 1.268 . S
Sc110 O113 2.025 . S
Sc110 O120 2.105 . S
Sc110 O123 2.105 . S
Sc110 O126 2.105 . S
Sc110 O129 2.105 . S
Sc111 O113 2.025 . S
Sc111 O121 2.105 . S
Sc111 O125 2.105 . S
Sc111 O127 2.105 . S
Sc111 O131 2.105 . S
Sc112 O113 2.025 . S
Sc112 O122 2.105 . S
Sc112 O124 2.105 . S
Sc112 O128 2.105 . S
Sc112 O130 2.105 . S
O113 Sc110 2.025 . S
O113 Sc111 2.025 . S
O113 Sc112 2.025 . S
C114 O120 1.268 . S
C114 O130 1.268 . S
C115 O121 1.268 . S
C115 O129 1.268 . S
C116 O122 1.268 . S
C116 O131 1.268 . S
C117 O123 1.268 . S
C117 O127 1.268 . S
C118 O124 1.268 . S
C118 O126 1.268 . S
C119 O125 1.268 . S
C119 O128 1.268 . S
O120 Sc110 2.105 . S
O120 C114 1.268 . S
O121 Sc111 2.105 . S
O121 C115 1.268 . S
O122 Sc112 2.105 . S
O122 C116 1.268 . S
O123 Sc110 2.105 . S
O123 C117 1.268 . S
O124 Sc112 2.105 . S
O124 C118 1.268 . S
O125 Sc111 2.105 . S
O125 C119 1.268 . S
O126 Sc110 2.105 . S
O126 C118 1.268 . S
O127 Sc111 2.105 . S
O127 C117 1.268 . S
O128 Sc112 2.105 . S
O128 C119 1.268 . S
O129 Sc110 2.105 . S
O129 C115 1.268 . S
O130 Sc112 2.105 . S
O130 C114 1.268 . S
O131 Sc111 2.105 . S
O131 C116 1.268 . S
Sc132 O135 2.025 . S
Sc132 O142 2.105 . S
Sc132 O145 2.105 . S
Sc132 O148 2.105 . S
Sc132 O151 2.105 . S
Sc133 O135 2.025 . S
Sc133 O143 2.105 . S
Sc133 O147 2.105 . S
Sc133 O149 2.105 . S
Sc133 O153 2.105 . S
Sc134 O135 2.025 . S
Sc134 O144 2.105 . S
Sc134 O146 2.105 . S
Sc134 O150 2.105 . S
Sc134 O152 2.105 . S
O135 Sc132 2.025 . S
O135 Sc133 2.025 . S
O135 Sc134 2.025 . S
C136 O142 1.268 . S
C136 O152 1.268 . S
C137 O143 1.268 . S
C137 O151 1.268 . S
C138 O144 1.268 . S
C138 O153 1.268 . S
C139 O145 1.268 . S
C139 O149 1.268 . S
C140 O146 1.268 . S
C140 O148 1.268 . S
C141 O147 1.268 . S
C141 O150 1.268 . S
O142 Sc132 2.105 . S
O142 C136 1.268 . S
O143 Sc133 2.105 . S
O143 C137 1.268 . S
O144 Sc134 2.105 . S
O144 C138 1.268 . S
O145 Sc132 2.105 . S
O145 C139 1.268 . S
O146 Sc134 2.105 . S
O146 C140 1.268 . S
O147 Sc133 2.105 . S
O147 C141 1.268 . S
O148 Sc132 2.105 . S
O148 C140 1.268 . S
O149 Sc133 2.105 . S
O149 C139 1.268 . S
O150 Sc134 2.105 . S
O150 C141 1.268 . S
O151 Sc132 2.105 . S
O151 C137 1.268 . S
O152 Sc134 2.105 . S
O152 C136 1.268 . S
O153 Sc133 2.105 . S
O153 C138 1.268 . S
Sc154 O157 2.025 . S
Sc154 O164 2.105 . S
Sc154 O167 2.105 . S
Sc154 O170 2.105 . S
Sc154 O173 2.105 . S
Sc155 O157 2.025 . S
Sc155 O165 2.105 . S
Sc155 O169 2.105 . S
Sc155 O171 2.105 . S
Sc155 O175 2.105 . S
Sc156 O157 2.025 . S
Sc156 O166 2.105 . S
Sc156 O168 2.105 . S
Sc156 O172 2.105 . S
Sc156 O174 2.105 . S
O157 Sc154 2.025 . S
O157 Sc155 2.025 . S
O157 Sc156 2.025 . S
C158 O164 1.268 . S
C158 O174 1.268 . S
C159 O165 1.268 . S
C159 O173 1.268 . S
C160 O166 1.268 . S
C160 O175 1.268 . S
C161 O167 1.268 . S
C161 O171 1.268 . S
C162 O168 1.268 . S
C162 O170 1.268 . S
C163 O169 1.268 . S
C163 O172 1.268 . S
O164 Sc154 2.105 . S
O164 C158 1.268 . S
O165 Sc155 2.105 . S
O165 C159 1.268 . S
O166 Sc156 2.105 . S
O166 C160 1.268 . S
O167 Sc154 2.105 . S
O167 C161 1.268 . S
O168 Sc156 2.105 . S
O168 C162 1.268 . S
O169 Sc155 2.105 . S
O169 C163 1.268 . S
O170 Sc154 2.105 . S
O170 C162 1.268 . S
O171 Sc155 2.105 . S
O171 C161 1.268 . S
O172 Sc156 2.105 . S
O172 C163 1.268 . S
O173 Sc154 2.105 . S
O173 C159 1.268 . S
O174 Sc156 2.105 . S
O174 C158 1.268 . S
O175 Sc155 2.105 . S
O175 C160 1.268 . S
Sc176 O179 2.025 . S
Sc176 O186 2.105 . S
Sc176 O189 2.105 . S
Sc176 O192 2.105 . S
Sc176 O195 2.105 . S
Sc177 O179 2.025 . S
Sc177 O187 2.105 . S
Sc177 O191 2.105 . S
Sc177 O193 2.105 . S
Sc177 O197 2.105 . S
Sc178 O179 2.025 . S
Sc178 O188 2.105 . S
Sc178 O190 2.105 . S
Sc178 O194 2.105 . S
Sc178 O196 2.105 . S
O179 Sc176 2.025 . S
O179 Sc177 2.025 . S
O179 Sc178 2.025 . S
C180 O186 1.268 . S
C180 O196 1.268 . S
C181 O187 1.268 . S
C181 O195 1.268 . S
C182 O188 1.268 . S
C182 O197 1.268 . S
C183 O189 1.268 . S
C183 O193 1.268 . S
C184 O190 1.268 . S
C184 O192 1.268 . S
C185 O191 1.268 . S
C185 O194 1.268 . S
O186 Sc176 2.105 . S
O186 C180 1.268 . S
O187 Sc177 2.105 . S
O187 C181 1.268 . S
O188 Sc178 2.105 . S
O188 C182 1.268 . S
O189 Sc176 2.105 . S
O189 C183 1.268 . S
O190 Sc178 2.105 . S
O190 C184 1.268 . S
O191 Sc177 2.105 . S
O191 C185 1.268 . S
O192 Sc176 2.105 . S
O192 C184 1.268 . S
O193 Sc177 2.105 . S
O193 C183 1.268 . S
O194 Sc178 2.105 . S
O194 C185 1.268 . S
O195 Sc176 2.105 . S
O195 C181 1.268 . S
O196 Sc178 2.105 . S
O196 C180 1.268 . S
O197 Sc177 2.105 . S
O197 C182 1.268 . S
Sc198 O201 2.025 . S
Sc198 O208 2.105 . S
Sc198 O211 2.105 . S
Sc198 O214 2.105 . S
Sc198 O217 2.105 . S
Sc199 O201 2.025 . S
Sc199 O209 2.105 . S
Sc199 O213 2.105 . S
Sc199 O215 2.105 . S
Sc199 O219 2.105 . S
Sc200 O201 2.025 . S
Sc200 O210 2.105 . S
Sc200 O212 2.105 . S
Sc200 O216 2.105 . S
Sc200 O218 2.105 . S
O201 Sc198 2.025 . S
O201 Sc199 2.025 . S
O201 Sc200 2.025 . S
C202 O208 1.268 . S
C202 O218 1.268 . S
C203 O209 1.268 . S
C203 O217 1.268 . S
C204 O210 1.268 . S
C204 O219 1.268 . S
C205 O211 1.268 . S
C205 O215 1.268 . S
C206 O212 1.268 . S
C206 O214 1.268 . S
C207 O213 1.268 . S
C207 O216 1.268 . S
O208 Sc198 2.105 . S
O208 C202 1.268 . S
O209 Sc199 2.105 . S
O209 C203 1.268 . S
O210 Sc200 2.105 . S
O210 C204 1.268 . S
O211 Sc198 2.105 . S
O211 C205 1.268 . S
O212 Sc200 2.105 . S
O212 C206 1.268 . S
O213 Sc199 2.105 . S
O213 C207 1.268 . S
O214 Sc198 2.105 . S
O214 C206 1.268 . S
O215 Sc199 2.105 . S
O215 C205 1.268 . S
O216 Sc200 2.105 . S
O216 C207 1.268 . S
O217 Sc198 2.105 . S
O217 C203 1.268 . S
O218 Sc200 2.105 . S
O218 C202 1.268 . S
O219 Sc199 2.105 . S
O219 C204 1.268 . S
Sc220 O223 2.025 . S
Sc220 O230 2.105 . S
Sc220 O233 2.105 . S
Sc220 O236 2.105 . S
Sc220 O239 2.105 . S
Sc221 O223 2.025 . S
Sc221 O231 2.105 . S
Sc221 O235 2.105 . S
Sc221 O237 2.105 . S
Sc221 O241 2.105 . S
Sc222 O223 2.025 . S
Sc222 O232 2.105 . S
Sc222 O234 2.105 . S
Sc222 O238 2.105 . S
Sc222 O240 2.105 . S
O223 Sc220 2.025 . S
O223 Sc221 2.025 . S
O223 Sc222 2.025 . S
C224 O230 1.268 . S
C224 O240 1.268 . S
C225 O231 1.268 . S
C225 O239 1.268 . S
C226 O232 1.268 . S
C226 O241 1.268 . S
C227 O233 1.268 . S
C227 O237 1.268 . S
C228 O234 1.268 . S
C228 O236 1.268 . S
C229 O235 1.268 . S
C229 O238 1.268 . S
O230 Sc220 2.105 . S
O230 C224 1.268 . S
O231 Sc221 2.105 . S
O231 C225 1.268 . S
O232 Sc222 2.105 . S
O232 C226 1.268 . S
O233 Sc220 2.105 . S
O233 C227 1.268 . S
O234 Sc222 2.105 . S
O234 C228 1.268 . S
O235 Sc221 2.105 . S
O235 C229 1.268 . S
O236 Sc220 2.105 . S
O236 C228 1.268 . S
O237 Sc221 2.105 . S
O237 C227 1.268 . S
O238 Sc222 2.105 . S
O238 C229 1.268 . S
O239 Sc220 2.105 . S
O239 C225 1.268 . S
O240 Sc222 2.105 . S
O240 C224 1.268 . S
O241 Sc221 2.105 . S
O241 C226 1.268 . S
Sc242 O245 2.025 . S
Sc242 O252 2.105 . S
Sc242 O255 2.105 . S
Sc242 O258 2.105 . S
Sc242 O261 2.105 . S
Sc243 O245 2.025 . S
Sc243 O253 2.105 . S
Sc243 O257 2.105 . S
Sc243 O259 2.105 . S
Sc243 O263 2.105 . S
Sc244 O245 2.025 . S
Sc244 O254 2.105 . S
Sc244 O256 2.105 . S
Sc244 O260 2.105 . S
Sc244 O262 2.105 . S
O245 Sc242 2.025 . S
O245 Sc243 2.025 . S
O245 Sc244 2.025 . S
C246 O252 1.268 . S
C246 O262 1.268 . S
C247 O253 1.268 . S
C247 O261 1.268 . S
C248 O254 1.268 . S
C248 O263 1.268 . S
C249 O255 1.268 . S
C249 O259 1.268 . S
C250 O256 1.268 . S
C250 O258 1.268 . S
C251 O257 1.268 . S
C251 O260 1.268 . S
O252 Sc242 2.105 . S
O252 C246 1.268 . S
O253 Sc243 2.105 . S
O253 C247 1.268 . S
O254 Sc244 2.105 . S
O254 C248 1.268 . S
O255 Sc242 2.105 . S
O255 C249 1.268 . S
O256 Sc244 2.105 . S
O256 C250 1.268 . S
O257 Sc243 2.105 . S
O257 C251 1.268 . S
O258 Sc242 2.105 . S
O258 C250 1.268 . S
O259 Sc243 2.105 . S
O259 C249 1.268 . S
O260 Sc244 2.105 . S
O260 C251 1.268 . S
O261 Sc242 2.105 . S
O261 C247 1.268 . S
O262 Sc244 2.105 . S
O262 C246 1.268 . S
O263 Sc243 2.105 . S
O263 C248 1.268 . S
Sc264 O267 2.025 . S
Sc264 O274 2.105 . S
Sc264 O277 2.105 . S
Sc264 O280 2.105 . S
Sc264 O283 2.105 . S
Sc265 O267 2.025 . S
Sc265 O275 2.105 . S
Sc265 O279 2.105 . S
Sc265 O281 2.105 . S
Sc265 O285 2.105 . S
Sc266 O267 2.025 . S
Sc266 O276 2.105 . S
Sc266 O278 2.105 . S
Sc266 O282 2.105 . S
Sc266 O284 2.105 . S
O267 Sc264 2.025 . S
O267 Sc265 2.025 . S
O267 Sc266 2.025 . S
C268 O274 1.268 . S
C268 O284 1.268 . S
C269 O275 1.268 . S
C269 O283 1.268 . S
C270 O276 1.268 . S
C270 O285 1.268 . S
C271 O277 1.268 . S
C271 O281 1.268 . S
C272 O278 1.268 . S
C272 O280 1.268 . S
C273 O279 1.268 . S
C273 O282 1.268 . S
O274 Sc264 2.105 . S
O274 C268 1.268 . S
O275 Sc265 2.105 . S
O275 C269 1.268 . S
O276 Sc266 2.105 . S
O276 C270 1.268 . S
O277 Sc264 2.105 . S
O277 C271 1.268 . S
O278 Sc266 2.105 . S
O278 C272 1.268 . S
O279 Sc265 2.105 . S
O279 C273 1.268 . S
O280 Sc264 2.105 . S
O280 C272 1.268 . S
O281 Sc265 2.105 . S
O281 C271 1.268 . S
O282 Sc266 2.105 . S
O282 C273 1.268 . S
O283 Sc264 2.105 . S
O283 C269 1.268 . S
O284 Sc266 2.105 . S
O284 C268 1.268 . S
O285 Sc265 2.105 . S
O285 C270 1.268 . S
Sc286 O289 2.025 . S
Sc286 O296 2.105 . S
Sc286 O299 2.105 . S
Sc286 O302 2.105 . S
Sc286 O305 2.105 . S
Sc287 O289 2.025 . S
Sc287 O297 2.105 . S
Sc287 O301 2.105 . S
Sc287 O303 2.105 . S
Sc287 O307 2.105 . S
Sc288 O289 2.025 . S
Sc288 O298 2.105 . S
Sc288 O300 2.105 . S
Sc288 O304 2.105 . S
Sc288 O306 2.105 . S
O289 Sc286 2.025 . S
O289 Sc287 2.025 . S
O289 Sc288 2.025 . S
C290 O296 1.268 . S
C290 O306 1.268 . S
C291 O297 1.268 . S
C291 O305 1.268 . S
C292 O298 1.268 . S
C292 O307 1.268 . S
C293 O299 1.268 . S
C293 O303 1.268 . S
C294 O300 1.268 . S
C294 O302 1.268 . S
C295 O301 1.268 . S
C295 O304 1.268 . S
O296 Sc286 2.105 . S
O296 C290 1.268 . S
O297 Sc287 2.105 . S
O297 C291 1.268 . S
O298 Sc288 2.105 . S
O298 C292 1.268 . S
O299 Sc286 2.105 . S
O299 C293 1.268 . S
O300 Sc288 2.105 . S
O300 C294 1.268 . S
O301 Sc287 2.105 . S
O301 C295 1.268 . S
O302 Sc286 2.105 . S
O302 C294 1.268 . S
O303 Sc287 2.105 . S
O303 C293 1.268 . S
O304 Sc288 2.105 . S
O304 C295 1.268 . S
O305 Sc286 2.105 . S
O305 C291 1.268 . S
O306 Sc288 2.105 . S
O306 C290 1.268 . S
O307 Sc287 2.105 . S
O307 C292 1.268 . S
Sc308 O311 2.025 . S
Sc308 O318 2.105 . S
Sc308 O321 2.105 . S
Sc308 O324 2.105 . S
Sc308 O327 2.105 . S
Sc309 O311 2.025 . S
Sc309 O319 2.105 . S
Sc309 O323 2.105 . S
Sc309 O325 2.105 . S
Sc309 O329 2.105 . S
Sc310 O311 2.025 . S
Sc310 O320 2.105 . S
Sc310 O322 2.105 . S
Sc310 O326 2.105 . S
Sc310 O328 2.105 . S
O311 Sc308 2.025 . S
O311 Sc309 2.025 . S
O311 Sc310 2.025 . S
C312 O318 1.268 . S
C312 O328 1.268 . S
C313 O319 1.268 . S
C313 O327 1.268 . S
C314 O320 1.268 . S
C314 O329 1.268 . S
C315 O321 1.268 . S
C315 O325 1.268 . S
C316 O322 1.268 . S
C316 O324 1.268 . S
C317 O323 1.268 . S
C317 O326 1.268 . S
O318 Sc308 2.105 . S
O318 C312 1.268 . S
O319 Sc309 2.105 . S
O319 C313 1.268 . S
O320 Sc310 2.105 . S
O320 C314 1.268 . S
O321 Sc308 2.105 . S
O321 C315 1.268 . S
O322 Sc310 2.105 . S
O322 C316 1.268 . S
O323 Sc309 2.105 . S
O323 C317 1.268 . S
O324 Sc308 2.105 . S
O324 C316 1.268 . S
O325 Sc309 2.105 . S
O325 C315 1.268 . S
O326 Sc310 2.105 . S
O326 C317 1.268 . S
O327 Sc308 2.105 . S
O327 C313 1.268 . S
O328 Sc310 2.105 . S
O328 C312 1.268 . S
O329 Sc309 2.105 . S
O329 C314 1.268 . S
Sc330 O333 2.025 . S
Sc330 O340 2.105 . S
Sc330 O343 2.105 . S
Sc330 O346 2.105 . S
Sc330 O349 2.105 . S
Sc331 O333 2.025 . S
Sc331 O341 2.105 . S
Sc331 O345 2.105 . S
Sc331 O347 2.105 . S
Sc331 O351 2.105 . S
Sc332 O333 2.025 . S
Sc332 O342 2.105 . S
Sc332 O344 2.105 . S
Sc332 O348 2.105 . S
Sc332 O350 2.105 . S
O333 Sc330 2.025 . S
O333 Sc331 2.025 . S
O333 Sc332 2.025 . S
C334 O340 1.268 . S
C334 O350 1.268 . S
C335 O341 1.268 . S
C335 O349 1.268 . S
C336 O342 1.268 . S
C336 O351 1.268 . S
C337 O343 1.268 . S
C337 O347 1.268 . S
C338 O344 1.268 . S
C338 O346 1.268 . S
C339 O345 1.268 . S
C339 O348 1.268 . S
O340 Sc330 2.105 . S
O340 C334 1.268 . S
O341 Sc331 2.105 . S
O341 C335 1.268 . S
O342 Sc332 2.105 . S
O342 C336 1.268 . S
O343 Sc330 2.105 . S
O343 C337 1.268 . S
O344 Sc332 2.105 . S
O344 C338 1.268 . S
O345 Sc331 2.105 . S
O345 C339 1.268 . S
O346 Sc330 2.105 . S
O346 C338 1.268 . S
O347 Sc331 2.105 . S
O347 C337 1.268 . S
O348 Sc332 2.105 . S
O348 C339 1.268 . S
O349 Sc330 2.105 . S
O349 C335 1.268 . S
O350 Sc332 2.105 . S
O350 C334 1.268 . S
O351 Sc331 2.105 . S
O351 C336 1.268 . S
Sc352 O355 2.025 . S
Sc352 O362 2.105 . S
Sc352 O365 2.105 . S
Sc352 O368 2.105 . S
Sc352 O371 2.105 . S
Sc353 O355 2.025 . S
Sc353 O363 2.105 . S
Sc353 O367 2.105 . S
Sc353 O369 2.105 . S
Sc353 O373 2.105 . S
Sc354 O355 2.025 . S
Sc354 O364 2.105 . S
Sc354 O366 2.105 . S
Sc354 O370 2.105 . S
Sc354 O372 2.105 . S
O355 Sc352 2.025 . S
O355 Sc353 2.025 . S
O355 Sc354 2.025 . S
C356 O362 1.268 . S
C356 O372 1.268 . S
C357 O363 1.268 . S
C357 O371 1.268 . S
C358 O364 1.268 . S
C358 O373 1.268 . S
C359 O365 1.268 . S
C359 O369 1.268 . S
C360 O366 1.268 . S
C360 O368 1.268 . S
C361 O367 1.268 . S
C361 O370 1.268 . S
O362 Sc352 2.105 . S
O362 C356 1.268 . S
O363 Sc353 2.105 . S
O363 C357 1.268 . S
O364 Sc354 2.105 . S
O364 C358 1.268 . S
O365 Sc352 2.105 . S
O365 C359 1.268 . S
O366 Sc354 2.105 . S
O366 C360 1.268 . S
O367 Sc353 2.105 . S
O367 C361 1.268 . S
O368 Sc352 2.105 . S
O368 C360 1.268 . S
O369 Sc353 2.105 . S
O369 C359 1.268 . S
O370 Sc354 2.105 . S
O370 C361 1.268 . S
O371 Sc352 2.105 . S
O371 C357 1.268 . S
O372 Sc354 2.105 . S
O372 C356 1.268 . S
O373 Sc353 2.105 . S
O373 C358 1.268 . S
Sc374 O377 2.025 . S
Sc374 O384 2.105 . S
Sc374 O387 2.105 . S
Sc374 O390 2.105 . S
Sc374 O393 2.105 . S
Sc375 O377 2.025 . S
Sc375 O385 2.105 . S
Sc375 O389 2.105 . S
Sc375 O391 2.105 . S
Sc375 O395 2.105 . S
Sc376 O377 2.025 . S
Sc376 O386 2.105 . S
Sc376 O388 2.105 . S
Sc376 O392 2.105 . S
Sc376 O394 2.105 . S
O377 Sc374 2.025 . S
O377 Sc375 2.025 . S
O377 Sc376 2.025 . S
C378 O384 1.268 . S
C378 O394 1.268 . S
C379 O385 1.268 . S
C379 O393 1.268 . S
C380 O386 1.268 . S
C380 O395 1.268 . S
C381 O387 1.268 . S
C381 O391 1.268 . S
C382 O388 1.268 . S
C382 O390 1.268 . S
C383 O389 1.268 . S
C383 O392 1.268 . S
O384 Sc374 2.105 . S
O384 C378 1.268 . S
O385 Sc375 2.105 . S
O385 C379 1.268 . S
O386 Sc376 2.105 . S
O386 C380 1.268 . S
O387 Sc374 2.105 . S
O387 C381 1.268 . S
O388 Sc376 2.105 . S
O388 C382 1.268 . S
O389 Sc375 2.105 . S
O389 C383 1.268 . S
O390 Sc374 2.105 . S
O390 C382 1.268 . S
O391 Sc375 2.105 . S
O391 C381 1.268 . S
O392 Sc376 2.105 . S
O392 C383 1.268 . S
O393 Sc374 2.105 . S
O393 C379 1.268 . S
O394 Sc376 2.105 . S
O394 C378 1.268 . S
O395 Sc375 2.105 . S
O395 C380 1.268 . S
Sc396 O399 2.025 . S
Sc396 O406 2.105 . S
Sc396 O409 2.105 . S
Sc396 O412 2.105 . S
Sc396 O415 2.105 . S
Sc397 O399 2.025 . S
Sc397 O407 2.105 . S
Sc397 O411 2.105 . S
Sc397 O413 2.105 . S
Sc397 O417 2.105 . S
Sc398 O399 2.025 . S
Sc398 O408 2.105 . S
Sc398 O410 2.105 . S
Sc398 O414 2.105 . S
Sc398 O416 2.105 . S
O399 Sc396 2.025 . S
O399 Sc397 2.025 . S
O399 Sc398 2.025 . S
C400 O406 1.268 . S
C400 O416 1.268 . S
C401 O407 1.268 . S
C401 O415 1.268 . S
C402 O408 1.268 . S
C402 O417 1.268 . S
C403 O409 1.268 . S
C403 O413 1.268 . S
C404 O410 1.268 . S
C404 O412 1.268 . S
C405 O411 1.268 . S
C405 O414 1.268 . S
O406 Sc396 2.105 . S
O406 C400 1.268 . S
O407 Sc397 2.105 . S
O407 C401 1.268 . S
O408 Sc398 2.105 . S
O408 C402 1.268 . S
O409 Sc396 2.105 . S
O409 C403 1.268 . S
O410 Sc398 2.105 . S
O410 C404 1.268 . S
O411 Sc397 2.105 . S
O411 C405 1.268 . S
O412 Sc396 2.105 . S
O412 C404 1.268 . S
O413 Sc397 2.105 . S
O413 C403 1.268 . S
O414 Sc398 2.105 . S
O414 C405 1.268 . S
O415 Sc396 2.105 . S
O415 C401 1.268 . S
O416 Sc398 2.105 . S
O416 C400 1.268 . S
O417 Sc397 2.105 . S
O417 C402 1.268 . S
Sc418 O421 2.025 . S
Sc418 O428 2.105 . S
Sc418 O431 2.105 . S
Sc418 O434 2.105 . S
Sc418 O437 2.105 . S
Sc419 O421 2.025 . S
Sc419 O429 2.105 . S
Sc419 O433 2.105 . S
Sc419 O435 2.105 . S
Sc419 O439 2.105 . S
Sc420 O421 2.025 . S
Sc420 O430 2.105 . S
Sc420 O432 2.105 . S
Sc420 O436 2.105 . S
Sc420 O438 2.105 . S
O421 Sc418 2.025 . S
O421 Sc419 2.025 . S
O421 Sc420 2.025 . S
C422 O428 1.268 . S
C422 O438 1.268 . S
C423 O429 1.268 . S
C423 O437 1.268 . S
C424 O430 1.268 . S
C424 O439 1.268 . S
C425 O431 1.268 . S
C425 O435 1.268 . S
C426 O432 1.268 . S
C426 O434 1.268 . S
C427 O433 1.268 . S
C427 O436 1.268 . S
O428 Sc418 2.105 . S
O428 C422 1.268 . S
O429 Sc419 2.105 . S
O429 C423 1.268 . S
O430 Sc420 2.105 . S
O430 C424 1.268 . S
O431 Sc418 2.105 . S
O431 C425 1.268 . S
O432 Sc420 2.105 . S
O432 C426 1.268 . S
O433 Sc419 2.105 . S
O433 C427 1.268 . S
O434 Sc418 2.105 . S
O434 C426 1.268 . S
O435 Sc419 2.105 . S
O435 C425 1.268 . S
O436 Sc420 2.105 . S
O436 C427 1.268 . S
O437 Sc418 2.105 . S
O437 C423 1.268 . S
O438 Sc420 2.105 . S
O438 C422 1.268 . S
O439 Sc419 2.105 . S
O439 C424 1.268 . S
Sc440 O443 2.025 . S
Sc440 O450 2.105 . S
Sc440 O453 2.105 . S
Sc440 O456 2.105 . S
Sc440 O459 2.105 . S
Sc441 O443 2.025 . S
Sc441 O451 2.105 . S
Sc441 O455 2.105 . S
Sc441 O457 2.105 . S
Sc441 O461 2.105 . S
Sc442 O443 2.025 . S
Sc442 O452 2.105 . S
Sc442 O454 2.105 . S
Sc442 O458 2.105 . S
Sc442 O460 2.105 . S
O443 Sc440 2.025 . S
O443 Sc441 2.025 . S
O443 Sc442 2.025 . S
C444 O450 1.268 . S
C444 O460 1.268 . S
C445 O451 1.268 . S
C445 O459 1.268 . S
C446 O452 1.268 . S
C446 O461 1.268 . S
C447 O453 1.268 . S
C447 O457 1.268 . S
C448 O454 1.268 . S
C448 O456 1.268 . S
C449 O455 1.268 . S
C449 O458 1.268 . S
O450 Sc440 2.105 . S
O450 C444 1.268 . S
O451 Sc441 2.105 . S
O451 C445 1.268 . S
O452 Sc442 2.105 . S
O452 C446 1.268 . S
O453 Sc440 2.105 . S
O453 C447 1.268 . S
O454 Sc442 2.105 . S
O454 C448 1.268 . S
O455 Sc441 2.105 . S
O455 C449 1.268 . S
O456 Sc440 2.105 . S
O456 C448 1.268 . S
O457 Sc441 2.105 . S
O457 C447 1.268 . S
O458 Sc442 2.105 . S
O458 C449 1.268 . S
O459 Sc440 2.105 . S
O459 C445 1.268 . S
O460 Sc442 2.105 . S
O460 C444 1.268 . S
O461 Sc441 2.105 . S
O461 C446 1.268 . S
Sc462 O465 2.025 . S
Sc462 O472 2.105 . S
Sc462 O475 2.105 . S
Sc462 O478 2.105 . S
Sc462 O481 2.105 . S
Sc463 O465 2.025 . S
Sc463 O473 2.105 . S
Sc463 O477 2.105 . S
Sc463 O479 2.105 . S
Sc463 O483 2.105 . S
Sc464 O465 2.025 . S
Sc464 O474 2.105 . S
Sc464 O476 2.105 . S
Sc464 O480 2.105 . S
Sc464 O482 2.105 . S
O465 Sc462 2.025 . S
O465 Sc463 2.025 . S
O465 Sc464 2.025 . S
C466 O472 1.268 . S
C466 O482 1.268 . S
C467 O473 1.268 . S
C467 O481 1.268 . S
C468 O474 1.268 . S
C468 O483 1.268 . S
C469 O475 1.268 . S
C469 O479 1.268 . S
C470 O476 1.268 . S
C470 O478 1.268 . S
C471 O477 1.268 . S
C471 O480 1.268 . S
O472 Sc462 2.105 . S
O472 C466 1.268 . S
O473 Sc463 2.105 . S
O473 C467 1.268 . S
O474 Sc464 2.105 . S
O474 C468 1.268 . S
O475 Sc462 2.105 . S
O475 C469 1.268 . S
O476 Sc464 2.105 . S
O476 C470 1.268 . S
O477 Sc463 2.105 . S
O477 C471 1.268 . S
O478 Sc462 2.105 . S
O478 C470 1.268 . S
O479 Sc463 2.105 . S
O479 C469 1.268 . S
O480 Sc464 2.105 . S
O480 C471 1.268 . S
O481 Sc462 2.105 . S
O481 C467 1.268 . S
O482 Sc464 2.105 . S
O482 C466 1.268 . S
O483 Sc463 2.105 . S
O483 C468 1.268 . S
Sc484 O487 2.025 . S
Sc484 O494 2.105 . S
Sc484 O497 2.105 . S
Sc484 O500 2.105 . S
Sc484 O503 2.105 . S
Sc485 O487 2.025 . S
Sc485 O495 2.105 . S
Sc485 O499 2.105 . S
Sc485 O501 2.105 . S
Sc485 O505 2.105 . S
Sc486 O487 2.025 . S
Sc486 O496 2.105 . S
Sc486 O498 2.105 . S
Sc486 O502 2.105 . S
Sc486 O504 2.105 . S
O487 Sc484 2.025 . S
O487 Sc485 2.025 . S
O487 Sc486 2.025 . S
C488 O494 1.268 . S
C488 O504 1.268 . S
C489 O495 1.268 . S
C489 O503 1.268 . S
C490 O496 1.268 . S
C490 O505 1.268 . S
C491 O497 1.268 . S
C491 O501 1.268 . S
C492 O498 1.268 . S
C492 O500 1.268 . S
C493 O499 1.268 . S
C493 O502 1.268 . S
O494 Sc484 2.105 . S
O494 C488 1.268 . S
O495 Sc485 2.105 . S
O495 C489 1.268 . S
O496 Sc486 2.105 . S
O496 C490 1.268 . S
O497 Sc484 2.105 . S
O497 C491 1.268 . S
O498 Sc486 2.105 . S
O498 C492 1.268 . S
O499 Sc485 2.105 . S
O499 C493 1.268 . S
O500 Sc484 2.105 . S
O500 C492 1.268 . S
O501 Sc485 2.105 . S
O501 C491 1.268 . S
O502 Sc486 2.105 . S
O502 C493 1.268 . S
O503 Sc484 2.105 . S
O503 C489 1.268 . S
O504 Sc486 2.105 . S
O504 C488 1.268 . S
O505 Sc485 2.105 . S
O505 C490 1.268 . S
Sc506 O509 2.025 . S
Sc506 O516 2.105 . S
Sc506 O519 2.105 . S
Sc506 O522 2.105 . S
Sc506 O525 2.105 . S
Sc507 O509 2.025 . S
Sc507 O517 2.105 . S
Sc507 O521 2.105 . S
Sc507 O523 2.105 . S
Sc507 O527 2.105 . S
Sc508 O509 2.025 . S
Sc508 O518 2.105 . S
Sc508 O520 2.105 . S
Sc508 O524 2.105 . S
Sc508 O526 2.105 . S
O509 Sc506 2.025 . S
O509 Sc507 2.025 . S
O509 Sc508 2.025 . S
C510 O516 1.268 . S
C510 O526 1.268 . S
C511 O517 1.268 . S
C511 O525 1.268 . S
C512 O518 1.268 . S
C512 O527 1.268 . S
C513 O519 1.268 . S
C513 O523 1.268 . S
C514 O520 1.268 . S
C514 O522 1.268 . S
C515 O521 1.268 . S
C515 O524 1.268 . S
O516 Sc506 2.105 . S
O516 C510 1.268 . S
O517 Sc507 2.105 . S
O517 C511 1.268 . S
O518 Sc508 2.105 . S
O518 C512 1.268 . S
O519 Sc506 2.105 . S
O519 C513 1.268 . S
O520 Sc508 2.105 . S
O520 C514 1.268 . S
O521 Sc507 2.105 . S
O521 C515 1.268 . S
O522 Sc506 2.105 . S
O522 C514 1.268 . S
O523 Sc507 2.105 . S
O523 C513 1.268 . S
O524 Sc508 2.105 . S
O524 C515 1.268 . S
O525 Sc506 2.105 . S
O525 C511 1.268 . S
O526 Sc508 2.105 . S
O526 C510 1.268 . S
O527 Sc507 2.105 . S
O527 C512 1.268 . S
Sc528 O531 2.025 . S
Sc528 O538 2.105 . S
Sc528 O541 2.105 . S
Sc528 O544 2.105 . S
Sc528 O547 2.105 . S
Sc529 O531 2.025 . S
Sc529 O539 2.105 . S
Sc529 O543 2.105 . S
Sc529 O545 2.105 . S
Sc529 O549 2.105 . S
Sc530 O531 2.025 . S
Sc530 O540 2.105 . S
Sc530 O542 2.105 . S
Sc530 O546 2.105 . S
Sc530 O548 2.105 . S
O531 Sc528 2.025 . S
O531 Sc529 2.025 . S
O531 Sc530 2.025 . S
C532 O538 1.268 . S
C532 O548 1.268 . S
C533 O539 1.268 . S
C533 O547 1.268 . S
C534 O540 1.268 . S
C534 O549 1.268 . S
C535 O541 1.268 . S
C535 O545 1.268 . S
C536 O542 1.268 . S
C536 O544 1.268 . S
C537 O543 1.268 . S
C537 O546 1.268 . S
O538 Sc528 2.105 . S
O538 C532 1.268 . S
O539 Sc529 2.105 . S
O539 C533 1.268 . S
O540 Sc530 2.105 . S
O540 C534 1.268 . S
O541 Sc528 2.105 . S
O541 C535 1.268 . S
O542 Sc530 2.105 . S
O542 C536 1.268 . S
O543 Sc529 2.105 . S
O543 C537 1.268 . S
O544 Sc528 2.105 . S
O544 C536 1.268 . S
O545 Sc529 2.105 . S
O545 C535 1.268 . S
O546 Sc530 2.105 . S
O546 C537 1.268 . S
O547 Sc528 2.105 . S
O547 C533 1.268 . S
O548 Sc530 2.105 . S
O548 C532 1.268 . S
O549 Sc529 2.105 . S
O549 C534 1.268 . S
Sc550 O553 2.025 . S
Sc550 O560 2.105 . S
Sc550 O563 2.105 . S
Sc550 O566 2.105 . S
Sc550 O569 2.105 . S
Sc551 O553 2.025 . S
Sc551 O561 2.105 . S
Sc551 O565 2.105 . S
Sc551 O567 2.105 . S
Sc551 O571 2.105 . S
Sc552 O553 2.025 . S
Sc552 O562 2.105 . S
Sc552 O564 2.105 . S
Sc552 O568 2.105 . S
Sc552 O570 2.105 . S
O553 Sc550 2.025 . S
O553 Sc551 2.025 . S
O553 Sc552 2.025 . S
C554 O560 1.268 . S
C554 O570 1.268 . S
C555 O561 1.268 . S
C555 O569 1.268 . S
C556 O562 1.268 . S
C556 O571 1.268 . S
C557 O563 1.268 . S
C557 O567 1.268 . S
C558 O564 1.268 . S
C558 O566 1.268 . S
C559 O565 1.268 . S
C559 O568 1.268 . S
O560 Sc550 2.105 . S
O560 C554 1.268 . S
O561 Sc551 2.105 . S
O561 C555 1.268 . S
O562 Sc552 2.105 . S
O562 C556 1.268 . S
O563 Sc550 2.105 . S
O563 C557 1.268 . S
O564 Sc552 2.105 . S
O564 C558 1.268 . S
O565 Sc551 2.105 . S
O565 C559 1.268 . S
O566 Sc550 2.105 . S
O566 C558 1.268 . S
O567 Sc551 2.105 . S
O567 C557 1.268 . S
O568 Sc552 2.105 . S
O568 C559 1.268 . S
O569 Sc550 2.105 . S
O569 C555 1.268 . S
O570 Sc552 2.105 . S
O570 C554 1.268 . S
O571 Sc551 2.105 . S
O571 C556 1.268 . S
Sc572 O575 2.025 . S
Sc572 O582 2.105 . S
Sc572 O585 2.105 . S
Sc572 O588 2.105 . S
Sc572 O591 2.105 . S
Sc573 O575 2.025 . S
Sc573 O583 2.105 . S
Sc573 O587 2.105 . S
Sc573 O589 2.105 . S
Sc573 O593 2.105 . S
Sc574 O575 2.025 . S
Sc574 O584 2.105 . S
Sc574 O586 2.105 . S
Sc574 O590 2.105 . S
Sc574 O592 2.105 . S
O575 Sc572 2.025 . S
O575 Sc573 2.025 . S
O575 Sc574 2.025 . S
C576 O582 1.268 . S
C576 O592 1.268 . S
C577 O583 1.268 . S
C577 O591 1.268 . S
C578 O584 1.268 . S
C578 O593 1.268 . S
C579 O585 1.268 . S
C579 O589 1.268 . S
C580 O586 1.268 . S
C580 O588 1.268 . S
C581 O587 1.268 . S
C581 O590 1.268 . S
O582 Sc572 2.105 . S
O582 C576 1.268 . S
O583 Sc573 2.105 . S
O583 C577 1.268 . S
O584 Sc574 2.105 . S
O584 C578 1.268 . S
O585 Sc572 2.105 . S
O585 C579 1.268 . S
O586 Sc574 2.105 . S
O586 C580 1.268 . S
O587 Sc573 2.105 . S
O587 C581 1.268 . S
O588 Sc572 2.105 . S
O588 C580 1.268 . S
O589 Sc573 2.105 . S
O589 C579 1.268 . S
O590 Sc574 2.105 . S
O590 C581 1.268 . S
O591 Sc572 2.105 . S
O591 C577 1.268 . S
O592 Sc574 2.105 . S
O592 C576 1.268 . S
O593 Sc573 2.105 . S
O593 C578 1.268 . S
Sc594 O597 2.025 . S
Sc594 O604 2.105 . S
Sc594 O607 2.105 . S
Sc594 O610 2.105 . S
Sc594 O613 2.105 . S
Sc595 O597 2.025 . S
Sc595 O605 2.105 . S
Sc595 O609 2.105 . S
Sc595 O611 2.105 . S
Sc595 O615 2.105 . S
Sc596 O597 2.025 . S
Sc596 O606 2.105 . S
Sc596 O608 2.105 . S
Sc596 O612 2.105 . S
Sc596 O614 2.105 . S
O597 Sc594 2.025 . S
O597 Sc595 2.025 . S
O597 Sc596 2.025 . S
C598 O604 1.268 . S
C598 O614 1.268 . S
C599 O605 1.268 . S
C599 O613 1.268 . S
C600 O606 1.268 . S
C600 O615 1.268 . S
C601 O607 1.268 . S
C601 O611 1.268 . S
C602 O608 1.268 . S
C602 O610 1.268 . S
C603 O609 1.268 . S
C603 O612 1.268 . S
O604 Sc594 2.105 . S
O604 C598 1.268 . S
O605 Sc595 2.105 . S
O605 C599 1.268 . S
O606 Sc596 2.105 . S
O606 C600 1.268 . S
O607 Sc594 2.105 . S
O607 C601 1.268 . S
O608 Sc596 2.105 . S
O608 C602 1.268 . S
O609 Sc595 2.105 . S
O609 C603 1.268 . S
O610 Sc594 2.105 . S
O610 C602 1.268 . S
O611 Sc595 2.105 . S
O611 C601 1.268 . S
O612 Sc596 2.105 . S
O612 C603 1.268 . S
O613 Sc594 2.105 . S
O613 C599 1.268 . S
O614 Sc596 2.105 . S
O614 C598 1.268 . S
O615 Sc595 2.105 . S
O615 C600 1.268 . S
Sc616 O619 2.025 . S
Sc616 O626 2.105 . S
Sc616 O629 2.105 . S
Sc616 O632 2.105 . S
Sc616 O635 2.105 . S
Sc617 O619 2.025 . S
Sc617 O627 2.105 . S
Sc617 O631 2.105 . S
Sc617 O633 2.105 . S
Sc617 O637 2.105 . S
Sc618 O619 2.025 . S
Sc618 O628 2.105 . S
Sc618 O630 2.105 . S
Sc618 O634 2.105 . S
Sc618 O636 2.105 . S
O619 Sc616 2.025 . S
O619 Sc617 2.025 . S
O619 Sc618 2.025 . S
C620 O626 1.268 . S
C620 O636 1.268 . S
C621 O627 1.268 . S
C621 O635 1.268 . S
C622 O628 1.268 . S
C622 O637 1.268 . S
C623 O629 1.268 . S
C623 O633 1.268 . S
C624 O630 1.268 . S
C624 O632 1.268 . S
C625 O631 1.268 . S
C625 O634 1.268 . S
O626 Sc616 2.105 . S
O626 C620 1.268 . S
O627 Sc617 2.105 . S
O627 C621 1.268 . S
O628 Sc618 2.105 . S
O628 C622 1.268 . S
O629 Sc616 2.105 . S
O629 C623 1.268 . S
O630 Sc618 2.105 . S
O630 C624 1.268 . S
O631 Sc617 2.105 . S
O631 C625 1.268 . S
O632 Sc616 2.105 . S
O632 C624 1.268 . S
O633 Sc617 2.105 . S
O633 C623 1.268 . S
O634 Sc618 2.105 . S
O634 C625 1.268 . S
O635 Sc616 2.105 . S
O635 C621 1.268 . S
O636 Sc618 2.105 . S
O636 C620 1.268 . S
O637 Sc617 2.105 . S
O637 C622 1.268 . S
Sc638 O641 2.025 . S
Sc638 O648 2.105 . S
Sc638 O651 2.105 . S
Sc638 O654 2.105 . S
Sc638 O657 2.105 . S
Sc639 O641 2.025 . S
Sc639 O649 2.105 . S
Sc639 O653 2.105 . S
Sc639 O655 2.105 . S
Sc639 O659 2.105 . S
Sc640 O641 2.025 . S
Sc640 O650 2.105 . S
Sc640 O652 2.105 . S
Sc640 O656 2.105 . S
Sc640 O658 2.105 . S
O641 Sc638 2.025 . S
O641 Sc639 2.025 . S
O641 Sc640 2.025 . S
C642 O648 1.268 . S
C642 O658 1.268 . S
C643 O649 1.268 . S
C643 O657 1.268 . S
C644 O650 1.268 . S
C644 O659 1.268 . S
C645 O651 1.268 . S
C645 O655 1.268 . S
C646 O652 1.268 . S
C646 O654 1.268 . S
C647 O653 1.268 . S
C647 O656 1.268 . S
O648 Sc638 2.105 . S
O648 C642 1.268 . S
O649 Sc639 2.105 . S
O649 C643 1.268 . S
O650 Sc640 2.105 . S
O650 C644 1.268 . S
O651 Sc638 2.105 . S
O651 C645 1.268 . S
O652 Sc640 2.105 . S
O652 C646 1.268 . S
O653 Sc639 2.105 . S
O653 C647 1.268 . S
O654 Sc638 2.105 . S
O654 C646 1.268 . S
O655 Sc639 2.105 . S
O655 C645 1.268 . S
O656 Sc640 2.105 . S
O656 C647 1.268 . S
O657 Sc638 2.105 . S
O657 C643 1.268 . S
O658 Sc640 2.105 . S
O658 C642 1.268 . S
O659 Sc639 2.105 . S
O659 C644 1.268 . S
Sc660 O663 2.025 . S
Sc660 O670 2.105 . S
Sc660 O673 2.105 . S
Sc660 O676 2.105 . S
Sc660 O679 2.105 . S
Sc661 O663 2.025 . S
Sc661 O671 2.105 . S
Sc661 O675 2.105 . S
Sc661 O677 2.105 . S
Sc661 O681 2.105 . S
Sc662 O663 2.025 . S
Sc662 O672 2.105 . S
Sc662 O674 2.105 . S
Sc662 O678 2.105 . S
Sc662 O680 2.105 . S
O663 Sc660 2.025 . S
O663 Sc661 2.025 . S
O663 Sc662 2.025 . S
C664 O670 1.268 . S
C664 O680 1.268 . S
C665 O671 1.268 . S
C665 O679 1.268 . S
C666 O672 1.268 . S
C666 O681 1.268 . S
C667 O673 1.268 . S
C667 O677 1.268 . S
C668 O674 1.268 . S
C668 O676 1.268 . S
C669 O675 1.268 . S
C669 O678 1.268 . S
O670 Sc660 2.105 . S
O670 C664 1.268 . S
O671 Sc661 2.105 . S
O671 C665 1.268 . S
O672 Sc662 2.105 . S
O672 C666 1.268 . S
O673 Sc660 2.105 . S
O673 C667 1.268 . S
O674 Sc662 2.105 . S
O674 C668 1.268 . S
O675 Sc661 2.105 . S
O675 C669 1.268 . S
O676 Sc660 2.105 . S
O676 C668 1.268 . S
O677 Sc661 2.105 . S
O677 C667 1.268 . S
O678 Sc662 2.105 . S
O678 C669 1.268 . S
O679 Sc660 2.105 . S
O679 C665 1.268 . S
O680 Sc662 2.105 . S
O680 C664 1.268 . S
O681 Sc661 2.105 . S
O681 C666 1.268 . S
Sc682 O685 2.025 . S
Sc682 O692 2.105 . S
Sc682 O695 2.105 . S
Sc682 O698 2.105 . S
Sc682 O701 2.105 . S
Sc683 O685 2.025 . S
Sc683 O693 2.105 . S
Sc683 O697 2.105 . S
Sc683 O699 2.105 . S
Sc683 O703 2.105 . S
Sc684 O685 2.025 . S
Sc684 O694 2.105 . S
Sc684 O696 2.105 . S
Sc684 O700 2.105 . S
Sc684 O702 2.105 . S
O685 Sc682 2.025 . S
O685 Sc683 2.025 . S
O685 Sc684 2.025 . S
C686 O692 1.268 . S
C686 O702 1.268 . S
C687 O693 1.268 . S
C687 O701 1.268 . S
C688 O694 1.268 . S
C688 O703 1.268 . S
C689 O695 1.268 . S
C689 O699 1.268 . S
C690 O696 1.268 . S
C690 O698 1.268 . S
C691 O697 1.268 . S
C691 O700 1.268 . S
O692 Sc682 2.105 . S
O692 C686 1.268 . S
O693 Sc683 2.105 . S
O693 C687 1.268 . S
O694 Sc684 2.105 . S
O694 C688 1.268 . S
O695 Sc682 2.105 . S
O695 C689 1.268 . S
O696 Sc684 2.105 . S
O696 C690 1.268 . S
O697 Sc683 2.105 . S
O697 C691 1.268 . S
O698 Sc682 2.105 . S
O698 C690 1.268 . S
O699 Sc683 2.105 . S
O699 C689 1.268 . S
O700 Sc684 2.105 . S
O700 C691 1.268 . S
O701 Sc682 2.105 . S
O701 C687 1.268 . S
O702 Sc684 2.105 . S
O702 C686 1.268 . S
O703 Sc683 2.105 . S
O703 C688 1.268 . S
H704 C710 0.930 . S
H705 C714 0.930 . S
H706 C719 0.929 . S
H707 C717 0.929 . S
H708 C712 0.929 . S
H709 C718 0.929 . S
C710 H704 0.930 . S
C710 C711 1.367 . S
C710 C718 1.378 . S
C711 C710 1.367 . S
C711 C719 1.433 . S
C712 H708 0.929 . S
C712 C714 1.378 . S
C712 C716 1.350 . S
C713 C716 1.463 . S
C713 C718 1.350 . S
C713 N721 1.427 . S
C714 H705 0.930 . S
C714 C712 1.378 . S
C714 C715 1.367 . S
C715 C714 1.367 . S
C715 C717 1.433 . S
C716 C712 1.350 . S
C716 C713 1.463 . S
C716 N720 1.427 . S
C717 H707 0.929 . S
C717 C715 1.433 . S
C717 N720 1.384 . S
C718 H709 0.929 . S
C718 C710 1.378 . S
C718 C713 1.350 . S
C719 H706 0.929 . S
C719 C711 1.433 . S
C719 N721 1.384 . S
N720 C716 1.427 . S
N720 C717 1.384 . S
N721 C713 1.427 . S
N721 C719 1.384 . S
H722 C728 0.930 . S
H723 C732 0.930 . S
H724 C737 0.929 . S
H725 C735 0.929 . S
H726 C730 0.929 . S
H727 C736 0.929 . S
C728 H722 0.930 . S
C728 C729 1.367 . S
C728 C736 1.378 . S
C729 C728 1.367 . S
C729 C737 1.433 . S
C730 H726 0.929 . S
C730 C732 1.378 . S
C730 C734 1.350 . S
C731 C734 1.463 . S
C731 C736 1.350 . S
C731 N739 1.427 . S
C732 H723 0.930 . S
C732 C730 1.378 . S
C732 C733 1.367 . S
C733 C732 1.367 . S
C733 C735 1.433 . S
C734 C730 1.350 . S
C734 C731 1.463 . S
C734 N738 1.427 . S
C735 H725 0.929 . S
C735 C733 1.433 . S
C735 N738 1.384 . S
C736 H727 0.929 . S
C736 C728 1.378 . S
C736 C731 1.350 . S
C737 H724 0.929 . S
C737 C729 1.433 . S
C737 N739 1.384 . S
N738 C734 1.427 . S
N738 C735 1.384 . S
N739 C731 1.427 . S
N739 C737 1.384 . S
H740 C746 0.930 . S
H741 C750 0.930 . S
H742 C755 0.929 . S
H743 C753 0.929 . S
H744 C748 0.929 . S
H745 C754 0.929 . S
C746 H740 0.930 . S
C746 C747 1.367 . S
C746 C754 1.378 . S
C747 C746 1.367 . S
C747 C755 1.433 . S
C748 H744 0.929 . S
C748 C750 1.378 . S
C748 C752 1.350 . S
C749 C752 1.463 . S
C749 C754 1.350 . S
C749 N757 1.427 . S
C750 H741 0.930 . S
C750 C748 1.378 . S
C750 C751 1.367 . S
C751 C750 1.367 . S
C751 C753 1.433 . S
C752 C748 1.350 . S
C752 C749 1.463 . S
C752 N756 1.427 . S
C753 H743 0.929 . S
C753 C751 1.433 . S
C753 N756 1.384 . S
C754 H745 0.929 . S
C754 C746 1.378 . S
C754 C749 1.350 . S
C755 H742 0.929 . S
C755 C747 1.433 . S
C755 N757 1.384 . S
N756 C752 1.427 . S
N756 C753 1.384 . S
N757 C749 1.427 . S
N757 C755 1.384 . S
H758 C764 0.930 . S
H759 C768 0.930 . S
H760 C773 0.929 . S
H761 C771 0.929 . S
H762 C766 0.929 . S
H763 C772 0.929 . S
C764 H758 0.930 . S
C764 C765 1.367 . S
C764 C772 1.378 . S
C765 C764 1.367 . S
C765 C773 1.433 . S
C766 H762 0.929 . S
C766 C768 1.378 . S
C766 C770 1.350 . S
C767 C770 1.463 . S
C767 C772 1.350 . S
C767 N775 1.427 . S
C768 H759 0.930 . S
C768 C766 1.378 . S
C768 C769 1.367 . S
C769 C768 1.367 . S
C769 C771 1.433 . S
C770 C766 1.350 . S
C770 C767 1.463 . S
C770 N774 1.427 . S
C771 H761 0.929 . S
C771 C769 1.433 . S
C771 N774 1.384 . S
C772 H763 0.929 . S
C772 C764 1.378 . S
C772 C767 1.350 . S
C773 H760 0.929 . S
C773 C765 1.433 . S
C773 N775 1.384 . S
N774 C770 1.427 . S
N774 C771 1.384 . S
N775 C767 1.427 . S
N775 C773 1.384 . S
H776 C782 0.930 . S
H777 C786 0.930 . S
H778 C791 0.929 . S
H779 C789 0.929 . S
H780 C784 0.929 . S
H781 C790 0.929 . S
C782 H776 0.930 . S
C782 C783 1.367 . S
C782 C790 1.378 . S
C783 C782 1.367 . S
C783 C791 1.433 . S
C784 H780 0.929 . S
C784 C786 1.378 . S
C784 C788 1.350 . S
C785 C788 1.463 . S
C785 C790 1.350 . S
C785 N793 1.427 . S
C786 H777 0.930 . S
C786 C784 1.378 . S
C786 C787 1.367 . S
C787 C786 1.367 . S
C787 C789 1.433 . S
C788 C784 1.350 . S
C788 C785 1.463 . S
C788 N792 1.427 . S
C789 H779 0.929 . S
C789 C787 1.433 . S
C789 N792 1.384 . S
C790 H781 0.929 . S
C790 C782 1.378 . S
C790 C785 1.350 . S
C791 H778 0.929 . S
C791 C783 1.433 . S
C791 N793 1.384 . S
N792 C788 1.427 . S
N792 C789 1.384 . S
N793 C785 1.427 . S
N793 C791 1.384 . S
H794 C800 0.930 . S
H795 C804 0.930 . S
H796 C809 0.929 . S
H797 C807 0.929 . S
H798 C802 0.929 . S
H799 C808 0.929 . S
C800 H794 0.930 . S
C800 C801 1.367 . S
C800 C808 1.378 . S
C801 C800 1.367 . S
C801 C809 1.433 . S
C802 H798 0.929 . S
C802 C804 1.378 . S
C802 C806 1.350 . S
C803 C806 1.463 . S
C803 C808 1.350 . S
C803 N811 1.427 . S
C804 H795 0.930 . S
C804 C802 1.378 . S
C804 C805 1.367 . S
C805 C804 1.367 . S
C805 C807 1.433 . S
C806 C802 1.350 . S
C806 C803 1.463 . S
C806 N810 1.427 . S
C807 H797 0.929 . S
C807 C805 1.433 . S
C807 N810 1.384 . S
C808 H799 0.929 . S
C808 C800 1.378 . S
C808 C803 1.350 . S
C809 H796 0.929 . S
C809 C801 1.433 . S
C809 N811 1.384 . S
N810 C806 1.427 . S
N810 C807 1.384 . S
N811 C803 1.427 . S
N811 C809 1.384 . S
H812 C818 0.930 . S
H813 C822 0.930 . S
H814 C827 0.929 . S
H815 C825 0.929 . S
H816 C820 0.929 . S
H817 C826 0.929 . S
C818 H812 0.930 . S
C818 C819 1.367 . S
C818 C826 1.378 . S
C819 C818 1.367 . S
C819 C827 1.433 . S
C820 H816 0.929 . S
C820 C822 1.378 . S
C820 C824 1.350 . S
C821 C824 1.463 . S
C821 C826 1.350 . S
C821 N829 1.427 . S
C822 H813 0.930 . S
C822 C820 1.378 . S
C822 C823 1.367 . S
C823 C822 1.367 . S
C823 C825 1.433 . S
C824 C820 1.350 . S
C824 C821 1.463 . S
C824 N828 1.427 . S
C825 H815 0.929 . S
C825 C823 1.433 . S
C825 N828 1.384 . S
C826 H817 0.929 . S
C826 C818 1.378 . S
C826 C821 1.350 . S
C827 H814 0.929 . S
C827 C819 1.433 . S
C827 N829 1.384 . S
N828 C824 1.427 . S
N828 C825 1.384 . S
N829 C821 1.427 . S
N829 C827 1.384 . S
H830 C836 0.930 . S
H831 C840 0.930 . S
H832 C845 0.929 . S
H833 C843 0.929 . S
H834 C838 0.929 . S
H835 C844 0.929 . S
C836 H830 0.930 . S
C836 C837 1.367 . S
C836 C844 1.378 . S
C837 C836 1.367 . S
C837 C845 1.433 . S
C838 H834 0.929 . S
C838 C840 1.378 . S
C838 C842 1.350 . S
C839 C842 1.463 . S
C839 C844 1.350 . S
C839 N847 1.427 . S
C840 H831 0.930 . S
C840 C838 1.378 . S
C840 C841 1.367 . S
C841 C840 1.367 . S
C841 C843 1.433 . S
C842 C838 1.350 . S
C842 C839 1.463 . S
C842 N846 1.427 . S
C843 H833 0.929 . S
C843 C841 1.433 . S
C843 N846 1.384 . S
C844 H835 0.929 . S
C844 C836 1.378 . S
C844 C839 1.350 . S
C845 H832 0.929 . S
C845 C837 1.433 . S
C845 N847 1.384 . S
N846 C842 1.427 . S
N846 C843 1.384 . S
N847 C839 1.427 . S
N847 C845 1.384 . S
H848 C854 0.930 . S
H849 C858 0.930 . S
H850 C863 0.929 . S
H851 C861 0.929 . S
H852 C856 0.929 . S
H853 C862 0.929 . S
C854 H848 0.930 . S
C854 C855 1.367 . S
C854 C862 1.378 . S
C855 C854 1.367 . S
C855 C863 1.433 . S
C856 H852 0.929 . S
C856 C858 1.378 . S
C856 C860 1.350 . S
C857 C860 1.463 . S
C857 C862 1.350 . S
C857 N865 1.427 . S
C858 H849 0.930 . S
C858 C856 1.378 . S
C858 C859 1.367 . S
C859 C858 1.367 . S
C859 C861 1.433 . S
C860 C856 1.350 . S
C860 C857 1.463 . S
C860 N864 1.427 . S
C861 H851 0.929 . S
C861 C859 1.433 . S
C861 N864 1.384 . S
C862 H853 0.929 . S
C862 C854 1.378 . S
C862 C857 1.350 . S
C863 H850 0.929 . S
C863 C855 1.433 . S
C863 N865 1.384 . S
N864 C860 1.427 . S
N864 C861 1.384 . S
N865 C857 1.427 . S
N865 C863 1.384 . S
H866 C872 0.930 . S
H867 C876 0.930 . S
H868 C881 0.929 . S
H869 C879 0.929 . S
H870 C874 0.929 . S
H871 C880 0.929 . S
C872 H866 0.930 . S
C872 C873 1.367 . S
C872 C880 1.378 . S
C873 C872 1.367 . S
C873 C881 1.433 . S
C874 H870 0.929 . S
C874 C876 1.378 . S
C874 C878 1.350 . S
C875 C878 1.463 . S
C875 C880 1.350 . S
C875 N883 1.427 . S
C876 H867 0.930 . S
C876 C874 1.378 . S
C876 C877 1.367 . S
C877 C876 1.367 . S
C877 C879 1.433 . S
C878 C874 1.350 . S
C878 C875 1.463 . S
C878 N882 1.427 . S
C879 H869 0.929 . S
C879 C877 1.433 . S
C879 N882 1.384 . S
C880 H871 0.929 . S
C880 C872 1.378 . S
C880 C875 1.350 . S
C881 H868 0.929 . S
C881 C873 1.433 . S
C881 N883 1.384 . S
N882 C878 1.427 . S
N882 C879 1.384 . S
N883 C875 1.427 . S
N883 C881 1.384 . S
H884 C890 0.930 . S
H885 C894 0.930 . S
H886 C899 0.929 . S
H887 C897 0.929 . S
H888 C892 0.929 . S
H889 C898 0.929 . S
C890 H884 0.930 . S
C890 C891 1.367 . S
C890 C898 1.378 . S
C891 C890 1.367 . S
C891 C899 1.433 . S
C892 H888 0.929 . S
C892 C894 1.378 . S
C892 C896 1.350 . S
C893 C896 1.463 . S
C893 C898 1.350 . S
C893 N901 1.427 . S
C894 H885 0.930 . S
C894 C892 1.378 . S
C894 C895 1.367 . S
C895 C894 1.367 . S
C895 C897 1.433 . S
C896 C892 1.350 . S
C896 C893 1.463 . S
C896 N900 1.427 . S
C897 H887 0.929 . S
C897 C895 1.433 . S
C897 N900 1.384 . S
C898 H889 0.929 . S
C898 C890 1.378 . S
C898 C893 1.350 . S
C899 H886 0.929 . S
C899 C891 1.433 . S
C899 N901 1.384 . S
N900 C896 1.427 . S
N900 C897 1.384 . S
N901 C893 1.427 . S
N901 C899 1.384 . S
H902 C908 0.930 . S
H903 C912 0.930 . S
H904 C917 0.929 . S
H905 C915 0.929 . S
H906 C910 0.929 . S
H907 C916 0.929 . S
C908 H902 0.930 . S
C908 C909 1.367 . S
C908 C916 1.378 . S
C909 C908 1.367 . S
C909 C917 1.433 . S
C910 H906 0.929 . S
C910 C912 1.378 . S
C910 C914 1.350 . S
C911 C914 1.463 . S
C911 C916 1.350 . S
C911 N919 1.427 . S
C912 H903 0.930 . S
C912 C910 1.378 . S
C912 C913 1.367 . S
C913 C912 1.367 . S
C913 C915 1.433 . S
C914 C910 1.350 . S
C914 C911 1.463 . S
C914 N918 1.427 . S
C915 H905 0.929 . S
C915 C913 1.433 . S
C915 N918 1.384 . S
C916 H907 0.929 . S
C916 C908 1.378 . S
C916 C911 1.350 . S
C917 H904 0.929 . S
C917 C909 1.433 . S
C917 N919 1.384 . S
N918 C914 1.427 . S
N918 C915 1.384 . S
N919 C911 1.427 . S
N919 C917 1.384 . S
H920 C926 0.930 . S
H921 C930 0.930 . S
H922 C935 0.929 . S
H923 C933 0.929 . S
H924 C928 0.929 . S
H925 C934 0.929 . S
C926 H920 0.930 . S
C926 C927 1.367 . S
C926 C934 1.378 . S
C927 C926 1.367 . S
C927 C935 1.433 . S
C928 H924 0.929 . S
C928 C930 1.378 . S
C928 C932 1.350 . S
C929 C932 1.463 . S
C929 C934 1.350 . S
C929 N937 1.427 . S
C930 H921 0.930 . S
C930 C928 1.378 . S
C930 C931 1.367 . S
C931 C930 1.367 . S
C931 C933 1.433 . S
C932 C928 1.350 . S
C932 C929 1.463 . S
C932 N936 1.427 . S
C933 H923 0.929 . S
C933 C931 1.433 . S
C933 N936 1.384 . S
C934 H925 0.929 . S
C934 C926 1.378 . S
C934 C929 1.350 . S
C935 H922 0.929 . S
C935 C927 1.433 . S
C935 N937 1.384 . S
N936 C932 1.427 . S
N936 C933 1.384 . S
N937 C929 1.427 . S
N937 C935 1.384 . S
H938 C944 0.930 . S
H939 C948 0.930 . S
H940 C953 0.929 . S
H941 C951 0.929 . S
H942 C946 0.929 . S
H943 C952 0.929 . S
C944 H938 0.930 . S
C944 C945 1.367 . S
C944 C952 1.378 . S
C945 C944 1.367 . S
C945 C953 1.433 . S
C946 H942 0.929 . S
C946 C948 1.378 . S
C946 C950 1.350 . S
C947 C950 1.463 . S
C947 C952 1.350 . S
C947 N955 1.427 . S
C948 H939 0.930 . S
C948 C946 1.378 . S
C948 C949 1.367 . S
C949 C948 1.367 . S
C949 C951 1.433 . S
C950 C946 1.350 . S
C950 C947 1.463 . S
C950 N954 1.427 . S
C951 H941 0.929 . S
C951 C949 1.433 . S
C951 N954 1.384 . S
C952 H943 0.929 . S
C952 C944 1.378 . S
C952 C947 1.350 . S
C953 H940 0.929 . S
C953 C945 1.433 . S
C953 N955 1.384 . S
N954 C950 1.427 . S
N954 C951 1.384 . S
N955 C947 1.427 . S
N955 C953 1.384 . S
H956 C962 0.930 . S
H957 C966 0.930 . S
H958 C971 0.929 . S
H959 C969 0.929 . S
H960 C964 0.929 . S
H961 C970 0.929 . S
C962 H956 0.930 . S
C962 C963 1.367 . S
C962 C970 1.378 . S
C963 C962 1.367 . S
C963 C971 1.433 . S
C964 H960 0.929 . S
C964 C966 1.378 . S
C964 C968 1.350 . S
C965 C968 1.463 . S
C965 C970 1.350 . S
C965 N973 1.427 . S
C966 H957 0.930 . S
C966 C964 1.378 . S
C966 C967 1.367 . S
C967 C966 1.367 . S
C967 C969 1.433 . S
C968 C964 1.350 . S
C968 C965 1.463 . S
C968 N972 1.427 . S
C969 H959 0.929 . S
C969 C967 1.433 . S
C969 N972 1.384 . S
C970 H961 0.929 . S
C970 C962 1.378 . S
C970 C965 1.350 . S
C971 H958 0.929 . S
C971 C963 1.433 . S
C971 N973 1.384 . S
N972 C968 1.427 . S
N972 C969 1.384 . S
N973 C965 1.427 . S
N973 C971 1.384 . S
H974 C980 0.930 . S
H975 C984 0.930 . S
H976 C989 0.929 . S
H977 C987 0.929 . S
H978 C982 0.929 . S
H979 C988 0.929 . S
C980 H974 0.930 . S
C980 C981 1.367 . S
C980 C988 1.378 . S
C981 C980 1.367 . S
C981 C989 1.433 . S
C982 H978 0.929 . S
C982 C984 1.378 . S
C982 C986 1.350 . S
C983 C986 1.463 . S
C983 C988 1.350 . S
C983 N991 1.427 . S
C984 H975 0.930 . S
C984 C982 1.378 . S
C984 C985 1.367 . S
C985 C984 1.367 . S
C985 C987 1.433 . S
C986 C982 1.350 . S
C986 C983 1.463 . S
C986 N990 1.427 . S
C987 H977 0.929 . S
C987 C985 1.433 . S
C987 N990 1.384 . S
C988 H979 0.929 . S
C988 C980 1.378 . S
C988 C983 1.350 . S
C989 H976 0.929 . S
C989 C981 1.433 . S
C989 N991 1.384 . S
N990 C986 1.427 . S
N990 C987 1.384 . S
N991 C983 1.427 . S
N991 C989 1.384 . S
H992 C998 0.930 . S
H993 C1002 0.930 . S
H994 C1007 0.929 . S
H995 C1005 0.929 . S
H996 C1000 0.929 . S
H997 C1006 0.929 . S
C998 H992 0.930 . S
C998 C999 1.367 . S
C998 C1006 1.378 . S
C999 C998 1.367 . S
C999 C1007 1.433 . S
C1000 H996 0.929 . S
C1000 C1002 1.378 . S
C1000 C1004 1.350 . S
C1001 C1004 1.463 . S
C1001 C1006 1.350 . S
C1001 N1009 1.427 . S
C1002 H993 0.930 . S
C1002 C1000 1.378 . S
C1002 C1003 1.367 . S
C1003 C1002 1.367 . S
C1003 C1005 1.433 . S
C1004 C1000 1.350 . S
C1004 C1001 1.463 . S
C1004 N1008 1.427 . S
C1005 H995 0.929 . S
C1005 C1003 1.433 . S
C1005 N1008 1.384 . S
C1006 H997 0.929 . S
C1006 C998 1.378 . S
C1006 C1001 1.350 . S
C1007 H994 0.929 . S
C1007 C999 1.433 . S
C1007 N1009 1.384 . S
N1008 C1004 1.427 . S
N1008 C1005 1.384 . S
N1009 C1001 1.427 . S
N1009 C1007 1.384 . S
H1010 C1016 0.930 . S
H1011 C1020 0.930 . S
H1012 C1025 0.929 . S
H1013 C1023 0.929 . S
H1014 C1018 0.929 . S
H1015 C1024 0.929 . S
C1016 H1010 0.930 . S
C1016 C1017 1.367 . S
C1016 C1024 1.378 . S
C1017 C1016 1.367 . S
C1017 C1025 1.433 . S
C1018 H1014 0.929 . S
C1018 C1020 1.378 . S
C1018 C1022 1.350 . S
C1019 C1022 1.463 . S
C1019 C1024 1.350 . S
C1019 N1027 1.427 . S
C1020 H1011 0.930 . S
C1020 C1018 1.378 . S
C1020 C1021 1.367 . S
C1021 C1020 1.367 . S
C1021 C1023 1.433 . S
C1022 C1018 1.350 . S
C1022 C1019 1.463 . S
C1022 N1026 1.427 . S
C1023 H1013 0.929 . S
C1023 C1021 1.433 . S
C1023 N1026 1.384 . S
C1024 H1015 0.929 . S
C1024 C1016 1.378 . S
C1024 C1019 1.350 . S
C1025 H1012 0.929 . S
C1025 C1017 1.433 . S
C1025 N1027 1.384 . S
N1026 C1022 1.427 . S
N1026 C1023 1.384 . S
N1027 C1019 1.427 . S
N1027 C1025 1.384 . S
H1028 C1034 0.930 . S
H1029 C1038 0.930 . S
H1030 C1043 0.929 . S
H1031 C1041 0.929 . S
H1032 C1036 0.929 . S
H1033 C1042 0.929 . S
C1034 H1028 0.930 . S
C1034 C1035 1.367 . S
C1034 C1042 1.378 . S
C1035 C1034 1.367 . S
C1035 C1043 1.433 . S
C1036 H1032 0.929 . S
C1036 C1038 1.378 . S
C1036 C1040 1.350 . S
C1037 C1040 1.463 . S
C1037 C1042 1.350 . S
C1037 N1045 1.427 . S
C1038 H1029 0.930 . S
C1038 C1036 1.378 . S
C1038 C1039 1.367 . S
C1039 C1038 1.367 . S
C1039 C1041 1.433 . S
C1040 C1036 1.350 . S
C1040 C1037 1.463 . S
C1040 N1044 1.427 . S
C1041 H1031 0.929 . S
C1041 C1039 1.433 . S
C1041 N1044 1.384 . S
C1042 H1033 0.929 . S
C1042 C1034 1.378 . S
C1042 C1037 1.350 . S
C1043 H1030 0.929 . S
C1043 C1035 1.433 . S
C1043 N1045 1.384 . S
N1044 C1040 1.427 . S
N1044 C1041 1.384 . S
N1045 C1037 1.427 . S
N1045 C1043 1.384 . S
H1046 C1052 0.930 . S
H1047 C1056 0.930 . S
H1048 C1061 0.929 . S
H1049 C1059 0.929 . S
H1050 C1054 0.929 . S
H1051 C1060 0.929 . S
C1052 H1046 0.930 . S
C1052 C1053 1.367 . S
C1052 C1060 1.378 . S
C1053 C1052 1.367 . S
C1053 C1061 1.433 . S
C1054 H1050 0.929 . S
C1054 C1056 1.378 . S
C1054 C1058 1.350 . S
C1055 C1058 1.463 . S
C1055 C1060 1.350 . S
C1055 N1063 1.427 . S
C1056 H1047 0.930 . S
C1056 C1054 1.378 . S
C1056 C1057 1.367 . S
C1057 C1056 1.367 . S
C1057 C1059 1.433 . S
C1058 C1054 1.350 . S
C1058 C1055 1.463 . S
C1058 N1062 1.427 . S
C1059 H1049 0.929 . S
C1059 C1057 1.433 . S
C1059 N1062 1.384 . S
C1060 H1051 0.929 . S
C1060 C1052 1.378 . S
C1060 C1055 1.350 . S
C1061 H1048 0.929 . S
C1061 C1053 1.433 . S
C1061 N1063 1.384 . S
N1062 C1058 1.427 . S
N1062 C1059 1.384 . S
N1063 C1055 1.427 . S
N1063 C1061 1.384 . S
H1064 C1070 0.930 . S
H1065 C1074 0.930 . S
H1066 C1079 0.929 . S
H1067 C1077 0.929 . S
H1068 C1072 0.929 . S
H1069 C1078 0.929 . S
C1070 H1064 0.930 . S
C1070 C1071 1.367 . S
C1070 C1078 1.378 . S
C1071 C1070 1.367 . S
C1071 C1079 1.433 . S
C1072 H1068 0.929 . S
C1072 C1074 1.378 . S
C1072 C1076 1.350 . S
C1073 C1076 1.463 . S
C1073 C1078 1.350 . S
C1073 N1081 1.427 . S
C1074 H1065 0.930 . S
C1074 C1072 1.378 . S
C1074 C1075 1.367 . S
C1075 C1074 1.367 . S
C1075 C1077 1.433 . S
C1076 C1072 1.350 . S
C1076 C1073 1.463 . S
C1076 N1080 1.427 . S
C1077 H1067 0.929 . S
C1077 C1075 1.433 . S
C1077 N1080 1.384 . S
C1078 H1069 0.929 . S
C1078 C1070 1.378 . S
C1078 C1073 1.350 . S
C1079 H1066 0.929 . S
C1079 C1071 1.433 . S
C1079 N1081 1.384 . S
N1080 C1076 1.427 . S
N1080 C1077 1.384 . S
N1081 C1073 1.427 . S
N1081 C1079 1.384 . S
H1082 C1088 0.930 . S
H1083 C1092 0.930 . S
H1084 C1097 0.929 . S
H1085 C1095 0.929 . S
H1086 C1090 0.929 . S
H1087 C1096 0.929 . S
C1088 H1082 0.930 . S
C1088 C1089 1.367 . S
C1088 C1096 1.378 . S
C1089 C1088 1.367 . S
C1089 C1097 1.433 . S
C1090 H1086 0.929 . S
C1090 C1092 1.378 . S
C1090 C1094 1.350 . S
C1091 C1094 1.463 . S
C1091 C1096 1.350 . S
C1091 N1099 1.427 . S
C1092 H1083 0.930 . S
C1092 C1090 1.378 . S
C1092 C1093 1.367 . S
C1093 C1092 1.367 . S
C1093 C1095 1.433 . S
C1094 C1090 1.350 . S
C1094 C1091 1.463 . S
C1094 N1098 1.427 . S
C1095 H1085 0.929 . S
C1095 C1093 1.433 . S
C1095 N1098 1.384 . S
C1096 H1087 0.929 . S
C1096 C1088 1.378 . S
C1096 C1091 1.350 . S
C1097 H1084 0.929 . S
C1097 C1089 1.433 . S
C1097 N1099 1.384 . S
N1098 C1094 1.427 . S
N1098 C1095 1.384 . S
N1099 C1091 1.427 . S
N1099 C1097 1.384 . S
H1100 C1106 0.930 . S
H1101 C1110 0.930 . S
H1102 C1115 0.929 . S
H1103 C1113 0.929 . S
H1104 C1108 0.929 . S
H1105 C1114 0.929 . S
C1106 H1100 0.930 . S
C1106 C1107 1.367 . S
C1106 C1114 1.378 . S
C1107 C1106 1.367 . S
C1107 C1115 1.433 . S
C1108 H1104 0.929 . S
C1108 C1110 1.378 . S
C1108 C1112 1.350 . S
C1109 C1112 1.463 . S
C1109 C1114 1.350 . S
C1109 N1117 1.427 . S
C1110 H1101 0.930 . S
C1110 C1108 1.378 . S
C1110 C1111 1.367 . S
C1111 C1110 1.367 . S
C1111 C1113 1.433 . S
C1112 C1108 1.350 . S
C1112 C1109 1.463 . S
C1112 N1116 1.427 . S
C1113 H1103 0.929 . S
C1113 C1111 1.433 . S
C1113 N1116 1.384 . S
C1114 H1105 0.929 . S
C1114 C1106 1.378 . S
C1114 C1109 1.350 . S
C1115 H1102 0.929 . S
C1115 C1107 1.433 . S
C1115 N1117 1.384 . S
N1116 C1112 1.427 . S
N1116 C1113 1.384 . S
N1117 C1109 1.427 . S
N1117 C1115 1.384 . S
H1118 C1124 0.930 . S
H1119 C1128 0.930 . S
H1120 C1133 0.929 . S
H1121 C1131 0.929 . S
H1122 C1126 0.929 . S
H1123 C1132 0.929 . S
C1124 H1118 0.930 . S
C1124 C1125 1.367 . S
C1124 C1132 1.378 . S
C1125 C1124 1.367 . S
C1125 C1133 1.433 . S
C1126 H1122 0.929 . S
C1126 C1128 1.378 . S
C1126 C1130 1.350 . S
C1127 C1130 1.463 . S
C1127 C1132 1.350 . S
C1127 N1135 1.427 . S
C1128 H1119 0.930 . S
C1128 C1126 1.378 . S
C1128 C1129 1.367 . S
C1129 C1128 1.367 . S
C1129 C1131 1.433 . S
C1130 C1126 1.350 . S
C1130 C1127 1.463 . S
C1130 N1134 1.427 . S
C1131 H1121 0.929 . S
C1131 C1129 1.433 . S
C1131 N1134 1.384 . S
C1132 H1123 0.929 . S
C1132 C1124 1.378 . S
C1132 C1127 1.350 . S
C1133 H1120 0.929 . S
C1133 C1125 1.433 . S
C1133 N1135 1.384 . S
N1134 C1130 1.427 . S
N1134 C1131 1.384 . S
N1135 C1127 1.427 . S
N1135 C1133 1.384 . S
H1136 C1142 0.930 . S
H1137 C1146 0.930 . S
H1138 C1151 0.929 . S
H1139 C1149 0.929 . S
H1140 C1144 0.929 . S
H1141 C1150 0.929 . S
C1142 H1136 0.930 . S
C1142 C1143 1.367 . S
C1142 C1150 1.378 . S
C1143 C1142 1.367 . S
C1143 C1151 1.433 . S
C1144 H1140 0.929 . S
C1144 C1146 1.378 . S
C1144 C1148 1.350 . S
C1145 C1148 1.463 . S
C1145 C1150 1.350 . S
C1145 N1153 1.427 . S
C1146 H1137 0.930 . S
C1146 C1144 1.378 . S
C1146 C1147 1.367 . S
C1147 C1146 1.367 . S
C1147 C1149 1.433 . S
C1148 C1144 1.350 . S
C1148 C1145 1.463 . S
C1148 N1152 1.427 . S
C1149 H1139 0.929 . S
C1149 C1147 1.433 . S
C1149 N1152 1.384 . S
C1150 H1141 0.929 . S
C1150 C1142 1.378 . S
C1150 C1145 1.350 . S
C1151 H1138 0.929 . S
C1151 C1143 1.433 . S
C1151 N1153 1.384 . S
N1152 C1148 1.427 . S
N1152 C1149 1.384 . S
N1153 C1145 1.427 . S
N1153 C1151 1.384 . S
H1154 C1160 0.930 . S
H1155 C1164 0.930 . S
H1156 C1169 0.929 . S
H1157 C1167 0.929 . S
H1158 C1162 0.929 . S
H1159 C1168 0.929 . S
C1160 H1154 0.930 . S
C1160 C1161 1.367 . S
C1160 C1168 1.378 . S
C1161 C1160 1.367 . S
C1161 C1169 1.433 . S
C1162 H1158 0.929 . S
C1162 C1164 1.378 . S
C1162 C1166 1.350 . S
C1163 C1166 1.463 . S
C1163 C1168 1.350 . S
C1163 N1171 1.427 . S
C1164 H1155 0.930 . S
C1164 C1162 1.378 . S
C1164 C1165 1.367 . S
C1165 C1164 1.367 . S
C1165 C1167 1.433 . S
C1166 C1162 1.350 . S
C1166 C1163 1.463 . S
C1166 N1170 1.427 . S
C1167 H1157 0.929 . S
C1167 C1165 1.433 . S
C1167 N1170 1.384 . S
C1168 H1159 0.929 . S
C1168 C1160 1.378 . S
C1168 C1163 1.350 . S
C1169 H1156 0.929 . S
C1169 C1161 1.433 . S
C1169 N1171 1.384 . S
N1170 C1166 1.427 . S
N1170 C1167 1.384 . S
N1171 C1163 1.427 . S
N1171 C1169 1.384 . S
H1172 C1178 0.930 . S
H1173 C1182 0.930 . S
H1174 C1187 0.929 . S
H1175 C1185 0.929 . S
H1176 C1180 0.929 . S
H1177 C1186 0.929 . S
C1178 H1172 0.930 . S
C1178 C1179 1.367 . S
C1178 C1186 1.378 . S
C1179 C1178 1.367 . S
C1179 C1187 1.433 . S
C1180 H1176 0.929 . S
C1180 C1182 1.378 . S
C1180 C1184 1.350 . S
C1181 C1184 1.463 . S
C1181 C1186 1.350 . S
C1181 N1189 1.427 . S
C1182 H1173 0.930 . S
C1182 C1180 1.378 . S
C1182 C1183 1.367 . S
C1183 C1182 1.367 . S
C1183 C1185 1.433 . S
C1184 C1180 1.350 . S
C1184 C1181 1.463 . S
C1184 N1188 1.427 . S
C1185 H1175 0.929 . S
C1185 C1183 1.433 . S
C1185 N1188 1.384 . S
C1186 H1177 0.929 . S
C1186 C1178 1.378 . S
C1186 C1181 1.350 . S
C1187 H1174 0.929 . S
C1187 C1179 1.433 . S
C1187 N1189 1.384 . S
N1188 C1184 1.427 . S
N1188 C1185 1.384 . S
N1189 C1181 1.427 . S
N1189 C1187 1.384 . S
H1190 C1196 0.930 . S
H1191 C1200 0.930 . S
H1192 C1205 0.929 . S
H1193 C1203 0.929 . S
H1194 C1198 0.929 . S
H1195 C1204 0.929 . S
C1196 H1190 0.930 . S
C1196 C1197 1.367 . S
C1196 C1204 1.378 . S
C1197 C1196 1.367 . S
C1197 C1205 1.433 . S
C1198 H1194 0.929 . S
C1198 C1200 1.378 . S
C1198 C1202 1.350 . S
C1199 C1202 1.463 . S
C1199 C1204 1.350 . S
C1199 N1207 1.427 . S
C1200 H1191 0.930 . S
C1200 C1198 1.378 . S
C1200 C1201 1.367 . S
C1201 C1200 1.367 . S
C1201 C1203 1.433 . S
C1202 C1198 1.350 . S
C1202 C1199 1.463 . S
C1202 N1206 1.427 . S
C1203 H1193 0.929 . S
C1203 C1201 1.433 . S
C1203 N1206 1.384 . S
C1204 H1195 0.929 . S
C1204 C1196 1.378 . S
C1204 C1199 1.350 . S
C1205 H1192 0.929 . S
C1205 C1197 1.433 . S
C1205 N1207 1.384 . S
N1206 C1202 1.427 . S
N1206 C1203 1.384 . S
N1207 C1199 1.427 . S
N1207 C1205 1.384 . S
H1208 C1214 0.930 . S
H1209 C1218 0.930 . S
H1210 C1223 0.929 . S
H1211 C1221 0.929 . S
H1212 C1216 0.929 . S
H1213 C1222 0.929 . S
C1214 H1208 0.930 . S
C1214 C1215 1.367 . S
C1214 C1222 1.378 . S
C1215 C1214 1.367 . S
C1215 C1223 1.433 . S
C1216 H1212 0.929 . S
C1216 C1218 1.378 . S
C1216 C1220 1.350 . S
C1217 C1220 1.463 . S
C1217 C1222 1.350 . S
C1217 N1225 1.427 . S
C1218 H1209 0.930 . S
C1218 C1216 1.378 . S
C1218 C1219 1.367 . S
C1219 C1218 1.367 . S
C1219 C1221 1.433 . S
C1220 C1216 1.350 . S
C1220 C1217 1.463 . S
C1220 N1224 1.427 . S
C1221 H1211 0.929 . S
C1221 C1219 1.433 . S
C1221 N1224 1.384 . S
C1222 H1213 0.929 . S
C1222 C1214 1.378 . S
C1222 C1217 1.350 . S
C1223 H1210 0.929 . S
C1223 C1215 1.433 . S
C1223 N1225 1.384 . S
N1224 C1220 1.427 . S
N1224 C1221 1.384 . S
N1225 C1217 1.427 . S
N1225 C1223 1.384 . S
H1226 C1232 0.930 . S
H1227 C1236 0.930 . S
H1228 C1241 0.929 . S
H1229 C1239 0.929 . S
H1230 C1234 0.929 . S
H1231 C1240 0.929 . S
C1232 H1226 0.930 . S
C1232 C1233 1.367 . S
C1232 C1240 1.378 . S
C1233 C1232 1.367 . S
C1233 C1241 1.433 . S
C1234 H1230 0.929 . S
C1234 C1236 1.378 . S
C1234 C1238 1.350 . S
C1235 C1238 1.463 . S
C1235 C1240 1.350 . S
C1235 N1243 1.427 . S
C1236 H1227 0.930 . S
C1236 C1234 1.378 . S
C1236 C1237 1.367 . S
C1237 C1236 1.367 . S
C1237 C1239 1.433 . S
C1238 C1234 1.350 . S
C1238 C1235 1.463 . S
C1238 N1242 1.427 . S
C1239 H1229 0.929 . S
C1239 C1237 1.433 . S
C1239 N1242 1.384 . S
C1240 H1231 0.929 . S
C1240 C1232 1.378 . S
C1240 C1235 1.350 . S
C1241 H1228 0.929 . S
C1241 C1233 1.433 . S
C1241 N1243 1.384 . S
N1242 C1238 1.427 . S
N1242 C1239 1.384 . S
N1243 C1235 1.427 . S
N1243 C1241 1.384 . S
H1244 C1250 0.930 . S
H1245 C1254 0.930 . S
H1246 C1259 0.929 . S
H1247 C1257 0.929 . S
H1248 C1252 0.929 . S
H1249 C1258 0.929 . S
C1250 H1244 0.930 . S
C1250 C1251 1.367 . S
C1250 C1258 1.378 . S
C1251 C1250 1.367 . S
C1251 C1259 1.433 . S
C1252 H1248 0.929 . S
C1252 C1254 1.378 . S
C1252 C1256 1.350 . S
C1253 C1256 1.463 . S
C1253 C1258 1.350 . S
C1253 N1261 1.427 . S
C1254 H1245 0.930 . S
C1254 C1252 1.378 . S
C1254 C1255 1.367 . S
C1255 C1254 1.367 . S
C1255 C1257 1.433 . S
C1256 C1252 1.350 . S
C1256 C1253 1.463 . S
C1256 N1260 1.427 . S
C1257 H1247 0.929 . S
C1257 C1255 1.433 . S
C1257 N1260 1.384 . S
C1258 H1249 0.929 . S
C1258 C1250 1.378 . S
C1258 C1253 1.350 . S
C1259 H1246 0.929 . S
C1259 C1251 1.433 . S
C1259 N1261 1.384 . S
N1260 C1256 1.427 . S
N1260 C1257 1.384 . S
N1261 C1253 1.427 . S
N1261 C1259 1.384 . S
H1262 C1268 0.930 . S
H1263 C1272 0.930 . S
H1264 C1277 0.929 . S
H1265 C1275 0.929 . S
H1266 C1270 0.929 . S
H1267 C1276 0.929 . S
C1268 H1262 0.930 . S
C1268 C1269 1.367 . S
C1268 C1276 1.378 . S
C1269 C1268 1.367 . S
C1269 C1277 1.433 . S
C1270 H1266 0.929 . S
C1270 C1272 1.378 . S
C1270 C1274 1.350 . S
C1271 C1274 1.463 . S
C1271 C1276 1.350 . S
C1271 N1279 1.427 . S
C1272 H1263 0.930 . S
C1272 C1270 1.378 . S
C1272 C1273 1.367 . S
C1273 C1272 1.367 . S
C1273 C1275 1.433 . S
C1274 C1270 1.350 . S
C1274 C1271 1.463 . S
C1274 N1278 1.427 . S
C1275 H1265 0.929 . S
C1275 C1273 1.433 . S
C1275 N1278 1.384 . S
C1276 H1267 0.929 . S
C1276 C1268 1.378 . S
C1276 C1271 1.350 . S
C1277 H1264 0.929 . S
C1277 C1269 1.433 . S
C1277 N1279 1.384 . S
N1278 C1274 1.427 . S
N1278 C1275 1.384 . S
N1279 C1271 1.427 . S
N1279 C1277 1.384 . S
H1280 C1286 0.930 1_565 S
H1281 C1290 0.930 . S
H1282 C1295 0.929 . S
H1283 C1293 0.929 . S
H1284 C1288 0.929 . S
H1285 C1294 0.929 . S
C1286 H1280 0.930 1_545 S
C1286 C1287 1.367 . S
C1286 C1294 1.378 . S
C1287 C1286 1.367 . S
C1287 C1295 1.437 . S
C1288 H1284 0.929 . S
C1288 C1290 1.378 . S
C1288 C1292 1.350 . S
C1289 C1292 1.463 . S
C1289 C1294 1.350 . S
C1289 N1297 1.427 . S
C1290 H1281 0.930 . S
C1290 C1288 1.378 . S
C1290 C1291 1.367 . S
C1291 C1290 1.367 . S
C1291 C1293 1.433 . S
C1292 C1288 1.350 . S
C1292 C1289 1.463 . S
C1292 N1296 1.427 . S
C1293 H1283 0.929 . S
C1293 C1291 1.433 . S
C1293 N1296 1.384 . S
C1294 H1285 0.929 . S
C1294 C1286 1.378 . S
C1294 C1289 1.350 . S
C1295 H1282 0.929 . S
C1295 C1287 1.437 . S
C1295 N1297 1.384 . S
N1296 C1292 1.427 . S
N1296 C1293 1.384 . S
N1297 C1289 1.427 . S
N1297 C1295 1.384 . S
H1298 C1304 0.930 1_455 S
H1299 C1308 0.930 . S
H1300 C1313 0.929 . S
H1301 C1311 0.929 . S
H1302 C1306 0.929 . S
H1303 C1312 0.929 . S
C1304 H1298 0.930 1_655 S
C1304 C1305 1.367 . S
C1304 C1312 1.378 . S
C1305 C1304 1.367 . S
C1305 C1313 1.436 . S
C1306 H1302 0.929 . S
C1306 C1308 1.378 . S
C1306 C1310 1.350 . S
C1307 C1310 1.463 . S
C1307 C1312 1.350 . S
C1307 N1315 1.427 . S
C1308 H1299 0.930 . S
C1308 C1306 1.378 . S
C1308 C1309 1.367 . S
C1309 C1308 1.367 . S
C1309 C1311 1.433 . S
C1310 C1306 1.350 . S
C1310 C1307 1.463 . S
C1310 N1314 1.427 . S
C1311 H1301 0.929 . S
C1311 C1309 1.433 . S
C1311 N1314 1.384 . S
C1312 H1303 0.929 . S
C1312 C1304 1.378 . S
C1312 C1307 1.350 . S
C1313 H1300 0.929 . S
C1313 C1305 1.436 . S
C1313 N1315 1.384 . S
N1314 C1310 1.427 . S
N1314 C1311 1.384 . S
N1315 C1307 1.427 . S
N1315 C1313 1.384 . S
H1316 C1322 0.930 . S
H1317 C1326 0.930 1_545 S
H1318 C1331 0.929 . S
H1319 C1329 0.929 . S
H1320 C1324 0.929 . S
H1321 C1330 0.929 . S
C1322 H1316 0.930 . S
C1322 C1323 1.367 . S
C1322 C1330 1.378 . S
C1323 C1322 1.367 . S
C1323 C1331 1.433 . S
C1324 H1320 0.929 . S
C1324 C1326 1.378 . S
C1324 C1328 1.350 . S
C1325 C1328 1.463 . S
C1325 C1330 1.350 . S
C1325 N1333 1.427 . S
C1326 H1317 0.930 1_565 S
C1326 C1324 1.378 . S
C1326 C1327 1.371 . S
C1327 C1326 1.371 . S
C1327 C1329 1.440 . S
C1328 C1324 1.350 . S
C1328 C1325 1.463 . S
C1328 N1332 1.427 . S
C1329 H1319 0.929 . S
C1329 C1327 1.440 . S
C1329 N1332 1.384 . S
C1330 H1321 0.929 . S
C1330 C1322 1.378 . S
C1330 C1325 1.350 . S
C1331 H1318 0.929 . S
C1331 C1323 1.433 . S
C1331 N1333 1.384 . S
N1332 C1328 1.427 . S
N1332 C1329 1.384 . S
N1333 C1325 1.427 . S
N1333 C1331 1.384 . S
H1334 C1340 0.930 . S
H1335 C1344 0.930 1_655 S
H1336 C1349 0.929 . S
H1337 C1347 0.929 . S
H1338 C1342 0.929 . S
H1339 C1348 0.929 . S
C1340 H1334 0.930 . S
C1340 C1341 1.367 . S
C1340 C1348 1.378 . S
C1341 C1340 1.367 . S
C1341 C1349 1.433 . S
C1342 H1338 0.929 . S
C1342 C1344 1.378 . S
C1342 C1346 1.350 . S
C1343 C1346 1.463 . S
C1343 C1348 1.350 . S
C1343 N1351 1.427 . S
C1344 H1335 0.930 1_455 S
C1344 C1342 1.378 . S
C1344 C1345 1.367 . S
C1345 C1344 1.367 . S
C1345 C1347 1.436 . S
C1346 C1342 1.350 . S
C1346 C1343 1.463 . S
C1346 N1350 1.427 . S
C1347 H1337 0.929 . S
C1347 C1345 1.436 . S
C1347 N1350 1.384 . S
C1348 H1339 0.929 . S
C1348 C1340 1.378 . S
C1348 C1343 1.350 . S
C1349 H1336 0.929 . S
C1349 C1341 1.433 . S
C1349 N1351 1.384 . S
N1350 C1346 1.427 . S
N1350 C1347 1.384 . S
N1351 C1343 1.427 . S
N1351 C1349 1.384 . S
H1352 C1358 0.930 . S
H1353 C1362 0.930 . S
H1354 C1367 0.929 1_545 S
H1355 C1365 0.929 . S
H1356 C1360 0.929 . S
H1357 C1366 0.929 . S
C1358 H1352 0.930 . S
C1358 C1359 1.381 . S
C1358 C1366 1.378 . S
C1359 C1358 1.381 . S
C1359 C1367 1.438 . S
C1360 H1356 0.929 . S
C1360 C1362 1.378 . S
C1360 C1364 1.350 . S
C1361 C1364 1.463 . S
C1361 C1366 1.350 . S
C1361 N1369 1.427 . S
C1362 H1353 0.930 . S
C1362 C1360 1.378 . S
C1362 C1363 1.367 . S
C1363 C1362 1.367 . S
C1363 C1365 1.433 . S
C1364 C1360 1.350 . S
C1364 C1361 1.463 . S
C1364 N1368 1.427 . S
C1365 H1355 0.929 . S
C1365 C1363 1.433 . S
C1365 N1368 1.384 . S
C1366 H1357 0.929 . S
C1366 C1358 1.378 . S
C1366 C1361 1.350 . S
C1367 H1354 0.929 1_565 S
C1367 C1359 1.438 . S
C1367 N1369 1.384 . S
N1368 C1364 1.427 . S
N1368 C1365 1.384 . S
N1369 C1361 1.427 . S
N1369 C1367 1.384 . S
H1370 C1376 0.930 . S
H1371 C1380 0.930 . S
H1372 C1385 0.929 . S
H1373 C1383 0.929 . S
H1374 C1378 0.929 . S
H1375 C1384 0.929 . S
C1376 H1370 0.930 . S
C1376 C1377 1.374 . S
C1376 C1384 1.378 . S
C1377 C1376 1.374 . S
C1377 C1385 1.440 . S
C1378 H1374 0.929 . S
C1378 C1380 1.378 . S
C1378 C1382 1.350 . S
C1379 C1382 1.463 . S
C1379 C1384 1.350 . S
C1379 N1387 1.427 . S
C1380 H1371 0.930 . S
C1380 C1378 1.378 . S
C1380 C1381 1.367 . S
C1381 C1380 1.367 . S
C1381 C1383 1.433 . S
C1382 C1378 1.350 . S
C1382 C1379 1.463 . S
C1382 N1386 1.427 . S
C1383 H1373 0.929 . S
C1383 C1381 1.433 . S
C1383 N1386 1.384 . S
C1384 H1375 0.929 . S
C1384 C1376 1.378 . S
C1384 C1379 1.350 . S
C1385 H1372 0.929 . S
C1385 C1377 1.440 . S
C1385 N1387 1.384 . S
N1386 C1382 1.427 . S
N1386 C1383 1.384 . S
N1387 C1379 1.427 . S
N1387 C1385 1.384 . S
H1388 C1394 0.930 . S
H1389 C1398 0.930 . S
H1390 C1403 0.929 1_565 S
H1391 C1401 0.929 . S
H1392 C1396 0.929 . S
H1393 C1402 0.929 . S
C1394 H1388 0.930 . S
C1394 C1395 1.377 . S
C1394 C1402 1.378 . S
C1395 C1394 1.377 . S
C1395 C1403 1.439 . S
C1396 H1392 0.929 . S
C1396 C1398 1.378 . S
C1396 C1400 1.350 . S
C1397 C1400 1.463 . S
C1397 C1402 1.350 . S
C1397 N1405 1.427 . S
C1398 H1389 0.930 . S
C1398 C1396 1.378 . S
C1398 C1399 1.367 . S
C1399 C1398 1.367 . S
C1399 C1401 1.433 . S
C1400 C1396 1.350 . S
C1400 C1397 1.463 . S
C1400 N1404 1.427 . S
C1401 H1391 0.929 . S
C1401 C1399 1.433 . S
C1401 N1404 1.384 . S
C1402 H1393 0.929 . S
C1402 C1394 1.378 . S
C1402 C1397 1.350 . S
C1403 H1390 0.929 1_545 S
C1403 C1395 1.439 . S
C1403 N1405 1.384 . S
N1404 C1400 1.427 . S
N1404 C1401 1.384 . S
N1405 C1397 1.427 . S
N1405 C1403 1.384 . S
H1406 C1412 0.930 . S
H1407 C1416 0.930 1_455 S
H1408 C1421 0.929 . S
H1409 C1419 0.929 . S
H1410 C1414 0.929 . S
H1411 C1420 0.929 . S
C1412 H1406 0.930 . S
C1412 C1413 1.367 . S
C1412 C1420 1.378 . S
C1413 C1412 1.367 . S
C1413 C1421 1.433 . S
C1414 H1410 0.929 . S
C1414 C1416 1.378 . S
C1414 C1418 1.350 . S
C1415 C1418 1.463 . S
C1415 C1420 1.350 . S
C1415 N1423 1.427 . S
C1416 H1407 0.930 1_655 S
C1416 C1414 1.378 . S
C1416 C1417 1.367 . S
C1417 C1416 1.367 . S
C1417 C1419 1.436 . S
C1418 C1414 1.350 . S
C1418 C1415 1.463 . S
C1418 N1422 1.427 . S
C1419 H1409 0.929 . S
C1419 C1417 1.436 . S
C1419 N1422 1.384 . S
C1420 H1411 0.929 . S
C1420 C1412 1.378 . S
C1420 C1415 1.350 . S
C1421 H1408 0.929 . S
C1421 C1413 1.433 . S
C1421 N1423 1.384 . S
N1422 C1418 1.427 . S
N1422 C1419 1.384 . S
N1423 C1415 1.427 . S
N1423 C1421 1.384 . S
H1424 C1430 0.930 . S
H1425 C1434 0.930 . S
H1426 C1439 0.929 1_545 S
H1427 C1437 0.929 . S
H1428 C1432 0.929 . S
H1429 C1438 0.929 . S
C1430 H1424 0.930 . S
C1430 C1431 1.382 . S
C1430 C1438 1.378 . S
C1431 C1430 1.382 . S
C1431 C1439 1.438 . S
C1432 H1428 0.929 . S
C1432 C1434 1.378 . S
C1432 C1436 1.350 . S
C1433 C1436 1.463 . S
C1433 C1438 1.350 . S
C1433 N1441 1.427 . S
C1434 H1425 0.930 . S
C1434 C1432 1.378 . S
C1434 C1435 1.367 . S
C1435 C1434 1.367 . S
C1435 C1437 1.433 . S
C1436 C1432 1.350 . S
C1436 C1433 1.463 . S
C1436 N1440 1.427 . S
C1437 H1427 0.929 . S
C1437 C1435 1.433 . S
C1437 N1440 1.384 . S
C1438 H1429 0.929 . S
C1438 C1430 1.378 . S
C1438 C1433 1.350 . S
C1439 H1426 0.929 1_565 S
C1439 C1431 1.438 . S
C1439 N1441 1.384 . S
N1440 C1436 1.427 . S
N1440 C1437 1.384 . S
N1441 C1433 1.427 . S
N1441 C1439 1.384 . S
H1442 C1448 0.930 1_655 S
H1443 C1452 0.930 . S
H1444 C1457 0.929 . S
H1445 C1455 0.929 . S
H1446 C1450 0.929 . S
H1447 C1456 0.929 . S
C1448 H1442 0.930 1_455 S
C1448 C1449 1.370 . S
C1448 C1456 1.378 . S
C1449 C1448 1.370 . S
C1449 C1457 1.440 . S
C1450 H1446 0.929 . S
C1450 C1452 1.378 . S
C1450 C1454 1.350 . S
C1451 C1454 1.463 . S
C1451 C1456 1.350 . S
C1451 N1459 1.427 . S
C1452 H1443 0.930 . S
C1452 C1450 1.378 . S
C1452 C1453 1.367 . S
C1453 C1452 1.367 . S
C1453 C1455 1.433 . S
C1454 C1450 1.350 . S
C1454 C1451 1.463 . S
C1454 N1458 1.427 . S
C1455 H1445 0.929 . S
C1455 C1453 1.433 . S
C1455 N1458 1.384 . S
C1456 H1447 0.929 . S
C1456 C1448 1.378 . S
C1456 C1451 1.350 . S
C1457 H1444 0.929 . S
C1457 C1449 1.440 . S
C1457 N1459 1.384 . S
N1458 C1454 1.427 . S
N1458 C1455 1.384 . S
N1459 C1451 1.427 . S
N1459 C1457 1.384 . S
H1460 C1466 0.930 . S
H1461 C1470 0.930 1_565 S
H1462 C1475 0.929 . S
H1463 C1473 0.929 . S
H1464 C1468 0.929 . S
H1465 C1474 0.929 . S
C1466 H1460 0.930 . S
C1466 C1467 1.367 . S
C1466 C1474 1.378 . S
C1467 C1466 1.367 . S
C1467 C1475 1.433 . S
C1468 H1464 0.929 . S
C1468 C1470 1.378 . S
C1468 C1472 1.350 . S
C1469 C1472 1.463 . S
C1469 C1474 1.350 . S
C1469 N1477 1.427 . S
C1470 H1461 0.930 1_545 S
C1470 C1468 1.378 . S
C1470 C1471 1.367 . S
C1471 C1470 1.367 . S
C1471 C1473 1.437 . S
C1472 C1468 1.350 . S
C1472 C1469 1.463 . S
C1472 N1476 1.427 . S
C1473 H1463 0.929 . S
C1473 C1471 1.437 . S
C1473 N1476 1.384 . S
C1474 H1465 0.929 . S
C1474 C1466 1.378 . S
C1474 C1469 1.350 . S
C1475 H1462 0.929 . S
C1475 C1467 1.433 . S
C1475 N1477 1.384 . S
N1476 C1472 1.427 . S
N1476 C1473 1.384 . S
N1477 C1469 1.427 . S
N1477 C1475 1.384 . S
H1478 C1484 0.930 . S
H1479 C1488 0.930 . S
H1480 C1493 0.929 . S
H1481 C1491 0.929 1_455 S
H1482 C1486 0.929 . S
H1483 C1492 0.929 . S
C1484 H1478 0.930 . S
C1484 C1485 1.367 . S
C1484 C1492 1.378 . S
C1485 C1484 1.367 . S
C1485 C1493 1.433 . S
C1486 H1482 0.929 . S
C1486 C1488 1.378 . S
C1486 C1490 1.350 . S
C1487 C1490 1.463 . S
C1487 C1492 1.350 . S
C1487 N1495 1.427 . S
C1488 H1479 0.930 . S
C1488 C1486 1.378 . S
C1488 C1489 1.378 . S
C1489 C1488 1.378 . S
C1489 C1491 1.439 . S
C1490 C1486 1.350 . S
C1490 C1487 1.463 . S
C1490 N1494 1.427 . S
C1491 H1481 0.929 1_655 S
C1491 C1489 1.439 . S
C1491 N1494 1.384 . S
C1492 H1483 0.929 . S
C1492 C1484 1.378 . S
C1492 C1487 1.350 . S
C1493 H1480 0.929 . S
C1493 C1485 1.433 . S
C1493 N1495 1.384 . S
N1494 C1490 1.427 . S
N1494 C1491 1.384 . S
N1495 C1487 1.427 . S
N1495 C1493 1.384 . S
H1496 C1502 0.930 1_565 S
H1497 C1506 0.930 . S
H1498 C1511 0.929 . S
H1499 C1509 0.929 . S
H1500 C1504 0.929 . S
H1501 C1510 0.929 . S
C1502 H1496 0.930 1_545 S
C1502 C1503 1.369 . S
C1502 C1510 1.378 . S
C1503 C1502 1.369 . S
C1503 C1511 1.439 . S
C1504 H1500 0.929 . S
C1504 C1506 1.378 . S
C1504 C1508 1.350 . S
C1505 C1508 1.463 . S
C1505 C1510 1.350 . S
C1505 N1513 1.427 . S
C1506 H1497 0.930 . S
C1506 C1504 1.378 . S
C1506 C1507 1.367 . S
C1507 C1506 1.367 . S
C1507 C1509 1.433 . S
C1508 C1504 1.350 . S
C1508 C1505 1.463 . S
C1508 N1512 1.427 . S
C1509 H1499 0.929 . S
C1509 C1507 1.433 . S
C1509 N1512 1.384 . S
C1510 H1501 0.929 . S
C1510 C1502 1.378 . S
C1510 C1505 1.350 . S
C1511 H1498 0.929 . S
C1511 C1503 1.439 . S
C1511 N1513 1.384 . S
N1512 C1508 1.427 . S
N1512 C1509 1.384 . S
N1513 C1505 1.427 . S
N1513 C1511 1.384 . S
H1514 C1520 0.930 . S
H1515 C1524 0.930 . S
H1516 C1529 0.929 . S
H1517 C1527 0.929 1_455 S
H1518 C1522 0.929 . S
H1519 C1528 0.929 . S
C1520 H1514 0.930 . S
C1520 C1521 1.367 . S
C1520 C1528 1.378 . S
C1521 C1520 1.367 . S
C1521 C1529 1.433 . S
C1522 H1518 0.929 . S
C1522 C1524 1.378 . S
C1522 C1526 1.350 . S
C1523 C1526 1.463 . S
C1523 C1528 1.350 . S
C1523 N1531 1.427 . S
C1524 H1515 0.930 . S
C1524 C1522 1.378 . S
C1524 C1525 1.382 . S
C1525 C1524 1.382 . S
C1525 C1527 1.438 . S
C1526 C1522 1.350 . S
C1526 C1523 1.463 . S
C1526 N1530 1.427 . S
C1527 H1517 0.929 1_655 S
C1527 C1525 1.438 . S
C1527 N1530 1.384 . S
C1528 H1519 0.929 . S
C1528 C1520 1.378 . S
C1528 C1523 1.350 . S
C1529 H1516 0.929 . S
C1529 C1521 1.433 . S
C1529 N1531 1.384 . S
N1530 C1526 1.427 . S
N1530 C1527 1.384 . S
N1531 C1523 1.427 . S
N1531 C1529 1.384 . S
H1532 C1538 0.930 . S
H1533 C1542 0.930 1_545 S
H1534 C1547 0.929 . S
H1535 C1545 0.929 . S
H1536 C1540 0.929 . S
H1537 C1546 0.929 . S
C1538 H1532 0.930 . S
C1538 C1539 1.367 . S
C1538 C1546 1.378 . S
C1539 C1538 1.367 . S
C1539 C1547 1.433 . S
C1540 H1536 0.929 . S
C1540 C1542 1.378 . S
C1540 C1544 1.350 . S
C1541 C1544 1.463 . S
C1541 C1546 1.350 . S
C1541 N1549 1.427 . S
C1542 H1533 0.930 1_565 S
C1542 C1540 1.378 . S
C1542 C1543 1.368 . S
C1543 C1542 1.368 . S
C1543 C1545 1.439 . S
C1544 C1540 1.350 . S
C1544 C1541 1.463 . S
C1544 N1548 1.427 . S
C1545 H1535 0.929 . S
C1545 C1543 1.439 . S
C1545 N1548 1.384 . S
C1546 H1537 0.929 . S
C1546 C1538 1.378 . S
C1546 C1541 1.350 . S
C1547 H1534 0.929 . S
C1547 C1539 1.433 . S
C1547 N1549 1.384 . S
N1548 C1544 1.427 . S
N1548 C1545 1.384 . S
N1549 C1541 1.427 . S
N1549 C1547 1.384 . S
H1550 C1556 0.930 . S
H1551 C1560 0.930 1_655 S
H1552 C1565 0.929 . S
H1553 C1563 0.929 . S
H1554 C1558 0.929 . S
H1555 C1564 0.929 . S
C1556 H1550 0.930 . S
C1556 C1557 1.367 . S
C1556 C1564 1.378 . S
C1557 C1556 1.367 . S
C1557 C1565 1.433 . S
C1558 H1554 0.929 . S
C1558 C1560 1.378 . S
C1558 C1562 1.350 . S
C1559 C1562 1.463 . S
C1559 C1564 1.350 . S
C1559 N1567 1.427 . S
C1560 H1551 0.930 1_455 S
C1560 C1558 1.378 . S
C1560 C1561 1.368 . S
C1561 C1560 1.368 . S
C1561 C1563 1.438 . S
C1562 C1558 1.350 . S
C1562 C1559 1.463 . S
C1562 N1566 1.427 . S
C1563 H1553 0.929 . S
C1563 C1561 1.438 . S
C1563 N1566 1.384 . S
C1564 H1555 0.929 . S
C1564 C1556 1.378 . S
C1564 C1559 1.350 . S
C1565 H1552 0.929 . S
C1565 C1557 1.433 . S
C1565 N1567 1.384 . S
N1566 C1562 1.427 . S
N1566 C1563 1.384 . S
N1567 C1559 1.427 . S
N1567 C1565 1.384 . S
H1568 C1574 0.930 . S
H1569 C1578 0.930 . S
H1570 C1583 0.929 . S
H1571 C1581 0.929 . S
H1572 C1576 0.929 . S
H1573 C1582 0.929 . S
C1574 H1568 0.930 . S
C1574 C1575 1.367 . S
C1574 C1582 1.378 . S
C1575 C1574 1.367 . S
C1575 C1583 1.433 . S
C1576 H1572 0.929 . S
C1576 C1578 1.378 . S
C1576 C1580 1.350 . S
C1577 C1580 1.463 . S
C1577 C1582 1.350 . S
C1577 N1585 1.427 . S
C1578 H1569 0.930 . S
C1578 C1576 1.378 . S
C1578 C1579 1.367 . S
C1579 C1578 1.367 . S
C1579 C1581 1.433 . S
C1580 C1576 1.350 . S
C1580 C1577 1.463 . S
C1580 N1584 1.427 . S
C1581 H1571 0.929 . S
C1581 C1579 1.433 . S
C1581 N1584 1.384 . S
C1582 H1573 0.929 . S
C1582 C1574 1.378 . S
C1582 C1577 1.350 . S
C1583 H1570 0.929 . S
C1583 C1575 1.433 . S
C1583 N1585 1.384 . S
N1584 C1580 1.427 . S
N1584 C1581 1.384 . S
N1585 C1577 1.427 . S
N1585 C1583 1.384 . S
H1586 C1592 0.930 . S
H1587 C1596 0.930 . S
H1588 C1601 0.929 . S
H1589 C1599 0.929 . S
H1590 C1594 0.929 . S
H1591 C1600 0.929 . S
C1592 H1586 0.930 . S
C1592 C1593 1.367 . S
C1592 C1600 1.378 . S
C1593 C1592 1.367 . S
C1593 C1601 1.433 . S
C1594 H1590 0.929 . S
C1594 C1596 1.378 . S
C1594 C1598 1.350 . S
C1595 C1598 1.463 . S
C1595 C1600 1.350 . S
C1595 N1603 1.427 . S
C1596 H1587 0.930 . S
C1596 C1594 1.378 . S
C1596 C1597 1.367 . S
C1597 C1596 1.367 . S
C1597 C1599 1.433 . S
C1598 C1594 1.350 . S
C1598 C1595 1.463 . S
C1598 N1602 1.427 . S
C1599 H1589 0.929 . S
C1599 C1597 1.433 . S
C1599 N1602 1.384 . S
C1600 H1591 0.929 . S
C1600 C1592 1.378 . S
C1600 C1595 1.350 . S
C1601 H1588 0.929 . S
C1601 C1593 1.433 . S
C1601 N1603 1.384 . S
N1602 C1598 1.427 . S
N1602 C1599 1.384 . S
N1603 C1595 1.427 . S
N1603 C1601 1.384 . S
H1604 C1610 0.930 . S
H1605 C1614 0.930 . S
H1606 C1619 0.929 . S
H1607 C1617 0.929 . S
H1608 C1612 0.929 . S
H1609 C1618 0.929 . S
C1610 H1604 0.930 . S
C1610 C1611 1.367 . S
C1610 C1618 1.378 . S
C1611 C1610 1.367 . S
C1611 C1619 1.433 . S
C1612 H1608 0.929 . S
C1612 C1614 1.378 . S
C1612 C1616 1.350 . S
C1613 C1616 1.463 . S
C1613 C1618 1.350 . S
C1613 N1621 1.427 . S
C1614 H1605 0.930 . S
C1614 C1612 1.378 . S
C1614 C1615 1.367 . S
C1615 C1614 1.367 . S
C1615 C1617 1.433 . S
C1616 C1612 1.350 . S
C1616 C1613 1.463 . S
C1616 N1620 1.427 . S
C1617 H1607 0.929 . S
C1617 C1615 1.433 . S
C1617 N1620 1.384 . S
C1618 H1609 0.929 . S
C1618 C1610 1.378 . S
C1618 C1613 1.350 . S
C1619 H1606 0.929 . S
C1619 C1611 1.433 . S
C1619 N1621 1.384 . S
N1620 C1616 1.427 . S
N1620 C1617 1.384 . S
N1621 C1613 1.427 . S
N1621 C1619 1.384 . S
H1622 C1628 0.930 . S
H1623 C1632 0.930 . S
H1624 C1637 0.929 . S
H1625 C1635 0.929 . S
H1626 C1630 0.929 . S
H1627 C1636 0.929 . S
C1628 H1622 0.930 . S
C1628 C1629 1.367 . S
C1628 C1636 1.378 . S
C1629 C1628 1.367 . S
C1629 C1637 1.433 . S
C1630 H1626 0.929 . S
C1630 C1632 1.378 . S
C1630 C1634 1.350 . S
C1631 C1634 1.463 . S
C1631 C1636 1.350 . S
C1631 N1639 1.427 . S
C1632 H1623 0.930 . S
C1632 C1630 1.378 . S
C1632 C1633 1.367 . S
C1633 C1632 1.367 . S
C1633 C1635 1.433 . S
C1634 C1630 1.350 . S
C1634 C1631 1.463 . S
C1634 N1638 1.427 . S
C1635 H1625 0.929 . S
C1635 C1633 1.433 . S
C1635 N1638 1.384 . S
C1636 H1627 0.929 . S
C1636 C1628 1.378 . S
C1636 C1631 1.350 . S
C1637 H1624 0.929 . S
C1637 C1629 1.433 . S
C1637 N1639 1.384 . S
N1638 C1634 1.427 . S
N1638 C1635 1.384 . S
N1639 C1631 1.427 . S
N1639 C1637 1.384 . S
H1640 C1646 0.930 . S
H1641 C1650 0.930 . S
H1642 C1655 0.929 . S
H1643 C1653 0.929 . S
H1644 C1648 0.929 . S
H1645 C1654 0.929 . S
C1646 H1640 0.930 . S
C1646 C1647 1.367 . S
C1646 C1654 1.378 . S
C1647 C1646 1.367 . S
C1647 C1655 1.433 . S
C1648 H1644 0.929 . S
C1648 C1650 1.378 . S
C1648 C1652 1.350 . S
C1649 C1652 1.463 . S
C1649 C1654 1.350 . S
C1649 N1657 1.427 . S
C1650 H1641 0.930 . S
C1650 C1648 1.378 . S
C1650 C1651 1.367 . S
C1651 C1650 1.367 . S
C1651 C1653 1.433 . S
C1652 C1648 1.350 . S
C1652 C1649 1.463 . S
C1652 N1656 1.427 . S
C1653 H1643 0.929 . S
C1653 C1651 1.433 . S
C1653 N1656 1.384 . S
C1654 H1645 0.929 . S
C1654 C1646 1.378 . S
C1654 C1649 1.350 . S
C1655 H1642 0.929 . S
C1655 C1647 1.433 . S
C1655 N1657 1.384 . S
N1656 C1652 1.427 . S
N1656 C1653 1.384 . S
N1657 C1649 1.427 . S
N1657 C1655 1.384 . S
H1658 C1664 0.930 . S
H1659 C1668 0.930 . S
H1660 C1673 0.929 . S
H1661 C1671 0.929 . S
H1662 C1666 0.929 . S
H1663 C1672 0.929 . S
C1664 H1658 0.930 . S
C1664 C1665 1.367 . S
C1664 C1672 1.378 . S
C1665 C1664 1.367 . S
C1665 C1673 1.433 . S
C1666 H1662 0.929 . S
C1666 C1668 1.378 . S
C1666 C1670 1.350 . S
C1667 C1670 1.463 . S
C1667 C1672 1.350 . S
C1667 N1675 1.427 . S
C1668 H1659 0.930 . S
C1668 C1666 1.378 . S
C1668 C1669 1.367 . S
C1669 C1668 1.367 . S
C1669 C1671 1.433 . S
C1670 C1666 1.350 . S
C1670 C1667 1.463 . S
C1670 N1674 1.427 . S
C1671 H1661 0.929 . S
C1671 C1669 1.433 . S
C1671 N1674 1.384 . S
C1672 H1663 0.929 . S
C1672 C1664 1.378 . S
C1672 C1667 1.350 . S
C1673 H1660 0.929 . S
C1673 C1665 1.433 . S
C1673 N1675 1.384 . S
N1674 C1670 1.427 . S
N1674 C1671 1.384 . S
N1675 C1667 1.427 . S
N1675 C1673 1.384 . S
H1676 C1682 0.930 . S
H1677 C1686 0.930 . S
H1678 C1691 0.929 . S
H1679 C1689 0.929 . S
H1680 C1684 0.929 . S
H1681 C1690 0.929 . S
C1682 H1676 0.930 . S
C1682 C1683 1.367 . S
C1682 C1690 1.378 . S
C1683 C1682 1.367 . S
C1683 C1691 1.433 . S
C1684 H1680 0.929 . S
C1684 C1686 1.378 . S
C1684 C1688 1.350 . S
C1685 C1688 1.463 . S
C1685 C1690 1.350 . S
C1685 N1693 1.427 . S
C1686 H1677 0.930 . S
C1686 C1684 1.378 . S
C1686 C1687 1.367 . S
C1687 C1686 1.367 . S
C1687 C1689 1.433 . S
C1688 C1684 1.350 . S
C1688 C1685 1.463 . S
C1688 N1692 1.427 . S
C1689 H1679 0.929 . S
C1689 C1687 1.433 . S
C1689 N1692 1.384 . S
C1690 H1681 0.929 . S
C1690 C1682 1.378 . S
C1690 C1685 1.350 . S
C1691 H1678 0.929 . S
C1691 C1683 1.433 . S
C1691 N1693 1.384 . S
N1692 C1688 1.427 . S
N1692 C1689 1.384 . S
N1693 C1685 1.427 . S
N1693 C1691 1.384 . S
H1694 C1700 0.930 . S
H1695 C1704 0.930 . S
H1696 C1709 0.929 . S
H1697 C1707 0.929 . S
H1698 C1702 0.929 . S
H1699 C1708 0.929 . S
C1700 H1694 0.930 . S
C1700 C1701 1.367 . S
C1700 C1708 1.378 . S
C1701 C1700 1.367 . S
C1701 C1709 1.433 . S
C1702 H1698 0.929 . S
C1702 C1704 1.378 . S
C1702 C1706 1.350 . S
C1703 C1706 1.463 . S
C1703 C1708 1.350 . S
C1703 N1711 1.427 . S
C1704 H1695 0.930 . S
C1704 C1702 1.378 . S
C1704 C1705 1.367 . S
C1705 C1704 1.367 . S
C1705 C1707 1.433 . S
C1706 C1702 1.350 . S
C1706 C1703 1.463 . S
C1706 N1710 1.427 . S
C1707 H1697 0.929 . S
C1707 C1705 1.433 . S
C1707 N1710 1.384 . S
C1708 H1699 0.929 . S
C1708 C1700 1.378 . S
C1708 C1703 1.350 . S
C1709 H1696 0.929 . S
C1709 C1701 1.433 . S
C1709 N1711 1.384 . S
N1710 C1706 1.427 . S
N1710 C1707 1.384 . S
N1711 C1703 1.427 . S
N1711 C1709 1.384 . S
H1712 C1718 0.930 . S
H1713 C1722 0.930 . S
H1714 C1727 0.929 . S
H1715 C1725 0.929 . S
H1716 C1720 0.929 . S
H1717 C1726 0.929 . S
C1718 H1712 0.930 . S
C1718 C1719 1.367 . S
C1718 C1726 1.378 . S
C1719 C1718 1.367 . S
C1719 C1727 1.433 . S
C1720 H1716 0.929 . S
C1720 C1722 1.378 . S
C1720 C1724 1.350 . S
C1721 C1724 1.463 . S
C1721 C1726 1.350 . S
C1721 N1729 1.427 . S
C1722 H1713 0.930 . S
C1722 C1720 1.378 . S
C1722 C1723 1.367 . S
C1723 C1722 1.367 . S
C1723 C1725 1.433 . S
C1724 C1720 1.350 . S
C1724 C1721 1.463 . S
C1724 N1728 1.427 . S
C1725 H1715 0.929 . S
C1725 C1723 1.433 . S
C1725 N1728 1.384 . S
C1726 H1717 0.929 . S
C1726 C1718 1.378 . S
C1726 C1721 1.350 . S
C1727 H1714 0.929 . S
C1727 C1719 1.433 . S
C1727 N1729 1.384 . S
N1728 C1724 1.427 . S
N1728 C1725 1.384 . S
N1729 C1721 1.427 . S
N1729 C1727 1.384 . S
H1730 C1736 0.930 . S
H1731 C1740 0.930 . S
H1732 C1745 0.929 . S
H1733 C1743 0.929 . S
H1734 C1738 0.929 . S
H1735 C1744 0.929 . S
C1736 H1730 0.930 . S
C1736 C1737 1.367 . S
C1736 C1744 1.378 . S
C1737 C1736 1.367 . S
C1737 C1745 1.433 . S
C1738 H1734 0.929 . S
C1738 C1740 1.378 . S
C1738 C1742 1.350 . S
C1739 C1742 1.463 . S
C1739 C1744 1.350 . S
C1739 N1747 1.427 . S
C1740 H1731 0.930 . S
C1740 C1738 1.378 . S
C1740 C1741 1.367 . S
C1741 C1740 1.367 . S
C1741 C1743 1.433 . S
C1742 C1738 1.350 . S
C1742 C1739 1.463 . S
C1742 N1746 1.427 . S
C1743 H1733 0.929 . S
C1743 C1741 1.433 . S
C1743 N1746 1.384 . S
C1744 H1735 0.929 . S
C1744 C1736 1.378 . S
C1744 C1739 1.350 . S
C1745 H1732 0.929 . S
C1745 C1737 1.433 . S
C1745 N1747 1.384 . S
N1746 C1742 1.427 . S
N1746 C1743 1.384 . S
N1747 C1739 1.427 . S
N1747 C1745 1.384 . S
H1748 C1754 0.930 . S
H1749 C1758 0.930 . S
H1750 C1763 0.929 . S
H1751 C1761 0.929 . S
H1752 C1756 0.929 . S
H1753 C1762 0.929 . S
C1754 H1748 0.930 . S
C1754 C1755 1.367 . S
C1754 C1762 1.378 . S
C1755 C1754 1.367 . S
C1755 C1763 1.433 . S
C1756 H1752 0.929 . S
C1756 C1758 1.378 . S
C1756 C1760 1.350 . S
C1757 C1760 1.463 . S
C1757 C1762 1.350 . S
C1757 N1765 1.427 . S
C1758 H1749 0.930 . S
C1758 C1756 1.378 . S
C1758 C1759 1.367 . S
C1759 C1758 1.367 . S
C1759 C1761 1.433 . S
C1760 C1756 1.350 . S
C1760 C1757 1.463 . S
C1760 N1764 1.427 . S
C1761 H1751 0.929 . S
C1761 C1759 1.433 . S
C1761 N1764 1.384 . S
C1762 H1753 0.929 . S
C1762 C1754 1.378 . S
C1762 C1757 1.350 . S
C1763 H1750 0.929 . S
C1763 C1755 1.433 . S
C1763 N1765 1.384 . S
N1764 C1760 1.427 . S
N1764 C1761 1.384 . S
N1765 C1757 1.427 . S
N1765 C1763 1.384 . S
H1766 C1772 0.930 . S
H1767 C1776 0.930 . S
H1768 C1781 0.929 . S
H1769 C1779 0.929 . S
H1770 C1774 0.929 . S
H1771 C1780 0.929 . S
C1772 H1766 0.930 . S
C1772 C1773 1.367 . S
C1772 C1780 1.378 . S
C1773 C1772 1.367 . S
C1773 C1781 1.433 . S
C1774 H1770 0.929 . S
C1774 C1776 1.378 . S
C1774 C1778 1.350 . S
C1775 C1778 1.463 . S
C1775 C1780 1.350 . S
C1775 N1783 1.427 . S
C1776 H1767 0.930 . S
C1776 C1774 1.378 . S
C1776 C1777 1.367 . S
C1777 C1776 1.367 . S
C1777 C1779 1.433 . S
C1778 C1774 1.350 . S
C1778 C1775 1.463 . S
C1778 N1782 1.427 . S
C1779 H1769 0.929 . S
C1779 C1777 1.433 . S
C1779 N1782 1.384 . S
C1780 H1771 0.929 . S
C1780 C1772 1.378 . S
C1780 C1775 1.350 . S
C1781 H1768 0.929 . S
C1781 C1773 1.433 . S
C1781 N1783 1.384 . S
N1782 C1778 1.427 . S
N1782 C1779 1.384 . S
N1783 C1775 1.427 . S
N1783 C1781 1.384 . S
H1784 C1790 0.930 . S
H1785 C1794 0.930 . S
H1786 C1799 0.929 . S
H1787 C1797 0.929 . S
H1788 C1792 0.929 . S
H1789 C1798 0.929 . S
C1790 H1784 0.930 . S
C1790 C1791 1.367 . S
C1790 C1798 1.378 . S
C1791 C1790 1.367 . S
C1791 C1799 1.433 . S
C1792 H1788 0.929 . S
C1792 C1794 1.378 . S
C1792 C1796 1.350 . S
C1793 C1796 1.463 . S
C1793 C1798 1.350 . S
C1793 N1801 1.427 . S
C1794 H1785 0.930 . S
C1794 C1792 1.378 . S
C1794 C1795 1.367 . S
C1795 C1794 1.367 . S
C1795 C1797 1.433 . S
C1796 C1792 1.350 . S
C1796 C1793 1.463 . S
C1796 N1800 1.427 . S
C1797 H1787 0.929 . S
C1797 C1795 1.433 . S
C1797 N1800 1.384 . S
C1798 H1789 0.929 . S
C1798 C1790 1.378 . S
C1798 C1793 1.350 . S
C1799 H1786 0.929 . S
C1799 C1791 1.433 . S
C1799 N1801 1.384 . S
N1800 C1796 1.427 . S
N1800 C1797 1.384 . S
N1801 C1793 1.427 . S
N1801 C1799 1.384 . S
H1802 C1808 0.930 . S
H1803 C1812 0.930 . S
H1804 C1817 0.929 . S
H1805 C1815 0.929 . S
H1806 C1810 0.929 . S
H1807 C1816 0.929 . S
C1808 H1802 0.930 . S
C1808 C1809 1.367 . S
C1808 C1816 1.378 . S
C1809 C1808 1.367 . S
C1809 C1817 1.433 . S
C1810 H1806 0.929 . S
C1810 C1812 1.378 . S
C1810 C1814 1.350 . S
C1811 C1814 1.463 . S
C1811 C1816 1.350 . S
C1811 N1819 1.427 . S
C1812 H1803 0.930 . S
C1812 C1810 1.378 . S
C1812 C1813 1.367 . S
C1813 C1812 1.367 . S
C1813 C1815 1.433 . S
C1814 C1810 1.350 . S
C1814 C1811 1.463 . S
C1814 N1818 1.427 . S
C1815 H1805 0.929 . S
C1815 C1813 1.433 . S
C1815 N1818 1.384 . S
C1816 H1807 0.929 . S
C1816 C1808 1.378 . S
C1816 C1811 1.350 . S
C1817 H1804 0.929 . S
C1817 C1809 1.433 . S
C1817 N1819 1.384 . S
N1818 C1814 1.427 . S
N1818 C1815 1.384 . S
N1819 C1811 1.427 . S
N1819 C1817 1.384 . S
H1820 C1826 0.930 . S
H1821 C1830 0.930 . S
H1822 C1835 0.929 . S
H1823 C1833 0.929 . S
H1824 C1828 0.929 . S
H1825 C1834 0.929 . S
C1826 H1820 0.930 . S
C1826 C1827 1.367 . S
C1826 C1834 1.378 . S
C1827 C1826 1.367 . S
C1827 C1835 1.433 . S
C1828 H1824 0.929 . S
C1828 C1830 1.378 . S
C1828 C1832 1.350 . S
C1829 C1832 1.463 . S
C1829 C1834 1.350 . S
C1829 N1837 1.427 . S
C1830 H1821 0.930 . S
C1830 C1828 1.378 . S
C1830 C1831 1.367 . S
C1831 C1830 1.367 . S
C1831 C1833 1.433 . S
C1832 C1828 1.350 . S
C1832 C1829 1.463 . S
C1832 N1836 1.427 . S
C1833 H1823 0.929 . S
C1833 C1831 1.433 . S
C1833 N1836 1.384 . S
C1834 H1825 0.929 . S
C1834 C1826 1.378 . S
C1834 C1829 1.350 . S
C1835 H1822 0.929 . S
C1835 C1827 1.433 . S
C1835 N1837 1.384 . S
N1836 C1832 1.427 . S
N1836 C1833 1.384 . S
N1837 C1829 1.427 . S
N1837 C1835 1.384 . S
H1838 C1844 0.930 . S
H1839 C1848 0.930 . S
H1840 C1853 0.929 . S
H1841 C1851 0.929 . S
H1842 C1846 0.929 . S
H1843 C1852 0.929 . S
C1844 H1838 0.930 . S
C1844 C1845 1.367 . S
C1844 C1852 1.378 . S
C1845 C1844 1.367 . S
C1845 C1853 1.433 . S
C1846 H1842 0.929 . S
C1846 C1848 1.378 . S
C1846 C1850 1.350 . S
C1847 C1850 1.463 . S
C1847 C1852 1.350 . S
C1847 N1855 1.427 . S
C1848 H1839 0.930 . S
C1848 C1846 1.378 . S
C1848 C1849 1.367 . S
C1849 C1848 1.367 . S
C1849 C1851 1.433 . S
C1850 C1846 1.350 . S
C1850 C1847 1.463 . S
C1850 N1854 1.427 . S
C1851 H1841 0.929 . S
C1851 C1849 1.433 . S
C1851 N1854 1.384 . S
C1852 H1843 0.929 . S
C1852 C1844 1.378 . S
C1852 C1847 1.350 . S
C1853 H1840 0.929 . S
C1853 C1845 1.433 . S
C1853 N1855 1.384 . S
N1854 C1850 1.427 . S
N1854 C1851 1.384 . S
N1855 C1847 1.427 . S
N1855 C1853 1.384 . S
H1856 C1862 0.930 . S
H1857 C1866 0.930 . S
H1858 C1871 0.929 . S
H1859 C1869 0.929 . S
H1860 C1864 0.929 . S
H1861 C1870 0.929 . S
C1862 H1856 0.930 . S
C1862 C1863 1.367 . S
C1862 C1870 1.378 . S
C1863 C1862 1.367 . S
C1863 C1871 1.433 . S
C1864 H1860 0.929 . S
C1864 C1866 1.378 . S
C1864 C1868 1.350 . S
C1865 C1868 1.463 1_455 S
C1865 C1870 1.350 . S
C1865 N1873 1.427 . S
C1866 H1857 0.930 . S
C1866 C1864 1.378 . S
C1866 C1867 1.367 . S
C1867 C1866 1.367 . S
C1867 C1869 1.433 . S
C1868 C1864 1.350 . S
C1868 C1865 1.463 1_655 S
C1868 N1872 1.427 . S
C1869 H1859 0.929 . S
C1869 C1867 1.433 . S
C1869 N1872 1.384 . S
C1870 H1861 0.929 . S
C1870 C1862 1.378 . S
C1870 C1865 1.350 . S
C1871 H1858 0.929 . S
C1871 C1863 1.433 . S
C1871 N1873 1.384 . S
N1872 C1868 1.427 . S
N1872 C1869 1.384 . S
N1873 C1865 1.427 . S
N1873 C1871 1.384 . S
H1874 C1880 0.930 . S
H1875 C1884 0.930 . S
H1876 C1889 0.929 . S
H1877 C1887 0.929 . S
H1878 C1882 0.929 . S
H1879 C1888 0.929 . S
C1880 H1874 0.930 . S
C1880 C1881 1.367 . S
C1880 C1888 1.378 . S
C1881 C1880 1.367 . S
C1881 C1889 1.433 . S
C1882 H1878 0.929 . S
C1882 C1884 1.378 . S
C1882 C1886 1.350 . S
C1883 C1886 1.463 1_565 S
C1883 C1888 1.350 . S
C1883 N1891 1.427 1_565 S
C1884 H1875 0.930 . S
C1884 C1882 1.378 . S
C1884 C1885 1.367 . S
C1885 C1884 1.367 . S
C1885 C1887 1.433 . S
C1886 C1882 1.350 . S
C1886 C1883 1.463 1_545 S
C1886 N1890 1.427 1_545 S
C1887 H1877 0.929 . S
C1887 C1885 1.433 . S
C1887 N1890 1.384 1_545 S
C1888 H1879 0.929 . S
C1888 C1880 1.378 . S
C1888 C1883 1.350 . S
C1889 H1876 0.929 . S
C1889 C1881 1.433 . S
C1889 N1891 1.384 1_565 S
N1890 C1886 1.427 1_565 S
N1890 C1887 1.384 1_565 S
N1891 C1883 1.427 1_545 S
N1891 C1889 1.384 1_545 S
H1892 C1898 0.930 . S
H1893 C1902 0.930 . S
H1894 C1907 0.929 . S
H1895 C1905 0.929 . S
H1896 C1900 0.929 . S
H1897 C1906 0.929 . S
C1898 H1892 0.930 . S
C1898 C1899 1.367 . S
C1898 C1906 1.378 1_655 S
C1899 C1898 1.367 . S
C1899 C1907 1.433 . S
C1900 H1896 0.929 . S
C1900 C1902 1.378 1_655 S
C1900 C1904 1.350 1_655 S
C1901 C1904 1.463 1_655 S
C1901 C1906 1.350 1_655 S
C1901 N1909 1.427 . S
C1902 H1893 0.930 . S
C1902 C1900 1.378 1_455 S
C1902 C1903 1.367 . S
C1903 C1902 1.367 . S
C1903 C1905 1.433 . S
C1904 C1900 1.350 1_455 S
C1904 C1901 1.463 1_455 S
C1904 N1908 1.427 . S
C1905 H1895 0.929 . S
C1905 C1903 1.433 . S
C1905 N1908 1.384 . S
C1906 H1897 0.929 . S
C1906 C1898 1.378 1_455 S
C1906 C1901 1.350 1_455 S
C1907 H1894 0.929 . S
C1907 C1899 1.433 . S
C1907 N1909 1.384 . S
N1908 C1904 1.427 . S
N1908 C1905 1.384 . S
N1909 C1901 1.427 . S
N1909 C1907 1.384 . S
H1910 C1916 0.930 . S
H1911 C1920 0.930 . S
H1912 C1925 0.929 . S
H1913 C1923 0.929 . S
H1914 C1918 0.929 . S
H1915 C1924 0.929 . S
C1916 H1910 0.930 . S
C1916 C1917 1.367 . S
C1916 C1924 1.378 1_545 S
C1917 C1916 1.367 . S
C1917 C1925 1.433 . S
C1918 H1914 0.929 . S
C1918 C1920 1.378 1_545 S
C1918 C1922 1.350 1_545 S
C1919 C1922 1.463 1_545 S
C1919 C1924 1.350 1_545 S
C1919 N1927 1.427 . S
C1920 H1911 0.930 . S
C1920 C1918 1.378 1_565 S
C1920 C1921 1.367 . S
C1921 C1920 1.367 . S
C1921 C1923 1.433 . S
C1922 C1918 1.350 1_565 S
C1922 C1919 1.463 1_565 S
C1922 N1926 1.427 . S
C1923 H1913 0.929 . S
C1923 C1921 1.433 . S
C1923 N1926 1.384 . S
C1924 H1915 0.929 . S
C1924 C1916 1.378 1_565 S
C1924 C1919 1.350 1_565 S
C1925 H1912 0.929 . S
C1925 C1917 1.433 . S
C1925 N1927 1.384 . S
N1926 C1922 1.427 . S
N1926 C1923 1.384 . S
N1927 C1919 1.427 . S
N1927 C1925 1.384 . S
H1928 C1934 0.930 . S
H1929 C1938 0.930 . S
H1930 C1943 0.929 . S
H1931 C1941 0.929 . S
H1932 C1936 0.929 . S
H1933 C1942 0.929 . S
C1934 H1928 0.930 . S
C1934 C1935 1.367 . S
C1934 C1942 1.378 . S
C1935 C1934 1.367 . S
C1935 C1943 1.433 . S
C1936 H1932 0.929 . S
C1936 C1938 1.378 . S
C1936 C1940 1.350 . S
C1937 C1940 1.463 1_655 S
C1937 C1942 1.350 . S
C1937 N1945 1.427 . S
C1938 H1929 0.930 . S
C1938 C1936 1.378 . S
C1938 C1939 1.367 . S
C1939 C1938 1.367 . S
C1939 C1941 1.433 . S
C1940 C1936 1.350 . S
C1940 C1937 1.463 1_455 S
C1940 N1944 1.427 . S
C1941 H1931 0.929 . S
C1941 C1939 1.433 . S
C1941 N1944 1.384 . S
C1942 H1933 0.929 . S
C1942 C1934 1.378 . S
C1942 C1937 1.350 . S
C1943 H1930 0.929 . S
C1943 C1935 1.433 . S
C1943 N1945 1.384 . S
N1944 C1940 1.427 . S
N1944 C1941 1.384 . S
N1945 C1937 1.427 . S
N1945 C1943 1.384 . S
H1946 C1952 0.930 . S
H1947 C1956 0.930 . S
H1948 C1961 0.929 . S
H1949 C1959 0.929 . S
H1950 C1954 0.929 . S
H1951 C1960 0.929 . S
C1952 H1946 0.930 . S
C1952 C1953 1.367 . S
C1952 C1960 1.378 . S
C1953 C1952 1.367 . S
C1953 C1961 1.433 . S
C1954 H1950 0.929 . S
C1954 C1956 1.378 . S
C1954 C1958 1.350 . S
C1955 C1958 1.463 1_545 S
C1955 C1960 1.350 . S
C1955 N1963 1.427 . S
C1956 H1947 0.930 . S
C1956 C1954 1.378 . S
C1956 C1957 1.367 . S
C1957 C1956 1.367 . S
C1957 C1959 1.433 . S
C1958 C1954 1.350 . S
C1958 C1955 1.463 1_565 S
C1958 N1962 1.427 . S
C1959 H1949 0.929 . S
C1959 C1957 1.433 . S
C1959 N1962 1.384 . S
C1960 H1951 0.929 . S
C1960 C1952 1.378 . S
C1960 C1955 1.350 . S
C1961 H1948 0.929 . S
C1961 C1953 1.433 . S
C1961 N1963 1.384 . S
N1962 C1958 1.427 . S
N1962 C1959 1.384 . S
N1963 C1955 1.427 . S
N1963 C1961 1.384 . S
H1964 C1970 0.930 . S
H1965 C1974 0.930 . S
H1966 C1979 0.929 . S
H1967 C1977 0.929 . S
H1968 C1972 0.929 . S
H1969 C1978 0.929 . S
C1970 H1964 0.930 . S
C1970 C1971 1.367 . S
C1970 C1978 1.378 . S
C1971 C1970 1.367 . S
C1971 C1979 1.433 . S
C1972 H1968 0.929 . S
C1972 C1974 1.378 . S
C1972 C1976 1.350 . S
C1973 C1976 1.463 1_655 S
C1973 C1978 1.350 . S
C1973 N1981 1.427 1_655 S
C1974 H1965 0.930 . S
C1974 C1972 1.378 . S
C1974 C1975 1.367 . S
C1975 C1974 1.367 . S
C1975 C1977 1.433 . S
C1976 C1972 1.350 . S
C1976 C1973 1.463 1_455 S
C1976 N1980 1.427 1_455 S
C1977 H1967 0.929 . S
C1977 C1975 1.433 . S
C1977 N1980 1.384 1_455 S
C1978 H1969 0.929 . S
C1978 C1970 1.378 . S
C1978 C1973 1.350 . S
C1979 H1966 0.929 . S
C1979 C1971 1.433 . S
C1979 N1981 1.384 1_655 S
N1980 C1976 1.427 1_655 S
N1980 C1977 1.384 1_655 S
N1981 C1973 1.427 1_455 S
N1981 C1979 1.384 1_455 S
H1982 C1988 0.930 . S
H1983 C1992 0.930 . S
H1984 C1997 0.929 . S
H1985 C1995 0.929 . S
H1986 C1990 0.929 . S
H1987 C1996 0.929 . S
C1988 H1982 0.930 . S
C1988 C1989 1.367 . S
C1988 C1996 1.378 . S
C1989 C1988 1.367 . S
C1989 C1997 1.433 . S
C1990 H1986 0.929 . S
C1990 C1992 1.378 . S
C1990 C1994 1.350 . S
C1991 C1994 1.463 1_565 S
C1991 C1996 1.350 . S
C1991 N1999 1.427 . S
C1992 H1983 0.930 . S
C1992 C1990 1.378 . S
C1992 C1993 1.367 . S
C1993 C1992 1.367 . S
C1993 C1995 1.433 . S
C1994 C1990 1.350 . S
C1994 C1991 1.463 1_545 S
C1994 N1998 1.427 . S
C1995 H1985 0.929 . S
C1995 C1993 1.433 . S
C1995 N1998 1.384 . S
C1996 H1987 0.929 . S
C1996 C1988 1.378 . S
C1996 C1991 1.350 . S
C1997 H1984 0.929 . S
C1997 C1989 1.433 . S
C1997 N1999 1.384 . S
N1998 C1994 1.427 . S
N1998 C1995 1.384 . S
N1999 C1991 1.427 . S
N1999 C1997 1.384 . S
H2000 C2006 0.930 . S
H2001 C2010 0.930 . S
H2002 C2015 0.929 . S
H2003 C2013 0.929 . S
H2004 C2008 0.929 . S
H2005 C2014 0.929 . S
C2006 H2000 0.930 . S
C2006 C2007 1.367 . S
C2006 C2014 1.378 . S
C2007 C2006 1.367 . S
C2007 C2015 1.433 . S
C2008 H2004 0.929 . S
C2008 C2010 1.378 . S
C2008 C2012 1.350 . S
C2009 C2012 1.463 . S
C2009 C2014 1.350 . S
C2009 N2017 1.427 . S
C2010 H2001 0.930 . S
C2010 C2008 1.378 . S
C2010 C2011 1.367 . S
C2011 C2010 1.367 . S
C2011 C2013 1.433 . S
C2012 C2008 1.350 . S
C2012 C2009 1.463 . S
C2012 N2016 1.427 . S
C2013 H2003 0.929 . S
C2013 C2011 1.433 . S
C2013 N2016 1.384 . S
C2014 H2005 0.929 . S
C2014 C2006 1.378 . S
C2014 C2009 1.350 . S
C2015 H2002 0.929 . S
C2015 C2007 1.433 . S
C2015 N2017 1.384 . S
N2016 C2012 1.427 . S
N2016 C2013 1.384 . S
N2017 C2009 1.427 . S
N2017 C2015 1.384 . S
H2018 C2024 0.930 . S
H2019 C2028 0.930 . S
H2020 C2033 0.929 . S
H2021 C2031 0.929 . S
H2022 C2026 0.929 . S
H2023 C2032 0.929 . S
C2024 H2018 0.930 . S
C2024 C2025 1.367 . S
C2024 C2032 1.378 . S
C2025 C2024 1.367 . S
C2025 C2033 1.433 . S
C2026 H2022 0.929 . S
C2026 C2028 1.378 . S
C2026 C2030 1.350 . S
C2027 C2030 1.463 . S
C2027 C2032 1.350 . S
C2027 N2035 1.427 . S
C2028 H2019 0.930 . S
C2028 C2026 1.378 . S
C2028 C2029 1.367 . S
C2029 C2028 1.367 . S
C2029 C2031 1.433 . S
C2030 C2026 1.350 . S
C2030 C2027 1.463 . S
C2030 N2034 1.427 . S
C2031 H2021 0.929 . S
C2031 C2029 1.433 . S
C2031 N2034 1.384 . S
C2032 H2023 0.929 . S
C2032 C2024 1.378 . S
C2032 C2027 1.350 . S
C2033 H2020 0.929 . S
C2033 C2025 1.433 . S
C2033 N2035 1.384 . S
N2034 C2030 1.427 . S
N2034 C2031 1.384 . S
N2035 C2027 1.427 . S
N2035 C2033 1.384 . S
H2036 C2042 0.930 . S
H2037 C2046 0.930 . S
H2038 C2051 0.929 . S
H2039 C2049 0.929 . S
H2040 C2044 0.929 . S
H2041 C2050 0.929 . S
C2042 H2036 0.930 . S
C2042 C2043 1.367 . S
C2042 C2050 1.378 . S
C2043 C2042 1.367 . S
C2043 C2051 1.433 . S
C2044 H2040 0.929 . S
C2044 C2046 1.378 . S
C2044 C2048 1.350 . S
C2045 C2048 1.463 . S
C2045 C2050 1.350 . S
C2045 N2053 1.427 . S
C2046 H2037 0.930 . S
C2046 C2044 1.378 . S
C2046 C2047 1.367 . S
C2047 C2046 1.367 . S
C2047 C2049 1.433 . S
C2048 C2044 1.350 . S
C2048 C2045 1.463 . S
C2048 N2052 1.427 . S
C2049 H2039 0.929 . S
C2049 C2047 1.433 . S
C2049 N2052 1.384 . S
C2050 H2041 0.929 . S
C2050 C2042 1.378 . S
C2050 C2045 1.350 . S
C2051 H2038 0.929 . S
C2051 C2043 1.433 . S
C2051 N2053 1.384 . S
N2052 C2048 1.427 . S
N2052 C2049 1.384 . S
N2053 C2045 1.427 . S
N2053 C2051 1.384 . S
H2054 C2060 0.930 . S
H2055 C2064 0.930 . S
H2056 C2069 0.929 . S
H2057 C2067 0.929 . S
H2058 C2062 0.929 . S
H2059 C2068 0.929 . S
C2060 H2054 0.930 . S
C2060 C2061 1.367 . S
C2060 C2068 1.378 . S
C2061 C2060 1.367 . S
C2061 C2069 1.433 . S
C2062 H2058 0.929 . S
C2062 C2064 1.378 . S
C2062 C2066 1.350 . S
C2063 C2066 1.463 . S
C2063 C2068 1.350 . S
C2063 N2071 1.427 . S
C2064 H2055 0.930 . S
C2064 C2062 1.378 . S
C2064 C2065 1.367 . S
C2065 C2064 1.367 . S
C2065 C2067 1.433 . S
C2066 C2062 1.350 . S
C2066 C2063 1.463 . S
C2066 N2070 1.427 . S
C2067 H2057 0.929 . S
C2067 C2065 1.433 . S
C2067 N2070 1.384 . S
C2068 H2059 0.929 . S
C2068 C2060 1.378 . S
C2068 C2063 1.350 . S
C2069 H2056 0.929 . S
C2069 C2061 1.433 . S
C2069 N2071 1.384 . S
N2070 C2066 1.427 . S
N2070 C2067 1.384 . S
N2071 C2063 1.427 . S
N2071 C2069 1.384 . S
H2072 C2078 0.930 . S
H2073 C2082 0.930 . S
H2074 C2087 0.929 . S
H2075 C2085 0.929 . S
H2076 C2080 0.929 . S
H2077 C2086 0.929 . S
C2078 H2072 0.930 . S
C2078 C2079 1.367 . S
C2078 C2086 1.378 . S
C2079 C2078 1.367 . S
C2079 C2087 1.433 . S
C2080 H2076 0.929 . S
C2080 C2082 1.378 . S
C2080 C2084 1.350 . S
C2081 C2084 1.463 . S
C2081 C2086 1.350 . S
C2081 N2089 1.427 . S
C2082 H2073 0.930 . S
C2082 C2080 1.378 . S
C2082 C2083 1.367 . S
C2083 C2082 1.367 . S
C2083 C2085 1.433 . S
C2084 C2080 1.350 . S
C2084 C2081 1.463 . S
C2084 N2088 1.427 . S
C2085 H2075 0.929 . S
C2085 C2083 1.433 . S
C2085 N2088 1.384 . S
C2086 H2077 0.929 . S
C2086 C2078 1.378 . S
C2086 C2081 1.350 . S
C2087 H2074 0.929 . S
C2087 C2079 1.433 . S
C2087 N2089 1.384 . S
N2088 C2084 1.427 . S
N2088 C2085 1.384 . S
N2089 C2081 1.427 . S
N2089 C2087 1.384 . S
H2090 C2096 0.930 . S
H2091 C2100 0.930 . S
H2092 C2105 0.929 . S
H2093 C2103 0.929 . S
H2094 C2098 0.929 . S
H2095 C2104 0.929 . S
C2096 H2090 0.930 . S
C2096 C2097 1.367 . S
C2096 C2104 1.378 . S
C2097 C2096 1.367 . S
C2097 C2105 1.433 . S
C2098 H2094 0.929 . S
C2098 C2100 1.378 . S
C2098 C2102 1.350 . S
C2099 C2102 1.463 . S
C2099 C2104 1.350 . S
C2099 N2107 1.427 . S
C2100 H2091 0.930 . S
C2100 C2098 1.378 . S
C2100 C2101 1.367 . S
C2101 C2100 1.367 . S
C2101 C2103 1.433 . S
C2102 C2098 1.350 . S
C2102 C2099 1.463 . S
C2102 N2106 1.427 . S
C2103 H2093 0.929 . S
C2103 C2101 1.433 . S
C2103 N2106 1.384 . S
C2104 H2095 0.929 . S
C2104 C2096 1.378 . S
C2104 C2099 1.350 . S
C2105 H2092 0.929 . S
C2105 C2097 1.433 . S
C2105 N2107 1.384 . S
N2106 C2102 1.427 . S
N2106 C2103 1.384 . S
N2107 C2099 1.427 . S
N2107 C2105 1.384 . S
H2108 C2114 0.930 . S
H2109 C2118 0.930 . S
H2110 C2123 0.929 . S
H2111 C2121 0.929 . S
H2112 C2116 0.929 . S
H2113 C2122 0.929 . S
C2114 H2108 0.930 . S
C2114 C2115 1.367 . S
C2114 C2122 1.378 . S
C2115 C2114 1.367 . S
C2115 C2123 1.433 . S
C2116 H2112 0.929 . S
C2116 C2118 1.378 . S
C2116 C2120 1.350 . S
C2117 C2120 1.463 . S
C2117 C2122 1.350 . S
C2117 N2125 1.427 . S
C2118 H2109 0.930 . S
C2118 C2116 1.378 . S
C2118 C2119 1.367 . S
C2119 C2118 1.367 . S
C2119 C2121 1.433 . S
C2120 C2116 1.350 . S
C2120 C2117 1.463 . S
C2120 N2124 1.427 . S
C2121 H2111 0.929 . S
C2121 C2119 1.433 . S
C2121 N2124 1.384 . S
C2122 H2113 0.929 . S
C2122 C2114 1.378 . S
C2122 C2117 1.350 . S
C2123 H2110 0.929 . S
C2123 C2115 1.433 . S
C2123 N2125 1.384 . S
N2124 C2120 1.427 . S
N2124 C2121 1.384 . S
N2125 C2117 1.427 . S
N2125 C2123 1.384 . S
H2126 C2132 0.930 . S
H2127 C2136 0.930 . S
H2128 C2141 0.929 . S
H2129 C2139 0.929 . S
H2130 C2134 0.929 . S
H2131 C2140 0.929 . S
C2132 H2126 0.930 . S
C2132 C2133 1.367 . S
C2132 C2140 1.378 . S
C2133 C2132 1.367 . S
C2133 C2141 1.433 . S
C2134 H2130 0.929 . S
C2134 C2136 1.378 . S
C2134 C2138 1.350 . S
C2135 C2138 1.463 . S
C2135 C2140 1.350 . S
C2135 N2143 1.427 . S
C2136 H2127 0.930 . S
C2136 C2134 1.378 . S
C2136 C2137 1.367 . S
C2137 C2136 1.367 . S
C2137 C2139 1.433 . S
C2138 C2134 1.350 . S
C2138 C2135 1.463 . S
C2138 N2142 1.427 . S
C2139 H2129 0.929 . S
C2139 C2137 1.433 . S
C2139 N2142 1.384 . S
C2140 H2131 0.929 . S
C2140 C2132 1.378 . S
C2140 C2135 1.350 . S
C2141 H2128 0.929 . S
C2141 C2133 1.433 . S
C2141 N2143 1.384 . S
N2142 C2138 1.427 . S
N2142 C2139 1.384 . S
N2143 C2135 1.427 . S
N2143 C2141 1.384 . S
H2144 C2150 0.930 . S
H2145 C2154 0.930 . S
H2146 C2159 0.929 . S
H2147 C2157 0.929 . S
H2148 C2152 0.929 . S
H2149 C2158 0.929 . S
C2150 H2144 0.930 . S
C2150 C2151 1.367 . S
C2150 C2158 1.378 . S
C2151 C2150 1.367 . S
C2151 C2159 1.433 . S
C2152 H2148 0.929 . S
C2152 C2154 1.378 . S
C2152 C2156 1.350 . S
C2153 C2156 1.463 1_556 S
C2153 C2158 1.350 . S
C2153 N2161 1.427 . S
C2154 H2145 0.930 . S
C2154 C2152 1.378 . S
C2154 C2155 1.367 . S
C2155 C2154 1.367 . S
C2155 C2157 1.433 . S
C2156 C2152 1.350 . S
C2156 C2153 1.463 1_554 S
C2156 N2160 1.427 . S
C2157 H2147 0.929 . S
C2157 C2155 1.433 . S
C2157 N2160 1.384 . S
C2158 H2149 0.929 . S
C2158 C2150 1.378 . S
C2158 C2153 1.350 . S
C2159 H2146 0.929 . S
C2159 C2151 1.433 . S
C2159 N2161 1.384 . S
N2160 C2156 1.427 . S
N2160 C2157 1.384 . S
N2161 C2153 1.427 . S
N2161 C2159 1.384 . S
H2162 C2168 0.930 . S
H2163 C2172 0.930 . S
H2164 C2177 0.929 . S
H2165 C2175 0.929 . S
H2166 C2170 0.929 . S
H2167 C2176 0.929 . S
C2168 H2162 0.930 . S
C2168 C2169 1.367 . S
C2168 C2176 1.378 . S
C2169 C2168 1.367 . S
C2169 C2177 1.433 . S
C2170 H2166 0.929 . S
C2170 C2172 1.378 . S
C2170 C2174 1.350 . S
C2171 C2174 1.463 1_554 S
C2171 C2176 1.350 . S
C2171 N2179 1.427 . S
C2172 H2163 0.930 . S
C2172 C2170 1.378 . S
C2172 C2173 1.367 . S
C2173 C2172 1.367 . S
C2173 C2175 1.433 . S
C2174 C2170 1.350 . S
C2174 C2171 1.463 1_556 S
C2174 N2178 1.427 . S
C2175 H2165 0.929 . S
C2175 C2173 1.433 . S
C2175 N2178 1.384 . S
C2176 H2167 0.929 . S
C2176 C2168 1.378 . S
C2176 C2171 1.350 . S
C2177 H2164 0.929 . S
C2177 C2169 1.433 . S
C2177 N2179 1.384 . S
N2178 C2174 1.427 . S
N2178 C2175 1.384 . S
N2179 C2171 1.427 . S
N2179 C2177 1.384 . S
H2180 C2186 0.930 . S
H2181 C2190 0.930 . S
H2182 C2195 0.929 . S
H2183 C2193 0.929 . S
H2184 C2188 0.929 . S
H2185 C2194 0.929 . S
C2186 H2180 0.930 . S
C2186 C2187 1.367 . S
C2186 C2194 1.378 . S
C2187 C2186 1.367 . S
C2187 C2195 1.433 . S
C2188 H2184 0.929 . S
C2188 C2190 1.378 . S
C2188 C2192 1.350 . S
C2189 C2192 1.463 1_556 S
C2189 C2194 1.350 . S
C2189 N2197 1.427 . S
C2190 H2181 0.930 . S
C2190 C2188 1.378 . S
C2190 C2191 1.367 . S
C2191 C2190 1.367 . S
C2191 C2193 1.433 . S
C2192 C2188 1.350 . S
C2192 C2189 1.463 1_554 S
C2192 N2196 1.427 . S
C2193 H2183 0.929 . S
C2193 C2191 1.433 . S
C2193 N2196 1.384 . S
C2194 H2185 0.929 . S
C2194 C2186 1.378 . S
C2194 C2189 1.350 . S
C2195 H2182 0.929 . S
C2195 C2187 1.433 . S
C2195 N2197 1.384 . S
N2196 C2192 1.427 . S
N2196 C2193 1.384 . S
N2197 C2189 1.427 . S
N2197 C2195 1.384 . S
H2198 C2204 0.930 . S
H2199 C2208 0.930 . S
H2200 C2213 0.929 . S
H2201 C2211 0.929 . S
H2202 C2206 0.929 . S
H2203 C2212 0.929 . S
C2204 H2198 0.930 . S
C2204 C2205 1.367 . S
C2204 C2212 1.378 . S
C2205 C2204 1.367 . S
C2205 C2213 1.433 . S
C2206 H2202 0.929 . S
C2206 C2208 1.378 . S
C2206 C2210 1.350 . S
C2207 C2210 1.463 1_556 S
C2207 C2212 1.350 . S
C2207 N2215 1.427 . S
C2208 H2199 0.930 . S
C2208 C2206 1.378 . S
C2208 C2209 1.367 . S
C2209 C2208 1.367 . S
C2209 C2211 1.433 . S
C2210 C2206 1.350 . S
C2210 C2207 1.463 1_554 S
C2210 N2214 1.427 . S
C2211 H2201 0.929 . S
C2211 C2209 1.433 . S
C2211 N2214 1.384 . S
C2212 H2203 0.929 . S
C2212 C2204 1.378 . S
C2212 C2207 1.350 . S
C2213 H2200 0.929 . S
C2213 C2205 1.433 . S
C2213 N2215 1.384 . S
N2214 C2210 1.427 . S
N2214 C2211 1.384 . S
N2215 C2207 1.427 . S
N2215 C2213 1.384 . S
H2216 C2222 0.930 . S
H2217 C2226 0.930 . S
H2218 C2231 0.929 . S
H2219 C2229 0.929 . S
H2220 C2224 0.929 . S
H2221 C2230 0.929 . S
C2222 H2216 0.930 . S
C2222 C2223 1.367 . S
C2222 C2230 1.378 . S
C2223 C2222 1.367 . S
C2223 C2231 1.433 . S
C2224 H2220 0.929 . S
C2224 C2226 1.378 . S
C2224 C2228 1.350 . S
C2225 C2228 1.463 . S
C2225 C2230 1.350 . S
C2225 N2233 1.427 . S
C2226 H2217 0.930 . S
C2226 C2224 1.378 . S
C2226 C2227 1.367 . S
C2227 C2226 1.367 . S
C2227 C2229 1.433 . S
C2228 C2224 1.350 . S
C2228 C2225 1.463 . S
C2228 N2232 1.427 . S
C2229 H2219 0.929 . S
C2229 C2227 1.433 . S
C2229 N2232 1.384 . S
C2230 H2221 0.929 . S
C2230 C2222 1.378 . S
C2230 C2225 1.350 . S
C2231 H2218 0.929 . S
C2231 C2223 1.433 . S
C2231 N2233 1.384 . S
N2232 C2228 1.427 . S
N2232 C2229 1.384 . S
N2233 C2225 1.427 . S
N2233 C2231 1.384 . S
H2234 C2240 0.930 . S
H2235 C2244 0.930 . S
H2236 C2249 0.929 . S
H2237 C2247 0.929 . S
H2238 C2242 0.929 . S
H2239 C2248 0.929 . S
C2240 H2234 0.930 . S
C2240 C2241 1.367 . S
C2240 C2248 1.378 . S
C2241 C2240 1.367 . S
C2241 C2249 1.433 . S
C2242 H2238 0.929 . S
C2242 C2244 1.378 . S
C2242 C2246 1.350 . S
C2243 C2246 1.463 . S
C2243 C2248 1.350 . S
C2243 N2251 1.427 . S
C2244 H2235 0.930 . S
C2244 C2242 1.378 . S
C2244 C2245 1.367 . S
C2245 C2244 1.367 . S
C2245 C2247 1.433 . S
C2246 C2242 1.350 . S
C2246 C2243 1.463 . S
C2246 N2250 1.427 . S
C2247 H2237 0.929 . S
C2247 C2245 1.433 . S
C2247 N2250 1.384 . S
C2248 H2239 0.929 . S
C2248 C2240 1.378 . S
C2248 C2243 1.350 . S
C2249 H2236 0.929 . S
C2249 C2241 1.433 . S
C2249 N2251 1.384 . S
N2250 C2246 1.427 . S
N2250 C2247 1.384 . S
N2251 C2243 1.427 . S
N2251 C2249 1.384 . S
H2252 C2258 0.930 . S
H2253 C2262 0.930 . S
H2254 C2267 0.929 . S
H2255 C2265 0.929 . S
H2256 C2260 0.929 . S
H2257 C2266 0.929 . S
C2258 H2252 0.930 . S
C2258 C2259 1.367 . S
C2258 C2266 1.378 . S
C2259 C2258 1.367 . S
C2259 C2267 1.433 . S
C2260 H2256 0.929 . S
C2260 C2262 1.378 . S
C2260 C2264 1.350 . S
C2261 C2264 1.463 . S
C2261 C2266 1.350 . S
C2261 N2269 1.427 . S
C2262 H2253 0.930 . S
C2262 C2260 1.378 . S
C2262 C2263 1.367 . S
C2263 C2262 1.367 . S
C2263 C2265 1.433 . S
C2264 C2260 1.350 . S
C2264 C2261 1.463 . S
C2264 N2268 1.427 . S
C2265 H2255 0.929 . S
C2265 C2263 1.433 . S
C2265 N2268 1.384 . S
C2266 H2257 0.929 . S
C2266 C2258 1.378 . S
C2266 C2261 1.350 . S
C2267 H2254 0.929 . S
C2267 C2259 1.433 . S
C2267 N2269 1.384 . S
N2268 C2264 1.427 . S
N2268 C2265 1.384 . S
N2269 C2261 1.427 . S
N2269 C2267 1.384 . S
H2270 C2276 0.930 . S
H2271 C2280 0.930 . S
H2272 C2285 0.929 . S
H2273 C2283 0.929 . S
H2274 C2278 0.929 . S
H2275 C2284 0.929 . S
C2276 H2270 0.930 . S
C2276 C2277 1.367 . S
C2276 C2284 1.378 . S
C2277 C2276 1.367 . S
C2277 C2285 1.433 . S
C2278 H2274 0.929 . S
C2278 C2280 1.378 . S
C2278 C2282 1.350 . S
C2279 C2282 1.463 . S
C2279 C2284 1.350 . S
C2279 N2287 1.427 . S
C2280 H2271 0.930 . S
C2280 C2278 1.378 . S
C2280 C2281 1.367 . S
C2281 C2280 1.367 . S
C2281 C2283 1.433 . S
C2282 C2278 1.350 . S
C2282 C2279 1.463 . S
C2282 N2286 1.427 . S
C2283 H2273 0.929 . S
C2283 C2281 1.433 . S
C2283 N2286 1.384 . S
C2284 H2275 0.929 . S
C2284 C2276 1.378 . S
C2284 C2279 1.350 . S
C2285 H2272 0.929 . S
C2285 C2277 1.433 . S
C2285 N2287 1.384 . S
N2286 C2282 1.427 . S
N2286 C2283 1.384 . S
N2287 C2279 1.427 . S
N2287 C2285 1.384 . S
H2288 C2294 0.930 . S
H2289 C2298 0.930 . S
H2290 C2303 0.929 . S
H2291 C2301 0.929 . S
H2292 C2296 0.929 . S
H2293 C2302 0.929 . S
C2294 H2288 0.930 . S
C2294 C2295 1.367 . S
C2294 C2302 1.378 . S
C2295 C2294 1.367 . S
C2295 C2303 1.433 . S
C2296 H2292 0.929 . S
C2296 C2298 1.378 . S
C2296 C2300 1.350 . S
C2297 C2300 1.463 . S
C2297 C2302 1.350 . S
C2297 N2305 1.427 . S
C2298 H2289 0.930 . S
C2298 C2296 1.378 . S
C2298 C2299 1.367 . S
C2299 C2298 1.367 . S
C2299 C2301 1.433 . S
C2300 C2296 1.350 . S
C2300 C2297 1.463 . S
C2300 N2304 1.427 . S
C2301 H2291 0.929 . S
C2301 C2299 1.433 . S
C2301 N2304 1.384 . S
C2302 H2293 0.929 . S
C2302 C2294 1.378 . S
C2302 C2297 1.350 . S
C2303 H2290 0.929 . S
C2303 C2295 1.433 . S
C2303 N2305 1.384 . S
N2304 C2300 1.427 . S
N2304 C2301 1.384 . S
N2305 C2297 1.427 . S
N2305 C2303 1.384 . S
H2306 C2312 0.930 . S
H2307 C2316 0.930 . S
H2308 C2321 0.929 . S
H2309 C2319 0.929 . S
H2310 C2314 0.929 . S
H2311 C2320 0.929 . S
C2312 H2306 0.930 . S
C2312 C2313 1.367 . S
C2312 C2320 1.378 . S
C2313 C2312 1.367 . S
C2313 C2321 1.433 . S
C2314 H2310 0.929 . S
C2314 C2316 1.378 . S
C2314 C2318 1.350 . S
C2315 C2318 1.463 . S
C2315 C2320 1.350 . S
C2315 N2323 1.427 . S
C2316 H2307 0.930 . S
C2316 C2314 1.378 . S
C2316 C2317 1.367 . S
C2317 C2316 1.367 . S
C2317 C2319 1.433 . S
C2318 C2314 1.350 . S
C2318 C2315 1.463 . S
C2318 N2322 1.427 . S
C2319 H2309 0.929 . S
C2319 C2317 1.433 . S
C2319 N2322 1.384 . S
C2320 H2311 0.929 . S
C2320 C2312 1.378 . S
C2320 C2315 1.350 . S
C2321 H2308 0.929 . S
C2321 C2313 1.433 . S
C2321 N2323 1.384 . S
N2322 C2318 1.427 . S
N2322 C2319 1.384 . S
N2323 C2315 1.427 . S
N2323 C2321 1.384 . S
H2324 C2330 0.930 . S
H2325 C2334 0.930 . S
H2326 C2339 0.929 . S
H2327 C2337 0.929 . S
H2328 C2332 0.929 . S
H2329 C2338 0.929 . S
C2330 H2324 0.930 . S
C2330 C2331 1.367 . S
C2330 C2338 1.378 . S
C2331 C2330 1.367 . S
C2331 C2339 1.433 . S
C2332 H2328 0.929 . S
C2332 C2334 1.378 . S
C2332 C2336 1.350 . S
C2333 C2336 1.463 . S
C2333 C2338 1.350 . S
C2333 N2341 1.427 . S
C2334 H2325 0.930 . S
C2334 C2332 1.378 . S
C2334 C2335 1.367 . S
C2335 C2334 1.367 . S
C2335 C2337 1.433 . S
C2336 C2332 1.350 . S
C2336 C2333 1.463 . S
C2336 N2340 1.427 . S
C2337 H2327 0.929 . S
C2337 C2335 1.433 . S
C2337 N2340 1.384 . S
C2338 H2329 0.929 . S
C2338 C2330 1.378 . S
C2338 C2333 1.350 . S
C2339 H2326 0.929 . S
C2339 C2331 1.433 . S
C2339 N2341 1.384 . S
N2340 C2336 1.427 . S
N2340 C2337 1.384 . S
N2341 C2333 1.427 . S
N2341 C2339 1.384 . S
H2342 C2348 0.930 . S
H2343 C2352 0.930 . S
H2344 C2357 0.929 . S
H2345 C2355 0.929 . S
H2346 C2350 0.929 . S
H2347 C2356 0.929 . S
C2348 H2342 0.930 . S
C2348 C2349 1.367 . S
C2348 C2356 1.378 . S
C2349 C2348 1.367 . S
C2349 C2357 1.433 . S
C2350 H2346 0.929 . S
C2350 C2352 1.378 . S
C2350 C2354 1.350 . S
C2351 C2354 1.463 . S
C2351 C2356 1.350 . S
C2351 N2359 1.427 . S
C2352 H2343 0.930 . S
C2352 C2350 1.378 . S
C2352 C2353 1.367 . S
C2353 C2352 1.367 . S
C2353 C2355 1.433 . S
C2354 C2350 1.350 . S
C2354 C2351 1.463 . S
C2354 N2358 1.427 . S
C2355 H2345 0.929 . S
C2355 C2353 1.433 . S
C2355 N2358 1.384 . S
C2356 H2347 0.929 . S
C2356 C2348 1.378 . S
C2356 C2351 1.350 . S
C2357 H2344 0.929 . S
C2357 C2349 1.433 . S
C2357 N2359 1.384 . S
N2358 C2354 1.427 . S
N2358 C2355 1.384 . S
N2359 C2351 1.427 . S
N2359 C2357 1.384 . S
H2360 C2366 0.930 . S
H2361 C2370 0.930 . S
H2362 C2375 0.929 . S
H2363 C2373 0.929 . S
H2364 C2368 0.929 . S
H2365 C2374 0.929 . S
C2366 H2360 0.930 . S
C2366 C2367 1.367 . S
C2366 C2374 1.378 . S
C2367 C2366 1.367 . S
C2367 C2375 1.433 . S
C2368 H2364 0.929 . S
C2368 C2370 1.378 . S
C2368 C2372 1.350 . S
C2369 C2372 1.463 1_554 S
C2369 C2374 1.350 . S
C2369 N2377 1.427 . S
C2370 H2361 0.930 . S
C2370 C2368 1.378 . S
C2370 C2371 1.367 . S
C2371 C2370 1.367 . S
C2371 C2373 1.433 . S
C2372 C2368 1.350 . S
C2372 C2369 1.463 1_556 S
C2372 N2376 1.427 . S
C2373 H2363 0.929 . S
C2373 C2371 1.433 . S
C2373 N2376 1.384 . S
C2374 H2365 0.929 . S
C2374 C2366 1.378 . S
C2374 C2369 1.350 . S
C2375 H2362 0.929 . S
C2375 C2367 1.433 . S
C2375 N2377 1.384 . S
N2376 C2372 1.427 . S
N2376 C2373 1.384 . S
N2377 C2369 1.427 . S
N2377 C2375 1.384 . S
H2378 C2384 0.930 . S
H2379 C2388 0.930 . S
H2380 C2393 0.929 . S
H2381 C2391 0.929 . S
H2382 C2386 0.929 . S
H2383 C2392 0.929 . S
C2384 H2378 0.930 . S
C2384 C2385 1.367 . S
C2384 C2392 1.378 . S
C2385 C2384 1.367 . S
C2385 C2393 1.433 . S
C2386 H2382 0.929 . S
C2386 C2388 1.378 . S
C2386 C2390 1.350 . S
C2387 C2390 1.463 1_556 S
C2387 C2392 1.350 . S
C2387 N2395 1.427 . S
C2388 H2379 0.930 . S
C2388 C2386 1.378 . S
C2388 C2389 1.367 . S
C2389 C2388 1.367 . S
C2389 C2391 1.433 . S
C2390 C2386 1.350 . S
C2390 C2387 1.463 1_554 S
C2390 N2394 1.427 . S
C2391 H2381 0.929 . S
C2391 C2389 1.433 . S
C2391 N2394 1.384 . S
C2392 H2383 0.929 . S
C2392 C2384 1.378 . S
C2392 C2387 1.350 . S
C2393 H2380 0.929 . S
C2393 C2385 1.433 . S
C2393 N2395 1.384 . S
N2394 C2390 1.427 . S
N2394 C2391 1.384 . S
N2395 C2387 1.427 . S
N2395 C2393 1.384 . S
H2396 C2402 0.930 . S
H2397 C2406 0.930 . S
H2398 C2411 0.929 . S
H2399 C2409 0.929 . S
H2400 C2404 0.929 . S
H2401 C2410 0.929 . S
C2402 H2396 0.930 . S
C2402 C2403 1.367 . S
C2402 C2410 1.378 . S
C2403 C2402 1.367 . S
C2403 C2411 1.433 . S
C2404 H2400 0.929 . S
C2404 C2406 1.378 . S
C2404 C2408 1.350 . S
C2405 C2408 1.463 1_556 S
C2405 C2410 1.350 . S
C2405 N2413 1.427 . S
C2406 H2397 0.930 . S
C2406 C2404 1.378 . S
C2406 C2407 1.367 . S
C2407 C2406 1.367 . S
C2407 C2409 1.433 . S
C2408 C2404 1.350 . S
C2408 C2405 1.463 1_554 S
C2408 N2412 1.427 . S
C2409 H2399 0.929 . S
C2409 C2407 1.433 . S
C2409 N2412 1.384 . S
C2410 H2401 0.929 . S
C2410 C2402 1.378 . S
C2410 C2405 1.350 . S
C2411 H2398 0.929 . S
C2411 C2403 1.433 . S
C2411 N2413 1.384 . S
N2412 C2408 1.427 . S
N2412 C2409 1.384 . S
N2413 C2405 1.427 . S
N2413 C2411 1.384 . S
H2414 C2420 0.930 . S
H2415 C2424 0.930 . S
H2416 C2429 0.929 . S
H2417 C2427 0.929 . S
H2418 C2422 0.929 . S
H2419 C2428 0.929 . S
C2420 H2414 0.930 . S
C2420 C2421 1.367 . S
C2420 C2428 1.378 . S
C2421 C2420 1.367 . S
C2421 C2429 1.433 . S
C2422 H2418 0.929 . S
C2422 C2424 1.378 . S
C2422 C2426 1.350 . S
C2423 C2426 1.463 1_554 S
C2423 C2428 1.350 . S
C2423 N2431 1.427 . S
C2424 H2415 0.930 . S
C2424 C2422 1.378 . S
C2424 C2425 1.367 . S
C2425 C2424 1.367 . S
C2425 C2427 1.433 . S
C2426 C2422 1.350 . S
C2426 C2423 1.463 1_556 S
C2426 N2430 1.427 . S
C2427 H2417 0.929 . S
C2427 C2425 1.433 . S
C2427 N2430 1.384 . S
C2428 H2419 0.929 . S
C2428 C2420 1.378 . S
C2428 C2423 1.350 . S
C2429 H2416 0.929 . S
C2429 C2421 1.433 . S
C2429 N2431 1.384 . S
N2430 C2426 1.427 . S
N2430 C2427 1.384 . S
N2431 C2423 1.427 . S
N2431 C2429 1.384 . S
C711 C118 1.125 . S
C715 C8 1.143 . S
C729 C136 1.138 . S
C733 C26 1.137 . S
C747 C52 1.135 . S
C751 C158 1.126 . S
C765 C92 1.124 . S
C769 C74 1.141 . S
C783 C180 1.136 . S
C787 C294 1.125 . S
C801 C316 1.139 . S
C805 C202 1.124 . S
C819 C334 1.134 . S
C823 C224 1.141 . S
C837 C250 1.125 . S
C841 C272 1.143 . S
C855 C360 1.141 . S
C859 C470 1.132 . S
C873 C488 1.138 . S
C877 C378 1.125 . S
C891 C404 1.131 . S
C895 C510 1.129 . S
C909 C426 1.128 . S
C913 C444 1.143 . S
C927 C646 1.132 . S
C931 C532 1.142 . S
C945 C668 1.127 . S
C949 C554 1.134 . S
C963 C686 1.136 . S
C967 C576 1.139 . S
C981 C602 1.140 . S
C985 C624 1.124 . S
C999 C647 1.253 . S
C1003 C7 1.254 . S
C1017 C669 1.259 . S
C1021 C28 1.249 . S
C1035 C687 1.253 . S
C1039 C51 1.255 . S
C1053 C73 1.257 . S
C1057 C625 1.251 . S
C1071 C94 1.249 . S
C1075 C603 1.259 . S
C1089 C533 1.261 . S
C1093 C117 1.247 . S
C1107 C138 1.259 . S
C1111 C555 1.249 . S
C1125 C577 1.256 . S
C1129 C160 1.252 . S
C1143 C469 1.258 . S
C1147 C181 1.249 . S
C1161 C490 1.260 . S
C1165 C203 1.248 . S
C1179 C225 1.258 . S
C1183 C512 1.249 . S
C1197 C446 1.260 . S
C1201 C251 1.248 . S
C1215 C425 1.253 . S
C1219 C273 1.254 . S
C1233 C295 1.252 . S
C1237 C359 1.255 . S
C1251 C317 1.247 . S
C1255 C380 1.260 . S
C1269 C403 1.258 . S
C1273 C335 1.250 . S
C1287 C72 1.431 1_545 S
C1291 C4 1.392 . S
C1305 C6 1.430 1_655 S
C1309 C30 1.393 . S
C1323 C48 1.407 . S
C1327 C29 1.412 1_565 S
C1341 C70 1.399 . S
C1345 C50 1.425 1_455 S
C1359 C116 1.404 1_565 S
C1363 C96 1.410 . S
C1377 C139 1.409 1_455 S
C1381 C114 1.409 . S
C1395 C161 1.406 1_545 S
C1399 C140 1.410 . S
C1413 C162 1.393 . S
C1417 C95 1.431 1_655 S
C1431 C247 1.417 1_565 S
C1435 C184 1.397 . S
C1449 C185 1.428 1_455 S
C1453 C206 1.392 . S
C1467 C228 1.392 . S
C1471 C207 1.431 1_545 S
C1485 C246 1.396 . S
C1489 C229 1.420 1_655 S
C1503 C291 1.417 1_545 S
C1507 C268 1.404 . S
C1521 C290 1.411 . S
C1525 C313 1.403 1_655 S
C1539 C312 1.392 . S
C1543 C339 1.430 1_565 S
C1557 C338 1.392 . S
C1561 C269 1.430 1_455 S
C1575 C424 1.438 . S
C1579 C356 1.392 . S
C1593 C382 1.404 . S
C1597 C358 1.425 . S
C1611 C381 1.423 . S
C1615 C400 1.408 . S
C1629 C422 1.396 . S
C1633 C402 1.437 . S
C1647 C448 1.409 . S
C1651 C468 1.422 . S
C1665 C491 1.423 . S
C1669 C466 1.408 . S
C1683 C492 1.392 . S
C1687 C513 1.436 . S
C1701 C514 1.396 . S
C1705 C447 1.437 . S
C1719 C599 1.434 . S
C1723 C536 1.393 . S
C1737 C558 1.408 . S
C1741 C537 1.423 . S
C1755 C580 1.408 . S
C1759 C559 1.422 . S
C1773 C598 1.393 . S
C1777 C581 1.438 . S
C1791 C643 1.429 . S
C1795 C620 1.397 . S
C1809 C642 1.408 . S
C1813 C665 1.423 . S
C1827 C691 1.437 . S
C1831 C664 1.395 . S
C1845 C621 1.437 . S
C1849 C690 1.395 . S
C1863 C9 1.188 . S
C1867 C137 1.206 . S
C1881 C159 1.206 . S
C1885 C27 1.197 . S
C1899 C53 1.189 . S
C1903 C93 1.197 . S
C1917 C119 1.189 . S
C1921 C75 1.197 . S
C1935 C182 1.190 . S
C1939 C315 1.208 . S
C1953 C336 1.208 . S
C1957 C204 1.193 . S
C1971 C271 1.204 . S
C1975 C226 1.201 . S
C1989 C293 1.191 . S
C1993 C249 1.208 . S
C2007 C489 1.188 . S
C2011 C361 1.199 . S
C2025 C379 1.187 . S
C2029 C511 1.202 . S
C2043 C445 1.203 . S
C2047 C405 1.187 . S
C2061 C427 1.207 . S
C2065 C471 1.194 . S
C2079 C534 1.208 . S
C2083 C667 1.191 . S
C2097 C688 1.194 . S
C2101 C556 1.191 . S
C2115 C623 1.208 . S
C2119 C578 1.194 . S
C2133 C645 1.195 . S
C2137 C601 1.207 . S
C2151 C227 1.431 . S
C2155 C5 1.429 . S
C2169 C31 1.431 . S
C2173 C248 1.429 . S
C2187 C183 1.429 . S
C2191 C49 1.432 . S
C2205 C205 1.432 . S
C2209 C71 1.428 . S
C2223 C314 1.431 . S
C2227 C97 1.429 . S
C2241 C115 1.430 . S
C2245 C337 1.430 . S
C2259 C270 1.429 . S
C2263 C141 1.431 . S
C2277 C163 1.430 . S
C2281 C292 1.430 . S
C2295 C579 1.432 . S
C2299 C357 1.429 . S
C2313 C600 1.428 . S
C2317 C383 1.432 . S
C2331 C401 1.428 . S
C2335 C535 1.433 . S
C2349 C423 1.429 . S
C2353 C557 1.431 . S
C2367 C666 1.431 . S
C2371 C449 1.429 . S
C2385 C467 1.428 . S
C2389 C689 1.432 . S
C2403 C493 1.428 . S
C2407 C622 1.433 . S
C2421 C644 1.428 . S
C2425 C515 1.432 . S
