# Generated by pormake.
# Topology qtz-e, (6)-cn, num edge types: 1
# Building blocks:
#     Node 0, Type 0, BuildingBlock: KUMJIN_clean_sbu_0, # of connection points: 6
#     Node 1, Type 0, BuildingBlock: KUMJIN_clean_sbu_0, # of connection points: 6
#     Node 2, Type 0, BuildingBlock: KUMJIN_clean_sbu_0, # of connection points: 6
#     Node 3, Type 0, BuildingBlock: KUMJIN_clean_sbu_0, # of connection points: 6
#     Node 4, Type 0, BuildingBlock: KUMJIN_clean_sbu_0, # of connection points: 6
#     Node 5, Type 0, BuildingBlock: KUMJIN_clean_sbu_0, # of connection points: 6
#     Edge 6, Type (0, 0), BuildingBlock: OJICUG_clean_linker_0, # of connection points: 2
#     Edge 7, Type (0, 0), BuildingBlock: OJICUG_clean_linker_0, # of connection points: 2
#     Edge 8, Type (0, 0), BuildingBlock: OJICUG_clean_linker_0, # of connection points: 2
#     Edge 9, Type (0, 0), BuildingBlock: OJICUG_clean_linker_0, # of connection points: 2
#     Edge 10, Type (0, 0), BuildingBlock: OJICUG_clean_linker_0, # of connection points: 2
#     Edge 11, Type (0, 0), BuildingBlock: OJICUG_clean_linker_0, # of connection points: 2
#     Edge 12, Type (0, 0), BuildingBlock: OJICUG_clean_linker_0, # of connection points: 2
#     Edge 13, Type (0, 0), BuildingBlock: OJICUG_clean_linker_0, # of connection points: 2
#     Edge 14, Type (0, 0), BuildingBlock: OJICUG_clean_linker_0, # of connection points: 2
#     Edge 15, Type (0, 0), BuildingBlock: OJICUG_clean_linker_0, # of connection points: 2
#     Edge 16, Type (0, 0), BuildingBlock: OJICUG_clean_linker_0, # of connection points: 2
#     Edge 17, Type (0, 0), BuildingBlock: OJICUG_clean_linker_0, # of connection points: 2
#     Edge 18, Type (0, 0), BuildingBlock: OJICUG_clean_linker_0, # of connection points: 2
#     Edge 19, Type (0, 0), BuildingBlock: OJICUG_clean_linker_0, # of connection points: 2
#     Edge 20, Type (0, 0), BuildingBlock: OJICUG_clean_linker_0, # of connection points: 2
#     Edge 21, Type (0, 0), BuildingBlock: OJICUG_clean_linker_0, # of connection points: 2
#     Edge 22, Type (0, 0), BuildingBlock: OJICUG_clean_linker_0, # of connection points: 2
#     Edge 23, Type (0, 0), BuildingBlock: OJICUG_clean_linker_0, # of connection points: 2
# Relax obj value: 0.064
# Max RMSD: 0.154
# Mean RMSD: 0.154
data_MOF--net-qtz-e--node1-KUMJIN_clean_sbu_0--edge1-OJICUG_clean_linker_0
_symmetry_space_group_name_H-M    P1
_symmetry_Int_Tables_number       1
_symmetry_cell_setting            triclinic
loop_
_symmetry_equiv_pos_as_xyz
'x, y, z'
_cell_length_a     22.16268
_cell_length_b     22.165257
_cell_length_c     36.788701
_cell_angle_alpha  89.972916
_cell_angle_beta   89.704695
_cell_angle_gamma 120.09245
loop_
_atom_site_label
_atom_site_type_symbol
_atom_site_fract_x
_atom_site_fract_y
_atom_site_fract_z
_atom_type_partial_charge
Eu0 Eu 0.2953 0.5536 0.07217 0.0
C1 C 0.08624 0.26188 0.03756 0.0
C2 C 0.1239 0.20433 0.08025 0.0
C3 C 1.001 0.15208 0.06559 0.0
C4 C 0.13905 0.26033 0.05655 0.0
C5 C 0.01669 0.20708 0.04135 0.0
C6 C 0.05451 0.1507 0.085 0.0
C7 C 0.98416 0.26221 0.99485 0.0
N8 N 0.1032 0.31562 1.01434 0.0
C9 C 0.05392 0.31499 0.99192 0.0
C10 C 0.96527 0.20841 1.02002 0.0
Eu11 Eu 0.22238 0.40336 1.01082 0.0
N12 N 0.20537 0.31345 0.05172 0.0
C13 C 0.2595 0.31259 0.06879 0.0
C14 C 0.17904 0.20374 0.09827 0.0
C15 C 0.2472 0.2579 0.0923 0.0
H16 H 0.06845 0.35577 0.97186 0.0
H17 H 0.29028 0.25783 0.10598 0.0
H18 H 0.04181 0.10752 0.10328 0.0
H19 H 0.94513 0.26283 0.97754 0.0
H20 H 0.31233 0.3543 0.06477 0.0
H21 H 0.14706 0.66531 0.13261 0.0
H22 H 0.1696 0.16167 0.11668 0.0
H23 H 0.44177 0.63438 1.02002 0.0
H24 H 0.17926 0.5759 0.12136 0.0
H25 H 0.52027 0.74917 0.99402 0.0
H26 H 0.94783 0.10979 0.06906 0.0
H27 H 0.21434 0.78144 0.10372 0.0
H28 H 0.31525 0.86368 0.06439 0.0
H29 H 0.91125 0.16733 1.02212 0.0
H30 H 0.4174 0.88679 0.02728 0.0
N31 N 0.2631 0.63914 0.08517 0.0
C32 C 0.20911 0.62592 0.10824 0.0
C33 C 0.22867 0.74212 0.0985 0.0
C34 C 0.28561 0.75645 0.07618 0.0
C35 C 0.19061 0.67669 0.11484 0.0
C36 C 0.30185 0.70326 0.0701 0.0
H37 H 0.49491 0.84501 1.00162 0.0
N38 N 0.37215 0.66326 0.04398 0.0
C39 C 0.47507 0.74072 1.00957 0.0
C40 C 0.35855 0.71591 0.04908 0.0
C41 C 0.43038 0.67535 1.02494 0.0
C42 C 0.46048 0.79455 1.01379 0.0
C43 C 0.40171 0.78266 0.03377 0.0
O44 O 0.39093 0.58103 0.10122 0.0
O45 O 0.23603 0.43465 0.06981 0.0
O46 O 0.14426 0.4452 1.01814 0.0
O47 O 0.2084 0.55743 0.0435 0.0
O48 O 0.19602 0.48244 0.10229 0.0
O49 O 0.29945 0.56085 0.13159 0.0
O50 O 0.19313 0.36305 0.95528 0.0
O51 O 0.29262 0.51716 1.01558 0.0
O52 O 0.38204 0.53433 0.05677 0.0
O53 O 0.33975 0.44068 1.01691 0.0
O54 O 0.22953 0.48243 0.96962 0.0
O55 O 0.27855 0.36042 0.98081 0.0
C56 C 0.18622 0.42332 0.09157 0.0
C57 C 0.4073 0.65065 0.15247 0.0
C58 C 0.41878 0.71803 0.20703 0.0
C59 C 0.39144 0.65359 0.18904 0.0
C60 C 0.46785 0.77887 0.18823 0.0
C61 C 0.45647 0.71174 0.13446 0.0
C62 C 0.48743 0.77525 0.15258 0.0
C63 C 0.15165 0.50696 0.02819 0.0
C64 C 0.36637 0.5851 0.13262 0.0
C65 C 0.38522 0.83548 0.0391 0.0
C66 C 0.32711 0.82233 0.0602 0.0
C67 C 0.27691 0.53626 0.98643 0.0
C68 C 0.22151 0.27924 0.9327 0.0
C69 C 0.25899 0.27742 0.90156 0.0
C70 C 0.24041 0.21334 0.88397 0.0
C71 C 0.18295 0.15208 0.89777 0.0
C72 C 0.16495 0.2169 0.9456 0.0
C73 C 0.14572 0.15398 0.92811 0.0
C74 C 0.39111 0.49158 0.03575 0.0
C75 C 0.24114 0.346 0.95152 0.0
H76 H 0.35496 0.60546 0.20259 0.0
H77 H 0.48922 0.83014 0.20004 0.0
H78 H 0.4697 0.71091 0.10616 0.0
H79 H 0.52442 0.8224 0.13841 0.0
H80 H 0.30313 0.32534 0.89158 0.0
H81 H 0.16645 0.10226 0.88492 0.0
H82 H 0.13551 0.21694 0.96919 0.0
H83 H 0.10171 0.10619 0.93823 0.0
Eu84 Eu 0.74817 0.26771 0.39825 0.0
C85 C 0.84946 0.05998 0.37821 0.0
C86 C 0.94289 0.10816 0.42209 0.0
C87 C 0.88157 0.98378 0.4098 0.0
C88 C 0.90018 0.11678 0.39671 0.0
C89 C 0.84011 0.99289 0.38413 0.0
C90 C 0.93283 0.04132 0.42878 0.0
C91 C 0.75181 0.94932 0.33759 0.0
N92 N 0.81046 0.07052 0.35359 0.0
C93 C 0.7632 0.01681 0.33267 0.0
C94 C 0.79007 0.93716 0.36366 0.0
Eu95 Eu 0.82919 0.18487 0.34718 0.0
N96 N 0.90856 0.18062 0.38948 0.0
C97 C 0.96048 0.23846 0.40621 0.0
C98 C 0.99495 0.16703 0.43972 0.0
C99 C 1.00399 0.23248 0.43156 0.0
H100 H 0.73367 0.02607 0.31232 0.0
H101 H 0.04427 0.27845 0.44498 0.0
H102 H 0.96498 0.0337 0.44825 0.0
H103 H 0.71363 0.90681 0.32125 0.0
H104 H 0.96813 0.28961 0.40116 0.0
H105 H 0.57474 0.31181 0.31187 0.0
H106 H 0.0287 0.16258 0.45942 0.0
H107 H 0.88274 0.38228 0.45116 0.0
H108 H 0.6217 0.24347 0.34069 0.0
H109 H 0.93444 0.50404 0.4711 0.0
H110 H 0.87498 0.93264 0.41485 0.0
H111 H 0.62549 0.43686 0.32655 0.0
H112 H 0.71155 0.54054 0.36241 0.0
H113 H 0.78133 0.88487 0.36739 0.0
H114 H 0.80762 0.59192 0.40633 0.0
N115 N 0.70247 0.33015 0.36827 0.0
C116 C 0.64634 0.29868 0.3458 0.0
C117 C 0.64733 0.40741 0.33854 0.0
C118 C 0.70257 0.43857 0.36314 0.0
C119 C 0.61875 0.33696 0.33005 0.0
C120 C 0.72913 0.39793 0.378 0.0
H121 H 0.89085 0.57877 0.44685 0.0
N122 N 0.80802 0.38642 0.41653 0.0
C123 C 0.89205 0.4829 0.45185 0.0
C124 C 0.78261 0.42662 0.40325 0.0
C125 C 0.86199 0.41349 0.44064 0.0
C126 C 0.86702 0.52489 0.43826 0.0
C127 C 0.81184 0.49707 0.41358 0.0
O128 O 0.71724 0.26145 0.45471 0.0
O129 O 0.78464 0.18962 0.40128 0.0
O130 O 0.71192 0.10071 0.35835 0.0
O131 O 0.66132 0.16726 0.37621 0.0
O132 O 0.81449 0.25969 0.4429 0.0
O133 O 0.6387 0.22618 0.41213 0.0
O134 O 0.84374 0.15223 0.29296 0.0
O135 O 0.77696 0.24691 0.34358 0.0
O136 O 0.83584 0.35386 0.36719 0.0
O137 O 0.90502 0.30458 0.35563 0.0
O138 O 0.74929 0.16868 0.30506 0.0
O139 O 0.92231 0.25121 0.31373 0.0
C140 C 0.81416 0.20446 0.43192 0.0
C141 C 0.6278 0.28747 0.46208 0.0
C142 C 0.61148 0.33993 0.51645 0.0
C143 C 0.63937 0.30323 0.49898 0.0
C144 C 0.57755 0.36711 0.49534 0.0
C145 C 0.59291 0.31382 0.44146 0.0
C146 C 0.56942 0.35491 0.45799 0.0
C147 C 0.65641 0.1077 0.3663 0.0
C148 C 0.65326 0.24372 0.4462 0.0
C149 C 0.78579 0.53774 0.39868 0.0
C150 C 0.73126 0.50856 0.37357 0.0
C151 C 0.7397 0.2186 0.31599 0.0
C152 C 0.95716 0.20239 0.26524 0.0
C153 C 0.98831 0.24273 0.23322 0.0
C154 C 0.03925 0.23541 0.21288 0.0
C155 C 0.05684 0.18604 0.22524 0.0
C156 C 0.97713 0.15468 0.27659 0.0
C157 C 0.02633 0.14652 0.25665 0.0
C158 C 0.89596 0.35978 0.35811 0.0
C159 C 0.90273 0.2089 0.2861 0.0
H160 H 0.6679 0.28406 0.51439 0.0
H161 H 0.55389 0.39458 0.5077 0.0
H162 H 0.58332 0.30255 0.4128 0.0
H163 H 0.54239 0.37504 0.44208 0.0
H164 H 0.97347 0.28017 0.22453 0.0
H165 H 0.09398 0.17719 0.21038 0.0
H166 H 0.95419 0.12327 0.30078 0.0
H167 H 0.04083 0.10898 0.26554 0.0
Eu168 Eu 0.46402 0.74355 0.74825 0.0
C169 C 0.76404 0.8349 0.71029 0.0
C170 C 0.82016 0.93357 0.75083 0.0
C171 C 0.87816 0.86864 0.7351 0.0
C172 C 0.76326 0.88832 0.7289 0.0
C173 C 0.82194 0.82493 0.71264 0.0
C174 C 0.87727 0.92293 0.75417 0.0
C175 C 0.7664 0.7325 0.66858 0.0
N176 N 0.70908 0.79411 0.68881 0.0
C177 C 0.71049 0.74491 0.66704 0.0
C178 C 0.82214 0.77226 0.69177 0.0
Eu179 Eu 0.61523 0.81669 0.68723 0.0
N180 N 0.70692 0.89642 0.72529 0.0
C181 C 0.70506 0.95041 0.74207 0.0
C182 C 0.81815 0.98845 0.76845 0.0
C183 C 0.76049 0.99717 0.76383 0.0
H184 H 0.66777 0.71455 0.64875 0.0
H185 H 0.75833 0.03944 0.77732 0.0
H186 H 0.92131 0.95686 0.77105 0.0
H187 H 0.7666 0.69255 0.65176 0.0
H188 H 0.6603 0.95693 0.73943 0.0
H189 H 0.39042 0.54246 0.85359 0.0
H190 H 0.86079 0.02439 0.78553 0.0
H191 H 0.34708 0.75183 0.6888 0.0
H192 H 0.45498 0.66083 0.82844 0.0
H193 H 0.24049 0.67062 0.65746 0.0
H194 H 0.92295 0.8616 0.73745 0.0
H195 H 0.29149 0.44911 0.81983 0.0
H196 H 0.21092 0.41435 0.76648 0.0
H197 H 0.8656 0.76286 0.69279 0.0
H198 H 0.17047 0.44934 0.71263 0.0
N199 N 0.39618 0.63524 0.77932 0.0
C200 C 0.41303 0.62084 0.81271 0.0
C201 C 0.32008 0.50118 0.80837 0.0
C202 C 0.2997 0.51736 0.77558 0.0
C203 C 0.37593 0.55365 0.82746 0.0
C204 C 0.33858 0.5861 0.76189 0.0
H205 H 0.18014 0.54499 0.67235 0.0
N206 N 0.3523 0.67364 0.72068 0.0
C207 C 0.26165 0.65142 0.67793 0.0
C208 C 0.31626 0.60579 0.73146 0.0
C209 C 0.32316 0.6976 0.69594 0.0
C210 C 0.22784 0.58058 0.68633 0.0
C211 C 0.25382 0.55719 0.71413 0.0
O212 O 0.39346 0.75786 0.78429 0.0
O213 O 0.58201 0.80643 0.74541 0.0
O214 O 0.58555 0.70142 0.70219 0.0
O215 O 0.47797 0.65235 0.7337 0.0
O216 O 0.53698 0.72721 0.7838 0.0
O217 O 0.50202 0.83665 0.78217 0.0
O218 O 0.64627 0.82375 0.62969 0.0
O219 O 0.49916 0.7628 0.69057 0.0
O220 O 0.45785 0.81933 0.7099 0.0
O221 O 0.57306 0.89334 0.69453 0.0
O222 O 0.54198 0.7254 0.65287 0.0
O223 O 0.64837 0.91173 0.65421 0.0
C224 C 0.59499 0.77448 0.77025 0.0
C225 C 0.44249 0.82755 0.8369 0.0
C226 C 0.4133 0.78283 0.89882 0.0
C227 C 0.41427 0.77133 0.86135 0.0
C228 C 0.44057 0.85111 0.91176 0.0
C229 C 0.47046 0.89567 0.85022 0.0
C230 C 0.46945 0.9073 0.8875 0.0
C231 C 0.52861 0.64714 0.71733 0.0
C232 C 0.44207 0.81668 0.79746 0.0
C233 C 0.21769 0.48757 0.72609 0.0
C234 C 0.24062 0.46767 0.75678 0.0
C235 C 0.48455 0.71719 0.66643 0.0
C236 C 0.72515 0.93486 0.60335 0.0
C237 C 0.72437 0.97282 0.57202 0.0
C238 C 0.78715 0.01762 0.55249 0.0
C239 C 0.8493 0.02182 0.56459 0.0
C240 C 0.78871 0.94164 0.6143 0.0
C241 C 0.84994 0.98434 0.59496 0.0
C242 C 0.50855 0.88139 0.70012 0.0
C243 C 0.6604 0.88757 0.62456 0.0
H244 H 0.39155 0.71854 0.85129 0.0
H245 H 0.43998 0.8609 0.94058 0.0
H246 H 0.49255 0.93979 0.83173 0.0
H247 H 0.49082 0.95995 0.89757 0.0
H248 H 0.67574 0.96862 0.56342 0.0
H249 H 0.89807 0.05455 0.55041 0.0
H250 H 0.79098 0.91355 0.63787 0.0
H251 H 0.89854 0.98871 0.6037 0.0
Eu252 Eu 0.76261 0.49367 0.05829 0.0
C253 C 0.98857 0.80446 0.04081 0.0
C254 C 0.95254 0.85649 0.08764 0.0
C255 C 0.07547 0.90792 0.0724 0.0
C256 C 0.93642 0.80419 0.06142 0.0
C257 C 0.05865 0.85712 0.04545 0.0
C258 C 0.02246 0.90757 0.0935 0.0
C259 C 0.08932 0.80841 0.9947 0.0
N260 N 0.97034 0.75494 1.015 0.0
C261 C 0.01901 0.75755 0.99112 0.0
C262 C 0.1094 0.85798 1.02229 0.0
Eu263 Eu 0.85175 0.66607 1.01213 0.0
N264 N 0.8696 0.75414 0.0549 0.0
C265 C 0.81587 0.75596 0.07228 0.0
C266 C 0.89783 0.85665 0.10665 0.0
C267 C 0.82914 0.80669 0.09856 0.0
H268 H 1.00358 0.71901 0.96983 0.0
H269 H 0.78632 0.80693 0.11271 0.0
H270 H 0.03592 0.94781 0.11372 0.0
H271 H 0.12791 0.80929 0.97622 0.0
H272 H 0.76247 0.7177 0.06674 0.0
H273 H 0.73321 0.27716 0.97468 0.0
H274 H 0.90797 0.89578 0.12707 0.0
H275 H 0.64034 0.50926 0.10668 0.0
H276 H 0.79666 0.39127 1.005 0.0
H277 H 0.51399 0.44268 0.1178 0.0
H278 H 0.12906 0.94847 0.07661 0.0
H279 H 0.60501 0.20552 0.98106 0.0
H280 H 0.49416 0.19007 1.00838 0.0
H281 H 0.16385 0.89748 1.02498 0.0
H282 H 0.4349 0.23458 0.0475 0.0
N283 N 0.70542 0.38584 0.02728 0.0
C284 C 0.74075 0.3609 1.00774 0.0
C285 C 0.63264 0.25577 0.99434 0.0
C286 C 0.59699 0.28022 1.01568 0.0
C287 C 0.70496 0.29601 0.99066 0.0
C288 C 0.63542 0.34601 0.03241 0.0
H289 H 0.44177 0.32844 0.08829 0.0
N290 N 0.6409 0.43369 0.07106 0.0
C291 C 0.53817 0.42163 0.10021 0.0
C292 C 0.60219 0.37045 0.05503 0.0
C293 C 0.61016 0.45911 0.09396 0.0
C294 C 0.49757 0.35721 0.08346 0.0
C295 C 0.52943 0.33064 0.0607 0.0
O296 O 0.76297 0.46832 0.11524 0.0
O297 O 0.83821 0.60872 0.06428 0.0
O298 O 0.9329 0.63018 1.02234 0.0
O299 O 0.86385 0.51019 0.03462 0.0
O300 O 0.76413 0.56314 0.10427 0.0
O301 O 0.80703 0.42966 0.07456 0.0
O302 O 0.87444 0.70903 0.95685 0.0
O303 O 0.79194 0.5527 1.00658 0.0
O304 O 0.68416 0.50288 1.02448 0.0
O305 O 0.73464 0.6229 0.02759 0.0
O306 O 0.86128 0.60662 0.96453 0.0
O307 O 0.78578 0.70113 0.98568 0.0
C308 C 0.8189 0.62013 0.09455 0.0
C309 C 0.74548 0.3562 0.12444 0.0
C310 C 0.69629 0.28637 0.17915 0.0
C311 C 0.7325 0.35144 0.16184 0.0
C312 C 0.66948 0.22552 0.1578 0.0
C313 C 0.71883 0.29515 0.10361 0.0
C314 C 0.68013 0.23015 0.12025 0.0
C315 C 0.9245 0.56632 0.02697 0.0
C316 C 0.78616 0.42576 0.1082 0.0
C317 C 0.49082 0.2658 0.0435 0.0
C318 C 0.52454 0.24055 1.02115 0.0
C319 C 0.81373 0.54615 0.97597 0.0
C320 C 0.829 0.77946 0.93481 0.0
C321 C 0.78813 0.77025 0.90355 0.0
C322 C 0.796 0.82831 0.88331 0.0
C323 C 0.84619 0.89548 0.89498 0.0
C324 C 0.87819 0.84704 0.94566 0.0
C325 C 0.88671 0.90458 0.92578 0.0
C326 C 0.67925 0.55943 1.02284 0.0
C327 C 0.82072 0.71795 0.95514 0.0
H328 H 0.75216 0.39896 0.17751 0.0
H329 H 0.64283 0.17415 0.17006 0.0
H330 H 0.72807 0.29728 0.07466 0.0
H331 H 0.65999 0.18316 0.10416 0.0
H332 H 0.7496 0.71793 0.89539 0.0
H333 H 0.85468 0.94128 0.88009 0.0
H334 H 0.91017 0.85521 0.96938 0.0
H335 H 0.9251 0.95666 0.93425 0.0
Eu336 Eu 0.26328 0.72826 0.40176 0.0
C337 C 0.18732 0.95339 0.37487 0.0
C338 C 0.08984 0.91238 0.4167 0.0
C339 C 0.16286 0.03655 0.40503 0.0
C340 C 0.13152 0.89905 0.39258 0.0
C341 C 0.20291 0.02274 0.38031 0.0
C342 C 0.10646 0.98145 0.42324 0.0
C343 C 0.29344 0.05908 0.33468 0.0
N344 N 0.22481 0.93826 0.35121 0.0
C345 C 0.27576 0.98948 0.33021 0.0
C346 C 0.25737 0.07593 0.36017 0.0
Eu347 Eu 0.19544 0.82018 0.34613 0.0
N348 N 0.11707 0.83301 0.38565 0.0
C349 C 0.0595 0.77756 0.40085 0.0
C350 C 0.03217 0.85585 0.43314 0.0
C351 C 0.0166 0.78814 0.4249 0.0
H352 H 0.30354 0.97656 0.31028 0.0
H353 H 0.97175 0.74396 0.43724 0.0
H354 H 0.07534 0.99271 0.44185 0.0
H355 H 0.33477 0.09962 0.31844 0.0
H356 H 0.04671 0.72481 0.39535 0.0
H357 H 0.43646 0.65991 0.32995 0.0
H358 H 0.99896 0.86388 0.45186 0.0
H359 H 0.10877 0.62205 0.44523 0.0
H360 H 0.3967 0.73818 0.35395 0.0
H361 H 0.03863 0.49901 0.46303 0.0
H362 H 0.17434 0.0895 0.4098 0.0
H363 H 0.36879 0.53358 0.34358 0.0
H364 H 0.26649 0.43406 0.37493 0.0
H365 H 0.27098 0.12986 0.36353 0.0
H366 H 0.16 0.39103 0.41198 0.0
N367 N 0.30406 0.65646 0.37747 0.0
C368 C 0.36499 0.68275 0.35833 0.0
C369 C 0.35033 0.56758 0.35341 0.0
C370 C 0.28962 0.54136 0.37459 0.0
C371 C 0.38845 0.63874 0.34548 0.0
C372 C 0.26778 0.58782 0.3867 0.0
H373 H 0.07487 0.41478 0.44483 0.0
N374 N 0.18744 0.60959 0.41839 0.0
C375 C 0.08629 0.51668 0.44767 0.0
C376 C 0.20835 0.5638 0.40818 0.0
C377 C 0.12703 0.58691 0.43782 0.0
C378 C 0.10707 0.46925 0.43745 0.0
C379 C 0.16845 0.49237 0.41727 0.0
O380 O 0.28505 0.73446 0.45938 0.0
O381 O 0.2312 0.81029 0.40174 0.0
O382 O 0.3136 0.8974 0.35788 0.0
O383 O 0.35603 0.8258 0.37966 0.0
O384 O 0.19509 0.7409 0.44408 0.0
O385 O 0.36874 0.76084 0.42016 0.0
O386 O 0.18636 0.85321 0.29121 0.0
O387 O 0.2469 0.75819 0.34695 0.0
O388 O 0.18344 0.65012 0.36412 0.0
O389 O 0.11567 0.70149 0.35567 0.0
O390 O 0.269 0.82311 0.30215 0.0
O391 O 0.10123 0.75854 0.31342 0.0
C392 C 0.1984 0.79672 0.43163 0.0
C393 C 0.3655 0.69947 0.47385 0.0
C394 C 0.36988 0.64999 0.53218 0.0
C395 C 0.35024 0.68977 0.51099 0.0
C396 C 0.39922 0.61401 0.51468 0.0
C397 C 0.39577 0.66425 0.45687 0.0
C398 C 0.41105 0.62047 0.47718 0.0
C399 C 0.36574 0.88662 0.36799 0.0
C400 C 0.34836 0.7463 0.454 0.0
C401 C 0.19005 0.44602 0.40526 0.0
C402 C 0.25053 0.47047 0.38403 0.0
C403 C 0.27913 0.77621 0.31696 0.0
C404 C 0.07384 0.81424 0.2658 0.0
C405 C 0.03879 0.77591 0.2342 0.0
C406 C 0.99057 0.78934 0.21572 0.0
C407 C 0.9797 0.84266 0.22911 0.0
C408 C 0.06105 0.86649 0.27833 0.0
C409 C 0.01461 0.88072 0.25996 0.0
C410 C 0.12389 0.64566 0.35551 0.0
C411 C 0.1242 0.80028 0.28534 0.0
H412 H 0.32531 0.7159 0.52362 0.0
H413 H 0.41652 0.58381 0.52996 0.0
H414 H 0.40809 0.67067 0.42818 0.0
H415 H 0.43458 0.59353 0.46405 0.0
H416 H 0.04794 0.73499 0.22454 0.0
H417 H 0.94395 0.8551 0.21559 0.0
H418 H 0.08721 0.89645 0.3023 0.0
H419 H 1.00536 0.92143 0.26979 0.0
Eu420 Eu 0.53058 0.25408 0.72924 0.0
C421 C 0.2284 0.20317 0.70524 0.0
C422 C 0.16408 0.11437 0.75049 0.0
C423 C 0.12608 0.19625 0.73399 0.0
C424 C 0.22035 0.1478 0.7258 0.0
C425 C 0.18092 0.22765 0.7086 0.0
C426 C 0.11762 0.1396 0.7549 0.0
C427 C 0.24325 0.30956 0.66016 0.0
N428 N 0.28152 0.23164 0.68093 0.0
C429 C 0.28865 0.28305 0.65779 0.0
C430 C 0.18947 0.28219 0.68595 0.0
Eu431 Eu 0.36268 0.19183 0.68093 0.0
N432 N 0.26634 0.12514 0.72073 0.0
C433 C 0.25641 0.06628 0.7381 0.0
C434 C 0.15554 0.05592 0.76949 0.0
C435 C 0.20145 0.03128 0.7629 0.0
H436 H 0.33073 0.30498 0.63812 0.0
H437 H 0.19482 0.98553 0.77709 0.0
H438 H 0.07439 0.11496 0.77393 0.0
H439 H 0.24998 0.35128 0.64225 0.0
H440 H 0.29152 0.04664 0.7338 0.0
H441 H 0.74738 0.43701 0.64333 0.0
H442 H 0.11309 0.0288 0.78875 0.0
H443 H 0.51069 0.11266 0.77446 0.0
H444 H 0.64107 0.39579 0.68104 0.0
H445 H 0.56719 0.04114 0.77777 0.0
H446 H 0.08931 0.21457 0.73721 0.0
H447 H 0.80231 0.36403 0.63702 0.0
H448 H 0.8056 0.25657 0.65559 0.0
H449 H 0.15434 0.30278 0.68778 0.0
H450 H 0.75791 0.15015 0.693 0.0
N451 N 0.63381 0.29898 0.69395 0.0
C452 C 0.66424 0.36324 0.67799 0.0
C453 C 0.75524 0.34535 0.6532 0.0
C454 C 0.72649 0.28161 0.67175 0.0
C455 C 0.72452 0.3868 0.65677 0.0
C456 C 0.66501 0.25957 0.69229 0.0
H457 H 0.6705 0.07093 0.73944 0.0
N458 N 0.58051 0.18143 0.73413 0.0
C459 C 0.58762 0.08554 0.75957 0.0
C460 C 0.63836 0.19961 0.71348 0.0
C461 C 0.55574 0.12623 0.75762 0.0
C462 C 0.64583 0.10235 0.7378 0.0
C463 C 0.67214 0.16013 0.71451 0.0
O464 O 0.54982 0.265 0.78735 0.0
O465 O 0.41795 0.22398 0.73411 0.0
O466 O 0.4036 0.30666 0.69975 0.0
O467 O 0.52131 0.3492 0.71541 0.0
O468 O 0.4533 0.18272 0.77254 0.0
O469 O 0.61412 0.35206 0.75145 0.0
O470 O 0.33403 0.18138 0.62312 0.0
O471 O 0.47675 0.23928 0.67661 0.0
O472 O 0.50984 0.16566 0.6923 0.0
O473 O 0.38992 0.10567 0.6952 0.0
O474 O 0.42992 0.27434 0.63998 0.0
O475 O 0.32314 0.09217 0.65159 0.0
C476 C 0.4008 0.18922 0.76322 0.0
C477 C 0.66644 0.33394 0.80345 0.0
C478 C 0.7304 0.35552 0.86012 0.0
C479 C 0.67761 0.35662 0.83945 0.0
C480 C 0.76999 0.3286 0.84434 0.0
C481 C 0.70979 0.31211 0.78756 0.0
C482 C 0.76031 0.30806 0.80805 0.0
C483 C 0.46776 0.35863 0.70846 0.0
C484 C 0.6051 0.32665 0.78439 0.0
C485 C 0.73163 0.18025 0.69285 0.0
C486 C 0.75867 0.24077 0.67147 0.0
C487 C 0.48821 0.28074 0.65057 0.0
C488 C 0.25689 0.0699 0.59665 0.0
C489 C 0.26325 0.03085 0.5674 0.0
C490 C 0.2048 0.98686 0.54526 0.0
C491 C 0.14125 0.98443 0.55265 0.0
C492 C 0.19229 0.06522 0.60289 0.0
C493 C 0.13524 0.02316 0.58096 0.0
C494 C 0.45021 0.10736 0.68974 0.0
C495 C 0.31741 0.11626 0.62028 0.0
H496 H 0.64592 0.37663 0.85078 0.0
H497 H 0.80966 0.32502 0.85965 0.0
H498 H 0.70458 0.2979 0.75952 0.0
H499 H 0.79235 0.28943 0.7957 0.0
H500 H 0.31279 0.0336 0.56243 0.0
H501 H 0.09564 0.95215 0.53635 0.0
H502 H 0.18603 0.09441 0.62477 0.0
H503 H 0.08569 0.02024 0.58605 0.0
C504 C 0.39092 0.79782 0.2915 0.0
C505 C 0.32082 0.75068 0.29942 0.0
H506 H 0.4799 0.82065 0.25945 0.0
C507 C 0.28653 0.68697 0.28128 0.0
H508 H 0.41784 0.848 0.30474 0.0
C509 C 0.31991 0.67362 0.2528 0.0
C510 C 0.3892 0.7231 0.24279 0.0
H511 H 0.23168 0.65087 0.28642 0.0
H512 H 0.28854 0.62723 0.23701 0.0
C513 C 0.42576 0.78272 0.26464 0.0
C514 C 0.5666 0.26443 0.61045 0.0
C515 C 0.54744 0.30972 0.62607 0.0
H516 H 0.6007 0.23739 0.56277 0.0
C517 C 0.56774 0.37426 0.60974 0.0
H518 H 0.55069 0.21411 0.62269 0.0
C519 C 0.59859 0.38923 0.5754 0.0
C520 C 0.60651 0.33836 0.5567 0.0
H521 H 0.5534 0.40989 0.6219 0.0
H522 H 0.60947 0.43737 0.56222 0.0
C523 C 0.59551 0.2783 0.57578 0.0
C524 C 0.37186 0.61431 0.945 0.0
C525 C 0.31686 0.60351 0.96812 0.0
H526 H 0.44615 0.68062 0.90493 0.0
C527 C 0.29428 0.65228 0.96894 0.0
H528 H 0.38848 0.57598 0.94332 0.0
C529 C 0.32778 0.71247 0.94753 0.0
C530 C 0.38236 0.72296 0.92403 0.0
H531 H 0.25034 0.6435 0.98568 0.0
H532 H 0.30941 0.74947 0.9483 0.0
C533 C 0.40439 0.67364 0.92303 0.0
C534 C 0.65193 0.20691 0.2724 0.0
C535 C 0.71447 0.25056 0.2904 0.0
H536 H 0.59452 0.18655 0.22321 0.0
C537 C 0.76238 0.31495 0.27524 0.0
H538 H 0.61436 0.15689 0.28401 0.0
C539 C 0.75321 0.33024 0.23969 0.0
C540 C 0.69493 0.28189 0.21944 0.0
H541 H 0.81134 0.34878 0.28869 0.0
H542 H 0.7958 0.37611 0.22716 0.0
C543 C 0.64145 0.22327 0.23735 0.0
C544 C 0.39727 0.62116 0.62992 0.0
C545 C 0.42431 0.68925 0.64289 0.0
H546 H 0.35461 0.55328 0.5843 0.0
C547 C 0.41466 0.73743 0.62306 0.0
H548 H 0.40472 0.58348 0.64508 0.0
C549 C 0.3889 0.72154 0.58796 0.0
C550 C 0.37167 0.65672 0.5724 0.0
H551 H 0.4363 0.79063 0.63247 0.0
H552 H 0.39134 0.76368 0.57199 0.0
C553 C 0.37009 0.60457 0.59487 0.0
C554 C 0.83986 0.4755 0.93491 0.0
C555 C 0.78999 0.48353 0.95436 0.0
H556 H 0.86045 0.42912 0.88969 0.0
C557 C 0.71911 0.44127 0.94647 0.0
H558 H 0.89496 0.50872 0.94042 0.0
C559 C 0.69865 0.39342 0.91809 0.0
C560 C 0.74915 0.39003 0.89612 0.0
H561 H 0.67996 0.44772 0.9608 0.0
H562 H 0.64362 0.36234 0.91206 0.0
C563 C 0.81976 0.42926 0.906 0.0
C564 C 0.51941 0.57102 0.04618 0.0
C565 C 0.46504 0.50905 0.03081 0.0
H566 H 0.62927 0.63691 0.05457 0.0
C567 C 0.48308 0.46714 1.01024 0.0
H568 H 0.50835 0.60519 0.06231 0.0
C569 C 0.55333 0.48582 1.00607 0.0
C570 C 0.60715 0.5473 1.02191 0.0
H571 H 0.44309 0.41944 0.99794 0.0
H572 H 0.56551 0.45111 0.99113 0.0
C573 C 0.58939 0.59022 0.04143 0.0
C574 C 0.07771 0.51744 0.34604 0.0
C575 C 0.06464 0.57349 0.34968 0.0
H576 H 0.03591 0.4065 0.3469 0.0
C577 C 0.99531 0.55814 0.3512 0.0
H578 H 0.13046 0.52711 0.34328 0.0
C579 C 0.94094 0.48864 0.35159 0.0
C580 C 0.95432 0.4325 0.35172 0.0
H581 H 0.983 0.59954 0.35338 0.0
H582 H 0.88822 0.47921 0.3528 0.0
C583 C 0.02344 0.44789 0.34769 0.0
C584 C 0.51599 0.04894 0.66939 0.0
C585 C 0.45599 0.04356 0.68619 0.0
H586 H 0.5808 1.00352 0.66118 0.0
C587 C 0.41054 0.98183 0.70472 0.0
H588 H 0.55205 0.09584 0.65467 0.0
C589 C 0.42708 0.92865 0.70825 0.0
C590 C 0.4896 0.93617 0.69353 0.0
H591 H 0.36455 0.97632 0.7183 0.0
H592 H 0.39209 0.88274 0.72393 0.0
C593 C 0.53295 0.99629 0.67328 0.0
C594 C 0.56849 0.5585 0.70976 0.0
C595 C 0.51475 0.57412 0.71312 0.0
H596 H 0.59594 0.47875 0.70593 0.0
C597 C 0.44511 0.51808 0.71325 0.0
H598 H 0.62246 0.59998 0.7094 0.0
C599 C 0.42955 0.44856 0.71105 0.0
C600 C 0.48319 0.43262 0.70892 0.0
H601 H 0.40197 0.52782 0.71494 0.0
H602 H 0.37548 0.40733 0.71173 0.0
C603 C 0.55293 0.48868 0.70796 0.0
C604 C 0.10779 0.59216 1.02563 0.0
C605 C 0.09428 0.52274 1.02277 0.0
H606 H 0.0657 0.66082 0.02905 0.0
C607 C 0.02527 0.46947 1.01788 0.0
H608 H 0.16044 0.63507 0.02907 0.0
C609 C 0.97104 0.48463 1.01779 0.0
C610 C 0.98413 0.55354 1.02249 0.0
H611 H 0.01264 0.4157 1.0157 0.0
H612 H 0.91837 0.44152 1.01499 0.0
C613 C 0.05349 0.60738 1.02542 0.0
C614 C 0.49462 0.92712 0.36843 0.0
C615 C 0.44037 0.94284 0.36419 0.0
H616 H 0.60512 0.96589 0.37171 0.0
C617 C 0.45892 0.01214 0.35732 0.0
H618 H 0.4828 0.8741 0.37329 0.0
C619 C 0.52926 0.06447 0.35635 0.0
C620 C 0.58335 0.0492 0.36206 0.0
H621 H 0.41924 0.02643 0.35373 0.0
H622 H 0.54111 0.1176 0.35189 0.0
C623 C 0.56517 0.97954 0.36717 0.0
C624 C 0.33533 0.24463 0.79188 0.0
C625 C 0.35412 0.19246 0.79191 0.0
H626 H 0.28606 0.29322 0.82087 0.0
C627 C 0.33523 0.14806 0.82229 0.0
H628 H 0.34985 0.28053 0.76923 0.0
C629 C 0.29876 0.15525 0.85173 0.0
C630 C 0.28087 0.208 0.85223 0.0
H631 H 0.3495 0.10797 0.82349 0.0
H632 H 0.28565 0.12 0.87462 0.0
C633 C 0.29956 0.25257 0.82175 0.0
C634 C 0.03989 0.29691 0.15379 0.0
C635 C 0.07538 0.27869 0.17929 0.0
H636 H 0.04667 0.35437 0.10521 0.0
C637 C 0.14667 0.30217 0.17229 0.0
H638 H 0.98516 0.27973 0.15768 0.0
C639 C 0.18154 0.34404 0.14182 0.0
C640 C 0.14624 0.36292 0.11677 0.0
H641 H 0.1768 0.29085 0.19132 0.0
H642 H 0.23722 0.36501 0.13904 0.0
C643 C 0.07488 0.3386 0.1232 0.0
C644 C 0.84378 0.1346 0.52057 0.0
C645 C 0.79169 0.06354 0.52078 0.0
H646 H 0.89197 0.23304 0.49263 0.0
C647 C 0.74945 0.03753 0.48958 0.0
H648 H 0.87762 0.15692 0.54381 0.0
C649 C 0.75901 0.08158 0.45943 0.0
C650 C 0.81049 0.15299 0.45989 0.0
H651 H 0.70955 0.98304 0.48834 0.0
H652 H 0.72468 0.06026 0.43629 0.0
C653 C 0.85256 0.17837 0.49095 0.0
C654 C 0.67851 0.8543 0.8167 0.0
C655 C 0.65915 0.79922 0.79214 0.0
H656 H 0.7362 0.90669 0.86432 0.0
C657 C 0.6873 0.75526 0.79681 0.0
H658 H 0.65468 0.88658 0.81512 0.0
C659 C 0.73303 0.76557 0.8256 0.0
C660 C 0.75125 0.81976 0.85082 0.0
H661 H 0.6712 0.71071 0.77914 0.0
H662 H 0.75284 0.73003 0.82858 0.0
C663 C 0.72456 0.86502 0.84531 0.0
C664 C 0.87616 0.72194 0.18281 0.0
C665 C 0.94846 0.747 0.18369 0.0
H666 H 0.77978 0.66347 0.15416 0.0
C667 C 0.97906 0.73323 0.15345 0.0
H668 H 0.85048 0.73105 0.20552 0.0
C669 C 0.93818 0.6952 0.12337 0.0
C670 C 0.86565 0.66947 0.12304 0.0
H671 H 0.0346 0.75223 0.15295 0.0
H672 H 0.96297 0.68438 0.10086 0.0
C673 C 0.8355 0.68334 0.15323 0.0
C674 C 0.15437 0.86881 0.51536 0.0
C675 C 0.20609 0.93995 0.51565 0.0
H676 H 0.11141 0.76948 0.48893 0.0
C677 C 0.2538 0.9651 0.48624 0.0
H678 H 0.11644 0.84723 0.53725 0.0
C679 C 0.24972 0.92016 0.45767 0.0
C680 C 0.19825 0.84874 0.45797 0.0
H681 H 0.29367 0.01964 0.4851 0.0
H682 H 0.28787 0.9409 0.43585 0.0
C683 C 0.15104 0.82412 0.48737 0.0
loop_
_geom_bond_atom_site_label_1
_geom_bond_atom_site_label_2
_geom_bond_distance
_geom_bond_site_symmetry_2
_ccdc_geom_bond_type
Eu0 N31 2.657 . S
Eu0 N38 2.609 . S
Eu0 O44 2.558 . S
Eu0 O45 2.612 . S
Eu0 O47 2.339 . S
Eu0 O48 2.563 . S
Eu0 O49 2.419 . S
Eu0 O51 2.380 1_554 S
Eu0 O52 2.432 . S
Eu0 C64 2.848 . S
C1 C4 1.429 . S
C1 C5 1.411 1_455 S
C1 N8 1.377 1_554 S
C2 C4 1.420 . S
C2 C6 1.423 1_455 S
C2 C14 1.392 . S
C3 C5 1.420 . S
C3 C6 1.351 . S
C3 H26 0.931 . S
C4 C1 1.429 . S
C4 C2 1.420 . S
C4 N12 1.362 . S
C5 C1 1.411 1_655 S
C5 C3 1.420 . S
C5 C10 1.395 1_554 S
C6 C2 1.423 1_655 S
C6 C3 1.351 . S
C6 H18 0.930 . S
C7 C9 1.400 . S
C7 C10 1.386 . S
C7 H19 0.930 . S
N8 C1 1.377 1_556 S
N8 C9 1.321 1_455 S
N8 Eu11 2.609 . S
C9 C7 1.400 . S
C9 N8 1.321 1_655 S
C9 H16 0.930 1_655 S
C10 C5 1.395 1_556 S
C10 C7 1.386 . S
C10 H29 0.930 . S
Eu11 N8 2.609 . S
Eu11 N12 2.657 1_556 S
Eu11 O45 2.380 1_556 S
Eu11 O46 2.432 . S
Eu11 O50 2.558 . S
Eu11 O51 2.612 . S
Eu11 O53 2.339 1_556 S
Eu11 O54 2.563 . S
Eu11 O55 2.419 . S
Eu11 C75 2.848 . S
N12 C4 1.362 . S
N12 Eu11 2.657 1_554 S
N12 C13 1.334 . S
C13 N12 1.334 . S
C13 C15 1.413 . S
C13 H20 0.929 . S
C14 C2 1.392 . S
C14 C15 1.367 . S
C14 H22 0.930 . S
C15 C13 1.413 . S
C15 C14 1.367 . S
C15 H17 0.930 . S
H16 C9 0.930 1_455 S
H17 C15 0.930 . S
H18 C6 0.930 . S
H19 C7 0.930 . S
H20 C13 0.929 . S
H21 C35 0.930 . S
H22 C14 0.930 . S
H23 C41 0.930 . S
H24 C32 0.929 . S
H25 C39 0.930 . S
H26 C3 0.931 . S
H27 C33 0.930 . S
H28 C66 0.930 . S
H29 C10 0.930 . S
H30 C65 0.931 . S
N31 Eu0 2.657 . S
N31 C32 1.334 1_554 S
N31 C36 1.362 . S
C32 H24 0.929 . S
C32 N31 1.334 1_556 S
C32 C35 1.413 . S
C33 H27 0.930 . S
C33 C34 1.392 . S
C33 C35 1.367 . S
C34 C33 1.392 . S
C34 C36 1.420 1_556 S
C34 C66 1.423 . S
C35 H21 0.930 . S
C35 C32 1.413 . S
C35 C33 1.367 . S
C36 N31 1.362 . S
C36 C34 1.420 1_554 S
C36 C40 1.429 . S
H37 C42 0.930 . S
N38 Eu0 2.609 . S
N38 C40 1.377 . S
N38 C41 1.321 . S
C39 H25 0.930 . S
C39 C41 1.400 . S
C39 C42 1.386 . S
C40 C36 1.429 . S
C40 N38 1.377 . S
C40 C43 1.411 . S
C41 H23 0.930 . S
C41 N38 1.321 . S
C41 C39 1.400 . S
C42 H37 0.930 . S
C42 C39 1.386 . S
C42 C43 1.395 . S
C43 C40 1.411 . S
C43 C42 1.395 . S
C43 C65 1.420 . S
O44 Eu0 2.558 . S
O44 C64 1.257 . S
O45 Eu0 2.612 . S
O45 Eu11 2.380 1_554 S
O45 C56 1.276 . S
O46 Eu11 2.432 . S
O46 C63 1.264 1_556 S
O47 Eu0 2.339 . S
O47 C63 1.254 . S
O48 Eu0 2.563 . S
O48 C56 1.235 . S
O49 Eu0 2.419 . S
O49 C64 1.249 . S
O50 Eu11 2.558 . S
O50 C75 1.257 . S
O51 Eu0 2.380 1_556 S
O51 Eu11 2.612 . S
O51 C67 1.276 . S
O52 Eu0 2.432 . S
O52 C74 1.264 . S
O53 Eu11 2.339 1_554 S
O53 C74 1.254 . S
O54 Eu11 2.563 . S
O54 C67 1.235 . S
O55 Eu11 2.419 . S
O55 C75 1.249 . S
C56 O45 1.276 . S
C56 O48 1.235 . S
C57 C59 1.393 . S
C57 C61 1.395 . S
C57 C64 1.492 . S
C58 C59 1.392 . S
C58 C60 1.386 . S
C59 C57 1.393 . S
C59 C58 1.392 . S
C59 H76 0.930 . S
C60 C58 1.386 . S
C60 C62 1.395 . S
C60 H77 0.930 . S
C61 C57 1.395 . S
C61 C62 1.379 . S
C61 H78 0.930 . S
C62 C60 1.395 . S
C62 C61 1.379 . S
C62 H79 0.930 . S
C63 O46 1.264 1_554 S
C63 O47 1.254 . S
C64 Eu0 2.848 . S
C64 O44 1.257 . S
C64 O49 1.249 . S
C64 C57 1.492 . S
C65 H30 0.931 . S
C65 C43 1.420 . S
C65 C66 1.351 1_554 S
C66 H28 0.930 . S
C66 C34 1.423 . S
C66 C65 1.351 1_556 S
C67 O51 1.276 . S
C67 O54 1.235 . S
C68 C69 1.393 . S
C68 C72 1.395 . S
C68 C75 1.492 . S
C69 C68 1.393 . S
C69 C70 1.392 . S
C69 H80 0.930 . S
C70 C69 1.392 . S
C70 C71 1.386 . S
C71 C70 1.386 . S
C71 C73 1.395 . S
C71 H81 0.930 . S
C72 C68 1.395 . S
C72 C73 1.379 . S
C72 H82 0.930 . S
C73 C71 1.395 . S
C73 C72 1.379 . S
C73 H83 0.930 . S
C74 O52 1.264 . S
C74 O53 1.254 . S
C75 Eu11 2.848 . S
C75 O50 1.257 . S
C75 O55 1.249 . S
C75 C68 1.492 . S
H76 C59 0.930 . S
H77 C60 0.930 . S
H78 C61 0.930 . S
H79 C62 0.930 . S
H80 C69 0.930 . S
H81 C71 0.930 . S
H82 C72 0.930 . S
H83 C73 0.930 . S
Eu84 N115 2.657 . S
Eu84 N122 2.609 . S
Eu84 O128 2.558 . S
Eu84 O129 2.612 . S
Eu84 O131 2.339 . S
Eu84 O132 2.563 . S
Eu84 O133 2.419 . S
Eu84 O135 2.380 . S
Eu84 O136 2.432 . S
Eu84 C148 2.848 . S
C85 C88 1.429 . S
C85 C89 1.411 1_545 S
C85 N92 1.377 . S
C86 C88 1.420 . S
C86 C90 1.423 1_545 S
C86 C98 1.392 . S
C87 C89 1.420 . S
C87 C90 1.351 . S
C87 H110 0.931 . S
C88 C85 1.429 . S
C88 C86 1.420 . S
C88 N96 1.362 . S
C89 C85 1.411 1_565 S
C89 C87 1.420 . S
C89 C94 1.395 . S
C90 C86 1.423 1_565 S
C90 C87 1.351 . S
C90 H102 0.930 . S
C91 C93 1.400 . S
C91 C94 1.386 . S
C91 H103 0.930 . S
N92 C85 1.377 . S
N92 C93 1.321 1_545 S
N92 Eu95 2.609 . S
C93 C91 1.400 . S
C93 N92 1.321 1_565 S
C93 H100 0.930 1_565 S
C94 C89 1.395 . S
C94 C91 1.386 . S
C94 H113 0.930 . S
Eu95 N92 2.609 . S
Eu95 N96 2.657 . S
Eu95 O129 2.380 . S
Eu95 O130 2.432 . S
Eu95 O134 2.558 . S
Eu95 O135 2.612 . S
Eu95 O137 2.339 . S
Eu95 O138 2.563 . S
Eu95 O139 2.419 . S
Eu95 C159 2.848 . S
N96 C88 1.362 . S
N96 Eu95 2.657 . S
N96 C97 1.334 . S
C97 N96 1.334 . S
C97 C99 1.413 1_655 S
C97 H104 0.929 . S
C98 C86 1.392 . S
C98 C99 1.367 1_655 S
C98 H106 0.930 1_655 S
C99 C97 1.413 1_455 S
C99 C98 1.367 1_455 S
C99 H101 0.930 . S
H100 C93 0.930 1_545 S
H101 C99 0.930 . S
H102 C90 0.930 . S
H103 C91 0.930 . S
H104 C97 0.929 . S
H105 C119 0.930 . S
H106 C98 0.930 1_455 S
H107 C125 0.930 . S
H108 C116 0.929 . S
H109 C123 0.930 . S
H110 C87 0.931 . S
H111 C117 0.930 . S
H112 C150 0.930 . S
H113 C94 0.930 . S
H114 C149 0.931 . S
N115 Eu84 2.657 . S
N115 C116 1.334 . S
N115 C120 1.362 . S
C116 H108 0.929 . S
C116 N115 1.334 . S
C116 C119 1.413 . S
C117 H111 0.930 . S
C117 C118 1.392 . S
C117 C119 1.367 . S
C118 C117 1.392 . S
C118 C120 1.420 . S
C118 C150 1.423 . S
C119 H105 0.930 . S
C119 C116 1.413 . S
C119 C117 1.367 . S
C120 N115 1.362 . S
C120 C118 1.420 . S
C120 C124 1.429 . S
H121 C126 0.930 . S
N122 Eu84 2.609 . S
N122 C124 1.377 . S
N122 C125 1.321 . S
C123 H109 0.930 . S
C123 C125 1.400 . S
C123 C126 1.386 . S
C124 C120 1.429 . S
C124 N122 1.377 . S
C124 C127 1.411 . S
C125 H107 0.930 . S
C125 N122 1.321 . S
C125 C123 1.400 . S
C126 H121 0.930 . S
C126 C123 1.386 . S
C126 C127 1.395 . S
C127 C124 1.411 . S
C127 C126 1.395 . S
C127 C149 1.420 . S
O128 Eu84 2.558 . S
O128 C148 1.257 . S
O129 Eu84 2.612 . S
O129 Eu95 2.380 . S
O129 C140 1.276 . S
O130 Eu95 2.432 . S
O130 C147 1.264 . S
O131 Eu84 2.339 . S
O131 C147 1.254 . S
O132 Eu84 2.563 . S
O132 C140 1.235 . S
O133 Eu84 2.419 . S
O133 C148 1.249 . S
O134 Eu95 2.558 . S
O134 C159 1.257 . S
O135 Eu84 2.380 . S
O135 Eu95 2.612 . S
O135 C151 1.276 . S
O136 Eu84 2.432 . S
O136 C158 1.264 . S
O137 Eu95 2.339 . S
O137 C158 1.254 . S
O138 Eu95 2.563 . S
O138 C151 1.235 . S
O139 Eu95 2.419 . S
O139 C159 1.249 . S
C140 O129 1.276 . S
C140 O132 1.235 . S
C141 C143 1.393 . S
C141 C145 1.395 . S
C141 C148 1.492 . S
C142 C143 1.392 . S
C142 C144 1.386 . S
C143 C141 1.393 . S
C143 C142 1.392 . S
C143 H160 0.930 . S
C144 C142 1.386 . S
C144 C146 1.395 . S
C144 H161 0.930 . S
C145 C141 1.395 . S
C145 C146 1.379 . S
C145 H162 0.930 . S
C146 C144 1.395 . S
C146 C145 1.379 . S
C146 H163 0.930 . S
C147 O130 1.264 . S
C147 O131 1.254 . S
C148 Eu84 2.848 . S
C148 O128 1.257 . S
C148 O133 1.249 . S
C148 C141 1.492 . S
C149 H114 0.931 . S
C149 C127 1.420 . S
C149 C150 1.351 . S
C150 H112 0.930 . S
C150 C118 1.423 . S
C150 C149 1.351 . S
C151 O135 1.276 . S
C151 O138 1.235 . S
C152 C153 1.393 . S
C152 C156 1.395 . S
C152 C159 1.492 . S
C153 C152 1.393 . S
C153 C154 1.392 1_655 S
C153 H164 0.930 1_655 S
C154 C153 1.392 1_455 S
C154 C155 1.386 . S
C155 C154 1.386 . S
C155 C157 1.395 1_455 S
C155 H165 0.930 . S
C156 C152 1.395 . S
C156 C157 1.379 . S
C156 H166 0.930 . S
C157 C155 1.395 1_655 S
C157 C156 1.379 . S
C157 H167 0.930 . S
C158 O136 1.264 . S
C158 O137 1.254 . S
C159 Eu95 2.848 . S
C159 O134 1.257 . S
C159 O139 1.249 . S
C159 C152 1.492 . S
H160 C143 0.930 . S
H161 C144 0.930 . S
H162 C145 0.930 . S
H163 C146 0.930 . S
H164 C153 0.930 1_455 S
H165 C155 0.930 . S
H166 C156 0.930 . S
H167 C157 0.930 . S
Eu168 N199 2.657 . S
Eu168 N206 2.609 . S
Eu168 O212 2.558 . S
Eu168 O213 2.612 . S
Eu168 O215 2.339 . S
Eu168 O216 2.563 . S
Eu168 O217 2.419 . S
Eu168 O219 2.380 . S
Eu168 O220 2.432 . S
Eu168 C232 2.848 . S
C169 C172 1.429 . S
C169 C173 1.411 . S
C169 N176 1.377 . S
C170 C172 1.420 . S
C170 C174 1.423 . S
C170 C182 1.392 . S
C171 C173 1.420 . S
C171 C174 1.351 . S
C171 H194 0.931 . S
C172 C169 1.429 . S
C172 C170 1.420 . S
C172 N180 1.362 . S
C173 C169 1.411 . S
C173 C171 1.420 . S
C173 C178 1.395 . S
C174 C170 1.423 . S
C174 C171 1.351 . S
C174 H186 0.930 . S
C175 C177 1.400 . S
C175 C178 1.386 . S
C175 H187 0.930 . S
N176 C169 1.377 . S
N176 C177 1.321 . S
N176 Eu179 2.609 . S
C177 C175 1.400 . S
C177 N176 1.321 . S
C177 H184 0.930 . S
C178 C173 1.395 . S
C178 C175 1.386 . S
C178 H197 0.930 . S
Eu179 N176 2.609 . S
Eu179 N180 2.657 . S
Eu179 O213 2.380 . S
Eu179 O214 2.432 . S
Eu179 O218 2.558 . S
Eu179 O219 2.612 . S
Eu179 O221 2.339 . S
Eu179 O222 2.563 . S
Eu179 O223 2.419 . S
Eu179 C243 2.848 . S
N180 C172 1.362 . S
N180 Eu179 2.657 . S
N180 C181 1.334 . S
C181 N180 1.334 . S
C181 C183 1.413 1_565 S
C181 H188 0.929 . S
C182 C170 1.392 . S
C182 C183 1.367 1_565 S
C182 H190 0.930 1_565 S
C183 C181 1.413 1_545 S
C183 C182 1.367 1_545 S
C183 H185 0.930 . S
H184 C177 0.930 . S
H185 C183 0.930 . S
H186 C174 0.930 . S
H187 C175 0.930 . S
H188 C181 0.929 . S
H189 C203 0.930 . S
H190 C182 0.930 1_545 S
H191 C209 0.930 . S
H192 C200 0.929 . S
H193 C207 0.930 . S
H194 C171 0.931 . S
H195 C201 0.930 . S
H196 C234 0.930 . S
H197 C178 0.930 . S
H198 C233 0.931 . S
N199 Eu168 2.657 . S
N199 C200 1.334 . S
N199 C204 1.362 . S
C200 H192 0.929 . S
C200 N199 1.334 . S
C200 C203 1.413 . S
C201 H195 0.930 . S
C201 C202 1.392 . S
C201 C203 1.367 . S
C202 C201 1.392 . S
C202 C204 1.420 . S
C202 C234 1.423 . S
C203 H189 0.930 . S
C203 C200 1.413 . S
C203 C201 1.367 . S
C204 N199 1.362 . S
C204 C202 1.420 . S
C204 C208 1.429 . S
H205 C210 0.930 . S
N206 Eu168 2.609 . S
N206 C208 1.377 . S
N206 C209 1.321 . S
C207 H193 0.930 . S
C207 C209 1.400 . S
C207 C210 1.386 . S
C208 C204 1.429 . S
C208 N206 1.377 . S
C208 C211 1.411 . S
C209 H191 0.930 . S
C209 N206 1.321 . S
C209 C207 1.400 . S
C210 H205 0.930 . S
C210 C207 1.386 . S
C210 C211 1.395 . S
C211 C208 1.411 . S
C211 C210 1.395 . S
C211 C233 1.420 . S
O212 Eu168 2.558 . S
O212 C232 1.257 . S
O213 Eu168 2.612 . S
O213 Eu179 2.380 . S
O213 C224 1.276 . S
O214 Eu179 2.432 . S
O214 C231 1.264 . S
O215 Eu168 2.339 . S
O215 C231 1.254 . S
O216 Eu168 2.563 . S
O216 C224 1.235 . S
O217 Eu168 2.419 . S
O217 C232 1.249 . S
O218 Eu179 2.558 . S
O218 C243 1.257 . S
O219 Eu168 2.380 . S
O219 Eu179 2.612 . S
O219 C235 1.276 . S
O220 Eu168 2.432 . S
O220 C242 1.264 . S
O221 Eu179 2.339 . S
O221 C242 1.254 . S
O222 Eu179 2.563 . S
O222 C235 1.235 . S
O223 Eu179 2.419 . S
O223 C243 1.249 . S
C224 O213 1.276 . S
C224 O216 1.235 . S
C225 C227 1.393 . S
C225 C229 1.395 . S
C225 C232 1.492 . S
C226 C227 1.392 . S
C226 C228 1.386 . S
C227 C225 1.393 . S
C227 C226 1.392 . S
C227 H244 0.930 . S
C228 C226 1.386 . S
C228 C230 1.395 . S
C228 H245 0.930 . S
C229 C225 1.395 . S
C229 C230 1.379 . S
C229 H246 0.930 . S
C230 C228 1.395 . S
C230 C229 1.379 . S
C230 H247 0.930 . S
C231 O214 1.264 . S
C231 O215 1.254 . S
C232 Eu168 2.848 . S
C232 O212 1.257 . S
C232 O217 1.249 . S
C232 C225 1.492 . S
C233 H198 0.931 . S
C233 C211 1.420 . S
C233 C234 1.351 . S
C234 H196 0.930 . S
C234 C202 1.423 . S
C234 C233 1.351 . S
C235 O219 1.276 . S
C235 O222 1.235 . S
C236 C237 1.393 . S
C236 C240 1.395 . S
C236 C243 1.492 . S
C237 C236 1.393 . S
C237 C238 1.392 1_565 S
C237 H248 0.930 1_565 S
C238 C237 1.392 1_545 S
C238 C239 1.386 . S
C239 C238 1.386 . S
C239 C241 1.395 1_545 S
C239 H249 0.930 . S
C240 C236 1.395 . S
C240 C241 1.379 . S
C240 H250 0.930 . S
C241 C239 1.395 1_565 S
C241 C240 1.379 . S
C241 H251 0.930 . S
C242 O220 1.264 . S
C242 O221 1.254 . S
C243 Eu179 2.848 . S
C243 O218 1.257 . S
C243 O223 1.249 . S
C243 C236 1.492 . S
H244 C227 0.930 . S
H245 C228 0.930 . S
H246 C229 0.930 . S
H247 C230 0.930 . S
H248 C237 0.930 1_545 S
H249 C239 0.930 . S
H250 C240 0.930 . S
H251 C241 0.930 . S
Eu252 N283 2.657 . S
Eu252 N290 2.609 . S
Eu252 O296 2.558 . S
Eu252 O297 2.612 . S
Eu252 O299 2.339 . S
Eu252 O300 2.563 . S
Eu252 O301 2.419 . S
Eu252 O303 2.380 1_554 S
Eu252 O304 2.432 . S
Eu252 C316 2.848 . S
C253 C256 1.429 . S
C253 C257 1.411 1_655 S
C253 N260 1.377 1_554 S
C254 C256 1.420 . S
C254 C258 1.423 1_655 S
C254 C266 1.392 . S
C255 C257 1.420 . S
C255 C258 1.351 . S
C255 H278 0.931 . S
C256 C253 1.429 . S
C256 C254 1.420 . S
C256 N264 1.362 . S
C257 C253 1.411 1_455 S
C257 C255 1.420 . S
C257 C262 1.395 1_554 S
C258 C254 1.423 1_455 S
C258 C255 1.351 . S
C258 H270 0.930 . S
C259 C261 1.400 . S
C259 C262 1.386 . S
C259 H271 0.930 . S
N260 C253 1.377 1_556 S
N260 C261 1.321 1_655 S
N260 Eu263 2.609 . S
C261 C259 1.400 . S
C261 N260 1.321 1_455 S
C261 H268 0.930 1_455 S
C262 C257 1.395 1_556 S
C262 C259 1.386 . S
C262 H281 0.930 . S
Eu263 N260 2.609 . S
Eu263 N264 2.657 1_556 S
Eu263 O297 2.380 1_556 S
Eu263 O298 2.432 . S
Eu263 O302 2.558 . S
Eu263 O303 2.612 . S
Eu263 O305 2.339 1_556 S
Eu263 O306 2.563 . S
Eu263 O307 2.419 . S
Eu263 C327 2.848 . S
N264 C256 1.362 . S
N264 Eu263 2.657 1_554 S
N264 C265 1.334 . S
C265 N264 1.334 . S
C265 C267 1.413 . S
C265 H272 0.929 . S
C266 C254 1.392 . S
C266 C267 1.367 . S
C266 H274 0.930 . S
C267 C265 1.413 . S
C267 C266 1.367 . S
C267 H269 0.930 . S
H268 C261 0.930 1_655 S
H269 C267 0.930 . S
H270 C258 0.930 . S
H271 C259 0.930 . S
H272 C265 0.929 . S
H273 C287 0.930 . S
H274 C266 0.930 . S
H275 C293 0.930 . S
H276 C284 0.929 . S
H277 C291 0.930 . S
H278 C255 0.931 . S
H279 C285 0.930 . S
H280 C318 0.930 . S
H281 C262 0.930 . S
H282 C317 0.931 . S
N283 Eu252 2.657 . S
N283 C284 1.334 1_554 S
N283 C288 1.362 . S
C284 H276 0.929 . S
C284 N283 1.334 1_556 S
C284 C287 1.413 . S
C285 H279 0.930 . S
C285 C286 1.392 . S
C285 C287 1.367 . S
C286 C285 1.392 . S
C286 C288 1.420 1_556 S
C286 C318 1.423 . S
C287 H273 0.930 . S
C287 C284 1.413 . S
C287 C285 1.367 . S
C288 N283 1.362 . S
C288 C286 1.420 1_554 S
C288 C292 1.429 . S
H289 C294 0.930 . S
N290 Eu252 2.609 . S
N290 C292 1.377 . S
N290 C293 1.321 . S
C291 H277 0.930 . S
C291 C293 1.400 . S
C291 C294 1.386 . S
C292 C288 1.429 . S
C292 N290 1.377 . S
C292 C295 1.411 . S
C293 H275 0.930 . S
C293 N290 1.321 . S
C293 C291 1.400 . S
C294 H289 0.930 . S
C294 C291 1.386 . S
C294 C295 1.395 . S
C295 C292 1.411 . S
C295 C294 1.395 . S
C295 C317 1.420 . S
O296 Eu252 2.558 . S
O296 C316 1.257 . S
O297 Eu252 2.612 . S
O297 Eu263 2.380 1_554 S
O297 C308 1.276 . S
O298 Eu263 2.432 . S
O298 C315 1.264 1_556 S
O299 Eu252 2.339 . S
O299 C315 1.254 . S
O300 Eu252 2.563 . S
O300 C308 1.235 . S
O301 Eu252 2.419 . S
O301 C316 1.249 . S
O302 Eu263 2.558 . S
O302 C327 1.257 . S
O303 Eu252 2.380 1_556 S
O303 Eu263 2.612 . S
O303 C319 1.276 . S
O304 Eu252 2.432 . S
O304 C326 1.264 . S
O305 Eu263 2.339 1_554 S
O305 C326 1.254 . S
O306 Eu263 2.563 . S
O306 C319 1.235 . S
O307 Eu263 2.419 . S
O307 C327 1.249 . S
C308 O297 1.276 . S
C308 O300 1.235 . S
C309 C311 1.393 . S
C309 C313 1.395 . S
C309 C316 1.492 . S
C310 C311 1.392 . S
C310 C312 1.386 . S
C311 C309 1.393 . S
C311 C310 1.392 . S
C311 H328 0.930 . S
C312 C310 1.386 . S
C312 C314 1.395 . S
C312 H329 0.930 . S
C313 C309 1.395 . S
C313 C314 1.379 . S
C313 H330 0.930 . S
C314 C312 1.395 . S
C314 C313 1.379 . S
C314 H331 0.930 . S
C315 O298 1.264 1_554 S
C315 O299 1.254 . S
C316 Eu252 2.848 . S
C316 O296 1.257 . S
C316 O301 1.249 . S
C316 C309 1.492 . S
C317 H282 0.931 . S
C317 C295 1.420 . S
C317 C318 1.351 1_554 S
C318 H280 0.930 . S
C318 C286 1.423 . S
C318 C317 1.351 1_556 S
C319 O303 1.276 . S
C319 O306 1.235 . S
C320 C321 1.393 . S
C320 C324 1.395 . S
C320 C327 1.492 . S
C321 C320 1.393 . S
C321 C322 1.392 . S
C321 H332 0.930 . S
C322 C321 1.392 . S
C322 C323 1.386 . S
C323 C322 1.386 . S
C323 C325 1.395 . S
C323 H333 0.930 . S
C324 C320 1.395 . S
C324 C325 1.379 . S
C324 H334 0.930 . S
C325 C323 1.395 . S
C325 C324 1.379 . S
C325 H335 0.930 . S
C326 O304 1.264 . S
C326 O305 1.254 . S
C327 Eu263 2.848 . S
C327 O302 1.257 . S
C327 O307 1.249 . S
C327 C320 1.492 . S
H328 C311 0.930 . S
H329 C312 0.930 . S
H330 C313 0.930 . S
H331 C314 0.930 . S
H332 C321 0.930 . S
H333 C323 0.930 . S
H334 C324 0.930 . S
H335 C325 0.930 . S
Eu336 N367 2.657 . S
Eu336 N374 2.609 . S
Eu336 O380 2.558 . S
Eu336 O381 2.612 . S
Eu336 O383 2.339 . S
Eu336 O384 2.563 . S
Eu336 O385 2.419 . S
Eu336 O387 2.380 . S
Eu336 O388 2.432 . S
Eu336 C400 2.848 . S
C337 C340 1.429 . S
C337 C341 1.411 1_565 S
C337 N344 1.377 . S
C338 C340 1.420 . S
C338 C342 1.423 1_565 S
C338 C350 1.392 . S
C339 C341 1.420 . S
C339 C342 1.351 . S
C339 H362 0.931 . S
C340 C337 1.429 . S
C340 C338 1.420 . S
C340 N348 1.362 . S
C341 C337 1.411 1_545 S
C341 C339 1.420 . S
C341 C346 1.395 . S
C342 C338 1.423 1_545 S
C342 C339 1.351 . S
C342 H354 0.930 . S
C343 C345 1.400 . S
C343 C346 1.386 . S
C343 H355 0.930 . S
N344 C337 1.377 . S
N344 C345 1.321 1_565 S
N344 Eu347 2.609 . S
C345 C343 1.400 . S
C345 N344 1.321 1_545 S
C345 H352 0.930 1_545 S
C346 C341 1.395 . S
C346 C343 1.386 . S
C346 H365 0.930 . S
Eu347 N344 2.609 . S
Eu347 N348 2.657 . S
Eu347 O381 2.380 . S
Eu347 O382 2.432 . S
Eu347 O386 2.558 . S
Eu347 O387 2.612 . S
Eu347 O389 2.339 . S
Eu347 O390 2.563 . S
Eu347 O391 2.419 . S
Eu347 C411 2.848 . S
N348 C340 1.362 . S
N348 Eu347 2.657 . S
N348 C349 1.334 . S
C349 N348 1.334 . S
C349 C351 1.413 1_455 S
C349 H356 0.929 . S
C350 C338 1.392 . S
C350 C351 1.367 1_455 S
C350 H358 0.930 1_455 S
C351 C349 1.413 1_655 S
C351 C350 1.367 1_655 S
C351 H353 0.930 . S
H352 C345 0.930 1_565 S
H353 C351 0.930 . S
H354 C342 0.930 . S
H355 C343 0.930 . S
H356 C349 0.929 . S
H357 C371 0.930 . S
H358 C350 0.930 1_655 S
H359 C377 0.930 . S
H360 C368 0.929 . S
H361 C375 0.930 . S
H362 C339 0.931 . S
H363 C369 0.930 . S
H364 C402 0.930 . S
H365 C346 0.930 . S
H366 C401 0.931 . S
N367 Eu336 2.657 . S
N367 C368 1.334 . S
N367 C372 1.362 . S
C368 H360 0.929 . S
C368 N367 1.334 . S
C368 C371 1.413 . S
C369 H363 0.930 . S
C369 C370 1.392 . S
C369 C371 1.367 . S
C370 C369 1.392 . S
C370 C372 1.420 . S
C370 C402 1.423 . S
C371 H357 0.930 . S
C371 C368 1.413 . S
C371 C369 1.367 . S
C372 N367 1.362 . S
C372 C370 1.420 . S
C372 C376 1.429 . S
H373 C378 0.930 . S
N374 Eu336 2.609 . S
N374 C376 1.377 . S
N374 C377 1.321 . S
C375 H361 0.930 . S
C375 C377 1.400 . S
C375 C378 1.386 . S
C376 C372 1.429 . S
C376 N374 1.377 . S
C376 C379 1.411 . S
C377 H359 0.930 . S
C377 N374 1.321 . S
C377 C375 1.400 . S
C378 H373 0.930 . S
C378 C375 1.386 . S
C378 C379 1.395 . S
C379 C376 1.411 . S
C379 C378 1.395 . S
C379 C401 1.420 . S
O380 Eu336 2.558 . S
O380 C400 1.257 . S
O381 Eu336 2.612 . S
O381 Eu347 2.380 . S
O381 C392 1.276 . S
O382 Eu347 2.432 . S
O382 C399 1.264 . S
O383 Eu336 2.339 . S
O383 C399 1.254 . S
O384 Eu336 2.563 . S
O384 C392 1.235 . S
O385 Eu336 2.419 . S
O385 C400 1.249 . S
O386 Eu347 2.558 . S
O386 C411 1.257 . S
O387 Eu336 2.380 . S
O387 Eu347 2.612 . S
O387 C403 1.276 . S
O388 Eu336 2.432 . S
O388 C410 1.264 . S
O389 Eu347 2.339 . S
O389 C410 1.254 . S
O390 Eu347 2.563 . S
O390 C403 1.235 . S
O391 Eu347 2.419 . S
O391 C411 1.249 . S
C392 O381 1.276 . S
C392 O384 1.235 . S
C393 C395 1.393 . S
C393 C397 1.395 . S
C393 C400 1.492 . S
C394 C395 1.392 . S
C394 C396 1.386 . S
C395 C393 1.393 . S
C395 C394 1.392 . S
C395 H412 0.930 . S
C396 C394 1.386 . S
C396 C398 1.395 . S
C396 H413 0.930 . S
C397 C393 1.395 . S
C397 C398 1.379 . S
C397 H414 0.930 . S
C398 C396 1.395 . S
C398 C397 1.379 . S
C398 H415 0.930 . S
C399 O382 1.264 . S
C399 O383 1.254 . S
C400 Eu336 2.848 . S
C400 O380 1.257 . S
C400 O385 1.249 . S
C400 C393 1.492 . S
C401 H366 0.931 . S
C401 C379 1.420 . S
C401 C402 1.351 . S
C402 H364 0.930 . S
C402 C370 1.423 . S
C402 C401 1.351 . S
C403 O387 1.276 . S
C403 O390 1.235 . S
C404 C405 1.393 . S
C404 C408 1.395 . S
C404 C411 1.492 . S
C405 C404 1.393 . S
C405 C406 1.392 1_455 S
C405 H416 0.930 1_455 S
C406 C405 1.392 1_655 S
C406 C407 1.386 . S
C407 C406 1.386 . S
C407 C409 1.395 1_655 S
C407 H417 0.930 . S
C408 C404 1.395 . S
C408 C409 1.379 . S
C408 H418 0.930 . S
C409 C407 1.395 1_455 S
C409 C408 1.379 . S
C409 H419 0.930 . S
C410 O388 1.264 . S
C410 O389 1.254 . S
C411 Eu347 2.848 . S
C411 O386 1.257 . S
C411 O391 1.249 . S
C411 C404 1.492 . S
H412 C395 0.930 . S
H413 C396 0.930 . S
H414 C397 0.930 . S
H415 C398 0.930 . S
H416 C405 0.930 1_655 S
H417 C407 0.930 . S
H418 C408 0.930 . S
H419 C409 0.930 . S
Eu420 N451 2.657 . S
Eu420 N458 2.609 . S
Eu420 O464 2.558 . S
Eu420 O465 2.612 . S
Eu420 O467 2.339 . S
Eu420 O468 2.563 . S
Eu420 O469 2.419 . S
Eu420 O471 2.380 . S
Eu420 O472 2.432 . S
Eu420 C484 2.848 . S
C421 C424 1.429 . S
C421 C425 1.411 . S
C421 N428 1.377 . S
C422 C424 1.420 . S
C422 C426 1.423 . S
C422 C434 1.392 . S
C423 C425 1.420 . S
C423 C426 1.351 . S
C423 H446 0.931 . S
C424 C421 1.429 . S
C424 C422 1.420 . S
C424 N432 1.362 . S
C425 C421 1.411 . S
C425 C423 1.420 . S
C425 C430 1.395 . S
C426 C422 1.423 . S
C426 C423 1.351 . S
C426 H438 0.930 . S
C427 C429 1.400 . S
C427 C430 1.386 . S
C427 H439 0.930 . S
N428 C421 1.377 . S
N428 C429 1.321 . S
N428 Eu431 2.609 . S
C429 C427 1.400 . S
C429 N428 1.321 . S
C429 H436 0.930 . S
C430 C425 1.395 . S
C430 C427 1.386 . S
C430 H449 0.930 . S
Eu431 N428 2.609 . S
Eu431 N432 2.657 . S
Eu431 O465 2.380 . S
Eu431 O466 2.432 . S
Eu431 O470 2.558 . S
Eu431 O471 2.612 . S
Eu431 O473 2.339 . S
Eu431 O474 2.563 . S
Eu431 O475 2.419 . S
Eu431 C495 2.848 . S
N432 C424 1.362 . S
N432 Eu431 2.657 . S
N432 C433 1.334 . S
C433 N432 1.334 . S
C433 C435 1.413 1_545 S
C433 H440 0.929 . S
C434 C422 1.392 . S
C434 C435 1.367 1_545 S
C434 H442 0.930 1_545 S
C435 C433 1.413 1_565 S
C435 C434 1.367 1_565 S
C435 H437 0.930 . S
H436 C429 0.930 . S
H437 C435 0.930 . S
H438 C426 0.930 . S
H439 C427 0.930 . S
H440 C433 0.929 . S
H441 C455 0.930 . S
H442 C434 0.930 1_565 S
H443 C461 0.930 . S
H444 C452 0.929 . S
H445 C459 0.930 . S
H446 C423 0.931 . S
H447 C453 0.930 . S
H448 C486 0.930 . S
H449 C430 0.930 . S
H450 C485 0.931 . S
N451 Eu420 2.657 . S
N451 C452 1.334 . S
N451 C456 1.362 . S
C452 H444 0.929 . S
C452 N451 1.334 . S
C452 C455 1.413 . S
C453 H447 0.930 . S
C453 C454 1.392 . S
C453 C455 1.367 . S
C454 C453 1.392 . S
C454 C456 1.420 . S
C454 C486 1.423 . S
C455 H441 0.930 . S
C455 C452 1.413 . S
C455 C453 1.367 . S
C456 N451 1.362 . S
C456 C454 1.420 . S
C456 C460 1.429 . S
H457 C462 0.930 . S
N458 Eu420 2.609 . S
N458 C460 1.377 . S
N458 C461 1.321 . S
C459 H445 0.930 . S
C459 C461 1.400 . S
C459 C462 1.386 . S
C460 C456 1.429 . S
C460 N458 1.377 . S
C460 C463 1.411 . S
C461 H443 0.930 . S
C461 N458 1.321 . S
C461 C459 1.400 . S
C462 H457 0.930 . S
C462 C459 1.386 . S
C462 C463 1.395 . S
C463 C460 1.411 . S
C463 C462 1.395 . S
C463 C485 1.420 . S
O464 Eu420 2.558 . S
O464 C484 1.257 . S
O465 Eu420 2.612 . S
O465 Eu431 2.380 . S
O465 C476 1.276 . S
O466 Eu431 2.432 . S
O466 C483 1.264 . S
O467 Eu420 2.339 . S
O467 C483 1.254 . S
O468 Eu420 2.563 . S
O468 C476 1.235 . S
O469 Eu420 2.419 . S
O469 C484 1.249 . S
O470 Eu431 2.558 . S
O470 C495 1.257 . S
O471 Eu420 2.380 . S
O471 Eu431 2.612 . S
O471 C487 1.276 . S
O472 Eu420 2.432 . S
O472 C494 1.264 . S
O473 Eu431 2.339 . S
O473 C494 1.254 . S
O474 Eu431 2.563 . S
O474 C487 1.235 . S
O475 Eu431 2.419 . S
O475 C495 1.249 . S
C476 O465 1.276 . S
C476 O468 1.235 . S
C477 C479 1.393 . S
C477 C481 1.395 . S
C477 C484 1.492 . S
C478 C479 1.392 . S
C478 C480 1.386 . S
C479 C477 1.393 . S
C479 C478 1.392 . S
C479 H496 0.930 . S
C480 C478 1.386 . S
C480 C482 1.395 . S
C480 H497 0.930 . S
C481 C477 1.395 . S
C481 C482 1.379 . S
C481 H498 0.930 . S
C482 C480 1.395 . S
C482 C481 1.379 . S
C482 H499 0.930 . S
C483 O466 1.264 . S
C483 O467 1.254 . S
C484 Eu420 2.848 . S
C484 O464 1.257 . S
C484 O469 1.249 . S
C484 C477 1.492 . S
C485 H450 0.931 . S
C485 C463 1.420 . S
C485 C486 1.351 . S
C486 H448 0.930 . S
C486 C454 1.423 . S
C486 C485 1.351 . S
C487 O471 1.276 . S
C487 O474 1.235 . S
C488 C489 1.393 . S
C488 C492 1.395 . S
C488 C495 1.492 . S
C489 C488 1.393 . S
C489 C490 1.392 1_545 S
C489 H500 0.930 1_545 S
C490 C489 1.392 1_565 S
C490 C491 1.386 . S
C491 C490 1.386 . S
C491 C493 1.395 1_565 S
C491 H501 0.930 . S
C492 C488 1.395 . S
C492 C493 1.379 . S
C492 H502 0.930 . S
C493 C491 1.395 1_545 S
C493 C492 1.379 . S
C493 H503 0.930 . S
C494 O472 1.264 . S
C494 O473 1.254 . S
C495 Eu431 2.848 . S
C495 O470 1.257 . S
C495 O475 1.249 . S
C495 C488 1.492 . S
H496 C479 0.930 . S
H497 C480 0.930 . S
H498 C481 0.930 . S
H499 C482 0.930 . S
H500 C489 0.930 1_565 S
H501 C491 0.930 . S
H502 C492 0.930 . S
H503 C493 0.930 . S
C504 C505 1.387 . S
C504 H508 0.950 . S
C504 C513 1.390 . S
C505 C504 1.387 . S
C505 C507 1.387 . S
H506 C513 0.950 . S
C507 C505 1.387 . S
C507 C509 1.390 . S
C507 H511 0.950 . S
H508 C504 0.950 . S
C509 C507 1.390 . S
C509 C510 1.387 . S
C509 H512 0.950 . S
C510 C509 1.387 . S
C510 C513 1.387 . S
H511 C507 0.950 . S
H512 C509 0.950 . S
C513 C504 1.390 . S
C513 H506 0.950 . S
C513 C510 1.387 . S
C514 C515 1.387 . S
C514 H518 0.950 . S
C514 C523 1.390 . S
C515 C514 1.387 . S
C515 C517 1.387 . S
H516 C523 0.950 . S
C517 C515 1.387 . S
C517 C519 1.390 . S
C517 H521 0.950 . S
H518 C514 0.950 . S
C519 C517 1.390 . S
C519 C520 1.387 . S
C519 H522 0.950 . S
C520 C519 1.387 . S
C520 C523 1.387 . S
H521 C517 0.950 . S
H522 C519 0.950 . S
C523 C514 1.390 . S
C523 H516 0.950 . S
C523 C520 1.387 . S
C524 C525 1.387 . S
C524 H528 0.950 . S
C524 C533 1.390 . S
C525 C524 1.387 . S
C525 C527 1.387 . S
H526 C533 0.950 . S
C527 C525 1.387 . S
C527 C529 1.390 . S
C527 H531 0.950 . S
H528 C524 0.950 . S
C529 C527 1.390 . S
C529 C530 1.387 . S
C529 H532 0.950 . S
C530 C529 1.387 . S
C530 C533 1.387 . S
H531 C527 0.950 . S
H532 C529 0.950 . S
C533 C524 1.390 . S
C533 H526 0.950 . S
C533 C530 1.387 . S
C534 C535 1.387 . S
C534 H538 0.950 . S
C534 C543 1.390 . S
C535 C534 1.387 . S
C535 C537 1.387 . S
H536 C543 0.950 . S
C537 C535 1.387 . S
C537 C539 1.390 . S
C537 H541 0.950 . S
H538 C534 0.950 . S
C539 C537 1.390 . S
C539 C540 1.387 . S
C539 H542 0.950 . S
C540 C539 1.387 . S
C540 C543 1.387 . S
H541 C537 0.950 . S
H542 C539 0.950 . S
C543 C534 1.390 . S
C543 H536 0.950 . S
C543 C540 1.387 . S
C544 C545 1.387 . S
C544 H548 0.950 . S
C544 C553 1.390 . S
C545 C544 1.387 . S
C545 C547 1.387 . S
H546 C553 0.950 . S
C547 C545 1.387 . S
C547 C549 1.390 . S
C547 H551 0.950 . S
H548 C544 0.950 . S
C549 C547 1.390 . S
C549 C550 1.387 . S
C549 H552 0.950 . S
C550 C549 1.387 . S
C550 C553 1.387 . S
H551 C547 0.950 . S
H552 C549 0.950 . S
C553 C544 1.390 . S
C553 H546 0.950 . S
C553 C550 1.387 . S
C554 C555 1.387 . S
C554 H558 0.950 . S
C554 C563 1.390 . S
C555 C554 1.387 . S
C555 C557 1.387 . S
H556 C563 0.950 . S
C557 C555 1.387 . S
C557 C559 1.390 . S
C557 H561 0.950 . S
H558 C554 0.950 . S
C559 C557 1.390 . S
C559 C560 1.387 . S
C559 H562 0.950 . S
C560 C559 1.387 . S
C560 C563 1.387 . S
H561 C557 0.950 . S
H562 C559 0.950 . S
C563 C554 1.390 . S
C563 H556 0.950 . S
C563 C560 1.387 . S
C564 C565 1.387 . S
C564 H568 0.950 . S
C564 C573 1.390 . S
C565 C564 1.387 . S
C565 C567 1.387 1_554 S
H566 C573 0.950 . S
C567 C565 1.387 1_556 S
C567 C569 1.390 . S
C567 H571 0.950 . S
H568 C564 0.950 . S
C569 C567 1.390 . S
C569 C570 1.387 1_556 S
C569 H572 0.950 . S
C570 C569 1.387 1_554 S
C570 C573 1.387 . S
H571 C567 0.950 . S
H572 C569 0.950 . S
C573 C564 1.390 . S
C573 H566 0.950 . S
C573 C570 1.387 . S
C574 C575 1.387 . S
C574 H578 0.950 . S
C574 C583 1.390 1_455 S
C575 C574 1.387 . S
C575 C577 1.387 . S
H576 C583 0.950 . S
C577 C575 1.387 . S
C577 C579 1.390 1_455 S
C577 H581 0.950 . S
H578 C574 0.950 . S
C579 C577 1.390 1_655 S
C579 C580 1.387 . S
C579 H582 0.950 . S
C580 C579 1.387 . S
C580 C583 1.387 . S
H581 C577 0.950 . S
H582 C579 0.950 . S
C583 C574 1.390 1_655 S
C583 H576 0.950 . S
C583 C580 1.387 . S
C584 C585 1.387 . S
C584 H588 0.950 . S
C584 C593 1.390 1_545 S
C585 C584 1.387 . S
C585 C587 1.387 . S
H586 C593 0.950 . S
C587 C585 1.387 . S
C587 C589 1.390 1_545 S
C587 H591 0.950 . S
H588 C584 0.950 . S
C589 C587 1.390 1_565 S
C589 C590 1.387 . S
C589 H592 0.950 . S
C590 C589 1.387 . S
C590 C593 1.387 . S
H591 C587 0.950 . S
H592 C589 0.950 . S
C593 C584 1.390 1_565 S
C593 H586 0.950 . S
C593 C590 1.387 . S
C594 C595 1.387 . S
C594 H598 0.950 . S
C594 C603 1.390 . S
C595 C594 1.387 . S
C595 C597 1.387 . S
H596 C603 0.950 . S
C597 C595 1.387 . S
C597 C599 1.390 . S
C597 H601 0.950 . S
H598 C594 0.950 . S
C599 C597 1.390 . S
C599 C600 1.387 . S
C599 H602 0.950 . S
C600 C599 1.387 . S
C600 C603 1.387 . S
H601 C597 0.950 . S
H602 C599 0.950 . S
C603 C594 1.390 . S
C603 H596 0.950 . S
C603 C600 1.387 . S
C604 C605 1.387 1_556 S
C604 H608 0.950 . S
C604 C613 1.390 1_455 S
C605 C604 1.387 1_554 S
C605 C607 1.387 . S
H606 C613 0.950 . S
C607 C605 1.387 . S
C607 C609 1.390 1_455 S
C607 H611 0.950 . S
H608 C604 0.950 . S
C609 C607 1.390 1_655 S
C609 C610 1.387 . S
C609 H612 0.950 . S
C610 C609 1.387 . S
C610 C613 1.387 1_554 S
H611 C607 0.950 . S
H612 C609 0.950 . S
C613 C604 1.390 1_655 S
C613 H606 0.950 . S
C613 C610 1.387 1_556 S
C614 C615 1.387 . S
C614 H618 0.950 . S
C614 C623 1.390 1_565 S
C615 C614 1.387 . S
C615 C617 1.387 . S
H616 C623 0.950 . S
C617 C615 1.387 . S
C617 C619 1.390 1_565 S
C617 H621 0.950 . S
H618 C614 0.950 . S
C619 C617 1.390 1_545 S
C619 C620 1.387 . S
C619 H622 0.950 . S
C620 C619 1.387 . S
C620 C623 1.387 . S
H621 C617 0.950 . S
H622 C619 0.950 . S
C623 C614 1.390 1_545 S
C623 H616 0.950 . S
C623 C620 1.387 . S
C624 C625 1.387 . S
C624 H628 0.950 . S
C624 C633 1.390 . S
C625 C624 1.387 . S
C625 C627 1.387 . S
H626 C633 0.950 . S
C627 C625 1.387 . S
C627 C629 1.390 . S
C627 H631 0.950 . S
H628 C624 0.950 . S
C629 C627 1.390 . S
C629 C630 1.387 . S
C629 H632 0.950 . S
C630 C629 1.387 . S
C630 C633 1.387 . S
H631 C627 0.950 . S
H632 C629 0.950 . S
C633 C624 1.390 . S
C633 H626 0.950 . S
C633 C630 1.387 . S
C634 C635 1.387 . S
C634 H638 0.950 1_455 S
C634 C643 1.390 . S
C635 C634 1.387 . S
C635 C637 1.387 . S
H636 C643 0.950 . S
C637 C635 1.387 . S
C637 C639 1.390 . S
C637 H641 0.950 . S
H638 C634 0.950 1_655 S
C639 C637 1.390 . S
C639 C640 1.387 . S
C639 H642 0.950 . S
C640 C639 1.387 . S
C640 C643 1.387 . S
H641 C637 0.950 . S
H642 C639 0.950 . S
C643 C634 1.390 . S
C643 H636 0.950 . S
C643 C640 1.387 . S
C644 C645 1.387 . S
C644 H648 0.950 . S
C644 C653 1.390 . S
C645 C644 1.387 . S
C645 C647 1.387 . S
H646 C653 0.950 . S
C647 C645 1.387 . S
C647 C649 1.390 . S
C647 H651 0.950 . S
H648 C644 0.950 . S
C649 C647 1.390 . S
C649 C650 1.387 . S
C649 H652 0.950 . S
C650 C649 1.387 . S
C650 C653 1.387 . S
H651 C647 0.950 . S
H652 C649 0.950 . S
C653 C644 1.390 . S
C653 H646 0.950 . S
C653 C650 1.387 . S
C654 C655 1.387 . S
C654 H658 0.950 . S
C654 C663 1.390 . S
C655 C654 1.387 . S
C655 C657 1.387 . S
H656 C663 0.950 . S
C657 C655 1.387 . S
C657 C659 1.390 . S
C657 H661 0.950 . S
H658 C654 0.950 . S
C659 C657 1.390 . S
C659 C660 1.387 . S
C659 H662 0.950 . S
C660 C659 1.387 . S
C660 C663 1.387 . S
H661 C657 0.950 . S
H662 C659 0.950 . S
C663 C654 1.390 . S
C663 H656 0.950 . S
C663 C660 1.387 . S
C664 C665 1.387 . S
C664 H668 0.950 . S
C664 C673 1.390 . S
C665 C664 1.387 . S
C665 C667 1.387 . S
H666 C673 0.950 . S
C667 C665 1.387 . S
C667 C669 1.390 . S
C667 H671 0.950 1_655 S
H668 C664 0.950 . S
C669 C667 1.390 . S
C669 C670 1.387 . S
C669 H672 0.950 . S
C670 C669 1.387 . S
C670 C673 1.387 . S
H671 C667 0.950 1_455 S
H672 C669 0.950 . S
C673 C664 1.390 . S
C673 H666 0.950 . S
C673 C670 1.387 . S
C674 C675 1.387 . S
C674 H678 0.950 . S
C674 C683 1.390 . S
C675 C674 1.387 . S
C675 C677 1.387 . S
H676 C683 0.950 . S
C677 C675 1.387 . S
C677 C679 1.390 . S
C677 H681 0.950 . S
H678 C674 0.950 . S
C679 C677 1.390 . S
C679 C680 1.387 . S
C679 H682 0.950 . S
C680 C679 1.387 . S
C680 C683 1.387 . S
H681 C677 0.950 . S
H682 C679 0.950 . S
C683 C674 1.390 . S
C683 H676 0.950 . S
C683 C680 1.387 . S
C505 C403 1.188 . S
C510 C58 1.057 . S
C515 C487 1.193 . S
C520 C142 1.057 . S
C525 C67 1.193 . S
C530 C226 1.060 . S
C535 C151 1.188 . S
C540 C310 1.057 . S
C545 C235 1.188 . S
C550 C394 1.058 . S
C555 C319 1.191 . S
C560 C478 1.053 . S
C565 C74 2.029 . S
C570 C326 2.029 . S
C575 C410 2.030 . S
C580 C158 2.030 . S
C585 C494 2.030 . S
C590 C242 2.030 . S
C595 C231 1.940 . S
C600 C483 1.940 . S
C605 C63 1.939 . S
C610 C315 1.939 . S
C615 C399 1.941 . S
C620 C147 1.941 . S
C625 C476 1.292 . S
C630 C70 1.283 . S
C635 C154 1.285 . S
C640 C56 1.293 . S
C645 C238 1.287 . S
C650 C140 1.295 . S
C655 C224 1.296 . S
C660 C322 1.288 . S
C665 C406 1.286 . S
C670 C308 1.294 . S
C675 C490 1.287 . S
C680 C392 1.295 . S
