# Generated by pormake.
# Topology sxb, (6)-cn, num edge types: 1
# Building blocks:
#     Node 0, Type 0, BuildingBlock: GEDQOX_clean_sbu_0, # of connection points: 6
#     Node 1, Type 0, BuildingBlock: GEDQOX_clean_sbu_0, # of connection points: 6
#     Node 2, Type 0, BuildingBlock: GEDQOX_clean_sbu_0, # of connection points: 6
#     Node 3, Type 0, BuildingBlock: GEDQOX_clean_sbu_0, # of connection points: 6
#     Edge 4, Type (0, 0), BuildingBlock: TEMPAE_clean_linker_10, # of connection points: 2
#     Edge 5, Type (0, 0), BuildingBlock: TEMPAE_clean_linker_10, # of connection points: 2
#     Edge 6, Type (0, 0), BuildingBlock: TEMPAE_clean_linker_10, # of connection points: 2
#     Edge 7, Type (0, 0), BuildingBlock: TEMPAE_clean_linker_10, # of connection points: 2
#     Edge 8, Type (0, 0), BuildingBlock: TEMPAE_clean_linker_10, # of connection points: 2
#     Edge 9, Type (0, 0), BuildingBlock: TEMPAE_clean_linker_10, # of connection points: 2
#     Edge 10, Type (0, 0), BuildingBlock: TEMPAE_clean_linker_10, # of connection points: 2
#     Edge 11, Type (0, 0), BuildingBlock: TEMPAE_clean_linker_10, # of connection points: 2
#     Edge 12, Type (0, 0), BuildingBlock: TEMPAE_clean_linker_10, # of connection points: 2
#     Edge 13, Type (0, 0), BuildingBlock: TEMPAE_clean_linker_10, # of connection points: 2
#     Edge 14, Type (0, 0), BuildingBlock: TEMPAE_clean_linker_10, # of connection points: 2
#     Edge 15, Type (0, 0), BuildingBlock: TEMPAE_clean_linker_10, # of connection points: 2
# Relax obj value: 0.394
# Max RMSD: 0.132
# Mean RMSD: 0.082
data_MOF--net-sxb--node1-GEDQOX_clean_sbu_0--edge1-TEMPAE_clean_linker_10
_symmetry_space_group_name_H-M    P1
_symmetry_Int_Tables_number       1
_symmetry_cell_setting            triclinic
loop_
_symmetry_equiv_pos_as_xyz
'x, y, z'
_cell_length_a     17.42232
_cell_length_b     35.424942
_cell_length_c     30.961618
_cell_angle_alpha  88.78736
_cell_angle_beta   94.867405
_cell_angle_gamma 111.95101
loop_
_atom_site_label
_atom_site_type_symbol
_atom_site_fract_x
_atom_site_fract_y
_atom_site_fract_z
_atom_type_partial_charge
Nd0 Nd 0.2341 0.10981 0.9659 0.0
Nd1 Nd 1.16371 1.02991 0.95759 0.0
C2 C 0.28121 0.18712 -0.01071 0.0
C3 C 0.23943 0.21585 -0.00913 0.0
C4 C 0.26567 0.24623 0.02307 0.0
C5 C 0.22108 0.27129 0.02743 0.0
C6 C 1.1501 0.26622 -0.00058 0.0
C7 C 1.12499 0.23619 0.9667 0.0
C8 C 1.16916 0.21106 0.96256 0.0
C9 C 0.22328 0.08817 0.87888 0.0
C10 C 1.01704 0.06975 0.96116 0.0
C11 C 1.11847 0.95417 0.92904 0.0
C12 C 1.15946 0.9356 0.90156 0.0
C13 C 0.23026 0.96036 0.88168 0.0
C14 C 0.27704 0.94302 0.86078 0.0
C15 C 0.25271 0.90048 0.85851 0.0
C16 C 1.17723 0.87584 0.87509 0.0
C17 C 1.13154 0.89331 0.89698 0.0
C18 C 1.17286 1.05081 0.04469 0.0
C19 C 0.38011 0.07026 0.96346 0.0
O20 O 0.25753 0.15708 0.0164 0.0
O21 O 0.28887 0.1754 0.9508 0.0
O22 O 0.28999 0.11268 0.90018 0.0
O23 O 1.16536 0.07461 0.90402 0.0
O24 O 1.08744 0.1033 0.9649 0.0
O25 O 1.02945 1.03503 0.95736 0.0
O26 O 1.09307 0.98103 0.9099 0.0
O27 O 1.15656 0.96644 0.9673 0.0
O28 O 1.10773 1.02499 0.02341 0.0
O29 O 0.23133 1.0651 0.01982 0.0
O30 O 0.30992 1.03873 0.9507 0.0
O31 O 0.36696 0.10287 0.97633 0.0
H32 H 0.31944 0.24994 0.04539 0.0
H33 H 0.24149 0.29433 0.05282 0.0
H34 H 1.0696 0.23126 0.94521 0.0
H35 H 1.14729 0.18729 0.93792 0.0
H36 H 0.25134 0.99317 0.88381 0.0
H37 H 0.33475 0.96311 0.8488 0.0
H38 H 1.15525 0.84298 0.87283 0.0
H39 H 1.07606 0.87382 0.91148 0.0
Nd40 Nd 1.12347 0.08053 0.4579 0.0
Nd41 Nd 0.26445 0.067 0.46599 0.0
C42 C 0.97431 0.07653 0.47331 0.0
C43 C 0.92189 1.04888 0.50435 0.0
C44 C 0.95824 1.03063 0.53646 0.0
C45 C 0.90918 1.00139 0.56385 0.0
C46 C 0.82261 0.98979 0.55957 0.0
C47 C 0.78658 1.00893 0.52801 0.0
C48 C 0.83584 1.03808 0.50046 0.0
C49 C 1.17917 0.08523 0.37515 0.0
C50 C 1.10397 0.98255 0.46085 0.0
C51 C 0.40884 1.05841 0.47388 0.0
C52 C 0.43358 1.03218 0.50481 0.0
C53 C 0.51697 1.04252 0.51955 0.0
C54 C 0.53885 1.02144 0.55401 0.0
C55 C 0.47747 0.99023 0.57511 0.0
C56 C 0.39402 0.97912 0.55914 0.0
C57 C 0.37246 0.99973 0.52415 0.0
C58 C 0.20167 1.06116 0.54735 0.0
C59 C 0.28426 0.16452 0.45746 0.0
O60 O 1.0422 0.10436 0.49058 0.0
O61 O 0.98755 1.05871 0.43988 0.0
O62 O 1.14802 0.1097 0.39056 0.0
O63 O 1.18088 1.05887 0.40337 0.0
O64 O 1.06814 1.00879 0.46726 0.0
O65 O 1.1839 0.99783 0.45511 0.0
O66 O 0.39648 0.08839 0.49183 0.0
O67 O 0.35049 1.0398 0.44371 0.0
O68 O 0.22448 1.03443 0.53071 0.0
O69 O 0.20767 0.0889 0.51994 0.0
O70 O 0.31837 0.13781 0.44905 0.0
O71 O 0.20593 0.14964 0.46671 0.0
H72 H 1.02472 1.03841 0.53976 0.0
H73 H 0.93893 0.98719 0.5875 0.0
H74 H 0.72005 1.00128 0.52451 0.0
H75 H 0.80673 1.05172 0.47584 0.0
H76 H 0.56495 0.0675 0.50515 0.0
H77 H 0.60415 1.02993 0.5643 0.0
H78 H 0.34499 0.95537 0.57427 0.0
H79 H 0.30756 0.99105 0.51308 0.0
Nd80 Nd 0.70172 0.62111 0.95901 0.0
Nd81 Nd 0.63397 0.54525 0.95982 0.0
C82 C 0.7493 0.70143 0.96218 0.0
C83 C 0.71909 0.7291 0.93663 0.0
C84 C 0.64104 0.71367 0.91334 0.0
C85 C 0.61287 0.73919 0.88743 0.0
C86 C 0.66274 0.78063 0.88366 0.0
C87 C 0.74202 0.79579 0.90626 0.0
C88 C 0.76998 0.77013 0.93258 0.0
C89 C 0.67859 0.5919 0.87412 0.0
C90 C 0.48575 0.58305 0.95689 0.0
C91 C 0.59193 0.4658 0.95094 0.0
C92 C 0.63343 0.43934 0.96917 0.0
C93 C 0.62987 0.40534 0.94571 0.0
C94 C 0.67986 0.38387 0.95997 0.0
C95 C 0.734 0.3963 -0.00218 0.0
C96 C 0.73404 0.42916 0.02236 0.0
C97 C 0.68452 0.45069 0.00801 0.0
C98 C 0.65713 0.57244 0.04554 0.0
C99 C 0.84912 0.58288 0.96427 0.0
O100 O 0.69826 0.67715 -0.01169 0.0
O101 O 0.78442 0.68256 0.94004 0.0
O102 O 0.74889 0.61453 0.89327 0.0
O103 O 0.62303 0.58222 0.90059 0.0
O104 O 0.55667 0.61591 0.96348 0.0
O105 O 0.49854 0.54899 0.95008 0.0
O106 O 0.63248 0.49195 0.92275 0.0
O107 O 0.56154 0.48215 0.97888 0.0
O108 O 0.58809 0.54814 0.02651 0.0
O109 O 0.71222 0.58435 0.01865 0.0
O110 O 0.77856 0.55099 0.95336 0.0
O111 O 0.83544 0.61591 0.97498 0.0
H112 H 0.60156 0.68186 0.91529 0.0
H113 H 0.55077 0.72656 0.87141 0.0
H114 H 0.78211 0.82748 0.90385 0.0
H115 H 0.83124 0.78226 0.94964 0.0
H116 H 0.59137 0.39656 0.91546 0.0
H117 H 0.67945 0.35898 0.9401 0.0
H118 H 0.77456 0.43911 0.05184 0.0
H119 H 0.68866 0.47719 0.02637 0.0
Nd120 Nd 0.6145 0.57853 0.45538 0.0
Nd121 Nd 0.7584 0.57235 0.46947 0.0
C122 C 0.4646 0.57557 0.46663 0.0
C123 C 0.41227 0.55175 0.49981 0.0
C124 C 0.44209 0.52781 0.52815 0.0
C125 C 0.39866 0.5089 0.56347 0.0
C126 C 0.32414 0.5133 0.57064 0.0
C127 C 0.29327 0.53638 0.54138 0.0
C128 C 0.33721 0.55558 0.50629 0.0
C129 C 0.68223 0.5906 0.37561 0.0
C130 C 0.60157 0.48314 0.45706 0.0
C131 C 0.89839 0.56051 0.48762 0.0
C132 C 0.94492 0.56431 0.53019 0.0
C133 C 1.02916 0.57062 0.5331 0.0
C134 C 1.07236 0.57305 0.57366 0.0
C135 C 1.03222 0.56954 0.61221 0.0
C136 C 0.948 0.56425 0.60904 0.0
C137 C 0.90479 0.56165 0.56837 0.0
C138 C 0.704 0.58716 0.54758 0.0
C139 C 0.77376 0.66505 0.45813 0.0
O140 O 0.53183 0.60489 0.48238 0.0
O141 O 0.47894 0.55445 0.4364 0.0
O142 O 0.64385 0.61173 0.39094 0.0
O143 O 0.68652 0.56377 0.40264 0.0
O144 O 0.55872 0.50695 0.45094 0.0
O145 O 0.68315 0.50117 0.46468 0.0
O146 O 0.89622 0.59424 0.47106 0.0
O147 O 0.82594 0.53103 0.4841 0.0
O148 O 0.77386 0.60914 0.53324 0.0
O149 O 0.66312 0.5607 0.51937 0.0
O150 O 0.80753 0.63992 0.44522 0.0
O151 O 0.69866 0.64762 0.47201 0.0
H152 H 0.50037 0.52472 0.52368 0.0
H153 H 0.42373 0.49133 0.58535 0.0
H154 H 0.23664 0.54097 0.54659 0.0
H155 H 0.31394 0.57434 0.4851 0.0
H156 H 1.06108 0.57274 0.50406 0.0
H157 H 1.13658 0.57591 0.57459 0.0
H158 H 0.91512 0.56137 0.63784 0.0
H159 H 0.83943 0.55667 0.56677 0.0
C160 C 0.63695 0.84543 0.87905 0.0
C161 C 0.62715 0.8081 0.86019 0.0
C162 C 0.58422 0.86574 0.86513 0.0
C163 C 0.51951 0.84772 0.83236 0.0
C164 C 0.51792 0.81369 0.80878 0.0
C165 C 0.5722 0.79425 0.82293 0.0
C166 C 0.59077 0.90341 0.8895 0.0
C167 C 0.45216 0.79466 0.77235 0.0
C168 C 0.31986 0.84954 0.86809 0.0
C169 C 0.31155 0.8824 0.84491 0.0
C170 C 0.38427 0.83634 0.86182 0.0
C171 C 0.44318 0.85693 0.83205 0.0
C172 C 0.43241 0.88832 0.80629 0.0
C173 C 0.36635 0.90062 0.81295 0.0
C174 C 0.39231 0.80206 0.88948 0.0
C175 C 0.49303 0.91078 0.77378 0.0
H176 H 0.68006 0.85686 0.9074 0.0
H177 H 0.56681 0.76632 0.80698 0.0
H178 H 0.57945 0.9259 0.86699 0.0
H179 H 0.54295 0.89506 0.91324 0.0
H180 H 0.65276 0.91797 0.90741 0.0
H181 H 0.47179 0.77609 0.75049 0.0
H182 H 0.39439 0.77441 0.78621 0.0
H183 H 0.43749 0.81821 0.75305 0.0
H184 H 0.27916 0.83554 0.89332 0.0
H185 H 0.35959 0.92552 0.79416 0.0
H186 H 0.44848 0.81404 0.91256 0.0
H187 H 0.39948 0.77851 0.86893 0.0
H188 H 0.33766 0.78722 0.90843 0.0
H189 H 0.54362 0.93702 0.79021 0.0
H190 H 0.46238 0.92292 0.74709 0.0
H191 H 0.52157 0.89115 0.75965 0.0
C192 C 0.87966 0.40324 0.01943 0.0
C193 C 0.79653 0.37798 0.00887 0.0
C194 C 0.94198 0.38718 0.02405 0.0
C195 C 0.92043 0.34497 0.01761 0.0
C196 C 0.83615 0.31899 0.00938 0.0
C197 C 0.77501 0.33588 0.00511 0.0
C198 C 1.03126 0.41571 0.03302 0.0
C199 C 0.81106 0.27371 0.00254 0.0
C200 C 1.07145 0.30793 0.9693 0.0
C201 C 1.09927 0.29059 0.00531 0.0
C202 C 1.01523 0.32703 0.9733 0.0
C203 C 0.98624 0.3286 0.0143 0.0
C204 C 1.0169 0.31272 0.05117 0.0
C205 C 1.07338 0.29383 0.04622 0.0
C206 C 0.98457 0.34417 0.93333 0.0
C207 C 0.98746 0.31415 0.09536 0.0
H208 H 0.89673 0.43591 0.02184 0.0
H209 H 0.7106 0.3163 -0.00247 0.0
H210 H 1.06328 0.40354 0.05894 0.0
H211 H 1.06452 0.41844 0.00341 0.0
H212 H 1.03641 0.4466 0.04285 0.0
H213 H 0.74261 0.25734 0.00066 0.0
H214 H 0.83401 0.26805 0.97191 0.0
H215 H 0.83963 0.26066 0.02922 0.0
H216 H 1.0925 0.30579 0.9378 0.0
H217 H 1.09459 0.28008 0.07399 0.0
H218 H 0.99434 0.37654 0.93892 0.0
H219 H 0.91686 0.32729 0.92626 0.0
H220 H 1.01644 0.34218 0.90436 0.0
H221 H 0.99209 0.34541 0.10308 0.0
H222 H 1.02365 0.30425 0.12134 0.0
H223 H 0.92111 0.29393 0.09548 0.0
C224 C 0.31411 0.23797 0.48339 0.0
C225 C 0.33304 0.21115 0.45682 0.0
C226 C 0.35871 0.28117 0.48402 0.0
C227 C 0.42335 0.29993 0.45609 0.0
C228 C 0.44176 0.27303 0.42858 0.0
C229 C 0.39836 0.22968 0.4299 0.0
C230 C 0.33695 0.30685 0.51541 0.0
C231 C 0.50685 0.29015 0.39681 0.0
C232 C 0.48035 0.41646 0.43177 0.0
C233 C 0.55736 0.43618 0.45598 0.0
C234 C 0.43824 0.37305 0.43057 0.0
C235 C 0.47054 0.34713 0.45559 0.0
C236 C 0.5477 0.36699 0.48066 0.0
C237 C 0.59018 0.41039 0.47989 0.0
C238 C 0.35874 0.35482 0.40186 0.0
C239 C 0.58503 0.34233 0.50941 0.0
H240 H 0.26485 0.22499 0.50475 0.0
H241 H 0.41447 0.21025 0.4088 0.0
H242 H 0.39369 0.32625 0.53522 0.0
H243 H 0.31134 0.32746 0.49735 0.0
H244 H 0.2906 0.28811 0.53749 0.0
H245 H 0.51067 0.26621 0.37546 0.0
H246 H 0.49289 0.31324 0.37629 0.0
H247 H 0.56851 0.30572 0.41453 0.0
H248 H 0.45313 0.43509 0.41286 0.0
H249 H 0.64868 0.4243 0.49925 0.0
H250 H 0.30606 0.34017 0.42202 0.0
H251 H 0.36242 0.33083 0.38058 0.0
H252 H 0.34515 0.37799 0.38125 0.0
H253 H 0.53924 0.32382 0.53184 0.0
H254 H 0.64234 0.36177 0.52883 0.0
H255 H 0.60037 0.32091 0.48946 0.0
C256 C 0.96832 0.9188 0.4495 0.0
C257 C 1.05473 0.93607 0.46088 0.0
C258 C 0.92242 0.87571 0.44793 0.0
C259 C 0.96144 0.84751 0.4602 0.0
C260 C 1.04853 0.86509 0.4731 0.0
C261 C 1.09349 0.90821 0.47217 0.0
C262 C 0.83149 0.86102 0.43255 0.0
C263 C 1.09602 0.83876 0.48849 0.0
C264 C 0.80907 0.73749 0.48921 0.0
C265 C 0.82044 0.71174 0.45823 0.0
C266 C 0.8549 0.7806 0.49091 0.0
C267 C 0.91216 0.80043 0.45943 0.0
C268 C 0.92177 0.77447 0.42723 0.0
C269 C 0.87836 0.73121 0.4278 0.0
C270 C 0.84143 0.80449 0.5273 0.0
C271 C 0.97778 0.79186 0.39132 0.0
H272 H 0.93615 0.93911 0.44055 0.0
H273 H 1.15967 0.9202 0.48146 0.0
H274 H 0.80759 0.8296 0.41903 0.0
H275 H 0.79555 0.86174 0.46022 0.0
H276 H 0.8199 0.8815 0.40737 0.0
H277 H 1.14663 0.85496 0.51358 0.0
H278 H 1.0556 0.80958 0.50214 0.0
H279 H 1.12547 0.83201 0.46081 0.0
H280 H 0.76559 0.72372 0.51336 0.0
H281 H 0.8887 0.71256 0.40336 0.0
H282 H 0.78785 0.81333 0.51737 0.0
H283 H 0.89659 0.83247 0.53578 0.0
H284 H 0.82616 0.78566 0.55683 0.0
H285 H 0.98515 0.82376 0.38394 0.0
H286 H 0.95338 0.77328 0.36118 0.0
H287 H 1.03985 0.79102 0.40104 0.0
C288 C 0.54438 0.09672 -0.0117 0.0
C289 C 0.47322 0.06968 0.96295 0.0
C290 C 0.62873 0.09665 -0.01107 0.0
C291 C 0.6511 0.07007 0.96184 0.0
C292 C 0.57928 1.04318 0.93535 0.0
C293 C 0.49483 1.04277 0.93696 0.0
C294 C 0.69357 0.12571 0.02034 0.0
C295 C 0.58955 1.01411 0.90363 0.0
C296 C 0.90183 0.10468 0.95015 0.0
C297 C 0.92394 0.07046 0.9615 0.0
C298 C 0.81728 0.10475 0.94902 0.0
C299 C 0.74601 0.07026 0.96155 0.0
C300 C 0.76895 1.03597 0.97418 0.0
C301 C 0.85324 1.03624 0.97291 0.0
C302 C 0.80613 0.14298 0.93311 0.0
C303 C 0.70477 0.99777 -0.00965 0.0
H304 H 0.53417 0.11824 0.00921 0.0
H305 H 0.44502 1.02124 0.91633 0.0
H306 H 0.74799 0.11694 0.02795 0.0
H307 H 0.71486 0.15667 0.00633 0.0
H308 H 0.66659 0.12745 0.05114 0.0
H309 H 0.55081 1.01287 0.87288 0.0
H310 H 0.65489 1.02241 0.89605 0.0
H311 H 0.56688 0.98305 0.91736 0.0
H312 H 0.95123 0.1321 0.94077 0.0
H313 H 0.86386 1.00882 0.98223 0.0
H314 H 0.82849 0.16623 0.95948 0.0
H315 H 0.74057 0.13792 0.92251 0.0
H316 H 0.8445 0.15574 0.90554 0.0
H317 H 0.7328 0.98445 0.0171 0.0
H318 H 0.68185 0.97488 0.96367 0.0
H319 H 0.65127 1.00309 0.00214 0.0
C320 C 0.46063 0.92745 0.62065 0.0
C321 C 0.50241 0.96918 0.61267 0.0
C322 C 0.50008 0.90682 0.64831 0.0
C323 C 0.58494 0.9271 0.66205 0.0
C324 C 0.60978 0.96979 0.66819 0.0
C325 C 0.57189 0.99077 0.64075 0.0
C326 C 0.45447 0.86312 0.6598 0.0
C327 C 0.67756 0.99365 0.70159 0.0
C328 C 0.79084 0.95484 0.63185 0.0
C329 C 0.76879 0.95795 0.5875 0.0
C330 C 0.7306 0.93042 0.65882 0.0
C331 C 0.64665 0.91349 0.64187 0.0
C332 C 0.63381 0.90546 0.59642 0.0
C333 C 0.69299 0.92998 0.56958 0.0
C334 C 0.75538 0.92449 0.70543 0.0
C335 C 0.55957 0.87141 0.57563 0.0
H336 H 0.40096 0.91037 0.60376 0.0
H337 H 0.59772 1.02376 0.64065 0.0
H338 H 0.41558 0.84558 0.63125 0.0
H339 H 0.49771 0.84857 0.67328 0.0
H340 H 0.41166 0.86208 0.68478 0.0
H341 H 0.66667 1.0207 0.71274 0.0
H342 H 0.68015 0.97471 0.73023 0.0
H343 H 0.73822 1.00508 0.68725 0.0
H344 H 0.85266 0.97269 0.64596 0.0
H345 H 0.67952 0.92748 0.53467 0.0
H346 H 0.70054 0.91048 0.72446 0.0
H347 H 0.79797 0.95379 0.72058 0.0
H348 H 0.79037 0.90391 0.70652 0.0
H349 H 0.53682 0.84562 0.59814 0.0
H350 H 0.57584 0.85983 0.54604 0.0
H351 H 0.50943 0.88254 0.56518 0.0
C352 C 0.96351 0.5557 0.93687 0.0
C353 C 0.94219 0.58223 0.96356 0.0
C354 C 1.04793 0.55629 0.93453 0.0
C355 C 1.12004 0.58285 0.96103 0.0
C356 C 1.09798 0.60895 -0.01104 0.0
C357 C 1.01367 0.60901 -0.01107 0.0
C358 C 1.05804 0.52793 0.90189 0.0
C359 C 1.16319 0.63745 0.02062 0.0
C360 C 0.32236 0.54918 0.96924 0.0
C361 C 0.39271 0.58363 0.95794 0.0
C362 C 0.23816 0.54878 0.97139 0.0
C363 C 0.2149 0.58319 0.95984 0.0
C364 C 0.28576 0.61789 0.94728 0.0
C365 C 0.37032 0.61795 0.94761 0.0
C366 C 1.17449 0.51026 -0.01271 0.0
C367 C 0.27406 0.65621 0.93215 0.0
H368 H 0.9135 0.53444 0.91613 0.0
H369 H 1.00374 0.63025 0.01035 0.0
H370 H 1.12314 0.53689 0.89359 0.0
H371 H 1.03684 0.49668 0.91515 0.0
H372 H 1.01822 0.52683 0.87158 0.0
H373 H 1.13654 0.63875 0.05165 0.0
H374 H 0.21746 0.62846 0.02768 0.0
H375 H 1.18464 0.66861 0.00715 0.0
H376 H 0.33324 0.52168 0.97781 0.0
H377 H 0.41943 0.64552 0.93831 0.0
H378 H 1.15205 0.4875 0.96044 0.0
H379 H 1.12063 0.51513 -0.00077 0.0
H380 H 0.20291 0.49696 0.01389 0.0
H381 H 0.31212 0.66944 0.90458 0.0
H382 H 0.29638 0.6791 0.95886 0.0
H383 H 0.20835 0.65106 0.92184 0.0
C384 C 0.32274 0.50261 0.65139 0.0
C385 C 0.28045 0.49683 0.60986 0.0
C386 C 0.27904 0.50054 0.6882 0.0
C387 C 0.19477 0.49626 0.6822 0.0
C388 C 1.15012 0.47719 0.64274 0.0
C389 C 0.19392 0.4797 0.60638 0.0
C390 C 0.32406 0.50654 0.73271 0.0
C391 C 1.05689 0.45707 0.63673 0.0
C392 C 1.03818 0.53544 0.68413 0.0
C393 C 1.07657 0.56584 0.6543 0.0
C394 C 1.08663 0.51786 0.70973 0.0
C395 C 1.17051 0.52857 0.7013 0.0
C396 C 0.2106 0.56866 0.68575 0.0
C397 C 1.16273 0.58619 0.66035 0.0
C398 C 1.04698 0.48459 0.74106 0.0
C399 C 0.30341 0.59076 0.69012 0.0
H400 H 0.38974 0.51237 0.65502 0.0
H401 H 1.16037 0.47067 0.57478 0.0
H402 H 0.28861 0.51363 0.75741 0.0
H403 H 0.33304 0.47799 0.7422 0.0
H404 H 0.38676 0.53077 0.73262 0.0
H405 H 1.03788 0.4323 0.61197 0.0
H406 H 1.03045 0.44342 0.66717 0.0
H407 H 1.02982 0.47939 0.62449 0.0
H408 H 0.97117 0.52195 0.68381 0.0
H409 H 0.19319 0.61321 0.6418 0.0
H410 H 1.08318 0.46475 0.74737 0.0
H411 H 0.98193 0.46596 0.72927 0.0
H412 H 1.045 0.49883 0.77233 0.0
H413 H 0.32007 0.62422 0.6885 0.0
H414 H 0.33139 0.58203 0.66304 0.0
H415 H 0.33063 0.58386 0.72148 0.0
C416 C 0.20555 1.04992 0.31001 0.0
C417 C 1.18601 0.08142 0.32709 0.0
C418 C 0.20822 1.04545 0.26468 0.0
C419 C 0.19086 0.07303 0.23497 0.0
C420 C 1.17248 0.10526 0.25222 0.0
C421 C 1.17044 0.10905 0.29759 0.0
C422 C 0.22842 1.01067 0.24847 0.0
C423 C 1.15321 0.13549 0.22258 0.0
C424 C 0.2541 0.08098 0.11681 0.0
C425 C 1.17954 1.0569 0.09334 0.0
C426 C 0.25908 0.08619 0.16256 0.0
C427 C 0.18784 0.06716 0.18602 0.0
C428 C 1.11254 1.04296 0.16229 0.0
C429 C 1.10944 1.03815 0.11678 0.0
C430 C 0.34087 0.11223 0.18586 0.0
C431 C 1.0345 1.02217 0.18502 0.0
H432 H 0.21789 1.02833 0.3321 0.0
H433 H 1.15546 0.13363 0.30997 0.0
H434 H 1.17441 0.98981 0.22803 0.0
H435 H 0.28126 1.02238 0.22783 0.0
H436 H 0.24448 0.993 0.27539 0.0
H437 H 1.1433 0.15976 0.24078 0.0
H438 H 0.20469 0.14993 0.20158 0.0
H439 H 1.09647 0.11953 0.20096 0.0
H440 H 0.3088 0.09575 0.09942 0.0
H441 H 1.05123 1.01959 0.09938 0.0
H442 H 0.35994 0.09424 0.21134 0.0
H443 H 0.33407 0.1382 0.20231 0.0
H444 H 0.39099 0.12436 0.16354 0.0
H445 H 1.04517 1.0016 0.21029 0.0
H446 H 0.98098 1.00413 0.16232 0.0
H447 H 1.01793 1.0452 0.20159 0.0
C448 C 0.28381 0.1009 0.8061 0.0
C449 C 0.21427 0.08309 0.83013 0.0
C450 C 0.27808 0.0973 0.76037 0.0
C451 C 0.20064 0.07539 0.7371 0.0
C452 C 1.12996 1.05729 0.76116 0.0
C453 C 1.1376 1.06122 0.8071 0.0
C454 C 0.3556 0.11687 0.7369 0.0
C455 C 1.04599 1.03365 0.7383 0.0
C456 C 1.18142 0.09649 0.61414 0.0
C457 C 0.19598 1.06417 0.59551 0.0
C458 C 1.18049 0.09996 0.65973 0.0
C459 C 0.19487 0.0706 0.68798 0.0
C460 C 0.208 1.03755 0.6691 0.0
C461 C 0.20807 1.0347 0.62355 0.0
C462 C 1.16552 0.13557 0.67779 0.0
C463 C 0.22402 1.00547 0.69716 0.0
H464 H 0.34353 0.11777 0.82319 0.0
H465 H 1.08329 1.04725 0.825 0.0
H466 H 0.36812 0.09332 0.71887 0.0
H467 H 0.34662 0.13876 0.71276 0.0
H468 H 0.41097 0.13322 0.75933 0.0
H469 H 0.99662 1.02222 0.76113 0.0
H470 H 1.02867 1.05315 0.71396 0.0
H471 H 1.04849 1.00732 0.72052 0.0
H472 H 1.17163 0.11939 0.59308 0.0
H473 H 0.21923 1.00948 0.60989 0.0
H474 H 0.22146 0.15495 0.69811 0.0
H475 H 1.11344 0.1246 0.69898 0.0
H476 H 1.15086 0.15458 0.65186 0.0
H477 H 0.28195 1.01965 0.71855 0.0
H478 H 0.23019 0.98089 0.67773 0.0
H479 H 1.17274 0.99165 0.71843 0.0
C480 C 0.71012 0.55884 0.30856 0.0
C481 C 0.69329 0.59011 0.32799 0.0
C482 C 0.71276 0.55689 0.26302 0.0
C483 C 0.69848 0.58692 0.23589 0.0
C484 C 0.68459 0.61931 0.25567 0.0
C485 C 0.68214 0.62046 0.30109 0.0
C486 C 0.72793 0.52179 0.24377 0.0
C487 C 0.66912 0.65213 0.22866 0.0
C488 C 0.7489 0.59797 0.1159 0.0
C489 C 0.67063 0.57695 0.0941 0.0
C490 C 0.75949 0.60103 0.16186 0.0
C491 C 0.69034 0.58271 0.18691 0.0
C492 C 0.61152 0.5614 0.16484 0.0
C493 C 0.60277 0.55886 0.11917 0.0
C494 C 0.84469 0.62408 0.18367 0.0
C495 C 0.53566 0.54141 0.18953 0.0
H496 H 0.71895 0.53523 0.32882 0.0
H497 H 0.66965 0.64496 0.31553 0.0
H498 H 0.67094 0.50203 0.22445 0.0
H499 H 0.77803 0.53319 0.22142 0.0
H500 H 0.74532 0.50302 0.26904 0.0
H501 H 0.6658 0.67691 0.2489 0.0
H502 H 0.71904 0.66551 0.20651 0.0
H503 H 0.60972 0.6387 0.20822 0.0
H504 H 0.80187 0.61197 0.09707 0.0
H505 H 0.54189 0.54252 0.10298 0.0
H506 H 0.86279 0.60417 0.20715 0.0
H507 H 0.84384 0.65032 0.20228 0.0
H508 H 0.89262 0.63554 0.16006 0.0
H509 H 0.54624 0.51942 0.21302 0.0
H510 H 0.47916 0.52507 0.16781 0.0
H511 H 0.52394 0.56473 0.20838 0.0
C512 C 0.63151 0.5515 0.61301 0.0
C513 C 0.68706 0.58646 0.5943 0.0
C514 C 0.6214 0.54981 0.65801 0.0
C515 C 0.66672 0.58413 0.68514 0.0
C516 C 0.72026 0.62 0.6659 0.0
C517 C 0.7305 0.62053 0.62111 0.0
C518 C 0.56502 0.51061 0.67682 0.0
C519 C 0.76833 0.65776 0.69286 0.0
C520 C 0.60435 0.59233 0.80015 0.0
C521 C 0.6667 0.58458 0.8262 0.0
C522 C 0.60257 0.59176 0.75427 0.0
C523 C 0.66294 0.58193 0.73382 0.0
C524 C 0.72336 0.57215 0.76029 0.0
C525 C 0.72547 0.57443 0.80584 0.0
C526 C 0.53906 0.60402 0.72779 0.0
C527 C 0.78757 0.56032 0.74048 0.0
H528 H 0.59816 0.52486 0.59276 0.0
H529 H 0.77323 0.64775 0.60701 0.0
H530 H 0.60318 0.4966 0.6967 0.0
H531 H 0.52322 0.51653 0.69856 0.0
H532 H 0.52669 0.48843 0.65127 0.0
H533 H 0.80073 0.68431 0.67261 0.0
H534 H 0.72603 0.66565 0.71258 0.0
H535 H 0.81532 0.65201 0.71565 0.0
H536 H 0.55978 0.60105 0.81558 0.0
H537 H 0.77407 0.56861 0.82575 0.0
H538 H 0.50912 0.58236 0.70045 0.0
H539 H 0.57056 0.63439 0.71357 0.0
H540 H 0.49028 0.60575 0.74766 0.0
H541 H 0.75702 0.5357 0.71598 0.0
H542 H 0.82503 0.5498 0.76518 0.0
H543 H 0.83025 0.58676 0.72354 0.0
loop_
_geom_bond_atom_site_label_1
_geom_bond_atom_site_label_2
_geom_bond_distance
_geom_bond_site_symmetry_2
_ccdc_geom_bond_type
Nd0 C2 2.838 1_455 S
Nd0 O20 2.500 1_456 S
Nd0 O21 2.492 1_455 S
Nd0 O22 2.487 . S
Nd0 O23 2.682 1_545 S
Nd0 O24 2.410 1_455 S
Nd0 O29 2.414 1_456 S
Nd0 O31 2.424 . S
Nd1 C11 2.839 1_655 S
Nd1 O23 2.414 1_654 S
Nd1 O25 2.424 . S
Nd1 O26 2.500 1_654 S
Nd1 O27 2.492 1_655 S
Nd1 O28 2.487 . S
Nd1 O29 2.682 1_565 S
Nd1 O30 2.410 1_655 S
C2 Nd0 2.838 1_655 S
C2 C3 1.496 1_556 S
C2 O20 1.247 1_556 S
C2 O21 1.252 . S
C3 C2 1.496 1_554 S
C3 C4 1.366 . S
C3 C8 1.407 1_554 S
C4 C3 1.366 . S
C4 C5 1.392 . S
C4 H32 0.930 . S
C5 C4 1.392 . S
C5 C6 1.398 . S
C5 H33 0.929 . S
C6 C5 1.398 . S
C6 C7 1.352 1_554 S
C7 C6 1.352 1_556 S
C7 C8 1.384 . S
C7 H34 0.930 . S
C8 C3 1.407 1_556 S
C8 C7 1.384 . S
C8 H35 0.929 . S
C9 O22 1.241 . S
C9 O23 1.273 1_545 S
C10 O24 1.251 1_565 S
C10 O25 1.268 1_556 S
C11 Nd1 2.839 1_455 S
C11 C12 1.496 1_554 S
C11 O26 1.242 1_554 S
C11 O27 1.258 . S
C12 C11 1.496 1_556 S
C12 C13 1.366 . S
C12 C17 1.407 1_556 S
C13 C12 1.366 . S
C13 C14 1.392 . S
C13 H36 0.930 . S
C14 C13 1.392 . S
C14 C15 1.398 . S
C14 H37 0.929 . S
C15 C14 1.398 . S
C15 C16 1.352 1_556 S
C16 C15 1.352 1_554 S
C16 C17 1.384 . S
C16 H38 0.930 . S
C17 C12 1.407 1_554 S
C17 C16 1.384 . S
C17 H39 0.929 . S
C18 O28 1.241 . S
C18 O29 1.273 1_565 S
C19 O30 1.251 1_545 S
C19 O31 1.268 1_554 S
O20 Nd0 2.500 1_654 S
O20 C2 1.247 1_554 S
O21 Nd0 2.492 1_655 S
O21 C2 1.252 . S
O22 Nd0 2.487 . S
O22 C9 1.241 . S
O23 Nd0 2.682 1_565 S
O23 Nd1 2.414 1_456 S
O23 C9 1.273 1_565 S
O24 Nd0 2.410 1_655 S
O24 C10 1.251 1_545 S
O25 Nd1 2.424 . S
O25 C10 1.268 1_554 S
O26 Nd1 2.500 1_456 S
O26 C11 1.242 1_556 S
O27 Nd1 2.492 1_455 S
O27 C11 1.258 . S
O28 Nd1 2.487 . S
O28 C18 1.241 . S
O29 Nd0 2.414 1_654 S
O29 Nd1 2.682 1_545 S
O29 C18 1.273 1_545 S
O30 Nd1 2.410 1_455 S
O30 C19 1.251 1_565 S
O31 Nd0 2.424 . S
O31 C19 1.268 1_556 S
H32 C4 0.930 . S
H33 C5 0.929 . S
H34 C7 0.930 . S
H35 C8 0.929 . S
H36 C13 0.930 . S
H37 C14 0.929 . S
H38 C16 0.930 . S
H39 C17 0.929 . S
Nd40 C42 2.836 . S
Nd40 O60 2.500 . S
Nd40 O61 2.492 . S
Nd40 O62 2.487 . S
Nd40 O63 2.699 1_655 S
Nd40 O64 2.410 1_545 S
Nd40 O69 2.402 1_545 S
Nd40 O71 2.424 1_655 S
Nd41 C51 2.836 . S
Nd41 O63 2.398 1_565 S
Nd41 O65 2.424 1_455 S
Nd41 O66 2.500 . S
Nd41 O67 2.492 . S
Nd41 O68 2.487 . S
Nd41 O69 2.695 1_455 S
Nd41 O70 2.410 1_565 S
C42 Nd40 2.836 . S
C42 C43 1.498 1_545 S
C42 O60 1.258 . S
C42 O61 1.239 . S
C43 C42 1.498 1_565 S
C43 C44 1.366 . S
C43 C48 1.407 . S
C44 C43 1.366 . S
C44 C45 1.392 . S
C44 H72 0.930 . S
C45 C44 1.392 . S
C45 C46 1.398 . S
C45 H73 0.929 . S
C46 C45 1.398 . S
C46 C47 1.352 . S
C47 C46 1.352 . S
C47 C48 1.384 . S
C47 H74 0.930 . S
C48 C43 1.407 . S
C48 C47 1.384 . S
C48 H75 0.929 1_565 S
C49 O62 1.241 . S
C49 O63 1.281 1_655 S
C50 O64 1.251 . S
C50 O65 1.268 . S
C51 Nd41 2.836 . S
C51 C52 1.498 1_565 S
C51 O66 1.258 . S
C51 O67 1.239 . S
C52 C51 1.498 1_545 S
C52 C53 1.366 . S
C52 C57 1.407 . S
C53 C52 1.366 . S
C53 C54 1.392 . S
C53 H76 0.930 . S
C54 C53 1.392 . S
C54 C55 1.398 . S
C54 H77 0.929 . S
C55 C54 1.398 . S
C55 C56 1.352 . S
C56 C55 1.352 . S
C56 C57 1.384 . S
C56 H78 0.930 . S
C57 C52 1.407 . S
C57 C56 1.384 . S
C57 H79 0.929 1_545 S
C58 O68 1.241 . S
C58 O69 1.279 1_455 S
C59 O70 1.251 . S
C59 O71 1.268 . S
O60 Nd40 2.500 . S
O60 C42 1.258 . S
O61 Nd40 2.492 . S
O61 C42 1.239 . S
O62 Nd40 2.487 . S
O62 C49 1.241 . S
O63 Nd40 2.699 1_455 S
O63 Nd41 2.398 1_545 S
O63 C49 1.281 1_455 S
O64 Nd40 2.410 1_565 S
O64 C50 1.251 . S
O65 Nd41 2.424 1_655 S
O65 C50 1.268 . S
O66 Nd41 2.500 . S
O66 C51 1.258 . S
O67 Nd41 2.492 . S
O67 C51 1.239 . S
O68 Nd41 2.487 . S
O68 C58 1.241 . S
O69 Nd40 2.402 1_565 S
O69 Nd41 2.695 1_655 S
O69 C58 1.279 1_655 S
O70 Nd41 2.410 1_545 S
O70 C59 1.251 . S
O71 Nd40 2.424 1_455 S
O71 C59 1.268 . S
H72 C44 0.930 . S
H73 C45 0.929 . S
H74 C47 0.930 . S
H75 C48 0.929 1_545 S
H76 C53 0.930 . S
H77 C54 0.929 . S
H78 C56 0.930 . S
H79 C57 0.929 1_565 S
Nd80 C82 2.838 . S
Nd80 O100 2.500 1_556 S
Nd80 O101 2.492 . S
Nd80 O102 2.487 . S
Nd80 O103 2.682 . S
Nd80 O104 2.410 . S
Nd80 O109 2.414 1_556 S
Nd80 O111 2.424 . S
Nd81 C91 2.839 . S
Nd81 O103 2.414 1_554 S
Nd81 O105 2.424 . S
Nd81 O106 2.500 1_554 S
Nd81 O107 2.492 . S
Nd81 O108 2.487 . S
Nd81 O109 2.682 . S
Nd81 O110 2.410 . S
C82 Nd80 2.838 . S
C82 C83 1.496 1_556 S
C82 O100 1.247 1_556 S
C82 O101 1.252 . S
C83 C82 1.496 1_554 S
C83 C84 1.366 . S
C83 C88 1.407 1_554 S
C84 C83 1.366 . S
C84 C85 1.392 . S
C84 H112 0.930 . S
C85 C84 1.392 . S
C85 C86 1.398 . S
C85 H113 0.929 . S
C86 C85 1.398 . S
C86 C87 1.352 1_554 S
C87 C86 1.352 1_556 S
C87 C88 1.384 . S
C87 H114 0.930 . S
C88 C83 1.407 1_556 S
C88 C87 1.384 . S
C88 H115 0.929 . S
C89 O102 1.241 . S
C89 O103 1.273 . S
C90 O104 1.251 . S
C90 O105 1.268 1_556 S
C91 Nd81 2.839 . S
C91 C92 1.496 1_554 S
C91 O106 1.242 1_554 S
C91 O107 1.258 . S
C92 C91 1.496 1_556 S
C92 C93 1.366 . S
C92 C97 1.407 1_556 S
C93 C92 1.366 . S
C93 C94 1.392 . S
C93 H116 0.930 . S
C94 C93 1.392 . S
C94 C95 1.398 . S
C94 H117 0.929 . S
C95 C94 1.398 . S
C95 C96 1.352 1_556 S
C96 C95 1.352 1_554 S
C96 C97 1.384 . S
C96 H118 0.930 . S
C97 C92 1.407 1_554 S
C97 C96 1.384 . S
C97 H119 0.929 . S
C98 O108 1.241 . S
C98 O109 1.273 . S
C99 O110 1.251 . S
C99 O111 1.268 1_554 S
O100 Nd80 2.500 1_554 S
O100 C82 1.247 1_554 S
O101 Nd80 2.492 . S
O101 C82 1.252 . S
O102 Nd80 2.487 . S
O102 C89 1.241 . S
O103 Nd80 2.682 . S
O103 Nd81 2.414 1_556 S
O103 C89 1.273 . S
O104 Nd80 2.410 . S
O104 C90 1.251 . S
O105 Nd81 2.424 . S
O105 C90 1.268 1_554 S
O106 Nd81 2.500 1_556 S
O106 C91 1.242 1_556 S
O107 Nd81 2.492 . S
O107 C91 1.258 . S
O108 Nd81 2.487 . S
O108 C98 1.241 . S
O109 Nd80 2.414 1_554 S
O109 Nd81 2.682 . S
O109 C98 1.273 . S
O110 Nd81 2.410 . S
O110 C99 1.251 . S
O111 Nd80 2.424 . S
O111 C99 1.268 1_556 S
H112 C84 0.930 . S
H113 C85 0.929 . S
H114 C87 0.930 . S
H115 C88 0.929 . S
H116 C93 0.930 . S
H117 C94 0.929 . S
H118 C96 0.930 . S
H119 C97 0.929 . S
Nd120 C122 2.836 . S
Nd120 O140 2.500 . S
Nd120 O141 2.492 . S
Nd120 O142 2.487 . S
Nd120 O143 2.682 . S
Nd120 O144 2.410 . S
Nd120 O149 2.414 . S
Nd120 O151 2.424 . S
Nd121 C131 2.836 . S
Nd121 O143 2.414 . S
Nd121 O145 2.424 . S
Nd121 O146 2.500 . S
Nd121 O147 2.492 . S
Nd121 O148 2.487 . S
Nd121 O149 2.682 . S
Nd121 O150 2.410 . S
C122 Nd120 2.836 . S
C122 C123 1.498 . S
C122 O140 1.258 . S
C122 O141 1.239 . S
C123 C122 1.498 . S
C123 C124 1.366 . S
C123 C128 1.407 . S
C124 C123 1.366 . S
C124 C125 1.392 . S
C124 H152 0.930 . S
C125 C124 1.392 . S
C125 C126 1.398 . S
C125 H153 0.929 . S
C126 C125 1.398 . S
C126 C127 1.352 . S
C127 C126 1.352 . S
C127 C128 1.384 . S
C127 H154 0.930 . S
C128 C123 1.407 . S
C128 C127 1.384 . S
C128 H155 0.929 . S
C129 O142 1.241 . S
C129 O143 1.273 . S
C130 O144 1.251 . S
C130 O145 1.268 . S
C131 Nd121 2.836 . S
C131 C132 1.498 . S
C131 O146 1.258 . S
C131 O147 1.239 . S
C132 C131 1.498 . S
C132 C133 1.366 . S
C132 C137 1.407 . S
C133 C132 1.366 . S
C133 C134 1.392 . S
C133 H156 0.930 . S
C134 C133 1.392 . S
C134 C135 1.398 . S
C134 H157 0.929 . S
C135 C134 1.398 . S
C135 C136 1.352 . S
C136 C135 1.352 . S
C136 C137 1.384 . S
C136 H158 0.930 . S
C137 C132 1.407 . S
C137 C136 1.384 . S
C137 H159 0.929 . S
C138 O148 1.241 . S
C138 O149 1.273 . S
C139 O150 1.251 . S
C139 O151 1.268 . S
O140 Nd120 2.500 . S
O140 C122 1.258 . S
O141 Nd120 2.492 . S
O141 C122 1.239 . S
O142 Nd120 2.487 . S
O142 C129 1.241 . S
O143 Nd120 2.682 . S
O143 Nd121 2.414 . S
O143 C129 1.273 . S
O144 Nd120 2.410 . S
O144 C130 1.251 . S
O145 Nd121 2.424 . S
O145 C130 1.268 . S
O146 Nd121 2.500 . S
O146 C131 1.258 . S
O147 Nd121 2.492 . S
O147 C131 1.239 . S
O148 Nd121 2.487 . S
O148 C138 1.241 . S
O149 Nd120 2.414 . S
O149 Nd121 2.682 . S
O149 C138 1.273 . S
O150 Nd121 2.410 . S
O150 C139 1.251 . S
O151 Nd120 2.424 . S
O151 C139 1.268 . S
H152 C124 0.930 . S
H153 C125 0.929 . S
H154 C127 0.930 . S
H155 C128 0.929 . S
H156 C133 0.930 . S
H157 C134 0.929 . S
H158 C136 0.930 . S
H159 C137 0.929 . S
C160 C161 1.391 . S
C160 C162 1.394 . S
C160 H176 0.931 . S
C161 C160 1.391 . S
C161 C165 1.376 1_554 S
C162 C160 1.394 . S
C162 C163 1.369 1_554 S
C162 C166 1.531 . S
C163 C162 1.369 1_556 S
C163 C164 1.410 . S
C163 C171 1.503 . S
C164 C163 1.410 . S
C164 C165 1.392 . S
C164 C167 1.511 . S
C165 C161 1.376 1_556 S
C165 C164 1.392 . S
C165 H177 0.929 . S
C166 C162 1.531 . S
C166 H178 0.960 1_554 S
C166 H179 0.962 . S
C166 H180 0.960 1_554 S
C167 C164 1.511 . S
C167 H181 0.961 . S
C167 H182 0.961 . S
C167 H183 0.961 . S
C168 C169 1.370 1_554 S
C168 C170 1.363 . S
C168 H184 0.931 . S
C169 C168 1.370 1_556 S
C169 C173 1.408 . S
C170 C168 1.363 . S
C170 C171 1.370 1_554 S
C170 C174 1.524 . S
C171 C163 1.503 . S
C171 C170 1.370 1_556 S
C171 C172 1.403 . S
C172 C171 1.403 . S
C172 C173 1.404 . S
C172 C175 1.539 . S
C173 C169 1.408 . S
C173 C172 1.404 . S
C173 H185 0.930 . S
C174 C170 1.524 . S
C174 H186 0.956 . S
C174 H187 0.961 . S
C174 H188 0.961 . S
C175 C172 1.539 . S
C175 H189 0.958 . S
C175 H190 0.961 . S
C175 H191 0.960 . S
H176 C160 0.931 . S
H177 C165 0.929 . S
H178 C166 0.960 1_556 S
H179 C166 0.962 . S
H180 C166 0.960 1_556 S
H181 C167 0.961 . S
H182 C167 0.961 . S
H183 C167 0.961 . S
H184 C168 0.931 . S
H185 C173 0.930 . S
H186 C174 0.956 . S
H187 C174 0.961 . S
H188 C174 0.961 . S
H189 C175 0.958 . S
H190 C175 0.961 . S
H191 C175 0.960 . S
C192 C193 1.391 1_554 S
C192 C194 1.394 . S
C192 H208 0.931 . S
C193 C192 1.391 1_556 S
C193 C197 1.376 . S
C194 C192 1.394 . S
C194 C195 1.369 . S
C194 C198 1.531 . S
C195 C194 1.369 . S
C195 C196 1.410 1_554 S
C195 C203 1.503 . S
C196 C195 1.410 1_556 S
C196 C197 1.392 . S
C196 C199 1.511 . S
C197 C193 1.376 . S
C197 C196 1.392 . S
C197 H209 0.929 . S
C198 C194 1.531 . S
C198 H210 0.960 . S
C198 H211 0.962 . S
C198 H212 0.960 . S
C199 C196 1.511 . S
C199 H213 0.961 . S
C199 H214 0.961 . S
C199 H215 0.961 . S
C200 C201 1.370 1_556 S
C200 C202 1.363 . S
C200 H216 0.931 . S
C201 C200 1.370 1_554 S
C201 C205 1.408 . S
C202 C200 1.363 . S
C202 C203 1.370 1_556 S
C202 C206 1.524 . S
C203 C195 1.503 . S
C203 C202 1.370 1_554 S
C203 C204 1.403 . S
C204 C203 1.403 . S
C204 C205 1.404 . S
C204 C207 1.539 . S
C205 C201 1.408 . S
C205 C204 1.404 . S
C205 H217 0.930 . S
C206 C202 1.524 . S
C206 H218 0.956 . S
C206 H219 0.961 . S
C206 H220 0.961 . S
C207 C204 1.539 . S
C207 H221 0.958 . S
C207 H222 0.961 . S
C207 H223 0.960 . S
H208 C192 0.931 . S
H209 C197 0.929 . S
H210 C198 0.960 . S
H211 C198 0.962 . S
H212 C198 0.960 . S
H213 C199 0.961 . S
H214 C199 0.961 . S
H215 C199 0.961 . S
H216 C200 0.931 . S
H217 C205 0.930 . S
H218 C206 0.956 . S
H219 C206 0.961 . S
H220 C206 0.961 . S
H221 C207 0.958 . S
H222 C207 0.961 . S
H223 C207 0.960 . S
C224 C225 1.391 . S
C224 C226 1.394 . S
C224 H240 0.931 . S
C225 C224 1.391 . S
C225 C229 1.376 . S
C226 C224 1.394 . S
C226 C227 1.369 . S
C226 C230 1.531 . S
C227 C226 1.369 . S
C227 C228 1.410 . S
C227 C235 1.503 . S
C228 C227 1.410 . S
C228 C229 1.392 . S
C228 C231 1.511 . S
C229 C225 1.376 . S
C229 C228 1.392 . S
C229 H241 0.929 . S
C230 C226 1.531 . S
C230 H242 0.960 . S
C230 H243 0.962 . S
C230 H244 0.960 . S
C231 C228 1.511 . S
C231 H245 0.961 . S
C231 H246 0.961 . S
C231 H247 0.961 . S
C232 C233 1.370 . S
C232 C234 1.363 . S
C232 H248 0.931 . S
C233 C232 1.370 . S
C233 C237 1.408 . S
C234 C232 1.363 . S
C234 C235 1.370 . S
C234 C238 1.524 . S
C235 C227 1.503 . S
C235 C234 1.370 . S
C235 C236 1.403 . S
C236 C235 1.403 . S
C236 C237 1.404 . S
C236 C239 1.539 . S
C237 C233 1.408 . S
C237 C236 1.404 . S
C237 H249 0.930 . S
C238 C234 1.524 . S
C238 H250 0.956 . S
C238 H251 0.961 . S
C238 H252 0.961 . S
C239 C236 1.539 . S
C239 H253 0.958 . S
C239 H254 0.961 . S
C239 H255 0.960 . S
H240 C224 0.931 . S
H241 C229 0.929 . S
H242 C230 0.960 . S
H243 C230 0.962 . S
H244 C230 0.960 . S
H245 C231 0.961 . S
H246 C231 0.961 . S
H247 C231 0.961 . S
H248 C232 0.931 . S
H249 C237 0.930 . S
H250 C238 0.956 . S
H251 C238 0.961 . S
H252 C238 0.961 . S
H253 C239 0.958 . S
H254 C239 0.961 . S
H255 C239 0.960 . S
C256 C257 1.391 . S
C256 C258 1.394 . S
C256 H272 0.931 . S
C257 C256 1.391 . S
C257 C261 1.376 . S
C258 C256 1.394 . S
C258 C259 1.369 . S
C258 C262 1.531 . S
C259 C258 1.369 . S
C259 C260 1.410 . S
C259 C267 1.503 . S
C260 C259 1.410 . S
C260 C261 1.392 . S
C260 C263 1.511 . S
C261 C257 1.376 . S
C261 C260 1.392 . S
C261 H273 0.929 . S
C262 C258 1.531 . S
C262 H274 0.960 . S
C262 H275 0.962 . S
C262 H276 0.960 . S
C263 C260 1.511 . S
C263 H277 0.961 . S
C263 H278 0.961 . S
C263 H279 0.961 . S
C264 C265 1.370 . S
C264 C266 1.363 . S
C264 H280 0.931 . S
C265 C264 1.370 . S
C265 C269 1.408 . S
C266 C264 1.363 . S
C266 C267 1.370 . S
C266 C270 1.524 . S
C267 C259 1.503 . S
C267 C266 1.370 . S
C267 C268 1.403 . S
C268 C267 1.403 . S
C268 C269 1.404 . S
C268 C271 1.539 . S
C269 C265 1.408 . S
C269 C268 1.404 . S
C269 H281 0.930 . S
C270 C266 1.524 . S
C270 H282 0.956 . S
C270 H283 0.961 . S
C270 H284 0.961 . S
C271 C268 1.539 . S
C271 H285 0.958 . S
C271 H286 0.961 . S
C271 H287 0.960 . S
H272 C256 0.931 . S
H273 C261 0.929 . S
H274 C262 0.960 . S
H275 C262 0.962 . S
H276 C262 0.960 . S
H277 C263 0.961 . S
H278 C263 0.961 . S
H279 C263 0.961 . S
H280 C264 0.931 . S
H281 C269 0.930 . S
H282 C270 0.956 . S
H283 C270 0.961 . S
H284 C270 0.961 . S
H285 C271 0.958 . S
H286 C271 0.961 . S
H287 C271 0.960 . S
C288 C289 1.391 1_545 S
C288 C290 1.394 . S
C288 H304 0.931 . S
C289 C288 1.391 1_565 S
C289 C293 1.376 1_554 S
C290 C288 1.394 . S
C290 C291 1.369 1_545 S
C290 C294 1.531 . S
C291 C290 1.369 1_565 S
C291 C292 1.410 1_554 S
C291 C299 1.503 . S
C292 C291 1.410 1_556 S
C292 C293 1.392 . S
C292 C295 1.511 . S
C293 C289 1.376 1_556 S
C293 C292 1.392 . S
C293 H305 0.929 . S
C294 C290 1.531 . S
C294 H306 0.960 1_545 S
C294 H307 0.962 . S
C294 H308 0.960 . S
C295 C292 1.511 . S
C295 H309 0.961 . S
C295 H310 0.961 . S
C295 H311 0.961 . S
C296 C297 1.370 1_545 S
C296 C298 1.363 . S
C296 H312 0.931 . S
C297 C296 1.370 1_565 S
C297 C301 1.408 1_556 S
C298 C296 1.363 . S
C298 C299 1.370 1_546 S
C298 C302 1.524 . S
C299 C291 1.503 . S
C299 C298 1.370 1_564 S
C299 C300 1.403 . S
C300 C299 1.403 . S
C300 C301 1.404 . S
C300 C303 1.539 . S
C301 C297 1.408 1_554 S
C301 C300 1.404 . S
C301 H313 0.930 . S
C302 C298 1.524 . S
C302 H314 0.956 1_556 S
C302 H315 0.961 . S
C302 H316 0.961 . S
C303 C300 1.539 . S
C303 H317 0.958 . S
C303 H318 0.961 . S
C303 H319 0.960 . S
H304 C288 0.931 . S
H305 C293 0.929 . S
H306 C294 0.960 1_565 S
H307 C294 0.962 . S
H308 C294 0.960 . S
H309 C295 0.961 . S
H310 C295 0.961 . S
H311 C295 0.961 . S
H312 C296 0.931 . S
H313 C301 0.930 . S
H314 C302 0.956 1_554 S
H315 C302 0.961 . S
H316 C302 0.961 . S
H317 C303 0.958 . S
H318 C303 0.961 . S
H319 C303 0.960 . S
C320 C321 1.391 . S
C320 C322 1.394 1_545 S
C320 H336 0.931 . S
C321 C320 1.391 . S
C321 C325 1.376 . S
C322 C320 1.394 1_565 S
C322 C323 1.369 1_565 S
C322 C326 1.531 . S
C323 C322 1.369 1_545 S
C323 C324 1.410 . S
C323 C331 1.503 1_545 S
C324 C323 1.410 . S
C324 C325 1.392 . S
C324 C327 1.511 . S
C325 C321 1.376 . S
C325 C324 1.392 . S
C325 H337 0.929 . S
C326 C322 1.531 . S
C326 H338 0.960 . S
C326 H339 0.962 . S
C326 H340 0.960 . S
C327 C324 1.511 . S
C327 H341 0.961 . S
C327 H342 0.961 . S
C327 H343 0.961 . S
C328 C329 1.370 . S
C328 C330 1.363 . S
C328 H344 0.931 . S
C329 C328 1.370 . S
C329 C333 1.408 . S
C330 C328 1.363 . S
C330 C331 1.370 . S
C330 C334 1.524 1_565 S
C331 C323 1.503 1_565 S
C331 C330 1.370 . S
C331 C332 1.403 . S
C332 C331 1.403 . S
C332 C333 1.404 . S
C332 C335 1.539 . S
C333 C329 1.408 . S
C333 C332 1.404 . S
C333 H345 0.930 . S
C334 C330 1.524 1_545 S
C334 H346 0.956 1_545 S
C334 H347 0.961 . S
C334 H348 0.952 1_545 S
C335 C332 1.539 . S
C335 H349 0.958 . S
C335 H350 0.961 . S
C335 H351 0.960 . S
H336 C320 0.931 . S
H337 C325 0.929 . S
H338 C326 0.960 . S
H339 C326 0.962 . S
H340 C326 0.960 . S
H341 C327 0.961 . S
H342 C327 0.961 . S
H343 C327 0.961 . S
H344 C328 0.931 . S
H345 C333 0.930 . S
H346 C334 0.956 1_565 S
H347 C334 0.961 . S
H348 C334 0.952 1_565 S
H349 C335 0.958 . S
H350 C335 0.961 . S
H351 C335 0.960 . S
C352 C353 1.389 1_556 S
C352 C354 1.394 . S
C352 H368 0.931 . S
C353 C352 1.389 1_554 S
C353 C357 1.378 . S
C354 C352 1.394 . S
C354 C355 1.369 . S
C354 C358 1.531 . S
C355 C354 1.369 . S
C355 C356 1.410 1_556 S
C355 C363 1.501 1_655 S
C356 C355 1.410 1_554 S
C356 C357 1.392 . S
C356 C359 1.511 . S
C357 C353 1.378 . S
C357 C356 1.392 . S
C357 H369 0.929 . S
C358 C354 1.531 . S
C358 H370 0.976 . S
C358 H371 0.962 . S
C358 H372 0.960 . S
C359 C356 1.511 . S
C359 H373 0.961 . S
C359 H374 0.961 1_655 S
C359 H375 0.961 1_655 S
C360 C361 1.370 1_554 S
C360 C362 1.363 . S
C360 H376 0.931 . S
C361 C360 1.370 1_556 S
C361 C365 1.408 . S
C362 C360 1.363 . S
C362 C363 1.370 1_554 S
C362 C366 1.524 1_455 S
C363 C355 1.501 1_455 S
C363 C362 1.370 1_556 S
C363 C364 1.406 . S
C364 C363 1.406 . S
C364 C365 1.404 . S
C364 C367 1.539 . S
C365 C361 1.408 . S
C365 C364 1.404 . S
C365 H377 0.930 . S
C366 C362 1.524 1_655 S
C366 H378 0.956 1_554 S
C366 H379 0.961 . S
C366 H380 0.961 1_655 S
C367 C364 1.539 . S
C367 H381 0.958 . S
C367 H382 0.961 1_556 S
C367 H383 0.960 1_556 S
H368 C352 0.931 . S
H369 C357 0.929 . S
H370 C358 0.976 . S
H371 C358 0.962 . S
H372 C358 0.960 . S
H373 C359 0.961 . S
H374 C359 0.961 1_455 S
H375 C359 0.961 1_455 S
H376 C360 0.931 . S
H377 C365 0.930 . S
H378 C366 0.956 1_556 S
H379 C366 0.961 . S
H380 C366 0.961 1_455 S
H381 C367 0.958 . S
H382 C367 0.961 1_554 S
H383 C367 0.960 1_554 S
C384 C385 1.391 . S
C384 C386 1.394 . S
C384 H400 0.931 . S
C385 C384 1.391 . S
C385 C389 1.376 . S
C386 C384 1.394 . S
C386 C387 1.369 . S
C386 C390 1.531 . S
C387 C386 1.369 . S
C387 C388 1.410 1_455 S
C387 C395 1.503 1_455 S
C388 C387 1.410 1_655 S
C388 C389 1.392 1_655 S
C388 C391 1.511 . S
C389 C385 1.376 . S
C389 C388 1.392 1_455 S
C389 H401 0.929 . S
C390 C386 1.531 . S
C390 H402 0.960 . S
C390 H403 0.962 . S
C390 H404 0.960 . S
C391 C388 1.511 . S
C391 H405 0.961 . S
C391 H406 0.961 . S
C391 H407 0.961 . S
C392 C393 1.370 . S
C392 C394 1.363 . S
C392 H408 0.931 . S
C393 C392 1.370 . S
C393 C397 1.408 . S
C394 C392 1.363 . S
C394 C395 1.370 . S
C394 C398 1.524 . S
C395 C387 1.503 1_655 S
C395 C394 1.370 . S
C395 C396 1.403 . S
C396 C395 1.403 . S
C396 C397 1.404 . S
C396 C399 1.539 . S
C397 C393 1.408 . S
C397 C396 1.404 . S
C397 H409 0.930 . S
C398 C394 1.524 . S
C398 H410 0.956 1_655 S
C398 H411 0.961 . S
C398 H412 0.961 . S
C399 C396 1.539 . S
C399 H413 0.958 1_655 S
C399 H414 0.961 . S
C399 H415 0.960 . S
H400 C384 0.931 . S
H401 C389 0.929 . S
H402 C390 0.960 . S
H403 C390 0.962 . S
H404 C390 0.960 . S
H405 C391 0.961 . S
H406 C391 0.961 . S
H407 C391 0.961 . S
H408 C392 0.931 . S
H409 C397 0.930 . S
H410 C398 0.956 1_455 S
H411 C398 0.961 . S
H412 C398 0.961 . S
H413 C399 0.958 1_455 S
H414 C399 0.961 . S
H415 C399 0.960 . S
C416 C417 1.393 1_455 S
C416 C418 1.394 . S
C416 H432 0.931 . S
C417 C416 1.393 1_655 S
C417 C421 1.374 1_565 S
C418 C416 1.394 . S
C418 C419 1.369 1_455 S
C418 C422 1.531 . S
C419 C418 1.369 1_655 S
C419 C420 1.410 1_565 S
C419 C427 1.503 . S
C420 C419 1.410 1_545 S
C420 C421 1.392 . S
C420 C423 1.511 . S
C421 C417 1.374 1_545 S
C421 C420 1.392 . S
C421 H433 0.929 . S
C422 C418 1.531 . S
C422 H434 0.960 . S
C422 H435 0.962 . S
C422 H436 0.960 . S
C423 C420 1.511 . S
C423 H437 0.961 . S
C423 H438 0.961 . S
C423 H439 0.961 . S
C424 C425 1.375 1_455 S
C424 C426 1.363 . S
C424 H440 0.931 . S
C425 C424 1.375 1_655 S
C425 C429 1.404 1_545 S
C426 C424 1.363 . S
C426 C427 1.370 1_445 S
C426 C430 1.524 . S
C427 C419 1.503 . S
C427 C426 1.370 1_665 S
C427 C428 1.403 . S
C428 C427 1.403 . S
C428 C429 1.404 . S
C428 C431 1.539 . S
C429 C425 1.404 1_565 S
C429 C428 1.404 . S
C429 H441 0.930 . S
C430 C426 1.524 . S
C430 H442 0.956 . S
C430 H443 0.961 . S
C430 H444 0.961 . S
C431 C428 1.539 . S
C431 H445 0.958 . S
C431 H446 0.961 . S
C431 H447 0.960 . S
H432 C416 0.931 . S
H433 C421 0.929 . S
H434 C422 0.960 . S
H435 C422 0.962 . S
H436 C422 0.960 . S
H437 C423 0.961 . S
H438 C423 0.961 . S
H439 C423 0.961 . S
H440 C424 0.931 . S
H441 C429 0.930 . S
H442 C430 0.956 . S
H443 C430 0.961 . S
H444 C430 0.961 . S
H445 C431 0.958 . S
H446 C431 0.961 . S
H447 C431 0.960 . S
C448 C449 1.391 1_455 S
C448 C450 1.394 . S
C448 H464 0.931 . S
C449 C448 1.391 1_655 S
C449 C453 1.376 1_565 S
C450 C448 1.394 . S
C450 C451 1.369 1_455 S
C450 C454 1.531 . S
C451 C450 1.369 1_655 S
C451 C452 1.410 1_565 S
C451 C459 1.503 . S
C452 C451 1.410 1_545 S
C452 C453 1.392 . S
C452 C455 1.511 . S
C453 C449 1.376 1_545 S
C453 C452 1.392 . S
C453 H465 0.929 . S
C454 C450 1.531 . S
C454 H466 0.960 . S
C454 H467 0.962 . S
C454 H468 0.960 . S
C455 C452 1.511 . S
C455 H469 0.961 . S
C455 H470 0.961 . S
C455 H471 0.961 . S
C456 C457 1.370 1_445 S
C456 C458 1.363 . S
C456 H472 0.931 . S
C457 C456 1.370 1_665 S
C457 C461 1.408 . S
C458 C456 1.363 . S
C458 C459 1.370 1_445 S
C458 C462 1.524 . S
C459 C451 1.503 . S
C459 C458 1.370 1_665 S
C459 C460 1.403 . S
C460 C459 1.403 . S
C460 C461 1.404 . S
C460 C463 1.539 . S
C461 C457 1.408 . S
C461 C460 1.404 . S
C461 H473 0.930 . S
C462 C458 1.524 . S
C462 H474 0.956 . S
C462 H475 0.961 . S
C462 H476 0.961 . S
C463 C460 1.539 . S
C463 H477 0.958 . S
C463 H478 0.961 . S
C463 H479 0.960 . S
H464 C448 0.931 . S
H465 C453 0.929 . S
H466 C454 0.960 . S
H467 C454 0.962 . S
H468 C454 0.960 . S
H469 C455 0.961 . S
H470 C455 0.961 . S
H471 C455 0.961 . S
H472 C456 0.931 . S
H473 C461 0.930 . S
H474 C462 0.956 . S
H475 C462 0.961 . S
H476 C462 0.961 . S
H477 C463 0.958 . S
H478 C463 0.961 . S
H479 C463 0.960 . S
C480 C481 1.391 . S
C480 C482 1.394 . S
C480 H496 0.931 . S
C481 C480 1.391 . S
C481 C485 1.376 . S
C482 C480 1.394 . S
C482 C483 1.369 . S
C482 C486 1.531 . S
C483 C482 1.369 . S
C483 C484 1.410 . S
C483 C491 1.503 . S
C484 C483 1.410 . S
C484 C485 1.392 . S
C484 C487 1.511 . S
C485 C481 1.376 . S
C485 C484 1.392 . S
C485 H497 0.929 . S
C486 C482 1.531 . S
C486 H498 0.960 . S
C486 H499 0.962 . S
C486 H500 0.960 . S
C487 C484 1.511 . S
C487 H501 0.961 . S
C487 H502 0.961 . S
C487 H503 0.961 . S
C488 C489 1.370 . S
C488 C490 1.363 . S
C488 H504 0.931 . S
C489 C488 1.370 . S
C489 C493 1.408 . S
C490 C488 1.363 . S
C490 C491 1.370 . S
C490 C494 1.524 . S
C491 C483 1.503 . S
C491 C490 1.370 . S
C491 C492 1.403 . S
C492 C491 1.403 . S
C492 C493 1.404 . S
C492 C495 1.539 . S
C493 C489 1.408 . S
C493 C492 1.404 . S
C493 H505 0.930 . S
C494 C490 1.524 . S
C494 H506 0.956 . S
C494 H507 0.961 . S
C494 H508 0.961 . S
C495 C492 1.539 . S
C495 H509 0.958 . S
C495 H510 0.961 . S
C495 H511 0.960 . S
H496 C480 0.931 . S
H497 C485 0.929 . S
H498 C486 0.960 . S
H499 C486 0.962 . S
H500 C486 0.960 . S
H501 C487 0.961 . S
H502 C487 0.961 . S
H503 C487 0.961 . S
H504 C488 0.931 . S
H505 C493 0.930 . S
H506 C494 0.956 . S
H507 C494 0.961 . S
H508 C494 0.961 . S
H509 C495 0.958 . S
H510 C495 0.961 . S
H511 C495 0.960 . S
C512 C513 1.391 . S
C512 C514 1.394 . S
C512 H528 0.931 . S
C513 C512 1.391 . S
C513 C517 1.376 . S
C514 C512 1.394 . S
C514 C515 1.369 . S
C514 C518 1.531 . S
C515 C514 1.369 . S
C515 C516 1.410 . S
C515 C523 1.503 . S
C516 C515 1.410 . S
C516 C517 1.392 . S
C516 C519 1.511 . S
C517 C513 1.376 . S
C517 C516 1.392 . S
C517 H529 0.929 . S
C518 C514 1.531 . S
C518 H530 0.960 . S
C518 H531 0.962 . S
C518 H532 0.960 . S
C519 C516 1.511 . S
C519 H533 0.961 . S
C519 H534 0.961 . S
C519 H535 0.961 . S
C520 C521 1.370 . S
C520 C522 1.363 . S
C520 H536 0.931 . S
C521 C520 1.370 . S
C521 C525 1.408 . S
C522 C520 1.363 . S
C522 C523 1.370 . S
C522 C526 1.524 . S
C523 C515 1.503 . S
C523 C522 1.370 . S
C523 C524 1.403 . S
C524 C523 1.403 . S
C524 C525 1.404 . S
C524 C527 1.539 . S
C525 C521 1.408 . S
C525 C524 1.404 . S
C525 H537 0.930 . S
C526 C522 1.524 . S
C526 H538 0.956 . S
C526 H539 0.961 . S
C526 H540 0.961 . S
C527 C524 1.539 . S
C527 H541 0.958 . S
C527 H542 0.961 . S
C527 H543 0.960 . S
H528 C512 0.931 . S
H529 C517 0.929 . S
H530 C518 0.960 . S
H531 C518 0.962 . S
H532 C518 0.960 . S
H533 C519 0.961 . S
H534 C519 0.961 . S
H535 C519 0.961 . S
H536 C520 0.931 . S
H537 C525 0.930 . S
H538 C526 0.956 . S
H539 C526 0.961 . S
H540 C526 0.961 . S
H541 C527 0.958 . S
H542 C527 0.961 . S
H543 C527 0.960 . S
C161 C86 0.144 . S
C169 C15 0.186 . S
C193 C95 0.159 . S
C201 C6 0.173 . S
C225 C59 3.558 . S
C233 C130 3.572 . S
C257 C50 3.557 . S
C265 C139 3.575 . S
C289 C19 4.868 1_565 S
C297 C10 4.874 . S
C321 C55 0.894 . S
C329 C46 0.912 . S
C353 C99 4.868 . S
C361 C90 4.875 . S
C385 C126 0.902 . S
C393 C135 0.908 . S
C417 C49 1.449 1_565 S
C425 C18 1.439 1_545 S
C449 C9 1.471 1_665 S
C457 C58 1.464 1_655 S
C481 C129 1.457 . S
C489 C98 1.439 . S
C513 C138 1.433 . S
C521 C89 1.464 . S
