# Generated by pormake.
# Topology smm, (6)-cn, num edge types: 1
# Building blocks:
#     Node 0, Type 0, BuildingBlock: FUNLAD_clean_sbu_0, # of connection points: 6
#     Node 1, Type 0, BuildingBlock: FUNLAD_clean_sbu_0, # of connection points: 6
#     Node 2, Type 0, BuildingBlock: FUNLAD_clean_sbu_0, # of connection points: 6
#     Node 3, Type 0, BuildingBlock: FUNLAD_clean_sbu_0, # of connection points: 6
#     Node 4, Type 0, BuildingBlock: FUNLAD_clean_sbu_0, # of connection points: 6
#     Node 5, Type 0, BuildingBlock: FUNLAD_clean_sbu_0, # of connection points: 6
#     Node 6, Type 0, BuildingBlock: FUNLAD_clean_sbu_0, # of connection points: 6
#     Node 7, Type 0, BuildingBlock: FUNLAD_clean_sbu_0, # of connection points: 6
#     Node 8, Type 0, BuildingBlock: FUNLAD_clean_sbu_0, # of connection points: 6
#     Edge 9, Type (0, 0), BuildingBlock: XUDNAN_clean_linker_2, # of connection points: 2
#     Edge 10, Type (0, 0), BuildingBlock: XUDNAN_clean_linker_2, # of connection points: 2
#     Edge 11, Type (0, 0), BuildingBlock: XUDNAN_clean_linker_2, # of connection points: 2
#     Edge 12, Type (0, 0), BuildingBlock: XUDNAN_clean_linker_2, # of connection points: 2
#     Edge 13, Type (0, 0), BuildingBlock: XUDNAN_clean_linker_2, # of connection points: 2
#     Edge 14, Type (0, 0), BuildingBlock: XUDNAN_clean_linker_2, # of connection points: 2
#     Edge 15, Type (0, 0), BuildingBlock: XUDNAN_clean_linker_2, # of connection points: 2
#     Edge 16, Type (0, 0), BuildingBlock: XUDNAN_clean_linker_2, # of connection points: 2
#     Edge 17, Type (0, 0), BuildingBlock: XUDNAN_clean_linker_2, # of connection points: 2
#     Edge 18, Type (0, 0), BuildingBlock: XUDNAN_clean_linker_2, # of connection points: 2
#     Edge 19, Type (0, 0), BuildingBlock: XUDNAN_clean_linker_2, # of connection points: 2
#     Edge 20, Type (0, 0), BuildingBlock: XUDNAN_clean_linker_2, # of connection points: 2
#     Edge 21, Type (0, 0), BuildingBlock: XUDNAN_clean_linker_2, # of connection points: 2
#     Edge 22, Type (0, 0), BuildingBlock: XUDNAN_clean_linker_2, # of connection points: 2
#     Edge 23, Type (0, 0), BuildingBlock: XUDNAN_clean_linker_2, # of connection points: 2
#     Edge 24, Type (0, 0), BuildingBlock: XUDNAN_clean_linker_2, # of connection points: 2
#     Edge 25, Type (0, 0), BuildingBlock: XUDNAN_clean_linker_2, # of connection points: 2
#     Edge 26, Type (0, 0), BuildingBlock: XUDNAN_clean_linker_2, # of connection points: 2
#     Edge 27, Type (0, 0), BuildingBlock: XUDNAN_clean_linker_2, # of connection points: 2
#     Edge 28, Type (0, 0), BuildingBlock: XUDNAN_clean_linker_2, # of connection points: 2
#     Edge 29, Type (0, 0), BuildingBlock: XUDNAN_clean_linker_2, # of connection points: 2
#     Edge 30, Type (0, 0), BuildingBlock: XUDNAN_clean_linker_2, # of connection points: 2
#     Edge 31, Type (0, 0), BuildingBlock: XUDNAN_clean_linker_2, # of connection points: 2
#     Edge 32, Type (0, 0), BuildingBlock: XUDNAN_clean_linker_2, # of connection points: 2
#     Edge 33, Type (0, 0), BuildingBlock: XUDNAN_clean_linker_2, # of connection points: 2
#     Edge 34, Type (0, 0), BuildingBlock: XUDNAN_clean_linker_2, # of connection points: 2
#     Edge 35, Type (0, 0), BuildingBlock: XUDNAN_clean_linker_2, # of connection points: 2
# Relax obj value: 0.421
# Max RMSD: 0.281
# Mean RMSD: 0.279
data_MOF--net-smm--node1-FUNLAD_clean_sbu_0--edge1-XUDNAN_clean_linker_2
_symmetry_space_group_name_H-M    P1
_symmetry_Int_Tables_number       1
_symmetry_cell_setting            triclinic
loop_
_symmetry_equiv_pos_as_xyz
'x, y, z'
_cell_length_a     47.572326
_cell_length_b     47.40812
_cell_length_c     21.167209
_cell_angle_alpha  90.493147
_cell_angle_beta   90.421616
_cell_angle_gamma 119.89137
loop_
_atom_site_label
_atom_site_type_symbol
_atom_site_fract_x
_atom_site_fract_y
_atom_site_fract_z
_atom_type_partial_charge
C0 C 0.98591 0.12403 0.02547 0.0
N1 N 0.04404 0.20382 0.15129 0.0
C2 C 0.01894 0.1818 0.18657 0.0
C3 C 0.01893 0.18562 0.25164 0.0
C4 C 0.04446 0.2129 0.28122 0.0
C5 C 0.07018 0.23556 0.24458 0.0
C6 C 0.06963 0.23035 0.17904 0.0
Zn7 Zn 0.03634 0.1974 0.05504 0.0
C8 C 0.07528 0.17772 0.99263 0.0
N9 N 0.0048 0.17806 0.8635 0.0
C10 C 0.97724 0.17483 0.83635 0.0
C11 C 0.03088 0.18435 0.82749 0.0
C12 C 0.03009 0.18776 0.76252 0.0
C13 C 0.00264 0.18581 0.73382 0.0
C14 C 0.97577 0.17902 0.77107 0.0
Zn15 Zn 0.01306 0.18267 0.96003 0.0
O16 O 0.00691 0.14384 0.06543 0.0
C17 C 0.97512 0.20202 0.03583 0.0
O18 O 0.98121 0.13457 0.97413 0.0
H19 H 0.05333 0.18877 0.84892 0.0
H20 H 0.99786 0.16187 0.16432 0.0
H21 H 0.95692 0.17049 0.86541 0.0
O22 O 0.99736 0.20359 0.07101 0.0
O23 O 0.97405 0.19385 0.97788 0.0
H24 H 0.08901 0.24801 0.15031 0.0
O25 O 0.04464 0.23099 0.94218 0.0
O26 O 0.06653 0.2492 0.03569 0.0
O27 O 0.05264 0.17021 0.9516 0.0
O28 O 0.07543 0.19218 0.04313 0.0
C29 C 0.064 0.25437 0.97742 0.0
H30 H 0.99838 0.16805 0.2784 0.0
H31 H 0.09017 0.25706 0.26624 0.0
H32 H 0.05151 0.19367 0.73532 0.0
H33 H 0.95423 0.17755 0.75015 0.0
C34 C 0.85204 0.88901 0.99442 0.0
N35 N 0.81766 0.80252 0.88257 0.0
C36 C 0.80826 0.82088 0.84906 0.0
C37 C 0.80486 0.8179 0.7838 0.0
C38 C 0.81173 0.7962 0.7514 0.0
C39 C 0.82105 0.77709 0.78678 0.0
C40 C 0.82389 0.78066 0.85289 0.0
Zn41 Zn 0.8216 0.81208 0.97822 0.0
C42 C 0.88282 0.83168 0.02789 0.0
N43 N 0.82388 0.84307 0.16601 0.0
C44 C 0.80475 0.85192 0.19844 0.0
C45 C 0.84027 0.8304 0.19682 0.0
C46 C 0.83632 0.82429 0.26106 0.0
C47 C 0.81529 0.83116 0.29475 0.0
C48 C 0.80027 0.84633 0.26371 0.0
Zn49 Zn 0.82139 0.83571 0.06923 0.0
O50 O 0.84791 0.86543 0.95809 0.0
C51 C 0.76091 0.81651 0.00685 0.0
O52 O 0.84059 0.88327 0.04956 0.0
H53 H 0.85418 0.82197 0.17104 0.0
H54 H 0.80338 0.83818 0.87294 0.0
H55 H 0.79125 0.86117 0.17324 0.0
O56 O 0.77714 0.80874 0.97124 0.0
O57 O 0.77271 0.82963 0.06057 0.0
H58 H 0.83138 0.76632 0.88027 0.0
O59 O 0.80167 0.78793 0.09184 0.0
O60 O 0.79785 0.76054 0.00566 0.0
O61 O 0.8714 0.84316 0.06885 0.0
O62 O 0.86492 0.81437 0.98264 0.0
C63 C 0.79333 0.76106 0.06493 0.0
H64 H 0.7968 0.83255 0.759 0.0
H65 H 0.8267 0.76009 0.76364 0.0
H66 H 0.84824 0.81253 0.28357 0.0
H67 H 0.78372 0.85181 0.28863 0.0
C68 C 0.17501 0.04287 0.0346 0.0
N69 N 0.16794 0.97549 0.17464 0.0
C70 C 0.18351 0.00341 0.20982 0.0
C71 C 0.18611 0.00228 0.27502 0.0
C72 C 0.17293 0.97212 0.30474 0.0
C73 C 0.15579 0.94356 0.26792 0.0
C74 C 0.15348 0.94582 0.20239 0.0
Zn75 Zn 0.17448 0.98107 0.07944 0.0
C76 C 0.11804 0.95262 0.00466 0.0
N77 N 0.20057 0.00127 0.88828 0.0
C78 C 0.22048 0.02942 0.85789 0.0
C79 C 0.18535 0.97223 0.85654 0.0
C80 C 0.19045 0.97039 0.79269 0.0
C81 C 0.21091 0.99875 0.76013 0.0
C82 C 0.22575 0.02874 0.79285 0.0
Zn83 Zn 0.19151 0.99739 0.98302 0.0
O84 O 0.17185 0.02593 0.08338 0.0
C85 C 0.24715 0.02453 0.06717 0.0
O86 O 0.18317 0.03589 0.98261 0.0
H87 H 0.16927 0.95008 0.88084 0.0
H88 H 0.19583 0.02676 0.18714 0.0
H89 H 0.23229 0.05223 0.88399 0.0
O90 O 0.22307 0.00555 0.09964 0.0
O91 O 0.24275 0.02949 0.00967 0.0
H92 H 0.14151 0.92393 0.17355 0.0
O93 O 0.1999 0.95908 0.98112 0.0
O94 O 0.17583 0.93552 0.06859 0.0
O95 O 0.13955 0.96485 0.96196 0.0
O96 O 0.12641 0.95666 0.06227 0.0
C97 C 0.1901 0.93541 0.01797 0.0
H98 H 0.20009 0.02486 0.30137 0.0
H99 H 0.14514 0.91982 0.28931 0.0
H100 H 0.17803 0.94693 0.76869 0.0
H101 H 0.24148 0.05114 0.76867 0.0
C102 C 0.73125 0.50552 0.34543 0.0
N103 N 0.67741 0.53169 0.2259 0.0
C104 C 0.70509 0.54525 0.19155 0.0
C105 C 0.70363 0.54318 0.12611 0.0
C106 C 0.67341 0.52634 0.09546 0.0
C107 C 0.64509 0.51363 0.13146 0.0
C108 C 0.64768 0.51683 0.19728 0.0
Zn109 Zn 0.68321 0.5296 0.32064 0.0
C110 C 0.63951 0.46697 0.37194 0.0
N111 N 0.70308 0.52728 0.51493 0.0
C112 C 0.73187 0.53833 0.54623 0.0
C113 C 0.67439 0.51185 0.54581 0.0
C114 C 0.67366 0.50616 0.6099 0.0
C115 C 0.70272 0.51676 0.64332 0.0
C116 C 0.73226 0.53354 0.61145 0.0
Zn117 Zn 0.69798 0.53052 0.42029 0.0
O118 O 0.71524 0.51005 0.30202 0.0
C119 C 0.74156 0.5925 0.36078 0.0
O120 O 0.72878 0.5126 0.40215 0.0
H121 H 0.65173 0.5037 0.52072 0.0
H122 H 0.72855 0.55619 0.21477 0.0
H123 H 0.75437 0.5506 0.52066 0.0
O124 O 0.72173 0.57559 0.31767 0.0
O125 O 0.73829 0.58084 0.41614 0.0
H126 H 0.62602 0.50609 0.22552 0.0
O127 O 0.66791 0.54864 0.44042 0.0
O128 O 0.65207 0.55061 0.344 0.0
O129 O 0.65768 0.48086 0.41987 0.0
O130 O 0.64423 0.48256 0.32132 0.0
C131 C 0.65185 0.55603 0.40321 0.0
H132 H 0.726 0.55278 0.10007 0.0
H133 H 0.62135 0.50048 0.10912 0.0
H134 H 0.65048 0.49384 0.63337 0.0
H135 H 0.75513 0.54232 0.63642 0.0
C136 C 0.5119 0.23116 0.33415 0.0
N137 N 0.49026 0.16031 0.19654 0.0
C138 C 0.47958 0.17749 0.16282 0.0
C139 C 0.48276 0.17926 0.09759 0.0
C140 C 0.49751 0.16361 0.06769 0.0
C141 C 0.5065 0.14445 0.10296 0.0
C142 C 0.50234 0.14289 0.16799 0.0
Zn143 Zn 0.49378 0.16557 0.29059 0.0
C144 C 0.56043 0.18567 0.33018 0.0
N145 N 0.50213 0.17393 0.48354 0.0
C146 C 0.48633 0.18668 0.51569 0.0
C147 C 0.52281 0.16619 0.51295 0.0
C148 C 0.52853 0.17142 0.57743 0.0
C149 C 0.51302 0.18502 0.61179 0.0
C150 C 0.49152 0.19254 0.58047 0.0
Zn151 Zn 0.49812 0.16862 0.38956 0.0
O152 O 0.51391 0.21797 0.28299 0.0
C153 C 0.43118 0.14782 0.34022 0.0
O154 O 0.50303 0.21433 0.38364 0.0
H155 H 0.53515 0.15616 0.48625 0.0
H156 H 0.47021 0.19125 0.18681 0.0
H157 H 0.47013 0.19275 0.49088 0.0
O158 O 0.44838 0.15981 0.2921 0.0
O159 O 0.44475 0.1459 0.39109 0.0
H160 H 0.51044 0.12927 0.19604 0.0
O161 O 0.49324 0.12316 0.39865 0.0
O162 O 0.47212 0.11255 0.30363 0.0
O163 O 0.55049 0.19029 0.38284 0.0
O164 O 0.54008 0.17201 0.28569 0.0
C165 C 0.47726 0.10247 0.35591 0.0
H166 H 0.47572 0.19434 0.07138 0.0
H167 H 0.51769 0.13189 0.08076 0.0
H168 H 0.54467 0.16456 0.60018 0.0
H169 H 0.47918 0.20313 0.60558 0.0
C170 C 0.79762 0.30125 0.30206 0.0
N171 N 0.87407 0.34965 0.17604 0.0
C172 C 0.85489 0.32158 0.14327 0.0
C173 C 0.84932 0.32226 0.07928 0.0
C174 C 0.86352 0.3521 0.04854 0.0
C175 C 0.88499 0.38064 0.08188 0.0
C176 C 0.88983 0.37887 0.14667 0.0
Zn177 Zn 0.87023 0.34507 0.27075 0.0
C178 C 0.85553 0.39211 0.32649 0.0
N179 N 0.85189 0.32751 0.46381 0.0
C180 C 0.83165 0.29895 0.49238 0.0
C181 C 0.86849 0.35585 0.49728 0.0
C182 C 0.86515 0.35634 0.56208 0.0
C183 C 0.8443 0.32744 0.59286 0.0
C184 C 0.82731 0.29838 0.55764 0.0
Zn185 Zn 0.85738 0.33168 0.36966 0.0
O186 O 0.81727 0.31595 0.25746 0.0
C187 C 0.87064 0.28422 0.30535 0.0
O188 O 0.80865 0.30301 0.35722 0.0
H189 H 0.88403 0.37839 0.47356 0.0
H190 H 0.84215 0.29863 0.1673 0.0
H191 H 0.81856 0.27682 0.46449 0.0
O192 O 0.87431 0.30406 0.26255 0.0
O193 O 0.86367 0.2889 0.36116 0.0
H194 H 0.90467 0.40088 0.17394 0.0
O195 O 0.90657 0.3603 0.38523 0.0
O196 O 0.92258 0.37348 0.28772 0.0
O197 O 0.85005 0.37367 0.37372 0.0
O198 O 0.86631 0.38639 0.27653 0.0
C199 C 0.92925 0.37477 0.34653 0.0
H200 H 0.83311 0.29974 0.05442 0.0
H201 H 0.89647 0.40401 0.05889 0.0
H202 H 0.87819 0.37928 0.5877 0.0
H203 H 0.81104 0.27565 0.58028 0.0
C204 C 0.29167 0.78672 0.67047 0.0
N205 N 0.34496 0.86603 0.79942 0.0
C206 C 0.31954 0.84306 0.83271 0.0
C207 C 0.31833 0.84564 0.89792 0.0
C208 C 0.34322 0.87241 0.93026 0.0
C209 C 0.3695 0.89583 0.89542 0.0
C210 C 0.36995 0.89208 0.82952 0.0
Zn211 Zn 0.33769 0.86119 0.70256 0.0
C212 C 0.37762 0.84684 0.63361 0.0
N213 N 0.30294 0.84293 0.51364 0.0
C214 C 0.27366 0.82822 0.48294 0.0
C215 C 0.33094 0.86064 0.48119 0.0
C216 C 0.33037 0.86503 0.41659 0.0
C217 C 0.30078 0.85095 0.38402 0.0
C218 C 0.27203 0.83179 0.41723 0.0
Zn219 Zn 0.31087 0.84567 0.61031 0.0
O220 O 0.31192 0.80769 0.70994 0.0
C221 C 0.27191 0.85918 0.69133 0.0
O222 O 0.28421 0.79616 0.62053 0.0
H223 H 0.35405 0.87276 0.5057 0.0
H224 H 0.29894 0.82341 0.80861 0.0
H225 H 0.25164 0.81454 0.50943 0.0
O226 O 0.297 0.86363 0.72056 0.0
O227 O 0.26801 0.85001 0.63347 0.0
H228 H 0.38956 0.91054 0.80237 0.0
O229 O 0.33694 0.89514 0.59831 0.0
O230 O 0.3646 0.91408 0.68645 0.0
O231 O 0.35437 0.84043 0.59471 0.0
O232 O 0.37812 0.8588 0.68756 0.0
C233 C 0.35712 0.91909 0.63129 0.0
H234 H 0.29714 0.82754 0.92239 0.0
H235 H 0.38915 0.91698 0.91868 0.0
H236 H 0.35296 0.87994 0.39235 0.0
H237 H 0.24872 0.82065 0.39311 0.0
C238 C 0.19492 0.5513 0.62523 0.0
N239 N 0.17717 0.4766 0.49869 0.0
C240 C 0.16461 0.49313 0.46842 0.0
C241 C 0.16924 0.49898 0.40445 0.0
C242 C 0.18734 0.48814 0.37101 0.0
C243 C 0.19842 0.46933 0.40178 0.0
C244 C 0.19314 0.46391 0.46666 0.0
Zn245 Zn 0.17693 0.48029 0.59407 0.0
C246 C 0.24047 0.50566 0.645 0.0
N247 N 0.17675 0.50011 0.78574 0.0
C248 C 0.16195 0.51462 0.8156 0.0
C249 C 0.19485 0.48997 0.81808 0.0
C250 C 0.19822 0.49372 0.88315 0.0
C251 C 0.18323 0.50848 0.91522 0.0
C252 C 0.16512 0.51932 0.88107 0.0
Zn253 Zn 0.17415 0.49295 0.69143 0.0
O254 O 0.1968 0.53281 0.58355 0.0
C255 C 0.11096 0.4679 0.63178 0.0
O256 O 0.18232 0.53956 0.67778 0.0
H257 H 0.2068 0.47892 0.79337 0.0
H258 H 0.15266 0.50376 0.49444 0.0
H259 H 0.14782 0.52256 0.78865 0.0
O260 O 0.12972 0.47102 0.58726 0.0
O261 O 0.12187 0.47347 0.68839 0.0
H262 H 0.20327 0.45122 0.49189 0.0
O263 O 0.16596 0.44651 0.70767 0.0
O264 O 0.159 0.42861 0.60965 0.0
O265 O 0.22694 0.51237 0.68997 0.0
O266 O 0.22334 0.48883 0.59857 0.0
C267 C 0.15914 0.42359 0.66879 0.0
H268 H 0.15985 0.51307 0.3818 0.0
H269 H 0.21237 0.46049 0.37683 0.0
H270 H 0.21273 0.4855 0.90815 0.0
H271 H 0.15324 0.5308 0.90482 0.0
C272 C 0.51422 0.74645 0.64196 0.0
N273 N 0.52015 0.69358 0.79469 0.0
C274 C 0.52707 0.72169 0.82525 0.0
C275 C 0.52179 0.72186 0.88948 0.0
C276 C 0.50951 0.69288 0.92309 0.0
C277 C 0.50265 0.66407 0.89089 0.0
C278 C 0.50801 0.66494 0.82586 0.0
Zn279 Zn 0.52962 0.69777 0.70116 0.0
C280 C 0.47408 0.65399 0.62567 0.0
N281 N 0.55199 0.71275 0.50751 0.0
C282 C 0.56443 0.74246 0.48049 0.0
C283 C 0.54042 0.68506 0.4719 0.0
C284 C 0.53904 0.68635 0.40646 0.0
C285 C 0.54923 0.71636 0.37766 0.0
C286 C 0.5631 0.74482 0.41504 0.0
Zn287 Zn 0.54325 0.70765 0.60128 0.0
O288 O 0.51078 0.73122 0.69318 0.0
C289 C 0.59779 0.75142 0.68552 0.0
O290 O 0.52872 0.74193 0.59669 0.0
H291 H 0.53024 0.66164 0.49431 0.0
H292 H 0.53723 0.74432 0.79998 0.0
H293 H 0.57352 0.76412 0.50984 0.0
O294 O 0.57508 0.7353 0.72322 0.0
O295 O 0.59303 0.74544 0.62627 0.0
H296 H 0.50276 0.64292 0.80043 0.0
O297 O 0.55734 0.67347 0.60281 0.0
O298 O 0.54848 0.66367 0.70398 0.0
O299 O 0.49328 0.66953 0.58096 0.0
O300 O 0.48404 0.66049 0.68227 0.0
C301 C 0.55759 0.65813 0.65093 0.0
H302 H 0.52817 0.74472 0.91297 0.0
H303 H 0.49331 0.6413 0.91567 0.0
H304 H 0.52789 0.66385 0.37916 0.0
H305 H 0.57141 0.76841 0.39411 0.0
H306 H 0.04404 0.28182 0.89001 0.0
H307 H 0.13009 0.29453 0.98735 0.0
H308 H 0.16436 0.33504 0.9075 0.0
H309 H 0.07118 0.28437 0.73596 0.0
H310 H 0.05269 0.30628 0.7032 0.0
H311 H 0.03509 0.28077 0.77071 0.0
H312 H 0.03878 0.32922 0.83555 0.0
H313 H 0.05496 0.35445 0.7673 0.0
H314 H 0.077 0.3667 0.8414 0.0
H315 H 0.18859 0.3711 0.81146 0.0
H316 H 0.20148 0.40882 0.72246 0.0
H317 H 0.09917 0.37161 0.68782 0.0
C318 C 0.07017 0.29405 0.89584 0.0
C319 C 0.08452 0.28556 0.94551 0.0
C320 C 0.11869 0.30138 0.95077 0.0
C321 C 0.13823 0.32389 0.90484 0.0
C322 C 0.12311 0.33019 0.85429 0.0
C323 C 0.08984 0.31636 0.85065 0.0
C324 C 0.07933 0.32705 0.79202 0.0
C325 C 0.05834 0.29788 0.74789 0.0
C326 C 0.06148 0.34546 0.81015 0.0
C327 C 0.11196 0.34943 0.76305 0.0
C328 C 0.13688 0.35043 0.79905 0.0
C329 C 0.16923 0.37029 0.78289 0.0
C330 C 0.17634 0.39117 0.73139 0.0
C331 C 0.1513 0.39224 0.69673 0.0
C332 C 0.11869 0.3702 0.71146 0.0
H333 H 0.71583 0.76166 0.95139 0.0
H334 H 0.74012 0.86097 0.99132 0.0
H335 H 0.70302 0.85742 0.90428 0.0
H336 H 0.72197 0.77079 0.79117 0.0
H337 H 0.69012 0.73023 0.77087 0.0
H338 H 0.71223 0.73773 0.84426 0.0
H339 H 0.65909 0.71375 0.90847 0.0
H340 H 0.63669 0.70436 0.83506 0.0
H341 H 0.63117 0.72843 0.8948 0.0
H342 H 0.6651 0.84259 0.80493 0.0
H343 H 0.62664 0.81635 0.7148 0.0
H344 H 0.63615 0.73078 0.73345 0.0
C345 C 0.71197 0.7821 0.94409 0.0
C346 C 0.73005 0.81126 0.97933 0.0
C347 C 0.72555 0.83801 0.96657 0.0
C348 C 0.70508 0.83636 0.91619 0.0
C349 C 0.68982 0.80799 0.87883 0.0
C350 C 0.69282 0.78122 0.89308 0.0
C351 C 0.67684 0.75464 0.84332 0.0
C352 C 0.70179 0.74798 0.8105 0.0
C353 C 0.64931 0.72346 0.87212 0.0
C354 C 0.66393 0.77027 0.79862 0.0
C355 C 0.67138 0.80098 0.81962 0.0
C356 C 0.65969 0.81882 0.78772 0.0
C357 C 0.63844 0.80409 0.73563 0.0
C358 C 0.62975 0.77221 0.71525 0.0
C359 C 0.64377 0.75583 0.74584 0.0
H360 H 0.24596 0.93736 0.99622 0.0
H361 H 0.14227 0.87596 0.97526 0.0
H362 H 0.15033 0.84743 0.88443 0.0
H363 H 0.25791 0.9538 0.84344 0.0
H364 H 0.29684 0.95622 0.83781 0.0
H365 H 0.28417 0.96457 0.91199 0.0
H366 H 0.2913 0.91996 0.96784 0.0
H367 H 0.30602 0.9128 0.89477 0.0
H368 H 0.27258 0.87954 0.93388 0.0
H369 H 0.17175 0.83087 0.78346 0.0
H370 H 0.2039 0.82593 0.69553 0.0
H371 H 0.2909 0.90665 0.77737 0.0
C372 C 0.22507 0.91628 0.97549 0.0
C373 C 0.19359 0.90804 0.99433 0.0
C374 C 0.16666 0.88167 0.96346 0.0
C375 C 0.17107 0.86587 0.91073 0.0
C376 C 0.20257 0.87695 0.88936 0.0
C377 C 0.22909 0.90134 0.92184 0.0
C378 C 0.26001 0.91271 0.88563 0.0
C379 C 0.27561 0.94895 0.86875 0.0
C380 C 0.28387 0.90582 0.9227 0.0
C381 C 0.24697 0.89132 0.82737 0.0
C382 C 0.21398 0.87026 0.82999 0.0
C383 C 0.19761 0.84744 0.78119 0.0
C384 C 0.21585 0.84515 0.73066 0.0
C385 C 0.24983 0.86616 0.72902 0.0
C386 C 0.26488 0.89033 0.77675 0.0
H387 H 0.39504 0.16383 0.26449 0.0
H388 H 0.3897 0.08667 0.38095 0.0
H389 H 0.3436 0.04623 0.31581 0.0
H390 H 0.30367 0.12376 0.23276 0.0
H391 H 0.3108 0.13997 0.15408 0.0
H392 H 0.33911 0.16242 0.21711 0.0
H393 H 0.38505 0.16423 0.1493 0.0
H394 H 0.35674 0.14017 0.08757 0.0
H395 H 0.38242 0.12667 0.12333 0.0
H396 H 0.30781 0.01442 0.22443 0.0
H397 H 0.26932 0.99224 0.13481 0.0
H398 H 0.29388 0.08984 0.0808 0.0
C399 C 0.38281 0.13861 0.27868 0.0
C400 C 0.39601 0.12826 0.32754 0.0
C401 C 0.37989 0.09508 0.34405 0.0
C402 C 0.35404 0.07192 0.30651 0.0
C403 C 0.34398 0.08266 0.25437 0.0
C404 C 0.35665 0.11531 0.24235 0.0
C405 C 0.34197 0.12031 0.18233 0.0
C406 C 0.32273 0.13763 0.19748 0.0
C407 C 0.36811 0.13895 0.13274 0.0
C408 C 0.31973 0.08532 0.16133 0.0
C409 C 0.32191 0.06414 0.20309 0.0
C410 C 0.30528 0.03073 0.19243 0.0
C411 C 0.28394 0.01843 0.14065 0.0
C412 C 0.27875 0.03931 0.10063 0.0
C413 C 0.2978 0.07334 0.10971 0.0
H414 H 0.92719 0.28424 0.30932 0.0
H415 H 0.82722 0.22794 0.24734 0.0
H416 H 0.84223 0.19876 0.16918 0.0
H417 H 0.9592 0.29951 0.16571 0.0
H418 H 0.99504 0.29701 0.18309 0.0
H419 H 0.97601 0.30754 0.24479 0.0
H420 H 0.9697 0.25966 0.31295 0.0
H421 H 0.99006 0.24972 0.25278 0.0
H422 H 0.95066 0.21918 0.27914 0.0
H423 H 0.87072 0.18274 0.0841 0.0
H424 H 0.90874 0.17564 0.01401 0.0
H425 H 0.98936 0.24531 0.13049 0.0
C426 C 0.90819 0.26409 0.28255 0.0
C427 C 0.87584 0.2573 0.2863 0.0
C428 C 0.85188 0.23238 0.24721 0.0
C429 C 0.86034 0.21614 0.20179 0.0
C430 C 0.89293 0.22509 0.19609 0.0
C431 C 0.91635 0.24791 0.2368 0.0
C432 C 0.95 0.25581 0.21734 0.0
C433 C 0.97128 0.29211 0.20182 0.0
C434 C 0.96604 0.24546 0.26858 0.0
C435 C 0.942 0.23471 0.15852 0.0
C436 C 0.90907 0.21693 0.1467 0.0
C437 C 0.89656 0.19632 0.09351 0.0
C438 C 0.91826 0.19279 0.05326 0.0
C439 C 0.95196 0.20999 0.06654 0.0
C440 C 0.96368 0.23174 0.11896 0.0
H441 H 0.80386 0.70776 0.07139 0.0
H442 H 0.75242 0.75186 0.15843 0.0
H443 H 0.7455 0.72094 0.25477 0.0
H444 H 0.74795 0.62604 0.14161 0.0
H445 H 0.77992 0.61631 0.14878 0.0
H446 H 0.78093 0.64243 0.08657 0.0
H447 H 0.83843 0.68598 0.12582 0.0
H448 H 0.83663 0.66052 0.19021 0.0
H449 H 0.84405 0.7011 0.20606 0.0
H450 H 0.74963 0.69103 0.34659 0.0
H451 H 0.74278 0.64552 0.41284 0.0
H452 H 0.78474 0.61473 0.26569 0.0
C453 C 0.79008 0.70989 0.10975 0.0
C454 C 0.77916 0.73271 0.1075 0.0
C455 C 0.7613 0.73478 0.15913 0.0
C456 C 0.75771 0.71776 0.21471 0.0
C457 C 0.77097 0.69756 0.21765 0.0
C458 C 0.78501 0.69188 0.16557 0.0
C459 C 0.7937 0.66581 0.1803 0.0
C460 C 0.77448 0.63588 0.13677 0.0
C461 C 0.83039 0.67917 0.17528 0.0
C462 C 0.78274 0.65838 0.24861 0.0
C463 C 0.7708 0.6779 0.26971 0.0
C464 C 0.75856 0.67525 0.33049 0.0
C465 C 0.75539 0.64974 0.36855 0.0
C466 C 0.76329 0.62671 0.3446 0.0
C467 C 0.77931 0.63254 0.28582 0.0
H468 H 0.07718 0.49234 0.5707 0.0
H469 H 0.06984 0.40417 0.64512 0.0
H470 H 0.0258 0.3715 0.56857 0.0
H471 H 0.98582 0.45447 0.53914 0.0
H472 H 0.99324 0.47912 0.47013 0.0
H473 H 0.02104 0.49454 0.53644 0.0
H474 H 0.06765 0.50518 0.46051 0.0
H475 H 0.03978 0.48801 0.39463 0.0
H476 H 0.06568 0.47176 0.41552 0.0
H477 H 0.99217 0.35012 0.46993 0.0
H478 H 0.95326 0.33722 0.382 0.0
H479 H 0.97592 0.43775 0.37855 0.0
C480 C 0.06472 0.46606 0.57367 0.0
C481 C 0.07635 0.45066 0.61483 0.0
C482 C 0.06055 0.4163 0.6155 0.0
C483 C 0.03606 0.39763 0.57107 0.0
C484 C 0.02698 0.41371 0.52774 0.0
C485 C 0.03937 0.44694 0.53095 0.0
C486 C 0.02477 0.4579 0.47912 0.0
C487 C 0.00503 0.47235 0.50792 0.0
C488 C 0.05105 0.48215 0.43486 0.0
C489 C 0.00298 0.42575 0.44523 0.0
C490 C 0.00556 0.40085 0.47311 0.0
C491 C 0.98938 0.36927 0.44863 0.0
C492 C 0.9679 0.36233 0.39765 0.0
C493 C 0.96202 0.38656 0.37271 0.0
C494 C 0.98062 0.41897 0.3954 0.0
H495 H 0.53213 0.60029 0.58762 0.0
H496 H 0.61828 0.67382 0.68538 0.0
H497 H 0.65157 0.65683 0.62466 0.0
H498 H 0.56078 0.53767 0.57561 0.0
H499 H 0.54117 0.52371 0.49947 0.0
H500 H 0.52404 0.53845 0.5579 0.0
H501 H 0.5252 0.57931 0.47627 0.0
H502 H 0.54389 0.566 0.4186 0.0
H503 H 0.56321 0.60831 0.44186 0.0
H504 H 0.67598 0.64097 0.53812 0.0
H505 H 0.69049 0.61359 0.45641 0.0
H506 H 0.58881 0.54517 0.41976 0.0
C507 C 0.5577 0.61121 0.59924 0.0
C508 C 0.57261 0.6378 0.6425 0.0
C509 C 0.60632 0.65272 0.65424 0.0
C510 C 0.62546 0.64366 0.61888 0.0
C511 C 0.61032 0.61907 0.57316 0.0
C512 C 0.57707 0.60182 0.56538 0.0
C513 C 0.5672 0.57669 0.51209 0.0
C514 C 0.54712 0.54207 0.5378 0.0
C515 C 0.54878 0.58297 0.4591 0.0
C516 C 0.60022 0.58324 0.48986 0.0
C517 C 0.6246 0.60843 0.52501 0.0
C518 C 0.65712 0.62071 0.51142 0.0
C519 C 0.6651 0.6054 0.4639 0.0
C520 C 0.64088 0.57755 0.43107 0.0
C521 C 0.60784 0.56679 0.44302 0.0
H522 H 0.49352 0.07061 0.44351 0.0
H523 H 0.41526 0.05885 0.31969 0.0
H524 H 0.37603 0.01395 0.38574 0.0
H525 H 0.4571 0.98038 0.47424 0.0
H526 H 0.47288 0.9883 0.55408 0.0
H527 H 0.49461 0.01708 0.49298 0.0
H528 H 0.49353 0.06213 0.56114 0.0
H529 H 0.47045 0.03325 0.6211 0.0
H530 H 0.45512 0.05732 0.58519 0.0
H531 H 0.3451 0.97895 0.47607 0.0
H532 H 0.32386 0.94006 0.56293 0.0
H533 H 0.42191 0.9683 0.62303 0.0
C534 C 0.4683 0.05752 0.42859 0.0
C535 C 0.45736 0.06839 0.37659 0.0
C536 C 0.4242 0.05091 0.35896 0.0
C537 C 0.40169 0.0257 0.39687 0.0
C538 C 0.41298 0.0175 0.45081 0.0
C539 C 0.44562 0.03161 0.46487 0.0
C540 C 0.45121 0.01758 0.52505 0.0
C541 C 0.47006 0.99976 0.51072 0.0
C542 C 0.46861 0.04417 0.57611 0.0
C543 C 0.41649 0.99393 0.54358 0.0
C544 C 0.39499 0.99513 0.50073 0.0
C545 C 0.36169 0.97717 0.50887 0.0
C546 C 0.3499 0.95551 0.55912 0.0
C547 C 0.37116 0.95103 0.59986 0.0
C548 C 0.40504 0.97148 0.5935 0.0
H549 H 0.12456 0.04071 0.97117 0.0
H550 H 0.20472 0.10133 0.09767 0.0
H551 H 0.19144 0.14562 0.08818 0.0
H552 H 0.13029 0.10359 0.8683 0.0
H553 H 0.08705 0.0866 0.86035 0.0
H554 H 0.10362 0.0603 0.8745 0.0
H555 H 0.06809 0.03726 0.97406 0.0
H556 H 0.05088 0.06282 0.95855 0.0
H557 H 0.06948 0.06507 0.03431 0.0
H558 H 0.16968 0.18275 0.06416 0.0
H559 H 0.13571 0.20745 0.04365 0.0
H560 H 0.06757 0.12161 0.93625 0.0
C561 C 0.13916 0.06337 -0.00304 0.0
C562 C 0.16564 0.068 0.0351 0.0
C563 C 0.18425 0.09757 0.06865 0.0
C564 C 0.17705 0.1228 0.06292 0.0
C565 C 0.15104 0.11771 0.02398 0.0
C566 C 0.13192 0.08847 0.99267 0.0
C567 C 0.10398 0.0884 0.95751 0.0
C568 C 0.1064 0.08449 0.88591 0.0
C569 C 0.07118 0.06182 0.98265 0.0
C570 C 0.11014 0.12217 0.9743 0.0
C571 C 0.13782 0.13882 0.01161 0.0
C572 C 0.14803 0.16997 0.035 0.0
C573 C 0.12863 0.18386 0.02276 0.0
C574 C 0.09912 0.16651 0.98804 0.0
C575 C 0.09036 0.13572 0.96161 0.0
H576 H 0.84217 0.94073 0.00067 0.0
H577 H 0.91498 0.91357 0.96287 0.0
H578 H 0.95797 0.97142 0.97275 0.0
H579 H 0.88399 0.01936 0.91326 0.0
H580 H 0.87045 0.03892 0.96889 0.0
H581 H 0.84594 0.9959 0.95293 0.0
H582 H 0.84598 0.98532 0.07282 0.0
H583 H 0.87154 0.02817 0.08894 0.0
H584 H 0.88406 0.99987 0.11435 0.0
H585 H 0.99309 0.0307 0.00411 0.0
H586 H 0.01757 0.08997 0.02468 0.0
H587 H 0.92169 0.07906 0.0327 0.0
C588 C 0.86708 0.94724 0.99193 0.0
C589 C 0.87538 0.923 0.97981 0.0
C590 C 0.90819 0.93203 0.97036 0.0
C591 C 0.93275 0.96468 0.97707 0.0
C592 C 0.9239 0.98787 0.99216 0.0
C593 C 0.89177 0.97976 -0.00305 0.0
C594 C 0.88871 0.00935 0.01261 0.0
C595 C 0.87125 0.0163 0.9587 0.0
C596 C 0.87156 0.00542 0.07594 0.0
C597 C 0.92414 0.03526 0.01743 0.0
C598 C 0.94407 0.02227 0.00677 0.0
C599 C 0.97775 0.04125 0.01153 0.0
C600 C 0.99141 0.07469 0.0243 0.0
C601 C 0.97138 0.08868 0.03129 0.0
C602 C 0.93739 0.06868 0.02861 0.0
H603 H 0.93349 0.88516 0.08567 0.0
H604 H 0.9108 0.80339 0.96022 0.0
H605 H 0.96859 0.82752 0.93446 0.0
H606 H 0.9934 0.94578 0.99117 0.0
H607 H 0.01973 0.96924 0.05596 0.0
H608 H 0.9767 0.9448 0.06785 0.0
H609 H 0.98653 0.91426 0.15898 0.0
H610 H 0.02958 0.93923 0.14825 0.0
H611 H 0.01092 0.89552 0.14493 0.0
H612 H 0.02831 0.86275 0.91515 0.0
H613 H 0.0875 0.90206 0.92001 0.0
H614 H 0.07096 0.95945 0.05957 0.0
C615 C 0.9408 0.87187 0.05432 0.0
C616 C 0.91768 0.84242 0.02505 0.0
C617 C 0.92815 0.82604 0.98325 0.0
C618 C 0.96088 0.83964 0.96788 0.0
C619 C 0.98288 0.86951 0.99502 0.0
C620 C 0.97345 0.88506 0.0385 0.0
C621 C 0.00202 0.9169 0.06094 0.0
C622 C 0.99768 0.94588 0.04291 0.0
C623 C 0.0076 0.91643 0.13251 0.0
C624 C 0.02886 0.91665 0.02347 0.0
C625 C 0.01732 0.88942 0.98484 0.0
C626 C 0.03773 0.88412 0.94544 0.0
C627 C 0.07112 0.90664 0.9478 0.0
C628 C 0.08336 0.93358 0.98982 0.0
C629 C 0.06192 0.93899 0.02682 0.0
H630 H 0.74582 0.46876 0.42239 0.0
H631 H 0.76476 0.51205 0.23673 0.0
H632 H 0.80313 0.49202 0.21657 0.0
H633 H 0.82612 0.48318 0.45869 0.0
H634 H 0.81195 0.44443 0.4959 0.0
H635 H 0.78738 0.46356 0.49714 0.0
H636 H 0.73939 0.41203 0.44573 0.0
H637 H 0.76365 0.3926 0.4452 0.0
H638 H 0.74554 0.39609 0.37275 0.0
H639 H 0.83962 0.46792 0.21769 0.0
H640 H 0.86562 0.43471 0.23199 0.0
H641 H 0.82047 0.40427 0.41524 0.0
C642 C 0.75819 0.47415 0.37758 0.0
C643 C 0.7527 0.4922 0.33121 0.0
C644 C 0.76873 0.49825 0.27272 0.0
C645 C 0.79069 0.4872 0.26117 0.0
C646 C 0.79588 0.46981 0.30831 0.0
C647 C 0.77963 0.46278 0.36486 0.0
C648 C 0.78775 0.44165 0.40582 0.0
C649 C 0.80429 0.45927 0.46807 0.0
C650 C 0.75727 0.40864 0.41806 0.0
C651 C 0.81121 0.43787 0.36347 0.0
C652 C 0.81592 0.45476 0.30794 0.0
C653 C 0.83605 0.45456 0.26089 0.0
C654 C 0.85082 0.43566 0.26969 0.0
C655 C 0.84509 0.41678 0.32481 0.0
C656 C 0.82563 0.41863 0.37295 0.0
H657 H 0.62606 0.4213 0.28038 0.0
H658 H 0.59771 0.43496 0.46726 0.0
H659 H 0.55616 0.37646 0.46945 0.0
H660 H 0.54616 0.35763 0.22104 0.0
H661 H 0.56254 0.33515 0.18194 0.0
H662 H 0.58683 0.37873 0.19091 0.0
H663 H 0.63201 0.37247 0.24689 0.0
H664 H 0.608 0.32898 0.23766 0.0
H665 H 0.62214 0.34686 0.3151 0.0
H666 H 0.51982 0.31728 0.45332 0.0
H667 H 0.49605 0.25912 0.42883 0.0
H668 H 0.55082 0.28205 0.25517 0.0
C669 C 0.61059 0.41196 0.32115 0.0
C670 C 0.61443 0.43245 0.3733 0.0
C671 C 0.59476 0.4195 0.42684 0.0
C672 C 0.57104 0.38647 0.42818 0.0
C673 C 0.56784 0.36682 0.37602 0.0
C674 C 0.58743 0.37889 0.32393 0.0
C675 C 0.5817 0.35182 0.27767 0.0
C676 C 0.56852 0.3561 0.21412 0.0
C677 C 0.61281 0.34993 0.26885 0.0
C678 C 0.5561 0.32251 0.31236 0.0
C679 C 0.54801 0.33198 0.36819 0.0
C680 C 0.5259 0.30956 0.40977 0.0
C681 C 0.51256 0.27652 0.39529 0.0
C682 C 0.52171 0.26599 0.34014 0.0
C683 C 0.54308 0.28935 0.29718 0.0
H684 H 0.61355 0.22045 0.40956 0.0
H685 H 0.58602 0.18046 0.21906 0.0
H686 H 0.6434 0.20614 0.19044 0.0
H687 H 0.68059 0.29674 0.36676 0.0
H688 H 0.70591 0.29934 0.43286 0.0
H689 H 0.66245 0.27705 0.43984 0.0
H690 H 0.66455 0.22552 0.47236 0.0
H691 H 0.70806 0.24777 0.46616 0.0
H692 H 0.68462 0.21034 0.42203 0.0
H693 H 0.70387 0.23914 0.17957 0.0
H694 H 0.76366 0.27254 0.19219 0.0
H695 H 0.75174 0.28886 0.38982 0.0
C696 C 0.61962 0.21676 0.36215 0.0
C697 C 0.59518 0.19847 0.31673 0.0
C698 C 0.6042 0.19435 0.25495 0.0
C699 C 0.6368 0.20894 0.23795 0.0
C700 C 0.66026 0.22739 0.28327 0.0
C701 C 0.65218 0.23098 0.34435 0.0
C702 C 0.68226 0.25201 0.38392 0.0
C703 C 0.68282 0.28312 0.40719 0.0
C704 C 0.68503 0.23275 0.43939 0.0
C705 C 0.70829 0.25963 0.33546 0.0
C706 C 0.69516 0.24553 0.27748 0.0
C707 C 0.71453 0.25008 0.22496 0.0
C708 C 0.74836 0.26915 0.23235 0.0
C709 C 0.76221 0.28291 0.29196 0.0
C710 C 0.74181 0.27822 0.3438 0.0
H711 H 0.48106 0.7634 0.72675 0.0
H712 H 0.51214 0.77455 0.5316 0.0
H713 H 0.48201 0.80293 0.50819 0.0
H714 H 0.40158 0.74811 0.69519 0.0
H715 H 0.40008 0.77088 0.76241 0.0
H716 H 0.42542 0.75266 0.76514 0.0
H717 H 0.47547 0.80888 0.79215 0.0
H718 H 0.45021 0.82723 0.78989 0.0
H719 H 0.48561 0.84278 0.74105 0.0
H720 H 0.44368 0.82509 0.50275 0.0
H721 H 0.40477 0.84489 0.52032 0.0
H722 H 0.40217 0.82285 0.71934 0.0
C723 C 0.48194 0.77227 0.67941 0.0
C724 C 0.49897 0.76667 0.63119 0.0
C725 C 0.49935 0.77855 0.56962 0.0
C726 C 0.48222 0.79467 0.55561 0.0
C727 C 0.46512 0.7992 0.60376 0.0
C728 C 0.46525 0.78883 0.66466 0.0
C729 C 0.44458 0.7965 0.70751 0.0
C730 C 0.41624 0.76517 0.7341 0.0
C731 C 0.46521 0.82027 0.76079 0.0
C732 C 0.43266 0.81245 0.66104 0.0
C733 C 0.44442 0.81348 0.60122 0.0
C734 C 0.43479 0.82505 0.54968 0.0
C735 C 0.4127 0.83613 0.55987 0.0
C736 C 0.4012 0.83604 0.62123 0.0
C737 C 0.41138 0.82407 0.67218 0.0
H738 H 0.174 0.59567 0.61917 0.0
H739 H 0.25997 0.58626 0.6279 0.0
H740 H 0.29384 0.6455 0.64778 0.0
H741 H 0.21402 0.67464 0.53592 0.0
H742 H 0.19049 0.68921 0.57667 0.0
H743 H 0.17359 0.64629 0.5615 0.0
H744 H 0.16253 0.63566 0.68109 0.0
H745 H 0.18025 0.67863 0.69686 0.0
H746 H 0.19566 0.65567 0.73706 0.0
H747 H 0.31715 0.70437 0.67917 0.0
H748 H 0.33076 0.76166 0.69432 0.0
H749 H 0.23086 0.73425 0.65336 0.0
C750 C 0.20006 0.6064 0.62332 0.0
C751 C 0.21463 0.5868 0.62104 0.0
C752 C 0.24865 0.60123 0.62807 0.0
C753 C 0.26796 0.6347 0.6402 0.0
C754 C 0.25284 0.65338 0.64394 0.0
C755 C 0.21985 0.64 0.63351 0.0
C756 C 0.20994 0.66578 0.63788 0.0
C757 C 0.19621 0.66919 0.5742 0.0
C758 C 0.18566 0.65848 0.69141 0.0
C759 C 0.24238 0.69559 0.65339 0.0
C760 C 0.26666 0.68773 0.65816 0.0
C761 C 0.29843 0.71091 0.67475 0.0
C762 C 0.30585 0.74324 0.68411 0.0
C763 C 0.28176 0.75209 0.67547 0.0
C764 C 0.24959 0.72792 0.66065 0.0
H765 H 0.42353 0.64587 0.69564 0.0
H766 H 0.44785 0.60716 0.5318 0.0
H767 H 0.39063 0.56223 0.5239 0.0
H768 H 0.36817 0.57145 0.76584 0.0
H769 H 0.34044 0.58471 0.79093 0.0
H770 H 0.38289 0.61389 0.78304 0.0
H771 H 0.36912 0.64765 0.70588 0.0
H772 H 0.32662 0.61896 0.71474 0.0
H773 H 0.34406 0.62795 0.63717 0.0
H774 H 0.33177 0.52049 0.53838 0.0
H775 H 0.2736 0.48926 0.56212 0.0
H776 H 0.28763 0.55706 0.71472 0.0
C777 C 0.41671 0.62802 0.65778 0.0
C778 C 0.43987 0.62959 0.61443 0.0
C779 C 0.43024 0.60625 0.5651 0.0
C780 C 0.39798 0.58063 0.56074 0.0
C781 C 0.37591 0.5793 0.60552 0.0
C782 C 0.38472 0.60282 0.65219 0.0
C783 C 0.35626 0.59664 0.69309 0.0
C784 C 0.36232 0.59135 0.76232 0.0
C785 C 0.34857 0.62445 0.68735 0.0
C786 C 0.32994 0.56557 0.66278 0.0
C787 C 0.34188 0.55584 0.61276 0.0
C788 C 0.32215 0.52799 0.57713 0.0
C789 C 0.28914 0.51034 0.5913 0.0
C790 C 0.27604 0.52073 0.64037 0.0
C791 C 0.29695 0.54827 0.67753 0.0
H792 H 0.01238 0.15406 0.63659 0.0
H793 H 0.99756 0.23515 0.67968 0.0
H794 H 0.00951 0.25315 0.56846 0.0
H795 H 0.07796 0.19481 0.53388 0.0
H796 H 0.0654 0.16099 0.47964 0.0
H797 H 0.05416 0.1537 0.56142 0.0
H798 H 0.99338 0.11982 0.52932 0.0
H799 H 0.0045 0.12633 0.4474 0.0
H800 H 0.97597 0.13737 0.47793 0.0
H801 H 0.02673 0.26382 0.4532 0.0
H802 H 0.04026 0.26198 0.34069 0.0
H803 H 0.04212 0.17295 0.37445 0.0
C804 C 0.011 0.1752 0.62207 0.0
C805 C 0.0038 0.19314 0.66598 0.0
C806 C 0.00253 0.22089 0.64605 0.0
C807 C 0.0096 0.23141 0.58332 0.0
C808 C 0.01753 0.21364 0.54139 0.0
C809 C 0.01759 0.18574 0.55975 0.0
C810 C 0.02658 0.17075 0.50588 0.0
C811 C 0.05789 0.17004 0.52115 0.0
C812 C 0.99843 0.13655 0.48914 0.0
C813 C 0.03191 0.19469 0.4543 0.0
C814 C 0.02692 0.21949 0.47563 0.0
C815 C 0.03062 0.24449 0.43604 0.0
C816 C 0.03864 0.24349 0.37258 0.0
C817 C 0.04256 0.21756 0.34969 0.0
C818 C 0.03959 0.1932 0.3913 0.0
H819 H 0.83033 0.84664 0.66917 0.0
H820 H 0.78763 0.74165 0.67456 0.0
H821 H 0.78118 0.73896 0.55812 0.0
H822 H 0.77763 0.84772 0.54711 0.0
H823 H 0.80913 0.88409 0.51154 0.0
H824 H 0.81076 0.87772 0.59497 0.0
H825 H 0.86802 0.88458 0.58313 0.0
H826 H 0.86671 0.89129 0.49986 0.0
H827 H 0.87411 0.85953 0.52656 0.0
H828 H 0.78015 0.7481 0.44103 0.0
H829 H 0.78678 0.76849 0.33189 0.0
H830 H 0.82764 0.86719 0.40402 0.0
C831 C 0.81932 0.82297 0.64612 0.0
C832 C 0.80931 0.79429 0.68119 0.0
C833 C 0.79576 0.76397 0.64876 0.0
C834 C 0.79172 0.76219 0.58273 0.0
C835 C 0.80127 0.79094 0.54996 0.0
C836 C 0.81489 0.82076 0.58061 0.0
C837 C 0.82357 0.84814 0.53463 0.0
C838 C 0.8041 0.86543 0.54787 0.0
C839 C 0.86028 0.8723 0.53614 0.0
C840 C 0.81297 0.82914 0.47294 0.0
C841 C 0.80008 0.79615 0.48286 0.0
C842 C 0.78991 0.7738 0.43285 0.0
C843 C 0.79365 0.78556 0.37118 0.0
C844 C 0.80727 0.81928 0.36006 0.0
C845 C 0.81653 0.84126 0.41157 0.0
H846 H 0.19896 0.03027 0.66562 0.0
H847 H 0.22938 0.95951 0.7014 0.0
H848 H 0.22419 0.94573 0.58746 0.0
H849 H 0.13886 0.9839 0.55656 0.0
H850 H 0.14542 0.0167 0.50516 0.0
H851 H 0.15608 0.0248 0.58769 0.0
H852 H 0.21511 0.06761 0.55983 0.0
H853 H 0.20445 0.06024 0.47707 0.0
H854 H 0.2378 0.05636 0.50767 0.0
H855 H 0.20957 0.93518 0.47257 0.0
H856 H 0.19223 0.93282 0.36138 0.0
H857 H 0.17025 0.00969 0.40101 0.0
C858 C 0.20571 0.01282 0.64892 0.0
C859 C 0.21487 0.99614 0.69169 0.0
C860 C 0.22254 0.97265 0.66885 0.0
C861 C 0.21956 0.96461 0.60443 0.0
C862 C 0.20898 0.9804 0.56367 0.0
C863 C 0.20269 0.0044 0.58472 0.0
C864 C 0.18973 0.01612 0.53172 0.0
C865 C 0.15549 0.01 0.54618 0.0
C866 C 0.21318 0.05222 0.51827 0.0
C867 C 0.18904 0.99447 0.47809 0.0
C868 C 0.20029 0.97409 0.49742 0.0
C869 C 0.20099 0.95123 0.45664 0.0
C870 C 0.1907 0.94976 0.39386 0.0
C871 C 0.17986 0.97102 0.37269 0.0
C872 C 0.17869 0.99333 0.41576 0.0
H873 H 0.73065 0.56193 0.73816 0.0
H874 H 0.66896 0.45863 0.70102 0.0
H875 H 0.65477 0.44983 0.81388 0.0
H876 H 0.75883 0.55399 0.89937 0.0
H877 H 0.75828 0.58956 0.92849 0.0
H878 H 0.76688 0.58678 0.84664 0.0
H879 H 0.72011 0.59699 0.81405 0.0
H880 H 0.71074 0.59885 0.89567 0.0
H881 H 0.67976 0.57025 0.84219 0.0
H882 H 0.64197 0.45318 0.92633 0.0
H883 H 0.63767 0.46734 0.03706 0.0
H884 H 0.70752 0.56852 0.00137 0.0
C885 C 0.71523 0.53737 0.75451 0.0
C886 C 0.70105 0.51087 0.71162 0.0
C887 C 0.68015 0.4791 0.73378 0.0
C888 C 0.67186 0.47392 0.79751 0.0
C889 C 0.68487 0.50078 0.83822 0.0
C890 C 0.70665 0.53178 0.81809 0.0
C891 C 0.71573 0.55659 0.87103 0.0
C892 C 0.75209 0.57267 0.88736 0.0
C893 C 0.70599 0.58217 0.85472 0.0
C894 C 0.69515 0.53476 0.92346 0.0
C895 C 0.67746 0.50269 0.90347 0.0
C896 C 0.65595 0.47815 0.94289 0.0
C897 C 0.65331 0.48646 0.00531 0.0
C898 C 0.67218 0.51898 0.02737 0.0
C899 C 0.69292 0.54345 0.98555 0.0
H900 H 0.46739 0.17118 0.70163 0.0
H901 H 0.57051 0.20884 0.67653 0.0
H902 H 0.57799 0.20921 0.79204 0.0
H903 H 0.4756 0.21777 0.84939 0.0
H904 H 0.43936 0.18453 0.88163 0.0
H905 H 0.4429 0.19041 0.79744 0.0
H906 H 0.43106 0.13115 0.78187 0.0
H907 H 0.42811 0.12525 0.86591 0.0
H908 H 0.45638 0.11832 0.82159 0.0
H909 H 0.57318 0.19941 0.90733 0.0
H910 H 0.55721 0.1855 0.0186 0.0
H911 H 0.45777 0.15649 0.96841 0.0
C912 C 0.49169 0.18047 0.72051 0.0
C913 C 0.51835 0.18982 0.68048 0.0
C914 C 0.54971 0.20115 0.7067 0.0
C915 C 0.55423 0.20162 0.77205 0.0
C916 C 0.52721 0.19114 0.8101 0.0
C917 C 0.49666 0.18134 0.78552 0.0
C918 C 0.47145 0.16985 0.83655 0.0
C919 C 0.45646 0.19197 0.84155 0.0
C920 C 0.44522 0.13402 0.8258 0.0
C921 C 0.49249 0.17386 0.89341 0.0
C922 C 0.52456 0.18617 0.87712 0.0
C923 C 0.54826 0.19024 0.92099 0.0
C924 C 0.53896 0.18198 0.98362 0.0
C925 C 0.50636 0.16999 0.0012 0.0
C926 C 0.48288 0.16588 0.9557 0.0
H927 H 0.89209 0.35621 0.68167 0.0
H928 H 0.7875 0.30126 0.6576 0.0
H929 H 0.78118 0.3072 0.77215 0.0
H930 H 0.89554 0.32266 0.82828 0.0
H931 H 0.92867 0.36017 0.85933 0.0
H932 H 0.92437 0.35253 0.77546 0.0
H933 H 0.92422 0.40663 0.75923 0.0
H934 H 0.92795 0.41415 0.84332 0.0
H935 H 0.89487 0.4134 0.79981 0.0
H936 H 0.78646 0.31805 0.88797 0.0
H937 H 0.80276 0.32762 0.00062 0.0
H938 H 0.90401 0.376 0.94841 0.0
C939 C 0.86786 0.34558 0.7006 0.0
C940 C 0.84022 0.3284 0.66138 0.0
C941 C 0.80889 0.31429 0.68743 0.0
C942 C 0.80511 0.31789 0.75201 0.0
C943 C 0.83294 0.33566 0.78918 0.0
C944 C 0.8637 0.34894 0.76461 0.0
C945 C 0.88965 0.36531 0.81515 0.0
C946 C 0.91078 0.34919 0.81984 0.0
C947 C 0.91039 0.40205 0.80367 0.0
C948 C 0.86866 0.35857 0.87247 0.0
C949 C 0.83603 0.34189 0.85624 0.0
C950 C 0.81187 0.33131 0.9013 0.0
C951 C 0.82132 0.33686 0.96487 0.0
C952 C 0.85456 0.35261 0.98236 0.0
C953 C 0.87851 0.36449 0.93575 0.0
H954 H 0.2924 0.81079 0.28361 0.0
H955 H 0.31334 0.9082 0.33332 0.0
H956 H 0.32638 0.92472 0.22188 0.0
H957 H 0.35637 0.8341 0.17934 0.0
H958 H 0.33483 0.80133 0.12301 0.0
H959 H 0.32314 0.7958 0.20463 0.0
H960 H 0.26435 0.78004 0.17273 0.0
H961 H 0.27568 0.78479 0.09082 0.0
H962 H 0.25747 0.807 0.12373 0.0
H963 H 0.34206 0.93182 0.10692 0.0
H964 H 0.35405 0.92746 0.9948 0.0
H965 H 0.32397 0.82566 0.02094 0.0
C966 C 0.29853 0.83519 0.27027 0.0
C967 C 0.30111 0.85808 0.31622 0.0
C968 C 0.31052 0.89023 0.29808 0.0
C969 C 0.3182 0.89985 0.23514 0.0
C970 C 0.31647 0.87701 0.19106 0.0
C971 C 0.30643 0.84521 0.2076 0.0
C972 C 0.30829 0.82595 0.15191 0.0
C973 C 0.33207 0.81358 0.16557 0.0
C974 C 0.27443 0.79778 0.13372 0.0
C975 C 0.32126 0.85192 0.10183 0.0
C976 C 0.32588 0.88123 0.12526 0.0
C977 C 0.33833 0.90892 0.08795 0.0
C978 C 0.34545 0.90634 0.02455 0.0
C979 C 0.33997 0.87626 -0.00087 0.0
C980 C 0.32816 0.84893 0.03886 0.0
H981 H 0.17132 0.46131 -6e-05 0.0
H982 H 0.20346 0.56413 0.98474 0.0
H983 H 0.21332 0.57092 0.10043 0.0
H984 H 0.12873 0.44925 0.14392 0.0
H985 H 0.13942 0.42033 0.174 0.0
H986 H 0.13651 0.42432 0.0901 0.0
H987 H 0.19531 0.43528 0.078 0.0
H988 H 0.19857 0.43182 0.16212 0.0
H989 H 0.22778 0.46808 0.12251 0.0
H990 H 0.21914 0.56627 0.21599 0.0
H991 H 0.2144 0.54961 0.32726 0.0
H992 H 0.17746 0.44941 0.26723 0.0
C993 C 0.18055 0.48525 0.02117 0.0
C994 C 0.18686 0.51231 0.98415 0.0
C995 C 0.1984 0.5432 0.01294 0.0
C996 C 0.20435 0.54728 0.07819 0.0
C997 C 0.19842 0.52016 0.1133 0.0
C998 C 0.18636 0.48967 0.08602 0.0
C999 C 0.18021 0.46416 0.13477 0.0
C1000 C 0.14407 0.43798 0.13576 0.0
C1001 C 0.20176 0.44895 0.12367 0.0
C1002 C 0.19036 0.48503 0.19406 0.0
C1003 C 0.20124 0.51733 0.18039 0.0
C1004 C 0.21076 0.54112 0.22735 0.0
C1005 C 0.20797 0.53144 0.29017 0.0
C1006 C 0.19551 0.49828 0.30517 0.0
C1007 C 0.18748 0.47494 0.25663 0.0
H1008 H 0.55963 0.68557 0.27811 0.0
H1009 H 0.52009 0.74788 0.32671 0.0
H1010 H 0.50111 0.74432 0.21654 0.0
H1011 H 0.58806 0.71901 0.12451 0.0
H1012 H 0.57822 0.68039 0.08913 0.0
H1013 H 0.58818 0.68769 0.17205 0.0
H1014 H 0.53358 0.63619 0.19781 0.0
H1015 H 0.52319 0.62913 0.11491 0.0
H1016 H 0.49617 0.63274 0.16937 0.0
H1017 H 0.48591 0.73358 0.10288 0.0
H1018 H 0.48161 0.72217 0.98814 0.0
H1019 H 0.53155 0.66736 0.01291 0.0
C1020 C 0.54709 0.69855 0.2653 0.0
C1021 C 0.54139 0.71711 0.31048 0.0
C1022 C 0.5251 0.73395 0.29233 0.0
C1023 C 0.51388 0.73173 0.23023 0.0
C1024 C 0.51926 0.71265 0.18712 0.0
C1025 C 0.5359 0.69676 0.20347 0.0
C1026 C 0.53963 0.67899 0.14733 0.0
C1027 C 0.57566 0.69233 0.13237 0.0
C1028 C 0.52209 0.64207 0.15802 0.0
C1029 C 0.52273 0.68766 0.09673 0.0
C1030 C 0.51076 0.7067 0.12099 0.0
C1031 C 0.49514 0.71868 0.08321 0.0
C1032 C 0.49279 0.71207 0.01831 0.0
C1033 C 0.50625 0.69392 0.99209 0.0
C1034 C 0.52056 0.6808 0.03203 0.0
loop_
_geom_bond_atom_site_label_1
_geom_bond_atom_site_label_2
_geom_bond_distance
_geom_bond_site_symmetry_2
_ccdc_geom_bond_type
C0 O16 1.251 . S
C0 O18 1.254 1_554 S
N1 C2 1.333 . S
N1 C6 1.307 . S
N1 Zn7 2.020 . S
C2 N1 1.333 . S
C2 C3 1.379 . S
C2 H20 0.952 1_455 S
C3 C2 1.379 . S
C3 C4 1.390 . S
C3 H30 0.949 1_455 S
C4 C3 1.390 . S
C4 C5 1.357 . S
C5 C4 1.357 . S
C5 C6 1.370 . S
C5 H31 0.950 . S
C6 N1 1.307 . S
C6 C5 1.370 . S
C6 H24 0.948 . S
Zn7 N1 2.020 . S
Zn7 O16 2.039 1_455 S
Zn7 O22 2.034 1_455 S
Zn7 O26 2.025 . S
Zn7 O28 2.024 . S
C8 O27 1.246 . S
C8 O28 1.249 1_556 S
N9 C10 1.307 . S
N9 C11 1.333 1_655 S
N9 Zn15 2.020 1_655 S
C10 N9 1.307 . S
C10 C14 1.370 . S
C10 H21 0.948 . S
C11 N9 1.333 1_455 S
C11 C12 1.379 . S
C11 H19 0.952 . S
C12 C11 1.379 . S
C12 C13 1.390 1_455 S
C12 H32 0.949 . S
C13 C12 1.390 1_655 S
C13 C14 1.357 . S
C14 C10 1.370 . S
C14 C13 1.357 . S
C14 H33 0.950 . S
Zn15 N9 2.020 1_455 S
Zn15 O18 2.025 1_455 S
Zn15 O23 2.024 1_455 S
Zn15 O25 2.039 . S
Zn15 O27 2.034 . S
O16 C0 1.251 . S
O16 Zn7 2.039 1_655 S
C17 O22 1.246 . S
C17 O23 1.249 1_554 S
O18 C0 1.254 1_556 S
O18 Zn15 2.025 1_655 S
H19 C11 0.952 . S
H20 C2 0.952 1_655 S
H21 C10 0.948 . S
O22 Zn7 2.034 1_655 S
O22 C17 1.246 . S
O23 Zn15 2.024 1_655 S
O23 C17 1.249 1_556 S
H24 C6 0.948 . S
O25 Zn15 2.039 . S
O25 C29 1.251 . S
O26 Zn7 2.025 . S
O26 C29 1.254 1_554 S
O27 C8 1.246 . S
O27 Zn15 2.034 . S
O28 Zn7 2.024 . S
O28 C8 1.249 1_554 S
C29 O25 1.251 . S
C29 O26 1.254 1_556 S
H30 C3 0.949 1_655 S
H31 C5 0.950 . S
H32 C12 0.949 . S
H33 C14 0.950 . S
C34 O50 1.251 . S
C34 O52 1.254 1_556 S
N35 C36 1.333 . S
N35 C40 1.307 . S
N35 Zn41 2.020 . S
C36 N35 1.333 . S
C36 C37 1.379 . S
C36 H54 0.952 . S
C37 C36 1.379 . S
C37 C38 1.390 . S
C37 H64 0.949 . S
C38 C37 1.390 . S
C38 C39 1.357 . S
C39 C38 1.357 . S
C39 C40 1.370 . S
C39 H65 0.950 . S
C40 N35 1.307 . S
C40 C39 1.370 . S
C40 H58 0.948 . S
Zn41 N35 2.020 . S
Zn41 O50 2.039 . S
Zn41 O56 2.034 . S
Zn41 O60 2.025 . S
Zn41 O62 2.024 . S
C42 O61 1.246 . S
C42 O62 1.249 1_554 S
N43 C44 1.307 . S
N43 C45 1.333 . S
N43 Zn49 2.020 . S
C44 N43 1.307 . S
C44 C48 1.370 . S
C44 H55 0.948 . S
C45 N43 1.333 . S
C45 C46 1.379 . S
C45 H53 0.952 . S
C46 C45 1.379 . S
C46 C47 1.390 . S
C46 H66 0.949 . S
C47 C46 1.390 . S
C47 C48 1.357 . S
C48 C44 1.370 . S
C48 C47 1.357 . S
C48 H67 0.950 . S
Zn49 N43 2.020 . S
Zn49 O52 2.025 . S
Zn49 O57 2.024 . S
Zn49 O59 2.039 . S
Zn49 O61 2.034 . S
O50 C34 1.251 . S
O50 Zn41 2.039 . S
C51 O56 1.246 . S
C51 O57 1.249 1_556 S
O52 C34 1.254 1_554 S
O52 Zn49 2.025 . S
H53 C45 0.952 . S
H54 C36 0.952 . S
H55 C44 0.948 . S
O56 Zn41 2.034 . S
O56 C51 1.246 . S
O57 Zn49 2.024 . S
O57 C51 1.249 1_554 S
H58 C40 0.948 . S
O59 Zn49 2.039 . S
O59 C63 1.251 . S
O60 Zn41 2.025 . S
O60 C63 1.254 1_556 S
O61 C42 1.246 . S
O61 Zn49 2.034 . S
O62 Zn41 2.024 . S
O62 C42 1.249 1_556 S
C63 O59 1.251 . S
C63 O60 1.254 1_554 S
H64 C37 0.949 . S
H65 C39 0.950 . S
H66 C46 0.949 . S
H67 C48 0.950 . S
C68 O84 1.251 . S
C68 O86 1.254 1_554 S
N69 C70 1.333 1_565 S
N69 C74 1.307 . S
N69 Zn75 2.016 1_565 S
C70 N69 1.333 1_545 S
C70 C71 1.379 . S
C70 H88 0.952 . S
C71 C70 1.379 . S
C71 C72 1.390 1_545 S
C71 H98 0.949 . S
C72 C71 1.390 1_565 S
C72 C73 1.357 . S
C73 C72 1.357 . S
C73 C74 1.370 . S
C73 H99 0.950 . S
C74 N69 1.307 . S
C74 C73 1.370 . S
C74 H92 0.948 . S
Zn75 N69 2.016 1_545 S
Zn75 O84 2.059 . S
Zn75 O90 2.041 . S
Zn75 O94 2.007 1_545 S
Zn75 O96 2.020 1_545 S
C76 O95 1.246 . S
C76 O96 1.249 1_556 S
N77 C78 1.307 . S
N77 C79 1.333 . S
N77 Zn83 2.020 . S
C78 N77 1.307 . S
C78 C82 1.370 . S
C78 H89 0.948 . S
C79 N77 1.333 . S
C79 C80 1.379 . S
C79 H87 0.952 1_545 S
C80 C79 1.379 . S
C80 C81 1.390 . S
C80 H100 0.949 1_545 S
C81 C80 1.390 . S
C81 C82 1.357 . S
C82 C78 1.370 . S
C82 C81 1.357 . S
C82 H101 0.950 . S
Zn83 N77 2.020 . S
Zn83 O86 2.025 . S
Zn83 O91 2.024 . S
Zn83 O93 2.039 1_545 S
Zn83 O95 2.034 1_545 S
O84 C68 1.251 . S
O84 Zn75 2.059 . S
C85 O90 1.246 . S
C85 O91 1.249 1_554 S
O86 C68 1.254 1_556 S
O86 Zn83 2.025 . S
H87 C79 0.952 1_565 S
H88 C70 0.952 . S
H89 C78 0.948 . S
O90 Zn75 2.041 . S
O90 C85 1.246 . S
O91 Zn83 2.024 . S
O91 C85 1.249 1_556 S
H92 C74 0.948 . S
O93 Zn83 2.039 1_565 S
O93 C97 1.251 . S
O94 Zn75 2.007 1_565 S
O94 C97 1.254 1_554 S
O95 C76 1.246 . S
O95 Zn83 2.034 1_565 S
O96 Zn75 2.020 1_565 S
O96 C76 1.249 1_554 S
C97 O93 1.251 . S
C97 O94 1.254 1_556 S
H98 C71 0.949 . S
H99 C73 0.950 . S
H100 C80 0.949 1_565 S
H101 C82 0.950 . S
C102 O118 1.251 . S
C102 O120 1.254 . S
N103 C104 1.333 . S
N103 C108 1.307 . S
N103 Zn109 2.020 . S
C104 N103 1.333 . S
C104 C105 1.379 . S
C104 H122 0.952 . S
C105 C104 1.379 . S
C105 C106 1.390 . S
C105 H132 0.949 . S
C106 C105 1.390 . S
C106 C107 1.357 . S
C107 C106 1.357 . S
C107 C108 1.370 . S
C107 H133 0.950 . S
C108 N103 1.307 . S
C108 C107 1.370 . S
C108 H126 0.948 . S
Zn109 N103 2.020 . S
Zn109 O118 2.039 . S
Zn109 O124 2.034 . S
Zn109 O128 2.025 . S
Zn109 O130 2.024 . S
C110 O129 1.246 . S
C110 O130 1.249 . S
N111 C112 1.307 . S
N111 C113 1.333 . S
N111 Zn117 2.020 . S
C112 N111 1.307 . S
C112 C116 1.370 . S
C112 H123 0.948 . S
C113 N111 1.333 . S
C113 C114 1.379 . S
C113 H121 0.952 . S
C114 C113 1.379 . S
C114 C115 1.390 . S
C114 H134 0.949 . S
C115 C114 1.390 . S
C115 C116 1.357 . S
C116 C112 1.370 . S
C116 C115 1.357 . S
C116 H135 0.950 . S
Zn117 N111 2.020 . S
Zn117 O120 2.025 . S
Zn117 O125 2.024 . S
Zn117 O127 2.039 . S
Zn117 O129 2.034 . S
O118 C102 1.251 . S
O118 Zn109 2.039 . S
C119 O124 1.246 . S
C119 O125 1.249 . S
O120 C102 1.254 . S
O120 Zn117 2.025 . S
H121 C113 0.952 . S
H122 C104 0.952 . S
H123 C112 0.948 . S
O124 Zn109 2.034 . S
O124 C119 1.246 . S
O125 Zn117 2.024 . S
O125 C119 1.249 . S
H126 C108 0.948 . S
O127 Zn117 2.039 . S
O127 C131 1.251 . S
O128 Zn109 2.025 . S
O128 C131 1.254 . S
O129 C110 1.246 . S
O129 Zn117 2.034 . S
O130 Zn109 2.024 . S
O130 C110 1.249 . S
C131 O127 1.251 . S
C131 O128 1.254 . S
H132 C105 0.949 . S
H133 C107 0.950 . S
H134 C114 0.949 . S
H135 C116 0.950 . S
C136 O152 1.251 . S
C136 O154 1.254 . S
N137 C138 1.333 . S
N137 C142 1.307 . S
N137 Zn143 2.020 . S
C138 N137 1.333 . S
C138 C139 1.379 . S
C138 H156 0.952 . S
C139 C138 1.379 . S
C139 C140 1.390 . S
C139 H166 0.949 . S
C140 C139 1.390 . S
C140 C141 1.357 . S
C141 C140 1.357 . S
C141 C142 1.370 . S
C141 H167 0.950 . S
C142 N137 1.307 . S
C142 C141 1.370 . S
C142 H160 0.948 . S
Zn143 N137 2.020 . S
Zn143 O152 2.039 . S
Zn143 O158 2.034 . S
Zn143 O162 2.025 . S
Zn143 O164 2.024 . S
C144 O163 1.246 . S
C144 O164 1.249 . S
N145 C146 1.307 . S
N145 C147 1.333 . S
N145 Zn151 2.020 . S
C146 N145 1.307 . S
C146 C150 1.370 . S
C146 H157 0.948 . S
C147 N145 1.333 . S
C147 C148 1.379 . S
C147 H155 0.952 . S
C148 C147 1.379 . S
C148 C149 1.390 . S
C148 H168 0.949 . S
C149 C148 1.390 . S
C149 C150 1.357 . S
C150 C146 1.370 . S
C150 C149 1.357 . S
C150 H169 0.950 . S
Zn151 N145 2.020 . S
Zn151 O154 2.025 . S
Zn151 O159 2.024 . S
Zn151 O161 2.039 . S
Zn151 O163 2.034 . S
O152 C136 1.251 . S
O152 Zn143 2.039 . S
C153 O158 1.246 . S
C153 O159 1.249 . S
O154 C136 1.254 . S
O154 Zn151 2.025 . S
H155 C147 0.952 . S
H156 C138 0.952 . S
H157 C146 0.948 . S
O158 Zn143 2.034 . S
O158 C153 1.246 . S
O159 Zn151 2.024 . S
O159 C153 1.249 . S
H160 C142 0.948 . S
O161 Zn151 2.039 . S
O161 C165 1.251 . S
O162 Zn143 2.025 . S
O162 C165 1.254 . S
O163 C144 1.246 . S
O163 Zn151 2.034 . S
O164 Zn143 2.024 . S
O164 C144 1.249 . S
C165 O161 1.251 . S
C165 O162 1.254 . S
H166 C139 0.949 . S
H167 C141 0.950 . S
H168 C148 0.949 . S
H169 C150 0.950 . S
C170 O186 1.251 . S
C170 O188 1.254 . S
N171 C172 1.333 . S
N171 C176 1.307 . S
N171 Zn177 2.020 . S
C172 N171 1.333 . S
C172 C173 1.379 . S
C172 H190 0.952 . S
C173 C172 1.379 . S
C173 C174 1.390 . S
C173 H200 0.949 . S
C174 C173 1.390 . S
C174 C175 1.357 . S
C175 C174 1.357 . S
C175 C176 1.370 . S
C175 H201 0.950 . S
C176 N171 1.307 . S
C176 C175 1.370 . S
C176 H194 0.948 . S
Zn177 N171 2.020 . S
Zn177 O186 2.039 . S
Zn177 O192 2.034 . S
Zn177 O196 2.025 . S
Zn177 O198 2.024 . S
C178 O197 1.246 . S
C178 O198 1.249 . S
N179 C180 1.307 . S
N179 C181 1.333 . S
N179 Zn185 2.020 . S
C180 N179 1.307 . S
C180 C184 1.370 . S
C180 H191 0.948 . S
C181 N179 1.333 . S
C181 C182 1.379 . S
C181 H189 0.952 . S
C182 C181 1.379 . S
C182 C183 1.390 . S
C182 H202 0.949 . S
C183 C182 1.390 . S
C183 C184 1.357 . S
C184 C180 1.370 . S
C184 C183 1.357 . S
C184 H203 0.950 . S
Zn185 N179 2.020 . S
Zn185 O188 2.025 . S
Zn185 O193 2.024 . S
Zn185 O195 2.039 . S
Zn185 O197 2.034 . S
O186 C170 1.251 . S
O186 Zn177 2.039 . S
C187 O192 1.246 . S
C187 O193 1.249 . S
O188 C170 1.254 . S
O188 Zn185 2.025 . S
H189 C181 0.952 . S
H190 C172 0.952 . S
H191 C180 0.948 . S
O192 Zn177 2.034 . S
O192 C187 1.246 . S
O193 Zn185 2.024 . S
O193 C187 1.249 . S
H194 C176 0.948 . S
O195 Zn185 2.039 . S
O195 C199 1.251 . S
O196 Zn177 2.025 . S
O196 C199 1.254 . S
O197 C178 1.246 . S
O197 Zn185 2.034 . S
O198 Zn177 2.024 . S
O198 C178 1.249 . S
C199 O195 1.251 . S
C199 O196 1.254 . S
H200 C173 0.949 . S
H201 C175 0.950 . S
H202 C182 0.949 . S
H203 C184 0.950 . S
C204 O220 1.251 . S
C204 O222 1.254 . S
N205 C206 1.333 . S
N205 C210 1.307 . S
N205 Zn211 2.020 . S
C206 N205 1.333 . S
C206 C207 1.379 . S
C206 H224 0.952 . S
C207 C206 1.379 . S
C207 C208 1.390 . S
C207 H234 0.949 . S
C208 C207 1.390 . S
C208 C209 1.357 . S
C209 C208 1.357 . S
C209 C210 1.370 . S
C209 H235 0.950 . S
C210 N205 1.307 . S
C210 C209 1.370 . S
C210 H228 0.948 . S
Zn211 N205 2.020 . S
Zn211 O220 2.039 . S
Zn211 O226 2.034 . S
Zn211 O230 2.025 . S
Zn211 O232 2.024 . S
C212 O231 1.246 . S
C212 O232 1.249 . S
N213 C214 1.307 . S
N213 C215 1.333 . S
N213 Zn219 2.020 . S
C214 N213 1.307 . S
C214 C218 1.370 . S
C214 H225 0.948 . S
C215 N213 1.333 . S
C215 C216 1.379 . S
C215 H223 0.952 . S
C216 C215 1.379 . S
C216 C217 1.390 . S
C216 H236 0.949 . S
C217 C216 1.390 . S
C217 C218 1.357 . S
C218 C214 1.370 . S
C218 C217 1.357 . S
C218 H237 0.950 . S
Zn219 N213 2.020 . S
Zn219 O222 2.025 . S
Zn219 O227 2.024 . S
Zn219 O229 2.039 . S
Zn219 O231 2.034 . S
O220 C204 1.251 . S
O220 Zn211 2.039 . S
C221 O226 1.246 . S
C221 O227 1.249 . S
O222 C204 1.254 . S
O222 Zn219 2.025 . S
H223 C215 0.952 . S
H224 C206 0.952 . S
H225 C214 0.948 . S
O226 Zn211 2.034 . S
O226 C221 1.246 . S
O227 Zn219 2.024 . S
O227 C221 1.249 . S
H228 C210 0.948 . S
O229 Zn219 2.039 . S
O229 C233 1.251 . S
O230 Zn211 2.025 . S
O230 C233 1.254 . S
O231 C212 1.246 . S
O231 Zn219 2.034 . S
O232 Zn211 2.024 . S
O232 C212 1.249 . S
C233 O229 1.251 . S
C233 O230 1.254 . S
H234 C207 0.949 . S
H235 C209 0.950 . S
H236 C216 0.949 . S
H237 C218 0.950 . S
C238 O254 1.251 . S
C238 O256 1.254 . S
N239 C240 1.333 . S
N239 C244 1.307 . S
N239 Zn245 2.020 . S
C240 N239 1.333 . S
C240 C241 1.379 . S
C240 H258 0.952 . S
C241 C240 1.379 . S
C241 C242 1.390 . S
C241 H268 0.949 . S
C242 C241 1.390 . S
C242 C243 1.357 . S
C243 C242 1.357 . S
C243 C244 1.370 . S
C243 H269 0.950 . S
C244 N239 1.307 . S
C244 C243 1.370 . S
C244 H262 0.948 . S
Zn245 N239 2.020 . S
Zn245 O254 2.039 . S
Zn245 O260 2.034 . S
Zn245 O264 2.025 . S
Zn245 O266 2.024 . S
C246 O265 1.246 . S
C246 O266 1.249 . S
N247 C248 1.307 . S
N247 C249 1.333 . S
N247 Zn253 2.020 . S
C248 N247 1.307 . S
C248 C252 1.370 . S
C248 H259 0.948 . S
C249 N247 1.333 . S
C249 C250 1.379 . S
C249 H257 0.952 . S
C250 C249 1.379 . S
C250 C251 1.390 . S
C250 H270 0.949 . S
C251 C250 1.390 . S
C251 C252 1.357 . S
C252 C248 1.370 . S
C252 C251 1.357 . S
C252 H271 0.950 . S
Zn253 N247 2.020 . S
Zn253 O256 2.025 . S
Zn253 O261 2.024 . S
Zn253 O263 2.039 . S
Zn253 O265 2.034 . S
O254 C238 1.251 . S
O254 Zn245 2.039 . S
C255 O260 1.246 . S
C255 O261 1.249 . S
O256 C238 1.254 . S
O256 Zn253 2.025 . S
H257 C249 0.952 . S
H258 C240 0.952 . S
H259 C248 0.948 . S
O260 Zn245 2.034 . S
O260 C255 1.246 . S
O261 Zn253 2.024 . S
O261 C255 1.249 . S
H262 C244 0.948 . S
O263 Zn253 2.039 . S
O263 C267 1.251 . S
O264 Zn245 2.025 . S
O264 C267 1.254 . S
O265 C246 1.246 . S
O265 Zn253 2.034 . S
O266 Zn245 2.024 . S
O266 C246 1.249 . S
C267 O263 1.251 . S
C267 O264 1.254 . S
H268 C241 0.949 . S
H269 C243 0.950 . S
H270 C250 0.949 . S
H271 C252 0.950 . S
C272 O288 1.251 . S
C272 O290 1.254 . S
N273 C274 1.333 . S
N273 C278 1.307 . S
N273 Zn279 2.020 . S
C274 N273 1.333 . S
C274 C275 1.379 . S
C274 H292 0.952 . S
C275 C274 1.379 . S
C275 C276 1.390 . S
C275 H302 0.949 . S
C276 C275 1.390 . S
C276 C277 1.357 . S
C277 C276 1.357 . S
C277 C278 1.370 . S
C277 H303 0.950 . S
C278 N273 1.307 . S
C278 C277 1.370 . S
C278 H296 0.948 . S
Zn279 N273 2.020 . S
Zn279 O288 2.039 . S
Zn279 O294 2.034 . S
Zn279 O298 2.025 . S
Zn279 O300 2.024 . S
C280 O299 1.246 . S
C280 O300 1.249 . S
N281 C282 1.307 . S
N281 C283 1.333 . S
N281 Zn287 2.020 . S
C282 N281 1.307 . S
C282 C286 1.370 . S
C282 H293 0.948 . S
C283 N281 1.333 . S
C283 C284 1.379 . S
C283 H291 0.952 . S
C284 C283 1.379 . S
C284 C285 1.390 . S
C284 H304 0.949 . S
C285 C284 1.390 . S
C285 C286 1.357 . S
C286 C282 1.370 . S
C286 C285 1.357 . S
C286 H305 0.950 . S
Zn287 N281 2.020 . S
Zn287 O290 2.025 . S
Zn287 O295 2.024 . S
Zn287 O297 2.039 . S
Zn287 O299 2.034 . S
O288 C272 1.251 . S
O288 Zn279 2.039 . S
C289 O294 1.246 . S
C289 O295 1.249 . S
O290 C272 1.254 . S
O290 Zn287 2.025 . S
H291 C283 0.952 . S
H292 C274 0.952 . S
H293 C282 0.948 . S
O294 Zn279 2.034 . S
O294 C289 1.246 . S
O295 Zn287 2.024 . S
O295 C289 1.249 . S
H296 C278 0.948 . S
O297 Zn287 2.039 . S
O297 C301 1.251 . S
O298 Zn279 2.025 . S
O298 C301 1.254 . S
O299 C280 1.246 . S
O299 Zn287 2.034 . S
O300 Zn279 2.024 . S
O300 C280 1.249 . S
C301 O297 1.251 . S
C301 O298 1.254 . S
H302 C275 0.949 . S
H303 C277 0.950 . S
H304 C284 0.949 . S
H305 C286 0.950 . S
H306 C318 0.931 . S
H307 C320 0.930 . S
H308 C321 0.930 . S
H309 C325 0.959 . S
H310 C325 0.959 . S
H311 C325 0.961 . S
H312 C326 0.960 . S
H313 C326 0.961 . S
H314 C326 0.959 . S
H315 C329 0.929 . S
H316 C330 0.931 . S
H317 C332 0.930 . S
C318 H306 0.931 . S
C318 C319 1.399 . S
C318 C323 1.399 . S
C319 C318 1.399 . S
C319 C320 1.376 . S
C320 H307 0.930 . S
C320 C319 1.376 . S
C320 C321 1.388 . S
C321 H308 0.930 . S
C321 C320 1.388 . S
C321 C322 1.390 . S
C322 C321 1.390 . S
C322 C323 1.394 . S
C322 C328 1.465 . S
C323 C318 1.399 . S
C323 C322 1.394 . S
C323 C324 1.516 . S
C324 C323 1.516 . S
C324 C325 1.502 . S
C324 C326 1.561 . S
C324 C327 1.526 . S
C325 H309 0.959 . S
C325 H310 0.959 . S
C325 H311 0.961 . S
C325 C324 1.502 . S
C326 H312 0.960 . S
C326 H313 0.961 . S
C326 H314 0.959 . S
C326 C324 1.561 . S
C327 C324 1.526 . S
C327 C328 1.396 . S
C327 C332 1.390 . S
C328 C322 1.465 . S
C328 C327 1.396 . S
C328 C329 1.399 . S
C329 H315 0.929 . S
C329 C328 1.399 . S
C329 C330 1.385 . S
C330 H316 0.931 . S
C330 C329 1.385 . S
C330 C331 1.389 . S
C331 C330 1.389 . S
C331 C332 1.387 . S
C332 H317 0.930 . S
C332 C327 1.390 . S
C332 C331 1.387 . S
H333 C345 0.930 . S
H334 C347 0.930 . S
H335 C348 0.930 . S
H336 C352 0.959 . S
H337 C352 0.959 . S
H338 C352 0.961 . S
H339 C353 0.960 . S
H340 C353 0.961 . S
H341 C353 0.959 . S
H342 C356 0.929 . S
H343 C357 0.931 . S
H344 C359 0.930 . S
C345 H333 0.930 . S
C345 C346 1.399 . S
C345 C350 1.399 . S
C346 C345 1.399 . S
C346 C347 1.376 . S
C347 H334 0.930 . S
C347 C346 1.376 . S
C347 C348 1.388 . S
C348 H335 0.930 . S
C348 C347 1.388 . S
C348 C349 1.390 . S
C349 C348 1.390 . S
C349 C350 1.394 . S
C349 C355 1.465 . S
C350 C345 1.399 . S
C350 C349 1.394 . S
C350 C351 1.516 . S
C351 C350 1.516 . S
C351 C352 1.502 . S
C351 C353 1.561 . S
C351 C354 1.526 . S
C352 H336 0.959 . S
C352 H337 0.959 . S
C352 H338 0.961 . S
C352 C351 1.502 . S
C353 H339 0.960 . S
C353 H340 0.961 . S
C353 H341 0.959 . S
C353 C351 1.561 . S
C354 C351 1.526 . S
C354 C355 1.396 . S
C354 C359 1.390 . S
C355 C349 1.465 . S
C355 C354 1.396 . S
C355 C356 1.399 . S
C356 H342 0.929 . S
C356 C355 1.399 . S
C356 C357 1.385 . S
C357 H343 0.931 . S
C357 C356 1.385 . S
C357 C358 1.389 . S
C358 C357 1.389 . S
C358 C359 1.387 . S
C359 H344 0.930 . S
C359 C354 1.390 . S
C359 C358 1.387 . S
H360 C372 0.930 . S
H361 C374 0.930 . S
H362 C375 0.930 . S
H363 C379 0.959 . S
H364 C379 0.959 . S
H365 C379 0.961 . S
H366 C380 0.960 . S
H367 C380 0.961 . S
H368 C380 0.959 . S
H369 C383 0.929 . S
H370 C384 0.931 . S
H371 C386 0.930 . S
C372 H360 0.930 . S
C372 C373 1.399 . S
C372 C377 1.399 . S
C373 C372 1.399 . S
C373 C374 1.376 . S
C374 H361 0.930 . S
C374 C373 1.376 . S
C374 C375 1.388 . S
C375 H362 0.930 . S
C375 C374 1.388 . S
C375 C376 1.390 . S
C376 C375 1.390 . S
C376 C377 1.394 . S
C376 C382 1.465 . S
C377 C372 1.399 . S
C377 C376 1.394 . S
C377 C378 1.516 . S
C378 C377 1.516 . S
C378 C379 1.502 . S
C378 C380 1.561 . S
C378 C381 1.526 . S
C379 H363 0.959 . S
C379 H364 0.959 . S
C379 H365 0.961 . S
C379 C378 1.502 . S
C380 H366 0.960 . S
C380 H367 0.961 . S
C380 H368 0.959 . S
C380 C378 1.561 . S
C381 C378 1.526 . S
C381 C382 1.396 . S
C381 C386 1.390 . S
C382 C376 1.465 . S
C382 C381 1.396 . S
C382 C383 1.399 . S
C383 H369 0.929 . S
C383 C382 1.399 . S
C383 C384 1.385 . S
C384 H370 0.931 . S
C384 C383 1.385 . S
C384 C385 1.389 . S
C385 C384 1.389 . S
C385 C386 1.387 . S
C386 H371 0.930 . S
C386 C381 1.390 . S
C386 C385 1.387 . S
H387 C399 0.930 . S
H388 C401 0.930 . S
H389 C402 0.930 . S
H390 C406 0.959 . S
H391 C406 0.959 . S
H392 C406 0.961 . S
H393 C407 0.960 . S
H394 C407 0.961 . S
H395 C407 0.959 . S
H396 C410 0.929 . S
H397 C411 0.931 . S
H398 C413 0.930 . S
C399 H387 0.930 . S
C399 C400 1.399 . S
C399 C404 1.399 . S
C400 C399 1.399 . S
C400 C401 1.376 . S
C401 H388 0.930 . S
C401 C400 1.376 . S
C401 C402 1.388 . S
C402 H389 0.930 . S
C402 C401 1.388 . S
C402 C403 1.390 . S
C403 C402 1.390 . S
C403 C404 1.394 . S
C403 C409 1.465 . S
C404 C399 1.399 . S
C404 C403 1.394 . S
C404 C405 1.516 . S
C405 C404 1.516 . S
C405 C406 1.502 . S
C405 C407 1.561 . S
C405 C408 1.526 . S
C406 H390 0.959 . S
C406 H391 0.959 . S
C406 H392 0.961 . S
C406 C405 1.502 . S
C407 H393 0.960 . S
C407 H394 0.961 . S
C407 H395 0.959 . S
C407 C405 1.561 . S
C408 C405 1.526 . S
C408 C409 1.396 . S
C408 C413 1.390 . S
C409 C403 1.465 . S
C409 C408 1.396 . S
C409 C410 1.399 . S
C410 H396 0.929 . S
C410 C409 1.399 . S
C410 C411 1.385 . S
C411 H397 0.931 . S
C411 C410 1.385 . S
C411 C412 1.389 . S
C412 C411 1.389 . S
C412 C413 1.387 . S
C413 H398 0.930 . S
C413 C408 1.390 . S
C413 C412 1.387 . S
H414 C426 0.930 . S
H415 C428 0.930 . S
H416 C429 0.930 . S
H417 C433 0.959 . S
H418 C433 0.959 . S
H419 C433 0.961 . S
H420 C434 0.960 . S
H421 C434 0.961 . S
H422 C434 0.959 . S
H423 C437 0.929 . S
H424 C438 0.931 . S
H425 C440 0.930 . S
C426 H414 0.930 . S
C426 C427 1.399 . S
C426 C431 1.399 . S
C427 C426 1.399 . S
C427 C428 1.376 . S
C428 H415 0.930 . S
C428 C427 1.376 . S
C428 C429 1.388 . S
C429 H416 0.930 . S
C429 C428 1.388 . S
C429 C430 1.390 . S
C430 C429 1.390 . S
C430 C431 1.394 . S
C430 C436 1.465 . S
C431 C426 1.399 . S
C431 C430 1.394 . S
C431 C432 1.516 . S
C432 C431 1.516 . S
C432 C433 1.502 . S
C432 C434 1.561 . S
C432 C435 1.526 . S
C433 H417 0.959 . S
C433 H418 0.959 . S
C433 H419 0.961 . S
C433 C432 1.502 . S
C434 H420 0.960 . S
C434 H421 0.961 . S
C434 H422 0.959 . S
C434 C432 1.561 . S
C435 C432 1.526 . S
C435 C436 1.396 . S
C435 C440 1.390 . S
C436 C430 1.465 . S
C436 C435 1.396 . S
C436 C437 1.399 . S
C437 H423 0.929 . S
C437 C436 1.399 . S
C437 C438 1.385 . S
C438 H424 0.931 . S
C438 C437 1.385 . S
C438 C439 1.389 . S
C439 C438 1.389 . S
C439 C440 1.387 . S
C440 H425 0.930 . S
C440 C435 1.390 . S
C440 C439 1.387 . S
H441 C453 0.930 . S
H442 C455 0.930 . S
H443 C456 0.930 . S
H444 C460 0.959 . S
H445 C460 0.959 . S
H446 C460 0.961 . S
H447 C461 0.960 . S
H448 C461 0.961 . S
H449 C461 0.959 . S
H450 C464 0.929 . S
H451 C465 0.931 . S
H452 C467 0.930 . S
C453 H441 0.930 . S
C453 C454 1.399 . S
C453 C458 1.399 . S
C454 C453 1.399 . S
C454 C455 1.376 . S
C455 H442 0.930 . S
C455 C454 1.376 . S
C455 C456 1.388 . S
C456 H443 0.930 . S
C456 C455 1.388 . S
C456 C457 1.390 . S
C457 C456 1.390 . S
C457 C458 1.394 . S
C457 C463 1.465 . S
C458 C453 1.399 . S
C458 C457 1.394 . S
C458 C459 1.516 . S
C459 C458 1.516 . S
C459 C460 1.502 . S
C459 C461 1.561 . S
C459 C462 1.526 . S
C460 H444 0.959 . S
C460 H445 0.959 . S
C460 H446 0.961 . S
C460 C459 1.502 . S
C461 H447 0.960 . S
C461 H448 0.961 . S
C461 H449 0.959 . S
C461 C459 1.561 . S
C462 C459 1.526 . S
C462 C463 1.396 . S
C462 C467 1.390 . S
C463 C457 1.465 . S
C463 C462 1.396 . S
C463 C464 1.399 . S
C464 H450 0.929 . S
C464 C463 1.399 . S
C464 C465 1.385 . S
C465 H451 0.931 . S
C465 C464 1.385 . S
C465 C466 1.389 . S
C466 C465 1.389 . S
C466 C467 1.387 . S
C467 H452 0.930 . S
C467 C462 1.390 . S
C467 C466 1.387 . S
H468 C480 0.930 . S
H469 C482 0.930 . S
H470 C483 0.930 . S
H471 C487 0.959 1_655 S
H472 C487 0.959 1_655 S
H473 C487 0.961 . S
H474 C488 0.960 . S
H475 C488 0.961 . S
H476 C488 0.959 . S
H477 C491 0.929 . S
H478 C492 0.931 . S
H479 C494 0.930 . S
C480 H468 0.930 . S
C480 C481 1.399 . S
C480 C485 1.399 . S
C481 C480 1.399 . S
C481 C482 1.376 . S
C482 H469 0.930 . S
C482 C481 1.376 . S
C482 C483 1.388 . S
C483 H470 0.930 . S
C483 C482 1.388 . S
C483 C484 1.390 . S
C484 C483 1.390 . S
C484 C485 1.394 . S
C484 C490 1.464 . S
C485 C480 1.399 . S
C485 C484 1.394 . S
C485 C486 1.516 . S
C486 C485 1.516 . S
C486 C487 1.502 . S
C486 C488 1.561 . S
C486 C489 1.526 1_455 S
C487 H471 0.959 1_455 S
C487 H472 0.959 1_455 S
C487 H473 0.961 . S
C487 C486 1.502 . S
C488 H474 0.960 . S
C488 H475 0.961 . S
C488 H476 0.959 . S
C488 C486 1.561 . S
C489 C486 1.526 1_655 S
C489 C490 1.398 1_655 S
C489 C494 1.390 . S
C490 C484 1.464 . S
C490 C489 1.398 1_455 S
C490 C491 1.399 1_455 S
C491 H477 0.929 . S
C491 C490 1.399 1_655 S
C491 C492 1.385 . S
C492 H478 0.931 . S
C492 C491 1.385 . S
C492 C493 1.389 . S
C493 C492 1.389 . S
C493 C494 1.387 . S
C494 H479 0.930 . S
C494 C489 1.390 . S
C494 C493 1.387 . S
H495 C507 0.930 . S
H496 C509 0.930 . S
H497 C510 0.930 . S
H498 C514 0.959 . S
H499 C514 0.959 . S
H500 C514 0.961 . S
H501 C515 0.960 . S
H502 C515 0.961 . S
H503 C515 0.959 . S
H504 C518 0.929 . S
H505 C519 0.931 . S
H506 C521 0.930 . S
C507 H495 0.930 . S
C507 C508 1.399 . S
C507 C512 1.399 . S
C508 C507 1.399 . S
C508 C509 1.376 . S
C509 H496 0.930 . S
C509 C508 1.376 . S
C509 C510 1.388 . S
C510 H497 0.930 . S
C510 C509 1.388 . S
C510 C511 1.390 . S
C511 C510 1.390 . S
C511 C512 1.394 . S
C511 C517 1.465 . S
C512 C507 1.399 . S
C512 C511 1.394 . S
C512 C513 1.516 . S
C513 C512 1.516 . S
C513 C514 1.502 . S
C513 C515 1.561 . S
C513 C516 1.526 . S
C514 H498 0.959 . S
C514 H499 0.959 . S
C514 H500 0.961 . S
C514 C513 1.502 . S
C515 H501 0.960 . S
C515 H502 0.961 . S
C515 H503 0.959 . S
C515 C513 1.561 . S
C516 C513 1.526 . S
C516 C517 1.396 . S
C516 C521 1.390 . S
C517 C511 1.465 . S
C517 C516 1.396 . S
C517 C518 1.399 . S
C518 H504 0.929 . S
C518 C517 1.399 . S
C518 C519 1.385 . S
C519 H505 0.931 . S
C519 C518 1.385 . S
C519 C520 1.389 . S
C520 C519 1.389 . S
C520 C521 1.387 . S
C521 H506 0.930 . S
C521 C516 1.390 . S
C521 C520 1.387 . S
H522 C534 0.930 . S
H523 C536 0.930 . S
H524 C537 0.930 . S
H525 C541 0.959 1_565 S
H526 C541 0.959 1_565 S
H527 C541 0.961 . S
H528 C542 0.960 . S
H529 C542 0.961 . S
H530 C542 0.959 . S
H531 C545 0.929 . S
H532 C546 0.931 . S
H533 C548 0.930 . S
C534 H522 0.930 . S
C534 C535 1.399 . S
C534 C539 1.399 . S
C535 C534 1.399 . S
C535 C536 1.376 . S
C536 H523 0.930 . S
C536 C535 1.376 . S
C536 C537 1.388 . S
C537 H524 0.930 . S
C537 C536 1.388 . S
C537 C538 1.390 . S
C538 C537 1.390 . S
C538 C539 1.394 . S
C538 C544 1.465 1_545 S
C539 C534 1.399 . S
C539 C538 1.394 . S
C539 C540 1.516 . S
C540 C539 1.516 . S
C540 C541 1.502 . S
C540 C542 1.561 . S
C540 C543 1.526 1_545 S
C541 H525 0.959 1_545 S
C541 H526 0.959 1_545 S
C541 H527 0.961 . S
C541 C540 1.502 . S
C542 H528 0.960 . S
C542 H529 0.961 . S
C542 H530 0.959 . S
C542 C540 1.561 . S
C543 C540 1.526 1_565 S
C543 C544 1.396 . S
C543 C548 1.390 . S
C544 C538 1.465 1_565 S
C544 C543 1.396 . S
C544 C545 1.399 . S
C545 H531 0.929 . S
C545 C544 1.399 . S
C545 C546 1.385 . S
C546 H532 0.931 . S
C546 C545 1.385 . S
C546 C547 1.389 . S
C547 C546 1.389 . S
C547 C548 1.387 . S
C548 H533 0.930 . S
C548 C543 1.390 . S
C548 C547 1.387 . S
H549 C561 0.930 . S
H550 C563 0.930 . S
H551 C564 0.930 . S
H552 C568 0.959 . S
H553 C568 0.959 . S
H554 C568 0.961 . S
H555 C569 0.960 . S
H556 C569 0.961 . S
H557 C569 0.959 . S
H558 C572 0.929 . S
H559 C573 0.931 . S
H560 C575 0.930 . S
C561 H549 0.930 . S
C561 C562 1.399 1_556 S
C561 C566 1.399 . S
C562 C561 1.399 1_554 S
C562 C563 1.376 . S
C563 H550 0.930 . S
C563 C562 1.376 . S
C563 C564 1.388 . S
C564 H551 0.930 . S
C564 C563 1.388 . S
C564 C565 1.390 . S
C565 C564 1.390 . S
C565 C566 1.394 1_554 S
C565 C571 1.465 . S
C566 C561 1.399 . S
C566 C565 1.394 1_556 S
C566 C567 1.516 . S
C567 C566 1.516 . S
C567 C568 1.502 . S
C567 C569 1.561 . S
C567 C570 1.526 . S
C568 H552 0.959 . S
C568 H553 0.959 . S
C568 H554 0.961 . S
C568 C567 1.502 . S
C569 H555 0.960 . S
C569 H556 0.961 . S
C569 H557 0.959 . S
C569 C567 1.561 . S
C570 C567 1.526 . S
C570 C571 1.396 1_556 S
C570 C575 1.390 . S
C571 C565 1.465 . S
C571 C570 1.396 1_554 S
C571 C572 1.399 . S
C572 H558 0.929 . S
C572 C571 1.399 . S
C572 C573 1.385 . S
C573 H559 0.931 . S
C573 C572 1.385 . S
C573 C574 1.405 . S
C574 C573 1.405 . S
C574 C575 1.375 1_554 S
C575 H560 0.930 . S
C575 C570 1.390 . S
C575 C574 1.375 1_556 S
H576 C588 0.930 . S
H577 C590 0.930 . S
H578 C591 0.930 . S
H579 C595 0.959 . S
H580 C595 0.959 . S
H581 C595 0.961 1_565 S
H582 C596 0.960 1_565 S
H583 C596 0.961 . S
H584 C596 0.959 . S
H585 C599 0.929 . S
H586 C600 0.931 . S
H587 C602 0.930 . S
C588 H576 0.930 . S
C588 C589 1.399 1_554 S
C588 C593 1.399 . S
C589 C588 1.399 1_556 S
C589 C590 1.376 . S
C590 H577 0.930 . S
C590 C589 1.376 . S
C590 C591 1.388 . S
C591 H578 0.930 . S
C591 C590 1.388 . S
C591 C592 1.390 . S
C592 C591 1.390 . S
C592 C593 1.394 1_556 S
C592 C598 1.465 1_565 S
C593 C588 1.399 . S
C593 C592 1.394 1_554 S
C593 C594 1.516 1_565 S
C594 C593 1.516 1_545 S
C594 C595 1.502 . S
C594 C596 1.561 . S
C594 C597 1.526 . S
C595 H579 0.959 . S
C595 H580 0.959 . S
C595 H581 0.961 1_545 S
C595 C594 1.502 . S
C596 H582 0.960 1_545 S
C596 H583 0.961 . S
C596 H584 0.959 . S
C596 C594 1.561 . S
C597 C594 1.526 . S
C597 C598 1.396 1_554 S
C597 C602 1.390 . S
C598 C592 1.465 1_545 S
C598 C597 1.396 1_556 S
C598 C599 1.399 . S
C599 H585 0.929 . S
C599 C598 1.399 . S
C599 C600 1.385 . S
C600 H586 0.931 . S
C600 C599 1.385 . S
C600 C601 1.389 1_556 S
C601 C600 1.389 1_554 S
C601 C602 1.387 . S
C602 H587 0.930 . S
C602 C597 1.390 . S
C602 C601 1.387 . S
H603 C615 0.930 . S
H604 C617 0.930 . S
H605 C618 0.930 . S
H606 C622 0.959 . S
H607 C622 0.959 . S
H608 C622 0.961 . S
H609 C623 0.960 . S
H610 C623 0.961 . S
H611 C623 0.959 . S
H612 C626 0.929 . S
H613 C627 0.931 . S
H614 C629 0.930 . S
C615 H603 0.930 . S
C615 C616 1.399 . S
C615 C620 1.399 . S
C616 C615 1.399 . S
C616 C617 1.376 1_554 S
C617 H604 0.930 . S
C617 C616 1.376 1_556 S
C617 C618 1.388 . S
C618 H605 0.930 . S
C618 C617 1.388 . S
C618 C619 1.390 . S
C619 C618 1.390 . S
C619 C620 1.394 1_556 S
C619 C625 1.465 1_655 S
C620 C615 1.399 . S
C620 C619 1.394 1_554 S
C620 C621 1.516 1_655 S
C621 C620 1.516 1_455 S
C621 C622 1.502 . S
C621 C623 1.561 . S
C621 C624 1.526 . S
C622 H606 0.959 . S
C622 H607 0.959 . S
C622 H608 0.961 . S
C622 C621 1.502 . S
C623 H609 0.960 . S
C623 H610 0.961 . S
C623 H611 0.959 . S
C623 C621 1.561 . S
C624 C621 1.526 . S
C624 C625 1.396 1_554 S
C624 C629 1.390 . S
C625 C619 1.465 1_455 S
C625 C624 1.396 1_556 S
C625 C626 1.399 . S
C626 H612 0.929 . S
C626 C625 1.399 . S
C626 C627 1.385 . S
C627 H613 0.931 . S
C627 C626 1.385 . S
C627 C628 1.389 . S
C628 C627 1.389 . S
C628 C629 1.387 1_556 S
C629 H614 0.930 . S
C629 C624 1.390 . S
C629 C628 1.387 1_554 S
H630 C642 0.930 . S
H631 C644 0.930 . S
H632 C645 0.930 . S
H633 C649 0.959 . S
H634 C649 0.959 . S
H635 C649 0.961 . S
H636 C650 0.960 . S
H637 C650 0.961 . S
H638 C650 0.959 . S
H639 C653 0.929 . S
H640 C654 0.931 . S
H641 C656 0.930 . S
C642 H630 0.930 . S
C642 C643 1.399 . S
C642 C647 1.399 . S
C643 C642 1.399 . S
C643 C644 1.376 . S
C644 H631 0.930 . S
C644 C643 1.376 . S
C644 C645 1.388 . S
C645 H632 0.930 . S
C645 C644 1.388 . S
C645 C646 1.390 . S
C646 C645 1.390 . S
C646 C647 1.394 . S
C646 C652 1.465 . S
C647 C642 1.399 . S
C647 C646 1.394 . S
C647 C648 1.516 . S
C648 C647 1.516 . S
C648 C649 1.502 . S
C648 C650 1.561 . S
C648 C651 1.526 . S
C649 H633 0.959 . S
C649 H634 0.959 . S
C649 H635 0.961 . S
C649 C648 1.502 . S
C650 H636 0.960 . S
C650 H637 0.961 . S
C650 H638 0.959 . S
C650 C648 1.561 . S
C651 C648 1.526 . S
C651 C652 1.396 . S
C651 C656 1.390 . S
C652 C646 1.465 . S
C652 C651 1.396 . S
C652 C653 1.399 . S
C653 H639 0.929 . S
C653 C652 1.399 . S
C653 C654 1.385 . S
C654 H640 0.931 . S
C654 C653 1.385 . S
C654 C655 1.389 . S
C655 C654 1.389 . S
C655 C656 1.387 . S
C656 H641 0.930 . S
C656 C651 1.390 . S
C656 C655 1.387 . S
H657 C669 0.930 . S
H658 C671 0.930 . S
H659 C672 0.930 . S
H660 C676 0.959 . S
H661 C676 0.959 . S
H662 C676 0.961 . S
H663 C677 0.960 . S
H664 C677 0.961 . S
H665 C677 0.959 . S
H666 C680 0.929 . S
H667 C681 0.931 . S
H668 C683 0.930 . S
C669 H657 0.930 . S
C669 C670 1.399 . S
C669 C674 1.399 . S
C670 C669 1.399 . S
C670 C671 1.376 . S
C671 H658 0.930 . S
C671 C670 1.376 . S
C671 C672 1.388 . S
C672 H659 0.930 . S
C672 C671 1.388 . S
C672 C673 1.390 . S
C673 C672 1.390 . S
C673 C674 1.394 . S
C673 C679 1.465 . S
C674 C669 1.399 . S
C674 C673 1.394 . S
C674 C675 1.516 . S
C675 C674 1.516 . S
C675 C676 1.502 . S
C675 C677 1.561 . S
C675 C678 1.526 . S
C676 H660 0.959 . S
C676 H661 0.959 . S
C676 H662 0.961 . S
C676 C675 1.502 . S
C677 H663 0.960 . S
C677 H664 0.961 . S
C677 H665 0.959 . S
C677 C675 1.561 . S
C678 C675 1.526 . S
C678 C679 1.396 . S
C678 C683 1.390 . S
C679 C673 1.465 . S
C679 C678 1.396 . S
C679 C680 1.399 . S
C680 H666 0.929 . S
C680 C679 1.399 . S
C680 C681 1.385 . S
C681 H667 0.931 . S
C681 C680 1.385 . S
C681 C682 1.389 . S
C682 C681 1.389 . S
C682 C683 1.387 . S
C683 H668 0.930 . S
C683 C678 1.390 . S
C683 C682 1.387 . S
H684 C696 0.930 . S
H685 C698 0.930 . S
H686 C699 0.930 . S
H687 C703 0.959 . S
H688 C703 0.959 . S
H689 C703 0.961 . S
H690 C704 0.960 . S
H691 C704 0.961 . S
H692 C704 0.959 . S
H693 C707 0.929 . S
H694 C708 0.931 . S
H695 C710 0.930 . S
C696 H684 0.930 . S
C696 C697 1.399 . S
C696 C701 1.399 . S
C697 C696 1.399 . S
C697 C698 1.376 . S
C698 H685 0.930 . S
C698 C697 1.376 . S
C698 C699 1.388 . S
C699 H686 0.930 . S
C699 C698 1.388 . S
C699 C700 1.390 . S
C700 C699 1.390 . S
C700 C701 1.394 . S
C700 C706 1.465 . S
C701 C696 1.399 . S
C701 C700 1.394 . S
C701 C702 1.516 . S
C702 C701 1.516 . S
C702 C703 1.502 . S
C702 C704 1.561 . S
C702 C705 1.526 . S
C703 H687 0.959 . S
C703 H688 0.959 . S
C703 H689 0.961 . S
C703 C702 1.502 . S
C704 H690 0.960 . S
C704 H691 0.961 . S
C704 H692 0.959 . S
C704 C702 1.561 . S
C705 C702 1.526 . S
C705 C706 1.396 . S
C705 C710 1.390 . S
C706 C700 1.465 . S
C706 C705 1.396 . S
C706 C707 1.399 . S
C707 H693 0.929 . S
C707 C706 1.399 . S
C707 C708 1.385 . S
C708 H694 0.931 . S
C708 C707 1.385 . S
C708 C709 1.389 . S
C709 C708 1.389 . S
C709 C710 1.387 . S
C710 H695 0.930 . S
C710 C705 1.390 . S
C710 C709 1.387 . S
H711 C723 0.930 . S
H712 C725 0.930 . S
H713 C726 0.930 . S
H714 C730 0.959 . S
H715 C730 0.959 . S
H716 C730 0.961 . S
H717 C731 0.960 . S
H718 C731 0.961 . S
H719 C731 0.959 . S
H720 C734 0.929 . S
H721 C735 0.931 . S
H722 C737 0.930 . S
C723 H711 0.930 . S
C723 C724 1.399 . S
C723 C728 1.399 . S
C724 C723 1.399 . S
C724 C725 1.376 . S
C725 H712 0.930 . S
C725 C724 1.376 . S
C725 C726 1.388 . S
C726 H713 0.930 . S
C726 C725 1.388 . S
C726 C727 1.390 . S
C727 C726 1.390 . S
C727 C728 1.394 . S
C727 C733 1.465 . S
C728 C723 1.399 . S
C728 C727 1.394 . S
C728 C729 1.516 . S
C729 C728 1.516 . S
C729 C730 1.502 . S
C729 C731 1.561 . S
C729 C732 1.526 . S
C730 H714 0.959 . S
C730 H715 0.959 . S
C730 H716 0.961 . S
C730 C729 1.502 . S
C731 H717 0.960 . S
C731 H718 0.961 . S
C731 H719 0.959 . S
C731 C729 1.561 . S
C732 C729 1.526 . S
C732 C733 1.396 . S
C732 C737 1.390 . S
C733 C727 1.465 . S
C733 C732 1.396 . S
C733 C734 1.399 . S
C734 H720 0.929 . S
C734 C733 1.399 . S
C734 C735 1.385 . S
C735 H721 0.931 . S
C735 C734 1.385 . S
C735 C736 1.389 . S
C736 C735 1.389 . S
C736 C737 1.387 . S
C737 H722 0.930 . S
C737 C732 1.390 . S
C737 C736 1.387 . S
H738 C750 0.930 . S
H739 C752 0.930 . S
H740 C753 0.930 . S
H741 C757 0.959 . S
H742 C757 0.959 . S
H743 C757 0.961 . S
H744 C758 0.960 . S
H745 C758 0.961 . S
H746 C758 0.959 . S
H747 C761 0.929 . S
H748 C762 0.931 . S
H749 C764 0.930 . S
C750 H738 0.930 . S
C750 C751 1.399 . S
C750 C755 1.399 . S
C751 C750 1.399 . S
C751 C752 1.376 . S
C752 H739 0.930 . S
C752 C751 1.376 . S
C752 C753 1.388 . S
C753 H740 0.930 . S
C753 C752 1.388 . S
C753 C754 1.390 . S
C754 C753 1.390 . S
C754 C755 1.394 . S
C754 C760 1.465 . S
C755 C750 1.399 . S
C755 C754 1.394 . S
C755 C756 1.516 . S
C756 C755 1.516 . S
C756 C757 1.502 . S
C756 C758 1.561 . S
C756 C759 1.526 . S
C757 H741 0.959 . S
C757 H742 0.959 . S
C757 H743 0.961 . S
C757 C756 1.502 . S
C758 H744 0.960 . S
C758 H745 0.961 . S
C758 H746 0.959 . S
C758 C756 1.561 . S
C759 C756 1.526 . S
C759 C760 1.396 . S
C759 C764 1.390 . S
C760 C754 1.465 . S
C760 C759 1.396 . S
C760 C761 1.399 . S
C761 H747 0.929 . S
C761 C760 1.399 . S
C761 C762 1.385 . S
C762 H748 0.931 . S
C762 C761 1.385 . S
C762 C763 1.389 . S
C763 C762 1.389 . S
C763 C764 1.387 . S
C764 H749 0.930 . S
C764 C759 1.390 . S
C764 C763 1.387 . S
H765 C777 0.930 . S
H766 C779 0.930 . S
H767 C780 0.930 . S
H768 C784 0.959 . S
H769 C784 0.959 . S
H770 C784 0.961 . S
H771 C785 0.960 . S
H772 C785 0.961 . S
H773 C785 0.959 . S
H774 C788 0.929 . S
H775 C789 0.931 . S
H776 C791 0.930 . S
C777 H765 0.930 . S
C777 C778 1.399 . S
C777 C782 1.399 . S
C778 C777 1.399 . S
C778 C779 1.376 . S
C779 H766 0.930 . S
C779 C778 1.376 . S
C779 C780 1.388 . S
C780 H767 0.930 . S
C780 C779 1.388 . S
C780 C781 1.390 . S
C781 C780 1.390 . S
C781 C782 1.394 . S
C781 C787 1.465 . S
C782 C777 1.399 . S
C782 C781 1.394 . S
C782 C783 1.516 . S
C783 C782 1.516 . S
C783 C784 1.502 . S
C783 C785 1.561 . S
C783 C786 1.526 . S
C784 H768 0.959 . S
C784 H769 0.959 . S
C784 H770 0.961 . S
C784 C783 1.502 . S
C785 H771 0.960 . S
C785 H772 0.961 . S
C785 H773 0.959 . S
C785 C783 1.561 . S
C786 C783 1.526 . S
C786 C787 1.396 . S
C786 C791 1.390 . S
C787 C781 1.465 . S
C787 C786 1.396 . S
C787 C788 1.399 . S
C788 H774 0.929 . S
C788 C787 1.399 . S
C788 C789 1.385 . S
C789 H775 0.931 . S
C789 C788 1.385 . S
C789 C790 1.389 . S
C790 C789 1.389 . S
C790 C791 1.387 . S
C791 H776 0.930 . S
C791 C786 1.390 . S
C791 C790 1.387 . S
H792 C804 0.930 . S
H793 C806 0.930 . S
H794 C807 0.930 . S
H795 C811 0.959 . S
H796 C811 0.959 . S
H797 C811 0.961 . S
H798 C812 0.960 . S
H799 C812 0.961 . S
H800 C812 0.959 . S
H801 C815 0.929 . S
H802 C816 0.931 . S
H803 C818 0.930 . S
C804 H792 0.930 . S
C804 C805 1.399 . S
C804 C809 1.401 . S
C805 C804 1.399 . S
C805 C806 1.376 . S
C806 H793 0.930 . S
C806 C805 1.376 . S
C806 C807 1.388 1_655 S
C807 H794 0.930 . S
C807 C806 1.388 1_455 S
C807 C808 1.390 . S
C808 C807 1.390 . S
C808 C809 1.398 1_455 S
C808 C814 1.465 . S
C809 C804 1.401 . S
C809 C808 1.398 1_655 S
C809 C810 1.510 1_655 S
C810 C809 1.510 1_455 S
C810 C811 1.502 . S
C810 C812 1.561 1_455 S
C810 C813 1.526 . S
C811 H795 0.959 . S
C811 H796 0.959 . S
C811 H797 0.961 . S
C811 C810 1.502 . S
C812 H798 0.960 . S
C812 H799 0.961 . S
C812 H800 0.959 . S
C812 C810 1.561 1_655 S
C813 C810 1.526 . S
C813 C814 1.396 . S
C813 C818 1.390 . S
C814 C808 1.465 . S
C814 C813 1.396 . S
C814 C815 1.399 . S
C815 H801 0.929 . S
C815 C814 1.399 . S
C815 C816 1.385 . S
C816 H802 0.931 . S
C816 C815 1.385 . S
C816 C817 1.389 . S
C817 C816 1.389 . S
C817 C818 1.387 . S
C818 H803 0.930 . S
C818 C813 1.390 . S
C818 C817 1.387 . S
H819 C831 0.930 . S
H820 C833 0.930 . S
H821 C834 0.930 . S
H822 C838 0.959 . S
H823 C838 0.959 . S
H824 C838 0.961 . S
H825 C839 0.960 . S
H826 C839 0.961 . S
H827 C839 0.959 . S
H828 C842 0.929 . S
H829 C843 0.931 . S
H830 C845 0.930 . S
C831 H819 0.930 . S
C831 C832 1.399 . S
C831 C836 1.399 . S
C832 C831 1.399 . S
C832 C833 1.376 . S
C833 H820 0.930 . S
C833 C832 1.376 . S
C833 C834 1.388 . S
C834 H821 0.930 . S
C834 C833 1.388 . S
C834 C835 1.390 . S
C835 C834 1.390 . S
C835 C836 1.394 . S
C835 C841 1.465 . S
C836 C831 1.399 . S
C836 C835 1.394 . S
C836 C837 1.516 . S
C837 C836 1.516 . S
C837 C838 1.502 . S
C837 C839 1.561 . S
C837 C840 1.526 . S
C838 H822 0.959 . S
C838 H823 0.959 . S
C838 H824 0.961 . S
C838 C837 1.502 . S
C839 H825 0.960 . S
C839 H826 0.961 . S
C839 H827 0.959 . S
C839 C837 1.561 . S
C840 C837 1.526 . S
C840 C841 1.396 . S
C840 C845 1.390 . S
C841 C835 1.465 . S
C841 C840 1.396 . S
C841 C842 1.399 . S
C842 H828 0.929 . S
C842 C841 1.399 . S
C842 C843 1.385 . S
C843 H829 0.931 . S
C843 C842 1.385 . S
C843 C844 1.389 . S
C844 C843 1.389 . S
C844 C845 1.387 . S
C845 H830 0.930 . S
C845 C840 1.390 . S
C845 C844 1.387 . S
H846 C858 0.930 . S
H847 C860 0.953 . S
H848 C861 0.930 . S
H849 C865 0.959 . S
H850 C865 0.959 . S
H851 C865 0.961 . S
H852 C866 0.960 . S
H853 C866 0.961 . S
H854 C866 0.959 . S
H855 C869 0.929 . S
H856 C870 0.931 . S
H857 C872 0.930 . S
C858 H846 0.930 . S
C858 C859 1.399 . S
C858 C863 1.399 . S
C859 C858 1.399 . S
C859 C860 1.338 1_545 S
C860 H847 0.953 . S
C860 C859 1.338 1_565 S
C860 C861 1.406 . S
C861 H848 0.930 . S
C861 C860 1.406 . S
C861 C862 1.389 1_565 S
C862 C861 1.389 1_545 S
C862 C863 1.395 . S
C862 C868 1.465 1_545 S
C863 C858 1.399 . S
C863 C862 1.395 . S
C863 C864 1.516 . S
C864 C863 1.516 . S
C864 C865 1.502 . S
C864 C866 1.561 . S
C864 C867 1.526 . S
C865 H849 0.959 . S
C865 H850 0.959 . S
C865 H851 0.961 . S
C865 C864 1.502 . S
C866 H852 0.960 . S
C866 H853 0.961 . S
C866 H854 0.959 . S
C866 C864 1.561 . S
C867 C864 1.526 . S
C867 C868 1.396 1_545 S
C867 C872 1.390 . S
C868 C862 1.465 1_565 S
C868 C867 1.396 1_565 S
C868 C869 1.399 . S
C869 H855 0.929 . S
C869 C868 1.399 . S
C869 C870 1.385 . S
C870 H856 0.931 . S
C870 C869 1.385 . S
C870 C871 1.389 . S
C871 C870 1.389 . S
C871 C872 1.387 1_565 S
C872 H857 0.930 . S
C872 C867 1.390 . S
C872 C871 1.387 1_545 S
H873 C885 0.930 . S
H874 C887 0.930 . S
H875 C888 0.930 . S
H876 C892 0.959 . S
H877 C892 0.959 . S
H878 C892 0.961 . S
H879 C893 0.960 . S
H880 C893 0.961 . S
H881 C893 0.959 . S
H882 C896 0.929 . S
H883 C897 0.931 . S
H884 C899 0.930 . S
C885 H873 0.930 . S
C885 C886 1.399 . S
C885 C890 1.399 . S
C886 C885 1.399 . S
C886 C887 1.376 . S
C887 H874 0.930 . S
C887 C886 1.376 . S
C887 C888 1.388 . S
C888 H875 0.930 . S
C888 C887 1.388 . S
C888 C889 1.390 . S
C889 C888 1.390 . S
C889 C890 1.394 . S
C889 C895 1.465 . S
C890 C885 1.399 . S
C890 C889 1.394 . S
C890 C891 1.516 . S
C891 C890 1.516 . S
C891 C892 1.502 . S
C891 C893 1.561 . S
C891 C894 1.526 . S
C892 H876 0.959 . S
C892 H877 0.959 . S
C892 H878 0.961 . S
C892 C891 1.502 . S
C893 H879 0.960 . S
C893 H880 0.961 . S
C893 H881 0.959 . S
C893 C891 1.561 . S
C894 C891 1.526 . S
C894 C895 1.396 . S
C894 C899 1.390 . S
C895 C889 1.465 . S
C895 C894 1.396 . S
C895 C896 1.399 . S
C896 H882 0.929 . S
C896 C895 1.399 . S
C896 C897 1.385 . S
C897 H883 0.931 . S
C897 C896 1.385 . S
C897 C898 1.389 . S
C898 C897 1.389 . S
C898 C899 1.387 . S
C899 H884 0.930 . S
C899 C894 1.390 . S
C899 C898 1.387 . S
H900 C912 0.930 . S
H901 C914 0.930 . S
H902 C915 0.930 . S
H903 C919 0.959 . S
H904 C919 0.959 . S
H905 C919 0.961 . S
H906 C920 0.960 . S
H907 C920 0.961 . S
H908 C920 0.959 . S
H909 C923 0.929 . S
H910 C924 0.931 . S
H911 C926 0.930 . S
C912 H900 0.930 . S
C912 C913 1.399 . S
C912 C917 1.399 . S
C913 C912 1.399 . S
C913 C914 1.376 . S
C914 H901 0.930 . S
C914 C913 1.376 . S
C914 C915 1.388 . S
C915 H902 0.930 . S
C915 C914 1.388 . S
C915 C916 1.390 . S
C916 C915 1.390 . S
C916 C917 1.394 . S
C916 C922 1.465 . S
C917 C912 1.399 . S
C917 C916 1.394 . S
C917 C918 1.516 . S
C918 C917 1.516 . S
C918 C919 1.502 . S
C918 C920 1.561 . S
C918 C921 1.526 . S
C919 H903 0.959 . S
C919 H904 0.959 . S
C919 H905 0.961 . S
C919 C918 1.502 . S
C920 H906 0.960 . S
C920 H907 0.961 . S
C920 H908 0.959 . S
C920 C918 1.561 . S
C921 C918 1.526 . S
C921 C922 1.396 . S
C921 C926 1.390 . S
C922 C916 1.465 . S
C922 C921 1.396 . S
C922 C923 1.399 . S
C923 H909 0.929 . S
C923 C922 1.399 . S
C923 C924 1.385 . S
C924 H910 0.931 . S
C924 C923 1.385 . S
C924 C925 1.389 . S
C925 C924 1.389 . S
C925 C926 1.387 . S
C926 H911 0.930 . S
C926 C921 1.390 . S
C926 C925 1.387 . S
H927 C939 0.930 . S
H928 C941 0.930 . S
H929 C942 0.930 . S
H930 C946 0.959 . S
H931 C946 0.959 . S
H932 C946 0.961 . S
H933 C947 0.960 . S
H934 C947 0.961 . S
H935 C947 0.959 . S
H936 C950 0.929 . S
H937 C951 0.931 1_554 S
H938 C953 0.930 . S
C939 H927 0.930 . S
C939 C940 1.399 . S
C939 C944 1.399 . S
C940 C939 1.399 . S
C940 C941 1.376 . S
C941 H928 0.930 . S
C941 C940 1.376 . S
C941 C942 1.388 . S
C942 H929 0.930 . S
C942 C941 1.388 . S
C942 C943 1.390 . S
C943 C942 1.390 . S
C943 C944 1.394 . S
C943 C949 1.465 . S
C944 C939 1.399 . S
C944 C943 1.394 . S
C944 C945 1.516 . S
C945 C944 1.516 . S
C945 C946 1.502 . S
C945 C947 1.561 . S
C945 C948 1.526 . S
C946 H930 0.959 . S
C946 H931 0.959 . S
C946 H932 0.961 . S
C946 C945 1.502 . S
C947 H933 0.960 . S
C947 H934 0.961 . S
C947 H935 0.959 . S
C947 C945 1.561 . S
C948 C945 1.526 . S
C948 C949 1.396 . S
C948 C953 1.390 . S
C949 C943 1.465 . S
C949 C948 1.396 . S
C949 C950 1.399 . S
C950 H936 0.929 . S
C950 C949 1.399 . S
C950 C951 1.385 . S
C951 H937 0.931 1_556 S
C951 C950 1.385 . S
C951 C952 1.389 . S
C952 C951 1.389 . S
C952 C953 1.387 . S
C953 H938 0.930 . S
C953 C948 1.390 . S
C953 C952 1.387 . S
H954 C966 0.930 . S
H955 C968 0.930 . S
H956 C969 0.930 . S
H957 C973 0.959 . S
H958 C973 0.959 . S
H959 C973 0.961 . S
H960 C974 0.960 . S
H961 C974 0.961 . S
H962 C974 0.959 . S
H963 C977 0.929 . S
H964 C978 0.931 . S
H965 C980 0.930 . S
C966 H954 0.930 . S
C966 C967 1.399 . S
C966 C971 1.399 . S
C967 C966 1.399 . S
C967 C968 1.376 . S
C968 H955 0.930 . S
C968 C967 1.376 . S
C968 C969 1.388 . S
C969 H956 0.930 . S
C969 C968 1.388 . S
C969 C970 1.390 . S
C970 C969 1.390 . S
C970 C971 1.394 . S
C970 C976 1.465 . S
C971 C966 1.399 . S
C971 C970 1.394 . S
C971 C972 1.516 . S
C972 C971 1.516 . S
C972 C973 1.502 . S
C972 C974 1.561 . S
C972 C975 1.526 . S
C973 H957 0.959 . S
C973 H958 0.959 . S
C973 H959 0.961 . S
C973 C972 1.502 . S
C974 H960 0.960 . S
C974 H961 0.961 . S
C974 H962 0.959 . S
C974 C972 1.561 . S
C975 C972 1.526 . S
C975 C976 1.396 . S
C975 C980 1.390 . S
C976 C970 1.465 . S
C976 C975 1.396 . S
C976 C977 1.399 . S
C977 H963 0.929 . S
C977 C976 1.399 . S
C977 C978 1.385 . S
C978 H964 0.931 . S
C978 C977 1.385 . S
C978 C979 1.389 . S
C979 C978 1.389 . S
C979 C980 1.387 . S
C980 H965 0.930 . S
C980 C975 1.390 . S
C980 C979 1.387 . S
H981 C993 0.930 . S
H982 C995 0.930 . S
H983 C996 0.930 . S
H984 C1000 0.959 . S
H985 C1000 0.959 . S
H986 C1000 0.961 . S
H987 C1001 0.960 . S
H988 C1001 0.961 . S
H989 C1001 0.959 . S
H990 C1004 0.929 . S
H991 C1005 0.931 . S
H992 C1007 0.930 . S
C993 H981 0.930 . S
C993 C994 1.399 . S
C993 C998 1.399 . S
C994 C993 1.399 . S
C994 C995 1.376 . S
C995 H982 0.930 . S
C995 C994 1.376 . S
C995 C996 1.388 . S
C996 H983 0.930 . S
C996 C995 1.388 . S
C996 C997 1.390 . S
C997 C996 1.390 . S
C997 C998 1.394 . S
C997 C1003 1.465 . S
C998 C993 1.399 . S
C998 C997 1.394 . S
C998 C999 1.516 . S
C999 C998 1.516 . S
C999 C1000 1.502 . S
C999 C1001 1.561 . S
C999 C1002 1.526 . S
C1000 H984 0.959 . S
C1000 H985 0.959 . S
C1000 H986 0.961 . S
C1000 C999 1.502 . S
C1001 H987 0.960 . S
C1001 H988 0.961 . S
C1001 H989 0.959 . S
C1001 C999 1.561 . S
C1002 C999 1.526 . S
C1002 C1003 1.396 . S
C1002 C1007 1.390 . S
C1003 C997 1.465 . S
C1003 C1002 1.396 . S
C1003 C1004 1.399 . S
C1004 H990 0.929 . S
C1004 C1003 1.399 . S
C1004 C1005 1.385 . S
C1005 H991 0.931 . S
C1005 C1004 1.385 . S
C1005 C1006 1.389 . S
C1006 C1005 1.389 . S
C1006 C1007 1.387 . S
C1007 H992 0.930 . S
C1007 C1002 1.390 . S
C1007 C1006 1.387 . S
H1008 C1020 0.930 . S
H1009 C1022 0.930 . S
H1010 C1023 0.930 . S
H1011 C1027 0.959 . S
H1012 C1027 0.959 . S
H1013 C1027 0.961 . S
H1014 C1028 0.960 . S
H1015 C1028 0.961 . S
H1016 C1028 0.959 . S
H1017 C1031 0.929 . S
H1018 C1032 0.931 . S
H1019 C1034 0.930 . S
C1020 H1008 0.930 . S
C1020 C1021 1.399 . S
C1020 C1025 1.399 . S
C1021 C1020 1.399 . S
C1021 C1022 1.376 . S
C1022 H1009 0.930 . S
C1022 C1021 1.376 . S
C1022 C1023 1.388 . S
C1023 H1010 0.930 . S
C1023 C1022 1.388 . S
C1023 C1024 1.390 . S
C1024 C1023 1.390 . S
C1024 C1025 1.394 . S
C1024 C1030 1.465 . S
C1025 C1020 1.399 . S
C1025 C1024 1.394 . S
C1025 C1026 1.516 . S
C1026 C1025 1.516 . S
C1026 C1027 1.502 . S
C1026 C1028 1.561 . S
C1026 C1029 1.526 . S
C1027 H1011 0.959 . S
C1027 H1012 0.959 . S
C1027 H1013 0.961 . S
C1027 C1026 1.502 . S
C1028 H1014 0.960 . S
C1028 H1015 0.961 . S
C1028 H1016 0.959 . S
C1028 C1026 1.561 . S
C1029 C1026 1.526 . S
C1029 C1030 1.396 . S
C1029 C1034 1.390 . S
C1030 C1024 1.465 . S
C1030 C1029 1.396 . S
C1030 C1031 1.399 . S
C1031 H1017 0.929 . S
C1031 C1030 1.399 . S
C1031 C1032 1.385 . S
C1032 H1018 0.931 . S
C1032 C1031 1.385 . S
C1032 C1033 1.389 . S
C1033 C1032 1.389 . S
C1033 C1034 1.387 . S
C1034 H1019 0.930 . S
C1034 C1029 1.390 . S
C1034 C1033 1.387 . S
C319 C29 1.724 . S
C331 C267 1.780 . S
C346 C51 1.737 . S
C358 C289 1.732 . S
C373 C97 1.767 . S
C385 C221 1.719 . S
C400 C153 1.683 . S
C412 C85 1.656 . S
C427 C187 1.740 . S
C439 C17 1.687 . S
C454 C63 1.693 . S
C466 C119 1.751 . S
C481 C255 1.726 . S
C493 C199 1.729 . S
C508 C301 1.738 . S
C520 C131 1.756 . S
C535 C165 1.773 . S
C547 C233 1.779 . S
C562 C68 1.264 . S
C574 C8 1.233 1_554 S
C589 C34 1.265 . S
C601 C0 1.238 . S
C616 C42 1.254 . S
C628 C76 1.300 . S
C643 C102 1.294 . S
C655 C178 1.275 . S
C670 C110 1.293 . S
C682 C136 1.246 . S
C697 C144 1.262 . S
C709 C170 1.294 . S
C724 C272 1.275 . S
C736 C212 1.314 . S
C751 C238 1.242 . S
C763 C204 1.263 . S
C778 C280 1.303 . S
C790 C246 1.257 . S
C805 C13 1.106 . S
C817 C4 1.073 . S
C832 C38 1.099 . S
C844 C47 1.027 . S
C859 C81 1.029 . S
C871 C72 1.081 . S
C886 C115 1.038 . S
C898 C106 1.121 1_556 S
C913 C149 1.034 . S
C925 C140 1.097 1_556 S
C940 C183 1.041 . S
C952 C174 1.070 1_556 S
C967 C217 1.112 . S
C979 C208 1.081 1_554 S
C994 C251 1.058 1_554 S
C1006 C242 1.090 . S
C1021 C285 1.047 . S
C1033 C276 1.057 1_554 S
