# Generated by pormake.
# Topology unv, (4)-cn, num edge types: 1
# Building blocks:
#     Node 0, Type 0, BuildingBlock: AZAVOO_clean_sbu_0, # of connection points: 4
#     Node 1, Type 0, BuildingBlock: AZAVOO_clean_sbu_0, # of connection points: 4
#     Node 2, Type 0, BuildingBlock: AZAVOO_clean_sbu_0, # of connection points: 4
#     Node 3, Type 0, BuildingBlock: AZAVOO_clean_sbu_0, # of connection points: 4
#     Node 4, Type 0, BuildingBlock: AZAVOO_clean_sbu_0, # of connection points: 4
#     Node 5, Type 0, BuildingBlock: AZAVOO_clean_sbu_0, # of connection points: 4
#     Node 6, Type 0, BuildingBlock: AZAVOO_clean_sbu_0, # of connection points: 4
#     Node 7, Type 0, BuildingBlock: AZAVOO_clean_sbu_0, # of connection points: 4
#     Node 8, Type 0, BuildingBlock: AZAVOO_clean_sbu_0, # of connection points: 4
#     Node 9, Type 0, BuildingBlock: AZAVOO_clean_sbu_0, # of connection points: 4
#     Node 10, Type 0, BuildingBlock: AZAVOO_clean_sbu_0, # of connection points: 4
#     Node 11, Type 0, BuildingBlock: AZAVOO_clean_sbu_0, # of connection points: 4
#     Node 12, Type 0, BuildingBlock: AZAVOO_clean_sbu_0, # of connection points: 4
#     Node 13, Type 0, BuildingBlock: AZAVOO_clean_sbu_0, # of connection points: 4
#     Node 14, Type 0, BuildingBlock: AZAVOO_clean_sbu_0, # of connection points: 4
#     Node 15, Type 0, BuildingBlock: AZAVOO_clean_sbu_0, # of connection points: 4
#     Node 16, Type 0, BuildingBlock: AZAVOO_clean_sbu_0, # of connection points: 4
#     Node 17, Type 0, BuildingBlock: AZAVOO_clean_sbu_0, # of connection points: 4
#     Node 18, Type 0, BuildingBlock: AZAVOO_clean_sbu_0, # of connection points: 4
#     Node 19, Type 0, BuildingBlock: AZAVOO_clean_sbu_0, # of connection points: 4
#     Node 20, Type 0, BuildingBlock: AZAVOO_clean_sbu_0, # of connection points: 4
#     Node 21, Type 0, BuildingBlock: AZAVOO_clean_sbu_0, # of connection points: 4
#     Node 22, Type 0, BuildingBlock: AZAVOO_clean_sbu_0, # of connection points: 4
#     Node 23, Type 0, BuildingBlock: AZAVOO_clean_sbu_0, # of connection points: 4
#     Edge 24, Type (0, 0), BuildingBlock: CIFDUS_clean_linker_0, # of connection points: 2
#     Edge 25, Type (0, 0), BuildingBlock: CIFDUS_clean_linker_0, # of connection points: 2
#     Edge 26, Type (0, 0), BuildingBlock: CIFDUS_clean_linker_0, # of connection points: 2
#     Edge 27, Type (0, 0), BuildingBlock: CIFDUS_clean_linker_0, # of connection points: 2
#     Edge 28, Type (0, 0), BuildingBlock: CIFDUS_clean_linker_0, # of connection points: 2
#     Edge 29, Type (0, 0), BuildingBlock: CIFDUS_clean_linker_0, # of connection points: 2
#     Edge 30, Type (0, 0), BuildingBlock: CIFDUS_clean_linker_0, # of connection points: 2
#     Edge 31, Type (0, 0), BuildingBlock: CIFDUS_clean_linker_0, # of connection points: 2
#     Edge 32, Type (0, 0), BuildingBlock: CIFDUS_clean_linker_0, # of connection points: 2
#     Edge 33, Type (0, 0), BuildingBlock: CIFDUS_clean_linker_0, # of connection points: 2
#     Edge 34, Type (0, 0), BuildingBlock: CIFDUS_clean_linker_0, # of connection points: 2
#     Edge 35, Type (0, 0), BuildingBlock: CIFDUS_clean_linker_0, # of connection points: 2
#     Edge 36, Type (0, 0), BuildingBlock: CIFDUS_clean_linker_0, # of connection points: 2
#     Edge 37, Type (0, 0), BuildingBlock: CIFDUS_clean_linker_0, # of connection points: 2
#     Edge 38, Type (0, 0), BuildingBlock: CIFDUS_clean_linker_0, # of connection points: 2
#     Edge 39, Type (0, 0), BuildingBlock: CIFDUS_clean_linker_0, # of connection points: 2
#     Edge 40, Type (0, 0), BuildingBlock: CIFDUS_clean_linker_0, # of connection points: 2
#     Edge 41, Type (0, 0), BuildingBlock: CIFDUS_clean_linker_0, # of connection points: 2
#     Edge 42, Type (0, 0), BuildingBlock: CIFDUS_clean_linker_0, # of connection points: 2
#     Edge 43, Type (0, 0), BuildingBlock: CIFDUS_clean_linker_0, # of connection points: 2
#     Edge 44, Type (0, 0), BuildingBlock: CIFDUS_clean_linker_0, # of connection points: 2
#     Edge 45, Type (0, 0), BuildingBlock: CIFDUS_clean_linker_0, # of connection points: 2
#     Edge 46, Type (0, 0), BuildingBlock: CIFDUS_clean_linker_0, # of connection points: 2
#     Edge 47, Type (0, 0), BuildingBlock: CIFDUS_clean_linker_0, # of connection points: 2
#     Edge 48, Type (0, 0), BuildingBlock: CIFDUS_clean_linker_0, # of connection points: 2
#     Edge 49, Type (0, 0), BuildingBlock: CIFDUS_clean_linker_0, # of connection points: 2
#     Edge 50, Type (0, 0), BuildingBlock: CIFDUS_clean_linker_0, # of connection points: 2
#     Edge 51, Type (0, 0), BuildingBlock: CIFDUS_clean_linker_0, # of connection points: 2
#     Edge 52, Type (0, 0), BuildingBlock: CIFDUS_clean_linker_0, # of connection points: 2
#     Edge 53, Type (0, 0), BuildingBlock: CIFDUS_clean_linker_0, # of connection points: 2
#     Edge 54, Type (0, 0), BuildingBlock: CIFDUS_clean_linker_0, # of connection points: 2
#     Edge 55, Type (0, 0), BuildingBlock: CIFDUS_clean_linker_0, # of connection points: 2
#     Edge 56, Type (0, 0), BuildingBlock: CIFDUS_clean_linker_0, # of connection points: 2
#     Edge 57, Type (0, 0), BuildingBlock: CIFDUS_clean_linker_0, # of connection points: 2
#     Edge 58, Type (0, 0), BuildingBlock: CIFDUS_clean_linker_0, # of connection points: 2
#     Edge 59, Type (0, 0), BuildingBlock: CIFDUS_clean_linker_0, # of connection points: 2
#     Edge 60, Type (0, 0), BuildingBlock: CIFDUS_clean_linker_0, # of connection points: 2
#     Edge 61, Type (0, 0), BuildingBlock: CIFDUS_clean_linker_0, # of connection points: 2
#     Edge 62, Type (0, 0), BuildingBlock: CIFDUS_clean_linker_0, # of connection points: 2
#     Edge 63, Type (0, 0), BuildingBlock: CIFDUS_clean_linker_0, # of connection points: 2
#     Edge 64, Type (0, 0), BuildingBlock: CIFDUS_clean_linker_0, # of connection points: 2
#     Edge 65, Type (0, 0), BuildingBlock: CIFDUS_clean_linker_0, # of connection points: 2
#     Edge 66, Type (0, 0), BuildingBlock: CIFDUS_clean_linker_0, # of connection points: 2
#     Edge 67, Type (0, 0), BuildingBlock: CIFDUS_clean_linker_0, # of connection points: 2
#     Edge 68, Type (0, 0), BuildingBlock: CIFDUS_clean_linker_0, # of connection points: 2
#     Edge 69, Type (0, 0), BuildingBlock: CIFDUS_clean_linker_0, # of connection points: 2
#     Edge 70, Type (0, 0), BuildingBlock: CIFDUS_clean_linker_0, # of connection points: 2
#     Edge 71, Type (0, 0), BuildingBlock: CIFDUS_clean_linker_0, # of connection points: 2
# Relax obj value: 0.356
# Max RMSD: 0.353
# Mean RMSD: 0.319
data_MOF--net-unv--node1-AZAVOO_clean_sbu_0--edge1-CIFDUS_clean_linker_0
_symmetry_space_group_name_H-M    P1
_symmetry_Int_Tables_number       1
_symmetry_cell_setting            triclinic
loop_
_symmetry_equiv_pos_as_xyz
'x, y, z'
_cell_length_a     42.721037
_cell_length_b     41.455316
_cell_length_c     42.231392
_cell_angle_alpha  90.098425
_cell_angle_beta   90.533589
_cell_angle_gamma 89.963663
loop_
_atom_site_label
_atom_site_type_symbol
_atom_site_fract_x
_atom_site_fract_y
_atom_site_fract_z
_atom_type_partial_charge
Mg0 Mg 0.07618 0.05892 0.40369 0.0
O1 O 0.02984 0.03945 0.42259 0.0
O2 O 0.02186 0.05653 0.47202 0.0
Mg3 Mg 0.06426 0.0881 0.48494 0.0
C4 C 0.01341 0.04039 0.44763 0.0
C5 C 0.05454 0.01104 0.35445 0.0
O6 O 0.05536 0.9951 0.38129 0.0
O7 O 0.0534 0.10817 0.39611 0.0
O8 O 0.05123 0.12497 0.44643 0.0
O9 O 0.10154 0.01648 0.42326 0.0
O10 O 0.09262 0.06074 0.45091 0.0
C11 C 0.04759 0.12982 0.41674 0.0
C12 C 0.10204 0.03118 0.45022 0.0
O13 O 0.06204 0.04076 0.35456 0.0
Mg14 Mg 0.93049 0.35974 0.402 0.0
O15 O 0.96797 0.3968 0.41719 0.0
O16 O 0.98185 0.38729 0.46746 0.0
Mg17 Mg 0.95257 0.34518 0.48496 0.0
C18 C 0.98444 0.40319 0.44179 0.0
C19 C 0.91627 0.37502 0.33045 0.0
O20 O 0.89134 0.35751 0.33619 0.0
O21 O 0.96764 0.31982 0.39823 0.0
O22 O 0.97799 0.313 0.44982 0.0
O23 O 0.89345 0.39274 0.419 0.0
O24 O 0.9158 0.35598 0.44946 0.0
C25 C 0.98231 0.30575 0.42082 0.0
C26 C 0.89717 0.38037 0.44688 0.0
O27 O 0.93747 0.37747 0.3516 0.0
Mg28 Mg 0.02112 0.8779 0.13838 0.0
O29 O 0.98462 0.91399 0.11927 0.0
O30 O 0.96466 0.89379 0.07439 0.0
Mg31 Mg 0.98969 0.84644 0.0637 0.0
C32 C 0.96614 0.91589 0.0954 0.0
C33 C 0.02097 0.88929 0.21204 0.0
O34 O 0.02095 0.8576 0.21258 0.0
O35 O 0.98447 0.84152 0.15367 0.0
O36 O 0.96915 0.8211 0.10709 0.0
O37 O 0.05721 0.90424 0.11226 0.0
O38 O 0.03048 0.86324 0.09199 0.0
C39 C 0.96854 0.82139 0.13731 0.0
C40 C 0.05022 0.88642 0.08799 0.0
O41 O 0.02038 0.90378 0.18561 0.0
Mg42 Mg 0.92036 0.58902 0.17541 0.0
O43 O 0.96379 0.56673 0.15038 0.0
O44 O 0.97606 0.59547 0.10723 0.0
Mg45 Mg 0.95355 0.64367 0.11755 0.0
C46 C 0.97909 0.57044 0.12463 0.0
C47 C 0.91756 0.52144 0.20838 0.0
O48 O 0.90583 0.51377 0.18051 0.0
O49 O 0.94596 0.62682 0.20618 0.0
O50 O 0.97512 0.63259 0.16532 0.0
O51 O 0.8917 0.56694 0.13724 0.0
O52 O 0.9111 0.6163 0.13326 0.0
C53 C 0.96537 0.64392 0.1912 0.0
C54 C 0.89641 0.59241 0.12026 0.0
O55 O 0.92519 0.5506 0.21389 0.0
Mg56 Mg 0.361 0.07576 0.13833 0.0
O57 O 0.38388 0.0427 0.10175 0.0
O58 O 0.43018 0.02536 0.11991 0.0
Mg59 Mg 0.43798 0.04891 0.16826 0.0
C60 C 0.40874 0.02598 0.09869 0.0
C61 C 0.28808 0.06946 0.11647 0.0
O62 O 0.28104 0.0691 0.14668 0.0
O63 O 0.34881 0.03214 0.16903 0.0
O64 O 0.39692 0.01904 0.18638 0.0
O65 O 0.38498 0.11845 0.11811 0.0
O66 O 0.4055 0.08814 0.15601 0.0
C67 C 0.36735 0.01451 0.18542 0.0
C68 C 0.4085 0.11162 0.13643 0.0
O69 O 0.31652 0.07182 0.10828 0.0
Mg70 Mg 0.67027 0.3782 0.06174 0.0
O71 O 0.6583 0.42735 0.04138 0.0
O72 O 0.61225 0.44489 0.05876 0.0
Mg73 Mg 0.59417 0.40457 0.09127 0.0
C74 C 0.63681 0.4486 0.04213 0.0
C75 C 0.72467 0.39295 0.01626 0.0
O76 O 0.70419 0.38095 0.99605 0.0
O77 O 0.68176 0.40116 0.1097 0.0
O78 O 0.63404 0.41335 0.12741 0.0
O79 O 0.64585 0.35595 0.02026 0.0
O80 O 0.62174 0.3682 0.06466 0.0
C81 C 0.6637 0.41185 0.13116 0.0
C82 C 0.61985 0.35901 0.03547 0.0
O83 O 0.71985 0.38926 0.0457 0.0
Mg84 Mg 0.33172 0.8958 0.4127 0.0
O85 O 0.35653 0.94042 0.43302 0.0
O86 O 0.40558 0.94459 0.41611 0.0
Mg87 Mg 0.41194 0.90134 0.38262 0.0
C88 C 0.38282 0.95493 0.43266 0.0
C89 C 0.2895 0.92039 0.46326 0.0
O90 O 0.31776 0.91915 0.47564 0.0
O91 O 0.32471 0.92255 0.36588 0.0
O92 O 0.37411 0.92062 0.34876 0.0
O93 O 0.34937 0.86571 0.45216 0.0
O94 O 0.37611 0.8738 0.40846 0.0
C95 C 0.34521 0.92753 0.34464 0.0
C96 C 0.37516 0.86235 0.43685 0.0
O97 O 0.28575 0.91296 0.43419 0.0
Mg98 Mg 0.68047 0.55228 0.34315 0.0
O99 O 0.65691 0.52096 0.38069 0.0
O100 O 0.60876 0.5075 0.36447 0.0
Mg101 Mg 0.6013 0.52986 0.31581 0.0
C102 C 0.63084 0.5067 0.38499 0.0
C103 C 0.7448 0.57059 0.37384 0.0
O104 O 0.74057 0.59527 0.3548 0.0
O105 O 0.68954 0.50771 0.31133 0.0
O106 O 0.63997 0.49805 0.29653 0.0
O107 O 0.65936 0.59585 0.365 0.0
O108 O 0.63576 0.56784 0.3273 0.0
C109 C 0.66909 0.4914 0.29581 0.0
C110 C 0.63457 0.59077 0.34792 0.0
O111 O 0.72568 0.54712 0.37246 0.0
Mg112 Mg 0.07322 0.40489 0.94454 0.0
O113 O 0.06618 0.43816 0.98821 0.0
O114 O 0.01458 0.4373 0.99755 0.0
Mg115 Mg 0.98806 0.40741 0.96155 0.0
C116 C 0.04231 0.44643 0.00442 0.0
C117 C 0.14425 0.40888 0.92755 0.0
O118 O 0.12985 0.41605 0.90084 0.0
O119 O 0.06445 0.35889 0.97516 0.0
O120 O 0.01273 0.36403 0.98102 0.0
O121 O 0.06182 0.44783 0.91188 0.0
O122 O 0.02719 0.41353 0.9296 0.0
C123 C 0.03815 0.34866 0.98568 0.0
C124 C 0.03282 0.4391 0.91386 0.0
O125 O 0.12756 0.40338 0.95187 0.0
Mg126 Mg 0.11076 0.6301 0.4797 0.0
O127 O 0.08488 0.58681 0.45567 0.0
O128 O 0.03821 0.58429 0.47959 0.0
Mg129 Mg 0.0333 0.62381 0.51633 0.0
C130 C 0.05785 0.57404 0.45936 0.0
C131 C 0.17103 0.60633 0.44696 0.0
O132 O 0.16311 0.58068 0.46325 0.0
O133 O 0.08046 0.66624 0.45043 0.0
O134 O 0.03514 0.65891 0.47556 0.0
O135 O 0.12688 0.59532 0.51752 0.0
O136 O 0.08409 0.625 0.52007 0.0
C137 C 0.05123 0.67219 0.45393 0.0
C138 C 0.10097 0.60219 0.53156 0.0
O139 O 0.15167 0.62962 0.44497 0.0
Mg140 Mg 0.89377 0.80914 0.4746 0.0
O141 O 0.90897 0.86373 0.47409 0.0
O142 O 0.96119 0.8654 0.48206 0.0
Mg143 Mg 0.9783 0.81763 0.46365 0.0
C144 C 0.93437 0.879 0.48067 0.0
C145 C 0.82705 0.84674 0.46496 0.0
O146 O 0.8423 0.87077 0.45201 0.0
O147 O 0.89869 0.80192 0.42048 0.0
O148 O 0.94166 0.82809 0.42605 0.0
O149 O 0.90365 0.80877 0.52628 0.0
O150 O 0.93925 0.79602 0.4906 0.0
C151 C 0.92758 0.80427 0.41378 0.0
C152 C 0.93233 0.80146 0.51977 0.0
O153 O 0.84171 0.82142 0.47329 0.0
Mg154 Mg 0.41958 0.65386 0.44009 0.0
O155 O 0.43676 0.60904 0.46933 0.0
O156 O 0.48869 0.61259 0.47987 0.0
Mg157 Mg 0.51068 0.65819 0.45892 0.0
C158 C 0.46223 0.59817 0.48179 0.0
C159 C 0.3575 0.61191 0.44023 0.0
O160 O 0.37768 0.58837 0.43616 0.0
O161 O 0.41907 0.686 0.48588 0.0
O162 O 0.46345 0.67761 0.46449 0.0
O163 O 0.4369 0.63077 0.39532 0.0
O164 O 0.46794 0.6599 0.42622 0.0
C165 C 0.44852 0.68986 0.48718 0.0
C166 C 0.4645 0.64228 0.40133 0.0
O167 O 0.36753 0.64061 0.44371 0.0
Mg168 Mg 0.5866 0.61769 0.87069 0.0
O169 O 0.53884 0.59731 0.88499 0.0
O170 O 0.52804 0.61445 0.93393 0.0
Mg171 Mg 0.56904 0.6457 0.9512 0.0
C172 C 0.52091 0.59836 0.90906 0.0
C173 C 0.60432 0.59664 0.80447 0.0
O174 O 0.63048 0.60757 0.81708 0.0
O175 O 0.56474 0.66768 0.86206 0.0
O176 O 0.5599 0.68354 0.91249 0.0
O177 O 0.61021 0.57489 0.89147 0.0
O178 O 0.59934 0.61869 0.91905 0.0
C179 C 0.55829 0.68913 0.88278 0.0
C180 C 0.60909 0.58925 0.91859 0.0
O181 O 0.5791 0.59998 0.81989 0.0
Mg182 Mg 0.45615 0.92696 0.88246 0.0
O183 O 0.49295 0.96067 0.90504 0.0
O184 O 0.50367 0.94364 0.95423 0.0
Mg185 Mg 0.47439 0.89882 0.9629 0.0
C186 C 0.50735 0.96353 0.93157 0.0
C187 C 0.46758 0.93551 0.80815 0.0
O188 O 0.46481 0.90395 0.80765 0.0
O189 O 0.49191 0.88605 0.87437 0.0
O190 O 0.50041 0.8714 0.92457 0.0
O191 O 0.42005 0.95944 0.9022 0.0
O192 O 0.43947 0.91792 0.9286 0.0
C193 C 0.50535 0.8682 0.89503 0.0
C194 C 0.42294 0.94408 0.9287 0.0
O195 O 0.46575 0.95032 0.83442 0.0
Mg196 Mg 0.58832 0.41913 0.61054 0.0
O197 O 0.5447 0.44502 0.59145 0.0
O198 O 0.53222 0.42498 0.54392 0.0
Mg199 Mg 0.5679 0.38527 0.53245 0.0
C200 C 0.52762 0.44495 0.56647 0.0
C201 C 0.60066 0.46358 0.66727 0.0
O202 O 0.62589 0.46629 0.64995 0.0
O203 O 0.56131 0.37243 0.62308 0.0
O204 O 0.55507 0.35297 0.57402 0.0
O205 O 0.61718 0.45605 0.58572 0.0
O206 O 0.60199 0.41063 0.56309 0.0
C207 C 0.55288 0.35002 0.60397 0.0
C208 C 0.61502 0.43853 0.56049 0.0
O209 O 0.57988 0.44319 0.65889 0.0
Mg210 Mg 0.46863 0.10619 0.60799 0.0
O211 O 0.50999 0.07283 0.59683 0.0
O212 O 0.52849 0.08183 0.54849 0.0
Mg213 Mg 0.49972 0.12401 0.52884 0.0
C214 C 0.52877 0.06612 0.57444 0.0
C215 C 0.47053 0.05692 0.66126 0.0
O216 O 0.46791 0.04015 0.63496 0.0
O217 O 0.50087 0.14967 0.61722 0.0
O218 O 0.51737 0.15852 0.56786 0.0
O219 O 0.43633 0.07085 0.58559 0.0
O220 O 0.45989 0.10925 0.55856 0.0
C221 C 0.51671 0.16586 0.59725 0.0
C222 C 0.44292 0.08351 0.55854 0.0
O223 O 0.47127 0.08764 0.65942 0.0
Mg224 Mg 0.88298 0.56674 0.59657 0.0
O225 O 0.87974 0.51329 0.58906 0.0
O226 O 0.90991 0.48552 0.62227 0.0
Mg227 Mg 0.93286 0.52392 0.65446 0.0
C228 C 0.89063 0.48667 0.59907 0.0
C229 C 0.84818 0.57907 0.53267 0.0
O230 O 0.87655 0.58928 0.52642 0.0
O231 O 0.85196 0.56564 0.64092 0.0
O232 O 0.88699 0.54319 0.67401 0.0
O233 O 0.926 0.567 0.56642 0.0
O234 O 0.92735 0.56205 0.61845 0.0
C235 C 0.86059 0.55665 0.66865 0.0
C236 C 0.94211 0.56329 0.59223 0.0
O237 O 0.84201 0.5702 0.56081 0.0
Mg238 Mg 0.13272 0.86295 0.63728 0.0
O239 O 0.11276 0.90278 0.60588 0.0
O240 O 0.06313 0.91383 0.61753 0.0
Mg241 Mg 0.05146 0.8794 0.65793 0.0
C242 C 0.0877 0.91883 0.60133 0.0
C243 C 0.18751 0.90703 0.61591 0.0
O244 O 0.1715 0.92912 0.63107 0.0
O245 O 0.13657 0.89778 0.67812 0.0
O246 O 0.08651 0.90727 0.68979 0.0
O247 O 0.11742 0.82721 0.60248 0.0
O248 O 0.08741 0.84416 0.64171 0.0
C249 C 0.11577 0.9119 0.6945 0.0
C250 C 0.0902 0.82794 0.61564 0.0
O251 O 0.17956 0.87756 0.61772 0.0
Mg252 Mg 0.81888 0.55883 0.88555 0.0
O253 O 0.84559 0.58632 0.92501 0.0
O254 O 0.89627 0.59332 0.91336 0.0
Mg255 Mg 0.89624 0.5863 0.85967 0.0
C256 C 0.87356 0.5943 0.93288 0.0
C257 C 0.75918 0.55411 0.93422 0.0
O258 O 0.73553 0.56877 0.94776 0.0
O259 O 0.80611 0.60204 0.85411 0.0
O260 O 0.85331 0.6176 0.86251 0.0
O261 O 0.84213 0.51464 0.90427 0.0
O262 O 0.86358 0.54436 0.86679 0.0
C263 C 0.83039 0.61543 0.8434 0.0
C264 C 0.86586 0.52059 0.88631 0.0
O265 O 0.7743 0.56902 0.91306 0.0
Mg266 Mg 0.14841 0.03407 0.89768 0.0
O267 O 0.1356 0.99101 0.93009 0.0
O268 O 0.09513 0.96339 0.90947 0.0
Mg269 Mg 0.10094 0.97428 0.85753 0.0
C270 C 0.11369 0.9701 0.93245 0.0
C271 C 0.17811 0.05183 0.96306 0.0
O272 O 0.14841 0.04976 0.97058 0.0
O273 O 0.1842 0.00774 0.86611 0.0
O274 O 0.15168 0.96877 0.87224 0.0
O275 O 0.10425 0.05563 0.91466 0.0
O276 O 0.10628 0.02644 0.87055 0.0
C277 C 0.17393 0.98069 0.85667 0.0
C278 C 0.08992 0.04179 0.89115 0.0
O279 O 0.18592 0.04771 0.93432 0.0
Mg280 Mg 0.58694 0.81392 0.55267 0.0
O281 O 0.58047 0.86579 0.57319 0.0
O282 O 0.53127 0.86909 0.59162 0.0
Mg283 Mg 0.50631 0.82101 0.5865 0.0
C284 C 0.55809 0.88148 0.58623 0.0
C285 C 0.65157 0.83871 0.5287 0.0
O286 O 0.63269 0.85746 0.51228 0.0
O287 O 0.58951 0.79123 0.60192 0.0
O288 O 0.54444 0.8028 0.62055 0.0
O289 O 0.56842 0.83049 0.50632 0.0
O290 O 0.53807 0.81297 0.54476 0.0
C291 C 0.56199 0.78164 0.60829 0.0
C292 C 0.54053 0.82495 0.51675 0.0
O293 O 0.63996 0.81931 0.54876 0.0
Mg294 Mg 0.58442 0.19818 0.01934 0.0
O295 O 0.56345 0.15198 0.99745 0.0
O296 O 0.5129 0.15013 0.01122 0.0
Mg297 Mg 0.50112 0.19352 0.04209 0.0
C298 C 0.53654 0.13856 0.99682 0.0
C299 C 0.65491 0.18978 0.01034 0.0
O300 O 0.65125 0.19506 0.04076 0.0
O301 O 0.55867 0.22827 0.97958 0.0
O302 O 0.51042 0.22305 -0.00111 0.0
O303 O 0.59219 0.17023 0.06523 0.0
O304 O 0.55028 0.19898 0.05404 0.0
C305 C 0.52908 0.2341 0.97827 0.0
C306 C 0.56432 0.17943 0.07275 0.0
O307 O 0.63069 0.19026 0.99241 0.0
Mg308 Mg 0.39862 0.37067 0.92365 0.0
O309 O 0.41157 0.42296 0.90742 0.0
O310 O 0.46109 0.42146 0.88955 0.0
Mg311 Mg 0.48027 0.37085 0.88956 0.0
C312 C 0.43588 0.43661 0.89588 0.0
C313 C 0.32915 0.37576 0.9506 0.0
O314 O 0.34336 0.3618 0.97467 0.0
O315 O 0.39461 0.35185 0.87255 0.0
O316 O 0.44026 0.36152 0.85429 0.0
O317 O 0.42129 0.37978 0.97157 0.0
O318 O 0.4475 0.36234 0.93043 0.0
C319 C 0.42119 0.34069 0.86448 0.0
C320 C 0.44778 0.37095 0.95962 0.0
O321 O 0.34529 0.38303 0.92635 0.0
Mg322 Mg 0.90533 0.13244 0.96988 0.0
O323 O 0.91945 0.0979 0.01067 0.0
O324 O 0.97055 0.0876 0.0044 0.0
Mg325 Mg 0.98894 0.11258 0.96044 0.0
C326 C 0.94498 0.08428 0.01941 0.0
C327 C 0.83452 0.14758 0.97407 0.0
O328 O 0.839 0.14373 0.94356 0.0
O329 O 0.93174 0.17514 0.99396 0.0
O330 O 0.98119 0.16063 0.98424 0.0
O331 O 0.89659 0.08782 0.93975 0.0
O332 O 0.94109 0.11477 0.94224 0.0
C333 C 0.96135 0.18047 0.99541 0.0
C334 C 0.92577 0.09028 0.93215 0.0
O335 O 0.85786 0.14433 0.99287 0.0
H336 H 0.12956 0.92666 0.55401 0.0
H337 H 0.04526 0.96761 0.59296 0.0
H338 H 0.04479 0.00882 0.55167 0.0
H339 H 0.06685 0.03137 0.50316 0.0
H340 H 0.14778 0.98718 0.46118 0.0
H341 H 0.15175 0.9495 0.50568 0.0
C342 C 0.11118 0.94472 0.55364 0.0
C343 C 0.08746 0.94401 0.57654 0.0
C344 C 0.11073 0.96793 0.52953 0.0
C345 C 0.06369 0.96746 0.57552 0.0
C346 C 0.06348 0.99113 0.55201 0.0
C347 C 0.08567 0.01397 0.50406 0.0
C348 C 0.10725 0.01229 0.47926 0.0
C349 C 0.08674 0.99143 0.52878 0.0
C350 C 0.13112 0.98903 0.48029 0.0
C351 C 0.13323 0.96739 0.50555 0.0
H352 H 0.90962 0.36841 0.50965 0.0
H353 H 0.85599 0.43042 0.44758 0.0
H354 H 0.84337 0.46529 0.49212 0.0
H355 H 0.85514 0.48312 0.54572 0.0
H356 H 0.91479 0.42546 0.60637 0.0
H357 H 0.91717 0.38371 0.56547 0.0
C358 C 0.89523 0.38948 0.50576 0.0
C359 C 0.88483 0.39739 0.475 0.0
C360 C 0.88927 0.41033 0.53126 0.0
C361 C 0.86495 0.42411 0.47084 0.0
C362 C 0.85772 0.44412 0.49631 0.0
C363 C 0.86825 0.46119 0.5504 0.0
C364 C 0.88537 0.45782 0.57889 0.0
C365 C 0.87095 0.43824 0.52624 0.0
C366 C 0.90167 0.42891 0.58457 0.0
C367 C 0.90324 0.40512 0.56106 0.0
H368 H 0.09442 0.93073 0.07446 0.0
H369 H 0.03282 0.86105 0.03039 0.0
H370 H 0.04814 0.87996 0.97817 0.0
H371 H 0.07639 0.91874 0.94523 0.0
H372 H 0.1393 0.98715 0.98956 0.0
H373 H 0.1263 0.96593 0.04151 0.0
C374 C 0.08444 0.91951 0.05345 0.0
C375 C 0.06189 0.89506 0.05636 0.0
C376 C 0.09355 0.9303 0.02355 0.0
C377 C 0.0497 0.88036 0.02891 0.0
C378 C 0.05852 0.89112 -0.00101 0.0
C379 C 0.08743 0.92888 0.96622 0.0
C380 C 0.10838 0.95484 0.9635 0.0
C381 C 0.07996 0.91651 0.99607 0.0
C382 C 0.12286 0.96735 0.99093 0.0
C383 C 0.11542 0.95527 0.0207 0.0
H384 H 0.92425 0.62364 0.071 0.0
H385 H 0.84686 0.56147 0.09407 0.0
H386 H 0.83133 0.55914 0.03834 0.0
H387 H 0.8413 0.5722 0.98303 0.0
H388 H 0.92143 0.63006 0.95869 0.0
H389 H 0.93434 0.63682 0.015 0.0
C390 C 0.90384 0.60989 0.06385 0.0
C391 C 0.88665 0.59284 0.08662 0.0
C392 C 0.89563 0.60781 0.03156 0.0
C393 C 0.8605 0.5747 0.07694 0.0
C394 C 0.85159 0.57339 0.0451 0.0
C395 C 0.86135 0.58672 0.99 0.0
C396 C 0.88022 0.60088 0.96673 0.0
C397 C 0.86919 0.58952 0.0222 0.0
C398 C 0.90649 0.61901 0.97618 0.0
C399 C 0.91389 0.62282 0.00835 0.0
H400 H 0.46692 0.08617 0.13049 0.0
H401 H 0.41613 0.17595 0.13463 0.0
H402 H 0.46406 0.20586 0.1237 0.0
H403 H 0.51763 0.20584 0.1051 0.0
H404 H 0.5669 0.11615 0.09227 0.0
H405 H 0.52316 0.08675 0.11608 0.0
C406 C 0.46667 0.1123 0.1297 0.0
C407 C 0.43824 0.12903 0.13331 0.0
C408 C 0.49411 0.12922 0.12203 0.0
C409 C 0.43782 0.16277 0.13168 0.0
C410 C 0.46518 0.17981 0.12556 0.0
C411 C 0.51915 0.17991 0.1084 0.0
C412 C 0.54516 0.16309 0.09674 0.0
C413 C 0.49313 0.16321 0.11965 0.0
C414 C 0.54714 0.12962 0.10126 0.0
C415 C 0.52187 0.1128 0.11433 0.0
H416 H 0.56135 0.37541 0.05655 0.0
H417 H 0.60948 0.3364 0.97565 0.0
H418 H 0.56054 0.33607 0.94542 0.0
H419 H 0.50472 0.34907 0.94109 0.0
H420 H 0.4569 0.39066 0.02094 0.0
H421 H 0.50532 0.38838 0.05227 0.0
C422 C 0.56131 0.36702 0.03231 0.0
C423 C 0.58935 0.35643 0.01838 0.0
C424 C 0.53318 0.36773 0.01471 0.0
C425 C 0.58841 0.34497 0.987 0.0
C426 C 0.56042 0.34485 0.96961 0.0
C427 C 0.50486 0.35792 0.96525 0.0
C428 C 0.47724 0.37043 0.97849 0.0
C429 C 0.53279 0.35668 0.98305 0.0
C430 C 0.47785 0.38119 0.01006 0.0
C431 C 0.50553 0.3798 0.02802 0.0
H432 H 0.4798 0.81261 0.53057 0.0
H433 H 0.539 0.85384 0.4589 0.0
H434 H 0.49312 0.86642 0.42641 0.0
H435 H 0.43632 0.86742 0.41931 0.0
H436 H 0.37689 0.82895 0.49213 0.0
H437 H 0.42287 0.81295 0.52297 0.0
C438 C 0.48266 0.82453 0.50794 0.0
C439 C 0.51269 0.83265 0.49735 0.0
C440 C 0.45619 0.83195 0.48948 0.0
C441 C 0.51607 0.84757 0.46772 0.0
C442 C 0.48987 0.8547 0.44907 0.0
C443 C 0.43331 0.85553 0.44179 0.0
C444 C 0.40318 0.8498 0.45347 0.0
C445 C 0.45981 0.84723 0.45983 0.0
C446 C 0.39987 0.83393 0.48267 0.0
C447 C 0.42613 0.82484 0.50039 0.0
H448 H 0.5221 0.66899 0.40432 0.0
H449 H 0.46942 0.59416 0.35683 0.0
H450 H 0.51752 0.5743 0.33236 0.0
H451 H 0.57478 0.57523 0.32901 0.0
H452 H 0.62762 0.64528 0.38302 0.0
H453 H 0.57901 0.67014 0.40058 0.0
C454 C 0.5211 0.64804 0.38899 0.0
C455 C 0.49237 0.63244 0.38321 0.0
C456 C 0.54887 0.6359 0.37634 0.0
C457 C 0.4913 0.60637 0.36196 0.0
C458 C 0.51881 0.59493 0.3481 0.0
C459 C 0.57588 0.59571 0.3447 0.0
C460 C 0.60498 0.60778 0.35522 0.0
C461 C 0.54783 0.60896 0.35588 0.0
C462 C 0.6056 0.63516 0.37489 0.0
C463 C 0.57781 0.64939 0.38497 0.0
H464 H 0.01893 0.44056 0.06282 0.0
H465 H 0.07055 0.50517 0.00306 0.0
H466 H 0.05908 0.55018 0.03886 0.0
H467 H 0.02562 0.5722 0.08102 0.0
H468 H 0.97365 0.50695 0.1403 0.0
H469 H 0.9945 0.461 0.11124 0.0
C470 C 0.02861 0.4643 0.05838 0.0
C471 C 0.0453 0.46982 0.03043 0.0
C472 C 0.02135 0.48998 0.07864 0.0
C473 C 0.05784 0.50049 0.02465 0.0
C474 C 0.0509 0.52624 0.04488 0.0
C475 C 0.01943 0.54788 0.08802 0.0
C476 C 0.99753 0.54304 0.11227 0.0
C477 C 0.03131 0.5215 0.07101 0.0
C478 C 0.99022 0.5114 0.12154 0.0
C479 C 1.002 0.48507 0.10482 0.0
H480 H 0.97803 0.45944 0.40941 0.0
H481 H 0.03974 0.40872 0.47361 0.0
H482 H 0.07293 0.45646 0.47847 0.0
H483 H 0.08022 0.51449 0.47034 0.0
H484 H 0.01399 0.56731 0.41316 0.0
H485 H 0.98756 0.51695 0.39838 0.0
C486 C 0.9991 0.45872 0.42393 0.0
C487 C 0.00637 0.43073 0.44128 0.0
C488 C 0.01737 0.48671 0.42765 0.0
C489 C 0.03353 0.43014 0.46029 0.0
C490 C 0.05255 0.45739 0.46302 0.0
C491 C 0.06055 0.51476 0.45397 0.0
C492 C 0.04919 0.5443 0.44252 0.0
C493 C 0.04416 0.48609 0.44762 0.0
C494 C 0.0234 0.54462 0.4217 0.0
C495 C 0.00805 0.51592 0.41367 0.0
H496 H 0.92825 0.91972 0.43194 0.0
H497 H 0.94479 0.9159 0.53253 0.0
H498 H 0.96551 0.97092 0.53189 0.0
H499 H 0.98931 0.01428 0.50099 0.0
H500 H 0.97873 0.01467 0.39927 0.0
H501 H 0.94494 0.96732 0.40192 0.0
C502 C 0.93501 0.93167 0.45384 0.0
C503 C 0.93465 0.91429 0.4823 0.0
C504 C 0.94872 0.96243 0.45287 0.0
C505 C 0.9444 0.92929 0.5105 0.0
C506 C 0.95663 0.96052 0.51003 0.0
C507 C 0.97874 0.00468 0.4795 0.0
C508 C 0.98678 0.01775 0.44996 0.0
C509 C 0.9605 0.97656 0.48109 0.0
C510 C 0.97312 0.00484 0.42229 0.0
C511 C 0.95388 0.97769 0.42378 0.0
H512 H 0.48181 0.58531 0.54119 0.0
H513 H 0.4438 0.54051 0.45722 0.0
H514 H 0.45645 0.487 0.47856 0.0
H515 H 0.48628 0.45429 0.51728 0.0
H516 H 0.52288 0.49987 0.60193 0.0
H517 H 0.50191 0.5515 0.58464 0.0
C518 C 0.47551 0.56371 0.52806 0.0
C519 C 0.46221 0.56659 0.49768 0.0
C520 C 0.4828 0.53321 0.5405 0.0
C521 C 0.45397 0.53867 0.48075 0.0
C522 C 0.46142 0.50815 0.49285 0.0
C523 C 0.48895 0.47531 0.53238 0.0
C524 C 0.50688 0.47317 0.56051 0.0
C525 C 0.47701 0.50523 0.52217 0.0
C526 C 0.50958 0.50066 0.57998 0.0
C527 C 0.49777 0.53039 0.57002 0.0
H528 H 0.59964 0.50234 0.03964 0.0
H529 H 0.68017 0.45815 0.99604 0.0
H530 H 0.68048 0.49982 0.95562 0.0
H531 H 0.65418 0.54512 0.92897 0.0
H532 H 0.5749 0.59057 0.97292 0.0
H533 H 0.5779 0.55237 0.01686 0.0
C534 C 0.61746 0.50202 0.02152 0.0
C535 C 0.63939 0.4767 0.02061 0.0
C536 C 0.6176 0.5262 -0.0018 0.0
C537 C 0.6627 0.47705 0.99723 0.0
C538 C 0.66289 0.50086 0.97395 0.0
C539 C 0.63796 0.54696 0.94852 0.0
C540 C 0.61431 0.57046 0.94774 0.0
C541 C 0.63989 0.52496 0.97366 0.0
C542 C 0.59351 0.57289 0.97317 0.0
C543 C 0.59505 0.55083 -0.00184 0.0
H544 H 0.3836 0.03658 0.04025 0.0
H545 H 0.44189 0.97026 0.09295 0.0
H546 H 0.44789 0.9367 0.04582 0.0
H547 H 0.43794 0.92729 0.98966 0.0
H548 H 0.38495 0.99657 0.93514 0.0
H549 H 0.37431 0.02722 0.98329 0.0
C550 C 0.39752 0.01472 0.04139 0.0
C551 C 0.41237 0.00595 0.06999 0.0
C552 C 0.40153 0.99595 0.014 0.0
C553 C 0.4305 0.97768 0.07112 0.0
C554 C 0.43379 0.9584 0.04424 0.0
C555 C 0.42434 0.94911 0.98802 0.0
C556 C 0.41289 0.95978 0.95854 0.0
C557 C 0.41967 0.96747 0.0155 0.0
C558 C 0.39433 0.98782 0.95744 0.0
C559 C 0.38836 0.0055 0.98495 0.0
H560 H 0.58777 0.42677 0.5032 0.0
H561 H 0.66104 0.48197 0.54839 0.0
H562 H 0.67375 0.5069 0.49758 0.0
H563 H 0.66255 0.51424 0.44073 0.0
H564 H 0.58719 0.46048 0.39683 0.0
H565 H 0.57695 0.43333 0.44685 0.0
C566 C 0.60693 0.44361 0.50196 0.0
C567 C 0.62376 0.45202 0.52945 0.0
C568 C 0.61358 0.45826 0.47291 0.0
C569 C 0.64783 0.47498 0.52746 0.0
C570 C 0.65508 0.48924 0.49845 0.0
C571 C 0.64407 0.49637 0.44205 0.0
C572 C 0.62567 0.48938 0.41507 0.0
C573 C 0.6379 0.48124 0.47106 0.0
C574 C 0.60159 0.46643 0.41726 0.0
C575 C 0.59574 0.45085 0.44584 0.0
H576 H 0.38855 0.05356 0.54598 0.0
H577 H 0.47892 0.07341 0.50609 0.0
H578 H 0.46763 0.03678 0.46196 0.0
H579 H 0.43373 0.99503 0.43763 0.0
H580 H 0.34232 0.97762 0.47707 0.0
H581 H 0.35225 0.01743 0.51811 0.0
C582 C 0.40552 0.05024 0.52728 0.0
C583 C 0.4345 0.06605 0.52924 0.0
C584 C 0.39879 0.02929 0.50203 0.0
C585 C 0.4563 0.06179 0.50491 0.0
C586 C 0.44994 0.0406 0.47981 0.0
C587 C 0.41584 0.00021 0.45496 0.0
C588 C 0.3876 0.98264 0.45454 0.0
C589 C 0.42152 0.0236 0.47853 0.0
C590 C 0.36451 0.99017 0.47696 0.0
C591 C 0.37012 0.01305 0.50055 0.0
H592 H 0.07797 0.61389 0.58933 0.0
H593 H 0.08677 0.54021 0.51839 0.0
H594 H 0.03565 0.51816 0.53252 0.0
H595 H 0.98355 0.52971 0.55602 0.0
H596 H 0.97693 0.60143 0.62969 0.0
H597 H 0.03227 0.61443 0.62399 0.0
C598 C 0.06953 0.59177 0.57842 0.0
C599 C 0.08524 0.57916 0.55222 0.0
C600 C 0.04003 0.57977 0.58644 0.0
C601 C 0.07453 0.55042 0.53832 0.0
C602 C 0.04505 0.53825 0.54602 0.0
C603 C 0.99458 0.54755 0.57127 0.0
C604 C 0.97635 0.56534 0.59254 0.0
C605 C 0.02666 0.55434 0.56843 0.0
C606 C 0.99069 0.58785 0.61284 0.0
C607 C 0.02227 0.59526 0.60964 0.0
H608 H 0.99198 0.78086 0.5147 0.0
H609 H 0.92847 0.8273 0.57929 0.0
H610 H 0.97149 0.83645 0.61684 0.0
H611 H 0.02795 0.83546 0.62891 0.0
H612 H 0.09116 0.79085 0.5627 0.0
H613 H 0.04731 0.77622 0.52852 0.0
C614 C 0.98749 0.79282 0.53708 0.0
C615 C 0.95725 0.80381 0.54403 0.0
C616 C 0.01229 0.79836 0.55826 0.0
C617 C 0.95165 0.81875 0.57333 0.0
C618 C 0.97624 0.82407 0.59477 0.0
C619 C 0.03214 0.82241 0.60716 0.0
C620 C 0.06289 0.81497 0.5981 0.0
C621 C 0.0068 0.81464 0.58714 0.0
C622 C 0.06777 0.79735 0.57007 0.0
C623 C 0.04271 0.78899 0.55042 0.0
H624 H 0.97336 0.4192 0.90673 0.0
H625 H 0.03164 0.50316 0.89508 0.0
H626 H 0.98484 0.53574 0.88308 0.0
H627 H 0.92678 0.54068 0.8803 0.0
H628 H 0.86987 0.45702 0.89893 0.0
H629 H 0.91685 0.424 0.90488 0.0
C630 C 0.976 0.44473 0.90195 0.0
C631 C 0.00597 0.45885 0.90249 0.0
C632 C 0.94913 0.46335 0.89671 0.0
C633 C 0.00887 0.49169 0.89494 0.0
C634 C 0.98208 0.51033 0.88833 0.0
C635 C 0.92471 0.51521 0.88539 0.0
C636 C 0.89485 0.50124 0.88907 0.0
C637 C 0.952 0.49651 0.88982 0.0
C638 C 0.89255 0.46829 0.89615 0.0
C639 C 0.91939 0.44941 0.89944 0.0
H640 H 0.04754 0.01819 0.93223 0.0
H641 H 0.05631 0.06872 0.84374 0.0
H642 H 1.00025 0.08115 0.84379 0.0
H643 H 0.95237 0.08732 0.87511 0.0
H644 H 0.94317 0.03619 0.96308 0.0
H645 H 0.99527 0.01283 0.95662 0.0
C646 C 0.03685 0.03121 0.91266 0.0
C647 C 0.05572 0.04326 0.88837 0.0
C648 C 0.00459 0.03785 0.9127 0.0
C649 C 0.04198 0.05961 0.86277 0.0
C650 C 0.01002 0.06668 0.86282 0.0
C651 C 0.96106 0.06947 0.89179 0.0
C652 C 0.94423 0.06352 0.91955 0.0
C653 C 0.99143 0.05714 0.88838 0.0
C654 C 0.95568 0.04078 0.94135 0.0
C655 C 0.9858 0.02804 0.93801 0.0
H656 H 0.5306 0.02358 0.62336 0.0
H657 H 0.56755 0.03951 0.52986 0.0
H658 H 0.58587 0.98375 0.52794 0.0
H659 H 0.58234 0.92812 0.54866 0.0
H660 H 0.5402 0.91206 0.63961 0.0
H661 H 0.53323 0.97005 0.64684 0.0
C662 C 0.5432 0.01517 0.60276 0.0
C663 C 0.547 0.03564 0.57651 0.0
C664 C 0.55245 0.98274 0.60123 0.0
C665 C 0.56391 0.02427 0.5503 0.0
C666 C 0.57425 0.99225 0.54908 0.0
C667 C 0.57263 0.93752 0.57045 0.0
C668 C 0.56173 0.91604 0.59356 0.0
C669 C 0.56734 0.97088 0.57378 0.0
C670 C 0.54868 0.92829 0.62152 0.0
C671 C 0.54455 0.9614 0.62558 0.0
H672 H 0.5697 0.08266 -0.00125 0.0
H673 H 0.49208 0.12973 0.9521 0.0
H674 H 0.48009 0.08038 0.92267 0.0
H675 H 0.48779 0.02259 0.91498 0.0
H676 H 0.56041 0.97302 0.96704 0.0
H677 H 0.57883 0.02445 0.98913 0.0
C678 C 0.55053 0.08204 0.98174 0.0
C679 C 0.53173 0.10951 0.97743 0.0
C680 C 0.54296 0.05314 0.96592 0.0
C681 C 0.50666 0.10864 0.95576 0.0
C682 C 0.49986 0.08051 0.93894 0.0
C683 C 0.50826 0.02321 0.93038 0.0
C684 C 0.52306 0.99427 0.93906 0.0
C685 C 0.51736 0.05243 0.9444 0.0
C686 C 0.54892 0.99516 0.95982 0.0
C687 C 0.55924 0.02448 0.97263 0.0
H688 H 0.49387 0.56625 0.85972 0.0
H689 H 0.48683 0.58034 0.9607 0.0
H690 H 0.45191 0.53404 0.9644 0.0
H691 H 0.43328 0.48302 0.94065 0.0
H692 H 0.44378 0.46739 0.8405 0.0
H693 H 0.46653 0.52105 0.83454 0.0
C694 C 0.4841 0.5597 0.88244 0.0
C695 C 0.49365 0.57626 0.90996 0.0
C696 C 0.46464 0.53255 0.88454 0.0
C697 C 0.48025 0.56781 0.93912 0.0
C698 C 0.46034 0.54118 0.94132 0.0
C699 C 0.43917 0.49213 0.91738 0.0
C700 C 0.43683 0.47161 0.891 0.0
C701 C 0.4537 0.5224 0.91445 0.0
C702 C 0.44518 0.4831 0.86101 0.0
C703 C 0.45856 0.51357 0.85769 0.0
H704 H 0.90655 0.03304 0.02448 0.0
H705 H 0.98471 0.0806 0.06962 0.0
H706 H 0.99393 0.03337 0.10308 0.0
H707 H 0.98598 0.97562 0.11191 0.0
H708 H 0.91226 0.92576 0.06147 0.0
H709 H 0.89461 0.97666 0.03818 0.0
C710 C 0.9248 0.03337 0.04252 0.0
C711 C 0.94478 0.06018 0.04494 0.0
C712 C 0.93105 0.00542 0.06033 0.0
C713 C 0.96896 0.0602 0.06766 0.0
C714 C 0.97435 0.03313 0.08657 0.0
C715 C 0.96541 0.97605 0.09665 0.0
C716 C 0.95052 0.94696 0.08832 0.0
C717 C 0.95646 0.0051 0.08207 0.0
C718 C 0.92418 0.94785 0.06813 0.0
C719 C 0.91419 0.97692 0.05467 0.0
H720 H 0.06742 0.18618 0.4402 0.0
H721 H 0.00424 0.14542 0.3709 0.0
H722 H 0.98115 0.19894 0.36147 0.0
H723 H 0.97416 0.25571 0.37937 0.0
H724 H 0.03759 0.29462 0.44971 0.0
H725 H 0.06601 0.24372 0.45171 0.0
C726 C 0.04889 0.18915 0.42268 0.0
C727 C 0.03703 0.16207 0.4067 0.0
C728 C 0.03587 0.21968 0.41759 0.0
C729 C 0.01352 0.16609 0.38359 0.0
C730 C 1.0003 0.19661 0.37832 0.0
C731 C 0.99484 0.25325 0.39427 0.0
C732 C 0.00368 0.27864 0.4146 0.0
C733 C 0.0106 0.22342 0.396 0.0
C734 C 0.03031 0.27522 0.43406 0.0
C735 C 0.04643 0.2461 0.43537 0.0
H736 H 0.92424 0.68116 0.15985 0.0
H737 H 1.00066 0.68475 0.22692 0.0
H738 H 1.00327 0.74361 0.22147 0.0
H739 H 0.99028 0.7917 0.19006 0.0
H740 H 0.91769 0.78641 0.11857 0.0
H741 H 0.9063 0.73085 0.13383 0.0
C742 C 0.94086 0.69508 0.17382 0.0
C743 C 0.96231 0.67906 0.19365 0.0
C744 C 0.94292 0.72854 0.16958 0.0
C745 C 0.98393 0.6969 0.21162 0.0
C746 C 0.98548 0.73043 0.20835 0.0
C747 C 0.97117 0.77879 0.17866 0.0
C748 C 0.95494 0.793 0.1531 0.0
C749 C 0.96599 0.74629 0.18637 0.0
C750 C 0.93053 0.77588 0.13824 0.0
C751 C 0.92422 0.74404 0.14677 0.0
H752 H 0.32341 0.02115 0.23091 0.0
H753 H 0.38581 0.95257 0.18774 0.0
H754 H 0.37957 0.91602 0.23245 0.0
H755 H 0.3653 0.90904 0.28772 0.0
H756 H 0.30554 0.97836 0.33335 0.0
H757 H 0.30134 0.00912 0.2838 0.0
C758 C 0.33453 -0.00239 0.23086 0.0
C759 C 0.35507 0.98938 0.20632 0.0
C760 C 0.3319 0.97734 0.2574 0.0
C761 C 0.36988 0.95918 0.2065 0.0
C762 C 0.36654 0.93847 0.23215 0.0
C763 C 0.35078 0.93051 0.28655 0.0
C764 C 0.33623 0.9419 0.31403 0.0
C765 C 0.34905 0.94814 0.25839 0.0
C766 C 0.31704 0.96934 0.31236 0.0
C767 C 0.31483 0.98697 0.28413 0.0
H768 H 0.64824 0.39255 0.18962 0.0
H769 H 0.70842 0.45799 0.13978 0.0
H770 H 0.72187 0.48534 0.18971 0.0
H771 H 0.70822 0.49635 0.24573 0.0
H772 H 0.64731 0.43061 0.29445 0.0
H773 H 0.64344 0.39676 0.24729 0.0
C774 C 0.66491 0.4123 0.18993 0.0
C775 C 0.67702 0.42368 0.1613 0.0
C776 C 0.67248 0.4277 0.21859 0.0
C777 C 0.69881 0.449 0.16171 0.0
C778 C 0.70638 0.46466 0.19021 0.0
C779 C 0.69542 0.47378 0.24637 0.0
C780 C 0.67808 0.46587 0.27341 0.0
C781 C 0.69235 0.45502 0.21864 0.0
C782 C 0.66099 0.43695 0.27389 0.0
C783 C 0.6584 0.41785 0.24679 0.0
H784 H 0.29068 0.40043 0.90406 0.0
H785 H 0.28953 0.36449 -0.00014 0.0
H786 H 0.23298 0.37228 0.0019 0.0
H787 H 0.18301 0.38804 0.97605 0.0
H788 H 0.18451 0.42345 0.88003 0.0
H789 H 0.24114 0.41723 0.87873 0.0
C790 C 0.27813 0.39441 0.92544 0.0
C791 C 0.29463 0.3818 0.9517 0.0
C792 C 0.24534 0.39881 0.92649 0.0
C793 C 0.27769 0.37417 0.97917 0.0
C794 C 0.24519 0.37861 0.98041 0.0
C795 C 0.19573 0.39456 0.95491 0.0
C796 C 0.17919 0.40616 0.92819 0.0
C797 C 0.22865 0.39074 0.95415 0.0
C798 C 0.19632 0.41438 0.901 0.0
C799 C 0.22888 0.41083 0.90017 0.0
H800 H 0.21818 0.5622 0.44943 0.0
H801 H 0.19913 0.66168 0.42607 0.0
H802 H 0.25517 0.67211 0.42167 0.0
H803 H 0.30979 0.65402 0.4285 0.0
H804 H 0.32868 0.55434 0.45088 0.0
H805 H 0.27256 0.54308 0.45188 0.0
C806 C 0.22621 0.58607 0.44291 0.0
C807 C 0.20436 0.61115 0.43837 0.0
C808 C 0.25852 0.59202 0.44077 0.0
C809 C 0.21531 0.64187 0.42972 0.0
C810 C 0.24743 0.64795 0.42744 0.0
C811 C 0.30161 0.62983 0.4336 0.0
C812 C 0.32341 0.60515 0.44005 0.0
C813 C 0.26926 0.62341 0.4337 0.0
C814 C 0.31243 0.57381 0.44602 0.0
C815 C 0.28032 0.56734 0.44656 0.0
H816 H 0.68397 0.87751 0.48839 0.0
H817 H 0.69537 0.79714 0.55245 0.0
H818 H 0.75019 0.79234 0.53769 0.0
H819 H 0.79449 0.80994 0.50604 0.0
H820 H 0.78441 0.89113 0.44292 0.0
H821 H 0.72933 0.89647 0.45778 0.0
C822 C 0.69848 0.85905 0.49926 0.0
C823 C 0.68545 0.83766 0.52146 0.0
C824 C 0.73012 0.85639 0.49066 0.0
C825 C 0.70469 0.81397 0.53536 0.0
C826 C 0.73606 0.8111 0.52684 0.0
C827 C 0.78027 0.82875 0.49533 0.0
C828 C 0.7935 0.84992 0.47313 0.0
C829 C 0.74891 0.83196 0.50434 0.0
C830 C 0.77478 0.87443 0.45995 0.0
C831 C 0.74331 0.87751 0.46848 0.0
H832 H 0.49214 0.82083 0.85199 0.0
H833 H 0.56196 0.85333 0.91912 0.0
H834 H 0.58735 0.80068 0.9177 0.0
H835 H 0.58404 0.74335 0.90505 0.0
H836 H 0.51402 0.70885 0.83933 0.0
H837 H 0.49434 0.76419 0.83222 0.0
C838 C 0.51361 0.81663 0.86526 0.0
C839 C 0.52525 0.8408 0.88566 0.0
C840 C 0.5275 0.78574 0.86518 0.0
C841 C 0.55273 0.83503 0.90324 0.0
C842 C 0.56705 0.80486 0.90266 0.0
C843 C 0.56488 0.74812 0.88866 0.0
C844 C 0.55014 0.72227 0.87307 0.0
C845 C 0.55375 0.77968 0.88497 0.0
C846 C 0.52562 0.72853 0.8516 0.0
C847 C 0.51432 0.76011 0.8477 0.0
H848 H 0.58635 0.29737 0.59272 0.0
H849 H 0.50299 0.32956 0.63973 0.0
H850 H 0.4866 0.27313 0.64716 0.0
H851 H 0.49249 0.21524 0.63216 0.0
H852 H 0.57477 0.18523 0.58159 0.0
H853 H 0.59559 0.23996 0.58426 0.0
C854 C 0.56497 0.29192 0.60534 0.0
C855 C 0.54582 0.31732 0.61565 0.0
C856 C 0.55553 0.25976 0.60867 0.0
C857 C 0.51815 0.31026 0.63185 0.0
C858 C 0.50873 0.27803 0.63581 0.0
C859 C 0.51544 0.22059 0.62276 0.0
C860 C 0.5322 0.19629 0.60676 0.0
C861 C 0.52671 0.2526 0.62325 0.0
C862 C 0.56159 0.20355 0.59405 0.0
C863 C 0.57337 0.23487 0.59539 0.0
H864 H 0.79488 0.58426 0.79819 0.0
H865 H 0.88005 0.63903 0.81145 0.0
H866 H 0.89425 0.62892 0.75655 0.0
H867 H 0.88548 0.6 0.70704 0.0
H868 H 0.80253 0.54253 0.69337 0.0
H869 H 0.78396 0.55861 0.74621 0.0
C870 C 0.81637 0.5943 0.78899 0.0
C871 C 0.83668 0.61201 0.80911 0.0
C872 C 0.82472 0.58785 0.75745 0.0
C873 C 0.86428 0.625 0.79666 0.0
C874 C 0.87239 0.61926 0.76527 0.0
C875 C 0.863 0.59152 0.71547 0.0
C876 C 0.84527 0.57022 0.69668 0.0
C877 C 0.85322 0.60007 0.74582 0.0
C878 C 0.81631 0.55919 0.70752 0.0
C879 C 0.80594 0.56817 0.73775 0.0
H880 H 0.17096 0.91014 0.7268 0.0
H881 H 0.08304 0.96128 0.72099 0.0
H882 H 0.09721 0.99268 0.76794 0.0
H883 H 0.13132 0.00044 0.81417 0.0
H884 H 0.21569 0.94441 0.8241 0.0
H885 H 0.20706 0.92094 0.77132 0.0
C886 C 0.15514 0.92852 0.73554 0.0
C887 C 0.12584 0.93316 0.72072 0.0
C888 C 0.16298 0.94568 0.76315 0.0
C889 C 0.10552 0.95697 0.7323 0.0
C890 C 0.11365 0.97499 0.75904 0.0
C891 C 0.14807 0.98356 0.80438 0.0
C892 C 0.17402 0.97397 0.82263 0.0
C893 C 0.14183 0.96882 0.77517 0.0
C894 C 0.19574 0.95224 0.81006 0.0
C895 C 0.19056 0.93859 0.78016 0.0
H896 H 0.78066 0.15469 0.93952 0.0
H897 H 0.81676 0.15918 0.03526 0.0
H898 H 0.76467 0.17303 0.0545 0.0
H899 H 0.70897 0.18364 0.04431 0.0
H900 H 0.67246 0.17872 0.94878 0.0
H901 H 0.72471 0.16535 0.92931 0.0
C902 C 0.77721 0.15869 0.96462 0.0
C903 C 0.80276 0.15585 0.9859 0.0
C904 C 0.74711 0.16662 0.97556 0.0
C905 C 0.79766 0.16114 0.01832 0.0
C906 C 0.76783 0.1691 0.02936 0.0
C907 C 0.71234 0.17974 0.01918 0.0
C908 C 0.68667 0.18227 -0.00196 0.0
C909 C 0.7424 0.1719 0.0082 0.0
C910 C 0.69168 0.17699 0.9656 0.0
C911 C 0.72159 0.16931 0.95446 0.0
H912 H 0.02957 0.95401 0.21801 0.0
H913 H 0.01932 0.86675 0.2727 0.0
H914 H 0.02739 0.8973 0.32155 0.0
H915 H 0.0395 0.948 0.34839 0.0
H916 H 0.05133 0.03522 0.29405 0.0
H917 H 0.04029 0.00531 0.24519 0.0
C918 C 0.02888 0.94167 0.24061 0.0
C919 C 0.02396 0.90809 0.24169 0.0
C920 C 0.03393 0.9593 0.26857 0.0
C921 C 0.02318 0.89252 0.27118 0.0
C922 C 0.02781 0.90997 0.29912 0.0
C923 C 0.03957 0.9606 0.32591 0.0
C924 C 0.0464 0.99379 0.32485 0.0
C925 C 0.03356 0.94325 0.29804 0.0
C926 C 0.04624 0.00967 0.2955 0.0
C927 C 0.03996 0.99258 0.26758 0.0
H928 H 0.94759 0.43151 0.32513 0.0
H929 H 0.88477 0.36811 0.27424 0.0
H930 H 0.88077 0.40735 0.23111 0.0
H931 H 0.89281 0.46097 0.20942 0.0
H932 H 0.95273 0.52561 0.26249 0.0
H933 H 0.96003 0.48461 0.30332 0.0
C934 C 0.93341 0.42602 0.30437 0.0
C935 C 0.91666 0.39682 0.30276 0.0
C936 C 0.93038 0.44911 0.28027 0.0
C937 C 0.89794 0.39037 0.27597 0.0
C938 C 0.89556 0.41284 0.25139 0.0
C939 C 0.90758 0.46604 0.22985 0.0
C940 C 0.92213 0.49636 0.23292 0.0
C941 C 0.91126 0.44252 0.25354 0.0
C942 C 0.94108 0.50257 0.25962 0.0
C943 C 0.94536 0.4791 0.28295 0.0
H944 H 0.16945 0.05496 0.02683 0.0
H945 H 0.24109 0.05985 0.95552 0.0
H946 H 0.2811 0.0661 0.99668 0.0
H947 H 0.29591 0.06916 0.0527 0.0
H948 H 0.22465 0.06382 0.12434 0.0
H949 H 0.18432 0.05878 0.08315 0.0
C950 C 0.19379 0.05757 0.02024 0.0
C951 C 0.20221 0.05695 0.98806 0.0
C952 C 0.21676 0.06097 0.04407 0.0
C953 C 0.23391 0.06023 0.98004 0.0
C954 C 0.25683 0.06378 0.00359 0.0
C955 C 0.27156 0.06696 0.05941 0.0
C956 C 0.26338 0.06683 0.09166 0.0
C957 C 0.24854 0.064 0.03565 0.0
C958 C 0.23167 0.06396 0.09977 0.0
C959 C 0.20857 0.06108 0.0762 0.0
H960 H 0.74184 0.40795 0.95604 0.0
H961 H 0.75233 0.43923 0.05316 0.0
H962 H 0.76987 0.49196 0.03548 0.0
H963 H 0.77102 0.53218 0.99284 0.0
H964 H 0.76127 0.50163 0.89578 0.0
H965 H 0.75513 0.44551 0.9129 0.0
C966 C 0.74891 0.42596 0.97334 0.0
C967 C 0.74492 0.41987 0.00585 0.0
C968 C 0.75865 0.45654 0.963 0.0
C969 C 0.75474 0.44328 0.02797 0.0
C970 C 0.76457 0.47363 0.01789 0.0
C971 C 0.76871 0.51297 0.97548 0.0
C972 C 0.76628 0.52071 0.94324 0.0
C973 C 0.76493 0.48101 0.98554 0.0
C974 C 0.76334 0.49596 0.92075 0.0
C975 C 0.7595 0.46399 0.93057 0.0
H976 H 0.28966 0.95075 0.51958 0.0
H977 H 0.23035 0.89615 0.45596 0.0
H978 H 0.19228 0.88861 0.49826 0.0
H979 H 0.18005 0.89094 0.555 0.0
H980 H 0.23864 0.94617 0.61852 0.0
H981 H 0.27347 0.95977 0.57453 0.0
C982 C 0.26807 0.93776 0.51483 0.0
C983 C 0.26296 0.92351 0.48498 0.0
C984 C 0.2468 0.93294 0.53936 0.0
C985 C 0.23475 0.90727 0.4788 0.0
C986 C 0.21322 0.90261 0.50307 0.0
C987 C 0.20046 0.90602 0.55906 0.0
C988 C 0.20765 0.91681 0.5898 0.0
C989 C 0.21975 0.91413 0.5337 0.0
C990 C 0.23331 0.93719 0.59497 0.0
C991 C 0.253 0.945 0.56989 0.0
H992 H 0.85186 0.60274 0.47288 0.0
H993 H 0.79291 0.54541 0.53317 0.0
H994 H 0.75697 0.53564 0.48872 0.0
H995 H 0.74207 0.54375 0.43262 0.0
H996 H 0.79986 0.60343 0.37345 0.0
H997 H 0.83672 0.61147 0.41739 0.0
C998 C 0.83111 0.58818 0.47639 0.0
C999 C 0.82511 0.57491 0.50641 0.0
C1000 C 0.8105 0.58278 0.45078 0.0
C1001 C 0.79801 0.55617 0.51044 0.0
C1002 C 0.77754 0.55038 0.48495 0.0
C1003 C 0.76298 0.55813 0.42926 0.0
C1004 C 0.76844 0.57268 0.39968 0.0
C1005 C 0.78359 0.56348 0.45497 0.0
C1006 C 0.79524 0.59184 0.3959 0.0
C1007 C 0.81625 0.59656 0.42106 0.0
H1008 H 0.98894 0.32643 0.0188 0.0
H1009 H 0.07864 0.29698 0.9823 0.0
H1010 H 0.06377 0.24036 0.98878 0.0
H1011 H 0.02172 0.20079 0.99361 0.0
H1012 H 0.92931 0.2313 0.02191 0.0
H1013 H 0.94884 0.28623 0.02972 0.0
C1014 C 0.00558 0.30766 0.01278 0.0
C1015 C 0.03459 0.31592 -0.00079 0.0
C1016 C 0.99601 0.27544 0.01437 0.0
C1017 C 0.05613 0.29135 0.9925 0.0
C1018 C 0.04742 0.25898 0.99582 0.0
C1019 C 0.00579 0.21923 0.002 0.0
C1020 C 0.97378 0.212 0.00648 0.0
C1021 C 0.0168 0.25092 0.00492 0.0
C1022 C 0.95384 0.23622 0.01783 0.0
C1023 C 0.96502 0.26763 0.02224 0.0
H1024 H 0.99066 0.67034 0.43664 0.0
H1025 H 0.07393 0.72827 0.42802 0.0
H1026 H 0.04211 0.77366 0.4088 0.0
H1027 H 0.99005 0.79904 0.40378 0.0
H1028 H 0.90702 0.74147 0.41735 0.0
H1029 H 0.93935 0.69352 0.42466 0.0
C1030 C 1.00195 0.69272 0.42992 0.0
C1031 C 0.03451 0.69623 0.43424 0.0
C1032 C 0.98345 0.71883 0.42019 0.0
C1033 C 0.04893 0.72504 0.42491 0.0
C1034 C 0.03067 0.75104 0.41427 0.0
C1035 C 0.979 0.77589 0.40791 0.0
C1036 C 0.94616 0.77411 0.41107 0.0
C1037 C 0.99781 0.7486 0.41327 0.0
C1038 C 0.93218 0.74378 0.41543 0.0
C1039 C 0.95069 0.71633 0.41975 0.0
H1040 H 0.50132 0.76159 0.60865 0.0
H1041 H 0.58756 0.75012 0.55719 0.0
H1042 H 0.55967 0.7205 0.51575 0.0
H1043 H 0.51051 0.7028 0.49196 0.0
H1044 H 0.4241 0.71211 0.54318 0.0
H1045 H 0.45233 0.73909 0.58657 0.0
C1046 C 0.51407 0.75254 0.5884 0.0
C1047 C 0.54631 0.75935 0.58546 0.0
C1048 C 0.49782 0.73575 0.56447 0.0
C1049 C 0.56265 0.74617 0.55973 0.0
C1050 C 0.54668 0.72931 0.53593 0.0
C1051 C 0.4978 0.70972 0.51289 0.0
C1052 C 0.46523 0.70482 0.51444 0.0
C1053 C 0.5142 0.7247 0.53772 0.0
C1054 C 0.44917 0.71537 0.54141 0.0
C1055 C 0.46533 0.73074 0.56622 0.0
H1056 H 0.56234 0.55098 0.78417 0.0
H1057 H 0.64986 0.59642 0.76021 0.0
H1058 H 0.65628 0.55919 0.71602 0.0
H1059 H 0.63853 0.51259 0.68562 0.0
H1060 H 0.55159 0.46579 0.70907 0.0
H1061 H 0.54364 0.50448 0.75222 0.0
C1062 C 0.58255 0.55302 0.76895 0.0
C1063 C 0.60557 0.57655 0.77545 0.0
C1064 C 0.58646 0.53099 0.74382 0.0
C1065 C 0.63182 0.57858 0.75576 0.0
C1066 C 0.63559 0.5572 0.73055 0.0
C1067 C 0.61781 0.51068 0.70015 0.0
C1068 C 0.59581 0.48611 0.69419 0.0
C1069 C 0.61335 0.53303 0.72468 0.0
C1070 C 0.56903 0.48431 0.71322 0.0
C1071 C 0.56441 0.50653 0.73783 0.0
H1072 H 0.46843 0.00098 0.80057 0.0
H1073 H 0.47418 0.91152 0.74834 0.0
H1074 H 0.47687 0.94143 0.69876 0.0
H1075 H 0.47548 0.9925 0.6701 0.0
H1076 H 0.46901 0.08232 0.72148 0.0
H1077 H 0.46887 0.05264 0.77163 0.0
C1078 C 0.47043 0.98799 0.77836 0.0
C1079 C 0.47093 0.95395 0.77825 0.0
C1080 C 0.4717 0.00538 0.74981 0.0
C1081 C 0.47359 0.93762 0.74921 0.0
C1082 C 0.47511 0.95472 0.7208 0.0
C1083 C 0.47406 0.00572 0.69222 0.0
C1084 C 0.47198 0.03964 0.69198 0.0
C1085 C 0.47381 0.98854 0.72081 0.0
C1086 C 0.47053 0.05625 0.72096 0.0
C1087 C 0.4704 0.03927 0.74963 0.0
H1088 H 0.48082 0.31706 0.86166 0.0
H1089 H 0.39361 0.30466 0.91121 0.0
H1090 H 0.41985 0.26984 0.94961 0.0
H1091 H 0.46758 0.24793 0.97192 0.0
H1092 H 0.55631 0.26261 0.92577 0.0
H1093 H 0.52937 0.2931 0.88369 0.0
C1094 C 0.46752 0.3068 0.88093 0.0
C1095 C 0.43549 0.31479 0.88433 0.0
C1096 C 0.4831 0.28802 0.90383 0.0
C1097 C 0.41835 0.29984 0.90844 0.0
C1098 C 0.43342 0.28011 0.93057 0.0
C1099 C 0.48139 0.2576 0.95274 0.0
C1100 C 0.51418 0.25296 0.95221 0.0
C1101 C 0.46588 0.27502 0.92904 0.0
C1102 C 0.53119 0.26582 0.92691 0.0
C1103 C 0.51573 0.28311 0.90281 0.0
loop_
_geom_bond_atom_site_label_1
_geom_bond_atom_site_label_2
_geom_bond_distance
_geom_bond_site_symmetry_2
_ccdc_geom_bond_type
Mg0 O1 2.028 1_455 S
Mg0 O7 1.986 1_455 S
Mg0 O9 2.114 . S
Mg0 O10 2.251 . S
Mg0 O13 2.010 . S
O1 Mg0 2.028 1_655 S
O1 C4 1.250 . S
O2 Mg3 2.028 . S
O2 C4 1.248 . S
Mg3 O2 2.028 . S
Mg3 O8 2.032 . S
Mg3 O10 2.079 1_655 S
C4 O1 1.250 . S
C4 O2 1.248 . S
C5 O6 1.264 . S
C5 O13 1.249 . S
O6 C5 1.264 . S
O7 Mg0 1.986 1_655 S
O7 C11 1.246 . S
O8 Mg3 2.032 . S
O8 C11 1.259 . S
O9 Mg0 2.114 . S
O9 C12 1.252 . S
O10 Mg0 2.251 . S
O10 Mg3 2.079 1_455 S
O10 C12 1.273 . S
C11 O7 1.246 . S
C11 O8 1.259 . S
C12 O9 1.252 . S
C12 O10 1.273 . S
O13 Mg0 2.010 . S
O13 C5 1.249 . S
Mg14 O15 2.028 1_655 S
Mg14 O21 1.986 1_655 S
Mg14 O23 2.114 . S
Mg14 O24 2.251 . S
Mg14 O27 2.010 . S
O15 Mg14 2.028 1_455 S
O15 C18 1.250 . S
O16 Mg17 2.028 . S
O16 C18 1.248 . S
Mg17 O16 2.028 . S
Mg17 O22 2.032 . S
Mg17 O24 2.079 1_455 S
C18 O15 1.250 . S
C18 O16 1.248 . S
C19 O20 1.264 . S
C19 O27 1.249 . S
O20 C19 1.264 . S
O21 Mg14 1.986 1_455 S
O21 C25 1.246 . S
O22 Mg17 2.032 . S
O22 C25 1.259 . S
O23 Mg14 2.114 . S
O23 C26 1.252 . S
O24 Mg14 2.251 . S
O24 Mg17 2.079 1_655 S
O24 C26 1.273 . S
C25 O21 1.246 . S
C25 O22 1.259 . S
C26 O23 1.252 . S
C26 O24 1.273 . S
O27 Mg14 2.010 . S
O27 C19 1.249 . S
Mg28 O29 2.028 1_455 S
Mg28 O35 1.986 1_455 S
Mg28 O37 2.114 . S
Mg28 O38 2.251 . S
Mg28 O41 2.010 . S
O29 Mg28 2.028 1_655 S
O29 C32 1.250 . S
O30 Mg31 2.028 . S
O30 C32 1.248 . S
Mg31 O30 2.028 . S
Mg31 O36 2.032 . S
Mg31 O38 2.079 1_655 S
C32 O29 1.250 . S
C32 O30 1.248 . S
C33 O34 1.264 . S
C33 O41 1.249 . S
O34 C33 1.264 . S
O35 Mg28 1.986 1_655 S
O35 C39 1.246 . S
O36 Mg31 2.032 . S
O36 C39 1.259 . S
O37 Mg28 2.114 . S
O37 C40 1.252 . S
O38 Mg28 2.251 . S
O38 Mg31 2.079 1_455 S
O38 C40 1.273 . S
C39 O35 1.246 . S
C39 O36 1.259 . S
C40 O37 1.252 . S
C40 O38 1.273 . S
O41 Mg28 2.010 . S
O41 C33 1.249 . S
Mg42 O43 2.028 1_655 S
Mg42 O49 1.986 1_655 S
Mg42 O51 2.114 . S
Mg42 O52 2.251 . S
Mg42 O55 2.010 . S
O43 Mg42 2.028 1_455 S
O43 C46 1.250 . S
O44 Mg45 2.028 . S
O44 C46 1.248 . S
Mg45 O44 2.028 . S
Mg45 O50 2.032 . S
Mg45 O52 2.079 1_455 S
C46 O43 1.250 . S
C46 O44 1.248 . S
C47 O48 1.264 . S
C47 O55 1.249 . S
O48 C47 1.264 . S
O49 Mg42 1.986 1_455 S
O49 C53 1.246 . S
O50 Mg45 2.032 . S
O50 C53 1.259 . S
O51 Mg42 2.114 . S
O51 C54 1.252 . S
O52 Mg42 2.251 . S
O52 Mg45 2.079 1_655 S
O52 C54 1.273 . S
C53 O49 1.246 . S
C53 O50 1.259 . S
C54 O51 1.252 . S
C54 O52 1.273 . S
O55 Mg42 2.010 . S
O55 C47 1.249 . S
Mg56 O57 2.028 1_545 S
Mg56 O63 1.986 1_545 S
Mg56 O65 2.114 . S
Mg56 O66 2.251 . S
Mg56 O69 2.010 . S
O57 Mg56 2.028 1_565 S
O57 C60 1.250 . S
O58 Mg59 2.028 . S
O58 C60 1.248 . S
Mg59 O58 2.028 . S
Mg59 O64 2.032 . S
Mg59 O66 2.079 1_565 S
C60 O57 1.250 . S
C60 O58 1.248 . S
C61 O62 1.264 . S
C61 O69 1.249 . S
O62 C61 1.264 . S
O63 Mg56 1.986 1_565 S
O63 C67 1.246 . S
O64 Mg59 2.032 . S
O64 C67 1.259 . S
O65 Mg56 2.114 . S
O65 C68 1.252 . S
O66 Mg56 2.251 . S
O66 Mg59 2.079 1_545 S
O66 C68 1.273 . S
C67 O63 1.246 . S
C67 O64 1.259 . S
C68 O65 1.252 . S
C68 O66 1.273 . S
O69 Mg56 2.010 . S
O69 C61 1.249 . S
Mg70 O71 2.028 . S
Mg70 O77 1.986 . S
Mg70 O79 2.114 . S
Mg70 O80 2.251 . S
Mg70 O83 2.010 . S
O71 Mg70 2.028 . S
O71 C74 1.250 . S
O72 Mg73 2.028 . S
O72 C74 1.248 . S
Mg73 O72 2.028 . S
Mg73 O78 2.032 . S
Mg73 O80 2.079 . S
C74 O71 1.250 . S
C74 O72 1.248 . S
C75 O76 1.264 . S
C75 O83 1.249 . S
O76 C75 1.264 . S
O77 Mg70 1.986 . S
O77 C81 1.246 . S
O78 Mg73 2.032 . S
O78 C81 1.259 . S
O79 Mg70 2.114 . S
O79 C82 1.252 . S
O80 Mg70 2.251 . S
O80 Mg73 2.079 . S
O80 C82 1.273 . S
C81 O77 1.246 . S
C81 O78 1.259 . S
C82 O79 1.252 . S
C82 O80 1.273 . S
O83 Mg70 2.010 . S
O83 C75 1.249 . S
Mg84 O85 2.028 1_565 S
Mg84 O91 1.986 1_565 S
Mg84 O93 2.114 . S
Mg84 O94 2.251 . S
Mg84 O97 2.010 . S
O85 Mg84 2.028 1_545 S
O85 C88 1.250 . S
O86 Mg87 2.028 . S
O86 C88 1.248 . S
Mg87 O86 2.028 . S
Mg87 O92 2.032 . S
Mg87 O94 2.079 1_545 S
C88 O85 1.250 . S
C88 O86 1.248 . S
C89 O90 1.264 . S
C89 O97 1.249 . S
O90 C89 1.264 . S
O91 Mg84 1.986 1_545 S
O91 C95 1.246 . S
O92 Mg87 2.032 . S
O92 C95 1.259 . S
O93 Mg84 2.114 . S
O93 C96 1.252 . S
O94 Mg84 2.251 . S
O94 Mg87 2.079 1_565 S
O94 C96 1.273 . S
C95 O91 1.246 . S
C95 O92 1.259 . S
C96 O93 1.252 . S
C96 O94 1.273 . S
O97 Mg84 2.010 . S
O97 C89 1.249 . S
Mg98 O99 2.028 . S
Mg98 O105 1.986 . S
Mg98 O107 2.114 . S
Mg98 O108 2.251 . S
Mg98 O111 2.010 . S
O99 Mg98 2.028 . S
O99 C102 1.250 . S
O100 Mg101 2.028 . S
O100 C102 1.248 . S
Mg101 O100 2.028 . S
Mg101 O106 2.032 . S
Mg101 O108 2.079 . S
C102 O99 1.250 . S
C102 O100 1.248 . S
C103 O104 1.264 . S
C103 O111 1.249 . S
O104 C103 1.264 . S
O105 Mg98 1.986 . S
O105 C109 1.246 . S
O106 Mg101 2.032 . S
O106 C109 1.259 . S
O107 Mg98 2.114 . S
O107 C110 1.252 . S
O108 Mg98 2.251 . S
O108 Mg101 2.079 . S
O108 C110 1.273 . S
C109 O105 1.246 . S
C109 O106 1.259 . S
C110 O107 1.252 . S
C110 O108 1.273 . S
O111 Mg98 2.010 . S
O111 C103 1.249 . S
Mg112 O113 2.028 1_556 S
Mg112 O119 1.986 1_556 S
Mg112 O121 2.114 . S
Mg112 O122 2.251 . S
Mg112 O125 2.010 . S
O113 Mg112 2.028 1_554 S
O113 C116 1.250 . S
O114 Mg115 2.028 . S
O114 C116 1.248 . S
Mg115 O114 2.028 . S
Mg115 O120 2.032 . S
Mg115 O122 2.079 1_554 S
C116 O113 1.250 . S
C116 O114 1.248 . S
C117 O118 1.264 . S
C117 O125 1.249 . S
O118 C117 1.264 . S
O119 Mg112 1.986 1_554 S
O119 C123 1.246 . S
O120 Mg115 2.032 . S
O120 C123 1.259 . S
O121 Mg112 2.114 . S
O121 C124 1.252 . S
O122 Mg112 2.251 . S
O122 Mg115 2.079 1_556 S
O122 C124 1.273 . S
C123 O119 1.246 . S
C123 O120 1.259 . S
C124 O121 1.252 . S
C124 O122 1.273 . S
O125 Mg112 2.010 . S
O125 C117 1.249 . S
Mg126 O127 2.028 . S
Mg126 O133 1.986 . S
Mg126 O135 2.114 . S
Mg126 O136 2.251 . S
Mg126 O139 2.010 . S
O127 Mg126 2.028 . S
O127 C130 1.250 . S
O128 Mg129 2.028 . S
O128 C130 1.248 . S
Mg129 O128 2.028 . S
Mg129 O134 2.032 . S
Mg129 O136 2.079 . S
C130 O127 1.250 . S
C130 O128 1.248 . S
C131 O132 1.264 . S
C131 O139 1.249 . S
O132 C131 1.264 . S
O133 Mg126 1.986 . S
O133 C137 1.246 . S
O134 Mg129 2.032 . S
O134 C137 1.259 . S
O135 Mg126 2.114 . S
O135 C138 1.252 . S
O136 Mg126 2.251 . S
O136 Mg129 2.079 . S
O136 C138 1.273 . S
C137 O133 1.246 . S
C137 O134 1.259 . S
C138 O135 1.252 . S
C138 O136 1.273 . S
O139 Mg126 2.010 . S
O139 C131 1.249 . S
Mg140 O141 2.028 . S
Mg140 O147 1.986 . S
Mg140 O149 2.114 . S
Mg140 O150 2.251 . S
Mg140 O153 2.010 . S
O141 Mg140 2.028 . S
O141 C144 1.250 . S
O142 Mg143 2.028 . S
O142 C144 1.248 . S
Mg143 O142 2.028 . S
Mg143 O148 2.032 . S
Mg143 O150 2.079 . S
C144 O141 1.250 . S
C144 O142 1.248 . S
C145 O146 1.264 . S
C145 O153 1.249 . S
O146 C145 1.264 . S
O147 Mg140 1.986 . S
O147 C151 1.246 . S
O148 Mg143 2.032 . S
O148 C151 1.259 . S
O149 Mg140 2.114 . S
O149 C152 1.252 . S
O150 Mg140 2.251 . S
O150 Mg143 2.079 . S
O150 C152 1.273 . S
C151 O147 1.246 . S
C151 O148 1.259 . S
C152 O149 1.252 . S
C152 O150 1.273 . S
O153 Mg140 2.010 . S
O153 C145 1.249 . S
Mg154 O155 2.028 . S
Mg154 O161 1.986 . S
Mg154 O163 2.114 . S
Mg154 O164 2.251 . S
Mg154 O167 2.010 . S
O155 Mg154 2.028 . S
O155 C158 1.250 . S
O156 Mg157 2.028 . S
O156 C158 1.248 . S
Mg157 O156 2.028 . S
Mg157 O162 2.032 . S
Mg157 O164 2.079 . S
C158 O155 1.250 . S
C158 O156 1.248 . S
C159 O160 1.264 . S
C159 O167 1.249 . S
O160 C159 1.264 . S
O161 Mg154 1.986 . S
O161 C165 1.246 . S
O162 Mg157 2.032 . S
O162 C165 1.259 . S
O163 Mg154 2.114 . S
O163 C166 1.252 . S
O164 Mg154 2.251 . S
O164 Mg157 2.079 . S
O164 C166 1.273 . S
C165 O161 1.246 . S
C165 O162 1.259 . S
C166 O163 1.252 . S
C166 O164 1.273 . S
O167 Mg154 2.010 . S
O167 C159 1.249 . S
Mg168 O169 2.028 . S
Mg168 O175 1.986 . S
Mg168 O177 2.114 . S
Mg168 O178 2.251 . S
Mg168 O181 2.010 . S
O169 Mg168 2.028 . S
O169 C172 1.250 . S
O170 Mg171 2.028 . S
O170 C172 1.248 . S
Mg171 O170 2.028 . S
Mg171 O176 2.032 . S
Mg171 O178 2.079 . S
C172 O169 1.250 . S
C172 O170 1.248 . S
C173 O174 1.264 . S
C173 O181 1.249 . S
O174 C173 1.264 . S
O175 Mg168 1.986 . S
O175 C179 1.246 . S
O176 Mg171 2.032 . S
O176 C179 1.259 . S
O177 Mg168 2.114 . S
O177 C180 1.252 . S
O178 Mg168 2.251 . S
O178 Mg171 2.079 . S
O178 C180 1.273 . S
C179 O175 1.246 . S
C179 O176 1.259 . S
C180 O177 1.252 . S
C180 O178 1.273 . S
O181 Mg168 2.010 . S
O181 C173 1.249 . S
Mg182 O183 2.028 . S
Mg182 O189 1.986 . S
Mg182 O191 2.114 . S
Mg182 O192 2.251 . S
Mg182 O195 2.010 . S
O183 Mg182 2.028 . S
O183 C186 1.250 . S
O184 Mg185 2.028 . S
O184 C186 1.248 . S
Mg185 O184 2.028 . S
Mg185 O190 2.032 . S
Mg185 O192 2.079 . S
C186 O183 1.250 . S
C186 O184 1.248 . S
C187 O188 1.264 . S
C187 O195 1.249 . S
O188 C187 1.264 . S
O189 Mg182 1.986 . S
O189 C193 1.246 . S
O190 Mg185 2.032 . S
O190 C193 1.259 . S
O191 Mg182 2.114 . S
O191 C194 1.252 . S
O192 Mg182 2.251 . S
O192 Mg185 2.079 . S
O192 C194 1.273 . S
C193 O189 1.246 . S
C193 O190 1.259 . S
C194 O191 1.252 . S
C194 O192 1.273 . S
O195 Mg182 2.010 . S
O195 C187 1.249 . S
Mg196 O197 2.028 . S
Mg196 O203 1.986 . S
Mg196 O205 2.114 . S
Mg196 O206 2.251 . S
Mg196 O209 2.010 . S
O197 Mg196 2.028 . S
O197 C200 1.250 . S
O198 Mg199 2.028 . S
O198 C200 1.248 . S
Mg199 O198 2.028 . S
Mg199 O204 2.032 . S
Mg199 O206 2.079 . S
C200 O197 1.250 . S
C200 O198 1.248 . S
C201 O202 1.264 . S
C201 O209 1.249 . S
O202 C201 1.264 . S
O203 Mg196 1.986 . S
O203 C207 1.246 . S
O204 Mg199 2.032 . S
O204 C207 1.259 . S
O205 Mg196 2.114 . S
O205 C208 1.252 . S
O206 Mg196 2.251 . S
O206 Mg199 2.079 . S
O206 C208 1.273 . S
C207 O203 1.246 . S
C207 O204 1.259 . S
C208 O205 1.252 . S
C208 O206 1.273 . S
O209 Mg196 2.010 . S
O209 C201 1.249 . S
Mg210 O211 2.028 . S
Mg210 O217 1.986 . S
Mg210 O219 2.114 . S
Mg210 O220 2.251 . S
Mg210 O223 2.010 . S
O211 Mg210 2.028 . S
O211 C214 1.250 . S
O212 Mg213 2.028 . S
O212 C214 1.248 . S
Mg213 O212 2.028 . S
Mg213 O218 2.032 . S
Mg213 O220 2.079 . S
C214 O211 1.250 . S
C214 O212 1.248 . S
C215 O216 1.264 . S
C215 O223 1.249 . S
O216 C215 1.264 . S
O217 Mg210 1.986 . S
O217 C221 1.246 . S
O218 Mg213 2.032 . S
O218 C221 1.259 . S
O219 Mg210 2.114 . S
O219 C222 1.252 . S
O220 Mg210 2.251 . S
O220 Mg213 2.079 . S
O220 C222 1.273 . S
C221 O217 1.246 . S
C221 O218 1.259 . S
C222 O219 1.252 . S
C222 O220 1.273 . S
O223 Mg210 2.010 . S
O223 C215 1.249 . S
Mg224 O225 2.028 . S
Mg224 O231 1.986 . S
Mg224 O233 2.114 . S
Mg224 O234 2.251 . S
Mg224 O237 2.010 . S
O225 Mg224 2.028 . S
O225 C228 1.250 . S
O226 Mg227 2.028 . S
O226 C228 1.248 . S
Mg227 O226 2.028 . S
Mg227 O232 2.032 . S
Mg227 O234 2.079 . S
C228 O225 1.250 . S
C228 O226 1.248 . S
C229 O230 1.264 . S
C229 O237 1.249 . S
O230 C229 1.264 . S
O231 Mg224 1.986 . S
O231 C235 1.246 . S
O232 Mg227 2.032 . S
O232 C235 1.259 . S
O233 Mg224 2.114 . S
O233 C236 1.252 . S
O234 Mg224 2.251 . S
O234 Mg227 2.079 . S
O234 C236 1.273 . S
C235 O231 1.246 . S
C235 O232 1.259 . S
C236 O233 1.252 . S
C236 O234 1.273 . S
O237 Mg224 2.010 . S
O237 C229 1.249 . S
Mg238 O239 2.028 1_565 S
Mg238 O245 1.986 1_565 S
Mg238 O247 2.114 . S
Mg238 O248 2.251 . S
Mg238 O251 2.010 . S
O239 Mg238 2.028 1_545 S
O239 C242 1.250 . S
O240 Mg241 2.028 . S
O240 C242 1.248 . S
Mg241 O240 2.028 . S
Mg241 O246 2.032 . S
Mg241 O248 2.079 1_545 S
C242 O239 1.250 . S
C242 O240 1.248 . S
C243 O244 1.264 . S
C243 O251 1.249 . S
O244 C243 1.264 . S
O245 Mg238 1.986 1_545 S
O245 C249 1.246 . S
O246 Mg241 2.032 . S
O246 C249 1.259 . S
O247 Mg238 2.114 . S
O247 C250 1.252 . S
O248 Mg238 2.251 . S
O248 Mg241 2.079 1_565 S
O248 C250 1.273 . S
C249 O245 1.246 . S
C249 O246 1.259 . S
C250 O247 1.252 . S
C250 O248 1.273 . S
O251 Mg238 2.010 . S
O251 C243 1.249 . S
Mg252 O253 2.028 . S
Mg252 O259 1.986 . S
Mg252 O261 2.114 . S
Mg252 O262 2.251 . S
Mg252 O265 2.010 . S
O253 Mg252 2.028 . S
O253 C256 1.250 . S
O254 Mg255 2.028 . S
O254 C256 1.248 . S
Mg255 O254 2.028 . S
Mg255 O260 2.032 . S
Mg255 O262 2.079 . S
C256 O253 1.250 . S
C256 O254 1.248 . S
C257 O258 1.264 . S
C257 O265 1.249 . S
O258 C257 1.264 . S
O259 Mg252 1.986 . S
O259 C263 1.246 . S
O260 Mg255 2.032 . S
O260 C263 1.259 . S
O261 Mg252 2.114 . S
O261 C264 1.252 . S
O262 Mg252 2.251 . S
O262 Mg255 2.079 . S
O262 C264 1.273 . S
C263 O259 1.246 . S
C263 O260 1.259 . S
C264 O261 1.252 . S
C264 O262 1.273 . S
O265 Mg252 2.010 . S
O265 C257 1.249 . S
Mg266 O267 2.028 1_545 S
Mg266 O273 1.986 1_545 S
Mg266 O275 2.114 . S
Mg266 O276 2.251 . S
Mg266 O279 2.010 . S
O267 Mg266 2.028 1_565 S
O267 C270 1.250 . S
O268 Mg269 2.028 . S
O268 C270 1.248 . S
Mg269 O268 2.028 . S
Mg269 O274 2.032 . S
Mg269 O276 2.079 1_565 S
C270 O267 1.250 . S
C270 O268 1.248 . S
C271 O272 1.264 . S
C271 O279 1.249 . S
O272 C271 1.264 . S
O273 Mg266 1.986 1_565 S
O273 C277 1.246 . S
O274 Mg269 2.032 . S
O274 C277 1.259 . S
O275 Mg266 2.114 . S
O275 C278 1.252 . S
O276 Mg266 2.251 . S
O276 Mg269 2.079 1_545 S
O276 C278 1.273 . S
C277 O273 1.246 . S
C277 O274 1.259 . S
C278 O275 1.252 . S
C278 O276 1.273 . S
O279 Mg266 2.010 . S
O279 C271 1.249 . S
Mg280 O281 2.028 . S
Mg280 O287 1.986 . S
Mg280 O289 2.114 . S
Mg280 O290 2.251 . S
Mg280 O293 2.010 . S
O281 Mg280 2.028 . S
O281 C284 1.250 . S
O282 Mg283 2.028 . S
O282 C284 1.248 . S
Mg283 O282 2.028 . S
Mg283 O288 2.032 . S
Mg283 O290 2.079 . S
C284 O281 1.250 . S
C284 O282 1.248 . S
C285 O286 1.264 . S
C285 O293 1.249 . S
O286 C285 1.264 . S
O287 Mg280 1.986 . S
O287 C291 1.246 . S
O288 Mg283 2.032 . S
O288 C291 1.259 . S
O289 Mg280 2.114 . S
O289 C292 1.252 . S
O290 Mg280 2.251 . S
O290 Mg283 2.079 . S
O290 C292 1.273 . S
C291 O287 1.246 . S
C291 O288 1.259 . S
C292 O289 1.252 . S
C292 O290 1.273 . S
O293 Mg280 2.010 . S
O293 C285 1.249 . S
Mg294 O295 2.028 1_554 S
Mg294 O301 1.986 1_554 S
Mg294 O303 2.114 . S
Mg294 O304 2.251 . S
Mg294 O307 2.010 . S
O295 Mg294 2.028 1_556 S
O295 C298 1.250 . S
O296 Mg297 2.028 . S
O296 C298 1.248 . S
Mg297 O296 2.028 . S
Mg297 O302 2.032 . S
Mg297 O304 2.079 1_556 S
C298 O295 1.250 . S
C298 O296 1.248 . S
C299 O300 1.264 . S
C299 O307 1.249 . S
O300 C299 1.264 . S
O301 Mg294 1.986 1_556 S
O301 C305 1.246 . S
O302 Mg297 2.032 . S
O302 C305 1.259 . S
O303 Mg294 2.114 . S
O303 C306 1.252 . S
O304 Mg294 2.251 . S
O304 Mg297 2.079 1_554 S
O304 C306 1.273 . S
C305 O301 1.246 . S
C305 O302 1.259 . S
C306 O303 1.252 . S
C306 O304 1.273 . S
O307 Mg294 2.010 . S
O307 C299 1.249 . S
Mg308 O309 2.028 1_554 S
Mg308 O315 1.986 1_554 S
Mg308 O317 2.114 . S
Mg308 O318 2.251 . S
Mg308 O321 2.010 . S
O309 Mg308 2.028 1_556 S
O309 C312 1.250 . S
O310 Mg311 2.028 . S
O310 C312 1.248 . S
Mg311 O310 2.028 . S
Mg311 O316 2.032 . S
Mg311 O318 2.079 1_556 S
C312 O309 1.250 . S
C312 O310 1.248 . S
C313 O314 1.264 . S
C313 O321 1.249 . S
O314 C313 1.264 . S
O315 Mg308 1.986 1_556 S
O315 C319 1.246 . S
O316 Mg311 2.032 . S
O316 C319 1.259 . S
O317 Mg308 2.114 . S
O317 C320 1.252 . S
O318 Mg308 2.251 . S
O318 Mg311 2.079 1_554 S
O318 C320 1.273 . S
C319 O315 1.246 . S
C319 O316 1.259 . S
C320 O317 1.252 . S
C320 O318 1.273 . S
O321 Mg308 2.010 . S
O321 C313 1.249 . S
Mg322 O323 2.028 1_556 S
Mg322 O329 1.986 1_556 S
Mg322 O331 2.114 . S
Mg322 O332 2.251 . S
Mg322 O335 2.010 . S
O323 Mg322 2.028 1_554 S
O323 C326 1.250 . S
O324 Mg325 2.028 . S
O324 C326 1.248 . S
Mg325 O324 2.028 . S
Mg325 O330 2.032 . S
Mg325 O332 2.079 1_554 S
C326 O323 1.250 . S
C326 O324 1.248 . S
C327 O328 1.264 . S
C327 O335 1.249 . S
O328 C327 1.264 . S
O329 Mg322 1.986 1_554 S
O329 C333 1.246 . S
O330 Mg325 2.032 . S
O330 C333 1.259 . S
O331 Mg322 2.114 . S
O331 C334 1.252 . S
O332 Mg322 2.251 . S
O332 Mg325 2.079 1_556 S
O332 C334 1.273 . S
C333 O329 1.246 . S
C333 O330 1.259 . S
C334 O331 1.252 . S
C334 O332 1.273 . S
O335 Mg322 2.010 . S
O335 C327 1.249 . S
H336 C342 0.930 . S
H337 C345 0.930 . S
H338 C346 0.930 . S
H339 C347 0.930 . S
H340 C350 0.930 . S
H341 C351 0.930 . S
C342 H336 0.930 . S
C342 C343 1.355 . S
C342 C344 1.415 . S
C343 C342 1.355 . S
C343 C345 1.419 . S
C344 C342 1.415 . S
C344 C349 1.425 . S
C344 C351 1.409 . S
C345 H337 0.930 . S
C345 C343 1.419 . S
C345 C346 1.362 . S
C346 H338 0.930 . S
C346 C345 1.362 . S
C346 C349 1.409 . S
C347 H339 0.930 . S
C347 C348 1.355 . S
C347 C349 1.415 . S
C348 C347 1.355 . S
C348 C350 1.419 . S
C349 C344 1.425 . S
C349 C346 1.409 . S
C349 C347 1.415 . S
C350 H340 0.930 . S
C350 C348 1.419 . S
C350 C351 1.362 . S
C351 H341 0.930 . S
C351 C344 1.409 . S
C351 C350 1.362 . S
H352 C358 0.930 . S
H353 C361 0.930 . S
H354 C362 0.930 . S
H355 C363 0.930 . S
H356 C366 0.930 . S
H357 C367 0.930 . S
C358 H352 0.930 . S
C358 C359 1.355 . S
C358 C360 1.415 . S
C359 C358 1.355 . S
C359 C361 1.419 . S
C360 C358 1.415 . S
C360 C365 1.425 . S
C360 C367 1.409 . S
C361 H353 0.930 . S
C361 C359 1.419 . S
C361 C362 1.362 . S
C362 H354 0.930 . S
C362 C361 1.362 . S
C362 C365 1.409 . S
C363 H355 0.930 . S
C363 C364 1.355 . S
C363 C365 1.415 . S
C364 C363 1.355 . S
C364 C366 1.419 . S
C365 C360 1.425 . S
C365 C362 1.409 . S
C365 C363 1.415 . S
C366 H356 0.930 . S
C366 C364 1.419 . S
C366 C367 1.362 . S
C367 H357 0.930 . S
C367 C360 1.409 . S
C367 C366 1.362 . S
H368 C374 0.930 . S
H369 C377 0.930 . S
H370 C378 0.930 1_556 S
H371 C379 0.930 . S
H372 C382 0.930 . S
H373 C383 0.930 1_554 S
C374 H368 0.930 . S
C374 C375 1.355 . S
C374 C376 1.415 . S
C375 C374 1.355 . S
C375 C377 1.419 . S
C376 C374 1.415 . S
C376 C381 1.425 1_554 S
C376 C383 1.409 1_554 S
C377 H369 0.930 . S
C377 C375 1.419 . S
C377 C378 1.362 . S
C378 H370 0.930 1_554 S
C378 C377 1.362 . S
C378 C381 1.409 1_554 S
C379 H371 0.930 . S
C379 C380 1.355 . S
C379 C381 1.415 . S
C380 C379 1.355 . S
C380 C382 1.419 . S
C381 C376 1.425 1_556 S
C381 C378 1.409 1_556 S
C381 C379 1.415 . S
C382 H372 0.930 . S
C382 C380 1.419 . S
C382 C383 1.362 . S
C383 H373 0.930 1_556 S
C383 C376 1.409 1_556 S
C383 C382 1.362 . S
H384 C390 0.930 . S
H385 C393 0.930 . S
H386 C394 0.930 . S
H387 C395 0.930 . S
H388 C398 0.930 . S
H389 C399 0.930 . S
C390 H384 0.930 . S
C390 C391 1.355 . S
C390 C392 1.415 . S
C391 C390 1.355 . S
C391 C393 1.419 . S
C392 C390 1.415 . S
C392 C397 1.425 1_554 S
C392 C399 1.409 1_554 S
C393 H385 0.930 . S
C393 C391 1.419 . S
C393 C394 1.362 . S
C394 H386 0.930 . S
C394 C393 1.362 . S
C394 C397 1.409 1_554 S
C395 H387 0.930 . S
C395 C396 1.355 . S
C395 C397 1.415 . S
C396 C395 1.355 . S
C396 C398 1.419 . S
C397 C392 1.425 1_556 S
C397 C394 1.409 1_556 S
C397 C395 1.415 . S
C398 H388 0.930 . S
C398 C396 1.419 . S
C398 C399 1.362 . S
C399 H389 0.930 . S
C399 C392 1.409 1_556 S
C399 C398 1.362 . S
H400 C406 0.930 . S
H401 C409 0.930 . S
H402 C410 0.930 . S
H403 C411 0.930 . S
H404 C414 0.930 . S
H405 C415 0.930 . S
C406 H400 0.930 . S
C406 C407 1.355 . S
C406 C408 1.415 . S
C407 C406 1.355 . S
C407 C409 1.419 . S
C408 C406 1.415 . S
C408 C413 1.425 . S
C408 C415 1.409 . S
C409 H401 0.930 . S
C409 C407 1.419 . S
C409 C410 1.362 . S
C410 H402 0.930 . S
C410 C409 1.362 . S
C410 C413 1.409 . S
C411 H403 0.930 . S
C411 C412 1.355 . S
C411 C413 1.415 . S
C412 C411 1.355 . S
C412 C414 1.419 . S
C413 C408 1.425 . S
C413 C410 1.409 . S
C413 C411 1.415 . S
C414 H404 0.930 . S
C414 C412 1.419 . S
C414 C415 1.362 . S
C415 H405 0.930 . S
C415 C408 1.409 . S
C415 C414 1.362 . S
H416 C422 0.930 . S
H417 C425 0.930 . S
H418 C426 0.930 . S
H419 C427 0.930 . S
H420 C430 0.930 . S
H421 C431 0.930 . S
C422 H416 0.930 . S
C422 C423 1.355 . S
C422 C424 1.415 . S
C423 C422 1.355 . S
C423 C425 1.419 . S
C424 C422 1.415 . S
C424 C429 1.425 . S
C424 C431 1.409 . S
C425 H417 0.930 . S
C425 C423 1.419 . S
C425 C426 1.362 . S
C426 H418 0.930 . S
C426 C425 1.362 . S
C426 C429 1.409 . S
C427 H419 0.930 . S
C427 C428 1.355 . S
C427 C429 1.415 . S
C428 C427 1.355 . S
C428 C430 1.419 . S
C429 C424 1.425 . S
C429 C426 1.409 . S
C429 C427 1.415 . S
C430 H420 0.930 . S
C430 C428 1.419 . S
C430 C431 1.362 . S
C431 H421 0.930 . S
C431 C424 1.409 . S
C431 C430 1.362 . S
H432 C438 0.930 . S
H433 C441 0.930 . S
H434 C442 0.930 . S
H435 C443 0.930 . S
H436 C446 0.930 . S
H437 C447 0.930 . S
C438 H432 0.930 . S
C438 C439 1.355 . S
C438 C440 1.415 . S
C439 C438 1.355 . S
C439 C441 1.419 . S
C440 C438 1.415 . S
C440 C445 1.425 . S
C440 C447 1.409 . S
C441 H433 0.930 . S
C441 C439 1.419 . S
C441 C442 1.362 . S
C442 H434 0.930 . S
C442 C441 1.362 . S
C442 C445 1.409 . S
C443 H435 0.930 . S
C443 C444 1.355 . S
C443 C445 1.415 . S
C444 C443 1.355 . S
C444 C446 1.419 . S
C445 C440 1.425 . S
C445 C442 1.409 . S
C445 C443 1.415 . S
C446 H436 0.930 . S
C446 C444 1.419 . S
C446 C447 1.362 . S
C447 H437 0.930 . S
C447 C440 1.409 . S
C447 C446 1.362 . S
H448 C454 0.930 . S
H449 C457 0.930 . S
H450 C458 0.930 . S
H451 C459 0.930 . S
H452 C462 0.930 . S
H453 C463 0.930 . S
C454 H448 0.930 . S
C454 C455 1.355 . S
C454 C456 1.415 . S
C455 C454 1.355 . S
C455 C457 1.419 . S
C456 C454 1.415 . S
C456 C461 1.425 . S
C456 C463 1.409 . S
C457 H449 0.930 . S
C457 C455 1.419 . S
C457 C458 1.362 . S
C458 H450 0.930 . S
C458 C457 1.362 . S
C458 C461 1.409 . S
C459 H451 0.930 . S
C459 C460 1.355 . S
C459 C461 1.415 . S
C460 C459 1.355 . S
C460 C462 1.419 . S
C461 C456 1.425 . S
C461 C458 1.409 . S
C461 C459 1.415 . S
C462 H452 0.930 . S
C462 C460 1.419 . S
C462 C463 1.362 . S
C463 H453 0.930 . S
C463 C456 1.409 . S
C463 C462 1.362 . S
H464 C470 0.930 . S
H465 C473 0.930 . S
H466 C474 0.930 . S
H467 C475 0.930 . S
H468 C478 0.930 . S
H469 C479 0.930 . S
C470 H464 0.930 . S
C470 C471 1.355 . S
C470 C472 1.415 . S
C471 C470 1.355 . S
C471 C473 1.419 . S
C472 C470 1.415 . S
C472 C477 1.425 . S
C472 C479 1.409 . S
C473 H465 0.930 . S
C473 C471 1.419 . S
C473 C474 1.362 . S
C474 H466 0.930 . S
C474 C473 1.362 . S
C474 C477 1.409 . S
C475 H467 0.930 . S
C475 C476 1.355 . S
C475 C477 1.415 . S
C476 C475 1.355 . S
C476 C478 1.419 . S
C477 C472 1.425 . S
C477 C474 1.409 . S
C477 C475 1.415 . S
C478 H468 0.930 . S
C478 C476 1.419 . S
C478 C479 1.362 . S
C479 H469 0.930 . S
C479 C472 1.409 . S
C479 C478 1.362 . S
H480 C486 0.930 . S
H481 C489 0.930 . S
H482 C490 0.930 . S
H483 C491 0.930 . S
H484 C494 0.930 . S
H485 C495 0.930 . S
C486 H480 0.930 . S
C486 C487 1.355 . S
C486 C488 1.415 . S
C487 C486 1.355 . S
C487 C489 1.419 . S
C488 C486 1.415 . S
C488 C493 1.425 . S
C488 C495 1.409 . S
C489 H481 0.930 . S
C489 C487 1.419 . S
C489 C490 1.362 . S
C490 H482 0.930 . S
C490 C489 1.362 . S
C490 C493 1.409 . S
C491 H483 0.930 . S
C491 C492 1.355 . S
C491 C493 1.415 . S
C492 C491 1.355 . S
C492 C494 1.419 . S
C493 C488 1.425 . S
C493 C490 1.409 . S
C493 C491 1.415 . S
C494 H484 0.930 . S
C494 C492 1.419 . S
C494 C495 1.362 . S
C495 H485 0.930 . S
C495 C488 1.409 . S
C495 C494 1.362 . S
H496 C502 0.930 . S
H497 C505 0.930 . S
H498 C506 0.930 . S
H499 C507 0.930 . S
H500 C510 0.930 . S
H501 C511 0.930 . S
C502 H496 0.930 . S
C502 C503 1.355 . S
C502 C504 1.415 . S
C503 C502 1.355 . S
C503 C505 1.419 . S
C504 C502 1.415 . S
C504 C509 1.425 . S
C504 C511 1.409 . S
C505 H497 0.930 . S
C505 C503 1.419 . S
C505 C506 1.362 . S
C506 H498 0.930 . S
C506 C505 1.362 . S
C506 C509 1.409 . S
C507 H499 0.930 . S
C507 C508 1.355 . S
C507 C509 1.415 1_545 S
C508 C507 1.355 . S
C508 C510 1.419 . S
C509 C504 1.425 . S
C509 C506 1.409 . S
C509 C507 1.415 1_565 S
C510 H500 0.930 . S
C510 C508 1.419 . S
C510 C511 1.362 1_545 S
C511 H501 0.930 . S
C511 C504 1.409 . S
C511 C510 1.362 1_565 S
H512 C518 0.930 . S
H513 C521 0.930 . S
H514 C522 0.930 . S
H515 C523 0.930 . S
H516 C526 0.930 . S
H517 C527 0.930 . S
C518 H512 0.930 . S
C518 C519 1.355 . S
C518 C520 1.415 . S
C519 C518 1.355 . S
C519 C521 1.419 . S
C520 C518 1.415 . S
C520 C525 1.425 . S
C520 C527 1.409 . S
C521 H513 0.930 . S
C521 C519 1.419 . S
C521 C522 1.362 . S
C522 H514 0.930 . S
C522 C521 1.362 . S
C522 C525 1.409 . S
C523 H515 0.930 . S
C523 C524 1.355 . S
C523 C525 1.415 . S
C524 C523 1.355 . S
C524 C526 1.419 . S
C525 C520 1.425 . S
C525 C522 1.409 . S
C525 C523 1.415 . S
C526 H516 0.930 . S
C526 C524 1.419 . S
C526 C527 1.362 . S
C527 H517 0.930 . S
C527 C520 1.409 . S
C527 C526 1.362 . S
H528 C534 0.930 . S
H529 C537 0.930 . S
H530 C538 0.930 1_556 S
H531 C539 0.930 . S
H532 C542 0.930 . S
H533 C543 0.930 1_554 S
C534 H528 0.930 . S
C534 C535 1.355 . S
C534 C536 1.415 . S
C535 C534 1.355 . S
C535 C537 1.419 . S
C536 C534 1.415 . S
C536 C541 1.425 1_554 S
C536 C543 1.409 1_554 S
C537 H529 0.930 . S
C537 C535 1.419 . S
C537 C538 1.362 . S
C538 H530 0.930 1_554 S
C538 C537 1.362 . S
C538 C541 1.409 1_554 S
C539 H531 0.930 . S
C539 C540 1.355 . S
C539 C541 1.415 . S
C540 C539 1.355 . S
C540 C542 1.419 . S
C541 C536 1.425 1_556 S
C541 C538 1.409 1_556 S
C541 C539 1.415 . S
C542 H532 0.930 . S
C542 C540 1.419 . S
C542 C543 1.362 . S
C543 H533 0.930 1_556 S
C543 C536 1.409 1_556 S
C543 C542 1.362 . S
H544 C550 0.930 . S
H545 C553 0.930 . S
H546 C554 0.930 . S
H547 C555 0.930 . S
H548 C558 0.930 . S
H549 C559 0.930 . S
C550 H544 0.930 . S
C550 C551 1.355 . S
C550 C552 1.415 1_554 S
C551 C550 1.355 . S
C551 C553 1.419 . S
C552 C550 1.415 1_556 S
C552 C557 1.425 . S
C552 C559 1.409 . S
C553 H545 0.930 . S
C553 C551 1.419 . S
C553 C554 1.362 . S
C554 H546 0.930 . S
C554 C553 1.362 . S
C554 C557 1.409 1_554 S
C555 H547 0.930 . S
C555 C556 1.355 . S
C555 C557 1.415 . S
C556 C555 1.355 . S
C556 C558 1.419 . S
C557 C552 1.425 . S
C557 C554 1.409 1_556 S
C557 C555 1.415 . S
C558 H548 0.930 . S
C558 C556 1.419 . S
C558 C559 1.362 . S
C559 H549 0.930 . S
C559 C552 1.409 . S
C559 C558 1.362 . S
H560 C566 0.930 . S
H561 C569 0.930 . S
H562 C570 0.930 . S
H563 C571 0.930 . S
H564 C574 0.930 . S
H565 C575 0.930 . S
C566 H560 0.930 . S
C566 C567 1.355 . S
C566 C568 1.415 . S
C567 C566 1.355 . S
C567 C569 1.419 . S
C568 C566 1.415 . S
C568 C573 1.425 . S
C568 C575 1.409 . S
C569 H561 0.930 . S
C569 C567 1.419 . S
C569 C570 1.362 . S
C570 H562 0.930 . S
C570 C569 1.362 . S
C570 C573 1.409 . S
C571 H563 0.930 . S
C571 C572 1.355 . S
C571 C573 1.415 . S
C572 C571 1.355 . S
C572 C574 1.419 . S
C573 C568 1.425 . S
C573 C570 1.409 . S
C573 C571 1.415 . S
C574 H564 0.930 . S
C574 C572 1.419 . S
C574 C575 1.362 . S
C575 H565 0.930 . S
C575 C568 1.409 . S
C575 C574 1.362 . S
H576 C582 0.930 . S
H577 C585 0.930 . S
H578 C586 0.930 . S
H579 C587 0.930 . S
H580 C590 0.930 . S
H581 C591 0.930 . S
C582 H576 0.930 . S
C582 C583 1.355 . S
C582 C584 1.415 . S
C583 C582 1.355 . S
C583 C585 1.419 . S
C584 C582 1.415 . S
C584 C589 1.425 . S
C584 C591 1.409 . S
C585 H577 0.930 . S
C585 C583 1.419 . S
C585 C586 1.362 . S
C586 H578 0.930 . S
C586 C585 1.362 . S
C586 C589 1.409 . S
C587 H579 0.930 . S
C587 C588 1.355 . S
C587 C589 1.415 . S
C588 C587 1.355 . S
C588 C590 1.419 . S
C589 C584 1.425 . S
C589 C586 1.409 . S
C589 C587 1.415 . S
C590 H580 0.930 . S
C590 C588 1.419 . S
C590 C591 1.362 . S
C591 H581 0.930 . S
C591 C584 1.409 . S
C591 C590 1.362 . S
H592 C598 0.930 . S
H593 C601 0.930 . S
H594 C602 0.930 1_655 S
H595 C603 0.930 . S
H596 C606 0.930 . S
H597 C607 0.930 . S
C598 H592 0.930 . S
C598 C599 1.355 . S
C598 C600 1.415 1_455 S
C599 C598 1.355 . S
C599 C601 1.419 . S
C600 C598 1.415 1_655 S
C600 C605 1.425 . S
C600 C607 1.409 . S
C601 H593 0.930 . S
C601 C599 1.419 . S
C601 C602 1.362 . S
C602 H594 0.930 1_455 S
C602 C601 1.362 . S
C602 C605 1.409 1_455 S
C603 H595 0.930 . S
C603 C604 1.355 . S
C603 C605 1.415 . S
C604 C603 1.355 . S
C604 C606 1.419 . S
C605 C600 1.425 . S
C605 C602 1.409 1_655 S
C605 C603 1.415 . S
C606 H596 0.930 . S
C606 C604 1.419 . S
C606 C607 1.362 . S
C607 H597 0.930 . S
C607 C600 1.409 . S
C607 C606 1.362 . S
H608 C614 0.930 . S
H609 C617 0.930 . S
H610 C618 0.930 . S
H611 C619 0.930 . S
H612 C622 0.930 . S
H613 C623 0.930 . S
C614 H608 0.930 . S
C614 C615 1.355 . S
C614 C616 1.415 1_655 S
C615 C614 1.355 . S
C615 C617 1.419 . S
C616 C614 1.415 1_455 S
C616 C621 1.425 . S
C616 C623 1.409 . S
C617 H609 0.930 . S
C617 C615 1.419 . S
C617 C618 1.362 . S
C618 H610 0.930 . S
C618 C617 1.362 . S
C618 C621 1.409 1_655 S
C619 H611 0.930 . S
C619 C620 1.355 . S
C619 C621 1.415 . S
C620 C619 1.355 . S
C620 C622 1.419 . S
C621 C616 1.425 . S
C621 C618 1.409 1_455 S
C621 C619 1.415 . S
C622 H612 0.930 . S
C622 C620 1.419 . S
C622 C623 1.362 . S
C623 H613 0.930 . S
C623 C616 1.409 . S
C623 C622 1.362 . S
H624 C630 0.930 . S
H625 C633 0.930 . S
H626 C634 0.930 . S
H627 C635 0.930 . S
H628 C638 0.930 . S
H629 C639 0.930 . S
C630 H624 0.930 . S
C630 C631 1.355 . S
C630 C632 1.415 1_455 S
C631 C630 1.355 . S
C631 C633 1.419 . S
C632 C630 1.415 1_655 S
C632 C637 1.425 . S
C632 C639 1.409 . S
C633 H625 0.930 . S
C633 C631 1.419 . S
C633 C634 1.362 . S
C634 H626 0.930 . S
C634 C633 1.362 . S
C634 C637 1.409 1_455 S
C635 H627 0.930 . S
C635 C636 1.355 . S
C635 C637 1.415 . S
C636 C635 1.355 . S
C636 C638 1.419 . S
C637 C632 1.425 . S
C637 C634 1.409 1_655 S
C637 C635 1.415 . S
C638 H628 0.930 . S
C638 C636 1.419 . S
C638 C639 1.362 . S
C639 H629 0.930 . S
C639 C632 1.409 . S
C639 C638 1.362 . S
H640 C646 0.930 . S
H641 C649 0.930 . S
H642 C650 0.930 . S
H643 C651 0.930 . S
H644 C654 0.930 . S
H645 C655 0.930 . S
C646 H640 0.930 . S
C646 C647 1.355 . S
C646 C648 1.415 . S
C647 C646 1.355 . S
C647 C649 1.419 . S
C648 C646 1.415 . S
C648 C653 1.425 . S
C648 C655 1.409 1_455 S
C649 H641 0.930 . S
C649 C647 1.419 . S
C649 C650 1.362 . S
C650 H642 0.930 . S
C650 C649 1.362 . S
C650 C653 1.409 . S
C651 H643 0.930 . S
C651 C652 1.355 . S
C651 C653 1.415 1_655 S
C652 C651 1.355 . S
C652 C654 1.419 . S
C653 C648 1.425 . S
C653 C650 1.409 . S
C653 C651 1.415 1_455 S
C654 H644 0.930 . S
C654 C652 1.419 . S
C654 C655 1.362 . S
C655 H645 0.930 . S
C655 C648 1.409 1_655 S
C655 C654 1.362 . S
H656 C662 0.930 . S
H657 C665 0.930 . S
H658 C666 0.930 . S
H659 C667 0.930 . S
H660 C670 0.930 . S
H661 C671 0.930 . S
C662 H656 0.930 . S
C662 C663 1.355 . S
C662 C664 1.415 1_545 S
C663 C662 1.355 . S
C663 C665 1.419 . S
C664 C662 1.415 1_565 S
C664 C669 1.425 . S
C664 C671 1.409 . S
C665 H657 0.930 . S
C665 C663 1.419 . S
C665 C666 1.362 1_545 S
C666 H658 0.930 . S
C666 C665 1.362 1_565 S
C666 C669 1.409 . S
C667 H659 0.930 . S
C667 C668 1.355 . S
C667 C669 1.415 . S
C668 C667 1.355 . S
C668 C670 1.419 . S
C669 C664 1.425 . S
C669 C666 1.409 . S
C669 C667 1.415 . S
C670 H660 0.930 . S
C670 C668 1.419 . S
C670 C671 1.362 . S
C671 H661 0.930 . S
C671 C664 1.409 . S
C671 C670 1.362 . S
H672 C678 0.930 . S
H673 C681 0.930 . S
H674 C682 0.930 . S
H675 C683 0.930 . S
H676 C686 0.930 . S
H677 C687 0.930 . S
C678 H672 0.930 . S
C678 C679 1.355 . S
C678 C680 1.415 . S
C679 C678 1.355 . S
C679 C681 1.419 . S
C680 C678 1.415 . S
C680 C685 1.425 . S
C680 C687 1.409 1_545 S
C681 H673 0.930 . S
C681 C679 1.419 . S
C681 C682 1.362 . S
C682 H674 0.930 . S
C682 C681 1.362 . S
C682 C685 1.409 . S
C683 H675 0.930 . S
C683 C684 1.355 . S
C683 C685 1.415 1_565 S
C684 C683 1.355 . S
C684 C686 1.419 . S
C685 C680 1.425 . S
C685 C682 1.409 . S
C685 C683 1.415 1_545 S
C686 H676 0.930 . S
C686 C684 1.419 . S
C686 C687 1.362 . S
C687 H677 0.930 . S
C687 C680 1.409 1_565 S
C687 C686 1.362 . S
H688 C694 0.930 . S
H689 C697 0.930 . S
H690 C698 0.930 . S
H691 C699 0.930 . S
H692 C702 0.930 . S
H693 C703 0.930 . S
C694 H688 0.930 . S
C694 C695 1.355 . S
C694 C696 1.415 . S
C695 C694 1.355 . S
C695 C697 1.419 . S
C696 C694 1.415 . S
C696 C701 1.425 . S
C696 C703 1.409 . S
C697 H689 0.930 . S
C697 C695 1.419 . S
C697 C698 1.362 . S
C698 H690 0.930 . S
C698 C697 1.362 . S
C698 C701 1.409 . S
C699 H691 0.930 . S
C699 C700 1.355 . S
C699 C701 1.415 . S
C700 C699 1.355 . S
C700 C702 1.419 . S
C701 C696 1.425 . S
C701 C698 1.409 . S
C701 C699 1.415 . S
C702 H692 0.930 . S
C702 C700 1.419 . S
C702 C703 1.362 . S
C703 H693 0.930 . S
C703 C696 1.409 . S
C703 C702 1.362 . S
H704 C710 0.930 . S
H705 C713 0.930 . S
H706 C714 0.930 . S
H707 C715 0.930 . S
H708 C718 0.930 . S
H709 C719 0.930 . S
C710 H704 0.930 . S
C710 C711 1.355 . S
C710 C712 1.415 . S
C711 C710 1.355 . S
C711 C713 1.419 . S
C712 C710 1.415 . S
C712 C717 1.425 . S
C712 C719 1.409 1_545 S
C713 H705 0.930 . S
C713 C711 1.419 . S
C713 C714 1.362 . S
C714 H706 0.930 . S
C714 C713 1.362 . S
C714 C717 1.409 . S
C715 H707 0.930 . S
C715 C716 1.355 . S
C715 C717 1.415 1_565 S
C716 C715 1.355 . S
C716 C718 1.419 . S
C717 C712 1.425 . S
C717 C714 1.409 . S
C717 C715 1.415 1_545 S
C718 H708 0.930 . S
C718 C716 1.419 . S
C718 C719 1.362 . S
C719 H709 0.930 . S
C719 C712 1.409 1_565 S
C719 C718 1.362 . S
H720 C726 0.930 . S
H721 C729 0.930 . S
H722 C730 0.930 . S
H723 C731 0.930 . S
H724 C734 0.930 . S
H725 C735 0.930 . S
C726 H720 0.930 . S
C726 C727 1.355 1_455 S
C726 C728 1.415 . S
C727 C726 1.355 1_655 S
C727 C729 1.419 . S
C728 C726 1.415 . S
C728 C733 1.425 1_455 S
C728 C735 1.409 . S
C729 H721 0.930 . S
C729 C727 1.419 . S
C729 C730 1.362 . S
C730 H722 0.930 . S
C730 C729 1.362 . S
C730 C733 1.409 . S
C731 H723 0.930 . S
C731 C732 1.355 1_655 S
C731 C733 1.415 . S
C732 C731 1.355 1_455 S
C732 C734 1.419 . S
C733 C728 1.425 1_655 S
C733 C730 1.409 . S
C733 C731 1.415 . S
C734 H724 0.930 . S
C734 C732 1.419 . S
C734 C735 1.362 . S
C735 H725 0.930 . S
C735 C728 1.409 . S
C735 C734 1.362 . S
H736 C742 0.930 . S
H737 C745 0.930 . S
H738 C746 0.930 . S
H739 C747 0.930 . S
H740 C750 0.930 . S
H741 C751 0.930 . S
C742 H736 0.930 . S
C742 C743 1.355 . S
C742 C744 1.415 . S
C743 C742 1.355 . S
C743 C745 1.419 . S
C744 C742 1.415 . S
C744 C749 1.426 . S
C744 C751 1.409 1_455 S
C745 H737 0.930 . S
C745 C743 1.419 . S
C745 C746 1.362 . S
C746 H738 0.930 . S
C746 C745 1.362 . S
C746 C749 1.414 . S
C747 H739 0.930 . S
C747 C748 1.355 . S
C747 C749 1.410 1_655 S
C748 C747 1.355 . S
C748 C750 1.419 . S
C749 C744 1.426 . S
C749 C746 1.414 . S
C749 C747 1.410 1_455 S
C750 H740 0.930 . S
C750 C748 1.419 . S
C750 C751 1.362 . S
C751 H741 0.930 . S
C751 C744 1.409 1_655 S
C751 C750 1.362 . S
H752 C758 0.930 . S
H753 C761 0.930 . S
H754 C762 0.930 . S
H755 C763 0.930 . S
H756 C766 0.930 . S
H757 C767 0.930 . S
C758 H752 0.930 . S
C758 C759 1.355 1_545 S
C758 C760 1.415 . S
C759 C758 1.355 1_565 S
C759 C761 1.419 . S
C760 C758 1.415 . S
C760 C765 1.425 1_545 S
C760 C767 1.409 . S
C761 H753 0.930 . S
C761 C759 1.419 . S
C761 C762 1.362 . S
C762 H754 0.930 . S
C762 C761 1.362 . S
C762 C765 1.409 . S
C763 H755 0.930 . S
C763 C764 1.355 1_565 S
C763 C765 1.415 . S
C764 C763 1.355 1_545 S
C764 C766 1.419 . S
C765 C760 1.425 1_565 S
C765 C762 1.409 . S
C765 C763 1.415 . S
C766 H756 0.930 . S
C766 C764 1.419 . S
C766 C767 1.362 . S
C767 H757 0.930 . S
C767 C760 1.409 . S
C767 C766 1.362 . S
H768 C774 0.930 . S
H769 C777 0.930 . S
H770 C778 0.930 . S
H771 C779 0.930 . S
H772 C782 0.930 . S
H773 C783 0.930 . S
C774 H768 0.930 . S
C774 C775 1.355 . S
C774 C776 1.415 . S
C775 C774 1.355 . S
C775 C777 1.419 . S
C776 C774 1.415 . S
C776 C781 1.425 . S
C776 C783 1.409 . S
C777 H769 0.930 . S
C777 C775 1.419 . S
C777 C778 1.362 . S
C778 H770 0.930 . S
C778 C777 1.362 . S
C778 C781 1.409 . S
C779 H771 0.930 . S
C779 C780 1.355 . S
C779 C781 1.415 . S
C780 C779 1.355 . S
C780 C782 1.419 . S
C781 C776 1.425 . S
C781 C778 1.409 . S
C781 C779 1.415 . S
C782 H772 0.930 . S
C782 C780 1.419 . S
C782 C783 1.362 . S
C783 H773 0.930 . S
C783 C776 1.409 . S
C783 C782 1.362 . S
H784 C790 0.930 . S
H785 C793 0.930 . S
H786 C794 0.930 . S
H787 C795 0.930 . S
H788 C798 0.930 . S
H789 C799 0.930 . S
C790 H784 0.930 . S
C790 C791 1.355 1_556 S
C790 C792 1.415 . S
C791 C790 1.355 1_554 S
C791 C793 1.419 . S
C792 C790 1.415 . S
C792 C797 1.425 1_556 S
C792 C799 1.409 . S
C793 H785 0.930 . S
C793 C791 1.419 . S
C793 C794 1.362 . S
C794 H786 0.930 . S
C794 C793 1.362 . S
C794 C797 1.409 . S
C795 H787 0.930 . S
C795 C796 1.355 1_554 S
C795 C797 1.415 . S
C796 C795 1.355 1_556 S
C796 C798 1.419 . S
C797 C792 1.425 1_554 S
C797 C794 1.409 . S
C797 C795 1.415 . S
C798 H788 0.930 . S
C798 C796 1.419 . S
C798 C799 1.362 . S
C799 H789 0.930 . S
C799 C792 1.409 . S
C799 C798 1.362 . S
H800 C806 0.930 . S
H801 C809 0.930 . S
H802 C810 0.930 . S
H803 C811 0.930 . S
H804 C814 0.930 . S
H805 C815 0.930 . S
C806 H800 0.930 . S
C806 C807 1.355 . S
C806 C808 1.415 . S
C807 C806 1.355 . S
C807 C809 1.419 . S
C808 C806 1.415 . S
C808 C813 1.425 . S
C808 C815 1.409 . S
C809 H801 0.930 . S
C809 C807 1.419 . S
C809 C810 1.362 . S
C810 H802 0.930 . S
C810 C809 1.362 . S
C810 C813 1.409 . S
C811 H803 0.930 . S
C811 C812 1.355 . S
C811 C813 1.415 . S
C812 C811 1.355 . S
C812 C814 1.419 . S
C813 C808 1.425 . S
C813 C810 1.409 . S
C813 C811 1.415 . S
C814 H804 0.930 . S
C814 C812 1.419 . S
C814 C815 1.362 . S
C815 H805 0.930 . S
C815 C808 1.409 . S
C815 C814 1.362 . S
H816 C822 0.930 . S
H817 C825 0.930 . S
H818 C826 0.930 . S
H819 C827 0.930 . S
H820 C830 0.930 . S
H821 C831 0.930 . S
C822 H816 0.930 . S
C822 C823 1.355 . S
C822 C824 1.415 . S
C823 C822 1.355 . S
C823 C825 1.419 . S
C824 C822 1.415 . S
C824 C829 1.425 . S
C824 C831 1.409 . S
C825 H817 0.930 . S
C825 C823 1.419 . S
C825 C826 1.362 . S
C826 H818 0.930 . S
C826 C825 1.362 . S
C826 C829 1.409 . S
C827 H819 0.930 . S
C827 C828 1.355 . S
C827 C829 1.415 . S
C828 C827 1.355 . S
C828 C830 1.419 . S
C829 C824 1.425 . S
C829 C826 1.409 . S
C829 C827 1.415 . S
C830 H820 0.930 . S
C830 C828 1.419 . S
C830 C831 1.362 . S
C831 H821 0.930 . S
C831 C824 1.409 . S
C831 C830 1.362 . S
H832 C838 0.930 . S
H833 C841 0.930 . S
H834 C842 0.930 . S
H835 C843 0.930 . S
H836 C846 0.930 . S
H837 C847 0.930 . S
C838 H832 0.930 . S
C838 C839 1.355 . S
C838 C840 1.415 . S
C839 C838 1.355 . S
C839 C841 1.419 . S
C840 C838 1.415 . S
C840 C845 1.425 . S
C840 C847 1.409 . S
C841 H833 0.930 . S
C841 C839 1.419 . S
C841 C842 1.362 . S
C842 H834 0.930 . S
C842 C841 1.362 . S
C842 C845 1.409 . S
C843 H835 0.930 . S
C843 C844 1.355 . S
C843 C845 1.415 . S
C844 C843 1.355 . S
C844 C846 1.419 . S
C845 C840 1.425 . S
C845 C842 1.409 . S
C845 C843 1.415 . S
C846 H836 0.930 . S
C846 C844 1.419 . S
C846 C847 1.362 . S
C847 H837 0.930 . S
C847 C840 1.409 . S
C847 C846 1.362 . S
H848 C854 0.930 . S
H849 C857 0.930 . S
H850 C858 0.930 . S
H851 C859 0.930 . S
H852 C862 0.930 . S
H853 C863 0.930 . S
C854 H848 0.930 . S
C854 C855 1.355 . S
C854 C856 1.415 . S
C855 C854 1.355 . S
C855 C857 1.419 . S
C856 C854 1.415 . S
C856 C861 1.425 . S
C856 C863 1.409 . S
C857 H849 0.930 . S
C857 C855 1.419 . S
C857 C858 1.362 . S
C858 H850 0.930 . S
C858 C857 1.362 . S
C858 C861 1.409 . S
C859 H851 0.930 . S
C859 C860 1.355 . S
C859 C861 1.415 . S
C860 C859 1.355 . S
C860 C862 1.419 . S
C861 C856 1.425 . S
C861 C858 1.409 . S
C861 C859 1.415 . S
C862 H852 0.930 . S
C862 C860 1.419 . S
C862 C863 1.362 . S
C863 H853 0.930 . S
C863 C856 1.409 . S
C863 C862 1.362 . S
H864 C870 0.930 . S
H865 C873 0.930 . S
H866 C874 0.930 . S
H867 C875 0.930 . S
H868 C878 0.930 . S
H869 C879 0.930 . S
C870 H864 0.930 . S
C870 C871 1.355 . S
C870 C872 1.415 . S
C871 C870 1.355 . S
C871 C873 1.419 . S
C872 C870 1.415 . S
C872 C877 1.425 . S
C872 C879 1.409 . S
C873 H865 0.930 . S
C873 C871 1.419 . S
C873 C874 1.362 . S
C874 H866 0.930 . S
C874 C873 1.362 . S
C874 C877 1.409 . S
C875 H867 0.930 . S
C875 C876 1.355 . S
C875 C877 1.415 . S
C876 C875 1.355 . S
C876 C878 1.419 . S
C877 C872 1.425 . S
C877 C874 1.409 . S
C877 C875 1.415 . S
C878 H868 0.930 . S
C878 C876 1.419 . S
C878 C879 1.362 . S
C879 H869 0.930 . S
C879 C872 1.409 . S
C879 C878 1.362 . S
H880 C886 0.930 . S
H881 C889 0.930 . S
H882 C890 0.930 . S
H883 C891 0.930 . S
H884 C894 0.930 . S
H885 C895 0.930 . S
C886 H880 0.930 . S
C886 C887 1.355 1_565 S
C886 C888 1.415 . S
C887 C886 1.355 1_545 S
C887 C889 1.419 . S
C888 C886 1.415 . S
C888 C893 1.425 1_565 S
C888 C895 1.409 . S
C889 H881 0.930 . S
C889 C887 1.419 . S
C889 C890 1.362 . S
C890 H882 0.930 . S
C890 C889 1.362 . S
C890 C893 1.409 . S
C891 H883 0.930 . S
C891 C892 1.355 1_545 S
C891 C893 1.415 . S
C892 C891 1.355 1_565 S
C892 C894 1.419 . S
C893 C888 1.425 1_545 S
C893 C890 1.409 . S
C893 C891 1.415 . S
C894 H884 0.930 . S
C894 C892 1.419 . S
C894 C895 1.362 . S
C895 H885 0.930 . S
C895 C888 1.409 . S
C895 C894 1.362 . S
H896 C902 0.930 . S
H897 C905 0.930 . S
H898 C906 0.930 . S
H899 C907 0.930 . S
H900 C910 0.930 . S
H901 C911 0.930 . S
C902 H896 0.930 . S
C902 C903 1.355 . S
C902 C904 1.415 . S
C903 C902 1.355 . S
C903 C905 1.419 1_556 S
C904 C902 1.415 . S
C904 C909 1.425 1_556 S
C904 C911 1.409 . S
C905 H897 0.930 . S
C905 C903 1.419 1_554 S
C905 C906 1.362 . S
C906 H898 0.930 . S
C906 C905 1.362 . S
C906 C909 1.409 . S
C907 H899 0.930 . S
C907 C908 1.355 . S
C907 C909 1.415 . S
C908 C907 1.355 . S
C908 C910 1.419 1_554 S
C909 C904 1.425 1_554 S
C909 C906 1.409 . S
C909 C907 1.415 . S
C910 H900 0.930 . S
C910 C908 1.419 1_556 S
C910 C911 1.362 . S
C911 H901 0.930 . S
C911 C904 1.409 . S
C911 C910 1.362 . S
H912 C918 0.912 1_545 S
H913 C921 0.930 . S
H914 C922 0.930 . S
H915 C923 0.930 1_565 S
H916 C926 0.927 1_655 S
H917 C927 0.930 1_655 S
C918 H912 0.912 1_565 S
C918 C919 1.355 . S
C918 C920 1.415 1_565 S
C919 C918 1.355 . S
C919 C921 1.419 . S
C920 C918 1.415 1_545 S
C920 C925 1.425 1_545 S
C920 C927 1.409 . S
C921 H913 0.930 . S
C921 C919 1.419 . S
C921 C922 1.362 . S
C922 H914 0.930 . S
C922 C921 1.362 . S
C922 C925 1.409 . S
C923 H915 0.930 1_545 S
C923 C924 1.355 . S
C923 C925 1.415 1_545 S
C924 C923 1.355 . S
C924 C926 1.419 . S
C925 C920 1.425 1_565 S
C925 C922 1.409 . S
C925 C923 1.415 1_565 S
C926 H916 0.927 1_455 S
C926 C924 1.419 . S
C926 C927 1.362 . S
C927 H917 0.930 1_455 S
C927 C920 1.409 . S
C927 C926 1.362 . S
H928 C934 0.933 . S
H929 C937 0.930 . S
H930 C938 0.930 . S
H931 C939 0.930 . S
H932 C942 0.930 . S
H933 C943 0.930 . S
C934 H928 0.933 . S
C934 C935 1.352 1_455 S
C934 C936 1.414 1_455 S
C935 C934 1.352 1_655 S
C935 C937 1.419 . S
C936 C934 1.414 1_655 S
C936 C941 1.425 . S
C936 C943 1.409 1_655 S
C937 H929 0.930 . S
C937 C935 1.419 . S
C937 C938 1.362 . S
C938 H930 0.930 . S
C938 C937 1.362 . S
C938 C941 1.409 . S
C939 H931 0.930 . S
C939 C940 1.355 . S
C939 C941 1.415 . S
C940 C939 1.355 . S
C940 C942 1.419 1_655 S
C941 C936 1.425 . S
C941 C938 1.409 . S
C941 C939 1.415 . S
C942 H932 0.930 . S
C942 C940 1.419 1_455 S
C942 C943 1.362 . S
C943 H933 0.930 . S
C943 C936 1.409 1_455 S
C943 C942 1.362 . S
H944 C950 0.930 . S
H945 C953 0.922 1_565 S
H946 C954 0.930 . S
H947 C955 0.930 1_565 S
H948 C958 0.930 . S
H949 C959 0.930 . S
C950 H944 0.930 . S
C950 C951 1.355 . S
C950 C952 1.415 1_556 S
C951 C950 1.355 . S
C951 C953 1.430 . S
C952 C950 1.415 1_554 S
C952 C957 1.425 1_554 S
C952 C959 1.409 . S
C953 H945 0.922 1_545 S
C953 C951 1.430 . S
C953 C954 1.360 1_545 S
C954 H946 0.930 . S
C954 C953 1.360 1_565 S
C954 C957 1.409 1_565 S
C955 H947 0.930 1_545 S
C955 C956 1.355 . S
C955 C957 1.415 1_554 S
C956 C955 1.355 . S
C956 C958 1.419 . S
C957 C952 1.425 1_556 S
C957 C954 1.409 1_545 S
C957 C955 1.415 1_556 S
C958 H948 0.930 . S
C958 C956 1.419 . S
C958 C959 1.362 . S
C959 H949 0.930 . S
C959 C952 1.409 . S
C959 C958 1.362 . S
H960 C966 0.930 . S
H961 C969 0.930 . S
H962 C970 0.930 . S
H963 C971 0.930 . S
H964 C974 0.930 . S
H965 C975 0.930 . S
C966 H960 0.930 . S
C966 C967 1.355 . S
C966 C968 1.415 . S
C967 C966 1.355 . S
C967 C969 1.419 . S
C968 C966 1.415 . S
C968 C973 1.425 1_554 S
C968 C975 1.409 . S
C969 H961 0.930 . S
C969 C967 1.419 . S
C969 C970 1.362 1_554 S
C970 H962 0.930 . S
C970 C969 1.362 1_556 S
C970 C973 1.409 . S
C971 H963 0.930 . S
C971 C972 1.355 . S
C971 C973 1.415 . S
C972 C971 1.355 . S
C972 C974 1.419 . S
C973 C968 1.425 1_556 S
C973 C970 1.409 . S
C973 C971 1.415 . S
C974 H964 0.930 . S
C974 C972 1.419 . S
C974 C975 1.362 1_556 S
C975 H965 0.930 . S
C975 C968 1.409 . S
C975 C974 1.362 1_554 S
H976 C982 0.930 . S
H977 C985 0.930 . S
H978 C986 0.930 . S
H979 C987 0.930 . S
H980 C990 0.930 . S
H981 C991 0.930 . S
C982 H976 0.930 . S
C982 C983 1.355 . S
C982 C984 1.415 . S
C983 C982 1.355 . S
C983 C985 1.419 . S
C984 C982 1.415 . S
C984 C989 1.425 . S
C984 C991 1.409 . S
C985 H977 0.930 . S
C985 C983 1.419 . S
C985 C986 1.362 . S
C986 H978 0.930 . S
C986 C985 1.362 . S
C986 C989 1.409 . S
C987 H979 0.930 . S
C987 C988 1.355 . S
C987 C989 1.415 . S
C988 C987 1.355 . S
C988 C990 1.419 . S
C989 C984 1.425 . S
C989 C986 1.409 . S
C989 C987 1.415 . S
C990 H980 0.930 . S
C990 C988 1.419 . S
C990 C991 1.362 . S
C991 H981 0.930 . S
C991 C984 1.409 . S
C991 C990 1.362 . S
H992 C998 0.930 . S
H993 C1001 0.930 . S
H994 C1002 0.930 . S
H995 C1003 0.930 . S
H996 C1006 0.930 . S
H997 C1007 0.930 . S
C998 H992 0.930 . S
C998 C999 1.355 . S
C998 C1000 1.415 . S
C999 C998 1.355 . S
C999 C1001 1.419 . S
C1000 C998 1.415 . S
C1000 C1005 1.425 . S
C1000 C1007 1.409 . S
C1001 H993 0.930 . S
C1001 C999 1.419 . S
C1001 C1002 1.362 . S
C1002 H994 0.930 . S
C1002 C1001 1.362 . S
C1002 C1005 1.409 . S
C1003 H995 0.930 . S
C1003 C1004 1.355 . S
C1003 C1005 1.415 . S
C1004 C1003 1.355 . S
C1004 C1006 1.419 . S
C1005 C1000 1.425 . S
C1005 C1002 1.409 . S
C1005 C1003 1.415 . S
C1006 H996 0.930 . S
C1006 C1004 1.419 . S
C1006 C1007 1.362 . S
C1007 H997 0.930 . S
C1007 C1000 1.409 . S
C1007 C1006 1.362 . S
H1008 C1014 0.929 . S
H1009 C1017 0.930 . S
H1010 C1018 0.930 . S
H1011 C1019 0.930 . S
H1012 C1022 0.930 1_556 S
H1013 C1023 0.944 . S
C1014 H1008 0.929 . S
C1014 C1015 1.355 . S
C1014 C1016 1.415 1_455 S
C1015 C1014 1.355 . S
C1015 C1017 1.419 . S
C1016 C1014 1.415 1_655 S
C1016 C1021 1.425 1_655 S
C1016 C1023 1.399 1_554 S
C1017 H1009 0.930 . S
C1017 C1015 1.419 . S
C1017 C1018 1.362 . S
C1018 H1010 0.930 . S
C1018 C1017 1.362 . S
C1018 C1021 1.409 . S
C1019 H1011 0.930 . S
C1019 C1020 1.355 . S
C1019 C1021 1.415 1_655 S
C1020 C1019 1.355 . S
C1020 C1022 1.419 . S
C1021 C1016 1.425 1_455 S
C1021 C1018 1.409 . S
C1021 C1019 1.415 1_455 S
C1022 H1012 0.930 1_554 S
C1022 C1020 1.419 . S
C1022 C1023 1.360 1_554 S
C1023 H1013 0.944 . S
C1023 C1016 1.399 1_556 S
C1023 C1022 1.360 1_556 S
H1024 C1030 0.930 . S
H1025 C1033 0.930 . S
H1026 C1034 0.930 . S
H1027 C1035 0.930 . S
H1028 C1038 0.930 . S
H1029 C1039 0.930 . S
C1030 H1024 0.930 . S
C1030 C1031 1.355 . S
C1030 C1032 1.415 1_455 S
C1031 C1030 1.355 . S
C1031 C1033 1.419 . S
C1032 C1030 1.415 1_655 S
C1032 C1037 1.425 1_655 S
C1032 C1039 1.409 . S
C1033 H1025 0.930 . S
C1033 C1031 1.419 . S
C1033 C1034 1.362 . S
C1034 H1026 0.930 . S
C1034 C1033 1.362 . S
C1034 C1037 1.409 . S
C1035 H1027 0.930 . S
C1035 C1036 1.355 . S
C1035 C1037 1.415 1_655 S
C1036 C1035 1.355 . S
C1036 C1038 1.419 . S
C1037 C1032 1.425 1_455 S
C1037 C1034 1.409 . S
C1037 C1035 1.415 1_455 S
C1038 H1028 0.930 . S
C1038 C1036 1.419 . S
C1038 C1039 1.362 . S
C1039 H1029 0.930 . S
C1039 C1032 1.409 . S
C1039 C1038 1.362 . S
H1040 C1046 0.930 . S
H1041 C1049 0.930 . S
H1042 C1050 0.930 . S
H1043 C1051 0.930 . S
H1044 C1054 0.930 . S
H1045 C1055 0.930 . S
C1046 H1040 0.930 . S
C1046 C1047 1.355 . S
C1046 C1048 1.415 . S
C1047 C1046 1.355 . S
C1047 C1049 1.419 . S
C1048 C1046 1.415 . S
C1048 C1053 1.425 . S
C1048 C1055 1.409 . S
C1049 H1041 0.930 . S
C1049 C1047 1.419 . S
C1049 C1050 1.362 . S
C1050 H1042 0.930 . S
C1050 C1049 1.362 . S
C1050 C1053 1.409 . S
C1051 H1043 0.930 . S
C1051 C1052 1.355 . S
C1051 C1053 1.415 . S
C1052 C1051 1.355 . S
C1052 C1054 1.419 . S
C1053 C1048 1.425 . S
C1053 C1050 1.409 . S
C1053 C1051 1.415 . S
C1054 H1044 0.930 . S
C1054 C1052 1.419 . S
C1054 C1055 1.362 . S
C1055 H1045 0.930 . S
C1055 C1048 1.409 . S
C1055 C1054 1.362 . S
H1056 C1062 0.930 . S
H1057 C1065 0.930 . S
H1058 C1066 0.930 . S
H1059 C1067 0.930 . S
H1060 C1070 0.930 . S
H1061 C1071 0.930 . S
C1062 H1056 0.930 . S
C1062 C1063 1.355 . S
C1062 C1064 1.415 . S
C1063 C1062 1.355 . S
C1063 C1065 1.419 . S
C1064 C1062 1.415 . S
C1064 C1069 1.425 . S
C1064 C1071 1.409 . S
C1065 H1057 0.930 . S
C1065 C1063 1.419 . S
C1065 C1066 1.362 . S
C1066 H1058 0.930 . S
C1066 C1065 1.362 . S
C1066 C1069 1.409 . S
C1067 H1059 0.930 . S
C1067 C1068 1.355 . S
C1067 C1069 1.415 . S
C1068 C1067 1.355 . S
C1068 C1070 1.419 . S
C1069 C1064 1.425 . S
C1069 C1066 1.409 . S
C1069 C1067 1.415 . S
C1070 H1060 0.930 . S
C1070 C1068 1.419 . S
C1070 C1071 1.362 . S
C1071 H1061 0.930 . S
C1071 C1064 1.409 . S
C1071 C1070 1.362 . S
H1072 C1078 0.930 1_545 S
H1073 C1081 0.930 . S
H1074 C1082 0.930 . S
H1075 C1083 0.930 1_565 S
H1076 C1086 0.930 . S
H1077 C1087 0.930 . S
C1078 H1072 0.930 1_565 S
C1078 C1079 1.355 . S
C1078 C1080 1.415 1_565 S
C1079 C1078 1.355 . S
C1079 C1081 1.419 . S
C1080 C1078 1.415 1_545 S
C1080 C1085 1.425 1_545 S
C1080 C1087 1.409 . S
C1081 H1073 0.930 . S
C1081 C1079 1.419 . S
C1081 C1082 1.362 . S
C1082 H1074 0.930 . S
C1082 C1081 1.362 . S
C1082 C1085 1.409 . S
C1083 H1075 0.930 1_545 S
C1083 C1084 1.355 . S
C1083 C1085 1.415 1_545 S
C1084 C1083 1.355 . S
C1084 C1086 1.419 . S
C1085 C1080 1.425 1_565 S
C1085 C1082 1.409 . S
C1085 C1083 1.415 1_565 S
C1086 H1076 0.930 . S
C1086 C1084 1.419 . S
C1086 C1087 1.362 . S
C1087 H1077 0.930 . S
C1087 C1080 1.409 . S
C1087 C1086 1.362 . S
H1088 C1094 0.930 . S
H1089 C1097 0.930 . S
H1090 C1098 0.930 . S
H1091 C1099 0.930 1_554 S
H1092 C1102 0.930 . S
H1093 C1103 0.930 . S
C1094 H1088 0.930 . S
C1094 C1095 1.355 . S
C1094 C1096 1.415 . S
C1095 C1094 1.355 . S
C1095 C1097 1.419 1_556 S
C1096 C1094 1.415 . S
C1096 C1101 1.425 . S
C1096 C1103 1.409 . S
C1097 H1089 0.930 . S
C1097 C1095 1.419 1_554 S
C1097 C1098 1.362 . S
C1098 H1090 0.930 . S
C1098 C1097 1.362 . S
C1098 C1101 1.409 1_554 S
C1099 H1091 0.930 1_556 S
C1099 C1100 1.355 . S
C1099 C1101 1.415 . S
C1100 C1099 1.355 . S
C1100 C1102 1.419 . S
C1101 C1096 1.425 . S
C1101 C1098 1.409 1_556 S
C1101 C1099 1.415 . S
C1102 H1092 0.930 . S
C1102 C1100 1.419 . S
C1102 C1103 1.362 . S
C1103 H1093 0.930 . S
C1103 C1096 1.409 . S
C1103 C1102 1.362 . S
C343 C242 0.849 . S
C348 C12 0.734 . S
C359 C26 0.907 . S
C364 C228 0.759 . S
C375 C40 0.771 . S
C380 C270 0.804 . S
C391 C54 0.951 . S
C396 C256 0.975 . S
C407 C68 0.812 . S
C412 C306 0.745 . S
C423 C82 0.832 . S
C428 C320 0.758 . S
C439 C292 0.873 . S
C444 C96 0.851 . S
C455 C166 0.918 . S
C460 C110 0.912 . S
C471 C116 0.874 . S
C476 C46 0.763 . S
C487 C18 0.888 . S
C492 C130 0.888 . S
C503 C144 0.999 . S
C508 C4 0.959 . S
C519 C158 0.823 . S
C524 C200 0.947 . S
C535 C74 0.993 . S
C540 C180 0.956 . S
C551 C60 0.819 . S
C556 C194 0.932 . S
C567 C208 0.976 . S
C572 C102 0.929 . S
C583 C222 0.750 . S
C588 C88 0.797 . S
C599 C138 0.834 . S
C604 C236 0.937 . S
C615 C152 0.923 . S
C620 C250 0.875 . S
C631 C124 0.900 . S
C636 C264 0.929 . S
C647 C278 0.869 . S
C652 C334 0.874 . S
C663 C214 1.079 . S
C668 C284 0.966 . S
C679 C298 1.049 . S
C684 C186 0.916 . S
C695 C172 0.896 . S
C700 C312 0.883 . S
C711 C326 0.979 . S
C716 C32 0.971 . S
C727 C11 1.595 . S
C732 C25 1.577 . S
C743 C53 1.485 . S
C748 C39 1.549 . S
C759 C67 1.493 . S
C764 C95 1.520 . S
C775 C81 1.758 . S
C780 C109 1.703 . S
C791 C313 1.421 . S
C796 C117 1.380 . S
C807 C131 1.581 . S
C812 C159 1.645 . S
C823 C285 1.524 . S
C828 C145 1.571 . S
C839 C193 1.690 . S
C844 C179 1.668 . S
C855 C207 1.660 . S
C860 C221 1.648 . S
C871 C263 1.688 . S
C876 C235 1.698 . S
C887 C249 1.455 . S
C892 C277 1.499 . S
C903 C327 1.367 . S
C908 C299 1.447 . S
C919 C33 1.179 . S
C924 C5 1.226 . S
C935 C19 1.259 . S
C940 C47 1.355 . S
C951 C271 1.228 . S
C956 C61 1.217 . S
C967 C75 1.339 . S
C972 C257 1.290 . S
C983 C89 1.263 . S
C988 C243 1.306 . S
C999 C229 1.419 . S
C1004 C103 1.306 . S
C1015 C123 1.419 . S
C1020 C333 1.398 . S
C1031 C137 1.448 . S
C1036 C151 1.445 . S
C1047 C291 1.412 . S
C1052 C165 1.429 . S
C1063 C173 1.293 . S
C1068 C201 1.367 . S
C1079 C187 1.199 . S
C1084 C215 1.244 . S
C1095 C319 1.403 . S
C1100 C305 1.411 . S
