# Generated by pormake.
# Topology ukc, (4)-cn, num edge types: 1
# Building blocks:
#     Node 0, Type 0, BuildingBlock: ICAMEG_clean_sbu_1, # of connection points: 4
#     Node 1, Type 0, BuildingBlock: ICAMEG_clean_sbu_1, # of connection points: 4
#     Node 2, Type 0, BuildingBlock: ICAMEG_clean_sbu_1, # of connection points: 4
#     Node 3, Type 0, BuildingBlock: ICAMEG_clean_sbu_1, # of connection points: 4
#     Node 4, Type 0, BuildingBlock: ICAMEG_clean_sbu_1, # of connection points: 4
#     Node 5, Type 0, BuildingBlock: ICAMEG_clean_sbu_1, # of connection points: 4
#     Node 6, Type 0, BuildingBlock: ICAMEG_clean_sbu_1, # of connection points: 4
#     Node 7, Type 0, BuildingBlock: ICAMEG_clean_sbu_1, # of connection points: 4
#     Node 8, Type 0, BuildingBlock: ICAMEG_clean_sbu_1, # of connection points: 4
#     Node 9, Type 0, BuildingBlock: ICAMEG_clean_sbu_1, # of connection points: 4
#     Node 10, Type 0, BuildingBlock: ICAMEG_clean_sbu_1, # of connection points: 4
#     Node 11, Type 0, BuildingBlock: ICAMEG_clean_sbu_1, # of connection points: 4
#     Node 12, Type 0, BuildingBlock: ICAMEG_clean_sbu_1, # of connection points: 4
#     Node 13, Type 0, BuildingBlock: ICAMEG_clean_sbu_1, # of connection points: 4
#     Node 14, Type 0, BuildingBlock: ICAMEG_clean_sbu_1, # of connection points: 4
#     Node 15, Type 0, BuildingBlock: ICAMEG_clean_sbu_1, # of connection points: 4
#     Node 16, Type 0, BuildingBlock: ICAMEG_clean_sbu_1, # of connection points: 4
#     Node 17, Type 0, BuildingBlock: ICAMEG_clean_sbu_1, # of connection points: 4
#     Node 18, Type 0, BuildingBlock: ICAMEG_clean_sbu_1, # of connection points: 4
#     Node 19, Type 0, BuildingBlock: ICAMEG_clean_sbu_1, # of connection points: 4
#     Node 20, Type 0, BuildingBlock: ICAMEG_clean_sbu_1, # of connection points: 4
#     Node 21, Type 0, BuildingBlock: ICAMEG_clean_sbu_1, # of connection points: 4
#     Node 22, Type 0, BuildingBlock: ICAMEG_clean_sbu_1, # of connection points: 4
#     Node 23, Type 0, BuildingBlock: ICAMEG_clean_sbu_1, # of connection points: 4
#     Node 24, Type 0, BuildingBlock: ICAMEG_clean_sbu_1, # of connection points: 4
#     Node 25, Type 0, BuildingBlock: ICAMEG_clean_sbu_1, # of connection points: 4
#     Node 26, Type 0, BuildingBlock: ICAMEG_clean_sbu_1, # of connection points: 4
#     Node 27, Type 0, BuildingBlock: ICAMEG_clean_sbu_1, # of connection points: 4
#     Node 28, Type 0, BuildingBlock: ICAMEG_clean_sbu_1, # of connection points: 4
#     Node 29, Type 0, BuildingBlock: ICAMEG_clean_sbu_1, # of connection points: 4
#     Node 30, Type 0, BuildingBlock: ICAMEG_clean_sbu_1, # of connection points: 4
#     Node 31, Type 0, BuildingBlock: ICAMEG_clean_sbu_1, # of connection points: 4
#     Edge 32, Type (0, 0), BuildingBlock: CIFDUS_clean_linker_0, # of connection points: 2
#     Edge 33, Type (0, 0), BuildingBlock: CIFDUS_clean_linker_0, # of connection points: 2
#     Edge 34, Type (0, 0), BuildingBlock: CIFDUS_clean_linker_0, # of connection points: 2
#     Edge 35, Type (0, 0), BuildingBlock: CIFDUS_clean_linker_0, # of connection points: 2
#     Edge 36, Type (0, 0), BuildingBlock: CIFDUS_clean_linker_0, # of connection points: 2
#     Edge 37, Type (0, 0), BuildingBlock: CIFDUS_clean_linker_0, # of connection points: 2
#     Edge 38, Type (0, 0), BuildingBlock: CIFDUS_clean_linker_0, # of connection points: 2
#     Edge 39, Type (0, 0), BuildingBlock: CIFDUS_clean_linker_0, # of connection points: 2
#     Edge 40, Type (0, 0), BuildingBlock: CIFDUS_clean_linker_0, # of connection points: 2
#     Edge 41, Type (0, 0), BuildingBlock: CIFDUS_clean_linker_0, # of connection points: 2
#     Edge 42, Type (0, 0), BuildingBlock: CIFDUS_clean_linker_0, # of connection points: 2
#     Edge 43, Type (0, 0), BuildingBlock: CIFDUS_clean_linker_0, # of connection points: 2
#     Edge 44, Type (0, 0), BuildingBlock: CIFDUS_clean_linker_0, # of connection points: 2
#     Edge 45, Type (0, 0), BuildingBlock: CIFDUS_clean_linker_0, # of connection points: 2
#     Edge 46, Type (0, 0), BuildingBlock: CIFDUS_clean_linker_0, # of connection points: 2
#     Edge 47, Type (0, 0), BuildingBlock: CIFDUS_clean_linker_0, # of connection points: 2
#     Edge 48, Type (0, 0), BuildingBlock: CIFDUS_clean_linker_0, # of connection points: 2
#     Edge 49, Type (0, 0), BuildingBlock: CIFDUS_clean_linker_0, # of connection points: 2
#     Edge 50, Type (0, 0), BuildingBlock: CIFDUS_clean_linker_0, # of connection points: 2
#     Edge 51, Type (0, 0), BuildingBlock: CIFDUS_clean_linker_0, # of connection points: 2
#     Edge 52, Type (0, 0), BuildingBlock: CIFDUS_clean_linker_0, # of connection points: 2
#     Edge 53, Type (0, 0), BuildingBlock: CIFDUS_clean_linker_0, # of connection points: 2
#     Edge 54, Type (0, 0), BuildingBlock: CIFDUS_clean_linker_0, # of connection points: 2
#     Edge 55, Type (0, 0), BuildingBlock: CIFDUS_clean_linker_0, # of connection points: 2
#     Edge 56, Type (0, 0), BuildingBlock: CIFDUS_clean_linker_0, # of connection points: 2
#     Edge 57, Type (0, 0), BuildingBlock: CIFDUS_clean_linker_0, # of connection points: 2
#     Edge 58, Type (0, 0), BuildingBlock: CIFDUS_clean_linker_0, # of connection points: 2
#     Edge 59, Type (0, 0), BuildingBlock: CIFDUS_clean_linker_0, # of connection points: 2
#     Edge 60, Type (0, 0), BuildingBlock: CIFDUS_clean_linker_0, # of connection points: 2
#     Edge 61, Type (0, 0), BuildingBlock: CIFDUS_clean_linker_0, # of connection points: 2
#     Edge 62, Type (0, 0), BuildingBlock: CIFDUS_clean_linker_0, # of connection points: 2
#     Edge 63, Type (0, 0), BuildingBlock: CIFDUS_clean_linker_0, # of connection points: 2
#     Edge 64, Type (0, 0), BuildingBlock: CIFDUS_clean_linker_0, # of connection points: 2
#     Edge 65, Type (0, 0), BuildingBlock: CIFDUS_clean_linker_0, # of connection points: 2
#     Edge 66, Type (0, 0), BuildingBlock: CIFDUS_clean_linker_0, # of connection points: 2
#     Edge 67, Type (0, 0), BuildingBlock: CIFDUS_clean_linker_0, # of connection points: 2
#     Edge 68, Type (0, 0), BuildingBlock: CIFDUS_clean_linker_0, # of connection points: 2
#     Edge 69, Type (0, 0), BuildingBlock: CIFDUS_clean_linker_0, # of connection points: 2
#     Edge 70, Type (0, 0), BuildingBlock: CIFDUS_clean_linker_0, # of connection points: 2
#     Edge 71, Type (0, 0), BuildingBlock: CIFDUS_clean_linker_0, # of connection points: 2
#     Edge 72, Type (0, 0), BuildingBlock: CIFDUS_clean_linker_0, # of connection points: 2
#     Edge 73, Type (0, 0), BuildingBlock: CIFDUS_clean_linker_0, # of connection points: 2
#     Edge 74, Type (0, 0), BuildingBlock: CIFDUS_clean_linker_0, # of connection points: 2
#     Edge 75, Type (0, 0), BuildingBlock: CIFDUS_clean_linker_0, # of connection points: 2
#     Edge 76, Type (0, 0), BuildingBlock: CIFDUS_clean_linker_0, # of connection points: 2
#     Edge 77, Type (0, 0), BuildingBlock: CIFDUS_clean_linker_0, # of connection points: 2
#     Edge 78, Type (0, 0), BuildingBlock: CIFDUS_clean_linker_0, # of connection points: 2
#     Edge 79, Type (0, 0), BuildingBlock: CIFDUS_clean_linker_0, # of connection points: 2
#     Edge 80, Type (0, 0), BuildingBlock: CIFDUS_clean_linker_0, # of connection points: 2
#     Edge 81, Type (0, 0), BuildingBlock: CIFDUS_clean_linker_0, # of connection points: 2
#     Edge 82, Type (0, 0), BuildingBlock: CIFDUS_clean_linker_0, # of connection points: 2
#     Edge 83, Type (0, 0), BuildingBlock: CIFDUS_clean_linker_0, # of connection points: 2
#     Edge 84, Type (0, 0), BuildingBlock: CIFDUS_clean_linker_0, # of connection points: 2
#     Edge 85, Type (0, 0), BuildingBlock: CIFDUS_clean_linker_0, # of connection points: 2
#     Edge 86, Type (0, 0), BuildingBlock: CIFDUS_clean_linker_0, # of connection points: 2
#     Edge 87, Type (0, 0), BuildingBlock: CIFDUS_clean_linker_0, # of connection points: 2
#     Edge 88, Type (0, 0), BuildingBlock: CIFDUS_clean_linker_0, # of connection points: 2
#     Edge 89, Type (0, 0), BuildingBlock: CIFDUS_clean_linker_0, # of connection points: 2
#     Edge 90, Type (0, 0), BuildingBlock: CIFDUS_clean_linker_0, # of connection points: 2
#     Edge 91, Type (0, 0), BuildingBlock: CIFDUS_clean_linker_0, # of connection points: 2
#     Edge 92, Type (0, 0), BuildingBlock: CIFDUS_clean_linker_0, # of connection points: 2
#     Edge 93, Type (0, 0), BuildingBlock: CIFDUS_clean_linker_0, # of connection points: 2
#     Edge 94, Type (0, 0), BuildingBlock: CIFDUS_clean_linker_0, # of connection points: 2
#     Edge 95, Type (0, 0), BuildingBlock: CIFDUS_clean_linker_0, # of connection points: 2
# Relax obj value: 0.064
# Max RMSD: 0.144
# Mean RMSD: 0.144
data_MOF--net-ukc--node1-ICAMEG_clean_sbu_1--edge1-CIFDUS_clean_linker_0
_symmetry_space_group_name_H-M    P1
_symmetry_Int_Tables_number       1
_symmetry_cell_setting            triclinic
loop_
_symmetry_equiv_pos_as_xyz
'x, y, z'
_cell_length_a     42.527237
_cell_length_b     42.544615
_cell_length_c     79.181011
_cell_angle_alpha  89.998391
_cell_angle_beta   89.969023
_cell_angle_gamma 90.209517
loop_
_atom_site_label
_atom_site_type_symbol
_atom_site_fract_x
_atom_site_fract_y
_atom_site_fract_z
_atom_type_partial_charge
Co0 Co 0.0676 0.41533 0.06069 0.0
Co1 Co 0.12595 0.36477 0.04753 0.0
O2 O 0.10214 0.40409 0.04535 0.0
C3 C 0.04584 0.43629 0.02617 0.0
O4 O 0.06474 0.41655 0.01855 0.0
C5 C 0.19188 0.38995 0.04681 0.0
O6 O 0.19573 0.3792 0.06221 0.0
O7 O 0.13532 0.37446 0.07179 0.0
O8 O 0.09005 0.39639 0.08024 0.0
H9 H 0.15791 0.2642 0.0759 0.0
H10 H 0.10146 0.46219 0.0396 0.0
O11 O 0.04366 0.43645 0.04217 0.0
H12 H 0.10632 0.50421 0.09754 0.0
H13 H 0.98247 0.48458 0.08468 0.0
H14 H 0.03393 0.38106 0.08779 0.0
H15 H 0.07839 0.45466 0.09157 0.0
H16 H 0.02702 0.47199 0.06599 0.0
O17 O 0.16505 0.38775 0.03966 0.0
H18 H 0.12784 0.31328 0.0727 0.0
H19 H 0.17542 0.33324 0.02674 0.0
H20 H 0.98975 0.39287 0.10692 0.0
H21 H 0.12909 0.51216 0.0449 0.0
H22 H 0.96365 0.44492 0.10541 0.0
H23 H 0.13182 0.53347 0.07406 0.0
O24 O 0.04639 0.37428 0.05573 0.0
H25 H 0.119 0.38824 0.98538 0.0
H26 H 0.10062 0.30845 0.02948 0.0
H27 H 0.08811 0.29591 0.99986 0.0
H28 H 0.09745 0.3359 0.97754 0.0
H29 H 0.13058 0.40005 0.01522 0.0
H30 H 0.20613 0.28447 0.02948 0.0
H31 H 0.19742 0.24953 0.0542 0.0
O32 O 0.08723 0.34098 0.05474 0.0
C33 C 0.11681 0.38437 0.08333 0.0
C34 C 0.16196 0.27925 0.06509 0.0
C35 C 0.18902 0.29063 0.03904 0.0
N36 N 0.14996 0.32621 0.0496 0.0
C37 C 0.14501 0.30708 0.06321 0.0
C38 C 0.17162 0.31827 0.03758 0.0
C39 C 0.18412 0.27103 0.05291 0.0
C40 C 0.10245 0.47122 0.05233 0.0
N41 N 0.08862 0.45512 0.06532 0.0
C42 C 0.11818 0.49958 0.05525 0.0
C43 C 0.11973 0.51151 0.07162 0.0
C44 C 0.1055 0.49508 0.08479 0.0
C45 C 0.08998 0.4668 0.08138 0.0
C46 C 0.99362 0.46179 0.08544 0.0
C47 C 0.02282 0.40384 0.08711 0.0
C48 C 0.01874 0.45445 0.0748 0.0
N49 N 0.03311 0.4258 0.07577 0.0
C50 C 0.99775 0.41036 0.09795 0.0
C51 C 0.9831 0.43955 0.09709 0.0
C52 C 0.05773 0.34646 0.05561 0.0
C53 C 0.11486 0.3706 0.99499 0.0
C54 C 0.10437 0.32616 0.01991 0.0
C55 C 0.09742 0.31883 1.00312 0.0
C56 C 0.10272 0.34125 0.9906 0.0
N57 N 0.11624 0.35502 0.02413 0.0
C58 C 0.12151 0.3771 0.01191 0.0
Co59 Co 0.86671 0.80811 0.31201 0.0
Co60 Co 0.90648 0.87437 0.29964 0.0
O61 O 0.87106 0.84502 0.2973 0.0
C62 C 0.83592 0.78967 0.27886 0.0
O63 O 0.84299 0.81676 0.27189 0.0
C64 C 0.87396 0.93628 0.2981 0.0
O65 O 0.88363 0.94175 0.31358 0.0
O66 O 0.89421 0.8818 0.32369 0.0
O67 O 0.88447 0.83207 0.33169 0.0
H68 H 0.99898 0.92246 0.32964 0.0
H69 H 0.81304 0.84153 0.29493 0.0
O70 O 0.84702 0.78236 0.2933 0.0
H71 H 0.77873 0.82585 0.35369 0.0
H72 H 0.8153 0.70967 0.3347 0.0
H73 H 0.90834 0.77897 0.33752 0.0
H74 H 0.83045 0.8072 0.34439 0.0
H75 H 0.8185 0.75725 0.31705 0.0
O76 O 0.87867 0.90946 0.29137 0.0
H77 H 0.9551 0.88512 0.32581 0.0
H78 H 0.93259 0.92703 0.27869 0.0
H79 H 0.90583 0.73185 0.35559 0.0
H80 H 0.76099 0.85981 0.30361 0.0
H81 H 0.85907 0.6968 0.35424 0.0
H82 H 0.74332 0.85216 0.33321 0.0
O83 O 0.90996 0.79413 0.30515 0.0
H84 H 0.88587 0.86184 0.23748 0.0
H85 H 0.96673 0.8588 0.282 0.0
H86 H 0.98169 0.84756 0.25257 0.0
H87 H 0.94113 0.84916 0.23003 0.0
H88 H 0.87186 0.87251 0.26713 0.0
H89 H 0.9761 0.96491 0.28204 0.0
H90 H 1.0097 0.96277 0.30766 0.0
O91 O 0.93549 0.84009 0.3072 0.0
C92 C 0.8896 0.86099 0.3351 0.0
C93 C 0.98447 0.92368 0.31843 0.0
C94 C 0.97163 0.94751 0.29172 0.0
N95 N 0.94112 0.90398 0.3021 0.0
C96 C 0.95956 0.90261 0.3162 0.0
C97 C 0.94695 0.92604 0.28992 0.0
C98 C 0.99048 0.94628 0.3061 0.0
C99 C 0.80567 0.83728 0.30772 0.0
N100 N 0.82494 0.8223 0.31894 0.0
C101 C 0.77605 0.84807 0.31262 0.0
C102 C 0.76618 0.84386 0.32923 0.0
C103 C 0.78602 0.82911 0.34071 0.0
C104 C 0.81544 0.8186 0.33534 0.0
C105 C 0.83579 0.72477 0.33541 0.0
C106 C 0.88779 0.76399 0.33694 0.0
C107 C 0.83784 0.75168 0.32536 0.0
N108 N 0.86354 0.77105 0.3263 0.0
C109 C 0.88656 0.73727 0.34717 0.0
C110 C 0.86034 0.71758 0.34639 0.0
C111 C 0.93543 0.81016 0.30618 0.0
C112 C 0.90375 0.86101 0.24719 0.0
C113 C 0.94885 0.85912 0.27234 0.0
C114 C 0.95751 0.85294 0.25566 0.0
C115 C 0.93475 0.85388 0.24302 0.0
N116 N 0.91837 0.86605 0.27635 0.0
C117 C 0.89596 0.86705 0.26401 0.0
Co118 Co 0.4496 0.60903 0.55994 0.0
Co119 Co 0.39409 0.66312 0.548 0.0
O120 O 0.4162 0.62299 0.54452 0.0
C121 C 0.46989 0.58355 0.5257 0.0
O122 O 0.4448 0.59379 0.51782 0.0
C123 C 0.33873 0.61966 0.54137 0.0
O124 O 0.34813 0.60018 0.55318 0.0
O125 O 0.38207 0.65009 0.57148 0.0
O126 O 0.42697 0.62717 0.57962 0.0
H127 H 0.36455 0.76027 0.58034 0.0
H128 H 0.4115 0.56548 0.53816 0.0
O129 O 0.47436 0.58946 0.54125 0.0
H130 H 0.40756 0.51935 0.59512 0.0
H131 H 0.53225 0.53541 0.58256 0.0
H132 H 0.48248 0.6393 0.58867 0.0
H133 H 0.43725 0.56803 0.58991 0.0
H134 H 0.48914 0.55122 0.56363 0.0
O135 O 0.35433 0.64464 0.53832 0.0
H136 H 0.39252 0.71043 0.57549 0.0
H137 H 0.3476 0.70007 0.52789 0.0
H138 H 0.52521 0.62418 0.60803 0.0
H139 H 0.38214 0.51654 0.54271 0.0
H140 H 0.55043 0.57192 0.60504 0.0
H141 H 0.37986 0.49302 0.57139 0.0
O142 O 0.47261 0.64937 0.55616 0.0
H143 H 0.40779 0.64745 0.48553 0.0
H144 H 0.42213 0.72128 0.53291 0.0
H145 H 0.4385 0.73713 0.50428 0.0
H146 H 0.43127 0.70011 0.48032 0.0
H147 H 0.39208 0.63244 0.51442 0.0
H148 H 0.31895 0.74966 0.5323 0.0
H149 H 0.32745 0.7802 0.55865 0.0
O150 O 0.43308 0.68392 0.55704 0.0
C151 C 0.40018 0.63894 0.58288 0.0
C152 C 0.36068 0.7472 0.56879 0.0
C153 C 0.33506 0.74122 0.54185 0.0
N154 N 0.37179 0.70235 0.55141 0.0
C155 C 0.37649 0.71897 0.56596 0.0
C156 C 0.35127 0.71308 0.53945 0.0
C157 C 0.33985 0.75836 0.55663 0.0
C158 C 0.41137 0.55537 0.5506 0.0
N159 N 0.42686 0.56965 0.56365 0.0
C160 C 0.39435 0.52762 0.55314 0.0
C161 C 0.39299 0.51448 0.56923 0.0
C162 C 0.4085 0.52925 0.58253 0.0
C163 C 0.42526 0.55697 0.5795 0.0
C164 C 0.52141 0.55823 0.58401 0.0
C165 C 0.49314 0.6164 0.58736 0.0
C166 C 0.49706 0.56739 0.57328 0.0
N167 N 0.48307 0.5961 0.57511 0.0
C168 C 0.51741 0.60802 0.59833 0.0
C169 C 0.53158 0.57871 0.59663 0.0
C170 C 0.46234 0.67745 0.55725 0.0
C171 C 0.41108 0.66378 0.49587 0.0
C172 C 0.4192 0.70491 0.5226 0.0
C173 C 0.42837 0.71408 0.50639 0.0
C174 C 0.42428 0.69332 0.49295 0.0
N175 N 0.40631 0.67587 0.52537 0.0
C176 C 0.4022 0.65542 0.51225 0.0
Co177 Co 0.65884 0.19571 0.81258 0.0
Co178 Co 0.60401 0.14003 0.8009 0.0
O179 O 0.64497 0.16134 0.79746 0.0
C180 C 0.68767 0.21346 0.77843 0.0
O181 O 0.6775 0.18807 0.77073 0.0
C182 C 0.6461 0.08805 0.7859 0.0
O183 O 0.67081 0.10636 0.78433 0.0
O184 O 0.61635 0.12922 0.82456 0.0
O185 O 0.63922 0.17442 0.83257 0.0
H186 H 0.50531 0.11519 0.83332 0.0
H187 H 0.70382 0.15672 0.79224 0.0
O188 O 0.68021 0.21907 0.79371 0.0
H189 H 0.74551 0.15536 0.85017 0.0
H190 H 0.73274 0.27902 0.83484 0.0
H191 H 0.62758 0.23079 0.84016 0.0
H192 H 0.6976 0.18494 0.84348 0.0
H193 H 0.71723 0.23482 0.81651 0.0
O194 O 0.62084 0.09828 0.79266 0.0
H195 H 0.55597 0.14176 0.82808 0.0
H196 H 0.56605 0.09267 0.78168 0.0
H197 H 0.64236 0.27467 0.85892 0.0
H198 H 0.75204 0.12742 0.79823 0.0
H199 H 0.69526 0.29912 0.85632 0.0
H200 H 0.77332 0.12641 0.82742 0.0
O201 O 0.6191 0.21908 0.80773 0.0
H202 H 0.62046 0.15466 0.73824 0.0
H203 H 0.5457 0.16581 0.78539 0.0
H204 H 0.52951 0.18122 0.75676 0.0
H205 H 0.56693 0.1755 0.73287 0.0
H206 H 0.63579 0.14002 0.76705 0.0
H207 H 0.51567 0.06533 0.78652 0.0
H208 H 0.48483 0.07663 0.81245 0.0
O209 O 0.58406 0.1799 0.80902 0.0
C210 C 0.62716 0.14765 0.83594 0.0
C211 C 0.51851 0.11008 0.82196 0.0
C212 C 0.52434 0.08207 0.79571 0.0
N213 N 0.56401 0.11885 0.80459 0.0
C214 C 0.54721 0.12509 0.81891 0.0
C215 C 0.55295 0.09754 0.79308 0.0
C216 C 0.50704 0.08843 0.81025 0.0
C217 C 0.71282 0.15692 0.80489 0.0
N218 N 0.69762 0.17293 0.81741 0.0
C219 C 0.74023 0.14003 0.80826 0.0
C220 C 0.75212 0.13941 0.82463 0.0
C221 C 0.73652 0.1556 0.83738 0.0
C222 C 0.70919 0.17222 0.83353 0.0
C223 C 0.70963 0.26853 0.83612 0.0
C224 C 0.65075 0.24112 0.83903 0.0
C225 C 0.70064 0.24357 0.82571 0.0
N226 N 0.67156 0.23003 0.82733 0.0
C227 C 0.65893 0.26604 0.84965 0.0
C228 C 0.6886 0.27978 0.84817 0.0
C229 C 0.59081 0.20908 0.80871 0.0
C230 C 0.60383 0.157 0.74851 0.0
C231 C 0.56221 0.16319 0.77512 0.0
C232 C 0.55285 0.17196 0.7589 0.0
C233 C 0.57383 0.16876 0.74551 0.0
N234 N 0.59158 0.15129 0.77799 0.0
C235 C 0.61235 0.14846 0.76492 0.0
Co236 Co 0.07453 0.60989 0.45848 0.0
Co237 Co 0.13008 0.66479 0.47048 0.0
O238 O 0.10887 0.62375 0.47367 0.0
C239 C 0.05663 0.58254 0.49281 0.0
O240 O 0.079 0.59813 0.5006 0.0
C241 C 0.1827 0.62216 0.48431 0.0
O242 O 0.16444 0.59736 0.48571 0.0
O243 O 0.14046 0.65336 0.44665 0.0
O244 O 0.0953 0.63053 0.43863 0.0
H245 H 0.15367 0.76459 0.43885 0.0
H246 H 0.11187 0.56459 0.479 0.0
O247 O 0.05171 0.58692 0.47712 0.0
H248 H 0.11844 0.52529 0.42062 0.0
H249 H 0.99396 0.5346 0.43471 0.0
H250 H 0.03806 0.64181 0.43166 0.0
H251 H 0.08762 0.57252 0.42725 0.0
H252 H 0.03781 0.55037 0.45322 0.0
O253 O 0.17214 0.6478 0.47817 0.0
H254 H 0.12745 0.71366 0.44379 0.0
H255 H 0.17781 0.70227 0.4897 0.0
H256 H 0.99452 0.62684 0.41272 0.0
H257 H 0.14239 0.51694 0.47306 0.0
H258 H 0.97212 0.57292 0.41419 0.0
H259 H 0.14602 0.49696 0.44366 0.0
O260 O 0.05067 0.64941 0.46364 0.0
H261 H 0.11871 0.64682 0.53321 0.0
H262 H 0.10376 0.72216 0.48668 0.0
H263 H 0.08929 0.73745 0.51561 0.0
H264 H 0.09691 0.69973 0.53918 0.0
H265 H 0.13232 0.63236 0.50411 0.0
H266 H 0.2048 0.75293 0.48515 0.0
H267 H 0.19268 0.78455 0.45961 0.0
O268 O 0.08985 0.68467 0.46286 0.0
C269 C 0.12189 0.64296 0.43525 0.0
C270 C 0.15912 0.75106 0.45004 0.0
C271 C 0.18785 0.74449 0.47601 0.0
N272 N 0.151 0.70498 0.46703 0.0
C273 C 0.14431 0.7222 0.45292 0.0
C274 C 0.17257 0.71574 0.47848 0.0
C275 C 0.18102 0.76223 0.46169 0.0
C276 C 0.11304 0.55613 0.4662 0.0
N277 N 0.09799 0.57171 0.45348 0.0
C278 C 0.13051 0.52907 0.4629 0.0
C279 C 0.13258 0.5179 0.44641 0.0
C280 C 0.11717 0.53381 0.43348 0.0
C281 C 0.09995 0.56079 0.43728 0.0
C282 C 1.00348 0.55819 0.43396 0.0
C283 C 0.02855 0.61825 0.43234 0.0
C284 C 0.0282 0.56733 0.4445 0.0
N285 N 0.04051 0.59703 0.44357 0.0
C286 C 1.00385 0.60993 0.4216 0.0
C287 C 0.99127 0.57968 0.42244 0.0
C288 C 0.06065 0.6778 0.4629 0.0
C289 C 0.11549 0.66356 0.52307 0.0
C290 C 0.10711 0.7055 0.4968 0.0
C291 C 0.0989 0.71436 0.5132 0.0
C292 C 0.10319 0.69321 0.52641 0.0
N293 N 0.11944 0.67644 0.49359 0.0
C294 C 0.12343 0.65554 0.5065 0.0
Co295 Co 0.65973 0.82627 0.70769 0.0
Co296 Co 0.60367 0.87977 0.71919 0.0
O297 O 0.64455 0.85943 0.72292 0.0
C298 C 0.68272 0.80672 0.74231 0.0
O299 O 0.66348 0.82592 0.75009 0.0
C300 C 0.64605 0.93561 0.72606 0.0
O301 O 0.66651 0.92551 0.7149 0.0
O302 O 0.61651 0.89163 0.69566 0.0
O303 O 0.63936 0.84656 0.68795 0.0
H304 H 0.50569 0.90408 0.68633 0.0
H305 H 0.7031 0.86337 0.72938 0.0
O306 O 0.6821 0.80409 0.72634 0.0
H307 H 0.74448 0.87561 0.67161 0.0
H308 H 0.73854 0.74967 0.684 0.0
H309 H 0.62989 0.78914 0.68035 0.0
H310 H 0.6977 0.84294 0.67702 0.0
H311 H 0.72061 0.79227 0.70272 0.0
O312 O 0.62055 0.92049 0.72853 0.0
H313 H 0.55664 0.87841 0.69158 0.0
H314 H 0.56469 0.92547 0.73871 0.0
H315 H 0.647 0.74682 0.66121 0.0
H316 H 0.75032 0.89575 0.72463 0.0
H317 H 0.70167 0.72675 0.66298 0.0
H318 H 0.77131 0.90221 0.69555 0.0
O319 O 0.62074 0.8013 0.71224 0.0
H320 H 0.61845 0.86992 0.78194 0.0
H321 H 0.54663 0.84956 0.73432 0.0
H322 H 0.53085 0.83389 0.76305 0.0
H323 H 0.56684 0.84416 0.78715 0.0
H324 H 0.63351 0.88474 0.75294 0.0
H325 H 0.51396 0.95185 0.73389 0.0
H326 H 0.48402 0.94111 0.70758 0.0
O327 O 0.58471 0.8395 0.71048 0.0
C328 C 0.62741 0.87309 0.68439 0.0
C329 C 0.51848 0.90891 0.69786 0.0
C330 C 0.52315 0.93575 0.72454 0.0
N331 N 0.56359 0.90031 0.71546 0.0
C332 C 0.54733 0.8944 0.70092 0.0
C333 C 0.55193 0.92081 0.72717 0.0
C334 C 0.50635 0.9297 0.70978 0.0
C335 C 0.71216 0.86571 0.7167 0.0
N336 N 0.69746 0.85116 0.70348 0.0
C337 C 0.73889 0.88425 0.71408 0.0
C338 C 0.75062 0.88792 0.69777 0.0
C339 C 0.73555 0.87305 0.68434 0.0
C340 C 0.70886 0.85472 0.68745 0.0
C341 C 0.71465 0.75818 0.68312 0.0
C342 C 0.65375 0.78063 0.68117 0.0
C343 C 0.70429 0.78218 0.69376 0.0
N344 N 0.67419 0.7932 0.69267 0.0
C345 C 0.66329 0.75662 0.67031 0.0
C346 C 0.69396 0.74535 0.67132 0.0
C347 C 0.59225 0.81046 0.71089 0.0
C348 C 0.60257 0.86529 0.77155 0.0
C349 C 0.5626 0.85375 0.74467 0.0
C350 C 0.55345 0.845 0.76095 0.0
C351 C 0.57363 0.85081 0.77446 0.0
N352 N 0.59108 0.86786 0.7419 0.0
C353 C 0.61093 0.87371 0.7551 0.0
Co354 Co 0.44604 0.39963 0.95735 0.0
Co355 Co 0.38093 0.35585 0.96705 0.0
O356 O 0.40844 0.39242 0.97157 0.0
C357 C 0.46263 0.43097 0.99091 0.0
O358 O 0.43512 0.4249 0.9977 0.0
C359 C 0.33648 0.40408 0.98319 0.0
O360 O 0.35909 0.42415 0.98659 0.0
O361 O 0.37431 0.37176 0.94359 0.0
O362 O 0.42456 0.38138 0.93703 0.0
H363 H 0.34212 0.26576 0.93156 0.0
H364 H 0.41008 0.45156 0.97454 0.0
O365 O 0.47003 0.41958 0.97656 0.0
H366 H 0.42464 0.48716 0.91597 0.0
H367 H 0.54218 0.45786 0.93657 0.0
H368 H 0.47928 0.36064 0.932 0.0
H369 H 0.4455 0.43625 0.92514 0.0
H370 H 0.49395 0.45109 0.95345 0.0
O371 O 0.34201 0.37896 0.9749 0.0
H372 H 0.3767 0.31042 0.93873 0.0
H373 H 0.3259 0.3254 0.98424 0.0
H374 H 0.52712 0.3667 0.91472 0.0
H375 H 0.38945 0.50277 0.96603 0.0
H376 H 0.55897 0.41558 0.91694 0.0
H377 H 0.39656 0.5211 0.93651 0.0
O378 O 0.46195 0.35711 0.96395 0.0
H379 H 0.3971 0.36476 0.03016 0.0
H380 H 0.39232 0.29237 0.98173 0.0
H381 H 0.40255 0.27131 0.01007 0.0
H382 H 0.40474 0.30754 0.03463 0.0
H383 H 0.38757 0.38477 1.00165 0.0
H384 H 0.29058 0.28114 0.97744 0.0
H385 H 0.29868 0.25085 0.95099 0.0
O386 O 0.4177 0.32996 0.95931 0.0
C387 C 0.39594 0.37725 0.93276 0.0
C388 C 0.33841 0.27872 0.94316 0.0
C389 C 0.30945 0.28739 0.96888 0.0
N390 N 0.35351 0.32044 0.96194 0.0
C391 C 0.35798 0.30399 0.94731 0.0
C392 C 0.32946 0.31253 0.97262 0.0
C393 C 0.31402 0.27039 0.95405 0.0
C394 C 0.41405 0.45924 0.96182 0.0
N395 N 0.42997 0.44081 0.95059 0.0
C396 C 0.40195 0.48837 0.957 0.0
C397 C 0.40586 0.49861 0.94043 0.0
C398 C 0.4216 0.4796 0.92892 0.0
C399 C 0.43338 0.45064 0.93422 0.0
C400 C 0.52849 0.43646 0.93548 0.0
C401 C 0.49286 0.38209 0.93298 0.0
C402 C 0.50121 0.4324 0.94507 0.0
N403 N 0.48363 0.40552 0.94368 0.0
C404 C 0.52 0.38534 0.92319 0.0
C405 C 0.53788 0.41274 0.92446 0.0
C406 C 0.44736 0.33112 0.96169 0.0
C407 C 0.3958 0.34866 0.0196 0.0
C408 C 0.39307 0.30841 0.99226 0.0
C409 C 0.39893 0.29628 0.00833 0.0
C410 C 0.40017 0.31658 0.0221 0.0
N411 N 0.3882 0.33989 0.98987 0.0
C412 C 0.39001 0.35992 1.00333 0.0
Co413 Co 0.86589 0.18573 0.20985 0.0
Co414 Co 0.91583 0.12462 0.21817 0.0
O415 O 0.87804 0.14895 0.22326 0.0
C416 C 0.84841 0.23284 0.23582 0.0
O417 O 0.86887 0.25237 0.22908 0.0
C418 C 0.86858 0.07732 0.23235 0.0
O419 O 0.84732 0.09912 0.23469 0.0
O420 O 0.90104 0.11873 0.19441 0.0
O421 O 0.88316 0.1671 0.18857 0.0
H422 H 0.00987 0.09602 0.18296 0.0
H423 H 0.81815 0.15316 0.23093 0.0
O424 O 0.84713 0.20446 0.23075 0.0
H425 H 0.77592 0.1496 0.17301 0.0
H426 H 0.79266 0.27194 0.19079 0.0
H427 H 0.898 0.22536 0.18436 0.0
H428 H 0.82637 0.17592 0.17897 0.0
H429 H 0.80763 0.22518 0.20727 0.0
O430 O 0.89473 0.08381 0.22517 0.0
H431 H 0.96277 0.12659 0.19046 0.0
H432 H 0.94895 0.07024 0.23416 0.0
H433 H 0.88395 0.2721 0.16762 0.0
H434 H 0.76726 0.12714 0.22566 0.0
H435 H 0.83096 0.29573 0.17079 0.0
H436 H 0.74585 0.12507 0.1965 0.0
O437 O 0.90782 0.20575 0.21464 0.0
H438 H 0.90477 0.13421 0.28154 0.0
H439 H 0.97793 0.14033 0.23341 0.0
H440 H 0.99776 0.14961 0.26214 0.0
H441 H 0.96116 0.1463 0.28652 0.0
H442 H 0.88585 0.12573 0.25267 0.0
H443 H 0.99571 0.03887 0.22701 0.0
H444 H 0.02662 0.05177 0.20129 0.0
O445 O 0.93893 0.16374 0.21139 0.0
C446 C 0.89235 0.13992 0.18395 0.0
C447 C 0.99661 0.09018 0.19421 0.0
C448 C 0.98863 0.05807 0.21891 0.0
N449 N 0.95306 0.10026 0.21272 0.0
C450 C 0.96993 0.10745 0.19854 0.0
C451 C 0.96205 0.07583 0.22284 0.0
C452 C 1.00598 0.06534 0.20449 0.0
C453 C 0.80906 0.15237 0.2182 0.0
N454 N 0.82561 0.16562 0.20521 0.0
C455 C 0.78019 0.13759 0.2153 0.0
C456 C 0.76821 0.13642 0.19894 0.0
C457 C 0.7851 0.15011 0.18576 0.0
C458 C 0.81388 0.16469 0.18916 0.0
C459 C 0.81584 0.26187 0.18931 0.0
C460 C 0.8749 0.2355 0.18583 0.0
C461 C 0.82447 0.23539 0.19861 0.0
N462 N 0.85374 0.22255 0.19683 0.0
C463 C 0.86707 0.26197 0.17631 0.0
C464 C 0.83733 0.27521 0.17809 0.0
C465 C 0.93498 0.19337 0.21271 0.0
C466 C 0.92105 0.13529 0.27104 0.0
C467 C 0.96177 0.13863 0.24388 0.0
C468 C 0.97319 0.14399 0.26016 0.0
C469 C 0.95266 0.14216 0.27383 0.0
N470 N 0.93082 0.13125 0.24121 0.0
C471 C 0.91048 0.1301 0.25457 0.0
Co472 Co 0.94398 0.6137 0.95659 0.0
Co473 Co 0.88696 0.66719 0.96756 0.0
O474 O 0.90928 0.62726 0.97149 0.0
C475 C 0.96338 0.59192 0.99151 0.0
O476 O 0.94416 0.61151 0.99901 0.0
C477 C 0.83704 0.6223 0.98167 0.0
O478 O 0.85738 0.59944 0.98344 0.0
O479 O 0.87759 0.65411 0.94384 0.0
O480 O 0.92382 0.6333 0.93648 0.0
H481 H 0.86144 0.76433 0.93423 0.0
H482 H 0.90966 0.56723 0.97773 0.0
O483 O 0.96621 0.59202 0.97554 0.0
H484 H 0.90006 0.52761 0.9195 0.0
H485 H 0.02517 0.53872 0.93373 0.0
H486 H 0.98126 0.6456 0.92996 0.0
H487 H 0.92999 0.57593 0.92552 0.0
H488 H 0.98086 0.55447 0.95188 0.0
O489 O 0.84527 0.64856 0.97517 0.0
H490 H 0.88911 0.71474 0.94021 0.0
H491 H 0.83709 0.70347 0.98565 0.0
H492 H 0.02531 0.63068 0.91141 0.0
H493 H 0.88001 0.51845 0.9724 0.0
H494 H 0.04761 0.57691 0.91323 0.0
H495 H 0.87487 0.49836 0.94308 0.0
O496 O 0.96686 0.65374 0.96157 0.0
H497 H 0.89697 0.6536 0.03076 0.0
H498 H 0.91042 0.72656 0.98298 0.0
H499 H 0.9232 0.7444 0.01171 0.0
H500 H 0.91628 0.7079 0.03592 0.0
H501 H 0.88521 0.63657 1.00187 0.0
H502 H 0.80863 0.75278 0.98006 0.0
H503 H 0.82086 0.78365 0.95424 0.0
O504 O 0.92713 0.68817 0.96006 0.0
C505 C 0.89693 0.64423 0.93273 0.0
C506 C 0.85595 0.75112 0.94555 0.0
C507 C 0.82628 0.74461 0.97125 0.0
N508 N 0.86485 0.70627 0.96329 0.0
C509 C 0.87159 0.72305 0.94902 0.0
C510 C 0.84239 0.71663 0.97431 0.0
C511 C 0.83316 0.76193 0.95677 0.0
C512 C 0.90763 0.55872 0.96495 0.0
N513 N 0.92121 0.57487 0.95191 0.0
C514 C 0.89076 0.53104 0.962 0.0
C515 C 0.88786 0.51979 0.94555 0.0
C516 C 0.90191 0.53623 0.93232 0.0
C517 C 0.91858 0.56383 0.93577 0.0
C518 C 0.0157 0.56224 0.93283 0.0
C519 C 0.99075 0.62212 0.93081 0.0
C520 C 0.99071 0.57136 0.94315 0.0
N521 N 0.97847 0.60097 0.94203 0.0
C522 C 0.01573 0.61382 0.92028 0.0
C523 C 0.02825 0.58366 0.92132 0.0
C524 C 0.95647 0.68186 0.96052 0.0
C525 C 0.89983 0.66983 0.02034 0.0
C526 C 0.90743 0.71039 0.99337 0.0
C527 C 0.91465 0.72071 0.00965 0.0
C528 C 0.91074 0.70025 0.02322 0.0
N529 N 0.89643 0.68056 0.99059 0.0
C530 C 0.89286 0.66035 1.00386 0.0
Co531 Co 0.15251 0.19267 0.70461 0.0
Co532 Co 0.10562 0.12921 0.71477 0.0
O533 O 0.14328 0.15561 0.71897 0.0
C534 C 0.18014 0.21099 0.73884 0.0
O535 O 0.17379 0.18374 0.74584 0.0
C536 C 0.15247 0.08198 0.73048 0.0
O537 O 0.17435 0.10297 0.73367 0.0
O538 O 0.12016 0.12154 0.69108 0.0
O539 O 0.13638 0.17015 0.68413 0.0
H540 H 0.01187 0.09365 0.681 0.0
H541 H 0.20127 0.156 0.72384 0.0
O542 O 0.17042 0.21741 0.72403 0.0
H543 H 0.24537 0.16987 0.6669 0.0
H544 H 0.21355 0.28777 0.68472 0.0
H545 H 0.11704 0.22464 0.67745 0.0
H546 H 0.19373 0.19177 0.674 0.0
H547 H 0.20462 0.24033 0.70192 0.0
O548 O 0.1274 0.08957 0.72262 0.0
H549 H 0.05816 0.12659 0.6873 0.0
H550 H 0.0739 0.07578 0.73269 0.0
H551 H 0.12535 0.27165 0.65979 0.0
H552 H 0.25313 0.13433 0.71741 0.0
H553 H 0.17386 0.30362 0.66338 0.0
H554 H 0.27572 0.14105 0.68871 0.0
O555 O 0.10975 0.21004 0.70965 0.0
H556 H 0.11731 0.14452 0.77775 0.0
H557 H 0.04345 0.14498 0.72987 0.0
H558 H 0.02393 0.15664 0.7584 0.0
H559 H 0.06089 0.15625 0.78267 0.0
H560 H 0.13584 0.13352 0.74904 0.0
H561 H 0.02797 0.04211 0.72678 0.0
H562 H 0.9965 0.051 0.70081 0.0
O563 O 0.08096 0.16638 0.70694 0.0
C564 C 0.12856 0.14211 0.68017 0.0
C565 C 0.02541 0.08951 0.69235 0.0
C566 C 0.03447 0.06056 0.71803 0.0
N567 N 0.06892 0.10309 0.71029 0.0
C568 C 0.05168 0.1081 0.69599 0.0
C569 C 0.0606 0.07962 0.72125 0.0
C570 C 0.01681 0.06558 0.70347 0.0
C571 C 0.21075 0.15967 0.71144 0.0
N572 N 0.1942 0.17582 0.69948 0.0
C573 C 0.24026 0.14704 0.70781 0.0
C574 C 0.2529 0.15074 0.69171 0.0
C575 C 0.23589 0.16687 0.67948 0.0
C576 C 0.20647 0.17918 0.6836 0.0
C577 C 0.19232 0.27402 0.68302 0.0
C578 C 0.13836 0.23824 0.679 0.0
C579 C 0.18702 0.2472 0.6928 0.0
N580 N 0.16037 0.22952 0.69064 0.0
C581 C 0.14287 0.26492 0.669 0.0
C582 C 0.17007 0.28288 0.67104 0.0
C583 C 0.0833 0.19615 0.7079 0.0
C584 C 0.10088 0.1444 0.76731 0.0
C585 C 0.05979 0.1446 0.74029 0.0
C586 C 0.04853 0.15128 0.75646 0.0
C587 C 0.06926 0.15107 0.77006 0.0
N588 N 0.09079 0.13757 0.73767 0.0
C589 C 0.11127 0.13784 0.75095 0.0
Co590 Co 0.57428 0.40774 0.4511 0.0
Co591 Co 0.62987 0.35487 0.46436 0.0
O592 O 0.60715 0.3948 0.46704 0.0
C593 C 0.55274 0.43428 0.4848 0.0
O594 O 0.57766 0.42425 0.49292 0.0
C595 C 0.68498 0.39877 0.47074 0.0
O596 O 0.67714 0.41639 0.45781 0.0
O597 O 0.64285 0.36705 0.4409 0.0
O598 O 0.59805 0.38913 0.4319 0.0
H599 H 0.66225 0.25665 0.43378 0.0
H600 H 0.61167 0.45219 0.47272 0.0
O601 O 0.54856 0.42779 0.46929 0.0
H602 H 0.61587 0.49709 0.41549 0.0
H603 H 0.49124 0.47906 0.42677 0.0
H604 H 0.54316 0.37594 0.42229 0.0
H605 H 0.5865 0.44833 0.4209 0.0
H606 H 0.53385 0.46471 0.44635 0.0
O607 O 0.66876 0.37447 0.47442 0.0
H608 H 0.63336 0.30629 0.43756 0.0
H609 H 0.67603 0.31968 0.48554 0.0
H610 H 0.50097 0.38959 0.40228 0.0
H611 H 0.6407 0.50122 0.46794 0.0
H612 H 0.47467 0.44146 0.40446 0.0
H613 H 0.64313 0.52414 0.43913 0.0
O614 O 0.55164 0.36727 0.4551 0.0
H615 H 0.61312 0.37258 0.52646 0.0
H616 H 0.6016 0.29703 0.47965 0.0
H617 H 0.58406 0.28201 0.5082 0.0
H618 H 0.58986 0.31989 0.53188 0.0
H619 H 0.63003 0.38675 0.49765 0.0
H620 H 0.70557 0.27032 0.48221 0.0
H621 H 0.69868 0.23835 0.45621 0.0
O622 O 0.59161 0.33317 0.45499 0.0
C623 C 0.62516 0.37756 0.42913 0.0
C624 C 0.66542 0.27034 0.44518 0.0
C625 C 0.68977 0.27804 0.47235 0.0
N626 N 0.6529 0.31585 0.46177 0.0
C627 C 0.64909 0.29846 0.44741 0.0
C628 C 0.67304 0.30604 0.47413 0.0
C629 C 0.68587 0.2601 0.45776 0.0
C630 C 0.61189 0.46199 0.46021 0.0
N631 N 0.59666 0.44728 0.4472 0.0
C632 C 0.62871 0.48981 0.45755 0.0
C633 C 0.63015 0.50261 0.44139 0.0
C634 C 0.61489 0.48744 0.42813 0.0
C635 C 0.59832 0.45966 0.43128 0.0
C636 C 0.50256 0.4564 0.42567 0.0
C637 C 0.53204 0.39868 0.42324 0.0
C638 C 0.52662 0.44807 0.43678 0.0
N639 N 0.54123 0.41958 0.43539 0.0
C640 C 0.50807 0.40623 0.41191 0.0
C641 C 0.49329 0.43531 0.41315 0.0
C642 C 0.56227 0.33927 0.45442 0.0
C643 C 0.61045 0.35587 0.51625 0.0
C644 C 0.60392 0.31377 0.48983 0.0
C645 C 0.59409 0.30507 0.506 0.0
C646 C 0.59738 0.32632 0.51928 0.0
N647 N 0.61668 0.34283 0.48694 0.0
C648 C 0.62001 0.36376 0.49991 0.0
Co649 Co 0.36278 0.8288 0.20911 0.0
Co650 Co 0.41089 0.8916 0.21846 0.0
O651 O 0.37292 0.86616 0.22307 0.0
C652 C 0.33827 0.81258 0.24423 0.0
O653 O 0.35284 0.8366 0.2511 0.0
C654 C 0.364 0.94039 0.2324 0.0
O655 O 0.34167 0.91981 0.23551 0.0
O656 O 0.39656 0.89813 0.19472 0.0
O657 O 0.38053 0.84934 0.18837 0.0
H658 H 0.50483 0.92357 0.18384 0.0
H659 H 0.31425 0.86366 0.22876 0.0
O660 O 0.3426 0.80602 0.2287 0.0
H661 H 0.27266 0.85816 0.1708 0.0
H662 H 0.29652 0.73793 0.18846 0.0
H663 H 0.3984 0.79286 0.18345 0.0
H664 H 0.32321 0.8336 0.17793 0.0
H665 H 0.30742 0.78549 0.20526 0.0
O666 O 0.38969 0.93202 0.22539 0.0
H667 H 0.45786 0.89199 0.19074 0.0
H668 H 0.44373 0.94535 0.23545 0.0
H669 H 0.38828 0.74568 0.16619 0.0
H670 H 0.26333 0.88794 0.22234 0.0
H671 H 0.33707 0.71781 0.16866 0.0
H672 H 0.24215 0.88545 0.19314 0.0
O673 O 0.40503 0.81023 0.21464 0.0
H674 H 0.39869 0.88357 0.28179 0.0
H675 H 0.47238 0.87493 0.23404 0.0
H676 H 0.49138 0.86523 0.26288 0.0
H677 H 0.45449 0.86972 0.28708 0.0
H678 H 0.38064 0.89244 0.25277 0.0
H679 H 0.49036 0.97769 0.22892 0.0
H680 H 0.52137 0.9668 0.20299 0.0
O681 O 0.43478 0.85332 0.21147 0.0
C682 C 0.38854 0.8771 0.18403 0.0
C683 C 0.49155 0.92851 0.19519 0.0
C684 C 0.4834 0.95891 0.22048 0.0
N685 N 0.44805 0.9167 0.2135 0.0
C686 C 0.46494 0.91067 0.19919 0.0
C687 C 0.45692 0.94058 0.22407 0.0
C688 C 0.5008 0.95278 0.20593 0.0
C689 C 0.30532 0.8622 0.21606 0.0
N690 N 0.32207 0.84724 0.20372 0.0
C691 C 0.27639 0.87613 0.21248 0.0
C692 C 0.26454 0.87477 0.1961 0.0
C693 C 0.28167 0.85952 0.18357 0.0
C694 C 0.3105 0.84588 0.18763 0.0
C695 C 0.31898 0.7498 0.18731 0.0
C696 C 0.37601 0.78094 0.18458 0.0
C697 C 0.32539 0.7766 0.19691 0.0
N698 N 0.35361 0.79188 0.19545 0.0
C699 C 0.37044 0.7542 0.17478 0.0
C700 C 0.34171 0.73855 0.17619 0.0
C701 C 0.43185 0.82361 0.21284 0.0
C702 C 0.41507 0.88175 0.27137 0.0
C703 C 0.45605 0.87681 0.24441 0.0
C704 C 0.46703 0.87136 0.26077 0.0
C705 C 0.44634 0.87391 0.27433 0.0
N706 N 0.42536 0.88476 0.24156 0.0
C707 C 0.40497 0.88703 0.25483 0.0
Co708 Co 0.94549 0.4016 0.55715 0.0
Co709 Co 0.88319 0.35394 0.54709 0.0
O710 O 0.90879 0.39184 0.54265 0.0
C711 C 0.96296 0.42798 0.52256 0.0
O712 O 0.93915 0.41386 0.51522 0.0
C713 C 0.83528 0.4002 0.53172 0.0
O714 O 0.85604 0.42253 0.52896 0.0
O715 O 0.87528 0.36917 0.57059 0.0
O716 O 0.9245 0.3826 0.57743 0.0
H717 H 0.84894 0.26155 0.58222 0.0
H718 H 0.91136 0.45109 0.53787 0.0
O719 O 0.96887 0.42291 0.5381 0.0
H720 H 0.91319 0.48889 0.59665 0.0
H721 H 0.03477 0.46773 0.57975 0.0
H722 H 0.98098 0.365 0.58259 0.0
H723 H 0.9383 0.43888 0.58902 0.0
H724 H 0.98806 0.45712 0.56224 0.0
O725 O 0.84313 0.37483 0.53922 0.0
H726 H 0.88097 0.30824 0.57534 0.0
H727 H 0.8306 0.32032 0.52948 0.0
H728 H 0.02734 0.3748 0.60053 0.0
H729 H 0.8865 0.50148 0.54484 0.0
H730 H 0.05462 0.42645 0.59916 0.0
H731 H 0.88717 0.52076 0.57444 0.0
O732 O 0.96432 0.35978 0.55114 0.0
H733 H 0.89591 0.36461 0.48391 0.0
H734 H 0.90009 0.29185 0.53221 0.0
H735 H 0.91166 0.27213 0.50371 0.0
H736 H 0.90941 0.30855 0.47923 0.0
H737 H 0.88513 0.38336 0.51261 0.0
H738 H 0.79783 0.27398 0.53597 0.0
H739 H 0.80701 0.24414 0.56247 0.0
O740 O 0.92126 0.33019 0.55488 0.0
C741 C 0.89619 0.3763 0.58153 0.0
C742 C 0.84477 0.27431 0.57061 0.0
C743 C 0.81606 0.28132 0.54467 0.0
N744 N 0.85783 0.31695 0.55199 0.0
C745 C 0.86289 0.30074 0.56663 0.0
C746 C 0.83463 0.30763 0.5411 0.0
C747 C 0.82123 0.26457 0.55953 0.0
C748 C 0.91212 0.45926 0.55074 0.0
N749 N 0.92651 0.44183 0.56299 0.0
C750 C 0.89783 0.48786 0.55463 0.0
C751 C 0.89816 0.49865 0.57124 0.0
C752 C 0.91271 0.48076 0.58369 0.0
C753 C 0.92676 0.45228 0.57932 0.0
C754 C 0.02315 0.44509 0.58044 0.0
C755 C 0.99266 0.38757 0.58193 0.0
C756 C 0.99681 0.43886 0.57044 0.0
N757 N 0.98184 0.4104 0.57129 0.0
C758 C 0.01893 0.39297 0.59212 0.0
C759 C 0.03424 0.42194 0.59134 0.0
C760 C 0.95096 0.33297 0.55304 0.0
C761 C 0.89675 0.34843 0.49445 0.0
C762 C 0.89917 0.30797 0.52172 0.0
C763 C 0.90568 0.29659 0.50555 0.0
C764 C 0.9044 0.31701 0.49183 0.0
N765 N 0.89141 0.33881 0.52424 0.0
C766 C 0.8904 0.35894 0.51081 0.0
Co767 Co 0.36321 0.20768 0.30801 0.0
Co768 Co 0.4128 0.1498 0.29425 0.0
O769 O 0.37359 0.17383 0.29212 0.0
C770 C 0.33241 0.22741 0.27507 0.0
O771 O 0.34087 0.20172 0.26713 0.0
C772 C 0.36761 0.09515 0.28964 0.0
O773 O 0.352 0.10298 0.30331 0.0
O774 O 0.40121 0.13795 0.31791 0.0
O775 O 0.38308 0.18435 0.32703 0.0
H776 H 0.51095 0.11403 0.32374 0.0
H777 H 0.31578 0.16938 0.28857 0.0
O778 O 0.34179 0.233 0.29003 0.0
H779 H 0.27676 0.17087 0.34706 0.0
H780 H 0.29686 0.29398 0.33313 0.0
H781 H 0.39882 0.23932 0.33535 0.0
H782 H 0.3256 0.19844 0.33959 0.0
H783 H 0.30794 0.24995 0.31384 0.0
O784 O 0.39117 0.11145 0.28485 0.0
H785 H 0.46238 0.14489 0.32041 0.0
H786 H 0.44513 0.10183 0.27289 0.0
H787 H 0.38846 0.28294 0.35505 0.0
H788 H 0.26664 0.14214 0.29542 0.0
H789 H 0.33718 0.31062 0.35401 0.0
H790 H 0.24663 0.1426 0.32488 0.0
O791 O 0.40399 0.22874 0.30254 0.0
H792 H 0.39204 0.16582 0.23239 0.0
H793 H 0.47094 0.17494 0.27773 0.0
H794 H 0.48497 0.19107 0.24879 0.0
H795 H 0.44539 0.18647 0.22585 0.0
H796 H 0.37892 0.15028 0.26157 0.0
H797 H 0.49336 0.07032 0.27578 0.0
H798 H 0.52672 0.07641 0.30132 0.0
O799 O 0.43654 0.1875 0.30295 0.0
C800 C 0.39261 0.15646 0.32975 0.0
C801 C 0.49665 0.11123 0.31253 0.0
C802 C 0.48676 0.08666 0.28563 0.0
N803 N 0.45102 0.12533 0.29643 0.0
C804 C 0.46916 0.12869 0.31056 0.0
C805 C 0.45942 0.10452 0.28409 0.0
C806 C 0.50547 0.0901 0.29996 0.0
C807 C 0.30723 0.17059 0.30132 0.0
N808 N 0.32354 0.18658 0.31349 0.0
C809 C 0.27934 0.1547 0.30518 0.0
C810 C 0.26817 0.15487 0.3217 0.0
C811 C 0.28506 0.17071 0.33414 0.0
C812 C 0.31285 0.18633 0.3298 0.0
C813 C 0.31928 0.28207 0.33373 0.0
C814 C 0.37634 0.25105 0.3349 0.0
C815 C 0.32577 0.2572 0.32277 0.0
N816 N 0.35395 0.24184 0.32354 0.0
C817 C 0.37065 0.27582 0.34605 0.0
C818 C 0.3419 0.29138 0.34545 0.0
C819 C 0.43163 0.21709 0.30309 0.0
C820 C 0.40948 0.16799 0.24228 0.0
C821 C 0.45347 0.17319 0.26788 0.0
C822 C 0.46161 0.1822 0.25148 0.0
C823 C 0.43941 0.17958 0.23862 0.0
N824 N 0.42405 0.16189 0.27138 0.0
C825 C 0.40219 0.15921 0.25882 0.0
Co826 Co 0.56381 0.61916 0.05878 0.0
Co827 Co 0.62895 0.66094 0.04561 0.0
O828 O 0.60043 0.62453 0.04387 0.0
C829 C 0.54458 0.5877 0.0259 0.0
O830 O 0.57191 0.59338 0.01881 0.0
C831 C 0.69174 0.62978 0.04497 0.0
O832 O 0.69649 0.64025 0.06036 0.0
O833 O 0.63671 0.65084 0.06999 0.0
O834 O 0.58809 0.63664 0.07831 0.0
H835 H 0.67367 0.75739 0.07345 0.0
H836 H 0.59939 0.56695 0.04143 0.0
O837 O 0.5377 0.59978 0.04017 0.0
H838 H 0.58198 0.5298 0.09952 0.0
H839 H 0.46597 0.56639 0.08148 0.0
H840 H 0.535 0.65954 0.08497 0.0
H841 H 0.56284 0.58158 0.09072 0.0
H842 H 0.51327 0.57041 0.06364 0.0
O843 O 0.66503 0.63362 0.03793 0.0
H844 H 0.63755 0.71228 0.07048 0.0
H845 H 0.68126 0.68675 0.02429 0.0
H846 H 0.48818 0.65617 0.10325 0.0
H847 H 0.61823 0.51494 0.04961 0.0
H848 H 0.45326 0.60936 0.10156 0.0
H849 H 0.60969 0.49578 0.07887 0.0
O850 O 0.54871 0.66221 0.05244 0.0
H851 H 0.61684 0.6353 0.98398 0.0
H852 H 0.61197 0.71937 0.02671 0.0
H853 H 0.60034 0.73181 0.99698 0.0
H854 H 0.60286 0.68962 0.97535 0.0
H855 H 0.62789 0.62385 0.01391 0.0
H856 H 0.71796 0.73146 0.02678 0.0
H857 H 0.71431 0.76719 0.05151 0.0
O858 O 0.59387 0.68948 0.05256 0.0
C859 C 0.61653 0.64434 0.08148 0.0
C860 C 0.6756 0.74191 0.06266 0.0
C861 C 0.70047 0.72736 0.03647 0.0
N862 N 0.65755 0.69658 0.04736 0.0
C863 C 0.65526 0.71627 0.06093 0.0
C864 C 0.6797 0.70197 0.03517 0.0
C865 C 0.69839 0.7474 0.05034 0.0
C866 C 0.59465 0.55895 0.05403 0.0
N867 N 0.57878 0.57741 0.06531 0.0
C868 C 0.60581 0.52934 0.05868 0.0
C869 C 0.6011 0.51864 0.07509 0.0
C870 C 0.58556 0.53769 0.08666 0.0
C871 C 0.5747 0.56713 0.08155 0.0
C872 C 0.48103 0.5869 0.08235 0.0
C873 C 0.52011 0.63894 0.08426 0.0
C874 C 0.50777 0.58942 0.07219 0.0
N875 N 0.52709 0.61513 0.07331 0.0
C876 C 0.49354 0.63723 0.0946 0.0
C877 C 0.47392 0.61099 0.09362 0.0
C878 C 0.56391 0.68821 0.0527 0.0
C879 C 0.61562 0.65389 0.99329 0.0
C880 C 0.61272 0.7008 0.01744 0.0
C881 C 0.6063 0.70802 1.00059 0.0
C882 C 0.60776 0.68436 0.98846 0.0
N883 N 0.6204 0.67085 0.0221 0.0
C884 C 0.62189 0.64755 0.01026 0.0
Co885 Co 0.15827 0.81949 0.81079 0.0
Co886 Co 0.10615 0.87507 0.79641 0.0
O887 O 0.14615 0.85211 0.79448 0.0
C888 C 0.18647 0.79717 0.77764 0.0
O889 O 0.17761 0.82227 0.7693 0.0
C890 C 0.14986 0.93076 0.79087 0.0
O891 O 0.16612 0.92371 0.80444 0.0
O892 O 0.11692 0.88826 0.82003 0.0
O893 O 0.13928 0.84395 0.82959 0.0
H894 H 1.00605 0.90789 0.82509 0.0
H895 H 0.20339 0.85707 0.78951 0.0
O896 O 0.17869 0.79313 0.79299 0.0
H897 H 0.24718 0.86018 0.84699 0.0
H898 H 0.22769 0.736 0.83627 0.0
H899 H 0.12525 0.78959 0.83959 0.0
H900 H 0.19836 0.83119 0.84122 0.0
H901 H 0.21456 0.77835 0.81629 0.0
O902 O 0.12648 0.91379 0.78652 0.0
H903 H 0.05574 0.87871 0.82224 0.0
H904 H 0.07251 0.92129 0.77453 0.0
H905 H 0.1377 0.7477 0.86 0.0
H906 H 0.25248 0.88571 0.79466 0.0
H907 H 0.18923 0.72056 0.85841 0.0
H908 H 0.27486 0.88759 0.8236 0.0
O909 O 0.11774 0.79703 0.80659 0.0
H910 H 0.12743 0.8575 0.7347 0.0
H911 H 0.04911 0.84685 0.78028 0.0
H912 H 0.03566 0.8291 0.75155 0.0
H913 H 0.07494 0.83446 0.72849 0.0
H914 H 0.14001 0.87465 0.76368 0.0
H915 H 0.02313 0.95111 0.77694 0.0
H916 H 0.98945 0.94442 0.80234 0.0
O917 O 0.08377 0.83705 0.80556 0.0
C918 C 0.12727 0.87096 0.83201 0.0
C919 C 0.02051 0.911 0.81396 0.0
C920 C 0.03012 0.93528 0.78695 0.0
N921 N 0.06705 0.89825 0.79824 0.0
C922 C 0.04867 0.89451 0.81226 0.0
C923 C 0.05814 0.91841 0.78569 0.0
C924 C 0.01122 0.9315 0.80119 0.0
C925 C 0.21294 0.857 0.80207 0.0
N926 N 0.1979 0.84162 0.81494 0.0
C927 C 0.24081 0.87363 0.80495 0.0
C928 C 0.25331 0.87476 0.82118 0.0
C929 C 0.23779 0.85941 0.8343 0.0
C930 C 0.20998 0.84303 0.83093 0.0
C931 C 0.20518 0.74769 0.83711 0.0
C932 C 0.14785 0.77812 0.8389 0.0
C933 C 0.19752 0.7716 0.82577 0.0
N934 N 0.16922 0.78669 0.82683 0.0
C935 C 0.15471 0.75431 0.85045 0.0
C936 C 0.1836 0.73905 0.84953 0.0
C937 C 0.08976 0.80777 0.8067 0.0
C938 C 0.11012 0.85502 0.74464 0.0
C939 C 0.06645 0.84899 0.77038 0.0
C940 C 0.05864 0.83903 0.7541 0.0
C941 C 0.08067 0.84208 0.74117 0.0
N942 N 0.0954 0.86164 0.77369 0.0
C943 C 0.1171 0.86472 0.76107 0.0
Co944 Co 0.57461 0.90655 0.55966 0.0
Co945 Co 0.63095 0.85196 0.54911 0.0
O946 O 0.60916 0.89221 0.54484 0.0
C947 C 0.5559 0.93131 0.52493 0.0
O948 O 0.58124 0.92096 0.5173 0.0
C949 C 0.6828 0.89455 0.53411 0.0
O950 O 0.6641 0.91872 0.53209 0.0
O951 O 0.64107 0.86577 0.57264 0.0
O952 O 0.59567 0.88861 0.57989 0.0
H953 H 0.65636 0.75593 0.5834 0.0
H954 H 0.61176 0.95126 0.53813 0.0
O955 O 0.55107 0.92589 0.54049 0.0
H956 H 0.61583 0.99564 0.59547 0.0
H957 H 0.49145 0.98126 0.58067 0.0
H958 H 0.5394 0.87674 0.58777 0.0
H959 H 0.5866 0.9468 0.5899 0.0
H960 H 0.53554 0.96481 0.56255 0.0
O961 O 0.67274 0.86925 0.54097 0.0
H962 H 0.62927 0.8057 0.57713 0.0
H963 H 0.67925 0.81387 0.53085 0.0
H964 H 0.49562 0.89246 0.60631 0.0
H965 H 0.6407 1.00038 0.54302 0.0
H966 H 0.47131 0.94506 0.60282 0.0
H967 H 0.64305 0.023 0.5719 0.0
O968 O 0.55162 0.86633 0.55564 0.0
H969 H 0.61828 0.8647 0.48611 0.0
H970 H 0.60618 0.79243 0.53431 0.0
H971 H 0.5918 0.77444 0.50581 0.0
H972 H 0.598 0.8106 0.4814 0.0
H973 H 0.63187 0.88183 0.5148 0.0
H974 H 0.70711 0.76437 0.53673 0.0
H975 H 0.69562 0.73495 0.56313 0.0
O976 O 0.59096 0.83172 0.5572 0.0
C977 C 0.62227 0.87702 0.58367 0.0
C978 C 0.66153 0.7685 0.57184 0.0
C979 C 0.69004 0.77326 0.54566 0.0
N980 N 0.65253 0.81266 0.55361 0.0
C981 C 0.6462 0.79667 0.56819 0.0
C982 C 0.67426 0.80136 0.54243 0.0
C983 C 0.68357 0.75675 0.56046 0.0
C984 C 0.61217 0.96088 0.55067 0.0
N985 N 0.59712 0.94593 0.56365 0.0
C986 C 0.62884 0.98877 0.55339 0.0
C987 C 0.63021 1.00141 0.5696 0.0
C988 C 0.61499 0.98606 0.58282 0.0
C989 C 0.59857 0.95822 0.5796 0.0
C990 C 0.50188 0.9583 0.58234 0.0
C991 C 0.52912 0.89976 0.58624 0.0
C992 C 0.52679 0.94878 0.57207 0.0
N993 N 0.54025 0.91989 0.57417 0.0
C994 C 0.50426 0.90849 0.59675 0.0
C995 C 0.49061 0.93799 0.59477 0.0
C996 C 0.56174 0.83825 0.55698 0.0
C997 C 0.61572 0.84861 0.49662 0.0
C998 C 0.60897 0.8084 0.52381 0.0
C999 C 0.6008 0.79802 0.50767 0.0
C1000 C 0.60428 0.8183 0.49398 0.0
N1001 N 0.62054 0.83809 0.52632 0.0
C1002 C 0.62366 0.85816 0.51295 0.0
Co1003 Co 0.36069 0.31903 0.81043 0.0
Co1004 Co 0.41441 0.37421 0.79675 0.0
O1005 O 0.37385 0.35191 0.7944 0.0
C1006 C 0.33102 0.29804 0.77715 0.0
O1007 O 0.33943 0.32362 0.76904 0.0
C1008 C 0.37203 0.43049 0.79064 0.0
O1009 O 0.35396 0.42277 0.80345 0.0
O1010 O 0.4031 0.38727 0.82033 0.0
O1011 O 0.37962 0.34306 0.82958 0.0
H1012 H 0.51439 0.40481 0.82644 0.0
H1013 H 0.31726 0.35913 0.78948 0.0
O1014 O 0.33997 0.29318 0.79227 0.0
H1015 H 0.27135 0.35867 0.84651 0.0
H1016 H 0.28959 0.23516 0.83477 0.0
H1017 H 0.39249 0.28829 0.83926 0.0
H1018 H 0.31985 0.32958 0.84068 0.0
H1019 H 0.30368 0.27805 0.81525 0.0
O1020 O 0.3956 0.41352 0.78682 0.0
H1021 H 0.46409 0.37659 0.82302 0.0
H1022 H 0.45012 0.41988 0.77529 0.0
H1023 H 0.37905 0.24586 0.85922 0.0
H1024 H 0.26854 0.3879 0.7947 0.0
H1025 H 0.3273 0.21894 0.85704 0.0
H1026 H 0.24505 0.38797 0.8234 0.0
O1027 O 0.40102 0.29613 0.80635 0.0
H1028 H 0.39435 0.35715 0.7349 0.0
H1029 H 0.47137 0.34543 0.78096 0.0
H1030 H 0.48518 0.32766 0.75229 0.0
H1031 H 0.44655 0.33356 0.72899 0.0
H1032 H 0.3814 0.37434 0.76382 0.0
H1033 H 0.50013 0.44878 0.77826 0.0
H1034 H 0.53272 0.44126 0.80396 0.0
O1035 O 0.43562 0.33584 0.80599 0.0
C1036 C 0.39194 0.37002 0.83217 0.0
C1037 C 0.50039 0.40833 0.81519 0.0
C1038 C 0.49237 0.43303 0.78816 0.0
N1039 N 0.45405 0.39665 0.79902 0.0
C1040 C 0.47186 0.3924 0.81319 0.0
C1041 C 0.46396 0.4167 0.7866 0.0
C1042 C 0.51066 0.42877 0.80258 0.0
C1043 C 0.30717 0.35809 0.8019 0.0
N1044 N 0.32135 0.34151 0.81457 0.0
C1045 C 0.27953 0.37488 0.80483 0.0
C1046 C 0.26642 0.37501 0.82094 0.0
C1047 C 0.28115 0.35859 0.83389 0.0
C1048 C 0.30875 0.34208 0.83047 0.0
C1049 C 0.3122 0.24675 0.83586 0.0
C1050 C 0.36979 0.27693 0.83832 0.0
C1051 C 0.32041 0.27096 0.82478 0.0
N1052 N 0.34884 0.28592 0.82617 0.0
C1053 C 0.36237 0.25281 0.84962 0.0
C1054 C 0.33335 0.23768 0.84837 0.0
C1055 C 0.42919 0.30661 0.80687 0.0
C1056 C 0.41138 0.35445 0.74494 0.0
C1057 C 0.45432 0.34784 0.77094 0.0
C1058 C 0.46233 0.33786 0.75471 0.0
C1059 C 0.44066 0.3412 0.74164 0.0
N1060 N 0.42555 0.36083 0.77409 0.0
C1061 C 0.40419 0.36417 0.76134 0.0
Co1062 Co 0.95349 0.11337 0.06004 0.0
Co1063 Co 0.89546 0.16495 0.04819 0.0
O1064 O 0.91937 0.1258 0.04461 0.0
C1065 C 0.97629 0.09363 0.02549 0.0
O1066 O 0.95912 0.11495 0.01793 0.0
C1067 C 0.849 0.11796 0.03313 0.0
O1068 O 0.87009 0.09562 0.03368 0.0
O1069 O 0.88468 0.15127 0.07172 0.0
O1070 O 0.93144 0.13251 0.07975 0.0
H1071 H 0.86406 0.26073 0.08119 0.0
H1072 H 0.92273 0.06548 0.03836 0.0
O1073 O 0.97724 0.0922 0.0415 0.0
H1074 H 0.91061 0.02552 0.09639 0.0
H1075 H 0.03581 0.04133 0.08441 0.0
H1076 H 0.98803 0.14663 0.08719 0.0
H1077 H 0.93916 0.07485 0.09088 0.0
H1078 H 0.99214 0.05546 0.06547 0.0
O1079 O 0.8551 0.14512 0.03923 0.0
H1080 H 0.89375 0.21212 0.07572 0.0
H1081 H 0.84614 0.19999 0.029 0.0
H1082 H 0.03138 0.13333 0.10654 0.0
H1083 H 0.89463 0.0156 0.04315 0.0
H1084 H 0.05562 0.08036 0.10522 0.0
H1085 H 0.88815 0.99535 0.07237 0.0
O1086 O 0.97528 0.15403 0.05525 0.0
H1087 H 0.91059 0.15213 0.98531 0.0
H1088 H 0.91863 0.22511 0.03343 0.0
H1089 H 0.93304 0.24346 1.00499 0.0
H1090 H 0.92883 0.20696 0.98062 0.0
H1091 H 0.89719 0.13458 0.01394 0.0
H1092 H 0.81572 0.24831 0.03406 0.0
H1093 H 0.82471 0.27913 0.06027 0.0
O1094 O 0.93441 0.18712 0.0567 0.0
C1095 C 0.9039 0.14231 0.08314 0.0
C1096 C 0.85998 0.24754 0.0697 0.0
C1097 C 0.83281 0.24054 0.04327 0.0
N1098 N 0.8718 0.20325 0.05204 0.0
C1099 C 0.87677 0.22002 0.06652 0.0
C1100 C 0.85002 0.21311 0.04051 0.0
C1101 C 0.83788 0.25783 0.05797 0.0
C1102 C 0.91997 0.05699 0.05112 0.0
N1103 N 0.93181 0.07377 0.0644 0.0
C1104 C 0.90404 0.02864 0.05375 0.0
C1105 C 0.9004 0.01731 0.07014 0.0
C1106 C 0.91289 0.03427 0.08362 0.0
C1107 C 0.92866 0.06252 0.08047 0.0
C1108 C 0.02548 0.06451 0.0851 0.0
C1109 C 0.99838 0.1235 0.08656 0.0
C1110 C 1.00086 0.07272 0.07432 0.0
N1111 N 0.98753 0.10188 0.07518 0.0
C1112 C 0.02296 0.11611 0.09754 0.0
C1113 C 0.03656 0.0864 0.09678 0.0
C1114 C 0.96399 0.18178 0.05628 0.0
C1115 C 0.91226 0.16837 0.9958 0.0
C1116 C 0.91682 0.20895 0.02296 0.0
C1117 C 0.92496 0.21955 1.00684 0.0
C1118 C 0.92258 0.19908 0.99318 0.0
N1119 N 0.90641 0.17883 0.02546 0.0
C1120 C 0.90434 0.1586 0.0121 0.0
Co1121 Co 0.15925 0.70245 0.31102 0.0
Co1122 Co 0.11825 0.6365 0.29903 0.0
O1123 O 0.1541 0.66533 0.29642 0.0
C1124 C 0.18369 0.72208 0.27663 0.0
O1125 O 0.16822 0.6992 0.26924 0.0
C1126 C 0.14921 0.57368 0.29822 0.0
O1127 O 0.13908 0.56898 0.31369 0.0
O1128 O 0.13 0.62965 0.32324 0.0
O1129 O 0.141 0.67931 0.33079 0.0
H1130 H 0.02444 0.5915 0.3293 0.0
H1131 H 0.2124 0.67272 0.29256 0.0
O1132 O 0.17975 0.7274 0.29231 0.0
H1133 H 0.24741 0.67917 0.35176 0.0
H1134 H 0.21466 0.79802 0.33446 0.0
H1135 H 0.11812 0.73355 0.33611 0.0
H1136 H 0.19564 0.69949 0.34338 0.0
H1137 H 0.20973 0.75068 0.31672 0.0
O1138 O 0.14547 0.60047 0.29125 0.0
H1139 H 0.06917 0.62772 0.3252 0.0
H1140 H 0.09124 0.5836 0.27858 0.0
H1141 H 0.12225 0.78047 0.35425 0.0
H1142 H 0.26462 0.65272 0.30029 0.0
H1143 H 0.17077 0.81311 0.35348 0.0
H1144 H 0.28248 0.65572 0.3301 0.0
O1145 O 0.11615 0.71735 0.30435 0.0
H1146 H 0.13936 0.64481 0.23669 0.0
H1147 H 0.05861 0.6531 0.28112 0.0
H1148 H 0.04405 0.66306 0.25151 0.0
H1149 H 0.08454 0.65877 0.22901 0.0
H1150 H 0.15305 0.63568 0.26652 0.0
H1151 H 0.04685 0.54683 0.28221 0.0
H1152 H 0.01304 0.55065 0.30771 0.0
O1153 O 0.08992 0.67164 0.30613 0.0
C1154 C 0.13483 0.65074 0.33447 0.0
C1155 C 0.03904 0.58954 0.31815 0.0
C1156 C 0.05161 0.56447 0.29173 0.0
N1157 N 0.083 0.60767 0.30173 0.0
C1158 C 0.06444 0.60997 0.31576 0.0
C1159 C 0.07679 0.58531 0.28977 0.0
C1160 C 0.03265 0.56664 0.30603 0.0
C1161 C 0.21992 0.6744 0.30554 0.0
N1162 N 0.20072 0.68733 0.3175 0.0
C1163 C 0.24957 0.6629 0.30985 0.0
C1164 C 0.25957 0.66455 0.32658 0.0
C1165 C 0.23989 0.67765 0.33873 0.0
C1166 C 0.21042 0.68892 0.33394 0.0
C1167 C 0.19337 0.78403 0.33489 0.0
C1168 C 0.13937 0.74755 0.33574 0.0
C1169 C 0.19035 0.7573 0.32477 0.0
N1170 N 0.16363 0.73934 0.32533 0.0
C1171 C 0.14154 0.77413 0.34602 0.0
C1172 C 0.16876 0.79246 0.34557 0.0
C1173 C 0.09044 0.70161 0.30531 0.0
C1174 C 0.1215 0.64677 0.24637 0.0
C1175 C 0.0765 0.65168 0.27148 0.0
C1176 C 0.06805 0.65711 0.25469 0.0
C1177 C 0.09075 0.65464 0.24208 0.0
N1178 N 0.10673 0.64405 0.27562 0.0
C1179 C 0.12909 0.64152 0.2633 0.0
Co1180 Co 0.56578 0.11281 0.95933 0.0
Co1181 Co 0.62867 0.1574 0.97186 0.0
O1182 O 0.60119 0.12058 0.97471 0.0
C1183 C 0.54447 0.08887 0.9935 0.0
O1184 O 0.56634 0.10522 1.00121 0.0
C1185 C 0.69312 0.13047 0.97692 0.0
O1186 O 0.70107 0.1401 0.96174 0.0
O1187 O 0.63876 0.14331 0.94828 0.0
O1188 O 0.58986 0.131 0.93992 0.0
H1189 H 0.67345 0.24928 0.93991 0.0
H1190 H 0.59649 0.06226 0.97936 0.0
O1191 O 0.54006 0.09228 0.9777 0.0
H1192 H 0.59636 0.02348 0.92074 0.0
H1193 H 0.47496 0.05187 0.9344 0.0
H1194 H 0.53521 0.15107 0.9328 0.0
H1195 H 0.57312 0.07471 0.92771 0.0
H1196 H 0.52038 0.05991 0.95324 0.0
O1197 O 0.66459 0.1326 0.9818 0.0
H1198 H 0.63873 0.20353 0.94436 0.0
H1199 H 0.67757 0.18945 0.99317 0.0
H1200 H 0.49024 0.14381 0.91354 0.0
H1201 H 0.61935 0.0106 0.97304 0.0
H1202 H 0.45972 0.09394 0.91428 0.0
H1203 H 0.61954 0.99084 0.94353 0.0
O1204 O 0.54853 0.15548 0.96493 0.0
H1205 H 0.61283 0.1423 0.0343 0.0
H1206 H 0.60831 0.21823 0.98739 0.0
H1207 H 0.59395 0.23535 0.01606 0.0
H1208 H 0.5963 0.19729 0.03981 0.0
H1209 H 0.62639 0.12603 1.00534 0.0
H1210 H 0.71277 0.23497 0.98922 0.0
H1211 H 0.71086 0.26527 0.96243 0.0
O1212 O 0.59318 0.18339 0.96277 0.0
C1213 C 0.6186 0.13727 0.93669 0.0
C1214 C 0.67458 0.23621 0.95162 0.0
C1215 C 0.69665 0.22819 0.97929 0.0
N1216 N 0.65628 0.19356 0.96894 0.0
C1217 C 0.65501 0.21022 0.9542 0.0
C1218 C 0.67671 0.20234 0.98143 0.0
C1219 C 0.69556 0.24518 0.96426 0.0
C1220 C 0.59614 0.05389 0.96651 0.0
N1221 N 0.58332 0.07174 0.95393 0.0
C1222 C 0.60929 0.02457 0.96299 0.0
C1223 C 0.60943 0.01352 0.94644 0.0
C1224 C 0.59648 0.03183 0.93365 0.0
C1225 C 0.58353 0.06101 0.93765 0.0
C1226 C 0.48803 0.07374 0.93398 0.0
C1227 C 0.52214 0.12925 0.93317 0.0
C1228 C 0.51365 0.07852 0.94472 0.0
N1229 N 0.53044 0.10598 0.94418 0.0
C1230 C 0.49665 0.1253 0.92225 0.0
C1231 C 0.47952 0.09733 0.92268 0.0
C1232 C 0.5632 0.18172 0.9635 0.0
C1233 C 0.61165 0.1591 0.02405 0.0
C1234 C 0.60888 0.20137 0.99755 0.0
C1235 C 0.60096 0.21128 0.01381 0.0
C1236 C 0.60235 0.18994 0.02714 0.0
N1237 N 0.61787 0.17104 0.99459 0.0
C1238 C 0.61938 0.15005 1.00762 0.0
Co1239 Co 0.14538 0.32289 0.20749 0.0
Co1240 Co 0.10018 0.38621 0.21867 0.0
O1241 O 0.13731 0.3593 0.22235 0.0
C1242 C 0.17385 0.30424 0.24126 0.0
O1243 O 0.1662 0.33082 0.24857 0.0
C1244 C 0.14994 0.43051 0.23366 0.0
O1245 O 0.17039 0.40787 0.2358 0.0
O1246 O 0.11457 0.39433 0.19507 0.0
O1247 O 0.12734 0.34532 0.18756 0.0
H1248 H 1.00752 0.42469 0.18527 0.0
H1249 H 0.19712 0.35619 0.2263 0.0
O1250 O 0.1648 0.29805 0.22631 0.0
H1251 H 0.23368 0.35019 0.16746 0.0
H1252 H 0.20588 0.22993 0.18514 0.0
H1253 H 0.10757 0.29057 0.18123 0.0
H1254 H 0.18269 0.32755 0.1756 0.0
H1255 H 0.19774 0.2766 0.20302 0.0
O1256 O 0.12347 0.4252 0.22658 0.0
H1257 H 0.0531 0.39079 0.19119 0.0
H1258 H 0.06999 0.4396 0.23713 0.0
H1259 H 0.11497 0.24427 0.16296 0.0
H1260 H 0.24843 0.37853 0.21885 0.0
H1261 H 0.16441 0.21358 0.16486 0.0
H1262 H 0.26719 0.37579 0.18919 0.0
O1263 O 0.10318 0.30555 0.21346 0.0
H1264 H 0.11268 0.37053 0.2816 0.0
H1265 H 0.03807 0.371 0.23406 0.0
H1266 H 0.01882 0.35927 0.26266 0.0
H1267 H 0.05617 0.35919 0.28676 0.0
H1268 H 0.13092 0.38155 0.25285 0.0
H1269 H 0.02479 0.47421 0.23161 0.0
H1270 H 0.9931 0.46677 0.20556 0.0
O1271 O 0.07432 0.34916 0.2109 0.0
C1272 C 0.12112 0.37376 0.18387 0.0
C1273 C 0.02109 0.4281 0.19669 0.0
C1274 C 0.03081 0.45593 0.22268 0.0
N1275 N 0.06411 0.41304 0.21453 0.0
C1276 C 0.04688 0.40892 0.20013 0.0
C1277 C 0.05647 0.43632 0.2257 0.0
C1278 C 0.01303 0.45173 0.20807 0.0
C1279 C 0.20491 0.3544 0.21346 0.0
N1280 N 0.18656 0.34018 0.20151 0.0
C1281 C 0.23412 0.36733 0.20926 0.0
C1282 C 0.24461 0.36585 0.19263 0.0
C1283 C 0.22583 0.35153 0.18044 0.0
C1284 C 0.19677 0.33886 0.18513 0.0
C1285 C 0.18426 0.24314 0.18418 0.0
C1286 C 0.12925 0.2775 0.18206 0.0
C1287 C 0.17943 0.26953 0.19433 0.0
N1288 N 0.15226 0.2865 0.19311 0.0
C1289 C 0.13327 0.25123 0.17171 0.0
C1290 C 0.16099 0.23399 0.1728 0.0
C1291 C 0.07669 0.31932 0.21207 0.0
C1292 C 0.0961 0.37077 0.27124 0.0
C1293 C 0.05459 0.37103 0.2444 0.0
C1294 C 0.04348 0.36438 0.26062 0.0
C1295 C 0.06442 0.36434 0.27412 0.0
N1296 N 0.08567 0.37774 0.24164 0.0
C1297 C 0.10633 0.3773 0.25484 0.0
Co1298 Co 0.94954 0.9077 0.4578 0.0
Co1299 Co 0.89476 0.85362 0.4712 0.0
O1300 O 0.91615 0.89453 0.47354 0.0
C1301 C 0.96819 0.93656 0.49153 0.0
O1302 O 0.94592 0.92126 0.49957 0.0
C1303 C 0.83864 0.89625 0.4768 0.0
O1304 O 0.84773 0.91501 0.46455 0.0
O1305 O 0.88259 0.86422 0.44745 0.0
O1306 O 0.92762 0.88637 0.43856 0.0
H1307 H 0.86727 0.75277 0.44154 0.0
H1308 H 0.91126 0.95256 0.47822 0.0
O1309 O 0.97316 0.93134 0.47592 0.0
H1310 H 0.90484 0.99165 0.41979 0.0
H1311 H 0.0297 0.98159 0.43237 0.0
H1312 H 0.98427 0.87484 0.43065 0.0
H1313 H 0.9361 0.94478 0.42648 0.0
H1314 H 0.98662 0.96671 0.45163 0.0
O1315 O 0.85465 0.87192 0.4804 0.0
H1316 H 0.8943 0.80369 0.44506 0.0
H1317 H 0.84883 0.81741 0.49225 0.0
H1318 H 0.02699 0.88892 0.41096 0.0
H1319 H 0.88032 0.99983 0.47217 0.0
H1320 H 0.05005 0.94262 0.41177 0.0
H1321 H 0.87677 0.01973 0.44275 0.0
O1322 O 0.97344 0.86824 0.46304 0.0
H1323 H 0.90708 0.87464 0.53331 0.0
H1324 H 0.92426 0.79776 0.48768 0.0
H1325 H 0.94061 0.78475 0.51669 0.0
H1326 H 0.93196 0.8233 0.53977 0.0
H1327 H 0.89145 0.88685 0.50406 0.0
H1328 H 0.8211 0.76676 0.48917 0.0
H1329 H 0.83034 0.73398 0.4637 0.0
O1330 O 0.93408 0.83311 0.46264 0.0
C1331 C 0.90074 0.87409 0.43568 0.0
C1332 C 0.86306 0.76682 0.45271 0.0
C1333 C 0.83712 0.7747 0.47942 0.0
N1334 N 0.8732 0.81355 0.46884 0.0
C1335 C 0.87833 0.79568 0.45478 0.0
C1336 C 0.85281 0.80343 0.48106 0.0
C1337 C 0.84233 0.75631 0.46513 0.0
C1338 C 0.91033 0.96108 0.46542 0.0
N1339 N 0.92582 0.94572 0.45274 0.0
C1340 C 0.89254 0.98789 0.46205 0.0
C1341 C 0.89049 0.999 0.44555 0.0
C1342 C 0.90619 0.98324 0.43266 0.0
C1343 C 0.92374 0.9565 0.43652 0.0
C1344 C 0.01987 0.95811 0.43191 0.0
C1345 C 0.99405 0.89831 0.43102 0.0
C1346 C 0.9956 0.94946 0.44287 0.0
N1347 N 0.98288 0.9199 0.44229 0.0
C1348 C 0.01829 0.90612 0.41987 0.0
C1349 C 0.03125 0.93624 0.42034 0.0
C1350 C 0.96333 0.83986 0.46249 0.0
C1351 C 0.91102 0.85766 0.52336 0.0
C1352 C 0.92076 0.81483 0.49759 0.0
C1353 C 0.9299 0.80724 0.51402 0.0
C1354 C 0.925 0.82886 0.52697 0.0
N1355 N 0.90714 0.84317 0.49412 0.0
C1356 C 0.90218 0.86443 0.50677 0.0
Co1357 Co 0.36555 0.69392 0.70712 0.0
Co1358 Co 0.41992 0.63788 0.7183 0.0
O1359 O 0.37948 0.65962 0.72219 0.0
C1360 C 0.33902 0.71304 0.74148 0.0
O1361 O 0.3486 0.68768 0.74936 0.0
C1362 C 0.37694 0.58623 0.73322 0.0
O1363 O 0.35278 0.60502 0.73501 0.0
O1364 O 0.4067 0.62739 0.69469 0.0
O1365 O 0.38436 0.6728 0.68714 0.0
H1366 H 0.51678 0.61208 0.68473 0.0
H1367 H 0.32005 0.65679 0.72821 0.0
O1368 O 0.34539 0.71762 0.726 0.0
H1369 H 0.27812 0.65202 0.67036 0.0
H1370 H 0.29132 0.77656 0.68509 0.0
H1371 H 0.39637 0.72907 0.6793 0.0
H1372 H 0.32668 0.68138 0.67643 0.0
H1373 H 0.30722 0.73266 0.70347 0.0
O1374 O 0.40244 0.59613 0.72647 0.0
H1375 H 0.46684 0.63922 0.6906 0.0
H1376 H 0.45762 0.58987 0.737 0.0
H1377 H 0.38123 0.77266 0.66052 0.0
H1378 H 0.27118 0.62774 0.72283 0.0
H1379 H 0.32837 0.79673 0.66335 0.0
H1380 H 0.24978 0.62504 0.69369 0.0
O1381 O 0.4055 0.71702 0.71154 0.0
H1382 H 0.4053 0.65175 0.78112 0.0
H1383 H 0.47914 0.66262 0.7335 0.0
H1384 H 0.49632 0.67741 0.76209 0.0
H1385 H 0.45936 0.67184 0.78621 0.0
H1386 H 0.38899 0.63772 0.75236 0.0
H1387 H 0.50728 0.56196 0.73153 0.0
H1388 H 0.53732 0.57312 0.70528 0.0
O1389 O 0.44043 0.67791 0.71026 0.0
C1390 C 0.39581 0.64608 0.68352 0.0
C1391 C 0.50395 0.60708 0.69624 0.0
C1392 C 0.4986 0.57891 0.72249 0.0
N1393 N 0.45937 0.61631 0.71416 0.0
C1394 C 0.47569 0.62243 0.69965 0.0
C1395 C 0.47041 0.59472 0.72548 0.0
C1396 C 0.51545 0.58519 0.70776 0.0
C1397 C 0.31095 0.65627 0.71557 0.0
N1398 N 0.32641 0.67123 0.70273 0.0
C1399 C 0.2832 0.63951 0.71256 0.0
C1400 C 0.27124 0.63795 0.69621 0.0
C1401 C 0.28714 0.65304 0.68313 0.0
C1402 C 0.31481 0.66955 0.68664 0.0
C1403 C 0.3144 0.76622 0.68371 0.0
C1404 C 0.37324 0.73924 0.68054 0.0
C1405 C 0.3236 0.74142 0.69413 0.0
N1406 N 0.35265 0.72808 0.69239 0.0
C1407 C 0.36483 0.764 0.6699 0.0
C1408 C 0.33519 0.77752 0.67151 0.0
C1409 C 0.43369 0.70711 0.71045 0.0
C1410 C 0.42173 0.65403 0.77075 0.0
C1411 C 0.46283 0.66007 0.74387 0.0
C1412 C 0.47276 0.66849 0.76007 0.0
C1413 C 0.45203 0.66536 0.77359 0.0
N1414 N 0.43316 0.64859 0.74117 0.0
C1415 C 0.41265 0.64584 0.75437 0.0
Co1416 Co 0.4524 0.1089 0.45131 0.0
Co1417 Co 0.39733 0.16176 0.4653 0.0
O1418 O 0.41984 0.12161 0.46753 0.0
C1419 C 0.47439 0.08177 0.48474 0.0
O1420 O 0.44979 0.09208 0.49304 0.0
C1421 C 0.34153 0.11849 0.4712 0.0
O1422 O 0.34901 0.10142 0.45799 0.0
O1423 O 0.38407 0.15042 0.4418 0.0
O1424 O 0.4285 0.12818 0.43238 0.0
H1425 H 0.36538 0.26115 0.43572 0.0
H1426 H 0.41575 0.06377 0.47289 0.0
O1427 O 0.47829 0.08821 0.46921 0.0
H1428 H 0.40881 0.02133 0.41519 0.0
H1429 H 0.53415 0.03735 0.42592 0.0
H1430 H 0.48341 0.1412 0.42259 0.0
H1431 H 0.4386 0.06979 0.42081 0.0
H1432 H 0.49206 0.05164 0.44587 0.0
O1433 O 0.35833 0.14215 0.47528 0.0
H1434 H 0.394 0.21123 0.43898 0.0
H1435 H 0.3516 0.19661 0.48694 0.0
H1436 H 0.52509 0.12764 0.40224 0.0
H1437 H 0.38629 0.01504 0.4679 0.0
H1438 H 0.55079 0.07539 0.40383 0.0
H1439 H 0.3825 0.99337 0.43886 0.0
O1440 O 0.47542 0.14914 0.45544 0.0
H1441 H 0.41419 0.14214 0.52722 0.0
H1442 H 0.42631 0.21885 0.48099 0.0
H1443 H 0.44409 0.23291 0.50963 0.0
H1444 H 0.43799 0.19444 0.53302 0.0
H1445 H 0.39704 0.12892 0.49833 0.0
H1446 H 0.32232 0.24623 0.48413 0.0
H1447 H 0.32921 0.27895 0.4584 0.0
O1448 O 0.43564 0.18345 0.456 0.0
C1449 C 0.4015 0.14012 0.42986 0.0
C1450 C 0.3622 0.24712 0.447 0.0
C1451 C 0.33801 0.23873 0.47416 0.0
N1452 N 0.37456 0.20102 0.46315 0.0
C1453 C 0.37839 0.21885 0.44893 0.0
C1454 C 0.35458 0.21058 0.47565 0.0
C1455 C 0.3419 0.25708 0.45973 0.0
C1456 C 0.41493 0.05448 0.46027 0.0
N1457 N 0.42966 0.06966 0.44724 0.0
C1458 C 0.39787 0.02684 0.45749 0.0
C1459 C 0.39568 0.01474 0.4412 0.0
C1460 C 0.4104 0.03042 0.42793 0.0
C1461 C 0.42723 0.058 0.43119 0.0
C1462 C 0.52309 0.06017 0.42508 0.0
C1463 C 0.49428 0.11831 0.42329 0.0
C1464 C 0.49932 0.06847 0.43639 0.0
N1465 N 0.48506 0.09718 0.43533 0.0
C1466 C 0.51796 0.11081 0.41177 0.0
C1467 C 0.5324 0.08152 0.41268 0.0
C1468 C 0.46491 0.1772 0.45505 0.0
C1469 C 0.417 0.15909 0.51714 0.0
C1470 C 0.42386 0.20185 0.49104 0.0
C1471 C 0.43383 0.21001 0.50726 0.0
C1472 C 0.43037 0.18843 0.52038 0.0
N1473 N 0.4108 0.173 0.48795 0.0
C1474 C 0.4073 0.15176 0.50076 0.0
Co1475 Co 0.64687 0.70022 0.20682 0.0
Co1476 Co 0.60133 0.63625 0.21689 0.0
O1477 O 0.63896 0.66252 0.22083 0.0
C1478 C 0.67796 0.71529 0.24063 0.0
O1479 O 0.67032 0.68804 0.24726 0.0
C1480 C 0.65002 0.58899 0.23043 0.0
O1481 O 0.67191 0.61016 0.23324 0.0
O1482 O 0.61495 0.62985 0.19304 0.0
O1483 O 0.62802 0.67938 0.18642 0.0
H1484 H 0.50727 0.60082 0.18341 0.0
H1485 H 0.69819 0.66351 0.22399 0.0
O1486 O 0.66754 0.7233 0.22616 0.0
H1487 H 0.73382 0.67699 0.16533 0.0
H1488 H 0.70748 0.79509 0.18639 0.0
H1489 H 0.60868 0.73472 0.18166 0.0
H1490 H 0.68343 0.69907 0.1746 0.0
H1491 H 0.6995 0.74686 0.2031 0.0
O1492 O 0.62389 0.59658 0.22368 0.0
H1493 H 0.55353 0.6339 0.18965 0.0
H1494 H 0.57058 0.58201 0.23456 0.0
H1495 H 0.61593 0.78259 0.16454 0.0
H1496 H 0.7489 0.64167 0.2154 0.0
H1497 H 0.66561 0.81316 0.16686 0.0
H1498 H 0.76722 0.6482 0.18583 0.0
O1499 O 0.60473 0.71733 0.21354 0.0
H1500 H 0.61669 0.64707 0.27987 0.0
H1501 H 0.53997 0.65066 0.23336 0.0
H1502 H 0.52219 0.66049 0.26243 0.0
H1503 H 0.56063 0.65853 0.286 0.0
H1504 H 0.63344 0.63793 0.25065 0.0
H1505 H 0.52471 0.54818 0.22869 0.0
H1506 H 0.49259 0.55758 0.203 0.0
O1507 O 0.57591 0.67378 0.21009 0.0
C1508 C 0.62147 0.65116 0.18221 0.0
C1509 C 0.52102 0.59655 0.19467 0.0
C1510 C 0.53084 0.56697 0.22006 0.0
N1511 N 0.56468 0.61007 0.2125 0.0
C1512 C 0.54721 0.61526 0.1983 0.0
C1513 C 0.55687 0.58616 0.22328 0.0
C1514 C 0.51282 0.57227 0.20566 0.0
C1515 C 0.70585 0.66711 0.21123 0.0
N1516 N 0.68764 0.68326 0.19998 0.0
C1517 C 0.7347 0.65438 0.20637 0.0
C1518 C 0.74493 0.65797 0.18978 0.0
C1519 C 0.72621 0.6741 0.17829 0.0
C1520 C 0.69752 0.6865 0.18362 0.0
C1521 C 0.68574 0.78196 0.18526 0.0
C1522 C 0.63047 0.74775 0.18266 0.0
C1523 C 0.681 0.75469 0.19476 0.0
N1524 N 0.65368 0.73782 0.19331 0.0
C1525 C 0.63439 0.77491 0.17297 0.0
C1526 C 0.66225 0.79207 0.17429 0.0
C1527 C 0.57817 0.70346 0.21189 0.0
C1528 C 0.59965 0.64775 0.26973 0.0
C1529 C 0.55694 0.64981 0.24346 0.0
C1530 C 0.54667 0.65535 0.25995 0.0
C1531 C 0.56822 0.65424 0.27316 0.0
N1532 N 0.58778 0.64309 0.24015 0.0
C1533 C 0.60903 0.64233 0.25307 0.0
Co1534 Co 0.06915 0.91064 0.95556 0.0
Co1535 Co 0.12486 0.85715 0.96729 0.0
O1536 O 0.10355 0.89765 0.97076 0.0
C1537 C 0.04939 0.93401 0.98997 0.0
O1538 O 0.06501 0.91169 0.99768 0.0
C1539 C 0.17634 0.90068 0.98144 0.0
O1540 O 0.15741 0.92485 0.98274 0.0
O1541 O 0.13524 0.86983 0.94364 0.0
O1542 O 0.08834 0.88836 0.93595 0.0
H1543 H 0.14943 0.75913 0.93451 0.0
H1544 H 0.1047 0.95815 0.97524 0.0
O1545 O 0.04821 0.93493 0.97396 0.0
H1546 H 0.11587 0.99109 0.91586 0.0
H1547 H 0.99009 0.98587 0.93093 0.0
H1548 H 0.03048 0.87739 0.92999 0.0
H1549 H 0.08457 0.94431 0.9233 0.0
H1550 H 0.03407 0.97043 0.94936 0.0
O1551 O 0.16663 0.87471 0.97517 0.0
H1552 H 0.12272 0.80943 0.94004 0.0
H1553 H 0.17299 0.81978 0.98607 0.0
H1554 H 0.98671 0.89193 0.91119 0.0
H1555 H 0.13585 1.00541 0.96844 0.0
H1556 H 0.96619 0.94651 0.91159 0.0
H1557 H 0.14172 0.02214 0.93855 0.0
O1558 O 0.04525 0.87176 0.96175 0.0
H1559 H 0.11331 0.87289 0.03019 0.0
H1560 H 0.09953 0.79866 0.983 0.0
H1561 H 0.08548 0.78209 0.0118 0.0
H1562 H 0.09256 0.81924 0.03571 0.0
H1563 H 0.12637 0.88867 1.0012 0.0
H1564 H 0.20047 0.76976 0.98093 0.0
H1565 H 0.18863 0.73898 0.95503 0.0
O1566 O 0.08444 0.83693 0.95956 0.0
C1567 C 0.11579 0.87868 0.93235 0.0
C1568 C 0.15473 0.77228 0.94586 0.0
C1569 C 0.18341 0.77827 0.9719 0.0
N1570 N 0.14612 0.81746 0.96341 0.0
C1571 C 0.13962 0.80075 0.94908 0.0
C1572 C 0.16784 0.80665 0.97471 0.0
C1573 C 0.17674 0.76101 0.95737 0.0
C1574 C 0.10706 0.96524 0.96221 0.0
N1575 N 0.09305 0.94816 0.94967 0.0
C1576 C 0.12477 0.99205 0.95843 0.0
C1577 C 0.12808 1.00141 0.94166 0.0
C1578 C 0.11364 0.98397 0.92893 0.0
C1579 C 0.09612 0.9573 0.9332 0.0
C1580 C 0.9988 0.962 0.93065 0.0
C1581 C 0.02176 0.90121 0.93022 0.0
C1582 C 0.0236 0.95306 0.94113 0.0
N1583 N 0.03487 0.92301 0.94079 0.0
C1584 C 0.99693 0.9093 0.91955 0.0
C1585 C 0.98542 0.93992 0.91979 0.0
C1586 C 0.0552 0.84351 0.96057 0.0
C1587 C 0.11038 0.85638 0.0199 0.0
C1588 C 0.10261 0.81509 0.99327 0.0
C1589 C 0.09466 0.8055 0.00959 0.0
C1590 C 0.09865 0.82632 0.02299 0.0
N1591 N 0.11439 0.84455 0.9903 0.0
C1592 C 0.11806 0.86514 1.0034 0.0
Co1593 Co 0.86692 0.31627 0.70376 0.0
Co1594 Co 0.91102 0.37891 0.71769 0.0
O1595 O 0.87416 0.35103 0.71958 0.0
C1596 C 0.83953 0.29381 0.73703 0.0
O1597 O 0.84763 0.31987 0.74476 0.0
C1598 C 0.88288 0.44263 0.72347 0.0
O1599 O 0.89291 0.45145 0.70851 0.0
O1600 O 0.89807 0.39034 0.69407 0.0
O1601 O 0.88339 0.34251 0.68466 0.0
H1602 H 1.00531 0.42549 0.68854 0.0
H1603 H 0.81651 0.34909 0.72372 0.0
O1604 O 0.84851 0.28855 0.72194 0.0
H1605 H 0.77482 0.34101 0.66592 0.0
H1606 H 0.8105 0.22225 0.67911 0.0
H1607 H 0.90476 0.28982 0.67583 0.0
H1608 H 0.82698 0.32 0.67273 0.0
H1609 H 0.81685 0.26724 0.6984 0.0
O1610 O 0.88536 0.41392 0.72798 0.0
H1611 H 0.95964 0.39009 0.69156 0.0
H1612 H 0.94085 0.42714 0.74028 0.0
H1613 H 0.89905 0.24535 0.6561 0.0
H1614 H 0.76412 0.36976 0.71752 0.0
H1615 H 0.85167 0.21117 0.65768 0.0
H1616 H 0.74275 0.36593 0.68842 0.0
O1617 O 0.91 0.29981 0.70879 0.0
H1618 H 0.89302 0.35799 0.77946 0.0
H1619 H 0.97129 0.35794 0.73355 0.0
H1620 H 0.98716 0.34148 0.7621 0.0
H1621 H 0.94791 0.34154 0.78535 0.0
H1622 H 0.87806 0.37389 0.75065 0.0
H1623 H 0.98625 0.46297 0.73782 0.0
H1624 H 0.01885 0.46235 0.71178 0.0
O1625 O 0.93787 0.34449 0.70823 0.0
C1626 C 0.89065 0.37131 0.68214 0.0
C1627 C 0.99115 0.42618 0.6999 0.0
C1628 C 0.98046 0.4472 0.72754 0.0
N1629 N 0.94709 0.407 0.7159 0.0
C1630 C 0.96514 0.40629 0.70163 0.0
C1631 C 0.95465 0.42695 0.72883 0.0
C1632 C 0.99875 0.44682 0.71294 0.0
C1633 C 0.80754 0.34663 0.7111 0.0
N1634 N 0.82499 0.33251 0.69875 0.0
C1635 C 0.77774 0.35871 0.70762 0.0
C1636 C 0.76578 0.35662 0.6913 0.0
C1637 C 0.78375 0.34266 0.67869 0.0
C1638 C 0.81342 0.33081 0.68265 0.0
C1639 C 0.83124 0.23699 0.67828 0.0
C1640 C 0.88393 0.27524 0.67651 0.0
C1641 C 0.83508 0.26242 0.68925 0.0
N1642 N 0.8611 0.28135 0.68819 0.0
C1643 C 0.88089 0.25001 0.66534 0.0
C1644 C 0.85433 0.23081 0.66625 0.0
C1645 C 0.93619 0.31457 0.70802 0.0
C1646 C 0.91033 0.35781 0.76944 0.0
C1647 C 0.95394 0.35765 0.7435 0.0
C1648 C 0.96313 0.34849 0.75969 0.0
C1649 C 0.94112 0.34857 0.77273 0.0
N1650 N 0.92367 0.36663 0.74034 0.0
C1651 C 0.902 0.36681 0.75309 0.0
Co1652 Co 0.44178 0.90587 0.05904 0.0
Co1653 Co 0.38049 0.8575 0.04867 0.0
O1654 O 0.40587 0.89537 0.04441 0.0
C1655 C 0.45959 0.93031 0.02427 0.0
O1656 O 0.43621 0.91517 0.01712 0.0
C1657 C 0.32768 0.90389 0.04157 0.0
O1658 O 0.33688 0.92312 0.05358 0.0
O1659 O 0.37077 0.87299 0.07196 0.0
O1660 O 0.41947 0.8882 0.07927 0.0
H1661 H 0.3436 0.76494 0.08291 0.0
H1662 H 0.4061 0.9529 0.03874 0.0
O1663 O 0.46573 0.92603 0.03986 0.0
H1664 H 0.41021 0.99696 0.09622 0.0
H1665 H 0.53123 0.97225 0.08132 0.0
H1666 H 0.47547 0.87076 0.0857 0.0
H1667 H 0.43587 0.9467 0.08977 0.0
H1668 H 0.48498 0.96116 0.06354 0.0
O1669 O 0.34243 0.87843 0.03884 0.0
H1670 H 0.37588 0.81184 0.0769 0.0
H1671 H 0.32999 0.82347 0.02968 0.0
H1672 H 0.52125 0.88108 0.10398 0.0
H1673 H 0.38076 1.00351 0.04452 0.0
H1674 H 0.54954 0.9321 0.10183 0.0
H1675 H 0.38252 0.02594 0.07346 0.0
O1676 O 0.46081 0.86362 0.05391 0.0
H1677 H 0.39262 0.86757 0.98574 0.0
H1678 H 0.40266 0.79627 0.03449 0.0
H1679 H 0.41633 0.77716 1.00606 0.0
H1680 H 0.41125 0.81289 0.98141 0.0
H1681 H 0.37963 0.88583 0.01445 0.0
H1682 H 0.29707 0.77683 0.03525 0.0
H1683 H 0.30383 0.74713 0.062 0.0
O1684 O 0.41765 0.83436 0.05785 0.0
C1685 C 0.3912 0.88085 0.08307 0.0
C1686 C 0.34043 0.77768 0.07121 0.0
C1687 C 0.31429 0.78437 0.04447 0.0
N1688 N 0.35485 0.82047 0.05297 0.0
C1689 C 0.35865 0.80427 0.06773 0.0
C1690 C 0.33293 0.81087 0.04142 0.0
C1691 C 0.31811 0.76771 0.05947 0.0
C1692 C 0.40739 0.96241 0.05134 0.0
N1693 N 0.42265 0.94652 0.0639 0.0
C1694 C 0.39279 0.99115 0.05455 0.0
C1695 C 0.39373 1.0037 0.07079 0.0
C1696 C 0.40921 0.98743 0.08355 0.0
C1697 C 0.42352 0.95875 0.07986 0.0
C1698 C 0.51919 0.94987 0.08234 0.0
C1699 C 0.48758 0.89306 0.08471 0.0
C1700 C 0.49315 0.94334 0.07216 0.0
N1701 N 0.47762 0.91525 0.07345 0.0
C1702 C 0.51353 0.89875 0.09509 0.0
C1703 C 0.52941 0.92737 0.09386 0.0
C1704 C 0.44736 0.83696 0.05617 0.0
C1705 C 0.39502 0.85179 0.99638 0.0
C1706 C 0.40081 0.81211 0.02389 0.0
C1707 C 0.40838 0.80108 1.00779 0.0
C1708 C 0.40549 0.82112 0.99396 0.0
N1709 N 0.39073 0.84229 0.02619 0.0
C1710 C 0.38768 0.862 0.01268 0.0
Co1711 Co 0.85887 0.69943 0.80918 0.0
Co1712 Co 0.9118 0.64272 0.79712 0.0
O1713 O 0.87224 0.66599 0.79354 0.0
C1714 C 0.83871 0.72266 0.77476 0.0
O1715 O 0.85858 0.70424 0.7669 0.0
C1716 C 0.86593 0.59577 0.7815 0.0
O1717 O 0.84315 0.61638 0.78216 0.0
O1718 O 0.89806 0.63114 0.82054 0.0
O1719 O 0.87797 0.67723 0.82872 0.0
H1720 H 1.00791 0.61255 0.83019 0.0
H1721 H 0.8117 0.6687 0.78696 0.0
O1722 O 0.83796 0.7236 0.79078 0.0
H1723 H 0.77155 0.6534 0.84476 0.0
H1724 H 0.78471 0.77963 0.83376 0.0
H1725 H 0.89081 0.73365 0.83692 0.0
H1726 H 0.82056 0.68283 0.83973 0.0
H1727 H 0.80017 0.73689 0.81449 0.0
O1728 O 0.8929 0.60224 0.78775 0.0
H1729 H 0.95874 0.64135 0.82478 0.0
H1730 H 0.94806 0.59457 0.77772 0.0
H1731 H 0.87617 0.77608 0.85659 0.0
H1732 H 0.76218 0.63969 0.7913 0.0
H1733 H 0.82279 0.7994 0.85507 0.0
H1734 H 0.74183 0.63165 0.82039 0.0
O1735 O 0.89919 0.72206 0.80488 0.0
H1736 H 0.89978 0.65913 0.73429 0.0
H1737 H 0.9717 0.6676 0.78285 0.0
H1738 H 0.99024 0.68315 0.75461 0.0
H1739 H 0.95428 0.67874 0.73002 0.0
H1740 H 0.88201 0.64459 0.76272 0.0
H1741 H 0.99696 0.56505 0.7827 0.0
H1742 H 0.02732 0.57406 0.80906 0.0
O1743 O 0.93304 0.6818 0.80604 0.0
C1744 C 0.88857 0.65 0.83201 0.0
C1745 C 0.99491 0.60845 0.81864 0.0
C1746 C 0.98873 0.58175 0.79201 0.0
N1747 N 0.95053 0.61973 0.80094 0.0
C1748 C 0.96706 0.62473 0.8155 0.0
C1749 C 0.96097 0.59845 0.78929 0.0
C1750 C 1.00577 0.58684 0.80679 0.0
C1751 C 0.8031 0.66537 0.79966 0.0
N1752 N 0.81957 0.67693 0.81312 0.0
C1753 C 0.77499 0.64888 0.80204 0.0
C1754 C 0.7636 0.64435 0.81835 0.0
C1755 C 0.7803 0.65646 0.83202 0.0
C1756 C 0.80833 0.6728 0.82914 0.0
C1757 C 0.80805 0.76968 0.83454 0.0
C1758 C 0.86749 0.74358 0.83621 0.0
C1759 C 0.817 0.74557 0.8236 0.0
N1760 N 0.84639 0.73274 0.82456 0.0
C1761 C 0.85936 0.76765 0.84737 0.0
C1762 C 0.82941 0.78074 0.8465 0.0
C1763 C 0.9271 0.71125 0.80599 0.0
C1764 C 0.91578 0.66091 0.74487 0.0
C1765 C 0.95577 0.66569 0.77228 0.0
C1766 C 0.96648 0.67448 0.75628 0.0
C1767 C 0.94632 0.67198 0.74249 0.0
N1768 N 0.92584 0.65454 0.77454 0.0
C1769 C 0.9059 0.65236 0.76107 0.0
Co1770 Co 0.07737 0.11871 0.55443 0.0
Co1771 Co 0.1403 0.16634 0.54495 0.0
O1772 O 0.11452 0.12864 0.54026 0.0
C1773 C 0.06074 0.09272 0.51964 0.0
O1774 O 0.08528 0.10602 0.51254 0.0
C1775 C 0.18844 0.11956 0.53022 0.0
O1776 O 0.16759 0.09741 0.52729 0.0
O1777 O 0.14725 0.15131 0.56858 0.0
O1778 O 0.09806 0.1368 0.57496 0.0
H1779 H 0.17384 0.25878 0.58022 0.0
H1780 H 0.11216 0.0698 0.53493 0.0
O1781 O 0.05418 0.09832 0.53505 0.0
H1782 H 0.10738 0.02941 0.59315 0.0
H1783 H 0.98695 0.05269 0.57589 0.0
H1784 H 0.04166 0.15477 0.58003 0.0
H1785 H 0.08282 0.0798 0.58584 0.0
H1786 H 0.03423 0.06339 0.5588 0.0
O1787 O 0.18051 0.14509 0.53754 0.0
H1788 H 0.14173 0.21229 0.5731 0.0
H1789 H 0.19385 0.19941 0.52784 0.0
H1790 H 0.99477 0.14486 0.59757 0.0
H1791 H 0.13643 0.01902 0.54155 0.0
H1792 H 0.96701 0.09354 0.59554 0.0
H1793 H 0.1343 0.99841 0.57088 0.0
O1794 O 0.05893 0.16092 0.54881 0.0
H1795 H 0.12992 0.15529 0.48168 0.0
H1796 H 0.12445 0.22844 0.52976 0.0
H1797 H 0.11412 0.24805 0.5011 0.0
H1798 H 0.11702 0.21142 0.47673 0.0
H1799 H 0.13945 0.13668 0.51053 0.0
H1800 H 0.22671 0.24556 0.53458 0.0
H1801 H 0.2167 0.2757 0.56089 0.0
O1802 O 0.10216 0.1904 0.5523 0.0
C1803 C 0.12607 0.14375 0.5793 0.0
C1804 C 0.17838 0.24589 0.56869 0.0
C1805 C 0.20808 0.23844 0.5431 0.0
N1806 N 0.16576 0.20318 0.55003 0.0
C1807 C 0.16022 0.21957 0.56457 0.0
C1808 C 0.18946 0.21223 0.53938 0.0
C1809 C 0.20244 0.25535 0.55786 0.0
C1810 C 0.11075 0.0611 0.54768 0.0
N1811 N 0.0959 0.07808 0.55996 0.0
C1812 C 0.12472 0.03225 0.55138 0.0
C1813 C 0.12358 0.02073 0.56783 0.0
C1814 C 0.10853 0.03812 0.58032 0.0
C1815 C 0.09483 0.06687 0.57613 0.0
C1816 C 0.99877 0.07519 0.57685 0.0
C1817 C 0.02978 0.13235 0.57908 0.0
C1818 C 0.02541 0.08149 0.56708 0.0
N1819 N 0.04062 0.10977 0.56829 0.0
C1820 C 1.00321 0.12688 0.58904 0.0
C1821 C 0.98763 0.0981 0.58789 0.0
C1822 C 0.0724 0.18764 0.55079 0.0
C1823 C 0.12879 0.17156 0.49217 0.0
C1824 C 0.12563 0.21224 0.51932 0.0
C1825 C 0.11984 0.22355 0.50307 0.0
C1826 C 0.12149 0.20301 0.48941 0.0
N1827 N 0.13306 0.18137 0.52199 0.0
C1828 C 0.13443 0.16112 0.50862 0.0
Co1829 Co 0.66424 0.32465 0.30417 0.0
Co1830 Co 0.60965 0.37999 0.29416 0.0
O1831 O 0.64931 0.35863 0.28969 0.0
C1832 C 0.68498 0.27649 0.27968 0.0
O1833 O 0.66517 0.25681 0.28684 0.0
C1834 C 0.65284 0.43546 0.28838 0.0
O1835 O 0.67172 0.42594 0.30045 0.0
O1836 O 0.62407 0.39023 0.31756 0.0
O1837 O 0.64506 0.34387 0.32475 0.0
H1838 H 0.51409 0.40676 0.32854 0.0
H1839 H 0.70829 0.36038 0.28235 0.0
O1840 O 0.68502 0.30533 0.28398 0.0
H1841 H 0.74993 0.37253 0.34008 0.0
H1842 H 0.74415 0.24704 0.32588 0.0
H1843 H 0.63519 0.28523 0.3308 0.0
H1844 H 0.70237 0.34083 0.33482 0.0
H1845 H 0.72549 0.29057 0.30799 0.0
O1846 O 0.62787 0.42011 0.28498 0.0
H1847 H 0.56371 0.37927 0.32233 0.0
H1848 H 0.57191 0.42817 0.27575 0.0
H1849 H 0.65292 0.24171 0.34897 0.0
H1850 H 0.75624 0.3919 0.28698 0.0
H1851 H 0.70776 0.22231 0.34656 0.0
H1852 H 0.77733 0.39825 0.31603 0.0
O1853 O 0.62415 0.30086 0.29984 0.0
H1854 H 0.62232 0.36952 0.23131 0.0
H1855 H 0.55041 0.3537 0.27944 0.0
H1856 H 0.53295 0.33933 0.25078 0.0
H1857 H 0.56898 0.34735 0.22644 0.0
H1858 H 0.63897 0.38321 0.26023 0.0
H1859 H 0.52251 0.45638 0.28153 0.0
H1860 H 0.49316 0.44562 0.30805 0.0
O1861 O 0.58968 0.34026 0.30269 0.0
C1862 C 0.63441 0.3709 0.3286 0.0
C1863 C 0.52662 0.41159 0.31692 0.0
C1864 C 0.53137 0.43947 0.29055 0.0
N1865 N 0.57062 0.40196 0.29866 0.0
C1866 C 0.55471 0.39605 0.31332 0.0
C1867 C 0.55939 0.42349 0.28737 0.0
C1868 C 0.51491 0.43341 0.30543 0.0
C1869 C 0.7174 0.36282 0.29502 0.0
N1870 N 0.70245 0.34871 0.30831 0.0
C1871 C 0.74454 0.38079 0.29757 0.0
C1872 C 0.75634 0.38437 0.31387 0.0
C1873 C 0.74095 0.36999 0.32736 0.0
C1874 C 0.71388 0.3522 0.32433 0.0
C1875 C 0.72019 0.25527 0.32704 0.0
C1876 C 0.65908 0.27693 0.32967 0.0
C1877 C 0.70947 0.2799 0.31694 0.0
N1878 N 0.67922 0.29043 0.31831 0.0
C1879 C 0.669 0.25228 0.34 0.0
C1880 C 0.69977 0.24141 0.33864 0.0
C1881 C 0.59604 0.31101 0.30173 0.0
C1882 C 0.60639 0.36595 0.2418 0.0
C1883 C 0.56632 0.35704 0.26895 0.0
C1884 C 0.55625 0.34897 0.25273 0.0
C1885 C 0.57647 0.35349 0.23908 0.0
N1886 N 0.59568 0.36932 0.27152 0.0
C1887 C 0.61567 0.37372 0.25821 0.0
H1888 H 1.00381 0.54816 0.97926 0.0
H1889 H 0.95538 0.57578 0.02483 0.0
H1890 H 0.97524 0.52892 0.03916 0.0
H1891 H 1.00516 0.47984 0.03846 0.0
H1892 H 0.05337 0.45222 0.99283 0.0
H1893 H 0.03343 0.49901 0.97851 0.0
C1894 C 0.99748 0.54406 0.99233 0.0
C1895 C 0.97796 0.56554 1.00092 0.0
C1896 C 1.00841 0.51682 1.00034 0.0
C1897 C 0.97044 0.55983 0.01792 0.0
C1898 C 0.98158 0.53289 0.02607 0.0
C1899 C 0.01137 0.48392 0.02538 0.0
C1900 C 0.03091 0.46247 0.01677 0.0
C1901 C 1.00033 0.51112 0.01735 0.0
C1902 C 0.03829 0.46814 0.99975 0.0
C1903 C 0.02711 0.49505 0.9916 0.0
H1904 H 0.7239 0.69606 0.26245 0.0
H1905 H 0.69199 0.7767 0.23428 0.0
H1906 H 0.73896 0.80594 0.24257 0.0
H1907 H 0.7896 0.80857 0.25743 0.0
H1908 H 0.82159 0.72832 0.28586 0.0
H1909 H 0.7745 0.69895 0.27765 0.0
C1910 C 0.72694 0.72021 0.25837 0.0
C1911 C 0.70421 0.73418 0.24785 0.0
C1912 C 0.75441 0.73682 0.26296 0.0
C1913 C 0.70895 0.76535 0.24244 0.0
C1914 C 0.73595 0.78207 0.24709 0.0
C1915 C 0.78656 0.78448 0.26162 0.0
C1916 C 0.80939 0.7706 0.27209 0.0
C1917 C 0.75905 0.76793 0.25716 0.0
C1918 C 0.80458 0.73955 0.27768 0.0
C1919 C 0.77751 0.72278 0.27309 0.0
H1920 H 0.56821 0.47798 0.50844 0.0
H1921 H 0.49196 0.44646 0.47671 0.0
H1922 H 0.46033 0.49149 0.48534 0.0
H1923 H 0.45442 0.54026 0.50176 0.0
H1924 H 0.53085 0.57179 0.53337 0.0
H1925 H 0.56249 0.52689 0.52465 0.0
C1926 C 0.54445 0.48068 0.50368 0.0
C1927 C 0.53229 0.45871 0.49215 0.0
C1928 C 0.52667 0.50708 0.50836 0.0
C1929 C 0.50173 0.46293 0.48576 0.0
C1930 C 0.48372 0.48881 0.49056 0.0
C1931 C 0.47823 0.53761 0.50644 0.0
C1932 C 0.4904 0.55949 0.51803 0.0
C1933 C 0.49608 0.51128 0.50169 0.0
C1934 C 0.52105 0.55537 0.52431 0.0
C1935 C 0.53907 0.52955 0.51946 0.0
H1936 H 0.79642 0.30932 0.76097 0.0
H1937 H 0.82457 0.23349 0.72818 0.0
H1938 H 0.77879 0.20268 0.73703 0.0
H1939 H 0.73034 0.19734 0.75406 0.0
H1940 H 0.70245 0.2737 0.78659 0.0
H1941 H 0.74807 0.3043 0.77764 0.0
C1942 C 0.79285 0.28585 0.75596 0.0
C1943 C 0.81416 0.27363 0.74408 0.0
C1944 C 0.76609 0.26853 0.76081 0.0
C1945 C 0.8087 0.24341 0.73745 0.0
C1946 C 0.78238 0.22584 0.74241 0.0
C1947 C 0.73396 0.22089 0.75895 0.0
C1948 C 0.71282 0.23326 0.77089 0.0
C1949 C 0.7607 0.23827 0.75397 0.0
C1950 C 0.71824 0.26362 0.77733 0.0
C1951 C 0.74447 0.2811 0.77231 0.0
H1952 H 0.00987 0.46527 0.53519 0.0
H1953 H 0.95277 0.45139 0.49073 0.0
H1954 H 0.97555 0.49868 0.47806 0.0
H1955 H 0.01043 0.54471 0.47994 0.0
H1956 H 0.06708 0.55885 0.52455 0.0
H1957 H 0.04463 0.51131 0.53711 0.0
C1958 C 1.00229 0.47247 0.52274 0.0
C1959 C 0.9794 0.45464 0.51402 0.0
C1960 C 0.01498 0.5001 0.51567 0.0
C1961 C 0.97034 0.46441 0.49777 0.0
C1962 C 0.98321 0.49165 0.49055 0.0
C1963 C 0.01795 0.53751 0.49241 0.0
C1964 C 0.04061 0.5555 0.50122 0.0
C1965 C 1.00529 0.50985 0.49947 0.0
C1966 C 0.04966 0.54572 0.51746 0.0
C1967 C 0.03698 0.51835 0.52461 0.0
H1968 H 0.72533 0.76585 0.72944 0.0
H1969 H 0.70047 0.81455 0.77539 0.0
H1970 H 0.74793 0.79436 0.789 0.0
H1971 H 0.79667 0.76414 0.78754 0.0
H1972 H 0.82155 0.71556 0.74157 0.0
H1973 H 0.77425 0.736 0.7279 0.0
C1974 C 0.73019 0.7722 0.74243 0.0
C1975 C 0.70933 0.79189 0.75134 0.0
C1976 C 0.75777 0.76113 0.75001 0.0
C1977 C 0.71595 0.79938 0.76824 0.0
C1978 C 0.74322 0.78806 0.77598 0.0
C1979 C 0.79188 0.75796 0.77452 0.0
C1980 C 0.81264 0.73814 0.76562 0.0
C1981 C 0.76439 0.7692 0.76691 0.0
C1982 C 0.80614 0.73085 0.74868 0.0
C1983 C 0.77895 0.74229 0.74093 0.0
H1984 H 0.44547 0.4796 0.01148 0.0
H1985 H 0.52488 0.44101 0.98474 0.0
H1986 H 0.55647 0.48702 0.99208 0.0
H1987 H 0.56152 0.53873 1.0057 0.0
H1988 H 0.4824 0.57738 0.03264 0.0
H1989 H 0.45073 0.53127 0.02539 0.0
C1990 C 0.46986 0.48098 1.00753 0.0
C1991 C 0.48281 0.45665 0.99769 0.0
C1992 C 0.48782 0.50791 0.01153 0.0
C1993 C 0.51431 0.45923 0.9924 0.0
C1994 C 0.53237 0.48569 0.99649 0.0
C1995 C 0.53719 0.53734 0.00975 0.0
C1996 C 0.52429 0.56176 0.01952 0.0
C1997 C 0.51928 0.51037 1.00585 0.0
C1998 C 0.49289 0.55911 0.02497 0.0
C1999 C 0.4748 0.5326 0.02094 0.0
H2000 H 0.79445 0.20197 0.24415 0.0
H2001 H 0.84108 0.29181 0.2492 0.0
H2002 H 0.79387 0.31367 0.26232 0.0
H2003 H 0.73923 0.30746 0.27181 0.0
H2004 H 0.69271 0.21759 0.26652 0.0
H2005 H 0.74003 0.19574 0.25358 0.0
C2006 C 0.79456 0.22626 0.24827 0.0
C2007 C 0.82149 0.24515 0.24574 0.0
C2008 C 0.76716 0.23882 0.25544 0.0
C2009 C 0.82085 0.27666 0.25106 0.0
C2010 C 0.79376 0.28923 0.25845 0.0
C2011 C 0.7392 0.28318 0.26765 0.0
C2012 C 0.71225 0.26425 0.27004 0.0
C2013 C 0.76667 0.27062 0.26051 0.0
C2014 C 0.71298 0.23274 0.26476 0.0
C2015 C 0.74011 0.22018 0.25746 0.0
H2016 H 0.28426 0.31289 0.75505 0.0
H2017 H 0.32091 0.2365 0.78485 0.0
H2018 H 0.27624 0.20349 0.7768 0.0
H2019 H 0.22645 0.19625 0.76135 0.0
H2020 H 0.18946 0.27302 0.73191 0.0
H2021 H 0.23404 0.30596 0.74001 0.0
C2022 C 0.28274 0.28884 0.75953 0.0
C2023 C 0.30616 0.27706 0.77033 0.0
C2024 C 0.25651 0.2702 0.7552 0.0
C2025 C 0.30337 0.24607 0.77638 0.0
C2026 C 0.27769 0.22723 0.77189 0.0
C2027 C 0.22783 0.22037 0.75698 0.0
C2028 C 0.20445 0.23214 0.74614 0.0
C2029 C 0.25392 0.23912 0.76145 0.0
C2030 C 0.207 0.26334 0.74034 0.0
C2031 C 0.23265 0.28217 0.74486 0.0
H2032 H 0.22298 0.76779 0.28887 0.0
H2033 H 0.20532 0.71131 0.24455 0.0
H2034 H 0.25264 0.73263 0.23125 0.0
H2035 H 0.29951 0.76618 0.23244 0.0
H2036 H 0.31677 0.82368 0.2764 0.0
H2037 H 0.26972 0.80198 0.28989 0.0
C2038 C 0.2293 0.76015 0.27628 0.0
C2039 C 0.21041 0.73783 0.26778 0.0
C2040 C 0.25683 0.77222 0.26877 0.0
C2041 C 0.21915 0.7285 0.25141 0.0
C2042 C 0.2464 0.74052 0.24383 0.0
C2043 C 0.2931 0.77413 0.24495 0.0
C2044 C 0.31181 0.79678 0.25329 0.0
C2045 C 0.26556 0.76216 0.25245 0.0
C2046 C 0.30305 0.80627 0.26964 0.0
C2047 C 0.27595 0.79403 0.27732 0.0
H2048 H 0.2841 0.20897 0.25486 0.0
H2049 H 0.32099 0.2889 0.28197 0.0
H2050 H 0.2738 0.31901 0.27527 0.0
H2051 H 0.22174 0.32256 0.26186 0.0
H2052 H 0.18474 0.24246 0.23491 0.0
H2053 H 0.23181 0.21233 0.24172 0.0
C2054 C 0.28206 0.23318 0.259 0.0
C2055 C 0.30622 0.24684 0.26865 0.0
C2056 C 0.25445 0.2501 0.25549 0.0
C2057 C 0.30285 0.27798 0.27433 0.0
C2058 C 0.27575 0.29512 0.27065 0.0
C2059 C 0.22369 0.2983 0.25781 0.0
C2060 C 0.19958 0.28466 0.24808 0.0
C2061 C 0.25121 0.28131 0.26141 0.0
C2062 C 0.20284 0.25341 0.24257 0.0
C2063 C 0.22989 0.23624 0.2463 0.0
H2064 H 0.23396 0.81292 0.75634 0.0
H2065 H 0.19578 0.7356 0.78507 0.0
H2066 H 0.2413 0.70334 0.77787 0.0
H2067 H 0.2923 0.69715 0.76344 0.0
H2068 H 0.33046 0.77484 0.73496 0.0
H2069 H 0.28517 0.80708 0.74236 0.0
C2070 C 0.23533 0.7888 0.76072 0.0
C2071 C 0.21133 0.77646 0.77096 0.0
C2072 C 0.26201 0.77069 0.75695 0.0
C2073 C 0.21383 0.74546 0.77697 0.0
C2074 C 0.23999 0.7271 0.773 0.0
C2075 C 0.291 0.72137 0.75922 0.0
C2076 C 0.31485 0.73373 0.74886 0.0
C2077 C 0.26443 0.73958 0.76317 0.0
C2078 C 0.3125 0.76492 0.74311 0.0
C2079 C 0.28646 0.78327 0.74718 0.0
H2080 H 0.5722 0.97512 0.50138 0.0
H2081 H 0.49455 0.94232 0.53179 0.0
H2082 H 0.46319 0.98747 0.52321 0.0
H2083 H 0.45814 0.0371 0.50763 0.0
H2084 H 0.53536 0.06983 0.47692 0.0
H2085 H 0.56674 0.02443 0.48531 0.0
C2086 C 0.54817 0.97753 0.5058 0.0
C2087 C 0.5356 0.95526 0.51704 0.0
C2088 C 0.53046 1.00401 0.50112 0.0
C2089 C 0.50466 0.95906 0.52299 0.0
C2090 C 0.48681 0.98502 0.51823 0.0
C2091 C 0.48205 0.03457 0.50305 0.0
C2092 C 0.49461 0.05701 0.49192 0.0
C2093 C 0.49963 1.00794 0.50754 0.0
C2094 C 0.52533 0.053 0.48569 0.0
C2095 C 0.54318 0.02691 0.49035 0.0
H2096 H 0.01525 0.98244 0.97731 0.0
H2097 H 0.0551 0.94734 0.02376 0.0
H2098 H 0.03772 0.99482 0.03845 0.0
H2099 H 0.01202 0.04614 0.03792 0.0
H2100 H 0.97157 0.08096 0.99157 0.0
H2101 H 0.98966 0.03387 0.97677 0.0
C2102 C 0.0202 0.98502 0.99065 0.0
C2103 C 0.03655 0.96124 0.9994 0.0
C2104 C 0.01054 0.01249 0.99893 0.0
C2105 C 0.04244 0.96509 0.01673 0.0
C2106 C 0.03271 0.99234 0.0251 0.0
C2107 C 1.00711 0.0436 0.02458 0.0
C2108 C 0.99029 0.06716 0.0159 0.0
C2109 C 0.01694 0.01623 0.01628 0.0
C2110 C 0.98455 0.06339 0.99855 0.0
C2111 C 0.99467 0.03634 0.99013 0.0
H2112 H 0.50074 0.04808 0.98068 0.0
H2113 H 0.55486 0.06745 0.02564 0.0
H2114 H 0.53524 0.01901 0.03849 0.0
H2115 H 0.50401 0.97066 0.03669 0.0
H2116 H 0.44887 0.95164 0.99207 0.0
H2117 H 0.46887 0.99985 0.97905 0.0
C2118 C 0.50824 0.04187 0.99331 0.0
C2119 C 0.52941 0.06156 1.00212 0.0
C2120 C 0.49722 0.01369 1.00055 0.0
C2121 C 0.53853 0.053 0.01855 0.0
C2122 C 0.52751 0.02511 0.02587 0.0
C2123 C 0.49621 0.97694 0.02414 0.0
C2124 C 0.47471 0.95741 0.01547 0.0
C2125 C 0.50712 1.00513 0.01691 0.0
C2126 C 0.46542 0.96601 0.99907 0.0
C2127 C 0.47665 0.99376 0.99166 0.0
H2128 H 0.01255 0.05684 0.53199 0.0
H2129 H 0.07236 0.06753 0.48829 0.0
H2130 H 0.05001 0.01956 0.47613 0.0
H2131 H 0.01488 0.97362 0.47838 0.0
H2132 H 0.9564 0.96238 0.52259 0.0
H2133 H 0.97802 0.01087 0.53441 0.0
C2134 C 0.02089 0.04877 0.51983 0.0
C2135 C 0.04441 0.06589 0.51118 0.0
C2136 C 1.00861 0.02066 0.51315 0.0
C2137 C 0.05431 0.05506 0.49527 0.0
C2138 C 0.0417 0.02743 0.48836 0.0
C2139 C 1.00683 0.98166 0.49062 0.0
C2140 C 0.98388 0.96419 0.49953 0.0
C2141 C 0.01914 0.00982 0.49729 0.0
C2142 C 0.97408 0.97506 0.51544 0.0
C2143 C 0.98627 1.00299 0.52217 0.0
H2144 H 0.94892 0.24421 0.0585 0.0
H2145 H 0.02856 0.18171 0.05557 0.0
H2146 H 0.06421 0.22685 0.0554 0.0
H2147 H 0.07289 0.28396 0.05543 0.0
H2148 H 0.99324 0.34652 0.05792 0.0
H2149 H 0.95764 0.30135 0.05885 0.0
C2150 C 0.97406 0.2403 0.05781 0.0
C2151 C 0.98586 0.20933 0.05694 0.0
C2152 C 0.99452 0.26644 0.05758 0.0
C2153 C 0.01863 0.20509 0.0562 0.0
C2154 C 0.0391 0.23096 0.05608 0.0
C2155 C 0.04775 0.28788 0.05617 0.0
C2156 C 0.03592 0.31888 0.05651 0.0
C2157 C 0.02731 0.26175 0.05665 0.0
C2158 C 1.00318 0.32312 0.05757 0.0
C2159 C 0.98274 0.29724 0.05812 0.0
H2160 H 0.07785 0.76523 0.30587 0.0
H2161 H 0.03217 0.67436 0.3061 0.0
H2162 H 0.981 0.69924 0.30623 0.0
H2163 H 0.94826 0.74679 0.3061 0.0
H2164 H 0.99366 0.83773 0.30709 0.0
H2165 H 0.04499 0.81291 0.3067 0.0
C2166 C 0.05674 0.75085 0.30592 0.0
C2167 C 0.05931 0.71786 0.30574 0.0
C2168 C 0.02688 0.76535 0.30621 0.0
C2169 C 0.03139 0.69979 0.30602 0.0
C2170 C 1.00183 0.714 0.30614 0.0
C2171 C 0.96934 0.76121 0.30621 0.0
C2172 C 0.96669 0.79417 0.30641 0.0
C2173 C 0.99919 0.74677 0.30618 0.0
C2174 C 0.99456 0.81231 0.30675 0.0
C2175 C 0.02418 0.79813 0.30656 0.0
H2176 H 0.44931 0.7403 0.5586 0.0
H2177 H 0.52679 0.67491 0.55883 0.0
H2178 H 0.564 0.71878 0.55945 0.0
H2179 H 0.57463 0.77547 0.55901 0.0
H2180 H 0.49721 0.84088 0.55774 0.0
H2181 H 0.45995 0.79704 0.55848 0.0
C2182 C 0.47432 0.73548 0.55877 0.0
C2183 C 0.48509 0.70411 0.55852 0.0
C2184 C 0.49565 0.76085 0.5589 0.0
C2185 C 0.51768 0.69865 0.55893 0.0
C2186 C 0.53903 0.72378 0.55927 0.0
C2187 C 0.54963 0.78031 0.55887 0.0
C2188 C 0.53889 0.81166 0.55817 0.0
C2189 C 0.52829 0.75496 0.55909 0.0
C2190 C 0.50629 0.81714 0.55819 0.0
C2191 C 0.48492 0.79203 0.5586 0.0
H2192 H 0.528 0.19576 0.81081 0.0
H2193 H 0.59314 0.27375 0.80809 0.0
H2194 H 0.54902 0.31049 0.80784 0.0
H2195 H 0.49211 0.32042 0.80759 0.0
H2196 H 0.42711 0.24223 0.80957 0.0
H2197 H 0.47124 0.20568 0.81092 0.0
C2198 C 0.53275 0.22078 0.81015 0.0
C2199 C 0.56412 0.23181 0.80935 0.0
C2200 C 0.50725 0.24179 0.80984 0.0
C2201 C 0.56943 0.26443 0.80866 0.0
C2202 C 0.54415 0.2855 0.8085 0.0
C2203 C 0.48742 0.2954 0.80831 0.0
C2204 C 0.45605 0.28423 0.80835 0.0
C2205 C 0.51296 0.27443 0.80894 0.0
C2206 C 0.45081 0.25164 0.80943 0.0
C2207 C 0.47609 0.23067 0.8102 0.0
H2208 H 0.94961 0.77697 0.46158 0.0
H2209 H 0.02805 0.84178 0.46152 0.0
H2210 H 0.06457 0.79748 0.46118 0.0
H2211 H 0.07426 0.74065 0.46148 0.0
H2212 H 0.99587 0.67578 0.46234 0.0
H2213 H 0.95931 0.72007 0.46177 0.0
C2214 C 0.97468 0.78162 0.46152 0.0
C2215 C 0.9859 0.813 0.46169 0.0
C2216 C 0.99559 0.75599 0.4615 0.0
C2217 C 0.01858 0.81812 0.46146 0.0
C2218 C 0.03952 0.79272 0.46127 0.0
C2219 C 0.04919 0.73597 0.46158 0.0
C2220 C 0.038 0.70459 0.46208 0.0
C2221 C 0.02828 0.76158 0.4614 0.0
C2222 C 1.00532 0.69945 0.46204 0.0
C2223 C 0.98436 0.72484 0.46171 0.0
H2224 H 0.52918 0.82151 0.70854 0.0
H2225 H 0.59661 0.74593 0.7107 0.0
H2226 H 0.55368 0.70752 0.71012 0.0
H2227 H 0.49703 0.6954 0.70978 0.0
H2228 H 0.42989 0.77135 0.70866 0.0
H2229 H 0.47286 0.8095 0.70803 0.0
C2230 C 0.53468 0.79666 0.70892 0.0
C2231 C 0.56632 0.78679 0.7098 0.0
C2232 C 0.50988 0.77469 0.7088 0.0
C2233 C 0.57263 0.75436 0.7101 0.0
C2234 C 0.54804 0.73233 0.70978 0.0
C2235 C 0.49166 0.72028 0.70943 0.0
C2236 C 0.46002 0.73032 0.70942 0.0
C2237 C 0.51656 0.74223 0.70927 0.0
C2238 C 0.45384 0.76277 0.70879 0.0
C2239 C 0.47846 0.78467 0.70842 0.0
H2240 H 0.49916 0.19123 0.96192 0.0
H2241 H 0.58778 0.24116 0.96227 0.0
H2242 H 0.56045 0.29108 0.96215 0.0
H2243 H 0.51129 0.32144 0.96235 0.0
H2244 H 0.42276 0.27172 0.95953 0.0
H2245 H 0.45001 0.22169 0.96018 0.0
C2246 C 0.51251 0.21299 0.96197 0.0
C2247 C 0.54559 0.21202 0.9625 0.0
C2248 C 0.49661 0.24208 0.9615 0.0
C2249 C 0.56233 0.24074 0.96223 0.0
C2250 C 0.54671 0.26957 0.96209 0.0
C2251 C 0.49792 0.2997 0.9619 0.0
C2252 C 0.46487 0.30072 0.9613 0.0
C2253 C 0.51382 0.27062 0.96184 0.0
C2254 C 0.44815 0.27205 0.96038 0.0
C2255 C 0.46374 0.24318 0.96066 0.0
H2256 H 0.07064 0.2553 0.21112 0.0
H2257 H 0.01576 0.34045 0.21149 0.0
H2258 H 0.96734 0.30968 0.21194 0.0
H2259 H 0.94002 0.25817 0.21264 0.0
H2260 H 0.99578 0.17352 0.21061 0.0
H2261 H 0.04367 0.20442 0.21037 0.0
C2262 C 0.04813 0.26721 0.21131 0.0
C2263 C 0.04716 0.30025 0.21157 0.0
C2264 C 0.02016 0.24937 0.21129 0.0
C2265 C 0.01754 0.31508 0.21155 0.0
C2266 C 0.98966 0.29747 0.21176 0.0
C2267 C 0.96262 0.24648 0.21215 0.0
C2268 C 0.96389 0.21338 0.21193 0.0
C2269 C 0.9906 0.26452 0.21173 0.0
C2270 C 0.99364 0.19885 0.21106 0.0
C2271 C 0.02131 0.21653 0.21086 0.0
H2272 H 0.94314 0.74478 0.95977 0.0
H2273 H 0.02101 0.67985 0.95938 0.0
H2274 H 0.05793 0.72397 0.95888 0.0
H2275 H 0.06822 0.7807 0.95902 0.0
H2276 H 0.99053 0.84577 0.96056 0.0
H2277 H 0.95347 0.80166 0.96014 0.0
C2278 C 0.96817 0.7401 0.95965 0.0
C2279 C 0.97911 0.70875 0.95976 0.0
C2280 C 0.98935 0.76564 0.95958 0.0
C2281 C 0.01174 0.70353 0.9594 0.0
C2282 C 0.03293 0.72881 0.95911 0.0
C2283 C 0.0432 0.78544 0.95934 0.0
C2284 C 0.03234 0.81678 0.95996 0.0
C2285 C 0.02201 0.75994 0.9593 0.0
C2286 C 0.99972 0.82207 0.96017 0.0
C2287 C 0.97847 0.7968 0.95993 0.0
H2288 H 0.94483 0.25077 0.7061 0.0
H2289 H 0.99607 0.33856 0.70747 0.0
H2290 H 0.04568 0.31033 0.70755 0.0
H2291 H 0.07518 0.26044 0.70795 0.0
H2292 H 0.02354 0.17294 0.70526 0.0
H2293 H 0.9742 0.20125 0.70495 0.0
C2294 C 0.96681 0.26378 0.70638 0.0
C2295 C 0.96637 0.29682 0.70704 0.0
C2296 C 0.99557 0.24739 0.70624 0.0
C2297 C 0.99533 0.31312 0.70718 0.0
C2298 C 0.02393 0.29698 0.7072 0.0
C2299 C 0.05317 0.24756 0.70727 0.0
C2300 C 0.05346 0.21446 0.70691 0.0
C2301 C 0.02441 0.26407 0.70688 0.0
C2302 C 0.02445 0.19834 0.70582 0.0
C2303 C 0.99597 0.21454 0.70558 0.0
H2304 H 0.57607 0.27659 0.45272 0.0
H2305 H 0.49776 0.34099 0.4535 0.0
H2306 H 0.46109 0.29668 0.45317 0.0
H2307 H 0.45115 0.23986 0.45362 0.0
H2308 H 0.52941 0.1754 0.45336 0.0
H2309 H 0.5661 0.2197 0.45249 0.0
C2310 C 0.55099 0.28109 0.45279 0.0
C2311 C 0.53984 0.31232 0.45326 0.0
C2312 C 0.52996 0.25546 0.45274 0.0
C2313 C 0.50717 0.31737 0.4532 0.0
C2314 C 0.48612 0.29199 0.45303 0.0
C2315 C 0.47622 0.23534 0.45335 0.0
C2316 C 0.48736 0.20411 0.45368 0.0
C2317 C 0.49725 0.26095 0.45297 0.0
C2318 C 0.52002 0.19903 0.45319 0.0
C2319 C 0.54107 0.22441 0.4527 0.0
H2320 H 0.43951 0.75907 0.21281 0.0
H2321 H 0.49199 0.84612 0.21082 0.0
H2322 H 0.54105 0.8175 0.21086 0.0
H2323 H 0.57014 0.76765 0.21162 0.0
H2324 H 0.51799 0.6804 0.21122 0.0
H2325 H 0.46872 0.70898 0.21192 0.0
C2326 C 0.46164 0.77179 0.21241 0.0
C2327 C 0.46158 0.80489 0.21219 0.0
C2328 C 0.49033 0.75507 0.21203 0.0
C2329 C 0.4908 0.82074 0.21136 0.0
C2330 C 0.51918 0.80435 0.2113 0.0
C2331 C 0.54804 0.75486 0.21172 0.0
C2332 C 0.54821 0.72179 0.21174 0.0
C2333 C 0.51935 0.7715 0.21171 0.0
C2334 C 0.51904 0.7058 0.21156 0.0
C2335 C 0.49057 0.72216 0.21188 0.0
H2336 H 0.01544 0.32564 0.55221 0.0
H2337 H 0.92883 0.27264 0.55529 0.0
H2338 H 0.95779 0.22371 0.55426 0.0
H2339 H 1.00794 0.19496 0.5522 0.0
H2340 H 0.09472 0.24799 0.55205 0.0
H2341 H 0.0657 0.2969 0.55224 0.0
C2342 C 1.00287 0.30343 0.55265 0.0
C2343 C 0.96979 0.30329 0.55339 0.0
C2344 C 0.0198 0.27487 0.55253 0.0
C2345 C 0.95417 0.27397 0.55429 0.0
C2346 C 0.97076 0.24567 0.5538 0.0
C2347 C 0.02053 0.21717 0.55217 0.0
C2348 C 0.05363 0.21733 0.55164 0.0
C2349 C 1.00362 0.24573 0.5528 0.0
C2350 C 0.06932 0.24665 0.55199 0.0
C2351 C 0.0527 0.27493 0.55222 0.0
H2352 H 0.4942 0.20148 0.30233 0.0
H2353 H 0.43198 0.28127 0.30598 0.0
H2354 H 0.47724 0.31665 0.30655 0.0
H2355 H 0.53397 0.32523 0.30535 0.0
H2356 H 0.59676 0.24615 0.30059 0.0
H2357 H 0.55159 0.21023 0.30118 0.0
C2358 C 0.49041 0.2266 0.30321 0.0
C2359 C 0.45944 0.23856 0.30397 0.0
C2360 C 0.51665 0.24698 0.30333 0.0
C2361 C 0.45533 0.27125 0.30527 0.0
C2362 C 0.48126 0.29156 0.30561 0.0
C2363 C 0.53802 0.30015 0.30441 0.0
C2364 C 0.56899 0.28857 0.3028 0.0
C2365 C 0.51197 0.27971 0.30452 0.0
C2366 C 0.57336 0.25587 0.30177 0.0
C2367 C 0.54748 0.2353 0.3021 0.0
H2368 H 0.51139 0.82805 0.05223 0.0
H2369 H 0.42479 0.77792 0.06218 0.0
H2370 H 0.45242 0.72831 0.06166 0.0
H2371 H 0.5009 0.69809 0.05784 0.0
H2372 H 0.58828 0.74768 0.04951 0.0
H2373 H 0.56077 0.79768 0.04994 0.0
C2374 C 0.49859 0.80632 0.05436 0.0
C2375 C 0.46584 0.80715 0.057 0.0
C2376 C 0.51477 0.77732 0.05425 0.0
C2377 C 0.44988 0.77847 0.05989 0.0
C2378 C 0.46568 0.74979 0.05962 0.0
C2379 C 0.51396 0.71978 0.05607 0.0
C2380 C 0.54662 0.71872 0.05333 0.0
C2381 C 0.49807 0.74882 0.05666 0.0
C2382 C 0.56307 0.74738 0.05137 0.0
C2383 C 0.54735 0.77622 0.05168 0.0
H2384 H 0.98965 0.69722 0.80868 0.0
H2385 H 0.92572 0.77576 0.80606 0.0
H2386 H 0.97018 0.81221 0.80667 0.0
H2387 H 0.02708 0.82188 0.80704 0.0
H2388 H 0.09111 0.74337 0.80907 0.0
H2389 H 0.04658 0.70694 0.80964 0.0
C2390 C 0.98529 0.7223 0.80824 0.0
C2391 C 0.95415 0.73357 0.80719 0.0
C2392 C 0.01102 0.74321 0.80846 0.0
C2393 C 0.94927 0.76625 0.8068 0.0
C2394 C 0.97474 0.78718 0.80713 0.0
C2395 C 0.03146 0.79681 0.80762 0.0
C2396 C 0.06265 0.78552 0.80789 0.0
C2397 C 1.00572 0.77592 0.80781 0.0
C2398 C 0.06752 0.75287 0.80878 0.0
C2399 C 0.04201 0.73197 0.80909 0.0
H2400 H 0.32512 0.42262 0.01551 0.0
H2401 H 0.27895 0.38886 0.97057 0.0
H2402 H 0.2291 0.38486 0.98591 0.0
H2403 H 0.19974 0.38636 0.0127 0.0
H2404 H 0.24729 0.41453 0.05837 0.0
H2405 H 0.29523 0.42549 0.04225 0.0
C2406 C 0.30394 0.41516 0.009 0.0
C2407 C 0.30559 0.40658 0.99183 0.0
C2408 C 0.27563 0.41154 0.01813 0.0
C2409 C 0.27818 0.39595 0.9837 0.0
C2410 C 0.24972 0.39349 0.99251 0.0
C2411 C 0.22042 0.39542 0.01909 0.0
C2412 C 0.21982 0.39979 0.03674 0.0
C2413 C 0.24829 0.40056 0.00981 0.0
C2414 C 0.24707 0.41097 0.04483 0.0
C2415 C 0.27453 0.41721 0.0356 0.0
H2416 H 0.84441 0.06676 0.26357 0.0
H2417 H 0.8878 0.01985 0.22137 0.0
H2418 H 0.88921 0.97063 0.2374 0.0
H2419 H 0.8825 0.94231 0.2642 0.0
H2420 H 0.84558 0.99105 0.30762 0.0
H2421 H 0.83677 0.03797 0.29034 0.0
C2422 C 0.85351 0.04555 0.25778 0.0
C2423 C 0.86554 0.04676 0.24121 0.0
C2424 C 0.85559 0.01772 0.26737 0.0
C2425 C 0.87815 0.01938 0.23403 0.0
C2426 C 0.87906 0.99129 0.24322 0.0
C2427 C 0.87203 0.96301 0.26985 0.0
C2428 C 0.86454 0.96309 0.2872 0.0
C2429 C 0.86846 0.99035 0.26002 0.0
C2430 C 0.85146 0.99033 0.29431 0.0
C2431 C 0.84654 0.0172 0.28444 0.0
H2432 H 0.20753 0.58213 0.50819 0.0
H2433 H 0.22983 0.6639 0.47812 0.0
H2434 H 0.27997 0.66945 0.49264 0.0
H2435 H 0.31643 0.65317 0.51472 0.0
H2436 H 0.29493 0.57229 0.54556 0.0
H2437 H 0.24584 0.5643 0.52988 0.0
C2438 C 0.22357 0.60087 0.50464 0.0
C2439 C 0.21471 0.62257 0.49202 0.0
C2440 C 0.25249 0.60431 0.5133 0.0
C2441 C 0.2358 0.64689 0.48776 0.0
C2442 C 0.26455 0.65016 0.49611 0.0
C2443 C 0.30113 0.6337 0.51807 0.0
C2444 C 0.30943 0.61353 0.53147 0.0
C2445 C 0.27292 0.62936 0.50907 0.0
C2446 C 0.28923 0.58829 0.53539 0.0
C2447 C 0.26109 0.58372 0.5264 0.0
H2448 H 0.68552 0.06417 0.76144 0.0
H2449 H 0.60363 0.04116 0.79132 0.0
H2450 H 0.59697 0.9923 0.77574 0.0
H2451 H 0.61243 0.95713 0.75286 0.0
H2452 H 0.69386 0.97905 0.72249 0.0
H2453 H 0.70261 0.02703 0.73901 0.0
C2454 C 0.6665 0.04824 0.76471 0.0
C2455 C 0.64509 0.05657 0.77759 0.0
C2456 C 0.66247 0.02004 0.75548 0.0
C2457 C 0.62043 0.03562 0.78149 0.0
C2458 C 0.61652 1.0076 0.77253 0.0
C2459 C 0.63215 0.97233 0.74978 0.0
C2460 C 0.65226 0.96449 0.73627 0.0
C2461 C 0.63704 0.9998 0.75934 0.0
C2462 C 0.67787 0.98445 0.73272 0.0
C2463 C 0.6829 0.01194 0.7422 0.0
H2464 H 0.70014 0.63842 0.01119 0.0
H2465 H 0.74555 0.60082 0.05544 0.0
H2466 H 0.79351 0.5915 0.03905 0.0
H2467 H 0.82418 0.59864 0.01278 0.0
H2468 H 0.78077 0.64314 0.96988 0.0
H2469 H 0.73053 0.64528 0.985 0.0
C2470 C 0.72037 0.62777 0.01721 0.0
C2471 C 0.71917 0.62017 0.03453 0.0
C2472 C 0.74838 0.624 0.00792 0.0
C2473 C 0.7458 0.60679 0.04214 0.0
C2474 C 0.77328 0.60157 0.03277 0.0
C2475 C 0.80351 0.6082 1.00666 0.0
C2476 C 0.80598 0.62025 0.99014 0.0
C2477 C 0.77508 0.61071 0.01575 0.0
C2478 C 0.77931 0.63346 0.98252 0.0
C2479 C 0.75064 0.63477 0.99118 0.0
H2480 H 0.12519 0.94727 0.76046 0.0
H2481 H 0.19142 0.97879 0.79814 0.0
H2482 H 0.20046 0.02722 0.78205 0.0
H2483 H 0.18666 0.06239 0.75809 0.0
H2484 H 0.11952 0.03005 0.72103 0.0
H2485 H 0.11405 0.98032 0.73597 0.0
C2486 C 0.14175 0.9646 0.76518 0.0
C2487 C 0.15736 0.95934 0.78064 0.0
C2488 C 0.14672 0.99242 0.75592 0.0
C2489 C 0.17896 0.98211 0.78635 0.0
C2490 C 0.18412 0.00989 0.77714 0.0
C2491 C 0.17132 0.04422 0.75311 0.0
C2492 C 0.15352 0.05015 0.73839 0.0
C2493 C 0.1678 0.01555 0.76199 0.0
C2494 C 0.13347 0.02634 0.73229 0.0
C2495 C 0.13021 0.99783 0.74088 0.0
H2496 H 0.81553 0.43579 0.50465 0.0
H2497 H 0.78382 0.3658 0.54035 0.0
H2498 H 0.73444 0.36035 0.52509 0.0
H2499 H 0.70161 0.37238 0.50067 0.0
H2500 H 0.73233 0.44163 0.46438 0.0
H2501 H 0.78042 0.45051 0.48081 0.0
C2502 C 0.79757 0.41981 0.50927 0.0
C2503 C 0.80359 0.4012 0.52368 0.0
C2504 C 0.76909 0.41634 0.5002 0.0
C2505 C 0.78004 0.38036 0.52932 0.0
C2506 C 0.75174 0.37712 0.52055 0.0
C2507 C 0.7187 0.38955 0.49632 0.0
C2508 C 0.71336 0.40606 0.48115 0.0
C2509 C 0.74628 0.39445 0.50579 0.0
C2510 C 0.73576 0.42846 0.47594 0.0
C2511 C 0.76334 0.43353 0.48534 0.0
H2512 H 0.39103 0.07705 0.25925 0.0
H2513 H 0.32584 0.04794 0.29803 0.0
H2514 H 0.31629 0.99856 0.28288 0.0
H2515 H 0.3298 0.96177 0.25957 0.0
H2516 H 0.39628 0.99163 0.22155 0.0
H2517 H 0.40167 0.0425 0.23536 0.0
C2518 C 0.37455 0.06005 0.26441 0.0
C2519 C 0.35943 0.06622 0.27991 0.0
C2520 C 0.36938 0.03168 0.25572 0.0
C2521 C 0.33792 0.04389 0.28619 0.0
C2522 C 0.33249 0.01557 0.27753 0.0
C2523 C 0.34493 0.97967 0.25413 0.0
C2524 C 0.36261 0.97276 0.2395 0.0
C2525 C 0.34848 1.00895 0.26239 0.0
C2526 C 0.38244 0.99617 0.23278 0.0
C2527 C 0.38564 0.0253 0.24071 0.0
H2528 H 0.81697 0.86437 0.50423 0.0
H2529 H 0.79405 0.94219 0.4716 0.0
H2530 H 0.74487 0.95023 0.48716 0.0
H2531 H 0.70691 0.93321 0.5093 0.0
H2532 H 0.73065 0.85446 0.54118 0.0
H2533 H 0.78084 0.84898 0.52672 0.0
C2534 C 0.80133 0.88318 0.50046 0.0
C2535 C 0.80926 0.90246 0.48659 0.0
C2536 C 0.77308 0.88755 0.5094 0.0
C2537 C 0.78864 0.92687 0.48213 0.0
C2538 C 0.76044 0.93148 0.49105 0.0
C2539 C 0.72326 0.91516 0.51324 0.0
C2540 C 0.7148 0.89428 0.52637 0.0
C2541 C 0.75221 0.91174 0.50463 0.0
C2542 C 0.7363 0.87083 0.53114 0.0
C2543 C 0.76509 0.8676 0.52284 0.0
H2544 H 0.33756 0.56263 0.75785 0.0
H2545 H 0.41679 0.53794 0.72648 0.0
H2546 H 0.42119 0.48759 0.74091 0.0
H2547 H 0.40463 0.45154 0.76323 0.0
H2548 H 0.32662 0.47574 0.79551 0.0
H2549 H 0.31961 0.52498 0.7799 0.0
C2550 C 0.3555 0.54605 0.75401 0.0
C2551 C 0.3768 0.55426 0.74102 0.0
C2552 C 0.35832 0.51704 0.76263 0.0
C2553 C 0.40009 0.53247 0.7364 0.0
C2554 C 0.40269 0.50359 0.74469 0.0
C2555 C 0.38598 0.46745 0.7669 0.0
C2556 C 0.36633 0.45982 0.78069 0.0
C2557 C 0.38228 0.49582 0.75798 0.0
C2558 C 0.3422 0.48087 0.78504 0.0
C2559 C 0.33819 0.50911 0.7761 0.0
H2560 H 0.78746 0.133 0.03874 0.0
H2561 H 0.85036 0.09597 1.00108 0.0
H2562 H 0.80786 0.09558 0.98026 0.0
H2563 H 0.75317 0.10874 0.97226 0.0
H2564 H 0.6891 0.14062 0.01083 0.0
H2565 H 0.73118 0.13962 0.03167 0.0
C2566 C 0.79164 0.12446 0.02603 0.0
C2567 C 0.82196 0.11458 0.02144 0.0
C2568 C 0.7668 0.12342 0.01422 0.0
C2569 C 0.82712 0.10346 1.00495 0.0
C2570 C 0.80285 0.10337 0.993 0.0
C2571 C 0.74835 0.11502 0.98527 0.0
C2572 C 0.71797 0.12497 0.98985 0.0
C2573 C 0.77263 0.11368 0.99742 0.0
C2574 C 0.71214 0.13278 1.00686 0.0
C2575 C 0.7363 0.13241 0.01883 0.0
H2576 H 0.14153 0.567 0.26427 0.0
H2577 H 0.17506 0.51804 0.30838 0.0
H2578 H 0.18226 0.47023 0.2916 0.0
H2579 H 0.17396 0.44086 0.265 0.0
H2580 H 0.13403 0.48847 0.22208 0.0
H2581 H 0.13446 0.53819 0.23766 0.0
C2582 C 0.15095 0.54605 0.27018 0.0
C2583 C 0.15791 0.5462 0.28759 0.0
C2584 C 0.15361 0.51825 0.26062 0.0
C2585 C 0.1696 0.51862 0.29503 0.0
C2586 C 0.1736 0.49123 0.28543 0.0
C2587 C 0.16605 0.4623 0.25897 0.0
C2588 C 0.15443 0.46113 0.24232 0.0
C2589 C 0.16501 0.49054 0.2683 0.0
C2590 C 0.14335 0.48887 0.23481 0.0
C2591 C 0.14348 0.51726 0.24375 0.0
H2592 H 0.20894 0.08359 0.50348 0.0
H2593 H 0.23996 0.15331 0.53948 0.0
H2594 H 0.29019 0.15783 0.5249 0.0
H2595 H 0.32404 0.14509 0.50097 0.0
H2596 H 0.29384 0.07632 0.46431 0.0
H2597 H 0.2449 0.06824 0.48013 0.0
C2598 C 0.22692 0.09931 0.50831 0.0
C2599 C 0.22049 0.1181 0.5226 0.0
C2600 C 0.25588 0.10227 0.49963 0.0
C2601 C 0.24406 0.13861 0.52853 0.0
C2602 C 0.27286 0.14131 0.52015 0.0
C2603 C 0.30689 0.12818 0.49641 0.0
C2604 C 0.31266 0.11158 0.48131 0.0
C2605 C 0.27878 0.1238 0.50551 0.0
C2606 C 0.29012 0.08955 0.47582 0.0
C2607 C 0.26205 0.08495 0.48487 0.0
H2608 H 0.62639 0.45296 0.25876 0.0
H2609 H 0.69494 0.48306 0.29555 0.0
H2610 H 0.70275 0.53229 0.27993 0.0
H2611 H 0.6868 0.56855 0.25682 0.0
H2612 H 0.61762 0.53717 0.22059 0.0
H2613 H 0.6137 0.4867 0.23489 0.0
C2614 C 0.64317 0.47018 0.26339 0.0
C2615 C 0.65974 0.46442 0.27847 0.0
C2616 C 0.64748 0.49831 0.25439 0.0
C2617 C 0.68174 0.48689 0.28405 0.0
C2618 C 0.68618 0.51509 0.27511 0.0
C2619 C 0.67139 0.55041 0.25186 0.0
C2620 C 0.65246 0.55681 0.23764 0.0
C2621 C 0.66879 0.5213 0.26038 0.0
C2622 C 0.63237 0.53305 0.23152 0.0
C2623 C 0.63 0.50415 0.23973 0.0
H2624 H 0.19847 0.94024 1.00631 0.0
H2625 H 0.22516 0.8615 0.97508 0.0
H2626 H 0.27457 0.8569 0.99036 0.0
H2627 H 0.30876 0.87264 0.0135 0.0
H2628 H 0.2829 0.95019 0.0457 0.0
H2629 H 0.23487 0.95797 0.02905 0.0
C2630 C 0.21534 0.92243 1.00268 0.0
C2631 C 0.20796 0.90122 0.98952 0.0
C2632 C 0.24378 0.91947 0.01179 0.0
C2633 C 0.23005 0.87808 0.98514 0.0
C2634 C 0.25835 0.87536 0.99391 0.0
C2635 C 0.29274 0.89136 0.01695 0.0
C2636 C 0.29941 0.91058 0.03102 0.0
C2637 C 0.26519 0.89549 1.00744 0.0
C2638 C 0.27841 0.93494 0.03501 0.0
C2639 C 0.25088 0.93936 0.02549 0.0
H2640 H 0.86059 0.50256 0.71934 0.0
H2641 H 0.89138 0.43715 0.75748 0.0
H2642 H 0.88895 0.47827 0.77884 0.0
H2643 H 0.8814 0.53417 0.78654 0.0
H2644 H 0.84535 0.59824 0.74921 0.0
H2645 H 0.8464 0.55668 0.72786 0.0
C2646 C 0.86631 0.49722 0.73237 0.0
C2647 C 0.87642 0.46677 0.73667 0.0
C2648 C 0.86412 0.52093 0.7448 0.0
C2649 C 0.88348 0.46026 0.7537 0.0
C2650 C 0.88228 0.48388 0.76598 0.0
C2651 C 0.87338 0.5388 0.77379 0.0
C2652 C 0.86336 0.5692 0.76945 0.0
C2653 C 0.87316 0.51447 0.76165 0.0
C2654 C 0.85293 0.57494 0.75289 0.0
C2655 C 0.85367 0.55121 0.74064 0.0
H2656 H 0.09879 0.42119 0.1095 0.0
H2657 H 0.15305 0.33854 0.09797 0.0
H2658 H 0.15905 0.32807 0.12822 0.0
H2659 H 0.14486 0.34025 0.1575 0.0
H2660 H 0.09461 0.42563 0.16904 0.0
H2661 H 0.09046 0.43708 0.13884 0.0
C2662 C 0.11235 0.40117 0.1135 0.0
C2663 C 0.12513 0.38052 0.1014 0.0
C2664 C 0.11601 0.39565 0.13083 0.0
C2665 C 0.1429 0.35478 0.10695 0.0
C2666 C 0.14616 0.34871 0.12425 0.0
C2667 C 0.13371 0.36182 0.15357 0.0
C2668 C 0.12026 0.38215 0.16566 0.0
C2669 C 0.13225 0.36869 0.13626 0.0
C2670 C 0.10527 0.40962 0.16009 0.0
C2671 C 0.10288 0.41615 0.14282 0.0
H2672 H 0.92171 0.9075 0.40866 0.0
H2673 H 0.86039 0.83038 0.42192 0.0
H2674 H 0.8515 0.8197 0.39189 0.0
H2675 H 0.86409 0.83047 0.36213 0.0
H2676 H 0.92082 0.91118 0.34905 0.0
H2677 H 0.92858 0.92251 0.37905 0.0
C2678 C 0.90587 0.88877 0.40511 0.0
C2679 C 0.89185 0.86975 0.41766 0.0
C2680 C 0.90029 0.88333 0.38789 0.0
C2681 C 0.8715 0.84542 0.41262 0.0
C2682 C 0.86652 0.83925 0.39543 0.0
C2683 C 0.87766 0.85088 0.36573 0.0
C2684 C 0.89195 0.86982 0.35323 0.0
C2685 C 0.8812 0.85779 0.38298 0.0
C2686 C 0.90959 0.89614 0.35832 0.0
C2687 C 0.91407 0.9026 0.37549 0.0
H2688 H 0.36566 0.67514 0.65758 0.0
H2689 H 0.42999 0.59932 0.66818 0.0
H2690 H 0.43542 0.58956 0.63785 0.0
H2691 H 0.4245 0.605 0.60873 0.0
H2692 H 0.35762 0.67845 0.59811 0.0
H2693 H 0.34998 0.68638 0.62849 0.0
C2694 C 0.38033 0.65593 0.65342 0.0
C2695 C 0.3973 0.63788 0.66529 0.0
C2696 C 0.38285 0.65014 0.63604 0.0
C2697 C 0.41658 0.6135 0.65942 0.0
C2698 C 0.41973 0.60797 0.64207 0.0
C2699 C 0.4077 0.6223 0.61292 0.0
C2700 C 0.39169 0.64113 0.60104 0.0
C2701 C 0.40328 0.62645 0.63031 0.0
C2702 C 0.37018 0.66358 0.6069 0.0
C2703 C 0.36597 0.66821 0.62427 0.0
H2704 H 0.66271 0.1685 0.86238 0.0
H2705 H 0.58402 0.10811 0.85055 0.0
H2706 H 0.57494 0.09951 0.8807 0.0
H2707 H 0.58708 0.11233 0.91002 0.0
H2708 H 0.66919 0.16775 0.92216 0.0
H2709 H 0.67935 0.17529 0.89194 0.0
C2710 C 0.64395 0.15298 0.86628 0.0
C2711 C 0.62397 0.13916 0.85409 0.0
C2712 C 0.63942 0.14748 0.88362 0.0
C2713 C 0.59973 0.11911 0.85956 0.0
C2714 C 0.59448 0.11427 0.87682 0.0
C2715 C 0.60775 0.12533 0.90622 0.0
C2716 C 0.62739 0.13932 0.91851 0.0
C2717 C 0.6139 0.12873 0.88892 0.0
C2718 C 0.6537 0.15664 0.91308 0.0
C2719 C 0.65945 0.16101 0.89579 0.0
H2720 H 0.15927 0.68273 0.36121 0.0
H2721 H 0.10259 0.60155 0.34897 0.0
H2722 H 0.09362 0.59217 0.37911 0.0
H2723 H 0.09987 0.60889 0.40858 0.0
H2724 H 0.16205 0.68591 0.42085 0.0
H2725 H 0.1713 0.69501 0.39074 0.0
C2726 C 0.14558 0.66252 0.36501 0.0
C2727 C 0.13169 0.64288 0.3527 0.0
C2728 C 0.14145 0.65668 0.38232 0.0
C2729 C 0.1136 0.61706 0.35808 0.0
C2730 C 0.10843 0.61173 0.37532 0.0
C2731 C 0.11599 0.62722 0.40481 0.0
C2732 C 0.13021 0.64665 0.4171 0.0
C2733 C 0.12199 0.63162 0.38752 0.0
C2734 C 0.1508 0.67055 0.41175 0.0
C2735 C 0.15602 0.67581 0.39452 0.0
H2736 H 0.65835 0.84486 0.65859 0.0
H2737 H 0.59059 0.91777 0.66886 0.0
H2738 H 0.58387 0.92586 0.63841 0.0
H2739 H 0.59501 0.90964 0.60933 0.0
H2740 H 0.66614 0.83987 0.59932 0.0
H2741 H 0.67422 0.83337 0.62971 0.0
C2742 C 0.64272 0.8632 0.65435 0.0
C2743 C 0.62518 0.88087 0.66614 0.0
C2744 C 0.63954 0.8681 0.63696 0.0
C2745 C 0.60451 0.90397 0.66015 0.0
C2746 C 0.60062 0.9085 0.64274 0.0
C2747 C 0.61285 0.89352 0.61365 0.0
C2748 C 0.63002 0.87532 0.60193 0.0
C2749 C 0.61775 0.89038 0.63108 0.0
C2750 C 0.65269 0.85425 0.60797 0.0
C2751 C 0.65722 0.85046 0.62535 0.0
H2752 H 0.35076 0.35854 0.85752 0.0
H2753 H 0.43994 0.40299 0.8473 0.0
H2754 H 0.44885 0.40927 0.8777 0.0
H2755 H 0.43335 0.3973 0.90688 0.0
H2756 H 0.34246 0.35578 0.91704 0.0
H2757 H 0.33237 0.35239 0.88668 0.0
C2758 C 0.37198 0.36991 0.86187 0.0
C2759 C 0.39487 0.37977 0.8501 0.0
C2760 C 0.37677 0.37348 0.8793 0.0
C2761 C 0.42199 0.39508 0.85603 0.0
C2762 C 0.42716 0.39845 0.87342 0.0
C2763 C 0.41097 0.38818 0.90259 0.0
C2764 C 0.38864 0.37693 0.91438 0.0
C2765 C 0.40503 0.38701 0.88515 0.0
C2766 C 0.36005 0.36467 0.90835 0.0
C2767 C 0.35428 0.36273 0.89098 0.0
H2768 H 0.8614 0.16959 0.15823 0.0
H2769 H 0.93057 0.09778 0.168 0.0
H2770 H 0.94041 0.09306 0.13775 0.0
H2771 H 0.93196 0.11191 0.10916 0.0
H2772 H 0.8574 0.17742 0.09842 0.0
H2773 H 0.84709 0.18239 0.12882 0.0
C2774 C 0.87808 0.15234 0.15382 0.0
C2775 C 0.89531 0.13415 0.16552 0.0
C2776 C 0.88278 0.1489 0.13634 0.0
C2777 C 0.91704 0.11215 0.15939 0.0
C2778 C 0.92273 0.10949 0.14208 0.0
C2779 C 0.91264 0.12643 0.11321 0.0
C2780 C 0.89521 0.14387 0.10133 0.0
C2781 C 0.90602 0.12805 0.13051 0.0
C2782 C 0.87106 0.16351 0.10719 0.0
C2783 C 0.86523 0.16638 0.12458 0.0
H2784 H 0.85829 0.67748 0.85828 0.0
H2785 H 0.92613 0.60526 0.84694 0.0
H2786 H 0.93461 0.59727 0.87727 0.0
H2787 H 0.92497 0.61356 0.90654 0.0
H2788 H 0.85231 0.68115 0.91763 0.0
H2789 H 0.84321 0.6882 0.88737 0.0
C2790 C 0.8742 0.65922 0.86226 0.0
C2791 C 0.89132 0.6418 0.85019 0.0
C2792 C 0.87822 0.6542 0.87959 0.0
C2793 C 0.91249 0.61887 0.85586 0.0
C2794 C 0.91742 0.61441 0.8732 0.0
C2795 C 0.90647 0.62916 0.90249 0.0
C2796 C 0.88918 0.64661 0.91449 0.0
C2797 C 0.90067 0.63228 0.88514 0.0
C2798 C 0.86586 0.66732 0.90877 0.0
C2799 C 0.86071 0.67139 0.89147 0.0
H2800 H 0.09175 0.11702 0.60459 0.0
H2801 H 0.17561 0.1721 0.59576 0.0
H2802 H 0.18453 0.17509 0.62629 0.0
H2803 H 0.16682 0.16394 0.65526 0.0
H2804 H 0.08649 0.10392 0.66371 0.0
H2805 H 0.0785 0.09973 0.6332 0.0
C2806 C 0.11255 0.12891 0.60915 0.0
C2807 C 0.13312 0.14406 0.59772 0.0
C2808 C 0.11813 0.12952 0.62661 0.0
C2809 C 0.15944 0.1601 0.60417 0.0
C2810 C 0.16454 0.16181 0.62164 0.0
C2811 C 0.14781 0.14964 0.6505 0.0
C2812 C 0.12694 0.13479 0.66186 0.0
C2813 C 0.14383 0.14685 0.63295 0.0
C2814 C 0.10274 0.11583 0.65534 0.0
C2815 C 0.0981 0.11356 0.63788 0.0
H2816 H 0.6033 0.41202 0.40297 0.0
H2817 H 0.66769 0.33697 0.41458 0.0
H2818 H 0.67681 0.3289 0.38429 0.0
H2819 H 0.66305 0.34075 0.35481 0.0
H2820 H 0.60092 0.41817 0.34364 0.0
H2821 H 0.59428 0.42781 0.37384 0.0
C2822 C 0.61985 0.3943 0.39903 0.0
C2823 C 0.6347 0.3751 0.41114 0.0
C2824 C 0.6251 0.39008 0.38172 0.0
C2825 C 0.65599 0.35214 0.4056 0.0
C2826 C 0.66105 0.34743 0.38828 0.0
C2827 C 0.64853 0.36018 0.35887 0.0
C2828 C 0.6325 0.37874 0.34685 0.0
C2829 C 0.64524 0.36592 0.37625 0.0
C2830 C 0.61356 0.40356 0.35252 0.0
C2831 C 0.60972 0.40904 0.3698 0.0
H2832 H 0.41875 0.91332 0.10862 0.0
H2833 H 0.34685 0.84393 0.09894 0.0
H2834 H 0.33997 0.8365 0.12941 0.0
H2835 H 0.35724 0.84747 0.15846 0.0
H2836 H 0.42403 0.92196 0.16798 0.0
H2837 H 0.43015 0.92988 0.13756 0.0
C2838 C 0.401 0.89715 0.11304 0.0
C2839 C 0.38345 0.87918 0.10137 0.0
C2840 C 0.39652 0.8938 0.13049 0.0
C2841 C 0.36073 0.85806 0.10754 0.0
C2842 C 0.35688 0.85375 0.12498 0.0
C2843 C 0.37254 0.86597 0.15402 0.0
C2844 C 0.39011 0.88408 0.16564 0.0
C2845 C 0.37503 0.87118 0.13654 0.0
C2846 C 0.41021 0.90767 0.15942 0.0
C2847 C 0.41374 0.91217 0.14201 0.0
H2848 H 0.85059 0.35642 0.65675 0.0
H2849 H 0.93542 0.40859 0.66699 0.0
H2850 H 0.94462 0.41447 0.63663 0.0
H2851 H 0.93128 0.39977 0.60753 0.0
H2852 H 0.84411 0.35112 0.59713 0.0
H2853 H 0.83348 0.34788 0.62747 0.0
C2854 C 0.87093 0.36929 0.6524 0.0
C2855 C 0.89268 0.38133 0.6642 0.0
C2856 C 0.87585 0.37269 0.63495 0.0
C2857 C 0.91846 0.3988 0.65827 0.0
C2858 C 0.92381 0.40198 0.64088 0.0
C2859 C 0.90949 0.38918 0.61174 0.0
C2860 C 0.88844 0.37588 0.59989 0.0
C2861 C 0.90309 0.38825 0.62914 0.0
C2862 C 0.86072 0.36162 0.60585 0.0
C2863 C 0.85462 0.35979 0.62322 0.0
H2864 H 0.36461 0.1839 0.35681 0.0
H2865 H 0.42574 0.1071 0.34326 0.0
H2866 H 0.43212 0.09423 0.37322 0.0
H2867 H 0.42307 0.10732 0.40289 0.0
H2868 H 0.35919 0.18184 0.41635 0.0
H2869 H 0.35041 0.19276 0.38635 0.0
C2870 C 0.37878 0.16387 0.36025 0.0
C2871 C 0.39463 0.14647 0.34769 0.0
C2872 C 0.38178 0.15629 0.37739 0.0
C2873 C 0.41323 0.12086 0.3526 0.0
C2874 C 0.41691 0.11355 0.36972 0.0
C2875 C 0.4067 0.12554 0.39938 0.0
C2876 C 0.39194 0.14383 0.41196 0.0
C2877 C 0.40163 0.13142 0.38219 0.0
C2878 C 0.37084 0.16739 0.40701 0.0
C2879 C 0.36598 0.17373 0.38986 0.0
H2880 H 0.64614 0.68519 0.15612 0.0
H2881 H 0.59323 0.60069 0.16678 0.0
H2882 H 0.58873 0.59033 0.13649 0.0
H2883 H 0.59794 0.60668 0.10719 0.0
H2884 H 0.65444 0.68853 0.09655 0.0
H2885 H 0.66069 0.69795 0.12689 0.0
C2886 C 0.63422 0.66411 0.15196 0.0
C2887 C 0.62016 0.64371 0.16386 0.0
C2888 C 0.63254 0.65781 0.13456 0.0
C2889 C 0.60434 0.61678 0.158 0.0
C2890 C 0.60176 0.61084 0.14067 0.0
C2891 C 0.61177 0.62644 0.11145 0.0
C2892 C 0.62513 0.64721 0.09957 0.0
C2893 C 0.61551 0.63139 0.12886 0.0
C2894 C 0.64373 0.6723 0.10537 0.0
C2895 C 0.64713 0.67777 0.12273 0.0
H2896 H 0.16406 0.85423 0.85831 0.0
H2897 H 0.08193 0.90877 0.84609 0.0
H2898 H 0.07127 0.91585 0.87628 0.0
H2899 H 0.08287 0.90225 0.9057 0.0
H2900 H 0.16708 0.85038 0.91784 0.0
H2901 H 0.17907 0.84578 0.88772 0.0
C2902 C 0.14411 0.86809 0.86215 0.0
C2903 C 0.12366 0.88065 0.84989 0.0
C2904 C 0.13828 0.87203 0.87943 0.0
C2905 C 0.09804 0.89883 0.85521 0.0
C2906 C 0.09183 0.90265 0.87247 0.0
C2907 C 0.10429 0.89055 0.90191 0.0
C2908 C 0.12418 0.87685 0.91416 0.0
C2909 C 0.11144 0.88871 0.88465 0.0
C2910 C 0.15141 0.8612 0.90878 0.0
C2911 C 0.15828 0.85861 0.89156 0.0
loop_
_geom_bond_atom_site_label_1
_geom_bond_atom_site_label_2
_geom_bond_distance
_geom_bond_site_symmetry_2
_ccdc_geom_bond_type
Co0 O2 2.143 . S
Co0 O8 2.074 . S
Co0 O11 2.093 . S
Co0 O24 2.097 . S
Co0 N41 2.151 . S
Co0 N49 2.214 . S
Co1 O2 2.160 . S
Co1 O7 2.058 . S
Co1 O17 2.057 . S
Co1 O32 2.037 . S
Co1 N36 2.145 . S
Co1 N57 2.257 . S
O2 Co0 2.143 . S
O2 Co1 2.160 . S
C3 O4 1.278 . S
C3 O11 1.224 . S
O4 C3 1.278 . S
C5 O6 1.245 . S
C5 O17 1.232 . S
O6 C5 1.245 . S
O7 Co1 2.058 . S
O7 C33 1.269 . S
O8 Co0 2.074 . S
O8 C33 1.257 . S
H9 C34 0.930 . S
H10 C40 0.930 . S
O11 Co0 2.093 . S
O11 C3 1.224 . S
H12 C44 0.929 . S
H13 C46 0.930 . S
H14 C47 0.930 . S
H15 C45 0.929 . S
H16 C48 0.928 . S
O17 Co1 2.057 . S
O17 C5 1.232 . S
H18 C37 0.929 . S
H19 C38 0.929 . S
H20 C50 0.931 . S
H21 C42 0.929 . S
H22 C51 0.930 . S
H23 C43 0.931 . S
O24 Co0 2.097 . S
O24 C52 1.214 . S
H25 C53 0.929 . S
H26 C54 0.929 . S
H27 C55 0.930 . S
H28 C56 0.929 . S
H29 C58 0.944 . S
H30 C35 0.930 . S
H31 C39 0.930 . S
O32 Co1 2.037 . S
O32 C52 1.234 . S
C33 O7 1.269 . S
C33 O8 1.257 . S
C34 H9 0.930 . S
C34 C37 1.388 . S
C34 C39 1.418 . S
C35 H30 0.930 . S
C35 C38 1.404 . S
C35 C39 1.353 . S
N36 Co1 2.145 . S
N36 C37 1.397 . S
N36 C38 1.334 . S
C37 H18 0.929 . S
C37 C34 1.388 . S
C37 N36 1.397 . S
C38 H19 0.929 . S
C38 C35 1.404 . S
C38 N36 1.334 . S
C39 H31 0.930 . S
C39 C34 1.418 . S
C39 C35 1.353 . S
C40 H10 0.930 . S
C40 N41 1.330 . S
C40 C42 1.446 . S
N41 Co0 2.151 . S
N41 C40 1.330 . S
N41 C45 1.418 . S
C42 H21 0.929 . S
C42 C40 1.446 . S
C42 C43 1.332 . S
C43 H23 0.931 . S
C43 C42 1.332 . S
C43 C44 1.267 . S
C44 H12 0.929 . S
C44 C43 1.267 . S
C44 C45 1.251 . S
C45 H15 0.929 . S
C45 N41 1.418 . S
C45 C44 1.251 . S
C46 H13 0.930 . S
C46 C48 1.406 1_655 S
C46 C51 1.261 . S
C47 H14 0.930 . S
C47 N49 1.325 . S
C47 C50 1.357 1_455 S
C48 H16 0.928 . S
C48 C46 1.406 1_455 S
C48 N49 1.261 . S
N49 Co0 2.214 . S
N49 C47 1.325 . S
N49 C48 1.261 . S
C50 H20 0.931 . S
C50 C47 1.357 1_655 S
C50 C51 1.312 . S
C51 H22 0.930 . S
C51 C46 1.261 . S
C51 C50 1.312 . S
C52 O24 1.214 . S
C52 O32 1.234 . S
C53 H25 0.929 . S
C53 C56 1.391 . S
C53 C58 1.342 1_556 S
C54 H26 0.929 . S
C54 C55 1.390 1_554 S
C54 N57 1.391 . S
C55 H27 0.930 . S
C55 C54 1.390 1_556 S
C55 C56 1.392 . S
C56 H28 0.929 . S
C56 C53 1.391 . S
C56 C55 1.392 . S
N57 Co1 2.257 . S
N57 C54 1.391 . S
N57 C58 1.426 . S
C58 H29 0.944 . S
C58 C53 1.342 1_554 S
C58 N57 1.426 . S
Co59 O61 2.143 . S
Co59 O67 2.074 . S
Co59 O70 2.093 . S
Co59 O83 2.097 . S
Co59 N100 2.151 . S
Co59 N108 2.214 . S
Co60 O61 2.160 . S
Co60 O66 2.058 . S
Co60 O76 2.057 . S
Co60 O91 2.037 . S
Co60 N95 2.145 . S
Co60 N116 2.257 . S
O61 Co59 2.143 . S
O61 Co60 2.160 . S
C62 O63 1.278 . S
C62 O70 1.224 . S
O63 C62 1.278 . S
C64 O65 1.245 . S
C64 O76 1.232 . S
O65 C64 1.245 . S
O66 Co60 2.058 . S
O66 C92 1.269 . S
O67 Co59 2.074 . S
O67 C92 1.257 . S
H68 C93 0.930 1_455 S
H69 C99 0.930 . S
O70 Co59 2.093 . S
O70 C62 1.224 . S
H71 C103 0.929 . S
H72 C105 0.930 . S
H73 C106 0.930 . S
H74 C104 0.929 . S
H75 C107 0.928 . S
O76 Co60 2.057 . S
O76 C64 1.232 . S
H77 C96 0.929 . S
H78 C97 0.929 . S
H79 C109 0.931 . S
H80 C101 0.929 . S
H81 C110 0.930 . S
H82 C102 0.931 . S
O83 Co59 2.097 . S
O83 C111 1.214 . S
H84 C112 0.929 . S
H85 C113 0.929 . S
H86 C114 0.930 . S
H87 C115 0.929 . S
H88 C117 0.930 . S
H89 C94 0.930 . S
H90 C98 0.953 . S
O91 Co60 2.037 . S
O91 C111 1.234 . S
C92 O66 1.269 . S
C92 O67 1.257 . S
C93 H68 0.930 1_655 S
C93 C96 1.388 . S
C93 C98 1.414 1_655 S
C94 H89 0.930 . S
C94 C97 1.404 . S
C94 C98 1.335 1_655 S
N95 Co60 2.145 . S
N95 C96 1.397 . S
N95 C97 1.334 . S
C96 H77 0.929 . S
C96 C93 1.388 . S
C96 N95 1.397 . S
C97 H78 0.929 . S
C97 C94 1.404 . S
C97 N95 1.334 . S
C98 H90 0.953 . S
C98 C93 1.414 1_455 S
C98 C94 1.335 1_455 S
C99 H69 0.930 . S
C99 N100 1.330 . S
C99 C101 1.446 . S
N100 Co59 2.151 . S
N100 C99 1.330 . S
N100 C104 1.418 . S
C101 H80 0.929 . S
C101 C99 1.446 . S
C101 C102 1.332 . S
C102 H82 0.931 . S
C102 C101 1.332 . S
C102 C103 1.267 . S
C103 H71 0.929 . S
C103 C102 1.267 . S
C103 C104 1.251 . S
C104 H74 0.929 . S
C104 N100 1.418 . S
C104 C103 1.251 . S
C105 H72 0.930 . S
C105 C107 1.406 . S
C105 C110 1.261 . S
C106 H73 0.930 . S
C106 N108 1.325 . S
C106 C109 1.357 . S
C107 H75 0.928 . S
C107 C105 1.406 . S
C107 N108 1.261 . S
N108 Co59 2.214 . S
N108 C106 1.325 . S
N108 C107 1.261 . S
C109 H79 0.931 . S
C109 C106 1.357 . S
C109 C110 1.312 . S
C110 H81 0.930 . S
C110 C105 1.261 . S
C110 C109 1.312 . S
C111 O83 1.214 . S
C111 O91 1.234 . S
C112 H84 0.929 . S
C112 C115 1.391 . S
C112 C117 1.391 . S
C113 H85 0.929 . S
C113 C114 1.390 . S
C113 N116 1.391 . S
C114 H86 0.930 . S
C114 C113 1.390 . S
C114 C115 1.392 . S
C115 H87 0.929 . S
C115 C112 1.391 . S
C115 C114 1.392 . S
N116 Co60 2.257 . S
N116 C113 1.391 . S
N116 C117 1.388 . S
C117 H88 0.930 . S
C117 C112 1.391 . S
C117 N116 1.388 . S
Co118 O120 2.143 . S
Co118 O126 2.074 . S
Co118 O129 2.093 . S
Co118 O142 2.097 . S
Co118 N159 2.151 . S
Co118 N167 2.214 . S
Co119 O120 2.160 . S
Co119 O125 2.058 . S
Co119 O135 2.057 . S
Co119 O150 2.037 . S
Co119 N154 2.145 . S
Co119 N175 2.257 . S
O120 Co118 2.143 . S
O120 Co119 2.160 . S
C121 O122 1.278 . S
C121 O129 1.224 . S
O122 C121 1.278 . S
C123 O124 1.245 . S
C123 O135 1.232 . S
O124 C123 1.245 . S
O125 Co119 2.058 . S
O125 C151 1.269 . S
O126 Co118 2.074 . S
O126 C151 1.257 . S
H127 C152 0.930 . S
H128 C158 0.930 . S
O129 Co118 2.093 . S
O129 C121 1.224 . S
H130 C162 0.929 . S
H131 C164 0.930 . S
H132 C165 0.930 . S
H133 C163 0.929 . S
H134 C166 0.928 . S
O135 Co119 2.057 . S
O135 C123 1.232 . S
H136 C155 0.929 . S
H137 C156 0.929 . S
H138 C168 0.931 . S
H139 C160 0.929 . S
H140 C169 0.930 . S
H141 C161 0.931 . S
O142 Co118 2.097 . S
O142 C170 1.214 . S
H143 C171 0.929 . S
H144 C172 0.929 . S
H145 C173 0.930 . S
H146 C174 0.929 . S
H147 C176 0.930 . S
H148 C153 0.930 . S
H149 C157 0.930 . S
O150 Co119 2.037 . S
O150 C170 1.234 . S
C151 O125 1.269 . S
C151 O126 1.257 . S
C152 H127 0.930 . S
C152 C155 1.388 . S
C152 C157 1.418 . S
C153 H148 0.930 . S
C153 C156 1.404 . S
C153 C157 1.353 . S
N154 Co119 2.145 . S
N154 C155 1.397 . S
N154 C156 1.334 . S
C155 H136 0.929 . S
C155 C152 1.388 . S
C155 N154 1.397 . S
C156 H137 0.929 . S
C156 C153 1.404 . S
C156 N154 1.334 . S
C157 H149 0.930 . S
C157 C152 1.418 . S
C157 C153 1.353 . S
C158 H128 0.930 . S
C158 N159 1.330 . S
C158 C160 1.446 . S
N159 Co118 2.151 . S
N159 C158 1.330 . S
N159 C163 1.418 . S
C160 H139 0.929 . S
C160 C158 1.446 . S
C160 C161 1.332 . S
C161 H141 0.931 . S
C161 C160 1.332 . S
C161 C162 1.267 . S
C162 H130 0.929 . S
C162 C161 1.267 . S
C162 C163 1.251 . S
C163 H133 0.929 . S
C163 N159 1.418 . S
C163 C162 1.251 . S
C164 H131 0.930 . S
C164 C166 1.406 . S
C164 C169 1.261 . S
C165 H132 0.930 . S
C165 N167 1.325 . S
C165 C168 1.357 . S
C166 H134 0.928 . S
C166 C164 1.406 . S
C166 N167 1.261 . S
N167 Co118 2.214 . S
N167 C165 1.325 . S
N167 C166 1.261 . S
C168 H138 0.931 . S
C168 C165 1.357 . S
C168 C169 1.312 . S
C169 H140 0.930 . S
C169 C164 1.261 . S
C169 C168 1.312 . S
C170 O142 1.214 . S
C170 O150 1.234 . S
C171 H143 0.929 . S
C171 C174 1.391 . S
C171 C176 1.391 . S
C172 H144 0.929 . S
C172 C173 1.390 . S
C172 N175 1.391 . S
C173 H145 0.930 . S
C173 C172 1.390 . S
C173 C174 1.392 . S
C174 H146 0.929 . S
C174 C171 1.391 . S
C174 C173 1.392 . S
N175 Co119 2.257 . S
N175 C172 1.391 . S
N175 C176 1.388 . S
C176 H147 0.930 . S
C176 C171 1.391 . S
C176 N175 1.388 . S
Co177 O179 2.143 . S
Co177 O185 2.074 . S
Co177 O188 2.093 . S
Co177 O201 2.097 . S
Co177 N218 2.151 . S
Co177 N226 2.214 . S
Co178 O179 2.160 . S
Co178 O184 2.058 . S
Co178 O194 2.057 . S
Co178 O209 2.037 . S
Co178 N213 2.145 . S
Co178 N234 2.257 . S
O179 Co177 2.143 . S
O179 Co178 2.160 . S
C180 O181 1.278 . S
C180 O188 1.224 . S
O181 C180 1.278 . S
C182 O183 1.245 . S
C182 O194 1.232 . S
O183 C182 1.245 . S
O184 Co178 2.058 . S
O184 C210 1.269 . S
O185 Co177 2.074 . S
O185 C210 1.257 . S
H186 C211 0.930 . S
H187 C217 0.930 . S
O188 Co177 2.093 . S
O188 C180 1.224 . S
H189 C221 0.929 . S
H190 C223 0.930 . S
H191 C224 0.930 . S
H192 C222 0.929 . S
H193 C225 0.928 . S
O194 Co178 2.057 . S
O194 C182 1.232 . S
H195 C214 0.929 . S
H196 C215 0.929 . S
H197 C227 0.931 . S
H198 C219 0.929 . S
H199 C228 0.930 . S
H200 C220 0.931 . S
O201 Co177 2.097 . S
O201 C229 1.214 . S
H202 C230 0.929 . S
H203 C231 0.929 . S
H204 C232 0.930 . S
H205 C233 0.929 . S
H206 C235 0.930 . S
H207 C212 0.930 . S
H208 C216 0.930 . S
O209 Co178 2.037 . S
O209 C229 1.234 . S
C210 O184 1.269 . S
C210 O185 1.257 . S
C211 H186 0.930 . S
C211 C214 1.388 . S
C211 C216 1.418 . S
C212 H207 0.930 . S
C212 C215 1.404 . S
C212 C216 1.353 . S
N213 Co178 2.145 . S
N213 C214 1.397 . S
N213 C215 1.334 . S
C214 H195 0.929 . S
C214 C211 1.388 . S
C214 N213 1.397 . S
C215 H196 0.929 . S
C215 C212 1.404 . S
C215 N213 1.334 . S
C216 H208 0.930 . S
C216 C211 1.418 . S
C216 C212 1.353 . S
C217 H187 0.930 . S
C217 N218 1.330 . S
C217 C219 1.446 . S
N218 Co177 2.151 . S
N218 C217 1.330 . S
N218 C222 1.418 . S
C219 H198 0.929 . S
C219 C217 1.446 . S
C219 C220 1.332 . S
C220 H200 0.931 . S
C220 C219 1.332 . S
C220 C221 1.267 . S
C221 H189 0.929 . S
C221 C220 1.267 . S
C221 C222 1.251 . S
C222 H192 0.929 . S
C222 N218 1.418 . S
C222 C221 1.251 . S
C223 H190 0.930 . S
C223 C225 1.406 . S
C223 C228 1.261 . S
C224 H191 0.930 . S
C224 N226 1.325 . S
C224 C227 1.357 . S
C225 H193 0.928 . S
C225 C223 1.406 . S
C225 N226 1.261 . S
N226 Co177 2.214 . S
N226 C224 1.325 . S
N226 C225 1.261 . S
C227 H197 0.931 . S
C227 C224 1.357 . S
C227 C228 1.312 . S
C228 H199 0.930 . S
C228 C223 1.261 . S
C228 C227 1.312 . S
C229 O201 1.214 . S
C229 O209 1.234 . S
C230 H202 0.929 . S
C230 C233 1.391 . S
C230 C235 1.391 . S
C231 H203 0.929 . S
C231 C232 1.390 . S
C231 N234 1.391 . S
C232 H204 0.930 . S
C232 C231 1.390 . S
C232 C233 1.392 . S
C233 H205 0.929 . S
C233 C230 1.391 . S
C233 C232 1.392 . S
N234 Co178 2.257 . S
N234 C231 1.391 . S
N234 C235 1.388 . S
C235 H206 0.930 . S
C235 C230 1.391 . S
C235 N234 1.388 . S
Co236 O238 2.143 . S
Co236 O244 2.074 . S
Co236 O247 2.093 . S
Co236 O260 2.097 . S
Co236 N277 2.151 . S
Co236 N285 2.214 . S
Co237 O238 2.160 . S
Co237 O243 2.058 . S
Co237 O253 2.057 . S
Co237 O268 2.037 . S
Co237 N272 2.145 . S
Co237 N293 2.257 . S
O238 Co236 2.143 . S
O238 Co237 2.160 . S
C239 O240 1.278 . S
C239 O247 1.224 . S
O240 C239 1.278 . S
C241 O242 1.245 . S
C241 O253 1.232 . S
O242 C241 1.245 . S
O243 Co237 2.058 . S
O243 C269 1.269 . S
O244 Co236 2.074 . S
O244 C269 1.257 . S
H245 C270 0.930 . S
H246 C276 0.930 . S
O247 Co236 2.093 . S
O247 C239 1.224 . S
H248 C280 0.929 . S
H249 C282 0.930 . S
H250 C283 0.930 . S
H251 C281 0.929 . S
H252 C284 0.928 . S
O253 Co237 2.057 . S
O253 C241 1.232 . S
H254 C273 0.929 . S
H255 C274 0.929 . S
H256 C286 0.931 . S
H257 C278 0.929 . S
H258 C287 0.930 . S
H259 C279 0.931 . S
O260 Co236 2.097 . S
O260 C288 1.214 . S
H261 C289 0.929 . S
H262 C290 0.929 . S
H263 C291 0.930 . S
H264 C292 0.929 . S
H265 C294 0.930 . S
H266 C271 0.930 . S
H267 C275 0.930 . S
O268 Co237 2.037 . S
O268 C288 1.234 . S
C269 O243 1.269 . S
C269 O244 1.257 . S
C270 H245 0.930 . S
C270 C273 1.388 . S
C270 C275 1.418 . S
C271 H266 0.930 . S
C271 C274 1.404 . S
C271 C275 1.353 . S
N272 Co237 2.145 . S
N272 C273 1.397 . S
N272 C274 1.334 . S
C273 H254 0.929 . S
C273 C270 1.388 . S
C273 N272 1.397 . S
C274 H255 0.929 . S
C274 C271 1.404 . S
C274 N272 1.334 . S
C275 H267 0.930 . S
C275 C270 1.418 . S
C275 C271 1.353 . S
C276 H246 0.930 . S
C276 N277 1.330 . S
C276 C278 1.446 . S
N277 Co236 2.151 . S
N277 C276 1.330 . S
N277 C281 1.418 . S
C278 H257 0.929 . S
C278 C276 1.446 . S
C278 C279 1.332 . S
C279 H259 0.931 . S
C279 C278 1.332 . S
C279 C280 1.267 . S
C280 H248 0.929 . S
C280 C279 1.267 . S
C280 C281 1.251 . S
C281 H251 0.929 . S
C281 N277 1.418 . S
C281 C280 1.251 . S
C282 H249 0.930 . S
C282 C284 1.406 1_655 S
C282 C287 1.261 . S
C283 H250 0.930 . S
C283 N285 1.325 . S
C283 C286 1.357 1_455 S
C284 H252 0.928 . S
C284 C282 1.406 1_455 S
C284 N285 1.261 . S
N285 Co236 2.214 . S
N285 C283 1.325 . S
N285 C284 1.261 . S
C286 H256 0.931 . S
C286 C283 1.357 1_655 S
C286 C287 1.312 . S
C287 H258 0.930 . S
C287 C282 1.261 . S
C287 C286 1.312 . S
C288 O260 1.214 . S
C288 O268 1.234 . S
C289 H261 0.929 . S
C289 C292 1.391 . S
C289 C294 1.391 . S
C290 H262 0.929 . S
C290 C291 1.390 . S
C290 N293 1.391 . S
C291 H263 0.930 . S
C291 C290 1.390 . S
C291 C292 1.392 . S
C292 H264 0.929 . S
C292 C289 1.391 . S
C292 C291 1.392 . S
N293 Co237 2.257 . S
N293 C290 1.391 . S
N293 C294 1.388 . S
C294 H265 0.930 . S
C294 C289 1.391 . S
C294 N293 1.388 . S
Co295 O297 2.143 . S
Co295 O303 2.074 . S
Co295 O306 2.093 . S
Co295 O319 2.097 . S
Co295 N336 2.151 . S
Co295 N344 2.214 . S
Co296 O297 2.160 . S
Co296 O302 2.058 . S
Co296 O312 2.057 . S
Co296 O327 2.037 . S
Co296 N331 2.145 . S
Co296 N352 2.257 . S
O297 Co295 2.143 . S
O297 Co296 2.160 . S
C298 O299 1.278 . S
C298 O306 1.224 . S
O299 C298 1.278 . S
C300 O301 1.245 . S
C300 O312 1.232 . S
O301 C300 1.245 . S
O302 Co296 2.058 . S
O302 C328 1.269 . S
O303 Co295 2.074 . S
O303 C328 1.257 . S
H304 C329 0.930 . S
H305 C335 0.930 . S
O306 Co295 2.093 . S
O306 C298 1.224 . S
H307 C339 0.929 . S
H308 C341 0.930 . S
H309 C342 0.930 . S
H310 C340 0.929 . S
H311 C343 0.928 . S
O312 Co296 2.057 . S
O312 C300 1.232 . S
H313 C332 0.929 . S
H314 C333 0.929 . S
H315 C345 0.931 . S
H316 C337 0.929 . S
H317 C346 0.930 . S
H318 C338 0.931 . S
O319 Co295 2.097 . S
O319 C347 1.214 . S
H320 C348 0.929 . S
H321 C349 0.929 . S
H322 C350 0.930 . S
H323 C351 0.929 . S
H324 C353 0.930 . S
H325 C330 0.930 . S
H326 C334 0.930 . S
O327 Co296 2.037 . S
O327 C347 1.234 . S
C328 O302 1.269 . S
C328 O303 1.257 . S
C329 H304 0.930 . S
C329 C332 1.388 . S
C329 C334 1.418 . S
C330 H325 0.930 . S
C330 C333 1.404 . S
C330 C334 1.353 . S
N331 Co296 2.145 . S
N331 C332 1.397 . S
N331 C333 1.334 . S
C332 H313 0.929 . S
C332 C329 1.388 . S
C332 N331 1.397 . S
C333 H314 0.929 . S
C333 C330 1.404 . S
C333 N331 1.334 . S
C334 H326 0.930 . S
C334 C329 1.418 . S
C334 C330 1.353 . S
C335 H305 0.930 . S
C335 N336 1.330 . S
C335 C337 1.446 . S
N336 Co295 2.151 . S
N336 C335 1.330 . S
N336 C340 1.418 . S
C337 H316 0.929 . S
C337 C335 1.446 . S
C337 C338 1.332 . S
C338 H318 0.931 . S
C338 C337 1.332 . S
C338 C339 1.267 . S
C339 H307 0.929 . S
C339 C338 1.267 . S
C339 C340 1.251 . S
C340 H310 0.929 . S
C340 N336 1.418 . S
C340 C339 1.251 . S
C341 H308 0.930 . S
C341 C343 1.406 . S
C341 C346 1.261 . S
C342 H309 0.930 . S
C342 N344 1.325 . S
C342 C345 1.357 . S
C343 H311 0.928 . S
C343 C341 1.406 . S
C343 N344 1.261 . S
N344 Co295 2.214 . S
N344 C342 1.325 . S
N344 C343 1.261 . S
C345 H315 0.931 . S
C345 C342 1.357 . S
C345 C346 1.312 . S
C346 H317 0.930 . S
C346 C341 1.261 . S
C346 C345 1.312 . S
C347 O319 1.214 . S
C347 O327 1.234 . S
C348 H320 0.929 . S
C348 C351 1.391 . S
C348 C353 1.391 . S
C349 H321 0.929 . S
C349 C350 1.390 . S
C349 N352 1.391 . S
C350 H322 0.930 . S
C350 C349 1.390 . S
C350 C351 1.392 . S
C351 H323 0.929 . S
C351 C348 1.391 . S
C351 C350 1.392 . S
N352 Co296 2.257 . S
N352 C349 1.391 . S
N352 C353 1.388 . S
C353 H324 0.930 . S
C353 C348 1.391 . S
C353 N352 1.388 . S
Co354 O356 2.143 . S
Co354 O362 2.074 . S
Co354 O365 2.093 . S
Co354 O378 2.097 . S
Co354 N395 2.151 . S
Co354 N403 2.214 . S
Co355 O356 2.160 . S
Co355 O361 2.058 . S
Co355 O371 2.057 . S
Co355 O386 2.037 . S
Co355 N390 2.145 . S
Co355 N411 2.257 . S
O356 Co354 2.143 . S
O356 Co355 2.160 . S
C357 O358 1.278 . S
C357 O365 1.224 . S
O358 C357 1.278 . S
C359 O360 1.245 . S
C359 O371 1.232 . S
O360 C359 1.245 . S
O361 Co355 2.058 . S
O361 C387 1.269 . S
O362 Co354 2.074 . S
O362 C387 1.257 . S
H363 C388 0.930 . S
H364 C394 0.930 . S
O365 Co354 2.093 . S
O365 C357 1.224 . S
H366 C398 0.929 . S
H367 C400 0.930 . S
H368 C401 0.930 . S
H369 C399 0.929 . S
H370 C402 0.928 . S
O371 Co355 2.057 . S
O371 C359 1.232 . S
H372 C391 0.929 . S
H373 C392 0.929 . S
H374 C404 0.931 . S
H375 C396 0.929 . S
H376 C405 0.930 . S
H377 C397 0.931 . S
O378 Co354 2.097 . S
O378 C406 1.214 . S
H379 C407 0.929 . S
H380 C408 0.929 . S
H381 C409 0.930 . S
H382 C410 0.929 . S
H383 C412 0.944 . S
H384 C389 0.930 . S
H385 C393 0.930 . S
O386 Co355 2.037 . S
O386 C406 1.234 . S
C387 O361 1.269 . S
C387 O362 1.257 . S
C388 H363 0.930 . S
C388 C391 1.388 . S
C388 C393 1.418 . S
C389 H384 0.930 . S
C389 C392 1.404 . S
C389 C393 1.353 . S
N390 Co355 2.145 . S
N390 C391 1.397 . S
N390 C392 1.334 . S
C391 H372 0.929 . S
C391 C388 1.388 . S
C391 N390 1.397 . S
C392 H373 0.929 . S
C392 C389 1.404 . S
C392 N390 1.334 . S
C393 H385 0.930 . S
C393 C388 1.418 . S
C393 C389 1.353 . S
C394 H364 0.930 . S
C394 N395 1.330 . S
C394 C396 1.446 . S
N395 Co354 2.151 . S
N395 C394 1.330 . S
N395 C399 1.418 . S
C396 H375 0.929 . S
C396 C394 1.446 . S
C396 C397 1.332 . S
C397 H377 0.931 . S
C397 C396 1.332 . S
C397 C398 1.267 . S
C398 H366 0.929 . S
C398 C397 1.267 . S
C398 C399 1.251 . S
C399 H369 0.929 . S
C399 N395 1.418 . S
C399 C398 1.251 . S
C400 H367 0.930 . S
C400 C402 1.406 . S
C400 C405 1.261 . S
C401 H368 0.930 . S
C401 N403 1.325 . S
C401 C404 1.357 . S
C402 H370 0.928 . S
C402 C400 1.406 . S
C402 N403 1.261 . S
N403 Co354 2.214 . S
N403 C401 1.325 . S
N403 C402 1.261 . S
C404 H374 0.931 . S
C404 C401 1.357 . S
C404 C405 1.312 . S
C405 H376 0.930 . S
C405 C400 1.261 . S
C405 C404 1.312 . S
C406 O378 1.214 . S
C406 O386 1.234 . S
C407 H379 0.929 . S
C407 C410 1.391 . S
C407 C412 1.342 1_554 S
C408 H380 0.929 . S
C408 C409 1.390 1_556 S
C408 N411 1.391 . S
C409 H381 0.930 . S
C409 C408 1.390 1_554 S
C409 C410 1.392 . S
C410 H382 0.929 . S
C410 C407 1.391 . S
C410 C409 1.392 . S
N411 Co355 2.257 . S
N411 C408 1.391 . S
N411 C412 1.426 . S
C412 H383 0.944 . S
C412 C407 1.342 1_556 S
C412 N411 1.426 . S
Co413 O415 2.143 . S
Co413 O421 2.074 . S
Co413 O424 2.093 . S
Co413 O437 2.097 . S
Co413 N454 2.151 . S
Co413 N462 2.214 . S
Co414 O415 2.160 . S
Co414 O420 2.058 . S
Co414 O430 2.057 . S
Co414 O445 2.037 . S
Co414 N449 2.145 . S
Co414 N470 2.257 . S
O415 Co413 2.143 . S
O415 Co414 2.160 . S
C416 O417 1.278 . S
C416 O424 1.224 . S
O417 C416 1.278 . S
C418 O419 1.245 . S
C418 O430 1.232 . S
O419 C418 1.245 . S
O420 Co414 2.058 . S
O420 C446 1.269 . S
O421 Co413 2.074 . S
O421 C446 1.257 . S
H422 C447 0.930 1_455 S
H423 C453 0.930 . S
O424 Co413 2.093 . S
O424 C416 1.224 . S
H425 C457 0.929 . S
H426 C459 0.930 . S
H427 C460 0.930 . S
H428 C458 0.929 . S
H429 C461 0.928 . S
O430 Co414 2.057 . S
O430 C418 1.232 . S
H431 C450 0.929 . S
H432 C451 0.929 . S
H433 C463 0.931 . S
H434 C455 0.929 . S
H435 C464 0.930 . S
H436 C456 0.931 . S
O437 Co413 2.097 . S
O437 C465 1.214 . S
H438 C466 0.929 . S
H439 C467 0.929 . S
H440 C468 0.930 . S
H441 C469 0.929 . S
H442 C471 0.930 . S
H443 C448 0.930 . S
H444 C452 0.953 . S
O445 Co414 2.037 . S
O445 C465 1.234 . S
C446 O420 1.269 . S
C446 O421 1.257 . S
C447 H422 0.930 1_655 S
C447 C450 1.388 . S
C447 C452 1.414 1_655 S
C448 H443 0.930 . S
C448 C451 1.404 . S
C448 C452 1.335 1_655 S
N449 Co414 2.145 . S
N449 C450 1.397 . S
N449 C451 1.334 . S
C450 H431 0.929 . S
C450 C447 1.388 . S
C450 N449 1.397 . S
C451 H432 0.929 . S
C451 C448 1.404 . S
C451 N449 1.334 . S
C452 H444 0.953 . S
C452 C447 1.414 1_455 S
C452 C448 1.335 1_455 S
C453 H423 0.930 . S
C453 N454 1.330 . S
C453 C455 1.446 . S
N454 Co413 2.151 . S
N454 C453 1.330 . S
N454 C458 1.418 . S
C455 H434 0.929 . S
C455 C453 1.446 . S
C455 C456 1.332 . S
C456 H436 0.931 . S
C456 C455 1.332 . S
C456 C457 1.267 . S
C457 H425 0.929 . S
C457 C456 1.267 . S
C457 C458 1.251 . S
C458 H428 0.929 . S
C458 N454 1.418 . S
C458 C457 1.251 . S
C459 H426 0.930 . S
C459 C461 1.406 . S
C459 C464 1.261 . S
C460 H427 0.930 . S
C460 N462 1.325 . S
C460 C463 1.357 . S
C461 H429 0.928 . S
C461 C459 1.406 . S
C461 N462 1.261 . S
N462 Co413 2.214 . S
N462 C460 1.325 . S
N462 C461 1.261 . S
C463 H433 0.931 . S
C463 C460 1.357 . S
C463 C464 1.312 . S
C464 H435 0.930 . S
C464 C459 1.261 . S
C464 C463 1.312 . S
C465 O437 1.214 . S
C465 O445 1.234 . S
C466 H438 0.929 . S
C466 C469 1.391 . S
C466 C471 1.391 . S
C467 H439 0.929 . S
C467 C468 1.390 . S
C467 N470 1.391 . S
C468 H440 0.930 . S
C468 C467 1.390 . S
C468 C469 1.392 . S
C469 H441 0.929 . S
C469 C466 1.391 . S
C469 C468 1.392 . S
N470 Co414 2.257 . S
N470 C467 1.391 . S
N470 C471 1.388 . S
C471 H442 0.930 . S
C471 C466 1.391 . S
C471 N470 1.388 . S
Co472 O474 2.143 . S
Co472 O480 2.074 . S
Co472 O483 2.093 . S
Co472 O496 2.097 . S
Co472 N513 2.151 . S
Co472 N521 2.214 . S
Co473 O474 2.160 . S
Co473 O479 2.058 . S
Co473 O489 2.057 . S
Co473 O504 2.037 . S
Co473 N508 2.145 . S
Co473 N529 2.257 . S
O474 Co472 2.143 . S
O474 Co473 2.160 . S
C475 O476 1.278 . S
C475 O483 1.224 . S
O476 C475 1.278 . S
C477 O478 1.245 . S
C477 O489 1.232 . S
O478 C477 1.245 . S
O479 Co473 2.058 . S
O479 C505 1.269 . S
O480 Co472 2.074 . S
O480 C505 1.257 . S
H481 C506 0.930 . S
H482 C512 0.930 . S
O483 Co472 2.093 . S
O483 C475 1.224 . S
H484 C516 0.929 . S
H485 C518 0.930 . S
H486 C519 0.930 . S
H487 C517 0.929 . S
H488 C520 0.928 . S
O489 Co473 2.057 . S
O489 C477 1.232 . S
H490 C509 0.929 . S
H491 C510 0.929 . S
H492 C522 0.931 . S
H493 C514 0.929 . S
H494 C523 0.930 . S
H495 C515 0.931 . S
O496 Co472 2.097 . S
O496 C524 1.214 . S
H497 C525 0.929 . S
H498 C526 0.929 . S
H499 C527 0.930 . S
H500 C528 0.929 . S
H501 C530 0.944 . S
H502 C507 0.930 . S
H503 C511 0.930 . S
O504 Co473 2.037 . S
O504 C524 1.234 . S
C505 O479 1.269 . S
C505 O480 1.257 . S
C506 H481 0.930 . S
C506 C509 1.388 . S
C506 C511 1.418 . S
C507 H502 0.930 . S
C507 C510 1.404 . S
C507 C511 1.353 . S
N508 Co473 2.145 . S
N508 C509 1.397 . S
N508 C510 1.334 . S
C509 H490 0.929 . S
C509 C506 1.388 . S
C509 N508 1.397 . S
C510 H491 0.929 . S
C510 C507 1.404 . S
C510 N508 1.334 . S
C511 H503 0.930 . S
C511 C506 1.418 . S
C511 C507 1.353 . S
C512 H482 0.930 . S
C512 N513 1.330 . S
C512 C514 1.446 . S
N513 Co472 2.151 . S
N513 C512 1.330 . S
N513 C517 1.418 . S
C514 H493 0.929 . S
C514 C512 1.446 . S
C514 C515 1.332 . S
C515 H495 0.931 . S
C515 C514 1.332 . S
C515 C516 1.267 . S
C516 H484 0.929 . S
C516 C515 1.267 . S
C516 C517 1.251 . S
C517 H487 0.929 . S
C517 N513 1.418 . S
C517 C516 1.251 . S
C518 H485 0.930 . S
C518 C520 1.406 1_455 S
C518 C523 1.261 . S
C519 H486 0.930 . S
C519 N521 1.325 . S
C519 C522 1.357 1_655 S
C520 H488 0.928 . S
C520 C518 1.406 1_655 S
C520 N521 1.261 . S
N521 Co472 2.214 . S
N521 C519 1.325 . S
N521 C520 1.261 . S
C522 H492 0.931 . S
C522 C519 1.357 1_455 S
C522 C523 1.312 . S
C523 H494 0.930 . S
C523 C518 1.261 . S
C523 C522 1.312 . S
C524 O496 1.214 . S
C524 O504 1.234 . S
C525 H497 0.929 . S
C525 C528 1.391 . S
C525 C530 1.342 1_554 S
C526 H498 0.929 . S
C526 C527 1.390 1_556 S
C526 N529 1.391 . S
C527 H499 0.930 . S
C527 C526 1.390 1_554 S
C527 C528 1.392 . S
C528 H500 0.929 . S
C528 C525 1.391 . S
C528 C527 1.392 . S
N529 Co473 2.257 . S
N529 C526 1.391 . S
N529 C530 1.426 . S
C530 H501 0.944 . S
C530 C525 1.342 1_556 S
C530 N529 1.426 . S
Co531 O533 2.143 . S
Co531 O539 2.074 . S
Co531 O542 2.093 . S
Co531 O555 2.097 . S
Co531 N572 2.151 . S
Co531 N580 2.214 . S
Co532 O533 2.160 . S
Co532 O538 2.058 . S
Co532 O548 2.057 . S
Co532 O563 2.037 . S
Co532 N567 2.145 . S
Co532 N588 2.257 . S
O533 Co531 2.143 . S
O533 Co532 2.160 . S
C534 O535 1.278 . S
C534 O542 1.224 . S
O535 C534 1.278 . S
C536 O537 1.245 . S
C536 O548 1.232 . S
O537 C536 1.245 . S
O538 Co532 2.058 . S
O538 C564 1.269 . S
O539 Co531 2.074 . S
O539 C564 1.257 . S
H540 C565 0.930 1_655 S
H541 C571 0.930 . S
O542 Co531 2.093 . S
O542 C534 1.224 . S
H543 C575 0.929 . S
H544 C577 0.930 . S
H545 C578 0.930 . S
H546 C576 0.929 . S
H547 C579 0.928 . S
O548 Co532 2.057 . S
O548 C536 1.232 . S
H549 C568 0.929 . S
H550 C569 0.929 . S
H551 C581 0.931 . S
H552 C573 0.929 . S
H553 C582 0.930 . S
H554 C574 0.931 . S
O555 Co531 2.097 . S
O555 C583 1.214 . S
H556 C584 0.929 . S
H557 C585 0.929 . S
H558 C586 0.930 . S
H559 C587 0.929 . S
H560 C589 0.930 . S
H561 C566 0.930 . S
H562 C570 0.953 . S
O563 Co532 2.037 . S
O563 C583 1.234 . S
C564 O538 1.269 . S
C564 O539 1.257 . S
C565 H540 0.930 1_455 S
C565 C568 1.388 . S
C565 C570 1.414 1_455 S
C566 H561 0.930 . S
C566 C569 1.404 . S
C566 C570 1.335 1_455 S
N567 Co532 2.145 . S
N567 C568 1.397 . S
N567 C569 1.334 . S
C568 H549 0.929 . S
C568 C565 1.388 . S
C568 N567 1.397 . S
C569 H550 0.929 . S
C569 C566 1.404 . S
C569 N567 1.334 . S
C570 H562 0.953 . S
C570 C565 1.414 1_655 S
C570 C566 1.335 1_655 S
C571 H541 0.930 . S
C571 N572 1.330 . S
C571 C573 1.446 . S
N572 Co531 2.151 . S
N572 C571 1.330 . S
N572 C576 1.418 . S
C573 H552 0.929 . S
C573 C571 1.446 . S
C573 C574 1.332 . S
C574 H554 0.931 . S
C574 C573 1.332 . S
C574 C575 1.267 . S
C575 H543 0.929 . S
C575 C574 1.267 . S
C575 C576 1.251 . S
C576 H546 0.929 . S
C576 N572 1.418 . S
C576 C575 1.251 . S
C577 H544 0.930 . S
C577 C579 1.406 . S
C577 C582 1.261 . S
C578 H545 0.930 . S
C578 N580 1.325 . S
C578 C581 1.357 . S
C579 H547 0.928 . S
C579 C577 1.406 . S
C579 N580 1.261 . S
N580 Co531 2.214 . S
N580 C578 1.325 . S
N580 C579 1.261 . S
C581 H551 0.931 . S
C581 C578 1.357 . S
C581 C582 1.312 . S
C582 H553 0.930 . S
C582 C577 1.261 . S
C582 C581 1.312 . S
C583 O555 1.214 . S
C583 O563 1.234 . S
C584 H556 0.929 . S
C584 C587 1.391 . S
C584 C589 1.391 . S
C585 H557 0.929 . S
C585 C586 1.390 . S
C585 N588 1.391 . S
C586 H558 0.930 . S
C586 C585 1.390 . S
C586 C587 1.392 . S
C587 H559 0.929 . S
C587 C584 1.391 . S
C587 C586 1.392 . S
N588 Co532 2.257 . S
N588 C585 1.391 . S
N588 C589 1.388 . S
C589 H560 0.930 . S
C589 C584 1.391 . S
C589 N588 1.388 . S
Co590 O592 2.143 . S
Co590 O598 2.074 . S
Co590 O601 2.093 . S
Co590 O614 2.097 . S
Co590 N631 2.151 . S
Co590 N639 2.214 . S
Co591 O592 2.160 . S
Co591 O597 2.058 . S
Co591 O607 2.057 . S
Co591 O622 2.037 . S
Co591 N626 2.145 . S
Co591 N647 2.257 . S
O592 Co590 2.143 . S
O592 Co591 2.160 . S
C593 O594 1.278 . S
C593 O601 1.224 . S
O594 C593 1.278 . S
C595 O596 1.245 . S
C595 O607 1.232 . S
O596 C595 1.245 . S
O597 Co591 2.058 . S
O597 C623 1.269 . S
O598 Co590 2.074 . S
O598 C623 1.257 . S
H599 C624 0.930 . S
H600 C630 0.930 . S
O601 Co590 2.093 . S
O601 C593 1.224 . S
H602 C634 0.929 . S
H603 C636 0.930 . S
H604 C637 0.930 . S
H605 C635 0.929 . S
H606 C638 0.928 . S
O607 Co591 2.057 . S
O607 C595 1.232 . S
H608 C627 0.929 . S
H609 C628 0.929 . S
H610 C640 0.931 . S
H611 C632 0.929 . S
H612 C641 0.930 . S
H613 C633 0.931 . S
O614 Co590 2.097 . S
O614 C642 1.214 . S
H615 C643 0.929 . S
H616 C644 0.929 . S
H617 C645 0.930 . S
H618 C646 0.929 . S
H619 C648 0.930 . S
H620 C625 0.930 . S
H621 C629 0.930 . S
O622 Co591 2.037 . S
O622 C642 1.234 . S
C623 O597 1.269 . S
C623 O598 1.257 . S
C624 H599 0.930 . S
C624 C627 1.388 . S
C624 C629 1.418 . S
C625 H620 0.930 . S
C625 C628 1.404 . S
C625 C629 1.353 . S
N626 Co591 2.145 . S
N626 C627 1.397 . S
N626 C628 1.334 . S
C627 H608 0.929 . S
C627 C624 1.388 . S
C627 N626 1.397 . S
C628 H609 0.929 . S
C628 C625 1.404 . S
C628 N626 1.334 . S
C629 H621 0.930 . S
C629 C624 1.418 . S
C629 C625 1.353 . S
C630 H600 0.930 . S
C630 N631 1.330 . S
C630 C632 1.446 . S
N631 Co590 2.151 . S
N631 C630 1.330 . S
N631 C635 1.418 . S
C632 H611 0.929 . S
C632 C630 1.446 . S
C632 C633 1.332 . S
C633 H613 0.931 . S
C633 C632 1.332 . S
C633 C634 1.267 . S
C634 H602 0.929 . S
C634 C633 1.267 . S
C634 C635 1.251 . S
C635 H605 0.929 . S
C635 N631 1.418 . S
C635 C634 1.251 . S
C636 H603 0.930 . S
C636 C638 1.406 . S
C636 C641 1.261 . S
C637 H604 0.930 . S
C637 N639 1.325 . S
C637 C640 1.357 . S
C638 H606 0.928 . S
C638 C636 1.406 . S
C638 N639 1.261 . S
N639 Co590 2.214 . S
N639 C637 1.325 . S
N639 C638 1.261 . S
C640 H610 0.931 . S
C640 C637 1.357 . S
C640 C641 1.312 . S
C641 H612 0.930 . S
C641 C636 1.261 . S
C641 C640 1.312 . S
C642 O614 1.214 . S
C642 O622 1.234 . S
C643 H615 0.929 . S
C643 C646 1.391 . S
C643 C648 1.391 . S
C644 H616 0.929 . S
C644 C645 1.390 . S
C644 N647 1.391 . S
C645 H617 0.930 . S
C645 C644 1.390 . S
C645 C646 1.392 . S
C646 H618 0.929 . S
C646 C643 1.391 . S
C646 C645 1.392 . S
N647 Co591 2.257 . S
N647 C644 1.391 . S
N647 C648 1.388 . S
C648 H619 0.930 . S
C648 C643 1.391 . S
C648 N647 1.388 . S
Co649 O651 2.143 . S
Co649 O657 2.074 . S
Co649 O660 2.093 . S
Co649 O673 2.097 . S
Co649 N690 2.151 . S
Co649 N698 2.214 . S
Co650 O651 2.160 . S
Co650 O656 2.058 . S
Co650 O666 2.057 . S
Co650 O681 2.037 . S
Co650 N685 2.145 . S
Co650 N706 2.257 . S
O651 Co649 2.143 . S
O651 Co650 2.160 . S
C652 O653 1.278 . S
C652 O660 1.224 . S
O653 C652 1.278 . S
C654 O655 1.245 . S
C654 O666 1.232 . S
O655 C654 1.245 . S
O656 Co650 2.058 . S
O656 C682 1.269 . S
O657 Co649 2.074 . S
O657 C682 1.257 . S
H658 C683 0.930 . S
H659 C689 0.930 . S
O660 Co649 2.093 . S
O660 C652 1.224 . S
H661 C693 0.929 . S
H662 C695 0.930 . S
H663 C696 0.930 . S
H664 C694 0.929 . S
H665 C697 0.928 . S
O666 Co650 2.057 . S
O666 C654 1.232 . S
H667 C686 0.929 . S
H668 C687 0.929 . S
H669 C699 0.931 . S
H670 C691 0.929 . S
H671 C700 0.930 . S
H672 C692 0.931 . S
O673 Co649 2.097 . S
O673 C701 1.214 . S
H674 C702 0.929 . S
H675 C703 0.929 . S
H676 C704 0.930 . S
H677 C705 0.929 . S
H678 C707 0.930 . S
H679 C684 0.930 . S
H680 C688 0.930 . S
O681 Co650 2.037 . S
O681 C701 1.234 . S
C682 O656 1.269 . S
C682 O657 1.257 . S
C683 H658 0.930 . S
C683 C686 1.388 . S
C683 C688 1.418 . S
C684 H679 0.930 . S
C684 C687 1.404 . S
C684 C688 1.353 . S
N685 Co650 2.145 . S
N685 C686 1.397 . S
N685 C687 1.334 . S
C686 H667 0.929 . S
C686 C683 1.388 . S
C686 N685 1.397 . S
C687 H668 0.929 . S
C687 C684 1.404 . S
C687 N685 1.334 . S
C688 H680 0.930 . S
C688 C683 1.418 . S
C688 C684 1.353 . S
C689 H659 0.930 . S
C689 N690 1.330 . S
C689 C691 1.446 . S
N690 Co649 2.151 . S
N690 C689 1.330 . S
N690 C694 1.418 . S
C691 H670 0.929 . S
C691 C689 1.446 . S
C691 C692 1.332 . S
C692 H672 0.931 . S
C692 C691 1.332 . S
C692 C693 1.267 . S
C693 H661 0.929 . S
C693 C692 1.267 . S
C693 C694 1.251 . S
C694 H664 0.929 . S
C694 N690 1.418 . S
C694 C693 1.251 . S
C695 H662 0.930 . S
C695 C697 1.406 . S
C695 C700 1.261 . S
C696 H663 0.930 . S
C696 N698 1.325 . S
C696 C699 1.357 . S
C697 H665 0.928 . S
C697 C695 1.406 . S
C697 N698 1.261 . S
N698 Co649 2.214 . S
N698 C696 1.325 . S
N698 C697 1.261 . S
C699 H669 0.931 . S
C699 C696 1.357 . S
C699 C700 1.312 . S
C700 H671 0.930 . S
C700 C695 1.261 . S
C700 C699 1.312 . S
C701 O673 1.214 . S
C701 O681 1.234 . S
C702 H674 0.929 . S
C702 C705 1.391 . S
C702 C707 1.391 . S
C703 H675 0.929 . S
C703 C704 1.390 . S
C703 N706 1.391 . S
C704 H676 0.930 . S
C704 C703 1.390 . S
C704 C705 1.392 . S
C705 H677 0.929 . S
C705 C702 1.391 . S
C705 C704 1.392 . S
N706 Co650 2.257 . S
N706 C703 1.391 . S
N706 C707 1.388 . S
C707 H678 0.930 . S
C707 C702 1.391 . S
C707 N706 1.388 . S
Co708 O710 2.143 . S
Co708 O716 2.074 . S
Co708 O719 2.093 . S
Co708 O732 2.097 . S
Co708 N749 2.151 . S
Co708 N757 2.214 . S
Co709 O710 2.160 . S
Co709 O715 2.058 . S
Co709 O725 2.057 . S
Co709 O740 2.037 . S
Co709 N744 2.145 . S
Co709 N765 2.257 . S
O710 Co708 2.143 . S
O710 Co709 2.160 . S
C711 O712 1.278 . S
C711 O719 1.224 . S
O712 C711 1.278 . S
C713 O714 1.245 . S
C713 O725 1.232 . S
O714 C713 1.245 . S
O715 Co709 2.058 . S
O715 C741 1.269 . S
O716 Co708 2.074 . S
O716 C741 1.257 . S
H717 C742 0.930 . S
H718 C748 0.930 . S
O719 Co708 2.093 . S
O719 C711 1.224 . S
H720 C752 0.929 . S
H721 C754 0.930 . S
H722 C755 0.930 . S
H723 C753 0.929 . S
H724 C756 0.928 . S
O725 Co709 2.057 . S
O725 C713 1.232 . S
H726 C745 0.929 . S
H727 C746 0.929 . S
H728 C758 0.931 . S
H729 C750 0.929 . S
H730 C759 0.930 . S
H731 C751 0.931 . S
O732 Co708 2.097 . S
O732 C760 1.214 . S
H733 C761 0.929 . S
H734 C762 0.929 . S
H735 C763 0.930 . S
H736 C764 0.929 . S
H737 C766 0.930 . S
H738 C743 0.930 . S
H739 C747 0.930 . S
O740 Co709 2.037 . S
O740 C760 1.234 . S
C741 O715 1.269 . S
C741 O716 1.257 . S
C742 H717 0.930 . S
C742 C745 1.388 . S
C742 C747 1.418 . S
C743 H738 0.930 . S
C743 C746 1.404 . S
C743 C747 1.353 . S
N744 Co709 2.145 . S
N744 C745 1.397 . S
N744 C746 1.334 . S
C745 H726 0.929 . S
C745 C742 1.388 . S
C745 N744 1.397 . S
C746 H727 0.929 . S
C746 C743 1.404 . S
C746 N744 1.334 . S
C747 H739 0.930 . S
C747 C742 1.418 . S
C747 C743 1.353 . S
C748 H718 0.930 . S
C748 N749 1.330 . S
C748 C750 1.446 . S
N749 Co708 2.151 . S
N749 C748 1.330 . S
N749 C753 1.418 . S
C750 H729 0.929 . S
C750 C748 1.446 . S
C750 C751 1.332 . S
C751 H731 0.931 . S
C751 C750 1.332 . S
C751 C752 1.267 . S
C752 H720 0.929 . S
C752 C751 1.267 . S
C752 C753 1.251 . S
C753 H723 0.929 . S
C753 N749 1.418 . S
C753 C752 1.251 . S
C754 H721 0.930 . S
C754 C756 1.406 1_455 S
C754 C759 1.261 . S
C755 H722 0.930 . S
C755 N757 1.325 . S
C755 C758 1.357 1_655 S
C756 H724 0.928 . S
C756 C754 1.406 1_655 S
C756 N757 1.261 . S
N757 Co708 2.214 . S
N757 C755 1.325 . S
N757 C756 1.261 . S
C758 H728 0.931 . S
C758 C755 1.357 1_455 S
C758 C759 1.312 . S
C759 H730 0.930 . S
C759 C754 1.261 . S
C759 C758 1.312 . S
C760 O732 1.214 . S
C760 O740 1.234 . S
C761 H733 0.929 . S
C761 C764 1.391 . S
C761 C766 1.391 . S
C762 H734 0.929 . S
C762 C763 1.390 . S
C762 N765 1.391 . S
C763 H735 0.930 . S
C763 C762 1.390 . S
C763 C764 1.392 . S
C764 H736 0.929 . S
C764 C761 1.391 . S
C764 C763 1.392 . S
N765 Co709 2.257 . S
N765 C762 1.391 . S
N765 C766 1.388 . S
C766 H737 0.930 . S
C766 C761 1.391 . S
C766 N765 1.388 . S
Co767 O769 2.143 . S
Co767 O775 2.074 . S
Co767 O778 2.093 . S
Co767 O791 2.097 . S
Co767 N808 2.151 . S
Co767 N816 2.214 . S
Co768 O769 2.160 . S
Co768 O774 2.058 . S
Co768 O784 2.057 . S
Co768 O799 2.037 . S
Co768 N803 2.145 . S
Co768 N824 2.257 . S
O769 Co767 2.143 . S
O769 Co768 2.160 . S
C770 O771 1.278 . S
C770 O778 1.224 . S
O771 C770 1.278 . S
C772 O773 1.245 . S
C772 O784 1.232 . S
O773 C772 1.245 . S
O774 Co768 2.058 . S
O774 C800 1.269 . S
O775 Co767 2.074 . S
O775 C800 1.257 . S
H776 C801 0.930 . S
H777 C807 0.930 . S
O778 Co767 2.093 . S
O778 C770 1.224 . S
H779 C811 0.929 . S
H780 C813 0.930 . S
H781 C814 0.930 . S
H782 C812 0.929 . S
H783 C815 0.928 . S
O784 Co768 2.057 . S
O784 C772 1.232 . S
H785 C804 0.929 . S
H786 C805 0.929 . S
H787 C817 0.931 . S
H788 C809 0.929 . S
H789 C818 0.930 . S
H790 C810 0.931 . S
O791 Co767 2.097 . S
O791 C819 1.214 . S
H792 C820 0.929 . S
H793 C821 0.929 . S
H794 C822 0.930 . S
H795 C823 0.929 . S
H796 C825 0.930 . S
H797 C802 0.930 . S
H798 C806 0.930 . S
O799 Co768 2.037 . S
O799 C819 1.234 . S
C800 O774 1.269 . S
C800 O775 1.257 . S
C801 H776 0.930 . S
C801 C804 1.388 . S
C801 C806 1.418 . S
C802 H797 0.930 . S
C802 C805 1.404 . S
C802 C806 1.353 . S
N803 Co768 2.145 . S
N803 C804 1.397 . S
N803 C805 1.334 . S
C804 H785 0.929 . S
C804 C801 1.388 . S
C804 N803 1.397 . S
C805 H786 0.929 . S
C805 C802 1.404 . S
C805 N803 1.334 . S
C806 H798 0.930 . S
C806 C801 1.418 . S
C806 C802 1.353 . S
C807 H777 0.930 . S
C807 N808 1.330 . S
C807 C809 1.446 . S
N808 Co767 2.151 . S
N808 C807 1.330 . S
N808 C812 1.418 . S
C809 H788 0.929 . S
C809 C807 1.446 . S
C809 C810 1.332 . S
C810 H790 0.931 . S
C810 C809 1.332 . S
C810 C811 1.267 . S
C811 H779 0.929 . S
C811 C810 1.267 . S
C811 C812 1.251 . S
C812 H782 0.929 . S
C812 N808 1.418 . S
C812 C811 1.251 . S
C813 H780 0.930 . S
C813 C815 1.406 . S
C813 C818 1.261 . S
C814 H781 0.930 . S
C814 N816 1.325 . S
C814 C817 1.357 . S
C815 H783 0.928 . S
C815 C813 1.406 . S
C815 N816 1.261 . S
N816 Co767 2.214 . S
N816 C814 1.325 . S
N816 C815 1.261 . S
C817 H787 0.931 . S
C817 C814 1.357 . S
C817 C818 1.312 . S
C818 H789 0.930 . S
C818 C813 1.261 . S
C818 C817 1.312 . S
C819 O791 1.214 . S
C819 O799 1.234 . S
C820 H792 0.929 . S
C820 C823 1.391 . S
C820 C825 1.391 . S
C821 H793 0.929 . S
C821 C822 1.390 . S
C821 N824 1.391 . S
C822 H794 0.930 . S
C822 C821 1.390 . S
C822 C823 1.392 . S
C823 H795 0.929 . S
C823 C820 1.391 . S
C823 C822 1.392 . S
N824 Co768 2.257 . S
N824 C821 1.391 . S
N824 C825 1.388 . S
C825 H796 0.930 . S
C825 C820 1.391 . S
C825 N824 1.388 . S
Co826 O828 2.143 . S
Co826 O834 2.074 . S
Co826 O837 2.093 . S
Co826 O850 2.097 . S
Co826 N867 2.151 . S
Co826 N875 2.214 . S
Co827 O828 2.160 . S
Co827 O833 2.058 . S
Co827 O843 2.057 . S
Co827 O858 2.037 . S
Co827 N862 2.145 . S
Co827 N883 2.257 . S
O828 Co826 2.143 . S
O828 Co827 2.160 . S
C829 O830 1.278 . S
C829 O837 1.224 . S
O830 C829 1.278 . S
C831 O832 1.245 . S
C831 O843 1.232 . S
O832 C831 1.245 . S
O833 Co827 2.058 . S
O833 C859 1.269 . S
O834 Co826 2.074 . S
O834 C859 1.257 . S
H835 C860 0.930 . S
H836 C866 0.930 . S
O837 Co826 2.093 . S
O837 C829 1.224 . S
H838 C870 0.929 . S
H839 C872 0.930 . S
H840 C873 0.930 . S
H841 C871 0.929 . S
H842 C874 0.928 . S
O843 Co827 2.057 . S
O843 C831 1.232 . S
H844 C863 0.929 . S
H845 C864 0.929 . S
H846 C876 0.931 . S
H847 C868 0.929 . S
H848 C877 0.930 . S
H849 C869 0.931 . S
O850 Co826 2.097 . S
O850 C878 1.214 . S
H851 C879 0.929 . S
H852 C880 0.929 . S
H853 C881 0.930 . S
H854 C882 0.929 . S
H855 C884 0.944 . S
H856 C861 0.930 . S
H857 C865 0.930 . S
O858 Co827 2.037 . S
O858 C878 1.234 . S
C859 O833 1.269 . S
C859 O834 1.257 . S
C860 H835 0.930 . S
C860 C863 1.388 . S
C860 C865 1.418 . S
C861 H856 0.930 . S
C861 C864 1.404 . S
C861 C865 1.353 . S
N862 Co827 2.145 . S
N862 C863 1.397 . S
N862 C864 1.334 . S
C863 H844 0.929 . S
C863 C860 1.388 . S
C863 N862 1.397 . S
C864 H845 0.929 . S
C864 C861 1.404 . S
C864 N862 1.334 . S
C865 H857 0.930 . S
C865 C860 1.418 . S
C865 C861 1.353 . S
C866 H836 0.930 . S
C866 N867 1.330 . S
C866 C868 1.446 . S
N867 Co826 2.151 . S
N867 C866 1.330 . S
N867 C871 1.418 . S
C868 H847 0.929 . S
C868 C866 1.446 . S
C868 C869 1.332 . S
C869 H849 0.931 . S
C869 C868 1.332 . S
C869 C870 1.267 . S
C870 H838 0.929 . S
C870 C869 1.267 . S
C870 C871 1.251 . S
C871 H841 0.929 . S
C871 N867 1.418 . S
C871 C870 1.251 . S
C872 H839 0.930 . S
C872 C874 1.406 . S
C872 C877 1.261 . S
C873 H840 0.930 . S
C873 N875 1.325 . S
C873 C876 1.357 . S
C874 H842 0.928 . S
C874 C872 1.406 . S
C874 N875 1.261 . S
N875 Co826 2.214 . S
N875 C873 1.325 . S
N875 C874 1.261 . S
C876 H846 0.931 . S
C876 C873 1.357 . S
C876 C877 1.312 . S
C877 H848 0.930 . S
C877 C872 1.261 . S
C877 C876 1.312 . S
C878 O850 1.214 . S
C878 O858 1.234 . S
C879 H851 0.929 . S
C879 C882 1.391 . S
C879 C884 1.342 1_556 S
C880 H852 0.929 . S
C880 C881 1.390 1_554 S
C880 N883 1.391 . S
C881 H853 0.930 . S
C881 C880 1.390 1_556 S
C881 C882 1.392 . S
C882 H854 0.929 . S
C882 C879 1.391 . S
C882 C881 1.392 . S
N883 Co827 2.257 . S
N883 C880 1.391 . S
N883 C884 1.426 . S
C884 H855 0.944 . S
C884 C879 1.342 1_554 S
C884 N883 1.426 . S
Co885 O887 2.143 . S
Co885 O893 2.074 . S
Co885 O896 2.093 . S
Co885 O909 2.097 . S
Co885 N926 2.151 . S
Co885 N934 2.214 . S
Co886 O887 2.160 . S
Co886 O892 2.058 . S
Co886 O902 2.057 . S
Co886 O917 2.037 . S
Co886 N921 2.145 . S
Co886 N942 2.257 . S
O887 Co885 2.143 . S
O887 Co886 2.160 . S
C888 O889 1.278 . S
C888 O896 1.224 . S
O889 C888 1.278 . S
C890 O891 1.245 . S
C890 O902 1.232 . S
O891 C890 1.245 . S
O892 Co886 2.058 . S
O892 C918 1.269 . S
O893 Co885 2.074 . S
O893 C918 1.257 . S
H894 C919 0.930 1_655 S
H895 C925 0.930 . S
O896 Co885 2.093 . S
O896 C888 1.224 . S
H897 C929 0.929 . S
H898 C931 0.930 . S
H899 C932 0.930 . S
H900 C930 0.929 . S
H901 C933 0.928 . S
O902 Co886 2.057 . S
O902 C890 1.232 . S
H903 C922 0.929 . S
H904 C923 0.929 . S
H905 C935 0.931 . S
H906 C927 0.929 . S
H907 C936 0.930 . S
H908 C928 0.931 . S
O909 Co885 2.097 . S
O909 C937 1.214 . S
H910 C938 0.929 . S
H911 C939 0.929 . S
H912 C940 0.930 . S
H913 C941 0.929 . S
H914 C943 0.930 . S
H915 C920 0.930 . S
H916 C924 0.953 . S
O917 Co886 2.037 . S
O917 C937 1.234 . S
C918 O892 1.269 . S
C918 O893 1.257 . S
C919 H894 0.930 1_455 S
C919 C922 1.388 . S
C919 C924 1.414 1_455 S
C920 H915 0.930 . S
C920 C923 1.404 . S
C920 C924 1.335 1_455 S
N921 Co886 2.145 . S
N921 C922 1.397 . S
N921 C923 1.334 . S
C922 H903 0.929 . S
C922 C919 1.388 . S
C922 N921 1.397 . S
C923 H904 0.929 . S
C923 C920 1.404 . S
C923 N921 1.334 . S
C924 H916 0.953 . S
C924 C919 1.414 1_655 S
C924 C920 1.335 1_655 S
C925 H895 0.930 . S
C925 N926 1.330 . S
C925 C927 1.446 . S
N926 Co885 2.151 . S
N926 C925 1.330 . S
N926 C930 1.418 . S
C927 H906 0.929 . S
C927 C925 1.446 . S
C927 C928 1.332 . S
C928 H908 0.931 . S
C928 C927 1.332 . S
C928 C929 1.267 . S
C929 H897 0.929 . S
C929 C928 1.267 . S
C929 C930 1.251 . S
C930 H900 0.929 . S
C930 N926 1.418 . S
C930 C929 1.251 . S
C931 H898 0.930 . S
C931 C933 1.406 . S
C931 C936 1.261 . S
C932 H899 0.930 . S
C932 N934 1.325 . S
C932 C935 1.357 . S
C933 H901 0.928 . S
C933 C931 1.406 . S
C933 N934 1.261 . S
N934 Co885 2.214 . S
N934 C932 1.325 . S
N934 C933 1.261 . S
C935 H905 0.931 . S
C935 C932 1.357 . S
C935 C936 1.312 . S
C936 H907 0.930 . S
C936 C931 1.261 . S
C936 C935 1.312 . S
C937 O909 1.214 . S
C937 O917 1.234 . S
C938 H910 0.929 . S
C938 C941 1.391 . S
C938 C943 1.391 . S
C939 H911 0.929 . S
C939 C940 1.390 . S
C939 N942 1.391 . S
C940 H912 0.930 . S
C940 C939 1.390 . S
C940 C941 1.392 . S
C941 H913 0.929 . S
C941 C938 1.391 . S
C941 C940 1.392 . S
N942 Co886 2.257 . S
N942 C939 1.391 . S
N942 C943 1.388 . S
C943 H914 0.930 . S
C943 C938 1.391 . S
C943 N942 1.388 . S
Co944 O946 2.143 . S
Co944 O952 2.074 . S
Co944 O955 2.093 . S
Co944 O968 2.097 . S
Co944 N985 2.151 . S
Co944 N993 2.214 . S
Co945 O946 2.160 . S
Co945 O951 2.058 . S
Co945 O961 2.057 . S
Co945 O976 2.037 . S
Co945 N980 2.145 . S
Co945 N1001 2.257 . S
O946 Co944 2.143 . S
O946 Co945 2.160 . S
C947 O948 1.278 . S
C947 O955 1.224 . S
O948 C947 1.278 . S
C949 O950 1.245 . S
C949 O961 1.232 . S
O950 C949 1.245 . S
O951 Co945 2.058 . S
O951 C977 1.269 . S
O952 Co944 2.074 . S
O952 C977 1.257 . S
H953 C978 0.930 . S
H954 C984 0.930 . S
O955 Co944 2.093 . S
O955 C947 1.224 . S
H956 C988 0.929 . S
H957 C990 0.930 . S
H958 C991 0.930 . S
H959 C989 0.929 . S
H960 C992 0.928 . S
O961 Co945 2.057 . S
O961 C949 1.232 . S
H962 C981 0.929 . S
H963 C982 0.929 . S
H964 C994 0.931 . S
H965 C986 0.929 . S
H966 C995 0.930 . S
H967 C987 0.931 . S
O968 Co944 2.097 . S
O968 C996 1.214 . S
H969 C997 0.929 . S
H970 C998 0.929 . S
H971 C999 0.930 . S
H972 C1000 0.929 . S
H973 C1002 0.930 . S
H974 C979 0.930 . S
H975 C983 0.930 . S
O976 Co945 2.037 . S
O976 C996 1.234 . S
C977 O951 1.269 . S
C977 O952 1.257 . S
C978 H953 0.930 . S
C978 C981 1.388 . S
C978 C983 1.418 . S
C979 H974 0.930 . S
C979 C982 1.404 . S
C979 C983 1.353 . S
N980 Co945 2.145 . S
N980 C981 1.397 . S
N980 C982 1.334 . S
C981 H962 0.929 . S
C981 C978 1.388 . S
C981 N980 1.397 . S
C982 H963 0.929 . S
C982 C979 1.404 . S
C982 N980 1.334 . S
C983 H975 0.930 . S
C983 C978 1.418 . S
C983 C979 1.353 . S
C984 H954 0.930 . S
C984 N985 1.330 . S
C984 C986 1.446 1_565 S
N985 Co944 2.151 . S
N985 C984 1.330 . S
N985 C989 1.418 . S
C986 H965 0.929 . S
C986 C984 1.446 1_545 S
C986 C987 1.332 . S
C987 H967 0.931 . S
C987 C986 1.332 . S
C987 C988 1.267 1_545 S
C988 H956 0.929 . S
C988 C987 1.267 1_565 S
C988 C989 1.251 . S
C989 H959 0.929 . S
C989 N985 1.418 . S
C989 C988 1.251 . S
C990 H957 0.930 . S
C990 C992 1.406 . S
C990 C995 1.261 . S
C991 H958 0.930 . S
C991 N993 1.325 . S
C991 C994 1.357 . S
C992 H960 0.928 . S
C992 C990 1.406 . S
C992 N993 1.261 . S
N993 Co944 2.214 . S
N993 C991 1.325 . S
N993 C992 1.261 . S
C994 H964 0.931 . S
C994 C991 1.357 . S
C994 C995 1.312 . S
C995 H966 0.930 . S
C995 C990 1.261 . S
C995 C994 1.312 . S
C996 O968 1.214 . S
C996 O976 1.234 . S
C997 H969 0.929 . S
C997 C1000 1.391 . S
C997 C1002 1.391 . S
C998 H970 0.929 . S
C998 C999 1.390 . S
C998 N1001 1.391 . S
C999 H971 0.930 . S
C999 C998 1.390 . S
C999 C1000 1.392 . S
C1000 H972 0.929 . S
C1000 C997 1.391 . S
C1000 C999 1.392 . S
N1001 Co945 2.257 . S
N1001 C998 1.391 . S
N1001 C1002 1.388 . S
C1002 H973 0.930 . S
C1002 C997 1.391 . S
C1002 N1001 1.388 . S
Co1003 O1005 2.143 . S
Co1003 O1011 2.074 . S
Co1003 O1014 2.093 . S
Co1003 O1027 2.097 . S
Co1003 N1044 2.151 . S
Co1003 N1052 2.214 . S
Co1004 O1005 2.160 . S
Co1004 O1010 2.058 . S
Co1004 O1020 2.057 . S
Co1004 O1035 2.037 . S
Co1004 N1039 2.145 . S
Co1004 N1060 2.257 . S
O1005 Co1003 2.143 . S
O1005 Co1004 2.160 . S
C1006 O1007 1.278 . S
C1006 O1014 1.224 . S
O1007 C1006 1.278 . S
C1008 O1009 1.245 . S
C1008 O1020 1.232 . S
O1009 C1008 1.245 . S
O1010 Co1004 2.058 . S
O1010 C1036 1.269 . S
O1011 Co1003 2.074 . S
O1011 C1036 1.257 . S
H1012 C1037 0.930 . S
H1013 C1043 0.930 . S
O1014 Co1003 2.093 . S
O1014 C1006 1.224 . S
H1015 C1047 0.929 . S
H1016 C1049 0.930 . S
H1017 C1050 0.930 . S
H1018 C1048 0.929 . S
H1019 C1051 0.928 . S
O1020 Co1004 2.057 . S
O1020 C1008 1.232 . S
H1021 C1040 0.929 . S
H1022 C1041 0.929 . S
H1023 C1053 0.931 . S
H1024 C1045 0.929 . S
H1025 C1054 0.930 . S
H1026 C1046 0.931 . S
O1027 Co1003 2.097 . S
O1027 C1055 1.214 . S
H1028 C1056 0.929 . S
H1029 C1057 0.929 . S
H1030 C1058 0.930 . S
H1031 C1059 0.929 . S
H1032 C1061 0.930 . S
H1033 C1038 0.930 . S
H1034 C1042 0.930 . S
O1035 Co1004 2.037 . S
O1035 C1055 1.234 . S
C1036 O1010 1.269 . S
C1036 O1011 1.257 . S
C1037 H1012 0.930 . S
C1037 C1040 1.388 . S
C1037 C1042 1.418 . S
C1038 H1033 0.930 . S
C1038 C1041 1.404 . S
C1038 C1042 1.353 . S
N1039 Co1004 2.145 . S
N1039 C1040 1.397 . S
N1039 C1041 1.334 . S
C1040 H1021 0.929 . S
C1040 C1037 1.388 . S
C1040 N1039 1.397 . S
C1041 H1022 0.929 . S
C1041 C1038 1.404 . S
C1041 N1039 1.334 . S
C1042 H1034 0.930 . S
C1042 C1037 1.418 . S
C1042 C1038 1.353 . S
C1043 H1013 0.930 . S
C1043 N1044 1.330 . S
C1043 C1045 1.446 . S
N1044 Co1003 2.151 . S
N1044 C1043 1.330 . S
N1044 C1048 1.418 . S
C1045 H1024 0.929 . S
C1045 C1043 1.446 . S
C1045 C1046 1.332 . S
C1046 H1026 0.931 . S
C1046 C1045 1.332 . S
C1046 C1047 1.267 . S
C1047 H1015 0.929 . S
C1047 C1046 1.267 . S
C1047 C1048 1.251 . S
C1048 H1018 0.929 . S
C1048 N1044 1.418 . S
C1048 C1047 1.251 . S
C1049 H1016 0.930 . S
C1049 C1051 1.406 . S
C1049 C1054 1.261 . S
C1050 H1017 0.930 . S
C1050 N1052 1.325 . S
C1050 C1053 1.357 . S
C1051 H1019 0.928 . S
C1051 C1049 1.406 . S
C1051 N1052 1.261 . S
N1052 Co1003 2.214 . S
N1052 C1050 1.325 . S
N1052 C1051 1.261 . S
C1053 H1023 0.931 . S
C1053 C1050 1.357 . S
C1053 C1054 1.312 . S
C1054 H1025 0.930 . S
C1054 C1049 1.261 . S
C1054 C1053 1.312 . S
C1055 O1027 1.214 . S
C1055 O1035 1.234 . S
C1056 H1028 0.929 . S
C1056 C1059 1.391 . S
C1056 C1061 1.391 . S
C1057 H1029 0.929 . S
C1057 C1058 1.390 . S
C1057 N1060 1.391 . S
C1058 H1030 0.930 . S
C1058 C1057 1.390 . S
C1058 C1059 1.392 . S
C1059 H1031 0.929 . S
C1059 C1056 1.391 . S
C1059 C1058 1.392 . S
N1060 Co1004 2.257 . S
N1060 C1057 1.391 . S
N1060 C1061 1.388 . S
C1061 H1032 0.930 . S
C1061 C1056 1.391 . S
C1061 N1060 1.388 . S
Co1062 O1064 2.143 . S
Co1062 O1070 2.074 . S
Co1062 O1073 2.093 . S
Co1062 O1086 2.097 . S
Co1062 N1103 2.151 . S
Co1062 N1111 2.214 . S
Co1063 O1064 2.160 . S
Co1063 O1069 2.058 . S
Co1063 O1079 2.057 . S
Co1063 O1094 2.037 . S
Co1063 N1098 2.145 . S
Co1063 N1119 2.257 . S
O1064 Co1062 2.143 . S
O1064 Co1063 2.160 . S
C1065 O1066 1.278 . S
C1065 O1073 1.224 . S
O1066 C1065 1.278 . S
C1067 O1068 1.245 . S
C1067 O1079 1.232 . S
O1068 C1067 1.245 . S
O1069 Co1063 2.058 . S
O1069 C1095 1.269 . S
O1070 Co1062 2.074 . S
O1070 C1095 1.257 . S
H1071 C1096 0.930 . S
H1072 C1102 0.930 . S
O1073 Co1062 2.093 . S
O1073 C1065 1.224 . S
H1074 C1106 0.929 . S
H1075 C1108 0.930 . S
H1076 C1109 0.930 . S
H1077 C1107 0.929 . S
H1078 C1110 0.928 . S
O1079 Co1063 2.057 . S
O1079 C1067 1.232 . S
H1080 C1099 0.929 . S
H1081 C1100 0.929 . S
H1082 C1112 0.931 . S
H1083 C1104 0.929 . S
H1084 C1113 0.930 . S
H1085 C1105 0.931 . S
O1086 Co1062 2.097 . S
O1086 C1114 1.214 . S
H1087 C1115 0.929 . S
H1088 C1116 0.929 . S
H1089 C1117 0.930 . S
H1090 C1118 0.929 . S
H1091 C1120 0.944 . S
H1092 C1097 0.930 . S
H1093 C1101 0.930 . S
O1094 Co1063 2.037 . S
O1094 C1114 1.234 . S
C1095 O1069 1.269 . S
C1095 O1070 1.257 . S
C1096 H1071 0.930 . S
C1096 C1099 1.388 . S
C1096 C1101 1.418 . S
C1097 H1092 0.930 . S
C1097 C1100 1.404 . S
C1097 C1101 1.353 . S
N1098 Co1063 2.145 . S
N1098 C1099 1.397 . S
N1098 C1100 1.334 . S
C1099 H1080 0.929 . S
C1099 C1096 1.388 . S
C1099 N1098 1.397 . S
C1100 H1081 0.929 . S
C1100 C1097 1.404 . S
C1100 N1098 1.334 . S
C1101 H1093 0.930 . S
C1101 C1096 1.418 . S
C1101 C1097 1.353 . S
C1102 H1072 0.930 . S
C1102 N1103 1.330 . S
C1102 C1104 1.446 1_545 S
N1103 Co1062 2.151 . S
N1103 C1102 1.330 . S
N1103 C1107 1.418 . S
C1104 H1083 0.929 . S
C1104 C1102 1.446 1_565 S
C1104 C1105 1.332 . S
C1105 H1085 0.931 . S
C1105 C1104 1.332 . S
C1105 C1106 1.267 1_565 S
C1106 H1074 0.929 . S
C1106 C1105 1.267 1_545 S
C1106 C1107 1.251 . S
C1107 H1077 0.929 . S
C1107 N1103 1.418 . S
C1107 C1106 1.251 . S
C1108 H1075 0.930 . S
C1108 C1110 1.406 1_455 S
C1108 C1113 1.261 . S
C1109 H1076 0.930 . S
C1109 N1111 1.325 . S
C1109 C1112 1.357 1_655 S
C1110 H1078 0.928 . S
C1110 C1108 1.406 1_655 S
C1110 N1111 1.261 . S
N1111 Co1062 2.214 . S
N1111 C1109 1.325 . S
N1111 C1110 1.261 . S
C1112 H1082 0.931 . S
C1112 C1109 1.357 1_455 S
C1112 C1113 1.312 . S
C1113 H1084 0.930 . S
C1113 C1108 1.261 . S
C1113 C1112 1.312 . S
C1114 O1086 1.214 . S
C1114 O1094 1.234 . S
C1115 H1087 0.929 . S
C1115 C1118 1.391 . S
C1115 C1120 1.342 1_556 S
C1116 H1088 0.929 . S
C1116 C1117 1.390 1_554 S
C1116 N1119 1.391 . S
C1117 H1089 0.930 . S
C1117 C1116 1.390 1_556 S
C1117 C1118 1.392 . S
C1118 H1090 0.929 . S
C1118 C1115 1.391 . S
C1118 C1117 1.392 . S
N1119 Co1063 2.257 . S
N1119 C1116 1.391 . S
N1119 C1120 1.426 . S
C1120 H1091 0.944 . S
C1120 C1115 1.342 1_554 S
C1120 N1119 1.426 . S
Co1121 O1123 2.143 . S
Co1121 O1129 2.074 . S
Co1121 O1132 2.093 . S
Co1121 O1145 2.097 . S
Co1121 N1162 2.151 . S
Co1121 N1170 2.214 . S
Co1122 O1123 2.160 . S
Co1122 O1128 2.058 . S
Co1122 O1138 2.057 . S
Co1122 O1153 2.037 . S
Co1122 N1157 2.145 . S
Co1122 N1178 2.257 . S
O1123 Co1121 2.143 . S
O1123 Co1122 2.160 . S
C1124 O1125 1.278 . S
C1124 O1132 1.224 . S
O1125 C1124 1.278 . S
C1126 O1127 1.245 . S
C1126 O1138 1.232 . S
O1127 C1126 1.245 . S
O1128 Co1122 2.058 . S
O1128 C1154 1.269 . S
O1129 Co1121 2.074 . S
O1129 C1154 1.257 . S
H1130 C1155 0.930 1_655 S
H1131 C1161 0.930 . S
O1132 Co1121 2.093 . S
O1132 C1124 1.224 . S
H1133 C1165 0.929 . S
H1134 C1167 0.930 . S
H1135 C1168 0.930 . S
H1136 C1166 0.929 . S
H1137 C1169 0.928 . S
O1138 Co1122 2.057 . S
O1138 C1126 1.232 . S
H1139 C1158 0.929 . S
H1140 C1159 0.929 . S
H1141 C1171 0.931 . S
H1142 C1163 0.929 . S
H1143 C1172 0.930 . S
H1144 C1164 0.931 . S
O1145 Co1121 2.097 . S
O1145 C1173 1.214 . S
H1146 C1174 0.929 . S
H1147 C1175 0.929 . S
H1148 C1176 0.930 . S
H1149 C1177 0.929 . S
H1150 C1179 0.930 . S
H1151 C1156 0.930 . S
H1152 C1160 0.953 . S
O1153 Co1122 2.037 . S
O1153 C1173 1.234 . S
C1154 O1128 1.269 . S
C1154 O1129 1.257 . S
C1155 H1130 0.930 1_455 S
C1155 C1158 1.388 . S
C1155 C1160 1.414 1_455 S
C1156 H1151 0.930 . S
C1156 C1159 1.404 . S
C1156 C1160 1.335 1_455 S
N1157 Co1122 2.145 . S
N1157 C1158 1.397 . S
N1157 C1159 1.334 . S
C1158 H1139 0.929 . S
C1158 C1155 1.388 . S
C1158 N1157 1.397 . S
C1159 H1140 0.929 . S
C1159 C1156 1.404 . S
C1159 N1157 1.334 . S
C1160 H1152 0.953 . S
C1160 C1155 1.414 1_655 S
C1160 C1156 1.335 1_655 S
C1161 H1131 0.930 . S
C1161 N1162 1.330 . S
C1161 C1163 1.446 . S
N1162 Co1121 2.151 . S
N1162 C1161 1.330 . S
N1162 C1166 1.418 . S
C1163 H1142 0.929 . S
C1163 C1161 1.446 . S
C1163 C1164 1.332 . S
C1164 H1144 0.931 . S
C1164 C1163 1.332 . S
C1164 C1165 1.267 . S
C1165 H1133 0.929 . S
C1165 C1164 1.267 . S
C1165 C1166 1.251 . S
C1166 H1136 0.929 . S
C1166 N1162 1.418 . S
C1166 C1165 1.251 . S
C1167 H1134 0.930 . S
C1167 C1169 1.406 . S
C1167 C1172 1.261 . S
C1168 H1135 0.930 . S
C1168 N1170 1.325 . S
C1168 C1171 1.357 . S
C1169 H1137 0.928 . S
C1169 C1167 1.406 . S
C1169 N1170 1.261 . S
N1170 Co1121 2.214 . S
N1170 C1168 1.325 . S
N1170 C1169 1.261 . S
C1171 H1141 0.931 . S
C1171 C1168 1.357 . S
C1171 C1172 1.312 . S
C1172 H1143 0.930 . S
C1172 C1167 1.261 . S
C1172 C1171 1.312 . S
C1173 O1145 1.214 . S
C1173 O1153 1.234 . S
C1174 H1146 0.929 . S
C1174 C1177 1.391 . S
C1174 C1179 1.391 . S
C1175 H1147 0.929 . S
C1175 C1176 1.390 . S
C1175 N1178 1.391 . S
C1176 H1148 0.930 . S
C1176 C1175 1.390 . S
C1176 C1177 1.392 . S
C1177 H1149 0.929 . S
C1177 C1174 1.391 . S
C1177 C1176 1.392 . S
N1178 Co1122 2.257 . S
N1178 C1175 1.391 . S
N1178 C1179 1.388 . S
C1179 H1150 0.930 . S
C1179 C1174 1.391 . S
C1179 N1178 1.388 . S
Co1180 O1182 2.143 . S
Co1180 O1188 2.074 . S
Co1180 O1191 2.093 . S
Co1180 O1204 2.097 . S
Co1180 N1221 2.151 . S
Co1180 N1229 2.214 . S
Co1181 O1182 2.160 . S
Co1181 O1187 2.058 . S
Co1181 O1197 2.057 . S
Co1181 O1212 2.037 . S
Co1181 N1216 2.145 . S
Co1181 N1237 2.257 . S
O1182 Co1180 2.143 . S
O1182 Co1181 2.160 . S
C1183 O1184 1.278 . S
C1183 O1191 1.224 . S
O1184 C1183 1.278 . S
C1185 O1186 1.245 . S
C1185 O1197 1.232 . S
O1186 C1185 1.245 . S
O1187 Co1181 2.058 . S
O1187 C1213 1.269 . S
O1188 Co1180 2.074 . S
O1188 C1213 1.257 . S
H1189 C1214 0.930 . S
H1190 C1220 0.930 . S
O1191 Co1180 2.093 . S
O1191 C1183 1.224 . S
H1192 C1224 0.929 . S
H1193 C1226 0.930 . S
H1194 C1227 0.930 . S
H1195 C1225 0.929 . S
H1196 C1228 0.928 . S
O1197 Co1181 2.057 . S
O1197 C1185 1.232 . S
H1198 C1217 0.929 . S
H1199 C1218 0.929 . S
H1200 C1230 0.931 . S
H1201 C1222 0.929 . S
H1202 C1231 0.930 . S
H1203 C1223 0.931 . S
O1204 Co1180 2.097 . S
O1204 C1232 1.214 . S
H1205 C1233 0.929 . S
H1206 C1234 0.929 . S
H1207 C1235 0.930 . S
H1208 C1236 0.929 . S
H1209 C1238 0.944 . S
H1210 C1215 0.930 . S
H1211 C1219 0.930 . S
O1212 Co1181 2.037 . S
O1212 C1232 1.234 . S
C1213 O1187 1.269 . S
C1213 O1188 1.257 . S
C1214 H1189 0.930 . S
C1214 C1217 1.388 . S
C1214 C1219 1.418 . S
C1215 H1210 0.930 . S
C1215 C1218 1.404 . S
C1215 C1219 1.353 . S
N1216 Co1181 2.145 . S
N1216 C1217 1.397 . S
N1216 C1218 1.334 . S
C1217 H1198 0.929 . S
C1217 C1214 1.388 . S
C1217 N1216 1.397 . S
C1218 H1199 0.929 . S
C1218 C1215 1.404 . S
C1218 N1216 1.334 . S
C1219 H1211 0.930 . S
C1219 C1214 1.418 . S
C1219 C1215 1.353 . S
C1220 H1190 0.930 . S
C1220 N1221 1.330 . S
C1220 C1222 1.446 1_545 S
N1221 Co1180 2.151 . S
N1221 C1220 1.330 . S
N1221 C1225 1.418 . S
C1222 H1201 0.929 . S
C1222 C1220 1.446 1_565 S
C1222 C1223 1.332 . S
C1223 H1203 0.931 . S
C1223 C1222 1.332 . S
C1223 C1224 1.267 1_565 S
C1224 H1192 0.929 . S
C1224 C1223 1.267 1_545 S
C1224 C1225 1.251 . S
C1225 H1195 0.929 . S
C1225 N1221 1.418 . S
C1225 C1224 1.251 . S
C1226 H1193 0.930 . S
C1226 C1228 1.406 . S
C1226 C1231 1.261 . S
C1227 H1194 0.930 . S
C1227 N1229 1.325 . S
C1227 C1230 1.357 . S
C1228 H1196 0.928 . S
C1228 C1226 1.406 . S
C1228 N1229 1.261 . S
N1229 Co1180 2.214 . S
N1229 C1227 1.325 . S
N1229 C1228 1.261 . S
C1230 H1200 0.931 . S
C1230 C1227 1.357 . S
C1230 C1231 1.312 . S
C1231 H1202 0.930 . S
C1231 C1226 1.261 . S
C1231 C1230 1.312 . S
C1232 O1204 1.214 . S
C1232 O1212 1.234 . S
C1233 H1205 0.929 . S
C1233 C1236 1.391 . S
C1233 C1238 1.342 1_554 S
C1234 H1206 0.929 . S
C1234 C1235 1.390 1_556 S
C1234 N1237 1.391 . S
C1235 H1207 0.930 . S
C1235 C1234 1.390 1_554 S
C1235 C1236 1.392 . S
C1236 H1208 0.929 . S
C1236 C1233 1.391 . S
C1236 C1235 1.392 . S
N1237 Co1181 2.257 . S
N1237 C1234 1.391 . S
N1237 C1238 1.426 . S
C1238 H1209 0.944 . S
C1238 C1233 1.342 1_556 S
C1238 N1237 1.426 . S
Co1239 O1241 2.143 . S
Co1239 O1247 2.074 . S
Co1239 O1250 2.093 . S
Co1239 O1263 2.097 . S
Co1239 N1280 2.151 . S
Co1239 N1288 2.214 . S
Co1240 O1241 2.160 . S
Co1240 O1246 2.058 . S
Co1240 O1256 2.057 . S
Co1240 O1271 2.037 . S
Co1240 N1275 2.145 . S
Co1240 N1296 2.257 . S
O1241 Co1239 2.143 . S
O1241 Co1240 2.160 . S
C1242 O1243 1.278 . S
C1242 O1250 1.224 . S
O1243 C1242 1.278 . S
C1244 O1245 1.245 . S
C1244 O1256 1.232 . S
O1245 C1244 1.245 . S
O1246 Co1240 2.058 . S
O1246 C1272 1.269 . S
O1247 Co1239 2.074 . S
O1247 C1272 1.257 . S
H1248 C1273 0.930 1_655 S
H1249 C1279 0.930 . S
O1250 Co1239 2.093 . S
O1250 C1242 1.224 . S
H1251 C1283 0.929 . S
H1252 C1285 0.930 . S
H1253 C1286 0.930 . S
H1254 C1284 0.929 . S
H1255 C1287 0.928 . S
O1256 Co1240 2.057 . S
O1256 C1244 1.232 . S
H1257 C1276 0.929 . S
H1258 C1277 0.929 . S
H1259 C1289 0.931 . S
H1260 C1281 0.929 . S
H1261 C1290 0.930 . S
H1262 C1282 0.931 . S
O1263 Co1239 2.097 . S
O1263 C1291 1.214 . S
H1264 C1292 0.929 . S
H1265 C1293 0.929 . S
H1266 C1294 0.930 . S
H1267 C1295 0.929 . S
H1268 C1297 0.930 . S
H1269 C1274 0.930 . S
H1270 C1278 0.953 . S
O1271 Co1240 2.037 . S
O1271 C1291 1.234 . S
C1272 O1246 1.269 . S
C1272 O1247 1.257 . S
C1273 H1248 0.930 1_455 S
C1273 C1276 1.388 . S
C1273 C1278 1.414 1_455 S
C1274 H1269 0.930 . S
C1274 C1277 1.404 . S
C1274 C1278 1.335 1_455 S
N1275 Co1240 2.145 . S
N1275 C1276 1.397 . S
N1275 C1277 1.334 . S
C1276 H1257 0.929 . S
C1276 C1273 1.388 . S
C1276 N1275 1.397 . S
C1277 H1258 0.929 . S
C1277 C1274 1.404 . S
C1277 N1275 1.334 . S
C1278 H1270 0.953 . S
C1278 C1273 1.414 1_655 S
C1278 C1274 1.335 1_655 S
C1279 H1249 0.930 . S
C1279 N1280 1.330 . S
C1279 C1281 1.446 . S
N1280 Co1239 2.151 . S
N1280 C1279 1.330 . S
N1280 C1284 1.418 . S
C1281 H1260 0.929 . S
C1281 C1279 1.446 . S
C1281 C1282 1.332 . S
C1282 H1262 0.931 . S
C1282 C1281 1.332 . S
C1282 C1283 1.267 . S
C1283 H1251 0.929 . S
C1283 C1282 1.267 . S
C1283 C1284 1.251 . S
C1284 H1254 0.929 . S
C1284 N1280 1.418 . S
C1284 C1283 1.251 . S
C1285 H1252 0.930 . S
C1285 C1287 1.406 . S
C1285 C1290 1.261 . S
C1286 H1253 0.930 . S
C1286 N1288 1.325 . S
C1286 C1289 1.357 . S
C1287 H1255 0.928 . S
C1287 C1285 1.406 . S
C1287 N1288 1.261 . S
N1288 Co1239 2.214 . S
N1288 C1286 1.325 . S
N1288 C1287 1.261 . S
C1289 H1259 0.931 . S
C1289 C1286 1.357 . S
C1289 C1290 1.312 . S
C1290 H1261 0.930 . S
C1290 C1285 1.261 . S
C1290 C1289 1.312 . S
C1291 O1263 1.214 . S
C1291 O1271 1.234 . S
C1292 H1264 0.929 . S
C1292 C1295 1.391 . S
C1292 C1297 1.391 . S
C1293 H1265 0.929 . S
C1293 C1294 1.390 . S
C1293 N1296 1.391 . S
C1294 H1266 0.930 . S
C1294 C1293 1.390 . S
C1294 C1295 1.392 . S
C1295 H1267 0.929 . S
C1295 C1292 1.391 . S
C1295 C1294 1.392 . S
N1296 Co1240 2.257 . S
N1296 C1293 1.391 . S
N1296 C1297 1.388 . S
C1297 H1268 0.930 . S
C1297 C1292 1.391 . S
C1297 N1296 1.388 . S
Co1298 O1300 2.143 . S
Co1298 O1306 2.074 . S
Co1298 O1309 2.093 . S
Co1298 O1322 2.097 . S
Co1298 N1339 2.151 . S
Co1298 N1347 2.214 . S
Co1299 O1300 2.160 . S
Co1299 O1305 2.058 . S
Co1299 O1315 2.057 . S
Co1299 O1330 2.037 . S
Co1299 N1334 2.145 . S
Co1299 N1355 2.257 . S
O1300 Co1298 2.143 . S
O1300 Co1299 2.160 . S
C1301 O1302 1.278 . S
C1301 O1309 1.224 . S
O1302 C1301 1.278 . S
C1303 O1304 1.245 . S
C1303 O1315 1.232 . S
O1304 C1303 1.245 . S
O1305 Co1299 2.058 . S
O1305 C1331 1.269 . S
O1306 Co1298 2.074 . S
O1306 C1331 1.257 . S
H1307 C1332 0.930 . S
H1308 C1338 0.930 . S
O1309 Co1298 2.093 . S
O1309 C1301 1.224 . S
H1310 C1342 0.929 . S
H1311 C1344 0.930 . S
H1312 C1345 0.930 . S
H1313 C1343 0.929 . S
H1314 C1346 0.928 . S
O1315 Co1299 2.057 . S
O1315 C1303 1.232 . S
H1316 C1335 0.929 . S
H1317 C1336 0.929 . S
H1318 C1348 0.931 . S
H1319 C1340 0.929 . S
H1320 C1349 0.930 . S
H1321 C1341 0.931 . S
O1322 Co1298 2.097 . S
O1322 C1350 1.214 . S
H1323 C1351 0.929 . S
H1324 C1352 0.929 . S
H1325 C1353 0.930 . S
H1326 C1354 0.929 . S
H1327 C1356 0.930 . S
H1328 C1333 0.930 . S
H1329 C1337 0.930 . S
O1330 Co1299 2.037 . S
O1330 C1350 1.234 . S
C1331 O1305 1.269 . S
C1331 O1306 1.257 . S
C1332 H1307 0.930 . S
C1332 C1335 1.388 . S
C1332 C1337 1.418 . S
C1333 H1328 0.930 . S
C1333 C1336 1.404 . S
C1333 C1337 1.353 . S
N1334 Co1299 2.145 . S
N1334 C1335 1.397 . S
N1334 C1336 1.334 . S
C1335 H1316 0.929 . S
C1335 C1332 1.388 . S
C1335 N1334 1.397 . S
C1336 H1317 0.929 . S
C1336 C1333 1.404 . S
C1336 N1334 1.334 . S
C1337 H1329 0.930 . S
C1337 C1332 1.418 . S
C1337 C1333 1.353 . S
C1338 H1308 0.930 . S
C1338 N1339 1.330 . S
C1338 C1340 1.446 1_565 S
N1339 Co1298 2.151 . S
N1339 C1338 1.330 . S
N1339 C1343 1.418 . S
C1340 H1319 0.929 . S
C1340 C1338 1.446 1_545 S
C1340 C1341 1.332 . S
C1341 H1321 0.931 . S
C1341 C1340 1.332 . S
C1341 C1342 1.267 1_545 S
C1342 H1310 0.929 . S
C1342 C1341 1.267 1_565 S
C1342 C1343 1.251 . S
C1343 H1313 0.929 . S
C1343 N1339 1.418 . S
C1343 C1342 1.251 . S
C1344 H1311 0.930 . S
C1344 C1346 1.406 1_455 S
C1344 C1349 1.261 . S
C1345 H1312 0.930 . S
C1345 N1347 1.325 . S
C1345 C1348 1.357 1_655 S
C1346 H1314 0.928 . S
C1346 C1344 1.406 1_655 S
C1346 N1347 1.261 . S
N1347 Co1298 2.214 . S
N1347 C1345 1.325 . S
N1347 C1346 1.261 . S
C1348 H1318 0.931 . S
C1348 C1345 1.357 1_455 S
C1348 C1349 1.312 . S
C1349 H1320 0.930 . S
C1349 C1344 1.261 . S
C1349 C1348 1.312 . S
C1350 O1322 1.214 . S
C1350 O1330 1.234 . S
C1351 H1323 0.929 . S
C1351 C1354 1.391 . S
C1351 C1356 1.391 . S
C1352 H1324 0.929 . S
C1352 C1353 1.390 . S
C1352 N1355 1.391 . S
C1353 H1325 0.930 . S
C1353 C1352 1.390 . S
C1353 C1354 1.392 . S
C1354 H1326 0.929 . S
C1354 C1351 1.391 . S
C1354 C1353 1.392 . S
N1355 Co1299 2.257 . S
N1355 C1352 1.391 . S
N1355 C1356 1.388 . S
C1356 H1327 0.930 . S
C1356 C1351 1.391 . S
C1356 N1355 1.388 . S
Co1357 O1359 2.143 . S
Co1357 O1365 2.074 . S
Co1357 O1368 2.093 . S
Co1357 O1381 2.097 . S
Co1357 N1398 2.151 . S
Co1357 N1406 2.214 . S
Co1358 O1359 2.160 . S
Co1358 O1364 2.058 . S
Co1358 O1374 2.057 . S
Co1358 O1389 2.037 . S
Co1358 N1393 2.145 . S
Co1358 N1414 2.257 . S
O1359 Co1357 2.143 . S
O1359 Co1358 2.160 . S
C1360 O1361 1.278 . S
C1360 O1368 1.224 . S
O1361 C1360 1.278 . S
C1362 O1363 1.245 . S
C1362 O1374 1.232 . S
O1363 C1362 1.245 . S
O1364 Co1358 2.058 . S
O1364 C1390 1.269 . S
O1365 Co1357 2.074 . S
O1365 C1390 1.257 . S
H1366 C1391 0.930 . S
H1367 C1397 0.930 . S
O1368 Co1357 2.093 . S
O1368 C1360 1.224 . S
H1369 C1401 0.929 . S
H1370 C1403 0.930 . S
H1371 C1404 0.930 . S
H1372 C1402 0.929 . S
H1373 C1405 0.928 . S
O1374 Co1358 2.057 . S
O1374 C1362 1.232 . S
H1375 C1394 0.929 . S
H1376 C1395 0.929 . S
H1377 C1407 0.931 . S
H1378 C1399 0.929 . S
H1379 C1408 0.930 . S
H1380 C1400 0.931 . S
O1381 Co1357 2.097 . S
O1381 C1409 1.214 . S
H1382 C1410 0.929 . S
H1383 C1411 0.929 . S
H1384 C1412 0.930 . S
H1385 C1413 0.929 . S
H1386 C1415 0.930 . S
H1387 C1392 0.930 . S
H1388 C1396 0.930 . S
O1389 Co1358 2.037 . S
O1389 C1409 1.234 . S
C1390 O1364 1.269 . S
C1390 O1365 1.257 . S
C1391 H1366 0.930 . S
C1391 C1394 1.388 . S
C1391 C1396 1.418 . S
C1392 H1387 0.930 . S
C1392 C1395 1.404 . S
C1392 C1396 1.353 . S
N1393 Co1358 2.145 . S
N1393 C1394 1.397 . S
N1393 C1395 1.334 . S
C1394 H1375 0.929 . S
C1394 C1391 1.388 . S
C1394 N1393 1.397 . S
C1395 H1376 0.929 . S
C1395 C1392 1.404 . S
C1395 N1393 1.334 . S
C1396 H1388 0.930 . S
C1396 C1391 1.418 . S
C1396 C1392 1.353 . S
C1397 H1367 0.930 . S
C1397 N1398 1.330 . S
C1397 C1399 1.446 . S
N1398 Co1357 2.151 . S
N1398 C1397 1.330 . S
N1398 C1402 1.418 . S
C1399 H1378 0.929 . S
C1399 C1397 1.446 . S
C1399 C1400 1.332 . S
C1400 H1380 0.931 . S
C1400 C1399 1.332 . S
C1400 C1401 1.267 . S
C1401 H1369 0.929 . S
C1401 C1400 1.267 . S
C1401 C1402 1.251 . S
C1402 H1372 0.929 . S
C1402 N1398 1.418 . S
C1402 C1401 1.251 . S
C1403 H1370 0.930 . S
C1403 C1405 1.406 . S
C1403 C1408 1.261 . S
C1404 H1371 0.930 . S
C1404 N1406 1.325 . S
C1404 C1407 1.357 . S
C1405 H1373 0.928 . S
C1405 C1403 1.406 . S
C1405 N1406 1.261 . S
N1406 Co1357 2.214 . S
N1406 C1404 1.325 . S
N1406 C1405 1.261 . S
C1407 H1377 0.931 . S
C1407 C1404 1.357 . S
C1407 C1408 1.312 . S
C1408 H1379 0.930 . S
C1408 C1403 1.261 . S
C1408 C1407 1.312 . S
C1409 O1381 1.214 . S
C1409 O1389 1.234 . S
C1410 H1382 0.929 . S
C1410 C1413 1.391 . S
C1410 C1415 1.391 . S
C1411 H1383 0.929 . S
C1411 C1412 1.390 . S
C1411 N1414 1.391 . S
C1412 H1384 0.930 . S
C1412 C1411 1.390 . S
C1412 C1413 1.392 . S
C1413 H1385 0.929 . S
C1413 C1410 1.391 . S
C1413 C1412 1.392 . S
N1414 Co1358 2.257 . S
N1414 C1411 1.391 . S
N1414 C1415 1.388 . S
C1415 H1386 0.930 . S
C1415 C1410 1.391 . S
C1415 N1414 1.388 . S
Co1416 O1418 2.143 . S
Co1416 O1424 2.074 . S
Co1416 O1427 2.093 . S
Co1416 O1440 2.097 . S
Co1416 N1457 2.151 . S
Co1416 N1465 2.214 . S
Co1417 O1418 2.160 . S
Co1417 O1423 2.058 . S
Co1417 O1433 2.057 . S
Co1417 O1448 2.037 . S
Co1417 N1452 2.145 . S
Co1417 N1473 2.257 . S
O1418 Co1416 2.143 . S
O1418 Co1417 2.160 . S
C1419 O1420 1.278 . S
C1419 O1427 1.224 . S
O1420 C1419 1.278 . S
C1421 O1422 1.245 . S
C1421 O1433 1.232 . S
O1422 C1421 1.245 . S
O1423 Co1417 2.058 . S
O1423 C1449 1.269 . S
O1424 Co1416 2.074 . S
O1424 C1449 1.257 . S
H1425 C1450 0.930 . S
H1426 C1456 0.930 . S
O1427 Co1416 2.093 . S
O1427 C1419 1.224 . S
H1428 C1460 0.929 . S
H1429 C1462 0.930 . S
H1430 C1463 0.930 . S
H1431 C1461 0.929 . S
H1432 C1464 0.928 . S
O1433 Co1417 2.057 . S
O1433 C1421 1.232 . S
H1434 C1453 0.929 . S
H1435 C1454 0.929 . S
H1436 C1466 0.931 . S
H1437 C1458 0.929 . S
H1438 C1467 0.930 . S
H1439 C1459 0.931 . S
O1440 Co1416 2.097 . S
O1440 C1468 1.214 . S
H1441 C1469 0.929 . S
H1442 C1470 0.929 . S
H1443 C1471 0.930 . S
H1444 C1472 0.929 . S
H1445 C1474 0.930 . S
H1446 C1451 0.930 . S
H1447 C1455 0.930 . S
O1448 Co1417 2.037 . S
O1448 C1468 1.234 . S
C1449 O1423 1.269 . S
C1449 O1424 1.257 . S
C1450 H1425 0.930 . S
C1450 C1453 1.388 . S
C1450 C1455 1.418 . S
C1451 H1446 0.930 . S
C1451 C1454 1.404 . S
C1451 C1455 1.353 . S
N1452 Co1417 2.145 . S
N1452 C1453 1.397 . S
N1452 C1454 1.334 . S
C1453 H1434 0.929 . S
C1453 C1450 1.388 . S
C1453 N1452 1.397 . S
C1454 H1435 0.929 . S
C1454 C1451 1.404 . S
C1454 N1452 1.334 . S
C1455 H1447 0.930 . S
C1455 C1450 1.418 . S
C1455 C1451 1.353 . S
C1456 H1426 0.930 . S
C1456 N1457 1.330 . S
C1456 C1458 1.446 1_545 S
N1457 Co1416 2.151 . S
N1457 C1456 1.330 . S
N1457 C1461 1.418 . S
C1458 H1437 0.929 . S
C1458 C1456 1.446 1_565 S
C1458 C1459 1.332 . S
C1459 H1439 0.931 . S
C1459 C1458 1.332 . S
C1459 C1460 1.267 1_565 S
C1460 H1428 0.929 . S
C1460 C1459 1.267 1_545 S
C1460 C1461 1.251 . S
C1461 H1431 0.929 . S
C1461 N1457 1.418 . S
C1461 C1460 1.251 . S
C1462 H1429 0.930 . S
C1462 C1464 1.406 . S
C1462 C1467 1.261 . S
C1463 H1430 0.930 . S
C1463 N1465 1.325 . S
C1463 C1466 1.357 . S
C1464 H1432 0.928 . S
C1464 C1462 1.406 . S
C1464 N1465 1.261 . S
N1465 Co1416 2.214 . S
N1465 C1463 1.325 . S
N1465 C1464 1.261 . S
C1466 H1436 0.931 . S
C1466 C1463 1.357 . S
C1466 C1467 1.312 . S
C1467 H1438 0.930 . S
C1467 C1462 1.261 . S
C1467 C1466 1.312 . S
C1468 O1440 1.214 . S
C1468 O1448 1.234 . S
C1469 H1441 0.929 . S
C1469 C1472 1.391 . S
C1469 C1474 1.391 . S
C1470 H1442 0.929 . S
C1470 C1471 1.390 . S
C1470 N1473 1.391 . S
C1471 H1443 0.930 . S
C1471 C1470 1.390 . S
C1471 C1472 1.392 . S
C1472 H1444 0.929 . S
C1472 C1469 1.391 . S
C1472 C1471 1.392 . S
N1473 Co1417 2.257 . S
N1473 C1470 1.391 . S
N1473 C1474 1.388 . S
C1474 H1445 0.930 . S
C1474 C1469 1.391 . S
C1474 N1473 1.388 . S
Co1475 O1477 2.143 . S
Co1475 O1483 2.074 . S
Co1475 O1486 2.093 . S
Co1475 O1499 2.097 . S
Co1475 N1516 2.151 . S
Co1475 N1524 2.214 . S
Co1476 O1477 2.160 . S
Co1476 O1482 2.058 . S
Co1476 O1492 2.057 . S
Co1476 O1507 2.037 . S
Co1476 N1511 2.145 . S
Co1476 N1532 2.257 . S
O1477 Co1475 2.143 . S
O1477 Co1476 2.160 . S
C1478 O1479 1.278 . S
C1478 O1486 1.224 . S
O1479 C1478 1.278 . S
C1480 O1481 1.245 . S
C1480 O1492 1.232 . S
O1481 C1480 1.245 . S
O1482 Co1476 2.058 . S
O1482 C1508 1.269 . S
O1483 Co1475 2.074 . S
O1483 C1508 1.257 . S
H1484 C1509 0.930 . S
H1485 C1515 0.930 . S
O1486 Co1475 2.093 . S
O1486 C1478 1.224 . S
H1487 C1519 0.929 . S
H1488 C1521 0.930 . S
H1489 C1522 0.930 . S
H1490 C1520 0.929 . S
H1491 C1523 0.928 . S
O1492 Co1476 2.057 . S
O1492 C1480 1.232 . S
H1493 C1512 0.929 . S
H1494 C1513 0.929 . S
H1495 C1525 0.931 . S
H1496 C1517 0.929 . S
H1497 C1526 0.930 . S
H1498 C1518 0.931 . S
O1499 Co1475 2.097 . S
O1499 C1527 1.214 . S
H1500 C1528 0.929 . S
H1501 C1529 0.929 . S
H1502 C1530 0.930 . S
H1503 C1531 0.929 . S
H1504 C1533 0.930 . S
H1505 C1510 0.930 . S
H1506 C1514 0.930 . S
O1507 Co1476 2.037 . S
O1507 C1527 1.234 . S
C1508 O1482 1.269 . S
C1508 O1483 1.257 . S
C1509 H1484 0.930 . S
C1509 C1512 1.388 . S
C1509 C1514 1.418 . S
C1510 H1505 0.930 . S
C1510 C1513 1.404 . S
C1510 C1514 1.353 . S
N1511 Co1476 2.145 . S
N1511 C1512 1.397 . S
N1511 C1513 1.334 . S
C1512 H1493 0.929 . S
C1512 C1509 1.388 . S
C1512 N1511 1.397 . S
C1513 H1494 0.929 . S
C1513 C1510 1.404 . S
C1513 N1511 1.334 . S
C1514 H1506 0.930 . S
C1514 C1509 1.418 . S
C1514 C1510 1.353 . S
C1515 H1485 0.930 . S
C1515 N1516 1.330 . S
C1515 C1517 1.446 . S
N1516 Co1475 2.151 . S
N1516 C1515 1.330 . S
N1516 C1520 1.418 . S
C1517 H1496 0.929 . S
C1517 C1515 1.446 . S
C1517 C1518 1.332 . S
C1518 H1498 0.931 . S
C1518 C1517 1.332 . S
C1518 C1519 1.267 . S
C1519 H1487 0.929 . S
C1519 C1518 1.267 . S
C1519 C1520 1.251 . S
C1520 H1490 0.929 . S
C1520 N1516 1.418 . S
C1520 C1519 1.251 . S
C1521 H1488 0.930 . S
C1521 C1523 1.406 . S
C1521 C1526 1.261 . S
C1522 H1489 0.930 . S
C1522 N1524 1.325 . S
C1522 C1525 1.357 . S
C1523 H1491 0.928 . S
C1523 C1521 1.406 . S
C1523 N1524 1.261 . S
N1524 Co1475 2.214 . S
N1524 C1522 1.325 . S
N1524 C1523 1.261 . S
C1525 H1495 0.931 . S
C1525 C1522 1.357 . S
C1525 C1526 1.312 . S
C1526 H1497 0.930 . S
C1526 C1521 1.261 . S
C1526 C1525 1.312 . S
C1527 O1499 1.214 . S
C1527 O1507 1.234 . S
C1528 H1500 0.929 . S
C1528 C1531 1.391 . S
C1528 C1533 1.391 . S
C1529 H1501 0.929 . S
C1529 C1530 1.390 . S
C1529 N1532 1.391 . S
C1530 H1502 0.930 . S
C1530 C1529 1.390 . S
C1530 C1531 1.392 . S
C1531 H1503 0.929 . S
C1531 C1528 1.391 . S
C1531 C1530 1.392 . S
N1532 Co1476 2.257 . S
N1532 C1529 1.391 . S
N1532 C1533 1.388 . S
C1533 H1504 0.930 . S
C1533 C1528 1.391 . S
C1533 N1532 1.388 . S
Co1534 O1536 2.143 . S
Co1534 O1542 2.074 . S
Co1534 O1545 2.093 . S
Co1534 O1558 2.097 . S
Co1534 N1575 2.151 . S
Co1534 N1583 2.214 . S
Co1535 O1536 2.160 . S
Co1535 O1541 2.058 . S
Co1535 O1551 2.057 . S
Co1535 O1566 2.037 . S
Co1535 N1570 2.145 . S
Co1535 N1591 2.257 . S
O1536 Co1534 2.143 . S
O1536 Co1535 2.160 . S
C1537 O1538 1.278 . S
C1537 O1545 1.224 . S
O1538 C1537 1.278 . S
C1539 O1540 1.245 . S
C1539 O1551 1.232 . S
O1540 C1539 1.245 . S
O1541 Co1535 2.058 . S
O1541 C1567 1.269 . S
O1542 Co1534 2.074 . S
O1542 C1567 1.257 . S
H1543 C1568 0.930 . S
H1544 C1574 0.930 . S
O1545 Co1534 2.093 . S
O1545 C1537 1.224 . S
H1546 C1578 0.929 . S
H1547 C1580 0.930 . S
H1548 C1581 0.930 . S
H1549 C1579 0.929 . S
H1550 C1582 0.928 . S
O1551 Co1535 2.057 . S
O1551 C1539 1.232 . S
H1552 C1571 0.929 . S
H1553 C1572 0.929 . S
H1554 C1584 0.931 . S
H1555 C1576 0.929 . S
H1556 C1585 0.930 . S
H1557 C1577 0.931 . S
O1558 Co1534 2.097 . S
O1558 C1586 1.214 . S
H1559 C1587 0.929 . S
H1560 C1588 0.929 . S
H1561 C1589 0.930 . S
H1562 C1590 0.929 . S
H1563 C1592 0.944 . S
H1564 C1569 0.930 . S
H1565 C1573 0.930 . S
O1566 Co1535 2.037 . S
O1566 C1586 1.234 . S
C1567 O1541 1.269 . S
C1567 O1542 1.257 . S
C1568 H1543 0.930 . S
C1568 C1571 1.388 . S
C1568 C1573 1.418 . S
C1569 H1564 0.930 . S
C1569 C1572 1.404 . S
C1569 C1573 1.353 . S
N1570 Co1535 2.145 . S
N1570 C1571 1.397 . S
N1570 C1572 1.334 . S
C1571 H1552 0.929 . S
C1571 C1568 1.388 . S
C1571 N1570 1.397 . S
C1572 H1553 0.929 . S
C1572 C1569 1.404 . S
C1572 N1570 1.334 . S
C1573 H1565 0.930 . S
C1573 C1568 1.418 . S
C1573 C1569 1.353 . S
C1574 H1544 0.930 . S
C1574 N1575 1.330 . S
C1574 C1576 1.446 1_565 S
N1575 Co1534 2.151 . S
N1575 C1574 1.330 . S
N1575 C1579 1.418 . S
C1576 H1555 0.929 . S
C1576 C1574 1.446 1_545 S
C1576 C1577 1.332 . S
C1577 H1557 0.931 . S
C1577 C1576 1.332 . S
C1577 C1578 1.267 1_545 S
C1578 H1546 0.929 . S
C1578 C1577 1.267 1_565 S
C1578 C1579 1.251 . S
C1579 H1549 0.929 . S
C1579 N1575 1.418 . S
C1579 C1578 1.251 . S
C1580 H1547 0.930 . S
C1580 C1582 1.406 1_655 S
C1580 C1585 1.261 . S
C1581 H1548 0.930 . S
C1581 N1583 1.325 . S
C1581 C1584 1.357 1_455 S
C1582 H1550 0.928 . S
C1582 C1580 1.406 1_455 S
C1582 N1583 1.261 . S
N1583 Co1534 2.214 . S
N1583 C1581 1.325 . S
N1583 C1582 1.261 . S
C1584 H1554 0.931 . S
C1584 C1581 1.357 1_655 S
C1584 C1585 1.312 . S
C1585 H1556 0.930 . S
C1585 C1580 1.261 . S
C1585 C1584 1.312 . S
C1586 O1558 1.214 . S
C1586 O1566 1.234 . S
C1587 H1559 0.929 . S
C1587 C1590 1.391 . S
C1587 C1592 1.342 1_554 S
C1588 H1560 0.929 . S
C1588 C1589 1.390 1_556 S
C1588 N1591 1.391 . S
C1589 H1561 0.930 . S
C1589 C1588 1.390 1_554 S
C1589 C1590 1.392 . S
C1590 H1562 0.929 . S
C1590 C1587 1.391 . S
C1590 C1589 1.392 . S
N1591 Co1535 2.257 . S
N1591 C1588 1.391 . S
N1591 C1592 1.426 . S
C1592 H1563 0.944 . S
C1592 C1587 1.342 1_556 S
C1592 N1591 1.426 . S
Co1593 O1595 2.143 . S
Co1593 O1601 2.074 . S
Co1593 O1604 2.093 . S
Co1593 O1617 2.097 . S
Co1593 N1634 2.151 . S
Co1593 N1642 2.214 . S
Co1594 O1595 2.160 . S
Co1594 O1600 2.058 . S
Co1594 O1610 2.057 . S
Co1594 O1625 2.037 . S
Co1594 N1629 2.145 . S
Co1594 N1650 2.257 . S
O1595 Co1593 2.143 . S
O1595 Co1594 2.160 . S
C1596 O1597 1.278 . S
C1596 O1604 1.224 . S
O1597 C1596 1.278 . S
C1598 O1599 1.245 . S
C1598 O1610 1.232 . S
O1599 C1598 1.245 . S
O1600 Co1594 2.058 . S
O1600 C1626 1.269 . S
O1601 Co1593 2.074 . S
O1601 C1626 1.257 . S
H1602 C1627 0.930 1_455 S
H1603 C1633 0.930 . S
O1604 Co1593 2.093 . S
O1604 C1596 1.224 . S
H1605 C1637 0.929 . S
H1606 C1639 0.930 . S
H1607 C1640 0.930 . S
H1608 C1638 0.929 . S
H1609 C1641 0.928 . S
O1610 Co1594 2.057 . S
O1610 C1598 1.232 . S
H1611 C1630 0.929 . S
H1612 C1631 0.929 . S
H1613 C1643 0.931 . S
H1614 C1635 0.929 . S
H1615 C1644 0.930 . S
H1616 C1636 0.931 . S
O1617 Co1593 2.097 . S
O1617 C1645 1.214 . S
H1618 C1646 0.929 . S
H1619 C1647 0.929 . S
H1620 C1648 0.930 . S
H1621 C1649 0.929 . S
H1622 C1651 0.930 . S
H1623 C1628 0.930 . S
H1624 C1632 0.953 . S
O1625 Co1594 2.037 . S
O1625 C1645 1.234 . S
C1626 O1600 1.269 . S
C1626 O1601 1.257 . S
C1627 H1602 0.930 1_655 S
C1627 C1630 1.388 . S
C1627 C1632 1.414 1_655 S
C1628 H1623 0.930 . S
C1628 C1631 1.404 . S
C1628 C1632 1.335 1_655 S
N1629 Co1594 2.145 . S
N1629 C1630 1.397 . S
N1629 C1631 1.334 . S
C1630 H1611 0.929 . S
C1630 C1627 1.388 . S
C1630 N1629 1.397 . S
C1631 H1612 0.929 . S
C1631 C1628 1.404 . S
C1631 N1629 1.334 . S
C1632 H1624 0.953 . S
C1632 C1627 1.414 1_455 S
C1632 C1628 1.335 1_455 S
C1633 H1603 0.930 . S
C1633 N1634 1.330 . S
C1633 C1635 1.446 . S
N1634 Co1593 2.151 . S
N1634 C1633 1.330 . S
N1634 C1638 1.418 . S
C1635 H1614 0.929 . S
C1635 C1633 1.446 . S
C1635 C1636 1.332 . S
C1636 H1616 0.931 . S
C1636 C1635 1.332 . S
C1636 C1637 1.267 . S
C1637 H1605 0.929 . S
C1637 C1636 1.267 . S
C1637 C1638 1.251 . S
C1638 H1608 0.929 . S
C1638 N1634 1.418 . S
C1638 C1637 1.251 . S
C1639 H1606 0.930 . S
C1639 C1641 1.406 . S
C1639 C1644 1.261 . S
C1640 H1607 0.930 . S
C1640 N1642 1.325 . S
C1640 C1643 1.357 . S
C1641 H1609 0.928 . S
C1641 C1639 1.406 . S
C1641 N1642 1.261 . S
N1642 Co1593 2.214 . S
N1642 C1640 1.325 . S
N1642 C1641 1.261 . S
C1643 H1613 0.931 . S
C1643 C1640 1.357 . S
C1643 C1644 1.312 . S
C1644 H1615 0.930 . S
C1644 C1639 1.261 . S
C1644 C1643 1.312 . S
C1645 O1617 1.214 . S
C1645 O1625 1.234 . S
C1646 H1618 0.929 . S
C1646 C1649 1.391 . S
C1646 C1651 1.391 . S
C1647 H1619 0.929 . S
C1647 C1648 1.390 . S
C1647 N1650 1.391 . S
C1648 H1620 0.930 . S
C1648 C1647 1.390 . S
C1648 C1649 1.392 . S
C1649 H1621 0.929 . S
C1649 C1646 1.391 . S
C1649 C1648 1.392 . S
N1650 Co1594 2.257 . S
N1650 C1647 1.391 . S
N1650 C1651 1.388 . S
C1651 H1622 0.930 . S
C1651 C1646 1.391 . S
C1651 N1650 1.388 . S
Co1652 O1654 2.143 . S
Co1652 O1660 2.074 . S
Co1652 O1663 2.093 . S
Co1652 O1676 2.097 . S
Co1652 N1693 2.151 . S
Co1652 N1701 2.214 . S
Co1653 O1654 2.160 . S
Co1653 O1659 2.058 . S
Co1653 O1669 2.057 . S
Co1653 O1684 2.037 . S
Co1653 N1688 2.145 . S
Co1653 N1709 2.257 . S
O1654 Co1652 2.143 . S
O1654 Co1653 2.160 . S
C1655 O1656 1.278 . S
C1655 O1663 1.224 . S
O1656 C1655 1.278 . S
C1657 O1658 1.245 . S
C1657 O1669 1.232 . S
O1658 C1657 1.245 . S
O1659 Co1653 2.058 . S
O1659 C1685 1.269 . S
O1660 Co1652 2.074 . S
O1660 C1685 1.257 . S
H1661 C1686 0.930 . S
H1662 C1692 0.930 . S
O1663 Co1652 2.093 . S
O1663 C1655 1.224 . S
H1664 C1696 0.929 . S
H1665 C1698 0.930 . S
H1666 C1699 0.930 . S
H1667 C1697 0.929 . S
H1668 C1700 0.928 . S
O1669 Co1653 2.057 . S
O1669 C1657 1.232 . S
H1670 C1689 0.929 . S
H1671 C1690 0.929 . S
H1672 C1702 0.931 . S
H1673 C1694 0.929 . S
H1674 C1703 0.930 . S
H1675 C1695 0.931 . S
O1676 Co1652 2.097 . S
O1676 C1704 1.214 . S
H1677 C1705 0.929 . S
H1678 C1706 0.929 . S
H1679 C1707 0.930 . S
H1680 C1708 0.929 . S
H1681 C1710 0.944 . S
H1682 C1687 0.930 . S
H1683 C1691 0.930 . S
O1684 Co1653 2.037 . S
O1684 C1704 1.234 . S
C1685 O1659 1.269 . S
C1685 O1660 1.257 . S
C1686 H1661 0.930 . S
C1686 C1689 1.388 . S
C1686 C1691 1.418 . S
C1687 H1682 0.930 . S
C1687 C1690 1.404 . S
C1687 C1691 1.353 . S
N1688 Co1653 2.145 . S
N1688 C1689 1.397 . S
N1688 C1690 1.334 . S
C1689 H1670 0.929 . S
C1689 C1686 1.388 . S
C1689 N1688 1.397 . S
C1690 H1671 0.929 . S
C1690 C1687 1.404 . S
C1690 N1688 1.334 . S
C1691 H1683 0.930 . S
C1691 C1686 1.418 . S
C1691 C1687 1.353 . S
C1692 H1662 0.930 . S
C1692 N1693 1.330 . S
C1692 C1694 1.446 1_565 S
N1693 Co1652 2.151 . S
N1693 C1692 1.330 . S
N1693 C1697 1.418 . S
C1694 H1673 0.929 . S
C1694 C1692 1.446 1_545 S
C1694 C1695 1.332 . S
C1695 H1675 0.931 . S
C1695 C1694 1.332 . S
C1695 C1696 1.267 1_545 S
C1696 H1664 0.929 . S
C1696 C1695 1.267 1_565 S
C1696 C1697 1.251 . S
C1697 H1667 0.929 . S
C1697 N1693 1.418 . S
C1697 C1696 1.251 . S
C1698 H1665 0.930 . S
C1698 C1700 1.406 . S
C1698 C1703 1.261 . S
C1699 H1666 0.930 . S
C1699 N1701 1.325 . S
C1699 C1702 1.357 . S
C1700 H1668 0.928 . S
C1700 C1698 1.406 . S
C1700 N1701 1.261 . S
N1701 Co1652 2.214 . S
N1701 C1699 1.325 . S
N1701 C1700 1.261 . S
C1702 H1672 0.931 . S
C1702 C1699 1.357 . S
C1702 C1703 1.312 . S
C1703 H1674 0.930 . S
C1703 C1698 1.261 . S
C1703 C1702 1.312 . S
C1704 O1676 1.214 . S
C1704 O1684 1.234 . S
C1705 H1677 0.929 . S
C1705 C1708 1.391 . S
C1705 C1710 1.342 1_556 S
C1706 H1678 0.929 . S
C1706 C1707 1.390 1_554 S
C1706 N1709 1.391 . S
C1707 H1679 0.930 . S
C1707 C1706 1.390 1_556 S
C1707 C1708 1.392 . S
C1708 H1680 0.929 . S
C1708 C1705 1.391 . S
C1708 C1707 1.392 . S
N1709 Co1653 2.257 . S
N1709 C1706 1.391 . S
N1709 C1710 1.426 . S
C1710 H1681 0.944 . S
C1710 C1705 1.342 1_554 S
C1710 N1709 1.426 . S
Co1711 O1713 2.143 . S
Co1711 O1719 2.074 . S
Co1711 O1722 2.093 . S
Co1711 O1735 2.097 . S
Co1711 N1752 2.151 . S
Co1711 N1760 2.214 . S
Co1712 O1713 2.160 . S
Co1712 O1718 2.058 . S
Co1712 O1728 2.057 . S
Co1712 O1743 2.037 . S
Co1712 N1747 2.145 . S
Co1712 N1768 2.257 . S
O1713 Co1711 2.143 . S
O1713 Co1712 2.160 . S
C1714 O1715 1.278 . S
C1714 O1722 1.224 . S
O1715 C1714 1.278 . S
C1716 O1717 1.245 . S
C1716 O1728 1.232 . S
O1717 C1716 1.245 . S
O1718 Co1712 2.058 . S
O1718 C1744 1.269 . S
O1719 Co1711 2.074 . S
O1719 C1744 1.257 . S
H1720 C1745 0.930 1_455 S
H1721 C1751 0.930 . S
O1722 Co1711 2.093 . S
O1722 C1714 1.224 . S
H1723 C1755 0.929 . S
H1724 C1757 0.930 . S
H1725 C1758 0.930 . S
H1726 C1756 0.929 . S
H1727 C1759 0.928 . S
O1728 Co1712 2.057 . S
O1728 C1716 1.232 . S
H1729 C1748 0.929 . S
H1730 C1749 0.929 . S
H1731 C1761 0.931 . S
H1732 C1753 0.929 . S
H1733 C1762 0.930 . S
H1734 C1754 0.931 . S
O1735 Co1711 2.097 . S
O1735 C1763 1.214 . S
H1736 C1764 0.929 . S
H1737 C1765 0.929 . S
H1738 C1766 0.930 . S
H1739 C1767 0.929 . S
H1740 C1769 0.930 . S
H1741 C1746 0.930 . S
H1742 C1750 0.953 . S
O1743 Co1712 2.037 . S
O1743 C1763 1.234 . S
C1744 O1718 1.269 . S
C1744 O1719 1.257 . S
C1745 H1720 0.930 1_655 S
C1745 C1748 1.388 . S
C1745 C1750 1.414 1_655 S
C1746 H1741 0.930 . S
C1746 C1749 1.404 . S
C1746 C1750 1.335 1_655 S
N1747 Co1712 2.145 . S
N1747 C1748 1.397 . S
N1747 C1749 1.334 . S
C1748 H1729 0.929 . S
C1748 C1745 1.388 . S
C1748 N1747 1.397 . S
C1749 H1730 0.929 . S
C1749 C1746 1.404 . S
C1749 N1747 1.334 . S
C1750 H1742 0.953 . S
C1750 C1745 1.414 1_455 S
C1750 C1746 1.335 1_455 S
C1751 H1721 0.930 . S
C1751 N1752 1.330 . S
C1751 C1753 1.446 . S
N1752 Co1711 2.151 . S
N1752 C1751 1.330 . S
N1752 C1756 1.418 . S
C1753 H1732 0.929 . S
C1753 C1751 1.446 . S
C1753 C1754 1.332 . S
C1754 H1734 0.931 . S
C1754 C1753 1.332 . S
C1754 C1755 1.267 . S
C1755 H1723 0.929 . S
C1755 C1754 1.267 . S
C1755 C1756 1.251 . S
C1756 H1726 0.929 . S
C1756 N1752 1.418 . S
C1756 C1755 1.251 . S
C1757 H1724 0.930 . S
C1757 C1759 1.406 . S
C1757 C1762 1.261 . S
C1758 H1725 0.930 . S
C1758 N1760 1.325 . S
C1758 C1761 1.357 . S
C1759 H1727 0.928 . S
C1759 C1757 1.406 . S
C1759 N1760 1.261 . S
N1760 Co1711 2.214 . S
N1760 C1758 1.325 . S
N1760 C1759 1.261 . S
C1761 H1731 0.931 . S
C1761 C1758 1.357 . S
C1761 C1762 1.312 . S
C1762 H1733 0.930 . S
C1762 C1757 1.261 . S
C1762 C1761 1.312 . S
C1763 O1735 1.214 . S
C1763 O1743 1.234 . S
C1764 H1736 0.929 . S
C1764 C1767 1.391 . S
C1764 C1769 1.391 . S
C1765 H1737 0.929 . S
C1765 C1766 1.390 . S
C1765 N1768 1.391 . S
C1766 H1738 0.930 . S
C1766 C1765 1.390 . S
C1766 C1767 1.392 . S
C1767 H1739 0.929 . S
C1767 C1764 1.391 . S
C1767 C1766 1.392 . S
N1768 Co1712 2.257 . S
N1768 C1765 1.391 . S
N1768 C1769 1.388 . S
C1769 H1740 0.930 . S
C1769 C1764 1.391 . S
C1769 N1768 1.388 . S
Co1770 O1772 2.143 . S
Co1770 O1778 2.074 . S
Co1770 O1781 2.093 . S
Co1770 O1794 2.097 . S
Co1770 N1811 2.151 . S
Co1770 N1819 2.214 . S
Co1771 O1772 2.160 . S
Co1771 O1777 2.058 . S
Co1771 O1787 2.057 . S
Co1771 O1802 2.037 . S
Co1771 N1806 2.145 . S
Co1771 N1827 2.257 . S
O1772 Co1770 2.143 . S
O1772 Co1771 2.160 . S
C1773 O1774 1.278 . S
C1773 O1781 1.224 . S
O1774 C1773 1.278 . S
C1775 O1776 1.245 . S
C1775 O1787 1.232 . S
O1776 C1775 1.245 . S
O1777 Co1771 2.058 . S
O1777 C1803 1.269 . S
O1778 Co1770 2.074 . S
O1778 C1803 1.257 . S
H1779 C1804 0.930 . S
H1780 C1810 0.930 . S
O1781 Co1770 2.093 . S
O1781 C1773 1.224 . S
H1782 C1814 0.929 . S
H1783 C1816 0.930 . S
H1784 C1817 0.930 . S
H1785 C1815 0.929 . S
H1786 C1818 0.928 . S
O1787 Co1771 2.057 . S
O1787 C1775 1.232 . S
H1788 C1807 0.929 . S
H1789 C1808 0.929 . S
H1790 C1820 0.931 . S
H1791 C1812 0.929 . S
H1792 C1821 0.930 . S
H1793 C1813 0.931 . S
O1794 Co1770 2.097 . S
O1794 C1822 1.214 . S
H1795 C1823 0.929 . S
H1796 C1824 0.929 . S
H1797 C1825 0.930 . S
H1798 C1826 0.929 . S
H1799 C1828 0.930 . S
H1800 C1805 0.930 . S
H1801 C1809 0.930 . S
O1802 Co1771 2.037 . S
O1802 C1822 1.234 . S
C1803 O1777 1.269 . S
C1803 O1778 1.257 . S
C1804 H1779 0.930 . S
C1804 C1807 1.388 . S
C1804 C1809 1.418 . S
C1805 H1800 0.930 . S
C1805 C1808 1.404 . S
C1805 C1809 1.353 . S
N1806 Co1771 2.145 . S
N1806 C1807 1.397 . S
N1806 C1808 1.334 . S
C1807 H1788 0.929 . S
C1807 C1804 1.388 . S
C1807 N1806 1.397 . S
C1808 H1789 0.929 . S
C1808 C1805 1.404 . S
C1808 N1806 1.334 . S
C1809 H1801 0.930 . S
C1809 C1804 1.418 . S
C1809 C1805 1.353 . S
C1810 H1780 0.930 . S
C1810 N1811 1.330 . S
C1810 C1812 1.446 1_545 S
N1811 Co1770 2.151 . S
N1811 C1810 1.330 . S
N1811 C1815 1.418 . S
C1812 H1791 0.929 . S
C1812 C1810 1.446 1_565 S
C1812 C1813 1.332 . S
C1813 H1793 0.931 . S
C1813 C1812 1.332 . S
C1813 C1814 1.267 1_565 S
C1814 H1782 0.929 . S
C1814 C1813 1.267 1_545 S
C1814 C1815 1.251 . S
C1815 H1785 0.929 . S
C1815 N1811 1.418 . S
C1815 C1814 1.251 . S
C1816 H1783 0.930 . S
C1816 C1818 1.406 1_655 S
C1816 C1821 1.261 . S
C1817 H1784 0.930 . S
C1817 N1819 1.325 . S
C1817 C1820 1.357 1_455 S
C1818 H1786 0.928 . S
C1818 C1816 1.406 1_455 S
C1818 N1819 1.261 . S
N1819 Co1770 2.214 . S
N1819 C1817 1.325 . S
N1819 C1818 1.261 . S
C1820 H1790 0.931 . S
C1820 C1817 1.357 1_655 S
C1820 C1821 1.312 . S
C1821 H1792 0.930 . S
C1821 C1816 1.261 . S
C1821 C1820 1.312 . S
C1822 O1794 1.214 . S
C1822 O1802 1.234 . S
C1823 H1795 0.929 . S
C1823 C1826 1.391 . S
C1823 C1828 1.391 . S
C1824 H1796 0.929 . S
C1824 C1825 1.390 . S
C1824 N1827 1.391 . S
C1825 H1797 0.930 . S
C1825 C1824 1.390 . S
C1825 C1826 1.392 . S
C1826 H1798 0.929 . S
C1826 C1823 1.391 . S
C1826 C1825 1.392 . S
N1827 Co1771 2.257 . S
N1827 C1824 1.391 . S
N1827 C1828 1.388 . S
C1828 H1799 0.930 . S
C1828 C1823 1.391 . S
C1828 N1827 1.388 . S
Co1829 O1831 2.143 . S
Co1829 O1837 2.074 . S
Co1829 O1840 2.093 . S
Co1829 O1853 2.097 . S
Co1829 N1870 2.151 . S
Co1829 N1878 2.214 . S
Co1830 O1831 2.160 . S
Co1830 O1836 2.058 . S
Co1830 O1846 2.057 . S
Co1830 O1861 2.037 . S
Co1830 N1865 2.145 . S
Co1830 N1886 2.257 . S
O1831 Co1829 2.143 . S
O1831 Co1830 2.160 . S
C1832 O1833 1.278 . S
C1832 O1840 1.224 . S
O1833 C1832 1.278 . S
C1834 O1835 1.245 . S
C1834 O1846 1.232 . S
O1835 C1834 1.245 . S
O1836 Co1830 2.058 . S
O1836 C1862 1.269 . S
O1837 Co1829 2.074 . S
O1837 C1862 1.257 . S
H1838 C1863 0.930 . S
H1839 C1869 0.930 . S
O1840 Co1829 2.093 . S
O1840 C1832 1.224 . S
H1841 C1873 0.929 . S
H1842 C1875 0.930 . S
H1843 C1876 0.930 . S
H1844 C1874 0.929 . S
H1845 C1877 0.928 . S
O1846 Co1830 2.057 . S
O1846 C1834 1.232 . S
H1847 C1866 0.929 . S
H1848 C1867 0.929 . S
H1849 C1879 0.931 . S
H1850 C1871 0.929 . S
H1851 C1880 0.930 . S
H1852 C1872 0.931 . S
O1853 Co1829 2.097 . S
O1853 C1881 1.214 . S
H1854 C1882 0.929 . S
H1855 C1883 0.929 . S
H1856 C1884 0.930 . S
H1857 C1885 0.929 . S
H1858 C1887 0.930 . S
H1859 C1864 0.930 . S
H1860 C1868 0.930 . S
O1861 Co1830 2.037 . S
O1861 C1881 1.234 . S
C1862 O1836 1.269 . S
C1862 O1837 1.257 . S
C1863 H1838 0.930 . S
C1863 C1866 1.388 . S
C1863 C1868 1.418 . S
C1864 H1859 0.930 . S
C1864 C1867 1.404 . S
C1864 C1868 1.353 . S
N1865 Co1830 2.145 . S
N1865 C1866 1.397 . S
N1865 C1867 1.334 . S
C1866 H1847 0.929 . S
C1866 C1863 1.388 . S
C1866 N1865 1.397 . S
C1867 H1848 0.929 . S
C1867 C1864 1.404 . S
C1867 N1865 1.334 . S
C1868 H1860 0.930 . S
C1868 C1863 1.418 . S
C1868 C1864 1.353 . S
C1869 H1839 0.930 . S
C1869 N1870 1.330 . S
C1869 C1871 1.446 . S
N1870 Co1829 2.151 . S
N1870 C1869 1.330 . S
N1870 C1874 1.418 . S
C1871 H1850 0.929 . S
C1871 C1869 1.446 . S
C1871 C1872 1.332 . S
C1872 H1852 0.931 . S
C1872 C1871 1.332 . S
C1872 C1873 1.267 . S
C1873 H1841 0.929 . S
C1873 C1872 1.267 . S
C1873 C1874 1.251 . S
C1874 H1844 0.929 . S
C1874 N1870 1.418 . S
C1874 C1873 1.251 . S
C1875 H1842 0.930 . S
C1875 C1877 1.406 . S
C1875 C1880 1.261 . S
C1876 H1843 0.930 . S
C1876 N1878 1.325 . S
C1876 C1879 1.357 . S
C1877 H1845 0.928 . S
C1877 C1875 1.406 . S
C1877 N1878 1.261 . S
N1878 Co1829 2.214 . S
N1878 C1876 1.325 . S
N1878 C1877 1.261 . S
C1879 H1849 0.931 . S
C1879 C1876 1.357 . S
C1879 C1880 1.312 . S
C1880 H1851 0.930 . S
C1880 C1875 1.261 . S
C1880 C1879 1.312 . S
C1881 O1853 1.214 . S
C1881 O1861 1.234 . S
C1882 H1854 0.929 . S
C1882 C1885 1.391 . S
C1882 C1887 1.391 . S
C1883 H1855 0.929 . S
C1883 C1884 1.390 . S
C1883 N1886 1.391 . S
C1884 H1856 0.930 . S
C1884 C1883 1.390 . S
C1884 C1885 1.392 . S
C1885 H1857 0.929 . S
C1885 C1882 1.391 . S
C1885 C1884 1.392 . S
N1886 Co1830 2.257 . S
N1886 C1883 1.391 . S
N1886 C1887 1.388 . S
C1887 H1858 0.930 . S
C1887 C1882 1.391 . S
C1887 N1886 1.388 . S
H1888 C1894 0.930 . S
H1889 C1897 0.939 . S
H1890 C1898 0.930 . S
H1891 C1899 0.930 . S
H1892 C1902 0.939 . S
H1893 C1903 0.930 . S
C1894 H1888 0.930 . S
C1894 C1895 1.355 . S
C1894 C1896 1.415 . S
C1895 C1894 1.355 . S
C1895 C1897 1.388 1_556 S
C1896 C1894 1.415 . S
C1896 C1901 1.425 1_656 S
C1896 C1903 1.409 . S
C1897 H1889 0.939 . S
C1897 C1895 1.388 1_554 S
C1897 C1898 1.386 1_655 S
C1898 H1890 0.930 . S
C1898 C1897 1.386 1_455 S
C1898 C1901 1.409 . S
C1899 H1891 0.930 . S
C1899 C1900 1.355 . S
C1899 C1901 1.415 . S
C1900 C1899 1.355 . S
C1900 C1902 1.388 1_554 S
C1901 C1896 1.425 1_454 S
C1901 C1898 1.409 . S
C1901 C1899 1.415 . S
C1902 H1892 0.939 . S
C1902 C1900 1.388 1_556 S
C1902 C1903 1.386 1_455 S
C1903 H1893 0.930 . S
C1903 C1896 1.409 . S
C1903 C1902 1.386 1_655 S
H1904 C1910 0.930 . S
H1905 C1913 0.930 . S
H1906 C1914 0.930 . S
H1907 C1915 0.930 . S
H1908 C1918 0.930 . S
H1909 C1919 0.930 . S
C1910 H1904 0.930 . S
C1910 C1911 1.355 . S
C1910 C1912 1.415 . S
C1911 C1910 1.355 . S
C1911 C1913 1.419 . S
C1912 C1910 1.415 . S
C1912 C1917 1.425 . S
C1912 C1919 1.409 . S
C1913 H1905 0.930 . S
C1913 C1911 1.419 . S
C1913 C1914 1.362 . S
C1914 H1906 0.930 . S
C1914 C1913 1.362 . S
C1914 C1917 1.409 . S
C1915 H1907 0.930 . S
C1915 C1916 1.355 . S
C1915 C1917 1.415 . S
C1916 C1915 1.355 . S
C1916 C1918 1.419 . S
C1917 C1912 1.425 . S
C1917 C1914 1.409 . S
C1917 C1915 1.415 . S
C1918 H1908 0.930 . S
C1918 C1916 1.419 . S
C1918 C1919 1.362 . S
C1919 H1909 0.930 . S
C1919 C1912 1.409 . S
C1919 C1918 1.362 . S
H1920 C1926 0.930 . S
H1921 C1929 0.930 . S
H1922 C1930 0.930 . S
H1923 C1931 0.930 . S
H1924 C1934 0.930 . S
H1925 C1935 0.930 . S
C1926 H1920 0.930 . S
C1926 C1927 1.355 . S
C1926 C1928 1.415 . S
C1927 C1926 1.355 . S
C1927 C1929 1.419 . S
C1928 C1926 1.415 . S
C1928 C1933 1.425 . S
C1928 C1935 1.409 . S
C1929 H1921 0.930 . S
C1929 C1927 1.419 . S
C1929 C1930 1.362 . S
C1930 H1922 0.930 . S
C1930 C1929 1.362 . S
C1930 C1933 1.409 . S
C1931 H1923 0.930 . S
C1931 C1932 1.355 . S
C1931 C1933 1.415 . S
C1932 C1931 1.355 . S
C1932 C1934 1.419 . S
C1933 C1928 1.425 . S
C1933 C1930 1.409 . S
C1933 C1931 1.415 . S
C1934 H1924 0.930 . S
C1934 C1932 1.419 . S
C1934 C1935 1.362 . S
C1935 H1925 0.930 . S
C1935 C1928 1.409 . S
C1935 C1934 1.362 . S
H1936 C1942 0.930 . S
H1937 C1945 0.930 . S
H1938 C1946 0.930 . S
H1939 C1947 0.930 . S
H1940 C1950 0.930 . S
H1941 C1951 0.930 . S
C1942 H1936 0.930 . S
C1942 C1943 1.355 . S
C1942 C1944 1.415 . S
C1943 C1942 1.355 . S
C1943 C1945 1.419 . S
C1944 C1942 1.415 . S
C1944 C1949 1.425 . S
C1944 C1951 1.409 . S
C1945 H1937 0.930 . S
C1945 C1943 1.419 . S
C1945 C1946 1.362 . S
C1946 H1938 0.930 . S
C1946 C1945 1.362 . S
C1946 C1949 1.409 . S
C1947 H1939 0.930 . S
C1947 C1948 1.355 . S
C1947 C1949 1.415 . S
C1948 C1947 1.355 . S
C1948 C1950 1.419 . S
C1949 C1944 1.425 . S
C1949 C1946 1.409 . S
C1949 C1947 1.415 . S
C1950 H1940 0.930 . S
C1950 C1948 1.419 . S
C1950 C1951 1.362 . S
C1951 H1941 0.930 . S
C1951 C1944 1.409 . S
C1951 C1950 1.362 . S
H1952 C1958 0.930 1_455 S
H1953 C1961 0.930 . S
H1954 C1962 0.930 . S
H1955 C1963 0.930 1_655 S
H1956 C1966 0.930 . S
H1957 C1967 0.930 . S
C1958 H1952 0.930 1_655 S
C1958 C1959 1.355 . S
C1958 C1960 1.415 1_655 S
C1959 C1958 1.355 . S
C1959 C1961 1.419 . S
C1960 C1958 1.415 1_455 S
C1960 C1965 1.425 1_455 S
C1960 C1967 1.409 . S
C1961 H1953 0.930 . S
C1961 C1959 1.419 . S
C1961 C1962 1.362 . S
C1962 H1954 0.930 . S
C1962 C1961 1.362 . S
C1962 C1965 1.409 . S
C1963 H1955 0.930 1_455 S
C1963 C1964 1.355 . S
C1963 C1965 1.415 1_455 S
C1964 C1963 1.355 . S
C1964 C1966 1.419 . S
C1965 C1960 1.425 1_655 S
C1965 C1962 1.409 . S
C1965 C1963 1.415 1_655 S
C1966 H1956 0.930 . S
C1966 C1964 1.419 . S
C1966 C1967 1.362 . S
C1967 H1957 0.930 . S
C1967 C1960 1.409 . S
C1967 C1966 1.362 . S
H1968 C1974 0.930 . S
H1969 C1977 0.930 . S
H1970 C1978 0.930 . S
H1971 C1979 0.930 . S
H1972 C1982 0.930 . S
H1973 C1983 0.930 . S
C1974 H1968 0.930 . S
C1974 C1975 1.355 . S
C1974 C1976 1.415 . S
C1975 C1974 1.355 . S
C1975 C1977 1.419 . S
C1976 C1974 1.415 . S
C1976 C1981 1.425 . S
C1976 C1983 1.409 . S
C1977 H1969 0.930 . S
C1977 C1975 1.419 . S
C1977 C1978 1.362 . S
C1978 H1970 0.930 . S
C1978 C1977 1.362 . S
C1978 C1981 1.409 . S
C1979 H1971 0.930 . S
C1979 C1980 1.355 . S
C1979 C1981 1.415 . S
C1980 C1979 1.355 . S
C1980 C1982 1.419 . S
C1981 C1976 1.425 . S
C1981 C1978 1.409 . S
C1981 C1979 1.415 . S
C1982 H1972 0.930 . S
C1982 C1980 1.419 . S
C1982 C1983 1.362 . S
C1983 H1973 0.930 . S
C1983 C1976 1.409 . S
C1983 C1982 1.362 . S
H1984 C1990 0.930 . S
H1985 C1993 0.930 . S
H1986 C1994 0.930 . S
H1987 C1995 0.930 . S
H1988 C1998 0.930 . S
H1989 C1999 0.930 . S
C1990 H1984 0.930 . S
C1990 C1991 1.355 . S
C1990 C1992 1.413 . S
C1991 C1990 1.355 . S
C1991 C1993 1.419 . S
C1992 C1990 1.413 . S
C1992 C1997 1.425 1_556 S
C1992 C1999 1.411 1_556 S
C1993 H1985 0.930 . S
C1993 C1991 1.419 . S
C1993 C1994 1.362 . S
C1994 H1986 0.930 . S
C1994 C1993 1.362 . S
C1994 C1997 1.411 1_556 S
C1995 H1987 0.930 . S
C1995 C1996 1.355 . S
C1995 C1997 1.413 . S
C1996 C1995 1.355 . S
C1996 C1998 1.419 . S
C1997 C1992 1.425 1_554 S
C1997 C1994 1.411 1_554 S
C1997 C1995 1.413 . S
C1998 H1988 0.930 . S
C1998 C1996 1.419 . S
C1998 C1999 1.362 . S
C1999 H1989 0.930 . S
C1999 C1992 1.411 1_554 S
C1999 C1998 1.362 . S
H2000 C2006 0.930 . S
H2001 C2009 0.930 . S
H2002 C2010 0.930 . S
H2003 C2011 0.930 . S
H2004 C2014 0.930 . S
H2005 C2015 0.930 . S
C2006 H2000 0.930 . S
C2006 C2007 1.355 . S
C2006 C2008 1.415 . S
C2007 C2006 1.355 . S
C2007 C2009 1.419 . S
C2008 C2006 1.415 . S
C2008 C2013 1.425 . S
C2008 C2015 1.409 . S
C2009 H2001 0.930 . S
C2009 C2007 1.419 . S
C2009 C2010 1.362 . S
C2010 H2002 0.930 . S
C2010 C2009 1.362 . S
C2010 C2013 1.409 . S
C2011 H2003 0.930 . S
C2011 C2012 1.355 . S
C2011 C2013 1.415 . S
C2012 C2011 1.355 . S
C2012 C2014 1.419 . S
C2013 C2008 1.425 . S
C2013 C2010 1.409 . S
C2013 C2011 1.415 . S
C2014 H2004 0.930 . S
C2014 C2012 1.419 . S
C2014 C2015 1.362 . S
C2015 H2005 0.930 . S
C2015 C2008 1.409 . S
C2015 C2014 1.362 . S
H2016 C2022 0.930 . S
H2017 C2025 0.930 . S
H2018 C2026 0.930 . S
H2019 C2027 0.930 . S
H2020 C2030 0.930 . S
H2021 C2031 0.930 . S
C2022 H2016 0.930 . S
C2022 C2023 1.355 . S
C2022 C2024 1.415 . S
C2023 C2022 1.355 . S
C2023 C2025 1.419 . S
C2024 C2022 1.415 . S
C2024 C2029 1.425 . S
C2024 C2031 1.409 . S
C2025 H2017 0.930 . S
C2025 C2023 1.419 . S
C2025 C2026 1.362 . S
C2026 H2018 0.930 . S
C2026 C2025 1.362 . S
C2026 C2029 1.409 . S
C2027 H2019 0.930 . S
C2027 C2028 1.355 . S
C2027 C2029 1.415 . S
C2028 C2027 1.355 . S
C2028 C2030 1.419 . S
C2029 C2024 1.425 . S
C2029 C2026 1.409 . S
C2029 C2027 1.415 . S
C2030 H2020 0.930 . S
C2030 C2028 1.419 . S
C2030 C2031 1.362 . S
C2031 H2021 0.930 . S
C2031 C2024 1.409 . S
C2031 C2030 1.362 . S
H2032 C2038 0.930 . S
H2033 C2041 0.930 . S
H2034 C2042 0.930 . S
H2035 C2043 0.930 . S
H2036 C2046 0.930 . S
H2037 C2047 0.930 . S
C2038 H2032 0.930 . S
C2038 C2039 1.355 . S
C2038 C2040 1.415 . S
C2039 C2038 1.355 . S
C2039 C2041 1.419 . S
C2040 C2038 1.415 . S
C2040 C2045 1.425 . S
C2040 C2047 1.409 . S
C2041 H2033 0.930 . S
C2041 C2039 1.419 . S
C2041 C2042 1.362 . S
C2042 H2034 0.930 . S
C2042 C2041 1.362 . S
C2042 C2045 1.409 . S
C2043 H2035 0.930 . S
C2043 C2044 1.355 . S
C2043 C2045 1.415 . S
C2044 C2043 1.355 . S
C2044 C2046 1.419 . S
C2045 C2040 1.425 . S
C2045 C2042 1.409 . S
C2045 C2043 1.415 . S
C2046 H2036 0.930 . S
C2046 C2044 1.419 . S
C2046 C2047 1.362 . S
C2047 H2037 0.930 . S
C2047 C2040 1.409 . S
C2047 C2046 1.362 . S
H2048 C2054 0.930 . S
H2049 C2057 0.930 . S
H2050 C2058 0.930 . S
H2051 C2059 0.930 . S
H2052 C2062 0.930 . S
H2053 C2063 0.930 . S
C2054 H2048 0.930 . S
C2054 C2055 1.355 . S
C2054 C2056 1.415 . S
C2055 C2054 1.355 . S
C2055 C2057 1.419 . S
C2056 C2054 1.415 . S
C2056 C2061 1.425 . S
C2056 C2063 1.409 . S
C2057 H2049 0.930 . S
C2057 C2055 1.419 . S
C2057 C2058 1.362 . S
C2058 H2050 0.930 . S
C2058 C2057 1.362 . S
C2058 C2061 1.409 . S
C2059 H2051 0.930 . S
C2059 C2060 1.355 . S
C2059 C2061 1.415 . S
C2060 C2059 1.355 . S
C2060 C2062 1.419 . S
C2061 C2056 1.425 . S
C2061 C2058 1.409 . S
C2061 C2059 1.415 . S
C2062 H2052 0.930 . S
C2062 C2060 1.419 . S
C2062 C2063 1.362 . S
C2063 H2053 0.930 . S
C2063 C2056 1.409 . S
C2063 C2062 1.362 . S
H2064 C2070 0.930 . S
H2065 C2073 0.930 . S
H2066 C2074 0.930 . S
H2067 C2075 0.930 . S
H2068 C2078 0.930 . S
H2069 C2079 0.930 . S
C2070 H2064 0.930 . S
C2070 C2071 1.355 . S
C2070 C2072 1.415 . S
C2071 C2070 1.355 . S
C2071 C2073 1.419 . S
C2072 C2070 1.415 . S
C2072 C2077 1.425 . S
C2072 C2079 1.409 . S
C2073 H2065 0.930 . S
C2073 C2071 1.419 . S
C2073 C2074 1.362 . S
C2074 H2066 0.930 . S
C2074 C2073 1.362 . S
C2074 C2077 1.409 . S
C2075 H2067 0.930 . S
C2075 C2076 1.355 . S
C2075 C2077 1.415 . S
C2076 C2075 1.355 . S
C2076 C2078 1.419 . S
C2077 C2072 1.425 . S
C2077 C2074 1.409 . S
C2077 C2075 1.415 . S
C2078 H2068 0.930 . S
C2078 C2076 1.419 . S
C2078 C2079 1.362 . S
C2079 H2069 0.930 . S
C2079 C2072 1.409 . S
C2079 C2078 1.362 . S
H2080 C2086 0.930 . S
H2081 C2089 0.930 . S
H2082 C2090 0.930 . S
H2083 C2091 0.930 . S
H2084 C2094 0.930 . S
H2085 C2095 0.930 . S
C2086 H2080 0.930 . S
C2086 C2087 1.355 . S
C2086 C2088 1.415 1_565 S
C2087 C2086 1.355 . S
C2087 C2089 1.419 . S
C2088 C2086 1.415 1_545 S
C2088 C2093 1.425 1_545 S
C2088 C2095 1.409 . S
C2089 H2081 0.930 . S
C2089 C2087 1.419 . S
C2089 C2090 1.362 . S
C2090 H2082 0.930 . S
C2090 C2089 1.362 . S
C2090 C2093 1.409 . S
C2091 H2083 0.930 . S
C2091 C2092 1.355 . S
C2091 C2093 1.415 1_545 S
C2092 C2091 1.355 . S
C2092 C2094 1.419 . S
C2093 C2088 1.425 1_565 S
C2093 C2090 1.409 . S
C2093 C2091 1.415 1_565 S
C2094 H2084 0.930 . S
C2094 C2092 1.419 . S
C2094 C2095 1.362 . S
C2095 H2085 0.930 . S
C2095 C2088 1.409 . S
C2095 C2094 1.362 . S
H2096 C2102 0.930 . S
H2097 C2105 0.930 . S
H2098 C2106 0.930 . S
H2099 C2107 0.930 . S
H2100 C2110 0.930 . S
H2101 C2111 0.930 . S
C2102 H2096 0.930 . S
C2102 C2103 1.355 . S
C2102 C2104 1.415 1_565 S
C2103 C2102 1.355 . S
C2103 C2105 1.419 1_556 S
C2104 C2102 1.415 1_545 S
C2104 C2109 1.425 1_446 S
C2104 C2111 1.409 1_455 S
C2105 H2097 0.930 . S
C2105 C2103 1.419 1_554 S
C2105 C2106 1.362 . S
C2106 H2098 0.930 . S
C2106 C2105 1.362 . S
C2106 C2109 1.409 1_455 S
C2107 H2099 0.930 . S
C2107 C2108 1.355 . S
C2107 C2109 1.415 1_545 S
C2108 C2107 1.355 . S
C2108 C2110 1.419 1_554 S
C2109 C2104 1.425 1_664 S
C2109 C2106 1.409 1_655 S
C2109 C2107 1.415 1_565 S
C2110 H2100 0.930 . S
C2110 C2108 1.419 1_556 S
C2110 C2111 1.362 . S
C2111 H2101 0.930 . S
C2111 C2104 1.409 1_655 S
C2111 C2110 1.362 . S
H2112 C2118 0.930 . S
H2113 C2121 0.930 . S
H2114 C2122 0.930 . S
H2115 C2123 0.930 . S
H2116 C2126 0.930 . S
H2117 C2127 0.930 . S
C2118 H2112 0.930 . S
C2118 C2119 1.355 . S
C2118 C2120 1.415 . S
C2119 C2118 1.355 . S
C2119 C2121 1.419 1_556 S
C2120 C2118 1.415 . S
C2120 C2125 1.425 1_546 S
C2120 C2127 1.409 1_545 S
C2121 H2113 0.930 . S
C2121 C2119 1.419 1_554 S
C2121 C2122 1.362 . S
C2122 H2114 0.930 . S
C2122 C2121 1.362 . S
C2122 C2125 1.409 1_545 S
C2123 H2115 0.930 . S
C2123 C2124 1.355 . S
C2123 C2125 1.415 . S
C2124 C2123 1.355 . S
C2124 C2126 1.419 1_554 S
C2125 C2120 1.425 1_564 S
C2125 C2122 1.409 1_565 S
C2125 C2123 1.415 . S
C2126 H2116 0.930 . S
C2126 C2124 1.419 1_556 S
C2126 C2127 1.362 . S
C2127 H2117 0.930 . S
C2127 C2120 1.409 1_565 S
C2127 C2126 1.362 . S
H2128 C2134 0.920 1_655 S
H2129 C2137 0.930 . S
H2130 C2138 0.930 . S
H2131 C2139 0.920 1_455 S
H2132 C2142 0.930 . S
H2133 C2143 0.930 . S
C2134 H2128 0.920 1_455 S
C2134 C2135 1.355 . S
C2134 C2136 1.415 1_455 S
C2135 C2134 1.355 . S
C2135 C2137 1.419 . S
C2136 C2134 1.415 1_655 S
C2136 C2141 1.425 1_645 S
C2136 C2143 1.409 . S
C2137 H2129 0.930 . S
C2137 C2135 1.419 . S
C2137 C2138 1.362 1_545 S
C2138 H2130 0.930 . S
C2138 C2137 1.362 1_565 S
C2138 C2141 1.409 . S
C2139 H2131 0.920 1_655 S
C2139 C2140 1.355 . S
C2139 C2141 1.415 1_655 S
C2140 C2139 1.355 . S
C2140 C2142 1.419 . S
C2141 C2136 1.425 1_465 S
C2141 C2138 1.409 . S
C2141 C2139 1.415 1_455 S
C2142 H2132 0.930 . S
C2142 C2140 1.419 . S
C2142 C2143 1.362 1_565 S
C2143 H2133 0.930 . S
C2143 C2136 1.409 . S
C2143 C2142 1.362 1_545 S
H2144 C2150 0.930 . S
H2145 C2153 0.930 . S
H2146 C2154 0.930 . S
H2147 C2155 0.930 . S
H2148 C2158 0.930 . S
H2149 C2159 0.930 . S
C2150 H2144 0.930 . S
C2150 C2151 1.355 . S
C2150 C2152 1.415 1_655 S
C2151 C2150 1.355 . S
C2151 C2153 1.419 . S
C2152 C2150 1.415 1_455 S
C2152 C2157 1.425 1_455 S
C2152 C2159 1.409 . S
C2153 H2145 0.930 . S
C2153 C2151 1.419 . S
C2153 C2154 1.362 . S
C2154 H2146 0.930 . S
C2154 C2153 1.362 . S
C2154 C2157 1.409 . S
C2155 H2147 0.930 . S
C2155 C2156 1.355 . S
C2155 C2157 1.415 1_455 S
C2156 C2155 1.355 . S
C2156 C2158 1.419 . S
C2157 C2152 1.425 1_655 S
C2157 C2154 1.409 . S
C2157 C2155 1.415 1_655 S
C2158 H2148 0.930 . S
C2158 C2156 1.419 . S
C2158 C2159 1.362 . S
C2159 H2149 0.930 . S
C2159 C2152 1.409 . S
C2159 C2158 1.362 . S
H2160 C2166 0.930 . S
H2161 C2169 0.930 . S
H2162 C2170 0.930 . S
H2163 C2171 0.930 . S
H2164 C2174 0.930 . S
H2165 C2175 0.930 . S
C2166 H2160 0.930 . S
C2166 C2167 1.355 . S
C2166 C2168 1.415 . S
C2167 C2166 1.355 . S
C2167 C2169 1.419 . S
C2168 C2166 1.415 . S
C2168 C2173 1.425 1_455 S
C2168 C2175 1.409 . S
C2169 H2161 0.930 . S
C2169 C2167 1.419 . S
C2169 C2170 1.362 1_455 S
C2170 H2162 0.930 . S
C2170 C2169 1.362 1_655 S
C2170 C2173 1.409 . S
C2171 H2163 0.930 . S
C2171 C2172 1.355 . S
C2171 C2173 1.415 . S
C2172 C2171 1.355 . S
C2172 C2174 1.419 . S
C2173 C2168 1.425 1_655 S
C2173 C2170 1.409 . S
C2173 C2171 1.415 . S
C2174 H2164 0.930 . S
C2174 C2172 1.419 . S
C2174 C2175 1.362 1_655 S
C2175 H2165 0.930 . S
C2175 C2168 1.409 . S
C2175 C2174 1.362 1_455 S
H2176 C2182 0.930 . S
H2177 C2185 0.930 . S
H2178 C2186 0.930 . S
H2179 C2187 0.930 . S
H2180 C2190 0.930 . S
H2181 C2191 0.930 . S
C2182 H2176 0.930 . S
C2182 C2183 1.355 . S
C2182 C2184 1.415 . S
C2183 C2182 1.355 . S
C2183 C2185 1.419 . S
C2184 C2182 1.415 . S
C2184 C2189 1.425 . S
C2184 C2191 1.409 . S
C2185 H2177 0.930 . S
C2185 C2183 1.419 . S
C2185 C2186 1.362 . S
C2186 H2178 0.930 . S
C2186 C2185 1.362 . S
C2186 C2189 1.409 . S
C2187 H2179 0.930 . S
C2187 C2188 1.355 . S
C2187 C2189 1.415 . S
C2188 C2187 1.355 . S
C2188 C2190 1.419 . S
C2189 C2184 1.425 . S
C2189 C2186 1.409 . S
C2189 C2187 1.415 . S
C2190 H2180 0.930 . S
C2190 C2188 1.419 . S
C2190 C2191 1.362 . S
C2191 H2181 0.930 . S
C2191 C2184 1.409 . S
C2191 C2190 1.362 . S
H2192 C2198 0.930 . S
H2193 C2201 0.930 . S
H2194 C2202 0.930 . S
H2195 C2203 0.930 . S
H2196 C2206 0.930 . S
H2197 C2207 0.930 . S
C2198 H2192 0.930 . S
C2198 C2199 1.355 . S
C2198 C2200 1.415 . S
C2199 C2198 1.355 . S
C2199 C2201 1.419 . S
C2200 C2198 1.415 . S
C2200 C2205 1.425 . S
C2200 C2207 1.409 . S
C2201 H2193 0.930 . S
C2201 C2199 1.419 . S
C2201 C2202 1.362 . S
C2202 H2194 0.930 . S
C2202 C2201 1.362 . S
C2202 C2205 1.409 . S
C2203 H2195 0.930 . S
C2203 C2204 1.355 . S
C2203 C2205 1.415 . S
C2204 C2203 1.355 . S
C2204 C2206 1.419 . S
C2205 C2200 1.425 . S
C2205 C2202 1.409 . S
C2205 C2203 1.415 . S
C2206 H2196 0.930 . S
C2206 C2204 1.419 . S
C2206 C2207 1.362 . S
C2207 H2197 0.930 . S
C2207 C2200 1.409 . S
C2207 C2206 1.362 . S
H2208 C2214 0.930 1_455 S
H2209 C2217 0.930 . S
H2210 C2218 0.930 . S
H2211 C2219 0.930 1_655 S
H2212 C2222 0.930 . S
H2213 C2223 0.930 . S
C2214 H2208 0.930 1_655 S
C2214 C2215 1.355 . S
C2214 C2216 1.415 1_655 S
C2215 C2214 1.355 . S
C2215 C2217 1.419 . S
C2216 C2214 1.415 1_455 S
C2216 C2221 1.425 1_455 S
C2216 C2223 1.409 . S
C2217 H2209 0.930 . S
C2217 C2215 1.419 . S
C2217 C2218 1.362 . S
C2218 H2210 0.930 . S
C2218 C2217 1.362 . S
C2218 C2221 1.409 . S
C2219 H2211 0.930 1_455 S
C2219 C2220 1.355 . S
C2219 C2221 1.415 1_455 S
C2220 C2219 1.355 . S
C2220 C2222 1.419 . S
C2221 C2216 1.425 1_655 S
C2221 C2218 1.409 . S
C2221 C2219 1.415 1_655 S
C2222 H2212 0.930 . S
C2222 C2220 1.419 . S
C2222 C2223 1.362 . S
C2223 H2213 0.930 . S
C2223 C2216 1.409 . S
C2223 C2222 1.362 . S
H2224 C2230 0.930 . S
H2225 C2233 0.930 . S
H2226 C2234 0.930 . S
H2227 C2235 0.930 . S
H2228 C2238 0.930 . S
H2229 C2239 0.930 . S
C2230 H2224 0.930 . S
C2230 C2231 1.355 . S
C2230 C2232 1.415 . S
C2231 C2230 1.355 . S
C2231 C2233 1.419 . S
C2232 C2230 1.415 . S
C2232 C2237 1.425 . S
C2232 C2239 1.409 . S
C2233 H2225 0.930 . S
C2233 C2231 1.419 . S
C2233 C2234 1.362 . S
C2234 H2226 0.930 . S
C2234 C2233 1.362 . S
C2234 C2237 1.409 . S
C2235 H2227 0.930 . S
C2235 C2236 1.355 . S
C2235 C2237 1.415 . S
C2236 C2235 1.355 . S
C2236 C2238 1.419 . S
C2237 C2232 1.425 . S
C2237 C2234 1.409 . S
C2237 C2235 1.415 . S
C2238 H2228 0.930 . S
C2238 C2236 1.419 . S
C2238 C2239 1.362 . S
C2239 H2229 0.930 . S
C2239 C2232 1.409 . S
C2239 C2238 1.362 . S
H2240 C2246 0.930 . S
H2241 C2249 0.930 . S
H2242 C2250 0.930 . S
H2243 C2251 0.930 . S
H2244 C2254 0.930 . S
H2245 C2255 0.930 . S
C2246 H2240 0.930 . S
C2246 C2247 1.355 . S
C2246 C2248 1.415 . S
C2247 C2246 1.355 . S
C2247 C2249 1.419 . S
C2248 C2246 1.415 . S
C2248 C2253 1.425 . S
C2248 C2255 1.409 . S
C2249 H2241 0.930 . S
C2249 C2247 1.419 . S
C2249 C2250 1.362 . S
C2250 H2242 0.930 . S
C2250 C2249 1.362 . S
C2250 C2253 1.409 . S
C2251 H2243 0.930 . S
C2251 C2252 1.355 . S
C2251 C2253 1.415 . S
C2252 C2251 1.355 . S
C2252 C2254 1.419 . S
C2253 C2248 1.425 . S
C2253 C2250 1.409 . S
C2253 C2251 1.415 . S
C2254 H2244 0.930 . S
C2254 C2252 1.419 . S
C2254 C2255 1.362 . S
C2255 H2245 0.930 . S
C2255 C2248 1.409 . S
C2255 C2254 1.362 . S
H2256 C2262 0.930 . S
H2257 C2265 0.930 . S
H2258 C2266 0.930 . S
H2259 C2267 0.930 . S
H2260 C2270 0.930 . S
H2261 C2271 0.930 . S
C2262 H2256 0.930 . S
C2262 C2263 1.355 . S
C2262 C2264 1.415 . S
C2263 C2262 1.355 . S
C2263 C2265 1.419 . S
C2264 C2262 1.415 . S
C2264 C2269 1.425 1_455 S
C2264 C2271 1.409 . S
C2265 H2257 0.930 . S
C2265 C2263 1.419 . S
C2265 C2266 1.362 1_455 S
C2266 H2258 0.930 . S
C2266 C2265 1.362 1_655 S
C2266 C2269 1.409 . S
C2267 H2259 0.930 . S
C2267 C2268 1.355 . S
C2267 C2269 1.415 . S
C2268 C2267 1.355 . S
C2268 C2270 1.419 . S
C2269 C2264 1.425 1_655 S
C2269 C2266 1.409 . S
C2269 C2267 1.415 . S
C2270 H2260 0.930 . S
C2270 C2268 1.419 . S
C2270 C2271 1.362 1_655 S
C2271 H2261 0.930 . S
C2271 C2264 1.409 . S
C2271 C2270 1.362 1_455 S
H2272 C2278 0.930 . S
H2273 C2281 0.928 1_455 S
H2274 C2282 0.930 . S
H2275 C2283 0.930 . S
H2276 C2286 0.928 1_655 S
H2277 C2287 0.930 . S
C2278 H2272 0.930 . S
C2278 C2279 1.355 . S
C2278 C2280 1.415 . S
C2279 C2278 1.355 . S
C2279 C2281 1.429 . S
C2280 C2278 1.415 . S
C2280 C2285 1.425 1_655 S
C2280 C2287 1.409 . S
C2281 H2273 0.928 1_655 S
C2281 C2279 1.429 . S
C2281 C2282 1.355 1_655 S
C2282 H2274 0.930 . S
C2282 C2281 1.355 1_455 S
C2282 C2285 1.409 . S
C2283 H2275 0.930 . S
C2283 C2284 1.355 . S
C2283 C2285 1.415 . S
C2284 C2283 1.355 . S
C2284 C2286 1.429 . S
C2285 C2280 1.425 1_455 S
C2285 C2282 1.409 . S
C2285 C2283 1.415 . S
C2286 H2276 0.928 1_455 S
C2286 C2284 1.429 . S
C2286 C2287 1.355 1_455 S
C2287 H2277 0.930 . S
C2287 C2280 1.409 . S
C2287 C2286 1.355 1_655 S
H2288 C2294 0.930 . S
H2289 C2297 0.930 . S
H2290 C2298 0.930 . S
H2291 C2299 0.930 . S
H2292 C2302 0.930 . S
H2293 C2303 0.930 . S
C2294 H2288 0.930 . S
C2294 C2295 1.355 . S
C2294 C2296 1.415 . S
C2295 C2294 1.355 . S
C2295 C2297 1.419 . S
C2296 C2294 1.415 . S
C2296 C2301 1.425 1_655 S
C2296 C2303 1.409 . S
C2297 H2289 0.930 . S
C2297 C2295 1.419 . S
C2297 C2298 1.362 1_655 S
C2298 H2290 0.930 . S
C2298 C2297 1.362 1_455 S
C2298 C2301 1.409 . S
C2299 H2291 0.930 . S
C2299 C2300 1.355 . S
C2299 C2301 1.415 . S
C2300 C2299 1.355 . S
C2300 C2302 1.419 . S
C2301 C2296 1.425 1_455 S
C2301 C2298 1.409 . S
C2301 C2299 1.415 . S
C2302 H2292 0.930 . S
C2302 C2300 1.419 . S
C2302 C2303 1.362 1_455 S
C2303 H2293 0.930 . S
C2303 C2296 1.409 . S
C2303 C2302 1.362 1_655 S
H2304 C2310 0.930 . S
H2305 C2313 0.930 . S
H2306 C2314 0.930 . S
H2307 C2315 0.930 . S
H2308 C2318 0.930 . S
H2309 C2319 0.930 . S
C2310 H2304 0.930 . S
C2310 C2311 1.355 . S
C2310 C2312 1.415 . S
C2311 C2310 1.355 . S
C2311 C2313 1.419 . S
C2312 C2310 1.415 . S
C2312 C2317 1.425 . S
C2312 C2319 1.409 . S
C2313 H2305 0.930 . S
C2313 C2311 1.419 . S
C2313 C2314 1.362 . S
C2314 H2306 0.930 . S
C2314 C2313 1.362 . S
C2314 C2317 1.409 . S
C2315 H2307 0.930 . S
C2315 C2316 1.355 . S
C2315 C2317 1.415 . S
C2316 C2315 1.355 . S
C2316 C2318 1.419 . S
C2317 C2312 1.425 . S
C2317 C2314 1.409 . S
C2317 C2315 1.415 . S
C2318 H2308 0.930 . S
C2318 C2316 1.419 . S
C2318 C2319 1.362 . S
C2319 H2309 0.930 . S
C2319 C2312 1.409 . S
C2319 C2318 1.362 . S
H2320 C2326 0.930 . S
H2321 C2329 0.930 . S
H2322 C2330 0.930 . S
H2323 C2331 0.930 . S
H2324 C2334 0.930 . S
H2325 C2335 0.930 . S
C2326 H2320 0.930 . S
C2326 C2327 1.355 . S
C2326 C2328 1.415 . S
C2327 C2326 1.355 . S
C2327 C2329 1.419 . S
C2328 C2326 1.415 . S
C2328 C2333 1.425 . S
C2328 C2335 1.409 . S
C2329 H2321 0.930 . S
C2329 C2327 1.419 . S
C2329 C2330 1.362 . S
C2330 H2322 0.930 . S
C2330 C2329 1.362 . S
C2330 C2333 1.409 . S
C2331 H2323 0.930 . S
C2331 C2332 1.355 . S
C2331 C2333 1.415 . S
C2332 C2331 1.355 . S
C2332 C2334 1.419 . S
C2333 C2328 1.425 . S
C2333 C2330 1.409 . S
C2333 C2331 1.415 . S
C2334 H2324 0.930 . S
C2334 C2332 1.419 . S
C2334 C2335 1.362 . S
C2335 H2325 0.930 . S
C2335 C2328 1.409 . S
C2335 C2334 1.362 . S
H2336 C2342 0.931 1_455 S
H2337 C2345 0.930 . S
H2338 C2346 0.930 . S
H2339 C2347 0.931 1_655 S
H2340 C2350 0.930 . S
H2341 C2351 0.930 . S
C2342 H2336 0.931 1_655 S
C2342 C2343 1.352 . S
C2342 C2344 1.415 1_655 S
C2343 C2342 1.352 . S
C2343 C2345 1.419 . S
C2344 C2342 1.415 1_455 S
C2344 C2349 1.425 1_455 S
C2344 C2351 1.409 . S
C2345 H2337 0.930 . S
C2345 C2343 1.419 . S
C2345 C2346 1.362 . S
C2346 H2338 0.930 . S
C2346 C2345 1.362 . S
C2346 C2349 1.409 . S
C2347 H2339 0.931 1_455 S
C2347 C2348 1.352 . S
C2347 C2349 1.415 1_455 S
C2348 C2347 1.352 . S
C2348 C2350 1.419 . S
C2349 C2344 1.425 1_655 S
C2349 C2346 1.409 . S
C2349 C2347 1.415 1_655 S
C2350 H2340 0.930 . S
C2350 C2348 1.419 . S
C2350 C2351 1.362 . S
C2351 H2341 0.930 . S
C2351 C2344 1.409 . S
C2351 C2350 1.362 . S
H2352 C2358 0.930 . S
H2353 C2361 0.930 . S
H2354 C2362 0.930 . S
H2355 C2363 0.930 . S
H2356 C2366 0.930 . S
H2357 C2367 0.930 . S
C2358 H2352 0.930 . S
C2358 C2359 1.355 . S
C2358 C2360 1.415 . S
C2359 C2358 1.355 . S
C2359 C2361 1.419 . S
C2360 C2358 1.415 . S
C2360 C2365 1.425 . S
C2360 C2367 1.409 . S
C2361 H2353 0.930 . S
C2361 C2359 1.419 . S
C2361 C2362 1.362 . S
C2362 H2354 0.930 . S
C2362 C2361 1.362 . S
C2362 C2365 1.409 . S
C2363 H2355 0.930 . S
C2363 C2364 1.355 . S
C2363 C2365 1.415 . S
C2364 C2363 1.355 . S
C2364 C2366 1.419 . S
C2365 C2360 1.425 . S
C2365 C2362 1.409 . S
C2365 C2363 1.415 . S
C2366 H2356 0.930 . S
C2366 C2364 1.419 . S
C2366 C2367 1.362 . S
C2367 H2357 0.930 . S
C2367 C2360 1.409 . S
C2367 C2366 1.362 . S
H2368 C2374 0.930 . S
H2369 C2377 0.930 . S
H2370 C2378 0.930 . S
H2371 C2379 0.930 . S
H2372 C2382 0.930 . S
H2373 C2383 0.930 . S
C2374 H2368 0.930 . S
C2374 C2375 1.355 . S
C2374 C2376 1.415 . S
C2375 C2374 1.355 . S
C2375 C2377 1.419 . S
C2376 C2374 1.415 . S
C2376 C2381 1.425 . S
C2376 C2383 1.409 . S
C2377 H2369 0.930 . S
C2377 C2375 1.419 . S
C2377 C2378 1.362 . S
C2378 H2370 0.930 . S
C2378 C2377 1.362 . S
C2378 C2381 1.409 . S
C2379 H2371 0.930 . S
C2379 C2380 1.355 . S
C2379 C2381 1.415 . S
C2380 C2379 1.355 . S
C2380 C2382 1.419 . S
C2381 C2376 1.425 . S
C2381 C2378 1.409 . S
C2381 C2379 1.415 . S
C2382 H2372 0.930 . S
C2382 C2380 1.419 . S
C2382 C2383 1.362 . S
C2383 H2373 0.930 . S
C2383 C2376 1.409 . S
C2383 C2382 1.362 . S
H2384 C2390 0.930 . S
H2385 C2393 0.930 . S
H2386 C2394 0.930 . S
H2387 C2395 0.930 . S
H2388 C2398 0.930 . S
H2389 C2399 0.930 . S
C2390 H2384 0.930 . S
C2390 C2391 1.355 . S
C2390 C2392 1.415 1_655 S
C2391 C2390 1.355 . S
C2391 C2393 1.419 . S
C2392 C2390 1.415 1_455 S
C2392 C2397 1.425 1_455 S
C2392 C2399 1.409 . S
C2393 H2385 0.930 . S
C2393 C2391 1.419 . S
C2393 C2394 1.362 . S
C2394 H2386 0.930 . S
C2394 C2393 1.362 . S
C2394 C2397 1.409 . S
C2395 H2387 0.930 . S
C2395 C2396 1.355 . S
C2395 C2397 1.415 1_455 S
C2396 C2395 1.355 . S
C2396 C2398 1.419 . S
C2397 C2392 1.425 1_655 S
C2397 C2394 1.409 . S
C2397 C2395 1.415 1_655 S
C2398 H2388 0.930 . S
C2398 C2396 1.419 . S
C2398 C2399 1.362 . S
C2399 H2389 0.930 . S
C2399 C2392 1.409 . S
C2399 C2398 1.362 . S
H2400 C2406 0.930 1_554 S
H2401 C2409 0.930 . S
H2402 C2410 0.930 . S
H2403 C2411 0.930 1_556 S
H2404 C2414 0.930 . S
H2405 C2415 0.930 . S
C2406 H2400 0.930 1_556 S
C2406 C2407 1.355 . S
C2406 C2408 1.415 1_556 S
C2407 C2406 1.355 . S
C2407 C2409 1.419 . S
C2408 C2406 1.415 1_554 S
C2408 C2413 1.425 1_554 S
C2408 C2415 1.409 . S
C2409 H2401 0.930 . S
C2409 C2407 1.419 . S
C2409 C2410 1.362 . S
C2410 H2402 0.930 . S
C2410 C2409 1.362 . S
C2410 C2413 1.409 . S
C2411 H2403 0.930 1_554 S
C2411 C2412 1.355 . S
C2411 C2413 1.415 1_554 S
C2412 C2411 1.355 . S
C2412 C2414 1.419 . S
C2413 C2408 1.425 1_556 S
C2413 C2410 1.409 . S
C2413 C2411 1.415 1_556 S
C2414 H2404 0.930 . S
C2414 C2412 1.419 . S
C2414 C2415 1.362 . S
C2415 H2405 0.930 . S
C2415 C2408 1.409 . S
C2415 C2414 1.362 . S
H2416 C2422 0.930 . S
H2417 C2425 0.930 . S
H2418 C2426 0.930 . S
H2419 C2427 0.930 . S
H2420 C2430 0.930 . S
H2421 C2431 0.930 . S
C2422 H2416 0.930 . S
C2422 C2423 1.355 . S
C2422 C2424 1.415 . S
C2423 C2422 1.355 . S
C2423 C2425 1.419 . S
C2424 C2422 1.415 . S
C2424 C2429 1.425 1_545 S
C2424 C2431 1.409 1_545 S
C2425 H2417 0.930 . S
C2425 C2423 1.419 . S
C2425 C2426 1.362 . S
C2426 H2418 0.930 . S
C2426 C2425 1.362 . S
C2426 C2429 1.409 1_545 S
C2427 H2419 0.930 . S
C2427 C2428 1.355 . S
C2427 C2429 1.415 . S
C2428 C2427 1.355 . S
C2428 C2430 1.419 . S
C2429 C2424 1.425 1_565 S
C2429 C2426 1.409 1_565 S
C2429 C2427 1.415 . S
C2430 H2420 0.930 . S
C2430 C2428 1.419 . S
C2430 C2431 1.362 . S
C2431 H2421 0.930 . S
C2431 C2424 1.409 1_565 S
C2431 C2430 1.362 . S
H2432 C2438 0.930 . S
H2433 C2441 0.930 . S
H2434 C2442 0.930 . S
H2435 C2443 0.930 . S
H2436 C2446 0.930 . S
H2437 C2447 0.930 . S
C2438 H2432 0.930 . S
C2438 C2439 1.355 . S
C2438 C2440 1.415 . S
C2439 C2438 1.355 . S
C2439 C2441 1.419 . S
C2440 C2438 1.415 . S
C2440 C2445 1.425 . S
C2440 C2447 1.409 . S
C2441 H2433 0.930 . S
C2441 C2439 1.419 . S
C2441 C2442 1.362 . S
C2442 H2434 0.930 . S
C2442 C2441 1.362 . S
C2442 C2445 1.409 . S
C2443 H2435 0.930 . S
C2443 C2444 1.355 . S
C2443 C2445 1.415 . S
C2444 C2443 1.355 . S
C2444 C2446 1.419 . S
C2445 C2440 1.425 . S
C2445 C2442 1.409 . S
C2445 C2443 1.415 . S
C2446 H2436 0.930 . S
C2446 C2444 1.419 . S
C2446 C2447 1.362 . S
C2447 H2437 0.930 . S
C2447 C2440 1.409 . S
C2447 C2446 1.362 . S
H2448 C2454 0.930 . S
H2449 C2457 0.930 . S
H2450 C2458 0.930 . S
H2451 C2459 0.930 . S
H2452 C2462 0.930 . S
H2453 C2463 0.930 . S
C2454 H2448 0.930 . S
C2454 C2455 1.355 . S
C2454 C2456 1.415 . S
C2455 C2454 1.355 . S
C2455 C2457 1.419 . S
C2456 C2454 1.415 . S
C2456 C2461 1.425 1_545 S
C2456 C2463 1.409 . S
C2457 H2449 0.930 . S
C2457 C2455 1.419 . S
C2457 C2458 1.362 1_545 S
C2458 H2450 0.930 . S
C2458 C2457 1.362 1_565 S
C2458 C2461 1.409 . S
C2459 H2451 0.930 . S
C2459 C2460 1.355 . S
C2459 C2461 1.415 . S
C2460 C2459 1.355 . S
C2460 C2462 1.419 . S
C2461 C2456 1.425 1_565 S
C2461 C2458 1.409 . S
C2461 C2459 1.415 . S
C2462 H2452 0.930 . S
C2462 C2460 1.419 . S
C2462 C2463 1.362 1_565 S
C2463 H2453 0.930 . S
C2463 C2456 1.409 . S
C2463 C2462 1.362 1_545 S
H2464 C2470 0.930 . S
H2465 C2473 0.934 . S
H2466 C2474 0.930 . S
H2467 C2475 0.930 . S
H2468 C2478 0.934 . S
H2469 C2479 0.930 . S
C2470 H2464 0.930 . S
C2470 C2471 1.355 . S
C2470 C2472 1.415 . S
C2471 C2470 1.355 . S
C2471 C2473 1.403 1_554 S
C2472 C2470 1.415 . S
C2472 C2477 1.425 1_554 S
C2472 C2479 1.409 . S
C2473 H2465 0.934 . S
C2473 C2471 1.403 1_556 S
C2473 C2474 1.375 . S
C2474 H2466 0.930 . S
C2474 C2473 1.375 . S
C2474 C2477 1.409 . S
C2475 H2467 0.930 . S
C2475 C2476 1.355 . S
C2475 C2477 1.415 . S
C2476 C2475 1.355 . S
C2476 C2478 1.403 1_556 S
C2477 C2472 1.425 1_556 S
C2477 C2474 1.409 . S
C2477 C2475 1.415 . S
C2478 H2468 0.934 . S
C2478 C2476 1.403 1_554 S
C2478 C2479 1.375 . S
C2479 H2469 0.930 . S
C2479 C2472 1.409 . S
C2479 C2478 1.375 . S
H2480 C2486 0.930 . S
H2481 C2489 0.930 . S
H2482 C2490 0.930 . S
H2483 C2491 0.930 . S
H2484 C2494 0.930 . S
H2485 C2495 0.930 . S
C2486 H2480 0.930 . S
C2486 C2487 1.355 . S
C2486 C2488 1.415 . S
C2487 C2486 1.355 . S
C2487 C2489 1.419 . S
C2488 C2486 1.415 . S
C2488 C2493 1.425 1_565 S
C2488 C2495 1.409 . S
C2489 H2481 0.930 . S
C2489 C2487 1.419 . S
C2489 C2490 1.362 1_565 S
C2490 H2482 0.930 . S
C2490 C2489 1.362 1_545 S
C2490 C2493 1.409 . S
C2491 H2483 0.930 . S
C2491 C2492 1.355 . S
C2491 C2493 1.415 . S
C2492 C2491 1.355 . S
C2492 C2494 1.419 . S
C2493 C2488 1.425 1_545 S
C2493 C2490 1.409 . S
C2493 C2491 1.415 . S
C2494 H2484 0.930 . S
C2494 C2492 1.419 . S
C2494 C2495 1.362 1_545 S
C2495 H2485 0.930 . S
C2495 C2488 1.409 . S
C2495 C2494 1.362 1_565 S
H2496 C2502 0.930 . S
H2497 C2505 0.930 . S
H2498 C2506 0.930 . S
H2499 C2507 0.930 . S
H2500 C2510 0.930 . S
H2501 C2511 0.930 . S
C2502 H2496 0.930 . S
C2502 C2503 1.355 . S
C2502 C2504 1.415 . S
C2503 C2502 1.355 . S
C2503 C2505 1.419 . S
C2504 C2502 1.415 . S
C2504 C2509 1.425 . S
C2504 C2511 1.409 . S
C2505 H2497 0.930 . S
C2505 C2503 1.419 . S
C2505 C2506 1.362 . S
C2506 H2498 0.930 . S
C2506 C2505 1.362 . S
C2506 C2509 1.409 . S
C2507 H2499 0.930 . S
C2507 C2508 1.355 . S
C2507 C2509 1.415 . S
C2508 C2507 1.355 . S
C2508 C2510 1.419 . S
C2509 C2504 1.425 . S
C2509 C2506 1.409 . S
C2509 C2507 1.415 . S
C2510 H2500 0.930 . S
C2510 C2508 1.419 . S
C2510 C2511 1.362 . S
C2511 H2501 0.930 . S
C2511 C2504 1.409 . S
C2511 C2510 1.362 . S
H2512 C2518 0.930 . S
H2513 C2521 0.930 . S
H2514 C2522 0.930 . S
H2515 C2523 0.930 . S
H2516 C2526 0.930 . S
H2517 C2527 0.930 . S
C2518 H2512 0.930 . S
C2518 C2519 1.355 . S
C2518 C2520 1.415 . S
C2519 C2518 1.355 . S
C2519 C2521 1.419 . S
C2520 C2518 1.415 . S
C2520 C2525 1.425 1_545 S
C2520 C2527 1.409 1_545 S
C2521 H2513 0.930 . S
C2521 C2519 1.419 . S
C2521 C2522 1.362 . S
C2522 H2514 0.930 . S
C2522 C2521 1.362 . S
C2522 C2525 1.409 1_545 S
C2523 H2515 0.930 . S
C2523 C2524 1.355 . S
C2523 C2525 1.415 . S
C2524 C2523 1.355 . S
C2524 C2526 1.419 . S
C2525 C2520 1.425 1_565 S
C2525 C2522 1.409 1_565 S
C2525 C2523 1.415 . S
C2526 H2516 0.930 . S
C2526 C2524 1.419 . S
C2526 C2527 1.362 . S
C2527 H2517 0.930 . S
C2527 C2520 1.409 1_565 S
C2527 C2526 1.362 . S
H2528 C2534 0.930 . S
H2529 C2537 0.930 . S
H2530 C2538 0.930 . S
H2531 C2539 0.930 . S
H2532 C2542 0.930 . S
H2533 C2543 0.930 . S
C2534 H2528 0.930 . S
C2534 C2535 1.355 . S
C2534 C2536 1.415 . S
C2535 C2534 1.355 . S
C2535 C2537 1.419 . S
C2536 C2534 1.415 . S
C2536 C2541 1.425 . S
C2536 C2543 1.409 . S
C2537 H2529 0.930 . S
C2537 C2535 1.419 . S
C2537 C2538 1.362 . S
C2538 H2530 0.930 . S
C2538 C2537 1.362 . S
C2538 C2541 1.409 . S
C2539 H2531 0.930 . S
C2539 C2540 1.355 . S
C2539 C2541 1.415 . S
C2540 C2539 1.355 . S
C2540 C2542 1.419 . S
C2541 C2536 1.425 . S
C2541 C2538 1.409 . S
C2541 C2539 1.415 . S
C2542 H2532 0.930 . S
C2542 C2540 1.419 . S
C2542 C2543 1.362 . S
C2543 H2533 0.930 . S
C2543 C2536 1.409 . S
C2543 C2542 1.362 . S
H2544 C2550 0.930 . S
H2545 C2553 0.930 . S
H2546 C2554 0.930 . S
H2547 C2555 0.930 . S
H2548 C2558 0.930 . S
H2549 C2559 0.930 . S
C2550 H2544 0.930 . S
C2550 C2551 1.355 . S
C2550 C2552 1.415 . S
C2551 C2550 1.355 . S
C2551 C2553 1.419 . S
C2552 C2550 1.415 . S
C2552 C2557 1.425 . S
C2552 C2559 1.409 . S
C2553 H2545 0.930 . S
C2553 C2551 1.419 . S
C2553 C2554 1.362 . S
C2554 H2546 0.930 . S
C2554 C2553 1.362 . S
C2554 C2557 1.409 . S
C2555 H2547 0.930 . S
C2555 C2556 1.355 . S
C2555 C2557 1.415 . S
C2556 C2555 1.355 . S
C2556 C2558 1.419 . S
C2557 C2552 1.425 . S
C2557 C2554 1.409 . S
C2557 C2555 1.415 . S
C2558 H2548 0.930 . S
C2558 C2556 1.419 . S
C2558 C2559 1.362 . S
C2559 H2549 0.930 . S
C2559 C2552 1.409 . S
C2559 C2558 1.362 . S
H2560 C2566 0.930 . S
H2561 C2569 0.930 . S
H2562 C2570 0.930 . S
H2563 C2571 0.930 . S
H2564 C2574 0.930 . S
H2565 C2575 0.930 . S
C2566 H2560 0.930 . S
C2566 C2567 1.355 . S
C2566 C2568 1.415 . S
C2567 C2566 1.355 . S
C2567 C2569 1.419 . S
C2568 C2566 1.415 . S
C2568 C2573 1.425 1_554 S
C2568 C2575 1.409 . S
C2569 H2561 0.930 . S
C2569 C2567 1.419 . S
C2569 C2570 1.362 1_554 S
C2570 H2562 0.930 . S
C2570 C2569 1.362 1_556 S
C2570 C2573 1.409 . S
C2571 H2563 0.930 . S
C2571 C2572 1.355 . S
C2571 C2573 1.415 . S
C2572 C2571 1.355 . S
C2572 C2574 1.419 . S
C2573 C2568 1.425 1_556 S
C2573 C2570 1.409 . S
C2573 C2571 1.415 . S
C2574 H2564 0.930 . S
C2574 C2572 1.419 . S
C2574 C2575 1.362 1_556 S
C2575 H2565 0.930 . S
C2575 C2568 1.409 . S
C2575 C2574 1.362 1_554 S
H2576 C2582 0.930 . S
H2577 C2585 0.930 . S
H2578 C2586 0.930 . S
H2579 C2587 0.930 . S
H2580 C2590 0.930 . S
H2581 C2591 0.930 . S
C2582 H2576 0.930 . S
C2582 C2583 1.355 . S
C2582 C2584 1.415 . S
C2583 C2582 1.355 . S
C2583 C2585 1.419 . S
C2584 C2582 1.415 . S
C2584 C2589 1.425 . S
C2584 C2591 1.409 . S
C2585 H2577 0.930 . S
C2585 C2583 1.419 . S
C2585 C2586 1.362 . S
C2586 H2578 0.930 . S
C2586 C2585 1.362 . S
C2586 C2589 1.409 . S
C2587 H2579 0.930 . S
C2587 C2588 1.355 . S
C2587 C2589 1.415 . S
C2588 C2587 1.355 . S
C2588 C2590 1.419 . S
C2589 C2584 1.425 . S
C2589 C2586 1.409 . S
C2589 C2587 1.415 . S
C2590 H2580 0.930 . S
C2590 C2588 1.419 . S
C2590 C2591 1.362 . S
C2591 H2581 0.930 . S
C2591 C2584 1.409 . S
C2591 C2590 1.362 . S
H2592 C2598 0.930 . S
H2593 C2601 0.930 . S
H2594 C2602 0.930 . S
H2595 C2603 0.930 . S
H2596 C2606 0.930 . S
H2597 C2607 0.930 . S
C2598 H2592 0.930 . S
C2598 C2599 1.355 . S
C2598 C2600 1.415 . S
C2599 C2598 1.355 . S
C2599 C2601 1.419 . S
C2600 C2598 1.415 . S
C2600 C2605 1.425 . S
C2600 C2607 1.409 . S
C2601 H2593 0.930 . S
C2601 C2599 1.419 . S
C2601 C2602 1.362 . S
C2602 H2594 0.930 . S
C2602 C2601 1.362 . S
C2602 C2605 1.409 . S
C2603 H2595 0.930 . S
C2603 C2604 1.355 . S
C2603 C2605 1.415 . S
C2604 C2603 1.355 . S
C2604 C2606 1.419 . S
C2605 C2600 1.425 . S
C2605 C2602 1.409 . S
C2605 C2603 1.415 . S
C2606 H2596 0.930 . S
C2606 C2604 1.419 . S
C2606 C2607 1.362 . S
C2607 H2597 0.930 . S
C2607 C2600 1.409 . S
C2607 C2606 1.362 . S
H2608 C2614 0.930 . S
H2609 C2617 0.930 . S
H2610 C2618 0.930 . S
H2611 C2619 0.930 . S
H2612 C2622 0.930 . S
H2613 C2623 0.930 . S
C2614 H2608 0.930 . S
C2614 C2615 1.355 . S
C2614 C2616 1.415 . S
C2615 C2614 1.355 . S
C2615 C2617 1.419 . S
C2616 C2614 1.415 . S
C2616 C2621 1.425 . S
C2616 C2623 1.409 . S
C2617 H2609 0.930 . S
C2617 C2615 1.419 . S
C2617 C2618 1.362 . S
C2618 H2610 0.930 . S
C2618 C2617 1.362 . S
C2618 C2621 1.409 . S
C2619 H2611 0.930 . S
C2619 C2620 1.355 . S
C2619 C2621 1.415 . S
C2620 C2619 1.355 . S
C2620 C2622 1.419 . S
C2621 C2616 1.425 . S
C2621 C2618 1.409 . S
C2621 C2619 1.415 . S
C2622 H2612 0.930 . S
C2622 C2620 1.419 . S
C2622 C2623 1.362 . S
C2623 H2613 0.930 . S
C2623 C2616 1.409 . S
C2623 C2622 1.362 . S
H2624 C2630 0.930 . S
H2625 C2633 0.930 . S
H2626 C2634 0.931 . S
H2627 C2635 0.930 . S
H2628 C2638 0.930 . S
H2629 C2639 0.931 . S
C2630 H2624 0.930 . S
C2630 C2631 1.355 . S
C2630 C2632 1.415 . S
C2631 C2630 1.355 . S
C2631 C2633 1.419 . S
C2632 C2630 1.415 . S
C2632 C2637 1.425 1_556 S
C2632 C2639 1.409 . S
C2633 H2625 0.930 . S
C2633 C2631 1.419 . S
C2633 C2634 1.361 1_556 S
C2634 H2626 0.931 . S
C2634 C2633 1.361 1_554 S
C2634 C2637 1.409 . S
C2635 H2627 0.930 . S
C2635 C2636 1.355 . S
C2635 C2637 1.415 . S
C2636 C2635 1.355 . S
C2636 C2638 1.419 . S
C2637 C2632 1.425 1_554 S
C2637 C2634 1.409 . S
C2637 C2635 1.415 . S
C2638 H2628 0.930 . S
C2638 C2636 1.419 . S
C2638 C2639 1.361 1_554 S
C2639 H2629 0.931 . S
C2639 C2632 1.409 . S
C2639 C2638 1.361 1_556 S
H2640 C2646 0.930 . S
H2641 C2649 0.930 . S
H2642 C2650 0.930 . S
H2643 C2651 0.930 . S
H2644 C2654 0.930 . S
H2645 C2655 0.930 . S
C2646 H2640 0.930 . S
C2646 C2647 1.355 . S
C2646 C2648 1.415 . S
C2647 C2646 1.355 . S
C2647 C2649 1.419 . S
C2648 C2646 1.415 . S
C2648 C2653 1.425 . S
C2648 C2655 1.409 . S
C2649 H2641 0.930 . S
C2649 C2647 1.419 . S
C2649 C2650 1.362 . S
C2650 H2642 0.930 . S
C2650 C2649 1.362 . S
C2650 C2653 1.409 . S
C2651 H2643 0.930 . S
C2651 C2652 1.355 . S
C2651 C2653 1.415 . S
C2652 C2651 1.355 . S
C2652 C2654 1.419 . S
C2653 C2648 1.425 . S
C2653 C2650 1.409 . S
C2653 C2651 1.415 . S
C2654 H2644 0.930 . S
C2654 C2652 1.419 . S
C2654 C2655 1.362 . S
C2655 H2645 0.930 . S
C2655 C2648 1.409 . S
C2655 C2654 1.362 . S
H2656 C2662 0.930 . S
H2657 C2665 0.930 . S
H2658 C2666 0.930 . S
H2659 C2667 0.930 . S
H2660 C2670 0.930 . S
H2661 C2671 0.930 . S
C2662 H2656 0.930 . S
C2662 C2663 1.355 . S
C2662 C2664 1.415 . S
C2663 C2662 1.355 . S
C2663 C2665 1.419 . S
C2664 C2662 1.415 . S
C2664 C2669 1.425 . S
C2664 C2671 1.409 . S
C2665 H2657 0.930 . S
C2665 C2663 1.419 . S
C2665 C2666 1.362 . S
C2666 H2658 0.930 . S
C2666 C2665 1.362 . S
C2666 C2669 1.409 . S
C2667 H2659 0.930 . S
C2667 C2668 1.355 . S
C2667 C2669 1.415 . S
C2668 C2667 1.355 . S
C2668 C2670 1.419 . S
C2669 C2664 1.425 . S
C2669 C2666 1.409 . S
C2669 C2667 1.415 . S
C2670 H2660 0.930 . S
C2670 C2668 1.419 . S
C2670 C2671 1.362 . S
C2671 H2661 0.930 . S
C2671 C2664 1.409 . S
C2671 C2670 1.362 . S
H2672 C2678 0.930 . S
H2673 C2681 0.930 . S
H2674 C2682 0.930 . S
H2675 C2683 0.930 . S
H2676 C2686 0.930 . S
H2677 C2687 0.930 . S
C2678 H2672 0.930 . S
C2678 C2679 1.355 . S
C2678 C2680 1.415 . S
C2679 C2678 1.355 . S
C2679 C2681 1.419 . S
C2680 C2678 1.415 . S
C2680 C2685 1.425 . S
C2680 C2687 1.409 . S
C2681 H2673 0.930 . S
C2681 C2679 1.419 . S
C2681 C2682 1.362 . S
C2682 H2674 0.930 . S
C2682 C2681 1.362 . S
C2682 C2685 1.409 . S
C2683 H2675 0.930 . S
C2683 C2684 1.355 . S
C2683 C2685 1.415 . S
C2684 C2683 1.355 . S
C2684 C2686 1.419 . S
C2685 C2680 1.425 . S
C2685 C2682 1.409 . S
C2685 C2683 1.415 . S
C2686 H2676 0.930 . S
C2686 C2684 1.419 . S
C2686 C2687 1.362 . S
C2687 H2677 0.930 . S
C2687 C2680 1.409 . S
C2687 C2686 1.362 . S
H2688 C2694 0.930 . S
H2689 C2697 0.930 . S
H2690 C2698 0.930 . S
H2691 C2699 0.930 . S
H2692 C2702 0.930 . S
H2693 C2703 0.930 . S
C2694 H2688 0.930 . S
C2694 C2695 1.355 . S
C2694 C2696 1.415 . S
C2695 C2694 1.355 . S
C2695 C2697 1.419 . S
C2696 C2694 1.415 . S
C2696 C2701 1.425 . S
C2696 C2703 1.409 . S
C2697 H2689 0.930 . S
C2697 C2695 1.419 . S
C2697 C2698 1.362 . S
C2698 H2690 0.930 . S
C2698 C2697 1.362 . S
C2698 C2701 1.409 . S
C2699 H2691 0.930 . S
C2699 C2700 1.355 . S
C2699 C2701 1.415 . S
C2700 C2699 1.355 . S
C2700 C2702 1.419 . S
C2701 C2696 1.425 . S
C2701 C2698 1.409 . S
C2701 C2699 1.415 . S
C2702 H2692 0.930 . S
C2702 C2700 1.419 . S
C2702 C2703 1.362 . S
C2703 H2693 0.930 . S
C2703 C2696 1.409 . S
C2703 C2702 1.362 . S
H2704 C2710 0.930 . S
H2705 C2713 0.930 . S
H2706 C2714 0.930 . S
H2707 C2715 0.930 . S
H2708 C2718 0.930 . S
H2709 C2719 0.930 . S
C2710 H2704 0.930 . S
C2710 C2711 1.355 . S
C2710 C2712 1.415 . S
C2711 C2710 1.355 . S
C2711 C2713 1.419 . S
C2712 C2710 1.415 . S
C2712 C2717 1.425 . S
C2712 C2719 1.409 . S
C2713 H2705 0.930 . S
C2713 C2711 1.419 . S
C2713 C2714 1.362 . S
C2714 H2706 0.930 . S
C2714 C2713 1.362 . S
C2714 C2717 1.409 . S
C2715 H2707 0.930 . S
C2715 C2716 1.355 . S
C2715 C2717 1.415 . S
C2716 C2715 1.355 . S
C2716 C2718 1.419 . S
C2717 C2712 1.425 . S
C2717 C2714 1.409 . S
C2717 C2715 1.415 . S
C2718 H2708 0.930 . S
C2718 C2716 1.419 . S
C2718 C2719 1.362 . S
C2719 H2709 0.930 . S
C2719 C2712 1.409 . S
C2719 C2718 1.362 . S
H2720 C2726 0.930 . S
H2721 C2729 0.930 . S
H2722 C2730 0.930 . S
H2723 C2731 0.930 . S
H2724 C2734 0.930 . S
H2725 C2735 0.930 . S
C2726 H2720 0.930 . S
C2726 C2727 1.355 . S
C2726 C2728 1.415 . S
C2727 C2726 1.355 . S
C2727 C2729 1.419 . S
C2728 C2726 1.415 . S
C2728 C2733 1.425 . S
C2728 C2735 1.409 . S
C2729 H2721 0.930 . S
C2729 C2727 1.419 . S
C2729 C2730 1.362 . S
C2730 H2722 0.930 . S
C2730 C2729 1.362 . S
C2730 C2733 1.409 . S
C2731 H2723 0.930 . S
C2731 C2732 1.355 . S
C2731 C2733 1.415 . S
C2732 C2731 1.355 . S
C2732 C2734 1.419 . S
C2733 C2728 1.425 . S
C2733 C2730 1.409 . S
C2733 C2731 1.415 . S
C2734 H2724 0.930 . S
C2734 C2732 1.419 . S
C2734 C2735 1.362 . S
C2735 H2725 0.930 . S
C2735 C2728 1.409 . S
C2735 C2734 1.362 . S
H2736 C2742 0.930 . S
H2737 C2745 0.930 . S
H2738 C2746 0.930 . S
H2739 C2747 0.930 . S
H2740 C2750 0.930 . S
H2741 C2751 0.930 . S
C2742 H2736 0.930 . S
C2742 C2743 1.355 . S
C2742 C2744 1.415 . S
C2743 C2742 1.355 . S
C2743 C2745 1.419 . S
C2744 C2742 1.415 . S
C2744 C2749 1.425 . S
C2744 C2751 1.409 . S
C2745 H2737 0.930 . S
C2745 C2743 1.419 . S
C2745 C2746 1.362 . S
C2746 H2738 0.930 . S
C2746 C2745 1.362 . S
C2746 C2749 1.409 . S
C2747 H2739 0.930 . S
C2747 C2748 1.355 . S
C2747 C2749 1.415 . S
C2748 C2747 1.355 . S
C2748 C2750 1.419 . S
C2749 C2744 1.425 . S
C2749 C2746 1.409 . S
C2749 C2747 1.415 . S
C2750 H2740 0.930 . S
C2750 C2748 1.419 . S
C2750 C2751 1.362 . S
C2751 H2741 0.930 . S
C2751 C2744 1.409 . S
C2751 C2750 1.362 . S
H2752 C2758 0.930 . S
H2753 C2761 0.930 . S
H2754 C2762 0.930 . S
H2755 C2763 0.930 . S
H2756 C2766 0.930 . S
H2757 C2767 0.930 . S
C2758 H2752 0.930 . S
C2758 C2759 1.355 . S
C2758 C2760 1.415 . S
C2759 C2758 1.355 . S
C2759 C2761 1.419 . S
C2760 C2758 1.415 . S
C2760 C2765 1.425 . S
C2760 C2767 1.409 . S
C2761 H2753 0.930 . S
C2761 C2759 1.419 . S
C2761 C2762 1.362 . S
C2762 H2754 0.930 . S
C2762 C2761 1.362 . S
C2762 C2765 1.409 . S
C2763 H2755 0.930 . S
C2763 C2764 1.355 . S
C2763 C2765 1.415 . S
C2764 C2763 1.355 . S
C2764 C2766 1.419 . S
C2765 C2760 1.425 . S
C2765 C2762 1.409 . S
C2765 C2763 1.415 . S
C2766 H2756 0.930 . S
C2766 C2764 1.419 . S
C2766 C2767 1.362 . S
C2767 H2757 0.930 . S
C2767 C2760 1.409 . S
C2767 C2766 1.362 . S
H2768 C2774 0.930 . S
H2769 C2777 0.930 . S
H2770 C2778 0.930 . S
H2771 C2779 0.930 . S
H2772 C2782 0.930 . S
H2773 C2783 0.930 . S
C2774 H2768 0.930 . S
C2774 C2775 1.355 . S
C2774 C2776 1.415 . S
C2775 C2774 1.355 . S
C2775 C2777 1.419 . S
C2776 C2774 1.415 . S
C2776 C2781 1.425 . S
C2776 C2783 1.409 . S
C2777 H2769 0.930 . S
C2777 C2775 1.419 . S
C2777 C2778 1.362 . S
C2778 H2770 0.930 . S
C2778 C2777 1.362 . S
C2778 C2781 1.409 . S
C2779 H2771 0.930 . S
C2779 C2780 1.355 . S
C2779 C2781 1.415 . S
C2780 C2779 1.355 . S
C2780 C2782 1.419 . S
C2781 C2776 1.425 . S
C2781 C2778 1.409 . S
C2781 C2779 1.415 . S
C2782 H2772 0.930 . S
C2782 C2780 1.419 . S
C2782 C2783 1.362 . S
C2783 H2773 0.930 . S
C2783 C2776 1.409 . S
C2783 C2782 1.362 . S
H2784 C2790 0.930 . S
H2785 C2793 0.930 . S
H2786 C2794 0.930 . S
H2787 C2795 0.930 . S
H2788 C2798 0.930 . S
H2789 C2799 0.930 . S
C2790 H2784 0.930 . S
C2790 C2791 1.355 . S
C2790 C2792 1.415 . S
C2791 C2790 1.355 . S
C2791 C2793 1.419 . S
C2792 C2790 1.415 . S
C2792 C2797 1.425 . S
C2792 C2799 1.409 . S
C2793 H2785 0.930 . S
C2793 C2791 1.419 . S
C2793 C2794 1.362 . S
C2794 H2786 0.930 . S
C2794 C2793 1.362 . S
C2794 C2797 1.409 . S
C2795 H2787 0.930 . S
C2795 C2796 1.355 . S
C2795 C2797 1.415 . S
C2796 C2795 1.355 . S
C2796 C2798 1.419 . S
C2797 C2792 1.425 . S
C2797 C2794 1.409 . S
C2797 C2795 1.415 . S
C2798 H2788 0.930 . S
C2798 C2796 1.419 . S
C2798 C2799 1.362 . S
C2799 H2789 0.930 . S
C2799 C2792 1.409 . S
C2799 C2798 1.362 . S
H2800 C2806 0.930 . S
H2801 C2809 0.930 . S
H2802 C2810 0.930 . S
H2803 C2811 0.930 . S
H2804 C2814 0.930 . S
H2805 C2815 0.930 . S
C2806 H2800 0.930 . S
C2806 C2807 1.355 . S
C2806 C2808 1.415 . S
C2807 C2806 1.355 . S
C2807 C2809 1.419 . S
C2808 C2806 1.415 . S
C2808 C2813 1.425 . S
C2808 C2815 1.409 . S
C2809 H2801 0.930 . S
C2809 C2807 1.419 . S
C2809 C2810 1.362 . S
C2810 H2802 0.930 . S
C2810 C2809 1.362 . S
C2810 C2813 1.409 . S
C2811 H2803 0.930 . S
C2811 C2812 1.355 . S
C2811 C2813 1.415 . S
C2812 C2811 1.355 . S
C2812 C2814 1.419 . S
C2813 C2808 1.425 . S
C2813 C2810 1.409 . S
C2813 C2811 1.415 . S
C2814 H2804 0.930 . S
C2814 C2812 1.419 . S
C2814 C2815 1.362 . S
C2815 H2805 0.930 . S
C2815 C2808 1.409 . S
C2815 C2814 1.362 . S
H2816 C2822 0.930 . S
H2817 C2825 0.930 . S
H2818 C2826 0.930 . S
H2819 C2827 0.930 . S
H2820 C2830 0.930 . S
H2821 C2831 0.930 . S
C2822 H2816 0.930 . S
C2822 C2823 1.355 . S
C2822 C2824 1.415 . S
C2823 C2822 1.355 . S
C2823 C2825 1.419 . S
C2824 C2822 1.415 . S
C2824 C2829 1.425 . S
C2824 C2831 1.409 . S
C2825 H2817 0.930 . S
C2825 C2823 1.419 . S
C2825 C2826 1.362 . S
C2826 H2818 0.930 . S
C2826 C2825 1.362 . S
C2826 C2829 1.409 . S
C2827 H2819 0.930 . S
C2827 C2828 1.355 . S
C2827 C2829 1.415 . S
C2828 C2827 1.355 . S
C2828 C2830 1.419 . S
C2829 C2824 1.425 . S
C2829 C2826 1.409 . S
C2829 C2827 1.415 . S
C2830 H2820 0.930 . S
C2830 C2828 1.419 . S
C2830 C2831 1.362 . S
C2831 H2821 0.930 . S
C2831 C2824 1.409 . S
C2831 C2830 1.362 . S
H2832 C2838 0.930 . S
H2833 C2841 0.930 . S
H2834 C2842 0.930 . S
H2835 C2843 0.930 . S
H2836 C2846 0.930 . S
H2837 C2847 0.930 . S
C2838 H2832 0.930 . S
C2838 C2839 1.355 . S
C2838 C2840 1.415 . S
C2839 C2838 1.355 . S
C2839 C2841 1.419 . S
C2840 C2838 1.415 . S
C2840 C2845 1.425 . S
C2840 C2847 1.409 . S
C2841 H2833 0.930 . S
C2841 C2839 1.419 . S
C2841 C2842 1.362 . S
C2842 H2834 0.930 . S
C2842 C2841 1.362 . S
C2842 C2845 1.409 . S
C2843 H2835 0.930 . S
C2843 C2844 1.355 . S
C2843 C2845 1.415 . S
C2844 C2843 1.355 . S
C2844 C2846 1.419 . S
C2845 C2840 1.425 . S
C2845 C2842 1.409 . S
C2845 C2843 1.415 . S
C2846 H2836 0.930 . S
C2846 C2844 1.419 . S
C2846 C2847 1.362 . S
C2847 H2837 0.930 . S
C2847 C2840 1.409 . S
C2847 C2846 1.362 . S
H2848 C2854 0.930 . S
H2849 C2857 0.930 . S
H2850 C2858 0.930 . S
H2851 C2859 0.930 . S
H2852 C2862 0.930 . S
H2853 C2863 0.930 . S
C2854 H2848 0.930 . S
C2854 C2855 1.355 . S
C2854 C2856 1.415 . S
C2855 C2854 1.355 . S
C2855 C2857 1.419 . S
C2856 C2854 1.415 . S
C2856 C2861 1.425 . S
C2856 C2863 1.409 . S
C2857 H2849 0.930 . S
C2857 C2855 1.419 . S
C2857 C2858 1.362 . S
C2858 H2850 0.930 . S
C2858 C2857 1.362 . S
C2858 C2861 1.409 . S
C2859 H2851 0.930 . S
C2859 C2860 1.355 . S
C2859 C2861 1.415 . S
C2860 C2859 1.355 . S
C2860 C2862 1.419 . S
C2861 C2856 1.425 . S
C2861 C2858 1.409 . S
C2861 C2859 1.415 . S
C2862 H2852 0.930 . S
C2862 C2860 1.419 . S
C2862 C2863 1.362 . S
C2863 H2853 0.930 . S
C2863 C2856 1.409 . S
C2863 C2862 1.362 . S
H2864 C2870 0.930 . S
H2865 C2873 0.930 . S
H2866 C2874 0.930 . S
H2867 C2875 0.930 . S
H2868 C2878 0.930 . S
H2869 C2879 0.930 . S
C2870 H2864 0.930 . S
C2870 C2871 1.355 . S
C2870 C2872 1.415 . S
C2871 C2870 1.355 . S
C2871 C2873 1.419 . S
C2872 C2870 1.415 . S
C2872 C2877 1.425 . S
C2872 C2879 1.409 . S
C2873 H2865 0.930 . S
C2873 C2871 1.419 . S
C2873 C2874 1.362 . S
C2874 H2866 0.930 . S
C2874 C2873 1.362 . S
C2874 C2877 1.409 . S
C2875 H2867 0.930 . S
C2875 C2876 1.355 . S
C2875 C2877 1.415 . S
C2876 C2875 1.355 . S
C2876 C2878 1.419 . S
C2877 C2872 1.425 . S
C2877 C2874 1.409 . S
C2877 C2875 1.415 . S
C2878 H2868 0.930 . S
C2878 C2876 1.419 . S
C2878 C2879 1.362 . S
C2879 H2869 0.930 . S
C2879 C2872 1.409 . S
C2879 C2878 1.362 . S
H2880 C2886 0.930 . S
H2881 C2889 0.930 . S
H2882 C2890 0.930 . S
H2883 C2891 0.930 . S
H2884 C2894 0.930 . S
H2885 C2895 0.930 . S
C2886 H2880 0.930 . S
C2886 C2887 1.355 . S
C2886 C2888 1.415 . S
C2887 C2886 1.355 . S
C2887 C2889 1.419 . S
C2888 C2886 1.415 . S
C2888 C2893 1.425 . S
C2888 C2895 1.409 . S
C2889 H2881 0.930 . S
C2889 C2887 1.419 . S
C2889 C2890 1.362 . S
C2890 H2882 0.930 . S
C2890 C2889 1.362 . S
C2890 C2893 1.409 . S
C2891 H2883 0.930 . S
C2891 C2892 1.355 . S
C2891 C2893 1.415 . S
C2892 C2891 1.355 . S
C2892 C2894 1.419 . S
C2893 C2888 1.425 . S
C2893 C2890 1.409 . S
C2893 C2891 1.415 . S
C2894 H2884 0.930 . S
C2894 C2892 1.419 . S
C2894 C2895 1.362 . S
C2895 H2885 0.930 . S
C2895 C2888 1.409 . S
C2895 C2894 1.362 . S
H2896 C2902 0.930 . S
H2897 C2905 0.930 . S
H2898 C2906 0.930 . S
H2899 C2907 0.930 . S
H2900 C2910 0.930 . S
H2901 C2911 0.930 . S
C2902 H2896 0.930 . S
C2902 C2903 1.355 . S
C2902 C2904 1.415 . S
C2903 C2902 1.355 . S
C2903 C2905 1.419 . S
C2904 C2902 1.415 . S
C2904 C2909 1.425 . S
C2904 C2911 1.409 . S
C2905 H2897 0.930 . S
C2905 C2903 1.419 . S
C2905 C2906 1.362 . S
C2906 H2898 0.930 . S
C2906 C2905 1.362 . S
C2906 C2909 1.409 . S
C2907 H2899 0.930 . S
C2907 C2908 1.355 . S
C2907 C2909 1.415 . S
C2908 C2907 1.355 . S
C2908 C2910 1.419 . S
C2909 C2904 1.425 . S
C2909 C2906 1.409 . S
C2909 C2907 1.415 . S
C2910 H2900 0.930 . S
C2910 C2908 1.419 . S
C2910 C2911 1.362 . S
C2911 H2901 0.930 . S
C2911 C2904 1.409 . S
C2911 C2910 1.362 . S
C1895 C475 1.417 . S
C1900 C3 1.417 . S
C1911 C1478 1.395 . S
C1916 C62 1.395 . S
C1927 C593 1.399 . S
C1932 C121 1.399 . S
C1943 C1596 1.403 . S
C1948 C180 1.403 . S
C1959 C711 1.417 . S
C1964 C239 1.417 . S
C1975 C298 1.432 . S
C1980 C1714 1.432 . S
C1991 C357 1.393 . S
C1996 C829 1.393 . S
C2007 C416 1.402 . S
C2012 C1832 1.402 . S
C2023 C1006 1.400 . S
C2028 C534 1.400 . S
C2039 C1124 1.426 . S
C2044 C652 1.426 . S
C2055 C770 1.403 . S
C2060 C1242 1.403 . S
C2071 C888 1.409 . S
C2076 C1360 1.409 . S
C2087 C947 1.397 . S
C2092 C1419 1.397 . S
C2103 C1537 1.427 . S
C2108 C1065 1.427 . S
C2119 C1183 1.427 . S
C2124 C1655 1.427 . S
C2135 C1773 1.410 . S
C2140 C1301 1.410 . S
C2151 C1114 1.894 . S
C2156 C52 1.905 . S
C2167 C1173 1.898 . S
C2172 C111 1.892 . S
C2183 C170 1.912 . S
C2188 C996 1.922 . S
C2199 C229 1.910 . S
C2204 C1055 1.896 . S
C2215 C1350 1.907 . S
C2220 C288 1.895 . S
C2231 C347 1.899 . S
C2236 C1409 1.913 . S
C2247 C1232 1.908 . S
C2252 C406 1.895 . S
C2263 C1291 1.903 . S
C2268 C465 1.893 . S
C2279 C524 1.915 . S
C2284 C1586 1.922 . S
C2295 C1645 1.896 . S
C2300 C583 1.893 . S
C2311 C642 1.900 . S
C2316 C1468 1.914 . S
C2327 C701 1.894 . S
C2332 C1527 1.906 . S
C2343 C760 1.894 . S
C2348 C1822 1.894 . S
C2359 C819 1.921 . S
C2364 C1881 1.911 . S
C2375 C1704 1.893 . S
C2380 C878 1.897 . S
C2391 C1763 1.922 . S
C2396 C937 1.914 . S
C2407 C359 1.747 . S
C2412 C5 1.758 . S
C2423 C418 1.735 . S
C2428 C64 1.750 . S
C2439 C241 1.743 . S
C2444 C123 1.757 . S
C2455 C182 1.742 . S
C2460 C300 1.757 . S
C2471 C831 1.735 . S
C2476 C477 1.738 . S
C2487 C890 1.757 . S
C2492 C536 1.742 . S
C2503 C713 1.755 . S
C2508 C595 1.754 . S
C2519 C772 1.746 . S
C2524 C654 1.733 . S
C2535 C1303 1.746 . S
C2540 C949 1.733 . S
C2551 C1362 1.739 . S
C2556 C1008 1.755 . S
C2567 C1067 1.748 . S
C2572 C1185 1.734 . S
C2583 C1126 1.755 . S
C2588 C1244 1.753 . S
C2599 C1775 1.736 . S
C2604 C1421 1.752 . S
C2615 C1834 1.755 . S
C2620 C1480 1.739 . S
C2631 C1539 1.737 . S
C2636 C1657 1.754 . S
C2647 C1598 1.733 . S
C2652 C1716 1.746 . S
C2663 C33 1.519 . S
C2668 C1272 1.516 . S
C2679 C1331 1.494 . S
C2684 C92 1.504 . S
C2695 C1390 1.510 . S
C2700 C151 1.500 . S
C2711 C210 1.490 . S
C2716 C1213 1.497 . S
C2727 C1154 1.513 . S
C2732 C269 1.504 . S
C2743 C328 1.511 . S
C2748 C977 1.501 . S
C2759 C1036 1.489 . S
C2764 C387 1.491 . S
C2775 C446 1.490 . S
C2780 C1095 1.496 . S
C2791 C1744 1.519 . S
C2796 C505 1.517 . S
C2807 C1803 1.512 . S
C2812 C564 1.518 . S
C2823 C623 1.517 . S
C2828 C1862 1.518 . S
C2839 C1685 1.515 . S
C2844 C682 1.519 . S
C2855 C1626 1.518 . S
C2860 C741 1.512 . S
C2871 C800 1.500 . S
C2876 C1449 1.511 . S
C2887 C1508 1.515 . S
C2892 C859 1.519 . S
C2903 C918 1.519 . S
C2908 C1567 1.517 . S
