# Generated by pormake.
# Topology xfc, (7)-cn, num edge types: 1
# Building blocks:
#     Node 0, Type 0, BuildingBlock: HICVOG_clean_sbu_0, # of connection points: 7
#     Node 1, Type 0, BuildingBlock: HICVOG_clean_sbu_0, # of connection points: 7
#     Node 2, Type 0, BuildingBlock: HICVOG_clean_sbu_0, # of connection points: 7
#     Node 3, Type 0, BuildingBlock: HICVOG_clean_sbu_0, # of connection points: 7
#     Node 4, Type 0, BuildingBlock: HICVOG_clean_sbu_0, # of connection points: 7
#     Node 5, Type 0, BuildingBlock: HICVOG_clean_sbu_0, # of connection points: 7
#     Node 6, Type 0, BuildingBlock: HICVOG_clean_sbu_0, # of connection points: 7
#     Node 7, Type 0, BuildingBlock: HICVOG_clean_sbu_0, # of connection points: 7
#     Node 8, Type 0, BuildingBlock: HICVOG_clean_sbu_0, # of connection points: 7
#     Node 9, Type 0, BuildingBlock: HICVOG_clean_sbu_0, # of connection points: 7
#     Node 10, Type 0, BuildingBlock: HICVOG_clean_sbu_0, # of connection points: 7
#     Node 11, Type 0, BuildingBlock: HICVOG_clean_sbu_0, # of connection points: 7
#     Node 12, Type 0, BuildingBlock: HICVOG_clean_sbu_0, # of connection points: 7
#     Node 13, Type 0, BuildingBlock: HICVOG_clean_sbu_0, # of connection points: 7
#     Node 14, Type 0, BuildingBlock: HICVOG_clean_sbu_0, # of connection points: 7
#     Node 15, Type 0, BuildingBlock: HICVOG_clean_sbu_0, # of connection points: 7
#     Edge 16, Type (0, 0), BuildingBlock: AJUNOK_clean_linker_0, # of connection points: 2
#     Edge 17, Type (0, 0), BuildingBlock: AJUNOK_clean_linker_0, # of connection points: 2
#     Edge 18, Type (0, 0), BuildingBlock: AJUNOK_clean_linker_0, # of connection points: 2
#     Edge 19, Type (0, 0), BuildingBlock: AJUNOK_clean_linker_0, # of connection points: 2
#     Edge 20, Type (0, 0), BuildingBlock: AJUNOK_clean_linker_0, # of connection points: 2
#     Edge 21, Type (0, 0), BuildingBlock: AJUNOK_clean_linker_0, # of connection points: 2
#     Edge 22, Type (0, 0), BuildingBlock: AJUNOK_clean_linker_0, # of connection points: 2
#     Edge 23, Type (0, 0), BuildingBlock: AJUNOK_clean_linker_0, # of connection points: 2
#     Edge 24, Type (0, 0), BuildingBlock: AJUNOK_clean_linker_0, # of connection points: 2
#     Edge 25, Type (0, 0), BuildingBlock: AJUNOK_clean_linker_0, # of connection points: 2
#     Edge 26, Type (0, 0), BuildingBlock: AJUNOK_clean_linker_0, # of connection points: 2
#     Edge 27, Type (0, 0), BuildingBlock: AJUNOK_clean_linker_0, # of connection points: 2
#     Edge 28, Type (0, 0), BuildingBlock: AJUNOK_clean_linker_0, # of connection points: 2
#     Edge 29, Type (0, 0), BuildingBlock: AJUNOK_clean_linker_0, # of connection points: 2
#     Edge 30, Type (0, 0), BuildingBlock: AJUNOK_clean_linker_0, # of connection points: 2
#     Edge 31, Type (0, 0), BuildingBlock: AJUNOK_clean_linker_0, # of connection points: 2
#     Edge 32, Type (0, 0), BuildingBlock: AJUNOK_clean_linker_0, # of connection points: 2
#     Edge 33, Type (0, 0), BuildingBlock: AJUNOK_clean_linker_0, # of connection points: 2
#     Edge 34, Type (0, 0), BuildingBlock: AJUNOK_clean_linker_0, # of connection points: 2
#     Edge 35, Type (0, 0), BuildingBlock: AJUNOK_clean_linker_0, # of connection points: 2
#     Edge 36, Type (0, 0), BuildingBlock: AJUNOK_clean_linker_0, # of connection points: 2
#     Edge 37, Type (0, 0), BuildingBlock: AJUNOK_clean_linker_0, # of connection points: 2
#     Edge 38, Type (0, 0), BuildingBlock: AJUNOK_clean_linker_0, # of connection points: 2
#     Edge 39, Type (0, 0), BuildingBlock: AJUNOK_clean_linker_0, # of connection points: 2
#     Edge 40, Type (0, 0), BuildingBlock: AJUNOK_clean_linker_0, # of connection points: 2
#     Edge 41, Type (0, 0), BuildingBlock: AJUNOK_clean_linker_0, # of connection points: 2
#     Edge 42, Type (0, 0), BuildingBlock: AJUNOK_clean_linker_0, # of connection points: 2
#     Edge 43, Type (0, 0), BuildingBlock: AJUNOK_clean_linker_0, # of connection points: 2
#     Edge 44, Type (0, 0), BuildingBlock: AJUNOK_clean_linker_0, # of connection points: 2
#     Edge 45, Type (0, 0), BuildingBlock: AJUNOK_clean_linker_0, # of connection points: 2
#     Edge 46, Type (0, 0), BuildingBlock: AJUNOK_clean_linker_0, # of connection points: 2
#     Edge 47, Type (0, 0), BuildingBlock: AJUNOK_clean_linker_0, # of connection points: 2
#     Edge 48, Type (0, 0), BuildingBlock: AJUNOK_clean_linker_0, # of connection points: 2
#     Edge 49, Type (0, 0), BuildingBlock: AJUNOK_clean_linker_0, # of connection points: 2
#     Edge 50, Type (0, 0), BuildingBlock: AJUNOK_clean_linker_0, # of connection points: 2
#     Edge 51, Type (0, 0), BuildingBlock: AJUNOK_clean_linker_0, # of connection points: 2
#     Edge 52, Type (0, 0), BuildingBlock: AJUNOK_clean_linker_0, # of connection points: 2
#     Edge 53, Type (0, 0), BuildingBlock: AJUNOK_clean_linker_0, # of connection points: 2
#     Edge 54, Type (0, 0), BuildingBlock: AJUNOK_clean_linker_0, # of connection points: 2
#     Edge 55, Type (0, 0), BuildingBlock: AJUNOK_clean_linker_0, # of connection points: 2
#     Edge 56, Type (0, 0), BuildingBlock: AJUNOK_clean_linker_0, # of connection points: 2
#     Edge 57, Type (0, 0), BuildingBlock: AJUNOK_clean_linker_0, # of connection points: 2
#     Edge 58, Type (0, 0), BuildingBlock: AJUNOK_clean_linker_0, # of connection points: 2
#     Edge 59, Type (0, 0), BuildingBlock: AJUNOK_clean_linker_0, # of connection points: 2
#     Edge 60, Type (0, 0), BuildingBlock: AJUNOK_clean_linker_0, # of connection points: 2
#     Edge 61, Type (0, 0), BuildingBlock: AJUNOK_clean_linker_0, # of connection points: 2
#     Edge 62, Type (0, 0), BuildingBlock: AJUNOK_clean_linker_0, # of connection points: 2
#     Edge 63, Type (0, 0), BuildingBlock: AJUNOK_clean_linker_0, # of connection points: 2
#     Edge 64, Type (0, 0), BuildingBlock: AJUNOK_clean_linker_0, # of connection points: 2
#     Edge 65, Type (0, 0), BuildingBlock: AJUNOK_clean_linker_0, # of connection points: 2
#     Edge 66, Type (0, 0), BuildingBlock: AJUNOK_clean_linker_0, # of connection points: 2
#     Edge 67, Type (0, 0), BuildingBlock: AJUNOK_clean_linker_0, # of connection points: 2
#     Edge 68, Type (0, 0), BuildingBlock: AJUNOK_clean_linker_0, # of connection points: 2
#     Edge 69, Type (0, 0), BuildingBlock: AJUNOK_clean_linker_0, # of connection points: 2
#     Edge 70, Type (0, 0), BuildingBlock: AJUNOK_clean_linker_0, # of connection points: 2
#     Edge 71, Type (0, 0), BuildingBlock: AJUNOK_clean_linker_0, # of connection points: 2
# Relax obj value: 0.472
# Max RMSD: 0.253
# Mean RMSD: 0.250
data_MOF--net-xfc--node1-HICVOG_clean_sbu_0--edge1-AJUNOK_clean_linker_0
_symmetry_space_group_name_H-M    P1
_symmetry_Int_Tables_number       1
_symmetry_cell_setting            triclinic
loop_
_symmetry_equiv_pos_as_xyz
'x, y, z'
_cell_length_a     32.965824
_cell_length_b     32.896882
_cell_length_c     19.645205
_cell_angle_alpha  90.153279
_cell_angle_beta   90.378288
_cell_angle_gamma 89.801984
loop_
_atom_site_label
_atom_site_type_symbol
_atom_site_fract_x
_atom_site_fract_y
_atom_site_fract_z
_atom_type_partial_charge
Zn0 Zn 0.06553 0.02976 0.27145 0.0
C1 C 0.98864 0.99335 0.42416 0.0
N2 N 0.02461 0.98649 0.45469 0.0
C3 C 0.05205 0.99934 0.40987 0.0
N4 N 0.03417 0.01372 0.35272 0.0
N5 N 0.99406 1.01059 0.36111 0.0
C6 C 0.90875 0.09451 0.23416 0.0
O7 O 0.91249 0.07335 0.17781 0.0
O8 O 0.11477 0.99464 0.25441 0.0
Zn9 Zn 0.95338 0.02252 0.28732 0.0
N10 N 0.07566 0.08706 0.26416 0.0
C11 C 0.04189 0.15015 0.24662 0.0
C12 C 0.04142 0.10993 0.26823 0.0
C13 C 0.1104 0.10233 0.23695 0.0
N14 N 0.0762 0.16537 0.21904 0.0
C15 C 0.11055 0.14258 0.21275 0.0
O16 O 0.97224 1.0132 0.1865 0.0
C17 C 1.00545 0.0136 0.15355 0.0
O18 O 0.03869 0.0201 0.18334 0.0
H19 H 0.01352 0.09638 0.2857 0.0
H20 H 0.13638 0.08262 0.22966 0.0
C21 C 0.87478 0.99685 0.27233 0.0
C22 C 0.85084 0.96876 0.23857 0.0
C23 C 0.88519 0.9164 0.29869 0.0
C24 C 0.9169 0.94348 0.31091 0.0
N25 N 0.91072 0.98366 0.29755 0.0
N26 N 0.85333 0.92939 0.26009 0.0
H27 H 0.87154 0.02816 0.25884 0.0
C28 C 0.10191 0.95996 0.23533 0.0
O29 O 0.06392 0.95082 0.2481 0.0
O30 O 0.9252 0.08081 0.28908 0.0
H31 H 0.94614 0.93253 0.32813 0.0
H32 H 0.01485 0.16877 0.24973 0.0
H33 H 0.88802 0.88465 0.31205 0.0
Zn34 Zn 0.26068 0.71189 0.5455 0.0
C35 C 0.30603 0.79972 0.6721 0.0
N36 N 0.31924 0.76725 0.70673 0.0
C37 C 0.30648 0.73538 0.6712 0.0
N38 N 0.28325 0.74796 0.61682 0.0
N39 N 0.28441 0.7887 0.6155 0.0
C40 C 0.3276 0.8282 0.42656 0.0
O41 O 0.30829 0.79733 0.39971 0.0
O42 O 0.21066 0.67391 0.56179 0.0
Zn43 Zn 0.26674 0.82448 0.53661 0.0
N44 N 0.30666 0.68293 0.52459 0.0
C45 C 0.37439 0.68767 0.48725 0.0
C46 C 0.33587 0.7041 0.49192 0.0
C47 C 0.31348 0.64621 0.55287 0.0
N48 N 0.38133 0.65061 0.5146 0.0
C49 C 0.35184 0.62898 0.54716 0.0
O50 O 0.23153 0.80078 0.46019 0.0
C51 C 0.23102 0.76693 0.42893 0.0
O52 O 0.24493 0.73524 0.45674 0.0
H53 H 0.32966 0.73431 0.47317 0.0
H54 H 0.28938 0.63103 0.57985 0.0
C55 C 0.2161 0.89352 0.51194 0.0
C56 C 0.19546 0.93036 0.52506 0.0
C57 C 0.22339 0.93028 0.63678 0.0
C58 C 0.2413 0.89248 0.62487 0.0
N59 N 0.23827 0.87507 0.56223 0.0
N60 N 0.20067 0.94801 0.5872 0.0
H61 H 0.21471 0.87956 0.46221 0.0
C62 C 0.2056 0.64587 0.51693 0.0
O63 O 0.23407 0.64012 0.47146 0.0
O64 O 0.31648 0.84263 0.48374 0.0
H65 H 0.25745 0.87754 0.66534 0.0
H66 H 0.39856 0.70401 0.46254 0.0
H67 H 0.22674 0.94511 0.68559 0.0
Zn68 Zn 0.47568 0.03065 0.76404 0.0
C69 C 0.57138 0.0696 0.87686 0.0
N70 N 0.54133 0.09041 0.90788 0.0
C71 C 0.5078 0.07862 0.87528 0.0
N72 N 0.51634 0.05161 0.82591 0.0
N73 N 0.55638 0.04501 0.8252 0.0
C74 C 0.62244 0.92881 0.73422 0.0
O75 O 0.58833 0.91974 0.70314 0.0
O76 O 0.42714 0.06677 0.75161 0.0
Zn77 Zn 0.57781 1.0064 0.74989 0.0
N78 N 0.4608 0.97578 0.78487 0.0
C79 C 0.47857 0.91349 0.83804 0.0
C80 C 0.4861 0.95439 0.82634 0.0
C81 C 0.42816 0.958 0.75401 0.0
N82 N 0.44581 0.89586 0.80834 0.0
C83 C 0.42007 0.91688 0.76664 0.0
O84 O 0.53478 0.97821 0.68533 0.0
C85 C 0.51334 1.00035 0.6455 0.0
O86 O 0.49473 0.03038 0.6702 0.0
H87 H 0.51233 0.96885 0.84901 0.0
H88 H 0.40867 0.97579 0.72092 0.0
C89 C 0.62473 0.01386 0.64084 0.0
C90 C 0.62591 0.01696 0.57032 0.0
C91 C 0.5809 0.07363 0.57749 0.0
C92 C 0.57851 0.06862 0.64796 0.0
N93 N 0.59961 0.03779 0.67755 0.0
N94 N 0.60384 0.04733 0.54031 0.0
H95 H 0.64223 0.99111 0.66606 0.0
C96 C 0.43755 0.09902 0.72091 0.0
O97 O 0.47618 0.10883 0.72126 0.0
O98 O 0.62362 0.96156 0.77031 0.0
H99 H 0.55699 0.08617 0.67728 0.0
H100 H 0.49854 0.89587 0.87045 0.0
H101 H 0.56342 0.0971 0.55223 0.0
Zn102 Zn 0.27082 0.23968 0.9953 0.0
C103 C 0.22689 0.31669 0.14451 0.0
N104 N 0.21815 0.28139 0.17459 0.0
C105 C 0.23018 0.25314 0.13011 0.0
N106 N 0.24756 0.27013 0.0746 0.0
N107 N 0.24567 0.31046 0.08319 0.0
C108 C 0.33589 0.40378 0.03524 0.0
O109 O 0.31573 0.42425 0.08155 0.0
O110 O 0.22769 0.20776 0.94208 0.0
Zn111 Zn 0.25986 0.35051 0.00963 0.0
N112 N 0.31096 0.19745 0.02157 0.0
C113 C 0.32783 0.14396 0.09817 0.0
C114 C 0.30603 0.179 0.08265 0.0
C115 C 0.3393 0.18315 0.9766 0.0
N116 N 0.35525 0.12936 0.05317 0.0
C117 C 0.36253 0.14816 0.99297 0.0
O118 O 0.25449 0.32632 0.91292 0.0
C119 C 0.27737 0.29863 0.88819 0.0
O120 O 0.29821 0.27617 0.92763 0.0
H121 H 0.28467 0.19068 0.11854 0.0
H122 H 0.34292 0.19802 0.92811 0.0
C123 C 0.2352 0.43517 1.00551 0.0
C124 C 0.20834 0.46826 0.01506 0.0
C125 C 0.15595 0.42094 0.04 0.0
C126 C 0.18243 0.38868 0.02794 0.0
N127 N 0.22201 0.39637 0.01423 0.0
N128 N 0.16943 0.45964 0.0333 0.0
H129 H 0.26574 0.43981 0.98819 0.0
C130 C 0.19952 0.22082 0.90308 0.0
O131 O 0.19309 0.26012 0.89816 0.0
O132 O 0.31959 0.37243 0.00784 0.0
H133 H 0.1721 0.35766 0.03291 0.0
H134 H 0.32291 0.12837 0.14564 0.0
H135 H 0.12477 0.41534 0.05392 0.0
Zn136 Zn 0.06244 0.02526 0.72742 0.0
C137 C 0.96474 0.0399 0.59566 0.0
N138 N 0.99411 0.04908 0.55254 0.0
C139 C 0.02859 0.04778 0.58851 0.0
N140 N 0.02121 0.03444 0.65314 0.0
N141 N 0.98103 0.02794 0.65644 0.0
C142 C 0.90031 0.9362 0.779 0.0
O143 O 0.91022 0.95254 0.83766 0.0
O144 O 0.1015 0.07246 0.74383 0.0
Zn145 Zn 0.94739 1.00839 0.73413 0.0
N146 N 0.09317 0.9758 0.70823 0.0
C147 C 0.11043 0.92358 0.62949 0.0
C148 C 0.09258 0.96105 0.64351 0.0
C149 C 0.11171 0.95464 0.75965 0.0
N150 N 0.12834 0.90232 0.68061 0.0
C151 C 0.12992 0.91685 0.74546 0.0
O152 O 0.97591 1.0052 0.82748 0.0
C153 C 1.01029 1.00925 0.85654 0.0
O154 O 0.04173 0.01777 0.82283 0.0
H155 H 0.07747 0.97771 0.60333 0.0
H156 H 0.1108 0.96626 0.81121 0.0
C157 C 0.87112 0.0377 0.76886 0.0
C158 C 0.84671 0.06524 0.80302 0.0
C159 C 0.88614 0.11896 0.75833 0.0
C160 C 0.91531 0.09065 0.73791 0.0
N161 N 0.90724 0.05035 0.74493 0.0
N162 N 0.85363 0.10569 0.79415 0.0
H163 H 0.8657 1.00584 0.77539 0.0
C164 C 0.08981 0.10604 0.76952 0.0
O165 O 0.05077 0.11224 0.77805 0.0
O166 O 0.91443 0.95225 0.7243 0.0
H167 H 0.94412 0.10056 0.71795 0.0
H168 H 0.10929 0.911 0.57867 0.0
H169 H 0.89134 0.15119 0.7522 0.0
Zn170 Zn 0.24828 0.6945 0.01089 0.0
C171 C 0.20036 0.78092 0.88109 0.0
N172 N 0.18586 0.74857 0.84732 0.0
C173 C 0.19989 0.71649 0.88205 0.0
N174 N 0.22341 0.72867 0.93618 0.0
N175 N 0.22351 0.76945 0.93528 0.0
C176 C 0.18171 0.85715 0.03464 0.0
O177 O 0.16413 0.82176 0.02509 0.0
O178 O 0.30619 0.66484 0.99359 0.0
Zn179 Zn 0.24471 0.80559 0.00912 0.0
N180 N 0.21269 0.64996 0.02706 0.0
C181 C 0.15155 0.62588 0.07569 0.0
C182 C 0.17209 0.6544 0.03633 0.0
C183 C 0.2333 0.61901 0.05636 0.0
N184 N 0.17355 0.59842 0.11222 0.0
C185 C 0.21454 0.59565 0.10518 0.0
O186 O 0.22752 0.78515 0.09782 0.0
C187 C 0.23212 0.75377 0.13381 0.0
O188 O 0.24443 0.72032 0.10777 0.0
H189 H 0.15671 0.68153 0.01923 0.0
H190 H 0.26545 0.61724 0.05167 0.0
C191 C 0.32692 0.84186 0.03525 0.0
C192 C 0.36919 0.83681 0.04685 0.0
C193 C 0.36056 0.76504 0.0376 0.0
C194 C 0.31993 0.77035 0.0216 0.0
N195 N 0.30367 0.80823 0.02066 0.0
N196 N 0.38383 0.79806 0.04944 0.0
H197 H 0.3132 0.87177 0.0343 0.0
C198 C 0.33179 0.65821 0.04216 0.0
O199 O 0.32709 0.67779 0.09972 0.0
O200 O 0.21859 0.86079 0.01723 0.0
H201 H 0.30093 0.74445 0.01137 0.0
H202 H 0.11919 0.62854 0.08347 0.0
H203 H 0.37396 0.73503 0.03934 0.0
Zn204 Zn 0.46715 0.9932 0.21683 0.0
C205 C 0.56218 0.96793 0.08646 0.0
N206 N 0.53177 0.95449 0.04706 0.0
C207 C 0.49805 0.95903 0.08441 0.0
N208 N 0.50678 0.97816 0.1443 0.0
N209 N 0.54685 0.98438 0.1454 0.0
C210 C 0.59998 0.0875 0.27742 0.0
O211 O 0.56902 0.07984 0.31703 0.0
O212 O 0.42702 0.94854 0.23217 0.0
Zn213 Zn 0.57846 1.0047 0.22586 0.0
N214 N 0.44032 0.04453 0.19635 0.0
C215 C 0.4383 0.103 0.12563 0.0
C216 C 0.45155 0.06353 0.13816 0.0
C217 C 0.4152 0.06316 0.24214 0.0
N218 N 0.41422 0.12191 0.17174 0.0
C219 C 0.40171 0.10312 0.22953 0.0
O220 O 0.55373 0.99789 0.31929 0.0
C221 C 0.51957 0.99719 0.3482 0.0
O222 O 0.48689 0.99833 0.31413 0.0
H223 H 0.47177 0.04865 0.10282 0.0
H224 H 0.40743 0.04784 0.28895 0.0
C225 C 0.65627 0.97033 0.20455 0.0
C226 C 0.68304 0.9376 0.20525 0.0
C227 C 0.63316 0.89663 0.25899 0.0
C228 C 0.60665 0.92928 0.25838 0.0
N229 N 0.61872 0.96501 0.23066 0.0
N230 N 0.67057 0.90164 0.23266 0.0
H231 H 0.66501 0.99958 0.18431 0.0
C232 C 0.44173 0.91868 0.26514 0.0
O233 O 0.48105 0.91689 0.27598 0.0
O234 O 0.60708 0.06283 0.22786 0.0
H235 H 0.57619 0.92592 0.27757 0.0
H236 H 0.44763 0.11882 0.08016 0.0
H237 H 0.6243 0.86764 0.27994 0.0
Zn238 Zn 0.26895 0.2115 0.47754 0.0
C239 C 0.29441 0.28953 0.31826 0.0
N240 N 0.30641 0.25446 0.28937 0.0
C241 C 0.30004 0.22593 0.33686 0.0
N242 N 0.28382 0.24235 0.3938 0.0
N243 N 0.28002 0.28224 0.38279 0.0
C244 C 0.19179 0.34322 0.52383 0.0
O245 O 0.20424 0.31395 0.56403 0.0
O246 O 0.30282 0.16189 0.49298 0.0
Zn247 Zn 0.2693 0.32065 0.45862 0.0
N248 N 0.21145 0.20108 0.48011 0.0
C249 C 0.14971 0.23817 0.48394 0.0
C250 C 0.19087 0.23642 0.47077 0.0
C251 C 0.1922 0.16632 0.50023 0.0
N252 N 0.13044 0.20397 0.50352 0.0
C253 C 0.14991 0.16758 0.51091 0.0
O254 O 0.28239 0.30444 0.55468 0.0
C255 C 0.28404 0.27373 0.59304 0.0
O256 O 0.27885 0.23849 0.56864 0.0
H257 H 0.20697 0.26348 0.45589 0.0
H258 H 0.20934 0.13855 0.50761 0.0
C259 C 0.2982 0.39513 0.47736 0.0
C260 C 0.32479 0.42789 0.47701 0.0
C261 C 0.37293 0.38629 0.41905 0.0
C262 C 0.34716 0.35336 0.42466 0.0
N263 N 0.30938 0.35974 0.44926 0.0
N264 N 0.36132 0.42267 0.44563 0.0
H265 H 0.2699 0.3952 0.5037 0.0
C266 C 0.3382 0.17366 0.50982 0.0
O267 O 0.34876 0.21107 0.49488 0.0
O268 O 0.2119 0.34989 0.46914 0.0
H269 H 0.35646 0.32352 0.4075 0.0
H270 H 0.13307 0.2664 0.47853 0.0
H271 H 0.40246 0.38254 0.39627 0.0
Zn272 Zn 0.75627 0.19538 0.50774 0.0
C273 C 0.69978 0.28228 0.38772 0.0
N274 N 0.68792 0.25121 0.34873 0.0
C275 C 0.705 0.21842 0.37735 0.0
N276 N 0.72832 0.22904 0.43332 0.0
N277 N 0.72453 0.26952 0.43857 0.0
C278 C 0.67828 0.34543 0.55127 0.0
O279 O 0.66891 0.30674 0.55595 0.0
O280 O 0.8131 0.16537 0.50306 0.0
Zn281 Zn 0.7473 0.3075 0.50607 0.0
N282 N 0.72223 0.15152 0.52135 0.0
C283 C 0.67304 0.12138 0.59145 0.0
C284 C 0.69343 0.15555 0.56998 0.0
C285 C 0.73153 0.11525 0.49212 0.0
N286 N 0.6834 0.08491 0.56463 0.0
C287 C 0.71223 0.08078 0.51559 0.0
O288 O 0.74952 0.2874 0.60026 0.0
C289 C 0.75276 0.2546 0.63287 0.0
O290 O 0.75612 0.22076 0.60229 0.0
H291 H 0.68699 0.18489 0.59241 0.0
H292 H 0.75499 0.11328 0.45395 0.0
C293 C 0.82148 0.35112 0.52797 0.0
C294 C 0.86195 0.36143 0.51456 0.0
C295 C 0.85931 0.32155 0.41354 0.0
C296 C 0.81914 0.31152 0.42678 0.0
N297 N 0.80117 0.32609 0.4839 0.0
N298 N 0.87978 0.34577 0.45796 0.0
H299 H 0.80669 0.36177 0.57373 0.0
C300 C 0.81887 0.14045 0.553 0.0
O301 O 0.79165 0.13894 0.6014 0.0
O302 O 0.71086 0.35517 0.52135 0.0
H303 H 0.80263 0.29164 0.39261 0.0
H304 H 0.64976 0.12357 0.62976 0.0
H305 H 0.87428 0.30991 0.36865 0.0
Zn306 Zn 0.77436 0.70865 0.99117 0.0
C307 C 0.80209 0.79273 0.84303 0.0
N308 N 0.81251 0.75849 0.81006 0.0
C309 C 0.80628 0.72839 0.85459 0.0
N310 N 0.79033 0.743 0.91302 0.0
N311 N 0.78736 0.78334 0.90668 0.0
C312 C 0.69708 0.85381 0.02657 0.0
O313 O 0.69596 0.81929 0.06 0.0
O314 O 0.81045 0.65932 1.00206 0.0
Zn315 Zn 0.78034 0.8199 0.9869 0.0
N316 N 0.7165 0.69528 0.98556 0.0
C317 C 0.65317 0.71752 0.94016 0.0
C318 C 0.69512 0.72046 0.94382 0.0
C319 C 0.69724 0.66631 0.02352 0.0
N320 N 0.63399 0.68954 0.97864 0.0
C321 C 0.65444 0.66352 0.02038 0.0
O322 O 0.79033 0.79912 0.08523 0.0
C323 C 0.79202 0.76506 0.11568 0.0
O324 O 0.78538 0.73256 0.08297 0.0
H325 H 0.71048 0.74345 0.91461 0.0
H326 H 0.71468 0.64691 0.05724 0.0
C327 C 0.82487 0.88899 0.99345 0.0
C328 C 0.85788 0.91455 0.98406 0.0
C329 C 0.89585 0.85891 0.94046 0.0
C330 C 0.86359 0.83322 0.95463 0.0
N331 N 0.8282 0.84964 0.97723 0.0
N332 N 0.89246 0.89891 0.95636 0.0
H333 H 0.79717 0.89887 0.01755 0.0
C334 C 0.84662 0.66968 0.01717 0.0
O335 O 0.857 0.70791 0.00924 0.0
O336 O 0.72817 0.86024 0.98889 0.0
H337 H 0.8659 0.80101 0.94412 0.0
H338 H 0.63584 0.73762 0.9075 0.0
H339 H 0.9237 0.84711 0.9192 0.0
Zn340 Zn 0.77091 0.21029 0.04648 0.0
C341 C 0.79775 0.2983 0.1825 0.0
N342 N 0.80998 0.26771 0.22253 0.0
C343 C 0.80034 0.23406 0.18761 0.0
N344 N 0.78051 0.24408 0.12806 0.0
N345 N 0.77957 0.28456 0.12459 0.0
C346 C 0.83834 0.32441 0.96793 0.0
O347 O 0.84445 0.28567 0.97966 0.0
O348 O 0.71761 0.17543 0.02381 0.0
Zn349 Zn 0.76122 0.31624 0.04262 0.0
N350 N 0.81347 0.1746 0.05332 0.0
C351 C 0.88314 0.15848 0.05545 0.0
C352 C 0.85256 0.18738 0.05258 0.0
C353 C 0.80328 0.13519 0.05693 0.0
N354 N 0.87269 0.11883 0.05025 0.0
C355 C 0.83312 0.10628 0.0477 0.0
O356 O 0.73463 0.28423 0.96493 0.0
C357 C 0.75648 0.26048 0.9294 0.0
O358 O 0.78204 0.23755 0.95856 0.0
H359 H 0.85955 0.21944 0.05192 0.0
H360 H 0.77178 0.12692 0.06009 0.0
C361 C 0.70274 0.37735 0.00919 0.0
C362 C 0.68193 0.41451 0.0163 0.0
C363 C 0.7069 0.41983 0.12946 0.0
C364 C 0.72721 0.38279 0.12225 0.0
N365 N 0.72546 0.36251 0.06196 0.0
N366 N 0.68478 0.43478 0.07657 0.0
H367 H 0.70147 0.36082 0.96168 0.0
C368 C 0.7171 0.15613 0.96649 0.0
O369 O 0.74883 0.15974 0.92704 0.0
O370 O 0.80807 0.34226 0.99453 0.0
H371 H 0.74472 0.37086 0.16395 0.0
H372 H 0.91472 0.16727 0.05714 0.0
H373 H 0.7086 0.43657 0.17683 0.0
Zn374 Zn 0.7645 0.71482 0.52438 0.0
C375 C 0.7415 0.81217 0.65018 0.0
N376 N 0.72526 0.78241 0.68773 0.0
C377 C 0.73201 0.74875 0.6518 0.0
N378 N 0.75237 0.75675 0.59379 0.0
N379 N 0.75991 0.79678 0.59269 0.0
C380 C 0.85723 0.88242 0.48781 0.0
O381 O 0.86349 0.85495 0.44059 0.0
O382 O 0.71644 0.68068 0.49532 0.0
Zn383 Zn 0.79094 0.82329 0.51374 0.0
N384 N 0.80377 0.67464 0.55405 0.0
C385 C 0.82625 0.62641 0.63557 0.0
C386 C 0.8032 0.66042 0.61874 0.0
C387 C 0.82729 0.6566 0.50569 0.0
N388 N 0.85032 0.609 0.58794 0.0
C389 C 0.85231 0.6234 0.52318 0.0
O390 O 0.82598 0.78628 0.45077 0.0
C391 C 0.80985 0.75953 0.41218 0.0
O392 O 0.78411 0.73538 0.43633 0.0
H393 H 0.78402 0.67435 0.65622 0.0
H394 H 0.82509 0.66714 0.45394 0.0
C395 C 0.76625 0.85972 0.39692 0.0
C396 C 0.74823 0.8597 0.33297 0.0
C397 C 0.70041 0.81114 0.37088 0.0
C398 C 0.71963 0.81024 0.43426 0.0
N399 N 0.75207 0.83479 0.44564 0.0
N400 N 0.71537 0.83556 0.32149 0.0
H401 H 0.7931 0.87725 0.40648 0.0
C402 C 0.70079 0.68563 0.43644 0.0
O403 O 0.71056 0.71778 0.40101 0.0
O404 O 0.8282 0.87655 0.5304 0.0
H405 H 0.71018 0.78889 0.47272 0.0
H406 H 0.82476 0.61366 0.68579 0.0
H407 H 0.67457 0.7919 0.36035 0.0
Zn408 Zn 0.55476 0.52744 0.76905 0.0
C409 C 0.47794 0.48013 0.91177 0.0
N410 N 0.51289 0.46714 0.93891 0.0
C411 C 0.54116 0.48131 0.89669 0.0
N412 N 0.52443 0.50324 0.84518 0.0
N413 N 0.48435 0.5025 0.85401 0.0
C414 C 0.42395 0.60532 0.73811 0.0
O415 O 0.45626 0.60084 0.70009 0.0
O416 O 0.59954 0.48914 0.74469 0.0
Zn417 Zn 0.44518 0.51988 0.78205 0.0
N418 N 0.57694 0.58026 0.79223 0.0
C419 C 0.58009 0.63574 0.86979 0.0
C420 C 0.5635 0.5987 0.84982 0.0
C421 C 0.60578 0.59793 0.75256 0.0
N422 N 0.6093 0.65304 0.83111 0.0
C423 C 0.62261 0.63536 0.77261 0.0
O424 O 0.46443 0.51006 0.68294 0.0
C425 C 0.49561 0.51869 0.64779 0.0
O426 O 0.52814 0.53075 0.67608 0.0
H427 H 0.54052 0.58436 0.88053 0.0
H428 H 0.61591 0.5827 0.70679 0.0
C429 C 0.36598 0.50002 0.76418 0.0
C430 C 0.33735 0.47445 0.73485 0.0
C431 C 0.37116 0.4179 0.78368 0.0
C432 C 0.4047 0.44262 0.79576 0.0
N433 N 0.40075 0.48349 0.78806 0.0
N434 N 0.33879 0.4341 0.75022 0.0
H435 H 0.3654 0.53181 0.75085 0.0
C436 C 0.58567 0.45582 0.72156 0.0
O437 O 0.54662 0.44871 0.72702 0.0
O438 O 0.41741 0.57852 0.78397 0.0
H439 H 0.43392 0.42935 0.80699 0.0
H440 H 0.56986 0.65058 0.91581 0.0
H441 H 0.37283 0.38549 0.79248 0.0
Zn442 Zn 0.98463 0.51222 0.27974 0.0
C443 C 0.05744 0.56677 0.42073 0.0
N444 N 0.0216 0.57782 0.4471 0.0
C445 C 0.99469 0.56002 0.40536 0.0
N446 N 0.01278 0.53922 0.35469 0.0
N447 N 0.05255 0.54278 0.36405 0.0
C448 C 0.14261 0.46511 0.23429 0.0
O449 O 0.14843 0.49638 0.19424 0.0
O450 O 0.9451 0.5496 0.23096 0.0
Zn451 Zn 0.09183 0.52807 0.29195 0.0
N452 N 0.95321 0.46748 0.31306 0.0
C453 C 0.93946 0.4198 0.40017 0.0
C454 C 0.96183 0.45232 0.3757 0.0
C455 C 0.92356 0.45099 0.27298 0.0
N456 N 0.90961 0.40364 0.36075 0.0
C457 C 0.90094 0.41811 0.29749 0.0
O458 O 0.0687 0.53585 0.19623 0.0
C459 C 0.04327 0.51128 0.16961 0.0
O460 O 0.02079 0.4895 0.20682 0.0
H461 H 0.98596 0.46531 0.40622 0.0
H462 H 0.91781 0.46334 0.2228 0.0
C463 C 0.17199 0.55069 0.31839 0.0
C464 C 0.20536 0.57678 0.32191 0.0
C465 C 0.15949 0.63297 0.31803 0.0
C466 C 0.12759 0.60659 0.30416 0.0
N467 N 0.13466 0.56595 0.305 0.0
N468 N 0.19764 0.61765 0.32439 0.0
H469 H 0.17602 0.51823 0.32093 0.0
C470 C 0.95661 0.57907 0.19422 0.0
O471 O 0.99519 0.58887 0.19437 0.0
O472 O 0.11809 0.46944 0.2846 0.0
H473 H 0.09722 0.61811 0.29555 0.0
H474 H 0.9462 0.40707 0.44965 0.0
H475 H 0.15429 0.66541 0.32007 0.0
Zn476 Zn 0.44347 0.50319 0.22078 0.0
C477 C 0.53347 0.5503 0.09969 0.0
N478 N 0.50408 0.5602 0.05548 0.0
C479 C 0.46953 0.54708 0.08413 0.0
N480 N 0.47797 0.52617 0.14342 0.0
N481 N 0.51784 0.53041 0.15336 0.0
C482 C 0.60759 0.55359 0.31585 0.0
O483 O 0.59052 0.52845 0.35867 0.0
O484 O 0.39818 0.45635 0.20193 0.0
Zn485 Zn 0.54641 0.51817 0.23761 0.0
N486 N 0.41938 0.55116 0.25633 0.0
C487 C 0.42784 0.6204 0.28829 0.0
C488 C 0.43279 0.58919 0.24096 0.0
C489 C 0.40058 0.54346 0.31543 0.0
N490 N 0.41266 0.61137 0.35044 0.0
C491 C 0.39965 0.57317 0.36487 0.0
O492 O 0.51326 0.53559 0.31749 0.0
C493 C 0.49369 0.50836 0.34805 0.0
O494 O 0.47292 0.48342 0.31217 0.0
H495 H 0.45006 0.59482 0.19564 0.0
H496 H 0.39167 0.51307 0.32768 0.0
C497 C 0.58638 0.44215 0.28358 0.0
C498 C 0.58898 0.39945 0.28745 0.0
C499 C 0.53471 0.39433 0.20757 0.0
C500 C 0.53187 0.43643 0.20473 0.0
N501 N 0.55744 0.45969 0.24281 0.0
N502 N 0.56282 0.37697 0.24894 0.0
H503 H 0.60624 0.46088 0.31393 0.0
C504 C 0.38414 0.43651 0.25318 0.0
O505 O 0.40038 0.44319 0.31304 0.0
O506 O 0.59658 0.55249 0.2535 0.0
H507 H 0.50885 0.45046 0.1732 0.0
H508 H 0.43869 0.65072 0.27771 0.0
H509 H 0.51436 0.37551 0.17782 0.0
Zn510 Zn 0.08601 0.49374 0.74574 0.0
C511 C 0.99431 0.44781 0.6267 0.0
N512 N 0.02427 0.43187 0.58936 0.0
C513 C 0.05813 0.44545 0.61992 0.0
N514 N 0.04934 0.46948 0.67495 0.0
N515 N 1.00897 0.47041 0.67894 0.0
C516 C 0.94476 0.42107 0.79982 0.0
O517 O 0.98416 0.41525 0.80366 0.0
O518 O 0.10255 0.55692 0.74488 0.0
Zn519 Zn 0.97493 0.49327 0.75141 0.0
N520 N 0.1372 0.46508 0.74682 0.0
C521 C 0.17814 0.41387 0.79784 0.0
C522 C 0.14163 0.42586 0.76718 0.0
C523 C 0.16787 0.49183 0.75455 0.0
N524 N 0.20493 0.44311 0.81737 0.0
C525 C 0.19925 0.48278 0.79957 0.0
O526 O 1.0006 0.49846 0.84414 0.0
C527 C 0.03392 0.49167 0.8748 0.0
O528 O 0.06652 0.4854 0.84212 0.0
H529 H 0.11619 0.4054 0.76604 0.0
H530 H 0.16336 0.52232 0.73861 0.0
C531 C 0.92547 0.56522 0.77146 0.0
C532 C 0.91026 0.60377 0.7535 0.0
C533 C 0.94398 0.59858 0.64709 0.0
C534 C 0.9591 0.56054 0.66511 0.0
N535 N 0.95005 0.5448 0.727 0.0
N536 N 0.92046 0.61935 0.69178 0.0
H537 H 0.91901 0.55221 0.82075 0.0
C538 C 0.09624 0.58069 0.79584 0.0
O539 O 0.06834 0.57046 0.83979 0.0
O540 O 0.93149 0.45344 0.77228 0.0
H541 H 0.97842 0.54391 0.63047 0.0
H542 H 0.18258 0.38279 0.81422 0.0
H543 H 0.95118 0.61174 0.59824 0.0
C544 C 1.0028 0.97386 0.97007 0.0
C545 C 0.01302 1.00876 0.93221 0.0
C546 C 1.00008 0.97532 0.04195 0.0
C547 C 1.0065 1.01186 0.07793 0.0
H548 H 0.99586 0.94568 0.94391 0.0
H549 H 0.99282 0.94786 0.06948 0.0
S550 S 0.03892 0.10995 1.00347 0.0
N551 N 0.03355 0.0795 0.93703 0.0
N552 N 0.02771 0.08231 0.07083 0.0
C553 C 0.01901 0.04607 0.04081 0.0
C554 C 0.0224 0.0445 0.96827 0.0
C555 C 0.21983 0.72726 0.32124 0.0
C556 C 0.22262 0.7653 0.35425 0.0
C557 C 0.22058 0.72385 0.24996 0.0
C558 C 0.22571 0.75816 0.20864 0.0
H559 H 0.21863 0.69962 0.35089 0.0
H560 H 0.21807 0.694 0.22718 0.0
S561 S 0.22886 0.86563 0.26891 0.0
N562 N 0.22545 0.83857 0.33916 0.0
N563 N 0.2289 0.83231 0.20601 0.0
C564 C 0.22572 0.79675 0.24073 0.0
C565 C 0.22383 0.80025 0.31324 0.0
C566 C 0.4997 0.02851 0.45858 0.0
C567 C 0.51774 0.99618 0.42345 0.0
C568 C 0.49795 0.02874 0.52983 0.0
C569 C 0.51419 0.99659 0.56947 0.0
H570 H 0.48739 0.0542 0.43077 0.0
H571 H 0.48437 0.05508 0.55393 0.0
S572 S 0.55655 0.90081 0.49958 0.0
N573 N 0.54741 0.92887 0.4316 0.0
N574 N 0.54364 0.92882 0.56603 0.0
C575 C 0.53056 0.96308 0.53435 0.0
C576 C 0.53255 0.96306 0.46134 0.0
C577 C 0.27656 0.31843 0.69668 0.0
C578 C 0.28563 0.27991 0.66842 0.0
C579 C 0.27355 0.32428 0.76748 0.0
C580 C 0.28012 0.29204 0.81317 0.0
H581 H 0.27067 0.34423 0.66385 0.0
H582 H 0.26624 0.35436 0.7865 0.0
S583 S 0.30507 0.18529 0.76614 0.0
N584 N 0.3015 0.20915 0.69255 0.0
N585 N 0.29593 0.22007 0.82482 0.0
C586 C 0.28971 0.25353 0.78569 0.0
C587 C 0.29246 0.2475 0.7137 0.0
C588 C 0.77375 0.22832 0.81756 0.0
C589 C 0.75356 0.25941 0.85382 0.0
C590 C 0.77254 0.2264 0.74636 0.0
C591 C 0.75205 0.25615 0.7082 0.0
H592 H 0.79102 0.20518 0.84417 0.0
H593 H 0.78865 0.20196 0.72104 0.0
S594 S 0.69413 0.34402 0.77729 0.0
N595 N 0.71181 0.32033 0.84532 0.0
N596 N 0.71053 0.31749 0.71149 0.0
C597 C 0.73174 0.2875 0.74344 0.0
C598 C 0.73227 0.28897 0.81614 0.0
C599 C 0.81795 0.79577 0.22732 0.0
C600 C 0.8023 0.76228 0.19044 0.0
C601 C 0.82374 0.79429 0.29878 0.0
C602 C 0.81481 0.75896 0.33617 0.0
H603 H 0.82484 0.82378 0.20109 0.0
H604 H 0.83334 0.8216 0.32496 0.0
S605 S 0.78493 0.65917 0.26199 0.0
N606 N 0.78579 0.69024 0.19631 0.0
N607 N 0.7978 0.68719 0.32833 0.0
C608 C 0.80373 0.72399 0.29867 0.0
C609 C 0.79729 0.72564 0.22661 0.0
C610 C 0.5144 0.54034 0.45977 0.0
C611 C 0.49479 0.5081 0.42492 0.0
C612 C 0.51453 0.54336 0.53128 0.0
C613 C 0.49493 0.51442 0.57191 0.0
H614 H 0.52877 0.56456 0.43168 0.0
H615 H 0.52921 0.56929 0.55482 0.0
S616 S 0.45187 0.41741 0.50982 0.0
N617 N 0.46331 0.44198 0.43919 0.0
N618 N 0.46339 0.44814 0.57346 0.0
C619 C 0.47799 0.48049 0.53873 0.0
C620 C 0.47803 0.47716 0.46552 0.0
C621 C 0.07507 0.50881 0.05411 0.0
C622 C 0.04028 0.50647 0.09474 0.0
C623 C 0.07278 0.50243 0.98348 0.0
C624 C 0.03555 0.49489 0.95036 0.0
H625 H 0.10434 0.51487 0.07719 0.0
H626 H 0.10032 0.50394 0.95425 0.0
S627 S 0.93532 0.48593 0.03431 0.0
N628 N 0.9674 0.49532 0.09724 0.0
N629 N 0.96292 0.48499 0.96448 0.0
C630 C 1.00044 0.49261 0.99061 0.0
C631 C 1.00289 0.49806 0.0627 0.0
C632 C 0.21445 0.18875 0.18923 0.0
C633 C 0.20856 0.21393 0.13205 0.0
C634 C 0.18398 0.16218 0.21157 0.0
C635 C 0.14606 0.16089 0.17862 0.0
H636 H 0.24134 0.19246 0.2205 0.0
H637 H 0.18868 0.14564 0.25856 0.0
S638 S 0.1152 0.21998 0.02647 0.0
N639 N 0.16204 0.23492 0.04268 0.0
N640 N 0.1051 0.1849 0.08374 0.0
C641 C 0.14069 0.18391 0.11903 0.0
C642 C 0.17184 0.21047 0.09595 0.0
C643 C 0.12407 1.00873 0.44668 0.0
C644 C 0.09428 0.98443 0.41578 0.0
C645 C 0.15874 0.99116 0.47707 0.0
C646 C 0.1651 0.94864 0.47696 0.0
H647 H 0.11905 0.0411 0.45205 0.0
H648 H 0.17947 1.01085 0.5045 0.0
S649 S 0.0966 0.87226 0.39767 0.0
N650 N 0.07398 0.91628 0.38361 0.0
N651 N 0.13914 0.88323 0.43829 0.0
C652 C 0.13689 0.92447 0.44108 0.0
C653 C 0.10145 0.94238 0.41126 0.0
C654 C 0.34419 0.86517 0.64727 0.0
C655 C 0.32336 0.83969 0.69263 0.0
C656 C 0.37335 0.89342 0.67114 0.0
C657 C 0.38312 0.89604 0.74101 0.0
H658 H 0.34077 0.86098 0.59339 0.0
H659 H 0.39064 0.91061 0.63451 0.0
S660 S 0.33747 0.83665 0.87908 0.0
N661 N 0.31326 0.82129 0.81046 0.0
N662 N 0.36869 0.87243 0.85443 0.0
C663 C 0.36069 0.87276 0.78652 0.0
C664 C 0.33061 0.84524 0.76264 0.0
C665 C 0.40086 0.08876 0.94413 0.0
C666 C 0.3955 0.13133 0.94906 0.0
C667 C 0.43593 0.07151 0.91508 0.0
C668 C 0.46735 0.09621 0.89099 0.0
H669 H 0.37844 0.06856 0.96552 0.0
H670 H 0.43955 0.03876 0.9153 0.0
S671 S 0.46803 0.20893 0.88803 0.0
N672 N 0.42426 0.19744 0.92344 0.0
N673 N 0.49018 0.16508 0.87029 0.0
C674 C 0.46174 0.13861 0.89287 0.0
C675 C 0.42581 0.15618 0.92132 0.0
C676 C 0.14028 0.8221 0.8495 0.0
C677 C 0.18179 0.8215 0.86755 0.0
C678 C 0.12275 0.85515 0.8155 0.0
C679 C 0.14571 0.88948 0.79923 0.0
H680 H 0.12169 0.79541 0.85716 0.0
H681 H 0.09168 0.85264 0.79765 0.0
S682 S 0.25284 0.90763 0.84787 0.0
N683 N 0.24361 0.86111 0.87539 0.0
N684 N 0.21014 0.92404 0.81286 0.0
C685 C 0.18592 0.89141 0.82325 0.0
C686 C 0.20409 0.85726 0.85736 0.0
C687 C 0.42243 0.93925 0.08729 0.0
C688 C 0.46325 0.93032 0.07169 0.0
C689 C 0.39128 0.90985 0.07801 0.0
C690 C 0.39974 0.87082 0.05092 0.0
H691 H 0.41461 0.96887 0.10757 0.0
H692 H 0.36077 0.91744 0.09376 0.0
S693 S 0.50051 0.83453 0.99077 0.0
N694 N 0.5092 0.87998 0.02265 0.0
N695 N 0.45141 0.82775 0.99956 0.0
C696 C 0.43993 0.8631 0.03027 0.0
C697 C 0.47136 0.892 0.04176 0.0
C698 C 0.36745 0.19388 0.33057 0.0
C699 C 0.32519 0.18848 0.33458 0.0
C700 C 0.39269 0.16399 0.30248 0.0
C701 C 0.37686 0.1271 0.27817 0.0
H702 H 0.38068 0.22306 0.34346 0.0
H703 H 0.42444 0.17105 0.29505 0.0
S704 S 0.2694 0.09489 0.28781 0.0
N705 N 0.26931 0.14141 0.31993 0.0
N706 N 0.31704 0.0845 0.26818 0.0
C707 C 0.33535 0.11943 0.2885 0.0
C708 C 0.30939 0.15034 0.31644 0.0
C709 C 0.10308 0.0721 0.59178 0.0
C710 C 0.06378 0.07263 0.56289 0.0
C711 C 0.13271 0.10128 0.57309 0.0
C712 C 0.12412 0.13115 0.52339 0.0
H713 H 0.11093 0.04929 0.62894 0.0
H714 H 0.16166 0.10143 0.59946 0.0
S715 S 0.0295 0.1414 0.42213 0.0
N716 N 0.02118 0.10318 0.47366 0.0
N717 N 0.07628 0.15547 0.4388 0.0
C718 C 0.08677 0.12911 0.48939 0.0
C719 C 0.05687 0.10042 0.50862 0.0
C720 C 0.88211 0.86253 0.76263 0.0
C721 C 0.87019 0.90207 0.78 0.0
C722 C 0.85861 0.82857 0.78108 0.0
C723 C 0.82207 0.83195 0.81909 0.0
H724 H 0.91109 0.85749 0.7383 0.0
H725 H 0.87088 0.79897 0.76832 0.0
S726 S 0.77381 0.93044 0.86507 0.0
N727 N 0.81669 0.94369 0.8284 0.0
N728 N 0.77317 0.88018 0.86486 0.0
C729 C 0.80848 0.87187 0.83246 0.0
C730 C 0.83237 0.90662 0.81277 0.0
C731 C 0.89406 0.12769 0.54659 0.0
C732 C 0.8551 0.11305 0.55951 0.0
C733 C 0.92858 0.10387 0.56075 0.0
C734 C 0.92606 0.06351 0.58593 0.0
H735 H 0.89807 0.15842 0.52818 0.0
H736 H 0.95782 0.11779 0.55264 0.0
S737 S 0.83095 1.00946 0.62333 0.0
N738 N 0.81591 0.05541 0.59988 0.0
N739 N 0.88086 1.00923 0.6175 0.0
C740 C 0.88728 0.04788 0.59628 0.0
C741 C 0.85196 0.07298 0.58552 0.0
C742 C 0.63472 0.1266 0.37252 0.0
C743 C 0.63108 0.11786 0.30214 0.0
C744 C 0.6616 0.15652 0.39783 0.0
C745 C 0.68786 0.17813 0.35501 0.0
H746 H 0.61539 0.11127 0.40863 0.0
H747 H 0.6586 0.16549 0.45027 0.0
S748 S 0.68196 0.1751 0.16603 0.0
N749 N 0.65143 0.13815 0.18951 0.0
N750 N 0.70124 0.19432 0.2368 0.0
C751 C 0.68326 0.17059 0.28425 0.0
C752 C 0.65562 0.14032 0.25818 0.0
C753 C 0.63217 0.87555 0.08502 0.0
C754 C 0.66439 0.88567 0.0411 0.0
C755 C 0.60146 0.90358 0.10269 0.0
C756 C 0.60129 0.94414 0.07966 0.0
H757 H 0.63008 0.84519 0.10581 0.0
H758 H 0.5766 0.89286 0.13362 0.0
S759 S 0.67512 0.98611 0.95656 0.0
N760 N 0.69196 0.93942 0.97046 0.0
N761 N 0.63417 0.9917 1.0039 0.0
C762 C 0.63251 0.9547 0.03411 0.0
C763 C 0.66405 0.92588 0.01543 0.0
C764 C 0.86831 0.20227 0.21226 0.0
C765 C 0.82605 0.19686 0.20158 0.0
C766 C 0.89465 0.16953 0.22716 0.0
C767 C 0.88 0.12975 0.2334 0.0
H768 H 0.88154 0.23218 0.20686 0.0
H769 H 0.92693 0.17523 0.23114 0.0
S770 S 0.77204 0.09874 0.21907 0.0
N771 N 0.77106 0.14825 0.2053 0.0
N772 N 0.82019 0.08686 0.23193 0.0
C773 C 0.83781 0.12393 0.22594 0.0
C774 C 0.81093 0.15739 0.21098 0.0
C775 C 0.61965 0.0921 0.96772 0.0
C776 C 0.61411 0.07967 0.89899 0.0
C777 C 0.6528 0.11599 0.98938 0.0
C778 C 0.68287 0.12846 0.94379 0.0
H779 H 0.59651 0.08538 1.00494 0.0
H780 H 0.6542 0.12556 0.04205 0.0
S781 S 0.68742 0.09841 0.76084 0.0
N782 N 0.64467 0.07804 0.78747 0.0
N783 N 0.70742 0.12187 0.82734 0.0
C784 C 0.67964 0.11342 0.876 0.0
C785 C 0.64542 0.08926 0.8539 0.0
C786 C 0.71976 0.86464 0.73344 0.0
C787 C 0.72492 0.85387 0.66418 0.0
C788 C 0.68909 0.89162 0.756 0.0
C789 C 0.66025 0.90736 0.71028 0.0
H790 H 0.73624 0.8476 0.77135 0.0
H791 H 0.68557 0.89681 0.81012 0.0
S792 S 0.65948 0.88959 0.52303 0.0
N793 N 0.69937 0.86398 0.55031 0.0
N794 N 0.63949 0.91081 0.59139 0.0
C795 C 0.66561 0.8979 0.64053 0.0
C796 C 0.69839 0.87239 0.61774 0.0
C797 C 0.96004 0.93056 0.47606 0.0
C798 C 0.95257 0.96996 0.45013 0.0
C799 C 0.92865 0.90455 0.49583 0.0
C800 C 0.88769 0.91618 0.4915 0.0
H801 H 0.99063 0.91845 0.47767 0.0
H802 H 0.93651 0.87373 0.51032 0.0
S803 S 0.85118 0.0183 0.43795 0.0
N804 N 0.90103 0.02163 0.43149 0.0
N805 N 0.84138 0.97169 0.46466 0.0
C806 C 0.87954 0.95655 0.47055 0.0
C807 C 0.91205 0.9837 0.45139 0.0
C808 C 0.71849 0.69332 0.73352 0.0
C809 C 0.71012 0.71109 0.66984 0.0
C810 C 0.69114 0.66652 0.76427 0.0
C811 C 0.65422 0.65636 0.73255 0.0
H812 H 0.74531 0.70227 0.76174 0.0
H813 H 0.69792 0.65532 0.8149 0.0
S814 S 0.61551 0.69761 0.56928 0.0
N815 N 0.66036 0.71918 0.57924 0.0
N816 N 0.60999 0.66688 0.63494 0.0
C817 C 0.64576 0.67295 0.66811 0.0
C818 C 0.67337 0.70091 0.63737 0.0
C819 C 0.58529 0.42166 0.91492 0.0
C820 C 0.58252 0.46359 0.90052 0.0
C821 C 0.61974 0.40489 0.94619 0.0
C822 C 0.65283 0.42943 0.9641 0.0
H823 H 0.55909 0.40226 0.90774 0.0
H824 H 0.61882 0.37338 0.96205 0.0
S825 S 0.66681 0.53709 0.91451 0.0
N826 N 0.61972 0.52672 0.89118 0.0
N827 N 0.68506 0.49513 0.94955 0.0
C828 C 0.65276 0.47003 0.94161 0.0
C829 C 0.61748 0.48714 0.90956 0.0
C830 C 0.83236 0.38725 0.28531 0.0
C831 C 0.86982 0.39684 0.25582 0.0
C832 C 0.80644 0.3585 0.25534 0.0
C833 C 0.81632 0.33857 0.19446 0.0
H834 H 0.8244 0.39979 0.33454 0.0
H835 H 0.78016 0.34868 0.28306 0.0
S836 S 0.91254 0.35047 0.09994 0.0
N837 N 0.91606 0.38381 0.16264 0.0
N838 N 0.86793 0.32847 0.10873 0.0
C839 C 0.85325 0.34875 0.16349 0.0
C840 C 0.87969 0.3784 0.19345 0.0
C841 C 0.89326 0.5632 0.48621 0.0
C842 C 0.88167 0.60405 0.47526 0.0
C843 C 0.9276 0.54644 0.45488 0.0
C844 C 0.9513 0.56961 0.41077 0.0
H845 H 0.87741 0.54481 0.52311 0.0
H846 H 0.93777 0.5165 0.47009 0.0
S847 S 0.93211 0.67564 0.35666 0.0
N848 N 0.89539 0.66582 0.41085 0.0
N849 N 0.95908 0.63341 0.35128 0.0
C850 C 0.93805 0.60887 0.39389 0.0
C851 C 0.90338 0.62635 0.42623 0.0
C852 C 0.60453 0.34118 0.36325 0.0
C853 C 0.618 0.3772 0.33254 0.0
C854 C 0.6319 0.31303 0.39061 0.0
C855 C 0.67404 0.31935 0.388 0.0
H856 H 0.57265 0.33326 0.36193 0.0
H857 H 0.62009 0.2842 0.40815 0.0
S858 S 0.7243 0.414 0.3327 0.0
N859 N 0.67587 0.42163 0.31452 0.0
N860 N 0.72729 0.36832 0.36735 0.0
C861 C 0.68768 0.35747 0.36606 0.0
C862 C 0.65963 0.38654 0.33796 0.0
C863 C 0.92246 0.45026 0.58428 0.0
C864 C 0.95314 0.43016 0.62131 0.0
C865 C 0.88992 0.42839 0.55488 0.0
C866 C 0.88715 0.38586 0.56213 0.0
H867 H 0.92548 0.48228 0.57317 0.0
H868 H 0.86884 0.44427 0.5217 0.0
S869 S 0.95678 0.32016 0.66171 0.0
N870 N 0.97631 0.36613 0.66904 0.0
N871 N 0.91526 0.32549 0.61502 0.0
C872 C 0.91559 0.36627 0.60411 0.0
C873 C 0.94855 0.38832 0.63351 0.0
C874 C 0.8746 0.69946 0.83859 0.0
C875 C 0.83311 0.69215 0.84997 0.0
C876 C 0.90028 0.66915 0.81336 0.0
C877 C 0.88596 0.62982 0.80003 0.0
H878 H 0.88671 0.72989 0.84426 0.0
H879 H 0.93102 0.67733 0.79992 0.0
S880 S 0.78198 0.59254 0.8342 0.0
N881 N 0.78002 0.64136 0.85423 0.0
N882 N 0.82917 0.58323 0.81043 0.0
C883 C 0.8458 0.62063 0.81882 0.0
C884 C 0.81906 0.65213 0.84273 0.0
C885 C 0.60767 0.56336 0.07666 0.0
C886 C 0.57005 0.57644 0.10249 0.0
C887 C 0.63768 0.59181 0.0577 0.0
C888 C 0.62993 0.63395 0.06023 0.0
H889 H 0.61292 0.53134 0.06702 0.0
H890 H 0.6658 0.58094 0.03634 0.0
S891 S 0.53907 0.68309 0.13506 0.0
N892 N 0.52971 0.63394 0.14008 0.0
N893 N 0.58427 0.68686 0.09999 0.0
C894 C 0.59382 0.64695 0.09125 0.0
C895 C 0.56434 0.6183 0.11322 0.0
C896 C 0.34714 0.32773 0.25107 0.0
C897 C 0.31048 0.32913 0.28869 0.0
C898 C 0.36837 0.36308 0.23186 0.0
C899 C 0.35417 0.40209 0.24855 0.0
H900 H 0.3615 0.29881 0.24016 0.0
H901 H 0.39793 0.35961 0.20871 0.0
S902 S 0.2562 0.42413 0.33431 0.0
N903 N 0.25751 0.37392 0.33042 0.0
N904 N 0.29848 0.44023 0.29854 0.0
C905 C 0.31582 0.40431 0.28064 0.0
C906 C 0.29361 0.36806 0.29902 0.0
C907 C 0.43386 0.60468 0.02207 0.0
C908 C 0.43101 0.56996 0.06507 0.0
C909 C 0.40098 0.63145 0.01052 0.0
C910 C 0.36307 0.62472 0.04011 0.0
H911 H 0.46249 0.61287 0.99927 0.0
H912 H 0.40594 0.65874 0.981 0.0
S913 S 0.33644 0.53503 0.14579 0.0
N914 N 0.38493 0.52823 0.12907 0.0
N915 N 0.32345 0.57781 0.1076 0.0
C916 C 0.35891 0.58874 0.07886 0.0
C917 C 0.39254 0.56156 0.09098 0.0
C918 C 0.11046 0.64526 0.86118 0.0
C919 C 0.12419 0.6154 0.81502 0.0
C920 C 0.13627 0.67591 0.88662 0.0
C921 C 0.17808 0.67698 0.87165 0.0
H922 H 0.079 0.64566 0.87674 0.0
H923 H 0.12294 0.69993 0.91708 0.0
S924 S 0.22995 0.6071 0.75207 0.0
N925 N 0.18249 0.59156 0.75119 0.0
N926 N 0.2316 0.6457 0.80603 0.0
C927 C 0.19241 0.64718 0.82634 0.0
C928 C 0.16553 0.61732 0.79676 0.0
C929 C 0.15122 0.40947 0.52297 0.0
C930 C 0.15751 0.36982 0.54808 0.0
C931 C 0.12114 0.43538 0.55094 0.0
C932 C 0.09662 0.42329 0.60547 0.0
H933 H 0.16959 0.42054 0.48152 0.0
H934 H 0.11538 0.46449 0.52801 0.0
S935 S 0.09462 0.32 0.68045 0.0
N936 N 0.13257 0.31831 0.62614 0.0
N937 N 0.07598 0.3665 0.67521 0.0
C938 C 0.10112 0.38309 0.62833 0.0
C939 C 0.13165 0.35674 0.60082 0.0
C940 C 0.32291 0.66499 0.71727 0.0
C941 C 0.33339 0.6984 0.67651 0.0
C942 C 0.35183 0.63518 0.73788 0.0
C943 C 0.39328 0.63818 0.72025 0.0
H944 H 0.29236 0.66294 0.73518 0.0
H945 H 0.34162 0.60982 0.76825 0.0
S946 S 0.43822 0.72342 0.62264 0.0
N947 N 0.38943 0.73466 0.62554 0.0
N948 N 0.44333 0.67971 0.66289 0.0
C949 C 0.40434 0.67222 0.68095 0.0
C950 C 0.37483 0.7021 0.66 0.0
C951 C 0.13039 0.6466 0.49298 0.0
C952 C 0.16615 0.62442 0.50583 0.0
C953 C 0.09561 0.62756 0.46531 0.0
C954 C 0.09545 0.58581 0.44765 0.0
H955 H 0.12986 0.67916 0.5012 0.0
H956 H 0.06897 0.64606 0.45553 0.0
S957 S 0.17932 0.51378 0.47872 0.0
N958 N 0.19719 0.5577 0.50613 0.0
N959 N 0.13284 0.52275 0.45098 0.0
C960 C 0.13018 0.56322 0.46323 0.0
C961 C 0.16523 0.58235 0.49267 0.0
C962 C 0.20423 0.42763 0.18987 0.0
C963 C 0.16499 0.4264 0.21873 0.0
C964 C 0.22485 0.39246 0.16785 0.0
C965 C 0.20621 0.35443 0.16982 0.0
H966 H 0.21962 0.45593 0.18389 0.0
H967 H 0.25515 0.39519 0.14777 0.0
S968 S 0.10348 0.33353 0.2401 0.0
N969 N 0.10905 0.38304 0.25003 0.0
N970 N 0.14578 0.31722 0.20455 0.0
C971 C 0.16705 0.35241 0.19951 0.0
C972 C 0.14685 0.38819 0.22437 0.0
C973 C 0.40902 0.48387 0.96661 0.0
C974 C 0.43974 0.46088 0.9361 0.0
C975 C 0.37717 0.46487 1.00208 0.0
C976 C 0.37293 0.42226 1.00438 0.0
H977 H 0.4102 0.51666 0.96458 0.0
H978 H 0.35496 0.48379 0.0267 0.0
S979 S 0.44664 0.34793 0.93526 0.0
N980 N 0.46614 0.39265 0.91635 0.0
N981 N 0.40354 0.35758 0.97465 0.0
C982 C 0.40344 0.39887 0.97379 0.0
C983 C 0.43736 0.41804 0.94191 0.0
C984 C 0.12189 0.88003 0.10078 0.0
C985 C 0.16218 0.88695 0.08108 0.0
C986 C 0.10361 0.90308 0.15186 0.0
C987 C 0.12447 0.93465 0.18546 0.0
H988 H 0.10426 0.85593 0.07747 0.0
H989 H 0.07248 0.89605 0.16446 0.0
S990 S 0.23052 0.96615 0.15246 0.0
N991 N 0.22262 0.92813 0.09893 0.0
N992 N 0.1877 0.97222 0.19455 0.0
C993 C 0.16463 0.94261 0.16569 0.0
C994 C 0.18353 0.91873 0.11351 0.0
C995 C 0.38152 0.87353 0.27532 0.0
C996 C 0.41467 0.89321 0.30581 0.0
C997 C 0.35421 0.85127 0.3148 0.0
C998 C 0.35858 0.84915 0.38613 0.0
H999 H 0.37664 0.87547 0.22083 0.0
H1000 H 0.32877 0.83674 0.28952 0.0
S1001 S 0.44 0.89637 0.49003 0.0
N1002 N 0.4506 0.90926 0.41094 0.0
N1003 N 0.39853 0.86846 0.4853 0.0
C1004 C 0.39162 0.86876 0.41703 0.0
C1005 C 0.41991 0.89055 0.37674 0.0
C1006 C 0.40327 0.163 0.57138 0.0
C1007 C 0.36284 0.15115 0.56058 0.0
C1008 C 0.42635 0.14704 0.6249 0.0
C1009 C 0.41016 0.11829 0.67011 0.0
H1010 H 0.41725 0.1853 0.53858 0.0
H1011 H 0.45746 0.15715 0.63009 0.0
S1012 S 0.30507 0.07798 0.66574 0.0
N1013 N 0.30693 0.10957 0.60066 0.0
N1014 N 0.35062 0.07909 0.70122 0.0
C1015 C 0.36962 0.10611 0.66018 0.0
C1016 C 0.34597 0.12248 0.60531 0.0
C1017 C 0.1333 0.20304 0.84676 0.0
C1018 C 0.17307 0.19176 0.8654 0.0
C1019 C 0.10701 0.17546 0.81437 0.0
C1020 C 0.11965 0.13573 0.79767 0.0
H1021 H 0.12192 0.23309 0.85906 0.0
H1022 H 0.07631 0.1853 0.80303 0.0
S1023 S 0.2223 0.0924 0.82943 0.0
N1024 N 0.22464 0.13884 0.86122 0.0
N1025 N 0.17581 0.08745 0.79879 0.0
C1026 C 0.15999 0.12465 0.81336 0.0
C1027 C 0.18649 0.1525 0.84763 0.0
C1028 C 0.79474 0.06383 0.89386 0.0
C1029 C 0.83286 0.05226 0.87016 0.0
C1030 C 0.78921 0.07026 0.96356 0.0
C1031 C 0.82308 0.06918 0.00853 0.0
H1032 H 0.77084 0.07201 0.85843 0.0
H1033 H 0.76038 0.0825 0.97938 0.0
S1034 S 0.92263 0.02614 0.97465 0.0
N1035 N 0.90037 0.02798 0.89989 0.0
N1036 N 0.88862 0.04021 0.03028 0.0
C1037 C 0.85656 0.04687 0.98802 0.0
C1038 C 0.86258 0.04001 0.91782 0.0
C1039 C 0.7276 1.01163 0.53988 0.0
C1040 C 0.7204 0.04011 0.48798 0.0
C1041 C 0.69496 0.98838 0.56276 0.0
C1042 C 0.65676 0.99378 0.53076 0.0
H1043 H 0.75248 0.0157 0.57457 0.0
H1044 H 0.6979 0.97487 0.61261 0.0
S1045 S 0.64743 0.01967 0.35089 0.0
N1046 N 0.68937 0.04263 0.37593 0.0
N1047 N 0.62907 0.9949 0.41657 0.0
C1048 C 0.65891 1.00318 0.4619 0.0
C1049 C 0.69129 0.02815 0.44014 0.0
C1050 C 0.75641 0.87761 0.21154 0.0
C1051 C 0.76114 0.88842 0.28059 0.0
C1052 C 0.74397 0.90732 0.1649 0.0
C1053 C 0.72645 0.94279 0.19154 0.0
H1054 H 0.75584 0.84616 0.19564 0.0
H1055 H 0.73675 0.89818 0.11376 0.0
S1056 S 0.76649 0.99428 0.34382 0.0
N1057 N 0.77589 0.94558 0.35659 0.0
N1058 N 0.74457 0.99772 0.26826 0.0
C1059 C 0.74616 0.95813 0.24911 0.0
C1060 C 0.76263 0.93011 0.29644 0.0
C1061 C 0.89233 0.9613 0.13745 0.0
C1062 C 0.85496 0.97347 0.16504 0.0
C1063 C 0.89528 0.95044 0.06995 0.0
C1064 C 0.86054 0.94979 0.0288 0.0
H1065 H 0.9184 0.95532 0.16963 0.0
H1066 H 0.92318 0.93606 0.05391 0.0
S1067 S 0.76178 0.99836 0.06884 0.0
N1068 N 0.78811 1.00084 0.14056 0.0
N1069 N 0.79165 0.97571 0.01304 0.0
C1070 C 0.82529 0.96974 0.0521 0.0
C1071 C 0.8229 0.98242 0.121 0.0
C1072 C 0.59423 0.3914 0.65638 0.0
C1073 C 0.61099 0.42815 0.68002 0.0
C1074 C 0.61581 0.36564 0.61296 0.0
C1075 C 0.65498 0.37561 0.59093 0.0
H1076 H 0.56403 0.38231 0.67132 0.0
H1077 H 0.60167 0.3375 0.59686 0.0
S1078 S 0.71314 0.468 0.63859 0.0
N1079 N 0.66951 0.4731 0.67854 0.0
N1080 N 0.71012 0.42457 0.59659 0.0
C1081 C 0.67222 0.41232 0.61384 0.0
C1082 C 0.65029 0.43852 0.65865 0.0
C1083 C 0.85354 0.38575 0.89862 0.0
C1084 C 0.86576 0.34742 0.92306 0.0
C1085 C 0.87857 0.40853 0.85621 0.0
C1086 C 0.91703 0.39408 0.83713 0.0
H1087 H 0.82437 0.3985 0.91244 0.0
H1088 H 0.8681 0.43825 0.84007 0.0
S1089 S 0.96269 0.29469 0.88435 0.0
N1090 N 0.91828 0.29521 0.92266 0.0
N1091 N 0.96558 0.33831 0.84337 0.0
C1092 C 0.92934 0.35541 0.85983 0.0
C1093 C 0.90365 0.332 0.90268 0.0
C1094 C 0.94169 0.63203 0.10628 0.0
C1095 C 0.92773 0.60013 0.14746 0.0
C1096 C 0.91556 0.65277 0.06176 0.0
C1097 C 0.87429 0.64246 0.05601 0.0
H1098 H 0.97307 0.64161 0.10891 0.0
H1099 H 0.92774 0.67777 0.03259 0.0
S1100 S 0.82246 0.56004 0.14999 0.0
N1101 N 0.86984 0.55815 0.17758 0.0
N1102 N 0.82078 0.59728 0.09385 0.0
C1103 C 0.86002 0.60979 0.09518 0.0
C1104 C 0.88667 0.5887 0.14098 0.0
C1105 C 0.64081 0.58839 0.41438 0.0
C1106 C 0.63362 0.5865 0.34355 0.0
C1107 C 0.66196 0.62076 0.44406 0.0
C1108 C 0.67664 0.65282 0.4043 0.0
H1109 H 0.62959 0.56488 0.44779 0.0
H1110 H 0.66664 0.62067 0.49871 0.0
S1111 S 0.66829 0.66163 0.21622 0.0
N1112 N 0.64463 0.61886 0.23411 0.0
N1113 N 0.68395 0.68007 0.28989 0.0
C1114 C 0.67017 0.65121 0.3333 0.0
C1115 C 0.64889 0.61796 0.30293 0.0
C1116 C 0.39912 0.57458 0.55346 0.0
C1117 C 0.35783 0.58493 0.55744 0.0
C1118 C 0.41466 0.56947 0.48785 0.0
C1119 C 0.38789 0.56254 0.43333 0.0
H1120 H 0.41974 0.58535 0.59221 0.0
H1121 H 0.44582 0.57706 0.47857 0.0
S1122 S 0.27932 0.54026 0.4467 0.0
N1123 N 0.29218 0.55813 0.52254 0.0
N1124 N 0.32077 0.53967 0.40037 0.0
C1125 C 0.34759 0.55354 0.44744 0.0
C1126 C 0.33251 0.56307 0.51295 0.0
C1127 C 0.24281 0.52947 0.25108 0.0
C1128 C 0.24596 0.56199 0.29777 0.0
C1129 C 0.23341 0.53956 0.18319 0.0
C1130 C 0.23895 0.57957 0.16166 0.0
H1131 H 0.23495 0.49971 0.26938 0.0
H1132 H 0.21936 0.51797 0.14913 0.0
S1133 S 0.29826 0.65684 0.25829 0.0
N1134 N 0.2897 0.62022 0.31369 0.0
N1135 N 0.2759 0.64258 0.18643 0.0
C1136 C 0.26183 0.60561 0.20463 0.0
C1137 C 0.26951 0.59365 0.27293 0.0
C1138 C 0.18403 0.53039 0.96263 0.0
C1139 C 0.21799 0.51029 0.99023 0.0
C1140 C 0.17863 0.52886 0.89169 0.0
C1141 C 0.21035 0.51413 0.85006 0.0
H1142 H 0.1579 0.53622 0.99418 0.0
H1143 H 0.1482 0.53226 0.87173 0.0
S1144 S 0.3169 0.51687 0.90519 0.0
N1145 N 0.29099 0.51602 0.97701 0.0
N1146 N 0.28353 0.51442 0.8422 0.0
C1147 C 0.24903 0.5142 0.87894 0.0
C1148 C 0.25297 0.51487 0.95092 0.0
C1149 C 0.35597 0.47812 0.55225 0.0
C1150 C 0.31995 0.46092 0.52758 0.0
C1151 C 0.35923 0.4899 0.61965 0.0
C1152 C 0.32668 0.48434 0.66469 0.0
H1153 H 0.38329 0.47842 0.52203 0.0
H1154 H 0.38918 0.4979 0.63798 0.0
S1155 S 0.22118 0.46092 0.61786 0.0
N1156 N 0.24658 0.45672 0.54603 0.0
N1157 N 0.25485 0.47339 0.67665 0.0
C1158 C 0.28872 0.47519 0.63807 0.0
C1159 C 0.28473 0.46517 0.56805 0.0
loop_
_geom_bond_atom_site_label_1
_geom_bond_atom_site_label_2
_geom_bond_distance
_geom_bond_site_symmetry_2
_ccdc_geom_bond_type
Zn0 N4 2.020 . S
Zn0 O8 2.019 . S
Zn0 N10 2.119 . S
Zn0 O18 1.975 . S
C1 N2 1.334 1_645 S
C1 N5 1.336 . S
N2 C1 1.334 1_465 S
N2 C3 1.334 . S
C3 N2 1.334 . S
C3 N4 1.336 1_565 S
N4 Zn0 2.020 . S
N4 C3 1.336 1_545 S
N4 N5 1.354 1_455 S
N5 C1 1.336 . S
N5 N4 1.354 1_655 S
N5 Zn9 2.020 . S
C6 O7 1.244 . S
C6 O30 1.257 . S
O7 C6 1.244 . S
O8 Zn0 2.019 . S
O8 C28 1.257 1_545 S
Zn9 N5 2.020 . S
Zn9 O16 1.975 . S
Zn9 N25 2.119 1_545 S
Zn9 O30 2.019 . S
N10 Zn0 2.119 . S
N10 C12 1.334 . S
N10 C13 1.328 . S
C11 C12 1.391 . S
C11 N14 1.329 . S
C11 H32 0.930 . S
C12 N10 1.334 . S
C12 C11 1.391 . S
C12 H19 0.930 . S
C13 N10 1.328 . S
C13 C15 1.392 . S
C13 H20 0.930 . S
N14 C11 1.329 . S
N14 C15 1.331 . S
C15 C13 1.392 . S
C15 N14 1.331 . S
O16 Zn9 1.975 . S
O16 C17 1.252 1_655 S
C17 O16 1.252 1_455 S
C17 O18 1.252 . S
O18 Zn0 1.975 . S
O18 C17 1.252 . S
H19 C12 0.930 . S
H20 C13 0.930 . S
C21 C22 1.392 . S
C21 N25 1.328 . S
C21 H27 0.930 . S
C22 C21 1.392 . S
C22 N26 1.331 . S
C23 C24 1.391 . S
C23 N26 1.329 . S
C23 H33 0.930 . S
C24 C23 1.391 . S
C24 N25 1.334 . S
C24 H31 0.930 . S
N25 Zn9 2.119 1_565 S
N25 C21 1.328 . S
N25 C24 1.334 . S
N26 C22 1.331 . S
N26 C23 1.329 . S
H27 C21 0.930 . S
C28 O8 1.257 1_565 S
C28 O29 1.244 . S
O29 C28 1.244 . S
O30 C6 1.257 . S
O30 Zn9 2.019 . S
H31 C24 0.930 . S
H32 C11 0.930 . S
H33 C23 0.930 . S
Zn34 N38 2.020 . S
Zn34 O42 2.019 . S
Zn34 N44 2.119 . S
Zn34 O52 1.975 . S
C35 N36 1.334 . S
C35 N39 1.336 . S
N36 C35 1.334 . S
N36 C37 1.334 . S
C37 N36 1.334 . S
C37 N38 1.336 . S
N38 Zn34 2.020 . S
N38 C37 1.336 . S
N38 N39 1.354 . S
N39 C35 1.336 . S
N39 N38 1.354 . S
N39 Zn43 2.020 . S
C40 O41 1.244 . S
C40 O64 1.257 . S
O41 C40 1.244 . S
O42 Zn34 2.019 . S
O42 C62 1.257 . S
Zn43 N39 2.020 . S
Zn43 O50 1.975 . S
Zn43 N59 2.119 . S
Zn43 O64 2.019 . S
N44 Zn34 2.119 . S
N44 C46 1.334 . S
N44 C47 1.328 . S
C45 C46 1.391 . S
C45 N48 1.329 . S
C45 H66 0.930 . S
C46 N44 1.334 . S
C46 C45 1.391 . S
C46 H53 0.930 . S
C47 N44 1.328 . S
C47 C49 1.392 . S
C47 H54 0.930 . S
N48 C45 1.329 . S
N48 C49 1.331 . S
C49 C47 1.392 . S
C49 N48 1.331 . S
O50 Zn43 1.975 . S
O50 C51 1.252 . S
C51 O50 1.252 . S
C51 O52 1.252 . S
O52 Zn34 1.975 . S
O52 C51 1.252 . S
H53 C46 0.930 . S
H54 C47 0.930 . S
C55 C56 1.392 . S
C55 N59 1.328 . S
C55 H61 0.930 . S
C56 C55 1.392 . S
C56 N60 1.331 . S
C57 C58 1.391 . S
C57 N60 1.329 . S
C57 H67 0.930 . S
C58 C57 1.391 . S
C58 N59 1.334 . S
C58 H65 0.930 . S
N59 Zn43 2.119 . S
N59 C55 1.328 . S
N59 C58 1.334 . S
N60 C56 1.331 . S
N60 C57 1.329 . S
H61 C55 0.930 . S
C62 O42 1.257 . S
C62 O63 1.244 . S
O63 C62 1.244 . S
O64 C40 1.257 . S
O64 Zn43 2.019 . S
H65 C58 0.930 . S
H66 C45 0.930 . S
H67 C57 0.930 . S
Zn68 N72 2.020 . S
Zn68 O76 2.019 . S
Zn68 N78 2.119 . S
Zn68 O86 1.975 . S
C69 N70 1.334 1_565 S
C69 N73 1.336 . S
N70 C69 1.334 1_545 S
N70 C71 1.334 . S
C71 N70 1.334 . S
C71 N72 1.336 1_545 S
N72 Zn68 2.020 . S
N72 C71 1.336 1_565 S
N72 N73 1.354 . S
N73 C69 1.336 . S
N73 N72 1.354 . S
N73 Zn77 2.020 . S
C74 O75 1.244 . S
C74 O98 1.257 . S
O75 C74 1.244 . S
O76 Zn68 2.019 . S
O76 C96 1.257 1_565 S
Zn77 N73 2.020 . S
Zn77 O84 1.975 . S
Zn77 N93 2.119 1_565 S
Zn77 O98 2.019 . S
N78 Zn68 2.119 . S
N78 C80 1.334 . S
N78 C81 1.328 . S
C79 C80 1.391 . S
C79 N82 1.329 . S
C79 H100 0.930 . S
C80 N78 1.334 . S
C80 C79 1.391 . S
C80 H87 0.930 . S
C81 N78 1.328 . S
C81 C83 1.392 . S
C81 H88 0.930 . S
N82 C79 1.329 . S
N82 C83 1.331 . S
C83 C81 1.392 . S
C83 N82 1.331 . S
O84 Zn77 1.975 . S
O84 C85 1.252 . S
C85 O84 1.252 . S
C85 O86 1.252 . S
O86 Zn68 1.975 . S
O86 C85 1.252 . S
H87 C80 0.930 . S
H88 C81 0.930 . S
C89 C90 1.392 . S
C89 N93 1.328 . S
C89 H95 0.930 . S
C90 C89 1.392 . S
C90 N94 1.331 . S
C91 C92 1.391 . S
C91 N94 1.329 . S
C91 H101 0.930 . S
C92 C91 1.391 . S
C92 N93 1.334 . S
C92 H99 0.930 . S
N93 Zn77 2.119 1_545 S
N93 C89 1.328 . S
N93 C92 1.334 . S
N94 C90 1.331 . S
N94 C91 1.329 . S
H95 C89 0.930 . S
C96 O76 1.257 1_545 S
C96 O97 1.244 . S
O97 C96 1.244 . S
O98 C74 1.257 . S
O98 Zn77 2.019 . S
H99 C92 0.930 . S
H100 C79 0.930 . S
H101 C91 0.930 . S
Zn102 N106 2.020 1_556 S
Zn102 O110 2.019 . S
Zn102 N112 2.119 1_556 S
Zn102 O120 1.975 . S
C103 N104 1.334 . S
C103 N107 1.336 . S
N104 C103 1.334 . S
N104 C105 1.334 . S
C105 N104 1.334 . S
C105 N106 1.336 . S
N106 Zn102 2.020 1_554 S
N106 C105 1.336 . S
N106 N107 1.354 . S
N107 C103 1.336 . S
N107 N106 1.354 . S
N107 Zn111 2.020 1_554 S
C108 O109 1.244 . S
C108 O132 1.257 1_554 S
O109 C108 1.244 . S
O110 Zn102 2.019 . S
O110 C130 1.257 . S
Zn111 N107 2.020 1_556 S
Zn111 O118 1.975 . S
Zn111 N127 2.119 . S
Zn111 O132 2.019 . S
N112 Zn102 2.119 1_554 S
N112 C114 1.334 . S
N112 C115 1.328 . S
C113 C114 1.391 . S
C113 N116 1.329 . S
C113 H134 0.930 . S
C114 N112 1.334 . S
C114 C113 1.391 . S
C114 H121 0.930 . S
C115 N112 1.328 . S
C115 C117 1.392 . S
C115 H122 0.930 . S
N116 C113 1.329 . S
N116 C117 1.331 . S
C117 C115 1.392 . S
C117 N116 1.331 . S
O118 Zn111 1.975 . S
O118 C119 1.252 . S
C119 O118 1.252 . S
C119 O120 1.252 . S
O120 Zn102 1.975 . S
O120 C119 1.252 . S
H121 C114 0.930 . S
H122 C115 0.930 . S
C123 C124 1.392 . S
C123 N127 1.328 . S
C123 H129 0.930 . S
C124 C123 1.392 . S
C124 N128 1.331 . S
C125 C126 1.391 . S
C125 N128 1.329 . S
C125 H135 0.930 . S
C126 C125 1.391 . S
C126 N127 1.334 . S
C126 H133 0.930 . S
N127 Zn111 2.119 . S
N127 C123 1.328 . S
N127 C126 1.334 . S
N128 C124 1.331 . S
N128 C125 1.329 . S
H129 C123 0.930 . S
C130 O110 1.257 . S
C130 O131 1.244 . S
O131 C130 1.244 . S
O132 C108 1.257 1_556 S
O132 Zn111 2.019 . S
H133 C126 0.930 . S
H134 C113 0.930 . S
H135 C125 0.930 . S
Zn136 N140 2.020 . S
Zn136 O144 2.019 . S
Zn136 N146 2.119 . S
Zn136 O154 1.975 . S
C137 N138 1.334 1_665 S
C137 N141 1.336 . S
N138 C137 1.334 1_445 S
N138 C139 1.334 . S
C139 N138 1.334 . S
C139 N140 1.336 1_545 S
N140 Zn136 2.020 . S
N140 C139 1.336 1_565 S
N140 N141 1.354 1_455 S
N141 C137 1.336 . S
N141 N140 1.354 1_655 S
N141 Zn145 2.020 . S
C142 O143 1.244 . S
C142 O166 1.257 . S
O143 C142 1.244 . S
O144 Zn136 2.019 . S
O144 C164 1.257 1_565 S
Zn145 N141 2.020 . S
Zn145 O152 1.975 . S
Zn145 N161 2.119 1_565 S
Zn145 O166 2.019 . S
N146 Zn136 2.119 . S
N146 C148 1.334 . S
N146 C149 1.328 . S
C147 C148 1.391 . S
C147 N150 1.329 . S
C147 H168 0.930 . S
C148 N146 1.334 . S
C148 C147 1.391 . S
C148 H155 0.930 . S
C149 N146 1.328 . S
C149 C151 1.392 . S
C149 H156 0.930 . S
N150 C147 1.329 . S
N150 C151 1.331 . S
C151 C149 1.392 . S
C151 N150 1.331 . S
O152 Zn145 1.975 . S
O152 C153 1.252 1_655 S
C153 O152 1.252 1_455 S
C153 O154 1.252 . S
O154 Zn136 1.975 . S
O154 C153 1.252 . S
H155 C148 0.930 . S
H156 C149 0.930 . S
C157 C158 1.392 . S
C157 N161 1.328 . S
C157 H163 0.930 . S
C158 C157 1.392 . S
C158 N162 1.331 . S
C159 C160 1.391 . S
C159 N162 1.329 . S
C159 H169 0.930 . S
C160 C159 1.391 . S
C160 N161 1.334 . S
C160 H167 0.930 . S
N161 Zn145 2.119 1_545 S
N161 C157 1.328 . S
N161 C160 1.334 . S
N162 C158 1.331 . S
N162 C159 1.329 . S
H163 C157 0.930 . S
C164 O144 1.257 1_545 S
C164 O165 1.244 . S
O165 C164 1.244 . S
O166 C142 1.257 . S
O166 Zn145 2.019 . S
H167 C160 0.930 . S
H168 C147 0.930 . S
H169 C159 0.930 . S
Zn170 N174 2.020 1_554 S
Zn170 O178 2.019 . S
Zn170 N180 2.119 . S
Zn170 O188 1.975 . S
C171 N172 1.334 . S
C171 N175 1.336 . S
N172 C171 1.334 . S
N172 C173 1.334 . S
C173 N172 1.334 . S
C173 N174 1.336 . S
N174 Zn170 2.020 1_556 S
N174 C173 1.336 . S
N174 N175 1.354 . S
N175 C171 1.336 . S
N175 N174 1.354 . S
N175 Zn179 2.020 1_556 S
C176 O177 1.244 . S
C176 O200 1.257 . S
O177 C176 1.244 . S
O178 Zn170 2.019 . S
O178 C198 1.257 1_554 S
Zn179 N175 2.020 1_554 S
Zn179 O186 1.975 . S
Zn179 N195 2.119 1_554 S
Zn179 O200 2.019 . S
N180 Zn170 2.119 . S
N180 C182 1.334 . S
N180 C183 1.328 . S
C181 C182 1.391 . S
C181 N184 1.329 . S
C181 H202 0.930 . S
C182 N180 1.334 . S
C182 C181 1.391 . S
C182 H189 0.930 . S
C183 N180 1.328 . S
C183 C185 1.392 . S
C183 H190 0.930 . S
N184 C181 1.329 . S
N184 C185 1.331 . S
C185 C183 1.392 . S
C185 N184 1.331 . S
O186 Zn179 1.975 . S
O186 C187 1.252 . S
C187 O186 1.252 . S
C187 O188 1.252 . S
O188 Zn170 1.975 . S
O188 C187 1.252 . S
H189 C182 0.930 . S
H190 C183 0.930 . S
C191 C192 1.392 . S
C191 N195 1.328 . S
C191 H197 0.930 . S
C192 C191 1.392 . S
C192 N196 1.331 . S
C193 C194 1.391 . S
C193 N196 1.329 . S
C193 H203 0.930 . S
C194 C193 1.391 . S
C194 N195 1.334 . S
C194 H201 0.930 . S
N195 Zn179 2.119 1_556 S
N195 C191 1.328 . S
N195 C194 1.334 . S
N196 C192 1.331 . S
N196 C193 1.329 . S
H197 C191 0.930 . S
C198 O178 1.257 1_556 S
C198 O199 1.244 . S
O199 C198 1.244 . S
O200 C176 1.257 . S
O200 Zn179 2.019 . S
H201 C194 0.930 . S
H202 C181 0.930 . S
H203 C193 0.930 . S
Zn204 N208 2.020 . S
Zn204 O212 2.019 . S
Zn204 N214 2.119 . S
Zn204 O222 1.975 . S
C205 N206 1.334 1_545 S
C205 N209 1.336 . S
N206 C205 1.334 1_565 S
N206 C207 1.334 . S
C207 N206 1.334 . S
C207 N208 1.336 1_565 S
N208 Zn204 2.020 . S
N208 C207 1.336 1_545 S
N208 N209 1.354 . S
N209 C205 1.336 . S
N209 N208 1.354 . S
N209 Zn213 2.020 . S
C210 O211 1.244 . S
C210 O234 1.257 . S
O211 C210 1.244 . S
O212 Zn204 2.019 . S
O212 C232 1.257 1_545 S
Zn213 N209 2.020 . S
Zn213 O220 1.975 . S
Zn213 N229 2.119 1_545 S
Zn213 O234 2.019 . S
N214 Zn204 2.119 . S
N214 C216 1.334 . S
N214 C217 1.328 . S
C215 C216 1.391 . S
C215 N218 1.329 . S
C215 H236 0.930 . S
C216 N214 1.334 . S
C216 C215 1.391 . S
C216 H223 0.930 . S
C217 N214 1.328 . S
C217 C219 1.392 . S
C217 H224 0.930 . S
N218 C215 1.329 . S
N218 C219 1.331 . S
C219 C217 1.392 . S
C219 N218 1.331 . S
O220 Zn213 1.975 . S
O220 C221 1.252 . S
C221 O220 1.252 . S
C221 O222 1.252 . S
O222 Zn204 1.975 . S
O222 C221 1.252 . S
H223 C216 0.930 . S
H224 C217 0.930 . S
C225 C226 1.392 . S
C225 N229 1.328 . S
C225 H231 0.930 . S
C226 C225 1.392 . S
C226 N230 1.331 . S
C227 C228 1.391 . S
C227 N230 1.329 . S
C227 H237 0.930 . S
C228 C227 1.391 . S
C228 N229 1.334 . S
C228 H235 0.930 . S
N229 Zn213 2.119 1_565 S
N229 C225 1.328 . S
N229 C228 1.334 . S
N230 C226 1.331 . S
N230 C227 1.329 . S
H231 C225 0.930 . S
C232 O212 1.257 1_565 S
C232 O233 1.244 . S
O233 C232 1.244 . S
O234 C210 1.257 . S
O234 Zn213 2.019 . S
H235 C228 0.930 . S
H236 C215 0.930 . S
H237 C227 0.930 . S
Zn238 N242 2.020 . S
Zn238 O246 2.019 . S
Zn238 N248 2.119 . S
Zn238 O256 1.975 . S
C239 N240 1.334 . S
C239 N243 1.336 . S
N240 C239 1.334 . S
N240 C241 1.334 . S
C241 N240 1.334 . S
C241 N242 1.336 . S
N242 Zn238 2.020 . S
N242 C241 1.336 . S
N242 N243 1.354 . S
N243 C239 1.336 . S
N243 N242 1.354 . S
N243 Zn247 2.020 . S
C244 O245 1.244 . S
C244 O268 1.257 . S
O245 C244 1.244 . S
O246 Zn238 2.019 . S
O246 C266 1.257 . S
Zn247 N243 2.020 . S
Zn247 O254 1.975 . S
Zn247 N263 2.119 . S
Zn247 O268 2.019 . S
N248 Zn238 2.119 . S
N248 C250 1.334 . S
N248 C251 1.328 . S
C249 C250 1.391 . S
C249 N252 1.329 . S
C249 H270 0.930 . S
C250 N248 1.334 . S
C250 C249 1.391 . S
C250 H257 0.930 . S
C251 N248 1.328 . S
C251 C253 1.392 . S
C251 H258 0.930 . S
N252 C249 1.329 . S
N252 C253 1.331 . S
C253 C251 1.392 . S
C253 N252 1.331 . S
O254 Zn247 1.975 . S
O254 C255 1.252 . S
C255 O254 1.252 . S
C255 O256 1.252 . S
O256 Zn238 1.975 . S
O256 C255 1.252 . S
H257 C250 0.930 . S
H258 C251 0.930 . S
C259 C260 1.392 . S
C259 N263 1.328 . S
C259 H265 0.930 . S
C260 C259 1.392 . S
C260 N264 1.331 . S
C261 C262 1.391 . S
C261 N264 1.329 . S
C261 H271 0.930 . S
C262 C261 1.391 . S
C262 N263 1.334 . S
C262 H269 0.930 . S
N263 Zn247 2.119 . S
N263 C259 1.328 . S
N263 C262 1.334 . S
N264 C260 1.331 . S
N264 C261 1.329 . S
H265 C259 0.930 . S
C266 O246 1.257 . S
C266 O267 1.244 . S
O267 C266 1.244 . S
O268 C244 1.257 . S
O268 Zn247 2.019 . S
H269 C262 0.930 . S
H270 C249 0.930 . S
H271 C261 0.930 . S
Zn272 N276 2.020 . S
Zn272 O280 2.019 . S
Zn272 N282 2.119 . S
Zn272 O290 1.975 . S
C273 N274 1.334 . S
C273 N277 1.336 . S
N274 C273 1.334 . S
N274 C275 1.334 . S
C275 N274 1.334 . S
C275 N276 1.336 . S
N276 Zn272 2.020 . S
N276 C275 1.336 . S
N276 N277 1.354 . S
N277 C273 1.336 . S
N277 N276 1.354 . S
N277 Zn281 2.020 . S
C278 O279 1.244 . S
C278 O302 1.257 . S
O279 C278 1.244 . S
O280 Zn272 2.019 . S
O280 C300 1.257 . S
Zn281 N277 2.020 . S
Zn281 O288 1.975 . S
Zn281 N297 2.119 . S
Zn281 O302 2.019 . S
N282 Zn272 2.119 . S
N282 C284 1.334 . S
N282 C285 1.328 . S
C283 C284 1.391 . S
C283 N286 1.329 . S
C283 H304 0.930 . S
C284 N282 1.334 . S
C284 C283 1.391 . S
C284 H291 0.930 . S
C285 N282 1.328 . S
C285 C287 1.392 . S
C285 H292 0.930 . S
N286 C283 1.329 . S
N286 C287 1.331 . S
C287 C285 1.392 . S
C287 N286 1.331 . S
O288 Zn281 1.975 . S
O288 C289 1.252 . S
C289 O288 1.252 . S
C289 O290 1.252 . S
O290 Zn272 1.975 . S
O290 C289 1.252 . S
H291 C284 0.930 . S
H292 C285 0.930 . S
C293 C294 1.392 . S
C293 N297 1.328 . S
C293 H299 0.930 . S
C294 C293 1.392 . S
C294 N298 1.331 . S
C295 C296 1.391 . S
C295 N298 1.329 . S
C295 H305 0.930 . S
C296 C295 1.391 . S
C296 N297 1.334 . S
C296 H303 0.930 . S
N297 Zn281 2.119 . S
N297 C293 1.328 . S
N297 C296 1.334 . S
N298 C294 1.331 . S
N298 C295 1.329 . S
H299 C293 0.930 . S
C300 O280 1.257 . S
C300 O301 1.244 . S
O301 C300 1.244 . S
O302 C278 1.257 . S
O302 Zn281 2.019 . S
H303 C296 0.930 . S
H304 C283 0.930 . S
H305 C295 0.930 . S
Zn306 N310 2.020 1_554 S
Zn306 O314 2.019 . S
Zn306 N316 2.119 1_554 S
Zn306 O324 1.975 . S
C307 N308 1.334 . S
C307 N311 1.336 . S
N308 C307 1.334 . S
N308 C309 1.334 . S
C309 N308 1.334 . S
C309 N310 1.336 . S
N310 Zn306 2.020 1_556 S
N310 C309 1.336 . S
N310 N311 1.354 . S
N311 C307 1.336 . S
N311 N310 1.354 . S
N311 Zn315 2.020 1_556 S
C312 O313 1.244 . S
C312 O336 1.257 1_556 S
O313 C312 1.244 . S
O314 Zn306 2.019 . S
O314 C334 1.257 . S
Zn315 N311 2.020 1_554 S
Zn315 O322 1.975 . S
Zn315 N331 2.119 . S
Zn315 O336 2.019 . S
N316 Zn306 2.119 1_556 S
N316 C318 1.334 . S
N316 C319 1.328 . S
C317 C318 1.391 . S
C317 N320 1.329 . S
C317 H338 0.930 . S
C318 N316 1.334 . S
C318 C317 1.391 . S
C318 H325 0.930 . S
C319 N316 1.328 . S
C319 C321 1.392 . S
C319 H326 0.930 . S
N320 C317 1.329 . S
N320 C321 1.331 . S
C321 C319 1.392 . S
C321 N320 1.331 . S
O322 Zn315 1.975 . S
O322 C323 1.252 . S
C323 O322 1.252 . S
C323 O324 1.252 . S
O324 Zn306 1.975 . S
O324 C323 1.252 . S
H325 C318 0.930 . S
H326 C319 0.930 . S
C327 C328 1.392 . S
C327 N331 1.328 . S
C327 H333 0.930 . S
C328 C327 1.392 . S
C328 N332 1.331 . S
C329 C330 1.391 . S
C329 N332 1.329 . S
C329 H339 0.930 . S
C330 C329 1.391 . S
C330 N331 1.334 . S
C330 H337 0.930 . S
N331 Zn315 2.119 . S
N331 C327 1.328 . S
N331 C330 1.334 . S
N332 C328 1.331 . S
N332 C329 1.329 . S
H333 C327 0.930 . S
C334 O314 1.257 . S
C334 O335 1.244 . S
O335 C334 1.244 . S
O336 C312 1.257 1_554 S
O336 Zn315 2.019 . S
H337 C330 0.930 . S
H338 C317 0.930 . S
H339 C329 0.930 . S
Zn340 N344 2.020 1_556 S
Zn340 O348 2.019 . S
Zn340 N350 2.119 . S
Zn340 O358 1.975 . S
C341 N342 1.334 . S
C341 N345 1.336 . S
N342 C341 1.334 . S
N342 C343 1.334 . S
C343 N342 1.334 . S
C343 N344 1.336 . S
N344 Zn340 2.020 1_554 S
N344 C343 1.336 . S
N344 N345 1.354 . S
N345 C341 1.336 . S
N345 N344 1.354 . S
N345 Zn349 2.020 1_554 S
C346 O347 1.244 . S
C346 O370 1.257 . S
O347 C346 1.244 . S
O348 Zn340 2.019 . S
O348 C368 1.257 1_556 S
Zn349 N345 2.020 1_556 S
Zn349 O356 1.975 . S
Zn349 N365 2.119 1_556 S
Zn349 O370 2.019 . S
N350 Zn340 2.119 . S
N350 C352 1.334 . S
N350 C353 1.328 . S
C351 C352 1.391 . S
C351 N354 1.329 . S
C351 H372 0.930 . S
C352 N350 1.334 . S
C352 C351 1.391 . S
C352 H359 0.930 . S
C353 N350 1.328 . S
C353 C355 1.392 . S
C353 H360 0.930 . S
N354 C351 1.329 . S
N354 C355 1.331 . S
C355 C353 1.392 . S
C355 N354 1.331 . S
O356 Zn349 1.975 . S
O356 C357 1.252 . S
C357 O356 1.252 . S
C357 O358 1.252 . S
O358 Zn340 1.975 . S
O358 C357 1.252 . S
H359 C352 0.930 . S
H360 C353 0.930 . S
C361 C362 1.392 . S
C361 N365 1.328 . S
C361 H367 0.930 . S
C362 C361 1.392 . S
C362 N366 1.331 . S
C363 C364 1.391 . S
C363 N366 1.329 . S
C363 H373 0.930 . S
C364 C363 1.391 . S
C364 N365 1.334 . S
C364 H371 0.930 . S
N365 Zn349 2.119 1_554 S
N365 C361 1.328 . S
N365 C364 1.334 . S
N366 C362 1.331 . S
N366 C363 1.329 . S
H367 C361 0.930 . S
C368 O348 1.257 1_554 S
C368 O369 1.244 . S
O369 C368 1.244 . S
O370 C346 1.257 . S
O370 Zn349 2.019 . S
H371 C364 0.930 . S
H372 C351 0.930 . S
H373 C363 0.930 . S
Zn374 N378 2.020 . S
Zn374 O382 2.019 . S
Zn374 N384 2.119 . S
Zn374 O392 1.975 . S
C375 N376 1.334 . S
C375 N379 1.336 . S
N376 C375 1.334 . S
N376 C377 1.334 . S
C377 N376 1.334 . S
C377 N378 1.336 . S
N378 Zn374 2.020 . S
N378 C377 1.336 . S
N378 N379 1.354 . S
N379 C375 1.336 . S
N379 N378 1.354 . S
N379 Zn383 2.020 . S
C380 O381 1.244 . S
C380 O404 1.257 . S
O381 C380 1.244 . S
O382 Zn374 2.019 . S
O382 C402 1.257 . S
Zn383 N379 2.020 . S
Zn383 O390 1.975 . S
Zn383 N399 2.119 . S
Zn383 O404 2.019 . S
N384 Zn374 2.119 . S
N384 C386 1.334 . S
N384 C387 1.328 . S
C385 C386 1.391 . S
C385 N388 1.329 . S
C385 H406 0.930 . S
C386 N384 1.334 . S
C386 C385 1.391 . S
C386 H393 0.930 . S
C387 N384 1.328 . S
C387 C389 1.392 . S
C387 H394 0.930 . S
N388 C385 1.329 . S
N388 C389 1.331 . S
C389 C387 1.392 . S
C389 N388 1.331 . S
O390 Zn383 1.975 . S
O390 C391 1.252 . S
C391 O390 1.252 . S
C391 O392 1.252 . S
O392 Zn374 1.975 . S
O392 C391 1.252 . S
H393 C386 0.930 . S
H394 C387 0.930 . S
C395 C396 1.392 . S
C395 N399 1.328 . S
C395 H401 0.930 . S
C396 C395 1.392 . S
C396 N400 1.331 . S
C397 C398 1.391 . S
C397 N400 1.329 . S
C397 H407 0.930 . S
C398 C397 1.391 . S
C398 N399 1.334 . S
C398 H405 0.930 . S
N399 Zn383 2.119 . S
N399 C395 1.328 . S
N399 C398 1.334 . S
N400 C396 1.331 . S
N400 C397 1.329 . S
H401 C395 0.930 . S
C402 O382 1.257 . S
C402 O403 1.244 . S
O403 C402 1.244 . S
O404 C380 1.257 . S
O404 Zn383 2.019 . S
H405 C398 0.930 . S
H406 C385 0.930 . S
H407 C397 0.930 . S
Zn408 N412 2.020 . S
Zn408 O416 2.019 . S
Zn408 N418 2.119 . S
Zn408 O426 1.975 . S
C409 N410 1.334 . S
C409 N413 1.336 . S
N410 C409 1.334 . S
N410 C411 1.334 . S
C411 N410 1.334 . S
C411 N412 1.336 . S
N412 Zn408 2.020 . S
N412 C411 1.336 . S
N412 N413 1.354 . S
N413 C409 1.336 . S
N413 N412 1.354 . S
N413 Zn417 2.020 . S
C414 O415 1.244 . S
C414 O438 1.257 . S
O415 C414 1.244 . S
O416 Zn408 2.019 . S
O416 C436 1.257 . S
Zn417 N413 2.020 . S
Zn417 O424 1.975 . S
Zn417 N433 2.119 . S
Zn417 O438 2.019 . S
N418 Zn408 2.119 . S
N418 C420 1.334 . S
N418 C421 1.328 . S
C419 C420 1.391 . S
C419 N422 1.329 . S
C419 H440 0.930 . S
C420 N418 1.334 . S
C420 C419 1.391 . S
C420 H427 0.930 . S
C421 N418 1.328 . S
C421 C423 1.392 . S
C421 H428 0.930 . S
N422 C419 1.329 . S
N422 C423 1.331 . S
C423 C421 1.392 . S
C423 N422 1.331 . S
O424 Zn417 1.975 . S
O424 C425 1.252 . S
C425 O424 1.252 . S
C425 O426 1.252 . S
O426 Zn408 1.975 . S
O426 C425 1.252 . S
H427 C420 0.930 . S
H428 C421 0.930 . S
C429 C430 1.392 . S
C429 N433 1.328 . S
C429 H435 0.930 . S
C430 C429 1.392 . S
C430 N434 1.331 . S
C431 C432 1.391 . S
C431 N434 1.329 . S
C431 H441 0.930 . S
C432 C431 1.391 . S
C432 N433 1.334 . S
C432 H439 0.930 . S
N433 Zn417 2.119 . S
N433 C429 1.328 . S
N433 C432 1.334 . S
N434 C430 1.331 . S
N434 C431 1.329 . S
H435 C429 0.930 . S
C436 O416 1.257 . S
C436 O437 1.244 . S
O437 C436 1.244 . S
O438 C414 1.257 . S
O438 Zn417 2.019 . S
H439 C432 0.930 . S
H440 C419 0.930 . S
H441 C431 0.930 . S
Zn442 N446 2.020 . S
Zn442 O450 2.019 . S
Zn442 N452 2.119 . S
Zn442 O460 1.975 . S
C443 N444 1.334 . S
C443 N447 1.336 . S
N444 C443 1.334 . S
N444 C445 1.334 1_455 S
C445 N444 1.334 1_655 S
C445 N446 1.336 . S
N446 Zn442 2.020 . S
N446 C445 1.336 . S
N446 N447 1.354 1_655 S
N447 C443 1.336 . S
N447 N446 1.354 1_455 S
N447 Zn451 2.020 . S
C448 O449 1.244 . S
C448 O472 1.257 . S
O449 C448 1.244 . S
O450 Zn442 2.019 . S
O450 C470 1.257 . S
Zn451 N447 2.020 . S
Zn451 O458 1.975 . S
Zn451 N467 2.119 . S
Zn451 O472 2.019 . S
N452 Zn442 2.119 . S
N452 C454 1.334 . S
N452 C455 1.328 . S
C453 C454 1.391 . S
C453 N456 1.329 . S
C453 H474 0.930 . S
C454 N452 1.334 . S
C454 C453 1.391 . S
C454 H461 0.930 . S
C455 N452 1.328 . S
C455 C457 1.392 . S
C455 H462 0.930 . S
N456 C453 1.329 . S
N456 C457 1.331 . S
C457 C455 1.392 . S
C457 N456 1.331 . S
O458 Zn451 1.975 . S
O458 C459 1.252 . S
C459 O458 1.252 . S
C459 O460 1.252 1_455 S
O460 Zn442 1.975 . S
O460 C459 1.252 1_655 S
H461 C454 0.930 . S
H462 C455 0.930 . S
C463 C464 1.392 . S
C463 N467 1.328 . S
C463 H469 0.930 . S
C464 C463 1.392 . S
C464 N468 1.331 . S
C465 C466 1.391 . S
C465 N468 1.329 . S
C465 H475 0.930 . S
C466 C465 1.391 . S
C466 N467 1.334 . S
C466 H473 0.930 . S
N467 Zn451 2.119 . S
N467 C463 1.328 . S
N467 C466 1.334 . S
N468 C464 1.331 . S
N468 C465 1.329 . S
H469 C463 0.930 . S
C470 O450 1.257 . S
C470 O471 1.244 . S
O471 C470 1.244 . S
O472 C448 1.257 . S
O472 Zn451 2.019 . S
H473 C466 0.930 . S
H474 C453 0.930 . S
H475 C465 0.930 . S
Zn476 N480 2.020 . S
Zn476 O484 2.019 . S
Zn476 N486 2.119 . S
Zn476 O494 1.975 . S
C477 N478 1.334 . S
C477 N481 1.336 . S
N478 C477 1.334 . S
N478 C479 1.334 . S
C479 N478 1.334 . S
C479 N480 1.336 . S
N480 Zn476 2.020 . S
N480 C479 1.336 . S
N480 N481 1.354 . S
N481 C477 1.336 . S
N481 N480 1.354 . S
N481 Zn485 2.020 . S
C482 O483 1.244 . S
C482 O506 1.257 . S
O483 C482 1.244 . S
O484 Zn476 2.019 . S
O484 C504 1.257 . S
Zn485 N481 2.020 . S
Zn485 O492 1.975 . S
Zn485 N501 2.119 . S
Zn485 O506 2.019 . S
N486 Zn476 2.119 . S
N486 C488 1.334 . S
N486 C489 1.328 . S
C487 C488 1.391 . S
C487 N490 1.329 . S
C487 H508 0.930 . S
C488 N486 1.334 . S
C488 C487 1.391 . S
C488 H495 0.930 . S
C489 N486 1.328 . S
C489 C491 1.392 . S
C489 H496 0.930 . S
N490 C487 1.329 . S
N490 C491 1.331 . S
C491 C489 1.392 . S
C491 N490 1.331 . S
O492 Zn485 1.975 . S
O492 C493 1.252 . S
C493 O492 1.252 . S
C493 O494 1.252 . S
O494 Zn476 1.975 . S
O494 C493 1.252 . S
H495 C488 0.930 . S
H496 C489 0.930 . S
C497 C498 1.392 . S
C497 N501 1.328 . S
C497 H503 0.930 . S
C498 C497 1.392 . S
C498 N502 1.331 . S
C499 C500 1.391 . S
C499 N502 1.329 . S
C499 H509 0.930 . S
C500 C499 1.391 . S
C500 N501 1.334 . S
C500 H507 0.930 . S
N501 Zn485 2.119 . S
N501 C497 1.328 . S
N501 C500 1.334 . S
N502 C498 1.331 . S
N502 C499 1.329 . S
H503 C497 0.930 . S
C504 O484 1.257 . S
C504 O505 1.244 . S
O505 C504 1.244 . S
O506 C482 1.257 . S
O506 Zn485 2.019 . S
H507 C500 0.930 . S
H508 C487 0.930 . S
H509 C499 0.930 . S
Zn510 N514 2.020 . S
Zn510 O518 2.019 . S
Zn510 N520 2.119 . S
Zn510 O528 1.975 . S
C511 N512 1.334 1_655 S
C511 N515 1.336 . S
N512 C511 1.334 1_455 S
N512 C513 1.334 . S
C513 N512 1.334 . S
C513 N514 1.336 . S
N514 Zn510 2.020 . S
N514 C513 1.336 . S
N514 N515 1.354 1_455 S
N515 C511 1.336 . S
N515 N514 1.354 1_655 S
N515 Zn519 2.020 . S
C516 O517 1.244 . S
C516 O540 1.257 . S
O517 C516 1.244 . S
O518 Zn510 2.019 . S
O518 C538 1.257 . S
Zn519 N515 2.020 . S
Zn519 O526 1.975 . S
Zn519 N535 2.119 . S
Zn519 O540 2.019 . S
N520 Zn510 2.119 . S
N520 C522 1.334 . S
N520 C523 1.328 . S
C521 C522 1.391 . S
C521 N524 1.329 . S
C521 H542 0.930 . S
C522 N520 1.334 . S
C522 C521 1.391 . S
C522 H529 0.930 . S
C523 N520 1.328 . S
C523 C525 1.392 . S
C523 H530 0.930 . S
N524 C521 1.329 . S
N524 C525 1.331 . S
C525 C523 1.392 . S
C525 N524 1.331 . S
O526 Zn519 1.975 . S
O526 C527 1.252 1_655 S
C527 O526 1.252 1_455 S
C527 O528 1.252 . S
O528 Zn510 1.975 . S
O528 C527 1.252 . S
H529 C522 0.930 . S
H530 C523 0.930 . S
C531 C532 1.392 . S
C531 N535 1.328 . S
C531 H537 0.930 . S
C532 C531 1.392 . S
C532 N536 1.331 . S
C533 C534 1.391 . S
C533 N536 1.329 . S
C533 H543 0.930 . S
C534 C533 1.391 . S
C534 N535 1.334 . S
C534 H541 0.930 . S
N535 Zn519 2.119 . S
N535 C531 1.328 . S
N535 C534 1.334 . S
N536 C532 1.331 . S
N536 C533 1.329 . S
H537 C531 0.930 . S
C538 O518 1.257 . S
C538 O539 1.244 . S
O539 C538 1.244 . S
O540 C516 1.257 . S
O540 Zn519 2.019 . S
H541 C534 0.930 . S
H542 C521 0.930 . S
H543 C533 0.930 . S
C544 C545 1.369 1_654 S
C544 C546 1.419 1_655 S
C544 H548 0.930 . S
C545 C544 1.369 1_456 S
C545 C554 1.429 1_565 S
C546 C544 1.419 1_455 S
C546 C547 1.364 1_565 S
C546 H549 0.929 1_455 S
C547 C546 1.364 1_545 S
C547 C553 1.428 1_554 S
H548 C544 0.930 . S
H549 C546 0.929 1_655 S
S550 N551 1.613 . S
S550 N552 1.610 . S
N551 S550 1.613 . S
N551 C554 1.350 . S
N552 S550 1.610 . S
N552 C553 1.351 . S
C553 C547 1.428 1_556 S
C553 N552 1.351 . S
C553 C554 1.434 . S
C554 C545 1.429 1_545 S
C554 N551 1.350 . S
C554 C553 1.434 . S
C555 C556 1.369 . S
C555 C557 1.419 . S
C555 H559 0.930 . S
C556 C555 1.369 . S
C556 C565 1.429 . S
C557 C555 1.419 . S
C557 C558 1.363 . S
C557 H560 0.929 . S
C558 C557 1.363 . S
C558 C564 1.428 . S
H559 C555 0.930 . S
H560 C557 0.929 . S
S561 N562 1.613 . S
S561 N563 1.610 . S
N562 S561 1.613 . S
N562 C565 1.350 . S
N563 S561 1.610 . S
N563 C564 1.351 . S
C564 C558 1.428 . S
C564 N563 1.351 . S
C564 C565 1.434 . S
C565 C556 1.429 . S
C565 N562 1.350 . S
C565 C564 1.434 . S
C566 C567 1.369 . S
C566 C568 1.419 . S
C566 H570 0.930 . S
C567 C566 1.369 . S
C567 C576 1.429 1_545 S
C568 C566 1.419 . S
C568 C569 1.363 1_545 S
C568 H571 0.929 . S
C569 C568 1.363 1_565 S
C569 C575 1.428 . S
H570 C566 0.930 . S
H571 C568 0.929 . S
S572 N573 1.613 . S
S572 N574 1.610 . S
N573 S572 1.613 . S
N573 C576 1.350 . S
N574 S572 1.610 . S
N574 C575 1.351 . S
C575 C569 1.428 . S
C575 N574 1.351 . S
C575 C576 1.434 . S
C576 C567 1.429 1_565 S
C576 N573 1.350 . S
C576 C575 1.434 . S
C577 C578 1.369 . S
C577 C579 1.419 . S
C577 H581 0.930 . S
C578 C577 1.369 . S
C578 C587 1.429 . S
C579 C577 1.419 . S
C579 C580 1.363 . S
C579 H582 0.929 . S
C580 C579 1.363 . S
C580 C586 1.428 . S
H581 C577 0.930 . S
H582 C579 0.929 . S
S583 N584 1.613 . S
S583 N585 1.610 . S
N584 S583 1.613 . S
N584 C587 1.350 . S
N585 S583 1.610 . S
N585 C586 1.351 . S
C586 C580 1.428 . S
C586 N585 1.351 . S
C586 C587 1.434 . S
C587 C578 1.429 . S
C587 N584 1.350 . S
C587 C586 1.434 . S
C588 C589 1.369 . S
C588 C590 1.419 . S
C588 H592 0.930 . S
C589 C588 1.369 . S
C589 C598 1.429 . S
C590 C588 1.419 . S
C590 C591 1.363 . S
C590 H593 0.929 . S
C591 C590 1.363 . S
C591 C597 1.428 . S
H592 C588 0.930 . S
H593 C590 0.929 . S
S594 N595 1.613 . S
S594 N596 1.610 . S
N595 S594 1.613 . S
N595 C598 1.350 . S
N596 S594 1.610 . S
N596 C597 1.351 . S
C597 C591 1.428 . S
C597 N596 1.351 . S
C597 C598 1.434 . S
C598 C589 1.429 . S
C598 N595 1.350 . S
C598 C597 1.434 . S
C599 C600 1.369 . S
C599 C601 1.419 . S
C599 H603 0.930 . S
C600 C599 1.369 . S
C600 C609 1.429 . S
C601 C599 1.419 . S
C601 C602 1.363 . S
C601 H604 0.929 . S
C602 C601 1.363 . S
C602 C608 1.428 . S
H603 C599 0.930 . S
H604 C601 0.929 . S
S605 N606 1.613 . S
S605 N607 1.610 . S
N606 S605 1.613 . S
N606 C609 1.350 . S
N607 S605 1.610 . S
N607 C608 1.351 . S
C608 C602 1.428 . S
C608 N607 1.351 . S
C608 C609 1.434 . S
C609 C600 1.429 . S
C609 N606 1.350 . S
C609 C608 1.434 . S
C610 C611 1.369 . S
C610 C612 1.419 . S
C610 H614 0.930 . S
C611 C610 1.369 . S
C611 C620 1.429 . S
C612 C610 1.419 . S
C612 C613 1.363 . S
C612 H615 0.929 . S
C613 C612 1.363 . S
C613 C619 1.428 . S
H614 C610 0.930 . S
H615 C612 0.929 . S
S616 N617 1.613 . S
S616 N618 1.610 . S
N617 S616 1.613 . S
N617 C620 1.350 . S
N618 S616 1.610 . S
N618 C619 1.351 . S
C619 C613 1.428 . S
C619 N618 1.351 . S
C619 C620 1.434 . S
C620 C611 1.429 . S
C620 N617 1.350 . S
C620 C619 1.434 . S
C621 C622 1.369 . S
C621 C623 1.419 1_554 S
C621 H625 0.930 . S
C622 C621 1.369 . S
C622 C631 1.429 1_455 S
C623 C621 1.419 1_556 S
C623 C624 1.363 . S
C623 H626 0.929 . S
C624 C623 1.363 . S
C624 C630 1.428 1_455 S
H625 C621 0.930 . S
H626 C623 0.929 . S
S627 N628 1.613 1_556 S
S627 N629 1.610 . S
N628 S627 1.613 1_554 S
N628 C631 1.350 . S
N629 S627 1.610 . S
N629 C630 1.351 . S
C630 C624 1.428 1_655 S
C630 N629 1.351 . S
C630 C631 1.434 1_556 S
C631 C622 1.429 1_655 S
C631 N628 1.350 . S
C631 C630 1.434 1_554 S
C632 C633 1.369 . S
C632 C634 1.419 . S
C632 H636 0.930 . S
C633 C632 1.369 . S
C633 C642 1.429 . S
C634 C632 1.419 . S
C634 C635 1.363 . S
C634 H637 0.929 . S
C635 C634 1.363 . S
C635 C641 1.428 . S
H636 C632 0.930 . S
H637 C634 0.929 . S
S638 N639 1.613 . S
S638 N640 1.610 . S
N639 S638 1.613 . S
N639 C642 1.350 . S
N640 S638 1.610 . S
N640 C641 1.351 . S
C641 C635 1.428 . S
C641 N640 1.351 . S
C641 C642 1.434 . S
C642 C633 1.429 . S
C642 N639 1.350 . S
C642 C641 1.434 . S
C643 C644 1.369 . S
C643 C645 1.419 . S
C643 H647 0.930 1_565 S
C644 C643 1.369 . S
C644 C653 1.429 . S
C645 C643 1.419 . S
C645 C646 1.363 . S
C645 H648 0.929 . S
C646 C645 1.363 . S
C646 C652 1.428 . S
H647 C643 0.930 1_545 S
H648 C645 0.929 . S
S649 N650 1.613 . S
S649 N651 1.610 . S
N650 S649 1.613 . S
N650 C653 1.350 . S
N651 S649 1.610 . S
N651 C652 1.351 . S
C652 C646 1.428 . S
C652 N651 1.351 . S
C652 C653 1.434 . S
C653 C644 1.429 . S
C653 N650 1.350 . S
C653 C652 1.434 . S
C654 C655 1.369 . S
C654 C656 1.419 . S
C654 H658 0.930 . S
C655 C654 1.369 . S
C655 C664 1.429 . S
C656 C654 1.419 . S
C656 C657 1.363 . S
C656 H659 0.929 . S
C657 C656 1.363 . S
C657 C663 1.428 . S
H658 C654 0.930 . S
H659 C656 0.929 . S
S660 N661 1.613 . S
S660 N662 1.610 . S
N661 S660 1.613 . S
N661 C664 1.350 . S
N662 S660 1.610 . S
N662 C663 1.351 . S
C663 C657 1.428 . S
C663 N662 1.351 . S
C663 C664 1.434 . S
C664 C655 1.429 . S
C664 N661 1.350 . S
C664 C663 1.434 . S
C665 C666 1.369 1_554 S
C665 C667 1.419 1_554 S
C665 H669 0.930 . S
C666 C665 1.369 1_556 S
C666 C675 1.429 . S
C667 C665 1.419 1_556 S
C667 C668 1.363 . S
C667 H670 0.929 1_556 S
C668 C667 1.363 . S
C668 C674 1.428 . S
H669 C665 0.930 . S
H670 C667 0.929 1_554 S
S671 N672 1.613 . S
S671 N673 1.610 . S
N672 S671 1.613 . S
N672 C675 1.350 . S
N673 S671 1.610 . S
N673 C674 1.351 . S
C674 C668 1.428 . S
C674 N673 1.351 . S
C674 C675 1.434 . S
C675 C666 1.429 . S
C675 N672 1.350 . S
C675 C674 1.434 . S
C676 C677 1.369 . S
C676 C678 1.419 . S
C676 H680 0.930 . S
C677 C676 1.369 . S
C677 C686 1.429 . S
C678 C676 1.419 . S
C678 C679 1.363 . S
C678 H681 0.929 . S
C679 C678 1.363 . S
C679 C685 1.428 . S
H680 C676 0.930 . S
H681 C678 0.929 . S
S682 N683 1.613 . S
S682 N684 1.610 . S
N683 S682 1.613 . S
N683 C686 1.350 . S
N684 S682 1.610 . S
N684 C685 1.351 . S
C685 C679 1.428 . S
C685 N684 1.351 . S
C685 C686 1.434 . S
C686 C677 1.429 . S
C686 N683 1.350 . S
C686 C685 1.434 . S
C687 C688 1.369 . S
C687 C689 1.419 . S
C687 H691 0.930 . S
C688 C687 1.369 . S
C688 C697 1.429 . S
C689 C687 1.419 . S
C689 C690 1.363 . S
C689 H692 0.929 . S
C690 C689 1.363 . S
C690 C696 1.428 1_554 S
H691 C687 0.930 . S
H692 C689 0.929 . S
S693 N694 1.613 . S
S693 N695 1.610 . S
N694 S693 1.613 . S
N694 C697 1.350 1_556 S
N695 S693 1.610 . S
N695 C696 1.351 . S
C696 C690 1.428 1_556 S
C696 N695 1.351 . S
C696 C697 1.434 1_556 S
C697 C688 1.429 . S
C697 N694 1.350 1_554 S
C697 C696 1.434 1_554 S
C698 C699 1.369 . S
C698 C700 1.419 . S
C698 H702 0.930 . S
C699 C698 1.369 . S
C699 C708 1.429 . S
C700 C698 1.419 . S
C700 C701 1.363 . S
C700 H703 0.929 . S
C701 C700 1.363 . S
C701 C707 1.428 . S
H702 C698 0.930 . S
H703 C700 0.929 . S
S704 N705 1.613 . S
S704 N706 1.610 . S
N705 S704 1.613 . S
N705 C708 1.350 . S
N706 S704 1.610 . S
N706 C707 1.351 . S
C707 C701 1.428 . S
C707 N706 1.351 . S
C707 C708 1.434 . S
C708 C699 1.429 . S
C708 N705 1.350 . S
C708 C707 1.434 . S
C709 C710 1.369 . S
C709 C711 1.419 . S
C709 H713 0.930 . S
C710 C709 1.369 . S
C710 C719 1.429 . S
C711 C709 1.419 . S
C711 C712 1.363 . S
C711 H714 0.929 . S
C712 C711 1.363 . S
C712 C718 1.428 . S
H713 C709 0.930 . S
H714 C711 0.929 . S
S715 N716 1.613 . S
S715 N717 1.610 . S
N716 S715 1.613 . S
N716 C719 1.350 . S
N717 S715 1.610 . S
N717 C718 1.351 . S
C718 C712 1.428 . S
C718 N717 1.351 . S
C718 C719 1.434 . S
C719 C710 1.429 . S
C719 N716 1.350 . S
C719 C718 1.434 . S
C720 C721 1.369 . S
C720 C722 1.419 . S
C720 H724 0.930 . S
C721 C720 1.369 . S
C721 C730 1.429 . S
C722 C720 1.419 . S
C722 C723 1.363 . S
C722 H725 0.929 . S
C723 C722 1.363 . S
C723 C729 1.428 . S
H724 C720 0.930 . S
H725 C722 0.929 . S
S726 N727 1.613 . S
S726 N728 1.610 . S
N727 S726 1.613 . S
N727 C730 1.350 . S
N728 S726 1.610 . S
N728 C729 1.351 . S
C729 C723 1.428 . S
C729 N728 1.351 . S
C729 C730 1.434 . S
C730 C721 1.429 . S
C730 N727 1.350 . S
C730 C729 1.434 . S
C731 C732 1.369 . S
C731 C733 1.419 . S
C731 H735 0.930 . S
C732 C731 1.369 . S
C732 C741 1.429 . S
C733 C731 1.419 . S
C733 C734 1.363 . S
C733 H736 0.929 . S
C734 C733 1.363 . S
C734 C740 1.428 . S
H735 C731 0.930 . S
H736 C733 0.929 . S
S737 N738 1.613 1_565 S
S737 N739 1.610 . S
N738 S737 1.613 1_545 S
N738 C741 1.350 . S
N739 S737 1.610 . S
N739 C740 1.351 1_565 S
C740 C734 1.428 . S
C740 N739 1.351 1_545 S
C740 C741 1.434 . S
C741 C732 1.429 . S
C741 N738 1.350 . S
C741 C740 1.434 . S
C742 C743 1.369 . S
C742 C744 1.419 . S
C742 H746 0.930 . S
C743 C742 1.369 . S
C743 C752 1.429 . S
C744 C742 1.419 . S
C744 C745 1.363 . S
C744 H747 0.929 . S
C745 C744 1.363 . S
C745 C751 1.428 . S
H746 C742 0.930 . S
H747 C744 0.929 . S
S748 N749 1.613 . S
S748 N750 1.610 . S
N749 S748 1.613 . S
N749 C752 1.350 . S
N750 S748 1.610 . S
N750 C751 1.351 . S
C751 C745 1.428 . S
C751 N750 1.351 . S
C751 C752 1.434 . S
C752 C743 1.429 . S
C752 N749 1.350 . S
C752 C751 1.434 . S
C753 C754 1.369 . S
C753 C755 1.419 . S
C753 H757 0.930 1_554 S
C754 C753 1.369 . S
C754 C763 1.429 . S
C755 C753 1.419 . S
C755 C756 1.363 . S
C755 H758 0.929 . S
C756 C755 1.363 . S
C756 C762 1.428 . S
H757 C753 0.930 1_556 S
H758 C755 0.929 . S
S759 N760 1.613 . S
S759 N761 1.610 1_565 S
N760 S759 1.613 . S
N760 C763 1.350 . S
N761 S759 1.610 1_545 S
N761 C762 1.351 1_545 S
C762 C756 1.428 . S
C762 N761 1.351 1_565 S
C762 C763 1.434 . S
C763 C754 1.429 . S
C763 N760 1.350 . S
C763 C762 1.434 . S
C764 C765 1.369 . S
C764 C766 1.419 . S
C764 H768 0.930 . S
C765 C764 1.369 . S
C765 C774 1.429 . S
C766 C764 1.419 . S
C766 C767 1.363 . S
C766 H769 0.929 . S
C767 C766 1.363 . S
C767 C773 1.428 . S
H768 C764 0.930 . S
H769 C766 0.929 . S
S770 N771 1.613 . S
S770 N772 1.610 . S
N771 S770 1.613 . S
N771 C774 1.350 . S
N772 S770 1.610 . S
N772 C773 1.351 . S
C773 C767 1.428 . S
C773 N772 1.351 . S
C773 C774 1.434 . S
C774 C765 1.429 . S
C774 N771 1.350 . S
C774 C773 1.434 . S
C775 C776 1.369 . S
C775 C777 1.419 1_556 S
C775 H779 0.928 1_556 S
C776 C775 1.369 . S
C776 C785 1.429 . S
C777 C775 1.419 1_554 S
C777 C778 1.363 1_554 S
C777 H780 0.929 . S
C778 C777 1.363 1_556 S
C778 C784 1.428 . S
H779 C775 0.928 1_554 S
H780 C777 0.929 . S
S781 N782 1.613 . S
S781 N783 1.610 . S
N782 S781 1.613 . S
N782 C785 1.350 . S
N783 S781 1.610 . S
N783 C784 1.351 . S
C784 C778 1.428 . S
C784 N783 1.351 . S
C784 C785 1.434 . S
C785 C776 1.429 . S
C785 N782 1.350 . S
C785 C784 1.434 . S
C786 C787 1.369 . S
C786 C788 1.419 . S
C786 H790 0.930 . S
C787 C786 1.369 . S
C787 C796 1.429 . S
C788 C786 1.419 . S
C788 C789 1.363 . S
C788 H791 0.929 . S
C789 C788 1.363 . S
C789 C795 1.428 . S
H790 C786 0.930 . S
H791 C788 0.929 . S
S792 N793 1.613 . S
S792 N794 1.610 . S
N793 S792 1.613 . S
N793 C796 1.350 . S
N794 S792 1.610 . S
N794 C795 1.351 . S
C795 C789 1.428 . S
C795 N794 1.351 . S
C795 C796 1.434 . S
C796 C787 1.429 . S
C796 N793 1.350 . S
C796 C795 1.434 . S
C797 C798 1.369 . S
C797 C799 1.419 . S
C797 H801 0.930 . S
C798 C797 1.369 . S
C798 C807 1.429 . S
C799 C797 1.419 . S
C799 C800 1.363 . S
C799 H802 0.929 . S
C800 C799 1.363 . S
C800 C806 1.428 . S
H801 C797 0.930 . S
H802 C799 0.929 . S
S803 N804 1.613 . S
S803 N805 1.610 1_545 S
N804 S803 1.613 . S
N804 C807 1.350 1_545 S
N805 S803 1.610 1_565 S
N805 C806 1.351 . S
C806 C800 1.428 . S
C806 N805 1.351 . S
C806 C807 1.434 . S
C807 C798 1.429 . S
C807 N804 1.350 1_565 S
C807 C806 1.434 . S
C808 C809 1.369 . S
C808 C810 1.419 . S
C808 H812 0.930 . S
C809 C808 1.369 . S
C809 C818 1.429 . S
C810 C808 1.419 . S
C810 C811 1.363 . S
C810 H813 0.929 . S
C811 C810 1.363 . S
C811 C817 1.428 . S
H812 C808 0.930 . S
H813 C810 0.929 . S
S814 N815 1.613 . S
S814 N816 1.610 . S
N815 S814 1.613 . S
N815 C818 1.350 . S
N816 S814 1.610 . S
N816 C817 1.351 . S
C817 C811 1.428 . S
C817 N816 1.351 . S
C817 C818 1.434 . S
C818 C809 1.429 . S
C818 N815 1.350 . S
C818 C817 1.434 . S
C819 C820 1.369 . S
C819 C821 1.419 . S
C819 H823 0.930 . S
C820 C819 1.369 . S
C820 C829 1.429 . S
C821 C819 1.419 . S
C821 C822 1.363 . S
C821 H824 0.929 . S
C822 C821 1.363 . S
C822 C828 1.428 . S
H823 C819 0.930 . S
H824 C821 0.929 . S
S825 N826 1.613 . S
S825 N827 1.610 1_556 S
N826 S825 1.613 . S
N826 C829 1.350 . S
N827 S825 1.610 1_554 S
N827 C828 1.351 1_554 S
C828 C822 1.428 . S
C828 N827 1.351 1_556 S
C828 C829 1.434 . S
C829 C820 1.429 . S
C829 N826 1.350 . S
C829 C828 1.434 . S
C830 C831 1.369 . S
C830 C832 1.419 . S
C830 H834 0.930 . S
C831 C830 1.369 . S
C831 C840 1.429 . S
C832 C830 1.419 . S
C832 C833 1.363 . S
C832 H835 0.929 . S
C833 C832 1.363 . S
C833 C839 1.428 . S
H834 C830 0.930 . S
H835 C832 0.929 . S
S836 N837 1.613 . S
S836 N838 1.610 . S
N837 S836 1.613 . S
N837 C840 1.350 . S
N838 S836 1.610 . S
N838 C839 1.351 . S
C839 C833 1.428 . S
C839 N838 1.351 . S
C839 C840 1.434 . S
C840 C831 1.429 . S
C840 N837 1.350 . S
C840 C839 1.434 . S
C841 C842 1.369 . S
C841 C843 1.419 . S
C841 H845 0.930 . S
C842 C841 1.369 . S
C842 C851 1.429 . S
C843 C841 1.419 . S
C843 C844 1.363 . S
C843 H846 0.929 . S
C844 C843 1.363 . S
C844 C850 1.428 . S
H845 C841 0.930 . S
H846 C843 0.929 . S
S847 N848 1.613 1_455 S
S847 N849 1.610 1_455 S
N848 S847 1.613 1_655 S
N848 C851 1.350 . S
N849 S847 1.610 1_655 S
N849 C850 1.351 . S
C850 C844 1.428 . S
C850 N849 1.351 . S
C850 C851 1.434 . S
C851 C842 1.429 . S
C851 N848 1.350 . S
C851 C850 1.434 . S
C852 C853 1.369 . S
C852 C854 1.419 . S
C852 H856 0.930 . S
C853 C852 1.369 . S
C853 C862 1.429 . S
C854 C852 1.419 . S
C854 C855 1.363 . S
C854 H857 0.929 . S
C855 C854 1.363 . S
C855 C861 1.428 . S
H856 C852 0.930 . S
H857 C854 0.929 . S
S858 N859 1.613 . S
S858 N860 1.610 . S
N859 S858 1.613 . S
N859 C862 1.350 . S
N860 S858 1.610 . S
N860 C861 1.351 . S
C861 C855 1.428 . S
C861 N860 1.351 . S
C861 C862 1.434 . S
C862 C853 1.429 . S
C862 N859 1.350 . S
C862 C861 1.434 . S
C863 C864 1.369 . S
C863 C865 1.419 . S
C863 H867 0.930 . S
C864 C863 1.369 . S
C864 C873 1.429 . S
C865 C863 1.419 . S
C865 C866 1.363 . S
C865 H868 0.929 . S
C866 C865 1.363 . S
C866 C872 1.428 . S
H867 C863 0.930 . S
H868 C865 0.929 . S
S869 N870 1.613 1_455 S
S869 N871 1.610 1_455 S
N870 S869 1.613 1_655 S
N870 C873 1.350 . S
N871 S869 1.610 1_655 S
N871 C872 1.351 . S
C872 C866 1.428 . S
C872 N871 1.351 . S
C872 C873 1.434 . S
C873 C864 1.429 . S
C873 N870 1.350 . S
C873 C872 1.434 . S
C874 C875 1.369 . S
C874 C876 1.419 . S
C874 H878 0.930 . S
C875 C874 1.369 . S
C875 C884 1.429 . S
C876 C874 1.419 . S
C876 C877 1.363 . S
C876 H879 0.929 . S
C877 C876 1.363 . S
C877 C883 1.428 . S
H878 C874 0.930 . S
H879 C876 0.929 . S
S880 N881 1.613 . S
S880 N882 1.610 . S
N881 S880 1.613 . S
N881 C884 1.350 . S
N882 S880 1.610 . S
N882 C883 1.351 . S
C883 C877 1.428 . S
C883 N882 1.351 . S
C883 C884 1.434 . S
C884 C875 1.429 . S
C884 N881 1.350 . S
C884 C883 1.434 . S
C885 C886 1.369 . S
C885 C887 1.419 . S
C885 H889 0.930 . S
C886 C885 1.369 . S
C886 C895 1.429 . S
C887 C885 1.419 . S
C887 C888 1.363 . S
C887 H890 0.929 . S
C888 C887 1.363 . S
C888 C894 1.428 . S
H889 C885 0.930 . S
H890 C887 0.929 . S
S891 N892 1.613 1_556 S
S891 N893 1.610 . S
N892 S891 1.613 1_554 S
N892 C895 1.350 . S
N893 S891 1.610 . S
N893 C894 1.351 1_556 S
C894 C888 1.428 . S
C894 N893 1.351 1_554 S
C894 C895 1.434 . S
C895 C886 1.429 . S
C895 N892 1.350 . S
C895 C894 1.434 . S
C896 C897 1.369 . S
C896 C898 1.419 . S
C896 H900 0.930 . S
C897 C896 1.369 . S
C897 C906 1.429 . S
C898 C896 1.419 . S
C898 C899 1.363 . S
C898 H901 0.929 . S
C899 C898 1.363 . S
C899 C905 1.428 . S
H900 C896 0.930 . S
H901 C898 0.929 . S
S902 N903 1.613 . S
S902 N904 1.610 . S
N903 S902 1.613 . S
N903 C906 1.350 . S
N904 S902 1.610 . S
N904 C905 1.351 . S
C905 C899 1.428 . S
C905 N904 1.351 . S
C905 C906 1.434 . S
C906 C897 1.429 . S
C906 N903 1.350 . S
C906 C905 1.434 . S
C907 C908 1.369 . S
C907 C909 1.419 1_554 S
C907 H911 0.930 . S
C908 C907 1.369 . S
C908 C917 1.429 . S
C909 C907 1.419 1_556 S
C909 C910 1.363 1_556 S
C909 H912 0.929 . S
C910 C909 1.363 1_554 S
C910 C916 1.428 . S
H911 C907 0.930 . S
H912 C909 0.929 . S
S913 N914 1.613 . S
S913 N915 1.610 . S
N914 S913 1.613 . S
N914 C917 1.350 . S
N915 S913 1.610 . S
N915 C916 1.351 . S
C916 C910 1.428 . S
C916 N915 1.351 . S
C916 C917 1.434 . S
C917 C908 1.429 . S
C917 N914 1.350 . S
C917 C916 1.434 . S
C918 C919 1.369 . S
C918 C920 1.419 . S
C918 H922 0.930 . S
C919 C918 1.369 . S
C919 C928 1.429 . S
C920 C918 1.419 . S
C920 C921 1.363 . S
C920 H923 0.929 . S
C921 C920 1.363 . S
C921 C927 1.428 . S
H922 C918 0.930 . S
H923 C920 0.929 . S
S924 N925 1.613 . S
S924 N926 1.610 . S
N925 S924 1.613 . S
N925 C928 1.350 . S
N926 S924 1.610 . S
N926 C927 1.351 . S
C927 C921 1.428 . S
C927 N926 1.351 . S
C927 C928 1.434 . S
C928 C919 1.429 . S
C928 N925 1.350 . S
C928 C927 1.434 . S
C929 C930 1.369 . S
C929 C931 1.419 . S
C929 H933 0.930 . S
C930 C929 1.369 . S
C930 C939 1.429 . S
C931 C929 1.419 . S
C931 C932 1.363 . S
C931 H934 0.929 . S
C932 C931 1.363 . S
C932 C938 1.428 . S
H933 C929 0.930 . S
H934 C931 0.929 . S
S935 N936 1.613 . S
S935 N937 1.610 . S
N936 S935 1.613 . S
N936 C939 1.350 . S
N937 S935 1.610 . S
N937 C938 1.351 . S
C938 C932 1.428 . S
C938 N937 1.351 . S
C938 C939 1.434 . S
C939 C930 1.429 . S
C939 N936 1.350 . S
C939 C938 1.434 . S
C940 C941 1.369 . S
C940 C942 1.419 . S
C940 H944 0.930 . S
C941 C940 1.369 . S
C941 C950 1.429 . S
C942 C940 1.419 . S
C942 C943 1.363 . S
C942 H945 0.929 . S
C943 C942 1.363 . S
C943 C949 1.428 . S
H944 C940 0.930 . S
H945 C942 0.929 . S
S946 N947 1.613 . S
S946 N948 1.610 . S
N947 S946 1.613 . S
N947 C950 1.350 . S
N948 S946 1.610 . S
N948 C949 1.351 . S
C949 C943 1.428 . S
C949 N948 1.351 . S
C949 C950 1.434 . S
C950 C941 1.429 . S
C950 N947 1.350 . S
C950 C949 1.434 . S
C951 C952 1.369 . S
C951 C953 1.419 . S
C951 H955 0.930 . S
C952 C951 1.369 . S
C952 C961 1.429 . S
C953 C951 1.419 . S
C953 C954 1.363 . S
C953 H956 0.929 . S
C954 C953 1.363 . S
C954 C960 1.428 . S
H955 C951 0.930 . S
H956 C953 0.929 . S
S957 N958 1.613 . S
S957 N959 1.610 . S
N958 S957 1.613 . S
N958 C961 1.350 . S
N959 S957 1.610 . S
N959 C960 1.351 . S
C960 C954 1.428 . S
C960 N959 1.351 . S
C960 C961 1.434 . S
C961 C952 1.429 . S
C961 N958 1.350 . S
C961 C960 1.434 . S
C962 C963 1.369 . S
C962 C964 1.419 . S
C962 H966 0.930 . S
C963 C962 1.369 . S
C963 C972 1.429 . S
C964 C962 1.419 . S
C964 C965 1.363 . S
C964 H967 0.929 . S
C965 C964 1.363 . S
C965 C971 1.428 . S
H966 C962 0.930 . S
H967 C964 0.929 . S
S968 N969 1.613 . S
S968 N970 1.610 . S
N969 S968 1.613 . S
N969 C972 1.350 . S
N970 S968 1.610 . S
N970 C971 1.351 . S
C971 C965 1.428 . S
C971 N970 1.351 . S
C971 C972 1.434 . S
C972 C963 1.429 . S
C972 N969 1.350 . S
C972 C971 1.434 . S
C973 C974 1.369 . S
C973 C975 1.419 . S
C973 H977 0.930 . S
C974 C973 1.369 . S
C974 C983 1.429 . S
C975 C973 1.419 . S
C975 C976 1.363 . S
C975 H978 0.929 . S
C976 C975 1.363 . S
C976 C982 1.428 . S
H977 C973 0.930 . S
H978 C975 0.929 . S
S979 N980 1.613 . S
S979 N981 1.610 . S
N980 S979 1.613 . S
N980 C983 1.350 . S
N981 S979 1.610 . S
N981 C982 1.351 . S
C982 C976 1.428 . S
C982 N981 1.351 . S
C982 C983 1.434 . S
C983 C974 1.429 . S
C983 N980 1.350 . S
C983 C982 1.434 . S
C984 C985 1.369 . S
C984 C986 1.419 . S
C984 H988 0.930 . S
C985 C984 1.369 . S
C985 C994 1.429 . S
C986 C984 1.419 . S
C986 C987 1.363 . S
C986 H989 0.929 . S
C987 C986 1.363 . S
C987 C993 1.428 . S
H988 C984 0.930 . S
H989 C986 0.929 . S
S990 N991 1.613 . S
S990 N992 1.610 . S
N991 S990 1.613 . S
N991 C994 1.350 . S
N992 S990 1.610 . S
N992 C993 1.351 . S
C993 C987 1.428 . S
C993 N992 1.351 . S
C993 C994 1.434 . S
C994 C985 1.429 . S
C994 N991 1.350 . S
C994 C993 1.434 . S
C995 C996 1.369 . S
C995 C997 1.419 . S
C995 H999 0.930 . S
C996 C995 1.369 . S
C996 C1005 1.429 . S
C997 C995 1.419 . S
C997 C998 1.363 . S
C997 H1000 0.929 . S
C998 C997 1.363 . S
C998 C1004 1.428 . S
H999 C995 0.930 . S
H1000 C997 0.929 . S
S1001 N1002 1.613 . S
S1001 N1003 1.610 . S
N1002 S1001 1.613 . S
N1002 C1005 1.350 . S
N1003 S1001 1.610 . S
N1003 C1004 1.351 . S
C1004 C998 1.428 . S
C1004 N1003 1.351 . S
C1004 C1005 1.434 . S
C1005 C996 1.429 . S
C1005 N1002 1.350 . S
C1005 C1004 1.434 . S
C1006 C1007 1.369 . S
C1006 C1008 1.419 . S
C1006 H1010 0.930 . S
C1007 C1006 1.369 . S
C1007 C1016 1.429 . S
C1008 C1006 1.419 . S
C1008 C1009 1.363 . S
C1008 H1011 0.929 . S
C1009 C1008 1.363 . S
C1009 C1015 1.428 . S
H1010 C1006 0.930 . S
H1011 C1008 0.929 . S
S1012 N1013 1.604 1_565 S
S1012 N1014 1.610 1_565 S
N1013 S1012 1.604 1_545 S
N1013 C1016 1.350 . S
N1014 S1012 1.610 1_545 S
N1014 C1015 1.351 . S
C1015 C1009 1.428 . S
C1015 N1014 1.351 . S
C1015 C1016 1.434 . S
C1016 C1007 1.429 . S
C1016 N1013 1.350 . S
C1016 C1015 1.434 . S
C1017 C1018 1.369 . S
C1017 C1019 1.419 . S
C1017 H1021 0.930 . S
C1018 C1017 1.369 . S
C1018 C1027 1.429 . S
C1019 C1017 1.419 . S
C1019 C1020 1.363 . S
C1019 H1022 0.929 . S
C1020 C1019 1.363 . S
C1020 C1026 1.428 . S
H1021 C1017 0.930 . S
H1022 C1019 0.929 . S
S1023 N1024 1.613 . S
S1023 N1025 1.610 . S
N1024 S1023 1.613 . S
N1024 C1027 1.350 . S
N1025 S1023 1.610 . S
N1025 C1026 1.351 . S
C1026 C1020 1.428 . S
C1026 N1025 1.351 . S
C1026 C1027 1.434 . S
C1027 C1018 1.429 . S
C1027 N1024 1.350 . S
C1027 C1026 1.434 . S
C1028 C1029 1.369 . S
C1028 C1030 1.419 . S
C1028 H1032 0.930 . S
C1029 C1028 1.369 . S
C1029 C1038 1.429 . S
C1030 C1028 1.419 . S
C1030 C1031 1.363 . S
C1030 H1033 0.929 . S
C1031 C1030 1.363 . S
C1031 C1037 1.428 . S
H1032 C1028 0.930 . S
H1033 C1030 0.929 . S
S1034 N1035 1.613 . S
S1034 N1036 1.610 1_556 S
N1035 S1034 1.613 . S
N1035 C1038 1.350 . S
N1036 S1034 1.610 1_554 S
N1036 C1037 1.351 1_554 S
C1037 C1031 1.428 . S
C1037 N1036 1.351 1_556 S
C1037 C1038 1.434 . S
C1038 C1029 1.429 . S
C1038 N1035 1.350 . S
C1038 C1037 1.434 . S
C1039 C1040 1.369 . S
C1039 C1041 1.419 . S
C1039 H1043 0.930 . S
C1040 C1039 1.369 . S
C1040 C1049 1.429 . S
C1041 C1039 1.419 . S
C1041 C1042 1.363 . S
C1041 H1044 0.929 . S
C1042 C1041 1.363 . S
C1042 C1048 1.428 . S
H1043 C1039 0.930 . S
H1044 C1041 0.929 . S
S1045 N1046 1.613 . S
S1045 N1047 1.610 . S
N1046 S1045 1.613 . S
N1046 C1049 1.350 . S
N1047 S1045 1.610 . S
N1047 C1048 1.351 . S
C1048 C1042 1.428 . S
C1048 N1047 1.351 . S
C1048 C1049 1.434 . S
C1049 C1040 1.429 . S
C1049 N1046 1.350 . S
C1049 C1048 1.434 . S
C1050 C1051 1.369 . S
C1050 C1052 1.419 . S
C1050 H1054 0.930 . S
C1051 C1050 1.369 . S
C1051 C1060 1.429 . S
C1052 C1050 1.419 . S
C1052 C1053 1.363 . S
C1052 H1055 0.929 . S
C1053 C1052 1.363 . S
C1053 C1059 1.428 . S
H1054 C1050 0.930 . S
H1055 C1052 0.929 . S
S1056 N1057 1.613 . S
S1056 N1058 1.610 . S
N1057 S1056 1.613 . S
N1057 C1060 1.350 . S
N1058 S1056 1.610 . S
N1058 C1059 1.351 . S
C1059 C1053 1.428 . S
C1059 N1058 1.351 . S
C1059 C1060 1.434 . S
C1060 C1051 1.429 . S
C1060 N1057 1.350 . S
C1060 C1059 1.434 . S
C1061 C1062 1.369 . S
C1061 C1063 1.419 . S
C1061 H1065 0.930 . S
C1062 C1061 1.369 . S
C1062 C1071 1.429 . S
C1063 C1061 1.419 . S
C1063 C1064 1.363 . S
C1063 H1066 0.929 . S
C1064 C1063 1.363 . S
C1064 C1070 1.428 . S
H1065 C1061 0.930 . S
H1066 C1063 0.929 . S
S1067 N1068 1.613 . S
S1067 N1069 1.610 . S
N1068 S1067 1.613 . S
N1068 C1071 1.350 . S
N1069 S1067 1.610 . S
N1069 C1070 1.351 . S
C1070 C1064 1.428 . S
C1070 N1069 1.351 . S
C1070 C1071 1.434 . S
C1071 C1062 1.429 . S
C1071 N1068 1.350 . S
C1071 C1070 1.434 . S
C1072 C1073 1.369 . S
C1072 C1074 1.419 . S
C1072 H1076 0.930 . S
C1073 C1072 1.369 . S
C1073 C1082 1.429 . S
C1074 C1072 1.419 . S
C1074 C1075 1.363 . S
C1074 H1077 0.929 . S
C1075 C1074 1.363 . S
C1075 C1081 1.428 . S
H1076 C1072 0.930 . S
H1077 C1074 0.929 . S
S1078 N1079 1.613 . S
S1078 N1080 1.610 . S
N1079 S1078 1.613 . S
N1079 C1082 1.350 . S
N1080 S1078 1.610 . S
N1080 C1081 1.351 . S
C1081 C1075 1.428 . S
C1081 N1080 1.351 . S
C1081 C1082 1.434 . S
C1082 C1073 1.429 . S
C1082 N1079 1.350 . S
C1082 C1081 1.434 . S
C1083 C1084 1.369 . S
C1083 C1085 1.419 . S
C1083 H1087 0.930 . S
C1084 C1083 1.369 . S
C1084 C1093 1.429 . S
C1085 C1083 1.419 . S
C1085 C1086 1.363 . S
C1085 H1088 0.929 . S
C1086 C1085 1.363 . S
C1086 C1092 1.428 . S
H1087 C1083 0.930 . S
H1088 C1085 0.929 . S
S1089 N1090 1.613 . S
S1089 N1091 1.610 . S
N1090 S1089 1.613 . S
N1090 C1093 1.350 . S
N1091 S1089 1.610 . S
N1091 C1092 1.351 . S
C1092 C1086 1.428 . S
C1092 N1091 1.351 . S
C1092 C1093 1.434 . S
C1093 C1084 1.429 . S
C1093 N1090 1.350 . S
C1093 C1092 1.434 . S
C1094 C1095 1.369 . S
C1094 C1096 1.419 . S
C1094 H1098 0.930 . S
C1095 C1094 1.369 . S
C1095 C1104 1.429 . S
C1096 C1094 1.419 . S
C1096 C1097 1.363 . S
C1096 H1099 0.929 . S
C1097 C1096 1.363 . S
C1097 C1103 1.428 . S
H1098 C1094 0.930 . S
H1099 C1096 0.929 . S
S1100 N1101 1.613 . S
S1100 N1102 1.610 . S
N1101 S1100 1.613 . S
N1101 C1104 1.350 . S
N1102 S1100 1.610 . S
N1102 C1103 1.351 . S
C1103 C1097 1.428 . S
C1103 N1102 1.351 . S
C1103 C1104 1.434 . S
C1104 C1095 1.429 . S
C1104 N1101 1.350 . S
C1104 C1103 1.434 . S
C1105 C1106 1.369 . S
C1105 C1107 1.419 . S
C1105 H1109 0.930 . S
C1106 C1105 1.369 . S
C1106 C1115 1.429 . S
C1107 C1105 1.419 . S
C1107 C1108 1.363 . S
C1107 H1110 0.929 . S
C1108 C1107 1.363 . S
C1108 C1114 1.428 . S
H1109 C1105 0.930 . S
H1110 C1107 0.929 . S
S1111 N1112 1.613 . S
S1111 N1113 1.610 . S
N1112 S1111 1.613 . S
N1112 C1115 1.350 . S
N1113 S1111 1.610 . S
N1113 C1114 1.351 . S
C1114 C1108 1.428 . S
C1114 N1113 1.351 . S
C1114 C1115 1.434 . S
C1115 C1106 1.429 . S
C1115 N1112 1.350 . S
C1115 C1114 1.434 . S
C1116 C1117 1.369 . S
C1116 C1118 1.419 . S
C1116 H1120 0.930 . S
C1117 C1116 1.369 . S
C1117 C1126 1.429 . S
C1118 C1116 1.419 . S
C1118 C1119 1.363 . S
C1118 H1121 0.929 . S
C1119 C1118 1.363 . S
C1119 C1125 1.428 . S
H1120 C1116 0.930 . S
H1121 C1118 0.929 . S
S1122 N1123 1.613 . S
S1122 N1124 1.610 . S
N1123 S1122 1.613 . S
N1123 C1126 1.350 . S
N1124 S1122 1.610 . S
N1124 C1125 1.351 . S
C1125 C1119 1.428 . S
C1125 N1124 1.351 . S
C1125 C1126 1.434 . S
C1126 C1117 1.429 . S
C1126 N1123 1.350 . S
C1126 C1125 1.434 . S
C1127 C1128 1.369 . S
C1127 C1129 1.419 . S
C1127 H1131 0.930 . S
C1128 C1127 1.369 . S
C1128 C1137 1.429 . S
C1129 C1127 1.419 . S
C1129 C1130 1.363 . S
C1129 H1132 0.929 . S
C1130 C1129 1.363 . S
C1130 C1136 1.428 . S
H1131 C1127 0.930 . S
H1132 C1129 0.929 . S
S1133 N1134 1.613 . S
S1133 N1135 1.610 . S
N1134 S1133 1.613 . S
N1134 C1137 1.350 . S
N1135 S1133 1.610 . S
N1135 C1136 1.351 . S
C1136 C1130 1.428 . S
C1136 N1135 1.351 . S
C1136 C1137 1.434 . S
C1137 C1128 1.429 . S
C1137 N1134 1.350 . S
C1137 C1136 1.434 . S
C1138 C1139 1.369 . S
C1138 C1140 1.419 . S
C1138 H1142 0.930 . S
C1139 C1138 1.369 . S
C1139 C1148 1.429 . S
C1140 C1138 1.419 . S
C1140 C1141 1.363 . S
C1140 H1143 0.929 . S
C1141 C1140 1.363 . S
C1141 C1147 1.428 . S
H1142 C1138 0.930 . S
H1143 C1140 0.929 . S
S1144 N1145 1.613 . S
S1144 N1146 1.610 . S
N1145 S1144 1.613 . S
N1145 C1148 1.350 . S
N1146 S1144 1.610 . S
N1146 C1147 1.351 . S
C1147 C1141 1.428 . S
C1147 N1146 1.351 . S
C1147 C1148 1.434 . S
C1148 C1139 1.429 . S
C1148 N1145 1.350 . S
C1148 C1147 1.434 . S
C1149 C1150 1.369 . S
C1149 C1151 1.419 . S
C1149 H1153 0.930 . S
C1150 C1149 1.369 . S
C1150 C1159 1.429 . S
C1151 C1149 1.419 . S
C1151 C1152 1.363 . S
C1151 H1154 0.929 . S
C1152 C1151 1.363 . S
C1152 C1158 1.428 . S
H1153 C1149 0.930 . S
H1154 C1151 0.929 . S
S1155 N1156 1.613 . S
S1155 N1157 1.610 . S
N1156 S1155 1.613 . S
N1156 C1159 1.350 . S
N1157 S1155 1.610 . S
N1157 C1158 1.351 . S
C1158 C1152 1.428 . S
C1158 N1157 1.351 . S
C1158 C1159 1.434 . S
C1159 C1150 1.429 . S
C1159 N1156 1.350 . S
C1159 C1158 1.434 . S
C545 C153 1.933 . S
C547 C17 1.942 . S
C556 C51 1.853 . S
C558 C187 1.855 . S
C567 C221 1.890 . S
C569 C85 1.899 . S
C578 C255 1.848 . S
C580 C119 1.859 . S
C589 C357 1.858 . S
C591 C289 1.851 . S
C600 C323 1.858 . S
C602 C391 1.851 . S
C611 C493 1.890 . S
C613 C425 1.898 . S
C622 C459 1.942 . S
C624 C527 1.935 . S
C633 C105 1.605 . S
C635 C15 1.587 . S
C644 C3 1.581 . S
C646 C56 1.569 . S
C655 C35 1.556 . S
C657 C83 1.549 . S
C666 C117 1.513 1_556 S
C668 C71 1.529 . S
C677 C171 1.610 . S
C679 C151 1.591 . S
C688 C207 1.525 . S
C690 C192 1.518 1_554 S
C699 C241 1.564 . S
C701 C219 1.549 . S
C710 C139 1.581 . S
C712 C253 1.577 . S
C721 C142 2.242 . S
C723 C307 2.107 . S
C732 C300 2.240 . S
C734 C137 2.096 1_545 S
C743 C210 2.215 . S
C745 C275 2.072 . S
C754 C312 2.189 1_554 S
C756 C205 2.046 1_565 S
C765 C343 2.110 . S
C767 C6 2.246 . S
C776 C69 2.048 1_545 S
C778 C368 2.190 1_556 S
C787 C375 2.071 . S
C789 C74 2.212 . S
C798 C1 2.095 1_565 S
C800 C380 2.242 . S
C809 C377 1.554 . S
C811 C423 1.543 . S
C820 C411 1.532 . S
C822 C362 1.518 1_556 S
C831 C457 1.587 . S
C833 C341 1.608 . S
C842 C389 1.569 . S
C844 C445 1.579 . S
C853 C498 1.552 . S
C855 C273 1.561 . S
C864 C511 1.577 . S
C866 C294 1.572 . S
C875 C309 1.609 . S
C877 C532 1.590 . S
C886 C477 1.522 . S
C888 C321 1.515 1_554 S
C897 C239 2.072 . S
C899 C504 2.215 . S
C908 C479 2.048 . S
C910 C198 2.190 1_554 S
C919 C538 2.245 . S
C921 C173 2.110 . S
C930 C244 2.238 . S
C932 C513 2.091 . S
C941 C37 2.068 . S
C943 C414 2.211 . S
C952 C62 2.239 . S
C954 C443 2.095 . S
C963 C448 2.248 . S
C965 C103 2.107 . S
C974 C409 2.039 . S
C976 C108 2.190 1_556 S
C985 C176 1.620 . S
C987 C28 1.618 . S
C996 C232 1.646 . S
C998 C40 1.649 . S
C1007 C266 1.651 . S
C1009 C96 1.650 . S
C1018 C130 1.618 . S
C1020 C164 1.619 . S
C1029 C158 0.611 . S
C1031 C355 0.626 . S
C1040 C287 0.624 . S
C1042 C90 0.623 . S
C1051 C396 0.650 . S
C1053 C226 0.640 . S
C1062 C22 0.631 . S
C1064 C328 0.612 . S
C1073 C436 1.651 . S
C1075 C278 1.649 . S
C1084 C346 1.617 . S
C1086 C516 1.616 . S
C1095 C470 1.616 . S
C1097 C334 1.620 . S
C1106 C482 1.651 . S
C1108 C402 1.647 . S
C1117 C49 0.649 . S
C1119 C491 0.642 . S
C1128 C464 0.611 . S
C1130 C185 0.603 . S
C1139 C124 0.617 . S
C1141 C525 0.630 . S
C1150 C260 0.641 . S
C1152 C430 0.646 . S
