# Generated by pormake.
# Topology soe, (5)-cn, num edge types: 1
# Building blocks:
#     Node 0, Type 0, BuildingBlock: XOMCOT_clean_sbu_1, # of connection points: 5
#     Node 1, Type 0, BuildingBlock: XOMCOT_clean_sbu_1, # of connection points: 5
#     Node 2, Type 0, BuildingBlock: XOMCOT_clean_sbu_1, # of connection points: 5
#     Node 3, Type 0, BuildingBlock: XOMCOT_clean_sbu_1, # of connection points: 5
#     Node 4, Type 0, BuildingBlock: XOMCOT_clean_sbu_1, # of connection points: 5
#     Node 5, Type 0, BuildingBlock: XOMCOT_clean_sbu_1, # of connection points: 5
#     Node 6, Type 0, BuildingBlock: XOMCOT_clean_sbu_1, # of connection points: 5
#     Node 7, Type 0, BuildingBlock: XOMCOT_clean_sbu_1, # of connection points: 5
#     Edge 8, Type (0, 0), BuildingBlock: TEMPAE_clean_linker_10, # of connection points: 2
#     Edge 9, Type (0, 0), BuildingBlock: TEMPAE_clean_linker_10, # of connection points: 2
#     Edge 10, Type (0, 0), BuildingBlock: TEMPAE_clean_linker_10, # of connection points: 2
#     Edge 11, Type (0, 0), BuildingBlock: TEMPAE_clean_linker_10, # of connection points: 2
#     Edge 12, Type (0, 0), BuildingBlock: TEMPAE_clean_linker_10, # of connection points: 2
#     Edge 13, Type (0, 0), BuildingBlock: TEMPAE_clean_linker_10, # of connection points: 2
#     Edge 14, Type (0, 0), BuildingBlock: TEMPAE_clean_linker_10, # of connection points: 2
#     Edge 15, Type (0, 0), BuildingBlock: TEMPAE_clean_linker_10, # of connection points: 2
#     Edge 16, Type (0, 0), BuildingBlock: TEMPAE_clean_linker_10, # of connection points: 2
#     Edge 17, Type (0, 0), BuildingBlock: TEMPAE_clean_linker_10, # of connection points: 2
#     Edge 18, Type (0, 0), BuildingBlock: TEMPAE_clean_linker_10, # of connection points: 2
#     Edge 19, Type (0, 0), BuildingBlock: TEMPAE_clean_linker_10, # of connection points: 2
#     Edge 20, Type (0, 0), BuildingBlock: TEMPAE_clean_linker_10, # of connection points: 2
#     Edge 21, Type (0, 0), BuildingBlock: TEMPAE_clean_linker_10, # of connection points: 2
#     Edge 22, Type (0, 0), BuildingBlock: TEMPAE_clean_linker_10, # of connection points: 2
#     Edge 23, Type (0, 0), BuildingBlock: TEMPAE_clean_linker_10, # of connection points: 2
#     Edge 24, Type (0, 0), BuildingBlock: TEMPAE_clean_linker_10, # of connection points: 2
#     Edge 25, Type (0, 0), BuildingBlock: TEMPAE_clean_linker_10, # of connection points: 2
#     Edge 26, Type (0, 0), BuildingBlock: TEMPAE_clean_linker_10, # of connection points: 2
#     Edge 27, Type (0, 0), BuildingBlock: TEMPAE_clean_linker_10, # of connection points: 2
# Relax obj value: 0.049
# Max RMSD: 0.083
# Mean RMSD: 0.083
data_MOF--net-soe--node1-XOMCOT_clean_sbu_1--edge1-TEMPAE_clean_linker_10
_symmetry_space_group_name_H-M    P1
_symmetry_Int_Tables_number       1
_symmetry_cell_setting            triclinic
loop_
_symmetry_equiv_pos_as_xyz
'x, y, z'
_cell_length_a     56.293589
_cell_length_b     47.181958
_cell_length_c     17.671822
_cell_angle_alpha  89.885819
_cell_angle_beta   89.927258
_cell_angle_gamma 90.012394
loop_
_atom_site_label
_atom_site_type_symbol
_atom_site_fract_x
_atom_site_fract_y
_atom_site_fract_z
_atom_type_partial_charge
C0 C 0.13723 0.13745 0.04068 0.0
C1 C 0.13918 0.14242 0.96421 0.0
N2 N 0.11973 0.13191 0.92976 0.0
N3 N 0.11669 0.12373 0.05483 0.0
C4 C 0.10625 0.12101 0.98623 0.0
H5 H 0.15033 0.14265 0.08317 0.0
Co6 Co 0.10742 0.11029 0.15067 0.0
C7 C 0.0823 0.05823 0.08975 0.0
O8 O 0.09909 0.04122 0.11412 0.0
N9 N 0.09776 0.09796 0.24843 0.0
C10 C 0.0832 0.07451 0.34771 0.0
C11 C 0.0854 0.07478 0.27036 0.0
C12 C 0.10231 0.11176 0.31416 0.0
N13 N 0.09399 0.09768 0.37549 0.0
O14 O 0.0844 0.14045 0.15679 0.0
H15 H 0.07825 0.05874 0.23386 0.0
H16 H 0.11251 0.13116 0.31713 0.0
O17 O 0.08357 0.08493 0.10269 0.0
C18 C 0.09535 0.16302 0.17596 0.0
O19 O 0.11832 0.16165 0.18835 0.0
N20 N 0.13263 0.08285 0.1472 0.0
C21 C 0.17738 0.05617 0.14082 0.0
C22 C 0.16253 0.05717 0.07699 0.0
C23 C 0.1403 0.07052 0.08136 0.0
C24 C 0.14673 0.08141 0.20993 0.0
C25 C 0.16862 0.06759 0.20856 0.0
H26 H 0.12975 0.07202 0.0305 0.0
H27 H 0.14204 0.09246 0.26092 0.0
H28 H 0.08962 0.11002 0.97727 0.0
H29 H 0.154 0.15261 0.93613 0.0
H30 H 0.07429 0.05839 0.38094 0.0
H31 H 0.1684 0.04902 0.0229 0.0
H32 H 0.17896 0.06694 0.26014 0.0
C33 C 0.38353 0.89354 0.08567 0.0
C34 C 0.38128 0.88899 1.00909 0.0
N35 N 0.40078 0.89929 0.97423 0.0
N36 N 0.40427 0.90685 0.09933 0.0
C37 C 0.4146 0.90958 0.03039 0.0
H38 H 0.37035 0.88875 0.12838 0.0
Co39 Co 0.41305 0.92142 0.19422 0.0
C40 C 0.44039 0.97161 0.1343 0.0
O41 O 0.42493 0.98929 0.16382 0.0
N42 N 0.42217 0.93494 0.29196 0.0
C43 C 0.43963 0.95596 0.39044 0.0
C44 C 0.43806 0.95499 0.31286 0.0
C45 C 0.41501 0.92349 0.3588 0.0
N46 N 0.42512 0.93608 0.41935 0.0
O47 O 0.43483 0.89021 0.20703 0.0
H48 H 0.4488 0.96763 0.27548 0.0
H49 H 0.40224 0.90646 0.36325 0.0
O50 O 0.43802 0.94486 0.14492 0.0
C51 C 0.42272 0.87035 0.2376 0.0
O52 O 0.39994 0.87471 0.24897 0.0
N53 N 0.38896 0.9499 0.18416 0.0
C54 C 0.34497 0.97749 0.16565 0.0
C55 C 0.36146 0.97612 0.10595 0.0
C56 C 0.38329 0.96234 0.11638 0.0
C57 C 0.37336 0.95187 0.24311 0.0
C58 C 0.35179 0.96615 0.23579 0.0
H59 H 0.39507 0.96042 0.0684 0.0
H60 H 0.37657 0.94079 0.29527 0.0
H61 H 0.43117 0.92063 0.02071 0.0
H62 H 0.36612 0.8796 0.98107 0.0
H63 H 0.45118 0.96962 0.423 0.0
H64 H 0.35714 0.98421 0.0503 0.0
H65 H 0.34014 0.9671 0.28448 0.0
C66 C 0.14067 0.38185 0.47958 0.0
C67 C 0.14059 0.3771 0.55627 0.0
N68 N 0.12059 0.38834 0.58538 0.0
N69 N 0.12085 0.39611 0.45996 0.0
C70 C 0.10881 0.39955 0.52571 0.0
H71 H 0.15477 0.37623 0.44081 0.0
Co72 Co 0.11571 0.40989 0.3619 0.0
C73 C 0.0848 0.46154 0.39048 0.0
O74 O 0.09823 0.47787 0.3484 0.0
N75 N 0.11114 0.42353 0.26029 0.0
C76 C 0.11477 0.44935 0.15491 0.0
C77 C 0.11939 0.44815 0.23069 0.0
C78 C 0.1019 0.4099 0.19922 0.0
N79 N 0.10379 0.42528 0.13456 0.0
O80 O 0.09266 0.38022 0.34538 0.0
H81 H 0.12942 0.46405 0.26071 0.0
H82 H 0.09454 0.38876 0.20127 0.0
O83 O 0.09032 0.43544 0.40049 0.0
C84 C 0.10421 0.35768 0.32972 0.0
O85 O 0.12744 0.35935 0.32395 0.0
N86 N 0.14048 0.4358 0.3775 0.0
C87 C 0.18325 0.46536 0.39165 0.0
C88 C 0.16364 0.4721 0.4378 0.0
C89 C 0.14233 0.45678 0.43032 0.0
C90 C 0.15973 0.4281 0.33555 0.0
C91 C 0.18106 0.4428 0.34075 0.0
H92 H 0.12764 0.46135 0.46775 0.0
H93 H 0.1584 0.41028 0.29734 0.0
H94 H 0.09238 0.4112 0.5306 0.0
H95 H 0.15448 0.3668 0.58846 0.0
H96 H 0.12053 0.46599 0.11683 0.0
H97 H 0.16477 0.48899 0.47903 0.0
H98 H 0.19592 0.43616 0.30601 0.0
C99 C 0.38147 0.64088 0.46676 0.0
C100 C 0.37805 0.64285 0.54376 0.0
N101 N 0.39534 0.62798 0.57854 0.0
N102 N 0.40085 0.62493 0.45309 0.0
C103 C 0.40896 0.61752 0.52221 0.0
H104 H 0.37028 0.64996 0.42333 0.0
Co105 Co 0.41154 0.61467 0.35755 0.0
C106 C 0.44386 0.56565 0.38325 0.0
O107 O 0.43401 0.55273 0.32538 0.0
N108 N 0.4226 0.60528 0.25946 0.0
C109 C 0.44843 0.60284 0.16407 0.0
C110 C 0.44591 0.6044 0.24107 0.0
C111 C 0.41133 0.60488 0.19172 0.0
N112 N 0.42666 0.60342 0.13286 0.0
O113 O 0.43236 0.64722 0.35608 0.0
H114 H 0.46035 0.6065 0.28098 0.0
H115 H 0.39249 0.60804 0.18467 0.0
O116 O 0.43648 0.59027 0.40296 0.0
C117 C 0.42144 0.66612 0.31769 0.0
O118 O 0.40022 0.65984 0.29165 0.0
N119 N 0.38867 0.58551 0.35756 0.0
C120 C 0.34559 0.55643 0.37485 0.0
C121 C 0.36586 0.54804 0.41539 0.0
C122 C 0.38717 0.56325 0.40713 0.0
C123 C 0.36912 0.59368 0.31775 0.0
C124 C 0.34765 0.57921 0.32431 0.0
H125 H 0.40164 0.5584 0.44493 0.0
H126 H 0.36954 0.61309 0.28539 0.0
H127 H 0.42454 0.60466 0.53139 0.0
H128 H 0.36358 0.65372 0.57176 0.0
H129 H 0.46508 0.60257 0.13339 0.0
H130 H 0.36486 0.5311 0.45672 0.0
H131 H 0.33247 0.58665 0.29234 0.0
C132 C 0.87519 0.89298 0.94486 0.0
C133 C 0.87229 0.89139 0.02205 0.0
N134 N 0.89298 0.89872 0.05469 0.0
N135 N 0.89747 0.90175 0.9292 0.0
C136 C 0.90802 0.90466 0.99735 0.0
H137 H 0.86168 0.88897 0.90277 0.0
Co138 Co 0.90853 0.9107 0.8331 0.0
C139 C 0.93972 0.96073 0.85644 0.0
O140 O 0.9289 0.97305 0.79928 0.0
N141 N 0.92 0.91877 0.73444 0.0
C142 C 0.9456 0.92445 0.63897 0.0
C143 C 0.94317 0.92243 0.71613 0.0
C144 C 0.90896 0.91704 0.66654 0.0
N145 N 0.92406 0.92089 0.60811 0.0
O146 O 0.92925 0.87817 0.83564 0.0
H147 H 0.95769 0.9223 0.7561 0.0
H148 H 0.89052 0.91166 0.65882 0.0
O149 O 0.9333 0.9358 0.87722 0.0
C150 C 0.91725 0.85845 0.80429 0.0
O151 O 0.89564 0.86461 0.78138 0.0
N152 N 0.88565 0.94007 0.82913 0.0
C153 C 0.84333 0.97128 0.83684 0.0
C154 C 0.86269 0.97805 0.88356 0.0
C155 C 0.88361 0.96192 0.8796 0.0
C156 C 0.86667 0.93284 0.78542 0.0
C157 C 0.84569 0.94848 0.78687 0.0
H158 H 0.89737 0.96584 0.92075 0.0
H159 H 0.86686 0.91321 0.75445 0.0
H160 H 0.92601 0.91215 1.00517 0.0
H161 H 0.85618 0.88573 0.05198 0.0
H162 H 0.96207 0.92658 0.60773 0.0
H163 H 0.86139 0.995 0.92459 0.0
H164 H 0.83083 0.94149 0.75276 0.0
C165 C 0.64277 0.13783 0.95356 0.0
C166 C 0.64594 0.13973 0.03067 0.0
N167 N 0.62785 0.12605 0.06494 0.0
N168 N 0.62279 0.12307 0.93937 0.0
C169 C 0.61403 0.11634 1.00826 0.0
H170 H 0.65448 0.14625 0.91045 0.0
Co171 Co 0.61167 0.11366 0.84375 0.0
C172 C 0.58007 0.06379 0.86826 0.0
O173 O 0.58966 0.05155 0.80885 0.0
N174 N 0.60011 0.10505 0.74584 0.0
C175 C 0.57385 0.10293 0.65176 0.0
C176 C 0.57671 0.10436 0.7287 0.0
C177 C 0.61108 0.10455 0.67754 0.0
N178 N 0.5955 0.10326 0.6195 0.0
O179 O 0.59049 0.14582 0.84631 0.0
H180 H 0.56248 0.10632 0.76952 0.0
H181 H 0.62992 0.10732 0.66942 0.0
O182 O 0.58737 0.08831 0.889 0.0
C183 C 0.60139 0.16523 0.80961 0.0
O184 O 0.62258 0.15926 0.78266 0.0
N185 N 0.63496 0.08507 0.83954 0.0
C186 C 0.6787 0.05691 0.84828 0.0
C187 C 0.65902 0.04731 0.8902 0.0
C188 C 0.63735 0.06207 0.8862 0.0
C189 C 0.65396 0.09446 0.7988 0.0
C190 C 0.67568 0.08044 0.80088 0.0
H191 H 0.62328 0.05618 0.9247 0.0
H192 H 0.65287 0.11439 0.76892 0.0
H193 H 0.59776 0.10469 0.01704 0.0
H194 H 0.66071 0.1498 0.05913 0.0
H195 H 0.55709 0.10278 0.62184 0.0
H196 H 0.66076 0.02972 0.92924 0.0
H197 H 0.69032 0.08881 0.76786 0.0
C198 C 0.88582 0.63334 0.58289 0.0
C199 C 0.88382 0.63822 0.50635 0.0
N200 N 0.90271 0.62653 0.47138 0.0
N201 N 0.90581 0.61848 0.59647 0.0
C202 C 0.91596 0.61509 0.52751 0.0
H203 H 0.87297 0.63912 0.6257 0.0
Co204 Co 0.91389 0.60352 0.69157 0.0
C205 C 0.94019 0.55243 0.6306 0.0
O206 O 0.92386 0.53492 0.65581 0.0
N207 N 0.92225 0.58954 0.78957 0.0
C208 C 0.93763 0.56648 0.8885 0.0
C209 C 0.93617 0.56755 0.81091 0.0
C210 C 0.916 0.6018 0.85614 0.0
N211 N 0.92494 0.58809 0.91696 0.0
O212 O 0.9366 0.63375 0.70431 0.0
H213 H 0.94544 0.55331 0.77384 0.0
H214 H 0.90458 0.62014 0.86031 0.0
O215 O 0.93844 0.5791 0.64354 0.0
C216 C 0.92554 0.65451 0.7344 0.0
O217 O 0.90266 0.65181 0.74729 0.0
N218 N 0.88903 0.5761 0.68129 0.0
C219 C 0.84523 0.54874 0.6639 0.0
C220 C 0.86138 0.54996 0.60379 0.0
C221 C 0.88322 0.56372 0.6136 0.0
C222 C 0.87325 0.57487 0.74005 0.0
C223 C 0.85153 0.56083 0.73305 0.0
H224 H 0.89502 0.56535 0.56561 0.0
H225 H 0.87649 0.58641 0.79145 0.0
H226 H 0.93192 0.60286 0.51784 0.0
H227 H 0.86922 0.64888 0.47848 0.0
H228 H 0.94777 0.55137 0.92139 0.0
H229 H 0.85685 0.54116 0.5491 0.0
H230 H 0.83914 0.56091 0.78002 0.0
C231 C 0.63943 0.39442 0.59846 0.0
C232 C 0.64197 0.39023 0.52181 0.0
N233 N 0.62246 0.40032 0.48685 0.0
N234 N 0.6185 0.40734 0.61195 0.0
C235 C 0.60836 0.41022 0.54289 0.0
H236 H 0.6525 0.38963 0.64142 0.0
Co237 Co 0.6094 0.42136 0.70685 0.0
C238 C 0.58171 0.47194 0.65323 0.0
O239 O 0.59616 0.48905 0.68948 0.0
N240 N 0.60003 0.43434 0.80485 0.0
C241 C 0.58053 0.45257 0.90364 0.0
C242 C 0.58186 0.4514 0.82604 0.0
C243 C 0.60865 0.42445 0.87161 0.0
N244 N 0.59737 0.43551 0.93224 0.0
O245 O 0.58762 0.39011 0.71808 0.0
H246 H 0.56918 0.46126 0.78885 0.0
H247 H 0.62285 0.40911 0.87598 0.0
O248 O 0.5846 0.44503 0.65793 0.0
C249 C 0.5993 0.3703 0.75031 0.0
O250 O 0.62189 0.37471 0.76478 0.0
N251 N 0.63331 0.44992 0.69775 0.0
C252 C 0.6761 0.47966 0.67867 0.0
C253 C 0.65899 0.47926 0.62107 0.0
C254 C 0.63776 0.46422 0.6316 0.0
C255 C 0.64992 0.45024 0.75397 0.0
C256 C 0.67108 0.46539 0.74631 0.0
H257 H 0.62541 0.46301 0.58499 0.0
H258 H 0.64785 0.43709 0.8032 0.0
H259 H 0.59169 0.42102 0.5331 0.0
H260 H 0.6573 0.38119 0.49379 0.0
H261 H 0.56742 0.46398 0.9365 0.0
H262 H 0.66229 0.48977 0.56753 0.0
H263 H 0.68412 0.46434 0.79127 0.0
C264 C 0.30112 0.97705 0.19458 0.0
C265 C 0.32034 0.98886 0.15443 0.0
C266 C 0.27802 0.98788 0.18754 0.0
C267 C 0.27359 1.01054 0.13695 0.0
C268 C 0.29258 0.02184 0.09367 0.0
C269 C 0.31574 1.01116 0.10361 0.0
C270 C 0.25842 0.97547 0.23583 0.0
C271 C 0.28849 0.04553 0.03765 0.0
C272 C 0.20832 0.02246 0.08824 0.0
C273 C 0.20228 0.04496 0.13661 0.0
C274 C 0.23168 1.01179 0.08528 0.0
C275 C 0.24935 0.02334 0.1332 0.0
C276 C 0.2435 0.04624 0.18127 0.0
C277 C 0.22028 0.05704 0.18136 0.0
C278 C 0.23735 0.98782 0.03176 0.0
C279 C 0.26165 0.05893 0.23429 0.0
H280 H 0.30403 0.95917 0.23193 0.0
H281 H 0.33027 0.02065 0.07233 0.0
H282 H 0.25073 0.99222 0.27247 0.0
H283 H 0.24389 0.96738 0.19947 0.0
H284 H 0.26477 0.95788 0.27244 0.0
H285 H 0.30452 0.05001 1.0029 0.0
H286 H 0.27357 0.04012 0.99935 0.0
H287 H 0.28347 0.06516 0.06816 0.0
H288 H 0.19474 1.01276 0.05352 0.0
H289 H 0.21631 0.07508 0.21697 0.0
H290 H 0.24141 0.96835 0.06449 0.0
H291 H 0.25334 0.99303 0.99768 0.0
H292 H 0.22239 0.98319 0.99274 0.0
H293 H 0.26821 0.04239 0.27384 0.0
H294 H 0.25428 0.07673 0.26803 0.0
H295 H 0.27718 0.0668 0.20183 0.0
C296 C 0.2182 0.48846 0.32939 0.0
C297 C 0.2062 0.48098 0.39618 0.0
C298 C 0.24085 0.50081 0.33131 0.0
C299 C 0.25193 0.50593 0.40185 0.0
C300 C 0.23972 0.49907 0.4697 0.0
C301 C 0.21695 0.48673 0.46608 0.0
C302 C 0.25306 0.50807 0.2576 0.0
C303 C 0.2509 0.50427 0.54598 0.0
C304 C 0.31929 0.51369 0.39266 0.0
C305 C 0.32191 0.54321 0.38854 0.0
C306 C 0.29667 0.50123 0.4 0.0
C307 C 0.2762 0.51871 0.40371 0.0
C308 C 0.27887 0.54853 0.40287 0.0
C309 C 0.30163 0.56037 0.39537 0.0
C310 C 0.29458 0.46934 0.40079 0.0
C311 C 0.2576 0.56797 0.40716 0.0
H312 H 0.20986 0.48443 0.27519 0.0
H313 H 0.20788 0.48077 0.51785 0.0
H314 H 0.25737 0.53101 0.25592 0.0
H315 H 0.27007 0.49631 0.25316 0.0
H316 H 0.24197 0.50287 0.20755 0.0
H317 H 0.23883 0.49857 0.59341 0.0
H318 H 0.26744 0.49164 0.55124 0.0
H319 H 0.25593 0.52691 0.55152 0.0
H320 H 0.33486 0.5003 0.38749 0.0
H321 H 0.30354 0.58323 0.39414 0.0
H322 H 0.28541 0.46215 0.3487 0.0
H323 H 0.28369 0.4623 0.4497 0.0
H324 H 0.3122 0.45878 0.40379 0.0
H325 H 0.24653 0.56532 0.35577 0.0
H326 H 0.2628 0.59062 0.41169 0.0
H327 H 0.24637 0.56237 0.4566 0.0
C328 C 0.72285 0.06177 0.86182 0.0
C329 C 0.70278 0.04413 0.85705 0.0
C330 C 0.7459 0.0505 0.86382 0.0
C331 C 0.74912 0.02078 0.86161 0.0
C332 C 0.72895 1.00277 0.8601 0.0
C333 C 0.706 0.01466 0.85791 0.0
C334 C 0.76685 0.07049 0.86585 0.0
C335 C 0.73163 0.97096 0.85824 0.0
C336 C 0.80703 0.99305 0.77883 0.0
C337 C 0.81999 0.98592 0.8439 0.0
C338 C 0.78404 1.00443 0.78396 0.0
C339 C 0.7736 1.00875 0.856 0.0
C340 C 0.78671 1.00202 0.92204 0.0
C341 C 0.80978 0.99077 0.91522 0.0
C342 C 0.77084 1.01165 0.71212 0.0
C343 C 0.77622 1.00624 0.99985 0.0
H344 H 0.72053 0.08456 0.8632 0.0
H345 H 0.69062 1.00091 0.85431 0.0
H346 H 0.77875 0.06505 0.91371 0.0
H347 H 0.77738 0.06829 0.81306 0.0
H348 H 0.76132 0.09299 0.8716 0.0
H349 H 0.71427 0.95988 0.8629 0.0
H350 H 0.74026 0.96454 0.80446 0.0
H351 H 0.74327 0.96377 0.90511 0.0
H352 H 0.81488 0.98954 0.72358 0.0
H353 H 0.81953 0.98491 0.96573 0.0
H354 H 0.76594 0.03443 0.71199 0.0
H355 H 0.75409 0.9993 0.70924 0.0
H356 H 0.78149 1.00715 0.66056 0.0
H357 H 0.77089 0.02869 1.00744 0.0
H358 H 0.78884 1.00041 0.04557 0.0
H359 H 0.75994 0.99317 1.00607 0.0
C360 C 0.80382 0.55411 0.61662 0.0
C361 C 0.82092 0.53756 0.65344 0.0
C362 C 0.77989 0.5456 0.61444 0.0
C363 C 0.77306 0.51972 0.64902 0.0
C364 C 0.79056 0.50244 0.68375 0.0
C365 C 0.81427 0.51177 0.68638 0.0
C366 C 0.76179 0.56486 0.578 0.0
C367 C 0.78413 0.47449 0.72007 0.0
C368 C 0.71018 0.50941 0.72333 0.0
C369 C 0.69995 0.49252 0.66688 0.0
C370 C 0.73369 0.51914 0.71694 0.0
C371 C 0.74747 0.51147 0.65304 0.0
C372 C 0.73703 0.49503 0.59488 0.0
C373 C 0.71335 0.4859 0.60228 0.0
C374 C 0.74395 0.53706 0.77961 0.0
C375 C 0.75117 0.48613 0.52629 0.0
H376 H 0.80905 0.57425 0.59205 0.0
H377 H 0.82758 0.49914 0.71521 0.0
H378 H 0.75127 0.55305 0.53543 0.0
H379 H 0.74918 0.57262 0.6216 0.0
H380 H 0.77015 0.58346 0.54997 0.0
H381 H 0.80005 0.46256 0.73921 0.0
H382 H 0.77246 0.47823 0.76968 0.0
H383 H 0.77406 0.46114 0.67963 0.0
H384 H 0.69984 0.5147 0.77312 0.0
H385 H 0.70562 0.47254 0.55896 0.0
H386 H 0.75156 0.55689 0.75596 0.0
H387 H 0.75862 0.52543 0.80777 0.0
H388 H 0.73047 0.54268 0.82301 0.0
H389 H 0.7592 0.50492 0.49844 0.0
H390 H 0.74013 0.47467 0.48422 0.0
H391 H 0.76597 0.47209 0.54406 0.0
C392 C 0.97229 0.99672 0.85323 0.0
C393 C 0.96 0.9755 0.89305 0.0
C394 C 0.99173 1.01093 0.88543 0.0
C395 C 0.99886 1.00428 0.96017 0.0
C396 C 0.98625 0.98323 1.00134 0.0
C397 C 0.96716 0.96884 0.96696 0.0
C398 C 1.00496 0.03266 0.83871 0.0
C399 C 0.99298 0.97586 0.08164 0.0
C400 C 0.0629 0.01943 0.0165 0.0
C401 C 0.06095 0.0455 0.05405 0.0
C402 C 0.04291 1.00596 0.98547 0.0
C403 C 0.02019 0.01847 0.99358 0.0
C404 C 0.01807 0.04482 0.0316 0.0
C405 C 0.03852 0.05821 0.06056 0.0
C406 C 0.04616 0.97834 0.94362 0.0
C407 C 0.99415 0.05864 0.04264 0.0
H408 H 0.96701 1.00188 0.79587 0.0
H409 H 0.95764 0.95264 0.99827 0.0
H410 H 1.00502 0.05341 0.8681 0.0
H411 H 0.02375 0.02606 0.83185 0.0
H412 H 0.99705 0.03558 0.78167 0.0
H413 H 0.98053 0.96034 0.10755 0.0
H414 H 0.01114 0.96678 0.08286 0.0
H415 H 0.99322 0.9953 0.11689 0.0
H416 H 0.08021 1.00957 1.0109 0.0
H417 H 0.03686 0.0782 0.09021 0.0
H418 H 0.03929 0.98041 0.88503 0.0
H419 H 0.0358 0.96132 0.97176 0.0
H420 H 0.06507 0.9717 0.94091 0.0
H421 H 0.98595 0.06327 0.98693 0.0
H422 H 0.99539 0.0787 0.07519 0.0
H423 H 0.98205 0.04392 0.07304 0.0
C424 C 0.45966 1.01011 0.05909 0.0
C425 C 0.46129 0.98339 0.09366 0.0
C426 C 0.4793 0.02251 0.02275 0.0
C427 C 0.5014 1.00819 0.02232 0.0
C428 C 0.5032 0.98116 0.0572 0.0
C429 C 0.48304 0.9689 0.09162 0.0
C430 C 0.47634 0.05096 0.98459 0.0
C431 C 0.52652 0.96541 0.05924 0.0
C432 C 0.54618 0.0295 0.87063 0.0
C433 C 0.56038 0.04927 0.90892 0.0
C434 C 0.52712 0.01582 0.90698 0.0
C435 C 0.52241 0.02147 0.98425 0.0
C436 C 0.53708 0.04089 0.02379 0.0
C437 C 0.55567 0.05484 0.9854 0.0
C438 C 0.51165 0.99585 0.86205 0.0
C439 C 0.53305 0.04708 0.1066 0.0
H440 H 0.44285 0.02134 0.05992 0.0
H441 H 0.48446 0.94835 0.11876 0.0
H442 H 0.48826 0.06677 1.01124 0.0
H443 H 0.48149 0.04942 0.9241 0.0
H444 H 0.4578 0.05893 0.98798 0.0
H445 H 0.52511 0.94486 0.08969 0.0
H446 H 0.53284 0.96131 1.00081 0.0
H447 H 0.5402 0.9786 0.08748 0.0
H448 H 0.54962 0.02519 0.81139 0.0
H449 H 0.5667 0.06983 0.01559 0.0
H450 H 0.49312 1.00388 0.86105 0.0
H451 H 0.51125 0.97467 0.88934 0.0
H452 H 0.5179 0.99336 0.80279 0.0
H453 H 0.51564 0.05769 0.11423 0.0
H454 H 0.54712 0.0609 0.13063 0.0
H455 H 0.53249 0.027 0.13939 0.0
C456 C 0.05467 0.46458 0.49581 0.0
C457 C 0.06325 0.47407 0.42571 0.0
C458 C 0.03505 0.47781 0.53066 0.0
C459 C 0.02332 0.50052 0.49347 0.0
C460 C 0.03167 0.50973 0.42192 0.0
C461 C 0.05167 0.49668 0.38955 0.0
C462 C 0.02708 0.46772 0.60772 0.0
C463 C 0.01934 0.53324 0.37912 0.0
C464 C 0.95917 0.51581 0.54891 0.0
C465 C 0.96144 0.54039 0.59281 0.0
C466 C 0.97908 0.50289 0.51558 0.0
C467 C 1.002 0.51429 0.52828 0.0
C468 C 1.00441 0.53912 0.57282 0.0
C469 C 0.98405 0.55214 0.60361 0.0
C470 C 0.97554 0.47707 0.46648 0.0
C471 C 0.02854 0.55162 0.58911 0.0
H472 H 0.06364 0.44736 0.52444 0.0
H473 H 0.05811 0.50402 0.33507 0.0
H474 H 0.02711 0.48569 0.64814 0.0
H475 H 1.00859 0.45966 0.60462 0.0
H476 H 0.03863 0.45062 0.63044 0.0
H477 H 0.02771 0.53746 0.32326 0.0
H478 H 1.00041 0.52766 0.36999 0.0
H479 H 0.0197 0.55306 0.41272 0.0
H480 H 0.94169 0.50676 0.5401 0.0
H481 H 0.98589 0.57096 0.63822 0.0
H482 H 0.98507 0.45868 0.49115 0.0
H483 H 0.98315 0.48091 0.40941 0.0
H484 H 0.95649 0.4714 0.46018 0.0
H485 H 0.04 0.53546 0.61654 0.0
H486 H 0.02748 0.57047 0.62653 0.0
H487 H 0.03735 0.55791 0.53547 0.0
C488 C 0.46782 0.5565 0.50082 0.0
C489 C 0.46373 0.55159 0.42372 0.0
C490 C 0.48629 0.54249 0.53942 0.0
C491 C 0.50149 0.52376 0.49942 0.0
C492 C 0.49753 0.51899 0.42134 0.0
C493 C 0.47853 0.53263 0.38481 0.0
C494 C 0.48951 0.54769 0.62304 0.0
C495 C 0.51364 0.49985 0.37596 0.0
C496 C 0.56334 0.51152 0.58012 0.0
C497 C 0.56135 0.48428 0.61142 0.0
C498 C 0.54414 0.52438 0.54276 0.0
C499 C 0.5221 0.51002 0.53829 0.0
C500 C 0.51995 0.48248 0.56999 0.0
C501 C 0.53972 0.46976 0.60522 0.0
C502 C 0.54749 0.55335 0.50782 0.0
C503 C 0.49665 0.46668 0.56787 0.0
H504 H 0.4563 0.57087 0.53139 0.0
H505 H 0.47555 0.52887 0.32507 0.0
H506 H 0.4897 0.52722 0.65409 0.0
H507 H 0.50685 0.55815 0.63324 0.0
H508 H 0.47522 0.56125 0.64694 0.0
H509 H 0.50819 0.49841 0.31569 0.0
H510 H 0.53216 0.50788 0.37836 0.0
H511 H 0.51368 0.47822 0.40057 0.0
H512 H 0.5801 0.52275 0.58425 0.0
H513 H 0.53804 0.4488 0.62992 0.0
H514 H 0.53529 0.56877 0.53483 0.0
H515 H 0.54299 0.55266 0.44672 0.0
H516 H 0.56598 0.56125 0.51388 0.0
H517 H 0.4826 0.47947 0.59571 0.0
H518 H 0.49772 0.44575 0.59655 0.0
H519 H 0.49105 0.46332 0.50841 0.0
C520 C 0.1347 0.12867 0.79834 0.0
C521 C 0.11553 0.13001 0.84917 0.0
C522 C 0.13104 0.12536 0.72023 0.0
C523 C 0.1076 0.1234 0.69175 0.0
C524 C 0.08813 0.12543 0.7424 0.0
C525 C 0.09233 0.12861 0.82043 0.0
C526 C 0.15232 0.12296 0.66849 0.0
C527 C 0.06287 0.1236 0.71435 0.0
C528 C 0.09873 0.13271 0.47883 0.0
C529 C 0.0973 0.10447 0.4545 0.0
C530 C 0.10172 0.13929 0.55598 0.0
C531 C 0.10359 0.11711 0.60992 0.0
C532 C 0.10226 0.0886 0.58547 0.0
C533 C 0.09909 0.08267 0.50837 0.0
C534 C 0.10289 0.16996 0.5798 0.0
C535 C 0.10447 0.06426 0.64072 0.0
H536 H 0.15269 0.12929 0.81981 0.0
H537 H 0.07742 0.12998 0.85904 0.0
H538 H 0.15279 0.10153 0.64279 0.0
H539 H 0.15093 0.13851 0.62154 0.0
H540 H 0.16932 0.12658 0.69879 0.0
H541 H 0.04971 0.12755 0.76004 0.0
H542 H 0.05993 0.13918 0.66821 0.0
H543 H 0.05954 0.10222 0.69051 0.0
H544 H 0.09716 0.14964 0.43765 0.0
H545 H 0.09844 0.06081 0.48999 0.0
H546 H 0.12025 0.17437 0.60694 0.0
H547 H 0.08889 0.17439 0.62244 0.0
H548 H 0.10057 0.18472 0.53129 0.0
H549 H 0.12193 0.06525 0.66971 0.0
H550 H 0.10283 0.0433 0.61268 0.0
H551 H 0.09054 0.0659 0.68495 0.0
C552 C 0.41758 0.90166 0.52258 0.0
C553 C 0.42156 0.92961 0.49849 0.0
C554 C 0.41469 0.89516 0.59985 0.0
C555 C 0.41539 0.9172 0.65425 0.0
C556 C 0.4192 0.94548 0.63001 0.0
C557 C 0.42241 0.95128 0.55265 0.0
C558 C 0.41103 0.86469 0.62333 0.0
C559 C 0.41965 0.96969 0.68575 0.0
C560 C 0.38508 0.90668 0.84506 0.0
C561 C 0.40447 0.90235 0.89364 0.0
C562 C 0.38837 0.91112 0.76708 0.0
C563 C 0.41162 0.91094 0.73638 0.0
C564 C 0.43125 0.90601 0.78483 0.0
C565 C 0.42745 0.90199 0.8629 0.0
C566 C 0.36697 0.91679 0.71788 0.0
C567 C 0.4563 0.9053 0.75433 0.0
H568 H 0.41721 0.88481 0.48105 0.0
H569 H 0.4252 0.97294 0.53423 0.0
H570 H 0.42497 0.85831 0.66428 0.0
H571 H 0.39365 0.86235 0.65234 0.0
H572 H 0.41153 0.84996 0.57437 0.0
H573 H 0.42267 0.99048 0.65771 0.0
H574 H 0.40256 0.9706 0.71703 0.0
H575 H 0.4339 0.96625 0.72807 0.0
H576 H 0.3673 0.90748 0.86842 0.0
H577 H 0.44247 0.89844 0.89999 0.0
H578 H 0.36631 0.90135 0.67068 0.0
H579 H 0.36838 0.93823 0.69237 0.0
H580 H 0.35004 0.91548 0.75005 0.0
H581 H 0.45761 0.88976 0.70745 0.0
H582 H 0.46949 0.8996 0.79854 0.0
H583 H 0.46106 0.92636 0.73078 0.0
C584 C 0.09126 0.3894 0.69 0.0
C585 C 0.11485 0.39098 0.66465 0.0
C586 C 0.08571 0.39215 0.76744 0.0
C587 C 0.10414 0.39731 0.82028 0.0
C588 C 0.12796 0.39887 0.79468 0.0
C589 C 0.133 0.39546 0.71751 0.0
C590 C 0.06016 0.3898 0.79261 0.0
C591 C 0.14815 0.40503 0.84849 0.0
C592 C 0.09479 0.43797 1.00234 0.0
C593 C 0.0989 0.41702 0.05736 0.0
C594 C 0.09494 0.43152 0.92493 0.0
C595 C 0.09877 0.40322 0.90152 0.0
C596 C 0.1007 0.38152 0.95685 0.0
C597 C 0.10089 0.38869 0.03423 0.0
C598 C 0.09291 0.45543 0.86831 0.0
C599 C 0.10417 0.35097 0.93434 0.0
H600 H 0.07723 0.38573 0.64929 0.0
H601 H 0.1512 0.39716 0.69807 0.0
H602 H 0.05857 0.37418 0.83938 0.0
H603 H 0.05396 0.4105 0.81473 0.0
H604 H 0.04823 0.38329 0.74573 0.0
H605 H 0.1657 0.4051 0.81969 0.0
H606 H 0.14541 0.42602 0.87539 0.0
H607 H 0.14854 0.38896 0.89437 0.0
H608 H 0.09257 0.45979 0.01981 0.0
H609 H 0.10397 0.37231 0.07612 0.0
H610 H 0.07981 0.45016 0.82372 0.0
H611 H 0.11033 0.45863 0.84003 0.0
H612 H 0.08757 0.47569 0.89532 0.0
H613 H 0.09204 0.34521 0.88739 0.0
H614 H 0.10108 0.33627 0.98257 0.0
H615 H 0.12263 0.34791 0.91386 0.0
C616 C 0.39982 0.59576 0.0241 0.0
C617 C 0.42124 0.60619 0.05341 0.0
C618 C 0.39442 0.5985 0.94675 0.0
C619 C 0.41077 0.61216 0.89778 0.0
C620 C 0.43235 0.62285 0.92717 0.0
C621 C 0.4373 0.61973 1.00445 0.0
C622 C 0.37128 0.58671 0.91735 0.0
C623 C 0.45019 0.63776 0.87702 0.0
C624 C 0.40968 0.599 0.6858 0.0
C625 C 0.39837 0.62352 0.65878 0.0
C626 C 0.41333 0.59471 0.76353 0.0
C627 C 0.40547 0.61542 0.8157 0.0
C628 C 0.39367 0.63998 0.789 0.0
C629 C 0.39025 0.64372 0.71091 0.0
C630 C 0.42596 0.56821 0.7897 0.0
C631 C 0.38519 0.66266 0.84281 0.0
H632 H 0.38743 0.58514 0.06157 0.0
H633 H 0.45366 0.62838 0.02678 0.0
H634 H 0.36068 0.60388 0.89085 0.0
H635 H 0.37486 0.5707 0.87288 0.0
H636 H 0.36049 0.57669 0.96275 0.0
H637 H 0.46614 0.64484 0.90875 0.0
H638 H 0.45599 0.6234 0.83091 0.0
H639 H 0.44185 0.65653 0.85007 0.0
H640 H 0.41561 0.58302 0.64616 0.0
H641 H 0.38171 0.66282 0.69054 0.0
H642 H 0.41484 0.5567 0.83156 0.0
H643 H 0.44279 0.57399 0.81839 0.0
H644 H 0.43016 0.55367 0.74215 0.0
H645 H 0.37346 0.65326 0.88668 0.0
H646 H 0.37533 0.67982 0.81336 0.0
H647 H 0.40061 0.67216 0.87245 0.0
C648 C 0.88058 0.91545 0.18029 0.0
C649 C 0.8974 0.90203 0.13419 0.0
C650 C 0.88475 0.91927 0.25785 0.0
C651 C 0.90596 0.90867 0.29028 0.0
C652 C 0.9229 0.89481 0.24392 0.0
C653 C 0.91856 0.89206 0.16605 0.0
C654 C 0.86659 0.93491 0.30487 0.0
C655 C 0.94544 0.8826 0.27673 0.0
C656 C 0.92789 0.93816 0.4775 0.0
C657 C 0.91892 0.91826 0.52892 0.0
C658 C 0.92345 0.9356 0.39968 0.0
C659 C 0.91038 0.91203 0.37275 0.0
C660 C 0.9015 0.89169 0.42467 0.0
C661 C 0.9056 0.8953 0.50238 0.0
C662 C 0.93262 0.95816 0.34641 0.0
C663 C 0.88804 0.8659 0.39804 0.0
H664 H 0.86438 0.92348 0.15509 0.0
H665 H 0.93143 0.88156 0.1301 0.0
H666 H 0.8596 0.92081 0.34998 0.0
H667 H 0.87506 0.95329 0.33317 0.0
H668 H 0.85143 0.94268 0.27042 0.0
H669 H 0.95644 0.87172 0.23335 0.0
H670 H 0.95621 0.89967 0.30274 0.0
H671 H 0.94104 0.8672 0.3222 0.0
H672 H 0.93811 0.95593 0.49862 0.0
H673 H 0.899 0.87975 0.54246 0.0
H674 H 0.9177 0.96716 0.31315 0.0
H675 H 0.94531 0.94873 0.30556 0.0
H676 H 0.94169 0.97567 0.37681 0.0
H677 H 0.87172 0.87247 0.36761 0.0
H678 H 0.88289 0.85171 0.44557 0.0
H679 H 0.8991 0.85369 0.35755 0.0
C680 C 0.58483 0.11968 0.49133 0.0
C681 C 0.60071 0.1057 0.53983 0.0
C682 C 0.58972 0.12267 0.41391 0.0
C683 C 0.611 0.11129 0.38395 0.0
C684 C 0.6271 0.09707 0.43246 0.0
C685 C 0.62181 0.09455 0.50994 0.0
C686 C 0.57218 0.13821 0.36426 0.0
C687 C 0.64989 0.08448 0.40246 0.0
C688 C 0.61204 0.09803 0.17198 0.0
C689 C 0.62424 0.12197 0.14508 0.0
C690 C 0.60799 0.09402 0.24965 0.0
C691 C 0.61632 0.11445 0.30182 0.0
C692 C 0.62889 0.13849 0.2752 0.0
C693 C 0.63274 0.14192 0.19719 0.0
C694 C 0.59458 0.06804 0.27576 0.0
C695 C 0.63786 0.16088 0.32902 0.0
H696 H 0.56871 0.12882 0.5142 0.0
H697 H 0.63403 0.08356 0.5471 0.0
H698 H 0.58094 0.15673 0.33728 0.0
H699 H 0.56599 0.12411 0.31814 0.0
H700 H 0.55645 0.14579 0.39639 0.0
H701 H 0.66045 0.07393 0.4475 0.0
H702 H 0.64585 0.06873 0.35775 0.0
H703 H 0.66093 0.10131 0.37612 0.0
H704 H 0.60578 0.08226 0.13229 0.0
H705 H 0.64195 0.16059 0.17682 0.0
H706 H 0.57796 0.07448 0.30485 0.0
H707 H 0.60539 0.056 0.31728 0.0
H708 H 0.5899 0.05376 0.22814 0.0
H709 H 0.62266 0.17072 0.35915 0.0
H710 H 0.64799 0.17783 0.29952 0.0
H711 H 0.64948 0.15111 0.3725 0.0
C712 C 0.92923 0.62141 0.36025 0.0
C713 C 0.90627 0.62345 0.39074 0.0
C714 C 0.93281 0.61721 0.28221 0.0
C715 C 0.91296 0.61462 0.23345 0.0
C716 C 0.88975 0.61699 0.2638 0.0
C717 C 0.8867 0.62147 0.3418 0.0
C718 C 0.95785 0.61511 0.25209 0.0
C719 C 0.86807 0.61395 0.2142 0.0
C720 C 0.92009 0.62321 0.01973 0.0
C721 C 0.92177 0.59493 0.99595 0.0
C722 C 0.91758 0.63002 0.09687 0.0
C723 C 0.91634 0.60799 0.15145 0.0
C724 C 0.91782 0.57941 0.12752 0.0
C725 C 0.92068 0.57326 0.0503 0.0
C726 C 0.9164 0.66076 0.12001 0.0
C727 C 0.91616 0.55524 0.18347 0.0
H728 H 0.94442 0.62318 0.39752 0.0
H729 H 0.8689 0.62254 0.36484 0.0
H730 H 0.96094 0.59364 0.2286 0.0
H731 H 0.96048 0.63049 0.20524 0.0
H732 H 0.97137 0.61922 0.2965 0.0
H733 H 0.85128 0.61732 0.246 0.0
H734 H 0.86883 0.62937 0.1668 0.0
H735 H 0.86769 0.59243 0.18898 0.0
H736 H 0.9212 0.64003 0.97805 0.0
H737 H 0.92168 0.55139 0.03212 0.0
H738 H 0.93074 0.66549 0.16111 0.0
H739 H 0.89925 0.6651 0.14873 0.0
H740 H 0.91817 0.67537 0.07092 0.0
H741 H 0.93052 0.55702 0.22612 0.0
H742 H 0.91754 0.5342 0.15568 0.0
H743 H 0.89901 0.55631 0.21433 0.0
C744 C 0.63823 0.40909 0.3584 0.0
C745 C 0.6189 0.40344 0.40633 0.0
C746 C 0.63501 0.41349 0.28042 0.0
C747 C 0.6119 0.41179 0.24911 0.0
C748 C 0.59235 0.40552 0.29698 0.0
C749 C 0.59606 0.40169 0.37509 0.0
C750 C 0.65627 0.42069 0.23185 0.0
C751 C 0.56749 0.40309 0.26577 0.0
C752 C 0.59932 0.45108 0.06511 0.0
C753 C 0.60146 0.42948 1.0112 0.0
C754 C 0.60283 0.44564 0.14247 0.0
C755 C 0.60812 0.41774 0.16691 0.0
C756 C 0.61012 0.39575 0.11268 0.0
C757 C 0.60702 0.40195 0.03538 0.0
C758 C 0.60103 0.46984 0.19801 0.0
C759 C 0.61529 0.36563 0.13641 0.0
H760 H 0.65586 0.41093 0.38232 0.0
H761 H 0.58112 0.39713 0.41183 0.0
H762 H 0.65794 0.40527 0.18487 0.0
H763 H 0.65383 0.44195 0.20603 0.0
H764 H 0.6731 0.4207 0.2646 0.0
H765 H 0.55444 0.39649 0.3096 0.0
H766 H 0.56181 0.42378 0.24203 0.0
H767 H 0.56711 0.38748 0.2189 0.0
H768 H 0.59523 0.47241 0.04638 0.0
H769 H 0.60837 0.38515 0.99388 0.0
H770 H 0.61789 0.47185 0.23005 0.0
H771 H 0.58674 0.46553 0.23972 0.0
H772 H 0.59724 0.49039 0.16969 0.0
H773 H 0.63266 0.36459 0.16584 0.0
H774 H 0.61571 0.35086 0.08752 0.0
H775 H 0.60157 0.35824 0.17705 0.0
C776 C 0.06793 0.19655 0.24182 0.0
C777 C 0.08382 0.19094 0.18268 0.0
C778 C 0.06372 0.22464 0.26554 0.0
C779 C 0.0759 0.24733 0.22959 0.0
C780 C 0.0898 0.24171 0.16441 0.0
C781 C 0.09369 0.21358 0.14217 0.0
C782 C 0.04824 0.22968 0.33387 0.0
C783 C 0.103 0.26505 0.12354 0.0
C784 C 0.0724 0.32646 0.27361 0.0
C785 C 0.09292 0.32974 0.3176 0.0
C786 C 0.06525 0.2993 0.24882 0.0
C787 C 0.079 0.27517 0.2687 0.0
C788 C 0.09851 0.27843 0.31848 0.0
C789 C 0.10521 0.30559 0.34192 0.0
C790 C 0.04406 0.29678 0.19723 0.0
C791 C 0.11364 0.25348 0.34223 0.0
H792 H 0.06052 0.17901 0.27382 0.0
H793 H 0.1061 0.20916 0.09666 0.0
H794 H 0.05959 0.23131 0.38497 0.0
H795 H 0.03819 0.24981 0.32826 0.0
H796 H 0.03551 0.21198 0.3427 0.0
H797 H 0.11013 0.25786 0.06816 0.0
H798 H 0.09125 0.28356 0.1138 0.0
H799 H 0.11811 0.27226 0.15894 0.0
H800 H 0.06289 0.34512 0.25451 0.0
H801 H 0.12093 0.30809 0.37673 0.0
H802 H 0.03398 0.27702 0.20885 0.0
H803 H 0.05023 0.29599 0.13763 0.0
H804 H 0.03195 0.31522 0.20326 0.0
H805 H 0.10235 0.23618 0.36493 0.0
H806 H 0.12691 0.2593 0.38601 0.0
H807 H 0.12328 0.24504 0.2923 0.0
C808 C 0.45115 0.82938 0.22039 0.0
C809 C 0.43276 0.84259 0.26054 0.0
C810 C 0.45647 0.80048 0.23297 0.0
C811 C 0.44291 0.78467 0.28615 0.0
C812 C 0.42604 0.79888 0.33182 0.0
C813 C 0.42128 0.82758 0.31858 0.0
C814 C 0.47528 0.78643 0.18526 0.0
C815 C 0.41116 0.78321 0.38954 0.0
C816 C 0.42057 0.71098 0.24445 0.0
C817 C 0.43112 0.69484 0.30209 0.0
C818 C 0.42579 0.73976 0.23498 0.0
C819 C 0.44229 0.75299 0.28389 0.0
C820 C 0.45469 0.73627 0.33784 0.0
C821 C 0.44886 0.70731 0.3467 0.0
C822 C 0.41205 0.75647 0.17651 0.0
C823 C 0.47302 0.74925 0.38934 0.0
H824 H 0.46027 0.84096 0.17597 0.0
H825 H 0.40743 0.83791 0.35115 0.0
H826 H 0.4851 0.77023 0.21842 0.0
H827 H 0.46675 0.77556 0.13678 0.0
H828 H 0.48812 0.80216 0.1624 0.0
H829 H 0.40072 0.79784 0.42585 0.0
H830 H 0.39859 0.76889 0.35995 0.0
H831 H 0.42254 0.76992 0.42644 0.0
H832 H 0.40725 0.70139 0.20837 0.0
H833 H 0.45731 0.69492 0.3908 0.0
H834 H 0.42431 0.76902 0.14055 0.0
H835 H 0.39996 0.77158 0.20536 0.0
H836 H 0.40121 0.74263 0.13925 0.0
H837 H 0.48338 0.76589 0.35949 0.0
H838 H 0.48544 0.73297 0.41165 0.0
H839 H 0.46398 0.75933 0.43818 0.0
C840 C 0.94793 0.81954 0.82275 0.0
C841 C 0.92621 0.82906 0.79318 0.0
C842 C 0.95492 0.79089 0.81507 0.0
C843 C 0.93968 0.7714 0.77786 0.0
C844 C 0.91823 0.78132 0.74561 0.0
C845 C 0.9119 0.80983 0.75332 0.0
C846 C 0.97814 0.78136 0.84904 0.0
C847 C 0.90125 0.76153 0.70556 0.0
C848 C 0.94999 0.69736 0.70225 0.0
C849 C 0.93691 0.68162 0.75509 0.0
C850 C 0.95384 0.72663 0.71326 0.0
C851 C 0.94426 0.74017 0.77822 0.0
C852 C 0.93368 0.72343 0.83568 0.0
C853 C 0.93004 0.69442 0.82315 0.0
C854 C 0.96585 0.74352 0.65165 0.0
C855 C 0.92342 0.73661 0.9063 0.0
H856 H 0.9592 0.83425 0.85314 0.0
H857 H 0.89522 0.81687 0.72921 0.0
H858 H 0.97468 0.77073 0.90399 0.0
H859 H 0.98721 0.76587 0.81172 0.0
H860 H 0.99026 0.79953 0.85935 0.0
H861 H 0.88572 0.77284 0.68124 0.0
H862 H 0.91052 0.75026 0.65913 0.0
H863 H 0.8946 0.7453 0.74588 0.0
H864 H 0.95528 0.68751 0.64948 0.0
H865 H 0.9201 0.68214 0.8644 0.0
H866 H 0.97708 0.76053 0.67603 0.0
H867 H 0.95215 0.75375 0.61571 0.0
H868 H 0.97702 0.72981 0.61498 0.0
H869 H 0.93574 0.7526 0.93005 0.0
H870 H 0.91956 0.72047 0.95053 0.0
H871 H 0.90658 0.7476 0.8919 0.0
C872 C 0.57336 0.20564 0.84101 0.0
C873 C 0.59182 0.19422 0.79721 0.0
C874 C 0.56733 0.23464 0.83505 0.0
C875 C 0.5803 0.25249 0.78506 0.0
C876 C 0.59769 0.24042 0.73704 0.0
C877 C 0.60304 0.21157 0.74338 0.0
C878 C 0.54807 0.24638 0.88536 0.0
C879 C 0.61211 0.25836 0.68283 0.0
C880 C 0.5714 0.32931 0.72671 0.0
C881 C 0.58906 0.34233 0.77038 0.0
C882 C 0.56616 0.30024 0.73648 0.0
C883 C 0.57907 0.28408 0.79041 0.0
C884 C 0.59502 0.29805 0.83969 0.0
C885 C 0.59973 0.32692 0.82914 0.0
C886 C 0.54827 0.28643 0.68497 0.0
C887 C 0.60913 0.28198 0.89845 0.0
H888 H 0.56438 0.19233 0.88213 0.0
H889 H 0.61695 0.20285 0.70787 0.0
H890 H 0.5562 0.25527 0.93731 0.0
H891 H 0.53817 0.26365 0.85666 0.0
H892 H 0.53535 0.22957 0.90275 0.0
H893 H 0.62388 0.2454 0.64611 0.0
H894 H 0.60024 0.27108 0.64608 0.0
H895 H 0.62334 0.27337 0.71525 0.0
H896 H 0.5629 0.3412 0.68173 0.0
H897 H 0.61299 0.33709 0.86436 0.0
H898 H 0.53803 0.26988 0.71562 0.0
H899 H 0.55768 0.27601 0.63736 0.0
H900 H 0.53572 0.30222 0.66095 0.0
H901 H 0.59734 0.26799 0.93218 0.0
H902 H 0.61868 0.29638 0.93771 0.0
H903 H 0.62242 0.26831 0.86979 0.0
loop_
_geom_bond_atom_site_label_1
_geom_bond_atom_site_label_2
_geom_bond_distance
_geom_bond_site_symmetry_2
_ccdc_geom_bond_type
C0 C1 1.351 . S
C0 N3 1.368 1_556 S
C0 H5 0.931 1_556 S
C1 C0 1.351 . S
C1 N2 1.373 . S
C1 H29 0.930 . S
N2 C1 1.373 . S
N2 C4 1.340 . S
N3 C0 1.368 1_554 S
N3 C4 1.321 1_554 S
N3 Co6 2.135 . S
C4 N2 1.340 . S
C4 N3 1.321 1_556 S
C4 H28 0.930 . S
H5 C0 0.931 1_554 S
Co6 N3 2.135 . S
Co6 N9 2.121 . S
Co6 O14 2.055 . S
Co6 O17 2.039 . S
Co6 N20 2.140 . S
C7 O8 1.227 . S
C7 O17 1.265 . S
O8 C7 1.227 . S
N9 Co6 2.121 . S
N9 C11 1.375 . S
N9 C12 1.313 . S
C10 C11 1.338 . S
C10 N13 1.377 . S
C10 H30 0.930 . S
C11 N9 1.375 . S
C11 C10 1.338 . S
C11 H15 0.931 . S
C12 N9 1.313 . S
C12 N13 1.344 . S
C12 H16 0.930 . S
N13 C10 1.377 . S
N13 C12 1.344 . S
O14 Co6 2.055 . S
O14 C18 1.253 . S
H15 C11 0.931 . S
H16 C12 0.930 . S
O17 Co6 2.039 . S
O17 C7 1.265 . S
C18 O14 1.253 . S
C18 O19 1.227 . S
O19 C18 1.227 . S
N20 Co6 2.140 . S
N20 C23 1.346 . S
N20 C24 1.345 . S
C21 C22 1.387 . S
C21 C25 1.391 . S
C22 C21 1.387 . S
C22 C23 1.369 . S
C22 H31 0.929 . S
C23 N20 1.346 . S
C23 C22 1.369 . S
C23 H26 0.928 . S
C24 N20 1.345 . S
C24 C25 1.371 . S
C24 H27 0.931 . S
C25 C21 1.391 . S
C25 C24 1.371 . S
C25 H32 0.930 . S
H26 C23 0.928 . S
H27 C24 0.931 . S
H28 C4 0.930 . S
H29 C1 0.930 . S
H30 C10 0.930 . S
H31 C22 0.929 . S
H32 C25 0.930 . S
C33 C34 1.351 . S
C33 N36 1.368 1_556 S
C33 H38 0.931 1_556 S
C34 C33 1.351 . S
C34 N35 1.373 . S
C34 H62 0.930 . S
N35 C34 1.373 . S
N35 C37 1.340 . S
N36 C33 1.368 1_554 S
N36 C37 1.321 1_554 S
N36 Co39 2.135 . S
C37 N35 1.340 . S
C37 N36 1.321 1_556 S
C37 H61 0.930 . S
H38 C33 0.931 1_554 S
Co39 N36 2.135 . S
Co39 N42 2.121 . S
Co39 O47 2.055 . S
Co39 O50 2.039 . S
Co39 N53 2.140 . S
C40 O41 1.227 . S
C40 O50 1.265 . S
O41 C40 1.227 . S
N42 Co39 2.121 . S
N42 C44 1.375 . S
N42 C45 1.313 . S
C43 C44 1.338 . S
C43 N46 1.377 . S
C43 H63 0.930 . S
C44 N42 1.375 . S
C44 C43 1.338 . S
C44 H48 0.931 . S
C45 N42 1.313 . S
C45 N46 1.344 . S
C45 H49 0.930 . S
N46 C43 1.377 . S
N46 C45 1.344 . S
O47 Co39 2.055 . S
O47 C51 1.253 . S
H48 C44 0.931 . S
H49 C45 0.930 . S
O50 Co39 2.039 . S
O50 C40 1.265 . S
C51 O47 1.253 . S
C51 O52 1.227 . S
O52 C51 1.227 . S
N53 Co39 2.140 . S
N53 C56 1.346 . S
N53 C57 1.345 . S
C54 C55 1.387 . S
C54 C58 1.391 . S
C55 C54 1.387 . S
C55 C56 1.369 . S
C55 H64 0.929 . S
C56 N53 1.346 . S
C56 C55 1.369 . S
C56 H59 0.928 . S
C57 N53 1.345 . S
C57 C58 1.371 . S
C57 H60 0.931 . S
C58 C54 1.391 . S
C58 C57 1.371 . S
C58 H65 0.930 . S
H59 C56 0.928 . S
H60 C57 0.931 . S
H61 C37 0.930 . S
H62 C34 0.930 . S
H63 C43 0.930 . S
H64 C55 0.929 . S
H65 C58 0.930 . S
C66 C67 1.351 . S
C66 N69 1.368 . S
C66 H71 0.931 . S
C67 C66 1.351 . S
C67 N68 1.373 . S
C67 H95 0.930 . S
N68 C67 1.373 . S
N68 C70 1.340 . S
N69 C66 1.368 . S
N69 C70 1.321 . S
N69 Co72 2.135 . S
C70 N68 1.340 . S
C70 N69 1.321 . S
C70 H94 0.930 . S
H71 C66 0.931 . S
Co72 N69 2.135 . S
Co72 N75 2.121 . S
Co72 O80 2.055 . S
Co72 O83 2.039 . S
Co72 N86 2.140 . S
C73 O74 1.227 . S
C73 O83 1.265 . S
O74 C73 1.227 . S
N75 Co72 2.121 . S
N75 C77 1.375 . S
N75 C78 1.313 . S
C76 C77 1.338 . S
C76 N79 1.377 . S
C76 H96 0.930 . S
C77 N75 1.375 . S
C77 C76 1.338 . S
C77 H81 0.931 . S
C78 N75 1.313 . S
C78 N79 1.344 . S
C78 H82 0.930 . S
N79 C76 1.377 . S
N79 C78 1.344 . S
O80 Co72 2.055 . S
O80 C84 1.253 . S
H81 C77 0.931 . S
H82 C78 0.930 . S
O83 Co72 2.039 . S
O83 C73 1.265 . S
C84 O80 1.253 . S
C84 O85 1.227 . S
O85 C84 1.227 . S
N86 Co72 2.140 . S
N86 C89 1.346 . S
N86 C90 1.345 . S
C87 C88 1.387 . S
C87 C91 1.391 . S
C88 C87 1.387 . S
C88 C89 1.369 . S
C88 H97 0.929 . S
C89 N86 1.346 . S
C89 C88 1.369 . S
C89 H92 0.928 . S
C90 N86 1.345 . S
C90 C91 1.371 . S
C90 H93 0.931 . S
C91 C87 1.391 . S
C91 C90 1.371 . S
C91 H98 0.930 . S
H92 C89 0.928 . S
H93 C90 0.931 . S
H94 C70 0.930 . S
H95 C67 0.930 . S
H96 C76 0.930 . S
H97 C88 0.929 . S
H98 C91 0.930 . S
C99 C100 1.351 . S
C99 N102 1.368 . S
C99 H104 0.931 . S
C100 C99 1.351 . S
C100 N101 1.373 . S
C100 H128 0.930 . S
N101 C100 1.373 . S
N101 C103 1.340 . S
N102 C99 1.368 . S
N102 C103 1.321 . S
N102 Co105 2.135 . S
C103 N101 1.340 . S
C103 N102 1.321 . S
C103 H127 0.930 . S
H104 C99 0.931 . S
Co105 N102 2.135 . S
Co105 N108 2.121 . S
Co105 O113 2.055 . S
Co105 O116 2.039 . S
Co105 N119 2.140 . S
C106 O107 1.227 . S
C106 O116 1.265 . S
O107 C106 1.227 . S
N108 Co105 2.121 . S
N108 C110 1.375 . S
N108 C111 1.313 . S
C109 C110 1.338 . S
C109 N112 1.377 . S
C109 H129 0.930 . S
C110 N108 1.375 . S
C110 C109 1.338 . S
C110 H114 0.931 . S
C111 N108 1.313 . S
C111 N112 1.344 . S
C111 H115 0.930 . S
N112 C109 1.377 . S
N112 C111 1.344 . S
O113 Co105 2.055 . S
O113 C117 1.253 . S
H114 C110 0.931 . S
H115 C111 0.930 . S
O116 Co105 2.039 . S
O116 C106 1.265 . S
C117 O113 1.253 . S
C117 O118 1.227 . S
O118 C117 1.227 . S
N119 Co105 2.140 . S
N119 C122 1.346 . S
N119 C123 1.345 . S
C120 C121 1.387 . S
C120 C124 1.391 . S
C121 C120 1.387 . S
C121 C122 1.369 . S
C121 H130 0.929 . S
C122 N119 1.346 . S
C122 C121 1.369 . S
C122 H125 0.928 . S
C123 N119 1.345 . S
C123 C124 1.371 . S
C123 H126 0.931 . S
C124 C120 1.391 . S
C124 C123 1.371 . S
C124 H131 0.930 . S
H125 C122 0.928 . S
H126 C123 0.931 . S
H127 C103 0.930 . S
H128 C100 0.930 . S
H129 C109 0.930 . S
H130 C121 0.929 . S
H131 C124 0.930 . S
C132 C133 1.351 . S
C132 N135 1.368 1_554 S
C132 H137 0.931 1_554 S
C133 C132 1.351 . S
C133 N134 1.373 . S
C133 H161 0.930 . S
N134 C133 1.373 . S
N134 C136 1.340 . S
N135 C132 1.368 1_556 S
N135 C136 1.321 1_556 S
N135 Co138 2.135 . S
C136 N134 1.340 . S
C136 N135 1.321 1_554 S
C136 H160 0.930 . S
H137 C132 0.931 1_556 S
Co138 N135 2.135 . S
Co138 N141 2.121 . S
Co138 O146 2.055 . S
Co138 O149 2.039 . S
Co138 N152 2.140 . S
C139 O140 1.227 . S
C139 O149 1.265 . S
O140 C139 1.227 . S
N141 Co138 2.121 . S
N141 C143 1.375 . S
N141 C144 1.313 . S
C142 C143 1.338 . S
C142 N145 1.377 . S
C142 H162 0.930 . S
C143 N141 1.375 . S
C143 C142 1.338 . S
C143 H147 0.931 . S
C144 N141 1.313 . S
C144 N145 1.344 . S
C144 H148 0.930 . S
N145 C142 1.377 . S
N145 C144 1.344 . S
O146 Co138 2.055 . S
O146 C150 1.253 . S
H147 C143 0.931 . S
H148 C144 0.930 . S
O149 Co138 2.039 . S
O149 C139 1.265 . S
C150 O146 1.253 . S
C150 O151 1.227 . S
O151 C150 1.227 . S
N152 Co138 2.140 . S
N152 C155 1.346 . S
N152 C156 1.345 . S
C153 C154 1.387 . S
C153 C157 1.391 . S
C154 C153 1.387 . S
C154 C155 1.369 . S
C154 H163 0.929 . S
C155 N152 1.346 . S
C155 C154 1.369 . S
C155 H158 0.928 . S
C156 N152 1.345 . S
C156 C157 1.371 . S
C156 H159 0.931 . S
C157 C153 1.391 . S
C157 C156 1.371 . S
C157 H164 0.930 . S
H158 C155 0.928 . S
H159 C156 0.931 . S
H160 C136 0.930 . S
H161 C133 0.930 . S
H162 C142 0.930 . S
H163 C154 0.929 . S
H164 C157 0.930 . S
C165 C166 1.351 . S
C165 N168 1.368 1_554 S
C165 H170 0.931 1_554 S
C166 C165 1.351 . S
C166 N167 1.373 . S
C166 H194 0.930 . S
N167 C166 1.373 . S
N167 C169 1.340 . S
N168 C165 1.368 1_556 S
N168 C169 1.321 1_556 S
N168 Co171 2.135 . S
C169 N167 1.340 . S
C169 N168 1.321 1_554 S
C169 H193 0.930 . S
H170 C165 0.931 1_556 S
Co171 N168 2.135 . S
Co171 N174 2.121 . S
Co171 O179 2.055 . S
Co171 O182 2.039 . S
Co171 N185 2.140 . S
C172 O173 1.227 . S
C172 O182 1.265 . S
O173 C172 1.227 . S
N174 Co171 2.121 . S
N174 C176 1.375 . S
N174 C177 1.313 . S
C175 C176 1.338 . S
C175 N178 1.377 . S
C175 H195 0.930 . S
C176 N174 1.375 . S
C176 C175 1.338 . S
C176 H180 0.931 . S
C177 N174 1.313 . S
C177 N178 1.344 . S
C177 H181 0.930 . S
N178 C175 1.377 . S
N178 C177 1.344 . S
O179 Co171 2.055 . S
O179 C183 1.253 . S
H180 C176 0.931 . S
H181 C177 0.930 . S
O182 Co171 2.039 . S
O182 C172 1.265 . S
C183 O179 1.253 . S
C183 O184 1.227 . S
O184 C183 1.227 . S
N185 Co171 2.140 . S
N185 C188 1.346 . S
N185 C189 1.345 . S
C186 C187 1.387 . S
C186 C190 1.391 . S
C187 C186 1.387 . S
C187 C188 1.369 . S
C187 H196 0.929 . S
C188 N185 1.346 . S
C188 C187 1.369 . S
C188 H191 0.928 . S
C189 N185 1.345 . S
C189 C190 1.371 . S
C189 H192 0.931 . S
C190 C186 1.391 . S
C190 C189 1.371 . S
C190 H197 0.930 . S
H191 C188 0.928 . S
H192 C189 0.931 . S
H193 C169 0.930 . S
H194 C166 0.930 . S
H195 C175 0.930 . S
H196 C187 0.929 . S
H197 C190 0.930 . S
C198 C199 1.351 . S
C198 N201 1.368 . S
C198 H203 0.931 . S
C199 C198 1.351 . S
C199 N200 1.373 . S
C199 H227 0.930 . S
N200 C199 1.373 . S
N200 C202 1.340 . S
N201 C198 1.368 . S
N201 C202 1.321 . S
N201 Co204 2.135 . S
C202 N200 1.340 . S
C202 N201 1.321 . S
C202 H226 0.930 . S
H203 C198 0.931 . S
Co204 N201 2.135 . S
Co204 N207 2.121 . S
Co204 O212 2.055 . S
Co204 O215 2.039 . S
Co204 N218 2.140 . S
C205 O206 1.227 . S
C205 O215 1.265 . S
O206 C205 1.227 . S
N207 Co204 2.121 . S
N207 C209 1.375 . S
N207 C210 1.313 . S
C208 C209 1.338 . S
C208 N211 1.377 . S
C208 H228 0.930 . S
C209 N207 1.375 . S
C209 C208 1.338 . S
C209 H213 0.931 . S
C210 N207 1.313 . S
C210 N211 1.344 . S
C210 H214 0.930 . S
N211 C208 1.377 . S
N211 C210 1.344 . S
O212 Co204 2.055 . S
O212 C216 1.253 . S
H213 C209 0.931 . S
H214 C210 0.930 . S
O215 Co204 2.039 . S
O215 C205 1.265 . S
C216 O212 1.253 . S
C216 O217 1.227 . S
O217 C216 1.227 . S
N218 Co204 2.140 . S
N218 C221 1.346 . S
N218 C222 1.345 . S
C219 C220 1.387 . S
C219 C223 1.391 . S
C220 C219 1.387 . S
C220 C221 1.369 . S
C220 H229 0.929 . S
C221 N218 1.346 . S
C221 C220 1.369 . S
C221 H224 0.928 . S
C222 N218 1.345 . S
C222 C223 1.371 . S
C222 H225 0.931 . S
C223 C219 1.391 . S
C223 C222 1.371 . S
C223 H230 0.930 . S
H224 C221 0.928 . S
H225 C222 0.931 . S
H226 C202 0.930 . S
H227 C199 0.930 . S
H228 C208 0.930 . S
H229 C220 0.929 . S
H230 C223 0.930 . S
C231 C232 1.351 . S
C231 N234 1.368 . S
C231 H236 0.931 . S
C232 C231 1.351 . S
C232 N233 1.373 . S
C232 H260 0.930 . S
N233 C232 1.373 . S
N233 C235 1.340 . S
N234 C231 1.368 . S
N234 C235 1.321 . S
N234 Co237 2.135 . S
C235 N233 1.340 . S
C235 N234 1.321 . S
C235 H259 0.930 . S
H236 C231 0.931 . S
Co237 N234 2.135 . S
Co237 N240 2.121 . S
Co237 O245 2.055 . S
Co237 O248 2.039 . S
Co237 N251 2.140 . S
C238 O239 1.227 . S
C238 O248 1.265 . S
O239 C238 1.227 . S
N240 Co237 2.121 . S
N240 C242 1.375 . S
N240 C243 1.313 . S
C241 C242 1.338 . S
C241 N244 1.377 . S
C241 H261 0.930 . S
C242 N240 1.375 . S
C242 C241 1.338 . S
C242 H246 0.931 . S
C243 N240 1.313 . S
C243 N244 1.344 . S
C243 H247 0.930 . S
N244 C241 1.377 . S
N244 C243 1.344 . S
O245 Co237 2.055 . S
O245 C249 1.253 . S
H246 C242 0.931 . S
H247 C243 0.930 . S
O248 Co237 2.039 . S
O248 C238 1.265 . S
C249 O245 1.253 . S
C249 O250 1.227 . S
O250 C249 1.227 . S
N251 Co237 2.140 . S
N251 C254 1.346 . S
N251 C255 1.345 . S
C252 C253 1.387 . S
C252 C256 1.391 . S
C253 C252 1.387 . S
C253 C254 1.369 . S
C253 H262 0.929 . S
C254 N251 1.346 . S
C254 C253 1.369 . S
C254 H257 0.928 . S
C255 N251 1.345 . S
C255 C256 1.371 . S
C255 H258 0.931 . S
C256 C252 1.391 . S
C256 C255 1.371 . S
C256 H263 0.930 . S
H257 C254 0.928 . S
H258 C255 0.931 . S
H259 C235 0.930 . S
H260 C232 0.930 . S
H261 C241 0.930 . S
H262 C253 0.929 . S
H263 C256 0.930 . S
C264 C265 1.391 . S
C264 C266 1.394 . S
C264 H280 0.931 . S
C265 C264 1.391 . S
C265 C269 1.376 . S
C266 C264 1.394 . S
C266 C267 1.369 . S
C266 C270 1.531 . S
C267 C266 1.369 . S
C267 C268 1.410 1_565 S
C267 C275 1.503 1_565 S
C268 C267 1.410 1_545 S
C268 C269 1.392 1_545 S
C268 C271 1.511 . S
C269 C265 1.376 . S
C269 C268 1.392 1_565 S
C269 H281 0.929 . S
C270 C266 1.531 . S
C270 H282 0.960 . S
C270 H283 0.962 . S
C270 H284 0.960 . S
C271 C268 1.511 . S
C271 H285 0.961 1_554 S
C271 H286 0.961 . S
C271 H287 0.961 . S
C272 C273 1.370 . S
C272 C274 1.358 1_545 S
C272 H288 0.931 . S
C273 C272 1.370 . S
C273 C277 1.408 . S
C274 C272 1.358 1_565 S
C274 C275 1.366 1_565 S
C274 C278 1.533 . S
C275 C267 1.503 1_545 S
C275 C274 1.366 1_545 S
C275 C276 1.403 . S
C276 C275 1.403 . S
C276 C277 1.404 . S
C276 C279 1.539 . S
C277 C273 1.408 . S
C277 C276 1.404 . S
C277 H289 0.930 . S
C278 C274 1.533 . S
C278 H290 0.956 . S
C278 H291 0.961 1_554 S
C278 H292 0.961 1_554 S
C279 C276 1.539 . S
C279 H293 0.958 . S
C279 H294 0.961 . S
C279 H295 0.960 . S
H280 C264 0.931 . S
H281 C269 0.929 . S
H282 C270 0.960 . S
H283 C270 0.962 . S
H284 C270 0.960 . S
H285 C271 0.961 1_556 S
H286 C271 0.961 . S
H287 C271 0.961 . S
H288 C272 0.931 . S
H289 C277 0.930 . S
H290 C278 0.956 . S
H291 C278 0.961 1_556 S
H292 C278 0.961 1_556 S
H293 C279 0.958 . S
H294 C279 0.961 . S
H295 C279 0.960 . S
C296 C297 1.391 . S
C296 C298 1.394 . S
C296 H312 0.931 . S
C297 C296 1.391 . S
C297 C301 1.376 . S
C298 C296 1.394 . S
C298 C299 1.369 . S
C298 C302 1.531 . S
C299 C298 1.369 . S
C299 C300 1.410 . S
C299 C307 1.503 . S
C300 C299 1.410 . S
C300 C301 1.392 . S
C300 C303 1.511 . S
C301 C297 1.376 . S
C301 C300 1.392 . S
C301 H313 0.929 . S
C302 C298 1.531 . S
C302 H314 0.960 . S
C302 H315 0.962 . S
C302 H316 0.960 . S
C303 C300 1.511 . S
C303 H317 0.961 . S
C303 H318 0.961 . S
C303 H319 0.961 . S
C304 C305 1.370 . S
C304 C306 1.363 . S
C304 H320 0.931 . S
C305 C304 1.370 . S
C305 C309 1.408 . S
C306 C304 1.363 . S
C306 C307 1.370 . S
C306 C310 1.524 . S
C307 C299 1.503 . S
C307 C306 1.370 . S
C307 C308 1.403 . S
C308 C307 1.403 . S
C308 C309 1.404 . S
C308 C311 1.539 . S
C309 C305 1.408 . S
C309 C308 1.404 . S
C309 H321 0.930 . S
C310 C306 1.524 . S
C310 H322 0.956 . S
C310 H323 0.961 . S
C310 H324 0.961 . S
C311 C308 1.539 . S
C311 H325 0.958 . S
C311 H326 0.961 . S
C311 H327 0.960 . S
H312 C296 0.931 . S
H313 C301 0.929 . S
H314 C302 0.960 . S
H315 C302 0.962 . S
H316 C302 0.960 . S
H317 C303 0.961 . S
H318 C303 0.961 . S
H319 C303 0.961 . S
H320 C304 0.931 . S
H321 C309 0.930 . S
H322 C310 0.956 . S
H323 C310 0.961 . S
H324 C310 0.961 . S
H325 C311 0.958 . S
H326 C311 0.961 . S
H327 C311 0.960 . S
C328 C329 1.391 . S
C328 C330 1.394 . S
C328 H344 0.931 . S
C329 C328 1.391 . S
C329 C333 1.376 . S
C330 C328 1.394 . S
C330 C331 1.369 . S
C330 C334 1.531 . S
C331 C330 1.369 . S
C331 C332 1.410 1_545 S
C331 C339 1.503 1_545 S
C332 C331 1.410 1_565 S
C332 C333 1.392 1_565 S
C332 C335 1.511 . S
C333 C329 1.376 . S
C333 C332 1.392 1_545 S
C333 H345 0.929 1_545 S
C334 C330 1.531 . S
C334 H346 0.960 . S
C334 H347 0.962 . S
C334 H348 0.960 . S
C335 C332 1.511 . S
C335 H349 0.961 . S
C335 H350 0.961 . S
C335 H351 0.961 . S
C336 C337 1.370 . S
C336 C338 1.363 . S
C336 H352 0.931 . S
C337 C336 1.370 . S
C337 C341 1.408 . S
C338 C336 1.363 . S
C338 C339 1.370 . S
C338 C342 1.524 . S
C339 C331 1.503 1_565 S
C339 C338 1.370 . S
C339 C340 1.403 . S
C340 C339 1.403 . S
C340 C341 1.404 . S
C340 C343 1.539 1_556 S
C341 C337 1.408 . S
C341 C340 1.404 . S
C341 H353 0.930 1_556 S
C342 C338 1.524 . S
C342 H354 0.956 1_565 S
C342 H355 0.961 . S
C342 H356 0.961 . S
C343 C340 1.539 1_554 S
C343 H357 0.958 1_565 S
C343 H358 0.961 . S
C343 H359 0.960 . S
H344 C328 0.931 . S
H345 C333 0.929 1_565 S
H346 C334 0.960 . S
H347 C334 0.962 . S
H348 C334 0.960 . S
H349 C335 0.961 . S
H350 C335 0.961 . S
H351 C335 0.961 . S
H352 C336 0.931 . S
H353 C341 0.930 1_554 S
H354 C342 0.956 1_545 S
H355 C342 0.961 . S
H356 C342 0.961 . S
H357 C343 0.958 1_545 S
H358 C343 0.961 . S
H359 C343 0.960 . S
C360 C361 1.391 . S
C360 C362 1.394 . S
C360 H376 0.931 . S
C361 C360 1.391 . S
C361 C365 1.376 . S
C362 C360 1.394 . S
C362 C363 1.369 . S
C362 C366 1.531 . S
C363 C362 1.369 . S
C363 C364 1.410 . S
C363 C371 1.503 . S
C364 C363 1.410 . S
C364 C365 1.392 . S
C364 C367 1.511 . S
C365 C361 1.376 . S
C365 C364 1.392 . S
C365 H377 0.929 . S
C366 C362 1.531 . S
C366 H378 0.960 . S
C366 H379 0.962 . S
C366 H380 0.960 . S
C367 C364 1.511 . S
C367 H381 0.961 . S
C367 H382 0.961 . S
C367 H383 0.961 . S
C368 C369 1.370 . S
C368 C370 1.363 . S
C368 H384 0.931 . S
C369 C368 1.370 . S
C369 C373 1.408 . S
C370 C368 1.363 . S
C370 C371 1.370 . S
C370 C374 1.524 . S
C371 C363 1.503 . S
C371 C370 1.370 . S
C371 C372 1.403 . S
C372 C371 1.403 . S
C372 C373 1.404 . S
C372 C375 1.539 . S
C373 C369 1.408 . S
C373 C372 1.404 . S
C373 H385 0.930 . S
C374 C370 1.524 . S
C374 H386 0.956 . S
C374 H387 0.961 . S
C374 H388 0.961 . S
C375 C372 1.539 . S
C375 H389 0.958 . S
C375 H390 0.961 . S
C375 H391 0.960 . S
H376 C360 0.931 . S
H377 C365 0.929 . S
H378 C366 0.960 . S
H379 C366 0.962 . S
H380 C366 0.960 . S
H381 C367 0.961 . S
H382 C367 0.961 . S
H383 C367 0.961 . S
H384 C368 0.931 . S
H385 C373 0.930 . S
H386 C374 0.956 . S
H387 C374 0.961 . S
H388 C374 0.961 . S
H389 C375 0.958 . S
H390 C375 0.961 . S
H391 C375 0.960 . S
C392 C393 1.391 . S
C392 C394 1.394 1_565 S
C392 H408 0.931 . S
C393 C392 1.391 . S
C393 C397 1.376 . S
C394 C392 1.394 1_545 S
C394 C395 1.369 1_545 S
C394 C398 1.531 . S
C395 C394 1.369 1_565 S
C395 C396 1.410 1_556 S
C395 C403 1.503 1_666 S
C396 C395 1.410 1_554 S
C396 C397 1.392 1_554 S
C396 C399 1.540 . S
C397 C393 1.376 . S
C397 C396 1.392 1_556 S
C397 H409 0.929 1_556 S
C398 C394 1.531 . S
C398 H410 0.960 . S
C398 H411 0.962 . S
C398 H412 0.960 . S
C399 C396 1.540 . S
C399 H413 0.959 . S
C399 H414 0.916 1_655 S
C399 H415 0.980 . S
C400 C401 1.370 . S
C400 C402 1.363 1_554 S
C400 H416 0.931 1_554 S
C401 C400 1.370 . S
C401 C405 1.408 . S
C402 C400 1.363 1_556 S
C402 C403 1.370 1_556 S
C402 C406 1.524 1_545 S
C403 C395 1.503 1_444 S
C403 C402 1.370 1_554 S
C403 C404 1.403 . S
C404 C403 1.403 . S
C404 C405 1.404 . S
C404 C407 1.539 1_455 S
C405 C401 1.408 . S
C405 C404 1.404 . S
C405 H417 0.930 . S
C406 C402 1.524 1_565 S
C406 H418 0.956 . S
C406 H419 0.961 . S
C406 H420 0.961 . S
C407 C404 1.539 1_655 S
C407 H421 0.958 . S
C407 H422 0.961 . S
C407 H423 0.960 . S
H408 C392 0.931 . S
H409 C397 0.929 1_554 S
H410 C398 0.960 . S
H411 C398 0.962 . S
H412 C398 0.960 . S
H413 C399 0.959 . S
H414 C399 0.916 1_455 S
H415 C399 0.980 . S
H416 C400 0.931 1_556 S
H417 C405 0.930 . S
H418 C406 0.956 . S
H419 C406 0.961 . S
H420 C406 0.961 . S
H421 C407 0.958 . S
H422 C407 0.961 . S
H423 C407 0.960 . S
C424 C425 1.391 . S
C424 C426 1.394 1_565 S
C424 H440 0.931 . S
C425 C424 1.391 . S
C425 C429 1.376 . S
C426 C424 1.394 1_545 S
C426 C427 1.369 1_545 S
C426 C430 1.531 1_554 S
C427 C426 1.369 1_565 S
C427 C428 1.410 . S
C427 C435 1.503 1_564 S
C428 C427 1.410 . S
C428 C429 1.392 . S
C428 C431 1.511 . S
C429 C425 1.376 . S
C429 C428 1.392 . S
C429 H441 0.929 . S
C430 C426 1.531 1_556 S
C430 H442 0.960 . S
C430 H443 0.962 . S
C430 H444 0.960 1_556 S
C431 C428 1.511 . S
C431 H445 0.961 . S
C431 H446 0.961 . S
C431 H447 0.961 . S
C432 C433 1.370 . S
C432 C434 1.363 . S
C432 H448 0.931 . S
C433 C432 1.370 . S
C433 C437 1.408 1_556 S
C434 C432 1.363 . S
C434 C435 1.370 . S
C434 C438 1.524 1_545 S
C435 C427 1.503 1_546 S
C435 C434 1.370 . S
C435 C436 1.403 1_556 S
C436 C435 1.403 1_554 S
C436 C437 1.404 . S
C436 C439 1.539 . S
C437 C433 1.408 1_554 S
C437 C436 1.404 . S
C437 H449 0.930 . S
C438 C434 1.524 1_565 S
C438 H450 0.956 . S
C438 H451 0.961 . S
C438 H452 0.961 . S
C439 C436 1.539 . S
C439 H453 0.958 . S
C439 H454 0.961 . S
C439 H455 0.960 . S
H440 C424 0.931 . S
H441 C429 0.929 . S
H442 C430 0.960 . S
H443 C430 0.962 . S
H444 C430 0.960 1_554 S
H445 C431 0.961 . S
H446 C431 0.961 . S
H447 C431 0.961 . S
H448 C432 0.931 . S
H449 C437 0.930 . S
H450 C438 0.956 . S
H451 C438 0.961 . S
H452 C438 0.961 . S
H453 C439 0.958 . S
H454 C439 0.961 . S
H455 C439 0.960 . S
C456 C457 1.391 . S
C456 C458 1.394 . S
C456 H472 0.931 . S
C457 C456 1.391 . S
C457 C461 1.376 . S
C458 C456 1.394 . S
C458 C459 1.369 . S
C458 C462 1.531 1_455 S
C459 C458 1.369 . S
C459 C460 1.410 . S
C459 C467 1.503 1_455 S
C460 C459 1.410 . S
C460 C461 1.392 . S
C460 C463 1.511 . S
C461 C457 1.376 . S
C461 C460 1.392 . S
C461 H473 0.929 . S
C462 C458 1.531 1_655 S
C462 H474 0.960 . S
C462 H475 0.962 . S
C462 H476 0.960 1_655 S
C463 C460 1.511 . S
C463 H477 0.961 . S
C463 H478 0.961 . S
C463 H479 0.961 . S
C464 C465 1.370 . S
C464 C466 1.363 . S
C464 H480 0.931 . S
C465 C464 1.370 . S
C465 C469 1.408 . S
C466 C464 1.363 . S
C466 C467 1.370 . S
C466 C470 1.524 . S
C467 C459 1.503 1_655 S
C467 C466 1.370 . S
C467 C468 1.403 . S
C468 C467 1.403 . S
C468 C469 1.404 . S
C468 C471 1.539 1_655 S
C469 C465 1.408 . S
C469 C468 1.404 . S
C469 H481 0.930 . S
C470 C466 1.524 . S
C470 H482 0.956 . S
C470 H483 0.961 . S
C470 H484 0.961 . S
C471 C468 1.539 1_455 S
C471 H485 0.958 . S
C471 H486 0.961 . S
C471 H487 0.960 . S
H472 C456 0.931 . S
H473 C461 0.929 . S
H474 C462 0.960 . S
H475 C462 0.962 . S
H476 C462 0.960 1_455 S
H477 C463 0.961 . S
H478 C463 0.961 . S
H479 C463 0.961 . S
H480 C464 0.931 . S
H481 C469 0.930 . S
H482 C470 0.956 . S
H483 C470 0.961 . S
H484 C470 0.961 . S
H485 C471 0.958 . S
H486 C471 0.961 . S
H487 C471 0.960 . S
C488 C489 1.391 . S
C488 C490 1.394 . S
C488 H504 0.931 . S
C489 C488 1.391 . S
C489 C493 1.376 . S
C490 C488 1.394 . S
C490 C491 1.369 . S
C490 C494 1.531 . S
C491 C490 1.369 . S
C491 C492 1.410 . S
C491 C499 1.503 . S
C492 C491 1.410 . S
C492 C493 1.392 . S
C492 C495 1.511 . S
C493 C489 1.376 . S
C493 C492 1.392 . S
C493 H505 0.929 . S
C494 C490 1.531 . S
C494 H506 0.960 . S
C494 H507 0.962 . S
C494 H508 0.960 . S
C495 C492 1.511 . S
C495 H509 0.961 . S
C495 H510 0.961 . S
C495 H511 0.961 . S
C496 C497 1.370 . S
C496 C498 1.363 . S
C496 H512 0.931 . S
C497 C496 1.370 . S
C497 C501 1.408 . S
C498 C496 1.363 . S
C498 C499 1.370 . S
C498 C502 1.524 . S
C499 C491 1.503 . S
C499 C498 1.370 . S
C499 C500 1.403 . S
C500 C499 1.403 . S
C500 C501 1.404 . S
C500 C503 1.539 . S
C501 C497 1.408 . S
C501 C500 1.404 . S
C501 H513 0.930 . S
C502 C498 1.524 . S
C502 H514 0.956 . S
C502 H515 0.961 . S
C502 H516 0.961 . S
C503 C500 1.539 . S
C503 H517 0.958 . S
C503 H518 0.961 . S
C503 H519 0.960 . S
H504 C488 0.931 . S
H505 C493 0.929 . S
H506 C494 0.960 . S
H507 C494 0.962 . S
H508 C494 0.960 . S
H509 C495 0.961 . S
H510 C495 0.961 . S
H511 C495 0.961 . S
H512 C496 0.931 . S
H513 C501 0.930 . S
H514 C502 0.956 . S
H515 C502 0.961 . S
H516 C502 0.961 . S
H517 C503 0.958 . S
H518 C503 0.961 . S
H519 C503 0.960 . S
C520 C521 1.391 . S
C520 C522 1.394 . S
C520 H536 0.931 . S
C521 C520 1.391 . S
C521 C525 1.376 . S
C522 C520 1.394 . S
C522 C523 1.369 . S
C522 C526 1.531 . S
C523 C522 1.369 . S
C523 C524 1.410 . S
C523 C531 1.503 . S
C524 C523 1.410 . S
C524 C525 1.392 . S
C524 C527 1.511 . S
C525 C521 1.376 . S
C525 C524 1.392 . S
C525 H537 0.929 . S
C526 C522 1.531 . S
C526 H538 0.960 . S
C526 H539 0.962 . S
C526 H540 0.960 . S
C527 C524 1.511 . S
C527 H541 0.961 . S
C527 H542 0.961 . S
C527 H543 0.961 . S
C528 C529 1.370 . S
C528 C530 1.363 . S
C528 H544 0.931 . S
C529 C528 1.370 . S
C529 C533 1.408 . S
C530 C528 1.363 . S
C530 C531 1.370 . S
C530 C534 1.524 . S
C531 C523 1.503 . S
C531 C530 1.370 . S
C531 C532 1.403 . S
C532 C531 1.403 . S
C532 C533 1.404 . S
C532 C535 1.539 . S
C533 C529 1.408 . S
C533 C532 1.404 . S
C533 H545 0.930 . S
C534 C530 1.524 . S
C534 H546 0.956 . S
C534 H547 0.961 . S
C534 H548 0.961 . S
C535 C532 1.539 . S
C535 H549 0.958 . S
C535 H550 0.961 . S
C535 H551 0.960 . S
H536 C520 0.931 . S
H537 C525 0.929 . S
H538 C526 0.960 . S
H539 C526 0.962 . S
H540 C526 0.960 . S
H541 C527 0.961 . S
H542 C527 0.961 . S
H543 C527 0.961 . S
H544 C528 0.931 . S
H545 C533 0.930 . S
H546 C534 0.956 . S
H547 C534 0.961 . S
H548 C534 0.961 . S
H549 C535 0.958 . S
H550 C535 0.961 . S
H551 C535 0.960 . S
C552 C553 1.391 . S
C552 C554 1.394 . S
C552 H568 0.931 . S
C553 C552 1.391 . S
C553 C557 1.376 . S
C554 C552 1.394 . S
C554 C555 1.369 . S
C554 C558 1.531 . S
C555 C554 1.369 . S
C555 C556 1.410 . S
C555 C563 1.503 . S
C556 C555 1.410 . S
C556 C557 1.392 . S
C556 C559 1.511 . S
C557 C553 1.376 . S
C557 C556 1.392 . S
C557 H569 0.929 . S
C558 C554 1.531 . S
C558 H570 0.960 . S
C558 H571 0.962 . S
C558 H572 0.960 . S
C559 C556 1.511 . S
C559 H573 0.961 . S
C559 H574 0.961 . S
C559 H575 0.961 . S
C560 C561 1.370 . S
C560 C562 1.363 . S
C560 H576 0.931 . S
C561 C560 1.370 . S
C561 C565 1.408 . S
C562 C560 1.363 . S
C562 C563 1.370 . S
C562 C566 1.524 . S
C563 C555 1.503 . S
C563 C562 1.370 . S
C563 C564 1.403 . S
C564 C563 1.403 . S
C564 C565 1.404 . S
C564 C567 1.539 . S
C565 C561 1.408 . S
C565 C564 1.404 . S
C565 H577 0.930 . S
C566 C562 1.524 . S
C566 H578 0.956 . S
C566 H579 0.961 . S
C566 H580 0.961 . S
C567 C564 1.539 . S
C567 H581 0.958 . S
C567 H582 0.961 . S
C567 H583 0.960 . S
H568 C552 0.931 . S
H569 C557 0.929 . S
H570 C558 0.960 . S
H571 C558 0.962 . S
H572 C558 0.960 . S
H573 C559 0.961 . S
H574 C559 0.961 . S
H575 C559 0.961 . S
H576 C560 0.931 . S
H577 C565 0.930 . S
H578 C566 0.956 . S
H579 C566 0.961 . S
H580 C566 0.961 . S
H581 C567 0.958 . S
H582 C567 0.961 . S
H583 C567 0.960 . S
C584 C585 1.391 . S
C584 C586 1.394 . S
C584 H600 0.931 . S
C585 C584 1.391 . S
C585 C589 1.376 . S
C586 C584 1.394 . S
C586 C587 1.369 . S
C586 C590 1.531 . S
C587 C586 1.369 . S
C587 C588 1.410 . S
C587 C595 1.503 . S
C588 C587 1.410 . S
C588 C589 1.392 . S
C588 C591 1.511 . S
C589 C585 1.376 . S
C589 C588 1.392 . S
C589 H601 0.929 . S
C590 C586 1.531 . S
C590 H602 0.960 . S
C590 H603 0.962 . S
C590 H604 0.960 . S
C591 C588 1.511 . S
C591 H605 0.961 . S
C591 H606 0.961 . S
C591 H607 0.961 . S
C592 C593 1.370 . S
C592 C594 1.363 1_554 S
C592 H608 0.931 . S
C593 C592 1.370 . S
C593 C597 1.408 . S
C594 C592 1.363 1_556 S
C594 C595 1.370 . S
C594 C598 1.524 . S
C595 C587 1.503 . S
C595 C594 1.370 . S
C595 C596 1.403 . S
C596 C595 1.403 . S
C596 C597 1.404 1_556 S
C596 C599 1.539 . S
C597 C593 1.408 . S
C597 C596 1.404 1_554 S
C597 H609 0.930 . S
C598 C594 1.524 . S
C598 H610 0.956 . S
C598 H611 0.961 . S
C598 H612 0.961 . S
C599 C596 1.539 . S
C599 H613 0.958 . S
C599 H614 0.961 . S
C599 H615 0.960 . S
H600 C584 0.931 . S
H601 C589 0.929 . S
H602 C590 0.960 . S
H603 C590 0.962 . S
H604 C590 0.960 . S
H605 C591 0.961 . S
H606 C591 0.961 . S
H607 C591 0.961 . S
H608 C592 0.931 . S
H609 C597 0.930 . S
H610 C598 0.956 . S
H611 C598 0.961 . S
H612 C598 0.961 . S
H613 C599 0.958 . S
H614 C599 0.961 . S
H615 C599 0.960 . S
C616 C617 1.391 . S
C616 C618 1.394 1_554 S
C616 H632 0.931 . S
C617 C616 1.391 . S
C617 C621 1.376 . S
C618 C616 1.394 1_556 S
C618 C619 1.369 . S
C618 C622 1.531 . S
C619 C618 1.369 . S
C619 C620 1.410 . S
C619 C627 1.503 . S
C620 C619 1.410 . S
C620 C621 1.392 1_556 S
C620 C623 1.511 . S
C621 C617 1.376 . S
C621 C620 1.392 1_554 S
C621 H633 0.929 . S
C622 C618 1.531 . S
C622 H634 0.960 . S
C622 H635 0.962 . S
C622 H636 0.960 . S
C623 C620 1.511 . S
C623 H637 0.961 . S
C623 H638 0.961 . S
C623 H639 0.961 . S
C624 C625 1.370 . S
C624 C626 1.363 . S
C624 H640 0.931 . S
C625 C624 1.370 . S
C625 C629 1.408 . S
C626 C624 1.363 . S
C626 C627 1.370 . S
C626 C630 1.524 . S
C627 C619 1.503 . S
C627 C626 1.370 . S
C627 C628 1.403 . S
C628 C627 1.403 . S
C628 C629 1.404 . S
C628 C631 1.539 . S
C629 C625 1.408 . S
C629 C628 1.404 . S
C629 H641 0.930 . S
C630 C626 1.524 . S
C630 H642 0.956 . S
C630 H643 0.961 . S
C630 H644 0.961 . S
C631 C628 1.539 . S
C631 H645 0.958 . S
C631 H646 0.961 . S
C631 H647 0.960 . S
H632 C616 0.931 . S
H633 C621 0.929 . S
H634 C622 0.960 . S
H635 C622 0.962 . S
H636 C622 0.960 . S
H637 C623 0.961 . S
H638 C623 0.961 . S
H639 C623 0.961 . S
H640 C624 0.931 . S
H641 C629 0.930 . S
H642 C630 0.956 . S
H643 C630 0.961 . S
H644 C630 0.961 . S
H645 C631 0.958 . S
H646 C631 0.961 . S
H647 C631 0.960 . S
C648 C649 1.391 . S
C648 C650 1.394 . S
C648 H664 0.931 . S
C649 C648 1.391 . S
C649 C653 1.376 . S
C650 C648 1.394 . S
C650 C651 1.369 . S
C650 C654 1.531 . S
C651 C650 1.369 . S
C651 C652 1.410 . S
C651 C659 1.503 . S
C652 C651 1.410 . S
C652 C653 1.392 . S
C652 C655 1.511 . S
C653 C649 1.376 . S
C653 C652 1.392 . S
C653 H665 0.929 . S
C654 C650 1.531 . S
C654 H666 0.960 . S
C654 H667 0.962 . S
C654 H668 0.960 . S
C655 C652 1.511 . S
C655 H669 0.961 . S
C655 H670 0.961 . S
C655 H671 0.961 . S
C656 C657 1.370 . S
C656 C658 1.363 . S
C656 H672 0.931 . S
C657 C656 1.370 . S
C657 C661 1.408 . S
C658 C656 1.363 . S
C658 C659 1.370 . S
C658 C662 1.524 . S
C659 C651 1.503 . S
C659 C658 1.370 . S
C659 C660 1.403 . S
C660 C659 1.403 . S
C660 C661 1.404 . S
C660 C663 1.539 . S
C661 C657 1.408 . S
C661 C660 1.404 . S
C661 H673 0.930 . S
C662 C658 1.524 . S
C662 H674 0.956 . S
C662 H675 0.961 . S
C662 H676 0.961 . S
C663 C660 1.539 . S
C663 H677 0.958 . S
C663 H678 0.961 . S
C663 H679 0.960 . S
H664 C648 0.931 . S
H665 C653 0.929 . S
H666 C654 0.960 . S
H667 C654 0.962 . S
H668 C654 0.960 . S
H669 C655 0.961 . S
H670 C655 0.961 . S
H671 C655 0.961 . S
H672 C656 0.931 . S
H673 C661 0.930 . S
H674 C662 0.956 . S
H675 C662 0.961 . S
H676 C662 0.961 . S
H677 C663 0.958 . S
H678 C663 0.961 . S
H679 C663 0.960 . S
C680 C681 1.391 . S
C680 C682 1.394 . S
C680 H696 0.931 . S
C681 C680 1.391 . S
C681 C685 1.376 . S
C682 C680 1.394 . S
C682 C683 1.369 . S
C682 C686 1.531 . S
C683 C682 1.369 . S
C683 C684 1.410 . S
C683 C691 1.503 . S
C684 C683 1.410 . S
C684 C685 1.392 . S
C684 C687 1.511 . S
C685 C681 1.376 . S
C685 C684 1.392 . S
C685 H697 0.929 . S
C686 C682 1.531 . S
C686 H698 0.960 . S
C686 H699 0.962 . S
C686 H700 0.960 . S
C687 C684 1.511 . S
C687 H701 0.961 . S
C687 H702 0.961 . S
C687 H703 0.961 . S
C688 C689 1.370 . S
C688 C690 1.363 . S
C688 H704 0.931 . S
C689 C688 1.370 . S
C689 C693 1.408 . S
C690 C688 1.363 . S
C690 C691 1.370 . S
C690 C694 1.524 . S
C691 C683 1.503 . S
C691 C690 1.370 . S
C691 C692 1.403 . S
C692 C691 1.403 . S
C692 C693 1.404 . S
C692 C695 1.539 . S
C693 C689 1.408 . S
C693 C692 1.404 . S
C693 H705 0.930 . S
C694 C690 1.524 . S
C694 H706 0.956 . S
C694 H707 0.961 . S
C694 H708 0.961 . S
C695 C692 1.539 . S
C695 H709 0.958 . S
C695 H710 0.961 . S
C695 H711 0.960 . S
H696 C680 0.931 . S
H697 C685 0.929 . S
H698 C686 0.960 . S
H699 C686 0.962 . S
H700 C686 0.960 . S
H701 C687 0.961 . S
H702 C687 0.961 . S
H703 C687 0.961 . S
H704 C688 0.931 . S
H705 C693 0.930 . S
H706 C694 0.956 . S
H707 C694 0.961 . S
H708 C694 0.961 . S
H709 C695 0.958 . S
H710 C695 0.961 . S
H711 C695 0.960 . S
C712 C713 1.391 . S
C712 C714 1.394 . S
C712 H728 0.931 . S
C713 C712 1.391 . S
C713 C717 1.376 . S
C714 C712 1.394 . S
C714 C715 1.369 . S
C714 C718 1.531 . S
C715 C714 1.369 . S
C715 C716 1.410 . S
C715 C723 1.503 . S
C716 C715 1.410 . S
C716 C717 1.392 . S
C716 C719 1.511 . S
C717 C713 1.376 . S
C717 C716 1.392 . S
C717 H729 0.929 . S
C718 C714 1.531 . S
C718 H730 0.960 . S
C718 H731 0.962 . S
C718 H732 0.960 . S
C719 C716 1.511 . S
C719 H733 0.961 . S
C719 H734 0.961 . S
C719 H735 0.961 . S
C720 C721 1.370 . S
C720 C722 1.363 1_556 S
C720 H736 0.931 . S
C721 C720 1.370 . S
C721 C725 1.408 . S
C722 C720 1.363 1_554 S
C722 C723 1.370 . S
C722 C726 1.524 . S
C723 C715 1.503 . S
C723 C722 1.370 . S
C723 C724 1.403 . S
C724 C723 1.403 . S
C724 C725 1.404 1_554 S
C724 C727 1.539 . S
C725 C721 1.408 . S
C725 C724 1.404 1_556 S
C725 H737 0.930 . S
C726 C722 1.524 . S
C726 H738 0.956 . S
C726 H739 0.961 . S
C726 H740 0.961 . S
C727 C724 1.539 . S
C727 H741 0.958 . S
C727 H742 0.961 . S
C727 H743 0.960 . S
H728 C712 0.931 . S
H729 C717 0.929 . S
H730 C718 0.960 . S
H731 C718 0.962 . S
H732 C718 0.960 . S
H733 C719 0.961 . S
H734 C719 0.961 . S
H735 C719 0.961 . S
H736 C720 0.931 . S
H737 C725 0.930 . S
H738 C726 0.956 . S
H739 C726 0.961 . S
H740 C726 0.961 . S
H741 C727 0.958 . S
H742 C727 0.961 . S
H743 C727 0.960 . S
C744 C745 1.391 . S
C744 C746 1.394 . S
C744 H760 0.931 . S
C745 C744 1.391 . S
C745 C749 1.376 . S
C746 C744 1.394 . S
C746 C747 1.369 . S
C746 C750 1.531 . S
C747 C746 1.369 . S
C747 C748 1.410 . S
C747 C755 1.503 . S
C748 C747 1.410 . S
C748 C749 1.392 . S
C748 C751 1.511 . S
C749 C745 1.376 . S
C749 C748 1.392 . S
C749 H761 0.929 . S
C750 C746 1.531 . S
C750 H762 0.960 . S
C750 H763 0.962 . S
C750 H764 0.960 . S
C751 C748 1.511 . S
C751 H765 0.961 . S
C751 H766 0.961 . S
C751 H767 0.961 . S
C752 C753 1.370 . S
C752 C754 1.363 1_556 S
C752 H768 0.931 . S
C753 C752 1.370 . S
C753 C757 1.408 . S
C754 C752 1.363 1_554 S
C754 C755 1.370 . S
C754 C758 1.524 . S
C755 C747 1.503 . S
C755 C754 1.370 . S
C755 C756 1.403 . S
C756 C755 1.403 . S
C756 C757 1.404 1_554 S
C756 C759 1.539 . S
C757 C753 1.408 . S
C757 C756 1.404 1_556 S
C757 H769 0.930 . S
C758 C754 1.524 . S
C758 H770 0.956 . S
C758 H771 0.961 . S
C758 H772 0.961 . S
C759 C756 1.539 . S
C759 H773 0.958 . S
C759 H774 0.961 . S
C759 H775 0.960 . S
H760 C744 0.931 . S
H761 C749 0.929 . S
H762 C750 0.960 . S
H763 C750 0.962 . S
H764 C750 0.960 . S
H765 C751 0.961 . S
H766 C751 0.961 . S
H767 C751 0.961 . S
H768 C752 0.931 . S
H769 C757 0.930 . S
H770 C758 0.956 . S
H771 C758 0.961 . S
H772 C758 0.961 . S
H773 C759 0.958 . S
H774 C759 0.961 . S
H775 C759 0.960 . S
C776 C777 1.391 . S
C776 C778 1.394 . S
C776 H792 0.931 . S
C777 C776 1.391 . S
C777 C781 1.376 . S
C778 C776 1.394 . S
C778 C779 1.369 . S
C778 C782 1.531 . S
C779 C778 1.369 . S
C779 C780 1.410 . S
C779 C787 1.503 . S
C780 C779 1.410 . S
C780 C781 1.392 . S
C780 C783 1.511 . S
C781 C777 1.376 . S
C781 C780 1.392 . S
C781 H793 0.929 . S
C782 C778 1.531 . S
C782 H794 0.960 . S
C782 H795 0.962 . S
C782 H796 0.960 . S
C783 C780 1.511 . S
C783 H797 0.961 . S
C783 H798 0.961 . S
C783 H799 0.961 . S
C784 C785 1.370 . S
C784 C786 1.363 . S
C784 H800 0.931 . S
C785 C784 1.370 . S
C785 C789 1.408 . S
C786 C784 1.363 . S
C786 C787 1.370 . S
C786 C790 1.524 . S
C787 C779 1.503 . S
C787 C786 1.370 . S
C787 C788 1.403 . S
C788 C787 1.403 . S
C788 C789 1.404 . S
C788 C791 1.539 . S
C789 C785 1.408 . S
C789 C788 1.404 . S
C789 H801 0.930 . S
C790 C786 1.524 . S
C790 H802 0.956 . S
C790 H803 0.961 . S
C790 H804 0.961 . S
C791 C788 1.539 . S
C791 H805 0.958 . S
C791 H806 0.961 . S
C791 H807 0.960 . S
H792 C776 0.931 . S
H793 C781 0.929 . S
H794 C782 0.960 . S
H795 C782 0.962 . S
H796 C782 0.960 . S
H797 C783 0.961 . S
H798 C783 0.961 . S
H799 C783 0.961 . S
H800 C784 0.931 . S
H801 C789 0.930 . S
H802 C790 0.956 . S
H803 C790 0.961 . S
H804 C790 0.961 . S
H805 C791 0.958 . S
H806 C791 0.961 . S
H807 C791 0.960 . S
C808 C809 1.391 . S
C808 C810 1.394 . S
C808 H824 0.931 . S
C809 C808 1.391 . S
C809 C813 1.376 . S
C810 C808 1.394 . S
C810 C811 1.369 . S
C810 C814 1.531 . S
C811 C810 1.369 . S
C811 C812 1.410 . S
C811 C819 1.503 . S
C812 C811 1.410 . S
C812 C813 1.392 . S
C812 C815 1.511 . S
C813 C809 1.376 . S
C813 C812 1.392 . S
C813 H825 0.929 . S
C814 C810 1.531 . S
C814 H826 0.960 . S
C814 H827 0.962 . S
C814 H828 0.960 . S
C815 C812 1.511 . S
C815 H829 0.961 . S
C815 H830 0.961 . S
C815 H831 0.961 . S
C816 C817 1.370 . S
C816 C818 1.363 . S
C816 H832 0.931 . S
C817 C816 1.370 . S
C817 C821 1.408 . S
C818 C816 1.363 . S
C818 C819 1.370 . S
C818 C822 1.524 . S
C819 C811 1.503 . S
C819 C818 1.370 . S
C819 C820 1.403 . S
C820 C819 1.403 . S
C820 C821 1.404 . S
C820 C823 1.539 . S
C821 C817 1.408 . S
C821 C820 1.404 . S
C821 H833 0.930 . S
C822 C818 1.524 . S
C822 H834 0.956 . S
C822 H835 0.961 . S
C822 H836 0.961 . S
C823 C820 1.539 . S
C823 H837 0.958 . S
C823 H838 0.961 . S
C823 H839 0.960 . S
H824 C808 0.931 . S
H825 C813 0.929 . S
H826 C814 0.960 . S
H827 C814 0.962 . S
H828 C814 0.960 . S
H829 C815 0.961 . S
H830 C815 0.961 . S
H831 C815 0.961 . S
H832 C816 0.931 . S
H833 C821 0.930 . S
H834 C822 0.956 . S
H835 C822 0.961 . S
H836 C822 0.961 . S
H837 C823 0.958 . S
H838 C823 0.961 . S
H839 C823 0.960 . S
C840 C841 1.391 . S
C840 C842 1.394 . S
C840 H856 0.931 . S
C841 C840 1.391 . S
C841 C845 1.376 . S
C842 C840 1.394 . S
C842 C843 1.369 . S
C842 C846 1.531 . S
C843 C842 1.369 . S
C843 C844 1.410 . S
C843 C851 1.503 . S
C844 C843 1.410 . S
C844 C845 1.392 . S
C844 C847 1.511 . S
C845 C841 1.376 . S
C845 C844 1.392 . S
C845 H857 0.929 . S
C846 C842 1.531 . S
C846 H858 0.960 . S
C846 H859 0.962 . S
C846 H860 0.960 . S
C847 C844 1.511 . S
C847 H861 0.961 . S
C847 H862 0.961 . S
C847 H863 0.961 . S
C848 C849 1.370 . S
C848 C850 1.363 . S
C848 H864 0.931 . S
C849 C848 1.370 . S
C849 C853 1.408 . S
C850 C848 1.363 . S
C850 C851 1.370 . S
C850 C854 1.524 . S
C851 C843 1.503 . S
C851 C850 1.370 . S
C851 C852 1.403 . S
C852 C851 1.403 . S
C852 C853 1.404 . S
C852 C855 1.539 . S
C853 C849 1.408 . S
C853 C852 1.404 . S
C853 H865 0.930 . S
C854 C850 1.524 . S
C854 H866 0.956 . S
C854 H867 0.961 . S
C854 H868 0.961 . S
C855 C852 1.539 . S
C855 H869 0.958 . S
C855 H870 0.961 . S
C855 H871 0.960 . S
H856 C840 0.931 . S
H857 C845 0.929 . S
H858 C846 0.960 . S
H859 C846 0.962 . S
H860 C846 0.960 . S
H861 C847 0.961 . S
H862 C847 0.961 . S
H863 C847 0.961 . S
H864 C848 0.931 . S
H865 C853 0.930 . S
H866 C854 0.956 . S
H867 C854 0.961 . S
H868 C854 0.961 . S
H869 C855 0.958 . S
H870 C855 0.961 . S
H871 C855 0.960 . S
C872 C873 1.391 . S
C872 C874 1.394 . S
C872 H888 0.931 . S
C873 C872 1.391 . S
C873 C877 1.376 . S
C874 C872 1.394 . S
C874 C875 1.369 . S
C874 C878 1.531 . S
C875 C874 1.369 . S
C875 C876 1.410 . S
C875 C883 1.503 . S
C876 C875 1.410 . S
C876 C877 1.392 . S
C876 C879 1.511 . S
C877 C873 1.376 . S
C877 C876 1.392 . S
C877 H889 0.929 . S
C878 C874 1.531 . S
C878 H890 0.960 . S
C878 H891 0.962 . S
C878 H892 0.960 . S
C879 C876 1.511 . S
C879 H893 0.961 . S
C879 H894 0.961 . S
C879 H895 0.961 . S
C880 C881 1.370 . S
C880 C882 1.363 . S
C880 H896 0.931 . S
C881 C880 1.370 . S
C881 C885 1.408 . S
C882 C880 1.363 . S
C882 C883 1.370 . S
C882 C886 1.524 . S
C883 C875 1.503 . S
C883 C882 1.370 . S
C883 C884 1.403 . S
C884 C883 1.403 . S
C884 C885 1.404 . S
C884 C887 1.539 . S
C885 C881 1.408 . S
C885 C884 1.404 . S
C885 H897 0.930 . S
C886 C882 1.524 . S
C886 H898 0.956 . S
C886 H899 0.961 . S
C886 H900 0.961 . S
C887 C884 1.539 . S
C887 H901 0.958 . S
C887 H902 0.961 . S
C887 H903 0.960 . S
H888 C872 0.931 . S
H889 C877 0.929 . S
H890 C878 0.960 . S
H891 C878 0.962 . S
H892 C878 0.960 . S
H893 C879 0.961 . S
H894 C879 0.961 . S
H895 C879 0.961 . S
H896 C880 0.931 . S
H897 C885 0.930 . S
H898 C886 0.956 . S
H899 C886 0.961 . S
H900 C886 0.961 . S
H901 C887 0.958 . S
H902 C887 0.961 . S
H903 C887 0.960 . S
C265 C54 1.505 . S
C273 C21 1.507 . S
C297 C87 1.507 . S
C305 C120 1.508 . S
C329 C186 1.505 . S
C337 C153 1.509 . S
C361 C219 1.505 . S
C369 C252 1.509 . S
C393 C139 1.489 . S
C401 C7 1.517 . S
C425 C40 1.520 . S
C433 C172 1.503 . S
C457 C73 1.488 . S
C465 C205 1.517 . S
C489 C106 1.494 . S
C497 C238 1.514 . S
C521 N2 1.340 . S
C529 N13 1.318 . S
C553 N46 1.335 . S
C561 N35 1.319 . S
C585 N68 1.302 . S
C593 N79 1.332 . S
C617 N112 1.339 . S
C625 N101 1.317 . S
C649 N134 1.304 . S
C657 N145 1.331 . S
C681 N178 1.340 . S
C689 N167 1.315 . S
C713 N200 1.329 . S
C721 N211 1.323 . S
C745 N233 1.309 . S
C753 N244 1.328 . S
C777 C18 1.514 . S
C785 C84 1.531 . S
C809 C51 1.517 . S
C817 C117 1.534 . S
C841 C150 1.536 . S
C849 C216 1.524 . S
C873 C183 1.535 . S
C881 C249 1.524 . S
