# Generated by pormake.
# Topology ecv, (8)-cn, num edge types: 1
# Building blocks:
#     Node 0, Type 0, BuildingBlock: TAGTUT_clean_sbu_3, # of connection points: 8
#     Node 1, Type 0, BuildingBlock: TAGTUT_clean_sbu_3, # of connection points: 8
#     Node 2, Type 0, BuildingBlock: TAGTUT_clean_sbu_3, # of connection points: 8
#     Node 3, Type 0, BuildingBlock: TAGTUT_clean_sbu_3, # of connection points: 8
#     Node 4, Type 0, BuildingBlock: TAGTUT_clean_sbu_3, # of connection points: 8
#     Node 5, Type 0, BuildingBlock: TAGTUT_clean_sbu_3, # of connection points: 8
#     Node 6, Type 0, BuildingBlock: TAGTUT_clean_sbu_3, # of connection points: 8
#     Node 7, Type 0, BuildingBlock: TAGTUT_clean_sbu_3, # of connection points: 8
#     Node 8, Type 0, BuildingBlock: TAGTUT_clean_sbu_3, # of connection points: 8
#     Node 9, Type 0, BuildingBlock: TAGTUT_clean_sbu_3, # of connection points: 8
#     Node 10, Type 0, BuildingBlock: TAGTUT_clean_sbu_3, # of connection points: 8
#     Node 11, Type 0, BuildingBlock: TAGTUT_clean_sbu_3, # of connection points: 8
#     Node 12, Type 0, BuildingBlock: TAGTUT_clean_sbu_3, # of connection points: 8
#     Node 13, Type 0, BuildingBlock: TAGTUT_clean_sbu_3, # of connection points: 8
#     Node 14, Type 0, BuildingBlock: TAGTUT_clean_sbu_3, # of connection points: 8
#     Node 15, Type 0, BuildingBlock: TAGTUT_clean_sbu_3, # of connection points: 8
#     Edge 16, Type (0, 0), BuildingBlock: CIFDUS_clean_linker_0, # of connection points: 2
#     Edge 17, Type (0, 0), BuildingBlock: CIFDUS_clean_linker_0, # of connection points: 2
#     Edge 18, Type (0, 0), BuildingBlock: CIFDUS_clean_linker_0, # of connection points: 2
#     Edge 19, Type (0, 0), BuildingBlock: CIFDUS_clean_linker_0, # of connection points: 2
#     Edge 20, Type (0, 0), BuildingBlock: CIFDUS_clean_linker_0, # of connection points: 2
#     Edge 21, Type (0, 0), BuildingBlock: CIFDUS_clean_linker_0, # of connection points: 2
#     Edge 22, Type (0, 0), BuildingBlock: CIFDUS_clean_linker_0, # of connection points: 2
#     Edge 23, Type (0, 0), BuildingBlock: CIFDUS_clean_linker_0, # of connection points: 2
#     Edge 24, Type (0, 0), BuildingBlock: CIFDUS_clean_linker_0, # of connection points: 2
#     Edge 25, Type (0, 0), BuildingBlock: CIFDUS_clean_linker_0, # of connection points: 2
#     Edge 26, Type (0, 0), BuildingBlock: CIFDUS_clean_linker_0, # of connection points: 2
#     Edge 27, Type (0, 0), BuildingBlock: CIFDUS_clean_linker_0, # of connection points: 2
#     Edge 28, Type (0, 0), BuildingBlock: CIFDUS_clean_linker_0, # of connection points: 2
#     Edge 29, Type (0, 0), BuildingBlock: CIFDUS_clean_linker_0, # of connection points: 2
#     Edge 30, Type (0, 0), BuildingBlock: CIFDUS_clean_linker_0, # of connection points: 2
#     Edge 31, Type (0, 0), BuildingBlock: CIFDUS_clean_linker_0, # of connection points: 2
#     Edge 32, Type (0, 0), BuildingBlock: CIFDUS_clean_linker_0, # of connection points: 2
#     Edge 33, Type (0, 0), BuildingBlock: CIFDUS_clean_linker_0, # of connection points: 2
#     Edge 34, Type (0, 0), BuildingBlock: CIFDUS_clean_linker_0, # of connection points: 2
#     Edge 35, Type (0, 0), BuildingBlock: CIFDUS_clean_linker_0, # of connection points: 2
#     Edge 36, Type (0, 0), BuildingBlock: CIFDUS_clean_linker_0, # of connection points: 2
#     Edge 37, Type (0, 0), BuildingBlock: CIFDUS_clean_linker_0, # of connection points: 2
#     Edge 38, Type (0, 0), BuildingBlock: CIFDUS_clean_linker_0, # of connection points: 2
#     Edge 39, Type (0, 0), BuildingBlock: CIFDUS_clean_linker_0, # of connection points: 2
#     Edge 40, Type (0, 0), BuildingBlock: CIFDUS_clean_linker_0, # of connection points: 2
#     Edge 41, Type (0, 0), BuildingBlock: CIFDUS_clean_linker_0, # of connection points: 2
#     Edge 42, Type (0, 0), BuildingBlock: CIFDUS_clean_linker_0, # of connection points: 2
#     Edge 43, Type (0, 0), BuildingBlock: CIFDUS_clean_linker_0, # of connection points: 2
#     Edge 44, Type (0, 0), BuildingBlock: CIFDUS_clean_linker_0, # of connection points: 2
#     Edge 45, Type (0, 0), BuildingBlock: CIFDUS_clean_linker_0, # of connection points: 2
#     Edge 46, Type (0, 0), BuildingBlock: CIFDUS_clean_linker_0, # of connection points: 2
#     Edge 47, Type (0, 0), BuildingBlock: CIFDUS_clean_linker_0, # of connection points: 2
#     Edge 48, Type (0, 0), BuildingBlock: CIFDUS_clean_linker_0, # of connection points: 2
#     Edge 49, Type (0, 0), BuildingBlock: CIFDUS_clean_linker_0, # of connection points: 2
#     Edge 50, Type (0, 0), BuildingBlock: CIFDUS_clean_linker_0, # of connection points: 2
#     Edge 51, Type (0, 0), BuildingBlock: CIFDUS_clean_linker_0, # of connection points: 2
#     Edge 52, Type (0, 0), BuildingBlock: CIFDUS_clean_linker_0, # of connection points: 2
#     Edge 53, Type (0, 0), BuildingBlock: CIFDUS_clean_linker_0, # of connection points: 2
#     Edge 54, Type (0, 0), BuildingBlock: CIFDUS_clean_linker_0, # of connection points: 2
#     Edge 55, Type (0, 0), BuildingBlock: CIFDUS_clean_linker_0, # of connection points: 2
#     Edge 56, Type (0, 0), BuildingBlock: CIFDUS_clean_linker_0, # of connection points: 2
#     Edge 57, Type (0, 0), BuildingBlock: CIFDUS_clean_linker_0, # of connection points: 2
#     Edge 58, Type (0, 0), BuildingBlock: CIFDUS_clean_linker_0, # of connection points: 2
#     Edge 59, Type (0, 0), BuildingBlock: CIFDUS_clean_linker_0, # of connection points: 2
#     Edge 60, Type (0, 0), BuildingBlock: CIFDUS_clean_linker_0, # of connection points: 2
#     Edge 61, Type (0, 0), BuildingBlock: CIFDUS_clean_linker_0, # of connection points: 2
#     Edge 62, Type (0, 0), BuildingBlock: CIFDUS_clean_linker_0, # of connection points: 2
#     Edge 63, Type (0, 0), BuildingBlock: CIFDUS_clean_linker_0, # of connection points: 2
#     Edge 64, Type (0, 0), BuildingBlock: CIFDUS_clean_linker_0, # of connection points: 2
#     Edge 65, Type (0, 0), BuildingBlock: CIFDUS_clean_linker_0, # of connection points: 2
#     Edge 66, Type (0, 0), BuildingBlock: CIFDUS_clean_linker_0, # of connection points: 2
#     Edge 67, Type (0, 0), BuildingBlock: CIFDUS_clean_linker_0, # of connection points: 2
#     Edge 68, Type (0, 0), BuildingBlock: CIFDUS_clean_linker_0, # of connection points: 2
#     Edge 69, Type (0, 0), BuildingBlock: CIFDUS_clean_linker_0, # of connection points: 2
#     Edge 70, Type (0, 0), BuildingBlock: CIFDUS_clean_linker_0, # of connection points: 2
#     Edge 71, Type (0, 0), BuildingBlock: CIFDUS_clean_linker_0, # of connection points: 2
#     Edge 72, Type (0, 0), BuildingBlock: CIFDUS_clean_linker_0, # of connection points: 2
#     Edge 73, Type (0, 0), BuildingBlock: CIFDUS_clean_linker_0, # of connection points: 2
#     Edge 74, Type (0, 0), BuildingBlock: CIFDUS_clean_linker_0, # of connection points: 2
#     Edge 75, Type (0, 0), BuildingBlock: CIFDUS_clean_linker_0, # of connection points: 2
#     Edge 76, Type (0, 0), BuildingBlock: CIFDUS_clean_linker_0, # of connection points: 2
#     Edge 77, Type (0, 0), BuildingBlock: CIFDUS_clean_linker_0, # of connection points: 2
#     Edge 78, Type (0, 0), BuildingBlock: CIFDUS_clean_linker_0, # of connection points: 2
#     Edge 79, Type (0, 0), BuildingBlock: CIFDUS_clean_linker_0, # of connection points: 2
# Relax obj value: 0.124
# Max RMSD: 0.210
# Mean RMSD: 0.191
data_MOF--net-ecv--node1-TAGTUT_clean_sbu_3--edge1-CIFDUS_clean_linker_0
_symmetry_space_group_name_H-M    P1
_symmetry_Int_Tables_number       1
_symmetry_cell_setting            triclinic
loop_
_symmetry_equiv_pos_as_xyz
'x, y, z'
_cell_length_a     19.363453
_cell_length_b     21.250648
_cell_length_c     109.68229
_cell_angle_alpha  88.440302
_cell_angle_beta   90.090634
_cell_angle_gamma 90.089823
loop_
_atom_site_label
_atom_site_type_symbol
_atom_site_fract_x
_atom_site_fract_y
_atom_site_fract_z
_atom_type_partial_charge
C0 C -0.00076 0.08377 0.46275 0.0
C1 C 0.22307 0.21804 0.46299 0.0
C2 C 0.18276 0.24055 0.42531 0.0
Mg3 Mg 0.92723 0.01902 0.43892 0.0
Mg4 Mg 0.01833 0.96376 0.41583 0.0
O5 O -0.00315 0.03226 0.42578 0.0
Mg6 Mg 0.06761 0.07293 0.43578 0.0
O7 O 0.13217 0.11901 0.4466 0.0
Mg8 Mg 0.07627 0.20016 0.44789 0.0
Mg9 Mg 0.22063 0.12957 0.44058 0.0
C10 C 0.12743 0.06349 0.40693 0.0
O11 O 0.14095 0.98619 0.43794 0.0
O12 O 0.85442 0.99458 0.42262 0.0
O13 O 0.2462 0.03115 0.43883 0.0
O14 O 0.96701 0.91949 0.44156 0.0
O15 O 0.91836 0.95586 0.40746 0.0
O16 O 0.04287 0.88636 0.42795 0.0
O17 O 0.00139 0.16236 0.4339 0.0
O18 O 0.89626 0.12182 0.43613 0.0
C19 C 0.93583 0.16939 0.43443 0.0
C20 C 0.86054 0.97416 0.41173 0.0
O21 O 0.12283 0.09234 0.41709 0.0
O22 O 0.15836 0.22913 0.4616 0.0
O23 O 0.09596 0.01164 0.40496 0.0
O24 O 0.14065 0.25672 0.43358 0.0
O25 O 0.25716 0.1823 0.45592 0.0
O26 O 0.19902 0.18331 0.42438 0.0
O27 O 0.00897 0.04794 0.45363 0.0
O28 O 0.01765 0.14174 0.4623 0.0
C29 C 0.01007 0.87838 0.43795 0.0
C30 C 0.20733 0.98227 0.43853 0.0
C31 C 0.94586 0.10347 0.8323 0.0
C32 C 0.88348 0.28649 0.85867 0.0
C33 C 0.03273 0.39394 0.83521 0.0
Mg34 Mg 0.08906 0.07045 0.81991 0.0
Mg35 Mg 0.24002 0.13676 0.82817 0.0
O36 O 0.14963 0.14902 0.82259 0.0
Mg37 Mg 0.08518 0.1921 0.83389 0.0
O38 O 0.01598 0.23196 0.84405 0.0
Mg39 Mg 0.94876 0.2552 0.83093 0.0
Mg40 Mg 0.04198 0.29562 0.85487 0.0
C41 C 0.22806 0.28289 0.83244 0.0
O42 O 0.13811 0.16269 0.85279 0.0
O43 O 0.1714 0.04582 0.80611 0.0
O44 O 0.11985 0.24444 0.86498 0.0
O45 O 0.14904 0.00409 0.83352 0.0
O46 O 0.27244 0.089 0.81189 0.0
O47 O 0.20532 0.07732 0.84264 0.0
O48 O 0.02989 0.22777 0.81612 0.0
O49 O 0.03487 0.13671 0.80631 0.0
C50 C 0.01848 0.195 0.80661 0.0
C51 C 0.23608 0.05634 0.80456 0.0
O52 O 0.1618 0.27804 0.8332 0.0
O53 O 0.87504 0.27453 0.84732 0.0
O54 O 0.26694 0.23458 0.83129 0.0
O55 O 0.99151 0.35376 0.83068 0.0
O56 O 0.9427 0.29938 0.86319 0.0
O57 O 0.06616 0.38091 0.84495 0.0
O58 O 0.01172 0.10389 0.834 0.0
O59 O 0.9123 0.1549 0.83124 0.0
C60 C 0.20216 0.02083 0.83951 0.0
C61 C 0.14671 0.1906 0.863 0.0
C62 C 0.03308 0.79441 0.57331 0.0
C63 C 0.98685 0.88232 0.61672 0.0
C64 C 0.78319 0.92206 0.60194 0.0
Mg65 Mg 0.96404 0.82969 0.54701 0.0
Mg66 Mg 0.89614 0.96948 0.54121 0.0
O67 O 0.89901 0.89938 0.55166 0.0
Mg68 Mg 0.92267 0.90744 0.56931 0.0
O69 O 0.9466 0.90682 0.58699 0.0
Mg70 Mg 0.90655 0.82302 0.59204 0.0
Mg71 Mg 0.92754 0.97604 0.5968 0.0
C72 C 0.80947 0.02241 0.563 0.0
O73 O 0.99598 0.996 0.56748 0.0
O74 O 0.90466 0.82634 0.52917 0.0
O75 O 0.9865 0.04482 0.58546 0.0
O76 O 0.03615 0.89725 0.535 0.0
O77 O 0.85859 0.92248 0.52553 0.0
O78 O 0.00012 0.99395 0.53814 0.0
O79 O 0.85249 0.81846 0.57294 0.0
O80 O 0.88576 0.76448 0.5568 0.0
C81 C 0.84849 0.76911 0.56638 0.0
C82 C 0.86955 0.86546 0.52258 0.0
O83 O 0.8318 0.9796 0.5706 0.0
O84 O 0.96514 0.83516 0.61065 0.0
O85 O 0.8313 0.02783 0.55199 0.0
O86 O 0.81041 0.86893 0.59972 0.0
O87 O 0.97778 0.93942 0.613 0.0
O88 O 0.81701 0.97363 0.60062 0.0
O89 O 0.01343 0.84011 0.56623 0.0
O90 O 0.00203 0.78175 0.58338 0.0
C91 C 0.03424 0.95582 0.53178 0.0
C92 C 0.01203 0.04117 0.57465 0.0
C93 C 0.80439 0.93592 0.19781 0.0
C94 C 0.83092 0.84968 0.24253 0.0
C95 C 0.00976 0.76929 0.2324 0.0
Mg96 Mg 0.87066 0.88659 0.17286 0.0
Mg97 Mg 0.90418 0.73589 0.16853 0.0
O98 O 0.91817 0.80639 0.17822 0.0
Mg99 Mg 0.89231 0.8052 0.19588 0.0
O100 O 0.86542 0.81368 0.21337 0.0
Mg101 Mg 0.92216 0.889 0.21781 0.0
Mg102 Mg 0.86647 0.7457 0.22429 0.0
C103 C 0.98899 0.67696 0.19127 0.0
O104 O 0.80778 0.72774 0.19469 0.0
O105 O 0.929 0.87818 0.15447 0.0
O106 O 0.80677 0.68231 0.21357 0.0
O107 O 0.77897 0.83296 0.1651 0.0
O108 O 0.95151 0.77524 0.15226 0.0
O109 O 0.7947 0.72911 0.16463 0.0
O110 O 0.97502 0.87977 0.1989 0.0
O111 O 0.96258 0.93615 0.18153 0.0
C112 C 0.99268 0.92601 0.19181 0.0
C113 C 0.9548 0.83278 0.14846 0.0
O114 O 0.97098 0.72192 0.1983 0.0
O115 O 0.86301 0.88991 0.2357 0.0
O116 O 0.96457 0.67174 0.1804 0.0
O117 O 0.00042 0.82753 0.22945 0.0
O118 O 0.82376 0.79176 0.23981 0.0
O119 O 0.97151 0.72651 0.2281 0.0
O120 O 0.8175 0.88672 0.1917 0.0
O121 O 0.83692 0.94642 0.20774 0.0
C122 C 0.75664 0.77772 0.16299 0.0
C123 C 0.78656 0.68517 0.20243 0.0
C124 C 0.02673 0.57519 0.9596 0.0
C125 C 0.2442 0.71199 0.9618 0.0
C126 C 0.21036 0.74428 0.92451 0.0
Mg127 Mg 0.95953 0.51697 0.9349 0.0
Mg128 Mg 0.04452 0.48595 0.90859 0.0
O129 O 0.02251 0.54345 0.92138 0.0
Mg130 Mg 0.0905 0.57964 0.93236 0.0
O131 O 0.15351 0.61979 0.94397 0.0
Mg132 Mg 0.0975 0.69929 0.94625 0.0
Mg133 Mg 0.24461 0.62885 0.93908 0.0
C134 C 0.15543 0.59017 0.90372 0.0
O135 O 0.16525 0.49107 0.93297 0.0
O136 O 0.88571 0.50363 0.91812 0.0
O137 O 0.27053 0.53092 0.9366 0.0
O138 O 0.02349 0.42562 0.93391 0.0
O139 O 0.94417 0.4897 0.90066 0.0
O140 O 0.05744 0.39248 0.91657 0.0
O141 O 0.01679 0.66926 0.93224 0.0
O142 O 0.91836 0.61647 0.93522 0.0
C143 C 0.95057 0.66888 0.93394 0.0
C144 C 0.88782 0.49708 0.90651 0.0
O145 O 0.14621 0.61006 0.91455 0.0
O146 O 0.17991 0.72282 0.96 0.0
O147 O 0.1256 0.54093 0.8997 0.0
O148 O 0.16462 0.75871 0.93238 0.0
O149 O 0.28033 0.67753 0.95485 0.0
O150 O 0.22974 0.68782 0.92349 0.0
O151 O 0.03681 0.54429 0.94983 0.0
O152 O 0.04135 0.6341 0.96001 0.0
C153 C 0.01543 0.38704 0.92544 0.0
C154 C 0.23079 0.48392 0.93467 0.0
C155 C 0.93014 0.56485 0.32759 0.0
C156 C 0.84567 0.74737 0.35104 0.0
C157 C 0.01153 0.85316 0.33063 0.0
Mg158 Mg 0.07352 0.53372 0.31637 0.0
Mg159 Mg 0.22055 0.59614 0.32664 0.0
O160 O 0.1348 0.61192 0.31928 0.0
Mg161 Mg 0.06538 0.65703 0.32947 0.0
O162 O 0.99096 0.69536 0.33892 0.0
Mg163 Mg 0.92864 0.71578 0.32485 0.0
Mg164 Mg 0.00624 0.7551 0.35108 0.0
C165 C 0.2084 0.74333 0.33026 0.0
O166 O 0.11259 0.63159 0.34808 0.0
O167 O 0.15973 0.50545 0.30409 0.0
O168 O 0.08206 0.70257 0.36197 0.0
O169 O 0.12301 0.46609 0.33098 0.0
O170 O 0.25974 0.54647 0.31091 0.0
O171 O 0.17769 0.5373 0.34073 0.0
O172 O 0.01641 0.69005 0.31136 0.0
O173 O 0.02896 0.59987 0.30163 0.0
C174 C 0.01304 0.65835 0.30157 0.0
C175 C 0.22507 0.51382 0.30332 0.0
O176 O 0.14199 0.74084 0.32957 0.0
O177 O 0.84704 0.73611 0.33959 0.0
O178 O 0.24633 0.69383 0.33011 0.0
O179 O 0.97236 0.81492 0.32499 0.0
O180 O 0.90056 0.75772 0.35722 0.0
O181 O 0.0361 0.83893 0.34115 0.0
O182 O 0.99499 0.57092 0.32936 0.0
O183 O 0.89233 0.61317 0.32553 0.0
C184 C 0.1749 0.48122 0.33738 0.0
C185 C 0.11577 0.65371 0.35883 0.0
C186 C 0.99403 0.278 0.06784 0.0
C187 C 0.96443 0.33219 0.11254 0.0
C188 C 0.75926 0.39751 0.10102 0.0
Mg189 Mg 0.92341 0.32001 0.04187 0.0
Mg190 Mg 0.87496 0.48757 0.04152 0.0
O191 O 0.87083 0.40147 0.04871 0.0
Mg192 Mg 0.89289 0.39688 0.06666 0.0
O193 O 0.91671 0.38357 0.08429 0.0
Mg194 Mg 0.87089 0.30011 0.08737 0.0
Mg195 Mg 0.90856 0.44501 0.09636 0.0
C196 C 0.7979 0.52711 0.0651 0.0
O197 O 0.97235 0.48153 0.0669 0.0
O198 O 0.83377 0.38896 0.03896 0.0
O199 O 0.9696 0.51809 0.08609 0.0
O200 O 0.99251 0.3908 0.03005 0.0
O201 O 0.80602 0.46643 0.02657 0.0
O202 O 0.97711 0.49311 0.03417 0.0
O203 O 0.81659 0.31063 0.06852 0.0
O204 O 0.84583 0.25708 0.05202 0.0
C205 C 0.80956 0.26265 0.06167 0.0
C206 C 0.80792 0.40726 0.02863 0.0
O207 O 0.80766 0.47271 0.07032 0.0
O208 O 0.93368 0.2938 0.1055 0.0
O209 O 0.82953 0.54412 0.05531 0.0
O210 O 0.78033 0.34561 0.09679 0.0
O211 O 0.96195 0.39208 0.11076 0.0
O212 O 0.79841 0.44623 0.10126 0.0
O213 O 0.97611 0.32678 0.06134 0.0
O214 O 0.9612 0.26178 0.07751 0.0
C215 C 0.00635 0.44965 0.02819 0.0
C216 C 0.99237 0.52084 0.07502 0.0
C217 C 0.02126 0.4687 0.69576 0.0
C218 C 0.98755 0.39704 0.65197 0.0
C219 C 0.78452 0.33311 0.66506 0.0
Mg220 Mg 0.95169 0.42614 0.72149 0.0
Mg221 Mg 0.89378 0.28174 0.72693 0.0
O222 O 0.89526 0.35146 0.71641 0.0
Mg223 Mg 0.92004 0.34779 0.69867 0.0
O224 O 0.9442 0.35456 0.68088 0.0
Mg225 Mg 0.89766 0.43697 0.67674 0.0
Mg226 Mg 0.9336 0.28948 0.66969 0.0
C227 C 0.81241 0.22774 0.70431 0.0
O228 O -0.00288 0.26368 0.69972 0.0
O229 O 0.89283 0.42334 0.7393 0.0
O230 O 0.9927 0.22087 0.68102 0.0
O231 O 0.02984 0.36334 0.73312 0.0
O232 O 0.85092 0.32546 0.74268 0.0
O233 O -0.00104 0.26358 0.73098 0.0
O234 O 0.8457 0.43006 0.69555 0.0
O235 O 0.86609 0.48633 0.71199 0.0
C236 C 0.83304 0.47782 0.70204 0.0
C237 C 0.86002 0.38246 0.74585 0.0
O238 O 0.834 0.27163 0.69688 0.0
O239 O 0.95765 0.43775 0.65857 0.0
O240 O 0.8332 0.22222 0.71541 0.0
O241 O 0.80631 0.38686 0.66828 0.0
O242 O 0.98534 0.33775 0.65452 0.0
O243 O 0.82355 0.28454 0.66544 0.0
O244 O 0.00469 0.42062 0.70246 0.0
O245 O 0.9889 0.48216 0.68587 0.0
C246 C 0.03241 0.30526 0.73669 0.0
C247 C 0.0155 0.22156 0.69209 0.0
C248 C 0.53649 0.05522 0.96494 0.0
C249 C 0.74153 0.22115 0.96856 0.0
C250 C 0.67804 0.26592 0.93189 0.0
Mg251 Mg 0.46023 0.0162 0.93811 0.0
Mg252 Mg 0.5544 0.00039 0.91269 0.0
O253 O 0.53191 0.04709 0.92641 0.0
Mg254 Mg 0.59986 0.08028 0.93795 0.0
O255 O 0.66079 0.12146 0.95013 0.0
Mg256 Mg 0.59361 0.19175 0.95427 0.0
Mg257 Mg 0.74553 0.15052 0.94401 0.0
C258 C 0.66085 0.1109 0.90973 0.0
O259 O 0.68741 0.00108 0.93648 0.0
O260 O 0.38786 0.01034 0.92087 0.0
O261 O 0.78463 0.05871 0.93853 0.0
O262 O 0.50191 0.91797 0.93479 0.0
O263 O 0.45452 0.00092 0.90421 0.0
O264 O 0.57757 0.90831 0.91961 0.0
O265 O 0.52182 0.16148 0.9397 0.0
O266 O 0.41927 0.11634 0.94009 0.0
C267 C 0.4561 0.16589 0.94033 0.0
C268 C 0.39535 0.00617 0.90925 0.0
O269 O 0.65351 0.12528 0.92097 0.0
O270 O 0.67535 0.22077 0.96811 0.0
O271 O 0.63158 0.0632 0.90501 0.0
O272 O 0.63588 0.26467 0.94077 0.0
O273 O 0.77981 0.19834 0.96023 0.0
O274 O 0.72133 0.22155 0.93044 0.0
O275 O 0.54287 0.03033 0.95434 0.0
O276 O 0.5504 0.11353 0.9665 0.0
C277 C 0.54297 0.88462 0.92849 0.0
C278 C 0.75425 0.0059 0.93661 0.0
C279 C 0.4988 0.14586 0.30589 0.0
C280 C 0.72493 0.01967 0.30291 0.0
C281 C 0.70061 0.98536 0.33842 0.0
Mg282 Mg 0.43069 0.2033 0.33095 0.0
Mg283 Mg 0.53212 0.25741 0.35258 0.0
O284 O 0.50488 0.18843 0.34317 0.0
Mg285 Mg 0.57305 0.15104 0.33256 0.0
O286 O 0.63744 0.1096 0.32101 0.0
Mg287 Mg 0.58142 0.02769 0.31929 0.0
Mg288 Mg 0.72877 0.10151 0.32629 0.0
C289 C 0.64301 0.15882 0.36072 0.0
O290 O 0.64216 0.24013 0.33082 0.0
O291 O 0.36429 0.22049 0.34851 0.0
O292 O 0.74923 0.20049 0.32896 0.0
O293 O 0.46385 0.30464 0.32907 0.0
O294 O 0.43774 0.2588 0.36241 0.0
O295 O 0.54526 0.34028 0.34133 0.0
O296 O 0.50858 0.05976 0.33391 0.0
O297 O 0.40325 0.10031 0.33265 0.0
C298 C 0.443 0.05261 0.33344 0.0
C299 C 0.37813 0.23813 0.35941 0.0
O300 O 0.63198 0.12743 0.35101 0.0
O301 O 0.66146 0.00574 0.30497 0.0
O302 O 0.61641 0.21324 0.36222 0.0
O303 O 0.64721 0.96638 0.33279 0.0
O304 O 0.7609 0.05452 0.30991 0.0
O305 O 0.70225 0.04218 0.34137 0.0
O306 O 0.50948 0.18014 0.31523 0.0
O307 O 0.51952 0.0887 0.30574 0.0
C308 C 0.50497 0.34828 0.33225 0.0
C309 C 0.70794 0.24725 0.32991 0.0
C310 C 0.49772 0.77942 0.0748 0.0
C311 C 0.45385 0.86556 0.11864 0.0
C312 C 0.25573 0.92111 0.10378 0.0
Mg313 Mg 0.4281 0.81969 0.04871 0.0
Mg314 Mg 0.37967 0.96548 0.0426 0.0
O315 O 0.37555 0.897 0.05336 0.0
Mg316 Mg 0.39823 0.90261 0.07108 0.0
O317 O 0.42013 0.89766 0.08892 0.0
Mg318 Mg 0.37256 0.81585 0.09352 0.0
Mg319 Mg 0.40256 0.96531 0.09913 0.0
C320 C 0.29782 0.02667 0.06412 0.0
O321 O 0.47768 0.98849 0.07 0.0
O322 O 0.36875 0.82267 0.03088 0.0
O323 O 0.45934 0.03497 0.08808 0.0
O324 O 0.50861 0.87866 0.03691 0.0
O325 O 0.3323 0.92221 0.02727 0.0
O326 O 0.48459 0.98098 0.03779 0.0
O327 O 0.32065 0.81983 0.0745 0.0
O328 O 0.34012 0.76237 0.05826 0.0
C329 C 0.30663 0.77176 0.0681 0.0
C330 C 0.33731 0.86451 0.02434 0.0
O331 O 0.31415 0.98218 0.07189 0.0
O332 O 0.42951 0.82099 0.11219 0.0
O333 O 0.32238 0.03015 0.05327 0.0
O334 O 0.27923 0.86662 0.10145 0.0
O335 O 0.44934 0.92374 0.11529 0.0
O336 O 0.29308 0.97037 0.10251 0.0
O337 O 0.481 0.82683 0.06791 0.0
O338 O 0.46594 0.76772 0.08485 0.0
C339 C 0.52024 0.93616 0.0336 0.0
C340 C 0.48822 0.03365 0.07752 0.0
C341 C 0.3268 0.97474 0.70063 0.0
C342 C 0.34872 0.88452 0.74474 0.0
C343 C 0.53212 0.80864 0.73564 0.0
Mg344 Mg 0.39617 0.93427 0.67558 0.0
Mg345 Mg 0.44231 0.78824 0.66942 0.0
O346 O 0.44655 0.85462 0.68033 0.0
Mg347 Mg 0.41978 0.84783 0.698 0.0
O348 O 0.39195 0.85186 0.71557 0.0
Mg349 Mg 0.44447 0.92809 0.72076 0.0
Mg350 Mg 0.39046 0.78349 0.72637 0.0
C351 C 0.52261 0.72486 0.69241 0.0
O352 O 0.33813 0.76805 0.69602 0.0
O353 O 0.45913 0.93595 0.65763 0.0
O354 O 0.33563 0.72094 0.71476 0.0
O355 O 0.30869 0.87871 0.66636 0.0
O356 O 0.49296 0.83677 0.65423 0.0
O357 O 0.33468 0.77714 0.66444 0.0
O358 O 0.5001 0.92402 0.70197 0.0
O359 O 0.48407 0.98441 0.6852 0.0
C360 C 0.51533 0.97259 0.6953 0.0
C361 C 0.49179 0.89567 0.65132 0.0
O362 O 0.50111 0.76672 0.69985 0.0
O363 O 0.38255 0.92517 0.73831 0.0
O364 O 0.50197 0.72299 0.68124 0.0
O365 O 0.5229 0.86687 0.73259 0.0
O366 O 0.3417 0.82706 0.7417 0.0
O367 O 0.4944 0.76548 0.73131 0.0
O368 O 0.34143 0.92697 0.69424 0.0
O369 O 0.35873 0.9845 0.71065 0.0
C370 C 0.29241 0.82307 0.66319 0.0
C371 C 0.31731 0.72416 0.70351 0.0
C372 C 0.44231 0.67298 0.4388 0.0
C373 C 0.35518 0.50429 0.41051 0.0
C374 C 0.51297 0.38775 0.42792 0.0
Mg375 Mg 0.58982 0.69261 0.44985 0.0
Mg376 Mg 0.73542 0.62668 0.43904 0.0
O377 O 0.64587 0.61476 0.4451 0.0
Mg378 Mg 0.57387 0.58064 0.43402 0.0
O379 O 0.49735 0.55144 0.42409 0.0
Mg380 Mg 0.43544 0.52166 0.43752 0.0
Mg381 Mg 0.51592 0.49833 0.41119 0.0
C382 C 0.71254 0.48584 0.43182 0.0
O383 O 0.61701 0.62314 0.41556 0.0
O384 O 0.67834 0.70744 0.46279 0.0
O385 O 0.58525 0.55792 0.4008 0.0
O386 O 0.64417 0.76362 0.43651 0.0
O387 O 0.77574 0.66234 0.45595 0.0
O388 O 0.70108 0.69541 0.42627 0.0
O389 O 0.52583 0.53565 0.4517 0.0
O390 O 0.54107 0.6213 0.46287 0.0
C391 C 0.52466 0.56318 0.46206 0.0
C392 C 0.74235 0.69325 0.4639 0.0
O393 O 0.64645 0.4933 0.43175 0.0
O394 O 0.35228 0.51333 0.42206 0.0
O395 O 0.75436 0.53143 0.43365 0.0
O396 O 0.4723 0.4216 0.43421 0.0
O397 O 0.41221 0.49432 0.40501 0.0
O398 O 0.54644 0.41057 0.41886 0.0
O399 O 0.50678 0.66796 0.43648 0.0
O400 O 0.4041 0.62404 0.43978 0.0
C401 C 0.69914 0.74904 0.4309 0.0
C402 C 0.61597 0.6077 0.40429 0.0
C403 C 0.46094 0.59679 0.83078 0.0
C404 C 0.38203 0.77993 0.8551 0.0
C405 C 0.5324 0.89111 0.83257 0.0
Mg406 Mg 0.60477 0.5682 0.81911 0.0
Mg407 Mg 0.75051 0.62785 0.83 0.0
O408 O 0.66585 0.64599 0.82262 0.0
Mg409 Mg 0.59686 0.69102 0.83288 0.0
O410 O 0.5226 0.73057 0.84204 0.0
Mg411 Mg 0.45717 0.74847 0.82827 0.0
Mg412 Mg 0.5419 0.79528 0.8529 0.0
C413 C 0.74368 0.77371 0.835 0.0
O414 O 0.64048 0.66289 0.85201 0.0
O415 O 0.69108 0.54242 0.80662 0.0
O416 O 0.61771 0.74517 0.8639 0.0
O417 O 0.65486 0.4979 0.83324 0.0
O418 O 0.7906 0.58216 0.81392 0.0
O419 O 0.70566 0.56885 0.84362 0.0
O420 O 0.54693 0.72561 0.81469 0.0
O421 O 0.56018 0.63642 0.80468 0.0
C422 C 0.54395 0.69478 0.80478 0.0
C423 C 0.75639 0.55132 0.806 0.0
O424 O 0.67733 0.77548 0.83357 0.0
O425 O 0.37754 0.76648 0.84376 0.0
O426 O 0.77809 0.7223 0.83473 0.0
O427 O 0.49371 0.84929 0.82791 0.0
O428 O 0.43918 0.79562 0.8601 0.0
O429 O 0.56533 0.87947 0.84244 0.0
O430 O 0.52598 0.60311 0.8324 0.0
O431 O 0.4232 0.64529 0.82901 0.0
C432 C 0.70463 0.51299 0.84016 0.0
C433 C 0.64486 0.69104 0.86223 0.0
C434 C 0.52138 0.28543 0.57182 0.0
C435 C 0.48813 0.35344 0.61655 0.0
C436 C 0.28669 0.41972 0.60376 0.0
Mg437 Mg 0.44915 0.33322 0.54641 0.0
Mg438 Mg 0.39708 0.4797 0.5415 0.0
O439 O 0.40198 0.41116 0.55219 0.0
Mg440 Mg 0.42678 0.41165 0.56997 0.0
O441 O 0.44917 0.4005 0.5878 0.0
Mg442 Mg 0.39971 0.31829 0.59132 0.0
Mg443 Mg 0.4351 0.46348 0.59933 0.0
C444 C 0.3256 0.53666 0.56481 0.0
O445 O 0.50915 0.4965 0.57002 0.0
O446 O 0.38492 0.33976 0.52903 0.0
O447 O 0.4933 0.53575 0.58888 0.0
O448 O 0.52768 0.39336 0.53457 0.0
O449 O 0.34237 0.43774 0.52659 0.0
O450 O 0.49965 0.49525 0.53527 0.0
O451 O 0.34697 0.3307 0.57265 0.0
O452 O 0.36198 0.27569 0.55597 0.0
C453 C 0.33041 0.28436 0.56601 0.0
C454 C 0.34907 0.38102 0.52312 0.0
O455 O 0.34482 0.49115 0.57209 0.0
O456 O 0.45965 0.31346 0.60956 0.0
O457 O 0.34493 0.54157 0.55363 0.0
O458 O 0.30909 0.36688 0.60025 0.0
O459 O 0.48521 0.41307 0.61439 0.0
O460 O 0.32515 0.46866 0.60353 0.0
O461 O 0.50682 0.33498 0.56537 0.0
O462 O 0.48928 0.27238 0.58175 0.0
C463 C 0.53625 0.45103 0.53105 0.0
C464 C 0.52155 0.53813 0.57823 0.0
C465 C 0.30443 0.43422 0.20021 0.0
C466 C 0.32541 0.33824 0.24375 0.0
C467 C 0.49885 0.25951 0.23581 0.0
Mg468 Mg 0.37145 0.39685 0.17495 0.0
Mg469 Mg 0.40855 0.25074 0.16709 0.0
O470 O 0.41728 0.31384 0.17879 0.0
Mg471 Mg 0.39281 0.30495 0.1966 0.0
O472 O 0.36744 0.30688 0.21437 0.0
Mg473 Mg 0.42178 0.38152 0.21994 0.0
Mg474 Mg 0.36146 0.23781 0.22497 0.0
C475 C 0.48975 0.18024 0.18947 0.0
O476 O 0.30735 0.22855 0.19438 0.0
O477 O 0.43393 0.40074 0.15699 0.0
O478 O 0.30365 0.17909 0.21291 0.0
O479 O 0.28127 0.34857 0.16565 0.0
O480 O 0.46274 0.30164 0.15245 0.0
O481 O 0.29875 0.24718 0.16196 0.0
O482 O 0.47732 0.37762 0.20106 0.0
O483 O 0.46123 0.44047 0.18467 0.0
C484 C 0.49343 0.42648 0.19455 0.0
C485 C 0.46498 0.36129 0.15027 0.0
O486 O 0.47047 0.22115 0.19729 0.0
O487 O 0.36035 0.37827 0.23738 0.0
O488 O 0.46757 0.18088 0.17834 0.0
O489 O 0.49737 0.31755 0.23212 0.0
O490 O 0.31509 0.28158 0.24048 0.0
O491 O 0.46464 0.21781 0.23022 0.0
O492 O 0.31774 0.38699 0.19362 0.0
O493 O 0.33709 0.44223 0.21022 0.0
C494 C 0.2599 0.29597 0.16175 0.0
C495 C 0.28495 0.18447 0.20169 0.0
H496 H 0.26813 0.27675 0.44221 0.0
H497 H 0.23174 0.28952 0.40355 0.0
H498 H 0.35459 0.31521 0.40021 0.0
H499 H 0.47215 0.32356 0.40847 0.0
H500 H 0.5069 0.30013 0.447 0.0
H501 H 0.38612 0.27019 0.45005 0.0
C502 C 0.28718 0.28464 0.43306 0.0
C503 C 0.24163 0.28168 0.42316 0.0
C504 C 0.35789 0.28874 0.43112 0.0
C505 C 0.26604 0.29332 0.4113 0.0
C506 C 0.33632 0.30509 0.40938 0.0
C507 C 0.45377 0.30923 0.41748 0.0
C508 C 0.49459 0.32135 0.42776 0.0
C509 C 0.38296 0.29969 0.41918 0.0
C510 C 0.47394 0.29554 0.43908 0.0
C511 C 0.40428 0.28163 0.44091 0.0
H512 H 0.95536 0.84315 0.46022 0.0
H513 H 0.05759 0.76033 0.43026 0.0
H514 H 0.95251 0.70228 0.42515 0.0
H515 H 0.82609 0.71174 0.42425 0.0
H516 H 0.72066 0.82998 0.44976 0.0
H517 H 0.82989 0.84925 0.4602 0.0
C518 C 0.95442 0.81072 0.45274 0.0
C519 C 0.00703 0.81522 0.44397 0.0
C520 C 0.89038 0.79121 0.4483 0.0
C521 C 0.01252 0.76487 0.436 0.0
C522 C 0.95177 0.73375 0.43276 0.0
C523 C 0.82656 0.74109 0.4322 0.0
C524 C 0.76505 0.76848 0.43636 0.0
C525 C 0.8891 0.75306 0.43794 0.0
C526 C 0.7672 0.80833 0.44638 0.0
C527 C 0.82923 0.81818 0.45253 0.0
H528 H 0.32624 0.04646 0.84931 0.0
H529 H 0.22942 0.94016 0.82087 0.0
H530 H 0.34166 0.92452 0.81136 0.0
H531 H 0.46664 0.93472 0.81203 0.0
H532 H 0.56198 0.00372 0.84428 0.0
H533 H 0.45347 0.05383 0.85006 0.0
C534 C 0.32969 0.01954 0.84106 0.0
C535 C 0.26935 0.99592 0.83563 0.0
C536 C 0.3942 0.00916 0.83585 0.0
C537 C 0.27489 0.95922 0.8252 0.0
C538 C 0.33879 0.95154 0.81959 0.0
C539 C 0.46371 0.96227 0.82021 0.0
C540 C 0.51751 0.95706 0.82879 0.0
C541 C 0.39853 0.97669 0.82481 0.0
C542 C 0.51799 0.00066 0.8382 0.0
C543 C 0.45525 0.02691 0.84181 0.0
H544 H 0.97721 0.44011 0.81385 0.0
H545 H 0.06422 0.50742 0.84681 0.0
H546 H 0.95274 0.5535 0.85232 0.0
H547 H 0.82567 0.54156 0.85093 0.0
H548 H 0.73908 0.43103 0.82209 0.0
H549 H 0.85353 0.42035 0.81311 0.0
C550 C 0.97156 0.46638 0.82215 0.0
C551 C 0.02317 0.46027 0.8311 0.0
C552 C 0.90498 0.47648 0.8266 0.0
C553 C 0.02115 0.50358 0.84055 0.0
C554 C 0.95682 0.52736 0.844 0.0
C555 C 0.83176 0.51502 0.84268 0.0
C556 C 0.77352 0.4894 0.83689 0.0
C557 C 0.89744 0.50779 0.83773 0.0
C558 C 0.78275 0.45221 0.82661 0.0
C559 C 0.84781 0.4475 0.82127 0.0
H560 H 0.64333 0.53476 0.56528 0.0
H561 H 0.51907 0.65682 0.587 0.0
H562 H 0.60921 0.73742 0.58609 0.0
H563 H 0.72525 0.77403 0.57925 0.0
H564 H 0.85028 0.64977 0.55805 0.0
H565 H 0.75964 0.57034 0.55881 0.0
C566 C 0.63548 0.57939 0.56963 0.0
C567 C 0.57369 0.5896 0.57606 0.0
C568 C 0.68873 0.62537 0.56936 0.0
C569 C 0.56563 0.64748 0.5819 0.0
C570 C 0.61753 0.6937 0.58145 0.0
C571 C 0.73312 0.72924 0.57497 0.0
C572 C 0.79527 0.71848 0.56863 0.0
C573 C 0.67985 0.68311 0.57532 0.0
C574 C 0.80345 0.66 0.56301 0.0
C575 C 0.75123 0.61429 0.56337 0.0
H576 H 0.077 0.12978 0.5885 0.0
H577 H 0.07607 0.05425 0.55239 0.0
H578 H 0.17362 0.12114 0.54665 0.0
H579 H 0.26182 0.19971 0.55193 0.0
H580 H 0.26555 0.27291 0.58819 0.0
H581 H 0.16532 0.2085 0.59379 0.0
C582 C 0.09742 0.1283 0.57931 0.0
C583 C 0.0678 0.0869 0.57086 0.0
C584 C 0.15501 0.16631 0.57612 0.0
C585 C 0.09643 0.08568 0.55908 0.0
C586 C 0.15291 0.12382 0.5558 0.0
C587 C 0.24111 0.20142 0.5611 0.0
C588 C 0.27161 0.24179 0.56961 0.0
C589 C 0.18315 0.16391 0.56427 0.0
C590 C 0.24321 0.24316 0.5814 0.0
C591 C 0.18571 0.20606 0.58462 0.0
H592 H 0.73892 0.02178 0.21167 0.0
H593 H 0.73675 0.94401 0.17575 0.0
H594 H 0.63743 0.00993 0.17018 0.0
H595 H 0.55191 0.09106 0.17546 0.0
H596 H 0.55388 0.16641 0.21165 0.0
H597 H 0.65176 0.0996 0.21714 0.0
C598 C 0.71723 0.01947 0.20258 0.0
C599 C 0.74607 0.97819 0.19411 0.0
C600 C 0.65944 0.05685 0.1995 0.0
C601 C 0.7161 0.97537 0.18244 0.0
C602 C 0.65908 0.01306 0.17926 0.0
C603 C 0.5732 0.09258 0.18459 0.0
C604 C 0.54495 0.1342 0.1931 0.0
C605 C 0.63021 0.05401 0.18772 0.0
C606 C 0.57388 0.13512 0.20488 0.0
C607 C 0.63034 0.09702 0.20803 0.0
H608 H 0.05146 0.58661 0.17791 0.0
H609 H 0.05602 0.66923 0.21342 0.0
H610 H 0.15451 0.60325 0.2192 0.0
H611 H 0.24112 0.52289 0.21405 0.0
H612 H 0.2372 0.4429 0.17832 0.0
H613 H 0.13754 0.50739 0.17275 0.0
C614 C 0.07335 0.59003 0.18698 0.0
C615 C 0.04531 0.63287 0.19524 0.0
C616 C 0.13099 0.55273 0.19016 0.0
C617 C 0.0755 0.63652 0.20689 0.0
C618 C 0.13238 0.59898 0.21018 0.0
C619 C 0.21891 0.51991 0.205 0.0
C620 C 0.24705 0.47772 0.19662 0.0
C621 C 0.161 0.55725 0.20186 0.0
C622 C 0.21684 0.47445 0.18499 0.0
C623 C 0.15959 0.5114 0.18179 0.0
H624 H 0.50206 0.82224 0.90863 0.0
H625 H 0.53269 0.79498 0.94717 0.0
H626 H 0.41035 0.77022 0.94987 0.0
H627 H 0.29318 0.78053 0.94176 0.0
H628 H 0.26085 0.79357 0.90297 0.0
H629 H 0.38505 0.81258 0.89986 0.0
C630 C 0.48239 0.80809 0.91755 0.0
C631 C 0.52288 0.81849 0.92798 0.0
C632 C 0.41102 0.79997 0.91902 0.0
C633 C 0.50019 0.79226 0.93915 0.0
C634 C 0.4297 0.78128 0.94079 0.0
C635 C 0.31319 0.78881 0.93265 0.0
C636 C 0.26824 0.78707 0.92263 0.0
C637 C 0.38435 0.79037 0.9309 0.0
C638 C 0.2945 0.79703 0.91082 0.0
C639 C 0.36555 0.80516 0.90904 0.0
H640 H 0.726 0.29389 0.90862 0.0
H641 H 0.66747 0.38179 0.94181 0.0
H642 H 0.78227 0.42658 0.9438 0.0
H643 H 0.90435 0.4086 0.93952 0.0
H644 H 0.96353 0.3364 0.90453 0.0
H645 H 0.84196 0.31767 0.89984 0.0
C646 C 0.73732 0.32609 0.91586 0.0
C647 C 0.69398 0.32718 0.92609 0.0
C648 C 0.80428 0.3499 0.91706 0.0
C649 C 0.70403 0.37506 0.93449 0.0
C650 C 0.77033 0.39906 0.93589 0.0
C651 C 0.89132 0.38876 0.93081 0.0
C652 C 0.9432 0.37302 0.92247 0.0
C653 C 0.8222 0.38051 0.92787 0.0
C654 C 0.9247 0.34769 0.91122 0.0
C655 C 0.85542 0.33688 0.9085 0.0
H656 H 0.43821 0.38131 0.31128 0.0
H657 H 0.53449 0.46537 0.34203 0.0
H658 H 0.42684 0.52002 0.3467 0.0
H659 H 0.30003 0.51308 0.34611 0.0
H660 H 0.20148 0.39258 0.32012 0.0
H661 H 0.31336 0.3713 0.31093 0.0
C662 C 0.43567 0.41323 0.31883 0.0
C663 C 0.48948 0.41216 0.32743 0.0
C664 C 0.3708 0.43055 0.32313 0.0
C665 C 0.49055 0.46002 0.33601 0.0
C666 C 0.42828 0.489 0.33902 0.0
C667 C 0.30282 0.48219 0.33844 0.0
C668 C 0.24218 0.45597 0.3336 0.0
C669 C 0.36702 0.46885 0.33343 0.0
C670 C 0.24715 0.41386 0.32397 0.0
C671 C 0.31084 0.40281 0.31852 0.0
H672 H 0.82588 0.01317 0.3475 0.0
H673 H 0.72586 0.90673 0.31942 0.0
H674 H 0.83606 0.89444 0.30908 0.0
H675 H 0.96094 0.90491 0.30923 0.0
H676 H 0.05954 0.96439 0.34169 0.0
H677 H 0.95394 0.01889 0.34783 0.0
C678 C 0.82826 0.98713 0.33914 0.0
C679 C 0.76752 0.9626 0.33403 0.0
C680 C 0.89187 0.97747 0.33358 0.0
C681 C 0.77167 0.92673 0.32347 0.0
C682 C 0.8343 0.92099 0.31737 0.0
C683 C 0.95908 0.93116 0.31758 0.0
C684 C 0.01053 0.91999 0.32637 0.0
C685 C 0.89451 0.94631 0.32234 0.0
C686 C 0.01508 0.96402 0.33568 0.0
C687 C 0.954 0.9928 0.33948 0.0
H688 H 0.60364 0.02955 0.063 0.0
H689 H 0.48936 0.15259 0.08618 0.0
H690 H 0.5792 0.23272 0.08407 0.0
H691 H 0.69226 0.26827 0.07587 0.0
H692 H 0.80688 0.14404 0.05293 0.0
H693 H 0.71636 0.06489 0.05486 0.0
C694 C 0.59789 0.07425 0.06743 0.0
C695 C 0.53932 0.08479 0.07468 0.0
C696 C 0.65081 0.12008 0.0664 0.0
C697 C 0.53366 0.14289 0.08052 0.0
C698 C 0.58534 0.18886 0.07937 0.0
C699 C 0.69785 0.22357 0.07144 0.0
C700 C 0.75688 0.21252 0.06431 0.0
C701 C 0.64473 0.17783 0.07246 0.0
C702 C 0.76234 0.15432 0.0585 0.0
C703 C 0.71026 0.10881 0.05954 0.0
H704 H 0.05364 0.61019 0.08948 0.0
H705 H 0.05961 0.5369 0.05315 0.0
H706 H 0.15666 0.60573 0.04806 0.0
H707 H 0.24229 0.68534 0.05386 0.0
H708 H 0.23624 0.7611 0.08992 0.0
H709 H 0.13781 0.69301 0.0951 0.0
C710 C 0.07566 0.60947 0.0804 0.0
C711 C 0.04833 0.56776 0.07174 0.0
C712 C 0.13238 0.6495 0.07748 0.0
C713 C 0.07849 0.56812 0.06005 0.0
C714 C 0.13461 0.60748 0.05712 0.0
C715 C 0.21991 0.68687 0.0629 0.0
C716 C 0.24772 0.72844 0.0715 0.0
C717 C 0.16249 0.64796 0.06578 0.0
C718 C 0.21665 0.72985 0.08309 0.0
C719 C 0.16005 0.69076 0.08606 0.0
H720 H 0.58633 0.63559 0.67897 0.0
H721 H 0.5853 0.71376 0.7149 0.0
H722 H 0.68201 0.64603 0.72092 0.0
H723 H 0.76856 0.5655 0.71588 0.0
H724 H 0.76895 0.48858 0.67987 0.0
H725 H 0.67146 0.5552 0.67401 0.0
C726 C 0.60671 0.63774 0.68817 0.0
C727 C 0.57788 0.67996 0.69646 0.0
C728 C 0.66298 0.59916 0.69153 0.0
C729 C 0.60575 0.68174 0.70831 0.0
C730 C 0.66151 0.64316 0.71175 0.0
C731 C 0.74775 0.56366 0.70671 0.0
C732 C 0.77653 0.52188 0.69832 0.0
C733 C 0.69098 0.60204 0.7034 0.0
C734 C 0.74807 0.51989 0.68654 0.0
C735 C 0.69211 0.55807 0.68317 0.0
H736 H 0.07478 0.12999 0.67838 0.0
H737 H 0.08165 0.21018 0.71413 0.0
H738 H 0.17867 0.14249 0.71969 0.0
H739 H 0.26379 0.06266 0.71435 0.0
H740 H 0.2573 0.98109 0.67876 0.0
H741 H 0.15854 0.04755 0.6732 0.0
C742 C 0.09695 0.1324 0.68743 0.0
C743 C 0.07026 0.17546 0.69581 0.0
C744 C 0.15358 0.09355 0.69057 0.0
C745 C 0.10033 0.1776 0.70748 0.0
C746 C 0.15633 0.13905 0.71067 0.0
C747 C 0.24123 0.05958 0.70533 0.0
C748 C 0.26869 0.01711 0.69696 0.0
C749 C 0.18387 0.09738 0.70225 0.0
C750 C 0.23776 0.01341 0.68538 0.0
C751 C 0.18103 0.05137 0.68221 0.0
H752 H 0.34383 0.95597 0.43562 0.0
H753 H 0.14786 0.86762 0.44361 0.0
H754 H 0.20323 0.76464 0.44468 0.0
H755 H 0.3073 0.69969 0.44318 0.0
H756 H 0.50414 0.78837 0.43573 0.0
H757 H 0.44866 0.89147 0.43496 0.0
C758 C 0.31306 0.91427 0.4376 0.0
C759 C 0.2411 0.91955 0.43922 0.0
C760 C 0.3457 0.85531 0.43846 0.0
C761 C 0.20258 0.86486 0.4419 0.0
C762 C 0.23452 0.80597 0.44267 0.0
C763 C 0.33834 0.74152 0.44148 0.0
C764 C 0.40997 0.73605 0.4395 0.0
C765 C 0.30602 0.80064 0.44093 0.0
C766 C 0.44908 0.79099 0.43732 0.0
C767 C 0.41729 0.85003 0.43681 0.0
H768 H 0.79951 0.19979 0.43547 0.0
H769 H 0.00164 0.28234 0.43033 0.0
H770 H 0.94969 0.3867 0.4281 0.0
H771 H 0.84733 0.45474 0.42821 0.0
H772 H 0.64643 0.37236 0.43454 0.0
H773 H 0.69724 0.26757 0.43532 0.0
C774 C 0.83242 0.24051 0.43387 0.0
C775 C 0.90463 0.23305 0.43317 0.0
C776 C 0.80223 0.30039 0.43262 0.0
C777 C 0.9461 0.28655 0.43102 0.0
C778 C 0.91636 0.34629 0.42969 0.0
C779 C 0.8144 0.41389 0.42965 0.0
C780 C 0.74252 0.42168 0.43105 0.0
C781 C 0.84451 0.35379 0.43055 0.0
C782 C 0.70117 0.36797 0.43299 0.0
C783 C 0.73053 0.30794 0.43365 0.0
H784 H 0.36441 0.31176 0.83584 0.0
H785 H 0.16719 0.39712 0.82776 0.0
H786 H 0.22105 0.50091 0.82664 0.0
H787 H 0.32472 0.5676 0.82754 0.0
H788 H 0.52268 0.48225 0.83517 0.0
H789 H 0.46843 0.37855 0.8366 0.0
C790 C 0.33305 0.35304 0.83388 0.0
C791 C 0.26113 0.34642 0.83218 0.0
C792 C 0.36488 0.41272 0.83298 0.0
C793 C 0.22186 0.4007 0.82955 0.0
C794 C 0.25297 0.46015 0.82872 0.0
C795 C 0.35627 0.52639 0.82947 0.0
C796 C 0.42818 0.53312 0.83115 0.0
C797 C 0.32449 0.46675 0.83039 0.0
C798 C 0.46764 0.47883 0.8337 0.0
C799 C 0.43646 0.41935 0.83459 0.0
H800 H 0.72066 0.89147 0.82505 0.0
H801 H 0.86143 0.78583 0.84816 0.0
H802 H 0.93936 0.87601 0.84885 0.0
H803 H 0.96925 0.98565 0.84264 0.0
H804 H 0.82876 0.0898 0.81917 0.0
H805 H 0.75078 0.00013 0.81872 0.0
C806 C 0.76785 0.88862 0.83038 0.0
C807 C 0.78482 0.83207 0.83658 0.0
C808 C 0.81363 0.94038 0.83051 0.0
C809 C 0.84694 0.82887 0.84329 0.0
C810 C 0.89191 0.88037 0.84365 0.0
C811 C 0.92212 0.98824 0.8373 0.0
C812 C 0.90521 0.04454 0.83097 0.0
C813 C 0.87639 0.93628 0.83717 0.0
C814 C 0.84324 0.04722 0.82419 0.0
C815 C 0.79817 0.99595 0.82395 0.0
H816 H 0.56683 0.18226 0.58444 0.0
H817 H 0.60148 0.29113 0.55115 0.0
H818 H 0.69501 0.21974 0.54574 0.0
H819 H 0.7661 0.12715 0.55051 0.0
H820 H 0.72961 0.01768 0.58365 0.0
H821 H 0.63757 0.08988 0.58919 0.0
C822 C 0.59451 0.19057 0.57595 0.0
C823 C 0.57693 0.24206 0.56818 0.0
C824 C 0.64808 0.14968 0.57296 0.0
C825 C 0.61379 0.25191 0.55728 0.0
C826 C 0.6673 0.21118 0.5542 0.0
C827 C 0.73818 0.11886 0.55897 0.0
C828 C 0.75522 0.06703 0.56671 0.0
C829 C 0.68481 0.16003 0.56199 0.0
C830 C 0.71841 0.05748 0.57762 0.0
C831 C 0.66541 0.09852 0.58074 0.0
H832 H 0.28022 0.63993 0.55212 0.0
H833 H 0.25656 0.53925 0.58664 0.0
H834 H 0.16542 0.61202 0.59236 0.0
H835 H 0.0891 0.69995 0.58709 0.0
H836 H 0.10995 0.79848 0.55229 0.0
H837 H 0.20605 0.72967 0.54709 0.0
C838 C 0.25558 0.63381 0.56095 0.0
C839 C 0.27522 0.58381 0.56894 0.0
C840 C 0.20245 0.6749 0.56405 0.0
C841 C 0.2428 0.57726 0.58034 0.0
C842 C 0.19039 0.61866 0.58358 0.0
C843 C 0.11448 0.70663 0.57834 0.0
C844 C 0.09194 0.7541 0.57004 0.0
C845 C 0.16919 0.66692 0.57542 0.0
C846 C 0.126 0.76219 0.55882 0.0
C847 C 0.18094 0.72293 0.55585 0.0
H848 H 0.54368 0.52519 0.18137 0.0
H849 H 0.57344 0.42071 0.21532 0.0
H850 H 0.66977 0.49026 0.22041 0.0
H851 H 0.74326 0.58132 0.21527 0.0
H852 H 0.70951 0.68648 0.18153 0.0
H853 H 0.61705 0.6145 0.17615 0.0
C854 C 0.57086 0.51739 0.18993 0.0
C855 C 0.55105 0.46796 0.19801 0.0
C856 C 0.6257 0.55714 0.19274 0.0
C857 C 0.58747 0.45853 0.20898 0.0
C858 C 0.64253 0.49817 0.21186 0.0
C859 C 0.71594 0.58849 0.2067 0.0
C860 C 0.73377 0.63916 0.19874 0.0
C861 C 0.66184 0.54768 0.20381 0.0
C862 C 0.69782 0.64745 0.1877 0.0
C863 C 0.64445 0.60662 0.18469 0.0
H864 H 0.23442 0.08325 0.21429 0.0
H865 H 0.21703 0.18369 0.17963 0.0
H866 H 0.12507 0.11198 0.17353 0.0
H867 H 0.04776 0.02304 0.17836 0.0
H868 H 0.065 0.9246 0.21324 0.0
H869 H 0.15902 0.99435 0.21898 0.0
C870 C 0.21088 0.08968 0.20536 0.0
C871 C 0.23268 0.13907 0.19743 0.0
C872 C 0.15771 0.04903 0.20201 0.0
C873 C 0.20156 0.14605 0.1859 0.0
C874 C 0.14873 0.10524 0.18243 0.0
C875 C 0.07189 0.01681 0.18724 0.0
C876 C 0.04903 0.96875 0.19539 0.0
C877 C 0.12601 0.05699 0.19048 0.0
C878 C 0.0813 0.96124 0.20681 0.0
C879 C 0.13517 0.00102 0.21009 0.0
H880 H 0.36228 0.45124 0.94124 0.0
H881 H 0.17009 0.37053 0.92927 0.0
H882 H 0.22169 0.26549 0.93026 0.0
H883 H 0.3224 0.19625 0.93441 0.0
H884 H 0.5125 0.27816 0.94703 0.0
H885 H 0.46079 0.38252 0.94595 0.0
C886 C 0.3314 0.41089 0.93879 0.0
C887 C 0.26212 0.41946 0.93504 0.0
C888 C 0.36123 0.35045 0.93955 0.0
C889 C 0.22339 0.36593 0.93207 0.0
C890 C 0.25295 0.30562 0.93269 0.0
C891 C 0.3524 0.23683 0.93704 0.0
C892 C 0.42204 0.22894 0.94067 0.0
C893 C 0.32189 0.29724 0.93643 0.0
C894 C 0.45973 0.28243 0.94396 0.0
C895 C 0.42988 0.34236 0.9434 0.0
H896 H 0.98977 0.79608 0.93288 0.0
H897 H 0.81057 0.67501 0.93539 0.0
H898 H 0.73533 0.76555 0.93589 0.0
H899 H 0.71758 0.88011 0.93613 0.0
H900 H 0.89492 0.00292 0.93375 0.0
H901 H 0.97136 0.91228 0.93264 0.0
C902 C 0.93436 0.78947 0.93354 0.0
C903 C 0.90704 0.72777 0.93419 0.0
C904 C 0.88983 0.84273 0.93385 0.0
C905 C 0.83443 0.72114 0.93498 0.0
C906 C 0.79057 0.77329 0.93524 0.0
C907 C 0.77284 0.88726 0.93528 0.0
C908 C 0.79961 0.94902 0.93507 0.0
C909 C 0.81738 0.83445 0.93474 0.0
C910 C 0.87194 0.95641 0.934 0.0
C911 C 0.91622 0.90428 0.93337 0.0
H912 H 0.34518 0.76807 0.33442 0.0
H913 H 0.15011 0.85902 0.32683 0.0
H914 H 0.20523 0.96162 0.32745 0.0
H915 H 0.30831 0.02546 0.32974 0.0
H916 H 0.50569 0.93694 0.33656 0.0
H917 H 0.45027 0.83315 0.33644 0.0
C918 C 0.31464 0.81031 0.33293 0.0
C919 C 0.2429 0.80562 0.33082 0.0
C920 C 0.34727 0.8695 0.33303 0.0
C921 C 0.20461 0.86101 0.32881 0.0
C922 C 0.23638 0.91983 0.32903 0.0
C923 C 0.3396 0.98363 0.33121 0.0
C924 C 0.41122 0.98913 0.33317 0.0
C925 C 0.30758 0.92457 0.33111 0.0
C926 C 0.45056 0.93415 0.335 0.0
C927 C 0.41883 0.87482 0.33496 0.0
H928 H 0.79499 0.53331 0.32379 0.0
H929 H 0.99352 0.45317 0.33306 0.0
H930 H 0.94223 0.34885 0.33479 0.0
H931 H 0.84124 0.28015 0.33389 0.0
H932 H 0.64261 0.35856 0.32426 0.0
H933 H 0.69321 0.46383 0.32278 0.0
C934 C 0.82715 0.49302 0.32613 0.0
C935 C 0.89844 0.50124 0.32814 0.0
C936 C 0.79701 0.43288 0.32725 0.0
C937 C 0.93896 0.44838 0.33126 0.0
C938 C 0.90951 0.38858 0.33235 0.0
C939 C 0.80886 0.32022 0.33148 0.0
C940 C 0.73782 0.31152 0.32942 0.0
C941 C 0.83864 0.3803 0.33039 0.0
C942 C 0.69687 0.36408 0.32628 0.0
C943 C 0.72605 0.42424 0.32526 0.0
H944 H 0.54339 0.67316 0.08685 0.0
H945 H 0.58448 0.79327 0.05525 0.0
H946 H 0.68329 0.72808 0.05015 0.0
H947 H 0.75655 0.63728 0.0544 0.0
H948 H 0.7142 0.51345 0.08538 0.0
H949 H 0.61781 0.58094 0.09112 0.0
C950 C 0.57379 0.68513 0.07882 0.0
C951 C 0.55618 0.73821 0.07143 0.0
C952 C 0.63063 0.64724 0.07591 0.0
C953 C 0.5964 0.75275 0.06108 0.0
C954 C 0.65316 0.71559 0.05818 0.0
C955 C 0.72687 0.62489 0.06249 0.0
C956 C 0.74327 0.57018 0.06949 0.0
C957 C 0.67065 0.66284 0.06552 0.0
C958 C 0.70342 0.55533 0.07987 0.0
C959 C 0.64793 0.59375 0.08311 0.0
H960 H 0.24872 0.12196 0.04941 0.0
H961 H 0.22679 0.03795 0.08555 0.0
H962 H 0.13312 0.11071 0.08977 0.0
H963 H 0.05508 0.19321 0.08296 0.0
H964 H 0.07207 0.27642 0.04669 0.0
H965 H 0.17141 0.20797 0.04273 0.0
C966 C 0.22393 0.11958 0.05827 0.0
C967 C 0.24495 0.07408 0.06718 0.0
C968 C 0.16924 0.16081 0.06054 0.0
C969 C 0.21205 0.07223 0.07856 0.0
C970 C 0.15826 0.1137 0.08095 0.0
C971 C 0.07989 0.19661 0.0741 0.0
C972 C 0.05532 0.2394 0.06502 0.0
C973 C 0.13594 0.1573 0.07194 0.0
C974 C 0.08956 0.24368 0.05378 0.0
C975 C 0.14621 0.20457 0.05154 0.0
H976 H 0.56906 0.07037 0.68199 0.0
H977 H 0.58923 0.97018 0.71663 0.0
H978 H 0.68485 0.039 0.72214 0.0
H979 H 0.76154 0.12718 0.71718 0.0
H980 H 0.74069 0.22839 0.68268 0.0
H981 H 0.64661 0.15837 0.67696 0.0
C982 C 0.59403 0.06359 0.69079 0.0
C983 C 0.57169 0.01526 0.69892 0.0
C984 C 0.64909 0.10299 0.69386 0.0
C985 C 0.60517 0.00703 0.71022 0.0
C986 C 0.65994 0.04627 0.71336 0.0
C987 C 0.73677 0.13407 0.70837 0.0
C988 C 0.75846 0.18316 0.70035 0.0
C989 C 0.68225 0.09428 0.70524 0.0
C990 C 0.72558 0.19088 0.68899 0.0
C991 C 0.67146 0.15106 0.68575 0.0
H992 H 0.07771 0.56196 0.68179 0.0
H993 H 0.09768 0.46594 0.71686 0.0
H994 H 0.19494 0.53425 0.72187 0.0
H995 H 0.2706 0.62262 0.71653 0.0
H996 H 0.24833 0.72029 0.68166 0.0
H997 H 0.1556 0.64827 0.6762 0.0
C998 C 0.10302 0.55586 0.69057 0.0
C999 C 0.07999 0.50926 0.69902 0.0
C1000 C 0.15854 0.59504 0.69335 0.0
C1001 C 0.11413 0.50164 0.71025 0.0
C1002 C 0.16973 0.54056 0.71309 0.0
C1003 C 0.24587 0.62824 0.70769 0.0
C1004 C 0.26628 0.67719 0.69953 0.0
C1005 C 0.1919 0.58761 0.70474 0.0
C1006 C 0.2339 0.68307 0.68809 0.0
C1007 C 0.18057 0.64215 0.68501 0.0
H1008 H 0.25121 0.12277 0.40766 0.0
H1009 H 0.08884 0.07007 0.38308 0.0
H1010 H 0.1478 0.12502 0.36614 0.0
H1011 H 0.24752 0.18698 0.35832 0.0
H1012 H 0.40711 0.24082 0.38364 0.0
H1013 H 0.34772 0.18571 0.40009 0.0
C1014 C 0.22792 0.12472 0.39868 0.0
C1015 C 0.16526 0.0938 0.39668 0.0
C1016 C 0.26154 0.15686 0.38905 0.0
C1017 C 0.13731 0.09375 0.38483 0.0
C1018 C 0.17065 0.12558 0.37517 0.0
C1019 C 0.26801 0.18874 0.36751 0.0
C1020 C 0.3316 0.21891 0.36961 0.0
C1021 C 0.23278 0.15775 0.37718 0.0
C1022 C 0.35788 0.21917 0.38161 0.0
C1023 C 0.32408 0.18742 0.39112 0.0
H1024 H 0.68855 0.03623 0.36419 0.0
H1025 H 0.68299 0.2168 0.38138 0.0
H1026 H 0.73749 0.17136 0.39946 0.0
H1027 H 0.79245 0.08307 0.41011 0.0
H1028 H 0.81409 0.90572 0.39241 0.0
H1029 H 0.74689 0.9467 0.3749 0.0
C1030 C 0.70053 0.06603 0.37174 0.0
C1031 C 0.6822 0.13033 0.3712 0.0
C1032 C 0.73361 0.03979 0.38217 0.0
C1033 C 0.69653 0.16736 0.38137 0.0
C1034 C 0.72751 0.14137 0.39181 0.0
C1035 C 0.78061 0.05266 0.40259 0.0
C1036 C 0.80648 0.99093 0.40269 0.0
C1037 C 0.74634 0.07782 0.3923 0.0
C1038 C 0.79326 0.95296 0.39265 0.0
C1039 C 0.75573 0.97673 0.38258 0.0
H1040 H 0.31518 0.10835 0.91028 0.0
H1041 H 0.35055 0.94301 0.88934 0.0
H1042 H 0.2726 0.98371 0.8733 0.0
H1043 H 0.20119 0.0703 0.86474 0.0
H1044 H 0.18032 0.24128 0.8848 0.0
H1045 H 0.24457 0.19419 0.90171 0.0
C1046 C 0.30403 0.08045 0.90237 0.0
C1047 C 0.33699 0.0222 0.90109 0.0
C1048 C 0.26273 0.10583 0.89291 0.0
C1049 C 0.32448 0.98745 0.89059 0.0
C1050 C 0.28059 0.01106 0.88139 0.0
C1051 C 0.21182 0.09793 0.87263 0.0
C1052 C 0.18695 0.16012 0.87318 0.0
C1053 C 0.25094 0.0711 0.88229 0.0
C1054 C 0.1991 0.19366 0.8839 0.0
C1055 C 0.23585 0.1667 0.89367 0.0
H1056 H 0.63311 0.16442 0.88753 0.0
H1057 H 0.79312 0.14051 0.91464 0.0
H1058 H 0.87462 0.19744 0.90141 0.0
H1059 H 0.90068 0.25164 0.88224 0.0
H1060 H 0.74347 0.27504 0.85454 0.0
H1061 H 0.65901 0.22358 0.8682 0.0
C1062 C 0.6857 0.17261 0.89053 0.0
C1063 C 0.7075 0.149 0.90201 0.0
C1064 C 0.73187 0.20646 0.88295 0.0
C1065 C 0.77544 0.15912 0.90588 0.0
C1066 C 0.8219 0.19134 0.89831 0.0
C1067 C 0.84762 0.24693 0.8792 0.0
C1068 C 0.82827 0.26807 0.86741 0.0
C1069 C 0.80056 0.21543 0.88687 0.0
C1070 C 0.75951 0.26003 0.86363 0.0
C1071 C 0.71147 0.23006 0.87139 0.0
H1072 H 0.52209 0.83432 0.6307 0.0
H1073 H 0.5586 0.00847 0.64893 0.0
H1074 H 0.64611 0.03839 0.63377 0.0
H1075 H 0.72442 0.00682 0.61719 0.0
H1076 H 0.68537 0.83249 0.59907 0.0
H1077 H 0.58587 0.81186 0.61207 0.0
C1078 C 0.54844 0.87927 0.63123 0.0
C1079 C 0.53494 0.91854 0.64101 0.0
C1080 C 0.59853 0.89613 0.6225 0.0
C1081 C 0.5684 0.97723 0.64148 0.0
C1082 C 0.61869 0.99427 0.63285 0.0
C1083 C 0.69285 0.96537 0.61586 0.0
C1084 C 0.71327 0.9206 0.60737 0.0
C1085 C 0.63595 0.95302 0.62356 0.0
C1086 C 0.67157 0.86718 0.6057 0.0
C1087 C 0.61474 0.85509 0.61317 0.0
H1088 H 0.06358 0.77874 0.62356 0.0
H1089 H 0.00343 0.96314 0.63523 0.0
H1090 H 0.08611 0.95628 0.65194 0.0
H1091 H 0.18561 0.9051 0.66146 0.0
H1092 H 0.25125 0.72281 0.64955 0.0
H1093 H 0.15539 0.72097 0.63499 0.0
C1094 C 0.06757 0.81675 0.62992 0.0
C1095 C 0.02804 0.8718 0.62801 0.0
C1096 C 0.11666 0.81316 0.63943 0.0
C1097 C 0.03391 0.92066 0.63635 0.0
C1098 C 0.08123 0.91682 0.64593 0.0
C1099 C 0.1785 0.86438 0.65583 0.0
C1100 C 0.22652 0.81476 0.65645 0.0
C1101 C 0.12456 0.86439 0.64728 0.0
C1102 C 0.21548 0.76195 0.64922 0.0
C1103 C 0.16087 0.76106 0.64082 0.0
H1104 H 0.6546 0.86381 0.16321 0.0
H1105 H 0.70518 0.68153 0.14934 0.0
H1106 H 0.60668 0.68864 0.13532 0.0
H1107 H 0.5199 0.75541 0.12461 0.0
H1108 H 0.47716 0.94088 0.13784 0.0
H1109 H 0.55891 0.92375 0.15449 0.0
C1110 C 0.64344 0.825 0.15728 0.0
C1111 C 0.6881 0.77291 0.1571 0.0
C1112 C 0.58877 0.83058 0.14896 0.0
C1113 C 0.67194 0.72242 0.14958 0.0
C1114 C 0.61599 0.72678 0.14148 0.0
C1115 C 0.52737 0.79146 0.1313 0.0
C1116 C 0.49339 0.84979 0.12986 0.0
C1117 C 0.57612 0.78198 0.1407 0.0
C1118 C 0.50353 0.89602 0.13861 0.0
C1119 C 0.55023 0.88626 0.14815 0.0
H1120 H 0.01722 0.94351 0.14169 0.0
H1121 H 0.9819 0.75366 0.13003 0.0
H1122 H 0.06374 0.7697 0.11339 0.0
H1123 H 0.15737 0.83095 0.10429 0.0
H1124 H 0.20035 0.0181 0.11666 0.0
H1125 H 0.10186 0.01065 0.13059 0.0
C1126 C 0.02635 0.90617 0.13534 0.0
C1127 C 0.99448 0.84709 0.13722 0.0
C1128 C 0.07511 0.91511 0.12596 0.0
C1129 C 0.00668 0.79919 0.12891 0.0
C1130 C 0.05342 0.80832 0.11938 0.0
C1131 C 0.1446 0.87067 0.10987 0.0
C1132 C 0.18715 0.92437 0.10966 0.0
C1133 C 0.0899 0.86509 0.11815 0.0
C1134 C 0.16884 0.97593 0.11673 0.0
C1135 C 0.11287 0.97146 0.12478 0.0
H1136 H 0.3958 0.74111 0.87848 0.0
H1137 H 0.24323 0.76642 0.85004 0.0
H1138 H 0.15819 0.70902 0.8627 0.0
H1139 H 0.1305 0.64501 0.88144 0.0
H1140 H 0.28958 0.61213 0.90839 0.0
H1141 H 0.37006 0.6773 0.89648 0.0
C1142 C 0.34353 0.73558 0.87509 0.0
C1143 C 0.32565 0.75893 0.86337 0.0
C1144 C 0.29682 0.69953 0.88203 0.0
C1145 C 0.25803 0.74966 0.85909 0.0
C1146 C 0.20976 0.71618 0.86626 0.0
C1147 C 0.18294 0.6522 0.88461 0.0
C1148 C 0.20424 0.62498 0.89582 0.0
C1149 C 0.22916 0.68954 0.87763 0.0
C1150 C 0.27207 0.6339 0.89989 0.0
C1151 C 0.31794 0.67104 0.89309 0.0
H1152 H 0.81726 0.60335 0.9083 0.0
H1153 H 0.82771 0.43283 0.88802 0.0
H1154 H 0.745 0.47642 0.87307 0.0
H1155 H 0.67893 0.56688 0.86503 0.0
H1156 H 0.68815 0.74376 0.88336 0.0
H1157 H 0.75195 0.69349 0.90014 0.0
C1158 C 0.79958 0.57514 0.9008 0.0
C1159 C 0.82679 0.51469 0.89932 0.0
C1160 C 0.75659 0.60222 0.89185 0.0
C1161 C 0.80596 0.47904 0.88939 0.0
C1162 C 0.75947 0.50424 0.88082 0.0
C1163 C 0.69692 0.59509 0.87242 0.0
C1164 C 0.6814 0.65971 0.87259 0.0
C1165 C 0.73653 0.56663 0.88174 0.0
C1166 C 0.70044 0.6942 0.88284 0.0
C1167 C 0.73691 0.6655 0.89245 0.0
H1168 H 0.09875 0.62687 0.38329 0.0
H1169 H 0.2438 0.61557 0.35361 0.0
H1170 H 0.32351 0.55615 0.36657 0.0
H1171 H 0.35394 0.51108 0.38602 0.0
H1172 H 0.22158 0.53498 0.4172 0.0
H1173 H 0.13325 0.5832 0.40384 0.0
C1174 C 0.14793 0.61136 0.37975 0.0
C1175 C 0.16462 0.62345 0.36741 0.0
C1176 C 0.19489 0.5785 0.38741 0.0
C1177 C 0.22874 0.60423 0.36292 0.0
C1178 C 0.27444 0.57058 0.37032 0.0
C1179 C 0.30561 0.52597 0.39001 0.0
C1180 C 0.29479 0.51954 0.40265 0.0
C1181 C 0.25789 0.55727 0.38252 0.0
C1182 C 0.23134 0.53912 0.4075 0.0
C1183 C 0.18122 0.56745 0.39988 0.0
H1184 H 0.63508 0.5841 0.38024 0.0
H1185 H 0.665 0.72877 0.40647 0.0
H1186 H 0.73605 0.78884 0.39206 0.0
H1187 H 0.79948 0.7942 0.37248 0.0
H1188 H 0.75298 0.65753 0.34522 0.0
H1189 H 0.6752 0.60259 0.35928 0.0
C1190 C 0.65681 0.62885 0.38284 0.0
C1191 C 0.65028 0.64882 0.39492 0.0
C1192 C 0.69331 0.66544 0.37416 0.0
C1193 C 0.67552 0.70875 0.39778 0.0
C1194 C 0.71438 0.74425 0.38936 0.0
C1195 C 0.7706 0.75356 0.36951 0.0
C1196 C 0.78284 0.72953 0.3579 0.0
C1197 C 0.72553 0.72198 0.37764 0.0
C1198 C 0.74447 0.67725 0.3541 0.0
C1199 C 0.70062 0.6451 0.3622 0.0
H1200 H 0.49288 0.30887 0.12854 0.0
H1201 H 0.5414 0.46903 0.15028 0.0
H1202 H 0.63208 0.50111 0.13589 0.0
H1203 H 0.70796 0.47485 0.11857 0.0
H1204 H 0.65492 0.31611 0.09664 0.0
H1205 H 0.5552 0.2935 0.10941 0.0
C1206 C 0.52261 0.35133 0.13 0.0
C1207 C 0.51123 0.38592 0.14052 0.0
C1208 C 0.57424 0.36978 0.12166 0.0
C1209 C 0.54932 0.44146 0.14223 0.0
C1210 C 0.60144 0.45972 0.13404 0.0
C1211 C 0.67347 0.43648 0.11639 0.0
C1212 C 0.69006 0.39641 0.10683 0.0
C1213 C 0.61586 0.42312 0.1239 0.0
C1214 C 0.64436 0.34706 0.10409 0.0
C1215 C 0.58724 0.3338 0.11143 0.0
H1216 H 0.21028 0.2196 0.14381 0.0
H1217 H 0.15368 0.37413 0.16648 0.0
H1218 H 0.05318 0.39595 0.1538 0.0
H1219 H 0.99084 0.38149 0.13462 0.0
H1220 H 0.0429 0.2257 0.11205 0.0
H1221 H 0.13456 0.19377 0.12631 0.0
C1222 C 0.17482 0.25678 0.14617 0.0
C1223 C 0.19058 0.29602 0.15593 0.0
C1224 C 0.11669 0.26968 0.13871 0.0
C1225 C 0.14376 0.34393 0.15888 0.0
C1226 C 0.08616 0.35669 0.1516 0.0
C1227 C 0.02148 0.3399 0.13295 0.0
C1228 C 0.01074 0.30657 0.12224 0.0
C1229 C 0.07377 0.32165 0.14121 0.0
C1230 C 0.05017 0.25223 0.12025 0.0
C1231 C 0.10291 0.23412 0.12838 0.0
H1232 H 0.51356 0.40923 0.638 0.0
H1233 H 0.5633 0.24497 0.61755 0.0
H1234 H 0.65446 0.21693 0.63217 0.0
H1235 H 0.73187 0.24931 0.64887 0.0
H1236 H 0.67929 0.41341 0.66926 0.0
H1237 H 0.5769 0.43026 0.65678 0.0
C1238 C 0.54353 0.36667 0.63688 0.0
C1239 C 0.53267 0.32992 0.62663 0.0
C1240 C 0.59582 0.35094 0.64528 0.0
C1241 C 0.57093 0.27424 0.62538 0.0
C1242 C 0.62337 0.25834 0.63369 0.0
C1243 C 0.69688 0.28757 0.6508 0.0
C1244 C 0.71427 0.33097 0.65976 0.0
C1245 C 0.63806 0.29772 0.64343 0.0
C1246 C 0.66803 0.38009 0.66222 0.0
C1247 C 0.60941 0.38998 0.65507 0.0
H1248 H 0.23252 0.50252 0.61999 0.0
H1249 H 0.18318 0.33679 0.59979 0.0
H1250 H 0.08138 0.31814 0.61226 0.0
H1251 H 0.01655 0.33921 0.63086 0.0
H1252 H 0.06198 0.50596 0.65092 0.0
H1253 H 0.15397 0.53422 0.63653 0.0
C1254 C 0.19842 0.46341 0.61811 0.0
C1255 C 0.21667 0.42016 0.60919 0.0
C1256 C 0.13962 0.45244 0.62543 0.0
C1257 C 0.17146 0.36999 0.6068 0.0
C1258 C 0.11308 0.3591 0.61394 0.0
C1259 C 0.04579 0.3823 0.63194 0.0
C1260 C 0.0333 0.41983 0.64201 0.0
C1261 C 0.09842 0.39835 0.62363 0.0
C1262 C 0.07076 0.47613 0.64322 0.0
C1263 C 0.12368 0.49218 0.63504 0.0
H1264 H 0.40137 0.29776 0.50778 0.0
H1265 H 0.22981 0.42406 0.51245 0.0
H1266 H 0.17694 0.38659 0.49365 0.0
H1267 H 0.17704 0.31338 0.47675 0.0
H1268 H 0.35058 0.18871 0.47207 0.0
H1269 H 0.40592 0.23096 0.49008 0.0
C1270 C 0.35227 0.31696 0.50468 0.0
C1271 C 0.31849 0.36242 0.51154 0.0
C1272 C 0.32289 0.29567 0.49393 0.0
C1273 C 0.25616 0.38853 0.50731 0.0
C1274 C 0.22605 0.36709 0.49661 0.0
C1275 C 0.22704 0.2955 0.47964 0.0
C1276 C 0.25913 0.2472 0.47322 0.0
C1277 C 0.2585 0.31991 0.48998 0.0
C1278 C 0.32455 0.2255 0.47692 0.0
C1279 C 0.35615 0.24948 0.48723 0.0
H1280 H 0.96526 0.04832 0.51924 0.0
H1281 H 0.10932 0.89684 0.51392 0.0
H1282 H 0.10433 0.91706 0.49176 0.0
H1283 H 0.06083 0.98085 0.47384 0.0
H1284 H 0.91547 0.13021 0.47992 0.0
H1285 H 0.91727 0.10606 0.5018 0.0
C1286 C -0.00339 0.01994 0.51333 0.0
C1287 C 0.0391 0.97189 0.51841 0.0
C1288 C 0.99164 0.03043 0.50064 0.0
C1289 C 0.0773 0.9349 0.51038 0.0
C1290 C 0.07381 0.94606 0.49768 0.0
C1291 C 0.02792 0.00666 0.47994 0.0
C1292 C 0.987 0.05673 0.4752 0.0
C1293 C 0.0309 0.99366 0.49268 0.0
C1294 C 0.94637 0.09094 0.48328 0.0
C1295 C 0.94818 0.07769 0.49582 0.0
H1296 H 0.40371 0.97191 0.75898 0.0
H1297 H 0.2335 0.84144 0.75668 0.0
H1298 H 0.18505 0.88195 0.77555 0.0
H1299 H 0.1884 0.9584 0.79181 0.0
H1300 H 0.36001 0.08767 0.7942 0.0
H1301 H 0.4115 0.04287 0.77606 0.0
C1302 C 0.35585 0.95249 0.7626 0.0
C1303 C 0.3211 0.90492 0.7564 0.0
C1304 C 0.3289 0.97566 0.77337 0.0
C1305 C 0.26051 0.87855 0.76131 0.0
C1306 C 0.23291 0.90174 0.77204 0.0
C1307 C 0.237 0.97695 0.78835 0.0
C1308 C 0.26972 0.02718 0.79414 0.0
C1309 C 0.26614 0.95101 0.778 0.0
C1310 C 0.33358 0.04948 0.78979 0.0
C1311 C 0.36292 0.024 0.77944 0.0
H1312 H 0.09251 0.28442 0.79384 0.0
H1313 H 0.91146 0.16685 0.79205 0.0
H1314 H 0.90201 0.18912 0.77015 0.0
H1315 H 0.9506 0.23338 0.75133 0.0
H1316 H 0.13 0.35349 0.75238 0.0
H1317 H 0.13588 0.33784 0.7747 0.0
C1318 C 0.04961 0.26571 0.7887 0.0
C1319 C 0.00168 0.22507 0.79462 0.0
C1320 C 0.04591 0.27713 0.77592 0.0
C1321 C 0.94785 0.1993 0.78777 0.0
C1322 C 0.94317 0.21122 0.7752 0.0
C1323 C 0.99178 0.25565 0.75637 0.0
C1324 C 0.04141 0.29286 0.75007 0.0
C1325 C 0.99317 0.24823 0.76914 0.0
C1326 C 0.09235 0.32328 0.75692 0.0
C1327 C 0.09518 0.31481 0.76969 0.0
H1328 H 0.70592 0.79555 0.47588 0.0
H1329 H 0.86146 0.65046 0.47481 0.0
H1330 H 0.91689 0.69337 0.49292 0.0
H1331 H 0.9162 0.76883 0.50948 0.0
H1332 H 0.76079 0.9145 0.50991 0.0
H1333 H 0.70973 0.8743 0.49134 0.0
C1334 C 0.75171 0.77289 0.47965 0.0
C1335 C 0.77888 0.71914 0.47429 0.0
C1336 C 0.78296 0.79785 0.48983 0.0
C1337 C 0.83949 0.69157 0.47894 0.0
C1338 C 0.87094 0.71599 0.48925 0.0
C1339 C 0.87106 0.79162 0.5055 0.0
C1340 C 0.84129 0.84368 0.51109 0.0
C1341 C 0.8423 0.7685 0.49485 0.0
C1342 C 0.78409 0.87404 0.50575 0.0
C1343 C 0.75489 0.85108 0.49519 0.0
H1344 H 0.88285 0.94346 0.2557 0.0
H1345 H 0.72283 0.80176 0.25572 0.0
H1346 H 0.67808 0.84062 0.27495 0.0
H1347 H 0.68146 0.91779 0.29099 0.0
H1348 H 0.8425 0.05863 0.29118 0.0
H1349 H 0.89089 0.01628 0.27253 0.0
C1350 C 0.83793 0.92132 0.25989 0.0
C1351 C 0.80503 0.87085 0.25425 0.0
C1352 C 0.8131 0.94349 0.27091 0.0
C1353 C 0.74836 0.84113 0.2599 0.0
C1354 C 0.72287 0.86329 0.27085 0.0
C1355 C 0.72707 0.9394 0.28694 0.0
C1356 C 0.75763 0.99204 0.29225 0.0
C1357 C 0.75431 0.91497 0.27631 0.0
C1358 C 0.81781 0.0184 0.28715 0.0
C1359 C 0.8453 0.99437 0.2765 0.0
H1360 H 0.06915 0.61907 0.28048 0.0
H1361 H 0.95785 0.77469 0.29553 0.0
H1362 H 0.95987 0.82942 0.27551 0.0
H1363 H 0.98524 0.82833 0.25342 0.0
H1364 H 0.09246 0.67009 0.2386 0.0
H1365 H 0.10311 0.6222 0.25905 0.0
C1366 C 0.04486 0.66486 0.27944 0.0
C1367 C 0.01174 0.69201 0.28948 0.0
C1368 C 0.04736 0.69624 0.26801 0.0
C1369 C 0.98257 0.75222 0.28794 0.0
C1370 C 0.98426 0.78368 0.27652 0.0
C1371 C 0.01363 0.78469 0.25474 0.0
C1372 C 0.03951 0.75335 0.24451 0.0
C1373 C 0.01603 0.75584 0.26646 0.0
C1374 C 0.07374 0.6957 0.24633 0.0
C1375 C 0.07854 0.66782 0.258 0.0
H1376 H 0.39745 0.78231 0.00977 0.0
H1377 H 0.22346 0.90794 0.01222 0.0
H1378 H 0.18195 0.87444 0.99231 0.0
H1379 H 0.19276 0.80586 0.97501 0.0
H1380 H 0.36766 0.68081 0.97245 0.0
H1381 H 0.41277 0.71927 0.99169 0.0
C1382 C 0.35021 0.80201 0.00594 0.0
C1383 C 0.31234 0.84621 0.01242 0.0
C1384 C 0.32758 0.78326 0.99455 0.0
C1385 C 0.25263 0.87325 0.00733 0.0
C1386 C 0.22915 0.85424 0.99601 0.0
C1387 C 0.24088 0.78702 0.97863 0.0
C1388 C 0.27624 0.7397 0.9725 0.0
C1389 C 0.26586 0.80873 0.98965 0.0
C1390 C 0.33932 0.71691 0.9771 0.0
C1391 C 0.36488 0.73859 0.9881 0.0
H1392 H 0.06985 0.61377 0.98172 0.0
H1393 H 0.97531 0.45585 0.9642 0.0
H1394 H 0.97365 0.39713 0.98379 0.0
H1395 H 0.98904 0.3952 0.00623 0.0
H1396 H 0.08399 0.55409 0.02334 0.0
H1397 H 0.09695 0.60733 0.00345 0.0
C1398 C 0.04789 0.56678 0.98214 0.0
C1399 C 0.02081 0.54004 0.9715 0.0
C1400 C 0.04808 0.53315 0.99335 0.0
C1401 C 0.99504 0.47817 0.97226 0.0
C1402 C 0.9944 0.44451 0.98345 0.0
C1403 C 0.01512 0.44037 0.00556 0.0
C1404 C 0.0362 0.47038 0.0163 0.0
C1405 C 0.02001 0.47184 0.9941 0.0
C1406 C 0.06814 0.52969 0.01525 0.0
C1407 C 0.07448 0.56057 0.00389 0.0
H1408 H 0.18078 0.41026 0.29227 0.0
H1409 H 0.34884 0.54404 0.29263 0.0
H1410 H 0.39756 0.49705 0.2744 0.0
H1411 H 0.38495 0.42556 0.25747 0.0
H1412 H 0.21564 0.29312 0.25697 0.0
H1413 H 0.17404 0.33253 0.27641 0.0
C1414 C 0.22814 0.42922 0.28836 0.0
C1415 C 0.26036 0.48162 0.29349 0.0
C1416 C 0.25482 0.40275 0.27791 0.0
C1417 C 0.32291 0.50424 0.28868 0.0
C1418 C 0.35042 0.47762 0.27827 0.0
C1419 C 0.33874 0.40545 0.2616 0.0
C1420 C 0.30193 0.35792 0.25571 0.0
C1421 C 0.31548 0.42826 0.27264 0.0
C1422 C 0.24388 0.33046 0.26131 0.0
C1423 C 0.22028 0.35291 0.27237 0.0
H1424 H 0.73117 0.19373 0.99253 0.0
H1425 H 0.81788 0.32718 0.96654 0.0
H1426 H 0.84636 0.39844 0.983 0.0
H1427 H 0.8393 0.42525 0.00468 0.0
H1428 H 0.75825 0.28894 0.03078 0.0
H1429 H 0.73625 0.21526 0.01445 0.0
C1430 C 0.7583 0.23759 0.99059 0.0
C1431 C 0.77321 0.25543 0.97849 0.0
C1432 C 0.77517 0.27765 1.00008 0.0
C1433 C 0.8074 0.31242 0.97589 0.0
C1434 C 0.82316 0.35322 0.98527 0.0
C1435 C 0.81693 0.37934 0.00674 0.0
C1436 C 0.7989 0.36263 0.01879 0.0
C1437 C 0.80594 0.33687 0.99737 0.0
C1438 C 0.7718 0.30262 0.02149 0.0
C1439 C 0.7593 0.26061 0.01219 0.0
H1440 H 0.71674 0.44662 0.79494 0.0
H1441 H 0.87688 0.58817 0.79492 0.0
H1442 H 0.92594 0.54469 0.77636 0.0
H1443 H 0.91552 0.47327 0.75933 0.0
H1444 H 0.75445 0.33243 0.7594 0.0
H1445 H 0.71275 0.36929 0.779 0.0
C1446 C 0.76248 0.46796 0.79088 0.0
C1447 C 0.79233 0.52144 0.79598 0.0
C1448 C 0.78941 0.44335 0.78027 0.0
C1449 C 0.85285 0.54737 0.79098 0.0
C1450 C 0.88051 0.52277 0.78039 0.0
C1451 C 0.87108 0.4508 0.76362 0.0
C1452 C 0.83661 0.40151 0.75786 0.0
C1453 C 0.84782 0.47205 0.77479 0.0
C1454 C 0.78088 0.37112 0.76365 0.0
C1455 C 0.75721 0.39209 0.77481 0.0
H1456 H 0.60606 0.07796 0.98568 0.0
H1457 H 0.46811 0.94227 0.97006 0.0
H1458 H 0.46195 0.88548 0.98993 0.0
H1459 H 0.48551 0.88285 0.0123 0.0
H1460 H 0.61707 0.02447 0.02756 0.0
H1461 H 0.6378 0.06975 0.00714 0.0
C1462 C 0.5745 0.03584 0.98653 0.0
C1463 C 0.53609 0.01534 0.97639 0.0
C1464 C 0.57108 0.00416 0.99792 0.0
C1465 C 0.49749 0.95955 0.97769 0.0
C1466 C 0.49407 0.92718 0.98907 0.0
C1467 C 0.52099 0.92203 0.01107 0.0
C1468 C 0.55124 0.94943 0.02144 0.0
C1469 C 0.52953 0.9499 0.99932 0.0
C1470 C 0.59477 0.00171 0.01975 0.0
C1471 C 0.60563 0.02811 0.00809 0.0
H1472 H 0.56498 0.2402 0.2929 0.0
H1473 H 0.39549 0.10901 0.29127 0.0
H1474 H 0.38349 0.1307 0.26939 0.0
H1475 H 0.42597 0.17996 0.25057 0.0
H1476 H 0.59374 0.31343 0.25142 0.0
H1477 H 0.60269 0.297 0.27368 0.0
C1478 C 0.52392 0.21818 0.2878 0.0
C1479 C 0.47993 0.17402 0.29379 0.0
C1480 C 0.51877 0.22951 0.27502 0.0
C1481 C 0.42872 0.14414 0.28696 0.0
C1482 C 0.42262 0.15583 0.2744 0.0
C1483 C 0.46552 0.20495 0.25552 0.0
C1484 C 0.51087 0.24637 0.24915 0.0
C1485 C 0.4686 0.19687 0.26829 0.0
C1486 C 0.55943 0.28006 0.25596 0.0
C1487 C 0.56398 0.2711 0.26873 0.0
H1488 H 0.59909 0.65767 0.78344 0.0
H1489 H 0.48622 0.81069 0.79908 0.0
H1490 H 0.4848 0.86605 0.77911 0.0
H1491 H 0.50758 0.86609 0.75687 0.0
H1492 H 0.61697 0.71054 0.74152 0.0
H1493 H 0.63058 0.66214 0.76188 0.0
C1494 C 0.57378 0.70306 0.78254 0.0
C1495 C 0.54123 0.72922 0.79275 0.0
C1496 C 0.57427 0.73482 0.77113 0.0
C1497 C 0.51064 0.78894 0.79138 0.0
C1498 C 0.5103 0.82076 0.77997 0.0
C1499 C 0.5371 0.823 0.75806 0.0
C1500 C 0.56284 0.79263 0.7477 0.0
C1501 C 0.54145 0.79385 0.76975 0.0
C1502 C 0.59838 0.73552 0.74935 0.0
C1503 C 0.60492 0.70732 0.76097 0.0
H1504 H 0.4981 0.39382 0.51042 0.0
H1505 H 0.62708 0.54243 0.52382 0.0
H1506 H 0.63764 0.58728 0.50312 0.0
H1507 H 0.59759 0.59246 0.48211 0.0
H1508 H 0.46235 0.44899 0.46839 0.0
H1509 H 0.46611 0.39379 0.48843 0.0
C1510 C 0.53095 0.43448 0.5087 0.0
C1511 C 0.56335 0.46401 0.51862 0.0
C1512 C 0.53336 0.46201 0.49685 0.0
C1513 C 0.60333 0.51808 0.51633 0.0
C1514 C 0.60825 0.54424 0.50453 0.0
C1515 C 0.56852 0.54913 0.48342 0.0
C1516 C 0.52796 0.52588 0.47379 0.0
C1517 C 0.57114 0.51811 0.49486 0.0
C1518 C 0.49296 0.46849 0.47565 0.0
C1519 C 0.49539 0.43694 0.48711 0.0
loop_
_geom_bond_atom_site_label_1
_geom_bond_atom_site_label_2
_geom_bond_distance
_geom_bond_site_symmetry_2
_ccdc_geom_bond_type
C0 O27 1.312 . S
C0 O28 1.208 . S
C1 O22 1.331 . S
C1 O25 1.244 . S
C2 O24 1.264 . S
C2 O26 1.273 . S
Mg3 O5 1.936 1_655 S
Mg3 O12 2.081 . S
Mg3 O14 2.023 1_545 S
Mg3 O18 2.031 . S
Mg3 O27 2.291 1_655 S
Mg4 O5 1.963 . S
Mg4 O15 1.942 1_455 S
Mg4 O16 1.955 1_545 S
Mg4 O23 1.986 . S
O5 Mg3 1.936 1_455 S
O5 Mg4 1.963 . S
O5 Mg6 1.915 . S
Mg6 O5 1.915 . S
Mg6 O7 1.915 . S
Mg6 O11 2.013 . S
Mg6 O17 2.114 . S
Mg6 O21 2.013 . S
Mg6 O27 2.114 . S
O7 Mg6 1.915 . S
O7 Mg8 1.936 . S
O7 Mg9 1.963 . S
Mg8 O7 1.936 . S
Mg8 O17 2.291 . S
Mg8 O22 2.081 . S
Mg8 O24 2.023 . S
Mg8 O28 2.031 . S
Mg9 O7 1.963 . S
Mg9 O13 1.986 . S
Mg9 O25 1.942 . S
Mg9 O26 1.955 . S
C10 O21 1.191 . S
C10 O23 1.307 . S
O11 Mg6 2.013 . S
O11 C30 1.191 . S
O12 Mg3 2.081 . S
O12 C20 1.331 . S
O13 Mg9 1.986 . S
O13 C30 1.307 . S
O14 Mg3 2.023 1_565 S
O14 C29 1.264 . S
O15 Mg4 1.942 1_655 S
O15 C20 1.244 . S
O16 Mg4 1.955 1_565 S
O16 C29 1.273 1_455 S
O17 Mg6 2.114 . S
O17 Mg8 2.291 . S
O17 C19 1.312 1_455 S
O18 Mg3 2.031 . S
O18 C19 1.208 . S
C19 O17 1.312 1_655 S
C19 O18 1.208 . S
C20 O12 1.331 . S
C20 O15 1.244 . S
O21 Mg6 2.013 . S
O21 C10 1.191 . S
O22 C1 1.331 . S
O22 Mg8 2.081 . S
O23 Mg4 1.986 . S
O23 C10 1.307 . S
O24 C2 1.264 . S
O24 Mg8 2.023 . S
O25 C1 1.244 . S
O25 Mg9 1.942 . S
O26 C2 1.273 . S
O26 Mg9 1.955 . S
O27 C0 1.312 . S
O27 Mg3 2.291 1_455 S
O27 Mg6 2.114 . S
O28 C0 1.208 . S
O28 Mg8 2.031 . S
C29 O14 1.264 . S
C29 O16 1.273 1_655 S
C30 O11 1.191 . S
C30 O13 1.307 . S
C31 O58 1.312 1_655 S
C31 O59 1.208 . S
C32 O53 1.331 . S
C32 O56 1.244 . S
C33 O55 1.264 . S
C33 O57 1.273 1_655 S
Mg34 O36 1.936 . S
Mg34 O43 2.081 . S
Mg34 O45 2.023 1_545 S
Mg34 O49 2.031 . S
Mg34 O58 2.291 . S
Mg35 O36 1.963 . S
Mg35 O46 1.942 . S
Mg35 O47 1.955 . S
Mg35 O54 1.986 . S
O36 Mg34 1.936 . S
O36 Mg35 1.963 . S
O36 Mg37 1.915 . S
Mg37 O36 1.915 . S
Mg37 O38 1.915 . S
Mg37 O42 2.013 . S
Mg37 O48 2.114 . S
Mg37 O52 2.013 . S
Mg37 O58 2.114 . S
O38 Mg37 1.915 . S
O38 Mg39 1.936 1_455 S
O38 Mg40 1.963 . S
Mg39 O38 1.936 1_655 S
Mg39 O48 2.291 1_655 S
Mg39 O53 2.081 . S
Mg39 O55 2.023 . S
Mg39 O59 2.031 . S
Mg40 O38 1.963 . S
Mg40 O44 1.986 . S
Mg40 O56 1.942 1_455 S
Mg40 O57 1.955 . S
C41 O52 1.191 . S
C41 O54 1.307 . S
O42 Mg37 2.013 . S
O42 C61 1.191 . S
O43 Mg34 2.081 . S
O43 C51 1.331 . S
O44 Mg40 1.986 . S
O44 C61 1.307 . S
O45 Mg34 2.023 1_565 S
O45 C60 1.264 . S
O46 Mg35 1.942 . S
O46 C51 1.244 . S
O47 Mg35 1.955 . S
O47 C60 1.273 1_545 S
O48 Mg37 2.114 . S
O48 Mg39 2.291 1_455 S
O48 C50 1.312 . S
O49 Mg34 2.031 . S
O49 C50 1.208 . S
C50 O48 1.312 . S
C50 O49 1.208 . S
C51 O43 1.331 . S
C51 O46 1.244 . S
O52 Mg37 2.013 . S
O52 C41 1.191 . S
O53 C32 1.331 . S
O53 Mg39 2.081 . S
O54 Mg35 1.986 . S
O54 C41 1.307 . S
O55 C33 1.264 . S
O55 Mg39 2.023 . S
O56 C32 1.244 . S
O56 Mg40 1.942 1_655 S
O57 C33 1.273 1_455 S
O57 Mg40 1.955 . S
O58 C31 1.312 1_455 S
O58 Mg34 2.291 . S
O58 Mg37 2.114 . S
O59 C31 1.208 . S
O59 Mg39 2.031 . S
C60 O45 1.264 . S
C60 O47 1.273 1_565 S
C61 O42 1.191 . S
C61 O44 1.307 . S
C62 O89 1.312 1_455 S
C62 O90 1.208 . S
C63 O84 1.331 . S
C63 O87 1.244 . S
C64 O86 1.264 . S
C64 O88 1.273 . S
Mg65 O67 1.936 . S
Mg65 O74 2.081 . S
Mg65 O76 2.023 . S
Mg65 O80 2.031 . S
Mg65 O89 2.291 . S
Mg66 O67 1.963 . S
Mg66 O77 1.942 . S
Mg66 O78 1.955 . S
Mg66 O85 1.986 . S
O67 Mg65 1.936 . S
O67 Mg66 1.963 . S
O67 Mg68 1.915 . S
Mg68 O67 1.915 . S
Mg68 O69 1.915 . S
Mg68 O73 2.013 . S
Mg68 O79 2.114 . S
Mg68 O83 2.013 . S
Mg68 O89 2.114 . S
O69 Mg68 1.915 . S
O69 Mg70 1.936 . S
O69 Mg71 1.963 . S
Mg70 O69 1.936 . S
Mg70 O79 2.291 . S
Mg70 O84 2.081 1_655 S
Mg70 O86 2.023 . S
Mg70 O90 2.031 1_655 S
Mg71 O69 1.963 . S
Mg71 O75 1.990 . S
Mg71 O87 1.942 1_655 S
Mg71 O88 1.955 . S
C72 O83 1.191 . S
C72 O85 1.307 . S
O73 Mg68 2.013 . S
O73 C92 1.191 1_655 S
O74 Mg65 2.081 . S
O74 C82 1.331 . S
O75 Mg71 1.990 . S
O75 C92 1.305 1_655 S
O76 Mg65 2.023 . S
O76 C91 1.264 1_655 S
O77 Mg66 1.942 . S
O77 C82 1.244 . S
O78 Mg66 1.955 . S
O78 C91 1.273 1_655 S
O79 Mg68 2.114 . S
O79 Mg70 2.291 . S
O79 C81 1.312 . S
O80 Mg65 2.031 . S
O80 C81 1.208 . S
C81 O79 1.312 . S
C81 O80 1.208 . S
C82 O74 1.331 . S
C82 O77 1.244 . S
O83 Mg68 2.013 . S
O83 C72 1.191 . S
O84 C63 1.331 . S
O84 Mg70 2.081 1_455 S
O85 Mg66 1.986 . S
O85 C72 1.307 . S
O86 C64 1.264 . S
O86 Mg70 2.023 . S
O87 C63 1.244 . S
O87 Mg71 1.942 1_455 S
O88 C64 1.273 . S
O88 Mg71 1.955 . S
O89 C62 1.312 1_655 S
O89 Mg65 2.291 . S
O89 Mg68 2.114 . S
O90 C62 1.208 . S
O90 Mg70 2.031 1_455 S
C91 O76 1.264 1_455 S
C91 O78 1.273 1_455 S
C92 O73 1.191 1_455 S
C92 O75 1.305 1_455 S
C93 O120 1.312 . S
C93 O121 1.208 1_565 S
C94 O115 1.331 . S
C94 O118 1.244 . S
C95 O117 1.264 1_455 S
C95 O119 1.273 1_455 S
Mg96 O98 1.936 . S
Mg96 O105 2.081 1_655 S
Mg96 O107 2.023 . S
Mg96 O111 2.031 1_655 S
Mg96 O120 2.291 . S
Mg97 O98 1.963 . S
Mg97 O108 1.942 1_655 S
Mg97 O109 1.955 . S
Mg97 O116 1.991 . S
O98 Mg96 1.936 . S
O98 Mg97 1.963 . S
O98 Mg99 1.915 . S
Mg99 O98 1.915 . S
Mg99 O100 1.915 . S
Mg99 O104 2.013 . S
Mg99 O110 2.114 . S
Mg99 O114 2.013 . S
Mg99 O120 2.114 . S
O100 Mg99 1.915 . S
O100 Mg101 1.936 . S
O100 Mg102 1.963 . S
Mg101 O100 1.936 . S
Mg101 O110 2.291 . S
Mg101 O115 2.081 . S
Mg101 O117 2.023 . S
Mg101 O121 2.029 1_565 S
Mg102 O100 1.963 . S
Mg102 O106 1.986 . S
Mg102 O118 1.942 . S
Mg102 O119 1.955 . S
C103 O114 1.191 1_455 S
C103 O116 1.305 1_455 S
O104 Mg99 2.013 . S
O104 C123 1.191 . S
O105 Mg96 2.081 1_455 S
O105 C113 1.331 . S
O106 Mg102 1.986 . S
O106 C123 1.307 . S
O107 Mg96 2.023 . S
O107 C122 1.264 . S
O108 Mg97 1.942 1_455 S
O108 C113 1.244 . S
O109 Mg97 1.955 . S
O109 C122 1.273 . S
O110 Mg99 2.114 . S
O110 Mg101 2.291 . S
O110 C112 1.312 1_655 S
O111 Mg96 2.031 1_455 S
O111 C112 1.208 . S
C112 O110 1.312 1_455 S
C112 O111 1.208 . S
C113 O105 1.331 . S
C113 O108 1.244 . S
O114 Mg99 2.013 . S
O114 C103 1.191 1_655 S
O115 C94 1.331 . S
O115 Mg101 2.081 . S
O116 Mg97 1.991 . S
O116 C103 1.305 1_655 S
O117 C95 1.264 1_655 S
O117 Mg101 2.023 . S
O118 C94 1.244 . S
O118 Mg102 1.942 . S
O119 C95 1.273 1_655 S
O119 Mg102 1.955 . S
O120 C93 1.312 . S
O120 Mg96 2.291 . S
O120 Mg99 2.114 . S
O121 C93 1.208 1_545 S
O121 Mg101 2.029 1_545 S
C122 O107 1.264 . S
C122 O109 1.273 . S
C123 O104 1.191 . S
C123 O106 1.307 . S
C124 O151 1.312 . S
C124 O152 1.208 . S
C125 O146 1.331 . S
C125 O149 1.244 . S
C126 O148 1.264 . S
C126 O150 1.273 . S
Mg127 O129 1.936 1_655 S
Mg127 O136 2.081 . S
Mg127 O138 2.023 . S
Mg127 O142 2.031 . S
Mg127 O151 2.291 1_655 S
Mg128 O129 1.963 . S
Mg128 O139 1.942 1_455 S
Mg128 O140 1.955 . S
Mg128 O147 1.986 . S
O129 Mg127 1.936 1_455 S
O129 Mg128 1.963 . S
O129 Mg130 1.915 . S
Mg130 O129 1.915 . S
Mg130 O131 1.915 . S
Mg130 O135 2.013 . S
Mg130 O141 2.114 . S
Mg130 O145 2.013 . S
Mg130 O151 2.114 . S
O131 Mg130 1.915 . S
O131 Mg132 1.936 . S
O131 Mg133 1.963 . S
Mg132 O131 1.936 . S
Mg132 O141 2.291 . S
Mg132 O146 2.081 . S
Mg132 O148 2.023 . S
Mg132 O152 2.031 . S
Mg133 O131 1.963 . S
Mg133 O137 1.986 . S
Mg133 O149 1.942 . S
Mg133 O150 1.955 . S
C134 O145 1.191 . S
C134 O147 1.307 . S
O135 Mg130 2.013 . S
O135 C154 1.191 . S
O136 Mg127 2.081 . S
O136 C144 1.331 . S
O137 Mg133 1.986 . S
O137 C154 1.307 . S
O138 Mg127 2.023 . S
O138 C153 1.264 . S
O139 Mg128 1.942 1_655 S
O139 C144 1.244 . S
O140 Mg128 1.955 . S
O140 C153 1.273 1_455 S
O141 Mg130 2.114 . S
O141 Mg132 2.291 . S
O141 C143 1.312 1_455 S
O142 Mg127 2.031 . S
O142 C143 1.208 . S
C143 O141 1.312 1_655 S
C143 O142 1.208 . S
C144 O136 1.331 . S
C144 O139 1.244 . S
O145 Mg130 2.013 . S
O145 C134 1.191 . S
O146 C125 1.331 . S
O146 Mg132 2.081 . S
O147 Mg128 1.986 . S
O147 C134 1.307 . S
O148 C126 1.264 . S
O148 Mg132 2.023 . S
O149 C125 1.244 . S
O149 Mg133 1.942 . S
O150 C126 1.273 . S
O150 Mg133 1.955 . S
O151 C124 1.312 . S
O151 Mg127 2.291 1_455 S
O151 Mg130 2.114 . S
O152 C124 1.208 . S
O152 Mg132 2.031 . S
C153 O138 1.264 . S
C153 O140 1.273 1_655 S
C154 O135 1.191 . S
C154 O137 1.307 . S
C155 O182 1.312 1_655 S
C155 O183 1.208 . S
C156 O177 1.331 . S
C156 O180 1.244 . S
C157 O179 1.264 . S
C157 O181 1.273 1_655 S
Mg158 O160 1.936 . S
Mg158 O167 2.081 . S
Mg158 O169 2.023 . S
Mg158 O173 2.031 . S
Mg158 O182 2.291 . S
Mg159 O160 1.963 . S
Mg159 O170 1.942 . S
Mg159 O171 1.955 . S
Mg159 O178 1.986 . S
O160 Mg158 1.936 . S
O160 Mg159 1.963 . S
O160 Mg161 1.915 . S
Mg161 O160 1.915 . S
Mg161 O162 1.915 . S
Mg161 O166 2.013 . S
Mg161 O172 2.114 . S
Mg161 O176 2.013 . S
Mg161 O182 2.114 . S
O162 Mg161 1.915 . S
O162 Mg163 1.936 1_455 S
O162 Mg164 1.963 . S
Mg163 O162 1.936 1_655 S
Mg163 O172 2.291 1_655 S
Mg163 O177 2.081 . S
Mg163 O179 2.023 . S
Mg163 O183 2.031 . S
Mg164 O162 1.963 . S
Mg164 O168 1.986 . S
Mg164 O180 1.942 1_455 S
Mg164 O181 1.955 . S
C165 O176 1.191 . S
C165 O178 1.307 . S
O166 Mg161 2.013 . S
O166 C185 1.191 . S
O167 Mg158 2.081 . S
O167 C175 1.331 . S
O168 Mg164 1.986 . S
O168 C185 1.307 . S
O169 Mg158 2.023 . S
O169 C184 1.264 . S
O170 Mg159 1.942 . S
O170 C175 1.244 . S
O171 Mg159 1.955 . S
O171 C184 1.273 . S
O172 Mg161 2.114 . S
O172 Mg163 2.291 1_455 S
O172 C174 1.312 . S
O173 Mg158 2.031 . S
O173 C174 1.208 . S
C174 O172 1.312 . S
C174 O173 1.208 . S
C175 O167 1.331 . S
C175 O170 1.244 . S
O176 Mg161 2.013 . S
O176 C165 1.191 . S
O177 C156 1.331 . S
O177 Mg163 2.081 . S
O178 Mg159 1.986 . S
O178 C165 1.307 . S
O179 C157 1.264 . S
O179 Mg163 2.023 . S
O180 C156 1.244 . S
O180 Mg164 1.942 1_655 S
O181 C157 1.273 1_455 S
O181 Mg164 1.955 . S
O182 C155 1.312 1_455 S
O182 Mg158 2.291 . S
O182 Mg161 2.114 . S
O183 C155 1.208 . S
O183 Mg163 2.031 . S
C184 O169 1.264 . S
C184 O171 1.273 . S
C185 O166 1.191 . S
C185 O168 1.307 . S
C186 O213 1.312 1_455 S
C186 O214 1.208 . S
C187 O208 1.331 . S
C187 O211 1.244 . S
C188 O210 1.264 . S
C188 O212 1.273 . S
Mg189 O191 1.936 . S
Mg189 O198 2.081 . S
Mg189 O200 2.023 . S
Mg189 O204 2.031 . S
Mg189 O213 2.291 . S
Mg190 O191 1.963 . S
Mg190 O201 1.942 . S
Mg190 O202 1.955 . S
Mg190 O209 1.986 . S
O191 Mg189 1.936 . S
O191 Mg190 1.963 . S
O191 Mg192 1.915 . S
Mg192 O191 1.915 . S
Mg192 O193 1.915 . S
Mg192 O197 2.013 . S
Mg192 O203 2.114 . S
Mg192 O207 2.013 . S
Mg192 O213 2.114 . S
O193 Mg192 1.915 . S
O193 Mg194 1.936 . S
O193 Mg195 1.963 . S
Mg194 O193 1.936 . S
Mg194 O203 2.291 . S
Mg194 O208 2.081 1_655 S
Mg194 O210 2.023 . S
Mg194 O214 2.031 1_655 S
Mg195 O193 1.963 . S
Mg195 O199 1.990 . S
Mg195 O211 1.942 1_655 S
Mg195 O212 1.955 . S
C196 O207 1.191 . S
C196 O209 1.307 . S
O197 Mg192 2.013 . S
O197 C216 1.191 1_655 S
O198 Mg189 2.081 . S
O198 C206 1.331 . S
O199 Mg195 1.990 . S
O199 C216 1.305 1_655 S
O200 Mg189 2.023 . S
O200 C215 1.264 1_655 S
O201 Mg190 1.942 . S
O201 C206 1.244 . S
O202 Mg190 1.955 . S
O202 C215 1.273 1_655 S
O203 Mg192 2.114 . S
O203 Mg194 2.291 . S
O203 C205 1.312 . S
O204 Mg189 2.031 . S
O204 C205 1.208 . S
C205 O203 1.312 . S
C205 O204 1.208 . S
C206 O198 1.331 . S
C206 O201 1.244 . S
O207 Mg192 2.013 . S
O207 C196 1.191 . S
O208 C187 1.331 . S
O208 Mg194 2.081 1_455 S
O209 Mg190 1.986 . S
O209 C196 1.307 . S
O210 C188 1.264 . S
O210 Mg194 2.023 . S
O211 C187 1.244 . S
O211 Mg195 1.942 1_455 S
O212 C188 1.273 . S
O212 Mg195 1.955 . S
O213 C186 1.312 1_655 S
O213 Mg189 2.291 . S
O213 Mg192 2.114 . S
O214 C186 1.208 . S
O214 Mg194 2.031 1_455 S
C215 O200 1.264 1_455 S
C215 O202 1.273 1_455 S
C216 O197 1.191 1_455 S
C216 O199 1.305 1_455 S
C217 O244 1.312 1_455 S
C217 O245 1.208 . S
C218 O239 1.331 . S
C218 O242 1.244 . S
C219 O241 1.264 . S
C219 O243 1.273 . S
Mg220 O222 1.936 . S
Mg220 O229 2.081 . S
Mg220 O231 2.023 . S
Mg220 O235 2.031 . S
Mg220 O244 2.291 . S
Mg221 O222 1.963 . S
Mg221 O232 1.942 . S
Mg221 O233 1.955 . S
Mg221 O240 1.986 . S
O222 Mg220 1.936 . S
O222 Mg221 1.963 . S
O222 Mg223 1.915 . S
Mg223 O222 1.915 . S
Mg223 O224 1.915 . S
Mg223 O228 2.013 . S
Mg223 O234 2.114 . S
Mg223 O238 2.013 . S
Mg223 O244 2.114 . S
O224 Mg223 1.915 . S
O224 Mg225 1.936 . S
O224 Mg226 1.963 . S
Mg225 O224 1.936 . S
Mg225 O234 2.291 . S
Mg225 O239 2.081 1_655 S
Mg225 O241 2.023 . S
Mg225 O245 2.031 1_655 S
Mg226 O224 1.963 . S
Mg226 O230 1.990 . S
Mg226 O242 1.942 1_655 S
Mg226 O243 1.955 . S
C227 O238 1.191 . S
C227 O240 1.307 . S
O228 Mg223 2.013 . S
O228 C247 1.191 1_655 S
O229 Mg220 2.081 . S
O229 C237 1.331 . S
O230 Mg226 1.990 . S
O230 C247 1.305 1_655 S
O231 Mg220 2.023 . S
O231 C246 1.264 1_655 S
O232 Mg221 1.942 . S
O232 C237 1.244 . S
O233 Mg221 1.955 . S
O233 C246 1.273 1_655 S
O234 Mg223 2.114 . S
O234 Mg225 2.291 . S
O234 C236 1.312 . S
O235 Mg220 2.031 . S
O235 C236 1.208 . S
C236 O234 1.312 . S
C236 O235 1.208 . S
C237 O229 1.331 . S
C237 O232 1.244 . S
O238 Mg223 2.013 . S
O238 C227 1.191 . S
O239 C218 1.331 . S
O239 Mg225 2.081 1_455 S
O240 Mg221 1.986 . S
O240 C227 1.307 . S
O241 C219 1.264 . S
O241 Mg225 2.023 . S
O242 C218 1.244 . S
O242 Mg226 1.942 1_455 S
O243 C219 1.273 . S
O243 Mg226 1.955 . S
O244 C217 1.312 1_655 S
O244 Mg220 2.291 . S
O244 Mg223 2.114 . S
O245 C217 1.208 . S
O245 Mg225 2.031 1_455 S
C246 O231 1.264 1_455 S
C246 O233 1.273 1_455 S
C247 O228 1.191 1_455 S
C247 O230 1.305 1_455 S
C248 O275 1.312 . S
C248 O276 1.208 . S
C249 O270 1.331 . S
C249 O273 1.244 . S
C250 O272 1.264 . S
C250 O274 1.273 . S
Mg251 O253 1.936 . S
Mg251 O260 2.081 . S
Mg251 O262 2.023 1_545 S
Mg251 O266 2.031 . S
Mg251 O275 2.291 . S
Mg252 O253 1.963 . S
Mg252 O263 1.942 . S
Mg252 O264 1.955 1_545 S
Mg252 O271 1.986 . S
O253 Mg251 1.936 . S
O253 Mg252 1.963 . S
O253 Mg254 1.915 . S
Mg254 O253 1.915 . S
Mg254 O255 1.915 . S
Mg254 O259 2.013 . S
Mg254 O265 2.114 . S
Mg254 O269 2.013 . S
Mg254 O275 2.114 . S
O255 Mg254 1.915 . S
O255 Mg256 1.936 . S
O255 Mg257 1.963 . S
Mg256 O255 1.936 . S
Mg256 O265 2.291 . S
Mg256 O270 2.081 . S
Mg256 O272 2.023 . S
Mg256 O276 2.031 . S
Mg257 O255 1.963 . S
Mg257 O261 1.986 . S
Mg257 O273 1.942 . S
Mg257 O274 1.955 . S
C258 O269 1.191 . S
C258 O271 1.307 . S
O259 Mg254 2.013 . S
O259 C278 1.191 . S
O260 Mg251 2.081 . S
O260 C268 1.331 . S
O261 Mg257 1.986 . S
O261 C278 1.307 . S
O262 Mg251 2.023 1_565 S
O262 C277 1.264 . S
O263 Mg252 1.942 . S
O263 C268 1.244 . S
O264 Mg252 1.955 1_565 S
O264 C277 1.273 . S
O265 Mg254 2.114 . S
O265 Mg256 2.291 . S
O265 C267 1.312 . S
O266 Mg251 2.031 . S
O266 C267 1.208 . S
C267 O265 1.312 . S
C267 O266 1.208 . S
C268 O260 1.331 . S
C268 O263 1.244 . S
O269 Mg254 2.013 . S
O269 C258 1.191 . S
O270 C249 1.331 . S
O270 Mg256 2.081 . S
O271 Mg252 1.986 . S
O271 C258 1.307 . S
O272 C250 1.264 . S
O272 Mg256 2.023 . S
O273 C249 1.244 . S
O273 Mg257 1.942 . S
O274 C250 1.273 . S
O274 Mg257 1.955 . S
O275 C248 1.312 . S
O275 Mg251 2.291 . S
O275 Mg254 2.114 . S
O276 C248 1.208 . S
O276 Mg256 2.031 . S
C277 O262 1.264 . S
C277 O264 1.273 . S
C278 O259 1.191 . S
C278 O261 1.307 . S
C279 O306 1.312 . S
C279 O307 1.208 . S
C280 O301 1.331 . S
C280 O304 1.244 . S
C281 O303 1.264 . S
C281 O305 1.273 1_565 S
Mg282 O284 1.936 . S
Mg282 O291 2.081 . S
Mg282 O293 2.023 . S
Mg282 O297 2.031 . S
Mg282 O306 2.291 . S
Mg283 O284 1.963 . S
Mg283 O294 1.942 . S
Mg283 O295 1.955 . S
Mg283 O302 1.986 . S
O284 Mg282 1.936 . S
O284 Mg283 1.963 . S
O284 Mg285 1.915 . S
Mg285 O284 1.915 . S
Mg285 O286 1.915 . S
Mg285 O290 2.013 . S
Mg285 O296 2.114 . S
Mg285 O300 2.013 . S
Mg285 O306 2.114 . S
O286 Mg285 1.915 . S
O286 Mg287 1.936 . S
O286 Mg288 1.963 . S
Mg287 O286 1.936 . S
Mg287 O296 2.291 . S
Mg287 O301 2.081 . S
Mg287 O303 2.023 1_545 S
Mg287 O307 2.031 . S
Mg288 O286 1.963 . S
Mg288 O292 1.986 . S
Mg288 O304 1.942 . S
Mg288 O305 1.955 . S
C289 O300 1.191 . S
C289 O302 1.307 . S
O290 Mg285 2.013 . S
O290 C309 1.191 . S
O291 Mg282 2.081 . S
O291 C299 1.331 . S
O292 Mg288 1.986 . S
O292 C309 1.307 . S
O293 Mg282 2.023 . S
O293 C308 1.264 . S
O294 Mg283 1.942 . S
O294 C299 1.244 . S
O295 Mg283 1.955 . S
O295 C308 1.273 . S
O296 Mg285 2.114 . S
O296 Mg287 2.291 . S
O296 C298 1.312 . S
O297 Mg282 2.031 . S
O297 C298 1.208 . S
C298 O296 1.312 . S
C298 O297 1.208 . S
C299 O291 1.331 . S
C299 O294 1.244 . S
O300 Mg285 2.013 . S
O300 C289 1.191 . S
O301 C280 1.331 . S
O301 Mg287 2.081 . S
O302 Mg283 1.986 . S
O302 C289 1.307 . S
O303 C281 1.264 . S
O303 Mg287 2.023 1_565 S
O304 C280 1.244 . S
O304 Mg288 1.942 . S
O305 C281 1.273 1_545 S
O305 Mg288 1.955 . S
O306 C279 1.312 . S
O306 Mg282 2.291 . S
O306 Mg285 2.114 . S
O307 C279 1.208 . S
O307 Mg287 2.031 . S
C308 O293 1.264 . S
C308 O295 1.273 . S
C309 O290 1.191 . S
C309 O292 1.307 . S
C310 O337 1.312 . S
C310 O338 1.208 . S
C311 O332 1.331 . S
C311 O335 1.244 . S
C312 O334 1.264 . S
C312 O336 1.273 . S
Mg313 O315 1.936 . S
Mg313 O322 2.081 . S
Mg313 O324 2.023 . S
Mg313 O328 2.031 . S
Mg313 O337 2.291 . S
Mg314 O315 1.963 . S
Mg314 O325 1.942 . S
Mg314 O326 1.955 . S
Mg314 O333 1.986 . S
O315 Mg313 1.936 . S
O315 Mg314 1.963 . S
O315 Mg316 1.915 . S
Mg316 O315 1.915 . S
Mg316 O317 1.915 . S
Mg316 O321 2.013 . S
Mg316 O327 2.114 . S
Mg316 O331 2.013 . S
Mg316 O337 2.114 . S
O317 Mg316 1.915 . S
O317 Mg318 1.936 . S
O317 Mg319 1.963 . S
Mg318 O317 1.936 . S
Mg318 O327 2.291 . S
Mg318 O332 2.081 . S
Mg318 O334 2.023 . S
Mg318 O338 2.031 . S
Mg319 O317 1.963 . S
Mg319 O323 1.986 . S
Mg319 O335 1.942 . S
Mg319 O336 1.955 . S
C320 O331 1.191 . S
C320 O333 1.307 . S
O321 Mg316 2.013 . S
O321 C340 1.191 . S
O322 Mg313 2.081 . S
O322 C330 1.331 . S
O323 Mg319 1.986 . S
O323 C340 1.307 . S
O324 Mg313 2.023 . S
O324 C339 1.264 . S
O325 Mg314 1.942 . S
O325 C330 1.244 . S
O326 Mg314 1.955 . S
O326 C339 1.273 . S
O327 Mg316 2.114 . S
O327 Mg318 2.291 . S
O327 C329 1.312 . S
O328 Mg313 2.031 . S
O328 C329 1.208 . S
C329 O327 1.312 . S
C329 O328 1.208 . S
C330 O322 1.331 . S
C330 O325 1.244 . S
O331 Mg316 2.013 . S
O331 C320 1.191 . S
O332 C311 1.331 . S
O332 Mg318 2.081 . S
O333 Mg314 1.986 . S
O333 C320 1.307 . S
O334 C312 1.264 . S
O334 Mg318 2.023 . S
O335 C311 1.244 . S
O335 Mg319 1.942 . S
O336 C312 1.273 . S
O336 Mg319 1.955 . S
O337 C310 1.312 . S
O337 Mg313 2.291 . S
O337 Mg316 2.114 . S
O338 C310 1.208 . S
O338 Mg318 2.031 . S
C339 O324 1.264 . S
C339 O326 1.273 . S
C340 O321 1.191 . S
C340 O323 1.307 . S
C341 O368 1.312 . S
C341 O369 1.208 1_565 S
C342 O363 1.331 . S
C342 O366 1.244 . S
C343 O365 1.264 . S
C343 O367 1.273 . S
Mg344 O346 1.936 . S
Mg344 O353 2.081 . S
Mg344 O355 2.023 . S
Mg344 O359 2.031 . S
Mg344 O368 2.291 . S
Mg345 O346 1.963 . S
Mg345 O356 1.942 . S
Mg345 O357 1.955 . S
Mg345 O364 1.986 . S
O346 Mg344 1.936 . S
O346 Mg345 1.963 . S
O346 Mg347 1.915 . S
Mg347 O346 1.915 . S
Mg347 O348 1.915 . S
Mg347 O352 2.013 . S
Mg347 O358 2.114 . S
Mg347 O362 2.013 . S
Mg347 O368 2.114 . S
O348 Mg347 1.915 . S
O348 Mg349 1.936 . S
O348 Mg350 1.963 . S
Mg349 O348 1.936 . S
Mg349 O358 2.291 . S
Mg349 O363 2.081 . S
Mg349 O365 2.023 . S
Mg349 O369 2.030 1_565 S
Mg350 O348 1.963 . S
Mg350 O354 1.986 . S
Mg350 O366 1.942 . S
Mg350 O367 1.955 . S
C351 O362 1.191 . S
C351 O364 1.307 . S
O352 Mg347 2.013 . S
O352 C371 1.191 . S
O353 Mg344 2.081 . S
O353 C361 1.331 . S
O354 Mg350 1.986 . S
O354 C371 1.307 . S
O355 Mg344 2.023 . S
O355 C370 1.264 . S
O356 Mg345 1.942 . S
O356 C361 1.244 . S
O357 Mg345 1.955 . S
O357 C370 1.273 . S
O358 Mg347 2.114 . S
O358 Mg349 2.291 . S
O358 C360 1.312 . S
O359 Mg344 2.031 . S
O359 C360 1.208 . S
C360 O358 1.312 . S
C360 O359 1.208 . S
C361 O353 1.331 . S
C361 O356 1.244 . S
O362 Mg347 2.013 . S
O362 C351 1.191 . S
O363 C342 1.331 . S
O363 Mg349 2.081 . S
O364 Mg345 1.986 . S
O364 C351 1.307 . S
O365 C343 1.264 . S
O365 Mg349 2.023 . S
O366 C342 1.244 . S
O366 Mg350 1.942 . S
O367 C343 1.273 . S
O367 Mg350 1.955 . S
O368 C341 1.312 . S
O368 Mg344 2.291 . S
O368 Mg347 2.114 . S
O369 C341 1.208 1_545 S
O369 Mg349 2.030 1_545 S
C370 O355 1.264 . S
C370 O357 1.273 . S
C371 O352 1.191 . S
C371 O354 1.307 . S
C372 O399 1.312 . S
C372 O400 1.208 . S
C373 O394 1.331 . S
C373 O397 1.244 . S
C374 O396 1.264 . S
C374 O398 1.273 . S
Mg375 O377 1.936 . S
Mg375 O384 2.081 . S
Mg375 O386 2.023 . S
Mg375 O390 2.031 . S
Mg375 O399 2.291 . S
Mg376 O377 1.963 . S
Mg376 O387 1.942 . S
Mg376 O388 1.955 . S
Mg376 O395 1.986 . S
O377 Mg375 1.936 . S
O377 Mg376 1.963 . S
O377 Mg378 1.915 . S
Mg378 O377 1.915 . S
Mg378 O379 1.915 . S
Mg378 O383 2.013 . S
Mg378 O389 2.114 . S
Mg378 O393 2.013 . S
Mg378 O399 2.114 . S
O379 Mg378 1.915 . S
O379 Mg380 1.936 . S
O379 Mg381 1.963 . S
Mg380 O379 1.936 . S
Mg380 O389 2.291 . S
Mg380 O394 2.081 . S
Mg380 O396 2.023 . S
Mg380 O400 2.031 . S
Mg381 O379 1.963 . S
Mg381 O385 1.986 . S
Mg381 O397 1.942 . S
Mg381 O398 1.955 . S
C382 O393 1.191 . S
C382 O395 1.307 . S
O383 Mg378 2.013 . S
O383 C402 1.191 . S
O384 Mg375 2.081 . S
O384 C392 1.331 . S
O385 Mg381 1.986 . S
O385 C402 1.307 . S
O386 Mg375 2.023 . S
O386 C401 1.264 . S
O387 Mg376 1.942 . S
O387 C392 1.244 . S
O388 Mg376 1.955 . S
O388 C401 1.273 . S
O389 Mg378 2.114 . S
O389 Mg380 2.291 . S
O389 C391 1.312 . S
O390 Mg375 2.031 . S
O390 C391 1.208 . S
C391 O389 1.312 . S
C391 O390 1.208 . S
C392 O384 1.331 . S
C392 O387 1.244 . S
O393 Mg378 2.013 . S
O393 C382 1.191 . S
O394 C373 1.331 . S
O394 Mg380 2.081 . S
O395 Mg376 1.986 . S
O395 C382 1.307 . S
O396 C374 1.264 . S
O396 Mg380 2.023 . S
O397 C373 1.244 . S
O397 Mg381 1.942 . S
O398 C374 1.273 . S
O398 Mg381 1.955 . S
O399 C372 1.312 . S
O399 Mg375 2.291 . S
O399 Mg378 2.114 . S
O400 C372 1.208 . S
O400 Mg380 2.031 . S
C401 O386 1.264 . S
C401 O388 1.273 . S
C402 O383 1.191 . S
C402 O385 1.307 . S
C403 O430 1.312 . S
C403 O431 1.208 . S
C404 O425 1.331 . S
C404 O428 1.244 . S
C405 O427 1.264 . S
C405 O429 1.273 . S
Mg406 O408 1.936 . S
Mg406 O415 2.081 . S
Mg406 O417 2.023 . S
Mg406 O421 2.031 . S
Mg406 O430 2.291 . S
Mg407 O408 1.963 . S
Mg407 O418 1.942 . S
Mg407 O419 1.955 . S
Mg407 O426 1.986 . S
O408 Mg406 1.936 . S
O408 Mg407 1.963 . S
O408 Mg409 1.915 . S
Mg409 O408 1.915 . S
Mg409 O410 1.915 . S
Mg409 O414 2.013 . S
Mg409 O420 2.114 . S
Mg409 O424 2.013 . S
Mg409 O430 2.114 . S
O410 Mg409 1.915 . S
O410 Mg411 1.936 . S
O410 Mg412 1.963 . S
Mg411 O410 1.936 . S
Mg411 O420 2.291 . S
Mg411 O425 2.081 . S
Mg411 O427 2.023 . S
Mg411 O431 2.031 . S
Mg412 O410 1.963 . S
Mg412 O416 1.986 . S
Mg412 O428 1.942 . S
Mg412 O429 1.955 . S
C413 O424 1.191 . S
C413 O426 1.307 . S
O414 Mg409 2.013 . S
O414 C433 1.191 . S
O415 Mg406 2.081 . S
O415 C423 1.331 . S
O416 Mg412 1.986 . S
O416 C433 1.307 . S
O417 Mg406 2.023 . S
O417 C432 1.264 . S
O418 Mg407 1.942 . S
O418 C423 1.244 . S
O419 Mg407 1.955 . S
O419 C432 1.273 . S
O420 Mg409 2.114 . S
O420 Mg411 2.291 . S
O420 C422 1.312 . S
O421 Mg406 2.031 . S
O421 C422 1.208 . S
C422 O420 1.312 . S
C422 O421 1.208 . S
C423 O415 1.331 . S
C423 O418 1.244 . S
O424 Mg409 2.013 . S
O424 C413 1.191 . S
O425 C404 1.331 . S
O425 Mg411 2.081 . S
O426 Mg407 1.986 . S
O426 C413 1.307 . S
O427 C405 1.264 . S
O427 Mg411 2.023 . S
O428 C404 1.244 . S
O428 Mg412 1.942 . S
O429 C405 1.273 . S
O429 Mg412 1.955 . S
O430 C403 1.312 . S
O430 Mg406 2.291 . S
O430 Mg409 2.114 . S
O431 C403 1.208 . S
O431 Mg411 2.031 . S
C432 O417 1.264 . S
C432 O419 1.273 . S
C433 O414 1.191 . S
C433 O416 1.307 . S
C434 O461 1.312 . S
C434 O462 1.208 . S
C435 O456 1.331 . S
C435 O459 1.244 . S
C436 O458 1.264 . S
C436 O460 1.273 . S
Mg437 O439 1.936 . S
Mg437 O446 2.081 . S
Mg437 O448 2.023 . S
Mg437 O452 2.031 . S
Mg437 O461 2.291 . S
Mg438 O439 1.963 . S
Mg438 O449 1.942 . S
Mg438 O450 1.955 . S
Mg438 O457 1.986 . S
O439 Mg437 1.936 . S
O439 Mg438 1.963 . S
O439 Mg440 1.915 . S
Mg440 O439 1.915 . S
Mg440 O441 1.915 . S
Mg440 O445 2.013 . S
Mg440 O451 2.114 . S
Mg440 O455 2.013 . S
Mg440 O461 2.114 . S
O441 Mg440 1.915 . S
O441 Mg442 1.936 . S
O441 Mg443 1.963 . S
Mg442 O441 1.936 . S
Mg442 O451 2.291 . S
Mg442 O456 2.081 . S
Mg442 O458 2.023 . S
Mg442 O462 2.031 . S
Mg443 O441 1.963 . S
Mg443 O447 1.986 . S
Mg443 O459 1.942 . S
Mg443 O460 1.955 . S
C444 O455 1.191 . S
C444 O457 1.307 . S
O445 Mg440 2.013 . S
O445 C464 1.191 . S
O446 Mg437 2.081 . S
O446 C454 1.331 . S
O447 Mg443 1.986 . S
O447 C464 1.307 . S
O448 Mg437 2.023 . S
O448 C463 1.264 . S
O449 Mg438 1.942 . S
O449 C454 1.244 . S
O450 Mg438 1.955 . S
O450 C463 1.273 . S
O451 Mg440 2.114 . S
O451 Mg442 2.291 . S
O451 C453 1.312 . S
O452 Mg437 2.031 . S
O452 C453 1.208 . S
C453 O451 1.312 . S
C453 O452 1.208 . S
C454 O446 1.331 . S
C454 O449 1.244 . S
O455 Mg440 2.013 . S
O455 C444 1.191 . S
O456 C435 1.331 . S
O456 Mg442 2.081 . S
O457 Mg438 1.986 . S
O457 C444 1.307 . S
O458 C436 1.264 . S
O458 Mg442 2.023 . S
O459 C435 1.244 . S
O459 Mg443 1.942 . S
O460 C436 1.273 . S
O460 Mg443 1.955 . S
O461 C434 1.312 . S
O461 Mg437 2.291 . S
O461 Mg440 2.114 . S
O462 C434 1.208 . S
O462 Mg442 2.031 . S
C463 O448 1.264 . S
C463 O450 1.273 . S
C464 O445 1.191 . S
C464 O447 1.307 . S
C465 O492 1.312 . S
C465 O493 1.208 . S
C466 O487 1.331 . S
C466 O490 1.244 . S
C467 O489 1.264 . S
C467 O491 1.273 . S
Mg468 O470 1.936 . S
Mg468 O477 2.081 . S
Mg468 O479 2.023 . S
Mg468 O483 2.031 . S
Mg468 O492 2.291 . S
Mg469 O470 1.963 . S
Mg469 O480 1.942 . S
Mg469 O481 1.955 . S
Mg469 O488 1.986 . S
O470 Mg468 1.936 . S
O470 Mg469 1.963 . S
O470 Mg471 1.915 . S
Mg471 O470 1.915 . S
Mg471 O472 1.915 . S
Mg471 O476 2.013 . S
Mg471 O482 2.114 . S
Mg471 O486 2.013 . S
Mg471 O492 2.114 . S
O472 Mg471 1.915 . S
O472 Mg473 1.936 . S
O472 Mg474 1.963 . S
Mg473 O472 1.936 . S
Mg473 O482 2.291 . S
Mg473 O487 2.081 . S
Mg473 O489 2.023 . S
Mg473 O493 2.031 . S
Mg474 O472 1.963 . S
Mg474 O478 1.986 . S
Mg474 O490 1.942 . S
Mg474 O491 1.955 . S
C475 O486 1.191 . S
C475 O488 1.307 . S
O476 Mg471 2.013 . S
O476 C495 1.191 . S
O477 Mg468 2.081 . S
O477 C485 1.331 . S
O478 Mg474 1.986 . S
O478 C495 1.307 . S
O479 Mg468 2.023 . S
O479 C494 1.264 . S
O480 Mg469 1.942 . S
O480 C485 1.244 . S
O481 Mg469 1.955 . S
O481 C494 1.273 . S
O482 Mg471 2.114 . S
O482 Mg473 2.291 . S
O482 C484 1.312 . S
O483 Mg468 2.031 . S
O483 C484 1.208 . S
C484 O482 1.312 . S
C484 O483 1.208 . S
C485 O477 1.331 . S
C485 O480 1.244 . S
O486 Mg471 2.013 . S
O486 C475 1.191 . S
O487 C466 1.331 . S
O487 Mg473 2.081 . S
O488 Mg469 1.986 . S
O488 C475 1.307 . S
O489 C467 1.264 . S
O489 Mg473 2.023 . S
O490 C466 1.244 . S
O490 Mg474 1.942 . S
O491 C467 1.273 . S
O491 Mg474 1.955 . S
O492 C465 1.312 . S
O492 Mg468 2.291 . S
O492 Mg471 2.114 . S
O493 C465 1.208 . S
O493 Mg473 2.031 . S
C494 O479 1.264 . S
C494 O481 1.273 . S
C495 O476 1.191 . S
C495 O478 1.307 . S
H496 C502 0.930 . S
H497 C505 0.930 . S
H498 C506 0.930 . S
H499 C507 0.930 . S
H500 C510 0.930 . S
H501 C511 0.930 . S
C502 H496 0.930 . S
C502 C503 1.355 . S
C502 C504 1.415 . S
C503 C502 1.355 . S
C503 C505 1.419 . S
C504 C502 1.415 . S
C504 C509 1.425 . S
C504 C511 1.409 . S
C505 H497 0.930 . S
C505 C503 1.419 . S
C505 C506 1.362 . S
C506 H498 0.930 . S
C506 C505 1.362 . S
C506 C509 1.409 . S
C507 H499 0.930 . S
C507 C508 1.355 . S
C507 C509 1.415 . S
C508 C507 1.355 . S
C508 C510 1.419 . S
C509 C504 1.425 . S
C509 C506 1.409 . S
C509 C507 1.415 . S
C510 H500 0.930 . S
C510 C508 1.419 . S
C510 C511 1.362 . S
C511 H501 0.930 . S
C511 C504 1.409 . S
C511 C510 1.362 . S
H512 C518 0.930 . S
H513 C521 0.930 . S
H514 C522 0.930 . S
H515 C523 0.930 . S
H516 C526 0.930 . S
H517 C527 0.930 . S
C518 H512 0.930 . S
C518 C519 1.355 . S
C518 C520 1.415 . S
C519 C518 1.355 . S
C519 C521 1.419 . S
C520 C518 1.415 . S
C520 C525 1.425 . S
C520 C527 1.409 . S
C521 H513 0.930 . S
C521 C519 1.419 . S
C521 C522 1.362 . S
C522 H514 0.930 . S
C522 C521 1.362 . S
C522 C525 1.409 . S
C523 H515 0.930 . S
C523 C524 1.355 . S
C523 C525 1.415 . S
C524 C523 1.355 . S
C524 C526 1.419 . S
C525 C520 1.425 . S
C525 C522 1.409 . S
C525 C523 1.415 . S
C526 H516 0.930 . S
C526 C524 1.419 . S
C526 C527 1.362 . S
C527 H517 0.930 . S
C527 C520 1.409 . S
C527 C526 1.362 . S
H528 C534 0.930 . S
H529 C537 0.930 . S
H530 C538 0.930 . S
H531 C539 0.930 . S
H532 C542 0.930 . S
H533 C543 0.930 . S
C534 H528 0.930 . S
C534 C535 1.355 . S
C534 C536 1.415 . S
C535 C534 1.355 . S
C535 C537 1.419 . S
C536 C534 1.415 . S
C536 C541 1.425 . S
C536 C543 1.409 . S
C537 H529 0.930 . S
C537 C535 1.419 . S
C537 C538 1.362 . S
C538 H530 0.930 . S
C538 C537 1.362 . S
C538 C541 1.409 . S
C539 H531 0.930 . S
C539 C540 1.355 . S
C539 C541 1.415 . S
C540 C539 1.355 . S
C540 C542 1.419 . S
C541 C536 1.425 . S
C541 C538 1.409 . S
C541 C539 1.415 . S
C542 H532 0.930 . S
C542 C540 1.419 . S
C542 C543 1.362 . S
C543 H533 0.930 . S
C543 C536 1.409 . S
C543 C542 1.362 . S
H544 C550 0.930 . S
H545 C553 0.930 . S
H546 C554 0.930 . S
H547 C555 0.930 . S
H548 C558 0.930 . S
H549 C559 0.930 . S
C550 H544 0.930 . S
C550 C551 1.355 . S
C550 C552 1.415 . S
C551 C550 1.355 . S
C551 C553 1.419 . S
C552 C550 1.415 . S
C552 C557 1.425 . S
C552 C559 1.409 . S
C553 H545 0.930 . S
C553 C551 1.419 . S
C553 C554 1.362 . S
C554 H546 0.930 . S
C554 C553 1.362 . S
C554 C557 1.409 . S
C555 H547 0.930 . S
C555 C556 1.355 . S
C555 C557 1.415 . S
C556 C555 1.355 . S
C556 C558 1.419 . S
C557 C552 1.425 . S
C557 C554 1.409 . S
C557 C555 1.415 . S
C558 H548 0.930 . S
C558 C556 1.419 . S
C558 C559 1.362 . S
C559 H549 0.930 . S
C559 C552 1.409 . S
C559 C558 1.362 . S
H560 C566 0.930 . S
H561 C569 0.930 . S
H562 C570 0.930 . S
H563 C571 0.930 . S
H564 C574 0.930 . S
H565 C575 0.930 . S
C566 H560 0.930 . S
C566 C567 1.355 . S
C566 C568 1.415 . S
C567 C566 1.355 . S
C567 C569 1.419 . S
C568 C566 1.415 . S
C568 C573 1.425 . S
C568 C575 1.409 . S
C569 H561 0.930 . S
C569 C567 1.419 . S
C569 C570 1.362 . S
C570 H562 0.930 . S
C570 C569 1.362 . S
C570 C573 1.409 . S
C571 H563 0.930 . S
C571 C572 1.355 . S
C571 C573 1.415 . S
C572 C571 1.355 . S
C572 C574 1.419 . S
C573 C568 1.425 . S
C573 C570 1.409 . S
C573 C571 1.415 . S
C574 H564 0.930 . S
C574 C572 1.419 . S
C574 C575 1.362 . S
C575 H565 0.930 . S
C575 C568 1.409 . S
C575 C574 1.362 . S
H576 C582 0.930 . S
H577 C585 0.930 1_565 S
H578 C586 0.930 . S
H579 C587 0.930 . S
H580 C590 0.930 . S
H581 C591 0.930 . S
C582 H576 0.930 . S
C582 C583 1.355 . S
C582 C584 1.415 . S
C583 C582 1.355 . S
C583 C585 1.419 . S
C584 C582 1.415 . S
C584 C589 1.425 . S
C584 C591 1.409 . S
C585 H577 0.930 1_545 S
C585 C583 1.419 . S
C585 C586 1.362 . S
C586 H578 0.930 . S
C586 C585 1.362 . S
C586 C589 1.409 . S
C587 H579 0.930 . S
C587 C588 1.355 . S
C587 C589 1.415 . S
C588 C587 1.355 . S
C588 C590 1.419 . S
C589 C584 1.425 . S
C589 C586 1.409 . S
C589 C587 1.415 . S
C590 H580 0.930 . S
C590 C588 1.419 . S
C590 C591 1.362 . S
C591 H581 0.930 . S
C591 C584 1.409 . S
C591 C590 1.362 . S
H592 C598 0.930 . S
H593 C601 0.930 . S
H594 C602 0.930 . S
H595 C603 0.930 . S
H596 C606 0.930 . S
H597 C607 0.930 . S
C598 H592 0.930 . S
C598 C599 1.355 . S
C598 C600 1.415 . S
C599 C598 1.355 . S
C599 C601 1.419 . S
C600 C598 1.415 . S
C600 C605 1.425 . S
C600 C607 1.409 . S
C601 H593 0.930 . S
C601 C599 1.419 . S
C601 C602 1.362 . S
C602 H594 0.930 . S
C602 C601 1.362 . S
C602 C605 1.409 . S
C603 H595 0.930 . S
C603 C604 1.355 . S
C603 C605 1.415 . S
C604 C603 1.355 . S
C604 C606 1.419 . S
C605 C600 1.425 . S
C605 C602 1.409 . S
C605 C603 1.415 . S
C606 H596 0.930 . S
C606 C604 1.419 . S
C606 C607 1.362 . S
C607 H597 0.930 . S
C607 C600 1.409 . S
C607 C606 1.362 . S
H608 C614 0.930 . S
H609 C617 0.930 . S
H610 C618 0.930 . S
H611 C619 0.930 . S
H612 C622 0.930 . S
H613 C623 0.930 . S
C614 H608 0.930 . S
C614 C615 1.355 . S
C614 C616 1.415 . S
C615 C614 1.355 . S
C615 C617 1.419 . S
C616 C614 1.415 . S
C616 C621 1.425 . S
C616 C623 1.409 . S
C617 H609 0.930 . S
C617 C615 1.419 . S
C617 C618 1.362 . S
C618 H610 0.930 . S
C618 C617 1.362 . S
C618 C621 1.409 . S
C619 H611 0.930 . S
C619 C620 1.355 . S
C619 C621 1.415 . S
C620 C619 1.355 . S
C620 C622 1.419 . S
C621 C616 1.425 . S
C621 C618 1.409 . S
C621 C619 1.415 . S
C622 H612 0.930 . S
C622 C620 1.419 . S
C622 C623 1.362 . S
C623 H613 0.930 . S
C623 C616 1.409 . S
C623 C622 1.362 . S
H624 C630 0.930 . S
H625 C633 0.939 . S
H626 C634 0.930 . S
H627 C635 0.930 . S
H628 C638 0.930 . S
H629 C639 0.930 . S
C630 H624 0.930 . S
C630 C631 1.355 . S
C630 C632 1.415 . S
C631 C630 1.355 . S
C631 C633 1.419 . S
C632 C630 1.415 . S
C632 C637 1.425 . S
C632 C639 1.409 . S
C633 H625 0.939 . S
C633 C631 1.419 . S
C633 C634 1.362 . S
C634 H626 0.930 . S
C634 C633 1.362 . S
C634 C637 1.409 . S
C635 H627 0.930 . S
C635 C636 1.355 . S
C635 C637 1.415 . S
C636 C635 1.355 . S
C636 C638 1.419 . S
C637 C632 1.425 . S
C637 C634 1.409 . S
C637 C635 1.415 . S
C638 H628 0.930 . S
C638 C636 1.419 . S
C638 C639 1.362 . S
C639 H629 0.930 . S
C639 C632 1.409 . S
C639 C638 1.362 . S
H640 C646 0.930 . S
H641 C649 0.930 . S
H642 C650 0.930 . S
H643 C651 0.930 . S
H644 C654 0.930 1_455 S
H645 C655 0.930 . S
C646 H640 0.930 . S
C646 C647 1.355 . S
C646 C648 1.415 . S
C647 C646 1.355 . S
C647 C649 1.419 . S
C648 C646 1.415 . S
C648 C653 1.425 . S
C648 C655 1.409 . S
C649 H641 0.930 . S
C649 C647 1.419 . S
C649 C650 1.362 . S
C650 H642 0.930 . S
C650 C649 1.362 . S
C650 C653 1.409 . S
C651 H643 0.930 . S
C651 C652 1.355 . S
C651 C653 1.415 . S
C652 C651 1.355 . S
C652 C654 1.419 . S
C653 C648 1.425 . S
C653 C650 1.409 . S
C653 C651 1.415 . S
C654 H644 0.930 1_655 S
C654 C652 1.419 . S
C654 C655 1.362 . S
C655 H645 0.930 . S
C655 C648 1.409 . S
C655 C654 1.362 . S
H656 C662 0.930 . S
H657 C665 0.930 . S
H658 C666 0.930 . S
H659 C667 0.930 . S
H660 C670 0.930 . S
H661 C671 0.930 . S
C662 H656 0.930 . S
C662 C663 1.355 . S
C662 C664 1.415 . S
C663 C662 1.355 . S
C663 C665 1.419 . S
C664 C662 1.415 . S
C664 C669 1.425 . S
C664 C671 1.409 . S
C665 H657 0.930 . S
C665 C663 1.419 . S
C665 C666 1.362 . S
C666 H658 0.930 . S
C666 C665 1.362 . S
C666 C669 1.409 . S
C667 H659 0.930 . S
C667 C668 1.355 . S
C667 C669 1.415 . S
C668 C667 1.355 . S
C668 C670 1.419 . S
C669 C664 1.425 . S
C669 C666 1.409 . S
C669 C667 1.415 . S
C670 H660 0.930 . S
C670 C668 1.419 . S
C670 C671 1.362 . S
C671 H661 0.930 . S
C671 C664 1.409 . S
C671 C670 1.362 . S
H672 C678 0.930 1_545 S
H673 C681 0.930 . S
H674 C682 0.930 . S
H675 C683 0.930 . S
H676 C686 0.930 . S
H677 C687 0.930 . S
C678 H672 0.930 1_565 S
C678 C679 1.355 . S
C678 C680 1.415 . S
C679 C678 1.355 . S
C679 C681 1.419 . S
C680 C678 1.415 . S
C680 C685 1.425 . S
C680 C687 1.409 . S
C681 H673 0.930 . S
C681 C679 1.419 . S
C681 C682 1.362 . S
C682 H674 0.930 . S
C682 C681 1.362 . S
C682 C685 1.409 . S
C683 H675 0.930 . S
C683 C684 1.355 . S
C683 C685 1.415 . S
C684 C683 1.355 . S
C684 C686 1.419 . S
C685 C680 1.425 . S
C685 C682 1.409 . S
C685 C683 1.415 . S
C686 H676 0.930 . S
C686 C684 1.419 . S
C686 C687 1.362 . S
C687 H677 0.930 . S
C687 C680 1.409 . S
C687 C686 1.362 . S
H688 C694 0.930 . S
H689 C697 0.930 1_565 S
H690 C698 0.930 . S
H691 C699 0.930 . S
H692 C702 0.930 . S
H693 C703 0.930 . S
C694 H688 0.930 . S
C694 C695 1.355 . S
C694 C696 1.415 . S
C695 C694 1.355 . S
C695 C697 1.419 . S
C696 C694 1.415 . S
C696 C701 1.425 . S
C696 C703 1.409 . S
C697 H689 0.930 1_545 S
C697 C695 1.419 . S
C697 C698 1.362 . S
C698 H690 0.930 . S
C698 C697 1.362 . S
C698 C701 1.409 . S
C699 H691 0.930 . S
C699 C700 1.355 . S
C699 C701 1.415 . S
C700 C699 1.355 . S
C700 C702 1.419 . S
C701 C696 1.425 . S
C701 C698 1.409 . S
C701 C699 1.415 . S
C702 H692 0.930 . S
C702 C700 1.419 . S
C702 C703 1.362 . S
C703 H693 0.930 . S
C703 C696 1.409 . S
C703 C702 1.362 . S
H704 C710 0.930 . S
H705 C713 0.930 1_655 S
H706 C714 0.930 . S
H707 C715 0.930 . S
H708 C718 0.930 . S
H709 C719 0.930 . S
C710 H704 0.930 . S
C710 C711 1.355 . S
C710 C712 1.415 . S
C711 C710 1.355 . S
C711 C713 1.419 . S
C712 C710 1.415 . S
C712 C717 1.425 . S
C712 C719 1.409 . S
C713 H705 0.930 1_455 S
C713 C711 1.419 . S
C713 C714 1.362 . S
C714 H706 0.930 . S
C714 C713 1.362 . S
C714 C717 1.409 . S
C715 H707 0.930 . S
C715 C716 1.355 . S
C715 C717 1.415 . S
C716 C715 1.355 . S
C716 C718 1.419 . S
C717 C712 1.425 . S
C717 C714 1.409 . S
C717 C715 1.415 . S
C718 H708 0.930 . S
C718 C716 1.419 . S
C718 C719 1.362 . S
C719 H709 0.930 . S
C719 C712 1.409 . S
C719 C718 1.362 . S
H720 C726 0.930 . S
H721 C729 0.930 . S
H722 C730 0.930 . S
H723 C731 0.930 . S
H724 C734 0.930 . S
H725 C735 0.930 . S
C726 H720 0.930 . S
C726 C727 1.355 . S
C726 C728 1.415 . S
C727 C726 1.355 . S
C727 C729 1.419 . S
C728 C726 1.415 . S
C728 C733 1.425 . S
C728 C735 1.409 . S
C729 H721 0.930 . S
C729 C727 1.419 . S
C729 C730 1.362 . S
C730 H722 0.930 . S
C730 C729 1.362 . S
C730 C733 1.409 . S
C731 H723 0.930 . S
C731 C732 1.355 . S
C731 C733 1.415 . S
C732 C731 1.355 . S
C732 C734 1.419 . S
C733 C728 1.425 . S
C733 C730 1.409 . S
C733 C731 1.415 . S
C734 H724 0.930 . S
C734 C732 1.419 . S
C734 C735 1.362 . S
C735 H725 0.930 . S
C735 C728 1.409 . S
C735 C734 1.362 . S
H736 C742 0.930 . S
H737 C745 0.930 . S
H738 C746 0.930 . S
H739 C747 0.930 . S
H740 C750 0.930 1_565 S
H741 C751 0.930 . S
C742 H736 0.930 . S
C742 C743 1.355 . S
C742 C744 1.415 . S
C743 C742 1.355 . S
C743 C745 1.419 . S
C744 C742 1.415 . S
C744 C749 1.425 . S
C744 C751 1.409 . S
C745 H737 0.930 . S
C745 C743 1.419 . S
C745 C746 1.362 . S
C746 H738 0.930 . S
C746 C745 1.362 . S
C746 C749 1.409 . S
C747 H739 0.930 . S
C747 C748 1.355 . S
C747 C749 1.415 . S
C748 C747 1.355 . S
C748 C750 1.419 . S
C749 C744 1.425 . S
C749 C746 1.409 . S
C749 C747 1.415 . S
C750 H740 0.930 1_545 S
C750 C748 1.419 . S
C750 C751 1.362 . S
C751 H741 0.930 . S
C751 C744 1.409 . S
C751 C750 1.362 . S
H752 C758 0.930 . S
H753 C761 0.930 . S
H754 C762 0.930 . S
H755 C763 0.930 . S
H756 C766 0.930 . S
H757 C767 0.930 . S
C758 H752 0.930 . S
C758 C759 1.355 . S
C758 C760 1.415 . S
C759 C758 1.355 . S
C759 C761 1.419 . S
C760 C758 1.415 . S
C760 C765 1.425 . S
C760 C767 1.409 . S
C761 H753 0.930 . S
C761 C759 1.419 . S
C761 C762 1.362 . S
C762 H754 0.930 . S
C762 C761 1.362 . S
C762 C765 1.409 . S
C763 H755 0.930 . S
C763 C764 1.355 . S
C763 C765 1.415 . S
C764 C763 1.355 . S
C764 C766 1.419 . S
C765 C760 1.425 . S
C765 C762 1.409 . S
C765 C763 1.415 . S
C766 H756 0.930 . S
C766 C764 1.419 . S
C766 C767 1.362 . S
C767 H757 0.930 . S
C767 C760 1.409 . S
C767 C766 1.362 . S
H768 C774 0.930 . S
H769 C777 0.930 1_455 S
H770 C778 0.930 . S
H771 C779 0.930 . S
H772 C782 0.930 . S
H773 C783 0.930 . S
C774 H768 0.930 . S
C774 C775 1.355 . S
C774 C776 1.415 . S
C775 C774 1.355 . S
C775 C777 1.419 . S
C776 C774 1.415 . S
C776 C781 1.425 . S
C776 C783 1.409 . S
C777 H769 0.930 1_655 S
C777 C775 1.419 . S
C777 C778 1.362 . S
C778 H770 0.930 . S
C778 C777 1.362 . S
C778 C781 1.409 . S
C779 H771 0.930 . S
C779 C780 1.355 . S
C779 C781 1.415 . S
C780 C779 1.355 . S
C780 C782 1.419 . S
C781 C776 1.425 . S
C781 C778 1.409 . S
C781 C779 1.415 . S
C782 H772 0.930 . S
C782 C780 1.419 . S
C782 C783 1.362 . S
C783 H773 0.930 . S
C783 C776 1.409 . S
C783 C782 1.362 . S
H784 C790 0.930 . S
H785 C793 0.930 . S
H786 C794 0.930 . S
H787 C795 0.930 . S
H788 C798 0.930 . S
H789 C799 0.930 . S
C790 H784 0.930 . S
C790 C791 1.355 . S
C790 C792 1.415 . S
C791 C790 1.355 . S
C791 C793 1.419 . S
C792 C790 1.415 . S
C792 C797 1.425 . S
C792 C799 1.409 . S
C793 H785 0.930 . S
C793 C791 1.419 . S
C793 C794 1.362 . S
C794 H786 0.930 . S
C794 C793 1.362 . S
C794 C797 1.409 . S
C795 H787 0.930 . S
C795 C796 1.355 . S
C795 C797 1.415 . S
C796 C795 1.355 . S
C796 C798 1.419 . S
C797 C792 1.425 . S
C797 C794 1.409 . S
C797 C795 1.415 . S
C798 H788 0.930 . S
C798 C796 1.419 . S
C798 C799 1.362 . S
C799 H789 0.930 . S
C799 C792 1.409 . S
C799 C798 1.362 . S
H800 C806 0.930 . S
H801 C809 0.930 . S
H802 C810 0.930 . S
H803 C811 0.930 . S
H804 C814 0.930 . S
H805 C815 0.930 . S
C806 H800 0.930 . S
C806 C807 1.355 . S
C806 C808 1.415 . S
C807 C806 1.355 . S
C807 C809 1.419 . S
C808 C806 1.415 . S
C808 C813 1.425 . S
C808 C815 1.409 . S
C809 H801 0.930 . S
C809 C807 1.419 . S
C809 C810 1.362 . S
C810 H802 0.930 . S
C810 C809 1.362 . S
C810 C813 1.409 . S
C811 H803 0.930 . S
C811 C812 1.355 . S
C811 C813 1.415 . S
C812 C811 1.355 . S
C812 C814 1.419 1_565 S
C813 C808 1.425 . S
C813 C810 1.409 . S
C813 C811 1.415 . S
C814 H804 0.930 . S
C814 C812 1.419 1_545 S
C814 C815 1.362 1_545 S
C815 H805 0.930 . S
C815 C808 1.409 . S
C815 C814 1.362 1_565 S
H816 C822 0.930 . S
H817 C825 0.930 . S
H818 C826 0.930 . S
H819 C827 0.930 . S
H820 C830 0.930 1_565 S
H821 C831 0.930 . S
C822 H816 0.930 . S
C822 C823 1.355 . S
C822 C824 1.415 . S
C823 C822 1.355 . S
C823 C825 1.419 . S
C824 C822 1.415 . S
C824 C829 1.425 . S
C824 C831 1.409 . S
C825 H817 0.930 . S
C825 C823 1.419 . S
C825 C826 1.362 . S
C826 H818 0.930 . S
C826 C825 1.362 . S
C826 C829 1.409 . S
C827 H819 0.930 . S
C827 C828 1.355 . S
C827 C829 1.415 . S
C828 C827 1.355 . S
C828 C830 1.419 . S
C829 C824 1.425 . S
C829 C826 1.409 . S
C829 C827 1.415 . S
C830 H820 0.930 1_545 S
C830 C828 1.419 . S
C830 C831 1.362 . S
C831 H821 0.930 . S
C831 C824 1.409 . S
C831 C830 1.362 . S
H832 C838 0.930 . S
H833 C841 0.930 . S
H834 C842 0.930 . S
H835 C843 0.930 . S
H836 C846 0.930 . S
H837 C847 0.930 . S
C838 H832 0.930 . S
C838 C839 1.355 . S
C838 C840 1.415 . S
C839 C838 1.355 . S
C839 C841 1.419 . S
C840 C838 1.415 . S
C840 C845 1.425 . S
C840 C847 1.409 . S
C841 H833 0.930 . S
C841 C839 1.419 . S
C841 C842 1.362 . S
C842 H834 0.930 . S
C842 C841 1.362 . S
C842 C845 1.409 . S
C843 H835 0.930 . S
C843 C844 1.355 . S
C843 C845 1.415 . S
C844 C843 1.355 . S
C844 C846 1.419 . S
C845 C840 1.425 . S
C845 C842 1.409 . S
C845 C843 1.415 . S
C846 H836 0.930 . S
C846 C844 1.419 . S
C846 C847 1.362 . S
C847 H837 0.930 . S
C847 C840 1.409 . S
C847 C846 1.362 . S
H848 C854 0.930 . S
H849 C857 0.930 . S
H850 C858 0.930 . S
H851 C859 0.930 . S
H852 C862 0.930 . S
H853 C863 0.930 . S
C854 H848 0.930 . S
C854 C855 1.355 . S
C854 C856 1.415 . S
C855 C854 1.355 . S
C855 C857 1.419 . S
C856 C854 1.415 . S
C856 C861 1.425 . S
C856 C863 1.409 . S
C857 H849 0.930 . S
C857 C855 1.419 . S
C857 C858 1.362 . S
C858 H850 0.930 . S
C858 C857 1.362 . S
C858 C861 1.409 . S
C859 H851 0.930 . S
C859 C860 1.355 . S
C859 C861 1.415 . S
C860 C859 1.355 . S
C860 C862 1.419 . S
C861 C856 1.425 . S
C861 C858 1.409 . S
C861 C859 1.415 . S
C862 H852 0.930 . S
C862 C860 1.419 . S
C862 C863 1.362 . S
C863 H853 0.930 . S
C863 C856 1.409 . S
C863 C862 1.362 . S
H864 C870 0.930 . S
H865 C873 0.930 . S
H866 C874 0.930 . S
H867 C875 0.930 . S
H868 C878 0.930 1_655 S
H869 C879 0.930 . S
C870 H864 0.930 . S
C870 C871 1.355 . S
C870 C872 1.415 . S
C871 C870 1.355 . S
C871 C873 1.419 . S
C872 C870 1.415 . S
C872 C877 1.425 . S
C872 C879 1.409 . S
C873 H865 0.930 . S
C873 C871 1.419 . S
C873 C874 1.362 . S
C874 H866 0.930 . S
C874 C873 1.362 . S
C874 C877 1.409 . S
C875 H867 0.930 . S
C875 C876 1.355 . S
C875 C877 1.415 . S
C876 C875 1.355 . S
C876 C878 1.419 . S
C877 C872 1.425 . S
C877 C874 1.409 . S
C877 C875 1.415 . S
C878 H868 0.930 1_455 S
C878 C876 1.419 . S
C878 C879 1.362 . S
C879 H869 0.930 . S
C879 C872 1.409 . S
C879 C878 1.362 . S
H880 C886 0.930 . S
H881 C889 0.930 . S
H882 C890 0.930 . S
H883 C891 0.930 . S
H884 C894 0.930 . S
H885 C895 0.930 . S
C886 H880 0.930 . S
C886 C887 1.355 . S
C886 C888 1.415 . S
C887 C886 1.355 . S
C887 C889 1.419 . S
C888 C886 1.415 . S
C888 C893 1.425 . S
C888 C895 1.409 . S
C889 H881 0.930 . S
C889 C887 1.419 . S
C889 C890 1.362 . S
C890 H882 0.930 . S
C890 C889 1.362 . S
C890 C893 1.409 . S
C891 H883 0.930 . S
C891 C892 1.355 . S
C891 C893 1.415 . S
C892 C891 1.355 . S
C892 C894 1.419 . S
C893 C888 1.425 . S
C893 C890 1.409 . S
C893 C891 1.415 . S
C894 H884 0.930 . S
C894 C892 1.419 . S
C894 C895 1.362 . S
C895 H885 0.930 . S
C895 C888 1.409 . S
C895 C894 1.362 . S
H896 C902 0.930 . S
H897 C905 0.930 . S
H898 C906 0.930 . S
H899 C907 0.930 . S
H900 C910 0.930 1_545 S
H901 C911 0.930 . S
C902 H896 0.930 . S
C902 C903 1.355 . S
C902 C904 1.415 . S
C903 C902 1.355 . S
C903 C905 1.419 . S
C904 C902 1.415 . S
C904 C909 1.425 . S
C904 C911 1.409 . S
C905 H897 0.930 . S
C905 C903 1.419 . S
C905 C906 1.362 . S
C906 H898 0.930 . S
C906 C905 1.362 . S
C906 C909 1.409 . S
C907 H899 0.930 . S
C907 C908 1.355 . S
C907 C909 1.415 . S
C908 C907 1.355 . S
C908 C910 1.419 . S
C909 C904 1.425 . S
C909 C906 1.409 . S
C909 C907 1.415 . S
C910 H900 0.930 1_565 S
C910 C908 1.419 . S
C910 C911 1.362 . S
C911 H901 0.930 . S
C911 C904 1.409 . S
C911 C910 1.362 . S
H912 C918 0.930 . S
H913 C921 0.930 . S
H914 C922 0.930 . S
H915 C923 0.930 . S
H916 C926 0.930 . S
H917 C927 0.930 . S
C918 H912 0.930 . S
C918 C919 1.355 . S
C918 C920 1.415 . S
C919 C918 1.355 . S
C919 C921 1.419 . S
C920 C918 1.415 . S
C920 C925 1.425 . S
C920 C927 1.409 . S
C921 H913 0.930 . S
C921 C919 1.419 . S
C921 C922 1.362 . S
C922 H914 0.930 . S
C922 C921 1.362 . S
C922 C925 1.409 . S
C923 H915 0.930 . S
C923 C924 1.355 . S
C923 C925 1.415 . S
C924 C923 1.355 . S
C924 C926 1.419 . S
C925 C920 1.425 . S
C925 C922 1.409 . S
C925 C923 1.415 . S
C926 H916 0.930 . S
C926 C924 1.419 . S
C926 C927 1.362 . S
C927 H917 0.930 . S
C927 C920 1.409 . S
C927 C926 1.362 . S
H928 C934 0.930 . S
H929 C937 0.930 . S
H930 C938 0.930 . S
H931 C939 0.930 . S
H932 C942 0.930 . S
H933 C943 0.930 . S
C934 H928 0.930 . S
C934 C935 1.355 . S
C934 C936 1.415 . S
C935 C934 1.355 . S
C935 C937 1.419 . S
C936 C934 1.415 . S
C936 C941 1.425 . S
C936 C943 1.409 . S
C937 H929 0.930 . S
C937 C935 1.419 . S
C937 C938 1.362 . S
C938 H930 0.930 . S
C938 C937 1.362 . S
C938 C941 1.409 . S
C939 H931 0.930 . S
C939 C940 1.355 . S
C939 C941 1.415 . S
C940 C939 1.355 . S
C940 C942 1.419 . S
C941 C936 1.425 . S
C941 C938 1.409 . S
C941 C939 1.415 . S
C942 H932 0.930 . S
C942 C940 1.419 . S
C942 C943 1.362 . S
C943 H933 0.930 . S
C943 C936 1.409 . S
C943 C942 1.362 . S
H944 C950 0.930 . S
H945 C953 0.930 . S
H946 C954 0.930 . S
H947 C955 0.930 . S
H948 C958 0.930 . S
H949 C959 0.930 . S
C950 H944 0.930 . S
C950 C951 1.355 . S
C950 C952 1.415 . S
C951 C950 1.355 . S
C951 C953 1.419 . S
C952 C950 1.415 . S
C952 C957 1.425 . S
C952 C959 1.409 . S
C953 H945 0.930 . S
C953 C951 1.419 . S
C953 C954 1.362 . S
C954 H946 0.930 . S
C954 C953 1.362 . S
C954 C957 1.409 . S
C955 H947 0.930 . S
C955 C956 1.355 . S
C955 C957 1.415 . S
C956 C955 1.355 . S
C956 C958 1.419 . S
C957 C952 1.425 . S
C957 C954 1.409 . S
C957 C955 1.415 . S
C958 H948 0.930 . S
C958 C956 1.419 . S
C958 C959 1.362 . S
C959 H949 0.930 . S
C959 C952 1.409 . S
C959 C958 1.362 . S
H960 C966 0.930 . S
H961 C969 0.930 . S
H962 C970 0.930 . S
H963 C971 0.930 . S
H964 C974 0.930 . S
H965 C975 0.930 . S
C966 H960 0.930 . S
C966 C967 1.355 . S
C966 C968 1.415 . S
C967 C966 1.355 . S
C967 C969 1.419 . S
C968 C966 1.415 . S
C968 C973 1.425 . S
C968 C975 1.409 . S
C969 H961 0.930 . S
C969 C967 1.419 . S
C969 C970 1.362 . S
C970 H962 0.930 . S
C970 C969 1.362 . S
C970 C973 1.409 . S
C971 H963 0.930 . S
C971 C972 1.355 . S
C971 C973 1.415 . S
C972 C971 1.355 . S
C972 C974 1.419 . S
C973 C968 1.425 . S
C973 C970 1.409 . S
C973 C971 1.415 . S
C974 H964 0.930 . S
C974 C972 1.419 . S
C974 C975 1.362 . S
C975 H965 0.930 . S
C975 C968 1.409 . S
C975 C974 1.362 . S
H976 C982 0.930 . S
H977 C985 0.930 . S
H978 C986 0.930 . S
H979 C987 0.930 . S
H980 C990 0.930 . S
H981 C991 0.930 . S
C982 H976 0.930 . S
C982 C983 1.355 . S
C982 C984 1.415 . S
C983 C982 1.355 . S
C983 C985 1.419 . S
C984 C982 1.415 . S
C984 C989 1.425 . S
C984 C991 1.409 . S
C985 H977 0.930 . S
C985 C983 1.419 . S
C985 C986 1.362 . S
C986 H978 0.930 . S
C986 C985 1.362 . S
C986 C989 1.409 . S
C987 H979 0.930 . S
C987 C988 1.355 . S
C987 C989 1.415 . S
C988 C987 1.355 . S
C988 C990 1.419 . S
C989 C984 1.425 . S
C989 C986 1.409 . S
C989 C987 1.415 . S
C990 H980 0.930 . S
C990 C988 1.419 . S
C990 C991 1.362 . S
C991 H981 0.930 . S
C991 C984 1.409 . S
C991 C990 1.362 . S
H992 C998 0.930 . S
H993 C1001 0.930 . S
H994 C1002 0.930 . S
H995 C1003 0.930 . S
H996 C1006 0.930 . S
H997 C1007 0.930 . S
C998 H992 0.930 . S
C998 C999 1.355 . S
C998 C1000 1.415 . S
C999 C998 1.355 . S
C999 C1001 1.419 . S
C1000 C998 1.415 . S
C1000 C1005 1.425 . S
C1000 C1007 1.409 . S
C1001 H993 0.930 . S
C1001 C999 1.419 . S
C1001 C1002 1.362 . S
C1002 H994 0.930 . S
C1002 C1001 1.362 . S
C1002 C1005 1.409 . S
C1003 H995 0.930 . S
C1003 C1004 1.355 . S
C1003 C1005 1.415 . S
C1004 C1003 1.355 . S
C1004 C1006 1.419 . S
C1005 C1000 1.425 . S
C1005 C1002 1.409 . S
C1005 C1003 1.415 . S
C1006 H996 0.930 . S
C1006 C1004 1.419 . S
C1006 C1007 1.362 . S
C1007 H997 0.930 . S
C1007 C1000 1.409 . S
C1007 C1006 1.362 . S
H1008 C1014 0.930 . S
H1009 C1017 0.930 . S
H1010 C1018 0.930 . S
H1011 C1019 0.930 . S
H1012 C1022 0.930 . S
H1013 C1023 0.930 . S
C1014 H1008 0.930 . S
C1014 C1015 1.355 . S
C1014 C1016 1.415 . S
C1015 C1014 1.355 . S
C1015 C1017 1.419 . S
C1016 C1014 1.415 . S
C1016 C1021 1.425 . S
C1016 C1023 1.409 . S
C1017 H1009 0.930 . S
C1017 C1015 1.419 . S
C1017 C1018 1.362 . S
C1018 H1010 0.930 . S
C1018 C1017 1.362 . S
C1018 C1021 1.409 . S
C1019 H1011 0.930 . S
C1019 C1020 1.355 . S
C1019 C1021 1.415 . S
C1020 C1019 1.355 . S
C1020 C1022 1.419 . S
C1021 C1016 1.425 . S
C1021 C1018 1.409 . S
C1021 C1019 1.415 . S
C1022 H1012 0.930 . S
C1022 C1020 1.419 . S
C1022 C1023 1.362 . S
C1023 H1013 0.930 . S
C1023 C1016 1.409 . S
C1023 C1022 1.362 . S
H1024 C1030 0.930 . S
H1025 C1033 0.930 . S
H1026 C1034 0.930 . S
H1027 C1035 0.930 . S
H1028 C1038 0.930 . S
H1029 C1039 0.930 . S
C1030 H1024 0.930 . S
C1030 C1031 1.355 . S
C1030 C1032 1.415 . S
C1031 C1030 1.355 . S
C1031 C1033 1.419 . S
C1032 C1030 1.415 . S
C1032 C1037 1.425 . S
C1032 C1039 1.409 . S
C1033 H1025 0.930 . S
C1033 C1031 1.419 . S
C1033 C1034 1.362 . S
C1034 H1026 0.930 . S
C1034 C1033 1.362 . S
C1034 C1037 1.409 . S
C1035 H1027 0.930 . S
C1035 C1036 1.355 . S
C1035 C1037 1.415 . S
C1036 C1035 1.355 . S
C1036 C1038 1.419 . S
C1037 C1032 1.425 . S
C1037 C1034 1.409 . S
C1037 C1035 1.415 . S
C1038 H1028 0.930 . S
C1038 C1036 1.419 . S
C1038 C1039 1.362 . S
C1039 H1029 0.930 . S
C1039 C1032 1.409 . S
C1039 C1038 1.362 . S
H1040 C1046 0.930 . S
H1041 C1049 0.930 . S
H1042 C1050 0.930 . S
H1043 C1051 0.930 . S
H1044 C1054 0.930 . S
H1045 C1055 0.930 . S
C1046 H1040 0.930 . S
C1046 C1047 1.355 . S
C1046 C1048 1.415 . S
C1047 C1046 1.355 . S
C1047 C1049 1.419 . S
C1048 C1046 1.415 . S
C1048 C1053 1.425 . S
C1048 C1055 1.409 . S
C1049 H1041 0.930 . S
C1049 C1047 1.419 . S
C1049 C1050 1.362 . S
C1050 H1042 0.930 . S
C1050 C1049 1.362 . S
C1050 C1053 1.409 . S
C1051 H1043 0.930 . S
C1051 C1052 1.355 . S
C1051 C1053 1.415 . S
C1052 C1051 1.355 . S
C1052 C1054 1.419 . S
C1053 C1048 1.425 . S
C1053 C1050 1.409 . S
C1053 C1051 1.415 . S
C1054 H1044 0.930 . S
C1054 C1052 1.419 . S
C1054 C1055 1.362 . S
C1055 H1045 0.930 . S
C1055 C1048 1.409 . S
C1055 C1054 1.362 . S
H1056 C1062 0.930 . S
H1057 C1065 0.930 . S
H1058 C1066 0.930 . S
H1059 C1067 0.930 . S
H1060 C1070 0.930 . S
H1061 C1071 0.930 . S
C1062 H1056 0.930 . S
C1062 C1063 1.355 . S
C1062 C1064 1.415 . S
C1063 C1062 1.355 . S
C1063 C1065 1.419 . S
C1064 C1062 1.415 . S
C1064 C1069 1.425 . S
C1064 C1071 1.409 . S
C1065 H1057 0.930 . S
C1065 C1063 1.419 . S
C1065 C1066 1.362 . S
C1066 H1058 0.930 . S
C1066 C1065 1.362 . S
C1066 C1069 1.409 . S
C1067 H1059 0.930 . S
C1067 C1068 1.355 . S
C1067 C1069 1.415 . S
C1068 C1067 1.355 . S
C1068 C1070 1.419 . S
C1069 C1064 1.425 . S
C1069 C1066 1.409 . S
C1069 C1067 1.415 . S
C1070 H1060 0.930 . S
C1070 C1068 1.419 . S
C1070 C1071 1.362 . S
C1071 H1061 0.930 . S
C1071 C1064 1.409 . S
C1071 C1070 1.362 . S
H1072 C1078 0.930 . S
H1073 C1081 0.930 . S
H1074 C1082 0.930 . S
H1075 C1083 0.930 . S
H1076 C1086 0.930 . S
H1077 C1087 0.930 . S
C1078 H1072 0.930 . S
C1078 C1079 1.355 . S
C1078 C1080 1.415 . S
C1079 C1078 1.355 . S
C1079 C1081 1.419 . S
C1080 C1078 1.415 . S
C1080 C1085 1.425 . S
C1080 C1087 1.409 . S
C1081 H1073 0.930 . S
C1081 C1079 1.419 . S
C1081 C1082 1.362 . S
C1082 H1074 0.930 . S
C1082 C1081 1.362 . S
C1082 C1085 1.409 . S
C1083 H1075 0.930 . S
C1083 C1084 1.355 . S
C1083 C1085 1.415 . S
C1084 C1083 1.355 . S
C1084 C1086 1.419 . S
C1085 C1080 1.425 . S
C1085 C1082 1.409 . S
C1085 C1083 1.415 . S
C1086 H1076 0.930 . S
C1086 C1084 1.419 . S
C1086 C1087 1.362 . S
C1087 H1077 0.930 . S
C1087 C1080 1.409 . S
C1087 C1086 1.362 . S
H1088 C1094 0.930 . S
H1089 C1097 0.930 . S
H1090 C1098 0.930 . S
H1091 C1099 0.930 . S
H1092 C1102 0.930 . S
H1093 C1103 0.930 . S
C1094 H1088 0.930 . S
C1094 C1095 1.355 . S
C1094 C1096 1.415 . S
C1095 C1094 1.355 . S
C1095 C1097 1.419 . S
C1096 C1094 1.415 . S
C1096 C1101 1.425 . S
C1096 C1103 1.409 . S
C1097 H1089 0.930 . S
C1097 C1095 1.419 . S
C1097 C1098 1.362 . S
C1098 H1090 0.930 . S
C1098 C1097 1.362 . S
C1098 C1101 1.409 . S
C1099 H1091 0.930 . S
C1099 C1100 1.355 . S
C1099 C1101 1.415 . S
C1100 C1099 1.355 . S
C1100 C1102 1.419 . S
C1101 C1096 1.425 . S
C1101 C1098 1.409 . S
C1101 C1099 1.415 . S
C1102 H1092 0.930 . S
C1102 C1100 1.419 . S
C1102 C1103 1.362 . S
C1103 H1093 0.930 . S
C1103 C1096 1.409 . S
C1103 C1102 1.362 . S
H1104 C1110 0.930 . S
H1105 C1113 0.930 . S
H1106 C1114 0.930 . S
H1107 C1115 0.930 . S
H1108 C1118 0.930 . S
H1109 C1119 0.930 . S
C1110 H1104 0.930 . S
C1110 C1111 1.355 . S
C1110 C1112 1.415 . S
C1111 C1110 1.355 . S
C1111 C1113 1.419 . S
C1112 C1110 1.415 . S
C1112 C1117 1.425 . S
C1112 C1119 1.409 . S
C1113 H1105 0.930 . S
C1113 C1111 1.419 . S
C1113 C1114 1.362 . S
C1114 H1106 0.930 . S
C1114 C1113 1.362 . S
C1114 C1117 1.409 . S
C1115 H1107 0.930 . S
C1115 C1116 1.355 . S
C1115 C1117 1.415 . S
C1116 C1115 1.355 . S
C1116 C1118 1.419 . S
C1117 C1112 1.425 . S
C1117 C1114 1.409 . S
C1117 C1115 1.415 . S
C1118 H1108 0.930 . S
C1118 C1116 1.419 . S
C1118 C1119 1.362 . S
C1119 H1109 0.930 . S
C1119 C1112 1.409 . S
C1119 C1118 1.362 . S
H1120 C1126 0.930 . S
H1121 C1129 0.930 . S
H1122 C1130 0.930 . S
H1123 C1131 0.930 . S
H1124 C1134 0.930 . S
H1125 C1135 0.930 . S
C1126 H1120 0.930 . S
C1126 C1127 1.355 . S
C1126 C1128 1.415 . S
C1127 C1126 1.355 . S
C1127 C1129 1.419 . S
C1128 C1126 1.415 . S
C1128 C1133 1.425 . S
C1128 C1135 1.409 . S
C1129 H1121 0.930 . S
C1129 C1127 1.419 . S
C1129 C1130 1.362 . S
C1130 H1122 0.930 . S
C1130 C1129 1.362 . S
C1130 C1133 1.409 . S
C1131 H1123 0.930 . S
C1131 C1132 1.355 . S
C1131 C1133 1.415 . S
C1132 C1131 1.355 . S
C1132 C1134 1.419 . S
C1133 C1128 1.425 . S
C1133 C1130 1.409 . S
C1133 C1131 1.415 . S
C1134 H1124 0.930 . S
C1134 C1132 1.419 . S
C1134 C1135 1.362 . S
C1135 H1125 0.930 . S
C1135 C1128 1.409 . S
C1135 C1134 1.362 . S
H1136 C1142 0.930 . S
H1137 C1145 0.930 . S
H1138 C1146 0.930 . S
H1139 C1147 0.930 . S
H1140 C1150 0.930 . S
H1141 C1151 0.930 . S
C1142 H1136 0.930 . S
C1142 C1143 1.355 . S
C1142 C1144 1.415 . S
C1143 C1142 1.355 . S
C1143 C1145 1.419 . S
C1144 C1142 1.415 . S
C1144 C1149 1.425 . S
C1144 C1151 1.409 . S
C1145 H1137 0.930 . S
C1145 C1143 1.419 . S
C1145 C1146 1.362 . S
C1146 H1138 0.930 . S
C1146 C1145 1.362 . S
C1146 C1149 1.409 . S
C1147 H1139 0.930 . S
C1147 C1148 1.355 . S
C1147 C1149 1.415 . S
C1148 C1147 1.355 . S
C1148 C1150 1.419 . S
C1149 C1144 1.425 . S
C1149 C1146 1.409 . S
C1149 C1147 1.415 . S
C1150 H1140 0.930 . S
C1150 C1148 1.419 . S
C1150 C1151 1.362 . S
C1151 H1141 0.930 . S
C1151 C1144 1.409 . S
C1151 C1150 1.362 . S
H1152 C1158 0.930 . S
H1153 C1161 0.930 . S
H1154 C1162 0.930 . S
H1155 C1163 0.930 . S
H1156 C1166 0.930 . S
H1157 C1167 0.930 . S
C1158 H1152 0.930 . S
C1158 C1159 1.355 . S
C1158 C1160 1.415 . S
C1159 C1158 1.355 . S
C1159 C1161 1.419 . S
C1160 C1158 1.415 . S
C1160 C1165 1.425 . S
C1160 C1167 1.409 . S
C1161 H1153 0.930 . S
C1161 C1159 1.419 . S
C1161 C1162 1.362 . S
C1162 H1154 0.930 . S
C1162 C1161 1.362 . S
C1162 C1165 1.409 . S
C1163 H1155 0.930 . S
C1163 C1164 1.355 . S
C1163 C1165 1.415 . S
C1164 C1163 1.355 . S
C1164 C1166 1.419 . S
C1165 C1160 1.425 . S
C1165 C1162 1.409 . S
C1165 C1163 1.415 . S
C1166 H1156 0.930 . S
C1166 C1164 1.419 . S
C1166 C1167 1.362 . S
C1167 H1157 0.930 . S
C1167 C1160 1.409 . S
C1167 C1166 1.362 . S
H1168 C1174 0.930 . S
H1169 C1177 0.930 . S
H1170 C1178 0.930 . S
H1171 C1179 0.930 . S
H1172 C1182 0.930 . S
H1173 C1183 0.930 . S
C1174 H1168 0.930 . S
C1174 C1175 1.355 . S
C1174 C1176 1.415 . S
C1175 C1174 1.355 . S
C1175 C1177 1.419 . S
C1176 C1174 1.415 . S
C1176 C1181 1.425 . S
C1176 C1183 1.409 . S
C1177 H1169 0.930 . S
C1177 C1175 1.419 . S
C1177 C1178 1.362 . S
C1178 H1170 0.930 . S
C1178 C1177 1.362 . S
C1178 C1181 1.409 . S
C1179 H1171 0.930 . S
C1179 C1180 1.355 . S
C1179 C1181 1.415 . S
C1180 C1179 1.355 . S
C1180 C1182 1.419 . S
C1181 C1176 1.425 . S
C1181 C1178 1.409 . S
C1181 C1179 1.415 . S
C1182 H1172 0.930 . S
C1182 C1180 1.419 . S
C1182 C1183 1.362 . S
C1183 H1173 0.930 . S
C1183 C1176 1.409 . S
C1183 C1182 1.362 . S
H1184 C1190 0.930 . S
H1185 C1193 0.930 . S
H1186 C1194 0.930 . S
H1187 C1195 0.930 . S
H1188 C1198 0.930 . S
H1189 C1199 0.930 . S
C1190 H1184 0.930 . S
C1190 C1191 1.355 . S
C1190 C1192 1.415 . S
C1191 C1190 1.355 . S
C1191 C1193 1.419 . S
C1192 C1190 1.415 . S
C1192 C1197 1.425 . S
C1192 C1199 1.409 . S
C1193 H1185 0.930 . S
C1193 C1191 1.419 . S
C1193 C1194 1.362 . S
C1194 H1186 0.930 . S
C1194 C1193 1.362 . S
C1194 C1197 1.409 . S
C1195 H1187 0.930 . S
C1195 C1196 1.355 . S
C1195 C1197 1.415 . S
C1196 C1195 1.355 . S
C1196 C1198 1.419 . S
C1197 C1192 1.425 . S
C1197 C1194 1.409 . S
C1197 C1195 1.415 . S
C1198 H1188 0.930 . S
C1198 C1196 1.419 . S
C1198 C1199 1.362 . S
C1199 H1189 0.930 . S
C1199 C1192 1.409 . S
C1199 C1198 1.362 . S
H1200 C1206 0.930 . S
H1201 C1209 0.930 . S
H1202 C1210 0.930 . S
H1203 C1211 0.930 . S
H1204 C1214 0.930 . S
H1205 C1215 0.930 . S
C1206 H1200 0.930 . S
C1206 C1207 1.355 . S
C1206 C1208 1.415 . S
C1207 C1206 1.355 . S
C1207 C1209 1.419 . S
C1208 C1206 1.415 . S
C1208 C1213 1.425 . S
C1208 C1215 1.409 . S
C1209 H1201 0.930 . S
C1209 C1207 1.419 . S
C1209 C1210 1.362 . S
C1210 H1202 0.930 . S
C1210 C1209 1.362 . S
C1210 C1213 1.409 . S
C1211 H1203 0.930 . S
C1211 C1212 1.355 . S
C1211 C1213 1.415 . S
C1212 C1211 1.355 . S
C1212 C1214 1.419 . S
C1213 C1208 1.425 . S
C1213 C1210 1.409 . S
C1213 C1211 1.415 . S
C1214 H1204 0.930 . S
C1214 C1212 1.419 . S
C1214 C1215 1.362 . S
C1215 H1205 0.930 . S
C1215 C1208 1.409 . S
C1215 C1214 1.362 . S
H1216 C1222 0.930 . S
H1217 C1225 0.930 . S
H1218 C1226 0.930 . S
H1219 C1227 0.930 . S
H1220 C1230 0.930 . S
H1221 C1231 0.930 . S
C1222 H1216 0.930 . S
C1222 C1223 1.355 . S
C1222 C1224 1.415 . S
C1223 C1222 1.355 . S
C1223 C1225 1.419 . S
C1224 C1222 1.415 . S
C1224 C1229 1.425 . S
C1224 C1231 1.409 . S
C1225 H1217 0.930 . S
C1225 C1223 1.419 . S
C1225 C1226 1.362 . S
C1226 H1218 0.930 . S
C1226 C1225 1.362 . S
C1226 C1229 1.409 . S
C1227 H1219 0.930 . S
C1227 C1228 1.355 . S
C1227 C1229 1.415 . S
C1228 C1227 1.355 . S
C1228 C1230 1.419 . S
C1229 C1224 1.425 . S
C1229 C1226 1.409 . S
C1229 C1227 1.415 . S
C1230 H1220 0.930 . S
C1230 C1228 1.419 . S
C1230 C1231 1.362 . S
C1231 H1221 0.930 . S
C1231 C1224 1.409 . S
C1231 C1230 1.362 . S
H1232 C1238 0.930 . S
H1233 C1241 0.930 . S
H1234 C1242 0.930 . S
H1235 C1243 0.930 . S
H1236 C1246 0.930 . S
H1237 C1247 0.930 . S
C1238 H1232 0.930 . S
C1238 C1239 1.355 . S
C1238 C1240 1.415 . S
C1239 C1238 1.355 . S
C1239 C1241 1.419 . S
C1240 C1238 1.415 . S
C1240 C1245 1.425 . S
C1240 C1247 1.409 . S
C1241 H1233 0.930 . S
C1241 C1239 1.419 . S
C1241 C1242 1.362 . S
C1242 H1234 0.930 . S
C1242 C1241 1.362 . S
C1242 C1245 1.409 . S
C1243 H1235 0.930 . S
C1243 C1244 1.355 . S
C1243 C1245 1.415 . S
C1244 C1243 1.355 . S
C1244 C1246 1.419 . S
C1245 C1240 1.425 . S
C1245 C1242 1.409 . S
C1245 C1243 1.415 . S
C1246 H1236 0.930 . S
C1246 C1244 1.419 . S
C1246 C1247 1.362 . S
C1247 H1237 0.930 . S
C1247 C1240 1.409 . S
C1247 C1246 1.362 . S
H1248 C1254 0.930 . S
H1249 C1257 0.930 . S
H1250 C1258 0.930 . S
H1251 C1259 0.930 . S
H1252 C1262 0.930 . S
H1253 C1263 0.930 . S
C1254 H1248 0.930 . S
C1254 C1255 1.355 . S
C1254 C1256 1.415 . S
C1255 C1254 1.355 . S
C1255 C1257 1.419 . S
C1256 C1254 1.415 . S
C1256 C1261 1.425 . S
C1256 C1263 1.409 . S
C1257 H1249 0.930 . S
C1257 C1255 1.419 . S
C1257 C1258 1.362 . S
C1258 H1250 0.930 . S
C1258 C1257 1.362 . S
C1258 C1261 1.409 . S
C1259 H1251 0.930 . S
C1259 C1260 1.355 . S
C1259 C1261 1.415 . S
C1260 C1259 1.355 . S
C1260 C1262 1.419 . S
C1261 C1256 1.425 . S
C1261 C1258 1.409 . S
C1261 C1259 1.415 . S
C1262 H1252 0.930 . S
C1262 C1260 1.419 . S
C1262 C1263 1.362 . S
C1263 H1253 0.930 . S
C1263 C1256 1.409 . S
C1263 C1262 1.362 . S
H1264 C1270 0.930 . S
H1265 C1273 0.930 . S
H1266 C1274 0.930 . S
H1267 C1275 0.930 . S
H1268 C1278 0.930 . S
H1269 C1279 0.930 . S
C1270 H1264 0.930 . S
C1270 C1271 1.355 . S
C1270 C1272 1.415 . S
C1271 C1270 1.355 . S
C1271 C1273 1.419 . S
C1272 C1270 1.415 . S
C1272 C1277 1.425 . S
C1272 C1279 1.409 . S
C1273 H1265 0.930 . S
C1273 C1271 1.419 . S
C1273 C1274 1.362 . S
C1274 H1266 0.930 . S
C1274 C1273 1.362 . S
C1274 C1277 1.409 . S
C1275 H1267 0.930 . S
C1275 C1276 1.355 . S
C1275 C1277 1.415 . S
C1276 C1275 1.355 . S
C1276 C1278 1.419 . S
C1277 C1272 1.425 . S
C1277 C1274 1.409 . S
C1277 C1275 1.415 . S
C1278 H1268 0.930 . S
C1278 C1276 1.419 . S
C1278 C1279 1.362 . S
C1279 H1269 0.930 . S
C1279 C1272 1.409 . S
C1279 C1278 1.362 . S
H1280 C1286 0.930 . S
H1281 C1289 0.930 . S
H1282 C1290 0.930 . S
H1283 C1291 0.927 1_565 S
H1284 C1294 0.930 . S
H1285 C1295 0.930 . S
C1286 H1280 0.930 . S
C1286 C1287 1.355 1_655 S
C1286 C1288 1.415 . S
C1287 C1286 1.355 1_455 S
C1287 C1289 1.419 . S
C1288 C1286 1.415 . S
C1288 C1293 1.425 1_655 S
C1288 C1295 1.409 1_565 S
C1289 H1281 0.930 . S
C1289 C1287 1.419 . S
C1289 C1290 1.362 . S
C1290 H1282 0.930 . S
C1290 C1289 1.362 . S
C1290 C1293 1.409 . S
C1291 H1283 0.927 1_545 S
C1291 C1292 1.359 1_455 S
C1291 C1293 1.412 1_545 S
C1292 C1291 1.359 1_655 S
C1292 C1294 1.419 . S
C1293 C1288 1.425 1_455 S
C1293 C1290 1.409 . S
C1293 C1291 1.412 1_565 S
C1294 H1284 0.930 . S
C1294 C1292 1.419 . S
C1294 C1295 1.362 . S
C1295 H1285 0.930 . S
C1295 C1288 1.409 1_545 S
C1295 C1294 1.362 . S
H1296 C1302 0.930 . S
H1297 C1305 0.930 . S
H1298 C1306 0.926 1_545 S
H1299 C1307 0.930 . S
H1300 C1310 0.930 . S
H1301 C1311 0.930 . S
C1302 H1296 0.930 . S
C1302 C1303 1.355 . S
C1302 C1304 1.415 . S
C1303 C1302 1.355 . S
C1303 C1305 1.419 . S
C1304 C1302 1.415 . S
C1304 C1309 1.425 1_565 S
C1304 C1311 1.409 1_565 S
C1305 H1297 0.930 . S
C1305 C1303 1.419 . S
C1305 C1306 1.362 . S
C1306 H1298 0.926 1_565 S
C1306 C1305 1.362 . S
C1306 C1309 1.409 1_565 S
C1307 H1299 0.930 . S
C1307 C1308 1.355 . S
C1307 C1309 1.415 . S
C1308 C1307 1.355 . S
C1308 C1310 1.419 . S
C1309 C1304 1.425 1_545 S
C1309 C1306 1.409 1_545 S
C1309 C1307 1.415 . S
C1310 H1300 0.930 . S
C1310 C1308 1.419 . S
C1310 C1311 1.362 . S
C1311 H1301 0.930 . S
C1311 C1304 1.409 1_545 S
C1311 C1310 1.362 . S
H1312 C1318 0.930 . S
H1313 C1321 0.930 . S
H1314 C1322 0.930 . S
H1315 C1323 0.930 . S
H1316 C1326 0.930 . S
H1317 C1327 0.930 . S
C1318 H1312 0.930 . S
C1318 C1319 1.355 1_655 S
C1318 C1320 1.415 . S
C1319 C1318 1.355 1_455 S
C1319 C1321 1.419 . S
C1320 C1318 1.415 . S
C1320 C1325 1.425 1_655 S
C1320 C1327 1.409 . S
C1321 H1313 0.930 . S
C1321 C1319 1.419 . S
C1321 C1322 1.362 . S
C1322 H1314 0.930 . S
C1322 C1321 1.362 . S
C1322 C1325 1.409 . S
C1323 H1315 0.930 . S
C1323 C1324 1.355 . S
C1323 C1325 1.415 . S
C1324 C1323 1.355 . S
C1324 C1326 1.419 1_455 S
C1325 C1320 1.425 1_455 S
C1325 C1322 1.409 . S
C1325 C1323 1.415 . S
C1326 H1316 0.930 . S
C1326 C1324 1.419 1_655 S
C1326 C1327 1.362 . S
C1327 H1317 0.930 . S
C1327 C1320 1.409 . S
C1327 C1326 1.362 . S
H1328 C1334 0.930 . S
H1329 C1337 0.930 . S
H1330 C1338 0.930 . S
H1331 C1339 0.930 . S
H1332 C1342 0.930 . S
H1333 C1343 0.930 . S
C1334 H1328 0.930 . S
C1334 C1335 1.355 . S
C1334 C1336 1.415 . S
C1335 C1334 1.355 . S
C1335 C1337 1.419 . S
C1336 C1334 1.415 . S
C1336 C1341 1.425 . S
C1336 C1343 1.409 . S
C1337 H1329 0.930 . S
C1337 C1335 1.419 . S
C1337 C1338 1.362 . S
C1338 H1330 0.930 . S
C1338 C1337 1.362 . S
C1338 C1341 1.409 . S
C1339 H1331 0.930 . S
C1339 C1340 1.355 . S
C1339 C1341 1.415 . S
C1340 C1339 1.355 . S
C1340 C1342 1.419 . S
C1341 C1336 1.425 . S
C1341 C1338 1.409 . S
C1341 C1339 1.415 . S
C1342 H1332 0.930 . S
C1342 C1340 1.419 . S
C1342 C1343 1.362 . S
C1343 H1333 0.930 . S
C1343 C1336 1.409 . S
C1343 C1342 1.362 . S
H1344 C1350 0.930 . S
H1345 C1353 0.930 . S
H1346 C1354 0.930 . S
H1347 C1355 0.930 . S
H1348 C1358 0.930 . S
H1349 C1359 0.930 . S
C1350 H1344 0.930 . S
C1350 C1351 1.355 . S
C1350 C1352 1.415 1_565 S
C1351 C1350 1.355 . S
C1351 C1353 1.419 . S
C1352 C1350 1.415 1_545 S
C1352 C1357 1.425 1_545 S
C1352 C1359 1.409 . S
C1353 H1345 0.930 . S
C1353 C1351 1.419 . S
C1353 C1354 1.362 . S
C1354 H1346 0.930 . S
C1354 C1353 1.362 . S
C1354 C1357 1.408 . S
C1355 H1347 0.930 . S
C1355 C1356 1.355 . S
C1355 C1357 1.416 1_545 S
C1356 C1355 1.355 . S
C1356 C1358 1.419 . S
C1357 C1352 1.425 1_565 S
C1357 C1354 1.408 . S
C1357 C1355 1.416 1_565 S
C1358 H1348 0.930 . S
C1358 C1356 1.419 . S
C1358 C1359 1.362 . S
C1359 H1349 0.930 . S
C1359 C1352 1.409 . S
C1359 C1358 1.362 . S
H1360 C1366 0.930 . S
H1361 C1369 0.930 . S
H1362 C1370 0.930 . S
H1363 C1371 0.930 . S
H1364 C1374 0.930 . S
H1365 C1375 0.930 . S
C1366 H1360 0.930 . S
C1366 C1367 1.355 1_655 S
C1366 C1368 1.415 . S
C1367 C1366 1.355 1_455 S
C1367 C1369 1.419 . S
C1368 C1366 1.415 . S
C1368 C1373 1.425 1_655 S
C1368 C1375 1.409 . S
C1369 H1361 0.930 . S
C1369 C1367 1.419 . S
C1369 C1370 1.362 . S
C1370 H1362 0.930 . S
C1370 C1369 1.362 . S
C1370 C1373 1.409 . S
C1371 H1363 0.930 . S
C1371 C1372 1.355 . S
C1371 C1373 1.415 . S
C1372 C1371 1.355 . S
C1372 C1374 1.419 1_455 S
C1373 C1368 1.425 1_455 S
C1373 C1370 1.409 . S
C1373 C1371 1.415 . S
C1374 H1364 0.930 . S
C1374 C1372 1.419 1_655 S
C1374 C1375 1.362 . S
C1375 H1365 0.930 . S
C1375 C1368 1.409 . S
C1375 C1374 1.362 . S
H1376 C1382 0.930 . S
H1377 C1385 0.930 . S
H1378 C1386 0.930 . S
H1379 C1387 0.930 . S
H1380 C1390 0.930 . S
H1381 C1391 0.930 . S
C1382 H1376 0.930 . S
C1382 C1383 1.355 . S
C1382 C1384 1.415 1_554 S
C1383 C1382 1.355 . S
C1383 C1385 1.419 . S
C1384 C1382 1.415 1_556 S
C1384 C1389 1.425 1_556 S
C1384 C1391 1.409 . S
C1385 H1377 0.930 . S
C1385 C1383 1.419 . S
C1385 C1386 1.362 . S
C1386 H1378 0.930 . S
C1386 C1385 1.362 . S
C1386 C1389 1.409 . S
C1387 H1379 0.930 . S
C1387 C1388 1.355 . S
C1387 C1389 1.415 1_556 S
C1388 C1387 1.355 . S
C1388 C1390 1.419 . S
C1389 C1384 1.425 1_554 S
C1389 C1386 1.409 . S
C1389 C1387 1.415 1_554 S
C1390 H1380 0.930 . S
C1390 C1388 1.419 . S
C1390 C1391 1.362 . S
C1391 H1381 0.930 . S
C1391 C1384 1.409 . S
C1391 C1390 1.362 . S
H1392 C1398 0.930 . S
H1393 C1401 0.930 . S
H1394 C1402 0.930 . S
H1395 C1403 0.930 . S
H1396 C1406 0.930 . S
H1397 C1407 0.930 . S
C1398 H1392 0.930 . S
C1398 C1399 1.355 1_655 S
C1398 C1400 1.415 . S
C1399 C1398 1.355 1_455 S
C1399 C1401 1.419 . S
C1400 C1398 1.415 . S
C1400 C1405 1.425 1_655 S
C1400 C1407 1.409 1_556 S
C1401 H1393 0.930 . S
C1401 C1399 1.419 . S
C1401 C1402 1.362 . S
C1402 H1394 0.930 . S
C1402 C1401 1.362 . S
C1402 C1405 1.409 . S
C1403 H1395 0.930 . S
C1403 C1404 1.355 . S
C1403 C1405 1.415 1_554 S
C1404 C1403 1.355 . S
C1404 C1406 1.419 1_455 S
C1405 C1400 1.425 1_455 S
C1405 C1402 1.409 . S
C1405 C1403 1.415 1_556 S
C1406 H1396 0.930 . S
C1406 C1404 1.419 1_655 S
C1406 C1407 1.362 . S
C1407 H1397 0.930 . S
C1407 C1400 1.409 1_554 S
C1407 C1406 1.362 . S
H1408 C1414 0.930 . S
H1409 C1417 0.930 . S
H1410 C1418 0.930 . S
H1411 C1419 0.930 . S
H1412 C1422 0.930 . S
H1413 C1423 0.930 . S
C1414 H1408 0.930 . S
C1414 C1415 1.355 . S
C1414 C1416 1.415 . S
C1415 C1414 1.355 . S
C1415 C1417 1.419 . S
C1416 C1414 1.415 . S
C1416 C1421 1.425 . S
C1416 C1423 1.409 . S
C1417 H1409 0.930 . S
C1417 C1415 1.419 . S
C1417 C1418 1.362 . S
C1418 H1410 0.930 . S
C1418 C1417 1.362 . S
C1418 C1421 1.409 . S
C1419 H1411 0.930 . S
C1419 C1420 1.355 . S
C1419 C1421 1.415 . S
C1420 C1419 1.355 . S
C1420 C1422 1.419 . S
C1421 C1416 1.425 . S
C1421 C1418 1.409 . S
C1421 C1419 1.415 . S
C1422 H1412 0.930 . S
C1422 C1420 1.419 . S
C1422 C1423 1.362 . S
C1423 H1413 0.930 . S
C1423 C1416 1.409 . S
C1423 C1422 1.362 . S
H1424 C1430 0.930 . S
H1425 C1433 0.930 . S
H1426 C1434 0.930 . S
H1427 C1435 0.930 . S
H1428 C1438 0.930 . S
H1429 C1439 0.930 . S
C1430 H1424 0.930 . S
C1430 C1431 1.355 . S
C1430 C1432 1.481 . S
C1431 C1430 1.355 . S
C1431 C1433 1.419 . S
C1432 C1430 1.481 . S
C1432 C1437 1.422 . S
C1432 C1439 1.352 1_556 S
C1433 H1425 0.930 . S
C1433 C1431 1.419 . S
C1433 C1434 1.362 . S
C1434 H1426 0.930 . S
C1434 C1433 1.362 . S
C1434 C1437 1.407 . S
C1435 H1427 0.930 . S
C1435 C1436 1.355 . S
C1435 C1437 1.417 1_554 S
C1436 C1435 1.355 . S
C1436 C1438 1.419 . S
C1437 C1432 1.422 . S
C1437 C1434 1.407 . S
C1437 C1435 1.417 1_556 S
C1438 H1428 0.930 . S
C1438 C1436 1.419 . S
C1438 C1439 1.362 . S
C1439 H1429 0.930 . S
C1439 C1432 1.352 1_554 S
C1439 C1438 1.362 . S
H1440 C1446 0.930 . S
H1441 C1449 0.930 . S
H1442 C1450 0.930 . S
H1443 C1451 0.930 . S
H1444 C1454 0.930 . S
H1445 C1455 0.930 . S
C1446 H1440 0.930 . S
C1446 C1447 1.355 . S
C1446 C1448 1.415 . S
C1447 C1446 1.355 . S
C1447 C1449 1.419 . S
C1448 C1446 1.415 . S
C1448 C1453 1.425 . S
C1448 C1455 1.409 . S
C1449 H1441 0.930 . S
C1449 C1447 1.419 . S
C1449 C1450 1.362 . S
C1450 H1442 0.930 . S
C1450 C1449 1.362 . S
C1450 C1453 1.409 . S
C1451 H1443 0.930 . S
C1451 C1452 1.355 . S
C1451 C1453 1.415 . S
C1452 C1451 1.355 . S
C1452 C1454 1.419 . S
C1453 C1448 1.425 . S
C1453 C1450 1.409 . S
C1453 C1451 1.415 . S
C1454 H1444 0.930 . S
C1454 C1452 1.419 . S
C1454 C1455 1.362 . S
C1455 H1445 0.930 . S
C1455 C1448 1.409 . S
C1455 C1454 1.362 . S
H1456 C1462 0.930 . S
H1457 C1465 0.930 . S
H1458 C1466 0.934 1_554 S
H1459 C1467 0.930 . S
H1460 C1470 0.930 . S
H1461 C1471 0.930 . S
C1462 H1456 0.930 . S
C1462 C1463 1.355 1_565 S
C1462 C1464 1.415 . S
C1463 C1462 1.355 1_545 S
C1463 C1465 1.419 . S
C1464 C1462 1.415 . S
C1464 C1469 1.425 1_565 S
C1464 C1471 1.409 . S
C1465 H1457 0.930 . S
C1465 C1463 1.419 . S
C1465 C1466 1.362 . S
C1466 H1458 0.934 1_556 S
C1466 C1465 1.362 . S
C1466 C1469 1.409 . S
C1467 H1459 0.930 . S
C1467 C1468 1.355 . S
C1467 C1469 1.415 1_564 S
C1468 C1467 1.355 . S
C1468 C1470 1.419 . S
C1469 C1464 1.425 1_545 S
C1469 C1466 1.409 . S
C1469 C1467 1.415 1_546 S
C1470 H1460 0.930 . S
C1470 C1468 1.419 . S
C1470 C1471 1.362 1_554 S
C1471 H1461 0.930 . S
C1471 C1464 1.409 . S
C1471 C1470 1.362 1_556 S
H1472 C1478 0.930 . S
H1473 C1481 0.930 . S
H1474 C1482 0.930 . S
H1475 C1483 0.930 . S
H1476 C1486 0.930 . S
H1477 C1487 0.930 . S
C1478 H1472 0.930 . S
C1478 C1479 1.355 . S
C1478 C1480 1.415 . S
C1479 C1478 1.355 . S
C1479 C1481 1.419 . S
C1480 C1478 1.415 . S
C1480 C1485 1.425 . S
C1480 C1487 1.409 . S
C1481 H1473 0.930 . S
C1481 C1479 1.419 . S
C1481 C1482 1.362 . S
C1482 H1474 0.930 . S
C1482 C1481 1.362 . S
C1482 C1485 1.409 . S
C1483 H1475 0.930 . S
C1483 C1484 1.355 . S
C1483 C1485 1.415 . S
C1484 C1483 1.355 . S
C1484 C1486 1.419 . S
C1485 C1480 1.425 . S
C1485 C1482 1.409 . S
C1485 C1483 1.415 . S
C1486 H1476 0.930 . S
C1486 C1484 1.419 . S
C1486 C1487 1.362 . S
C1487 H1477 0.930 . S
C1487 C1480 1.409 . S
C1487 C1486 1.362 . S
H1488 C1494 0.930 . S
H1489 C1497 0.930 . S
H1490 C1498 0.930 . S
H1491 C1499 0.930 . S
H1492 C1502 0.930 . S
H1493 C1503 0.930 . S
C1494 H1488 0.930 . S
C1494 C1495 1.355 . S
C1494 C1496 1.415 . S
C1495 C1494 1.355 . S
C1495 C1497 1.419 . S
C1496 C1494 1.415 . S
C1496 C1501 1.425 . S
C1496 C1503 1.409 . S
C1497 H1489 0.930 . S
C1497 C1495 1.419 . S
C1497 C1498 1.362 . S
C1498 H1490 0.930 . S
C1498 C1497 1.362 . S
C1498 C1501 1.409 . S
C1499 H1491 0.930 . S
C1499 C1500 1.355 . S
C1499 C1501 1.415 . S
C1500 C1499 1.355 . S
C1500 C1502 1.419 . S
C1501 C1496 1.425 . S
C1501 C1498 1.409 . S
C1501 C1499 1.415 . S
C1502 H1492 0.930 . S
C1502 C1500 1.419 . S
C1502 C1503 1.362 . S
C1503 H1493 0.930 . S
C1503 C1496 1.409 . S
C1503 C1502 1.362 . S
H1504 C1510 0.930 . S
H1505 C1513 0.930 . S
H1506 C1514 0.930 . S
H1507 C1515 0.930 . S
H1508 C1518 0.930 . S
H1509 C1519 0.930 . S
C1510 H1504 0.930 . S
C1510 C1511 1.355 . S
C1510 C1512 1.415 . S
C1511 C1510 1.355 . S
C1511 C1513 1.419 . S
C1512 C1510 1.415 . S
C1512 C1517 1.425 . S
C1512 C1519 1.409 . S
C1513 H1505 0.930 . S
C1513 C1511 1.419 . S
C1513 C1514 1.362 . S
C1514 H1506 0.930 . S
C1514 C1513 1.362 . S
C1514 C1517 1.409 . S
C1515 H1507 0.930 . S
C1515 C1516 1.355 . S
C1515 C1517 1.415 . S
C1516 C1515 1.355 . S
C1516 C1518 1.419 . S
C1517 C1512 1.425 . S
C1517 C1514 1.409 . S
C1517 C1515 1.415 . S
C1518 H1508 0.930 . S
C1518 C1516 1.419 . S
C1518 C1519 1.362 . S
C1519 H1509 0.930 . S
C1519 C1512 1.409 . S
C1519 C1518 1.362 . S
C503 C2 0.761 . S
C508 C374 0.781 . S
C519 C29 0.667 . S
C524 C401 0.649 . S
C535 C60 0.583 . S
C540 C405 0.588 . S
C551 C33 0.759 . S
C556 C432 0.738 . S
C567 C464 1.738 . S
C572 C81 1.727 . S
C583 C92 1.769 1_545 S
C588 C453 1.758 . S
C599 C93 1.728 1_545 S
C604 C475 1.752 . S
C615 C103 1.762 . S
C620 C465 1.753 . S
C631 C277 0.588 . S
C636 C126 0.596 . S
C647 C250 0.756 . S
C652 C153 0.776 . S
C663 C308 0.760 . S
C668 C184 0.739 . S
C679 C281 0.707 . S
C684 C157 0.728 . S
C695 C340 1.739 1_545 S
C700 C205 1.729 . S
C711 C216 1.731 . S
C716 C329 1.706 . S
C727 C351 1.770 . S
C732 C236 1.757 . S
C743 C247 1.757 . S
C748 C341 1.749 1_545 S
C759 C30 1.787 1_565 S
C764 C372 1.743 . S
C775 C19 1.771 . S
C780 C382 1.807 . S
C791 C41 1.761 . S
C796 C403 1.713 . S
C807 C413 1.750 . S
C812 C31 1.708 1_565 S
C823 C434 1.744 . S
C828 C72 1.773 1_545 S
C839 C444 1.730 . S
C844 C62 1.690 . S
C855 C484 1.707 . S
C860 C123 1.742 . S
C871 C495 1.726 . S
C876 C112 1.682 1_545 S
C887 C154 1.801 . S
C892 C267 1.766 . S
C903 C143 1.691 . S
C908 C278 1.737 1_565 S
C919 C165 1.766 . S
C924 C298 1.718 1_565 S
C935 C155 1.732 . S
C940 C309 1.770 . S
C951 C310 1.719 . S
C956 C196 1.760 . S
C967 C320 1.775 1_545 S
C972 C186 1.737 . S
C983 C360 1.693 1_545 S
C988 C227 1.738 . S
C999 C217 1.742 . S
C1004 C371 1.772 . S
C1015 C10 1.617 . S
C1020 C299 1.641 . S
C1031 C289 1.607 . S
C1036 C20 1.635 . S
C1047 C268 1.629 . S
C1052 C61 1.598 . S
C1063 C258 1.589 . S
C1068 C32 1.618 . S
C1079 C361 1.691 . S
C1084 C64 1.700 . S
C1095 C63 1.684 . S
C1100 C370 1.695 . S
C1111 C122 1.697 . S
C1116 C311 1.682 . S
C1127 C113 1.714 . S
C1132 C312 1.725 . S
C1143 C404 1.606 . S
C1148 C134 1.569 . S
C1159 C144 1.625 . S
C1164 C433 1.591 . S
C1175 C185 1.562 . S
C1180 C373 1.604 . S
C1191 C402 1.621 . S
C1196 C156 1.643 . S
C1207 C485 1.724 . S
C1212 C188 1.731 . S
C1223 C494 1.694 . S
C1228 C187 1.682 . S
C1239 C435 1.705 . S
C1244 C219 1.712 . S
C1255 C436 1.693 . S
C1260 C218 1.680 . S
C1271 C454 1.379 . S
C1276 C1 1.339 . S
C1287 C91 1.801 . S
C1292 C0 1.983 1_655 S
C1303 C342 1.380 . S
C1308 C51 1.347 . S
C1319 C50 1.961 . S
C1324 C246 1.761 . S
C1335 C392 1.362 . S
C1340 C82 1.378 . S
C1351 C94 1.372 . S
C1356 C280 1.371 . S
C1367 C174 1.959 . S
C1372 C95 1.718 . S
C1383 C330 1.313 . S
C1388 C125 1.257 . S
C1399 C124 1.962 . S
C1404 C215 1.719 . S
C1415 C175 1.283 . S
C1420 C466 1.347 . S
C1431 C249 1.289 . S
C1436 C206 1.252 . S
C1447 C423 1.374 . S
C1452 C237 1.368 . S
C1463 C248 1.963 . S
C1468 C339 1.765 . S
C1479 C279 1.987 . S
C1484 C467 1.807 . S
C1495 C422 2.010 . S
C1500 C343 1.809 . S
C1511 C463 1.792 . S
C1516 C391 2.006 . S
