# Generated by pormake.
# Topology lon, (4)-cn, num edge types: 1
# Building blocks:
#     Node 0, Type 0, BuildingBlock: NAHDIM_clean_sbu_0, # of connection points: 4
#     Node 1, Type 0, BuildingBlock: NAHDIM_clean_sbu_0, # of connection points: 4
#     Node 2, Type 0, BuildingBlock: NAHDIM_clean_sbu_0, # of connection points: 4
#     Node 3, Type 0, BuildingBlock: NAHDIM_clean_sbu_0, # of connection points: 4
#     Edge 4, Type (0, 0), BuildingBlock: TEMPAE_clean_linker_10, # of connection points: 2
#     Edge 5, Type (0, 0), BuildingBlock: TEMPAE_clean_linker_10, # of connection points: 2
#     Edge 6, Type (0, 0), BuildingBlock: TEMPAE_clean_linker_10, # of connection points: 2
#     Edge 7, Type (0, 0), BuildingBlock: TEMPAE_clean_linker_10, # of connection points: 2
#     Edge 8, Type (0, 0), BuildingBlock: TEMPAE_clean_linker_10, # of connection points: 2
#     Edge 9, Type (0, 0), BuildingBlock: TEMPAE_clean_linker_10, # of connection points: 2
#     Edge 10, Type (0, 0), BuildingBlock: TEMPAE_clean_linker_10, # of connection points: 2
#     Edge 11, Type (0, 0), BuildingBlock: TEMPAE_clean_linker_10, # of connection points: 2
# Relax obj value: 0.020
# Max RMSD: 0.061
# Mean RMSD: 0.060
data_MOF--net-lon--node1-NAHDIM_clean_sbu_0--edge1-TEMPAE_clean_linker_10
_symmetry_space_group_name_H-M    P1
_symmetry_Int_Tables_number       1
_symmetry_cell_setting            triclinic
loop_
_symmetry_equiv_pos_as_xyz
'x, y, z'
_cell_length_a     25.240481
_cell_length_b     25.092853
_cell_length_c     41.731519
_cell_angle_alpha  88.328707
_cell_angle_beta   89.886553
_cell_angle_gamma 120.09831
loop_
_atom_site_label
_atom_site_type_symbol
_atom_site_fract_x
_atom_site_fract_y
_atom_site_fract_z
_atom_type_partial_charge
C0 C 0.3605 0.57668 0.02073 0.0
O1 O 0.31203 0.5682 0.00496 0.0
O2 O 0.36583 0.73351 0.04592 0.0
Zn3 Zn 0.32554 0.64512 0.06177 0.0
O4 O 0.24054 0.60011 0.04417 0.0
C5 C 0.34337 0.68883 0.12657 0.0
O6 O 0.37094 0.743 0.11155 0.0
O7 O 0.37498 0.60779 0.04599 0.0
C8 C 0.19922 0.61085 0.05394 0.0
O9 O 0.21216 0.65084 0.0765 0.0
C10 C 0.36404 0.74815 0.01672 0.0
O11 O 0.33563 0.70434 0.99614 0.0
O12 O 0.32075 0.64042 0.11026 0.0
C13 C 0.82178 0.39648 0.56389 0.0
O14 O 0.81433 0.38752 0.59513 0.0
O15 O 0.64622 0.37279 0.54663 0.0
Zn16 Zn 0.68747 0.32611 0.56177 0.0
O17 O 0.64797 0.24325 0.54161 0.0
C18 C 0.68535 0.36054 0.62645 0.0
O19 O 0.69459 0.4114 0.61152 0.0
O20 O 0.77507 0.37433 0.54619 0.0
C21 C 0.60169 0.19566 0.55384 0.0
O22 O 0.57824 0.19966 0.58119 0.0
C23 C 0.59035 0.3548 0.55287 0.0
O24 O 0.55731 0.30314 0.56962 0.0
O25 O 0.68139 0.31683 0.61003 0.0
C26 C 0.40889 0.61314 0.47661 0.0
O27 O 0.39662 0.64472 0.49692 0.0
O28 O 0.27036 0.61798 0.45116 0.0
Zn29 Zn 0.35669 0.66302 0.43309 0.0
O30 O 0.40383 0.74786 0.45107 0.0
C31 C 0.31431 0.66582 0.36849 0.0
O32 O 0.26657 0.66179 0.38352 0.0
O33 O 0.3964 0.61453 0.44723 0.0
C34 C 0.40394 0.79468 0.43853 0.0
O35 O 0.3729 0.78851 0.41231 0.0
C36 C 0.24289 0.6449 0.46169 0.0
O37 O 0.27058 0.70533 0.45999 0.0
O38 O 0.35761 0.66752 0.38477 0.0
C39 C 0.78907 0.41426 0.94634 0.0
O40 O 0.78002 0.44354 0.92229 0.0
O41 O 0.62116 0.22971 0.94456 0.0
Zn42 Zn 0.6647 0.32072 0.93348 0.0
O43 O 0.61453 0.35715 0.94927 0.0
C44 C 0.63144 0.31374 0.8674 0.0
O45 O 0.57614 0.28644 0.88036 0.0
O46 O 0.74618 0.36098 0.95523 0.0
C47 C 0.61954 0.40645 0.93699 0.0
O48 O 0.65872 0.435 0.91314 0.0
C49 C 0.56374 0.19856 0.95004 0.0
O50 O 0.53142 0.22638 0.94847 0.0
O51 O 0.67733 0.33312 0.88559 0.0
C52 C 0.30802 0.6269 0.17836 0.0
C53 C 0.33844 0.68449 0.16205 0.0
C54 C 0.30303 0.62246 0.21197 0.0
C55 C 0.3291 0.67691 0.22968 0.0
C56 C 0.35981 0.73514 0.21338 0.0
C57 C 0.3641 0.73823 0.17978 0.0
C58 C 0.26997 0.55955 0.22855 0.0
C59 C 0.38825 0.79423 0.23144 0.0
C60 C 0.27169 0.6696 0.31486 0.0
C61 C 0.31778 0.66826 0.33298 0.0
C62 C 0.27461 0.6721 0.2812 0.0
C63 C 0.32473 0.6731 0.26531 0.0
C64 C 0.37122 0.67143 0.28345 0.0
C65 C 0.36724 0.66913 0.31705 0.0
C66 C 0.22426 0.67402 0.26264 0.0
C67 C 0.42533 0.67232 0.26735 0.0
H68 H 0.288 0.58514 0.16486 0.0
H69 H 0.38769 0.78294 0.16742 0.0
H70 H 0.3014 0.55397 0.24505 0.0
H71 H 0.23114 0.55485 0.2433 0.0
H72 H 0.25202 0.52171 0.21131 0.0
H73 H 0.41022 0.83581 0.21516 0.0
H74 H 0.35279 0.79613 0.24631 0.0
H75 H 0.42329 0.79569 0.24796 0.0
H76 H 0.23332 0.66896 0.32694 0.0
H77 H 0.40302 0.66796 0.33084 0.0
H78 H 0.20281 0.63467 0.24642 0.0
H79 H 0.24372 0.71687 0.2474 0.0
H80 H 0.18808 0.67224 0.2786 0.0
H81 H 0.4092 0.6329 0.25126 0.0
H82 H 0.45713 0.66986 0.28491 0.0
H83 H 0.45112 0.7151 0.25226 0.0
C84 C 0.67164 0.30095 0.67803 0.0
C85 C 0.6789 0.35409 0.66186 0.0
C86 C 0.66466 0.29407 0.71155 0.0
C87 C 0.66473 0.34134 0.72929 0.0
C88 C 0.67227 0.39516 0.71314 0.0
C89 C 0.67937 0.40093 0.67963 0.0
C90 C 0.65692 0.23609 0.72796 0.0
C91 C 0.67242 0.44649 0.73123 0.0
C92 C 0.5893 0.30011 0.81211 0.0
C93 C 0.64008 0.32117 0.83209 0.0
C94 C 0.59668 0.30636 0.77861 0.0
C95 C 0.65628 0.33426 0.76475 0.0
C96 C 0.70774 0.35566 0.78476 0.0
C97 C 0.69904 0.34891 0.81819 0.0
C98 C 0.5407 0.28311 0.75805 0.0
C99 C 0.772 0.38562 0.77085 0.0
H100 H 0.67131 0.26457 0.6645 0.0
H101 H 0.68488 0.44212 0.66735 0.0
H102 H 0.69337 0.24799 0.74582 0.0
H103 H 0.61237 0.2117 0.74118 0.0
H104 H 0.65874 0.20406 0.71075 0.0
H105 H 0.67929 0.48556 0.71512 0.0
H106 H 0.62836 0.42869 0.74458 0.0
H107 H 0.70931 0.46406 0.74915 0.0
H108 H 0.54358 0.27864 0.82261 0.0
H109 H 0.73855 0.3653 0.83344 0.0
H110 H 0.53842 0.24785 0.74179 0.0
H111 H 0.54373 0.32151 0.74276 0.0
H112 H 0.49756 0.26253 0.77256 0.0
H113 H 0.77639 0.35337 0.7549 0.0
H114 H 0.80711 0.39955 0.78969 0.0
H115 H 0.78181 0.42706 0.75598 0.0
C116 C 0.45357 0.56539 0.02362 0.0
C117 C 0.39826 0.55108 0.00889 0.0
C118 C 0.49015 0.54216 0.01226 0.0
C119 C 0.4708 0.50343 0.98566 0.0
C120 C 0.41486 0.48849 0.97083 0.0
C121 C 0.37936 0.51262 0.98256 0.0
C122 C 0.54967 0.55932 0.02861 0.0
C123 C 0.39254 0.44704 0.94252 0.0
C124 C 0.58961 0.48767 0.9373 0.0
C125 C 0.58156 0.43131 0.94946 0.0
C126 C 0.55403 0.51179 0.94896 0.0
C127 C 0.50916 0.47866 0.97326 0.0
C128 C 0.50073 0.42172 0.9856 0.0
C129 C 0.53709 0.39878 0.9736 0.0
C130 C 0.56444 0.57276 0.93527 0.0
C131 C 0.45316 0.38495 0.01144 0.0
H132 H 0.4686 0.59518 0.04393 0.0
H133 H 0.33664 0.50119 0.97107 0.0
H134 H 0.5493 0.51711 0.03766 0.0
H135 H 0.58843 0.58312 0.01114 0.0
H136 H 0.55817 0.58991 0.04902 0.0
H137 H 0.3477 0.43937 0.9339 0.0
H138 H 0.42651 0.46753 0.92245 0.0
H139 H 0.38787 0.40171 0.94912 0.0
H140 H 0.6239 0.51315 0.91869 0.0
H141 H 0.53045 0.35514 0.98309 0.0
H142 H 0.57663 0.60603 0.95469 0.0
H143 H 0.52168 0.56667 0.9245 0.0
H144 H 0.60148 0.593 0.91664 0.0
H145 H 0.46235 0.41286 0.03303 0.0
H146 H 0.45231 0.34147 0.01845 0.0
H147 H 0.40707 0.3734 0.003 0.0
C148 C 0.15426 0.54452 0.48162 0.0
C149 C 0.18098 0.60847 0.47652 0.0
C150 C 0.09614 0.50958 0.49624 0.0
C151 C 0.06385 0.53924 0.50581 0.0
C152 C 0.09041 0.60369 0.50064 0.0
C153 C 0.14875 0.63758 0.48612 0.0
C154 C 0.06931 0.44092 0.50144 0.0
C155 C 0.05712 0.63683 0.51036 0.0
C156 C 0.89117 0.44228 0.51577 0.0
C157 C 0.88387 0.43275 0.54918 0.0
C158 C 0.94948 0.47691 0.50137 0.0
C159 C 0.00182 0.50262 0.52083 0.0
C160 C 0.99489 0.49318 0.55455 0.0
C161 C 0.93595 0.45834 0.56834 0.0
C162 C 0.95506 0.48602 0.46532 0.0
C163 C 0.04976 0.5199 0.57604 0.0
H164 H 0.17892 0.52168 0.47439 0.0
H165 H 0.16903 0.68694 0.48223 0.0
H166 H 0.05898 0.42814 0.52731 0.0
H167 H 0.02547 0.41584 0.48861 0.0
H168 H 0.10065 0.42503 0.49294 0.0
H169 H 0.08424 0.68718 0.50478 0.0
H170 H 0.01289 0.61767 0.4978 0.0
H171 H 0.04646 0.62949 0.53647 0.0
H172 H 0.85122 0.42273 0.50075 0.0
H173 H 0.93074 0.45125 0.59416 0.0
H174 H 0.98314 0.46733 0.45558 0.0
H175 H 0.97886 0.53594 0.45869 0.0
H176 H 0.90979 0.46312 0.45363 0.0
H177 H 0.08077 0.50239 0.56951 0.0
H178 H 0.03657 0.50829 0.6018 0.0
H179 H 0.07613 0.5708 0.57263 0.0
C180 C 0.47125 0.09831 0.96676 0.0
C181 C 0.53384 0.13188 0.95858 0.0
C182 C 0.44265 0.03541 0.97557 0.0
C183 C 0.47743 0.00534 0.97611 0.0
C184 C 0.54042 0.03874 0.96752 0.0
C185 C 0.5679 0.10163 0.9589 0.0
C186 C 0.37537 0.00129 0.98468 0.0
C187 C 0.57894 0.00817 0.96771 0.0
C188 C 0.4206 0.86026 0.02864 0.0
C189 C 0.39315 0.81387 0.0062 0.0
C190 C 0.44806 0.92272 0.01915 0.0
C191 C 0.44825 0.93925 0.98642 0.0
C192 C 0.42074 0.89274 0.96363 0.0
C193 C 0.39342 0.83056 0.9738 0.0
C194 C 0.47682 0.97103 0.04418 0.0
C195 C 0.42024 0.9087 0.9285 0.0
H196 H 0.44457 0.12127 0.96657 0.0
H197 H 0.61624 0.12714 0.95253 0.0
H198 H 0.35015 0.96115 0.96925 0.0
H199 H 0.36905 0.98316 0.00981 0.0
H200 H 0.35454 0.03107 0.98239 0.0
H201 H 0.62692 0.04023 0.95959 0.0
H202 H 0.57953 0.99036 0.99228 0.0
H203 H 0.55867 0.96814 0.9519 0.0
H204 H 0.42052 0.84782 0.05374 0.0
H205 H 0.37236 0.79503 0.9563 0.0
H206 H 0.45483 -0.0002 0.04426 0.0
H207 H 0.52611 0.00216 0.03832 0.0
H208 H 0.47256 0.95049 0.06866 0.0
H209 H 0.39654 0.93558 0.92526 0.0
H210 H 0.39704 0.86708 0.91381 0.0
H211 H 0.46786 0.93812 0.91924 0.0
C212 C 0.60076 0.45136 0.52778 0.0
C213 C 0.56334 0.3924 0.54179 0.0
C214 C 0.57603 0.48781 0.51734 0.0
C215 C 0.51229 0.46456 0.52077 0.0
C216 C 0.47421 0.40505 0.53481 0.0
C217 C 0.50024 0.36974 0.54528 0.0
C218 C 0.61814 0.55125 0.50268 0.0
C219 C 0.40595 0.37861 0.53865 0.0
C220 C 0.45497 0.57851 0.5196 0.0
C221 C 0.43566 0.57542 0.48787 0.0
C222 C 0.48003 0.54267 0.53064 0.0
C223 C 0.48548 0.5025 0.5095 0.0
C224 C 0.46589 0.49899 0.47749 0.0
C225 C 0.44142 0.53567 0.46702 0.0
C226 C 0.5009 0.54795 0.56489 0.0
C227 C 0.47069 0.45641 0.45432 0.0
H228 H 0.64961 0.46934 0.52512 0.0
H229 H 0.47102 0.32418 0.55602 0.0
H230 H 0.60412 0.55433 0.47783 0.0
H231 H 0.61464 0.58648 0.51652 0.0
H232 H 0.66677 0.56276 0.50206 0.0
H233 H 0.3827 0.33151 0.54995 0.0
H234 H 0.39654 0.40888 0.5536 0.0
H235 H 0.38553 0.37671 0.51489 0.0
H236 H 0.45079 0.60919 0.53584 0.0
H237 H 0.42639 0.53283 0.4425 0.0
H238 H 0.55032 0.56268 0.56532 0.0
H239 H 0.47577 0.50232 0.57763 0.0
H240 H 0.49357 0.58144 0.57825 0.0
H241 H 0.51922 0.46861 0.45136 0.0
H242 H 0.45263 0.45852 0.43035 0.0
H243 H 0.44491 0.40819 0.46399 0.0
C244 C 0.09095 0.58873 0.05133 0.0
C245 C 0.13805 0.58035 0.03921 0.0
C246 C 0.03327 0.56131 0.03704 0.0
C247 C 0.02259 0.52495 0.00988 0.0
C248 C 0.06979 0.51597 0.99767 0.0
C249 C 0.12688 0.54363 0.01252 0.0
C250 C 0.9839 0.57162 0.05084 0.0
C251 C 0.06017 0.47764 0.96869 0.0
C252 C 0.85886 0.41067 0.98786 0.0
C253 C 0.84856 0.44281 0.96284 0.0
C254 C 0.91517 0.43698 0.00351 0.0
C255 C 0.96228 0.49688 0.99395 0.0
C256 C 0.9521 0.52971 0.96886 0.0
C257 C 0.89538 0.50227 0.95359 0.0
C258 C 0.92436 0.40056 0.03017 0.0
C259 C 0.00127 0.59373 0.95802 0.0
H260 H 0.09914 0.61689 0.07198 0.0
H261 H 0.16303 0.537 0.00295 0.0
H262 H 0.9699 0.59492 0.03256 0.0
H263 H 0.94274 0.52672 0.05741 0.0
H264 H -0.00083 0.60011 0.07243 0.0
H265 H 0.10131 0.47453 0.96242 0.0
H266 H 0.02101 0.43033 0.97316 0.0
H267 H 0.04864 0.49788 0.94773 0.0
H268 H 0.82296 0.36471 0.99519 0.0
H269 H 0.88782 0.52749 0.93434 0.0
H270 H 0.93665 0.42674 0.05252 0.0
H271 H 0.96294 0.3933 0.02385 0.0
H272 H 0.88283 0.35489 0.03504 0.0
H273 H 0.01537 0.625 0.97847 0.0
H274 H 0.98584 0.61333 0.93839 0.0
H275 H 0.04241 0.5927 0.94951 0.0
C276 C 0.51695 0.0872 0.54721 0.0
C277 C 0.57391 0.13673 0.53703 0.0
C278 C 0.48955 0.0316 0.53102 0.0
C279 C 0.52015 0.02519 0.50422 0.0
C280 C 0.57792 0.07477 0.49402 0.0
C281 C 0.60397 0.13005 0.51045 0.0
C282 C 0.42763 0.97986 0.54244 0.0
C283 C 0.61221 0.06943 0.46574 0.0
C284 C 0.47374 0.86274 0.48051 0.0
C285 C 0.4354 0.85443 0.45455 0.0
C286 C 0.5022 0.91835 0.49666 0.0
C287 C 0.4916 0.9666 0.4868 0.0
C288 C 0.45328 0.95869 0.4605 0.0
C289 C 0.42587 0.90279 0.44458 0.0
C290 C 0.54329 0.92533 0.5244 0.0
C291 C 0.44058 0.00899 0.44944 0.0
H292 H 0.49333 0.09207 0.56765 0.0
H293 H 0.64812 0.16802 0.5025 0.0
H294 H 0.3942 0.96734 0.52285 0.0
H295 H 0.4306 0.93827 0.54893 0.0
H296 H 0.40977 0.99232 0.56357 0.0
H297 H 0.65714 0.11193 0.46117 0.0
H298 H 0.62011 0.03012 0.46997 0.0
H299 H 0.58444 0.05995 0.44385 0.0
H300 H 0.48152 0.82567 0.4883 0.0
H301 H 0.39614 0.89667 0.42462 0.0
H302 H 0.52466 0.93351 0.54664 0.0
H303 H 0.5895 0.96597 0.51989 0.0
H304 H 0.54802 0.88399 0.52855 0.0
H305 H 0.41888 0.02023 0.46927 0.0
H306 H 0.41 0.99568 0.42847 0.0
H307 H 0.48416 0.05159 0.44285 0.0
loop_
_geom_bond_atom_site_label_1
_geom_bond_atom_site_label_2
_geom_bond_distance
_geom_bond_site_symmetry_2
_ccdc_geom_bond_type
C0 O1 1.160 . S
C0 O7 1.185 . S
O1 C0 1.160 . S
O2 Zn3 1.899 . S
O2 C10 1.284 . S
Zn3 O2 1.899 . S
Zn3 O4 2.032 . S
Zn3 O7 2.086 . S
Zn3 O12 1.977 . S
O4 Zn3 2.032 . S
O4 C8 1.278 . S
C5 O6 1.203 . S
C5 O12 1.267 . S
O6 C5 1.203 . S
O7 C0 1.185 . S
O7 Zn3 2.086 . S
C8 O4 1.278 . S
C8 O9 1.211 . S
O9 C8 1.211 . S
C10 O2 1.284 . S
C10 O11 1.273 . S
O11 C10 1.273 . S
O12 Zn3 1.977 . S
O12 C5 1.267 . S
C13 O14 1.160 . S
C13 O20 1.185 . S
O14 C13 1.160 . S
O15 Zn16 1.899 . S
O15 C23 1.284 . S
Zn16 O15 1.899 . S
Zn16 O17 2.032 . S
Zn16 O20 2.086 . S
Zn16 O25 1.977 . S
O17 Zn16 2.032 . S
O17 C21 1.278 . S
C18 O19 1.203 . S
C18 O25 1.267 . S
O19 C18 1.203 . S
O20 C13 1.185 . S
O20 Zn16 2.086 . S
C21 O17 1.278 . S
C21 O22 1.211 . S
O22 C21 1.211 . S
C23 O15 1.284 . S
C23 O24 1.273 . S
O24 C23 1.273 . S
O25 Zn16 1.977 . S
O25 C18 1.267 . S
C26 O27 1.160 . S
C26 O33 1.185 . S
O27 C26 1.160 . S
O28 Zn29 1.899 . S
O28 C36 1.284 . S
Zn29 O28 1.899 . S
Zn29 O30 2.032 . S
Zn29 O33 2.086 . S
Zn29 O38 1.977 . S
O30 Zn29 2.032 . S
O30 C34 1.278 . S
C31 O32 1.203 . S
C31 O38 1.267 . S
O32 C31 1.203 . S
O33 C26 1.185 . S
O33 Zn29 2.086 . S
C34 O30 1.278 . S
C34 O35 1.211 . S
O35 C34 1.211 . S
C36 O28 1.284 . S
C36 O37 1.273 . S
O37 C36 1.273 . S
O38 Zn29 1.977 . S
O38 C31 1.267 . S
C39 O40 1.160 . S
C39 O46 1.185 . S
O40 C39 1.160 . S
O41 Zn42 1.899 . S
O41 C49 1.284 . S
Zn42 O41 1.899 . S
Zn42 O43 2.032 . S
Zn42 O46 2.086 . S
Zn42 O51 1.977 . S
O43 Zn42 2.032 . S
O43 C47 1.278 . S
C44 O45 1.203 . S
C44 O51 1.267 . S
O45 C44 1.203 . S
O46 C39 1.185 . S
O46 Zn42 2.086 . S
C47 O43 1.278 . S
C47 O48 1.211 . S
O48 C47 1.211 . S
C49 O41 1.284 . S
C49 O50 1.273 . S
O50 C49 1.273 . S
O51 Zn42 1.977 . S
O51 C44 1.267 . S
C52 C53 1.391 . S
C52 C54 1.394 . S
C52 H68 0.931 . S
C53 C52 1.391 . S
C53 C57 1.376 . S
C54 C52 1.394 . S
C54 C55 1.369 . S
C54 C58 1.531 . S
C55 C54 1.369 . S
C55 C56 1.410 . S
C55 C63 1.503 . S
C56 C55 1.410 . S
C56 C57 1.392 . S
C56 C59 1.511 . S
C57 C53 1.376 . S
C57 C56 1.392 . S
C57 H69 0.929 . S
C58 C54 1.531 . S
C58 H70 0.960 . S
C58 H71 0.962 . S
C58 H72 0.960 . S
C59 C56 1.511 . S
C59 H73 0.961 . S
C59 H74 0.961 . S
C59 H75 0.961 . S
C60 C61 1.370 . S
C60 C62 1.363 . S
C60 H76 0.931 . S
C61 C60 1.370 . S
C61 C65 1.408 . S
C62 C60 1.363 . S
C62 C63 1.370 . S
C62 C66 1.524 . S
C63 C55 1.503 . S
C63 C62 1.370 . S
C63 C64 1.403 . S
C64 C63 1.403 . S
C64 C65 1.404 . S
C64 C67 1.539 . S
C65 C61 1.408 . S
C65 C64 1.404 . S
C65 H77 0.930 . S
C66 C62 1.524 . S
C66 H78 0.956 . S
C66 H79 0.961 . S
C66 H80 0.961 . S
C67 C64 1.539 . S
C67 H81 0.958 . S
C67 H82 0.961 . S
C67 H83 0.960 . S
H68 C52 0.931 . S
H69 C57 0.929 . S
H70 C58 0.960 . S
H71 C58 0.962 . S
H72 C58 0.960 . S
H73 C59 0.961 . S
H74 C59 0.961 . S
H75 C59 0.961 . S
H76 C60 0.931 . S
H77 C65 0.930 . S
H78 C66 0.956 . S
H79 C66 0.961 . S
H80 C66 0.961 . S
H81 C67 0.958 . S
H82 C67 0.961 . S
H83 C67 0.960 . S
C84 C85 1.391 . S
C84 C86 1.394 . S
C84 H100 0.931 . S
C85 C84 1.391 . S
C85 C89 1.376 . S
C86 C84 1.394 . S
C86 C87 1.369 . S
C86 C90 1.531 . S
C87 C86 1.369 . S
C87 C88 1.410 . S
C87 C95 1.503 . S
C88 C87 1.410 . S
C88 C89 1.392 . S
C88 C91 1.511 . S
C89 C85 1.376 . S
C89 C88 1.392 . S
C89 H101 0.929 . S
C90 C86 1.531 . S
C90 H102 0.960 . S
C90 H103 0.962 . S
C90 H104 0.960 . S
C91 C88 1.511 . S
C91 H105 0.961 . S
C91 H106 0.961 . S
C91 H107 0.961 . S
C92 C93 1.370 . S
C92 C94 1.363 . S
C92 H108 0.931 . S
C93 C92 1.370 . S
C93 C97 1.408 . S
C94 C92 1.363 . S
C94 C95 1.370 . S
C94 C98 1.524 . S
C95 C87 1.503 . S
C95 C94 1.370 . S
C95 C96 1.403 . S
C96 C95 1.403 . S
C96 C97 1.404 . S
C96 C99 1.539 . S
C97 C93 1.408 . S
C97 C96 1.404 . S
C97 H109 0.930 . S
C98 C94 1.524 . S
C98 H110 0.956 . S
C98 H111 0.961 . S
C98 H112 0.961 . S
C99 C96 1.539 . S
C99 H113 0.958 . S
C99 H114 0.961 . S
C99 H115 0.960 . S
H100 C84 0.931 . S
H101 C89 0.929 . S
H102 C90 0.960 . S
H103 C90 0.962 . S
H104 C90 0.960 . S
H105 C91 0.961 . S
H106 C91 0.961 . S
H107 C91 0.961 . S
H108 C92 0.931 . S
H109 C97 0.930 . S
H110 C98 0.956 . S
H111 C98 0.961 . S
H112 C98 0.961 . S
H113 C99 0.958 . S
H114 C99 0.961 . S
H115 C99 0.960 . S
C116 C117 1.391 . S
C116 C118 1.394 . S
C116 H132 0.931 . S
C117 C116 1.391 . S
C117 C121 1.376 . S
C118 C116 1.394 . S
C118 C119 1.369 . S
C118 C122 1.531 . S
C119 C118 1.369 . S
C119 C120 1.410 1_554 S
C119 C127 1.503 1_554 S
C120 C119 1.410 1_556 S
C120 C121 1.392 1_556 S
C120 C123 1.511 . S
C121 C117 1.376 . S
C121 C120 1.392 1_554 S
C121 H133 0.929 1_554 S
C122 C118 1.531 . S
C122 H134 0.960 . S
C122 H135 0.962 . S
C122 H136 0.960 . S
C123 C120 1.511 . S
C123 H137 0.961 . S
C123 H138 0.961 . S
C123 H139 0.961 . S
C124 C125 1.370 . S
C124 C126 1.363 . S
C124 H140 0.931 . S
C125 C124 1.370 . S
C125 C129 1.408 . S
C126 C124 1.363 . S
C126 C127 1.370 . S
C126 C130 1.524 . S
C127 C119 1.503 1_556 S
C127 C126 1.370 . S
C127 C128 1.403 1_556 S
C128 C127 1.403 1_554 S
C128 C129 1.404 1_554 S
C128 C131 1.539 . S
C129 C125 1.408 . S
C129 C128 1.404 1_556 S
C129 H141 0.930 1_556 S
C130 C126 1.524 . S
C130 H142 0.956 . S
C130 H143 0.961 . S
C130 H144 0.961 . S
C131 C128 1.539 . S
C131 H145 0.958 . S
C131 H146 0.961 . S
C131 H147 0.960 . S
H132 C116 0.931 . S
H133 C121 0.929 1_556 S
H134 C122 0.960 . S
H135 C122 0.962 . S
H136 C122 0.960 . S
H137 C123 0.961 . S
H138 C123 0.961 . S
H139 C123 0.961 . S
H140 C124 0.931 . S
H141 C129 0.930 1_554 S
H142 C130 0.956 . S
H143 C130 0.961 . S
H144 C130 0.961 . S
H145 C131 0.958 . S
H146 C131 0.961 . S
H147 C131 0.960 . S
C148 C149 1.391 . S
C148 C150 1.394 . S
C148 H164 0.931 . S
C149 C148 1.391 . S
C149 C153 1.376 . S
C150 C148 1.394 . S
C150 C151 1.369 . S
C150 C154 1.531 . S
C151 C150 1.369 . S
C151 C152 1.410 . S
C151 C159 1.503 1_455 S
C152 C151 1.410 . S
C152 C153 1.392 . S
C152 C155 1.511 . S
C153 C149 1.376 . S
C153 C152 1.392 . S
C153 H165 0.929 . S
C154 C150 1.531 . S
C154 H166 0.960 . S
C154 H167 0.962 . S
C154 H168 0.960 . S
C155 C152 1.511 . S
C155 H169 0.961 . S
C155 H170 0.961 1_455 S
C155 H171 0.961 . S
C156 C157 1.370 . S
C156 C158 1.363 . S
C156 H172 0.931 . S
C157 C156 1.370 . S
C157 C161 1.408 . S
C158 C156 1.363 . S
C158 C159 1.370 . S
C158 C162 1.524 . S
C159 C151 1.503 1_655 S
C159 C158 1.370 . S
C159 C160 1.403 . S
C160 C159 1.403 . S
C160 C161 1.404 . S
C160 C163 1.539 . S
C161 C157 1.408 . S
C161 C160 1.404 . S
C161 H173 0.930 . S
C162 C158 1.524 . S
C162 H174 0.956 1_655 S
C162 H175 0.961 1_655 S
C162 H176 0.961 . S
C163 C160 1.539 . S
C163 H177 0.958 . S
C163 H178 0.961 . S
C163 H179 0.960 1_655 S
H164 C148 0.931 . S
H165 C153 0.929 . S
H166 C154 0.960 . S
H167 C154 0.962 . S
H168 C154 0.960 . S
H169 C155 0.961 . S
H170 C155 0.961 1_655 S
H171 C155 0.961 . S
H172 C156 0.931 . S
H173 C161 0.930 . S
H174 C162 0.956 1_455 S
H175 C162 0.961 1_455 S
H176 C162 0.961 . S
H177 C163 0.958 . S
H178 C163 0.961 . S
H179 C163 0.960 1_455 S
C180 C181 1.391 . S
C180 C182 1.394 . S
C180 H196 0.931 . S
C181 C180 1.391 . S
C181 C185 1.376 . S
C182 C180 1.394 . S
C182 C183 1.369 . S
C182 C186 1.531 . S
C183 C182 1.369 . S
C183 C184 1.410 . S
C183 C191 1.503 1_546 S
C184 C183 1.410 . S
C184 C185 1.392 . S
C184 C187 1.511 . S
C185 C181 1.376 . S
C185 C184 1.392 . S
C185 H197 0.929 . S
C186 C182 1.531 . S
C186 H198 0.960 1_545 S
C186 H199 0.962 1_556 S
C186 H200 0.960 . S
C187 C184 1.511 . S
C187 H201 0.961 . S
C187 H202 0.961 1_545 S
C187 H203 0.950 1_545 S
C188 C189 1.370 . S
C188 C190 1.363 . S
C188 H204 0.931 . S
C189 C188 1.370 . S
C189 C193 1.408 1_554 S
C190 C188 1.363 . S
C190 C191 1.370 . S
C190 C194 1.524 1_565 S
C191 C183 1.503 1_564 S
C191 C190 1.370 . S
C191 C192 1.403 1_554 S
C192 C191 1.403 1_556 S
C192 C193 1.404 . S
C192 C195 1.539 . S
C193 C189 1.408 1_556 S
C193 C192 1.404 . S
C193 H205 0.930 . S
C194 C190 1.524 1_545 S
C194 H206 0.956 . S
C194 H207 0.961 . S
C194 H208 0.961 1_545 S
C195 C192 1.539 . S
C195 H209 0.958 . S
C195 H210 0.961 . S
C195 H211 0.960 . S
H196 C180 0.931 . S
H197 C185 0.929 . S
H198 C186 0.960 1_565 S
H199 C186 0.962 1_554 S
H200 C186 0.960 . S
H201 C187 0.961 . S
H202 C187 0.961 1_565 S
H203 C187 0.950 1_565 S
H204 C188 0.931 . S
H205 C193 0.930 . S
H206 C194 0.956 . S
H207 C194 0.961 . S
H208 C194 0.961 1_565 S
H209 C195 0.958 . S
H210 C195 0.961 . S
H211 C195 0.960 . S
C212 C213 1.391 . S
C212 C214 1.394 . S
C212 H228 0.931 . S
C213 C212 1.391 . S
C213 C217 1.376 . S
C214 C212 1.394 . S
C214 C215 1.369 . S
C214 C218 1.531 . S
C215 C214 1.369 . S
C215 C216 1.410 . S
C215 C223 1.503 . S
C216 C215 1.410 . S
C216 C217 1.392 . S
C216 C219 1.511 . S
C217 C213 1.376 . S
C217 C216 1.392 . S
C217 H229 0.929 . S
C218 C214 1.531 . S
C218 H230 0.960 . S
C218 H231 0.962 . S
C218 H232 0.960 . S
C219 C216 1.511 . S
C219 H233 0.961 . S
C219 H234 0.961 . S
C219 H235 0.961 . S
C220 C221 1.370 . S
C220 C222 1.363 . S
C220 H236 0.931 . S
C221 C220 1.370 . S
C221 C225 1.408 . S
C222 C220 1.363 . S
C222 C223 1.370 . S
C222 C226 1.524 . S
C223 C215 1.503 . S
C223 C222 1.370 . S
C223 C224 1.403 . S
C224 C223 1.403 . S
C224 C225 1.404 . S
C224 C227 1.539 . S
C225 C221 1.408 . S
C225 C224 1.404 . S
C225 H237 0.930 . S
C226 C222 1.524 . S
C226 H238 0.956 . S
C226 H239 0.961 . S
C226 H240 0.961 . S
C227 C224 1.539 . S
C227 H241 0.958 . S
C227 H242 0.961 . S
C227 H243 0.960 . S
H228 C212 0.931 . S
H229 C217 0.929 . S
H230 C218 0.960 . S
H231 C218 0.962 . S
H232 C218 0.960 . S
H233 C219 0.961 . S
H234 C219 0.961 . S
H235 C219 0.961 . S
H236 C220 0.931 . S
H237 C225 0.930 . S
H238 C226 0.956 . S
H239 C226 0.961 . S
H240 C226 0.961 . S
H241 C227 0.958 . S
H242 C227 0.961 . S
H243 C227 0.960 . S
C244 C245 1.391 . S
C244 C246 1.394 . S
C244 H260 0.931 . S
C245 C244 1.391 . S
C245 C249 1.376 . S
C246 C244 1.394 . S
C246 C247 1.369 . S
C246 C250 1.531 1_455 S
C247 C246 1.369 . S
C247 C248 1.410 1_554 S
C247 C255 1.503 1_455 S
C248 C247 1.410 1_556 S
C248 C249 1.392 1_556 S
C248 C251 1.511 . S
C249 C245 1.376 . S
C249 C248 1.392 1_554 S
C249 H261 0.929 1_554 S
C250 C246 1.531 1_655 S
C250 H262 0.960 . S
C250 H263 0.962 . S
C250 H264 0.960 1_655 S
C251 C248 1.511 . S
C251 H265 0.961 . S
C251 H266 0.961 . S
C251 H267 0.961 . S
C252 C253 1.370 . S
C252 C254 1.363 . S
C252 H268 0.931 . S
C253 C252 1.370 . S
C253 C257 1.408 . S
C254 C252 1.363 . S
C254 C255 1.370 1_556 S
C254 C258 1.524 . S
C255 C247 1.503 1_655 S
C255 C254 1.370 1_554 S
C255 C256 1.403 . S
C256 C255 1.403 . S
C256 C257 1.404 1_554 S
C256 C259 1.539 . S
C257 C253 1.408 . S
C257 C256 1.404 1_556 S
C257 H269 0.930 . S
C258 C254 1.524 . S
C258 H270 0.956 1_556 S
C258 H271 0.961 1_655 S
C258 H272 0.961 . S
C259 C256 1.539 . S
C259 H273 0.958 . S
C259 H274 0.954 1_554 S
C259 H275 0.960 . S
H260 C244 0.931 . S
H261 C249 0.929 1_556 S
H262 C250 0.960 . S
H263 C250 0.962 . S
H264 C250 0.960 1_455 S
H265 C251 0.961 . S
H266 C251 0.961 . S
H267 C251 0.961 . S
H268 C252 0.931 . S
H269 C257 0.930 . S
H270 C258 0.956 1_554 S
H271 C258 0.961 1_455 S
H272 C258 0.961 . S
H273 C259 0.958 . S
H274 C259 0.954 1_556 S
H275 C259 0.960 . S
C276 C277 1.391 . S
C276 C278 1.394 . S
C276 H292 0.931 . S
C277 C276 1.391 . S
C277 C281 1.376 . S
C278 C276 1.394 . S
C278 C279 1.369 . S
C278 C282 1.531 . S
C279 C278 1.369 . S
C279 C280 1.410 . S
C279 C287 1.503 1_545 S
C280 C279 1.410 . S
C280 C281 1.392 . S
C280 C283 1.511 . S
C281 C277 1.376 . S
C281 C280 1.392 . S
C281 H293 0.929 . S
C282 C278 1.531 . S
C282 H294 0.960 1_545 S
C282 H295 0.962 1_545 S
C282 H296 0.960 . S
C283 C280 1.511 . S
C283 H297 0.961 . S
C283 H298 0.961 . S
C283 H299 0.961 . S
C284 C285 1.370 . S
C284 C286 1.363 . S
C284 H300 0.931 . S
C285 C284 1.370 . S
C285 C289 1.408 . S
C286 C284 1.363 . S
C286 C287 1.370 . S
C286 C290 1.524 . S
C287 C279 1.503 1_565 S
C287 C286 1.370 . S
C287 C288 1.403 . S
C288 C287 1.403 . S
C288 C289 1.404 . S
C288 C291 1.539 1_565 S
C289 C285 1.408 . S
C289 C288 1.404 . S
C289 H301 0.930 . S
C290 C286 1.524 . S
C290 H302 0.956 . S
C290 H303 0.961 . S
C290 H304 0.961 . S
C291 C288 1.539 1_545 S
C291 H305 0.958 . S
C291 H306 0.959 1_545 S
C291 H307 0.960 . S
H292 C276 0.931 . S
H293 C281 0.929 . S
H294 C282 0.960 1_565 S
H295 C282 0.962 1_565 S
H296 C282 0.960 . S
H297 C283 0.961 . S
H298 C283 0.961 . S
H299 C283 0.961 . S
H300 C284 0.931 . S
H301 C289 0.930 . S
H302 C290 0.956 . S
H303 C290 0.961 . S
H304 C290 0.961 . S
H305 C291 0.958 . S
H306 C291 0.959 1_565 S
H307 C291 0.960 . S
C53 C5 1.509 . S
C61 C31 1.502 . S
C85 C18 1.502 . S
C93 C44 1.505 . S
C117 C0 1.531 . S
C125 C47 1.523 . S
C149 C36 1.437 . S
C157 C13 1.421 . S
C181 C49 1.406 . S
C189 C10 1.396 . S
C213 C23 1.437 . S
C221 C26 1.427 . S
C245 C8 1.504 . S
C253 C39 1.527 . S
C277 C21 1.574 . S
C285 C34 1.556 . S
