# Generated by pormake.
# Topology ulh, (4)-cn, num edge types: 1
# Building blocks:
#     Node 0, Type 0, BuildingBlock: QUQFOY_clean_sbu_1, # of connection points: 4
#     Node 1, Type 0, BuildingBlock: QUQFOY_clean_sbu_1, # of connection points: 4
#     Node 2, Type 0, BuildingBlock: QUQFOY_clean_sbu_1, # of connection points: 4
#     Node 3, Type 0, BuildingBlock: QUQFOY_clean_sbu_1, # of connection points: 4
#     Node 4, Type 0, BuildingBlock: QUQFOY_clean_sbu_1, # of connection points: 4
#     Node 5, Type 0, BuildingBlock: QUQFOY_clean_sbu_1, # of connection points: 4
#     Node 6, Type 0, BuildingBlock: QUQFOY_clean_sbu_1, # of connection points: 4
#     Node 7, Type 0, BuildingBlock: QUQFOY_clean_sbu_1, # of connection points: 4
#     Node 8, Type 0, BuildingBlock: QUQFOY_clean_sbu_1, # of connection points: 4
#     Node 9, Type 0, BuildingBlock: QUQFOY_clean_sbu_1, # of connection points: 4
#     Node 10, Type 0, BuildingBlock: QUQFOY_clean_sbu_1, # of connection points: 4
#     Node 11, Type 0, BuildingBlock: QUQFOY_clean_sbu_1, # of connection points: 4
#     Node 12, Type 0, BuildingBlock: QUQFOY_clean_sbu_1, # of connection points: 4
#     Node 13, Type 0, BuildingBlock: QUQFOY_clean_sbu_1, # of connection points: 4
#     Node 14, Type 0, BuildingBlock: QUQFOY_clean_sbu_1, # of connection points: 4
#     Node 15, Type 0, BuildingBlock: QUQFOY_clean_sbu_1, # of connection points: 4
#     Node 16, Type 0, BuildingBlock: QUQFOY_clean_sbu_1, # of connection points: 4
#     Node 17, Type 0, BuildingBlock: QUQFOY_clean_sbu_1, # of connection points: 4
#     Node 18, Type 0, BuildingBlock: QUQFOY_clean_sbu_1, # of connection points: 4
#     Node 19, Type 0, BuildingBlock: QUQFOY_clean_sbu_1, # of connection points: 4
#     Node 20, Type 0, BuildingBlock: QUQFOY_clean_sbu_1, # of connection points: 4
#     Node 21, Type 0, BuildingBlock: QUQFOY_clean_sbu_1, # of connection points: 4
#     Node 22, Type 0, BuildingBlock: QUQFOY_clean_sbu_1, # of connection points: 4
#     Node 23, Type 0, BuildingBlock: QUQFOY_clean_sbu_1, # of connection points: 4
#     Node 24, Type 0, BuildingBlock: QUQFOY_clean_sbu_1, # of connection points: 4
#     Node 25, Type 0, BuildingBlock: QUQFOY_clean_sbu_1, # of connection points: 4
#     Node 26, Type 0, BuildingBlock: QUQFOY_clean_sbu_1, # of connection points: 4
#     Node 27, Type 0, BuildingBlock: QUQFOY_clean_sbu_1, # of connection points: 4
#     Node 28, Type 0, BuildingBlock: QUQFOY_clean_sbu_1, # of connection points: 4
#     Node 29, Type 0, BuildingBlock: QUQFOY_clean_sbu_1, # of connection points: 4
#     Node 30, Type 0, BuildingBlock: QUQFOY_clean_sbu_1, # of connection points: 4
#     Node 31, Type 0, BuildingBlock: QUQFOY_clean_sbu_1, # of connection points: 4
#     Node 32, Type 0, BuildingBlock: QUQFOY_clean_sbu_1, # of connection points: 4
#     Node 33, Type 0, BuildingBlock: QUQFOY_clean_sbu_1, # of connection points: 4
#     Node 34, Type 0, BuildingBlock: QUQFOY_clean_sbu_1, # of connection points: 4
#     Node 35, Type 0, BuildingBlock: QUQFOY_clean_sbu_1, # of connection points: 4
#     Node 36, Type 0, BuildingBlock: QUQFOY_clean_sbu_1, # of connection points: 4
#     Node 37, Type 0, BuildingBlock: QUQFOY_clean_sbu_1, # of connection points: 4
#     Node 38, Type 0, BuildingBlock: QUQFOY_clean_sbu_1, # of connection points: 4
#     Node 39, Type 0, BuildingBlock: QUQFOY_clean_sbu_1, # of connection points: 4
#     Node 40, Type 0, BuildingBlock: QUQFOY_clean_sbu_1, # of connection points: 4
#     Node 41, Type 0, BuildingBlock: QUQFOY_clean_sbu_1, # of connection points: 4
#     Node 42, Type 0, BuildingBlock: QUQFOY_clean_sbu_1, # of connection points: 4
#     Node 43, Type 0, BuildingBlock: QUQFOY_clean_sbu_1, # of connection points: 4
#     Node 44, Type 0, BuildingBlock: QUQFOY_clean_sbu_1, # of connection points: 4
#     Node 45, Type 0, BuildingBlock: QUQFOY_clean_sbu_1, # of connection points: 4
#     Node 46, Type 0, BuildingBlock: QUQFOY_clean_sbu_1, # of connection points: 4
#     Node 47, Type 0, BuildingBlock: QUQFOY_clean_sbu_1, # of connection points: 4
#     Node 48, Type 0, BuildingBlock: QUQFOY_clean_sbu_1, # of connection points: 4
#     Node 49, Type 0, BuildingBlock: QUQFOY_clean_sbu_1, # of connection points: 4
#     Node 50, Type 0, BuildingBlock: QUQFOY_clean_sbu_1, # of connection points: 4
#     Node 51, Type 0, BuildingBlock: QUQFOY_clean_sbu_1, # of connection points: 4
#     Node 52, Type 0, BuildingBlock: QUQFOY_clean_sbu_1, # of connection points: 4
#     Node 53, Type 0, BuildingBlock: QUQFOY_clean_sbu_1, # of connection points: 4
#     Node 54, Type 0, BuildingBlock: QUQFOY_clean_sbu_1, # of connection points: 4
#     Node 55, Type 0, BuildingBlock: QUQFOY_clean_sbu_1, # of connection points: 4
#     Node 56, Type 0, BuildingBlock: QUQFOY_clean_sbu_1, # of connection points: 4
#     Node 57, Type 0, BuildingBlock: QUQFOY_clean_sbu_1, # of connection points: 4
#     Node 58, Type 0, BuildingBlock: QUQFOY_clean_sbu_1, # of connection points: 4
#     Node 59, Type 0, BuildingBlock: QUQFOY_clean_sbu_1, # of connection points: 4
#     Node 60, Type 0, BuildingBlock: QUQFOY_clean_sbu_1, # of connection points: 4
#     Node 61, Type 0, BuildingBlock: QUQFOY_clean_sbu_1, # of connection points: 4
#     Node 62, Type 0, BuildingBlock: QUQFOY_clean_sbu_1, # of connection points: 4
#     Node 63, Type 0, BuildingBlock: QUQFOY_clean_sbu_1, # of connection points: 4
#     Node 64, Type 0, BuildingBlock: QUQFOY_clean_sbu_1, # of connection points: 4
#     Node 65, Type 0, BuildingBlock: QUQFOY_clean_sbu_1, # of connection points: 4
#     Node 66, Type 0, BuildingBlock: QUQFOY_clean_sbu_1, # of connection points: 4
#     Node 67, Type 0, BuildingBlock: QUQFOY_clean_sbu_1, # of connection points: 4
#     Node 68, Type 0, BuildingBlock: QUQFOY_clean_sbu_1, # of connection points: 4
#     Node 69, Type 0, BuildingBlock: QUQFOY_clean_sbu_1, # of connection points: 4
#     Node 70, Type 0, BuildingBlock: QUQFOY_clean_sbu_1, # of connection points: 4
#     Node 71, Type 0, BuildingBlock: QUQFOY_clean_sbu_1, # of connection points: 4
#     Node 72, Type 0, BuildingBlock: QUQFOY_clean_sbu_1, # of connection points: 4
#     Node 73, Type 0, BuildingBlock: QUQFOY_clean_sbu_1, # of connection points: 4
#     Node 74, Type 0, BuildingBlock: QUQFOY_clean_sbu_1, # of connection points: 4
#     Node 75, Type 0, BuildingBlock: QUQFOY_clean_sbu_1, # of connection points: 4
#     Node 76, Type 0, BuildingBlock: QUQFOY_clean_sbu_1, # of connection points: 4
#     Node 77, Type 0, BuildingBlock: QUQFOY_clean_sbu_1, # of connection points: 4
#     Node 78, Type 0, BuildingBlock: QUQFOY_clean_sbu_1, # of connection points: 4
#     Node 79, Type 0, BuildingBlock: QUQFOY_clean_sbu_1, # of connection points: 4
#     Node 80, Type 0, BuildingBlock: QUQFOY_clean_sbu_1, # of connection points: 4
#     Node 81, Type 0, BuildingBlock: QUQFOY_clean_sbu_1, # of connection points: 4
#     Node 82, Type 0, BuildingBlock: QUQFOY_clean_sbu_1, # of connection points: 4
#     Node 83, Type 0, BuildingBlock: QUQFOY_clean_sbu_1, # of connection points: 4
#     Node 84, Type 0, BuildingBlock: QUQFOY_clean_sbu_1, # of connection points: 4
#     Node 85, Type 0, BuildingBlock: QUQFOY_clean_sbu_1, # of connection points: 4
#     Node 86, Type 0, BuildingBlock: QUQFOY_clean_sbu_1, # of connection points: 4
#     Node 87, Type 0, BuildingBlock: QUQFOY_clean_sbu_1, # of connection points: 4
#     Node 88, Type 0, BuildingBlock: QUQFOY_clean_sbu_1, # of connection points: 4
#     Node 89, Type 0, BuildingBlock: QUQFOY_clean_sbu_1, # of connection points: 4
#     Node 90, Type 0, BuildingBlock: QUQFOY_clean_sbu_1, # of connection points: 4
#     Node 91, Type 0, BuildingBlock: QUQFOY_clean_sbu_1, # of connection points: 4
#     Node 92, Type 0, BuildingBlock: QUQFOY_clean_sbu_1, # of connection points: 4
#     Node 93, Type 0, BuildingBlock: QUQFOY_clean_sbu_1, # of connection points: 4
#     Node 94, Type 0, BuildingBlock: QUQFOY_clean_sbu_1, # of connection points: 4
#     Node 95, Type 0, BuildingBlock: QUQFOY_clean_sbu_1, # of connection points: 4
#     Edge 96, Type (0, 0), BuildingBlock: AJUNOK_clean_linker_0, # of connection points: 2
#     Edge 97, Type (0, 0), BuildingBlock: AJUNOK_clean_linker_0, # of connection points: 2
#     Edge 98, Type (0, 0), BuildingBlock: AJUNOK_clean_linker_0, # of connection points: 2
#     Edge 99, Type (0, 0), BuildingBlock: AJUNOK_clean_linker_0, # of connection points: 2
#     Edge 100, Type (0, 0), BuildingBlock: AJUNOK_clean_linker_0, # of connection points: 2
#     Edge 101, Type (0, 0), BuildingBlock: AJUNOK_clean_linker_0, # of connection points: 2
#     Edge 102, Type (0, 0), BuildingBlock: AJUNOK_clean_linker_0, # of connection points: 2
#     Edge 103, Type (0, 0), BuildingBlock: AJUNOK_clean_linker_0, # of connection points: 2
#     Edge 104, Type (0, 0), BuildingBlock: AJUNOK_clean_linker_0, # of connection points: 2
#     Edge 105, Type (0, 0), BuildingBlock: AJUNOK_clean_linker_0, # of connection points: 2
#     Edge 106, Type (0, 0), BuildingBlock: AJUNOK_clean_linker_0, # of connection points: 2
#     Edge 107, Type (0, 0), BuildingBlock: AJUNOK_clean_linker_0, # of connection points: 2
#     Edge 108, Type (0, 0), BuildingBlock: AJUNOK_clean_linker_0, # of connection points: 2
#     Edge 109, Type (0, 0), BuildingBlock: AJUNOK_clean_linker_0, # of connection points: 2
#     Edge 110, Type (0, 0), BuildingBlock: AJUNOK_clean_linker_0, # of connection points: 2
#     Edge 111, Type (0, 0), BuildingBlock: AJUNOK_clean_linker_0, # of connection points: 2
#     Edge 112, Type (0, 0), BuildingBlock: AJUNOK_clean_linker_0, # of connection points: 2
#     Edge 113, Type (0, 0), BuildingBlock: AJUNOK_clean_linker_0, # of connection points: 2
#     Edge 114, Type (0, 0), BuildingBlock: AJUNOK_clean_linker_0, # of connection points: 2
#     Edge 115, Type (0, 0), BuildingBlock: AJUNOK_clean_linker_0, # of connection points: 2
#     Edge 116, Type (0, 0), BuildingBlock: AJUNOK_clean_linker_0, # of connection points: 2
#     Edge 117, Type (0, 0), BuildingBlock: AJUNOK_clean_linker_0, # of connection points: 2
#     Edge 118, Type (0, 0), BuildingBlock: AJUNOK_clean_linker_0, # of connection points: 2
#     Edge 119, Type (0, 0), BuildingBlock: AJUNOK_clean_linker_0, # of connection points: 2
#     Edge 120, Type (0, 0), BuildingBlock: AJUNOK_clean_linker_0, # of connection points: 2
#     Edge 121, Type (0, 0), BuildingBlock: AJUNOK_clean_linker_0, # of connection points: 2
#     Edge 122, Type (0, 0), BuildingBlock: AJUNOK_clean_linker_0, # of connection points: 2
#     Edge 123, Type (0, 0), BuildingBlock: AJUNOK_clean_linker_0, # of connection points: 2
#     Edge 124, Type (0, 0), BuildingBlock: AJUNOK_clean_linker_0, # of connection points: 2
#     Edge 125, Type (0, 0), BuildingBlock: AJUNOK_clean_linker_0, # of connection points: 2
#     Edge 126, Type (0, 0), BuildingBlock: AJUNOK_clean_linker_0, # of connection points: 2
#     Edge 127, Type (0, 0), BuildingBlock: AJUNOK_clean_linker_0, # of connection points: 2
#     Edge 128, Type (0, 0), BuildingBlock: AJUNOK_clean_linker_0, # of connection points: 2
#     Edge 129, Type (0, 0), BuildingBlock: AJUNOK_clean_linker_0, # of connection points: 2
#     Edge 130, Type (0, 0), BuildingBlock: AJUNOK_clean_linker_0, # of connection points: 2
#     Edge 131, Type (0, 0), BuildingBlock: AJUNOK_clean_linker_0, # of connection points: 2
#     Edge 132, Type (0, 0), BuildingBlock: AJUNOK_clean_linker_0, # of connection points: 2
#     Edge 133, Type (0, 0), BuildingBlock: AJUNOK_clean_linker_0, # of connection points: 2
#     Edge 134, Type (0, 0), BuildingBlock: AJUNOK_clean_linker_0, # of connection points: 2
#     Edge 135, Type (0, 0), BuildingBlock: AJUNOK_clean_linker_0, # of connection points: 2
#     Edge 136, Type (0, 0), BuildingBlock: AJUNOK_clean_linker_0, # of connection points: 2
#     Edge 137, Type (0, 0), BuildingBlock: AJUNOK_clean_linker_0, # of connection points: 2
#     Edge 138, Type (0, 0), BuildingBlock: AJUNOK_clean_linker_0, # of connection points: 2
#     Edge 139, Type (0, 0), BuildingBlock: AJUNOK_clean_linker_0, # of connection points: 2
#     Edge 140, Type (0, 0), BuildingBlock: AJUNOK_clean_linker_0, # of connection points: 2
#     Edge 141, Type (0, 0), BuildingBlock: AJUNOK_clean_linker_0, # of connection points: 2
#     Edge 142, Type (0, 0), BuildingBlock: AJUNOK_clean_linker_0, # of connection points: 2
#     Edge 143, Type (0, 0), BuildingBlock: AJUNOK_clean_linker_0, # of connection points: 2
#     Edge 144, Type (0, 0), BuildingBlock: AJUNOK_clean_linker_0, # of connection points: 2
#     Edge 145, Type (0, 0), BuildingBlock: AJUNOK_clean_linker_0, # of connection points: 2
#     Edge 146, Type (0, 0), BuildingBlock: AJUNOK_clean_linker_0, # of connection points: 2
#     Edge 147, Type (0, 0), BuildingBlock: AJUNOK_clean_linker_0, # of connection points: 2
#     Edge 148, Type (0, 0), BuildingBlock: AJUNOK_clean_linker_0, # of connection points: 2
#     Edge 149, Type (0, 0), BuildingBlock: AJUNOK_clean_linker_0, # of connection points: 2
#     Edge 150, Type (0, 0), BuildingBlock: AJUNOK_clean_linker_0, # of connection points: 2
#     Edge 151, Type (0, 0), BuildingBlock: AJUNOK_clean_linker_0, # of connection points: 2
#     Edge 152, Type (0, 0), BuildingBlock: AJUNOK_clean_linker_0, # of connection points: 2
#     Edge 153, Type (0, 0), BuildingBlock: AJUNOK_clean_linker_0, # of connection points: 2
#     Edge 154, Type (0, 0), BuildingBlock: AJUNOK_clean_linker_0, # of connection points: 2
#     Edge 155, Type (0, 0), BuildingBlock: AJUNOK_clean_linker_0, # of connection points: 2
#     Edge 156, Type (0, 0), BuildingBlock: AJUNOK_clean_linker_0, # of connection points: 2
#     Edge 157, Type (0, 0), BuildingBlock: AJUNOK_clean_linker_0, # of connection points: 2
#     Edge 158, Type (0, 0), BuildingBlock: AJUNOK_clean_linker_0, # of connection points: 2
#     Edge 159, Type (0, 0), BuildingBlock: AJUNOK_clean_linker_0, # of connection points: 2
#     Edge 160, Type (0, 0), BuildingBlock: AJUNOK_clean_linker_0, # of connection points: 2
#     Edge 161, Type (0, 0), BuildingBlock: AJUNOK_clean_linker_0, # of connection points: 2
#     Edge 162, Type (0, 0), BuildingBlock: AJUNOK_clean_linker_0, # of connection points: 2
#     Edge 163, Type (0, 0), BuildingBlock: AJUNOK_clean_linker_0, # of connection points: 2
#     Edge 164, Type (0, 0), BuildingBlock: AJUNOK_clean_linker_0, # of connection points: 2
#     Edge 165, Type (0, 0), BuildingBlock: AJUNOK_clean_linker_0, # of connection points: 2
#     Edge 166, Type (0, 0), BuildingBlock: AJUNOK_clean_linker_0, # of connection points: 2
#     Edge 167, Type (0, 0), BuildingBlock: AJUNOK_clean_linker_0, # of connection points: 2
#     Edge 168, Type (0, 0), BuildingBlock: AJUNOK_clean_linker_0, # of connection points: 2
#     Edge 169, Type (0, 0), BuildingBlock: AJUNOK_clean_linker_0, # of connection points: 2
#     Edge 170, Type (0, 0), BuildingBlock: AJUNOK_clean_linker_0, # of connection points: 2
#     Edge 171, Type (0, 0), BuildingBlock: AJUNOK_clean_linker_0, # of connection points: 2
#     Edge 172, Type (0, 0), BuildingBlock: AJUNOK_clean_linker_0, # of connection points: 2
#     Edge 173, Type (0, 0), BuildingBlock: AJUNOK_clean_linker_0, # of connection points: 2
#     Edge 174, Type (0, 0), BuildingBlock: AJUNOK_clean_linker_0, # of connection points: 2
#     Edge 175, Type (0, 0), BuildingBlock: AJUNOK_clean_linker_0, # of connection points: 2
#     Edge 176, Type (0, 0), BuildingBlock: AJUNOK_clean_linker_0, # of connection points: 2
#     Edge 177, Type (0, 0), BuildingBlock: AJUNOK_clean_linker_0, # of connection points: 2
#     Edge 178, Type (0, 0), BuildingBlock: AJUNOK_clean_linker_0, # of connection points: 2
#     Edge 179, Type (0, 0), BuildingBlock: AJUNOK_clean_linker_0, # of connection points: 2
#     Edge 180, Type (0, 0), BuildingBlock: AJUNOK_clean_linker_0, # of connection points: 2
#     Edge 181, Type (0, 0), BuildingBlock: AJUNOK_clean_linker_0, # of connection points: 2
#     Edge 182, Type (0, 0), BuildingBlock: AJUNOK_clean_linker_0, # of connection points: 2
#     Edge 183, Type (0, 0), BuildingBlock: AJUNOK_clean_linker_0, # of connection points: 2
#     Edge 184, Type (0, 0), BuildingBlock: AJUNOK_clean_linker_0, # of connection points: 2
#     Edge 185, Type (0, 0), BuildingBlock: AJUNOK_clean_linker_0, # of connection points: 2
#     Edge 186, Type (0, 0), BuildingBlock: AJUNOK_clean_linker_0, # of connection points: 2
#     Edge 187, Type (0, 0), BuildingBlock: AJUNOK_clean_linker_0, # of connection points: 2
#     Edge 188, Type (0, 0), BuildingBlock: AJUNOK_clean_linker_0, # of connection points: 2
#     Edge 189, Type (0, 0), BuildingBlock: AJUNOK_clean_linker_0, # of connection points: 2
#     Edge 190, Type (0, 0), BuildingBlock: AJUNOK_clean_linker_0, # of connection points: 2
#     Edge 191, Type (0, 0), BuildingBlock: AJUNOK_clean_linker_0, # of connection points: 2
#     Edge 192, Type (0, 0), BuildingBlock: AJUNOK_clean_linker_0, # of connection points: 2
#     Edge 193, Type (0, 0), BuildingBlock: AJUNOK_clean_linker_0, # of connection points: 2
#     Edge 194, Type (0, 0), BuildingBlock: AJUNOK_clean_linker_0, # of connection points: 2
#     Edge 195, Type (0, 0), BuildingBlock: AJUNOK_clean_linker_0, # of connection points: 2
#     Edge 196, Type (0, 0), BuildingBlock: AJUNOK_clean_linker_0, # of connection points: 2
#     Edge 197, Type (0, 0), BuildingBlock: AJUNOK_clean_linker_0, # of connection points: 2
#     Edge 198, Type (0, 0), BuildingBlock: AJUNOK_clean_linker_0, # of connection points: 2
#     Edge 199, Type (0, 0), BuildingBlock: AJUNOK_clean_linker_0, # of connection points: 2
#     Edge 200, Type (0, 0), BuildingBlock: AJUNOK_clean_linker_0, # of connection points: 2
#     Edge 201, Type (0, 0), BuildingBlock: AJUNOK_clean_linker_0, # of connection points: 2
#     Edge 202, Type (0, 0), BuildingBlock: AJUNOK_clean_linker_0, # of connection points: 2
#     Edge 203, Type (0, 0), BuildingBlock: AJUNOK_clean_linker_0, # of connection points: 2
#     Edge 204, Type (0, 0), BuildingBlock: AJUNOK_clean_linker_0, # of connection points: 2
#     Edge 205, Type (0, 0), BuildingBlock: AJUNOK_clean_linker_0, # of connection points: 2
#     Edge 206, Type (0, 0), BuildingBlock: AJUNOK_clean_linker_0, # of connection points: 2
#     Edge 207, Type (0, 0), BuildingBlock: AJUNOK_clean_linker_0, # of connection points: 2
#     Edge 208, Type (0, 0), BuildingBlock: AJUNOK_clean_linker_0, # of connection points: 2
#     Edge 209, Type (0, 0), BuildingBlock: AJUNOK_clean_linker_0, # of connection points: 2
#     Edge 210, Type (0, 0), BuildingBlock: AJUNOK_clean_linker_0, # of connection points: 2
#     Edge 211, Type (0, 0), BuildingBlock: AJUNOK_clean_linker_0, # of connection points: 2
#     Edge 212, Type (0, 0), BuildingBlock: AJUNOK_clean_linker_0, # of connection points: 2
#     Edge 213, Type (0, 0), BuildingBlock: AJUNOK_clean_linker_0, # of connection points: 2
#     Edge 214, Type (0, 0), BuildingBlock: AJUNOK_clean_linker_0, # of connection points: 2
#     Edge 215, Type (0, 0), BuildingBlock: AJUNOK_clean_linker_0, # of connection points: 2
#     Edge 216, Type (0, 0), BuildingBlock: AJUNOK_clean_linker_0, # of connection points: 2
#     Edge 217, Type (0, 0), BuildingBlock: AJUNOK_clean_linker_0, # of connection points: 2
#     Edge 218, Type (0, 0), BuildingBlock: AJUNOK_clean_linker_0, # of connection points: 2
#     Edge 219, Type (0, 0), BuildingBlock: AJUNOK_clean_linker_0, # of connection points: 2
#     Edge 220, Type (0, 0), BuildingBlock: AJUNOK_clean_linker_0, # of connection points: 2
#     Edge 221, Type (0, 0), BuildingBlock: AJUNOK_clean_linker_0, # of connection points: 2
#     Edge 222, Type (0, 0), BuildingBlock: AJUNOK_clean_linker_0, # of connection points: 2
#     Edge 223, Type (0, 0), BuildingBlock: AJUNOK_clean_linker_0, # of connection points: 2
#     Edge 224, Type (0, 0), BuildingBlock: AJUNOK_clean_linker_0, # of connection points: 2
#     Edge 225, Type (0, 0), BuildingBlock: AJUNOK_clean_linker_0, # of connection points: 2
#     Edge 226, Type (0, 0), BuildingBlock: AJUNOK_clean_linker_0, # of connection points: 2
#     Edge 227, Type (0, 0), BuildingBlock: AJUNOK_clean_linker_0, # of connection points: 2
#     Edge 228, Type (0, 0), BuildingBlock: AJUNOK_clean_linker_0, # of connection points: 2
#     Edge 229, Type (0, 0), BuildingBlock: AJUNOK_clean_linker_0, # of connection points: 2
#     Edge 230, Type (0, 0), BuildingBlock: AJUNOK_clean_linker_0, # of connection points: 2
#     Edge 231, Type (0, 0), BuildingBlock: AJUNOK_clean_linker_0, # of connection points: 2
#     Edge 232, Type (0, 0), BuildingBlock: AJUNOK_clean_linker_0, # of connection points: 2
#     Edge 233, Type (0, 0), BuildingBlock: AJUNOK_clean_linker_0, # of connection points: 2
#     Edge 234, Type (0, 0), BuildingBlock: AJUNOK_clean_linker_0, # of connection points: 2
#     Edge 235, Type (0, 0), BuildingBlock: AJUNOK_clean_linker_0, # of connection points: 2
#     Edge 236, Type (0, 0), BuildingBlock: AJUNOK_clean_linker_0, # of connection points: 2
#     Edge 237, Type (0, 0), BuildingBlock: AJUNOK_clean_linker_0, # of connection points: 2
#     Edge 238, Type (0, 0), BuildingBlock: AJUNOK_clean_linker_0, # of connection points: 2
#     Edge 239, Type (0, 0), BuildingBlock: AJUNOK_clean_linker_0, # of connection points: 2
#     Edge 240, Type (0, 0), BuildingBlock: AJUNOK_clean_linker_0, # of connection points: 2
#     Edge 241, Type (0, 0), BuildingBlock: AJUNOK_clean_linker_0, # of connection points: 2
#     Edge 242, Type (0, 0), BuildingBlock: AJUNOK_clean_linker_0, # of connection points: 2
#     Edge 243, Type (0, 0), BuildingBlock: AJUNOK_clean_linker_0, # of connection points: 2
#     Edge 244, Type (0, 0), BuildingBlock: AJUNOK_clean_linker_0, # of connection points: 2
#     Edge 245, Type (0, 0), BuildingBlock: AJUNOK_clean_linker_0, # of connection points: 2
#     Edge 246, Type (0, 0), BuildingBlock: AJUNOK_clean_linker_0, # of connection points: 2
#     Edge 247, Type (0, 0), BuildingBlock: AJUNOK_clean_linker_0, # of connection points: 2
#     Edge 248, Type (0, 0), BuildingBlock: AJUNOK_clean_linker_0, # of connection points: 2
#     Edge 249, Type (0, 0), BuildingBlock: AJUNOK_clean_linker_0, # of connection points: 2
#     Edge 250, Type (0, 0), BuildingBlock: AJUNOK_clean_linker_0, # of connection points: 2
#     Edge 251, Type (0, 0), BuildingBlock: AJUNOK_clean_linker_0, # of connection points: 2
#     Edge 252, Type (0, 0), BuildingBlock: AJUNOK_clean_linker_0, # of connection points: 2
#     Edge 253, Type (0, 0), BuildingBlock: AJUNOK_clean_linker_0, # of connection points: 2
#     Edge 254, Type (0, 0), BuildingBlock: AJUNOK_clean_linker_0, # of connection points: 2
#     Edge 255, Type (0, 0), BuildingBlock: AJUNOK_clean_linker_0, # of connection points: 2
#     Edge 256, Type (0, 0), BuildingBlock: AJUNOK_clean_linker_0, # of connection points: 2
#     Edge 257, Type (0, 0), BuildingBlock: AJUNOK_clean_linker_0, # of connection points: 2
#     Edge 258, Type (0, 0), BuildingBlock: AJUNOK_clean_linker_0, # of connection points: 2
#     Edge 259, Type (0, 0), BuildingBlock: AJUNOK_clean_linker_0, # of connection points: 2
#     Edge 260, Type (0, 0), BuildingBlock: AJUNOK_clean_linker_0, # of connection points: 2
#     Edge 261, Type (0, 0), BuildingBlock: AJUNOK_clean_linker_0, # of connection points: 2
#     Edge 262, Type (0, 0), BuildingBlock: AJUNOK_clean_linker_0, # of connection points: 2
#     Edge 263, Type (0, 0), BuildingBlock: AJUNOK_clean_linker_0, # of connection points: 2
#     Edge 264, Type (0, 0), BuildingBlock: AJUNOK_clean_linker_0, # of connection points: 2
#     Edge 265, Type (0, 0), BuildingBlock: AJUNOK_clean_linker_0, # of connection points: 2
#     Edge 266, Type (0, 0), BuildingBlock: AJUNOK_clean_linker_0, # of connection points: 2
#     Edge 267, Type (0, 0), BuildingBlock: AJUNOK_clean_linker_0, # of connection points: 2
#     Edge 268, Type (0, 0), BuildingBlock: AJUNOK_clean_linker_0, # of connection points: 2
#     Edge 269, Type (0, 0), BuildingBlock: AJUNOK_clean_linker_0, # of connection points: 2
#     Edge 270, Type (0, 0), BuildingBlock: AJUNOK_clean_linker_0, # of connection points: 2
#     Edge 271, Type (0, 0), BuildingBlock: AJUNOK_clean_linker_0, # of connection points: 2
#     Edge 272, Type (0, 0), BuildingBlock: AJUNOK_clean_linker_0, # of connection points: 2
#     Edge 273, Type (0, 0), BuildingBlock: AJUNOK_clean_linker_0, # of connection points: 2
#     Edge 274, Type (0, 0), BuildingBlock: AJUNOK_clean_linker_0, # of connection points: 2
#     Edge 275, Type (0, 0), BuildingBlock: AJUNOK_clean_linker_0, # of connection points: 2
#     Edge 276, Type (0, 0), BuildingBlock: AJUNOK_clean_linker_0, # of connection points: 2
#     Edge 277, Type (0, 0), BuildingBlock: AJUNOK_clean_linker_0, # of connection points: 2
#     Edge 278, Type (0, 0), BuildingBlock: AJUNOK_clean_linker_0, # of connection points: 2
#     Edge 279, Type (0, 0), BuildingBlock: AJUNOK_clean_linker_0, # of connection points: 2
#     Edge 280, Type (0, 0), BuildingBlock: AJUNOK_clean_linker_0, # of connection points: 2
#     Edge 281, Type (0, 0), BuildingBlock: AJUNOK_clean_linker_0, # of connection points: 2
#     Edge 282, Type (0, 0), BuildingBlock: AJUNOK_clean_linker_0, # of connection points: 2
#     Edge 283, Type (0, 0), BuildingBlock: AJUNOK_clean_linker_0, # of connection points: 2
#     Edge 284, Type (0, 0), BuildingBlock: AJUNOK_clean_linker_0, # of connection points: 2
#     Edge 285, Type (0, 0), BuildingBlock: AJUNOK_clean_linker_0, # of connection points: 2
#     Edge 286, Type (0, 0), BuildingBlock: AJUNOK_clean_linker_0, # of connection points: 2
#     Edge 287, Type (0, 0), BuildingBlock: AJUNOK_clean_linker_0, # of connection points: 2
# Relax obj value: 0.180
# Max RMSD: 0.199
# Mean RMSD: 0.199
data_MOF--net-ulh--node1-QUQFOY_clean_sbu_1--edge1-AJUNOK_clean_linker_0
_symmetry_space_group_name_H-M    P1
_symmetry_Int_Tables_number       1
_symmetry_cell_setting            triclinic
loop_
_symmetry_equiv_pos_as_xyz
'x, y, z'
_cell_length_a     63.338405
_cell_length_b     63.290451
_cell_length_c     63.333224
_cell_angle_alpha  90.00395
_cell_angle_beta   89.993028
_cell_angle_gamma 90.023045
loop_
_atom_site_label
_atom_site_type_symbol
_atom_site_fract_x
_atom_site_fract_y
_atom_site_fract_z
_atom_type_partial_charge
O0 O 0.04662 0.32186 0.06542 0.0
Cd1 Cd 0.06308 0.31816 0.09324 0.0
Cd2 Cd 0.05241 0.35768 0.09819 0.0
O3 O 0.0304 0.35149 0.07433 0.0
O4 O 0.05874 0.28825 0.10476 0.0
O5 O 0.0437 0.31643 0.11864 0.0
C6 C 0.0454 0.29608 0.11814 0.0
C7 C 0.0513 0.37627 0.13048 0.0
C8 C 0.03361 0.33654 0.0611 0.0
C9 C 0.09601 0.35014 0.08299 0.0
O10 O 0.08044 0.36263 0.0839 0.0
O11 O 0.09415 0.33112 0.08974 0.0
O12 O 0.04625 0.38519 0.11285 0.0
O13 O 0.05496 0.35621 0.13017 0.0
O14 O 0.92179 0.32914 0.33376 0.0
Cd15 Cd 0.92667 0.30124 0.34837 0.0
Cd16 Cd 0.96595 0.31222 0.34431 0.0
O17 O 0.95263 0.34323 0.34176 0.0
O18 O 0.89917 0.29519 0.36303 0.0
O19 O 0.92806 0.30429 0.38029 0.0
C20 C 0.90802 0.30059 0.38059 0.0
C21 C 0.98855 0.29481 0.36891 0.0
C22 C 0.93394 0.345 0.33415 0.0
C23 C 0.94824 0.28263 0.31175 0.0
O24 O 0.96253 0.29607 0.31616 0.0
O25 O 0.93339 0.27898 0.32495 0.0
O26 O 0.99597 0.30844 0.35559 0.0
O27 O 0.96826 0.29258 0.36949 0.0
O28 O 0.98919 0.21496 0.56665 0.0
Cd29 Cd 0.97138 0.21904 0.59366 0.0
Cd30 Cd 0.98227 0.17954 0.5979 0.0
O31 O 1.00546 0.18538 0.57524 0.0
O32 O 0.97503 0.25001 0.60153 0.0
O33 O 0.98769 0.22397 0.62098 0.0
C34 C 0.98631 0.24404 0.61746 0.0
C35 C 0.98223 0.16089 0.63005 0.0
C36 C 1.00267 0.20068 0.56241 0.0
C37 C 0.93871 0.18758 0.58218 0.0
O38 O 0.95444 0.17525 0.58279 0.0
O39 O 0.94033 0.20646 0.58937 0.0
O40 O 0.98739 0.15189 0.6125 0.0
O41 O 0.97923 0.18107 0.62981 0.0
O42 O 0.11281 0.20686 0.83014 0.0
Cd43 Cd 0.10791 0.23445 0.84521 0.0
Cd44 Cd 0.06913 0.22292 0.84288 0.0
O45 O 0.08308 0.19209 0.84059 0.0
O46 O 0.13524 0.24035 0.86018 0.0
O47 O 0.10626 0.23047 0.87695 0.0
C48 C 0.12631 0.23416 0.87746 0.0
C49 C 0.04624 0.24004 0.86754 0.0
C50 C 0.10123 0.19065 0.83171 0.0
C51 C 0.08513 0.25264 0.80951 0.0
O52 O 0.07155 0.23863 0.81438 0.0
O53 O 0.10021 0.25685 0.82227 0.0
O54 O 0.03916 0.22592 0.85455 0.0
O55 O 0.06642 0.24313 0.86768 0.0
O56 O 0.04659 0.71471 0.96911 0.0
Cd57 Cd 0.06293 0.71702 0.94102 0.0
Cd58 Cd 0.05056 0.67823 0.93769 0.0
O59 O 0.02817 0.68632 0.96055 0.0
O60 O 0.05955 0.74676 0.92873 0.0
O61 O 0.04305 0.71884 0.91604 0.0
C62 C 0.04557 0.73911 0.91592 0.0
C63 C 0.04999 0.65927 0.90564 0.0
C64 C 0.03228 0.70129 0.97349 0.0
C65 C 0.09439 0.68407 0.95221 0.0
O66 O 0.07799 0.67267 0.95287 0.0
O67 O 0.09347 0.70254 0.94391 0.0
O68 O 0.04388 0.65078 0.92316 0.0
O69 O 0.05436 0.67919 0.90584 0.0
O70 O 0.60989 0.32863 0.20197 0.0
Cd71 Cd 0.60511 0.30103 0.18673 0.0
Cd72 Cd 0.56619 0.31232 0.19072 0.0
O73 O 0.57953 0.34329 0.19344 0.0
O74 O 0.63306 0.29555 0.17283 0.0
O75 O 0.60461 0.30446 0.15479 0.0
C76 C 0.62474 0.30123 0.1551 0.0
C77 C 0.54296 0.29588 0.16604 0.0
C78 C 0.59805 0.34472 0.20147 0.0
C79 C 0.58364 0.28198 0.22289 0.0
O80 O 0.5696 0.29578 0.21872 0.0
O81 O 0.59832 0.27825 0.20954 0.0
O82 O 0.53602 0.30929 0.17981 0.0
O83 O 0.56318 0.29313 0.16519 0.0
O84 O 0.98889 0.82194 0.46901 0.0
Cd85 Cd 0.97227 0.8188 0.44117 0.0
Cd86 Cd 0.98393 0.8576 0.43668 0.0
O87 O 1.00663 0.85048 0.45956 0.0
O88 O 0.97521 0.78864 0.43003 0.0
O89 O 0.99172 0.81585 0.41586 0.0
C90 C 0.98891 0.79562 0.41655 0.0
C91 C 0.98391 0.87576 0.40416 0.0
C92 C 1.00284 0.83586 0.47298 0.0
C93 C 0.94046 0.85149 0.45211 0.0
O94 O 0.95664 0.86323 0.45208 0.0
O95 O 0.94158 0.8328 0.44434 0.0
O96 O 0.99014 0.88475 0.42138 0.0
O97 O 0.97974 0.85581 0.4049 0.0
O98 O 0.42497 0.20421 0.70094 0.0
Cd99 Cd 0.42958 0.23218 0.68636 0.0
Cd100 Cd 0.46907 0.2217 0.69138 0.0
O101 O 0.45641 0.19052 0.69488 0.0
O102 O 0.40164 0.23785 0.67251 0.0
O103 O 0.4302 0.2296 0.65433 0.0
C104 C 0.41008 0.23281 0.65465 0.0
C105 C 0.49106 0.23938 0.66647 0.0
C106 C 0.43746 0.18864 0.70174 0.0
C107 C 0.4505 0.25155 0.72312 0.0
O108 O 0.46514 0.23842 0.71905 0.0
O109 O 0.43562 0.2546 0.7098 0.0
O110 O 0.49895 0.22625 0.68003 0.0
O111 O 0.47069 0.24081 0.66578 0.0
O112 O 0.0644 0.04664 0.32095 0.0
Cd113 Cd 0.09265 0.06273 0.31857 0.0
Cd114 Cd 0.09556 0.05046 0.3572 0.0
O115 O 0.07286 0.02792 0.34915 0.0
O116 O 0.1047 0.05926 0.28875 0.0
O117 O 0.11744 0.04261 0.31654 0.0
C118 C 0.11743 0.04514 0.29627 0.0
C119 C 0.12755 0.05065 0.37616 0.0
C120 C 0.05993 0.03223 0.33425 0.0
C121 C 0.08139 0.09427 0.3513 0.0
O122 O 0.0802 0.0778 0.36256 0.0
O123 O 0.09012 0.09332 0.33304 0.0
O124 O 0.11013 0.04429 0.38469 0.0
O125 O 0.12734 0.05457 0.35615 0.0
O126 O 0.23696 0.3161 0.56905 0.0
Cd127 Cd 0.22058 0.34416 0.56627 0.0
Cd128 Cd 0.2318 0.34743 0.60546 0.0
O129 O 0.25416 0.32425 0.59828 0.0
O130 O 0.22386 0.3555 0.53627 0.0
O131 O 0.24003 0.36955 0.56375 0.0
C132 C 0.23745 0.36897 0.54349 0.0
C133 C 0.23235 0.37898 0.62522 0.0
C134 C 0.25063 0.31149 0.58303 0.0
C135 C 0.18799 0.33309 0.59799 0.0
O136 O 0.2039 0.33273 0.61006 0.0
O137 O 0.18959 0.34103 0.57944 0.0
O138 O 0.23765 0.36108 0.63345 0.0
O139 O 0.22903 0.37945 0.6051 0.0
O140 O 0.96971 0.48937 0.82081 0.0
Cd141 Cd 0.94203 0.47262 0.81729 0.0
Cd142 Cd 0.93717 0.48355 0.85645 0.0
O143 O 0.96053 0.50603 0.85007 0.0
O144 O 0.93103 0.47591 0.78714 0.0
O145 O 0.91644 0.49173 0.81452 0.0
C146 C 0.91727 0.48925 0.79427 0.0
C147 C 0.90474 0.48418 0.87471 0.0
C148 C 0.97384 0.50272 0.83524 0.0
C149 C 0.95282 0.44008 0.84935 0.0
O150 O 0.95198 0.45581 0.86166 0.0
O151 O 0.94577 0.44166 0.83044 0.0
O152 O 0.92218 0.48968 0.88374 0.0
O153 O 0.90529 0.48032 0.8547 0.0
O154 O 0.79665 0.22094 0.06997 0.0
Cd155 Cd 0.81294 0.19285 0.06662 0.0
Cd156 Cd 0.80178 0.18876 0.10555 0.0
O157 O 0.77905 0.21156 0.0986 0.0
O158 O 0.80912 0.1811 0.03673 0.0
O159 O 0.79318 0.16774 0.06465 0.0
C160 C 0.79541 0.16797 0.04436 0.0
C161 C 0.80206 0.15644 0.12389 0.0
C162 C 0.78284 0.225 0.08401 0.0
C163 C 0.84525 0.2035 0.09892 0.0
O164 O 0.82917 0.2041 0.11076 0.0
O165 O 0.8438 0.19545 0.08038 0.0
O166 O 0.79586 0.1737 0.13283 0.0
O167 O 0.8059 0.15701 0.10388 0.0
O168 O 0.065 0.98854 0.71347 0.0
Cd169 Cd 0.09308 0.97221 0.71672 0.0
Cd170 Cd 0.09696 0.98325 0.67768 0.0
O171 O 0.07418 1.00601 0.68469 0.0
O172 O 0.1049 0.97613 0.74655 0.0
O173 O 0.11823 0.99193 0.71853 0.0
C174 C 0.11804 0.98978 0.73884 0.0
C175 C 0.12913 0.98296 0.65904 0.0
C176 C 0.06086 1.00231 0.69942 0.0
C177 C 0.08238 0.9397 0.68463 0.0
O178 O 0.0817 0.95573 0.67273 0.0
O179 O 0.09048 0.94124 0.70313 0.0
O180 O 0.11177 0.98899 0.65021 0.0
O181 O 0.12875 0.97933 0.67909 0.0
O182 O 0.2963 0.31563 0.96304 0.0
Cd183 Cd 0.31275 0.34359 0.96623 0.0
Cd184 Cd 0.30094 0.34817 0.92743 0.0
O185 O 0.27855 0.32495 0.93449 0.0
O186 O 0.30981 0.35462 0.99641 0.0
O187 O 0.29324 0.36885 0.96929 0.0
C188 C 0.29608 0.36811 0.9895 0.0
C189 C 0.30022 0.38063 0.90914 0.0
C190 C 0.28243 0.31154 0.94909 0.0
C191 C 0.34464 0.33314 0.93351 0.0
O192 O 0.32848 0.3332 0.92175 0.0
O193 O 0.34346 0.34068 0.95227 0.0
O194 O 0.29443 0.36321 0.90024 0.0
O195 O 0.30439 0.38007 0.92909 0.0
O196 O 0.96948 0.54595 0.21302 0.0
Cd197 Cd 0.94131 0.56207 0.21581 0.0
Cd198 Cd 0.93746 0.55001 0.17714 0.0
O199 O 0.96034 0.52752 0.18485 0.0
O200 O 0.92913 0.55843 0.24556 0.0
O201 O 0.91645 0.542 0.2176 0.0
C202 C 0.91634 0.54443 0.23787 0.0
C203 C 0.90517 0.5496 0.15864 0.0
C204 C 0.97369 0.53177 0.1994 0.0
C205 C 0.95214 0.59375 0.18296 0.0
O206 O 0.9527 0.57741 0.17147 0.0
O207 O 0.94397 0.59271 0.20148 0.0
O208 O 0.92253 0.54339 0.14992 0.0
O209 O 0.90567 0.55402 0.17853 0.0
O210 O 0.73818 0.21995 0.46289 0.0
Cd211 Cd 0.72184 0.19188 0.466 0.0
Cd212 Cd 0.73379 0.18775 0.42733 0.0
O213 O 0.75634 0.21074 0.43458 0.0
O214 O 0.72472 0.18082 0.49617 0.0
O215 O 0.74144 0.16668 0.46909 0.0
C216 C 0.73851 0.16739 0.48929 0.0
C217 C 0.73388 0.15551 0.40866 0.0
C218 C 0.75224 0.22413 0.44914 0.0
C219 C 0.69005 0.20261 0.43341 0.0
O220 O 0.70634 0.20295 0.42183 0.0
O221 O 0.69113 0.19464 0.452 0.0
O222 O 0.73989 0.17295 0.39992 0.0
O223 O 0.73012 0.15586 0.4287 0.0
O224 O 0.3621 0.08156 0.07745 0.0
Cd225 Cd 0.35649 0.09643 0.04986 0.0
Cd226 Cd 0.31761 0.0928 0.0618 0.0
O227 O 0.33166 0.08941 0.09243 0.0
O228 O 0.3836 0.11154 0.04318 0.0
O229 O 0.35477 0.12827 0.05342 0.0
C230 C 0.37468 0.12891 0.04911 0.0
C231 C 0.2946 0.11771 0.04526 0.0
C232 C 0.35031 0.08158 0.09358 0.0
C233 C 0.33392 0.06026 0.03147 0.0
O234 O 0.32015 0.06479 0.04539 0.0
O235 O 0.34898 0.07316 0.02761 0.0
O236 O 0.28757 0.10435 0.05907 0.0
O237 O 0.31479 0.11808 0.04225 0.0
O238 O 0.86139 0.95389 0.45627 0.0
Cd239 Cd 0.85657 0.93873 0.48384 0.0
Cd240 Cd 0.81753 0.94283 0.4727 0.0
O241 O 0.83091 0.94556 0.44171 0.0
O242 O 0.88437 0.92456 0.48947 0.0
O243 O 0.8558 0.9068 0.48035 0.0
C244 C 0.87589 0.9069 0.48374 0.0
C245 C 0.79557 0.91784 0.4904 0.0
C246 C 0.84948 0.95352 0.44024 0.0
C247 C 0.83508 0.97508 0.50272 0.0
O248 O 0.82096 0.97089 0.48904 0.0
O249 O 0.84978 0.96173 0.50645 0.0
O250 O 0.78773 0.93104 0.47689 0.0
O251 O 0.8159 0.91758 0.49229 0.0
O252 O 0.31603 0.07214 0.7379 0.0
Cd253 Cd 0.34387 0.06911 0.72127 0.0
Cd254 Cd 0.34848 0.10785 0.73326 0.0
O255 O 0.32548 0.10058 0.7558 0.0
O256 O 0.35498 0.03892 0.72393 0.0
O257 O 0.36915 0.06595 0.74073 0.0
C258 C 0.36846 0.04576 0.7377 0.0
C259 C 0.38107 0.12591 0.73375 0.0
C260 C 0.31206 0.08599 0.75192 0.0
C261 C 0.33314 0.10209 0.68965 0.0
O262 O 0.33328 0.11375 0.70588 0.0
O263 O 0.34075 0.08333 0.69067 0.0
O264 O 0.3638 0.13491 0.73982 0.0
O265 O 0.38029 0.10599 0.72942 0.0
O266 O 0.17437 0.58189 0.95382 0.0
Cd267 Cd 0.17906 0.59662 0.98168 0.0
Cd268 Cd 0.21822 0.59316 0.97051 0.0
O269 O 0.20508 0.58993 0.93953 0.0
O270 O 0.1512 0.61052 0.98755 0.0
O271 O 0.17969 0.62862 0.97882 0.0
C272 C 0.15958 0.62833 0.98219 0.0
C273 C 0.2411 0.61795 0.98728 0.0
C274 C 0.18648 0.58208 0.93794 0.0
C275 C 0.20126 0.56055 1.00053 0.0
O276 O 0.21531 0.56514 0.98691 0.0
O277 O 0.18606 0.57337 1.00404 0.0
O278 O 0.24826 0.60443 0.97371 0.0
O279 O 0.22086 0.61857 0.98992 0.0
O280 O 0.21872 0.96379 0.23817 0.0
Cd281 Cd 0.19058 0.96645 0.22203 0.0
Cd282 Cd 0.18712 0.92743 0.23392 0.0
O283 O 0.21035 0.93506 0.25615 0.0
O284 O 0.17874 0.99634 0.22573 0.0
O285 O 0.16565 0.96845 0.24198 0.0
C286 C 0.16583 0.98875 0.23967 0.0
C287 C 0.15482 0.90885 0.23461 0.0
C288 C 0.22325 0.95011 0.25218 0.0
C289 C 0.20146 0.93386 0.19006 0.0
O290 O 0.20197 0.92214 0.20624 0.0
O291 O 0.1934 0.95242 0.1913 0.0
O292 O 0.17229 0.90006 0.24042 0.0
O293 O 0.15525 0.92882 0.23047 0.0
O294 O 0.67394 0.95207 0.07938 0.0
Cd295 Cd 0.67882 0.93737 0.05152 0.0
Cd296 Cd 0.71818 0.94227 0.0623 0.0
O297 O 0.70521 0.94571 0.09334 0.0
O298 O 0.65123 0.92287 0.0455 0.0
O299 O 0.68002 0.90539 0.05451 0.0
C300 C 0.65999 0.90523 0.0508 0.0
C301 C 0.74032 0.91728 0.04491 0.0
C302 C 0.68631 0.95275 0.09506 0.0
C303 C 0.69998 0.97409 0.0323 0.0
O304 O 0.71445 0.97001 0.04563 0.0
O305 O 0.68518 0.96073 0.02905 0.0
O306 O 0.74808 0.9308 0.05814 0.0
O307 O 0.71998 0.91671 0.04315 0.0
O308 O 0.31448 0.46566 0.79683 0.0
Cd309 Cd 0.34225 0.4692 0.81354 0.0
Cd310 Cd 0.347 0.42991 0.8026 0.0
O311 O 0.3235 0.43622 0.78035 0.0
O312 O 0.35333 0.49933 0.81021 0.0
O313 O 0.36791 0.47186 0.7945 0.0
C314 C 0.36712 0.49214 0.79694 0.0
C315 C 0.37881 0.41061 0.80178 0.0
C316 C 0.31026 0.45112 0.7836 0.0
C317 C 0.33175 0.43718 0.8462 0.0
O318 O 0.33244 0.42488 0.83048 0.0
O319 O 0.33874 0.45612 0.84455 0.0
O320 O 0.36101 0.40211 0.79661 0.0
O321 O 0.37901 0.43072 0.80518 0.0
O322 O 0.71752 0.07167 0.29441 0.0
Cd323 Cd 0.69056 0.06779 0.31227 0.0
Cd324 Cd 0.68615 0.10738 0.30109 0.0
O325 O 0.7092 0.1014 0.27824 0.0
O326 O 0.6821 0.03694 0.3084 0.0
O327 O 0.66304 0.06342 0.29619 0.0
C328 C 0.66615 0.04325 0.29731 0.0
C329 C 0.65371 0.12566 0.30047 0.0
C330 C 0.72193 0.086 0.28105 0.0
C331 C 0.702 0.09963 0.34477 0.0
O332 O 0.70096 0.11196 0.32905 0.0
O333 O 0.69515 0.0806 0.34323 0.0
O334 O 0.67123 0.13483 0.29548 0.0
O335 O 0.65421 0.10555 0.30387 0.0
O336 O 0.0471 0.82115 0.56414 0.0
Cd337 Cd 0.06345 0.81765 0.59218 0.0
Cd338 Cd 0.05245 0.85669 0.59638 0.0
O339 O 0.02986 0.85006 0.57334 0.0
O340 O 0.06024 0.78747 0.60317 0.0
O341 O 0.04399 0.81474 0.6175 0.0
C342 C 0.04669 0.7945 0.61676 0.0
C343 C 0.05242 0.87521 0.62863 0.0
C344 C 0.03351 0.83536 0.55997 0.0
C345 C 0.09602 0.84971 0.58174 0.0
O346 O 0.08007 0.86173 0.58136 0.0
O347 O 0.09442 0.83107 0.58953 0.0
O348 O 0.04665 0.88412 0.61122 0.0
O349 O 0.05597 0.85512 0.62823 0.0
O350 O 0.92336 0.82888 0.83068 0.0
Cd351 Cd 0.92854 0.80137 0.84587 0.0
Cd352 Cd 0.9674 0.8129 0.84175 0.0
O353 O 0.95365 0.84377 0.83916 0.0
O354 O 0.901 0.79542 0.86045 0.0
O355 O 0.9297 0.80505 0.87773 0.0
C356 C 0.90966 0.80136 0.87794 0.0
C357 C 0.98962 0.79528 0.86656 0.0
C358 C 0.93509 0.84505 0.83115 0.0
C359 C 0.95011 0.78273 0.80952 0.0
O360 O 0.96403 0.79665 0.81366 0.0
O361 O 0.93557 0.77874 0.82295 0.0
O362 O 0.99729 0.80896 0.85344 0.0
O363 O 0.96931 0.79316 0.86685 0.0
O364 O 0.98707 0.71504 0.06479 0.0
Cd365 Cd 0.97082 0.7175 0.09297 0.0
Cd366 Cd 0.98266 0.67862 0.09595 0.0
O367 O 1.00518 0.68641 0.07318 0.0
O368 O 0.97436 0.74727 0.10511 0.0
O369 O 0.99066 0.71932 0.11801 0.0
C370 C 0.98825 0.73961 0.11802 0.0
C371 C 0.98274 0.65908 0.12763 0.0
C372 C 1.0012 0.70146 0.0603 0.0
C373 C 0.9389 0.68513 0.0817 0.0
O374 O 0.95518 0.67359 0.08072 0.0
O375 O 0.94009 0.70347 0.09024 0.0
O376 O 0.98872 0.65081 0.10997 0.0
O377 O 0.97899 0.67913 0.12784 0.0
O378 O 0.11301 0.70739 0.33244 0.0
Cd379 Cd 0.10723 0.73479 0.34765 0.0
Cd380 Cd 0.06865 0.72268 0.34355 0.0
O381 O 0.08291 0.69205 0.3408 0.0
O382 O 0.13438 0.74134 0.36271 0.0
O383 O 0.10562 0.73089 0.37945 0.0
C384 C 0.12554 0.73521 0.38004 0.0
C385 C 0.04539 0.73938 0.36806 0.0
C386 C 0.1015 0.69104 0.33282 0.0
C387 C 0.08528 0.75314 0.31134 0.0
O388 O 0.07162 0.73898 0.31547 0.0
O389 O 0.09979 0.75732 0.32474 0.0
O390 O 0.03851 0.72547 0.35475 0.0
O391 O 0.06557 0.74242 0.36864 0.0
O392 O 0.04783 0.21474 0.47093 0.0
Cd393 Cd 0.06371 0.21768 0.44266 0.0
Cd394 Cd 0.05276 0.17838 0.43958 0.0
O395 O 0.03052 0.18551 0.46295 0.0
O396 O 0.05942 0.24742 0.43075 0.0
O397 O 0.04375 0.21918 0.4177 0.0
C398 C 0.04568 0.23952 0.41782 0.0
C399 C 0.05227 0.15915 0.40772 0.0
C400 C 0.03424 0.20073 0.47572 0.0
C401 C 0.09656 0.18615 0.45353 0.0
O402 O 0.08074 0.17395 0.45411 0.0
O403 O 0.09479 0.20465 0.44546 0.0
O404 O 0.04689 0.15057 0.42544 0.0
O405 O 0.05568 0.17926 0.40763 0.0
O406 O 0.61164 0.82933 0.70402 0.0
Cd407 Cd 0.60703 0.80149 0.68925 0.0
Cd408 Cd 0.56795 0.81279 0.69213 0.0
O409 O 0.58128 0.8438 0.69504 0.0
O410 O 0.63488 0.79562 0.67533 0.0
O411 O 0.60641 0.80462 0.65733 0.0
C412 C 0.6265 0.80118 0.65758 0.0
C413 C 0.54615 0.79487 0.66709 0.0
C414 C 0.59968 0.84532 0.70335 0.0
C415 C 0.58456 0.78309 0.72522 0.0
O416 O 0.57072 0.79684 0.72041 0.0
O417 O 0.5997 0.77918 0.71243 0.0
O418 O 0.53825 0.80861 0.68001 0.0
O419 O 0.56647 0.79284 0.66711 0.0
O420 O 0.99025 0.32296 0.96941 0.0
Cd421 Cd 0.97393 0.31976 0.94135 0.0
Cd422 Cd 0.9857 0.35854 0.93725 0.0
O423 O 1.00818 0.35147 0.96031 0.0
O424 O 0.97686 0.28957 0.93024 0.0
O425 O 0.99345 0.31672 0.91606 0.0
C426 C 0.99055 0.2965 0.91673 0.0
C427 C 0.986 0.3771 0.90497 0.0
C428 C 1.00415 0.33687 0.97367 0.0
C429 C 0.94198 0.35227 0.95209 0.0
O430 O 0.95819 0.36397 0.95235 0.0
O431 O 0.94317 0.33365 0.94418 0.0
O432 O 0.9919 0.38592 0.9224 0.0
O433 O 0.98203 0.35709 0.9054 0.0
O434 O 0.42294 0.70542 0.20171 0.0
Cd435 Cd 0.4278 0.73339 0.18722 0.0
Cd436 Cd 0.46703 0.72193 0.19071 0.0
O437 O 0.45367 0.69101 0.19386 0.0
O438 O 0.40019 0.73967 0.17289 0.0
O439 O 0.42886 0.73057 0.15527 0.0
C440 C 0.40884 0.73436 0.1552 0.0
C441 C 0.48922 0.73951 0.16585 0.0
C442 C 0.43503 0.6895 0.20162 0.0
C443 C 0.45016 0.75173 0.22352 0.0
O444 O 0.46413 0.73808 0.21881 0.0
O445 O 0.435 0.75549 0.21071 0.0
O446 O 0.49689 0.72581 0.17895 0.0
O447 O 0.46892 0.74165 0.16558 0.0
O448 O 0.065 0.54676 0.82096 0.0
Cd449 Cd 0.09274 0.56344 0.8175 0.0
Cd450 Cd 0.09762 0.55212 0.85653 0.0
O451 O 0.07427 0.5297 0.84995 0.0
O452 O 0.10376 0.5603 0.78733 0.0
O453 O 0.11825 0.54425 0.81464 0.0
C454 C 0.11746 0.54687 0.7944 0.0
C455 C 0.1301 0.55137 0.87468 0.0
C456 C 0.06089 0.53322 0.83523 0.0
C457 C 0.08211 0.59568 0.84988 0.0
O458 O 0.08282 0.57981 0.86201 0.0
O459 O 0.08924 0.59428 0.83098 0.0
O460 O 0.1127 0.54575 0.88371 0.0
O461 O 0.12949 0.55541 0.85471 0.0
O462 O 0.23824 0.81431 0.07104 0.0
Cd463 Cd 0.22179 0.84231 0.06762 0.0
Cd464 Cd 0.23316 0.84648 0.1064 0.0
O465 O 0.25598 0.82371 0.09955 0.0
O466 O 0.22489 0.85322 0.03743 0.0
O467 O 0.2412 0.86768 0.0646 0.0
C468 C 0.23847 0.86685 0.04438 0.0
C469 C 0.23286 0.87851 0.12537 0.0
C470 C 0.25213 0.81025 0.085 0.0
C471 C 0.18961 0.83148 0.09972 0.0
O472 O 0.20574 0.83108 0.11149 0.0
O473 O 0.19091 0.83952 0.08119 0.0
O474 O 0.23883 0.86101 0.134 0.0
O475 O 0.22933 0.87836 0.10529 0.0
O476 O 0.96845 0.98793 0.31949 0.0
Cd477 Cd 0.9405 0.97153 0.31648 0.0
Cd478 Cd 0.93686 0.98254 0.35583 0.0
O479 O 0.96017 1.00489 0.34885 0.0
O480 O 0.9287 0.97568 0.28669 0.0
O481 O 0.91523 0.99109 0.31486 0.0
C482 C 0.91553 0.98923 0.29453 0.0
C483 C 0.90503 0.98316 0.3751 0.0
C484 C 0.973 1.00148 0.33363 0.0
C485 C 0.95154 0.93882 0.34826 0.0
O486 O 0.9515 0.95462 0.36049 0.0
O487 O 0.94389 0.94048 0.32958 0.0
O488 O 0.92278 0.98851 0.38361 0.0
O489 O 0.9049 0.97968 0.35502 0.0
O490 O 0.79721 0.71934 0.56952 0.0
Cd491 Cd 0.81514 0.69252 0.56511 0.0
Cd492 Cd 0.8049 0.68775 0.60511 0.0
O493 O 0.78227 0.71119 0.59993 0.0
O494 O 0.81079 0.6844 0.53433 0.0
O495 O 0.79952 0.66473 0.56081 0.0
C496 C 0.80019 0.66813 0.54068 0.0
C497 C 0.80374 0.65585 0.62429 0.0
C498 C 0.78448 0.72384 0.58437 0.0
C499 C 0.8485 0.70359 0.596 0.0
O500 O 0.83329 0.70199 0.60889 0.0
O501 O 0.84633 0.69743 0.57684 0.0
O502 O 0.79961 0.67378 0.63306 0.0
O503 O 0.80664 0.65565 0.60412 0.0
O504 O 0.06521 0.48887 0.21493 0.0
Cd505 Cd 0.09298 0.47219 0.21862 0.0
Cd506 Cd 0.09769 0.48291 0.17933 0.0
O507 O 0.07422 0.50521 0.18542 0.0
O508 O 0.10391 0.47569 0.24873 0.0
O509 O 0.1187 0.4912 0.22126 0.0
C510 C 0.11779 0.48887 0.24154 0.0
C511 C 0.12927 0.48339 0.15964 0.0
C512 C 0.06097 0.502 0.20032 0.0
C513 C 0.08236 0.43935 0.18696 0.0
O514 O 0.08304 0.45503 0.1746 0.0
O515 O 0.08945 0.44107 0.20584 0.0
O516 O 0.11139 0.48854 0.15133 0.0
O517 O 0.12972 0.48025 0.17977 0.0
O518 O 0.29725 0.81576 0.46394 0.0
Cd519 Cd 0.31347 0.84397 0.46631 0.0
Cd520 Cd 0.30186 0.8466 0.42755 0.0
O521 O 0.27907 0.82407 0.43538 0.0
O522 O 0.31074 0.85546 0.49633 0.0
O523 O 0.29372 0.86908 0.46919 0.0
C524 C 0.2968 0.86869 0.48937 0.0
C525 C 0.30244 0.87872 0.40887 0.0
C526 C 0.28305 0.81123 0.45045 0.0
C527 C 0.34547 0.83247 0.43414 0.0
O528 O 0.32922 0.83111 0.42261 0.0
O529 O 0.3442 0.84133 0.45231 0.0
O530 O 0.29605 0.86141 0.40011 0.0
O531 O 0.30622 0.87833 0.42891 0.0
O532 O 0.96987 0.04703 0.71397 0.0
Cd533 Cd 0.94187 0.06346 0.71751 0.0
Cd534 Cd 0.9378 0.05273 0.67843 0.0
O535 O 0.96066 0.02994 0.68499 0.0
O536 O 0.93093 0.06012 0.74766 0.0
O537 O 0.91647 0.04405 0.72035 0.0
C538 C 0.91728 0.04663 0.74059 0.0
C539 C 0.90574 0.05305 0.65959 0.0
C540 C 0.974 0.03345 0.69973 0.0
C541 C 0.95244 0.09627 0.6858 0.0
O542 O 0.95296 0.08036 0.67372 0.0
O543 O 0.94451 0.09456 0.70435 0.0
O544 O 0.92323 0.04729 0.6508 0.0
O545 O 0.90594 0.05635 0.67971 0.0
O546 O 0.73847 0.71955 0.96404 0.0
Cd547 Cd 0.72185 0.69165 0.96745 0.0
Cd548 Cd 0.73323 0.68717 0.9285 0.0
O549 O 0.75586 0.71018 0.93527 0.0
O550 O 0.72488 0.6807 0.99761 0.0
O551 O 0.74102 0.66613 0.97038 0.0
C552 C 0.73832 0.66697 0.99062 0.0
C553 C 0.73361 0.65522 0.90935 0.0
C554 C 0.75221 0.72359 0.94993 0.0
C555 C 0.68961 0.70225 0.93531 0.0
O556 O 0.70566 0.70228 0.9234 0.0
O557 O 0.69097 0.69459 0.954 0.0
O558 O 0.73925 0.67288 0.90082 0.0
O559 O 0.72983 0.65522 0.92938 0.0
O560 O 0.36007 0.58192 0.58058 0.0
Cd561 Cd 0.35537 0.59697 0.5529 0.0
Cd562 Cd 0.31624 0.59275 0.56388 0.0
O563 O 0.32941 0.59 0.59491 0.0
O564 O 0.38332 0.61079 0.54714 0.0
O565 O 0.35494 0.62895 0.55607 0.0
C566 C 0.37502 0.6286 0.55262 0.0
C567 C 0.29417 0.61771 0.54636 0.0
C568 C 0.34802 0.5822 0.59651 0.0
C569 C 0.33399 0.5606 0.53387 0.0
O570 O 0.31977 0.56473 0.54747 0.0
O571 O 0.3487 0.57397 0.53029 0.0
O572 O 0.28641 0.60437 0.55978 0.0
O573 O 0.3145 0.61812 0.54445 0.0
O574 O 0.86054 0.4533 0.95383 0.0
Cd575 Cd 0.85606 0.43848 0.98169 0.0
Cd576 Cd 0.81679 0.44189 0.97043 0.0
O577 O 0.82988 0.44521 0.93945 0.0
O578 O 0.88418 0.42508 0.98751 0.0
O579 O 0.85599 0.40645 0.97891 0.0
C580 C 0.87609 0.4071 0.98224 0.0
C581 C 0.79475 0.41689 0.98788 0.0
C582 C 0.84845 0.45313 0.93793 0.0
C583 C 0.83365 0.47434 1.00067 0.0
O584 O 0.81971 0.46983 0.98693 0.0
O585 O 0.84887 0.46154 1.00418 0.0
O586 O 0.78698 0.43015 0.9744 0.0
O587 O 0.81508 0.4165 0.9898 0.0
O588 O 0.31604 0.5702 0.23829 0.0
Cd589 Cd 0.34399 0.56734 0.22184 0.0
Cd590 Cd 0.34741 0.6067 0.23278 0.0
O591 O 0.32434 0.59952 0.25532 0.0
O592 O 0.35602 0.53759 0.2259 0.0
O593 O 0.36927 0.56583 0.2414 0.0
C594 C 0.36914 0.54549 0.23944 0.0
C595 C 0.37944 0.62566 0.2332 0.0
C596 C 0.31153 0.58426 0.25193 0.0
C597 C 0.33269 0.59909 0.18918 0.0
O598 O 0.33253 0.61132 0.20499 0.0
O599 O 0.3406 0.58051 0.19084 0.0
O600 O 0.36185 0.63435 0.23876 0.0
O601 O 0.3793 0.60562 0.22942 0.0
O602 O 0.17205 0.08231 0.45667 0.0
Cd603 Cd 0.17818 0.09768 0.48388 0.0
Cd604 Cd 0.2167 0.09324 0.47168 0.0
O605 O 0.20221 0.09019 0.44119 0.0
O606 O 0.15125 0.11303 0.49068 0.0
O607 O 0.18002 0.12945 0.47971 0.0
C608 C 0.16018 0.13025 0.48432 0.0
C609 C 0.23985 0.11799 0.48821 0.0
C610 C 0.18353 0.08238 0.44032 0.0
C611 C 0.20016 0.06133 0.50236 0.0
O612 O 0.21385 0.0653 0.4882 0.0
O613 O 0.18567 0.0748 0.50643 0.0
O614 O 0.24679 0.10465 0.47434 0.0
O615 O 0.21967 0.11844 0.49127 0.0
O616 O 0.21932 0.46436 0.73868 0.0
Cd617 Cd 0.19138 0.4674 0.72215 0.0
Cd618 Cd 0.18698 0.42882 0.73429 0.0
O619 O 0.20982 0.43618 0.75693 0.0
O620 O 0.1801 0.49755 0.72486 0.0
O621 O 0.16615 0.47041 0.74167 0.0
C622 C 0.16668 0.49061 0.73864 0.0
C623 C 0.15453 0.41055 0.7344 0.0
C624 C 0.2233 0.45066 0.75286 0.0
C625 C 0.20209 0.43447 0.6906 0.0
O626 O 0.20228 0.42297 0.70695 0.0
O627 O 0.19423 0.45312 0.69155 0.0
O628 O 0.17181 0.40164 0.74058 0.0
O629 O 0.15518 0.43054 0.73041 0.0
O630 O 0.67229 0.45646 0.57802 0.0
Cd631 Cd 0.67722 0.44142 0.5504 0.0
Cd632 Cd 0.71593 0.44393 0.56218 0.0
O633 O 0.70201 0.44633 0.59296 0.0
O634 O 0.64963 0.42696 0.54449 0.0
O635 O 0.67832 0.40955 0.554 0.0
C636 C 0.65825 0.40943 0.55042 0.0
C637 C 0.73898 0.41907 0.54556 0.0
C638 C 0.68381 0.45509 0.59428 0.0
C639 C 0.69985 0.47723 0.53225 0.0
O640 O 0.71342 0.47238 0.54627 0.0
O641 O 0.68482 0.46441 0.52802 0.0
O642 O 0.74595 0.43233 0.55948 0.0
O643 O 0.71882 0.41883 0.54234 0.0
O644 O 0.31524 0.96393 0.296 0.0
Cd645 Cd 0.34366 0.9666 0.31171 0.0
Cd646 Cd 0.34655 0.92755 0.30019 0.0
O647 O 0.32333 0.93514 0.27801 0.0
O648 O 0.3556 0.99647 0.30788 0.0
O649 O 0.36831 0.96859 0.29137 0.0
C650 C 0.36829 0.98887 0.29376 0.0
C651 C 0.37898 0.90936 0.29989 0.0
C652 C 0.3105 0.95021 0.28208 0.0
C653 C 0.33303 0.93423 0.34407 0.0
O654 O 0.33182 0.92248 0.32795 0.0
O655 O 0.34142 0.95263 0.34254 0.0
O656 O 0.36166 0.90031 0.29398 0.0
O657 O 0.37835 0.92939 0.30371 0.0
O658 O 0.71853 0.57114 0.79595 0.0
Cd659 Cd 0.69067 0.56818 0.81254 0.0
Cd660 Cd 0.6868 0.6075 0.80127 0.0
O661 O 0.71027 0.60052 0.77901 0.0
O662 O 0.67959 0.53798 0.80964 0.0
O663 O 0.66518 0.56516 0.79331 0.0
C664 C 0.66593 0.54493 0.79612 0.0
C665 C 0.65428 0.62567 0.80036 0.0
C666 C 0.7231 0.58527 0.7824 0.0
C667 C 0.70159 0.60032 0.84502 0.0
O668 O 0.70134 0.61255 0.82921 0.0
O669 O 0.69415 0.58154 0.84342 0.0
O670 O 0.67174 0.63478 0.79499 0.0
O671 O 0.65489 0.60565 0.80422 0.0
O672 O 0.54686 0.3215 0.56492 0.0
Cd673 Cd 0.56333 0.31938 0.59289 0.0
Cd674 Cd 0.55037 0.35789 0.59646 0.0
O675 O 0.52789 0.34942 0.57379 0.0
O676 O 0.5605 0.28949 0.60495 0.0
O677 O 0.54346 0.317 0.61782 0.0
C678 C 0.54632 0.29678 0.61777 0.0
C679 C 0.54978 0.37633 0.62883 0.0
C680 C 0.53221 0.3346 0.56074 0.0
C681 C 0.59415 0.35293 0.5816 0.0
O682 O 0.57756 0.36405 0.58106 0.0
O683 O 0.59358 0.33443 0.58989 0.0
O684 O 0.54331 0.38498 0.61151 0.0
O685 O 0.55457 0.35652 0.62823 0.0
O686 O 0.42289 0.32906 0.83063 0.0
Cd687 Cd 0.42816 0.30163 0.84599 0.0
Cd688 Cd 0.46683 0.31334 0.84193 0.0
O689 O 0.45303 0.34414 0.83923 0.0
O690 O 0.40058 0.29572 0.86044 0.0
O691 O 0.4292 0.30536 0.87785 0.0
C692 C 0.40915 0.30169 0.87796 0.0
C693 C 0.48998 0.29665 0.86653 0.0
C694 C 0.43452 0.34532 0.83112 0.0
C695 C 0.44985 0.28279 0.80989 0.0
O696 O 0.46363 0.29687 0.81394 0.0
O697 O 0.4353 0.27881 0.82331 0.0
O698 O 0.49696 0.31033 0.85302 0.0
O699 O 0.46976 0.29384 0.86722 0.0
O700 O 0.4862 0.21563 0.06346 0.0
Cd701 Cd 0.46969 0.21808 0.09141 0.0
Cd702 Cd 0.48138 0.17921 0.09483 0.0
O703 O 0.50392 0.1868 0.07196 0.0
O704 O 0.47267 0.24798 0.10319 0.0
O705 O 0.48923 0.22047 0.11669 0.0
C706 C 0.48642 0.24071 0.11646 0.0
C707 C 0.48171 0.16028 0.12682 0.0
C708 C 0.5002 0.2019 0.05907 0.0
C709 C 0.43776 0.18572 0.07996 0.0
O710 O 0.45387 0.17391 0.07971 0.0
O711 O 0.43896 0.20426 0.08804 0.0
O712 O 0.48767 0.15171 0.10929 0.0
O713 O 0.47778 0.1803 0.12668 0.0
O714 O 0.60935 0.20407 0.33208 0.0
Cd715 Cd 0.60475 0.23205 0.3466 0.0
Cd716 Cd 0.5653 0.2213 0.34195 0.0
O717 O 0.57808 0.19017 0.33855 0.0
O718 O 0.63282 0.23775 0.3602 0.0
O719 O 0.60443 0.22954 0.37866 0.0
C720 C 0.62456 0.23269 0.37814 0.0
C721 C 0.54322 0.2386 0.36705 0.0
C722 C 0.59697 0.18839 0.33151 0.0
C723 C 0.58352 0.25116 0.30989 0.0
O724 O 0.56894 0.23799 0.31416 0.0
O725 O 0.59848 0.25434 0.32309 0.0
O726 O 0.53544 0.22543 0.35347 0.0
O727 O 0.56357 0.24036 0.36759 0.0
O728 O 0.54588 0.71463 0.46742 0.0
Cd729 Cd 0.56347 0.71928 0.44034 0.0
Cd730 Cd 0.55358 0.67913 0.43584 0.0
O731 O 0.53114 0.68404 0.45955 0.0
O732 O 0.55895 0.75016 0.43266 0.0
O733 O 0.54733 0.72391 0.41284 0.0
C734 C 0.54808 0.744 0.41652 0.0
C735 C 0.55279 0.65989 0.40395 0.0
C736 C 0.53334 0.69966 0.47213 0.0
C737 C 0.59731 0.68875 0.45102 0.0
O738 O 0.58216 0.67574 0.44976 0.0
O739 O 0.59488 0.70786 0.44477 0.0
O740 O 0.54885 0.65106 0.42189 0.0
O741 O 0.555 0.68018 0.40373 0.0
O742 O 0.11054 0.33139 0.7016 0.0
Cd743 Cd 0.10596 0.30348 0.68669 0.0
Cd744 Cd 0.06644 0.31459 0.69127 0.0
O745 O 0.07921 0.34556 0.69587 0.0
O746 O 0.13347 0.29787 0.67192 0.0
O747 O 0.10435 0.30637 0.65474 0.0
C748 C 0.12443 0.30292 0.65436 0.0
C749 C 0.0421 0.29968 0.66668 0.0
C750 C 0.09822 0.34711 0.70268 0.0
C751 C 0.0847 0.2833 0.72249 0.0
O752 O 0.07034 0.29666 0.7182 0.0
O753 O 0.10003 0.28055 0.70968 0.0
O754 O 0.03567 0.31074 0.68261 0.0
O755 O 0.06227 0.29853 0.66373 0.0
O756 O 0.48959 0.82135 0.96775 0.0
Cd757 Cd 0.47155 0.8171 0.94097 0.0
Cd758 Cd 0.48208 0.85707 0.93643 0.0
O759 O 0.50484 0.85165 0.95973 0.0
O760 O 0.47563 0.7862 0.93286 0.0
O761 O 0.48713 0.81255 0.91317 0.0
C762 C 0.48629 0.79242 0.91658 0.0
C763 C 0.48292 0.87576 0.90424 0.0
C764 C 0.50249 0.83605 0.97231 0.0
C765 C 0.43849 0.84832 0.95239 0.0
O766 O 0.45384 0.86107 0.95089 0.0
O767 O 0.44045 0.82919 0.946 0.0
O768 O 0.48737 0.88481 0.92196 0.0
O769 O 0.47994 0.85558 0.90441 0.0
O770 O 0.92181 0.20671 0.20298 0.0
Cd771 Cd 0.92705 0.23426 0.18791 0.0
Cd772 Cd 0.96602 0.22306 0.19196 0.0
O773 O 0.95223 0.19216 0.19432 0.0
O774 O 0.89984 0.24015 0.17267 0.0
O775 O 0.92896 0.23034 0.15614 0.0
C776 C 0.90893 0.23406 0.15545 0.0
C777 C 0.98859 0.2406 0.16734 0.0
C778 C 0.93366 0.19064 0.20229 0.0
C779 C 0.94855 0.25294 0.22435 0.0
O780 O 0.96262 0.2392 0.22014 0.0
O781 O 0.93394 0.2568 0.21097 0.0
O782 O 0.99603 0.2268 0.18047 0.0
O783 O 0.96832 0.24294 0.16695 0.0
O784 O 0.5649 0.04614 0.82124 0.0
Cd785 Cd 0.59285 0.06256 0.81784 0.0
Cd786 Cd 0.59731 0.051 0.85682 0.0
O787 O 0.57421 0.02845 0.84983 0.0
O788 O 0.60436 0.05878 0.78787 0.0
O789 O 0.61805 0.04298 0.81572 0.0
C790 C 0.6176 0.04515 0.79542 0.0
C791 C 0.62967 0.05047 0.8753 0.0
C792 C 0.5608 0.03229 0.83523 0.0
C793 C 0.58233 0.09471 0.85027 0.0
O794 O 0.58229 0.07862 0.86214 0.0
O795 O 0.58999 0.09339 0.83156 0.0
O796 O 0.61222 0.04472 0.88416 0.0
O797 O 0.62919 0.05452 0.85533 0.0
O798 O 0.738 0.31586 0.07054 0.0
Cd799 Cd 0.72146 0.3437 0.06724 0.0
Cd800 Cd 0.73346 0.34866 0.10616 0.0
O801 O 0.7558 0.3254 0.09901 0.0
O802 O 0.72504 0.35514 0.03722 0.0
O803 O 0.74106 0.36886 0.06494 0.0
C804 C 0.73879 0.36834 0.04466 0.0
C805 C 0.73451 0.38126 0.12428 0.0
C806 C 0.75195 0.31192 0.08444 0.0
C807 C 0.68967 0.33342 0.10018 0.0
O808 O 0.70583 0.33379 0.11194 0.0
O809 O 0.6908 0.3407 0.08131 0.0
O810 O 0.74017 0.36385 0.13328 0.0
O811 O 0.73022 0.38058 0.10437 0.0
O812 O 0.47182 0.48853 0.32186 0.0
Cd813 Cd 0.44351 0.47259 0.31833 0.0
Cd814 Cd 0.43961 0.48388 0.35735 0.0
O815 O 0.46304 0.50609 0.3507 0.0
O816 O 0.43202 0.47653 0.28838 0.0
O817 O 0.41844 0.4924 0.31624 0.0
C818 C 0.41882 0.4902 0.29594 0.0
C819 C 0.40772 0.48421 0.37653 0.0
C820 C 0.47632 0.5021 0.33603 0.0
C821 C 0.45362 0.44 0.3503 0.0
O822 O 0.45427 0.45604 0.3622 0.0
O823 O 0.4457 0.44157 0.33173 0.0
O824 O 0.4254 0.48965 0.38511 0.0
O825 O 0.40766 0.4809 0.35641 0.0
O826 O 0.29618 0.22028 0.5695 0.0
Cd827 Cd 0.3126 0.19217 0.56699 0.0
Cd828 Cd 0.30083 0.18923 0.60575 0.0
O829 O 0.27809 0.21182 0.5981 0.0
O830 O 0.30977 0.18061 0.53701 0.0
O831 O 0.29305 0.16688 0.5643 0.0
C832 C 0.296 0.16725 0.54409 0.0
C833 C 0.3011 0.15742 0.62505 0.0
C834 C 0.28201 0.22471 0.58306 0.0
C835 C 0.34453 0.20365 0.59919 0.0
O836 O 0.32825 0.20465 0.61071 0.0
O837 O 0.34335 0.19502 0.58091 0.0
O838 O 0.29503 0.17499 0.63348 0.0
O839 O 0.30469 0.15736 0.60498 0.0
O840 O 0.56662 0.9902 0.21234 0.0
Cd841 Cd 0.59368 0.97249 0.21623 0.0
Cd842 Cd 0.59811 0.98402 0.17686 0.0
O843 O 0.57506 1.00683 0.1829 0.0
O844 O 0.60148 0.97595 0.24721 0.0
O845 O 0.62096 0.98885 0.22132 0.0
C846 C 0.61739 0.98735 0.24137 0.0
C847 C 0.63036 0.98456 0.15827 0.0
C848 C 0.56225 1.00375 0.19818 0.0
C849 C 0.58232 0.94024 0.18427 0.0
O850 O 0.58322 0.95613 0.17215 0.0
O851 O 0.5893 0.94157 0.20324 0.0
O852 O 0.61277 0.98966 0.14931 0.0
O853 O 0.63005 0.98116 0.17838 0.0
O854 O 0.79527 0.31573 0.46457 0.0
Cd855 Cd 0.81195 0.34353 0.46813 0.0
Cd856 Cd 0.80142 0.34809 0.42883 0.0
O857 O 0.77904 0.32467 0.43499 0.0
O858 O 0.80837 0.35483 0.49815 0.0
O859 O 0.79291 0.36925 0.4705 0.0
C860 C 0.7952 0.36862 0.49078 0.0
C861 C 0.80113 0.38009 0.40988 0.0
C862 C 0.78218 0.31145 0.44993 0.0
C863 C 0.84483 0.3327 0.43643 0.0
O864 O 0.8292 0.33334 0.42401 0.0
O865 O 0.84306 0.33986 0.45529 0.0
O866 O 0.7957 0.36246 0.40116 0.0
O867 O 0.80449 0.38003 0.42998 0.0
O868 O 0.46911 0.5469 0.71436 0.0
Cd869 Cd 0.4416 0.56395 0.71757 0.0
Cd870 Cd 0.4365 0.55212 0.67882 0.0
O871 O 0.45944 0.52944 0.68573 0.0
O872 O 0.43041 0.56122 0.74773 0.0
O873 O 0.41598 0.5449 0.72055 0.0
C874 C 0.4167 0.54773 0.74076 0.0
C875 C 0.40404 0.55191 0.66065 0.0
C876 C 0.47292 0.53303 0.70033 0.0
C877 C 0.45273 0.59551 0.68463 0.0
O878 O 0.45181 0.57941 0.67282 0.0
O879 O 0.44552 0.59455 0.70354 0.0
O880 O 0.42131 0.54574 0.65172 0.0
O881 O 0.4047 0.55599 0.68061 0.0
O882 O 0.23848 0.22014 0.96316 0.0
Cd883 Cd 0.22209 0.19207 0.96626 0.0
Cd884 Cd 0.23361 0.18801 0.92748 0.0
O885 O 0.25622 0.21092 0.93457 0.0
O886 O 0.22502 0.18074 0.99637 0.0
O887 O 0.24168 0.16682 0.96915 0.0
C888 C 0.23876 0.16731 0.98936 0.0
C889 C 0.2335 0.15555 0.90936 0.0
C890 C 0.25233 0.22429 0.9492 0.0
C891 C 0.19009 0.20285 0.93368 0.0
O892 O 0.20625 0.20328 0.92195 0.0
O893 O 0.19135 0.19488 0.95226 0.0
O894 O 0.23973 0.17277 0.90034 0.0
O895 O 0.22956 0.15625 0.92935 0.0
O896 O 0.86207 0.08388 0.57908 0.0
Cd897 Cd 0.85676 0.09884 0.55146 0.0
Cd898 Cd 0.81787 0.09462 0.56283 0.0
O899 O 0.83154 0.09196 0.5937 0.0
O900 O 0.88403 0.11389 0.54542 0.0
O901 O 0.85499 0.1307 0.55491 0.0
C902 C 0.87504 0.13126 0.55123 0.0
C903 C 0.79468 0.11905 0.54591 0.0
C904 C 0.8502 0.08421 0.59514 0.0
C905 C 0.83522 0.06233 0.53283 0.0
O906 O 0.82117 0.06652 0.54658 0.0
O907 O 0.84988 0.07569 0.529 0.0
O908 O 0.7877 0.10562 0.55966 0.0
O909 O 0.8149 0.11978 0.54315 0.0
O910 O 0.36177 0.9513 0.95483 0.0
Cd911 Cd 0.35671 0.93679 0.98277 0.0
Cd912 Cd 0.31754 0.94032 0.97124 0.0
O913 O 0.33099 0.94371 0.9404 0.0
O914 O 0.38415 0.92216 0.98921 0.0
O915 O 0.35534 0.90483 0.97996 0.0
C916 C 0.37534 0.90454 0.98387 0.0
C917 C 0.2945 0.9156 0.98794 0.0
C918 C 0.34968 0.95137 0.93892 0.0
C919 C 0.3342 0.97304 1.00124 0.0
O920 O 0.32024 0.96834 0.98758 0.0
O921 O 0.34944 0.96029 1.00488 0.0
O922 O 0.28746 0.92904 0.97424 0.0
O923 O 0.31472 0.915 0.99074 0.0
O924 O 0.81386 0.0718 0.23679 0.0
Cd925 Cd 0.84236 0.06884 0.22117 0.0
Cd926 Cd 0.84507 0.10796 0.23235 0.0
O927 O 0.82185 0.1007 0.25462 0.0
O928 O 0.85388 0.03885 0.22493 0.0
O929 O 0.86712 0.06655 0.24135 0.0
C930 C 0.86681 0.04626 0.23892 0.0
C931 C 0.87729 0.12646 0.23234 0.0
C932 C 0.80902 0.08563 0.25056 0.0
C933 C 0.83177 0.10071 0.18851 0.0
O934 O 0.83034 0.11256 0.20454 0.0
O935 O 0.84032 0.08242 0.19022 0.0
O936 O 0.8599 0.13542 0.23815 0.0
O937 O 0.87687 0.10637 0.22883 0.0
O938 O 0.67564 0.58601 0.45186 0.0
Cd939 Cd 0.67935 0.60028 0.48028 0.0
Cd940 Cd 0.71945 0.59519 0.47018 0.0
O941 O 0.70782 0.59013 0.43899 0.0
O942 O 0.6516 0.61478 0.48538 0.0
O943 O 0.68091 0.63237 0.47849 0.0
C944 C 0.66071 0.63255 0.48127 0.0
C945 C 0.7446 0.61883 0.48501 0.0
C946 C 0.68861 0.58417 0.43674 0.0
C947 C 0.69991 0.56416 0.501 0.0
O948 O 0.7148 0.56854 0.48829 0.0
O949 O 0.68435 0.57683 0.50304 0.0
O950 O 0.75043 0.60241 0.47437 0.0
O951 O 0.72462 0.62293 0.48572 0.0
O952 O 0.71957 0.96441 0.73813 0.0
Cd953 Cd 0.69171 0.96714 0.72162 0.0
Cd954 Cd 0.68798 0.92795 0.73317 0.0
O955 O 0.71111 0.93539 0.7556 0.0
O956 O 0.67979 0.99697 0.72533 0.0
O957 O 0.66647 0.96893 0.74115 0.0
C958 C 0.66668 0.98925 0.739 0.0
C959 C 0.65575 0.90928 0.73374 0.0
C960 C 0.724 0.95054 0.75198 0.0
C961 C 0.70304 0.93482 0.68955 0.0
O962 O 0.70295 0.92281 0.70553 0.0
O963 O 0.69525 0.95348 0.69086 0.0
O964 O 0.67323 0.90053 0.73956 0.0
O965 O 0.65611 0.92924 0.72959 0.0
O966 O 0.17343 0.953 0.5787 0.0
Cd967 Cd 0.17876 0.93784 0.55121 0.0
Cd968 Cd 0.21755 0.9419 0.56261 0.0
O969 O 0.20376 0.94444 0.59344 0.0
O970 O 0.15146 0.92289 0.5452 0.0
O971 O 0.18039 0.90603 0.55497 0.0
C972 C 0.16036 0.90554 0.55121 0.0
C973 C 0.24069 0.9174 0.54573 0.0
C974 C 0.1852 0.95242 0.59482 0.0
C975 C 0.20035 0.97418 0.53254 0.0
O976 O 0.21432 0.97003 0.54638 0.0
O977 O 0.18574 0.96079 0.52863 0.0
O978 O 0.24768 0.93081 0.5595 0.0
O979 O 0.22047 0.91674 0.54292 0.0
O980 O 0.81395 0.46207 0.29522 0.0
Cd981 Cd 0.84204 0.46597 0.31139 0.0
Cd982 Cd 0.84579 0.42669 0.30116 0.0
O983 O 0.82303 0.43302 0.27819 0.0
O984 O 0.85333 0.49599 0.3071 0.0
O985 O 0.8673 0.468 0.29182 0.0
C986 C 0.86673 0.48834 0.29369 0.0
C987 C 0.87812 0.40846 0.30218 0.0
C988 C 0.80968 0.44774 0.28175 0.0
C989 C 0.83121 0.43475 0.34452 0.0
O990 O 0.83045 0.4225 0.32875 0.0
O991 O 0.83946 0.45316 0.34261 0.0
O992 O 0.86092 0.39922 0.29625 0.0
O993 O 0.87749 0.42861 0.30527 0.0
O994 O 0.22087 0.07122 0.79617 0.0
Cd995 Cd 0.19275 0.06772 0.81239 0.0
Cd996 Cd 0.18883 0.10688 0.80168 0.0
O997 O 0.21174 0.10019 0.77899 0.0
O998 O 0.18106 0.03784 0.80828 0.0
O999 O 0.16757 0.06592 0.79271 0.0
C1000 C 0.16786 0.04559 0.79472 0.0
C1001 C 0.15678 0.12569 0.80192 0.0
C1002 C 0.22507 0.08546 0.7826 0.0
C1003 C 0.2033 0.09952 0.84518 0.0
O1004 O 0.20397 0.1116 0.82928 0.0
O1005 O 0.19527 0.08099 0.84345 0.0
O1006 O 0.17424 0.13448 0.79607 0.0
O1007 O 0.15701 0.10559 0.80541 0.0
O1008 O 0.54694 0.82152 0.06406 0.0
Cd1009 Cd 0.56298 0.81819 0.0922 0.0
Cd1010 Cd 0.55198 0.85757 0.09571 0.0
O1011 O 0.52985 0.85085 0.07211 0.0
O1012 O 0.5589 0.78821 0.1036 0.0
O1013 O 0.54335 0.81615 0.11738 0.0
C1014 C 0.54534 0.79582 0.11687 0.0
C1015 C 0.55137 0.87649 0.12778 0.0
C1016 C 0.53349 0.83567 0.05927 0.0
C1017 C 0.59586 0.84975 0.08156 0.0
O1018 O 0.58009 0.86202 0.08136 0.0
O1019 O 0.59407 0.83111 0.08929 0.0
O1020 O 0.54625 0.88528 0.1101 0.0
O1021 O 0.55457 0.85634 0.12768 0.0
O1022 O 0.42386 0.83016 0.33074 0.0
Cd1023 Cd 0.42841 0.80244 0.34592 0.0
Cd1024 Cd 0.46775 0.81373 0.34207 0.0
O1025 O 0.45478 0.84467 0.33778 0.0
O1026 O 0.40087 0.7971 0.36065 0.0
O1027 O 0.42999 0.80583 0.37777 0.0
C1028 C 0.40987 0.8026 0.37811 0.0
C1029 C 0.4921 0.79888 0.36672 0.0
C1030 C 0.43599 0.84607 0.33036 0.0
C1031 C 0.44997 0.7824 0.31053 0.0
O1032 O 0.4641 0.79597 0.31496 0.0
O1033 O 0.43462 0.77936 0.32326 0.0
O1034 O 0.49852 0.81005 0.35086 0.0
O1035 O 0.47192 0.79755 0.36956 0.0
O1036 O 0.48909 0.71295 0.56431 0.0
Cd1037 Cd 0.47335 0.71563 0.59277 0.0
Cd1038 Cd 0.48505 0.6766 0.59553 0.0
O1039 O 0.50717 0.68418 0.57216 0.0
O1040 O 0.47695 0.74554 0.60462 0.0
O1041 O 0.49344 0.71779 0.61762 0.0
C1042 C 0.49093 0.73806 0.61753 0.0
C1043 C 0.48554 0.65788 0.62773 0.0
C1044 C 0.50298 0.69927 0.55939 0.0
C1045 C 0.44106 0.68341 0.58201 0.0
O1046 O 0.45722 0.67171 0.58087 0.0
O1047 O 0.44252 0.70178 0.59045 0.0
O1048 O 0.49122 0.64909 0.61021 0.0
O1049 O 0.48172 0.67791 0.62741 0.0
O1050 O 0.60979 0.70354 0.83315 0.0
Cd1051 Cd 0.60567 0.73166 0.84782 0.0
Cd1052 Cd 0.566 0.72097 0.8433 0.0
O1053 O 0.57814 0.68983 0.83841 0.0
O1054 O 0.63356 0.73681 0.86184 0.0
O1055 O 0.60465 0.72941 0.87985 0.0
C1056 C 0.62485 0.7322 0.87967 0.0
C1057 C 0.54119 0.73605 0.8672 0.0
C1058 C 0.5972 0.68804 0.83181 0.0
C1059 C 0.58475 0.75207 0.81208 0.0
O1060 O 0.57023 0.73891 0.81645 0.0
O1061 O 0.6002 0.7546 0.82478 0.0
O1062 O 0.53511 0.72508 0.85108 0.0
O1063 O 0.56126 0.73694 0.87087 0.0
O1064 O 0.54616 0.21515 0.96821 0.0
Cd1065 Cd 0.56268 0.21752 0.94021 0.0
Cd1066 Cd 0.55056 0.17889 0.93708 0.0
O1067 O 0.52779 0.18677 0.95955 0.0
O1068 O 0.56001 0.24752 0.92864 0.0
O1069 O 0.54312 0.22028 0.91497 0.0
C1070 C 0.54616 0.24049 0.91535 0.0
C1071 C 0.55074 0.1597 0.90523 0.0
C1072 C 0.53181 0.20174 0.97251 0.0
C1073 C 0.59422 0.185 0.95182 0.0
O1074 O 0.57783 0.1736 0.95264 0.0
O1075 O 0.59328 0.20333 0.94324 0.0
O1076 O 0.54448 0.15127 0.92273 0.0
O1077 O 0.55461 0.17973 0.90527 0.0
O1078 O 0.11057 0.83021 0.20199 0.0
Cd1079 Cd 0.10552 0.80236 0.18736 0.0
Cd1080 Cd 0.06623 0.8133 0.1924 0.0
O1081 O 0.07932 0.84433 0.19591 0.0
O1082 O 0.13323 0.79642 0.17314 0.0
O1083 O 0.10457 0.80514 0.15537 0.0
C1084 C 0.12465 0.80171 0.15543 0.0
C1085 C 0.04405 0.79587 0.16744 0.0
C1086 C 0.09828 0.84594 0.20282 0.0
C1087 C 0.08449 0.78334 0.22421 0.0
O1088 O 0.06997 0.79661 0.22011 0.0
O1089 O 0.0993 0.78007 0.21087 0.0
O1090 O 0.03631 0.80912 0.18096 0.0
O1091 O 0.0644 0.79413 0.16685 0.0
O1092 O 0.48657 0.31941 0.46992 0.0
Cd1093 Cd 0.47004 0.31642 0.44202 0.0
Cd1094 Cd 0.48129 0.35568 0.43816 0.0
O1095 O 0.50367 0.34862 0.46135 0.0
O1096 O 0.47386 0.28659 0.43014 0.0
O1097 O 0.48949 0.31467 0.41669 0.0
C1098 C 0.48741 0.29435 0.41693 0.0
C1099 C 0.48209 0.37474 0.40621 0.0
C1100 C 0.50024 0.33349 0.47429 0.0
C1101 C 0.43758 0.3485 0.45291 0.0
O1102 O 0.45345 0.36064 0.45285 0.0
O1103 O 0.43913 0.32977 0.44533 0.0
O1104 O 0.48752 0.38333 0.4239 0.0
O1105 O 0.47838 0.35469 0.4062 0.0
O1106 O 0.92248 0.70624 0.70016 0.0
Cd1107 Cd 0.92854 0.73389 0.68549 0.0
Cd1108 Cd 0.96745 0.72205 0.69072 0.0
O1109 O 0.95347 0.69141 0.6944 0.0
O1110 O 0.90163 0.74073 0.67009 0.0
O1111 O 0.93068 0.73072 0.65364 0.0
C1112 C 0.91079 0.73505 0.65277 0.0
C1113 C 0.99063 0.73847 0.66596 0.0
C1114 C 0.93443 0.69025 0.70122 0.0
C1115 C 0.95005 0.75248 0.7224 0.0
O1116 O 0.96425 0.73885 0.71837 0.0
O1117 O 0.93534 0.75606 0.70903 0.0
O1118 O 0.99761 0.72489 0.67956 0.0
O1119 O 0.97042 0.74129 0.66526 0.0
O1120 O 0.56759 0.5451 0.32096 0.0
Cd1121 Cd 0.59431 0.56318 0.31615 0.0
Cd1122 Cd 0.60013 0.55247 0.35577 0.0
O1123 O 0.57685 0.52963 0.35078 0.0
O1124 O 0.60232 0.55897 0.28529 0.0
O1125 O 0.62206 0.54759 0.31165 0.0
C1126 C 0.61863 0.54838 0.29153 0.0
C1127 C 0.63252 0.55186 0.37419 0.0
C1128 C 0.5636 0.53216 0.33578 0.0
C1129 C 0.58366 0.59604 0.34774 0.0
O1130 O 0.58546 0.58053 0.36025 0.0
O1131 O 0.58969 0.59429 0.32849 0.0
O1132 O 0.61492 0.54719 0.38334 0.0
O1133 O 0.63213 0.55493 0.35404 0.0
O1134 O 0.73897 0.8152 0.57168 0.0
Cd1135 Cd 0.72282 0.84337 0.56928 0.0
Cd1136 Cd 0.73525 0.84656 0.60791 0.0
O1137 O 0.75767 0.82369 0.59986 0.0
O1138 O 0.72609 0.85548 0.53946 0.0
O1139 O 0.74279 0.86829 0.56719 0.0
C1140 C 0.74015 0.86832 0.54695 0.0
C1141 C 0.73545 0.87888 0.6264 0.0
C1142 C 0.75333 0.81071 0.585 0.0
C1143 C 0.69148 0.83198 0.60213 0.0
O1144 O 0.70791 0.83123 0.61346 0.0
O1145 O 0.69233 0.84049 0.58376 0.0
O1146 O 0.7418 0.86155 0.63513 0.0
O1147 O 0.73105 0.87833 0.60651 0.0
O1148 O 0.46946 0.98869 0.82026 0.0
Cd1149 Cd 0.44166 0.9721 0.81646 0.0
Cd1150 Cd 0.43688 0.98264 0.85585 0.0
O1151 O 0.46046 1.00494 0.84981 0.0
O1152 O 0.43093 0.9757 0.78627 0.0
O1153 O 0.41608 0.99124 0.81369 0.0
C1154 C 0.4171 0.98895 0.79341 0.0
C1155 C 0.4049 0.98326 0.8749 0.0
C1156 C 0.47371 1.00178 0.8349 0.0
C1157 C 0.45202 0.93907 0.84807 0.0
O1158 O 0.45139 0.95468 0.86054 0.0
O1159 O 0.44503 0.94094 0.82917 0.0
O1160 O 0.42261 0.9884 0.88359 0.0
O1161 O 0.4049 0.97987 0.85479 0.0
O1162 O 0.29631 0.71921 0.07056 0.0
Cd1163 Cd 0.31321 0.69161 0.06703 0.0
Cd1164 Cd 0.30212 0.6866 0.10624 0.0
O1165 O 0.27969 0.70995 0.09983 0.0
O1166 O 0.31014 0.68084 0.03681 0.0
O1167 O 0.29431 0.66586 0.064 0.0
C1168 C 0.29687 0.66691 0.04376 0.0
C1169 C 0.30149 0.65443 0.12503 0.0
C1170 C 0.28294 0.72327 0.08499 0.0
C1171 C 0.34557 0.70241 0.09919 0.0
O1172 O 0.32981 0.70148 0.11143 0.0
O1173 O 0.34409 0.69539 0.08026 0.0
O1174 O 0.29602 0.67203 0.13376 0.0
O1175 O 0.30528 0.65463 0.105 0.0
O1176 O 0.5639 0.48844 0.71435 0.0
Cd1177 Cd 0.59177 0.47188 0.7176 0.0
Cd1178 Cd 0.59622 0.48329 0.67867 0.0
O1179 O 0.57308 0.50575 0.68548 0.0
O1180 O 0.60301 0.47506 0.74768 0.0
O1181 O 0.61722 0.49121 0.72028 0.0
C1182 C 0.61659 0.48857 0.74052 0.0
C1183 C 0.6282 0.4839 0.65972 0.0
C1184 C 0.55975 0.5021 0.7002 0.0
C1185 C 0.58102 0.43965 0.68532 0.0
O1186 O 0.58132 0.45562 0.67332 0.0
O1187 O 0.58846 0.44101 0.7041 0.0
O1188 O 0.61059 0.48953 0.65113 0.0
O1189 O 0.62814 0.48012 0.67975 0.0
O1190 O 0.79701 0.81466 0.96349 0.0
Cd1191 Cd 0.81339 0.8427 0.96657 0.0
Cd1192 Cd 0.80166 0.847 0.92771 0.0
O1193 O 0.77917 0.82397 0.93498 0.0
O1194 O 0.80975 0.85459 0.99641 0.0
O1195 O 0.79369 0.86782 0.9685 0.0
C1196 C 0.796 0.86766 0.98879 0.0
C1197 C 0.80115 0.87926 0.9091 0.0
C1198 C 0.78307 0.81058 0.94959 0.0
C1199 C 0.8453 0.83212 0.9339 0.0
O1200 O 0.82912 0.83187 0.92218 0.0
O1201 O 0.8441 0.83994 0.95255 0.0
O1202 O 0.79519 0.8618 0.90038 0.0
O1203 O 0.80539 0.87887 0.92902 0.0
O1204 O 0.47007 0.0474 0.21218 0.0
Cd1205 Cd 0.44157 0.06299 0.21487 0.0
Cd1206 Cd 0.43862 0.05105 0.17598 0.0
O1207 O 0.46207 0.02909 0.18359 0.0
O1208 O 0.42969 0.05923 0.24472 0.0
O1209 O 0.41687 0.0427 0.21691 0.0
C1210 C 0.41693 0.04514 0.23718 0.0
C1211 C 0.40653 0.05027 0.15714 0.0
C1212 C 0.47493 0.03345 0.19855 0.0
C1213 C 0.45217 0.0951 0.18247 0.0
O1214 O 0.45323 0.07887 0.17086 0.0
O1215 O 0.4438 0.09377 0.20087 0.0
O1216 O 0.4241 0.04455 0.1485 0.0
O1217 O 0.40673 0.05432 0.17712 0.0
O1218 O 0.2377 0.72018 0.46526 0.0
Cd1219 Cd 0.2211 0.69232 0.46819 0.0
Cd1220 Cd 0.23247 0.68834 0.42894 0.0
O1221 O 0.25485 0.71159 0.4361 0.0
O1222 O 0.22482 0.68051 0.49803 0.0
O1223 O 0.24049 0.66695 0.47004 0.0
C1224 C 0.23837 0.66726 0.49035 0.0
C1225 C 0.23341 0.65619 0.41012 0.0
C1226 C 0.25141 0.72453 0.45123 0.0
C1227 C 0.18879 0.70328 0.436 0.0
O1228 O 0.20467 0.70308 0.42388 0.0
O1229 O 0.19027 0.69575 0.45475 0.0
O1230 O 0.23889 0.67382 0.40144 0.0
O1231 O 0.22936 0.65638 0.43009 0.0
O1232 O 0.86101 0.58138 0.07933 0.0
Cd1233 Cd 0.85582 0.59665 0.05185 0.0
Cd1234 Cd 0.8169 0.5929 0.0634 0.0
O1235 O 0.83052 0.58933 0.09414 0.0
O1236 O 0.88322 0.61144 0.04581 0.0
O1237 O 0.85442 0.6285 0.05561 0.0
C1238 C 0.87444 0.62887 0.0518 0.0
C1239 C 0.794 0.61779 0.04689 0.0
C1240 C 0.84909 0.58138 0.09537 0.0
C1241 C 0.83344 0.56086 0.0327 0.0
O1242 O 0.81965 0.56511 0.04667 0.0
O1243 O 0.8485 0.57384 0.02911 0.0
O1244 O 0.78688 0.60428 0.06049 0.0
O1245 O 0.81422 0.61835 0.04412 0.0
O1246 O 0.36271 0.45288 0.45702 0.0
Cd1247 Cd 0.35644 0.43741 0.48414 0.0
Cd1248 Cd 0.31798 0.44217 0.47173 0.0
O1249 O 0.3326 0.4453 0.44131 0.0
O1250 O 0.38337 0.42201 0.49088 0.0
O1251 O 0.35461 0.40563 0.47989 0.0
C1252 C 0.37445 0.4048 0.48446 0.0
C1253 C 0.29452 0.41757 0.48799 0.0
C1254 C 0.35133 0.453 0.4406 0.0
C1255 C 0.33451 0.47375 0.50276 0.0
O1256 O 0.32091 0.46996 0.48847 0.0
O1257 O 0.34893 0.46021 0.50681 0.0
O1258 O 0.28779 0.43105 0.47416 0.0
O1259 O 0.31468 0.41687 0.49114 0.0
O1260 O 0.81503 0.57142 0.7381 0.0
Cd1261 Cd 0.84322 0.56857 0.72193 0.0
Cd1262 Cd 0.8463 0.60791 0.73303 0.0
O1263 O 0.82282 0.60084 0.75518 0.0
O1264 O 0.8544 0.53845 0.725 0.0
O1265 O 0.86855 0.56572 0.74142 0.0
C1266 C 0.86792 0.54549 0.73861 0.0
C1267 C 0.87821 0.62709 0.73378 0.0
C1268 C 0.81016 0.58551 0.7516 0.0
C1269 C 0.83244 0.60021 0.68912 0.0
O1270 O 0.83192 0.61239 0.70496 0.0
O1271 O 0.84038 0.58167 0.69089 0.0
O1272 O 0.86045 0.6357 0.73894 0.0
O1273 O 0.87827 0.60698 0.73035 0.0
O1274 O 0.6737 0.08255 0.9541 0.0
Cd1275 Cd 0.67847 0.09746 0.98184 0.0
Cd1276 Cd 0.71777 0.09291 0.971 0.0
O1277 O 0.70479 0.0894 0.93997 0.0
O1278 O 0.65065 0.11156 0.98752 0.0
O1279 O 0.67926 0.12945 0.97874 0.0
C1280 C 0.65915 0.12929 0.98208 0.0
C1281 C 0.73981 0.11807 0.98834 0.0
C1282 C 0.68598 0.08206 0.93835 0.0
C1283 C 0.69977 0.06098 1.00111 0.0
O1284 O 0.71418 0.06515 0.98772 0.0
O1285 O 0.68492 0.07427 1.00441 0.0
O1286 O 0.74763 0.10455 0.97512 0.0
O1287 O 0.71947 0.11852 0.99012 0.0
O1288 O 0.71869 0.46321 0.23842 0.0
Cd1289 Cd 0.69213 0.4686 0.22036 0.0
Cd1290 Cd 0.68615 0.42854 0.22981 0.0
O1291 O 0.70969 0.43262 0.25253 0.0
O1292 O 0.68499 0.49954 0.22518 0.0
O1293 O 0.6643 0.47352 0.23581 0.0
C1294 C 0.66845 0.49354 0.23554 0.0
C1295 C 0.65418 0.40947 0.23038 0.0
C1296 C 0.72279 0.44785 0.25067 0.0
C1297 C 0.7027 0.43803 0.18652 0.0
O1298 O 0.70043 0.42491 0.20145 0.0
O1299 O 0.69719 0.45736 0.18899 0.0
O1300 O 0.67203 0.40055 0.23441 0.0
O1301 O 0.65406 0.42974 0.2281 0.0
O1302 O 0.17257 0.45324 0.0778 0.0
Cd1303 Cd 0.17792 0.43796 0.05035 0.0
Cd1304 Cd 0.21667 0.44132 0.06242 0.0
O1305 O 0.20256 0.4444 0.09306 0.0
O1306 O 0.15054 0.42315 0.04403 0.0
O1307 O 0.1792 0.40611 0.05423 0.0
C1308 C 0.15924 0.40571 0.0501 0.0
C1309 C 0.23977 0.41658 0.04586 0.0
C1310 C 0.18412 0.4527 0.0941 0.0
C1311 C 0.20072 0.4737 0.03174 0.0
O1312 O 0.21422 0.46932 0.04596 0.0
O1313 O 0.18571 0.46077 0.02777 0.0
O1314 O 0.24673 0.4299 0.05973 0.0
O1315 O 0.21958 0.41609 0.04284 0.0
O1316 O 0.81541 0.96464 0.79678 0.0
Cd1317 Cd 0.8434 0.96742 0.81318 0.0
Cd1318 Cd 0.84686 0.92838 0.80169 0.0
O1319 O 0.82369 0.9356 0.77931 0.0
O1320 O 0.8547 0.99751 0.81025 0.0
O1321 O 0.86874 0.97025 0.79373 0.0
C1322 C 0.86817 0.99047 0.79658 0.0
C1323 C 0.87896 0.90961 0.80126 0.0
C1324 C 0.81085 0.95074 0.783 0.0
C1325 C 0.83222 0.9353 0.84542 0.0
O1326 O 0.83203 0.92332 0.82942 0.0
O1327 O 0.84014 0.9539 0.84402 0.0
O1328 O 0.86141 0.90087 0.79558 0.0
O1329 O 0.87875 0.92968 0.80493 0.0
O1330 O 0.22023 0.57064 0.29728 0.0
Cd1331 Cd 0.19221 0.56801 0.31373 0.0
Cd1332 Cd 0.1891 0.60705 0.30231 0.0
O1333 O 0.21205 0.59969 0.27978 0.0
O1334 O 0.18079 0.53795 0.31084 0.0
O1335 O 0.16682 0.56524 0.29431 0.0
C1336 C 0.16732 0.54501 0.29719 0.0
C1337 C 0.15726 0.62625 0.30214 0.0
C1338 C 0.22482 0.58448 0.28344 0.0
C1339 C 0.20361 0.59998 0.34601 0.0
O1340 O 0.20409 0.61191 0.32999 0.0
O1341 O 0.19541 0.58151 0.3446 0.0
O1342 O 0.17489 0.63477 0.29642 0.0
O1343 O 0.1572 0.60615 0.30566 0.0
C1344 C 0.02015 0.31843 0.02862 0.0
C1345 C 0.02477 0.33736 0.03934 0.0
C1346 C 1.01415 0.31843 1.00725 0.0
C1347 C 1.01312 0.33727 0.99545 0.0
H1348 H 0.02116 0.30346 0.03682 0.0
H1349 H 1.01028 0.30344 0.99991 0.0
S1350 S 0.02464 0.39107 1.01584 0.0
N1351 N 0.02839 0.37547 0.0364 0.0
N1352 N 0.01752 0.37544 0.99619 0.0
C1353 C 0.01807 0.35631 1.00588 0.0
C1354 C 0.02373 0.35635 0.02782 0.0
C1355 C 0.96684 0.26452 0.25752 0.0
C1356 C 0.94793 0.26189 0.24611 0.0
C1357 C 0.96675 0.27063 0.27886 0.0
C1358 C 0.94773 0.27372 0.28996 0.0
H1359 H 0.9819 0.26186 0.24986 0.0
H1360 H 0.98175 0.27292 0.28675 0.0
S1361 S 0.8938 0.2685 0.26761 0.0
N1362 N 0.90958 0.2628 0.24765 0.0
N1363 N 0.90941 0.2738 0.28783 0.0
C1364 C 0.92868 0.27092 0.27884 0.0
C1365 C 0.92878 0.26518 0.25693 0.0
C1366 C 1.01495 0.1818 0.52965 0.0
C1367 C 1.01247 0.20077 0.54104 0.0
C1368 C 0.02103 0.1819 0.50822 0.0
C1369 C 0.02515 0.20095 0.49745 0.0
H1370 H 1.01157 0.16681 0.53714 0.0
H1371 H 0.02294 0.1669 0.50018 0.0
S1372 S 0.02139 0.25487 0.52028 0.0
N1373 N 1.01477 0.23906 0.53992 0.0
N1374 N 0.02652 0.23926 0.50004 0.0
C1375 C 0.02296 0.21998 0.50879 0.0
C1376 C 1.01655 0.21987 0.53044 0.0
C1377 C 0.10371 0.26575 0.77685 0.0
C1378 C 0.08474 0.26152 0.78771 0.0
C1379 C 0.10372 0.27157 0.75536 0.0
C1380 C 0.08472 0.27369 0.74396 0.0
H1381 H 0.11873 0.26412 0.78489 0.0
H1382 H 0.11865 0.27504 0.74781 0.0
S1383 S 0.0308 0.26446 0.76497 0.0
N1384 N 0.04649 0.25969 0.78522 0.0
N1385 N 0.04648 0.27104 0.74521 0.0
C1386 C 0.0657 0.26954 0.75466 0.0
C1387 C 0.0657 0.26336 0.77638 0.0
C1388 C 1.01369 0.68266 0.02762 0.0
C1389 C 1.01044 0.7017 0.03868 0.0
C1390 C 0.01964 0.68262 1.00618 0.0
C1391 C 0.02294 0.70162 0.99506 0.0
H1392 H 1.01109 0.66765 0.03543 0.0
H1393 H 0.02222 0.66758 0.99842 0.0
S1394 S 1.01675 0.75572 1.01677 0.0
N1395 N 1.01084 0.74004 0.03676 0.0
N1396 N 0.02262 0.73996 0.99684 0.0
C1397 C 0.0199 0.72073 1.006 0.0
C1398 C 1.0135 0.72077 0.02767 0.0
C1399 C 0.56523 0.27114 0.25626 0.0
C1400 C 0.58409 0.27274 0.24456 0.0
C1401 C 0.56526 0.26474 0.27751 0.0
C1402 C 0.58422 0.26028 0.28823 0.0
H1403 H 0.55022 0.27486 0.24891 0.0
H1404 H 0.5503 0.26331 0.28565 0.0
S1405 S 0.63798 0.26194 0.26497 0.0
N1406 N 0.6223 0.26908 0.24538 0.0
N1407 N 0.62238 0.2575 0.28539 0.0
C1408 C 0.60321 0.26191 0.27681 0.0
C1409 C 0.60316 0.26797 0.25498 0.0
C1410 C 0.02146 0.81713 0.52695 0.0
C1411 C 0.02445 0.83605 0.53827 0.0
C1412 C 1.01513 0.81725 0.50568 0.0
C1413 C 1.01215 0.8363 0.49457 0.0
H1414 H 0.024 0.80204 0.53462 0.0
H1415 H 1.01253 0.80226 0.49785 0.0
S1416 S 0.01835 0.89025 0.51671 0.0
N1417 N 0.02406 0.87443 0.53665 0.0
N1418 N 1.01262 0.87465 0.4966 0.0
C1419 C 1.01535 0.85535 0.5056 0.0
C1420 C 0.02132 0.85523 0.52744 0.0
C1421 C 0.46851 0.26559 0.7554 0.0
C1422 C 0.44963 0.26079 0.7447 0.0
C1423 C 0.46843 0.27207 0.77662 0.0
C1424 C 0.44954 0.27342 0.78829 0.0
H1425 H 0.48351 0.26435 0.74728 0.0
H1426 H 0.48337 0.27606 0.78396 0.0
S1427 S 0.39584 0.26167 0.76791 0.0
N1428 N 0.41152 0.2574 0.74751 0.0
N1429 N 0.41138 0.26915 0.78747 0.0
C1430 C 0.43055 0.26831 0.77789 0.0
C1431 C 0.4306 0.26216 0.75609 0.0
C1432 C 1.00585 1.01315 0.35266 0.0
C1433 C 0.99462 1.01071 0.33361 0.0
C1434 C 0.02733 0.01902 0.35275 0.0
C1435 C 0.0383 0.023 0.3338 0.0
H1436 H 0.99816 1.00998 0.3676 0.0
H1437 H 0.03523 0.02098 0.36779 0.0
S1438 S 1.0161 0.01895 0.27971 0.0
N1439 N 0.99621 1.01259 0.29533 0.0
N1440 N 0.0362 0.0241 0.29551 0.0
C1441 C 0.02718 0.02073 0.31469 0.0
C1442 C 1.00549 1.01446 0.3146 0.0
C1443 C 0.2628 0.27865 0.6018 0.0
C1444 C 0.25994 0.28988 0.58281 0.0
C1445 C 0.26886 0.25722 0.60177 0.0
C1446 C 0.27263 0.24629 0.58275 0.0
H1447 H 0.25982 0.2863 0.61681 0.0
H1448 H 0.27113 0.24933 0.61677 0.0
S1449 S 0.26749 0.26851 0.52876 0.0
N1450 N 0.26119 0.28833 0.5445 0.0
N1451 N 0.27308 0.24844 0.54445 0.0
C1452 C 0.26994 0.25741 0.56369 0.0
C1453 C 0.26347 0.27906 0.56372 0.0
C1454 C 1.00664 0.51509 0.81692 0.0
C1455 C 0.99549 0.51191 0.8359 0.0
C1456 C 0.02793 0.52132 0.81691 0.0
C1457 C 0.03924 0.52406 0.83586 0.0
H1458 H 0.99883 0.51274 0.80188 0.0
H1459 H 0.03562 0.52402 0.80186 0.0
S1460 S 0.01759 0.51731 0.88992 0.0
N1461 N 0.99748 0.51183 0.87423 0.0
N1462 N 0.03756 0.52318 0.8742 0.0
C1463 C 0.02837 0.52071 0.85498 0.0
C1464 C 1.00651 0.51479 0.855 0.0
C1465 C 0.77074 0.25799 0.06575 0.0
C1466 C 0.7737 0.24666 0.08466 0.0
C1467 C 0.76435 0.27925 0.06587 0.0
C1468 C 0.76128 0.29034 0.0849 0.0
H1469 H 0.77336 0.25032 0.05068 0.0
H1470 H 0.76177 0.28708 0.05088 0.0
S1471 S 0.76739 0.26821 0.13882 0.0
N1472 N 0.77319 0.24827 0.12302 0.0
N1473 N 0.76165 0.28832 0.12322 0.0
C1474 C 0.76445 0.27932 0.10395 0.0
C1475 C 0.77048 0.25748 0.10383 0.0
C1476 C 0.02807 1.01455 0.71796 0.0
C1477 C 0.03924 1.01158 0.69895 0.0
C1478 C 1.00685 0.02104 0.71803 0.0
C1479 C 0.99563 0.0242 0.69909 0.0
H1480 H 0.03583 1.01185 0.73297 0.0
H1481 H 0.99914 0.02358 0.73309 0.0
S1482 S 1.01735 0.01816 0.64498 0.0
N1483 N 0.03735 1.01222 0.66062 0.0
N1484 N 0.99739 0.02394 0.66075 0.0
C1485 C 1.0065 0.02105 0.67995 0.0
C1486 C 0.0283 1.01492 0.67988 0.0
C1487 C 0.26421 0.2573 0.96759 0.0
C1488 C 0.26135 0.24603 0.94863 0.0
C1489 C 0.2704 0.27863 0.96756 0.0
C1490 C 0.27333 0.28984 0.94857 0.0
H1491 H 0.26168 0.24955 0.98263 0.0
H1492 H 0.27291 0.28644 0.98258 0.0
S1493 S 0.26738 0.26785 0.89456 0.0
N1494 N 0.26179 0.2478 0.91029 0.0
N1495 N 0.27294 0.28796 0.91023 0.0
C1496 C 0.27025 0.27886 0.92948 0.0
C1497 C 0.26444 0.25696 0.92951 0.0
C1498 C 0.02844 0.51561 0.21824 0.0
C1499 C 0.03923 0.51086 0.1994 0.0
C1500 C 1.00711 0.52171 0.2181 0.0
C1501 C 0.99542 0.5227 0.19919 0.0
H1502 H 0.03657 0.51464 0.23325 0.0
H1503 H 0.99969 0.52571 0.233 0.0
S1504 S 1.01601 0.51079 0.1456 0.0
N1505 N 0.03648 0.50704 0.16132 0.0
N1506 N 0.99632 0.51808 0.16108 0.0
C1507 C 1.00592 0.51759 0.18025 0.0
C1508 C 0.02781 0.51184 0.18036 0.0
C1509 C 0.76249 0.25755 0.46779 0.0
C1510 C 0.76137 0.24585 0.44888 0.0
C1511 C 0.76863 0.27889 0.4679 0.0
C1512 C 0.77329 0.2897 0.44905 0.0
H1513 H 0.75857 0.25013 0.48271 0.0
H1514 H 0.76969 0.28702 0.48291 0.0
S1515 S 0.77301 0.26646 0.39524 0.0
N1516 N 0.76578 0.24676 0.41075 0.0
N1517 N 0.77689 0.28694 0.41094 0.0
C1518 C 0.77219 0.27827 0.43 0.0
C1519 C 0.76639 0.25636 0.42992 0.0
C1520 C 0.3529 1.00602 1.01328 0.0
C1521 C 0.33394 0.99474 1.01036 0.0
C1522 C 0.35281 0.02756 0.019 0.0
C1523 C 0.33375 0.03856 0.02234 0.0
H1524 H 0.36794 0.99832 1.01059 0.0
H1525 H 0.36778 0.03548 0.02136 0.0
S1526 S 0.27982 1.01624 1.01695 0.0
N1527 N 0.29562 0.99631 1.01118 0.0
N1528 N 0.29545 0.0364 0.02238 0.0
C1529 C 0.31474 0.02738 0.01961 0.0
C1530 C 0.31482 1.00562 1.01351 0.0
C1531 C 0.81676 0.02938 0.52091 0.0
C1532 C 0.83574 0.0406 0.52379 0.0
C1533 C 0.81672 1.00805 0.51471 0.0
C1534 C 0.83568 0.9968 0.51177 0.0
H1535 H 0.80173 0.03716 0.52345 0.0
H1536 H 0.80168 1.00029 0.51221 0.0
S1537 S 0.88975 0.01866 0.51771 0.0
N1538 N 0.87407 0.03875 0.52332 0.0
N1539 N 0.87402 0.9986 0.51214 0.0
C1540 C 0.8548 1.00774 0.51484 0.0
C1541 C 0.85483 0.02964 0.52067 0.0
C1542 C 0.27933 0.06735 0.76413 0.0
C1543 C 0.29046 0.0864 0.76122 0.0
C1544 C 0.25806 0.06722 0.77048 0.0
C1545 C 0.24677 0.08615 0.77354 0.0
H1546 H 0.28714 0.05235 0.76146 0.0
H1547 H 0.25037 0.05214 0.77296 0.0
S1548 S 0.26841 0.14035 0.76763 0.0
N1549 N 0.2885 0.12475 0.76184 0.0
N1550 N 0.24845 0.12452 0.77329 0.0
C1551 C 0.25763 0.10533 0.77048 0.0
C1552 C 0.27947 0.10545 0.7645 0.0
C1553 C 0.18217 0.50632 0.01862 0.0
C1554 C 0.20112 0.49526 0.02231 0.0
C1555 C 0.18228 0.52777 1.01263 0.0
C1556 C 0.20134 0.5389 1.00976 0.0
H1557 H 0.16713 0.49852 0.02093 0.0
H1558 H 0.16731 0.53554 1.00973 0.0
S1559 S 0.25525 0.51713 1.01706 0.0
N1560 N 0.23944 0.49715 0.02263 0.0
N1561 N 0.23964 0.53709 1.01089 0.0
C1562 C 0.22036 0.52794 1.01319 0.0
C1563 C 0.22024 0.50626 0.01958 0.0
C1564 C 0.27766 0.93139 0.26991 0.0
C1565 C 0.28873 0.95043 0.27317 0.0
C1566 C 0.25612 0.93134 0.26426 0.0
C1567 C 0.24492 0.95035 0.2613 0.0
H1568 H 0.28553 0.91638 0.27226 0.0
H1569 H 0.24836 0.91632 0.26163 0.0
S1570 S 0.26661 1.00445 0.26771 0.0
N1571 N 0.28671 0.98877 0.27314 0.0
N1572 N 0.24663 0.98869 0.26201 0.0
C1573 C 0.25587 0.96945 0.26439 0.0
C1574 C 0.27763 0.9695 0.27045 0.0
C1575 C 0.71823 1.00696 0.01989 0.0
C1576 C 0.6993 0.99571 0.02299 0.0
C1577 C 0.71819 0.0282 1.01344 0.0
C1578 C 0.6992 0.03936 1.0104 0.0
H1579 H 0.7333 0.99926 0.02246 0.0
H1580 H 0.7332 0.03596 1.01083 0.0
S1581 S 0.64521 1.0174 1.01676 0.0
N1582 N 0.66096 0.99744 0.02262 0.0
N1583 N 0.66086 0.03744 1.01087 0.0
C1584 C 0.68012 0.02839 1.01365 0.0
C1585 C 0.68016 1.00658 0.01979 0.0
C1586 C 0.27788 0.46927 0.7699 0.0
C1587 C 0.28859 0.45035 0.77455 0.0
C1588 C 0.25662 0.46922 0.76354 0.0
C1589 C 0.24491 0.45033 0.76218 0.0
H1590 H 0.28603 0.48426 0.77114 0.0
H1591 H 0.24928 0.48419 0.75963 0.0
S1592 S 0.26529 0.39654 0.77364 0.0
N1593 N 0.28573 0.4122 0.77784 0.0
N1594 N 0.24571 0.41214 0.76633 0.0
C1595 C 0.25532 0.43131 0.76718 0.0
C1596 C 0.27715 0.43132 0.7732 0.0
C1597 C 0.75494 0.10476 0.26921 0.0
C1598 C 0.7434 0.08585 0.27145 0.0
C1599 C 0.77645 0.10457 0.26343 0.0
C1600 C 0.78718 0.08548 0.25936 0.0
H1601 H 0.74749 0.11979 0.27257 0.0
H1602 H 0.78461 0.11952 0.26171 0.0
S1603 S 0.76403 0.03167 0.26266 0.0
N1604 N 0.74438 0.04755 0.26906 0.0
N1605 N 0.78441 0.0472 0.25783 0.0
C1606 C 0.77571 0.06652 0.26132 0.0
C1607 C 0.75397 0.0667 0.26745 0.0
C1608 C 0.96844 0.77224 0.77603 0.0
C1609 C 0.94961 0.77364 0.7878 0.0
C1610 C 0.96835 0.76604 0.75472 0.0
C1611 C 0.94938 0.7616 0.74404 0.0
H1612 H 0.98345 0.77596 0.78336 0.0
H1613 H 0.9833 0.76471 0.74653 0.0
S1614 S 0.8957 0.76273 0.76749 0.0
N1615 N 0.91141 0.76979 0.78709 0.0
N1616 N 0.91125 0.75857 0.74697 0.0
C1617 C 0.93041 0.76303 0.75553 0.0
C1618 C 0.93052 0.76888 0.77741 0.0
C1619 C 0.06664 0.76346 0.27798 0.0
C1620 C 0.08555 0.76229 0.28965 0.0
C1621 C 0.06653 0.76966 0.25668 0.0
C1622 C 0.08538 0.77433 0.24589 0.0
H1623 H 0.05172 0.75955 0.2854 0.0
H1624 H 0.05151 0.77079 0.24857 0.0
S1625 S 0.13921 0.77383 0.26903 0.0
N1626 N 0.1237 0.76659 0.28871 0.0
N1627 N 0.1235 0.77781 0.2486 0.0
C1628 C 0.10444 0.77314 0.25727 0.0
C1629 C 0.10452 0.76728 0.27914 0.0
C1630 C 0.60338 0.76957 0.75758 0.0
C1631 C 0.58434 0.77414 0.747 0.0
C1632 C 0.60357 0.76364 0.77904 0.0
C1633 C 0.5847 0.76178 0.79068 0.0
H1634 H 0.61832 0.771 0.74935 0.0
H1635 H 0.61855 0.75988 0.78638 0.0
S1636 S 0.53065 0.77197 0.77049 0.0
N1637 N 0.54614 0.77653 0.75002 0.0
N1638 N 0.5465 0.76509 0.79 0.0
C1639 C 0.5656 0.76629 0.78027 0.0
C1640 C 0.56541 0.77253 0.75857 0.0
C1641 C 0.43127 0.76418 0.25625 0.0
C1642 C 0.45031 0.76074 0.24526 0.0
C1643 C 0.43118 0.76999 0.27775 0.0
C1644 C 0.45016 0.77288 0.28901 0.0
H1645 H 0.41628 0.76189 0.24832 0.0
H1646 H 0.41616 0.77282 0.28541 0.0
S1647 S 0.50426 0.76586 0.26761 0.0
N1648 N 0.48862 0.76049 0.24746 0.0
N1649 N 0.48847 0.77177 0.28749 0.0
C1650 C 0.46926 0.76952 0.27817 0.0
C1651 C 0.46935 0.76337 0.25645 0.0
C1652 C 0.26916 0.75554 0.06673 0.0
C1653 C 0.27371 0.74488 0.08569 0.0
C1654 C 0.26282 0.77681 0.06666 0.0
C1655 C 0.26136 0.78858 0.08549 0.0
H1656 H 0.27051 0.74735 0.05178 0.0
H1657 H 0.25902 0.78411 0.05165 0.0
S1658 S 0.27246 0.76834 0.13938 0.0
N1659 N 0.27676 0.74783 0.12383 0.0
N1660 N 0.26525 0.78789 0.12369 0.0
C1661 C 0.26621 0.77821 0.10457 0.0
C1662 C 0.27223 0.75637 0.10467 0.0
C1663 C 0.77329 0.75688 0.60349 0.0
C1664 C 0.77491 0.74533 0.58453 0.0
C1665 C 0.76735 0.77836 0.60349 0.0
C1666 C 0.76252 0.78903 0.58456 0.0
H1667 H 0.77721 0.74946 0.61838 0.0
H1668 H 0.76606 0.78651 0.61848 0.0
S1669 S 0.76417 0.76589 0.5307 0.0
N1670 N 0.77123 0.74627 0.54636 0.0
N1671 N 0.75974 0.78626 0.54638 0.0
C1672 C 0.76395 0.77758 0.56555 0.0
C1673 C 0.77022 0.75587 0.56554 0.0
C1674 C 0.26364 0.75719 0.43215 0.0
C1675 C 0.26087 0.74608 0.45123 0.0
C1676 C 0.26975 0.77861 0.43201 0.0
C1677 C 0.27365 0.78966 0.45093 0.0
H1678 H 0.26054 0.74944 0.41721 0.0
H1679 H 0.27195 0.7864 0.41694 0.0
S1680 S 0.26879 0.76778 0.50509 0.0
N1681 N 0.26236 0.74787 0.48952 0.0
N1682 N 0.27433 0.78774 0.48925 0.0
C1683 C 0.27106 0.77866 0.47007 0.0
C1684 C 0.26455 0.75701 0.47023 0.0
C1685 C 0.76454 0.75649 0.96823 0.0
C1686 C 0.76144 0.74523 0.9493 0.0
C1687 C 0.77094 0.77776 0.96815 0.0
C1688 C 0.77386 0.78893 0.94914 0.0
H1689 H 0.76201 0.74877 0.98329 0.0
H1690 H 0.77359 0.78555 0.98316 0.0
S1691 S 0.76745 0.76695 0.89518 0.0
N1692 N 0.76174 0.74696 0.91095 0.0
N1693 N 0.77328 0.78701 0.91081 0.0
C1694 C 0.77059 0.77795 0.93008 0.0
C1695 C 0.76456 0.75611 0.93015 0.0
C1696 C 0.31576 0.52771 0.52143 0.0
C1697 C 0.33467 0.53894 0.52473 0.0
C1698 C 0.31587 0.50647 0.51497 0.0
C1699 C 0.33489 0.49529 0.51221 0.0
H1700 H 0.30068 0.53545 0.52379 0.0
H1701 H 0.30089 0.49871 0.5121 0.0
S1702 S 0.38881 0.51715 0.51931 0.0
N1703 N 0.37301 0.53714 0.5249 0.0
N1704 N 0.37321 0.49712 0.51325 0.0
C1705 C 0.35394 0.50621 0.51575 0.0
C1706 C 0.35383 0.52803 0.52183 0.0
C1707 C 0.85238 0.50703 1.01341 0.0
C1708 C 0.8334 0.49588 1.01014 0.0
C1709 C 0.85232 0.52842 0.01961 0.0
C1710 C 0.83327 0.53938 0.0231 0.0
H1711 H 0.86741 0.49934 1.01065 0.0
H1712 H 0.8673 0.53625 0.02222 0.0
S1713 S 0.7793 0.51736 1.01693 0.0
N1714 N 0.79507 0.49753 1.01079 0.0
N1715 N 0.79496 0.53736 0.02288 0.0
C1716 C 0.81423 0.52834 0.02001 0.0
C1717 C 0.81428 0.50673 1.01343 0.0
C1718 C 0.27888 0.60315 0.26446 0.0
C1719 C 0.28998 0.58411 0.26135 0.0
C1720 C 0.25747 0.60318 0.27055 0.0
C1721 C 0.24641 0.58418 0.27409 0.0
H1722 H 0.28662 0.61815 0.26165 0.0
H1723 H 0.24968 0.61823 0.27302 0.0
S1724 S 0.26826 0.53007 0.26834 0.0
N1725 N 0.28818 0.54577 0.26222 0.0
N1726 N 0.24831 0.54584 0.2741 0.0
C1727 C 0.2574 0.56507 0.27118 0.0
C1728 C 0.27904 0.56504 0.26471 0.0
C1729 C 0.21872 1.00715 0.52055 0.0
C1730 C 0.19977 0.9959 0.52354 0.0
C1731 C 0.21868 0.02847 0.51434 0.0
C1732 C 0.19969 0.03968 0.51153 0.0
H1733 H 0.23377 0.99938 0.523 0.0
H1734 H 0.23369 0.03626 0.51171 0.0
S1735 S 0.14569 0.01775 0.51783 0.0
N1736 N 0.16143 0.99769 0.52333 0.0
N1737 N 0.16136 0.03784 0.51216 0.0
C1738 C 0.18061 0.02873 0.51474 0.0
C1739 C 0.18065 1.00684 0.52056 0.0
C1740 C 0.68101 0.5309 0.51198 0.0
C1741 C 0.6998 0.54277 0.51082 0.0
C1742 C 0.68121 0.50944 0.51798 0.0
C1743 C 0.70018 0.49907 0.52333 0.0
H1744 H 0.66611 0.53806 0.50759 0.0
H1745 H 0.66633 0.50104 0.51882 0.0
S1746 S 0.75364 0.52321 0.52315 0.0
N1747 N 0.73785 0.54252 0.5156 0.0
N1748 N 0.73822 0.50257 0.52719 0.0
C1749 C 0.71901 0.51088 0.52243 0.0
C1750 C 0.71882 0.53258 0.5161 0.0
C1751 C 0.75587 0.60419 0.77006 0.0
C1752 C 0.74472 0.58515 0.77308 0.0
C1753 C 0.77734 0.60423 0.76414 0.0
C1754 C 0.78843 0.58522 0.76069 0.0
H1755 H 0.74812 0.6192 0.77284 0.0
H1756 H 0.78516 0.61926 0.76177 0.0
S1757 S 0.76645 0.53112 0.76624 0.0
N1758 N 0.7465 0.54682 0.77218 0.0
N1759 N 0.78646 0.54688 0.76066 0.0
C1760 C 0.77738 0.56613 0.7635 0.0
C1761 C 0.75568 0.56609 0.76978 0.0
C1762 C 0.51853 0.35292 0.52826 0.0
C1763 C 0.52259 0.33402 0.5393 0.0
C1764 C 0.51235 0.35269 0.50688 0.0
C1765 C 0.50965 0.33356 0.49582 0.0
H1766 H 0.52069 0.36802 0.53602 0.0
H1767 H 0.50916 0.36761 0.49912 0.0
S1768 S 0.51794 0.27975 0.51758 0.0
N1769 N 0.52348 0.29569 0.53747 0.0
N1770 N 0.51133 0.29525 0.49768 0.0
C1771 C 0.51345 0.31459 0.50677 0.0
C1772 C 0.52005 0.31483 0.52837 0.0
C1773 C 0.51865 0.18306 1.00499 0.0
C1774 C 0.52234 0.20207 0.99401 0.0
C1775 C 0.51257 0.18307 0.02639 0.0
C1776 C 0.5096 0.2021 0.03754 0.0
H1777 H 0.52102 0.16803 0.99715 0.0
H1778 H 0.50965 0.16807 0.03409 0.0
S1779 S 0.51689 0.25615 1.01601 0.0
N1780 N 0.52261 0.24041 0.99602 0.0
N1781 N 0.51063 0.24044 0.03587 0.0
C1782 C 0.51304 0.22119 0.02667 0.0
C1783 C 0.51955 0.22117 1.00505 0.0
C1784 C 0.52256 0.68062 0.50539 0.0
C1785 C 0.52393 0.69953 0.49371 0.0
C1786 C 0.51676 0.6807 0.52691 0.0
C1787 C 0.51183 0.69965 0.53753 0.0
H1788 H 0.52657 0.66571 0.49803 0.0
H1789 H 0.5157 0.66573 0.53515 0.0
S1790 S 0.51277 0.75341 0.51399 0.0
N1791 N 0.51985 0.73768 0.49444 0.0
N1792 N 0.50866 0.73782 0.53449 0.0
C1793 C 0.513 0.71861 0.52592 0.0
C1794 C 0.51911 0.71854 0.50417 0.0
C1795 C 0.51439 0.85486 1.00533 0.0
C1796 C 0.51213 0.83594 0.99378 0.0
C1797 C 0.52033 0.85466 0.0268 0.0
C1798 C 0.52448 0.83557 0.0375 0.0
H1799 H 0.51097 0.86988 0.99791 0.0
H1800 H 0.5221 0.86962 0.03495 0.0
S1801 S 0.5211 0.78176 1.01435 0.0
N1802 N 0.51462 0.79765 0.99473 0.0
N1803 N 0.52599 0.79729 0.03471 0.0
C1804 C 0.52244 0.81661 0.02603 0.0
C1805 C 0.51623 0.81681 1.00433 0.0
C1806 C 0.50619 1.01524 0.81676 0.0
C1807 C 0.4954 1.01083 0.83569 0.0
C1808 C 0.52747 0.02152 0.81678 0.0
C1809 C 0.53913 0.02305 0.83566 0.0
H1810 H 0.49808 1.01387 0.80176 0.0
H1811 H 0.53486 0.02521 0.80179 0.0
S1812 S 0.51855 1.01232 0.8895 0.0
N1813 N 0.49813 1.00799 0.87386 0.0
N1814 N 0.53821 0.01938 0.87387 0.0
C1815 C 0.52864 0.01833 0.8547 0.0
C1816 C 0.50679 1.01237 0.85472 0.0
C1817 C 0.5311 0.51874 0.31766 0.0
C1818 C 0.54204 0.52274 0.33661 0.0
C1819 C 0.50977 0.51263 0.31765 0.0
C1820 C 0.49819 0.51083 0.33655 0.0
H1821 H 0.53909 0.52044 0.30263 0.0
H1822 H 0.50225 0.50938 0.30262 0.0
S1823 S 0.51927 0.51977 0.39053 0.0
N1824 N 0.5396 0.52444 0.37487 0.0
N1825 N 0.49944 0.51334 0.37485 0.0
C1826 C 0.50888 0.51489 0.35565 0.0
C1827 C 0.53079 0.52068 0.35567 0.0
C1828 C 0.52908 1.01502 0.17944 0.0
C1829 C 0.54073 1.01319 0.19831 0.0
C1830 C 0.50752 0.02058 0.17966 0.0
C1831 C 0.49684 0.02482 0.19873 0.0
H1832 H 0.53649 1.01151 0.16444 0.0
H1833 H 0.49928 0.02199 0.16473 0.0
S1834 S 0.52031 0.02258 0.25242 0.0
N1835 N 0.53994 1.01613 0.23653 0.0
N1836 N 0.49979 0.02697 0.23694 0.0
C1837 C 0.50843 0.02326 0.21765 0.0
C1838 C 0.53022 1.01736 0.21743 0.0
C1839 C 0.5268 0.51391 0.71864 0.0
C1840 C 0.5381 0.51126 0.69967 0.0
C1841 C 0.50555 0.52028 0.71866 0.0
C1842 C 0.49445 0.52364 0.69969 0.0
H1843 H 0.53447 0.51108 0.73367 0.0
H1844 H 0.49773 0.52261 0.73369 0.0
S1845 S 0.51655 0.51855 0.64565 0.0
N1846 N 0.53647 0.51244 0.66133 0.0
N1847 N 0.49646 0.524 0.66137 0.0
C1848 C 0.50546 0.52082 0.68058 0.0
C1849 C 0.52728 0.5148 0.68057 0.0
C1850 C 0.75674 0.93178 0.76446 0.0
C1851 C 0.74555 0.95078 0.76137 0.0
C1852 C 0.7782 0.93185 0.77039 0.0
C1853 C 0.78921 0.95091 0.77377 0.0
H1854 H 0.74903 0.91675 0.76174 0.0
H1855 H 0.78606 0.91684 0.77286 0.0
S1856 S 0.76711 1.00491 0.76799 0.0
N1857 N 0.74722 0.98912 0.76209 0.0
N1858 N 0.78717 0.98925 0.77365 0.0
C1859 C 0.77813 0.96997 0.77088 0.0
C1860 C 0.75645 0.96989 0.76458 0.0
C1861 C 0.77592 0.46589 0.27191 0.0
C1862 C 0.78795 0.44718 0.27263 0.0
C1863 C 0.75468 0.46578 0.26558 0.0
C1864 C 0.74428 0.44689 0.26016 0.0
H1865 H 0.78299 0.48087 0.27627 0.0
H1866 H 0.74632 0.48069 0.26484 0.0
S1867 S 0.76842 0.39348 0.25924 0.0
N1868 N 0.78774 0.40913 0.26718 0.0
N1869 N 0.74774 0.40893 0.25555 0.0
C1870 C 0.756 0.42801 0.26091 0.0
C1871 C 0.77782 0.42815 0.26701 0.0
C1872 C 0.03702 0.26141 0.13681 0.0
C1873 C 0.03114 0.28217 0.13118 0.0
C1874 C 0.02335 0.24805 0.14847 0.0
C1875 C 1.00287 0.25459 0.15441 0.0
H1876 H 0.05242 0.25546 0.13235 0.0
H1877 H 0.02879 0.23239 0.15266 0.0
S1878 S 0.97948 0.30727 0.14326 0.0
N1879 N 1.00323 0.30849 0.13261 0.0
N1880 N 0.97756 0.28343 0.15365 0.0
C1881 C 0.99674 0.27522 0.14864 0.0
C1882 C 1.01082 0.28896 0.1373 0.0
C1883 C 0.02351 0.28731 0.3873 0.0
C1884 C 1.00287 0.28088 0.38183 0.0
C1885 C 0.03727 0.274 0.39887 0.0
C1886 C 0.03129 0.25336 0.40489 0.0
H1887 H 0.02903 0.30286 0.38279 0.0
H1888 H 0.05281 0.27986 0.40295 0.0
S1889 S 0.97917 0.22858 0.39414 0.0
N1890 N 0.97729 0.25229 0.38346 0.0
N1891 N 1.00311 0.22729 0.40436 0.0
C1892 C 1.01079 0.24668 0.39926 0.0
C1893 C 0.99664 0.26039 0.388 0.0
C1894 C 0.99585 0.26365 0.65106 0.0
C1895 C 0.99955 0.25947 0.62954 0.0
C1896 C 1.00909 0.27745 0.66265 0.0
C1897 C 0.02699 0.28707 0.6534 0.0
H1898 H 0.98269 0.25616 0.65901 0.0
H1899 H 1.00572 0.27996 0.67923 0.0
S1900 S 0.04361 0.28105 0.59752 0.0
N1901 N 0.02211 0.26637 0.59936 0.0
N1902 N 0.0474 0.29131 0.62121 0.0
C1903 C 0.03078 0.28293 0.63188 0.0
C1904 C 1.01698 0.26941 0.61997 0.0
C1905 C 0.02434 0.28805 0.89731 0.0
C1906 C 1.00395 0.28176 0.90372 0.0
C1907 C 0.03793 0.27429 0.88622 0.0
C1908 C 0.03168 0.25367 0.88051 0.0
H1909 H 0.03007 0.30369 0.90122 0.0
H1910 H 0.0534 0.28007 0.88176 0.0
S1911 S 0.97983 0.22933 0.8931 0.0
N1912 N 0.9783 0.2532 0.90355 0.0
N1913 N 1.00342 0.22776 0.88208 0.0
C1914 C 1.01125 0.24722 0.88658 0.0
C1915 C 0.99755 0.2611 0.89834 0.0
C1916 C 0.03785 0.77371 0.89683 0.0
C1917 C 0.0315 0.75319 0.90286 0.0
C1918 C 0.02438 0.78724 0.88515 0.0
C1919 C 1.00366 0.78114 0.87958 0.0
H1920 H 0.05347 0.77932 0.90099 0.0
H1921 H 0.03019 0.80268 0.88065 0.0
S1922 S 0.97902 0.72927 0.89188 0.0
N1923 N 1.00287 0.7276 0.90224 0.0
N1924 N 0.9776 0.75298 0.88114 0.0
C1925 C 0.99707 0.76077 0.88577 0.0
C1926 C 1.01092 0.74685 0.89714 0.0
C1927 C 0.5344 0.26218 0.1465 0.0
C1928 C 0.52822 0.28259 0.15294 0.0
C1929 C 0.52059 0.24869 0.13534 0.0
C1930 C 0.50005 0.2551 0.12958 0.0
H1931 H 0.54998 0.25633 0.15046 0.0
H1932 H 0.52627 0.23319 0.13085 0.0
S1933 S 0.47605 0.30711 0.14221 0.0
N1934 N 0.49988 0.30845 0.15275 0.0
N1935 N 0.47435 0.28354 0.13112 0.0
C1936 C 0.49373 0.27557 0.13568 0.0
C1937 C 0.50764 0.28915 0.14752 0.0
C1938 C 0.02298 0.78726 0.39763 0.0
C1939 C 1.00249 0.78093 0.40369 0.0
C1940 C 0.03676 0.77355 0.38674 0.0
C1941 C 0.03063 0.75293 0.38087 0.0
H1942 H 0.02863 0.8029 0.40168 0.0
H1943 H 0.05229 0.77935 0.38254 0.0
S1944 S 0.9786 0.72851 0.39255 0.0
N1945 N 0.97688 0.75235 0.40304 0.0
N1946 N 1.00237 0.72699 0.38191 0.0
C1947 C 1.0101 0.74645 0.38659 0.0
C1948 C 0.9962 0.76027 0.39816 0.0
C1949 C 0.5392 0.26205 0.63684 0.0
C1950 C 0.5324 0.28235 0.63058 0.0
C1951 C 0.52588 0.24822 0.64835 0.0
C1952 C 0.50489 0.25375 0.65349 0.0
H1953 H 0.55504 0.25687 0.63303 0.0
H1954 H 0.53202 0.23298 0.65309 0.0
S1955 S 0.47906 0.30481 0.64036 0.0
N1956 N 0.50306 0.3071 0.63046 0.0
N1957 N 0.47809 0.28113 0.65123 0.0
C1958 C 0.49785 0.27388 0.64703 0.0
C1959 C 0.51153 0.28812 0.63585 0.0
C1960 C 0.13607 0.03723 0.26149 0.0
C1961 C 0.13024 0.03095 0.28208 0.0
C1962 C 0.14749 0.02365 0.24785 0.0
C1963 C 0.15302 1.0029 0.2539 0.0
H1964 H 0.13195 0.05286 0.25591 0.0
H1965 H 0.15186 0.0294 0.23235 0.0
S1966 S 0.14117 0.97841 0.30594 0.0
N1967 N 0.13099 1.00235 0.30768 0.0
N1968 N 0.15163 0.97689 0.28211 0.0
C1969 C 0.14703 0.99637 0.27435 0.0
C1970 C 0.13591 1.01033 0.28837 0.0
C1971 C 0.27164 0.38785 0.53552 0.0
C1972 C 0.25118 0.38191 0.52902 0.0
C1973 C 0.28558 0.39875 0.52196 0.0
C1974 C 0.27961 0.40475 0.50135 0.0
H1975 H 0.27718 0.38367 0.55116 0.0
H1976 H 0.30109 0.40284 0.52788 0.0
S1977 S 0.22769 0.39345 0.47656 0.0
N1978 N 0.22577 0.38284 0.50031 0.0
N1979 N 0.25153 0.404 0.47524 0.0
C1980 C 0.2591 0.39917 0.49471 0.0
C1981 C 0.24506 0.38759 0.50838 0.0
C1982 C 0.88689 0.53695 0.77261 0.0
C1983 C 0.88096 0.53083 0.75203 0.0
C1984 C 0.898 0.52321 0.7862 0.0
C1985 C 0.90423 0.5028 0.77974 0.0
H1986 H 0.88257 0.55242 0.77849 0.0
H1987 H 0.90208 0.52883 0.80183 0.0
S1988 S 0.89302 0.479 0.72733 0.0
N1989 N 0.88212 0.50268 0.72598 0.0
N1990 N 0.90367 0.47729 0.75108 0.0
C1991 C 0.89864 0.49654 0.75911 0.0
C1992 C 0.88684 0.51038 0.74543 0.0
C1993 C 0.78783 0.14876 1.00982 0.0
C1994 C 0.78139 0.15488 0.03027 0.0
C1995 C 0.77444 0.13693 0.99634 0.0
C1996 C 0.75373 0.13131 1.00239 0.0
H1997 H 0.80345 0.15293 1.00426 0.0
H1998 H 0.78032 0.13232 0.98095 0.0
S1999 S 0.72888 0.14384 0.05406 0.0
N2000 N 0.75269 0.15431 0.05575 0.0
N2001 N 0.72756 0.13294 0.03042 0.0
C2002 C 0.74703 0.13761 0.02268 0.0
C2003 C 0.76081 0.14912 0.03657 0.0
C2004 C 0.14888 1.01098 0.78686 0.0
C2005 C 0.15472 0.0316 0.78065 0.0
C2006 C 0.13707 0.99755 0.77341 0.0
C2007 C 0.13118 1.00383 0.75284 0.0
H2008 H 0.15327 1.00523 0.80236 0.0
H2009 H 0.13271 0.98202 0.77911 0.0
S2010 S 0.1429 0.05603 0.72861 0.0
N2011 N 0.15358 0.05749 0.75233 0.0
N2012 N 0.13224 0.03227 0.72707 0.0
C2013 C 0.13718 0.0243 0.74638 0.0
C2014 C 0.14868 0.03814 0.76023 0.0
C2015 C 0.24828 0.39788 1.0117 0.0
C2016 C 0.25446 0.40372 0.0323 0.0
C2017 C 0.26203 0.38701 0.99795 0.0
C2018 C 0.28252 0.38092 1.00423 0.0
H2019 H 0.23275 0.40211 1.00594 0.0
H2020 H 0.25635 0.38298 0.98233 0.0
S2021 S 0.30651 0.39196 0.05658 0.0
N2022 N 0.28275 0.40262 0.05817 0.0
N2023 N 0.30818 0.38151 0.03273 0.0
C2024 C 0.28885 0.38641 0.02487 0.0
C2025 C 0.27499 0.39797 0.03873 0.0
C2026 C 0.89696 0.53671 0.27228 0.0
C2027 C 0.90327 0.5303 0.25187 0.0
C2028 C 0.88519 0.52321 0.28571 0.0
C2029 C 0.87981 0.50242 0.27964 0.0
H2030 H 0.90095 0.55239 0.27785 0.0
H2031 H 0.88046 0.52905 0.30107 0.0
S2032 S 0.8929 0.47761 0.22808 0.0
N2033 N 0.90313 0.50155 0.22643 0.0
N2034 N 0.88187 0.47622 0.25165 0.0
C2035 C 0.88629 0.49576 0.2594 0.0
C2036 C 0.89775 0.50964 0.24556 0.0
C2037 C 0.7863 0.13776 0.51172 0.0
C2038 C 0.78001 0.13184 0.53226 0.0
C2039 C 0.77259 0.14861 0.49791 0.0
C2040 C 0.75204 0.15459 0.50406 0.0
H2041 H 0.8019 0.13362 0.50606 0.0
H2042 H 0.77837 0.1527 0.48233 0.0
S2043 S 0.72774 0.1433 0.55623 0.0
N2044 N 0.75153 0.13274 0.55795 0.0
N2045 N 0.72619 0.15381 0.5324 0.0
C2046 C 0.74559 0.14901 0.52464 0.0
C2047 C 0.75941 0.13747 0.53857 0.0
C2048 C 0.27266 0.14807 0.99768 0.0
C2049 C 0.2522 0.15423 1.00398 0.0
C2050 C 0.28628 0.13689 1.01132 0.0
C2051 C 0.28 0.13081 0.03181 0.0
H2052 H 0.27842 0.15225 0.98213 0.0
H2053 H 0.30181 0.13263 1.00553 0.0
S2054 S 0.22796 0.14263 0.05611 0.0
N2055 N 0.22645 0.15344 0.0324 0.0
N2056 N 0.25163 0.13177 0.05761 0.0
C2057 C 0.25949 0.13663 0.03827 0.0
C2058 C 0.24577 0.1485 0.02452 0.0
C2059 C 0.74755 0.88745 0.51233 0.0
C2060 C 0.75411 0.88135 0.53275 0.0
C2061 C 0.7609 0.89917 0.49871 0.0
C2062 C 0.78168 0.90472 0.5046 0.0
H2063 H 0.73188 0.88333 0.50688 0.0
H2064 H 0.75494 0.90375 0.48335 0.0
S2065 S 0.80685 0.8922 0.55612 0.0
N2066 N 0.783 0.88185 0.55801 0.0
N2067 N 0.80804 0.90303 0.53245 0.0
C2068 C 0.78849 0.89845 0.52486 0.0
C2069 C 0.77476 0.88703 0.53888 0.0
C2070 C 0.38703 0.03688 0.77182 0.0
C2071 C 0.3813 0.03093 0.75113 0.0
C2072 C 0.39795 0.023 0.78542 0.0
C2073 C 0.40419 1.00264 0.77887 0.0
H2074 H 0.3827 0.05232 0.77778 0.0
H2075 H 0.40189 0.0285 0.80113 0.0
S2076 S 0.39347 0.97926 0.72617 0.0
N2077 N 0.38264 1.00298 0.72488 0.0
N2078 N 0.40387 0.97734 0.75002 0.0
C2079 C 0.3988 0.99654 0.75814 0.0
C2080 C 0.38719 1.01052 0.74443 0.0
C2081 C 0.24938 0.63664 0.0215 0.0
C2082 C 0.25564 0.63092 1.0009 0.0
C2083 C 0.26302 0.64762 0.03529 0.0
C2084 C 0.28344 0.65395 0.02903 0.0
H2085 H 0.23388 0.63223 0.02724 0.0
H2086 H 0.25729 0.65155 0.05093 0.0
S2087 S 0.30757 0.64331 0.97666 0.0
N2088 N 0.28393 0.63238 0.97504 0.0
N2089 N 0.30912 0.65373 1.00053 0.0
C2090 C 0.28984 0.64858 1.00838 0.0
C2091 C 0.27611 0.6369 0.99449 0.0
C2092 C 0.77502 0.89861 0.03684 0.0
C2093 C 0.75428 0.90414 0.03082 0.0
C2094 C 0.78843 0.88685 0.02332 0.0
C2095 C 0.78198 0.88072 1.00288 0.0
H2096 H 0.78089 0.90322 0.05222 0.0
H2097 H 0.80407 0.88274 0.02886 0.0
S2098 S 0.7294 0.89155 0.97917 0.0
N2099 N 0.72808 0.90242 1.00283 0.0
N2100 N 0.75325 0.88119 0.97744 0.0
C2101 C 0.76137 0.8864 0.99661 0.0
C2102 C 0.74758 0.89784 1.01053 0.0
C2103 C 0.38641 0.50022 0.763 0.0
C2104 C 0.38025 0.50665 0.78342 0.0
C2105 C 0.39756 0.5138 0.74928 0.0
C2106 C 0.40362 0.53435 0.75544 0.0
H2107 H 0.38222 0.48462 0.75734 0.0
H2108 H 0.40181 0.50793 0.73379 0.0
S2109 S 0.39183 0.55896 0.80734 0.0
N2110 N 0.38103 0.53524 0.809 0.0
N2111 N 0.40269 0.56033 0.78366 0.0
C2112 C 0.39783 0.54092 0.77591 0.0
C2113 C 0.38597 0.52725 0.78973 0.0
C2114 C 0.65114 0.9975 0.26041 0.0
C2115 C 0.6294 1.00054 0.2569 0.0
C2116 C 0.66264 1.01075 0.27428 0.0
C2117 C 0.65305 0.02805 0.28463 0.0
H2118 H 0.65933 0.98485 0.25233 0.0
H2119 H 0.67938 1.00788 0.27628 0.0
S2120 S 0.59653 0.04293 0.2805 0.0
N2121 N 0.59869 0.02188 0.26521 0.0
N2122 N 0.62035 0.04726 0.29024 0.0
C2123 C 0.63133 0.03122 0.28115 0.0
C2124 C 0.61952 1.01737 0.26758 0.0
C2125 C 1.01269 0.78614 0.63581 0.0
C2126 C 0.03318 0.77985 0.62975 0.0
C2127 C 0.99902 0.77246 0.64688 0.0
C2128 C 1.00528 0.75195 0.65295 0.0
H2129 H 1.00695 0.8017 0.63162 0.0
H2130 H 0.98347 0.77822 0.65107 0.0
S2131 S 0.05739 0.7277 0.64136 0.0
N2132 N 0.05894 0.75144 0.63061 0.0
N2133 N 0.03366 0.72615 0.65211 0.0
C2134 C 0.02582 0.74552 0.64724 0.0
C2135 C 0.0396 0.7593 0.63547 0.0
C2136 C 1.00925 0.78766 0.14903 0.0
C2137 C 0.03007 0.78174 0.15435 0.0
C2138 C 0.9958 0.77411 0.13733 0.0
C2139 C 1.00231 0.75371 0.13106 0.0
H2140 H 1.00332 0.803 0.15375 0.0
H2141 H 0.9801 0.77958 0.13338 0.0
S2142 S 0.05511 0.73026 0.1413 0.0
N2143 N 0.0564 0.75389 0.15226 0.0
N2144 N 0.03118 0.72843 0.13115 0.0
C2145 C 0.023 0.74754 0.13652 0.0
C2146 C 0.03682 0.7615 0.1479 0.0
C2147 C 0.49836 0.77285 0.63639 0.0
C2148 C 0.50486 0.75232 0.63056 0.0
C2149 C 0.51165 0.78653 0.64812 0.0
C2150 C 0.53233 0.78058 0.65397 0.0
H2151 H 0.48277 0.77836 0.63204 0.0
H2152 H 0.50573 0.80197 0.65247 0.0
S2153 S 0.55731 0.72874 0.64228 0.0
N2154 N 0.53358 0.72688 0.63167 0.0
N2155 N 0.55852 0.75253 0.65287 0.0
C2156 C 0.53908 0.76019 0.64798 0.0
C2157 C 0.52541 0.74613 0.63654 0.0
C2158 C 0.52387 0.74745 0.14702 0.0
C2159 C 0.50328 0.75368 0.15289 0.0
C2160 C 0.53738 0.76101 0.13542 0.0
C2161 C 0.53121 0.7817 0.1298 0.0
H2162 H 0.52953 0.73187 0.15122 0.0
H2163 H 0.55289 0.7553 0.13102 0.0
S2164 S 0.47915 0.80602 0.14171 0.0
N2165 N 0.47754 0.78214 0.15207 0.0
N2166 N 0.50292 0.8076 0.13114 0.0
C2167 C 0.51077 0.78818 0.13584 0.0
C2168 C 0.49687 0.77422 0.14711 0.0
C2169 C 0.13675 0.51295 0.78627 0.0
C2170 C 0.13047 0.53333 0.77982 0.0
C2171 C 0.14783 0.49921 0.77267 0.0
C2172 C 0.1537 0.50532 0.75206 0.0
H2173 H 0.13271 0.50733 0.80192 0.0
H2174 H 0.15218 0.48375 0.77856 0.0
S2175 S 0.1415 0.55709 0.72735 0.0
N2176 N 0.13091 0.55882 0.75113 0.0
N2177 N 0.15243 0.53343 0.72598 0.0
C2178 C 0.14777 0.52575 0.74546 0.0
C2179 C 0.13599 0.53959 0.75916 0.0
C2180 C 0.27247 0.88586 0.03587 0.0
C2181 C 0.25197 0.87974 0.02965 0.0
C2182 C 0.28615 0.8968 0.02209 0.0
C2183 C 0.27988 0.90268 1.00154 0.0
H2184 H 0.27821 0.8818 0.05146 0.0
H2185 H 0.3017 0.90105 0.02781 0.0
S2186 S 0.22775 0.89089 0.97743 0.0
N2187 N 0.2262 0.88035 1.00125 0.0
N2188 N 0.25148 0.90161 0.97578 0.0
C2189 C 0.25933 0.89691 0.99517 0.0
C2190 C 0.24555 0.88528 1.00906 0.0
C2191 C 0.89696 0.99767 0.25986 0.0
C2192 C 0.90256 1.00355 0.28063 0.0
C2193 C 0.88544 1.01141 0.24647 0.0
C2194 C 0.87961 0.03194 0.25296 0.0
H2195 H 0.90135 0.98223 0.25394 0.0
H2196 H 0.88127 1.00596 0.2308 0.0
S2197 S 0.89072 0.05534 0.30564 0.0
N2198 N 0.90122 0.03151 0.3069 0.0
N2199 N 0.88042 0.05729 0.28178 0.0
C2200 C 0.88534 0.03806 0.2736 0.0
C2201 C 0.89655 0.02392 0.28738 0.0
C2202 C 0.77639 0.66463 0.50883 0.0
C2203 C 0.78753 0.65496 0.52556 0.0
C2204 C 0.76261 0.65298 0.49565 0.0
C2205 C 0.76003 0.63102 0.49814 0.0
H2206 H 0.7777 0.68152 0.50638 0.0
H2207 H 0.7539 0.66121 0.48345 0.0
S2208 S 0.78585 0.59793 0.53902 0.0
N2209 N 0.79482 0.622 0.54374 0.0
N2210 N 0.76999 0.60006 0.51842 0.0
C2211 C 0.77149 0.62109 0.5144 0.0
C2212 C 0.78494 0.63304 0.52823 0.0
C2213 C 0.13726 0.52276 0.24956 0.0
C2214 C 0.1309 0.5024 0.25604 0.0
C2215 C 0.14839 0.53649 0.26315 0.0
C2216 C 0.15424 0.53038 0.28377 0.0
H2217 H 0.13324 0.52837 0.23391 0.0
H2218 H 0.15281 0.55193 0.25725 0.0
S2219 S 0.14187 0.47866 0.30853 0.0
N2220 N 0.13127 0.47695 0.28475 0.0
N2221 N 0.15288 0.50229 0.30987 0.0
C2222 C 0.14824 0.50997 0.29039 0.0
C2223 C 0.13641 0.49616 0.2767 0.0
C2224 C 0.24901 0.89841 0.51168 0.0
C2225 C 0.25535 0.90453 0.53214 0.0
C2226 C 0.2627 0.88747 0.49792 0.0
C2227 C 0.28329 0.88161 0.50406 0.0
H2228 H 0.23339 0.90245 0.50603 0.0
H2229 H 0.25688 0.88321 0.4824 0.0
S2230 S 0.30773 0.89344 0.55604 0.0
N2231 N 0.28391 0.90395 0.55774 0.0
N2232 N 0.30923 0.88272 0.53229 0.0
C2233 C 0.28979 0.88739 0.52457 0.0
C2234 C 0.27598 0.89901 0.53843 0.0
C2235 C 0.88707 0.99892 0.76252 0.0
C2236 C 0.88117 1.00512 0.78309 0.0
C2237 C 0.89812 1.01264 0.74885 0.0
C2238 C 0.90431 0.03309 0.7552 0.0
H2239 H 0.88278 0.98341 0.75671 0.0
H2240 H 0.90219 1.00696 0.73323 0.0
S2241 S 0.89314 0.05709 0.80753 0.0
N2242 N 0.8823 0.03338 0.80902 0.0
N2243 N 0.90374 0.05873 0.78375 0.0
C2244 C 0.89874 0.03943 0.77582 0.0
C2245 C 0.88701 0.02561 0.78959 0.0
C2246 C 0.78577 0.63668 1.0128 0.0
C2247 C 0.77947 0.63081 0.03334 0.0
C2248 C 0.77216 0.64773 0.99905 0.0
C2249 C 0.75172 0.65397 1.0053 0.0
H2250 H 0.80129 0.63235 1.00707 0.0
H2251 H 0.77793 0.65178 0.98346 0.0
S2252 S 0.72744 0.64289 0.05752 0.0
N2253 N 0.7511 0.63201 0.05913 0.0
N2254 N 0.72595 0.65347 0.03372 0.0
C2255 C 0.74526 0.64844 0.02589 0.0
C2256 C 0.75897 0.63669 0.03974 0.0
C2257 C 0.24609 0.64825 0.52494 0.0
C2258 C 0.25241 0.65418 0.50439 0.0
C2259 C 0.25954 0.63652 0.53843 0.0
C2260 C 0.2802 0.63082 0.53228 0.0
H2261 H 0.23053 0.65252 0.53058 0.0
H2262 H 0.25377 0.63208 0.5539 0.0
S2263 S 0.30472 0.64284 0.48033 0.0
N2264 N 0.28092 0.65333 0.47872 0.0
N2265 N 0.30617 0.63215 0.50406 0.0
C2266 C 0.28677 0.63691 0.51189 0.0
C2267 C 0.27293 0.64833 0.498 0.0
C2268 C 0.76005 0.39829 0.9961 0.0
C2269 C 0.78076 0.40394 1.00211 0.0
C2270 C 0.74655 0.38682 1.00978 0.0
C2271 C 0.75289 0.38112 0.03038 0.0
H2272 H 0.75425 0.4026 0.9806 0.0
H2273 H 0.73094 0.3826 1.00425 0.0
S2274 S 0.80536 0.39242 0.05413 0.0
N2275 N 0.80681 0.40279 0.03027 0.0
N2276 N 0.78149 0.3821 0.05595 0.0
C2277 C 0.77347 0.38691 0.03663 0.0
C2278 C 0.78735 0.39805 0.02256 0.0
C2279 C 0.38824 0.51103 0.24759 0.0
C2280 C 0.3823 0.53166 0.25365 0.0
C2281 C 0.40001 0.49772 0.26119 0.0
C2282 C 0.40576 0.50415 0.28176 0.0
H2283 H 0.38395 0.50516 0.23211 0.0
H2284 H 0.40444 0.48217 0.25562 0.0
S2285 S 0.39374 0.55643 0.30562 0.0
N2286 N 0.3832 0.55772 0.28182 0.0
N2287 N 0.40446 0.53273 0.30736 0.0
C2288 C 0.39967 0.52463 0.28806 0.0
C2289 C 0.3882 0.53834 0.27407 0.0
C2290 C 0.2483 0.13706 0.52217 0.0
C2291 C 0.25454 0.13097 0.50167 0.0
C2292 C 0.262 0.14814 0.53582 0.0
C2293 C 0.2825 0.15419 0.52951 0.0
H2294 H 0.23275 0.1329 0.52795 0.0
H2295 H 0.25627 0.15236 0.55137 0.0
S2296 S 0.30665 0.1425 0.47737 0.0
N2297 N 0.2829 0.13178 0.47586 0.0
N2298 N 0.30824 0.15326 0.50108 0.0
C2299 C 0.28889 0.14843 0.50897 0.0
C2300 C 0.27508 0.13667 0.49522 0.0
C2301 C 0.76148 0.38853 0.49832 0.0
C2302 C 0.78166 0.38196 0.50508 0.0
C2303 C 0.74775 0.39993 0.51168 0.0
C2304 C 0.75366 0.40582 0.53233 0.0
H2305 H 0.75601 0.38449 0.48263 0.0
H2306 H 0.73244 0.40448 0.50557 0.0
S2307 S 0.80488 0.39296 0.55779 0.0
N2308 N 0.80675 0.3822 0.53409 0.0
N2309 N 0.78139 0.40427 0.55878 0.0
C2310 C 0.7739 0.39961 0.53924 0.0
C2311 C 0.78772 0.38753 0.52578 0.0
C2312 C 0.39845 0.03718 0.27204 0.0
C2313 C 0.40406 0.03097 0.25136 0.0
C2314 C 0.38694 0.02363 0.28565 0.0
C2315 C 0.38112 1.00299 0.2795 0.0
H2316 H 0.40279 0.05271 0.2777 0.0
H2317 H 0.38277 0.02933 0.30124 0.0
S2318 S 0.39226 0.97875 0.2272 0.0
N2319 N 0.40275 1.00257 0.22555 0.0
N2320 N 0.38196 0.97718 0.25109 0.0
C2321 C 0.38687 0.99654 0.25895 0.0
C2322 C 0.39808 1.01047 0.24496 0.0
C2323 C 0.63567 0.52264 0.74865 0.0
C2324 C 0.62965 0.50215 0.75503 0.0
C2325 C 0.64677 0.5364 0.76223 0.0
C2326 C 0.65291 0.53021 0.78273 0.0
H2327 H 0.63141 0.52832 0.73309 0.0
H2328 H 0.65092 0.55194 0.7564 0.0
S2329 S 0.64146 0.47814 0.80721 0.0
N2330 N 0.63064 0.47647 0.78353 0.0
N2331 N 0.65219 0.5019 0.80862 0.0
C2332 C 0.64724 0.50967 0.78925 0.0
C2333 C 0.63545 0.49581 0.77558 0.0
C2334 C 0.49835 0.26264 0.88557 0.0
C2335 C 0.50465 0.28312 0.87942 0.0
C2336 C 0.51206 0.24892 0.89653 0.0
C2337 C 0.53264 0.25513 0.90239 0.0
H2338 H 0.48273 0.25694 0.88153 0.0
H2339 H 0.50628 0.23339 0.9008 0.0
S2340 S 0.55698 0.30718 0.89051 0.0
N2341 N 0.53316 0.30881 0.87999 0.0
N2342 N 0.55853 0.28345 0.90126 0.0
C2343 C 0.5391 0.27565 0.89658 0.0
C2344 C 0.52527 0.28948 0.88494 0.0
C2345 C 0.50856 0.24645 0.38585 0.0
C2346 C 0.52926 0.2526 0.38027 0.0
C2347 C 0.49511 0.25988 0.39766 0.0
C2348 C 0.50147 0.28036 0.4038 0.0
H2349 H 0.50275 0.23104 0.38123 0.0
H2350 H 0.47951 0.25424 0.40181 0.0
S2351 S 0.55391 0.30438 0.39289 0.0
N2352 N 0.55532 0.28074 0.38198 0.0
N2353 N 0.53007 0.30597 0.4033 0.0
C2354 C 0.52203 0.28676 0.39808 0.0
C2355 C 0.53587 0.27292 0.38659 0.0
C2356 C 0.52483 0.77631 0.37078 0.0
C2357 C 0.50723 0.78641 0.38007 0.0
C2358 C 0.53809 0.76268 0.38253 0.0
C2359 C 0.53475 0.75918 0.40423 0.0
H2360 H 0.52795 0.77833 0.35409 0.0
H2361 H 0.55101 0.7548 0.37457 0.0
S2362 S 0.49148 0.78216 0.43635 0.0
N2363 N 0.4874 0.79177 0.41244 0.0
N2364 N 0.51279 0.7672 0.43458 0.0
C2365 C 0.5176 0.76959 0.41381 0.0
C2366 C 0.50375 0.78291 0.40175 0.0
C2367 C 0.52328 0.74685 0.90135 0.0
C2368 C 0.52595 0.74937 0.87942 0.0
C2369 C 0.50967 0.7602 0.91302 0.0
C2370 C 0.49877 0.77714 0.9034 0.0
H2371 H 0.5318 0.7345 0.90956 0.0
H2372 H 0.5083 0.75771 0.92989 0.0
S2373 S 0.50075 0.79074 0.84645 0.0
N2374 N 0.51632 0.76991 0.84853 0.0
N2375 N 0.49181 0.79552 0.87049 0.0
C2376 C 0.50145 0.77984 0.8815 0.0
C2377 C 0.51473 0.76585 0.86954 0.0
C2378 C 0.64779 0.02387 0.747 0.0
C2379 C 0.65368 1.00326 0.75317 0.0
C2380 C 0.63617 0.03734 0.76059 0.0
C2381 C 0.63055 0.03108 0.78125 0.0
H2382 H 0.652 0.0296 0.73144 0.0
H2383 H 0.63175 0.05286 0.75493 0.0
S2384 S 0.64252 0.97893 0.80541 0.0
N2385 N 0.65289 0.97742 0.78155 0.0
N2386 N 0.63192 1.00269 0.80705 0.0
C2387 C 0.6366 1.01062 0.78766 0.0
C2388 C 0.6479 0.99677 0.77368 0.0
C2389 C 0.63408 0.51091 0.24647 0.0
C2390 C 0.65609 0.50878 0.24876 0.0
C2391 C 0.62228 0.52452 0.2597 0.0
C2392 C 0.63187 0.53591 0.27632 0.0
H2393 H 0.62591 0.50199 0.23437 0.0
H2394 H 0.60536 0.52549 0.2574 0.0
S2395 S 0.68898 0.53541 0.2893 0.0
N2396 N 0.687 0.51944 0.26876 0.0
N2397 N 0.66481 0.54391 0.2942 0.0
C2398 C 0.65384 0.53376 0.2788 0.0
C2399 C 0.66592 0.52051 0.2649 0.0
C2400 C 0.13437 0.3611 0.08198 0.0
C2401 C 0.11491 0.35826 0.07168 0.0
C2402 C 0.14973 0.37511 0.07377 0.0
C2403 C 0.14593 0.38696 0.05522 0.0
H2404 H 0.13705 0.35386 0.09724 0.0
H2405 H 0.16387 0.37799 0.08295 0.0
S2406 S 0.09881 0.38259 0.02082 0.0
N2407 N 0.09393 0.36629 0.04059 0.0
N2408 N 0.12232 0.3928 0.02564 0.0
C2409 C 0.12727 0.38288 0.04402 0.0
C2410 C 0.11191 0.36848 0.05213 0.0
C2411 C 0.91586 0.3622 0.30412 0.0
C2412 C 0.9257 0.36446 0.32397 0.0
C2413 C 0.90167 0.37735 0.29637 0.0
C2414 C 0.89693 0.39562 0.308 0.0
H2415 H 0.91793 0.34776 0.29515 0.0
H2416 H 0.89346 0.37416 0.28171 0.0
S2417 S 0.91938 0.40986 0.36027 0.0
N2418 N 0.93046 0.3869 0.35462 0.0
N2419 N 0.90421 0.4158 0.33988 0.0
C2420 C 0.90786 0.39892 0.32716 0.0
C2421 C 0.92217 0.38325 0.33519 0.0
C2422 C 0.90716 0.15338 0.54533 0.0
C2423 C 0.88812 0.1502 0.55624 0.0
C2424 C 0.92243 0.16759 0.55279 0.0
C2425 C 0.91952 0.17909 0.57165 0.0
H2426 H 0.91084 0.14391 0.53156 0.0
H2427 H 0.93739 0.16841 0.54452 0.0
S2428 S 0.87179 0.17782 0.60536 0.0
N2429 N 0.86643 0.16108 0.58605 0.0
N2430 N 0.89551 0.18745 0.60027 0.0
C2431 C 0.89997 0.17728 0.58192 0.0
C2432 C 0.88419 0.16289 0.57417 0.0
C2433 C 0.13441 0.15744 0.79535 0.0
C2434 C 0.13811 0.139 0.80707 0.0
C2435 C 0.12041 0.17299 0.80257 0.0
C2436 C 0.10971 0.17101 0.82202 0.0
H2437 H 0.14327 0.16042 0.78102 0.0
H2438 H 0.11909 0.18746 0.79352 0.0
S2439 S 0.11284 0.12515 0.85816 0.0
N2440 N 0.12875 0.11886 0.83844 0.0
N2441 N 0.1028 0.14852 0.85223 0.0
C2442 C 0.11211 0.15204 0.83324 0.0
C2443 C 0.12625 0.13596 0.82572 0.0
C2444 C 0.11065 0.66244 0.98052 0.0
C2445 C 0.11359 0.675 0.96234 0.0
C2446 C 0.1263 0.64861 0.98782 0.0
C2447 C 0.14581 0.64684 0.97746 0.0
H2448 H 0.0955 0.66229 0.98849 0.0
H2449 H 0.12263 0.63838 1.00104 0.0
S2450 S 0.16256 0.67785 0.93053 0.0
N2451 N 0.13822 0.68605 0.93517 0.0
N2452 N 0.16799 0.6603 0.94908 0.0
C2453 C 0.14973 0.66059 0.9603 0.0
C2454 C 0.13356 0.67463 0.95271 0.0
C2455 C 0.61872 0.36156 0.23006 0.0
C2456 C 0.60671 0.36414 0.21147 0.0
C2457 C 0.63279 0.37714 0.23707 0.0
C2458 C 0.63528 0.39619 0.22602 0.0
H2459 H 0.61836 0.34666 0.23849 0.0
H2460 H 0.6427 0.3737 0.25059 0.0
S2461 S 0.606 0.41188 0.17771 0.0
N2462 N 0.59703 0.38794 0.18308 0.0
N2463 N 0.62317 0.41762 0.19652 0.0
C2464 C 0.62205 0.39983 0.20845 0.0
C2465 C 0.6078 0.38372 0.20112 0.0
C2466 C 0.9091 0.88631 0.48874 0.0
C2467 C 0.88954 0.88841 0.47856 0.0
C2468 C 0.9246 0.87251 0.48106 0.0
C2469 C 0.92141 0.86032 0.46268 0.0
H2470 H 0.91294 0.89626 0.50212 0.0
H2471 H 0.93983 0.87242 0.48886 0.0
S2472 S 0.87228 0.85854 0.43108 0.0
N2473 N 0.86708 0.87573 0.45004 0.0
N2474 N 0.89657 0.85005 0.43542 0.0
C2475 C 0.90141 0.86104 0.45318 0.0
C2476 C 0.8854 0.87505 0.46116 0.0
C2477 C 0.41181 0.13517 0.71022 0.0
C2478 C 0.40009 0.13889 0.72886 0.0
C2479 C 0.42607 0.15041 0.70223 0.0
C2480 C 0.42933 0.16963 0.71288 0.0
H2481 H 0.4086 0.12126 0.70078 0.0
H2482 H 0.43316 0.14788 0.68687 0.0
S2483 S 0.40548 0.18533 0.76408 0.0
N2484 N 0.39481 0.16209 0.75888 0.0
N2485 N 0.42182 0.19023 0.74436 0.0
C2486 C 0.41927 0.17248 0.73252 0.0
C2487 C 0.40459 0.15726 0.7404 0.0
C2488 C 0.04594 0.12655 0.38651 0.0
C2489 C 0.05696 0.14561 0.38904 0.0
C2490 C 0.05298 0.11101 0.3724 0.0
C2491 C 0.07157 0.11363 0.36038 0.0
H2492 H 0.03235 0.12311 0.39632 0.0
H2493 H 0.04449 0.09614 0.37195 0.0
S2494 S 0.10535 0.16137 0.35985 0.0
N2495 N 0.08652 0.16706 0.37701 0.0
N2496 N 0.09999 0.13746 0.35082 0.0
C2497 C 0.08195 0.13319 0.36158 0.0
C2498 C 0.0746 0.14926 0.37586 0.0
C2499 C 0.14981 0.33382 0.60947 0.0
C2500 C 0.16868 0.32257 0.60621 0.0
C2501 C 0.13433 0.32627 0.6237 0.0
C2502 C 0.13745 0.30746 0.63533 0.0
H2503 H 0.14778 0.34928 0.60243 0.0
H2504 H 0.12073 0.33613 0.62696 0.0
S2505 S 0.18258 0.27069 0.62977 0.0
N2506 N 0.18816 0.29033 0.61353 0.0
N2507 N 0.15958 0.27666 0.6405 0.0
C2508 C 0.15541 0.29536 0.63081 0.0
C2509 C 0.17086 0.30278 0.61617 0.0
C2510 C 0.95402 0.40172 0.86037 0.0
C2511 C 0.96421 0.42126 0.85756 0.0
C2512 C 0.96232 0.3864 0.87436 0.0
C2513 C 0.98084 0.39032 0.8862 0.0
H2514 H 0.93878 0.39894 0.85313 0.0
H2515 H 0.95321 0.3722 0.87724 0.0
S2516 S 1.01501 0.43766 0.88181 0.0
N2517 N 0.9952 0.44243 0.86555 0.0
N2518 N 1.01031 0.41411 0.89201 0.0
C2519 C 0.99194 0.40906 0.88212 0.0
C2520 C 0.98374 0.42438 0.86775 0.0
C2521 C 0.86224 0.23294 0.11824 0.0
C2522 C 0.86464 0.21355 0.10751 0.0
C2523 C 0.87747 0.24032 0.13253 0.0
C2524 C 0.89597 0.2288 0.13653 0.0
H2525 H 0.84767 0.24178 0.11674 0.0
H2526 H 0.87416 0.25459 0.14139 0.0
S2527 S 0.9108 0.1779 0.11137 0.0
N2528 N 0.88756 0.1836 0.10094 0.0
N2529 N 0.9166 0.19766 0.12742 0.0
C2530 C 0.89943 0.21021 0.12466 0.0
C2531 C 0.88368 0.20254 0.11022 0.0
C2532 C 0.04596 0.90703 0.65099 0.0
C2533 C 0.05744 0.8884 0.64746 0.0
C2534 C 0.05321 0.92248 0.6651 0.0
C2535 C 0.07243 0.92018 0.67613 0.0
H2536 H 0.03185 0.91025 0.64188 0.0
H2537 H 0.0444 0.93712 0.66625 0.0
S2538 S 0.10783 0.87373 0.67363 0.0
N2539 N 0.08829 0.86775 0.65738 0.0
N2540 N 0.10212 0.89719 0.68356 0.0
C2541 C 0.08336 0.90103 0.67392 0.0
C2542 C 0.07582 0.88505 0.65965 0.0
C2543 C 0.36059 0.30418 0.91257 0.0
C2544 C 0.36372 0.32264 0.92466 0.0
C2545 C 0.37609 0.29653 0.89876 0.0
C2546 C 0.39558 0.30685 0.89651 0.0
H2547 H 0.3454 0.29628 0.91277 0.0
H2548 H 0.37228 0.28307 0.88889 0.0
S2549 S 0.41267 0.35459 0.92609 0.0
N2550 N 0.38844 0.35012 0.93471 0.0
N2551 N 0.41791 0.33559 0.90897 0.0
C2552 C 0.39966 0.32434 0.90978 0.0
C2553 C 0.38366 0.33227 0.92382 0.0
C2554 C 0.98815 0.62578 0.14801 0.0
C2555 C 0.97771 0.64523 0.14601 0.0
C2556 C 0.98071 0.6101 0.16175 0.0
C2557 C 0.96233 0.61299 0.17401 0.0
H2558 H 1.00157 0.62217 0.13803 0.0
H2559 H 0.98875 0.59498 0.16179 0.0
S2560 S 0.93008 0.66172 0.17606 0.0
N2561 N 0.94891 0.66725 0.15885 0.0
N2562 N 0.93477 0.63744 0.18444 0.0
C2563 C 0.95255 0.63288 0.17339 0.0
C2564 C 0.96028 0.64906 0.15942 0.0
C2565 C 0.67382 0.2309 0.41174 0.0
C2566 C 0.67086 0.21282 0.42444 0.0
C2567 C 0.65808 0.23822 0.39804 0.0
C2568 C 0.63848 0.22799 0.39654 0.0
H2569 H 0.68903 0.23875 0.41139 0.0
H2570 H 0.66175 0.25136 0.38769 0.0
S2571 S 0.62171 0.18134 0.42797 0.0
N2572 N 0.64616 0.18587 0.4359 0.0
N2573 N 0.61622 0.19983 0.41038 0.0
C2574 C 0.63457 0.21094 0.41042 0.0
C2575 C 0.65083 0.20332 0.42434 0.0
C2576 C 0.36167 0.0814 0.13187 0.0
C2577 C 0.3589 0.07075 0.11258 0.0
C2578 C 0.37579 0.07357 0.14731 0.0
C2579 C 0.38777 0.05506 0.14378 0.0
H2580 H 0.35427 0.09663 0.13434 0.0
H2581 H 0.37861 0.08301 0.1613 0.0
S2582 S 0.38345 0.01969 0.09737 0.0
N2583 N 0.36704 0.03927 0.09217 0.0
N2584 N 0.39374 0.02507 0.12072 0.0
C2585 C 0.38375 0.0435 0.12533 0.0
C2586 C 0.36926 0.05122 0.10988 0.0
C2587 C 0.88412 0.98937 0.4079 0.0
C2588 C 0.8864 0.97851 0.38871 0.0
C2589 C 0.87019 0.9822 0.42353 0.0
C2590 C 0.85809 0.96366 0.42087 0.0
H2591 H 0.89405 1.00287 0.41137 0.0
H2592 H 0.86999 0.99049 0.43851 0.0
S2593 S 0.85676 0.9304 0.37281 0.0
N2594 N 0.87393 0.94924 0.3671 0.0
N2595 N 0.84807 0.93554 0.39688 0.0
C2596 C 0.85896 0.9535 0.40119 0.0
C2597 C 0.87307 0.96097 0.38504 0.0
C2598 C 0.30421 0.12327 0.67395 0.0
C2599 C 0.32254 0.11103 0.67066 0.0
C2600 C 0.29641 0.13699 0.65844 0.0
C2601 C 0.30644 0.13901 0.63877 0.0
H2602 H 0.29651 0.12322 0.68923 0.0
H2603 H 0.28305 0.14694 0.66234 0.0
S2604 S 0.35377 0.10905 0.62128 0.0
N2605 N 0.3496 0.10065 0.64565 0.0
N2606 N 0.33479 0.12623 0.61616 0.0
C2607 C 0.32381 0.12563 0.63457 0.0
C2608 C 0.33189 0.11168 0.65058 0.0
C2609 C 0.1607 0.57486 0.88439 0.0
C2610 C 0.14915 0.55602 0.88764 0.0
C2611 C 0.17494 0.58255 0.89979 0.0
C2612 C 0.17829 0.57142 0.91871 0.0
H2613 H 0.15738 0.58464 0.87076 0.0
H2614 H 0.18192 0.59803 0.89766 0.0
S2615 S 0.15497 0.51951 0.93297 0.0
N2616 N 0.14416 0.5253 0.90995 0.0
N2617 N 0.17114 0.53925 0.93839 0.0
C2618 C 0.16841 0.55159 0.92103 0.0
C2619 C 0.15376 0.54402 0.90566 0.0
C2620 C 0.2306 0.91355 0.17365 0.0
C2621 C 0.21181 0.92518 0.17081 0.0
C2622 C 0.23823 0.89974 0.15813 0.0
C2623 C 0.22759 0.89707 0.13887 0.0
H2624 H 0.23879 0.91406 0.18867 0.0
H2625 H 0.25196 0.89019 0.16174 0.0
S2626 S 0.17884 0.92534 0.12254 0.0
N2627 N 0.1836 0.93431 0.14659 0.0
N2628 N 0.19813 0.90862 0.11705 0.0
C2629 C 0.20972 0.9099 0.13504 0.0
C2630 C 0.2018 0.92391 0.15108 0.0
C2631 C 0.66122 0.96129 0.14882 0.0
C2632 C 0.64928 0.97979 0.14515 0.0
C2633 C 0.67532 0.95332 0.13342 0.0
C2634 C 0.67812 0.96385 0.11406 0.0
H2635 H 0.65833 0.95193 0.16285 0.0
H2636 H 0.68263 0.93807 0.13596 0.0
S2637 S 0.65356 1.01475 0.09842 0.0
N2638 N 0.64331 1.00959 0.12184 0.0
N2639 N 0.66999 0.99513 0.09339 0.0
C2640 C 0.66782 0.98338 0.11123 0.0
C2641 C 0.65334 0.99122 0.12662 0.0
C2642 C 0.32346 0.41159 0.89975 0.0
C2643 C 0.30497 0.39962 0.89605 0.0
C2644 C 0.33133 0.42586 0.88445 0.0
C2645 C 0.32073 0.42884 0.86518 0.0
H2646 H 0.33287 0.4086 0.91371 0.0
H2647 H 0.34658 0.43318 0.887 0.0
S2648 S 0.26983 0.40429 0.84951 0.0
N2649 N 0.27509 0.39383 0.87281 0.0
N2650 N 0.28939 0.42082 0.84456 0.0
C2651 C 0.30121 0.41851 0.86233 0.0
C2652 C 0.29346 0.40384 0.87762 0.0
C2653 C 0.73898 0.1343 0.37579 0.0
C2654 C 0.72873 0.13677 0.39529 0.0
C2655 C 0.73127 0.1203 0.36045 0.0
C2656 C 0.71283 0.10824 0.36377 0.0
H2657 H 0.7524 0.14416 0.37183 0.0
H2658 H 0.73904 0.12 0.3452 0.0
S2659 S 0.68104 0.10738 0.41281 0.0
N2660 N 0.70007 0.12454 0.41783 0.0
N2661 N 0.68543 0.0985 0.38866 0.0
C2662 C 0.70328 0.10931 0.38374 0.0
C2663 C 0.71127 0.12352 0.39957 0.0
C2664 C 0.12845 0.88324 0.54502 0.0
C2665 C 0.14717 0.88673 0.55635 0.0
C2666 C 0.11302 0.86918 0.55242 0.0
C2667 C 0.11545 0.85816 0.57162 0.0
H2668 H 0.12513 0.89235 0.53092 0.0
H2669 H 0.09831 0.86808 0.54374 0.0
S2670 S 0.16218 0.86052 0.60663 0.0
N2671 N 0.16804 0.87675 0.58704 0.0
N2672 N 0.13865 0.85066 0.60112 0.0
C2673 C 0.13469 0.86031 0.58239 0.0
C2674 C 0.15063 0.87454 0.57471 0.0
C2675 C 0.91449 0.86166 0.80235 0.0
C2676 C 0.92631 0.86438 0.82104 0.0
C2677 C 0.90043 0.87714 0.79511 0.0
C2678 C 0.89772 0.89623 0.80606 0.0
H2679 H 0.91502 0.84673 0.79397 0.0
H2680 H 0.89074 0.87362 0.78146 0.0
S2681 S 0.92642 0.91221 0.85467 0.0
N2682 N 0.93556 0.88831 0.84947 0.0
N2683 N 0.90943 0.9178 0.83566 0.0
C2684 C 0.91074 0.89997 0.8238 0.0
C2685 C 0.92499 0.88397 0.83133 0.0
C2686 C 0.90664 0.65071 0.04556 0.0
C2687 C 0.88774 0.64766 0.05673 0.0
C2688 C 0.92209 0.66483 0.0528 0.0
C2689 C 0.91953 0.67635 0.0717 0.0
H2690 H 0.91005 0.64125 0.03172 0.0
H2691 H 0.93688 0.66562 0.04422 0.0
S2692 S 0.87219 0.67551 0.10597 0.0
N2693 N 0.86649 0.65875 0.08678 0.0
N2694 N 0.89593 0.68495 0.10059 0.0
C2695 C 0.90011 0.67469 0.08223 0.0
C2696 C 0.88413 0.66039 0.0747 0.0
C2697 C 0.12264 0.67485 0.30413 0.0
C2698 C 0.11049 0.67187 0.32257 0.0
C2699 C 0.1365 0.65929 0.29667 0.0
C2700 C 0.13872 0.63988 0.30714 0.0
H2701 H 0.12245 0.68996 0.29608 0.0
H2702 H 0.14641 0.66298 0.28321 0.0
S2703 S 0.10903 0.62319 0.35493 0.0
N2704 N 0.1004 0.64738 0.35023 0.0
N2705 N 0.12621 0.61779 0.33603 0.0
C2706 C 0.12541 0.63594 0.32463 0.0
C2707 C 0.11133 0.65201 0.33237 0.0
C2708 C 0.15012 0.16035 0.46034 0.0
C2709 C 0.14717 0.14923 0.47948 0.0
C2710 C 0.13465 0.17449 0.45264 0.0
C2711 C 0.11596 0.17819 0.46404 0.0
H2712 H 0.16355 0.15675 0.45039 0.0
H2713 H 0.13652 0.1811 0.43697 0.0
S2714 S 0.10255 0.15608 0.51666 0.0
N2715 N 0.12541 0.14504 0.5107 0.0
N2716 N 0.09684 0.17184 0.49669 0.0
C2717 C 0.11396 0.16876 0.4841 0.0
C2718 C 0.12941 0.15421 0.49171 0.0
C2719 C 0.62533 0.89909 0.71019 0.0
C2720 C 0.63688 0.89604 0.72905 0.0
C2721 C 0.61117 0.88356 0.7026 0.0
C2722 C 0.6079 0.86468 0.71384 0.0
H2723 H 0.62857 0.91271 0.70035 0.0
H2724 H 0.60419 0.88556 0.68712 0.0
S2725 S 0.63121 0.85091 0.76585 0.0
N2726 N 0.64193 0.87395 0.7599 0.0
N2727 N 0.6151 0.84526 0.74615 0.0
C2728 C 0.61779 0.86254 0.73368 0.0
C2729 C 0.63235 0.87806 0.74115 0.0
C2730 C 0.92568 0.37398 0.98031 0.0
C2731 C 0.92275 0.36114 0.96233 0.0
C2732 C 0.90985 0.38757 0.98765 0.0
C2733 C 0.89018 0.38881 0.97753 0.0
H2734 H 0.94093 0.37453 0.98807 0.0
H2735 H 0.91348 0.39803 1.0007 0.0
S2736 S 0.87344 0.35685 0.93124 0.0
N2737 N 0.898 0.34922 0.93565 0.0
N2738 N 0.86789 0.37454 0.94963 0.0
C2739 C 0.88631 0.37477 0.9606 0.0
C2740 C 0.90266 0.36096 0.95297 0.0
C2741 C 0.42391 0.65114 0.20172 0.0
C2742 C 0.42681 0.67036 0.21248 0.0
C2743 C 0.40991 0.63562 0.20962 0.0
C2744 C 0.39818 0.63901 0.22831 0.0
H2745 H 0.43108 0.64881 0.18637 0.0
H2746 H 0.40695 0.6217 0.20013 0.0
S2747 S 0.40291 0.68519 0.26393 0.0
N2748 N 0.41909 0.69055 0.2442 0.0
N2749 N 0.39257 0.66185 0.25853 0.0
C2750 C 0.40235 0.65738 0.23995 0.0
C2751 C 0.41674 0.6729 0.23217 0.0
C2752 C 0.08123 0.6341 0.86078 0.0
C2753 C 0.07097 0.61455 0.85833 0.0
C2754 C 0.07321 0.64955 0.87479 0.0
C2755 C 0.05488 0.64577 0.88699 0.0
H2756 H 0.09632 0.63681 0.85321 0.0
H2757 H 0.08237 0.66377 0.87736 0.0
S2758 S 0.02052 0.59849 0.88355 0.0
N2759 N 0.04006 0.59352 0.86702 0.0
N2760 N 0.02546 0.62211 0.89349 0.0
C2761 C 0.04369 0.62701 0.88327 0.0
C2762 C 0.05161 0.61155 0.8689 0.0
C2763 C 0.17303 0.80281 0.12056 0.0
C2764 C 0.1703 0.82131 0.10844 0.0
C2765 C 0.15742 0.79558 0.13448 0.0
C2766 C 0.1382 0.80636 0.13676 0.0
H2767 H 0.18804 0.79457 0.12036 0.0
H2768 H 0.16095 0.78211 0.14442 0.0
S2769 S 0.12211 0.85436 0.10708 0.0
N2770 N 0.1462 0.84932 0.09839 0.0
N2771 N 0.11648 0.83553 0.12427 0.0
C2772 C 0.13446 0.82387 0.12342 0.0
C2773 C 0.15058 0.83139 0.1093 0.0
C2774 C 0.95971 0.88534 0.37404 0.0
C2775 C 0.97872 0.88877 0.38524 0.0
C2776 C 0.95163 0.90065 0.35993 0.0
C2777 C 0.96251 0.91969 0.35632 0.0
H2778 H 0.95014 0.87159 0.37754 0.0
H2779 H 0.93606 0.89835 0.35323 0.0
S2780 S 1.0146 0.93455 0.37875 0.0
N2781 N 1.00925 0.91146 0.38966 0.0
N2782 N 0.99454 0.93975 0.36292 0.0
C2783 C 0.98245 0.92224 0.36588 0.0
C2784 C 0.99043 0.90694 0.3804 0.0
C2785 C 0.88666 0.70414 0.60725 0.0
C2786 C 0.86746 0.71481 0.60403 0.0
C2787 C 0.90181 0.71198 0.62165 0.0
C2788 C 0.89802 0.73048 0.63356 0.0
H2789 H 0.88921 0.68883 0.60004 0.0
H2790 H 0.91568 0.7025 0.62483 0.0
S2791 S 0.85165 0.76576 0.62834 0.0
N2792 N 0.84682 0.74619 0.61178 0.0
N2793 N 0.87482 0.76047 0.63905 0.0
C2794 C 0.87969 0.74209 0.62909 0.0
C2795 C 0.86456 0.73436 0.61427 0.0
C2796 C 0.07415 0.38566 0.16166 0.0
C2797 C 0.05581 0.38938 0.14948 0.0
C2798 C 0.08191 0.401 0.17593 0.0
C2799 C 0.07133 0.42034 0.1787 0.0
H2800 H 0.08354 0.37165 0.15883 0.0
H2801 H 0.09707 0.39845 0.18341 0.0
S2802 S 0.02076 0.43604 0.15356 0.0
N2803 N 0.02608 0.41268 0.14324 0.0
N2804 N 0.04013 0.44101 0.17029 0.0
C2805 C 0.05193 0.42318 0.16817 0.0
C2806 C 0.04431 0.40786 0.15349 0.0
C2807 C 0.36278 0.8033 0.41468 0.0
C2808 C 0.36498 0.82263 0.42555 0.0
C2809 C 0.37822 0.79605 0.40059 0.0
C2810 C 0.39675 0.80764 0.39695 0.0
H2811 H 0.34822 0.79437 0.41594 0.0
H2812 H 0.37506 0.78184 0.39157 0.0
S2813 S 0.41122 0.85831 0.42274 0.0
N2814 N 0.38782 0.85254 0.43276 0.0
N2815 N 0.41726 0.83869 0.40661 0.0
C2816 C 0.40004 0.82613 0.409 0.0
C2817 C 0.38406 0.83368 0.42325 0.0
C2818 C 0.98881 0.12905 0.65227 0.0
C2819 C 0.97735 0.14772 0.64891 0.0
C2820 C 0.98159 0.11354 0.66633 0.0
C2821 C 0.96243 0.11582 0.67745 0.0
H2822 H 1.00285 0.12583 0.64304 0.0
H2823 H 0.99036 0.09886 0.66732 0.0
S2824 S 0.92719 0.16242 0.67548 0.0
N2825 N 0.94665 0.16843 0.65915 0.0
N2826 N 0.93287 0.13887 0.68522 0.0
C2827 C 0.95156 0.13503 0.67545 0.0
C2828 C 0.95907 0.15107 0.66123 0.0
C2829 C 0.65772 0.73818 0.9004 0.0
C2830 C 0.63833 0.72765 0.89839 0.0
C2831 C 0.67331 0.7309 0.91429 0.0
C2832 C 0.67039 0.71257 0.92662 0.0
H2833 H 0.66139 0.75148 0.89026 0.0
H2834 H 0.68845 0.73891 0.91427 0.0
S2835 S 0.62166 0.68034 0.92883 0.0
N2836 N 0.61621 0.69902 0.91142 0.0
N2837 N 0.6459 0.6851 0.93726 0.0
C2838 C 0.6505 0.7028 0.92606 0.0
C2839 C 0.63439 0.71039 0.91198 0.0
C2840 C 0.36778 0.55297 0.61329 0.0
C2841 C 0.35646 0.57198 0.61588 0.0
C2842 C 0.38189 0.54563 0.62868 0.0
C2843 C 0.38514 0.55684 0.64753 0.0
H2844 H 0.36689 0.54442 0.59848 0.0
H2845 H 0.39124 0.53172 0.62523 0.0
S2846 S 0.35781 0.60637 0.66313 0.0
N2847 N 0.34823 0.60101 0.63945 0.0
N2848 N 0.37441 0.58704 0.66879 0.0
C2849 C 0.37257 0.57492 0.65119 0.0
C2850 C 0.35829 0.58254 0.63528 0.0
C2851 C 0.85993 0.45288 0.89974 0.0
C2852 C 0.85665 0.46389 0.91875 0.0
C2853 C 0.87414 0.46065 0.88436 0.0
C2854 C 0.88572 0.47945 0.8877 0.0
H2855 H 0.85292 0.43743 0.89752 0.0
H2856 H 0.87741 0.45096 0.87064 0.0
S2857 S 0.88006 0.51569 0.93327 0.0
N2858 N 0.86388 0.49593 0.93861 0.0
N2859 N 0.8908 0.51003 0.91019 0.0
C2860 C 0.88117 0.49134 0.9058 0.0
C2861 C 0.86656 0.48369 0.92117 0.0
C2862 C 0.32498 0.62393 0.13515 0.0
C2863 C 0.30625 0.63564 0.13836 0.0
C2864 C 0.3328 0.61 0.15078 0.0
C2865 C 0.32191 0.60714 0.16993 0.0
H2866 H 0.33459 0.62688 0.12131 0.0
H2867 H 0.34818 0.60287 0.14859 0.0
S2868 S 0.27033 0.63101 0.18429 0.0
N2869 N 0.27587 0.64126 0.16096 0.0
N2870 N 0.29005 0.61489 0.18984 0.0
C2871 C 0.30219 0.61718 0.17227 0.0
C2872 C 0.29448 0.63149 0.15665 0.0
C2873 C 0.16239 0.05341 0.42459 0.0
C2874 C 0.17445 0.07188 0.42134 0.0
C2875 C 0.14848 0.0457 0.4092 0.0
C2876 C 0.14608 0.05597 0.3897 0.0
H2877 H 0.16272 0.04552 0.43978 0.0
H2878 H 0.13868 0.03221 0.41308 0.0
S2879 S 0.17541 0.1038 0.37237 0.0
N2880 N 0.18423 0.09937 0.39653 0.0
N2881 N 0.1583 0.08474 0.36727 0.0
C2882 C 0.15927 0.07351 0.38552 0.0
C2883 C 0.17342 0.08149 0.4014 0.0
C2884 C 0.23766 0.39881 0.65884 0.0
C2885 C 0.22758 0.39737 0.63916 0.0
C2886 C 0.23029 0.41253 0.67455 0.0
C2887 C 0.21232 0.42535 0.67147 0.0
H2888 H 0.25072 0.3884 0.66258 0.0
H2889 H 0.23803 0.41214 0.68981 0.0
S2890 S 0.18123 0.42905 0.62212 0.0
N2891 N 0.19965 0.41136 0.61674 0.0
N2892 N 0.18562 0.43694 0.64661 0.0
C2893 C 0.20296 0.42529 0.65138 0.0
C2894 C 0.21062 0.41133 0.63516 0.0
C2895 C 0.66348 0.48366 0.61164 0.0
C2896 C 0.67513 0.4648 0.61385 0.0
C2897 C 0.64957 0.49066 0.62736 0.0
C2898 C 0.64688 0.47929 0.64618 0.0
H2899 H 0.66401 0.4924 0.59693 0.0
H2900 H 0.63996 0.50447 0.62421 0.0
S2901 S 0.67525 0.43009 0.6609 0.0
N2902 N 0.68429 0.43575 0.63707 0.0
N2903 N 0.65845 0.44912 0.66701 0.0
C2904 C 0.65976 0.46137 0.64945 0.0
C2905 C 0.67385 0.45407 0.63321 0.0
C2906 C 0.29625 0.90125 0.37711 0.0
C2907 C 0.3079 0.89735 0.39555 0.0
C2908 C 0.30367 0.91524 0.36161 0.0
C2909 C 0.32321 0.92575 0.36366 0.0
H2910 H 0.28182 0.89256 0.37408 0.0
H2911 H 0.29466 0.91671 0.34713 0.0
S2912 S 0.35931 0.92194 0.40946 0.0
N2913 N 0.33939 0.90624 0.41569 0.0
N2914 N 0.3535 0.93217 0.38616 0.0
C2915 C 0.3344 0.92311 0.3826 0.0
C2916 C 0.3267 0.90897 0.39862 0.0
C2917 C 0.70201 0.611 0.8835 0.0
C2918 C 0.71256 0.60848 0.86412 0.0
C2919 C 0.71004 0.62477 0.89917 0.0
C2920 C 0.72865 0.63663 0.89579 0.0
H2921 H 0.68673 0.6037 0.8859 0.0
H2922 H 0.70068 0.62746 0.91324 0.0
S2923 S 0.76374 0.63285 0.84914 0.0
N2924 N 0.74399 0.61671 0.84372 0.0
N2925 N 0.75859 0.64274 0.87271 0.0
C2926 C 0.74009 0.63283 0.87722 0.0
C2927 C 0.73216 0.6187 0.86153 0.0
C2928 C 0.62526 0.38847 0.54532 0.0
C2929 C 0.64475 0.39081 0.55559 0.0
C2930 C 0.60989 0.37446 0.5529 0.0
C2931 C 0.61313 0.36227 0.57128 0.0
H2932 H 0.62137 0.39836 0.53191 0.0
H2933 H 0.59472 0.37414 0.54497 0.0
S2934 S 0.66212 0.36112 0.60314 0.0
N2935 N 0.66719 0.3784 0.58423 0.0
N2936 N 0.63796 0.3523 0.59866 0.0
C2937 C 0.63307 0.36326 0.58089 0.0
C2938 C 0.64894 0.37749 0.57302 0.0
C2939 C 0.41324 0.3619 0.80277 0.0
C2940 C 0.42563 0.36464 0.82108 0.0
C2941 C 0.39938 0.37759 0.79564 0.0
C2942 C 0.39741 0.39692 0.80632 0.0
H2943 H 0.41322 0.34684 0.7946 0.0
H2944 H 0.38925 0.37407 0.78231 0.0
S2945 S 0.42788 0.41308 0.85378 0.0
N2946 N 0.43628 0.38887 0.84878 0.0
N2947 N 0.41047 0.41873 0.83517 0.0
C2948 C 0.411 0.40066 0.82362 0.0
C2949 C 0.42508 0.38445 0.83104 0.0
C2950 C 0.39964 0.17393 0.08025 0.0
C2951 C 0.41867 0.1772 0.06927 0.0
C2952 C 0.38431 0.15962 0.07253 0.0
C2953 C 0.38771 0.14793 0.05382 0.0
H2954 H 0.39735 0.18106 0.09562 0.0
H2955 H 0.37057 0.15639 0.0822 0.0
S2956 S 0.43334 0.15355 0.01766 0.0
N2957 N 0.43861 0.16984 0.03733 0.0
N2958 N 0.41029 0.14276 0.02333 0.0
C2959 C 0.40584 0.15246 0.04195 0.0
C2960 C 0.42116 0.16716 0.04956 0.0
C2961 C 0.60834 0.15016 0.33136 0.0
C2962 C 0.60519 0.16932 0.32057 0.0
C2963 C 0.62269 0.1349 0.3236 0.0
C2964 C 0.63458 0.13854 0.30506 0.0
H2965 H 0.60111 0.14772 0.34667 0.0
H2966 H 0.62583 0.12105 0.33314 0.0
S2967 S 0.62952 0.18473 0.2695 0.0
N2968 N 0.61297 0.18972 0.28901 0.0
N2969 N 0.64017 0.16155 0.27497 0.0
C2970 C 0.6302 0.15682 0.29338 0.0
C2971 C 0.61542 0.17206 0.30099 0.0
C2972 C 0.63567 0.67801 0.45098 0.0
C2973 C 0.61655 0.68088 0.4619 0.0
C2974 C 0.65113 0.66376 0.45853 0.0
C2975 C 0.64772 0.65168 0.47698 0.0
H2976 H 0.63793 0.68535 0.4357 0.0
H2977 H 0.66493 0.66081 0.44887 0.0
S2978 S 0.60168 0.6559 0.51281 0.0
N2979 N 0.5964 0.67258 0.49347 0.0
N2980 N 0.62494 0.64556 0.50714 0.0
C2981 C 0.62946 0.65577 0.48881 0.0
C2982 C 0.61403 0.67045 0.4814 0.0
C2983 C 0.13287 0.37799 0.73971 0.0
C2984 C 0.13565 0.39739 0.72931 0.0
C2985 C 0.11872 0.36277 0.73205 0.0
C2986 C 0.10683 0.3661 0.71352 0.0
H2987 H 0.14261 0.37401 0.75319 0.0
H2988 H 0.11821 0.34756 0.73991 0.0
S2989 S 0.10674 0.41493 0.68137 0.0
N2990 N 0.12385 0.41989 0.70044 0.0
N2991 N 0.09754 0.39091 0.68589 0.0
C2992 C 0.10819 0.38599 0.70383 0.0
C2993 C 0.12254 0.40171 0.71177 0.0
C2994 C 0.38477 0.87332 0.96103 0.0
C2995 C 0.38855 0.8856 0.97929 0.0
C2996 C 0.40012 0.85911 0.95319 0.0
C2997 C 0.41955 0.85649 0.9636 0.0
H2998 H 0.37067 0.87601 0.95174 0.0
H2999 H 0.39748 0.85155 0.93808 0.0
S3000 S 0.43555 0.88195 1.01393 0.0
N3001 N 0.41207 0.89208 1.00881 0.0
N3002 N 0.44046 0.8652 0.99455 0.0
C3003 C 0.42252 0.86714 0.98292 0.0
C3004 C 0.40717 0.88174 0.99065 0.0
C3005 C 0.91428 0.17339 0.23154 0.0
C3006 C 0.92505 0.17115 0.21216 0.0
C3007 C 0.90004 0.15805 0.2388 0.0
C3008 C 0.89613 0.13959 0.22716 0.0
H3009 H 0.91574 0.18792 0.24049 0.0
H3010 H 0.89116 0.16122 0.25307 0.0
S3011 S 0.92128 0.12522 0.17616 0.0
N3012 N 0.93166 0.14846 0.18204 0.0
N3013 N 0.90526 0.11921 0.19588 0.0
C3014 C 0.90799 0.13631 0.20855 0.0
C3015 C 0.92238 0.15217 0.20101 0.0
C3016 C 0.54561 0.12652 0.88456 0.0
C3017 C 0.556 0.14599 0.8868 0.0
C3018 C 0.55329 0.11091 0.87087 0.0
C3019 C 0.57185 0.1139 0.85893 0.0
H3020 H 0.53205 0.12283 0.89432 0.0
H3021 H 0.54532 0.09575 0.87068 0.0
S3022 S 0.60406 0.1627 0.85757 0.0
N3023 N 0.58495 0.16812 0.8745 0.0
N3024 N 0.59954 0.13843 0.84902 0.0
C3025 C 0.58158 0.13381 0.85977 0.0
C3026 C 0.57362 0.14992 0.87367 0.0
C3027 C 0.65844 0.29675 0.13519 0.0
C3028 C 0.63861 0.30652 0.13679 0.0
C3029 C 0.67404 0.3046 0.12161 0.0
C3030 C 0.6707 0.32274 0.1091 0.0
H3031 H 0.66237 0.28356 0.14536 0.0
H3032 H 0.68942 0.2971 0.12188 0.0
S3033 S 0.62091 0.35321 0.10594 0.0
N3034 N 0.6158 0.33439 0.1233 0.0
N3035 N 0.64546 0.3493 0.09797 0.0
C3036 C 0.65048 0.33181 0.10932 0.0
C3037 C 0.63437 0.32367 0.12314 0.0
C3038 C 0.48895 0.40717 0.38492 0.0
C3039 C 0.47766 0.38826 0.38747 0.0
C3040 C 0.48207 0.42282 0.37087 0.0
C3041 C 0.46341 0.42046 0.35893 0.0
H3042 H 0.50258 0.41043 0.39472 0.0
H3043 H 0.49069 0.43762 0.37046 0.0
S3044 S 0.42901 0.37317 0.35838 0.0
N3045 N 0.44781 0.3672 0.37547 0.0
N3046 N 0.43465 0.39704 0.34939 0.0
C3047 C 0.45279 0.40103 0.36009 0.0
C3048 C 0.45997 0.38485 0.37431 0.0
C3049 C 0.36144 0.23206 0.62017 0.0
C3050 C 0.36396 0.21357 0.60797 0.0
C3051 C 0.37718 0.23914 0.634 0.0
C3052 C 0.39636 0.22825 0.63609 0.0
H3053 H 0.3465 0.24043 0.62008 0.0
H3054 H 0.37382 0.25262 0.644 0.0
S3055 S 0.41195 0.18024 0.60617 0.0
N3056 N 0.38783 0.18545 0.59766 0.0
N3057 N 0.41781 0.19899 0.62338 0.0
C3058 C 0.39989 0.21075 0.62269 0.0
C3059 C 0.38362 0.20337 0.60867 0.0
C3060 C 0.54596 0.90937 0.14885 0.0
C3061 C 0.55616 0.88982 0.1466 0.0
C3062 C 0.55342 0.92467 0.16301 0.0
C3063 C 0.5716 0.92127 0.17543 0.0
H3064 H 0.53278 0.91339 0.13871 0.0
H3065 H 0.5457 0.93995 0.16316 0.0
S3066 S 0.60307 0.87202 0.17701 0.0
N3067 N 0.58439 0.8671 0.15945 0.0
N3068 N 0.59863 0.89622 0.18578 0.0
C3069 C 0.58106 0.90124 0.17459 0.0
C3070 C 0.57329 0.88544 0.16022 0.0
C3071 C 0.88317 0.33202 0.42545 0.0
C3072 C 0.86381 0.32152 0.42832 0.0
C3073 C 0.89854 0.324 0.41136 0.0
C3074 C 0.89483 0.30546 0.39946 0.0
H3075 H 0.88574 0.3473 0.43271 0.0
H3076 H 0.91258 0.33333 0.40843 0.0
S3077 S 0.84805 0.27058 0.40387 0.0
N3078 N 0.84308 0.29023 0.42028 0.0
N3079 N 0.87146 0.27567 0.39358 0.0
C3080 C 0.87629 0.29406 0.40357 0.0
C3081 C 0.86094 0.30196 0.41806 0.0
C3082 C 0.46236 0.6489 0.65887 0.0
C3083 C 0.48051 0.64466 0.64656 0.0
C3084 C 0.45418 0.63378 0.67315 0.0
C3085 C 0.46411 0.61408 0.67578 0.0
H3086 H 0.45344 0.66326 0.6562 0.0
H3087 H 0.43921 0.63685 0.68082 0.0
S3088 S 0.51402 0.59683 0.6503 0.0
N3089 N 0.50942 0.62039 0.64009 0.0
N3090 N 0.49456 0.59242 0.66707 0.0
C3091 C 0.48331 0.61061 0.66506 0.0
C3092 C 0.49138 0.62575 0.65041 0.0
C3093 C 0.15829 0.23987 0.89982 0.0
C3094 C 0.13945 0.22875 0.89623 0.0
C3095 C 0.17355 0.2323 0.91395 0.0
C3096 C 0.17084 0.21311 0.92496 0.0
H3097 H 0.1618 0.25397 0.89077 0.0
H3098 H 0.18833 0.24085 0.91517 0.0
S3099 S 0.12377 0.17853 0.92225 0.0
N3100 N 0.11822 0.19821 0.90602 0.0
N3101 N 0.1473 0.1838 0.93226 0.0
C3102 C 0.15151 0.20251 0.92266 0.0
C3103 C 0.13574 0.21037 0.90835 0.0
C3104 C 0.88397 0.04735 0.62725 0.0
C3105 C 0.8871 0.05834 0.64624 0.0
C3106 C 0.87004 0.05491 0.61179 0.0
C3107 C 0.85878 0.07395 0.61445 0.0
H3108 H 0.89323 0.03339 0.62377 0.0
H3109 H 0.86918 0.04646 0.59692 0.0
S3110 S 0.86019 0.10807 0.66191 0.0
N3111 N 0.87656 0.08854 0.66757 0.0
N3112 N 0.85069 0.10293 0.63815 0.0
C3113 C 0.86059 0.08438 0.63393 0.0
C3114 C 0.8747 0.07653 0.64989 0.0
C3115 C 0.36048 0.95178 0.90046 0.0
C3116 C 0.3579 0.96233 0.91984 0.0
C3117 C 0.37433 0.95979 0.88486 0.0
C3118 C 0.38621 0.97839 0.88831 0.0
H3119 H 0.35317 0.9365 0.89804 0.0
H3120 H 0.37707 0.95042 0.87081 0.0
S3121 S 0.38229 1.01352 0.93492 0.0
N3122 N 0.36608 0.9938 0.94026 0.0
N3123 N 0.39229 1.00832 0.91141 0.0
C3124 C 0.38235 0.98984 0.90685 0.0
C3125 C 0.36813 0.98195 0.92247 0.0
C3126 C 0.80245 0.11925 0.17056 0.0
C3127 C 0.82215 0.10899 0.16879 0.0
C3128 C 0.79525 0.13336 0.1551 0.0
C3129 C 0.80728 0.13763 0.13698 0.0
H3130 H 0.79318 0.11753 0.18484 0.0
H3131 H 0.7807 0.1419 0.15793 0.0
S3132 S 0.85919 0.11373 0.12383 0.0
N3133 N 0.85298 0.10315 0.14687 0.0
N3134 N 0.83925 0.12929 0.11737 0.0
C3135 C 0.82623 0.12621 0.13413 0.0
C3136 C 0.83371 0.11196 0.15013 0.0
C3137 C 0.6636 0.57501 0.38317 0.0
C3138 C 0.65159 0.5566 0.3871 0.0
C3139 C 0.67779 0.58309 0.39842 0.0
C3140 C 0.68065 0.57274 0.41786 0.0
H3141 H 0.66067 0.58424 0.36907 0.0
H3142 H 0.68511 0.59832 0.39571 0.0
S3143 S 0.65589 0.52216 0.4342 0.0
N3144 N 0.64558 0.52708 0.41075 0.0
N3145 N 0.67245 0.54176 0.43894 0.0
C3146 C 0.67029 0.55329 0.42095 0.0
C3147 C 0.6557 0.54534 0.40571 0.0
C3148 C 0.70349 0.92334 0.65134 0.0
C3149 C 0.7141 0.9265 0.67058 0.0
C3150 C 0.71158 0.90925 0.63601 0.0
C3151 C 0.73033 0.89766 0.63962 0.0
H3152 H 0.68811 0.93038 0.64884 0.0
H3153 H 0.70219 0.90611 0.62207 0.0
S3154 S 0.7656 0.90309 0.68596 0.0
N3155 N 0.74571 0.91916 0.69104 0.0
N3156 N 0.76044 0.8925 0.66269 0.0
C3157 C 0.74182 0.90209 0.65801 0.0
C3158 C 0.73383 0.91657 0.67334 0.0
C3159 C 0.15139 0.98906 0.62709 0.0
C3160 C 0.14787 0.97773 0.64581 0.0
C3161 C 0.1655 0.98167 0.61171 0.0
C3162 C 0.17655 0.96248 0.61419 0.0
H3163 H 0.1423 1.00317 0.62375 0.0
H3164 H 0.16667 0.99037 0.59701 0.0
S3165 S 0.17401 0.92742 0.6609 0.0
N3166 N 0.15777 0.94701 0.6667 0.0
N3167 N 0.18396 0.93294 0.63741 0.0
C3168 C 0.17432 0.95168 0.63341 0.0
C3169 C 0.16004 0.95935 0.6493 0.0
C3170 C 0.79462 0.40192 0.37776 0.0
C3171 C 0.80608 0.39876 0.39646 0.0
C3172 C 0.80192 0.41572 0.36206 0.0
C3173 C 0.82117 0.42674 0.36416 0.0
H3174 H 0.78051 0.39274 0.37469 0.0
H3175 H 0.79315 0.41656 0.34738 0.0
S3176 S 0.85643 0.42524 0.41073 0.0
N3177 N 0.83687 0.40911 0.41699 0.0
N3178 N 0.8508 0.43468 0.38706 0.0
C3179 C 0.83205 0.42496 0.38338 0.0
C3180 C 0.82445 0.41102 0.39961 0.0
C3181 C 0.23272 0.11847 0.86256 0.0
C3182 C 0.21326 0.10784 0.86473 0.0
C3183 C 0.24002 0.13265 0.87793 0.0
C3184 C 0.22833 0.13664 0.89633 0.0
H3185 H 0.24168 0.11701 0.84805 0.0
H3186 H 0.25435 0.14147 0.87479 0.0
S3187 S 0.17721 0.11163 0.91058 0.0
N3188 N 0.18308 0.10129 0.88734 0.0
N3189 N 0.19699 0.12757 0.91664 0.0
C3190 C 0.20967 0.12484 0.89957 0.0
C3191 C 0.20209 0.1105 0.88368 0.0
C3192 C 0.63419 0.86075 0.08196 0.0
C3193 C 0.61517 0.85777 0.07091 0.0
C3194 C 0.64981 0.87474 0.07425 0.0
C3195 C 0.6467 0.8864 0.05547 0.0
H3196 H 0.63627 0.85368 0.0974 0.0
H3197 H 0.66355 0.8778 0.08397 0.0
S3198 S 0.60114 0.88147 0.01915 0.0
N3199 N 0.5955 0.86534 0.03885 0.0
N3200 N 0.62436 0.89186 0.02488 0.0
C3201 C 0.62856 0.88214 0.04355 0.0
C3202 C 0.61295 0.86774 0.05113 0.0
C3203 C 0.40144 0.8775 0.29377 0.0
C3204 C 0.39798 0.89638 0.30487 0.0
C3205 C 0.41586 0.86237 0.30108 0.0
C3206 C 0.42729 0.86526 0.31998 0.0
H3207 H 0.39207 0.87384 0.27994 0.0
H3208 H 0.41692 0.84751 0.29264 0.0
S3209 S 0.42517 0.91257 0.35427 0.0
N3210 N 0.40843 0.9179 0.33497 0.0
N3211 N 0.43517 0.88906 0.34892 0.0
C3212 C 0.42515 0.88466 0.33049 0.0
C3213 C 0.41056 0.9003 0.32288 0.0
C3214 C 0.40793 0.64928 0.54631 0.0
C3215 C 0.38887 0.64702 0.55739 0.0
C3216 C 0.42379 0.66297 0.55346 0.0
C3217 C 0.4215 0.67483 0.57218 0.0
H3218 H 0.41111 0.63953 0.53262 0.0
H3219 H 0.43862 0.66319 0.54493 0.0
S3220 S 0.37393 0.67604 0.60614 0.0
N3221 N 0.36781 0.65919 0.58715 0.0
N3222 N 0.398 0.68463 0.60079 0.0
C3223 C 0.40196 0.67396 0.58262 0.0
C3224 C 0.38558 0.66009 0.57518 0.0
C3225 C 0.60861 0.64983 0.83119 0.0
C3226 C 0.60552 0.66913 0.82063 0.0
C3227 C 0.62307 0.63469 0.82337 0.0
C3228 C 0.63514 0.63858 0.80499 0.0
H3229 H 0.60124 0.64716 0.84639 0.0
H3230 H 0.62611 0.62071 0.83275 0.0
S3231 S 0.63031 0.68524 0.77002 0.0
N3232 N 0.6136 0.68997 0.78946 0.0
N3233 N 0.64095 0.66201 0.77526 0.0
C3234 C 0.63083 0.65703 0.79352 0.0
C3235 C 0.61596 0.67215 0.80122 0.0
C3236 C 0.6106 0.16391 0.98045 0.0
C3237 C 0.61345 0.17607 0.96199 0.0
C3238 C 0.62618 0.15004 0.9878 0.0
C3239 C 0.64552 0.14786 0.97721 0.0
H3240 H 0.59554 0.16408 0.98859 0.0
H3241 H 0.62258 0.1401 1.00125 0.0
S3242 S 0.66196 0.17766 0.92941 0.0
N3243 N 0.63779 0.18625 0.93423 0.0
N3244 N 0.66746 0.16045 0.94826 0.0
C3245 C 0.64937 0.16121 0.95974 0.0
C3246 C 0.63326 0.17528 0.95209 0.0
C3247 C 0.12381 0.8995 0.21145 0.0
C3248 C 0.13591 0.89566 0.22982 0.0
C3249 C 0.10954 0.88424 0.20353 0.0
C3250 C 0.10668 0.86484 0.21396 0.0
H3251 H 0.12668 0.91359 0.20217 0.0
H3252 H 0.10211 0.88692 0.18836 0.0
S3253 S 0.1316 0.84872 0.26453 0.0
N3254 N 0.14197 0.87212 0.25943 0.0
N3255 N 0.11496 0.84392 0.24504 0.0
C3256 C 0.11715 0.86182 0.23337 0.0
C3257 C 0.13183 0.87708 0.24117 0.0
C3258 C 0.38412 0.37442 0.46062 0.0
C3259 C 0.38748 0.38583 0.47952 0.0
C3260 C 0.39946 0.36022 0.45273 0.0
C3261 C 0.41844 0.35676 0.46372 0.0
H3262 H 0.37042 0.3778 0.45096 0.0
H3263 H 0.39721 0.35333 0.43724 0.0
S3264 S 0.43307 0.37972 0.51564 0.0
N3265 N 0.41002 0.39056 0.51011 0.0
N3266 N 0.43836 0.3637 0.49575 0.0
C3267 C 0.42091 0.36653 0.48356 0.0
C3268 C 0.40558 0.38112 0.49135 0.0
C3269 C 0.90948 0.63642 0.71091 0.0
C3270 C 0.89689 0.64057 0.72889 0.0
C3271 C 0.92354 0.65178 0.70277 0.0
C3272 C 0.92565 0.67161 0.71255 0.0
H3273 H 0.90719 0.62194 0.70209 0.0
H3274 H 0.93147 0.64872 0.68792 0.0
S3275 S 0.89928 0.68875 0.76206 0.0
N3276 N 0.88961 0.66494 0.75753 0.0
N3277 N 0.91617 0.69334 0.74274 0.0
C3278 C 0.91465 0.67503 0.73161 0.0
C3279 C 0.90023 0.65965 0.73965 0.0
C3280 C 0.54745 0.62672 0.3834 0.0
C3281 C 0.5573 0.64652 0.38511 0.0
C3282 C 0.55491 0.61136 0.36931 0.0
C3283 C 0.57273 0.61494 0.35644 0.0
H3284 H 0.53461 0.62257 0.39392 0.0
H3285 H 0.54752 0.5959 0.3696 0.0
S3286 S 0.60309 0.66483 0.35333 0.0
N3287 N 0.58472 0.66964 0.37125 0.0
N3288 N 0.59898 0.6404 0.34506 0.0
C3289 C 0.58178 0.63518 0.35674 0.0
C3290 C 0.574 0.65105 0.37102 0.0
C3291 C 0.67536 0.80335 0.62344 0.0
C3292 C 0.67234 0.82167 0.61111 0.0
C3293 C 0.65976 0.79585 0.63721 0.0
C3294 C 0.64024 0.80614 0.63913 0.0
H3295 H 0.69053 0.79542 0.62345 0.0
H3296 H 0.66348 0.78251 0.64728 0.0
S3297 S 0.6233 0.85339 0.60872 0.0
N3298 N 0.64764 0.84892 0.60042 0.0
N3299 N 0.61795 0.83462 0.62606 0.0
C3300 C 0.63624 0.82344 0.6256 0.0
C3301 C 0.65236 0.83125 0.61162 0.0
C3302 C 0.45232 0.90067 0.85893 0.0
C3303 C 0.46298 0.91997 0.8562 0.0
C3304 C 0.46006 0.88523 0.87311 0.0
C3305 C 0.47845 0.88883 0.88522 0.0
H3306 H 0.43711 0.89821 0.8515 0.0
H3307 H 0.4506 0.87126 0.87595 0.0
S3308 S 0.51372 0.93537 0.88121 0.0
N3309 N 0.49432 0.94048 0.86457 0.0
N3310 N 0.50832 0.91198 0.89144 0.0
C3311 C 0.49004 0.90728 0.88123 0.0
C3312 C 0.48244 0.92269 0.86664 0.0
C3313 C 0.38399 0.70351 0.10992 0.0
C3314 C 0.36438 0.71366 0.1076 0.0
C3315 C 0.39938 0.7115 0.12401 0.0
C3316 C 0.39547 0.72965 0.13642 0.0
H3317 H 0.38679 0.6885 0.10219 0.0
H3318 H 0.41365 0.7024 0.12648 0.0
S3319 S 0.348 0.76372 0.13342 0.0
N3320 N 0.34317 0.74434 0.11664 0.0
N3321 N 0.37163 0.75884 0.14329 0.0
C3322 C 0.37666 0.74077 0.13284 0.0
C3323 C 0.36126 0.7329 0.11837 0.0
C3324 C 0.5731 0.38605 0.6596 0.0
C3325 C 0.55456 0.3896 0.64768 0.0
C3326 C 0.58088 0.40141 0.67384 0.0
C3327 C 0.57016 0.42064 0.67681 0.0
H3328 H 0.58258 0.37213 0.65665 0.0
H3329 H 0.59614 0.39896 0.68116 0.0
S3330 S 0.51908 0.4359 0.65243 0.0
N3331 N 0.52449 0.41262 0.64196 0.0
N3332 N 0.53866 0.44103 0.66886 0.0
C3333 C 0.55062 0.42335 0.66651 0.0
C3334 C 0.54293 0.40798 0.6519 0.0
C3335 C 0.8616 0.80314 0.91329 0.0
C3336 C 0.86449 0.82184 0.92507 0.0
C3337 C 0.87704 0.79568 0.8993 0.0
C3338 C 0.89624 0.80643 0.8966 0.0
H3339 H 0.8466 0.79491 0.91383 0.0
H3340 H 0.8734 0.78201 0.88965 0.0
S3341 S 0.91263 0.85503 0.92515 0.0
N3342 N 0.88868 0.85009 0.93426 0.0
N3343 N 0.91806 0.83589 0.90824 0.0
C3344 C 0.90012 0.8242 0.90955 0.0
C3345 C 0.88418 0.83194 0.92375 0.0
C3346 C 0.48088 0.11214 0.16208 0.0
C3347 C 0.46207 0.11458 0.17377 0.0
C3348 C 0.48804 0.12778 0.14815 0.0
C3349 C 0.4769 0.14675 0.14547 0.0
H3350 H 0.48943 0.09732 0.1626 0.0
H3351 H 0.5018 0.12446 0.13854 0.0
S3352 S 0.42798 0.16207 0.17398 0.0
N3353 N 0.43336 0.13816 0.183 0.0
N3354 N 0.44703 0.16795 0.15713 0.0
C3355 C 0.45905 0.15023 0.15839 0.0
C3356 C 0.45159 0.13407 0.17251 0.0
C3357 C 0.15056 0.7035 0.4246 0.0
C3358 C 0.16975 0.71424 0.42774 0.0
C3359 C 0.13518 0.71148 0.41051 0.0
C3360 C 0.13868 0.73024 0.3989 0.0
H3361 H 0.14816 0.68809 0.43165 0.0
H3362 H 0.1213 0.70198 0.40737 0.0
S3363 S 0.18485 0.76581 0.40422 0.0
N3364 N 0.19004 0.74597 0.42032 0.0
N3365 N 0.1616 0.7605 0.39368 0.0
C3366 C 0.15701 0.74187 0.40331 0.0
C3367 C 0.17239 0.73398 0.41778 0.0
C3368 C 0.87467 0.57324 0.14895 0.0
C3369 C 0.88636 0.55454 0.14542 0.0
C3370 C 0.86055 0.58118 0.13357 0.0
C3371 C 0.85748 0.57045 0.11437 0.0
H3372 H 0.87774 0.58272 0.16285 0.0
H3373 H 0.85341 0.59653 0.136 0.0
S3374 S 0.88118 0.51897 0.09925 0.0
N3375 N 0.89171 0.52432 0.1225 0.0
N3376 N 0.86501 0.53876 0.09407 0.0
C3377 C 0.86752 0.55076 0.11171 0.0
C3378 C 0.88201 0.54292 0.12709 0.0
C3379 C 0.37323 0.48158 0.42518 0.0
C3380 C 0.36063 0.46351 0.42172 0.0
C3381 C 0.3872 0.48917 0.40979 0.0
C3382 C 0.38911 0.47922 0.39009 0.0
H3383 H 0.37326 0.48921 0.4405 0.0
H3384 H 0.39743 0.5023 0.41383 0.0
S3385 S 0.35818 0.43266 0.37212 0.0
N3386 N 0.34976 0.43684 0.39647 0.0
N3387 N 0.37582 0.45129 0.36721 0.0
C3388 C 0.37537 0.46216 0.3857 0.0
C3389 C 0.36116 0.45428 0.40158 0.0
C3390 C 0.83357 0.61089 0.65069 0.0
C3391 C 0.82222 0.60833 0.66962 0.0
C3392 C 0.82636 0.6249 0.63485 0.0
C3393 C 0.8078 0.63695 0.63764 0.0
H3394 H 0.84887 0.60348 0.64887 0.0
H3395 H 0.83632 0.62765 0.62122 0.0
S3396 S 0.77078 0.63319 0.68275 0.0
N3397 N 0.79006 0.61671 0.68879 0.0
N3398 N 0.77704 0.64326 0.65952 0.0
C3399 C 0.79555 0.63311 0.65566 0.0
C3400 C 0.80263 0.61871 0.67149 0.0
C3401 C 0.6747 0.08171 0.9001 0.0
C3402 C 0.67773 0.07104 0.91933 0.0
C3403 C 0.66048 0.07383 0.88478 0.0
C3404 C 0.6486 0.05526 0.88842 0.0
H3405 H 0.68195 0.09702 0.89761 0.0
H3406 H 0.65745 0.08329 0.87085 0.0
S3407 S 0.65344 0.01993 0.9348 0.0
N3408 N 0.66987 0.03955 0.93983 0.0
N3409 N 0.64294 0.02524 0.91153 0.0
C3410 C 0.65287 0.04369 0.9068 0.0
C3411 C 0.66749 0.05145 0.9221 0.0
C3412 C 0.70382 0.42708 0.14827 0.0
C3413 C 0.71416 0.43001 0.1677 0.0
C3414 C 0.71172 0.41265 0.13317 0.0
C3415 C 0.72993 0.4004 0.13722 0.0
H3416 H 0.68869 0.43455 0.14548 0.0
H3417 H 0.70247 0.40975 0.11907 0.0
S3418 S 0.76427 0.40464 0.18441 0.0
N3419 N 0.74492 0.42152 0.18894 0.0
N3420 N 0.75929 0.39421 0.16102 0.0
C3421 C 0.74121 0.40454 0.15583 0.0
C3422 C 0.73344 0.41939 0.17092 0.0
C3423 C 0.14921 0.48874 0.12613 0.0
C3424 C 0.14765 0.47855 0.14574 0.0
C3425 C 0.16279 0.48124 0.11036 0.0
C3426 C 0.17529 0.46303 0.11331 0.0
H3427 H 0.13899 0.50196 0.12247 0.0
H3428 H 0.16249 0.48907 0.09514 0.0
S3429 S 0.17865 0.43164 0.16253 0.0
N3430 N 0.16125 0.45031 0.16802 0.0
N3431 N 0.18655 0.43603 0.13804 0.0
C3432 C 0.17516 0.45358 0.13337 0.0
C3433 C 0.16136 0.46137 0.14965 0.0
C3434 C 0.82468 0.90979 0.89913 0.0
C3435 C 0.80594 0.89809 0.89583 0.0
C3436 C 0.83245 0.9239 0.88365 0.0
C3437 C 0.82151 0.92696 0.86457 0.0
H3438 H 0.83431 0.90671 0.91292 0.0
H3439 H 0.84783 0.93104 0.88589 0.0
S3440 S 0.7699 0.9032 0.85007 0.0
N3441 N 0.7755 0.89269 0.87326 0.0
N3442 N 0.78961 0.9194 0.84464 0.0
C3443 C 0.80179 0.91691 0.86215 0.0
C3444 C 0.79413 0.90242 0.87763 0.0
C3445 C 0.21031 0.62543 0.39987 0.0
C3446 C 0.22896 0.63732 0.3968 0.0
C3447 C 0.20287 0.61126 0.38428 0.0
C3448 C 0.21404 0.60835 0.36531 0.0
H3449 H 0.2005 0.62838 0.41357 0.0
H3450 H 0.18753 0.60397 0.38633 0.0
S3451 S 0.2656 0.63263 0.35146 0.0
N3452 N 0.25961 0.64306 0.3746 0.0
N3453 N 0.24612 0.61624 0.34578 0.0
C3454 C 0.2337 0.61859 0.36314 0.0
C3455 C 0.24103 0.63314 0.37873 0.0
loop_
_geom_bond_atom_site_label_1
_geom_bond_atom_site_label_2
_geom_bond_distance
_geom_bond_site_symmetry_2
_ccdc_geom_bond_type
O0 Cd1 2.223 . S
O0 C8 1.315 . S
Cd1 O0 2.223 . S
Cd1 O4 2.297 . S
Cd1 O5 2.439 . S
Cd1 O11 2.240 . S
Cd2 O3 2.240 . S
Cd2 O10 2.223 . S
Cd2 O12 2.297 . S
Cd2 O13 2.439 . S
O3 Cd2 2.240 . S
O3 C8 1.279 . S
O4 Cd1 2.297 . S
O4 C6 1.247 . S
O5 Cd1 2.439 . S
O5 C6 1.208 . S
C6 O4 1.247 . S
C6 O5 1.208 . S
C7 O12 1.247 . S
C7 O13 1.208 . S
C8 O0 1.315 . S
C8 O3 1.279 . S
C9 O10 1.315 . S
C9 O11 1.279 . S
O10 Cd2 2.223 . S
O10 C9 1.315 . S
O11 Cd1 2.240 . S
O11 C9 1.279 . S
O12 Cd2 2.297 . S
O12 C7 1.247 . S
O13 Cd2 2.439 . S
O13 C7 1.208 . S
O14 Cd15 2.223 . S
O14 C22 1.315 . S
Cd15 O14 2.223 . S
Cd15 O18 2.297 . S
Cd15 O19 2.439 . S
Cd15 O25 2.240 . S
Cd16 O17 2.240 . S
Cd16 O24 2.223 . S
Cd16 O26 2.297 . S
Cd16 O27 2.439 . S
O17 Cd16 2.240 . S
O17 C22 1.279 . S
O18 Cd15 2.297 . S
O18 C20 1.247 . S
O19 Cd15 2.439 . S
O19 C20 1.208 . S
C20 O18 1.247 . S
C20 O19 1.208 . S
C21 O26 1.247 . S
C21 O27 1.208 . S
C22 O14 1.315 . S
C22 O17 1.279 . S
C23 O24 1.315 . S
C23 O25 1.279 . S
O24 Cd16 2.223 . S
O24 C23 1.315 . S
O25 Cd15 2.240 . S
O25 C23 1.279 . S
O26 Cd16 2.297 . S
O26 C21 1.247 . S
O27 Cd16 2.439 . S
O27 C21 1.208 . S
O28 Cd29 2.223 . S
O28 C36 1.315 . S
Cd29 O28 2.223 . S
Cd29 O32 2.297 . S
Cd29 O33 2.439 . S
Cd29 O39 2.240 . S
Cd30 O31 2.240 . S
Cd30 O38 2.223 . S
Cd30 O40 2.297 . S
Cd30 O41 2.439 . S
O31 Cd30 2.240 . S
O31 C36 1.279 . S
O32 Cd29 2.297 . S
O32 C34 1.247 . S
O33 Cd29 2.439 . S
O33 C34 1.208 . S
C34 O32 1.247 . S
C34 O33 1.208 . S
C35 O40 1.247 . S
C35 O41 1.208 . S
C36 O28 1.315 . S
C36 O31 1.279 . S
C37 O38 1.315 . S
C37 O39 1.279 . S
O38 Cd30 2.223 . S
O38 C37 1.315 . S
O39 Cd29 2.240 . S
O39 C37 1.279 . S
O40 Cd30 2.297 . S
O40 C35 1.247 . S
O41 Cd30 2.439 . S
O41 C35 1.208 . S
O42 Cd43 2.223 . S
O42 C50 1.315 . S
Cd43 O42 2.223 . S
Cd43 O46 2.297 . S
Cd43 O47 2.439 . S
Cd43 O53 2.240 . S
Cd44 O45 2.240 . S
Cd44 O52 2.223 . S
Cd44 O54 2.297 . S
Cd44 O55 2.439 . S
O45 Cd44 2.240 . S
O45 C50 1.279 . S
O46 Cd43 2.297 . S
O46 C48 1.247 . S
O47 Cd43 2.439 . S
O47 C48 1.208 . S
C48 O46 1.247 . S
C48 O47 1.208 . S
C49 O54 1.247 . S
C49 O55 1.208 . S
C50 O42 1.315 . S
C50 O45 1.279 . S
C51 O52 1.315 . S
C51 O53 1.279 . S
O52 Cd44 2.223 . S
O52 C51 1.315 . S
O53 Cd43 2.240 . S
O53 C51 1.279 . S
O54 Cd44 2.297 . S
O54 C49 1.247 . S
O55 Cd44 2.439 . S
O55 C49 1.208 . S
O56 Cd57 2.223 . S
O56 C64 1.315 . S
Cd57 O56 2.223 . S
Cd57 O60 2.297 . S
Cd57 O61 2.439 . S
Cd57 O67 2.240 . S
Cd58 O59 2.240 . S
Cd58 O66 2.223 . S
Cd58 O68 2.297 . S
Cd58 O69 2.439 . S
O59 Cd58 2.240 . S
O59 C64 1.279 . S
O60 Cd57 2.297 . S
O60 C62 1.247 . S
O61 Cd57 2.439 . S
O61 C62 1.208 . S
C62 O60 1.247 . S
C62 O61 1.208 . S
C63 O68 1.247 . S
C63 O69 1.208 . S
C64 O56 1.315 . S
C64 O59 1.279 . S
C65 O66 1.315 . S
C65 O67 1.279 . S
O66 Cd58 2.223 . S
O66 C65 1.315 . S
O67 Cd57 2.240 . S
O67 C65 1.279 . S
O68 Cd58 2.297 . S
O68 C63 1.247 . S
O69 Cd58 2.439 . S
O69 C63 1.208 . S
O70 Cd71 2.223 . S
O70 C78 1.315 . S
Cd71 O70 2.223 . S
Cd71 O74 2.297 . S
Cd71 O75 2.439 . S
Cd71 O81 2.240 . S
Cd72 O73 2.240 . S
Cd72 O80 2.223 . S
Cd72 O82 2.297 . S
Cd72 O83 2.439 . S
O73 Cd72 2.240 . S
O73 C78 1.279 . S
O74 Cd71 2.297 . S
O74 C76 1.247 . S
O75 Cd71 2.439 . S
O75 C76 1.208 . S
C76 O74 1.247 . S
C76 O75 1.208 . S
C77 O82 1.247 . S
C77 O83 1.208 . S
C78 O70 1.315 . S
C78 O73 1.279 . S
C79 O80 1.315 . S
C79 O81 1.279 . S
O80 Cd72 2.223 . S
O80 C79 1.315 . S
O81 Cd71 2.240 . S
O81 C79 1.279 . S
O82 Cd72 2.297 . S
O82 C77 1.247 . S
O83 Cd72 2.439 . S
O83 C77 1.208 . S
O84 Cd85 2.223 . S
O84 C92 1.315 . S
Cd85 O84 2.223 . S
Cd85 O88 2.297 . S
Cd85 O89 2.439 . S
Cd85 O95 2.240 . S
Cd86 O87 2.240 . S
Cd86 O94 2.223 . S
Cd86 O96 2.297 . S
Cd86 O97 2.439 . S
O87 Cd86 2.240 . S
O87 C92 1.279 . S
O88 Cd85 2.297 . S
O88 C90 1.247 . S
O89 Cd85 2.439 . S
O89 C90 1.208 . S
C90 O88 1.247 . S
C90 O89 1.208 . S
C91 O96 1.247 . S
C91 O97 1.208 . S
C92 O84 1.315 . S
C92 O87 1.279 . S
C93 O94 1.315 . S
C93 O95 1.279 . S
O94 Cd86 2.223 . S
O94 C93 1.315 . S
O95 Cd85 2.240 . S
O95 C93 1.279 . S
O96 Cd86 2.297 . S
O96 C91 1.247 . S
O97 Cd86 2.439 . S
O97 C91 1.208 . S
O98 Cd99 2.223 . S
O98 C106 1.315 . S
Cd99 O98 2.223 . S
Cd99 O102 2.297 . S
Cd99 O103 2.439 . S
Cd99 O109 2.240 . S
Cd100 O101 2.240 . S
Cd100 O108 2.223 . S
Cd100 O110 2.297 . S
Cd100 O111 2.439 . S
O101 Cd100 2.240 . S
O101 C106 1.279 . S
O102 Cd99 2.297 . S
O102 C104 1.247 . S
O103 Cd99 2.439 . S
O103 C104 1.208 . S
C104 O102 1.247 . S
C104 O103 1.208 . S
C105 O110 1.247 . S
C105 O111 1.208 . S
C106 O98 1.315 . S
C106 O101 1.279 . S
C107 O108 1.315 . S
C107 O109 1.279 . S
O108 Cd100 2.223 . S
O108 C107 1.315 . S
O109 Cd99 2.240 . S
O109 C107 1.279 . S
O110 Cd100 2.297 . S
O110 C105 1.247 . S
O111 Cd100 2.439 . S
O111 C105 1.208 . S
O112 Cd113 2.223 . S
O112 C120 1.315 . S
Cd113 O112 2.223 . S
Cd113 O116 2.297 . S
Cd113 O117 2.439 . S
Cd113 O123 2.240 . S
Cd114 O115 2.240 . S
Cd114 O122 2.223 . S
Cd114 O124 2.297 . S
Cd114 O125 2.439 . S
O115 Cd114 2.240 . S
O115 C120 1.279 . S
O116 Cd113 2.297 . S
O116 C118 1.247 . S
O117 Cd113 2.439 . S
O117 C118 1.208 . S
C118 O116 1.247 . S
C118 O117 1.208 . S
C119 O124 1.247 . S
C119 O125 1.208 . S
C120 O112 1.315 . S
C120 O115 1.279 . S
C121 O122 1.315 . S
C121 O123 1.279 . S
O122 Cd114 2.223 . S
O122 C121 1.315 . S
O123 Cd113 2.240 . S
O123 C121 1.279 . S
O124 Cd114 2.297 . S
O124 C119 1.247 . S
O125 Cd114 2.439 . S
O125 C119 1.208 . S
O126 Cd127 2.223 . S
O126 C134 1.315 . S
Cd127 O126 2.223 . S
Cd127 O130 2.297 . S
Cd127 O131 2.439 . S
Cd127 O137 2.240 . S
Cd128 O129 2.240 . S
Cd128 O136 2.223 . S
Cd128 O138 2.297 . S
Cd128 O139 2.439 . S
O129 Cd128 2.240 . S
O129 C134 1.279 . S
O130 Cd127 2.297 . S
O130 C132 1.247 . S
O131 Cd127 2.439 . S
O131 C132 1.208 . S
C132 O130 1.247 . S
C132 O131 1.208 . S
C133 O138 1.247 . S
C133 O139 1.208 . S
C134 O126 1.315 . S
C134 O129 1.279 . S
C135 O136 1.315 . S
C135 O137 1.279 . S
O136 Cd128 2.223 . S
O136 C135 1.315 . S
O137 Cd127 2.240 . S
O137 C135 1.279 . S
O138 Cd128 2.297 . S
O138 C133 1.247 . S
O139 Cd128 2.439 . S
O139 C133 1.208 . S
O140 Cd141 2.223 . S
O140 C148 1.315 . S
Cd141 O140 2.223 . S
Cd141 O144 2.297 . S
Cd141 O145 2.439 . S
Cd141 O151 2.240 . S
Cd142 O143 2.240 . S
Cd142 O150 2.223 . S
Cd142 O152 2.297 . S
Cd142 O153 2.439 . S
O143 Cd142 2.240 . S
O143 C148 1.279 . S
O144 Cd141 2.297 . S
O144 C146 1.247 . S
O145 Cd141 2.439 . S
O145 C146 1.208 . S
C146 O144 1.247 . S
C146 O145 1.208 . S
C147 O152 1.247 . S
C147 O153 1.208 . S
C148 O140 1.315 . S
C148 O143 1.279 . S
C149 O150 1.315 . S
C149 O151 1.279 . S
O150 Cd142 2.223 . S
O150 C149 1.315 . S
O151 Cd141 2.240 . S
O151 C149 1.279 . S
O152 Cd142 2.297 . S
O152 C147 1.247 . S
O153 Cd142 2.439 . S
O153 C147 1.208 . S
O154 Cd155 2.223 . S
O154 C162 1.315 . S
Cd155 O154 2.223 . S
Cd155 O158 2.297 . S
Cd155 O159 2.439 . S
Cd155 O165 2.240 . S
Cd156 O157 2.240 . S
Cd156 O164 2.223 . S
Cd156 O166 2.297 . S
Cd156 O167 2.439 . S
O157 Cd156 2.240 . S
O157 C162 1.279 . S
O158 Cd155 2.297 . S
O158 C160 1.247 . S
O159 Cd155 2.439 . S
O159 C160 1.208 . S
C160 O158 1.247 . S
C160 O159 1.208 . S
C161 O166 1.247 . S
C161 O167 1.208 . S
C162 O154 1.315 . S
C162 O157 1.279 . S
C163 O164 1.315 . S
C163 O165 1.279 . S
O164 Cd156 2.223 . S
O164 C163 1.315 . S
O165 Cd155 2.240 . S
O165 C163 1.279 . S
O166 Cd156 2.297 . S
O166 C161 1.247 . S
O167 Cd156 2.439 . S
O167 C161 1.208 . S
O168 Cd169 2.223 . S
O168 C176 1.315 . S
Cd169 O168 2.223 . S
Cd169 O172 2.297 . S
Cd169 O173 2.439 . S
Cd169 O179 2.240 . S
Cd170 O171 2.240 . S
Cd170 O178 2.223 . S
Cd170 O180 2.297 . S
Cd170 O181 2.439 . S
O171 Cd170 2.240 . S
O171 C176 1.279 . S
O172 Cd169 2.297 . S
O172 C174 1.247 . S
O173 Cd169 2.439 . S
O173 C174 1.208 . S
C174 O172 1.247 . S
C174 O173 1.208 . S
C175 O180 1.247 . S
C175 O181 1.208 . S
C176 O168 1.315 . S
C176 O171 1.279 . S
C177 O178 1.315 . S
C177 O179 1.279 . S
O178 Cd170 2.223 . S
O178 C177 1.315 . S
O179 Cd169 2.240 . S
O179 C177 1.279 . S
O180 Cd170 2.297 . S
O180 C175 1.247 . S
O181 Cd170 2.439 . S
O181 C175 1.208 . S
O182 Cd183 2.223 . S
O182 C190 1.315 . S
Cd183 O182 2.223 . S
Cd183 O186 2.297 . S
Cd183 O187 2.439 . S
Cd183 O193 2.240 . S
Cd184 O185 2.240 . S
Cd184 O192 2.223 . S
Cd184 O194 2.297 . S
Cd184 O195 2.439 . S
O185 Cd184 2.240 . S
O185 C190 1.279 . S
O186 Cd183 2.297 . S
O186 C188 1.247 . S
O187 Cd183 2.439 . S
O187 C188 1.208 . S
C188 O186 1.247 . S
C188 O187 1.208 . S
C189 O194 1.247 . S
C189 O195 1.208 . S
C190 O182 1.315 . S
C190 O185 1.279 . S
C191 O192 1.315 . S
C191 O193 1.279 . S
O192 Cd184 2.223 . S
O192 C191 1.315 . S
O193 Cd183 2.240 . S
O193 C191 1.279 . S
O194 Cd184 2.297 . S
O194 C189 1.247 . S
O195 Cd184 2.439 . S
O195 C189 1.208 . S
O196 Cd197 2.223 . S
O196 C204 1.315 . S
Cd197 O196 2.223 . S
Cd197 O200 2.297 . S
Cd197 O201 2.439 . S
Cd197 O207 2.240 . S
Cd198 O199 2.240 . S
Cd198 O206 2.223 . S
Cd198 O208 2.297 . S
Cd198 O209 2.439 . S
O199 Cd198 2.240 . S
O199 C204 1.279 . S
O200 Cd197 2.297 . S
O200 C202 1.247 . S
O201 Cd197 2.439 . S
O201 C202 1.208 . S
C202 O200 1.247 . S
C202 O201 1.208 . S
C203 O208 1.247 . S
C203 O209 1.208 . S
C204 O196 1.315 . S
C204 O199 1.279 . S
C205 O206 1.315 . S
C205 O207 1.279 . S
O206 Cd198 2.223 . S
O206 C205 1.315 . S
O207 Cd197 2.240 . S
O207 C205 1.279 . S
O208 Cd198 2.297 . S
O208 C203 1.247 . S
O209 Cd198 2.439 . S
O209 C203 1.208 . S
O210 Cd211 2.223 . S
O210 C218 1.315 . S
Cd211 O210 2.223 . S
Cd211 O214 2.297 . S
Cd211 O215 2.439 . S
Cd211 O221 2.240 . S
Cd212 O213 2.240 . S
Cd212 O220 2.223 . S
Cd212 O222 2.297 . S
Cd212 O223 2.439 . S
O213 Cd212 2.240 . S
O213 C218 1.279 . S
O214 Cd211 2.297 . S
O214 C216 1.247 . S
O215 Cd211 2.439 . S
O215 C216 1.208 . S
C216 O214 1.247 . S
C216 O215 1.208 . S
C217 O222 1.247 . S
C217 O223 1.208 . S
C218 O210 1.315 . S
C218 O213 1.279 . S
C219 O220 1.315 . S
C219 O221 1.279 . S
O220 Cd212 2.223 . S
O220 C219 1.315 . S
O221 Cd211 2.240 . S
O221 C219 1.279 . S
O222 Cd212 2.297 . S
O222 C217 1.247 . S
O223 Cd212 2.439 . S
O223 C217 1.208 . S
O224 Cd225 2.223 . S
O224 C232 1.315 . S
Cd225 O224 2.223 . S
Cd225 O228 2.297 . S
Cd225 O229 2.439 . S
Cd225 O235 2.240 . S
Cd226 O227 2.240 . S
Cd226 O234 2.223 . S
Cd226 O236 2.297 . S
Cd226 O237 2.439 . S
O227 Cd226 2.240 . S
O227 C232 1.279 . S
O228 Cd225 2.297 . S
O228 C230 1.247 . S
O229 Cd225 2.439 . S
O229 C230 1.208 . S
C230 O228 1.247 . S
C230 O229 1.208 . S
C231 O236 1.247 . S
C231 O237 1.208 . S
C232 O224 1.315 . S
C232 O227 1.279 . S
C233 O234 1.315 . S
C233 O235 1.279 . S
O234 Cd226 2.223 . S
O234 C233 1.315 . S
O235 Cd225 2.240 . S
O235 C233 1.279 . S
O236 Cd226 2.297 . S
O236 C231 1.247 . S
O237 Cd226 2.439 . S
O237 C231 1.208 . S
O238 Cd239 2.223 . S
O238 C246 1.315 . S
Cd239 O238 2.223 . S
Cd239 O242 2.297 . S
Cd239 O243 2.439 . S
Cd239 O249 2.240 . S
Cd240 O241 2.240 . S
Cd240 O248 2.223 . S
Cd240 O250 2.297 . S
Cd240 O251 2.439 . S
O241 Cd240 2.240 . S
O241 C246 1.279 . S
O242 Cd239 2.297 . S
O242 C244 1.247 . S
O243 Cd239 2.439 . S
O243 C244 1.208 . S
C244 O242 1.247 . S
C244 O243 1.208 . S
C245 O250 1.247 . S
C245 O251 1.208 . S
C246 O238 1.315 . S
C246 O241 1.279 . S
C247 O248 1.315 . S
C247 O249 1.279 . S
O248 Cd240 2.223 . S
O248 C247 1.315 . S
O249 Cd239 2.240 . S
O249 C247 1.279 . S
O250 Cd240 2.297 . S
O250 C245 1.247 . S
O251 Cd240 2.439 . S
O251 C245 1.208 . S
O252 Cd253 2.223 . S
O252 C260 1.315 . S
Cd253 O252 2.223 . S
Cd253 O256 2.297 . S
Cd253 O257 2.439 . S
Cd253 O263 2.240 . S
Cd254 O255 2.240 . S
Cd254 O262 2.223 . S
Cd254 O264 2.297 . S
Cd254 O265 2.439 . S
O255 Cd254 2.240 . S
O255 C260 1.279 . S
O256 Cd253 2.297 . S
O256 C258 1.247 . S
O257 Cd253 2.439 . S
O257 C258 1.208 . S
C258 O256 1.247 . S
C258 O257 1.208 . S
C259 O264 1.247 . S
C259 O265 1.208 . S
C260 O252 1.315 . S
C260 O255 1.279 . S
C261 O262 1.315 . S
C261 O263 1.279 . S
O262 Cd254 2.223 . S
O262 C261 1.315 . S
O263 Cd253 2.240 . S
O263 C261 1.279 . S
O264 Cd254 2.297 . S
O264 C259 1.247 . S
O265 Cd254 2.439 . S
O265 C259 1.208 . S
O266 Cd267 2.223 . S
O266 C274 1.315 . S
Cd267 O266 2.223 . S
Cd267 O270 2.297 . S
Cd267 O271 2.439 . S
Cd267 O277 2.240 . S
Cd268 O269 2.240 . S
Cd268 O276 2.223 . S
Cd268 O278 2.297 . S
Cd268 O279 2.439 . S
O269 Cd268 2.240 . S
O269 C274 1.279 . S
O270 Cd267 2.297 . S
O270 C272 1.247 . S
O271 Cd267 2.439 . S
O271 C272 1.208 . S
C272 O270 1.247 . S
C272 O271 1.208 . S
C273 O278 1.247 . S
C273 O279 1.208 . S
C274 O266 1.315 . S
C274 O269 1.279 . S
C275 O276 1.315 . S
C275 O277 1.279 . S
O276 Cd268 2.223 . S
O276 C275 1.315 . S
O277 Cd267 2.240 . S
O277 C275 1.279 . S
O278 Cd268 2.297 . S
O278 C273 1.247 . S
O279 Cd268 2.439 . S
O279 C273 1.208 . S
O280 Cd281 2.223 . S
O280 C288 1.315 . S
Cd281 O280 2.223 . S
Cd281 O284 2.297 . S
Cd281 O285 2.439 . S
Cd281 O291 2.240 . S
Cd282 O283 2.240 . S
Cd282 O290 2.223 . S
Cd282 O292 2.297 . S
Cd282 O293 2.439 . S
O283 Cd282 2.240 . S
O283 C288 1.279 . S
O284 Cd281 2.297 . S
O284 C286 1.247 . S
O285 Cd281 2.439 . S
O285 C286 1.208 . S
C286 O284 1.247 . S
C286 O285 1.208 . S
C287 O292 1.247 . S
C287 O293 1.208 . S
C288 O280 1.315 . S
C288 O283 1.279 . S
C289 O290 1.315 . S
C289 O291 1.279 . S
O290 Cd282 2.223 . S
O290 C289 1.315 . S
O291 Cd281 2.240 . S
O291 C289 1.279 . S
O292 Cd282 2.297 . S
O292 C287 1.247 . S
O293 Cd282 2.439 . S
O293 C287 1.208 . S
O294 Cd295 2.223 . S
O294 C302 1.315 . S
Cd295 O294 2.223 . S
Cd295 O298 2.297 . S
Cd295 O299 2.439 . S
Cd295 O305 2.240 . S
Cd296 O297 2.240 . S
Cd296 O304 2.223 . S
Cd296 O306 2.297 . S
Cd296 O307 2.439 . S
O297 Cd296 2.240 . S
O297 C302 1.279 . S
O298 Cd295 2.297 . S
O298 C300 1.247 . S
O299 Cd295 2.439 . S
O299 C300 1.208 . S
C300 O298 1.247 . S
C300 O299 1.208 . S
C301 O306 1.247 . S
C301 O307 1.208 . S
C302 O294 1.315 . S
C302 O297 1.279 . S
C303 O304 1.315 . S
C303 O305 1.279 . S
O304 Cd296 2.223 . S
O304 C303 1.315 . S
O305 Cd295 2.240 . S
O305 C303 1.279 . S
O306 Cd296 2.297 . S
O306 C301 1.247 . S
O307 Cd296 2.439 . S
O307 C301 1.208 . S
O308 Cd309 2.223 . S
O308 C316 1.315 . S
Cd309 O308 2.223 . S
Cd309 O312 2.297 . S
Cd309 O313 2.439 . S
Cd309 O319 2.240 . S
Cd310 O311 2.240 . S
Cd310 O318 2.223 . S
Cd310 O320 2.297 . S
Cd310 O321 2.439 . S
O311 Cd310 2.240 . S
O311 C316 1.279 . S
O312 Cd309 2.297 . S
O312 C314 1.247 . S
O313 Cd309 2.439 . S
O313 C314 1.208 . S
C314 O312 1.247 . S
C314 O313 1.208 . S
C315 O320 1.247 . S
C315 O321 1.208 . S
C316 O308 1.315 . S
C316 O311 1.279 . S
C317 O318 1.315 . S
C317 O319 1.279 . S
O318 Cd310 2.223 . S
O318 C317 1.315 . S
O319 Cd309 2.240 . S
O319 C317 1.279 . S
O320 Cd310 2.297 . S
O320 C315 1.247 . S
O321 Cd310 2.439 . S
O321 C315 1.208 . S
O322 Cd323 2.223 . S
O322 C330 1.315 . S
Cd323 O322 2.223 . S
Cd323 O326 2.297 . S
Cd323 O327 2.439 . S
Cd323 O333 2.240 . S
Cd324 O325 2.240 . S
Cd324 O332 2.223 . S
Cd324 O334 2.297 . S
Cd324 O335 2.439 . S
O325 Cd324 2.240 . S
O325 C330 1.279 . S
O326 Cd323 2.297 . S
O326 C328 1.247 . S
O327 Cd323 2.439 . S
O327 C328 1.208 . S
C328 O326 1.247 . S
C328 O327 1.208 . S
C329 O334 1.247 . S
C329 O335 1.208 . S
C330 O322 1.315 . S
C330 O325 1.279 . S
C331 O332 1.315 . S
C331 O333 1.279 . S
O332 Cd324 2.223 . S
O332 C331 1.315 . S
O333 Cd323 2.240 . S
O333 C331 1.279 . S
O334 Cd324 2.297 . S
O334 C329 1.247 . S
O335 Cd324 2.439 . S
O335 C329 1.208 . S
O336 Cd337 2.223 . S
O336 C344 1.315 . S
Cd337 O336 2.223 . S
Cd337 O340 2.297 . S
Cd337 O341 2.439 . S
Cd337 O347 2.240 . S
Cd338 O339 2.240 . S
Cd338 O346 2.223 . S
Cd338 O348 2.297 . S
Cd338 O349 2.439 . S
O339 Cd338 2.240 . S
O339 C344 1.279 . S
O340 Cd337 2.297 . S
O340 C342 1.247 . S
O341 Cd337 2.439 . S
O341 C342 1.208 . S
C342 O340 1.247 . S
C342 O341 1.208 . S
C343 O348 1.247 . S
C343 O349 1.208 . S
C344 O336 1.315 . S
C344 O339 1.279 . S
C345 O346 1.315 . S
C345 O347 1.279 . S
O346 Cd338 2.223 . S
O346 C345 1.315 . S
O347 Cd337 2.240 . S
O347 C345 1.279 . S
O348 Cd338 2.297 . S
O348 C343 1.247 . S
O349 Cd338 2.439 . S
O349 C343 1.208 . S
O350 Cd351 2.223 . S
O350 C358 1.315 . S
Cd351 O350 2.223 . S
Cd351 O354 2.297 . S
Cd351 O355 2.439 . S
Cd351 O361 2.240 . S
Cd352 O353 2.240 . S
Cd352 O360 2.223 . S
Cd352 O362 2.297 . S
Cd352 O363 2.439 . S
O353 Cd352 2.240 . S
O353 C358 1.279 . S
O354 Cd351 2.297 . S
O354 C356 1.247 . S
O355 Cd351 2.439 . S
O355 C356 1.208 . S
C356 O354 1.247 . S
C356 O355 1.208 . S
C357 O362 1.247 . S
C357 O363 1.208 . S
C358 O350 1.315 . S
C358 O353 1.279 . S
C359 O360 1.315 . S
C359 O361 1.279 . S
O360 Cd352 2.223 . S
O360 C359 1.315 . S
O361 Cd351 2.240 . S
O361 C359 1.279 . S
O362 Cd352 2.297 . S
O362 C357 1.247 . S
O363 Cd352 2.439 . S
O363 C357 1.208 . S
O364 Cd365 2.223 . S
O364 C372 1.315 . S
Cd365 O364 2.223 . S
Cd365 O368 2.297 . S
Cd365 O369 2.439 . S
Cd365 O375 2.240 . S
Cd366 O367 2.240 . S
Cd366 O374 2.223 . S
Cd366 O376 2.297 . S
Cd366 O377 2.439 . S
O367 Cd366 2.240 . S
O367 C372 1.279 . S
O368 Cd365 2.297 . S
O368 C370 1.247 . S
O369 Cd365 2.439 . S
O369 C370 1.208 . S
C370 O368 1.247 . S
C370 O369 1.208 . S
C371 O376 1.247 . S
C371 O377 1.208 . S
C372 O364 1.315 . S
C372 O367 1.279 . S
C373 O374 1.315 . S
C373 O375 1.279 . S
O374 Cd366 2.223 . S
O374 C373 1.315 . S
O375 Cd365 2.240 . S
O375 C373 1.279 . S
O376 Cd366 2.297 . S
O376 C371 1.247 . S
O377 Cd366 2.439 . S
O377 C371 1.208 . S
O378 Cd379 2.223 . S
O378 C386 1.315 . S
Cd379 O378 2.223 . S
Cd379 O382 2.297 . S
Cd379 O383 2.439 . S
Cd379 O389 2.240 . S
Cd380 O381 2.240 . S
Cd380 O388 2.223 . S
Cd380 O390 2.297 . S
Cd380 O391 2.439 . S
O381 Cd380 2.240 . S
O381 C386 1.279 . S
O382 Cd379 2.297 . S
O382 C384 1.247 . S
O383 Cd379 2.439 . S
O383 C384 1.208 . S
C384 O382 1.247 . S
C384 O383 1.208 . S
C385 O390 1.247 . S
C385 O391 1.208 . S
C386 O378 1.315 . S
C386 O381 1.279 . S
C387 O388 1.315 . S
C387 O389 1.279 . S
O388 Cd380 2.223 . S
O388 C387 1.315 . S
O389 Cd379 2.240 . S
O389 C387 1.279 . S
O390 Cd380 2.297 . S
O390 C385 1.247 . S
O391 Cd380 2.439 . S
O391 C385 1.208 . S
O392 Cd393 2.223 . S
O392 C400 1.315 . S
Cd393 O392 2.223 . S
Cd393 O396 2.297 . S
Cd393 O397 2.439 . S
Cd393 O403 2.240 . S
Cd394 O395 2.240 . S
Cd394 O402 2.223 . S
Cd394 O404 2.297 . S
Cd394 O405 2.439 . S
O395 Cd394 2.240 . S
O395 C400 1.279 . S
O396 Cd393 2.297 . S
O396 C398 1.247 . S
O397 Cd393 2.439 . S
O397 C398 1.208 . S
C398 O396 1.247 . S
C398 O397 1.208 . S
C399 O404 1.247 . S
C399 O405 1.208 . S
C400 O392 1.315 . S
C400 O395 1.279 . S
C401 O402 1.315 . S
C401 O403 1.279 . S
O402 Cd394 2.223 . S
O402 C401 1.315 . S
O403 Cd393 2.240 . S
O403 C401 1.279 . S
O404 Cd394 2.297 . S
O404 C399 1.247 . S
O405 Cd394 2.439 . S
O405 C399 1.208 . S
O406 Cd407 2.223 . S
O406 C414 1.315 . S
Cd407 O406 2.223 . S
Cd407 O410 2.297 . S
Cd407 O411 2.439 . S
Cd407 O417 2.240 . S
Cd408 O409 2.240 . S
Cd408 O416 2.223 . S
Cd408 O418 2.297 . S
Cd408 O419 2.439 . S
O409 Cd408 2.240 . S
O409 C414 1.279 . S
O410 Cd407 2.297 . S
O410 C412 1.247 . S
O411 Cd407 2.439 . S
O411 C412 1.208 . S
C412 O410 1.247 . S
C412 O411 1.208 . S
C413 O418 1.247 . S
C413 O419 1.208 . S
C414 O406 1.315 . S
C414 O409 1.279 . S
C415 O416 1.315 . S
C415 O417 1.279 . S
O416 Cd408 2.223 . S
O416 C415 1.315 . S
O417 Cd407 2.240 . S
O417 C415 1.279 . S
O418 Cd408 2.297 . S
O418 C413 1.247 . S
O419 Cd408 2.439 . S
O419 C413 1.208 . S
O420 Cd421 2.223 . S
O420 C428 1.315 . S
Cd421 O420 2.223 . S
Cd421 O424 2.297 . S
Cd421 O425 2.439 . S
Cd421 O431 2.240 . S
Cd422 O423 2.240 . S
Cd422 O430 2.223 . S
Cd422 O432 2.297 . S
Cd422 O433 2.439 . S
O423 Cd422 2.240 . S
O423 C428 1.279 . S
O424 Cd421 2.297 . S
O424 C426 1.247 . S
O425 Cd421 2.439 . S
O425 C426 1.208 . S
C426 O424 1.247 . S
C426 O425 1.208 . S
C427 O432 1.247 . S
C427 O433 1.208 . S
C428 O420 1.315 . S
C428 O423 1.279 . S
C429 O430 1.315 . S
C429 O431 1.279 . S
O430 Cd422 2.223 . S
O430 C429 1.315 . S
O431 Cd421 2.240 . S
O431 C429 1.279 . S
O432 Cd422 2.297 . S
O432 C427 1.247 . S
O433 Cd422 2.439 . S
O433 C427 1.208 . S
O434 Cd435 2.223 . S
O434 C442 1.315 . S
Cd435 O434 2.223 . S
Cd435 O438 2.297 . S
Cd435 O439 2.439 . S
Cd435 O445 2.240 . S
Cd436 O437 2.240 . S
Cd436 O444 2.223 . S
Cd436 O446 2.297 . S
Cd436 O447 2.439 . S
O437 Cd436 2.240 . S
O437 C442 1.279 . S
O438 Cd435 2.297 . S
O438 C440 1.247 . S
O439 Cd435 2.439 . S
O439 C440 1.208 . S
C440 O438 1.247 . S
C440 O439 1.208 . S
C441 O446 1.247 . S
C441 O447 1.208 . S
C442 O434 1.315 . S
C442 O437 1.279 . S
C443 O444 1.315 . S
C443 O445 1.279 . S
O444 Cd436 2.223 . S
O444 C443 1.315 . S
O445 Cd435 2.240 . S
O445 C443 1.279 . S
O446 Cd436 2.297 . S
O446 C441 1.247 . S
O447 Cd436 2.439 . S
O447 C441 1.208 . S
O448 Cd449 2.223 . S
O448 C456 1.315 . S
Cd449 O448 2.223 . S
Cd449 O452 2.297 . S
Cd449 O453 2.439 . S
Cd449 O459 2.240 . S
Cd450 O451 2.240 . S
Cd450 O458 2.223 . S
Cd450 O460 2.297 . S
Cd450 O461 2.439 . S
O451 Cd450 2.240 . S
O451 C456 1.279 . S
O452 Cd449 2.297 . S
O452 C454 1.247 . S
O453 Cd449 2.439 . S
O453 C454 1.208 . S
C454 O452 1.247 . S
C454 O453 1.208 . S
C455 O460 1.247 . S
C455 O461 1.208 . S
C456 O448 1.315 . S
C456 O451 1.279 . S
C457 O458 1.315 . S
C457 O459 1.279 . S
O458 Cd450 2.223 . S
O458 C457 1.315 . S
O459 Cd449 2.240 . S
O459 C457 1.279 . S
O460 Cd450 2.297 . S
O460 C455 1.247 . S
O461 Cd450 2.439 . S
O461 C455 1.208 . S
O462 Cd463 2.223 . S
O462 C470 1.315 . S
Cd463 O462 2.223 . S
Cd463 O466 2.297 . S
Cd463 O467 2.439 . S
Cd463 O473 2.240 . S
Cd464 O465 2.240 . S
Cd464 O472 2.223 . S
Cd464 O474 2.297 . S
Cd464 O475 2.439 . S
O465 Cd464 2.240 . S
O465 C470 1.279 . S
O466 Cd463 2.297 . S
O466 C468 1.247 . S
O467 Cd463 2.439 . S
O467 C468 1.208 . S
C468 O466 1.247 . S
C468 O467 1.208 . S
C469 O474 1.247 . S
C469 O475 1.208 . S
C470 O462 1.315 . S
C470 O465 1.279 . S
C471 O472 1.315 . S
C471 O473 1.279 . S
O472 Cd464 2.223 . S
O472 C471 1.315 . S
O473 Cd463 2.240 . S
O473 C471 1.279 . S
O474 Cd464 2.297 . S
O474 C469 1.247 . S
O475 Cd464 2.439 . S
O475 C469 1.208 . S
O476 Cd477 2.223 . S
O476 C484 1.315 . S
Cd477 O476 2.223 . S
Cd477 O480 2.297 . S
Cd477 O481 2.439 . S
Cd477 O487 2.240 . S
Cd478 O479 2.240 . S
Cd478 O486 2.223 . S
Cd478 O488 2.297 . S
Cd478 O489 2.439 . S
O479 Cd478 2.240 . S
O479 C484 1.279 . S
O480 Cd477 2.297 . S
O480 C482 1.247 . S
O481 Cd477 2.439 . S
O481 C482 1.208 . S
C482 O480 1.247 . S
C482 O481 1.208 . S
C483 O488 1.247 . S
C483 O489 1.208 . S
C484 O476 1.315 . S
C484 O479 1.279 . S
C485 O486 1.315 . S
C485 O487 1.279 . S
O486 Cd478 2.223 . S
O486 C485 1.315 . S
O487 Cd477 2.240 . S
O487 C485 1.279 . S
O488 Cd478 2.297 . S
O488 C483 1.247 . S
O489 Cd478 2.439 . S
O489 C483 1.208 . S
O490 Cd491 2.223 . S
O490 C498 1.315 . S
Cd491 O490 2.223 . S
Cd491 O494 2.297 . S
Cd491 O495 2.439 . S
Cd491 O501 2.240 . S
Cd492 O493 2.240 . S
Cd492 O500 2.223 . S
Cd492 O502 2.297 . S
Cd492 O503 2.439 . S
O493 Cd492 2.240 . S
O493 C498 1.279 . S
O494 Cd491 2.297 . S
O494 C496 1.247 . S
O495 Cd491 2.439 . S
O495 C496 1.208 . S
C496 O494 1.247 . S
C496 O495 1.208 . S
C497 O502 1.247 . S
C497 O503 1.208 . S
C498 O490 1.315 . S
C498 O493 1.279 . S
C499 O500 1.315 . S
C499 O501 1.279 . S
O500 Cd492 2.223 . S
O500 C499 1.315 . S
O501 Cd491 2.240 . S
O501 C499 1.279 . S
O502 Cd492 2.297 . S
O502 C497 1.247 . S
O503 Cd492 2.439 . S
O503 C497 1.208 . S
O504 Cd505 2.223 . S
O504 C512 1.315 . S
Cd505 O504 2.223 . S
Cd505 O508 2.297 . S
Cd505 O509 2.439 . S
Cd505 O515 2.240 . S
Cd506 O507 2.240 . S
Cd506 O514 2.223 . S
Cd506 O516 2.297 . S
Cd506 O517 2.439 . S
O507 Cd506 2.240 . S
O507 C512 1.279 . S
O508 Cd505 2.297 . S
O508 C510 1.247 . S
O509 Cd505 2.439 . S
O509 C510 1.208 . S
C510 O508 1.247 . S
C510 O509 1.208 . S
C511 O516 1.247 . S
C511 O517 1.208 . S
C512 O504 1.315 . S
C512 O507 1.279 . S
C513 O514 1.315 . S
C513 O515 1.279 . S
O514 Cd506 2.223 . S
O514 C513 1.315 . S
O515 Cd505 2.240 . S
O515 C513 1.279 . S
O516 Cd506 2.297 . S
O516 C511 1.247 . S
O517 Cd506 2.439 . S
O517 C511 1.208 . S
O518 Cd519 2.223 . S
O518 C526 1.315 . S
Cd519 O518 2.223 . S
Cd519 O522 2.297 . S
Cd519 O523 2.439 . S
Cd519 O529 2.240 . S
Cd520 O521 2.240 . S
Cd520 O528 2.223 . S
Cd520 O530 2.297 . S
Cd520 O531 2.439 . S
O521 Cd520 2.240 . S
O521 C526 1.279 . S
O522 Cd519 2.297 . S
O522 C524 1.247 . S
O523 Cd519 2.439 . S
O523 C524 1.208 . S
C524 O522 1.247 . S
C524 O523 1.208 . S
C525 O530 1.247 . S
C525 O531 1.208 . S
C526 O518 1.315 . S
C526 O521 1.279 . S
C527 O528 1.315 . S
C527 O529 1.279 . S
O528 Cd520 2.223 . S
O528 C527 1.315 . S
O529 Cd519 2.240 . S
O529 C527 1.279 . S
O530 Cd520 2.297 . S
O530 C525 1.247 . S
O531 Cd520 2.439 . S
O531 C525 1.208 . S
O532 Cd533 2.223 . S
O532 C540 1.315 . S
Cd533 O532 2.223 . S
Cd533 O536 2.297 . S
Cd533 O537 2.439 . S
Cd533 O543 2.240 . S
Cd534 O535 2.240 . S
Cd534 O542 2.223 . S
Cd534 O544 2.297 . S
Cd534 O545 2.439 . S
O535 Cd534 2.240 . S
O535 C540 1.279 . S
O536 Cd533 2.297 . S
O536 C538 1.247 . S
O537 Cd533 2.439 . S
O537 C538 1.208 . S
C538 O536 1.247 . S
C538 O537 1.208 . S
C539 O544 1.247 . S
C539 O545 1.208 . S
C540 O532 1.315 . S
C540 O535 1.279 . S
C541 O542 1.315 . S
C541 O543 1.279 . S
O542 Cd534 2.223 . S
O542 C541 1.315 . S
O543 Cd533 2.240 . S
O543 C541 1.279 . S
O544 Cd534 2.297 . S
O544 C539 1.247 . S
O545 Cd534 2.439 . S
O545 C539 1.208 . S
O546 Cd547 2.223 . S
O546 C554 1.315 . S
Cd547 O546 2.223 . S
Cd547 O550 2.297 . S
Cd547 O551 2.439 . S
Cd547 O557 2.240 . S
Cd548 O549 2.240 . S
Cd548 O556 2.223 . S
Cd548 O558 2.297 . S
Cd548 O559 2.439 . S
O549 Cd548 2.240 . S
O549 C554 1.279 . S
O550 Cd547 2.297 . S
O550 C552 1.247 . S
O551 Cd547 2.439 . S
O551 C552 1.208 . S
C552 O550 1.247 . S
C552 O551 1.208 . S
C553 O558 1.247 . S
C553 O559 1.208 . S
C554 O546 1.315 . S
C554 O549 1.279 . S
C555 O556 1.315 . S
C555 O557 1.279 . S
O556 Cd548 2.223 . S
O556 C555 1.315 . S
O557 Cd547 2.240 . S
O557 C555 1.279 . S
O558 Cd548 2.297 . S
O558 C553 1.247 . S
O559 Cd548 2.439 . S
O559 C553 1.208 . S
O560 Cd561 2.223 . S
O560 C568 1.315 . S
Cd561 O560 2.223 . S
Cd561 O564 2.297 . S
Cd561 O565 2.439 . S
Cd561 O571 2.240 . S
Cd562 O563 2.240 . S
Cd562 O570 2.223 . S
Cd562 O572 2.297 . S
Cd562 O573 2.439 . S
O563 Cd562 2.240 . S
O563 C568 1.279 . S
O564 Cd561 2.297 . S
O564 C566 1.247 . S
O565 Cd561 2.439 . S
O565 C566 1.208 . S
C566 O564 1.247 . S
C566 O565 1.208 . S
C567 O572 1.247 . S
C567 O573 1.208 . S
C568 O560 1.315 . S
C568 O563 1.279 . S
C569 O570 1.315 . S
C569 O571 1.279 . S
O570 Cd562 2.223 . S
O570 C569 1.315 . S
O571 Cd561 2.240 . S
O571 C569 1.279 . S
O572 Cd562 2.297 . S
O572 C567 1.247 . S
O573 Cd562 2.439 . S
O573 C567 1.208 . S
O574 Cd575 2.223 . S
O574 C582 1.315 . S
Cd575 O574 2.223 . S
Cd575 O578 2.297 . S
Cd575 O579 2.439 . S
Cd575 O585 2.240 . S
Cd576 O577 2.240 . S
Cd576 O584 2.223 . S
Cd576 O586 2.297 . S
Cd576 O587 2.439 . S
O577 Cd576 2.240 . S
O577 C582 1.279 . S
O578 Cd575 2.297 . S
O578 C580 1.247 . S
O579 Cd575 2.439 . S
O579 C580 1.208 . S
C580 O578 1.247 . S
C580 O579 1.208 . S
C581 O586 1.247 . S
C581 O587 1.208 . S
C582 O574 1.315 . S
C582 O577 1.279 . S
C583 O584 1.315 . S
C583 O585 1.279 . S
O584 Cd576 2.223 . S
O584 C583 1.315 . S
O585 Cd575 2.240 . S
O585 C583 1.279 . S
O586 Cd576 2.297 . S
O586 C581 1.247 . S
O587 Cd576 2.439 . S
O587 C581 1.208 . S
O588 Cd589 2.223 . S
O588 C596 1.315 . S
Cd589 O588 2.223 . S
Cd589 O592 2.297 . S
Cd589 O593 2.439 . S
Cd589 O599 2.240 . S
Cd590 O591 2.240 . S
Cd590 O598 2.223 . S
Cd590 O600 2.297 . S
Cd590 O601 2.439 . S
O591 Cd590 2.240 . S
O591 C596 1.279 . S
O592 Cd589 2.297 . S
O592 C594 1.247 . S
O593 Cd589 2.439 . S
O593 C594 1.208 . S
C594 O592 1.247 . S
C594 O593 1.208 . S
C595 O600 1.247 . S
C595 O601 1.208 . S
C596 O588 1.315 . S
C596 O591 1.279 . S
C597 O598 1.315 . S
C597 O599 1.279 . S
O598 Cd590 2.223 . S
O598 C597 1.315 . S
O599 Cd589 2.240 . S
O599 C597 1.279 . S
O600 Cd590 2.297 . S
O600 C595 1.247 . S
O601 Cd590 2.439 . S
O601 C595 1.208 . S
O602 Cd603 2.223 . S
O602 C610 1.315 . S
Cd603 O602 2.223 . S
Cd603 O606 2.297 . S
Cd603 O607 2.439 . S
Cd603 O613 2.240 . S
Cd604 O605 2.240 . S
Cd604 O612 2.223 . S
Cd604 O614 2.297 . S
Cd604 O615 2.439 . S
O605 Cd604 2.240 . S
O605 C610 1.279 . S
O606 Cd603 2.297 . S
O606 C608 1.247 . S
O607 Cd603 2.439 . S
O607 C608 1.208 . S
C608 O606 1.247 . S
C608 O607 1.208 . S
C609 O614 1.247 . S
C609 O615 1.208 . S
C610 O602 1.315 . S
C610 O605 1.279 . S
C611 O612 1.315 . S
C611 O613 1.279 . S
O612 Cd604 2.223 . S
O612 C611 1.315 . S
O613 Cd603 2.240 . S
O613 C611 1.279 . S
O614 Cd604 2.297 . S
O614 C609 1.247 . S
O615 Cd604 2.439 . S
O615 C609 1.208 . S
O616 Cd617 2.223 . S
O616 C624 1.315 . S
Cd617 O616 2.223 . S
Cd617 O620 2.297 . S
Cd617 O621 2.439 . S
Cd617 O627 2.240 . S
Cd618 O619 2.240 . S
Cd618 O626 2.223 . S
Cd618 O628 2.297 . S
Cd618 O629 2.439 . S
O619 Cd618 2.240 . S
O619 C624 1.279 . S
O620 Cd617 2.297 . S
O620 C622 1.247 . S
O621 Cd617 2.439 . S
O621 C622 1.208 . S
C622 O620 1.247 . S
C622 O621 1.208 . S
C623 O628 1.247 . S
C623 O629 1.208 . S
C624 O616 1.315 . S
C624 O619 1.279 . S
C625 O626 1.315 . S
C625 O627 1.279 . S
O626 Cd618 2.223 . S
O626 C625 1.315 . S
O627 Cd617 2.240 . S
O627 C625 1.279 . S
O628 Cd618 2.297 . S
O628 C623 1.247 . S
O629 Cd618 2.439 . S
O629 C623 1.208 . S
O630 Cd631 2.223 . S
O630 C638 1.315 . S
Cd631 O630 2.223 . S
Cd631 O634 2.297 . S
Cd631 O635 2.439 . S
Cd631 O641 2.240 . S
Cd632 O633 2.240 . S
Cd632 O640 2.223 . S
Cd632 O642 2.297 . S
Cd632 O643 2.439 . S
O633 Cd632 2.240 . S
O633 C638 1.279 . S
O634 Cd631 2.297 . S
O634 C636 1.247 . S
O635 Cd631 2.439 . S
O635 C636 1.208 . S
C636 O634 1.247 . S
C636 O635 1.208 . S
C637 O642 1.247 . S
C637 O643 1.208 . S
C638 O630 1.315 . S
C638 O633 1.279 . S
C639 O640 1.315 . S
C639 O641 1.279 . S
O640 Cd632 2.223 . S
O640 C639 1.315 . S
O641 Cd631 2.240 . S
O641 C639 1.279 . S
O642 Cd632 2.297 . S
O642 C637 1.247 . S
O643 Cd632 2.439 . S
O643 C637 1.208 . S
O644 Cd645 2.223 . S
O644 C652 1.315 . S
Cd645 O644 2.223 . S
Cd645 O648 2.297 . S
Cd645 O649 2.439 . S
Cd645 O655 2.240 . S
Cd646 O647 2.240 . S
Cd646 O654 2.223 . S
Cd646 O656 2.297 . S
Cd646 O657 2.439 . S
O647 Cd646 2.240 . S
O647 C652 1.279 . S
O648 Cd645 2.297 . S
O648 C650 1.247 . S
O649 Cd645 2.439 . S
O649 C650 1.208 . S
C650 O648 1.247 . S
C650 O649 1.208 . S
C651 O656 1.247 . S
C651 O657 1.208 . S
C652 O644 1.315 . S
C652 O647 1.279 . S
C653 O654 1.315 . S
C653 O655 1.279 . S
O654 Cd646 2.223 . S
O654 C653 1.315 . S
O655 Cd645 2.240 . S
O655 C653 1.279 . S
O656 Cd646 2.297 . S
O656 C651 1.247 . S
O657 Cd646 2.439 . S
O657 C651 1.208 . S
O658 Cd659 2.223 . S
O658 C666 1.315 . S
Cd659 O658 2.223 . S
Cd659 O662 2.297 . S
Cd659 O663 2.439 . S
Cd659 O669 2.240 . S
Cd660 O661 2.240 . S
Cd660 O668 2.223 . S
Cd660 O670 2.297 . S
Cd660 O671 2.439 . S
O661 Cd660 2.240 . S
O661 C666 1.279 . S
O662 Cd659 2.297 . S
O662 C664 1.247 . S
O663 Cd659 2.439 . S
O663 C664 1.208 . S
C664 O662 1.247 . S
C664 O663 1.208 . S
C665 O670 1.247 . S
C665 O671 1.208 . S
C666 O658 1.315 . S
C666 O661 1.279 . S
C667 O668 1.315 . S
C667 O669 1.279 . S
O668 Cd660 2.223 . S
O668 C667 1.315 . S
O669 Cd659 2.240 . S
O669 C667 1.279 . S
O670 Cd660 2.297 . S
O670 C665 1.247 . S
O671 Cd660 2.439 . S
O671 C665 1.208 . S
O672 Cd673 2.223 . S
O672 C680 1.315 . S
Cd673 O672 2.223 . S
Cd673 O676 2.297 . S
Cd673 O677 2.439 . S
Cd673 O683 2.240 . S
Cd674 O675 2.240 . S
Cd674 O682 2.223 . S
Cd674 O684 2.297 . S
Cd674 O685 2.439 . S
O675 Cd674 2.240 . S
O675 C680 1.279 . S
O676 Cd673 2.297 . S
O676 C678 1.247 . S
O677 Cd673 2.439 . S
O677 C678 1.208 . S
C678 O676 1.247 . S
C678 O677 1.208 . S
C679 O684 1.247 . S
C679 O685 1.208 . S
C680 O672 1.315 . S
C680 O675 1.279 . S
C681 O682 1.315 . S
C681 O683 1.279 . S
O682 Cd674 2.223 . S
O682 C681 1.315 . S
O683 Cd673 2.240 . S
O683 C681 1.279 . S
O684 Cd674 2.297 . S
O684 C679 1.247 . S
O685 Cd674 2.439 . S
O685 C679 1.208 . S
O686 Cd687 2.223 . S
O686 C694 1.315 . S
Cd687 O686 2.223 . S
Cd687 O690 2.297 . S
Cd687 O691 2.439 . S
Cd687 O697 2.240 . S
Cd688 O689 2.240 . S
Cd688 O696 2.223 . S
Cd688 O698 2.297 . S
Cd688 O699 2.439 . S
O689 Cd688 2.240 . S
O689 C694 1.279 . S
O690 Cd687 2.297 . S
O690 C692 1.247 . S
O691 Cd687 2.439 . S
O691 C692 1.208 . S
C692 O690 1.247 . S
C692 O691 1.208 . S
C693 O698 1.247 . S
C693 O699 1.208 . S
C694 O686 1.315 . S
C694 O689 1.279 . S
C695 O696 1.315 . S
C695 O697 1.279 . S
O696 Cd688 2.223 . S
O696 C695 1.315 . S
O697 Cd687 2.240 . S
O697 C695 1.279 . S
O698 Cd688 2.297 . S
O698 C693 1.247 . S
O699 Cd688 2.439 . S
O699 C693 1.208 . S
O700 Cd701 2.223 . S
O700 C708 1.315 . S
Cd701 O700 2.223 . S
Cd701 O704 2.297 . S
Cd701 O705 2.439 . S
Cd701 O711 2.240 . S
Cd702 O703 2.240 . S
Cd702 O710 2.223 . S
Cd702 O712 2.297 . S
Cd702 O713 2.439 . S
O703 Cd702 2.240 . S
O703 C708 1.279 . S
O704 Cd701 2.297 . S
O704 C706 1.247 . S
O705 Cd701 2.439 . S
O705 C706 1.208 . S
C706 O704 1.247 . S
C706 O705 1.208 . S
C707 O712 1.247 . S
C707 O713 1.208 . S
C708 O700 1.315 . S
C708 O703 1.279 . S
C709 O710 1.315 . S
C709 O711 1.279 . S
O710 Cd702 2.223 . S
O710 C709 1.315 . S
O711 Cd701 2.240 . S
O711 C709 1.279 . S
O712 Cd702 2.297 . S
O712 C707 1.247 . S
O713 Cd702 2.439 . S
O713 C707 1.208 . S
O714 Cd715 2.223 . S
O714 C722 1.315 . S
Cd715 O714 2.223 . S
Cd715 O718 2.297 . S
Cd715 O719 2.439 . S
Cd715 O725 2.240 . S
Cd716 O717 2.240 . S
Cd716 O724 2.223 . S
Cd716 O726 2.297 . S
Cd716 O727 2.439 . S
O717 Cd716 2.240 . S
O717 C722 1.279 . S
O718 Cd715 2.297 . S
O718 C720 1.247 . S
O719 Cd715 2.439 . S
O719 C720 1.208 . S
C720 O718 1.247 . S
C720 O719 1.208 . S
C721 O726 1.247 . S
C721 O727 1.208 . S
C722 O714 1.315 . S
C722 O717 1.279 . S
C723 O724 1.315 . S
C723 O725 1.279 . S
O724 Cd716 2.223 . S
O724 C723 1.315 . S
O725 Cd715 2.240 . S
O725 C723 1.279 . S
O726 Cd716 2.297 . S
O726 C721 1.247 . S
O727 Cd716 2.439 . S
O727 C721 1.208 . S
O728 Cd729 2.223 . S
O728 C736 1.315 . S
Cd729 O728 2.223 . S
Cd729 O732 2.297 . S
Cd729 O733 2.439 . S
Cd729 O739 2.240 . S
Cd730 O731 2.240 . S
Cd730 O738 2.223 . S
Cd730 O740 2.297 . S
Cd730 O741 2.439 . S
O731 Cd730 2.240 . S
O731 C736 1.279 . S
O732 Cd729 2.297 . S
O732 C734 1.247 . S
O733 Cd729 2.439 . S
O733 C734 1.208 . S
C734 O732 1.247 . S
C734 O733 1.208 . S
C735 O740 1.247 . S
C735 O741 1.208 . S
C736 O728 1.315 . S
C736 O731 1.279 . S
C737 O738 1.315 . S
C737 O739 1.279 . S
O738 Cd730 2.223 . S
O738 C737 1.315 . S
O739 Cd729 2.240 . S
O739 C737 1.279 . S
O740 Cd730 2.297 . S
O740 C735 1.247 . S
O741 Cd730 2.439 . S
O741 C735 1.208 . S
O742 Cd743 2.223 . S
O742 C750 1.315 . S
Cd743 O742 2.223 . S
Cd743 O746 2.297 . S
Cd743 O747 2.439 . S
Cd743 O753 2.240 . S
Cd744 O745 2.240 . S
Cd744 O752 2.223 . S
Cd744 O754 2.297 . S
Cd744 O755 2.439 . S
O745 Cd744 2.240 . S
O745 C750 1.279 . S
O746 Cd743 2.297 . S
O746 C748 1.247 . S
O747 Cd743 2.439 . S
O747 C748 1.208 . S
C748 O746 1.247 . S
C748 O747 1.208 . S
C749 O754 1.247 . S
C749 O755 1.208 . S
C750 O742 1.315 . S
C750 O745 1.279 . S
C751 O752 1.315 . S
C751 O753 1.279 . S
O752 Cd744 2.223 . S
O752 C751 1.315 . S
O753 Cd743 2.240 . S
O753 C751 1.279 . S
O754 Cd744 2.297 . S
O754 C749 1.247 . S
O755 Cd744 2.439 . S
O755 C749 1.208 . S
O756 Cd757 2.223 . S
O756 C764 1.315 . S
Cd757 O756 2.223 . S
Cd757 O760 2.297 . S
Cd757 O761 2.439 . S
Cd757 O767 2.240 . S
Cd758 O759 2.240 . S
Cd758 O766 2.223 . S
Cd758 O768 2.297 . S
Cd758 O769 2.439 . S
O759 Cd758 2.240 . S
O759 C764 1.279 . S
O760 Cd757 2.297 . S
O760 C762 1.247 . S
O761 Cd757 2.439 . S
O761 C762 1.208 . S
C762 O760 1.247 . S
C762 O761 1.208 . S
C763 O768 1.247 . S
C763 O769 1.208 . S
C764 O756 1.315 . S
C764 O759 1.279 . S
C765 O766 1.315 . S
C765 O767 1.279 . S
O766 Cd758 2.223 . S
O766 C765 1.315 . S
O767 Cd757 2.240 . S
O767 C765 1.279 . S
O768 Cd758 2.297 . S
O768 C763 1.247 . S
O769 Cd758 2.439 . S
O769 C763 1.208 . S
O770 Cd771 2.223 . S
O770 C778 1.315 . S
Cd771 O770 2.223 . S
Cd771 O774 2.297 . S
Cd771 O775 2.439 . S
Cd771 O781 2.240 . S
Cd772 O773 2.240 . S
Cd772 O780 2.223 . S
Cd772 O782 2.297 . S
Cd772 O783 2.439 . S
O773 Cd772 2.240 . S
O773 C778 1.279 . S
O774 Cd771 2.297 . S
O774 C776 1.247 . S
O775 Cd771 2.439 . S
O775 C776 1.208 . S
C776 O774 1.247 . S
C776 O775 1.208 . S
C777 O782 1.247 . S
C777 O783 1.208 . S
C778 O770 1.315 . S
C778 O773 1.279 . S
C779 O780 1.315 . S
C779 O781 1.279 . S
O780 Cd772 2.223 . S
O780 C779 1.315 . S
O781 Cd771 2.240 . S
O781 C779 1.279 . S
O782 Cd772 2.297 . S
O782 C777 1.247 . S
O783 Cd772 2.439 . S
O783 C777 1.208 . S
O784 Cd785 2.223 . S
O784 C792 1.315 . S
Cd785 O784 2.223 . S
Cd785 O788 2.297 . S
Cd785 O789 2.439 . S
Cd785 O795 2.240 . S
Cd786 O787 2.240 . S
Cd786 O794 2.223 . S
Cd786 O796 2.297 . S
Cd786 O797 2.439 . S
O787 Cd786 2.240 . S
O787 C792 1.279 . S
O788 Cd785 2.297 . S
O788 C790 1.247 . S
O789 Cd785 2.439 . S
O789 C790 1.208 . S
C790 O788 1.247 . S
C790 O789 1.208 . S
C791 O796 1.247 . S
C791 O797 1.208 . S
C792 O784 1.315 . S
C792 O787 1.279 . S
C793 O794 1.315 . S
C793 O795 1.279 . S
O794 Cd786 2.223 . S
O794 C793 1.315 . S
O795 Cd785 2.240 . S
O795 C793 1.279 . S
O796 Cd786 2.297 . S
O796 C791 1.247 . S
O797 Cd786 2.439 . S
O797 C791 1.208 . S
O798 Cd799 2.223 . S
O798 C806 1.315 . S
Cd799 O798 2.223 . S
Cd799 O802 2.297 . S
Cd799 O803 2.439 . S
Cd799 O809 2.240 . S
Cd800 O801 2.240 . S
Cd800 O808 2.223 . S
Cd800 O810 2.297 . S
Cd800 O811 2.439 . S
O801 Cd800 2.240 . S
O801 C806 1.279 . S
O802 Cd799 2.297 . S
O802 C804 1.247 . S
O803 Cd799 2.439 . S
O803 C804 1.208 . S
C804 O802 1.247 . S
C804 O803 1.208 . S
C805 O810 1.247 . S
C805 O811 1.208 . S
C806 O798 1.315 . S
C806 O801 1.279 . S
C807 O808 1.315 . S
C807 O809 1.279 . S
O808 Cd800 2.223 . S
O808 C807 1.315 . S
O809 Cd799 2.240 . S
O809 C807 1.279 . S
O810 Cd800 2.297 . S
O810 C805 1.247 . S
O811 Cd800 2.439 . S
O811 C805 1.208 . S
O812 Cd813 2.223 . S
O812 C820 1.315 . S
Cd813 O812 2.223 . S
Cd813 O816 2.297 . S
Cd813 O817 2.439 . S
Cd813 O823 2.240 . S
Cd814 O815 2.240 . S
Cd814 O822 2.223 . S
Cd814 O824 2.297 . S
Cd814 O825 2.439 . S
O815 Cd814 2.240 . S
O815 C820 1.279 . S
O816 Cd813 2.297 . S
O816 C818 1.247 . S
O817 Cd813 2.439 . S
O817 C818 1.208 . S
C818 O816 1.247 . S
C818 O817 1.208 . S
C819 O824 1.247 . S
C819 O825 1.208 . S
C820 O812 1.315 . S
C820 O815 1.279 . S
C821 O822 1.315 . S
C821 O823 1.279 . S
O822 Cd814 2.223 . S
O822 C821 1.315 . S
O823 Cd813 2.240 . S
O823 C821 1.279 . S
O824 Cd814 2.297 . S
O824 C819 1.247 . S
O825 Cd814 2.439 . S
O825 C819 1.208 . S
O826 Cd827 2.223 . S
O826 C834 1.315 . S
Cd827 O826 2.223 . S
Cd827 O830 2.297 . S
Cd827 O831 2.439 . S
Cd827 O837 2.240 . S
Cd828 O829 2.240 . S
Cd828 O836 2.223 . S
Cd828 O838 2.297 . S
Cd828 O839 2.439 . S
O829 Cd828 2.240 . S
O829 C834 1.279 . S
O830 Cd827 2.297 . S
O830 C832 1.247 . S
O831 Cd827 2.439 . S
O831 C832 1.208 . S
C832 O830 1.247 . S
C832 O831 1.208 . S
C833 O838 1.247 . S
C833 O839 1.208 . S
C834 O826 1.315 . S
C834 O829 1.279 . S
C835 O836 1.315 . S
C835 O837 1.279 . S
O836 Cd828 2.223 . S
O836 C835 1.315 . S
O837 Cd827 2.240 . S
O837 C835 1.279 . S
O838 Cd828 2.297 . S
O838 C833 1.247 . S
O839 Cd828 2.439 . S
O839 C833 1.208 . S
O840 Cd841 2.223 . S
O840 C848 1.315 . S
Cd841 O840 2.223 . S
Cd841 O844 2.297 . S
Cd841 O845 2.439 . S
Cd841 O851 2.240 . S
Cd842 O843 2.240 . S
Cd842 O850 2.223 . S
Cd842 O852 2.297 . S
Cd842 O853 2.439 . S
O843 Cd842 2.240 . S
O843 C848 1.279 . S
O844 Cd841 2.297 . S
O844 C846 1.247 . S
O845 Cd841 2.439 . S
O845 C846 1.208 . S
C846 O844 1.247 . S
C846 O845 1.208 . S
C847 O852 1.247 . S
C847 O853 1.208 . S
C848 O840 1.315 . S
C848 O843 1.279 . S
C849 O850 1.315 . S
C849 O851 1.279 . S
O850 Cd842 2.223 . S
O850 C849 1.315 . S
O851 Cd841 2.240 . S
O851 C849 1.279 . S
O852 Cd842 2.297 . S
O852 C847 1.247 . S
O853 Cd842 2.439 . S
O853 C847 1.208 . S
O854 Cd855 2.223 . S
O854 C862 1.315 . S
Cd855 O854 2.223 . S
Cd855 O858 2.297 . S
Cd855 O859 2.439 . S
Cd855 O865 2.240 . S
Cd856 O857 2.240 . S
Cd856 O864 2.223 . S
Cd856 O866 2.297 . S
Cd856 O867 2.439 . S
O857 Cd856 2.240 . S
O857 C862 1.279 . S
O858 Cd855 2.297 . S
O858 C860 1.247 . S
O859 Cd855 2.439 . S
O859 C860 1.208 . S
C860 O858 1.247 . S
C860 O859 1.208 . S
C861 O866 1.247 . S
C861 O867 1.208 . S
C862 O854 1.315 . S
C862 O857 1.279 . S
C863 O864 1.315 . S
C863 O865 1.279 . S
O864 Cd856 2.223 . S
O864 C863 1.315 . S
O865 Cd855 2.240 . S
O865 C863 1.279 . S
O866 Cd856 2.297 . S
O866 C861 1.247 . S
O867 Cd856 2.439 . S
O867 C861 1.208 . S
O868 Cd869 2.223 . S
O868 C876 1.315 . S
Cd869 O868 2.223 . S
Cd869 O872 2.297 . S
Cd869 O873 2.439 . S
Cd869 O879 2.240 . S
Cd870 O871 2.240 . S
Cd870 O878 2.223 . S
Cd870 O880 2.297 . S
Cd870 O881 2.439 . S
O871 Cd870 2.240 . S
O871 C876 1.279 . S
O872 Cd869 2.297 . S
O872 C874 1.247 . S
O873 Cd869 2.439 . S
O873 C874 1.208 . S
C874 O872 1.247 . S
C874 O873 1.208 . S
C875 O880 1.247 . S
C875 O881 1.208 . S
C876 O868 1.315 . S
C876 O871 1.279 . S
C877 O878 1.315 . S
C877 O879 1.279 . S
O878 Cd870 2.223 . S
O878 C877 1.315 . S
O879 Cd869 2.240 . S
O879 C877 1.279 . S
O880 Cd870 2.297 . S
O880 C875 1.247 . S
O881 Cd870 2.439 . S
O881 C875 1.208 . S
O882 Cd883 2.223 . S
O882 C890 1.315 . S
Cd883 O882 2.223 . S
Cd883 O886 2.297 . S
Cd883 O887 2.439 . S
Cd883 O893 2.240 . S
Cd884 O885 2.240 . S
Cd884 O892 2.223 . S
Cd884 O894 2.297 . S
Cd884 O895 2.439 . S
O885 Cd884 2.240 . S
O885 C890 1.279 . S
O886 Cd883 2.297 . S
O886 C888 1.247 . S
O887 Cd883 2.439 . S
O887 C888 1.208 . S
C888 O886 1.247 . S
C888 O887 1.208 . S
C889 O894 1.247 . S
C889 O895 1.208 . S
C890 O882 1.315 . S
C890 O885 1.279 . S
C891 O892 1.315 . S
C891 O893 1.279 . S
O892 Cd884 2.223 . S
O892 C891 1.315 . S
O893 Cd883 2.240 . S
O893 C891 1.279 . S
O894 Cd884 2.297 . S
O894 C889 1.247 . S
O895 Cd884 2.439 . S
O895 C889 1.208 . S
O896 Cd897 2.223 . S
O896 C904 1.315 . S
Cd897 O896 2.223 . S
Cd897 O900 2.297 . S
Cd897 O901 2.439 . S
Cd897 O907 2.240 . S
Cd898 O899 2.240 . S
Cd898 O906 2.223 . S
Cd898 O908 2.297 . S
Cd898 O909 2.439 . S
O899 Cd898 2.240 . S
O899 C904 1.279 . S
O900 Cd897 2.297 . S
O900 C902 1.247 . S
O901 Cd897 2.439 . S
O901 C902 1.208 . S
C902 O900 1.247 . S
C902 O901 1.208 . S
C903 O908 1.247 . S
C903 O909 1.208 . S
C904 O896 1.315 . S
C904 O899 1.279 . S
C905 O906 1.315 . S
C905 O907 1.279 . S
O906 Cd898 2.223 . S
O906 C905 1.315 . S
O907 Cd897 2.240 . S
O907 C905 1.279 . S
O908 Cd898 2.297 . S
O908 C903 1.247 . S
O909 Cd898 2.439 . S
O909 C903 1.208 . S
O910 Cd911 2.223 . S
O910 C918 1.315 . S
Cd911 O910 2.223 . S
Cd911 O914 2.297 . S
Cd911 O915 2.439 . S
Cd911 O921 2.240 . S
Cd912 O913 2.240 . S
Cd912 O920 2.223 . S
Cd912 O922 2.297 . S
Cd912 O923 2.439 . S
O913 Cd912 2.240 . S
O913 C918 1.279 . S
O914 Cd911 2.297 . S
O914 C916 1.247 . S
O915 Cd911 2.439 . S
O915 C916 1.208 . S
C916 O914 1.247 . S
C916 O915 1.208 . S
C917 O922 1.247 . S
C917 O923 1.208 . S
C918 O910 1.315 . S
C918 O913 1.279 . S
C919 O920 1.315 . S
C919 O921 1.279 . S
O920 Cd912 2.223 . S
O920 C919 1.315 . S
O921 Cd911 2.240 . S
O921 C919 1.279 . S
O922 Cd912 2.297 . S
O922 C917 1.247 . S
O923 Cd912 2.439 . S
O923 C917 1.208 . S
O924 Cd925 2.223 . S
O924 C932 1.315 . S
Cd925 O924 2.223 . S
Cd925 O928 2.297 . S
Cd925 O929 2.439 . S
Cd925 O935 2.240 . S
Cd926 O927 2.240 . S
Cd926 O934 2.223 . S
Cd926 O936 2.297 . S
Cd926 O937 2.439 . S
O927 Cd926 2.240 . S
O927 C932 1.279 . S
O928 Cd925 2.297 . S
O928 C930 1.247 . S
O929 Cd925 2.439 . S
O929 C930 1.208 . S
C930 O928 1.247 . S
C930 O929 1.208 . S
C931 O936 1.247 . S
C931 O937 1.208 . S
C932 O924 1.315 . S
C932 O927 1.279 . S
C933 O934 1.315 . S
C933 O935 1.279 . S
O934 Cd926 2.223 . S
O934 C933 1.315 . S
O935 Cd925 2.240 . S
O935 C933 1.279 . S
O936 Cd926 2.297 . S
O936 C931 1.247 . S
O937 Cd926 2.439 . S
O937 C931 1.208 . S
O938 Cd939 2.223 . S
O938 C946 1.315 . S
Cd939 O938 2.223 . S
Cd939 O942 2.297 . S
Cd939 O943 2.439 . S
Cd939 O949 2.240 . S
Cd940 O941 2.240 . S
Cd940 O948 2.223 . S
Cd940 O950 2.297 . S
Cd940 O951 2.439 . S
O941 Cd940 2.240 . S
O941 C946 1.279 . S
O942 Cd939 2.297 . S
O942 C944 1.247 . S
O943 Cd939 2.439 . S
O943 C944 1.208 . S
C944 O942 1.247 . S
C944 O943 1.208 . S
C945 O950 1.247 . S
C945 O951 1.208 . S
C946 O938 1.315 . S
C946 O941 1.279 . S
C947 O948 1.315 . S
C947 O949 1.279 . S
O948 Cd940 2.223 . S
O948 C947 1.315 . S
O949 Cd939 2.240 . S
O949 C947 1.279 . S
O950 Cd940 2.297 . S
O950 C945 1.247 . S
O951 Cd940 2.439 . S
O951 C945 1.208 . S
O952 Cd953 2.223 . S
O952 C960 1.315 . S
Cd953 O952 2.223 . S
Cd953 O956 2.297 . S
Cd953 O957 2.439 . S
Cd953 O963 2.240 . S
Cd954 O955 2.240 . S
Cd954 O962 2.223 . S
Cd954 O964 2.297 . S
Cd954 O965 2.439 . S
O955 Cd954 2.240 . S
O955 C960 1.279 . S
O956 Cd953 2.297 . S
O956 C958 1.247 . S
O957 Cd953 2.439 . S
O957 C958 1.208 . S
C958 O956 1.247 . S
C958 O957 1.208 . S
C959 O964 1.247 . S
C959 O965 1.208 . S
C960 O952 1.315 . S
C960 O955 1.279 . S
C961 O962 1.315 . S
C961 O963 1.279 . S
O962 Cd954 2.223 . S
O962 C961 1.315 . S
O963 Cd953 2.240 . S
O963 C961 1.279 . S
O964 Cd954 2.297 . S
O964 C959 1.247 . S
O965 Cd954 2.439 . S
O965 C959 1.208 . S
O966 Cd967 2.223 . S
O966 C974 1.315 . S
Cd967 O966 2.223 . S
Cd967 O970 2.297 . S
Cd967 O971 2.439 . S
Cd967 O977 2.240 . S
Cd968 O969 2.240 . S
Cd968 O976 2.223 . S
Cd968 O978 2.297 . S
Cd968 O979 2.439 . S
O969 Cd968 2.240 . S
O969 C974 1.279 . S
O970 Cd967 2.297 . S
O970 C972 1.247 . S
O971 Cd967 2.439 . S
O971 C972 1.208 . S
C972 O970 1.247 . S
C972 O971 1.208 . S
C973 O978 1.247 . S
C973 O979 1.208 . S
C974 O966 1.315 . S
C974 O969 1.279 . S
C975 O976 1.315 . S
C975 O977 1.279 . S
O976 Cd968 2.223 . S
O976 C975 1.315 . S
O977 Cd967 2.240 . S
O977 C975 1.279 . S
O978 Cd968 2.297 . S
O978 C973 1.247 . S
O979 Cd968 2.439 . S
O979 C973 1.208 . S
O980 Cd981 2.223 . S
O980 C988 1.315 . S
Cd981 O980 2.223 . S
Cd981 O984 2.297 . S
Cd981 O985 2.439 . S
Cd981 O991 2.240 . S
Cd982 O983 2.240 . S
Cd982 O990 2.223 . S
Cd982 O992 2.297 . S
Cd982 O993 2.439 . S
O983 Cd982 2.240 . S
O983 C988 1.279 . S
O984 Cd981 2.297 . S
O984 C986 1.247 . S
O985 Cd981 2.439 . S
O985 C986 1.208 . S
C986 O984 1.247 . S
C986 O985 1.208 . S
C987 O992 1.247 . S
C987 O993 1.208 . S
C988 O980 1.315 . S
C988 O983 1.279 . S
C989 O990 1.315 . S
C989 O991 1.279 . S
O990 Cd982 2.223 . S
O990 C989 1.315 . S
O991 Cd981 2.240 . S
O991 C989 1.279 . S
O992 Cd982 2.297 . S
O992 C987 1.247 . S
O993 Cd982 2.439 . S
O993 C987 1.208 . S
O994 Cd995 2.223 . S
O994 C1002 1.315 . S
Cd995 O994 2.223 . S
Cd995 O998 2.297 . S
Cd995 O999 2.439 . S
Cd995 O1005 2.240 . S
Cd996 O997 2.240 . S
Cd996 O1004 2.223 . S
Cd996 O1006 2.297 . S
Cd996 O1007 2.439 . S
O997 Cd996 2.240 . S
O997 C1002 1.279 . S
O998 Cd995 2.297 . S
O998 C1000 1.247 . S
O999 Cd995 2.439 . S
O999 C1000 1.208 . S
C1000 O998 1.247 . S
C1000 O999 1.208 . S
C1001 O1006 1.247 . S
C1001 O1007 1.208 . S
C1002 O994 1.315 . S
C1002 O997 1.279 . S
C1003 O1004 1.315 . S
C1003 O1005 1.279 . S
O1004 Cd996 2.223 . S
O1004 C1003 1.315 . S
O1005 Cd995 2.240 . S
O1005 C1003 1.279 . S
O1006 Cd996 2.297 . S
O1006 C1001 1.247 . S
O1007 Cd996 2.439 . S
O1007 C1001 1.208 . S
O1008 Cd1009 2.223 . S
O1008 C1016 1.315 . S
Cd1009 O1008 2.223 . S
Cd1009 O1012 2.297 . S
Cd1009 O1013 2.439 . S
Cd1009 O1019 2.240 . S
Cd1010 O1011 2.240 . S
Cd1010 O1018 2.223 . S
Cd1010 O1020 2.297 . S
Cd1010 O1021 2.439 . S
O1011 Cd1010 2.240 . S
O1011 C1016 1.279 . S
O1012 Cd1009 2.297 . S
O1012 C1014 1.247 . S
O1013 Cd1009 2.439 . S
O1013 C1014 1.208 . S
C1014 O1012 1.247 . S
C1014 O1013 1.208 . S
C1015 O1020 1.247 . S
C1015 O1021 1.208 . S
C1016 O1008 1.315 . S
C1016 O1011 1.279 . S
C1017 O1018 1.315 . S
C1017 O1019 1.279 . S
O1018 Cd1010 2.223 . S
O1018 C1017 1.315 . S
O1019 Cd1009 2.240 . S
O1019 C1017 1.279 . S
O1020 Cd1010 2.297 . S
O1020 C1015 1.247 . S
O1021 Cd1010 2.439 . S
O1021 C1015 1.208 . S
O1022 Cd1023 2.223 . S
O1022 C1030 1.315 . S
Cd1023 O1022 2.223 . S
Cd1023 O1026 2.297 . S
Cd1023 O1027 2.439 . S
Cd1023 O1033 2.240 . S
Cd1024 O1025 2.240 . S
Cd1024 O1032 2.223 . S
Cd1024 O1034 2.297 . S
Cd1024 O1035 2.439 . S
O1025 Cd1024 2.240 . S
O1025 C1030 1.279 . S
O1026 Cd1023 2.297 . S
O1026 C1028 1.247 . S
O1027 Cd1023 2.439 . S
O1027 C1028 1.208 . S
C1028 O1026 1.247 . S
C1028 O1027 1.208 . S
C1029 O1034 1.247 . S
C1029 O1035 1.208 . S
C1030 O1022 1.315 . S
C1030 O1025 1.279 . S
C1031 O1032 1.315 . S
C1031 O1033 1.279 . S
O1032 Cd1024 2.223 . S
O1032 C1031 1.315 . S
O1033 Cd1023 2.240 . S
O1033 C1031 1.279 . S
O1034 Cd1024 2.297 . S
O1034 C1029 1.247 . S
O1035 Cd1024 2.439 . S
O1035 C1029 1.208 . S
O1036 Cd1037 2.223 . S
O1036 C1044 1.315 . S
Cd1037 O1036 2.223 . S
Cd1037 O1040 2.297 . S
Cd1037 O1041 2.439 . S
Cd1037 O1047 2.240 . S
Cd1038 O1039 2.240 . S
Cd1038 O1046 2.223 . S
Cd1038 O1048 2.297 . S
Cd1038 O1049 2.439 . S
O1039 Cd1038 2.240 . S
O1039 C1044 1.279 . S
O1040 Cd1037 2.297 . S
O1040 C1042 1.247 . S
O1041 Cd1037 2.439 . S
O1041 C1042 1.208 . S
C1042 O1040 1.247 . S
C1042 O1041 1.208 . S
C1043 O1048 1.247 . S
C1043 O1049 1.208 . S
C1044 O1036 1.315 . S
C1044 O1039 1.279 . S
C1045 O1046 1.315 . S
C1045 O1047 1.279 . S
O1046 Cd1038 2.223 . S
O1046 C1045 1.315 . S
O1047 Cd1037 2.240 . S
O1047 C1045 1.279 . S
O1048 Cd1038 2.297 . S
O1048 C1043 1.247 . S
O1049 Cd1038 2.439 . S
O1049 C1043 1.208 . S
O1050 Cd1051 2.223 . S
O1050 C1058 1.315 . S
Cd1051 O1050 2.223 . S
Cd1051 O1054 2.297 . S
Cd1051 O1055 2.439 . S
Cd1051 O1061 2.240 . S
Cd1052 O1053 2.240 . S
Cd1052 O1060 2.223 . S
Cd1052 O1062 2.297 . S
Cd1052 O1063 2.439 . S
O1053 Cd1052 2.240 . S
O1053 C1058 1.279 . S
O1054 Cd1051 2.297 . S
O1054 C1056 1.247 . S
O1055 Cd1051 2.439 . S
O1055 C1056 1.208 . S
C1056 O1054 1.247 . S
C1056 O1055 1.208 . S
C1057 O1062 1.247 . S
C1057 O1063 1.208 . S
C1058 O1050 1.315 . S
C1058 O1053 1.279 . S
C1059 O1060 1.315 . S
C1059 O1061 1.279 . S
O1060 Cd1052 2.223 . S
O1060 C1059 1.315 . S
O1061 Cd1051 2.240 . S
O1061 C1059 1.279 . S
O1062 Cd1052 2.297 . S
O1062 C1057 1.247 . S
O1063 Cd1052 2.439 . S
O1063 C1057 1.208 . S
O1064 Cd1065 2.223 . S
O1064 C1072 1.315 . S
Cd1065 O1064 2.223 . S
Cd1065 O1068 2.297 . S
Cd1065 O1069 2.439 . S
Cd1065 O1075 2.240 . S
Cd1066 O1067 2.240 . S
Cd1066 O1074 2.223 . S
Cd1066 O1076 2.297 . S
Cd1066 O1077 2.439 . S
O1067 Cd1066 2.240 . S
O1067 C1072 1.279 . S
O1068 Cd1065 2.297 . S
O1068 C1070 1.247 . S
O1069 Cd1065 2.439 . S
O1069 C1070 1.208 . S
C1070 O1068 1.247 . S
C1070 O1069 1.208 . S
C1071 O1076 1.247 . S
C1071 O1077 1.208 . S
C1072 O1064 1.315 . S
C1072 O1067 1.279 . S
C1073 O1074 1.315 . S
C1073 O1075 1.279 . S
O1074 Cd1066 2.223 . S
O1074 C1073 1.315 . S
O1075 Cd1065 2.240 . S
O1075 C1073 1.279 . S
O1076 Cd1066 2.297 . S
O1076 C1071 1.247 . S
O1077 Cd1066 2.439 . S
O1077 C1071 1.208 . S
O1078 Cd1079 2.223 . S
O1078 C1086 1.315 . S
Cd1079 O1078 2.223 . S
Cd1079 O1082 2.297 . S
Cd1079 O1083 2.439 . S
Cd1079 O1089 2.240 . S
Cd1080 O1081 2.240 . S
Cd1080 O1088 2.223 . S
Cd1080 O1090 2.297 . S
Cd1080 O1091 2.439 . S
O1081 Cd1080 2.240 . S
O1081 C1086 1.279 . S
O1082 Cd1079 2.297 . S
O1082 C1084 1.247 . S
O1083 Cd1079 2.439 . S
O1083 C1084 1.208 . S
C1084 O1082 1.247 . S
C1084 O1083 1.208 . S
C1085 O1090 1.247 . S
C1085 O1091 1.208 . S
C1086 O1078 1.315 . S
C1086 O1081 1.279 . S
C1087 O1088 1.315 . S
C1087 O1089 1.279 . S
O1088 Cd1080 2.223 . S
O1088 C1087 1.315 . S
O1089 Cd1079 2.240 . S
O1089 C1087 1.279 . S
O1090 Cd1080 2.297 . S
O1090 C1085 1.247 . S
O1091 Cd1080 2.439 . S
O1091 C1085 1.208 . S
O1092 Cd1093 2.223 . S
O1092 C1100 1.315 . S
Cd1093 O1092 2.223 . S
Cd1093 O1096 2.297 . S
Cd1093 O1097 2.439 . S
Cd1093 O1103 2.240 . S
Cd1094 O1095 2.240 . S
Cd1094 O1102 2.223 . S
Cd1094 O1104 2.297 . S
Cd1094 O1105 2.439 . S
O1095 Cd1094 2.240 . S
O1095 C1100 1.279 . S
O1096 Cd1093 2.297 . S
O1096 C1098 1.247 . S
O1097 Cd1093 2.439 . S
O1097 C1098 1.208 . S
C1098 O1096 1.247 . S
C1098 O1097 1.208 . S
C1099 O1104 1.247 . S
C1099 O1105 1.208 . S
C1100 O1092 1.315 . S
C1100 O1095 1.279 . S
C1101 O1102 1.315 . S
C1101 O1103 1.279 . S
O1102 Cd1094 2.223 . S
O1102 C1101 1.315 . S
O1103 Cd1093 2.240 . S
O1103 C1101 1.279 . S
O1104 Cd1094 2.297 . S
O1104 C1099 1.247 . S
O1105 Cd1094 2.439 . S
O1105 C1099 1.208 . S
O1106 Cd1107 2.223 . S
O1106 C1114 1.315 . S
Cd1107 O1106 2.223 . S
Cd1107 O1110 2.297 . S
Cd1107 O1111 2.439 . S
Cd1107 O1117 2.240 . S
Cd1108 O1109 2.240 . S
Cd1108 O1116 2.223 . S
Cd1108 O1118 2.297 . S
Cd1108 O1119 2.439 . S
O1109 Cd1108 2.240 . S
O1109 C1114 1.279 . S
O1110 Cd1107 2.297 . S
O1110 C1112 1.247 . S
O1111 Cd1107 2.439 . S
O1111 C1112 1.208 . S
C1112 O1110 1.247 . S
C1112 O1111 1.208 . S
C1113 O1118 1.247 . S
C1113 O1119 1.208 . S
C1114 O1106 1.315 . S
C1114 O1109 1.279 . S
C1115 O1116 1.315 . S
C1115 O1117 1.279 . S
O1116 Cd1108 2.223 . S
O1116 C1115 1.315 . S
O1117 Cd1107 2.240 . S
O1117 C1115 1.279 . S
O1118 Cd1108 2.297 . S
O1118 C1113 1.247 . S
O1119 Cd1108 2.439 . S
O1119 C1113 1.208 . S
O1120 Cd1121 2.223 . S
O1120 C1128 1.315 . S
Cd1121 O1120 2.223 . S
Cd1121 O1124 2.297 . S
Cd1121 O1125 2.439 . S
Cd1121 O1131 2.240 . S
Cd1122 O1123 2.240 . S
Cd1122 O1130 2.223 . S
Cd1122 O1132 2.297 . S
Cd1122 O1133 2.439 . S
O1123 Cd1122 2.240 . S
O1123 C1128 1.279 . S
O1124 Cd1121 2.297 . S
O1124 C1126 1.247 . S
O1125 Cd1121 2.439 . S
O1125 C1126 1.208 . S
C1126 O1124 1.247 . S
C1126 O1125 1.208 . S
C1127 O1132 1.247 . S
C1127 O1133 1.208 . S
C1128 O1120 1.315 . S
C1128 O1123 1.279 . S
C1129 O1130 1.315 . S
C1129 O1131 1.279 . S
O1130 Cd1122 2.223 . S
O1130 C1129 1.315 . S
O1131 Cd1121 2.240 . S
O1131 C1129 1.279 . S
O1132 Cd1122 2.297 . S
O1132 C1127 1.247 . S
O1133 Cd1122 2.439 . S
O1133 C1127 1.208 . S
O1134 Cd1135 2.223 . S
O1134 C1142 1.315 . S
Cd1135 O1134 2.223 . S
Cd1135 O1138 2.297 . S
Cd1135 O1139 2.439 . S
Cd1135 O1145 2.240 . S
Cd1136 O1137 2.240 . S
Cd1136 O1144 2.223 . S
Cd1136 O1146 2.297 . S
Cd1136 O1147 2.439 . S
O1137 Cd1136 2.240 . S
O1137 C1142 1.279 . S
O1138 Cd1135 2.297 . S
O1138 C1140 1.247 . S
O1139 Cd1135 2.439 . S
O1139 C1140 1.208 . S
C1140 O1138 1.247 . S
C1140 O1139 1.208 . S
C1141 O1146 1.247 . S
C1141 O1147 1.208 . S
C1142 O1134 1.315 . S
C1142 O1137 1.279 . S
C1143 O1144 1.315 . S
C1143 O1145 1.279 . S
O1144 Cd1136 2.223 . S
O1144 C1143 1.315 . S
O1145 Cd1135 2.240 . S
O1145 C1143 1.279 . S
O1146 Cd1136 2.297 . S
O1146 C1141 1.247 . S
O1147 Cd1136 2.439 . S
O1147 C1141 1.208 . S
O1148 Cd1149 2.223 . S
O1148 C1156 1.315 . S
Cd1149 O1148 2.223 . S
Cd1149 O1152 2.297 . S
Cd1149 O1153 2.439 . S
Cd1149 O1159 2.240 . S
Cd1150 O1151 2.240 . S
Cd1150 O1158 2.223 . S
Cd1150 O1160 2.297 . S
Cd1150 O1161 2.439 . S
O1151 Cd1150 2.240 . S
O1151 C1156 1.279 . S
O1152 Cd1149 2.297 . S
O1152 C1154 1.247 . S
O1153 Cd1149 2.439 . S
O1153 C1154 1.208 . S
C1154 O1152 1.247 . S
C1154 O1153 1.208 . S
C1155 O1160 1.247 . S
C1155 O1161 1.208 . S
C1156 O1148 1.315 . S
C1156 O1151 1.279 . S
C1157 O1158 1.315 . S
C1157 O1159 1.279 . S
O1158 Cd1150 2.223 . S
O1158 C1157 1.315 . S
O1159 Cd1149 2.240 . S
O1159 C1157 1.279 . S
O1160 Cd1150 2.297 . S
O1160 C1155 1.247 . S
O1161 Cd1150 2.439 . S
O1161 C1155 1.208 . S
O1162 Cd1163 2.223 . S
O1162 C1170 1.315 . S
Cd1163 O1162 2.223 . S
Cd1163 O1166 2.297 . S
Cd1163 O1167 2.439 . S
Cd1163 O1173 2.240 . S
Cd1164 O1165 2.240 . S
Cd1164 O1172 2.223 . S
Cd1164 O1174 2.297 . S
Cd1164 O1175 2.439 . S
O1165 Cd1164 2.240 . S
O1165 C1170 1.279 . S
O1166 Cd1163 2.297 . S
O1166 C1168 1.247 . S
O1167 Cd1163 2.439 . S
O1167 C1168 1.208 . S
C1168 O1166 1.247 . S
C1168 O1167 1.208 . S
C1169 O1174 1.247 . S
C1169 O1175 1.208 . S
C1170 O1162 1.315 . S
C1170 O1165 1.279 . S
C1171 O1172 1.315 . S
C1171 O1173 1.279 . S
O1172 Cd1164 2.223 . S
O1172 C1171 1.315 . S
O1173 Cd1163 2.240 . S
O1173 C1171 1.279 . S
O1174 Cd1164 2.297 . S
O1174 C1169 1.247 . S
O1175 Cd1164 2.439 . S
O1175 C1169 1.208 . S
O1176 Cd1177 2.223 . S
O1176 C1184 1.315 . S
Cd1177 O1176 2.223 . S
Cd1177 O1180 2.297 . S
Cd1177 O1181 2.439 . S
Cd1177 O1187 2.240 . S
Cd1178 O1179 2.240 . S
Cd1178 O1186 2.223 . S
Cd1178 O1188 2.297 . S
Cd1178 O1189 2.439 . S
O1179 Cd1178 2.240 . S
O1179 C1184 1.279 . S
O1180 Cd1177 2.297 . S
O1180 C1182 1.247 . S
O1181 Cd1177 2.439 . S
O1181 C1182 1.208 . S
C1182 O1180 1.247 . S
C1182 O1181 1.208 . S
C1183 O1188 1.247 . S
C1183 O1189 1.208 . S
C1184 O1176 1.315 . S
C1184 O1179 1.279 . S
C1185 O1186 1.315 . S
C1185 O1187 1.279 . S
O1186 Cd1178 2.223 . S
O1186 C1185 1.315 . S
O1187 Cd1177 2.240 . S
O1187 C1185 1.279 . S
O1188 Cd1178 2.297 . S
O1188 C1183 1.247 . S
O1189 Cd1178 2.439 . S
O1189 C1183 1.208 . S
O1190 Cd1191 2.223 . S
O1190 C1198 1.315 . S
Cd1191 O1190 2.223 . S
Cd1191 O1194 2.297 . S
Cd1191 O1195 2.439 . S
Cd1191 O1201 2.240 . S
Cd1192 O1193 2.240 . S
Cd1192 O1200 2.223 . S
Cd1192 O1202 2.297 . S
Cd1192 O1203 2.439 . S
O1193 Cd1192 2.240 . S
O1193 C1198 1.279 . S
O1194 Cd1191 2.297 . S
O1194 C1196 1.247 . S
O1195 Cd1191 2.439 . S
O1195 C1196 1.208 . S
C1196 O1194 1.247 . S
C1196 O1195 1.208 . S
C1197 O1202 1.247 . S
C1197 O1203 1.208 . S
C1198 O1190 1.315 . S
C1198 O1193 1.279 . S
C1199 O1200 1.315 . S
C1199 O1201 1.279 . S
O1200 Cd1192 2.223 . S
O1200 C1199 1.315 . S
O1201 Cd1191 2.240 . S
O1201 C1199 1.279 . S
O1202 Cd1192 2.297 . S
O1202 C1197 1.247 . S
O1203 Cd1192 2.439 . S
O1203 C1197 1.208 . S
O1204 Cd1205 2.223 . S
O1204 C1212 1.315 . S
Cd1205 O1204 2.223 . S
Cd1205 O1208 2.297 . S
Cd1205 O1209 2.439 . S
Cd1205 O1215 2.240 . S
Cd1206 O1207 2.240 . S
Cd1206 O1214 2.223 . S
Cd1206 O1216 2.297 . S
Cd1206 O1217 2.439 . S
O1207 Cd1206 2.240 . S
O1207 C1212 1.279 . S
O1208 Cd1205 2.297 . S
O1208 C1210 1.247 . S
O1209 Cd1205 2.439 . S
O1209 C1210 1.208 . S
C1210 O1208 1.247 . S
C1210 O1209 1.208 . S
C1211 O1216 1.247 . S
C1211 O1217 1.208 . S
C1212 O1204 1.315 . S
C1212 O1207 1.279 . S
C1213 O1214 1.315 . S
C1213 O1215 1.279 . S
O1214 Cd1206 2.223 . S
O1214 C1213 1.315 . S
O1215 Cd1205 2.240 . S
O1215 C1213 1.279 . S
O1216 Cd1206 2.297 . S
O1216 C1211 1.247 . S
O1217 Cd1206 2.439 . S
O1217 C1211 1.208 . S
O1218 Cd1219 2.223 . S
O1218 C1226 1.315 . S
Cd1219 O1218 2.223 . S
Cd1219 O1222 2.297 . S
Cd1219 O1223 2.439 . S
Cd1219 O1229 2.240 . S
Cd1220 O1221 2.240 . S
Cd1220 O1228 2.223 . S
Cd1220 O1230 2.297 . S
Cd1220 O1231 2.439 . S
O1221 Cd1220 2.240 . S
O1221 C1226 1.279 . S
O1222 Cd1219 2.297 . S
O1222 C1224 1.247 . S
O1223 Cd1219 2.439 . S
O1223 C1224 1.208 . S
C1224 O1222 1.247 . S
C1224 O1223 1.208 . S
C1225 O1230 1.247 . S
C1225 O1231 1.208 . S
C1226 O1218 1.315 . S
C1226 O1221 1.279 . S
C1227 O1228 1.315 . S
C1227 O1229 1.279 . S
O1228 Cd1220 2.223 . S
O1228 C1227 1.315 . S
O1229 Cd1219 2.240 . S
O1229 C1227 1.279 . S
O1230 Cd1220 2.297 . S
O1230 C1225 1.247 . S
O1231 Cd1220 2.439 . S
O1231 C1225 1.208 . S
O1232 Cd1233 2.223 . S
O1232 C1240 1.315 . S
Cd1233 O1232 2.223 . S
Cd1233 O1236 2.297 . S
Cd1233 O1237 2.439 . S
Cd1233 O1243 2.240 . S
Cd1234 O1235 2.240 . S
Cd1234 O1242 2.223 . S
Cd1234 O1244 2.297 . S
Cd1234 O1245 2.439 . S
O1235 Cd1234 2.240 . S
O1235 C1240 1.279 . S
O1236 Cd1233 2.297 . S
O1236 C1238 1.247 . S
O1237 Cd1233 2.439 . S
O1237 C1238 1.208 . S
C1238 O1236 1.247 . S
C1238 O1237 1.208 . S
C1239 O1244 1.247 . S
C1239 O1245 1.208 . S
C1240 O1232 1.315 . S
C1240 O1235 1.279 . S
C1241 O1242 1.315 . S
C1241 O1243 1.279 . S
O1242 Cd1234 2.223 . S
O1242 C1241 1.315 . S
O1243 Cd1233 2.240 . S
O1243 C1241 1.279 . S
O1244 Cd1234 2.297 . S
O1244 C1239 1.247 . S
O1245 Cd1234 2.439 . S
O1245 C1239 1.208 . S
O1246 Cd1247 2.223 . S
O1246 C1254 1.315 . S
Cd1247 O1246 2.223 . S
Cd1247 O1250 2.297 . S
Cd1247 O1251 2.439 . S
Cd1247 O1257 2.240 . S
Cd1248 O1249 2.240 . S
Cd1248 O1256 2.223 . S
Cd1248 O1258 2.297 . S
Cd1248 O1259 2.439 . S
O1249 Cd1248 2.240 . S
O1249 C1254 1.279 . S
O1250 Cd1247 2.297 . S
O1250 C1252 1.247 . S
O1251 Cd1247 2.439 . S
O1251 C1252 1.208 . S
C1252 O1250 1.247 . S
C1252 O1251 1.208 . S
C1253 O1258 1.247 . S
C1253 O1259 1.208 . S
C1254 O1246 1.315 . S
C1254 O1249 1.279 . S
C1255 O1256 1.315 . S
C1255 O1257 1.279 . S
O1256 Cd1248 2.223 . S
O1256 C1255 1.315 . S
O1257 Cd1247 2.240 . S
O1257 C1255 1.279 . S
O1258 Cd1248 2.297 . S
O1258 C1253 1.247 . S
O1259 Cd1248 2.439 . S
O1259 C1253 1.208 . S
O1260 Cd1261 2.223 . S
O1260 C1268 1.315 . S
Cd1261 O1260 2.223 . S
Cd1261 O1264 2.297 . S
Cd1261 O1265 2.439 . S
Cd1261 O1271 2.240 . S
Cd1262 O1263 2.240 . S
Cd1262 O1270 2.223 . S
Cd1262 O1272 2.297 . S
Cd1262 O1273 2.439 . S
O1263 Cd1262 2.240 . S
O1263 C1268 1.279 . S
O1264 Cd1261 2.297 . S
O1264 C1266 1.247 . S
O1265 Cd1261 2.439 . S
O1265 C1266 1.208 . S
C1266 O1264 1.247 . S
C1266 O1265 1.208 . S
C1267 O1272 1.247 . S
C1267 O1273 1.208 . S
C1268 O1260 1.315 . S
C1268 O1263 1.279 . S
C1269 O1270 1.315 . S
C1269 O1271 1.279 . S
O1270 Cd1262 2.223 . S
O1270 C1269 1.315 . S
O1271 Cd1261 2.240 . S
O1271 C1269 1.279 . S
O1272 Cd1262 2.297 . S
O1272 C1267 1.247 . S
O1273 Cd1262 2.439 . S
O1273 C1267 1.208 . S
O1274 Cd1275 2.223 . S
O1274 C1282 1.315 . S
Cd1275 O1274 2.223 . S
Cd1275 O1278 2.297 . S
Cd1275 O1279 2.439 . S
Cd1275 O1285 2.240 . S
Cd1276 O1277 2.240 . S
Cd1276 O1284 2.223 . S
Cd1276 O1286 2.297 . S
Cd1276 O1287 2.439 . S
O1277 Cd1276 2.240 . S
O1277 C1282 1.279 . S
O1278 Cd1275 2.297 . S
O1278 C1280 1.247 . S
O1279 Cd1275 2.439 . S
O1279 C1280 1.208 . S
C1280 O1278 1.247 . S
C1280 O1279 1.208 . S
C1281 O1286 1.247 . S
C1281 O1287 1.208 . S
C1282 O1274 1.315 . S
C1282 O1277 1.279 . S
C1283 O1284 1.315 . S
C1283 O1285 1.279 . S
O1284 Cd1276 2.223 . S
O1284 C1283 1.315 . S
O1285 Cd1275 2.240 . S
O1285 C1283 1.279 . S
O1286 Cd1276 2.297 . S
O1286 C1281 1.247 . S
O1287 Cd1276 2.439 . S
O1287 C1281 1.208 . S
O1288 Cd1289 2.223 . S
O1288 C1296 1.315 . S
Cd1289 O1288 2.223 . S
Cd1289 O1292 2.297 . S
Cd1289 O1293 2.439 . S
Cd1289 O1299 2.240 . S
Cd1290 O1291 2.240 . S
Cd1290 O1298 2.223 . S
Cd1290 O1300 2.297 . S
Cd1290 O1301 2.439 . S
O1291 Cd1290 2.240 . S
O1291 C1296 1.279 . S
O1292 Cd1289 2.297 . S
O1292 C1294 1.247 . S
O1293 Cd1289 2.439 . S
O1293 C1294 1.208 . S
C1294 O1292 1.247 . S
C1294 O1293 1.208 . S
C1295 O1300 1.247 . S
C1295 O1301 1.208 . S
C1296 O1288 1.315 . S
C1296 O1291 1.279 . S
C1297 O1298 1.315 . S
C1297 O1299 1.279 . S
O1298 Cd1290 2.223 . S
O1298 C1297 1.315 . S
O1299 Cd1289 2.240 . S
O1299 C1297 1.279 . S
O1300 Cd1290 2.297 . S
O1300 C1295 1.247 . S
O1301 Cd1290 2.439 . S
O1301 C1295 1.208 . S
O1302 Cd1303 2.223 . S
O1302 C1310 1.315 . S
Cd1303 O1302 2.223 . S
Cd1303 O1306 2.297 . S
Cd1303 O1307 2.439 . S
Cd1303 O1313 2.240 . S
Cd1304 O1305 2.240 . S
Cd1304 O1312 2.223 . S
Cd1304 O1314 2.297 . S
Cd1304 O1315 2.439 . S
O1305 Cd1304 2.240 . S
O1305 C1310 1.279 . S
O1306 Cd1303 2.297 . S
O1306 C1308 1.247 . S
O1307 Cd1303 2.439 . S
O1307 C1308 1.208 . S
C1308 O1306 1.247 . S
C1308 O1307 1.208 . S
C1309 O1314 1.247 . S
C1309 O1315 1.208 . S
C1310 O1302 1.315 . S
C1310 O1305 1.279 . S
C1311 O1312 1.315 . S
C1311 O1313 1.279 . S
O1312 Cd1304 2.223 . S
O1312 C1311 1.315 . S
O1313 Cd1303 2.240 . S
O1313 C1311 1.279 . S
O1314 Cd1304 2.297 . S
O1314 C1309 1.247 . S
O1315 Cd1304 2.439 . S
O1315 C1309 1.208 . S
O1316 Cd1317 2.223 . S
O1316 C1324 1.315 . S
Cd1317 O1316 2.223 . S
Cd1317 O1320 2.297 . S
Cd1317 O1321 2.439 . S
Cd1317 O1327 2.240 . S
Cd1318 O1319 2.240 . S
Cd1318 O1326 2.223 . S
Cd1318 O1328 2.297 . S
Cd1318 O1329 2.439 . S
O1319 Cd1318 2.240 . S
O1319 C1324 1.279 . S
O1320 Cd1317 2.297 . S
O1320 C1322 1.247 . S
O1321 Cd1317 2.439 . S
O1321 C1322 1.208 . S
C1322 O1320 1.247 . S
C1322 O1321 1.208 . S
C1323 O1328 1.247 . S
C1323 O1329 1.208 . S
C1324 O1316 1.315 . S
C1324 O1319 1.279 . S
C1325 O1326 1.315 . S
C1325 O1327 1.279 . S
O1326 Cd1318 2.223 . S
O1326 C1325 1.315 . S
O1327 Cd1317 2.240 . S
O1327 C1325 1.279 . S
O1328 Cd1318 2.297 . S
O1328 C1323 1.247 . S
O1329 Cd1318 2.439 . S
O1329 C1323 1.208 . S
O1330 Cd1331 2.223 . S
O1330 C1338 1.315 . S
Cd1331 O1330 2.223 . S
Cd1331 O1334 2.297 . S
Cd1331 O1335 2.439 . S
Cd1331 O1341 2.240 . S
Cd1332 O1333 2.240 . S
Cd1332 O1340 2.223 . S
Cd1332 O1342 2.297 . S
Cd1332 O1343 2.439 . S
O1333 Cd1332 2.240 . S
O1333 C1338 1.279 . S
O1334 Cd1331 2.297 . S
O1334 C1336 1.247 . S
O1335 Cd1331 2.439 . S
O1335 C1336 1.208 . S
C1336 O1334 1.247 . S
C1336 O1335 1.208 . S
C1337 O1342 1.247 . S
C1337 O1343 1.208 . S
C1338 O1330 1.315 . S
C1338 O1333 1.279 . S
C1339 O1340 1.315 . S
C1339 O1341 1.279 . S
O1340 Cd1332 2.223 . S
O1340 C1339 1.315 . S
O1341 Cd1331 2.240 . S
O1341 C1339 1.279 . S
O1342 Cd1332 2.297 . S
O1342 C1337 1.247 . S
O1343 Cd1332 2.439 . S
O1343 C1337 1.208 . S
C1344 C1345 1.369 . S
C1344 C1346 1.419 1_454 S
C1344 H1348 0.930 . S
C1345 C1344 1.369 . S
C1345 C1354 1.439 . S
C1346 C1344 1.419 1_656 S
C1346 C1347 1.363 . S
C1346 H1349 0.929 . S
C1347 C1346 1.363 . S
C1347 C1353 1.428 . S
H1348 C1344 0.930 . S
H1349 C1346 0.929 . S
S1350 N1351 1.631 . S
S1350 N1352 1.610 1_554 S
N1351 S1350 1.631 . S
N1351 C1354 1.347 1_655 S
N1352 S1350 1.610 1_556 S
N1352 C1353 1.351 . S
C1353 C1347 1.428 . S
C1353 N1352 1.351 . S
C1353 C1354 1.424 1_656 S
C1354 C1345 1.439 . S
C1354 N1351 1.347 1_455 S
C1354 C1353 1.424 1_454 S
C1355 C1356 1.369 . S
C1355 C1357 1.419 . S
C1355 H1359 0.930 . S
C1356 C1355 1.369 . S
C1356 C1365 1.429 . S
C1357 C1355 1.419 . S
C1357 C1358 1.363 . S
C1357 H1360 0.929 . S
C1358 C1357 1.363 . S
C1358 C1364 1.428 . S
H1359 C1355 0.930 . S
H1360 C1357 0.929 . S
S1361 N1362 1.613 . S
S1361 N1363 1.610 . S
N1362 S1361 1.613 . S
N1362 C1365 1.350 . S
N1363 S1361 1.610 . S
N1363 C1364 1.351 . S
C1364 C1358 1.428 . S
C1364 N1363 1.351 . S
C1364 C1365 1.434 . S
C1365 C1356 1.429 . S
C1365 N1362 1.350 . S
C1365 C1364 1.434 . S
C1366 C1367 1.369 . S
C1366 C1368 1.419 . S
C1366 H1370 0.930 . S
C1367 C1366 1.369 . S
C1367 C1376 1.429 1_655 S
C1368 C1366 1.419 . S
C1368 C1369 1.363 1_655 S
C1368 H1371 0.929 . S
C1369 C1368 1.363 1_455 S
C1369 C1375 1.428 . S
H1370 C1366 0.930 . S
H1371 C1368 0.929 . S
S1372 N1373 1.613 . S
S1372 N1374 1.610 . S
N1373 S1372 1.613 . S
N1373 C1376 1.350 . S
N1374 S1372 1.610 . S
N1374 C1375 1.351 . S
C1375 C1369 1.428 . S
C1375 N1374 1.351 . S
C1375 C1376 1.434 . S
C1376 C1367 1.429 1_455 S
C1376 N1373 1.350 . S
C1376 C1375 1.434 . S
C1377 C1378 1.369 . S
C1377 C1379 1.419 . S
C1377 H1381 0.930 . S
C1378 C1377 1.369 . S
C1378 C1387 1.429 . S
C1379 C1377 1.419 . S
C1379 C1380 1.363 . S
C1379 H1382 0.929 . S
C1380 C1379 1.363 . S
C1380 C1386 1.428 . S
H1381 C1377 0.930 . S
H1382 C1379 0.929 . S
S1383 N1384 1.613 . S
S1383 N1385 1.610 . S
N1384 S1383 1.613 . S
N1384 C1387 1.350 . S
N1385 S1383 1.610 . S
N1385 C1386 1.351 . S
C1386 C1380 1.428 . S
C1386 N1385 1.351 . S
C1386 C1387 1.434 . S
C1387 C1378 1.429 . S
C1387 N1384 1.350 . S
C1387 C1386 1.434 . S
C1388 C1389 1.369 . S
C1388 C1390 1.419 1_554 S
C1388 H1392 0.930 . S
C1389 C1388 1.369 . S
C1389 C1398 1.429 1_655 S
C1390 C1388 1.419 1_556 S
C1390 C1391 1.363 1_655 S
C1390 H1393 0.929 . S
C1391 C1390 1.363 1_455 S
C1391 C1397 1.428 . S
H1392 C1388 0.930 . S
H1393 C1390 0.929 . S
S1394 N1395 1.613 . S
S1394 N1396 1.610 1_554 S
N1395 S1394 1.613 . S
N1395 C1398 1.350 . S
N1396 S1394 1.610 1_556 S
N1396 C1397 1.351 . S
C1397 C1391 1.428 . S
C1397 N1396 1.351 . S
C1397 C1398 1.434 1_556 S
C1398 C1389 1.429 1_455 S
C1398 N1395 1.350 . S
C1398 C1397 1.434 1_554 S
C1399 C1400 1.369 . S
C1399 C1401 1.419 . S
C1399 H1403 0.930 . S
C1400 C1399 1.369 . S
C1400 C1409 1.429 . S
C1401 C1399 1.419 . S
C1401 C1402 1.363 . S
C1401 H1404 0.929 . S
C1402 C1401 1.363 . S
C1402 C1408 1.428 . S
H1403 C1399 0.930 . S
H1404 C1401 0.929 . S
S1405 N1406 1.613 . S
S1405 N1407 1.610 . S
N1406 S1405 1.613 . S
N1406 C1409 1.350 . S
N1407 S1405 1.610 . S
N1407 C1408 1.351 . S
C1408 C1402 1.428 . S
C1408 N1407 1.351 . S
C1408 C1409 1.434 . S
C1409 C1400 1.429 . S
C1409 N1406 1.350 . S
C1409 C1408 1.434 . S
C1410 C1411 1.369 . S
C1410 C1412 1.419 . S
C1410 H1414 0.930 . S
C1411 C1410 1.369 . S
C1411 C1420 1.429 1_455 S
C1412 C1410 1.419 . S
C1412 C1413 1.363 1_455 S
C1412 H1415 0.929 . S
C1413 C1412 1.363 1_655 S
C1413 C1419 1.428 . S
H1414 C1410 0.930 . S
H1415 C1412 0.929 . S
S1416 N1417 1.613 . S
S1416 N1418 1.610 . S
N1417 S1416 1.613 . S
N1417 C1420 1.350 . S
N1418 S1416 1.610 . S
N1418 C1419 1.351 . S
C1419 C1413 1.428 . S
C1419 N1418 1.351 . S
C1419 C1420 1.434 . S
C1420 C1411 1.429 1_655 S
C1420 N1417 1.350 . S
C1420 C1419 1.434 . S
C1421 C1422 1.369 . S
C1421 C1423 1.419 . S
C1421 H1425 0.930 . S
C1422 C1421 1.369 . S
C1422 C1431 1.429 . S
C1423 C1421 1.419 . S
C1423 C1424 1.363 . S
C1423 H1426 0.929 . S
C1424 C1423 1.363 . S
C1424 C1430 1.428 . S
H1425 C1421 0.930 . S
H1426 C1423 0.929 . S
S1427 N1428 1.613 . S
S1427 N1429 1.610 . S
N1428 S1427 1.613 . S
N1428 C1431 1.350 . S
N1429 S1427 1.610 . S
N1429 C1430 1.351 . S
C1430 C1424 1.428 . S
C1430 N1429 1.351 . S
C1430 C1431 1.434 . S
C1431 C1422 1.429 . S
C1431 N1428 1.350 . S
C1431 C1430 1.434 . S
C1432 C1433 1.369 . S
C1432 C1434 1.419 1_655 S
C1432 H1436 0.930 . S
C1433 C1432 1.369 . S
C1433 C1442 1.429 1_565 S
C1434 C1432 1.419 1_455 S
C1434 C1435 1.363 1_565 S
C1434 H1437 0.929 . S
C1435 C1434 1.363 1_545 S
C1435 C1441 1.428 . S
H1436 C1432 0.930 . S
H1437 C1434 0.929 . S
S1438 N1439 1.613 . S
S1438 N1440 1.610 1_655 S
N1439 S1438 1.613 . S
N1439 C1442 1.350 . S
N1440 S1438 1.610 1_455 S
N1440 C1441 1.351 . S
C1441 C1435 1.428 . S
C1441 N1440 1.351 . S
C1441 C1442 1.434 1_455 S
C1442 C1433 1.429 1_545 S
C1442 N1439 1.350 . S
C1442 C1441 1.434 1_655 S
C1443 C1444 1.369 . S
C1443 C1445 1.419 . S
C1443 H1447 0.930 . S
C1444 C1443 1.369 . S
C1444 C1453 1.429 . S
C1445 C1443 1.419 . S
C1445 C1446 1.363 . S
C1445 H1448 0.929 . S
C1446 C1445 1.363 . S
C1446 C1452 1.428 . S
H1447 C1443 0.930 . S
H1448 C1445 0.929 . S
S1449 N1450 1.613 . S
S1449 N1451 1.610 . S
N1450 S1449 1.613 . S
N1450 C1453 1.350 . S
N1451 S1449 1.610 . S
N1451 C1452 1.351 . S
C1452 C1446 1.428 . S
C1452 N1451 1.351 . S
C1452 C1453 1.434 . S
C1453 C1444 1.429 . S
C1453 N1450 1.350 . S
C1453 C1452 1.434 . S
C1454 C1455 1.369 . S
C1454 C1456 1.419 1_655 S
C1454 H1458 0.930 . S
C1455 C1454 1.369 . S
C1455 C1464 1.429 . S
C1456 C1454 1.419 1_455 S
C1456 C1457 1.363 . S
C1456 H1459 0.929 . S
C1457 C1456 1.363 . S
C1457 C1463 1.428 . S
H1458 C1454 0.930 . S
H1459 C1456 0.929 . S
S1460 N1461 1.613 . S
S1460 N1462 1.610 1_655 S
N1461 S1460 1.613 . S
N1461 C1464 1.350 . S
N1462 S1460 1.610 1_455 S
N1462 C1463 1.351 . S
C1463 C1457 1.428 . S
C1463 N1462 1.351 . S
C1463 C1464 1.434 1_455 S
C1464 C1455 1.429 . S
C1464 N1461 1.350 . S
C1464 C1463 1.434 1_655 S
C1465 C1466 1.369 . S
C1465 C1467 1.419 . S
C1465 H1469 0.930 . S
C1466 C1465 1.369 . S
C1466 C1475 1.429 . S
C1467 C1465 1.419 . S
C1467 C1468 1.363 . S
C1467 H1470 0.929 . S
C1468 C1467 1.363 . S
C1468 C1474 1.428 . S
H1469 C1465 0.930 . S
H1470 C1467 0.929 . S
S1471 N1472 1.613 . S
S1471 N1473 1.610 . S
N1472 S1471 1.613 . S
N1472 C1475 1.350 . S
N1473 S1471 1.610 . S
N1473 C1474 1.351 . S
C1474 C1468 1.428 . S
C1474 N1473 1.351 . S
C1474 C1475 1.434 . S
C1475 C1466 1.429 . S
C1475 N1472 1.350 . S
C1475 C1474 1.434 . S
C1476 C1477 1.369 1_545 S
C1476 C1478 1.419 1_455 S
C1476 H1480 0.930 . S
C1477 C1476 1.369 1_565 S
C1477 C1486 1.429 . S
C1478 C1476 1.419 1_655 S
C1478 C1479 1.363 . S
C1478 H1481 0.929 . S
C1479 C1478 1.363 . S
C1479 C1485 1.428 1_545 S
H1480 C1476 0.930 . S
H1481 C1478 0.929 . S
S1482 N1483 1.613 1_655 S
S1482 N1484 1.610 . S
N1483 S1482 1.613 1_455 S
N1483 C1486 1.350 . S
N1484 S1482 1.610 . S
N1484 C1485 1.351 . S
C1485 C1479 1.428 1_565 S
C1485 N1484 1.351 . S
C1485 C1486 1.434 1_655 S
C1486 C1477 1.429 . S
C1486 N1483 1.350 . S
C1486 C1485 1.434 1_455 S
C1487 C1488 1.369 . S
C1487 C1489 1.419 . S
C1487 H1491 0.930 . S
C1488 C1487 1.369 . S
C1488 C1497 1.429 . S
C1489 C1487 1.419 . S
C1489 C1490 1.363 . S
C1489 H1492 0.929 . S
C1490 C1489 1.363 . S
C1490 C1496 1.428 . S
H1491 C1487 0.930 . S
H1492 C1489 0.929 . S
S1493 N1494 1.613 . S
S1493 N1495 1.610 . S
N1494 S1493 1.613 . S
N1494 C1497 1.350 . S
N1495 S1493 1.610 . S
N1495 C1496 1.351 . S
C1496 C1490 1.428 . S
C1496 N1495 1.351 . S
C1496 C1497 1.434 . S
C1497 C1488 1.429 . S
C1497 N1494 1.350 . S
C1497 C1496 1.434 . S
C1498 C1499 1.369 . S
C1498 C1500 1.419 1_455 S
C1498 H1502 0.930 . S
C1499 C1498 1.369 . S
C1499 C1508 1.429 . S
C1500 C1498 1.419 1_655 S
C1500 C1501 1.363 . S
C1500 H1503 0.929 . S
C1501 C1500 1.363 . S
C1501 C1507 1.428 . S
H1502 C1498 0.930 . S
H1503 C1500 0.929 . S
S1504 N1505 1.613 1_655 S
S1504 N1506 1.610 . S
N1505 S1504 1.613 1_455 S
N1505 C1508 1.350 . S
N1506 S1504 1.610 . S
N1506 C1507 1.351 . S
C1507 C1501 1.428 . S
C1507 N1506 1.351 . S
C1507 C1508 1.434 1_655 S
C1508 C1499 1.429 . S
C1508 N1505 1.350 . S
C1508 C1507 1.434 1_455 S
C1509 C1510 1.369 . S
C1509 C1511 1.419 . S
C1509 H1513 0.930 . S
C1510 C1509 1.369 . S
C1510 C1519 1.429 . S
C1511 C1509 1.419 . S
C1511 C1512 1.363 . S
C1511 H1514 0.929 . S
C1512 C1511 1.363 . S
C1512 C1518 1.428 . S
H1513 C1509 0.930 . S
H1514 C1511 0.929 . S
S1515 N1516 1.613 . S
S1515 N1517 1.610 . S
N1516 S1515 1.613 . S
N1516 C1519 1.350 . S
N1517 S1515 1.610 . S
N1517 C1518 1.351 . S
C1518 C1512 1.428 . S
C1518 N1517 1.351 . S
C1518 C1519 1.434 . S
C1519 C1510 1.429 . S
C1519 N1516 1.350 . S
C1519 C1518 1.434 . S
C1520 C1521 1.369 1_554 S
C1520 C1522 1.419 1_565 S
C1520 H1524 0.930 . S
C1521 C1520 1.369 1_556 S
C1521 C1530 1.429 . S
C1522 C1520 1.419 1_545 S
C1522 C1523 1.363 . S
C1522 H1525 0.929 . S
C1523 C1522 1.363 . S
C1523 C1529 1.428 1_554 S
H1524 C1520 0.930 . S
H1525 C1522 0.929 . S
S1526 N1527 1.613 1_545 S
S1526 N1528 1.610 . S
N1527 S1526 1.613 1_565 S
N1527 C1530 1.350 . S
N1528 S1526 1.610 . S
N1528 C1529 1.351 . S
C1529 C1523 1.428 1_556 S
C1529 N1528 1.351 . S
C1529 C1530 1.434 1_545 S
C1530 C1521 1.429 . S
C1530 N1527 1.350 . S
C1530 C1529 1.434 1_565 S
C1531 C1532 1.369 . S
C1531 C1533 1.419 1_545 S
C1531 H1535 0.930 . S
C1532 C1531 1.369 . S
C1532 C1541 1.429 . S
C1533 C1531 1.419 1_565 S
C1533 C1534 1.363 . S
C1533 H1536 0.929 . S
C1534 C1533 1.363 . S
C1534 C1540 1.428 . S
H1535 C1531 0.930 . S
H1536 C1533 0.929 . S
S1537 N1538 1.613 . S
S1537 N1539 1.610 1_545 S
N1538 S1537 1.613 . S
N1538 C1541 1.350 . S
N1539 S1537 1.610 1_565 S
N1539 C1540 1.351 . S
C1540 C1534 1.428 . S
C1540 N1539 1.351 . S
C1540 C1541 1.434 1_565 S
C1541 C1532 1.429 . S
C1541 N1538 1.350 . S
C1541 C1540 1.434 1_545 S
C1542 C1543 1.369 . S
C1542 C1544 1.419 . S
C1542 H1546 0.930 . S
C1543 C1542 1.369 . S
C1543 C1552 1.429 . S
C1544 C1542 1.419 . S
C1544 C1545 1.363 . S
C1544 H1547 0.929 . S
C1545 C1544 1.363 . S
C1545 C1551 1.428 . S
H1546 C1542 0.930 . S
H1547 C1544 0.929 . S
S1548 N1549 1.613 . S
S1548 N1550 1.610 . S
N1549 S1548 1.613 . S
N1549 C1552 1.350 . S
N1550 S1548 1.610 . S
N1550 C1551 1.351 . S
C1551 C1545 1.428 . S
C1551 N1550 1.351 . S
C1551 C1552 1.434 . S
C1552 C1543 1.429 . S
C1552 N1549 1.350 . S
C1552 C1551 1.434 . S
C1553 C1554 1.369 . S
C1553 C1555 1.419 . S
C1553 H1557 0.930 . S
C1554 C1553 1.369 . S
C1554 C1563 1.429 1_554 S
C1555 C1553 1.419 . S
C1555 C1556 1.363 1_554 S
C1555 H1558 0.929 . S
C1556 C1555 1.363 1_556 S
C1556 C1562 1.428 . S
H1557 C1553 0.930 . S
H1558 C1555 0.929 . S
S1559 N1560 1.613 . S
S1559 N1561 1.610 . S
N1560 S1559 1.613 . S
N1560 C1563 1.350 . S
N1561 S1559 1.610 . S
N1561 C1562 1.351 . S
C1562 C1556 1.428 . S
C1562 N1561 1.351 . S
C1562 C1563 1.434 . S
C1563 C1554 1.429 1_556 S
C1563 N1560 1.350 . S
C1563 C1562 1.434 . S
C1564 C1565 1.369 . S
C1564 C1566 1.419 . S
C1564 H1568 0.930 . S
C1565 C1564 1.369 . S
C1565 C1574 1.429 . S
C1566 C1564 1.419 . S
C1566 C1567 1.363 . S
C1566 H1569 0.929 . S
C1567 C1566 1.363 . S
C1567 C1573 1.428 . S
H1568 C1564 0.930 . S
H1569 C1566 0.929 . S
S1570 N1571 1.613 . S
S1570 N1572 1.610 . S
N1571 S1570 1.613 . S
N1571 C1574 1.350 . S
N1572 S1570 1.610 . S
N1572 C1573 1.351 . S
C1573 C1567 1.428 . S
C1573 N1572 1.351 . S
C1573 C1574 1.434 . S
C1574 C1565 1.429 . S
C1574 N1571 1.350 . S
C1574 C1573 1.434 . S
C1575 C1576 1.369 . S
C1575 C1577 1.419 1_565 S
C1575 H1579 0.930 . S
C1576 C1575 1.369 . S
C1576 C1585 1.429 1_554 S
C1577 C1575 1.419 1_545 S
C1577 C1578 1.363 1_554 S
C1577 H1580 0.929 . S
C1578 C1577 1.363 1_556 S
C1578 C1584 1.428 . S
H1579 C1575 0.930 . S
H1580 C1577 0.929 . S
S1581 N1582 1.613 . S
S1581 N1583 1.610 1_565 S
N1582 S1581 1.613 . S
N1582 C1585 1.350 . S
N1583 S1581 1.610 1_545 S
N1583 C1584 1.351 . S
C1584 C1578 1.428 . S
C1584 N1583 1.351 . S
C1584 C1585 1.434 1_545 S
C1585 C1576 1.429 1_556 S
C1585 N1582 1.350 . S
C1585 C1584 1.434 1_565 S
C1586 C1587 1.369 . S
C1586 C1588 1.419 . S
C1586 H1590 0.930 . S
C1587 C1586 1.369 . S
C1587 C1596 1.429 . S
C1588 C1586 1.419 . S
C1588 C1589 1.363 . S
C1588 H1591 0.929 . S
C1589 C1588 1.363 . S
C1589 C1595 1.428 . S
H1590 C1586 0.930 . S
H1591 C1588 0.929 . S
S1592 N1593 1.613 . S
S1592 N1594 1.610 . S
N1593 S1592 1.613 . S
N1593 C1596 1.350 . S
N1594 S1592 1.610 . S
N1594 C1595 1.351 . S
C1595 C1589 1.428 . S
C1595 N1594 1.351 . S
C1595 C1596 1.434 . S
C1596 C1587 1.429 . S
C1596 N1593 1.350 . S
C1596 C1595 1.434 . S
C1597 C1598 1.369 . S
C1597 C1599 1.419 . S
C1597 H1601 0.930 . S
C1598 C1597 1.369 . S
C1598 C1607 1.429 . S
C1599 C1597 1.419 . S
C1599 C1600 1.363 . S
C1599 H1602 0.929 . S
C1600 C1599 1.363 . S
C1600 C1606 1.428 . S
H1601 C1597 0.930 . S
H1602 C1599 0.929 . S
S1603 N1604 1.613 . S
S1603 N1605 1.610 . S
N1604 S1603 1.613 . S
N1604 C1607 1.350 . S
N1605 S1603 1.610 . S
N1605 C1606 1.351 . S
C1606 C1600 1.428 . S
C1606 N1605 1.351 . S
C1606 C1607 1.434 . S
C1607 C1598 1.429 . S
C1607 N1604 1.350 . S
C1607 C1606 1.434 . S
C1608 C1609 1.369 . S
C1608 C1610 1.419 . S
C1608 H1612 0.930 . S
C1609 C1608 1.369 . S
C1609 C1618 1.429 . S
C1610 C1608 1.419 . S
C1610 C1611 1.363 . S
C1610 H1613 0.929 . S
C1611 C1610 1.363 . S
C1611 C1617 1.428 . S
H1612 C1608 0.930 . S
H1613 C1610 0.929 . S
S1614 N1615 1.613 . S
S1614 N1616 1.610 . S
N1615 S1614 1.613 . S
N1615 C1618 1.350 . S
N1616 S1614 1.610 . S
N1616 C1617 1.351 . S
C1617 C1611 1.428 . S
C1617 N1616 1.351 . S
C1617 C1618 1.434 . S
C1618 C1609 1.429 . S
C1618 N1615 1.350 . S
C1618 C1617 1.434 . S
C1619 C1620 1.369 . S
C1619 C1621 1.419 . S
C1619 H1623 0.930 . S
C1620 C1619 1.369 . S
C1620 C1629 1.429 . S
C1621 C1619 1.419 . S
C1621 C1622 1.363 . S
C1621 H1624 0.929 . S
C1622 C1621 1.363 . S
C1622 C1628 1.428 . S
H1623 C1619 0.930 . S
H1624 C1621 0.929 . S
S1625 N1626 1.613 . S
S1625 N1627 1.610 . S
N1626 S1625 1.613 . S
N1626 C1629 1.350 . S
N1627 S1625 1.610 . S
N1627 C1628 1.351 . S
C1628 C1622 1.428 . S
C1628 N1627 1.351 . S
C1628 C1629 1.434 . S
C1629 C1620 1.429 . S
C1629 N1626 1.350 . S
C1629 C1628 1.434 . S
C1630 C1631 1.369 . S
C1630 C1632 1.419 . S
C1630 H1634 0.930 . S
C1631 C1630 1.369 . S
C1631 C1640 1.429 . S
C1632 C1630 1.419 . S
C1632 C1633 1.363 . S
C1632 H1635 0.929 . S
C1633 C1632 1.363 . S
C1633 C1639 1.428 . S
H1634 C1630 0.930 . S
H1635 C1632 0.929 . S
S1636 N1637 1.613 . S
S1636 N1638 1.610 . S
N1637 S1636 1.613 . S
N1637 C1640 1.350 . S
N1638 S1636 1.610 . S
N1638 C1639 1.351 . S
C1639 C1633 1.428 . S
C1639 N1638 1.351 . S
C1639 C1640 1.434 . S
C1640 C1631 1.429 . S
C1640 N1637 1.350 . S
C1640 C1639 1.434 . S
C1641 C1642 1.369 . S
C1641 C1643 1.419 . S
C1641 H1645 0.930 . S
C1642 C1641 1.369 . S
C1642 C1651 1.429 . S
C1643 C1641 1.419 . S
C1643 C1644 1.363 . S
C1643 H1646 0.929 . S
C1644 C1643 1.363 . S
C1644 C1650 1.428 . S
H1645 C1641 0.930 . S
H1646 C1643 0.929 . S
S1647 N1648 1.613 . S
S1647 N1649 1.610 . S
N1648 S1647 1.613 . S
N1648 C1651 1.350 . S
N1649 S1647 1.610 . S
N1649 C1650 1.351 . S
C1650 C1644 1.428 . S
C1650 N1649 1.351 . S
C1650 C1651 1.434 . S
C1651 C1642 1.429 . S
C1651 N1648 1.350 . S
C1651 C1650 1.434 . S
C1652 C1653 1.369 . S
C1652 C1654 1.419 . S
C1652 H1656 0.930 . S
C1653 C1652 1.369 . S
C1653 C1662 1.429 . S
C1654 C1652 1.419 . S
C1654 C1655 1.363 . S
C1654 H1657 0.929 . S
C1655 C1654 1.363 . S
C1655 C1661 1.428 . S
H1656 C1652 0.930 . S
H1657 C1654 0.929 . S
S1658 N1659 1.613 . S
S1658 N1660 1.610 . S
N1659 S1658 1.613 . S
N1659 C1662 1.350 . S
N1660 S1658 1.610 . S
N1660 C1661 1.351 . S
C1661 C1655 1.428 . S
C1661 N1660 1.351 . S
C1661 C1662 1.434 . S
C1662 C1653 1.429 . S
C1662 N1659 1.350 . S
C1662 C1661 1.434 . S
C1663 C1664 1.369 . S
C1663 C1665 1.419 . S
C1663 H1667 0.930 . S
C1664 C1663 1.369 . S
C1664 C1673 1.429 . S
C1665 C1663 1.419 . S
C1665 C1666 1.363 . S
C1665 H1668 0.929 . S
C1666 C1665 1.363 . S
C1666 C1672 1.428 . S
H1667 C1663 0.930 . S
H1668 C1665 0.929 . S
S1669 N1670 1.613 . S
S1669 N1671 1.610 . S
N1670 S1669 1.613 . S
N1670 C1673 1.350 . S
N1671 S1669 1.610 . S
N1671 C1672 1.351 . S
C1672 C1666 1.428 . S
C1672 N1671 1.351 . S
C1672 C1673 1.434 . S
C1673 C1664 1.429 . S
C1673 N1670 1.350 . S
C1673 C1672 1.434 . S
C1674 C1675 1.369 . S
C1674 C1676 1.419 . S
C1674 H1678 0.930 . S
C1675 C1674 1.369 . S
C1675 C1684 1.429 . S
C1676 C1674 1.419 . S
C1676 C1677 1.363 . S
C1676 H1679 0.929 . S
C1677 C1676 1.363 . S
C1677 C1683 1.428 . S
H1678 C1674 0.930 . S
H1679 C1676 0.929 . S
S1680 N1681 1.613 . S
S1680 N1682 1.610 . S
N1681 S1680 1.613 . S
N1681 C1684 1.350 . S
N1682 S1680 1.610 . S
N1682 C1683 1.351 . S
C1683 C1677 1.428 . S
C1683 N1682 1.351 . S
C1683 C1684 1.434 . S
C1684 C1675 1.429 . S
C1684 N1681 1.350 . S
C1684 C1683 1.434 . S
C1685 C1686 1.369 . S
C1685 C1687 1.419 . S
C1685 H1689 0.930 . S
C1686 C1685 1.369 . S
C1686 C1695 1.429 . S
C1687 C1685 1.419 . S
C1687 C1688 1.363 . S
C1687 H1690 0.929 . S
C1688 C1687 1.363 . S
C1688 C1694 1.428 . S
H1689 C1685 0.930 . S
H1690 C1687 0.929 . S
S1691 N1692 1.613 . S
S1691 N1693 1.610 . S
N1692 S1691 1.613 . S
N1692 C1695 1.350 . S
N1693 S1691 1.610 . S
N1693 C1694 1.351 . S
C1694 C1688 1.428 . S
C1694 N1693 1.351 . S
C1694 C1695 1.434 . S
C1695 C1686 1.429 . S
C1695 N1692 1.350 . S
C1695 C1694 1.434 . S
C1696 C1697 1.369 . S
C1696 C1698 1.419 . S
C1696 H1700 0.930 . S
C1697 C1696 1.369 . S
C1697 C1706 1.429 . S
C1698 C1696 1.419 . S
C1698 C1699 1.363 . S
C1698 H1701 0.929 . S
C1699 C1698 1.363 . S
C1699 C1705 1.428 . S
H1700 C1696 0.930 . S
H1701 C1698 0.929 . S
S1702 N1703 1.613 . S
S1702 N1704 1.610 . S
N1703 S1702 1.613 . S
N1703 C1706 1.350 . S
N1704 S1702 1.610 . S
N1704 C1705 1.351 . S
C1705 C1699 1.428 . S
C1705 N1704 1.351 . S
C1705 C1706 1.434 . S
C1706 C1697 1.429 . S
C1706 N1703 1.350 . S
C1706 C1705 1.434 . S
C1707 C1708 1.369 1_554 S
C1707 C1709 1.419 . S
C1707 H1711 0.930 . S
C1708 C1707 1.369 1_556 S
C1708 C1717 1.429 . S
C1709 C1707 1.419 . S
C1709 C1710 1.363 . S
C1709 H1712 0.929 . S
C1710 C1709 1.363 . S
C1710 C1716 1.428 1_554 S
H1711 C1707 0.930 . S
H1712 C1709 0.929 . S
S1713 N1714 1.613 . S
S1713 N1715 1.610 . S
N1714 S1713 1.613 . S
N1714 C1717 1.350 . S
N1715 S1713 1.610 . S
N1715 C1716 1.351 . S
C1716 C1710 1.428 1_556 S
C1716 N1715 1.351 . S
C1716 C1717 1.434 . S
C1717 C1708 1.429 . S
C1717 N1714 1.350 . S
C1717 C1716 1.434 . S
C1718 C1719 1.369 . S
C1718 C1720 1.419 . S
C1718 H1722 0.930 . S
C1719 C1718 1.369 . S
C1719 C1728 1.429 . S
C1720 C1718 1.419 . S
C1720 C1721 1.363 . S
C1720 H1723 0.929 . S
C1721 C1720 1.363 . S
C1721 C1727 1.428 . S
H1722 C1718 0.930 . S
H1723 C1720 0.929 . S
S1724 N1725 1.613 . S
S1724 N1726 1.610 . S
N1725 S1724 1.613 . S
N1725 C1728 1.350 . S
N1726 S1724 1.610 . S
N1726 C1727 1.351 . S
C1727 C1721 1.428 . S
C1727 N1726 1.351 . S
C1727 C1728 1.434 . S
C1728 C1719 1.429 . S
C1728 N1725 1.350 . S
C1728 C1727 1.434 . S
C1729 C1730 1.369 . S
C1729 C1731 1.419 1_565 S
C1729 H1733 0.930 . S
C1730 C1729 1.369 . S
C1730 C1739 1.429 . S
C1731 C1729 1.419 1_545 S
C1731 C1732 1.363 . S
C1731 H1734 0.929 . S
C1732 C1731 1.363 . S
C1732 C1738 1.428 . S
H1733 C1729 0.930 . S
H1734 C1731 0.929 . S
S1735 N1736 1.613 . S
S1735 N1737 1.610 1_565 S
N1736 S1735 1.613 . S
N1736 C1739 1.350 . S
N1737 S1735 1.610 1_545 S
N1737 C1738 1.351 . S
C1738 C1732 1.428 . S
C1738 N1737 1.351 . S
C1738 C1739 1.434 1_545 S
C1739 C1730 1.429 . S
C1739 N1736 1.350 . S
C1739 C1738 1.434 1_565 S
C1740 C1741 1.369 . S
C1740 C1742 1.419 . S
C1740 H1744 0.930 . S
C1741 C1740 1.369 . S
C1741 C1750 1.429 . S
C1742 C1740 1.419 . S
C1742 C1743 1.363 . S
C1742 H1745 0.929 . S
C1743 C1742 1.363 . S
C1743 C1749 1.428 . S
H1744 C1740 0.930 . S
H1745 C1742 0.929 . S
S1746 N1747 1.613 . S
S1746 N1748 1.610 . S
N1747 S1746 1.613 . S
N1747 C1750 1.350 . S
N1748 S1746 1.610 . S
N1748 C1749 1.351 . S
C1749 C1743 1.428 . S
C1749 N1748 1.351 . S
C1749 C1750 1.434 . S
C1750 C1741 1.429 . S
C1750 N1747 1.350 . S
C1750 C1749 1.434 . S
C1751 C1752 1.369 . S
C1751 C1753 1.419 . S
C1751 H1755 0.930 . S
C1752 C1751 1.369 . S
C1752 C1761 1.429 . S
C1753 C1751 1.419 . S
C1753 C1754 1.363 . S
C1753 H1756 0.929 . S
C1754 C1753 1.363 . S
C1754 C1760 1.428 . S
H1755 C1751 0.930 . S
H1756 C1753 0.929 . S
S1757 N1758 1.613 . S
S1757 N1759 1.610 . S
N1758 S1757 1.613 . S
N1758 C1761 1.350 . S
N1759 S1757 1.610 . S
N1759 C1760 1.351 . S
C1760 C1754 1.428 . S
C1760 N1759 1.351 . S
C1760 C1761 1.434 . S
C1761 C1752 1.429 . S
C1761 N1758 1.350 . S
C1761 C1760 1.434 . S
C1762 C1763 1.369 . S
C1762 C1764 1.419 . S
C1762 H1766 0.930 . S
C1763 C1762 1.369 . S
C1763 C1772 1.429 . S
C1764 C1762 1.419 . S
C1764 C1765 1.363 . S
C1764 H1767 0.929 . S
C1765 C1764 1.363 . S
C1765 C1771 1.428 . S
H1766 C1762 0.930 . S
H1767 C1764 0.929 . S
S1768 N1769 1.613 . S
S1768 N1770 1.610 . S
N1769 S1768 1.613 . S
N1769 C1772 1.350 . S
N1770 S1768 1.610 . S
N1770 C1771 1.351 . S
C1771 C1765 1.428 . S
C1771 N1770 1.351 . S
C1771 C1772 1.434 . S
C1772 C1763 1.429 . S
C1772 N1769 1.350 . S
C1772 C1771 1.434 . S
C1773 C1774 1.369 . S
C1773 C1775 1.419 1_556 S
C1773 H1777 0.930 . S
C1774 C1773 1.369 . S
C1774 C1783 1.429 . S
C1775 C1773 1.419 1_554 S
C1775 C1776 1.363 . S
C1775 H1778 0.929 . S
C1776 C1775 1.363 . S
C1776 C1782 1.428 . S
H1777 C1773 0.930 . S
H1778 C1775 0.929 . S
S1779 N1780 1.613 . S
S1779 N1781 1.610 1_556 S
N1780 S1779 1.613 . S
N1780 C1783 1.350 . S
N1781 S1779 1.610 1_554 S
N1781 C1782 1.351 . S
C1782 C1776 1.428 . S
C1782 N1781 1.351 . S
C1782 C1783 1.434 1_554 S
C1783 C1774 1.429 . S
C1783 N1780 1.350 . S
C1783 C1782 1.434 1_556 S
C1784 C1785 1.369 . S
C1784 C1786 1.419 . S
C1784 H1788 0.930 . S
C1785 C1784 1.369 . S
C1785 C1794 1.429 . S
C1786 C1784 1.419 . S
C1786 C1787 1.363 . S
C1786 H1789 0.929 . S
C1787 C1786 1.363 . S
C1787 C1793 1.428 . S
H1788 C1784 0.930 . S
H1789 C1786 0.929 . S
S1790 N1791 1.613 . S
S1790 N1792 1.610 . S
N1791 S1790 1.613 . S
N1791 C1794 1.350 . S
N1792 S1790 1.610 . S
N1792 C1793 1.351 . S
C1793 C1787 1.428 . S
C1793 N1792 1.351 . S
C1793 C1794 1.434 . S
C1794 C1785 1.429 . S
C1794 N1791 1.350 . S
C1794 C1793 1.434 . S
C1795 C1796 1.369 . S
C1795 C1797 1.419 1_556 S
C1795 H1799 0.930 . S
C1796 C1795 1.369 . S
C1796 C1805 1.429 . S
C1797 C1795 1.419 1_554 S
C1797 C1798 1.363 . S
C1797 H1800 0.929 . S
C1798 C1797 1.363 . S
C1798 C1804 1.428 . S
H1799 C1795 0.930 . S
H1800 C1797 0.929 . S
S1801 N1802 1.584 1_554 S
S1801 N1803 1.639 . S
N1802 S1801 1.584 1_556 S
N1802 C1805 1.350 . S
N1803 S1801 1.639 . S
N1803 C1804 1.351 . S
C1804 C1798 1.428 . S
C1804 N1803 1.351 . S
C1804 C1805 1.434 1_554 S
C1805 C1796 1.429 . S
C1805 N1802 1.350 . S
C1805 C1804 1.434 1_556 S
C1806 C1807 1.369 . S
C1806 C1808 1.419 . S
C1806 H1810 0.930 . S
C1807 C1806 1.369 . S
C1807 C1816 1.429 1_565 S
C1808 C1806 1.419 . S
C1808 C1809 1.363 1_565 S
C1808 H1811 0.929 . S
C1809 C1808 1.363 1_545 S
C1809 C1815 1.428 . S
H1810 C1806 0.930 . S
H1811 C1808 0.929 . S
S1812 N1813 1.613 . S
S1812 N1814 1.610 . S
N1813 S1812 1.613 . S
N1813 C1816 1.350 . S
N1814 S1812 1.610 . S
N1814 C1815 1.351 . S
C1815 C1809 1.428 . S
C1815 N1814 1.351 . S
C1815 C1816 1.434 . S
C1816 C1807 1.429 1_545 S
C1816 N1813 1.350 . S
C1816 C1815 1.434 . S
C1817 C1818 1.369 . S
C1817 C1819 1.419 . S
C1817 H1821 0.930 . S
C1818 C1817 1.369 . S
C1818 C1827 1.429 . S
C1819 C1817 1.419 . S
C1819 C1820 1.363 . S
C1819 H1822 0.929 . S
C1820 C1819 1.363 . S
C1820 C1826 1.428 . S
H1821 C1817 0.930 . S
H1822 C1819 0.929 . S
S1823 N1824 1.613 . S
S1823 N1825 1.610 . S
N1824 S1823 1.613 . S
N1824 C1827 1.350 . S
N1825 S1823 1.610 . S
N1825 C1826 1.351 . S
C1826 C1820 1.428 . S
C1826 N1825 1.351 . S
C1826 C1827 1.434 . S
C1827 C1818 1.429 . S
C1827 N1824 1.350 . S
C1827 C1826 1.434 . S
C1828 C1829 1.390 . S
C1828 C1830 1.399 1_565 S
C1828 H1832 0.932 . S
C1829 C1828 1.390 . S
C1829 C1838 1.429 . S
C1830 C1828 1.399 1_545 S
C1830 C1831 1.363 . S
C1830 H1833 0.929 . S
C1831 C1830 1.363 . S
C1831 C1837 1.435 . S
H1832 C1828 0.932 . S
H1833 C1830 0.929 . S
S1834 N1835 1.613 . S
S1834 N1836 1.610 . S
N1835 S1834 1.613 . S
N1835 C1838 1.350 . S
N1836 S1834 1.610 . S
N1836 C1837 1.350 1_565 S
C1837 C1831 1.435 . S
C1837 N1836 1.350 1_545 S
C1837 C1838 1.427 1_545 S
C1838 C1829 1.429 . S
C1838 N1835 1.350 . S
C1838 C1837 1.427 1_565 S
C1839 C1840 1.369 . S
C1839 C1841 1.419 . S
C1839 H1843 0.930 . S
C1840 C1839 1.369 . S
C1840 C1849 1.429 . S
C1841 C1839 1.419 . S
C1841 C1842 1.363 . S
C1841 H1844 0.929 . S
C1842 C1841 1.363 . S
C1842 C1848 1.428 . S
H1843 C1839 0.930 . S
H1844 C1841 0.929 . S
S1845 N1846 1.613 . S
S1845 N1847 1.610 . S
N1846 S1845 1.613 . S
N1846 C1849 1.350 . S
N1847 S1845 1.610 . S
N1847 C1848 1.351 . S
C1848 C1842 1.428 . S
C1848 N1847 1.351 . S
C1848 C1849 1.434 . S
C1849 C1840 1.429 . S
C1849 N1846 1.350 . S
C1849 C1848 1.434 . S
C1850 C1851 1.369 . S
C1850 C1852 1.419 . S
C1850 H1854 0.930 . S
C1851 C1850 1.369 . S
C1851 C1860 1.429 . S
C1852 C1850 1.419 . S
C1852 C1853 1.363 . S
C1852 H1855 0.929 . S
C1853 C1852 1.363 . S
C1853 C1859 1.428 . S
H1854 C1850 0.930 . S
H1855 C1852 0.929 . S
S1856 N1857 1.613 . S
S1856 N1858 1.610 . S
N1857 S1856 1.613 . S
N1857 C1860 1.350 . S
N1858 S1856 1.610 . S
N1858 C1859 1.351 . S
C1859 C1853 1.428 . S
C1859 N1858 1.351 . S
C1859 C1860 1.434 . S
C1860 C1851 1.429 . S
C1860 N1857 1.350 . S
C1860 C1859 1.434 . S
C1861 C1862 1.369 . S
C1861 C1863 1.419 . S
C1861 H1865 0.930 . S
C1862 C1861 1.369 . S
C1862 C1871 1.429 . S
C1863 C1861 1.419 . S
C1863 C1864 1.363 . S
C1863 H1866 0.929 . S
C1864 C1863 1.363 . S
C1864 C1870 1.428 . S
H1865 C1861 0.930 . S
H1866 C1863 0.929 . S
S1867 N1868 1.613 . S
S1867 N1869 1.610 . S
N1868 S1867 1.613 . S
N1868 C1871 1.350 . S
N1869 S1867 1.610 . S
N1869 C1870 1.351 . S
C1870 C1864 1.428 . S
C1870 N1869 1.351 . S
C1870 C1871 1.434 . S
C1871 C1862 1.429 . S
C1871 N1868 1.350 . S
C1871 C1870 1.434 . S
C1872 C1873 1.369 1_455 S
C1872 C1874 1.419 1_455 S
C1872 H1876 0.930 . S
C1873 C1872 1.369 1_655 S
C1873 C1882 1.429 . S
C1874 C1872 1.419 1_655 S
C1874 C1875 1.363 . S
C1874 H1877 0.929 . S
C1875 C1874 1.363 . S
C1875 C1881 1.428 . S
H1876 C1872 0.930 . S
H1877 C1874 0.929 . S
S1878 N1879 1.613 . S
S1878 N1880 1.610 . S
N1879 S1878 1.613 . S
N1879 C1882 1.350 . S
N1880 S1878 1.610 . S
N1880 C1881 1.351 . S
C1881 C1875 1.428 . S
C1881 N1880 1.351 . S
C1881 C1882 1.434 . S
C1882 C1873 1.429 . S
C1882 N1879 1.350 . S
C1882 C1881 1.434 . S
C1883 C1884 1.369 . S
C1883 C1885 1.419 . S
C1883 H1887 0.930 . S
C1884 C1883 1.369 . S
C1884 C1893 1.429 . S
C1885 C1883 1.419 . S
C1885 C1886 1.363 . S
C1885 H1888 0.929 . S
C1886 C1885 1.363 . S
C1886 C1892 1.428 . S
H1887 C1883 0.930 . S
H1888 C1885 0.929 . S
S1889 N1890 1.613 1_455 S
S1889 N1891 1.610 . S
N1890 S1889 1.613 1_655 S
N1890 C1893 1.350 . S
N1891 S1889 1.610 . S
N1891 C1892 1.351 1_455 S
C1892 C1886 1.428 . S
C1892 N1891 1.351 1_655 S
C1892 C1893 1.434 . S
C1893 C1884 1.429 . S
C1893 N1890 1.350 . S
C1893 C1892 1.434 . S
C1894 C1895 1.369 . S
C1894 C1896 1.419 . S
C1894 H1898 0.930 1_455 S
C1895 C1894 1.369 . S
C1895 C1904 1.429 . S
C1896 C1894 1.419 . S
C1896 C1897 1.363 . S
C1896 H1899 0.929 . S
C1897 C1896 1.363 . S
C1897 C1903 1.428 . S
H1898 C1894 0.930 1_655 S
H1899 C1896 0.929 . S
S1900 N1901 1.613 . S
S1900 N1902 1.610 . S
N1901 S1900 1.613 . S
N1901 C1904 1.350 . S
N1902 S1900 1.610 . S
N1902 C1903 1.351 . S
C1903 C1897 1.428 . S
C1903 N1902 1.351 . S
C1903 C1904 1.434 . S
C1904 C1895 1.429 . S
C1904 N1901 1.350 . S
C1904 C1903 1.434 . S
C1905 C1906 1.369 . S
C1905 C1907 1.419 . S
C1905 H1909 0.930 . S
C1906 C1905 1.369 . S
C1906 C1915 1.429 . S
C1907 C1905 1.419 . S
C1907 C1908 1.363 . S
C1907 H1910 0.929 . S
C1908 C1907 1.363 . S
C1908 C1914 1.428 . S
H1909 C1905 0.930 . S
H1910 C1907 0.929 . S
S1911 N1912 1.613 . S
S1911 N1913 1.610 . S
N1912 S1911 1.613 . S
N1912 C1915 1.350 . S
N1913 S1911 1.610 . S
N1913 C1914 1.351 . S
C1914 C1908 1.428 . S
C1914 N1913 1.351 . S
C1914 C1915 1.434 . S
C1915 C1906 1.429 . S
C1915 N1912 1.350 . S
C1915 C1914 1.434 . S
C1916 C1917 1.369 . S
C1916 C1918 1.419 . S
C1916 H1920 0.930 1_655 S
C1917 C1916 1.369 . S
C1917 C1926 1.429 . S
C1918 C1916 1.419 . S
C1918 C1919 1.363 . S
C1918 H1921 0.929 . S
C1919 C1918 1.363 . S
C1919 C1925 1.428 . S
H1920 C1916 0.930 1_455 S
H1921 C1918 0.929 . S
S1922 N1923 1.613 . S
S1922 N1924 1.610 . S
N1923 S1922 1.613 . S
N1923 C1926 1.350 . S
N1924 S1922 1.610 . S
N1924 C1925 1.351 . S
C1925 C1919 1.428 . S
C1925 N1924 1.351 . S
C1925 C1926 1.434 . S
C1926 C1917 1.429 . S
C1926 N1923 1.350 . S
C1926 C1925 1.434 . S
C1927 C1928 1.369 . S
C1927 C1929 1.419 . S
C1927 H1931 0.930 . S
C1928 C1927 1.369 . S
C1928 C1937 1.429 . S
C1929 C1927 1.419 . S
C1929 C1930 1.363 . S
C1929 H1932 0.929 . S
C1930 C1929 1.363 . S
C1930 C1936 1.428 . S
H1931 C1927 0.930 . S
H1932 C1929 0.929 . S
S1933 N1934 1.613 . S
S1933 N1935 1.610 . S
N1934 S1933 1.613 . S
N1934 C1937 1.350 . S
N1935 S1933 1.610 . S
N1935 C1936 1.351 . S
C1936 C1930 1.428 . S
C1936 N1935 1.351 . S
C1936 C1937 1.434 . S
C1937 C1928 1.429 . S
C1937 N1934 1.350 . S
C1937 C1936 1.434 . S
C1938 C1939 1.369 . S
C1938 C1940 1.419 . S
C1938 H1942 0.930 . S
C1939 C1938 1.369 . S
C1939 C1948 1.429 . S
C1940 C1938 1.419 . S
C1940 C1941 1.363 . S
C1940 H1943 0.929 . S
C1941 C1940 1.363 . S
C1941 C1947 1.428 . S
H1942 C1938 0.930 . S
H1943 C1940 0.929 . S
S1944 N1945 1.613 1_455 S
S1944 N1946 1.610 . S
N1945 S1944 1.613 1_655 S
N1945 C1948 1.350 1_655 S
N1946 S1944 1.610 . S
N1946 C1947 1.351 . S
C1947 C1941 1.428 . S
C1947 N1946 1.351 . S
C1947 C1948 1.434 . S
C1948 C1939 1.429 . S
C1948 N1945 1.350 1_455 S
C1948 C1947 1.434 . S
C1949 C1950 1.369 . S
C1949 C1951 1.419 . S
C1949 H1953 0.930 . S
C1950 C1949 1.369 . S
C1950 C1959 1.429 . S
C1951 C1949 1.419 . S
C1951 C1952 1.363 . S
C1951 H1954 0.929 . S
C1952 C1951 1.363 . S
C1952 C1958 1.428 . S
H1953 C1949 0.930 . S
H1954 C1951 0.929 . S
S1955 N1956 1.613 . S
S1955 N1957 1.610 . S
N1956 S1955 1.613 . S
N1956 C1959 1.350 . S
N1957 S1955 1.610 . S
N1957 C1958 1.351 . S
C1958 C1952 1.428 . S
C1958 N1957 1.351 . S
C1958 C1959 1.434 . S
C1959 C1950 1.429 . S
C1959 N1956 1.350 . S
C1959 C1958 1.434 . S
C1960 C1961 1.369 . S
C1960 C1962 1.419 . S
C1960 H1964 0.930 . S
C1961 C1960 1.369 . S
C1961 C1970 1.429 . S
C1962 C1960 1.419 . S
C1962 C1963 1.363 . S
C1962 H1965 0.929 . S
C1963 C1962 1.363 . S
C1963 C1969 1.428 . S
H1964 C1960 0.930 . S
H1965 C1962 0.929 . S
S1966 N1967 1.613 . S
S1966 N1968 1.610 . S
N1967 S1966 1.613 . S
N1967 C1970 1.350 . S
N1968 S1966 1.610 . S
N1968 C1969 1.351 . S
C1969 C1963 1.428 . S
C1969 N1968 1.351 . S
C1969 C1970 1.434 . S
C1970 C1961 1.429 . S
C1970 N1967 1.350 . S
C1970 C1969 1.434 . S
C1971 C1972 1.369 . S
C1971 C1973 1.419 . S
C1971 H1975 0.930 . S
C1972 C1971 1.369 . S
C1972 C1981 1.429 . S
C1973 C1971 1.419 . S
C1973 C1974 1.363 . S
C1973 H1976 0.929 . S
C1974 C1973 1.363 . S
C1974 C1980 1.428 . S
H1975 C1971 0.930 . S
H1976 C1973 0.929 . S
S1977 N1978 1.613 . S
S1977 N1979 1.610 . S
N1978 S1977 1.613 . S
N1978 C1981 1.350 . S
N1979 S1977 1.610 . S
N1979 C1980 1.351 . S
C1980 C1974 1.428 . S
C1980 N1979 1.351 . S
C1980 C1981 1.434 . S
C1981 C1972 1.429 . S
C1981 N1978 1.350 . S
C1981 C1980 1.434 . S
C1982 C1983 1.369 . S
C1982 C1984 1.419 . S
C1982 H1986 0.930 . S
C1983 C1982 1.369 . S
C1983 C1992 1.429 . S
C1984 C1982 1.419 . S
C1984 C1985 1.363 . S
C1984 H1987 0.929 . S
C1985 C1984 1.363 . S
C1985 C1991 1.428 . S
H1986 C1982 0.930 . S
H1987 C1984 0.929 . S
S1988 N1989 1.613 . S
S1988 N1990 1.610 . S
N1989 S1988 1.613 . S
N1989 C1992 1.350 . S
N1990 S1988 1.610 . S
N1990 C1991 1.351 . S
C1991 C1985 1.428 . S
C1991 N1990 1.351 . S
C1991 C1992 1.434 . S
C1992 C1983 1.429 . S
C1992 N1989 1.350 . S
C1992 C1991 1.434 . S
C1993 C1994 1.369 . S
C1993 C1995 1.419 1_554 S
C1993 H1997 0.930 . S
C1994 C1993 1.369 . S
C1994 C2003 1.429 . S
C1995 C1993 1.419 1_556 S
C1995 C1996 1.363 1_556 S
C1995 H1998 0.929 . S
C1996 C1995 1.363 1_554 S
C1996 C2002 1.428 . S
H1997 C1993 0.930 . S
H1998 C1995 0.929 . S
S1999 N2000 1.613 . S
S1999 N2001 1.610 . S
N2000 S1999 1.613 . S
N2000 C2003 1.350 . S
N2001 S1999 1.610 . S
N2001 C2002 1.351 . S
C2002 C1996 1.428 . S
C2002 N2001 1.351 . S
C2002 C2003 1.434 . S
C2003 C1994 1.429 . S
C2003 N2000 1.350 . S
C2003 C2002 1.434 . S
C2004 C2005 1.369 . S
C2004 C2006 1.419 . S
C2004 H2008 0.930 . S
C2005 C2004 1.369 . S
C2005 C2014 1.429 . S
C2006 C2004 1.419 . S
C2006 C2007 1.363 . S
C2006 H2009 0.929 1_545 S
C2007 C2006 1.363 . S
C2007 C2013 1.428 . S
H2008 C2004 0.930 . S
H2009 C2006 0.929 1_565 S
S2010 N2011 1.613 . S
S2010 N2012 1.610 . S
N2011 S2010 1.613 . S
N2011 C2014 1.350 . S
N2012 S2010 1.610 . S
N2012 C2013 1.351 . S
C2013 C2007 1.428 . S
C2013 N2012 1.351 . S
C2013 C2014 1.434 . S
C2014 C2005 1.429 . S
C2014 N2011 1.350 . S
C2014 C2013 1.434 . S
C2015 C2016 1.369 . S
C2015 C2017 1.419 . S
C2015 H2019 0.930 . S
C2016 C2015 1.369 . S
C2016 C2025 1.429 . S
C2017 C2015 1.419 . S
C2017 C2018 1.363 . S
C2017 H2020 0.929 . S
C2018 C2017 1.363 . S
C2018 C2024 1.428 . S
H2019 C2015 0.930 . S
H2020 C2017 0.929 . S
S2021 N2022 1.613 . S
S2021 N2023 1.610 . S
N2022 S2021 1.613 . S
N2022 C2025 1.350 . S
N2023 S2021 1.610 . S
N2023 C2024 1.351 . S
C2024 C2018 1.428 . S
C2024 N2023 1.351 . S
C2024 C2025 1.434 . S
C2025 C2016 1.429 . S
C2025 N2022 1.350 . S
C2025 C2024 1.434 . S
C2026 C2027 1.369 . S
C2026 C2028 1.419 . S
C2026 H2030 0.930 . S
C2027 C2026 1.369 . S
C2027 C2036 1.429 . S
C2028 C2026 1.419 . S
C2028 C2029 1.363 . S
C2028 H2031 0.929 . S
C2029 C2028 1.363 . S
C2029 C2035 1.428 . S
H2030 C2026 0.930 . S
H2031 C2028 0.929 . S
S2032 N2033 1.613 . S
S2032 N2034 1.610 . S
N2033 S2032 1.613 . S
N2033 C2036 1.350 . S
N2034 S2032 1.610 . S
N2034 C2035 1.351 . S
C2035 C2029 1.428 . S
C2035 N2034 1.351 . S
C2035 C2036 1.434 . S
C2036 C2027 1.429 . S
C2036 N2033 1.350 . S
C2036 C2035 1.434 . S
C2037 C2038 1.369 . S
C2037 C2039 1.419 . S
C2037 H2041 0.930 . S
C2038 C2037 1.369 . S
C2038 C2047 1.429 . S
C2039 C2037 1.419 . S
C2039 C2040 1.363 . S
C2039 H2042 0.929 . S
C2040 C2039 1.363 . S
C2040 C2046 1.428 . S
H2041 C2037 0.930 . S
H2042 C2039 0.929 . S
S2043 N2044 1.613 . S
S2043 N2045 1.610 . S
N2044 S2043 1.613 . S
N2044 C2047 1.350 . S
N2045 S2043 1.610 . S
N2045 C2046 1.351 . S
C2046 C2040 1.428 . S
C2046 N2045 1.351 . S
C2046 C2047 1.434 . S
C2047 C2038 1.429 . S
C2047 N2044 1.350 . S
C2047 C2046 1.434 . S
C2048 C2049 1.369 . S
C2048 C2050 1.419 . S
C2048 H2052 0.930 . S
C2049 C2048 1.369 . S
C2049 C2058 1.429 . S
C2050 C2048 1.419 . S
C2050 C2051 1.363 . S
C2050 H2053 0.929 . S
C2051 C2050 1.363 . S
C2051 C2057 1.428 . S
H2052 C2048 0.930 . S
H2053 C2050 0.929 . S
S2054 N2055 1.613 . S
S2054 N2056 1.610 1_556 S
N2055 S2054 1.613 . S
N2055 C2058 1.350 . S
N2056 S2054 1.610 1_554 S
N2056 C2057 1.351 1_554 S
C2057 C2051 1.428 . S
C2057 N2056 1.351 1_556 S
C2057 C2058 1.434 . S
C2058 C2049 1.429 . S
C2058 N2055 1.350 . S
C2058 C2057 1.434 . S
C2059 C2060 1.369 . S
C2059 C2061 1.419 . S
C2059 H2063 0.930 . S
C2060 C2059 1.369 . S
C2060 C2069 1.429 . S
C2061 C2059 1.419 . S
C2061 C2062 1.363 . S
C2061 H2064 0.929 . S
C2062 C2061 1.363 . S
C2062 C2068 1.428 . S
H2063 C2059 0.930 . S
H2064 C2061 0.929 . S
S2065 N2066 1.613 . S
S2065 N2067 1.610 . S
N2066 S2065 1.613 . S
N2066 C2069 1.350 . S
N2067 S2065 1.610 . S
N2067 C2068 1.351 . S
C2068 C2062 1.428 . S
C2068 N2067 1.351 . S
C2068 C2069 1.434 . S
C2069 C2060 1.429 . S
C2069 N2066 1.350 . S
C2069 C2068 1.434 . S
C2070 C2071 1.369 . S
C2070 C2072 1.419 . S
C2070 H2074 0.930 . S
C2071 C2070 1.369 . S
C2071 C2080 1.429 . S
C2072 C2070 1.419 . S
C2072 C2073 1.363 . S
C2072 H2075 0.929 . S
C2073 C2072 1.363 . S
C2073 C2079 1.428 1_545 S
H2074 C2070 0.930 . S
H2075 C2072 0.929 . S
S2076 N2077 1.613 . S
S2076 N2078 1.610 . S
N2077 S2076 1.613 . S
N2077 C2080 1.350 1_565 S
N2078 S2076 1.610 . S
N2078 C2079 1.351 . S
C2079 C2073 1.428 1_565 S
C2079 N2078 1.351 . S
C2079 C2080 1.434 1_565 S
C2080 C2071 1.429 . S
C2080 N2077 1.350 1_545 S
C2080 C2079 1.434 1_545 S
C2081 C2082 1.369 . S
C2081 C2083 1.419 . S
C2081 H2085 0.930 . S
C2082 C2081 1.369 . S
C2082 C2091 1.439 . S
C2083 C2081 1.419 . S
C2083 C2084 1.363 . S
C2083 H2086 0.929 . S
C2084 C2083 1.363 . S
C2084 C2090 1.428 . S
H2085 C2081 0.930 . S
H2086 C2083 0.929 . S
S2087 N2088 1.613 . S
S2087 N2089 1.610 1_556 S
N2088 S2087 1.613 . S
N2088 C2091 1.314 1_556 S
N2089 S2087 1.610 1_554 S
N2089 C2090 1.351 . S
C2090 C2084 1.428 . S
C2090 N2089 1.351 . S
C2090 C2091 1.463 . S
C2091 C2082 1.439 . S
C2091 N2088 1.314 1_554 S
C2091 C2090 1.463 . S
C2092 C2093 1.369 . S
C2092 C2094 1.419 . S
C2092 H2096 0.930 . S
C2093 C2092 1.369 . S
C2093 C2102 1.429 . S
C2094 C2092 1.419 . S
C2094 C2095 1.363 . S
C2094 H2097 0.929 . S
C2095 C2094 1.363 . S
C2095 C2101 1.428 . S
H2096 C2092 0.930 . S
H2097 C2094 0.929 . S
S2098 N2099 1.613 . S
S2098 N2100 1.610 . S
N2099 S2098 1.613 . S
N2099 C2102 1.350 . S
N2100 S2098 1.610 . S
N2100 C2101 1.351 . S
C2101 C2095 1.428 . S
C2101 N2100 1.351 . S
C2101 C2102 1.434 . S
C2102 C2093 1.429 . S
C2102 N2099 1.350 . S
C2102 C2101 1.434 . S
C2103 C2104 1.369 . S
C2103 C2105 1.419 . S
C2103 H2107 0.930 . S
C2104 C2103 1.369 . S
C2104 C2113 1.429 . S
C2105 C2103 1.419 . S
C2105 C2106 1.363 . S
C2105 H2108 0.929 . S
C2106 C2105 1.363 . S
C2106 C2112 1.428 . S
H2107 C2103 0.930 . S
H2108 C2105 0.929 . S
S2109 N2110 1.613 . S
S2109 N2111 1.610 . S
N2110 S2109 1.613 . S
N2110 C2113 1.350 . S
N2111 S2109 1.610 . S
N2111 C2112 1.351 . S
C2112 C2106 1.428 . S
C2112 N2111 1.351 . S
C2112 C2113 1.434 . S
C2113 C2104 1.429 . S
C2113 N2110 1.350 . S
C2113 C2112 1.434 . S
C2114 C2115 1.369 . S
C2114 C2116 1.419 . S
C2114 H2118 0.930 . S
C2115 C2114 1.369 . S
C2115 C2124 1.429 . S
C2116 C2114 1.419 . S
C2116 C2117 1.363 . S
C2116 H2119 0.929 . S
C2117 C2116 1.363 . S
C2117 C2123 1.428 . S
H2118 C2114 0.930 . S
H2119 C2116 0.929 . S
S2120 N2121 1.613 . S
S2120 N2122 1.610 . S
N2121 S2120 1.613 . S
N2121 C2124 1.350 . S
N2122 S2120 1.610 . S
N2122 C2123 1.351 . S
C2123 C2117 1.428 . S
C2123 N2122 1.351 . S
C2123 C2124 1.434 . S
C2124 C2115 1.429 . S
C2124 N2121 1.350 . S
C2124 C2123 1.434 . S
C2125 C2126 1.369 . S
C2125 C2127 1.419 . S
C2125 H2129 0.930 . S
C2126 C2125 1.369 . S
C2126 C2135 1.429 . S
C2127 C2125 1.419 . S
C2127 C2128 1.363 . S
C2127 H2130 0.929 . S
C2128 C2127 1.363 . S
C2128 C2134 1.428 . S
H2129 C2125 0.930 . S
H2130 C2127 0.929 . S
S2131 N2132 1.613 . S
S2131 N2133 1.610 . S
N2132 S2131 1.613 . S
N2132 C2135 1.350 . S
N2133 S2131 1.610 . S
N2133 C2134 1.351 . S
C2134 C2128 1.428 . S
C2134 N2133 1.351 . S
C2134 C2135 1.434 . S
C2135 C2126 1.429 . S
C2135 N2132 1.350 . S
C2135 C2134 1.434 . S
C2136 C2137 1.369 . S
C2136 C2138 1.419 . S
C2136 H2140 0.930 . S
C2137 C2136 1.369 . S
C2137 C2146 1.429 . S
C2138 C2136 1.419 . S
C2138 C2139 1.363 . S
C2138 H2141 0.929 1_455 S
C2139 C2138 1.363 . S
C2139 C2145 1.428 . S
H2140 C2136 0.930 . S
H2141 C2138 0.929 1_655 S
S2142 N2143 1.613 . S
S2142 N2144 1.610 . S
N2143 S2142 1.613 . S
N2143 C2146 1.350 . S
N2144 S2142 1.610 . S
N2144 C2145 1.351 . S
C2145 C2139 1.428 . S
C2145 N2144 1.351 . S
C2145 C2146 1.434 . S
C2146 C2137 1.429 . S
C2146 N2143 1.350 . S
C2146 C2145 1.434 . S
C2147 C2148 1.369 . S
C2147 C2149 1.419 . S
C2147 H2151 0.930 . S
C2148 C2147 1.369 . S
C2148 C2157 1.429 . S
C2149 C2147 1.419 . S
C2149 C2150 1.363 . S
C2149 H2152 0.929 . S
C2150 C2149 1.363 . S
C2150 C2156 1.428 . S
H2151 C2147 0.930 . S
H2152 C2149 0.929 . S
S2153 N2154 1.613 . S
S2153 N2155 1.610 . S
N2154 S2153 1.613 . S
N2154 C2157 1.350 . S
N2155 S2153 1.610 . S
N2155 C2156 1.351 . S
C2156 C2150 1.428 . S
C2156 N2155 1.351 . S
C2156 C2157 1.434 . S
C2157 C2148 1.429 . S
C2157 N2154 1.350 . S
C2157 C2156 1.434 . S
C2158 C2159 1.369 . S
C2158 C2160 1.419 . S
C2158 H2162 0.930 . S
C2159 C2158 1.369 . S
C2159 C2168 1.429 . S
C2160 C2158 1.419 . S
C2160 C2161 1.363 . S
C2160 H2163 0.929 . S
C2161 C2160 1.363 . S
C2161 C2167 1.428 . S
H2162 C2158 0.930 . S
H2163 C2160 0.929 . S
S2164 N2165 1.613 . S
S2164 N2166 1.610 . S
N2165 S2164 1.613 . S
N2165 C2168 1.350 . S
N2166 S2164 1.610 . S
N2166 C2167 1.351 . S
C2167 C2161 1.428 . S
C2167 N2166 1.351 . S
C2167 C2168 1.434 . S
C2168 C2159 1.429 . S
C2168 N2165 1.350 . S
C2168 C2167 1.434 . S
C2169 C2170 1.369 . S
C2169 C2171 1.419 . S
C2169 H2173 0.930 . S
C2170 C2169 1.369 . S
C2170 C2179 1.429 . S
C2171 C2169 1.419 . S
C2171 C2172 1.363 . S
C2171 H2174 0.929 . S
C2172 C2171 1.363 . S
C2172 C2178 1.428 . S
H2173 C2169 0.930 . S
H2174 C2171 0.929 . S
S2175 N2176 1.613 . S
S2175 N2177 1.610 . S
N2176 S2175 1.613 . S
N2176 C2179 1.350 . S
N2177 S2175 1.610 . S
N2177 C2178 1.351 . S
C2178 C2172 1.428 . S
C2178 N2177 1.351 . S
C2178 C2179 1.434 . S
C2179 C2170 1.429 . S
C2179 N2176 1.350 . S
C2179 C2178 1.434 . S
C2180 C2181 1.369 . S
C2180 C2182 1.419 . S
C2180 H2184 0.930 . S
C2181 C2180 1.369 . S
C2181 C2190 1.429 . S
C2182 C2180 1.419 . S
C2182 C2183 1.363 . S
C2182 H2185 0.929 . S
C2183 C2182 1.363 . S
C2183 C2189 1.428 1_554 S
H2184 C2180 0.930 . S
H2185 C2182 0.929 . S
S2186 N2187 1.613 1_556 S
S2186 N2188 1.610 . S
N2187 S2186 1.613 1_554 S
N2187 C2190 1.350 . S
N2188 S2186 1.610 . S
N2188 C2189 1.351 . S
C2189 C2183 1.428 1_556 S
C2189 N2188 1.351 . S
C2189 C2190 1.434 1_556 S
C2190 C2181 1.429 . S
C2190 N2187 1.350 . S
C2190 C2189 1.434 1_554 S
C2191 C2192 1.369 . S
C2191 C2193 1.419 . S
C2191 H2195 0.930 1_545 S
C2192 C2191 1.369 . S
C2192 C2201 1.429 . S
C2193 C2191 1.419 . S
C2193 C2194 1.363 . S
C2193 H2196 0.929 . S
C2194 C2193 1.363 . S
C2194 C2200 1.428 . S
H2195 C2191 0.930 1_565 S
H2196 C2193 0.929 . S
S2197 N2198 1.613 . S
S2197 N2199 1.610 . S
N2198 S2197 1.613 . S
N2198 C2201 1.350 . S
N2199 S2197 1.610 . S
N2199 C2200 1.351 . S
C2200 C2194 1.428 . S
C2200 N2199 1.351 . S
C2200 C2201 1.434 . S
C2201 C2192 1.429 . S
C2201 N2198 1.350 . S
C2201 C2200 1.434 . S
C2202 C2203 1.369 . S
C2202 C2204 1.419 . S
C2202 H2206 0.930 . S
C2203 C2202 1.369 . S
C2203 C2212 1.429 . S
C2204 C2202 1.419 . S
C2204 C2205 1.363 . S
C2204 H2207 0.929 . S
C2205 C2204 1.363 . S
C2205 C2211 1.428 . S
H2206 C2202 0.930 . S
H2207 C2204 0.929 . S
S2208 N2209 1.613 . S
S2208 N2210 1.610 . S
N2209 S2208 1.613 . S
N2209 C2212 1.350 . S
N2210 S2208 1.610 . S
N2210 C2211 1.351 . S
C2211 C2205 1.428 . S
C2211 N2210 1.351 . S
C2211 C2212 1.434 . S
C2212 C2203 1.429 . S
C2212 N2209 1.350 . S
C2212 C2211 1.434 . S
C2213 C2214 1.369 . S
C2213 C2215 1.419 . S
C2213 H2217 0.930 . S
C2214 C2213 1.369 . S
C2214 C2223 1.429 . S
C2215 C2213 1.419 . S
C2215 C2216 1.363 . S
C2215 H2218 0.929 . S
C2216 C2215 1.363 . S
C2216 C2222 1.428 . S
H2217 C2213 0.930 . S
H2218 C2215 0.929 . S
S2219 N2220 1.613 . S
S2219 N2221 1.610 . S
N2220 S2219 1.613 . S
N2220 C2223 1.350 . S
N2221 S2219 1.610 . S
N2221 C2222 1.351 . S
C2222 C2216 1.428 . S
C2222 N2221 1.351 . S
C2222 C2223 1.434 . S
C2223 C2214 1.429 . S
C2223 N2220 1.350 . S
C2223 C2222 1.434 . S
C2224 C2225 1.369 . S
C2224 C2226 1.419 . S
C2224 H2228 0.930 . S
C2225 C2224 1.369 . S
C2225 C2234 1.429 . S
C2226 C2224 1.419 . S
C2226 C2227 1.363 . S
C2226 H2229 0.929 . S
C2227 C2226 1.363 . S
C2227 C2233 1.428 . S
H2228 C2224 0.930 . S
H2229 C2226 0.929 . S
S2230 N2231 1.613 . S
S2230 N2232 1.610 . S
N2231 S2230 1.613 . S
N2231 C2234 1.350 . S
N2232 S2230 1.610 . S
N2232 C2233 1.351 . S
C2233 C2227 1.428 . S
C2233 N2232 1.351 . S
C2233 C2234 1.434 . S
C2234 C2225 1.429 . S
C2234 N2231 1.350 . S
C2234 C2233 1.434 . S
C2235 C2236 1.369 . S
C2235 C2237 1.419 . S
C2235 H2239 0.930 . S
C2236 C2235 1.369 . S
C2236 C2245 1.429 . S
C2237 C2235 1.419 . S
C2237 C2238 1.363 . S
C2237 H2240 0.929 . S
C2238 C2237 1.363 . S
C2238 C2244 1.428 . S
H2239 C2235 0.930 . S
H2240 C2237 0.929 . S
S2241 N2242 1.613 . S
S2241 N2243 1.610 . S
N2242 S2241 1.613 . S
N2242 C2245 1.350 . S
N2243 S2241 1.610 . S
N2243 C2244 1.351 . S
C2244 C2238 1.428 . S
C2244 N2243 1.351 . S
C2244 C2245 1.434 . S
C2245 C2236 1.429 . S
C2245 N2242 1.350 . S
C2245 C2244 1.434 . S
C2246 C2247 1.369 . S
C2246 C2248 1.419 . S
C2246 H2250 0.930 . S
C2247 C2246 1.369 . S
C2247 C2256 1.429 . S
C2248 C2246 1.419 . S
C2248 C2249 1.363 . S
C2248 H2251 0.929 . S
C2249 C2248 1.363 . S
C2249 C2255 1.428 . S
H2250 C2246 0.930 . S
H2251 C2248 0.929 . S
S2252 N2253 1.613 . S
S2252 N2254 1.610 . S
N2253 S2252 1.613 . S
N2253 C2256 1.350 . S
N2254 S2252 1.610 . S
N2254 C2255 1.351 . S
C2255 C2249 1.428 . S
C2255 N2254 1.351 . S
C2255 C2256 1.434 . S
C2256 C2247 1.429 . S
C2256 N2253 1.350 . S
C2256 C2255 1.434 . S
C2257 C2258 1.369 . S
C2257 C2259 1.419 . S
C2257 H2261 0.930 . S
C2258 C2257 1.369 . S
C2258 C2267 1.429 . S
C2259 C2257 1.419 . S
C2259 C2260 1.363 . S
C2259 H2262 0.929 . S
C2260 C2259 1.363 . S
C2260 C2266 1.428 . S
H2261 C2257 0.930 . S
H2262 C2259 0.929 . S
S2263 N2264 1.613 . S
S2263 N2265 1.610 . S
N2264 S2263 1.613 . S
N2264 C2267 1.350 . S
N2265 S2263 1.610 . S
N2265 C2266 1.351 . S
C2266 C2260 1.428 . S
C2266 N2265 1.351 . S
C2266 C2267 1.434 . S
C2267 C2258 1.429 . S
C2267 N2264 1.350 . S
C2267 C2266 1.434 . S
C2268 C2269 1.369 . S
C2268 C2270 1.419 . S
C2268 H2272 0.930 1_554 S
C2269 C2268 1.369 . S
C2269 C2278 1.429 . S
C2270 C2268 1.419 . S
C2270 C2271 1.363 . S
C2270 H2273 0.929 . S
C2271 C2270 1.363 . S
C2271 C2277 1.428 . S
H2272 C2268 0.930 1_556 S
H2273 C2270 0.929 . S
S2274 N2275 1.613 . S
S2274 N2276 1.610 . S
N2275 S2274 1.613 . S
N2275 C2278 1.350 . S
N2276 S2274 1.610 . S
N2276 C2277 1.351 . S
C2277 C2271 1.428 . S
C2277 N2276 1.351 . S
C2277 C2278 1.434 . S
C2278 C2269 1.429 . S
C2278 N2275 1.350 . S
C2278 C2277 1.434 . S
C2279 C2280 1.369 . S
C2279 C2281 1.419 . S
C2279 H2283 0.930 . S
C2280 C2279 1.369 . S
C2280 C2289 1.429 . S
C2281 C2279 1.419 . S
C2281 C2282 1.363 . S
C2281 H2284 0.929 . S
C2282 C2281 1.363 . S
C2282 C2288 1.428 . S
H2283 C2279 0.930 . S
H2284 C2281 0.929 . S
S2285 N2286 1.613 . S
S2285 N2287 1.610 . S
N2286 S2285 1.613 . S
N2286 C2289 1.350 . S
N2287 S2285 1.610 . S
N2287 C2288 1.351 . S
C2288 C2282 1.428 . S
C2288 N2287 1.351 . S
C2288 C2289 1.434 . S
C2289 C2280 1.429 . S
C2289 N2286 1.350 . S
C2289 C2288 1.434 . S
C2290 C2291 1.369 . S
C2290 C2292 1.419 . S
C2290 H2294 0.930 . S
C2291 C2290 1.369 . S
C2291 C2300 1.429 . S
C2292 C2290 1.419 . S
C2292 C2293 1.363 . S
C2292 H2295 0.929 . S
C2293 C2292 1.363 . S
C2293 C2299 1.428 . S
H2294 C2290 0.930 . S
H2295 C2292 0.929 . S
S2296 N2297 1.613 . S
S2296 N2298 1.610 . S
N2297 S2296 1.613 . S
N2297 C2300 1.350 . S
N2298 S2296 1.610 . S
N2298 C2299 1.351 . S
C2299 C2293 1.428 . S
C2299 N2298 1.351 . S
C2299 C2300 1.434 . S
C2300 C2291 1.429 . S
C2300 N2297 1.350 . S
C2300 C2299 1.434 . S
C2301 C2302 1.369 . S
C2301 C2303 1.419 . S
C2301 H2305 0.930 . S
C2302 C2301 1.369 . S
C2302 C2311 1.429 . S
C2303 C2301 1.419 . S
C2303 C2304 1.363 . S
C2303 H2306 0.929 . S
C2304 C2303 1.363 . S
C2304 C2310 1.428 . S
H2305 C2301 0.930 . S
H2306 C2303 0.929 . S
S2307 N2308 1.613 . S
S2307 N2309 1.610 . S
N2308 S2307 1.613 . S
N2308 C2311 1.350 . S
N2309 S2307 1.610 . S
N2309 C2310 1.351 . S
C2310 C2304 1.428 . S
C2310 N2309 1.351 . S
C2310 C2311 1.434 . S
C2311 C2302 1.429 . S
C2311 N2308 1.350 . S
C2311 C2310 1.434 . S
C2312 C2313 1.369 . S
C2312 C2314 1.419 . S
C2312 H2316 0.930 1_565 S
C2313 C2312 1.369 . S
C2313 C2322 1.429 . S
C2314 C2312 1.419 . S
C2314 C2315 1.363 . S
C2314 H2317 0.929 . S
C2315 C2314 1.363 . S
C2315 C2321 1.428 . S
H2316 C2312 0.930 1_545 S
H2317 C2314 0.929 . S
S2318 N2319 1.613 . S
S2318 N2320 1.610 . S
N2319 S2318 1.613 . S
N2319 C2322 1.350 . S
N2320 S2318 1.610 . S
N2320 C2321 1.351 . S
C2321 C2315 1.428 . S
C2321 N2320 1.351 . S
C2321 C2322 1.434 . S
C2322 C2313 1.429 . S
C2322 N2319 1.350 . S
C2322 C2321 1.434 . S
C2323 C2324 1.369 . S
C2323 C2325 1.419 . S
C2323 H2327 0.930 . S
C2324 C2323 1.369 . S
C2324 C2333 1.429 . S
C2325 C2323 1.419 . S
C2325 C2326 1.363 . S
C2325 H2328 0.929 . S
C2326 C2325 1.363 . S
C2326 C2332 1.428 . S
H2327 C2323 0.930 . S
H2328 C2325 0.929 . S
S2329 N2330 1.613 . S
S2329 N2331 1.610 . S
N2330 S2329 1.613 . S
N2330 C2333 1.350 . S
N2331 S2329 1.610 . S
N2331 C2332 1.351 . S
C2332 C2326 1.428 . S
C2332 N2331 1.351 . S
C2332 C2333 1.434 . S
C2333 C2324 1.429 . S
C2333 N2330 1.350 . S
C2333 C2332 1.434 . S
C2334 C2335 1.369 . S
C2334 C2336 1.419 . S
C2334 H2338 0.930 . S
C2335 C2334 1.369 . S
C2335 C2344 1.429 . S
C2336 C2334 1.419 . S
C2336 C2337 1.363 . S
C2336 H2339 0.929 . S
C2337 C2336 1.363 . S
C2337 C2343 1.428 . S
H2338 C2334 0.930 . S
H2339 C2336 0.929 . S
S2340 N2341 1.613 . S
S2340 N2342 1.610 . S
N2341 S2340 1.613 . S
N2341 C2344 1.350 . S
N2342 S2340 1.610 . S
N2342 C2343 1.351 . S
C2343 C2337 1.428 . S
C2343 N2342 1.351 . S
C2343 C2344 1.434 . S
C2344 C2335 1.429 . S
C2344 N2341 1.350 . S
C2344 C2343 1.434 . S
C2345 C2346 1.369 . S
C2345 C2347 1.419 . S
C2345 H2349 0.930 . S
C2346 C2345 1.369 . S
C2346 C2355 1.429 . S
C2347 C2345 1.419 . S
C2347 C2348 1.363 . S
C2347 H2350 0.929 . S
C2348 C2347 1.363 . S
C2348 C2354 1.428 . S
H2349 C2345 0.930 . S
H2350 C2347 0.929 . S
S2351 N2352 1.613 . S
S2351 N2353 1.610 . S
N2352 S2351 1.613 . S
N2352 C2355 1.350 . S
N2353 S2351 1.610 . S
N2353 C2354 1.351 . S
C2354 C2348 1.428 . S
C2354 N2353 1.351 . S
C2354 C2355 1.434 . S
C2355 C2346 1.429 . S
C2355 N2352 1.350 . S
C2355 C2354 1.434 . S
C2356 C2357 1.369 . S
C2356 C2358 1.419 . S
C2356 H2360 0.930 . S
C2357 C2356 1.369 . S
C2357 C2366 1.429 . S
C2358 C2356 1.419 . S
C2358 C2359 1.363 . S
C2358 H2361 0.929 . S
C2359 C2358 1.363 . S
C2359 C2365 1.428 . S
H2360 C2356 0.930 . S
H2361 C2358 0.929 . S
S2362 N2363 1.613 . S
S2362 N2364 1.610 . S
N2363 S2362 1.613 . S
N2363 C2366 1.350 . S
N2364 S2362 1.610 . S
N2364 C2365 1.351 . S
C2365 C2359 1.428 . S
C2365 N2364 1.351 . S
C2365 C2366 1.434 . S
C2366 C2357 1.429 . S
C2366 N2363 1.350 . S
C2366 C2365 1.434 . S
C2367 C2368 1.369 . S
C2367 C2369 1.419 . S
C2367 H2371 0.930 . S
C2368 C2367 1.369 . S
C2368 C2377 1.429 . S
C2369 C2367 1.419 . S
C2369 C2370 1.363 . S
C2369 H2372 0.929 . S
C2370 C2369 1.363 . S
C2370 C2376 1.428 . S
H2371 C2367 0.930 . S
H2372 C2369 0.929 . S
S2373 N2374 1.613 . S
S2373 N2375 1.610 . S
N2374 S2373 1.613 . S
N2374 C2377 1.350 . S
N2375 S2373 1.610 . S
N2375 C2376 1.351 . S
C2376 C2370 1.428 . S
C2376 N2375 1.351 . S
C2376 C2377 1.434 . S
C2377 C2368 1.429 . S
C2377 N2374 1.350 . S
C2377 C2376 1.434 . S
C2378 C2379 1.369 . S
C2378 C2380 1.419 . S
C2378 H2382 0.930 . S
C2379 C2378 1.369 . S
C2379 C2388 1.429 . S
C2380 C2378 1.419 . S
C2380 C2381 1.363 . S
C2380 H2383 0.929 . S
C2381 C2380 1.363 . S
C2381 C2387 1.428 . S
H2382 C2378 0.930 . S
H2383 C2380 0.929 . S
S2384 N2385 1.613 . S
S2384 N2386 1.611 1_565 S
N2385 S2384 1.613 . S
N2385 C2388 1.350 . S
N2386 S2384 1.611 1_545 S
N2386 C2387 1.351 1_545 S
C2387 C2381 1.428 . S
C2387 N2386 1.351 1_565 S
C2387 C2388 1.434 . S
C2388 C2379 1.429 . S
C2388 N2385 1.350 . S
C2388 C2387 1.434 . S
C2389 C2390 1.369 . S
C2389 C2391 1.419 . S
C2389 H2393 0.930 . S
C2390 C2389 1.369 . S
C2390 C2399 1.429 . S
C2391 C2389 1.419 . S
C2391 C2392 1.363 . S
C2391 H2394 0.929 . S
C2392 C2391 1.363 . S
C2392 C2398 1.428 . S
H2393 C2389 0.930 . S
H2394 C2391 0.929 . S
S2395 N2396 1.613 . S
S2395 N2397 1.610 . S
N2396 S2395 1.613 . S
N2396 C2399 1.350 . S
N2397 S2395 1.610 . S
N2397 C2398 1.351 . S
C2398 C2392 1.428 . S
C2398 N2397 1.351 . S
C2398 C2399 1.434 . S
C2399 C2390 1.429 . S
C2399 N2396 1.350 . S
C2399 C2398 1.434 . S
C2400 C2401 1.369 . S
C2400 C2402 1.419 . S
C2400 H2404 0.930 . S
C2401 C2400 1.369 . S
C2401 C2410 1.429 . S
C2402 C2400 1.419 . S
C2402 C2403 1.363 . S
C2402 H2405 0.929 . S
C2403 C2402 1.363 . S
C2403 C2409 1.428 . S
H2404 C2400 0.930 . S
H2405 C2402 0.929 . S
S2406 N2407 1.613 . S
S2406 N2408 1.610 . S
N2407 S2406 1.613 . S
N2407 C2410 1.350 . S
N2408 S2406 1.610 . S
N2408 C2409 1.351 . S
C2409 C2403 1.428 . S
C2409 N2408 1.351 . S
C2409 C2410 1.434 . S
C2410 C2401 1.429 . S
C2410 N2407 1.350 . S
C2410 C2409 1.434 . S
C2411 C2412 1.369 . S
C2411 C2413 1.419 . S
C2411 H2415 0.930 . S
C2412 C2411 1.369 . S
C2412 C2421 1.429 . S
C2413 C2411 1.419 . S
C2413 C2414 1.363 . S
C2413 H2416 0.929 . S
C2414 C2413 1.363 . S
C2414 C2420 1.428 . S
H2415 C2411 0.930 . S
H2416 C2413 0.929 . S
S2417 N2418 1.613 . S
S2417 N2419 1.610 . S
N2418 S2417 1.613 . S
N2418 C2421 1.350 . S
N2419 S2417 1.610 . S
N2419 C2420 1.351 . S
C2420 C2414 1.428 . S
C2420 N2419 1.351 . S
C2420 C2421 1.434 . S
C2421 C2412 1.429 . S
C2421 N2418 1.350 . S
C2421 C2420 1.434 . S
C2422 C2423 1.369 . S
C2422 C2424 1.419 . S
C2422 H2426 0.930 . S
C2423 C2422 1.369 . S
C2423 C2432 1.429 . S
C2424 C2422 1.419 . S
C2424 C2425 1.363 . S
C2424 H2427 0.929 . S
C2425 C2424 1.363 . S
C2425 C2431 1.428 . S
H2426 C2422 0.930 . S
H2427 C2424 0.929 . S
S2428 N2429 1.613 . S
S2428 N2430 1.610 . S
N2429 S2428 1.613 . S
N2429 C2432 1.350 . S
N2430 S2428 1.610 . S
N2430 C2431 1.351 . S
C2431 C2425 1.428 . S
C2431 N2430 1.351 . S
C2431 C2432 1.434 . S
C2432 C2423 1.429 . S
C2432 N2429 1.350 . S
C2432 C2431 1.434 . S
C2433 C2434 1.369 . S
C2433 C2435 1.419 . S
C2433 H2437 0.930 . S
C2434 C2433 1.369 . S
C2434 C2443 1.429 . S
C2435 C2433 1.419 . S
C2435 C2436 1.363 . S
C2435 H2438 0.929 . S
C2436 C2435 1.363 . S
C2436 C2442 1.428 . S
H2437 C2433 0.930 . S
H2438 C2435 0.929 . S
S2439 N2440 1.613 . S
S2439 N2441 1.610 . S
N2440 S2439 1.613 . S
N2440 C2443 1.350 . S
N2441 S2439 1.610 . S
N2441 C2442 1.351 . S
C2442 C2436 1.428 . S
C2442 N2441 1.351 . S
C2442 C2443 1.434 . S
C2443 C2434 1.429 . S
C2443 N2440 1.350 . S
C2443 C2442 1.434 . S
C2444 C2445 1.369 . S
C2444 C2446 1.419 . S
C2444 H2448 0.930 . S
C2445 C2444 1.369 . S
C2445 C2454 1.429 . S
C2446 C2444 1.419 . S
C2446 C2447 1.363 . S
C2446 H2449 0.929 . S
C2447 C2446 1.363 . S
C2447 C2453 1.428 . S
H2448 C2444 0.930 . S
H2449 C2446 0.929 . S
S2450 N2451 1.613 . S
S2450 N2452 1.610 . S
N2451 S2450 1.613 . S
N2451 C2454 1.350 . S
N2452 S2450 1.610 . S
N2452 C2453 1.351 . S
C2453 C2447 1.428 . S
C2453 N2452 1.351 . S
C2453 C2454 1.434 . S
C2454 C2445 1.429 . S
C2454 N2451 1.350 . S
C2454 C2453 1.434 . S
C2455 C2456 1.369 . S
C2455 C2457 1.419 . S
C2455 H2459 0.930 . S
C2456 C2455 1.369 . S
C2456 C2465 1.429 . S
C2457 C2455 1.419 . S
C2457 C2458 1.363 . S
C2457 H2460 0.929 . S
C2458 C2457 1.363 . S
C2458 C2464 1.428 . S
H2459 C2455 0.930 . S
H2460 C2457 0.929 . S
S2461 N2462 1.613 . S
S2461 N2463 1.610 . S
N2462 S2461 1.613 . S
N2462 C2465 1.350 . S
N2463 S2461 1.610 . S
N2463 C2464 1.351 . S
C2464 C2458 1.428 . S
C2464 N2463 1.351 . S
C2464 C2465 1.434 . S
C2465 C2456 1.429 . S
C2465 N2462 1.350 . S
C2465 C2464 1.434 . S
C2466 C2467 1.369 . S
C2466 C2468 1.419 . S
C2466 H2470 0.930 . S
C2467 C2466 1.369 . S
C2467 C2476 1.429 . S
C2468 C2466 1.419 . S
C2468 C2469 1.363 . S
C2468 H2471 0.929 . S
C2469 C2468 1.363 . S
C2469 C2475 1.428 . S
H2470 C2466 0.930 . S
H2471 C2468 0.929 . S
S2472 N2473 1.613 . S
S2472 N2474 1.610 . S
N2473 S2472 1.613 . S
N2473 C2476 1.350 . S
N2474 S2472 1.610 . S
N2474 C2475 1.351 . S
C2475 C2469 1.428 . S
C2475 N2474 1.351 . S
C2475 C2476 1.434 . S
C2476 C2467 1.429 . S
C2476 N2473 1.350 . S
C2476 C2475 1.434 . S
C2477 C2478 1.369 . S
C2477 C2479 1.419 . S
C2477 H2481 0.930 . S
C2478 C2477 1.369 . S
C2478 C2487 1.429 . S
C2479 C2477 1.419 . S
C2479 C2480 1.363 . S
C2479 H2482 0.929 . S
C2480 C2479 1.363 . S
C2480 C2486 1.428 . S
H2481 C2477 0.930 . S
H2482 C2479 0.929 . S
S2483 N2484 1.613 . S
S2483 N2485 1.610 . S
N2484 S2483 1.613 . S
N2484 C2487 1.350 . S
N2485 S2483 1.610 . S
N2485 C2486 1.351 . S
C2486 C2480 1.428 . S
C2486 N2485 1.351 . S
C2486 C2487 1.434 . S
C2487 C2478 1.429 . S
C2487 N2484 1.350 . S
C2487 C2486 1.434 . S
C2488 C2489 1.369 . S
C2488 C2490 1.419 . S
C2488 H2492 0.930 . S
C2489 C2488 1.369 . S
C2489 C2498 1.429 . S
C2490 C2488 1.419 . S
C2490 C2491 1.363 . S
C2490 H2493 0.929 . S
C2491 C2490 1.363 . S
C2491 C2497 1.428 . S
H2492 C2488 0.930 . S
H2493 C2490 0.929 . S
S2494 N2495 1.613 . S
S2494 N2496 1.610 . S
N2495 S2494 1.613 . S
N2495 C2498 1.350 . S
N2496 S2494 1.610 . S
N2496 C2497 1.351 . S
C2497 C2491 1.428 . S
C2497 N2496 1.351 . S
C2497 C2498 1.434 . S
C2498 C2489 1.429 . S
C2498 N2495 1.350 . S
C2498 C2497 1.434 . S
C2499 C2500 1.369 . S
C2499 C2501 1.419 . S
C2499 H2503 0.930 . S
C2500 C2499 1.369 . S
C2500 C2509 1.429 . S
C2501 C2499 1.419 . S
C2501 C2502 1.363 . S
C2501 H2504 0.929 . S
C2502 C2501 1.363 . S
C2502 C2508 1.428 . S
H2503 C2499 0.930 . S
H2504 C2501 0.929 . S
S2505 N2506 1.613 . S
S2505 N2507 1.610 . S
N2506 S2505 1.613 . S
N2506 C2509 1.350 . S
N2507 S2505 1.610 . S
N2507 C2508 1.351 . S
C2508 C2502 1.428 . S
C2508 N2507 1.351 . S
C2508 C2509 1.434 . S
C2509 C2500 1.429 . S
C2509 N2506 1.350 . S
C2509 C2508 1.434 . S
C2510 C2511 1.369 . S
C2510 C2512 1.419 . S
C2510 H2514 0.930 . S
C2511 C2510 1.369 . S
C2511 C2520 1.429 . S
C2512 C2510 1.419 . S
C2512 C2513 1.363 . S
C2512 H2515 0.929 . S
C2513 C2512 1.363 . S
C2513 C2519 1.428 . S
H2514 C2510 0.930 . S
H2515 C2512 0.929 . S
S2516 N2517 1.613 . S
S2516 N2518 1.610 . S
N2517 S2516 1.613 . S
N2517 C2520 1.350 . S
N2518 S2516 1.610 . S
N2518 C2519 1.351 . S
C2519 C2513 1.428 . S
C2519 N2518 1.351 . S
C2519 C2520 1.434 . S
C2520 C2511 1.429 . S
C2520 N2517 1.350 . S
C2520 C2519 1.434 . S
C2521 C2522 1.369 . S
C2521 C2523 1.419 . S
C2521 H2525 0.930 . S
C2522 C2521 1.369 . S
C2522 C2531 1.429 . S
C2523 C2521 1.419 . S
C2523 C2524 1.363 . S
C2523 H2526 0.929 . S
C2524 C2523 1.363 . S
C2524 C2530 1.428 . S
H2525 C2521 0.930 . S
H2526 C2523 0.929 . S
S2527 N2528 1.613 . S
S2527 N2529 1.610 . S
N2528 S2527 1.613 . S
N2528 C2531 1.350 . S
N2529 S2527 1.610 . S
N2529 C2530 1.351 . S
C2530 C2524 1.428 . S
C2530 N2529 1.351 . S
C2530 C2531 1.434 . S
C2531 C2522 1.429 . S
C2531 N2528 1.350 . S
C2531 C2530 1.434 . S
C2532 C2533 1.369 . S
C2532 C2534 1.419 . S
C2532 H2536 0.930 . S
C2533 C2532 1.369 . S
C2533 C2542 1.429 . S
C2534 C2532 1.419 . S
C2534 C2535 1.363 . S
C2534 H2537 0.929 . S
C2535 C2534 1.363 . S
C2535 C2541 1.428 . S
H2536 C2532 0.930 . S
H2537 C2534 0.929 . S
S2538 N2539 1.613 . S
S2538 N2540 1.610 . S
N2539 S2538 1.613 . S
N2539 C2542 1.350 . S
N2540 S2538 1.610 . S
N2540 C2541 1.351 . S
C2541 C2535 1.428 . S
C2541 N2540 1.351 . S
C2541 C2542 1.434 . S
C2542 C2533 1.429 . S
C2542 N2539 1.350 . S
C2542 C2541 1.434 . S
C2543 C2544 1.369 . S
C2543 C2545 1.419 . S
C2543 H2547 0.930 . S
C2544 C2543 1.369 . S
C2544 C2553 1.429 . S
C2545 C2543 1.419 . S
C2545 C2546 1.363 . S
C2545 H2548 0.929 . S
C2546 C2545 1.363 . S
C2546 C2552 1.428 . S
H2547 C2543 0.930 . S
H2548 C2545 0.929 . S
S2549 N2550 1.613 . S
S2549 N2551 1.610 . S
N2550 S2549 1.613 . S
N2550 C2553 1.350 . S
N2551 S2549 1.610 . S
N2551 C2552 1.351 . S
C2552 C2546 1.428 . S
C2552 N2551 1.351 . S
C2552 C2553 1.434 . S
C2553 C2544 1.429 . S
C2553 N2550 1.350 . S
C2553 C2552 1.434 . S
C2554 C2555 1.369 . S
C2554 C2556 1.419 . S
C2554 H2558 0.930 . S
C2555 C2554 1.369 . S
C2555 C2564 1.429 . S
C2556 C2554 1.419 . S
C2556 C2557 1.363 . S
C2556 H2559 0.929 . S
C2557 C2556 1.363 . S
C2557 C2563 1.428 . S
H2558 C2554 0.930 . S
H2559 C2556 0.929 . S
S2560 N2561 1.613 . S
S2560 N2562 1.610 . S
N2561 S2560 1.613 . S
N2561 C2564 1.350 . S
N2562 S2560 1.610 . S
N2562 C2563 1.351 . S
C2563 C2557 1.428 . S
C2563 N2562 1.351 . S
C2563 C2564 1.434 . S
C2564 C2555 1.429 . S
C2564 N2561 1.350 . S
C2564 C2563 1.434 . S
C2565 C2566 1.369 . S
C2565 C2567 1.419 . S
C2565 H2569 0.930 . S
C2566 C2565 1.369 . S
C2566 C2575 1.429 . S
C2567 C2565 1.419 . S
C2567 C2568 1.363 . S
C2567 H2570 0.929 . S
C2568 C2567 1.363 . S
C2568 C2574 1.428 . S
H2569 C2565 0.930 . S
H2570 C2567 0.929 . S
S2571 N2572 1.613 . S
S2571 N2573 1.610 . S
N2572 S2571 1.613 . S
N2572 C2575 1.350 . S
N2573 S2571 1.610 . S
N2573 C2574 1.351 . S
C2574 C2568 1.428 . S
C2574 N2573 1.351 . S
C2574 C2575 1.434 . S
C2575 C2566 1.429 . S
C2575 N2572 1.350 . S
C2575 C2574 1.434 . S
C2576 C2577 1.369 . S
C2576 C2578 1.419 . S
C2576 H2580 0.930 . S
C2577 C2576 1.369 . S
C2577 C2586 1.429 . S
C2578 C2576 1.419 . S
C2578 C2579 1.363 . S
C2578 H2581 0.929 . S
C2579 C2578 1.363 . S
C2579 C2585 1.428 . S
H2580 C2576 0.930 . S
H2581 C2578 0.929 . S
S2582 N2583 1.613 . S
S2582 N2584 1.610 . S
N2583 S2582 1.613 . S
N2583 C2586 1.350 . S
N2584 S2582 1.610 . S
N2584 C2585 1.351 . S
C2585 C2579 1.428 . S
C2585 N2584 1.351 . S
C2585 C2586 1.434 . S
C2586 C2577 1.429 . S
C2586 N2583 1.350 . S
C2586 C2585 1.434 . S
C2587 C2588 1.369 . S
C2587 C2589 1.419 . S
C2587 H2591 0.930 . S
C2588 C2587 1.369 . S
C2588 C2597 1.429 . S
C2589 C2587 1.419 . S
C2589 C2590 1.363 . S
C2589 H2592 0.929 . S
C2590 C2589 1.363 . S
C2590 C2596 1.428 . S
H2591 C2587 0.930 . S
H2592 C2589 0.929 . S
S2593 N2594 1.613 . S
S2593 N2595 1.610 . S
N2594 S2593 1.613 . S
N2594 C2597 1.350 . S
N2595 S2593 1.610 . S
N2595 C2596 1.351 . S
C2596 C2590 1.428 . S
C2596 N2595 1.351 . S
C2596 C2597 1.434 . S
C2597 C2588 1.429 . S
C2597 N2594 1.350 . S
C2597 C2596 1.434 . S
C2598 C2599 1.369 . S
C2598 C2600 1.419 . S
C2598 H2602 0.930 . S
C2599 C2598 1.369 . S
C2599 C2608 1.429 . S
C2600 C2598 1.419 . S
C2600 C2601 1.363 . S
C2600 H2603 0.929 . S
C2601 C2600 1.363 . S
C2601 C2607 1.428 . S
H2602 C2598 0.930 . S
H2603 C2600 0.929 . S
S2604 N2605 1.613 . S
S2604 N2606 1.610 . S
N2605 S2604 1.613 . S
N2605 C2608 1.350 . S
N2606 S2604 1.610 . S
N2606 C2607 1.351 . S
C2607 C2601 1.428 . S
C2607 N2606 1.351 . S
C2607 C2608 1.434 . S
C2608 C2599 1.429 . S
C2608 N2605 1.350 . S
C2608 C2607 1.434 . S
C2609 C2610 1.369 . S
C2609 C2611 1.419 . S
C2609 H2613 0.930 . S
C2610 C2609 1.369 . S
C2610 C2619 1.429 . S
C2611 C2609 1.419 . S
C2611 C2612 1.363 . S
C2611 H2614 0.929 . S
C2612 C2611 1.363 . S
C2612 C2618 1.428 . S
H2613 C2609 0.930 . S
H2614 C2611 0.929 . S
S2615 N2616 1.613 . S
S2615 N2617 1.610 . S
N2616 S2615 1.613 . S
N2616 C2619 1.350 . S
N2617 S2615 1.610 . S
N2617 C2618 1.351 . S
C2618 C2612 1.428 . S
C2618 N2617 1.351 . S
C2618 C2619 1.434 . S
C2619 C2610 1.429 . S
C2619 N2616 1.350 . S
C2619 C2618 1.434 . S
C2620 C2621 1.369 . S
C2620 C2622 1.419 . S
C2620 H2624 0.930 . S
C2621 C2620 1.369 . S
C2621 C2630 1.429 . S
C2622 C2620 1.419 . S
C2622 C2623 1.363 . S
C2622 H2625 0.929 . S
C2623 C2622 1.363 . S
C2623 C2629 1.428 . S
H2624 C2620 0.930 . S
H2625 C2622 0.929 . S
S2626 N2627 1.613 . S
S2626 N2628 1.610 . S
N2627 S2626 1.613 . S
N2627 C2630 1.350 . S
N2628 S2626 1.610 . S
N2628 C2629 1.351 . S
C2629 C2623 1.428 . S
C2629 N2628 1.351 . S
C2629 C2630 1.434 . S
C2630 C2621 1.429 . S
C2630 N2627 1.350 . S
C2630 C2629 1.434 . S
C2631 C2632 1.369 . S
C2631 C2633 1.419 . S
C2631 H2635 0.930 . S
C2632 C2631 1.369 . S
C2632 C2641 1.429 . S
C2633 C2631 1.419 . S
C2633 C2634 1.363 . S
C2633 H2636 0.929 . S
C2634 C2633 1.363 . S
C2634 C2640 1.428 . S
H2635 C2631 0.930 . S
H2636 C2633 0.929 . S
S2637 N2638 1.613 . S
S2637 N2639 1.610 . S
N2638 S2637 1.613 . S
N2638 C2641 1.350 . S
N2639 S2637 1.610 . S
N2639 C2640 1.351 . S
C2640 C2634 1.428 . S
C2640 N2639 1.351 . S
C2640 C2641 1.434 . S
C2641 C2632 1.429 . S
C2641 N2638 1.350 . S
C2641 C2640 1.434 . S
C2642 C2643 1.369 . S
C2642 C2644 1.419 . S
C2642 H2646 0.930 . S
C2643 C2642 1.369 . S
C2643 C2652 1.429 . S
C2644 C2642 1.419 . S
C2644 C2645 1.363 . S
C2644 H2647 0.929 . S
C2645 C2644 1.363 . S
C2645 C2651 1.428 . S
H2646 C2642 0.930 . S
H2647 C2644 0.929 . S
S2648 N2649 1.613 . S
S2648 N2650 1.610 . S
N2649 S2648 1.613 . S
N2649 C2652 1.350 . S
N2650 S2648 1.610 . S
N2650 C2651 1.351 . S
C2651 C2645 1.428 . S
C2651 N2650 1.351 . S
C2651 C2652 1.434 . S
C2652 C2643 1.429 . S
C2652 N2649 1.350 . S
C2652 C2651 1.434 . S
C2653 C2654 1.369 . S
C2653 C2655 1.419 . S
C2653 H2657 0.930 . S
C2654 C2653 1.369 . S
C2654 C2663 1.429 . S
C2655 C2653 1.419 . S
C2655 C2656 1.363 . S
C2655 H2658 0.929 . S
C2656 C2655 1.363 . S
C2656 C2662 1.428 . S
H2657 C2653 0.930 . S
H2658 C2655 0.929 . S
S2659 N2660 1.613 . S
S2659 N2661 1.610 . S
N2660 S2659 1.613 . S
N2660 C2663 1.350 . S
N2661 S2659 1.610 . S
N2661 C2662 1.351 . S
C2662 C2656 1.428 . S
C2662 N2661 1.351 . S
C2662 C2663 1.434 . S
C2663 C2654 1.429 . S
C2663 N2660 1.350 . S
C2663 C2662 1.434 . S
C2664 C2665 1.369 . S
C2664 C2666 1.419 . S
C2664 H2668 0.930 . S
C2665 C2664 1.369 . S
C2665 C2674 1.429 . S
C2666 C2664 1.419 . S
C2666 C2667 1.363 . S
C2666 H2669 0.929 . S
C2667 C2666 1.363 . S
C2667 C2673 1.428 . S
H2668 C2664 0.930 . S
H2669 C2666 0.929 . S
S2670 N2671 1.613 . S
S2670 N2672 1.610 . S
N2671 S2670 1.613 . S
N2671 C2674 1.350 . S
N2672 S2670 1.610 . S
N2672 C2673 1.351 . S
C2673 C2667 1.428 . S
C2673 N2672 1.351 . S
C2673 C2674 1.434 . S
C2674 C2665 1.429 . S
C2674 N2671 1.350 . S
C2674 C2673 1.434 . S
C2675 C2676 1.369 . S
C2675 C2677 1.419 . S
C2675 H2679 0.930 . S
C2676 C2675 1.369 . S
C2676 C2685 1.429 . S
C2677 C2675 1.419 . S
C2677 C2678 1.363 . S
C2677 H2680 0.929 . S
C2678 C2677 1.363 . S
C2678 C2684 1.428 . S
H2679 C2675 0.930 . S
H2680 C2677 0.929 . S
S2681 N2682 1.613 . S
S2681 N2683 1.610 . S
N2682 S2681 1.613 . S
N2682 C2685 1.350 . S
N2683 S2681 1.610 . S
N2683 C2684 1.351 . S
C2684 C2678 1.428 . S
C2684 N2683 1.351 . S
C2684 C2685 1.434 . S
C2685 C2676 1.429 . S
C2685 N2682 1.350 . S
C2685 C2684 1.434 . S
C2686 C2687 1.369 . S
C2686 C2688 1.419 . S
C2686 H2690 0.930 . S
C2687 C2686 1.369 . S
C2687 C2696 1.429 . S
C2688 C2686 1.419 . S
C2688 C2689 1.363 . S
C2688 H2691 0.929 . S
C2689 C2688 1.363 . S
C2689 C2695 1.428 . S
H2690 C2686 0.930 . S
H2691 C2688 0.929 . S
S2692 N2693 1.613 . S
S2692 N2694 1.610 . S
N2693 S2692 1.613 . S
N2693 C2696 1.350 . S
N2694 S2692 1.610 . S
N2694 C2695 1.351 . S
C2695 C2689 1.428 . S
C2695 N2694 1.351 . S
C2695 C2696 1.434 . S
C2696 C2687 1.429 . S
C2696 N2693 1.350 . S
C2696 C2695 1.434 . S
C2697 C2698 1.369 . S
C2697 C2699 1.419 . S
C2697 H2701 0.930 . S
C2698 C2697 1.369 . S
C2698 C2707 1.429 . S
C2699 C2697 1.419 . S
C2699 C2700 1.363 . S
C2699 H2702 0.929 . S
C2700 C2699 1.363 . S
C2700 C2706 1.428 . S
H2701 C2697 0.930 . S
H2702 C2699 0.929 . S
S2703 N2704 1.613 . S
S2703 N2705 1.610 . S
N2704 S2703 1.613 . S
N2704 C2707 1.350 . S
N2705 S2703 1.610 . S
N2705 C2706 1.351 . S
C2706 C2700 1.428 . S
C2706 N2705 1.351 . S
C2706 C2707 1.434 . S
C2707 C2698 1.429 . S
C2707 N2704 1.350 . S
C2707 C2706 1.434 . S
C2708 C2709 1.369 . S
C2708 C2710 1.419 . S
C2708 H2712 0.930 . S
C2709 C2708 1.369 . S
C2709 C2718 1.429 . S
C2710 C2708 1.419 . S
C2710 C2711 1.363 . S
C2710 H2713 0.929 . S
C2711 C2710 1.363 . S
C2711 C2717 1.428 . S
H2712 C2708 0.930 . S
H2713 C2710 0.929 . S
S2714 N2715 1.613 . S
S2714 N2716 1.610 . S
N2715 S2714 1.613 . S
N2715 C2718 1.350 . S
N2716 S2714 1.610 . S
N2716 C2717 1.351 . S
C2717 C2711 1.428 . S
C2717 N2716 1.351 . S
C2717 C2718 1.434 . S
C2718 C2709 1.429 . S
C2718 N2715 1.350 . S
C2718 C2717 1.434 . S
C2719 C2720 1.369 . S
C2719 C2721 1.419 . S
C2719 H2723 0.930 . S
C2720 C2719 1.369 . S
C2720 C2729 1.429 . S
C2721 C2719 1.419 . S
C2721 C2722 1.363 . S
C2721 H2724 0.929 . S
C2722 C2721 1.363 . S
C2722 C2728 1.428 . S
H2723 C2719 0.930 . S
H2724 C2721 0.929 . S
S2725 N2726 1.613 . S
S2725 N2727 1.610 . S
N2726 S2725 1.613 . S
N2726 C2729 1.350 . S
N2727 S2725 1.610 . S
N2727 C2728 1.351 . S
C2728 C2722 1.428 . S
C2728 N2727 1.351 . S
C2728 C2729 1.434 . S
C2729 C2720 1.429 . S
C2729 N2726 1.350 . S
C2729 C2728 1.434 . S
C2730 C2731 1.369 . S
C2730 C2732 1.419 . S
C2730 H2734 0.930 . S
C2731 C2730 1.369 . S
C2731 C2740 1.429 . S
C2732 C2730 1.419 . S
C2732 C2733 1.363 . S
C2732 H2735 0.929 . S
C2733 C2732 1.363 . S
C2733 C2739 1.428 . S
H2734 C2730 0.930 . S
H2735 C2732 0.929 . S
S2736 N2737 1.613 . S
S2736 N2738 1.610 . S
N2737 S2736 1.613 . S
N2737 C2740 1.350 . S
N2738 S2736 1.610 . S
N2738 C2739 1.351 . S
C2739 C2733 1.428 . S
C2739 N2738 1.351 . S
C2739 C2740 1.434 . S
C2740 C2731 1.429 . S
C2740 N2737 1.350 . S
C2740 C2739 1.434 . S
C2741 C2742 1.369 . S
C2741 C2743 1.419 . S
C2741 H2745 0.930 . S
C2742 C2741 1.369 . S
C2742 C2751 1.429 . S
C2743 C2741 1.419 . S
C2743 C2744 1.363 . S
C2743 H2746 0.929 . S
C2744 C2743 1.363 . S
C2744 C2750 1.428 . S
H2745 C2741 0.930 . S
H2746 C2743 0.929 . S
S2747 N2748 1.613 . S
S2747 N2749 1.610 . S
N2748 S2747 1.613 . S
N2748 C2751 1.350 . S
N2749 S2747 1.610 . S
N2749 C2750 1.351 . S
C2750 C2744 1.428 . S
C2750 N2749 1.351 . S
C2750 C2751 1.434 . S
C2751 C2742 1.429 . S
C2751 N2748 1.350 . S
C2751 C2750 1.434 . S
C2752 C2753 1.369 . S
C2752 C2754 1.419 . S
C2752 H2756 0.930 . S
C2753 C2752 1.369 . S
C2753 C2762 1.429 . S
C2754 C2752 1.419 . S
C2754 C2755 1.363 . S
C2754 H2757 0.929 . S
C2755 C2754 1.363 . S
C2755 C2761 1.428 . S
H2756 C2752 0.930 . S
H2757 C2754 0.929 . S
S2758 N2759 1.613 . S
S2758 N2760 1.610 . S
N2759 S2758 1.613 . S
N2759 C2762 1.350 . S
N2760 S2758 1.610 . S
N2760 C2761 1.351 . S
C2761 C2755 1.428 . S
C2761 N2760 1.351 . S
C2761 C2762 1.434 . S
C2762 C2753 1.429 . S
C2762 N2759 1.350 . S
C2762 C2761 1.434 . S
C2763 C2764 1.369 . S
C2763 C2765 1.419 . S
C2763 H2767 0.930 . S
C2764 C2763 1.369 . S
C2764 C2773 1.429 . S
C2765 C2763 1.419 . S
C2765 C2766 1.363 . S
C2765 H2768 0.929 . S
C2766 C2765 1.363 . S
C2766 C2772 1.428 . S
H2767 C2763 0.930 . S
H2768 C2765 0.929 . S
S2769 N2770 1.613 . S
S2769 N2771 1.610 . S
N2770 S2769 1.613 . S
N2770 C2773 1.350 . S
N2771 S2769 1.610 . S
N2771 C2772 1.351 . S
C2772 C2766 1.428 . S
C2772 N2771 1.351 . S
C2772 C2773 1.434 . S
C2773 C2764 1.429 . S
C2773 N2770 1.350 . S
C2773 C2772 1.434 . S
C2774 C2775 1.369 . S
C2774 C2776 1.419 . S
C2774 H2778 0.930 . S
C2775 C2774 1.369 . S
C2775 C2784 1.429 . S
C2776 C2774 1.419 . S
C2776 C2777 1.363 . S
C2776 H2779 0.929 . S
C2777 C2776 1.363 . S
C2777 C2783 1.428 . S
H2778 C2774 0.930 . S
H2779 C2776 0.929 . S
S2780 N2781 1.613 . S
S2780 N2782 1.610 . S
N2781 S2780 1.613 . S
N2781 C2784 1.350 . S
N2782 S2780 1.610 . S
N2782 C2783 1.351 . S
C2783 C2777 1.428 . S
C2783 N2782 1.351 . S
C2783 C2784 1.434 . S
C2784 C2775 1.429 . S
C2784 N2781 1.350 . S
C2784 C2783 1.434 . S
C2785 C2786 1.369 . S
C2785 C2787 1.419 . S
C2785 H2789 0.930 . S
C2786 C2785 1.369 . S
C2786 C2795 1.429 . S
C2787 C2785 1.419 . S
C2787 C2788 1.363 . S
C2787 H2790 0.929 . S
C2788 C2787 1.363 . S
C2788 C2794 1.428 . S
H2789 C2785 0.930 . S
H2790 C2787 0.929 . S
S2791 N2792 1.613 . S
S2791 N2793 1.610 . S
N2792 S2791 1.613 . S
N2792 C2795 1.350 . S
N2793 S2791 1.610 . S
N2793 C2794 1.351 . S
C2794 C2788 1.428 . S
C2794 N2793 1.351 . S
C2794 C2795 1.434 . S
C2795 C2786 1.429 . S
C2795 N2792 1.350 . S
C2795 C2794 1.434 . S
C2796 C2797 1.369 . S
C2796 C2798 1.419 . S
C2796 H2800 0.930 . S
C2797 C2796 1.369 . S
C2797 C2806 1.429 . S
C2798 C2796 1.419 . S
C2798 C2799 1.363 . S
C2798 H2801 0.929 . S
C2799 C2798 1.363 . S
C2799 C2805 1.428 . S
H2800 C2796 0.930 . S
H2801 C2798 0.929 . S
S2802 N2803 1.613 . S
S2802 N2804 1.610 . S
N2803 S2802 1.613 . S
N2803 C2806 1.350 . S
N2804 S2802 1.610 . S
N2804 C2805 1.351 . S
C2805 C2799 1.428 . S
C2805 N2804 1.351 . S
C2805 C2806 1.434 . S
C2806 C2797 1.429 . S
C2806 N2803 1.350 . S
C2806 C2805 1.434 . S
C2807 C2808 1.369 . S
C2807 C2809 1.419 . S
C2807 H2811 0.930 . S
C2808 C2807 1.369 . S
C2808 C2817 1.429 . S
C2809 C2807 1.419 . S
C2809 C2810 1.363 . S
C2809 H2812 0.929 . S
C2810 C2809 1.363 . S
C2810 C2816 1.428 . S
H2811 C2807 0.930 . S
H2812 C2809 0.929 . S
S2813 N2814 1.613 . S
S2813 N2815 1.610 . S
N2814 S2813 1.613 . S
N2814 C2817 1.350 . S
N2815 S2813 1.610 . S
N2815 C2816 1.351 . S
C2816 C2810 1.428 . S
C2816 N2815 1.351 . S
C2816 C2817 1.434 . S
C2817 C2808 1.429 . S
C2817 N2814 1.350 . S
C2817 C2816 1.434 . S
C2818 C2819 1.369 . S
C2818 C2820 1.419 . S
C2818 H2822 0.930 . S
C2819 C2818 1.369 . S
C2819 C2828 1.429 . S
C2820 C2818 1.419 . S
C2820 C2821 1.363 . S
C2820 H2823 0.929 . S
C2821 C2820 1.363 . S
C2821 C2827 1.428 . S
H2822 C2818 0.930 . S
H2823 C2820 0.929 . S
S2824 N2825 1.613 . S
S2824 N2826 1.610 . S
N2825 S2824 1.613 . S
N2825 C2828 1.350 . S
N2826 S2824 1.610 . S
N2826 C2827 1.351 . S
C2827 C2821 1.428 . S
C2827 N2826 1.351 . S
C2827 C2828 1.434 . S
C2828 C2819 1.429 . S
C2828 N2825 1.350 . S
C2828 C2827 1.434 . S
C2829 C2830 1.369 . S
C2829 C2831 1.419 . S
C2829 H2833 0.930 . S
C2830 C2829 1.369 . S
C2830 C2839 1.429 . S
C2831 C2829 1.419 . S
C2831 C2832 1.363 . S
C2831 H2834 0.929 . S
C2832 C2831 1.363 . S
C2832 C2838 1.428 . S
H2833 C2829 0.930 . S
H2834 C2831 0.929 . S
S2835 N2836 1.613 . S
S2835 N2837 1.610 . S
N2836 S2835 1.613 . S
N2836 C2839 1.350 . S
N2837 S2835 1.610 . S
N2837 C2838 1.351 . S
C2838 C2832 1.428 . S
C2838 N2837 1.351 . S
C2838 C2839 1.434 . S
C2839 C2830 1.429 . S
C2839 N2836 1.350 . S
C2839 C2838 1.434 . S
C2840 C2841 1.369 . S
C2840 C2842 1.419 . S
C2840 H2844 0.930 . S
C2841 C2840 1.369 . S
C2841 C2850 1.429 . S
C2842 C2840 1.419 . S
C2842 C2843 1.363 . S
C2842 H2845 0.929 . S
C2843 C2842 1.363 . S
C2843 C2849 1.428 . S
H2844 C2840 0.930 . S
H2845 C2842 0.929 . S
S2846 N2847 1.613 . S
S2846 N2848 1.610 . S
N2847 S2846 1.613 . S
N2847 C2850 1.350 . S
N2848 S2846 1.610 . S
N2848 C2849 1.351 . S
C2849 C2843 1.428 . S
C2849 N2848 1.351 . S
C2849 C2850 1.434 . S
C2850 C2841 1.429 . S
C2850 N2847 1.350 . S
C2850 C2849 1.434 . S
C2851 C2852 1.369 . S
C2851 C2853 1.419 . S
C2851 H2855 0.930 . S
C2852 C2851 1.369 . S
C2852 C2861 1.429 . S
C2853 C2851 1.419 . S
C2853 C2854 1.363 . S
C2853 H2856 0.929 . S
C2854 C2853 1.363 . S
C2854 C2860 1.428 . S
H2855 C2851 0.930 . S
H2856 C2853 0.929 . S
S2857 N2858 1.613 . S
S2857 N2859 1.610 . S
N2858 S2857 1.613 . S
N2858 C2861 1.350 . S
N2859 S2857 1.610 . S
N2859 C2860 1.351 . S
C2860 C2854 1.428 . S
C2860 N2859 1.351 . S
C2860 C2861 1.434 . S
C2861 C2852 1.429 . S
C2861 N2858 1.350 . S
C2861 C2860 1.434 . S
C2862 C2863 1.369 . S
C2862 C2864 1.419 . S
C2862 H2866 0.930 . S
C2863 C2862 1.369 . S
C2863 C2872 1.429 . S
C2864 C2862 1.419 . S
C2864 C2865 1.363 . S
C2864 H2867 0.929 . S
C2865 C2864 1.363 . S
C2865 C2871 1.428 . S
H2866 C2862 0.930 . S
H2867 C2864 0.929 . S
S2868 N2869 1.613 . S
S2868 N2870 1.610 . S
N2869 S2868 1.613 . S
N2869 C2872 1.350 . S
N2870 S2868 1.610 . S
N2870 C2871 1.351 . S
C2871 C2865 1.428 . S
C2871 N2870 1.351 . S
C2871 C2872 1.434 . S
C2872 C2863 1.429 . S
C2872 N2869 1.350 . S
C2872 C2871 1.434 . S
C2873 C2874 1.369 . S
C2873 C2875 1.419 . S
C2873 H2877 0.930 . S
C2874 C2873 1.369 . S
C2874 C2883 1.429 . S
C2875 C2873 1.419 . S
C2875 C2876 1.363 . S
C2875 H2878 0.929 . S
C2876 C2875 1.363 . S
C2876 C2882 1.428 . S
H2877 C2873 0.930 . S
H2878 C2875 0.929 . S
S2879 N2880 1.613 . S
S2879 N2881 1.610 . S
N2880 S2879 1.613 . S
N2880 C2883 1.350 . S
N2881 S2879 1.610 . S
N2881 C2882 1.351 . S
C2882 C2876 1.428 . S
C2882 N2881 1.351 . S
C2882 C2883 1.434 . S
C2883 C2874 1.429 . S
C2883 N2880 1.350 . S
C2883 C2882 1.434 . S
C2884 C2885 1.369 . S
C2884 C2886 1.419 . S
C2884 H2888 0.930 . S
C2885 C2884 1.369 . S
C2885 C2894 1.429 . S
C2886 C2884 1.419 . S
C2886 C2887 1.363 . S
C2886 H2889 0.929 . S
C2887 C2886 1.363 . S
C2887 C2893 1.428 . S
H2888 C2884 0.930 . S
H2889 C2886 0.929 . S
S2890 N2891 1.613 . S
S2890 N2892 1.610 . S
N2891 S2890 1.613 . S
N2891 C2894 1.350 . S
N2892 S2890 1.610 . S
N2892 C2893 1.351 . S
C2893 C2887 1.428 . S
C2893 N2892 1.351 . S
C2893 C2894 1.434 . S
C2894 C2885 1.429 . S
C2894 N2891 1.350 . S
C2894 C2893 1.434 . S
C2895 C2896 1.369 . S
C2895 C2897 1.419 . S
C2895 H2899 0.930 . S
C2896 C2895 1.369 . S
C2896 C2905 1.429 . S
C2897 C2895 1.419 . S
C2897 C2898 1.363 . S
C2897 H2900 0.929 . S
C2898 C2897 1.363 . S
C2898 C2904 1.428 . S
H2899 C2895 0.930 . S
H2900 C2897 0.929 . S
S2901 N2902 1.613 . S
S2901 N2903 1.610 . S
N2902 S2901 1.613 . S
N2902 C2905 1.350 . S
N2903 S2901 1.610 . S
N2903 C2904 1.351 . S
C2904 C2898 1.428 . S
C2904 N2903 1.351 . S
C2904 C2905 1.434 . S
C2905 C2896 1.429 . S
C2905 N2902 1.350 . S
C2905 C2904 1.434 . S
C2906 C2907 1.369 . S
C2906 C2908 1.419 . S
C2906 H2910 0.930 . S
C2907 C2906 1.369 . S
C2907 C2916 1.429 . S
C2908 C2906 1.419 . S
C2908 C2909 1.363 . S
C2908 H2911 0.929 . S
C2909 C2908 1.363 . S
C2909 C2915 1.428 . S
H2910 C2906 0.930 . S
H2911 C2908 0.929 . S
S2912 N2913 1.613 . S
S2912 N2914 1.610 . S
N2913 S2912 1.613 . S
N2913 C2916 1.350 . S
N2914 S2912 1.610 . S
N2914 C2915 1.351 . S
C2915 C2909 1.428 . S
C2915 N2914 1.351 . S
C2915 C2916 1.434 . S
C2916 C2907 1.429 . S
C2916 N2913 1.350 . S
C2916 C2915 1.434 . S
C2917 C2918 1.369 . S
C2917 C2919 1.419 . S
C2917 H2921 0.930 . S
C2918 C2917 1.369 . S
C2918 C2927 1.429 . S
C2919 C2917 1.419 . S
C2919 C2920 1.363 . S
C2919 H2922 0.929 . S
C2920 C2919 1.363 . S
C2920 C2926 1.428 . S
H2921 C2917 0.930 . S
H2922 C2919 0.929 . S
S2923 N2924 1.613 . S
S2923 N2925 1.610 . S
N2924 S2923 1.613 . S
N2924 C2927 1.350 . S
N2925 S2923 1.610 . S
N2925 C2926 1.351 . S
C2926 C2920 1.428 . S
C2926 N2925 1.351 . S
C2926 C2927 1.434 . S
C2927 C2918 1.429 . S
C2927 N2924 1.350 . S
C2927 C2926 1.434 . S
C2928 C2929 1.369 . S
C2928 C2930 1.419 . S
C2928 H2932 0.930 . S
C2929 C2928 1.369 . S
C2929 C2938 1.429 . S
C2930 C2928 1.419 . S
C2930 C2931 1.363 . S
C2930 H2933 0.929 . S
C2931 C2930 1.363 . S
C2931 C2937 1.428 . S
H2932 C2928 0.930 . S
H2933 C2930 0.929 . S
S2934 N2935 1.613 . S
S2934 N2936 1.610 . S
N2935 S2934 1.613 . S
N2935 C2938 1.350 . S
N2936 S2934 1.610 . S
N2936 C2937 1.351 . S
C2937 C2931 1.428 . S
C2937 N2936 1.351 . S
C2937 C2938 1.434 . S
C2938 C2929 1.429 . S
C2938 N2935 1.350 . S
C2938 C2937 1.434 . S
C2939 C2940 1.369 . S
C2939 C2941 1.419 . S
C2939 H2943 0.930 . S
C2940 C2939 1.369 . S
C2940 C2949 1.429 . S
C2941 C2939 1.419 . S
C2941 C2942 1.363 . S
C2941 H2944 0.929 . S
C2942 C2941 1.363 . S
C2942 C2948 1.428 . S
H2943 C2939 0.930 . S
H2944 C2941 0.929 . S
S2945 N2946 1.613 . S
S2945 N2947 1.610 . S
N2946 S2945 1.613 . S
N2946 C2949 1.350 . S
N2947 S2945 1.610 . S
N2947 C2948 1.351 . S
C2948 C2942 1.428 . S
C2948 N2947 1.351 . S
C2948 C2949 1.434 . S
C2949 C2940 1.429 . S
C2949 N2946 1.350 . S
C2949 C2948 1.434 . S
C2950 C2951 1.369 . S
C2950 C2952 1.419 . S
C2950 H2954 0.930 . S
C2951 C2950 1.369 . S
C2951 C2960 1.429 . S
C2952 C2950 1.419 . S
C2952 C2953 1.363 . S
C2952 H2955 0.929 . S
C2953 C2952 1.363 . S
C2953 C2959 1.428 . S
H2954 C2950 0.930 . S
H2955 C2952 0.929 . S
S2956 N2957 1.613 . S
S2956 N2958 1.610 . S
N2957 S2956 1.613 . S
N2957 C2960 1.350 . S
N2958 S2956 1.610 . S
N2958 C2959 1.351 . S
C2959 C2953 1.428 . S
C2959 N2958 1.351 . S
C2959 C2960 1.434 . S
C2960 C2951 1.429 . S
C2960 N2957 1.350 . S
C2960 C2959 1.434 . S
C2961 C2962 1.369 . S
C2961 C2963 1.419 . S
C2961 H2965 0.930 . S
C2962 C2961 1.369 . S
C2962 C2971 1.429 . S
C2963 C2961 1.419 . S
C2963 C2964 1.363 . S
C2963 H2966 0.929 . S
C2964 C2963 1.363 . S
C2964 C2970 1.428 . S
H2965 C2961 0.930 . S
H2966 C2963 0.929 . S
S2967 N2968 1.613 . S
S2967 N2969 1.610 . S
N2968 S2967 1.613 . S
N2968 C2971 1.350 . S
N2969 S2967 1.610 . S
N2969 C2970 1.351 . S
C2970 C2964 1.428 . S
C2970 N2969 1.351 . S
C2970 C2971 1.434 . S
C2971 C2962 1.429 . S
C2971 N2968 1.350 . S
C2971 C2970 1.434 . S
C2972 C2973 1.369 . S
C2972 C2974 1.419 . S
C2972 H2976 0.930 . S
C2973 C2972 1.369 . S
C2973 C2982 1.429 . S
C2974 C2972 1.419 . S
C2974 C2975 1.363 . S
C2974 H2977 0.929 . S
C2975 C2974 1.363 . S
C2975 C2981 1.428 . S
H2976 C2972 0.930 . S
H2977 C2974 0.929 . S
S2978 N2979 1.613 . S
S2978 N2980 1.610 . S
N2979 S2978 1.613 . S
N2979 C2982 1.350 . S
N2980 S2978 1.610 . S
N2980 C2981 1.351 . S
C2981 C2975 1.428 . S
C2981 N2980 1.351 . S
C2981 C2982 1.434 . S
C2982 C2973 1.429 . S
C2982 N2979 1.350 . S
C2982 C2981 1.434 . S
C2983 C2984 1.369 . S
C2983 C2985 1.419 . S
C2983 H2987 0.930 . S
C2984 C2983 1.369 . S
C2984 C2993 1.429 . S
C2985 C2983 1.419 . S
C2985 C2986 1.363 . S
C2985 H2988 0.929 . S
C2986 C2985 1.363 . S
C2986 C2992 1.428 . S
H2987 C2983 0.930 . S
H2988 C2985 0.929 . S
S2989 N2990 1.613 . S
S2989 N2991 1.610 . S
N2990 S2989 1.613 . S
N2990 C2993 1.350 . S
N2991 S2989 1.610 . S
N2991 C2992 1.351 . S
C2992 C2986 1.428 . S
C2992 N2991 1.351 . S
C2992 C2993 1.434 . S
C2993 C2984 1.429 . S
C2993 N2990 1.350 . S
C2993 C2992 1.434 . S
C2994 C2995 1.369 . S
C2994 C2996 1.419 . S
C2994 H2998 0.930 . S
C2995 C2994 1.369 . S
C2995 C3004 1.429 . S
C2996 C2994 1.419 . S
C2996 C2997 1.363 . S
C2996 H2999 0.929 . S
C2997 C2996 1.363 . S
C2997 C3003 1.428 . S
H2998 C2994 0.930 . S
H2999 C2996 0.929 . S
S3000 N3001 1.613 1_554 S
S3000 N3002 1.610 1_554 S
N3001 S3000 1.613 1_556 S
N3001 C3004 1.350 . S
N3002 S3000 1.610 1_556 S
N3002 C3003 1.351 . S
C3003 C2997 1.428 . S
C3003 N3002 1.351 . S
C3003 C3004 1.434 . S
C3004 C2995 1.429 . S
C3004 N3001 1.350 . S
C3004 C3003 1.434 . S
C3005 C3006 1.369 . S
C3005 C3007 1.419 . S
C3005 H3009 0.930 . S
C3006 C3005 1.369 . S
C3006 C3015 1.429 . S
C3007 C3005 1.419 . S
C3007 C3008 1.363 . S
C3007 H3010 0.929 . S
C3008 C3007 1.363 . S
C3008 C3014 1.428 . S
H3009 C3005 0.930 . S
H3010 C3007 0.929 . S
S3011 N3012 1.613 . S
S3011 N3013 1.610 . S
N3012 S3011 1.613 . S
N3012 C3015 1.350 . S
N3013 S3011 1.610 . S
N3013 C3014 1.351 . S
C3014 C3008 1.428 . S
C3014 N3013 1.351 . S
C3014 C3015 1.434 . S
C3015 C3006 1.429 . S
C3015 N3012 1.350 . S
C3015 C3014 1.434 . S
C3016 C3017 1.369 . S
C3016 C3018 1.419 . S
C3016 H3020 0.930 . S
C3017 C3016 1.369 . S
C3017 C3026 1.429 . S
C3018 C3016 1.419 . S
C3018 C3019 1.363 . S
C3018 H3021 0.929 . S
C3019 C3018 1.363 . S
C3019 C3025 1.428 . S
H3020 C3016 0.930 . S
H3021 C3018 0.929 . S
S3022 N3023 1.613 . S
S3022 N3024 1.610 . S
N3023 S3022 1.613 . S
N3023 C3026 1.350 . S
N3024 S3022 1.610 . S
N3024 C3025 1.351 . S
C3025 C3019 1.428 . S
C3025 N3024 1.351 . S
C3025 C3026 1.434 . S
C3026 C3017 1.429 . S
C3026 N3023 1.350 . S
C3026 C3025 1.434 . S
C3027 C3028 1.369 . S
C3027 C3029 1.419 . S
C3027 H3031 0.930 . S
C3028 C3027 1.369 . S
C3028 C3037 1.429 . S
C3029 C3027 1.419 . S
C3029 C3030 1.363 . S
C3029 H3032 0.929 . S
C3030 C3029 1.363 . S
C3030 C3036 1.428 . S
H3031 C3027 0.930 . S
H3032 C3029 0.929 . S
S3033 N3034 1.613 . S
S3033 N3035 1.610 . S
N3034 S3033 1.613 . S
N3034 C3037 1.350 . S
N3035 S3033 1.610 . S
N3035 C3036 1.351 . S
C3036 C3030 1.428 . S
C3036 N3035 1.351 . S
C3036 C3037 1.434 . S
C3037 C3028 1.429 . S
C3037 N3034 1.350 . S
C3037 C3036 1.434 . S
C3038 C3039 1.369 . S
C3038 C3040 1.419 . S
C3038 H3042 0.930 . S
C3039 C3038 1.369 . S
C3039 C3048 1.429 . S
C3040 C3038 1.419 . S
C3040 C3041 1.363 . S
C3040 H3043 0.929 . S
C3041 C3040 1.363 . S
C3041 C3047 1.428 . S
H3042 C3038 0.930 . S
H3043 C3040 0.929 . S
S3044 N3045 1.613 . S
S3044 N3046 1.610 . S
N3045 S3044 1.613 . S
N3045 C3048 1.350 . S
N3046 S3044 1.610 . S
N3046 C3047 1.351 . S
C3047 C3041 1.428 . S
C3047 N3046 1.351 . S
C3047 C3048 1.434 . S
C3048 C3039 1.429 . S
C3048 N3045 1.350 . S
C3048 C3047 1.434 . S
C3049 C3050 1.369 . S
C3049 C3051 1.419 . S
C3049 H3053 0.930 . S
C3050 C3049 1.369 . S
C3050 C3059 1.429 . S
C3051 C3049 1.419 . S
C3051 C3052 1.363 . S
C3051 H3054 0.929 . S
C3052 C3051 1.363 . S
C3052 C3058 1.428 . S
H3053 C3049 0.930 . S
H3054 C3051 0.929 . S
S3055 N3056 1.613 . S
S3055 N3057 1.610 . S
N3056 S3055 1.613 . S
N3056 C3059 1.350 . S
N3057 S3055 1.610 . S
N3057 C3058 1.351 . S
C3058 C3052 1.428 . S
C3058 N3057 1.351 . S
C3058 C3059 1.434 . S
C3059 C3050 1.429 . S
C3059 N3056 1.350 . S
C3059 C3058 1.434 . S
C3060 C3061 1.369 . S
C3060 C3062 1.419 . S
C3060 H3064 0.930 . S
C3061 C3060 1.369 . S
C3061 C3070 1.429 . S
C3062 C3060 1.419 . S
C3062 C3063 1.363 . S
C3062 H3065 0.929 . S
C3063 C3062 1.363 . S
C3063 C3069 1.428 . S
H3064 C3060 0.930 . S
H3065 C3062 0.929 . S
S3066 N3067 1.613 . S
S3066 N3068 1.610 . S
N3067 S3066 1.613 . S
N3067 C3070 1.350 . S
N3068 S3066 1.610 . S
N3068 C3069 1.351 . S
C3069 C3063 1.428 . S
C3069 N3068 1.351 . S
C3069 C3070 1.434 . S
C3070 C3061 1.429 . S
C3070 N3067 1.350 . S
C3070 C3069 1.434 . S
C3071 C3072 1.369 . S
C3071 C3073 1.419 . S
C3071 H3075 0.930 . S
C3072 C3071 1.369 . S
C3072 C3081 1.429 . S
C3073 C3071 1.419 . S
C3073 C3074 1.363 . S
C3073 H3076 0.929 . S
C3074 C3073 1.363 . S
C3074 C3080 1.428 . S
H3075 C3071 0.930 . S
H3076 C3073 0.929 . S
S3077 N3078 1.613 . S
S3077 N3079 1.610 . S
N3078 S3077 1.613 . S
N3078 C3081 1.350 . S
N3079 S3077 1.610 . S
N3079 C3080 1.351 . S
C3080 C3074 1.428 . S
C3080 N3079 1.351 . S
C3080 C3081 1.434 . S
C3081 C3072 1.429 . S
C3081 N3078 1.350 . S
C3081 C3080 1.434 . S
C3082 C3083 1.369 . S
C3082 C3084 1.419 . S
C3082 H3086 0.930 . S
C3083 C3082 1.369 . S
C3083 C3092 1.429 . S
C3084 C3082 1.419 . S
C3084 C3085 1.363 . S
C3084 H3087 0.929 . S
C3085 C3084 1.363 . S
C3085 C3091 1.428 . S
H3086 C3082 0.930 . S
H3087 C3084 0.929 . S
S3088 N3089 1.613 . S
S3088 N3090 1.610 . S
N3089 S3088 1.613 . S
N3089 C3092 1.350 . S
N3090 S3088 1.610 . S
N3090 C3091 1.351 . S
C3091 C3085 1.428 . S
C3091 N3090 1.351 . S
C3091 C3092 1.434 . S
C3092 C3083 1.429 . S
C3092 N3089 1.350 . S
C3092 C3091 1.434 . S
C3093 C3094 1.369 . S
C3093 C3095 1.419 . S
C3093 H3097 0.930 . S
C3094 C3093 1.369 . S
C3094 C3103 1.429 . S
C3095 C3093 1.419 . S
C3095 C3096 1.363 . S
C3095 H3098 0.929 . S
C3096 C3095 1.363 . S
C3096 C3102 1.428 . S
H3097 C3093 0.930 . S
H3098 C3095 0.929 . S
S3099 N3100 1.613 . S
S3099 N3101 1.610 . S
N3100 S3099 1.613 . S
N3100 C3103 1.350 . S
N3101 S3099 1.610 . S
N3101 C3102 1.351 . S
C3102 C3096 1.428 . S
C3102 N3101 1.351 . S
C3102 C3103 1.434 . S
C3103 C3094 1.429 . S
C3103 N3100 1.350 . S
C3103 C3102 1.434 . S
C3104 C3105 1.369 . S
C3104 C3106 1.419 . S
C3104 H3108 0.930 . S
C3105 C3104 1.369 . S
C3105 C3114 1.429 . S
C3106 C3104 1.419 . S
C3106 C3107 1.363 . S
C3106 H3109 0.929 . S
C3107 C3106 1.363 . S
C3107 C3113 1.428 . S
H3108 C3104 0.930 . S
H3109 C3106 0.929 . S
S3110 N3111 1.613 . S
S3110 N3112 1.610 . S
N3111 S3110 1.613 . S
N3111 C3114 1.350 . S
N3112 S3110 1.610 . S
N3112 C3113 1.351 . S
C3113 C3107 1.428 . S
C3113 N3112 1.351 . S
C3113 C3114 1.434 . S
C3114 C3105 1.429 . S
C3114 N3111 1.350 . S
C3114 C3113 1.434 . S
C3115 C3116 1.369 . S
C3115 C3117 1.419 . S
C3115 H3119 0.930 . S
C3116 C3115 1.369 . S
C3116 C3125 1.429 . S
C3117 C3115 1.419 . S
C3117 C3118 1.363 . S
C3117 H3120 0.929 . S
C3118 C3117 1.363 . S
C3118 C3124 1.428 . S
H3119 C3115 0.930 . S
H3120 C3117 0.929 . S
S3121 N3122 1.613 1_545 S
S3121 N3123 1.610 1_545 S
N3122 S3121 1.613 1_565 S
N3122 C3125 1.350 . S
N3123 S3121 1.610 1_565 S
N3123 C3124 1.351 . S
C3124 C3118 1.428 . S
C3124 N3123 1.351 . S
C3124 C3125 1.434 . S
C3125 C3116 1.429 . S
C3125 N3122 1.350 . S
C3125 C3124 1.434 . S
C3126 C3127 1.369 . S
C3126 C3128 1.419 . S
C3126 H3130 0.930 . S
C3127 C3126 1.369 . S
C3127 C3136 1.429 . S
C3128 C3126 1.419 . S
C3128 C3129 1.363 . S
C3128 H3131 0.929 . S
C3129 C3128 1.363 . S
C3129 C3135 1.428 . S
H3130 C3126 0.930 . S
H3131 C3128 0.929 . S
S3132 N3133 1.613 . S
S3132 N3134 1.610 . S
N3133 S3132 1.613 . S
N3133 C3136 1.350 . S
N3134 S3132 1.610 . S
N3134 C3135 1.351 . S
C3135 C3129 1.428 . S
C3135 N3134 1.351 . S
C3135 C3136 1.434 . S
C3136 C3127 1.429 . S
C3136 N3133 1.350 . S
C3136 C3135 1.434 . S
C3137 C3138 1.369 . S
C3137 C3139 1.419 . S
C3137 H3141 0.930 . S
C3138 C3137 1.369 . S
C3138 C3147 1.429 . S
C3139 C3137 1.419 . S
C3139 C3140 1.363 . S
C3139 H3142 0.929 . S
C3140 C3139 1.363 . S
C3140 C3146 1.428 . S
H3141 C3137 0.930 . S
H3142 C3139 0.929 . S
S3143 N3144 1.613 . S
S3143 N3145 1.610 . S
N3144 S3143 1.613 . S
N3144 C3147 1.350 . S
N3145 S3143 1.610 . S
N3145 C3146 1.351 . S
C3146 C3140 1.428 . S
C3146 N3145 1.351 . S
C3146 C3147 1.434 . S
C3147 C3138 1.429 . S
C3147 N3144 1.350 . S
C3147 C3146 1.434 . S
C3148 C3149 1.369 . S
C3148 C3150 1.419 . S
C3148 H3152 0.930 . S
C3149 C3148 1.369 . S
C3149 C3158 1.429 . S
C3150 C3148 1.419 . S
C3150 C3151 1.363 . S
C3150 H3153 0.929 . S
C3151 C3150 1.363 . S
C3151 C3157 1.428 . S
H3152 C3148 0.930 . S
H3153 C3150 0.929 . S
S3154 N3155 1.613 . S
S3154 N3156 1.610 . S
N3155 S3154 1.613 . S
N3155 C3158 1.350 . S
N3156 S3154 1.610 . S
N3156 C3157 1.351 . S
C3157 C3151 1.428 . S
C3157 N3156 1.351 . S
C3157 C3158 1.434 . S
C3158 C3149 1.429 . S
C3158 N3155 1.350 . S
C3158 C3157 1.434 . S
C3159 C3160 1.369 . S
C3159 C3161 1.419 . S
C3159 H3163 0.930 . S
C3160 C3159 1.369 . S
C3160 C3169 1.429 . S
C3161 C3159 1.419 . S
C3161 C3162 1.363 . S
C3161 H3164 0.929 . S
C3162 C3161 1.363 . S
C3162 C3168 1.428 . S
H3163 C3159 0.930 . S
H3164 C3161 0.929 . S
S3165 N3166 1.613 . S
S3165 N3167 1.610 . S
N3166 S3165 1.613 . S
N3166 C3169 1.350 . S
N3167 S3165 1.610 . S
N3167 C3168 1.351 . S
C3168 C3162 1.428 . S
C3168 N3167 1.351 . S
C3168 C3169 1.434 . S
C3169 C3160 1.429 . S
C3169 N3166 1.350 . S
C3169 C3168 1.434 . S
C3170 C3171 1.369 . S
C3170 C3172 1.419 . S
C3170 H3174 0.930 . S
C3171 C3170 1.369 . S
C3171 C3180 1.429 . S
C3172 C3170 1.419 . S
C3172 C3173 1.363 . S
C3172 H3175 0.929 . S
C3173 C3172 1.363 . S
C3173 C3179 1.428 . S
H3174 C3170 0.930 . S
H3175 C3172 0.929 . S
S3176 N3177 1.613 . S
S3176 N3178 1.610 . S
N3177 S3176 1.613 . S
N3177 C3180 1.350 . S
N3178 S3176 1.610 . S
N3178 C3179 1.351 . S
C3179 C3173 1.428 . S
C3179 N3178 1.351 . S
C3179 C3180 1.434 . S
C3180 C3171 1.429 . S
C3180 N3177 1.350 . S
C3180 C3179 1.434 . S
C3181 C3182 1.369 . S
C3181 C3183 1.419 . S
C3181 H3185 0.930 . S
C3182 C3181 1.369 . S
C3182 C3191 1.429 . S
C3183 C3181 1.419 . S
C3183 C3184 1.363 . S
C3183 H3186 0.929 . S
C3184 C3183 1.363 . S
C3184 C3190 1.428 . S
H3185 C3181 0.930 . S
H3186 C3183 0.929 . S
S3187 N3188 1.613 . S
S3187 N3189 1.610 . S
N3188 S3187 1.613 . S
N3188 C3191 1.350 . S
N3189 S3187 1.610 . S
N3189 C3190 1.351 . S
C3190 C3184 1.428 . S
C3190 N3189 1.351 . S
C3190 C3191 1.434 . S
C3191 C3182 1.429 . S
C3191 N3188 1.350 . S
C3191 C3190 1.434 . S
C3192 C3193 1.369 . S
C3192 C3194 1.419 . S
C3192 H3196 0.930 . S
C3193 C3192 1.369 . S
C3193 C3202 1.429 . S
C3194 C3192 1.419 . S
C3194 C3195 1.363 . S
C3194 H3197 0.929 . S
C3195 C3194 1.363 . S
C3195 C3201 1.428 . S
H3196 C3192 0.930 . S
H3197 C3194 0.929 . S
S3198 N3199 1.613 1_556 S
S3198 N3200 1.610 1_556 S
N3199 S3198 1.613 1_554 S
N3199 C3202 1.350 . S
N3200 S3198 1.610 1_554 S
N3200 C3201 1.351 . S
C3201 C3195 1.428 . S
C3201 N3200 1.351 . S
C3201 C3202 1.434 . S
C3202 C3193 1.429 . S
C3202 N3199 1.350 . S
C3202 C3201 1.434 . S
C3203 C3204 1.369 . S
C3203 C3205 1.419 . S
C3203 H3207 0.930 . S
C3204 C3203 1.369 . S
C3204 C3213 1.429 . S
C3205 C3203 1.419 . S
C3205 C3206 1.363 . S
C3205 H3208 0.929 . S
C3206 C3205 1.363 . S
C3206 C3212 1.428 . S
H3207 C3203 0.930 . S
H3208 C3205 0.929 . S
S3209 N3210 1.613 . S
S3209 N3211 1.610 . S
N3210 S3209 1.613 . S
N3210 C3213 1.350 . S
N3211 S3209 1.610 . S
N3211 C3212 1.351 . S
C3212 C3206 1.428 . S
C3212 N3211 1.351 . S
C3212 C3213 1.434 . S
C3213 C3204 1.429 . S
C3213 N3210 1.350 . S
C3213 C3212 1.434 . S
C3214 C3215 1.369 . S
C3214 C3216 1.419 . S
C3214 H3218 0.930 . S
C3215 C3214 1.369 . S
C3215 C3224 1.429 . S
C3216 C3214 1.419 . S
C3216 C3217 1.363 . S
C3216 H3219 0.929 . S
C3217 C3216 1.363 . S
C3217 C3223 1.428 . S
H3218 C3214 0.930 . S
H3219 C3216 0.929 . S
S3220 N3221 1.613 . S
S3220 N3222 1.610 . S
N3221 S3220 1.613 . S
N3221 C3224 1.350 . S
N3222 S3220 1.610 . S
N3222 C3223 1.351 . S
C3223 C3217 1.428 . S
C3223 N3222 1.351 . S
C3223 C3224 1.434 . S
C3224 C3215 1.429 . S
C3224 N3221 1.350 . S
C3224 C3223 1.434 . S
C3225 C3226 1.369 . S
C3225 C3227 1.419 . S
C3225 H3229 0.930 . S
C3226 C3225 1.369 . S
C3226 C3235 1.429 . S
C3227 C3225 1.419 . S
C3227 C3228 1.363 . S
C3227 H3230 0.929 . S
C3228 C3227 1.363 . S
C3228 C3234 1.428 . S
H3229 C3225 0.930 . S
H3230 C3227 0.929 . S
S3231 N3232 1.613 . S
S3231 N3233 1.610 . S
N3232 S3231 1.613 . S
N3232 C3235 1.350 . S
N3233 S3231 1.610 . S
N3233 C3234 1.351 . S
C3234 C3228 1.428 . S
C3234 N3233 1.351 . S
C3234 C3235 1.434 . S
C3235 C3226 1.429 . S
C3235 N3232 1.350 . S
C3235 C3234 1.434 . S
C3236 C3237 1.369 . S
C3236 C3238 1.419 . S
C3236 H3240 0.930 . S
C3237 C3236 1.369 . S
C3237 C3246 1.429 . S
C3238 C3236 1.419 . S
C3238 C3239 1.363 . S
C3238 H3241 0.929 . S
C3239 C3238 1.363 . S
C3239 C3245 1.428 . S
H3240 C3236 0.930 . S
H3241 C3238 0.929 . S
S3242 N3243 1.613 . S
S3242 N3244 1.610 . S
N3243 S3242 1.613 . S
N3243 C3246 1.350 . S
N3244 S3242 1.610 . S
N3244 C3245 1.351 . S
C3245 C3239 1.428 . S
C3245 N3244 1.351 . S
C3245 C3246 1.434 . S
C3246 C3237 1.429 . S
C3246 N3243 1.350 . S
C3246 C3245 1.434 . S
C3247 C3248 1.369 . S
C3247 C3249 1.419 . S
C3247 H3251 0.930 . S
C3248 C3247 1.369 . S
C3248 C3257 1.429 . S
C3249 C3247 1.419 . S
C3249 C3250 1.363 . S
C3249 H3252 0.929 . S
C3250 C3249 1.363 . S
C3250 C3256 1.428 . S
H3251 C3247 0.930 . S
H3252 C3249 0.929 . S
S3253 N3254 1.613 . S
S3253 N3255 1.610 . S
N3254 S3253 1.613 . S
N3254 C3257 1.350 . S
N3255 S3253 1.610 . S
N3255 C3256 1.351 . S
C3256 C3250 1.428 . S
C3256 N3255 1.351 . S
C3256 C3257 1.434 . S
C3257 C3248 1.429 . S
C3257 N3254 1.350 . S
C3257 C3256 1.434 . S
C3258 C3259 1.369 . S
C3258 C3260 1.419 . S
C3258 H3262 0.930 . S
C3259 C3258 1.369 . S
C3259 C3268 1.429 . S
C3260 C3258 1.419 . S
C3260 C3261 1.363 . S
C3260 H3263 0.929 . S
C3261 C3260 1.363 . S
C3261 C3267 1.428 . S
H3262 C3258 0.930 . S
H3263 C3260 0.929 . S
S3264 N3265 1.613 . S
S3264 N3266 1.610 . S
N3265 S3264 1.613 . S
N3265 C3268 1.350 . S
N3266 S3264 1.610 . S
N3266 C3267 1.351 . S
C3267 C3261 1.428 . S
C3267 N3266 1.351 . S
C3267 C3268 1.434 . S
C3268 C3259 1.429 . S
C3268 N3265 1.350 . S
C3268 C3267 1.434 . S
C3269 C3270 1.369 . S
C3269 C3271 1.419 . S
C3269 H3273 0.930 . S
C3270 C3269 1.369 . S
C3270 C3279 1.429 . S
C3271 C3269 1.419 . S
C3271 C3272 1.363 . S
C3271 H3274 0.929 . S
C3272 C3271 1.363 . S
C3272 C3278 1.428 . S
H3273 C3269 0.930 . S
H3274 C3271 0.929 . S
S3275 N3276 1.613 . S
S3275 N3277 1.610 . S
N3276 S3275 1.613 . S
N3276 C3279 1.350 . S
N3277 S3275 1.610 . S
N3277 C3278 1.351 . S
C3278 C3272 1.428 . S
C3278 N3277 1.351 . S
C3278 C3279 1.434 . S
C3279 C3270 1.429 . S
C3279 N3276 1.350 . S
C3279 C3278 1.434 . S
C3280 C3281 1.369 . S
C3280 C3282 1.419 . S
C3280 H3284 0.930 . S
C3281 C3280 1.369 . S
C3281 C3290 1.429 . S
C3282 C3280 1.419 . S
C3282 C3283 1.363 . S
C3282 H3285 0.929 . S
C3283 C3282 1.363 . S
C3283 C3289 1.428 . S
H3284 C3280 0.930 . S
H3285 C3282 0.929 . S
S3286 N3287 1.613 . S
S3286 N3288 1.610 . S
N3287 S3286 1.613 . S
N3287 C3290 1.350 . S
N3288 S3286 1.610 . S
N3288 C3289 1.351 . S
C3289 C3283 1.428 . S
C3289 N3288 1.351 . S
C3289 C3290 1.434 . S
C3290 C3281 1.429 . S
C3290 N3287 1.350 . S
C3290 C3289 1.434 . S
C3291 C3292 1.369 . S
C3291 C3293 1.419 . S
C3291 H3295 0.930 . S
C3292 C3291 1.369 . S
C3292 C3301 1.429 . S
C3293 C3291 1.419 . S
C3293 C3294 1.363 . S
C3293 H3296 0.929 . S
C3294 C3293 1.363 . S
C3294 C3300 1.428 . S
H3295 C3291 0.930 . S
H3296 C3293 0.929 . S
S3297 N3298 1.613 . S
S3297 N3299 1.610 . S
N3298 S3297 1.613 . S
N3298 C3301 1.350 . S
N3299 S3297 1.610 . S
N3299 C3300 1.351 . S
C3300 C3294 1.428 . S
C3300 N3299 1.351 . S
C3300 C3301 1.434 . S
C3301 C3292 1.429 . S
C3301 N3298 1.350 . S
C3301 C3300 1.434 . S
C3302 C3303 1.369 . S
C3302 C3304 1.419 . S
C3302 H3306 0.930 . S
C3303 C3302 1.369 . S
C3303 C3312 1.429 . S
C3304 C3302 1.419 . S
C3304 C3305 1.363 . S
C3304 H3307 0.929 . S
C3305 C3304 1.363 . S
C3305 C3311 1.428 . S
H3306 C3302 0.930 . S
H3307 C3304 0.929 . S
S3308 N3309 1.613 . S
S3308 N3310 1.610 . S
N3309 S3308 1.613 . S
N3309 C3312 1.350 . S
N3310 S3308 1.610 . S
N3310 C3311 1.351 . S
C3311 C3305 1.428 . S
C3311 N3310 1.351 . S
C3311 C3312 1.434 . S
C3312 C3303 1.429 . S
C3312 N3309 1.350 . S
C3312 C3311 1.434 . S
C3313 C3314 1.369 . S
C3313 C3315 1.419 . S
C3313 H3317 0.930 . S
C3314 C3313 1.369 . S
C3314 C3323 1.429 . S
C3315 C3313 1.419 . S
C3315 C3316 1.363 . S
C3315 H3318 0.929 . S
C3316 C3315 1.363 . S
C3316 C3322 1.428 . S
H3317 C3313 0.930 . S
H3318 C3315 0.929 . S
S3319 N3320 1.613 . S
S3319 N3321 1.610 . S
N3320 S3319 1.613 . S
N3320 C3323 1.350 . S
N3321 S3319 1.610 . S
N3321 C3322 1.351 . S
C3322 C3316 1.428 . S
C3322 N3321 1.351 . S
C3322 C3323 1.434 . S
C3323 C3314 1.429 . S
C3323 N3320 1.350 . S
C3323 C3322 1.434 . S
C3324 C3325 1.369 . S
C3324 C3326 1.419 . S
C3324 H3328 0.930 . S
C3325 C3324 1.369 . S
C3325 C3334 1.429 . S
C3326 C3324 1.419 . S
C3326 C3327 1.363 . S
C3326 H3329 0.929 . S
C3327 C3326 1.363 . S
C3327 C3333 1.428 . S
H3328 C3324 0.930 . S
H3329 C3326 0.929 . S
S3330 N3331 1.613 . S
S3330 N3332 1.610 . S
N3331 S3330 1.613 . S
N3331 C3334 1.350 . S
N3332 S3330 1.610 . S
N3332 C3333 1.351 . S
C3333 C3327 1.428 . S
C3333 N3332 1.351 . S
C3333 C3334 1.434 . S
C3334 C3325 1.429 . S
C3334 N3331 1.350 . S
C3334 C3333 1.434 . S
C3335 C3336 1.369 . S
C3335 C3337 1.419 . S
C3335 H3339 0.930 . S
C3336 C3335 1.369 . S
C3336 C3345 1.429 . S
C3337 C3335 1.419 . S
C3337 C3338 1.363 . S
C3337 H3340 0.929 . S
C3338 C3337 1.363 . S
C3338 C3344 1.428 . S
H3339 C3335 0.930 . S
H3340 C3337 0.929 . S
S3341 N3342 1.613 . S
S3341 N3343 1.610 . S
N3342 S3341 1.613 . S
N3342 C3345 1.350 . S
N3343 S3341 1.610 . S
N3343 C3344 1.351 . S
C3344 C3338 1.428 . S
C3344 N3343 1.351 . S
C3344 C3345 1.434 . S
C3345 C3336 1.429 . S
C3345 N3342 1.350 . S
C3345 C3344 1.434 . S
C3346 C3347 1.369 . S
C3346 C3348 1.419 . S
C3346 H3350 0.930 . S
C3347 C3346 1.369 . S
C3347 C3356 1.429 . S
C3348 C3346 1.419 . S
C3348 C3349 1.363 . S
C3348 H3351 0.929 . S
C3349 C3348 1.363 . S
C3349 C3355 1.428 . S
H3350 C3346 0.930 . S
H3351 C3348 0.929 . S
S3352 N3353 1.613 . S
S3352 N3354 1.610 . S
N3353 S3352 1.613 . S
N3353 C3356 1.350 . S
N3354 S3352 1.610 . S
N3354 C3355 1.351 . S
C3355 C3349 1.428 . S
C3355 N3354 1.351 . S
C3355 C3356 1.434 . S
C3356 C3347 1.429 . S
C3356 N3353 1.350 . S
C3356 C3355 1.434 . S
C3357 C3358 1.369 . S
C3357 C3359 1.419 . S
C3357 H3361 0.930 . S
C3358 C3357 1.369 . S
C3358 C3367 1.429 . S
C3359 C3357 1.419 . S
C3359 C3360 1.363 . S
C3359 H3362 0.929 . S
C3360 C3359 1.363 . S
C3360 C3366 1.428 . S
H3361 C3357 0.930 . S
H3362 C3359 0.929 . S
S3363 N3364 1.613 . S
S3363 N3365 1.610 . S
N3364 S3363 1.613 . S
N3364 C3367 1.350 . S
N3365 S3363 1.610 . S
N3365 C3366 1.351 . S
C3366 C3360 1.428 . S
C3366 N3365 1.351 . S
C3366 C3367 1.434 . S
C3367 C3358 1.429 . S
C3367 N3364 1.350 . S
C3367 C3366 1.434 . S
C3368 C3369 1.369 . S
C3368 C3370 1.419 . S
C3368 H3372 0.930 . S
C3369 C3368 1.369 . S
C3369 C3378 1.429 . S
C3370 C3368 1.419 . S
C3370 C3371 1.363 . S
C3370 H3373 0.929 . S
C3371 C3370 1.363 . S
C3371 C3377 1.428 . S
H3372 C3368 0.930 . S
H3373 C3370 0.929 . S
S3374 N3375 1.613 . S
S3374 N3376 1.610 . S
N3375 S3374 1.613 . S
N3375 C3378 1.350 . S
N3376 S3374 1.610 . S
N3376 C3377 1.351 . S
C3377 C3371 1.428 . S
C3377 N3376 1.351 . S
C3377 C3378 1.434 . S
C3378 C3369 1.429 . S
C3378 N3375 1.350 . S
C3378 C3377 1.434 . S
C3379 C3380 1.369 . S
C3379 C3381 1.419 . S
C3379 H3383 0.930 . S
C3380 C3379 1.369 . S
C3380 C3389 1.429 . S
C3381 C3379 1.419 . S
C3381 C3382 1.363 . S
C3381 H3384 0.929 . S
C3382 C3381 1.363 . S
C3382 C3388 1.428 . S
H3383 C3379 0.930 . S
H3384 C3381 0.929 . S
S3385 N3386 1.613 . S
S3385 N3387 1.610 . S
N3386 S3385 1.613 . S
N3386 C3389 1.350 . S
N3387 S3385 1.610 . S
N3387 C3388 1.351 . S
C3388 C3382 1.428 . S
C3388 N3387 1.351 . S
C3388 C3389 1.434 . S
C3389 C3380 1.429 . S
C3389 N3386 1.350 . S
C3389 C3388 1.434 . S
C3390 C3391 1.369 . S
C3390 C3392 1.419 . S
C3390 H3394 0.930 . S
C3391 C3390 1.369 . S
C3391 C3400 1.429 . S
C3392 C3390 1.419 . S
C3392 C3393 1.363 . S
C3392 H3395 0.929 . S
C3393 C3392 1.363 . S
C3393 C3399 1.428 . S
H3394 C3390 0.930 . S
H3395 C3392 0.929 . S
S3396 N3397 1.613 . S
S3396 N3398 1.610 . S
N3397 S3396 1.613 . S
N3397 C3400 1.350 . S
N3398 S3396 1.610 . S
N3398 C3399 1.351 . S
C3399 C3393 1.428 . S
C3399 N3398 1.351 . S
C3399 C3400 1.434 . S
C3400 C3391 1.429 . S
C3400 N3397 1.350 . S
C3400 C3399 1.434 . S
C3401 C3402 1.369 . S
C3401 C3403 1.419 . S
C3401 H3405 0.930 . S
C3402 C3401 1.369 . S
C3402 C3411 1.429 . S
C3403 C3401 1.419 . S
C3403 C3404 1.363 . S
C3403 H3406 0.929 . S
C3404 C3403 1.363 . S
C3404 C3410 1.428 . S
H3405 C3401 0.930 . S
H3406 C3403 0.929 . S
S3407 N3408 1.566 1_565 S
S3407 N3409 1.590 1_565 S
N3408 S3407 1.566 1_545 S
N3408 C3411 1.350 . S
N3409 S3407 1.590 1_545 S
N3409 C3410 1.351 . S
C3410 C3404 1.428 . S
C3410 N3409 1.351 . S
C3410 C3411 1.434 . S
C3411 C3402 1.429 . S
C3411 N3408 1.350 . S
C3411 C3410 1.434 . S
C3412 C3413 1.369 . S
C3412 C3414 1.419 . S
C3412 H3416 0.930 . S
C3413 C3412 1.369 . S
C3413 C3422 1.429 . S
C3414 C3412 1.419 . S
C3414 C3415 1.363 . S
C3414 H3417 0.929 . S
C3415 C3414 1.363 . S
C3415 C3421 1.428 . S
H3416 C3412 0.930 . S
H3417 C3414 0.929 . S
S3418 N3419 1.613 . S
S3418 N3420 1.610 . S
N3419 S3418 1.613 . S
N3419 C3422 1.350 . S
N3420 S3418 1.610 . S
N3420 C3421 1.351 . S
C3421 C3415 1.428 . S
C3421 N3420 1.351 . S
C3421 C3422 1.434 . S
C3422 C3413 1.429 . S
C3422 N3419 1.350 . S
C3422 C3421 1.434 . S
C3423 C3424 1.369 . S
C3423 C3425 1.419 . S
C3423 H3427 0.930 . S
C3424 C3423 1.369 . S
C3424 C3433 1.429 . S
C3425 C3423 1.419 . S
C3425 C3426 1.363 . S
C3425 H3428 0.929 . S
C3426 C3425 1.363 . S
C3426 C3432 1.428 . S
H3427 C3423 0.930 . S
H3428 C3425 0.929 . S
S3429 N3430 1.613 . S
S3429 N3431 1.610 . S
N3430 S3429 1.613 . S
N3430 C3433 1.350 . S
N3431 S3429 1.610 . S
N3431 C3432 1.351 . S
C3432 C3426 1.428 . S
C3432 N3431 1.351 . S
C3432 C3433 1.434 . S
C3433 C3424 1.429 . S
C3433 N3430 1.350 . S
C3433 C3432 1.434 . S
C3434 C3435 1.369 . S
C3434 C3436 1.419 . S
C3434 H3438 0.930 . S
C3435 C3434 1.369 . S
C3435 C3444 1.429 . S
C3436 C3434 1.419 . S
C3436 C3437 1.363 . S
C3436 H3439 0.929 . S
C3437 C3436 1.363 . S
C3437 C3443 1.428 . S
H3438 C3434 0.930 . S
H3439 C3436 0.929 . S
S3440 N3441 1.613 . S
S3440 N3442 1.610 . S
N3441 S3440 1.613 . S
N3441 C3444 1.350 . S
N3442 S3440 1.610 . S
N3442 C3443 1.351 . S
C3443 C3437 1.428 . S
C3443 N3442 1.351 . S
C3443 C3444 1.434 . S
C3444 C3435 1.429 . S
C3444 N3441 1.350 . S
C3444 C3443 1.434 . S
C3445 C3446 1.369 . S
C3445 C3447 1.419 . S
C3445 H3449 0.930 . S
C3446 C3445 1.369 . S
C3446 C3455 1.429 . S
C3447 C3445 1.419 . S
C3447 C3448 1.363 . S
C3447 H3450 0.929 . S
C3448 C3447 1.363 . S
C3448 C3454 1.428 . S
H3449 C3445 0.930 . S
H3450 C3447 0.929 . S
S3451 N3452 1.613 . S
S3451 N3453 1.610 . S
N3452 S3451 1.613 . S
N3452 C3455 1.350 . S
N3453 S3451 1.610 . S
N3453 C3454 1.351 . S
C3454 C3448 1.428 . S
C3454 N3453 1.351 . S
C3454 C3455 1.434 . S
C3455 C3446 1.429 . S
C3455 N3452 1.350 . S
C3455 C3454 1.434 . S
C1345 C8 1.722 . S
C1347 C428 1.721 . S
C1356 C779 1.720 . S
C1358 C23 1.721 . S
C1367 C36 1.718 . S
C1369 C400 1.719 . S
C1378 C51 1.718 . S
C1380 C751 1.719 . S
C1389 C372 1.719 . S
C1391 C64 1.719 . S
C1400 C79 1.722 . S
C1402 C723 1.722 . S
C1411 C344 1.720 . S
C1413 C92 1.720 . S
C1422 C107 1.721 . S
C1424 C695 1.720 . S
C1433 C484 1.719 . S
C1435 C120 1.719 . S
C1444 C134 1.719 . S
C1446 C834 1.719 . S
C1455 C148 1.722 . S
C1457 C456 1.721 . S
C1466 C162 1.721 . S
C1468 C806 1.721 . S
C1477 C176 1.722 . S
C1479 C540 1.722 . S
C1488 C890 1.722 . S
C1490 C190 1.721 . S
C1499 C512 1.721 . S
C1501 C204 1.721 . S
C1510 C218 1.722 . S
C1512 C862 1.722 . S
C1521 C919 1.719 . S
C1523 C233 1.719 . S
C1532 C905 1.721 . S
C1534 C247 1.720 . S
C1543 C260 1.720 . S
C1545 C1002 1.721 . S
C1554 C1311 1.721 . S
C1556 C275 1.720 . S
C1565 C652 1.718 . S
C1567 C288 1.719 . S
C1576 C303 1.721 . S
C1578 C1283 1.721 . S
C1587 C316 1.722 . S
C1589 C624 1.721 . S
C1598 C330 1.719 . S
C1600 C932 1.719 . S
C1609 C359 1.720 . S
C1611 C1115 1.721 . S
C1620 C387 1.721 . S
C1622 C1087 1.720 . S
C1631 C415 1.720 . S
C1633 C1059 1.720 . S
C1642 C443 1.719 . S
C1644 C1031 1.720 . S
C1653 C1170 1.722 . S
C1655 C470 1.722 . S
C1664 C498 1.718 . S
C1666 C1142 1.719 . S
C1675 C1226 1.719 . S
C1677 C526 1.719 . S
C1686 C554 1.721 . S
C1688 C1198 1.721 . S
C1697 C569 1.721 . S
C1699 C1255 1.721 . S
C1708 C583 1.720 . S
C1710 C1241 1.720 . S
C1719 C596 1.720 . S
C1721 C1338 1.721 . S
C1730 C975 1.721 . S
C1732 C611 1.720 . S
C1741 C947 1.719 . S
C1743 C639 1.720 . S
C1752 C666 1.719 . S
C1754 C1268 1.719 . S
C1763 C680 1.718 . S
C1765 C1100 1.719 . S
C1774 C1072 1.719 . S
C1776 C708 1.719 . S
C1785 C736 1.720 . S
C1787 C1044 1.720 . S
C1796 C764 1.718 . S
C1798 C1016 1.719 . S
C1807 C1156 1.720 . S
C1809 C792 1.720 . S
C1818 C1128 1.720 . S
C1820 C820 1.720 . S
C1829 C848 1.718 . S
C1831 C1212 1.719 . S
C1840 C1184 1.720 . S
C1842 C876 1.720 . S
C1851 C960 1.721 . S
C1853 C1324 1.721 . S
C1862 C988 1.720 . S
C1864 C1296 1.720 . S
C1873 C6 1.434 1_655 S
C1875 C777 1.434 . S
C1884 C21 1.434 . S
C1886 C398 1.433 1_655 S
C1895 C34 1.434 1_455 S
C1897 C749 1.433 . S
C1906 C426 1.434 1_455 S
C1908 C49 1.432 . S
C1917 C62 1.433 1_655 S
C1919 C357 1.434 . S
C1928 C77 1.431 . S
C1930 C706 1.433 . S
C1939 C90 1.433 1_455 S
C1941 C385 1.432 . S
C1950 C678 1.434 . S
C1952 C105 1.433 . S
C1961 C118 1.432 1_565 S
C1963 C286 1.434 . S
C1972 C132 1.432 . S
C1974 C1253 1.432 . S
C1983 C1266 1.431 . S
C1985 C146 1.433 . S
C1994 C160 1.432 . S
C1996 C1281 1.434 1_554 S
C2005 C1000 1.434 . S
C2007 C174 1.434 1_545 S
C2016 C1309 1.433 1_556 S
C2018 C188 1.432 . S
C2027 C202 1.433 . S
C2029 C986 1.434 . S
C2038 C903 1.432 . S
C2040 C216 1.432 . S
C2049 C888 1.431 . S
C2051 C231 1.432 1_556 S
C2060 C1140 1.433 . S
C2062 C245 1.434 . S
C2071 C258 1.433 . S
C2073 C1154 1.432 1_545 S
C2082 C273 1.432 1_554 S
C2084 C1168 1.432 . S
C2093 C301 1.432 1_556 S
C2095 C1196 1.434 . S
C2104 C314 1.434 . S
C2106 C874 1.432 . S
C2115 C846 1.434 1_545 S
C2117 C328 1.432 . S
C2126 C342 1.434 1_655 S
C2128 C1113 1.432 . S
C2137 C1085 1.432 . S
C2139 C370 1.434 1_455 S
C2148 C1042 1.434 . S
C2150 C413 1.434 . S
C2159 C441 1.432 . S
C2161 C1014 1.434 . S
C2170 C454 1.432 . S
C2172 C622 1.432 . S
C2181 C468 1.432 . S
C2183 C917 1.432 1_554 S
C2192 C482 1.433 1_545 S
C2194 C930 1.434 . S
C2203 C496 1.431 . S
C2205 C945 1.433 . S
C2214 C510 1.431 . S
C2216 C1336 1.432 . S
C2225 C973 1.432 . S
C2227 C524 1.432 . S
C2236 C1322 1.431 . S
C2238 C538 1.433 1_565 S
C2247 C1239 1.434 1_556 S
C2249 C552 1.432 . S
C2258 C1224 1.434 . S
C2260 C567 1.434 . S
C2269 C581 1.433 1_554 S
C2271 C804 1.434 . S
C2280 C594 1.434 . S
C2282 C818 1.433 . S
C2291 C609 1.432 . S
C2293 C832 1.432 . S
C2302 C860 1.431 . S
C2304 C637 1.432 . S
C2313 C1210 1.433 1_565 S
C2315 C650 1.434 . S
C2324 C1182 1.431 . S
C2326 C664 1.432 . S
C2335 C693 1.433 . S
C2337 C1070 1.432 . S
C2346 C721 1.434 . S
C2348 C1098 1.433 . S
C2357 C1029 1.431 . S
C2359 C734 1.433 . S
C2368 C1057 1.434 . S
C2370 C762 1.432 . S
C2379 C958 1.434 . S
C2381 C790 1.433 1_565 S
C2390 C1294 1.434 . S
C2392 C1126 1.433 . S
C2401 C9 1.109 . S
C2403 C1308 1.204 . S
C2412 C22 1.102 . S
C2414 C987 1.202 . S
C2423 C902 1.209 . S
C2425 C37 1.117 . S
C2434 C1001 1.207 . S
C2436 C50 1.113 . S
C2445 C65 1.111 . S
C2447 C272 1.206 . S
C2456 C78 1.104 . S
C2458 C1295 1.203 . S
C2467 C244 1.205 . S
C2469 C93 1.110 . S
C2478 C259 1.207 . S
C2480 C106 1.114 . S
C2489 C399 1.204 . S
C2491 C121 1.108 . S
C2500 C135 1.111 . S
C2502 C748 1.205 . S
C2511 C149 1.105 . S
C2513 C427 1.203 . S
C2522 C163 1.115 . S
C2524 C776 1.207 . S
C2533 C343 1.204 . S
C2535 C177 1.107 . S
C2544 C191 1.107 . S
C2546 C692 1.204 . S
C2555 C371 1.204 . S
C2557 C205 1.108 . S
C2566 C219 1.114 . S
C2568 C720 1.207 . S
C2577 C232 1.119 . S
C2579 C1211 1.208 . S
C2588 C483 1.202 . S
C2590 C246 1.104 . S
C2599 C261 1.101 . S
C2601 C833 1.202 . S
C2610 C455 1.201 . S
C2612 C274 1.104 . S
C2621 C289 1.115 . S
C2623 C469 1.207 . S
C2632 C847 1.209 . S
C2634 C302 1.116 . S
C2643 C189 1.205 . S
C2645 C317 1.111 . S
C2654 C217 1.204 . S
C2656 C331 1.107 . S
C2665 C972 1.209 . S
C2667 C345 1.117 . S
C2676 C358 1.111 . S
C2678 C1323 1.206 . S
C2687 C1238 1.202 . S
C2689 C373 1.104 . S
C2698 C386 1.102 . S
C2700 C1337 1.202 . S
C2709 C608 1.202 . S
C2711 C401 1.106 . S
C2720 C959 1.201 . S
C2722 C414 1.103 . S
C2731 C429 1.110 . S
C2733 C580 1.205 . S
C2742 C442 1.110 . S
C2744 C595 1.205 . S
C2753 C457 1.108 . S
C2755 C63 1.204 . S
C2764 C471 1.113 . S
C2766 C1084 1.206 . S
C2775 C91 1.201 . S
C2777 C485 1.103 . S
C2786 C499 1.109 . S
C2788 C1112 1.204 . S
C2797 C7 1.207 . S
C2799 C513 1.113 . S
C2808 C527 1.108 . S
C2810 C1028 1.205 . S
C2819 C35 1.209 . S
C2821 C541 1.116 . S
C2830 C1056 1.205 . S
C2832 C555 1.110 . S
C2841 C568 1.102 . S
C2843 C875 1.202 . S
C2852 C582 1.118 . S
C2854 C147 1.208 . S
C2863 C1169 1.202 . S
C2865 C597 1.105 . S
C2874 C610 1.101 . S
C2876 C119 1.202 . S
C2885 C133 1.209 . S
C2887 C625 1.117 . S
C2896 C638 1.109 . S
C2898 C1183 1.205 . S
C2907 C525 1.201 . S
C2909 C653 1.102 . S
C2918 C667 1.104 . S
C2920 C553 1.203 . S
C2929 C636 1.207 . S
C2931 C681 1.113 . S
C2940 C694 1.111 . S
C2942 C315 1.206 . S
C2951 C709 1.118 . S
C2953 C230 1.208 . S
C2962 C722 1.119 . S
C2964 C329 1.208 . S
C2973 C737 1.104 . S
C2975 C944 1.203 . S
C2984 C623 1.202 . S
C2986 C750 1.104 . S
C2995 C916 1.205 . S
C2997 C765 1.111 . S
C3006 C778 1.101 . S
C3008 C931 1.202 . S
C3017 C1071 1.207 . S
C3019 C793 1.112 . S
C3028 C76 1.207 . S
C3030 C807 1.113 . S
C3039 C1099 1.205 . S
C3041 C821 1.109 . S
C3050 C835 1.116 . S
C3052 C104 1.207 . S
C3061 C1015 1.201 . S
C3063 C849 1.102 . S
C3072 C863 1.116 . S
C3074 C20 1.207 . S
C3083 C1043 1.206 . S
C3085 C877 1.113 . S
C3094 C48 1.207 . S
C3096 C891 1.112 . S
C3105 C539 1.201 . S
C3107 C904 1.103 . S
C3116 C918 1.116 . S
C3118 C1155 1.207 . S
C3127 C933 1.100 . S
C3129 C161 1.202 . S
C3138 C1127 1.205 . S
C3140 C946 1.112 . S
C3149 C961 1.111 . S
C3151 C1141 1.205 . S
C3160 C175 1.201 . S
C3162 C974 1.103 . S
C3171 C861 1.207 . S
C3173 C989 1.112 . S
C3182 C1003 1.102 . S
C3184 C889 1.202 . S
C3193 C1017 1.114 . S
C3195 C300 1.206 . S
C3204 C651 1.209 . S
C3206 C1030 1.116 . S
C3215 C566 1.203 . S
C3217 C1045 1.106 . S
C3226 C1058 1.105 . S
C3228 C665 1.203 . S
C3237 C1073 1.107 . S
C3239 C1280 1.204 . S
C3248 C287 1.208 . S
C3250 C1086 1.115 . S
C3259 C1252 1.207 . S
C3261 C1101 1.115 . S
C3270 C1267 1.203 . S
C3272 C1114 1.108 . S
C3281 C735 1.209 . S
C3283 C1129 1.117 . S
C3292 C1143 1.110 . S
C3294 C412 1.205 . S
C3303 C1157 1.104 . S
C3305 C763 1.203 . S
C3314 C1171 1.119 . S
C3316 C440 1.208 . S
C3325 C679 1.209 . S
C3327 C1185 1.117 . S
C3336 C1199 1.103 . S
C3338 C356 1.202 . S
C3347 C1213 1.103 . S
C3349 C707 1.202 . S
C3358 C1227 1.119 . S
C3360 C384 1.208 . S
C3369 C203 1.208 . S
C3371 C1240 1.116 . S
C3380 C1254 1.106 . S
C3382 C819 1.204 . S
C3391 C1269 1.107 . S
C3393 C497 1.204 . S
C3402 C1282 1.114 . S
C3404 C791 1.206 . S
C3413 C1297 1.118 . S
C3415 C805 1.208 . S
C3424 C511 1.204 . S
C3426 C1310 1.107 . S
C3435 C1197 1.202 . S
C3437 C1325 1.105 . S
C3446 C1225 1.206 . S
C3448 C1339 1.113 . S
