# Generated by pormake.
# Topology ukb, (4)-cn, num edge types: 1
# Building blocks:
#     Node 0, Type 0, BuildingBlock: QUQFOY_clean_sbu_1, # of connection points: 4
#     Node 1, Type 0, BuildingBlock: QUQFOY_clean_sbu_1, # of connection points: 4
#     Node 2, Type 0, BuildingBlock: QUQFOY_clean_sbu_1, # of connection points: 4
#     Node 3, Type 0, BuildingBlock: QUQFOY_clean_sbu_1, # of connection points: 4
#     Node 4, Type 0, BuildingBlock: QUQFOY_clean_sbu_1, # of connection points: 4
#     Node 5, Type 0, BuildingBlock: QUQFOY_clean_sbu_1, # of connection points: 4
#     Node 6, Type 0, BuildingBlock: QUQFOY_clean_sbu_1, # of connection points: 4
#     Node 7, Type 0, BuildingBlock: QUQFOY_clean_sbu_1, # of connection points: 4
#     Node 8, Type 0, BuildingBlock: QUQFOY_clean_sbu_1, # of connection points: 4
#     Node 9, Type 0, BuildingBlock: QUQFOY_clean_sbu_1, # of connection points: 4
#     Node 10, Type 0, BuildingBlock: QUQFOY_clean_sbu_1, # of connection points: 4
#     Node 11, Type 0, BuildingBlock: QUQFOY_clean_sbu_1, # of connection points: 4
#     Node 12, Type 0, BuildingBlock: QUQFOY_clean_sbu_1, # of connection points: 4
#     Node 13, Type 0, BuildingBlock: QUQFOY_clean_sbu_1, # of connection points: 4
#     Node 14, Type 0, BuildingBlock: QUQFOY_clean_sbu_1, # of connection points: 4
#     Node 15, Type 0, BuildingBlock: QUQFOY_clean_sbu_1, # of connection points: 4
#     Edge 16, Type (0, 0), BuildingBlock: UVAHIK_clean_linker_0, # of connection points: 2
#     Edge 17, Type (0, 0), BuildingBlock: UVAHIK_clean_linker_0, # of connection points: 2
#     Edge 18, Type (0, 0), BuildingBlock: UVAHIK_clean_linker_0, # of connection points: 2
#     Edge 19, Type (0, 0), BuildingBlock: UVAHIK_clean_linker_0, # of connection points: 2
#     Edge 20, Type (0, 0), BuildingBlock: UVAHIK_clean_linker_0, # of connection points: 2
#     Edge 21, Type (0, 0), BuildingBlock: UVAHIK_clean_linker_0, # of connection points: 2
#     Edge 22, Type (0, 0), BuildingBlock: UVAHIK_clean_linker_0, # of connection points: 2
#     Edge 23, Type (0, 0), BuildingBlock: UVAHIK_clean_linker_0, # of connection points: 2
#     Edge 24, Type (0, 0), BuildingBlock: UVAHIK_clean_linker_0, # of connection points: 2
#     Edge 25, Type (0, 0), BuildingBlock: UVAHIK_clean_linker_0, # of connection points: 2
#     Edge 26, Type (0, 0), BuildingBlock: UVAHIK_clean_linker_0, # of connection points: 2
#     Edge 27, Type (0, 0), BuildingBlock: UVAHIK_clean_linker_0, # of connection points: 2
#     Edge 28, Type (0, 0), BuildingBlock: UVAHIK_clean_linker_0, # of connection points: 2
#     Edge 29, Type (0, 0), BuildingBlock: UVAHIK_clean_linker_0, # of connection points: 2
#     Edge 30, Type (0, 0), BuildingBlock: UVAHIK_clean_linker_0, # of connection points: 2
#     Edge 31, Type (0, 0), BuildingBlock: UVAHIK_clean_linker_0, # of connection points: 2
#     Edge 32, Type (0, 0), BuildingBlock: UVAHIK_clean_linker_0, # of connection points: 2
#     Edge 33, Type (0, 0), BuildingBlock: UVAHIK_clean_linker_0, # of connection points: 2
#     Edge 34, Type (0, 0), BuildingBlock: UVAHIK_clean_linker_0, # of connection points: 2
#     Edge 35, Type (0, 0), BuildingBlock: UVAHIK_clean_linker_0, # of connection points: 2
#     Edge 36, Type (0, 0), BuildingBlock: UVAHIK_clean_linker_0, # of connection points: 2
#     Edge 37, Type (0, 0), BuildingBlock: UVAHIK_clean_linker_0, # of connection points: 2
#     Edge 38, Type (0, 0), BuildingBlock: UVAHIK_clean_linker_0, # of connection points: 2
#     Edge 39, Type (0, 0), BuildingBlock: UVAHIK_clean_linker_0, # of connection points: 2
#     Edge 40, Type (0, 0), BuildingBlock: UVAHIK_clean_linker_0, # of connection points: 2
#     Edge 41, Type (0, 0), BuildingBlock: UVAHIK_clean_linker_0, # of connection points: 2
#     Edge 42, Type (0, 0), BuildingBlock: UVAHIK_clean_linker_0, # of connection points: 2
#     Edge 43, Type (0, 0), BuildingBlock: UVAHIK_clean_linker_0, # of connection points: 2
#     Edge 44, Type (0, 0), BuildingBlock: UVAHIK_clean_linker_0, # of connection points: 2
#     Edge 45, Type (0, 0), BuildingBlock: UVAHIK_clean_linker_0, # of connection points: 2
#     Edge 46, Type (0, 0), BuildingBlock: UVAHIK_clean_linker_0, # of connection points: 2
#     Edge 47, Type (0, 0), BuildingBlock: UVAHIK_clean_linker_0, # of connection points: 2
# Relax obj value: 0.040
# Max RMSD: 0.068
# Mean RMSD: 0.068
data_MOF--net-ukb--node1-QUQFOY_clean_sbu_1--edge1-UVAHIK_clean_linker_0
_symmetry_space_group_name_H-M    P1
_symmetry_Int_Tables_number       1
_symmetry_cell_setting            triclinic
loop_
_symmetry_equiv_pos_as_xyz
'x, y, z'
_cell_length_a     58.479905
_cell_length_b     58.497757
_cell_length_c     54.319389
_cell_angle_alpha  90.015079
_cell_angle_beta   90.001365
_cell_angle_gamma 90.005673
loop_
_atom_site_label
_atom_site_type_symbol
_atom_site_fract_x
_atom_site_fract_y
_atom_site_fract_z
_atom_type_partial_charge
O0 O 0.55575 0.23731 0.19255 0.0
Cd1 Cd 0.55239 0.20796 0.17154 0.0
Cd2 Cd 0.52806 0.19512 0.21509 0.0
O3 O 0.53536 0.22826 0.22538 0.0
O4 O 0.56681 0.21718 0.13976 0.0
O5 O 0.53034 0.20798 0.14265 0.0
C6 C 0.54726 0.21474 0.12921 0.0
C7 C 0.49173 0.17979 0.22249 0.0
C8 C 0.5476 0.24245 0.21354 0.0
C9 C 0.57 0.16778 0.20122 0.0
O10 O 0.55444 0.17194 0.21691 0.0
O11 O 0.57141 0.17944 0.18151 0.0
O12 O 0.50588 0.18378 0.24015 0.0
O13 O 0.49792 0.18524 0.20042 0.0
O14 O 0.32812 0.5509 0.71913 0.0
Cd15 Cd 0.30541 0.52412 0.71689 0.0
Cd16 Cd 0.29339 0.54808 0.67267 0.0
O17 O 0.32172 0.56716 0.6831 0.0
O18 O 0.31608 0.50281 0.74312 0.0
O19 O 0.3165 0.49381 0.70363 0.0
C20 C 0.32109 0.4883 0.72613 0.0
C21 C 0.28721 0.54281 0.63027 0.0
C22 C 0.33273 0.56619 0.70327 0.0
C23 C 0.25797 0.54329 0.71372 0.0
O24 O 0.26365 0.55161 0.69298 0.0
O25 O 0.27187 0.53099 0.72588 0.0
O26 O 0.28474 0.56241 0.64067 0.0
O27 O 0.2937 0.52592 0.64389 0.0
O28 O 0.94421 0.26725 0.19125 0.0
Cd29 Cd 0.95144 0.29621 0.17088 0.0
Cd30 Cd 0.97648 0.305 0.2141 0.0
O31 O 0.9686 0.27137 0.22195 0.0
O32 O 0.93711 0.28894 0.13847 0.0
O33 O 0.97423 0.29425 0.14275 0.0
C34 C 0.95713 0.28938 0.12865 0.0
C35 C 0.01295 0.31947 0.22272 0.0
C36 C 0.95347 0.25968 0.2108 0.0
C37 C 0.93615 0.33551 0.20227 0.0
O38 O 0.95052 0.3286 0.21817 0.0
O39 O 0.93507 0.32607 0.18121 0.0
O40 O 0.99887 0.31407 0.24001 0.0
O41 O 0.00667 0.31579 0.20026 0.0
O42 O 0.17157 0.95208 0.71512 0.0
Cd43 Cd 0.19543 0.97796 0.71493 0.0
Cd44 Cd 0.21006 0.95269 0.67187 0.0
O45 O 0.18205 0.93301 0.68187 0.0
O46 O 0.18411 0.99887 0.74123 0.0
O47 O 0.18599 0.00904 0.70214 0.0
C48 C 0.18046 0.01405 0.72453 0.0
C49 C 0.21731 0.95746 0.6296 0.0
C50 C 0.16884 0.93552 0.70028 0.0
C51 C 0.24316 0.95828 0.71477 0.0
O52 O 0.23902 0.95038 0.69343 0.0
O53 O 0.22824 0.96996 0.72625 0.0
O54 O 0.22014 0.93812 0.64047 0.0
O55 O 0.20988 0.97434 0.64267 0.0
O56 O 0.55495 0.26494 0.8131 0.0
Cd57 Cd 0.55087 0.29438 0.83384 0.0
Cd58 Cd 0.52597 0.30576 0.79036 0.0
O59 O 0.53346 0.27254 0.78066 0.0
O60 O 0.56592 0.28561 0.86542 0.0
O61 O 0.52916 0.29362 0.86302 0.0
C62 C 0.5464 0.28723 0.87619 0.0
C63 C 0.48947 0.32084 0.78352 0.0
C64 C 0.54644 0.25904 0.7925 0.0
C65 C 0.56741 0.33426 0.80316 0.0
O66 O 0.55211 0.3291 0.78752 0.0
O67 O 0.56892 0.3234 0.82339 0.0
O68 O 0.50324 0.31651 0.7656 0.0
O69 O 0.49613 0.31577 0.80554 0.0
O70 O 0.16993 0.55142 0.29037 0.0
Cd71 Cd 0.19342 0.52523 0.2903 0.0
Cd72 Cd 0.20696 0.54758 0.33527 0.0
O73 O 0.17923 0.5678 0.32563 0.0
O74 O 0.18176 0.50363 0.26483 0.0
O75 O 0.18426 0.49463 0.30426 0.0
C76 C 0.17837 0.48896 0.28215 0.0
C77 C 0.21442 0.54283 0.37757 0.0
C78 C 0.16678 0.56689 0.30644 0.0
C79 C 0.24108 0.54395 0.29266 0.0
O80 O 0.23631 0.55049 0.31439 0.0
O81 O 0.22644 0.53325 0.27977 0.0
O82 O 0.21702 0.56217 0.36667 0.0
O83 O 0.20691 0.52594 0.36458 0.0
O84 O 0.94852 0.23684 0.81433 0.0
Cd85 Cd 0.95325 0.20709 0.83433 0.0
Cd86 Cd 0.97685 0.1969 0.78971 0.0
O87 O 0.96873 0.23014 0.78073 0.0
O88 O 0.93834 0.21539 0.86614 0.0
O89 O 0.97515 0.20776 0.86339 0.0
C90 C 0.95795 0.21392 0.87675 0.0
C91 C 0.01347 0.18229 0.7827 0.0
C92 C 0.95615 0.24326 0.79352 0.0
C93 C 0.93616 0.16768 0.80318 0.0
O94 O 0.95092 0.17332 0.78713 0.0
O95 O 0.93518 0.1781 0.82372 0.0
O96 O 0.99965 0.1866 0.76481 0.0
O97 O 0.00679 0.18716 0.80478 0.0
O98 O 0.32869 0.95235 0.286 0.0
Cd99 Cd 0.30584 0.97882 0.28982 0.0
Cd100 Cd 0.29633 0.95402 0.3342 0.0
O101 O 0.3245 0.9355 0.32209 0.0
O102 O 0.31542 1.00082 0.26376 0.0
O103 O 0.31726 0.00885 0.30345 0.0
C104 C 0.32108 0.0149 0.28095 0.0
C105 C 0.29083 0.95825 0.37686 0.0
C106 C 0.33438 0.93693 0.30128 0.0
C107 C 0.25905 0.95884 0.29491 0.0
O108 O 0.26593 0.95034 0.31514 0.0
O109 O 0.27205 0.97162 0.28218 0.0
O110 O 0.28875 0.9388 0.36603 0.0
O111 O 0.29688 0.97552 0.36357 0.0
O112 O 0.44891 0.82995 0.78907 0.0
Cd113 Cd 0.47513 0.80657 0.79046 0.0
Cd114 Cd 0.45091 0.79376 0.83412 0.0
O115 O 0.43231 0.82274 0.82475 0.0
O116 O 0.49732 0.81802 0.76549 0.0
O117 O 0.50533 0.81612 0.80519 0.0
C118 C 0.51151 0.82178 0.78317 0.0
C119 C 0.45591 0.78566 0.8762 0.0
C120 C 0.43363 0.83437 0.80501 0.0
C121 C 0.45507 0.75956 0.79164 0.0
O122 O 0.447 0.76478 0.81265 0.0
O123 O 0.46755 0.77359 0.77986 0.0
O124 O 0.43631 0.78397 0.86559 0.0
O125 O 0.47292 0.79265 0.86303 0.0
O126 O 0.67408 0.45067 0.28806 0.0
Cd127 Cd 0.69683 0.47742 0.29033 0.0
Cd128 Cd 0.70881 0.45289 0.33447 0.0
O129 O 0.6802 0.43419 0.32404 0.0
O130 O 0.68616 0.49868 0.26404 0.0
O131 O 0.68572 0.50777 0.3035 0.0
C132 C 0.68113 0.51323 0.28099 0.0
C133 C 0.71588 0.45755 0.37682 0.0
C134 C 0.66928 0.43536 0.30382 0.0
C135 C 0.74412 0.45788 0.2932 0.0
O136 O 0.73833 0.44932 0.3138 0.0
O137 O 0.73036 0.47051 0.28125 0.0
O138 O 0.71788 0.43805 0.36607 0.0
O139 O 0.70915 0.47464 0.36363 0.0
O140 O 0.05193 0.67354 0.78722 0.0
Cd141 Cd 0.02593 0.69707 0.79092 0.0
Cd142 Cd 0.05056 0.70638 0.83458 0.0
O143 O 0.06755 0.67688 0.82403 0.0
O144 O 0.00304 0.68722 0.76587 0.0
O145 O 0.9961 0.68675 0.80586 0.0
C146 C 0.98934 0.68236 0.7837 0.0
C147 C 0.04548 0.71298 0.87695 0.0
C148 C 0.06647 0.66709 0.80316 0.0
C149 C 0.04782 0.74294 0.79449 0.0
O150 O 0.05666 0.73574 0.81442 0.0
O151 O 0.0336 0.73066 0.78273 0.0
O152 O 0.06529 0.71393 0.8667 0.0
O153 O 0.02826 0.70768 0.86321 0.0
O154 O 0.83218 0.05143 0.2925 0.0
Cd155 Cd 0.80892 0.02502 0.29123 0.0
Cd156 Cd 0.79323 0.04833 0.33559 0.0
O157 O 0.82103 0.06871 0.32664 0.0
O158 O 0.82091 0.00536 0.26413 0.0
O159 O 0.81865 0.99357 0.30266 0.0
C160 C 0.82448 0.98953 0.28014 0.0
C161 C 0.78494 0.04346 0.3777 0.0
C162 C 0.8344 0.06736 0.30822 0.0
C163 C 0.76083 0.04372 0.29175 0.0
O164 O 0.76457 0.05074 0.31353 0.0
O165 O 0.7761 0.03287 0.27989 0.0
O166 O 0.78218 0.06274 0.36671 0.0
O167 O 0.79296 0.02669 0.36488 0.0
O168 O 0.45022 0.67252 0.21812 0.0
Cd169 Cd 0.47645 0.69572 0.21491 0.0
Cd170 Cd 0.45221 0.70603 0.17081 0.0
O171 O 0.43323 0.67797 0.18232 0.0
O172 O 0.49916 0.6854 0.23992 0.0
O173 O 0.50626 0.68533 0.19996 0.0
C174 C 0.5129 0.68065 0.22209 0.0
C175 C 0.45727 0.71127 0.12823 0.0
C176 C 0.43468 0.6674 0.20273 0.0
C177 C 0.45657 0.74262 0.21083 0.0
O178 O 0.44857 0.73628 0.19015 0.0
O179 O 0.46891 0.72922 0.2236 0.0
O180 O 0.43767 0.71377 0.13865 0.0
O181 O 0.47425 0.70517 0.14193 0.0
O182 O 0.82752 0.45321 0.71929 0.0
Cd183 Cd 0.80475 0.47981 0.71595 0.0
Cd184 Cd 0.79321 0.45424 0.67267 0.0
O185 O 0.82134 0.43535 0.6841 0.0
O186 O 0.81505 0.50148 0.74204 0.0
O187 O 0.816 0.51001 0.70246 0.0
C188 C 0.82031 0.51579 0.72494 0.0
C189 C 0.78749 0.45887 0.63011 0.0
C190 C 0.83221 0.43721 0.70429 0.0
C191 C 0.75749 0.46003 0.71322 0.0
O192 O 0.76333 0.45113 0.6928 0.0
O193 O 0.77122 0.47286 0.72499 0.0
O194 O 0.78488 0.43942 0.64082 0.0
O195 O 0.79389 0.47594 0.64352 0.0
O196 O 0.05136 0.82888 0.21771 0.0
Cd197 Cd 0.02571 0.80523 0.21202 0.0
Cd198 Cd 0.05226 0.79741 0.17036 0.0
O199 O 0.06826 0.82724 0.18146 0.0
O200 O 0.00191 0.81434 0.2364 0.0
O201 O 0.99638 0.81593 0.1962 0.0
C202 C 0.98887 0.81974 0.2182 0.0
C203 C 0.04702 0.7903 0.12815 0.0
C204 C 0.06631 0.83622 0.20268 0.0
C205 C 0.04925 0.76034 0.20957 0.0
O206 O 0.05928 0.76842 0.19072 0.0
O207 O 0.03336 0.77156 0.22001 0.0
O208 O 0.06697 0.79016 0.13817 0.0
O209 O 0.02978 0.79532 0.14199 0.0
O210 O 0.67453 0.05051 0.72048 0.0
Cd211 Cd 0.69723 0.02379 0.71776 0.0
Cd212 Cd 0.70902 0.04802 0.67381 0.0
O213 O 0.68065 0.06695 0.68449 0.0
O214 O 0.68667 0.00212 0.74369 0.0
O215 O 0.68608 0.99368 0.70406 0.0
C216 C 0.68156 0.98786 0.72648 0.0
C217 C 0.71486 0.04278 0.63134 0.0
C218 C 0.66978 0.06586 0.70475 0.0
C219 C 0.74458 0.04318 0.7147 0.0
O220 O 0.73883 0.05161 0.69402 0.0
O221 O 0.73076 0.0307 0.72676 0.0
O222 O 0.71737 0.06239 0.64172 0.0
O223 O 0.70856 0.02586 0.64503 0.0
C224 C 0.46342 0.16288 0.25184 0.0
C225 C 0.46978 0.16798 0.22749 0.0
C226 C 0.44404 0.14967 0.25671 0.0
C227 C 0.40842 0.10544 0.22804 0.0
H228 H 0.36937 0.11527 0.28478 0.0
C229 C 0.33519 0.04333 0.25012 0.0
C230 C 0.33311 0.03645 0.27481 0.0
C231 C 0.34886 0.06199 0.24374 0.0
C232 C 0.3802 0.11222 0.26894 0.0
H233 H 0.46021 0.16397 0.18917 0.0
H234 H 0.42622 0.14095 0.1977 0.0
H235 H 0.39858 0.14352 0.27435 0.0
H236 H 0.34302 0.04439 0.3123 0.0
H237 H 0.36721 0.0768 0.30115 0.0
H238 H 0.39058 0.07394 0.22292 0.0
C239 C 0.43643 0.14698 0.21302 0.0
C240 C 0.39692 0.12842 0.26294 0.0
C241 C 0.45581 0.16029 0.20813 0.0
C242 C 0.34422 0.04929 0.29311 0.0
C243 C 0.35804 0.06793 0.28671 0.0
C244 C 0.39177 0.08925 0.23405 0.0
C245 C 0.43055 0.14117 0.23736 0.0
C246 C 0.41141 0.12509 0.24258 0.0
C247 C 0.36094 0.07417 0.26187 0.0
C248 C 0.37759 0.09229 0.25472 0.0
H249 H 0.47378 0.16855 0.2672 0.0
H250 H 0.44019 0.14534 0.27565 0.0
H251 H 0.41954 0.10211 0.2125 0.0
H252 H 0.32668 0.03394 0.23557 0.0
H253 H 0.35029 0.06661 0.22449 0.0
C254 C 0.34335 0.45329 0.71408 0.0
C255 C 0.33308 0.46676 0.73242 0.0
C256 C 0.35694 0.43449 0.72049 0.0
C257 C 0.39161 0.41334 0.77255 0.0
H258 H 0.39566 0.35802 0.7335 0.0
C259 C 0.45422 0.34113 0.7984 0.0
C260 C 0.46753 0.33275 0.77885 0.0
C261 C 0.43501 0.35475 0.79374 0.0
C262 C 0.39476 0.3734 0.74456 0.0
H263 H 0.32794 0.4703 0.77179 0.0
H264 H 0.35114 0.43737 0.78289 0.0
H265 H 0.36703 0.38692 0.72325 0.0
H266 H 0.47049 0.3312 0.73906 0.0
H267 H 0.43719 0.35495 0.731 0.0
H268 H 0.41954 0.40011 0.79357 0.0
C269 C 0.34924 0.4416 0.76359 0.0
C270 C 0.37839 0.38998 0.73865 0.0
C271 C 0.3358 0.46042 0.7572 0.0
C272 C 0.46064 0.33741 0.75457 0.0
C273 C 0.44143 0.35094 0.74992 0.0
C274 C 0.40791 0.39678 0.77847 0.0
C275 C 0.36044 0.42871 0.74537 0.0
C276 C 0.37678 0.41029 0.75242 0.0
C277 C 0.42866 0.36019 0.76944 0.0
C278 C 0.40989 0.37673 0.76438 0.0
H279 H 0.34163 0.45777 0.69482 0.0
H280 H 0.36545 0.42507 0.70597 0.0
H281 H 0.39119 0.42893 0.7833 0.0
H282 H 0.45903 0.3378 0.81732 0.0
H283 H 0.42535 0.36137 0.80919 0.0
C284 C 0.0474 0.34245 0.21044 0.0
C285 C 0.03474 0.33112 0.22873 0.0
C286 C 0.06621 0.35605 0.21682 0.0
C287 C 0.08834 0.38876 0.26989 0.0
H288 H 0.14188 0.39658 0.22869 0.0
C289 C 0.15954 0.45253 0.29594 0.0
C290 C 0.16671 0.46701 0.2768 0.0
C291 C 0.1463 0.43314 0.29083 0.0
C292 C 0.127 0.39462 0.24035 0.0
H293 H 0.03276 0.32401 0.26786 0.0
H294 H 0.06575 0.3472 0.27888 0.0
H295 H 0.11355 0.36748 0.21814 0.0
H296 H 0.16647 0.47192 0.2372 0.0
H297 H 0.1434 0.43831 0.22837 0.0
H298 H 0.10148 0.41611 0.29183 0.0
C299 C 0.06084 0.34614 0.25968 0.0
C300 C 0.11074 0.37797 0.23428 0.0
C301 C 0.042 0.3327 0.25333 0.0
C302 C 0.1612 0.46116 0.2524 0.0
C303 C 0.14807 0.44177 0.2473 0.0
C304 C 0.10459 0.40533 0.27597 0.0
C305 C 0.07282 0.3585 0.24161 0.0
C306 C 0.09105 0.37501 0.24882 0.0
C307 C 0.14006 0.42778 0.26647 0.0
C308 C 0.12397 0.40868 0.26112 0.0
H309 H 0.0422 0.34163 0.19132 0.0
H310 H 0.07491 0.36544 0.20242 0.0
H311 H 0.07321 0.38731 0.28127 0.0
H312 H 0.16354 0.45652 0.31492 0.0
H313 H 0.14065 0.42254 0.306 0.0
C314 C 0.16595 0.04184 0.75578 0.0
C315 C 0.16891 0.03578 0.73094 0.0
C316 C 0.15278 0.06082 0.76225 0.0
C317 C 0.12454 0.11314 0.73766 0.0
H318 H 0.08284 0.10284 0.79205 0.0
C319 C 0.04244 0.16607 0.75365 0.0
C320 C 0.03547 0.17052 0.77796 0.0
C321 C 0.06165 0.15255 0.74893 0.0
C322 C 0.09463 0.10622 0.77711 0.0
H323 H 0.16112 0.04546 0.69336 0.0
H324 H 0.13771 0.07842 0.70465 0.0
H325 H 0.11094 0.07384 0.78166 0.0
H326 H 0.04387 0.16515 0.8164 0.0
H327 H 0.07752 0.14158 0.80815 0.0
H328 H 0.10759 0.14532 0.73275 0.0
C329 C 0.14584 0.06867 0.71915 0.0
C330 C 0.11079 0.08955 0.77112 0.0
C331 C 0.1592 0.04972 0.71265 0.0
C332 C 0.04874 0.16198 0.79747 0.0
C333 C 0.06793 0.14836 0.79274 0.0
C334 C 0.10827 0.12982 0.74362 0.0
C335 C 0.14205 0.07414 0.74407 0.0
C336 C 0.12583 0.09267 0.75118 0.0
C337 C 0.07432 0.14309 0.7684 0.0
C338 C 0.09297 0.12644 0.76327 0.0
H339 H 0.1734 0.0316 0.77032 0.0
H340 H 0.15068 0.06481 0.78159 0.0
H341 H 0.13605 0.11626 0.72241 0.0
H342 H 0.03264 0.17241 0.73818 0.0
H343 H 0.06594 0.14867 0.72999 0.0
C344 C 0.54732 0.8413 0.79775 0.0
C345 C 0.53345 0.83362 0.77831 0.0
C346 C 0.56664 0.85475 0.79301 0.0
C347 C 0.60623 0.87384 0.74343 0.0
H348 H 0.61166 0.92834 0.78358 0.0
C349 C 0.65871 0.95337 0.71398 0.0
C350 C 0.66946 0.96631 0.73245 0.0
C351 C 0.64492 0.93466 0.72019 0.0
C352 C 0.61073 0.91303 0.77243 0.0
H353 H 0.5296 0.83318 0.73857 0.0
H354 H 0.5631 0.85661 0.73037 0.0
H355 H 0.58293 0.89985 0.7937 0.0
H356 H 0.67529 0.96893 0.77179 0.0
H357 H 0.65177 0.93612 0.78253 0.0
H358 H 0.63384 0.88729 0.7219 0.0
C359 C 0.5592 0.85218 0.74927 0.0
C360 C 0.59421 0.89665 0.77826 0.0
C361 C 0.53988 0.83884 0.754 0.0
C362 C 0.66705 0.95947 0.75712 0.0
C363 C 0.65342 0.94072 0.7633 0.0
C364 C 0.62284 0.89022 0.73762 0.0
C365 C 0.57256 0.8607 0.76872 0.0
C366 C 0.59155 0.87699 0.76367 0.0
C367 C 0.6417 0.92842 0.74499 0.0
C368 C 0.62513 0.91015 0.7519 0.0
H369 H 0.54287 0.83754 0.81668 0.0
H370 H 0.57675 0.8608 0.8084 0.0
H371 H 0.6048 0.85874 0.73198 0.0
H372 H 0.66018 0.95825 0.69481 0.0
H373 H 0.63602 0.9257 0.70561 0.0
C374 C 0.54815 0.6601 0.2076 0.0
C375 C 0.53477 0.66868 0.227 0.0
C376 C 0.56728 0.64643 0.21249 0.0
C377 C 0.60722 0.62795 0.26206 0.0
H378 H 0.61098 0.57231 0.22352 0.0
C379 C 0.65875 0.54821 0.29293 0.0
C380 C 0.6691 0.53473 0.27464 0.0
C381 C 0.64511 0.56696 0.28644 0.0
C382 C 0.61051 0.58792 0.23422 0.0
H383 H 0.53162 0.67052 0.26676 0.0
H384 H 0.56478 0.64668 0.27522 0.0
H385 H 0.58266 0.60108 0.21301 0.0
H386 H 0.67433 0.53115 0.23529 0.0
H387 H 0.65105 0.56399 0.22406 0.0
H388 H 0.63486 0.6145 0.28355 0.0
C389 C 0.56065 0.65058 0.25624 0.0
C390 C 0.59423 0.60446 0.22816 0.0
C391 C 0.54153 0.66416 0.25136 0.0
C392 C 0.66641 0.54103 0.24984 0.0
C393 C 0.65292 0.5598 0.24338 0.0
C394 C 0.62357 0.61139 0.26811 0.0
C395 C 0.57348 0.64113 0.23687 0.0
C396 C 0.59219 0.62457 0.24215 0.0
C397 C 0.64163 0.57268 0.26154 0.0
C398 C 0.62526 0.59105 0.25441 0.0
H399 H 0.54344 0.66331 0.18863 0.0
H400 H 0.57699 0.63968 0.19714 0.0
H401 H 0.60628 0.64337 0.27305 0.0
H402 H 0.66044 0.54376 0.3122 0.0
H403 H 0.63654 0.57637 0.30092 0.0
C404 C 0.95389 0.66211 0.7981 0.0
C405 C 0.96739 0.67056 0.77874 0.0
C406 C 0.93466 0.64859 0.79317 0.0
C407 C 0.89481 0.63021 0.74341 0.0
H408 H 0.89031 0.57486 0.78231 0.0
C409 C 0.84295 0.55054 0.7128 0.0
C410 C 0.83232 0.53734 0.73113 0.0
C411 C 0.85665 0.56927 0.7192 0.0
C412 C 0.89099 0.5904 0.7715 0.0
H413 H 0.97065 0.67232 0.73899 0.0
H414 H 0.93736 0.6487 0.73045 0.0
H415 H 0.91882 0.60344 0.79281 0.0
H416 H 0.82664 0.53426 0.77046 0.0
H417 H 0.85005 0.56706 0.78154 0.0
H418 H 0.8672 0.61684 0.72179 0.0
C419 C 0.94145 0.6526 0.74944 0.0
C420 C 0.90738 0.60684 0.77756 0.0
C421 C 0.96066 0.66606 0.75436 0.0
C422 C 0.83478 0.54392 0.75588 0.0
C423 C 0.84833 0.56267 0.76226 0.0
C424 C 0.87836 0.61374 0.73734 0.0
C425 C 0.92849 0.64328 0.76878 0.0
C426 C 0.90968 0.62684 0.76345 0.0
C427 C 0.85991 0.57524 0.74408 0.0
C428 C 0.8764 0.59352 0.75118 0.0
H429 H 0.95856 0.66532 0.81709 0.0
H430 H 0.92485 0.64195 0.80849 0.0
H431 H 0.89594 0.64555 0.73232 0.0
H432 H 0.84144 0.54587 0.69357 0.0
H433 H 0.86544 0.57846 0.70472 0.0
C434 C 0.84488 0.95296 0.29055 0.0
C435 C 0.83608 0.96806 0.27282 0.0
C436 C 0.85798 0.93404 0.28339 0.0
C437 C 0.89411 0.91472 0.23157 0.0
H438 H 0.8939 0.85685 0.26632 0.0
C439 C 0.95471 0.84173 0.20318 0.0
C440 C 0.96691 0.83169 0.22266 0.0
C441 C 0.93576 0.85568 0.20794 0.0
C442 C 0.89418 0.87294 0.25647 0.0
H443 H 0.83307 0.97446 0.23361 0.0
H444 H 0.8554 0.94135 0.22116 0.0
H445 H 0.86618 0.88637 0.27743 0.0
H446 H 0.96802 0.82742 0.26233 0.0
H447 H 0.93515 0.85171 0.27058 0.0
H448 H 0.9223 0.90154 0.21092 0.0
C449 C 0.85274 0.94436 0.24062 0.0
C450 C 0.87834 0.88988 0.26288 0.0
C451 C 0.8398 0.96329 0.24777 0.0
C452 C 0.95905 0.83494 0.24688 0.0
C453 C 0.94009 0.84878 0.25162 0.0
C454 C 0.90987 0.8978 0.22514 0.0
C455 C 0.86246 0.92978 0.25833 0.0
C456 C 0.87827 0.91109 0.25068 0.0
C457 C 0.92855 0.85979 0.23227 0.0
C458 C 0.9103 0.87681 0.23769 0.0
H459 H 0.84235 0.95619 0.31 0.0
H460 H 0.86535 0.9233 0.29755 0.0
H461 H 0.89489 0.93097 0.22207 0.0
H462 H 0.96029 0.83953 0.18432 0.0
H463 H 0.92703 0.86365 0.19259 0.0
C464 C 0.56275 0.28238 0.21039 0.0
C465 C 0.55384 0.2646 0.22492 0.0
C466 C 0.57078 0.30246 0.22132 0.0
C467 C 0.59725 0.32252 0.27761 0.0
H468 H 0.58527 0.38292 0.25126 0.0
C469 C 0.64423 0.40205 0.3154 0.0
C470 C 0.65169 0.41797 0.29775 0.0
C471 C 0.62881 0.38474 0.30894 0.0
C472 C 0.58897 0.36617 0.25874 0.0
H473 H 0.54581 0.25422 0.26228 0.0
H474 H 0.56029 0.28924 0.28139 0.0
H475 H 0.56448 0.35004 0.23504 0.0
H476 H 0.64841 0.42837 0.25956 0.0
H477 H 0.62229 0.39802 0.24819 0.0
H478 H 0.62255 0.33825 0.30038 0.0
C479 C 0.56091 0.28759 0.26153 0.0
C480 C 0.57694 0.34737 0.24951 0.0
C481 C 0.55252 0.26763 0.25057 0.0
C482 C 0.64297 0.41649 0.27369 0.0
C483 C 0.62779 0.3991 0.26718 0.0
C484 C 0.60951 0.34126 0.28661 0.0
C485 C 0.57038 0.30507 0.24702 0.0
C486 C 0.58124 0.32532 0.25858 0.0
C487 C 0.62065 0.38282 0.28463 0.0
C488 C 0.60585 0.3633 0.27697 0.0
H489 H 0.56394 0.28061 0.19058 0.0
H490 H 0.57815 0.31559 0.2097 0.0
H491 H 0.60107 0.30566 0.28475 0.0
H492 H 0.65049 0.40279 0.33415 0.0
H493 H 0.62342 0.37276 0.32298 0.0
C494 C 0.23168 0.54731 0.74997 0.0
C495 C 0.23555 0.54947 0.72452 0.0
C496 C 0.21154 0.55568 0.76054 0.0
C497 C 0.15255 0.57393 0.74697 0.0
H498 H 0.1614 0.6168 0.80057 0.0
C499 C 0.08505 0.64139 0.7722 0.0
C500 C 0.08314 0.64896 0.79668 0.0
C501 C 0.10201 0.6258 0.76547 0.0
C502 C 0.15844 0.60452 0.786 0.0
H503 H 0.22078 0.56102 0.69006 0.0
H504 H 0.18552 0.57528 0.70848 0.0
H505 H 0.19379 0.595 0.78507 0.0
H506 H 0.09693 0.64521 0.83352 0.0
H507 H 0.12616 0.61748 0.82191 0.0
H508 H 0.11725 0.58342 0.74775 0.0
C509 C 0.19812 0.56723 0.72025 0.0
C510 C 0.17707 0.59206 0.77707 0.0
C511 C 0.21837 0.55917 0.70973 0.0
C512 C 0.09806 0.63989 0.81446 0.0
C513 C 0.11491 0.62408 0.80776 0.0
C514 C 0.13385 0.58617 0.75608 0.0
C515 C 0.19471 0.56602 0.74582 0.0
C516 C 0.17441 0.57703 0.75711 0.0
C517 C 0.11738 0.61713 0.78308 0.0
C518 C 0.13664 0.60206 0.77532 0.0
H519 H 0.24458 0.53995 0.76188 0.0
H520 H 0.20926 0.5544 0.78028 0.0
H521 H 0.14998 0.56223 0.73175 0.0
H522 H 0.07392 0.64807 0.75799 0.0
H523 H 0.10355 0.62122 0.74623 0.0
C524 C 0.86824 0.08292 0.28536 0.0
C525 C 0.85148 0.08562 0.30371 0.0
C526 C 0.8824 0.10117 0.27876 0.0
C527 C 0.88053 0.16302 0.27549 0.0
H528 H 0.94505 0.15868 0.25946 0.0
C529 C 0.92489 0.22793 0.21266 0.0
C530 C 0.94505 0.23801 0.22167 0.0
C531 C 0.91541 0.20891 0.22432 0.0
C532 C 0.92708 0.16013 0.26402 0.0
H533 H 0.83729 0.10931 0.3304 0.0
H534 H 0.86189 0.14123 0.31863 0.0
H535 H 0.92555 0.1261 0.27874 0.0
H536 H 0.97161 0.23531 0.24943 0.0
H537 H 0.95513 0.2016 0.26955 0.0
H538 H 0.88182 0.19672 0.26022 0.0
C539 C 0.86397 0.12497 0.30934 0.0
C540 C 0.91592 0.14152 0.27493 0.0
C541 C 0.84997 0.10665 0.31614 0.0
C542 C 0.95603 0.228 0.24206 0.0
C543 C 0.94665 0.2087 0.25355 0.0
C544 C 0.89157 0.18144 0.2643 0.0
C545 C 0.87996 0.12256 0.29019 0.0
C546 C 0.89248 0.14274 0.28059 0.0
C547 C 0.92599 0.19932 0.24508 0.0
C548 C 0.91487 0.18009 0.2582 0.0
H549 H 0.86994 0.06691 0.2755 0.0
H550 H 0.89448 0.09884 0.26384 0.0
H551 H 0.86241 0.16438 0.27938 0.0
H552 H 0.91597 0.23514 0.197 0.0
H553 H 0.89962 0.20181 0.21722 0.0
C554 C 0.26694 0.95263 0.75274 0.0
C555 C 0.26501 0.9523 0.72693 0.0
C556 C 0.28664 0.94425 0.76425 0.0
C557 C 0.34721 0.92971 0.75424 0.0
H558 H 0.33679 0.88142 0.80181 0.0
C559 C 0.41561 0.86245 0.77619 0.0
C560 C 0.41649 0.85239 0.79967 0.0
C561 C 0.39844 0.87807 0.77024 0.0
C562 C 0.34014 0.8952 0.78901 0.0
H563 H 0.28268 0.94405 0.69296 0.0
H564 H 0.31717 0.92987 0.71304 0.0
H565 H 0.30453 0.90343 0.78623 0.0
H566 H 0.40048 0.85165 0.83567 0.0
H567 H 0.37078 0.87942 0.82548 0.0
H568 H 0.38275 0.92153 0.75683 0.0
C569 C 0.30341 0.93646 0.72436 0.0
C570 C 0.32159 0.90778 0.78003 0.0
C571 C 0.28361 0.94447 0.71287 0.0
C572 C 0.40021 0.85896 0.81736 0.0
C573 C 0.3831 0.87479 0.81145 0.0
C574 C 0.36579 0.91736 0.76343 0.0
C575 C 0.30493 0.93579 0.75016 0.0
C576 C 0.32489 0.92475 0.76209 0.0
C577 C 0.38178 0.88428 0.78767 0.0
C578 C 0.36244 0.89948 0.78042 0.0
H579 H 0.25288 0.95849 0.76408 0.0
H580 H 0.28745 0.94402 0.78417 0.0
H581 H 0.35024 0.94292 0.74064 0.0
H582 H 0.42779 0.85776 0.76205 0.0
H583 H 0.39782 0.88462 0.75161 0.0
C584 C 0.5515 0.23318 0.75605 0.0
C585 C 0.55309 0.23681 0.78159 0.0
C586 C 0.56021 0.21317 0.74549 0.0
C587 C 0.57751 0.15403 0.75877 0.0
H588 H 0.62242 0.16281 0.70712 0.0
C589 C 0.64392 0.08514 0.73501 0.0
C590 C 0.65229 0.08332 0.71083 0.0
C591 C 0.62873 0.10255 0.74144 0.0
C592 C 0.60958 0.15988 0.72113 0.0
H593 H 0.56404 0.22186 0.81617 0.0
H594 H 0.57879 0.18678 0.79776 0.0
H595 H 0.60061 0.19539 0.72226 0.0
H596 H 0.65052 0.09792 0.67419 0.0
H597 H 0.62344 0.12797 0.68524 0.0
H598 H 0.58632 0.11859 0.75773 0.0
C599 C 0.57096 0.19946 0.78592 0.0
C600 C 0.59713 0.17862 0.72985 0.0
C601 C 0.56263 0.2196 0.79644 0.0
C602 C 0.64453 0.09894 0.69303 0.0
C603 C 0.6291 0.11626 0.69942 0.0
C604 C 0.58971 0.13523 0.74983 0.0
C605 C 0.57026 0.19625 0.7603 0.0
C606 C 0.58136 0.17596 0.74913 0.0
C607 C 0.62125 0.1185 0.72381 0.0
C608 C 0.60634 0.13799 0.73131 0.0
H609 H 0.54432 0.24615 0.74411 0.0
H610 H 0.55937 0.21104 0.72569 0.0
H611 H 0.56524 0.15148 0.77346 0.0
H612 H 0.64961 0.0735 0.74925 0.0
H613 H 0.62349 0.1039 0.7605 0.0
C614 C 0.41769 0.64013 0.23315 0.0
C615 C 0.41729 0.65005 0.20957 0.0
C616 C 0.40013 0.62562 0.24079 0.0
C617 C 0.35239 0.58934 0.22033 0.0
H618 H 0.32661 0.60527 0.28381 0.0
C619 C 0.26598 0.55323 0.25637 0.0
C620 C 0.26337 0.5506 0.28193 0.0
C621 C 0.28602 0.56278 0.24666 0.0
C622 C 0.33381 0.60021 0.26628 0.0
H623 H 0.3986 0.65152 0.17509 0.0
H624 H 0.36789 0.62596 0.18852 0.0
H625 H 0.35931 0.62631 0.26828 0.0
H626 H 0.28031 0.55427 0.3172 0.0
H627 H 0.31546 0.56995 0.30034 0.0
H628 H 0.32689 0.56307 0.21844 0.0
C629 C 0.38186 0.62954 0.20103 0.0
C630 C 0.35254 0.61239 0.25732 0.0
C631 C 0.3994 0.64424 0.1934 0.0
C632 C 0.28168 0.55639 0.29744 0.0
C633 C 0.30178 0.56556 0.28775 0.0
C634 C 0.33371 0.57692 0.22943 0.0
C635 C 0.3818 0.62053 0.22502 0.0
C636 C 0.36205 0.60712 0.23429 0.0
C637 C 0.30395 0.56961 0.26232 0.0
C638 C 0.32419 0.5822 0.25256 0.0
H639 H 0.43124 0.64406 0.24606 0.0
H640 H 0.4007 0.61866 0.25926 0.0
H641 H 0.35946 0.58486 0.20254 0.0
H642 H 0.25211 0.54901 0.24395 0.0
H643 H 0.28697 0.56574 0.22702 0.0
C644 C 0.85583 0.40222 0.6951 0.0
C645 C 0.84935 0.41973 0.71143 0.0
C646 C 0.87039 0.38463 0.7029 0.0
C647 C 0.88534 0.35379 0.7587 0.0
H648 H 0.93778 0.33113 0.72249 0.0
C649 C 0.94086 0.28274 0.79954 0.0
C650 C 0.94877 0.26561 0.78357 0.0
C651 C 0.9314 0.30287 0.79022 0.0
C652 C 0.92303 0.33706 0.7327 0.0
H653 H 0.85387 0.4329 0.74852 0.0
H654 H 0.87892 0.40218 0.76205 0.0
H655 H 0.91603 0.36363 0.70645 0.0
H656 H 0.95366 0.25643 0.74527 0.0
H657 H 0.93637 0.2912 0.72892 0.0
H658 H 0.89147 0.327 0.78444 0.0
C659 C 0.87268 0.40202 0.74327 0.0
C660 C 0.91066 0.35572 0.72353 0.0
C661 C 0.85839 0.41967 0.73544 0.0
C662 C 0.9478 0.26939 0.75804 0.0
C663 C 0.93794 0.2894 0.74868 0.0
C664 C 0.89745 0.33503 0.76767 0.0
C665 C 0.8785 0.38412 0.72725 0.0
C666 C 0.89178 0.36433 0.73655 0.0
C667 C 0.92916 0.3062 0.76467 0.0
C668 C 0.91657 0.32646 0.75493 0.0
H669 H 0.84924 0.40179 0.67647 0.0
H670 H 0.87457 0.37097 0.69021 0.0
H671 H 0.87059 0.35981 0.76889 0.0
H672 H 0.94165 0.28044 0.81931 0.0
H673 H 0.92549 0.31566 0.80314 0.0
C674 C 0.09947 0.86266 0.19476 0.0
C675 C 0.08268 0.85405 0.21084 0.0
C676 C 0.11638 0.87759 0.20341 0.0
C677 C 0.14742 0.89009 0.25987 0.0
H678 H 0.16866 0.94457 0.22628 0.0
C679 C 0.21956 0.94374 0.30156 0.0
C680 C 0.23627 0.95223 0.28542 0.0
C681 C 0.19904 0.9349 0.29248 0.0
C682 C 0.1631 0.92928 0.23577 0.0
H683 H 0.06995 0.8553 0.24838 0.0
H684 H 0.0995 0.88108 0.26337 0.0
H685 H 0.13611 0.92322 0.20975 0.0
H686 H 0.24426 0.95889 0.24712 0.0
H687 H 0.20881 0.94272 0.23114 0.0
H688 H 0.17468 0.8953 0.28529 0.0
C689 C 0.09964 0.87617 0.24413 0.0
C690 C 0.1444 0.91712 0.22632 0.0
C691 C 0.08266 0.86146 0.23548 0.0
C692 C 0.23165 0.95255 0.26003 0.0
C693 C 0.21125 0.94334 0.25089 0.0
C694 C 0.1662 0.90201 0.26913 0.0
C695 C 0.11695 0.88401 0.22833 0.0
C696 C 0.13637 0.89743 0.23834 0.0
C697 C 0.19489 0.93391 0.26697 0.0
C698 C 0.17431 0.92181 0.25727 0.0
H699 H 0.09994 0.85737 0.17566 0.0
H700 H 0.12958 0.88331 0.19085 0.0
H701 H 0.14188 0.87472 0.26927 0.0
H702 H 0.2225 0.94353 0.32125 0.0
H703 H 0.18661 0.92844 0.30551 0.0
C704 C 0.35744 0.59961 0.69133 0.0
C705 C 0.35022 0.58373 0.70912 0.0
C706 C 0.37282 0.61703 0.69755 0.0
C707 C 0.41312 0.63589 0.74714 0.0
H708 H 0.40057 0.69631 0.7211 0.0
C709 C 0.43976 0.71974 0.79494 0.0
C710 C 0.44856 0.73749 0.7803 0.0
C711 C 0.43157 0.69968 0.78412 0.0
C712 C 0.40451 0.67947 0.72824 0.0
H713 H 0.35387 0.57351 0.74733 0.0
H714 H 0.37994 0.60405 0.75829 0.0
H715 H 0.37896 0.66361 0.70588 0.0
H716 H 0.45618 0.74787 0.74285 0.0
H717 H 0.4414 0.71287 0.72392 0.0
H718 H 0.43788 0.65215 0.77041 0.0
C719 C 0.37427 0.60286 0.73936 0.0
C720 C 0.39218 0.66068 0.71947 0.0
C721 C 0.35912 0.58536 0.7331 0.0
C722 C 0.44956 0.73448 0.75463 0.0
C723 C 0.44101 0.71453 0.74378 0.0
C724 C 0.42522 0.65474 0.75611 0.0
C725 C 0.38118 0.61909 0.72176 0.0
C726 C 0.39601 0.63868 0.72914 0.0
C727 C 0.4317 0.69705 0.75842 0.0
C728 C 0.42076 0.67676 0.74705 0.0
H729 H 0.35104 0.59876 0.67264 0.0
H730 H 0.37803 0.62898 0.68339 0.0
H731 H 0.41696 0.61917 0.75462 0.0
H732 H 0.4388 0.72151 0.81476 0.0
H733 H 0.42431 0.68656 0.79584 0.0
C734 C 0.9047 0.36302 0.1914 0.0
C735 C 0.91954 0.3536 0.20905 0.0
C736 C 0.88778 0.37866 0.19838 0.0
C737 C 0.8684 0.4154 0.25084 0.0
H738 H 0.80868 0.40703 0.22117 0.0
C739 C 0.78358 0.44167 0.29709 0.0
C740 C 0.76653 0.45167 0.28238 0.0
C741 C 0.80387 0.43369 0.28655 0.0
C742 C 0.82533 0.40984 0.22937 0.0
H743 H 0.92857 0.35373 0.2478 0.0
H744 H 0.89883 0.38029 0.26002 0.0
H745 H 0.84123 0.38561 0.20543 0.0
H746 H 0.7577 0.46176 0.24514 0.0
H747 H 0.79307 0.44746 0.22669 0.0
H748 H 0.85204 0.43882 0.27558 0.0
C749 C 0.90048 0.37611 0.24068 0.0
C750 C 0.84406 0.3976 0.22031 0.0
C751 C 0.9175 0.36069 0.23368 0.0
C752 C 0.77052 0.45417 0.25699 0.0
C753 C 0.79069 0.44589 0.24639 0.0
C754 C 0.8496 0.42742 0.26008 0.0
C755 C 0.88516 0.38508 0.2232 0.0
C756 C 0.86578 0.39991 0.2312 0.0
C757 C 0.80742 0.43529 0.26103 0.0
C758 C 0.82781 0.42448 0.24969 0.0
H759 H 0.90592 0.35807 0.17223 0.0
H760 H 0.87659 0.38551 0.18432 0.0
H761 H 0.88493 0.41802 0.25936 0.0
H762 H 0.78108 0.43955 0.31672 0.0
H763 H 0.81638 0.42543 0.29826 0.0
C764 C 0.04662 0.7735 0.76188 0.0
C765 C 0.05536 0.76523 0.7843 0.0
C766 C 0.05514 0.79372 0.75155 0.0
C767 C 0.08948 0.84547 0.76669 0.0
H768 H 0.10203 0.84641 0.69662 0.0
C769 C 0.13362 0.92295 0.72269 0.0
C770 C 0.15108 0.91817 0.70568 0.0
C771 C 0.1184 0.90586 0.73005 0.0
C772 C 0.09872 0.84641 0.71623 0.0
H773 H 0.07963 0.77205 0.81364 0.0
H774 H 0.09464 0.80683 0.79556 0.0
H775 H 0.08242 0.81367 0.71464 0.0
H776 H 0.16566 0.89192 0.68228 0.0
H777 H 0.13958 0.86192 0.69565 0.0
H778 H 0.10683 0.8775 0.76865 0.0
C779 C 0.08095 0.79801 0.78607 0.0
C780 C 0.08718 0.82775 0.72653 0.0
C781 C 0.07241 0.77791 0.7964 0.0
C782 C 0.15236 0.89617 0.69538 0.0
C783 C 0.1373 0.87898 0.70298 0.0
C784 C 0.10113 0.86401 0.75646 0.0
C785 C 0.07259 0.8061 0.76342 0.0
C786 C 0.08279 0.82687 0.75198 0.0
C787 C 0.12044 0.88347 0.72085 0.0
C788 C 0.10622 0.8646 0.73115 0.0
H789 H 0.03344 0.76419 0.75209 0.0
H790 H 0.04811 0.79961 0.73423 0.0
H791 H 0.08606 0.84557 0.78628 0.0
H792 H 0.13198 0.93981 0.73074 0.0
H793 H 0.10529 0.91013 0.74337 0.0
C794 C 0.58812 0.13991 0.23024 0.0
C795 C 0.58734 0.15 0.20677 0.0
C796 C 0.60541 0.12447 0.23636 0.0
C797 C 0.66405 0.1079 0.21814 0.0
H798 H 0.65382 0.05955 0.26573 0.0
C799 C 0.73728 0.05024 0.25376 0.0
C800 C 0.73901 0.04988 0.27959 0.0
C801 C 0.71762 0.05883 0.24234 0.0
C802 C 0.6569 0.07295 0.25237 0.0
H803 H 0.60371 0.15101 0.17096 0.0
H804 H 0.63363 0.12358 0.18143 0.0
H805 H 0.62133 0.08102 0.24962 0.0
H806 H 0.72103 0.05711 0.31364 0.0
H807 H 0.68664 0.07168 0.29369 0.0
H808 H 0.69967 0.09979 0.22106 0.0
C809 C 0.62113 0.12804 0.19533 0.0
C810 C 0.63832 0.08535 0.24322 0.0
C811 C 0.60389 0.14368 0.18927 0.0
C812 C 0.72026 0.05723 0.29371 0.0
C813 C 0.70051 0.06547 0.2823 0.0
C814 C 0.68259 0.0953 0.22708 0.0
C815 C 0.62231 0.11849 0.21909 0.0
C816 C 0.6417 0.10341 0.22646 0.0
C817 C 0.69918 0.06682 0.25651 0.0
C818 C 0.67925 0.07807 0.24472 0.0
H819 H 0.57573 0.14442 0.24425 0.0
H820 H 0.60592 0.11786 0.25496 0.0
H821 H 0.66742 0.12184 0.20554 0.0
H822 H 0.75146 0.04477 0.24236 0.0
H823 H 0.71697 0.05957 0.22243 0.0
C824 C 0.44206 0.78239 0.20479 0.0
C825 C 0.44982 0.76519 0.22075 0.0
C826 C 0.433 0.8027 0.21412 0.0
C827 C 0.42538 0.83719 0.27158 0.0
H828 H 0.37255 0.85988 0.23601 0.0
C829 C 0.35866 0.90231 0.31016 0.0
C830 C 0.35159 0.91961 0.29384 0.0
C831 C 0.37325 0.88483 0.30212 0.0
C832 C 0.38742 0.8539 0.24602 0.0
H833 H 0.45495 0.75611 0.25904 0.0
H834 H 0.43837 0.79122 0.27542 0.0
H835 H 0.39326 0.82705 0.22026 0.0
H836 H 0.35517 0.93255 0.25655 0.0
H837 H 0.3803 0.90205 0.24265 0.0
H838 H 0.41868 0.86382 0.29786 0.0
C839 C 0.43973 0.78931 0.25565 0.0
C840 C 0.39942 0.83511 0.23693 0.0
C841 C 0.44918 0.76911 0.24627 0.0
C842 C 0.36011 0.91947 0.26962 0.0
C843 C 0.37446 0.90194 0.26158 0.0
C844 C 0.41312 0.85589 0.28087 0.0
C845 C 0.43101 0.80615 0.23968 0.0
C846 C 0.41866 0.82653 0.24946 0.0
C847 C 0.38084 0.88422 0.27758 0.0
C848 C 0.39409 0.86448 0.26808 0.0
H849 H 0.4426 0.77999 0.18502 0.0
H850 H 0.42713 0.81552 0.20121 0.0
H851 H 0.44021 0.83124 0.28163 0.0
H852 H 0.35249 0.90194 0.32895 0.0
H853 H 0.37785 0.87132 0.31482 0.0
C854 C 0.71792 0.44401 0.70966 0.0
C855 C 0.7352 0.45377 0.72426 0.0
C856 C 0.69789 0.43569 0.72043 0.0
C857 C 0.67803 0.40971 0.77694 0.0
H858 H 0.61752 0.41908 0.74963 0.0
C859 C 0.59986 0.36046 0.81464 0.0
C860 C 0.58432 0.35226 0.79697 0.0
C861 C 0.61669 0.37637 0.80809 0.0
C862 C 0.63431 0.4161 0.75738 0.0
H863 H 0.74469 0.46307 0.76156 0.0
H864 H 0.70978 0.44807 0.78041 0.0
H865 H 0.64983 0.44073 0.7334 0.0
H866 H 0.5741 0.35468 0.75864 0.0
H867 H 0.60368 0.38162 0.74713 0.0
H868 H 0.66298 0.38423 0.79999 0.0
C869 C 0.71178 0.44702 0.76061 0.0
C870 C 0.65277 0.42863 0.74815 0.0
C871 C 0.73168 0.45571 0.74979 0.0
C872 C 0.5857 0.3607 0.77279 0.0
C873 C 0.60263 0.37635 0.7662 0.0
C874 C 0.65964 0.39693 0.78595 0.0
C875 C 0.69485 0.43663 0.74606 0.0
C876 C 0.67487 0.42528 0.75757 0.0
C877 C 0.61852 0.38427 0.78368 0.0
C878 C 0.63759 0.39963 0.77597 0.0
H879 H 0.7201 0.44232 0.68993 0.0
H880 H 0.68519 0.42761 0.7088 0.0
H881 H 0.69495 0.40661 0.78436 0.0
H882 H 0.59917 0.35443 0.83347 0.0
H883 H 0.62837 0.38234 0.82216 0.0
C884 C 0.15021 0.60564 0.31505 0.0
C885 C 0.14971 0.58508 0.30164 0.0
C886 C 0.13624 0.62397 0.30825 0.0
C887 C 0.08573 0.64096 0.27167 0.0
H888 H 0.11943 0.69728 0.26143 0.0
C889 C 0.04577 0.72792 0.23986 0.0
C890 C 0.05754 0.73862 0.22042 0.0
C891 C 0.0549 0.70847 0.25128 0.0
C892 C 0.10979 0.68169 0.26428 0.0
H893 H 0.13303 0.56719 0.27158 0.0
H894 H 0.10854 0.59915 0.25991 0.0
H895 H 0.13848 0.66457 0.28025 0.0
H896 H 0.08785 0.73686 0.19737 0.0
H897 H 0.10375 0.70328 0.21748 0.0
H898 H 0.05709 0.6582 0.25528 0.0
C899 C 0.1198 0.60109 0.2756 0.0
C900 C 0.12062 0.66305 0.27526 0.0
C901 C 0.13395 0.58283 0.28221 0.0
C902 C 0.0783 0.72912 0.21229 0.0
C903 C 0.08752 0.70995 0.22389 0.0
C904 C 0.07477 0.65979 0.26097 0.0
C905 C 0.12127 0.62205 0.28811 0.0
C906 C 0.10883 0.64237 0.27873 0.0
C907 C 0.0761 0.69963 0.2437 0.0
C908 C 0.08686 0.68017 0.25675 0.0
H909 H 0.1621 0.60794 0.33014 0.0
H910 H 0.13755 0.63988 0.31836 0.0
H911 H 0.07624 0.62524 0.27421 0.0
H912 H 0.02972 0.73478 0.24653 0.0
H913 H 0.04577 0.70079 0.26654 0.0
C914 C 0.90392 0.14135 0.81497 0.0
C915 C 0.9192 0.14969 0.79712 0.0
C916 C 0.88694 0.12555 0.80855 0.0
C917 C 0.86839 0.08634 0.75776 0.0
H918 H 0.80814 0.09617 0.78559 0.0
C919 C 0.78418 0.05909 0.71084 0.0
C920 C 0.76692 0.04949 0.72559 0.0
C921 C 0.80435 0.06729 0.72145 0.0
C922 C 0.82494 0.09297 0.77793 0.0
H923 H 0.92884 0.14756 0.75859 0.0
H924 H 0.89903 0.12078 0.74732 0.0
H925 H 0.84048 0.11816 0.801 0.0
H926 H 0.75761 0.04037 0.76299 0.0
H927 H 0.79275 0.05513 0.78154 0.0
H928 H 0.8524 0.06198 0.73379 0.0
C929 C 0.90038 0.12588 0.76642 0.0
C930 C 0.84354 0.10553 0.78681 0.0
C931 C 0.91745 0.14145 0.77288 0.0
C932 C 0.77059 0.04762 0.7511 0.0
C933 C 0.79063 0.05616 0.76176 0.0
C934 C 0.84972 0.07403 0.74867 0.0
C935 C 0.88472 0.11788 0.78408 0.0
C936 C 0.86545 0.10271 0.77653 0.0
C937 C 0.80755 0.06637 0.74706 0.0
C938 C 0.82776 0.0775 0.75839 0.0
H939 H 0.9049 0.14722 0.83386 0.0
H940 H 0.87545 0.11949 0.82275 0.0
H941 H 0.88507 0.08328 0.74977 0.0
H942 H 0.78191 0.06073 0.69112 0.0
H943 H 0.81703 0.07523 0.7097 0.0
C944 C 0.52288 0.22208 0.09174 0.0
C945 C 0.54459 0.22012 0.10269 0.0
C946 C 0.52078 0.22833 0.06689 0.0
C947 C 0.55336 0.22981 0.00861 0.0
H948 H 0.51174 0.27821 0.98935 0.0
C949 C 0.56367 0.27569 0.91635 0.0
C950 C 0.54405 0.28087 0.9025 0.0
C951 C 0.56183 0.26793 0.94055 0.0
C952 C 0.52322 0.26445 0.99435 0.0
H953 H 0.58107 0.22285 0.09603 0.0
H954 H 0.57742 0.2335 0.05299 0.0
H955 H 0.51163 0.26426 0.03186 0.0
H956 H 0.50703 0.28251 0.90354 0.0
H957 H 0.50377 0.26871 0.946 0.0
H958 H 0.56511 0.22996 0.97138 0.0
C959 C 0.562 0.23016 0.06345 0.0
C960 C 0.52314 0.25646 0.0187 0.0
C961 C 0.56409 0.22417 0.08821 0.0
C962 C 0.52248 0.27869 0.91373 0.0
C963 C 0.52062 0.27083 0.93806 0.0
C964 C 0.55339 0.23771 0.98437 0.0
C965 C 0.54036 0.23242 0.05248 0.0
C966 C 0.53857 0.23938 0.0262 0.0
C967 C 0.5403 0.26498 0.95161 0.0
C968 C 0.5387 0.25548 0.97702 0.0
H969 H 0.50753 0.21915 0.10243 0.0
H970 H 0.50387 0.22982 0.05891 0.0
H971 H 0.56514 0.21631 0.01368 0.0
H972 H 0.58058 0.27736 0.90839 0.0
H973 H 0.57738 0.26415 0.95059 0.0
C974 C 0.22221 0.51871 0.41514 0.0
C975 C 0.2209 0.54029 0.40383 0.0
C976 C 0.23019 0.51662 0.43941 0.0
C977 C 0.26504 0.54818 0.48526 0.0
H978 H 0.23688 0.50803 0.53328 0.0
C979 C 0.27874 0.55949 0.58898 0.0
C980 C 0.28208 0.54004 0.60371 0.0
C981 C 0.27281 0.55734 0.56421 0.0
C982 C 0.24513 0.51907 0.51996 0.0
H983 H 0.22606 0.57665 0.40949 0.0
H984 H 0.23945 0.57307 0.45157 0.0
H985 H 0.22279 0.50835 0.49082 0.0
H986 H 0.28187 0.50298 0.60391 0.0
H987 H 0.27127 0.49921 0.56036 0.0
H988 H 0.287 0.55929 0.51439 0.0
C989 C 0.23493 0.55766 0.44165 0.0
C990 C 0.23706 0.51927 0.49565 0.0
C991 C 0.22706 0.55973 0.41751 0.0
C992 C 0.2795 0.51829 0.593 0.0
C993 C 0.2733 0.51613 0.56815 0.0
C994 C 0.27301 0.54804 0.50948 0.0
C995 C 0.23701 0.53608 0.4528 0.0
C996 C 0.24661 0.53421 0.47814 0.0
C997 C 0.26988 0.53567 0.5535 0.0
C998 C 0.26287 0.53384 0.52725 0.0
H999 H 0.21762 0.5034 0.40506 0.0
H1000 H 0.23162 0.49973 0.44743 0.0
H1001 H 0.27323 0.55945 0.47213 0.0
H1002 H 0.28055 0.57651 0.59662 0.0
H1003 H 0.27001 0.57274 0.55355 0.0
C1004 C 0.94069 0.28102 0.08718 0.0
C1005 C 0.96006 0.28374 0.10221 0.0
C1006 C 0.94294 0.27466 0.06255 0.0
C1007 C 0.98119 0.24539 0.01912 0.0
H1008 H 0.94136 0.27324 0.97058 0.0
C1009 C 0.98206 0.22206 0.91428 0.0
C1010 C 0.96045 0.22036 0.90303 0.0
C1011 C 0.98409 0.23012 0.93853 0.0
C1012 C 0.95249 0.26515 0.98392 0.0
H1013 H 0.99709 0.28201 0.10303 0.0
H1014 H 1.00104 0.27079 0.0597 0.0
H1015 H 0.94145 0.28761 0.01261 0.0
H1016 H 0.92401 0.22492 0.90882 0.0
H1017 H 0.92753 0.23858 0.95083 0.0
H1018 H 0.99194 0.22266 0.9903 0.0
C1019 C 0.98409 0.27355 0.06716 0.0
C1020 C 0.95257 0.27343 0.00802 0.0
C1021 C 0.98183 0.28012 0.09191 0.0
C1022 C 0.94095 0.22619 0.91678 0.0
C1023 C 0.94297 0.23421 0.94087 0.0
C1024 C 0.9811 0.23706 0.99489 0.0
C1025 C 0.96463 0.27074 0.05222 0.0
C1026 C 0.96654 0.26336 0.02606 0.0
C1027 C 0.96455 0.23668 0.95193 0.0
C1028 C 0.96635 0.24653 0.97716 0.0
H1029 H 0.92366 0.28361 0.09449 0.0
H1030 H 0.92758 0.27231 0.0517 0.0
H1031 H 0.99206 0.23718 0.03262 0.0
H1032 H 0.99742 0.21772 0.90417 0.0
H1033 H 1.00097 0.23185 0.94652 0.0
C1034 C 0.28071 0.94083 0.41736 0.0
C1035 C 0.28508 0.96053 0.40334 0.0
C1036 C 0.27309 0.94256 0.44163 0.0
C1037 C 0.26811 0.98143 0.49514 0.0
H1038 H 0.22114 0.93817 0.51446 0.0
C1039 C 0.22449 0.98156 0.5919 0.0
C1040 C 0.22303 0.95995 0.60314 0.0
C1041 C 0.23105 0.98355 0.56714 0.0
C1042 C 0.23432 0.95031 0.5094 0.0
H1043 H 0.28554 0.99758 0.40412 0.0
H1044 H 0.27197 1.00064 0.44669 0.0
H1045 H 0.2352 0.93821 0.47232 0.0
H1046 H 0.22702 0.9235 0.59708 0.0
H1047 H 0.23821 0.92695 0.55418 0.0
H1048 H 0.26716 0.99341 0.5325 0.0
C1049 C 0.27462 0.98382 0.43885 0.0
C1050 C 0.24245 0.95029 0.48525 0.0
C1051 C 0.28237 0.98208 0.41446 0.0
C1052 C 0.22792 0.94042 0.58903 0.0
C1053 C 0.23424 0.94238 0.56435 0.0
C1054 C 0.25987 0.9815 0.5194 0.0
C1055 C 0.26946 0.96405 0.45255 0.0
C1056 C 0.2598 0.96549 0.47791 0.0
C1057 C 0.23598 0.96393 0.5531 0.0
C1058 C 0.24321 0.96561 0.5269 0.0
H1059 H 0.28283 0.92395 0.40948 0.0
H1060 H 0.26987 0.92697 0.4518 0.0
H1061 H 0.28152 0.99331 0.49014 0.0
H1062 H 0.2209 0.99694 0.60232 0.0
H1063 H 0.23212 1.00038 0.55893 0.0
C1064 C 0.4803 0.7771 0.91338 0.0
C1065 C 0.45862 0.77871 0.9023 0.0
C1066 C 0.48255 0.7688 0.93751 0.0
C1067 C 0.45128 0.73357 0.98319 0.0
H1068 H 0.49164 0.76137 0.03126 0.0
C1069 C 0.44043 0.71913 0.08686 0.0
C1070 C 0.45995 0.71609 0.10159 0.0
C1071 C 0.44249 0.72503 0.06208 0.0
C1072 C 0.48055 0.7532 0.01793 0.0
H1073 H 0.42227 0.77366 0.90822 0.0
H1074 H 0.42614 0.75966 0.95005 0.0
H1075 H 0.4911 0.7758 0.98895 0.0
H1076 H 0.49701 0.71669 0.10174 0.0
H1077 H 0.50062 0.7272 0.05816 0.0
H1078 H 0.44035 0.71133 0.01215 0.0
C1079 C 0.44149 0.76424 0.94005 0.0
C1080 C 0.48022 0.76148 0.9937 0.0
C1081 C 0.43926 0.77247 0.91607 0.0
C1082 C 0.48165 0.71883 0.09084 0.0
C1083 C 0.48372 0.72499 0.06596 0.0
C1084 C 0.45156 0.72538 0.00732 0.0
C1085 C 0.46316 0.76192 0.95097 0.0
C1086 C 0.46519 0.75207 0.97618 0.0
C1087 C 0.46411 0.72821 0.05134 0.0
C1088 C 0.46583 0.73539 0.02512 0.0
H1089 H 0.49556 0.78175 0.90325 0.0
H1090 H 0.49949 0.76718 0.94536 0.0
H1091 H 0.43993 0.7255 0.97004 0.0
H1092 H 0.42345 0.71719 0.09454 0.0
H1093 H 0.42704 0.72767 0.05144 0.0
C1094 C 0.78031 0.4829 0.59237 0.0
C1095 C 0.78253 0.46129 0.60347 0.0
C1096 C 0.77423 0.48477 0.56746 0.0
C1097 C 0.77344 0.45192 0.50931 0.0
H1098 H 0.72434 0.49263 0.48982 0.0
C1099 C 0.72779 0.44057 0.41699 0.0
C1100 C 0.72223 0.46006 0.40312 0.0
C1101 C 0.73554 0.4426 0.44118 0.0
C1102 C 0.7383 0.48141 0.49488 0.0
H1103 H 0.78051 0.42474 0.59699 0.0
H1104 H 0.77016 0.428 0.55381 0.0
H1105 H 0.73826 0.49314 0.53234 0.0
H1106 H 0.7199 0.49703 0.40408 0.0
H1107 H 0.73369 0.50063 0.44652 0.0
H1108 H 0.77352 0.44003 0.47212 0.0
C1109 C 0.77316 0.44352 0.56422 0.0
C1110 C 0.74627 0.48172 0.51923 0.0
C1111 C 0.77898 0.44166 0.58905 0.0
C1112 C 0.72402 0.48168 0.4143 0.0
C1113 C 0.73187 0.48373 0.43862 0.0
C1114 C 0.76556 0.45167 0.48505 0.0
C1115 C 0.77056 0.46506 0.55313 0.0
C1116 C 0.76362 0.46661 0.52682 0.0
C1117 C 0.73809 0.4642 0.45221 0.0
C1118 C 0.74755 0.46603 0.47763 0.0
H1119 H 0.78286 0.49834 0.60302 0.0
H1120 H 0.77249 0.5016 0.55938 0.0
H1121 H 0.78714 0.4404 0.51444 0.0
H1122 H 0.72643 0.42362 0.40907 0.0
H1123 H 0.73961 0.42715 0.45126 0.0
C1124 C 0.06369 0.77861 0.08774 0.0
C1125 C 0.04426 0.78359 0.10198 0.0
C1126 C 0.0615 0.77032 0.06378 0.0
C1127 C 0.02236 0.76526 0.01084 0.0
H1128 H 0.06365 0.71621 0.99261 0.0
C1129 C 0.02123 0.72152 0.91423 0.0
C1130 C 0.04289 0.71858 0.90343 0.0
C1131 C 0.01926 0.72815 0.93898 0.0
C1132 C 0.05206 0.72998 0.99733 0.0
H1133 H 0.00719 0.7844 0.10184 0.0
H1134 H 0.00334 0.76983 0.05971 0.0
H1135 H 0.06412 0.73102 0.03446 0.0
H1136 H 0.07942 0.72 0.91028 0.0
H1137 H 0.076 0.73144 0.95306 0.0
H1138 H 0.01057 0.76434 0.97342 0.0
C1139 C 0.0203 0.77243 0.06722 0.0
C1140 C 0.05236 0.7385 0.02133 0.0
C1141 C 0.0225 0.78075 0.09135 0.0
C1142 C 0.06246 0.72204 0.91798 0.0
C1143 C 0.0605 0.72849 0.94261 0.0
C1144 C 0.02207 0.7567 0.98671 0.0
C1145 C 0.03981 0.76672 0.05334 0.0
C1146 C 0.03788 0.75658 0.02827 0.0
C1147 C 0.03891 0.73174 0.95343 0.0
C1148 C 0.03729 0.73928 0.97957 0.0
H1149 H 0.08073 0.78075 0.09523 0.0
H1150 H 0.07689 0.7666 0.05342 0.0
H1151 H 0.01103 0.77923 0.01557 0.0
H1152 H 0.00582 0.71905 0.90349 0.0
H1153 H 0.00238 0.73038 0.94683 0.0
C1154 C 0.72245 0.05952 0.58986 0.0
C1155 C 0.71966 0.04004 0.6047 0.0
C1156 C 0.72801 0.05741 0.56499 0.0
C1157 C 0.75571 0.0196 0.52038 0.0
H1158 H 0.72594 0.05907 0.47285 0.0
C1159 C 0.77763 0.01933 0.41538 0.0
C1160 C 0.77825 0.04087 0.40389 0.0
C1161 C 0.76979 0.01715 0.43969 0.0
C1162 C 0.73459 0.04806 0.48589 0.0
H1163 H 0.72046 0.00299 0.60497 0.0
H1164 H 0.73046 0.9993 0.56124 0.0
H1165 H 0.71286 0.05882 0.51537 0.0
H1166 H 0.7719 0.07707 0.40927 0.0
H1167 H 0.75878 0.07337 0.45143 0.0
H1168 H 0.77786 0.00929 0.49091 0.0
C1169 C 0.72827 0.01621 0.56903 0.0
C1170 C 0.72702 0.04787 0.51026 0.0
C1171 C 0.72241 0.01832 0.59399 0.0
C1172 C 0.77145 0.06018 0.41742 0.0
C1173 C 0.76373 0.05803 0.44161 0.0
C1174 C 0.76341 0.01988 0.49592 0.0
C1175 C 0.73112 0.03577 0.55428 0.0
C1176 C 0.73776 0.03399 0.52791 0.0
C1177 C 0.76244 0.03648 0.45298 0.0
C1178 C 0.75324 0.0345 0.4785 0.0
H1179 H 0.72047 0.07651 0.5975 0.0
H1180 H 0.73037 0.07282 0.55423 0.0
H1181 H 0.76442 0.00882 0.5336 0.0
H1182 H 0.78272 0.00411 0.40543 0.0
H1183 H 0.76896 1.00029 0.44786 0.0
loop_
_geom_bond_atom_site_label_1
_geom_bond_atom_site_label_2
_geom_bond_distance
_geom_bond_site_symmetry_2
_ccdc_geom_bond_type
O0 Cd1 2.223 . S
O0 C8 1.315 . S
Cd1 O0 2.223 . S
Cd1 O4 2.297 . S
Cd1 O5 2.439 . S
Cd1 O11 2.240 . S
Cd2 O3 2.240 . S
Cd2 O10 2.223 . S
Cd2 O12 2.297 . S
Cd2 O13 2.439 . S
O3 Cd2 2.240 . S
O3 C8 1.279 . S
O4 Cd1 2.297 . S
O4 C6 1.247 . S
O5 Cd1 2.439 . S
O5 C6 1.208 . S
C6 O4 1.247 . S
C6 O5 1.208 . S
C7 O12 1.247 . S
C7 O13 1.208 . S
C8 O0 1.315 . S
C8 O3 1.279 . S
C9 O10 1.315 . S
C9 O11 1.279 . S
O10 Cd2 2.223 . S
O10 C9 1.315 . S
O11 Cd1 2.240 . S
O11 C9 1.279 . S
O12 Cd2 2.297 . S
O12 C7 1.247 . S
O13 Cd2 2.439 . S
O13 C7 1.208 . S
O14 Cd15 2.223 . S
O14 C22 1.315 . S
Cd15 O14 2.223 . S
Cd15 O18 2.297 . S
Cd15 O19 2.439 . S
Cd15 O25 2.240 . S
Cd16 O17 2.240 . S
Cd16 O24 2.223 . S
Cd16 O26 2.297 . S
Cd16 O27 2.439 . S
O17 Cd16 2.240 . S
O17 C22 1.279 . S
O18 Cd15 2.297 . S
O18 C20 1.247 . S
O19 Cd15 2.439 . S
O19 C20 1.208 . S
C20 O18 1.247 . S
C20 O19 1.208 . S
C21 O26 1.247 . S
C21 O27 1.208 . S
C22 O14 1.315 . S
C22 O17 1.279 . S
C23 O24 1.315 . S
C23 O25 1.279 . S
O24 Cd16 2.223 . S
O24 C23 1.315 . S
O25 Cd15 2.240 . S
O25 C23 1.279 . S
O26 Cd16 2.297 . S
O26 C21 1.247 . S
O27 Cd16 2.439 . S
O27 C21 1.208 . S
O28 Cd29 2.223 . S
O28 C36 1.315 . S
Cd29 O28 2.223 . S
Cd29 O32 2.297 . S
Cd29 O33 2.439 . S
Cd29 O39 2.240 . S
Cd30 O31 2.240 . S
Cd30 O38 2.223 . S
Cd30 O40 2.297 . S
Cd30 O41 2.439 . S
O31 Cd30 2.240 . S
O31 C36 1.279 . S
O32 Cd29 2.297 . S
O32 C34 1.247 . S
O33 Cd29 2.439 . S
O33 C34 1.208 . S
C34 O32 1.247 . S
C34 O33 1.208 . S
C35 O40 1.247 1_455 S
C35 O41 1.208 1_455 S
C36 O28 1.315 . S
C36 O31 1.279 . S
C37 O38 1.315 . S
C37 O39 1.279 . S
O38 Cd30 2.223 . S
O38 C37 1.315 . S
O39 Cd29 2.240 . S
O39 C37 1.279 . S
O40 Cd30 2.297 . S
O40 C35 1.247 1_655 S
O41 Cd30 2.439 . S
O41 C35 1.208 1_655 S
O42 Cd43 2.223 . S
O42 C50 1.315 . S
Cd43 O42 2.223 . S
Cd43 O46 2.297 . S
Cd43 O47 2.439 . S
Cd43 O53 2.240 . S
Cd44 O45 2.240 . S
Cd44 O52 2.223 . S
Cd44 O54 2.297 . S
Cd44 O55 2.439 . S
O45 Cd44 2.240 . S
O45 C50 1.279 . S
O46 Cd43 2.297 . S
O46 C48 1.247 1_565 S
O47 Cd43 2.439 . S
O47 C48 1.208 1_565 S
C48 O46 1.247 1_545 S
C48 O47 1.208 1_545 S
C49 O54 1.247 . S
C49 O55 1.208 . S
C50 O42 1.315 . S
C50 O45 1.279 . S
C51 O52 1.315 . S
C51 O53 1.279 . S
O52 Cd44 2.223 . S
O52 C51 1.315 . S
O53 Cd43 2.240 . S
O53 C51 1.279 . S
O54 Cd44 2.297 . S
O54 C49 1.247 . S
O55 Cd44 2.439 . S
O55 C49 1.208 . S
O56 Cd57 2.223 . S
O56 C64 1.315 . S
Cd57 O56 2.223 . S
Cd57 O60 2.297 . S
Cd57 O61 2.439 . S
Cd57 O67 2.240 . S
Cd58 O59 2.240 . S
Cd58 O66 2.223 . S
Cd58 O68 2.297 . S
Cd58 O69 2.439 . S
O59 Cd58 2.240 . S
O59 C64 1.279 . S
O60 Cd57 2.297 . S
O60 C62 1.247 . S
O61 Cd57 2.439 . S
O61 C62 1.208 . S
C62 O60 1.247 . S
C62 O61 1.208 . S
C63 O68 1.247 . S
C63 O69 1.208 . S
C64 O56 1.315 . S
C64 O59 1.279 . S
C65 O66 1.315 . S
C65 O67 1.279 . S
O66 Cd58 2.223 . S
O66 C65 1.315 . S
O67 Cd57 2.240 . S
O67 C65 1.279 . S
O68 Cd58 2.297 . S
O68 C63 1.247 . S
O69 Cd58 2.439 . S
O69 C63 1.208 . S
O70 Cd71 2.223 . S
O70 C78 1.315 . S
Cd71 O70 2.223 . S
Cd71 O74 2.297 . S
Cd71 O75 2.439 . S
Cd71 O81 2.240 . S
Cd72 O73 2.240 . S
Cd72 O80 2.223 . S
Cd72 O82 2.297 . S
Cd72 O83 2.439 . S
O73 Cd72 2.240 . S
O73 C78 1.279 . S
O74 Cd71 2.297 . S
O74 C76 1.247 . S
O75 Cd71 2.439 . S
O75 C76 1.208 . S
C76 O74 1.247 . S
C76 O75 1.208 . S
C77 O82 1.247 . S
C77 O83 1.208 . S
C78 O70 1.315 . S
C78 O73 1.279 . S
C79 O80 1.315 . S
C79 O81 1.279 . S
O80 Cd72 2.223 . S
O80 C79 1.315 . S
O81 Cd71 2.240 . S
O81 C79 1.279 . S
O82 Cd72 2.297 . S
O82 C77 1.247 . S
O83 Cd72 2.439 . S
O83 C77 1.208 . S
O84 Cd85 2.223 . S
O84 C92 1.315 . S
Cd85 O84 2.223 . S
Cd85 O88 2.297 . S
Cd85 O89 2.439 . S
Cd85 O95 2.240 . S
Cd86 O87 2.240 . S
Cd86 O94 2.223 . S
Cd86 O96 2.297 . S
Cd86 O97 2.439 . S
O87 Cd86 2.240 . S
O87 C92 1.279 . S
O88 Cd85 2.297 . S
O88 C90 1.247 . S
O89 Cd85 2.439 . S
O89 C90 1.208 . S
C90 O88 1.247 . S
C90 O89 1.208 . S
C91 O96 1.247 1_455 S
C91 O97 1.208 1_455 S
C92 O84 1.315 . S
C92 O87 1.279 . S
C93 O94 1.315 . S
C93 O95 1.279 . S
O94 Cd86 2.223 . S
O94 C93 1.315 . S
O95 Cd85 2.240 . S
O95 C93 1.279 . S
O96 Cd86 2.297 . S
O96 C91 1.247 1_655 S
O97 Cd86 2.439 . S
O97 C91 1.208 1_655 S
O98 Cd99 2.223 . S
O98 C106 1.315 . S
Cd99 O98 2.223 . S
Cd99 O102 2.297 . S
Cd99 O103 2.439 . S
Cd99 O109 2.240 . S
Cd100 O101 2.240 . S
Cd100 O108 2.223 . S
Cd100 O110 2.297 . S
Cd100 O111 2.439 . S
O101 Cd100 2.240 . S
O101 C106 1.279 . S
O102 Cd99 2.297 . S
O102 C104 1.247 1_565 S
O103 Cd99 2.439 . S
O103 C104 1.208 1_565 S
C104 O102 1.247 1_545 S
C104 O103 1.208 1_545 S
C105 O110 1.247 . S
C105 O111 1.208 . S
C106 O98 1.315 . S
C106 O101 1.279 . S
C107 O108 1.315 . S
C107 O109 1.279 . S
O108 Cd100 2.223 . S
O108 C107 1.315 . S
O109 Cd99 2.240 . S
O109 C107 1.279 . S
O110 Cd100 2.297 . S
O110 C105 1.247 . S
O111 Cd100 2.439 . S
O111 C105 1.208 . S
O112 Cd113 2.223 . S
O112 C120 1.315 . S
Cd113 O112 2.223 . S
Cd113 O116 2.297 . S
Cd113 O117 2.439 . S
Cd113 O123 2.240 . S
Cd114 O115 2.240 . S
Cd114 O122 2.223 . S
Cd114 O124 2.297 . S
Cd114 O125 2.439 . S
O115 Cd114 2.240 . S
O115 C120 1.279 . S
O116 Cd113 2.297 . S
O116 C118 1.247 . S
O117 Cd113 2.439 . S
O117 C118 1.208 . S
C118 O116 1.247 . S
C118 O117 1.208 . S
C119 O124 1.247 . S
C119 O125 1.208 . S
C120 O112 1.315 . S
C120 O115 1.279 . S
C121 O122 1.315 . S
C121 O123 1.279 . S
O122 Cd114 2.223 . S
O122 C121 1.315 . S
O123 Cd113 2.240 . S
O123 C121 1.279 . S
O124 Cd114 2.297 . S
O124 C119 1.247 . S
O125 Cd114 2.439 . S
O125 C119 1.208 . S
O126 Cd127 2.223 . S
O126 C134 1.315 . S
Cd127 O126 2.223 . S
Cd127 O130 2.297 . S
Cd127 O131 2.439 . S
Cd127 O137 2.240 . S
Cd128 O129 2.240 . S
Cd128 O136 2.223 . S
Cd128 O138 2.297 . S
Cd128 O139 2.439 . S
O129 Cd128 2.240 . S
O129 C134 1.279 . S
O130 Cd127 2.297 . S
O130 C132 1.247 . S
O131 Cd127 2.439 . S
O131 C132 1.208 . S
C132 O130 1.247 . S
C132 O131 1.208 . S
C133 O138 1.247 . S
C133 O139 1.208 . S
C134 O126 1.315 . S
C134 O129 1.279 . S
C135 O136 1.315 . S
C135 O137 1.279 . S
O136 Cd128 2.223 . S
O136 C135 1.315 . S
O137 Cd127 2.240 . S
O137 C135 1.279 . S
O138 Cd128 2.297 . S
O138 C133 1.247 . S
O139 Cd128 2.439 . S
O139 C133 1.208 . S
O140 Cd141 2.223 . S
O140 C148 1.315 . S
Cd141 O140 2.223 . S
Cd141 O144 2.297 . S
Cd141 O145 2.439 . S
Cd141 O151 2.240 . S
Cd142 O143 2.240 . S
Cd142 O150 2.223 . S
Cd142 O152 2.297 . S
Cd142 O153 2.439 . S
O143 Cd142 2.240 . S
O143 C148 1.279 . S
O144 Cd141 2.297 . S
O144 C146 1.247 1_455 S
O145 Cd141 2.439 . S
O145 C146 1.208 1_455 S
C146 O144 1.247 1_655 S
C146 O145 1.208 1_655 S
C147 O152 1.247 . S
C147 O153 1.208 . S
C148 O140 1.315 . S
C148 O143 1.279 . S
C149 O150 1.315 . S
C149 O151 1.279 . S
O150 Cd142 2.223 . S
O150 C149 1.315 . S
O151 Cd141 2.240 . S
O151 C149 1.279 . S
O152 Cd142 2.297 . S
O152 C147 1.247 . S
O153 Cd142 2.439 . S
O153 C147 1.208 . S
O154 Cd155 2.223 . S
O154 C162 1.315 . S
Cd155 O154 2.223 . S
Cd155 O158 2.297 . S
Cd155 O159 2.439 . S
Cd155 O165 2.240 . S
Cd156 O157 2.240 . S
Cd156 O164 2.223 . S
Cd156 O166 2.297 . S
Cd156 O167 2.439 . S
O157 Cd156 2.240 . S
O157 C162 1.279 . S
O158 Cd155 2.297 . S
O158 C160 1.247 1_545 S
O159 Cd155 2.439 . S
O159 C160 1.208 1_545 S
C160 O158 1.247 1_565 S
C160 O159 1.208 1_565 S
C161 O166 1.247 . S
C161 O167 1.208 . S
C162 O154 1.315 . S
C162 O157 1.279 . S
C163 O164 1.315 . S
C163 O165 1.279 . S
O164 Cd156 2.223 . S
O164 C163 1.315 . S
O165 Cd155 2.240 . S
O165 C163 1.279 . S
O166 Cd156 2.297 . S
O166 C161 1.247 . S
O167 Cd156 2.439 . S
O167 C161 1.208 . S
O168 Cd169 2.223 . S
O168 C176 1.315 . S
Cd169 O168 2.223 . S
Cd169 O172 2.297 . S
Cd169 O173 2.439 . S
Cd169 O179 2.240 . S
Cd170 O171 2.240 . S
Cd170 O178 2.223 . S
Cd170 O180 2.297 . S
Cd170 O181 2.439 . S
O171 Cd170 2.240 . S
O171 C176 1.279 . S
O172 Cd169 2.297 . S
O172 C174 1.247 . S
O173 Cd169 2.439 . S
O173 C174 1.208 . S
C174 O172 1.247 . S
C174 O173 1.208 . S
C175 O180 1.247 . S
C175 O181 1.208 . S
C176 O168 1.315 . S
C176 O171 1.279 . S
C177 O178 1.315 . S
C177 O179 1.279 . S
O178 Cd170 2.223 . S
O178 C177 1.315 . S
O179 Cd169 2.240 . S
O179 C177 1.279 . S
O180 Cd170 2.297 . S
O180 C175 1.247 . S
O181 Cd170 2.439 . S
O181 C175 1.208 . S
O182 Cd183 2.223 . S
O182 C190 1.315 . S
Cd183 O182 2.223 . S
Cd183 O186 2.297 . S
Cd183 O187 2.439 . S
Cd183 O193 2.240 . S
Cd184 O185 2.240 . S
Cd184 O192 2.223 . S
Cd184 O194 2.297 . S
Cd184 O195 2.439 . S
O185 Cd184 2.240 . S
O185 C190 1.279 . S
O186 Cd183 2.297 . S
O186 C188 1.247 . S
O187 Cd183 2.439 . S
O187 C188 1.208 . S
C188 O186 1.247 . S
C188 O187 1.208 . S
C189 O194 1.247 . S
C189 O195 1.208 . S
C190 O182 1.315 . S
C190 O185 1.279 . S
C191 O192 1.315 . S
C191 O193 1.279 . S
O192 Cd184 2.223 . S
O192 C191 1.315 . S
O193 Cd183 2.240 . S
O193 C191 1.279 . S
O194 Cd184 2.297 . S
O194 C189 1.247 . S
O195 Cd184 2.439 . S
O195 C189 1.208 . S
O196 Cd197 2.223 . S
O196 C204 1.315 . S
Cd197 O196 2.223 . S
Cd197 O200 2.297 . S
Cd197 O201 2.439 . S
Cd197 O207 2.240 . S
Cd198 O199 2.240 . S
Cd198 O206 2.223 . S
Cd198 O208 2.297 . S
Cd198 O209 2.439 . S
O199 Cd198 2.240 . S
O199 C204 1.279 . S
O200 Cd197 2.297 . S
O200 C202 1.247 1_455 S
O201 Cd197 2.439 . S
O201 C202 1.208 1_455 S
C202 O200 1.247 1_655 S
C202 O201 1.208 1_655 S
C203 O208 1.247 . S
C203 O209 1.208 . S
C204 O196 1.315 . S
C204 O199 1.279 . S
C205 O206 1.315 . S
C205 O207 1.279 . S
O206 Cd198 2.223 . S
O206 C205 1.315 . S
O207 Cd197 2.240 . S
O207 C205 1.279 . S
O208 Cd198 2.297 . S
O208 C203 1.247 . S
O209 Cd198 2.439 . S
O209 C203 1.208 . S
O210 Cd211 2.223 . S
O210 C218 1.315 . S
Cd211 O210 2.223 . S
Cd211 O214 2.297 . S
Cd211 O215 2.439 . S
Cd211 O221 2.240 . S
Cd212 O213 2.240 . S
Cd212 O220 2.223 . S
Cd212 O222 2.297 . S
Cd212 O223 2.439 . S
O213 Cd212 2.240 . S
O213 C218 1.279 . S
O214 Cd211 2.297 . S
O214 C216 1.247 1_545 S
O215 Cd211 2.439 . S
O215 C216 1.208 1_545 S
C216 O214 1.247 1_565 S
C216 O215 1.208 1_565 S
C217 O222 1.247 . S
C217 O223 1.208 . S
C218 O210 1.315 . S
C218 O213 1.279 . S
C219 O220 1.315 . S
C219 O221 1.279 . S
O220 Cd212 2.223 . S
O220 C219 1.315 . S
O221 Cd211 2.240 . S
O221 C219 1.279 . S
O222 Cd212 2.297 . S
O222 C217 1.247 . S
O223 Cd212 2.439 . S
O223 C217 1.208 . S
C224 C225 1.349 . S
C224 C226 1.327 . S
C224 H249 0.950 . S
C225 C224 1.349 . S
C225 C241 1.349 . S
C226 C224 1.327 . S
C226 C245 1.429 . S
C226 H250 0.950 . S
C227 C244 1.574 . S
C227 C246 1.368 . S
C227 H251 0.949 . S
H228 C232 0.949 . S
C229 C230 1.349 . S
C229 C231 1.327 . S
C229 H252 0.950 1_545 S
C230 C229 1.349 . S
C230 C242 1.349 . S
C231 C229 1.327 . S
C231 C247 1.429 . S
C231 H253 0.950 . S
C232 H228 0.949 . S
C232 C240 1.574 . S
C232 C248 1.368 . S
H233 C241 0.950 . S
H234 C239 0.950 . S
H235 C240 0.949 . S
H236 C242 0.950 . S
H237 C243 0.950 . S
H238 C244 0.949 . S
C239 H234 0.950 . S
C239 C241 1.327 . S
C239 C245 1.429 . S
C240 C232 1.574 . S
C240 H235 0.949 . S
C240 C246 1.368 . S
C241 C225 1.349 . S
C241 H233 0.950 . S
C241 C239 1.327 . S
C242 C230 1.349 . S
C242 H236 0.950 . S
C242 C243 1.327 . S
C243 H237 0.950 . S
C243 C242 1.327 . S
C243 C247 1.429 . S
C244 C227 1.574 . S
C244 H238 0.949 . S
C244 C248 1.368 . S
C245 C226 1.429 . S
C245 C239 1.429 . S
C245 C246 1.523 . S
C246 C227 1.368 . S
C246 C240 1.368 . S
C246 C245 1.523 . S
C247 C231 1.429 . S
C247 C243 1.429 . S
C247 C248 1.523 . S
C248 C232 1.368 . S
C248 C244 1.368 . S
C248 C247 1.523 . S
H249 C224 0.950 . S
H250 C226 0.950 . S
H251 C227 0.949 . S
H252 C229 0.950 1_565 S
H253 C231 0.950 . S
C254 C255 1.349 . S
C254 C256 1.327 . S
C254 H279 0.950 . S
C255 C254 1.349 . S
C255 C271 1.349 . S
C256 C254 1.327 . S
C256 C275 1.429 . S
C256 H280 0.950 . S
C257 C274 1.574 . S
C257 C276 1.368 . S
C257 H281 0.949 . S
H258 C262 0.949 . S
C259 C260 1.349 . S
C259 C261 1.327 . S
C259 H282 0.950 . S
C260 C259 1.349 . S
C260 C272 1.349 . S
C261 C259 1.327 . S
C261 C277 1.429 . S
C261 H283 0.950 . S
C262 H258 0.949 . S
C262 C270 1.574 . S
C262 C278 1.368 . S
H263 C271 0.950 . S
H264 C269 0.950 . S
H265 C270 0.949 . S
H266 C272 0.950 . S
H267 C273 0.950 . S
H268 C274 0.949 . S
C269 H264 0.950 . S
C269 C271 1.327 . S
C269 C275 1.429 . S
C270 C262 1.574 . S
C270 H265 0.949 . S
C270 C276 1.368 . S
C271 C255 1.349 . S
C271 H263 0.950 . S
C271 C269 1.327 . S
C272 C260 1.349 . S
C272 H266 0.950 . S
C272 C273 1.327 . S
C273 H267 0.950 . S
C273 C272 1.327 . S
C273 C277 1.429 . S
C274 C257 1.574 . S
C274 H268 0.949 . S
C274 C278 1.368 . S
C275 C256 1.429 . S
C275 C269 1.429 . S
C275 C276 1.523 . S
C276 C257 1.368 . S
C276 C270 1.368 . S
C276 C275 1.523 . S
C277 C261 1.429 . S
C277 C273 1.429 . S
C277 C278 1.523 . S
C278 C262 1.368 . S
C278 C274 1.368 . S
C278 C277 1.523 . S
H279 C254 0.950 . S
H280 C256 0.950 . S
H281 C257 0.949 . S
H282 C259 0.950 . S
H283 C261 0.950 . S
C284 C285 1.349 . S
C284 C286 1.327 . S
C284 H309 0.950 . S
C285 C284 1.349 . S
C285 C301 1.349 . S
C286 C284 1.327 . S
C286 C305 1.429 . S
C286 H310 0.950 . S
C287 C304 1.574 . S
C287 C306 1.368 . S
C287 H311 0.949 . S
H288 C292 0.949 . S
C289 C290 1.349 . S
C289 C291 1.327 . S
C289 H312 0.950 . S
C290 C289 1.349 . S
C290 C302 1.349 . S
C291 C289 1.327 . S
C291 C307 1.429 . S
C291 H313 0.950 . S
C292 H288 0.949 . S
C292 C300 1.574 . S
C292 C308 1.368 . S
H293 C301 0.950 1_655 S
H294 C299 0.950 . S
H295 C300 0.949 . S
H296 C302 0.950 . S
H297 C303 0.950 . S
H298 C304 0.949 . S
C299 H294 0.950 . S
C299 C301 1.327 . S
C299 C305 1.429 . S
C300 C292 1.574 . S
C300 H295 0.949 . S
C300 C306 1.368 . S
C301 C285 1.349 . S
C301 H293 0.950 1_455 S
C301 C299 1.327 . S
C302 C290 1.349 . S
C302 H296 0.950 . S
C302 C303 1.327 . S
C303 H297 0.950 . S
C303 C302 1.327 . S
C303 C307 1.429 . S
C304 C287 1.574 . S
C304 H298 0.949 . S
C304 C308 1.368 . S
C305 C286 1.429 . S
C305 C299 1.429 . S
C305 C306 1.523 . S
C306 C287 1.368 . S
C306 C300 1.368 . S
C306 C305 1.523 . S
C307 C291 1.429 . S
C307 C303 1.429 . S
C307 C308 1.523 . S
C308 C292 1.368 . S
C308 C304 1.368 . S
C308 C307 1.523 . S
H309 C284 0.950 . S
H310 C286 0.950 . S
H311 C287 0.949 . S
H312 C289 0.950 . S
H313 C291 0.950 . S
C314 C315 1.349 . S
C314 C316 1.327 . S
C314 H339 0.950 . S
C315 C314 1.349 . S
C315 C331 1.349 . S
C316 C314 1.327 . S
C316 C335 1.429 . S
C316 H340 0.950 . S
C317 C334 1.574 . S
C317 C336 1.368 . S
C317 H341 0.949 . S
H318 C322 0.949 . S
C319 C320 1.349 . S
C319 C321 1.327 . S
C319 H342 0.950 . S
C320 C319 1.349 . S
C320 C332 1.349 . S
C321 C319 1.327 . S
C321 C337 1.429 . S
C321 H343 0.950 . S
C322 H318 0.949 . S
C322 C330 1.574 . S
C322 C338 1.368 . S
H323 C331 0.950 . S
H324 C329 0.950 . S
H325 C330 0.949 . S
H326 C332 0.950 . S
H327 C333 0.950 . S
H328 C334 0.949 . S
C329 H324 0.950 . S
C329 C331 1.327 . S
C329 C335 1.429 . S
C330 C322 1.574 . S
C330 H325 0.949 . S
C330 C336 1.368 . S
C331 C315 1.349 . S
C331 H323 0.950 . S
C331 C329 1.327 . S
C332 C320 1.349 . S
C332 H326 0.950 . S
C332 C333 1.327 . S
C333 H327 0.950 . S
C333 C332 1.327 . S
C333 C337 1.429 . S
C334 C317 1.574 . S
C334 H328 0.949 . S
C334 C338 1.368 . S
C335 C316 1.429 . S
C335 C329 1.429 . S
C335 C336 1.523 . S
C336 C317 1.368 . S
C336 C330 1.368 . S
C336 C335 1.523 . S
C337 C321 1.429 . S
C337 C333 1.429 . S
C337 C338 1.523 . S
C338 C322 1.368 . S
C338 C334 1.368 . S
C338 C337 1.523 . S
H339 C314 0.950 . S
H340 C316 0.950 . S
H341 C317 0.949 . S
H342 C319 0.950 . S
H343 C321 0.950 . S
C344 C345 1.349 . S
C344 C346 1.327 . S
C344 H369 0.950 . S
C345 C344 1.349 . S
C345 C361 1.349 . S
C346 C344 1.327 . S
C346 C365 1.429 . S
C346 H370 0.950 . S
C347 C364 1.574 . S
C347 C366 1.368 . S
C347 H371 0.949 . S
H348 C352 0.949 . S
C349 C350 1.349 . S
C349 C351 1.327 . S
C349 H372 0.950 . S
C350 C349 1.349 . S
C350 C362 1.349 . S
C351 C349 1.327 . S
C351 C367 1.429 . S
C351 H373 0.950 . S
C352 H348 0.949 . S
C352 C360 1.574 . S
C352 C368 1.368 . S
H353 C361 0.950 . S
H354 C359 0.950 . S
H355 C360 0.949 . S
H356 C362 0.950 . S
H357 C363 0.950 . S
H358 C364 0.949 . S
C359 H354 0.950 . S
C359 C361 1.327 . S
C359 C365 1.429 . S
C360 C352 1.574 . S
C360 H355 0.949 . S
C360 C366 1.368 . S
C361 C345 1.349 . S
C361 H353 0.950 . S
C361 C359 1.327 . S
C362 C350 1.349 . S
C362 H356 0.950 . S
C362 C363 1.327 . S
C363 H357 0.950 . S
C363 C362 1.327 . S
C363 C367 1.429 . S
C364 C347 1.574 . S
C364 H358 0.949 . S
C364 C368 1.368 . S
C365 C346 1.429 . S
C365 C359 1.429 . S
C365 C366 1.523 . S
C366 C347 1.368 . S
C366 C360 1.368 . S
C366 C365 1.523 . S
C367 C351 1.429 . S
C367 C363 1.429 . S
C367 C368 1.523 . S
C368 C352 1.368 . S
C368 C364 1.368 . S
C368 C367 1.523 . S
H369 C344 0.950 . S
H370 C346 0.950 . S
H371 C347 0.949 . S
H372 C349 0.950 . S
H373 C351 0.950 . S
C374 C375 1.349 . S
C374 C376 1.327 . S
C374 H399 0.950 . S
C375 C374 1.349 . S
C375 C391 1.349 . S
C376 C374 1.327 . S
C376 C395 1.429 . S
C376 H400 0.950 . S
C377 C394 1.574 . S
C377 C396 1.368 . S
C377 H401 0.949 . S
H378 C382 0.949 . S
C379 C380 1.349 . S
C379 C381 1.327 . S
C379 H402 0.950 . S
C380 C379 1.349 . S
C380 C392 1.349 . S
C381 C379 1.327 . S
C381 C397 1.429 . S
C381 H403 0.950 . S
C382 H378 0.949 . S
C382 C390 1.574 . S
C382 C398 1.368 . S
H383 C391 0.950 . S
H384 C389 0.950 . S
H385 C390 0.949 . S
H386 C392 0.950 . S
H387 C393 0.950 . S
H388 C394 0.949 . S
C389 H384 0.950 . S
C389 C391 1.327 . S
C389 C395 1.429 . S
C390 C382 1.574 . S
C390 H385 0.949 . S
C390 C396 1.368 . S
C391 C375 1.349 . S
C391 H383 0.950 . S
C391 C389 1.327 . S
C392 C380 1.349 . S
C392 H386 0.950 . S
C392 C393 1.327 . S
C393 H387 0.950 . S
C393 C392 1.327 . S
C393 C397 1.429 . S
C394 C377 1.574 . S
C394 H388 0.949 . S
C394 C398 1.368 . S
C395 C376 1.429 . S
C395 C389 1.429 . S
C395 C396 1.523 . S
C396 C377 1.368 . S
C396 C390 1.368 . S
C396 C395 1.523 . S
C397 C381 1.429 . S
C397 C393 1.429 . S
C397 C398 1.523 . S
C398 C382 1.368 . S
C398 C394 1.368 . S
C398 C397 1.523 . S
H399 C374 0.950 . S
H400 C376 0.950 . S
H401 C377 0.949 . S
H402 C379 0.950 . S
H403 C381 0.950 . S
C404 C405 1.349 . S
C404 C406 1.327 . S
C404 H429 0.950 . S
C405 C404 1.349 . S
C405 C421 1.349 . S
C406 C404 1.327 . S
C406 C425 1.429 . S
C406 H430 0.950 . S
C407 C424 1.574 . S
C407 C426 1.368 . S
C407 H431 0.949 . S
H408 C412 0.949 . S
C409 C410 1.349 . S
C409 C411 1.327 . S
C409 H432 0.950 . S
C410 C409 1.349 . S
C410 C422 1.349 . S
C411 C409 1.327 . S
C411 C427 1.429 . S
C411 H433 0.950 . S
C412 H408 0.949 . S
C412 C420 1.574 . S
C412 C428 1.368 . S
H413 C421 0.982 . S
H414 C419 0.950 . S
H415 C420 0.949 . S
H416 C422 0.950 . S
H417 C423 0.950 . S
H418 C424 0.949 . S
C419 H414 0.950 . S
C419 C421 1.327 . S
C419 C425 1.429 . S
C420 C412 1.574 . S
C420 H415 0.949 . S
C420 C426 1.368 . S
C421 C405 1.349 . S
C421 H413 0.982 . S
C421 C419 1.327 . S
C422 C410 1.349 . S
C422 H416 0.950 . S
C422 C423 1.327 . S
C423 H417 0.950 . S
C423 C422 1.327 . S
C423 C427 1.429 . S
C424 C407 1.574 . S
C424 H418 0.949 . S
C424 C428 1.368 . S
C425 C406 1.429 . S
C425 C419 1.429 . S
C425 C426 1.523 . S
C426 C407 1.368 . S
C426 C420 1.368 . S
C426 C425 1.523 . S
C427 C411 1.429 . S
C427 C423 1.429 . S
C427 C428 1.523 . S
C428 C412 1.368 . S
C428 C424 1.368 . S
C428 C427 1.523 . S
H429 C404 0.950 . S
H430 C406 0.950 . S
H431 C407 0.949 . S
H432 C409 0.950 . S
H433 C411 0.950 . S
C434 C435 1.349 . S
C434 C436 1.327 . S
C434 H459 0.950 . S
C435 C434 1.349 . S
C435 C451 1.349 . S
C436 C434 1.327 . S
C436 C455 1.429 . S
C436 H460 0.950 . S
C437 C454 1.574 . S
C437 C456 1.368 . S
C437 H461 0.949 . S
H438 C442 0.949 . S
C439 C440 1.349 . S
C439 C441 1.327 . S
C439 H462 0.950 . S
C440 C439 1.349 . S
C440 C452 1.349 . S
C441 C439 1.327 . S
C441 C457 1.429 . S
C441 H463 0.950 . S
C442 H438 0.949 . S
C442 C450 1.574 . S
C442 C458 1.368 . S
H443 C451 0.950 1_545 S
H444 C449 0.950 . S
H445 C450 0.949 . S
H446 C452 0.950 . S
H447 C453 0.950 . S
H448 C454 0.949 . S
C449 H444 0.950 . S
C449 C451 1.327 . S
C449 C455 1.429 . S
C450 C442 1.574 . S
C450 H445 0.949 . S
C450 C456 1.368 . S
C451 C435 1.349 . S
C451 H443 0.950 1_565 S
C451 C449 1.327 . S
C452 C440 1.349 . S
C452 H446 0.950 . S
C452 C453 1.327 . S
C453 H447 0.950 . S
C453 C452 1.327 . S
C453 C457 1.429 . S
C454 C437 1.574 . S
C454 H448 0.949 . S
C454 C458 1.368 . S
C455 C436 1.429 . S
C455 C449 1.429 . S
C455 C456 1.523 . S
C456 C437 1.368 . S
C456 C450 1.368 . S
C456 C455 1.523 . S
C457 C441 1.429 . S
C457 C453 1.429 . S
C457 C458 1.523 . S
C458 C442 1.368 . S
C458 C454 1.368 . S
C458 C457 1.523 . S
H459 C434 0.950 . S
H460 C436 0.950 . S
H461 C437 0.949 . S
H462 C439 0.950 . S
H463 C441 0.950 . S
C464 C465 1.349 . S
C464 C466 1.327 . S
C464 H489 0.950 . S
C465 C464 1.349 . S
C465 C481 1.349 . S
C466 C464 1.327 . S
C466 C485 1.429 . S
C466 H490 0.950 . S
C467 C484 1.574 . S
C467 C486 1.368 . S
C467 H491 0.949 . S
H468 C472 0.949 . S
C469 C470 1.349 . S
C469 C471 1.327 . S
C469 H492 0.950 . S
C470 C469 1.349 . S
C470 C482 1.349 . S
C471 C469 1.327 . S
C471 C487 1.429 . S
C471 H493 0.950 . S
C472 H468 0.949 . S
C472 C480 1.574 . S
C472 C488 1.368 . S
H473 C481 0.950 . S
H474 C479 0.950 . S
H475 C480 0.949 . S
H476 C482 0.950 . S
H477 C483 0.950 . S
H478 C484 0.949 . S
C479 H474 0.950 . S
C479 C481 1.327 . S
C479 C485 1.429 . S
C480 C472 1.574 . S
C480 H475 0.949 . S
C480 C486 1.368 . S
C481 C465 1.349 . S
C481 H473 0.950 . S
C481 C479 1.327 . S
C482 C470 1.349 . S
C482 H476 0.950 . S
C482 C483 1.327 . S
C483 H477 0.950 . S
C483 C482 1.327 . S
C483 C487 1.429 . S
C484 C467 1.574 . S
C484 H478 0.949 . S
C484 C488 1.368 . S
C485 C466 1.429 . S
C485 C479 1.429 . S
C485 C486 1.523 . S
C486 C467 1.368 . S
C486 C480 1.368 . S
C486 C485 1.523 . S
C487 C471 1.429 . S
C487 C483 1.429 . S
C487 C488 1.523 . S
C488 C472 1.368 . S
C488 C484 1.368 . S
C488 C487 1.523 . S
H489 C464 0.950 . S
H490 C466 0.950 . S
H491 C467 0.949 . S
H492 C469 0.950 . S
H493 C471 0.950 . S
C494 C495 1.349 . S
C494 C496 1.327 . S
C494 H519 0.950 . S
C495 C494 1.349 . S
C495 C511 1.349 . S
C496 C494 1.327 . S
C496 C515 1.429 . S
C496 H520 0.950 . S
C497 C514 1.574 . S
C497 C516 1.368 . S
C497 H521 0.949 . S
H498 C502 0.949 . S
C499 C500 1.349 . S
C499 C501 1.327 . S
C499 H522 0.950 . S
C500 C499 1.349 . S
C500 C512 1.349 . S
C501 C499 1.327 . S
C501 C517 1.429 . S
C501 H523 0.950 . S
C502 H498 0.949 . S
C502 C510 1.574 . S
C502 C518 1.368 . S
H503 C511 0.950 . S
H504 C509 0.950 . S
H505 C510 0.949 . S
H506 C512 0.950 . S
H507 C513 0.950 . S
H508 C514 0.949 . S
C509 H504 0.950 . S
C509 C511 1.327 . S
C509 C515 1.429 . S
C510 C502 1.574 . S
C510 H505 0.949 . S
C510 C516 1.368 . S
C511 C495 1.349 . S
C511 H503 0.950 . S
C511 C509 1.327 . S
C512 C500 1.349 . S
C512 H506 0.950 . S
C512 C513 1.327 . S
C513 H507 0.950 . S
C513 C512 1.327 . S
C513 C517 1.429 . S
C514 C497 1.574 . S
C514 H508 0.949 . S
C514 C518 1.368 . S
C515 C496 1.429 . S
C515 C509 1.429 . S
C515 C516 1.523 . S
C516 C497 1.368 . S
C516 C510 1.368 . S
C516 C515 1.523 . S
C517 C501 1.429 . S
C517 C513 1.429 . S
C517 C518 1.523 . S
C518 C502 1.368 . S
C518 C514 1.368 . S
C518 C517 1.523 . S
H519 C494 0.950 . S
H520 C496 0.950 . S
H521 C497 0.949 . S
H522 C499 0.950 . S
H523 C501 0.950 . S
C524 C525 1.349 . S
C524 C526 1.327 . S
C524 H549 0.950 . S
C525 C524 1.349 . S
C525 C541 1.349 . S
C526 C524 1.327 . S
C526 C545 1.429 . S
C526 H550 0.950 . S
C527 C544 1.574 . S
C527 C546 1.368 . S
C527 H551 0.949 . S
H528 C532 0.949 . S
C529 C530 1.349 . S
C529 C531 1.327 . S
C529 H552 0.950 . S
C530 C529 1.349 . S
C530 C542 1.349 . S
C531 C529 1.327 . S
C531 C547 1.429 . S
C531 H553 0.950 . S
C532 H528 0.949 . S
C532 C540 1.574 . S
C532 C548 1.368 . S
H533 C541 0.950 . S
H534 C539 0.950 . S
H535 C540 0.949 . S
H536 C542 0.950 . S
H537 C543 0.950 . S
H538 C544 0.949 . S
C539 H534 0.950 . S
C539 C541 1.327 . S
C539 C545 1.429 . S
C540 C532 1.574 . S
C540 H535 0.949 . S
C540 C546 1.368 . S
C541 C525 1.349 . S
C541 H533 0.950 . S
C541 C539 1.327 . S
C542 C530 1.349 . S
C542 H536 0.950 . S
C542 C543 1.327 . S
C543 H537 0.950 . S
C543 C542 1.327 . S
C543 C547 1.429 . S
C544 C527 1.574 . S
C544 H538 0.949 . S
C544 C548 1.368 . S
C545 C526 1.429 . S
C545 C539 1.429 . S
C545 C546 1.523 . S
C546 C527 1.368 . S
C546 C540 1.368 . S
C546 C545 1.523 . S
C547 C531 1.429 . S
C547 C543 1.429 . S
C547 C548 1.523 . S
C548 C532 1.368 . S
C548 C544 1.368 . S
C548 C547 1.523 . S
H549 C524 0.950 . S
H550 C526 0.950 . S
H551 C527 0.949 . S
H552 C529 0.950 . S
H553 C531 0.950 . S
C554 C555 1.349 . S
C554 C556 1.327 . S
C554 H579 0.950 . S
C555 C554 1.349 . S
C555 C571 1.349 . S
C556 C554 1.327 . S
C556 C575 1.429 . S
C556 H580 0.950 . S
C557 C574 1.574 . S
C557 C576 1.368 . S
C557 H581 0.949 . S
H558 C562 0.949 . S
C559 C560 1.349 . S
C559 C561 1.327 . S
C559 H582 0.950 . S
C560 C559 1.349 . S
C560 C572 1.349 . S
C561 C559 1.327 . S
C561 C577 1.429 . S
C561 H583 0.950 . S
C562 H558 0.949 . S
C562 C570 1.574 . S
C562 C578 1.368 . S
H563 C571 0.950 . S
H564 C569 0.950 . S
H565 C570 0.949 . S
H566 C572 0.950 . S
H567 C573 0.950 . S
H568 C574 0.949 . S
C569 H564 0.950 . S
C569 C571 1.327 . S
C569 C575 1.429 . S
C570 C562 1.574 . S
C570 H565 0.949 . S
C570 C576 1.368 . S
C571 C555 1.349 . S
C571 H563 0.950 . S
C571 C569 1.327 . S
C572 C560 1.349 . S
C572 H566 0.950 . S
C572 C573 1.327 . S
C573 H567 0.950 . S
C573 C572 1.327 . S
C573 C577 1.429 . S
C574 C557 1.574 . S
C574 H568 0.949 . S
C574 C578 1.368 . S
C575 C556 1.429 . S
C575 C569 1.429 . S
C575 C576 1.523 . S
C576 C557 1.368 . S
C576 C570 1.368 . S
C576 C575 1.523 . S
C577 C561 1.429 . S
C577 C573 1.429 . S
C577 C578 1.523 . S
C578 C562 1.368 . S
C578 C574 1.368 . S
C578 C577 1.523 . S
H579 C554 0.950 . S
H580 C556 0.950 . S
H581 C557 0.949 . S
H582 C559 0.950 . S
H583 C561 0.950 . S
C584 C585 1.349 . S
C584 C586 1.327 . S
C584 H609 0.950 . S
C585 C584 1.349 . S
C585 C601 1.349 . S
C586 C584 1.327 . S
C586 C605 1.429 . S
C586 H610 0.950 . S
C587 C604 1.574 . S
C587 C606 1.368 . S
C587 H611 0.949 . S
H588 C592 0.949 . S
C589 C590 1.349 . S
C589 C591 1.327 . S
C589 H612 0.950 . S
C590 C589 1.349 . S
C590 C602 1.349 . S
C591 C589 1.327 . S
C591 C607 1.429 . S
C591 H613 0.950 . S
C592 H588 0.949 . S
C592 C600 1.574 . S
C592 C608 1.368 . S
H593 C601 0.950 . S
H594 C599 0.950 . S
H595 C600 0.949 . S
H596 C602 0.950 . S
H597 C603 0.950 . S
H598 C604 0.949 . S
C599 H594 0.950 . S
C599 C601 1.327 . S
C599 C605 1.429 . S
C600 C592 1.574 . S
C600 H595 0.949 . S
C600 C606 1.368 . S
C601 C585 1.349 . S
C601 H593 0.950 . S
C601 C599 1.327 . S
C602 C590 1.349 . S
C602 H596 0.950 . S
C602 C603 1.327 . S
C603 H597 0.950 . S
C603 C602 1.327 . S
C603 C607 1.429 . S
C604 C587 1.574 . S
C604 H598 0.949 . S
C604 C608 1.368 . S
C605 C586 1.429 . S
C605 C599 1.429 . S
C605 C606 1.523 . S
C606 C587 1.368 . S
C606 C600 1.368 . S
C606 C605 1.523 . S
C607 C591 1.429 . S
C607 C603 1.429 . S
C607 C608 1.523 . S
C608 C592 1.368 . S
C608 C604 1.368 . S
C608 C607 1.523 . S
H609 C584 0.950 . S
H610 C586 0.950 . S
H611 C587 0.949 . S
H612 C589 0.950 . S
H613 C591 0.950 . S
C614 C615 1.349 . S
C614 C616 1.327 . S
C614 H639 0.950 . S
C615 C614 1.349 . S
C615 C631 1.349 . S
C616 C614 1.327 . S
C616 C635 1.429 . S
C616 H640 0.950 . S
C617 C634 1.574 . S
C617 C636 1.368 . S
C617 H641 0.949 . S
H618 C622 0.949 . S
C619 C620 1.349 . S
C619 C621 1.327 . S
C619 H642 0.950 . S
C620 C619 1.349 . S
C620 C632 1.349 . S
C621 C619 1.327 . S
C621 C637 1.429 . S
C621 H643 0.950 . S
C622 H618 0.949 . S
C622 C630 1.574 . S
C622 C638 1.368 . S
H623 C631 0.950 . S
H624 C629 0.950 . S
H625 C630 0.949 . S
H626 C632 0.950 . S
H627 C633 0.950 . S
H628 C634 0.949 . S
C629 H624 0.950 . S
C629 C631 1.327 . S
C629 C635 1.429 . S
C630 C622 1.574 . S
C630 H625 0.949 . S
C630 C636 1.368 . S
C631 C615 1.349 . S
C631 H623 0.950 . S
C631 C629 1.327 . S
C632 C620 1.349 . S
C632 H626 0.950 . S
C632 C633 1.327 . S
C633 H627 0.950 . S
C633 C632 1.327 . S
C633 C637 1.429 . S
C634 C617 1.574 . S
C634 H628 0.949 . S
C634 C638 1.368 . S
C635 C616 1.429 . S
C635 C629 1.429 . S
C635 C636 1.523 . S
C636 C617 1.368 . S
C636 C630 1.368 . S
C636 C635 1.523 . S
C637 C621 1.429 . S
C637 C633 1.429 . S
C637 C638 1.523 . S
C638 C622 1.368 . S
C638 C634 1.368 . S
C638 C637 1.523 . S
H639 C614 0.950 . S
H640 C616 0.950 . S
H641 C617 0.949 . S
H642 C619 0.950 . S
H643 C621 0.950 . S
C644 C645 1.349 . S
C644 C646 1.327 . S
C644 H669 0.950 . S
C645 C644 1.349 . S
C645 C661 1.349 . S
C646 C644 1.327 . S
C646 C665 1.429 . S
C646 H670 0.950 . S
C647 C664 1.574 . S
C647 C666 1.368 . S
C647 H671 0.949 . S
H648 C652 0.949 . S
C649 C650 1.349 . S
C649 C651 1.327 . S
C649 H672 0.950 . S
C650 C649 1.349 . S
C650 C662 1.349 . S
C651 C649 1.327 . S
C651 C667 1.429 . S
C651 H673 0.950 . S
C652 H648 0.949 . S
C652 C660 1.574 . S
C652 C668 1.368 . S
H653 C661 0.950 . S
H654 C659 0.950 . S
H655 C660 0.949 . S
H656 C662 0.950 . S
H657 C663 0.950 . S
H658 C664 0.949 . S
C659 H654 0.950 . S
C659 C661 1.327 . S
C659 C665 1.429 . S
C660 C652 1.574 . S
C660 H655 0.949 . S
C660 C666 1.368 . S
C661 C645 1.349 . S
C661 H653 0.950 . S
C661 C659 1.327 . S
C662 C650 1.349 . S
C662 H656 0.950 . S
C662 C663 1.327 . S
C663 H657 0.950 . S
C663 C662 1.327 . S
C663 C667 1.429 . S
C664 C647 1.574 . S
C664 H658 0.949 . S
C664 C668 1.368 . S
C665 C646 1.429 . S
C665 C659 1.429 . S
C665 C666 1.523 . S
C666 C647 1.368 . S
C666 C660 1.368 . S
C666 C665 1.523 . S
C667 C651 1.429 . S
C667 C663 1.429 . S
C667 C668 1.523 . S
C668 C652 1.368 . S
C668 C664 1.368 . S
C668 C667 1.523 . S
H669 C644 0.950 . S
H670 C646 0.950 . S
H671 C647 0.949 . S
H672 C649 0.950 . S
H673 C651 0.950 . S
C674 C675 1.349 . S
C674 C676 1.327 . S
C674 H699 0.950 . S
C675 C674 1.349 . S
C675 C691 1.349 . S
C676 C674 1.327 . S
C676 C695 1.429 . S
C676 H700 0.950 . S
C677 C694 1.574 . S
C677 C696 1.368 . S
C677 H701 0.949 . S
H678 C682 0.949 . S
C679 C680 1.349 . S
C679 C681 1.327 . S
C679 H702 0.950 . S
C680 C679 1.349 . S
C680 C692 1.349 . S
C681 C679 1.327 . S
C681 C697 1.429 . S
C681 H703 0.950 . S
C682 H678 0.949 . S
C682 C690 1.574 . S
C682 C698 1.368 . S
H683 C691 0.950 . S
H684 C689 0.950 . S
H685 C690 0.949 . S
H686 C692 0.950 . S
H687 C693 0.950 . S
H688 C694 0.949 . S
C689 H684 0.950 . S
C689 C691 1.327 . S
C689 C695 1.429 . S
C690 C682 1.574 . S
C690 H685 0.949 . S
C690 C696 1.368 . S
C691 C675 1.349 . S
C691 H683 0.950 . S
C691 C689 1.327 . S
C692 C680 1.349 . S
C692 H686 0.950 . S
C692 C693 1.327 . S
C693 H687 0.950 . S
C693 C692 1.327 . S
C693 C697 1.429 . S
C694 C677 1.574 . S
C694 H688 0.949 . S
C694 C698 1.368 . S
C695 C676 1.429 . S
C695 C689 1.429 . S
C695 C696 1.523 . S
C696 C677 1.368 . S
C696 C690 1.368 . S
C696 C695 1.523 . S
C697 C681 1.429 . S
C697 C693 1.429 . S
C697 C698 1.523 . S
C698 C682 1.368 . S
C698 C694 1.368 . S
C698 C697 1.523 . S
H699 C674 0.950 . S
H700 C676 0.950 . S
H701 C677 0.949 . S
H702 C679 0.950 . S
H703 C681 0.950 . S
C704 C705 1.349 . S
C704 C706 1.327 . S
C704 H729 0.950 . S
C705 C704 1.349 . S
C705 C721 1.349 . S
C706 C704 1.327 . S
C706 C725 1.429 . S
C706 H730 0.950 . S
C707 C724 1.574 . S
C707 C726 1.368 . S
C707 H731 0.949 . S
H708 C712 0.949 . S
C709 C710 1.349 . S
C709 C711 1.327 . S
C709 H732 0.950 . S
C710 C709 1.349 . S
C710 C722 1.349 . S
C711 C709 1.327 . S
C711 C727 1.429 . S
C711 H733 0.950 . S
C712 H708 0.949 . S
C712 C720 1.574 . S
C712 C728 1.368 . S
H713 C721 0.950 . S
H714 C719 0.950 . S
H715 C720 0.949 . S
H716 C722 0.950 . S
H717 C723 0.950 . S
H718 C724 0.949 . S
C719 H714 0.950 . S
C719 C721 1.327 . S
C719 C725 1.429 . S
C720 C712 1.574 . S
C720 H715 0.949 . S
C720 C726 1.368 . S
C721 C705 1.349 . S
C721 H713 0.950 . S
C721 C719 1.327 . S
C722 C710 1.349 . S
C722 H716 0.950 . S
C722 C723 1.327 . S
C723 H717 0.950 . S
C723 C722 1.327 . S
C723 C727 1.429 . S
C724 C707 1.574 . S
C724 H718 0.949 . S
C724 C728 1.368 . S
C725 C706 1.429 . S
C725 C719 1.429 . S
C725 C726 1.523 . S
C726 C707 1.368 . S
C726 C720 1.368 . S
C726 C725 1.523 . S
C727 C711 1.429 . S
C727 C723 1.429 . S
C727 C728 1.523 . S
C728 C712 1.368 . S
C728 C724 1.368 . S
C728 C727 1.523 . S
H729 C704 0.950 . S
H730 C706 0.950 . S
H731 C707 0.949 . S
H732 C709 0.950 . S
H733 C711 0.950 . S
C734 C735 1.349 . S
C734 C736 1.327 . S
C734 H759 0.950 . S
C735 C734 1.349 . S
C735 C751 1.349 . S
C736 C734 1.327 . S
C736 C755 1.429 . S
C736 H760 0.950 . S
C737 C754 1.574 . S
C737 C756 1.368 . S
C737 H761 0.949 . S
H738 C742 0.949 . S
C739 C740 1.349 . S
C739 C741 1.327 . S
C739 H762 0.950 . S
C740 C739 1.349 . S
C740 C752 1.349 . S
C741 C739 1.327 . S
C741 C757 1.429 . S
C741 H763 0.950 . S
C742 H738 0.949 . S
C742 C750 1.574 . S
C742 C758 1.368 . S
H743 C751 0.950 . S
H744 C749 0.950 . S
H745 C750 0.949 . S
H746 C752 0.950 . S
H747 C753 0.950 . S
H748 C754 0.949 . S
C749 H744 0.950 . S
C749 C751 1.327 . S
C749 C755 1.429 . S
C750 C742 1.574 . S
C750 H745 0.949 . S
C750 C756 1.368 . S
C751 C735 1.349 . S
C751 H743 0.950 . S
C751 C749 1.327 . S
C752 C740 1.349 . S
C752 H746 0.950 . S
C752 C753 1.327 . S
C753 H747 0.950 . S
C753 C752 1.327 . S
C753 C757 1.429 . S
C754 C737 1.574 . S
C754 H748 0.949 . S
C754 C758 1.368 . S
C755 C736 1.429 . S
C755 C749 1.429 . S
C755 C756 1.523 . S
C756 C737 1.368 . S
C756 C750 1.368 . S
C756 C755 1.523 . S
C757 C741 1.429 . S
C757 C753 1.429 . S
C757 C758 1.523 . S
C758 C742 1.368 . S
C758 C754 1.368 . S
C758 C757 1.523 . S
H759 C734 0.950 . S
H760 C736 0.950 . S
H761 C737 0.949 . S
H762 C739 0.950 . S
H763 C741 0.950 . S
C764 C765 1.349 . S
C764 C766 1.327 . S
C764 H789 0.950 . S
C765 C764 1.349 . S
C765 C781 1.349 . S
C766 C764 1.327 . S
C766 C785 1.429 . S
C766 H790 0.950 . S
C767 C784 1.574 . S
C767 C786 1.368 . S
C767 H791 0.949 . S
H768 C772 0.949 . S
C769 C770 1.349 . S
C769 C771 1.327 . S
C769 H792 0.950 . S
C770 C769 1.349 . S
C770 C782 1.349 . S
C771 C769 1.327 . S
C771 C787 1.429 . S
C771 H793 0.950 . S
C772 H768 0.949 . S
C772 C780 1.574 . S
C772 C788 1.368 . S
H773 C781 0.950 . S
H774 C779 0.950 . S
H775 C780 0.949 . S
H776 C782 0.950 . S
H777 C783 0.950 . S
H778 C784 0.949 . S
C779 H774 0.950 . S
C779 C781 1.327 . S
C779 C785 1.429 . S
C780 C772 1.574 . S
C780 H775 0.949 . S
C780 C786 1.368 . S
C781 C765 1.349 . S
C781 H773 0.950 . S
C781 C779 1.327 . S
C782 C770 1.349 . S
C782 H776 0.950 . S
C782 C783 1.327 . S
C783 H777 0.950 . S
C783 C782 1.327 . S
C783 C787 1.429 . S
C784 C767 1.574 . S
C784 H778 0.949 . S
C784 C788 1.368 . S
C785 C766 1.429 . S
C785 C779 1.429 . S
C785 C786 1.523 . S
C786 C767 1.368 . S
C786 C780 1.368 . S
C786 C785 1.523 . S
C787 C771 1.429 . S
C787 C783 1.429 . S
C787 C788 1.523 . S
C788 C772 1.368 . S
C788 C784 1.368 . S
C788 C787 1.523 . S
H789 C764 0.950 . S
H790 C766 0.950 . S
H791 C767 0.949 . S
H792 C769 0.950 . S
H793 C771 0.950 . S
C794 C795 1.349 . S
C794 C796 1.327 . S
C794 H819 0.950 . S
C795 C794 1.349 . S
C795 C811 1.349 . S
C796 C794 1.327 . S
C796 C815 1.429 . S
C796 H820 0.950 . S
C797 C814 1.574 . S
C797 C816 1.368 . S
C797 H821 0.949 . S
H798 C802 0.949 . S
C799 C800 1.349 . S
C799 C801 1.327 . S
C799 H822 0.950 . S
C800 C799 1.349 . S
C800 C812 1.349 . S
C801 C799 1.327 . S
C801 C817 1.429 . S
C801 H823 0.950 . S
C802 H798 0.949 . S
C802 C810 1.574 . S
C802 C818 1.368 . S
H803 C811 0.950 . S
H804 C809 0.950 . S
H805 C810 0.949 . S
H806 C812 0.950 . S
H807 C813 0.950 . S
H808 C814 0.949 . S
C809 H804 0.950 . S
C809 C811 1.327 . S
C809 C815 1.429 . S
C810 C802 1.574 . S
C810 H805 0.949 . S
C810 C816 1.368 . S
C811 C795 1.349 . S
C811 H803 0.950 . S
C811 C809 1.327 . S
C812 C800 1.349 . S
C812 H806 0.950 . S
C812 C813 1.327 . S
C813 H807 0.950 . S
C813 C812 1.327 . S
C813 C817 1.429 . S
C814 C797 1.574 . S
C814 H808 0.949 . S
C814 C818 1.368 . S
C815 C796 1.429 . S
C815 C809 1.429 . S
C815 C816 1.523 . S
C816 C797 1.368 . S
C816 C810 1.368 . S
C816 C815 1.523 . S
C817 C801 1.429 . S
C817 C813 1.429 . S
C817 C818 1.523 . S
C818 C802 1.368 . S
C818 C814 1.368 . S
C818 C817 1.523 . S
H819 C794 0.950 . S
H820 C796 0.950 . S
H821 C797 0.949 . S
H822 C799 0.950 . S
H823 C801 0.950 . S
C824 C825 1.349 . S
C824 C826 1.327 . S
C824 H849 0.950 . S
C825 C824 1.349 . S
C825 C841 1.349 . S
C826 C824 1.327 . S
C826 C845 1.429 . S
C826 H850 0.950 . S
C827 C844 1.574 . S
C827 C846 1.368 . S
C827 H851 0.949 . S
H828 C832 0.949 . S
C829 C830 1.349 . S
C829 C831 1.327 . S
C829 H852 0.950 . S
C830 C829 1.349 . S
C830 C842 1.349 . S
C831 C829 1.327 . S
C831 C847 1.429 . S
C831 H853 0.950 . S
C832 H828 0.949 . S
C832 C840 1.574 . S
C832 C848 1.368 . S
H833 C841 0.950 . S
H834 C839 0.950 . S
H835 C840 0.949 . S
H836 C842 0.950 . S
H837 C843 0.950 . S
H838 C844 0.949 . S
C839 H834 0.950 . S
C839 C841 1.327 . S
C839 C845 1.429 . S
C840 C832 1.574 . S
C840 H835 0.949 . S
C840 C846 1.368 . S
C841 C825 1.349 . S
C841 H833 0.950 . S
C841 C839 1.327 . S
C842 C830 1.349 . S
C842 H836 0.950 . S
C842 C843 1.327 . S
C843 H837 0.950 . S
C843 C842 1.327 . S
C843 C847 1.429 . S
C844 C827 1.574 . S
C844 H838 0.949 . S
C844 C848 1.368 . S
C845 C826 1.429 . S
C845 C839 1.429 . S
C845 C846 1.523 . S
C846 C827 1.368 . S
C846 C840 1.368 . S
C846 C845 1.523 . S
C847 C831 1.429 . S
C847 C843 1.429 . S
C847 C848 1.523 . S
C848 C832 1.368 . S
C848 C844 1.368 . S
C848 C847 1.523 . S
H849 C824 0.950 . S
H850 C826 0.950 . S
H851 C827 0.949 . S
H852 C829 0.950 . S
H853 C831 0.950 . S
C854 C855 1.349 . S
C854 C856 1.327 . S
C854 H879 0.950 . S
C855 C854 1.349 . S
C855 C871 1.349 . S
C856 C854 1.327 . S
C856 C875 1.429 . S
C856 H880 0.950 . S
C857 C874 1.574 . S
C857 C876 1.368 . S
C857 H881 0.949 . S
H858 C862 0.949 . S
C859 C860 1.349 . S
C859 C861 1.327 . S
C859 H882 0.950 . S
C860 C859 1.349 . S
C860 C872 1.349 . S
C861 C859 1.327 . S
C861 C877 1.429 . S
C861 H883 0.950 . S
C862 H858 0.949 . S
C862 C870 1.574 . S
C862 C878 1.368 . S
H863 C871 0.950 . S
H864 C869 0.950 . S
H865 C870 0.949 . S
H866 C872 0.950 . S
H867 C873 0.950 . S
H868 C874 0.949 . S
C869 H864 0.950 . S
C869 C871 1.327 . S
C869 C875 1.429 . S
C870 C862 1.574 . S
C870 H865 0.949 . S
C870 C876 1.368 . S
C871 C855 1.349 . S
C871 H863 0.950 . S
C871 C869 1.327 . S
C872 C860 1.349 . S
C872 H866 0.950 . S
C872 C873 1.327 . S
C873 H867 0.950 . S
C873 C872 1.327 . S
C873 C877 1.429 . S
C874 C857 1.574 . S
C874 H868 0.949 . S
C874 C878 1.368 . S
C875 C856 1.429 . S
C875 C869 1.429 . S
C875 C876 1.523 . S
C876 C857 1.368 . S
C876 C870 1.368 . S
C876 C875 1.523 . S
C877 C861 1.429 . S
C877 C873 1.429 . S
C877 C878 1.523 . S
C878 C862 1.368 . S
C878 C874 1.368 . S
C878 C877 1.523 . S
H879 C854 0.950 . S
H880 C856 0.950 . S
H881 C857 0.949 . S
H882 C859 0.950 . S
H883 C861 0.950 . S
C884 C885 1.349 . S
C884 C886 1.327 . S
C884 H909 0.950 . S
C885 C884 1.349 . S
C885 C901 1.349 . S
C886 C884 1.327 . S
C886 C905 1.429 . S
C886 H910 0.950 . S
C887 C904 1.574 . S
C887 C906 1.368 . S
C887 H911 0.949 . S
H888 C892 0.949 . S
C889 C890 1.349 . S
C889 C891 1.327 . S
C889 H912 0.950 . S
C890 C889 1.349 . S
C890 C902 1.349 . S
C891 C889 1.327 . S
C891 C907 1.429 . S
C891 H913 0.950 . S
C892 H888 0.949 . S
C892 C900 1.574 . S
C892 C908 1.368 . S
H893 C901 0.950 . S
H894 C899 0.950 . S
H895 C900 0.949 . S
H896 C902 0.950 . S
H897 C903 0.950 . S
H898 C904 0.949 . S
C899 H894 0.950 . S
C899 C901 1.327 . S
C899 C905 1.429 . S
C900 C892 1.574 . S
C900 H895 0.949 . S
C900 C906 1.368 . S
C901 C885 1.349 . S
C901 H893 0.950 . S
C901 C899 1.327 . S
C902 C890 1.349 . S
C902 H896 0.950 . S
C902 C903 1.327 . S
C903 H897 0.950 . S
C903 C902 1.327 . S
C903 C907 1.429 . S
C904 C887 1.574 . S
C904 H898 0.949 . S
C904 C908 1.368 . S
C905 C886 1.429 . S
C905 C899 1.429 . S
C905 C906 1.523 . S
C906 C887 1.368 . S
C906 C900 1.368 . S
C906 C905 1.523 . S
C907 C891 1.429 . S
C907 C903 1.429 . S
C907 C908 1.523 . S
C908 C892 1.368 . S
C908 C904 1.368 . S
C908 C907 1.523 . S
H909 C884 0.950 . S
H910 C886 0.950 . S
H911 C887 0.949 . S
H912 C889 0.950 . S
H913 C891 0.950 . S
C914 C915 1.349 . S
C914 C916 1.327 . S
C914 H939 0.950 . S
C915 C914 1.349 . S
C915 C931 1.349 . S
C916 C914 1.327 . S
C916 C935 1.429 . S
C916 H940 0.950 . S
C917 C934 1.574 . S
C917 C936 1.368 . S
C917 H941 0.949 . S
H918 C922 0.949 . S
C919 C920 1.349 . S
C919 C921 1.327 . S
C919 H942 0.950 . S
C920 C919 1.349 . S
C920 C932 1.349 . S
C921 C919 1.327 . S
C921 C937 1.429 . S
C921 H943 0.950 . S
C922 H918 0.949 . S
C922 C930 1.574 . S
C922 C938 1.368 . S
H923 C931 0.950 . S
H924 C929 0.950 . S
H925 C930 0.949 . S
H926 C932 0.950 . S
H927 C933 0.950 . S
H928 C934 0.949 . S
C929 H924 0.950 . S
C929 C931 1.327 . S
C929 C935 1.429 . S
C930 C922 1.574 . S
C930 H925 0.949 . S
C930 C936 1.368 . S
C931 C915 1.349 . S
C931 H923 0.950 . S
C931 C929 1.327 . S
C932 C920 1.349 . S
C932 H926 0.950 . S
C932 C933 1.327 . S
C933 H927 0.950 . S
C933 C932 1.327 . S
C933 C937 1.429 . S
C934 C917 1.574 . S
C934 H928 0.949 . S
C934 C938 1.368 . S
C935 C916 1.429 . S
C935 C929 1.429 . S
C935 C936 1.523 . S
C936 C917 1.368 . S
C936 C930 1.368 . S
C936 C935 1.523 . S
C937 C921 1.429 . S
C937 C933 1.429 . S
C937 C938 1.523 . S
C938 C922 1.368 . S
C938 C934 1.368 . S
C938 C937 1.523 . S
H939 C914 0.950 . S
H940 C916 0.950 . S
H941 C917 0.949 . S
H942 C919 0.950 . S
H943 C921 0.950 . S
C944 C945 1.349 . S
C944 C946 1.327 . S
C944 H969 0.950 . S
C945 C944 1.349 . S
C945 C961 1.349 . S
C946 C944 1.327 . S
C946 C965 1.429 . S
C946 H970 0.950 . S
C947 C964 1.574 1_554 S
C947 C966 1.368 . S
C947 H971 0.949 . S
H948 C952 0.949 . S
C949 C950 1.349 . S
C949 C951 1.327 . S
C949 H972 0.950 . S
C950 C949 1.349 . S
C950 C962 1.349 . S
C951 C949 1.327 . S
C951 C967 1.429 . S
C951 H973 0.950 . S
C952 H948 0.949 . S
C952 C960 1.574 1_556 S
C952 C968 1.368 . S
H953 C961 0.950 . S
H954 C959 0.950 . S
H955 C960 0.949 . S
H956 C962 0.950 . S
H957 C963 0.950 . S
H958 C964 0.949 . S
C959 H954 0.950 . S
C959 C961 1.327 . S
C959 C965 1.429 . S
C960 C952 1.574 1_554 S
C960 H955 0.949 . S
C960 C966 1.368 . S
C961 C945 1.349 . S
C961 H953 0.950 . S
C961 C959 1.327 . S
C962 C950 1.349 . S
C962 H956 0.950 . S
C962 C963 1.327 . S
C963 H957 0.950 . S
C963 C962 1.327 . S
C963 C967 1.429 . S
C964 C947 1.574 1_556 S
C964 H958 0.949 . S
C964 C968 1.368 . S
C965 C946 1.429 . S
C965 C959 1.429 . S
C965 C966 1.523 . S
C966 C947 1.368 . S
C966 C960 1.368 . S
C966 C965 1.523 . S
C967 C951 1.429 . S
C967 C963 1.429 . S
C967 C968 1.523 . S
C968 C952 1.368 . S
C968 C964 1.368 . S
C968 C967 1.523 . S
H969 C944 0.950 . S
H970 C946 0.950 . S
H971 C947 0.949 . S
H972 C949 0.950 . S
H973 C951 0.950 . S
C974 C975 1.349 . S
C974 C976 1.327 . S
C974 H999 0.950 . S
C975 C974 1.349 . S
C975 C991 1.349 . S
C976 C974 1.327 . S
C976 C995 1.429 . S
C976 H1000 0.950 . S
C977 C994 1.574 . S
C977 C996 1.368 . S
C977 H1001 0.949 . S
H978 C982 0.949 . S
C979 C980 1.349 . S
C979 C981 1.327 . S
C979 H1002 0.950 . S
C980 C979 1.349 . S
C980 C992 1.349 . S
C981 C979 1.327 . S
C981 C997 1.429 . S
C981 H1003 0.950 . S
C982 H978 0.949 . S
C982 C990 1.574 . S
C982 C998 1.368 . S
H983 C991 0.950 . S
H984 C989 0.950 . S
H985 C990 0.949 . S
H986 C992 0.950 . S
H987 C993 0.950 . S
H988 C994 0.949 . S
C989 H984 0.950 . S
C989 C991 1.327 . S
C989 C995 1.429 . S
C990 C982 1.574 . S
C990 H985 0.949 . S
C990 C996 1.368 . S
C991 C975 1.349 . S
C991 H983 0.950 . S
C991 C989 1.327 . S
C992 C980 1.349 . S
C992 H986 0.950 . S
C992 C993 1.327 . S
C993 H987 0.950 . S
C993 C992 1.327 . S
C993 C997 1.429 . S
C994 C977 1.574 . S
C994 H988 0.949 . S
C994 C998 1.368 . S
C995 C976 1.429 . S
C995 C989 1.429 . S
C995 C996 1.523 . S
C996 C977 1.368 . S
C996 C990 1.368 . S
C996 C995 1.523 . S
C997 C981 1.429 . S
C997 C993 1.429 . S
C997 C998 1.523 . S
C998 C982 1.368 . S
C998 C994 1.368 . S
C998 C997 1.523 . S
H999 C974 0.950 . S
H1000 C976 0.950 . S
H1001 C977 0.949 . S
H1002 C979 0.950 . S
H1003 C981 0.950 . S
C1004 C1005 1.349 . S
C1004 C1006 1.327 . S
C1004 H1029 0.950 . S
C1005 C1004 1.349 . S
C1005 C1021 1.349 . S
C1006 C1004 1.327 . S
C1006 C1025 1.429 . S
C1006 H1030 0.950 . S
C1007 C1024 1.574 1_554 S
C1007 C1026 1.368 . S
C1007 H1031 0.949 . S
H1008 C1012 0.949 . S
C1009 C1010 1.349 . S
C1009 C1011 1.327 . S
C1009 H1032 0.950 . S
C1010 C1009 1.349 . S
C1010 C1022 1.349 . S
C1011 C1009 1.327 . S
C1011 C1027 1.429 . S
C1011 H1033 0.950 . S
C1012 H1008 0.949 . S
C1012 C1020 1.574 1_556 S
C1012 C1028 1.368 . S
H1013 C1021 0.950 . S
H1014 C1019 0.950 . S
H1015 C1020 0.949 . S
H1016 C1022 0.950 . S
H1017 C1023 0.950 . S
H1018 C1024 0.949 . S
C1019 H1014 0.950 . S
C1019 C1021 1.327 . S
C1019 C1025 1.429 . S
C1020 C1012 1.574 1_554 S
C1020 H1015 0.949 . S
C1020 C1026 1.368 . S
C1021 C1005 1.349 . S
C1021 H1013 0.950 . S
C1021 C1019 1.327 . S
C1022 C1010 1.349 . S
C1022 H1016 0.950 . S
C1022 C1023 1.327 . S
C1023 H1017 0.950 . S
C1023 C1022 1.327 . S
C1023 C1027 1.429 . S
C1024 C1007 1.574 1_556 S
C1024 H1018 0.949 . S
C1024 C1028 1.368 . S
C1025 C1006 1.429 . S
C1025 C1019 1.429 . S
C1025 C1026 1.523 . S
C1026 C1007 1.368 . S
C1026 C1020 1.368 . S
C1026 C1025 1.523 . S
C1027 C1011 1.429 . S
C1027 C1023 1.429 . S
C1027 C1028 1.523 . S
C1028 C1012 1.368 . S
C1028 C1024 1.368 . S
C1028 C1027 1.523 . S
H1029 C1004 0.950 . S
H1030 C1006 0.950 . S
H1031 C1007 0.949 . S
H1032 C1009 0.950 . S
H1033 C1011 0.950 . S
C1034 C1035 1.349 . S
C1034 C1036 1.327 . S
C1034 H1059 0.950 . S
C1035 C1034 1.349 . S
C1035 C1051 1.349 . S
C1036 C1034 1.327 . S
C1036 C1055 1.429 . S
C1036 H1060 0.950 . S
C1037 C1054 1.574 . S
C1037 C1056 1.368 . S
C1037 H1061 0.931 1_565 S
H1038 C1042 0.949 . S
C1039 C1040 1.349 . S
C1039 C1041 1.327 . S
C1039 H1062 0.961 . S
C1040 C1039 1.349 . S
C1040 C1052 1.349 . S
C1041 C1039 1.327 . S
C1041 C1057 1.429 . S
C1041 H1063 0.938 1_565 S
C1042 H1038 0.949 . S
C1042 C1050 1.574 . S
C1042 C1058 1.368 . S
H1043 C1051 0.961 . S
H1044 C1049 0.938 1_545 S
H1045 C1050 0.949 . S
H1046 C1052 0.950 . S
H1047 C1053 0.950 . S
H1048 C1054 0.931 1_545 S
C1049 H1044 0.938 1_565 S
C1049 C1051 1.327 . S
C1049 C1055 1.429 . S
C1050 C1042 1.574 . S
C1050 H1045 0.949 . S
C1050 C1056 1.368 . S
C1051 C1035 1.349 . S
C1051 H1043 0.961 . S
C1051 C1049 1.327 . S
C1052 C1040 1.349 . S
C1052 H1046 0.950 . S
C1052 C1053 1.327 . S
C1053 H1047 0.950 . S
C1053 C1052 1.327 . S
C1053 C1057 1.429 . S
C1054 C1037 1.574 . S
C1054 H1048 0.931 1_565 S
C1054 C1058 1.368 . S
C1055 C1036 1.429 . S
C1055 C1049 1.429 . S
C1055 C1056 1.523 . S
C1056 C1037 1.368 . S
C1056 C1050 1.368 . S
C1056 C1055 1.523 . S
C1057 C1041 1.429 . S
C1057 C1053 1.429 . S
C1057 C1058 1.523 . S
C1058 C1042 1.368 . S
C1058 C1054 1.368 . S
C1058 C1057 1.523 . S
H1059 C1034 0.950 . S
H1060 C1036 0.950 . S
H1061 C1037 0.931 1_545 S
H1062 C1039 0.961 . S
H1063 C1041 0.938 1_545 S
C1064 C1065 1.349 . S
C1064 C1066 1.327 . S
C1064 H1089 0.950 . S
C1065 C1064 1.349 . S
C1065 C1081 1.349 . S
C1066 C1064 1.327 . S
C1066 C1085 1.429 . S
C1066 H1090 0.950 . S
C1067 C1084 1.574 1_556 S
C1067 C1086 1.368 . S
C1067 H1091 0.949 . S
H1068 C1072 0.949 . S
C1069 C1070 1.349 . S
C1069 C1071 1.327 . S
C1069 H1092 0.950 . S
C1070 C1069 1.349 . S
C1070 C1082 1.349 . S
C1071 C1069 1.327 . S
C1071 C1087 1.429 . S
C1071 H1093 0.950 . S
C1072 H1068 0.949 . S
C1072 C1080 1.574 1_554 S
C1072 C1088 1.368 . S
H1073 C1081 0.950 . S
H1074 C1079 0.950 . S
H1075 C1080 0.949 . S
H1076 C1082 0.950 . S
H1077 C1083 0.950 . S
H1078 C1084 0.949 . S
C1079 H1074 0.950 . S
C1079 C1081 1.327 . S
C1079 C1085 1.429 . S
C1080 C1072 1.574 1_556 S
C1080 H1075 0.949 . S
C1080 C1086 1.368 . S
C1081 C1065 1.349 . S
C1081 H1073 0.950 . S
C1081 C1079 1.327 . S
C1082 C1070 1.349 . S
C1082 H1076 0.950 . S
C1082 C1083 1.327 . S
C1083 H1077 0.950 . S
C1083 C1082 1.327 . S
C1083 C1087 1.429 . S
C1084 C1067 1.574 1_554 S
C1084 H1078 0.949 . S
C1084 C1088 1.368 . S
C1085 C1066 1.429 . S
C1085 C1079 1.429 . S
C1085 C1086 1.523 . S
C1086 C1067 1.368 . S
C1086 C1080 1.368 . S
C1086 C1085 1.523 . S
C1087 C1071 1.429 . S
C1087 C1083 1.429 . S
C1087 C1088 1.523 . S
C1088 C1072 1.368 . S
C1088 C1084 1.368 . S
C1088 C1087 1.523 . S
H1089 C1064 0.950 . S
H1090 C1066 0.950 . S
H1091 C1067 0.949 . S
H1092 C1069 0.950 . S
H1093 C1071 0.950 . S
C1094 C1095 1.349 . S
C1094 C1096 1.327 . S
C1094 H1119 0.950 . S
C1095 C1094 1.349 . S
C1095 C1111 1.349 . S
C1096 C1094 1.327 . S
C1096 C1115 1.429 . S
C1096 H1120 0.950 . S
C1097 C1114 1.574 . S
C1097 C1116 1.368 . S
C1097 H1121 0.949 . S
H1098 C1102 0.949 . S
C1099 C1100 1.349 . S
C1099 C1101 1.327 . S
C1099 H1122 0.950 . S
C1100 C1099 1.349 . S
C1100 C1112 1.349 . S
C1101 C1099 1.327 . S
C1101 C1117 1.429 . S
C1101 H1123 0.950 . S
C1102 H1098 0.949 . S
C1102 C1110 1.574 . S
C1102 C1118 1.368 . S
H1103 C1111 0.950 . S
H1104 C1109 0.950 . S
H1105 C1110 0.949 . S
H1106 C1112 0.950 . S
H1107 C1113 0.950 . S
H1108 C1114 0.949 . S
C1109 H1104 0.950 . S
C1109 C1111 1.327 . S
C1109 C1115 1.429 . S
C1110 C1102 1.574 . S
C1110 H1105 0.949 . S
C1110 C1116 1.368 . S
C1111 C1095 1.349 . S
C1111 H1103 0.950 . S
C1111 C1109 1.327 . S
C1112 C1100 1.349 . S
C1112 H1106 0.950 . S
C1112 C1113 1.327 . S
C1113 H1107 0.950 . S
C1113 C1112 1.327 . S
C1113 C1117 1.429 . S
C1114 C1097 1.574 . S
C1114 H1108 0.949 . S
C1114 C1118 1.368 . S
C1115 C1096 1.429 . S
C1115 C1109 1.429 . S
C1115 C1116 1.523 . S
C1116 C1097 1.368 . S
C1116 C1110 1.368 . S
C1116 C1115 1.523 . S
C1117 C1101 1.429 . S
C1117 C1113 1.429 . S
C1117 C1118 1.523 . S
C1118 C1102 1.368 . S
C1118 C1114 1.368 . S
C1118 C1117 1.523 . S
H1119 C1094 0.950 . S
H1120 C1096 0.950 . S
H1121 C1097 0.949 . S
H1122 C1099 0.950 . S
H1123 C1101 0.950 . S
C1124 C1125 1.349 . S
C1124 C1126 1.327 . S
C1124 H1149 0.950 . S
C1125 C1124 1.349 . S
C1125 C1141 1.349 . S
C1126 C1124 1.327 . S
C1126 C1145 1.429 . S
C1126 H1150 0.950 . S
C1127 C1144 1.574 1_554 S
C1127 C1146 1.368 . S
C1127 H1151 0.949 . S
H1128 C1132 0.949 . S
C1129 C1130 1.349 . S
C1129 C1131 1.327 . S
C1129 H1152 0.950 . S
C1130 C1129 1.349 . S
C1130 C1142 1.349 . S
C1131 C1129 1.327 . S
C1131 C1147 1.429 . S
C1131 H1153 0.950 . S
C1132 H1128 0.949 . S
C1132 C1140 1.574 1_556 S
C1132 C1148 1.368 . S
H1133 C1141 0.950 . S
H1134 C1139 0.950 . S
H1135 C1140 0.949 . S
H1136 C1142 0.950 . S
H1137 C1143 0.950 . S
H1138 C1144 0.949 . S
C1139 H1134 0.950 . S
C1139 C1141 1.327 . S
C1139 C1145 1.429 . S
C1140 C1132 1.574 1_554 S
C1140 H1135 0.949 . S
C1140 C1146 1.368 . S
C1141 C1125 1.349 . S
C1141 H1133 0.950 . S
C1141 C1139 1.327 . S
C1142 C1130 1.349 . S
C1142 H1136 0.950 . S
C1142 C1143 1.327 . S
C1143 H1137 0.950 . S
C1143 C1142 1.327 . S
C1143 C1147 1.429 . S
C1144 C1127 1.574 1_556 S
C1144 H1138 0.949 . S
C1144 C1148 1.368 . S
C1145 C1126 1.429 . S
C1145 C1139 1.429 . S
C1145 C1146 1.523 . S
C1146 C1127 1.368 . S
C1146 C1140 1.368 . S
C1146 C1145 1.523 . S
C1147 C1131 1.429 . S
C1147 C1143 1.429 . S
C1147 C1148 1.523 . S
C1148 C1132 1.368 . S
C1148 C1144 1.368 . S
C1148 C1147 1.523 . S
H1149 C1124 0.950 . S
H1150 C1126 0.950 . S
H1151 C1127 0.949 . S
H1152 C1129 0.950 . S
H1153 C1131 0.950 . S
C1154 C1155 1.349 . S
C1154 C1156 1.327 . S
C1154 H1179 0.950 . S
C1155 C1154 1.349 . S
C1155 C1171 1.349 . S
C1156 C1154 1.327 . S
C1156 C1175 1.429 . S
C1156 H1180 0.950 . S
C1157 C1174 1.574 . S
C1157 C1176 1.368 . S
C1157 H1181 0.931 1_545 S
H1158 C1162 0.949 . S
C1159 C1160 1.349 . S
C1159 C1161 1.327 . S
C1159 H1182 0.961 . S
C1160 C1159 1.349 . S
C1160 C1172 1.349 . S
C1161 C1159 1.327 . S
C1161 C1177 1.429 . S
C1161 H1183 0.938 1_545 S
C1162 H1158 0.949 . S
C1162 C1170 1.574 . S
C1162 C1178 1.368 . S
H1163 C1171 0.961 . S
H1164 C1169 0.938 1_565 S
H1165 C1170 0.949 . S
H1166 C1172 0.950 . S
H1167 C1173 0.950 . S
H1168 C1174 0.931 1_565 S
C1169 H1164 0.938 1_545 S
C1169 C1171 1.327 . S
C1169 C1175 1.429 . S
C1170 C1162 1.574 . S
C1170 H1165 0.949 . S
C1170 C1176 1.368 . S
C1171 C1155 1.349 . S
C1171 H1163 0.961 . S
C1171 C1169 1.327 . S
C1172 C1160 1.349 . S
C1172 H1166 0.950 . S
C1172 C1173 1.327 . S
C1173 H1167 0.950 . S
C1173 C1172 1.327 . S
C1173 C1177 1.429 . S
C1174 C1157 1.574 . S
C1174 H1168 0.931 1_545 S
C1174 C1178 1.368 . S
C1175 C1156 1.429 . S
C1175 C1169 1.429 . S
C1175 C1176 1.523 . S
C1176 C1157 1.368 . S
C1176 C1170 1.368 . S
C1176 C1175 1.523 . S
C1177 C1161 1.429 . S
C1177 C1173 1.429 . S
C1177 C1178 1.523 . S
C1178 C1162 1.368 . S
C1178 C1174 1.368 . S
C1178 C1177 1.523 . S
H1179 C1154 0.950 . S
H1180 C1156 0.950 . S
H1181 C1157 0.931 1_565 S
H1182 C1159 0.961 . S
H1183 C1161 0.938 1_565 S
C225 C7 1.401 . S
C230 C104 1.401 . S
C255 C20 1.401 . S
C260 C63 1.401 . S
C285 C35 1.401 . S
C290 C76 1.401 . S
C315 C48 1.401 . S
C320 C91 1.401 . S
C345 C118 1.401 . S
C350 C216 1.401 . S
C375 C174 1.401 . S
C380 C132 1.401 . S
C405 C146 1.401 . S
C410 C188 1.401 . S
C435 C160 1.401 . S
C440 C202 1.401 . S
C465 C8 1.577 . S
C470 C134 1.602 . S
C495 C23 1.577 . S
C500 C148 1.602 . S
C525 C162 1.602 . S
C530 C36 1.577 . S
C555 C51 1.577 . S
C560 C120 1.602 . S
C585 C64 1.577 . S
C590 C218 1.602 . S
C615 C176 1.602 . S
C620 C79 1.577 . S
C645 C190 1.602 . S
C650 C92 1.577 . S
C675 C204 1.602 . S
C680 C107 1.577 . S
C705 C22 1.602 . S
C710 C121 1.577 . S
C735 C37 1.602 . S
C740 C135 1.577 . S
C765 C149 1.577 . S
C770 C50 1.602 . S
C795 C9 1.602 . S
C800 C163 1.577 . S
C825 C177 1.577 . S
C830 C106 1.602 . S
C855 C191 1.577 . S
C860 C65 1.602 . S
C885 C78 1.602 . S
C890 C205 1.577 . S
C915 C93 1.602 . S
C920 C219 1.577 . S
C945 C6 1.554 . S
C950 C62 1.554 . S
C975 C77 1.554 . S
C980 C21 1.554 . S
C1005 C34 1.554 . S
C1010 C90 1.554 . S
C1035 C105 1.554 . S
C1040 C49 1.554 . S
C1065 C119 1.554 . S
C1070 C175 1.554 . S
C1095 C189 1.554 . S
C1100 C133 1.554 . S
C1125 C203 1.554 . S
C1130 C147 1.554 . S
C1155 C217 1.554 . S
C1160 C161 1.554 . S
