# Generated by pormake.
# Topology ana, (4)-cn, num edge types: 1
# Building blocks:
#     Node 0, Type 0, BuildingBlock: KUFVIS_clean_sbu_0, # of connection points: 4
#     Node 1, Type 0, BuildingBlock: KUFVIS_clean_sbu_0, # of connection points: 4
#     Node 2, Type 0, BuildingBlock: KUFVIS_clean_sbu_0, # of connection points: 4
#     Node 3, Type 0, BuildingBlock: KUFVIS_clean_sbu_0, # of connection points: 4
#     Node 4, Type 0, BuildingBlock: KUFVIS_clean_sbu_0, # of connection points: 4
#     Node 5, Type 0, BuildingBlock: KUFVIS_clean_sbu_0, # of connection points: 4
#     Node 6, Type 0, BuildingBlock: KUFVIS_clean_sbu_0, # of connection points: 4
#     Node 7, Type 0, BuildingBlock: KUFVIS_clean_sbu_0, # of connection points: 4
#     Node 8, Type 0, BuildingBlock: KUFVIS_clean_sbu_0, # of connection points: 4
#     Node 9, Type 0, BuildingBlock: KUFVIS_clean_sbu_0, # of connection points: 4
#     Node 10, Type 0, BuildingBlock: KUFVIS_clean_sbu_0, # of connection points: 4
#     Node 11, Type 0, BuildingBlock: KUFVIS_clean_sbu_0, # of connection points: 4
#     Node 12, Type 0, BuildingBlock: KUFVIS_clean_sbu_0, # of connection points: 4
#     Node 13, Type 0, BuildingBlock: KUFVIS_clean_sbu_0, # of connection points: 4
#     Node 14, Type 0, BuildingBlock: KUFVIS_clean_sbu_0, # of connection points: 4
#     Node 15, Type 0, BuildingBlock: KUFVIS_clean_sbu_0, # of connection points: 4
#     Node 16, Type 0, BuildingBlock: KUFVIS_clean_sbu_0, # of connection points: 4
#     Node 17, Type 0, BuildingBlock: KUFVIS_clean_sbu_0, # of connection points: 4
#     Node 18, Type 0, BuildingBlock: KUFVIS_clean_sbu_0, # of connection points: 4
#     Node 19, Type 0, BuildingBlock: KUFVIS_clean_sbu_0, # of connection points: 4
#     Node 20, Type 0, BuildingBlock: KUFVIS_clean_sbu_0, # of connection points: 4
#     Node 21, Type 0, BuildingBlock: KUFVIS_clean_sbu_0, # of connection points: 4
#     Node 22, Type 0, BuildingBlock: KUFVIS_clean_sbu_0, # of connection points: 4
#     Node 23, Type 0, BuildingBlock: KUFVIS_clean_sbu_0, # of connection points: 4
#     Node 24, Type 0, BuildingBlock: KUFVIS_clean_sbu_0, # of connection points: 4
#     Node 25, Type 0, BuildingBlock: KUFVIS_clean_sbu_0, # of connection points: 4
#     Node 26, Type 0, BuildingBlock: KUFVIS_clean_sbu_0, # of connection points: 4
#     Node 27, Type 0, BuildingBlock: KUFVIS_clean_sbu_0, # of connection points: 4
#     Node 28, Type 0, BuildingBlock: KUFVIS_clean_sbu_0, # of connection points: 4
#     Node 29, Type 0, BuildingBlock: KUFVIS_clean_sbu_0, # of connection points: 4
#     Node 30, Type 0, BuildingBlock: KUFVIS_clean_sbu_0, # of connection points: 4
#     Node 31, Type 0, BuildingBlock: KUFVIS_clean_sbu_0, # of connection points: 4
#     Node 32, Type 0, BuildingBlock: KUFVIS_clean_sbu_0, # of connection points: 4
#     Node 33, Type 0, BuildingBlock: KUFVIS_clean_sbu_0, # of connection points: 4
#     Node 34, Type 0, BuildingBlock: KUFVIS_clean_sbu_0, # of connection points: 4
#     Node 35, Type 0, BuildingBlock: KUFVIS_clean_sbu_0, # of connection points: 4
#     Node 36, Type 0, BuildingBlock: KUFVIS_clean_sbu_0, # of connection points: 4
#     Node 37, Type 0, BuildingBlock: KUFVIS_clean_sbu_0, # of connection points: 4
#     Node 38, Type 0, BuildingBlock: KUFVIS_clean_sbu_0, # of connection points: 4
#     Node 39, Type 0, BuildingBlock: KUFVIS_clean_sbu_0, # of connection points: 4
#     Node 40, Type 0, BuildingBlock: KUFVIS_clean_sbu_0, # of connection points: 4
#     Node 41, Type 0, BuildingBlock: KUFVIS_clean_sbu_0, # of connection points: 4
#     Node 42, Type 0, BuildingBlock: KUFVIS_clean_sbu_0, # of connection points: 4
#     Node 43, Type 0, BuildingBlock: KUFVIS_clean_sbu_0, # of connection points: 4
#     Node 44, Type 0, BuildingBlock: KUFVIS_clean_sbu_0, # of connection points: 4
#     Node 45, Type 0, BuildingBlock: KUFVIS_clean_sbu_0, # of connection points: 4
#     Node 46, Type 0, BuildingBlock: KUFVIS_clean_sbu_0, # of connection points: 4
#     Node 47, Type 0, BuildingBlock: KUFVIS_clean_sbu_0, # of connection points: 4
#     Edge 48, Type (0, 0), None
#     Edge 49, Type (0, 0), None
#     Edge 50, Type (0, 0), None
#     Edge 51, Type (0, 0), None
#     Edge 52, Type (0, 0), None
#     Edge 53, Type (0, 0), None
#     Edge 54, Type (0, 0), None
#     Edge 55, Type (0, 0), None
#     Edge 56, Type (0, 0), None
#     Edge 57, Type (0, 0), None
#     Edge 58, Type (0, 0), None
#     Edge 59, Type (0, 0), None
#     Edge 60, Type (0, 0), None
#     Edge 61, Type (0, 0), None
#     Edge 62, Type (0, 0), None
#     Edge 63, Type (0, 0), None
#     Edge 64, Type (0, 0), None
#     Edge 65, Type (0, 0), None
#     Edge 66, Type (0, 0), None
#     Edge 67, Type (0, 0), None
#     Edge 68, Type (0, 0), None
#     Edge 69, Type (0, 0), None
#     Edge 70, Type (0, 0), None
#     Edge 71, Type (0, 0), None
#     Edge 72, Type (0, 0), None
#     Edge 73, Type (0, 0), None
#     Edge 74, Type (0, 0), None
#     Edge 75, Type (0, 0), None
#     Edge 76, Type (0, 0), None
#     Edge 77, Type (0, 0), None
#     Edge 78, Type (0, 0), None
#     Edge 79, Type (0, 0), None
#     Edge 80, Type (0, 0), None
#     Edge 81, Type (0, 0), None
#     Edge 82, Type (0, 0), None
#     Edge 83, Type (0, 0), None
#     Edge 84, Type (0, 0), None
#     Edge 85, Type (0, 0), None
#     Edge 86, Type (0, 0), None
#     Edge 87, Type (0, 0), None
#     Edge 88, Type (0, 0), None
#     Edge 89, Type (0, 0), None
#     Edge 90, Type (0, 0), None
#     Edge 91, Type (0, 0), None
#     Edge 92, Type (0, 0), None
#     Edge 93, Type (0, 0), None
#     Edge 94, Type (0, 0), None
#     Edge 95, Type (0, 0), None
#     Edge 96, Type (0, 0), None
#     Edge 97, Type (0, 0), None
#     Edge 98, Type (0, 0), None
#     Edge 99, Type (0, 0), None
#     Edge 100, Type (0, 0), None
#     Edge 101, Type (0, 0), None
#     Edge 102, Type (0, 0), None
#     Edge 103, Type (0, 0), None
#     Edge 104, Type (0, 0), None
#     Edge 105, Type (0, 0), None
#     Edge 106, Type (0, 0), None
#     Edge 107, Type (0, 0), None
#     Edge 108, Type (0, 0), None
#     Edge 109, Type (0, 0), None
#     Edge 110, Type (0, 0), None
#     Edge 111, Type (0, 0), None
#     Edge 112, Type (0, 0), None
#     Edge 113, Type (0, 0), None
#     Edge 114, Type (0, 0), None
#     Edge 115, Type (0, 0), None
#     Edge 116, Type (0, 0), None
#     Edge 117, Type (0, 0), None
#     Edge 118, Type (0, 0), None
#     Edge 119, Type (0, 0), None
#     Edge 120, Type (0, 0), None
#     Edge 121, Type (0, 0), None
#     Edge 122, Type (0, 0), None
#     Edge 123, Type (0, 0), None
#     Edge 124, Type (0, 0), None
#     Edge 125, Type (0, 0), None
#     Edge 126, Type (0, 0), None
#     Edge 127, Type (0, 0), None
#     Edge 128, Type (0, 0), None
#     Edge 129, Type (0, 0), None
#     Edge 130, Type (0, 0), None
#     Edge 131, Type (0, 0), None
#     Edge 132, Type (0, 0), None
#     Edge 133, Type (0, 0), None
#     Edge 134, Type (0, 0), None
#     Edge 135, Type (0, 0), None
#     Edge 136, Type (0, 0), None
#     Edge 137, Type (0, 0), None
#     Edge 138, Type (0, 0), None
#     Edge 139, Type (0, 0), None
#     Edge 140, Type (0, 0), None
#     Edge 141, Type (0, 0), None
#     Edge 142, Type (0, 0), None
#     Edge 143, Type (0, 0), None
# Relax obj value: 0.114
# Max RMSD: 0.158
# Mean RMSD: 0.127
data_MOF--net-ana--node1-KUFVIS_clean_sbu_0--edge1-none
_symmetry_space_group_name_H-M    P1
_symmetry_Int_Tables_number       1
_symmetry_cell_setting            triclinic
loop_
_symmetry_equiv_pos_as_xyz
'x, y, z'
_cell_length_a     28.33586
_cell_length_b     29.571393
_cell_length_c     30.354898
_cell_angle_alpha  90.027444
_cell_angle_beta   90.571324
_cell_angle_gamma 90.855848
loop_
_atom_site_label
_atom_site_type_symbol
_atom_site_fract_x
_atom_site_fract_y
_atom_site_fract_z
_atom_type_partial_charge
Mn0 Mn 0.11254 0.1909 0.40427 0.0
Mn1 Mn 0.11272 0.08042 0.41059 0.0
C2 C 0.04127 0.15265 0.37322 0.0
C3 C 0.12462 0.26001 0.36727 0.0
C4 C 0.11611 0.13862 0.4899 0.0
O5 O 0.18703 0.17169 0.40507 0.0
O6 O 0.17518 0.09914 0.38806 0.0
C7 C 0.1836 0.01105 0.41994 0.0
N8 N 0.13906 0.02474 0.42943 0.0
C9 C 0.10808 0.95027 0.41827 0.0
C10 C 0.15305 0.93568 0.40695 0.0
C11 C 0.19085 0.96647 0.40733 0.0
C12 C 0.10275 0.99488 0.43286 0.0
H13 H 0.21259 0.0349 0.41771 0.0
C14 C 0.20325 0.13264 0.39273 0.0
O15 O 0.12719 0.25782 0.40978 0.0
O16 O 0.11945 0.2221 0.34704 0.0
N17 N 0.05622 0.05919 0.43753 0.0
C18 C 0.01492 0.08142 0.44126 0.0
C19 C 0.97254 0.05718 0.43531 0.0
C20 C 0.97444 0.01165 0.42329 0.0
C21 C 0.0179 0.98934 0.42373 0.0
C22 C 0.05797 0.01349 0.43756 0.0
H23 H 0.01475 0.11736 0.44738 0.0
O24 O 0.04084 0.19338 0.38903 0.0
O25 O 0.08222 0.13425 0.38344 0.0
O26 O 0.10194 0.17491 0.47162 0.0
O27 O 0.13204 0.10701 0.46662 0.0
C28 C 0.02486 0.94867 0.40131 0.0
C29 C 0.06809 0.92665 0.40366 0.0
H30 H 0.15811 0.90209 0.39395 0.0
H31 H 0.22467 0.95701 0.39435 0.0
H32 H 0.93894 0.07391 0.43724 0.0
H33 H 0.94234 0.99481 0.4129 0.0
H34 H -0.00199 0.93559 0.37942 0.0
H35 H 0.07128 0.89382 0.38906 0.0
Mn36 Mn 0.06907 0.88855 0.67113 0.0
Mn37 Mn 0.10695 0.89412 0.56905 0.0
C38 C 0.09726 0.96279 0.64232 0.0
C39 C 0.08353 0.88097 0.74864 0.0
C40 C 0.00247 0.8949 0.58988 0.0
O41 O 0.07954 0.81909 0.65475 0.0
O42 O 0.08943 0.83236 0.58322 0.0
C43 C 0.19301 0.83783 0.57804 0.0
N44 N 0.17301 0.87928 0.57271 0.0
C45 C 0.24875 0.91267 0.55601 0.0
C46 C 0.26976 0.87022 0.56056 0.0
C47 C 0.24172 0.83273 0.57207 0.0
C48 C 0.19976 0.91532 0.5617 0.0
H49 H 0.17213 0.80824 0.58531 0.0
C50 C 0.08435 0.80507 0.61471 0.0
O51 O 0.04145 0.87574 0.73207 0.0
O52 O 0.11647 0.88606 0.71966 0.0
N53 N 0.12812 0.95057 0.54986 0.0
C54 C 0.10119 0.98498 0.53685 0.0
C55 C 0.12326 0.02444 0.52333 0.0
C56 C 0.17302 0.02659 0.51995 0.0
C57 C 0.20005 0.99154 0.53568 0.0
C58 C 0.17589 0.95334 0.55027 0.0
H59 H 0.06348 0.98139 0.53645 0.0
O60 O 0.06902 0.95861 0.67528 0.0
O61 O 0.10945 0.92209 0.62825 0.0
O62 O 0.00938 0.88754 0.63093 0.0
O63 O 0.03689 0.90615 0.56409 0.0
C64 C 0.24976 0.99221 0.53529 0.0
C65 C 0.27434 0.95248 0.54542 0.0
H66 H 0.30731 0.86627 0.55575 0.0
H67 H 0.25748 0.79982 0.57581 0.0
H68 H 0.10076 0.05134 0.51343 0.0
H69 H 0.19081 0.05433 0.50356 0.0
H70 H 0.26918 0.02209 0.52481 0.0
H71 H 0.31235 0.95203 0.54203 0.0
Mn72 Mn 0.36794 0.80982 0.91137 0.0
Mn73 Mn 0.377 0.91809 0.91882 0.0
C74 C 0.43952 0.84576 0.87901 0.0
C75 C 0.35668 0.73876 0.87628 0.0
C76 C 0.36565 0.86184 -0.00337 0.0
O77 O 0.29433 0.83499 0.91013 0.0
O78 O 0.30888 0.9094 0.89867 0.0
C79 C 0.32779 1.00287 0.92958 0.0
N80 N 0.36595 0.97758 0.94069 0.0
C81 C 0.4182 0.04058 0.92992 0.0
C82 C 0.37991 0.06701 0.91728 0.0
C83 C 0.33476 0.04788 0.91679 0.0
C84 C 0.40958 0.997 0.94613 0.0
H85 H 0.29379 0.98693 0.92346 0.0
C86 C 0.27909 0.87599 0.90096 0.0
O87 O 0.35247 0.74234 0.91848 0.0
O88 O 0.36192 0.77642 0.85584 0.0
N89 N 0.4371 0.92357 0.94671 0.0
C90 C 0.46921 0.89201 0.95947 0.0
C91 C 0.51688 0.90501 0.96321 0.0
C92 C 0.52962 0.94918 0.95108 0.0
C93 C 0.49367 0.98069 0.94394 0.0
C94 C 0.44725 0.96737 0.9504 0.0
H95 H 0.45941 0.85696 0.96354 0.0
O96 O 0.44004 0.806 0.89711 0.0
O97 O 0.39823 0.86417 0.88704 0.0
O98 O 0.3786 0.82521 0.97885 0.0
O99 O 0.35309 0.89421 0.97295 0.0
C100 C 0.50089 0.02066 0.92209 0.0
C101 C 0.46274 0.04886 0.91217 0.0
H102 H 0.38535 0.09961 0.90187 0.0
H103 H 0.30704 0.06544 0.89969 0.0
H104 H 0.54358 0.88033 0.9708 0.0
H105 H 0.56647 0.95847 0.94717 0.0
H106 H 0.53545 0.02787 0.91045 0.0
H107 H 0.46662 0.07391 0.88699 0.0
Mn108 Mn 0.41427 0.11971 0.17021 0.0
Mn109 Mn 0.37969 0.11181 0.06755 0.0
C110 C 0.3855 0.04419 0.14187 0.0
C111 C 0.39586 0.12939 0.24563 0.0
C112 C 0.48416 0.11166 0.09375 0.0
O113 O 0.40617 0.1892 0.15186 0.0
O114 O 0.39683 0.17455 0.08046 0.0
C115 C 0.29386 0.16864 0.07178 0.0
N116 N 0.31368 0.12698 0.06798 0.0
C117 C 0.23822 0.09377 0.04868 0.0
C118 C 0.21768 0.1366 0.05052 0.0
C119 C 0.24555 0.17406 0.06298 0.0
C120 C 0.28691 0.09075 0.05717 0.0
H121 H 0.31471 0.19825 0.07953 0.0
C122 C 0.40209 0.20264 0.11149 0.0
O123 O 0.43894 0.13352 0.23207 0.0
O124 O 0.36433 0.12468 0.21471 0.0
N125 N 0.35862 0.05442 0.04939 0.0
C126 C 0.38522 0.01823 0.04127 0.0
C127 C 0.36263 0.97781 0.03015 0.0
C128 C 0.31316 0.97662 0.02348 0.0
C129 C 0.28639 0.01328 0.03493 0.0
C130 C 0.31073 0.05207 0.04822 0.0
H131 H 0.42303 0.02075 0.04354 0.0
O132 O 0.41253 0.04915 0.17609 0.0
O133 O 0.37491 0.08498 0.12663 0.0
O134 O 0.47617 0.11912 0.13438 0.0
O135 O 0.45011 0.09958 0.06703 0.0
C136 C 0.23678 0.01343 0.03121 0.0
C137 C 0.2126 0.0541 0.03732 0.0
H138 H 0.18051 0.14085 0.04325 0.0
H139 H 0.23006 0.20721 0.06501 0.0
H140 H 0.38454 0.94929 0.02387 0.0
H141 H 0.29553 0.94908 0.00641 0.0
H142 H 0.21729 0.98328 0.02118 0.0
H143 H 0.17486 0.05498 0.03142 0.0
Mn144 Mn 0.12294 0.83256 0.05277 0.0
Mn145 Mn 0.11304 0.80213 0.16671 0.0
C146 C 0.19577 0.85139 0.09756 0.0
C147 C 0.11078 0.88256 -0.00412 0.0
C148 C 0.1241 0.75722 0.09127 0.0
O149 O 0.04928 0.83552 0.07148 0.0
O150 O 0.05421 0.83276 0.14541 0.0
C151 C 0.04665 0.8163 0.2341 0.0
N152 N 0.08644 0.794 0.22307 0.0
C153 C 0.12366 0.81571 0.29065 0.0
C154 C 0.08482 0.8421 0.30042 0.0
C155 C 0.04687 0.84345 0.27153 0.0
C156 C 0.12326 0.78986 0.25143 0.0
H157 H 0.01713 0.81849 0.21157 0.0
C158 C 0.03108 0.84179 0.11023 0.0
O159 O 0.1061 0.83964 -0.00962 0.0
O160 O 0.12098 0.89689 0.03497 0.0
N161 N 0.16496 0.76851 0.18841 0.0
C162 C 0.20464 0.75997 0.16488 0.0
C163 C 0.24829 0.76736 0.18417 0.0
C164 C 0.25023 0.78521 0.22622 0.0
C165 C 0.20886 0.79071 0.25112 0.0
C166 C 0.16594 0.77597 0.23255 0.0
H167 H 0.20371 0.75277 0.13015 0.0
O168 O 0.1951 0.8454 0.05509 0.0
O169 O 0.15463 0.83443 0.11438 0.0
O170 O 0.12468 0.76138 0.05066 0.0
O171 O 0.13078 0.79441 0.11051 0.0
C172 C 0.20752 0.81903 0.28832 0.0
C173 C 0.16627 0.82701 0.31068 0.0
H174 H 0.08611 0.86567 0.32726 0.0
H175 H 0.01882 0.86693 0.27691 0.0
H176 H 0.28021 0.7631 0.1654 0.0
H177 H 0.28437 0.7957 0.23715 0.0
H178 H 0.237 0.83891 0.29873 0.0
H179 H 0.16769 0.84939 0.33889 0.0
Mn180 Mn 0.41452 0.86404 0.33269 0.0
Mn181 Mn 0.30194 0.85166 0.3445 0.0
C182 C 0.38218 0.78921 0.33446 0.0
C183 C 0.48952 0.86917 0.35964 0.0
C184 C 0.34265 0.87312 0.25661 0.0
O185 O 0.39929 0.92861 0.35519 0.0
O186 O 0.32231 0.91906 0.34365 0.0
C187 C 0.29193 0.89298 0.42943 0.0
N188 N 0.28785 0.85449 0.40546 0.0
C189 C 0.21912 0.83126 0.44624 0.0
C190 C 0.21905 0.87347 0.46593 0.0
C191 C 0.2558 0.90421 0.45754 0.0
C192 C 0.25358 0.82353 0.41448 0.0
H193 H 0.3189 0.91792 0.42292 0.0
C194 C 0.35832 0.94534 0.35175 0.0
O195 O 0.47792 0.88485 0.32105 0.0
O196 O 0.45685 0.85173 0.3839 0.0
N197 N 0.27571 0.79027 0.34935 0.0
C198 C 0.27398 0.75528 0.32025 0.0
C199 C 0.23687 0.72317 0.32248 0.0
C200 C 0.20292 0.72686 0.35519 0.0
C201 C 0.20975 0.75821 0.38875 0.0
C202 C 0.24785 0.78886 0.3852 0.0
H203 H 0.29774 0.75486 0.29318 0.0
O204 O 0.42063 0.7987 0.31376 0.0
O205 O 0.36344 0.82454 0.35398 0.0
O206 O 0.38372 0.88146 0.27233 0.0
O207 O 0.31166 0.85226 0.2795 0.0
C208 C 0.1775 0.76289 0.42322 0.0
C209 C 0.18186 0.79996 0.45178 0.0
H210 H 0.18854 0.8838 0.48405 0.0
H211 H 0.25363 0.93865 0.46779 0.0
H212 H 0.23139 0.69819 0.29715 0.0
H213 H 0.17141 0.70571 0.35405 0.0
H214 H 0.14787 0.73961 0.42653 0.0
H215 H 0.15515 0.8054 0.47645 0.0
Mn216 Mn 0.35421 0.16251 0.5546 0.0
Mn217 Mn 0.35428 0.21438 0.63548 0.0
C218 C 0.28082 0.14944 0.59342 0.0
C219 C 0.36621 0.11641 0.49378 0.0
C220 C 0.38256 0.25386 0.56782 0.0
O221 O 0.42589 0.1518 0.58101 0.0
O222 O 0.41611 0.17858 0.65073 0.0
C223 C 0.3426 0.22294 0.72754 0.0
N224 N 0.32228 0.21132 0.68851 0.0
C225 C 0.24569 0.21264 0.71931 0.0
C226 C 0.26789 0.20589 0.75981 0.0
C227 C 0.31495 0.21967 0.76537 0.0
C228 C 0.27547 0.21708 0.68366 0.0
H229 H 0.3797 0.23177 0.72888 0.0
C230 C 0.44244 0.15767 0.62121 0.0
O231 O 0.37528 0.15879 0.49324 0.0
O232 O 0.35121 0.09954 0.53015 0.0
N233 N 0.29333 0.24616 0.61509 0.0
C234 C 0.27759 0.27108 0.57874 0.0
C235 C 0.23043 0.28273 0.57229 0.0
C236 C 0.1972 0.27087 0.60308 0.0
C237 C 0.21199 0.24855 0.64067 0.0
C238 C 0.26 0.23641 0.64548 0.0
H239 H 0.29853 0.28517 0.55301 0.0
O240 O 0.28199 0.15822 0.55142 0.0
O241 O 0.32204 0.15625 0.61325 0.0
O242 O 0.35163 0.23502 0.54475 0.0
O243 O 0.39707 0.22369 0.58852 0.0
C244 C 0.18028 0.23844 0.67412 0.0
C245 C 0.19718 0.22092 0.71356 0.0
H246 H 0.25059 0.18872 0.78598 0.0
H247 H 0.33 0.22271 0.79804 0.0
H248 H 0.2199 0.30168 0.54337 0.0
H249 H 0.16071 0.28036 0.59822 0.0
H250 H 0.14332 0.24697 0.67105 0.0
H251 H 0.17229 0.21997 0.73963 0.0
Mn252 Mn 0.07149 0.14584 0.83784 0.0
Mn253 Mn 0.18489 0.15236 0.84604 0.0
C254 C 0.10645 0.21935 0.84045 0.0
C255 C -0.00354 0.14224 0.8638 0.0
C256 C 0.13914 0.13816 0.75801 0.0
O257 O 0.0846 0.08128 0.86145 0.0
O258 O 0.15979 0.08684 0.84221 0.0
C259 C 0.20359 0.10262 0.92544 0.0
N260 N 0.20257 0.14416 0.90629 0.0
C261 C 0.26997 0.16774 0.95004 0.0
C262 C 0.27617 0.12333 0.9626 0.0
C263 C 0.24246 0.09065 0.95049 0.0
C264 C 0.23511 0.17606 0.91825 0.0
H265 H 0.17857 0.0764 0.91754 0.0
C266 C 0.12379 0.06259 0.85424 0.0
O267 O 0.00775 0.12684 0.8253 0.0
O268 O 0.02965 0.15843 0.88916 0.0
N269 N 0.21445 0.21187 0.85361 0.0
C270 C 0.21575 0.2487 0.82693 0.0
C271 C 0.25224 0.28094 0.83177 0.0
C272 C 0.28409 0.27741 0.8669 0.0
C273 C 0.27624 0.24486 0.89886 0.0
C274 C 0.24039 0.21242 0.89108 0.0
H275 H 0.19308 0.24983 0.79904 0.0
O276 O 0.06722 0.21109 0.81972 0.0
O277 O 0.12526 0.18316 0.85914 0.0
O278 O 0.09956 0.12864 0.77588 0.0
O279 O 0.17274 0.15613 0.78119 0.0
C280 C 0.30555 0.24101 0.93609 0.0
C281 C 0.30261 0.20182 0.96169 0.0
H282 H 0.30845 0.11371 0.97898 0.0
H283 H 0.2478 0.05552 0.95769 0.0
H284 H 0.25794 0.30667 0.8072 0.0
H285 H 0.31509 0.29918 0.86886 0.0
H286 H 0.33285 0.26611 0.94318 0.0
H287 H 0.32787 0.19665 0.98813 0.0
Mn288 Mn 0.17617 0.40626 0.10695 0.0
Mn289 Mn 0.06162 0.42251 0.0868 0.0
C290 C 0.14393 0.40008 0.03463 0.0
C291 C 0.25126 0.37198 0.11061 0.0
C292 C 0.12834 0.49728 0.1166 0.0
O293 O 0.14616 0.39236 0.16999 0.0
O294 O 0.06862 0.39636 0.14879 0.0
C295 C 0.00599 0.3368 0.08358 0.0
N296 N 0.02323 0.37426 0.0631 0.0
C297 C 0.96231 0.36858 0.00669 0.0
C298 C 0.94485 0.32958 0.02662 0.0
C299 C 0.96683 0.31369 0.06479 0.0
C300 C 0.00227 0.38961 0.02552 0.0
H301 H 0.02054 0.32619 0.11488 0.0
C302 C 0.10125 0.3908 0.17904 0.0
O303 O 0.24206 0.41051 0.12815 0.0
O304 O 0.21447 0.34817 0.09825 0.0
N305 N 0.05527 0.44936 0.02983 0.0
C306 C 0.07915 0.4854 0.0123 0.0
C307 C 0.06445 0.50321 0.97166 0.0
C308 C 0.02409 0.48512 0.95065 0.0
C309 C 0.00103 0.44751 0.96912 0.0
C310 C 0.01982 0.429 0.00771 0.0
H311 H 0.10906 0.50053 0.02926 0.0
O312 O 0.18663 0.4151 0.04137 0.0
O313 O 0.11993 0.39287 0.07001 0.0
O314 O 0.16595 0.47491 0.11719 0.0
O315 O 0.08942 0.47817 0.10824 0.0
C316 C 0.95962 0.42821 0.95136 0.0
C317 C 0.93991 0.38888 0.9703 0.0
H318 H 0.91361 0.31234 0.01378 0.0
H319 H 0.9505 0.28575 0.08097 0.0
H320 H 0.08301 0.53188 0.9575 0.0
H321 H 0.01137 0.50008 0.92028 0.0
H322 H 0.94269 0.44374 0.92344 0.0
H323 H 0.90769 0.37436 0.95645 0.0
Mn324 Mn 0.67098 0.08311 0.86594 0.0
Mn325 Mn 0.56805 0.12762 0.86283 0.0
C326 C 0.63956 0.10111 0.94038 0.0
C327 C 0.74713 0.1201 0.86517 0.0
C328 C 0.5858 0.02156 0.84291 0.0
O329 O 0.66042 0.0951 0.79779 0.0
O330 O 0.60454 0.14359 0.80742 0.0
C331 C 0.50646 0.14874 0.78692 0.0
N332 N 0.51342 0.14537 0.83109 0.0
C333 C 0.43951 0.18038 0.84556 0.0
C334 C 0.43116 0.18223 0.80043 0.0
C335 C 0.4652 0.1675 0.77081 0.0
C336 C 0.48161 0.16132 0.85962 0.0
H337 H 0.53272 0.13929 0.76406 0.0
C338 C 0.63298 0.12459 0.7813 0.0
O339 O 0.74325 0.07721 0.85691 0.0
O340 O 0.70855 0.13917 0.87249 0.0
N341 N 0.52788 0.12761 0.91248 0.0
C342 C 0.53178 0.10727 0.95194 0.0
C343 C 0.49694 0.11257 0.98291 0.0
C344 C 0.4607 0.14363 0.97608 0.0
C345 C 0.45674 0.16415 0.93488 0.0
C346 C 0.49042 0.15377 0.90329 0.0
H347 H 0.55524 0.07984 0.95633 0.0
O348 O 0.67534 0.07587 0.93433 0.0
O349 O 0.62174 0.11177 0.9012 0.0
O350 O 0.62973 0.02353 0.85589 0.0
O351 O 0.55963 0.05841 0.84408 0.0
C352 C 0.41724 0.18906 0.9221 0.0
C353 C 0.40793 0.19662 0.87712 0.0
H354 H 0.39977 0.19665 0.78849 0.0
H355 H 0.46129 0.17304 0.73581 0.0
H356 H 0.49679 0.08833 0.00889 0.0
H357 H 0.43312 0.14736 0.00012 0.0
H358 H 0.39293 0.20006 0.94654 0.0
H359 H 0.37589 0.21345 0.86717 0.0
Mn360 Mn 0.81223 0.92445 0.36027 0.0
Mn361 Mn 0.90804 0.87111 0.35869 0.0
C362 C 0.84399 0.90642 0.43545 0.0
C363 C 0.73613 0.89057 0.36019 0.0
C364 C 0.89722 0.979 0.33736 0.0
O365 O 0.82295 0.9146 0.29093 0.0
O366 O 0.86613 0.85713 0.30445 0.0
C367 C 0.94794 0.81097 0.29239 0.0
N368 N 0.95504 0.83618 0.32982 0.0
C369 C 0.01422 0.78353 0.35491 0.0
C370 C 0.00937 0.75981 0.31551 0.0
C371 C 0.97449 0.77233 0.28504 0.0
C372 C 0.98525 0.82095 0.36136 0.0
H373 H 0.92331 0.82036 0.267 0.0
C374 C 0.84631 0.88176 0.2753 0.0
O375 O 0.74078 0.93335 0.35169 0.0
O376 O 0.77407 0.86984 0.36561 0.0
N377 N 0.95155 0.87384 0.40703 0.0
C378 C 0.95239 0.90042 0.44333 0.0
C379 C 0.98694 0.89419 0.47563 0.0
C380 C 0.01834 0.8581 0.47251 0.0
C381 C 0.01693 0.83094 0.43489 0.0
C382 C 0.98434 0.84179 0.40163 0.0
H383 H 0.93093 0.92982 0.44478 0.0
O384 O 0.80823 0.93161 0.42919 0.0
O385 O 0.86079 0.8962 0.39647 0.0
O386 O 0.85473 0.9802 0.35239 0.0
O387 O 0.92133 0.94012 0.33632 0.0
C388 C 0.04808 0.79509 0.42814 0.0
C389 C 0.04621 0.77084 0.3883 0.0
H390 H 0.03326 0.73294 0.30789 0.0
H391 H 0.97051 0.75455 0.25407 0.0
H392 H 0.99043 0.9192 0.50103 0.0
H393 H 0.04493 0.85295 0.49777 0.0
H394 H 0.07313 0.78563 0.45352 0.0
H395 H 0.06933 0.74241 0.38367 0.0
Mn396 Mn 0.82546 0.0828 0.12027 0.0
Mn397 Mn 0.84078 0.1925 0.12338 0.0
C398 C 0.85163 0.11465 0.18995 0.0
C399 C 0.85104 0.01068 0.11244 0.0
C400 C 0.74408 0.14612 0.10919 0.0
O401 O 0.83362 0.10106 0.05412 0.0
O402 O 0.8567 0.17344 0.06381 0.0
C403 C 0.94325 0.20479 0.10908 0.0
N404 N 0.90497 0.20837 0.13551 0.0
C405 C 0.95207 0.24161 0.19339 0.0
C406 C 0.99154 0.24067 0.16615 0.0
C407 C 0.9869 0.2226 0.12357 0.0
C408 C 0.90878 0.22628 0.17602 0.0
H409 H 0.9401 0.19086 0.07628 0.0
C410 C 0.84998 0.13893 0.03947 0.0
O411 O 0.8068 0.01918 0.10627 0.0
O412 O 0.88023 0.04476 0.11686 0.0
N413 N 0.82751 0.21382 0.17996 0.0
C414 C 0.78557 0.21242 0.20117 0.0
C415 C 0.78429 0.2262 0.24486 0.0
C416 C 0.82596 0.2418 0.26509 0.0
C417 C 0.86838 0.24487 0.24233 0.0
C418 C 0.86779 0.2289 0.19957 0.0
H419 H 0.75388 0.19955 0.18534 0.0
O420 O 0.82753 0.0772 0.18742 0.0
O421 O 0.85693 0.13326 0.1506 0.0
O422 O 0.75967 0.10821 0.12138 0.0
O423 O 0.77116 0.18119 0.10805 0.0
C424 C 0.9114 0.26156 0.26044 0.0
C425 C 0.95334 0.25929 0.23627 0.0
H426 H 0.02538 0.25405 0.17735 0.0
H427 H 0.01656 0.22357 0.10141 0.0
H428 H 0.75178 0.22382 0.2632 0.0
H429 H 0.82524 0.24884 0.29868 0.0
H430 H 0.91329 0.27631 0.29278 0.0
H431 H 0.98606 0.27217 0.25057 0.0
Mn432 Mn 0.32592 0.5804 0.62031 0.0
Mn433 Mn 0.34287 0.69001 0.6238 0.0
C434 C 0.35208 0.6123 0.68991 0.0
C435 C 0.35091 0.50782 0.61287 0.0
C436 C 0.24524 0.6452 0.61004 0.0
O437 O 0.33493 0.5986 0.55421 0.0
O438 O 0.35874 0.67073 0.56431 0.0
C439 C 0.44571 0.70048 0.60999 0.0
N440 N 0.40741 0.70452 0.63634 0.0
C441 C 0.45437 0.73939 0.69355 0.0
C442 C 0.4938 0.73805 0.66627 0.0
C443 C 0.48921 0.71901 0.62405 0.0
C444 C 0.41124 0.72303 0.67664 0.0
H445 H 0.44254 0.68611 0.57738 0.0
C446 C 0.3521 0.6363 0.53987 0.0
O447 O 0.30677 0.5167 0.60653 0.0
O448 O 0.3803 0.54176 0.6171 0.0
N449 N 0.3298 0.7118 0.68022 0.0
C450 C 0.28719 0.71427 0.70006 0.0
C451 C 0.28504 0.73328 0.74178 0.0
C452 C 0.32671 0.74948 0.76154 0.0
C453 C 0.37016 0.74653 0.74099 0.0
C454 C 0.37014 0.72678 0.69977 0.0
H455 H 0.25527 0.70209 0.68413 0.0
O456 O 0.32778 0.57494 0.68755 0.0
O457 O 0.35764 0.6306 0.6506 0.0
O458 O 0.26048 0.6068 0.62126 0.0
O459 O 0.27294 0.67984 0.60857 0.0
C460 C 0.4131 0.76324 0.75916 0.0
C461 C 0.45541 0.75887 0.73576 0.0
H462 H 0.52749 0.75212 0.67705 0.0
H463 H 0.51876 0.72 0.60175 0.0
H464 H 0.25158 0.73586 0.75837 0.0
H465 H 0.32502 0.76471 0.7922 0.0
H466 H 0.41426 0.78004 0.79072 0.0
H467 H 0.48806 0.77227 0.74973 0.0
Mn468 Mn 0.17432 0.58279 0.36968 0.0
Mn469 Mn 0.07147 0.62769 0.36551 0.0
C470 C 0.14199 0.60067 0.44348 0.0
C471 C 0.25022 0.61873 0.368 0.0
C472 C 0.08962 0.52173 0.34489 0.0
O473 O 0.16469 0.59506 0.30173 0.0
O474 O 0.10909 0.6439 0.31096 0.0
C475 C 0.0113 0.64886 0.28876 0.0
N476 N 0.01733 0.64538 0.333 0.0
C477 C 0.94158 0.6774 0.34595 0.0
C478 C 0.93374 0.67801 0.30068 0.0
C479 C 0.9694 0.66529 0.27183 0.0
C480 C 0.98432 0.66023 0.36088 0.0
H481 H 0.03861 0.64126 0.26646 0.0
C482 C 0.13797 0.62501 0.28522 0.0
O483 O 0.24602 0.57582 0.35962 0.0
O484 O 0.21212 0.63814 0.37677 0.0
N485 N 0.03039 0.62768 0.41463 0.0
C486 C 0.0337 0.60735 0.45416 0.0
C487 C -0.00205 0.61185 0.48435 0.0
C488 C 0.96133 0.64231 0.47683 0.0
C489 C 0.95791 0.66276 0.43561 0.0
C490 C -0.00749 0.65306 0.40469 0.0
H491 H 0.05727 0.58015 0.4589 0.0
O492 O 0.17791 0.57539 0.43797 0.0
O493 O 0.12453 0.61132 0.40421 0.0
O494 O 0.13326 0.52346 0.35864 0.0
O495 O 0.06338 0.55855 0.34618 0.0
C496 C 0.91785 0.68633 0.42197 0.0
C497 C 0.90886 0.69287 0.37682 0.0
H498 H 0.90134 0.68979 0.28797 0.0
H499 H 0.96622 0.6706 0.23676 0.0
H500 H -0.00257 0.58735 0.51014 0.0
H501 H 0.93293 0.64538 0.50011 0.0
H502 H 0.8926 0.69643 0.44585 0.0
H503 H 0.87622 0.70822 0.36631 0.0
Mn504 Mn 0.31395 0.42314 0.86205 0.0
Mn505 Mn 0.41027 0.37023 0.85791 0.0
C506 C 0.34746 0.40551 0.93626 0.0
C507 C 0.23745 0.39014 0.86195 0.0
C508 C 0.39856 0.47785 0.83654 0.0
O509 O 0.32344 0.41301 0.79292 0.0
O510 O 0.36635 0.35521 0.80565 0.0
C511 C 0.44969 0.31211 0.78925 0.0
N512 N 0.45687 0.33616 0.82737 0.0
C513 C 0.51609 0.28285 0.8509 0.0
C514 C 0.51102 0.26009 0.81088 0.0
C515 C 0.4768 0.27411 0.78035 0.0
C516 C 0.48766 0.32051 0.85817 0.0
H517 H 0.42455 0.32208 0.76458 0.0
C518 C 0.34601 0.3799 0.77699 0.0
O519 O 0.24269 0.43285 0.85312 0.0
O520 O 0.27512 0.36902 0.86827 0.0
N521 N 0.45526 0.37325 0.90497 0.0
C522 C 0.45633 0.39886 0.94196 0.0
C523 C 0.4912 0.3919 0.97384 0.0
C524 C 0.5225 0.35591 0.96965 0.0
C525 C 0.52062 0.32955 0.93143 0.0
C526 C 0.48779 0.34115 0.89865 0.0
H527 H 0.43476 0.42808 0.94435 0.0
O528 O 0.31132 0.43047 0.93073 0.0
O529 O 0.36376 0.3952 0.89701 0.0
O530 O 0.35658 0.47887 0.8529 0.0
O531 O 0.42258 0.43902 0.83441 0.0
C532 C 0.55086 0.29318 0.92403 0.0
C533 C 0.5482 0.26935 0.88392 0.0
H534 H 0.53444 0.23295 0.80271 0.0
H535 H 0.47291 0.25723 0.74888 0.0
H536 H 0.49472 0.4161 -1e-05 0.0
H537 H 0.54906 0.35003 -0.0052 0.0
H538 H 0.57563 0.28291 0.9493 0.0
H539 H 0.5709 0.24069 0.87879 0.0
Mn540 Mn 0.88789 0.82722 0.5625 0.0
Mn541 Mn 0.87584 0.93849 0.57789 0.0
C542 C 0.95693 0.87536 0.57051 0.0
C543 C 0.89643 0.75234 0.59459 0.0
C544 C 0.86172 0.89625 0.48412 0.0
O545 O 0.8174 0.82989 0.5828 0.0
O546 O 0.81638 0.90518 0.58819 0.0
C547 C 0.86171 0.92398 0.67362 0.0
N548 N 0.88461 0.94591 0.64034 0.0
C549 C 0.93662 0.98331 0.69231 0.0
C550 C 0.91367 0.96107 0.72683 0.0
C551 C 0.87615 0.93108 0.71741 0.0
C552 C 0.92171 0.97357 0.64911 0.0
H553 H 0.83333 0.90026 0.66708 0.0
C554 C 0.79627 0.8666 0.59209 0.0
O555 O 0.88307 0.75975 0.55411 0.0
O556 O 0.90452 0.78851 0.61745 0.0
N557 N 0.93054 0.97697 0.57293 0.0
C558 C 0.9497 0.99535 0.53619 0.0
C559 C 0.98669 0.02719 0.54072 0.0
C560 C 0.00294 0.04085 0.58227 0.0
C561 C 0.98226 0.02231 0.61963 0.0
C562 C 0.94528 0.99088 0.61353 0.0
H563 H 0.93649 0.98586 0.50403 0.0
O564 O 0.95826 0.83626 0.55141 0.0
O565 O 0.91475 0.885 0.58389 0.0
O566 O 0.86903 0.85528 0.49826 0.0
O567 O 0.86575 0.93041 0.51105 0.0
C568 C -0.00337 0.03425 0.66269 0.0
C569 C 0.97433 0.01409 0.6991 0.0
H570 H 0.92528 0.96612 0.76054 0.0
H571 H 0.85869 0.913 0.74374 0.0
H572 H 0.00435 0.04048 0.51281 0.0
H573 H 0.03134 0.06561 0.58492 0.0
H574 H 0.02531 0.05832 0.66814 0.0
H575 H 0.98636 0.02255 0.73212 0.0
Mn576 Mn 0.91114 0.13155 0.32988 0.0
Mn577 Mn 0.98521 0.08377 0.26159 0.0
C578 C -0.00616 0.13124 0.354 0.0
C579 C 0.87457 0.19749 0.35617 0.0
C580 C 0.91656 0.02674 0.32246 0.0
O581 O 0.8728 0.12855 0.26851 0.0
O582 O 0.92885 0.10295 0.22359 0.0
C583 C 0.02033 0.13577 0.18497 0.0
N584 N 0.02828 0.12343 0.2277 0.0
C585 C 0.11834 0.13961 0.20924 0.0
C586 C 0.10385 0.15828 0.17016 0.0
C587 C 0.05661 0.1524 0.15713 0.0
C588 C 0.07326 0.12196 0.2426 0.0
H589 H 0.98572 0.13069 0.1705 0.0
C590 C 0.88715 0.11884 0.22919 0.0
O591 O 0.85687 0.15786 0.36482 0.0
O592 O 0.91015 0.19842 0.33007 0.0
N593 N 0.03765 0.06779 0.29586 0.0
C594 C 0.03621 0.03498 0.32707 0.0
C595 C 0.07749 0.01785 0.34462 0.0
C596 C 0.12092 0.03518 0.33617 0.0
C597 C 0.12488 0.07694 0.31702 0.0
C598 C 0.07684 0.09339 0.28955 0.0
H599 H 0.00438 0.01498 0.33259 0.0
O600 O 0.95838 0.1349 0.3799 0.0
O601 O 0.979 0.12882 0.31175 0.0
O602 O 0.90083 0.06186 0.34185 0.0
O603 O 0.94443 0.03238 0.28953 0.0
C604 C 0.17879 0.08815 0.29994 0.0
C605 C 0.17765 0.12964 0.22338 0.0
H606 H 0.12962 0.17152 0.14724 0.0
H607 H 0.04835 0.1583 0.12289 0.0
H608 H 0.05876 0.04227 0.36335 0.0
H609 H 0.15103 0.01353 0.33914 0.0
H610 H 0.20559 0.06941 0.31674 0.0
H611 H 0.20601 0.14118 0.20204 0.0
Mn612 Mn 0.59817 0.18166 0.06675 0.0
Mn613 Mn 0.61377 0.07193 0.08437 0.0
C614 C 0.52978 0.13274 0.07565 0.0
C615 C 0.59029 0.25626 0.09838 0.0
C616 C 0.62409 0.1118 0.9895 0.0
O617 O 0.66954 0.18113 0.08576 0.0
O618 O 0.67404 0.10625 0.09193 0.0
C619 C 0.63012 0.09376 0.1785 0.0
N620 N 0.6072 0.06831 0.14718 0.0
C621 C 0.55395 0.03825 0.20142 0.0
C622 C 0.57634 0.06485 0.23371 0.0
C623 C 0.61469 0.09269 0.2222 0.0
C624 C 0.56949 0.04245 0.15788 0.0
H625 H 0.65896 0.11616 0.17027 0.0
C626 C 0.69307 0.14559 0.09435 0.0
O627 O 0.60206 0.24868 0.0577 0.0
O628 O 0.5829 0.22036 0.12161 0.0
N629 N 0.55942 0.03226 0.08217 0.0
C630 C 0.53997 0.01013 0.04709 0.0
C631 C 0.50358 0.97803 0.0543 0.0
C632 C 0.48714 0.96936 0.09669 0.0
C633 C 0.50797 0.99184 0.13228 0.0
C634 C 0.54527 0.02212 0.12372 0.0
H635 H 0.55289 0.01658 0.01434 0.0
O636 O 0.52739 0.1716 0.05624 0.0
O637 O 0.57276 0.12407 0.08878 0.0
O638 O 0.61579 0.15284 0.0029 0.0
O639 O 0.62124 0.07792 0.01701 0.0
C640 C 0.49358 0.98472 0.17603 0.0
C641 C 0.51581 0.00888 0.21056 0.0
H642 H 0.56388 0.06467 0.26729 0.0
H643 H 0.63201 0.11375 0.24684 0.0
H644 H 0.48713 0.95971 0.02795 0.0
H645 H 0.45878 0.94494 0.10147 0.0
H646 H 0.46468 0.96159 0.18334 0.0
H647 H 0.50343 0.00452 0.24397 0.0
Mn648 Mn 0.56819 0.86855 0.82659 0.0
Mn649 Mn 0.48613 0.92042 0.77069 0.0
C650 C 0.48679 0.86693 0.85828 0.0
C651 C 0.60756 0.80199 0.84556 0.0
C652 C 0.56478 0.97376 0.82756 0.0
O653 O 0.59877 0.87441 0.76152 0.0
O654 O 0.53627 0.90507 0.72874 0.0
C655 C 0.44985 0.85916 0.69892 0.0
N656 N 0.44207 0.87969 0.73844 0.0
C657 C 0.35208 0.86311 0.72121 0.0
C658 C 0.36517 0.84064 0.68385 0.0
C659 C 0.41305 0.83922 0.67326 0.0
C660 C 0.39782 0.88232 0.75337 0.0
H661 H 0.48505 0.85758 0.68605 0.0
C662 C 0.57733 0.88845 0.72622 0.0
O663 O 0.62585 0.84126 0.85463 0.0
O664 O 0.56906 0.8014 0.82228 0.0
N665 N 0.43678 0.93491 0.80762 0.0
C666 C 0.44021 0.96731 0.83894 0.0
C667 C 0.3998 0.9884 0.85325 0.0
C668 C 0.35533 0.97428 0.84242 0.0
C669 C 0.349 0.93207 0.82515 0.0
C670 C 0.3959 0.91289 0.79911 0.0
H671 H 0.47382 0.98422 0.84568 0.0
O672 O 0.52525 0.86173 0.88066 0.0
O673 O 0.49786 0.87271 0.81592 0.0
O674 O 0.58289 0.93736 0.84239 0.0
O675 O 0.53046 0.96987 0.79929 0.0
C676 C 0.29446 0.9208 0.80864 0.0
C677 C 0.29376 0.87447 0.73464 0.0
H678 H 0.33872 0.82603 0.66191 0.0
H679 H 0.42186 0.82252 0.64341 0.0
H680 H 0.41572 0.96342 0.87396 0.0
H681 H 0.32647 0.99771 0.84331 0.0
H682 H 0.26921 0.94276 0.82317 0.0
H683 H 0.26509 0.86302 0.71294 0.0
Mn684 Mn 0.85829 0.16824 0.91721 0.0
Mn685 Mn 0.86219 0.14342 0.8089 0.0
C686 C 0.79021 0.14474 0.87928 0.0
C687 C 0.85779 0.14755 -0.00795 0.0
C688 C 0.86866 0.24221 0.844 0.0
O689 O 0.92923 0.1575 0.90927 0.0
O690 O 0.92286 0.14383 0.83679 0.0
C691 C 0.88932 0.04962 0.83023 0.0
N692 N 0.8604 0.07853 0.80811 0.0
C693 C 0.80921 0.01686 0.78586 0.0
C694 C 0.83804 0.98674 0.80888 0.0
C695 C 0.87826 0.00324 0.83125 0.0
C696 C 0.82082 0.06308 0.7879 0.0
H697 H 0.92006 0.06179 0.84803 0.0
C698 C 0.94676 0.14796 0.87187 0.0
O699 O 0.86739 0.18844 0.97898 0.0
O700 O 0.85157 0.11732 0.96156 0.0
N701 N 0.80476 0.13904 0.77501 0.0
C702 C 0.78703 0.17081 0.74734 0.0
C703 C 0.74952 0.15924 0.71858 0.0
C704 C 0.73298 0.11451 0.71602 0.0
C705 C 0.75473 0.0814 0.74139 0.0
C706 C 0.79219 0.09492 0.76912 0.0
H707 H 0.80263 0.20418 0.74632 0.0
O708 O 0.78798 0.17011 0.91404 0.0
O709 O 0.83223 0.13652 0.86588 0.0
O710 O 0.8654 0.2302 0.88446 0.0
O711 O 0.86526 0.21293 0.81191 0.0
C712 C 0.74264 0.03512 0.73807 0.0
C713 C 0.7693 1.00289 0.76117 0.0
H714 H 0.82973 0.95089 0.8095 0.0
H715 H 0.90079 0.98022 0.84911 0.0
H716 H 0.73416 0.18396 0.69719 0.0
H717 H 0.70545 0.10545 0.69253 0.0
H718 H 0.71331 0.02396 0.7174 0.0
H719 H 0.75965 0.96739 0.75869 0.0
Mn720 Mn 0.58158 0.14105 0.64187 0.0
Mn721 Mn 0.55238 0.07371 0.67169 0.0
C722 C 0.49478 0.1427 0.63035 0.0
C723 C 0.60309 0.20674 0.60309 0.0
C724 C 0.61716 0.03437 0.64199 0.0
O725 O 0.62601 0.14839 0.70041 0.0
O726 O 0.58556 0.09247 0.7255 0.0
C727 C 0.50893 0.04583 0.75206 0.0
N728 N 0.5095 0.03985 0.70757 0.0
C729 C 0.4242 0.01489 0.71574 0.0
C730 C 0.42716 0.0259 0.7595 0.0
C731 C 0.46867 0.04205 0.77702 0.0
C732 C 0.47296 0.02111 0.68517 0.0
H733 H 0.53923 0.05689 0.76982 0.0
C734 C 0.61709 0.1214 0.7326 0.0
O735 O 0.62663 0.17014 0.60023 0.0
O736 O 0.57338 0.20855 0.63516 0.0
N737 N 0.51895 0.04964 0.61928 0.0
C738 C 0.52888 0.05634 0.57543 0.0
C739 C 0.49375 0.05539 0.54233 0.0
C740 C 0.44593 0.05153 0.55185 0.0
C741 C 0.4323 0.04595 0.59499 0.0
C742 C 0.47646 0.03411 0.63095 0.0
H743 H 0.56346 0.06661 0.56463 0.0
O744 O 0.52495 0.14221 0.59873 0.0
O745 O 0.51355 0.1296 0.66804 0.0
O746 O 0.61133 0.07413 0.62459 0.0
O747 O 0.59256 0.02478 0.67449 0.0
C748 C 0.37474 0.04716 0.61192 0.0
C749 C 0.37099 0.02364 0.69495 0.0
H750 H 0.39531 0.02926 0.77833 0.0
H751 H 0.46963 0.05354 0.8108 0.0
H752 H 0.50375 0.06164 0.50857 0.0
H753 H 0.42041 0.05186 0.52546 0.0
H754 H 0.34685 0.05458 0.58865 0.0
H755 H 0.34401 0.02556 0.71737 0.0
Mn756 Mn 0.62749 0.84767 0.41777 0.0
Mn757 Mn 0.62321 0.86424 0.30737 0.0
C758 C 0.69438 0.86873 0.37854 0.0
C759 C 0.62841 0.87968 0.4903 0.0
C760 C 0.62074 0.76795 0.34878 0.0
O761 O 0.55644 0.85649 0.40729 0.0
O762 O 0.56273 0.86514 0.33409 0.0
C763 C 0.59754 0.95895 0.3254 0.0
N764 N 0.62459 0.92898 0.30303 0.0
C765 C 0.67543 0.98918 0.27757 0.0
C766 C 0.64876 0.02031 0.30106 0.0
C767 C 0.6096 0.00511 0.3251 0.0
C768 C 0.66339 0.94326 0.28147 0.0
H769 H 0.56799 0.94772 0.34483 0.0
C770 C 0.53899 0.86344 0.36892 0.0
O771 O 0.61965 0.83693 0.4835 0.0
O772 O 0.63354 0.90397 0.45534 0.0
N773 N 0.68004 0.86688 0.27375 0.0
C774 C 0.69702 0.83325 0.24823 0.0
C775 C 0.73278 0.84267 0.21768 0.0
C776 C 0.74804 0.88741 0.21105 0.0
C777 C 0.72743 0.92218 0.23487 0.0
C778 C 0.69154 0.91046 0.2643 0.0
H779 H 0.6812 0.80023 0.24969 0.0
O780 O 0.69797 0.84745 0.41575 0.0
O781 O 0.65228 0.87439 0.36418 0.0
O782 O 0.62225 0.78241 0.38898 0.0
O783 O 0.62232 0.79542 0.31519 0.0
C784 C 0.73918 0.96822 0.22866 0.0
C785 C 0.71405 1.00173 0.25117 0.0
H786 H 0.65808 0.05594 0.30097 0.0
H787 H 0.58884 0.0289 0.3435 0.0
H788 H 0.74737 0.81598 0.1981 0.0
H789 H 0.77357 0.89514 0.18583 0.0
H790 H 0.7674 0.97815 0.20668 0.0
H791 H 0.72388 0.03701 0.24704 0.0
Mn792 Mn 0.89527 0.86478 0.13293 0.0
Mn793 Mn 0.92874 0.92902 0.16308 0.0
C794 C 0.98141 0.86151 0.11746 0.0
C795 C 0.88081 0.79627 0.09586 0.0
C796 C 0.86498 0.96993 0.13483 0.0
O797 O 0.85148 0.85864 0.1924 0.0
O798 O 0.8996 0.90784 0.21903 0.0
C799 C 0.97579 0.95547 0.24315 0.0
N800 N 0.97335 0.96185 0.19857 0.0
C801 C 0.0578 0.98825 0.20522 0.0
C802 C 0.05718 0.97625 0.24895 0.0
C803 C 0.01697 0.95908 0.2671 0.0
C804 C 0.00813 0.9824 0.1757 0.0
H805 H 0.94664 0.94433 0.2621 0.0
C806 C 0.86509 0.88221 0.22627 0.0
O807 O 0.85612 0.83126 0.08682 0.0
O808 O 0.90558 0.79888 0.13182 0.0
N809 N 0.95972 0.95533 0.11008 0.0
C810 C 0.94762 0.95101 0.06617 0.0
C811 C 0.98107 0.95426 0.0321 0.0
C812 C 0.02956 0.95811 0.04034 0.0
C813 C 0.0453 0.96367 0.08312 0.0
C814 C 0.00226 0.97229 0.12095 0.0
H815 H 0.91264 0.94086 0.05577 0.0
O816 O 0.94978 0.86369 0.08711 0.0
O817 O 0.96558 0.87375 0.15597 0.0
O818 O 0.86665 0.93083 0.11595 0.0
O819 O 0.89031 0.97765 0.16777 0.0
C820 C 0.10422 0.96349 0.09879 0.0
C821 C 0.11 0.98249 0.1831 0.0
H822 H 0.08951 0.97416 0.26777 0.0
H823 H 0.01779 0.94691 0.30071 0.0
H824 H 0.9691 0.94992 -0.00164 0.0
H825 H 0.05416 0.95736 0.01349 0.0
H826 H 0.1315 0.9604 0.07413 0.0
H827 H 0.13784 0.98063 0.20469 0.0
Mn828 Mn 0.8397 0.59378 0.87962 0.0
Mn829 Mn 0.8101 0.57978 0.81581 0.0
C830 C 0.75521 0.62367 0.88158 0.0
C831 C 0.86666 0.59671 0.95169 0.0
C832 C 0.88448 0.60839 0.78633 0.0
O833 O 0.87735 0.53098 0.87064 0.0
O834 O 0.81571 0.51494 0.83533 0.0
C835 C 0.78049 0.51026 0.75362 0.0
N836 N 0.7771 0.55597 0.76445 0.0
C837 C 0.69274 0.5526 0.73484 0.0
C838 C 0.6969 0.50747 0.74991 0.0
C839 C 0.73929 0.48666 0.75708 0.0
C840 C 0.74093 0.58321 0.74845 0.0
H841 H 0.79229 0.5374 0.77076 0.0
C842 C 0.8517 0.50014 0.85332 0.0
O843 O 0.89056 0.61368 0.91974 0.0
O844 O 0.82844 0.57439 0.94176 0.0
N845 N 0.78796 0.64036 0.79322 0.0
C846 C 0.79841 0.68284 0.80966 0.0
C847 C 0.76447 0.71721 0.81292 0.0
C848 C 0.71624 0.70965 0.80499 0.0
C849 C 0.70095 0.66818 0.78898 0.0
C850 C 0.74533 0.6339 0.77292 0.0
H851 H 0.83224 0.69115 0.82415 0.0
O852 O 0.79236 0.64661 0.89327 0.0
O853 O 0.76542 0.58596 0.862 0.0
O854 O 0.87397 0.62706 0.82313 0.0
O855 O 0.86281 0.57298 0.77845 0.0
C856 C 0.64186 0.65185 0.78253 0.0
C857 C 0.63834 0.57288 0.74207 0.0
H858 H 0.66691 0.48913 0.76287 0.0
H859 H 0.74047 0.45323 0.77103 0.0
H860 H 0.7756 0.74984 0.82583 0.0
H861 H 0.69186 0.73656 0.8105 0.0
H862 H 0.61396 0.67473 0.79098 0.0
H863 H 0.60862 0.55325 0.73214 0.0
Mn864 Mn 0.32768 0.8943 0.11395 0.0
Mn865 Mn 0.2583 0.96163 0.16947 0.0
C866 C 0.24417 0.86909 0.11974 0.0
C867 C 0.35262 0.86753 0.04344 0.0
C868 C 0.32836 0.89242 0.21254 0.0
O869 O 0.3659 0.96111 0.11796 0.0
O870 O 0.31556 1.00018 0.15857 0.0
C871 C 0.23016 0.05122 0.14052 0.0
N872 N 0.22006 0.006 0.13803 0.0
C873 C 0.13199 0.03259 0.12688 0.0
C874 C 0.14879 0.07567 0.12243 0.0
C875 C 0.19611 0.08485 0.13286 0.0
C876 C 0.17489 0.99256 0.13333 0.0
H877 H 0.26503 0.06276 0.15021 0.0
C878 C 0.35393 0.99923 0.13733 0.0
O879 O 0.37859 0.86008 0.07797 0.0
O880 O 0.31706 0.89218 0.0506 0.0
N881 N 0.20344 0.92916 0.17755 0.0
C882 C 0.19928 0.89853 0.20995 0.0
C883 C 0.16317 0.86922 0.2086 0.0
C884 C 0.12105 0.88125 0.19145 0.0
C885 C 0.11889 0.90894 0.15572 0.0
C886 C 0.16848 0.93866 0.14801 0.0
H887 H 0.22832 0.88898 0.2305 0.0
O888 O 0.27927 0.84215 0.11543 0.0
O889 O 0.26017 0.91251 0.12188 0.0
O890 O 0.34797 0.87942 0.1776 0.0
O891 O 0.29576 0.92173 0.21117 0.0
C892 C 0.06614 0.93128 0.15144 0.0
C893 C 0.07182 0.01876 0.13327 0.0
H894 H 0.1252 0.10188 0.11245 0.0
H895 H 0.20773 0.11971 0.13377 0.0
H896 H 0.18021 0.84515 0.18876 0.0
H897 H 0.09326 0.88462 0.21453 0.0
H898 H 0.03792 0.91076 0.16463 0.0
H899 H 0.04526 0.04515 0.13237 0.0
Mn900 Mn 0.15035 0.11024 0.61191 0.0
Mn901 Mn 0.22144 0.04975 0.6749 0.0
C902 C 0.23324 0.13406 0.61579 0.0
C903 C 0.12652 0.1332 0.53814 0.0
C904 C 0.15125 0.11839 0.71305 0.0
O905 O 0.11418 0.04401 0.61596 0.0
O906 O 0.16417 0.01033 0.66241 0.0
C907 C 0.24818 0.95939 0.64756 0.0
N908 N 0.25955 0.00447 0.64655 0.0
C909 C 0.34653 0.9767 0.63658 0.0
C910 C 0.32952 0.93331 0.63444 0.0
C911 C 0.28192 0.92506 0.6433 0.0
C912 C 0.30488 0.01727 0.64493 0.0
H913 H 0.2128 0.94827 0.65509 0.0
C914 C 0.12724 0.00804 0.63798 0.0
O915 O 0.10033 0.14299 0.57146 0.0
O916 O 0.16138 0.10869 0.54832 0.0
N917 N 0.27642 0.08402 0.68662 0.0
C918 C 0.28238 0.1089 0.72396 0.0
C919 C 0.3263 0.12316 0.73834 0.0
C920 C 0.36378 0.12481 0.7101 0.0
C921 C 0.36358 0.09894 0.67225 0.0
C922 C 0.31299 0.07109 0.66191 0.0
H923 H 0.25382 0.11525 0.74581 0.0
O924 O 0.19845 0.16109 0.61019 0.0
O925 O 0.21784 0.09161 0.62234 0.0
O926 O 0.13005 0.12816 0.67692 0.0
O927 O 0.185 0.09103 0.7129 0.0
C928 C 0.41555 0.07529 0.66576 0.0
C929 C 0.4065 0.989 0.64287 0.0
H930 H 0.35338 0.90599 0.6287 0.0
H931 H 0.26978 0.8904 0.64526 0.0
H932 H 0.33094 0.13508 0.77179 0.0
H933 H 0.39626 0.13766 0.72313 0.0
H934 H 0.44413 0.09387 0.68121 0.0
H935 H 0.43205 0.96172 0.64123 0.0
Mn936 Mn 0.14013 0.91756 0.88524 0.0
Mn937 Mn 0.16686 0.93132 0.82328 0.0
C938 C 0.22601 0.88796 0.88928 0.0
C939 C 0.11308 0.91053 0.95699 0.0
C940 C 0.09227 0.90466 0.7912 0.0
O941 O 0.10471 0.98174 0.87631 0.0
O942 O 0.16539 0.99575 0.83943 0.0
C943 C 0.19134 0.99391 0.75693 0.0
N944 N 0.19673 0.95108 0.77096 0.0
C945 C 0.27916 0.95451 0.74053 0.0
C946 C 0.27429 1.00051 0.75094 0.0
C947 C 0.23108 0.0201 0.75637 0.0
C948 C 0.23123 0.925 0.75677 0.0
H949 H 0.15855 0.01107 0.76285 0.0
C950 C 0.13031 0.01153 0.85745 0.0
O951 O 0.0887 0.89682 0.92365 0.0
O952 O 0.151 0.93377 0.94884 0.0
N953 N 0.18495 0.86974 0.80255 0.0
C954 C 0.17354 0.82794 0.81966 0.0
C955 C 0.20791 0.79594 0.82981 0.0
C956 C 0.25594 0.8053 0.8257 0.0
C957 C 0.27163 0.84342 0.80292 0.0
C958 C 0.22761 0.87601 0.78392 0.0
H959 H 0.13875 0.81938 0.83129 0.0
O960 O 0.18868 0.86484 0.89976 0.0
O961 O 0.21471 0.92522 0.86918 0.0
O962 O 0.1025 0.88562 0.8281 0.0
O963 O 0.11421 0.94004 0.78518 0.0
C964 C 0.33028 0.85875 0.7954 0.0
C965 C 0.33394 0.93491 0.74933 0.0
H966 H 0.30241 0.01845 0.76797 0.0
H967 H 0.22873 0.05316 0.77066 0.0
H968 H 0.1971 0.76505 0.84627 0.0
H969 H 0.27941 0.78271 0.84202 0.0
H970 H 0.35806 0.83813 0.80895 0.0
H971 H 0.36366 0.95519 0.73964 0.0
Mn972 Mn 0.64636 0.41705 0.38531 0.0
Mn973 Mn 0.672 0.43087 0.32165 0.0
C974 C 0.73145 0.38784 0.38773 0.0
C975 C 0.62369 0.41063 0.4583 0.0
C976 C 0.59705 0.40402 0.2911 0.0
O977 O 0.61069 0.48099 0.3773 0.0
O978 O 0.66974 0.49517 0.33796 0.0
C979 C 0.6966 0.49387 0.25578 0.0
N980 N 0.70182 0.45089 0.26933 0.0
C981 C 0.7845 0.45467 0.23931 0.0
C982 C 0.77962 0.50057 0.25011 0.0
C983 C 0.73642 0.52003 0.25585 0.0
C984 C 0.73643 0.42494 0.25505 0.0
H985 H 0.66375 0.51094 0.26166 0.0
C986 C 0.63536 0.51072 0.35735 0.0
O987 O 0.59755 0.39601 0.42635 0.0
O988 O 0.66074 0.4342 0.44819 0.0
N989 N 0.6901 0.36947 0.30067 0.0
C990 C 0.67872 0.32771 0.31783 0.0
C991 C 0.7132 0.29594 0.32837 0.0
C992 C 0.76118 0.30553 0.3243 0.0
C993 C 0.77673 0.34311 0.3009 0.0
C994 C 0.73273 0.37572 0.28188 0.0
H995 H 0.64385 0.31907 0.32914 0.0
O996 O 0.69455 0.36434 0.39852 0.0
O997 O 0.71995 0.42497 0.36751 0.0
O998 O 0.60764 0.38545 0.32831 0.0
O999 O 0.61911 0.43919 0.28411 0.0
C1000 C 0.83533 0.35849 0.2938 0.0
C1001 C 0.83927 0.43508 0.2483 0.0
H1002 H 0.80776 0.5184 0.26722 0.0
H1003 H 0.7341 0.55292 0.27055 0.0
H1004 H 0.7025 0.26531 0.34533 0.0
H1005 H 0.78468 0.28433 0.34201 0.0
H1006 H 0.86293 0.3376 0.30737 0.0
H1007 H 0.86908 0.45555 0.23883 0.0
Mn1008 Mn 0.82694 0.39696 0.61403 0.0
Mn1009 Mn 0.7566 0.46555 0.66838 0.0
C1010 C 0.74403 0.371 0.62046 0.0
C1011 C 0.85364 0.36947 0.54401 0.0
C1012 C 0.82734 0.39667 0.71268 0.0
O1013 O 0.8652 0.46359 0.61857 0.0
O1014 O 0.81327 0.50418 0.65605 0.0
C1015 C 0.72614 0.55461 0.63858 0.0
N1016 N 0.71686 0.50921 0.63664 0.0
C1017 C 0.62795 0.53491 0.62379 0.0
C1018 C 0.64465 0.57788 0.61808 0.0
C1019 C 0.69162 0.58771 0.6298 0.0
C1020 C 0.67162 0.49555 0.63286 0.0
H1021 H 0.76073 0.56666 0.64861 0.0
C1022 C 0.85271 0.50217 0.6367 0.0
O1023 O 0.87892 0.36284 0.57914 0.0
O1024 O 0.81761 0.39388 0.55031 0.0
N1025 N 0.70229 0.43311 0.67836 0.0
C1026 C 0.69984 0.40338 0.71163 0.0
C1027 C 0.66036 0.3796 0.71813 0.0
C1028 C 0.61859 0.39219 0.70082 0.0
C1029 C 0.61645 0.41359 0.66114 0.0
C1030 C 0.66566 0.44265 0.65076 0.0
H1031 H 0.7299 0.39288 0.73044 0.0
O1032 O 0.77951 0.34476 0.61517 0.0
O1033 O 0.75873 0.41492 0.622 0.0
O1034 O 0.84626 0.38215 0.67798 0.0
O1035 O 0.79557 0.4269 0.71058 0.0
C1036 C 0.56399 0.43413 0.65445 0.0
C1037 C 0.5673 0.52048 0.63084 0.0
H1038 H 0.6211 0.60376 0.60711 0.0
H1039 H 0.70258 0.62277 0.63096 0.0
H1040 H 0.6749 0.35316 0.69958 0.0
H1041 H 0.59183 0.39993 0.72429 0.0
H1042 H 0.53607 0.41223 0.66635 0.0
H1043 H 0.53991 0.54592 0.62789 0.0
Mn1044 Mn 0.65499 0.6099 0.11183 0.0
Mn1045 Mn 0.72692 0.54929 0.17419 0.0
C1046 C 0.73814 0.6342 0.11554 0.0
C1047 C 0.62929 0.63287 0.0387 0.0
C1048 C 0.65583 0.61728 0.21295 0.0
O1049 O 0.61892 0.54349 0.11641 0.0
O1050 O 0.67021 0.50909 0.16111 0.0
C1051 C 0.75574 0.45966 0.14641 0.0
N1052 N 0.76617 0.50493 0.14562 0.0
C1053 C 0.85381 0.47874 0.13552 0.0
C1054 C 0.83761 0.4351 0.13285 0.0
C1055 C 0.79019 0.42597 0.14174 0.0
C1056 C 0.81132 0.51849 0.1442 0.0
H1057 H 0.72058 0.44791 0.15397 0.0
C1058 C 0.6325 0.50718 0.13766 0.0
O1059 O 0.60386 0.64237 0.07261 0.0
O1060 O 0.66468 0.60859 0.04801 0.0
N1061 N 0.78127 0.58434 0.18641 0.0
C1062 C 0.78633 0.60951 0.22366 0.0
C1063 C 0.82984 0.62433 0.23848 0.0
C1064 C 0.86762 0.62652 0.21061 0.0
C1065 C 0.8684 0.60064 0.17294 0.0
C1066 C 0.81836 0.57212 0.16197 0.0
H1067 H 0.75741 0.61562 0.24516 0.0
O1068 O 0.70313 0.66092 0.10962 0.0
O1069 O 0.72284 0.59167 0.12199 0.0
O1070 O 0.63519 0.6279 0.17684 0.0
O1071 O 0.68936 0.5896 0.21257 0.0
C1072 C 0.92092 0.57796 0.16659 0.0
C1073 C 0.91357 0.49192 0.14239 0.0
H1074 H 0.86202 0.40823 0.12706 0.0
H1075 H 0.7788 0.39108 0.14351 0.0
H1076 H 0.83385 0.63621 0.27198 0.0
H1077 H 0.8996 0.64013 0.22361 0.0
H1078 H 0.94933 0.59701 0.18192 0.0
H1079 H 0.93966 0.46514 0.14037 0.0
Mn1080 Mn 0.61184 0.69118 0.90535 0.0
Mn1081 Mn 0.61328 0.58028 0.91109 0.0
C1082 C 0.54061 0.65244 0.87451 0.0
C1083 C 0.62217 0.76047 0.86808 0.0
C1084 C 0.61739 0.63832 -0.00922 0.0
O1085 O 0.68657 0.67312 0.90549 0.0
O1086 O 0.6758 0.60023 0.88913 0.0
C1087 C 0.68478 0.51148 0.91864 0.0
N1088 N 0.64021 0.52437 0.92906 0.0
C1089 C 0.60963 0.45035 0.91384 0.0
C1090 C 0.65451 0.43706 0.90072 0.0
C1091 C 0.69209 0.46799 0.90276 0.0
C1092 C 0.60413 0.49399 0.93136 0.0
H1093 H 0.71363 0.5356 0.91772 0.0
C1094 C 0.70335 0.63423 0.89344 0.0
O1095 O 0.62537 0.75843 0.91058 0.0
O1096 O 0.61766 0.72243 0.84805 0.0
N1097 N 0.55709 0.55793 0.93777 0.0
C1098 C 0.51563 0.57994 0.94157 0.0
C1099 C 0.47341 0.55558 0.93546 0.0
C1100 C 0.47553 0.51031 0.92265 0.0
C1101 C 0.51915 0.48826 0.92224 0.0
C1102 C 0.55915 0.51219 0.93673 0.0
H1103 H 0.51524 0.61579 0.94815 0.0
O1104 O 0.53994 0.69296 0.89076 0.0
O1105 O 0.5818 0.63423 0.8846 0.0
O1106 O 0.60275 0.67467 0.97283 0.0
O1107 O 0.63227 0.60641 0.96728 0.0
C1108 C 0.52613 0.44864 0.89805 0.0
C1109 C 0.56974 0.4273 0.89803 0.0
H1110 H 0.6597 0.40452 0.8853 0.0
H1111 H 0.72586 0.45952 0.88896 0.0
H1112 H 0.43974 0.57217 0.9376 0.0
H1113 H 0.44348 0.49351 0.91201 0.0
H1114 H 0.49892 0.43623 0.87616 0.0
H1115 H 0.57324 0.39613 0.88013 0.0
Mn1116 Mn 0.57275 0.38792 0.17117 0.0
Mn1117 Mn 0.61124 0.39342 0.06898 0.0
C1118 C 0.60223 0.46204 0.14253 0.0
C1119 C 0.58757 0.37985 0.24882 0.0
C1120 C 0.50642 0.39396 0.08971 0.0
O1121 O 0.5813 0.31821 0.15436 0.0
O1122 O 0.59443 0.33178 0.08337 0.0
C1123 C 0.6975 0.33776 0.07698 0.0
N1124 N 0.67734 0.37924 0.07271 0.0
C1125 C 0.75265 0.41333 0.05586 0.0
C1126 C 0.77388 0.37088 0.05928 0.0
C1127 C 0.74617 0.33302 0.07043 0.0
C1128 C 0.70378 0.41569 0.06232 0.0
H1129 H 0.67664 0.30791 0.08368 0.0
C1130 C 0.58705 0.30441 0.11434 0.0
O1131 O 0.54532 0.37554 0.2324 0.0
O1132 O 0.62036 0.38425 0.21959 0.0
N1133 N 0.63177 0.45008 0.05003 0.0
C1134 C 0.60443 0.48389 0.03641 0.0
C1135 C 0.62597 0.52358 0.02285 0.0
C1136 C 0.67572 0.52636 0.01975 0.0
C1137 C 0.70319 0.49197 0.03634 0.0
C1138 C 0.67949 0.45359 0.05111 0.0
H1139 H 0.56684 0.47952 0.03541 0.0
O1140 O 0.57413 0.45814 0.17561 0.0
O1141 O 0.61354 0.42117 0.12826 0.0
O1142 O 0.51303 0.38798 0.13103 0.0
O1143 O 0.54093 0.40441 0.0637 0.0
C1144 C 0.75289 0.49318 0.03607 0.0
C1145 C 0.77784 0.45341 0.04533 0.0
H1146 H 0.81136 0.36718 0.05387 0.0
H1147 H 0.76212 0.3001 0.07328 0.0
H1148 H 0.60309 0.55011 0.01285 0.0
H1149 H 0.69314 0.55404 0.00293 0.0
H1150 H 0.77199 0.52324 0.02556 0.0
H1151 H 0.81578 0.45321 0.0414 0.0
Mn1152 Mn 0.87231 0.3108 0.41247 0.0
Mn1153 Mn 0.88144 0.41855 0.4193 0.0
C1154 C 0.94398 0.34634 0.37972 0.0
C1155 C 0.86063 0.24001 0.37796 0.0
C1156 C 0.86794 0.36334 0.4974 0.0
O1157 O 0.79915 0.33583 0.41027 0.0
O1158 O 0.81376 0.41015 0.39808 0.0
C1159 C 0.83313 0.50385 0.42925 0.0
N1160 N 0.87081 0.47818 0.44093 0.0
C1161 C 0.92419 0.54008 0.42944 0.0
C1162 C 0.88642 0.56678 0.41592 0.0
C1163 C 0.84089 0.54859 0.41591 0.0
C1164 C 0.91469 0.49704 0.44652 0.0
H1165 H 0.79896 0.48826 0.42312 0.0
C1166 C 0.78415 0.37658 0.40015 0.0
O1167 O 0.85659 0.24365 0.42017 0.0
O1168 O 0.86589 0.27752 0.3571 0.0
N1169 N 0.94112 0.42328 0.44806 0.0
C1170 C 0.97266 0.3913 0.46113 0.0
C1171 C 0.02041 0.40369 0.46559 0.0
C1172 C 0.03397 0.44773 0.4538 0.0
C1173 C -0.0014 0.47959 0.44573 0.0
C1174 C 0.95186 0.46694 0.4515 0.0
H1175 H 0.96242 0.35637 0.46498 0.0
O1176 O 0.94452 0.30682 0.39836 0.0
O1177 O 0.90264 0.36474 0.38753 0.0
O1178 O 0.88208 0.32682 0.48016 0.0
O1179 O 0.85581 0.39531 0.47308 0.0
C1180 C 0.00685 0.51923 0.42364 0.0
C1181 C 0.96912 0.54734 0.4121 0.0
H1182 H 0.89248 0.59861 0.39939 0.0
H1183 H 0.81349 0.56647 0.39866 0.0
H1184 H 0.04663 0.37866 0.47352 0.0
H1185 H 0.07101 0.45655 0.45052 0.0
H1186 H 0.04198 0.52636 0.41336 0.0
H1187 H 0.97391 0.57188 0.38659 0.0
Mn1188 Mn 0.91368 0.62188 0.67009 0.0
Mn1189 Mn 0.87987 0.61323 0.56717 0.0
C1190 C 0.8846 0.54666 0.64184 0.0
C1191 C 0.89541 0.63244 0.74521 0.0
C1192 C 0.98425 0.613 0.59441 0.0
O1193 O 0.90552 0.69106 0.65122 0.0
O1194 O 0.89652 0.67598 0.57983 0.0
C1195 C 0.79361 0.66958 0.57063 0.0
N1196 N 0.81375 0.62805 0.567 0.0
C1197 C 0.73873 0.59442 0.54691 0.0
C1198 C 0.71802 0.6372 0.54813 0.0
C1199 C 0.74544 0.67477 0.56107 0.0
C1200 C 0.7873 0.59163 0.55608 0.0
H1201 H 0.81415 0.69927 0.57875 0.0
C1202 C 0.90134 0.70417 0.61078 0.0
O1203 O 0.93849 0.63636 0.73162 0.0
O1204 O 0.86373 0.62739 0.71442 0.0
N1205 N 0.85934 0.55566 0.54917 0.0
C1206 C 0.8863 0.51966 0.54129 0.0
C1207 C 0.86411 0.47916 0.52993 0.0
C1208 C 0.81476 0.47779 0.52244 0.0
C1209 C 0.78755 0.51417 0.53382 0.0
C1210 C 0.81147 0.55306 0.54748 0.0
H1211 H 0.9241 0.52237 0.54399 0.0
O1212 O 0.91148 0.55133 0.67624 0.0
O1213 O 0.87451 0.58738 0.62638 0.0
O1214 O 0.97587 0.62085 0.63485 0.0
O1215 O 0.95037 0.60115 0.56744 0.0
C1216 C 0.73798 0.51408 0.52941 0.0
C1217 C 0.71349 0.55465 0.53513 0.0
H1218 H 0.68099 0.64129 0.54013 0.0
H1219 H 0.72974 0.70785 0.5628 0.0
H1220 H 0.8863 0.45078 0.52393 0.0
H1221 H 0.79762 0.45029 0.50489 0.0
H1222 H 0.71883 0.48387 0.51904 0.0
H1223 H 0.67586 0.55537 0.52862 0.0
Mn1224 Mn 0.62023 0.34239 0.56328 0.0
Mn1225 Mn 0.62089 0.28795 0.65187 0.0
C1226 C 0.69458 0.34988 0.60364 0.0
C1227 C 0.62023 0.38726 0.50003 0.0
C1228 C 0.61942 0.24678 0.57939 0.0
O1229 O 0.55453 0.36288 0.58036 0.0
O1230 O 0.55306 0.30773 0.62947 0.0
C1231 C 0.55493 0.31836 0.72064 0.0
N1232 N 0.59746 0.30078 0.70927 0.0
C1233 C 0.62654 0.31142 0.78245 0.0
C1234 C 0.58574 0.33451 0.79289 0.0
C1235 C 0.55026 0.33868 0.76162 0.0
C1236 C 0.63047 0.29155 0.74027 0.0
H1237 H 0.52623 0.32192 0.69791 0.0
C1238 C 0.53295 0.34252 0.61111 0.0
O1239 O 0.60316 0.34699 0.50027 0.0
O1240 O 0.63827 0.402 0.53643 0.0
N1241 N 0.67728 0.26977 0.68033 0.0
C1242 C 0.7194 0.2621 0.66022 0.0
C1243 C 0.76103 0.26999 0.683 0.0
C1244 C 0.7589 0.28758 0.72507 0.0
C1245 C 0.71532 0.29231 0.74656 0.0
C1246 C 0.67442 0.27799 0.72425 0.0
H1247 H 0.72223 0.25249 0.62613 0.0
O1248 O 0.69161 0.33464 0.5633 0.0
O1249 O 0.65375 0.34585 0.62549 0.0
O1250 O 0.5922 0.27471 0.56309 0.0
O1251 O 0.64968 0.26683 0.59931 0.0
C1252 C 0.70994 0.31856 0.7849 0.0
C1253 C 0.66715 0.32207 0.80597 0.0
H1254 H 0.58311 0.35291 0.82334 0.0
H1255 H 0.52095 0.36041 0.76787 0.0
H1256 H 0.79469 0.26541 0.66715 0.0
H1257 H 0.79209 0.29672 0.73935 0.0
H1258 H 0.73722 0.33935 0.79811 0.0
H1259 H 0.66563 0.34159 0.83614 0.0
Mn1260 Mn 0.91416 0.36677 0.83258 0.0
Mn1261 Mn 0.80163 0.35609 0.84589 0.0
C1262 C 0.88062 0.29209 0.8343 0.0
C1263 C 0.9896 0.37124 0.8592 0.0
C1264 C 0.84135 0.37773 0.75725 0.0
O1265 O 0.90004 0.43156 0.85567 0.0
O1266 O 0.823 0.423 0.84413 0.0
C1267 C 0.79414 0.39874 0.93018 0.0
N1268 N 0.789 0.35977 0.9071 0.0
C1269 C 0.71939 0.33972 0.94804 0.0
C1270 C 0.71969 0.383 0.96538 0.0
C1271 C 0.75757 0.41238 0.95666 0.0
C1272 C 0.75388 0.33001 0.91687 0.0
H1273 H 0.82235 0.42236 0.92373 0.0
C1274 C 0.85933 0.44884 0.85203 0.0
O1275 O 0.97796 0.38687 0.8206 0.0
O1276 O 0.95688 0.35381 0.88338 0.0
N1277 N 0.77427 0.29496 0.8522 0.0
C1278 C 0.77184 0.25882 0.82445 0.0
C1279 C 0.73465 0.22703 0.82818 0.0
C1280 C 0.7017 0.23155 0.86166 0.0
C1281 C 0.70912 0.26429 0.8938 0.0
C1282 C 0.74715 0.29473 0.88854 0.0
H1283 H 0.7947 0.25736 0.79699 0.0
O1284 O 0.919 0.30124 0.81333 0.0
O1285 O 0.86276 0.32769 0.85417 0.0
O1286 O 0.8829 0.38489 0.77247 0.0
O1287 O 0.81028 0.35714 0.78046 0.0
C1288 C 0.67743 0.27047 0.92843 0.0
C1289 C 0.68182 0.30907 0.95501 0.0
H1290 H 0.68887 0.39501 0.98196 0.0
H1291 H 0.75633 0.44736 0.9655 0.0
H1292 H 0.72875 0.20127 0.80364 0.0
H1293 H 0.67014 0.21043 0.86195 0.0
H1294 H 0.64808 0.24716 0.93311 0.0
H1295 H 0.65508 0.31595 0.9793 0.0
Mn1296 Mn 0.86016 0.66382 0.05584 0.0
Mn1297 Mn 0.85862 0.71613 0.13639 0.0
C1298 C 0.78613 0.65011 0.0939 0.0
C1299 C 0.8715 0.6185 -0.00614 0.0
C1300 C 0.8861 0.75527 0.06773 0.0
O1301 O 0.93235 0.6546 0.08282 0.0
O1302 O 0.92128 0.68164 0.15225 0.0
C1303 C 0.84702 0.72455 0.22875 0.0
N1304 N 0.82681 0.71315 0.18957 0.0
C1305 C 0.75012 0.71348 0.22022 0.0
C1306 C 0.77228 0.70691 0.26079 0.0
C1307 C 0.81927 0.72107 0.26647 0.0
C1308 C 0.77993 0.71837 0.18466 0.0
H1309 H 0.88421 0.733 0.23052 0.0
C1310 C 0.94861 0.66132 0.12311 0.0
O1311 O 0.88179 0.66055 -0.00563 0.0
O1312 O 0.85673 0.60124 0.03002 0.0
N1313 N 0.79718 0.74661 0.11559 0.0
C1314 C 0.78081 0.77011 0.07859 0.0
C1315 C 0.73345 0.78101 0.0721 0.0
C1316 C 0.70056 0.76942 0.10325 0.0
C1317 C 0.71584 0.74804 0.1412 0.0
C1318 C 0.76411 0.73693 0.14622 0.0
H1319 H 0.80122 0.78377 0.05235 0.0
O1320 O 0.78793 0.65886 0.05195 0.0
O1321 O 0.82704 0.65746 0.11426 0.0
O1322 O 0.85626 0.73588 0.04399 0.0
O1323 O 0.9008 0.72567 0.08927 0.0
C1324 C 0.68428 0.73756 0.17461 0.0
C1325 C 0.70142 0.72059 0.21416 0.0
H1326 H 0.75508 0.68937 0.28683 0.0
H1327 H 0.83448 0.72399 0.29909 0.0
H1328 H 0.72248 0.79904 0.04276 0.0
H1329 H 0.66387 0.77815 0.09826 0.0
H1330 H 0.64709 0.74518 0.17133 0.0
H1331 H 0.67629 0.71899 0.23994 0.0
Mn1332 Mn 0.57506 0.64398 0.33764 0.0
Mn1333 Mn 0.68854 0.65197 0.34607 0.0
C1334 C 0.60891 0.71783 0.34002 0.0
C1335 C 0.49986 0.63953 0.36372 0.0
C1336 C 0.64339 0.63676 0.25802 0.0
O1337 O 0.5891 0.57989 0.36168 0.0
O1338 O 0.66423 0.58621 0.34231 0.0
C1339 C 0.70932 0.60228 0.42494 0.0
N1340 N 0.70656 0.644 0.40631 0.0
C1341 C 0.77322 0.66928 0.45028 0.0
C1342 C 0.78122 0.62496 0.46225 0.0
C1343 C 0.74874 0.59134 0.44975 0.0
C1344 C 0.73814 0.67674 0.41844 0.0
H1345 H 0.68534 0.57526 0.41676 0.0
C1346 C 0.62854 0.56167 0.35457 0.0
O1347 O 0.5113 0.62416 0.32523 0.0
O1348 O 0.53295 0.65625 0.38886 0.0
N1349 N 0.717 0.71193 0.3536 0.0
C1350 C 0.71765 0.74866 0.32681 0.0
C1351 C 0.75362 0.78141 0.33148 0.0
C1352 C 0.78532 0.7787 0.36683 0.0
C1353 C 0.7778 0.74633 0.39901 0.0
C1354 C 0.74268 0.71316 0.39121 0.0
H1355 H 0.69488 0.74947 0.29903 0.0
O1356 O 0.56988 0.70896 0.31919 0.0
O1357 O 0.6283 0.68201 0.35893 0.0
O1358 O 0.6038 0.62686 0.27579 0.0
O1359 O 0.67663 0.65535 0.2812 0.0
C1360 C 0.80683 0.74338 0.43652 0.0
C1361 C 0.80449 0.70436 0.46237 0.0
H1362 H 0.81376 0.61621 0.47876 0.0
H1363 H 0.75517 0.55642 0.45697 0.0
H1364 H 0.75897 0.80696 0.30667 0.0
H1365 H 0.81589 0.80103 0.36884 0.0
H1366 H 0.83351 0.76907 0.44367 0.0
H1367 H 0.82956 0.69999 0.48911 0.0
Mn1368 Mn 0.67216 0.90261 0.60767 0.0
Mn1369 Mn 0.55789 0.91959 0.58503 0.0
C1370 C 0.64138 0.89791 0.53477 0.0
C1371 C 0.74764 0.8694 0.61078 0.0
C1372 C 0.62436 0.99403 0.61502 0.0
O1373 O 0.64172 0.88733 0.67003 0.0
O1374 O 0.56504 0.89689 0.64841 0.0
C1375 C 0.50316 0.83348 0.58689 0.0
N1376 N 0.51962 0.86992 0.5643 0.0
C1377 C 0.45688 0.86151 0.50994 0.0
C1378 C 0.44037 0.82338 0.53192 0.0
C1379 C 0.46363 0.80942 0.5701 0.0
C1380 C 0.49747 0.88339 0.52661 0.0
H1381 H 0.51855 0.82453 0.61834 0.0
C1382 C 0.59684 0.88892 0.67884 0.0
O1383 O 0.73781 0.90716 0.62957 0.0
O1384 O 0.71129 0.84538 0.59768 0.0
N1385 N 0.55037 0.94335 0.52687 0.0
C1386 C 0.57264 0.97943 0.50773 0.0
C1387 C 0.5557 0.99604 0.46732 0.0
C1388 C 0.51455 0.977 0.44852 0.0
C1389 C 0.493 0.93958 0.4688 0.0
C1390 C 0.51414 0.92206 0.50675 0.0
H1391 H 0.60276 0.99567 0.52344 0.0
O1392 O 0.68362 0.91352 0.54263 0.0
O1393 O 0.6165 0.88964 0.56941 0.0
O1394 O 0.66058 0.97026 0.62024 0.0
O1395 O 0.58589 0.97648 0.60276 0.0
C1396 C 0.45062 0.91983 0.45372 0.0
C1397 C 0.43261 0.88051 0.47395 0.0
H1398 H 0.40866 0.80562 0.52089 0.0
H1399 H 0.44756 0.78266 0.58811 0.0
H1400 H 0.57297 0.02469 0.45182 0.0
H1401 H 0.49996 0.9912 0.41853 0.0
H1402 H 0.43148 0.93505 0.42701 0.0
H1403 H 0.39994 0.86537 0.46177 0.0
Mn1404 Mn 0.39098 0.32649 0.06332 0.0
Mn1405 Mn 0.38069 0.43825 0.07807 0.0
C1406 C 0.46071 0.37424 0.07076 0.0
C1407 C 0.39809 0.25111 0.09543 0.0
C1408 C 0.36595 0.39554 0.98466 0.0
O1409 O 0.32046 0.33044 0.08374 0.0
O1410 O 0.32088 0.40581 0.08822 0.0
C1411 C 0.36568 0.42488 0.17389 0.0
N1412 N 0.38923 0.44601 0.14053 0.0
C1413 C 0.44082 0.48399 0.19248 0.0
C1414 C 0.41711 0.46267 0.2271 0.0
C1415 C 0.37951 0.43274 0.21773 0.0
C1416 C 0.42642 0.47356 0.14928 0.0
H1417 H 0.33713 0.40132 0.16739 0.0
C1418 C 0.29997 0.36769 0.09242 0.0
O1419 O 0.38485 0.25891 0.05501 0.0
O1420 O 0.40709 0.28719 0.11823 0.0
N1421 N 0.43582 0.47607 0.07314 0.0
C1422 C 0.45513 0.49412 0.03634 0.0
C1423 C 0.49186 0.52622 0.04077 0.0
C1424 C 0.50799 0.54019 0.08226 0.0
C1425 C 0.48727 0.52186 0.11969 0.0
C1426 C 0.45036 0.49034 0.11369 0.0
H1427 H 0.44212 0.48427 0.00422 0.0
O1428 O 0.4616 0.33492 0.05197 0.0
O1429 O 0.41873 0.38422 0.08433 0.0
O1430 O 0.37233 0.35454 -0.00091 0.0
O1431 O 0.37074 0.42986 0.01129 0.0
C1432 C 0.50135 0.53427 0.1627 0.0
C1433 C 0.47862 0.51469 0.19918 0.0
H1434 H 0.42813 0.46844 0.26087 0.0
H1435 H 0.36147 0.41536 0.24414 0.0
H1436 H 0.50956 0.53928 0.01281 0.0
H1437 H 0.53629 0.56508 0.08482 0.0
H1438 H 0.53 0.55838 0.16808 0.0
H1439 H 0.49029 0.52365 0.23219 0.0
Mn1440 Mn 0.41051 0.63079 0.82955 0.0
Mn1441 Mn 0.48591 0.58406 0.7617 0.0
C1442 C 0.49314 0.63125 0.85463 0.0
C1443 C 0.37179 0.6965 0.85458 0.0
C1444 C 0.41758 0.52575 0.82172 0.0
O1445 O 0.37273 0.62694 0.76818 0.0
O1446 O 0.42931 0.60185 0.72356 0.0
C1447 C 0.52067 0.63371 0.68417 0.0
N1448 N 0.52826 0.62425 0.72764 0.0
C1449 C 0.61819 0.64188 0.70913 0.0
C1450 C 0.60355 0.6582 0.66916 0.0
C1451 C 0.55679 0.64975 0.65589 0.0
C1452 C 0.57316 0.62454 0.74296 0.0
H1453 H 0.48657 0.62641 0.66948 0.0
C1454 C 0.38733 0.61704 0.72906 0.0
O1455 O 0.35518 0.65651 0.86354 0.0
O1456 O 0.40801 0.69793 0.82921 0.0
N1457 N 0.53843 0.56988 0.79632 0.0
C1458 C 0.53741 0.53701 0.82749 0.0
C1459 C 0.57895 0.52054 0.84484 0.0
C1460 C 0.622 0.53858 0.83641 0.0
C1461 C 0.62537 0.58054 0.81764 0.0
C1462 C 0.57709 0.59645 0.79024 0.0
H1463 H 0.50633 0.51562 0.83194 0.0
O1464 O 0.45732 0.63478 0.88016 0.0
O1465 O 0.47868 0.62878 0.81219 0.0
O1466 O 0.40134 0.56076 0.84109 0.0
O1467 O 0.44601 0.53159 0.7892 0.0
C1468 C 0.67914 0.59163 0.80026 0.0
C1469 C 0.67774 0.63225 0.72322 0.0
H1470 H 0.62915 0.67098 0.64587 0.0
H1471 H 0.54877 0.65317 0.62124 0.0
H1472 H 0.55936 0.54448 0.86341 0.0
H1473 H 0.65226 0.51706 0.83836 0.0
H1474 H 0.70603 0.57303 0.81709 0.0
H1475 H 0.70597 0.64259 0.70115 0.0
Mn1476 Mn 0.0991 0.68205 0.56844 0.0
Mn1477 Mn 0.11388 0.57233 0.58685 0.0
C1478 C 0.03033 0.63342 0.57663 0.0
C1479 C 0.08972 0.75687 0.59938 0.0
C1480 C 0.1259 0.61163 0.49219 0.0
O1481 O 0.17052 0.68135 0.58798 0.0
O1482 O 0.17421 0.60643 0.59438 0.0
C1483 C 0.12957 0.59462 0.68093 0.0
N1484 N 0.10669 0.56917 0.64959 0.0
C1485 C 0.05286 0.53962 0.70359 0.0
C1486 C 0.07533 0.56606 0.73596 0.0
C1487 C 0.11388 0.59373 0.72456 0.0
C1488 C 0.0687 0.54361 0.66013 0.0
H1489 H 0.1586 0.61682 0.67272 0.0
C1490 C 0.1938 0.64554 0.59637 0.0
O1491 O 0.10256 0.74912 0.55903 0.0
O1492 O 0.08276 0.72106 0.62283 0.0
N1493 N 0.0594 0.53289 0.58443 0.0
C1494 C 0.04056 0.51028 0.54936 0.0
C1495 C 0.00406 0.47826 0.5564 0.0
C1496 C 0.98685 0.47022 0.59866 0.0
C1497 C 0.0072 0.49307 0.63429 0.0
C1498 C 0.04468 0.5232 0.62589 0.0
H1499 H 0.05414 0.51623 0.51677 0.0
O1500 O 0.02849 0.67212 0.5569 0.0
O1501 O 0.07304 0.62468 0.59052 0.0
O1502 O 0.11763 0.65278 0.50519 0.0
O1503 O 0.12213 0.57785 0.51969 0.0
C1504 C -0.00766 0.48632 0.67796 0.0
C1505 C 0.01444 0.51051 0.71255 0.0
H1506 H 0.06281 0.5659 0.76952 0.0
H1507 H 0.13118 0.61475 0.74923 0.0
H1508 H 0.98832 0.4594 0.53 0.0
H1509 H 0.95842 0.44585 0.60334 0.0
H1510 H 0.96328 0.46334 0.68516 0.0
H1511 H 0.00179 0.50633 0.74589 0.0
Mn1512 Mn 0.07257 0.36901 0.32669 0.0
Mn1513 Mn 0.99094 0.42111 0.271 0.0
C1514 C 0.99126 0.36737 0.35871 0.0
C1515 C 0.1111 0.30188 0.34487 0.0
C1516 C 0.06896 0.4741 0.32879 0.0
O1517 O 0.10349 0.3754 0.2617 0.0
O1518 O 0.04123 0.40661 0.22926 0.0
C1519 C 0.95584 0.36028 0.19828 0.0
N1520 N 0.94754 0.38033 0.23797 0.0
C1521 C 0.85779 0.36354 0.21982 0.0
C1522 C 0.87136 0.34176 0.18217 0.0
C1523 C 0.91939 0.34075 0.17187 0.0
C1524 C 0.90317 0.38258 0.25254 0.0
H1525 H 0.99117 0.35887 0.18576 0.0
C1526 C 0.0822 0.39002 0.22656 0.0
O1527 O 0.12984 0.34084 0.35454 0.0
O1528 O 0.07276 0.30199 0.32144 0.0
N1529 N 0.94134 0.43493 0.30756 0.0
C1530 C 0.94445 0.46689 0.33924 0.0
C1531 C 0.90396 0.4875 0.35362 0.0
C1532 C 0.85965 0.47359 0.3421 0.0
C1533 C 0.85359 0.43161 0.32424 0.0
C1534 C 0.9007 0.41278 0.2985 0.0
H1535 H 0.97796 0.48348 0.34686 0.0
O1536 O 0.02978 0.36201 0.38093 0.0
O1537 O 0.00225 0.37326 0.31629 0.0
O1538 O 0.08732 0.43761 0.34315 0.0
O1539 O 0.03477 0.47045 0.30038 0.0
C1540 C 0.79936 0.42042 0.30723 0.0
C1541 C 0.79927 0.3747 0.23294 0.0
H1542 H 0.84519 0.32746 0.15976 0.0
H1543 H 0.92874 0.32453 0.14175 0.0
H1544 H 0.91942 0.46245 0.37459 0.0
H1545 H 0.83071 0.49692 0.34319 0.0
H1546 H 0.77411 0.44251 0.32151 0.0
H1547 H 0.77077 0.36357 0.21088 0.0
Mn1548 Mn 0.36199 0.66579 0.41784 0.0
Mn1549 Mn 0.36493 0.64074 0.3095 0.0
C1550 C 0.29358 0.64326 0.38066 0.0
C1551 C 0.36105 0.64491 0.49261 0.0
C1552 C 0.37094 0.73946 0.34439 0.0
O1553 O 0.43281 0.65467 0.40947 0.0
O1554 O 0.42589 0.64068 0.33711 0.0
C1555 C 0.39092 0.54672 0.33113 0.0
N1556 N 0.36224 0.57589 0.30909 0.0
C1557 C 0.3097 0.51487 0.28791 0.0
C1558 C 0.33831 0.48446 0.31081 0.0
C1559 C 0.37906 0.50052 0.33265 0.0
C1560 C 0.32203 0.56093 0.28958 0.0
H1561 H 0.42209 0.55859 0.34847 0.0
C1562 C 0.45008 0.64486 0.37202 0.0
O1563 O 0.37133 0.68573 0.4797 0.0
O1564 O 0.35495 0.61478 0.46203 0.0
N1565 N 0.30771 0.63697 0.2753 0.0
C1566 C 0.29311 0.66791 0.24509 0.0
C1567 C 0.2569 0.65628 0.21491 0.0
C1568 C 0.23784 0.61238 0.2143 0.0
C1569 C 0.25701 0.57968 0.24199 0.0
C1570 C 0.29396 0.59304 0.2704 0.0
H1571 H 0.31038 0.70056 0.24302 0.0
O1572 O 0.29206 0.66867 0.41541 0.0
O1573 O 0.33524 0.63426 0.36674 0.0
O1574 O 0.36872 0.72758 0.38494 0.0
O1575 O 0.368 0.71009 0.3124 0.0
C1576 C 0.24382 0.53362 0.23947 0.0
C1577 C 0.26954 0.50127 0.26336 0.0
H1578 H 0.32953 0.44871 0.31161 0.0
H1579 H 0.40145 0.47728 0.3504 0.0
H1580 H 0.24497 0.68003 0.19064 0.0
H1581 H 0.21108 0.60325 0.19004 0.0
H1582 H 0.21477 0.52261 0.21839 0.0
H1583 H 0.25929 0.4659 0.26121 0.0
Mn1584 Mn 0.08955 0.64558 0.14651 0.0
Mn1585 Mn 0.05835 0.57777 0.17387 0.0
C1586 C 0.00162 0.64784 0.13314 0.0
C1587 C 0.11362 0.71519 0.11542 0.0
C1588 C 0.1229 0.53815 0.14362 0.0
O1589 O 0.13407 0.64945 0.20486 0.0
O1590 O 0.09039 0.59536 0.22849 0.0
C1591 C 0.01436 0.54725 0.25335 0.0
N1592 N 0.01517 0.54299 0.20868 0.0
C1593 C 0.93014 0.51688 0.21573 0.0
C1594 C 0.93265 0.52648 0.25979 0.0
C1595 C 0.97395 0.54235 0.27797 0.0
C1596 C 0.97907 0.5244 0.18565 0.0
H1597 H 0.04456 0.5577 0.27161 0.0
C1598 C 0.12319 0.62263 0.23644 0.0
O1599 O 0.13488 0.67824 0.10672 0.0
O1600 O 0.08303 0.71344 0.14674 0.0
N1601 N 0.02533 0.55487 0.12068 0.0
C1602 C 0.03532 0.56332 0.07712 0.0
C1603 C 0.00055 0.56221 0.04372 0.0
C1604 C 0.95278 0.55665 0.05267 0.0
C1605 C 0.93882 0.55002 0.09557 0.0
C1606 C 0.98292 0.53838 0.13169 0.0
H1607 H 0.06964 0.57488 0.06679 0.0
O1608 O 0.03304 0.64952 0.10262 0.0
O1609 O 0.01978 0.63359 0.17066 0.0
O1610 O 0.11772 0.57828 0.12654 0.0
O1611 O 0.09865 0.52898 0.17642 0.0
C1612 C 0.881 0.54999 0.11208 0.0
C1613 C 0.87699 0.52515 0.1947 0.0
H1614 H 0.90065 0.52882 0.27855 0.0
H1615 H 0.97462 0.55275 0.31205 0.0
H1616 H 0.01071 0.56954 0.0102 0.0
H1617 H 0.92762 0.55667 0.02601 0.0
H1618 H 0.85313 0.5572 0.0888 0.0
H1619 H 0.84965 0.52579 0.21685 0.0
Mn1620 Mn 0.12728 0.34906 0.91817 0.0
Mn1621 Mn 0.12387 0.36551 0.80779 0.0
C1622 C 0.19495 0.36868 0.87939 0.0
C1623 C 0.12927 0.38175 -0.00944 0.0
C1624 C 0.11927 0.26928 0.84926 0.0
O1625 O 0.05636 0.35892 0.9073 0.0
O1626 O 0.06313 0.36732 0.83411 0.0
C1627 C 0.09971 0.46065 0.82556 0.0
N1628 N 0.12643 0.43021 0.80345 0.0
C1629 C 0.17825 0.48961 0.77794 0.0
C1630 C 0.15184 0.52124 0.80104 0.0
C1631 C 0.11241 0.50666 0.82507 0.0
C1632 C 0.16559 0.44386 0.78208 0.0
H1633 H 0.0699 0.44988 0.84491 0.0
C1634 C 0.03913 0.36581 0.8688 0.0
O1635 O 0.1194 0.33914 0.98415 0.0
O1636 O 0.13445 0.40558 0.95534 0.0
N1637 N 0.18085 0.3672 0.77437 0.0
C1638 C 0.19685 0.33337 0.74853 0.0
C1639 C 0.23268 0.34217 0.7179 0.0
C1640 C 0.24895 0.38661 0.71144 0.0
C1641 C 0.22922 0.42171 0.73547 0.0
C1642 C 0.19325 0.41059 0.76504 0.0
H1643 H 0.18016 0.30074 0.74978 0.0
O1644 O 0.19768 0.34734 0.9166 0.0
O1645 O 0.15307 0.37522 0.86469 0.0
O1646 O 0.12085 0.28376 0.88948 0.0
O1647 O 0.12163 0.2967 0.81567 0.0
C1648 C 0.24175 0.46756 0.7292 0.0
C1649 C 0.21713 0.50151 0.75158 0.0
H1650 H 0.1616 0.55676 0.80073 0.0
H1651 H 0.09191 0.53081 0.84328 0.0
H1652 H 0.24649 0.31526 0.69808 0.0
H1653 H 0.27453 0.39389 0.68612 0.0
H1654 H 0.27007 0.47702 0.70715 0.0
H1655 H 0.22746 0.53664 0.7473 0.0
Mn1656 Mn 0.39512 0.36167 0.6356 0.0
Mn1657 Mn 0.42788 0.42621 0.66471 0.0
C1658 C 0.48151 0.35706 0.62136 0.0
C1659 C 0.37852 0.29412 0.59731 0.0
C1660 C 0.36455 0.46728 0.63599 0.0
O1661 O 0.35198 0.35561 0.69507 0.0
O1662 O 0.39723 0.40813 0.72073 0.0
C1663 C 0.48022 0.44695 0.7426 0.0
N1664 N 0.47293 0.45908 0.69938 0.0
C1665 C 0.55397 0.49438 0.7045 0.0
C1666 C 0.55507 0.48381 0.74846 0.0
C1667 C 0.51949 0.45903 0.76663 0.0
C1668 C 0.50439 0.48424 0.67575 0.0
H1669 H 0.45903 0.42272 0.75971 0.0
C1670 C 0.3642 0.38083 0.72822 0.0
O1671 O 0.35452 0.32978 0.58949 0.0
O1672 O 0.40397 0.29546 0.63298 0.0
N1673 N 0.45815 0.45114 0.61101 0.0
C1674 C 0.4461 0.44515 0.56723 0.0
C1675 C 0.47942 0.44835 0.5331 0.0
C1676 C 0.52767 0.45393 0.54146 0.0
C1677 C 0.54269 0.46169 0.58416 0.0
C1678 C 0.4992 0.47134 0.62125 0.0
H1679 H 0.41162 0.4331 0.55718 0.0
O1680 O 0.45004 0.35974 0.59085 0.0
O1681 O 0.46546 0.37031 0.65955 0.0
O1682 O 0.36602 0.42773 0.61802 0.0
O1683 O 0.39022 0.47551 0.66849 0.0
C1684 C 0.6013 0.46387 0.60002 0.0
C1685 C 0.60644 0.48857 0.68273 0.0
H1686 H 0.5879 0.48544 0.76652 0.0
H1687 H 0.52422 0.44521 0.79937 0.0
H1688 H 0.46776 0.44222 0.49952 0.0
H1689 H 0.55265 0.45217 0.51493 0.0
H1690 H 0.62804 0.46307 0.57505 0.0
H1691 H 0.63514 0.492 0.70316 0.0
Mn1692 Mn 0.33888 0.0904 0.37958 0.0
Mn1693 Mn 0.30978 0.0766 0.31548 0.0
C1694 C 0.25495 0.12127 0.38105 0.0
C1695 C 0.3638 0.09323 0.45219 0.0
C1696 C 0.38464 0.10506 0.28663 0.0
O1697 O 0.37604 0.02735 0.37086 0.0
O1698 O 0.31476 0.01159 0.33482 0.0
C1699 C 0.2805 0.00736 0.25265 0.0
N1700 N 0.27707 0.05304 0.26381 0.0
C1701 C 0.19264 0.04987 0.23423 0.0
C1702 C 0.19692 0.00514 0.25 0.0
C1703 C 0.23921 0.98377 0.25576 0.0
C1704 C 0.24078 0.08033 0.24816 0.0
H1705 H 0.29234 0.03444 0.26993 0.0
C1706 C 0.35045 0.99662 0.35324 0.0
O1707 O 0.38892 0.10978 0.42081 0.0
O1708 O 0.32599 0.07076 0.44132 0.0
N1709 N 0.28804 0.13719 0.29291 0.0
C1710 C 0.29873 0.17969 0.3091 0.0
C1711 C 0.26486 0.2141 0.31236 0.0
C1712 C 0.21654 0.20651 0.30484 0.0
C1713 C 0.20093 0.16484 0.28946 0.0
C1714 C 0.24519 0.13067 0.2731 0.0
H1715 H 0.33277 0.18805 0.32312 0.0
O1716 O 0.29228 0.1438 0.39287 0.0
O1717 O 0.26476 0.0834 0.36145 0.0
O1718 O 0.37407 0.1236 0.3235 0.0
O1719 O 0.36284 0.06975 0.27846 0.0
C1720 C 0.14176 0.14867 0.28285 0.0
C1721 C 0.1382 0.07002 0.24143 0.0
H1722 H 0.16727 0.98786 0.26477 0.0
H1723 H 0.24026 0.9502 0.26938 0.0
H1724 H 0.27615 0.24689 0.32477 0.0
H1725 H 0.19249 0.23377 0.30969 0.0
H1726 H 0.11384 0.17127 0.29203 0.0
H1727 H 0.10865 0.04978 0.23149 0.0
loop_
_geom_bond_atom_site_label_1
_geom_bond_atom_site_label_2
_geom_bond_distance
_geom_bond_site_symmetry_2
_ccdc_geom_bond_type
Mn0 O5 2.095 . S
Mn0 O15 2.162 . S
Mn0 O16 2.297 . S
Mn0 O24 2.385 . S
Mn0 O25 2.209 . S
Mn0 O26 2.094 . S
Mn1 O6 2.121 . S
Mn1 N8 2.257 . S
Mn1 N17 2.282 . S
Mn1 O25 2.215 . S
Mn1 O27 2.117 . S
C2 O24 1.234 . S
C2 O25 1.283 . S
C3 O15 1.281 . S
C3 O16 1.236 . S
C4 O26 1.240 . S
C4 O27 1.264 . S
O5 Mn0 2.095 . S
O5 C14 1.250 . S
O6 Mn1 2.121 . S
O6 C14 1.258 . S
C7 N8 1.326 1_565 S
C7 C11 1.460 . S
C7 H13 0.929 1_565 S
N8 Mn1 2.257 . S
N8 C7 1.326 1_545 S
N8 C12 1.362 1_545 S
C9 C10 1.258 . S
C9 C12 1.431 . S
C9 C29 1.449 1_455 S
C10 C9 1.258 . S
C10 C11 1.477 . S
C10 H30 0.931 . S
C11 C7 1.460 . S
C11 C10 1.477 . S
C11 H31 0.930 . S
C12 N8 1.362 1_565 S
C12 C9 1.431 . S
C12 C22 1.476 . S
H13 C7 0.929 1_545 S
C14 O5 1.250 . S
C14 O6 1.258 . S
O15 Mn0 2.162 . S
O15 C3 1.281 . S
O16 Mn0 2.297 . S
O16 C3 1.236 . S
N17 Mn1 2.282 . S
N17 C18 1.328 . S
N17 C22 1.318 1_545 S
C18 N17 1.328 . S
C18 C19 1.457 1_455 S
C18 H23 0.929 . S
C19 C18 1.457 1_655 S
C19 C20 1.291 1_545 S
C19 H32 0.931 . S
C20 C19 1.291 1_565 S
C20 C21 1.373 . S
C20 H33 0.929 . S
C21 C20 1.373 . S
C21 C22 1.396 1_655 S
C21 C28 1.403 . S
C22 C12 1.476 . S
C22 N17 1.318 1_565 S
C22 C21 1.396 1_455 S
H23 C18 0.929 . S
O24 Mn0 2.385 . S
O24 C2 1.234 . S
O25 Mn0 2.209 . S
O25 Mn1 2.215 . S
O25 C2 1.283 . S
O26 Mn0 2.094 . S
O26 C4 1.240 . S
O27 Mn1 2.117 . S
O27 C4 1.264 . S
C28 C21 1.403 . S
C28 C29 1.399 . S
C28 H34 0.929 . S
C29 C9 1.449 1_655 S
C29 C28 1.399 . S
C29 H35 0.930 . S
H30 C10 0.931 . S
H31 C11 0.930 . S
H32 C19 0.931 . S
H33 C20 0.929 . S
H34 C28 0.929 . S
H35 C29 0.930 . S
Mn36 O41 2.095 . S
Mn36 O51 2.162 . S
Mn36 O52 2.297 . S
Mn36 O60 2.385 . S
Mn36 O61 2.209 . S
Mn36 O62 2.094 . S
Mn37 O42 2.121 . S
Mn37 N44 2.257 . S
Mn37 N53 2.282 . S
Mn37 O61 2.215 . S
Mn37 O63 2.117 . S
C38 O60 1.234 . S
C38 O61 1.283 . S
C39 O51 1.281 . S
C39 O52 1.236 . S
C40 O62 1.240 . S
C40 O63 1.264 . S
O41 Mn36 2.095 . S
O41 C50 1.250 . S
O42 Mn37 2.121 . S
O42 C50 1.258 . S
C43 N44 1.326 . S
C43 C47 1.460 . S
C43 H49 0.929 . S
N44 Mn37 2.257 . S
N44 C43 1.326 . S
N44 C48 1.362 . S
C45 C46 1.258 . S
C45 C48 1.431 . S
C45 C65 1.449 . S
C46 C45 1.258 . S
C46 C47 1.477 . S
C46 H66 0.931 . S
C47 C43 1.460 . S
C47 C46 1.477 . S
C47 H67 0.930 . S
C48 N44 1.362 . S
C48 C45 1.431 . S
C48 C58 1.476 . S
H49 C43 0.929 . S
C50 O41 1.250 . S
C50 O42 1.258 . S
O51 Mn36 2.162 . S
O51 C39 1.281 . S
O52 Mn36 2.297 . S
O52 C39 1.236 . S
N53 Mn37 2.282 . S
N53 C54 1.328 . S
N53 C58 1.318 . S
C54 N53 1.328 . S
C54 C55 1.457 1_565 S
C54 H59 0.929 . S
C55 C54 1.457 1_545 S
C55 C56 1.291 . S
C55 H68 0.931 . S
C56 C55 1.291 . S
C56 C57 1.373 . S
C56 H69 0.929 . S
C57 C56 1.373 . S
C57 C58 1.396 1_545 S
C57 C64 1.403 . S
C58 C48 1.476 . S
C58 N53 1.318 . S
C58 C57 1.396 1_565 S
H59 C54 0.929 . S
O60 Mn36 2.385 . S
O60 C38 1.234 . S
O61 Mn36 2.209 . S
O61 Mn37 2.215 . S
O61 C38 1.283 . S
O62 Mn36 2.094 . S
O62 C40 1.240 . S
O63 Mn37 2.117 . S
O63 C40 1.264 . S
C64 C57 1.403 . S
C64 C65 1.399 1_545 S
C64 H70 0.929 . S
C65 C45 1.449 . S
C65 C64 1.399 1_565 S
C65 H71 0.930 1_565 S
H66 C46 0.931 . S
H67 C47 0.930 . S
H68 C55 0.931 . S
H69 C56 0.929 . S
H70 C64 0.929 . S
H71 C65 0.930 1_545 S
Mn72 O77 2.095 . S
Mn72 O87 2.162 . S
Mn72 O88 2.297 . S
Mn72 O96 2.385 . S
Mn72 O97 2.209 . S
Mn72 O98 2.094 . S
Mn73 O78 2.121 . S
Mn73 N80 2.257 . S
Mn73 N89 2.282 . S
Mn73 O97 2.215 . S
Mn73 O99 2.117 . S
C74 O96 1.234 . S
C74 O97 1.283 . S
C75 O87 1.281 . S
C75 O88 1.236 . S
C76 O98 1.240 . S
C76 O99 1.264 . S
O77 Mn72 2.095 . S
O77 C86 1.250 . S
O78 Mn73 2.121 . S
O78 C86 1.258 . S
C79 N80 1.326 1_545 S
C79 C83 1.460 . S
C79 H85 0.929 1_545 S
N80 Mn73 2.257 . S
N80 C79 1.326 1_565 S
N80 C84 1.362 1_565 S
C81 C82 1.258 . S
C81 C84 1.431 . S
C81 C101 1.449 . S
C82 C81 1.258 . S
C82 C83 1.477 . S
C82 H102 0.931 . S
C83 C79 1.460 . S
C83 C82 1.477 . S
C83 H103 0.930 . S
C84 N80 1.362 1_545 S
C84 C81 1.431 . S
C84 C94 1.476 . S
H85 C79 0.929 1_565 S
C86 O77 1.250 . S
C86 O78 1.258 . S
O87 Mn72 2.162 . S
O87 C75 1.281 . S
O88 Mn72 2.297 . S
O88 C75 1.236 . S
N89 Mn73 2.282 . S
N89 C90 1.328 . S
N89 C94 1.318 1_565 S
C90 N89 1.328 . S
C90 C91 1.457 . S
C90 H95 0.929 . S
C91 C90 1.457 . S
C91 C92 1.291 1_565 S
C91 H104 0.931 . S
C92 C91 1.291 1_545 S
C92 C93 1.373 . S
C92 H105 0.929 . S
C93 C92 1.373 . S
C93 C94 1.396 . S
C93 C100 1.403 . S
C94 C84 1.476 . S
C94 N89 1.318 1_545 S
C94 C93 1.396 . S
H95 C90 0.929 . S
O96 Mn72 2.385 . S
O96 C74 1.234 . S
O97 Mn72 2.209 . S
O97 Mn73 2.215 . S
O97 C74 1.283 . S
O98 Mn72 2.094 . S
O98 C76 1.240 . S
O99 Mn73 2.117 . S
O99 C76 1.264 . S
C100 C93 1.403 . S
C100 C101 1.399 . S
C100 H106 0.929 . S
C101 C81 1.449 . S
C101 C100 1.399 . S
C101 H107 0.930 . S
H102 C82 0.931 . S
H103 C83 0.930 . S
H104 C91 0.931 . S
H105 C92 0.929 . S
H106 C100 0.929 . S
H107 C101 0.930 . S
Mn108 O113 2.095 . S
Mn108 O123 2.162 . S
Mn108 O124 2.297 . S
Mn108 O132 2.385 . S
Mn108 O133 2.209 . S
Mn108 O134 2.094 . S
Mn109 O114 2.121 . S
Mn109 N116 2.257 . S
Mn109 N125 2.282 . S
Mn109 O133 2.215 . S
Mn109 O135 2.117 . S
C110 O132 1.234 . S
C110 O133 1.283 . S
C111 O123 1.281 . S
C111 O124 1.236 . S
C112 O134 1.240 . S
C112 O135 1.264 . S
O113 Mn108 2.095 . S
O113 C122 1.250 . S
O114 Mn109 2.121 . S
O114 C122 1.258 . S
C115 N116 1.326 1_556 S
C115 C119 1.460 . S
C115 H121 0.929 1_556 S
N116 Mn109 2.257 . S
N116 C115 1.326 1_554 S
N116 C120 1.362 1_554 S
C117 C118 1.258 . S
C117 C120 1.431 . S
C117 C137 1.449 . S
C118 C117 1.258 . S
C118 C119 1.477 . S
C118 H138 0.931 . S
C119 C115 1.460 . S
C119 C118 1.477 . S
C119 H139 0.930 . S
C120 N116 1.362 1_556 S
C120 C117 1.431 . S
C120 C130 1.476 . S
H121 C115 0.929 1_554 S
C122 O113 1.250 . S
C122 O114 1.258 . S
O123 Mn108 2.162 . S
O123 C111 1.281 . S
O124 Mn108 2.297 . S
O124 C111 1.236 . S
N125 Mn109 2.282 . S
N125 C126 1.328 . S
N125 C130 1.318 1_554 S
C126 N125 1.328 . S
C126 C127 1.457 1_545 S
C126 H131 0.929 . S
C127 C126 1.457 1_565 S
C127 C128 1.291 1_554 S
C127 H140 0.931 . S
C128 C127 1.291 1_556 S
C128 C129 1.373 . S
C128 H141 0.929 . S
C129 C128 1.373 . S
C129 C130 1.396 1_565 S
C129 C136 1.403 . S
C130 C120 1.476 . S
C130 N125 1.318 1_556 S
C130 C129 1.396 1_545 S
H131 C126 0.929 . S
O132 Mn108 2.385 . S
O132 C110 1.234 . S
O133 Mn108 2.209 . S
O133 Mn109 2.215 . S
O133 C110 1.283 . S
O134 Mn108 2.094 . S
O134 C112 1.240 . S
O135 Mn109 2.117 . S
O135 C112 1.264 . S
C136 C129 1.403 . S
C136 C137 1.399 1_565 S
C136 H142 0.929 . S
C137 C117 1.449 . S
C137 C136 1.399 1_545 S
C137 H143 0.930 1_545 S
H138 C118 0.931 . S
H139 C119 0.930 . S
H140 C127 0.931 . S
H141 C128 0.929 . S
H142 C136 0.929 . S
H143 C137 0.930 1_565 S
Mn144 O149 2.095 . S
Mn144 O159 2.162 . S
Mn144 O160 2.297 . S
Mn144 O168 2.385 . S
Mn144 O169 2.209 . S
Mn144 O170 2.094 . S
Mn145 O150 2.121 . S
Mn145 N152 2.257 . S
Mn145 N161 2.282 . S
Mn145 O169 2.215 . S
Mn145 O171 2.117 . S
C146 O168 1.234 . S
C146 O169 1.283 . S
C147 O159 1.281 . S
C147 O160 1.236 . S
C148 O170 1.240 . S
C148 O171 1.264 . S
O149 Mn144 2.095 . S
O149 C158 1.250 . S
O150 Mn145 2.121 . S
O150 C158 1.258 . S
C151 N152 1.326 . S
C151 C155 1.460 . S
C151 H157 0.929 . S
N152 Mn145 2.257 . S
N152 C151 1.326 . S
N152 C156 1.362 . S
C153 C154 1.258 . S
C153 C156 1.431 . S
C153 C173 1.449 . S
C154 C153 1.258 . S
C154 C155 1.477 . S
C154 H174 0.931 . S
C155 C151 1.460 . S
C155 C154 1.477 . S
C155 H175 0.930 1_565 S
C156 N152 1.362 . S
C156 C153 1.431 . S
C156 C166 1.476 . S
H157 C151 0.929 . S
C158 O149 1.250 . S
C158 O150 1.258 . S
O159 Mn144 2.162 . S
O159 C147 1.281 . S
O160 Mn144 2.297 . S
O160 C147 1.236 . S
N161 Mn145 2.282 . S
N161 C162 1.328 . S
N161 C166 1.318 . S
C162 N161 1.328 . S
C162 C163 1.457 . S
C162 H167 0.929 . S
C163 C162 1.457 . S
C163 C164 1.291 . S
C163 H176 0.931 . S
C164 C163 1.291 . S
C164 C165 1.373 . S
C164 H177 0.929 . S
C165 C164 1.373 . S
C165 C166 1.396 . S
C165 C172 1.403 . S
C166 C156 1.476 . S
C166 N161 1.318 . S
C166 C165 1.396 . S
H167 C162 0.929 . S
O168 Mn144 2.385 . S
O168 C146 1.234 . S
O169 Mn144 2.209 . S
O169 Mn145 2.215 . S
O169 C146 1.283 . S
O170 Mn144 2.094 . S
O170 C148 1.240 . S
O171 Mn145 2.117 . S
O171 C148 1.264 . S
C172 C165 1.403 . S
C172 C173 1.399 . S
C172 H178 0.929 . S
C173 C153 1.449 . S
C173 C172 1.399 . S
C173 H179 0.930 . S
H174 C154 0.931 . S
H175 C155 0.930 1_545 S
H176 C163 0.931 . S
H177 C164 0.929 . S
H178 C172 0.929 . S
H179 C173 0.930 . S
Mn180 O185 2.095 . S
Mn180 O195 2.162 . S
Mn180 O196 2.297 . S
Mn180 O204 2.385 . S
Mn180 O205 2.209 . S
Mn180 O206 2.094 . S
Mn181 O186 2.121 . S
Mn181 N188 2.257 . S
Mn181 N197 2.282 . S
Mn181 O205 2.215 . S
Mn181 O207 2.117 . S
C182 O204 1.234 . S
C182 O205 1.283 . S
C183 O195 1.281 . S
C183 O196 1.236 . S
C184 O206 1.240 . S
C184 O207 1.264 . S
O185 Mn180 2.095 . S
O185 C194 1.250 . S
O186 Mn181 2.121 . S
O186 C194 1.258 . S
C187 N188 1.326 . S
C187 C191 1.460 . S
C187 H193 0.929 . S
N188 Mn181 2.257 . S
N188 C187 1.326 . S
N188 C192 1.362 . S
C189 C190 1.258 . S
C189 C192 1.431 . S
C189 C209 1.449 . S
C190 C189 1.258 . S
C190 C191 1.477 . S
C190 H210 0.931 . S
C191 C187 1.460 . S
C191 C190 1.477 . S
C191 H211 0.930 . S
C192 N188 1.362 . S
C192 C189 1.431 . S
C192 C202 1.476 . S
H193 C187 0.929 . S
C194 O185 1.250 . S
C194 O186 1.258 . S
O195 Mn180 2.162 . S
O195 C183 1.281 . S
O196 Mn180 2.297 . S
O196 C183 1.236 . S
N197 Mn181 2.282 . S
N197 C198 1.328 . S
N197 C202 1.318 . S
C198 N197 1.328 . S
C198 C199 1.457 . S
C198 H203 0.929 . S
C199 C198 1.457 . S
C199 C200 1.291 . S
C199 H212 0.931 . S
C200 C199 1.291 . S
C200 C201 1.373 . S
C200 H213 0.929 . S
C201 C200 1.373 . S
C201 C202 1.396 . S
C201 C208 1.403 . S
C202 C192 1.476 . S
C202 N197 1.318 . S
C202 C201 1.396 . S
H203 C198 0.929 . S
O204 Mn180 2.385 . S
O204 C182 1.234 . S
O205 Mn180 2.209 . S
O205 Mn181 2.215 . S
O205 C182 1.283 . S
O206 Mn180 2.094 . S
O206 C184 1.240 . S
O207 Mn181 2.117 . S
O207 C184 1.264 . S
C208 C201 1.403 . S
C208 C209 1.399 . S
C208 H214 0.929 . S
C209 C189 1.449 . S
C209 C208 1.399 . S
C209 H215 0.930 . S
H210 C190 0.931 . S
H211 C191 0.930 . S
H212 C199 0.931 . S
H213 C200 0.929 . S
H214 C208 0.929 . S
H215 C209 0.930 . S
Mn216 O221 2.095 . S
Mn216 O231 2.162 . S
Mn216 O232 2.297 . S
Mn216 O240 2.385 . S
Mn216 O241 2.209 . S
Mn216 O242 2.094 . S
Mn217 O222 2.121 . S
Mn217 N224 2.257 . S
Mn217 N233 2.282 . S
Mn217 O241 2.215 . S
Mn217 O243 2.117 . S
C218 O240 1.234 . S
C218 O241 1.283 . S
C219 O231 1.281 . S
C219 O232 1.236 . S
C220 O242 1.240 . S
C220 O243 1.264 . S
O221 Mn216 2.095 . S
O221 C230 1.250 . S
O222 Mn217 2.121 . S
O222 C230 1.258 . S
C223 N224 1.326 . S
C223 C227 1.460 . S
C223 H229 0.929 . S
N224 Mn217 2.257 . S
N224 C223 1.326 . S
N224 C228 1.362 . S
C225 C226 1.258 . S
C225 C228 1.431 . S
C225 C245 1.449 . S
C226 C225 1.258 . S
C226 C227 1.477 . S
C226 H246 0.931 . S
C227 C223 1.460 . S
C227 C226 1.477 . S
C227 H247 0.930 1_545 S
C228 N224 1.362 . S
C228 C225 1.431 . S
C228 C238 1.476 . S
H229 C223 0.929 . S
C230 O221 1.250 . S
C230 O222 1.258 . S
O231 Mn216 2.162 . S
O231 C219 1.281 . S
O232 Mn216 2.297 . S
O232 C219 1.236 . S
N233 Mn217 2.282 . S
N233 C234 1.328 . S
N233 C238 1.318 . S
C234 N233 1.328 . S
C234 C235 1.457 . S
C234 H239 0.929 . S
C235 C234 1.457 . S
C235 C236 1.291 . S
C235 H248 0.931 . S
C236 C235 1.291 . S
C236 C237 1.373 . S
C236 H249 0.929 . S
C237 C236 1.373 . S
C237 C238 1.396 . S
C237 C244 1.403 . S
C238 C228 1.476 . S
C238 N233 1.318 . S
C238 C237 1.396 . S
H239 C234 0.929 . S
O240 Mn216 2.385 . S
O240 C218 1.234 . S
O241 Mn216 2.209 . S
O241 Mn217 2.215 . S
O241 C218 1.283 . S
O242 Mn216 2.094 . S
O242 C220 1.240 . S
O243 Mn217 2.117 . S
O243 C220 1.264 . S
C244 C237 1.403 . S
C244 C245 1.399 . S
C244 H250 0.929 . S
C245 C225 1.449 . S
C245 C244 1.399 . S
C245 H251 0.930 . S
H246 C226 0.931 . S
H247 C227 0.930 1_565 S
H248 C235 0.931 . S
H249 C236 0.929 . S
H250 C244 0.929 . S
H251 C245 0.930 . S
Mn252 O257 2.095 . S
Mn252 O267 2.162 . S
Mn252 O268 2.297 . S
Mn252 O276 2.385 . S
Mn252 O277 2.209 . S
Mn252 O278 2.094 . S
Mn253 O258 2.121 . S
Mn253 N260 2.257 . S
Mn253 N269 2.282 . S
Mn253 O277 2.215 . S
Mn253 O279 2.117 . S
C254 O276 1.234 . S
C254 O277 1.283 . S
C255 O267 1.281 . S
C255 O268 1.236 . S
C256 O278 1.240 . S
C256 O279 1.264 . S
O257 Mn252 2.095 . S
O257 C266 1.250 . S
O258 Mn253 2.121 . S
O258 C266 1.258 . S
C259 N260 1.326 . S
C259 C263 1.460 . S
C259 H265 0.929 . S
N260 Mn253 2.257 . S
N260 C259 1.326 . S
N260 C264 1.362 . S
C261 C262 1.258 . S
C261 C264 1.431 . S
C261 C281 1.449 . S
C262 C261 1.258 . S
C262 C263 1.477 . S
C262 H282 0.931 . S
C263 C259 1.460 . S
C263 C262 1.477 . S
C263 H283 0.930 1_556 S
C264 N260 1.362 . S
C264 C261 1.431 . S
C264 C274 1.476 . S
H265 C259 0.929 . S
C266 O257 1.250 . S
C266 O258 1.258 . S
O267 Mn252 2.162 . S
O267 C255 1.281 . S
O268 Mn252 2.297 . S
O268 C255 1.236 . S
N269 Mn253 2.282 . S
N269 C270 1.328 . S
N269 C274 1.318 . S
C270 N269 1.328 . S
C270 C271 1.457 . S
C270 H275 0.929 . S
C271 C270 1.457 . S
C271 C272 1.291 . S
C271 H284 0.931 . S
C272 C271 1.291 . S
C272 C273 1.373 . S
C272 H285 0.929 . S
C273 C272 1.373 . S
C273 C274 1.396 . S
C273 C280 1.403 . S
C274 C264 1.476 . S
C274 N269 1.318 . S
C274 C273 1.396 . S
H275 C270 0.929 . S
O276 Mn252 2.385 . S
O276 C254 1.234 . S
O277 Mn252 2.209 . S
O277 Mn253 2.215 . S
O277 C254 1.283 . S
O278 Mn252 2.094 . S
O278 C256 1.240 . S
O279 Mn253 2.117 . S
O279 C256 1.264 . S
C280 C273 1.403 . S
C280 C281 1.399 . S
C280 H286 0.929 . S
C281 C261 1.449 . S
C281 C280 1.399 . S
C281 H287 0.930 . S
H282 C262 0.931 . S
H283 C263 0.930 1_554 S
H284 C271 0.931 . S
H285 C272 0.929 . S
H286 C280 0.929 . S
H287 C281 0.930 . S
Mn288 O293 2.095 . S
Mn288 O303 2.162 . S
Mn288 O304 2.297 . S
Mn288 O312 2.385 . S
Mn288 O313 2.209 . S
Mn288 O314 2.094 . S
Mn289 O294 2.121 . S
Mn289 N296 2.257 1_455 S
Mn289 N305 2.282 . S
Mn289 O313 2.215 . S
Mn289 O315 2.117 . S
C290 O312 1.234 . S
C290 O313 1.283 . S
C291 O303 1.281 . S
C291 O304 1.236 . S
C292 O314 1.240 . S
C292 O315 1.264 . S
O293 Mn288 2.095 . S
O293 C302 1.250 . S
O294 Mn289 2.121 . S
O294 C302 1.258 . S
C295 N296 1.326 . S
C295 C299 1.460 . S
C295 H301 0.929 1_655 S
N296 Mn289 2.257 1_655 S
N296 C295 1.326 . S
N296 C300 1.362 . S
C297 C298 1.258 . S
C297 C300 1.431 . S
C297 C317 1.449 . S
C298 C297 1.258 . S
C298 C299 1.477 . S
C298 H318 0.931 . S
C299 C295 1.460 . S
C299 C298 1.477 . S
C299 H319 0.930 . S
C300 N296 1.362 . S
C300 C297 1.431 . S
C300 C310 1.476 . S
H301 C295 0.929 1_455 S
C302 O293 1.250 . S
C302 O294 1.258 . S
O303 Mn288 2.162 . S
O303 C291 1.281 . S
O304 Mn288 2.297 . S
O304 C291 1.236 . S
N305 Mn289 2.282 . S
N305 C306 1.328 . S
N305 C310 1.318 1_455 S
C306 N305 1.328 . S
C306 C307 1.459 1_554 S
C306 H311 0.929 . S
C307 C306 1.459 1_556 S
C307 C308 1.288 1_455 S
C307 H320 0.932 . S
C308 C307 1.288 1_655 S
C308 C309 1.364 1_556 S
C308 H321 0.929 . S
C309 C308 1.364 1_554 S
C309 C310 1.409 . S
C309 C316 1.398 1_554 S
C310 C300 1.476 . S
C310 N305 1.318 1_655 S
C310 C309 1.409 . S
H311 C306 0.929 . S
O312 Mn288 2.385 . S
O312 C290 1.234 . S
O313 Mn288 2.209 . S
O313 Mn289 2.215 . S
O313 C290 1.283 . S
O314 Mn288 2.094 . S
O314 C292 1.240 . S
O315 Mn289 2.117 . S
O315 C292 1.264 . S
C316 C309 1.398 1_556 S
C316 C317 1.399 1_556 S
C316 H322 0.929 . S
C317 C297 1.449 . S
C317 C316 1.399 1_554 S
C317 H323 0.930 . S
H318 C298 0.931 . S
H319 C299 0.930 . S
H320 C307 0.932 . S
H321 C308 0.929 . S
H322 C316 0.929 . S
H323 C317 0.930 . S
Mn324 O329 2.095 . S
Mn324 O339 2.162 . S
Mn324 O340 2.297 . S
Mn324 O348 2.385 . S
Mn324 O349 2.209 . S
Mn324 O350 2.094 . S
Mn325 O330 2.121 . S
Mn325 N332 2.257 . S
Mn325 N341 2.282 . S
Mn325 O349 2.215 . S
Mn325 O351 2.117 . S
C326 O348 1.234 . S
C326 O349 1.283 . S
C327 O339 1.281 . S
C327 O340 1.236 . S
C328 O350 1.240 . S
C328 O351 1.264 . S
O329 Mn324 2.095 . S
O329 C338 1.250 . S
O330 Mn325 2.121 . S
O330 C338 1.258 . S
C331 N332 1.326 . S
C331 C335 1.460 . S
C331 H337 0.929 . S
N332 Mn325 2.257 . S
N332 C331 1.326 . S
N332 C336 1.362 . S
C333 C334 1.258 . S
C333 C336 1.431 . S
C333 C353 1.449 . S
C334 C333 1.258 . S
C334 C335 1.477 . S
C334 H354 0.931 . S
C335 C331 1.460 . S
C335 C334 1.477 . S
C335 H355 0.930 . S
C336 N332 1.362 . S
C336 C333 1.431 . S
C336 C346 1.476 . S
H337 C331 0.929 . S
C338 O329 1.250 . S
C338 O330 1.258 . S
O339 Mn324 2.162 . S
O339 C327 1.281 . S
O340 Mn324 2.297 . S
O340 C327 1.236 . S
N341 Mn325 2.282 . S
N341 C342 1.328 . S
N341 C346 1.318 . S
C342 N341 1.328 . S
C342 C343 1.457 1_556 S
C342 H347 0.929 . S
C343 C342 1.457 1_554 S
C343 C344 1.291 . S
C343 H356 0.931 . S
C344 C343 1.291 . S
C344 C345 1.371 1_554 S
C344 H357 0.929 . S
C345 C344 1.371 1_556 S
C345 C346 1.398 . S
C345 C352 1.402 1_556 S
C346 C336 1.476 . S
C346 N341 1.318 . S
C346 C345 1.398 . S
H347 C342 0.929 . S
O348 Mn324 2.385 . S
O348 C326 1.234 . S
O349 Mn324 2.209 . S
O349 Mn325 2.215 . S
O349 C326 1.283 . S
O350 Mn324 2.094 . S
O350 C328 1.240 . S
O351 Mn325 2.117 . S
O351 C328 1.264 . S
C352 C345 1.402 1_554 S
C352 C353 1.399 1_554 S
C352 H358 0.929 . S
C353 C333 1.449 . S
C353 C352 1.399 1_556 S
C353 H359 0.930 . S
H354 C334 0.931 . S
H355 C335 0.930 . S
H356 C343 0.931 . S
H357 C344 0.929 . S
H358 C352 0.929 . S
H359 C353 0.930 . S
Mn360 O365 2.095 . S
Mn360 O375 2.162 . S
Mn360 O376 2.297 . S
Mn360 O384 2.385 . S
Mn360 O385 2.209 . S
Mn360 O386 2.094 . S
Mn361 O366 2.121 . S
Mn361 N368 2.257 1_655 S
Mn361 N377 2.282 . S
Mn361 O385 2.215 . S
Mn361 O387 2.117 . S
C362 O384 1.234 . S
C362 O385 1.283 . S
C363 O375 1.281 . S
C363 O376 1.236 . S
C364 O386 1.240 . S
C364 O387 1.264 . S
O365 Mn360 2.095 . S
O365 C374 1.250 . S
O366 Mn361 2.121 . S
O366 C374 1.258 . S
C367 N368 1.326 . S
C367 C371 1.460 . S
C367 H373 0.929 1_455 S
N368 Mn361 2.257 1_455 S
N368 C367 1.326 . S
N368 C372 1.362 . S
C369 C370 1.258 . S
C369 C372 1.431 . S
C369 C389 1.449 . S
C370 C369 1.258 . S
C370 C371 1.477 . S
C370 H390 0.931 . S
C371 C367 1.460 . S
C371 C370 1.477 . S
C371 H391 0.930 . S
C372 N368 1.362 . S
C372 C369 1.431 . S
C372 C382 1.476 . S
H373 C367 0.929 1_655 S
C374 O365 1.250 . S
C374 O366 1.258 . S
O375 Mn360 2.162 . S
O375 C363 1.281 . S
O376 Mn360 2.297 . S
O376 C363 1.236 . S
N377 Mn361 2.282 . S
N377 C378 1.328 . S
N377 C382 1.318 1_655 S
C378 N377 1.328 . S
C378 C379 1.457 1_655 S
C378 H383 0.929 . S
C379 C378 1.457 1_455 S
C379 C380 1.290 . S
C379 H392 0.931 1_455 S
C380 C379 1.290 . S
C380 C381 1.373 . S
C380 H393 0.929 . S
C381 C380 1.373 . S
C381 C382 1.396 . S
C381 C388 1.403 . S
C382 C372 1.476 . S
C382 N377 1.318 1_455 S
C382 C381 1.396 . S
H383 C378 0.929 . S
O384 Mn360 2.385 . S
O384 C362 1.234 . S
O385 Mn360 2.209 . S
O385 Mn361 2.215 . S
O385 C362 1.283 . S
O386 Mn360 2.094 . S
O386 C364 1.240 . S
O387 Mn361 2.117 . S
O387 C364 1.264 . S
C388 C381 1.403 . S
C388 C389 1.399 . S
C388 H394 0.929 . S
C389 C369 1.449 . S
C389 C388 1.399 . S
C389 H395 0.930 . S
H390 C370 0.931 . S
H391 C371 0.930 . S
H392 C379 0.931 1_655 S
H393 C380 0.929 . S
H394 C388 0.929 . S
H395 C389 0.930 . S
Mn396 O401 2.095 . S
Mn396 O411 2.162 . S
Mn396 O412 2.297 . S
Mn396 O420 2.385 . S
Mn396 O421 2.209 . S
Mn396 O422 2.094 . S
Mn397 O402 2.121 . S
Mn397 N404 2.257 . S
Mn397 N413 2.282 . S
Mn397 O421 2.215 . S
Mn397 O423 2.117 . S
C398 O420 1.234 . S
C398 O421 1.283 . S
C399 O411 1.281 . S
C399 O412 1.236 . S
C400 O422 1.240 . S
C400 O423 1.264 . S
O401 Mn396 2.095 . S
O401 C410 1.250 . S
O402 Mn397 2.121 . S
O402 C410 1.258 . S
C403 N404 1.326 . S
C403 C407 1.460 . S
C403 H409 0.929 . S
N404 Mn397 2.257 . S
N404 C403 1.326 . S
N404 C408 1.362 . S
C405 C406 1.258 . S
C405 C408 1.431 . S
C405 C425 1.449 . S
C406 C405 1.258 . S
C406 C407 1.477 . S
C406 H426 0.931 1_655 S
C407 C403 1.460 . S
C407 C406 1.477 . S
C407 H427 0.930 1_655 S
C408 N404 1.362 . S
C408 C405 1.431 . S
C408 C418 1.476 . S
H409 C403 0.929 . S
C410 O401 1.250 . S
C410 O402 1.258 . S
O411 Mn396 2.162 . S
O411 C399 1.281 . S
O412 Mn396 2.297 . S
O412 C399 1.236 . S
N413 Mn397 2.282 . S
N413 C414 1.328 . S
N413 C418 1.318 . S
C414 N413 1.328 . S
C414 C415 1.457 . S
C414 H419 0.929 . S
C415 C414 1.457 . S
C415 C416 1.291 . S
C415 H428 0.931 . S
C416 C415 1.291 . S
C416 C417 1.373 . S
C416 H429 0.929 . S
C417 C416 1.373 . S
C417 C418 1.396 . S
C417 C424 1.403 . S
C418 C408 1.476 . S
C418 N413 1.318 . S
C418 C417 1.396 . S
H419 C414 0.929 . S
O420 Mn396 2.385 . S
O420 C398 1.234 . S
O421 Mn396 2.209 . S
O421 Mn397 2.215 . S
O421 C398 1.283 . S
O422 Mn396 2.094 . S
O422 C400 1.240 . S
O423 Mn397 2.117 . S
O423 C400 1.264 . S
C424 C417 1.403 . S
C424 C425 1.399 . S
C424 H430 0.929 . S
C425 C405 1.449 . S
C425 C424 1.399 . S
C425 H431 0.930 . S
H426 C406 0.931 1_455 S
H427 C407 0.930 1_455 S
H428 C415 0.931 . S
H429 C416 0.929 . S
H430 C424 0.929 . S
H431 C425 0.930 . S
Mn432 O437 2.095 . S
Mn432 O447 2.162 . S
Mn432 O448 2.297 . S
Mn432 O456 2.385 . S
Mn432 O457 2.209 . S
Mn432 O458 2.094 . S
Mn433 O438 2.121 . S
Mn433 N440 2.257 . S
Mn433 N449 2.282 . S
Mn433 O457 2.215 . S
Mn433 O459 2.117 . S
C434 O456 1.234 . S
C434 O457 1.283 . S
C435 O447 1.281 . S
C435 O448 1.236 . S
C436 O458 1.240 . S
C436 O459 1.264 . S
O437 Mn432 2.095 . S
O437 C446 1.250 . S
O438 Mn433 2.121 . S
O438 C446 1.258 . S
C439 N440 1.326 . S
C439 C443 1.460 . S
C439 H445 0.929 . S
N440 Mn433 2.257 . S
N440 C439 1.326 . S
N440 C444 1.362 . S
C441 C442 1.258 . S
C441 C444 1.431 . S
C441 C461 1.449 . S
C442 C441 1.258 . S
C442 C443 1.477 . S
C442 H462 0.931 . S
C443 C439 1.460 . S
C443 C442 1.477 . S
C443 H463 0.930 . S
C444 N440 1.362 . S
C444 C441 1.431 . S
C444 C454 1.476 . S
H445 C439 0.929 . S
C446 O437 1.250 . S
C446 O438 1.258 . S
O447 Mn432 2.162 . S
O447 C435 1.281 . S
O448 Mn432 2.297 . S
O448 C435 1.236 . S
N449 Mn433 2.282 . S
N449 C450 1.328 . S
N449 C454 1.318 . S
C450 N449 1.328 . S
C450 C451 1.457 . S
C450 H455 0.929 . S
C451 C450 1.457 . S
C451 C452 1.291 . S
C451 H464 0.931 . S
C452 C451 1.291 . S
C452 C453 1.373 . S
C452 H465 0.929 . S
C453 C452 1.373 . S
C453 C454 1.396 . S
C453 C460 1.403 . S
C454 C444 1.476 . S
C454 N449 1.318 . S
C454 C453 1.396 . S
H455 C450 0.929 . S
O456 Mn432 2.385 . S
O456 C434 1.234 . S
O457 Mn432 2.209 . S
O457 Mn433 2.215 . S
O457 C434 1.283 . S
O458 Mn432 2.094 . S
O458 C436 1.240 . S
O459 Mn433 2.117 . S
O459 C436 1.264 . S
C460 C453 1.403 . S
C460 C461 1.399 . S
C460 H466 0.929 . S
C461 C441 1.449 . S
C461 C460 1.399 . S
C461 H467 0.930 . S
H462 C442 0.931 . S
H463 C443 0.930 . S
H464 C451 0.931 . S
H465 C452 0.929 . S
H466 C460 0.929 . S
H467 C461 0.930 . S
Mn468 O473 2.095 . S
Mn468 O483 2.162 . S
Mn468 O484 2.297 . S
Mn468 O492 2.385 . S
Mn468 O493 2.209 . S
Mn468 O494 2.094 . S
Mn469 O474 2.121 . S
Mn469 N476 2.257 1_455 S
Mn469 N485 2.282 . S
Mn469 O493 2.215 . S
Mn469 O495 2.117 . S
C470 O492 1.234 . S
C470 O493 1.283 . S
C471 O483 1.281 . S
C471 O484 1.236 . S
C472 O494 1.240 . S
C472 O495 1.264 . S
O473 Mn468 2.095 . S
O473 C482 1.250 . S
O474 Mn469 2.121 . S
O474 C482 1.258 . S
C475 N476 1.326 . S
C475 C479 1.460 . S
C475 H481 0.929 1_655 S
N476 Mn469 2.257 1_655 S
N476 C475 1.326 . S
N476 C480 1.362 . S
C477 C478 1.258 . S
C477 C480 1.431 . S
C477 C497 1.449 . S
C478 C477 1.258 . S
C478 C479 1.477 . S
C478 H498 0.931 . S
C479 C475 1.460 . S
C479 C478 1.477 . S
C479 H499 0.930 . S
C480 N476 1.362 . S
C480 C477 1.431 . S
C480 C490 1.476 . S
H481 C475 0.929 1_455 S
C482 O473 1.250 . S
C482 O474 1.258 . S
O483 Mn468 2.162 . S
O483 C471 1.281 . S
O484 Mn468 2.297 . S
O484 C471 1.236 . S
N485 Mn469 2.282 . S
N485 C486 1.328 . S
N485 C490 1.318 1_455 S
C486 N485 1.328 . S
C486 C487 1.463 . S
C486 H491 0.929 . S
C487 C486 1.463 . S
C487 C488 1.281 1_455 S
C487 H500 0.934 . S
C488 C487 1.281 1_655 S
C488 C489 1.373 . S
C488 H501 0.929 . S
C489 C488 1.373 . S
C489 C490 1.396 . S
C489 C496 1.403 . S
C490 C480 1.476 . S
C490 N485 1.318 1_655 S
C490 C489 1.396 . S
H491 C486 0.929 . S
O492 Mn468 2.385 . S
O492 C470 1.234 . S
O493 Mn468 2.209 . S
O493 Mn469 2.215 . S
O493 C470 1.283 . S
O494 Mn468 2.094 . S
O494 C472 1.240 . S
O495 Mn469 2.117 . S
O495 C472 1.264 . S
C496 C489 1.403 . S
C496 C497 1.399 . S
C496 H502 0.929 . S
C497 C477 1.449 . S
C497 C496 1.399 . S
C497 H503 0.930 . S
H498 C478 0.931 . S
H499 C479 0.930 . S
H500 C487 0.934 . S
H501 C488 0.929 . S
H502 C496 0.929 . S
H503 C497 0.930 . S
Mn504 O509 2.095 . S
Mn504 O519 2.162 . S
Mn504 O520 2.297 . S
Mn504 O528 2.385 . S
Mn504 O529 2.209 . S
Mn504 O530 2.094 . S
Mn505 O510 2.121 . S
Mn505 N512 2.257 . S
Mn505 N521 2.282 . S
Mn505 O529 2.215 . S
Mn505 O531 2.117 . S
C506 O528 1.234 . S
C506 O529 1.283 . S
C507 O519 1.281 . S
C507 O520 1.236 . S
C508 O530 1.240 . S
C508 O531 1.264 . S
O509 Mn504 2.095 . S
O509 C518 1.250 . S
O510 Mn505 2.121 . S
O510 C518 1.258 . S
C511 N512 1.326 . S
C511 C515 1.460 . S
C511 H517 0.929 . S
N512 Mn505 2.257 . S
N512 C511 1.326 . S
N512 C516 1.362 . S
C513 C514 1.258 . S
C513 C516 1.431 . S
C513 C533 1.449 . S
C514 C513 1.258 . S
C514 C515 1.477 . S
C514 H534 0.931 . S
C515 C511 1.460 . S
C515 C514 1.477 . S
C515 H535 0.930 . S
C516 N512 1.362 . S
C516 C513 1.431 . S
C516 C526 1.476 . S
H517 C511 0.929 . S
C518 O509 1.250 . S
C518 O510 1.258 . S
O519 Mn504 2.162 . S
O519 C507 1.281 . S
O520 Mn504 2.297 . S
O520 C507 1.236 . S
N521 Mn505 2.282 . S
N521 C522 1.328 . S
N521 C526 1.318 . S
C522 N521 1.328 . S
C522 C523 1.457 1_556 S
C522 H527 0.929 . S
C523 C522 1.457 1_554 S
C523 C524 1.291 . S
C523 H536 0.931 . S
C524 C523 1.291 . S
C524 C525 1.372 1_554 S
C524 H537 0.929 . S
C525 C524 1.372 1_556 S
C525 C526 1.397 . S
C525 C532 1.402 1_556 S
C526 C516 1.476 . S
C526 N521 1.318 . S
C526 C525 1.397 . S
H527 C522 0.929 . S
O528 Mn504 2.385 . S
O528 C506 1.234 . S
O529 Mn504 2.209 . S
O529 Mn505 2.215 . S
O529 C506 1.283 . S
O530 Mn504 2.094 . S
O530 C508 1.240 . S
O531 Mn505 2.117 . S
O531 C508 1.264 . S
C532 C525 1.402 1_554 S
C532 C533 1.399 1_554 S
C532 H538 0.929 . S
C533 C513 1.449 . S
C533 C532 1.399 1_556 S
C533 H539 0.930 . S
H534 C514 0.931 . S
H535 C515 0.930 . S
H536 C523 0.931 . S
H537 C524 0.929 . S
H538 C532 0.929 . S
H539 C533 0.930 . S
Mn540 O545 2.095 . S
Mn540 O555 2.162 . S
Mn540 O556 2.297 . S
Mn540 O564 2.385 . S
Mn540 O565 2.209 . S
Mn540 O566 2.094 . S
Mn541 O546 2.121 . S
Mn541 N548 2.257 . S
Mn541 N557 2.282 . S
Mn541 O565 2.215 . S
Mn541 O567 2.117 . S
C542 O564 1.234 . S
C542 O565 1.283 . S
C543 O555 1.281 . S
C543 O556 1.236 . S
C544 O566 1.240 . S
C544 O567 1.264 . S
O545 Mn540 2.095 . S
O545 C554 1.250 . S
O546 Mn541 2.121 . S
O546 C554 1.258 . S
C547 N548 1.326 . S
C547 C551 1.460 1_565 S
C547 H553 0.929 . S
N548 Mn541 2.257 . S
N548 C547 1.326 . S
N548 C552 1.362 1_565 S
C549 C550 1.258 . S
C549 C552 1.431 . S
C549 C569 1.449 1_655 S
C550 C549 1.258 . S
C550 C551 1.477 . S
C550 H570 0.931 . S
C551 C547 1.460 1_545 S
C551 C550 1.477 . S
C551 H571 0.930 . S
C552 N548 1.362 1_545 S
C552 C549 1.431 . S
C552 C562 1.476 1_545 S
H553 C547 0.929 . S
C554 O545 1.250 . S
C554 O546 1.258 . S
O555 Mn540 2.162 . S
O555 C543 1.281 . S
O556 Mn540 2.297 . S
O556 C543 1.236 . S
N557 Mn541 2.282 . S
N557 C558 1.328 . S
N557 C562 1.318 . S
C558 N557 1.328 . S
C558 C559 1.457 1_655 S
C558 H563 0.929 . S
C559 C558 1.457 1_455 S
C559 C560 1.291 1_565 S
C559 H572 0.931 . S
C560 C559 1.291 1_545 S
C560 C561 1.373 . S
C560 H573 0.929 . S
C561 C560 1.373 . S
C561 C562 1.396 1_445 S
C561 C568 1.403 . S
C562 C552 1.476 1_565 S
C562 N557 1.318 . S
C562 C561 1.396 1_665 S
H563 C558 0.929 . S
O564 Mn540 2.385 . S
O564 C542 1.234 . S
O565 Mn540 2.209 . S
O565 Mn541 2.215 . S
O565 C542 1.283 . S
O566 Mn540 2.094 . S
O566 C544 1.240 . S
O567 Mn541 2.117 . S
O567 C544 1.264 . S
C568 C561 1.403 . S
C568 C569 1.399 . S
C568 H574 0.929 . S
C569 C549 1.449 1_455 S
C569 C568 1.399 . S
C569 H575 0.930 . S
H570 C550 0.931 . S
H571 C551 0.930 . S
H572 C559 0.931 . S
H573 C560 0.929 . S
H574 C568 0.929 . S
H575 C569 0.930 . S
Mn576 O581 2.095 . S
Mn576 O591 2.162 . S
Mn576 O592 2.297 . S
Mn576 O600 2.385 . S
Mn576 O601 2.209 . S
Mn576 O602 2.094 . S
Mn577 O582 2.121 . S
Mn577 N584 2.257 1_655 S
Mn577 N593 2.282 1_655 S
Mn577 O601 2.215 . S
Mn577 O603 2.117 . S
C578 O600 1.234 . S
C578 O601 1.283 . S
C579 O591 1.281 . S
C579 O592 1.236 . S
C580 O602 1.240 . S
C580 O603 1.264 . S
O581 Mn576 2.095 . S
O581 C590 1.250 . S
O582 Mn577 2.121 . S
O582 C590 1.258 . S
C583 N584 1.326 . S
C583 C587 1.460 . S
C583 H589 0.929 . S
N584 Mn577 2.257 1_455 S
N584 C583 1.326 . S
N584 C588 1.362 . S
C585 C586 1.258 . S
C585 C588 1.431 . S
C585 C605 1.449 . S
C586 C585 1.258 . S
C586 C587 1.477 . S
C586 H606 0.931 . S
C587 C583 1.460 . S
C587 C586 1.477 . S
C587 H607 0.930 . S
C588 N584 1.362 . S
C588 C585 1.431 . S
C588 C598 1.476 . S
H589 C583 0.929 . S
C590 O581 1.250 . S
C590 O582 1.258 . S
O591 Mn576 2.162 . S
O591 C579 1.281 . S
O592 Mn576 2.297 . S
O592 C579 1.236 . S
N593 Mn577 2.282 1_455 S
N593 C594 1.328 . S
N593 C598 1.318 . S
C594 N593 1.328 . S
C594 C595 1.457 1_545 S
C594 H599 0.929 1_455 S
C595 C594 1.457 1_565 S
C595 C596 1.291 . S
C595 H608 0.931 . S
C596 C595 1.291 . S
C596 C597 1.373 1_565 S
C596 H609 0.929 . S
C597 C596 1.373 1_545 S
C597 C598 1.396 . S
C597 C604 1.403 . S
C598 C588 1.476 . S
C598 N593 1.318 . S
C598 C597 1.396 . S
H599 C594 0.929 1_655 S
O600 Mn576 2.385 . S
O600 C578 1.234 . S
O601 Mn576 2.209 . S
O601 Mn577 2.215 . S
O601 C578 1.283 . S
O602 Mn576 2.094 . S
O602 C580 1.240 . S
O603 Mn577 2.117 . S
O603 C580 1.264 . S
C604 C597 1.403 . S
C604 C605 1.399 . S
C604 H610 0.929 . S
C605 C585 1.449 . S
C605 C604 1.399 . S
C605 H611 0.930 . S
H606 C586 0.931 . S
H607 C587 0.930 . S
H608 C595 0.931 . S
H609 C596 0.929 . S
H610 C604 0.929 . S
H611 C605 0.930 . S
Mn612 O617 2.095 . S
Mn612 O627 2.162 . S
Mn612 O628 2.297 . S
Mn612 O636 2.385 . S
Mn612 O637 2.209 . S
Mn612 O638 2.094 . S
Mn613 O618 2.121 . S
Mn613 N620 2.257 . S
Mn613 N629 2.282 . S
Mn613 O637 2.215 . S
Mn613 O639 2.117 . S
C614 O636 1.234 . S
C614 O637 1.283 . S
C615 O627 1.281 . S
C615 O628 1.236 . S
C616 O638 1.240 1_556 S
C616 O639 1.264 1_556 S
O617 Mn612 2.095 . S
O617 C626 1.250 . S
O618 Mn613 2.121 . S
O618 C626 1.258 . S
C619 N620 1.326 . S
C619 C623 1.460 1_545 S
C619 H625 0.929 . S
N620 Mn613 2.257 . S
N620 C619 1.326 . S
N620 C624 1.362 1_545 S
C621 C622 1.258 . S
C621 C624 1.431 . S
C621 C641 1.449 . S
C622 C621 1.258 . S
C622 C623 1.477 . S
C622 H642 0.931 . S
C623 C619 1.460 1_565 S
C623 C622 1.477 . S
C623 H643 0.930 . S
C624 N620 1.362 1_565 S
C624 C621 1.431 . S
C624 C634 1.476 1_565 S
H625 C619 0.929 . S
C626 O617 1.250 . S
C626 O618 1.258 . S
O627 Mn612 2.162 . S
O627 C615 1.281 . S
O628 Mn612 2.297 . S
O628 C615 1.236 . S
N629 Mn613 2.282 . S
N629 C630 1.328 . S
N629 C634 1.318 . S
C630 N629 1.328 . S
C630 C631 1.457 . S
C630 H635 0.929 . S
C631 C630 1.457 . S
C631 C632 1.291 1_545 S
C631 H644 0.931 . S
C632 C631 1.291 1_565 S
C632 C633 1.373 . S
C632 H645 0.929 . S
C633 C632 1.373 . S
C633 C634 1.396 1_565 S
C633 C640 1.403 . S
C634 C624 1.476 1_545 S
C634 N629 1.318 . S
C634 C633 1.396 1_545 S
H635 C630 0.929 . S
O636 Mn612 2.385 . S
O636 C614 1.234 . S
O637 Mn612 2.209 . S
O637 Mn613 2.215 . S
O637 C614 1.283 . S
O638 Mn612 2.094 . S
O638 C616 1.240 1_554 S
O639 Mn613 2.117 . S
O639 C616 1.264 1_554 S
C640 C633 1.403 . S
C640 C641 1.399 . S
C640 H646 0.929 . S
C641 C621 1.449 . S
C641 C640 1.399 . S
C641 H647 0.930 . S
H642 C622 0.931 . S
H643 C623 0.930 . S
H644 C631 0.931 . S
H645 C632 0.929 . S
H646 C640 0.929 . S
H647 C641 0.930 . S
Mn648 O653 2.095 . S
Mn648 O663 2.162 . S
Mn648 O664 2.297 . S
Mn648 O672 2.385 . S
Mn648 O673 2.209 . S
Mn648 O674 2.094 . S
Mn649 O654 2.121 . S
Mn649 N656 2.257 . S
Mn649 N665 2.282 . S
Mn649 O673 2.215 . S
Mn649 O675 2.117 . S
C650 O672 1.234 . S
C650 O673 1.283 . S
C651 O663 1.281 . S
C651 O664 1.236 . S
C652 O674 1.240 . S
C652 O675 1.264 . S
O653 Mn648 2.095 . S
O653 C662 1.250 . S
O654 Mn649 2.121 . S
O654 C662 1.258 . S
C655 N656 1.326 . S
C655 C659 1.460 . S
C655 H661 0.929 . S
N656 Mn649 2.257 . S
N656 C655 1.326 . S
N656 C660 1.362 . S
C657 C658 1.258 . S
C657 C660 1.431 . S
C657 C677 1.449 . S
C658 C657 1.258 . S
C658 C659 1.477 . S
C658 H678 0.931 . S
C659 C655 1.460 . S
C659 C658 1.477 . S
C659 H679 0.930 . S
C660 N656 1.362 . S
C660 C657 1.431 . S
C660 C670 1.476 . S
H661 C655 0.929 . S
C662 O653 1.250 . S
C662 O654 1.258 . S
O663 Mn648 2.162 . S
O663 C651 1.281 . S
O664 Mn648 2.297 . S
O664 C651 1.236 . S
N665 Mn649 2.282 . S
N665 C666 1.328 . S
N665 C670 1.318 . S
C666 N665 1.328 . S
C666 C667 1.457 1_565 S
C666 H671 0.929 . S
C667 C666 1.457 1_545 S
C667 C668 1.291 . S
C667 H680 0.931 . S
C668 C667 1.291 . S
C668 C669 1.373 1_545 S
C668 H681 0.929 . S
C669 C668 1.373 1_565 S
C669 C670 1.396 . S
C669 C676 1.403 . S
C670 C660 1.476 . S
C670 N665 1.318 . S
C670 C669 1.396 . S
H671 C666 0.929 . S
O672 Mn648 2.385 . S
O672 C650 1.234 . S
O673 Mn648 2.209 . S
O673 Mn649 2.215 . S
O673 C650 1.283 . S
O674 Mn648 2.094 . S
O674 C652 1.240 . S
O675 Mn649 2.117 . S
O675 C652 1.264 . S
C676 C669 1.403 . S
C676 C677 1.399 . S
C676 H682 0.929 . S
C677 C657 1.449 . S
C677 C676 1.399 . S
C677 H683 0.930 . S
H678 C658 0.931 . S
H679 C659 0.930 . S
H680 C667 0.931 . S
H681 C668 0.929 . S
H682 C676 0.929 . S
H683 C677 0.930 . S
Mn684 O689 2.095 . S
Mn684 O699 2.145 1_556 S
Mn684 O700 2.297 . S
Mn684 O708 2.385 . S
Mn684 O709 2.209 . S
Mn684 O710 2.094 . S
Mn685 O690 2.121 . S
Mn685 N692 2.257 . S
Mn685 N701 2.282 . S
Mn685 O709 2.215 . S
Mn685 O711 2.117 . S
C686 O708 1.234 . S
C686 O709 1.283 . S
C687 O699 1.283 . S
C687 O700 1.236 1_554 S
C688 O710 1.240 . S
C688 O711 1.264 . S
O689 Mn684 2.095 . S
O689 C698 1.250 . S
O690 Mn685 2.121 . S
O690 C698 1.258 . S
C691 N692 1.326 . S
C691 C695 1.460 . S
C691 H697 0.929 . S
N692 Mn685 2.257 . S
N692 C691 1.326 . S
N692 C696 1.362 . S
C693 C694 1.258 . S
C693 C696 1.431 . S
C693 C713 1.449 . S
C694 C693 1.258 . S
C694 C695 1.477 . S
C694 H714 0.931 . S
C695 C691 1.460 . S
C695 C694 1.477 . S
C695 H715 0.930 . S
C696 N692 1.362 . S
C696 C693 1.431 . S
C696 C706 1.476 . S
H697 C691 0.929 . S
C698 O689 1.250 . S
C698 O690 1.258 . S
O699 Mn684 2.145 1_554 S
O699 C687 1.283 . S
O700 Mn684 2.297 . S
O700 C687 1.236 1_556 S
N701 Mn685 2.282 . S
N701 C702 1.328 . S
N701 C706 1.318 . S
C702 N701 1.328 . S
C702 C703 1.457 . S
C702 H707 0.929 . S
C703 C702 1.457 . S
C703 C704 1.291 . S
C703 H716 0.931 . S
C704 C703 1.291 . S
C704 C705 1.373 . S
C704 H717 0.929 . S
C705 C704 1.373 . S
C705 C706 1.396 . S
C705 C712 1.403 . S
C706 C696 1.476 . S
C706 N701 1.318 . S
C706 C705 1.396 . S
H707 C702 0.929 . S
O708 Mn684 2.385 . S
O708 C686 1.234 . S
O709 Mn684 2.209 . S
O709 Mn685 2.215 . S
O709 C686 1.283 . S
O710 Mn684 2.094 . S
O710 C688 1.240 . S
O711 Mn685 2.117 . S
O711 C688 1.264 . S
C712 C705 1.403 . S
C712 C713 1.399 . S
C712 H718 0.929 . S
C713 C693 1.449 . S
C713 C712 1.399 . S
C713 H719 0.930 . S
H714 C694 0.931 . S
H715 C695 0.930 . S
H716 C703 0.931 . S
H717 C704 0.929 . S
H718 C712 0.929 . S
H719 C713 0.930 . S
Mn720 O725 2.095 . S
Mn720 O735 2.162 . S
Mn720 O736 2.297 . S
Mn720 O744 2.385 . S
Mn720 O745 2.209 . S
Mn720 O746 2.094 . S
Mn721 O726 2.121 . S
Mn721 N728 2.257 . S
Mn721 N737 2.282 . S
Mn721 O745 2.215 . S
Mn721 O747 2.117 . S
C722 O744 1.234 . S
C722 O745 1.283 . S
C723 O735 1.281 . S
C723 O736 1.236 . S
C724 O746 1.240 . S
C724 O747 1.264 . S
O725 Mn720 2.095 . S
O725 C734 1.250 . S
O726 Mn721 2.121 . S
O726 C734 1.258 . S
C727 N728 1.326 . S
C727 C731 1.460 . S
C727 H733 0.929 . S
N728 Mn721 2.257 . S
N728 C727 1.326 . S
N728 C732 1.362 . S
C729 C730 1.258 . S
C729 C732 1.431 . S
C729 C749 1.449 . S
C730 C729 1.258 . S
C730 C731 1.477 . S
C730 H750 0.931 . S
C731 C727 1.460 . S
C731 C730 1.477 . S
C731 H751 0.930 . S
C732 N728 1.362 . S
C732 C729 1.431 . S
C732 C742 1.476 . S
H733 C727 0.929 . S
C734 O725 1.250 . S
C734 O726 1.258 . S
O735 Mn720 2.162 . S
O735 C723 1.281 . S
O736 Mn720 2.297 . S
O736 C723 1.236 . S
N737 Mn721 2.282 . S
N737 C738 1.328 . S
N737 C742 1.318 . S
C738 N737 1.328 . S
C738 C739 1.457 1_545 S
C738 H743 0.929 . S
C739 C738 1.457 1_565 S
C739 C740 1.291 . S
C739 H752 0.931 . S
C740 C739 1.291 . S
C740 C741 1.373 1_565 S
C740 H753 0.929 . S
C741 C740 1.373 1_545 S
C741 C742 1.396 . S
C741 C748 1.403 . S
C742 C732 1.476 . S
C742 N737 1.318 . S
C742 C741 1.396 . S
H743 C738 0.929 . S
O744 Mn720 2.385 . S
O744 C722 1.234 . S
O745 Mn720 2.209 . S
O745 Mn721 2.215 . S
O745 C722 1.283 . S
O746 Mn720 2.094 . S
O746 C724 1.240 . S
O747 Mn721 2.117 . S
O747 C724 1.264 . S
C748 C741 1.403 . S
C748 C749 1.399 . S
C748 H754 0.929 1_545 S
C749 C729 1.449 . S
C749 C748 1.399 . S
C749 H755 0.930 . S
H750 C730 0.931 . S
H751 C731 0.930 . S
H752 C739 0.931 . S
H753 C740 0.929 . S
H754 C748 0.929 1_565 S
H755 C749 0.930 . S
Mn756 O761 2.095 . S
Mn756 O771 2.162 . S
Mn756 O772 2.297 . S
Mn756 O780 2.385 . S
Mn756 O781 2.209 . S
Mn756 O782 2.094 . S
Mn757 O762 2.121 . S
Mn757 N764 2.257 . S
Mn757 N773 2.282 . S
Mn757 O781 2.215 . S
Mn757 O783 2.117 . S
C758 O780 1.234 . S
C758 O781 1.283 . S
C759 O771 1.281 . S
C759 O772 1.236 . S
C760 O782 1.240 . S
C760 O783 1.264 . S
O761 Mn756 2.095 . S
O761 C770 1.250 . S
O762 Mn757 2.121 . S
O762 C770 1.258 . S
C763 N764 1.326 . S
C763 C767 1.460 . S
C763 H769 0.929 . S
N764 Mn757 2.257 . S
N764 C763 1.326 . S
N764 C768 1.362 . S
C765 C766 1.258 . S
C765 C768 1.431 . S
C765 C785 1.449 . S
C766 C765 1.258 . S
C766 C767 1.477 . S
C766 H786 0.931 . S
C767 C763 1.460 . S
C767 C766 1.477 . S
C767 H787 0.930 . S
C768 N764 1.362 . S
C768 C765 1.431 . S
C768 C778 1.476 . S
H769 C763 0.929 . S
C770 O761 1.250 . S
C770 O762 1.258 . S
O771 Mn756 2.162 . S
O771 C759 1.281 . S
O772 Mn756 2.297 . S
O772 C759 1.236 . S
N773 Mn757 2.282 . S
N773 C774 1.328 . S
N773 C778 1.318 . S
C774 N773 1.328 . S
C774 C775 1.457 . S
C774 H779 0.929 . S
C775 C774 1.457 . S
C775 C776 1.291 . S
C775 H788 0.931 . S
C776 C775 1.291 . S
C776 C777 1.373 . S
C776 H789 0.929 . S
C777 C776 1.373 . S
C777 C778 1.396 . S
C777 C784 1.403 . S
C778 C768 1.476 . S
C778 N773 1.318 . S
C778 C777 1.396 . S
H779 C774 0.929 . S
O780 Mn756 2.385 . S
O780 C758 1.234 . S
O781 Mn756 2.209 . S
O781 Mn757 2.215 . S
O781 C758 1.283 . S
O782 Mn756 2.094 . S
O782 C760 1.240 . S
O783 Mn757 2.117 . S
O783 C760 1.264 . S
C784 C777 1.403 . S
C784 C785 1.399 . S
C784 H790 0.929 . S
C785 C765 1.449 . S
C785 C784 1.399 . S
C785 H791 0.930 . S
H786 C766 0.931 . S
H787 C767 0.930 . S
H788 C775 0.931 . S
H789 C776 0.929 . S
H790 C784 0.929 . S
H791 C785 0.930 . S
Mn792 O797 2.095 . S
Mn792 O807 2.162 . S
Mn792 O808 2.297 . S
Mn792 O816 2.385 . S
Mn792 O817 2.209 . S
Mn792 O818 2.094 . S
Mn793 O798 2.121 . S
Mn793 N800 2.257 1_655 S
Mn793 N809 2.282 1_655 S
Mn793 O817 2.215 . S
Mn793 O819 2.117 . S
C794 O816 1.234 . S
C794 O817 1.283 . S
C795 O807 1.281 . S
C795 O808 1.236 . S
C796 O818 1.240 . S
C796 O819 1.264 . S
O797 Mn792 2.095 . S
O797 C806 1.250 . S
O798 Mn793 2.121 . S
O798 C806 1.258 . S
C799 N800 1.326 . S
C799 C803 1.460 . S
C799 H805 0.929 . S
N800 Mn793 2.257 1_455 S
N800 C799 1.326 . S
N800 C804 1.362 . S
C801 C802 1.258 . S
C801 C804 1.431 . S
C801 C821 1.449 . S
C802 C801 1.258 . S
C802 C803 1.477 . S
C802 H822 0.931 . S
C803 C799 1.460 . S
C803 C802 1.477 . S
C803 H823 0.930 . S
C804 N800 1.362 . S
C804 C801 1.431 . S
C804 C814 1.476 . S
H805 C799 0.929 . S
C806 O797 1.250 . S
C806 O798 1.258 . S
O807 Mn792 2.162 . S
O807 C795 1.281 . S
O808 Mn792 2.297 . S
O808 C795 1.236 . S
N809 Mn793 2.282 1_455 S
N809 C810 1.328 . S
N809 C814 1.318 . S
C810 N809 1.328 . S
C810 C811 1.457 1_565 S
C810 H815 0.929 1_455 S
C811 C810 1.457 1_545 S
C811 C812 1.291 . S
C811 H824 0.931 . S
C812 C811 1.291 . S
C812 C813 1.373 1_545 S
C812 H825 0.929 . S
C813 C812 1.373 1_565 S
C813 C814 1.396 . S
C813 C820 1.403 . S
C814 C804 1.476 . S
C814 N809 1.318 . S
C814 C813 1.396 . S
H815 C810 0.929 1_655 S
O816 Mn792 2.385 . S
O816 C794 1.234 . S
O817 Mn792 2.209 . S
O817 Mn793 2.215 . S
O817 C794 1.283 . S
O818 Mn792 2.094 . S
O818 C796 1.240 . S
O819 Mn793 2.117 . S
O819 C796 1.264 . S
C820 C813 1.403 . S
C820 C821 1.399 . S
C820 H826 0.922 1_565 S
C821 C801 1.449 . S
C821 C820 1.399 . S
C821 H827 0.930 . S
H822 C802 0.931 . S
H823 C803 0.930 . S
H824 C811 0.931 . S
H825 C812 0.929 . S
H826 C820 0.922 1_545 S
H827 C821 0.930 . S
Mn828 O833 2.095 . S
Mn828 O843 2.162 . S
Mn828 O844 2.297 . S
Mn828 O852 2.385 . S
Mn828 O853 2.209 . S
Mn828 O854 2.094 . S
Mn829 O834 2.121 . S
Mn829 N836 2.257 . S
Mn829 N845 2.282 . S
Mn829 O853 2.215 . S
Mn829 O855 2.117 . S
C830 O852 1.234 . S
C830 O853 1.283 . S
C831 O843 1.281 . S
C831 O844 1.236 . S
C832 O854 1.240 . S
C832 O855 1.264 . S
O833 Mn828 2.095 . S
O833 C842 1.250 . S
O834 Mn829 2.121 . S
O834 C842 1.258 . S
C835 N836 1.326 . S
C835 C839 1.460 . S
C835 H841 0.929 . S
N836 Mn829 2.257 . S
N836 C835 1.326 . S
N836 C840 1.362 . S
C837 C838 1.258 . S
C837 C840 1.431 . S
C837 C857 1.449 . S
C838 C837 1.258 . S
C838 C839 1.477 . S
C838 H858 0.931 . S
C839 C835 1.460 . S
C839 C838 1.477 . S
C839 H859 0.930 . S
C840 N836 1.362 . S
C840 C837 1.431 . S
C840 C850 1.476 . S
H841 C835 0.929 . S
C842 O833 1.250 . S
C842 O834 1.258 . S
O843 Mn828 2.162 . S
O843 C831 1.281 . S
O844 Mn828 2.297 . S
O844 C831 1.236 . S
N845 Mn829 2.282 . S
N845 C846 1.328 . S
N845 C850 1.318 . S
C846 N845 1.328 . S
C846 C847 1.457 . S
C846 H851 0.929 . S
C847 C846 1.457 . S
C847 C848 1.291 . S
C847 H860 0.931 . S
C848 C847 1.291 . S
C848 C849 1.373 . S
C848 H861 0.929 . S
C849 C848 1.373 . S
C849 C850 1.396 . S
C849 C856 1.403 . S
C850 C840 1.476 . S
C850 N845 1.318 . S
C850 C849 1.396 . S
H851 C846 0.929 . S
O852 Mn828 2.385 . S
O852 C830 1.234 . S
O853 Mn828 2.209 . S
O853 Mn829 2.215 . S
O853 C830 1.283 . S
O854 Mn828 2.094 . S
O854 C832 1.240 . S
O855 Mn829 2.117 . S
O855 C832 1.264 . S
C856 C849 1.403 . S
C856 C857 1.399 . S
C856 H862 0.929 . S
C857 C837 1.449 . S
C857 C856 1.399 . S
C857 H863 0.930 . S
H858 C838 0.931 . S
H859 C839 0.930 . S
H860 C847 0.931 . S
H861 C848 0.929 . S
H862 C856 0.929 . S
H863 C857 0.930 . S
Mn864 O869 2.095 . S
Mn864 O879 2.162 . S
Mn864 O880 2.297 . S
Mn864 O888 2.385 . S
Mn864 O889 2.209 . S
Mn864 O890 2.094 . S
Mn865 O870 2.121 1_565 S
Mn865 N872 2.257 . S
Mn865 N881 2.282 . S
Mn865 O889 2.215 . S
Mn865 O891 2.117 . S
C866 O888 1.234 . S
C866 O889 1.283 . S
C867 O879 1.281 . S
C867 O880 1.236 . S
C868 O890 1.240 . S
C868 O891 1.264 . S
O869 Mn864 2.095 . S
O869 C878 1.250 1_565 S
O870 Mn865 2.121 1_545 S
O870 C878 1.258 . S
C871 N872 1.326 1_545 S
C871 C875 1.460 . S
C871 H877 0.929 . S
N872 Mn865 2.257 . S
N872 C871 1.326 1_565 S
N872 C876 1.362 . S
C873 C874 1.244 1_565 S
C873 C876 1.438 . S
C873 C893 1.456 . S
C874 C873 1.244 1_545 S
C874 C875 1.477 . S
C874 H894 0.931 . S
C875 C871 1.460 . S
C875 C874 1.477 . S
C875 H895 0.930 . S
C876 N872 1.362 . S
C876 C873 1.438 . S
C876 C886 1.476 . S
H877 C871 0.929 . S
C878 O869 1.250 1_545 S
C878 O870 1.258 . S
O879 Mn864 2.162 . S
O879 C867 1.281 . S
O880 Mn864 2.297 . S
O880 C867 1.236 . S
N881 Mn865 2.282 . S
N881 C882 1.328 . S
N881 C886 1.318 . S
C882 N881 1.328 . S
C882 C883 1.457 . S
C882 H887 0.929 . S
C883 C882 1.457 . S
C883 C884 1.291 . S
C883 H896 0.931 . S
C884 C883 1.291 . S
C884 C885 1.373 . S
C884 H897 0.929 . S
C885 C884 1.373 . S
C885 C886 1.396 . S
C885 C892 1.403 . S
C886 C876 1.476 . S
C886 N881 1.318 . S
C886 C885 1.396 . S
H887 C882 0.929 . S
O888 Mn864 2.385 . S
O888 C866 1.234 . S
O889 Mn864 2.209 . S
O889 Mn865 2.215 . S
O889 C866 1.283 . S
O890 Mn864 2.094 . S
O890 C868 1.240 . S
O891 Mn865 2.117 . S
O891 C868 1.264 . S
C892 C885 1.403 . S
C892 C893 1.399 . S
C892 H898 0.929 . S
C893 C873 1.456 . S
C893 C892 1.399 . S
C893 H899 0.930 . S
H894 C874 0.931 . S
H895 C875 0.930 . S
H896 C883 0.931 . S
H897 C884 0.929 . S
H898 C892 0.929 . S
H899 C893 0.930 . S
Mn900 O905 2.095 . S
Mn900 O915 2.162 . S
Mn900 O916 2.297 . S
Mn900 O924 2.385 . S
Mn900 O925 2.209 . S
Mn900 O926 2.094 . S
Mn901 O906 2.121 1_545 S
Mn901 N908 2.257 . S
Mn901 N917 2.282 . S
Mn901 O925 2.215 . S
Mn901 O927 2.117 . S
C902 O924 1.234 . S
C902 O925 1.283 . S
C903 O915 1.281 . S
C903 O916 1.236 . S
C904 O926 1.240 . S
C904 O927 1.264 . S
O905 Mn900 2.095 . S
O905 C914 1.250 1_545 S
O906 Mn901 2.121 1_565 S
O906 C914 1.258 . S
C907 N908 1.326 1_565 S
C907 C911 1.460 . S
C907 H913 0.929 . S
N908 Mn901 2.257 . S
N908 C907 1.326 1_545 S
N908 C912 1.362 . S
C909 C910 1.245 1_545 S
C909 C912 1.438 . S
C909 C929 1.456 . S
C910 C909 1.245 1_565 S
C910 C911 1.477 . S
C910 H930 0.931 . S
C911 C907 1.460 . S
C911 C910 1.477 . S
C911 H931 0.930 . S
C912 N908 1.362 . S
C912 C909 1.438 . S
C912 C922 1.476 . S
H913 C907 0.929 . S
C914 O905 1.250 1_565 S
C914 O906 1.258 . S
O915 Mn900 2.162 . S
O915 C903 1.281 . S
O916 Mn900 2.297 . S
O916 C903 1.236 . S
N917 Mn901 2.282 . S
N917 C918 1.328 . S
N917 C922 1.318 . S
C918 N917 1.328 . S
C918 C919 1.457 . S
C918 H923 0.929 . S
C919 C918 1.457 . S
C919 C920 1.291 . S
C919 H932 0.931 . S
C920 C919 1.291 . S
C920 C921 1.373 . S
C920 H933 0.929 . S
C921 C920 1.373 . S
C921 C922 1.396 . S
C921 C928 1.403 . S
C922 C912 1.476 . S
C922 N917 1.318 . S
C922 C921 1.396 . S
H923 C918 0.929 . S
O924 Mn900 2.385 . S
O924 C902 1.234 . S
O925 Mn900 2.209 . S
O925 Mn901 2.215 . S
O925 C902 1.283 . S
O926 Mn900 2.094 . S
O926 C904 1.240 . S
O927 Mn901 2.117 . S
O927 C904 1.264 . S
C928 C921 1.403 . S
C928 C929 1.399 . S
C928 H934 0.929 . S
C929 C909 1.456 . S
C929 C928 1.399 . S
C929 H935 0.930 . S
H930 C910 0.931 . S
H931 C911 0.930 . S
H932 C919 0.931 . S
H933 C920 0.929 . S
H934 C928 0.929 . S
H935 C929 0.930 . S
Mn936 O941 2.095 . S
Mn936 O951 2.162 . S
Mn936 O952 2.297 . S
Mn936 O960 2.385 . S
Mn936 O961 2.209 . S
Mn936 O962 2.094 . S
Mn937 O942 2.121 1_565 S
Mn937 N944 2.262 . S
Mn937 N953 2.282 . S
Mn937 O961 2.215 . S
Mn937 O963 2.117 . S
C938 O960 1.234 . S
C938 O961 1.283 . S
C939 O951 1.281 . S
C939 O952 1.236 . S
C940 O962 1.240 . S
C940 O963 1.264 . S
O941 Mn936 2.095 . S
O941 C950 1.250 1_565 S
O942 Mn937 2.121 1_545 S
O942 C950 1.258 . S
C943 N944 1.317 1_545 S
C943 C947 1.460 . S
C943 H949 0.929 . S
N944 Mn937 2.262 . S
N944 C943 1.317 1_565 S
N944 C948 1.367 . S
C945 C946 1.258 . S
C945 C948 1.431 1_545 S
C945 C965 1.449 1_545 S
C946 C945 1.258 . S
C946 C947 1.477 . S
C946 H966 0.931 . S
C947 C943 1.460 . S
C947 C946 1.477 . S
C947 H967 0.930 . S
C948 N944 1.367 . S
C948 C945 1.431 1_565 S
C948 C958 1.476 . S
H949 C943 0.929 . S
C950 O941 1.250 1_545 S
C950 O942 1.258 . S
O951 Mn936 2.162 . S
O951 C939 1.281 . S
O952 Mn936 2.297 . S
O952 C939 1.236 . S
N953 Mn937 2.282 . S
N953 C954 1.328 . S
N953 C958 1.318 . S
C954 N953 1.328 . S
C954 C955 1.457 . S
C954 H959 0.929 . S
C955 C954 1.457 . S
C955 C956 1.291 . S
C955 H968 0.931 . S
C956 C955 1.291 . S
C956 C957 1.373 . S
C956 H969 0.929 . S
C957 C956 1.373 . S
C957 C958 1.396 . S
C957 C964 1.403 . S
C958 C948 1.476 . S
C958 N953 1.318 . S
C958 C957 1.396 . S
H959 C954 0.929 . S
O960 Mn936 2.385 . S
O960 C938 1.234 . S
O961 Mn936 2.209 . S
O961 Mn937 2.215 . S
O961 C938 1.283 . S
O962 Mn936 2.094 . S
O962 C940 1.240 . S
O963 Mn937 2.117 . S
O963 C940 1.264 . S
C964 C957 1.403 . S
C964 C965 1.399 . S
C964 H970 0.929 . S
C965 C945 1.449 1_565 S
C965 C964 1.399 . S
C965 H971 0.930 . S
H966 C946 0.931 . S
H967 C947 0.930 . S
H968 C955 0.931 . S
H969 C956 0.929 . S
H970 C964 0.929 . S
H971 C965 0.930 . S
Mn972 O977 2.095 . S
Mn972 O987 2.162 . S
Mn972 O988 2.297 . S
Mn972 O996 2.385 . S
Mn972 O997 2.209 . S
Mn972 O998 2.094 . S
Mn973 O978 2.121 . S
Mn973 N980 2.257 . S
Mn973 N989 2.282 . S
Mn973 O997 2.215 . S
Mn973 O999 2.117 . S
C974 O996 1.234 . S
C974 O997 1.283 . S
C975 O987 1.281 . S
C975 O988 1.236 . S
C976 O998 1.240 . S
C976 O999 1.264 . S
O977 Mn972 2.095 . S
O977 C986 1.250 . S
O978 Mn973 2.121 . S
O978 C986 1.258 . S
C979 N980 1.326 . S
C979 C983 1.460 . S
C979 H985 0.929 . S
N980 Mn973 2.257 . S
N980 C979 1.326 . S
N980 C984 1.362 . S
C981 C982 1.258 . S
C981 C984 1.431 . S
C981 C1001 1.449 . S
C982 C981 1.258 . S
C982 C983 1.477 . S
C982 H1002 0.931 . S
C983 C979 1.460 . S
C983 C982 1.477 . S
C983 H1003 0.930 . S
C984 N980 1.362 . S
C984 C981 1.431 . S
C984 C994 1.476 . S
H985 C979 0.929 . S
C986 O977 1.250 . S
C986 O978 1.258 . S
O987 Mn972 2.162 . S
O987 C975 1.281 . S
O988 Mn972 2.297 . S
O988 C975 1.236 . S
N989 Mn973 2.282 . S
N989 C990 1.328 . S
N989 C994 1.318 . S
C990 N989 1.328 . S
C990 C991 1.457 . S
C990 H995 0.929 . S
C991 C990 1.457 . S
C991 C992 1.291 . S
C991 H1004 0.931 . S
C992 C991 1.291 . S
C992 C993 1.373 . S
C992 H1005 0.929 . S
C993 C992 1.373 . S
C993 C994 1.396 . S
C993 C1000 1.403 . S
C994 C984 1.476 . S
C994 N989 1.318 . S
C994 C993 1.396 . S
H995 C990 0.929 . S
O996 Mn972 2.385 . S
O996 C974 1.234 . S
O997 Mn972 2.209 . S
O997 Mn973 2.215 . S
O997 C974 1.283 . S
O998 Mn972 2.094 . S
O998 C976 1.240 . S
O999 Mn973 2.117 . S
O999 C976 1.264 . S
C1000 C993 1.403 . S
C1000 C1001 1.399 . S
C1000 H1006 0.929 . S
C1001 C981 1.449 . S
C1001 C1000 1.399 . S
C1001 H1007 0.930 . S
H1002 C982 0.931 . S
H1003 C983 0.930 . S
H1004 C991 0.931 . S
H1005 C992 0.929 . S
H1006 C1000 0.929 . S
H1007 C1001 0.930 . S
Mn1008 O1013 2.095 . S
Mn1008 O1023 2.162 . S
Mn1008 O1024 2.297 . S
Mn1008 O1032 2.385 . S
Mn1008 O1033 2.209 . S
Mn1008 O1034 2.094 . S
Mn1009 O1014 2.121 . S
Mn1009 N1016 2.257 . S
Mn1009 N1025 2.282 . S
Mn1009 O1033 2.215 . S
Mn1009 O1035 2.117 . S
C1010 O1032 1.234 . S
C1010 O1033 1.283 . S
C1011 O1023 1.281 . S
C1011 O1024 1.236 . S
C1012 O1034 1.240 . S
C1012 O1035 1.264 . S
O1013 Mn1008 2.095 . S
O1013 C1022 1.250 . S
O1014 Mn1009 2.121 . S
O1014 C1022 1.258 . S
C1015 N1016 1.326 . S
C1015 C1019 1.460 . S
C1015 H1021 0.929 . S
N1016 Mn1009 2.257 . S
N1016 C1015 1.326 . S
N1016 C1020 1.362 . S
C1017 C1018 1.258 . S
C1017 C1020 1.431 . S
C1017 C1037 1.449 . S
C1018 C1017 1.258 . S
C1018 C1019 1.477 . S
C1018 H1038 0.931 . S
C1019 C1015 1.460 . S
C1019 C1018 1.477 . S
C1019 H1039 0.930 . S
C1020 N1016 1.362 . S
C1020 C1017 1.431 . S
C1020 C1030 1.476 . S
H1021 C1015 0.929 . S
C1022 O1013 1.250 . S
C1022 O1014 1.258 . S
O1023 Mn1008 2.162 . S
O1023 C1011 1.281 . S
O1024 Mn1008 2.297 . S
O1024 C1011 1.236 . S
N1025 Mn1009 2.282 . S
N1025 C1026 1.328 . S
N1025 C1030 1.318 . S
C1026 N1025 1.328 . S
C1026 C1027 1.457 . S
C1026 H1031 0.929 . S
C1027 C1026 1.457 . S
C1027 C1028 1.291 . S
C1027 H1040 0.931 . S
C1028 C1027 1.291 . S
C1028 C1029 1.373 . S
C1028 H1041 0.929 . S
C1029 C1028 1.373 . S
C1029 C1030 1.396 . S
C1029 C1036 1.403 . S
C1030 C1020 1.476 . S
C1030 N1025 1.318 . S
C1030 C1029 1.396 . S
H1031 C1026 0.929 . S
O1032 Mn1008 2.385 . S
O1032 C1010 1.234 . S
O1033 Mn1008 2.209 . S
O1033 Mn1009 2.215 . S
O1033 C1010 1.283 . S
O1034 Mn1008 2.094 . S
O1034 C1012 1.240 . S
O1035 Mn1009 2.117 . S
O1035 C1012 1.264 . S
C1036 C1029 1.403 . S
C1036 C1037 1.399 . S
C1036 H1042 0.929 . S
C1037 C1017 1.449 . S
C1037 C1036 1.399 . S
C1037 H1043 0.930 . S
H1038 C1018 0.931 . S
H1039 C1019 0.930 . S
H1040 C1027 0.931 . S
H1041 C1028 0.929 . S
H1042 C1036 0.929 . S
H1043 C1037 0.930 . S
Mn1044 O1049 2.095 . S
Mn1044 O1059 2.162 . S
Mn1044 O1060 2.297 . S
Mn1044 O1068 2.385 . S
Mn1044 O1069 2.209 . S
Mn1044 O1070 2.094 . S
Mn1045 O1050 2.121 . S
Mn1045 N1052 2.257 . S
Mn1045 N1061 2.282 . S
Mn1045 O1069 2.215 . S
Mn1045 O1071 2.117 . S
C1046 O1068 1.234 . S
C1046 O1069 1.283 . S
C1047 O1059 1.281 . S
C1047 O1060 1.236 . S
C1048 O1070 1.240 . S
C1048 O1071 1.264 . S
O1049 Mn1044 2.095 . S
O1049 C1058 1.250 . S
O1050 Mn1045 2.121 . S
O1050 C1058 1.258 . S
C1051 N1052 1.326 . S
C1051 C1055 1.460 . S
C1051 H1057 0.929 . S
N1052 Mn1045 2.257 . S
N1052 C1051 1.326 . S
N1052 C1056 1.362 . S
C1053 C1054 1.258 . S
C1053 C1056 1.431 . S
C1053 C1073 1.449 . S
C1054 C1053 1.258 . S
C1054 C1055 1.477 . S
C1054 H1074 0.931 . S
C1055 C1051 1.460 . S
C1055 C1054 1.477 . S
C1055 H1075 0.930 . S
C1056 N1052 1.362 . S
C1056 C1053 1.431 . S
C1056 C1066 1.476 . S
H1057 C1051 0.929 . S
C1058 O1049 1.250 . S
C1058 O1050 1.258 . S
O1059 Mn1044 2.162 . S
O1059 C1047 1.281 . S
O1060 Mn1044 2.297 . S
O1060 C1047 1.236 . S
N1061 Mn1045 2.282 . S
N1061 C1062 1.328 . S
N1061 C1066 1.318 . S
C1062 N1061 1.328 . S
C1062 C1063 1.457 . S
C1062 H1067 0.929 . S
C1063 C1062 1.457 . S
C1063 C1064 1.291 . S
C1063 H1076 0.931 . S
C1064 C1063 1.291 . S
C1064 C1065 1.373 . S
C1064 H1077 0.929 . S
C1065 C1064 1.373 . S
C1065 C1066 1.396 . S
C1065 C1072 1.403 . S
C1066 C1056 1.476 . S
C1066 N1061 1.318 . S
C1066 C1065 1.396 . S
H1067 C1062 0.929 . S
O1068 Mn1044 2.385 . S
O1068 C1046 1.234 . S
O1069 Mn1044 2.209 . S
O1069 Mn1045 2.215 . S
O1069 C1046 1.283 . S
O1070 Mn1044 2.094 . S
O1070 C1048 1.240 . S
O1071 Mn1045 2.117 . S
O1071 C1048 1.264 . S
C1072 C1065 1.403 . S
C1072 C1073 1.399 . S
C1072 H1078 0.929 . S
C1073 C1053 1.449 . S
C1073 C1072 1.399 . S
C1073 H1079 0.930 . S
H1074 C1054 0.931 . S
H1075 C1055 0.930 . S
H1076 C1063 0.931 . S
H1077 C1064 0.929 . S
H1078 C1072 0.929 . S
H1079 C1073 0.930 . S
Mn1080 O1085 2.095 . S
Mn1080 O1095 2.162 . S
Mn1080 O1096 2.297 . S
Mn1080 O1104 2.385 . S
Mn1080 O1105 2.209 . S
Mn1080 O1106 2.094 . S
Mn1081 O1086 2.121 . S
Mn1081 N1088 2.257 . S
Mn1081 N1097 2.282 . S
Mn1081 O1105 2.215 . S
Mn1081 O1107 2.117 . S
C1082 O1104 1.234 . S
C1082 O1105 1.283 . S
C1083 O1095 1.281 . S
C1083 O1096 1.236 . S
C1084 O1106 1.240 . S
C1084 O1107 1.264 . S
O1085 Mn1080 2.095 . S
O1085 C1094 1.250 . S
O1086 Mn1081 2.121 . S
O1086 C1094 1.258 . S
C1087 N1088 1.326 . S
C1087 C1091 1.460 . S
C1087 H1093 0.929 . S
N1088 Mn1081 2.257 . S
N1088 C1087 1.326 . S
N1088 C1092 1.362 . S
C1089 C1090 1.258 . S
C1089 C1092 1.431 . S
C1089 C1109 1.449 . S
C1090 C1089 1.258 . S
C1090 C1091 1.477 . S
C1090 H1110 0.931 . S
C1091 C1087 1.460 . S
C1091 C1090 1.477 . S
C1091 H1111 0.930 . S
C1092 N1088 1.362 . S
C1092 C1089 1.431 . S
C1092 C1102 1.476 . S
H1093 C1087 0.929 . S
C1094 O1085 1.250 . S
C1094 O1086 1.258 . S
O1095 Mn1080 2.162 . S
O1095 C1083 1.281 . S
O1096 Mn1080 2.297 . S
O1096 C1083 1.236 . S
N1097 Mn1081 2.282 . S
N1097 C1098 1.328 . S
N1097 C1102 1.318 . S
C1098 N1097 1.328 . S
C1098 C1099 1.457 . S
C1098 H1103 0.929 . S
C1099 C1098 1.457 . S
C1099 C1100 1.291 . S
C1099 H1112 0.931 . S
C1100 C1099 1.291 . S
C1100 C1101 1.373 . S
C1100 H1113 0.929 . S
C1101 C1100 1.373 . S
C1101 C1102 1.396 . S
C1101 C1108 1.403 . S
C1102 C1092 1.476 . S
C1102 N1097 1.318 . S
C1102 C1101 1.396 . S
H1103 C1098 0.929 . S
O1104 Mn1080 2.385 . S
O1104 C1082 1.234 . S
O1105 Mn1080 2.209 . S
O1105 Mn1081 2.215 . S
O1105 C1082 1.283 . S
O1106 Mn1080 2.094 . S
O1106 C1084 1.240 . S
O1107 Mn1081 2.117 . S
O1107 C1084 1.264 . S
C1108 C1101 1.403 . S
C1108 C1109 1.399 . S
C1108 H1114 0.929 . S
C1109 C1089 1.449 . S
C1109 C1108 1.399 . S
C1109 H1115 0.930 . S
H1110 C1090 0.931 . S
H1111 C1091 0.930 . S
H1112 C1099 0.931 . S
H1113 C1100 0.929 . S
H1114 C1108 0.929 . S
H1115 C1109 0.930 . S
Mn1116 O1121 2.095 . S
Mn1116 O1131 2.162 . S
Mn1116 O1132 2.297 . S
Mn1116 O1140 2.385 . S
Mn1116 O1141 2.209 . S
Mn1116 O1142 2.094 . S
Mn1117 O1122 2.121 . S
Mn1117 N1124 2.257 . S
Mn1117 N1133 2.282 . S
Mn1117 O1141 2.215 . S
Mn1117 O1143 2.117 . S
C1118 O1140 1.234 . S
C1118 O1141 1.283 . S
C1119 O1131 1.281 . S
C1119 O1132 1.236 . S
C1120 O1142 1.240 . S
C1120 O1143 1.264 . S
O1121 Mn1116 2.095 . S
O1121 C1130 1.250 . S
O1122 Mn1117 2.121 . S
O1122 C1130 1.258 . S
C1123 N1124 1.327 1_556 S
C1123 C1127 1.458 . S
C1123 H1129 0.931 1_556 S
N1124 Mn1117 2.257 . S
N1124 C1123 1.327 1_554 S
N1124 C1128 1.362 1_554 S
C1125 C1126 1.258 . S
C1125 C1128 1.431 . S
C1125 C1145 1.449 . S
C1126 C1125 1.258 . S
C1126 C1127 1.477 . S
C1126 H1146 0.931 . S
C1127 C1123 1.458 . S
C1127 C1126 1.477 . S
C1127 H1147 0.930 . S
C1128 N1124 1.362 1_556 S
C1128 C1125 1.431 . S
C1128 C1138 1.476 . S
H1129 C1123 0.931 1_554 S
C1130 O1121 1.250 . S
C1130 O1122 1.258 . S
O1131 Mn1116 2.162 . S
O1131 C1119 1.281 . S
O1132 Mn1116 2.297 . S
O1132 C1119 1.236 . S
N1133 Mn1117 2.282 . S
N1133 C1134 1.328 . S
N1133 C1138 1.318 1_554 S
C1134 N1133 1.328 . S
C1134 C1135 1.457 . S
C1134 H1139 0.929 . S
C1135 C1134 1.457 . S
C1135 C1136 1.291 1_554 S
C1135 H1148 0.931 . S
C1136 C1135 1.291 1_556 S
C1136 C1137 1.373 . S
C1136 H1149 0.929 . S
C1137 C1136 1.373 . S
C1137 C1138 1.396 . S
C1137 C1144 1.403 . S
C1138 C1128 1.476 . S
C1138 N1133 1.318 1_556 S
C1138 C1137 1.396 . S
H1139 C1134 0.929 . S
O1140 Mn1116 2.385 . S
O1140 C1118 1.234 . S
O1141 Mn1116 2.209 . S
O1141 Mn1117 2.215 . S
O1141 C1118 1.283 . S
O1142 Mn1116 2.094 . S
O1142 C1120 1.240 . S
O1143 Mn1117 2.117 . S
O1143 C1120 1.264 . S
C1144 C1137 1.403 . S
C1144 C1145 1.399 . S
C1144 H1150 0.929 . S
C1145 C1125 1.449 . S
C1145 C1144 1.399 . S
C1145 H1151 0.930 . S
H1146 C1126 0.931 . S
H1147 C1127 0.930 . S
H1148 C1135 0.931 . S
H1149 C1136 0.929 . S
H1150 C1144 0.929 . S
H1151 C1145 0.930 . S
Mn1152 O1157 2.095 . S
Mn1152 O1167 2.162 . S
Mn1152 O1168 2.297 . S
Mn1152 O1176 2.385 . S
Mn1152 O1177 2.209 . S
Mn1152 O1178 2.094 . S
Mn1153 O1158 2.121 . S
Mn1153 N1160 2.257 . S
Mn1153 N1169 2.282 . S
Mn1153 O1177 2.215 . S
Mn1153 O1179 2.117 . S
C1154 O1176 1.234 . S
C1154 O1177 1.283 . S
C1155 O1167 1.281 . S
C1155 O1168 1.236 . S
C1156 O1178 1.240 . S
C1156 O1179 1.264 . S
O1157 Mn1152 2.095 . S
O1157 C1166 1.250 . S
O1158 Mn1153 2.121 . S
O1158 C1166 1.258 . S
C1159 N1160 1.326 . S
C1159 C1163 1.460 . S
C1159 H1165 0.929 . S
N1160 Mn1153 2.257 . S
N1160 C1159 1.326 . S
N1160 C1164 1.362 . S
C1161 C1162 1.258 . S
C1161 C1164 1.431 . S
C1161 C1181 1.449 1_655 S
C1162 C1161 1.258 . S
C1162 C1163 1.477 . S
C1162 H1182 0.931 . S
C1163 C1159 1.460 . S
C1163 C1162 1.477 . S
C1163 H1183 0.930 . S
C1164 N1160 1.362 . S
C1164 C1161 1.431 . S
C1164 C1174 1.476 . S
H1165 C1159 0.929 . S
C1166 O1157 1.250 . S
C1166 O1158 1.258 . S
O1167 Mn1152 2.162 . S
O1167 C1155 1.281 . S
O1168 Mn1152 2.297 . S
O1168 C1155 1.236 . S
N1169 Mn1153 2.282 . S
N1169 C1170 1.328 . S
N1169 C1174 1.318 . S
C1170 N1169 1.328 . S
C1170 C1171 1.457 1_655 S
C1170 H1175 0.929 . S
C1171 C1170 1.457 1_455 S
C1171 C1172 1.291 . S
C1171 H1184 0.931 . S
C1172 C1171 1.291 . S
C1172 C1173 1.373 . S
C1172 H1185 0.929 . S
C1173 C1172 1.373 . S
C1173 C1174 1.396 1_455 S
C1173 C1180 1.403 . S
C1174 C1164 1.476 . S
C1174 N1169 1.318 . S
C1174 C1173 1.396 1_655 S
H1175 C1170 0.929 . S
O1176 Mn1152 2.385 . S
O1176 C1154 1.234 . S
O1177 Mn1152 2.209 . S
O1177 Mn1153 2.215 . S
O1177 C1154 1.283 . S
O1178 Mn1152 2.094 . S
O1178 C1156 1.240 . S
O1179 Mn1153 2.117 . S
O1179 C1156 1.264 . S
C1180 C1173 1.403 . S
C1180 C1181 1.399 . S
C1180 H1186 0.929 . S
C1181 C1161 1.449 1_455 S
C1181 C1180 1.399 . S
C1181 H1187 0.930 . S
H1182 C1162 0.931 . S
H1183 C1163 0.930 . S
H1184 C1171 0.931 . S
H1185 C1172 0.929 . S
H1186 C1180 0.929 . S
H1187 C1181 0.930 . S
Mn1188 O1193 2.095 . S
Mn1188 O1203 2.162 . S
Mn1188 O1204 2.297 . S
Mn1188 O1212 2.385 . S
Mn1188 O1213 2.209 . S
Mn1188 O1214 2.094 . S
Mn1189 O1194 2.121 . S
Mn1189 N1196 2.257 . S
Mn1189 N1205 2.282 . S
Mn1189 O1213 2.215 . S
Mn1189 O1215 2.117 . S
C1190 O1212 1.234 . S
C1190 O1213 1.283 . S
C1191 O1203 1.281 . S
C1191 O1204 1.236 . S
C1192 O1214 1.240 . S
C1192 O1215 1.264 . S
O1193 Mn1188 2.095 . S
O1193 C1202 1.250 . S
O1194 Mn1189 2.121 . S
O1194 C1202 1.258 . S
C1195 N1196 1.326 . S
C1195 C1199 1.460 . S
C1195 H1201 0.929 . S
N1196 Mn1189 2.257 . S
N1196 C1195 1.326 . S
N1196 C1200 1.362 . S
C1197 C1198 1.258 . S
C1197 C1200 1.431 . S
C1197 C1217 1.449 . S
C1198 C1197 1.258 . S
C1198 C1199 1.477 . S
C1198 H1218 0.931 . S
C1199 C1195 1.460 . S
C1199 C1198 1.477 . S
C1199 H1219 0.930 . S
C1200 N1196 1.362 . S
C1200 C1197 1.431 . S
C1200 C1210 1.476 . S
H1201 C1195 0.929 . S
C1202 O1193 1.250 . S
C1202 O1194 1.258 . S
O1203 Mn1188 2.162 . S
O1203 C1191 1.281 . S
O1204 Mn1188 2.297 . S
O1204 C1191 1.236 . S
N1205 Mn1189 2.282 . S
N1205 C1206 1.328 . S
N1205 C1210 1.318 . S
C1206 N1205 1.328 . S
C1206 C1207 1.457 . S
C1206 H1211 0.929 . S
C1207 C1206 1.457 . S
C1207 C1208 1.291 . S
C1207 H1220 0.931 . S
C1208 C1207 1.291 . S
C1208 C1209 1.373 . S
C1208 H1221 0.929 . S
C1209 C1208 1.373 . S
C1209 C1210 1.396 . S
C1209 C1216 1.403 . S
C1210 C1200 1.476 . S
C1210 N1205 1.318 . S
C1210 C1209 1.396 . S
H1211 C1206 0.929 . S
O1212 Mn1188 2.385 . S
O1212 C1190 1.234 . S
O1213 Mn1188 2.209 . S
O1213 Mn1189 2.215 . S
O1213 C1190 1.283 . S
O1214 Mn1188 2.094 . S
O1214 C1192 1.240 . S
O1215 Mn1189 2.117 . S
O1215 C1192 1.264 . S
C1216 C1209 1.403 . S
C1216 C1217 1.399 . S
C1216 H1222 0.929 . S
C1217 C1197 1.449 . S
C1217 C1216 1.399 . S
C1217 H1223 0.930 . S
H1218 C1198 0.931 . S
H1219 C1199 0.930 . S
H1220 C1207 0.931 . S
H1221 C1208 0.929 . S
H1222 C1216 0.929 . S
H1223 C1217 0.930 . S
Mn1224 O1229 2.095 . S
Mn1224 O1239 2.162 . S
Mn1224 O1240 2.297 . S
Mn1224 O1248 2.385 . S
Mn1224 O1249 2.209 . S
Mn1224 O1250 2.094 . S
Mn1225 O1230 2.121 . S
Mn1225 N1232 2.257 . S
Mn1225 N1241 2.282 . S
Mn1225 O1249 2.215 . S
Mn1225 O1251 2.117 . S
C1226 O1248 1.234 . S
C1226 O1249 1.283 . S
C1227 O1239 1.281 . S
C1227 O1240 1.236 . S
C1228 O1250 1.240 . S
C1228 O1251 1.264 . S
O1229 Mn1224 2.095 . S
O1229 C1238 1.250 . S
O1230 Mn1225 2.121 . S
O1230 C1238 1.258 . S
C1231 N1232 1.326 . S
C1231 C1235 1.460 . S
C1231 H1237 0.929 . S
N1232 Mn1225 2.257 . S
N1232 C1231 1.326 . S
N1232 C1236 1.362 . S
C1233 C1234 1.258 . S
C1233 C1236 1.431 . S
C1233 C1253 1.449 . S
C1234 C1233 1.258 . S
C1234 C1235 1.477 . S
C1234 H1254 0.931 . S
C1235 C1231 1.460 . S
C1235 C1234 1.477 . S
C1235 H1255 0.930 . S
C1236 N1232 1.362 . S
C1236 C1233 1.431 . S
C1236 C1246 1.476 . S
H1237 C1231 0.929 . S
C1238 O1229 1.250 . S
C1238 O1230 1.258 . S
O1239 Mn1224 2.162 . S
O1239 C1227 1.281 . S
O1240 Mn1224 2.297 . S
O1240 C1227 1.236 . S
N1241 Mn1225 2.282 . S
N1241 C1242 1.328 . S
N1241 C1246 1.318 . S
C1242 N1241 1.328 . S
C1242 C1243 1.457 . S
C1242 H1247 0.929 . S
C1243 C1242 1.457 . S
C1243 C1244 1.291 . S
C1243 H1256 0.931 . S
C1244 C1243 1.291 . S
C1244 C1245 1.373 . S
C1244 H1257 0.929 . S
C1245 C1244 1.373 . S
C1245 C1246 1.396 . S
C1245 C1252 1.403 . S
C1246 C1236 1.476 . S
C1246 N1241 1.318 . S
C1246 C1245 1.396 . S
H1247 C1242 0.929 . S
O1248 Mn1224 2.385 . S
O1248 C1226 1.234 . S
O1249 Mn1224 2.209 . S
O1249 Mn1225 2.215 . S
O1249 C1226 1.283 . S
O1250 Mn1224 2.094 . S
O1250 C1228 1.240 . S
O1251 Mn1225 2.117 . S
O1251 C1228 1.264 . S
C1252 C1245 1.403 . S
C1252 C1253 1.399 . S
C1252 H1258 0.929 . S
C1253 C1233 1.449 . S
C1253 C1252 1.399 . S
C1253 H1259 0.930 . S
H1254 C1234 0.931 . S
H1255 C1235 0.930 . S
H1256 C1243 0.931 . S
H1257 C1244 0.929 . S
H1258 C1252 0.929 . S
H1259 C1253 0.930 . S
Mn1260 O1265 2.095 . S
Mn1260 O1275 2.162 . S
Mn1260 O1276 2.297 . S
Mn1260 O1284 2.385 . S
Mn1260 O1285 2.209 . S
Mn1260 O1286 2.094 . S
Mn1261 O1266 2.121 . S
Mn1261 N1268 2.257 . S
Mn1261 N1277 2.282 . S
Mn1261 O1285 2.215 . S
Mn1261 O1287 2.117 . S
C1262 O1284 1.234 . S
C1262 O1285 1.283 . S
C1263 O1275 1.281 . S
C1263 O1276 1.236 . S
C1264 O1286 1.240 . S
C1264 O1287 1.264 . S
O1265 Mn1260 2.095 . S
O1265 C1274 1.250 . S
O1266 Mn1261 2.121 . S
O1266 C1274 1.258 . S
C1267 N1268 1.326 . S
C1267 C1271 1.460 . S
C1267 H1273 0.929 . S
N1268 Mn1261 2.257 . S
N1268 C1267 1.326 . S
N1268 C1272 1.362 . S
C1269 C1270 1.258 . S
C1269 C1272 1.431 . S
C1269 C1289 1.449 . S
C1270 C1269 1.258 . S
C1270 C1271 1.477 . S
C1270 H1290 0.931 . S
C1271 C1267 1.460 . S
C1271 C1270 1.477 . S
C1271 H1291 0.939 . S
C1272 N1268 1.362 . S
C1272 C1269 1.431 . S
C1272 C1282 1.476 . S
H1273 C1267 0.929 . S
C1274 O1265 1.250 . S
C1274 O1266 1.258 . S
O1275 Mn1260 2.162 . S
O1275 C1263 1.281 . S
O1276 Mn1260 2.297 . S
O1276 C1263 1.236 . S
N1277 Mn1261 2.282 . S
N1277 C1278 1.328 . S
N1277 C1282 1.318 . S
C1278 N1277 1.328 . S
C1278 C1279 1.457 . S
C1278 H1283 0.929 . S
C1279 C1278 1.457 . S
C1279 C1280 1.291 . S
C1279 H1292 0.931 . S
C1280 C1279 1.291 . S
C1280 C1281 1.373 . S
C1280 H1293 0.929 . S
C1281 C1280 1.373 . S
C1281 C1282 1.396 . S
C1281 C1288 1.403 . S
C1282 C1272 1.476 . S
C1282 N1277 1.318 . S
C1282 C1281 1.396 . S
H1283 C1278 0.929 . S
O1284 Mn1260 2.385 . S
O1284 C1262 1.234 . S
O1285 Mn1260 2.209 . S
O1285 Mn1261 2.215 . S
O1285 C1262 1.283 . S
O1286 Mn1260 2.094 . S
O1286 C1264 1.240 . S
O1287 Mn1261 2.117 . S
O1287 C1264 1.264 . S
C1288 C1281 1.403 . S
C1288 C1289 1.399 . S
C1288 H1294 0.929 . S
C1289 C1269 1.449 . S
C1289 C1288 1.399 . S
C1289 H1295 0.930 . S
H1290 C1270 0.931 . S
H1291 C1271 0.939 . S
H1292 C1279 0.931 . S
H1293 C1280 0.929 . S
H1294 C1288 0.929 . S
H1295 C1289 0.930 . S
Mn1296 O1301 2.095 . S
Mn1296 O1311 2.162 . S
Mn1296 O1312 2.297 . S
Mn1296 O1320 2.385 . S
Mn1296 O1321 2.209 . S
Mn1296 O1322 2.094 . S
Mn1297 O1302 2.121 . S
Mn1297 N1304 2.257 . S
Mn1297 N1313 2.282 . S
Mn1297 O1321 2.215 . S
Mn1297 O1323 2.117 . S
C1298 O1320 1.234 . S
C1298 O1321 1.283 . S
C1299 O1311 1.281 . S
C1299 O1312 1.236 . S
C1300 O1322 1.240 . S
C1300 O1323 1.264 . S
O1301 Mn1296 2.095 . S
O1301 C1310 1.250 . S
O1302 Mn1297 2.121 . S
O1302 C1310 1.258 . S
C1303 N1304 1.326 . S
C1303 C1307 1.460 . S
C1303 H1309 0.929 . S
N1304 Mn1297 2.257 . S
N1304 C1303 1.326 . S
N1304 C1308 1.362 . S
C1305 C1306 1.258 . S
C1305 C1308 1.431 . S
C1305 C1325 1.449 . S
C1306 C1305 1.258 . S
C1306 C1307 1.477 . S
C1306 H1326 0.931 . S
C1307 C1303 1.460 . S
C1307 C1306 1.477 . S
C1307 H1327 0.930 . S
C1308 N1304 1.362 . S
C1308 C1305 1.431 . S
C1308 C1318 1.476 . S
H1309 C1303 0.929 . S
C1310 O1301 1.250 . S
C1310 O1302 1.258 . S
O1311 Mn1296 2.162 . S
O1311 C1299 1.281 . S
O1312 Mn1296 2.297 . S
O1312 C1299 1.236 . S
N1313 Mn1297 2.282 . S
N1313 C1314 1.328 . S
N1313 C1318 1.318 . S
C1314 N1313 1.328 . S
C1314 C1315 1.457 . S
C1314 H1319 0.929 . S
C1315 C1314 1.457 . S
C1315 C1316 1.291 . S
C1315 H1328 0.931 . S
C1316 C1315 1.291 . S
C1316 C1317 1.373 . S
C1316 H1329 0.929 . S
C1317 C1316 1.373 . S
C1317 C1318 1.396 . S
C1317 C1324 1.403 . S
C1318 C1308 1.476 . S
C1318 N1313 1.318 . S
C1318 C1317 1.396 . S
H1319 C1314 0.929 . S
O1320 Mn1296 2.385 . S
O1320 C1298 1.234 . S
O1321 Mn1296 2.209 . S
O1321 Mn1297 2.215 . S
O1321 C1298 1.283 . S
O1322 Mn1296 2.094 . S
O1322 C1300 1.240 . S
O1323 Mn1297 2.117 . S
O1323 C1300 1.264 . S
C1324 C1317 1.403 . S
C1324 C1325 1.399 . S
C1324 H1330 0.929 . S
C1325 C1305 1.449 . S
C1325 C1324 1.399 . S
C1325 H1331 0.930 . S
H1326 C1306 0.931 . S
H1327 C1307 0.930 . S
H1328 C1315 0.931 . S
H1329 C1316 0.929 . S
H1330 C1324 0.929 . S
H1331 C1325 0.930 . S
Mn1332 O1337 2.095 . S
Mn1332 O1347 2.162 . S
Mn1332 O1348 2.297 . S
Mn1332 O1356 2.385 . S
Mn1332 O1357 2.209 . S
Mn1332 O1358 2.094 . S
Mn1333 O1338 2.121 . S
Mn1333 N1340 2.257 . S
Mn1333 N1349 2.282 . S
Mn1333 O1357 2.215 . S
Mn1333 O1359 2.117 . S
C1334 O1356 1.234 . S
C1334 O1357 1.283 . S
C1335 O1347 1.281 . S
C1335 O1348 1.236 . S
C1336 O1358 1.240 . S
C1336 O1359 1.264 . S
O1337 Mn1332 2.095 . S
O1337 C1346 1.250 . S
O1338 Mn1333 2.121 . S
O1338 C1346 1.258 . S
C1339 N1340 1.326 . S
C1339 C1343 1.460 . S
C1339 H1345 0.929 . S
N1340 Mn1333 2.257 . S
N1340 C1339 1.326 . S
N1340 C1344 1.362 . S
C1341 C1342 1.258 . S
C1341 C1344 1.431 . S
C1341 C1361 1.449 . S
C1342 C1341 1.258 . S
C1342 C1343 1.477 . S
C1342 H1362 0.931 . S
C1343 C1339 1.460 . S
C1343 C1342 1.477 . S
C1343 H1363 0.930 . S
C1344 N1340 1.362 . S
C1344 C1341 1.431 . S
C1344 C1354 1.476 . S
H1345 C1339 0.929 . S
C1346 O1337 1.250 . S
C1346 O1338 1.258 . S
O1347 Mn1332 2.162 . S
O1347 C1335 1.281 . S
O1348 Mn1332 2.297 . S
O1348 C1335 1.236 . S
N1349 Mn1333 2.282 . S
N1349 C1350 1.328 . S
N1349 C1354 1.318 . S
C1350 N1349 1.328 . S
C1350 C1351 1.457 . S
C1350 H1355 0.929 . S
C1351 C1350 1.457 . S
C1351 C1352 1.291 . S
C1351 H1364 0.931 . S
C1352 C1351 1.291 . S
C1352 C1353 1.373 . S
C1352 H1365 0.929 . S
C1353 C1352 1.373 . S
C1353 C1354 1.396 . S
C1353 C1360 1.403 . S
C1354 C1344 1.476 . S
C1354 N1349 1.318 . S
C1354 C1353 1.396 . S
H1355 C1350 0.929 . S
O1356 Mn1332 2.385 . S
O1356 C1334 1.234 . S
O1357 Mn1332 2.209 . S
O1357 Mn1333 2.215 . S
O1357 C1334 1.283 . S
O1358 Mn1332 2.094 . S
O1358 C1336 1.240 . S
O1359 Mn1333 2.117 . S
O1359 C1336 1.264 . S
C1360 C1353 1.403 . S
C1360 C1361 1.399 . S
C1360 H1366 0.929 . S
C1361 C1341 1.449 . S
C1361 C1360 1.399 . S
C1361 H1367 0.930 . S
H1362 C1342 0.931 . S
H1363 C1343 0.930 . S
H1364 C1351 0.931 . S
H1365 C1352 0.929 . S
H1366 C1360 0.929 . S
H1367 C1361 0.930 . S
Mn1368 O1373 2.095 . S
Mn1368 O1383 2.162 . S
Mn1368 O1384 2.297 . S
Mn1368 O1392 2.385 . S
Mn1368 O1393 2.209 . S
Mn1368 O1394 2.094 . S
Mn1369 O1374 2.121 . S
Mn1369 N1376 2.257 . S
Mn1369 N1385 2.282 . S
Mn1369 O1393 2.215 . S
Mn1369 O1395 2.117 . S
C1370 O1392 1.234 . S
C1370 O1393 1.283 . S
C1371 O1383 1.281 . S
C1371 O1384 1.236 . S
C1372 O1394 1.240 . S
C1372 O1395 1.264 . S
O1373 Mn1368 2.095 . S
O1373 C1382 1.250 . S
O1374 Mn1369 2.121 . S
O1374 C1382 1.258 . S
C1375 N1376 1.326 . S
C1375 C1379 1.460 . S
C1375 H1381 0.929 . S
N1376 Mn1369 2.257 . S
N1376 C1375 1.326 . S
N1376 C1380 1.362 . S
C1377 C1378 1.258 . S
C1377 C1380 1.431 . S
C1377 C1397 1.449 . S
C1378 C1377 1.258 . S
C1378 C1379 1.477 . S
C1378 H1398 0.931 . S
C1379 C1375 1.460 . S
C1379 C1378 1.477 . S
C1379 H1399 0.930 . S
C1380 N1376 1.362 . S
C1380 C1377 1.431 . S
C1380 C1390 1.476 . S
H1381 C1375 0.929 . S
C1382 O1373 1.250 . S
C1382 O1374 1.258 . S
O1383 Mn1368 2.162 . S
O1383 C1371 1.281 . S
O1384 Mn1368 2.297 . S
O1384 C1371 1.236 . S
N1385 Mn1369 2.282 . S
N1385 C1386 1.328 . S
N1385 C1390 1.318 . S
C1386 N1385 1.328 . S
C1386 C1387 1.457 . S
C1386 H1391 0.929 . S
C1387 C1386 1.457 . S
C1387 C1388 1.291 . S
C1387 H1400 0.931 . S
C1388 C1387 1.291 . S
C1388 C1389 1.373 . S
C1388 H1401 0.929 . S
C1389 C1388 1.373 . S
C1389 C1390 1.396 . S
C1389 C1396 1.403 . S
C1390 C1380 1.476 . S
C1390 N1385 1.318 . S
C1390 C1389 1.396 . S
H1391 C1386 0.929 . S
O1392 Mn1368 2.385 . S
O1392 C1370 1.234 . S
O1393 Mn1368 2.209 . S
O1393 Mn1369 2.215 . S
O1393 C1370 1.283 . S
O1394 Mn1368 2.094 . S
O1394 C1372 1.240 . S
O1395 Mn1369 2.117 . S
O1395 C1372 1.264 . S
C1396 C1389 1.403 . S
C1396 C1397 1.399 . S
C1396 H1402 0.929 . S
C1397 C1377 1.449 . S
C1397 C1396 1.399 . S
C1397 H1403 0.930 . S
H1398 C1378 0.931 . S
H1399 C1379 0.930 . S
H1400 C1387 0.931 . S
H1401 C1388 0.929 . S
H1402 C1396 0.929 . S
H1403 C1397 0.930 . S
Mn1404 O1409 2.095 . S
Mn1404 O1419 2.162 . S
Mn1404 O1420 2.297 . S
Mn1404 O1428 2.385 . S
Mn1404 O1429 2.209 . S
Mn1404 O1430 2.094 . S
Mn1405 O1410 2.121 . S
Mn1405 N1412 2.257 . S
Mn1405 N1421 2.282 . S
Mn1405 O1429 2.215 . S
Mn1405 O1431 2.117 . S
C1406 O1428 1.234 . S
C1406 O1429 1.283 . S
C1407 O1419 1.281 . S
C1407 O1420 1.236 . S
C1408 O1430 1.240 1_556 S
C1408 O1431 1.264 1_556 S
O1409 Mn1404 2.095 . S
O1409 C1418 1.250 . S
O1410 Mn1405 2.121 . S
O1410 C1418 1.258 . S
C1411 N1412 1.326 . S
C1411 C1415 1.460 . S
C1411 H1417 0.929 . S
N1412 Mn1405 2.257 . S
N1412 C1411 1.326 . S
N1412 C1416 1.362 . S
C1413 C1414 1.258 . S
C1413 C1416 1.431 . S
C1413 C1433 1.449 . S
C1414 C1413 1.258 . S
C1414 C1415 1.477 . S
C1414 H1434 0.931 . S
C1415 C1411 1.460 . S
C1415 C1414 1.477 . S
C1415 H1435 0.930 . S
C1416 N1412 1.362 . S
C1416 C1413 1.431 . S
C1416 C1426 1.476 . S
H1417 C1411 0.929 . S
C1418 O1409 1.250 . S
C1418 O1410 1.258 . S
O1419 Mn1404 2.162 . S
O1419 C1407 1.281 . S
O1420 Mn1404 2.297 . S
O1420 C1407 1.236 . S
N1421 Mn1405 2.282 . S
N1421 C1422 1.328 . S
N1421 C1426 1.318 . S
C1422 N1421 1.328 . S
C1422 C1423 1.457 . S
C1422 H1427 0.929 . S
C1423 C1422 1.457 . S
C1423 C1424 1.291 . S
C1423 H1436 0.931 . S
C1424 C1423 1.291 . S
C1424 C1425 1.373 . S
C1424 H1437 0.929 . S
C1425 C1424 1.373 . S
C1425 C1426 1.396 . S
C1425 C1432 1.403 . S
C1426 C1416 1.476 . S
C1426 N1421 1.318 . S
C1426 C1425 1.396 . S
H1427 C1422 0.929 . S
O1428 Mn1404 2.385 . S
O1428 C1406 1.234 . S
O1429 Mn1404 2.209 . S
O1429 Mn1405 2.215 . S
O1429 C1406 1.283 . S
O1430 Mn1404 2.094 . S
O1430 C1408 1.240 1_554 S
O1431 Mn1405 2.117 . S
O1431 C1408 1.264 1_554 S
C1432 C1425 1.403 . S
C1432 C1433 1.399 . S
C1432 H1438 0.929 . S
C1433 C1413 1.449 . S
C1433 C1432 1.399 . S
C1433 H1439 0.930 . S
H1434 C1414 0.931 . S
H1435 C1415 0.930 . S
H1436 C1423 0.931 . S
H1437 C1424 0.929 . S
H1438 C1432 0.929 . S
H1439 C1433 0.930 . S
Mn1440 O1445 2.095 . S
Mn1440 O1455 2.162 . S
Mn1440 O1456 2.297 . S
Mn1440 O1464 2.385 . S
Mn1440 O1465 2.209 . S
Mn1440 O1466 2.094 . S
Mn1441 O1446 2.121 . S
Mn1441 N1448 2.257 . S
Mn1441 N1457 2.282 . S
Mn1441 O1465 2.215 . S
Mn1441 O1467 2.117 . S
C1442 O1464 1.234 . S
C1442 O1465 1.283 . S
C1443 O1455 1.281 . S
C1443 O1456 1.236 . S
C1444 O1466 1.240 . S
C1444 O1467 1.264 . S
O1445 Mn1440 2.095 . S
O1445 C1454 1.250 . S
O1446 Mn1441 2.121 . S
O1446 C1454 1.258 . S
C1447 N1448 1.326 . S
C1447 C1451 1.460 . S
C1447 H1453 0.929 . S
N1448 Mn1441 2.257 . S
N1448 C1447 1.326 . S
N1448 C1452 1.362 . S
C1449 C1450 1.258 . S
C1449 C1452 1.431 . S
C1449 C1469 1.449 . S
C1450 C1449 1.258 . S
C1450 C1451 1.477 . S
C1450 H1470 0.931 . S
C1451 C1447 1.460 . S
C1451 C1450 1.477 . S
C1451 H1471 0.930 . S
C1452 N1448 1.362 . S
C1452 C1449 1.431 . S
C1452 C1462 1.476 . S
H1453 C1447 0.929 . S
C1454 O1445 1.250 . S
C1454 O1446 1.258 . S
O1455 Mn1440 2.162 . S
O1455 C1443 1.281 . S
O1456 Mn1440 2.297 . S
O1456 C1443 1.236 . S
N1457 Mn1441 2.282 . S
N1457 C1458 1.328 . S
N1457 C1462 1.318 . S
C1458 N1457 1.328 . S
C1458 C1459 1.457 . S
C1458 H1463 0.929 . S
C1459 C1458 1.457 . S
C1459 C1460 1.291 . S
C1459 H1472 0.931 . S
C1460 C1459 1.291 . S
C1460 C1461 1.373 . S
C1460 H1473 0.929 . S
C1461 C1460 1.373 . S
C1461 C1462 1.396 . S
C1461 C1468 1.403 . S
C1462 C1452 1.476 . S
C1462 N1457 1.318 . S
C1462 C1461 1.396 . S
H1463 C1458 0.929 . S
O1464 Mn1440 2.385 . S
O1464 C1442 1.234 . S
O1465 Mn1440 2.209 . S
O1465 Mn1441 2.215 . S
O1465 C1442 1.283 . S
O1466 Mn1440 2.094 . S
O1466 C1444 1.240 . S
O1467 Mn1441 2.117 . S
O1467 C1444 1.264 . S
C1468 C1461 1.403 . S
C1468 C1469 1.399 . S
C1468 H1474 0.929 . S
C1469 C1449 1.449 . S
C1469 C1468 1.399 . S
C1469 H1475 0.930 . S
H1470 C1450 0.931 . S
H1471 C1451 0.930 . S
H1472 C1459 0.931 . S
H1473 C1460 0.929 . S
H1474 C1468 0.929 . S
H1475 C1469 0.930 . S
Mn1476 O1481 2.095 . S
Mn1476 O1491 2.162 . S
Mn1476 O1492 2.297 . S
Mn1476 O1500 2.385 . S
Mn1476 O1501 2.209 . S
Mn1476 O1502 2.094 . S
Mn1477 O1482 2.121 . S
Mn1477 N1484 2.257 . S
Mn1477 N1493 2.282 . S
Mn1477 O1501 2.215 . S
Mn1477 O1503 2.117 . S
C1478 O1500 1.234 . S
C1478 O1501 1.283 . S
C1479 O1491 1.281 . S
C1479 O1492 1.236 . S
C1480 O1502 1.240 . S
C1480 O1503 1.264 . S
O1481 Mn1476 2.095 . S
O1481 C1490 1.250 . S
O1482 Mn1477 2.121 . S
O1482 C1490 1.258 . S
C1483 N1484 1.326 . S
C1483 C1487 1.460 . S
C1483 H1489 0.929 . S
N1484 Mn1477 2.257 . S
N1484 C1483 1.326 . S
N1484 C1488 1.362 . S
C1485 C1486 1.258 . S
C1485 C1488 1.431 . S
C1485 C1505 1.449 1_455 S
C1486 C1485 1.258 . S
C1486 C1487 1.477 . S
C1486 H1506 0.931 . S
C1487 C1483 1.460 . S
C1487 C1486 1.477 . S
C1487 H1507 0.930 . S
C1488 N1484 1.362 . S
C1488 C1485 1.431 . S
C1488 C1498 1.476 . S
H1489 C1483 0.929 . S
C1490 O1481 1.250 . S
C1490 O1482 1.258 . S
O1491 Mn1476 2.162 . S
O1491 C1479 1.281 . S
O1492 Mn1476 2.297 . S
O1492 C1479 1.236 . S
N1493 Mn1477 2.282 . S
N1493 C1494 1.328 . S
N1493 C1498 1.318 . S
C1494 N1493 1.328 . S
C1494 C1495 1.457 1_455 S
C1494 H1499 0.929 . S
C1495 C1494 1.457 1_655 S
C1495 C1496 1.291 . S
C1495 H1508 0.931 . S
C1496 C1495 1.291 . S
C1496 C1497 1.373 . S
C1496 H1509 0.929 . S
C1497 C1496 1.373 . S
C1497 C1498 1.396 1_655 S
C1497 C1504 1.403 . S
C1498 C1488 1.476 . S
C1498 N1493 1.318 . S
C1498 C1497 1.396 1_455 S
H1499 C1494 0.929 . S
O1500 Mn1476 2.385 . S
O1500 C1478 1.234 . S
O1501 Mn1476 2.209 . S
O1501 Mn1477 2.215 . S
O1501 C1478 1.283 . S
O1502 Mn1476 2.094 . S
O1502 C1480 1.240 . S
O1503 Mn1477 2.117 . S
O1503 C1480 1.264 . S
C1504 C1497 1.403 . S
C1504 C1505 1.399 . S
C1504 H1510 0.929 . S
C1505 C1485 1.449 1_655 S
C1505 C1504 1.399 . S
C1505 H1511 0.930 . S
H1506 C1486 0.931 . S
H1507 C1487 0.930 . S
H1508 C1495 0.931 . S
H1509 C1496 0.929 . S
H1510 C1504 0.929 . S
H1511 C1505 0.930 . S
Mn1512 O1517 2.095 . S
Mn1512 O1527 2.162 . S
Mn1512 O1528 2.297 . S
Mn1512 O1536 2.385 . S
Mn1512 O1537 2.209 . S
Mn1512 O1538 2.094 . S
Mn1513 O1518 2.121 . S
Mn1513 N1520 2.257 1_455 S
Mn1513 N1529 2.282 1_455 S
Mn1513 O1537 2.215 . S
Mn1513 O1539 2.117 . S
C1514 O1536 1.234 . S
C1514 O1537 1.283 . S
C1515 O1527 1.281 . S
C1515 O1528 1.236 . S
C1516 O1538 1.240 . S
C1516 O1539 1.264 . S
O1517 Mn1512 2.095 . S
O1517 C1526 1.250 . S
O1518 Mn1513 2.121 . S
O1518 C1526 1.258 . S
C1519 N1520 1.326 . S
C1519 C1523 1.460 . S
C1519 H1525 0.929 . S
N1520 Mn1513 2.257 1_655 S
N1520 C1519 1.326 . S
N1520 C1524 1.362 . S
C1521 C1522 1.258 . S
C1521 C1524 1.431 . S
C1521 C1541 1.449 . S
C1522 C1521 1.258 . S
C1522 C1523 1.477 . S
C1522 H1542 0.931 . S
C1523 C1519 1.460 . S
C1523 C1522 1.477 . S
C1523 H1543 0.930 . S
C1524 N1520 1.362 . S
C1524 C1521 1.431 . S
C1524 C1534 1.476 . S
H1525 C1519 0.929 . S
C1526 O1517 1.250 . S
C1526 O1518 1.258 . S
O1527 Mn1512 2.162 . S
O1527 C1515 1.281 . S
O1528 Mn1512 2.297 . S
O1528 C1515 1.236 . S
N1529 Mn1513 2.282 1_655 S
N1529 C1530 1.328 . S
N1529 C1534 1.318 . S
C1530 N1529 1.328 . S
C1530 C1531 1.457 . S
C1530 H1535 0.929 1_655 S
C1531 C1530 1.457 . S
C1531 C1532 1.291 . S
C1531 H1544 0.931 . S
C1532 C1531 1.291 . S
C1532 C1533 1.373 . S
C1532 H1545 0.929 . S
C1533 C1532 1.373 . S
C1533 C1534 1.396 . S
C1533 C1540 1.403 . S
C1534 C1524 1.476 . S
C1534 N1529 1.318 . S
C1534 C1533 1.396 . S
H1535 C1530 0.929 1_455 S
O1536 Mn1512 2.385 . S
O1536 C1514 1.234 . S
O1537 Mn1512 2.209 . S
O1537 Mn1513 2.215 . S
O1537 C1514 1.283 . S
O1538 Mn1512 2.094 . S
O1538 C1516 1.240 . S
O1539 Mn1513 2.117 . S
O1539 C1516 1.264 . S
C1540 C1533 1.403 . S
C1540 C1541 1.399 . S
C1540 H1546 0.929 . S
C1541 C1521 1.449 . S
C1541 C1540 1.399 . S
C1541 H1547 0.930 . S
H1542 C1522 0.931 . S
H1543 C1523 0.930 . S
H1544 C1531 0.931 . S
H1545 C1532 0.929 . S
H1546 C1540 0.929 . S
H1547 C1541 0.930 . S
Mn1548 O1553 2.095 . S
Mn1548 O1563 2.162 . S
Mn1548 O1564 2.297 . S
Mn1548 O1572 2.385 . S
Mn1548 O1573 2.209 . S
Mn1548 O1574 2.094 . S
Mn1549 O1554 2.121 . S
Mn1549 N1556 2.257 . S
Mn1549 N1565 2.282 . S
Mn1549 O1573 2.215 . S
Mn1549 O1575 2.117 . S
C1550 O1572 1.234 . S
C1550 O1573 1.283 . S
C1551 O1563 1.281 . S
C1551 O1564 1.236 . S
C1552 O1574 1.240 . S
C1552 O1575 1.264 . S
O1553 Mn1548 2.095 . S
O1553 C1562 1.250 . S
O1554 Mn1549 2.121 . S
O1554 C1562 1.258 . S
C1555 N1556 1.326 . S
C1555 C1559 1.460 . S
C1555 H1561 0.929 . S
N1556 Mn1549 2.257 . S
N1556 C1555 1.326 . S
N1556 C1560 1.362 . S
C1557 C1558 1.258 . S
C1557 C1560 1.431 . S
C1557 C1577 1.449 . S
C1558 C1557 1.258 . S
C1558 C1559 1.477 . S
C1558 H1578 0.931 . S
C1559 C1555 1.460 . S
C1559 C1558 1.477 . S
C1559 H1579 0.930 . S
C1560 N1556 1.362 . S
C1560 C1557 1.431 . S
C1560 C1570 1.476 . S
H1561 C1555 0.929 . S
C1562 O1553 1.250 . S
C1562 O1554 1.258 . S
O1563 Mn1548 2.162 . S
O1563 C1551 1.281 . S
O1564 Mn1548 2.297 . S
O1564 C1551 1.236 . S
N1565 Mn1549 2.282 . S
N1565 C1566 1.328 . S
N1565 C1570 1.318 . S
C1566 N1565 1.328 . S
C1566 C1567 1.457 . S
C1566 H1571 0.929 . S
C1567 C1566 1.457 . S
C1567 C1568 1.291 . S
C1567 H1580 0.931 . S
C1568 C1567 1.291 . S
C1568 C1569 1.373 . S
C1568 H1581 0.929 . S
C1569 C1568 1.373 . S
C1569 C1570 1.396 . S
C1569 C1576 1.403 . S
C1570 C1560 1.476 . S
C1570 N1565 1.318 . S
C1570 C1569 1.396 . S
H1571 C1566 0.929 . S
O1572 Mn1548 2.385 . S
O1572 C1550 1.234 . S
O1573 Mn1548 2.209 . S
O1573 Mn1549 2.215 . S
O1573 C1550 1.283 . S
O1574 Mn1548 2.094 . S
O1574 C1552 1.240 . S
O1575 Mn1549 2.117 . S
O1575 C1552 1.264 . S
C1576 C1569 1.403 . S
C1576 C1577 1.399 . S
C1576 H1582 0.929 . S
C1577 C1557 1.449 . S
C1577 C1576 1.399 . S
C1577 H1583 0.930 . S
H1578 C1558 0.931 . S
H1579 C1559 0.930 . S
H1580 C1567 0.931 . S
H1581 C1568 0.929 . S
H1582 C1576 0.929 . S
H1583 C1577 0.930 . S
Mn1584 O1589 2.095 . S
Mn1584 O1599 2.162 . S
Mn1584 O1600 2.297 . S
Mn1584 O1608 2.385 . S
Mn1584 O1609 2.209 . S
Mn1584 O1610 2.094 . S
Mn1585 O1590 2.121 . S
Mn1585 N1592 2.257 1_455 S
Mn1585 N1601 2.282 1_455 S
Mn1585 O1609 2.215 . S
Mn1585 O1611 2.117 . S
C1586 O1608 1.234 . S
C1586 O1609 1.283 . S
C1587 O1599 1.281 . S
C1587 O1600 1.236 . S
C1588 O1610 1.240 . S
C1588 O1611 1.264 . S
O1589 Mn1584 2.095 . S
O1589 C1598 1.250 . S
O1590 Mn1585 2.121 . S
O1590 C1598 1.258 . S
C1591 N1592 1.326 . S
C1591 C1595 1.460 . S
C1591 H1597 0.929 . S
N1592 Mn1585 2.257 1_655 S
N1592 C1591 1.326 . S
N1592 C1596 1.362 . S
C1593 C1594 1.258 . S
C1593 C1596 1.431 . S
C1593 C1613 1.449 . S
C1594 C1593 1.258 . S
C1594 C1595 1.477 . S
C1594 H1614 0.931 . S
C1595 C1591 1.460 . S
C1595 C1594 1.477 . S
C1595 H1615 0.930 . S
C1596 N1592 1.362 . S
C1596 C1593 1.431 . S
C1596 C1606 1.476 . S
H1597 C1591 0.929 . S
C1598 O1589 1.250 . S
C1598 O1590 1.258 . S
O1599 Mn1584 2.162 . S
O1599 C1587 1.281 . S
O1600 Mn1584 2.297 . S
O1600 C1587 1.236 . S
N1601 Mn1585 2.282 1_655 S
N1601 C1602 1.328 . S
N1601 C1606 1.318 . S
C1602 N1601 1.328 . S
C1602 C1603 1.457 . S
C1602 H1607 0.929 1_655 S
C1603 C1602 1.457 . S
C1603 C1604 1.291 . S
C1603 H1616 0.931 . S
C1604 C1603 1.291 . S
C1604 C1605 1.373 . S
C1604 H1617 0.929 . S
C1605 C1604 1.373 . S
C1605 C1606 1.396 . S
C1605 C1612 1.403 . S
C1606 C1596 1.476 . S
C1606 N1601 1.318 . S
C1606 C1605 1.396 . S
H1607 C1602 0.929 1_455 S
O1608 Mn1584 2.385 . S
O1608 C1586 1.234 . S
O1609 Mn1584 2.209 . S
O1609 Mn1585 2.215 . S
O1609 C1586 1.283 . S
O1610 Mn1584 2.094 . S
O1610 C1588 1.240 . S
O1611 Mn1585 2.117 . S
O1611 C1588 1.264 . S
C1612 C1605 1.403 . S
C1612 C1613 1.399 . S
C1612 H1618 0.929 . S
C1613 C1593 1.449 . S
C1613 C1612 1.399 . S
C1613 H1619 0.930 . S
H1614 C1594 0.931 . S
H1615 C1595 0.930 . S
H1616 C1603 0.931 . S
H1617 C1604 0.929 . S
H1618 C1612 0.929 . S
H1619 C1613 0.930 . S
Mn1620 O1625 2.095 . S
Mn1620 O1635 2.162 1_556 S
Mn1620 O1636 2.297 . S
Mn1620 O1644 2.385 . S
Mn1620 O1645 2.209 . S
Mn1620 O1646 2.094 . S
Mn1621 O1626 2.121 . S
Mn1621 N1628 2.257 . S
Mn1621 N1637 2.282 . S
Mn1621 O1645 2.215 . S
Mn1621 O1647 2.117 . S
C1622 O1644 1.234 . S
C1622 O1645 1.283 . S
C1623 O1635 1.281 . S
C1623 O1636 1.236 1_554 S
C1624 O1646 1.240 . S
C1624 O1647 1.264 . S
O1625 Mn1620 2.095 . S
O1625 C1634 1.250 . S
O1626 Mn1621 2.121 . S
O1626 C1634 1.258 . S
C1627 N1628 1.326 . S
C1627 C1631 1.460 . S
C1627 H1633 0.929 . S
N1628 Mn1621 2.257 . S
N1628 C1627 1.326 . S
N1628 C1632 1.362 . S
C1629 C1630 1.258 . S
C1629 C1632 1.431 . S
C1629 C1649 1.449 . S
C1630 C1629 1.258 . S
C1630 C1631 1.477 . S
C1630 H1650 0.931 . S
C1631 C1627 1.460 . S
C1631 C1630 1.477 . S
C1631 H1651 0.930 . S
C1632 N1628 1.362 . S
C1632 C1629 1.431 . S
C1632 C1642 1.476 . S
H1633 C1627 0.929 . S
C1634 O1625 1.250 . S
C1634 O1626 1.258 . S
O1635 Mn1620 2.162 1_554 S
O1635 C1623 1.281 . S
O1636 Mn1620 2.297 . S
O1636 C1623 1.236 1_556 S
N1637 Mn1621 2.282 . S
N1637 C1638 1.328 . S
N1637 C1642 1.318 . S
C1638 N1637 1.328 . S
C1638 C1639 1.457 . S
C1638 H1643 0.929 . S
C1639 C1638 1.457 . S
C1639 C1640 1.291 . S
C1639 H1652 0.931 . S
C1640 C1639 1.291 . S
C1640 C1641 1.373 . S
C1640 H1653 0.929 . S
C1641 C1640 1.373 . S
C1641 C1642 1.396 . S
C1641 C1648 1.403 . S
C1642 C1632 1.476 . S
C1642 N1637 1.318 . S
C1642 C1641 1.396 . S
H1643 C1638 0.929 . S
O1644 Mn1620 2.385 . S
O1644 C1622 1.234 . S
O1645 Mn1620 2.209 . S
O1645 Mn1621 2.215 . S
O1645 C1622 1.283 . S
O1646 Mn1620 2.094 . S
O1646 C1624 1.240 . S
O1647 Mn1621 2.117 . S
O1647 C1624 1.264 . S
C1648 C1641 1.403 . S
C1648 C1649 1.399 . S
C1648 H1654 0.929 . S
C1649 C1629 1.449 . S
C1649 C1648 1.399 . S
C1649 H1655 0.930 . S
H1650 C1630 0.931 . S
H1651 C1631 0.930 . S
H1652 C1639 0.931 . S
H1653 C1640 0.929 . S
H1654 C1648 0.929 . S
H1655 C1649 0.930 . S
Mn1656 O1661 2.095 . S
Mn1656 O1671 2.162 . S
Mn1656 O1672 2.297 . S
Mn1656 O1680 2.385 . S
Mn1656 O1681 2.209 . S
Mn1656 O1682 2.094 . S
Mn1657 O1662 2.121 . S
Mn1657 N1664 2.257 . S
Mn1657 N1673 2.282 . S
Mn1657 O1681 2.215 . S
Mn1657 O1683 2.117 . S
C1658 O1680 1.234 . S
C1658 O1681 1.283 . S
C1659 O1671 1.281 . S
C1659 O1672 1.236 . S
C1660 O1682 1.240 . S
C1660 O1683 1.264 . S
O1661 Mn1656 2.095 . S
O1661 C1670 1.250 . S
O1662 Mn1657 2.121 . S
O1662 C1670 1.258 . S
C1663 N1664 1.326 . S
C1663 C1667 1.460 . S
C1663 H1669 0.929 . S
N1664 Mn1657 2.257 . S
N1664 C1663 1.326 . S
N1664 C1668 1.362 . S
C1665 C1666 1.258 . S
C1665 C1668 1.431 . S
C1665 C1685 1.449 . S
C1666 C1665 1.258 . S
C1666 C1667 1.477 . S
C1666 H1686 0.931 . S
C1667 C1663 1.460 . S
C1667 C1666 1.477 . S
C1667 H1687 0.930 . S
C1668 N1664 1.362 . S
C1668 C1665 1.431 . S
C1668 C1678 1.476 . S
H1669 C1663 0.929 . S
C1670 O1661 1.250 . S
C1670 O1662 1.258 . S
O1671 Mn1656 2.162 . S
O1671 C1659 1.281 . S
O1672 Mn1656 2.297 . S
O1672 C1659 1.236 . S
N1673 Mn1657 2.282 . S
N1673 C1674 1.328 . S
N1673 C1678 1.318 . S
C1674 N1673 1.328 . S
C1674 C1675 1.457 . S
C1674 H1679 0.929 . S
C1675 C1674 1.457 . S
C1675 C1676 1.291 . S
C1675 H1688 0.931 . S
C1676 C1675 1.291 . S
C1676 C1677 1.373 . S
C1676 H1689 0.929 . S
C1677 C1676 1.373 . S
C1677 C1678 1.396 . S
C1677 C1684 1.403 . S
C1678 C1668 1.476 . S
C1678 N1673 1.318 . S
C1678 C1677 1.396 . S
H1679 C1674 0.929 . S
O1680 Mn1656 2.385 . S
O1680 C1658 1.234 . S
O1681 Mn1656 2.209 . S
O1681 Mn1657 2.215 . S
O1681 C1658 1.283 . S
O1682 Mn1656 2.094 . S
O1682 C1660 1.240 . S
O1683 Mn1657 2.117 . S
O1683 C1660 1.264 . S
C1684 C1677 1.403 . S
C1684 C1685 1.399 . S
C1684 H1690 0.929 . S
C1685 C1665 1.449 . S
C1685 C1684 1.399 . S
C1685 H1691 0.930 . S
H1686 C1666 0.931 . S
H1687 C1667 0.930 . S
H1688 C1675 0.931 . S
H1689 C1676 0.929 . S
H1690 C1684 0.929 . S
H1691 C1685 0.930 . S
Mn1692 O1697 2.095 . S
Mn1692 O1707 2.162 . S
Mn1692 O1708 2.297 . S
Mn1692 O1716 2.385 . S
Mn1692 O1717 2.209 . S
Mn1692 O1718 2.094 . S
Mn1693 O1698 2.121 1_545 S
Mn1693 N1700 2.264 . S
Mn1693 N1709 2.282 . S
Mn1693 O1717 2.215 . S
Mn1693 O1719 2.117 . S
C1694 O1716 1.234 . S
C1694 O1717 1.283 . S
C1695 O1707 1.281 . S
C1695 O1708 1.236 . S
C1696 O1718 1.240 . S
C1696 O1719 1.264 . S
O1697 Mn1692 2.095 . S
O1697 C1706 1.250 1_545 S
O1698 Mn1693 2.121 1_565 S
O1698 C1706 1.258 . S
C1699 N1700 1.313 1_565 S
C1699 C1703 1.460 . S
C1699 H1705 0.929 . S
N1700 Mn1693 2.264 . S
N1700 C1699 1.313 1_545 S
N1700 C1704 1.369 . S
C1701 C1702 1.258 . S
C1701 C1704 1.431 1_565 S
C1701 C1721 1.449 1_565 S
C1702 C1701 1.258 . S
C1702 C1703 1.477 . S
C1702 H1722 0.931 . S
C1703 C1699 1.460 . S
C1703 C1702 1.477 . S
C1703 H1723 0.930 . S
C1704 N1700 1.369 . S
C1704 C1701 1.431 1_545 S
C1704 C1714 1.476 . S
H1705 C1699 0.929 . S
C1706 O1697 1.250 1_565 S
C1706 O1698 1.258 . S
O1707 Mn1692 2.162 . S
O1707 C1695 1.281 . S
O1708 Mn1692 2.297 . S
O1708 C1695 1.236 . S
N1709 Mn1693 2.282 . S
N1709 C1710 1.328 . S
N1709 C1714 1.318 . S
C1710 N1709 1.328 . S
C1710 C1711 1.457 . S
C1710 H1715 0.929 . S
C1711 C1710 1.457 . S
C1711 C1712 1.291 . S
C1711 H1724 0.931 . S
C1712 C1711 1.291 . S
C1712 C1713 1.373 . S
C1712 H1725 0.929 . S
C1713 C1712 1.373 . S
C1713 C1714 1.396 . S
C1713 C1720 1.403 . S
C1714 C1704 1.476 . S
C1714 N1709 1.318 . S
C1714 C1713 1.396 . S
H1715 C1710 0.929 . S
O1716 Mn1692 2.385 . S
O1716 C1694 1.234 . S
O1717 Mn1692 2.209 . S
O1717 Mn1693 2.215 . S
O1717 C1694 1.283 . S
O1718 Mn1692 2.094 . S
O1718 C1696 1.240 . S
O1719 Mn1693 2.117 . S
O1719 C1696 1.264 . S
C1720 C1713 1.403 . S
C1720 C1721 1.399 . S
C1720 H1726 0.929 . S
C1721 C1701 1.449 1_545 S
C1721 C1720 1.399 . S
C1721 H1727 0.930 . S
H1722 C1702 0.931 . S
H1723 C1703 0.930 . S
H1724 C1711 0.931 . S
H1725 C1712 0.929 . S
H1726 C1720 0.929 . S
H1727 C1721 0.930 . S
C1515 C3 1.435 . S
C40 C542 1.327 1_455 S
C75 C1443 1.438 . S
C112 C614 1.329 . S
C1587 C148 1.496 . S
C183 C770 1.402 . S
C220 C1659 1.490 . S
C255 C698 1.407 1_455 S
C111 C1696 1.330 . S
C4 C903 1.496 . S
C940 C39 1.325 . S
C76 C867 1.485 1_556 S
C184 C868 1.366 . S
C219 C1695 1.437 . S
C256 C904 1.379 . S
C147 C939 1.439 1_554 S
C1418 C291 1.371 . S
C327 C686 1.305 . S
C292 C1588 1.368 . S
C758 C363 1.302 . S
C796 C399 1.324 1_565 S
C1490 C436 1.473 . S
C1516 C472 1.365 . S
C1444 C508 1.361 . S
C1202 C543 1.530 . S
C578 C2 1.462 1_655 S
C615 C1130 1.543 . S
C74 C650 1.453 . S
C688 C1262 1.432 . S
C230 C722 1.586 . S
C760 C1334 1.441 . S
C158 C794 1.571 1_455 S
C1382 C662 1.398 . S
C544 C362 1.426 . S
C398 C590 1.407 . S
C326 C616 1.470 . S
C338 C734 1.413 . S
C759 C1370 1.436 . S
C374 C806 1.366 . S
C687 C410 1.497 . S
C830 C1094 1.534 . S
C866 C146 1.485 . S
C842 C1274 1.368 . S
C902 C218 1.486 . S
C950 C266 1.367 . S
C1166 C974 1.531 . S
C1022 C1190 1.414 . S
C1058 C1118 1.415 . S
C1083 C651 1.435 . S
C1120 C1406 1.327 . S
C579 C1155 1.438 . S
C1192 C1478 1.329 1_655 S
C1228 C723 1.496 . S
C1634 C1263 1.402 1_455 S
C1300 C795 1.490 . S
C1562 C1335 1.407 . S
C832 C1191 1.330 . S
C1047 C1084 1.496 1_554 S
C1119 C976 1.325 . S
C1011 C1156 1.485 . S
C1264 C1012 1.366 . S
C831 C1299 1.437 1_556 S
C1336 C1048 1.379 . S
C1227 C975 1.439 . S
C1371 C554 1.371 . S
C471 C1550 1.305 . S
C724 C1372 1.368 1_545 S
C1622 C507 1.302 . S
C1660 C435 1.324 . S
C400 C626 1.473 . S
C328 C652 1.365 1_545 S
C580 C364 1.361 1_545 S
C1407 C122 1.530 . S
C1082 C1442 1.462 . S
C1479 C50 1.543 . S
C1514 C1154 1.453 1_455 S
C182 C1552 1.432 . S
C1586 C1310 1.586 1_455 S
C1624 C254 1.441 . S
C1238 C1658 1.571 . S
C1526 C302 1.398 . S
C506 C1408 1.426 . S
C434 C1454 1.407 . S
C1480 C470 1.470 . S
C1598 C482 1.413 . S
C290 C1623 1.436 . S
C518 C1670 1.366 . S
C1551 C446 1.497 . S
C14 C1694 1.534 . S
C1010 C1226 1.485 . S
C194 C1706 1.368 . S
C1298 C1046 1.486 . S
C1346 C986 1.367 . S
C938 C86 1.531 . S
C878 C110 1.414 . S
C38 C914 1.415 . S
