# Generated by pormake.
# Topology umo, (4)-cn, num edge types: 1
# Building blocks:
#     Node 0, Type 0, BuildingBlock: ICAMEG_clean_sbu_1, # of connection points: 4
#     Node 1, Type 0, BuildingBlock: ICAMEG_clean_sbu_1, # of connection points: 4
#     Node 2, Type 0, BuildingBlock: ICAMEG_clean_sbu_1, # of connection points: 4
#     Node 3, Type 0, BuildingBlock: ICAMEG_clean_sbu_1, # of connection points: 4
#     Node 4, Type 0, BuildingBlock: ICAMEG_clean_sbu_1, # of connection points: 4
#     Node 5, Type 0, BuildingBlock: ICAMEG_clean_sbu_1, # of connection points: 4
#     Node 6, Type 0, BuildingBlock: ICAMEG_clean_sbu_1, # of connection points: 4
#     Node 7, Type 0, BuildingBlock: ICAMEG_clean_sbu_1, # of connection points: 4
#     Node 8, Type 0, BuildingBlock: ICAMEG_clean_sbu_1, # of connection points: 4
#     Node 9, Type 0, BuildingBlock: ICAMEG_clean_sbu_1, # of connection points: 4
#     Node 10, Type 0, BuildingBlock: ICAMEG_clean_sbu_1, # of connection points: 4
#     Node 11, Type 0, BuildingBlock: ICAMEG_clean_sbu_1, # of connection points: 4
#     Edge 12, Type (0, 0), BuildingBlock: TEMPAE_clean_linker_10, # of connection points: 2
#     Edge 13, Type (0, 0), BuildingBlock: TEMPAE_clean_linker_10, # of connection points: 2
#     Edge 14, Type (0, 0), BuildingBlock: TEMPAE_clean_linker_10, # of connection points: 2
#     Edge 15, Type (0, 0), BuildingBlock: TEMPAE_clean_linker_10, # of connection points: 2
#     Edge 16, Type (0, 0), BuildingBlock: TEMPAE_clean_linker_10, # of connection points: 2
#     Edge 17, Type (0, 0), BuildingBlock: TEMPAE_clean_linker_10, # of connection points: 2
#     Edge 18, Type (0, 0), BuildingBlock: TEMPAE_clean_linker_10, # of connection points: 2
#     Edge 19, Type (0, 0), BuildingBlock: TEMPAE_clean_linker_10, # of connection points: 2
#     Edge 20, Type (0, 0), BuildingBlock: TEMPAE_clean_linker_10, # of connection points: 2
#     Edge 21, Type (0, 0), BuildingBlock: TEMPAE_clean_linker_10, # of connection points: 2
#     Edge 22, Type (0, 0), BuildingBlock: TEMPAE_clean_linker_10, # of connection points: 2
#     Edge 23, Type (0, 0), BuildingBlock: TEMPAE_clean_linker_10, # of connection points: 2
#     Edge 24, Type (0, 0), BuildingBlock: TEMPAE_clean_linker_10, # of connection points: 2
#     Edge 25, Type (0, 0), BuildingBlock: TEMPAE_clean_linker_10, # of connection points: 2
#     Edge 26, Type (0, 0), BuildingBlock: TEMPAE_clean_linker_10, # of connection points: 2
#     Edge 27, Type (0, 0), BuildingBlock: TEMPAE_clean_linker_10, # of connection points: 2
#     Edge 28, Type (0, 0), BuildingBlock: TEMPAE_clean_linker_10, # of connection points: 2
#     Edge 29, Type (0, 0), BuildingBlock: TEMPAE_clean_linker_10, # of connection points: 2
#     Edge 30, Type (0, 0), BuildingBlock: TEMPAE_clean_linker_10, # of connection points: 2
#     Edge 31, Type (0, 0), BuildingBlock: TEMPAE_clean_linker_10, # of connection points: 2
#     Edge 32, Type (0, 0), BuildingBlock: TEMPAE_clean_linker_10, # of connection points: 2
#     Edge 33, Type (0, 0), BuildingBlock: TEMPAE_clean_linker_10, # of connection points: 2
#     Edge 34, Type (0, 0), BuildingBlock: TEMPAE_clean_linker_10, # of connection points: 2
#     Edge 35, Type (0, 0), BuildingBlock: TEMPAE_clean_linker_10, # of connection points: 2
# Relax obj value: 0.091
# Max RMSD: 0.156
# Mean RMSD: 0.156
data_MOF--net-umo--node1-ICAMEG_clean_sbu_1--edge1-TEMPAE_clean_linker_10
_symmetry_space_group_name_H-M    P1
_symmetry_Int_Tables_number       1
_symmetry_cell_setting            triclinic
loop_
_symmetry_equiv_pos_as_xyz
'x, y, z'
_cell_length_a     52.723959
_cell_length_b     52.632135
_cell_length_c     40.393025
_cell_angle_alpha  90.009694
_cell_angle_beta   90.006374
_cell_angle_gamma 120.03281
loop_
_atom_site_label
_atom_site_type_symbol
_atom_site_fract_x
_atom_site_fract_y
_atom_site_fract_z
_atom_type_partial_charge
Co0 Co 0.14958 0.5582 0.4108 0.0
Co1 Co 0.1821 0.51699 0.42674 0.0
O2 O 0.15652 0.52603 0.40075 0.0
C3 C 0.09104 0.50622 0.40252 0.0
O4 O 0.09852 0.49255 0.4242 0.0
C5 C 0.20387 0.5247 0.35866 0.0
O6 O 0.20225 0.54875 0.35953 0.0
O7 O 0.21431 0.55812 0.42378 0.0
O8 O 0.19096 0.58403 0.42555 0.0
H9 H 0.25481 0.53326 0.51636 0.0
H10 H 0.13383 0.53046 0.34425 0.0
O11 O 0.10836 0.53311 0.39582 0.0
H12 H 0.2058 0.63463 0.3239 0.0
H13 H 0.10514 0.62199 0.39007 0.0
H14 H 0.1654 0.60069 0.46598 0.0
H15 H 0.19005 0.61658 0.38075 0.0
H16 H 0.1161 0.58265 0.37721 0.0
O17 O 0.19649 0.50815 0.38419 0.0
H18 H 0.22174 0.5443 0.48413 0.0
H19 H 0.19823 0.47038 0.42254 0.0
H20 H 0.15509 0.64028 0.47973 0.0
H21 H 0.14866 0.54771 0.28699 0.0
H22 H 0.12475 0.65116 0.44161 0.0
H23 H 0.18505 0.60009 0.27653 0.0
O24 O 0.13842 0.54388 0.45677 0.0
H25 H 0.10042 0.42239 0.38132 0.0
H26 H 0.1546 0.47425 0.48196 0.0
H27 H 0.11356 0.42334 0.48632 0.0
H28 H 0.0862 0.39707 0.43573 0.0
H29 H 0.14147 0.47339 0.37815 0.0
H30 H 0.23128 0.45868 0.45388 0.0
H31 H 0.25975 0.49018 0.50127 0.0
O32 O 0.16872 0.52678 0.46948 0.0
C33 C 0.2141 0.58208 0.42653 0.0
C34 C 0.24242 0.51929 0.49587 0.0
C35 C 0.22924 0.47745 0.46077 0.0
N36 N 0.20782 0.50777 0.45178 0.0
C37 C 0.22357 0.52536 0.47762 0.0
C38 C 0.2106 0.4842 0.44309 0.0
C39 C 0.2452 0.49513 0.48736 0.0
C40 C 0.14932 0.55339 0.3399 0.0
N41 N 0.16093 0.5725 0.36585 0.0
C42 C 0.15777 0.56299 0.30741 0.0
C43 C 0.17824 0.59237 0.30157 0.0
C44 C 0.18992 0.61176 0.32814 0.0
C45 C 0.18096 0.60138 0.36029 0.0
C46 C 0.11844 0.61751 0.40682 0.0
C47 C 0.15235 0.60542 0.44916 0.0
C48 C 0.12469 0.59525 0.39969 0.0
N49 N 0.14159 0.58957 0.42068 0.0
C50 C 0.14651 0.62781 0.45713 0.0
C51 C 0.12946 0.63387 0.43575 0.0
C52 C 0.15087 0.53558 0.47775 0.0
C53 C 0.11224 0.43357 0.40352 0.0
C54 C 0.14274 0.46297 0.45986 0.0
C55 C 0.11957 0.43413 0.46247 0.0
C56 C 0.10424 0.4194 0.43407 0.0
N57 N 0.15048 0.47668 0.4298 0.0
C58 C 0.13557 0.46239 0.40185 0.0
Co59 Co 0.65508 0.18285 0.58974 0.0
Co60 Co 0.5819 0.15548 0.57293 0.0
O61 O 0.61976 0.15893 0.56392 0.0
C62 C 0.67007 0.20393 0.5215 0.0
O63 O 0.64518 0.20387 0.52224 0.0
C64 C 0.57077 0.09496 0.56912 0.0
O65 O 0.59207 0.10252 0.5906 0.0
O66 O 0.58391 0.14575 0.61985 0.0
O67 O 0.63193 0.17095 0.63251 0.0
H68 H 0.50967 0.17121 0.63792 0.0
H69 H 0.6542 0.14013 0.54129 0.0
O70 O 0.67839 0.1958 0.54713 0.0
H71 H 0.67298 0.1094 0.64953 0.0
H72 H 0.76192 0.22512 0.61659 0.0
H73 H 0.67036 0.2231 0.64712 0.0
H74 H 0.6674 0.1531 0.64503 0.0
H75 H 0.71631 0.19443 0.58536 0.0
O76 O 0.5628 0.1132 0.56066 0.0
H77 H 0.55804 0.17685 0.62562 0.0
H78 H 0.52372 0.12407 0.53955 0.0
H79 H 0.71536 0.25387 0.67925 0.0
H80 H 0.6598 0.09638 0.54461 0.0
H81 H 0.76157 0.25501 0.664 0.0
H82 H 0.66918 0.08072 0.59906 0.0
O83 O 0.64945 0.21721 0.58667 0.0
H84 H 0.59099 0.148 0.44986 0.0
H85 H 0.5685 0.19774 0.53898 0.0
H86 H 0.56787 0.2118 0.48089 0.0
H87 H 0.57918 0.18686 0.43586 0.0
H88 H 0.59177 0.13487 0.50828 0.0
H89 H 0.4749 0.11772 0.55101 0.0
H90 H 0.46768 0.14147 0.60045 0.0
O91 O 0.60052 0.19785 0.58503 0.0
C92 C 0.60485 0.15587 0.64077 0.0
C93 C 0.51257 0.16086 0.61622 0.0
C94 C 0.49305 0.1308 0.56747 0.0
N95 N 0.54375 0.15104 0.58173 0.0
C96 C 0.53993 0.16405 0.60907 0.0
C97 C 0.52072 0.13444 0.56113 0.0
C98 C 0.48901 0.14413 0.59521 0.0
C99 C 0.65857 0.13361 0.565 0.0
N100 N 0.66063 0.14921 0.59289 0.0
C101 C 0.6616 0.10875 0.56676 0.0
C102 C 0.66682 0.09995 0.59732 0.0
C103 C 0.66893 0.11602 0.62566 0.0
C104 C 0.6657 0.14071 0.62297 0.0
C105 C 0.7419 0.22474 0.62353 0.0
C106 C 0.69033 0.2233 0.64054 0.0
C107 C 0.71604 0.20744 0.60592 0.0
N108 N 0.69067 0.20675 0.61467 0.0
C109 C 0.71576 0.24085 0.65873 0.0
C110 C 0.74169 0.2415 0.65014 0.0
C111 C 0.62655 0.2195 0.58728 0.0
C112 C 0.58593 0.15895 0.46926 0.0
C113 C 0.57349 0.1868 0.51954 0.0
C114 C 0.57303 0.19482 0.48668 0.0
C115 C 0.57935 0.1808 0.46142 0.0
N116 N 0.58005 0.16541 0.52705 0.0
C117 C 0.58616 0.15149 0.50239 0.0
Co118 Co 0.469 0.65282 0.75514 0.0
Co119 Co 0.42486 0.5803 0.73214 0.0
O120 O 0.4593 0.619 0.72712 0.0
C121 C 0.46263 0.67007 0.68802 0.0
O122 O 0.4388 0.64423 0.68728 0.0
C123 C 0.47542 0.57082 0.73305 0.0
O124 O 0.48774 0.59192 0.75507 0.0
O125 O 0.43215 0.58035 0.78046 0.0
O126 O 0.45835 0.62772 0.79618 0.0
H127 H 0.33176 0.50424 0.78625 0.0
H128 H 0.51194 0.65626 0.70538 0.0
O129 O 0.47861 0.67805 0.71403 0.0
H130 H 0.56123 0.67181 0.81337 0.0
H131 H 0.52992 0.75896 0.78788 0.0
H132 H 0.44266 0.66387 0.81442 0.0
H133 H 0.5112 0.66431 0.80993 0.0
H134 H 0.51691 0.71517 0.75382 0.0
O135 O 0.44957 0.56238 0.72285 0.0
H136 H 0.37484 0.55355 0.77886 0.0
H137 H 0.40244 0.52342 0.69638 0.0
H138 H 0.45497 0.707 0.84931 0.0
H139 H 0.56202 0.6638 0.70764 0.0
H140 H 0.49889 0.75499 0.8361 0.0
H141 H 0.58696 0.67157 0.76195 0.0
O142 O 0.42834 0.64557 0.7533 0.0
H143 H 0.45363 0.59704 0.61204 0.0
H144 H 0.37209 0.56526 0.69115 0.0
H145 H 0.36295 0.56715 0.63157 0.0
H146 H 0.40393 0.58317 0.59155 0.0
H147 H 0.46186 0.59522 0.67186 0.0
H148 H 0.35976 0.47372 0.70302 0.0
H149 H 0.324 0.46391 0.74815 0.0
O150 O 0.39961 0.59777 0.74088 0.0
C151 C 0.4441 0.60018 0.80265 0.0
C152 C 0.34712 0.50826 0.76641 0.0
C153 C 0.36286 0.49113 0.71973 0.0
N154 N 0.39098 0.54141 0.73704 0.0
C155 C 0.3715 0.53616 0.76204 0.0
C156 C 0.38702 0.51929 0.71613 0.0
C157 C 0.3428 0.48564 0.74505 0.0
C158 C 0.52278 0.65993 0.72905 0.0
N159 N 0.50878 0.66003 0.75746 0.0
C160 C 0.55108 0.66406 0.7302 0.0
C161 C 0.56504 0.66837 0.76069 0.0
C162 C 0.55061 0.66849 0.78955 0.0
C163 C 0.52229 0.6642 0.78746 0.0
C164 C 0.51078 0.73816 0.79395 0.0
C165 C 0.46194 0.68462 0.8087 0.0
C166 C 0.50329 0.71331 0.77473 0.0
N167 N 0.47923 0.68695 0.78236 0.0
C168 C 0.46874 0.70899 0.82846 0.0
C169 C 0.49336 0.73591 0.821 0.0
C170 C 0.40336 0.62296 0.74834 0.0
C171 C 0.4356 0.59002 0.62922 0.0
C172 C 0.39004 0.57243 0.67393 0.0
C173 C 0.38472 0.57333 0.6402 0.0
C174 C 0.40771 0.58227 0.61775 0.0
N175 N 0.41748 0.58023 0.68503 0.0
C176 C 0.44009 0.58882 0.66313 0.0
Co177 Co 0.83841 0.42979 0.90904 0.0
Co178 Co 0.80901 0.47367 0.92613 0.0
O179 O 0.83285 0.46287 0.89936 0.0
C180 C 0.89756 0.48031 0.89991 0.0
O181 O 0.89084 0.49443 0.9218 0.0
C182 C 0.78561 0.46574 0.85878 0.0
O183 O 0.78596 0.44101 0.85978 0.0
O184 O 0.7756 0.43304 0.92449 0.0
O185 O 0.79715 0.40539 0.92473 0.0
H186 H 0.73985 0.46192 0.01816 0.0
H187 H 0.85387 0.4571 0.84228 0.0
O188 O 0.87955 0.45356 0.89322 0.0
H189 H 0.77842 0.35384 0.82314 0.0
H190 H 0.87855 0.3625 0.88666 0.0
H191 H 0.82207 0.38734 0.96433 0.0
H192 H 0.7957 0.37184 0.87969 0.0
H193 H 0.86943 0.40317 0.87441 0.0
O194 O 0.79424 0.4827 0.884 0.0
H195 H 0.77067 0.44853 0.98491 0.0
H196 H 0.79533 0.522 0.92221 0.0
H197 H 0.83055 0.34644 0.97748 0.0
H198 H 0.83751 0.43989 0.78532 0.0
H199 H 0.85897 0.33377 0.93847 0.0
H200 H 0.79937 0.38798 0.77547 0.0
O201 O 0.85078 0.4441 0.95482 0.0
H202 H 0.89189 0.56578 0.87763 0.0
H203 H 0.83938 0.51696 0.98022 0.0
H204 H 0.88197 0.56711 0.98302 0.0
H205 H 0.90851 0.59184 0.93144 0.0
H206 H 0.84931 0.51557 0.87603 0.0
H207 H 0.76453 0.53605 0.95456 0.0
H208 H 0.73663 0.50597 1.00302 0.0
O209 O 0.8228 0.4637 0.96847 0.0
C210 C 0.77476 0.40854 0.92695 0.0
C211 C 0.75201 0.47528 0.9972 0.0
C212 C 0.76583 0.51687 0.96148 0.0
N213 N 0.78505 0.48469 0.95195 0.0
C214 C 0.76959 0.46788 0.97838 0.0
C215 C 0.7832 0.5088 0.94323 0.0
C216 C 0.75019 0.49998 0.98866 0.0
C217 C 0.8376 0.43436 0.83819 0.0
N218 N 0.82588 0.41548 0.86431 0.0
C219 C 0.82829 0.42478 0.80587 0.0
C220 C 0.80685 0.39567 0.80037 0.0
C221 C 0.79506 0.37652 0.82711 0.0
C222 C 0.80489 0.38686 0.85909 0.0
C223 C 0.86607 0.36776 0.9038 0.0
C224 C 0.83428 0.38184 0.94713 0.0
C225 C 0.86086 0.39078 0.89702 0.0
N226 N 0.845 0.39743 0.91849 0.0
C227 C 0.83909 0.35871 0.95475 0.0
C228 C 0.85507 0.35164 0.93288 0.0
C229 C 0.83979 0.45371 0.97615 0.0
C230 C 0.88044 0.55527 0.90026 0.0
C231 C 0.85086 0.52758 0.9577 0.0
C232 C 0.87492 0.55599 0.95942 0.0
C233 C 0.88979 0.56986 0.93047 0.0
N234 N 0.84181 0.51345 0.92797 0.0
C235 C 0.85624 0.52691 0.89947 0.0
Co236 Co 0.33175 0.81035 0.09078 0.0
Co237 Co 0.40504 0.83923 0.07345 0.0
O238 O 0.36672 0.83477 0.06468 0.0
C239 C 0.31666 0.78896 0.02265 0.0
O240 O 0.34187 0.78965 0.02318 0.0
C241 C 0.41458 0.89913 0.06932 0.0
O242 O 0.39334 0.89119 0.09096 0.0
O243 O 0.40306 0.84905 0.12034 0.0
O244 O 0.35517 0.82282 0.13336 0.0
H245 H 0.47904 0.82596 0.13803 0.0
H246 H 0.33122 0.85238 0.04237 0.0
O247 O 0.3082 0.79684 0.04836 0.0
H248 H 0.31218 0.88258 0.15082 0.0
H249 H 0.22484 0.76598 0.11851 0.0
H250 H 0.31768 0.77037 0.14821 0.0
H251 H 0.31889 0.83956 0.14621 0.0
H252 H 0.27002 0.79735 0.08692 0.0
O253 O 0.42316 0.88135 0.06092 0.0
H254 H 0.43011 0.81905 0.12605 0.0
H255 H 0.46294 0.87159 0.03963 0.0
H256 H 0.27312 0.73895 0.18068 0.0
H257 H 0.32447 0.89544 0.0458 0.0
H258 H 0.22627 0.73661 0.16586 0.0
H259 H 0.31496 0.91083 0.10035 0.0
O260 O 0.33832 0.77658 0.0876 0.0
H261 H 0.39488 0.84568 0.95041 0.0
H262 H 0.41951 0.7977 0.03957 0.0
H263 H 0.42017 0.78352 0.98154 0.0
H264 H 0.40778 0.80757 0.93648 0.0
H265 H 0.3941 0.85893 1.00878 0.0
H266 H 0.51229 0.87922 0.05077 0.0
H267 H 0.52055 0.85623 0.10022 0.0
O268 O 0.38738 0.797 0.08581 0.0
C269 C 0.38225 0.83853 0.14141 0.0
C270 C 0.47569 0.83599 0.11633 0.0
C271 C 0.49436 0.86592 0.06738 0.0
N272 N 0.44363 0.84467 0.082 0.0
C273 C 0.44802 0.83208 0.10936 0.0
C274 C 0.46639 0.86155 0.06122 0.0
C275 C 0.49898 0.85301 0.09513 0.0
C276 C 0.32678 0.85878 0.06613 0.0
N277 N 0.32529 0.84342 0.09402 0.0
C278 C 0.32311 0.88325 0.06795 0.0
C279 C 0.31782 0.8919 0.09857 0.0
C280 C 0.31628 0.87607 0.1269 0.0
C281 C 0.32015 0.85177 0.12415 0.0
C282 C 0.24514 0.76689 0.12527 0.0
C283 C 0.29743 0.76966 0.14181 0.0
C284 C 0.27076 0.78457 0.10746 0.0
N285 N 0.29649 0.78592 0.11598 0.0
C286 C 0.27225 0.75174 0.1602 0.0
C287 C 0.24596 0.75041 0.15184 0.0
C288 C 0.36159 0.77495 0.08814 0.0
C289 C 0.40042 0.83512 0.96981 0.0
C290 C 0.41405 0.80824 0.02013 0.0
C291 C 0.41452 0.80016 0.98729 0.0
C292 C 0.40761 0.81369 0.96202 0.0
N293 N 0.40689 0.82922 0.02759 0.0
C294 C 0.40019 0.84266 1.00292 0.0
Co295 Co 0.52433 0.344 0.25338 0.0
Co296 Co 0.5692 0.41601 0.22767 0.0
O297 O 0.53339 0.37768 0.22498 0.0
C298 C 0.51078 0.32148 0.18279 0.0
O299 O 0.51673 0.34737 0.17218 0.0
C300 C 0.52046 0.42805 0.23424 0.0
O301 O 0.5085 0.40676 0.25607 0.0
O302 O 0.56554 0.41703 0.27657 0.0
O303 O 0.53834 0.37023 0.2935 0.0
H304 H 0.66722 0.48982 0.27421 0.0
H305 H 0.47781 0.34303 0.20948 0.0
O306 O 0.51146 0.31654 0.2137 0.0
H307 H 0.43814 0.32749 0.32265 0.0
H308 H 0.46417 0.23929 0.2918 0.0
H309 H 0.55452 0.3341 0.30965 0.0
H310 H 0.48693 0.33355 0.31245 0.0
H311 H 0.47537 0.28208 0.25677 0.0
O312 O 0.54549 0.43554 0.2221 0.0
H313 H 0.6224 0.4414 0.26969 0.0
H314 H 0.59128 0.47281 0.19179 0.0
H315 H 0.54408 0.292 0.34543 0.0
H316 H 0.42901 0.33687 0.21849 0.0
H317 H 0.49861 0.24416 0.33659 0.0
H318 H 0.40876 0.32906 0.27545 0.0
O319 O 0.56407 0.34977 0.24699 0.0
H320 H 0.53408 0.40533 0.1099 0.0
H321 H 0.6179 0.42661 0.18189 0.0
H322 H 0.62333 0.42591 0.12137 0.0
H323 H 0.58123 0.41532 0.08488 0.0
H324 H 0.5294 0.40548 0.17056 0.0
H325 H 0.63566 0.52163 0.19563 0.0
H326 H 0.67406 0.53035 0.237 0.0
O327 O 0.59346 0.39701 0.23282 0.0
C328 C 0.55396 0.39775 0.29932 0.0
C329 C 0.6507 0.48627 0.25601 0.0
C330 C 0.63296 0.50413 0.21193 0.0
N331 N 0.60437 0.45422 0.23033 0.0
C332 C 0.62532 0.45887 0.25326 0.0
C333 C 0.60785 0.47645 0.20992 0.0
C334 C 0.6545 0.50901 0.23515 0.0
C335 C 0.46917 0.33911 0.2342 0.0
N336 N 0.48517 0.33805 0.26022 0.0
C337 C 0.44148 0.33586 0.23923 0.0
C338 C 0.43016 0.33157 0.2712 0.0
C339 C 0.44664 0.33069 0.29767 0.0
C340 C 0.47427 0.33411 0.2917 0.0
C341 C 0.48401 0.26004 0.29594 0.0
C342 C 0.53458 0.31342 0.30582 0.0
C343 C 0.4905 0.28431 0.27615 0.0
N344 N 0.51544 0.31061 0.28137 0.0
C345 C 0.52884 0.28963 0.32608 0.0
C346 C 0.50335 0.26279 0.32108 0.0
C347 C 0.58903 0.37147 0.2397 0.0
C348 C 0.55256 0.40987 0.12553 0.0
C349 C 0.59931 0.42134 0.16627 0.0
C350 C 0.60259 0.42128 0.13196 0.0
C351 C 0.579 0.41543 0.11151 0.0
N352 N 0.57322 0.41556 0.17988 0.0
C353 C 0.55009 0.41012 0.15994 0.0
Co354 Co 0.4647 0.81115 0.42933 0.0
Co355 Co 0.42079 0.84034 0.44803 0.0
O356 O 0.45468 0.8357 0.456 0.0
C357 C 0.45954 0.78957 0.49728 0.0
O358 O 0.43511 0.79045 0.49769 0.0
C359 C 0.4712 0.90029 0.45177 0.0
O360 O 0.48425 0.89242 0.4297 0.0
O361 O 0.432 0.8502 0.40098 0.0
O362 O 0.4531 0.82359 0.38723 0.0
H363 H 0.33294 0.82763 0.38517 0.0
H364 H 0.50814 0.85314 0.47705 0.0
O365 O 0.47542 0.79759 0.47121 0.0
H366 H 0.55556 0.88295 0.36765 0.0
H367 H 0.5264 0.7663 0.39925 0.0
H368 H 0.43765 0.77106 0.37219 0.0
H369 H 0.50582 0.84013 0.3731 0.0
H370 H 0.51335 0.79792 0.43158 0.0
O371 O 0.44501 0.88244 0.46062 0.0
H372 H 0.37493 0.82043 0.39615 0.0
H373 H 0.39583 0.87281 0.48288 0.0
H374 H 0.45001 0.73939 0.33899 0.0
H375 H 0.55798 0.89601 0.47279 0.0
H376 H 0.49466 0.73687 0.35248 0.0
H377 H 0.58197 0.9112 0.41775 0.0
O378 O 0.42439 0.77751 0.43321 0.0
H379 H 0.43891 0.84652 0.57076 0.0
H380 H 0.36517 0.79893 0.48258 0.0
H381 H 0.35102 0.78473 0.54075 0.0
H382 H 0.38803 0.80858 0.58531 0.0
H383 H 0.45224 0.85981 0.51226 0.0
H384 H 0.35414 0.88071 0.47275 0.0
H385 H 0.32231 0.85796 0.42364 0.0
O386 O 0.39595 0.79815 0.43561 0.0
C387 C 0.44175 0.83941 0.37957 0.0
C388 C 0.34657 0.83756 0.40673 0.0
C389 C 0.3585 0.86739 0.45586 0.0
N390 N 0.38763 0.84595 0.4403 0.0
C391 C 0.37033 0.83349 0.41313 0.0
C392 C 0.38209 0.86287 0.46145 0.0
C393 C 0.34065 0.85461 0.4283 0.0
C394 C 0.51858 0.85947 0.45308 0.0
N395 N 0.5042 0.8441 0.42539 0.0
C396 C 0.54674 0.88382 0.45079 0.0
C397 C 0.56017 0.89236 0.4199 0.0
C398 C 0.54535 0.87653 0.39177 0.0
C399 C 0.51718 0.85234 0.39499 0.0
C400 C 0.50693 0.76729 0.39306 0.0
C401 C 0.45726 0.77027 0.378 0.0
C402 C 0.49942 0.78511 0.4113 0.0
N403 N 0.47496 0.78656 0.40351 0.0
C404 C 0.46408 0.75221 0.35921 0.0
C405 C 0.48912 0.75078 0.36682 0.0
C406 C 0.39955 0.77602 0.43307 0.0
C407 C 0.42257 0.83604 0.55157 0.0
C408 C 0.38143 0.80939 0.50181 0.0
C409 C 0.37326 0.8013 0.53472 0.0
C410 C 0.39403 0.81471 0.55972 0.0
N411 N 0.40949 0.83027 0.494 0.0
C412 C 0.42994 0.8436 0.5184 0.0
Co413 Co 0.58906 0.43258 0.60305 0.0
Co414 Co 0.66281 0.4773 0.5895 0.0
O415 O 0.62712 0.46577 0.61458 0.0
C416 C 0.57928 0.48251 0.61188 0.0
O417 O 0.60087 0.49729 0.59102 0.0
C418 C 0.67611 0.46864 0.6576 0.0
O419 O 0.65106 0.44395 0.65574 0.0
O420 O 0.65601 0.43682 0.59114 0.0
O421 O 0.60694 0.40878 0.58833 0.0
H422 H 0.72397 0.46756 0.50049 0.0
H423 H 0.59803 0.45864 0.6703 0.0
O424 O 0.57065 0.45568 0.61799 0.0
H425 H 0.57081 0.35538 0.68822 0.0
H426 H 0.48113 0.3639 0.62024 0.0
H427 H 0.56552 0.39106 0.54662 0.0
H428 H 0.5734 0.37428 0.63174 0.0
H429 H 0.53015 0.40477 0.63483 0.0
O430 O 0.68515 0.48592 0.63267 0.0
H431 H 0.67852 0.45327 0.53164 0.0
H432 H 0.72439 0.52604 0.59614 0.0
H433 H 0.51694 0.34997 0.53115 0.0
H434 H 0.59525 0.4405 0.7272 0.0
H435 H 0.47432 0.33614 0.56811 0.0
H436 H 0.58176 0.38858 0.73644 0.0
O437 O 0.59256 0.44767 0.55738 0.0
H438 H 0.66911 0.5682 0.6379 0.0
H439 H 0.67725 0.52132 0.53585 0.0
H440 H 0.68426 0.57128 0.53316 0.0
H441 H 0.68021 0.59504 0.58447 0.0
H442 H 0.66207 0.51821 0.6394 0.0
H443 H 0.77044 0.54098 0.56592 0.0
H444 H 0.77036 0.51171 0.51763 0.0
O445 O 0.64063 0.4678 0.54607 0.0
C446 C 0.63264 0.4122 0.5877 0.0
C447 C 0.72426 0.48058 0.5214 0.0
C448 C 0.75035 0.52176 0.55815 0.0
N449 N 0.69876 0.48903 0.56537 0.0
C450 C 0.69857 0.47266 0.53903 0.0
C451 C 0.72423 0.51318 0.57518 0.0
C452 C 0.75029 0.50533 0.53105 0.0
C453 C 0.59168 0.43589 0.67411 0.0
N454 N 0.58576 0.41752 0.64768 0.0
C455 C 0.59032 0.4258 0.70639 0.0
C456 C 0.58281 0.39668 0.71156 0.0
C457 C 0.5767 0.37805 0.68451 0.0
C458 C 0.57828 0.3889 0.65257 0.0
C459 C 0.49954 0.36967 0.60398 0.0
C460 C 0.54712 0.38505 0.56293 0.0
C461 C 0.52733 0.39281 0.61209 0.0
N462 N 0.5507 0.40011 0.59174 0.0
C463 C 0.51965 0.36182 0.55399 0.0
C464 C 0.49574 0.3541 0.57473 0.0
C465 C 0.61395 0.45784 0.53708 0.0
C466 C 0.67103 0.55813 0.6154 0.0
C467 C 0.67542 0.53152 0.55825 0.0
C468 C 0.67946 0.55982 0.5566 0.0
C469 C 0.67721 0.57315 0.5854 0.0
N470 N 0.66941 0.51696 0.58778 0.0
C471 C 0.6672 0.52988 0.61613 0.0
Co472 Co 0.17848 0.653 0.7605 0.0
Co473 Co 0.15112 0.58097 0.78501 0.0
O474 O 0.15454 0.61939 0.78887 0.0
C475 C 0.20132 0.67092 0.8278 0.0
O476 O 0.1998 0.6453 0.82889 0.0
C477 C 0.09083 0.57052 0.78181 0.0
O478 O 0.09987 0.5916 0.75974 0.0
O479 O 0.14477 0.5804 0.73644 0.0
O480 O 0.16443 0.6274 0.71978 0.0
H481 H 0.17093 0.5055 0.73419 0.0
H482 H 0.13834 0.65629 0.80953 0.0
O483 O 0.19355 0.67865 0.80141 0.0
H484 H 0.1047 0.67019 0.70066 0.0
H485 H 0.22264 0.7587 0.72639 0.0
H486 H 0.21596 0.66382 0.70137 0.0
H487 H 0.14765 0.66343 0.70498 0.0
H488 H 0.19221 0.71514 0.76091 0.0
O489 O 0.10827 0.56248 0.79297 0.0
H490 H 0.17611 0.55452 0.74023 0.0
H491 H 0.11671 0.5243 0.82115 0.0
H492 H 0.24644 0.70671 0.66604 0.0
H493 H 0.09538 0.66309 0.80638 0.0
H494 H 0.24992 0.75458 0.67849 0.0
H495 H 0.07825 0.67001 0.75162 0.0
O496 O 0.21228 0.64632 0.76298 0.0
H497 H 0.13634 0.59864 0.90394 0.0
H498 H 0.18857 0.56712 0.82805 0.0
H499 H 0.19855 0.56988 0.888 0.0
H500 H 0.17234 0.58578 0.92639 0.0
H501 H 0.12736 0.59596 0.8438 0.0
H502 H 0.11072 0.47489 0.81584 0.0
H503 H 0.13804 0.46528 0.77218 0.0
O504 O 0.19403 0.59904 0.7776 0.0
C505 C 0.152 0.5998 0.71385 0.0
C506 C 0.159 0.50945 0.75339 0.0
C507 C 0.12517 0.49226 0.79919 0.0
N508 N 0.14694 0.54232 0.7812 0.0
C509 C 0.16192 0.53718 0.757 0.0
C510 C 0.1286 0.52026 0.80203 0.0
C511 C 0.14051 0.48688 0.77469 0.0
C512 C 0.13119 0.6596 0.78566 0.0
N513 N 0.14557 0.65965 0.7575 0.0
C514 C 0.10678 0.66331 0.78401 0.0
C515 C 0.09716 0.66715 0.75327 0.0
C516 C 0.11198 0.66723 0.72466 0.0
C517 C 0.13625 0.66336 0.72726 0.0
C518 C 0.22125 0.73794 0.72067 0.0
C519 C 0.2172 0.68452 0.70678 0.0
C520 C 0.2041 0.71324 0.74015 0.0
N521 N 0.20213 0.68694 0.73295 0.0
C522 C 0.23457 0.70875 0.68676 0.0
C523 C 0.23654 0.73562 0.69379 0.0
C524 C 0.21512 0.62418 0.76939 0.0
C525 C 0.14789 0.59167 0.88747 0.0
C526 C 0.17723 0.57421 0.84458 0.0
C527 C 0.18287 0.57562 0.87852 0.0
C528 C 0.16812 0.58449 0.90005 0.0
N529 N 0.15751 0.58148 0.8324 0.0
C530 C 0.14281 0.58999 0.85339 0.0
Co531 Co 0.52191 0.18519 0.92769 0.0
Co532 Co 0.56265 0.15292 0.94723 0.0
O533 O 0.52902 0.15847 0.95437 0.0
C534 C 0.50661 0.19089 0.99869 0.0
O535 O 0.51008 0.16899 1.008 0.0
C536 C 0.51156 0.09329 0.95138 0.0
O537 O 0.49874 0.10102 0.92888 0.0
O538 O 0.55134 0.14266 0.90035 0.0
O539 O 0.53632 0.17432 0.88646 0.0
H540 H 0.64983 0.16279 0.88536 0.0
H541 H 0.4727 0.1382 0.96771 0.0
O542 O 0.50881 0.19839 0.96824 0.0
H543 H 0.43692 0.12265 0.85281 0.0
H544 H 0.46683 0.23582 0.89207 0.0
H545 H 0.5554 0.2282 0.87492 0.0
H546 H 0.48631 0.16306 0.86646 0.0
H547 H 0.47494 0.20094 0.92486 0.0
O548 O 0.53774 0.11107 0.96029 0.0
H549 H 0.60856 0.1713 0.89558 0.0
H550 H 0.58646 0.11989 0.98317 0.0
H551 H 0.54805 0.26315 0.84136 0.0
H552 H 0.42322 0.09788 0.95528 0.0
H553 H 0.50349 0.26712 0.84986 0.0
H554 H 0.40491 0.08976 0.8974 0.0
O555 O 0.56185 0.2173 0.93744 0.0
H556 H 0.54578 0.14618 0.07032 0.0
H557 H 0.61839 0.1948 0.9814 0.0
H558 H 0.63308 0.20884 0.03943 0.0
H559 H 0.59667 0.18444 0.08441 0.0
H560 H 0.53187 0.1331 0.01194 0.0
H561 H 0.62744 0.11073 0.97382 0.0
H562 H 0.6595 0.13232 0.92466 0.0
O563 O 0.58844 0.19488 0.9342 0.0
C564 C 0.54513 0.15636 0.87878 0.0
C565 C 0.63609 0.15336 0.90694 0.0
C566 C 0.62349 0.12411 0.95657 0.0
N567 N 0.59528 0.14632 0.9401 0.0
C568 C 0.61273 0.15816 0.91291 0.0
C569 C 0.60031 0.12934 0.96172 0.0
C570 C 0.64148 0.13623 0.92898 0.0
C571 C 0.46495 0.13537 0.94266 0.0
N572 N 0.48239 0.15355 0.91809 0.0
C573 C 0.43685 0.11223 0.93566 0.0
C574 C 0.42662 0.10763 0.90318 0.0
C575 C 0.44456 0.12606 0.87817 0.0
C576 C 0.47255 0.14893 0.88609 0.0
C577 C 0.48629 0.23423 0.88808 0.0
C578 C 0.53585 0.22964 0.87856 0.0
C579 C 0.49102 0.21457 0.90661 0.0
N580 N 0.51546 0.21234 0.90153 0.0
C581 C 0.53185 0.24954 0.85958 0.0
C582 C 0.50687 0.25178 0.86439 0.0
C583 C 0.58613 0.21781 0.93554 0.0
C584 C 0.56183 0.15704 0.05094 0.0
C585 C 0.60227 0.18432 1.00074 0.0
C586 C 0.61079 0.19224 0.03361 0.0
C587 C 0.59037 0.17851 0.05883 0.0
N588 N 0.57415 0.16339 0.99315 0.0
C589 C 0.55409 0.14968 0.0178 0.0
Co590 Co 0.405 0.56578 0.10658 0.0
Co591 Co 0.33188 0.51977 0.0905 0.0
O592 O 0.36703 0.53195 0.11683 0.0
C593 C 0.41572 0.51657 0.11593 0.0
O594 O 0.39487 0.50183 0.09424 0.0
C595 C 0.31662 0.52776 0.15792 0.0
O596 O 0.34125 0.55289 0.15645 0.0
O597 O 0.33768 0.55989 0.09176 0.0
O598 O 0.3867 0.58897 0.09107 0.0
H599 H 0.27196 0.52808 0.99889 0.0
H600 H 0.39466 0.53907 0.17359 0.0
O601 O 0.42374 0.54322 0.12233 0.0
H602 H 0.41917 0.64151 0.19199 0.0
H603 H 0.51202 0.63603 0.12748 0.0
H604 H 0.42932 0.608 0.05087 0.0
H605 H 0.41862 0.62341 0.13554 0.0
H606 H 0.46304 0.5943 0.14041 0.0
O607 O 0.30845 0.51051 0.13295 0.0
H608 H 0.31683 0.54324 0.0316 0.0
H609 H 0.27061 0.47011 0.09549 0.0
H610 H 0.47788 0.64993 0.03705 0.0
H611 H 0.3954 0.5564 0.23046 0.0
H612 H 0.51965 0.6642 0.07552 0.0
H613 H 0.40751 0.6079 0.23994 0.0
O614 O 0.40308 0.5513 0.06086 0.0
H615 H 0.3266 0.42968 0.13998 0.0
H616 H 0.31971 0.47617 0.03696 0.0
H617 H 0.31393 0.42669 0.03474 0.0
H618 H 0.31735 0.40313 0.08652 0.0
H619 H 0.33243 0.47921 0.14102 0.0
H620 H 0.22513 0.45428 0.0637 0.0
H621 H 0.22568 0.4833 0.01492 0.0
O622 O 0.35521 0.52989 0.04785 0.0
C623 C 0.36077 0.58485 0.0892 0.0
C624 C 0.27147 0.51517 0.02 0.0
C625 C 0.24518 0.47378 0.0564 0.0
N626 N 0.29639 0.50736 0.06513 0.0
C627 C 0.29684 0.52358 0.03852 0.0
C628 C 0.27097 0.48286 0.07433 0.0
C629 C 0.24551 0.49007 0.02903 0.0
C630 C 0.40042 0.56164 0.17751 0.0
N631 N 0.40673 0.58023 0.15124 0.0
C632 C 0.40063 0.57128 0.20978 0.0
C633 C 0.40737 0.60017 0.21507 0.0
C634 C 0.41388 0.61902 0.18818 0.0
C635 C 0.41346 0.60862 0.15625 0.0
C636 C 0.49398 0.63007 0.11057 0.0
C637 C 0.44734 0.61419 0.06784 0.0
C638 C 0.46621 0.60645 0.11774 0.0
N639 N 0.4433 0.59891 0.09656 0.0
C640 C 0.47481 0.6379 0.05983 0.0
C641 C 0.49824 0.64587 0.08141 0.0
C642 C 0.38222 0.54064 0.03984 0.0
C643 C 0.32496 0.43968 0.11726 0.0
C644 C 0.32126 0.46606 0.05958 0.0
C645 C 0.31792 0.43802 0.05818 0.0
C646 C 0.31982 0.42481 0.08725 0.0
N647 N 0.32625 0.48046 0.08912 0.0
C648 C 0.32811 0.46765 0.11773 0.0
Co649 Co 0.81027 0.33605 0.25823 0.0
Co650 Co 0.83943 0.4084 0.28228 0.0
O651 O 0.83431 0.36935 0.28689 0.0
C652 C 0.78572 0.31871 0.32493 0.0
O653 O 0.78766 0.34453 0.32538 0.0
C654 C 0.89885 0.41636 0.28227 0.0
O655 O 0.88982 0.39534 0.26012 0.0
O656 O 0.84727 0.40875 0.23411 0.0
O657 O 0.82578 0.36155 0.21757 0.0
H658 H 0.8253 0.48648 0.22846 0.0
H659 H 0.84848 0.33124 0.30879 0.0
O660 O 0.79375 0.31057 0.29906 0.0
H661 H 0.88326 0.31582 0.20142 0.0
H662 H 0.76378 0.23003 0.2245 0.0
H663 H 0.77434 0.3263 0.19791 0.0
H664 H 0.84131 0.3243 0.20406 0.0
H665 H 0.79452 0.27331 0.25929 0.0
O666 O 0.88184 0.42537 0.29227 0.0
H667 H 0.81777 0.4366 0.23544 0.0
H668 H 0.87429 0.46469 0.31899 0.0
H669 H 0.7436 0.28371 0.1623 0.0
H670 H 0.89041 0.3227 0.30732 0.0
H671 H 0.73816 0.23513 0.17554 0.0
H672 H 0.90811 0.31501 0.25333 0.0
O673 O 0.77736 0.34413 0.25926 0.0
H674 H 0.84909 0.38968 0.40241 0.0
H675 H 0.80192 0.42403 0.32277 0.0
H676 H 0.79005 0.42164 0.38216 0.0
H677 H 0.81371 0.40433 0.42244 0.0
H678 H 0.86 0.39204 0.34277 0.0
H679 H 0.88259 0.51492 0.31278 0.0
H680 H 0.85792 0.52604 0.26731 0.0
O681 O 0.79696 0.39183 0.27276 0.0
C682 C 0.8395 0.38919 0.2116 0.0
C683 C 0.83608 0.48188 0.24845 0.0
C684 C 0.86828 0.49785 0.29574 0.0
N685 N 0.84537 0.44769 0.27777 0.0
C686 C 0.83183 0.45366 0.25259 0.0
C687 C 0.86354 0.46939 0.2991 0.0
C688 C 0.85442 0.50407 0.27023 0.0
C689 C 0.85587 0.32759 0.28524 0.0
N690 N 0.84237 0.32807 0.25656 0.0
C691 C 0.8797 0.3229 0.28455 0.0
C692 C 0.88965 0.31864 0.25424 0.0
C693 C 0.87572 0.31911 0.2251 0.0
C694 C 0.85201 0.32395 0.22674 0.0
C695 C 0.76603 0.25109 0.21843 0.0
C696 C 0.77226 0.30529 0.20367 0.0
C697 C 0.78336 0.27564 0.23806 0.0
N698 N 0.78641 0.30233 0.23044 0.0
C699 C 0.75474 0.28123 0.18349 0.0
C700 C 0.75167 0.25397 0.19096 0.0
C701 C 0.77543 0.36698 0.26442 0.0
C702 C 0.83866 0.39728 0.38511 0.0
C703 C 0.81215 0.41632 0.34012 0.0
C704 C 0.80546 0.41513 0.37374 0.0
C705 C 0.81877 0.40546 0.39632 0.0
N706 N 0.83153 0.40809 0.32927 0.0
C707 C 0.84484 0.39878 0.35131 0.0
C708 C 0.26564 0.61372 0.40908 0.0
C709 C 0.24219 0.60936 0.4292 0.0
C710 C 0.2919 0.64061 0.40929 0.0
C711 C 0.29489 0.66307 0.43097 0.0
C712 C 0.27154 0.65831 0.45218 0.0
C713 C 0.24516 0.63159 0.45057 0.0
C714 C 0.31605 0.6453 0.38561 0.0
C715 C 0.27433 0.6815 0.47631 0.0
C716 C 0.3717 0.72399 0.45054 0.0
C717 C 0.37333 0.74696 0.43148 0.0
C718 C 0.34609 0.69652 0.45089 0.0
C719 C 0.32215 0.69188 0.43081 0.0
C720 C 0.32407 0.71489 0.41084 0.0
C721 C 0.34955 0.74242 0.4119 0.0
C722 C 0.3444 0.67274 0.47327 0.0
C723 C 0.29924 0.71041 0.38839 0.0
H724 H 0.26301 0.5965 0.39226 0.0
H725 H 0.2269 0.62795 0.46617 0.0
H726 H 0.32098 0.66391 0.36883 0.0
H727 H 0.33641 0.65117 0.39947 0.0
H728 H 0.31014 0.62554 0.37035 0.0
H729 H 0.25487 0.67347 0.49267 0.0
H730 H 0.29409 0.68884 0.49196 0.0
H731 H 0.27708 0.70098 0.46261 0.0
H732 H 0.39012 0.72782 0.46598 0.0
H733 H 0.35108 0.76034 0.39711 0.0
H734 H 0.34016 0.65326 0.45846 0.0
H735 H 0.32585 0.66561 0.49079 0.0
H736 H 0.36485 0.68013 0.48773 0.0
H737 H 0.29321 0.69149 0.37166 0.0
H738 H 0.30496 0.7301 0.37309 0.0
H739 H 0.27959 0.7052 0.40335 0.0
C740 C 0.65184 0.27144 0.56919 0.0
C741 C 0.63026 0.24896 0.58854 0.0
C742 C 0.65404 0.29906 0.56788 0.0
C743 C 0.63481 0.30435 0.58726 0.0
C744 C 0.61366 0.28194 0.60777 0.0
C745 C 0.61129 0.25424 0.60769 0.0
C746 C 0.67621 0.32219 0.54496 0.0
C747 C 0.59335 0.28711 0.62949 0.0
C748 C 0.65477 0.38264 0.60578 0.0
C749 C 0.63514 0.3858 0.58525 0.0
C750 C 0.65514 0.35624 0.6065 0.0
C751 C 0.63607 0.33301 0.58538 0.0
C752 C 0.61714 0.33665 0.56352 0.0
C753 C 0.61652 0.36292 0.56417 0.0
C754 C 0.67494 0.35276 0.63083 0.0
C755 C 0.59713 0.31262 0.53997 0.0
H756 H 0.66622 0.26705 0.55407 0.0
H757 H 0.5947 0.23672 0.62271 0.0
H758 H 0.66475 0.32828 0.52628 0.0
H759 H 0.69098 0.34235 0.55907 0.0
H760 H 0.68973 0.31459 0.53183 0.0
H761 H 0.57969 0.26805 0.64576 0.0
H762 H 0.60619 0.30678 0.64521 0.0
H763 H 0.57859 0.2914 0.61388 0.0
H764 H 0.66886 0.40035 0.62238 0.0
H765 H 0.60144 0.3656 0.54825 0.0
H766 H 0.68921 0.34612 0.61776 0.0
H767 H 0.66148 0.33508 0.64873 0.0
H768 H 0.68902 0.37327 0.64484 0.0
H769 H 0.60979 0.30486 0.52541 0.0
H770 H 0.58579 0.32 0.52256 0.0
H771 H 0.58031 0.29358 0.55417 0.0
C772 C 0.26479 0.64663 0.74424 0.0
C773 C 0.24458 0.62788 0.76778 0.0
C774 C 0.29216 0.64857 0.74094 0.0
C775 C 0.29948 0.63184 0.76221 0.0
C776 C 0.27965 0.61397 0.78704 0.0
C777 C 0.25226 0.61197 0.78928 0.0
C778 C 0.31264 0.66743 0.71381 0.0
C779 C 0.28699 0.59629 0.81061 0.0
C780 C 0.35144 0.60647 0.73431 0.0
C781 C 0.37727 0.62621 0.7508 0.0
C782 C 0.32627 0.60881 0.73685 0.0
C783 C 0.32681 0.63106 0.75699 0.0
C784 C 0.35287 0.6513 0.77346 0.0
C785 C 0.37797 0.64881 0.7699 0.0
C786 C 0.29892 0.58712 0.71848 0.0
C787 C 0.35397 0.67494 0.79562 0.0
H788 H 0.25878 0.6589 0.72759 0.0
H789 H 0.23682 0.59789 0.80786 0.0
H790 H 0.3347 0.68253 0.72406 0.0
H791 H 0.31518 0.65327 0.69532 0.0
H792 H 0.30451 0.68062 0.70092 0.0
H793 H 0.27025 0.58566 0.83035 0.0
H794 H 0.28857 0.57894 0.79673 0.0
H795 H 0.30859 0.61054 0.8224 0.0
H796 H 0.35086 0.58915 0.7193 0.0
H797 H 0.39789 0.66406 0.7828 0.0
H798 H 0.29052 0.59891 0.70334 0.0
H799 H 0.28152 0.57325 0.73645 0.0
H800 H 0.30283 0.57254 0.70197 0.0
H801 H 0.34651 0.68828 0.78194 0.0
H802 H 0.37633 0.68977 0.80542 0.0
H803 H 0.33883 0.66469 0.81683 0.0
C804 C 0.72231 0.3785 0.91212 0.0
C805 C 0.74618 0.38201 0.93083 0.0
C806 C 0.69554 0.35213 0.9132 0.0
C807 C 0.69257 0.32935 0.93433 0.0
C808 C 0.71635 0.33334 0.95431 0.0
C809 C 0.74315 0.35955 0.95185 0.0
C810 C 0.67089 0.34824 0.89083 0.0
C811 C 0.71362 0.3098 0.97784 0.0
C812 C 0.61567 0.26922 0.955 0.0
C813 C 0.61304 0.24639 0.93484 0.0
C814 C 0.64167 0.29635 0.95546 0.0
C815 C 0.66501 0.30081 0.93441 0.0
C816 C 0.66215 0.27794 0.91349 0.0
C817 C 0.63629 0.25074 0.9144 0.0
C818 C 0.64437 0.32 0.9788 0.0
C819 C 0.68632 0.28225 0.89005 0.0
H820 H 0.72496 0.39591 0.8956 0.0
H821 H 0.76174 0.36254 0.9664 0.0
H822 H 0.66523 0.32988 0.87337 0.0
H823 H 0.65099 0.34241 0.90561 0.0
H824 H 0.67668 0.36834 0.87628 0.0
H825 H 0.73338 0.31742 0.99363 0.0
H826 H 0.69423 0.30262 0.99407 0.0
H827 H 0.71028 0.29032 0.96363 0.0
H828 H 0.59765 0.26556 0.97104 0.0
H829 H 0.634 0.23299 0.89869 0.0
H830 H 0.64865 0.3398 0.96465 0.0
H831 H 0.66328 0.32655 0.99565 0.0
H832 H 0.62433 0.31273 0.99398 0.0
H833 H 0.69222 0.30137 0.87371 0.0
H834 H 0.67999 0.26264 0.87434 0.0
H835 H 0.70624 0.28707 0.90425 0.0
C836 C 0.33784 0.72325 0.06942 0.0
C837 C 0.35864 0.74582 0.08937 0.0
C838 C 0.33642 0.69599 0.06809 0.0
C839 C 0.35564 0.69113 0.08806 0.0
C840 C 0.37598 0.71361 0.10915 0.0
C841 C 0.37762 0.74097 0.10906 0.0
C842 C 0.31514 0.67282 0.04455 0.0
C843 C 0.39621 0.70886 0.1315 0.0
C844 C 0.33708 0.61321 0.10629 0.0
C845 C 0.35755 0.61082 0.08646 0.0
C846 C 0.33598 0.63923 0.10685 0.0
C847 C 0.35517 0.66284 0.08626 0.0
C848 C 0.37496 0.65996 0.06506 0.0
C849 C 0.3763 0.63407 0.06589 0.0
C850 C 0.31525 0.64191 0.13051 0.0
C851 C 0.39513 0.68441 0.04204 0.0
H852 H 0.32347 0.72734 0.05389 0.0
H853 H 0.3936 0.75857 0.12452 0.0
H854 H 0.32735 0.66729 0.02627 0.0
H855 H 0.30038 0.6524 0.05824 0.0
H856 H 0.30156 0.68008 0.03094 0.0
H857 H 0.40915 0.72787 0.14814 0.0
H858 H 0.38338 0.68896 0.14689 0.0
H859 H 0.41164 0.70518 0.11638 0.0
H860 H 0.3229 0.59522 0.12251 0.0
H861 H 0.39203 0.63199 0.05052 0.0
H862 H 0.30094 0.64819 0.11695 0.0
H863 H 0.32799 0.65954 0.14876 0.0
H864 H 0.30122 0.62117 0.14415 0.0
H865 H 0.38243 0.69188 0.02707 0.0
H866 H 0.40717 0.67757 0.02502 0.0
H867 H 0.41135 0.70349 0.05669 0.0
C868 C 0.73937 0.3821 0.28018 0.0
C869 C 0.74655 0.36451 0.26088 0.0
C870 C 0.71236 0.38073 0.27647 0.0
C871 C 0.69241 0.36178 0.25232 0.0
C872 C 0.69939 0.34371 0.23296 0.0
C873 C 0.72634 0.34505 0.23777 0.0
C874 C 0.70536 0.39988 0.29804 0.0
C875 C 0.67882 0.32372 0.20653 0.0
C876 C 0.61417 0.34526 0.2607 0.0
C877 C 0.61454 0.36716 0.2406 0.0
C878 C 0.63922 0.34268 0.26413 0.0
C879 C 0.66489 0.36206 0.24646 0.0
C880 C 0.66494 0.38327 0.22493 0.0
C881 C 0.63983 0.38579 0.22256 0.0
C882 C 0.63862 0.32017 0.28779 0.0
C883 C 0.69181 0.40393 0.2052 0.0
H884 H 0.75482 0.39686 0.29835 0.0
H885 H 0.73197 0.33153 0.22273 0.0
H886 H 0.70337 0.41617 0.2825 0.0
H887 H 0.68402 0.38635 0.31065 0.0
H888 H 0.72245 0.41188 0.31712 0.0
H889 H 0.68708 0.31027 0.19451 0.0
H890 H 0.65693 0.3088 0.21727 0.0
H891 H 0.67584 0.33701 0.18724 0.0
H892 H 0.59469 0.33086 0.27478 0.0
H893 H 0.64014 0.40254 0.20677 0.0
H894 H 0.65386 0.33149 0.30866 0.0
H895 H 0.64624 0.30646 0.27523 0.0
H896 H 0.61639 0.30556 0.29803 0.0
H897 H 0.70943 0.4191 0.22223 0.0
H898 H 0.68732 0.41721 0.18728 0.0
H899 H 0.70022 0.39143 0.19143 0.0
C900 C 0.13101 0.55936 0.6716 0.0
C901 C 0.1477 0.58949 0.67884 0.0
C902 C 0.12943 0.54874 0.6393 0.0
C903 C 0.14511 0.56861 0.61345 0.0
C904 C 0.16137 0.59911 0.62033 0.0
C905 C 0.16232 0.60919 0.65285 0.0
C906 C 0.11149 0.51613 0.63299 0.0
C907 C 0.1785 0.62105 0.59351 0.0
C908 C 0.16691 0.54109 0.53725 0.0
C909 C 0.14696 0.53993 0.51343 0.0
C910 C 0.16628 0.54995 0.56998 0.0
C911 C 0.14496 0.55749 0.57933 0.0
C912 C 0.12396 0.55509 0.55583 0.0
C913 C 0.12528 0.54649 0.52323 0.0
C914 C 0.18915 0.55231 0.59423 0.0
C915 C 0.1006 0.56249 0.56482 0.0
H916 H 0.1195 0.54387 0.69136 0.0
H917 H 0.17536 0.63246 0.65805 0.0
H918 H 0.09547 0.51161 0.61284 0.0
H919 H 0.12601 0.50775 0.62472 0.0
H920 H 0.09941 0.50371 0.65538 0.0
H921 H 0.18951 0.64403 0.60269 0.0
H922 H 0.19541 0.61651 0.5834 0.0
H923 H 0.16378 0.61891 0.57276 0.0
H924 H 0.18386 0.53628 0.53003 0.0
H925 H 0.10967 0.54563 0.50514 0.0
H926 H 0.17849 0.5392 0.61674 0.0
H927 H 0.20299 0.57548 0.60216 0.0
H928 H 0.20356 0.54465 0.58349 0.0
H929 H 0.0884 0.54993 0.58705 0.0
H930 H 0.08475 0.55766 0.54435 0.0
H931 H 0.11096 0.58613 0.57108 0.0
C932 C 0.61718 0.16939 0.7008 0.0
C933 C 0.5967 0.15219 0.67649 0.0
C934 C 0.60856 0.16905 0.73387 0.0
C935 C 0.57879 0.15089 0.74298 0.0
C936 C 0.55828 0.13262 0.71886 0.0
C937 C 0.56743 0.13353 0.68601 0.0
C938 C 0.63113 0.18888 0.75884 0.0
C939 C 0.52642 0.11269 0.72753 0.0
C940 C 0.5605 0.13342 0.83436 0.0
C941 C 0.55125 0.15331 0.84342 0.0
C942 C 0.56926 0.13224 0.80181 0.0
C943 C 0.56892 0.15145 0.77754 0.0
C944 C 0.55908 0.17117 0.78627 0.0
C945 C 0.55028 0.1718 0.81901 0.0
C946 C 0.57932 0.1107 0.79353 0.0
C947 C 0.55839 0.19205 0.76113 0.0
H948 H 0.6398 0.18398 0.69381 0.0
H949 H 0.55135 0.12003 0.66757 0.0
H950 H 0.62541 0.20521 0.76818 0.0
H951 H 0.63125 0.17592 0.78043 0.0
H952 H 0.65356 0.20081 0.74818 0.0
H953 H 0.51352 0.09876 0.70632 0.0
H954 H 0.52442 0.09822 0.74853 0.0
H955 H 0.51659 0.12603 0.73556 0.0
H956 H 0.5614 0.119 0.85289 0.0
H957 H 0.54333 0.18734 0.82562 0.0
H958 H 0.60245 0.1227 0.7851 0.0
H959 H 0.56604 0.09625 0.77288 0.0
H960 H 0.57762 0.09675 0.81501 0.0
H961 H 0.58079 0.20669 0.75143 0.0
H962 H 0.5499 0.20582 0.77173 0.0
H963 H 0.54443 0.17959 0.7398 0.0
C964 C 0.41904 0.55136 0.99483 0.0
C965 C 0.39052 0.54414 1.00419 0.0
C966 C 0.42884 0.55911 0.96205 0.0
C967 C 0.40984 0.56003 0.93794 0.0
C968 C 0.38071 0.55178 0.9469 0.0
C969 C 0.37134 0.54373 0.97982 0.0
C970 C 0.45988 0.56723 0.95349 0.0
C971 C 0.35977 0.55263 0.92202 0.0
C972 C 0.44305 0.61051 0.86332 0.0
C973 C 0.43861 0.5905 0.83789 0.0
C974 C 0.43408 0.60093 0.89599 0.0
C975 C 0.42072 0.57063 0.90366 0.0
C976 C 0.41729 0.55049 0.87842 0.0
C977 C 0.42609 0.5606 0.8459 0.0
C978 C 0.43803 0.62316 0.92211 0.0
C979 C 0.40365 0.5181 0.8856 0.0
H980 H 0.43406 0.55166 0.01336 0.0
H981 H 0.34936 0.5384 0.98673 0.0
H982 H 0.46004 0.55446 0.93172 0.0
H983 H 0.47261 0.59079 0.94671 0.0
H984 H 0.47115 0.56325 0.97439 0.0
H985 H 0.33753 0.54444 0.93252 0.0
H986 H 0.36834 0.5755 0.91336 0.0
H987 H 0.35795 0.5392 0.90003 0.0
H988 H 0.45256 0.63361 0.85753 0.0
H989 H 0.4226 0.54488 0.82658 0.0
H990 H 0.45088 0.62199 0.94319 0.0
H991 H 0.41632 0.61806 0.93193 0.0
H992 H 0.44933 0.64595 0.91235 0.0
H993 H 0.41536 0.51455 0.9063 0.0
H994 H 0.40405 0.50552 0.86371 0.0
H995 H 0.38055 0.5091 0.89347 0.0
C996 C 0.86195 0.42947 0.16927 0.0
C997 C 0.84429 0.39945 0.17656 0.0
C998 C 0.86364 0.44024 0.13702 0.0
C999 C 0.84708 0.42065 0.11131 0.0
C1000 C 0.82995 0.39022 0.11821 0.0
C1001 C 0.82892 0.37997 0.15065 0.0
C1002 C 0.88255 0.47275 0.13068 0.0
C1003 C 0.81187 0.36857 0.09153 0.0
C1004 C 0.82536 0.44938 0.03613 0.0
C1005 C 0.84436 0.44954 0.01168 0.0
C1006 C 0.82636 0.44054 0.06877 0.0
C1007 C 0.8471 0.432 0.07737 0.0
C1008 C 0.86724 0.43347 0.05323 0.0
C1009 C 0.86556 0.44207 0.02074 0.0
C1010 C 0.80439 0.43919 0.09371 0.0
C1011 C 0.88999 0.42501 0.06141 0.0
H1012 H 0.87405 0.44479 0.18897 0.0
H1013 H 0.81514 0.35679 0.15588 0.0
H1014 H 0.89792 0.47666 0.10999 0.0
H1015 H 0.86859 0.48202 0.12318 0.0
H1016 H 0.89542 0.48484 0.15284 0.0
H1017 H 0.80035 0.34556 0.10065 0.0
H1018 H 0.79531 0.37386 0.08201 0.0
H1019 H 0.82603 0.37021 0.07038 0.0
H1020 H 0.80879 0.45491 0.02947 0.0
H1021 H 0.88044 0.44217 1.00216 0.0
H1022 H 0.81582 0.45212 0.11606 0.0
H1023 H 0.78998 0.41614 0.10173 0.0
H1024 H 0.79047 0.44767 0.08354 0.0
H1025 H 0.90277 0.43725 0.08351 0.0
H1026 H 0.90539 0.42939 0.04057 0.0
H1027 H 0.87902 0.4013 0.06752 0.0
C1028 C 0.41973 0.86224 0.1864 0.0
C1029 C 0.39063 0.84257 0.17705 0.0
C1030 C 0.42924 0.86365 0.21918 0.0
C1031 C 0.40929 0.84483 0.24339 0.0
C1032 C 0.37968 0.82558 0.23445 0.0
C1033 C 0.37067 0.82478 0.20146 0.0
C1034 C 0.46089 0.88476 0.22769 0.0
C1035 C 0.35771 0.8051 0.25951 0.0
C1036 C 0.43925 0.82564 0.31948 0.0
C1037 C 0.43675 0.84315 0.34403 0.0
C1038 C 0.43066 0.82617 0.28661 0.0
C1039 C 0.41956 0.84486 0.2779 0.0
C1040 C 0.41799 0.86335 0.30226 0.0
C1041 C 0.42649 0.86221 0.33495 0.0
C1042 C 0.43264 0.80605 0.26139 0.0
C1043 C 0.40666 0.88387 0.29399 0.0
H1044 H 0.4354 0.8762 0.16787 0.0
H1045 H 0.34821 0.80941 0.19461 0.0
H1046 H 0.46225 0.89893 0.24875 0.0
H1047 H 0.47174 0.87234 0.23558 0.0
H1048 H 0.47325 0.899 0.20644 0.0
H1049 H 0.33532 0.79216 0.24893 0.0
H1050 H 0.36459 0.78966 0.26889 0.0
H1051 H 0.35687 0.81773 0.28106 0.0
H1052 H 0.44697 0.81072 0.32612 0.0
H1053 H 0.42449 0.87593 0.35359 0.0
H1054 H 0.4461 0.81897 0.23998 0.0
H1055 H 0.41045 0.79042 0.25182 0.0
H1056 H 0.44237 0.79333 0.27188 0.0
H1057 H 0.41932 0.89839 0.2731 0.0
H1058 H 0.40802 0.89776 0.31539 0.0
H1059 H 0.38347 0.87101 0.28593 0.0
C1060 C 0.55547 0.38801 0.36009 0.0
C1061 C 0.5607 0.40795 0.33432 0.0
C1062 C 0.56442 0.39775 0.39272 0.0
C1063 C 0.57859 0.42817 0.40001 0.0
C1064 C 0.58314 0.44833 0.37434 0.0
C1065 C 0.57434 0.43804 0.34187 0.0
C1066 C 0.55932 0.37551 0.4193 0.0
C1067 C 0.5977 0.48086 0.3811 0.0
C1068 C 0.57865 0.44821 0.49063 0.0
C1069 C 0.60664 0.45455 0.50115 0.0
C1070 C 0.56961 0.44056 0.45761 0.0
C1071 C 0.58884 0.43882 0.43444 0.0
C1072 C 0.61748 0.44622 0.44457 0.0
C1073 C 0.6261 0.4542 0.47769 0.0
C1074 C 0.53909 0.43336 0.44781 0.0
C1075 C 0.63861 0.44446 0.42074 0.0
H1076 H 0.54509 0.36477 0.35466 0.0
H1077 H 0.57844 0.45371 0.32227 0.0
H1078 H 0.58059 0.38021 0.4301 0.0
H1079 H 0.54605 0.37709 0.43965 0.0
H1080 H 0.54788 0.35266 0.40968 0.0
H1081 H 0.59862 0.49357 0.35872 0.0
H1082 H 0.58569 0.48515 0.40085 0.0
H1083 H 0.62036 0.4891 0.39015 0.0
H1084 H 0.56342 0.44849 0.50845 0.0
H1085 H 0.64767 0.45884 0.4855 0.0
H1086 H 0.5259 0.40979 0.44116 0.0
H1087 H 0.53993 0.4462 0.42563 0.0
H1088 H 0.52767 0.43798 0.46801 0.0
H1089 H 0.62966 0.42142 0.41248 0.0
H1090 H 0.66049 0.45218 0.43201 0.0
H1091 H 0.64133 0.45781 0.39837 0.0
C1092 C 0.94708 0.41828 0.28894 0.0
C1093 C 0.92764 0.42781 0.29853 0.0
C1094 C 0.974 0.42857 0.30528 0.0
C1095 C 0.9814 0.44862 0.33186 0.0
C1096 C 0.96167 0.45795 0.34187 0.0
C1097 C 0.93513 0.44755 0.32501 0.0
C1098 C -0.00531 0.41835 0.29386 0.0
C1099 C 0.96871 0.47924 0.37019 0.0
C1100 C 0.04081 0.46285 0.39438 0.0
C1101 C 0.06339 0.49025 0.38377 0.0
C1102 C 0.0142 0.44833 0.37697 0.0
C1103 C 0.01043 0.46143 0.34817 0.0
C1104 C 0.03364 0.48848 0.33663 0.0
C1105 C 0.05975 0.50264 0.35468 0.0
C1106 C 0.98976 0.4196 0.3901 0.0
C1107 C 0.03059 0.503 0.30581 0.0
H1108 H 0.94132 0.40286 0.26867 0.0
H1109 H 0.92015 0.45485 0.33284 0.0
H1110 H 0.01526 0.43735 0.28458 0.0
H1111 H 0.00066 0.40886 0.31493 0.0
H1112 H 0.98509 0.40167 0.27387 0.0
H1113 H 0.95033 0.48314 0.37592 0.0
H1114 H 0.97398 0.47081 0.39279 0.0
H1115 H 0.98831 0.50059 0.364 0.0
H1116 H 0.04363 0.45312 0.41672 0.0
H1117 H 0.07731 0.52361 0.34599 0.0
H1118 H 0.98095 0.40286 0.37016 0.0
H1119 H 0.9715 0.42265 0.39882 0.0
H1120 H -0.00297 0.41105 0.41099 0.0
H1121 H 0.02261 0.48727 0.28484 0.0
H1122 H 0.0516 0.5226 0.29851 0.0
H1123 H 0.01415 0.50994 0.31012 0.0
C1124 C 0.475 0.93457 0.49651 0.0
C1125 C 0.48738 0.92894 0.4687 0.0
C1126 C 0.48998 0.96125 0.51351 0.0
C1127 C 0.51792 0.98299 0.50226 0.0
C1128 C 0.53074 0.97741 0.47442 0.0
C1129 C 0.51534 0.95032 0.45801 0.0
C1130 C 0.4757 0.9663 0.54327 0.0
C1131 C 0.56042 0.00026 0.46162 0.0
C1132 C 0.5388 0.0607 0.52516 0.0
C1133 C 0.55753 0.06623 0.55226 0.0
C1134 C 0.52648 0.034 0.50813 0.0
C1135 C 0.53278 0.01212 0.51863 0.0
C1136 C 0.55184 0.01756 0.54576 0.0
C1137 C 0.56414 0.04468 0.56221 0.0
C1138 C 0.50641 0.02908 0.47914 0.0
C1139 C 0.55881 0.99457 0.55774 0.0
H1140 H 0.45354 0.91804 0.5052 0.0
H1141 H 0.52508 0.94602 0.43667 0.0
H1142 H 0.49055 0.97272 0.56498 0.0
H1143 H 0.47155 0.98462 0.5382 0.0
H1144 H 0.45458 0.94653 0.54988 0.0
H1145 H 0.56789 0.99201 0.44062 0.0
H1146 H 0.55957 0.0199 0.45326 0.0
H1147 H 0.57694 0.00745 0.48173 0.0
H1148 H 0.53382 0.07735 0.51704 0.0
H1149 H 0.57874 0.04889 0.58299 0.0
H1150 H 0.48404 0.01085 0.48479 0.0
H1151 H 0.5142 0.02259 0.45692 0.0
H1152 H 0.50502 0.04893 0.47305 0.0
H1153 H 0.53848 0.975 0.56653 0.0
H1154 H 0.57504 0.00271 0.57825 0.0
H1155 H 0.56755 0.98731 0.53709 0.0
C1156 C 0.48036 0.54017 0.68945 0.0
C1157 C 0.4923 0.55877 0.71694 0.0
C1158 C 0.49622 0.52946 0.67256 0.0
C1159 C 0.52464 0.53723 0.68361 0.0
C1160 C 0.5369 0.55594 0.71136 0.0
C1161 C 0.5206 0.56665 0.72765 0.0
C1162 C 0.48246 0.5097 0.64292 0.0
C1163 C 0.56707 0.5644 0.72395 0.0
C1164 C 0.54858 0.48333 0.65822 0.0
C1165 C 0.56624 0.49726 0.63057 0.0
C1166 C 0.53595 0.49672 0.67653 0.0
C1167 C 0.54077 0.52458 0.66672 0.0
C1168 C 0.55901 0.53906 0.63923 0.0
C1169 C 0.57172 0.52527 0.62154 0.0
C1170 C 0.51686 0.4807 0.70591 0.0
C1171 C 0.56436 0.56868 0.6279 0.0
H1172 H 0.45861 0.53416 0.68074 0.0
H1173 H 0.53 0.58113 0.74876 0.0
H1174 H 0.4969 0.51894 0.62099 0.0
H1175 H 0.47992 0.48781 0.64783 0.0
H1176 H 0.4606 0.50674 0.63675 0.0
H1177 H 0.57372 0.57969 0.74534 0.0
H1178 H 0.56762 0.54444 0.73164 0.0
H1179 H 0.58345 0.57494 0.7039 0.0
H1180 H 0.54458 0.46184 0.66568 0.0
H1181 H 0.5855 0.5362 0.60033 0.0
H1182 H 0.49389 0.47483 0.70072 0.0
H1183 H 0.52412 0.4951 0.72806 0.0
H1184 H 0.51723 0.46028 0.71184 0.0
H1185 H 0.54348 0.5667 0.6192 0.0
H1186 H 0.58061 0.57785 0.60748 0.0
H1187 H 0.57228 0.58443 0.64884 0.0
C1188 C 0.04165 0.56682 0.78637 0.0
C1189 C 0.0615 0.55812 0.79693 0.0
C1190 C 0.01437 0.55599 0.80202 0.0
C1191 C 0.00704 0.53628 0.82892 0.0
C1192 C 0.02705 0.52756 0.83971 0.0
C1193 C 0.05392 0.53845 0.8235 0.0
C1194 C 0.99335 0.56549 0.78974 0.0
C1195 C 0.02008 0.50666 0.86841 0.0
C1196 C 0.94782 0.52328 0.89104 0.0
C1197 C 0.9252 0.49565 0.88108 0.0
C1198 C 0.97436 0.53742 0.87352 0.0
C1199 C 0.97806 0.52366 0.84526 0.0
C1200 C 0.95486 0.49632 0.83439 0.0
C1201 C 0.92879 0.48256 0.85254 0.0
C1202 C -0.0012 0.56649 0.88593 0.0
C1203 C 0.95789 0.48111 0.80418 0.0
H1204 H 0.04744 0.58214 0.76599 0.0
H1205 H 0.06918 0.53174 0.83204 0.0
H1206 H 0.97272 0.54606 0.78133 0.0
H1207 H 0.98758 0.57576 0.81018 0.0
H1208 H 0.00259 0.58137 0.76894 0.0
H1209 H 0.03849 0.50287 0.8744 0.0
H1210 H 0.01487 0.51542 0.89078 0.0
H1211 H 0.00047 0.48521 0.86255 0.0
H1212 H 0.94506 0.53357 0.91293 0.0
H1213 H 0.9112 0.4614 0.84436 0.0
H1214 H 0.00731 0.58281 0.86557 0.0
H1215 H 0.01724 0.56378 0.89476 0.0
H1216 H 0.99162 0.57538 0.90658 0.0
H1217 H 0.96574 0.49633 0.78276 0.0
H1218 H 0.9369 0.46128 0.79732 0.0
H1219 H 0.97442 0.47438 0.80899 0.0
C1220 C 0.50752 0.05943 0.99669 0.0
C1221 C 0.49529 0.06477 0.96853 0.0
C1222 C 0.49267 0.03278 0.01371 0.0
C1223 C 0.46499 0.01075 1.00214 0.0
C1224 C 0.45225 0.01605 0.97403 0.0
C1225 C 0.46753 0.04314 0.95759 0.0
C1226 C 0.50688 0.02802 0.04374 0.0
C1227 C 0.42283 0.99289 0.96092 0.0
C1228 C 0.44588 0.9336 0.02519 0.0
C1229 C 0.42704 0.9277 0.05225 0.0
C1230 C 0.45757 0.96019 1.00803 0.0
C1231 C 0.4505 0.98157 0.01835 0.0
C1232 C 0.43124 0.9757 0.04538 0.0
C1233 C 0.4196 0.94871 0.06197 0.0
C1234 C 0.47791 0.96558 0.97918 0.0
C1235 C 0.42344 -0.00184 0.05716 0.0
H1236 H 0.52882 0.07616 1.00559 0.0
H1237 H 0.45791 0.04721 0.93596 0.0
H1238 H 0.49175 0.02121 0.06521 0.0
H1239 H 0.51162 0.01007 0.03878 0.0
H1240 H 0.52769 0.04804 0.05066 0.0
H1241 H 0.41524 0.00103 0.93993 0.0
H1242 H 0.42421 0.97357 0.95243 0.0
H1243 H 0.40616 0.98526 0.98088 0.0
H1244 H 0.45149 0.91735 0.01723 0.0
H1245 H 0.40489 0.94419 0.08271 0.0
H1246 H 0.50009 0.98406 0.98503 0.0
H1247 H 0.47003 0.9719 0.95691 0.0
H1248 H 0.47978 0.94599 0.97309 0.0
H1249 H 0.44341 0.01792 0.06633 0.0
H1250 H 0.40692 0.98959 0.07735 0.0
H1251 H 0.41472 0.00525 0.03633 0.0
C1252 C 0.42442 0.47454 0.12534 0.0
C1253 C 0.4286 0.50193 0.13507 0.0
C1254 C 0.43723 0.46098 0.14323 0.0
C1255 C 0.45422 0.47503 0.17169 0.0
C1256 C 0.45754 0.50212 0.18232 0.0
C1257 C 0.44487 0.51534 0.16375 0.0
C1258 C 0.4335 0.43219 0.13102 0.0
C1259 C 0.47523 0.51761 0.21273 0.0
C1260 C 0.47508 0.43205 0.23046 0.0
C1261 C 0.5037 0.44103 0.21998 0.0
C1262 C 0.45856 0.44295 0.21504 0.0
C1263 C 0.47097 0.463 0.18844 0.0
C1264 C 0.49988 0.47224 0.17796 0.0
C1265 C 0.51592 0.46129 0.19396 0.0
C1266 C 0.42787 0.43293 0.22703 0.0
C1267 C 0.51384 0.49352 0.14958 0.0
H1268 H 0.41169 0.464 0.10333 0.0
H1269 H 0.44781 0.53631 0.17177 0.0
H1270 H 0.45499 0.43541 0.12278 0.0
H1271 H 0.42564 0.41583 0.15134 0.0
H1272 H 0.41784 0.42306 0.11002 0.0
H1273 H 0.47335 0.53708 0.21941 0.0
H1274 H 0.46798 0.50237 0.23414 0.0
H1275 H 0.49867 0.52495 0.20831 0.0
H1276 H 0.46546 0.4163 0.25044 0.0
H1277 H 0.53798 0.46831 0.18554 0.0
H1278 H 0.412 0.42197 0.2066 0.0
H1279 H 0.42601 0.45216 0.23476 0.0
H1280 H 0.42154 0.41746 0.24821 0.0
H1281 H 0.50032 0.48462 0.12692 0.0
H1282 H 0.53636 0.49801 0.14409 0.0
H1283 H 0.51489 0.51461 0.15544 0.0
C1284 C 0.22588 0.49823 0.32886 0.0
C1285 C 0.21569 0.51826 0.32846 0.0
C1286 C 0.24009 0.49488 0.30104 0.0
C1287 C 0.24403 0.51187 0.27222 0.0
C1288 C 0.23233 0.53089 0.2712 0.0
C1289 C 0.2184 0.53387 0.29925 0.0
C1290 C 0.25217 0.4743 0.30308 0.0
C1291 C 0.23584 0.54933 0.24101 0.0
C1292 C 0.31044 0.53778 0.21679 0.0
C1293 C 0.29836 0.52075 0.1882 0.0
C1294 C 0.29328 0.53395 0.24487 0.0
C1295 C 0.26312 0.51257 0.24452 0.0
C1296 C 0.25103 0.49429 0.21635 0.0
C1297 C 0.26883 0.49855 0.18848 0.0
C1298 C 0.3072 0.55386 0.27433 0.0
C1299 C 0.21902 0.47119 0.21505 0.0
H1300 H 0.22379 0.48602 0.35129 0.0
H1301 H 0.21024 0.54912 0.29851 0.0
H1302 H 0.24623 0.46033 0.28063 0.0
H1303 H 0.27644 0.48725 0.30426 0.0
H1304 H 0.24405 0.45993 0.32527 0.0
H1305 H 0.22321 0.56098 0.24308 0.0
H1306 H 0.25932 0.56592 0.23763 0.0
H1307 H 0.22854 0.53544 0.21847 0.0
H1308 H 0.33333 0.55474 0.21703 0.0
H1309 H 0.25936 0.48524 0.16655 0.0
H1310 H 0.30221 0.54076 0.29738 0.0
H1311 H 0.29798 0.56863 0.27713 0.0
H1312 H 0.33137 0.56759 0.27181 0.0
H1313 H 0.21248 0.45777 0.23797 0.0
H1314 H 0.21382 0.45641 0.19336 0.0
H1315 H 0.20558 0.48197 0.21352 0.0
C1316 C 0.76937 0.31117 0.38374 0.0
C1317 C 0.77324 0.29937 0.35427 0.0
C1318 C 0.75499 0.2933 0.41104 0.0
C1319 C 0.7441 0.26271 0.40904 0.0
C1320 C 0.74923 0.25079 0.38 0.0
C1321 C 0.76379 0.26929 0.35289 0.0
C1322 C 0.75016 0.30707 0.44146 0.0
C1323 C 0.73816 0.21833 0.377 0.0
C1324 C 0.71837 0.22328 0.4919 0.0
C1325 C 0.68867 0.21523 0.49147 0.0
C1326 C 0.73654 0.23728 0.46441 0.0
C1327 C 0.72467 0.2433 0.43595 0.0
C1328 C 0.69435 0.23366 0.43481 0.0
C1329 C 0.67679 0.21979 0.46249 0.0
C1330 C 0.7687 0.24701 0.46651 0.0
C1331 C 0.68066 0.23949 0.40504 0.0
H1332 H 0.77696 0.33446 0.38529 0.0
H1333 H 0.76683 0.26003 0.33028 0.0
H1334 H 0.72643 0.29924 0.44428 0.0
H1335 H 0.75737 0.3004 0.46399 0.0
H1336 H 0.76211 0.33143 0.44014 0.0
H1337 H 0.74723 0.21308 0.35489 0.0
H1338 H 0.74389 0.2101 0.39942 0.0
H1339 H 0.71392 0.20633 0.375 0.0
H1340 H 0.72769 0.21972 0.51413 0.0
H1341 H 0.65377 0.21328 0.46169 0.0
H1342 H 0.78159 0.27124 0.46903 0.0
H1343 H 0.77611 0.24113 0.44352 0.0
H1344 H 0.7737 0.23708 0.48801 0.0
H1345 H 0.68918 0.26343 0.40275 0.0
H1346 H 0.65639 0.22821 0.40682 0.0
H1347 H 0.68661 0.23218 0.38205 0.0
C1348 C 0.45347 0.67865 0.62969 0.0
C1349 C 0.46927 0.68991 0.65919 0.0
C1350 C 0.45648 0.69708 0.60313 0.0
C1351 C 0.47585 0.72768 0.60593 0.0
C1352 C 0.4931 0.73908 0.63493 0.0
C1353 C 0.48961 0.72003 0.66128 0.0
C1354 C 0.43767 0.68388 0.57273 0.0
C1355 C 0.51417 0.77153 0.63875 0.0
C1356 C 0.48866 0.76935 0.52475 0.0
C1357 C 0.46691 0.77726 0.52638 0.0
C1358 C 0.49307 0.7546 0.55127 0.0
C1359 C 0.47533 0.74761 0.57998 0.0
C1360 C 0.45447 0.75698 0.58234 0.0
C1361 C 0.45056 0.77166 0.55561 0.0
C1362 C 0.5157 0.7452 0.5479 0.0
C1363 C 0.43507 0.75009 0.61242 0.0
H1364 H 0.43799 0.65535 0.62759 0.0
H1365 H 0.50199 0.72889 0.68392 0.0
H1366 H 0.42152 0.69148 0.57086 0.0
H1367 H 0.45134 0.69125 0.55004 0.0
H1368 H 0.42555 0.6595 0.5733 0.0
H1369 H 0.52872 0.77642 0.66057 0.0
H1370 H 0.5279 0.78045 0.61624 0.0
H1371 H 0.50168 0.7832 0.64178 0.0
H1372 H 0.50148 0.77371 0.50233 0.0
H1373 H 0.43396 0.77802 0.55735 0.0
H1374 H 0.50453 0.72104 0.5447 0.0
H1375 H 0.52924 0.75071 0.57066 0.0
H1376 H 0.53035 0.75569 0.52633 0.0
H1377 H 0.41996 0.72604 0.61403 0.0
H1378 H 0.42176 0.76108 0.61161 0.0
H1379 H 0.44846 0.75697 0.63533 0.0
C1380 C 0.77004 0.45639 0.79967 0.0
C1381 C 0.77405 0.47266 0.82869 0.0
C1382 C 0.75657 0.46015 0.77167 0.0
C1383 C 0.74663 0.48064 0.77256 0.0
C1384 C 0.75179 0.49814 0.80122 0.0
C1385 C 0.76553 0.494 0.82898 0.0
C1386 C 0.75173 0.44112 0.74164 0.0
C1387 C 0.74158 0.52025 0.80313 0.0
C1388 C 0.72393 0.49585 0.68854 0.0
C1389 C 0.69395 0.47494 0.68813 0.0
C1390 C 0.74127 0.49914 0.71655 0.0
C1391 C 0.72825 0.48122 0.74476 0.0
C1392 C 0.69771 0.46126 0.74501 0.0
C1393 C 0.68101 0.45834 0.71676 0.0
C1394 C 0.77373 0.52071 0.71531 0.0
C1395 C 0.68281 0.44181 0.77454 0.0
H1396 H 0.77689 0.44011 0.799 0.0
H1397 H 0.76862 0.50671 0.85127 0.0
H1398 H 0.72793 0.42572 0.73831 0.0
H1399 H 0.75976 0.45482 0.719 0.0
H1400 H 0.76296 0.42809 0.74385 0.0
H1401 H 0.75032 0.53454 0.82532 0.0
H1402 H 0.74837 0.53425 0.78067 0.0
H1403 H 0.7173 0.50857 0.80415 0.0
H1404 H 0.73407 0.50881 0.66655 0.0
H1405 H 0.65778 0.4424 0.71689 0.0
H1406 H 0.78587 0.50857 0.71388 0.0
H1407 H 0.78096 0.53416 0.7382 0.0
H1408 H 0.77983 0.53557 0.69358 0.0
H1409 H 0.6905 0.4258 0.77745 0.0
H1410 H 0.65857 0.42945 0.77198 0.0
H1411 H 0.6886 0.45508 0.79753 0.0
C1412 C 0.30975 0.7726 0.96381 0.0
C1413 C 0.2979 0.77718 0.99279 0.0
C1414 C 0.29209 0.75827 0.93634 0.0
C1415 C 0.26168 0.7482 0.93769 0.0
C1416 C 0.24981 0.75427 0.96611 0.0
C1417 C 0.26809 0.76872 0.9934 0.0
C1418 C 0.30578 0.75238 0.90661 0.0
C1419 C 0.21757 0.74414 0.9684 0.0
C1420 C 0.22231 0.72059 0.855 0.0
C1421 C 0.21338 0.69064 0.85691 0.0
C1422 C 0.23669 0.73955 0.88185 0.0
C1423 C 0.24222 0.72823 0.91113 0.0
C1424 C 0.2318 0.69776 0.91369 0.0
C1425 C 0.21753 0.67942 0.88667 0.0
C1426 C 0.24719 0.77185 0.87829 0.0
C1427 C 0.23711 0.68464 0.94437 0.0
H1428 H 0.33285 0.77944 0.96286 0.0
H1429 H 0.25878 0.77231 0.01562 0.0
H1430 H 0.29757 0.72847 0.90465 0.0
H1431 H 0.29949 0.75926 0.88354 0.0
H1432 H 0.33007 0.764 0.90819 0.0
H1433 H 0.21256 0.75426 0.9897 0.0
H1434 H 0.20982 0.74947 0.9453 0.0
H1435 H 0.205 0.71994 0.97142 0.0
H1436 H 0.21904 0.7294 0.83218 0.0
H1437 H 0.21032 0.65624 0.88864 0.0
H1438 H 0.2714 0.78417 0.87589 0.0
H1439 H 0.24153 0.78023 0.90064 0.0
H1440 H 0.23765 0.77652 0.85619 0.0
H1441 H 0.26092 0.69289 0.94711 0.0
H1442 H 0.22551 0.66028 0.94347 0.0
H1443 H 0.22982 0.69142 0.96676 0.0
C1444 C 0.48756 0.29451 0.13065 0.0
C1445 C 0.50549 0.29868 0.15809 0.0
C1446 C 0.48484 0.27528 0.10497 0.0
C1447 C 0.50151 0.26094 0.10608 0.0
C1448 C 0.51944 0.26491 0.13402 0.0
C1449 C 0.52076 0.28332 0.16002 0.0
C1450 C 0.4646 0.27079 0.07635 0.0
C1451 C 0.53835 0.25089 0.13571 0.0
C1452 C 0.48413 0.19532 0.05117 0.0
C1453 C 0.50308 0.20881 0.0244 0.0
C1454 C 0.48252 0.2121 0.07732 0.0
C1455 C 0.50131 0.24296 0.07738 0.0
C1456 C 0.52051 0.25662 0.05028 0.0
C1457 C 0.52072 0.23941 0.02379 0.0
C1458 C 0.46093 0.19679 0.10501 0.0
C1459 C 0.54163 0.28929 0.04983 0.0
H1460 H 0.47577 0.30645 0.12922 0.0
H1461 H 0.535 0.28697 0.18103 0.0
H1462 H 0.47761 0.2806 0.05357 0.0
H1463 H 0.45004 0.247 0.07156 0.0
H1464 H 0.45083 0.28093 0.08096 0.0
H1465 H 0.55085 0.25594 0.15926 0.0
H1466 H 0.52467 0.22673 0.13323 0.0
H1467 H 0.5541 0.25879 0.11478 0.0
H1468 H 0.47053 0.17162 0.0516 0.0
H1469 H 0.53574 0.24975 1.00331 0.0
H1470 H 0.44742 0.20728 0.10905 0.0
H1471 H 0.47285 0.19891 0.1284 0.0
H1472 H 0.44614 0.17309 0.09983 0.0
H1473 H 0.52945 0.30139 0.051 0.0
H1474 H 0.5556 0.2964 0.0273 0.0
H1475 H 0.55604 0.29569 0.07195 0.0
loop_
_geom_bond_atom_site_label_1
_geom_bond_atom_site_label_2
_geom_bond_distance
_geom_bond_site_symmetry_2
_ccdc_geom_bond_type
Co0 O2 2.143 . S
Co0 O8 2.074 . S
Co0 O11 2.093 . S
Co0 O24 2.097 . S
Co0 N41 2.151 . S
Co0 N49 2.214 . S
Co1 O2 2.160 . S
Co1 O7 2.058 . S
Co1 O17 2.057 . S
Co1 O32 2.037 . S
Co1 N36 2.145 . S
Co1 N57 2.257 . S
O2 Co0 2.143 . S
O2 Co1 2.160 . S
C3 O4 1.278 . S
C3 O11 1.224 . S
O4 C3 1.278 . S
C5 O6 1.245 . S
C5 O17 1.232 . S
O6 C5 1.245 . S
O7 Co1 2.058 . S
O7 C33 1.269 . S
O8 Co0 2.074 . S
O8 C33 1.257 . S
H9 C34 0.930 . S
H10 C40 0.930 . S
O11 Co0 2.093 . S
O11 C3 1.224 . S
H12 C44 0.929 . S
H13 C46 0.930 . S
H14 C47 0.930 . S
H15 C45 0.929 . S
H16 C48 0.928 . S
O17 Co1 2.057 . S
O17 C5 1.232 . S
H18 C37 0.929 . S
H19 C38 0.929 . S
H20 C50 0.931 . S
H21 C42 0.929 . S
H22 C51 0.930 . S
H23 C43 0.931 . S
O24 Co0 2.097 . S
O24 C52 1.214 . S
H25 C53 0.929 . S
H26 C54 0.929 . S
H27 C55 0.930 . S
H28 C56 0.929 . S
H29 C58 0.930 . S
H30 C35 0.930 . S
H31 C39 0.930 . S
O32 Co1 2.037 . S
O32 C52 1.234 . S
C33 O7 1.269 . S
C33 O8 1.257 . S
C34 H9 0.930 . S
C34 C37 1.388 . S
C34 C39 1.418 . S
C35 H30 0.930 . S
C35 C38 1.404 . S
C35 C39 1.353 . S
N36 Co1 2.145 . S
N36 C37 1.397 . S
N36 C38 1.334 . S
C37 H18 0.929 . S
C37 C34 1.388 . S
C37 N36 1.397 . S
C38 H19 0.929 . S
C38 C35 1.404 . S
C38 N36 1.334 . S
C39 H31 0.930 . S
C39 C34 1.418 . S
C39 C35 1.353 . S
C40 H10 0.930 . S
C40 N41 1.330 . S
C40 C42 1.446 . S
N41 Co0 2.151 . S
N41 C40 1.330 . S
N41 C45 1.418 . S
C42 H21 0.929 . S
C42 C40 1.446 . S
C42 C43 1.332 . S
C43 H23 0.931 . S
C43 C42 1.332 . S
C43 C44 1.267 . S
C44 H12 0.929 . S
C44 C43 1.267 . S
C44 C45 1.251 . S
C45 H15 0.929 . S
C45 N41 1.418 . S
C45 C44 1.251 . S
C46 H13 0.930 . S
C46 C48 1.406 . S
C46 C51 1.261 . S
C47 H14 0.930 . S
C47 N49 1.325 . S
C47 C50 1.357 . S
C48 H16 0.928 . S
C48 C46 1.406 . S
C48 N49 1.261 . S
N49 Co0 2.214 . S
N49 C47 1.325 . S
N49 C48 1.261 . S
C50 H20 0.931 . S
C50 C47 1.357 . S
C50 C51 1.312 . S
C51 H22 0.930 . S
C51 C46 1.261 . S
C51 C50 1.312 . S
C52 O24 1.214 . S
C52 O32 1.234 . S
C53 H25 0.929 . S
C53 C56 1.391 . S
C53 C58 1.391 . S
C54 H26 0.929 . S
C54 C55 1.390 . S
C54 N57 1.391 . S
C55 H27 0.930 . S
C55 C54 1.390 . S
C55 C56 1.392 . S
C56 H28 0.929 . S
C56 C53 1.391 . S
C56 C55 1.392 . S
N57 Co1 2.257 . S
N57 C54 1.391 . S
N57 C58 1.388 . S
C58 H29 0.930 . S
C58 C53 1.391 . S
C58 N57 1.388 . S
Co59 O61 2.143 . S
Co59 O67 2.074 . S
Co59 O70 2.093 . S
Co59 O83 2.097 . S
Co59 N100 2.151 . S
Co59 N108 2.214 . S
Co60 O61 2.160 . S
Co60 O66 2.058 . S
Co60 O76 2.057 . S
Co60 O91 2.037 . S
Co60 N95 2.145 . S
Co60 N116 2.257 . S
O61 Co59 2.143 . S
O61 Co60 2.160 . S
C62 O63 1.278 . S
C62 O70 1.224 . S
O63 C62 1.278 . S
C64 O65 1.245 . S
C64 O76 1.232 . S
O65 C64 1.245 . S
O66 Co60 2.058 . S
O66 C92 1.269 . S
O67 Co59 2.074 . S
O67 C92 1.257 . S
H68 C93 0.930 . S
H69 C99 0.930 . S
O70 Co59 2.093 . S
O70 C62 1.224 . S
H71 C103 0.929 . S
H72 C105 0.930 . S
H73 C106 0.930 . S
H74 C104 0.929 . S
H75 C107 0.928 . S
O76 Co60 2.057 . S
O76 C64 1.232 . S
H77 C96 0.929 . S
H78 C97 0.929 . S
H79 C109 0.931 . S
H80 C101 0.929 . S
H81 C110 0.930 . S
H82 C102 0.931 . S
O83 Co59 2.097 . S
O83 C111 1.214 . S
H84 C112 0.929 . S
H85 C113 0.929 . S
H86 C114 0.930 . S
H87 C115 0.929 . S
H88 C117 0.930 . S
H89 C94 0.930 . S
H90 C98 0.930 . S
O91 Co60 2.037 . S
O91 C111 1.234 . S
C92 O66 1.269 . S
C92 O67 1.257 . S
C93 H68 0.930 . S
C93 C96 1.388 . S
C93 C98 1.418 . S
C94 H89 0.930 . S
C94 C97 1.404 . S
C94 C98 1.353 . S
N95 Co60 2.145 . S
N95 C96 1.397 . S
N95 C97 1.334 . S
C96 H77 0.929 . S
C96 C93 1.388 . S
C96 N95 1.397 . S
C97 H78 0.929 . S
C97 C94 1.404 . S
C97 N95 1.334 . S
C98 H90 0.930 . S
C98 C93 1.418 . S
C98 C94 1.353 . S
C99 H69 0.930 . S
C99 N100 1.330 . S
C99 C101 1.446 . S
N100 Co59 2.151 . S
N100 C99 1.330 . S
N100 C104 1.418 . S
C101 H80 0.929 . S
C101 C99 1.446 . S
C101 C102 1.332 . S
C102 H82 0.931 . S
C102 C101 1.332 . S
C102 C103 1.267 . S
C103 H71 0.929 . S
C103 C102 1.267 . S
C103 C104 1.251 . S
C104 H74 0.929 . S
C104 N100 1.418 . S
C104 C103 1.251 . S
C105 H72 0.930 . S
C105 C107 1.406 . S
C105 C110 1.261 . S
C106 H73 0.930 . S
C106 N108 1.325 . S
C106 C109 1.357 . S
C107 H75 0.928 . S
C107 C105 1.406 . S
C107 N108 1.261 . S
N108 Co59 2.214 . S
N108 C106 1.325 . S
N108 C107 1.261 . S
C109 H79 0.931 . S
C109 C106 1.357 . S
C109 C110 1.312 . S
C110 H81 0.930 . S
C110 C105 1.261 . S
C110 C109 1.312 . S
C111 O83 1.214 . S
C111 O91 1.234 . S
C112 H84 0.929 . S
C112 C115 1.391 . S
C112 C117 1.391 . S
C113 H85 0.929 . S
C113 C114 1.390 . S
C113 N116 1.391 . S
C114 H86 0.930 . S
C114 C113 1.390 . S
C114 C115 1.392 . S
C115 H87 0.929 . S
C115 C112 1.391 . S
C115 C114 1.392 . S
N116 Co60 2.257 . S
N116 C113 1.391 . S
N116 C117 1.388 . S
C117 H88 0.930 . S
C117 C112 1.391 . S
C117 N116 1.388 . S
Co118 O120 2.143 . S
Co118 O126 2.074 . S
Co118 O129 2.093 . S
Co118 O142 2.097 . S
Co118 N159 2.151 . S
Co118 N167 2.214 . S
Co119 O120 2.160 . S
Co119 O125 2.058 . S
Co119 O135 2.057 . S
Co119 O150 2.037 . S
Co119 N154 2.145 . S
Co119 N175 2.257 . S
O120 Co118 2.143 . S
O120 Co119 2.160 . S
C121 O122 1.278 . S
C121 O129 1.224 . S
O122 C121 1.278 . S
C123 O124 1.245 . S
C123 O135 1.232 . S
O124 C123 1.245 . S
O125 Co119 2.058 . S
O125 C151 1.269 . S
O126 Co118 2.074 . S
O126 C151 1.257 . S
H127 C152 0.930 . S
H128 C158 0.930 . S
O129 Co118 2.093 . S
O129 C121 1.224 . S
H130 C162 0.929 . S
H131 C164 0.930 . S
H132 C165 0.930 . S
H133 C163 0.929 . S
H134 C166 0.928 . S
O135 Co119 2.057 . S
O135 C123 1.232 . S
H136 C155 0.929 . S
H137 C156 0.929 . S
H138 C168 0.931 . S
H139 C160 0.929 . S
H140 C169 0.930 . S
H141 C161 0.931 . S
O142 Co118 2.097 . S
O142 C170 1.214 . S
H143 C171 0.929 . S
H144 C172 0.929 . S
H145 C173 0.930 . S
H146 C174 0.929 . S
H147 C176 0.930 . S
H148 C153 0.930 . S
H149 C157 0.930 . S
O150 Co119 2.037 . S
O150 C170 1.234 . S
C151 O125 1.269 . S
C151 O126 1.257 . S
C152 H127 0.930 . S
C152 C155 1.388 . S
C152 C157 1.418 . S
C153 H148 0.930 . S
C153 C156 1.404 . S
C153 C157 1.353 . S
N154 Co119 2.145 . S
N154 C155 1.397 . S
N154 C156 1.334 . S
C155 H136 0.929 . S
C155 C152 1.388 . S
C155 N154 1.397 . S
C156 H137 0.929 . S
C156 C153 1.404 . S
C156 N154 1.334 . S
C157 H149 0.930 . S
C157 C152 1.418 . S
C157 C153 1.353 . S
C158 H128 0.930 . S
C158 N159 1.330 . S
C158 C160 1.446 . S
N159 Co118 2.151 . S
N159 C158 1.330 . S
N159 C163 1.418 . S
C160 H139 0.929 . S
C160 C158 1.446 . S
C160 C161 1.332 . S
C161 H141 0.931 . S
C161 C160 1.332 . S
C161 C162 1.267 . S
C162 H130 0.929 . S
C162 C161 1.267 . S
C162 C163 1.251 . S
C163 H133 0.929 . S
C163 N159 1.418 . S
C163 C162 1.251 . S
C164 H131 0.930 . S
C164 C166 1.406 . S
C164 C169 1.261 . S
C165 H132 0.930 . S
C165 N167 1.325 . S
C165 C168 1.357 . S
C166 H134 0.928 . S
C166 C164 1.406 . S
C166 N167 1.261 . S
N167 Co118 2.214 . S
N167 C165 1.325 . S
N167 C166 1.261 . S
C168 H138 0.931 . S
C168 C165 1.357 . S
C168 C169 1.312 . S
C169 H140 0.930 . S
C169 C164 1.261 . S
C169 C168 1.312 . S
C170 O142 1.214 . S
C170 O150 1.234 . S
C171 H143 0.929 . S
C171 C174 1.391 . S
C171 C176 1.391 . S
C172 H144 0.929 . S
C172 C173 1.390 . S
C172 N175 1.391 . S
C173 H145 0.930 . S
C173 C172 1.390 . S
C173 C174 1.392 . S
C174 H146 0.929 . S
C174 C171 1.391 . S
C174 C173 1.392 . S
N175 Co119 2.257 . S
N175 C172 1.391 . S
N175 C176 1.388 . S
C176 H147 0.930 . S
C176 C171 1.391 . S
C176 N175 1.388 . S
Co177 O179 2.143 . S
Co177 O185 2.074 . S
Co177 O188 2.093 . S
Co177 O201 2.097 . S
Co177 N218 2.151 . S
Co177 N226 2.214 . S
Co178 O179 2.160 . S
Co178 O184 2.058 . S
Co178 O194 2.057 . S
Co178 O209 2.037 . S
Co178 N213 2.145 . S
Co178 N234 2.257 . S
O179 Co177 2.143 . S
O179 Co178 2.160 . S
C180 O181 1.278 . S
C180 O188 1.224 . S
O181 C180 1.278 . S
C182 O183 1.245 . S
C182 O194 1.232 . S
O183 C182 1.245 . S
O184 Co178 2.058 . S
O184 C210 1.269 . S
O185 Co177 2.074 . S
O185 C210 1.257 . S
H186 C211 0.924 1_554 S
H187 C217 0.930 . S
O188 Co177 2.093 . S
O188 C180 1.224 . S
H189 C221 0.929 . S
H190 C223 0.930 . S
H191 C224 0.930 . S
H192 C222 0.929 . S
H193 C225 0.928 . S
O194 Co178 2.057 . S
O194 C182 1.232 . S
H195 C214 0.929 . S
H196 C215 0.929 . S
H197 C227 0.931 . S
H198 C219 0.929 . S
H199 C228 0.930 . S
H200 C220 0.931 . S
O201 Co177 2.097 . S
O201 C229 1.214 . S
H202 C230 0.929 . S
H203 C231 0.929 . S
H204 C232 0.930 . S
H205 C233 0.929 . S
H206 C235 0.930 . S
H207 C212 0.930 . S
H208 C216 0.930 . S
O209 Co178 2.037 . S
O209 C229 1.234 . S
C210 O184 1.269 . S
C210 O185 1.257 . S
C211 H186 0.924 1_556 S
C211 C214 1.388 . S
C211 C216 1.418 . S
C212 H207 0.930 . S
C212 C215 1.404 . S
C212 C216 1.353 . S
N213 Co178 2.145 . S
N213 C214 1.397 . S
N213 C215 1.334 . S
C214 H195 0.929 . S
C214 C211 1.388 . S
C214 N213 1.397 . S
C215 H196 0.929 . S
C215 C212 1.404 . S
C215 N213 1.334 . S
C216 H208 0.930 . S
C216 C211 1.418 . S
C216 C212 1.353 . S
C217 H187 0.930 . S
C217 N218 1.330 . S
C217 C219 1.446 . S
N218 Co177 2.151 . S
N218 C217 1.330 . S
N218 C222 1.418 . S
C219 H198 0.929 . S
C219 C217 1.446 . S
C219 C220 1.332 . S
C220 H200 0.931 . S
C220 C219 1.332 . S
C220 C221 1.267 . S
C221 H189 0.929 . S
C221 C220 1.267 . S
C221 C222 1.251 . S
C222 H192 0.929 . S
C222 N218 1.418 . S
C222 C221 1.251 . S
C223 H190 0.930 . S
C223 C225 1.406 . S
C223 C228 1.261 . S
C224 H191 0.930 . S
C224 N226 1.325 . S
C224 C227 1.357 . S
C225 H193 0.928 . S
C225 C223 1.406 . S
C225 N226 1.261 . S
N226 Co177 2.214 . S
N226 C224 1.325 . S
N226 C225 1.261 . S
C227 H197 0.931 . S
C227 C224 1.357 . S
C227 C228 1.312 . S
C228 H199 0.930 . S
C228 C223 1.261 . S
C228 C227 1.312 . S
C229 O201 1.214 . S
C229 O209 1.234 . S
C230 H202 0.929 . S
C230 C233 1.391 . S
C230 C235 1.391 . S
C231 H203 0.929 . S
C231 C232 1.390 . S
C231 N234 1.391 . S
C232 H204 0.930 . S
C232 C231 1.390 . S
C232 C233 1.392 . S
C233 H205 0.929 . S
C233 C230 1.391 . S
C233 C232 1.392 . S
N234 Co178 2.257 . S
N234 C231 1.391 . S
N234 C235 1.388 . S
C235 H206 0.930 . S
C235 C230 1.391 . S
C235 N234 1.388 . S
Co236 O238 2.143 . S
Co236 O244 2.074 . S
Co236 O247 2.093 . S
Co236 O260 2.097 . S
Co236 N277 2.151 . S
Co236 N285 2.214 . S
Co237 O238 2.160 . S
Co237 O243 2.058 . S
Co237 O253 2.057 . S
Co237 O268 2.037 . S
Co237 N272 2.145 . S
Co237 N293 2.257 . S
O238 Co236 2.143 . S
O238 Co237 2.160 . S
C239 O240 1.278 1_554 S
C239 O247 1.224 . S
O240 C239 1.278 1_556 S
C241 O242 1.245 . S
C241 O253 1.232 . S
O242 C241 1.245 . S
O243 Co237 2.058 . S
O243 C269 1.269 . S
O244 Co236 2.074 . S
O244 C269 1.257 . S
H245 C270 0.930 . S
H246 C276 0.930 . S
O247 Co236 2.093 . S
O247 C239 1.224 . S
H248 C280 0.929 . S
H249 C282 0.930 . S
H250 C283 0.930 . S
H251 C281 0.929 . S
H252 C284 0.928 . S
O253 Co237 2.057 . S
O253 C241 1.232 . S
H254 C273 0.929 . S
H255 C274 0.929 . S
H256 C286 0.931 . S
H257 C278 0.929 . S
H258 C287 0.930 . S
H259 C279 0.931 . S
O260 Co236 2.097 . S
O260 C288 1.214 . S
H261 C289 0.929 . S
H262 C290 0.929 . S
H263 C291 0.930 . S
H264 C292 0.929 . S
H265 C294 0.930 . S
H266 C271 0.930 . S
H267 C275 0.930 . S
O268 Co237 2.037 . S
O268 C288 1.234 . S
C269 O243 1.269 . S
C269 O244 1.257 . S
C270 H245 0.930 . S
C270 C273 1.388 . S
C270 C275 1.418 . S
C271 H266 0.930 . S
C271 C274 1.404 . S
C271 C275 1.353 . S
N272 Co237 2.145 . S
N272 C273 1.397 . S
N272 C274 1.334 . S
C273 H254 0.929 . S
C273 C270 1.388 . S
C273 N272 1.397 . S
C274 H255 0.929 . S
C274 C271 1.404 . S
C274 N272 1.334 . S
C275 H267 0.930 . S
C275 C270 1.418 . S
C275 C271 1.353 . S
C276 H246 0.930 . S
C276 N277 1.330 . S
C276 C278 1.446 . S
N277 Co236 2.151 . S
N277 C276 1.330 . S
N277 C281 1.418 . S
C278 H257 0.929 . S
C278 C276 1.446 . S
C278 C279 1.332 . S
C279 H259 0.931 . S
C279 C278 1.332 . S
C279 C280 1.267 . S
C280 H248 0.929 . S
C280 C279 1.267 . S
C280 C281 1.251 . S
C281 H251 0.929 . S
C281 N277 1.418 . S
C281 C280 1.251 . S
C282 H249 0.930 . S
C282 C284 1.406 . S
C282 C287 1.261 . S
C283 H250 0.930 . S
C283 N285 1.325 . S
C283 C286 1.357 . S
C284 H252 0.928 . S
C284 C282 1.406 . S
C284 N285 1.261 . S
N285 Co236 2.214 . S
N285 C283 1.325 . S
N285 C284 1.261 . S
C286 H256 0.931 . S
C286 C283 1.357 . S
C286 C287 1.312 . S
C287 H258 0.930 . S
C287 C282 1.261 . S
C287 C286 1.312 . S
C288 O260 1.214 . S
C288 O268 1.234 . S
C289 H261 0.929 . S
C289 C292 1.391 . S
C289 C294 1.391 . S
C290 H262 0.929 . S
C290 C291 1.390 1_554 S
C290 N293 1.391 . S
C291 H263 0.930 . S
C291 C290 1.390 1_556 S
C291 C292 1.392 . S
C292 H264 0.929 . S
C292 C289 1.391 . S
C292 C291 1.392 . S
N293 Co237 2.257 . S
N293 C290 1.391 . S
N293 C294 1.388 1_554 S
C294 H265 0.930 . S
C294 C289 1.391 . S
C294 N293 1.388 1_556 S
Co295 O297 2.143 . S
Co295 O303 2.074 . S
Co295 O306 2.093 . S
Co295 O319 2.097 . S
Co295 N336 2.151 . S
Co295 N344 2.214 . S
Co296 O297 2.160 . S
Co296 O302 2.058 . S
Co296 O312 2.057 . S
Co296 O327 2.037 . S
Co296 N331 2.145 . S
Co296 N352 2.257 . S
O297 Co295 2.143 . S
O297 Co296 2.160 . S
C298 O299 1.278 . S
C298 O306 1.224 . S
O299 C298 1.278 . S
C300 O301 1.245 . S
C300 O312 1.232 . S
O301 C300 1.245 . S
O302 Co296 2.058 . S
O302 C328 1.269 . S
O303 Co295 2.074 . S
O303 C328 1.257 . S
H304 C329 0.930 . S
H305 C335 0.930 . S
O306 Co295 2.093 . S
O306 C298 1.224 . S
H307 C339 0.929 . S
H308 C341 0.930 . S
H309 C342 0.930 . S
H310 C340 0.929 . S
H311 C343 0.928 . S
O312 Co296 2.057 . S
O312 C300 1.232 . S
H313 C332 0.929 . S
H314 C333 0.929 . S
H315 C345 0.931 . S
H316 C337 0.929 . S
H317 C346 0.930 . S
H318 C338 0.931 . S
O319 Co295 2.097 . S
O319 C347 1.214 . S
H320 C348 0.929 . S
H321 C349 0.929 . S
H322 C350 0.930 . S
H323 C351 0.929 . S
H324 C353 0.930 . S
H325 C330 0.930 . S
H326 C334 0.930 . S
O327 Co296 2.037 . S
O327 C347 1.234 . S
C328 O302 1.269 . S
C328 O303 1.257 . S
C329 H304 0.930 . S
C329 C332 1.388 . S
C329 C334 1.418 . S
C330 H325 0.930 . S
C330 C333 1.404 . S
C330 C334 1.353 . S
N331 Co296 2.145 . S
N331 C332 1.397 . S
N331 C333 1.334 . S
C332 H313 0.929 . S
C332 C329 1.388 . S
C332 N331 1.397 . S
C333 H314 0.929 . S
C333 C330 1.404 . S
C333 N331 1.334 . S
C334 H326 0.930 . S
C334 C329 1.418 . S
C334 C330 1.353 . S
C335 H305 0.930 . S
C335 N336 1.330 . S
C335 C337 1.446 . S
N336 Co295 2.151 . S
N336 C335 1.330 . S
N336 C340 1.418 . S
C337 H316 0.929 . S
C337 C335 1.446 . S
C337 C338 1.332 . S
C338 H318 0.931 . S
C338 C337 1.332 . S
C338 C339 1.267 . S
C339 H307 0.929 . S
C339 C338 1.267 . S
C339 C340 1.251 . S
C340 H310 0.929 . S
C340 N336 1.418 . S
C340 C339 1.251 . S
C341 H308 0.930 . S
C341 C343 1.406 . S
C341 C346 1.261 . S
C342 H309 0.930 . S
C342 N344 1.325 . S
C342 C345 1.357 . S
C343 H311 0.928 . S
C343 C341 1.406 . S
C343 N344 1.261 . S
N344 Co295 2.214 . S
N344 C342 1.325 . S
N344 C343 1.261 . S
C345 H315 0.931 . S
C345 C342 1.357 . S
C345 C346 1.312 . S
C346 H317 0.930 . S
C346 C341 1.261 . S
C346 C345 1.312 . S
C347 O319 1.214 . S
C347 O327 1.234 . S
C348 H320 0.929 . S
C348 C351 1.391 . S
C348 C353 1.391 . S
C349 H321 0.929 . S
C349 C350 1.390 . S
C349 N352 1.391 . S
C350 H322 0.930 . S
C350 C349 1.390 . S
C350 C351 1.392 . S
C351 H323 0.929 . S
C351 C348 1.391 . S
C351 C350 1.392 . S
N352 Co296 2.257 . S
N352 C349 1.391 . S
N352 C353 1.388 . S
C353 H324 0.930 . S
C353 C348 1.391 . S
C353 N352 1.388 . S
Co354 O356 2.143 . S
Co354 O362 2.074 . S
Co354 O365 2.093 . S
Co354 O378 2.097 . S
Co354 N395 2.151 . S
Co354 N403 2.214 . S
Co355 O356 2.160 . S
Co355 O361 2.058 . S
Co355 O371 2.057 . S
Co355 O386 2.037 . S
Co355 N390 2.145 . S
Co355 N411 2.257 . S
O356 Co354 2.143 . S
O356 Co355 2.160 . S
C357 O358 1.278 . S
C357 O365 1.224 . S
O358 C357 1.278 . S
C359 O360 1.245 . S
C359 O371 1.232 . S
O360 C359 1.245 . S
O361 Co355 2.058 . S
O361 C387 1.269 . S
O362 Co354 2.074 . S
O362 C387 1.257 . S
H363 C388 0.930 . S
H364 C394 0.930 . S
O365 Co354 2.093 . S
O365 C357 1.224 . S
H366 C398 0.929 . S
H367 C400 0.930 . S
H368 C401 0.930 . S
H369 C399 0.929 . S
H370 C402 0.928 . S
O371 Co355 2.057 . S
O371 C359 1.232 . S
H372 C391 0.929 . S
H373 C392 0.929 . S
H374 C404 0.931 . S
H375 C396 0.929 . S
H376 C405 0.930 . S
H377 C397 0.931 . S
O378 Co354 2.097 . S
O378 C406 1.214 . S
H379 C407 0.929 . S
H380 C408 0.929 . S
H381 C409 0.930 . S
H382 C410 0.929 . S
H383 C412 0.930 . S
H384 C389 0.930 . S
H385 C393 0.930 . S
O386 Co355 2.037 . S
O386 C406 1.234 . S
C387 O361 1.269 . S
C387 O362 1.257 . S
C388 H363 0.930 . S
C388 C391 1.388 . S
C388 C393 1.418 . S
C389 H384 0.930 . S
C389 C392 1.404 . S
C389 C393 1.353 . S
N390 Co355 2.145 . S
N390 C391 1.397 . S
N390 C392 1.334 . S
C391 H372 0.929 . S
C391 C388 1.388 . S
C391 N390 1.397 . S
C392 H373 0.929 . S
C392 C389 1.404 . S
C392 N390 1.334 . S
C393 H385 0.930 . S
C393 C388 1.418 . S
C393 C389 1.353 . S
C394 H364 0.930 . S
C394 N395 1.330 . S
C394 C396 1.446 . S
N395 Co354 2.151 . S
N395 C394 1.330 . S
N395 C399 1.418 . S
C396 H375 0.929 . S
C396 C394 1.446 . S
C396 C397 1.332 . S
C397 H377 0.931 . S
C397 C396 1.332 . S
C397 C398 1.267 . S
C398 H366 0.929 . S
C398 C397 1.267 . S
C398 C399 1.251 . S
C399 H369 0.929 . S
C399 N395 1.418 . S
C399 C398 1.251 . S
C400 H367 0.930 . S
C400 C402 1.406 . S
C400 C405 1.261 . S
C401 H368 0.930 . S
C401 N403 1.325 . S
C401 C404 1.357 . S
C402 H370 0.928 . S
C402 C400 1.406 . S
C402 N403 1.261 . S
N403 Co354 2.214 . S
N403 C401 1.325 . S
N403 C402 1.261 . S
C404 H374 0.931 . S
C404 C401 1.357 . S
C404 C405 1.312 . S
C405 H376 0.930 . S
C405 C400 1.261 . S
C405 C404 1.312 . S
C406 O378 1.214 . S
C406 O386 1.234 . S
C407 H379 0.929 . S
C407 C410 1.391 . S
C407 C412 1.391 . S
C408 H380 0.929 . S
C408 C409 1.390 . S
C408 N411 1.391 . S
C409 H381 0.930 . S
C409 C408 1.390 . S
C409 C410 1.392 . S
C410 H382 0.929 . S
C410 C407 1.391 . S
C410 C409 1.392 . S
N411 Co355 2.257 . S
N411 C408 1.391 . S
N411 C412 1.388 . S
C412 H383 0.930 . S
C412 C407 1.391 . S
C412 N411 1.388 . S
Co413 O415 2.143 . S
Co413 O421 2.074 . S
Co413 O424 2.093 . S
Co413 O437 2.097 . S
Co413 N454 2.151 . S
Co413 N462 2.214 . S
Co414 O415 2.160 . S
Co414 O420 2.058 . S
Co414 O430 2.057 . S
Co414 O445 2.037 . S
Co414 N449 2.145 . S
Co414 N470 2.257 . S
O415 Co413 2.143 . S
O415 Co414 2.160 . S
C416 O417 1.278 . S
C416 O424 1.224 . S
O417 C416 1.278 . S
C418 O419 1.245 . S
C418 O430 1.232 . S
O419 C418 1.245 . S
O420 Co414 2.058 . S
O420 C446 1.269 . S
O421 Co413 2.074 . S
O421 C446 1.257 . S
H422 C447 0.930 . S
H423 C453 0.930 . S
O424 Co413 2.093 . S
O424 C416 1.224 . S
H425 C457 0.929 . S
H426 C459 0.930 . S
H427 C460 0.930 . S
H428 C458 0.929 . S
H429 C461 0.928 . S
O430 Co414 2.057 . S
O430 C418 1.232 . S
H431 C450 0.929 . S
H432 C451 0.929 . S
H433 C463 0.931 . S
H434 C455 0.929 . S
H435 C464 0.930 . S
H436 C456 0.931 . S
O437 Co413 2.097 . S
O437 C465 1.214 . S
H438 C466 0.929 . S
H439 C467 0.929 . S
H440 C468 0.930 . S
H441 C469 0.929 . S
H442 C471 0.930 . S
H443 C448 0.930 . S
H444 C452 0.930 . S
O445 Co414 2.037 . S
O445 C465 1.234 . S
C446 O420 1.269 . S
C446 O421 1.257 . S
C447 H422 0.930 . S
C447 C450 1.388 . S
C447 C452 1.418 . S
C448 H443 0.930 . S
C448 C451 1.404 . S
C448 C452 1.353 . S
N449 Co414 2.145 . S
N449 C450 1.397 . S
N449 C451 1.334 . S
C450 H431 0.929 . S
C450 C447 1.388 . S
C450 N449 1.397 . S
C451 H432 0.929 . S
C451 C448 1.404 . S
C451 N449 1.334 . S
C452 H444 0.930 . S
C452 C447 1.418 . S
C452 C448 1.353 . S
C453 H423 0.930 . S
C453 N454 1.330 . S
C453 C455 1.446 . S
N454 Co413 2.151 . S
N454 C453 1.330 . S
N454 C458 1.418 . S
C455 H434 0.929 . S
C455 C453 1.446 . S
C455 C456 1.332 . S
C456 H436 0.931 . S
C456 C455 1.332 . S
C456 C457 1.267 . S
C457 H425 0.929 . S
C457 C456 1.267 . S
C457 C458 1.251 . S
C458 H428 0.929 . S
C458 N454 1.418 . S
C458 C457 1.251 . S
C459 H426 0.930 . S
C459 C461 1.406 . S
C459 C464 1.261 . S
C460 H427 0.930 . S
C460 N462 1.325 . S
C460 C463 1.357 . S
C461 H429 0.928 . S
C461 C459 1.406 . S
C461 N462 1.261 . S
N462 Co413 2.214 . S
N462 C460 1.325 . S
N462 C461 1.261 . S
C463 H433 0.931 . S
C463 C460 1.357 . S
C463 C464 1.312 . S
C464 H435 0.930 . S
C464 C459 1.261 . S
C464 C463 1.312 . S
C465 O437 1.214 . S
C465 O445 1.234 . S
C466 H438 0.929 . S
C466 C469 1.391 . S
C466 C471 1.391 . S
C467 H439 0.929 . S
C467 C468 1.390 . S
C467 N470 1.391 . S
C468 H440 0.930 . S
C468 C467 1.390 . S
C468 C469 1.392 . S
C469 H441 0.929 . S
C469 C466 1.391 . S
C469 C468 1.392 . S
N470 Co414 2.257 . S
N470 C467 1.391 . S
N470 C471 1.388 . S
C471 H442 0.930 . S
C471 C466 1.391 . S
C471 N470 1.388 . S
Co472 O474 2.143 . S
Co472 O480 2.074 . S
Co472 O483 2.093 . S
Co472 O496 2.097 . S
Co472 N513 2.151 . S
Co472 N521 2.214 . S
Co473 O474 2.160 . S
Co473 O479 2.058 . S
Co473 O489 2.057 . S
Co473 O504 2.037 . S
Co473 N508 2.145 . S
Co473 N529 2.257 . S
O474 Co472 2.143 . S
O474 Co473 2.160 . S
C475 O476 1.278 . S
C475 O483 1.224 . S
O476 C475 1.278 . S
C477 O478 1.245 . S
C477 O489 1.232 . S
O478 C477 1.245 . S
O479 Co473 2.058 . S
O479 C505 1.269 . S
O480 Co472 2.074 . S
O480 C505 1.257 . S
H481 C506 0.930 . S
H482 C512 0.930 . S
O483 Co472 2.093 . S
O483 C475 1.224 . S
H484 C516 0.929 . S
H485 C518 0.930 . S
H486 C519 0.930 . S
H487 C517 0.929 . S
H488 C520 0.928 . S
O489 Co473 2.057 . S
O489 C477 1.232 . S
H490 C509 0.929 . S
H491 C510 0.929 . S
H492 C522 0.931 . S
H493 C514 0.929 . S
H494 C523 0.930 . S
H495 C515 0.931 . S
O496 Co472 2.097 . S
O496 C524 1.214 . S
H497 C525 0.929 . S
H498 C526 0.929 . S
H499 C527 0.930 . S
H500 C528 0.929 . S
H501 C530 0.930 . S
H502 C507 0.930 . S
H503 C511 0.930 . S
O504 Co473 2.037 . S
O504 C524 1.234 . S
C505 O479 1.269 . S
C505 O480 1.257 . S
C506 H481 0.930 . S
C506 C509 1.388 . S
C506 C511 1.418 . S
C507 H502 0.930 . S
C507 C510 1.404 . S
C507 C511 1.353 . S
N508 Co473 2.145 . S
N508 C509 1.397 . S
N508 C510 1.334 . S
C509 H490 0.929 . S
C509 C506 1.388 . S
C509 N508 1.397 . S
C510 H491 0.929 . S
C510 C507 1.404 . S
C510 N508 1.334 . S
C511 H503 0.930 . S
C511 C506 1.418 . S
C511 C507 1.353 . S
C512 H482 0.930 . S
C512 N513 1.330 . S
C512 C514 1.446 . S
N513 Co472 2.151 . S
N513 C512 1.330 . S
N513 C517 1.418 . S
C514 H493 0.929 . S
C514 C512 1.446 . S
C514 C515 1.332 . S
C515 H495 0.931 . S
C515 C514 1.332 . S
C515 C516 1.267 . S
C516 H484 0.929 . S
C516 C515 1.267 . S
C516 C517 1.251 . S
C517 H487 0.929 . S
C517 N513 1.418 . S
C517 C516 1.251 . S
C518 H485 0.930 . S
C518 C520 1.406 . S
C518 C523 1.261 . S
C519 H486 0.930 . S
C519 N521 1.325 . S
C519 C522 1.357 . S
C520 H488 0.928 . S
C520 C518 1.406 . S
C520 N521 1.261 . S
N521 Co472 2.214 . S
N521 C519 1.325 . S
N521 C520 1.261 . S
C522 H492 0.931 . S
C522 C519 1.357 . S
C522 C523 1.312 . S
C523 H494 0.930 . S
C523 C518 1.261 . S
C523 C522 1.312 . S
C524 O496 1.214 . S
C524 O504 1.234 . S
C525 H497 0.929 . S
C525 C528 1.391 . S
C525 C530 1.391 . S
C526 H498 0.929 . S
C526 C527 1.390 . S
C526 N529 1.391 . S
C527 H499 0.930 . S
C527 C526 1.390 . S
C527 C528 1.392 . S
C528 H500 0.929 . S
C528 C525 1.391 . S
C528 C527 1.392 . S
N529 Co473 2.257 . S
N529 C526 1.391 . S
N529 C530 1.388 . S
C530 H501 0.930 . S
C530 C525 1.391 . S
C530 N529 1.388 . S
Co531 O533 2.143 . S
Co531 O539 2.074 . S
Co531 O542 2.093 . S
Co531 O555 2.097 . S
Co531 N572 2.151 . S
Co531 N580 2.214 . S
Co532 O533 2.160 . S
Co532 O538 2.058 . S
Co532 O548 2.057 . S
Co532 O563 2.037 . S
Co532 N567 2.145 . S
Co532 N588 2.257 . S
O533 Co531 2.143 . S
O533 Co532 2.160 . S
C534 O535 1.278 1_556 S
C534 O542 1.224 . S
O535 C534 1.278 1_554 S
C536 O537 1.245 . S
C536 O548 1.232 . S
O537 C536 1.245 . S
O538 Co532 2.058 . S
O538 C564 1.269 . S
O539 Co531 2.074 . S
O539 C564 1.257 . S
H540 C565 0.930 . S
H541 C571 0.930 . S
O542 Co531 2.093 . S
O542 C534 1.224 . S
H543 C575 0.929 . S
H544 C577 0.930 . S
H545 C578 0.930 . S
H546 C576 0.929 . S
H547 C579 0.928 . S
O548 Co532 2.057 . S
O548 C536 1.232 . S
H549 C568 0.929 . S
H550 C569 0.929 . S
H551 C581 0.931 . S
H552 C573 0.929 . S
H553 C582 0.930 . S
H554 C574 0.931 . S
O555 Co531 2.097 . S
O555 C583 1.214 . S
H556 C584 0.929 . S
H557 C585 0.929 . S
H558 C586 0.930 . S
H559 C587 0.929 . S
H560 C589 0.930 . S
H561 C566 0.930 . S
H562 C570 0.930 . S
O563 Co532 2.037 . S
O563 C583 1.234 . S
C564 O538 1.269 . S
C564 O539 1.257 . S
C565 H540 0.930 . S
C565 C568 1.388 . S
C565 C570 1.418 . S
C566 H561 0.930 . S
C566 C569 1.404 . S
C566 C570 1.353 . S
N567 Co532 2.145 . S
N567 C568 1.397 . S
N567 C569 1.334 . S
C568 H549 0.929 . S
C568 C565 1.388 . S
C568 N567 1.397 . S
C569 H550 0.929 . S
C569 C566 1.404 . S
C569 N567 1.334 . S
C570 H562 0.930 . S
C570 C565 1.418 . S
C570 C566 1.353 . S
C571 H541 0.930 . S
C571 N572 1.330 . S
C571 C573 1.446 . S
N572 Co531 2.151 . S
N572 C571 1.330 . S
N572 C576 1.418 . S
C573 H552 0.929 . S
C573 C571 1.446 . S
C573 C574 1.332 . S
C574 H554 0.931 . S
C574 C573 1.332 . S
C574 C575 1.267 . S
C575 H543 0.929 . S
C575 C574 1.267 . S
C575 C576 1.251 . S
C576 H546 0.929 . S
C576 N572 1.418 . S
C576 C575 1.251 . S
C577 H544 0.930 . S
C577 C579 1.406 . S
C577 C582 1.261 . S
C578 H545 0.930 . S
C578 N580 1.325 . S
C578 C581 1.357 . S
C579 H547 0.928 . S
C579 C577 1.406 . S
C579 N580 1.261 . S
N580 Co531 2.214 . S
N580 C578 1.325 . S
N580 C579 1.261 . S
C581 H551 0.931 . S
C581 C578 1.357 . S
C581 C582 1.312 . S
C582 H553 0.930 . S
C582 C577 1.261 . S
C582 C581 1.312 . S
C583 O555 1.214 . S
C583 O563 1.234 . S
C584 H556 0.929 . S
C584 C587 1.391 . S
C584 C589 1.391 . S
C585 H557 0.929 . S
C585 C586 1.390 1_556 S
C585 N588 1.391 . S
C586 H558 0.930 . S
C586 C585 1.390 1_554 S
C586 C587 1.392 . S
C587 H559 0.929 . S
C587 C584 1.391 . S
C587 C586 1.392 . S
N588 Co532 2.257 . S
N588 C585 1.391 . S
N588 C589 1.388 1_556 S
C589 H560 0.930 . S
C589 C584 1.391 . S
C589 N588 1.388 1_554 S
Co590 O592 2.143 . S
Co590 O598 2.074 . S
Co590 O601 2.093 . S
Co590 O614 2.097 . S
Co590 N631 2.151 . S
Co590 N639 2.214 . S
Co591 O592 2.160 . S
Co591 O597 2.058 . S
Co591 O607 2.057 . S
Co591 O622 2.037 . S
Co591 N626 2.145 . S
Co591 N647 2.257 . S
O592 Co590 2.143 . S
O592 Co591 2.160 . S
C593 O594 1.278 . S
C593 O601 1.224 . S
O594 C593 1.278 . S
C595 O596 1.245 . S
C595 O607 1.232 . S
O596 C595 1.245 . S
O597 Co591 2.058 . S
O597 C623 1.269 . S
O598 Co590 2.074 . S
O598 C623 1.257 . S
H599 C624 0.924 1_556 S
H600 C630 0.930 . S
O601 Co590 2.093 . S
O601 C593 1.224 . S
H602 C634 0.929 . S
H603 C636 0.930 . S
H604 C637 0.930 . S
H605 C635 0.929 . S
H606 C638 0.928 . S
O607 Co591 2.057 . S
O607 C595 1.232 . S
H608 C627 0.929 . S
H609 C628 0.929 . S
H610 C640 0.931 . S
H611 C632 0.929 . S
H612 C641 0.930 . S
H613 C633 0.931 . S
O614 Co590 2.097 . S
O614 C642 1.214 . S
H615 C643 0.929 . S
H616 C644 0.929 . S
H617 C645 0.930 . S
H618 C646 0.929 . S
H619 C648 0.930 . S
H620 C625 0.930 . S
H621 C629 0.930 . S
O622 Co591 2.037 . S
O622 C642 1.234 . S
C623 O597 1.269 . S
C623 O598 1.257 . S
C624 H599 0.924 1_554 S
C624 C627 1.388 . S
C624 C629 1.418 . S
C625 H620 0.930 . S
C625 C628 1.404 . S
C625 C629 1.353 . S
N626 Co591 2.145 . S
N626 C627 1.397 . S
N626 C628 1.334 . S
C627 H608 0.929 . S
C627 C624 1.388 . S
C627 N626 1.397 . S
C628 H609 0.929 . S
C628 C625 1.404 . S
C628 N626 1.334 . S
C629 H621 0.930 . S
C629 C624 1.418 . S
C629 C625 1.353 . S
C630 H600 0.930 . S
C630 N631 1.330 . S
C630 C632 1.446 . S
N631 Co590 2.151 . S
N631 C630 1.330 . S
N631 C635 1.418 . S
C632 H611 0.929 . S
C632 C630 1.446 . S
C632 C633 1.332 . S
C633 H613 0.931 . S
C633 C632 1.332 . S
C633 C634 1.267 . S
C634 H602 0.929 . S
C634 C633 1.267 . S
C634 C635 1.251 . S
C635 H605 0.929 . S
C635 N631 1.418 . S
C635 C634 1.251 . S
C636 H603 0.930 . S
C636 C638 1.406 . S
C636 C641 1.261 . S
C637 H604 0.930 . S
C637 N639 1.325 . S
C637 C640 1.357 . S
C638 H606 0.928 . S
C638 C636 1.406 . S
C638 N639 1.261 . S
N639 Co590 2.214 . S
N639 C637 1.325 . S
N639 C638 1.261 . S
C640 H610 0.931 . S
C640 C637 1.357 . S
C640 C641 1.312 . S
C641 H612 0.930 . S
C641 C636 1.261 . S
C641 C640 1.312 . S
C642 O614 1.214 . S
C642 O622 1.234 . S
C643 H615 0.929 . S
C643 C646 1.391 . S
C643 C648 1.391 . S
C644 H616 0.929 . S
C644 C645 1.390 . S
C644 N647 1.391 . S
C645 H617 0.930 . S
C645 C644 1.390 . S
C645 C646 1.392 . S
C646 H618 0.929 . S
C646 C643 1.391 . S
C646 C645 1.392 . S
N647 Co591 2.257 . S
N647 C644 1.391 . S
N647 C648 1.388 . S
C648 H619 0.930 . S
C648 C643 1.391 . S
C648 N647 1.388 . S
Co649 O651 2.143 . S
Co649 O657 2.074 . S
Co649 O660 2.093 . S
Co649 O673 2.097 . S
Co649 N690 2.151 . S
Co649 N698 2.214 . S
Co650 O651 2.160 . S
Co650 O656 2.058 . S
Co650 O666 2.057 . S
Co650 O681 2.037 . S
Co650 N685 2.145 . S
Co650 N706 2.257 . S
O651 Co649 2.143 . S
O651 Co650 2.160 . S
C652 O653 1.278 . S
C652 O660 1.224 . S
O653 C652 1.278 . S
C654 O655 1.245 . S
C654 O666 1.232 . S
O655 C654 1.245 . S
O656 Co650 2.058 . S
O656 C682 1.269 . S
O657 Co649 2.074 . S
O657 C682 1.257 . S
H658 C683 0.930 . S
H659 C689 0.930 . S
O660 Co649 2.093 . S
O660 C652 1.224 . S
H661 C693 0.929 . S
H662 C695 0.930 . S
H663 C696 0.930 . S
H664 C694 0.929 . S
H665 C697 0.928 . S
O666 Co650 2.057 . S
O666 C654 1.232 . S
H667 C686 0.929 . S
H668 C687 0.929 . S
H669 C699 0.931 . S
H670 C691 0.929 . S
H671 C700 0.930 . S
H672 C692 0.931 . S
O673 Co649 2.097 . S
O673 C701 1.214 . S
H674 C702 0.929 . S
H675 C703 0.929 . S
H676 C704 0.930 . S
H677 C705 0.929 . S
H678 C707 0.930 . S
H679 C684 0.930 . S
H680 C688 0.930 . S
O681 Co650 2.037 . S
O681 C701 1.234 . S
C682 O656 1.269 . S
C682 O657 1.257 . S
C683 H658 0.930 . S
C683 C686 1.388 . S
C683 C688 1.418 . S
C684 H679 0.930 . S
C684 C687 1.404 . S
C684 C688 1.353 . S
N685 Co650 2.145 . S
N685 C686 1.397 . S
N685 C687 1.334 . S
C686 H667 0.929 . S
C686 C683 1.388 . S
C686 N685 1.397 . S
C687 H668 0.929 . S
C687 C684 1.404 . S
C687 N685 1.334 . S
C688 H680 0.930 . S
C688 C683 1.418 . S
C688 C684 1.353 . S
C689 H659 0.930 . S
C689 N690 1.330 . S
C689 C691 1.446 . S
N690 Co649 2.151 . S
N690 C689 1.330 . S
N690 C694 1.418 . S
C691 H670 0.929 . S
C691 C689 1.446 . S
C691 C692 1.332 . S
C692 H672 0.931 . S
C692 C691 1.332 . S
C692 C693 1.267 . S
C693 H661 0.929 . S
C693 C692 1.267 . S
C693 C694 1.251 . S
C694 H664 0.929 . S
C694 N690 1.418 . S
C694 C693 1.251 . S
C695 H662 0.930 . S
C695 C697 1.406 . S
C695 C700 1.261 . S
C696 H663 0.930 . S
C696 N698 1.325 . S
C696 C699 1.357 . S
C697 H665 0.928 . S
C697 C695 1.406 . S
C697 N698 1.261 . S
N698 Co649 2.214 . S
N698 C696 1.325 . S
N698 C697 1.261 . S
C699 H669 0.931 . S
C699 C696 1.357 . S
C699 C700 1.312 . S
C700 H671 0.930 . S
C700 C695 1.261 . S
C700 C699 1.312 . S
C701 O673 1.214 . S
C701 O681 1.234 . S
C702 H674 0.929 . S
C702 C705 1.391 . S
C702 C707 1.391 . S
C703 H675 0.929 . S
C703 C704 1.390 . S
C703 N706 1.391 . S
C704 H676 0.930 . S
C704 C703 1.390 . S
C704 C705 1.392 . S
C705 H677 0.929 . S
C705 C702 1.391 . S
C705 C704 1.392 . S
N706 Co650 2.257 . S
N706 C703 1.391 . S
N706 C707 1.388 . S
C707 H678 0.930 . S
C707 C702 1.391 . S
C707 N706 1.388 . S
C708 C709 1.391 . S
C708 C710 1.394 . S
C708 H724 0.931 . S
C709 C708 1.391 . S
C709 C713 1.376 . S
C710 C708 1.394 . S
C710 C711 1.369 . S
C710 C714 1.531 . S
C711 C710 1.369 . S
C711 C712 1.410 . S
C711 C719 1.503 . S
C712 C711 1.410 . S
C712 C713 1.392 . S
C712 C715 1.511 . S
C713 C709 1.376 . S
C713 C712 1.392 . S
C713 H725 0.929 . S
C714 C710 1.531 . S
C714 H726 0.960 . S
C714 H727 0.962 . S
C714 H728 0.960 . S
C715 C712 1.511 . S
C715 H729 0.961 . S
C715 H730 0.961 . S
C715 H731 0.961 . S
C716 C717 1.370 . S
C716 C718 1.363 . S
C716 H732 0.931 . S
C717 C716 1.370 . S
C717 C721 1.408 . S
C718 C716 1.363 . S
C718 C719 1.370 . S
C718 C722 1.524 . S
C719 C711 1.503 . S
C719 C718 1.370 . S
C719 C720 1.403 . S
C720 C719 1.403 . S
C720 C721 1.404 . S
C720 C723 1.539 . S
C721 C717 1.408 . S
C721 C720 1.404 . S
C721 H733 0.930 . S
C722 C718 1.524 . S
C722 H734 0.956 . S
C722 H735 0.961 . S
C722 H736 0.961 . S
C723 C720 1.539 . S
C723 H737 0.958 . S
C723 H738 0.961 . S
C723 H739 0.960 . S
H724 C708 0.931 . S
H725 C713 0.929 . S
H726 C714 0.960 . S
H727 C714 0.962 . S
H728 C714 0.960 . S
H729 C715 0.961 . S
H730 C715 0.961 . S
H731 C715 0.961 . S
H732 C716 0.931 . S
H733 C721 0.930 . S
H734 C722 0.956 . S
H735 C722 0.961 . S
H736 C722 0.961 . S
H737 C723 0.958 . S
H738 C723 0.961 . S
H739 C723 0.960 . S
C740 C741 1.391 . S
C740 C742 1.394 . S
C740 H756 0.931 . S
C741 C740 1.391 . S
C741 C745 1.376 . S
C742 C740 1.394 . S
C742 C743 1.369 . S
C742 C746 1.531 . S
C743 C742 1.369 . S
C743 C744 1.410 . S
C743 C751 1.503 . S
C744 C743 1.410 . S
C744 C745 1.392 . S
C744 C747 1.511 . S
C745 C741 1.376 . S
C745 C744 1.392 . S
C745 H757 0.929 . S
C746 C742 1.531 . S
C746 H758 0.960 . S
C746 H759 0.962 . S
C746 H760 0.960 . S
C747 C744 1.511 . S
C747 H761 0.961 . S
C747 H762 0.961 . S
C747 H763 0.961 . S
C748 C749 1.370 . S
C748 C750 1.363 . S
C748 H764 0.931 . S
C749 C748 1.370 . S
C749 C753 1.408 . S
C750 C748 1.363 . S
C750 C751 1.370 . S
C750 C754 1.524 . S
C751 C743 1.503 . S
C751 C750 1.370 . S
C751 C752 1.403 . S
C752 C751 1.403 . S
C752 C753 1.404 . S
C752 C755 1.539 . S
C753 C749 1.408 . S
C753 C752 1.404 . S
C753 H765 0.930 . S
C754 C750 1.524 . S
C754 H766 0.956 . S
C754 H767 0.961 . S
C754 H768 0.961 . S
C755 C752 1.539 . S
C755 H769 0.958 . S
C755 H770 0.961 . S
C755 H771 0.960 . S
H756 C740 0.931 . S
H757 C745 0.929 . S
H758 C746 0.960 . S
H759 C746 0.962 . S
H760 C746 0.960 . S
H761 C747 0.961 . S
H762 C747 0.961 . S
H763 C747 0.961 . S
H764 C748 0.931 . S
H765 C753 0.930 . S
H766 C754 0.956 . S
H767 C754 0.961 . S
H768 C754 0.961 . S
H769 C755 0.958 . S
H770 C755 0.961 . S
H771 C755 0.960 . S
C772 C773 1.391 . S
C772 C774 1.394 . S
C772 H788 0.931 . S
C773 C772 1.391 . S
C773 C777 1.376 . S
C774 C772 1.394 . S
C774 C775 1.369 . S
C774 C778 1.531 . S
C775 C774 1.369 . S
C775 C776 1.410 . S
C775 C783 1.503 . S
C776 C775 1.410 . S
C776 C777 1.392 . S
C776 C779 1.511 . S
C777 C773 1.376 . S
C777 C776 1.392 . S
C777 H789 0.929 . S
C778 C774 1.531 . S
C778 H790 0.960 . S
C778 H791 0.962 . S
C778 H792 0.960 . S
C779 C776 1.511 . S
C779 H793 0.961 . S
C779 H794 0.961 . S
C779 H795 0.961 . S
C780 C781 1.370 . S
C780 C782 1.363 . S
C780 H796 0.931 . S
C781 C780 1.370 . S
C781 C785 1.408 . S
C782 C780 1.363 . S
C782 C783 1.370 . S
C782 C786 1.524 . S
C783 C775 1.503 . S
C783 C782 1.370 . S
C783 C784 1.403 . S
C784 C783 1.403 . S
C784 C785 1.404 . S
C784 C787 1.539 . S
C785 C781 1.408 . S
C785 C784 1.404 . S
C785 H797 0.930 . S
C786 C782 1.524 . S
C786 H798 0.956 . S
C786 H799 0.961 . S
C786 H800 0.961 . S
C787 C784 1.539 . S
C787 H801 0.958 . S
C787 H802 0.961 . S
C787 H803 0.960 . S
H788 C772 0.931 . S
H789 C777 0.929 . S
H790 C778 0.960 . S
H791 C778 0.962 . S
H792 C778 0.960 . S
H793 C779 0.961 . S
H794 C779 0.961 . S
H795 C779 0.961 . S
H796 C780 0.931 . S
H797 C785 0.930 . S
H798 C786 0.956 . S
H799 C786 0.961 . S
H800 C786 0.961 . S
H801 C787 0.958 . S
H802 C787 0.961 . S
H803 C787 0.960 . S
C804 C805 1.391 . S
C804 C806 1.394 . S
C804 H820 0.931 . S
C805 C804 1.391 . S
C805 C809 1.376 . S
C806 C804 1.394 . S
C806 C807 1.369 . S
C806 C810 1.531 . S
C807 C806 1.369 . S
C807 C808 1.410 . S
C807 C815 1.503 . S
C808 C807 1.410 . S
C808 C809 1.392 . S
C808 C811 1.511 . S
C809 C805 1.376 . S
C809 C808 1.392 . S
C809 H821 0.929 . S
C810 C806 1.531 . S
C810 H822 0.960 . S
C810 H823 0.962 . S
C810 H824 0.960 . S
C811 C808 1.511 . S
C811 H825 0.961 . S
C811 H826 0.961 . S
C811 H827 0.961 . S
C812 C813 1.370 . S
C812 C814 1.363 . S
C812 H828 0.931 . S
C813 C812 1.370 . S
C813 C817 1.408 . S
C814 C812 1.363 . S
C814 C815 1.370 . S
C814 C818 1.524 . S
C815 C807 1.503 . S
C815 C814 1.370 . S
C815 C816 1.403 . S
C816 C815 1.403 . S
C816 C817 1.404 . S
C816 C819 1.539 . S
C817 C813 1.408 . S
C817 C816 1.404 . S
C817 H829 0.930 . S
C818 C814 1.524 . S
C818 H830 0.956 . S
C818 H831 0.961 . S
C818 H832 0.961 . S
C819 C816 1.539 . S
C819 H833 0.958 . S
C819 H834 0.961 . S
C819 H835 0.960 . S
H820 C804 0.931 . S
H821 C809 0.929 . S
H822 C810 0.960 . S
H823 C810 0.962 . S
H824 C810 0.960 . S
H825 C811 0.961 . S
H826 C811 0.961 . S
H827 C811 0.961 . S
H828 C812 0.931 . S
H829 C817 0.930 . S
H830 C818 0.956 . S
H831 C818 0.961 . S
H832 C818 0.961 . S
H833 C819 0.958 . S
H834 C819 0.961 . S
H835 C819 0.960 . S
C836 C837 1.391 . S
C836 C838 1.394 . S
C836 H852 0.931 . S
C837 C836 1.391 . S
C837 C841 1.376 . S
C838 C836 1.394 . S
C838 C839 1.369 . S
C838 C842 1.531 . S
C839 C838 1.369 . S
C839 C840 1.410 . S
C839 C847 1.503 . S
C840 C839 1.410 . S
C840 C841 1.392 . S
C840 C843 1.511 . S
C841 C837 1.376 . S
C841 C840 1.392 . S
C841 H853 0.929 . S
C842 C838 1.531 . S
C842 H854 0.960 . S
C842 H855 0.962 . S
C842 H856 0.960 . S
C843 C840 1.511 . S
C843 H857 0.961 . S
C843 H858 0.961 . S
C843 H859 0.961 . S
C844 C845 1.370 . S
C844 C846 1.363 . S
C844 H860 0.931 . S
C845 C844 1.370 . S
C845 C849 1.408 . S
C846 C844 1.363 . S
C846 C847 1.370 . S
C846 C850 1.524 . S
C847 C839 1.503 . S
C847 C846 1.370 . S
C847 C848 1.403 . S
C848 C847 1.403 . S
C848 C849 1.404 . S
C848 C851 1.539 . S
C849 C845 1.408 . S
C849 C848 1.404 . S
C849 H861 0.930 . S
C850 C846 1.524 . S
C850 H862 0.956 . S
C850 H863 0.961 . S
C850 H864 0.961 . S
C851 C848 1.539 . S
C851 H865 0.958 . S
C851 H866 0.961 . S
C851 H867 0.960 . S
H852 C836 0.931 . S
H853 C841 0.929 . S
H854 C842 0.960 . S
H855 C842 0.962 . S
H856 C842 0.960 . S
H857 C843 0.961 . S
H858 C843 0.961 . S
H859 C843 0.961 . S
H860 C844 0.931 . S
H861 C849 0.930 . S
H862 C850 0.956 . S
H863 C850 0.961 . S
H864 C850 0.961 . S
H865 C851 0.958 . S
H866 C851 0.961 . S
H867 C851 0.960 . S
C868 C869 1.391 . S
C868 C870 1.394 . S
C868 H884 0.931 . S
C869 C868 1.391 . S
C869 C873 1.376 . S
C870 C868 1.394 . S
C870 C871 1.369 . S
C870 C874 1.531 . S
C871 C870 1.369 . S
C871 C872 1.410 . S
C871 C879 1.503 . S
C872 C871 1.410 . S
C872 C873 1.392 . S
C872 C875 1.511 . S
C873 C869 1.376 . S
C873 C872 1.392 . S
C873 H885 0.929 . S
C874 C870 1.531 . S
C874 H886 0.960 . S
C874 H887 0.962 . S
C874 H888 0.960 . S
C875 C872 1.511 . S
C875 H889 0.961 . S
C875 H890 0.961 . S
C875 H891 0.961 . S
C876 C877 1.370 . S
C876 C878 1.363 . S
C876 H892 0.931 . S
C877 C876 1.370 . S
C877 C881 1.408 . S
C878 C876 1.363 . S
C878 C879 1.370 . S
C878 C882 1.524 . S
C879 C871 1.503 . S
C879 C878 1.370 . S
C879 C880 1.403 . S
C880 C879 1.403 . S
C880 C881 1.404 . S
C880 C883 1.539 . S
C881 C877 1.408 . S
C881 C880 1.404 . S
C881 H893 0.930 . S
C882 C878 1.524 . S
C882 H894 0.956 . S
C882 H895 0.961 . S
C882 H896 0.961 . S
C883 C880 1.539 . S
C883 H897 0.958 . S
C883 H898 0.961 . S
C883 H899 0.960 . S
H884 C868 0.931 . S
H885 C873 0.929 . S
H886 C874 0.960 . S
H887 C874 0.962 . S
H888 C874 0.960 . S
H889 C875 0.961 . S
H890 C875 0.961 . S
H891 C875 0.961 . S
H892 C876 0.931 . S
H893 C881 0.930 . S
H894 C882 0.956 . S
H895 C882 0.961 . S
H896 C882 0.961 . S
H897 C883 0.958 . S
H898 C883 0.961 . S
H899 C883 0.960 . S
C900 C901 1.391 . S
C900 C902 1.394 . S
C900 H916 0.931 . S
C901 C900 1.391 . S
C901 C905 1.376 . S
C902 C900 1.394 . S
C902 C903 1.369 . S
C902 C906 1.531 . S
C903 C902 1.369 . S
C903 C904 1.410 . S
C903 C911 1.503 . S
C904 C903 1.410 . S
C904 C905 1.392 . S
C904 C907 1.511 . S
C905 C901 1.376 . S
C905 C904 1.392 . S
C905 H917 0.929 . S
C906 C902 1.531 . S
C906 H918 0.960 . S
C906 H919 0.962 . S
C906 H920 0.960 . S
C907 C904 1.511 . S
C907 H921 0.961 . S
C907 H922 0.961 . S
C907 H923 0.961 . S
C908 C909 1.370 . S
C908 C910 1.363 . S
C908 H924 0.931 . S
C909 C908 1.370 . S
C909 C913 1.408 . S
C910 C908 1.363 . S
C910 C911 1.370 . S
C910 C914 1.524 . S
C911 C903 1.503 . S
C911 C910 1.370 . S
C911 C912 1.403 . S
C912 C911 1.403 . S
C912 C913 1.404 . S
C912 C915 1.539 . S
C913 C909 1.408 . S
C913 C912 1.404 . S
C913 H925 0.930 . S
C914 C910 1.524 . S
C914 H926 0.956 . S
C914 H927 0.961 . S
C914 H928 0.961 . S
C915 C912 1.539 . S
C915 H929 0.958 . S
C915 H930 0.961 . S
C915 H931 0.960 . S
H916 C900 0.931 . S
H917 C905 0.929 . S
H918 C906 0.960 . S
H919 C906 0.962 . S
H920 C906 0.960 . S
H921 C907 0.961 . S
H922 C907 0.961 . S
H923 C907 0.961 . S
H924 C908 0.931 . S
H925 C913 0.930 . S
H926 C914 0.956 . S
H927 C914 0.961 . S
H928 C914 0.961 . S
H929 C915 0.958 . S
H930 C915 0.961 . S
H931 C915 0.960 . S
C932 C933 1.391 . S
C932 C934 1.394 . S
C932 H948 0.931 . S
C933 C932 1.391 . S
C933 C937 1.376 . S
C934 C932 1.394 . S
C934 C935 1.369 . S
C934 C938 1.531 . S
C935 C934 1.369 . S
C935 C936 1.410 . S
C935 C943 1.503 . S
C936 C935 1.410 . S
C936 C937 1.392 . S
C936 C939 1.511 . S
C937 C933 1.376 . S
C937 C936 1.392 . S
C937 H949 0.929 . S
C938 C934 1.531 . S
C938 H950 0.960 . S
C938 H951 0.962 . S
C938 H952 0.960 . S
C939 C936 1.511 . S
C939 H953 0.961 . S
C939 H954 0.961 . S
C939 H955 0.961 . S
C940 C941 1.370 . S
C940 C942 1.363 . S
C940 H956 0.931 . S
C941 C940 1.370 . S
C941 C945 1.408 . S
C942 C940 1.363 . S
C942 C943 1.370 . S
C942 C946 1.524 . S
C943 C935 1.503 . S
C943 C942 1.370 . S
C943 C944 1.403 . S
C944 C943 1.403 . S
C944 C945 1.404 . S
C944 C947 1.539 . S
C945 C941 1.408 . S
C945 C944 1.404 . S
C945 H957 0.930 . S
C946 C942 1.524 . S
C946 H958 0.956 . S
C946 H959 0.961 . S
C946 H960 0.961 . S
C947 C944 1.539 . S
C947 H961 0.958 . S
C947 H962 0.961 . S
C947 H963 0.960 . S
H948 C932 0.931 . S
H949 C937 0.929 . S
H950 C938 0.960 . S
H951 C938 0.962 . S
H952 C938 0.960 . S
H953 C939 0.961 . S
H954 C939 0.961 . S
H955 C939 0.961 . S
H956 C940 0.931 . S
H957 C945 0.930 . S
H958 C946 0.956 . S
H959 C946 0.961 . S
H960 C946 0.961 . S
H961 C947 0.958 . S
H962 C947 0.961 . S
H963 C947 0.960 . S
C964 C965 1.391 . S
C964 C966 1.394 . S
C964 H980 0.931 . S
C965 C964 1.391 . S
C965 C969 1.376 . S
C966 C964 1.394 . S
C966 C967 1.369 . S
C966 C970 1.531 . S
C967 C966 1.369 . S
C967 C968 1.410 . S
C967 C975 1.503 . S
C968 C967 1.410 . S
C968 C969 1.392 . S
C968 C971 1.511 . S
C969 C965 1.376 . S
C969 C968 1.392 . S
C969 H981 0.929 . S
C970 C966 1.531 . S
C970 H982 0.960 . S
C970 H983 0.962 . S
C970 H984 0.960 . S
C971 C968 1.511 . S
C971 H985 0.961 . S
C971 H986 0.961 . S
C971 H987 0.961 . S
C972 C973 1.370 . S
C972 C974 1.363 . S
C972 H988 0.931 . S
C973 C972 1.370 . S
C973 C977 1.408 . S
C974 C972 1.363 . S
C974 C975 1.370 . S
C974 C978 1.524 . S
C975 C967 1.503 . S
C975 C974 1.370 . S
C975 C976 1.403 . S
C976 C975 1.403 . S
C976 C977 1.404 . S
C976 C979 1.539 . S
C977 C973 1.408 . S
C977 C976 1.404 . S
C977 H989 0.930 . S
C978 C974 1.524 . S
C978 H990 0.956 . S
C978 H991 0.961 . S
C978 H992 0.961 . S
C979 C976 1.539 . S
C979 H993 0.958 . S
C979 H994 0.961 . S
C979 H995 0.960 . S
H980 C964 0.931 . S
H981 C969 0.929 . S
H982 C970 0.960 . S
H983 C970 0.962 . S
H984 C970 0.960 . S
H985 C971 0.961 . S
H986 C971 0.961 . S
H987 C971 0.961 . S
H988 C972 0.931 . S
H989 C977 0.930 . S
H990 C978 0.956 . S
H991 C978 0.961 . S
H992 C978 0.961 . S
H993 C979 0.958 . S
H994 C979 0.961 . S
H995 C979 0.960 . S
C996 C997 1.391 . S
C996 C998 1.394 . S
C996 H1012 0.931 . S
C997 C996 1.391 . S
C997 C1001 1.376 . S
C998 C996 1.394 . S
C998 C999 1.369 . S
C998 C1002 1.531 . S
C999 C998 1.369 . S
C999 C1000 1.410 . S
C999 C1007 1.503 . S
C1000 C999 1.410 . S
C1000 C1001 1.392 . S
C1000 C1003 1.511 . S
C1001 C997 1.376 . S
C1001 C1000 1.392 . S
C1001 H1013 0.929 . S
C1002 C998 1.531 . S
C1002 H1014 0.960 . S
C1002 H1015 0.962 . S
C1002 H1016 0.960 . S
C1003 C1000 1.511 . S
C1003 H1017 0.961 . S
C1003 H1018 0.961 . S
C1003 H1019 0.961 . S
C1004 C1005 1.370 . S
C1004 C1006 1.363 . S
C1004 H1020 0.931 . S
C1005 C1004 1.370 . S
C1005 C1009 1.408 . S
C1006 C1004 1.363 . S
C1006 C1007 1.370 . S
C1006 C1010 1.524 . S
C1007 C999 1.503 . S
C1007 C1006 1.370 . S
C1007 C1008 1.403 . S
C1008 C1007 1.403 . S
C1008 C1009 1.404 . S
C1008 C1011 1.539 . S
C1009 C1005 1.408 . S
C1009 C1008 1.404 . S
C1009 H1021 0.930 . S
C1010 C1006 1.524 . S
C1010 H1022 0.956 . S
C1010 H1023 0.961 . S
C1010 H1024 0.961 . S
C1011 C1008 1.539 . S
C1011 H1025 0.958 . S
C1011 H1026 0.961 . S
C1011 H1027 0.960 . S
H1012 C996 0.931 . S
H1013 C1001 0.929 . S
H1014 C1002 0.960 . S
H1015 C1002 0.962 . S
H1016 C1002 0.960 . S
H1017 C1003 0.961 . S
H1018 C1003 0.961 . S
H1019 C1003 0.961 . S
H1020 C1004 0.931 . S
H1021 C1009 0.930 . S
H1022 C1010 0.956 . S
H1023 C1010 0.961 . S
H1024 C1010 0.961 . S
H1025 C1011 0.958 . S
H1026 C1011 0.961 . S
H1027 C1011 0.960 . S
C1028 C1029 1.391 . S
C1028 C1030 1.394 . S
C1028 H1044 0.931 . S
C1029 C1028 1.391 . S
C1029 C1033 1.376 . S
C1030 C1028 1.394 . S
C1030 C1031 1.369 . S
C1030 C1034 1.531 . S
C1031 C1030 1.369 . S
C1031 C1032 1.410 . S
C1031 C1039 1.503 . S
C1032 C1031 1.410 . S
C1032 C1033 1.392 . S
C1032 C1035 1.511 . S
C1033 C1029 1.376 . S
C1033 C1032 1.392 . S
C1033 H1045 0.929 . S
C1034 C1030 1.531 . S
C1034 H1046 0.960 . S
C1034 H1047 0.962 . S
C1034 H1048 0.960 . S
C1035 C1032 1.511 . S
C1035 H1049 0.961 . S
C1035 H1050 0.961 . S
C1035 H1051 0.961 . S
C1036 C1037 1.370 . S
C1036 C1038 1.363 . S
C1036 H1052 0.931 . S
C1037 C1036 1.370 . S
C1037 C1041 1.408 . S
C1038 C1036 1.363 . S
C1038 C1039 1.370 . S
C1038 C1042 1.524 . S
C1039 C1031 1.503 . S
C1039 C1038 1.370 . S
C1039 C1040 1.403 . S
C1040 C1039 1.403 . S
C1040 C1041 1.404 . S
C1040 C1043 1.539 . S
C1041 C1037 1.408 . S
C1041 C1040 1.404 . S
C1041 H1053 0.930 . S
C1042 C1038 1.524 . S
C1042 H1054 0.956 . S
C1042 H1055 0.961 . S
C1042 H1056 0.961 . S
C1043 C1040 1.539 . S
C1043 H1057 0.958 . S
C1043 H1058 0.961 . S
C1043 H1059 0.960 . S
H1044 C1028 0.931 . S
H1045 C1033 0.929 . S
H1046 C1034 0.960 . S
H1047 C1034 0.962 . S
H1048 C1034 0.960 . S
H1049 C1035 0.961 . S
H1050 C1035 0.961 . S
H1051 C1035 0.961 . S
H1052 C1036 0.931 . S
H1053 C1041 0.930 . S
H1054 C1042 0.956 . S
H1055 C1042 0.961 . S
H1056 C1042 0.961 . S
H1057 C1043 0.958 . S
H1058 C1043 0.961 . S
H1059 C1043 0.960 . S
C1060 C1061 1.391 . S
C1060 C1062 1.394 . S
C1060 H1076 0.931 . S
C1061 C1060 1.391 . S
C1061 C1065 1.376 . S
C1062 C1060 1.394 . S
C1062 C1063 1.369 . S
C1062 C1066 1.531 . S
C1063 C1062 1.369 . S
C1063 C1064 1.410 . S
C1063 C1071 1.503 . S
C1064 C1063 1.410 . S
C1064 C1065 1.392 . S
C1064 C1067 1.511 . S
C1065 C1061 1.376 . S
C1065 C1064 1.392 . S
C1065 H1077 0.929 . S
C1066 C1062 1.531 . S
C1066 H1078 0.960 . S
C1066 H1079 0.962 . S
C1066 H1080 0.960 . S
C1067 C1064 1.511 . S
C1067 H1081 0.961 . S
C1067 H1082 0.961 . S
C1067 H1083 0.961 . S
C1068 C1069 1.370 . S
C1068 C1070 1.363 . S
C1068 H1084 0.931 . S
C1069 C1068 1.370 . S
C1069 C1073 1.408 . S
C1070 C1068 1.363 . S
C1070 C1071 1.370 . S
C1070 C1074 1.524 . S
C1071 C1063 1.503 . S
C1071 C1070 1.370 . S
C1071 C1072 1.403 . S
C1072 C1071 1.403 . S
C1072 C1073 1.404 . S
C1072 C1075 1.539 . S
C1073 C1069 1.408 . S
C1073 C1072 1.404 . S
C1073 H1085 0.930 . S
C1074 C1070 1.524 . S
C1074 H1086 0.956 . S
C1074 H1087 0.961 . S
C1074 H1088 0.961 . S
C1075 C1072 1.539 . S
C1075 H1089 0.958 . S
C1075 H1090 0.961 . S
C1075 H1091 0.960 . S
H1076 C1060 0.931 . S
H1077 C1065 0.929 . S
H1078 C1066 0.960 . S
H1079 C1066 0.962 . S
H1080 C1066 0.960 . S
H1081 C1067 0.961 . S
H1082 C1067 0.961 . S
H1083 C1067 0.961 . S
H1084 C1068 0.931 . S
H1085 C1073 0.930 . S
H1086 C1074 0.956 . S
H1087 C1074 0.961 . S
H1088 C1074 0.961 . S
H1089 C1075 0.958 . S
H1090 C1075 0.961 . S
H1091 C1075 0.960 . S
C1092 C1093 1.391 . S
C1092 C1094 1.394 . S
C1092 H1108 0.931 . S
C1093 C1092 1.391 . S
C1093 C1097 1.376 . S
C1094 C1092 1.394 . S
C1094 C1095 1.369 . S
C1094 C1098 1.531 . S
C1095 C1094 1.369 . S
C1095 C1096 1.410 . S
C1095 C1103 1.503 1_655 S
C1096 C1095 1.410 . S
C1096 C1097 1.392 . S
C1096 C1099 1.511 . S
C1097 C1093 1.376 . S
C1097 C1096 1.392 . S
C1097 H1109 0.929 . S
C1098 C1094 1.531 . S
C1098 H1110 0.991 . S
C1098 H1111 0.962 . S
C1098 H1112 0.960 . S
C1099 C1096 1.511 . S
C1099 H1113 0.961 . S
C1099 H1114 0.961 1_655 S
C1099 H1115 0.961 1_655 S
C1100 C1101 1.370 . S
C1100 C1102 1.363 . S
C1100 H1116 0.931 . S
C1101 C1100 1.370 . S
C1101 C1105 1.408 . S
C1102 C1100 1.363 . S
C1102 C1103 1.370 . S
C1102 C1106 1.524 1_455 S
C1103 C1095 1.503 1_455 S
C1103 C1102 1.370 . S
C1103 C1104 1.403 . S
C1104 C1103 1.403 . S
C1104 C1105 1.404 . S
C1104 C1107 1.539 . S
C1105 C1101 1.408 . S
C1105 C1104 1.404 . S
C1105 H1117 0.930 . S
C1106 C1102 1.524 1_655 S
C1106 H1118 0.956 . S
C1106 H1119 0.961 . S
C1106 H1120 0.960 1_655 S
C1107 C1104 1.539 . S
C1107 H1121 0.958 . S
C1107 H1122 0.961 . S
C1107 H1123 0.960 . S
H1108 C1092 0.931 . S
H1109 C1097 0.929 . S
H1110 C1098 0.991 . S
H1111 C1098 0.962 . S
H1112 C1098 0.960 . S
H1113 C1099 0.961 . S
H1114 C1099 0.961 1_455 S
H1115 C1099 0.961 1_455 S
H1116 C1100 0.931 . S
H1117 C1105 0.930 . S
H1118 C1106 0.956 . S
H1119 C1106 0.961 . S
H1120 C1106 0.960 1_455 S
H1121 C1107 0.958 . S
H1122 C1107 0.961 . S
H1123 C1107 0.960 . S
C1124 C1125 1.391 . S
C1124 C1126 1.394 . S
C1124 H1140 0.931 . S
C1125 C1124 1.391 . S
C1125 C1129 1.376 . S
C1126 C1124 1.394 . S
C1126 C1127 1.369 . S
C1126 C1130 1.531 . S
C1127 C1126 1.369 . S
C1127 C1128 1.410 . S
C1127 C1135 1.503 1_565 S
C1128 C1127 1.410 . S
C1128 C1129 1.392 . S
C1128 C1131 1.511 1_565 S
C1129 C1125 1.376 . S
C1129 C1128 1.392 . S
C1129 H1141 0.929 . S
C1130 C1126 1.531 . S
C1130 H1142 0.960 . S
C1130 H1143 0.962 . S
C1130 H1144 0.960 . S
C1131 C1128 1.511 1_545 S
C1131 H1145 0.961 1_545 S
C1131 H1146 0.961 . S
C1131 H1147 0.961 . S
C1132 C1133 1.370 . S
C1132 C1134 1.363 . S
C1132 H1148 0.931 . S
C1133 C1132 1.370 . S
C1133 C1137 1.408 . S
C1134 C1132 1.363 . S
C1134 C1135 1.370 . S
C1134 C1138 1.524 . S
C1135 C1127 1.503 1_545 S
C1135 C1134 1.370 . S
C1135 C1136 1.403 . S
C1136 C1135 1.403 . S
C1136 C1137 1.404 . S
C1136 C1139 1.539 . S
C1137 C1133 1.408 . S
C1137 C1136 1.404 . S
C1137 H1149 0.930 . S
C1138 C1134 1.524 . S
C1138 H1150 0.956 . S
C1138 H1151 0.961 . S
C1138 H1152 0.961 . S
C1139 C1136 1.539 . S
C1139 H1153 0.958 1_545 S
C1139 H1154 0.961 . S
C1139 H1155 0.960 1_545 S
H1140 C1124 0.931 . S
H1141 C1129 0.929 . S
H1142 C1130 0.960 . S
H1143 C1130 0.962 . S
H1144 C1130 0.960 . S
H1145 C1131 0.961 1_565 S
H1146 C1131 0.961 . S
H1147 C1131 0.961 . S
H1148 C1132 0.931 . S
H1149 C1137 0.930 . S
H1150 C1138 0.956 . S
H1151 C1138 0.961 . S
H1152 C1138 0.961 . S
H1153 C1139 0.958 1_565 S
H1154 C1139 0.961 . S
H1155 C1139 0.960 1_565 S
C1156 C1157 1.391 . S
C1156 C1158 1.394 . S
C1156 H1172 0.931 . S
C1157 C1156 1.391 . S
C1157 C1161 1.376 . S
C1158 C1156 1.394 . S
C1158 C1159 1.369 . S
C1158 C1162 1.531 . S
C1159 C1158 1.369 . S
C1159 C1160 1.410 . S
C1159 C1167 1.503 . S
C1160 C1159 1.410 . S
C1160 C1161 1.392 . S
C1160 C1163 1.511 . S
C1161 C1157 1.376 . S
C1161 C1160 1.392 . S
C1161 H1173 0.929 . S
C1162 C1158 1.531 . S
C1162 H1174 0.960 . S
C1162 H1175 0.962 . S
C1162 H1176 0.960 . S
C1163 C1160 1.511 . S
C1163 H1177 0.961 . S
C1163 H1178 0.961 . S
C1163 H1179 0.961 . S
C1164 C1165 1.370 . S
C1164 C1166 1.363 . S
C1164 H1180 0.931 . S
C1165 C1164 1.370 . S
C1165 C1169 1.408 . S
C1166 C1164 1.363 . S
C1166 C1167 1.370 . S
C1166 C1170 1.524 . S
C1167 C1159 1.503 . S
C1167 C1166 1.370 . S
C1167 C1168 1.403 . S
C1168 C1167 1.403 . S
C1168 C1169 1.404 . S
C1168 C1171 1.539 . S
C1169 C1165 1.408 . S
C1169 C1168 1.404 . S
C1169 H1181 0.930 . S
C1170 C1166 1.524 . S
C1170 H1182 0.956 . S
C1170 H1183 0.961 . S
C1170 H1184 0.961 . S
C1171 C1168 1.539 . S
C1171 H1185 0.958 . S
C1171 H1186 0.961 . S
C1171 H1187 0.960 . S
H1172 C1156 0.931 . S
H1173 C1161 0.929 . S
H1174 C1162 0.960 . S
H1175 C1162 0.962 . S
H1176 C1162 0.960 . S
H1177 C1163 0.961 . S
H1178 C1163 0.961 . S
H1179 C1163 0.961 . S
H1180 C1164 0.931 . S
H1181 C1169 0.930 . S
H1182 C1170 0.956 . S
H1183 C1170 0.961 . S
H1184 C1170 0.961 . S
H1185 C1171 0.958 . S
H1186 C1171 0.961 . S
H1187 C1171 0.960 . S
C1188 C1189 1.391 . S
C1188 C1190 1.394 . S
C1188 H1204 0.931 . S
C1189 C1188 1.391 . S
C1189 C1193 1.376 . S
C1190 C1188 1.394 . S
C1190 C1191 1.369 . S
C1190 C1194 1.531 1_455 S
C1191 C1190 1.369 . S
C1191 C1192 1.410 . S
C1191 C1199 1.503 1_455 S
C1192 C1191 1.410 . S
C1192 C1193 1.392 . S
C1192 C1195 1.511 . S
C1193 C1189 1.376 . S
C1193 C1192 1.392 . S
C1193 H1205 0.929 . S
C1194 C1190 1.531 1_655 S
C1194 H1206 0.960 . S
C1194 H1207 0.962 . S
C1194 H1208 0.960 1_655 S
C1195 C1192 1.511 . S
C1195 H1209 0.961 . S
C1195 H1210 0.961 . S
C1195 H1211 0.961 . S
C1196 C1197 1.370 . S
C1196 C1198 1.363 . S
C1196 H1212 0.931 . S
C1197 C1196 1.370 . S
C1197 C1201 1.408 . S
C1198 C1196 1.363 . S
C1198 C1199 1.370 . S
C1198 C1202 1.524 1_655 S
C1199 C1191 1.503 1_655 S
C1199 C1198 1.370 . S
C1199 C1200 1.403 . S
C1200 C1199 1.403 . S
C1200 C1201 1.404 . S
C1200 C1203 1.539 . S
C1201 C1197 1.408 . S
C1201 C1200 1.404 . S
C1201 H1213 0.930 . S
C1202 C1198 1.524 1_455 S
C1202 H1214 0.956 . S
C1202 H1215 0.961 . S
C1202 H1216 0.961 1_455 S
C1203 C1200 1.539 . S
C1203 H1217 0.958 . S
C1203 H1218 0.961 . S
C1203 H1219 0.960 . S
H1204 C1188 0.931 . S
H1205 C1193 0.929 . S
H1206 C1194 0.960 . S
H1207 C1194 0.962 . S
H1208 C1194 0.960 1_455 S
H1209 C1195 0.961 . S
H1210 C1195 0.961 . S
H1211 C1195 0.961 . S
H1212 C1196 0.931 . S
H1213 C1201 0.930 . S
H1214 C1202 0.956 . S
H1215 C1202 0.961 . S
H1216 C1202 0.961 1_655 S
H1217 C1203 0.958 . S
H1218 C1203 0.961 . S
H1219 C1203 0.960 . S
C1220 C1221 1.391 . S
C1220 C1222 1.394 1_556 S
C1220 H1236 0.931 1_556 S
C1221 C1220 1.391 . S
C1221 C1225 1.376 . S
C1222 C1220 1.394 1_554 S
C1222 C1223 1.369 1_554 S
C1222 C1226 1.531 . S
C1223 C1222 1.369 1_556 S
C1223 C1224 1.410 . S
C1223 C1231 1.503 1_546 S
C1224 C1223 1.410 . S
C1224 C1225 1.392 . S
C1224 C1227 1.521 . S
C1225 C1221 1.376 . S
C1225 C1224 1.392 . S
C1225 H1237 0.929 . S
C1226 C1222 1.531 . S
C1226 H1238 0.960 . S
C1226 H1239 0.962 . S
C1226 H1240 0.960 . S
C1227 C1224 1.521 . S
C1227 H1241 0.969 . S
C1227 H1242 0.926 1_545 S
C1227 H1243 0.978 . S
C1228 C1229 1.370 . S
C1228 C1230 1.363 1_554 S
C1228 H1244 0.931 . S
C1229 C1228 1.370 . S
C1229 C1233 1.408 . S
C1230 C1228 1.363 1_556 S
C1230 C1231 1.370 1_556 S
C1230 C1234 1.524 . S
C1231 C1223 1.503 1_564 S
C1231 C1230 1.370 1_554 S
C1231 C1232 1.403 . S
C1232 C1231 1.403 . S
C1232 C1233 1.404 . S
C1232 C1235 1.539 . S
C1233 C1229 1.408 . S
C1233 C1232 1.404 . S
C1233 H1245 0.930 . S
C1234 C1230 1.524 . S
C1234 H1246 0.956 . S
C1234 H1247 0.961 . S
C1234 H1248 0.961 . S
C1235 C1232 1.539 . S
C1235 H1249 0.958 1_565 S
C1235 H1250 0.961 . S
C1235 H1251 0.960 1_565 S
H1236 C1220 0.931 1_554 S
H1237 C1225 0.929 . S
H1238 C1226 0.960 . S
H1239 C1226 0.962 . S
H1240 C1226 0.960 . S
H1241 C1227 0.969 . S
H1242 C1227 0.926 1_565 S
H1243 C1227 0.978 . S
H1244 C1228 0.931 . S
H1245 C1233 0.930 . S
H1246 C1234 0.956 . S
H1247 C1234 0.961 . S
H1248 C1234 0.961 . S
H1249 C1235 0.958 1_545 S
H1250 C1235 0.961 . S
H1251 C1235 0.960 1_545 S
C1252 C1253 1.391 . S
C1252 C1254 1.394 . S
C1252 H1268 0.931 . S
C1253 C1252 1.391 . S
C1253 C1257 1.376 . S
C1254 C1252 1.394 . S
C1254 C1255 1.369 . S
C1254 C1258 1.531 . S
C1255 C1254 1.369 . S
C1255 C1256 1.410 . S
C1255 C1263 1.503 . S
C1256 C1255 1.410 . S
C1256 C1257 1.392 . S
C1256 C1259 1.511 . S
C1257 C1253 1.376 . S
C1257 C1256 1.392 . S
C1257 H1269 0.929 . S
C1258 C1254 1.531 . S
C1258 H1270 0.960 . S
C1258 H1271 0.962 . S
C1258 H1272 0.960 . S
C1259 C1256 1.511 . S
C1259 H1273 0.961 . S
C1259 H1274 0.961 . S
C1259 H1275 0.961 . S
C1260 C1261 1.370 . S
C1260 C1262 1.363 . S
C1260 H1276 0.931 . S
C1261 C1260 1.370 . S
C1261 C1265 1.408 . S
C1262 C1260 1.363 . S
C1262 C1263 1.370 . S
C1262 C1266 1.524 . S
C1263 C1255 1.503 . S
C1263 C1262 1.370 . S
C1263 C1264 1.403 . S
C1264 C1263 1.403 . S
C1264 C1265 1.404 . S
C1264 C1267 1.539 . S
C1265 C1261 1.408 . S
C1265 C1264 1.404 . S
C1265 H1277 0.930 . S
C1266 C1262 1.524 . S
C1266 H1278 0.956 . S
C1266 H1279 0.961 . S
C1266 H1280 0.961 . S
C1267 C1264 1.539 . S
C1267 H1281 0.958 . S
C1267 H1282 0.961 . S
C1267 H1283 0.960 . S
H1268 C1252 0.931 . S
H1269 C1257 0.929 . S
H1270 C1258 0.960 . S
H1271 C1258 0.962 . S
H1272 C1258 0.960 . S
H1273 C1259 0.961 . S
H1274 C1259 0.961 . S
H1275 C1259 0.961 . S
H1276 C1260 0.931 . S
H1277 C1265 0.930 . S
H1278 C1266 0.956 . S
H1279 C1266 0.961 . S
H1280 C1266 0.961 . S
H1281 C1267 0.958 . S
H1282 C1267 0.961 . S
H1283 C1267 0.960 . S
C1284 C1285 1.391 . S
C1284 C1286 1.394 . S
C1284 H1300 0.931 . S
C1285 C1284 1.391 . S
C1285 C1289 1.376 . S
C1286 C1284 1.394 . S
C1286 C1287 1.369 . S
C1286 C1290 1.531 . S
C1287 C1286 1.369 . S
C1287 C1288 1.410 . S
C1287 C1295 1.503 . S
C1288 C1287 1.410 . S
C1288 C1289 1.392 . S
C1288 C1291 1.511 . S
C1289 C1285 1.376 . S
C1289 C1288 1.392 . S
C1289 H1301 0.929 . S
C1290 C1286 1.531 . S
C1290 H1302 0.960 . S
C1290 H1303 0.962 . S
C1290 H1304 0.960 . S
C1291 C1288 1.511 . S
C1291 H1305 0.961 . S
C1291 H1306 0.961 . S
C1291 H1307 0.961 . S
C1292 C1293 1.370 . S
C1292 C1294 1.363 . S
C1292 H1308 0.931 . S
C1293 C1292 1.370 . S
C1293 C1297 1.408 . S
C1294 C1292 1.363 . S
C1294 C1295 1.370 . S
C1294 C1298 1.524 . S
C1295 C1287 1.503 . S
C1295 C1294 1.370 . S
C1295 C1296 1.403 . S
C1296 C1295 1.403 . S
C1296 C1297 1.404 . S
C1296 C1299 1.539 . S
C1297 C1293 1.408 . S
C1297 C1296 1.404 . S
C1297 H1309 0.930 . S
C1298 C1294 1.524 . S
C1298 H1310 0.956 . S
C1298 H1311 0.961 . S
C1298 H1312 0.961 . S
C1299 C1296 1.539 . S
C1299 H1313 0.958 . S
C1299 H1314 0.961 . S
C1299 H1315 0.960 . S
H1300 C1284 0.931 . S
H1301 C1289 0.929 . S
H1302 C1290 0.960 . S
H1303 C1290 0.962 . S
H1304 C1290 0.960 . S
H1305 C1291 0.961 . S
H1306 C1291 0.961 . S
H1307 C1291 0.961 . S
H1308 C1292 0.931 . S
H1309 C1297 0.930 . S
H1310 C1298 0.956 . S
H1311 C1298 0.961 . S
H1312 C1298 0.961 . S
H1313 C1299 0.958 . S
H1314 C1299 0.961 . S
H1315 C1299 0.960 . S
C1316 C1317 1.391 . S
C1316 C1318 1.394 . S
C1316 H1332 0.931 . S
C1317 C1316 1.391 . S
C1317 C1321 1.376 . S
C1318 C1316 1.394 . S
C1318 C1319 1.369 . S
C1318 C1322 1.531 . S
C1319 C1318 1.369 . S
C1319 C1320 1.410 . S
C1319 C1327 1.503 . S
C1320 C1319 1.410 . S
C1320 C1321 1.392 . S
C1320 C1323 1.511 . S
C1321 C1317 1.376 . S
C1321 C1320 1.392 . S
C1321 H1333 0.929 . S
C1322 C1318 1.531 . S
C1322 H1334 0.960 . S
C1322 H1335 0.962 . S
C1322 H1336 0.960 . S
C1323 C1320 1.511 . S
C1323 H1337 0.961 . S
C1323 H1338 0.961 . S
C1323 H1339 0.961 . S
C1324 C1325 1.370 . S
C1324 C1326 1.363 . S
C1324 H1340 0.931 . S
C1325 C1324 1.370 . S
C1325 C1329 1.408 . S
C1326 C1324 1.363 . S
C1326 C1327 1.370 . S
C1326 C1330 1.524 . S
C1327 C1319 1.503 . S
C1327 C1326 1.370 . S
C1327 C1328 1.403 . S
C1328 C1327 1.403 . S
C1328 C1329 1.404 . S
C1328 C1331 1.539 . S
C1329 C1325 1.408 . S
C1329 C1328 1.404 . S
C1329 H1341 0.930 . S
C1330 C1326 1.524 . S
C1330 H1342 0.956 . S
C1330 H1343 0.961 . S
C1330 H1344 0.961 . S
C1331 C1328 1.539 . S
C1331 H1345 0.958 . S
C1331 H1346 0.961 . S
C1331 H1347 0.960 . S
H1332 C1316 0.931 . S
H1333 C1321 0.929 . S
H1334 C1322 0.960 . S
H1335 C1322 0.962 . S
H1336 C1322 0.960 . S
H1337 C1323 0.961 . S
H1338 C1323 0.961 . S
H1339 C1323 0.961 . S
H1340 C1324 0.931 . S
H1341 C1329 0.930 . S
H1342 C1330 0.956 . S
H1343 C1330 0.961 . S
H1344 C1330 0.961 . S
H1345 C1331 0.958 . S
H1346 C1331 0.961 . S
H1347 C1331 0.960 . S
C1348 C1349 1.391 . S
C1348 C1350 1.394 . S
C1348 H1364 0.931 . S
C1349 C1348 1.391 . S
C1349 C1353 1.376 . S
C1350 C1348 1.394 . S
C1350 C1351 1.369 . S
C1350 C1354 1.531 . S
C1351 C1350 1.369 . S
C1351 C1352 1.410 . S
C1351 C1359 1.503 . S
C1352 C1351 1.410 . S
C1352 C1353 1.392 . S
C1352 C1355 1.511 . S
C1353 C1349 1.376 . S
C1353 C1352 1.392 . S
C1353 H1365 0.929 . S
C1354 C1350 1.531 . S
C1354 H1366 0.960 . S
C1354 H1367 0.962 . S
C1354 H1368 0.960 . S
C1355 C1352 1.511 . S
C1355 H1369 0.961 . S
C1355 H1370 0.961 . S
C1355 H1371 0.961 . S
C1356 C1357 1.370 . S
C1356 C1358 1.363 . S
C1356 H1372 0.931 . S
C1357 C1356 1.370 . S
C1357 C1361 1.408 . S
C1358 C1356 1.363 . S
C1358 C1359 1.370 . S
C1358 C1362 1.524 . S
C1359 C1351 1.503 . S
C1359 C1358 1.370 . S
C1359 C1360 1.403 . S
C1360 C1359 1.403 . S
C1360 C1361 1.404 . S
C1360 C1363 1.539 . S
C1361 C1357 1.408 . S
C1361 C1360 1.404 . S
C1361 H1373 0.930 . S
C1362 C1358 1.524 . S
C1362 H1374 0.956 . S
C1362 H1375 0.961 . S
C1362 H1376 0.961 . S
C1363 C1360 1.539 . S
C1363 H1377 0.958 . S
C1363 H1378 0.961 . S
C1363 H1379 0.960 . S
H1364 C1348 0.931 . S
H1365 C1353 0.929 . S
H1366 C1354 0.960 . S
H1367 C1354 0.962 . S
H1368 C1354 0.960 . S
H1369 C1355 0.961 . S
H1370 C1355 0.961 . S
H1371 C1355 0.961 . S
H1372 C1356 0.931 . S
H1373 C1361 0.930 . S
H1374 C1362 0.956 . S
H1375 C1362 0.961 . S
H1376 C1362 0.961 . S
H1377 C1363 0.958 . S
H1378 C1363 0.961 . S
H1379 C1363 0.960 . S
C1380 C1381 1.391 . S
C1380 C1382 1.394 . S
C1380 H1396 0.931 . S
C1381 C1380 1.391 . S
C1381 C1385 1.376 . S
C1382 C1380 1.394 . S
C1382 C1383 1.369 . S
C1382 C1386 1.531 . S
C1383 C1382 1.369 . S
C1383 C1384 1.410 . S
C1383 C1391 1.503 . S
C1384 C1383 1.410 . S
C1384 C1385 1.392 . S
C1384 C1387 1.511 . S
C1385 C1381 1.376 . S
C1385 C1384 1.392 . S
C1385 H1397 0.929 . S
C1386 C1382 1.531 . S
C1386 H1398 0.960 . S
C1386 H1399 0.962 . S
C1386 H1400 0.960 . S
C1387 C1384 1.511 . S
C1387 H1401 0.961 . S
C1387 H1402 0.961 . S
C1387 H1403 0.961 . S
C1388 C1389 1.370 . S
C1388 C1390 1.363 . S
C1388 H1404 0.931 . S
C1389 C1388 1.370 . S
C1389 C1393 1.408 . S
C1390 C1388 1.363 . S
C1390 C1391 1.370 . S
C1390 C1394 1.524 . S
C1391 C1383 1.503 . S
C1391 C1390 1.370 . S
C1391 C1392 1.403 . S
C1392 C1391 1.403 . S
C1392 C1393 1.404 . S
C1392 C1395 1.539 . S
C1393 C1389 1.408 . S
C1393 C1392 1.404 . S
C1393 H1405 0.930 . S
C1394 C1390 1.524 . S
C1394 H1406 0.956 . S
C1394 H1407 0.961 . S
C1394 H1408 0.961 . S
C1395 C1392 1.539 . S
C1395 H1409 0.958 . S
C1395 H1410 0.961 . S
C1395 H1411 0.960 . S
H1396 C1380 0.931 . S
H1397 C1385 0.929 . S
H1398 C1386 0.960 . S
H1399 C1386 0.962 . S
H1400 C1386 0.960 . S
H1401 C1387 0.961 . S
H1402 C1387 0.961 . S
H1403 C1387 0.961 . S
H1404 C1388 0.931 . S
H1405 C1393 0.930 . S
H1406 C1394 0.956 . S
H1407 C1394 0.961 . S
H1408 C1394 0.961 . S
H1409 C1395 0.958 . S
H1410 C1395 0.961 . S
H1411 C1395 0.960 . S
C1412 C1413 1.391 . S
C1412 C1414 1.394 . S
C1412 H1428 0.931 . S
C1413 C1412 1.391 . S
C1413 C1417 1.376 . S
C1414 C1412 1.394 . S
C1414 C1415 1.369 . S
C1414 C1418 1.531 . S
C1415 C1414 1.369 . S
C1415 C1416 1.410 . S
C1415 C1423 1.503 . S
C1416 C1415 1.410 . S
C1416 C1417 1.392 . S
C1416 C1419 1.511 . S
C1417 C1413 1.376 . S
C1417 C1416 1.392 . S
C1417 H1429 0.929 . S
C1418 C1414 1.531 . S
C1418 H1430 0.960 . S
C1418 H1431 0.962 . S
C1418 H1432 0.960 . S
C1419 C1416 1.511 . S
C1419 H1433 0.961 . S
C1419 H1434 0.961 . S
C1419 H1435 0.961 . S
C1420 C1421 1.370 . S
C1420 C1422 1.363 . S
C1420 H1436 0.931 . S
C1421 C1420 1.370 . S
C1421 C1425 1.408 . S
C1422 C1420 1.363 . S
C1422 C1423 1.370 . S
C1422 C1426 1.524 . S
C1423 C1415 1.503 . S
C1423 C1422 1.370 . S
C1423 C1424 1.403 . S
C1424 C1423 1.403 . S
C1424 C1425 1.404 . S
C1424 C1427 1.539 . S
C1425 C1421 1.408 . S
C1425 C1424 1.404 . S
C1425 H1437 0.930 . S
C1426 C1422 1.524 . S
C1426 H1438 0.956 . S
C1426 H1439 0.961 . S
C1426 H1440 0.961 . S
C1427 C1424 1.539 . S
C1427 H1441 0.958 . S
C1427 H1442 0.961 . S
C1427 H1443 0.960 . S
H1428 C1412 0.931 . S
H1429 C1417 0.929 . S
H1430 C1418 0.960 . S
H1431 C1418 0.962 . S
H1432 C1418 0.960 . S
H1433 C1419 0.961 . S
H1434 C1419 0.961 . S
H1435 C1419 0.961 . S
H1436 C1420 0.931 . S
H1437 C1425 0.930 . S
H1438 C1426 0.956 . S
H1439 C1426 0.961 . S
H1440 C1426 0.961 . S
H1441 C1427 0.958 . S
H1442 C1427 0.961 . S
H1443 C1427 0.960 . S
C1444 C1445 1.391 . S
C1444 C1446 1.394 . S
C1444 H1460 0.931 . S
C1445 C1444 1.391 . S
C1445 C1449 1.376 . S
C1446 C1444 1.394 . S
C1446 C1447 1.369 . S
C1446 C1450 1.531 . S
C1447 C1446 1.369 . S
C1447 C1448 1.410 . S
C1447 C1455 1.503 . S
C1448 C1447 1.410 . S
C1448 C1449 1.392 . S
C1448 C1451 1.511 . S
C1449 C1445 1.376 . S
C1449 C1448 1.392 . S
C1449 H1461 0.929 . S
C1450 C1446 1.531 . S
C1450 H1462 0.960 . S
C1450 H1463 0.962 . S
C1450 H1464 0.960 . S
C1451 C1448 1.511 . S
C1451 H1465 0.961 . S
C1451 H1466 0.961 . S
C1451 H1467 0.961 . S
C1452 C1453 1.370 . S
C1452 C1454 1.363 . S
C1452 H1468 0.931 . S
C1453 C1452 1.370 . S
C1453 C1457 1.408 . S
C1454 C1452 1.363 . S
C1454 C1455 1.370 . S
C1454 C1458 1.524 . S
C1455 C1447 1.503 . S
C1455 C1454 1.370 . S
C1455 C1456 1.403 . S
C1456 C1455 1.403 . S
C1456 C1457 1.404 . S
C1456 C1459 1.539 . S
C1457 C1453 1.408 . S
C1457 C1456 1.404 . S
C1457 H1469 0.930 . S
C1458 C1454 1.524 . S
C1458 H1470 0.956 . S
C1458 H1471 0.961 . S
C1458 H1472 0.961 . S
C1459 C1456 1.539 . S
C1459 H1473 0.958 . S
C1459 H1474 0.961 . S
C1459 H1475 0.960 . S
H1460 C1444 0.931 . S
H1461 C1449 0.929 . S
H1462 C1450 0.960 . S
H1463 C1450 0.962 . S
H1464 C1450 0.960 . S
H1465 C1451 0.961 . S
H1466 C1451 0.961 . S
H1467 C1451 0.961 . S
H1468 C1452 0.931 . S
H1469 C1457 0.930 . S
H1470 C1458 0.956 . S
H1471 C1458 0.961 . S
H1472 C1458 0.961 . S
H1473 C1459 0.958 . S
H1474 C1459 0.961 . S
H1475 C1459 0.960 . S
C709 C33 1.035 . S
C717 C406 1.032 . S
C741 C111 1.009 . S
C749 C446 1.028 . S
C773 C524 1.003 . S
C781 C170 1.023 . S
C805 C210 1.029 . S
C813 C583 1.032 . S
C837 C288 1.013 . S
C845 C623 1.030 . S
C869 C701 1.038 . S
C877 C347 1.029 . S
C901 C505 1.691 . S
C909 C52 1.731 . S
C933 C92 1.681 . S
C941 C564 1.718 . S
C965 C642 1.739 1_556 S
C973 C151 1.698 . S
C997 C682 1.710 . S
C1005 C229 1.725 1_554 S
C1029 C269 1.713 . S
C1037 C387 1.709 . S
C1061 C328 1.710 . S
C1069 C465 1.721 . S
C1093 C654 1.448 . S
C1101 C3 1.452 . S
C1125 C359 1.442 . S
C1133 C64 1.448 . S
C1157 C123 1.444 . S
C1165 C416 1.447 . S
C1189 C477 1.450 . S
C1197 C180 1.450 . S
C1221 C536 1.442 . S
C1229 C241 1.449 . S
C1253 C593 1.442 . S
C1261 C300 1.451 . S
C1285 C5 1.279 . S
C1293 C595 1.271 . S
C1317 C652 1.214 . S
C1325 C62 1.239 . S
C1349 C121 1.242 . S
C1357 C357 1.252 . S
C1381 C182 1.234 . S
C1389 C418 1.251 . S
C1413 C239 1.236 1_556 S
C1421 C475 1.238 . S
C1445 C298 1.217 . S
C1453 C534 1.234 1_554 S
