# Generated by pormake.
# Topology cdl, (4)-cn, num edge types: 1
# Building blocks:
#     Node 0, Type 0, BuildingBlock: ESEHIV_clean_sbu_0, # of connection points: 4
#     Node 1, Type 0, BuildingBlock: ESEHIV_clean_sbu_0, # of connection points: 4
#     Node 2, Type 0, BuildingBlock: ESEHIV_clean_sbu_0, # of connection points: 4
#     Node 3, Type 0, BuildingBlock: ESEHIV_clean_sbu_0, # of connection points: 4
#     Edge 4, Type (0, 0), BuildingBlock: XUDNAN_clean_linker_2, # of connection points: 2
#     Edge 5, Type (0, 0), BuildingBlock: XUDNAN_clean_linker_2, # of connection points: 2
#     Edge 6, Type (0, 0), BuildingBlock: XUDNAN_clean_linker_2, # of connection points: 2
#     Edge 7, Type (0, 0), BuildingBlock: XUDNAN_clean_linker_2, # of connection points: 2
#     Edge 8, Type (0, 0), BuildingBlock: XUDNAN_clean_linker_2, # of connection points: 2
#     Edge 9, Type (0, 0), BuildingBlock: XUDNAN_clean_linker_2, # of connection points: 2
#     Edge 10, Type (0, 0), BuildingBlock: XUDNAN_clean_linker_2, # of connection points: 2
#     Edge 11, Type (0, 0), BuildingBlock: XUDNAN_clean_linker_2, # of connection points: 2
# Relax obj value: 0.000
# Max RMSD: 0.146
# Mean RMSD: 0.094
data_MOF--net-cdl--node1-ESEHIV_clean_sbu_0--edge1-XUDNAN_clean_linker_2
_symmetry_space_group_name_H-M    P1
_symmetry_Int_Tables_number       1
_symmetry_cell_setting            triclinic
loop_
_symmetry_equiv_pos_as_xyz
'x, y, z'
_cell_length_a     14.867185
_cell_length_b     17.34433
_cell_length_c     63.271715
_cell_angle_alpha  101.58987
_cell_angle_beta   100.69176
_cell_angle_gamma 88.130605
loop_
_atom_site_label
_atom_site_type_symbol
_atom_site_fract_x
_atom_site_fract_y
_atom_site_fract_z
_atom_type_partial_charge
Cu0 Cu 0.26748 0.14786 0.13736 0.0
N1 N 0.33859 0.05645 0.13885 0.0
N2 N 0.37043 0.92781 0.13707 0.0
C3 C 0.31128 0.98175 0.12961 0.0
C4 C 0.43804 0.97095 0.15135 0.0
C5 C 0.4178 0.0496 0.15257 0.0
O6 O 0.20518 0.16892 0.16269 0.0
C7 C 0.2218 0.12504 0.09188 0.0
O8 O 0.31143 0.12097 0.09425 0.0
H9 H 0.24582 0.9677 0.11891 0.0
H10 H 0.45533 0.09789 0.16385 0.0
N11 N 0.33717 0.23839 0.13911 0.0
N12 N 0.36676 0.36263 0.13719 0.0
C13 C 0.30261 0.30541 0.13313 0.0
C14 C 0.42659 0.2537 0.14711 0.0
C15 C 0.44491 0.33019 0.14601 0.0
C16 C 0.1838 0.11548 0.17213 0.0
O17 O 0.19345 0.04129 0.16316 0.0
H18 H 0.23107 0.31253 0.12641 0.0
H19 H 0.4754 0.21281 0.15344 0.0
O20 O 0.18533 0.13386 0.10896 0.0
H21 H 0.49656 0.94789 0.16101 0.0
H22 H 0.51083 0.35942 0.15118 0.0
Cu23 Cu 0.0932 0.17734 0.64937 0.0
N24 N 0.10628 0.11641 0.67152 0.0
N25 N 0.12177 0.08334 0.70456 0.0
C26 C 0.12973 0.14127 0.69353 0.0
C27 C 0.09531 1.01907 0.68891 0.0
C28 C 0.08649 0.03938 0.66868 0.0
O29 O 0.9794 0.23924 0.6497 0.0
C30 C 0.28263 0.20634 0.65924 0.0
O31 O 0.28197 0.13867 0.6655 0.0
H32 H 0.14725 0.2017 0.70132 0.0
H33 H 0.06494 1.00061 0.65304 0.0
N34 N 0.0739 0.11152 0.62145 0.0
N35 N 0.0741 0.06296 0.58586 0.0
C36 C 0.1114 0.11627 0.60383 0.0
C37 C 1.0096 0.05479 0.61414 0.0
C38 C 1.01039 1.02414 0.59237 0.0
C39 C 0.93865 0.25523 0.66612 0.0
O40 O 0.98135 0.24346 0.68526 0.0
H41 H 0.16386 0.15848 0.6041 0.0
H42 H 0.96283 0.03882 0.62377 0.0
O43 O 0.20656 0.23686 0.65206 0.0
H44 H 0.08129 0.9617 0.69187 0.0
H45 H 0.96508 0.97876 0.58188 0.0
Cu46 Cu 0.96156 0.11546 0.8931 0.0
N47 N 0.89432 1.02091 0.8866 0.0
N48 N 0.86626 0.89444 0.88658 0.0
C49 C 0.92679 0.95492 0.89343 0.0
C50 C 0.79263 0.92405 0.87486 0.0
C51 C 0.81014 1.00173 0.87487 0.0
O52 O 1.01962 0.12686 0.92407 0.0
C53 C 1.00171 0.09256 0.85164 0.0
O54 O 0.91321 0.07889 0.84758 0.0
H55 H 0.99459 0.95167 0.90298 0.0
H56 H 0.76502 0.04058 0.86652 0.0
N57 N 0.89029 0.20573 0.89069 0.0
N58 N 0.86147 0.33353 0.89111 0.0
C59 C 0.92633 0.27836 0.89398 0.0
C60 C 0.79906 0.21528 0.88567 0.0
C61 C 0.78114 0.29405 0.88579 0.0
C62 C 0.96125 0.13297 0.9368 0.0
O63 O 0.87396 0.13315 0.92798 0.0
H64 H 0.99917 0.29024 0.89822 0.0
H65 H 0.74873 0.16897 0.88248 0.0
O66 O 0.04261 0.10952 0.87162 0.0
H67 H 0.73013 0.89235 0.86684 0.0
H68 H 0.71421 0.32043 0.88272 0.0
Cu69 Cu 0.1291 0.21055 0.3899 0.0
N70 N 0.10722 0.16087 0.36018 0.0
N71 N 0.09917 0.14117 0.32372 0.0
C72 C 0.12424 0.19106 0.34324 0.0
C73 C 0.065 0.07717 0.32869 0.0
C74 C 0.06979 0.08959 0.35111 0.0
O75 O 0.24166 0.27301 0.39436 0.0
C76 C 0.94991 0.2288 0.39656 0.0
O77 O 0.95837 0.15207 0.39413 0.0
H78 H 0.15508 0.24837 0.3453 0.0
H79 H 0.04684 0.0497 0.36016 0.0
N80 N 0.14922 0.13503 0.40788 0.0
N81 N 0.1557 0.07583 0.43655 0.0
C82 C 0.13058 0.14104 0.42828 0.0
C83 C 0.1881 0.06407 0.40322 0.0
C84 C 0.19191 1.0274 0.42077 0.0
C85 C 0.30818 0.26996 0.41014 0.0
O86 O 0.29577 0.23534 0.42602 0.0
H87 H 0.09845 0.19193 0.43674 0.0
H88 H 0.21267 0.04091 0.38815 0.0
O89 O 1.01816 0.26962 0.39542 0.0
H90 H 0.03677 1.02555 0.31695 0.0
H91 H 0.22052 0.96989 0.42191 0.0
H92 H 0.45955 0.49426 0.16081 0.0
H93 H 0.24518 0.41163 0.10492 0.0
H94 H 0.22391 0.54742 0.09826 0.0
H95 H 0.352 0.67708 0.17984 0.0
H96 H 0.45805 0.73159 0.18849 0.0
H97 H 0.45701 0.62778 0.18846 0.0
H98 H 0.57946 0.60504 0.16357 0.0
H99 H 0.58066 0.70879 0.16348 0.0
H100 H 0.55801 0.63854 0.13791 0.0
H101 H 0.22826 0.69358 0.09753 0.0
H102 H 0.25268 0.83686 0.10365 0.0
H103 H 0.46083 0.8234 0.1609 0.0
C104 C 0.4087 0.50455 0.14705 0.0
C105 C 0.35426 0.44204 0.13332 0.0
C106 C 0.2872 0.45851 0.11575 0.0
C107 C 0.275 0.53544 0.11177 0.0
C108 C 0.32992 0.59564 0.12561 0.0
C109 C 0.39504 0.58105 0.14299 0.0
C110 C 0.44357 0.65625 0.1558 0.0
C111 C 0.42661 0.67422 0.17955 0.0
C112 C 0.54652 0.65186 0.15514 0.0
C113 C 0.3961 0.71544 0.14285 0.0
C114 C 0.33101 0.67942 0.12546 0.0
C115 C 0.27878 0.72236 0.11119 0.0
C116 C 0.29296 0.80417 0.1149 0.0
C117 C 0.35855 0.8429 0.13285 0.0
C118 C 0.41074 0.79693 0.14687 0.0
H119 H 0.44011 0.20125 0.68844 0.0
H120 H 0.32841 0.28494 0.62894 0.0
H121 H 0.48535 0.31895 0.62544 0.0
H122 H 0.6266 0.35101 0.70893 0.0
H123 H 0.70379 0.28076 0.72004 0.0
H124 H 0.58236 0.27207 0.71879 0.0
H125 H 0.58586 0.129 0.69688 0.0
H126 H 0.70682 0.13744 0.6979 0.0
H127 H 0.63107 0.11034 0.67179 0.0
H128 H 0.65921 0.32336 0.62582 0.0
H129 H 0.82844 0.31027 0.63203 0.0
H130 H 0.82158 0.23246 0.69269 0.0
C131 C 0.44845 0.22871 0.67498 0.0
C132 C 0.37227 0.24091 0.65902 0.0
C133 C 0.38583 0.27624 0.64153 0.0
C134 C 0.47479 0.29527 0.63937 0.0
C135 C 0.54901 0.28018 0.65511 0.0
C136 C 0.5361 0.2493 0.67286 0.0
C137 C 0.62638 0.2354 0.68711 0.0
C138 C 0.63529 0.28797 0.71008 0.0
C139 C 0.63818 0.14787 0.68848 0.0
C140 C 0.69268 0.26059 0.67429 0.0
C141 C 0.64733 0.28619 0.65584 0.0
C142 C 0.6952 0.30527 0.64052 0.0
C143 C 0.79133 0.29756 0.64414 0.0
C144 C 0.8387 0.27179 0.66304 0.0
C145 C 0.78811 0.25439 0.67837 0.0
H146 H 0.75928 0.43482 0.86873 0.0
H147 H 0.99582 0.4219 0.91957 0.0
H148 H 0.02156 0.56472 0.9242 0.0
H149 H 0.85587 0.57573 0.84444 0.0
H150 H 0.7496 0.62681 0.83837 0.0
H151 H 0.74847 0.52383 0.83939 0.0
H152 H 0.6431 0.55299 0.86838 0.0
H153 H 0.64401 0.6561 0.86746 0.0
H154 H 0.6785 0.62475 0.89325 0.0
H155 H 0.02013 0.70913 0.92375 0.0
H156 H 0.99631 0.84383 0.91735 0.0
H157 H 0.76403 0.76284 0.86554 0.0
C158 C 0.81598 0.46226 0.88095 0.0
C159 C 0.87554 0.41716 0.89382 0.0
C160 C 0.9499 0.45503 0.90939 0.0
C161 C 0.96474 0.53622 0.91222 0.0
C162 C 0.90499 0.57887 0.89924 0.0
C163 C 0.83239 0.54324 0.88382 0.0
C164 C 0.77988 0.60241 0.87161 0.0
C165 C 0.78373 0.5809 0.847 0.0
C166 C 0.68048 0.60947 0.87541 0.0
C167 C 0.83409 0.67686 0.88265 0.0
C168 C 0.90563 0.66196 0.8986 0.0
C169 C 0.96471 0.7214 0.91117 0.0
C170 C 0.95076 0.79807 0.90726 0.0
C171 C 0.87863 0.81514 0.89074 0.0
C172 C 0.81954 0.75301 0.87838 0.0
H173 H 0.46698 0.21446 0.43062 0.0
H174 H 0.36353 0.36743 0.38527 0.0
H175 H 0.52225 0.38844 0.3804 0.0
H176 H 0.68792 0.31406 0.4552 0.0
H177 H 0.7468 0.22191 0.45603 0.0
H178 H 0.62785 0.22984 0.45849 0.0
H179 H 0.58832 0.11261 0.42567 0.0
H180 H 0.70683 0.10429 0.42313 0.0
H181 H 0.62116 0.11691 0.39989 0.0
H182 H 0.69496 0.38494 0.37898 0.0
H183 H 0.85688 0.346 0.37804 0.0
H184 H 0.83981 0.18755 0.42204 0.0
C185 C 0.47759 0.25428 0.42012 0.0
C186 C 0.40282 0.29057 0.40865 0.0
C187 C 0.41984 0.33984 0.39445 0.0
C188 C 0.50984 0.35222 0.39165 0.0
C189 C 0.58195 0.31424 0.40297 0.0
C190 C 0.56621 0.26577 0.41681 0.0
C191 C 0.65262 0.2242 0.42515 0.0
C192 C 0.68043 0.24902 0.4502 0.0
C193 C 0.64153 0.13421 0.41802 0.0
C194 C 0.71955 0.25546 0.41357 0.0
C195 C 0.6786 0.30882 0.40125 0.0
C196 C 0.72753 0.3436 0.38871 0.0
C197 C 0.81953 0.32161 0.38835 0.0
C198 C 0.86056 0.26413 0.40004 0.0
C199 C 0.81012 0.23201 0.41305 0.0
H200 H 0.13277 0.11411 0.96198 0.0
H201 H 0.84712 0.16011 0.96636 0.0
H202 H 0.88217 0.16077 1.00584 0.0
H203 H 0.17317 0.98439 1.00067 0.0
H204 H 0.28731 1.02025 1.01279 0.0
H205 H 0.24132 1.02442 0.98462 0.0
H206 H 0.27292 0.17449 0.99292 0.0
H207 H 0.31955 0.17064 0.02107 0.0
H208 H 0.22713 0.23698 1.01478 0.0
H209 H 0.9455 0.15429 0.04483 0.0
H210 H 0.0363 0.14647 0.08123 0.0
H211 H 0.28135 0.10551 0.05246 0.0
C212 C 0.07787 0.12484 0.97129 0.0
C213 C 0.98708 0.13692 0.9609 0.0
C214 C 0.91722 0.1504 0.97376 0.0
C215 C 0.93629 0.15089 0.99629 0.0
C216 C 0.02579 0.13789 1.00598 0.0
C217 C 0.09573 0.12553 0.994 0.0
C218 C 0.18592 0.11305 1.00869 0.0
C219 C 0.22416 0.03062 1.00125 0.0
C220 C 0.25548 0.17765 1.0094 0.0
C221 C 0.15536 0.12047 0.03065 0.0
C222 C 0.06261 0.13452 0.02867 0.0
C223 C 1.01835 0.14341 0.04662 0.0
C224 C 0.07044 0.13866 0.06724 0.0
C225 C 0.16596 0.12535 0.0698 0.0
C226 C 0.20846 0.1157 0.05113 0.0
H227 H 0.15234 0.18215 0.47484 0.0
H228 H 0.13413 0.93275 0.446 0.0
H229 H 0.11815 0.90327 0.4816 0.0
H230 H 0.28273 0.16191 0.52787 0.0
H231 H 0.22395 0.24011 0.54317 0.0
H232 H 0.23511 0.24261 0.51543 0.0
H233 H 0.05917 0.254 0.50459 0.0
H234 H 0.0475 0.25199 0.53231 0.0
H235 H 0.98638 0.18139 0.50977 0.0
H236 H 0.09911 0.89996 0.51968 0.0
H237 H 0.07847 0.92334 0.55827 0.0
H238 H 0.11132 0.17427 0.56353 0.0
C239 C 0.14458 0.12142 0.476 0.0
C240 C 0.14503 0.0597 0.45753 0.0
C241 C 0.13548 0.98096 0.45988 0.0
C242 C 0.12593 0.9636 0.48005 0.0
C243 C 0.12641 1.0255 0.4979 0.0
C244 C 0.13556 0.10287 0.49616 0.0
C245 C 0.1333 0.1581 0.51801 0.0
C246 C 0.2242 0.20335 0.52663 0.0
C247 C 0.05173 0.2147 0.51605 0.0
C248 C 0.1207 0.09961 0.53221 0.0
C249 C 0.11683 1.02349 0.52018 0.0
C250 C 0.10248 0.95925 0.52929 0.0
C251 C 0.09063 0.97307 0.5512 0.0
C252 C 0.09369 0.05041 0.56391 0.0
C253 C 0.11015 0.11444 0.55431 0.0
H254 H 0.10992 1.0292 0.28715 0.0
H255 H 0.10475 0.28175 0.31096 0.0
H256 H 0.11841 0.30312 0.27428 0.0
H257 H 0.2743 0.03031 0.25296 0.0
H258 H 0.22051 0.95175 0.23163 0.0
H259 H 0.20735 0.95667 0.25958 0.0
H260 H 0.03097 0.95556 0.24751 0.0
H261 H 0.04362 0.95087 0.21951 0.0
H262 H 0.97728 1.02851 0.23269 0.0
H263 H 0.13643 0.29678 0.23481 0.0
H264 H 0.16223 0.26305 0.19653 0.0
H265 H 0.15315 1.01472 0.19851 0.0
C266 C 0.11047 0.08906 0.28465 0.0
C267 C 0.10621 0.15375 0.30212 0.0
C268 C 0.10897 0.2311 0.29806 0.0
C269 C 0.11601 0.24387 0.27717 0.0
C270 C 0.12014 0.17878 0.26039 0.0
C271 C 0.11757 0.10287 0.26392 0.0
C272 C 0.12585 0.043 0.24332 0.0
C273 C 0.21214 0.99248 0.24711 0.0
C274 C 0.03927 0.99145 0.23528 0.0
C275 C 0.13428 0.09703 0.22768 0.0
C276 C 0.13034 0.17515 0.23777 0.0
C277 C 0.13912 0.23575 0.22673 0.0
C278 C 0.15361 0.21599 0.20494 0.0
C279 C 0.15939 0.13624 0.19437 0.0
C280 C 0.14836 0.07629 0.20595 0.0
H281 H 1.01698 1.00655 0.7245 0.0
H282 H 0.23538 0.17844 0.7376 0.0
H283 H 0.23952 0.19259 0.77763 0.0
H284 H 0.89862 0.10393 0.76537 0.0
H285 H 0.86281 1.01473 0.77198 0.0
H286 H 0.88377 1.01439 0.74486 0.0
H287 H 1.00009 0.90094 0.74842 0.0
H288 H 0.97975 0.90118 0.77563 0.0
H289 H 0.09451 0.91302 0.77127 0.0
H290 H 0.2151 0.18861 0.81693 0.0
H291 H 0.15524 0.17631 0.8503 0.0
H292 H 0.95046 1.0103 0.81011 0.0
C293 C 0.06706 0.046 0.73577 0.0
C294 C 0.12684 0.09056 0.72792 0.0
C295 C 0.18914 0.1436 0.74326 0.0
C296 C 0.19224 0.1516 0.76601 0.0
C297 C 0.13207 0.10658 0.77317 0.0
C298 C 0.0702 0.05529 0.75837 0.0
C299 C 1.00819 1.01757 0.76987 0.0
C300 C 0.90742 0.03897 0.76259 0.0
C301 C 0.02147 0.92786 0.76607 0.0
C302 C 0.04393 0.05591 0.79349 0.0
C303 C 0.11627 0.10628 0.79526 0.0
C304 C 0.15867 0.14906 0.81566 0.0
C305 C 0.1247 0.14143 0.83456 0.0
C306 C 0.04831 0.09236 0.83281 0.0
C307 C 1.00899 0.04832 0.81201 0.0
loop_
_geom_bond_atom_site_label_1
_geom_bond_atom_site_label_2
_geom_bond_distance
_geom_bond_site_symmetry_2
_ccdc_geom_bond_type
Cu0 N1 1.999 1_545 S
Cu0 O6 1.974 . S
Cu0 N11 1.985 . S
Cu0 O20 1.959 . S
N1 Cu0 1.999 1_565 S
N1 C3 1.263 . S
N1 C5 1.389 . S
N2 C3 1.358 . S
N2 C4 1.400 . S
C3 N1 1.263 . S
C3 N2 1.358 . S
C3 H9 0.930 . S
C4 N2 1.400 . S
C4 C5 1.351 . S
C4 H21 0.930 . S
C5 N1 1.389 . S
C5 C4 1.351 . S
C5 H10 0.930 . S
O6 Cu0 1.974 . S
O6 C16 1.282 . S
C7 O8 1.261 . S
C7 O20 1.251 . S
O8 C7 1.261 . S
H9 C3 0.930 . S
H10 C5 0.930 . S
N11 Cu0 1.985 . S
N11 C13 1.335 . S
N11 C14 1.390 . S
N12 C13 1.345 . S
N12 C15 1.336 . S
C13 N11 1.335 . S
C13 N12 1.345 . S
C13 H18 0.930 . S
C14 N11 1.390 . S
C14 C15 1.346 . S
C14 H19 0.930 . S
C15 N12 1.336 . S
C15 C14 1.346 . S
C15 H22 0.929 . S
C16 O6 1.282 . S
C16 O17 1.216 . S
O17 C16 1.216 . S
H18 C13 0.930 . S
H19 C14 0.930 . S
O20 Cu0 1.959 . S
O20 C7 1.251 . S
H21 C4 0.930 . S
H22 C15 0.929 . S
Cu23 N24 1.999 . S
Cu23 O29 1.974 1_455 S
Cu23 N34 1.985 . S
Cu23 O43 1.959 . S
N24 Cu23 1.999 . S
N24 C26 1.263 . S
N24 C28 1.389 . S
N25 C26 1.358 . S
N25 C27 1.400 . S
C26 N24 1.263 . S
C26 N25 1.358 . S
C26 H32 0.930 1_455 S
C27 N25 1.400 . S
C27 C28 1.351 . S
C27 H44 0.930 . S
C28 N24 1.389 . S
C28 C27 1.351 . S
C28 H33 0.930 . S
O29 Cu23 1.974 1_655 S
O29 C39 1.282 . S
C30 O31 1.261 . S
C30 O43 1.251 . S
O31 C30 1.261 . S
H32 C26 0.930 1_655 S
H33 C28 0.930 . S
N34 Cu23 1.985 . S
N34 C36 1.335 . S
N34 C37 1.390 1_455 S
N35 C36 1.345 . S
N35 C38 1.336 1_455 S
C36 N34 1.335 . S
C36 N35 1.345 . S
C36 H41 0.930 . S
C37 N34 1.390 1_655 S
C37 C38 1.346 . S
C37 H42 0.930 . S
C38 N35 1.336 1_655 S
C38 C37 1.346 . S
C38 H45 0.929 . S
C39 O29 1.282 . S
C39 O40 1.216 . S
O40 C39 1.216 . S
H41 C36 0.930 . S
H42 C37 0.930 . S
O43 Cu23 1.959 . S
O43 C30 1.251 . S
H44 C27 0.930 . S
H45 C38 0.929 . S
Cu46 N47 1.999 . S
Cu46 O52 1.974 . S
Cu46 N57 1.985 . S
Cu46 O66 1.959 . S
N47 Cu46 1.999 . S
N47 C49 1.263 1_545 S
N47 C51 1.389 1_545 S
N48 C49 1.358 . S
N48 C50 1.400 . S
C49 N47 1.263 1_565 S
C49 N48 1.358 . S
C49 H55 0.930 1_455 S
C50 N48 1.400 . S
C50 C51 1.351 . S
C50 H67 0.930 . S
C51 N47 1.389 1_565 S
C51 C50 1.351 . S
C51 H56 0.930 . S
O52 Cu46 1.974 . S
O52 C62 1.282 1_455 S
C53 O54 1.261 . S
C53 O66 1.251 1_655 S
O54 C53 1.261 . S
H55 C49 0.930 1_655 S
H56 C51 0.930 . S
N57 Cu46 1.985 . S
N57 C59 1.335 . S
N57 C60 1.390 1_455 S
N58 C59 1.345 . S
N58 C61 1.336 1_455 S
C59 N57 1.335 . S
C59 N58 1.345 . S
C59 H64 0.930 . S
C60 N57 1.390 1_655 S
C60 C61 1.346 . S
C60 H65 0.930 . S
C61 N58 1.336 1_655 S
C61 C60 1.346 . S
C61 H68 0.929 . S
C62 O52 1.282 1_655 S
C62 O63 1.216 . S
O63 C62 1.216 . S
H64 C59 0.930 . S
H65 C60 0.930 . S
O66 Cu46 1.959 . S
O66 C53 1.251 1_455 S
H67 C50 0.930 . S
H68 C61 0.929 . S
Cu69 N70 1.999 . S
Cu69 O75 1.974 . S
Cu69 N80 1.985 . S
Cu69 O89 1.959 1_455 S
N70 Cu69 1.999 . S
N70 C72 1.263 . S
N70 C74 1.389 . S
N71 C72 1.358 . S
N71 C73 1.400 . S
C72 N70 1.263 . S
C72 N71 1.358 . S
C72 H78 0.930 . S
C73 N71 1.400 . S
C73 C74 1.351 . S
C73 H90 0.930 . S
C74 N70 1.389 . S
C74 C73 1.351 . S
C74 H79 0.930 1_455 S
O75 Cu69 1.974 . S
O75 C85 1.282 . S
C76 O77 1.261 1_545 S
C76 O89 1.251 . S
O77 C76 1.261 1_565 S
H78 C72 0.930 . S
H79 C74 0.930 1_655 S
N80 Cu69 1.985 . S
N80 C82 1.335 . S
N80 C83 1.390 . S
N81 C82 1.345 . S
N81 C84 1.336 . S
C82 N80 1.335 . S
C82 N81 1.345 . S
C82 H87 0.930 . S
C83 N80 1.390 . S
C83 C84 1.346 . S
C83 H88 0.930 . S
C84 N81 1.336 . S
C84 C83 1.346 . S
C84 H91 0.929 . S
C85 O75 1.282 . S
C85 O86 1.216 1_545 S
O86 C85 1.216 1_565 S
H87 C82 0.930 . S
H88 C83 0.930 . S
O89 Cu69 1.959 1_655 S
O89 C76 1.251 . S
H90 C73 0.930 . S
H91 C84 0.929 . S
H92 C104 0.930 . S
H93 C106 0.930 . S
H94 C107 0.930 . S
H95 C111 0.959 . S
H96 C111 0.959 . S
H97 C111 0.961 . S
H98 C112 0.960 . S
H99 C112 0.961 . S
H100 C112 0.959 . S
H101 C115 0.929 . S
H102 C116 0.931 . S
H103 C118 0.930 . S
C104 H92 0.930 . S
C104 C105 1.399 . S
C104 C109 1.399 . S
C105 C104 1.399 . S
C105 C106 1.376 . S
C106 H93 0.930 . S
C106 C105 1.376 . S
C106 C107 1.388 . S
C107 H94 0.930 . S
C107 C106 1.388 . S
C107 C108 1.390 . S
C108 C107 1.390 . S
C108 C109 1.394 . S
C108 C114 1.465 . S
C109 C104 1.399 . S
C109 C108 1.394 . S
C109 C110 1.516 . S
C110 C109 1.516 . S
C110 C111 1.502 . S
C110 C112 1.561 . S
C110 C113 1.526 . S
C111 H95 0.959 . S
C111 H96 0.959 . S
C111 H97 0.961 . S
C111 C110 1.502 . S
C112 H98 0.960 . S
C112 H99 0.961 . S
C112 H100 0.959 . S
C112 C110 1.561 . S
C113 C110 1.526 . S
C113 C114 1.396 . S
C113 C118 1.390 . S
C114 C108 1.465 . S
C114 C113 1.396 . S
C114 C115 1.399 . S
C115 H101 0.929 . S
C115 C114 1.399 . S
C115 C116 1.385 . S
C116 H102 0.931 . S
C116 C115 1.385 . S
C116 C117 1.389 . S
C117 C116 1.389 . S
C117 C118 1.387 . S
C118 H103 0.930 . S
C118 C113 1.390 . S
C118 C117 1.387 . S
H119 C131 0.930 . S
H120 C133 0.930 . S
H121 C134 0.930 . S
H122 C138 0.959 . S
H123 C138 0.959 . S
H124 C138 0.961 . S
H125 C139 0.960 . S
H126 C139 0.961 . S
H127 C139 0.959 . S
H128 C142 0.929 . S
H129 C143 0.931 . S
H130 C145 0.930 . S
C131 H119 0.930 . S
C131 C132 1.399 . S
C131 C136 1.399 . S
C132 C131 1.399 . S
C132 C133 1.376 . S
C133 H120 0.930 . S
C133 C132 1.376 . S
C133 C134 1.388 . S
C134 H121 0.930 . S
C134 C133 1.388 . S
C134 C135 1.390 . S
C135 C134 1.390 . S
C135 C136 1.394 . S
C135 C141 1.465 . S
C136 C131 1.399 . S
C136 C135 1.394 . S
C136 C137 1.516 . S
C137 C136 1.516 . S
C137 C138 1.502 . S
C137 C139 1.561 . S
C137 C140 1.526 . S
C138 H122 0.959 . S
C138 H123 0.959 . S
C138 H124 0.961 . S
C138 C137 1.502 . S
C139 H125 0.960 . S
C139 H126 0.961 . S
C139 H127 0.959 . S
C139 C137 1.561 . S
C140 C137 1.526 . S
C140 C141 1.396 . S
C140 C145 1.390 . S
C141 C135 1.465 . S
C141 C140 1.396 . S
C141 C142 1.399 . S
C142 H128 0.929 . S
C142 C141 1.399 . S
C142 C143 1.385 . S
C143 H129 0.931 . S
C143 C142 1.385 . S
C143 C144 1.389 . S
C144 C143 1.389 . S
C144 C145 1.387 . S
C145 H130 0.930 . S
C145 C140 1.390 . S
C145 C144 1.387 . S
H146 C158 0.930 . S
H147 C160 0.930 . S
H148 C161 0.930 . S
H149 C165 0.959 . S
H150 C165 0.959 . S
H151 C165 0.961 . S
H152 C166 0.960 . S
H153 C166 0.961 . S
H154 C166 0.959 . S
H155 C169 0.929 . S
H156 C170 0.931 1_655 S
H157 C172 0.930 . S
C158 H146 0.930 . S
C158 C159 1.399 . S
C158 C163 1.399 . S
C159 C158 1.399 . S
C159 C160 1.376 1_455 S
C160 H147 0.930 . S
C160 C159 1.376 1_655 S
C160 C161 1.388 . S
C161 H148 0.930 . S
C161 C160 1.388 . S
C161 C162 1.390 1_655 S
C162 C161 1.390 1_455 S
C162 C163 1.394 . S
C162 C168 1.465 . S
C163 C158 1.399 . S
C163 C162 1.394 . S
C163 C164 1.516 . S
C164 C163 1.516 . S
C164 C165 1.502 . S
C164 C166 1.561 1_455 S
C164 C167 1.526 . S
C165 H149 0.959 . S
C165 H150 0.959 . S
C165 H151 0.961 . S
C165 C164 1.502 . S
C166 H152 0.960 . S
C166 H153 0.961 . S
C166 H154 0.959 . S
C166 C164 1.561 1_655 S
C167 C164 1.526 . S
C167 C168 1.396 . S
C167 C172 1.390 . S
C168 C162 1.465 . S
C168 C167 1.396 . S
C168 C169 1.399 1_455 S
C169 H155 0.929 . S
C169 C168 1.399 1_655 S
C169 C170 1.385 1_655 S
C170 H156 0.931 1_455 S
C170 C169 1.385 1_455 S
C170 C171 1.389 . S
C171 C170 1.389 . S
C171 C172 1.387 . S
C172 H157 0.930 . S
C172 C167 1.390 . S
C172 C171 1.387 . S
H173 C185 0.930 . S
H174 C187 0.930 . S
H175 C188 0.930 . S
H176 C192 0.959 . S
H177 C192 0.959 . S
H178 C192 0.961 . S
H179 C193 0.960 . S
H180 C193 0.961 . S
H181 C193 0.959 . S
H182 C196 0.929 . S
H183 C197 0.931 . S
H184 C199 0.930 . S
C185 H173 0.930 . S
C185 C186 1.399 . S
C185 C190 1.399 . S
C186 C185 1.399 . S
C186 C187 1.376 1_545 S
C187 H174 0.930 . S
C187 C186 1.376 1_565 S
C187 C188 1.388 . S
C188 H175 0.930 . S
C188 C187 1.388 . S
C188 C189 1.390 . S
C189 C188 1.390 . S
C189 C190 1.394 1_565 S
C189 C195 1.465 . S
C190 C185 1.399 . S
C190 C189 1.394 1_545 S
C190 C191 1.516 . S
C191 C190 1.516 . S
C191 C192 1.502 . S
C191 C193 1.561 . S
C191 C194 1.526 . S
C192 H176 0.959 . S
C192 H177 0.959 . S
C192 H178 0.961 . S
C192 C191 1.502 . S
C193 H179 0.960 . S
C193 H180 0.961 . S
C193 H181 0.959 . S
C193 C191 1.561 . S
C194 C191 1.526 . S
C194 C195 1.396 1_545 S
C194 C199 1.390 . S
C195 C189 1.465 . S
C195 C194 1.396 1_565 S
C195 C196 1.399 . S
C196 H182 0.929 . S
C196 C195 1.399 . S
C196 C197 1.385 . S
C197 H183 0.931 . S
C197 C196 1.385 . S
C197 C198 1.389 1_565 S
C198 C197 1.389 1_545 S
C198 C199 1.387 . S
C199 H184 0.930 . S
C199 C194 1.390 . S
C199 C198 1.387 . S
H200 C212 0.930 1_655 S
H201 C214 0.930 . S
H202 C215 0.930 . S
H203 C219 0.959 1_545 S
H204 C219 0.959 1_554 S
H205 C219 0.961 . S
H206 C220 0.960 . S
H207 C220 0.961 . S
H208 C220 0.959 . S
H209 C223 0.929 . S
H210 C224 0.931 . S
H211 C226 0.930 . S
C212 H200 0.930 1_455 S
C212 C213 1.399 . S
C212 C217 1.399 . S
C213 C212 1.399 . S
C213 C214 1.376 . S
C214 H201 0.930 . S
C214 C213 1.376 . S
C214 C215 1.388 . S
C215 H202 0.930 . S
C215 C214 1.388 . S
C215 C216 1.390 . S
C216 C215 1.390 . S
C216 C217 1.394 . S
C216 C222 1.465 1_556 S
C217 C212 1.399 . S
C217 C216 1.394 . S
C217 C218 1.516 . S
C218 C217 1.516 . S
C218 C219 1.502 1_445 S
C218 C220 1.561 1_545 S
C218 C221 1.526 1_556 S
C219 H203 0.959 1_565 S
C219 H204 0.959 1_556 S
C219 H205 0.961 . S
C219 C218 1.502 1_665 S
C220 H206 0.960 . S
C220 H207 0.961 . S
C220 H208 0.959 . S
C220 C218 1.561 1_565 S
C221 C218 1.526 1_554 S
C221 C222 1.396 . S
C221 C226 1.390 . S
C222 C216 1.465 1_554 S
C222 C221 1.396 . S
C222 C223 1.399 . S
C223 H209 0.929 . S
C223 C222 1.399 . S
C223 C224 1.385 . S
C224 H210 0.931 . S
C224 C223 1.385 . S
C224 C225 1.389 . S
C225 C224 1.389 . S
C225 C226 1.387 . S
C226 H211 0.930 . S
C226 C221 1.390 . S
C226 C225 1.387 . S
H227 C239 0.930 . S
H228 C241 0.930 1_565 S
H229 C242 0.930 1_565 S
H230 C246 0.959 . S
H231 C246 0.959 . S
H232 C246 0.961 . S
H233 C247 0.960 . S
H234 C247 0.961 . S
H235 C247 0.959 . S
H236 C250 0.929 1_565 S
H237 C251 0.931 . S
H238 C253 0.930 . S
C239 H227 0.930 . S
C239 C240 1.399 . S
C239 C244 1.399 . S
C240 C239 1.399 . S
C240 C241 1.376 . S
C241 H228 0.930 1_545 S
C241 C240 1.376 . S
C241 C242 1.388 . S
C242 H229 0.930 1_545 S
C242 C241 1.388 . S
C242 C243 1.390 . S
C243 C242 1.390 . S
C243 C244 1.394 . S
C243 C249 1.465 . S
C244 C239 1.399 . S
C244 C243 1.394 . S
C244 C245 1.516 . S
C245 C244 1.516 . S
C245 C246 1.502 . S
C245 C247 1.561 1_455 S
C245 C248 1.526 . S
C246 H230 0.959 . S
C246 H231 0.959 . S
C246 H232 0.961 . S
C246 C245 1.502 . S
C247 H233 0.960 . S
C247 H234 0.961 . S
C247 H235 0.959 . S
C247 C245 1.561 1_655 S
C248 C245 1.526 . S
C248 C249 1.396 . S
C248 C253 1.390 . S
C249 C243 1.465 . S
C249 C248 1.396 . S
C249 C250 1.399 . S
C250 H236 0.929 1_545 S
C250 C249 1.399 . S
C250 C251 1.385 . S
C251 H237 0.931 . S
C251 C250 1.385 . S
C251 C252 1.389 . S
C252 C251 1.389 . S
C252 C253 1.387 . S
C253 H238 0.930 . S
C253 C248 1.390 . S
C253 C252 1.387 . S
H254 C266 0.930 1_565 S
H255 C268 0.930 . S
H256 C269 0.930 . S
H257 C273 0.959 1_545 S
H258 C273 0.959 . S
H259 C273 0.961 . S
H260 C274 0.960 . S
H261 C274 0.961 . S
H262 C274 0.959 . S
H263 C277 0.929 . S
H264 C278 0.931 . S
H265 C280 0.930 1_565 S
C266 H254 0.930 1_545 S
C266 C267 1.399 . S
C266 C271 1.399 . S
C267 C266 1.399 . S
C267 C268 1.376 . S
C268 H255 0.930 . S
C268 C267 1.376 . S
C268 C269 1.388 . S
C269 H256 0.930 . S
C269 C268 1.388 . S
C269 C270 1.390 . S
C270 C269 1.390 . S
C270 C271 1.394 . S
C270 C276 1.465 . S
C271 C266 1.399 . S
C271 C270 1.394 . S
C271 C272 1.516 1_545 S
C272 C271 1.516 1_565 S
C272 C273 1.502 . S
C272 C274 1.561 . S
C272 C275 1.526 1_565 S
C273 H257 0.959 1_565 S
C273 H258 0.959 . S
C273 H259 0.961 . S
C273 C272 1.502 . S
C274 H260 0.960 . S
C274 H261 0.961 . S
C274 H262 0.959 . S
C274 C272 1.561 . S
C275 C272 1.526 1_545 S
C275 C276 1.396 . S
C275 C280 1.390 . S
C276 C270 1.465 . S
C276 C275 1.396 . S
C276 C277 1.399 . S
C277 H263 0.929 . S
C277 C276 1.399 . S
C277 C278 1.385 . S
C278 H264 0.931 . S
C278 C277 1.385 . S
C278 C279 1.389 . S
C279 C278 1.389 . S
C279 C280 1.387 . S
C280 H265 0.930 1_545 S
C280 C275 1.390 . S
C280 C279 1.387 . S
H281 C293 0.930 . S
H282 C295 0.930 . S
H283 C296 0.930 . S
H284 C300 0.959 . S
H285 C300 0.959 . S
H286 C300 0.961 . S
H287 C301 0.960 1_565 S
H288 C301 0.961 1_565 S
H289 C301 0.959 1_455 S
H290 C304 0.929 . S
H291 C305 0.931 . S
H292 C307 0.930 . S
C293 H281 0.930 . S
C293 C294 1.399 1_655 S
C293 C298 1.399 . S
C294 C293 1.399 1_455 S
C294 C295 1.376 . S
C295 H282 0.930 . S
C295 C294 1.376 . S
C295 C296 1.388 . S
C296 H283 0.930 . S
C296 C295 1.388 . S
C296 C297 1.390 . S
C297 C296 1.390 . S
C297 C298 1.394 1_455 S
C297 C303 1.465 . S
C298 C293 1.399 . S
C298 C297 1.394 1_655 S
C298 C299 1.516 . S
C299 C298 1.516 . S
C299 C300 1.502 . S
C299 C301 1.561 . S
C299 C302 1.526 . S
C300 H284 0.959 . S
C300 H285 0.959 . S
C300 H286 0.961 . S
C300 C299 1.502 . S
C301 H287 0.960 1_545 S
C301 H288 0.961 1_545 S
C301 H289 0.959 1_655 S
C301 C299 1.561 . S
C302 C299 1.526 . S
C302 C303 1.396 1_655 S
C302 C307 1.390 . S
C303 C297 1.465 . S
C303 C302 1.396 1_455 S
C303 C304 1.399 . S
C304 H290 0.929 . S
C304 C303 1.399 . S
C304 C305 1.385 . S
C305 H291 0.931 . S
C305 C304 1.385 . S
C305 C306 1.389 1_455 S
C306 C305 1.389 1_655 S
C306 C307 1.387 . S
C307 H292 0.930 . S
C307 C302 1.390 . S
C307 C306 1.387 . S
C105 N12 1.486 . S
C117 N2 1.426 . S
C132 C30 1.483 . S
C144 C39 1.460 . S
C159 N58 1.424 . S
C171 N48 1.481 . S
C186 C85 1.460 . S
C198 C76 1.483 . S
C213 C62 1.543 1_455 S
C225 C7 1.554 . S
C240 N81 1.515 . S
C252 N35 1.463 . S
C267 N71 1.408 . S
C279 C16 1.459 . S
C294 N25 1.551 . S
C306 C53 1.571 . S
