# Generated by pormake.
# Topology wfv, (7)-cn, num edge types: 1
# Building blocks:
#     Node 0, Type 0, BuildingBlock: NUHQUE_clean_sbu_2, # of connection points: 7
#     Node 1, Type 0, BuildingBlock: NUHQUE_clean_sbu_2, # of connection points: 7
#     Node 2, Type 0, BuildingBlock: NUHQUE_clean_sbu_2, # of connection points: 7
#     Node 3, Type 0, BuildingBlock: NUHQUE_clean_sbu_2, # of connection points: 7
#     Node 4, Type 0, BuildingBlock: NUHQUE_clean_sbu_2, # of connection points: 7
#     Node 5, Type 0, BuildingBlock: NUHQUE_clean_sbu_2, # of connection points: 7
#     Node 6, Type 0, BuildingBlock: NUHQUE_clean_sbu_2, # of connection points: 7
#     Node 7, Type 0, BuildingBlock: NUHQUE_clean_sbu_2, # of connection points: 7
#     Node 8, Type 0, BuildingBlock: NUHQUE_clean_sbu_2, # of connection points: 7
#     Node 9, Type 0, BuildingBlock: NUHQUE_clean_sbu_2, # of connection points: 7
#     Node 10, Type 0, BuildingBlock: NUHQUE_clean_sbu_2, # of connection points: 7
#     Node 11, Type 0, BuildingBlock: NUHQUE_clean_sbu_2, # of connection points: 7
#     Node 12, Type 0, BuildingBlock: NUHQUE_clean_sbu_2, # of connection points: 7
#     Node 13, Type 0, BuildingBlock: NUHQUE_clean_sbu_2, # of connection points: 7
#     Node 14, Type 0, BuildingBlock: NUHQUE_clean_sbu_2, # of connection points: 7
#     Node 15, Type 0, BuildingBlock: NUHQUE_clean_sbu_2, # of connection points: 7
#     Edge 16, Type (0, 0), BuildingBlock: XIVTED_clean_linker_0, # of connection points: 2
#     Edge 17, Type (0, 0), BuildingBlock: XIVTED_clean_linker_0, # of connection points: 2
#     Edge 18, Type (0, 0), BuildingBlock: XIVTED_clean_linker_0, # of connection points: 2
#     Edge 19, Type (0, 0), BuildingBlock: XIVTED_clean_linker_0, # of connection points: 2
#     Edge 20, Type (0, 0), BuildingBlock: XIVTED_clean_linker_0, # of connection points: 2
#     Edge 21, Type (0, 0), BuildingBlock: XIVTED_clean_linker_0, # of connection points: 2
#     Edge 22, Type (0, 0), BuildingBlock: XIVTED_clean_linker_0, # of connection points: 2
#     Edge 23, Type (0, 0), BuildingBlock: XIVTED_clean_linker_0, # of connection points: 2
#     Edge 24, Type (0, 0), BuildingBlock: XIVTED_clean_linker_0, # of connection points: 2
#     Edge 25, Type (0, 0), BuildingBlock: XIVTED_clean_linker_0, # of connection points: 2
#     Edge 26, Type (0, 0), BuildingBlock: XIVTED_clean_linker_0, # of connection points: 2
#     Edge 27, Type (0, 0), BuildingBlock: XIVTED_clean_linker_0, # of connection points: 2
#     Edge 28, Type (0, 0), BuildingBlock: XIVTED_clean_linker_0, # of connection points: 2
#     Edge 29, Type (0, 0), BuildingBlock: XIVTED_clean_linker_0, # of connection points: 2
#     Edge 30, Type (0, 0), BuildingBlock: XIVTED_clean_linker_0, # of connection points: 2
#     Edge 31, Type (0, 0), BuildingBlock: XIVTED_clean_linker_0, # of connection points: 2
#     Edge 32, Type (0, 0), BuildingBlock: XIVTED_clean_linker_0, # of connection points: 2
#     Edge 33, Type (0, 0), BuildingBlock: XIVTED_clean_linker_0, # of connection points: 2
#     Edge 34, Type (0, 0), BuildingBlock: XIVTED_clean_linker_0, # of connection points: 2
#     Edge 35, Type (0, 0), BuildingBlock: XIVTED_clean_linker_0, # of connection points: 2
#     Edge 36, Type (0, 0), BuildingBlock: XIVTED_clean_linker_0, # of connection points: 2
#     Edge 37, Type (0, 0), BuildingBlock: XIVTED_clean_linker_0, # of connection points: 2
#     Edge 38, Type (0, 0), BuildingBlock: XIVTED_clean_linker_0, # of connection points: 2
#     Edge 39, Type (0, 0), BuildingBlock: XIVTED_clean_linker_0, # of connection points: 2
#     Edge 40, Type (0, 0), BuildingBlock: XIVTED_clean_linker_0, # of connection points: 2
#     Edge 41, Type (0, 0), BuildingBlock: XIVTED_clean_linker_0, # of connection points: 2
#     Edge 42, Type (0, 0), BuildingBlock: XIVTED_clean_linker_0, # of connection points: 2
#     Edge 43, Type (0, 0), BuildingBlock: XIVTED_clean_linker_0, # of connection points: 2
#     Edge 44, Type (0, 0), BuildingBlock: XIVTED_clean_linker_0, # of connection points: 2
#     Edge 45, Type (0, 0), BuildingBlock: XIVTED_clean_linker_0, # of connection points: 2
#     Edge 46, Type (0, 0), BuildingBlock: XIVTED_clean_linker_0, # of connection points: 2
#     Edge 47, Type (0, 0), BuildingBlock: XIVTED_clean_linker_0, # of connection points: 2
#     Edge 48, Type (0, 0), BuildingBlock: XIVTED_clean_linker_0, # of connection points: 2
#     Edge 49, Type (0, 0), BuildingBlock: XIVTED_clean_linker_0, # of connection points: 2
#     Edge 50, Type (0, 0), BuildingBlock: XIVTED_clean_linker_0, # of connection points: 2
#     Edge 51, Type (0, 0), BuildingBlock: XIVTED_clean_linker_0, # of connection points: 2
#     Edge 52, Type (0, 0), BuildingBlock: XIVTED_clean_linker_0, # of connection points: 2
#     Edge 53, Type (0, 0), BuildingBlock: XIVTED_clean_linker_0, # of connection points: 2
#     Edge 54, Type (0, 0), BuildingBlock: XIVTED_clean_linker_0, # of connection points: 2
#     Edge 55, Type (0, 0), BuildingBlock: XIVTED_clean_linker_0, # of connection points: 2
#     Edge 56, Type (0, 0), BuildingBlock: XIVTED_clean_linker_0, # of connection points: 2
#     Edge 57, Type (0, 0), BuildingBlock: XIVTED_clean_linker_0, # of connection points: 2
#     Edge 58, Type (0, 0), BuildingBlock: XIVTED_clean_linker_0, # of connection points: 2
#     Edge 59, Type (0, 0), BuildingBlock: XIVTED_clean_linker_0, # of connection points: 2
#     Edge 60, Type (0, 0), BuildingBlock: XIVTED_clean_linker_0, # of connection points: 2
#     Edge 61, Type (0, 0), BuildingBlock: XIVTED_clean_linker_0, # of connection points: 2
#     Edge 62, Type (0, 0), BuildingBlock: XIVTED_clean_linker_0, # of connection points: 2
#     Edge 63, Type (0, 0), BuildingBlock: XIVTED_clean_linker_0, # of connection points: 2
#     Edge 64, Type (0, 0), BuildingBlock: XIVTED_clean_linker_0, # of connection points: 2
#     Edge 65, Type (0, 0), BuildingBlock: XIVTED_clean_linker_0, # of connection points: 2
#     Edge 66, Type (0, 0), BuildingBlock: XIVTED_clean_linker_0, # of connection points: 2
#     Edge 67, Type (0, 0), BuildingBlock: XIVTED_clean_linker_0, # of connection points: 2
#     Edge 68, Type (0, 0), BuildingBlock: XIVTED_clean_linker_0, # of connection points: 2
#     Edge 69, Type (0, 0), BuildingBlock: XIVTED_clean_linker_0, # of connection points: 2
#     Edge 70, Type (0, 0), BuildingBlock: XIVTED_clean_linker_0, # of connection points: 2
#     Edge 71, Type (0, 0), BuildingBlock: XIVTED_clean_linker_0, # of connection points: 2
# Relax obj value: 0.192
# Max RMSD: 0.256
# Mean RMSD: 0.256
data_MOF--net-wfv--node1-NUHQUE_clean_sbu_2--edge1-XIVTED_clean_linker_0
_symmetry_space_group_name_H-M    P1
_symmetry_Int_Tables_number       1
_symmetry_cell_setting            triclinic
loop_
_symmetry_equiv_pos_as_xyz
'x, y, z'
_cell_length_a     46.587039
_cell_length_b     46.55261
_cell_length_c     42.443586
_cell_angle_alpha  89.940323
_cell_angle_beta   89.978288
_cell_angle_gamma 90.013265
loop_
_atom_site_label
_atom_site_type_symbol
_atom_site_fract_x
_atom_site_fract_y
_atom_site_fract_z
_atom_type_partial_charge
O0 O 0.64232 0.13054 0.09847 0.0
Tb1 Tb 0.68283 0.11045 0.10996 0.0
Eu2 Eu 0.6876 0.01468 0.14543 0.0
C3 C 0.63253 0.12706 0.06971 0.0
O4 O 0.64382 0.10671 0.05222 0.0
C5 C 0.71053 0.05135 0.09031 0.0
O6 O 0.72662 0.99791 0.17062 0.0
C7 C 0.64847 0.97612 0.13482 0.0
C8 C 0.74906 0.01492 0.17235 0.0
O9 O 0.74655 0.0414 0.16196 0.0
C10 C 0.68354 0.07939 0.17341 0.0
C11 C 0.6176 0.96856 0.13193 0.0
C12 C 0.59951 0.98006 0.10826 0.0
C13 C 0.571 0.97005 0.10496 0.0
C14 C 0.56117 0.94828 0.12515 0.0
C15 C 0.57907 0.93607 0.14807 0.0
C16 C 0.60709 0.94657 0.15154 0.0
O17 O 0.68696 0.06523 0.09803 0.0
O18 O 0.71421 0.02575 0.10271 0.0
O19 O 0.70424 0.13614 0.07357 0.0
O20 O 0.71842 0.13913 0.12081 0.0
C21 C 0.72178 0.14934 0.09251 0.0
O22 O 0.67091 0.05892 0.15696 0.0
O23 O 0.68357 0.1054 0.16103 0.0
O24 O 0.65851 0.98184 0.16318 0.0
O25 O 0.66085 0.99104 0.11222 0.0
H26 H 0.60758 0.99636 0.09231 0.0
H27 H 0.53993 0.93936 0.1215 0.0
H28 H 0.62115 0.9369 0.16892 0.0
O29 O 0.3665 0.64899 0.1032 0.0
Tb30 Tb 0.38837 0.68941 0.1108 0.0
Eu31 Eu 0.48474 0.68769 0.14249 0.0
C32 C 0.37087 0.63607 0.07611 0.0
O33 O 0.39259 0.64457 0.05867 0.0
C34 C 0.44849 0.71262 0.0883 0.0
O35 O 0.50473 0.72479 0.16835 0.0
C36 C 0.52088 0.64654 0.131 0.0
C37 C 0.49055 0.74916 0.16943 0.0
O38 O 0.46501 0.75044 0.15646 0.0
C39 C 0.42161 0.69065 0.17284 0.0
C40 C 0.52948 0.61599 0.12746 0.0
C41 C 0.51898 0.59811 0.10307 0.0
C42 C 0.53127 0.57074 0.09793 0.0
C43 C 0.55342 0.56134 0.11781 0.0
C44 C 0.56422 0.57887 0.14184 0.0
C45 C 0.55204 0.60605 0.1466 0.0
O46 O 0.43331 0.69012 0.09694 0.0
O47 O 0.47451 0.71487 0.09996 0.0
O48 O 0.36255 0.70913 0.07346 0.0
O49 O 0.36167 0.72701 0.11925 0.0
C50 C 0.35072 0.72864 0.09113 0.0
O51 O 0.43983 0.67472 0.15662 0.0
O52 O 0.39555 0.69401 0.1613 0.0
O53 O 0.51612 0.65667 0.15952 0.0
O54 O 0.50568 0.65916 0.10882 0.0
H55 H 0.50234 0.60585 0.08739 0.0
H56 H 0.56318 0.54054 0.11365 0.0
H57 H 0.56089 0.61999 0.16461 0.0
O58 O 0.85586 0.37119 0.09357 0.0
Tb59 Tb 0.81589 0.39247 0.10489 0.0
Eu60 Eu 0.81367 0.48868 0.14044 0.0
C61 C 0.86597 0.37431 0.06487 0.0
O62 O 0.85489 0.39442 0.04686 0.0
C63 C 0.78946 0.45215 0.0858 0.0
O64 O 0.77647 0.50776 0.16696 0.0
C65 C 0.85425 0.52522 0.12771 0.0
C66 C 0.75247 0.49298 0.1687 0.0
O67 O 0.75201 0.46678 0.15723 0.0
C68 C 0.8151 0.42367 0.16791 0.0
C69 C 0.88522 0.5308 0.12231 0.0
C70 C 0.90206 0.51474 0.10086 0.0
C71 C 0.93118 0.52194 0.09598 0.0
C72 C 0.94294 0.54513 0.11256 0.0
C73 C 0.92599 0.56285 0.13174 0.0
C74 C 0.89728 0.55501 0.13711 0.0
O75 O 0.81291 0.43781 0.09289 0.0
O76 O 0.78629 0.47772 0.09842 0.0
O77 O 0.77896 0.36597 0.11686 0.0
O78 O 0.79334 0.36649 0.06958 0.0
C79 C 0.7751 0.35492 0.08906 0.0
O80 O 0.82876 0.44389 0.15202 0.0
O81 O 0.81558 0.39756 0.15591 0.0
O82 O 0.84591 0.51923 0.15666 0.0
O83 O 0.83952 0.51165 0.10586 0.0
H84 H 0.89261 0.49707 0.0879 0.0
H85 H 0.96534 0.55041 0.10891 0.0
H86 H 0.88371 0.5685 0.15163 0.0
O87 O 0.12934 0.86036 0.09426 0.0
Tb88 Tb 0.10761 0.82075 0.10644 0.0
Eu89 Eu 0.011 0.81618 0.14093 0.0
C90 C 0.12688 0.86968 0.06515 0.0
O91 O 0.10698 0.8583 0.04713 0.0
C92 C 0.04836 0.79424 0.0856 0.0
O93 O 0.99356 0.7769 0.16519 0.0
C94 C 0.97382 0.85659 0.13 0.0
C95 C 0.01059 0.75443 0.16655 0.0
O96 O 0.03714 0.75731 0.15659 0.0
C97 C 0.07585 0.81999 0.16941 0.0
C98 C 0.96944 0.8879 0.12544 0.0
C99 C 0.98587 0.90437 0.10394 0.0
C100 C 0.98019 0.93393 0.10006 0.0
C101 C 0.95824 0.94659 0.11777 0.0
C102 C 0.93978 0.9301 0.13664 0.0
C103 C 0.94612 0.90084 0.14106 0.0
O104 O 0.06244 0.81752 0.09394 0.0
O105 O 0.02265 0.79052 0.0977 0.0
O106 O 0.1349 0.7847 0.11938 0.0
O107 O 0.13265 0.79687 0.07142 0.0
C108 C 0.14505 0.77967 0.0914 0.0
O109 O 0.05544 0.83223 0.15251 0.0
O110 O 0.10198 0.82062 0.15747 0.0
O111 O 0.98026 0.84761 0.15862 0.0
O112 O 0.98676 0.84204 0.10753 0.0
H113 H 0.00264 0.89432 0.09012 0.0
H114 H 0.95428 0.96938 0.11495 0.0
H115 H 0.93213 0.88763 0.15544 0.0
O116 O 0.64422 0.37288 0.4317 0.0
Tb117 Tb 0.68543 0.39241 0.42199 0.0
Eu118 Eu 0.69062 0.48841 0.38803 0.0
C119 C 0.63295 0.37717 0.45968 0.0
O120 O 0.64346 0.3979 0.47722 0.0
C121 C 0.71346 0.45106 0.44238 0.0
O122 O 0.72868 0.50752 0.36299 0.0
C123 C 0.65035 0.52534 0.4003 0.0
C124 C 0.75223 0.49217 0.3603 0.0
O125 O 0.752 0.46539 0.3701 0.0
C126 C 0.68887 0.42412 0.35898 0.0
C127 C 0.61943 0.5326 0.40366 0.0
C128 C 0.60173 0.52112 0.42776 0.0
C129 C 0.57367 0.53195 0.43242 0.0
C130 C 0.5635 0.55362 0.41229 0.0
C131 C 0.58086 0.56547 0.38867 0.0
C132 C 0.60868 0.55472 0.38441 0.0
O133 O 0.68978 0.43748 0.43443 0.0
O134 O 0.71744 0.47672 0.43024 0.0
O135 O 0.72035 0.36268 0.41229 0.0
O136 O 0.70582 0.36704 0.45929 0.0
C137 C 0.72319 0.353 0.44087 0.0
O138 O 0.675 0.44421 0.37478 0.0
O139 O 0.6888 0.39803 0.37113 0.0
O140 O 0.66046 0.52084 0.37171 0.0
O141 O 0.66312 0.50998 0.42225 0.0
H142 H 0.61006 0.50484 0.44355 0.0
H143 H 0.54215 0.56224 0.416 0.0
H144 H 0.62242 0.56432 0.36665 0.0
O145 O 0.13148 0.64482 0.4311 0.0
Tb146 Tb 0.11147 0.68546 0.41957 0.0
Eu147 Eu 0.01435 0.69003 0.38762 0.0
C148 C 0.12758 0.63461 0.45966 0.0
O149 O 0.10718 0.64586 0.47713 0.0
C150 C 0.05259 0.71288 0.44102 0.0
O151 O 0.99413 0.72776 0.36301 0.0
C152 C 0.97846 0.64887 0.40044 0.0
C153 C 0.00892 0.75168 0.36023 0.0
O154 O 0.0356 0.75216 0.37018 0.0
C155 C 0.07815 0.68994 0.3575 0.0
C156 C 0.97244 0.61758 0.40297 0.0
C157 C 0.98518 0.59966 0.42604 0.0
C158 C 0.97643 0.57068 0.42919 0.0
C159 C 0.95459 0.56024 0.40948 0.0
C160 C 0.94122 0.57792 0.38713 0.0
C161 C 0.95057 0.60638 0.38376 0.0
O162 O 0.06635 0.68963 0.43195 0.0
O163 O 0.02661 0.71666 0.42977 0.0
O164 O 0.1428 0.71813 0.40722 0.0
O165 O 0.13468 0.71007 0.45552 0.0
C166 C 0.15039 0.72464 0.43578 0.0
O167 O 0.0583 0.67508 0.37262 0.0
O168 O 0.10447 0.68904 0.36888 0.0
O169 O 0.98174 0.65981 0.37201 0.0
O170 O 0.99432 0.66147 0.42205 0.0
H171 H 0.00146 0.60822 0.44165 0.0
H172 H 0.94656 0.53863 0.41309 0.0
H173 H 0.94002 0.62024 0.36678 0.0
O174 O 0.85129 0.13097 0.43845 0.0
Tb175 Tb 0.81112 0.10976 0.428 0.0
Eu176 Eu 0.80964 0.01485 0.39092 0.0
C177 C 0.86276 0.12652 0.46629 0.0
O178 O 0.85277 0.10535 0.48361 0.0
C179 C 0.78569 0.04959 0.44678 0.0
O180 O 0.77204 0.99625 0.36472 0.0
C181 C 0.85054 0.97815 0.40139 0.0
C182 C 0.74819 0.01125 0.36312 0.0
O183 O 0.74782 0.03727 0.37506 0.0
C184 C 0.81 0.08008 0.36426 0.0
C185 C 0.88147 0.97089 0.40456 0.0
C186 C 0.89919 0.98207 0.42875 0.0
C187 C 0.92721 0.97112 0.43324 0.0
C188 C 0.93735 0.94963 0.41292 0.0
C189 C 0.92 0.93816 0.38911 0.0
C190 C 0.8922 0.94902 0.38499 0.0
O191 O 0.80886 0.06429 0.43942 0.0
O192 O 0.78263 0.02421 0.4337 0.0
O193 O 0.79005 0.13571 0.46437 0.0
O194 O 0.77304 0.13536 0.41818 0.0
C195 C 0.77052 0.14667 0.44604 0.0
O196 O 0.82422 0.05983 0.37947 0.0
O197 O 0.81008 0.10593 0.3769 0.0
O198 O 0.84046 0.98373 0.37302 0.0
O199 O 0.83755 0.99239 0.42405 0.0
H200 H 0.89091 0.99819 0.44475 0.0
H201 H 0.95865 0.94087 0.41661 0.0
H202 H 0.87845 0.9397 0.36709 0.0
O203 O 0.36986 0.85238 0.43417 0.0
Tb204 Tb 0.39204 0.81188 0.42847 0.0
Eu205 Eu 0.48667 0.81407 0.39378 0.0
C206 C 0.37472 0.86678 0.46023 0.0
O207 O 0.3971 0.85962 0.47737 0.0
C208 C 0.4526 0.79015 0.45015 0.0
O209 O 0.50649 0.77677 0.36814 0.0
C210 C 0.5219 0.85645 0.40304 0.0
C211 C 0.4924 0.75233 0.36793 0.0
O212 O 0.4672 0.75113 0.38172 0.0
C213 C 0.42291 0.80952 0.36537 0.0
C214 C 0.5284 0.88761 0.40526 0.0
C215 C 0.51709 0.90546 0.42923 0.0
C216 C 0.52743 0.9338 0.43303 0.0
C217 C 0.54844 0.94412 0.41218 0.0
C218 C 0.56013 0.92659 0.38864 0.0
C219 C 0.54984 0.89848 0.3852 0.0
O220 O 0.43707 0.81246 0.44174 0.0
O221 O 0.47817 0.78773 0.43739 0.0
O222 O 0.36518 0.79569 0.46687 0.0
O223 O 0.36776 0.77202 0.42446 0.0
C224 C 0.35532 0.77344 0.45187 0.0
O225 O 0.44124 0.82598 0.38077 0.0
O226 O 0.39729 0.80586 0.37791 0.0
O227 O 0.51685 0.84543 0.37499 0.0
O228 O 0.50782 0.84371 0.42603 0.0
H229 H 0.50139 0.89702 0.44565 0.0
H230 H 0.55673 0.9657 0.41526 0.0
H231 H 0.55935 0.88461 0.36754 0.0
O232 O 0.35874 0.87322 0.93573 0.0
Tb233 Tb 0.31818 0.89374 0.92535 0.0
Eu234 Eu 0.31483 0.98917 0.88806 0.0
C235 C 0.36976 0.87716 0.96389 0.0
O236 O 0.35957 0.89809 0.98137 0.0
C237 C 0.29102 0.95324 0.94358 0.0
O238 O 0.27729 0.00778 0.86168 0.0
C239 C 0.35599 0.02519 0.90012 0.0
C240 C 0.2541 0.9918 0.85979 0.0
O241 O 0.25512 0.96557 0.87116 0.0
C242 C 0.31602 0.92378 0.86156 0.0
C243 C 0.38717 0.02935 0.9056 0.0
C244 C 0.40323 0.01222 0.92679 0.0
C245 C 0.43267 0.01792 0.93172 0.0
C246 C 0.44554 0.04069 0.91535 0.0
C247 C 0.42944 0.05949 0.89648 0.0
C248 C 0.40036 0.05313 0.8911 0.0
O249 O 0.31469 0.93911 0.93681 0.0
O250 O 0.28761 0.97858 0.93045 0.0
O251 O 0.29757 0.86844 0.96259 0.0
O252 O 0.28158 0.86594 0.91602 0.0
C253 C 0.27904 0.85571 0.94441 0.0
O254 O 0.32967 0.94418 0.87712 0.0
O255 O 0.31617 0.89792 0.87426 0.0
O256 O 0.34763 0.01891 0.87127 0.0
O257 O 0.34067 0.01256 0.9222 0.0
H258 H 0.39294 0.99487 0.93955 0.0
H259 H 0.46817 0.04484 0.91901 0.0
H260 H 0.38743 0.06745 0.87682 0.0
O261 O 0.6303 0.3579 0.93481 0.0
Tb262 Tb 0.61039 0.31707 0.92446 0.0
Eu263 Eu 0.51517 0.31215 0.88775 0.0
C264 C 0.62678 0.36848 0.96321 0.0
O265 O 0.60661 0.35748 0.98121 0.0
C266 C 0.55138 0.28916 0.94331 0.0
O267 O 0.49844 0.27323 0.8623 0.0
C268 C 0.47684 0.3512 0.89935 0.0
C269 C 0.51534 0.25067 0.86109 0.0
O270 O 0.54168 0.25322 0.87179 0.0
C271 C 0.58023 0.31613 0.86081 0.0
C272 C 0.46938 0.38187 0.9041 0.0
C273 C 0.48312 0.39955 0.92665 0.0
C274 C 0.47297 0.42767 0.93209 0.0
C275 C 0.45019 0.43816 0.91387 0.0
C276 C 0.43482 0.42031 0.89326 0.0
C277 C 0.44505 0.3923 0.88812 0.0
O278 O 0.56521 0.31298 0.9364 0.0
O279 O 0.52605 0.28541 0.93035 0.0
O280 O 0.63728 0.29696 0.96068 0.0
O281 O 0.63772 0.28027 0.91432 0.0
C282 C 0.64918 0.27814 0.94217 0.0
O283 O 0.55956 0.32875 0.87698 0.0
O284 O 0.60611 0.31652 0.87338 0.0
O285 O 0.48325 0.34261 0.87059 0.0
O286 O 0.49101 0.33756 0.92162 0.0
H287 H 0.5006 0.39116 0.94075 0.0
H288 H 0.44362 0.46026 0.91718 0.0
H289 H 0.43327 0.37781 0.87293 0.0
O290 O 0.14667 0.6348 0.93755 0.0
Tb291 Tb 0.18668 0.61319 0.92703 0.0
Eu292 Eu 0.19005 0.51786 0.88938 0.0
C293 C 0.13559 0.63119 0.96575 0.0
O294 O 0.14576 0.61049 0.98361 0.0
C295 C 0.21222 0.55311 0.94629 0.0
O296 O 0.22913 0.50361 0.86259 0.0
C297 C 0.15101 0.47872 0.89765 0.0
C298 C 0.23483 0.47654 0.85651 0.0
O299 O 0.21578 0.45675 0.86355 0.0
C300 C 0.18771 0.58282 0.86338 0.0
C301 C 0.12038 0.4708 0.90147 0.0
C302 C 0.10163 0.48495 0.92253 0.0
C303 C 0.07299 0.47547 0.92591 0.0
C304 C 0.06355 0.45197 0.90799 0.0
C305 C 0.0825 0.4361 0.88902 0.0
C306 C 0.11076 0.44621 0.88544 0.0
O307 O 0.18907 0.5677 0.9386 0.0
O308 O 0.21581 0.52784 0.93302 0.0
O309 O 0.22413 0.63955 0.91668 0.0
O310 O 0.20846 0.63853 0.96344 0.0
C311 C 0.2273 0.65022 0.94476 0.0
O312 O 0.17418 0.56257 0.87935 0.0
O313 O 0.18806 0.60873 0.8759 0.0
O314 O 0.15976 0.48708 0.86956 0.0
O315 O 0.16432 0.49156 0.92109 0.0
H316 H 0.10929 0.50291 0.93641 0.0
H317 H 0.04148 0.44507 0.91041 0.0
H318 H 0.12601 0.43422 0.87137 0.0
O319 O 0.87126 0.14476 0.9398 0.0
Tb320 Tb 0.89233 0.18433 0.92619 0.0
Eu321 Eu 0.98764 0.18894 0.88691 0.0
C322 C 0.87436 0.13591 0.96901 0.0
O323 O 0.89441 0.1478 0.98643 0.0
C324 C 0.95203 0.21195 0.94316 0.0
O325 O 0.00156 0.22755 0.85901 0.0
C326 C 0.02672 0.15005 0.89625 0.0
C327 C 0.02866 0.23463 0.85549 0.0
O328 O 0.04868 0.21688 0.86531 0.0
C329 C 0.9223 0.18458 0.86244 0.0
C330 C 0.03279 0.11914 0.90144 0.0
C331 C 0.01711 0.10205 0.92302 0.0
C332 C 0.02438 0.07288 0.92731 0.0
C333 C 0.04719 0.06127 0.91006 0.0
C334 C 0.06467 0.0785 0.89085 0.0
C335 C 0.05677 0.1073 0.88601 0.0
O336 O 0.93793 0.18822 0.93655 0.0
O337 O 0.9772 0.21564 0.9297 0.0
O338 O 0.86462 0.21992 0.91288 0.0
O339 O 0.86778 0.2089 0.96112 0.0
C340 C 0.8549 0.22554 0.94091 0.0
O341 O 0.94321 0.17187 0.87811 0.0
O342 O 0.89646 0.1834 0.87504 0.0
O343 O 0.01813 0.1579 0.86794 0.0
O344 O 0.01467 0.16472 0.91922 0.0
H345 H 0.99967 0.11132 0.93649 0.0
H346 H 0.05242 0.03878 0.91328 0.0
H347 H 0.07 0.12104 0.87136 0.0
O348 O 0.35578 0.62991 0.59744 0.0
Tb349 Tb 0.31473 0.60906 0.60415 0.0
Eu350 Eu 0.31102 0.51535 0.64153 0.0
C351 C 0.36929 0.62571 0.57067 0.0
O352 O 0.36086 0.60447 0.55252 0.0
C353 C 0.2887 0.54981 0.58475 0.0
O354 O 0.27326 0.4957 0.66653 0.0
C355 C 0.35271 0.47974 0.63035 0.0
C356 C 0.24951 0.51078 0.66887 0.0
O357 O 0.24943 0.53741 0.65861 0.0
C358 C 0.31029 0.58062 0.66858 0.0
C359 C 0.3839 0.47352 0.62736 0.0
C360 C 0.40123 0.48479 0.60281 0.0
C361 C 0.42955 0.47457 0.59839 0.0
C362 C 0.44033 0.45367 0.61911 0.0
C363 C 0.42336 0.44208 0.64323 0.0
C364 C 0.39533 0.45234 0.64736 0.0
O365 O 0.31224 0.56383 0.59226 0.0
O366 O 0.28449 0.52489 0.59848 0.0
O367 O 0.27572 0.6344 0.6092 0.0
O368 O 0.29798 0.6356 0.56577 0.0
C369 C 0.27645 0.64619 0.58143 0.0
O370 O 0.32504 0.56024 0.65419 0.0
O371 O 0.31009 0.60611 0.65505 0.0
O372 O 0.34217 0.48424 0.65876 0.0
O373 O 0.33959 0.49429 0.60801 0.0
H374 H 0.39242 0.50036 0.58648 0.0
H375 H 0.46183 0.44542 0.61546 0.0
H376 H 0.3819 0.44295 0.66553 0.0
O377 O 0.86967 0.35536 0.59717 0.0
Tb378 Tb 0.89005 0.31513 0.60944 0.0
Eu379 Eu 0.98642 0.311 0.64317 0.0
C380 C 0.87317 0.36485 0.56826 0.0
O381 O 0.89332 0.35316 0.55081 0.0
C382 C 0.94918 0.28788 0.58906 0.0
O383 O 0.00586 0.27307 0.66815 0.0
C384 C 0.02303 0.35154 0.63059 0.0
C385 C 0.99068 0.24942 0.67112 0.0
O386 O 0.96384 0.24944 0.66163 0.0
C387 C 0.92203 0.31308 0.67236 0.0
C388 C 0.02954 0.38265 0.6274 0.0
C389 C 0.0167 0.40051 0.60434 0.0
C390 C 0.02584 0.42931 0.60066 0.0
C391 C 0.04818 0.43961 0.61978 0.0
C392 C 0.06161 0.42197 0.64212 0.0
C393 C 0.05186 0.39371 0.64606 0.0
O394 O 0.93529 0.31121 0.59758 0.0
O395 O 0.97489 0.28408 0.601 0.0
O396 O 0.86041 0.28091 0.62201 0.0
O397 O 0.86607 0.29095 0.57378 0.0
C398 C 0.85175 0.27513 0.59362 0.0
O399 O 0.94226 0.32669 0.65646 0.0
O400 O 0.89592 0.31358 0.66038 0.0
O401 O 0.01886 0.34126 0.65918 0.0
O402 O 0.00764 0.33866 0.60877 0.0
H403 H 1.00002 0.39205 0.58918 0.0
H404 H 0.05646 0.46106 0.61574 0.0
H405 H 0.06238 0.37987 0.66307 0.0
O406 O 0.14733 0.869 0.59663 0.0
Tb407 Tb 0.18743 0.88985 0.60839 0.0
Eu408 Eu 0.19013 0.98667 0.64077 0.0
C409 C 0.13755 0.87259 0.56786 0.0
O410 O 0.14884 0.89304 0.55045 0.0
C411 C 0.21367 0.9493 0.58688 0.0
O412 O 0.22764 0.00648 0.66601 0.0
C413 C 0.14932 0.02305 0.62846 0.0
C414 C 0.25147 0.99163 0.66896 0.0
O415 O 0.25203 0.96497 0.65888 0.0
C416 C 0.18939 0.92263 0.67081 0.0
C417 C 0.11834 0.03022 0.62536 0.0
C418 C 0.10067 0.01905 0.60111 0.0
C419 C 0.07262 0.02994 0.59661 0.0
C420 C 0.06239 0.05133 0.61697 0.0
C421 C 0.07966 0.06281 0.64085 0.0
C422 C 0.10751 0.05203 0.64497 0.0
O423 O 0.19069 0.93504 0.59587 0.0
O424 O 0.21705 0.97522 0.59848 0.0
O425 O 0.21141 0.86551 0.57284 0.0
O426 O 0.222 0.86068 0.62103 0.0
C427 C 0.22751 0.8516 0.59273 0.0
O428 O 0.17519 0.9424 0.65483 0.0
O429 O 0.18931 0.89635 0.65924 0.0
O430 O 0.15974 0.01891 0.65698 0.0
O431 O 0.16199 0.00755 0.60658 0.0
H432 H 0.10901 0.00301 0.58506 0.0
H433 H 0.04107 0.06004 0.61326 0.0
H434 H 0.1212 0.06138 0.6629 0.0
O435 O 0.62748 0.14747 0.59622 0.0
Tb436 Tb 0.60751 0.1888 0.6038 0.0
Eu437 Eu 0.5133 0.19366 0.64132 0.0
C438 C 0.62358 0.13507 0.56877 0.0
O439 O 0.603 0.14473 0.55045 0.0
C440 C 0.54837 0.21563 0.58443 0.0
O441 O 0.49557 0.23179 0.66727 0.0
C442 C 0.47584 0.15327 0.63195 0.0
C443 C 0.51115 0.25526 0.66906 0.0
O444 O 0.5373 0.25501 0.65746 0.0
C445 C 0.57844 0.1919 0.66773 0.0
C446 C 0.46884 0.12232 0.62856 0.0
C447 C 0.48024 0.10489 0.60426 0.0
C448 C 0.46975 0.07671 0.59968 0.0
C449 C 0.44854 0.0661 0.62009 0.0
C450 C 0.4368 0.08318 0.64399 0.0
C451 C 0.44719 0.11118 0.64816 0.0
O452 O 0.5623 0.19195 0.59169 0.0
O453 O 0.52333 0.21976 0.59795 0.0
O454 O 0.63531 0.20549 0.56639 0.0
O455 O 0.63345 0.22732 0.61004 0.0
C456 C 0.64596 0.22663 0.58264 0.0
O457 O 0.55802 0.17826 0.65223 0.0
O458 O 0.60416 0.19195 0.65482 0.0
O459 O 0.48258 0.16287 0.6602 0.0
O460 O 0.48921 0.16661 0.60885 0.0
H461 H 0.4962 0.11353 0.58827 0.0
H462 H 0.44019 0.04462 0.61643 0.0
H463 H 0.4377 0.12473 0.66614 0.0
H464 H 0.74477 0.3244 0.13199 0.0
H465 H 0.72019 0.18086 0.03766 0.0
H466 H 0.77469 0.32102 0.03584 0.0
H467 H 0.75009 0.18345 0.13382 0.0
H468 H 0.73018 0.23269 0.03301 0.0
H469 H 0.73316 0.27337 0.1293 0.0
C470 C 0.74822 0.31309 0.11002 0.0
C471 C 0.761 0.32686 0.08422 0.0
C472 C 0.73511 0.22163 0.05479 0.0
C473 C 0.748 0.2684 0.08115 0.0
C474 C 0.7296 0.19212 0.05745 0.0
C475 C 0.73429 0.1779 0.08622 0.0
C476 C 0.74491 0.2368 0.08123 0.0
C477 C 0.74613 0.19354 0.11124 0.0
C478 C 0.7419 0.28391 0.10864 0.0
C479 C 0.76494 0.3111 0.05629 0.0
N480 N 0.75058 0.22221 0.10832 0.0
N481 N 0.75864 0.28249 0.0555 0.0
H482 H 0.17518 0.77408 0.03591 0.0
H483 H 0.32017 0.76303 0.13014 0.0
H484 H 0.17964 0.75588 0.13549 0.0
H485 H 0.31617 0.72218 0.03903 0.0
H486 H 0.26882 0.77293 0.12688 0.0
H487 H 0.22678 0.76307 0.03155 0.0
C488 C 0.18683 0.76712 0.05664 0.0
C489 C 0.17323 0.76606 0.08617 0.0
C490 C 0.27928 0.76212 0.10742 0.0
C491 C 0.23194 0.75487 0.08151 0.0
C492 C 0.30863 0.7568 0.10907 0.0
C493 C 0.32236 0.74155 0.08495 0.0
C494 C 0.26356 0.75242 0.08135 0.0
C495 C 0.30631 0.73396 0.05816 0.0
C496 C 0.21623 0.76112 0.05415 0.0
C497 C 0.18928 0.75711 0.11231 0.0
N498 N 0.27753 0.73925 0.05715 0.0
N499 N 0.21789 0.75245 0.10949 0.0
H500 H 0.71997 0.32243 0.49625 0.0
H501 H 0.73837 0.17695 0.4045 0.0
H502 H 0.75072 0.31737 0.4005 0.0
H503 H 0.77225 0.18075 0.49903 0.0
H504 H 0.7278 0.22824 0.40716 0.0
H505 H 0.72787 0.27035 0.5018 0.0
C506 C 0.72914 0.31055 0.47676 0.0
C507 C 0.73467 0.32417 0.44782 0.0
C508 C 0.7371 0.21769 0.4275 0.0
C509 C 0.74284 0.265 0.45384 0.0
C510 C 0.74284 0.18839 0.42617 0.0
C511 C 0.75656 0.1747 0.45142 0.0
C512 C 0.7447 0.23335 0.45443 0.0
C513 C 0.7618 0.19062 0.47897 0.0
C514 C 0.73344 0.2809 0.47992 0.0
C515 C 0.74613 0.30775 0.42319 0.0
N516 N 0.75608 0.21934 0.4797 0.0
N517 N 0.74937 0.27897 0.42658 0.0
H518 H 0.17513 0.73358 0.49398 0.0
H519 H 0.3292 0.7311 0.41868 0.0
H520 H 0.19057 0.74239 0.39416 0.0
H521 H 0.31653 0.78768 0.49795 0.0
H522 H 0.27776 0.72067 0.41861 0.0
H523 H 0.22647 0.74337 0.50361 0.0
C524 C 0.18914 0.73817 0.47423 0.0
C525 C 0.17869 0.73708 0.44321 0.0
C526 C 0.28641 0.73496 0.43636 0.0
C527 C 0.23695 0.7468 0.454 0.0
C528 C 0.31574 0.74065 0.43667 0.0
C529 C 0.32704 0.76045 0.45815 0.0
C530 C 0.26832 0.749 0.45781 0.0
C531 C 0.30858 0.7723 0.48094 0.0
C532 C 0.21834 0.74348 0.47975 0.0
C533 C 0.19771 0.74294 0.41843 0.0
N534 N 0.27988 0.76674 0.4799 0.0
N535 N 0.226 0.74697 0.42432 0.0
H536 H 0.28265 0.82362 0.9987 0.0
H537 H 0.25807 0.68166 0.90302 0.0
H538 H 0.24852 0.82242 0.90422 0.0
H539 H 0.22686 0.68308 0.99876 0.0
H540 H 0.26907 0.73278 0.90696 0.0
H541 H 0.27294 0.77173 1.0029 0.0
C542 C 0.27234 0.81266 0.97925 0.0
C543 C 0.26644 0.82726 0.95099 0.0
C544 C 0.26022 0.72175 0.92725 0.0
C545 C 0.25616 0.76831 0.95546 0.0
C546 C 0.25424 0.69254 0.92518 0.0
C547 C 0.24123 0.67822 0.95047 0.0
C548 C 0.25358 0.73671 0.95496 0.0
C549 C 0.23679 0.69344 0.97867 0.0
C550 C 0.267 0.78311 0.98165 0.0
C551 C 0.25346 0.812 0.92638 0.0
N552 N 0.24278 0.72209 0.98015 0.0
N553 N 0.24924 0.78327 0.92898 0.0
H554 H 0.68 0.24601 0.90117 0.0
H555 H 0.82456 0.23081 0.99638 0.0
H556 H 0.68377 0.28221 0.99463 0.0
H557 H 0.82058 0.24997 0.89699 0.0
H558 H 0.77304 0.24227 1.00068 0.0
H559 H 0.73126 0.23569 0.90408 0.0
C560 C 0.69148 0.25116 0.92263 0.0
C561 C 0.67769 0.2652 0.94757 0.0
C562 C 0.78367 0.2443 0.97813 0.0
C563 C 0.73646 0.25383 0.95084 0.0
C564 C 0.81304 0.23806 0.97568 0.0
C565 C 0.82676 0.23927 0.94622 0.0
C566 C 0.76809 0.25097 0.95078 0.0
C567 C 0.81085 0.24859 0.92012 0.0
C568 C 0.72079 0.2456 0.92411 0.0
C569 C 0.69368 0.27139 0.97485 0.0
N570 N 0.78229 0.25352 0.92289 0.0
N571 N 0.72242 0.26584 0.97573 0.0
H572 H 0.24962 0.8149 0.63577 0.0
H573 H 0.28731 0.68224 0.53168 0.0
H574 H 0.23348 0.82333 0.53605 0.0
H575 H 0.23808 0.67514 0.61747 0.0
H576 H 0.27757 0.73412 0.531 0.0
H577 H 0.25886 0.76381 0.62829 0.0
C578 C 0.24874 0.80616 0.61214 0.0
C579 C 0.2405 0.82328 0.58653 0.0
C580 C 0.26826 0.72096 0.54932 0.0
C581 C 0.25088 0.76484 0.57796 0.0
C582 C 0.27363 0.69139 0.5497 0.0
C583 C 0.26363 0.67448 0.57484 0.0
C584 C 0.2531 0.73342 0.57433 0.0
C585 C 0.24632 0.68744 0.59777 0.0
C586 C 0.25366 0.77696 0.608 0.0
C587 C 0.23969 0.81076 0.55641 0.0
N588 N 0.24209 0.71626 0.59733 0.0
N589 N 0.24472 0.78208 0.55289 0.0
H590 H 0.67414 0.26483 0.61951 0.0
H591 H 0.82494 0.26776 0.53635 0.0
H592 H 0.6833 0.21579 0.53387 0.0
H593 H 0.81371 0.25469 0.63627 0.0
H594 H 0.77345 0.25764 0.52871 0.0
H595 H 0.72565 0.27456 0.61869 0.0
C596 C 0.68686 0.25676 0.60005 0.0
C597 C 0.67453 0.23926 0.57691 0.0
C598 C 0.7825 0.25663 0.55214 0.0
C599 C 0.73343 0.24996 0.57614 0.0
C600 C 0.81182 0.26213 0.55651 0.0
C601 C 0.8235 0.26221 0.58702 0.0
C602 C 0.76496 0.25204 0.57855 0.0
C603 C 0.8056 0.25498 0.61237 0.0
C604 C 0.71626 0.26202 0.59983 0.0
C605 C 0.69206 0.22934 0.55221 0.0
N606 N 0.77714 0.25078 0.60764 0.0
N607 N 0.72085 0.23457 0.55262 0.0
H608 H 0.62552 0.18266 0.08957 0.0
H609 H 0.54352 0.23216 0.93346 0.0
H610 H 0.6035 0.12483 1.01393 0.0
H611 H 0.58728 0.29185 0.99442 0.0
H612 H 0.56096 0.19246 0.96569 0.0
H613 H 0.60604 0.22268 0.05877 0.0
C614 C 0.61604 0.17826 0.06679 0.0
C615 C 0.6161 0.15033 0.05429 0.0
C616 C 0.567 0.21419 0.97194 0.0
C617 C 0.59418 0.19606 0.01884 0.0
C618 C 0.55712 0.23687 0.9535 0.0
C619 C 0.56439 0.26527 0.96108 0.0
C620 C 0.58387 0.2199 0.99858 0.0
C621 C 0.58175 0.27018 0.98748 0.0
C622 C 0.60526 0.20118 0.04908 0.0
C623 C 0.6039 0.146 0.02446 0.0
N624 N 0.59082 0.24768 1.00547 0.0
N625 N 0.59349 0.16862 1.00775 0.0
H626 H 0.26936 0.54369 0.93977 0.0
H627 H 0.3142 0.63255 0.09354 0.0
H628 H 0.20803 0.58877 0.9975 0.0
H629 H 0.37454 0.60178 0.02419 0.0
H630 H 0.27496 0.61168 0.06268 0.0
H631 H 0.30799 0.56079 0.97375 0.0
C632 C 0.26408 0.55742 0.95955 0.0
C633 C 0.23556 0.56528 0.9656 0.0
C634 C 0.29683 0.60925 0.05442 0.0
C635 C 0.27966 0.58457 1.00499 0.0
C636 C 0.31928 0.62087 0.0722 0.0
C637 C 0.34772 0.61893 0.06139 0.0
C638 C 0.3029 0.59541 0.02579 0.0
C639 C 0.35295 0.60385 0.03337 0.0
C640 C 0.28614 0.56714 0.97897 0.0
C641 C 0.22986 0.58283 0.99167 0.0
N642 N 0.33077 0.5928 0.01651 0.0
N643 N 0.25174 0.59189 1.01051 0.0
H644 H 0.87516 0.3196 0.08675 0.0
H645 H 0.95786 0.26887 0.93124 0.0
H646 H 0.89519 0.37612 1.00913 0.0
H647 H 0.91842 0.20945 0.99608 0.0
H648 H 0.93974 0.30889 0.96267 0.0
H649 H 0.89662 0.27962 0.0576 0.0
C650 C 0.88458 0.32375 0.06386 0.0
C651 C 0.88336 0.35127 0.05032 0.0
C652 C 0.93486 0.28713 0.96999 0.0
C653 C 0.90759 0.30555 0.01675 0.0
C654 C 0.94516 0.2643 0.95205 0.0
C655 C 0.93918 0.23591 0.96091 0.0
C656 C 0.91885 0.28156 0.99734 0.0
C657 C 0.92293 0.23111 0.98819 0.0
C658 C 0.89653 0.30084 0.04711 0.0
C659 C 0.89561 0.35527 0.02043 0.0
N660 N 0.91335 0.25375 1.00556 0.0
N661 N 0.90713 0.33266 1.00464 0.0
H662 H 0.23419 0.96039 0.93209 0.0
H663 H 0.18173 0.87774 0.08697 0.0
H664 H 0.29289 0.91843 0.9957 0.0
H665 H 0.12589 0.89842 1.00908 0.0
H666 H 0.22223 0.89819 0.05766 0.0
H667 H 0.19394 0.94248 0.96322 0.0
C668 C 0.23857 0.9471 0.95249 0.0
C669 C 0.26685 0.94036 0.96105 0.0
C670 C 0.20105 0.89846 0.04714 0.0
C671 C 0.22085 0.92035 0.99731 0.0
C672 C 0.17786 0.88711 0.06399 0.0
C673 C 0.15036 0.8864 0.05044 0.0
C674 C 0.19664 0.90946 0.01671 0.0
C675 C 0.14671 0.89849 0.02041 0.0
C676 C 0.21558 0.93695 0.9703 0.0
C677 C 0.27133 0.92348 0.98796 0.0
N678 N 0.16957 0.90946 1.00456 0.0
N679 N 0.24853 0.91409 1.00527 0.0
H680 H 0.60036 0.38132 0.51291 0.0
H681 H 0.58558 0.21143 0.53463 0.0
H682 H 0.62717 0.32092 0.44169 0.0
H683 H 0.53922 0.27295 0.59091 0.0
H684 H 0.60401 0.25108 0.50204 0.0
H685 H 0.57921 0.34175 0.54286 0.0
C686 C 0.60135 0.35979 0.50331 0.0
C687 C 0.61548 0.35444 0.47474 0.0
C688 C 0.58983 0.25586 0.52156 0.0
C689 C 0.592 0.30889 0.50929 0.0
C690 C 0.57967 0.23331 0.54036 0.0
C691 C 0.56127 0.23902 0.5657 0.0
C692 C 0.58153 0.28425 0.52833 0.0
C693 C 0.5535 0.26763 0.57164 0.0
C694 C 0.58941 0.33717 0.52049 0.0
C695 C 0.61628 0.32607 0.4635 0.0
N696 N 0.56376 0.28916 0.55321 0.0
N697 N 0.60503 0.30429 0.481 0.0
H698 H 0.12346 0.60334 0.51388 0.0
H699 H 0.29313 0.58567 0.53375 0.0
H700 H 0.18354 0.6275 0.44114 0.0
H701 H 0.23132 0.54183 0.59213 0.0
H702 H 0.25356 0.60409 0.50109 0.0
H703 H 0.16289 0.58204 0.54382 0.0
C704 C 0.14489 0.60373 0.50397 0.0
C705 C 0.15018 0.61715 0.47495 0.0
C706 C 0.2487 0.59046 0.52109 0.0
C707 C 0.19561 0.59348 0.50948 0.0
C708 C 0.27121 0.58031 0.53991 0.0
C709 C 0.26539 0.56267 0.5659 0.0
C710 C 0.22024 0.5829 0.52846 0.0
C711 C 0.23672 0.55555 0.57239 0.0
C712 C 0.16743 0.59169 0.52114 0.0
C713 C 0.17843 0.61717 0.4633 0.0
N714 N 0.21523 0.5658 0.55392 0.0
N715 N 0.20016 0.60585 0.48079 0.0
H716 H 0.89439 0.12249 0.52023 0.0
H717 H 0.91468 0.29236 0.53715 0.0
H718 H 0.87006 0.18236 0.44728 0.0
H719 H 0.95523 0.23057 0.59829 0.0
H720 H 0.89592 0.25265 0.50499 0.0
H721 H 0.91609 0.16198 0.54964 0.0
C722 C 0.89403 0.14388 0.51016 0.0
C723 C 0.8804 0.14912 0.48127 0.0
C724 C 0.90887 0.2478 0.52549 0.0
C725 C 0.90461 0.1946 0.51516 0.0
C726 C 0.91923 0.27041 0.54399 0.0
C727 C 0.93592 0.2646 0.57067 0.0
C728 C 0.91542 0.21928 0.53381 0.0
C729 C 0.9421 0.2359 0.57807 0.0
C730 C 0.9063 0.16646 0.52703 0.0
C731 C 0.88048 0.17731 0.46939 0.0
N732 N 0.93173 0.21432 0.55986 0.0
N733 N 0.89209 0.19906 0.48657 0.0
H734 H 0.37885 0.9033 0.51024 0.0
H735 H 0.20883 0.91324 0.53621 0.0
H736 H 0.31756 0.86815 0.44453 0.0
H737 H 0.27094 0.95798 0.59316 0.0
H738 H 0.24807 0.89542 0.50272 0.0
H739 H 0.33936 0.92399 0.54041 0.0
C740 C 0.35709 0.90036 0.50185 0.0
C741 C 0.35154 0.88397 0.47482 0.0
C742 C 0.2531 0.90906 0.52261 0.0
C743 C 0.30603 0.90705 0.50971 0.0
C744 C 0.23078 0.91888 0.5419 0.0
C745 C 0.23681 0.93651 0.56779 0.0
C746 C 0.28157 0.91715 0.52927 0.0
C747 C 0.26544 0.94413 0.57359 0.0
C748 C 0.3345 0.91204 0.5192 0.0
C749 C 0.32287 0.88078 0.46512 0.0
N750 N 0.28673 0.93433 0.55459 0.0
N751 N 0.30116 0.89192 0.48276 0.0
H752 H 0.40186 0.88022 0.01759 0.0
H753 H 0.41073 0.71003 0.03902 0.0
H754 H 0.3742 0.82087 0.9457 0.0
H755 H 0.46041 0.76946 0.09453 0.0
H756 H 0.39374 0.75043 1.00662 0.0
H757 H 0.42164 0.83993 0.04755 0.0
C758 C 0.40039 0.85876 1.00786 0.0
C759 C 0.38644 0.85393 0.97908 0.0
C760 C 0.4083 0.75459 0.02597 0.0
C761 C 0.40831 0.80761 1.01363 0.0
C762 C 0.41763 0.73165 0.04467 0.0
C763 C 0.43645 0.73658 0.0698 0.0
C764 C 0.4179 0.78259 0.0326 0.0
C765 C 0.44563 0.7648 0.07555 0.0
C766 C 0.41156 0.83575 0.02504 0.0
C767 C 0.38499 0.82563 0.96767 0.0
N768 N 0.43615 0.78675 0.05722 0.0
N769 N 0.39545 0.80349 0.98517 0.0
H770 H 0.73263 0.46074 0.09594 0.0
H771 H 0.6818 0.37635 0.94202 0.0
H772 H 0.79159 0.41626 0.03477 0.0
H773 H 0.62479 0.39851 0.0184 0.0
H774 H 0.72187 0.39704 0.97158 0.0
H775 H 0.6926 0.44311 0.06435 0.0
C776 C 0.7371 0.44697 0.07598 0.0
C777 C 0.76537 0.43945 0.06821 0.0
C778 C 0.70054 0.39759 0.9817 0.0
C779 C 0.71969 0.41978 0.03147 0.0
C780 C 0.67757 0.38611 0.9647 0.0
C781 C 0.64988 0.38568 0.97781 0.0
C782 C 0.6957 0.40901 1.01183 0.0
C783 C 0.64578 0.39834 1.00744 0.0
C784 C 0.71425 0.43698 0.05792 0.0
C785 C 0.77001 0.42194 0.04188 0.0
N786 N 0.66845 0.40941 0.02349 0.0
N787 N 0.74736 0.41274 0.0243 0.0
H788 H 0.10341 0.62799 0.01938 0.0
H789 H 0.08436 0.79808 0.03472 0.0
H790 H 0.12898 0.68693 0.94602 0.0
H791 H 0.04081 0.73697 0.09428 0.0
H792 H 0.10343 0.75801 1.00326 0.0
H793 H 0.0815 0.66789 0.04794 0.0
C794 C 0.10402 0.64927 1.00904 0.0
C795 C 0.118 0.65411 0.98026 0.0
C796 C 0.08974 0.75341 0.02326 0.0
C797 C 0.09356 0.70008 1.01321 0.0
C798 C 0.07918 0.77621 0.04137 0.0
C799 C 0.06154 0.77071 0.06742 0.0
C800 C 0.0825 0.725 0.03136 0.0
C801 C 0.05464 0.7421 0.07456 0.0
C802 C 0.09161 0.67208 0.02542 0.0
C803 C 0.11823 0.68218 0.96804 0.0
N804 N 0.06526 0.72034 0.05676 0.0
N805 N 0.10651 0.70418 0.98476 0.0
H806 H 0.70717 0.08711 0.03916 0.0
H807 H 0.87702 0.10716 0.02501 0.0
H808 H 0.76769 0.04425 0.09991 0.0
H809 H 0.81907 0.12749 0.94891 0.0
H810 H 0.83692 0.08632 0.05435 0.0
H811 H 0.74751 0.10587 1.00782 0.0
C812 C 0.72896 0.08207 0.04613 0.0
C813 C 0.73421 0.06463 0.07241 0.0
C814 C 0.83302 0.09505 0.03108 0.0
C815 C 0.78021 0.08524 0.03651 0.0
C816 C 0.85593 0.10684 1.01428 0.0
C817 C 0.85142 0.11899 0.98444 0.0
C818 C 0.80524 0.09585 0.01822 0.0
C819 C 0.82358 0.11813 0.97174 0.0
C820 C 0.75191 0.09242 0.02808 0.0
C821 C 0.76274 0.05789 0.07997 0.0
N822 N 0.80146 0.10708 0.98885 0.0
N823 N 0.78466 0.06832 0.06224 0.0
H824 H 0.4054 0.62259 0.52007 0.0
H825 H 0.41414 0.79273 0.49876 0.0
H826 H 0.37246 0.68198 0.58919 0.0
H827 H 0.46589 0.73341 0.44541 0.0
H828 H 0.39653 0.75241 0.53084 0.0
H829 H 0.42713 0.66287 0.49179 0.0
C830 C 0.40317 0.64405 0.52959 0.0
C831 C 0.38709 0.64891 0.55701 0.0
C832 C 0.41174 0.74825 0.51209 0.0
C833 C 0.41126 0.69523 0.52434 0.0
C834 C 0.42143 0.77116 0.49356 0.0
C835 C 0.44093 0.76624 0.46905 0.0
C836 C 0.42167 0.72028 0.50594 0.0
C837 C 0.4506 0.73808 0.46391 0.0
C838 C 0.41547 0.66707 0.51337 0.0
C839 C 0.38481 0.6772 0.56824 0.0
N840 N 0.44073 0.71615 0.48204 0.0
N841 N 0.39641 0.69935 0.55162 0.0
H842 H 0.77057 0.4567 0.43188 0.0
H843 H 0.818 0.37396 0.58854 0.0
H844 H 0.70977 0.41629 0.49435 0.0
H845 H 0.87605 0.39347 0.5122 0.0
H846 H 0.77858 0.39492 0.55802 0.0
H847 H 0.80982 0.43813 0.46404 0.0
C848 C 0.76553 0.44359 0.45224 0.0
C849 C 0.73696 0.43749 0.4602 0.0
C850 C 0.8 0.39482 0.54811 0.0
C851 C 0.78178 0.41677 0.49764 0.0
C852 C 0.82259 0.38318 0.56565 0.0
C853 C 0.85039 0.38198 0.55288 0.0
C854 C 0.80533 0.40561 0.51776 0.0
C855 C 0.85497 0.39392 0.52294 0.0
C856 C 0.78794 0.43307 0.47064 0.0
C857 C 0.73158 0.42083 0.48707 0.0
N858 N 0.83268 0.40517 0.50639 0.0
N859 N 0.75382 0.41109 0.50498 0.0
H860 H 0.1288 0.8172 0.58798 0.0
H861 H 0.04812 0.76998 0.42996 0.0
H862 H 0.10893 0.87545 0.51189 0.0
H863 H 0.08592 0.70892 0.49403 0.0
H864 H 0.06633 0.80917 0.46241 0.0
H865 H 0.10815 0.77771 0.5573 0.0
C866 C 0.11957 0.82182 0.56512 0.0
C867 C 0.12058 0.8497 0.55246 0.0
C868 C 0.07092 0.78724 0.46932 0.0
C869 C 0.09733 0.80456 0.51714 0.0
C870 C 0.06062 0.76487 0.45073 0.0
C871 C 0.06613 0.73626 0.45903 0.0
C872 C 0.08639 0.78101 0.49686 0.0
C873 C 0.08188 0.73078 0.4865 0.0
C874 C 0.1081 0.79919 0.54748 0.0
C875 C 0.10864 0.85431 0.52255 0.0
N876 N 0.09145 0.75299 0.50456 0.0
N877 N 0.0976 0.83198 0.5059 0.0
H878 H 0.72881 0.03983 0.43806 0.0
H879 H 0.67899 0.12892 0.58946 0.0
H880 H 0.78805 0.08582 0.49752 0.0
H881 H 0.62118 0.10202 0.51572 0.0
H882 H 0.7189 0.10727 0.56046 0.0
H883 H 0.68899 0.05751 0.46997 0.0
C884 C 0.73339 0.05389 0.45774 0.0
C885 C 0.76167 0.06189 0.46488 0.0
C886 C 0.69743 0.10587 0.55082 0.0
C887 C 0.71622 0.08171 0.50194 0.0
C888 C 0.67456 0.11792 0.56752 0.0
C889 C 0.64668 0.11732 0.55494 0.0
C890 C 0.69233 0.09288 0.52152 0.0
C891 C 0.64232 0.10305 0.52624 0.0
C892 C 0.71065 0.06393 0.47598 0.0
C893 C 0.76644 0.0798 0.49085 0.0
N894 N 0.66491 0.0915 0.51045 0.0
N895 N 0.74391 0.0891 0.50856 0.0
H896 H 0.76543 0.11382 0.34697 0.0
H897 H 0.69059 0.02965 0.20992 0.0
H898 H 0.80703 0.03423 0.32165 0.0
H899 H 0.71734 0.11825 0.20294 0.0
H900 H 0.72132 0.02457 0.25745 0.0
H901 H 0.73381 0.10885 0.30202 0.0
C902 C 0.76794 0.09512 0.33207 0.0
C903 C 0.7894 0.07461 0.33803 0.0
C904 C 0.72044 0.04491 0.24509 0.0
C905 C 0.75244 0.06877 0.28618 0.0
C906 C 0.70291 0.04788 0.21813 0.0
C907 C 0.70143 0.07436 0.2021 0.0
C908 C 0.73571 0.06886 0.25638 0.0
C909 C 0.71759 0.09737 0.21416 0.0
C910 C 0.74967 0.0923 0.30642 0.0
C911 C 0.79094 0.05064 0.31785 0.0
N912 N 0.73367 0.09412 0.2405 0.0
N913 N 0.77277 0.04841 0.29254 0.0
H914 H 0.40525 0.74575 0.18358 0.0
H915 H 0.40692 0.75416 0.35528 0.0
H916 H 0.45672 0.67788 0.22342 0.0
H917 H 0.45686 0.82246 0.31393 0.0
H918 H 0.41536 0.72489 0.30819 0.0
H919 H 0.41429 0.77496 0.23055 0.0
C920 C 0.41875 0.73711 0.20208 0.0
C921 C 0.4304 0.70936 0.19951 0.0
C922 C 0.42489 0.74607 0.30973 0.0
C923 C 0.43991 0.74243 0.25368 0.0
C924 C 0.41995 0.76289 0.33641 0.0
C925 C 0.43132 0.79079 0.33857 0.0
C926 C 0.44017 0.75763 0.28433 0.0
C927 C 0.44797 0.80099 0.31333 0.0
C928 C 0.42402 0.75389 0.22869 0.0
C929 C 0.44762 0.69926 0.22432 0.0
N930 N 0.45123 0.78471 0.28677 0.0
N931 N 0.45121 0.71549 0.25086 0.0
H932 H 0.772 0.389 0.18739 0.0
H933 H 0.69449 0.47342 0.32145 0.0
H934 H 0.81149 0.47053 0.2092 0.0
H935 H 0.72635 0.38689 0.33245 0.0
H936 H 0.72546 0.47871 0.2741 0.0
H937 H 0.74113 0.39412 0.23296 0.0
C938 C 0.77419 0.40817 0.20163 0.0
C939 C 0.79484 0.4292 0.19448 0.0
C940 C 0.72569 0.45881 0.28734 0.0
C941 C 0.75872 0.4352 0.24706 0.0
C942 C 0.70801 0.45571 0.31419 0.0
C943 C 0.70767 0.42965 0.3311 0.0
C944 C 0.74237 0.43541 0.27713 0.0
C945 C 0.72553 0.40736 0.32037 0.0
C946 C 0.75635 0.41106 0.22765 0.0
C947 C 0.796 0.45373 0.21389 0.0
N948 N 0.74172 0.41066 0.2941 0.0
N949 N 0.77824 0.45604 0.23957 0.0
H950 H 0.02573 0.8111 0.20494 0.0
H951 H 0.11074 0.73592 0.34213 0.0
H952 H 0.11528 0.78762 0.19991 0.0
H953 H 0.03194 0.69366 0.31537 0.0
H954 H 0.10526 0.76872 0.29818 0.0
H955 H 0.02087 0.7798 0.25214 0.0
C956 C 0.04422 0.79938 0.21349 0.0
C957 C 0.07088 0.8019 0.19804 0.0
C958 C 0.08897 0.75246 0.30204 0.0
C959 C 0.06563 0.76705 0.25206 0.0
C960 C 0.0921 0.73352 0.32711 0.0
C961 C 0.07203 0.71149 0.33231 0.0
C962 C 0.06559 0.74976 0.28156 0.0
C963 C 0.04805 0.71015 0.31211 0.0
C964 C 0.04139 0.78154 0.24029 0.0
C965 C 0.09422 0.78654 0.21062 0.0
N966 N 0.04557 0.72893 0.28731 0.0
N967 N 0.09107 0.77015 0.23678 0.0
H968 H 0.19361 0.97147 0.70919 0.0
H969 H 0.27438 0.88808 0.84058 0.0
H970 H 0.22995 0.88718 0.69473 0.0
H971 H 0.31247 0.9706 0.82002 0.0
H972 H 0.24397 0.893 0.79463 0.0
H973 H 0.22516 0.97716 0.75599 0.0
C974 C 0.20826 0.95437 0.71555 0.0
C975 C 0.20888 0.92872 0.69796 0.0
C976 C 0.25879 0.91019 0.80029 0.0
C977 C 0.24438 0.93498 0.7512 0.0
C978 C 0.27639 0.90742 0.82653 0.0
C979 C 0.29644 0.92885 0.83424 0.0
C980 C 0.26077 0.93463 0.78124 0.0
C981 C 0.29742 0.95351 0.81494 0.0
C982 C 0.22628 0.95771 0.74208 0.0
C983 C 0.22826 0.90724 0.70747 0.0
N984 N 0.27984 0.95575 0.78912 0.0
N985 N 0.24478 0.91072 0.73345 0.0
H986 H 0.61842 0.27902 0.83539 0.0
H987 H 0.53073 0.1962 0.70766 0.0
H988 H 0.53187 0.30997 0.82197 0.0
H989 H 0.61514 0.23151 0.69122 0.0
H990 H 0.52646 0.22746 0.75484 0.0
H991 H 0.6135 0.24935 0.78901 0.0
C992 C 0.5982 0.27963 0.8228 0.0
C993 C 0.57555 0.29736 0.83277 0.0
C994 C 0.54564 0.22839 0.74046 0.0
C995 C 0.56984 0.26258 0.77909 0.0
C996 C 0.54817 0.21055 0.71371 0.0
C997 C 0.5734 0.21102 0.6954 0.0
C998 C 0.56879 0.24612 0.74911 0.0
C999 C 0.59536 0.22998 0.7045 0.0
C1000 C 0.59547 0.2625 0.79624 0.0
C1001 C 0.54988 0.29667 0.81519 0.0
N1002 N 0.59265 0.24635 0.73069 0.0
N1003 N 0.54764 0.27948 0.78907 0.0
H1004 H 0.27157 0.61828 0.69189 0.0
H1005 H 0.19285 0.53372 0.82568 0.0
H1006 H 0.30515 0.53328 0.70943 0.0
H1007 H 0.22553 0.61989 0.83682 0.0
H1008 H 0.22358 0.52831 0.77824 0.0
H1009 H 0.24232 0.61442 0.73875 0.0
C1010 C 0.27281 0.5986 0.70545 0.0
C1011 C 0.29127 0.57614 0.69655 0.0
C1012 C 0.22412 0.54814 0.79155 0.0
C1013 C 0.25693 0.57164 0.75085 0.0
C1014 C 0.20665 0.55127 0.81855 0.0
C1015 C 0.20654 0.57728 0.8355 0.0
C1016 C 0.24087 0.57147 0.7812 0.0
C1017 C 0.22452 0.59947 0.82471 0.0
C1018 C 0.25592 0.59648 0.73232 0.0
C1019 C 0.29133 0.55116 0.71538 0.0
N1020 N 0.24052 0.59615 0.79828 0.0
N1021 N 0.27438 0.54952 0.74179 0.0
H1022 H 0.97112 0.30664 0.71002 0.0
H1023 H 0.88473 0.22439 0.84084 0.0
H1024 H 0.88443 0.2756 0.69826 0.0
H1025 H 0.96979 0.1915 0.82262 0.0
H1026 H 0.88913 0.25574 0.79558 0.0
H1027 H 0.97589 0.27507 0.75699 0.0
C1028 C 0.95326 0.2932 0.71705 0.0
C1029 C 0.92731 0.29394 0.70004 0.0
C1030 C 0.90699 0.24186 0.80158 0.0
C1031 C 0.93245 0.25861 0.75363 0.0
C1032 C 0.90455 0.22378 0.82749 0.0
C1033 C 0.9269 0.20496 0.8357 0.0
C1034 C 0.93203 0.24161 0.78334 0.0
C1035 C 0.95209 0.20574 0.8173 0.0
C1036 C 0.95605 0.27519 0.74371 0.0
C1037 C 0.90482 0.27615 0.71045 0.0
N1038 N 0.95401 0.22376 0.79178 0.0
N1039 N 0.90784 0.25964 0.73652 0.0
H1040 H 0.41936 0.0103 0.9941 0.0
H1041 H 0.58277 0.97546 0.04167 0.0
H1042 H 0.4865 0.99476 0.92635 0.0
H1043 H 0.51443 0.98535 0.10931 0.0
H1044 H 0.548 0.98329 0.99905 0.0
H1045 H 0.45322 0.99908 0.03662 0.0
C1046 C 0.44097 0.00367 0.98813 0.0
C1047 C 0.45008 0.00348 0.95661 0.0
C1048 C 0.54062 0.9839 0.02324 0.0
C1049 C 0.48935 0.99165 1.00519 0.0
C1050 C 0.56057 0.97984 0.04758 0.0
C1051 C 0.55154 0.97977 0.07912 0.0
C1052 C 0.51139 0.98801 0.03046 0.0
C1053 C 0.52234 0.98507 0.08532 0.0
C1054 C 0.46047 0.99772 1.01243 0.0
C1055 C 0.47859 0.99528 0.95034 0.0
N1056 N 0.50337 0.98885 0.0613 0.0
N1057 N 0.49723 0.99005 0.97434 0.0
H1058 H 0.44009 0.45132 0.97789 0.0
H1059 H 0.5663 0.54436 0.05518 0.0
H1060 H 0.52798 0.44609 0.9467 0.0
H1061 H 0.47705 0.55354 0.08006 0.0
H1062 H 0.55319 0.50818 0.01601 0.0
H1063 H 0.45394 0.48706 0.01698 0.0
C1064 C 0.46246 0.45755 0.97954 0.0
C1065 C 0.48292 0.44582 0.95886 0.0
C1066 C 0.53642 0.51816 0.02986 0.0
C1067 C 0.49896 0.4872 1.00363 0.0
C1068 C 0.54386 0.53888 0.05222 0.0
C1069 C 0.52272 0.55189 0.07112 0.0
C1070 C 0.50758 0.51016 0.0263 0.0
C1071 C 0.49401 0.54419 0.06597 0.0
C1072 C 0.47032 0.4781 1.00178 0.0
C1073 C 0.51158 0.4545 0.96223 0.0
N1074 N 0.48732 0.52368 0.04424 0.0
N1075 N 0.51874 0.47483 0.98406 0.0
H1076 H 0.08386 0.48369 0.98872 0.0
H1077 H 0.91901 0.51489 0.03325 0.0
H1078 H 0.01659 0.49145 0.91953 0.0
H1079 H 0.98559 0.50053 0.10193 0.0
H1080 H 0.95385 0.50526 0.99114 0.0
H1081 H 0.04837 0.49192 0.03042 0.0
C1082 C 0.06175 0.48784 0.98225 0.0
C1083 C 0.05323 0.48692 0.95057 0.0
C1084 C 0.96077 0.50383 1.01544 0.0
C1085 C 0.0122 0.49546 0.99825 0.0
C1086 C 0.94073 0.50886 0.03948 0.0
C1087 C 0.94937 0.50846 0.07115 0.0
C1088 C 0.98969 0.49849 0.02311 0.0
C1089 C 0.97802 0.50112 0.07782 0.0
C1090 C 0.04137 0.49207 1.00609 0.0
C1091 C 0.0241 0.49188 0.94366 0.0
N1092 N 0.99715 0.49674 0.05409 0.0
N1093 N 0.00467 0.49575 0.96724 0.0
H1094 H 0.99998 0.01985 0.92082 0.0
H1095 H 0.0067 0.98602 0.10601 0.0
H1096 H 0.02241 0.08297 0.99075 0.0
H1097 H 0.98106 0.92362 0.03663 0.0
H1098 H 0.01482 0.02106 0.06391 0.0
H1099 H 0.99213 0.98455 0.96276 0.0
C1100 C 0.00244 0.02647 0.94514 0.0
C1101 C 0.01159 0.05447 0.95233 0.0
C1102 C 0.00782 0.99961 0.05776 0.0
C1103 C 0.00369 0.01383 1.00053 0.0
C1104 C 0.00359 0.97947 0.08177 0.0
C1105 C 0.9934 0.95178 0.0748 0.0
C1106 C 0.00167 0.99215 0.02641 0.0
C1107 C 0.98933 0.94456 0.04302 0.0
C1108 C 0.99836 0.0062 0.96905 0.0
C1109 C 0.01492 0.06178 0.98419 0.0
N1110 N 0.99319 0.96469 0.02005 0.0
N1111 N 0.01126 0.04153 1.00707 0.0
H1112 H 0.44221 0.5295 0.5781 0.0
H1113 H 0.56017 0.47687 0.45165 0.0
H1114 H 0.45974 0.44049 0.5578 0.0
H1115 H 0.54372 0.5658 0.47346 0.0
H1116 H 0.52391 0.46291 0.49094 0.0
H1117 H 0.47826 0.54336 0.53856 0.0
C1118 C 0.45333 0.51291 0.56504 0.0
C1119 C 0.44811 0.48383 0.57151 0.0
C1120 C 0.52832 0.48549 0.48718 0.0
C1121 C 0.48975 0.4994 0.52658 0.0
C1122 C 0.54922 0.49341 0.46496 0.0
C1123 C 0.55482 0.52252 0.45899 0.0
C1124 C 0.51294 0.50684 0.50362 0.0
C1125 C 0.53979 0.54308 0.47688 0.0
C1126 C 0.47413 0.52078 0.54268 0.0
C1127 C 0.46336 0.4632 0.55394 0.0
N1128 N 0.51953 0.53489 0.49814 0.0
N1129 N 0.4835 0.47134 0.53252 0.0
H1130 H 0.98446 0.5823 0.49223 0.0
H1131 H 0.01702 0.41756 0.53779 0.0
H1132 H 0.99265 0.51433 0.42388 0.0
H1133 H 0.01001 0.48573 0.60604 0.0
H1134 H 0.00657 0.45234 0.49581 0.0
H1135 H 0.99474 0.54751 0.53422 0.0
C1136 C 0.98896 0.5602 0.48599 0.0
C1137 C 0.98759 0.55127 0.45445 0.0
C1138 C 0.00712 0.45967 0.52 0.0
C1139 C 0.99867 0.51106 0.50249 0.0
C1140 C 0.01272 0.4397 0.54401 0.0
C1141 C 0.01448 0.4487 0.5755 0.0
C1142 C 0.00321 0.48888 0.5275 0.0
C1143 C 0.00913 0.47785 0.58206 0.0
C1144 C 0.99448 0.54023 0.51001 0.0
C1145 C 0.9932 0.52216 0.44788 0.0
N1146 N 0.00393 0.49685 0.55835 0.0
N1147 N 0.99829 0.50315 0.4716 0.0
H1148 H 0.95514 0.93664 0.47521 0.0
H1149 H 0.04473 0.06443 0.55462 0.0
H1150 H 0.94296 0.02584 0.45143 0.0
H1151 H 0.05695 0.97522 0.57834 0.0
H1152 H 0.00819 0.05068 0.51625 0.0
H1153 H 0.99172 0.9504 0.51354 0.0
C1154 C 0.96003 0.95922 0.47828 0.0
C1155 C 0.94607 0.98013 0.45988 0.0
C1156 C 0.01889 0.03403 0.52966 0.0
C1157 C 0.98833 0.99608 0.50379 0.0
C1158 C 0.03987 0.04185 0.55153 0.0
C1159 C 0.05382 0.02093 0.56992 0.0
C1160 C 0.0116 0.00499 0.52597 0.0
C1161 C 0.04685 0.99202 0.56462 0.0
C1162 C 0.98102 0.96704 0.50012 0.0
C1163 C 0.95307 0.00904 0.46515 0.0
N1164 N 0.02608 0.98492 0.54332 0.0
N1165 N 0.97384 0.01614 0.48644 0.0
H1166 H 0.47259 0.94596 0.45362 0.0
H1167 H 0.52473 0.06437 0.57958 0.0
H1168 H 0.56148 0.9651 0.47262 0.0
H1169 H 0.43589 0.04639 0.55903 0.0
H1170 H 0.53881 0.02869 0.5398 0.0
H1171 H 0.45861 0.98183 0.49321 0.0
C1172 C 0.48913 0.95745 0.46636 0.0
C1173 C 0.5182 0.95272 0.45954 0.0
C1174 C 0.51622 0.03264 0.54394 0.0
C1175 C 0.50249 0.9941 0.50455 0.0
C1176 C 0.50823 0.0532 0.56644 0.0
C1177 C 0.47913 0.05817 0.5729 0.0
C1178 C 0.49494 0.01699 0.52772 0.0
C1179 C 0.4586 0.04291 0.55523 0.0
C1180 C 0.48119 0.97812 0.48876 0.0
C1181 C 0.53877 0.96838 0.47671 0.0
N1182 N 0.46687 0.02298 0.53368 0.0
N1183 N 0.53055 0.98838 0.49822 0.0
H1184 H 0.46494 0.79977 0.18513 0.0
H1185 H 0.60885 0.88625 0.15883 0.0
H1186 H 0.54803 0.7595 0.17734 0.0
H1187 H 0.52668 0.92618 0.17554 0.0
H1188 H 0.5889 0.84035 0.17606 0.0
H1189 H 0.48845 0.84618 0.192 0.0
C1190 C 0.48818 0.80066 0.18536 0.0
C1191 C 0.50457 0.77589 0.17999 0.0
C1192 C 0.57535 0.85924 0.17657 0.0
C1193 C 0.53168 0.829 0.18738 0.0
C1194 C 0.58682 0.88555 0.16695 0.0
C1195 C 0.56925 0.91 0.1652 0.0
C1196 C 0.54606 0.85733 0.18422 0.0
C1197 C 0.54079 0.90771 0.17582 0.0
C1198 C 0.50162 0.82718 0.18932 0.0
C1199 C 0.53458 0.77816 0.18106 0.0
N1200 N 0.52996 0.88175 0.18433 0.0
N1201 N 0.54719 0.80437 0.18399 0.0
H1202 H 0.74379 0.54907 0.18636 0.0
H1203 H 0.61246 0.61056 0.15375 0.0
H1204 H 0.6991 0.46893 0.17209 0.0
H1205 H 0.57618 0.52629 0.16787 0.0
H1206 H 0.65875 0.59263 0.1711 0.0
H1207 H 0.69772 0.5734 0.19173 0.0
C1208 C 0.72426 0.53656 0.18459 0.0
C1209 C 0.72529 0.50706 0.17789 0.0
C1210 C 0.64068 0.57808 0.17149 0.0
C1211 C 0.67227 0.53493 0.18283 0.0
C1212 C 0.61405 0.58845 0.16153 0.0
C1213 C 0.59049 0.56982 0.15899 0.0
C1214 C 0.64378 0.54877 0.17896 0.0
C1215 C 0.59394 0.54127 0.16894 0.0
C1216 C 0.69782 0.55055 0.18728 0.0
C1217 C 0.69935 0.49183 0.17653 0.0
N1218 N 0.62016 0.53154 0.17797 0.0
N1219 N 0.67395 0.506 0.1785 0.0
H1220 H 0.03931 0.70369 0.1629 0.0
H1221 H 0.91369 0.59275 0.18701 0.0
H1222 H 0.9556 0.73881 0.18364 0.0
H1223 H 0.9648 0.5979 0.10205 0.0
H1224 H 0.93401 0.63925 0.20362 0.0
H1225 H 0.01825 0.65577 0.16127 0.0
C1226 C 0.01662 0.70133 0.16786 0.0
C1227 C 0.99904 0.72538 0.17271 0.0
C1228 C 0.94079 0.6297 0.18158 0.0
C1229 C 0.97511 0.67053 0.17129 0.0
C1230 C 0.92917 0.60333 0.17193 0.0
C1231 C 0.93789 0.59074 0.14329 0.0
C1232 C 0.96169 0.64301 0.16282 0.0
C1233 C 0.95816 0.60568 0.12491 0.0
C1234 C 0.00469 0.67397 0.16691 0.0
C1235 C 0.96981 0.72084 0.17934 0.0
N1236 N 0.96952 0.63072 0.13516 0.0
N1237 N 0.95856 0.69384 0.17801 0.0
H1238 H 0.76381 0.95985 0.18998 0.0
H1239 H 0.90714 0.97142 0.10779 0.0
H1240 H 0.80009 0.04329 0.17003 0.0
H1241 H 0.90845 0.91773 0.19108 0.0
H1242 H 0.86343 0.99343 0.12625 0.0
H1243 H 0.81248 0.93932 0.18899 0.0
C1244 C 0.78197 0.97395 0.18616 0.0
C1245 C 0.77785 0.00322 0.17933 0.0
C1246 C 0.87353 0.97709 0.14069 0.0
C1247 C 0.83295 0.97988 0.17788 0.0
C1248 C 0.8988 0.96457 0.13037 0.0
C1249 C 0.91246 0.94314 0.14834 0.0
C1250 C 0.8608 0.96756 0.1686 0.0
C1251 C 0.89893 0.93417 0.17641 0.0
C1252 C 0.80965 0.96222 0.18573 0.0
C1253 C 0.80215 0.02054 0.17482 0.0
N1254 N 0.87356 0.94623 0.18557 0.0
N1255 N 0.82859 0.00847 0.17336 0.0
H1256 H 0.61058 0.61511 0.37677 0.0
H1257 H 0.46642 0.70167 0.35328 0.0
H1258 H 0.52801 0.57526 0.36232 0.0
H1259 H 0.5497 0.74187 0.35872 0.0
H1260 H 0.4897 0.65519 0.34615 0.0
H1261 H 0.59044 0.66094 0.35961 0.0
C1262 C 0.5884 0.61581 0.36916 0.0
C1263 C 0.5708 0.59142 0.37154 0.0
C1264 C 0.50296 0.67419 0.34837 0.0
C1265 C 0.54741 0.644 0.3526 0.0
C1266 C 0.48965 0.70074 0.35248 0.0
C1267 C 0.50619 0.72552 0.35726 0.0
C1268 C 0.53304 0.67233 0.34958 0.0
C1269 C 0.53616 0.72321 0.35547 0.0
C1270 C 0.57683 0.64208 0.35958 0.0
C1271 C 0.54216 0.5937 0.36156 0.0
N1272 N 0.54867 0.69696 0.35241 0.0
N1273 N 0.53124 0.61962 0.35307 0.0
H1274 H 0.93239 0.52519 0.35983 0.0
H1275 H 0.76313 0.54943 0.35091 0.0
H1276 H 0.89055 0.60638 0.37705 0.0
H1277 H 0.80405 0.46625 0.35009 0.0
H1278 H 0.81033 0.57209 0.34661 0.0
H1279 H 0.88646 0.50519 0.34261 0.0
C1280 C 0.91363 0.53894 0.35952 0.0
C1281 C 0.91524 0.56736 0.37043 0.0
C1282 C 0.80894 0.54887 0.34689 0.0
C1283 C 0.86262 0.54462 0.35077 0.0
C1284 C 0.78198 0.5359 0.34924 0.0
C1285 C 0.77971 0.50592 0.35155 0.0
C1286 C 0.83374 0.53171 0.34681 0.0
C1287 C 0.80484 0.48947 0.34898 0.0
C1288 C 0.88744 0.52752 0.34964 0.0
C1289 C 0.89037 0.58436 0.36887 0.0
N1290 N 0.83084 0.50259 0.34718 0.0
N1291 N 0.86501 0.5726 0.35973 0.0
H1292 H 0.89029 0.88874 0.37629 0.0
H1293 H 0.03422 0.80274 0.34508 0.0
H1294 H 0.97287 0.92882 0.36259 0.0
H1295 H 0.95127 0.76249 0.35515 0.0
H1296 H 0.01065 0.84938 0.34063 0.0
H1297 H 0.91029 0.84335 0.35766 0.0
C1298 C 0.91244 0.88819 0.36858 0.0
C1299 C 0.93008 0.9125 0.3715 0.0
C1300 C 0.99752 0.83033 0.34332 0.0
C1301 C 0.9533 0.86041 0.35084 0.0
C1302 C 0.01099 0.80368 0.34588 0.0
C1303 C 0.9947 0.77881 0.3512 0.0
C1304 C 0.96755 0.83217 0.34649 0.0
C1305 C 0.96468 0.7812 0.35147 0.0
C1306 C 0.92393 0.86218 0.35816 0.0
C1307 C 0.95869 0.91043 0.36138 0.0
N1308 N 0.95208 0.80749 0.34978 0.0
N1309 N 0.96953 0.88474 0.352 0.0
H1310 H 0.5687 0.97915 0.36089 0.0
H1311 H 0.73758 0.95418 0.35223 0.0
H1312 H 0.61 0.89745 0.37668 0.0
H1313 H 0.69681 0.03741 0.35159 0.0
H1314 H 0.69044 0.93164 0.34651 0.0
H1315 H 0.61451 0.99886 0.34289 0.0
C1316 C 0.58731 0.96522 0.36001 0.0
C1317 C 0.58564 0.93677 0.37085 0.0
C1318 C 0.69186 0.95486 0.34708 0.0
C1319 C 0.63815 0.9592 0.35046 0.0
C1320 C 0.71879 0.96775 0.35024 0.0
C1321 C 0.72102 0.99768 0.35314 0.0
C1322 C 0.66708 0.97206 0.34678 0.0
C1323 C 0.69599 0.01421 0.35014 0.0
C1324 C 0.61344 0.97647 0.34973 0.0
C1325 C 0.61028 0.91951 0.36862 0.0
N1326 N 0.67002 0.00116 0.34758 0.0
N1327 N 0.63563 0.93114 0.3592 0.0
H1328 H 0.46998 0.09209 0.92671 0.0
H1329 H 0.46061 0.23576 0.84248 0.0
H1330 H 0.41824 0.09119 0.84205 0.0
H1331 H 0.54323 0.19953 0.86594 0.0
H1332 H 0.43982 0.18714 0.84416 0.0
H1333 H 0.49225 0.13611 0.90911 0.0
C1334 C 0.4636 0.10062 0.90405 0.0
C1335 C 0.44264 0.08701 0.88544 0.0
C1336 C 0.46261 0.18998 0.8481 0.0
C1337 C 0.46733 0.13891 0.86613 0.0
C1338 C 0.47449 0.21761 0.84726 0.0
C1339 C 0.50358 0.22176 0.85474 0.0
C1340 C 0.47993 0.16674 0.85708 0.0
C1341 C 0.52062 0.19747 0.86054 0.0
C1342 C 0.47625 0.12605 0.89422 0.0
C1343 C 0.43428 0.10069 0.85724 0.0
N1344 N 0.50839 0.17111 0.86236 0.0
N1345 N 0.44647 0.12616 0.84853 0.0
H1346 H 0.39659 0.45828 0.91992 0.0
H1347 H 0.25689 0.42262 0.84506 0.0
H1348 H 0.40684 0.40386 0.83796 0.0
H1349 H 0.28113 0.51204 0.85085 0.0
H1350 H 0.30805 0.40956 0.84524 0.0
H1351 H 0.35046 0.47338 0.90018 0.0
C1352 C 0.38977 0.44988 0.89738 0.0
C1353 C 0.40653 0.43009 0.88035 0.0
C1354 C 0.30196 0.43202 0.84552 0.0
C1355 C 0.35215 0.44634 0.85877 0.0
C1356 C 0.27287 0.43951 0.84557 0.0
C1357 C 0.26471 0.46843 0.84872 0.0
C1358 C 0.32268 0.45358 0.84929 0.0
C1359 C 0.28634 0.48944 0.84903 0.0
C1360 C 0.36307 0.4584 0.88638 0.0
C1361 C 0.39489 0.41895 0.85219 0.0
N1362 N 0.31433 0.48154 0.85029 0.0
N1363 N 0.36813 0.42689 0.84248 0.0
H1364 H 0.10194 0.40767 0.83522 0.0
H1365 H 0.99177 0.27973 0.84857 0.0
H1366 H 0.04291 0.39807 0.9134 0.0
H1367 H 0.08197 0.25843 0.8452 0.0
H1368 H 0.00441 0.33063 0.8487 0.0
H1369 H 0.08913 0.35893 0.81804 0.0
C1370 C 0.08621 0.39575 0.84869 0.0
C1371 C 0.07348 0.40761 0.8759 0.0
C1372 C 0.02131 0.31471 0.84705 0.0
C1373 C 0.05793 0.35261 0.85517 0.0
C1374 C 0.01421 0.28566 0.84698 0.0
C1375 C 0.03591 0.26475 0.84764 0.0
C1376 C 0.05022 0.32291 0.84709 0.0
C1377 C 0.0646 0.27387 0.84525 0.0
C1378 C 0.07883 0.36807 0.83859 0.0
C1379 C 0.05279 0.39088 0.89176 0.0
N1380 N 0.07102 0.30242 0.84551 0.0
N1381 N 0.0456 0.36446 0.88105 0.0
H1382 H 0.20289 0.96406 0.85549 0.0
H1383 H 0.09407 0.09121 0.83528 0.0
H1384 H 0.24112 0.04807 0.84518 0.0
H1385 H 0.09997 0.03966 0.91993 0.0
H1386 H 0.14042 0.07089 0.81799 0.0
H1387 H 0.15545 0.98625 0.85481 0.0
C1388 C 0.20135 0.98709 0.85226 0.0
C1389 C 0.22602 0.00435 0.85126 0.0
C1390 C 0.13104 0.06403 0.8401 0.0
C1391 C 0.17182 0.02956 0.84987 0.0
C1392 C 0.10478 0.07563 0.85014 0.0
C1393 C 0.09245 0.06674 0.87888 0.0
C1394 C 0.14447 0.04303 0.85861 0.0
C1395 C 0.10755 0.04641 0.897 0.0
C1396 C 0.17428 0.99965 0.85177 0.0
C1397 C 0.22262 0.03406 0.84655 0.0
N1398 N 0.13246 0.03508 0.88639 0.0
N1399 N 0.19588 0.04592 0.84663 0.0
H1400 H 0.53818 0.30627 0.68056 0.0
H1401 H 0.39402 0.39283 0.65794 0.0
H1402 H 0.45434 0.26685 0.67974 0.0
H1403 H 0.47698 0.433 0.66827 0.0
H1404 H 0.41446 0.34769 0.67644 0.0
H1405 H 0.51553 0.35324 0.68633 0.0
C1406 C 0.515 0.30746 0.68209 0.0
C1407 C 0.49808 0.28271 0.67893 0.0
C1408 C 0.42812 0.36649 0.67526 0.0
C1409 C 0.47197 0.33643 0.68517 0.0
C1410 C 0.41637 0.3924 0.66491 0.0
C1411 C 0.43394 0.41666 0.66098 0.0
C1412 C 0.4577 0.36471 0.68139 0.0
C1413 C 0.46282 0.41464 0.67016 0.0
C1414 C 0.50206 0.3343 0.68543 0.0
C1415 C 0.46819 0.28544 0.68163 0.0
N1416 N 0.47392 0.389 0.67938 0.0
N1417 N 0.45605 0.31189 0.68398 0.0
H1418 H 0.11187 0.39276 0.65233 0.0
H1419 H 0.19832 0.53659 0.68224 0.0
H1420 H 0.07162 0.47497 0.66828 0.0
H1421 H 0.23827 0.45324 0.67486 0.0
H1422 H 0.15154 0.51328 0.68634 0.0
H1423 H 0.15751 0.41288 0.66979 0.0
C1424 C 0.11244 0.41487 0.66024 0.0
C1425 C 0.08792 0.43233 0.65837 0.0
C1426 C 0.17055 0.50002 0.68432 0.0
C1427 C 0.14037 0.45571 0.67768 0.0
C1428 C 0.19728 0.51334 0.68197 0.0
C1429 C 0.22215 0.49684 0.67757 0.0
C1430 C 0.16862 0.46999 0.68185 0.0
C1431 C 0.2196 0.46681 0.67787 0.0
C1432 C 0.13861 0.42642 0.67001 0.0
C1433 C 0.09012 0.46091 0.66865 0.0
N1434 N 0.19324 0.45435 0.67935 0.0
N1435 N 0.11596 0.47182 0.67739 0.0
H1436 H 0.96501 0.19803 0.68434 0.0
H1437 H 0.10919 0.11227 0.6541 0.0
H1438 H 0.0482 0.23831 0.67713 0.0
H1439 H 0.02663 0.07193 0.6671 0.0
H1440 H 0.08898 0.15752 0.67285 0.0
H1441 H 0.98843 0.15128 0.68826 0.0
C1442 C 0.98824 0.19708 0.68407 0.0
C1443 C 0.00466 0.22203 0.67973 0.0
C1444 C 0.07539 0.13866 0.67217 0.0
C1445 C 0.03165 0.16852 0.68382 0.0
C1446 C 0.08699 0.11272 0.66168 0.0
C1447 C 0.06944 0.08838 0.65853 0.0
C1448 C 0.04597 0.14033 0.67931 0.0
C1449 C 0.04077 0.09035 0.66849 0.0
C1450 C 0.00163 0.17035 0.68632 0.0
C1451 C 0.03468 0.21957 0.68005 0.0
N1452 N 0.02982 0.11597 0.67793 0.0
N1453 N 0.04721 0.19323 0.68143 0.0
H1454 H 0.30281 0.96643 0.68322 0.0
H1455 H 0.38696 0.11209 0.65695 0.0
H1456 H 0.2616 0.04921 0.67639 0.0
H1457 H 0.42819 0.02998 0.67018 0.0
H1458 H 0.34176 0.09115 0.67483 0.0
H1459 H 0.34906 0.99045 0.68901 0.0
C1460 C 0.30344 0.98969 0.6834 0.0
C1461 C 0.27842 0.00585 0.6786 0.0
C1462 C 0.36079 0.07781 0.67442 0.0
C1463 C 0.33135 0.03352 0.68486 0.0
C1464 C 0.38671 0.08984 0.66443 0.0
C1465 C 0.41129 0.07261 0.66152 0.0
C1466 C 0.35941 0.0483 0.68128 0.0
C1467 C 0.40958 0.04386 0.67136 0.0
C1468 C 0.32988 0.00342 0.68675 0.0
C1469 C 0.28043 0.03591 0.6796 0.0
N1470 N 0.38398 0.03248 0.68027 0.0
N1471 N 0.30653 0.04879 0.68202 0.0
loop_
_geom_bond_atom_site_label_1
_geom_bond_atom_site_label_2
_geom_bond_distance
_geom_bond_site_symmetry_2
_ccdc_geom_bond_type
O0 Tb1 2.292 . S
O0 C3 1.255 . S
Tb1 O0 2.292 . S
Tb1 O17 2.326 . S
Tb1 O19 2.500 . S
Tb1 O20 2.473 . S
Tb1 O23 2.324 . S
Eu2 O6 2.292 . S
Eu2 C7 2.852 . S
Eu2 O18 2.324 . S
Eu2 O22 2.326 . S
Eu2 O24 2.500 1_545 S
Eu2 O25 2.473 . S
C3 O0 1.255 . S
C3 O4 1.247 . S
O4 C3 1.247 . S
C5 O17 1.242 . S
C5 O18 1.258 . S
O6 Eu2 2.292 . S
O6 C8 1.255 . S
C7 Eu2 2.852 . S
C7 C11 1.503 1_545 S
C7 O24 1.273 1_545 S
C7 O25 1.257 . S
C8 O6 1.255 . S
C8 O9 1.247 . S
O9 C8 1.247 . S
C10 O22 1.242 . S
C10 O23 1.258 . S
C11 C7 1.503 1_565 S
C11 C12 1.379 1_565 S
C11 C16 1.392 . S
C12 C11 1.379 1_545 S
C12 C13 1.406 1_545 S
C12 H26 0.929 . S
C13 C12 1.406 1_565 S
C13 C14 1.384 . S
C14 C13 1.384 . S
C14 C15 1.399 . S
C14 H27 0.931 . S
C15 C14 1.399 . S
C15 C16 1.390 . S
C16 C11 1.392 . S
C16 C15 1.390 . S
C16 H28 0.929 . S
O17 Tb1 2.326 . S
O17 C5 1.242 . S
O18 Eu2 2.324 . S
O18 C5 1.258 . S
O19 Tb1 2.500 . S
O19 C21 1.273 . S
O20 Tb1 2.473 . S
O20 C21 1.257 . S
C21 O19 1.273 . S
C21 O20 1.257 . S
O22 Eu2 2.326 . S
O22 C10 1.242 . S
O23 Tb1 2.324 . S
O23 C10 1.258 . S
O24 Eu2 2.500 1_565 S
O24 C7 1.273 1_565 S
O25 Eu2 2.473 . S
O25 C7 1.257 . S
H26 C12 0.929 . S
H27 C14 0.931 . S
H28 C16 0.929 . S
O29 Tb30 2.292 . S
O29 C32 1.255 . S
Tb30 O29 2.292 . S
Tb30 O46 2.326 . S
Tb30 O48 2.500 . S
Tb30 O49 2.473 . S
Tb30 O52 2.324 . S
Eu31 O35 2.292 . S
Eu31 C36 2.852 . S
Eu31 O47 2.324 . S
Eu31 O51 2.326 . S
Eu31 O53 2.500 . S
Eu31 O54 2.473 . S
C32 O29 1.255 . S
C32 O33 1.247 . S
O33 C32 1.247 . S
C34 O46 1.242 . S
C34 O47 1.258 . S
O35 Eu31 2.292 . S
O35 C37 1.255 . S
C36 Eu31 2.852 . S
C36 C40 1.503 . S
C36 O53 1.273 . S
C36 O54 1.257 . S
C37 O35 1.255 . S
C37 O38 1.247 . S
O38 C37 1.247 . S
C39 O51 1.242 . S
C39 O52 1.258 . S
C40 C36 1.503 . S
C40 C41 1.379 . S
C40 C45 1.392 . S
C41 C40 1.379 . S
C41 C42 1.404 . S
C41 H55 0.929 . S
C42 C41 1.404 . S
C42 C43 1.389 . S
C43 C42 1.389 . S
C43 C44 1.399 . S
C43 H56 0.931 . S
C44 C43 1.399 . S
C44 C45 1.390 . S
C45 C40 1.392 . S
C45 C44 1.390 . S
C45 H57 0.929 . S
O46 Tb30 2.326 . S
O46 C34 1.242 . S
O47 Eu31 2.324 . S
O47 C34 1.258 . S
O48 Tb30 2.500 . S
O48 C50 1.273 . S
O49 Tb30 2.473 . S
O49 C50 1.257 . S
C50 O48 1.273 . S
C50 O49 1.257 . S
O51 Eu31 2.326 . S
O51 C39 1.242 . S
O52 Tb30 2.324 . S
O52 C39 1.258 . S
O53 Eu31 2.500 . S
O53 C36 1.273 . S
O54 Eu31 2.473 . S
O54 C36 1.257 . S
H55 C41 0.929 . S
H56 C43 0.931 . S
H57 C45 0.929 . S
O58 Tb59 2.292 . S
O58 C61 1.255 . S
Tb59 O58 2.292 . S
Tb59 O75 2.326 . S
Tb59 O77 2.500 . S
Tb59 O78 2.473 . S
Tb59 O81 2.324 . S
Eu60 O64 2.292 . S
Eu60 C65 2.852 . S
Eu60 O76 2.324 . S
Eu60 O80 2.326 . S
Eu60 O82 2.500 . S
Eu60 O83 2.473 . S
C61 O58 1.255 . S
C61 O62 1.247 . S
O62 C61 1.247 . S
C63 O75 1.242 . S
C63 O76 1.258 . S
O64 Eu60 2.292 . S
O64 C66 1.255 . S
C65 Eu60 2.852 . S
C65 C69 1.503 . S
C65 O82 1.273 . S
C65 O83 1.257 . S
C66 O64 1.255 . S
C66 O67 1.247 . S
O67 C66 1.247 . S
C68 O80 1.242 . S
C68 O81 1.258 . S
C69 C65 1.503 . S
C69 C70 1.379 . S
C69 C74 1.392 . S
C70 C69 1.379 . S
C70 C71 1.404 . S
C70 H84 0.929 . S
C71 C70 1.404 . S
C71 C72 1.389 . S
C72 C71 1.389 . S
C72 C73 1.399 . S
C72 H85 0.931 . S
C73 C72 1.399 . S
C73 C74 1.390 . S
C74 C69 1.392 . S
C74 C73 1.390 . S
C74 H86 0.929 . S
O75 Tb59 2.326 . S
O75 C63 1.242 . S
O76 Eu60 2.324 . S
O76 C63 1.258 . S
O77 Tb59 2.500 . S
O77 C79 1.273 . S
O78 Tb59 2.473 . S
O78 C79 1.257 . S
C79 O77 1.273 . S
C79 O78 1.257 . S
O80 Eu60 2.326 . S
O80 C68 1.242 . S
O81 Tb59 2.324 . S
O81 C68 1.258 . S
O82 Eu60 2.500 . S
O82 C65 1.273 . S
O83 Eu60 2.473 . S
O83 C65 1.257 . S
H84 C70 0.929 . S
H85 C72 0.931 . S
H86 C74 0.929 . S
O87 Tb88 2.292 . S
O87 C90 1.255 . S
Tb88 O87 2.292 . S
Tb88 O104 2.326 . S
Tb88 O106 2.500 . S
Tb88 O107 2.473 . S
Tb88 O110 2.324 . S
Eu89 O93 2.292 . S
Eu89 C94 2.852 . S
Eu89 O105 2.324 . S
Eu89 O109 2.326 . S
Eu89 O111 2.500 1_455 S
Eu89 O112 2.473 . S
C90 O87 1.255 . S
C90 O91 1.247 . S
O91 C90 1.247 . S
C92 O104 1.242 . S
C92 O105 1.258 . S
O93 Eu89 2.292 . S
O93 C95 1.255 . S
C94 Eu89 2.852 . S
C94 C98 1.503 1_455 S
C94 O111 1.273 1_455 S
C94 O112 1.257 . S
C95 O93 1.255 . S
C95 O96 1.247 . S
O96 C95 1.247 . S
C97 O109 1.242 . S
C97 O110 1.258 . S
C98 C94 1.503 1_655 S
C98 C99 1.379 1_655 S
C98 C103 1.392 . S
C99 C98 1.379 1_455 S
C99 C100 1.406 1_455 S
C99 H113 0.929 . S
C100 C99 1.406 1_655 S
C100 C101 1.384 . S
C101 C100 1.384 . S
C101 C102 1.399 . S
C101 H114 0.931 . S
C102 C101 1.399 . S
C102 C103 1.390 . S
C103 C98 1.392 . S
C103 C102 1.390 . S
C103 H115 0.929 . S
O104 Tb88 2.326 . S
O104 C92 1.242 . S
O105 Eu89 2.324 . S
O105 C92 1.258 . S
O106 Tb88 2.500 . S
O106 C108 1.273 . S
O107 Tb88 2.473 . S
O107 C108 1.257 . S
C108 O106 1.273 . S
C108 O107 1.257 . S
O109 Eu89 2.326 . S
O109 C97 1.242 . S
O110 Tb88 2.324 . S
O110 C97 1.258 . S
O111 Eu89 2.500 1_655 S
O111 C94 1.273 1_655 S
O112 Eu89 2.473 . S
O112 C94 1.257 . S
H113 C99 0.929 . S
H114 C101 0.931 . S
H115 C103 0.929 . S
O116 Tb117 2.292 . S
O116 C119 1.255 . S
Tb117 O116 2.292 . S
Tb117 O133 2.326 . S
Tb117 O135 2.500 . S
Tb117 O136 2.473 . S
Tb117 O139 2.324 . S
Eu118 O122 2.292 . S
Eu118 C123 2.852 . S
Eu118 O134 2.324 . S
Eu118 O138 2.326 . S
Eu118 O140 2.500 . S
Eu118 O141 2.473 . S
C119 O116 1.255 . S
C119 O120 1.247 . S
O120 C119 1.247 . S
C121 O133 1.242 . S
C121 O134 1.258 . S
O122 Eu118 2.292 . S
O122 C124 1.255 . S
C123 Eu118 2.852 . S
C123 C127 1.503 . S
C123 O140 1.273 . S
C123 O141 1.257 . S
C124 O122 1.255 . S
C124 O125 1.247 . S
O125 C124 1.247 . S
C126 O138 1.242 . S
C126 O139 1.258 . S
C127 C123 1.503 . S
C127 C128 1.379 . S
C127 C132 1.392 . S
C128 C127 1.379 . S
C128 C129 1.404 . S
C128 H142 0.929 . S
C129 C128 1.404 . S
C129 C130 1.389 . S
C130 C129 1.389 . S
C130 C131 1.399 . S
C130 H143 0.931 . S
C131 C130 1.399 . S
C131 C132 1.390 . S
C132 C127 1.392 . S
C132 C131 1.390 . S
C132 H144 0.929 . S
O133 Tb117 2.326 . S
O133 C121 1.242 . S
O134 Eu118 2.324 . S
O134 C121 1.258 . S
O135 Tb117 2.500 . S
O135 C137 1.273 . S
O136 Tb117 2.473 . S
O136 C137 1.257 . S
C137 O135 1.273 . S
C137 O136 1.257 . S
O138 Eu118 2.326 . S
O138 C126 1.242 . S
O139 Tb117 2.324 . S
O139 C126 1.258 . S
O140 Eu118 2.500 . S
O140 C123 1.273 . S
O141 Eu118 2.473 . S
O141 C123 1.257 . S
H142 C128 0.929 . S
H143 C130 0.931 . S
H144 C132 0.929 . S
O145 Tb146 2.292 . S
O145 C148 1.255 . S
Tb146 O145 2.292 . S
Tb146 O162 2.326 . S
Tb146 O164 2.500 . S
Tb146 O165 2.473 . S
Tb146 O168 2.324 . S
Eu147 O151 2.292 . S
Eu147 C152 2.852 . S
Eu147 O163 2.324 . S
Eu147 O167 2.326 . S
Eu147 O169 2.500 1_455 S
Eu147 O170 2.473 . S
C148 O145 1.255 . S
C148 O149 1.247 . S
O149 C148 1.247 . S
C150 O162 1.242 . S
C150 O163 1.258 . S
O151 Eu147 2.292 . S
O151 C153 1.255 . S
C152 Eu147 2.852 . S
C152 C156 1.503 1_455 S
C152 O169 1.273 1_455 S
C152 O170 1.257 . S
C153 O151 1.255 . S
C153 O154 1.247 . S
O154 C153 1.247 . S
C155 O167 1.242 . S
C155 O168 1.258 . S
C156 C152 1.503 1_655 S
C156 C157 1.379 1_655 S
C156 C161 1.392 . S
C157 C156 1.379 1_455 S
C157 C158 1.406 1_455 S
C157 H171 0.929 . S
C158 C157 1.406 1_655 S
C158 C159 1.384 . S
C159 C158 1.384 . S
C159 C160 1.399 . S
C159 H172 0.931 . S
C160 C159 1.399 . S
C160 C161 1.390 . S
C161 C156 1.392 . S
C161 C160 1.390 . S
C161 H173 0.929 . S
O162 Tb146 2.326 . S
O162 C150 1.242 . S
O163 Eu147 2.324 . S
O163 C150 1.258 . S
O164 Tb146 2.500 . S
O164 C166 1.273 . S
O165 Tb146 2.473 . S
O165 C166 1.257 . S
C166 O164 1.273 . S
C166 O165 1.257 . S
O167 Eu147 2.326 . S
O167 C155 1.242 . S
O168 Tb146 2.324 . S
O168 C155 1.258 . S
O169 Eu147 2.500 1_655 S
O169 C152 1.273 1_655 S
O170 Eu147 2.473 . S
O170 C152 1.257 . S
H171 C157 0.929 . S
H172 C159 0.931 . S
H173 C161 0.929 . S
O174 Tb175 2.292 . S
O174 C177 1.255 . S
Tb175 O174 2.292 . S
Tb175 O191 2.326 . S
Tb175 O193 2.500 . S
Tb175 O194 2.473 . S
Tb175 O197 2.324 . S
Eu176 O180 2.292 . S
Eu176 C181 2.852 . S
Eu176 O192 2.324 . S
Eu176 O196 2.326 . S
Eu176 O198 2.500 1_545 S
Eu176 O199 2.473 . S
C177 O174 1.255 . S
C177 O178 1.247 . S
O178 C177 1.247 . S
C179 O191 1.242 . S
C179 O192 1.258 . S
O180 Eu176 2.292 . S
O180 C182 1.255 . S
C181 Eu176 2.852 . S
C181 C185 1.503 1_545 S
C181 O198 1.273 1_545 S
C181 O199 1.257 . S
C182 O180 1.255 . S
C182 O183 1.247 . S
O183 C182 1.247 . S
C184 O196 1.242 . S
C184 O197 1.258 . S
C185 C181 1.503 1_565 S
C185 C186 1.379 1_565 S
C185 C190 1.392 . S
C186 C185 1.379 1_545 S
C186 C187 1.406 1_545 S
C186 H200 0.929 . S
C187 C186 1.406 1_565 S
C187 C188 1.384 . S
C188 C187 1.384 . S
C188 C189 1.399 . S
C188 H201 0.931 . S
C189 C188 1.399 . S
C189 C190 1.390 . S
C190 C185 1.392 . S
C190 C189 1.390 . S
C190 H202 0.929 . S
O191 Tb175 2.326 . S
O191 C179 1.242 . S
O192 Eu176 2.324 . S
O192 C179 1.258 . S
O193 Tb175 2.500 . S
O193 C195 1.273 . S
O194 Tb175 2.473 . S
O194 C195 1.257 . S
C195 O193 1.273 . S
C195 O194 1.257 . S
O196 Eu176 2.326 . S
O196 C184 1.242 . S
O197 Tb175 2.324 . S
O197 C184 1.258 . S
O198 Eu176 2.500 1_565 S
O198 C181 1.273 1_565 S
O199 Eu176 2.473 . S
O199 C181 1.257 . S
H200 C186 0.929 . S
H201 C188 0.931 . S
H202 C190 0.929 . S
O203 Tb204 2.292 . S
O203 C206 1.255 . S
Tb204 O203 2.292 . S
Tb204 O220 2.326 . S
Tb204 O222 2.500 . S
Tb204 O223 2.473 . S
Tb204 O226 2.324 . S
Eu205 O209 2.292 . S
Eu205 C210 2.852 . S
Eu205 O221 2.324 . S
Eu205 O225 2.326 . S
Eu205 O227 2.500 . S
Eu205 O228 2.473 . S
C206 O203 1.255 . S
C206 O207 1.247 . S
O207 C206 1.247 . S
C208 O220 1.242 . S
C208 O221 1.258 . S
O209 Eu205 2.292 . S
O209 C211 1.255 . S
C210 Eu205 2.852 . S
C210 C214 1.503 . S
C210 O227 1.273 . S
C210 O228 1.257 . S
C211 O209 1.255 . S
C211 O212 1.247 . S
O212 C211 1.247 . S
C213 O225 1.242 . S
C213 O226 1.258 . S
C214 C210 1.503 . S
C214 C215 1.379 . S
C214 C219 1.392 . S
C215 C214 1.379 . S
C215 C216 1.404 . S
C215 H229 0.929 . S
C216 C215 1.404 . S
C216 C217 1.389 . S
C217 C216 1.389 . S
C217 C218 1.399 . S
C217 H230 0.931 . S
C218 C217 1.399 . S
C218 C219 1.390 . S
C219 C214 1.392 . S
C219 C218 1.390 . S
C219 H231 0.929 . S
O220 Tb204 2.326 . S
O220 C208 1.242 . S
O221 Eu205 2.324 . S
O221 C208 1.258 . S
O222 Tb204 2.500 . S
O222 C224 1.273 . S
O223 Tb204 2.473 . S
O223 C224 1.257 . S
C224 O222 1.273 . S
C224 O223 1.257 . S
O225 Eu205 2.326 . S
O225 C213 1.242 . S
O226 Tb204 2.324 . S
O226 C213 1.258 . S
O227 Eu205 2.500 . S
O227 C210 1.273 . S
O228 Eu205 2.473 . S
O228 C210 1.257 . S
H229 C215 0.929 . S
H230 C217 0.931 . S
H231 C219 0.929 . S
O232 Tb233 2.292 . S
O232 C235 1.255 . S
Tb233 O232 2.292 . S
Tb233 O249 2.326 . S
Tb233 O251 2.500 . S
Tb233 O252 2.473 . S
Tb233 O255 2.324 . S
Eu234 O238 2.292 . S
Eu234 C239 2.852 . S
Eu234 O250 2.324 . S
Eu234 O254 2.326 . S
Eu234 O256 2.500 1_565 S
Eu234 O257 2.473 . S
C235 O232 1.255 . S
C235 O236 1.247 . S
O236 C235 1.247 . S
C237 O249 1.242 . S
C237 O250 1.258 . S
O238 Eu234 2.292 . S
O238 C240 1.255 . S
C239 Eu234 2.852 . S
C239 C243 1.503 1_565 S
C239 O256 1.273 1_565 S
C239 O257 1.257 . S
C240 O238 1.255 . S
C240 O241 1.247 . S
O241 C240 1.247 . S
C242 O254 1.242 . S
C242 O255 1.258 . S
C243 C239 1.503 1_545 S
C243 C244 1.379 1_545 S
C243 C248 1.392 . S
C244 C243 1.379 1_565 S
C244 C245 1.406 1_565 S
C244 H258 0.929 . S
C245 C244 1.406 1_545 S
C245 C246 1.384 . S
C246 C245 1.384 . S
C246 C247 1.399 . S
C246 H259 0.931 . S
C247 C246 1.399 . S
C247 C248 1.390 . S
C248 C243 1.392 . S
C248 C247 1.390 . S
C248 H260 0.929 . S
O249 Tb233 2.326 . S
O249 C237 1.242 . S
O250 Eu234 2.324 . S
O250 C237 1.258 . S
O251 Tb233 2.500 . S
O251 C253 1.273 . S
O252 Tb233 2.473 . S
O252 C253 1.257 . S
C253 O251 1.273 . S
C253 O252 1.257 . S
O254 Eu234 2.326 . S
O254 C242 1.242 . S
O255 Tb233 2.324 . S
O255 C242 1.258 . S
O256 Eu234 2.500 1_545 S
O256 C239 1.273 1_545 S
O257 Eu234 2.473 . S
O257 C239 1.257 . S
H258 C244 0.929 . S
H259 C246 0.931 . S
H260 C248 0.929 . S
O261 Tb262 2.292 . S
O261 C264 1.255 . S
Tb262 O261 2.292 . S
Tb262 O278 2.326 . S
Tb262 O280 2.500 . S
Tb262 O281 2.473 . S
Tb262 O284 2.324 . S
Eu263 O267 2.292 . S
Eu263 C268 2.852 . S
Eu263 O279 2.324 . S
Eu263 O283 2.326 . S
Eu263 O285 2.500 . S
Eu263 O286 2.473 . S
C264 O261 1.255 . S
C264 O265 1.247 . S
O265 C264 1.247 . S
C266 O278 1.242 . S
C266 O279 1.258 . S
O267 Eu263 2.292 . S
O267 C269 1.255 . S
C268 Eu263 2.852 . S
C268 C272 1.503 . S
C268 O285 1.273 . S
C268 O286 1.257 . S
C269 O267 1.255 . S
C269 O270 1.247 . S
O270 C269 1.247 . S
C271 O283 1.242 . S
C271 O284 1.258 . S
C272 C268 1.503 . S
C272 C273 1.379 . S
C272 C277 1.392 . S
C273 C272 1.379 . S
C273 C274 1.404 . S
C273 H287 0.929 . S
C274 C273 1.404 . S
C274 C275 1.389 . S
C275 C274 1.389 . S
C275 C276 1.399 . S
C275 H288 0.931 . S
C276 C275 1.399 . S
C276 C277 1.390 . S
C277 C272 1.392 . S
C277 C276 1.390 . S
C277 H289 0.929 . S
O278 Tb262 2.326 . S
O278 C266 1.242 . S
O279 Eu263 2.324 . S
O279 C266 1.258 . S
O280 Tb262 2.500 . S
O280 C282 1.273 . S
O281 Tb262 2.473 . S
O281 C282 1.257 . S
C282 O280 1.273 . S
C282 O281 1.257 . S
O283 Eu263 2.326 . S
O283 C271 1.242 . S
O284 Tb262 2.324 . S
O284 C271 1.258 . S
O285 Eu263 2.500 . S
O285 C268 1.273 . S
O286 Eu263 2.473 . S
O286 C268 1.257 . S
H287 C273 0.929 . S
H288 C275 0.931 . S
H289 C277 0.929 . S
O290 Tb291 2.292 . S
O290 C293 1.255 . S
Tb291 O290 2.292 . S
Tb291 O307 2.326 . S
Tb291 O309 2.500 . S
Tb291 O310 2.473 . S
Tb291 O313 2.324 . S
Eu292 O296 2.292 . S
Eu292 C297 2.852 . S
Eu292 O308 2.324 . S
Eu292 O312 2.326 . S
Eu292 O314 2.500 . S
Eu292 O315 2.473 . S
C293 O290 1.255 . S
C293 O294 1.247 . S
O294 C293 1.247 . S
C295 O307 1.242 . S
C295 O308 1.258 . S
O296 Eu292 2.292 . S
O296 C298 1.255 . S
C297 Eu292 2.852 . S
C297 C301 1.503 . S
C297 O314 1.273 . S
C297 O315 1.257 . S
C298 O296 1.255 . S
C298 O299 1.247 . S
O299 C298 1.247 . S
C300 O312 1.242 . S
C300 O313 1.258 . S
C301 C297 1.503 . S
C301 C302 1.379 . S
C301 C306 1.392 . S
C302 C301 1.379 . S
C302 C303 1.404 . S
C302 H316 0.929 . S
C303 C302 1.404 . S
C303 C304 1.389 . S
C304 C303 1.389 . S
C304 C305 1.399 . S
C304 H317 0.931 . S
C305 C304 1.399 . S
C305 C306 1.390 . S
C306 C301 1.392 . S
C306 C305 1.390 . S
C306 H318 0.929 . S
O307 Tb291 2.326 . S
O307 C295 1.242 . S
O308 Eu292 2.324 . S
O308 C295 1.258 . S
O309 Tb291 2.500 . S
O309 C311 1.273 . S
O310 Tb291 2.473 . S
O310 C311 1.257 . S
C311 O309 1.273 . S
C311 O310 1.257 . S
O312 Eu292 2.326 . S
O312 C300 1.242 . S
O313 Tb291 2.324 . S
O313 C300 1.258 . S
O314 Eu292 2.500 . S
O314 C297 1.273 . S
O315 Eu292 2.473 . S
O315 C297 1.257 . S
H316 C302 0.929 . S
H317 C304 0.931 . S
H318 C306 0.929 . S
O319 Tb320 2.292 . S
O319 C322 1.255 . S
Tb320 O319 2.292 . S
Tb320 O336 2.326 . S
Tb320 O338 2.500 . S
Tb320 O339 2.473 . S
Tb320 O342 2.324 . S
Eu321 O325 2.292 . S
Eu321 C326 2.852 . S
Eu321 O337 2.324 . S
Eu321 O341 2.326 . S
Eu321 O343 2.500 1_655 S
Eu321 O344 2.473 . S
C322 O319 1.255 . S
C322 O323 1.247 . S
O323 C322 1.247 . S
C324 O336 1.242 . S
C324 O337 1.258 . S
O325 Eu321 2.292 . S
O325 C327 1.255 . S
C326 Eu321 2.852 . S
C326 C330 1.503 1_655 S
C326 O343 1.273 1_655 S
C326 O344 1.257 . S
C327 O325 1.255 . S
C327 O328 1.247 . S
O328 C327 1.247 . S
C329 O341 1.242 . S
C329 O342 1.258 . S
C330 C326 1.503 1_455 S
C330 C331 1.379 1_455 S
C330 C335 1.392 . S
C331 C330 1.379 1_655 S
C331 C332 1.406 1_655 S
C331 H345 0.929 . S
C332 C331 1.406 1_455 S
C332 C333 1.384 . S
C333 C332 1.384 . S
C333 C334 1.399 . S
C333 H346 0.931 . S
C334 C333 1.399 . S
C334 C335 1.390 . S
C335 C330 1.392 . S
C335 C334 1.390 . S
C335 H347 0.929 . S
O336 Tb320 2.326 . S
O336 C324 1.242 . S
O337 Eu321 2.324 . S
O337 C324 1.258 . S
O338 Tb320 2.500 . S
O338 C340 1.273 . S
O339 Tb320 2.473 . S
O339 C340 1.257 . S
C340 O338 1.273 . S
C340 O339 1.257 . S
O341 Eu321 2.326 . S
O341 C329 1.242 . S
O342 Tb320 2.324 . S
O342 C329 1.258 . S
O343 Eu321 2.500 1_455 S
O343 C326 1.273 1_455 S
O344 Eu321 2.473 . S
O344 C326 1.257 . S
H345 C331 0.929 . S
H346 C333 0.931 . S
H347 C335 0.929 . S
O348 Tb349 2.292 . S
O348 C351 1.255 . S
Tb349 O348 2.292 . S
Tb349 O365 2.326 . S
Tb349 O367 2.500 . S
Tb349 O368 2.473 . S
Tb349 O371 2.324 . S
Eu350 O354 2.292 . S
Eu350 C355 2.852 . S
Eu350 O366 2.324 . S
Eu350 O370 2.326 . S
Eu350 O372 2.500 . S
Eu350 O373 2.473 . S
C351 O348 1.255 . S
C351 O352 1.247 . S
O352 C351 1.247 . S
C353 O365 1.242 . S
C353 O366 1.258 . S
O354 Eu350 2.292 . S
O354 C356 1.255 . S
C355 Eu350 2.852 . S
C355 C359 1.503 . S
C355 O372 1.273 . S
C355 O373 1.257 . S
C356 O354 1.255 . S
C356 O357 1.247 . S
O357 C356 1.247 . S
C358 O370 1.242 . S
C358 O371 1.258 . S
C359 C355 1.503 . S
C359 C360 1.379 . S
C359 C364 1.392 . S
C360 C359 1.379 . S
C360 C361 1.404 . S
C360 H374 0.929 . S
C361 C360 1.404 . S
C361 C362 1.389 . S
C362 C361 1.389 . S
C362 C363 1.399 . S
C362 H375 0.931 . S
C363 C362 1.399 . S
C363 C364 1.390 . S
C364 C359 1.392 . S
C364 C363 1.390 . S
C364 H376 0.929 . S
O365 Tb349 2.326 . S
O365 C353 1.242 . S
O366 Eu350 2.324 . S
O366 C353 1.258 . S
O367 Tb349 2.500 . S
O367 C369 1.273 . S
O368 Tb349 2.473 . S
O368 C369 1.257 . S
C369 O367 1.273 . S
C369 O368 1.257 . S
O370 Eu350 2.326 . S
O370 C358 1.242 . S
O371 Tb349 2.324 . S
O371 C358 1.258 . S
O372 Eu350 2.500 . S
O372 C355 1.273 . S
O373 Eu350 2.473 . S
O373 C355 1.257 . S
H374 C360 0.929 . S
H375 C362 0.931 . S
H376 C364 0.929 . S
O377 Tb378 2.292 . S
O377 C380 1.255 . S
Tb378 O377 2.292 . S
Tb378 O394 2.326 . S
Tb378 O396 2.500 . S
Tb378 O397 2.473 . S
Tb378 O400 2.324 . S
Eu379 O383 2.292 . S
Eu379 C384 2.852 . S
Eu379 O395 2.324 . S
Eu379 O399 2.326 . S
Eu379 O401 2.500 1_655 S
Eu379 O402 2.473 . S
C380 O377 1.255 . S
C380 O381 1.247 . S
O381 C380 1.247 . S
C382 O394 1.242 . S
C382 O395 1.258 . S
O383 Eu379 2.292 . S
O383 C385 1.255 . S
C384 Eu379 2.852 . S
C384 C388 1.503 1_655 S
C384 O401 1.273 1_655 S
C384 O402 1.257 . S
C385 O383 1.255 . S
C385 O386 1.247 . S
O386 C385 1.247 . S
C387 O399 1.242 . S
C387 O400 1.258 . S
C388 C384 1.503 1_455 S
C388 C389 1.379 1_455 S
C388 C393 1.392 . S
C389 C388 1.379 1_655 S
C389 C390 1.406 1_655 S
C389 H403 0.929 . S
C390 C389 1.406 1_455 S
C390 C391 1.384 . S
C391 C390 1.384 . S
C391 C392 1.399 . S
C391 H404 0.931 . S
C392 C391 1.399 . S
C392 C393 1.390 . S
C393 C388 1.392 . S
C393 C392 1.390 . S
C393 H405 0.929 . S
O394 Tb378 2.326 . S
O394 C382 1.242 . S
O395 Eu379 2.324 . S
O395 C382 1.258 . S
O396 Tb378 2.500 . S
O396 C398 1.273 . S
O397 Tb378 2.473 . S
O397 C398 1.257 . S
C398 O396 1.273 . S
C398 O397 1.257 . S
O399 Eu379 2.326 . S
O399 C387 1.242 . S
O400 Tb378 2.324 . S
O400 C387 1.258 . S
O401 Eu379 2.500 1_455 S
O401 C384 1.273 1_455 S
O402 Eu379 2.473 . S
O402 C384 1.257 . S
H403 C389 0.929 . S
H404 C391 0.931 . S
H405 C393 0.929 . S
O406 Tb407 2.292 . S
O406 C409 1.255 . S
Tb407 O406 2.292 . S
Tb407 O423 2.326 . S
Tb407 O425 2.500 . S
Tb407 O426 2.473 . S
Tb407 O429 2.324 . S
Eu408 O412 2.292 . S
Eu408 C413 2.852 . S
Eu408 O424 2.324 . S
Eu408 O428 2.326 . S
Eu408 O430 2.500 1_565 S
Eu408 O431 2.473 . S
C409 O406 1.255 . S
C409 O410 1.247 . S
O410 C409 1.247 . S
C411 O423 1.242 . S
C411 O424 1.258 . S
O412 Eu408 2.292 . S
O412 C414 1.255 . S
C413 Eu408 2.852 . S
C413 C417 1.503 1_565 S
C413 O430 1.273 1_565 S
C413 O431 1.257 . S
C414 O412 1.255 . S
C414 O415 1.247 . S
O415 C414 1.247 . S
C416 O428 1.242 . S
C416 O429 1.258 . S
C417 C413 1.503 1_545 S
C417 C418 1.379 1_545 S
C417 C422 1.392 . S
C418 C417 1.379 1_565 S
C418 C419 1.406 1_565 S
C418 H432 0.929 . S
C419 C418 1.406 1_545 S
C419 C420 1.384 . S
C420 C419 1.384 . S
C420 C421 1.399 . S
C420 H433 0.931 . S
C421 C420 1.399 . S
C421 C422 1.390 . S
C422 C417 1.392 . S
C422 C421 1.390 . S
C422 H434 0.929 . S
O423 Tb407 2.326 . S
O423 C411 1.242 . S
O424 Eu408 2.324 . S
O424 C411 1.258 . S
O425 Tb407 2.500 . S
O425 C427 1.273 . S
O426 Tb407 2.473 . S
O426 C427 1.257 . S
C427 O425 1.273 . S
C427 O426 1.257 . S
O428 Eu408 2.326 . S
O428 C416 1.242 . S
O429 Tb407 2.324 . S
O429 C416 1.258 . S
O430 Eu408 2.500 1_545 S
O430 C413 1.273 1_545 S
O431 Eu408 2.473 . S
O431 C413 1.257 . S
H432 C418 0.929 . S
H433 C420 0.931 . S
H434 C422 0.929 . S
O435 Tb436 2.292 . S
O435 C438 1.255 . S
Tb436 O435 2.292 . S
Tb436 O452 2.326 . S
Tb436 O454 2.500 . S
Tb436 O455 2.473 . S
Tb436 O458 2.324 . S
Eu437 O441 2.292 . S
Eu437 C442 2.852 . S
Eu437 O453 2.324 . S
Eu437 O457 2.326 . S
Eu437 O459 2.500 . S
Eu437 O460 2.473 . S
C438 O435 1.255 . S
C438 O439 1.247 . S
O439 C438 1.247 . S
C440 O452 1.242 . S
C440 O453 1.258 . S
O441 Eu437 2.292 . S
O441 C443 1.255 . S
C442 Eu437 2.852 . S
C442 C446 1.503 . S
C442 O459 1.273 . S
C442 O460 1.257 . S
C443 O441 1.255 . S
C443 O444 1.247 . S
O444 C443 1.247 . S
C445 O457 1.242 . S
C445 O458 1.258 . S
C446 C442 1.503 . S
C446 C447 1.379 . S
C446 C451 1.392 . S
C447 C446 1.379 . S
C447 C448 1.404 . S
C447 H461 0.929 . S
C448 C447 1.404 . S
C448 C449 1.389 . S
C449 C448 1.389 . S
C449 C450 1.399 . S
C449 H462 0.931 . S
C450 C449 1.399 . S
C450 C451 1.390 . S
C451 C446 1.392 . S
C451 C450 1.390 . S
C451 H463 0.929 . S
O452 Tb436 2.326 . S
O452 C440 1.242 . S
O453 Eu437 2.324 . S
O453 C440 1.258 . S
O454 Tb436 2.500 . S
O454 C456 1.273 . S
O455 Tb436 2.473 . S
O455 C456 1.257 . S
C456 O454 1.273 . S
C456 O455 1.257 . S
O457 Eu437 2.326 . S
O457 C445 1.242 . S
O458 Tb436 2.324 . S
O458 C445 1.258 . S
O459 Eu437 2.500 . S
O459 C442 1.273 . S
O460 Eu437 2.473 . S
O460 C442 1.257 . S
H461 C447 0.929 . S
H462 C449 0.931 . S
H463 C451 0.929 . S
H464 C470 0.930 . S
H465 C474 0.930 . S
H466 C479 0.929 . S
H467 C477 0.929 . S
H468 C472 0.929 . S
H469 C478 0.929 . S
C470 H464 0.930 . S
C470 C471 1.367 . S
C470 C478 1.378 . S
C471 C470 1.367 . S
C471 C479 1.433 . S
C472 H468 0.929 . S
C472 C474 1.378 . S
C472 C476 1.350 . S
C473 C476 1.463 . S
C473 C478 1.350 . S
C473 N481 1.427 . S
C474 H465 0.930 . S
C474 C472 1.378 . S
C474 C475 1.367 . S
C475 C474 1.367 . S
C475 C477 1.433 . S
C476 C472 1.350 . S
C476 C473 1.463 . S
C476 N480 1.427 . S
C477 H467 0.929 . S
C477 C475 1.433 . S
C477 N480 1.384 . S
C478 H469 0.929 . S
C478 C470 1.378 . S
C478 C473 1.350 . S
C479 H466 0.929 . S
C479 C471 1.433 . S
C479 N481 1.384 . S
N480 C476 1.427 . S
N480 C477 1.384 . S
N481 C473 1.427 . S
N481 C479 1.384 . S
H482 C488 0.930 . S
H483 C492 0.930 . S
H484 C497 0.929 . S
H485 C495 0.929 . S
H486 C490 0.929 . S
H487 C496 0.929 . S
C488 H482 0.930 . S
C488 C489 1.367 . S
C488 C496 1.378 . S
C489 C488 1.367 . S
C489 C497 1.433 . S
C490 H486 0.929 . S
C490 C492 1.378 . S
C490 C494 1.350 . S
C491 C494 1.463 . S
C491 C496 1.350 . S
C491 N499 1.427 . S
C492 H483 0.930 . S
C492 C490 1.378 . S
C492 C493 1.367 . S
C493 C492 1.367 . S
C493 C495 1.433 . S
C494 C490 1.350 . S
C494 C491 1.463 . S
C494 N498 1.427 . S
C495 H485 0.929 . S
C495 C493 1.433 . S
C495 N498 1.384 . S
C496 H487 0.929 . S
C496 C488 1.378 . S
C496 C491 1.350 . S
C497 H484 0.929 . S
C497 C489 1.433 . S
C497 N499 1.384 . S
N498 C494 1.427 . S
N498 C495 1.384 . S
N499 C491 1.427 . S
N499 C497 1.384 . S
H500 C506 0.930 . S
H501 C510 0.930 . S
H502 C515 0.929 . S
H503 C513 0.929 . S
H504 C508 0.929 . S
H505 C514 0.929 . S
C506 H500 0.930 . S
C506 C507 1.367 . S
C506 C514 1.378 . S
C507 C506 1.367 . S
C507 C515 1.433 . S
C508 H504 0.929 . S
C508 C510 1.378 . S
C508 C512 1.350 . S
C509 C512 1.463 . S
C509 C514 1.350 . S
C509 N517 1.427 . S
C510 H501 0.930 . S
C510 C508 1.378 . S
C510 C511 1.367 . S
C511 C510 1.367 . S
C511 C513 1.433 . S
C512 C508 1.350 . S
C512 C509 1.463 . S
C512 N516 1.427 . S
C513 H503 0.929 . S
C513 C511 1.433 . S
C513 N516 1.384 . S
C514 H505 0.929 . S
C514 C506 1.378 . S
C514 C509 1.350 . S
C515 H502 0.929 . S
C515 C507 1.433 . S
C515 N517 1.384 . S
N516 C512 1.427 . S
N516 C513 1.384 . S
N517 C509 1.427 . S
N517 C515 1.384 . S
H518 C524 0.930 . S
H519 C528 0.930 . S
H520 C533 0.929 . S
H521 C531 0.929 . S
H522 C526 0.929 . S
H523 C532 0.929 . S
C524 H518 0.930 . S
C524 C525 1.367 . S
C524 C532 1.378 . S
C525 C524 1.367 . S
C525 C533 1.433 . S
C526 H522 0.929 . S
C526 C528 1.378 . S
C526 C530 1.350 . S
C527 C530 1.463 . S
C527 C532 1.350 . S
C527 N535 1.427 . S
C528 H519 0.930 . S
C528 C526 1.378 . S
C528 C529 1.367 . S
C529 C528 1.367 . S
C529 C531 1.433 . S
C530 C526 1.350 . S
C530 C527 1.463 . S
C530 N534 1.427 . S
C531 H521 0.929 . S
C531 C529 1.433 . S
C531 N534 1.384 . S
C532 H523 0.929 . S
C532 C524 1.378 . S
C532 C527 1.350 . S
C533 H520 0.929 . S
C533 C525 1.433 . S
C533 N535 1.384 . S
N534 C530 1.427 . S
N534 C531 1.384 . S
N535 C527 1.427 . S
N535 C533 1.384 . S
H536 C542 0.930 . S
H537 C546 0.930 . S
H538 C551 0.929 . S
H539 C549 0.929 . S
H540 C544 0.929 . S
H541 C550 0.929 . S
C542 H536 0.930 . S
C542 C543 1.367 . S
C542 C550 1.378 . S
C543 C542 1.367 . S
C543 C551 1.433 . S
C544 H540 0.929 . S
C544 C546 1.378 . S
C544 C548 1.350 . S
C545 C548 1.463 . S
C545 C550 1.350 . S
C545 N553 1.427 . S
C546 H537 0.930 . S
C546 C544 1.378 . S
C546 C547 1.367 . S
C547 C546 1.367 . S
C547 C549 1.433 . S
C548 C544 1.350 . S
C548 C545 1.463 . S
C548 N552 1.427 . S
C549 H539 0.929 . S
C549 C547 1.433 . S
C549 N552 1.384 . S
C550 H541 0.929 . S
C550 C542 1.378 . S
C550 C545 1.350 . S
C551 H538 0.929 . S
C551 C543 1.433 . S
C551 N553 1.384 . S
N552 C548 1.427 . S
N552 C549 1.384 . S
N553 C545 1.427 . S
N553 C551 1.384 . S
H554 C560 0.930 . S
H555 C564 0.930 . S
H556 C569 0.929 . S
H557 C567 0.929 . S
H558 C562 0.929 . S
H559 C568 0.929 . S
C560 H554 0.930 . S
C560 C561 1.367 . S
C560 C568 1.378 . S
C561 C560 1.367 . S
C561 C569 1.433 . S
C562 H558 0.929 . S
C562 C564 1.378 . S
C562 C566 1.350 . S
C563 C566 1.463 . S
C563 C568 1.350 . S
C563 N571 1.427 . S
C564 H555 0.930 . S
C564 C562 1.378 . S
C564 C565 1.367 . S
C565 C564 1.367 . S
C565 C567 1.433 . S
C566 C562 1.350 . S
C566 C563 1.463 . S
C566 N570 1.427 . S
C567 H557 0.929 . S
C567 C565 1.433 . S
C567 N570 1.384 . S
C568 H559 0.929 . S
C568 C560 1.378 . S
C568 C563 1.350 . S
C569 H556 0.929 . S
C569 C561 1.433 . S
C569 N571 1.384 . S
N570 C566 1.427 . S
N570 C567 1.384 . S
N571 C563 1.427 . S
N571 C569 1.384 . S
H572 C578 0.930 . S
H573 C582 0.930 . S
H574 C587 0.929 . S
H575 C585 0.929 . S
H576 C580 0.929 . S
H577 C586 0.929 . S
C578 H572 0.930 . S
C578 C579 1.367 . S
C578 C586 1.378 . S
C579 C578 1.367 . S
C579 C587 1.433 . S
C580 H576 0.929 . S
C580 C582 1.378 . S
C580 C584 1.350 . S
C581 C584 1.463 . S
C581 C586 1.350 . S
C581 N589 1.427 . S
C582 H573 0.930 . S
C582 C580 1.378 . S
C582 C583 1.367 . S
C583 C582 1.367 . S
C583 C585 1.433 . S
C584 C580 1.350 . S
C584 C581 1.463 . S
C584 N588 1.427 . S
C585 H575 0.929 . S
C585 C583 1.433 . S
C585 N588 1.384 . S
C586 H577 0.929 . S
C586 C578 1.378 . S
C586 C581 1.350 . S
C587 H574 0.929 . S
C587 C579 1.433 . S
C587 N589 1.384 . S
N588 C584 1.427 . S
N588 C585 1.384 . S
N589 C581 1.427 . S
N589 C587 1.384 . S
H590 C596 0.930 . S
H591 C600 0.930 . S
H592 C605 0.929 . S
H593 C603 0.929 . S
H594 C598 0.929 . S
H595 C604 0.929 . S
C596 H590 0.930 . S
C596 C597 1.367 . S
C596 C604 1.378 . S
C597 C596 1.367 . S
C597 C605 1.433 . S
C598 H594 0.929 . S
C598 C600 1.378 . S
C598 C602 1.350 . S
C599 C602 1.463 . S
C599 C604 1.350 . S
C599 N607 1.427 . S
C600 H591 0.930 . S
C600 C598 1.378 . S
C600 C601 1.367 . S
C601 C600 1.367 . S
C601 C603 1.433 . S
C602 C598 1.350 . S
C602 C599 1.463 . S
C602 N606 1.427 . S
C603 H593 0.929 . S
C603 C601 1.433 . S
C603 N606 1.384 . S
C604 H595 0.929 . S
C604 C596 1.378 . S
C604 C599 1.350 . S
C605 H592 0.929 . S
C605 C597 1.433 . S
C605 N607 1.384 . S
N606 C602 1.427 . S
N606 C603 1.384 . S
N607 C599 1.427 . S
N607 C605 1.384 . S
H608 C614 0.930 . S
H609 C618 0.930 . S
H610 C623 0.929 . S
H611 C621 0.929 . S
H612 C616 0.929 . S
H613 C622 0.929 . S
C614 H608 0.930 . S
C614 C615 1.367 . S
C614 C622 1.378 . S
C615 C614 1.367 . S
C615 C623 1.433 . S
C616 H612 0.929 . S
C616 C618 1.378 . S
C616 C620 1.350 . S
C617 C620 1.463 1_554 S
C617 C622 1.350 . S
C617 N625 1.427 . S
C618 H609 0.930 . S
C618 C616 1.378 . S
C618 C619 1.367 . S
C619 C618 1.367 . S
C619 C621 1.433 . S
C620 C616 1.350 . S
C620 C617 1.463 1_556 S
C620 N624 1.427 1_556 S
C621 H611 0.929 . S
C621 C619 1.433 . S
C621 N624 1.384 1_556 S
C622 H613 0.929 . S
C622 C614 1.378 . S
C622 C617 1.350 . S
C623 H610 0.929 . S
C623 C615 1.433 . S
C623 N625 1.384 . S
N624 C620 1.427 1_554 S
N624 C621 1.384 1_554 S
N625 C617 1.427 . S
N625 C623 1.384 . S
H626 C632 0.930 . S
H627 C636 0.930 . S
H628 C641 0.929 . S
H629 C639 0.929 . S
H630 C634 0.929 . S
H631 C640 0.929 . S
C632 H626 0.930 . S
C632 C633 1.367 . S
C632 C640 1.378 . S
C633 C632 1.367 . S
C633 C641 1.433 . S
C634 H630 0.929 . S
C634 C636 1.378 . S
C634 C638 1.350 . S
C635 C638 1.463 1_556 S
C635 C640 1.350 . S
C635 N643 1.427 . S
C636 H627 0.930 . S
C636 C634 1.378 . S
C636 C637 1.367 . S
C637 C636 1.367 . S
C637 C639 1.433 . S
C638 C634 1.350 . S
C638 C635 1.463 1_554 S
C638 N642 1.427 . S
C639 H629 0.929 . S
C639 C637 1.433 . S
C639 N642 1.384 . S
C640 H631 0.929 . S
C640 C632 1.378 . S
C640 C635 1.350 . S
C641 H628 0.929 . S
C641 C633 1.433 . S
C641 N643 1.384 . S
N642 C638 1.427 . S
N642 C639 1.384 . S
N643 C635 1.427 . S
N643 C641 1.384 . S
H644 C650 0.930 . S
H645 C654 0.930 . S
H646 C659 0.929 . S
H647 C657 0.929 . S
H648 C652 0.929 1_554 S
H649 C658 0.929 . S
C650 H644 0.930 . S
C650 C651 1.367 . S
C650 C658 1.378 . S
C651 C650 1.367 . S
C651 C659 1.433 . S
C652 H648 0.929 1_556 S
C652 C654 1.378 . S
C652 C656 1.350 . S
C653 C656 1.463 1_554 S
C653 C658 1.350 . S
C653 N661 1.427 . S
C654 H645 0.930 . S
C654 C652 1.378 . S
C654 C655 1.367 . S
C655 C654 1.367 . S
C655 C657 1.433 . S
C656 C652 1.350 . S
C656 C653 1.463 1_556 S
C656 N660 1.427 . S
C657 H647 0.929 . S
C657 C655 1.433 . S
C657 N660 1.384 . S
C658 H649 0.929 . S
C658 C650 1.378 . S
C658 C653 1.350 . S
C659 H646 0.929 . S
C659 C651 1.433 . S
C659 N661 1.384 . S
N660 C656 1.427 . S
N660 C657 1.384 . S
N661 C653 1.427 . S
N661 C659 1.384 . S
H662 C668 0.930 . S
H663 C672 0.930 . S
H664 C677 0.929 . S
H665 C675 0.929 . S
H666 C670 0.929 . S
H667 C676 0.929 . S
C668 H662 0.930 . S
C668 C669 1.367 . S
C668 C676 1.378 . S
C669 C668 1.367 . S
C669 C677 1.433 . S
C670 H666 0.929 . S
C670 C672 1.378 . S
C670 C674 1.350 . S
C671 C674 1.463 1_556 S
C671 C676 1.350 . S
C671 N679 1.427 1_556 S
C672 H663 0.930 . S
C672 C670 1.378 . S
C672 C673 1.367 . S
C673 C672 1.367 . S
C673 C675 1.433 . S
C674 C670 1.350 . S
C674 C671 1.463 1_554 S
C674 N678 1.427 . S
C675 H665 0.929 . S
C675 C673 1.433 . S
C675 N678 1.384 . S
C676 H667 0.929 . S
C676 C668 1.378 . S
C676 C671 1.350 . S
C677 H664 0.929 . S
C677 C669 1.433 . S
C677 N679 1.384 1_556 S
N678 C674 1.427 . S
N678 C675 1.384 . S
N679 C671 1.427 1_554 S
N679 C677 1.384 1_554 S
H680 C686 0.930 . S
H681 C690 0.930 . S
H682 C695 0.929 . S
H683 C693 0.929 . S
H684 C688 0.929 . S
H685 C694 0.929 . S
C686 H680 0.930 . S
C686 C687 1.367 . S
C686 C694 1.378 . S
C687 C686 1.367 . S
C687 C695 1.433 . S
C688 H684 0.929 . S
C688 C690 1.378 . S
C688 C692 1.350 . S
C689 C692 1.463 . S
C689 C694 1.350 . S
C689 N697 1.427 . S
C690 H681 0.930 . S
C690 C688 1.378 . S
C690 C691 1.367 . S
C691 C690 1.367 . S
C691 C693 1.433 . S
C692 C688 1.350 . S
C692 C689 1.463 . S
C692 N696 1.427 . S
C693 H683 0.929 . S
C693 C691 1.433 . S
C693 N696 1.384 . S
C694 H685 0.929 . S
C694 C686 1.378 . S
C694 C689 1.350 . S
C695 H682 0.929 . S
C695 C687 1.433 . S
C695 N697 1.384 . S
N696 C692 1.427 . S
N696 C693 1.384 . S
N697 C689 1.427 . S
N697 C695 1.384 . S
H698 C704 0.930 . S
H699 C708 0.930 . S
H700 C713 0.929 . S
H701 C711 0.929 . S
H702 C706 0.929 . S
H703 C712 0.929 . S
C704 H698 0.930 . S
C704 C705 1.367 . S
C704 C712 1.378 . S
C705 C704 1.367 . S
C705 C713 1.433 . S
C706 H702 0.929 . S
C706 C708 1.378 . S
C706 C710 1.350 . S
C707 C710 1.463 . S
C707 C712 1.350 . S
C707 N715 1.427 . S
C708 H699 0.930 . S
C708 C706 1.378 . S
C708 C709 1.367 . S
C709 C708 1.367 . S
C709 C711 1.433 . S
C710 C706 1.350 . S
C710 C707 1.463 . S
C710 N714 1.427 . S
C711 H701 0.929 . S
C711 C709 1.433 . S
C711 N714 1.384 . S
C712 H703 0.929 . S
C712 C704 1.378 . S
C712 C707 1.350 . S
C713 H700 0.929 . S
C713 C705 1.433 . S
C713 N715 1.384 . S
N714 C710 1.427 . S
N714 C711 1.384 . S
N715 C707 1.427 . S
N715 C713 1.384 . S
H716 C722 0.930 . S
H717 C726 0.930 . S
H718 C731 0.929 . S
H719 C729 0.929 . S
H720 C724 0.929 . S
H721 C730 0.929 . S
C722 H716 0.930 . S
C722 C723 1.367 . S
C722 C730 1.378 . S
C723 C722 1.367 . S
C723 C731 1.433 . S
C724 H720 0.929 . S
C724 C726 1.378 . S
C724 C728 1.350 . S
C725 C728 1.463 . S
C725 C730 1.350 . S
C725 N733 1.427 . S
C726 H717 0.930 . S
C726 C724 1.378 . S
C726 C727 1.367 . S
C727 C726 1.367 . S
C727 C729 1.433 . S
C728 C724 1.350 . S
C728 C725 1.463 . S
C728 N732 1.427 . S
C729 H719 0.929 . S
C729 C727 1.433 . S
C729 N732 1.384 . S
C730 H721 0.929 . S
C730 C722 1.378 . S
C730 C725 1.350 . S
C731 H718 0.929 . S
C731 C723 1.433 . S
C731 N733 1.384 . S
N732 C728 1.427 . S
N732 C729 1.384 . S
N733 C725 1.427 . S
N733 C731 1.384 . S
H734 C740 0.930 . S
H735 C744 0.930 . S
H736 C749 0.929 . S
H737 C747 0.929 . S
H738 C742 0.929 . S
H739 C748 0.929 . S
C740 H734 0.930 . S
C740 C741 1.367 . S
C740 C748 1.378 . S
C741 C740 1.367 . S
C741 C749 1.433 . S
C742 H738 0.929 . S
C742 C744 1.378 . S
C742 C746 1.350 . S
C743 C746 1.463 . S
C743 C748 1.350 . S
C743 N751 1.427 . S
C744 H735 0.930 . S
C744 C742 1.378 . S
C744 C745 1.367 . S
C745 C744 1.367 . S
C745 C747 1.433 . S
C746 C742 1.350 . S
C746 C743 1.463 . S
C746 N750 1.427 . S
C747 H737 0.929 . S
C747 C745 1.433 . S
C747 N750 1.384 . S
C748 H739 0.929 . S
C748 C740 1.378 . S
C748 C743 1.350 . S
C749 H736 0.929 . S
C749 C741 1.433 . S
C749 N751 1.384 . S
N750 C746 1.427 . S
N750 C747 1.384 . S
N751 C743 1.427 . S
N751 C749 1.384 . S
H752 C758 0.930 . S
H753 C762 0.930 . S
H754 C767 0.929 . S
H755 C765 0.929 . S
H756 C760 0.929 . S
H757 C766 0.929 1_554 S
C758 H752 0.930 . S
C758 C759 1.367 . S
C758 C766 1.378 . S
C759 C758 1.367 . S
C759 C767 1.433 . S
C760 H756 0.929 . S
C760 C762 1.378 1_556 S
C760 C764 1.350 1_556 S
C761 C764 1.463 1_556 S
C761 C766 1.350 . S
C761 N769 1.427 . S
C762 H753 0.930 . S
C762 C760 1.378 1_554 S
C762 C763 1.367 . S
C763 C762 1.367 . S
C763 C765 1.433 . S
C764 C760 1.350 1_554 S
C764 C761 1.463 1_554 S
C764 N768 1.427 . S
C765 H755 0.929 . S
C765 C763 1.433 . S
C765 N768 1.384 . S
C766 H757 0.929 1_556 S
C766 C758 1.378 . S
C766 C761 1.350 . S
C767 H754 0.929 . S
C767 C759 1.433 . S
C767 N769 1.384 . S
N768 C764 1.427 . S
N768 C765 1.384 . S
N769 C761 1.427 . S
N769 C767 1.384 . S
H770 C776 0.930 . S
H771 C780 0.930 . S
H772 C785 0.929 . S
H773 C783 0.929 . S
H774 C778 0.929 1_554 S
H775 C784 0.929 1_556 S
C776 H770 0.930 . S
C776 C777 1.367 . S
C776 C784 1.378 . S
C777 C776 1.367 . S
C777 C785 1.433 . S
C778 H774 0.929 1_556 S
C778 C780 1.378 . S
C778 C782 1.350 . S
C779 C782 1.463 1_554 S
C779 C784 1.350 . S
C779 N787 1.427 . S
C780 H771 0.930 . S
C780 C778 1.378 . S
C780 C781 1.367 . S
C781 C780 1.367 . S
C781 C783 1.433 . S
C782 C778 1.350 . S
C782 C779 1.463 1_556 S
C782 N786 1.427 . S
C783 H773 0.929 . S
C783 C781 1.433 . S
C783 N786 1.384 . S
C784 H775 0.929 1_554 S
C784 C776 1.378 . S
C784 C779 1.350 . S
C785 H772 0.929 . S
C785 C777 1.433 . S
C785 N787 1.384 . S
N786 C782 1.427 . S
N786 C783 1.384 . S
N787 C779 1.427 . S
N787 C785 1.384 . S
H788 C794 0.930 . S
H789 C798 0.930 . S
H790 C803 0.929 . S
H791 C801 0.929 . S
H792 C796 0.929 . S
H793 C802 0.929 . S
C794 H788 0.930 . S
C794 C795 1.367 . S
C794 C802 1.378 . S
C795 C794 1.367 . S
C795 C803 1.433 . S
C796 H792 0.929 . S
C796 C798 1.378 . S
C796 C800 1.350 . S
C797 C800 1.463 1_556 S
C797 C802 1.350 . S
C797 N805 1.427 . S
C798 H789 0.930 . S
C798 C796 1.378 . S
C798 C799 1.367 . S
C799 C798 1.367 . S
C799 C801 1.433 . S
C800 C796 1.350 . S
C800 C797 1.463 1_554 S
C800 N804 1.427 . S
C801 H791 0.929 . S
C801 C799 1.433 . S
C801 N804 1.384 . S
C802 H793 0.929 . S
C802 C794 1.378 . S
C802 C797 1.350 . S
C803 H790 0.929 . S
C803 C795 1.433 . S
C803 N805 1.384 . S
N804 C800 1.427 . S
N804 C801 1.384 . S
N805 C797 1.427 . S
N805 C803 1.384 . S
H806 C812 0.930 . S
H807 C816 0.930 . S
H808 C821 0.929 . S
H809 C819 0.929 . S
H810 C814 0.929 1_554 S
H811 C820 0.929 . S
C812 H806 0.930 . S
C812 C813 1.367 . S
C812 C820 1.378 1_554 S
C813 C812 1.367 . S
C813 C821 1.433 . S
C814 H810 0.929 1_556 S
C814 C816 1.378 . S
C814 C818 1.350 . S
C815 C818 1.463 1_554 S
C815 C820 1.350 1_554 S
C815 N823 1.427 . S
C816 H807 0.930 . S
C816 C814 1.378 . S
C816 C817 1.367 . S
C817 C816 1.367 . S
C817 C819 1.433 . S
C818 C814 1.350 . S
C818 C815 1.463 1_556 S
C818 N822 1.427 . S
C819 H809 0.929 . S
C819 C817 1.433 . S
C819 N822 1.384 . S
C820 H811 0.929 . S
C820 C812 1.378 1_556 S
C820 C815 1.350 1_556 S
C821 H808 0.929 . S
C821 C813 1.433 . S
C821 N823 1.384 . S
N822 C818 1.427 . S
N822 C819 1.384 . S
N823 C815 1.427 . S
N823 C821 1.384 . S
H824 C830 0.930 . S
H825 C834 0.930 . S
H826 C839 0.929 . S
H827 C837 0.929 . S
H828 C832 0.929 . S
H829 C838 0.929 . S
C830 H824 0.930 . S
C830 C831 1.367 . S
C830 C838 1.378 . S
C831 C830 1.367 . S
C831 C839 1.433 . S
C832 H828 0.929 . S
C832 C834 1.378 . S
C832 C836 1.350 . S
C833 C836 1.463 . S
C833 C838 1.350 . S
C833 N841 1.427 . S
C834 H825 0.930 . S
C834 C832 1.378 . S
C834 C835 1.367 . S
C835 C834 1.367 . S
C835 C837 1.433 . S
C836 C832 1.350 . S
C836 C833 1.463 . S
C836 N840 1.427 . S
C837 H827 0.929 . S
C837 C835 1.433 . S
C837 N840 1.384 . S
C838 H829 0.929 . S
C838 C830 1.378 . S
C838 C833 1.350 . S
C839 H826 0.929 . S
C839 C831 1.433 . S
C839 N841 1.384 . S
N840 C836 1.427 . S
N840 C837 1.384 . S
N841 C833 1.427 . S
N841 C839 1.384 . S
H842 C848 0.930 . S
H843 C852 0.930 . S
H844 C857 0.929 . S
H845 C855 0.929 . S
H846 C850 0.929 . S
H847 C856 0.929 . S
C848 H842 0.930 . S
C848 C849 1.367 . S
C848 C856 1.378 . S
C849 C848 1.367 . S
C849 C857 1.433 . S
C850 H846 0.929 . S
C850 C852 1.378 . S
C850 C854 1.350 . S
C851 C854 1.463 . S
C851 C856 1.350 . S
C851 N859 1.427 . S
C852 H843 0.930 . S
C852 C850 1.378 . S
C852 C853 1.367 . S
C853 C852 1.367 . S
C853 C855 1.433 . S
C854 C850 1.350 . S
C854 C851 1.463 . S
C854 N858 1.427 . S
C855 H845 0.929 . S
C855 C853 1.433 . S
C855 N858 1.384 . S
C856 H847 0.929 . S
C856 C848 1.378 . S
C856 C851 1.350 . S
C857 H844 0.929 . S
C857 C849 1.433 . S
C857 N859 1.384 . S
N858 C854 1.427 . S
N858 C855 1.384 . S
N859 C851 1.427 . S
N859 C857 1.384 . S
H860 C866 0.930 . S
H861 C870 0.930 . S
H862 C875 0.929 . S
H863 C873 0.929 . S
H864 C868 0.929 . S
H865 C874 0.929 . S
C866 H860 0.930 . S
C866 C867 1.367 . S
C866 C874 1.378 . S
C867 C866 1.367 . S
C867 C875 1.433 . S
C868 H864 0.929 . S
C868 C870 1.378 . S
C868 C872 1.350 . S
C869 C872 1.463 . S
C869 C874 1.350 . S
C869 N877 1.427 . S
C870 H861 0.930 . S
C870 C868 1.378 . S
C870 C871 1.367 . S
C871 C870 1.367 . S
C871 C873 1.433 . S
C872 C868 1.350 . S
C872 C869 1.463 . S
C872 N876 1.427 . S
C873 H863 0.929 . S
C873 C871 1.433 . S
C873 N876 1.384 . S
C874 H865 0.929 . S
C874 C866 1.378 . S
C874 C869 1.350 . S
C875 H862 0.929 . S
C875 C867 1.433 . S
C875 N877 1.384 . S
N876 C872 1.427 . S
N876 C873 1.384 . S
N877 C869 1.427 . S
N877 C875 1.384 . S
H878 C884 0.930 . S
H879 C888 0.930 . S
H880 C893 0.929 . S
H881 C891 0.929 . S
H882 C886 0.929 . S
H883 C892 0.929 . S
C884 H878 0.930 . S
C884 C885 1.367 . S
C884 C892 1.378 . S
C885 C884 1.367 . S
C885 C893 1.433 . S
C886 H882 0.929 . S
C886 C888 1.378 . S
C886 C890 1.350 . S
C887 C890 1.463 . S
C887 C892 1.350 . S
C887 N895 1.427 . S
C888 H879 0.930 . S
C888 C886 1.378 . S
C888 C889 1.367 . S
C889 C888 1.367 . S
C889 C891 1.433 . S
C890 C886 1.350 . S
C890 C887 1.463 . S
C890 N894 1.427 . S
C891 H881 0.929 . S
C891 C889 1.433 . S
C891 N894 1.384 . S
C892 H883 0.929 . S
C892 C884 1.378 . S
C892 C887 1.350 . S
C893 H880 0.929 . S
C893 C885 1.433 . S
C893 N895 1.384 . S
N894 C890 1.427 . S
N894 C891 1.384 . S
N895 C887 1.427 . S
N895 C893 1.384 . S
H896 C902 0.930 . S
H897 C906 0.930 . S
H898 C911 0.929 . S
H899 C909 0.929 . S
H900 C904 0.929 . S
H901 C910 0.929 . S
C902 H896 0.930 . S
C902 C903 1.367 . S
C902 C910 1.378 . S
C903 C902 1.367 . S
C903 C911 1.433 . S
C904 H900 0.929 . S
C904 C906 1.378 . S
C904 C908 1.350 . S
C905 C908 1.463 . S
C905 C910 1.350 . S
C905 N913 1.427 . S
C906 H897 0.930 . S
C906 C904 1.378 . S
C906 C907 1.367 . S
C907 C906 1.367 . S
C907 C909 1.433 . S
C908 C904 1.350 . S
C908 C905 1.463 . S
C908 N912 1.427 . S
C909 H899 0.929 . S
C909 C907 1.433 . S
C909 N912 1.384 . S
C910 H901 0.929 . S
C910 C902 1.378 . S
C910 C905 1.350 . S
C911 H898 0.929 . S
C911 C903 1.433 . S
C911 N913 1.384 . S
N912 C908 1.427 . S
N912 C909 1.384 . S
N913 C905 1.427 . S
N913 C911 1.384 . S
H914 C920 0.930 . S
H915 C924 0.930 . S
H916 C929 0.929 . S
H917 C927 0.929 . S
H918 C922 0.929 . S
H919 C928 0.929 . S
C920 H914 0.930 . S
C920 C921 1.367 . S
C920 C928 1.378 . S
C921 C920 1.367 . S
C921 C929 1.433 . S
C922 H918 0.929 . S
C922 C924 1.378 . S
C922 C926 1.350 . S
C923 C926 1.463 . S
C923 C928 1.350 . S
C923 N931 1.427 . S
C924 H915 0.930 . S
C924 C922 1.378 . S
C924 C925 1.367 . S
C925 C924 1.367 . S
C925 C927 1.433 . S
C926 C922 1.350 . S
C926 C923 1.463 . S
C926 N930 1.427 . S
C927 H917 0.929 . S
C927 C925 1.433 . S
C927 N930 1.384 . S
C928 H919 0.929 . S
C928 C920 1.378 . S
C928 C923 1.350 . S
C929 H916 0.929 . S
C929 C921 1.433 . S
C929 N931 1.384 . S
N930 C926 1.427 . S
N930 C927 1.384 . S
N931 C923 1.427 . S
N931 C929 1.384 . S
H932 C938 0.930 . S
H933 C942 0.930 . S
H934 C947 0.929 . S
H935 C945 0.929 . S
H936 C940 0.929 . S
H937 C946 0.929 . S
C938 H932 0.930 . S
C938 C939 1.367 . S
C938 C946 1.378 . S
C939 C938 1.367 . S
C939 C947 1.433 . S
C940 H936 0.929 . S
C940 C942 1.378 . S
C940 C944 1.350 . S
C941 C944 1.463 . S
C941 C946 1.350 . S
C941 N949 1.427 . S
C942 H933 0.930 . S
C942 C940 1.378 . S
C942 C943 1.367 . S
C943 C942 1.367 . S
C943 C945 1.433 . S
C944 C940 1.350 . S
C944 C941 1.463 . S
C944 N948 1.427 . S
C945 H935 0.929 . S
C945 C943 1.433 . S
C945 N948 1.384 . S
C946 H937 0.929 . S
C946 C938 1.378 . S
C946 C941 1.350 . S
C947 H934 0.929 . S
C947 C939 1.433 . S
C947 N949 1.384 . S
N948 C944 1.427 . S
N948 C945 1.384 . S
N949 C941 1.427 . S
N949 C947 1.384 . S
H950 C956 0.930 . S
H951 C960 0.930 . S
H952 C965 0.929 . S
H953 C963 0.929 . S
H954 C958 0.929 . S
H955 C964 0.929 . S
C956 H950 0.930 . S
C956 C957 1.367 . S
C956 C964 1.378 . S
C957 C956 1.367 . S
C957 C965 1.433 . S
C958 H954 0.929 . S
C958 C960 1.378 . S
C958 C962 1.350 . S
C959 C962 1.463 . S
C959 C964 1.350 . S
C959 N967 1.427 . S
C960 H951 0.930 . S
C960 C958 1.378 . S
C960 C961 1.367 . S
C961 C960 1.367 . S
C961 C963 1.433 . S
C962 C958 1.350 . S
C962 C959 1.463 . S
C962 N966 1.427 . S
C963 H953 0.929 . S
C963 C961 1.433 . S
C963 N966 1.384 . S
C964 H955 0.929 . S
C964 C956 1.378 . S
C964 C959 1.350 . S
C965 H952 0.929 . S
C965 C957 1.433 . S
C965 N967 1.384 . S
N966 C962 1.427 . S
N966 C963 1.384 . S
N967 C959 1.427 . S
N967 C965 1.384 . S
H968 C974 0.930 . S
H969 C978 0.930 . S
H970 C983 0.929 . S
H971 C981 0.929 . S
H972 C976 0.929 . S
H973 C982 0.929 . S
C974 H968 0.930 . S
C974 C975 1.367 . S
C974 C982 1.378 . S
C975 C974 1.367 . S
C975 C983 1.433 . S
C976 H972 0.929 . S
C976 C978 1.378 . S
C976 C980 1.350 . S
C977 C980 1.463 . S
C977 C982 1.350 . S
C977 N985 1.427 . S
C978 H969 0.930 . S
C978 C976 1.378 . S
C978 C979 1.367 . S
C979 C978 1.367 . S
C979 C981 1.433 . S
C980 C976 1.350 . S
C980 C977 1.463 . S
C980 N984 1.427 . S
C981 H971 0.929 . S
C981 C979 1.433 . S
C981 N984 1.384 . S
C982 H973 0.929 . S
C982 C974 1.378 . S
C982 C977 1.350 . S
C983 H970 0.929 . S
C983 C975 1.433 . S
C983 N985 1.384 . S
N984 C980 1.427 . S
N984 C981 1.384 . S
N985 C977 1.427 . S
N985 C983 1.384 . S
H986 C992 0.930 . S
H987 C996 0.930 . S
H988 C1001 0.929 . S
H989 C999 0.929 . S
H990 C994 0.929 . S
H991 C1000 0.929 . S
C992 H986 0.930 . S
C992 C993 1.367 . S
C992 C1000 1.378 . S
C993 C992 1.367 . S
C993 C1001 1.433 . S
C994 H990 0.929 . S
C994 C996 1.378 . S
C994 C998 1.350 . S
C995 C998 1.463 . S
C995 C1000 1.350 . S
C995 N1003 1.427 . S
C996 H987 0.930 . S
C996 C994 1.378 . S
C996 C997 1.367 . S
C997 C996 1.367 . S
C997 C999 1.433 . S
C998 C994 1.350 . S
C998 C995 1.463 . S
C998 N1002 1.427 . S
C999 H989 0.929 . S
C999 C997 1.433 . S
C999 N1002 1.384 . S
C1000 H991 0.929 . S
C1000 C992 1.378 . S
C1000 C995 1.350 . S
C1001 H988 0.929 . S
C1001 C993 1.433 . S
C1001 N1003 1.384 . S
N1002 C998 1.427 . S
N1002 C999 1.384 . S
N1003 C995 1.427 . S
N1003 C1001 1.384 . S
H1004 C1010 0.930 . S
H1005 C1014 0.930 . S
H1006 C1019 0.929 . S
H1007 C1017 0.929 . S
H1008 C1012 0.929 . S
H1009 C1018 0.929 . S
C1010 H1004 0.930 . S
C1010 C1011 1.367 . S
C1010 C1018 1.378 . S
C1011 C1010 1.367 . S
C1011 C1019 1.433 . S
C1012 H1008 0.929 . S
C1012 C1014 1.378 . S
C1012 C1016 1.350 . S
C1013 C1016 1.463 . S
C1013 C1018 1.350 . S
C1013 N1021 1.427 . S
C1014 H1005 0.930 . S
C1014 C1012 1.378 . S
C1014 C1015 1.367 . S
C1015 C1014 1.367 . S
C1015 C1017 1.433 . S
C1016 C1012 1.350 . S
C1016 C1013 1.463 . S
C1016 N1020 1.427 . S
C1017 H1007 0.929 . S
C1017 C1015 1.433 . S
C1017 N1020 1.384 . S
C1018 H1009 0.929 . S
C1018 C1010 1.378 . S
C1018 C1013 1.350 . S
C1019 H1006 0.929 . S
C1019 C1011 1.433 . S
C1019 N1021 1.384 . S
N1020 C1016 1.427 . S
N1020 C1017 1.384 . S
N1021 C1013 1.427 . S
N1021 C1019 1.384 . S
H1022 C1028 0.930 . S
H1023 C1032 0.930 . S
H1024 C1037 0.929 . S
H1025 C1035 0.929 . S
H1026 C1030 0.929 . S
H1027 C1036 0.929 . S
C1028 H1022 0.930 . S
C1028 C1029 1.367 . S
C1028 C1036 1.378 . S
C1029 C1028 1.367 . S
C1029 C1037 1.433 . S
C1030 H1026 0.929 . S
C1030 C1032 1.378 . S
C1030 C1034 1.350 . S
C1031 C1034 1.463 . S
C1031 C1036 1.350 . S
C1031 N1039 1.427 . S
C1032 H1023 0.930 . S
C1032 C1030 1.378 . S
C1032 C1033 1.367 . S
C1033 C1032 1.367 . S
C1033 C1035 1.433 . S
C1034 C1030 1.350 . S
C1034 C1031 1.463 . S
C1034 N1038 1.427 . S
C1035 H1025 0.929 . S
C1035 C1033 1.433 . S
C1035 N1038 1.384 . S
C1036 H1027 0.929 . S
C1036 C1028 1.378 . S
C1036 C1031 1.350 . S
C1037 H1024 0.929 . S
C1037 C1029 1.433 . S
C1037 N1039 1.384 . S
N1038 C1034 1.427 . S
N1038 C1035 1.384 . S
N1039 C1031 1.427 . S
N1039 C1037 1.384 . S
H1040 C1046 0.930 . S
H1041 C1050 0.930 . S
H1042 C1055 0.929 . S
H1043 C1053 0.929 . S
H1044 C1048 0.929 1_556 S
H1045 C1054 0.929 1_554 S
C1046 H1040 0.930 . S
C1046 C1047 1.367 1_545 S
C1046 C1054 1.378 . S
C1047 C1046 1.367 1_565 S
C1047 C1055 1.433 . S
C1048 H1044 0.929 1_554 S
C1048 C1050 1.378 . S
C1048 C1052 1.337 1_565 S
C1049 C1052 1.461 1_566 S
C1049 C1054 1.337 1_565 S
C1049 N1057 1.443 . S
C1050 H1041 0.930 . S
C1050 C1048 1.378 . S
C1050 C1051 1.367 1_565 S
C1051 C1050 1.367 1_545 S
C1051 C1053 1.433 . S
C1052 C1048 1.337 1_545 S
C1052 C1049 1.461 1_544 S
C1052 N1056 1.443 . S
C1053 H1043 0.929 . S
C1053 C1051 1.433 . S
C1053 N1056 1.384 . S
C1054 H1045 0.929 1_556 S
C1054 C1046 1.378 . S
C1054 C1049 1.337 1_545 S
C1055 H1042 0.929 . S
C1055 C1047 1.433 . S
C1055 N1057 1.384 . S
N1056 C1052 1.443 . S
N1056 C1053 1.384 . S
N1057 C1049 1.443 . S
N1057 C1055 1.384 . S
H1058 C1064 0.930 . S
H1059 C1068 0.930 . S
H1060 C1073 0.929 . S
H1061 C1071 0.929 . S
H1062 C1066 0.929 . S
H1063 C1072 0.929 . S
C1064 H1058 0.930 . S
C1064 C1065 1.367 . S
C1064 C1072 1.378 . S
C1065 C1064 1.367 . S
C1065 C1073 1.433 . S
C1066 H1062 0.929 . S
C1066 C1068 1.378 . S
C1066 C1070 1.350 . S
C1067 C1070 1.463 1_556 S
C1067 C1072 1.350 . S
C1067 N1075 1.427 . S
C1068 H1059 0.930 . S
C1068 C1066 1.378 . S
C1068 C1069 1.367 . S
C1069 C1068 1.367 . S
C1069 C1071 1.433 . S
C1070 C1066 1.350 . S
C1070 C1067 1.463 1_554 S
C1070 N1074 1.427 . S
C1071 H1061 0.929 . S
C1071 C1069 1.433 . S
C1071 N1074 1.384 . S
C1072 H1063 0.929 . S
C1072 C1064 1.378 . S
C1072 C1067 1.350 . S
C1073 H1060 0.929 . S
C1073 C1065 1.433 . S
C1073 N1075 1.384 . S
N1074 C1070 1.427 . S
N1074 C1071 1.384 . S
N1075 C1067 1.427 . S
N1075 C1073 1.384 . S
H1076 C1082 0.930 . S
H1077 C1086 0.930 . S
H1078 C1091 0.929 . S
H1079 C1089 0.929 . S
H1080 C1084 0.929 1_556 S
H1081 C1090 0.929 1_554 S
C1082 H1076 0.930 . S
C1082 C1083 1.367 . S
C1082 C1090 1.378 . S
C1083 C1082 1.367 . S
C1083 C1091 1.433 . S
C1084 H1080 0.929 1_554 S
C1084 C1086 1.378 . S
C1084 C1088 1.350 . S
C1085 C1088 1.463 1_456 S
C1085 C1090 1.350 . S
C1085 N1093 1.427 . S
C1086 H1077 0.930 . S
C1086 C1084 1.378 . S
C1086 C1087 1.367 . S
C1087 C1086 1.367 . S
C1087 C1089 1.433 . S
C1088 C1084 1.350 . S
C1088 C1085 1.463 1_654 S
C1088 N1092 1.427 . S
C1089 H1079 0.929 . S
C1089 C1087 1.433 . S
C1089 N1092 1.384 . S
C1090 H1081 0.929 1_556 S
C1090 C1082 1.378 . S
C1090 C1085 1.350 . S
C1091 H1078 0.929 . S
C1091 C1083 1.433 . S
C1091 N1093 1.384 . S
N1092 C1088 1.427 . S
N1092 C1089 1.384 . S
N1093 C1085 1.427 . S
N1093 C1091 1.384 . S
H1094 C1100 0.930 . S
H1095 C1104 0.930 . S
H1096 C1109 0.929 . S
H1097 C1107 0.929 . S
H1098 C1102 0.929 1_545 S
H1099 C1108 0.929 1_565 S
C1100 H1094 0.930 . S
C1100 C1101 1.367 . S
C1100 C1108 1.378 . S
C1101 C1100 1.367 . S
C1101 C1109 1.433 1_655 S
C1102 H1098 0.929 1_565 S
C1102 C1104 1.378 . S
C1102 C1106 1.350 . S
C1103 C1106 1.463 1_646 S
C1103 C1108 1.350 . S
C1103 N1111 1.427 1_655 S
C1104 H1095 0.930 . S
C1104 C1102 1.378 . S
C1104 C1105 1.367 . S
C1105 C1104 1.367 . S
C1105 C1107 1.433 1_455 S
C1106 C1102 1.350 . S
C1106 C1103 1.463 1_464 S
C1106 N1110 1.427 1_455 S
C1107 H1097 0.929 . S
C1107 C1105 1.433 1_655 S
C1107 N1110 1.384 . S
C1108 H1099 0.929 1_545 S
C1108 C1100 1.378 . S
C1108 C1103 1.350 . S
C1109 H1096 0.929 . S
C1109 C1101 1.433 1_455 S
C1109 N1111 1.384 . S
N1110 C1106 1.427 1_655 S
N1110 C1107 1.384 . S
N1111 C1103 1.427 1_455 S
N1111 C1109 1.384 . S
H1112 C1118 0.930 . S
H1113 C1122 0.930 . S
H1114 C1127 0.929 . S
H1115 C1125 0.929 . S
H1116 C1120 0.929 . S
H1117 C1126 0.929 . S
C1118 H1112 0.930 . S
C1118 C1119 1.367 . S
C1118 C1126 1.378 . S
C1119 C1118 1.367 . S
C1119 C1127 1.433 . S
C1120 H1116 0.929 . S
C1120 C1122 1.378 . S
C1120 C1124 1.350 . S
C1121 C1124 1.463 . S
C1121 C1126 1.350 . S
C1121 N1129 1.427 . S
C1122 H1113 0.930 . S
C1122 C1120 1.378 . S
C1122 C1123 1.367 . S
C1123 C1122 1.367 . S
C1123 C1125 1.433 . S
C1124 C1120 1.350 . S
C1124 C1121 1.463 . S
C1124 N1128 1.427 . S
C1125 H1115 0.929 . S
C1125 C1123 1.433 . S
C1125 N1128 1.384 . S
C1126 H1117 0.929 . S
C1126 C1118 1.378 . S
C1126 C1121 1.350 . S
C1127 H1114 0.929 . S
C1127 C1119 1.433 . S
C1127 N1129 1.384 . S
N1128 C1124 1.427 . S
N1128 C1125 1.384 . S
N1129 C1121 1.427 . S
N1129 C1127 1.384 . S
H1130 C1136 0.930 . S
H1131 C1140 0.930 . S
H1132 C1145 0.929 . S
H1133 C1143 0.929 . S
H1134 C1138 0.929 . S
H1135 C1144 0.929 . S
C1136 H1130 0.930 . S
C1136 C1137 1.367 1_655 S
C1136 C1144 1.378 . S
C1137 C1136 1.367 1_455 S
C1137 C1145 1.433 . S
C1138 H1134 0.929 . S
C1138 C1140 1.378 . S
C1138 C1142 1.337 1_455 S
C1139 C1142 1.461 1_455 S
C1139 C1144 1.337 1_455 S
C1139 N1147 1.443 . S
C1140 H1131 0.930 . S
C1140 C1138 1.378 . S
C1140 C1141 1.367 1_455 S
C1141 C1140 1.367 1_655 S
C1141 C1143 1.433 . S
C1142 C1138 1.337 1_655 S
C1142 C1139 1.461 1_655 S
C1142 N1146 1.443 . S
C1143 H1133 0.929 . S
C1143 C1141 1.433 . S
C1143 N1146 1.384 . S
C1144 H1135 0.929 . S
C1144 C1136 1.378 . S
C1144 C1139 1.337 1_655 S
C1145 H1132 0.929 . S
C1145 C1137 1.433 . S
C1145 N1147 1.384 . S
N1146 C1142 1.443 . S
N1146 C1143 1.384 . S
N1147 C1139 1.443 . S
N1147 C1145 1.384 . S
H1148 C1154 0.930 . S
H1149 C1158 0.930 . S
H1150 C1163 0.929 . S
H1151 C1161 0.929 . S
H1152 C1156 0.953 . S
H1153 C1162 0.953 . S
C1154 H1148 0.930 . S
C1154 C1155 1.367 1_565 S
C1154 C1162 1.378 . S
C1155 C1154 1.367 1_545 S
C1155 C1163 1.433 . S
C1156 H1152 0.953 . S
C1156 C1158 1.378 . S
C1156 C1160 1.338 1_545 S
C1157 C1160 1.462 1_645 S
C1157 C1162 1.338 1_545 S
C1157 N1165 1.441 . S
C1158 H1149 0.930 . S
C1158 C1156 1.378 . S
C1158 C1159 1.367 1_545 S
C1159 C1158 1.367 1_565 S
C1159 C1161 1.433 . S
C1160 C1156 1.338 1_565 S
C1160 C1157 1.462 1_465 S
C1160 N1164 1.441 . S
C1161 H1151 0.929 . S
C1161 C1159 1.433 . S
C1161 N1164 1.384 . S
C1162 H1153 0.953 . S
C1162 C1154 1.378 . S
C1162 C1157 1.338 1_565 S
C1163 H1150 0.929 . S
C1163 C1155 1.433 . S
C1163 N1165 1.384 . S
N1164 C1160 1.441 . S
N1164 C1161 1.384 . S
N1165 C1157 1.441 . S
N1165 C1163 1.384 . S
H1166 C1172 0.930 . S
H1167 C1176 0.930 . S
H1168 C1181 0.929 . S
H1169 C1179 0.929 . S
H1170 C1174 0.929 . S
H1171 C1180 0.929 . S
C1172 H1166 0.930 . S
C1172 C1173 1.367 . S
C1172 C1180 1.378 . S
C1173 C1172 1.367 . S
C1173 C1181 1.433 . S
C1174 H1170 0.929 . S
C1174 C1176 1.378 . S
C1174 C1178 1.350 . S
C1175 C1178 1.463 1_565 S
C1175 C1180 1.350 . S
C1175 N1183 1.427 . S
C1176 H1167 0.930 . S
C1176 C1174 1.378 . S
C1176 C1177 1.367 . S
C1177 C1176 1.367 . S
C1177 C1179 1.433 . S
C1178 C1174 1.350 . S
C1178 C1175 1.463 1_545 S
C1178 N1182 1.427 . S
C1179 H1169 0.929 . S
C1179 C1177 1.433 . S
C1179 N1182 1.384 . S
C1180 H1171 0.929 . S
C1180 C1172 1.378 . S
C1180 C1175 1.350 . S
C1181 H1168 0.929 . S
C1181 C1173 1.433 . S
C1181 N1183 1.384 . S
N1182 C1178 1.427 . S
N1182 C1179 1.384 . S
N1183 C1175 1.427 . S
N1183 C1181 1.384 . S
H1184 C1190 0.930 . S
H1185 C1194 0.930 . S
H1186 C1199 0.929 . S
H1187 C1197 0.929 . S
H1188 C1192 0.929 . S
H1189 C1198 0.929 . S
C1190 H1184 0.930 . S
C1190 C1191 1.367 . S
C1190 C1198 1.378 . S
C1191 C1190 1.367 . S
C1191 C1199 1.433 . S
C1192 H1188 0.929 . S
C1192 C1194 1.378 . S
C1192 C1196 1.350 . S
C1193 C1196 1.463 . S
C1193 C1198 1.350 . S
C1193 N1201 1.427 . S
C1194 H1185 0.930 . S
C1194 C1192 1.378 . S
C1194 C1195 1.367 . S
C1195 C1194 1.367 . S
C1195 C1197 1.433 . S
C1196 C1192 1.350 . S
C1196 C1193 1.463 . S
C1196 N1200 1.427 . S
C1197 H1187 0.929 . S
C1197 C1195 1.433 . S
C1197 N1200 1.384 . S
C1198 H1189 0.929 . S
C1198 C1190 1.378 . S
C1198 C1193 1.350 . S
C1199 H1186 0.929 . S
C1199 C1191 1.433 . S
C1199 N1201 1.384 . S
N1200 C1196 1.427 . S
N1200 C1197 1.384 . S
N1201 C1193 1.427 . S
N1201 C1199 1.384 . S
H1202 C1208 0.930 . S
H1203 C1212 0.930 . S
H1204 C1217 0.929 . S
H1205 C1215 0.929 . S
H1206 C1210 0.929 . S
H1207 C1216 0.929 . S
C1208 H1202 0.930 . S
C1208 C1209 1.367 . S
C1208 C1216 1.378 . S
C1209 C1208 1.367 . S
C1209 C1217 1.433 . S
C1210 H1206 0.929 . S
C1210 C1212 1.378 . S
C1210 C1214 1.350 . S
C1211 C1214 1.463 . S
C1211 C1216 1.350 . S
C1211 N1219 1.427 . S
C1212 H1203 0.930 . S
C1212 C1210 1.378 . S
C1212 C1213 1.367 . S
C1213 C1212 1.367 . S
C1213 C1215 1.433 . S
C1214 C1210 1.350 . S
C1214 C1211 1.463 . S
C1214 N1218 1.427 . S
C1215 H1205 0.929 . S
C1215 C1213 1.433 . S
C1215 N1218 1.384 . S
C1216 H1207 0.929 . S
C1216 C1208 1.378 . S
C1216 C1211 1.350 . S
C1217 H1204 0.929 . S
C1217 C1209 1.433 . S
C1217 N1219 1.384 . S
N1218 C1214 1.427 . S
N1218 C1215 1.384 . S
N1219 C1211 1.427 . S
N1219 C1217 1.384 . S
H1220 C1226 0.930 1_455 S
H1221 C1230 0.930 . S
H1222 C1235 0.929 . S
H1223 C1233 0.929 . S
H1224 C1228 0.929 . S
H1225 C1234 0.929 . S
C1226 H1220 0.930 1_655 S
C1226 C1227 1.367 . S
C1226 C1234 1.378 . S
C1227 C1226 1.367 . S
C1227 C1235 1.433 . S
C1228 H1224 0.929 . S
C1228 C1230 1.378 . S
C1228 C1232 1.350 . S
C1229 C1232 1.463 . S
C1229 C1234 1.350 . S
C1229 N1237 1.427 . S
C1230 H1221 0.930 . S
C1230 C1228 1.378 . S
C1230 C1231 1.367 . S
C1231 C1230 1.367 . S
C1231 C1233 1.433 . S
C1232 C1228 1.350 . S
C1232 C1229 1.463 . S
C1232 N1236 1.427 . S
C1233 H1223 0.929 . S
C1233 C1231 1.433 . S
C1233 N1236 1.384 . S
C1234 H1225 0.929 . S
C1234 C1226 1.378 . S
C1234 C1229 1.350 . S
C1235 H1222 0.929 . S
C1235 C1227 1.433 . S
C1235 N1237 1.384 . S
N1236 C1232 1.427 . S
N1236 C1233 1.384 . S
N1237 C1229 1.427 . S
N1237 C1235 1.384 . S
H1238 C1244 0.930 . S
H1239 C1248 0.930 . S
H1240 C1253 0.929 1_545 S
H1241 C1251 0.929 . S
H1242 C1246 0.929 . S
H1243 C1252 0.929 . S
C1244 H1238 0.930 . S
C1244 C1245 1.367 . S
C1244 C1252 1.378 . S
C1245 C1244 1.367 . S
C1245 C1253 1.433 . S
C1246 H1242 0.929 . S
C1246 C1248 1.378 . S
C1246 C1250 1.350 . S
C1247 C1250 1.463 . S
C1247 C1252 1.350 . S
C1247 N1255 1.427 . S
C1248 H1239 0.930 . S
C1248 C1246 1.378 . S
C1248 C1249 1.367 . S
C1249 C1248 1.367 . S
C1249 C1251 1.433 . S
C1250 C1246 1.350 . S
C1250 C1247 1.463 . S
C1250 N1254 1.427 . S
C1251 H1241 0.929 . S
C1251 C1249 1.433 . S
C1251 N1254 1.384 . S
C1252 H1243 0.929 . S
C1252 C1244 1.378 . S
C1252 C1247 1.350 . S
C1253 H1240 0.929 1_565 S
C1253 C1245 1.433 . S
C1253 N1255 1.384 . S
N1254 C1250 1.427 . S
N1254 C1251 1.384 . S
N1255 C1247 1.427 . S
N1255 C1253 1.384 . S
H1256 C1262 0.930 . S
H1257 C1266 0.930 . S
H1258 C1271 0.929 . S
H1259 C1269 0.929 . S
H1260 C1264 0.929 . S
H1261 C1270 0.929 . S
C1262 H1256 0.930 . S
C1262 C1263 1.367 . S
C1262 C1270 1.378 . S
C1263 C1262 1.367 . S
C1263 C1271 1.433 . S
C1264 H1260 0.929 . S
C1264 C1266 1.378 . S
C1264 C1268 1.350 . S
C1265 C1268 1.463 . S
C1265 C1270 1.350 . S
C1265 N1273 1.427 . S
C1266 H1257 0.930 . S
C1266 C1264 1.378 . S
C1266 C1267 1.367 . S
C1267 C1266 1.367 . S
C1267 C1269 1.433 . S
C1268 C1264 1.350 . S
C1268 C1265 1.463 . S
C1268 N1272 1.427 . S
C1269 H1259 0.929 . S
C1269 C1267 1.433 . S
C1269 N1272 1.384 . S
C1270 H1261 0.929 . S
C1270 C1262 1.378 . S
C1270 C1265 1.350 . S
C1271 H1258 0.929 . S
C1271 C1263 1.433 . S
C1271 N1273 1.384 . S
N1272 C1268 1.427 . S
N1272 C1269 1.384 . S
N1273 C1265 1.427 . S
N1273 C1271 1.384 . S
H1274 C1280 0.930 . S
H1275 C1284 0.930 . S
H1276 C1289 0.929 . S
H1277 C1287 0.929 . S
H1278 C1282 0.929 . S
H1279 C1288 0.929 . S
C1280 H1274 0.930 . S
C1280 C1281 1.367 . S
C1280 C1288 1.378 . S
C1281 C1280 1.367 . S
C1281 C1289 1.433 . S
C1282 H1278 0.929 . S
C1282 C1284 1.378 . S
C1282 C1286 1.350 . S
C1283 C1286 1.463 . S
C1283 C1288 1.350 . S
C1283 N1291 1.427 . S
C1284 H1275 0.930 . S
C1284 C1282 1.378 . S
C1284 C1285 1.367 . S
C1285 C1284 1.367 . S
C1285 C1287 1.433 . S
C1286 C1282 1.350 . S
C1286 C1283 1.463 . S
C1286 N1290 1.427 . S
C1287 H1277 0.929 . S
C1287 C1285 1.433 . S
C1287 N1290 1.384 . S
C1288 H1279 0.929 . S
C1288 C1280 1.378 . S
C1288 C1283 1.350 . S
C1289 H1276 0.929 . S
C1289 C1281 1.433 . S
C1289 N1291 1.384 . S
N1290 C1286 1.427 . S
N1290 C1287 1.384 . S
N1291 C1283 1.427 . S
N1291 C1289 1.384 . S
H1292 C1298 0.930 . S
H1293 C1302 0.908 1_455 S
H1294 C1307 0.929 . S
H1295 C1305 0.929 . S
H1296 C1300 0.929 . S
H1297 C1306 0.929 . S
C1298 H1292 0.930 . S
C1298 C1299 1.367 . S
C1298 C1306 1.378 . S
C1299 C1298 1.367 . S
C1299 C1307 1.433 . S
C1300 H1296 0.929 . S
C1300 C1302 1.378 . S
C1300 C1304 1.350 . S
C1301 C1304 1.463 . S
C1301 C1306 1.350 . S
C1301 N1309 1.427 . S
C1302 H1293 0.908 1_655 S
C1302 C1300 1.378 . S
C1302 C1303 1.367 . S
C1303 C1302 1.367 . S
C1303 C1305 1.433 . S
C1304 C1300 1.350 . S
C1304 C1301 1.463 . S
C1304 N1308 1.427 . S
C1305 H1295 0.929 . S
C1305 C1303 1.433 . S
C1305 N1308 1.384 . S
C1306 H1297 0.929 . S
C1306 C1298 1.378 . S
C1306 C1301 1.350 . S
C1307 H1294 0.929 . S
C1307 C1299 1.433 . S
C1307 N1309 1.384 . S
N1308 C1304 1.427 . S
N1308 C1305 1.384 . S
N1309 C1301 1.427 . S
N1309 C1307 1.384 . S
H1310 C1316 0.930 . S
H1311 C1320 0.930 . S
H1312 C1325 0.929 . S
H1313 C1323 0.929 . S
H1314 C1318 0.929 . S
H1315 C1324 0.929 . S
C1316 H1310 0.930 . S
C1316 C1317 1.367 . S
C1316 C1324 1.378 . S
C1317 C1316 1.367 . S
C1317 C1325 1.433 . S
C1318 H1314 0.929 . S
C1318 C1320 1.378 . S
C1318 C1322 1.350 . S
C1319 C1322 1.463 . S
C1319 C1324 1.350 . S
C1319 N1327 1.427 . S
C1320 H1311 0.930 . S
C1320 C1318 1.378 . S
C1320 C1321 1.367 . S
C1321 C1320 1.367 . S
C1321 C1323 1.433 . S
C1322 C1318 1.350 . S
C1322 C1319 1.463 . S
C1322 N1326 1.427 . S
C1323 H1313 0.929 . S
C1323 C1321 1.433 . S
C1323 N1326 1.384 . S
C1324 H1315 0.929 . S
C1324 C1316 1.378 . S
C1324 C1319 1.350 . S
C1325 H1312 0.929 . S
C1325 C1317 1.433 . S
C1325 N1327 1.384 . S
N1326 C1322 1.427 . S
N1326 C1323 1.384 . S
N1327 C1319 1.427 . S
N1327 C1325 1.384 . S
H1328 C1334 0.930 . S
H1329 C1338 0.930 . S
H1330 C1343 0.929 . S
H1331 C1341 0.929 . S
H1332 C1336 0.929 . S
H1333 C1342 0.929 . S
C1334 H1328 0.930 . S
C1334 C1335 1.367 . S
C1334 C1342 1.378 . S
C1335 C1334 1.367 . S
C1335 C1343 1.433 . S
C1336 H1332 0.929 . S
C1336 C1338 1.378 . S
C1336 C1340 1.350 . S
C1337 C1340 1.463 . S
C1337 C1342 1.350 . S
C1337 N1345 1.427 . S
C1338 H1329 0.930 . S
C1338 C1336 1.378 . S
C1338 C1339 1.367 . S
C1339 C1338 1.367 . S
C1339 C1341 1.433 . S
C1340 C1336 1.350 . S
C1340 C1337 1.463 . S
C1340 N1344 1.427 . S
C1341 H1331 0.929 . S
C1341 C1339 1.433 . S
C1341 N1344 1.384 . S
C1342 H1333 0.929 . S
C1342 C1334 1.378 . S
C1342 C1337 1.350 . S
C1343 H1330 0.929 . S
C1343 C1335 1.433 . S
C1343 N1345 1.384 . S
N1344 C1340 1.427 . S
N1344 C1341 1.384 . S
N1345 C1337 1.427 . S
N1345 C1343 1.384 . S
H1346 C1352 0.930 . S
H1347 C1356 0.930 . S
H1348 C1361 0.929 . S
H1349 C1359 0.929 . S
H1350 C1354 0.929 . S
H1351 C1360 0.929 . S
C1352 H1346 0.930 . S
C1352 C1353 1.367 . S
C1352 C1360 1.378 . S
C1353 C1352 1.367 . S
C1353 C1361 1.433 . S
C1354 H1350 0.929 . S
C1354 C1356 1.378 . S
C1354 C1358 1.350 . S
C1355 C1358 1.463 . S
C1355 C1360 1.350 . S
C1355 N1363 1.427 . S
C1356 H1347 0.930 . S
C1356 C1354 1.378 . S
C1356 C1357 1.367 . S
C1357 C1356 1.367 . S
C1357 C1359 1.433 . S
C1358 C1354 1.350 . S
C1358 C1355 1.463 . S
C1358 N1362 1.427 . S
C1359 H1349 0.929 . S
C1359 C1357 1.433 . S
C1359 N1362 1.384 . S
C1360 H1351 0.929 . S
C1360 C1352 1.378 . S
C1360 C1355 1.350 . S
C1361 H1348 0.929 . S
C1361 C1353 1.433 . S
C1361 N1363 1.384 . S
N1362 C1358 1.427 . S
N1362 C1359 1.384 . S
N1363 C1355 1.427 . S
N1363 C1361 1.384 . S
H1364 C1370 0.930 . S
H1365 C1374 0.930 1_655 S
H1366 C1379 0.929 . S
H1367 C1377 0.929 . S
H1368 C1372 0.929 . S
H1369 C1378 0.929 . S
C1370 H1364 0.930 . S
C1370 C1371 1.367 . S
C1370 C1378 1.378 . S
C1371 C1370 1.367 . S
C1371 C1379 1.433 . S
C1372 H1368 0.929 . S
C1372 C1374 1.378 . S
C1372 C1376 1.350 . S
C1373 C1376 1.463 . S
C1373 C1378 1.350 . S
C1373 N1381 1.427 . S
C1374 H1365 0.930 1_455 S
C1374 C1372 1.378 . S
C1374 C1375 1.367 . S
C1375 C1374 1.367 . S
C1375 C1377 1.433 . S
C1376 C1372 1.350 . S
C1376 C1373 1.463 . S
C1376 N1380 1.427 . S
C1377 H1367 0.929 . S
C1377 C1375 1.433 . S
C1377 N1380 1.384 . S
C1378 H1369 0.929 . S
C1378 C1370 1.378 . S
C1378 C1373 1.350 . S
C1379 H1366 0.929 . S
C1379 C1371 1.433 . S
C1379 N1381 1.384 . S
N1380 C1376 1.427 . S
N1380 C1377 1.384 . S
N1381 C1373 1.427 . S
N1381 C1379 1.384 . S
H1382 C1388 0.930 1_565 S
H1383 C1392 0.930 . S
H1384 C1397 0.929 . S
H1385 C1395 0.929 . S
H1386 C1390 0.929 . S
H1387 C1396 0.929 . S
C1388 H1382 0.930 1_545 S
C1388 C1389 1.367 . S
C1388 C1396 1.378 . S
C1389 C1388 1.367 . S
C1389 C1397 1.433 . S
C1390 H1386 0.929 . S
C1390 C1392 1.378 . S
C1390 C1394 1.350 . S
C1391 C1394 1.463 . S
C1391 C1396 1.350 . S
C1391 N1399 1.427 . S
C1392 H1383 0.930 . S
C1392 C1390 1.378 . S
C1392 C1393 1.367 . S
C1393 C1392 1.367 . S
C1393 C1395 1.433 . S
C1394 C1390 1.350 . S
C1394 C1391 1.463 . S
C1394 N1398 1.427 . S
C1395 H1385 0.929 . S
C1395 C1393 1.433 . S
C1395 N1398 1.384 . S
C1396 H1387 0.929 . S
C1396 C1388 1.378 . S
C1396 C1391 1.350 . S
C1397 H1384 0.929 . S
C1397 C1389 1.433 . S
C1397 N1399 1.384 . S
N1398 C1394 1.427 . S
N1398 C1395 1.384 . S
N1399 C1391 1.427 . S
N1399 C1397 1.384 . S
H1400 C1406 0.930 . S
H1401 C1410 0.930 . S
H1402 C1415 0.929 . S
H1403 C1413 0.929 . S
H1404 C1408 0.929 . S
H1405 C1414 0.929 . S
C1406 H1400 0.930 . S
C1406 C1407 1.367 . S
C1406 C1414 1.378 . S
C1407 C1406 1.367 . S
C1407 C1415 1.433 . S
C1408 H1404 0.929 . S
C1408 C1410 1.378 . S
C1408 C1412 1.350 . S
C1409 C1412 1.463 . S
C1409 C1414 1.350 . S
C1409 N1417 1.427 . S
C1410 H1401 0.930 . S
C1410 C1408 1.378 . S
C1410 C1411 1.367 . S
C1411 C1410 1.367 . S
C1411 C1413 1.433 . S
C1412 C1408 1.350 . S
C1412 C1409 1.463 . S
C1412 N1416 1.427 . S
C1413 H1403 0.929 . S
C1413 C1411 1.433 . S
C1413 N1416 1.384 . S
C1414 H1405 0.929 . S
C1414 C1406 1.378 . S
C1414 C1409 1.350 . S
C1415 H1402 0.929 . S
C1415 C1407 1.433 . S
C1415 N1417 1.384 . S
N1416 C1412 1.427 . S
N1416 C1413 1.384 . S
N1417 C1409 1.427 . S
N1417 C1415 1.384 . S
H1418 C1424 0.930 . S
H1419 C1428 0.930 . S
H1420 C1433 0.929 . S
H1421 C1431 0.929 . S
H1422 C1426 0.929 . S
H1423 C1432 0.929 . S
C1424 H1418 0.930 . S
C1424 C1425 1.367 . S
C1424 C1432 1.378 . S
C1425 C1424 1.367 . S
C1425 C1433 1.433 . S
C1426 H1422 0.929 . S
C1426 C1428 1.378 . S
C1426 C1430 1.350 . S
C1427 C1430 1.463 . S
C1427 C1432 1.350 . S
C1427 N1435 1.427 . S
C1428 H1419 0.930 . S
C1428 C1426 1.378 . S
C1428 C1429 1.367 . S
C1429 C1428 1.367 . S
C1429 C1431 1.433 . S
C1430 C1426 1.350 . S
C1430 C1427 1.463 . S
C1430 N1434 1.427 . S
C1431 H1421 0.929 . S
C1431 C1429 1.433 . S
C1431 N1434 1.384 . S
C1432 H1423 0.929 . S
C1432 C1424 1.378 . S
C1432 C1427 1.350 . S
C1433 H1420 0.929 . S
C1433 C1425 1.433 . S
C1433 N1435 1.384 . S
N1434 C1430 1.427 . S
N1434 C1431 1.384 . S
N1435 C1427 1.427 . S
N1435 C1433 1.384 . S
H1436 C1442 0.930 1_655 S
H1437 C1446 0.930 . S
H1438 C1451 0.929 . S
H1439 C1449 0.929 . S
H1440 C1444 0.929 . S
H1441 C1450 0.929 . S
C1442 H1436 0.930 1_455 S
C1442 C1443 1.367 . S
C1442 C1450 1.378 . S
C1443 C1442 1.367 . S
C1443 C1451 1.433 . S
C1444 H1440 0.929 . S
C1444 C1446 1.378 . S
C1444 C1448 1.350 . S
C1445 C1448 1.463 . S
C1445 C1450 1.350 . S
C1445 N1453 1.427 . S
C1446 H1437 0.930 . S
C1446 C1444 1.378 . S
C1446 C1447 1.367 . S
C1447 C1446 1.367 . S
C1447 C1449 1.433 . S
C1448 C1444 1.350 . S
C1448 C1445 1.463 . S
C1448 N1452 1.427 . S
C1449 H1439 0.929 . S
C1449 C1447 1.433 . S
C1449 N1452 1.384 . S
C1450 H1441 0.929 . S
C1450 C1442 1.378 . S
C1450 C1445 1.350 . S
C1451 H1438 0.929 . S
C1451 C1443 1.433 . S
C1451 N1453 1.384 . S
N1452 C1448 1.427 . S
N1452 C1449 1.384 . S
N1453 C1445 1.427 . S
N1453 C1451 1.384 . S
H1454 C1460 0.930 . S
H1455 C1464 0.930 . S
H1456 C1469 0.929 . S
H1457 C1467 0.929 . S
H1458 C1462 0.929 . S
H1459 C1468 0.929 . S
C1460 H1454 0.930 . S
C1460 C1461 1.367 . S
C1460 C1468 1.378 . S
C1461 C1460 1.367 . S
C1461 C1469 1.433 . S
C1462 H1458 0.929 . S
C1462 C1464 1.378 . S
C1462 C1466 1.350 . S
C1463 C1466 1.463 . S
C1463 C1468 1.350 . S
C1463 N1471 1.427 . S
C1464 H1455 0.930 . S
C1464 C1462 1.378 . S
C1464 C1465 1.367 . S
C1465 C1464 1.367 . S
C1465 C1467 1.433 . S
C1466 C1462 1.350 . S
C1466 C1463 1.463 . S
C1466 N1470 1.427 . S
C1467 H1457 0.929 . S
C1467 C1465 1.433 . S
C1467 N1470 1.384 . S
C1468 H1459 0.929 . S
C1468 C1460 1.378 . S
C1468 C1463 1.350 . S
C1469 H1456 0.929 . S
C1469 C1461 1.433 . S
C1469 N1471 1.384 . S
N1470 C1466 1.427 . S
N1470 C1467 1.384 . S
N1471 C1463 1.427 . S
N1471 C1469 1.384 . S
C471 C79 1.289 . S
C475 C21 1.290 . S
C489 C108 1.275 . S
C493 C50 1.273 . S
C507 C137 1.279 . S
C511 C195 1.277 . S
C525 C166 1.279 . S
C529 C224 1.277 . S
C543 C253 1.285 . S
C547 C311 1.284 . S
C561 C282 1.266 . S
C565 C340 1.267 . S
C579 C427 1.271 . S
C583 C369 1.272 . S
C597 C456 1.273 . S
C601 C398 1.275 . S
C615 C3 1.039 . S
C619 C266 0.958 . S
C633 C295 0.957 . S
C637 C32 1.034 . S
C651 C61 1.033 . S
C655 C324 0.962 . S
C669 C237 0.952 . S
C673 C90 1.037 . S
C687 C119 1.032 . S
C691 C440 0.984 . S
C705 C148 1.037 . S
C709 C353 0.976 . S
C723 C177 1.034 . S
C727 C382 0.984 . S
C741 C206 1.031 . S
C745 C411 0.971 . S
C759 C235 1.031 . S
C763 C34 0.978 . S
C777 C63 0.966 . S
C781 C264 1.032 . S
C795 C293 1.038 . S
C799 C92 0.972 . S
C813 C5 0.985 . S
C817 C322 1.033 . S
C831 C351 1.031 . S
C835 C208 0.979 . S
C849 C121 0.952 . S
C853 C380 1.037 . S
C867 C409 1.033 . S
C871 C150 0.963 . S
C885 C179 0.956 . S
C889 C438 1.039 . S
C903 C184 1.420 . S
C907 C10 1.435 . S
C921 C39 1.414 . S
C925 C213 1.415 . S
C939 C68 1.422 . S
C943 C126 1.435 . S
C957 C97 1.427 . S
C961 C155 1.412 . S
C975 C416 1.419 . S
C979 C242 1.412 . S
C993 C271 1.425 . S
C997 C445 1.435 . S
C1011 C358 1.428 . S
C1015 C300 1.435 . S
C1029 C387 1.418 . S
C1033 C329 1.412 . S
C1047 C245 2.277 1_565 S
C1051 C13 2.277 1_545 S
C1065 C274 2.281 . S
C1069 C42 2.281 . S
C1083 C303 2.281 . S
C1087 C71 2.281 . S
C1101 C332 2.288 1_655 S
C1105 C100 2.288 1_455 S
C1119 C361 2.288 . S
C1123 C129 2.288 . S
C1137 C158 2.277 1_455 S
C1141 C390 2.277 1_655 S
C1155 C187 2.280 1_545 S
C1159 C419 2.280 1_565 S
C1173 C216 2.288 . S
C1177 C448 2.288 . S
C1191 C37 1.908 . S
C1195 C15 2.096 . S
C1209 C66 1.918 . S
C1213 C44 2.091 . S
C1227 C95 1.901 1_655 S
C1231 C73 2.099 . S
C1245 C8 1.919 1_565 S
C1249 C102 2.091 . S
C1263 C131 2.094 . S
C1267 C211 1.912 . S
C1281 C160 2.093 . S
C1285 C124 1.914 . S
C1299 C189 2.095 . S
C1303 C153 1.911 1_655 S
C1317 C218 2.099 . S
C1321 C182 1.901 1_565 S
C1335 C247 2.091 . S
C1339 C269 1.918 . S
C1353 C276 2.091 . S
C1357 C298 1.919 . S
C1371 C305 2.099 . S
C1375 C327 1.900 1_455 S
C1389 C240 1.901 1_545 S
C1393 C334 2.099 . S
C1407 C443 1.913 . S
C1411 C363 2.094 . S
C1425 C392 2.099 . S
C1429 C356 1.902 . S
C1443 C385 1.903 1_455 S
C1447 C421 2.099 . S
C1461 C414 1.914 1_545 S
C1465 C450 2.093 . S
