# Generated by pormake.
# Topology fnr, (5)-cn, num edge types: 1
# Building blocks:
#     Node 0, Type 0, BuildingBlock: BEQFEK_clean_sbu_0, # of connection points: 5
#     Node 1, Type 0, BuildingBlock: BEQFEK_clean_sbu_0, # of connection points: 5
#     Node 2, Type 0, BuildingBlock: BEQFEK_clean_sbu_0, # of connection points: 5
#     Node 3, Type 0, BuildingBlock: BEQFEK_clean_sbu_0, # of connection points: 5
#     Node 4, Type 0, BuildingBlock: BEQFEK_clean_sbu_0, # of connection points: 5
#     Node 5, Type 0, BuildingBlock: BEQFEK_clean_sbu_0, # of connection points: 5
#     Node 6, Type 0, BuildingBlock: BEQFEK_clean_sbu_0, # of connection points: 5
#     Node 7, Type 0, BuildingBlock: BEQFEK_clean_sbu_0, # of connection points: 5
#     Node 8, Type 0, BuildingBlock: BEQFEK_clean_sbu_0, # of connection points: 5
#     Node 9, Type 0, BuildingBlock: BEQFEK_clean_sbu_0, # of connection points: 5
#     Node 10, Type 0, BuildingBlock: BEQFEK_clean_sbu_0, # of connection points: 5
#     Node 11, Type 0, BuildingBlock: BEQFEK_clean_sbu_0, # of connection points: 5
#     Edge 12, Type (0, 0), BuildingBlock: CIFDUS_clean_linker_0, # of connection points: 2
#     Edge 13, Type (0, 0), BuildingBlock: CIFDUS_clean_linker_0, # of connection points: 2
#     Edge 14, Type (0, 0), BuildingBlock: CIFDUS_clean_linker_0, # of connection points: 2
#     Edge 15, Type (0, 0), BuildingBlock: CIFDUS_clean_linker_0, # of connection points: 2
#     Edge 16, Type (0, 0), BuildingBlock: CIFDUS_clean_linker_0, # of connection points: 2
#     Edge 17, Type (0, 0), BuildingBlock: CIFDUS_clean_linker_0, # of connection points: 2
#     Edge 18, Type (0, 0), BuildingBlock: CIFDUS_clean_linker_0, # of connection points: 2
#     Edge 19, Type (0, 0), BuildingBlock: CIFDUS_clean_linker_0, # of connection points: 2
#     Edge 20, Type (0, 0), BuildingBlock: CIFDUS_clean_linker_0, # of connection points: 2
#     Edge 21, Type (0, 0), BuildingBlock: CIFDUS_clean_linker_0, # of connection points: 2
#     Edge 22, Type (0, 0), BuildingBlock: CIFDUS_clean_linker_0, # of connection points: 2
#     Edge 23, Type (0, 0), BuildingBlock: CIFDUS_clean_linker_0, # of connection points: 2
#     Edge 24, Type (0, 0), BuildingBlock: CIFDUS_clean_linker_0, # of connection points: 2
#     Edge 25, Type (0, 0), BuildingBlock: CIFDUS_clean_linker_0, # of connection points: 2
#     Edge 26, Type (0, 0), BuildingBlock: CIFDUS_clean_linker_0, # of connection points: 2
#     Edge 27, Type (0, 0), BuildingBlock: CIFDUS_clean_linker_0, # of connection points: 2
#     Edge 28, Type (0, 0), BuildingBlock: CIFDUS_clean_linker_0, # of connection points: 2
#     Edge 29, Type (0, 0), BuildingBlock: CIFDUS_clean_linker_0, # of connection points: 2
#     Edge 30, Type (0, 0), BuildingBlock: CIFDUS_clean_linker_0, # of connection points: 2
#     Edge 31, Type (0, 0), BuildingBlock: CIFDUS_clean_linker_0, # of connection points: 2
#     Edge 32, Type (0, 0), BuildingBlock: CIFDUS_clean_linker_0, # of connection points: 2
#     Edge 33, Type (0, 0), BuildingBlock: CIFDUS_clean_linker_0, # of connection points: 2
#     Edge 34, Type (0, 0), BuildingBlock: CIFDUS_clean_linker_0, # of connection points: 2
#     Edge 35, Type (0, 0), BuildingBlock: CIFDUS_clean_linker_0, # of connection points: 2
#     Edge 36, Type (0, 0), BuildingBlock: CIFDUS_clean_linker_0, # of connection points: 2
#     Edge 37, Type (0, 0), BuildingBlock: CIFDUS_clean_linker_0, # of connection points: 2
#     Edge 38, Type (0, 0), BuildingBlock: CIFDUS_clean_linker_0, # of connection points: 2
#     Edge 39, Type (0, 0), BuildingBlock: CIFDUS_clean_linker_0, # of connection points: 2
#     Edge 40, Type (0, 0), BuildingBlock: CIFDUS_clean_linker_0, # of connection points: 2
#     Edge 41, Type (0, 0), BuildingBlock: CIFDUS_clean_linker_0, # of connection points: 2
# Relax obj value: 0.150
# Max RMSD: 0.109
# Mean RMSD: 0.109
data_MOF--net-fnr--node1-BEQFEK_clean_sbu_0--edge1-CIFDUS_clean_linker_0
_symmetry_space_group_name_H-M    P1
_symmetry_Int_Tables_number       1
_symmetry_cell_setting            triclinic
loop_
_symmetry_equiv_pos_as_xyz
'x, y, z'
_cell_length_a     39.833332
_cell_length_b     39.818265
_cell_length_c     42.098234
_cell_angle_alpha  90.07504
_cell_angle_beta   90.107117
_cell_angle_gamma 120.00681
loop_
_atom_site_label
_atom_site_type_symbol
_atom_site_fract_x
_atom_site_fract_y
_atom_site_fract_z
_atom_type_partial_charge
Co0 Co 0.47596 0.29363 0.116 0.0
Co1 Co 0.40777 0.20734 0.10545 0.0
C2 C 0.48969 0.22978 0.0926 0.0
O3 O 0.50095 0.26466 0.10037 0.0
O4 O 0.4541 0.20375 0.09327 0.0
C5 C 0.54133 0.36005 0.09213 0.0
O6 O 0.53458 0.33536 0.06891 0.0
C7 C 0.35472 0.13541 0.07049 0.0
C8 C 0.3085 0.1044 0.10587 0.0
C9 C 0.32043 0.10065 0.0758 0.0
N10 N 0.36247 0.15832 0.09623 0.0
N11 N 0.33448 0.13969 0.11712 0.0
C12 C 0.38106 0.14589 0.0424 0.0
H13 H 0.40967 0.17158 0.04749 0.0
H14 H 0.36814 0.15325 0.02212 0.0
H15 H 0.38465 0.121 0.03535 0.0
C16 C 0.42411 0.31014 0.07762 0.0
N17 N 0.43359 0.28491 0.09014 0.0
N18 N 0.40512 0.24922 0.08518 0.0
C19 C 0.37659 0.25082 0.06901 0.0
C20 C 0.38772 0.28949 0.06374 0.0
C21 C 0.44896 0.35327 0.08024 0.0
H22 H 0.45685 0.36151 0.10549 0.0
H23 H 0.47614 0.36271 0.06681 0.0
H24 H 0.43435 0.36857 0.07057 0.0
O25 O 0.45766 0.27627 0.1601 0.0
O26 O 0.41142 0.21473 0.15241 0.0
H27 H 0.32489 0.19994 0.08389 0.0
H28 H 0.31793 0.22479 0.05074 0.0
C29 C 0.33793 0.21628 0.0617 0.0
H30 H 0.34188 0.19683 0.04519 0.0
H31 H 0.3337 0.15063 0.13947 0.0
O32 O 0.51801 0.34927 0.11553 0.0
C33 C 0.43209 0.24329 0.17078 0.0
Co34 Co 0.19882 0.46874 0.62004 0.0
Co35 Co 0.21642 0.40306 0.59963 0.0
C36 C 0.27357 0.4858 0.58852 0.0
O37 O 0.25058 0.49594 0.60012 0.0
O38 O 0.26456 0.45043 0.58682 0.0
C39 C 0.18932 0.53238 0.60345 0.0
O40 O 0.1952 0.52308 0.57487 0.0
C41 C 0.23948 0.35864 0.55922 0.0
C42 C 0.21475 0.30235 0.58394 0.0
C43 C 0.23719 0.32274 0.5581 0.0
N44 N 0.21977 0.35962 0.5847 0.0
N45 N 0.20492 0.32585 0.59936 0.0
C46 C 0.25836 0.39098 0.53573 0.0
H47 H 0.24207 0.40681 0.53417 0.0
H48 H 0.25972 0.37978 0.51189 0.0
H49 H 0.2883 0.41165 0.54381 0.0
C50 C 0.12693 0.41924 0.58321 0.0
N51 N 0.1624 0.42821 0.59378 0.0
N52 N 0.17032 0.40141 0.58423 0.0
C53 C 0.14033 0.37493 0.56664 0.0
C54 C 0.1118 0.38526 0.56552 0.0
C55 C 0.10811 0.44295 0.58999 0.0
H56 H 0.11951 0.46762 0.57317 0.0
H57 H 0.07623 0.42593 0.58695 0.0
H58 H 0.1152 0.45473 0.6145 0.0
O59 O 0.20317 0.44745 0.6616 0.0
O60 O 0.21725 0.40219 0.64665 0.0
H61 H 0.13862 0.32093 0.57308 0.0
H62 H 0.11092 0.32152 0.53938 0.0
C63 C 0.13788 0.33892 0.55331 0.0
H64 H 0.16336 0.3469 0.53794 0.0
H65 H 0.18852 0.31904 0.62012 0.0
O66 O 0.18685 0.51105 0.62685 0.0
C67 C 0.21151 0.4212 0.66823 0.0
Co68 Co 0.7287 0.18802 0.12103 0.0
Co69 Co 0.81038 0.20549 0.09672 0.0
C70 C 0.78743 0.26364 0.08819 0.0
O71 O 0.75582 0.2411 0.10233 0.0
O72 O 0.81285 0.25396 0.08295 0.0
C73 C 0.66102 0.18357 0.09988 0.0
O74 O 0.68301 0.19536 0.07446 0.0
C75 C 0.88867 0.23266 0.07136 0.0
C76 C 0.89166 0.17874 0.07185 0.0
C77 C 0.91233 0.21749 0.06321 0.0
N78 N 0.8553 0.20386 0.08316 0.0
N79 N 0.85763 0.17193 0.08399 0.0
C80 C 0.89878 0.27429 0.07138 0.0
H81 H 0.8849 0.28006 0.09186 0.0
H82 H 0.88779 0.2805 0.04921 0.0
H83 H 0.93058 0.29399 0.07306 0.0
C84 C 0.70347 0.11797 0.08218 0.0
N85 N 0.73148 0.15201 0.09382 0.0
N86 N 0.76469 0.16114 0.08043 0.0
C87 C 0.75833 0.13431 0.05797 0.0
C88 C 0.71923 0.10546 0.05856 0.0
C89 C 0.66326 0.0969 0.09549 0.0
H90 H 0.66348 0.10545 0.12061 0.0
H91 H 0.64436 0.10466 0.08171 0.0
H92 H 0.65107 0.06504 0.09421 0.0
O93 O 0.75311 0.1902 0.16232 0.0
O94 O 0.81194 0.20683 0.14426 0.0
H95 H 0.80217 0.12241 0.04149 0.0
H96 H 0.77395 0.12738 1.01044 0.0
C97 C 0.78791 0.13889 0.03385 0.0
H98 H 0.81032 0.16989 0.03129 0.0
H99 H 0.83584 0.1454 0.0927 0.0
O100 O 0.67402 0.17605 0.1249 0.0
C101 C 0.78848 0.2001 0.16716 0.0
Co102 Co 0.55223 0.72432 0.61633 0.0
Co103 Co 0.61525 0.80935 0.59812 0.0
C104 C 0.5325 0.78225 0.58727 0.0
O105 O 0.52419 0.7496 0.59889 0.0
O106 O 0.56744 0.80939 0.58453 0.0
C107 C 0.49101 0.65677 0.59275 0.0
O108 O 0.50037 0.68027 0.56833 0.0
C109 C 0.66253 0.87823 0.55983 0.0
C110 C 0.71582 0.90989 0.58879 0.0
C111 C 0.69854 0.91181 0.56078 0.0
N112 N 0.65897 0.85733 0.58592 0.0
N113 N 0.6909 0.87632 0.60311 0.0
C114 C 0.63022 0.86741 0.53653 0.0
H115 H 0.60727 0.87112 0.54808 0.0
H116 H 0.61728 0.83635 0.52998 0.0
H117 H 0.63964 0.88558 0.51493 0.0
C118 C 0.60418 0.70634 0.57949 0.0
N119 N 0.59358 0.7316 0.59003 0.0
N120 N 0.61956 0.76692 0.58128 0.0
C121 C 0.64734 0.76503 0.56429 0.0
C122 C 0.63853 0.72658 0.56272 0.0
C123 C 0.58218 0.66373 0.58622 0.0
H124 H 0.55558 0.65 0.57138 0.0
H125 H 0.5994 0.64958 0.58069 0.0
H126 H 0.57327 0.65883 0.61151 0.0
O127 O 0.57194 0.7467 0.65919 0.0
O128 O 0.61384 0.80766 0.64527 0.0
H129 H 0.70021 0.81804 0.57258 0.0
H130 H 0.70163 0.79107 0.53856 0.0
C131 C 0.68327 0.79961 0.55221 0.0
H132 H 0.67514 0.817 0.5368 0.0
H133 H 0.69548 0.86654 0.62479 0.0
O134 O 0.51164 0.66865 0.61783 0.0
C135 C 0.59627 0.78183 0.66643 0.0
Co136 Co 0.8362 0.54684 0.11605 0.0
Co137 Co 0.8185 0.61459 0.10566 0.0
C138 C 0.75858 0.53339 0.09197 0.0
O139 O 0.78213 0.52236 0.10045 0.0
O140 O 0.7682 0.56903 0.09224 0.0
C141 C 0.83586 0.48204 0.09043 0.0
O142 O 0.8184 0.49017 0.06773 0.0
C143 C 0.79856 0.66634 0.07221 0.0
C144 C 0.82486 0.71873 0.10254 0.0
C145 C 0.80335 0.70323 0.07503 0.0
N146 N 0.81613 0.66028 0.09698 0.0
N147 N 0.83174 0.69164 0.11509 0.0
C148 C 0.7802 0.63817 0.04541 0.0
H149 H 0.79404 0.62006 0.04285 0.0
H150 H 0.78275 0.65354 0.02279 0.0
H151 H 0.74902 0.6187 0.0507 0.0
C152 C 0.9044 0.59787 0.07721 0.0
N153 N 0.87003 0.58879 0.09016 0.0
N154 N 0.86278 0.61716 0.08507 0.0
C155 C 0.89248 0.64521 0.06829 0.0
C156 C 0.91989 0.63394 0.06286 0.0
C157 C 0.9224 0.57274 0.07952 0.0
H158 H 0.92282 0.56474 0.1047 0.0
H159 H 0.90442 0.54563 0.06594 0.0
H160 H 0.9522 0.5871 0.06976 0.0
O161 O 0.83796 0.56516 0.16037 0.0
O162 O 0.82231 0.61102 0.15254 0.0
H163 H 0.89629 0.69846 0.08276 0.0
H164 H 0.9235 0.70249 0.04729 0.0
C165 C 0.89638 0.68364 0.06047 0.0
H166 H 0.8712 0.67906 0.04593 0.0
H167 H 0.84723 0.6946 0.13593 0.0
O168 O 0.84887 0.50439 0.11449 0.0
C169 C 0.8305 0.59076 0.17102 0.0
Co170 Co 0.29305 0.82678 0.61678 0.0
Co171 Co 0.20852 0.81113 0.60382 0.0
C172 C 0.22586 0.74765 0.59826 0.0
O173 O 0.26019 0.77033 0.60803 0.0
O174 O 0.20215 0.75965 0.59326 0.0
C175 C 0.35558 0.82068 0.59322 0.0
O176 O 0.32858 0.79977 0.57228 0.0
C177 C 0.13698 0.79043 0.56896 0.0
C178 C 0.1134 0.82201 0.59532 0.0
C179 C 0.10617 0.79751 0.56959 0.0
N180 N 0.16103 0.80964 0.59324 0.0
N181 N 0.14669 0.82833 0.609 0.0
C182 C 0.14538 0.7685 0.54434 0.0
H183 H 0.17714 0.78064 0.54209 0.0
H184 H 0.13308 0.76964 0.52096 0.0
H185 H 0.1322 0.73775 0.55175 0.0
C186 C 0.3116 0.889 0.56978 0.0
N187 N 0.28588 0.85793 0.58657 0.0
N188 N 0.2507 0.85188 0.58115 0.0
C189 C 0.25308 0.87896 0.56052 0.0
C190 C 0.29168 0.9032 0.55263 0.0
C191 C 0.35459 0.90586 0.57129 0.0
H192 H 0.36387 0.90714 0.59634 0.0
H193 H 0.3625 0.88681 0.55793 0.0
H194 H 0.37013 0.93533 0.56078 0.0
O195 O 0.2788 0.83592 0.65966 0.0
O196 O 0.21693 0.81866 0.65104 0.0
H197 H 0.20411 0.88566 0.57026 0.0
H198 H 0.22858 0.90784 0.5335 0.0
C199 C 0.21931 0.88253 0.54942 0.0
H200 H 0.19867 0.85577 0.53648 0.0
H201 H 0.15984 0.84573 0.62888 0.0
O202 O 0.34758 0.8372 0.61548 0.0
C203 C 0.24582 0.82919 0.66975 0.0
Co204 Co 0.73051 0.54532 0.40399 0.0
Co205 Co 0.81684 0.60947 0.4186 0.0
C206 C 0.79592 0.52827 0.41712 0.0
O207 O 0.76235 0.52045 0.40818 0.0
O208 O 0.82104 0.56238 0.4256 0.0
C209 C 0.67376 0.48006 0.43233 0.0
O210 O 0.70314 0.49326 0.45221 0.0
C211 C 0.88883 0.65379 0.45403 0.0
C212 C 0.91793 0.71038 0.42964 0.0
C213 C 0.92235 0.68986 0.45434 0.0
N214 N 0.86595 0.65289 0.43015 0.0
N215 N 0.88349 0.6868 0.41561 0.0
C216 C 0.8771 0.62148 0.47733 0.0
H217 H 0.84506 0.60478 0.4796 0.0
H218 H 0.89038 0.63285 0.50096 0.0
H219 H 0.88695 0.60153 0.46859 0.0
C220 C 0.71539 0.59169 0.44969 0.0
N221 N 0.74022 0.58285 0.43549 0.0
N222 N 0.77602 0.60984 0.44209 0.0
C223 C 0.77495 0.63664 0.46114 0.0
C224 C 0.73646 0.626 0.46654 0.0
C225 C 0.67245 0.56954 0.44447 0.0
H226 H 0.66616 0.56395 0.4187 0.0
H227 H 0.6602 0.54106 0.45651 0.0
H228 H 0.65809 0.58512 0.45406 0.0
O229 O 0.74459 0.57032 0.36182 0.0
O230 O 0.80762 0.61048 0.3717 0.0
H231 H 0.82372 0.69128 0.4487 0.0
H232 H 0.80207 0.69145 0.48637 0.0
C233 C 0.80983 0.6742 0.47039 0.0
H234 H 0.83106 0.66831 0.48254 0.0
H235 H 0.87197 0.69385 0.39614 0.0
O236 O 0.67666 0.5002 0.40789 0.0
C237 C 0.77875 0.59497 0.35254 0.0
Co238 Co 0.19792 0.73533 0.90699 0.0
Co239 Co 0.21544 0.82064 0.91956 0.0
C240 C 0.27681 0.80103 0.92805 0.0
O241 O 0.25371 0.76688 0.91814 0.0
O242 O 0.2657 0.82558 0.93196 0.0
C243 C 0.18829 0.66561 0.93494 0.0
O244 O 0.19153 0.68443 0.96146 0.0
C245 C 0.23784 0.89395 0.95272 0.0
C246 C 0.21031 0.91931 0.92311 0.0
C247 C 0.23343 0.92633 0.94973 0.0
N248 N 0.21797 0.86897 0.9291 0.0
N249 N 0.20147 0.88425 0.91157 0.0
C250 C 0.26349 0.88805 0.97535 0.0
H251 H 0.28955 0.89229 0.96238 0.0
H252 H 0.24802 0.8578 0.98432 0.0
H253 H 0.27336 0.90866 0.99551 0.0
C254 C 0.13011 0.71792 0.94762 0.0
N255 N 0.16473 0.74305 0.93476 0.0
N256 N 0.1726 0.77874 0.94088 0.0
C257 C 0.1437 0.77725 0.95867 0.0
C258 C 0.116 0.7387 0.96361 0.0
C259 C 0.10871 0.67508 0.94173 0.0
H260 H 0.11489 0.66043 0.96139 0.0
H261 H 0.07694 0.66353 0.94113 0.0
H262 H 0.11799 0.66827 0.91897 0.0
O263 O 0.1921 0.75049 0.86352 0.0
O264 O 0.20987 0.81255 0.87212 0.0
H265 H 0.13813 0.82638 0.94689 0.0
H266 H 0.11561 0.80369 0.98406 0.0
C267 C 0.14093 0.8119 0.9684 0.0
H268 H 0.16783 0.83279 0.98105 0.0
H269 H 0.18469 0.87102 0.89141 0.0
O270 O 0.18829 0.68109 0.90847 0.0
C271 C 0.1998 0.78377 0.85335 0.0
Co272 Co 0.47806 0.1909 0.40929 0.0
Co273 Co 0.40768 0.2049 0.41719 0.0
C274 C 0.48747 0.26875 0.42869 0.0
O275 O 0.50017 0.24588 0.42235 0.0
O276 O 0.45135 0.25695 0.42835 0.0
C277 C 0.53992 0.18607 0.4388 0.0
O278 O 0.52466 0.19095 0.46479 0.0
C279 C 0.35409 0.22418 0.44809 0.0
C280 C 0.30087 0.19255 0.41914 0.0
C281 C 0.31629 0.2168 0.44527 0.0
N282 N 0.36076 0.20538 0.42465 0.0
N283 N 0.32893 0.18666 0.4073 0.0
C284 C 0.38265 0.2461 0.47395 0.0
H285 H 0.40225 0.23416 0.47772 0.0
H286 H 0.3676 0.24471 0.49649 0.0
H287 H 0.40053 0.27692 0.46681 0.0
C288 C 0.42824 0.12319 0.45069 0.0
N289 N 0.43634 0.15633 0.43566 0.0
N290 N 0.40772 0.16335 0.44031 0.0
C291 C 0.3811 0.13546 0.45932 0.0
C292 C 0.39319 0.1091 0.46651 0.0
C293 C 0.45335 0.10509 0.44958 0.0
H294 H 0.47035 0.11307 0.42729 0.0
H295 H 0.47351 0.11554 0.47014 0.0
H296 H 0.43593 0.07309 0.45122 0.0
O297 O 0.45994 0.18619 0.36454 0.0
O298 O 0.41186 0.19897 0.37069 0.0
H299 H 0.32683 0.13049 0.44667 0.0
H300 H 0.3255 0.10655 0.4833 0.0
C301 C 0.34339 0.13243 0.46844 0.0
H302 H 0.3491 0.15884 0.4817 0.0
H303 H 0.32624 0.16957 0.38759 0.0
O304 O 0.5236 0.18323 0.41212 0.0
C305 C 0.43334 0.19157 0.35302 0.0
Co306 Co 0.29426 0.46825 0.90242 0.0
Co307 Co 0.20952 0.41171 0.92463 0.0
C308 C 0.23679 0.49416 0.92353 0.0
O309 O 0.26763 0.49805 0.91119 0.0
O310 O 0.2106 0.46139 0.93377 0.0
C311 C 0.35932 0.53055 0.92597 0.0
O312 O 0.33355 0.52232 0.94847 0.0
C313 C 0.13422 0.3683 0.9567 0.0
C314 C 0.11417 0.30849 0.94011 0.0
C315 C 0.1041 0.33039 0.95918 0.0
N316 N 0.16099 0.36885 0.93699 0.0
N317 N 0.14869 0.33306 0.92699 0.0
C318 C 0.13877 0.40307 0.9742 0.0
H319 H 0.16898 0.42061 0.98304 0.0
H320 H 0.1184 0.39462 0.99448 0.0
H321 H 0.13309 0.42131 0.95762 0.0
C322 C 0.31047 0.42031 0.9458 0.0
N323 N 0.28603 0.43107 0.93362 0.0
N324 N 0.25085 0.40795 0.94433 0.0
C325 C 0.25213 0.38219 0.96451 0.0
C326 C 0.28992 0.38905 0.96588 0.0
C327 C 0.3523 0.4384 0.93678 0.0
H328 H 0.35553 0.4438 0.91081 0.0
H329 H 0.36889 0.46676 0.94907 0.0
H330 H 0.36476 0.42002 0.94369 0.0
O331 O 0.27356 0.44298 0.86116 0.0
O332 O 0.21215 0.40899 0.87721 0.0
H333 H 0.20275 0.32531 0.9626 0.0
H334 H 0.22607 0.33845 1.00084 0.0
C335 C 0.21747 0.3494 0.97992 0.0
H336 H 0.19689 0.35895 0.98743 0.0
H337 H 0.16413 0.32536 0.91145 0.0
O338 O 0.34983 0.50866 0.90163 0.0
C339 C 0.23757 0.421 0.85521 0.0
Co340 Co 0.84286 0.29644 0.39891 0.0
Co341 Co 0.81433 0.21193 0.42304 0.0
C342 C 0.7618 0.24276 0.42576 0.0
O343 O 0.78836 0.27301 0.41248 0.0
O344 O 0.76774 0.21553 0.4342 0.0
C345 C 0.86047 0.36923 0.42217 0.0
O346 O 0.85711 0.35118 0.44909 0.0
C347 C 0.79174 0.14298 0.46336 0.0
C348 C 0.80954 0.10932 0.43298 0.0
C349 C 0.79276 0.1086 0.46196 0.0
N350 N 0.80754 0.16312 0.43656 0.0
N351 N 0.81816 0.14282 0.41858 0.0
C352 C 0.77429 0.1556 0.48893 0.0
H353 H 0.76822 0.1782 0.48026 0.0
H354 H 0.79497 0.16805 0.50904 0.0
H355 H 0.74716 0.13045 0.49785 0.0
C356 C 0.91103 0.31214 0.43785 0.0
N357 N 0.87449 0.28834 0.42775 0.0
N358 N 0.86194 0.25344 0.43948 0.0
C359 C 0.8899 0.25437 0.45834 0.0
C360 C 0.92183 0.29159 0.45788 0.0
C361 C 0.9357 0.35338 0.42745 0.0
H362 H 0.92566 0.35803 0.40416 0.0
H363 H 0.93381 0.3728 0.44538 0.0
H364 H 0.96657 0.36143 0.42556 0.0
O365 O 0.84131 0.2723 0.35757 0.0
O366 O 0.8155 0.2117 0.37546 0.0
H367 H 0.8837 0.19794 0.45567 0.0
H368 H 0.91417 0.22729 0.48798 0.0
C369 C 0.88762 0.21962 0.47402 0.0
H370 H 0.86217 0.20629 0.48998 0.0
H371 H 0.83108 0.15174 0.39632 0.0
O372 O 0.85812 0.35195 0.39608 0.0
C373 C 0.82679 0.23601 0.35263 0.0
Co374 Co 0.55276 0.82481 0.90128 0.0
Co375 Co 0.61428 0.80197 0.92285 0.0
C376 C 0.53138 0.74772 0.93208 0.0
O377 O 0.52348 0.77234 0.92028 0.0
O378 O 0.56606 0.7548 0.93482 0.0
C379 C 0.49251 0.83912 0.9192 0.0
O380 O 0.50343 0.83519 0.94776 0.0
C381 C 0.65797 0.77411 0.95976 0.0
C382 C 0.71646 0.80699 0.9388 0.0
C383 C 0.69504 0.77921 0.96143 0.0
N384 N 0.65741 0.79742 0.93696 0.0
N385 N 0.69247 0.81703 0.92454 0.0
C386 C 0.62434 0.74992 0.98105 0.0
H387 H 0.60735 0.76465 0.98528 0.0
H388 H 0.6342 0.7446 1.0042 0.0
H389 H 0.60513 0.72166 0.96931 0.0
C390 C 0.60423 0.89504 0.93898 0.0
N391 N 0.59361 0.8593 0.92808 0.0
N392 N 0.61723 0.8482 0.93951 0.0
C393 C 0.64239 0.87568 0.95965 0.0
C394 C 0.63552 0.90685 0.95978 0.0
C395 C 0.58709 0.91855 0.92684 0.0
H396 H 0.57479 0.90858 0.90273 0.0
H397 H 0.56336 0.91476 0.94285 0.0
H398 H 0.6093 0.9498 0.92593 0.0
O399 O 0.57336 0.8203 0.85984 0.0
O400 O 0.61529 0.80205 0.87547 0.0
H401 H 0.6974 0.87944 0.96635 0.0
H402 H 0.67756 0.88814 1.00201 0.0
C403 C 0.67042 0.87058 0.97995 0.0
H404 H 0.65779 0.83972 0.98666 0.0
H405 H 0.69998 0.83724 0.90628 0.0
O406 O 0.512 0.83906 0.89529 0.0
C407 C 0.598 0.80973 0.85358 0.0
H408 H 0.63993 0.22348 0.06085 0.0
H409 H 0.59891 0.1434 0.13939 0.0
H410 H 0.53904 0.1466 0.14105 0.0
H411 H 0.50083 0.17636 0.12271 0.0
H412 H 0.54617 0.26197 0.04839 0.0
H413 H 0.60171 0.25206 0.04203 0.0
C414 C 0.61768 0.20631 0.07809 0.0
C415 C 0.62373 0.18317 0.09994 0.0
C416 C 0.58412 0.20931 0.07953 0.0
C417 C 0.59491 0.16153 0.12241 0.0
C418 C 0.56071 0.16332 0.12332 0.0
C419 C 0.52253 0.19208 0.10468 0.0
C420 C 0.5194 0.21932 0.0856 0.0
C421 C 0.55528 0.1876 0.10232 0.0
C422 C 0.54802 0.24052 0.06296 0.0
C423 C 0.57977 0.23502 0.05949 0.0
H424 H 0.34004 0.49447 0.61265 0.0
H425 H 0.29453 0.54629 0.54857 0.0
H426 H 0.35956 0.60242 0.54161 0.0
H427 H 0.4277 0.63902 0.55764 0.0
H428 H 0.47197 0.59128 0.62701 0.0
H429 H 0.40909 0.53111 0.62822 0.0
C430 C 0.34474 0.51776 0.59664 0.0
C431 C 0.31306 0.5163 0.58065 0.0
C432 C 0.38175 0.55072 0.59415 0.0
C433 C 0.31884 0.54689 0.56071 0.0
C434 C 0.35586 0.57895 0.55692 0.0
C435 C 0.42376 0.61522 0.57269 0.0
C436 C 0.45435 0.61938 0.59212 0.0
C437 C 0.38731 0.58154 0.57409 0.0
C438 C 0.44872 0.58866 0.61191 0.0
C439 C 0.41284 0.55432 0.61257 0.0
H440 H 0.84866 0.33128 0.1074 0.0
H441 H 0.74267 0.28297 0.0532 0.0
H442 H 0.75088 0.34771 0.04628 0.0
H443 H 0.78499 0.41675 0.05968 0.0
H444 H 0.88658 0.46435 0.11954 0.0
H445 H 0.88352 0.40128 0.12039 0.0
C446 C 0.82794 0.33528 0.09354 0.0
C447 C 0.79548 0.30287 0.08033 0.0
C448 C 0.83185 0.37228 0.09112 0.0
C449 C 0.76806 0.30781 0.06318 0.0
C450 C 0.77266 0.34469 0.05941 0.0
C451 C 0.80679 0.41346 0.07256 0.0
C452 C 0.83607 0.44508 0.08943 0.0
C453 C 0.80396 0.37696 0.07386 0.0
C454 C 0.86373 0.44031 0.10646 0.0
C455 C 0.86199 0.40432 0.1069 0.0
H456 H 0.52321 0.84172 0.60735 0.0
H457 H 0.46875 0.73627 0.55221 0.0
H458 H 0.41009 0.74102 0.54683 0.0
H459 H 0.37247 0.77174 0.56183 0.0
H460 H 0.42388 0.8734 0.62176 0.0
H461 H 0.48553 0.87364 0.62142 0.0
C462 C 0.49875 0.82041 0.59354 0.0
C463 C 0.50028 0.78904 0.57972 0.0
C464 C 0.46445 0.82233 0.59191 0.0
C465 C 0.46818 0.76086 0.56268 0.0
C466 C 0.43463 0.76345 0.5598 0.0
C467 C 0.39727 0.79424 0.57454 0.0
C468 C 0.3936 0.8225 0.59182 0.0
C469 C 0.43212 0.79352 0.57495 0.0
C470 C 0.42591 0.85119 0.60843 0.0
C471 C 0.46117 0.85138 0.60818 0.0
H472 H 0.69125 0.52295 0.11688 0.0
H473 H 0.73775 0.47537 0.04957 0.0
H474 H 0.67326 0.41911 0.04126 0.0
H475 H 0.60534 0.38076 0.05686 0.0
H476 H 0.55934 0.42431 0.12834 0.0
H477 H 0.62175 0.48483 0.13138 0.0
C478 C 0.68688 0.50061 0.09988 0.0
C479 C 0.71885 0.50333 0.08347 0.0
C480 C 0.64996 0.46744 0.09637 0.0
C481 C 0.71333 0.47388 0.06215 0.0
C482 C 0.67656 0.44168 0.05756 0.0
C483 C 0.60872 0.40367 0.07282 0.0
C484 C 0.57773 0.39803 0.09236 0.0
C485 C 0.64489 0.43771 0.07511 0.0
C486 C 0.58281 0.42788 0.11314 0.0
C487 C 0.61848 0.46248 0.11486 0.0
H488 H 0.17265 0.57432 0.56184 0.0
H489 H 0.2138 0.57629 0.6571 0.0
H490 H 0.22856 0.64321 0.66377 0.0
H491 H 0.23398 0.70259 0.6413 0.0
H492 H 0.18822 0.70002 0.54799 0.0
H493 H 0.17101 0.63187 0.5416 0.0
C494 C 0.18437 0.58931 0.58417 0.0
C495 C 0.19242 0.57052 0.60885 0.0
C496 C 0.19232 0.62771 0.58802 0.0
C497 C 0.20722 0.59005 0.63779 0.0
C498 C 0.21594 0.62842 0.64156 0.0
C499 C 0.22007 0.68693 0.61965 0.0
C500 C 0.2129 0.70612 0.5949 0.0
C501 C 0.20934 0.64774 0.61663 0.0
C502 C 0.19416 0.68564 0.5672 0.0
C503 C 0.1844 0.64681 0.56359 0.0
H504 H 0.8494 0.51885 0.45118 0.0
H505 H 0.76622 0.46961 0.37467 0.0
H506 H 0.78277 0.41914 0.3669 0.0
H507 H 0.81821 0.38681 0.38318 0.0
H508 H 0.89602 0.43024 0.46326 0.0
H509 H 0.88491 0.48539 0.46805 0.0
C510 C 0.83506 0.49706 0.43284 0.0
C511 C 0.8065 0.49783 0.41369 0.0
C512 C 0.84399 0.46725 0.42896 0.0
C513 C 0.78795 0.46936 0.39004 0.0
C514 C 0.79755 0.44059 0.38539 0.0
C515 C 0.83333 0.40883 0.40124 0.0
C516 C 0.85835 0.40507 0.42248 0.0
C517 C 0.82526 0.43906 0.40482 0.0
C518 C 0.87692 0.43299 0.44644 0.0
C519 C 0.87038 0.4643 0.44929 0.0
H520 H 0.32095 0.79249 0.8846 0.0
H521 H 0.32514 0.83819 0.97822 0.0
H522 H 0.39359 0.85598 0.98347 0.0
H523 H 0.45115 0.85534 0.96192 0.0
H524 H 0.44718 0.81415 0.86631 0.0
H525 H 0.37992 0.79846 0.86103 0.0
C526 C 0.33698 0.80638 0.90613 0.0
C527 C 0.31819 0.81338 0.93128 0.0
C528 C 0.37632 0.81754 0.90845 0.0
C529 C 0.33919 0.83225 0.95876 0.0
C530 C 0.3782 0.8424 0.96169 0.0
C531 C 0.43566 0.84341 0.93981 0.0
C532 C 0.45406 0.83566 0.91464 0.0
C533 C 0.39696 0.83481 0.93678 0.0
C534 C 0.43379 0.82054 0.88601 0.0
C535 C 0.3952 0.81126 0.88303 0.0
H536 H 0.59696 0.45009 0.41718 0.0
H537 H 0.6787 0.41988 0.45595 0.0
H538 H 0.62787 0.35229 0.46025 0.0
H539 H 0.56114 0.30099 0.45039 0.0
H540 H 0.4775 0.33028 0.41472 0.0
H541 H 0.52766 0.39885 0.41247 0.0
C542 C 0.6034 0.42862 0.42668 0.0
C543 C 0.64152 0.43984 0.43598 0.0
C544 C 0.57367 0.38967 0.42983 0.0
C545 C 0.64953 0.41196 0.44868 0.0
C546 C 0.62051 0.37325 0.45112 0.0
C547 C 0.55377 0.32246 0.44254 0.0
C548 C 0.51578 0.31056 0.43255 0.0
C549 C 0.58261 0.36171 0.44147 0.0
C550 C 0.50655 0.33874 0.4227 0.0
C551 C 0.53529 0.37792 0.42114 0.0
H552 H 0.2272 0.64455 0.89498 0.0
H553 H 0.15447 0.60668 0.97794 0.0
H554 H 0.16144 0.5489 0.9815 0.0
H555 H 0.19038 0.51017 0.9616 0.0
H556 H 0.26842 0.55332 0.88168 0.0
H557 H 0.25751 0.60786 0.87653 0.0
C558 C 0.21249 0.62334 0.91358 0.0
C559 C 0.18992 0.6294 0.93587 0.0
C560 C 0.21801 0.59131 0.91625 0.0
C561 C 0.1718 0.60234 0.96038 0.0
C562 C 0.17589 0.56943 0.96247 0.0
C563 C 0.20496 0.53159 0.94315 0.0
C564 C 0.23025 0.52764 0.92216 0.0
C565 C 0.1993 0.56377 0.94069 0.0
C566 C 0.24911 0.55576 0.89841 0.0
C567 C 0.24275 0.58694 0.89526 0.0
H568 H 0.60129 0.23436 0.40383 0.0
H569 H 0.56543 0.14868 0.47773 0.0
H570 H 0.63137 0.15834 0.48076 0.0
H571 H 0.69956 0.19167 0.46184 0.0
H572 H 0.735 0.28198 0.39143 0.0
H573 H 0.66928 0.27047 0.38795 0.0
C574 C 0.60796 0.2176 0.42037 0.0
C575 C 0.57876 0.19033 0.44005 0.0
C576 C 0.646 0.22452 0.42286 0.0
C577 C 0.58766 0.16953 0.46211 0.0
C578 C 0.62528 0.17516 0.46389 0.0
C579 C 0.69287 0.20897 0.44596 0.0
C580 C 0.72228 0.23755 0.4269 0.0
C581 C 0.6548 0.20271 0.44439 0.0
C582 C 0.71315 0.25992 0.40656 0.0
C583 C 0.67543 0.25323 0.40433 0.0
H584 H 0.37331 0.59574 0.95634 0.0
H585 H 0.42828 0.54764 0.89849 0.0
H586 H 0.48883 0.61027 0.8991 0.0
H587 H 0.52428 0.67989 0.91294 0.0
H588 H 0.46593 0.72897 0.96499 0.0
H589 H 0.40847 0.66457 0.97035 0.0
C590 C 0.39871 0.59883 0.9442 0.0
C591 C 0.39657 0.56723 0.92751 0.0
C592 C 0.43268 0.63507 0.94372 0.0
C593 C 0.42937 0.57171 0.91141 0.0
C594 C 0.4639 0.60743 0.91181 0.0
C595 C 0.49918 0.67616 0.92599 0.0
C596 C 0.49921 0.70868 0.93901 0.0
C597 C 0.46568 0.63945 0.9275 0.0
C598 C 0.4664 0.70406 0.95511 0.0
C599 C 0.43361 0.66738 0.95801 0.0
H600 H 0.42429 0.24453 0.32027 0.0
H601 H 0.43602 0.14339 0.30817 0.0
H602 H 0.43312 0.14863 0.25027 0.0
H603 H 0.4301 0.1839 0.20316 0.0
H604 H 0.42698 0.28973 0.2156 0.0
H605 H 0.42349 0.2809 0.27337 0.0
C606 C 0.42577 0.22342 0.30488 0.0
C607 C 0.42984 0.19331 0.31826 0.0
C608 C 0.42577 0.22766 0.27178 0.0
C609 C 0.4327 0.16666 0.29825 0.0
C610 C 0.43106 0.16969 0.26524 0.0
C611 C 0.42825 0.20473 0.21862 0.0
C612 C 0.4283 0.23716 0.20538 0.0
C613 C 0.42797 0.20029 0.25175 0.0
C614 C 0.42681 0.26452 0.22545 0.0
C615 C 0.42484 0.25946 0.25838 0.0
H616 H 0.1691 0.41756 0.71976 0.0
H617 H 0.26996 0.41194 0.69102 0.0
H618 H 0.28653 0.40948 0.74663 0.0
H619 H 0.27471 0.41379 0.80362 0.0
H620 H 0.17081 0.41392 0.83209 0.0
H621 H 0.15271 0.41307 0.77658 0.0
C622 C 0.19443 0.41537 0.7258 0.0
C623 C 0.21852 0.41533 0.70157 0.0
C624 C 0.20323 0.413 0.75775 0.0
C625 C 0.251 0.41197 0.70944 0.0
C626 C 0.26057 0.41072 0.74118 0.0
C627 C 0.24786 0.41304 0.79758 0.0
C628 C 0.2243 0.4142 0.82184 0.0
C629 C 0.23725 0.41189 0.76557 0.0
C630 C 0.18936 0.41285 0.81381 0.0
C631 C 0.1791 0.41264 0.78207 0.0
H632 H 0.86784 0.27005 0.29895 0.0
H633 H 0.7651 0.16855 0.33275 0.0
H634 H 0.74445 0.14733 0.27821 0.0
H635 H 0.75303 0.16035 0.22074 0.0
H636 H 0.85814 0.25889 0.18671 0.0
H637 H 0.8806 0.27839 0.24131 0.0
C638 C 0.84123 0.24306 0.29428 0.0
C639 C 0.81788 0.22109 0.31975 0.0
C640 C 0.82984 0.2306 0.26282 0.0
C641 C 0.78365 0.18591 0.3135 0.0
C642 C 0.77168 0.17385 0.28232 0.0
C643 C 0.78104 0.18578 0.22538 0.0
C644 C 0.80376 0.20836 0.19991 0.0
C645 C 0.79414 0.19636 0.25679 0.0
C646 C 0.84022 0.24101 0.20604 0.0
C647 C 0.85298 0.25229 0.23723 0.0
H648 H 0.60125 0.85156 0.80177 0.0
H649 H 0.60622 0.75042 0.83094 0.0
H650 H 0.6065 0.73247 0.77536 0.0
H651 H 0.6011 0.74357 0.71827 0.0
H652 H 0.60203 0.84789 0.68939 0.0
H653 H 0.60386 0.86672 0.74488 0.0
C654 C 0.60286 0.82588 0.79585 0.0
C655 C 0.60344 0.80218 0.82023 0.0
C656 C 0.60383 0.81621 0.76391 0.0
C657 C 0.60594 0.76918 0.81245 0.0
C658 C 0.60585 0.75878 0.78071 0.0
C659 C 0.60204 0.77054 0.72426 0.0
C660 C 0.60109 0.79415 0.69995 0.0
C661 C 0.60413 0.78173 0.75623 0.0
C662 C 0.60283 0.82931 0.70781 0.0
C663 C 0.60372 0.84003 0.7395 0.0
H664 H 0.77954 0.60415 0.20305 0.0
H665 H 0.87714 0.58679 0.21648 0.0
H666 H 0.87231 0.5914 0.27415 0.0
H667 H 0.8378 0.59627 0.32067 0.0
H668 H 0.73519 0.60512 0.30749 0.0
H669 H 0.74453 0.60834 0.24974 0.0
C670 C 0.79999 0.60183 0.21866 0.0
C671 C 0.82885 0.59543 0.20567 0.0
C672 C 0.79602 0.60296 0.25175 0.0
C673 C 0.85471 0.5917 0.22604 0.0
C674 C 0.85196 0.59438 0.25895 0.0
C675 C 0.81793 0.59962 0.30511 0.0
C676 C 0.78621 0.6011 0.31815 0.0
C677 C 0.82245 0.59951 0.27205 0.0
C678 C 0.75996 0.60428 0.29786 0.0
C679 C 0.76524 0.60597 0.26492 0.0
H680 H 0.25315 0.84461 0.81916 0.0
H681 H 0.14697 0.73522 0.81005 0.0
H682 H 0.14955 0.74212 0.75215 0.0
H683 H 0.1846 0.77697 0.70401 0.0
H684 H 0.29507 0.88195 0.71297 0.0
H685 H 0.28832 0.87945 0.77091 0.0
C686 C 0.23032 0.82264 0.80443 0.0
C687 C 0.1997 0.78964 0.81871 0.0
C688 C 0.23297 0.82601 0.77114 0.0
C689 C 0.17073 0.76089 0.79948 0.0
C690 C 0.17224 0.76483 0.76643 0.0
C691 C 0.20683 0.79961 0.7187 0.0
C692 C 0.24007 0.82986 0.70436 0.0
C693 C 0.20356 0.79694 0.75197 0.0
C694 C 0.26917 0.85852 0.72357 0.0
C695 C 0.26534 0.85702 0.75665 0.0
H696 H 0.23495 0.93312 0.0142 0.0
H697 H 0.26928 1.00029 0.92804 0.0
H698 H 0.29859 0.06042 0.95907 0.0
H699 H 0.31462 0.09368 1.01072 0.0
H700 H 0.2824 0.02639 0.09696 0.0
H701 H 0.252 0.96653 0.06592 0.0
C702 C 0.24967 0.96094 1.00228 0.0
C703 C 0.25104 0.96236 0.96894 0.0
C704 C 0.26666 0.99534 0.02029 0.0
C705 C 0.26833 0.99855 0.95373 0.0
C706 C 0.28512 0.0329 0.97145 0.0
C707 C 0.30189 0.06607 0.02279 0.0
C708 C 0.30178 0.06472 0.0562 0.0
C709 C 0.28471 0.03166 1.00477 0.0
C710 C 0.28314 0.02837 0.07129 0.0
C711 C 0.26582 0.99406 0.05356 0.0
H712 H 0.20796 0.25113 0.53237 0.0
H713 H 0.31114 0.36382 0.5357 0.0
H714 H 0.34435 0.34123 0.50052 0.0
H715 H 0.34437 0.2893 0.46923 0.0
H716 H 0.24173 0.17631 0.46575 0.0
H717 H 0.20776 0.19914 0.50025 0.0
C718 C 0.23767 0.27067 0.52524 0.0
C719 C 0.25682 0.30925 0.53605 0.0
C720 C 0.25667 0.2574 0.50508 0.0
C721 C 0.29536 0.33433 0.52689 0.0
C722 C 0.31453 0.32132 0.50703 0.0
C723 C 0.31477 0.26954 0.47641 0.0
C724 C 0.2958 0.23098 0.46562 0.0
C725 C 0.29551 0.28291 0.49607 0.0
C726 C 0.25694 0.20609 0.47402 0.0
C727 C 0.23759 0.21908 0.49377 0.0
H728 H 0.94234 0.2786 0.02151 0.0
H729 H 0.96785 0.1971 0.06762 0.0
H730 H 0.02933 0.22451 0.03928 0.0
H731 H 0.07554 0.27119 1.0008 0.0
H732 H 0.05243 0.35598 0.95836 0.0
H733 H 0.99074 0.32868 0.98687 0.0
C734 C 0.96183 0.26771 0.02647 0.0
C735 C 0.95075 0.23644 0.04744 0.0
C736 C 0.99756 0.28421 1.01069 0.0
C737 C 0.97569 0.22134 0.05181 0.0
C738 C 1.01091 0.23701 0.03565 0.0
C739 C 0.05697 0.2837 0.99805 0.0
C740 C 0.06818 0.31541 0.97771 0.0
C741 C 0.02204 0.26832 0.01493 0.0
C742 C 0.04427 0.3317 0.97421 0.0
C743 C 1.00904 0.31602 0.99037 0.0
H744 H 0.7338 0.98809 0.5748 0.0
H745 H 0.70269 0.90831 0.49627 0.0
H746 H 0.72872 0.96238 0.45878 0.0
H747 H 0.75953 0.03227 0.44843 0.0
H748 H 0.79414 0.11224 0.52723 0.0
H749 H 0.76749 0.0583 0.56451 0.0
C750 C 0.73279 0.98267 0.54945 0.0
C751 C 0.71527 0.94438 0.53814 0.0
C752 C 0.74823 0.0139 0.52814 0.0
C753 C 0.71465 0.93756 0.50537 0.0
C754 C 0.72988 0.96844 0.48398 0.0
C755 C 0.76127 0.03788 0.47378 0.0
C756 C 0.77766 0.07621 0.48495 0.0
C757 C 0.74646 1.00671 0.49511 0.0
C758 C 0.78016 0.08306 0.51785 0.0
C759 C 0.76537 0.05219 0.53926 0.0
H760 H 0.73309 0.67162 0.04574 0.0
H761 H 0.84043 0.77925 0.05834 0.0
H762 H 0.81653 0.81243 0.02407 0.0
H763 H 0.76499 0.81062 0.9904 0.0
H764 H 0.65806 0.70259 0.97763 0.0
H765 H 0.68201 0.66961 0.0118 0.0
C766 C 0.75154 0.70214 0.04047 0.0
C767 C 0.78879 0.7228 0.05392 0.0
C768 C 0.73755 0.72096 0.02091 0.0
C769 C 0.81173 0.76272 0.04802 0.0
C770 C 0.79812 0.78166 0.02841 0.0
C771 C 0.74702 0.77986 0.99514 0.0
C772 C 0.70954 0.75924 0.98211 0.0
C773 C 0.76108 0.76105 0.01472 0.0
C774 C 0.68655 0.71936 0.98821 0.0
C775 C 0.70037 0.7004 1.00749 0.0
H776 H 0.96473 0.76183 0.47969 0.0
H777 H 0.95734 0.65011 0.47583 0.0
H778 H 1.01331 0.67338 0.51112 0.0
H779 H 0.06406 0.72531 0.54361 0.0
H780 H 0.07188 0.83721 0.54763 0.0
H781 H 0.01595 0.81407 0.51205 0.0
C782 C 0.97546 0.74266 0.4866 0.0
C783 C 0.95643 0.70409 0.47569 0.0
C784 C 1.00777 0.7563 0.50691 0.0
C785 C 0.97069 0.67956 0.48467 0.0
C786 C 1.00296 0.69297 0.50463 0.0
C787 C 0.05399 0.74484 0.53623 0.0
C788 C 0.07258 0.78317 0.54769 0.0
C789 C 0.02169 0.73125 0.51595 0.0
C790 C 0.05817 0.80763 0.53894 0.0
C791 C 0.02625 0.79444 0.51857 0.0
H792 H 0.74753 0.0598 0.03611 0.0
H793 H 0.64482 0.07035 0.03535 0.0
H794 H 0.60918 1.0084 1.00799 0.0
H795 H 0.60682 0.95055 0.98533 0.0
H796 H 0.7135 0.94877 0.97328 0.0
H797 H 0.74802 1.00795 1.00467 0.0
C798 C 0.71772 0.04933 0.02928 0.0
C799 C 0.69881 0.06956 0.03881 0.0
C800 C 0.69796 0.01489 0.01148 0.0
C801 C 0.65984 0.05476 0.02989 0.0
C802 C 0.63946 0.01947 0.01375 0.0
C803 C 0.63779 0.96346 0.98865 0.0
C804 C 0.65712 0.94437 0.97736 0.0
C805 C 0.65817 0.99913 1.00464 0.0
C806 C 0.69727 0.9616 0.98276 0.0
C807 C 0.71727 0.99591 1.00033 0.0
H808 H 0.7311 0.641 0.52853 0.0
H809 H 0.70772 0.66447 0.43375 0.0
H810 H 0.67766 0.70047 0.45503 0.0
H811 H 0.65435 0.72179 0.50092 0.0
H812 H 0.67532 0.69599 0.5957 0.0
H813 H 0.71015 0.66467 0.57448 0.0
C814 C 0.71974 0.65443 0.51271 0.0
C815 C 0.7214 0.65026 0.47976 0.0
C816 C 0.70194 0.67447 0.52518 0.0
C817 C 0.70656 0.66747 0.45925 0.0
C818 C 0.68937 0.68793 0.4714 0.0
C819 C 0.66701 0.70964 0.51678 0.0
C820 C 0.66238 0.71093 0.5497 0.0
C821 C 0.68636 0.69114 0.50433 0.0
C822 C 0.6786 0.69508 0.57022 0.0
C823 C 0.6984 0.67717 0.55811 0.0
H824 H 0.93966 0.66059 1.0025 0.0
H825 H 0.98811 0.65909 0.09366 0.0
H826 H 0.05361 0.69327 0.07142 0.0
H827 H 0.09695 0.7206 0.02519 0.0
H828 H 0.04882 0.72119 0.93374 0.0
H829 H 0.98346 0.69059 0.95661 0.0
C830 C 0.96471 0.66819 0.01741 0.0
C831 C 0.95934 0.65727 0.04953 0.0
C832 C 1.00224 0.6875 1.00432 0.0
C833 C 0.99178 0.66707 0.06878 0.0
C834 C 0.02914 0.68655 0.05609 0.0
C835 C 0.07205 0.7143 1.0105 0.0
C836 C 0.07726 0.72303 0.97801 0.0
C837 C 0.03471 0.69644 0.0238 0.0
C838 C 0.04513 0.71471 0.95891 0.0
C839 C 1.00788 0.69719 0.97195 0.0
H840 H 0.31397 0.97691 0.56967 0.0
H841 H 0.30695 0.90611 0.48978 0.0
H842 H 0.33709 0.96358 0.4555 0.0
H843 H 0.3663 0.03431 0.44865 0.0
H844 H 0.3746 0.10539 0.52882 0.0
H845 H 0.34269 0.04772 0.56267 0.0
C846 C 0.31896 0.9743 0.5447 0.0
C847 C 0.30835 0.9377 0.53199 0.0
C848 C 0.33649 1.00748 0.52533 0.0
C849 C 0.31492 0.93422 0.49978 0.0
C850 C 0.33214 0.967 0.4803 0.0
C851 C 0.36137 0.03705 0.47361 0.0
C852 C 0.37312 0.07389 0.48646 0.0
C853 C 0.34328 1.00381 0.49286 0.0
C854 C 0.36583 0.07719 0.51858 0.0
C855 C 0.34769 0.0443 0.53788 0.0
H856 H 0.30244 0.38195 0.02815 0.0
H857 H 0.30877 0.34125 0.93481 0.0
H858 H 0.3369 0.30392 0.95707 0.0
H859 H 0.36372 0.28629 1.00298 0.0
H860 H 0.36004 0.3294 0.09597 0.0
H861 H 0.32668 0.36203 0.07438 0.0
C862 C 0.30964 0.36448 0.0129 0.0
C863 C 0.30373 0.36417 0.98002 0.0
C864 C 0.3264 0.34369 0.02586 0.0
C865 C 0.31323 0.34176 0.96024 0.0
C866 C 0.32933 0.32053 0.97295 0.0
C867 C 0.35508 0.30246 0.01841 0.0
C868 C 0.3642 0.30566 0.05089 0.0
C869 C 0.33661 0.32173 1.00567 0.0
C870 C 0.35323 0.32676 0.07084 0.0
C871 C 0.33428 0.34544 0.0585 0.0
H872 H 0.09586 0.36855 0.50315 0.0
H873 H 0.04164 0.35391 0.59441 0.0
H874 H 0.97744 0.3215 0.56931 0.0
H875 H 0.93693 0.30006 0.52084 0.0
H876 H 0.99121 0.31493 0.4296 0.0
H877 H 0.05516 0.34413 0.45498 0.0
C878 C 0.06986 0.35794 0.51741 0.0
C879 C 0.07316 0.36387 0.5504 0.0
C880 C 0.03319 0.33947 0.50278 0.0
C881 C 0.03953 0.35004 0.56886 0.0
C882 C 1.00293 0.33145 0.55455 0.0
C883 C 0.96286 0.30942 0.50671 0.0
C884 C 0.95978 0.30589 0.47353 0.0
C885 C 0.99942 0.32642 0.52148 0.0
C886 C 0.99325 0.31792 0.45522 0.0
C887 C 0.0297 0.33454 0.4697 0.0
loop_
_geom_bond_atom_site_label_1
_geom_bond_atom_site_label_2
_geom_bond_distance
_geom_bond_site_symmetry_2
_ccdc_geom_bond_type
Co0 O3 1.970 . S
Co0 N17 1.989 . S
Co0 O25 1.967 . S
Co0 O32 1.920 . S
Co1 O4 1.966 . S
Co1 N10 2.022 . S
Co1 N18 1.993 . S
Co1 O26 1.941 . S
C2 O3 1.258 . S
C2 O4 1.263 . S
O3 Co0 1.970 . S
O3 C2 1.258 . S
O4 Co1 1.966 . S
O4 C2 1.263 . S
C5 O6 1.235 . S
C5 O32 1.289 . S
O6 C5 1.235 . S
C7 C9 1.400 . S
C7 N10 1.351 . S
C7 C12 1.501 . S
C8 C9 1.387 . S
C8 N11 1.341 . S
C9 C7 1.400 . S
C9 C8 1.387 . S
N10 Co1 2.022 . S
N10 C7 1.351 . S
N10 N11 1.365 . S
N11 C8 1.341 . S
N11 N10 1.365 . S
N11 H31 0.862 . S
C12 C7 1.501 . S
C12 H13 0.961 . S
C12 H14 0.961 . S
C12 H15 0.960 . S
H13 C12 0.961 . S
H14 C12 0.961 . S
H15 C12 0.960 . S
C16 N17 1.342 . S
C16 C20 1.401 . S
C16 C21 1.499 . S
N17 Co0 1.989 . S
N17 C16 1.342 . S
N17 N18 1.388 . S
N18 Co1 1.993 . S
N18 N17 1.388 . S
N18 C19 1.346 . S
C19 N18 1.346 . S
C19 C20 1.396 . S
C19 C29 1.510 . S
C20 C16 1.401 . S
C20 C19 1.396 . S
C21 C16 1.499 . S
C21 H22 0.959 . S
C21 H23 0.960 . S
C21 H24 0.961 . S
H22 C21 0.959 . S
H23 C21 0.960 . S
H24 C21 0.961 . S
O25 Co0 1.967 . S
O25 C33 1.258 . S
O26 Co1 1.941 . S
O26 C33 1.266 . S
H27 C29 0.959 . S
H28 C29 0.961 . S
C29 C19 1.510 . S
C29 H27 0.959 . S
C29 H28 0.961 . S
C29 H30 0.960 . S
H30 C29 0.960 . S
H31 N11 0.862 . S
O32 Co0 1.920 . S
O32 C5 1.289 . S
C33 O25 1.258 . S
C33 O26 1.266 . S
Co34 O37 1.970 . S
Co34 N51 1.989 . S
Co34 O59 1.967 . S
Co34 O66 1.920 . S
Co35 O38 1.966 . S
Co35 N44 2.022 . S
Co35 N52 1.993 . S
Co35 O60 1.941 . S
C36 O37 1.258 . S
C36 O38 1.263 . S
O37 Co34 1.970 . S
O37 C36 1.258 . S
O38 Co35 1.966 . S
O38 C36 1.263 . S
C39 O40 1.235 . S
C39 O66 1.289 . S
O40 C39 1.235 . S
C41 C43 1.400 . S
C41 N44 1.351 . S
C41 C46 1.501 . S
C42 C43 1.387 . S
C42 N45 1.341 . S
C43 C41 1.400 . S
C43 C42 1.387 . S
N44 Co35 2.022 . S
N44 C41 1.351 . S
N44 N45 1.365 . S
N45 C42 1.341 . S
N45 N44 1.365 . S
N45 H65 0.862 . S
C46 C41 1.501 . S
C46 H47 0.961 . S
C46 H48 0.961 . S
C46 H49 0.960 . S
H47 C46 0.961 . S
H48 C46 0.961 . S
H49 C46 0.960 . S
C50 N51 1.342 . S
C50 C54 1.401 . S
C50 C55 1.499 . S
N51 Co34 1.989 . S
N51 C50 1.342 . S
N51 N52 1.388 . S
N52 Co35 1.993 . S
N52 N51 1.388 . S
N52 C53 1.346 . S
C53 N52 1.346 . S
C53 C54 1.396 . S
C53 C63 1.510 . S
C54 C50 1.401 . S
C54 C53 1.396 . S
C55 C50 1.499 . S
C55 H56 0.959 . S
C55 H57 0.960 . S
C55 H58 0.961 . S
H56 C55 0.959 . S
H57 C55 0.960 . S
H58 C55 0.961 . S
O59 Co34 1.967 . S
O59 C67 1.258 . S
O60 Co35 1.941 . S
O60 C67 1.266 . S
H61 C63 0.959 . S
H62 C63 0.961 . S
C63 C53 1.510 . S
C63 H61 0.959 . S
C63 H62 0.961 . S
C63 H64 0.960 . S
H64 C63 0.960 . S
H65 N45 0.862 . S
O66 Co34 1.920 . S
O66 C39 1.289 . S
C67 O59 1.258 . S
C67 O60 1.266 . S
Co68 O71 1.970 . S
Co68 N85 1.989 . S
Co68 O93 1.967 . S
Co68 O100 1.920 . S
Co69 O72 1.966 . S
Co69 N78 2.022 . S
Co69 N86 1.993 . S
Co69 O94 1.941 . S
C70 O71 1.258 . S
C70 O72 1.263 . S
O71 Co68 1.970 . S
O71 C70 1.258 . S
O72 Co69 1.966 . S
O72 C70 1.263 . S
C73 O74 1.235 . S
C73 O100 1.289 . S
O74 C73 1.235 . S
C75 C77 1.400 . S
C75 N78 1.351 . S
C75 C80 1.501 . S
C76 C77 1.387 . S
C76 N79 1.341 . S
C77 C75 1.400 . S
C77 C76 1.387 . S
N78 Co69 2.022 . S
N78 C75 1.351 . S
N78 N79 1.365 . S
N79 C76 1.341 . S
N79 N78 1.365 . S
N79 H99 0.862 . S
C80 C75 1.501 . S
C80 H81 0.961 . S
C80 H82 0.961 . S
C80 H83 0.960 . S
H81 C80 0.961 . S
H82 C80 0.961 . S
H83 C80 0.960 . S
C84 N85 1.342 . S
C84 C88 1.401 . S
C84 C89 1.499 . S
N85 Co68 1.989 . S
N85 C84 1.342 . S
N85 N86 1.388 . S
N86 Co69 1.993 . S
N86 N85 1.388 . S
N86 C87 1.346 . S
C87 N86 1.346 . S
C87 C88 1.396 . S
C87 C97 1.510 . S
C88 C84 1.401 . S
C88 C87 1.396 . S
C89 C84 1.499 . S
C89 H90 0.959 . S
C89 H91 0.960 . S
C89 H92 0.961 . S
H90 C89 0.959 . S
H91 C89 0.960 . S
H92 C89 0.961 . S
O93 Co68 1.967 . S
O93 C101 1.258 . S
O94 Co69 1.941 . S
O94 C101 1.266 . S
H95 C97 0.959 . S
H96 C97 0.961 . S
C97 C87 1.510 . S
C97 H95 0.959 . S
C97 H96 0.961 . S
C97 H98 0.960 . S
H98 C97 0.960 . S
H99 N79 0.862 . S
O100 Co68 1.920 . S
O100 C73 1.289 . S
C101 O93 1.258 . S
C101 O94 1.266 . S
Co102 O105 1.970 . S
Co102 N119 1.989 . S
Co102 O127 1.967 . S
Co102 O134 1.920 . S
Co103 O106 1.966 . S
Co103 N112 2.022 . S
Co103 N120 1.993 . S
Co103 O128 1.941 . S
C104 O105 1.258 . S
C104 O106 1.263 . S
O105 Co102 1.970 . S
O105 C104 1.258 . S
O106 Co103 1.966 . S
O106 C104 1.263 . S
C107 O108 1.235 . S
C107 O134 1.289 . S
O108 C107 1.235 . S
C109 C111 1.400 . S
C109 N112 1.351 . S
C109 C114 1.501 . S
C110 C111 1.387 . S
C110 N113 1.341 . S
C111 C109 1.400 . S
C111 C110 1.387 . S
N112 Co103 2.022 . S
N112 C109 1.351 . S
N112 N113 1.365 . S
N113 C110 1.341 . S
N113 N112 1.365 . S
N113 H133 0.862 . S
C114 C109 1.501 . S
C114 H115 0.961 . S
C114 H116 0.961 . S
C114 H117 0.960 . S
H115 C114 0.961 . S
H116 C114 0.961 . S
H117 C114 0.960 . S
C118 N119 1.342 . S
C118 C122 1.401 . S
C118 C123 1.499 . S
N119 Co102 1.989 . S
N119 C118 1.342 . S
N119 N120 1.388 . S
N120 Co103 1.993 . S
N120 N119 1.388 . S
N120 C121 1.346 . S
C121 N120 1.346 . S
C121 C122 1.396 . S
C121 C131 1.510 . S
C122 C118 1.401 . S
C122 C121 1.396 . S
C123 C118 1.499 . S
C123 H124 0.959 . S
C123 H125 0.960 . S
C123 H126 0.961 . S
H124 C123 0.959 . S
H125 C123 0.960 . S
H126 C123 0.961 . S
O127 Co102 1.967 . S
O127 C135 1.258 . S
O128 Co103 1.941 . S
O128 C135 1.266 . S
H129 C131 0.959 . S
H130 C131 0.961 . S
C131 C121 1.510 . S
C131 H129 0.959 . S
C131 H130 0.961 . S
C131 H132 0.960 . S
H132 C131 0.960 . S
H133 N113 0.862 . S
O134 Co102 1.920 . S
O134 C107 1.289 . S
C135 O127 1.258 . S
C135 O128 1.266 . S
Co136 O139 1.970 . S
Co136 N153 1.989 . S
Co136 O161 1.967 . S
Co136 O168 1.920 . S
Co137 O140 1.966 . S
Co137 N146 2.022 . S
Co137 N154 1.993 . S
Co137 O162 1.941 . S
C138 O139 1.258 . S
C138 O140 1.263 . S
O139 Co136 1.970 . S
O139 C138 1.258 . S
O140 Co137 1.966 . S
O140 C138 1.263 . S
C141 O142 1.235 . S
C141 O168 1.289 . S
O142 C141 1.235 . S
C143 C145 1.400 . S
C143 N146 1.351 . S
C143 C148 1.501 . S
C144 C145 1.387 . S
C144 N147 1.341 . S
C145 C143 1.400 . S
C145 C144 1.387 . S
N146 Co137 2.022 . S
N146 C143 1.351 . S
N146 N147 1.365 . S
N147 C144 1.341 . S
N147 N146 1.365 . S
N147 H167 0.862 . S
C148 C143 1.501 . S
C148 H149 0.961 . S
C148 H150 0.961 . S
C148 H151 0.960 . S
H149 C148 0.961 . S
H150 C148 0.961 . S
H151 C148 0.960 . S
C152 N153 1.342 . S
C152 C156 1.401 . S
C152 C157 1.499 . S
N153 Co136 1.989 . S
N153 C152 1.342 . S
N153 N154 1.388 . S
N154 Co137 1.993 . S
N154 N153 1.388 . S
N154 C155 1.346 . S
C155 N154 1.346 . S
C155 C156 1.396 . S
C155 C165 1.510 . S
C156 C152 1.401 . S
C156 C155 1.396 . S
C157 C152 1.499 . S
C157 H158 0.959 . S
C157 H159 0.960 . S
C157 H160 0.961 . S
H158 C157 0.959 . S
H159 C157 0.960 . S
H160 C157 0.961 . S
O161 Co136 1.967 . S
O161 C169 1.258 . S
O162 Co137 1.941 . S
O162 C169 1.266 . S
H163 C165 0.959 . S
H164 C165 0.961 . S
C165 C155 1.510 . S
C165 H163 0.959 . S
C165 H164 0.961 . S
C165 H166 0.960 . S
H166 C165 0.960 . S
H167 N147 0.862 . S
O168 Co136 1.920 . S
O168 C141 1.289 . S
C169 O161 1.258 . S
C169 O162 1.266 . S
Co170 O173 1.970 . S
Co170 N187 1.989 . S
Co170 O195 1.967 . S
Co170 O202 1.920 . S
Co171 O174 1.966 . S
Co171 N180 2.022 . S
Co171 N188 1.993 . S
Co171 O196 1.941 . S
C172 O173 1.258 . S
C172 O174 1.263 . S
O173 Co170 1.970 . S
O173 C172 1.258 . S
O174 Co171 1.966 . S
O174 C172 1.263 . S
C175 O176 1.235 . S
C175 O202 1.289 . S
O176 C175 1.235 . S
C177 C179 1.400 . S
C177 N180 1.351 . S
C177 C182 1.501 . S
C178 C179 1.387 . S
C178 N181 1.341 . S
C179 C177 1.400 . S
C179 C178 1.387 . S
N180 Co171 2.022 . S
N180 C177 1.351 . S
N180 N181 1.365 . S
N181 C178 1.341 . S
N181 N180 1.365 . S
N181 H201 0.862 . S
C182 C177 1.501 . S
C182 H183 0.961 . S
C182 H184 0.961 . S
C182 H185 0.960 . S
H183 C182 0.961 . S
H184 C182 0.961 . S
H185 C182 0.960 . S
C186 N187 1.342 . S
C186 C190 1.401 . S
C186 C191 1.499 . S
N187 Co170 1.989 . S
N187 C186 1.342 . S
N187 N188 1.388 . S
N188 Co171 1.993 . S
N188 N187 1.388 . S
N188 C189 1.346 . S
C189 N188 1.346 . S
C189 C190 1.396 . S
C189 C199 1.510 . S
C190 C186 1.401 . S
C190 C189 1.396 . S
C191 C186 1.499 . S
C191 H192 0.959 . S
C191 H193 0.960 . S
C191 H194 0.961 . S
H192 C191 0.959 . S
H193 C191 0.960 . S
H194 C191 0.961 . S
O195 Co170 1.967 . S
O195 C203 1.258 . S
O196 Co171 1.941 . S
O196 C203 1.266 . S
H197 C199 0.959 . S
H198 C199 0.961 . S
C199 C189 1.510 . S
C199 H197 0.959 . S
C199 H198 0.961 . S
C199 H200 0.960 . S
H200 C199 0.960 . S
H201 N181 0.862 . S
O202 Co170 1.920 . S
O202 C175 1.289 . S
C203 O195 1.258 . S
C203 O196 1.266 . S
Co204 O207 1.970 . S
Co204 N221 1.989 . S
Co204 O229 1.967 . S
Co204 O236 1.920 . S
Co205 O208 1.966 . S
Co205 N214 2.022 . S
Co205 N222 1.993 . S
Co205 O230 1.941 . S
C206 O207 1.258 . S
C206 O208 1.263 . S
O207 Co204 1.970 . S
O207 C206 1.258 . S
O208 Co205 1.966 . S
O208 C206 1.263 . S
C209 O210 1.235 . S
C209 O236 1.289 . S
O210 C209 1.235 . S
C211 C213 1.400 . S
C211 N214 1.351 . S
C211 C216 1.501 . S
C212 C213 1.387 . S
C212 N215 1.341 . S
C213 C211 1.400 . S
C213 C212 1.387 . S
N214 Co205 2.022 . S
N214 C211 1.351 . S
N214 N215 1.365 . S
N215 C212 1.341 . S
N215 N214 1.365 . S
N215 H235 0.862 . S
C216 C211 1.501 . S
C216 H217 0.961 . S
C216 H218 0.961 . S
C216 H219 0.960 . S
H217 C216 0.961 . S
H218 C216 0.961 . S
H219 C216 0.960 . S
C220 N221 1.342 . S
C220 C224 1.401 . S
C220 C225 1.499 . S
N221 Co204 1.989 . S
N221 C220 1.342 . S
N221 N222 1.388 . S
N222 Co205 1.993 . S
N222 N221 1.388 . S
N222 C223 1.346 . S
C223 N222 1.346 . S
C223 C224 1.396 . S
C223 C233 1.510 . S
C224 C220 1.401 . S
C224 C223 1.396 . S
C225 C220 1.499 . S
C225 H226 0.959 . S
C225 H227 0.960 . S
C225 H228 0.961 . S
H226 C225 0.959 . S
H227 C225 0.960 . S
H228 C225 0.961 . S
O229 Co204 1.967 . S
O229 C237 1.258 . S
O230 Co205 1.941 . S
O230 C237 1.266 . S
H231 C233 0.959 . S
H232 C233 0.961 . S
C233 C223 1.510 . S
C233 H231 0.959 . S
C233 H232 0.961 . S
C233 H234 0.960 . S
H234 C233 0.960 . S
H235 N215 0.862 . S
O236 Co204 1.920 . S
O236 C209 1.289 . S
C237 O229 1.258 . S
C237 O230 1.266 . S
Co238 O241 1.970 . S
Co238 N255 1.989 . S
Co238 O263 1.967 . S
Co238 O270 1.920 . S
Co239 O242 1.966 . S
Co239 N248 2.022 . S
Co239 N256 1.993 . S
Co239 O264 1.941 . S
C240 O241 1.258 . S
C240 O242 1.263 . S
O241 Co238 1.970 . S
O241 C240 1.258 . S
O242 Co239 1.966 . S
O242 C240 1.263 . S
C243 O244 1.235 . S
C243 O270 1.289 . S
O244 C243 1.235 . S
C245 C247 1.400 . S
C245 N248 1.351 . S
C245 C250 1.501 . S
C246 C247 1.387 . S
C246 N249 1.341 . S
C247 C245 1.400 . S
C247 C246 1.387 . S
N248 Co239 2.022 . S
N248 C245 1.351 . S
N248 N249 1.365 . S
N249 C246 1.341 . S
N249 N248 1.365 . S
N249 H269 0.862 . S
C250 C245 1.501 . S
C250 H251 0.961 . S
C250 H252 0.961 . S
C250 H253 0.960 . S
H251 C250 0.961 . S
H252 C250 0.961 . S
H253 C250 0.960 . S
C254 N255 1.342 . S
C254 C258 1.401 . S
C254 C259 1.499 . S
N255 Co238 1.989 . S
N255 C254 1.342 . S
N255 N256 1.388 . S
N256 Co239 1.993 . S
N256 N255 1.388 . S
N256 C257 1.346 . S
C257 N256 1.346 . S
C257 C258 1.396 . S
C257 C267 1.510 . S
C258 C254 1.401 . S
C258 C257 1.396 . S
C259 C254 1.499 . S
C259 H260 0.959 . S
C259 H261 0.960 . S
C259 H262 0.961 . S
H260 C259 0.959 . S
H261 C259 0.960 . S
H262 C259 0.961 . S
O263 Co238 1.967 . S
O263 C271 1.258 . S
O264 Co239 1.941 . S
O264 C271 1.266 . S
H265 C267 0.959 . S
H266 C267 0.961 . S
C267 C257 1.510 . S
C267 H265 0.959 . S
C267 H266 0.961 . S
C267 H268 0.960 . S
H268 C267 0.960 . S
H269 N249 0.862 . S
O270 Co238 1.920 . S
O270 C243 1.289 . S
C271 O263 1.258 . S
C271 O264 1.266 . S
Co272 O275 1.970 . S
Co272 N289 1.989 . S
Co272 O297 1.967 . S
Co272 O304 1.920 . S
Co273 O276 1.966 . S
Co273 N282 2.022 . S
Co273 N290 1.993 . S
Co273 O298 1.941 . S
C274 O275 1.258 . S
C274 O276 1.263 . S
O275 Co272 1.970 . S
O275 C274 1.258 . S
O276 Co273 1.966 . S
O276 C274 1.263 . S
C277 O278 1.235 . S
C277 O304 1.289 . S
O278 C277 1.235 . S
C279 C281 1.400 . S
C279 N282 1.351 . S
C279 C284 1.501 . S
C280 C281 1.387 . S
C280 N283 1.341 . S
C281 C279 1.400 . S
C281 C280 1.387 . S
N282 Co273 2.022 . S
N282 C279 1.351 . S
N282 N283 1.365 . S
N283 C280 1.341 . S
N283 N282 1.365 . S
N283 H303 0.862 . S
C284 C279 1.501 . S
C284 H285 0.961 . S
C284 H286 0.961 . S
C284 H287 0.960 . S
H285 C284 0.961 . S
H286 C284 0.961 . S
H287 C284 0.960 . S
C288 N289 1.342 . S
C288 C292 1.401 . S
C288 C293 1.499 . S
N289 Co272 1.989 . S
N289 C288 1.342 . S
N289 N290 1.388 . S
N290 Co273 1.993 . S
N290 N289 1.388 . S
N290 C291 1.346 . S
C291 N290 1.346 . S
C291 C292 1.396 . S
C291 C301 1.510 . S
C292 C288 1.401 . S
C292 C291 1.396 . S
C293 C288 1.499 . S
C293 H294 0.959 . S
C293 H295 0.960 . S
C293 H296 0.961 . S
H294 C293 0.959 . S
H295 C293 0.960 . S
H296 C293 0.961 . S
O297 Co272 1.967 . S
O297 C305 1.258 . S
O298 Co273 1.941 . S
O298 C305 1.266 . S
H299 C301 0.959 . S
H300 C301 0.961 . S
C301 C291 1.510 . S
C301 H299 0.959 . S
C301 H300 0.961 . S
C301 H302 0.960 . S
H302 C301 0.960 . S
H303 N283 0.862 . S
O304 Co272 1.920 . S
O304 C277 1.289 . S
C305 O297 1.258 . S
C305 O298 1.266 . S
Co306 O309 1.970 . S
Co306 N323 1.989 . S
Co306 O331 1.967 . S
Co306 O338 1.920 . S
Co307 O310 1.966 . S
Co307 N316 2.022 . S
Co307 N324 1.993 . S
Co307 O332 1.941 . S
C308 O309 1.258 . S
C308 O310 1.263 . S
O309 Co306 1.970 . S
O309 C308 1.258 . S
O310 Co307 1.966 . S
O310 C308 1.263 . S
C311 O312 1.235 . S
C311 O338 1.289 . S
O312 C311 1.235 . S
C313 C315 1.400 . S
C313 N316 1.351 . S
C313 C318 1.501 . S
C314 C315 1.387 . S
C314 N317 1.341 . S
C315 C313 1.400 . S
C315 C314 1.387 . S
N316 Co307 2.022 . S
N316 C313 1.351 . S
N316 N317 1.365 . S
N317 C314 1.341 . S
N317 N316 1.365 . S
N317 H337 0.862 . S
C318 C313 1.501 . S
C318 H319 0.961 . S
C318 H320 0.961 . S
C318 H321 0.960 . S
H319 C318 0.961 . S
H320 C318 0.961 . S
H321 C318 0.960 . S
C322 N323 1.342 . S
C322 C326 1.401 . S
C322 C327 1.499 . S
N323 Co306 1.989 . S
N323 C322 1.342 . S
N323 N324 1.388 . S
N324 Co307 1.993 . S
N324 N323 1.388 . S
N324 C325 1.346 . S
C325 N324 1.346 . S
C325 C326 1.396 . S
C325 C335 1.510 . S
C326 C322 1.401 . S
C326 C325 1.396 . S
C327 C322 1.499 . S
C327 H328 0.959 . S
C327 H329 0.960 . S
C327 H330 0.961 . S
H328 C327 0.959 . S
H329 C327 0.960 . S
H330 C327 0.961 . S
O331 Co306 1.967 . S
O331 C339 1.258 . S
O332 Co307 1.941 . S
O332 C339 1.266 . S
H333 C335 0.959 . S
H334 C335 0.961 . S
C335 C325 1.510 . S
C335 H333 0.959 . S
C335 H334 0.961 . S
C335 H336 0.960 . S
H336 C335 0.960 . S
H337 N317 0.862 . S
O338 Co306 1.920 . S
O338 C311 1.289 . S
C339 O331 1.258 . S
C339 O332 1.266 . S
Co340 O343 1.970 . S
Co340 N357 1.989 . S
Co340 O365 1.967 . S
Co340 O372 1.920 . S
Co341 O344 1.966 . S
Co341 N350 2.022 . S
Co341 N358 1.993 . S
Co341 O366 1.941 . S
C342 O343 1.258 . S
C342 O344 1.263 . S
O343 Co340 1.970 . S
O343 C342 1.258 . S
O344 Co341 1.966 . S
O344 C342 1.263 . S
C345 O346 1.235 . S
C345 O372 1.289 . S
O346 C345 1.235 . S
C347 C349 1.400 . S
C347 N350 1.351 . S
C347 C352 1.501 . S
C348 C349 1.387 . S
C348 N351 1.341 . S
C349 C347 1.400 . S
C349 C348 1.387 . S
N350 Co341 2.022 . S
N350 C347 1.351 . S
N350 N351 1.365 . S
N351 C348 1.341 . S
N351 N350 1.365 . S
N351 H371 0.862 . S
C352 C347 1.501 . S
C352 H353 0.961 . S
C352 H354 0.961 . S
C352 H355 0.960 . S
H353 C352 0.961 . S
H354 C352 0.961 . S
H355 C352 0.960 . S
C356 N357 1.342 . S
C356 C360 1.401 . S
C356 C361 1.499 . S
N357 Co340 1.989 . S
N357 C356 1.342 . S
N357 N358 1.388 . S
N358 Co341 1.993 . S
N358 N357 1.388 . S
N358 C359 1.346 . S
C359 N358 1.346 . S
C359 C360 1.396 . S
C359 C369 1.510 . S
C360 C356 1.401 . S
C360 C359 1.396 . S
C361 C356 1.499 . S
C361 H362 0.959 . S
C361 H363 0.960 . S
C361 H364 0.961 . S
H362 C361 0.959 . S
H363 C361 0.960 . S
H364 C361 0.961 . S
O365 Co340 1.967 . S
O365 C373 1.258 . S
O366 Co341 1.941 . S
O366 C373 1.266 . S
H367 C369 0.959 . S
H368 C369 0.961 . S
C369 C359 1.510 . S
C369 H367 0.959 . S
C369 H368 0.961 . S
C369 H370 0.960 . S
H370 C369 0.960 . S
H371 N351 0.862 . S
O372 Co340 1.920 . S
O372 C345 1.289 . S
C373 O365 1.258 . S
C373 O366 1.266 . S
Co374 O377 1.970 . S
Co374 N391 1.989 . S
Co374 O399 1.967 . S
Co374 O406 1.920 . S
Co375 O378 1.966 . S
Co375 N384 2.022 . S
Co375 N392 1.993 . S
Co375 O400 1.941 . S
C376 O377 1.258 . S
C376 O378 1.263 . S
O377 Co374 1.970 . S
O377 C376 1.258 . S
O378 Co375 1.966 . S
O378 C376 1.263 . S
C379 O380 1.235 . S
C379 O406 1.289 . S
O380 C379 1.235 . S
C381 C383 1.400 . S
C381 N384 1.351 . S
C381 C386 1.501 . S
C382 C383 1.387 . S
C382 N385 1.341 . S
C383 C381 1.400 . S
C383 C382 1.387 . S
N384 Co375 2.022 . S
N384 C381 1.351 . S
N384 N385 1.365 . S
N385 C382 1.341 . S
N385 N384 1.365 . S
N385 H405 0.862 . S
C386 C381 1.501 . S
C386 H387 0.961 . S
C386 H388 0.961 . S
C386 H389 0.960 . S
H387 C386 0.961 . S
H388 C386 0.961 . S
H389 C386 0.960 . S
C390 N391 1.342 . S
C390 C394 1.401 . S
C390 C395 1.499 . S
N391 Co374 1.989 . S
N391 C390 1.342 . S
N391 N392 1.388 . S
N392 Co375 1.993 . S
N392 N391 1.388 . S
N392 C393 1.346 . S
C393 N392 1.346 . S
C393 C394 1.396 . S
C393 C403 1.510 . S
C394 C390 1.401 . S
C394 C393 1.396 . S
C395 C390 1.499 . S
C395 H396 0.959 . S
C395 H397 0.960 . S
C395 H398 0.961 . S
H396 C395 0.959 . S
H397 C395 0.960 . S
H398 C395 0.961 . S
O399 Co374 1.967 . S
O399 C407 1.258 . S
O400 Co375 1.941 . S
O400 C407 1.266 . S
H401 C403 0.959 . S
H402 C403 0.961 . S
C403 C393 1.510 . S
C403 H401 0.959 . S
C403 H402 0.961 . S
C403 H404 0.960 . S
H404 C403 0.960 . S
H405 N385 0.862 . S
O406 Co374 1.920 . S
O406 C379 1.289 . S
C407 O399 1.258 . S
C407 O400 1.266 . S
H408 C414 0.930 . S
H409 C417 0.930 . S
H410 C418 0.930 . S
H411 C419 0.930 . S
H412 C422 0.930 . S
H413 C423 0.930 . S
C414 H408 0.930 . S
C414 C415 1.355 . S
C414 C416 1.415 . S
C415 C414 1.355 . S
C415 C417 1.419 . S
C416 C414 1.415 . S
C416 C421 1.425 . S
C416 C423 1.409 . S
C417 H409 0.930 . S
C417 C415 1.419 . S
C417 C418 1.362 . S
C418 H410 0.930 . S
C418 C417 1.362 . S
C418 C421 1.409 . S
C419 H411 0.930 . S
C419 C420 1.355 . S
C419 C421 1.415 . S
C420 C419 1.355 . S
C420 C422 1.419 . S
C421 C416 1.425 . S
C421 C418 1.409 . S
C421 C419 1.415 . S
C422 H412 0.930 . S
C422 C420 1.419 . S
C422 C423 1.362 . S
C423 H413 0.930 . S
C423 C416 1.409 . S
C423 C422 1.362 . S
H424 C430 0.930 . S
H425 C433 0.930 . S
H426 C434 0.930 . S
H427 C435 0.930 . S
H428 C438 0.930 . S
H429 C439 0.930 . S
C430 H424 0.930 . S
C430 C431 1.355 . S
C430 C432 1.415 . S
C431 C430 1.355 . S
C431 C433 1.419 . S
C432 C430 1.415 . S
C432 C437 1.425 . S
C432 C439 1.409 . S
C433 H425 0.930 . S
C433 C431 1.419 . S
C433 C434 1.362 . S
C434 H426 0.930 . S
C434 C433 1.362 . S
C434 C437 1.409 . S
C435 H427 0.930 . S
C435 C436 1.355 . S
C435 C437 1.415 . S
C436 C435 1.355 . S
C436 C438 1.419 . S
C437 C432 1.425 . S
C437 C434 1.409 . S
C437 C435 1.415 . S
C438 H428 0.930 . S
C438 C436 1.419 . S
C438 C439 1.362 . S
C439 H429 0.930 . S
C439 C432 1.409 . S
C439 C438 1.362 . S
H440 C446 0.930 . S
H441 C449 0.930 . S
H442 C450 0.930 . S
H443 C451 0.930 . S
H444 C454 0.930 . S
H445 C455 0.930 . S
C446 H440 0.930 . S
C446 C447 1.355 . S
C446 C448 1.415 . S
C447 C446 1.355 . S
C447 C449 1.419 . S
C448 C446 1.415 . S
C448 C453 1.425 . S
C448 C455 1.409 . S
C449 H441 0.930 . S
C449 C447 1.419 . S
C449 C450 1.362 . S
C450 H442 0.930 . S
C450 C449 1.362 . S
C450 C453 1.409 . S
C451 H443 0.930 . S
C451 C452 1.355 . S
C451 C453 1.415 . S
C452 C451 1.355 . S
C452 C454 1.419 . S
C453 C448 1.425 . S
C453 C450 1.409 . S
C453 C451 1.415 . S
C454 H444 0.930 . S
C454 C452 1.419 . S
C454 C455 1.362 . S
C455 H445 0.930 . S
C455 C448 1.409 . S
C455 C454 1.362 . S
H456 C462 0.930 . S
H457 C465 0.930 . S
H458 C466 0.930 . S
H459 C467 0.930 . S
H460 C470 0.930 . S
H461 C471 0.930 . S
C462 H456 0.930 . S
C462 C463 1.355 . S
C462 C464 1.415 . S
C463 C462 1.355 . S
C463 C465 1.419 . S
C464 C462 1.415 . S
C464 C469 1.425 . S
C464 C471 1.409 . S
C465 H457 0.930 . S
C465 C463 1.419 . S
C465 C466 1.362 . S
C466 H458 0.930 . S
C466 C465 1.362 . S
C466 C469 1.409 . S
C467 H459 0.930 . S
C467 C468 1.355 . S
C467 C469 1.415 . S
C468 C467 1.355 . S
C468 C470 1.419 . S
C469 C464 1.425 . S
C469 C466 1.409 . S
C469 C467 1.415 . S
C470 H460 0.930 . S
C470 C468 1.419 . S
C470 C471 1.362 . S
C471 H461 0.930 . S
C471 C464 1.409 . S
C471 C470 1.362 . S
H472 C478 0.930 . S
H473 C481 0.930 . S
H474 C482 0.930 . S
H475 C483 0.930 . S
H476 C486 0.930 . S
H477 C487 0.930 . S
C478 H472 0.930 . S
C478 C479 1.355 . S
C478 C480 1.415 . S
C479 C478 1.355 . S
C479 C481 1.419 . S
C480 C478 1.415 . S
C480 C485 1.425 . S
C480 C487 1.409 . S
C481 H473 0.930 . S
C481 C479 1.419 . S
C481 C482 1.362 . S
C482 H474 0.930 . S
C482 C481 1.362 . S
C482 C485 1.409 . S
C483 H475 0.930 . S
C483 C484 1.355 . S
C483 C485 1.415 . S
C484 C483 1.355 . S
C484 C486 1.419 . S
C485 C480 1.425 . S
C485 C482 1.409 . S
C485 C483 1.415 . S
C486 H476 0.930 . S
C486 C484 1.419 . S
C486 C487 1.362 . S
C487 H477 0.930 . S
C487 C480 1.409 . S
C487 C486 1.362 . S
H488 C494 0.930 . S
H489 C497 0.930 . S
H490 C498 0.930 . S
H491 C499 0.930 . S
H492 C502 0.930 . S
H493 C503 0.930 . S
C494 H488 0.930 . S
C494 C495 1.355 . S
C494 C496 1.415 . S
C495 C494 1.355 . S
C495 C497 1.419 . S
C496 C494 1.415 . S
C496 C501 1.425 . S
C496 C503 1.409 . S
C497 H489 0.930 . S
C497 C495 1.419 . S
C497 C498 1.362 . S
C498 H490 0.930 . S
C498 C497 1.362 . S
C498 C501 1.409 . S
C499 H491 0.930 . S
C499 C500 1.355 . S
C499 C501 1.415 . S
C500 C499 1.355 . S
C500 C502 1.419 . S
C501 C496 1.425 . S
C501 C498 1.409 . S
C501 C499 1.415 . S
C502 H492 0.930 . S
C502 C500 1.419 . S
C502 C503 1.362 . S
C503 H493 0.930 . S
C503 C496 1.409 . S
C503 C502 1.362 . S
H504 C510 0.930 . S
H505 C513 0.930 . S
H506 C514 0.930 . S
H507 C515 0.930 . S
H508 C518 0.930 . S
H509 C519 0.930 . S
C510 H504 0.930 . S
C510 C511 1.355 . S
C510 C512 1.415 . S
C511 C510 1.355 . S
C511 C513 1.419 . S
C512 C510 1.415 . S
C512 C517 1.425 . S
C512 C519 1.409 . S
C513 H505 0.930 . S
C513 C511 1.419 . S
C513 C514 1.362 . S
C514 H506 0.930 . S
C514 C513 1.362 . S
C514 C517 1.409 . S
C515 H507 0.930 . S
C515 C516 1.355 . S
C515 C517 1.415 . S
C516 C515 1.355 . S
C516 C518 1.419 . S
C517 C512 1.425 . S
C517 C514 1.409 . S
C517 C515 1.415 . S
C518 H508 0.930 . S
C518 C516 1.419 . S
C518 C519 1.362 . S
C519 H509 0.930 . S
C519 C512 1.409 . S
C519 C518 1.362 . S
H520 C526 0.930 . S
H521 C529 0.930 . S
H522 C530 0.930 . S
H523 C531 0.930 . S
H524 C534 0.930 . S
H525 C535 0.930 . S
C526 H520 0.930 . S
C526 C527 1.355 . S
C526 C528 1.415 . S
C527 C526 1.355 . S
C527 C529 1.419 . S
C528 C526 1.415 . S
C528 C533 1.425 . S
C528 C535 1.409 . S
C529 H521 0.930 . S
C529 C527 1.419 . S
C529 C530 1.362 . S
C530 H522 0.930 . S
C530 C529 1.362 . S
C530 C533 1.409 . S
C531 H523 0.930 . S
C531 C532 1.355 . S
C531 C533 1.415 . S
C532 C531 1.355 . S
C532 C534 1.419 . S
C533 C528 1.425 . S
C533 C530 1.409 . S
C533 C531 1.415 . S
C534 H524 0.930 . S
C534 C532 1.419 . S
C534 C535 1.362 . S
C535 H525 0.930 . S
C535 C528 1.409 . S
C535 C534 1.362 . S
H536 C542 0.930 . S
H537 C545 0.930 . S
H538 C546 0.930 . S
H539 C547 0.930 . S
H540 C550 0.930 . S
H541 C551 0.930 . S
C542 H536 0.930 . S
C542 C543 1.355 . S
C542 C544 1.415 . S
C543 C542 1.355 . S
C543 C545 1.419 . S
C544 C542 1.415 . S
C544 C549 1.425 . S
C544 C551 1.409 . S
C545 H537 0.930 . S
C545 C543 1.419 . S
C545 C546 1.362 . S
C546 H538 0.930 . S
C546 C545 1.362 . S
C546 C549 1.409 . S
C547 H539 0.930 . S
C547 C548 1.355 . S
C547 C549 1.415 . S
C548 C547 1.355 . S
C548 C550 1.419 . S
C549 C544 1.425 . S
C549 C546 1.409 . S
C549 C547 1.415 . S
C550 H540 0.930 . S
C550 C548 1.419 . S
C550 C551 1.362 . S
C551 H541 0.930 . S
C551 C544 1.409 . S
C551 C550 1.362 . S
H552 C558 0.930 . S
H553 C561 0.930 . S
H554 C562 0.930 . S
H555 C563 0.930 . S
H556 C566 0.930 . S
H557 C567 0.930 . S
C558 H552 0.930 . S
C558 C559 1.355 . S
C558 C560 1.415 . S
C559 C558 1.355 . S
C559 C561 1.419 . S
C560 C558 1.415 . S
C560 C565 1.425 . S
C560 C567 1.409 . S
C561 H553 0.930 . S
C561 C559 1.419 . S
C561 C562 1.362 . S
C562 H554 0.930 . S
C562 C561 1.362 . S
C562 C565 1.409 . S
C563 H555 0.930 . S
C563 C564 1.355 . S
C563 C565 1.415 . S
C564 C563 1.355 . S
C564 C566 1.419 . S
C565 C560 1.425 . S
C565 C562 1.409 . S
C565 C563 1.415 . S
C566 H556 0.930 . S
C566 C564 1.419 . S
C566 C567 1.362 . S
C567 H557 0.930 . S
C567 C560 1.409 . S
C567 C566 1.362 . S
H568 C574 0.930 . S
H569 C577 0.930 . S
H570 C578 0.930 . S
H571 C579 0.930 . S
H572 C582 0.930 . S
H573 C583 0.930 . S
C574 H568 0.930 . S
C574 C575 1.355 . S
C574 C576 1.415 . S
C575 C574 1.355 . S
C575 C577 1.419 . S
C576 C574 1.415 . S
C576 C581 1.425 . S
C576 C583 1.409 . S
C577 H569 0.930 . S
C577 C575 1.419 . S
C577 C578 1.362 . S
C578 H570 0.930 . S
C578 C577 1.362 . S
C578 C581 1.409 . S
C579 H571 0.930 . S
C579 C580 1.355 . S
C579 C581 1.415 . S
C580 C579 1.355 . S
C580 C582 1.419 . S
C581 C576 1.425 . S
C581 C578 1.409 . S
C581 C579 1.415 . S
C582 H572 0.930 . S
C582 C580 1.419 . S
C582 C583 1.362 . S
C583 H573 0.930 . S
C583 C576 1.409 . S
C583 C582 1.362 . S
H584 C590 0.930 . S
H585 C593 0.930 . S
H586 C594 0.930 . S
H587 C595 0.930 . S
H588 C598 0.930 . S
H589 C599 0.930 . S
C590 H584 0.930 . S
C590 C591 1.355 . S
C590 C592 1.415 . S
C591 C590 1.355 . S
C591 C593 1.419 . S
C592 C590 1.415 . S
C592 C597 1.425 . S
C592 C599 1.409 . S
C593 H585 0.930 . S
C593 C591 1.419 . S
C593 C594 1.362 . S
C594 H586 0.930 . S
C594 C593 1.362 . S
C594 C597 1.409 . S
C595 H587 0.930 . S
C595 C596 1.355 . S
C595 C597 1.415 . S
C596 C595 1.355 . S
C596 C598 1.419 . S
C597 C592 1.425 . S
C597 C594 1.409 . S
C597 C595 1.415 . S
C598 H588 0.930 . S
C598 C596 1.419 . S
C598 C599 1.362 . S
C599 H589 0.930 . S
C599 C592 1.409 . S
C599 C598 1.362 . S
H600 C606 0.930 . S
H601 C609 0.930 . S
H602 C610 0.930 . S
H603 C611 0.930 . S
H604 C614 0.930 . S
H605 C615 0.930 . S
C606 H600 0.930 . S
C606 C607 1.355 . S
C606 C608 1.415 . S
C607 C606 1.355 . S
C607 C609 1.419 . S
C608 C606 1.415 . S
C608 C613 1.425 . S
C608 C615 1.409 . S
C609 H601 0.930 . S
C609 C607 1.419 . S
C609 C610 1.362 . S
C610 H602 0.930 . S
C610 C609 1.362 . S
C610 C613 1.409 . S
C611 H603 0.930 . S
C611 C612 1.355 . S
C611 C613 1.415 . S
C612 C611 1.355 . S
C612 C614 1.419 . S
C613 C608 1.425 . S
C613 C610 1.409 . S
C613 C611 1.415 . S
C614 H604 0.930 . S
C614 C612 1.419 . S
C614 C615 1.362 . S
C615 H605 0.930 . S
C615 C608 1.409 . S
C615 C614 1.362 . S
H616 C622 0.930 . S
H617 C625 0.930 . S
H618 C626 0.930 . S
H619 C627 0.930 . S
H620 C630 0.930 . S
H621 C631 0.930 . S
C622 H616 0.930 . S
C622 C623 1.355 . S
C622 C624 1.415 . S
C623 C622 1.355 . S
C623 C625 1.419 . S
C624 C622 1.415 . S
C624 C629 1.425 . S
C624 C631 1.409 . S
C625 H617 0.930 . S
C625 C623 1.419 . S
C625 C626 1.362 . S
C626 H618 0.930 . S
C626 C625 1.362 . S
C626 C629 1.409 . S
C627 H619 0.930 . S
C627 C628 1.355 . S
C627 C629 1.415 . S
C628 C627 1.355 . S
C628 C630 1.419 . S
C629 C624 1.425 . S
C629 C626 1.409 . S
C629 C627 1.415 . S
C630 H620 0.930 . S
C630 C628 1.419 . S
C630 C631 1.362 . S
C631 H621 0.930 . S
C631 C624 1.409 . S
C631 C630 1.362 . S
H632 C638 0.930 . S
H633 C641 0.930 . S
H634 C642 0.930 . S
H635 C643 0.930 . S
H636 C646 0.930 . S
H637 C647 0.930 . S
C638 H632 0.930 . S
C638 C639 1.355 . S
C638 C640 1.415 . S
C639 C638 1.355 . S
C639 C641 1.419 . S
C640 C638 1.415 . S
C640 C645 1.425 . S
C640 C647 1.409 . S
C641 H633 0.930 . S
C641 C639 1.419 . S
C641 C642 1.362 . S
C642 H634 0.930 . S
C642 C641 1.362 . S
C642 C645 1.409 . S
C643 H635 0.930 . S
C643 C644 1.355 . S
C643 C645 1.415 . S
C644 C643 1.355 . S
C644 C646 1.419 . S
C645 C640 1.425 . S
C645 C642 1.409 . S
C645 C643 1.415 . S
C646 H636 0.930 . S
C646 C644 1.419 . S
C646 C647 1.362 . S
C647 H637 0.930 . S
C647 C640 1.409 . S
C647 C646 1.362 . S
H648 C654 0.930 . S
H649 C657 0.930 . S
H650 C658 0.930 . S
H651 C659 0.930 . S
H652 C662 0.930 . S
H653 C663 0.930 . S
C654 H648 0.930 . S
C654 C655 1.355 . S
C654 C656 1.415 . S
C655 C654 1.355 . S
C655 C657 1.419 . S
C656 C654 1.415 . S
C656 C661 1.425 . S
C656 C663 1.409 . S
C657 H649 0.930 . S
C657 C655 1.419 . S
C657 C658 1.362 . S
C658 H650 0.930 . S
C658 C657 1.362 . S
C658 C661 1.409 . S
C659 H651 0.930 . S
C659 C660 1.355 . S
C659 C661 1.415 . S
C660 C659 1.355 . S
C660 C662 1.419 . S
C661 C656 1.425 . S
C661 C658 1.409 . S
C661 C659 1.415 . S
C662 H652 0.930 . S
C662 C660 1.419 . S
C662 C663 1.362 . S
C663 H653 0.930 . S
C663 C656 1.409 . S
C663 C662 1.362 . S
H664 C670 0.930 . S
H665 C673 0.930 . S
H666 C674 0.930 . S
H667 C675 0.930 . S
H668 C678 0.930 . S
H669 C679 0.930 . S
C670 H664 0.930 . S
C670 C671 1.355 . S
C670 C672 1.415 . S
C671 C670 1.355 . S
C671 C673 1.419 . S
C672 C670 1.415 . S
C672 C677 1.425 . S
C672 C679 1.409 . S
C673 H665 0.930 . S
C673 C671 1.419 . S
C673 C674 1.362 . S
C674 H666 0.930 . S
C674 C673 1.362 . S
C674 C677 1.409 . S
C675 H667 0.930 . S
C675 C676 1.355 . S
C675 C677 1.415 . S
C676 C675 1.355 . S
C676 C678 1.419 . S
C677 C672 1.425 . S
C677 C674 1.409 . S
C677 C675 1.415 . S
C678 H668 0.930 . S
C678 C676 1.419 . S
C678 C679 1.362 . S
C679 H669 0.930 . S
C679 C672 1.409 . S
C679 C678 1.362 . S
H680 C686 0.930 . S
H681 C689 0.930 . S
H682 C690 0.930 . S
H683 C691 0.930 . S
H684 C694 0.930 . S
H685 C695 0.930 . S
C686 H680 0.930 . S
C686 C687 1.355 . S
C686 C688 1.415 . S
C687 C686 1.355 . S
C687 C689 1.419 . S
C688 C686 1.415 . S
C688 C693 1.425 . S
C688 C695 1.409 . S
C689 H681 0.930 . S
C689 C687 1.419 . S
C689 C690 1.362 . S
C690 H682 0.930 . S
C690 C689 1.362 . S
C690 C693 1.409 . S
C691 H683 0.930 . S
C691 C692 1.355 . S
C691 C693 1.415 . S
C692 C691 1.355 . S
C692 C694 1.419 . S
C693 C688 1.425 . S
C693 C690 1.409 . S
C693 C691 1.415 . S
C694 H684 0.930 . S
C694 C692 1.419 . S
C694 C695 1.362 . S
C695 H685 0.930 . S
C695 C688 1.409 . S
C695 C694 1.362 . S
H696 C702 0.930 1_554 S
H697 C705 0.930 . S
H698 C706 0.930 . S
H699 C707 0.930 1_556 S
H700 C710 0.930 . S
H701 C711 0.930 . S
C702 H696 0.930 1_556 S
C702 C703 1.355 . S
C702 C704 1.415 1_556 S
C703 C702 1.355 . S
C703 C705 1.419 . S
C704 C702 1.415 1_554 S
C704 C709 1.425 1_564 S
C704 C711 1.409 . S
C705 H697 0.930 . S
C705 C703 1.419 . S
C705 C706 1.362 1_565 S
C706 H698 0.930 . S
C706 C705 1.362 1_545 S
C706 C709 1.409 . S
C707 H699 0.930 1_554 S
C707 C708 1.355 . S
C707 C709 1.415 1_554 S
C708 C707 1.355 . S
C708 C710 1.419 . S
C709 C704 1.425 1_546 S
C709 C706 1.409 . S
C709 C707 1.415 1_556 S
C710 H700 0.930 . S
C710 C708 1.419 . S
C710 C711 1.362 1_545 S
C711 H701 0.930 . S
C711 C704 1.409 . S
C711 C710 1.362 1_565 S
H712 C718 0.930 . S
H713 C721 0.930 . S
H714 C722 0.930 . S
H715 C723 0.930 . S
H716 C726 0.930 . S
H717 C727 0.930 . S
C718 H712 0.930 . S
C718 C719 1.355 . S
C718 C720 1.415 . S
C719 C718 1.355 . S
C719 C721 1.419 . S
C720 C718 1.415 . S
C720 C725 1.425 . S
C720 C727 1.409 . S
C721 H713 0.930 . S
C721 C719 1.419 . S
C721 C722 1.362 . S
C722 H714 0.930 . S
C722 C721 1.362 . S
C722 C725 1.409 . S
C723 H715 0.930 . S
C723 C724 1.355 . S
C723 C725 1.415 . S
C724 C723 1.355 . S
C724 C726 1.419 . S
C725 C720 1.425 . S
C725 C722 1.409 . S
C725 C723 1.415 . S
C726 H716 0.930 . S
C726 C724 1.419 . S
C726 C727 1.362 . S
C727 H717 0.930 . S
C727 C720 1.409 . S
C727 C726 1.362 . S
H728 C734 0.941 . S
H729 C737 0.930 . S
H730 C738 0.930 . S
H731 C739 0.941 . S
H732 C742 0.930 . S
H733 C743 0.930 . S
C734 H728 0.941 . S
C734 C735 1.355 . S
C734 C736 1.415 1_554 S
C735 C734 1.355 . S
C735 C737 1.419 . S
C736 C734 1.415 1_556 S
C736 C741 1.425 1_656 S
C736 C743 1.409 . S
C737 H729 0.930 . S
C737 C735 1.419 . S
C737 C738 1.362 1_655 S
C738 H730 0.930 . S
C738 C737 1.362 1_455 S
C738 C741 1.409 . S
C739 H731 0.941 . S
C739 C740 1.355 . S
C739 C741 1.415 1_556 S
C740 C739 1.355 . S
C740 C742 1.419 . S
C741 C736 1.425 1_454 S
C741 C738 1.409 . S
C741 C739 1.415 1_554 S
C742 H732 0.930 . S
C742 C740 1.419 . S
C742 C743 1.362 1_455 S
C743 H733 0.930 . S
C743 C736 1.409 . S
C743 C742 1.362 1_655 S
H744 C750 0.930 . S
H745 C753 0.930 . S
H746 C754 0.930 . S
H747 C755 0.930 . S
H748 C758 0.930 . S
H749 C759 0.930 . S
C750 H744 0.930 . S
C750 C751 1.355 . S
C750 C752 1.391 1_565 S
C751 C750 1.355 . S
C751 C753 1.419 . S
C752 C750 1.391 1_545 S
C752 C757 1.450 1_545 S
C752 C759 1.422 . S
C753 H745 0.930 . S
C753 C751 1.419 . S
C753 C754 1.362 . S
C754 H746 0.930 . S
C754 C753 1.362 . S
C754 C757 1.422 . S
C755 H747 0.930 . S
C755 C756 1.355 . S
C755 C757 1.391 1_545 S
C756 C755 1.355 . S
C756 C758 1.419 . S
C757 C752 1.450 1_565 S
C757 C754 1.422 . S
C757 C755 1.391 1_565 S
C758 H748 0.930 . S
C758 C756 1.419 . S
C758 C759 1.362 . S
C759 H749 0.930 . S
C759 C752 1.422 . S
C759 C758 1.362 . S
H760 C766 0.930 . S
H761 C769 0.930 . S
H762 C770 0.930 . S
H763 C771 0.930 . S
H764 C774 0.930 . S
H765 C775 0.930 . S
C766 H760 0.930 . S
C766 C767 1.355 . S
C766 C768 1.415 . S
C767 C766 1.355 . S
C767 C769 1.419 . S
C768 C766 1.415 . S
C768 C773 1.425 1_554 S
C768 C775 1.409 1_554 S
C769 H761 0.930 . S
C769 C767 1.419 . S
C769 C770 1.362 . S
C770 H762 0.930 . S
C770 C769 1.362 . S
C770 C773 1.409 1_554 S
C771 H763 0.930 . S
C771 C772 1.355 . S
C771 C773 1.415 . S
C772 C771 1.355 . S
C772 C774 1.419 . S
C773 C768 1.425 1_556 S
C773 C770 1.409 1_556 S
C773 C771 1.415 . S
C774 H764 0.930 . S
C774 C772 1.419 . S
C774 C775 1.362 . S
C775 H765 0.930 . S
C775 C768 1.409 1_556 S
C775 C774 1.362 . S
H776 C782 0.930 . S
H777 C785 0.930 . S
H778 C786 0.930 1_455 S
H779 C787 0.930 . S
H780 C790 0.930 . S
H781 C791 0.930 1_655 S
C782 H776 0.930 . S
C782 C783 1.355 . S
C782 C784 1.415 . S
C783 C782 1.355 . S
C783 C785 1.419 . S
C784 C782 1.415 . S
C784 C789 1.425 1_655 S
C784 C791 1.409 1_655 S
C785 H777 0.930 . S
C785 C783 1.419 . S
C785 C786 1.362 . S
C786 H778 0.930 1_655 S
C786 C785 1.362 . S
C786 C789 1.409 1_655 S
C787 H779 0.930 . S
C787 C788 1.355 . S
C787 C789 1.415 . S
C788 C787 1.355 . S
C788 C790 1.419 . S
C789 C784 1.425 1_455 S
C789 C786 1.409 1_455 S
C789 C787 1.415 . S
C790 H780 0.930 . S
C790 C788 1.419 . S
C790 C791 1.362 . S
C791 H781 0.930 1_455 S
C791 C784 1.409 1_455 S
C791 C790 1.362 . S
H792 C798 0.930 . S
H793 C801 0.930 . S
H794 C802 0.934 . S
H795 C803 0.930 . S
H796 C806 0.930 . S
H797 C807 0.934 . S
C798 H792 0.930 . S
C798 C799 1.355 . S
C798 C800 1.415 . S
C799 C798 1.355 . S
C799 C801 1.419 . S
C800 C798 1.415 . S
C800 C805 1.425 1_544 S
C800 C807 1.409 1_544 S
C801 H793 0.930 . S
C801 C799 1.419 . S
C801 C802 1.362 . S
C802 H794 0.934 . S
C802 C801 1.362 . S
C802 C805 1.409 1_544 S
C803 H795 0.930 . S
C803 C804 1.355 . S
C803 C805 1.415 . S
C804 C803 1.355 . S
C804 C806 1.419 . S
C805 C800 1.425 1_566 S
C805 C802 1.409 1_566 S
C805 C803 1.415 . S
C806 H796 0.930 . S
C806 C804 1.419 . S
C806 C807 1.362 . S
C807 H797 0.934 . S
C807 C800 1.409 1_566 S
C807 C806 1.362 . S
H808 C814 0.930 . S
H809 C817 0.930 . S
H810 C818 0.930 . S
H811 C819 0.930 . S
H812 C822 0.930 . S
H813 C823 0.930 . S
C814 H808 0.930 . S
C814 C815 1.355 . S
C814 C816 1.415 . S
C815 C814 1.355 . S
C815 C817 1.419 . S
C816 C814 1.415 . S
C816 C821 1.425 . S
C816 C823 1.409 . S
C817 H809 0.930 . S
C817 C815 1.419 . S
C817 C818 1.362 . S
C818 H810 0.930 . S
C818 C817 1.362 . S
C818 C821 1.409 . S
C819 H811 0.930 . S
C819 C820 1.355 . S
C819 C821 1.415 . S
C820 C819 1.355 . S
C820 C822 1.419 . S
C821 C816 1.425 . S
C821 C818 1.409 . S
C821 C819 1.415 . S
C822 H812 0.930 . S
C822 C820 1.419 . S
C822 C823 1.362 . S
C823 H813 0.930 . S
C823 C816 1.409 . S
C823 C822 1.362 . S
H824 C830 0.930 1_556 S
H825 C833 0.930 . S
H826 C834 0.930 . S
H827 C835 0.930 1_554 S
H828 C838 0.930 . S
H829 C839 0.930 . S
C830 H824 0.930 1_554 S
C830 C831 1.355 . S
C830 C832 1.415 1_554 S
C831 C830 1.355 . S
C831 C833 1.419 . S
C832 C830 1.415 1_556 S
C832 C837 1.425 1_656 S
C832 C839 1.409 . S
C833 H825 0.930 . S
C833 C831 1.419 . S
C833 C834 1.362 1_655 S
C834 H826 0.930 . S
C834 C833 1.362 1_455 S
C834 C837 1.409 . S
C835 H827 0.930 1_556 S
C835 C836 1.355 . S
C835 C837 1.415 1_556 S
C836 C835 1.355 . S
C836 C838 1.419 . S
C837 C832 1.425 1_454 S
C837 C834 1.409 . S
C837 C835 1.415 1_554 S
C838 H828 0.930 . S
C838 C836 1.419 . S
C838 C839 1.362 1_455 S
C839 H829 0.930 . S
C839 C832 1.409 . S
C839 C838 1.362 1_655 S
H840 C846 0.930 . S
H841 C849 0.930 . S
H842 C850 0.930 . S
H843 C851 0.930 . S
H844 C854 0.930 . S
H845 C855 0.930 . S
C846 H840 0.930 . S
C846 C847 1.355 . S
C846 C848 1.415 1_565 S
C847 C846 1.355 . S
C847 C849 1.419 . S
C848 C846 1.415 1_545 S
C848 C853 1.425 1_545 S
C848 C855 1.409 . S
C849 H841 0.930 . S
C849 C847 1.419 . S
C849 C850 1.362 . S
C850 H842 0.930 . S
C850 C849 1.362 . S
C850 C853 1.409 . S
C851 H843 0.930 . S
C851 C852 1.355 . S
C851 C853 1.415 1_545 S
C852 C851 1.355 . S
C852 C854 1.419 . S
C853 C848 1.425 1_565 S
C853 C850 1.409 . S
C853 C851 1.415 1_565 S
C854 H844 0.930 . S
C854 C852 1.419 . S
C854 C855 1.362 . S
C855 H845 0.930 . S
C855 C848 1.409 . S
C855 C854 1.362 . S
H856 C862 0.930 1_554 S
H857 C865 0.930 . S
H858 C866 0.930 . S
H859 C867 0.930 1_556 S
H860 C870 0.930 . S
H861 C871 0.930 . S
C862 H856 0.930 1_556 S
C862 C863 1.355 . S
C862 C864 1.415 1_556 S
C863 C862 1.355 . S
C863 C865 1.419 . S
C864 C862 1.415 1_554 S
C864 C869 1.425 1_554 S
C864 C871 1.409 . S
C865 H857 0.930 . S
C865 C863 1.419 . S
C865 C866 1.362 . S
C866 H858 0.930 . S
C866 C865 1.362 . S
C866 C869 1.409 . S
C867 H859 0.930 1_554 S
C867 C868 1.355 . S
C867 C869 1.415 1_554 S
C868 C867 1.355 . S
C868 C870 1.419 . S
C869 C864 1.425 1_556 S
C869 C866 1.409 . S
C869 C867 1.415 1_556 S
C870 H860 0.930 . S
C870 C868 1.419 . S
C870 C871 1.362 . S
C871 H861 0.930 . S
C871 C864 1.409 . S
C871 C870 1.362 . S
H872 C878 0.930 . S
H873 C881 0.930 . S
H874 C882 0.930 . S
H875 C883 0.930 . S
H876 C886 0.930 . S
H877 C887 0.930 . S
C878 H872 0.930 . S
C878 C879 1.355 . S
C878 C880 1.415 . S
C879 C878 1.355 . S
C879 C881 1.419 . S
C880 C878 1.415 . S
C880 C885 1.425 1_455 S
C880 C887 1.409 . S
C881 H873 0.930 . S
C881 C879 1.419 . S
C881 C882 1.362 1_455 S
C882 H874 0.930 . S
C882 C881 1.362 1_655 S
C882 C885 1.409 . S
C883 H875 0.930 . S
C883 C884 1.355 . S
C883 C885 1.415 . S
C884 C883 1.355 . S
C884 C886 1.419 . S
C885 C880 1.425 1_655 S
C885 C882 1.409 . S
C885 C883 1.415 . S
C886 H876 0.930 . S
C886 C884 1.419 . S
C886 C887 1.362 1_655 S
C887 H877 0.930 . S
C887 C880 1.409 . S
C887 C886 1.362 1_455 S
C415 C73 1.565 . S
C420 C2 1.662 . S
C431 C36 1.644 . S
C436 C107 1.552 . S
C447 C70 1.656 . S
C452 C141 1.583 . S
C463 C104 1.646 . S
C468 C175 1.562 . S
C479 C138 1.646 . S
C484 C5 1.557 . S
C495 C39 1.503 . S
C500 C172 1.655 . S
C511 C206 1.642 . S
C516 C345 1.526 . S
C527 C240 1.662 . S
C532 C379 1.549 . S
C543 C209 1.505 . S
C548 C274 1.642 . S
C559 C243 1.532 . S
C564 C308 1.642 . S
C575 C277 1.551 . S
C580 C342 1.644 . S
C591 C311 1.567 . S
C596 C376 1.648 . S
C607 C305 1.293 . S
C612 C33 1.277 . S
C623 C67 1.250 . S
C628 C339 1.264 . S
C639 C373 1.257 . S
C644 C101 1.250 . S
C655 C407 1.250 . S
C660 C135 1.265 . S
C671 C169 1.293 . S
C676 C237 1.286 . S
C687 C271 1.289 . S
C692 C203 1.292 . S
C703 C247 1.491 . S
C708 C9 1.495 . S
C719 C43 1.505 . S
C724 C281 1.491 . S
C735 C77 1.492 . S
C740 C315 1.509 . S
C751 C111 1.519 . S
C756 C349 1.502 . S
C767 C145 1.504 . S
C772 C383 1.521 . S
C783 C213 1.504 . S
C788 C179 1.491 . S
C799 C88 1.853 . S
C804 C394 1.870 . S
C815 C224 1.871 . S
C820 C122 1.860 . S
C831 C156 1.868 . S
C836 C258 1.864 . S
C847 C190 1.860 . S
C852 C292 1.860 . S
C863 C326 1.861 . S
C868 C20 1.870 . S
C879 C54 1.858 . S
C884 C360 1.872 . S
