# Generated by pormake.
# Topology uow, (4)-cn, num edge types: 1
# Building blocks:
#     Node 0, Type 0, BuildingBlock: AZAVOO_clean_sbu_0, # of connection points: 4
#     Node 1, Type 0, BuildingBlock: AZAVOO_clean_sbu_0, # of connection points: 4
#     Node 2, Type 0, BuildingBlock: AZAVOO_clean_sbu_0, # of connection points: 4
#     Node 3, Type 0, BuildingBlock: AZAVOO_clean_sbu_0, # of connection points: 4
#     Node 4, Type 0, BuildingBlock: AZAVOO_clean_sbu_0, # of connection points: 4
#     Node 5, Type 0, BuildingBlock: AZAVOO_clean_sbu_0, # of connection points: 4
#     Node 6, Type 0, BuildingBlock: AZAVOO_clean_sbu_0, # of connection points: 4
#     Node 7, Type 0, BuildingBlock: AZAVOO_clean_sbu_0, # of connection points: 4
#     Node 8, Type 0, BuildingBlock: AZAVOO_clean_sbu_0, # of connection points: 4
#     Node 9, Type 0, BuildingBlock: AZAVOO_clean_sbu_0, # of connection points: 4
#     Node 10, Type 0, BuildingBlock: AZAVOO_clean_sbu_0, # of connection points: 4
#     Node 11, Type 0, BuildingBlock: AZAVOO_clean_sbu_0, # of connection points: 4
#     Node 12, Type 0, BuildingBlock: AZAVOO_clean_sbu_0, # of connection points: 4
#     Node 13, Type 0, BuildingBlock: AZAVOO_clean_sbu_0, # of connection points: 4
#     Node 14, Type 0, BuildingBlock: AZAVOO_clean_sbu_0, # of connection points: 4
#     Node 15, Type 0, BuildingBlock: AZAVOO_clean_sbu_0, # of connection points: 4
#     Node 16, Type 0, BuildingBlock: AZAVOO_clean_sbu_0, # of connection points: 4
#     Node 17, Type 0, BuildingBlock: AZAVOO_clean_sbu_0, # of connection points: 4
#     Node 18, Type 0, BuildingBlock: AZAVOO_clean_sbu_0, # of connection points: 4
#     Node 19, Type 0, BuildingBlock: AZAVOO_clean_sbu_0, # of connection points: 4
#     Node 20, Type 0, BuildingBlock: AZAVOO_clean_sbu_0, # of connection points: 4
#     Node 21, Type 0, BuildingBlock: AZAVOO_clean_sbu_0, # of connection points: 4
#     Node 22, Type 0, BuildingBlock: AZAVOO_clean_sbu_0, # of connection points: 4
#     Node 23, Type 0, BuildingBlock: AZAVOO_clean_sbu_0, # of connection points: 4
#     Node 24, Type 0, BuildingBlock: AZAVOO_clean_sbu_0, # of connection points: 4
#     Node 25, Type 0, BuildingBlock: AZAVOO_clean_sbu_0, # of connection points: 4
#     Node 26, Type 0, BuildingBlock: AZAVOO_clean_sbu_0, # of connection points: 4
#     Node 27, Type 0, BuildingBlock: AZAVOO_clean_sbu_0, # of connection points: 4
#     Node 28, Type 0, BuildingBlock: AZAVOO_clean_sbu_0, # of connection points: 4
#     Node 29, Type 0, BuildingBlock: AZAVOO_clean_sbu_0, # of connection points: 4
#     Node 30, Type 0, BuildingBlock: AZAVOO_clean_sbu_0, # of connection points: 4
#     Node 31, Type 0, BuildingBlock: AZAVOO_clean_sbu_0, # of connection points: 4
#     Edge 32, Type (0, 0), BuildingBlock: EZIPEK_clean_linker_0, # of connection points: 2
#     Edge 33, Type (0, 0), BuildingBlock: EZIPEK_clean_linker_0, # of connection points: 2
#     Edge 34, Type (0, 0), BuildingBlock: EZIPEK_clean_linker_0, # of connection points: 2
#     Edge 35, Type (0, 0), BuildingBlock: EZIPEK_clean_linker_0, # of connection points: 2
#     Edge 36, Type (0, 0), BuildingBlock: EZIPEK_clean_linker_0, # of connection points: 2
#     Edge 37, Type (0, 0), BuildingBlock: EZIPEK_clean_linker_0, # of connection points: 2
#     Edge 38, Type (0, 0), BuildingBlock: EZIPEK_clean_linker_0, # of connection points: 2
#     Edge 39, Type (0, 0), BuildingBlock: EZIPEK_clean_linker_0, # of connection points: 2
#     Edge 40, Type (0, 0), BuildingBlock: EZIPEK_clean_linker_0, # of connection points: 2
#     Edge 41, Type (0, 0), BuildingBlock: EZIPEK_clean_linker_0, # of connection points: 2
#     Edge 42, Type (0, 0), BuildingBlock: EZIPEK_clean_linker_0, # of connection points: 2
#     Edge 43, Type (0, 0), BuildingBlock: EZIPEK_clean_linker_0, # of connection points: 2
#     Edge 44, Type (0, 0), BuildingBlock: EZIPEK_clean_linker_0, # of connection points: 2
#     Edge 45, Type (0, 0), BuildingBlock: EZIPEK_clean_linker_0, # of connection points: 2
#     Edge 46, Type (0, 0), BuildingBlock: EZIPEK_clean_linker_0, # of connection points: 2
#     Edge 47, Type (0, 0), BuildingBlock: EZIPEK_clean_linker_0, # of connection points: 2
#     Edge 48, Type (0, 0), BuildingBlock: EZIPEK_clean_linker_0, # of connection points: 2
#     Edge 49, Type (0, 0), BuildingBlock: EZIPEK_clean_linker_0, # of connection points: 2
#     Edge 50, Type (0, 0), BuildingBlock: EZIPEK_clean_linker_0, # of connection points: 2
#     Edge 51, Type (0, 0), BuildingBlock: EZIPEK_clean_linker_0, # of connection points: 2
#     Edge 52, Type (0, 0), BuildingBlock: EZIPEK_clean_linker_0, # of connection points: 2
#     Edge 53, Type (0, 0), BuildingBlock: EZIPEK_clean_linker_0, # of connection points: 2
#     Edge 54, Type (0, 0), BuildingBlock: EZIPEK_clean_linker_0, # of connection points: 2
#     Edge 55, Type (0, 0), BuildingBlock: EZIPEK_clean_linker_0, # of connection points: 2
#     Edge 56, Type (0, 0), BuildingBlock: EZIPEK_clean_linker_0, # of connection points: 2
#     Edge 57, Type (0, 0), BuildingBlock: EZIPEK_clean_linker_0, # of connection points: 2
#     Edge 58, Type (0, 0), BuildingBlock: EZIPEK_clean_linker_0, # of connection points: 2
#     Edge 59, Type (0, 0), BuildingBlock: EZIPEK_clean_linker_0, # of connection points: 2
#     Edge 60, Type (0, 0), BuildingBlock: EZIPEK_clean_linker_0, # of connection points: 2
#     Edge 61, Type (0, 0), BuildingBlock: EZIPEK_clean_linker_0, # of connection points: 2
#     Edge 62, Type (0, 0), BuildingBlock: EZIPEK_clean_linker_0, # of connection points: 2
#     Edge 63, Type (0, 0), BuildingBlock: EZIPEK_clean_linker_0, # of connection points: 2
#     Edge 64, Type (0, 0), BuildingBlock: EZIPEK_clean_linker_0, # of connection points: 2
#     Edge 65, Type (0, 0), BuildingBlock: EZIPEK_clean_linker_0, # of connection points: 2
#     Edge 66, Type (0, 0), BuildingBlock: EZIPEK_clean_linker_0, # of connection points: 2
#     Edge 67, Type (0, 0), BuildingBlock: EZIPEK_clean_linker_0, # of connection points: 2
#     Edge 68, Type (0, 0), BuildingBlock: EZIPEK_clean_linker_0, # of connection points: 2
#     Edge 69, Type (0, 0), BuildingBlock: EZIPEK_clean_linker_0, # of connection points: 2
#     Edge 70, Type (0, 0), BuildingBlock: EZIPEK_clean_linker_0, # of connection points: 2
#     Edge 71, Type (0, 0), BuildingBlock: EZIPEK_clean_linker_0, # of connection points: 2
#     Edge 72, Type (0, 0), BuildingBlock: EZIPEK_clean_linker_0, # of connection points: 2
#     Edge 73, Type (0, 0), BuildingBlock: EZIPEK_clean_linker_0, # of connection points: 2
#     Edge 74, Type (0, 0), BuildingBlock: EZIPEK_clean_linker_0, # of connection points: 2
#     Edge 75, Type (0, 0), BuildingBlock: EZIPEK_clean_linker_0, # of connection points: 2
#     Edge 76, Type (0, 0), BuildingBlock: EZIPEK_clean_linker_0, # of connection points: 2
#     Edge 77, Type (0, 0), BuildingBlock: EZIPEK_clean_linker_0, # of connection points: 2
#     Edge 78, Type (0, 0), BuildingBlock: EZIPEK_clean_linker_0, # of connection points: 2
#     Edge 79, Type (0, 0), BuildingBlock: EZIPEK_clean_linker_0, # of connection points: 2
#     Edge 80, Type (0, 0), BuildingBlock: EZIPEK_clean_linker_0, # of connection points: 2
#     Edge 81, Type (0, 0), BuildingBlock: EZIPEK_clean_linker_0, # of connection points: 2
#     Edge 82, Type (0, 0), BuildingBlock: EZIPEK_clean_linker_0, # of connection points: 2
#     Edge 83, Type (0, 0), BuildingBlock: EZIPEK_clean_linker_0, # of connection points: 2
#     Edge 84, Type (0, 0), BuildingBlock: EZIPEK_clean_linker_0, # of connection points: 2
#     Edge 85, Type (0, 0), BuildingBlock: EZIPEK_clean_linker_0, # of connection points: 2
#     Edge 86, Type (0, 0), BuildingBlock: EZIPEK_clean_linker_0, # of connection points: 2
#     Edge 87, Type (0, 0), BuildingBlock: EZIPEK_clean_linker_0, # of connection points: 2
#     Edge 88, Type (0, 0), BuildingBlock: EZIPEK_clean_linker_0, # of connection points: 2
#     Edge 89, Type (0, 0), BuildingBlock: EZIPEK_clean_linker_0, # of connection points: 2
#     Edge 90, Type (0, 0), BuildingBlock: EZIPEK_clean_linker_0, # of connection points: 2
#     Edge 91, Type (0, 0), BuildingBlock: EZIPEK_clean_linker_0, # of connection points: 2
#     Edge 92, Type (0, 0), BuildingBlock: EZIPEK_clean_linker_0, # of connection points: 2
#     Edge 93, Type (0, 0), BuildingBlock: EZIPEK_clean_linker_0, # of connection points: 2
#     Edge 94, Type (0, 0), BuildingBlock: EZIPEK_clean_linker_0, # of connection points: 2
#     Edge 95, Type (0, 0), BuildingBlock: EZIPEK_clean_linker_0, # of connection points: 2
# Relax obj value: 0.269
# Max RMSD: 0.244
# Mean RMSD: 0.244
data_MOF--net-uow--node1-AZAVOO_clean_sbu_0--edge1-EZIPEK_clean_linker_0
_symmetry_space_group_name_H-M    P1
_symmetry_Int_Tables_number       1
_symmetry_cell_setting            triclinic
loop_
_symmetry_equiv_pos_as_xyz
'x, y, z'
_cell_length_a     43.677756
_cell_length_b     43.434789
_cell_length_c     29.796622
_cell_angle_alpha  90.005692
_cell_angle_beta   89.998257
_cell_angle_gamma 90.037999
loop_
_atom_site_label
_atom_site_type_symbol
_atom_site_fract_x
_atom_site_fract_y
_atom_site_fract_z
_atom_type_partial_charge
Mg0 Mg 0.98819 0.35455 0.22792 0.0
O1 O 0.0252 0.34055 0.27783 0.0
O2 O 0.07024 0.35652 0.2515 0.0
Mg3 Mg 0.06238 0.37391 0.17944 0.0
C4 C 0.05388 0.34455 0.28246 0.0
C5 C 0.93525 0.32582 0.28173 0.0
O6 O 0.93148 0.31194 0.24306 0.0
O7 O 0.99527 0.4057 0.24551 0.0
O8 O 0.03867 0.41699 0.20875 0.0
O9 O 0.99098 0.30845 0.19534 0.0
O10 O 0.01841 0.34886 0.17446 0.0
C11 C 0.01563 0.42494 0.23252 0.0
C12 C 0.01242 0.31992 0.17045 0.0
O13 O 0.95515 0.34695 0.28539 0.0
Mg14 Mg 0.89356 0.73237 0.48246 0.0
O15 O 0.9056 0.75784 0.54777 0.0
O16 O 0.89754 0.80796 0.53401 0.0
Mg17 Mg 0.88521 0.81463 0.45968 0.0
C18 C 0.90496 0.78596 0.56031 0.0
C19 C 0.89724 0.66911 0.5488 0.0
O20 O 0.88529 0.64163 0.55439 0.0
O21 O 0.84284 0.74259 0.49266 0.0
O22 O 0.83811 0.79202 0.47244 0.0
O23 O 0.94232 0.7348 0.45914 0.0
O24 O 0.90735 0.77023 0.4451 0.0
C25 C 0.82657 0.76639 0.485 0.0
C26 C 0.93519 0.76098 0.44116 0.0
O27 O 0.887 0.68586 0.51718 0.0
Mg28 Mg 0.52541 0.62536 0.73767 0.0
O29 O 0.49769 0.63987 0.80018 0.0
O30 O 0.44861 0.63189 0.78089 0.0
Mg31 Mg 0.44443 0.61437 0.70871 0.0
C32 C 0.46902 0.64039 0.80904 0.0
C33 C 0.58731 0.62916 0.80907 0.0
O34 O 0.61485 0.61734 0.81292 0.0
O35 O 0.51587 0.57411 0.75072 0.0
O36 O 0.46758 0.56822 0.72695 0.0
O37 O 0.52197 0.67363 0.70855 0.0
O38 O 0.48855 0.63656 0.69712 0.0
C39 C 0.49265 0.5572 0.7421 0.0
C40 C 0.49633 0.66472 0.69096 0.0
O41 O 0.57093 0.62105 0.77576 0.0
Mg42 Mg 0.61007 0.27955 0.99451 0.0
O43 O 0.59598 0.24136 0.04318 0.0
O44 O 0.609 0.1962 0.01321 0.0
Mg45 Mg 0.62652 0.20565 0.94167 0.0
C46 C 0.59821 0.21217 0.04553 0.0
C47 C 0.58228 0.33154 0.04949 0.0
O48 O 0.56871 0.33551 0.01062 0.0
O49 O 0.66107 0.27146 0.00936 0.0
O50 O 0.67014 0.22817 0.97055 0.0
O51 O 0.56373 0.27824 0.96403 0.0
O52 O 0.603 0.25057 0.93988 0.0
C53 C 0.6793 0.25077 0.99456 0.0
C54 C 0.5743 0.25723 0.93753 0.0
O55 O 0.60365 0.31193 0.05296 0.0
Mg56 Mg 0.97423 0.62143 0.27594 0.0
O57 O 0.00582 0.63423 0.21721 0.0
O58 O 0.0541 0.63211 0.24167 0.0
Mg59 Mg 0.05331 0.61487 0.31448 0.0
C60 C 0.03451 0.63764 0.21088 0.0
C61 C 0.91216 0.61713 0.19951 0.0
O62 O 0.89359 0.59335 0.20084 0.0
O63 O 0.98585 0.57082 0.26504 0.0
O64 O 0.03387 0.56768 0.29103 0.0
O65 O 0.97413 0.67017 0.29999 0.0
O66 O 0.00736 0.63512 0.32288 0.0
C67 C 0.00994 0.55535 0.27398 0.0
C68 C 0.9981 0.66329 0.32344 0.0
O69 O 0.93436 0.61858 0.22694 0.0
Mg70 Mg 0.62735 0.73159 0.5188 0.0
O71 O 0.61614 0.76263 0.45898 0.0
O72 O 0.62441 0.81154 0.47968 0.0
Mg73 Mg 0.64091 0.81209 0.55188 0.0
C74 C 0.61642 0.79147 0.45074 0.0
C75 C 0.6154 0.67124 0.4448 0.0
O76 O 0.62872 0.64516 0.43412 0.0
O77 O 0.67868 0.73919 0.50677 0.0
O78 O 0.6849 0.78795 0.52937 0.0
O79 O 0.57985 0.73679 0.54626 0.0
O80 O 0.61765 0.76764 0.56305 0.0
C81 C 0.69559 0.76272 0.51396 0.0
C82 C 0.58939 0.76043 0.56878 0.0
O83 O 0.62801 0.68797 0.47477 0.0
Mg84 Mg 0.52248 0.35522 0.76059 0.0
O85 O 0.48642 0.34121 0.70866 0.0
O86 O 0.44035 0.35333 0.73512 0.0
Mg87 Mg 0.44738 0.369 0.80869 0.0
C88 C 0.45757 0.34339 0.70366 0.0
C89 C 0.5746 0.32777 0.70663 0.0
O90 O 0.57811 0.31371 0.74528 0.0
O91 O 0.51383 0.40672 0.74739 0.0
O92 O 0.46978 0.41433 0.78452 0.0
O93 O 0.52157 0.30827 0.79005 0.0
O94 O 0.49304 0.347 0.81439 0.0
C95 C 0.49275 0.42443 0.76234 0.0
C96 C 0.50085 0.31845 0.81718 0.0
O97 O 0.55587 0.34998 0.70354 0.0
Mg98 Mg 0.88089 0.27478 0.01402 0.0
O99 O 0.88953 0.23186 0.97121 0.0
O100 O 0.87902 0.18915 0.01009 0.0
Mg101 Mg 0.86357 0.20586 0.07974 0.0
C102 C 0.88802 0.20262 0.97438 0.0
C103 C 0.89227 0.33102 0.95024 0.0
O104 O 0.89257 0.34595 0.98858 0.0
O105 O 0.82908 0.26912 0.00625 0.0
O106 O 0.81989 0.22772 0.04893 0.0
O107 O 0.9287 0.2732 0.0394 0.0
O108 O 0.88991 0.24922 0.07208 0.0
C109 C 0.81063 0.24962 0.02361 0.0
C110 C 0.91898 0.25449 0.07002 0.0
O111 O 0.88566 0.30257 0.94979 0.0
Mg112 Mg 0.02688 0.65346 0.77528 0.0
O113 O 0.9993 0.66658 0.7111 0.0
O114 O 0.95092 0.65311 0.72773 0.0
Mg115 Mg 0.94677 0.63367 0.79881 0.0
C116 C 0.97085 0.66424 0.70084 0.0
C117 C 0.09226 0.6665 0.71308 0.0
O118 O 0.12146 0.65946 0.71506 0.0
O119 O 0.02335 0.60208 0.75831 0.0
O120 O 0.97524 0.59106 0.77906 0.0
O121 O 0.01824 0.6998 0.80754 0.0
O122 O 0.98822 0.65928 0.81407 0.0
C123 C 0.00156 0.58289 0.76458 0.0
C124 C 0.99352 0.68757 0.82358 0.0
O125 O 0.07461 0.65624 0.74356 0.0
Mg126 Mg 0.1274 0.28575 0.50794 0.0
O127 O 0.10891 0.26206 0.44408 0.0
O128 O 0.11645 0.21183 0.45788 0.0
Mg129 Mg 0.13472 0.20317 0.52874 0.0
C130 C 0.10768 0.23377 0.4324 0.0
C131 C 0.12501 0.34713 0.43914 0.0
O132 O 0.13505 0.37535 0.43338 0.0
O133 O 0.17636 0.27389 0.48844 0.0
O134 O 0.18117 0.2244 0.50827 0.0
O135 O 0.08084 0.28476 0.54047 0.0
O136 O 0.11525 0.24795 0.54725 0.0
C137 C 0.19233 0.24957 0.49333 0.0
C138 C 0.08837 0.25813 0.5566 0.0
O139 O 0.1333 0.33255 0.47404 0.0
Mg140 Mg 0.47116 0.37993 0.28847 0.0
O141 O 0.50051 0.36942 0.22665 0.0
O142 O 0.5496 0.37084 0.24848 0.0
Mg143 Mg 0.55172 0.38367 0.32277 0.0
C144 C 0.5291 0.36688 0.21843 0.0
C145 C 0.41299 0.3777 0.21289 0.0
O146 O 0.38712 0.39123 0.20223 0.0
O147 O 0.48425 0.43036 0.28064 0.0
O148 O 0.53314 0.43174 0.30335 0.0
O149 O 0.47076 0.33026 0.30883 0.0
O150 O 0.50573 0.36386 0.33067 0.0
C151 C 0.50906 0.44496 0.28843 0.0
C152 C 0.49578 0.33598 0.33057 0.0
O153 O 0.42802 0.38809 0.24624 0.0
Mg154 Mg 0.39331 0.72473 0.02158 0.0
O155 O 0.40317 0.75255 0.95632 0.0
O156 O 0.39645 0.80214 0.97509 0.0
Mg157 Mg 0.38326 0.80624 0.04926 0.0
C158 C 0.40315 0.7813 0.94644 0.0
C159 C 0.39603 0.65873 0.959 0.0
O160 O 0.3819 0.63213 0.9559 0.0
O161 O 0.34249 0.73362 0.01375 0.0
O162 O 0.33678 0.78277 0.03489 0.0
O163 O 0.44245 0.72829 0.04424 0.0
O164 O 0.40598 0.76195 0.05946 0.0
C165 C 0.32576 0.75699 0.02192 0.0
C166 C 0.43411 0.75388 0.06289 0.0
O167 O 0.38663 0.67797 0.98798 0.0
Mg168 Mg 0.01046 0.37879 0.72847 0.0
O169 O 0.97268 0.37167 0.77995 0.0
O170 O 0.92959 0.39391 0.75644 0.0
Mg171 Mg 0.94008 0.41256 0.68585 0.0
C172 C 0.94466 0.37872 0.78566 0.0
C173 C 0.06077 0.34102 0.77751 0.0
O174 O 0.06091 0.32786 0.7379 0.0
O175 O 0.01451 0.43042 0.74607 0.0
O176 O 0.97217 0.44903 0.71393 0.0
O177 O 0.99849 0.33411 0.69814 0.0
O178 O 0.9775 0.37752 0.67481 0.0
C179 C 0.9972 0.45289 0.73504 0.0
C180 C 0.979 0.34771 0.67224 0.0
O181 O 0.04411 0.36462 0.78393 0.0
Mg182 Mg 0.38872 0.28879 0.46547 0.0
O183 O 0.39561 0.25926 0.52759 0.0
O184 O 0.39365 0.20982 0.50644 0.0
Mg185 Mg 0.38322 0.20785 0.43124 0.0
C186 C 0.39704 0.23059 0.53642 0.0
C187 C 0.38724 0.34442 0.54598 0.0
O188 O 0.37432 0.37088 0.5557 0.0
O189 O 0.33793 0.27761 0.46886 0.0
O190 O 0.3355 0.22838 0.44666 0.0
O191 O 0.43899 0.2866 0.44849 0.0
O192 O 0.40453 0.25341 0.42407 0.0
C193 C 0.32277 0.25322 0.46011 0.0
C194 C 0.43268 0.26186 0.42609 0.0
O195 O 0.38011 0.33145 0.50906 0.0
Mg196 Mg 0.47151 0.63776 0.24295 0.0
O197 O 0.50042 0.65642 0.30382 0.0
O198 O 0.54877 0.65327 0.27834 0.0
Mg199 Mg 0.55114 0.6366 0.20558 0.0
C200 C 0.52948 0.65961 0.30926 0.0
C201 C 0.40809 0.63077 0.31096 0.0
O202 O 0.38387 0.61298 0.31405 0.0
O203 O 0.48839 0.58965 0.25775 0.0
O204 O 0.53556 0.58794 0.22855 0.0
O205 O 0.46542 0.68497 0.21283 0.0
O206 O 0.50431 0.65394 0.19934 0.0
C207 C 0.51277 0.57512 0.24792 0.0
C208 C 0.49119 0.68 0.19261 0.0
O209 O 0.42743 0.62545 0.28016 0.0
Mg210 Mg 0.12463 0.73249 0.99227 0.0
O211 O 0.1139 0.7741 0.03604 0.0
O212 O 0.12879 0.81754 0.00214 0.0
Mg213 Mg 0.14848 0.80307 0.934 0.0
C214 C 0.11699 0.80325 0.03529 0.0
C215 C 0.09034 0.68423 0.04837 0.0
O216 O 0.07734 0.68102 0.00891 0.0
O217 O 0.17561 0.73671 0.00963 0.0
O218 O 0.18819 0.77836 0.96896 0.0
O219 O 0.07969 0.73777 0.95824 0.0
O220 O 0.12176 0.75988 0.93467 0.0
C221 C 0.19528 0.75606 0.99486 0.0
C222 C 0.0928 0.75567 0.92942 0.0
O223 O 0.11294 0.70247 0.0527 0.0
Mg224 Mg 0.47959 0.8769 0.71607 0.0
O225 O 0.5177 0.86413 0.76366 0.0
O226 O 0.56333 0.88061 0.7402 0.0
Mg227 Mg 0.55362 0.90352 0.67251 0.0
C228 C 0.5464 0.86703 0.7688 0.0
C229 C 0.43808 0.83525 0.77584 0.0
O230 O 0.44104 0.81796 0.74005 0.0
O231 O 0.48206 0.9279 0.73779 0.0
O232 O 0.52599 0.94223 0.70509 0.0
O233 O 0.48662 0.83306 0.67913 0.0
O234 O 0.5112 0.87539 0.66099 0.0
C235 C 0.50187 0.94843 0.72743 0.0
C236 C 0.50668 0.84638 0.65384 0.0
O237 O 0.44828 0.86275 0.77508 0.0
Mg238 Mg 0.39303 0.23574 0.00346 0.0
O239 O 0.40853 0.26744 0.06255 0.0
O240 O 0.40564 0.31513 0.03386 0.0
Mg241 Mg 0.39403 0.31425 0.9588 0.0
C242 C 0.4106 0.2968 0.06664 0.0
C243 C 0.38951 0.17637 0.07819 0.0
O244 O 0.37213 0.15282 0.0889 0.0
O245 O 0.34398 0.25326 0.01041 0.0
O246 O 0.3447 0.29904 0.97561 0.0
O247 O 0.44124 0.22914 0.97784 0.0
O248 O 0.41001 0.26661 0.95769 0.0
C249 C 0.33045 0.27715 0.99525 0.0
C250 C 0.4362 0.25357 0.95405 0.0
O251 O 0.38101 0.19374 0.04623 0.0
Mg252 Mg 0.01888 0.1432 0.2386 0.0
O253 O 0.98751 0.15798 0.29793 0.0
O254 O 0.93943 0.15101 0.27359 0.0
Mg255 Mg 0.93966 0.13611 0.19965 0.0
C256 C 0.9585 0.15841 0.30432 0.0
C257 C 0.08101 0.14745 0.3087 0.0
O258 O 0.10422 0.13047 0.32178 0.0
O259 O 0.0059 0.09283 0.24994 0.0
O260 O 0.95907 0.08845 0.2199 0.0
O261 O 0.02028 0.1914 0.2108 0.0
O262 O 0.9855 0.15635 0.19372 0.0
C263 C 0.98274 0.07671 0.23843 0.0
C264 C 0.99563 0.18393 0.1892 0.0
O265 O 0.06179 0.13573 0.28155 0.0
Mg266 Mg 0.10989 0.77983 0.46992 0.0
O267 O 0.09486 0.75381 0.534 0.0
O268 O 0.10467 0.70421 0.51911 0.0
Mg269 Mg 0.12071 0.69795 0.44657 0.0
C270 C 0.09573 0.72546 0.54575 0.0
C271 C 0.11035 0.84731 0.53452 0.0
O272 O 0.12229 0.87462 0.52749 0.0
O273 O 0.16045 0.77042 0.48561 0.0
O274 O 0.16665 0.72121 0.4652 0.0
O275 O 0.06217 0.77659 0.44139 0.0
O276 O 0.09844 0.74191 0.4312 0.0
C277 C 0.17734 0.74677 0.47961 0.0
C278 C 0.07053 0.75028 0.42503 0.0
O279 O 0.11381 0.82669 0.50464 0.0
Mg280 Mg 0.47546 0.14988 0.76111 0.0
O281 O 0.51066 0.16232 0.70694 0.0
O282 O 0.55703 0.14856 0.73054 0.0
Mg283 Mg 0.55139 0.13191 0.80374 0.0
C284 C 0.53931 0.15935 0.70032 0.0
C285 C 0.42281 0.17956 0.7101 0.0
O286 O 0.42036 0.19369 0.74889 0.0
O287 O 0.48081 0.0982 0.7473 0.0
O288 O 0.52609 0.08812 0.77955 0.0
O289 O 0.47984 0.19663 0.78995 0.0
O290 O 0.50736 0.15653 0.81207 0.0
C291 C 0.50168 0.07933 0.75954 0.0
C292 C 0.50141 0.18554 0.81481 0.0
O293 O 0.44065 0.15667 0.70638 0.0
Mg294 Mg 0.13741 0.23313 0.00674 0.0
O295 O 0.1218 0.26077 0.94456 0.0
O296 O 0.11913 0.30992 0.96707 0.0
Mg297 Mg 0.13339 0.31403 0.04091 0.0
C298 C 0.11587 0.28915 0.93703 0.0
C299 C 0.1436 0.1747 0.93171 0.0
O300 O 0.16031 0.15051 0.9219 0.0
O301 O 0.18581 0.25127 0.99879 0.0
O302 O 0.18325 0.29968 0.02445 0.0
O303 O 0.08873 0.22726 0.03083 0.0
O304 O 0.11895 0.26601 0.04933 0.0
C305 C 0.1984 0.27678 0.00916 0.0
C306 C 0.09264 0.25299 0.05205 0.0
O307 O 0.15091 0.19071 0.96578 0.0
Mg308 Mg 0.0225 0.87891 0.26602 0.0
O309 O 0.98241 0.86517 0.22097 0.0
O310 O 0.93793 0.87076 0.25709 0.0
Mg311 Mg 0.9504 0.88776 0.32782 0.0
C312 C 0.95326 0.86382 0.22207 0.0
C313 C 0.07146 0.85581 0.19932 0.0
O314 O 0.07701 0.83804 0.23399 0.0
O315 O 0.00978 0.92936 0.25566 0.0
O316 O 0.96719 0.93373 0.29721 0.0
O317 O 0.02648 0.83134 0.29398 0.0
O318 O 0.9966 0.86706 0.32283 0.0
C319 C 0.98791 0.94534 0.27202 0.0
C320 C 0.0056 0.83876 0.32271 0.0
O321 O 0.05195 0.87737 0.20286 0.0
Mg322 Mg 0.37847 0.7661 0.52599 0.0
O323 O 0.39111 0.73272 0.47061 0.0
O324 O 0.3736 0.68613 0.48883 0.0
Mg325 Mg 0.35608 0.6892 0.56209 0.0
C326 C 0.38682 0.7045 0.46159 0.0
C327 C 0.41235 0.81529 0.46813 0.0
O328 O 0.43254 0.8116 0.50033 0.0
O329 O 0.32711 0.76254 0.50847 0.0
O330 O 0.31423 0.71683 0.53773 0.0
O331 O 0.42442 0.75839 0.5568 0.0
O332 O 0.38376 0.73141 0.57623 0.0
C333 C 0.30718 0.74204 0.5183 0.0
C334 C 0.41285 0.73618 0.58013 0.0
O335 O 0.38635 0.80232 0.47142 0.0
Mg336 Mg 0.53319 0.13772 0.27832 0.0
O337 O 0.50097 0.15467 0.22158 0.0
O338 O 0.45378 0.14912 0.25027 0.0
Mg339 Mg 0.45534 0.13291 0.32321 0.0
C340 C 0.47177 0.15648 0.21816 0.0
C341 C 0.58882 0.13461 0.19616 0.0
O342 O 0.6136 0.1186 0.18744 0.0
O343 O 0.51815 0.08807 0.26691 0.0
O344 O 0.47221 0.085 0.29984 0.0
O345 O 0.53714 0.18592 0.30548 0.0
O346 O 0.50157 0.15264 0.32555 0.0
C347 C 0.49477 0.07267 0.2793 0.0
C348 C 0.51234 0.18015 0.32778 0.0
O349 O 0.57403 0.12857 0.23186 0.0
Mg350 Mg 0.60086 0.77221 0.01464 0.0
O351 O 0.58798 0.73335 0.9663 0.0
O352 O 0.59908 0.68854 0.99878 0.0
Mg353 Mg 0.61237 0.6991 0.07217 0.0
C354 C 0.59007 0.70413 0.96491 0.0
C355 C 0.57501 0.80812 0.93504 0.0
O356 O 0.55026 0.79607 0.95287 0.0
O357 O 0.65218 0.76181 0.00624 0.0
O358 O 0.65851 0.71932 0.0479 0.0
O359 O 0.55288 0.77326 0.04076 0.0
O360 O 0.58991 0.74483 0.06989 0.0
C361 C 0.66927 0.74116 0.02381 0.0
C362 C 0.56148 0.7527 0.06947 0.0
O363 O 0.6008 0.80366 0.95364 0.0
Mg364 Mg 0.99583 0.87811 0.77182 0.0
O365 O 0.02861 0.8647 0.71579 0.0
O366 O 0.07516 0.88245 0.73097 0.0
Mg367 Mg 0.07251 0.90276 0.80191 0.0
C368 C 0.05647 0.86863 0.70504 0.0
C369 C 0.94485 0.84062 0.72559 0.0
O370 O 0.94733 0.82566 0.76366 0.0
O371 O 0.99691 0.92962 0.75248 0.0
O372 O 0.04298 0.94319 0.77879 0.0
O373 O 0.00422 0.83345 0.8039 0.0
O374 O 0.03111 0.87481 0.82149 0.0
C375 C 0.01724 0.94998 0.76123 0.0
C376 C 0.02593 0.84571 0.82733 0.0
O377 O 0.95915 0.8659 0.72044 0.0
Mg378 Mg 0.87425 0.22447 0.52397 0.0
O379 O 0.88913 0.25172 0.46139 0.0
O380 O 0.87864 0.30141 0.47581 0.0
Mg381 Mg 0.85916 0.3062 0.54657 0.0
C382 C 0.88854 0.28014 0.44996 0.0
C383 C 0.88463 0.1609 0.45795 0.0
O384 O 0.87458 0.13252 0.45405 0.0
O385 O 0.8247 0.23169 0.50397 0.0
O386 O 0.81545 0.28063 0.52348 0.0
O387 O 0.9201 0.22965 0.55765 0.0
O388 O 0.8831 0.26328 0.5618 0.0
C389 C 0.80671 0.25459 0.50816 0.0
C390 C 0.91071 0.25602 0.57225 0.0
O391 O 0.87337 0.17762 0.48888 0.0
Mg392 Mg 0.52085 0.87334 0.23672 0.0
O393 O 0.48614 0.85991 0.2907 0.0
O394 O 0.43874 0.86882 0.26624 0.0
Mg395 Mg 0.44403 0.88741 0.19404 0.0
C396 C 0.45728 0.85981 0.29665 0.0
C397 C 0.57585 0.84594 0.28541 0.0
O398 O 0.57798 0.83245 0.24612 0.0
O399 O 0.51274 0.9242 0.25241 0.0
O400 O 0.4666 0.9319 0.22135 0.0
O401 O 0.51866 0.82649 0.20752 0.0
O402 O 0.48936 0.86504 0.18462 0.0
C403 C 0.49043 0.94177 0.24174 0.0
C404 C 0.49709 0.83643 0.18169 0.0
O405 O 0.55637 0.86728 0.29106 0.0
Mg406 Mg 0.87101 0.76682 0.00359 0.0
O407 O 0.88267 0.72879 0.0543 0.0
O408 O 0.87048 0.68347 0.02376 0.0
Mg409 Mg 0.85522 0.69282 0.95103 0.0
C410 C 0.88058 0.69959 0.05635 0.0
C411 C 0.89367 0.82223 0.05963 0.0
O412 O 0.90646 0.82857 0.02084 0.0
O413 O 0.81935 0.75979 0.01443 0.0
O414 O 0.81093 0.71578 0.97726 0.0
O415 O 0.91849 0.76483 0.97599 0.0
O416 O 0.87995 0.73756 0.94866 0.0
C417 C 0.80126 0.73893 0.99968 0.0
C418 C 0.90868 0.74454 0.94766 0.0
O419 O 0.87531 0.79966 0.06245 0.0
Mg420 Mg 0.99154 0.15308 0.7416 0.0
O421 O 0.03169 0.16405 0.78814 0.0
O422 O 0.07526 0.14993 0.75495 0.0
Mg423 Mg 0.06275 0.13263 0.68412 0.0
C424 C 0.06068 0.16101 0.7884 0.0
C425 C 0.93468 0.15013 0.81102 0.0
O426 O 0.92066 0.13284 0.78126 0.0
O427 O 0.99639 0.10093 0.7537 0.0
O428 O 0.03822 0.08992 0.71316 0.0
O429 O 0.99543 0.19997 0.71073 0.0
O430 O 0.01951 0.15887 0.68516 0.0
C431 C 0.01553 0.08161 0.73743 0.0
C432 C 0.01488 0.18809 0.68288 0.0
O433 O 0.96151 0.16006 0.80336 0.0
Mg434 Mg 0.61087 0.21604 0.46409 0.0
O435 O 0.60381 0.24582 0.52638 0.0
O436 O 0.60818 0.2951 0.50495 0.0
Mg437 Mg 0.62154 0.29674 0.43088 0.0
C438 C 0.60315 0.27463 0.53487 0.0
C439 C 0.6075 0.15848 0.54162 0.0
O440 O 0.61846 0.1309 0.54976 0.0
O441 O 0.66188 0.22446 0.47153 0.0
O442 O 0.66728 0.27365 0.45009 0.0
O443 O 0.56125 0.2211 0.44402 0.0
O444 O 0.59835 0.25247 0.42301 0.0
C445 C 0.67833 0.24821 0.46428 0.0
C446 C 0.56971 0.24592 0.42334 0.0
O447 O 0.6159 0.17207 0.50583 0.0
C448 C 0.02933 0.30602 0.09256 0.0
C449 C 0.03039 0.30019 0.13952 0.0
C450 C 0.06908 0.26 0.12779 0.0
C451 C 0.0686 0.26644 0.08108 0.0
N452 N 0.04543 0.29107 0.01742 0.0
N453 N 0.04746 0.26893 0.20172 0.0
C454 C 0.04775 0.28809 0.06298 0.0
C455 C 0.04891 0.27613 0.15705 0.0
N456 N 0.01083 0.32891 0.07643 0.0
N457 N 0.08987 0.23931 0.14428 0.0
H458 H 0.0351 0.28173 0.22508 0.0
H459 H 0.05735 0.24941 0.21579 0.0
H460 H 0.1039 0.22597 0.12367 0.0
H461 H 0.09435 0.23608 0.17824 0.0
H462 H 0.01125 0.33688 0.04354 0.0
H463 H 0.99532 0.34089 0.0965 0.0
H464 H 0.02909 0.30443 0.00118 0.0
H465 H 0.05882 0.27829 0.99528 0.0
C466 C 0.98907 0.82419 0.40042 0.0
C467 C 0.99226 0.81581 0.35458 0.0
C468 C 0.9645 0.7675 0.36965 0.0
C469 C 0.95734 0.77844 0.41327 0.0
N470 N 0.96224 0.81697 0.47083 0.0
N471 N 0.98446 0.7782 0.29555 0.0
C472 C 0.96957 0.80669 0.42888 0.0
C473 C 0.98089 0.78683 0.33934 0.0
N474 N 0.00601 0.84803 0.41728 0.0
N475 N 0.95542 0.73859 0.35708 0.0
H476 H 0.99882 0.78934 0.27312 0.0
H477 H 0.97247 0.76029 0.28043 0.0
H478 H 0.94229 0.72417 0.37735 0.0
H479 H 0.96243 0.72781 0.32769 0.0
H480 H 0.007 0.85359 0.45123 0.0
H481 H 0.02182 0.86027 0.39801 0.0
H482 H 0.96709 0.83907 0.48236 0.0
H483 H 0.94979 0.80372 0.49347 0.0
C484 C 0.46684 0.67316 0.62051 0.0
C485 C 0.47688 0.68495 0.66234 0.0
C486 C 0.44535 0.73119 0.64997 0.0
C487 C 0.43287 0.71756 0.61057 0.0
N488 N 0.42756 0.6726 0.56407 0.0
N489 N 0.47456 0.72474 0.71879 0.0
C490 C 0.44233 0.68764 0.59771 0.0
C491 C 0.46603 0.714 0.67753 0.0
N492 N 0.48192 0.64898 0.60109 0.0
N493 N 0.43755 0.76069 0.66093 0.0
H494 H 0.49015 0.71337 0.73937 0.0
H495 H 0.46478 0.74388 0.73415 0.0
H496 H 0.4209 0.77318 0.64366 0.0
H497 H 0.44908 0.7735 0.68505 0.0
H498 H 0.47764 0.64153 0.56844 0.0
H499 H 0.50119 0.63873 0.61537 0.0
H500 H 0.43096 0.6494 0.55661 0.0
H501 H 0.40997 0.6828 0.54637 0.0
C502 C 0.53913 0.22784 0.82895 0.0
C503 C 0.51849 0.20555 0.84605 0.0
C504 C 0.53057 0.22114 0.92316 0.0
C505 C 0.5539 0.24068 0.90617 0.0
N506 N 0.58091 0.26327 0.84368 0.0
N507 N 0.49389 0.18038 0.90856 0.0
C508 C 0.55826 0.24427 0.85923 0.0
C509 C 0.51392 0.20212 0.89295 0.0
N510 N 0.54008 0.23359 0.78384 0.0
N511 N 0.52408 0.22102 0.96808 0.0
H512 H 0.47966 0.16753 0.88758 0.0
H513 H 0.49218 0.17392 0.94209 0.0
H514 H 0.53684 0.23311 0.99179 0.0
H515 H 0.50497 0.21036 0.98197 0.0
H516 H 0.55227 0.25163 0.76947 0.0
H517 H 0.52712 0.22139 0.76044 0.0
H518 H 0.58807 0.26396 0.81039 0.0
H519 H 0.59374 0.27761 0.86453 0.0
C520 C 0.00999 0.69046 0.39585 0.0
C521 C 0.01494 0.68731 0.34896 0.0
C522 C 0.05429 0.72764 0.35155 0.0
C523 C 0.04936 0.73077 0.39842 0.0
N524 N 0.01846 0.72048 0.46362 0.0
N525 N 0.03679 0.70691 0.28051 0.0
C526 C 0.02583 0.71387 0.42009 0.0
C527 C 0.03555 0.7072 0.3263 0.0
N528 N 0.99051 0.67067 0.4173 0.0
N529 N 0.07726 0.74394 0.33127 0.0
H530 H 0.02403 0.6916 0.26131 0.0
H531 H 0.04854 0.72311 0.26139 0.0
H532 H 0.09003 0.76076 0.34785 0.0
H533 H 0.08473 0.73991 0.29863 0.0
H534 H 0.98844 0.6693 0.45201 0.0
H535 H 0.97753 0.65417 0.40038 0.0
H536 H 0.99971 0.71114 0.48032 0.0
H537 H 0.02998 0.73706 0.48247 0.0
C538 C 0.53607 0.7741 0.5978 0.0
C539 C 0.56787 0.78098 0.59456 0.0
C540 C 0.55721 0.83403 0.6165 0.0
C541 C 0.52612 0.82703 0.62333 0.0
N542 N 0.48446 0.79432 0.60175 0.0
N543 N 0.60754 0.81358 0.62594 0.0
C544 C 0.51506 0.79806 0.60871 0.0
C545 C 0.57829 0.80981 0.61106 0.0
N546 N 0.52619 0.74429 0.5956 0.0
N547 N 0.56634 0.86356 0.60976 0.0
H548 H 0.62248 0.79508 0.63015 0.0
H549 H 0.61504 0.83418 0.64029 0.0
H550 H 0.55035 0.88084 0.60335 0.0
H551 H 0.58903 0.86929 0.60254 0.0
H552 H 0.50352 0.73778 0.60054 0.0
H553 H 0.54114 0.72562 0.59604 0.0
H554 H 0.47547 0.77517 0.58553 0.0
H555 H 0.4688 0.81218 0.60644 0.0
C556 C 0.45292 0.25694 0.87454 0.0
C557 C 0.45812 0.26482 0.92008 0.0
C558 C 0.49618 0.30323 0.89775 0.0
C559 C 0.48781 0.29829 0.8522 0.0
N560 N 0.45971 0.27024 0.79591 0.0
N561 N 0.48675 0.29156 0.9766 0.0
C562 C 0.46696 0.27469 0.84012 0.0
C563 C 0.48064 0.28668 0.93218 0.0
N564 N 0.43467 0.23224 0.86464 0.0
N565 N 0.5192 0.32353 0.90763 0.0
H566 H 0.47696 0.27814 0.00187 0.0
H567 H 0.5013 0.30851 0.98888 0.0
H568 H 0.53157 0.33524 0.88301 0.0
H569 H 0.52721 0.3281 0.93975 0.0
H570 H 0.4311 0.22374 0.83247 0.0
H571 H 0.42466 0.21856 0.88941 0.0
H572 H 0.44246 0.25564 0.7847 0.0
H573 H 0.47017 0.28233 0.76985 0.0
C574 C 0.9636 0.21873 0.0821 0.0
C575 C 0.94081 0.2385 0.10032 0.0
C576 C 0.96029 0.22837 0.17632 0.0
C577 C 0.97989 0.20554 0.15857 0.0
N578 N 1.00067 0.17812 0.09526 0.0
N579 N 0.91655 0.26171 0.16482 0.0
C580 C 0.98189 0.2007 0.11159 0.0
C581 C 0.93896 0.24326 0.14747 0.0
N582 N 0.96773 0.21699 0.03668 0.0
N583 N 0.96255 0.23621 0.2206 0.0
H584 H 0.90215 0.27519 0.14502 0.0
H585 H 0.91103 0.26229 0.19879 0.0
H586 H 0.97806 0.22578 0.24244 0.0
H587 H 0.9509 0.25459 0.23499 0.0
H588 H 0.98654 0.20647 0.02172 0.0
H589 H 0.95312 0.22724 0.01347 0.0
H590 H 1.00022 0.17041 0.06219 0.0
H591 H 0.01591 0.16588 0.11547 0.0
C592 C 0.95794 0.73147 0.84335 0.0
C593 C 0.9733 0.70394 0.8556 0.0
C594 C 0.94453 0.70187 0.9261 0.0
C595 C 0.93011 0.73008 0.91517 0.0
N596 N 0.92588 0.7743 0.86667 0.0
N597 N 0.98737 0.66775 0.91348 0.0
C598 C 0.93767 0.74568 0.8747 0.0
C599 C 0.96826 0.69045 0.89832 0.0
N600 N 0.96198 0.74348 0.80138 0.0
N601 N 0.93525 0.68567 0.96283 0.0
H602 H 0.00594 0.65958 0.89499 0.0
H603 H 0.98695 0.65938 0.94623 0.0
H604 H 0.91854 0.69391 0.98439 0.0
H605 H 0.94223 0.66325 0.9698 0.0
H606 H 0.9488 0.7613 0.78831 0.0
H607 H 0.97745 0.73437 0.77834 0.0
H608 H 0.93317 0.78847 0.8406 0.0
H609 H 0.91013 0.78488 0.88798 0.0
C610 C 0.06455 0.25207 0.63265 0.0
C611 C 0.06796 0.24119 0.588 0.0
C612 C 0.03278 0.19854 0.60423 0.0
C613 C 0.03213 0.20736 0.65017 0.0
N614 N 0.05052 0.24049 0.70951 0.0
N615 N 0.05769 0.20269 0.53188 0.0
C616 C 0.04858 0.23379 0.66474 0.0
C617 C 0.0529 0.2139 0.57408 0.0
N618 N 0.07676 0.27988 0.64454 0.0
N619 N 0.01278 0.17672 0.58878 0.0
H620 H 0.07045 0.21456 0.50807 0.0
H621 H 0.05055 0.18097 0.52138 0.0
H622 H 0.99668 0.16591 0.60926 0.0
H623 H 0.00985 0.17161 0.55491 0.0
H624 H 0.07185 0.29084 0.67466 0.0
H625 H 0.09013 0.29325 0.62309 0.0
H626 H 0.06497 0.25728 0.72269 0.0
H627 H 0.03999 0.22742 0.73442 0.0
C628 C 0.52669 0.28461 0.42396 0.0
C629 C 0.54782 0.2663 0.39954 0.0
C630 C 0.53326 0.29218 0.32946 0.0
C631 C 0.51283 0.31118 0.35397 0.0
N632 N 0.4914 0.32792 0.42431 0.0
N633 N 0.5673 0.248 0.32882 0.0
C634 C 0.50971 0.30788 0.40117 0.0
C635 C 0.55007 0.26888 0.35219 0.0
N636 N 0.52255 0.27933 0.46877 0.0
N637 N 0.53741 0.29728 0.28464 0.0
H638 H 0.57945 0.23028 0.34432 0.0
H639 H 0.56764 0.2463 0.29401 0.0
H640 H 0.52456 0.31329 0.26693 0.0
H641 H 0.55442 0.28703 0.26532 0.0
H642 H 0.50543 0.28939 0.48806 0.0
H643 H 0.53511 0.26299 0.48641 0.0
H644 H 0.49062 0.32943 0.45911 0.0
H645 H 0.47768 0.34434 0.40859 0.0
C646 C 0.45988 0.79389 0.16735 0.0
C647 C 0.48168 0.81501 0.1504 0.0
C648 C 0.47544 0.79335 0.07485 0.0
C649 C 0.45453 0.77161 0.09261 0.0
N650 N 0.43327 0.74558 0.15677 0.0
N651 N 0.51448 0.83185 0.09006 0.0
C652 C 0.4489 0.77007 0.13928 0.0
C653 C 0.49083 0.81382 0.10467 0.0
N654 N 0.4484 0.79763 0.20955 0.0
N655 N 0.47982 0.79495 0.02953 0.0
H656 H 0.52578 0.84749 0.11084 0.0
H657 H 0.5242 0.82999 0.05829 0.0
H658 H 0.46982 0.77932 0.0074 0.0
H659 H 0.49211 0.8124 0.01375 0.0
H660 H 0.4304 0.78464 0.22253 0.0
H661 H 0.45465 0.81614 0.22962 0.0
H662 H 0.43109 0.74164 0.19111 0.0
H663 H 0.42525 0.72746 0.13697 0.0
C664 C 0.9783 0.30646 0.61328 0.0
C665 C 0.96177 0.32842 0.63897 0.0
C666 C 0.91472 0.29937 0.62704 0.0
C667 C 0.93018 0.27805 0.59885 0.0
N668 N 0.97924 0.25787 0.57334 0.0
N669 N 0.9127 0.35183 0.65111 0.0
C670 C 0.96274 0.28058 0.59394 0.0
C671 C 0.92956 0.32668 0.64038 0.0
N672 N 0.00871 0.31174 0.60513 0.0
N673 N 0.88634 0.29276 0.64384 0.0
H674 H 0.92278 0.37326 0.6516 0.0
H675 H 0.88884 0.35231 0.64983 0.0
H676 H 0.8759 0.27134 0.63975 0.0
H677 H 0.87533 0.30679 0.66721 0.0
H678 H 0.02204 0.29909 0.5829 0.0
H679 H 0.0201 0.33116 0.61727 0.0
H680 H 0.00297 0.25698 0.57314 0.0
H681 H 0.97012 0.23812 0.55925 0.0
C682 C 0.48255 0.22975 0.33214 0.0
C683 C 0.49612 0.2042 0.3542 0.0
C684 C 0.47375 0.22132 0.42578 0.0
C685 C 0.45667 0.24392 0.40237 0.0
N686 N 0.44287 0.26875 0.33294 0.0
N687 N 0.5054 0.17549 0.42213 0.0
C688 C 0.46073 0.24805 0.35551 0.0
C689 C 0.49203 0.20004 0.40116 0.0
N690 N 0.49063 0.23679 0.28903 0.0
N691 N 0.47273 0.22051 0.47158 0.0
H692 H 0.52104 0.16099 0.40624 0.0
H693 H 0.50022 0.16872 0.45476 0.0
H694 H 0.45914 0.23548 0.49021 0.0
H695 H 0.48701 0.2069 0.49127 0.0
H696 H 0.48418 0.25709 0.27303 0.0
H697 H 0.50541 0.22339 0.26983 0.0
H698 H 0.44169 0.26993 0.29808 0.0
H699 H 0.42775 0.28369 0.34906 0.0
C700 C 0.50392 0.69493 0.11372 0.0
C701 C 0.50428 0.70223 0.1602 0.0
C702 C 0.5385 0.74581 0.14593 0.0
C703 C 0.5392 0.73766 0.09979 0.0
N704 N 0.51639 0.71057 0.03767 0.0
N705 N 0.5142 0.73915 0.21866 0.0
C706 C 0.51982 0.7142 0.08297 0.0
C707 C 0.51905 0.72924 0.17572 0.0
N708 N 0.48891 0.66914 0.09918 0.0
N709 N 0.55696 0.76893 0.16134 0.0
H710 H 0.50019 0.72735 0.24119 0.0
H711 H 0.52186 0.76024 0.23088 0.0
H712 H 0.5701 0.7827 0.14007 0.0
H713 H 0.56037 0.77361 0.19524 0.0
H714 H 0.49092 0.6603 0.06684 0.0
H715 H 0.47528 0.65566 0.12019 0.0
H716 H 0.50013 0.69615 0.02315 0.0
H717 H 0.5282 0.72386 0.01422 0.0
C718 C 0.02642 0.8026 0.88318 0.0
C719 C 0.04292 0.82575 0.85971 0.0
C720 C 0.09018 0.79716 0.87077 0.0
C721 C 0.07466 0.77527 0.89764 0.0
N722 N 0.02617 0.75067 0.91283 0.0
N723 N 0.09168 0.85083 0.85296 0.0
C724 C 0.04213 0.77615 0.89958 0.0
C725 C 0.07516 0.8247 0.85915 0.0
N726 N 0.99599 0.80693 0.89183 0.0
N727 N 0.11858 0.79106 0.85399 0.0
H728 H 0.08138 0.87203 0.85834 0.0
H729 H 0.11556 0.85125 0.85362 0.0
H730 H 0.1288 0.76946 0.85713 0.0
H731 H 0.12971 0.80594 0.83184 0.0
H732 H 0.98312 0.79277 0.91275 0.0
H733 H 0.98444 0.82693 0.88233 0.0
H734 H 0.00243 0.74953 0.91407 0.0
H735 H 0.03642 0.72915 0.91623 0.0
C736 C 0.05625 0.34807 0.36747 0.0
C737 C 0.06858 0.33686 0.32618 0.0
C738 C 0.11581 0.32205 0.36501 0.0
C739 C 0.10384 0.3343 0.40532 0.0
N740 N 0.05991 0.34826 0.44884 0.0
N741 N 0.1052 0.30368 0.28973 0.0
C742 C 0.0729 0.34328 0.40781 0.0
C743 C 0.09681 0.32063 0.32633 0.0
N744 N 0.03032 0.36569 0.36813 0.0
N745 N 0.14579 0.31329 0.36321 0.0
H746 H 0.09124 0.30153 0.26148 0.0
H747 H 0.12431 0.28936 0.28926 0.0
H748 H 0.15965 0.31263 0.39176 0.0
H749 H 0.15701 0.30773 0.33344 0.0
H750 H 0.02268 0.37718 0.39669 0.0
H751 H 0.01773 0.37145 0.33975 0.0
H752 H 0.03659 0.35228 0.45333 0.0
H753 H 0.0721 0.34501 0.47862 0.0
C754 C 0.89286 0.80488 0.63738 0.0
C755 C 0.9149 0.79412 0.60629 0.0
C756 C 0.956 0.80813 0.65833 0.0
C757 C 0.93418 0.8237 0.68551 0.0
N758 N 0.88196 0.83775 0.70127 0.0
N759 N 0.96756 0.78452 0.58653 0.0
C760 C 0.90257 0.82215 0.67533 0.0
C761 C 0.94654 0.79511 0.61681 0.0
N762 N 0.8628 0.79742 0.63131 0.0
N763 N 0.98557 0.80512 0.67282 0.0
H764 H 0.96144 0.77285 0.5573 0.0
H765 H 0.99101 0.78841 0.58931 0.0
H766 H 0.99333 0.81422 0.70314 0.0
H767 H 0.00183 0.79144 0.65687 0.0
H768 H 0.8456 0.80252 0.65432 0.0
H769 H 0.85582 0.78281 0.60547 0.0
H770 H 0.85896 0.84023 0.69283 0.0
H771 H 0.88833 0.85001 0.72992 0.0
C772 C 0.4476 0.64449 0.93247 0.0
C773 C 0.42224 0.66455 0.92892 0.0
C774 C 0.43791 0.67804 0.85278 0.0
C775 C 0.45813 0.65245 0.85275 0.0
N776 N 0.48253 0.61089 0.8928 0.0
N777 N 0.3933 0.70171 0.88664 0.0
C778 C 0.46381 0.63605 0.89303 0.0
C779 C 0.41792 0.68246 0.88979 0.0
N780 N 0.45534 0.63291 0.97351 0.0
N781 N 0.43757 0.69766 0.81701 0.0
H782 H 0.37835 0.7055 0.91336 0.0
H783 H 0.38684 0.71273 0.85708 0.0
H784 H 0.45176 0.69445 0.78933 0.0
H785 H 0.42552 0.71835 0.81668 0.0
H786 H 0.475 0.61993 0.97923 0.0
H787 H 0.44347 0.63909 0.00259 0.0
H788 H 0.48486 0.59603 0.92001 0.0
H789 H 0.49429 0.60365 0.86428 0.0
C790 C 0.59977 0.20575 0.13022 0.0
C791 C 0.58857 0.19611 0.08747 0.0
C792 C 0.56751 0.14932 0.12174 0.0
C793 C 0.5796 0.15857 0.16367 0.0
N794 N 0.59746 0.19927 0.21121 0.0
N795 N 0.55322 0.16405 0.0462 0.0
C796 C 0.59205 0.1883 0.16901 0.0
C797 C 0.56955 0.16961 0.08445 0.0
N798 N 0.61992 0.22974 0.13364 0.0
N799 N 0.55551 0.12044 0.11712 0.0
H800 H 0.55394 0.17866 0.01848 0.0
H801 H 0.53678 0.14676 0.04362 0.0
H802 H 0.55236 0.10576 0.14449 0.0
H803 H 0.54984 0.11076 0.08624 0.0
H804 H 0.63122 0.23537 0.16331 0.0
H805 H 0.62776 0.2424 0.10632 0.0
H806 H 0.60406 0.22189 0.21773 0.0
H807 H 0.59209 0.18649 0.23983 0.0
C808 C 0.07023 0.63134 0.14571 0.0
C809 C 0.04594 0.64798 0.16619 0.0
C810 C 0.04814 0.68605 0.10512 0.0
C811 C 0.07502 0.67156 0.0886 0.0
N812 N 0.11356 0.63219 0.09484 0.0
N813 N 0.01223 0.69236 0.16622 0.0
C814 C 0.08664 0.64473 0.10943 0.0
C815 C 0.03469 0.67545 0.14583 0.0
N816 N 0.07655 0.60199 0.15949 0.0
N817 N 0.03542 0.71 0.08179 0.0
H818 H 1.00025 0.68516 0.19444 0.0
H819 H 0.00635 0.71462 0.15662 0.0
H820 H 0.04558 0.71985 0.05355 0.0
H821 H 0.01383 0.71899 0.08857 0.0
H822 H 0.09194 0.58756 0.14309 0.0
H823 H 0.06392 0.59078 0.18433 0.0
H824 H 0.12503 0.61475 0.11193 0.0
H825 H 0.12565 0.64077 0.06735 0.0
C826 C 0.61729 0.83637 0.34179 0.0
C827 C 0.58764 0.82983 0.32529 0.0
C828 C 0.57712 0.79669 0.38994 0.0
C829 C 0.60719 0.80243 0.40586 0.0
N830 N 0.65829 0.82132 0.39205 0.0
N831 N 0.5421 0.7983 0.3271 0.0
C832 C 0.62804 0.82041 0.3803 0.0
C833 C 0.56845 0.80818 0.34728 0.0
N834 N 0.63485 0.8583 0.32126 0.0
N835 N 0.55626 0.78186 0.41653 0.0
H836 H 0.53459 0.80657 0.29615 0.0
H837 H 0.52921 0.77985 0.33901 0.0
H838 H 0.5614 0.77339 0.44838 0.0
H839 H 0.53308 0.78023 0.4087 0.0
H840 H 0.65527 0.86661 0.33462 0.0
H841 H 0.62793 0.86969 0.29215 0.0
H842 H 0.67514 0.83162 0.37242 0.0
H843 H 0.66709 0.80916 0.41936 0.0
C844 C 0.40002 0.31573 0.61627 0.0
C845 C 0.41017 0.3321 0.578 0.0
C846 C 0.4548 0.35095 0.61924 0.0
C847 C 0.44379 0.33617 0.65889 0.0
N848 N 0.41166 0.29681 0.69111 0.0
N849 N 0.45171 0.35515 0.53796 0.0
C850 C 0.41823 0.31594 0.65604 0.0
C851 C 0.43935 0.34595 0.57784 0.0
N852 N 0.37229 0.30123 0.61502 0.0
N853 N 0.4782 0.37183 0.62144 0.0
H854 H 0.44035 0.35164 0.50753 0.0
H855 H 0.47413 0.36303 0.53464 0.0
H856 H 0.48966 0.37751 0.6509 0.0
H857 H 0.4846 0.38572 0.59454 0.0
H858 H 0.36168 0.29174 0.64308 0.0
H859 H 0.35948 0.29966 0.58551 0.0
H860 H 0.39504 0.27964 0.68974 0.0
H861 H 0.42492 0.29618 0.72019 0.0
C862 C 0.93285 0.15038 0.895 0.0
C863 C 0.91942 0.15906 0.8535 0.0
C864 C 0.88037 0.18861 0.89381 0.0
C865 C 0.89667 0.1841 0.93442 0.0
N866 N 0.93911 0.16134 0.97427 0.0
N867 N 0.88198 0.1888 0.81261 0.0
C868 C 0.9229 0.1648 0.93537 0.0
C869 C 0.89334 0.17852 0.85264 0.0
N870 N 0.95475 0.12789 0.89578 0.0
N871 N 0.85206 0.20194 0.8949 0.0
H872 H 0.89076 0.18204 0.78161 0.0
H873 H 0.86537 0.20592 0.81012 0.0
H874 H 0.84162 0.20845 0.9249 0.0
H875 H 0.8377 0.20342 0.86708 0.0
H876 H 0.96339 0.11833 0.9252 0.0
H877 H 0.96232 0.1167 0.86683 0.0
H878 H 0.96059 0.15102 0.97584 0.0
H879 H 0.93194 0.17038 0.00488 0.0
C880 C 0.96658 0.65604 0.61737 0.0
C881 C 0.95966 0.6739 0.6559 0.0
C882 C 0.91627 0.69742 0.61658 0.0
C883 C 0.9225 0.67853 0.57892 0.0
N884 N 0.95873 0.6483 0.53749 0.0
N885 N 0.93477 0.71843 0.687 0.0
C886 C 0.94975 0.66103 0.57725 0.0
C887 C 0.9369 0.69714 0.65349 0.0
N888 N 0.9871 0.63245 0.62017 0.0
N889 N 0.88952 0.71362 0.61863 0.0
H890 H 0.94976 0.71844 0.71422 0.0
H891 H 0.92041 0.73755 0.68548 0.0
H892 H 0.87409 0.71445 0.59193 0.0
H893 H 0.88203 0.72501 0.64736 0.0
H894 H 0.99048 0.6164 0.59466 0.0
H895 H 0.99929 0.62769 0.64934 0.0
H896 H 0.97968 0.63725 0.53311 0.0
H897 H 0.94635 0.65171 0.50791 0.0
C898 C 0.05845 0.18532 0.36268 0.0
C899 C 0.07868 0.17913 0.32662 0.0
C900 C 0.11239 0.22086 0.35103 0.0
C901 C 0.09364 0.22479 0.38927 0.0
N902 N 0.04351 0.22096 0.42151 0.0
N903 N 0.11815 0.19745 0.27735 0.0
C904 C 0.06453 0.21077 0.3911 0.0
C905 C 0.10317 0.19955 0.31741 0.0
N906 N 0.03555 0.16514 0.37268 0.0
N907 N 0.1399 0.23565 0.34874 0.0
H908 H 0.11142 0.18172 0.25272 0.0
H909 H 0.135 0.21292 0.26715 0.0
H910 H 0.14666 0.25157 0.37301 0.0
H911 H 0.15626 0.23132 0.32413 0.0
H912 H 0.02236 0.16662 0.40173 0.0
H913 H 0.03137 0.14567 0.35325 0.0
H914 H 0.02103 0.21294 0.42267 0.0
H915 H 0.04802 0.23982 0.44226 0.0
C916 C 0.54241 0.32417 0.10831 0.0
C917 C 0.56682 0.34205 0.09063 0.0
C918 C 0.56114 0.37935 0.15143 0.0
C919 C 0.53938 0.35963 0.17225 0.0
N920 N 0.50968 0.31253 0.17165 0.0
N921 N 0.60141 0.38503 0.09596 0.0
C922 C 0.52976 0.33202 0.15075 0.0
C923 C 0.57669 0.36926 0.11227 0.0
N924 N 0.5312 0.29975 0.08429 0.0
N925 N 0.56607 0.40823 0.16825 0.0
H926 H 0.61269 0.37879 0.06646 0.0
H927 H 0.61204 0.40297 0.11313 0.0
H928 H 0.55462 0.41671 0.19637 0.0
H929 H 0.57921 0.42487 0.15207 0.0
H930 H 0.51116 0.28804 0.09243 0.0
H931 H 0.54075 0.29226 0.05414 0.0
H932 H 0.50517 0.2902 0.16085 0.0
H933 H 0.4983 0.31785 0.20128 0.0
C934 C 0.38998 0.81072 0.87664 0.0
C935 C 0.41102 0.79164 0.90012 0.0
C936 C 0.4487 0.79892 0.83965 0.0
C937 C 0.42882 0.82065 0.8189 0.0
N938 N 0.38183 0.84958 0.81928 0.0
N939 N 0.4615 0.76934 0.90607 0.0
C940 C 0.39983 0.82725 0.83793 0.0
C941 C 0.44055 0.78584 0.8819 0.0
N942 N 0.36015 0.81201 0.89046 0.0
N943 N 0.47555 0.79087 0.81908 0.0
H944 H 0.4564 0.75854 0.93634 0.0
H945 H 0.4846 0.76784 0.89772 0.0
H946 H 0.48388 0.80179 0.7904 0.0
H947 H 0.48889 0.77221 0.82895 0.0
H948 H 0.34289 0.82298 0.87246 0.0
H949 H 0.35195 0.79948 0.91781 0.0
H950 H 0.36205 0.85802 0.8344 0.0
H951 H 0.3878 0.86131 0.79001 0.0
C952 C 0.93383 0.35923 0.90884 0.0
C953 C 0.90429 0.34556 0.90876 0.0
C954 C 0.90159 0.35207 0.82705 0.0
C955 C 0.92955 0.36883 0.82803 0.0
N956 N 0.96828 0.39464 0.87215 0.0
N957 N 0.85741 0.33449 0.86909 0.0
C958 C 0.94442 0.37437 0.86966 0.0
C959 C 0.88733 0.34371 0.86823 0.0
N960 N 0.95275 0.35614 0.94514 0.0
N961 N 0.88952 0.34245 0.78711 0.0
H962 H 0.84607 0.32866 0.89872 0.0
H963 H 0.8431 0.3356 0.84116 0.0
H964 H 0.89981 0.34677 0.75619 0.0
H965 H 0.87096 0.32744 0.78494 0.0
H966 H 0.97565 0.3629 0.94473 0.0
H967 H 0.94686 0.3438 0.97385 0.0
H968 H 0.97786 0.40175 0.90246 0.0
H969 H 0.97631 0.40684 0.84446 0.0
C970 C 0.43217 0.22008 0.65246 0.0
C971 C 0.41361 0.19562 0.66875 0.0
C972 C 0.38054 0.19971 0.60291 0.0
C973 C 0.4016 0.22081 0.5835 0.0
N974 N 0.44858 0.25024 0.58859 0.0
N975 N 0.37144 0.16051 0.65926 0.0
C976 C 0.42747 0.23122 0.60819 0.0
C977 C 0.38808 0.18503 0.64398 0.0
N978 N 0.45453 0.23248 0.67912 0.0
N979 N 0.35279 0.19467 0.58295 0.0
H980 H 0.37552 0.1501 0.69025 0.0
H981 H 0.35489 0.14931 0.64011 0.0
H982 H 0.34601 0.20577 0.55355 0.0
H983 H 0.33528 0.18195 0.59775 0.0
H984 H 0.46601 0.25286 0.67162 0.0
H985 H 0.46027 0.22377 0.71057 0.0
H986 H 0.46978 0.25535 0.6027 0.0
H987 H 0.44609 0.2596 0.55668 0.0
C988 C 0.56114 0.65889 0.42834 0.0
C989 C 0.58625 0.679 0.42165 0.0
C990 C 0.56296 0.69635 0.35126 0.0
C991 C 0.54263 0.67082 0.35258 0.0
N992 N 0.52221 0.62733 0.39316 0.0
N993 N 0.61103 0.71801 0.37735 0.0
C994 C 0.54095 0.65247 0.39196 0.0
C995 C 0.58669 0.69878 0.38387 0.0
N996 N 0.55747 0.64516 0.46918 0.0
N997 N 0.5599 0.7177 0.31797 0.0
H998 H 0.62872 0.72009 0.40065 0.0
H999 H 0.6145 0.73063 0.34808 0.0
H1000 H 0.54249 0.71625 0.29412 0.0
H1001 H 0.57252 0.73803 0.31658 0.0
H1002 H 0.53834 0.63207 0.47771 0.0
H1003 H 0.57231 0.64967 0.49588 0.0
H1004 H 0.52262 0.61107 0.41884 0.0
H1005 H 0.50758 0.62154 0.36691 0.0
C1006 C 0.12609 0.83384 0.10556 0.0
C1007 C 0.10536 0.8209 0.07409 0.0
C1008 C 0.06216 0.8324 0.12368 0.0
C1009 C 0.08274 0.84634 0.15459 0.0
N1010 N 0.13309 0.8654 0.17211 0.0
N1011 N 0.05364 0.8137 0.048 0.0
C1012 C 0.11439 0.84865 0.14458 0.0
C1013 C 0.07335 0.82209 0.08154 0.0
N1014 N 0.15693 0.83071 0.09915 0.0
N1015 N 0.03232 0.82735 0.13556 0.0
H1016 H 0.06112 0.80601 0.01667 0.0
H1017 H 0.03006 0.81702 0.04964 0.0
H1018 H 0.02311 0.83426 0.1662 0.0
H1019 H 0.01722 0.81407 0.11666 0.0
H1020 H 0.17323 0.83631 0.12331 0.0
H1021 H 0.16631 0.82061 0.07052 0.0
H1022 H 0.15579 0.87056 0.16455 0.0
H1023 H 0.12513 0.87638 0.201 0.0
C1024 C 0.57758 0.85521 0.88651 0.0
C1025 C 0.57303 0.82298 0.89054 0.0
C1026 C 0.56001 0.81963 0.81068 0.0
C1027 C 0.56016 0.85219 0.80845 0.0
N1028 N 0.5678 0.90162 0.84335 0.0
N1029 N 0.55994 0.77395 0.85736 0.0
C1030 C 0.56912 0.87021 0.84589 0.0
C1031 C 0.56446 0.80497 0.85274 0.0
N1032 N 0.58954 0.87147 0.92168 0.0
N1033 N 0.55605 0.80284 0.77223 0.0
H1034 H 0.56479 0.76203 0.88686 0.0
H1035 H 0.55008 0.76011 0.83279 0.0
H1036 H 0.553 0.81305 0.74083 0.0
H1037 H 0.5584 0.77903 0.7705 0.0
H1038 H 0.59636 0.89438 0.91941 0.0
H1039 H 0.59474 0.86147 0.95256 0.0
H1040 H 0.57034 0.91614 0.87089 0.0
H1041 H 0.56239 0.91332 0.81382 0.0
C1042 C 0.4049 0.3239 0.1885 0.0
C1043 C 0.42278 0.35094 0.18556 0.0
C1044 C 0.44174 0.334 0.11226 0.0
C1045 C 0.41844 0.31109 0.1108 0.0
N1046 N 0.37561 0.28613 0.14732 0.0
N1047 N 0.45918 0.38201 0.14547 0.0
C1048 C 0.39992 0.30588 0.14932 0.0
C1049 C 0.44208 0.35572 0.14807 0.0
N1050 N 0.39182 0.31624 0.22856 0.0
N1051 N 0.46321 0.33513 0.07902 0.0
H1052 H 0.46034 0.39783 0.17178 0.0
H1053 H 0.47107 0.38878 0.11685 0.0
H1054 H 0.46374 0.31909 0.05304 0.0
H1055 H 0.48197 0.34992 0.07938 0.0
H1056 H 0.38055 0.29543 0.23406 0.0
H1057 H 0.39525 0.32949 0.2574 0.0
H1058 H 0.35945 0.28412 0.17286 0.0
H1059 H 0.36991 0.27368 0.11868 0.0
C1060 C 0.90236 0.18967 0.38961 0.0
C1061 C 0.90933 0.17107 0.42725 0.0
C1062 C 0.95319 0.14893 0.38786 0.0
C1063 C 0.94576 0.16664 0.34922 0.0
N1064 N 0.91967 0.21078 0.31864 0.0
N1065 N 0.94688 0.14228 0.46819 0.0
C1066 C 0.92253 0.1895 0.35206 0.0
C1067 C 0.93692 0.15417 0.42838 0.0
N1068 N 0.87548 0.20568 0.3884 0.0
N1069 N 0.97357 0.1252 0.3851 0.0
H1070 H 0.93499 0.14595 0.49814 0.0
H1071 H 0.96819 0.13184 0.47209 0.0
H1072 H 0.98539 0.11974 0.3559 0.0
H1073 H 0.97701 0.10939 0.41091 0.0
H1074 H 0.8674 0.21689 0.35986 0.0
H1075 H 0.86052 0.20652 0.41567 0.0
H1076 H 0.90504 0.22967 0.32053 0.0
H1077 H 0.93423 0.21106 0.29095 0.0
C1078 C 0.09948 0.72984 0.63065 0.0
C1079 C 0.08636 0.71598 0.59184 0.0
C1080 C 0.06817 0.67275 0.63759 0.0
C1081 C 0.08178 0.6863 0.67581 0.0
N1082 N 0.10096 0.73166 0.7121 0.0
N1083 N 0.04928 0.68017 0.56206 0.0
C1084 C 0.09389 0.71642 0.67338 0.0
C1085 C 0.06756 0.68945 0.59667 0.0
N1086 N 0.11953 0.75383 0.62678 0.0
N1087 N 0.05803 0.64305 0.63933 0.0
H1088 H 0.04797 0.69231 0.53195 0.0
H1089 H 0.03331 0.66245 0.56498 0.0
H1090 H 0.05705 0.63051 0.66917 0.0
H1091 H 0.05219 0.63049 0.61078 0.0
H1092 H 0.1325 0.76201 0.65358 0.0
H1093 H 0.12542 0.76392 0.59636 0.0
H1094 H 0.1075 0.75473 0.71288 0.0
H1095 H 0.09708 0.72191 0.74364 0.0
C1096 C 0.59632 0.18699 0.61248 0.0
C1097 C 0.58529 0.17147 0.57404 0.0
C1098 C 0.54027 0.15381 0.61544 0.0
C1099 C 0.55237 0.16729 0.65537 0.0
N1100 N 0.58616 0.20504 0.68814 0.0
N1101 N 0.54258 0.15077 0.53397 0.0
C1102 C 0.57855 0.18674 0.6526 0.0
C1103 C 0.55558 0.15882 0.57394 0.0
N1104 N 0.62453 0.20053 0.61108 0.0
N1105 N 0.51587 0.13412 0.61732 0.0
H1106 H 0.55388 0.15433 0.5035 0.0
H1107 H 0.51986 0.14381 0.53074 0.0
H1108 H 0.50417 0.12879 0.64668 0.0
H1109 H 0.50859 0.12098 0.5901 0.0
H1110 H 0.63573 0.20923 0.63919 0.0
H1111 H 0.63711 0.20208 0.58136 0.0
H1112 H 0.60317 0.22182 0.68684 0.0
H1113 H 0.57345 0.20538 0.71773 0.0
C1114 C 0.06481 0.29786 0.83331 0.0
C1115 C 0.07653 0.32594 0.81579 0.0
C1116 C 0.11847 0.32429 0.87043 0.0
C1117 C 0.10422 0.29896 0.89224 0.0
N1118 N 0.06204 0.26287 0.89639 0.0
N1119 N 0.11344 0.36714 0.81873 0.0
C1120 C 0.07719 0.28569 0.87383 0.0
C1121 C 0.10307 0.33952 0.83467 0.0
N1122 N 0.04157 0.2829 0.81158 0.0
N1123 N 0.14736 0.33298 0.88283 0.0
H1124 H 0.10367 0.37823 0.79119 0.0
H1125 H 0.13044 0.38 0.83452 0.0
H1126 H 0.15977 0.32151 0.90764 0.0
H1127 H 0.16024 0.34931 0.86556 0.0
H1128 H 0.03505 0.26039 0.81896 0.0
H1129 H 0.03009 0.29203 0.78396 0.0
H1130 H 0.04023 0.25521 0.88774 0.0
H1131 H 0.07 0.25286 0.92587 0.0
C1132 C 0.89881 0.86108 0.12167 0.0
C1133 C 0.90844 0.83332 0.10115 0.0
C1134 C 0.94452 0.82404 0.16245 0.0
C1135 C 0.93697 0.85313 0.18116 0.0
N1136 N 0.91085 0.90191 0.17435 0.0
N1137 N 0.94397 0.79079 0.09733 0.0
C1138 C 0.91504 0.87236 0.15977 0.0
C1139 C 0.93238 0.81554 0.12014 0.0
N1140 N 0.87395 0.8764 0.1051 0.0
N1141 N 0.96222 0.80387 0.18614 0.0
H1142 H 0.93524 0.78315 0.06671 0.0
H1143 H 0.96385 0.77931 0.1069 0.0
H1144 H 0.97089 0.80906 0.21771 0.0
H1145 H 0.96585 0.78109 0.17663 0.0
H1146 H 0.86371 0.89494 0.12139 0.0
H1147 H 0.86214 0.8691 0.07657 0.0
H1148 H 0.8976 0.91802 0.15728 0.0
H1149 H 0.92278 0.91127 0.20143 0.0
C1150 C 0.38376 0.69894 0.37773 0.0
C1151 C 0.39873 0.69222 0.41879 0.0
C1152 C 0.42809 0.65116 0.38323 0.0
C1153 C 0.41146 0.65616 0.34318 0.0
N1154 N 0.38082 0.68953 0.29734 0.0
N1155 N 0.44337 0.67177 0.45534 0.0
C1156 C 0.39184 0.68189 0.33877 0.0
C1157 C 0.42364 0.67143 0.41985 0.0
N1158 N 0.36101 0.7205 0.37656 0.0
N1159 N 0.44664 0.62602 0.38717 0.0
H1160 H 0.44162 0.68816 0.48078 0.0
H1161 H 0.46331 0.65864 0.45661 0.0
H1162 H 0.45122 0.61131 0.36029 0.0
H1163 H 0.45622 0.61902 0.41752 0.0
H1164 H 0.34671 0.72395 0.34909 0.0
H1165 H 0.35574 0.73442 0.40398 0.0
H1166 H 0.36815 0.70932 0.29083 0.0
H1167 H 0.38684 0.67722 0.26855 0.0
C1168 C 0.43511 0.19286 0.18167 0.0
C1169 C 0.45736 0.16919 0.17684 0.0
C1170 C 0.44337 0.16442 0.09739 0.0
C1171 C 0.41697 0.1823 0.10571 0.0
N1172 N 0.38744 0.21453 0.15479 0.0
N1173 N 0.48274 0.13191 0.12936 0.0
C1174 C 0.41322 0.19752 0.14722 0.0
C1175 C 0.46221 0.15539 0.13411 0.0
N1176 N 0.43472 0.21058 0.21952 0.0
N1177 N 0.44969 0.15542 0.05449 0.0
H1178 H 0.49641 0.12398 0.15551 0.0
H1179 H 0.48475 0.11878 0.10027 0.0
H1180 H 0.4358 0.16189 0.02756 0.0
H1181 H 0.46993 0.14447 0.04522 0.0
H1182 H 0.42118 0.23017 0.22308 0.0
H1183 H 0.44997 0.20717 0.24586 0.0
H1184 H 0.3812 0.22289 0.18624 0.0
H1185 H 0.37143 0.21895 0.12961 0.0
C1186 C 0.56504 0.64078 0.88441 0.0
C1187 C 0.57732 0.6516 0.8434 0.0
C1188 C 0.59556 0.69832 0.88045 0.0
C1189 C 0.58306 0.68777 0.92197 0.0
N1190 N 0.54768 0.65348 0.95932 0.0
N1191 N 0.59496 0.69414 0.79919 0.0
C1192 C 0.56508 0.66043 0.92261 0.0
C1193 C 0.58907 0.68178 0.84042 0.0
N1194 N 0.55484 0.61114 0.88746 0.0
N1195 N 0.61583 0.72232 0.87934 0.0
H1196 H 0.59048 0.68208 0.76957 0.0
H1197 H 0.60099 0.71713 0.79448 0.0
H1198 H 0.62318 0.73416 0.9077 0.0
H1199 H 0.62784 0.7286 0.85055 0.0
H1200 H 0.54934 0.6006 0.91783 0.0
H1201 H 0.5532 0.59672 0.85953 0.0
H1202 H 0.53204 0.63536 0.95993 0.0
H1203 H 0.5466 0.66765 0.98748 0.0
C1204 C 0.0951 0.83969 0.65874 0.0
C1205 C 0.06748 0.85694 0.66088 0.0
C1206 C 0.06283 0.853 0.57896 0.0
C1207 C 0.09326 0.84219 0.57667 0.0
N1208 N 0.13918 0.82537 0.61381 0.0
N1209 N 0.02625 0.8828 0.6214 0.0
C1210 C 0.10952 0.83515 0.61645 0.0
C1211 C 0.05121 0.86381 0.62063 0.0
N1212 N 0.10713 0.82711 0.69689 0.0
N1213 N 0.04543 0.85368 0.5409 0.0
H1214 H 0.01792 0.89318 0.65042 0.0
H1215 H 0.01558 0.89088 0.59245 0.0
H1216 H 0.05378 0.84595 0.51006 0.0
H1217 H 0.0221 0.85869 0.54097 0.0
H1218 H 0.12594 0.8124 0.69685 0.0
H1219 H 0.0964 0.8288 0.72807 0.0
H1220 H 0.15352 0.82348 0.6416 0.0
H1221 H 0.14973 0.82029 0.58325 0.0
C1222 C 0.88005 0.30638 0.37608 0.0
C1223 C 0.89963 0.28922 0.40488 0.0
C1224 C 0.94039 0.2916 0.3485 0.0
C1225 C 0.92221 0.3121 0.32275 0.0
N1226 N 0.87585 0.34119 0.31268 0.0
N1227 N 0.94992 0.2689 0.42134 0.0
C1228 C 0.89226 0.32 0.33659 0.0
C1229 C 0.93013 0.28241 0.3917 0.0
N1230 N 0.84955 0.30882 0.38578 0.0
N1231 N 0.96733 0.28062 0.33142 0.0
H1232 H 0.94374 0.2625 0.45381 0.0
H1233 H 0.97328 0.26651 0.41528 0.0
H1234 H 0.97597 0.28733 0.30027 0.0
H1235 H 0.97975 0.26286 0.34625 0.0
H1236 H 0.83353 0.31814 0.36377 0.0
H1237 H 0.83966 0.29905 0.41424 0.0
H1238 H 0.85535 0.3507 0.32388 0.0
H1239 H 0.88381 0.35092 0.28285 0.0
C1240 C 0.42661 0.86766 0.3675 0.0
C1241 C 0.44506 0.84824 0.34018 0.0
C1242 C 0.44256 0.80766 0.39765 0.0
C1243 C 0.42275 0.82648 0.42365 0.0
N1244 N 0.39187 0.87208 0.43088 0.0
N1245 N 0.46696 0.79803 0.32617 0.0
C1246 C 0.41344 0.85574 0.40769 0.0
C1247 C 0.45216 0.81781 0.35452 0.0
N1248 N 0.42311 0.89801 0.35638 0.0
N1249 N 0.45246 0.78003 0.41434 0.0
H1250 H 0.47591 0.80461 0.29531 0.0
H1251 H 0.46879 0.77445 0.33179 0.0
H1252 H 0.44405 0.7703 0.44386 0.0
H1253 H 0.47027 0.76737 0.40027 0.0
H1254 H 0.41282 0.91415 0.37732 0.0
H1255 H 0.43291 0.90784 0.32787 0.0
H1256 H 0.38153 0.89194 0.41857 0.0
H1257 H 0.38258 0.86448 0.46118 0.0
C1258 C 0.87709 0.6571 0.16782 0.0
C1259 C 0.90616 0.64254 0.16742 0.0
C1260 C 0.92113 0.67412 0.10284 0.0
C1261 C 0.89025 0.68357 0.09788 0.0
N1262 N 0.83845 0.68468 0.12549 0.0
N1263 N 0.95576 0.63574 0.13275 0.0
C1264 C 0.86814 0.67545 0.13059 0.0
C1265 C 0.92842 0.65098 0.13487 0.0
N1266 N 0.85846 0.65408 0.20443 0.0
N1267 N 0.94344 0.68753 0.07735 0.0
H1268 H 0.96177 0.61816 0.15483 0.0
H1269 H 0.97147 0.63873 0.10682 0.0
H1270 H 0.93883 0.70542 0.05503 0.0
H1271 H 0.96672 0.68339 0.08193 0.0
H1272 H 0.83828 0.66648 0.20864 0.0
H1273 H 0.86477 0.64149 0.23278 0.0
H1274 H 0.82055 0.67671 0.14543 0.0
H1275 H 0.83143 0.69906 0.09944 0.0
C1276 C 0.12244 0.19728 0.86155 0.0
C1277 C 0.11717 0.18176 0.90253 0.0
C1278 C 0.07168 0.15679 0.87144 0.0
C1279 C 0.07806 0.17058 0.82907 0.0
N1280 N 0.10407 0.21024 0.78707 0.0
N1281 N 0.08246 0.15554 0.95155 0.0
C1282 C 0.1017 0.19298 0.82524 0.0
C1283 C 0.09007 0.16467 0.90913 0.0
N1284 N 0.14818 0.21489 0.85694 0.0
N1285 N 0.04967 0.13451 0.87504 0.0
H1286 H 0.09591 0.16127 0.9793 0.0
H1287 H 0.06167 0.14524 0.95975 0.0
H1288 H 0.03606 0.12743 0.84829 0.0
H1289 H 0.04635 0.12128 0.90376 0.0
H1290 H 0.1557 0.22394 0.82654 0.0
H1291 H 0.16262 0.21967 0.884 0.0
H1292 H 0.11867 0.22905 0.78379 0.0
H1293 H 0.08965 0.20718 0.75959 0.0
C1294 C 0.57117 0.27525 0.60535 0.0
C1295 C 0.59766 0.28505 0.58152 0.0
C1296 C 0.60982 0.32208 0.64112 0.0
C1297 C 0.58382 0.31192 0.66513 0.0
N1298 N 0.54249 0.2755 0.67491 0.0
N1299 N 0.64646 0.3113 0.58232 0.0
C1300 C 0.56551 0.28727 0.64888 0.0
C1301 C 0.61826 0.30659 0.60108 0.0
N1302 N 0.55037 0.25599 0.58553 0.0
N1303 N 0.62608 0.34695 0.65611 0.0
H1304 H 0.65393 0.29975 0.55368 0.0
H1305 H 0.66364 0.32425 0.59754 0.0
H1306 H 0.62119 0.3581 0.68629 0.0
H1307 H 0.64303 0.35779 0.63727 0.0
H1308 H 0.52883 0.25133 0.59881 0.0
H1309 H 0.55349 0.24598 0.5542 0.0
H1310 H 0.53125 0.25491 0.66786 0.0
H1311 H 0.53586 0.28512 0.70543 0.0
C1312 C 0.00633 0.47964 0.20923 0.0
C1313 C 0.01225 0.45808 0.24397 0.0
C1314 C 0.01313 0.50011 0.29914 0.0
C1315 C 0.01032 0.52185 0.26375 0.0
N1316 N 0.0091 0.53273 0.18437 0.0
N1317 N 0.02563 0.44778 0.32099 0.0
C1318 C 0.00811 0.51173 0.21856 0.0
C1319 C 0.01672 0.46829 0.28875 0.0
N1320 N 0.99817 0.4694 0.16751 0.0
N1321 N 0.01139 0.50976 0.34274 0.0
H1322 H 0.02846 0.42435 0.31459 0.0
H1323 H 0.03262 0.45426 0.35304 0.0
H1324 H 0.00864 0.53282 0.35168 0.0
H1325 H 0.01 0.49477 0.36993 0.0
H1326 H 0.99036 0.48387 0.1421 0.0
H1327 H 0.99653 0.44609 0.15943 0.0
H1328 H 0.01112 0.52661 0.15071 0.0
H1329 H 0.01064 0.55641 0.18971 0.0
C1330 C 0.77397 0.75075 0.4592 0.0
C1331 C 0.79307 0.76452 0.49213 0.0
C1332 C 0.74899 0.77065 0.54184 0.0
C1333 C 0.7292 0.76081 0.50684 0.0
N1334 N 0.72257 0.74616 0.42919 0.0
N1335 N 0.79777 0.7934 0.56092 0.0
C1336 C 0.74157 0.75183 0.4647 0.0
C1337 C 0.78028 0.77624 0.5323 0.0
N1338 N 0.78674 0.73686 0.42256 0.0
N1339 N 0.73817 0.77355 0.58469 0.0
H1340 H 0.82059 0.79872 0.55436 0.0
H1341 H 0.78879 0.80498 0.58858 0.0
H1342 H 0.7157 0.76816 0.59361 0.0
H1343 H 0.7523 0.77787 0.61216 0.0
H1344 H 0.77422 0.72353 0.4 0.0
H1345 H 0.81026 0.73679 0.41647 0.0
H1346 H 0.73042 0.74276 0.39657 0.0
H1347 H 0.6988 0.74762 0.43131 0.0
C1348 C 0.50175 0.47722 0.79399 0.0
C1349 C 0.49553 0.45829 0.75617 0.0
C1350 C 0.49275 0.50419 0.70834 0.0
C1351 C 0.49523 0.5232 0.74703 0.0
N1352 N 0.49886 0.5281 0.82744 0.0
N1353 N 0.4817 0.45347 0.67823 0.0
C1354 C 0.4991 0.50981 0.79008 0.0
C1355 C 0.49027 0.47168 0.71348 0.0
N1356 N 0.5109 0.46402 0.83343 0.0
N1357 N 0.49375 0.51716 0.66655 0.0
H1358 H 0.47992 0.42959 0.68069 0.0
H1359 H 0.47406 0.46212 0.64763 0.0
H1360 H 0.49595 0.54082 0.66138 0.0
H1361 H 0.49527 0.50439 0.63706 0.0
H1362 H 0.51889 0.47657 0.8608 0.0
H1363 H 0.51312 0.44026 0.83751 0.0
H1364 H 0.49804 0.51953 0.86005 0.0
H1365 H 0.49708 0.55201 0.82591 0.0
C1366 C 0.76488 0.25408 0.97178 0.0
C1367 C 0.77703 0.25304 0.01602 0.0
C1368 C 0.72476 0.2513 0.04678 0.0
C1369 C 0.71274 0.25374 0.00274 0.0
N1370 N 0.72109 0.26506 0.92447 0.0
N1371 N 0.76842 0.25909 0.09561 0.0
C1372 C 0.73276 0.25744 0.96558 0.0
C1373 C 0.75691 0.25412 0.05356 0.0
N1374 N 0.78373 0.25041 0.93557 0.0
N1375 N 0.70568 0.24504 0.08196 0.0
H1376 H 0.79168 0.2625 0.10181 0.0
H1377 H 0.75469 0.26312 0.12359 0.0
H1378 H 0.68203 0.24288 0.07836 0.0
H1379 H 0.71351 0.23948 0.11397 0.0
H1380 H 0.77571 0.2471 0.903 0.0
H1381 H 0.80737 0.24821 0.93824 0.0
H1382 H 0.73467 0.2713 0.89722 0.0
H1383 H 0.69772 0.26816 0.91874 0.0
C1384 C 0.0137 0.50478 0.70867 0.0
C1385 C 0.00618 0.48509 0.74503 0.0
C1386 C 0.00486 0.52952 0.79568 0.0
C1387 C 0.00716 0.54947 0.75806 0.0
N1388 N 0.01333 0.55661 0.67835 0.0
N1389 N 0.9938 0.47815 0.82309 0.0
C1390 C 0.01201 0.53727 0.71446 0.0
C1391 C 0.00201 0.49725 0.78872 0.0
N1392 N 0.02259 0.49221 0.66868 0.0
N1393 N 0.00595 0.5415 0.83808 0.0
H1394 H 0.99276 0.45433 0.81943 0.0
H1395 H 0.98649 0.48591 0.85436 0.0
H1396 H 0.00847 0.56502 0.84428 0.0
H1397 H 0.00729 0.52808 0.86696 0.0
H1398 H 0.03107 0.50506 0.64193 0.0
H1399 H 0.02415 0.46847 0.66373 0.0
H1400 H 0.01303 0.54912 0.64517 0.0
H1401 H 0.01293 0.58048 0.68148 0.0
C1402 C 0.26879 0.24783 0.43192 0.0
C1403 C 0.28927 0.25313 0.46814 0.0
C1404 C 0.24583 0.25922 0.5196 0.0
C1405 C 0.22559 0.25117 0.48428 0.0
N1406 N 0.21729 0.23427 0.40827 0.0
N1407 N 0.29786 0.25899 0.54778 0.0
C1408 C 0.23693 0.24445 0.44079 0.0
C1409 C 0.27796 0.25766 0.51236 0.0
N1410 N 0.27967 0.24723 0.3889 0.0
N1411 N 0.23431 0.26882 0.55992 0.0
H1412 H 0.32157 0.25777 0.54414 0.0
H1413 H 0.29091 0.25865 0.5812 0.0
H1414 H 0.21092 0.26945 0.56695 0.0
H1415 H 0.24772 0.27842 0.58521 0.0
H1416 H 0.26564 0.24666 0.36068 0.0
H1417 H 0.3028 0.24996 0.38112 0.0
H1418 H 0.22445 0.22579 0.37733 0.0
H1419 H 0.19376 0.23219 0.41345 0.0
C1420 C 0.51966 0.53159 0.30205 0.0
C1421 C 0.51379 0.54175 0.25766 0.0
C1422 C 0.50725 0.48831 0.2328 0.0
C1423 C 0.51048 0.47831 0.27796 0.0
N1424 N 0.51541 0.49036 0.35664 0.0
N1425 N 0.4982 0.5308 0.1817 0.0
C1426 C 0.51566 0.49993 0.31292 0.0
C1427 C 0.5066 0.52038 0.22323 0.0
N1428 N 0.52963 0.5522 0.33354 0.0
N1429 N 0.50589 0.46714 0.19884 0.0
H1430 H 0.4983 0.55407 0.173 0.0
H1431 H 0.48908 0.51669 0.15682 0.0
H1432 H 0.50587 0.44344 0.20432 0.0
H1433 H 0.50723 0.47292 0.16499 0.0
H1434 H 0.53733 0.54589 0.36529 0.0
H1435 H 0.53264 0.57555 0.32661 0.0
H1436 H 0.51576 0.50535 0.3839 0.0
H1437 H 0.51225 0.46743 0.36592 0.0
C1438 C 0.24783 0.74344 0.9685 0.0
C1439 C 0.22818 0.75163 0.00445 0.0
C1440 C 0.27256 0.75809 0.05382 0.0
C1441 C 0.29221 0.75409 0.01624 0.0
N1442 N 0.29869 0.74653 0.9365 0.0
N1443 N 0.2212 0.76903 0.08052 0.0
C1444 C 0.27992 0.74744 0.97324 0.0
C1445 C 0.24033 0.75935 0.04708 0.0
N1446 N 0.23571 0.73136 0.93 0.0
N1447 N 0.28468 0.75973 0.09606 0.0
H1448 H 0.19743 0.76929 0.07714 0.0
H1449 H 0.2289 0.7786 0.11052 0.0
H1450 H 0.30814 0.75852 0.10233 0.0
H1451 H 0.27146 0.75953 0.12513 0.0
H1452 H 0.24896 0.72203 0.90433 0.0
H1453 H 0.21225 0.72793 0.92559 0.0
H1454 H 0.29061 0.74532 0.90367 0.0
H1455 H 0.32233 0.74966 0.93832 0.0
C1456 C 0.49939 0.99294 0.78156 0.0
C1457 C 0.49601 0.98137 0.73739 0.0
C1458 C 0.49473 0.03405 0.70752 0.0
C1459 C 0.49734 0.04576 0.75181 0.0
N1460 N 0.49456 0.03671 0.83162 0.0
N1461 N 0.48281 0.99033 0.66 0.0
C1462 C 0.49734 0.02527 0.78908 0.0
C1463 C 0.49116 1.00182 0.70093 0.0
N1464 N 0.50593 0.97321 0.81598 0.0
N1465 N 0.4975 0.05342 0.67159 0.0
H1466 H 0.47978 0.96683 0.65417 0.0
H1467 H 0.47598 0.00412 0.63321 0.0
H1468 H 0.50058 0.07708 0.67492 0.0
H1469 H 0.49937 0.04579 0.63857 0.0
H1470 H 0.51236 0.98054 0.8479 0.0
H1471 H 0.50686 0.94938 0.81184 0.0
H1472 H 0.49145 0.02289 0.85981 0.0
H1473 H 0.49239 0.06019 0.83834 0.0
C1474 C 0.28269 0.28352 0.04099 0.0
C1475 C 0.29666 0.27885 0.9986 0.0
C1476 C 0.24613 0.27774 0.96252 0.0
C1477 C 0.23215 0.27919 0.00541 0.0
N1478 N 0.23675 0.27923 0.08618 0.0
N1479 N 0.29219 0.26765 0.91955 0.0
C1480 C 0.25031 0.28112 0.0449 0.0
C1481 C 0.27853 0.27505 0.95941 0.0
N1482 N 0.30035 0.29103 0.07727 0.0
N1483 N 0.22846 0.27975 0.92474 0.0
H1484 H 0.31585 0.26563 0.91579 0.0
H1485 H 0.28007 0.26113 0.89099 0.0
H1486 H 0.20466 0.28172 0.92582 0.0
H1487 H 0.23742 0.28215 0.89256 0.0
H1488 H 0.29137 0.29794 0.10803 0.0
H1489 H 0.32413 0.29298 0.07551 0.0
H1490 H 0.24897 0.27693 0.11599 0.0
H1491 H 0.21313 0.27744 0.09059 0.0
C1492 C 0.98486 0.02218 0.20999 0.0
C1493 C 0.98346 0.04301 0.24668 0.0
C1494 C 0.98846 0.99996 0.29935 0.0
C1495 C 0.98694 0.97893 0.26294 0.0
N1496 N 0.9783 0.96964 0.1841 0.0
N1497 N 0.97741 0.05139 0.32608 0.0
C1498 C 0.98371 0.98992 0.21831 0.0
C1499 C 0.98347 0.03179 0.29135 0.0
N1500 N 0.98829 0.03319 0.1673 0.0
N1501 N 0.99579 0.9897 0.34139 0.0
H1502 H 0.97249 0.0746 0.32107 0.0
H1503 H 0.97407 0.04409 0.35902 0.0
H1504 H 1.00024 0.96663 0.34857 0.0
H1505 H 1.00036 0.0044 0.36819 0.0
H1506 H 0.99285 0.01914 0.13978 0.0
H1507 H 0.98912 0.05664 0.15984 0.0
H1508 H 0.97242 0.97649 0.15174 0.0
H1509 H 0.97697 0.94589 0.18889 0.0
C1510 C 0.26361 0.74037 0.46316 0.0
C1511 C 0.27445 0.74716 0.50693 0.0
C1512 C 0.22156 0.7545 0.53305 0.0
C1513 C 0.21079 0.74893 0.48878 0.0
N1514 N 0.22176 0.74345 0.40985 0.0
N1515 N 0.26478 0.76636 0.58139 0.0
C1516 C 0.23192 0.74392 0.45326 0.0
C1517 C 0.25369 0.75608 0.54118 0.0
N1518 N 0.28343 0.72936 0.43151 0.0
N1519 N 0.20116 0.75663 0.56773 0.0
H1520 H 0.28815 0.76751 0.58849 0.0
H1521 H 0.25112 0.7762 0.60615 0.0
H1522 H 0.17753 0.75533 0.56326 0.0
H1523 H 0.2076 0.75723 0.60136 0.0
H1524 H 0.27645 0.72057 0.40064 0.0
H1525 H 0.30681 0.72687 0.43745 0.0
H1526 H 0.23631 0.74303 0.38219 0.0
H1527 H 0.19879 0.74642 0.40126 0.0
C1528 C 0.49437 0.01771 0.30589 0.0
C1529 C 0.49392 0.03911 0.26983 0.0
C1530 C 0.49502 0.99649 0.21577 0.0
C1531 C 0.49253 0.97518 0.25172 0.0
N1532 N 0.4855 0.96522 0.33063 0.0
N1533 N 0.48908 0.04924 0.19057 0.0
C1534 C 0.49109 0.9857 0.29674 0.0
C1535 C 0.49303 0.0286 0.22474 0.0
N1536 N 0.49911 0.02789 0.34876 0.0
N1537 N 0.50028 0.98605 0.17316 0.0
H1538 H 0.4873 0.07292 0.19582 0.0
H1539 H 0.48489 0.04282 0.15747 0.0
H1540 H 0.50198 0.96271 0.16525 0.0
H1541 H 0.50565 1.00045 0.14634 0.0
H1542 H 0.50304 0.01324 0.37582 0.0
H1543 H 0.50176 0.05111 0.35683 0.0
H1544 H 0.48063 0.97184 0.36346 0.0
H1545 H 0.48331 0.94159 0.32531 0.0
C1546 C 0.75475 0.74432 0.04989 0.0
C1547 C 0.76755 0.74225 0.00614 0.0
C1548 C 0.7158 0.73892 0.9739 0.0
C1549 C 0.70302 0.74282 0.01727 0.0
N1550 N 0.71007 0.75572 0.09531 0.0
N1551 N 0.76012 0.74535 0.92597 0.0
C1552 C 0.72245 0.74743 0.05493 0.0
C1553 C 0.748 0.74182 0.96797 0.0
N1554 N 0.77322 0.74197 0.08674 0.0
N1555 N 0.69736 0.73114 0.93861 0.0
H1556 H 0.78346 0.7486 0.92022 0.0
H1557 H 0.7468 0.74831 0.8973 0.0
H1558 H 0.67373 0.72854 0.94167 0.0
H1559 H 0.70576 0.72457 0.90732 0.0
H1560 H 0.76488 0.7395 0.11929 0.0
H1561 H 0.79694 0.74006 0.08468 0.0
H1562 H 0.72316 0.76262 0.12274 0.0
H1563 H 0.68659 0.7585 0.10023 0.0
C1564 C 0.01173 0.03501 0.78791 0.0
C1565 C 0.01066 0.04798 0.74424 0.0
C1566 C 0.00973 0.99608 0.71104 0.0
C1567 C 0.01054 0.9832 0.75469 0.0
N1568 N 0.00431 0.98976 0.83444 0.0
N1569 N 1.00044 0.0413 0.66526 0.0
C1570 C 0.00892 1.00254 0.79306 0.0
C1571 C 0.0071 0.0286 0.70608 0.0
N1572 N 0.01715 0.05342 0.82426 0.0
N1573 N 0.01294 0.97744 0.67439 0.0
H1574 H 0.99768 0.06494 0.6606 0.0
H1575 H 0.99469 0.02834 0.63709 0.0
H1576 H 0.01423 0.95351 0.67673 0.0
H1577 H 0.01632 0.98574 0.64198 0.0
H1578 H 0.02183 0.04493 0.85621 0.0
H1579 H 0.01928 0.07725 0.82197 0.0
H1580 H 0.99992 1.00265 0.8632 0.0
H1581 H 0.00189 0.96608 0.83925 0.0
C1582 C 0.72052 0.24764 0.52104 0.0
C1583 C 0.71128 0.24701 0.47536 0.0
C1584 C 0.76483 0.25001 0.45093 0.0
C1585 C 0.77405 0.25046 0.4966 0.0
N1586 N 0.76201 0.24372 0.57491 0.0
N1587 N 0.72379 0.24234 0.39697 0.0
C1588 C 0.75225 0.24754 0.53163 0.0
C1589 C 0.73323 0.2467 0.44029 0.0
N1590 N 0.69893 0.24944 0.55422 0.0
N1591 N 0.78628 0.25354 0.41788 0.0
H1592 H 0.70079 0.23988 0.38817 0.0
H1593 H 0.7386 0.23885 0.37011 0.0
H1594 H 0.80972 0.25424 0.42439 0.0
H1595 H 0.78099 0.25723 0.38427 0.0
H1596 H 0.70403 0.25395 0.5877 0.0
H1597 H 0.67546 0.24826 0.54803 0.0
H1598 H 0.74757 0.23811 0.60146 0.0
H1599 H 0.78509 0.2437 0.58392 0.0
loop_
_geom_bond_atom_site_label_1
_geom_bond_atom_site_label_2
_geom_bond_distance
_geom_bond_site_symmetry_2
_ccdc_geom_bond_type
Mg0 O1 2.028 . S
Mg0 O7 1.986 . S
Mg0 O9 2.114 . S
Mg0 O10 2.251 . S
Mg0 O13 2.010 1_455 S
O1 Mg0 2.028 . S
O1 C4 1.250 . S
O2 Mg3 2.028 . S
O2 C4 1.248 . S
Mg3 O2 2.028 . S
Mg3 O8 2.032 . S
Mg3 O10 2.079 . S
C4 O1 1.250 . S
C4 O2 1.248 . S
C5 O6 1.264 . S
C5 O13 1.249 . S
O6 C5 1.264 . S
O7 Mg0 1.986 . S
O7 C11 1.246 . S
O8 Mg3 2.032 . S
O8 C11 1.259 . S
O9 Mg0 2.114 . S
O9 C12 1.252 . S
O10 Mg0 2.251 . S
O10 Mg3 2.079 . S
O10 C12 1.273 . S
C11 O7 1.246 . S
C11 O8 1.259 . S
C12 O9 1.252 . S
C12 O10 1.273 . S
O13 Mg0 2.010 1_655 S
O13 C5 1.249 . S
Mg14 O15 2.028 . S
Mg14 O21 1.986 . S
Mg14 O23 2.114 . S
Mg14 O24 2.251 . S
Mg14 O27 2.010 . S
O15 Mg14 2.028 . S
O15 C18 1.250 . S
O16 Mg17 2.028 . S
O16 C18 1.248 . S
Mg17 O16 2.028 . S
Mg17 O22 2.032 . S
Mg17 O24 2.079 . S
C18 O15 1.250 . S
C18 O16 1.248 . S
C19 O20 1.264 . S
C19 O27 1.249 . S
O20 C19 1.264 . S
O21 Mg14 1.986 . S
O21 C25 1.246 . S
O22 Mg17 2.032 . S
O22 C25 1.259 . S
O23 Mg14 2.114 . S
O23 C26 1.252 . S
O24 Mg14 2.251 . S
O24 Mg17 2.079 . S
O24 C26 1.273 . S
C25 O21 1.246 . S
C25 O22 1.259 . S
C26 O23 1.252 . S
C26 O24 1.273 . S
O27 Mg14 2.010 . S
O27 C19 1.249 . S
Mg28 O29 2.028 . S
Mg28 O35 1.986 . S
Mg28 O37 2.114 . S
Mg28 O38 2.251 . S
Mg28 O41 2.010 . S
O29 Mg28 2.028 . S
O29 C32 1.250 . S
O30 Mg31 2.028 . S
O30 C32 1.248 . S
Mg31 O30 2.028 . S
Mg31 O36 2.032 . S
Mg31 O38 2.079 . S
C32 O29 1.250 . S
C32 O30 1.248 . S
C33 O34 1.264 . S
C33 O41 1.249 . S
O34 C33 1.264 . S
O35 Mg28 1.986 . S
O35 C39 1.246 . S
O36 Mg31 2.032 . S
O36 C39 1.259 . S
O37 Mg28 2.114 . S
O37 C40 1.252 . S
O38 Mg28 2.251 . S
O38 Mg31 2.079 . S
O38 C40 1.273 . S
C39 O35 1.246 . S
C39 O36 1.259 . S
C40 O37 1.252 . S
C40 O38 1.273 . S
O41 Mg28 2.010 . S
O41 C33 1.249 . S
Mg42 O43 2.028 . S
Mg42 O49 1.986 . S
Mg42 O51 2.114 1_554 S
Mg42 O52 2.251 1_554 S
Mg42 O55 2.010 . S
O43 Mg42 2.028 . S
O43 C46 1.250 . S
O44 Mg45 2.028 1_554 S
O44 C46 1.248 . S
Mg45 O44 2.028 1_556 S
Mg45 O50 2.032 1_556 S
Mg45 O52 2.079 . S
C46 O43 1.250 . S
C46 O44 1.248 . S
C47 O48 1.264 . S
C47 O55 1.249 . S
O48 C47 1.264 . S
O49 Mg42 1.986 . S
O49 C53 1.246 . S
O50 Mg45 2.032 1_554 S
O50 C53 1.259 . S
O51 Mg42 2.114 1_556 S
O51 C54 1.252 . S
O52 Mg42 2.251 1_556 S
O52 Mg45 2.079 . S
O52 C54 1.273 . S
C53 O49 1.246 . S
C53 O50 1.259 . S
C54 O51 1.252 . S
C54 O52 1.273 . S
O55 Mg42 2.010 . S
O55 C47 1.249 . S
Mg56 O57 2.028 . S
Mg56 O63 1.986 . S
Mg56 O65 2.114 . S
Mg56 O66 2.251 . S
Mg56 O69 2.010 1_455 S
O57 Mg56 2.028 . S
O57 C60 1.250 . S
O58 Mg59 2.028 . S
O58 C60 1.248 . S
Mg59 O58 2.028 . S
Mg59 O64 2.032 . S
Mg59 O66 2.079 . S
C60 O57 1.250 . S
C60 O58 1.248 . S
C61 O62 1.264 . S
C61 O69 1.249 . S
O62 C61 1.264 . S
O63 Mg56 1.986 . S
O63 C67 1.246 . S
O64 Mg59 2.032 . S
O64 C67 1.259 . S
O65 Mg56 2.114 . S
O65 C68 1.252 . S
O66 Mg56 2.251 . S
O66 Mg59 2.079 . S
O66 C68 1.273 . S
C67 O63 1.246 . S
C67 O64 1.259 . S
C68 O65 1.252 . S
C68 O66 1.273 . S
O69 Mg56 2.010 1_655 S
O69 C61 1.249 . S
Mg70 O71 2.028 . S
Mg70 O77 1.986 . S
Mg70 O79 2.114 . S
Mg70 O80 2.251 . S
Mg70 O83 2.010 . S
O71 Mg70 2.028 . S
O71 C74 1.250 . S
O72 Mg73 2.028 . S
O72 C74 1.248 . S
Mg73 O72 2.028 . S
Mg73 O78 2.032 . S
Mg73 O80 2.079 . S
C74 O71 1.250 . S
C74 O72 1.248 . S
C75 O76 1.264 . S
C75 O83 1.249 . S
O76 C75 1.264 . S
O77 Mg70 1.986 . S
O77 C81 1.246 . S
O78 Mg73 2.032 . S
O78 C81 1.259 . S
O79 Mg70 2.114 . S
O79 C82 1.252 . S
O80 Mg70 2.251 . S
O80 Mg73 2.079 . S
O80 C82 1.273 . S
C81 O77 1.246 . S
C81 O78 1.259 . S
C82 O79 1.252 . S
C82 O80 1.273 . S
O83 Mg70 2.010 . S
O83 C75 1.249 . S
Mg84 O85 2.028 . S
Mg84 O91 1.986 . S
Mg84 O93 2.114 . S
Mg84 O94 2.251 . S
Mg84 O97 2.010 . S
O85 Mg84 2.028 . S
O85 C88 1.250 . S
O86 Mg87 2.028 . S
O86 C88 1.248 . S
Mg87 O86 2.028 . S
Mg87 O92 2.032 . S
Mg87 O94 2.079 . S
C88 O85 1.250 . S
C88 O86 1.248 . S
C89 O90 1.264 . S
C89 O97 1.249 . S
O90 C89 1.264 . S
O91 Mg84 1.986 . S
O91 C95 1.246 . S
O92 Mg87 2.032 . S
O92 C95 1.259 . S
O93 Mg84 2.114 . S
O93 C96 1.252 . S
O94 Mg84 2.251 . S
O94 Mg87 2.079 . S
O94 C96 1.273 . S
C95 O91 1.246 . S
C95 O92 1.259 . S
C96 O93 1.252 . S
C96 O94 1.273 . S
O97 Mg84 2.010 . S
O97 C89 1.249 . S
Mg98 O99 2.028 . S
Mg98 O105 1.986 . S
Mg98 O107 2.114 1_556 S
Mg98 O108 2.251 1_556 S
Mg98 O111 2.010 . S
O99 Mg98 2.028 . S
O99 C102 1.250 . S
O100 Mg101 2.028 1_556 S
O100 C102 1.248 . S
Mg101 O100 2.028 1_554 S
Mg101 O106 2.032 1_554 S
Mg101 O108 2.079 . S
C102 O99 1.250 . S
C102 O100 1.248 . S
C103 O104 1.264 . S
C103 O111 1.249 . S
O104 C103 1.264 . S
O105 Mg98 1.986 . S
O105 C109 1.246 . S
O106 Mg101 2.032 1_556 S
O106 C109 1.259 . S
O107 Mg98 2.114 1_554 S
O107 C110 1.252 . S
O108 Mg98 2.251 1_554 S
O108 Mg101 2.079 . S
O108 C110 1.273 . S
C109 O105 1.246 . S
C109 O106 1.259 . S
C110 O107 1.252 . S
C110 O108 1.273 . S
O111 Mg98 2.010 . S
O111 C103 1.249 . S
Mg112 O113 2.028 . S
Mg112 O119 1.986 . S
Mg112 O121 2.114 . S
Mg112 O122 2.251 . S
Mg112 O125 2.010 1_655 S
O113 Mg112 2.028 . S
O113 C116 1.250 . S
O114 Mg115 2.028 . S
O114 C116 1.248 . S
Mg115 O114 2.028 . S
Mg115 O120 2.032 . S
Mg115 O122 2.079 . S
C116 O113 1.250 . S
C116 O114 1.248 . S
C117 O118 1.264 . S
C117 O125 1.249 . S
O118 C117 1.264 . S
O119 Mg112 1.986 . S
O119 C123 1.246 . S
O120 Mg115 2.032 . S
O120 C123 1.259 . S
O121 Mg112 2.114 . S
O121 C124 1.252 . S
O122 Mg112 2.251 . S
O122 Mg115 2.079 . S
O122 C124 1.273 . S
C123 O119 1.246 . S
C123 O120 1.259 . S
C124 O121 1.252 . S
C124 O122 1.273 . S
O125 Mg112 2.010 1_455 S
O125 C117 1.249 . S
Mg126 O127 2.028 . S
Mg126 O133 1.986 . S
Mg126 O135 2.114 . S
Mg126 O136 2.251 . S
Mg126 O139 2.010 . S
O127 Mg126 2.028 . S
O127 C130 1.250 . S
O128 Mg129 2.028 . S
O128 C130 1.248 . S
Mg129 O128 2.028 . S
Mg129 O134 2.032 . S
Mg129 O136 2.079 . S
C130 O127 1.250 . S
C130 O128 1.248 . S
C131 O132 1.264 . S
C131 O139 1.249 . S
O132 C131 1.264 . S
O133 Mg126 1.986 . S
O133 C137 1.246 . S
O134 Mg129 2.032 . S
O134 C137 1.259 . S
O135 Mg126 2.114 . S
O135 C138 1.252 . S
O136 Mg126 2.251 . S
O136 Mg129 2.079 . S
O136 C138 1.273 . S
C137 O133 1.246 . S
C137 O134 1.259 . S
C138 O135 1.252 . S
C138 O136 1.273 . S
O139 Mg126 2.010 . S
O139 C131 1.249 . S
Mg140 O141 2.028 . S
Mg140 O147 1.986 . S
Mg140 O149 2.114 . S
Mg140 O150 2.251 . S
Mg140 O153 2.010 . S
O141 Mg140 2.028 . S
O141 C144 1.250 . S
O142 Mg143 2.028 . S
O142 C144 1.248 . S
Mg143 O142 2.028 . S
Mg143 O148 2.032 . S
Mg143 O150 2.079 . S
C144 O141 1.250 . S
C144 O142 1.248 . S
C145 O146 1.264 . S
C145 O153 1.249 . S
O146 C145 1.264 . S
O147 Mg140 1.986 . S
O147 C151 1.246 . S
O148 Mg143 2.032 . S
O148 C151 1.259 . S
O149 Mg140 2.114 . S
O149 C152 1.252 . S
O150 Mg140 2.251 . S
O150 Mg143 2.079 . S
O150 C152 1.273 . S
C151 O147 1.246 . S
C151 O148 1.259 . S
C152 O149 1.252 . S
C152 O150 1.273 . S
O153 Mg140 2.010 . S
O153 C145 1.249 . S
Mg154 O155 2.028 . S
Mg154 O161 1.986 . S
Mg154 O163 2.114 1_556 S
Mg154 O164 2.251 1_556 S
Mg154 O167 2.010 . S
O155 Mg154 2.028 . S
O155 C158 1.250 . S
O156 Mg157 2.028 1_556 S
O156 C158 1.248 . S
Mg157 O156 2.028 1_554 S
Mg157 O162 2.032 1_554 S
Mg157 O164 2.079 . S
C158 O155 1.250 . S
C158 O156 1.248 . S
C159 O160 1.264 . S
C159 O167 1.249 . S
O160 C159 1.264 . S
O161 Mg154 1.986 . S
O161 C165 1.246 . S
O162 Mg157 2.032 1_556 S
O162 C165 1.259 . S
O163 Mg154 2.114 1_554 S
O163 C166 1.252 . S
O164 Mg154 2.251 1_554 S
O164 Mg157 2.079 . S
O164 C166 1.273 . S
C165 O161 1.246 . S
C165 O162 1.259 . S
C166 O163 1.252 . S
C166 O164 1.273 . S
O167 Mg154 2.010 . S
O167 C159 1.249 . S
Mg168 O169 2.028 . S
Mg168 O175 1.986 . S
Mg168 O177 2.114 . S
Mg168 O178 2.251 . S
Mg168 O181 2.010 1_655 S
O169 Mg168 2.028 . S
O169 C172 1.250 . S
O170 Mg171 2.028 . S
O170 C172 1.248 . S
Mg171 O170 2.028 . S
Mg171 O176 2.032 . S
Mg171 O178 2.079 . S
C172 O169 1.250 . S
C172 O170 1.248 . S
C173 O174 1.264 . S
C173 O181 1.249 . S
O174 C173 1.264 . S
O175 Mg168 1.986 . S
O175 C179 1.246 . S
O176 Mg171 2.032 . S
O176 C179 1.259 . S
O177 Mg168 2.114 . S
O177 C180 1.252 . S
O178 Mg168 2.251 . S
O178 Mg171 2.079 . S
O178 C180 1.273 . S
C179 O175 1.246 . S
C179 O176 1.259 . S
C180 O177 1.252 . S
C180 O178 1.273 . S
O181 Mg168 2.010 1_455 S
O181 C173 1.249 . S
Mg182 O183 2.028 . S
Mg182 O189 1.986 . S
Mg182 O191 2.114 . S
Mg182 O192 2.251 . S
Mg182 O195 2.010 . S
O183 Mg182 2.028 . S
O183 C186 1.250 . S
O184 Mg185 2.028 . S
O184 C186 1.248 . S
Mg185 O184 2.028 . S
Mg185 O190 2.032 . S
Mg185 O192 2.079 . S
C186 O183 1.250 . S
C186 O184 1.248 . S
C187 O188 1.264 . S
C187 O195 1.249 . S
O188 C187 1.264 . S
O189 Mg182 1.986 . S
O189 C193 1.246 . S
O190 Mg185 2.032 . S
O190 C193 1.259 . S
O191 Mg182 2.114 . S
O191 C194 1.252 . S
O192 Mg182 2.251 . S
O192 Mg185 2.079 . S
O192 C194 1.273 . S
C193 O189 1.246 . S
C193 O190 1.259 . S
C194 O191 1.252 . S
C194 O192 1.273 . S
O195 Mg182 2.010 . S
O195 C187 1.249 . S
Mg196 O197 2.028 . S
Mg196 O203 1.986 . S
Mg196 O205 2.114 . S
Mg196 O206 2.251 . S
Mg196 O209 2.010 . S
O197 Mg196 2.028 . S
O197 C200 1.250 . S
O198 Mg199 2.028 . S
O198 C200 1.248 . S
Mg199 O198 2.028 . S
Mg199 O204 2.032 . S
Mg199 O206 2.079 . S
C200 O197 1.250 . S
C200 O198 1.248 . S
C201 O202 1.264 . S
C201 O209 1.249 . S
O202 C201 1.264 . S
O203 Mg196 1.986 . S
O203 C207 1.246 . S
O204 Mg199 2.032 . S
O204 C207 1.259 . S
O205 Mg196 2.114 . S
O205 C208 1.252 . S
O206 Mg196 2.251 . S
O206 Mg199 2.079 . S
O206 C208 1.273 . S
C207 O203 1.246 . S
C207 O204 1.259 . S
C208 O205 1.252 . S
C208 O206 1.273 . S
O209 Mg196 2.010 . S
O209 C201 1.249 . S
Mg210 O211 2.028 . S
Mg210 O217 1.986 . S
Mg210 O219 2.114 1_554 S
Mg210 O220 2.251 1_554 S
Mg210 O223 2.010 . S
O211 Mg210 2.028 . S
O211 C214 1.250 . S
O212 Mg213 2.028 1_554 S
O212 C214 1.248 . S
Mg213 O212 2.028 1_556 S
Mg213 O218 2.032 1_556 S
Mg213 O220 2.079 . S
C214 O211 1.250 . S
C214 O212 1.248 . S
C215 O216 1.264 . S
C215 O223 1.249 . S
O216 C215 1.264 . S
O217 Mg210 1.986 . S
O217 C221 1.246 . S
O218 Mg213 2.032 1_554 S
O218 C221 1.259 . S
O219 Mg210 2.114 1_556 S
O219 C222 1.252 . S
O220 Mg210 2.251 1_556 S
O220 Mg213 2.079 . S
O220 C222 1.273 . S
C221 O217 1.246 . S
C221 O218 1.259 . S
C222 O219 1.252 . S
C222 O220 1.273 . S
O223 Mg210 2.010 . S
O223 C215 1.249 . S
Mg224 O225 2.028 . S
Mg224 O231 1.986 . S
Mg224 O233 2.114 . S
Mg224 O234 2.251 . S
Mg224 O237 2.010 . S
O225 Mg224 2.028 . S
O225 C228 1.250 . S
O226 Mg227 2.028 . S
O226 C228 1.248 . S
Mg227 O226 2.028 . S
Mg227 O232 2.032 . S
Mg227 O234 2.079 . S
C228 O225 1.250 . S
C228 O226 1.248 . S
C229 O230 1.264 . S
C229 O237 1.249 . S
O230 C229 1.264 . S
O231 Mg224 1.986 . S
O231 C235 1.246 . S
O232 Mg227 2.032 . S
O232 C235 1.259 . S
O233 Mg224 2.114 . S
O233 C236 1.252 . S
O234 Mg224 2.251 . S
O234 Mg227 2.079 . S
O234 C236 1.273 . S
C235 O231 1.246 . S
C235 O232 1.259 . S
C236 O233 1.252 . S
C236 O234 1.273 . S
O237 Mg224 2.010 . S
O237 C229 1.249 . S
Mg238 O239 2.028 . S
Mg238 O245 1.986 . S
Mg238 O247 2.114 1_554 S
Mg238 O248 2.251 1_554 S
Mg238 O251 2.010 . S
O239 Mg238 2.028 . S
O239 C242 1.250 . S
O240 Mg241 2.028 1_554 S
O240 C242 1.248 . S
Mg241 O240 2.028 1_556 S
Mg241 O246 2.032 1_556 S
Mg241 O248 2.079 . S
C242 O239 1.250 . S
C242 O240 1.248 . S
C243 O244 1.264 . S
C243 O251 1.249 . S
O244 C243 1.264 . S
O245 Mg238 1.986 . S
O245 C249 1.246 . S
O246 Mg241 2.032 1_554 S
O246 C249 1.259 . S
O247 Mg238 2.114 1_556 S
O247 C250 1.252 . S
O248 Mg238 2.251 1_556 S
O248 Mg241 2.079 . S
O248 C250 1.273 . S
C249 O245 1.246 . S
C249 O246 1.259 . S
C250 O247 1.252 . S
C250 O248 1.273 . S
O251 Mg238 2.010 . S
O251 C243 1.249 . S
Mg252 O253 2.028 . S
Mg252 O259 1.986 . S
Mg252 O261 2.114 . S
Mg252 O262 2.251 . S
Mg252 O265 2.010 1_655 S
O253 Mg252 2.028 . S
O253 C256 1.250 . S
O254 Mg255 2.028 . S
O254 C256 1.248 . S
Mg255 O254 2.028 . S
Mg255 O260 2.032 . S
Mg255 O262 2.079 . S
C256 O253 1.250 . S
C256 O254 1.248 . S
C257 O258 1.264 . S
C257 O265 1.249 . S
O258 C257 1.264 . S
O259 Mg252 1.986 . S
O259 C263 1.246 . S
O260 Mg255 2.032 . S
O260 C263 1.259 . S
O261 Mg252 2.114 . S
O261 C264 1.252 . S
O262 Mg252 2.251 . S
O262 Mg255 2.079 . S
O262 C264 1.273 . S
C263 O259 1.246 . S
C263 O260 1.259 . S
C264 O261 1.252 . S
C264 O262 1.273 . S
O265 Mg252 2.010 1_455 S
O265 C257 1.249 . S
Mg266 O267 2.028 . S
Mg266 O273 1.986 . S
Mg266 O275 2.114 . S
Mg266 O276 2.251 . S
Mg266 O279 2.010 . S
O267 Mg266 2.028 . S
O267 C270 1.250 . S
O268 Mg269 2.028 . S
O268 C270 1.248 . S
Mg269 O268 2.028 . S
Mg269 O274 2.032 . S
Mg269 O276 2.079 . S
C270 O267 1.250 . S
C270 O268 1.248 . S
C271 O272 1.264 . S
C271 O279 1.249 . S
O272 C271 1.264 . S
O273 Mg266 1.986 . S
O273 C277 1.246 . S
O274 Mg269 2.032 . S
O274 C277 1.259 . S
O275 Mg266 2.114 . S
O275 C278 1.252 . S
O276 Mg266 2.251 . S
O276 Mg269 2.079 . S
O276 C278 1.273 . S
C277 O273 1.246 . S
C277 O274 1.259 . S
C278 O275 1.252 . S
C278 O276 1.273 . S
O279 Mg266 2.010 . S
O279 C271 1.249 . S
Mg280 O281 2.028 . S
Mg280 O287 1.986 . S
Mg280 O289 2.114 . S
Mg280 O290 2.251 . S
Mg280 O293 2.010 . S
O281 Mg280 2.028 . S
O281 C284 1.250 . S
O282 Mg283 2.028 . S
O282 C284 1.248 . S
Mg283 O282 2.028 . S
Mg283 O288 2.032 . S
Mg283 O290 2.079 . S
C284 O281 1.250 . S
C284 O282 1.248 . S
C285 O286 1.264 . S
C285 O293 1.249 . S
O286 C285 1.264 . S
O287 Mg280 1.986 . S
O287 C291 1.246 . S
O288 Mg283 2.032 . S
O288 C291 1.259 . S
O289 Mg280 2.114 . S
O289 C292 1.252 . S
O290 Mg280 2.251 . S
O290 Mg283 2.079 . S
O290 C292 1.273 . S
C291 O287 1.246 . S
C291 O288 1.259 . S
C292 O289 1.252 . S
C292 O290 1.273 . S
O293 Mg280 2.010 . S
O293 C285 1.249 . S
Mg294 O295 2.028 . S
Mg294 O301 1.986 . S
Mg294 O303 2.114 1_556 S
Mg294 O304 2.251 1_556 S
Mg294 O307 2.010 . S
O295 Mg294 2.028 . S
O295 C298 1.250 . S
O296 Mg297 2.028 1_556 S
O296 C298 1.248 . S
Mg297 O296 2.028 1_554 S
Mg297 O302 2.032 1_554 S
Mg297 O304 2.079 . S
C298 O295 1.250 . S
C298 O296 1.248 . S
C299 O300 1.264 . S
C299 O307 1.249 . S
O300 C299 1.264 . S
O301 Mg294 1.986 . S
O301 C305 1.246 . S
O302 Mg297 2.032 1_556 S
O302 C305 1.259 . S
O303 Mg294 2.114 1_554 S
O303 C306 1.252 . S
O304 Mg294 2.251 1_554 S
O304 Mg297 2.079 . S
O304 C306 1.273 . S
C305 O301 1.246 . S
C305 O302 1.259 . S
C306 O303 1.252 . S
C306 O304 1.273 . S
O307 Mg294 2.010 . S
O307 C299 1.249 . S
Mg308 O309 2.028 . S
Mg308 O315 1.986 . S
Mg308 O317 2.114 . S
Mg308 O318 2.251 . S
Mg308 O321 2.010 1_655 S
O309 Mg308 2.028 . S
O309 C312 1.250 . S
O310 Mg311 2.028 . S
O310 C312 1.248 . S
Mg311 O310 2.028 . S
Mg311 O316 2.032 . S
Mg311 O318 2.079 . S
C312 O309 1.250 . S
C312 O310 1.248 . S
C313 O314 1.264 . S
C313 O321 1.249 . S
O314 C313 1.264 . S
O315 Mg308 1.986 . S
O315 C319 1.246 . S
O316 Mg311 2.032 . S
O316 C319 1.259 . S
O317 Mg308 2.114 . S
O317 C320 1.252 . S
O318 Mg308 2.251 . S
O318 Mg311 2.079 . S
O318 C320 1.273 . S
C319 O315 1.246 . S
C319 O316 1.259 . S
C320 O317 1.252 . S
C320 O318 1.273 . S
O321 Mg308 2.010 1_455 S
O321 C313 1.249 . S
Mg322 O323 2.028 . S
Mg322 O329 1.986 . S
Mg322 O331 2.114 . S
Mg322 O332 2.251 . S
Mg322 O335 2.010 . S
O323 Mg322 2.028 . S
O323 C326 1.250 . S
O324 Mg325 2.028 . S
O324 C326 1.248 . S
Mg325 O324 2.028 . S
Mg325 O330 2.032 . S
Mg325 O332 2.079 . S
C326 O323 1.250 . S
C326 O324 1.248 . S
C327 O328 1.264 . S
C327 O335 1.249 . S
O328 C327 1.264 . S
O329 Mg322 1.986 . S
O329 C333 1.246 . S
O330 Mg325 2.032 . S
O330 C333 1.259 . S
O331 Mg322 2.114 . S
O331 C334 1.252 . S
O332 Mg322 2.251 . S
O332 Mg325 2.079 . S
O332 C334 1.273 . S
C333 O329 1.246 . S
C333 O330 1.259 . S
C334 O331 1.252 . S
C334 O332 1.273 . S
O335 Mg322 2.010 . S
O335 C327 1.249 . S
Mg336 O337 2.028 . S
Mg336 O343 1.986 . S
Mg336 O345 2.114 . S
Mg336 O346 2.251 . S
Mg336 O349 2.010 . S
O337 Mg336 2.028 . S
O337 C340 1.250 . S
O338 Mg339 2.028 . S
O338 C340 1.248 . S
Mg339 O338 2.028 . S
Mg339 O344 2.032 . S
Mg339 O346 2.079 . S
C340 O337 1.250 . S
C340 O338 1.248 . S
C341 O342 1.264 . S
C341 O349 1.249 . S
O342 C341 1.264 . S
O343 Mg336 1.986 . S
O343 C347 1.246 . S
O344 Mg339 2.032 . S
O344 C347 1.259 . S
O345 Mg336 2.114 . S
O345 C348 1.252 . S
O346 Mg336 2.251 . S
O346 Mg339 2.079 . S
O346 C348 1.273 . S
C347 O343 1.246 . S
C347 O344 1.259 . S
C348 O345 1.252 . S
C348 O346 1.273 . S
O349 Mg336 2.010 . S
O349 C341 1.249 . S
Mg350 O351 2.028 . S
Mg350 O357 1.986 . S
Mg350 O359 2.114 1_556 S
Mg350 O360 2.251 1_556 S
Mg350 O363 2.010 . S
O351 Mg350 2.028 . S
O351 C354 1.250 . S
O352 Mg353 2.028 1_556 S
O352 C354 1.248 . S
Mg353 O352 2.028 1_554 S
Mg353 O358 2.032 1_554 S
Mg353 O360 2.079 . S
C354 O351 1.250 . S
C354 O352 1.248 . S
C355 O356 1.264 . S
C355 O363 1.249 . S
O356 C355 1.264 . S
O357 Mg350 1.986 . S
O357 C361 1.246 . S
O358 Mg353 2.032 1_556 S
O358 C361 1.259 . S
O359 Mg350 2.114 1_554 S
O359 C362 1.252 . S
O360 Mg350 2.251 1_554 S
O360 Mg353 2.079 . S
O360 C362 1.273 . S
C361 O357 1.246 . S
C361 O358 1.259 . S
C362 O359 1.252 . S
C362 O360 1.273 . S
O363 Mg350 2.010 . S
O363 C355 1.249 . S
Mg364 O365 2.028 . S
Mg364 O371 1.986 . S
Mg364 O373 2.114 . S
Mg364 O374 2.251 . S
Mg364 O377 2.010 1_455 S
O365 Mg364 2.028 . S
O365 C368 1.250 . S
O366 Mg367 2.028 . S
O366 C368 1.248 . S
Mg367 O366 2.028 . S
Mg367 O372 2.032 . S
Mg367 O374 2.079 . S
C368 O365 1.250 . S
C368 O366 1.248 . S
C369 O370 1.264 . S
C369 O377 1.249 . S
O370 C369 1.264 . S
O371 Mg364 1.986 . S
O371 C375 1.246 . S
O372 Mg367 2.032 . S
O372 C375 1.259 . S
O373 Mg364 2.114 . S
O373 C376 1.252 . S
O374 Mg364 2.251 . S
O374 Mg367 2.079 . S
O374 C376 1.273 . S
C375 O371 1.246 . S
C375 O372 1.259 . S
C376 O373 1.252 . S
C376 O374 1.273 . S
O377 Mg364 2.010 1_655 S
O377 C369 1.249 . S
Mg378 O379 2.028 . S
Mg378 O385 1.986 . S
Mg378 O387 2.114 . S
Mg378 O388 2.251 . S
Mg378 O391 2.010 . S
O379 Mg378 2.028 . S
O379 C382 1.250 . S
O380 Mg381 2.028 . S
O380 C382 1.248 . S
Mg381 O380 2.028 . S
Mg381 O386 2.032 . S
Mg381 O388 2.079 . S
C382 O379 1.250 . S
C382 O380 1.248 . S
C383 O384 1.264 . S
C383 O391 1.249 . S
O384 C383 1.264 . S
O385 Mg378 1.986 . S
O385 C389 1.246 . S
O386 Mg381 2.032 . S
O386 C389 1.259 . S
O387 Mg378 2.114 . S
O387 C390 1.252 . S
O388 Mg378 2.251 . S
O388 Mg381 2.079 . S
O388 C390 1.273 . S
C389 O385 1.246 . S
C389 O386 1.259 . S
C390 O387 1.252 . S
C390 O388 1.273 . S
O391 Mg378 2.010 . S
O391 C383 1.249 . S
Mg392 O393 2.028 . S
Mg392 O399 1.986 . S
Mg392 O401 2.114 . S
Mg392 O402 2.251 . S
Mg392 O405 2.010 . S
O393 Mg392 2.028 . S
O393 C396 1.250 . S
O394 Mg395 2.028 . S
O394 C396 1.248 . S
Mg395 O394 2.028 . S
Mg395 O400 2.032 . S
Mg395 O402 2.079 . S
C396 O393 1.250 . S
C396 O394 1.248 . S
C397 O398 1.264 . S
C397 O405 1.249 . S
O398 C397 1.264 . S
O399 Mg392 1.986 . S
O399 C403 1.246 . S
O400 Mg395 2.032 . S
O400 C403 1.259 . S
O401 Mg392 2.114 . S
O401 C404 1.252 . S
O402 Mg392 2.251 . S
O402 Mg395 2.079 . S
O402 C404 1.273 . S
C403 O399 1.246 . S
C403 O400 1.259 . S
C404 O401 1.252 . S
C404 O402 1.273 . S
O405 Mg392 2.010 . S
O405 C397 1.249 . S
Mg406 O407 2.028 . S
Mg406 O413 1.986 . S
Mg406 O415 2.114 1_554 S
Mg406 O416 2.251 1_554 S
Mg406 O419 2.010 . S
O407 Mg406 2.028 . S
O407 C410 1.250 . S
O408 Mg409 2.028 1_554 S
O408 C410 1.248 . S
Mg409 O408 2.028 1_556 S
Mg409 O414 2.032 1_556 S
Mg409 O416 2.079 . S
C410 O407 1.250 . S
C410 O408 1.248 . S
C411 O412 1.264 . S
C411 O419 1.249 . S
O412 C411 1.264 . S
O413 Mg406 1.986 . S
O413 C417 1.246 . S
O414 Mg409 2.032 1_554 S
O414 C417 1.259 . S
O415 Mg406 2.114 1_556 S
O415 C418 1.252 . S
O416 Mg406 2.251 1_556 S
O416 Mg409 2.079 . S
O416 C418 1.273 . S
C417 O413 1.246 . S
C417 O414 1.259 . S
C418 O415 1.252 . S
C418 O416 1.273 . S
O419 Mg406 2.010 . S
O419 C411 1.249 . S
Mg420 O421 2.028 . S
Mg420 O427 1.986 . S
Mg420 O429 2.114 . S
Mg420 O430 2.251 . S
Mg420 O433 2.010 1_455 S
O421 Mg420 2.028 . S
O421 C424 1.250 . S
O422 Mg423 2.028 . S
O422 C424 1.248 . S
Mg423 O422 2.028 . S
Mg423 O428 2.032 . S
Mg423 O430 2.079 . S
C424 O421 1.250 . S
C424 O422 1.248 . S
C425 O426 1.264 . S
C425 O433 1.249 . S
O426 C425 1.264 . S
O427 Mg420 1.986 . S
O427 C431 1.246 . S
O428 Mg423 2.032 . S
O428 C431 1.259 . S
O429 Mg420 2.114 . S
O429 C432 1.252 . S
O430 Mg420 2.251 . S
O430 Mg423 2.079 . S
O430 C432 1.273 . S
C431 O427 1.246 . S
C431 O428 1.259 . S
C432 O429 1.252 . S
C432 O430 1.273 . S
O433 Mg420 2.010 1_655 S
O433 C425 1.249 . S
Mg434 O435 2.028 . S
Mg434 O441 1.986 . S
Mg434 O443 2.114 . S
Mg434 O444 2.251 . S
Mg434 O447 2.010 . S
O435 Mg434 2.028 . S
O435 C438 1.250 . S
O436 Mg437 2.028 . S
O436 C438 1.248 . S
Mg437 O436 2.028 . S
Mg437 O442 2.032 . S
Mg437 O444 2.079 . S
C438 O435 1.250 . S
C438 O436 1.248 . S
C439 O440 1.264 . S
C439 O447 1.249 . S
O440 C439 1.264 . S
O441 Mg434 1.986 . S
O441 C445 1.246 . S
O442 Mg437 2.032 . S
O442 C445 1.259 . S
O443 Mg434 2.114 . S
O443 C446 1.252 . S
O444 Mg434 2.251 . S
O444 Mg437 2.079 . S
O444 C446 1.273 . S
C445 O441 1.246 . S
C445 O442 1.259 . S
C446 O443 1.252 . S
C446 O444 1.273 . S
O447 Mg434 2.010 . S
O447 C439 1.249 . S
C448 C449 1.363 . S
C448 C454 1.379 . S
C448 N456 1.356 . S
C449 C448 1.363 . S
C449 C455 1.363 . S
C450 C451 1.363 . S
C450 C455 1.379 . S
C450 N457 1.356 . S
C451 C450 1.363 . S
C451 C454 1.363 . S
N452 C454 1.356 . S
N452 H464 0.984 . S
N452 H465 0.985 . S
N453 C455 1.356 . S
N453 H458 0.984 . S
N453 H459 0.985 . S
C454 C448 1.379 . S
C454 C451 1.363 . S
C454 N452 1.356 . S
C455 C449 1.363 . S
C455 C450 1.379 . S
C455 N453 1.356 . S
N456 C448 1.356 . S
N456 H462 0.984 . S
N456 H463 0.984 . S
N457 C450 1.356 . S
N457 H460 0.984 . S
N457 H461 0.985 . S
H458 N453 0.984 . S
H459 N453 0.985 . S
H460 N457 0.984 . S
H461 N457 0.985 . S
H462 N456 0.984 . S
H463 N456 0.984 . S
H464 N452 0.984 . S
H465 N452 0.985 . S
C466 C467 1.363 . S
C466 C472 1.379 . S
C466 N474 1.356 . S
C467 C466 1.363 . S
C467 C473 1.363 . S
C468 C469 1.363 . S
C468 C473 1.379 . S
C468 N475 1.356 . S
C469 C468 1.363 . S
C469 C472 1.363 . S
N470 C472 1.356 . S
N470 H482 0.984 . S
N470 H483 0.985 . S
N471 C473 1.356 . S
N471 H476 0.984 . S
N471 H477 0.985 . S
C472 C466 1.379 . S
C472 C469 1.363 . S
C472 N470 1.356 . S
C473 C467 1.363 . S
C473 C468 1.379 . S
C473 N471 1.356 . S
N474 C466 1.356 . S
N474 H480 0.984 1_655 S
N474 H481 0.991 . S
N475 C468 1.356 . S
N475 H478 0.984 . S
N475 H479 0.985 . S
H476 N471 0.984 . S
H477 N471 0.985 . S
H478 N475 0.984 . S
H479 N475 0.985 . S
H480 N474 0.984 1_455 S
H481 N474 0.991 . S
H482 N470 0.984 . S
H483 N470 0.985 . S
C484 C485 1.363 . S
C484 C490 1.379 . S
C484 N492 1.356 . S
C485 C484 1.363 . S
C485 C491 1.363 . S
C486 C487 1.363 . S
C486 C491 1.379 . S
C486 N493 1.356 . S
C487 C486 1.363 . S
C487 C490 1.363 . S
N488 C490 1.356 . S
N488 H500 0.984 . S
N488 H501 0.985 . S
N489 C491 1.356 . S
N489 H494 0.984 . S
N489 H495 0.985 . S
C490 C484 1.379 . S
C490 C487 1.363 . S
C490 N488 1.356 . S
C491 C485 1.363 . S
C491 C486 1.379 . S
C491 N489 1.356 . S
N492 C484 1.356 . S
N492 H498 0.984 . S
N492 H499 0.984 . S
N493 C486 1.356 . S
N493 H496 0.984 . S
N493 H497 0.985 . S
H494 N489 0.984 . S
H495 N489 0.985 . S
H496 N493 0.984 . S
H497 N493 0.985 . S
H498 N492 0.984 . S
H499 N492 0.984 . S
H500 N488 0.984 . S
H501 N488 0.985 . S
C502 C503 1.363 . S
C502 C508 1.379 . S
C502 N510 1.356 . S
C503 C502 1.363 . S
C503 C509 1.363 . S
C504 C505 1.363 . S
C504 C509 1.379 . S
C504 N511 1.356 . S
C505 C504 1.363 . S
C505 C508 1.363 . S
N506 C508 1.356 . S
N506 H518 0.984 . S
N506 H519 0.985 . S
N507 C509 1.356 . S
N507 H512 0.984 . S
N507 H513 0.985 . S
C508 C502 1.379 . S
C508 C505 1.363 . S
C508 N506 1.356 . S
C509 C503 1.363 . S
C509 C504 1.379 . S
C509 N507 1.356 . S
N510 C502 1.356 . S
N510 H516 0.984 . S
N510 H517 0.984 . S
N511 C504 1.356 . S
N511 H514 0.984 . S
N511 H515 0.985 . S
H512 N507 0.984 . S
H513 N507 0.985 . S
H514 N511 0.984 . S
H515 N511 0.985 . S
H516 N510 0.984 . S
H517 N510 0.984 . S
H518 N506 0.984 . S
H519 N506 0.985 . S
C520 C521 1.363 . S
C520 C526 1.379 . S
C520 N528 1.356 . S
C521 C520 1.363 . S
C521 C527 1.363 . S
C522 C523 1.363 . S
C522 C527 1.379 . S
C522 N529 1.356 . S
C523 C522 1.363 . S
C523 C526 1.363 . S
N524 C526 1.356 . S
N524 H536 0.984 . S
N524 H537 0.985 . S
N525 C527 1.356 . S
N525 H530 0.984 . S
N525 H531 0.985 . S
C526 C520 1.379 . S
C526 C523 1.363 . S
C526 N524 1.356 . S
C527 C521 1.363 . S
C527 C522 1.379 . S
C527 N525 1.356 . S
N528 C520 1.356 . S
N528 H534 0.984 . S
N528 H535 0.984 . S
N529 C522 1.356 . S
N529 H532 0.984 . S
N529 H533 0.985 . S
H530 N525 0.984 . S
H531 N525 0.985 . S
H532 N529 0.984 . S
H533 N529 0.985 . S
H534 N528 0.984 . S
H535 N528 0.984 . S
H536 N524 0.984 . S
H537 N524 0.985 . S
C538 C539 1.363 . S
C538 C544 1.379 . S
C538 N546 1.356 . S
C539 C538 1.363 . S
C539 C545 1.363 . S
C540 C541 1.363 . S
C540 C545 1.379 . S
C540 N547 1.356 . S
C541 C540 1.363 . S
C541 C544 1.363 . S
N542 C544 1.356 . S
N542 H554 0.984 . S
N542 H555 0.985 . S
N543 C545 1.356 . S
N543 H548 0.984 . S
N543 H549 0.985 . S
C544 C538 1.379 . S
C544 C541 1.363 . S
C544 N542 1.356 . S
C545 C539 1.363 . S
C545 C540 1.379 . S
C545 N543 1.356 . S
N546 C538 1.356 . S
N546 H552 0.984 . S
N546 H553 0.984 . S
N547 C540 1.356 . S
N547 H550 0.984 . S
N547 H551 0.985 . S
H548 N543 0.984 . S
H549 N543 0.985 . S
H550 N547 0.984 . S
H551 N547 0.985 . S
H552 N546 0.984 . S
H553 N546 0.984 . S
H554 N542 0.984 . S
H555 N542 0.985 . S
C556 C557 1.363 . S
C556 C562 1.379 . S
C556 N564 1.356 . S
C557 C556 1.363 . S
C557 C563 1.363 . S
C558 C559 1.363 . S
C558 C563 1.379 . S
C558 N565 1.356 . S
C559 C558 1.363 . S
C559 C562 1.363 . S
N560 C562 1.356 . S
N560 H572 0.984 . S
N560 H573 0.985 . S
N561 C563 1.356 . S
N561 H566 0.984 . S
N561 H567 0.985 . S
C562 C556 1.379 . S
C562 C559 1.363 . S
C562 N560 1.356 . S
C563 C557 1.363 . S
C563 C558 1.379 . S
C563 N561 1.356 . S
N564 C556 1.356 . S
N564 H570 0.984 . S
N564 H571 0.984 . S
N565 C558 1.356 . S
N565 H568 0.984 . S
N565 H569 0.985 . S
H566 N561 0.984 . S
H567 N561 0.985 . S
H568 N565 0.984 . S
H569 N565 0.985 . S
H570 N564 0.984 . S
H571 N564 0.984 . S
H572 N560 0.984 . S
H573 N560 0.985 . S
C574 C575 1.363 . S
C574 C580 1.379 . S
C574 N582 1.356 . S
C575 C574 1.363 . S
C575 C581 1.363 . S
C576 C577 1.363 . S
C576 C581 1.379 . S
C576 N583 1.356 . S
C577 C576 1.363 . S
C577 C580 1.363 . S
N578 C580 1.356 . S
N578 H590 0.984 . S
N578 H591 0.985 . S
N579 C581 1.356 . S
N579 H584 0.984 . S
N579 H585 0.985 . S
C580 C574 1.379 . S
C580 C577 1.363 . S
C580 N578 1.356 . S
C581 C575 1.363 . S
C581 C576 1.379 . S
C581 N579 1.356 . S
N582 C574 1.356 . S
N582 H588 0.984 . S
N582 H589 0.984 . S
N583 C576 1.356 . S
N583 H586 0.984 . S
N583 H587 0.985 . S
H584 N579 0.984 . S
H585 N579 0.985 . S
H586 N583 0.984 . S
H587 N583 0.985 . S
H588 N582 0.984 . S
H589 N582 0.984 . S
H590 N578 0.984 . S
H591 N578 0.985 . S
C592 C593 1.363 . S
C592 C598 1.379 . S
C592 N600 1.356 . S
C593 C592 1.363 . S
C593 C599 1.363 . S
C594 C595 1.363 . S
C594 C599 1.379 . S
C594 N601 1.356 . S
C595 C594 1.363 . S
C595 C598 1.363 . S
N596 C598 1.356 . S
N596 H608 0.984 . S
N596 H609 0.985 . S
N597 C599 1.356 . S
N597 H602 0.984 . S
N597 H603 0.985 . S
C598 C592 1.379 . S
C598 C595 1.363 . S
C598 N596 1.356 . S
C599 C593 1.363 . S
C599 C594 1.379 . S
C599 N597 1.356 . S
N600 C592 1.356 . S
N600 H606 0.984 . S
N600 H607 0.984 . S
N601 C594 1.356 . S
N601 H604 0.984 . S
N601 H605 0.985 . S
H602 N597 0.984 . S
H603 N597 0.985 . S
H604 N601 0.984 . S
H605 N601 0.985 . S
H606 N600 0.984 . S
H607 N600 0.984 . S
H608 N596 0.984 . S
H609 N596 0.985 . S
C610 C611 1.363 . S
C610 C616 1.379 . S
C610 N618 1.356 . S
C611 C610 1.363 . S
C611 C617 1.363 . S
C612 C613 1.363 . S
C612 C617 1.379 . S
C612 N619 1.356 . S
C613 C612 1.363 . S
C613 C616 1.363 . S
N614 C616 1.356 . S
N614 H626 0.984 . S
N614 H627 0.985 . S
N615 C617 1.356 . S
N615 H620 0.984 . S
N615 H621 0.985 . S
C616 C610 1.379 . S
C616 C613 1.363 . S
C616 N614 1.356 . S
C617 C611 1.363 . S
C617 C612 1.379 . S
C617 N615 1.356 . S
N618 C610 1.356 . S
N618 H624 0.984 . S
N618 H625 0.984 . S
N619 C612 1.356 . S
N619 H622 0.984 . S
N619 H623 0.985 . S
H620 N615 0.984 . S
H621 N615 0.985 . S
H622 N619 0.984 . S
H623 N619 0.985 . S
H624 N618 0.984 . S
H625 N618 0.984 . S
H626 N614 0.984 . S
H627 N614 0.985 . S
C628 C629 1.363 . S
C628 C634 1.379 . S
C628 N636 1.356 . S
C629 C628 1.363 . S
C629 C635 1.363 . S
C630 C631 1.363 . S
C630 C635 1.379 . S
C630 N637 1.356 . S
C631 C630 1.363 . S
C631 C634 1.363 . S
N632 C634 1.356 . S
N632 H644 0.984 . S
N632 H645 0.985 . S
N633 C635 1.356 . S
N633 H638 0.984 . S
N633 H639 0.985 . S
C634 C628 1.379 . S
C634 C631 1.363 . S
C634 N632 1.356 . S
C635 C629 1.363 . S
C635 C630 1.379 . S
C635 N633 1.356 . S
N636 C628 1.356 . S
N636 H642 0.984 . S
N636 H643 0.984 . S
N637 C630 1.356 . S
N637 H640 0.984 . S
N637 H641 0.985 . S
H638 N633 0.984 . S
H639 N633 0.985 . S
H640 N637 0.984 . S
H641 N637 0.985 . S
H642 N636 0.984 . S
H643 N636 0.984 . S
H644 N632 0.984 . S
H645 N632 0.985 . S
C646 C647 1.363 . S
C646 C652 1.379 . S
C646 N654 1.356 . S
C647 C646 1.363 . S
C647 C653 1.363 . S
C648 C649 1.363 . S
C648 C653 1.379 . S
C648 N655 1.356 . S
C649 C648 1.363 . S
C649 C652 1.363 . S
N650 C652 1.356 . S
N650 H662 0.984 . S
N650 H663 0.985 . S
N651 C653 1.356 . S
N651 H656 0.984 . S
N651 H657 0.985 . S
C652 C646 1.379 . S
C652 C649 1.363 . S
C652 N650 1.356 . S
C653 C647 1.363 . S
C653 C648 1.379 . S
C653 N651 1.356 . S
N654 C646 1.356 . S
N654 H660 0.984 . S
N654 H661 0.984 . S
N655 C648 1.356 . S
N655 H658 0.984 . S
N655 H659 0.985 . S
H656 N651 0.984 . S
H657 N651 0.985 . S
H658 N655 0.984 . S
H659 N655 0.985 . S
H660 N654 0.984 . S
H661 N654 0.984 . S
H662 N650 0.984 . S
H663 N650 0.985 . S
C664 C665 1.363 . S
C664 C670 1.379 . S
C664 N672 1.356 . S
C665 C664 1.363 . S
C665 C671 1.363 . S
C666 C667 1.363 . S
C666 C671 1.379 . S
C666 N673 1.356 . S
C667 C666 1.363 . S
C667 C670 1.363 . S
N668 C670 1.356 . S
N668 H680 0.984 . S
N668 H681 0.985 . S
N669 C671 1.356 . S
N669 H674 0.984 . S
N669 H675 0.985 . S
C670 C664 1.379 . S
C670 C667 1.363 . S
C670 N668 1.356 . S
C671 C665 1.363 . S
C671 C666 1.379 . S
C671 N669 1.356 . S
N672 C664 1.356 . S
N672 H678 0.980 1_655 S
N672 H679 0.984 . S
N673 C666 1.356 . S
N673 H676 0.984 . S
N673 H677 0.985 . S
H674 N669 0.984 . S
H675 N669 0.985 . S
H676 N673 0.984 . S
H677 N673 0.985 . S
H678 N672 0.980 1_455 S
H679 N672 0.984 . S
H680 N668 0.984 . S
H681 N668 0.985 . S
C682 C683 1.363 . S
C682 C688 1.379 . S
C682 N690 1.356 . S
C683 C682 1.363 . S
C683 C689 1.363 . S
C684 C685 1.363 . S
C684 C689 1.379 . S
C684 N691 1.356 . S
C685 C684 1.363 . S
C685 C688 1.363 . S
N686 C688 1.356 . S
N686 H698 0.984 . S
N686 H699 0.985 . S
N687 C689 1.356 . S
N687 H692 0.984 . S
N687 H693 0.985 . S
C688 C682 1.379 . S
C688 C685 1.363 . S
C688 N686 1.356 . S
C689 C683 1.363 . S
C689 C684 1.379 . S
C689 N687 1.356 . S
N690 C682 1.356 . S
N690 H696 0.984 . S
N690 H697 0.984 . S
N691 C684 1.356 . S
N691 H694 0.984 . S
N691 H695 0.985 . S
H692 N687 0.984 . S
H693 N687 0.985 . S
H694 N691 0.984 . S
H695 N691 0.985 . S
H696 N690 0.984 . S
H697 N690 0.984 . S
H698 N686 0.984 . S
H699 N686 0.985 . S
C700 C701 1.363 . S
C700 C706 1.379 . S
C700 N708 1.356 . S
C701 C700 1.363 . S
C701 C707 1.363 . S
C702 C703 1.363 . S
C702 C707 1.379 . S
C702 N709 1.356 . S
C703 C702 1.363 . S
C703 C706 1.363 . S
N704 C706 1.356 . S
N704 H716 0.984 . S
N704 H717 0.985 . S
N705 C707 1.356 . S
N705 H710 0.984 . S
N705 H711 0.985 . S
C706 C700 1.379 . S
C706 C703 1.363 . S
C706 N704 1.356 . S
C707 C701 1.363 . S
C707 C702 1.379 . S
C707 N705 1.356 . S
N708 C700 1.356 . S
N708 H714 0.984 . S
N708 H715 0.984 . S
N709 C702 1.356 . S
N709 H712 0.984 . S
N709 H713 0.985 . S
H710 N705 0.984 . S
H711 N705 0.985 . S
H712 N709 0.984 . S
H713 N709 0.985 . S
H714 N708 0.984 . S
H715 N708 0.984 . S
H716 N704 0.984 . S
H717 N704 0.985 . S
C718 C719 1.363 . S
C718 C724 1.379 . S
C718 N726 1.356 . S
C719 C718 1.363 . S
C719 C725 1.363 . S
C720 C721 1.363 . S
C720 C725 1.379 . S
C720 N727 1.356 . S
C721 C720 1.363 . S
C721 C724 1.363 . S
N722 C724 1.356 . S
N722 H734 0.984 . S
N722 H735 0.985 . S
N723 C725 1.356 . S
N723 H728 0.984 . S
N723 H729 0.985 . S
C724 C718 1.379 . S
C724 C721 1.363 . S
C724 N722 1.356 . S
C725 C719 1.363 . S
C725 C720 1.379 . S
C725 N723 1.356 . S
N726 C718 1.356 . S
N726 H732 0.984 1_455 S
N726 H733 0.984 . S
N727 C720 1.356 . S
N727 H730 0.984 . S
N727 H731 0.985 . S
H728 N723 0.984 . S
H729 N723 0.985 . S
H730 N727 0.984 . S
H731 N727 0.985 . S
H732 N726 0.984 1_655 S
H733 N726 0.984 . S
H734 N722 0.984 . S
H735 N722 0.985 . S
C736 C737 1.363 . S
C736 C742 1.379 . S
C736 N744 1.356 . S
C737 C736 1.363 . S
C737 C743 1.363 . S
C738 C739 1.363 . S
C738 C743 1.379 . S
C738 N745 1.356 . S
C739 C738 1.363 . S
C739 C742 1.363 . S
N740 C742 1.356 . S
N740 H752 0.984 . S
N740 H753 0.985 . S
N741 C743 1.356 . S
N741 H746 0.984 . S
N741 H747 0.985 . S
C742 C736 1.379 . S
C742 C739 1.363 . S
C742 N740 1.356 . S
C743 C737 1.363 . S
C743 C738 1.379 . S
C743 N741 1.356 . S
N744 C736 1.356 . S
N744 H750 0.984 . S
N744 H751 0.984 . S
N745 C738 1.356 . S
N745 H748 0.984 . S
N745 H749 0.985 . S
H746 N741 0.984 . S
H747 N741 0.985 . S
H748 N745 0.984 . S
H749 N745 0.985 . S
H750 N744 0.984 . S
H751 N744 0.984 . S
H752 N740 0.984 . S
H753 N740 0.985 . S
C754 C755 1.363 . S
C754 C760 1.379 . S
C754 N762 1.356 . S
C755 C754 1.363 . S
C755 C761 1.363 . S
C756 C757 1.363 . S
C756 C761 1.379 . S
C756 N763 1.356 . S
C757 C756 1.363 . S
C757 C760 1.363 . S
N758 C760 1.356 . S
N758 H770 0.984 . S
N758 H771 0.985 . S
N759 C761 1.356 . S
N759 H764 0.984 . S
N759 H765 0.985 . S
C760 C754 1.379 . S
C760 C757 1.363 . S
C760 N758 1.356 . S
C761 C755 1.363 . S
C761 C756 1.379 . S
C761 N759 1.356 . S
N762 C754 1.356 . S
N762 H768 0.984 . S
N762 H769 0.984 . S
N763 C756 1.356 . S
N763 H766 0.984 . S
N763 H767 0.985 . S
H764 N759 0.984 . S
H765 N759 0.985 . S
H766 N763 0.984 . S
H767 N763 0.985 . S
H768 N762 0.984 . S
H769 N762 0.984 . S
H770 N758 0.984 . S
H771 N758 0.985 . S
C772 C773 1.363 . S
C772 C778 1.379 . S
C772 N780 1.356 . S
C773 C772 1.363 . S
C773 C779 1.363 . S
C774 C775 1.363 . S
C774 C779 1.379 . S
C774 N781 1.356 . S
C775 C774 1.363 . S
C775 C778 1.363 . S
N776 C778 1.356 . S
N776 H788 0.984 . S
N776 H789 0.985 . S
N777 C779 1.356 . S
N777 H782 0.984 . S
N777 H783 0.985 . S
C778 C772 1.379 . S
C778 C775 1.363 . S
C778 N776 1.356 . S
C779 C773 1.363 . S
C779 C774 1.379 . S
C779 N777 1.356 . S
N780 C772 1.356 . S
N780 H786 0.984 . S
N780 H787 0.984 . S
N781 C774 1.356 . S
N781 H784 0.984 . S
N781 H785 0.985 . S
H782 N777 0.984 . S
H783 N777 0.985 . S
H784 N781 0.984 . S
H785 N781 0.985 . S
H786 N780 0.984 . S
H787 N780 0.984 . S
H788 N776 0.984 . S
H789 N776 0.985 . S
C790 C791 1.363 . S
C790 C796 1.379 . S
C790 N798 1.356 . S
C791 C790 1.363 . S
C791 C797 1.363 . S
C792 C793 1.363 . S
C792 C797 1.379 . S
C792 N799 1.356 . S
C793 C792 1.363 . S
C793 C796 1.363 . S
N794 C796 1.356 . S
N794 H806 0.984 . S
N794 H807 0.985 . S
N795 C797 1.356 . S
N795 H800 0.984 . S
N795 H801 0.985 . S
C796 C790 1.379 . S
C796 C793 1.363 . S
C796 N794 1.356 . S
C797 C791 1.363 . S
C797 C792 1.379 . S
C797 N795 1.356 . S
N798 C790 1.356 . S
N798 H804 0.984 . S
N798 H805 0.984 . S
N799 C792 1.356 . S
N799 H802 0.984 . S
N799 H803 0.985 . S
H800 N795 0.984 . S
H801 N795 0.985 . S
H802 N799 0.984 . S
H803 N799 0.985 . S
H804 N798 0.984 . S
H805 N798 0.984 . S
H806 N794 0.984 . S
H807 N794 0.985 . S
C808 C809 1.363 . S
C808 C814 1.379 . S
C808 N816 1.356 . S
C809 C808 1.363 . S
C809 C815 1.363 . S
C810 C811 1.363 . S
C810 C815 1.379 . S
C810 N817 1.356 . S
C811 C810 1.363 . S
C811 C814 1.363 . S
N812 C814 1.356 . S
N812 H824 0.984 . S
N812 H825 0.985 . S
N813 C815 1.356 . S
N813 H818 0.984 . S
N813 H819 0.985 . S
C814 C808 1.379 . S
C814 C811 1.363 . S
C814 N812 1.356 . S
C815 C809 1.363 . S
C815 C810 1.379 . S
C815 N813 1.356 . S
N816 C808 1.356 . S
N816 H822 0.984 . S
N816 H823 0.984 . S
N817 C810 1.356 . S
N817 H820 0.984 . S
N817 H821 0.985 . S
H818 N813 0.984 . S
H819 N813 0.985 . S
H820 N817 0.984 . S
H821 N817 0.985 . S
H822 N816 0.984 . S
H823 N816 0.984 . S
H824 N812 0.984 . S
H825 N812 0.985 . S
C826 C827 1.363 . S
C826 C832 1.379 . S
C826 N834 1.356 . S
C827 C826 1.363 . S
C827 C833 1.363 . S
C828 C829 1.363 . S
C828 C833 1.379 . S
C828 N835 1.356 . S
C829 C828 1.363 . S
C829 C832 1.363 . S
N830 C832 1.356 . S
N830 H842 0.984 . S
N830 H843 0.985 . S
N831 C833 1.356 . S
N831 H836 0.984 . S
N831 H837 0.985 . S
C832 C826 1.379 . S
C832 C829 1.363 . S
C832 N830 1.356 . S
C833 C827 1.363 . S
C833 C828 1.379 . S
C833 N831 1.356 . S
N834 C826 1.356 . S
N834 H840 0.984 . S
N834 H841 0.984 . S
N835 C828 1.356 . S
N835 H838 0.984 . S
N835 H839 0.985 . S
H836 N831 0.984 . S
H837 N831 0.985 . S
H838 N835 0.984 . S
H839 N835 0.985 . S
H840 N834 0.984 . S
H841 N834 0.984 . S
H842 N830 0.984 . S
H843 N830 0.985 . S
C844 C845 1.363 . S
C844 C850 1.379 . S
C844 N852 1.356 . S
C845 C844 1.363 . S
C845 C851 1.363 . S
C846 C847 1.363 . S
C846 C851 1.379 . S
C846 N853 1.356 . S
C847 C846 1.363 . S
C847 C850 1.363 . S
N848 C850 1.356 . S
N848 H860 0.984 . S
N848 H861 0.985 . S
N849 C851 1.356 . S
N849 H854 0.984 . S
N849 H855 0.985 . S
C850 C844 1.379 . S
C850 C847 1.363 . S
C850 N848 1.356 . S
C851 C845 1.363 . S
C851 C846 1.379 . S
C851 N849 1.356 . S
N852 C844 1.356 . S
N852 H858 0.984 . S
N852 H859 0.984 . S
N853 C846 1.356 . S
N853 H856 0.984 . S
N853 H857 0.985 . S
H854 N849 0.984 . S
H855 N849 0.985 . S
H856 N853 0.984 . S
H857 N853 0.985 . S
H858 N852 0.984 . S
H859 N852 0.984 . S
H860 N848 0.984 . S
H861 N848 0.985 . S
C862 C863 1.363 . S
C862 C868 1.379 . S
C862 N870 1.356 . S
C863 C862 1.363 . S
C863 C869 1.363 . S
C864 C865 1.363 . S
C864 C869 1.379 . S
C864 N871 1.356 . S
C865 C864 1.363 . S
C865 C868 1.363 . S
N866 C868 1.356 . S
N866 H878 0.984 . S
N866 H879 0.985 . S
N867 C869 1.356 . S
N867 H872 0.984 . S
N867 H873 0.985 . S
C868 C862 1.379 . S
C868 C865 1.363 . S
C868 N866 1.356 . S
C869 C863 1.363 . S
C869 C864 1.379 . S
C869 N867 1.356 . S
N870 C862 1.356 . S
N870 H876 0.984 . S
N870 H877 0.984 . S
N871 C864 1.356 . S
N871 H874 0.984 . S
N871 H875 0.985 . S
H872 N867 0.984 . S
H873 N867 0.985 . S
H874 N871 0.984 . S
H875 N871 0.985 . S
H876 N870 0.984 . S
H877 N870 0.984 . S
H878 N866 0.984 . S
H879 N866 0.985 . S
C880 C881 1.363 . S
C880 C886 1.379 . S
C880 N888 1.356 . S
C881 C880 1.363 . S
C881 C887 1.363 . S
C882 C883 1.363 . S
C882 C887 1.379 . S
C882 N889 1.356 . S
C883 C882 1.363 . S
C883 C886 1.363 . S
N884 C886 1.356 . S
N884 H896 0.984 . S
N884 H897 0.985 . S
N885 C887 1.356 . S
N885 H890 0.984 . S
N885 H891 0.985 . S
C886 C880 1.379 . S
C886 C883 1.363 . S
C886 N884 1.356 . S
C887 C881 1.363 . S
C887 C882 1.379 . S
C887 N885 1.356 . S
N888 C880 1.356 . S
N888 H894 0.984 . S
N888 H895 0.984 . S
N889 C882 1.356 . S
N889 H892 0.984 . S
N889 H893 0.985 . S
H890 N885 0.984 . S
H891 N885 0.985 . S
H892 N889 0.984 . S
H893 N889 0.985 . S
H894 N888 0.984 . S
H895 N888 0.984 . S
H896 N884 0.984 . S
H897 N884 0.985 . S
C898 C899 1.363 . S
C898 C904 1.379 . S
C898 N906 1.356 . S
C899 C898 1.363 . S
C899 C905 1.363 . S
C900 C901 1.363 . S
C900 C905 1.379 . S
C900 N907 1.356 . S
C901 C900 1.363 . S
C901 C904 1.363 . S
N902 C904 1.356 . S
N902 H914 0.984 . S
N902 H915 0.985 . S
N903 C905 1.356 . S
N903 H908 0.984 . S
N903 H909 0.985 . S
C904 C898 1.379 . S
C904 C901 1.363 . S
C904 N902 1.356 . S
C905 C899 1.363 . S
C905 C900 1.379 . S
C905 N903 1.356 . S
N906 C898 1.356 . S
N906 H912 0.984 . S
N906 H913 0.984 . S
N907 C900 1.356 . S
N907 H910 0.984 . S
N907 H911 0.985 . S
H908 N903 0.984 . S
H909 N903 0.985 . S
H910 N907 0.984 . S
H911 N907 0.985 . S
H912 N906 0.984 . S
H913 N906 0.984 . S
H914 N902 0.984 . S
H915 N902 0.985 . S
C916 C917 1.363 . S
C916 C922 1.379 . S
C916 N924 1.356 . S
C917 C916 1.363 . S
C917 C923 1.363 . S
C918 C919 1.363 . S
C918 C923 1.379 . S
C918 N925 1.356 . S
C919 C918 1.363 . S
C919 C922 1.363 . S
N920 C922 1.356 . S
N920 H932 0.984 . S
N920 H933 0.985 . S
N921 C923 1.356 . S
N921 H926 0.984 . S
N921 H927 0.985 . S
C922 C916 1.379 . S
C922 C919 1.363 . S
C922 N920 1.356 . S
C923 C917 1.363 . S
C923 C918 1.379 . S
C923 N921 1.356 . S
N924 C916 1.356 . S
N924 H930 0.984 . S
N924 H931 0.984 . S
N925 C918 1.356 . S
N925 H928 0.984 . S
N925 H929 0.985 . S
H926 N921 0.984 . S
H927 N921 0.985 . S
H928 N925 0.984 . S
H929 N925 0.985 . S
H930 N924 0.984 . S
H931 N924 0.984 . S
H932 N920 0.984 . S
H933 N920 0.985 . S
C934 C935 1.363 . S
C934 C940 1.379 . S
C934 N942 1.356 . S
C935 C934 1.363 . S
C935 C941 1.363 . S
C936 C937 1.363 . S
C936 C941 1.379 . S
C936 N943 1.356 . S
C937 C936 1.363 . S
C937 C940 1.363 . S
N938 C940 1.356 . S
N938 H950 0.984 . S
N938 H951 0.985 . S
N939 C941 1.356 . S
N939 H944 0.984 . S
N939 H945 0.985 . S
C940 C934 1.379 . S
C940 C937 1.363 . S
C940 N938 1.356 . S
C941 C935 1.363 . S
C941 C936 1.379 . S
C941 N939 1.356 . S
N942 C934 1.356 . S
N942 H948 0.984 . S
N942 H949 0.984 . S
N943 C936 1.356 . S
N943 H946 0.984 . S
N943 H947 0.985 . S
H944 N939 0.984 . S
H945 N939 0.985 . S
H946 N943 0.984 . S
H947 N943 0.985 . S
H948 N942 0.984 . S
H949 N942 0.984 . S
H950 N938 0.984 . S
H951 N938 0.985 . S
C952 C953 1.363 . S
C952 C958 1.379 . S
C952 N960 1.356 . S
C953 C952 1.363 . S
C953 C959 1.363 . S
C954 C955 1.363 . S
C954 C959 1.379 . S
C954 N961 1.356 . S
C955 C954 1.363 . S
C955 C958 1.363 . S
N956 C958 1.356 . S
N956 H968 0.984 . S
N956 H969 0.985 . S
N957 C959 1.356 . S
N957 H962 0.984 . S
N957 H963 0.985 . S
C958 C952 1.379 . S
C958 C955 1.363 . S
C958 N956 1.356 . S
C959 C953 1.363 . S
C959 C954 1.379 . S
C959 N957 1.356 . S
N960 C952 1.356 . S
N960 H966 0.984 . S
N960 H967 0.984 . S
N961 C954 1.356 . S
N961 H964 0.984 . S
N961 H965 0.985 . S
H962 N957 0.984 . S
H963 N957 0.985 . S
H964 N961 0.984 . S
H965 N961 0.985 . S
H966 N960 0.984 . S
H967 N960 0.984 . S
H968 N956 0.984 . S
H969 N956 0.985 . S
C970 C971 1.363 . S
C970 C976 1.379 . S
C970 N978 1.356 . S
C971 C970 1.363 . S
C971 C977 1.363 . S
C972 C973 1.363 . S
C972 C977 1.379 . S
C972 N979 1.356 . S
C973 C972 1.363 . S
C973 C976 1.363 . S
N974 C976 1.356 . S
N974 H986 0.984 . S
N974 H987 0.985 . S
N975 C977 1.356 . S
N975 H980 0.984 . S
N975 H981 0.985 . S
C976 C970 1.379 . S
C976 C973 1.363 . S
C976 N974 1.356 . S
C977 C971 1.363 . S
C977 C972 1.379 . S
C977 N975 1.356 . S
N978 C970 1.356 . S
N978 H984 0.984 . S
N978 H985 0.984 . S
N979 C972 1.356 . S
N979 H982 0.984 . S
N979 H983 0.985 . S
H980 N975 0.984 . S
H981 N975 0.985 . S
H982 N979 0.984 . S
H983 N979 0.985 . S
H984 N978 0.984 . S
H985 N978 0.984 . S
H986 N974 0.984 . S
H987 N974 0.985 . S
C988 C989 1.363 . S
C988 C994 1.379 . S
C988 N996 1.356 . S
C989 C988 1.363 . S
C989 C995 1.363 . S
C990 C991 1.363 . S
C990 C995 1.379 . S
C990 N997 1.356 . S
C991 C990 1.363 . S
C991 C994 1.363 . S
N992 C994 1.356 . S
N992 H1004 0.984 . S
N992 H1005 0.985 . S
N993 C995 1.356 . S
N993 H998 0.984 . S
N993 H999 0.985 . S
C994 C988 1.379 . S
C994 C991 1.363 . S
C994 N992 1.356 . S
C995 C989 1.363 . S
C995 C990 1.379 . S
C995 N993 1.356 . S
N996 C988 1.356 . S
N996 H1002 0.984 . S
N996 H1003 0.984 . S
N997 C990 1.356 . S
N997 H1000 0.984 . S
N997 H1001 0.985 . S
H998 N993 0.984 . S
H999 N993 0.985 . S
H1000 N997 0.984 . S
H1001 N997 0.985 . S
H1002 N996 0.984 . S
H1003 N996 0.984 . S
H1004 N992 0.984 . S
H1005 N992 0.985 . S
C1006 C1007 1.363 . S
C1006 C1012 1.379 . S
C1006 N1014 1.356 . S
C1007 C1006 1.363 . S
C1007 C1013 1.363 . S
C1008 C1009 1.363 . S
C1008 C1013 1.379 . S
C1008 N1015 1.356 . S
C1009 C1008 1.363 . S
C1009 C1012 1.363 . S
N1010 C1012 1.356 . S
N1010 H1022 0.984 . S
N1010 H1023 0.985 . S
N1011 C1013 1.356 . S
N1011 H1016 0.984 . S
N1011 H1017 0.985 . S
C1012 C1006 1.379 . S
C1012 C1009 1.363 . S
C1012 N1010 1.356 . S
C1013 C1007 1.363 . S
C1013 C1008 1.379 . S
C1013 N1011 1.356 . S
N1014 C1006 1.356 . S
N1014 H1020 0.984 . S
N1014 H1021 0.984 . S
N1015 C1008 1.356 . S
N1015 H1018 0.984 . S
N1015 H1019 0.985 . S
H1016 N1011 0.984 . S
H1017 N1011 0.985 . S
H1018 N1015 0.984 . S
H1019 N1015 0.985 . S
H1020 N1014 0.984 . S
H1021 N1014 0.984 . S
H1022 N1010 0.984 . S
H1023 N1010 0.985 . S
C1024 C1025 1.363 . S
C1024 C1030 1.379 . S
C1024 N1032 1.356 . S
C1025 C1024 1.363 . S
C1025 C1031 1.363 . S
C1026 C1027 1.363 . S
C1026 C1031 1.379 . S
C1026 N1033 1.356 . S
C1027 C1026 1.363 . S
C1027 C1030 1.363 . S
N1028 C1030 1.356 . S
N1028 H1040 0.984 . S
N1028 H1041 0.985 . S
N1029 C1031 1.356 . S
N1029 H1034 0.984 . S
N1029 H1035 0.985 . S
C1030 C1024 1.379 . S
C1030 C1027 1.363 . S
C1030 N1028 1.356 . S
C1031 C1025 1.363 . S
C1031 C1026 1.379 . S
C1031 N1029 1.356 . S
N1032 C1024 1.356 . S
N1032 H1038 0.984 . S
N1032 H1039 0.984 . S
N1033 C1026 1.356 . S
N1033 H1036 0.984 . S
N1033 H1037 0.985 . S
H1034 N1029 0.984 . S
H1035 N1029 0.985 . S
H1036 N1033 0.984 . S
H1037 N1033 0.985 . S
H1038 N1032 0.984 . S
H1039 N1032 0.984 . S
H1040 N1028 0.984 . S
H1041 N1028 0.985 . S
C1042 C1043 1.363 . S
C1042 C1048 1.379 . S
C1042 N1050 1.356 . S
C1043 C1042 1.363 . S
C1043 C1049 1.363 . S
C1044 C1045 1.363 . S
C1044 C1049 1.379 . S
C1044 N1051 1.356 . S
C1045 C1044 1.363 . S
C1045 C1048 1.363 . S
N1046 C1048 1.356 . S
N1046 H1058 0.984 . S
N1046 H1059 0.985 . S
N1047 C1049 1.356 . S
N1047 H1052 0.984 . S
N1047 H1053 0.985 . S
C1048 C1042 1.379 . S
C1048 C1045 1.363 . S
C1048 N1046 1.356 . S
C1049 C1043 1.363 . S
C1049 C1044 1.379 . S
C1049 N1047 1.356 . S
N1050 C1042 1.356 . S
N1050 H1056 0.984 . S
N1050 H1057 0.984 . S
N1051 C1044 1.356 . S
N1051 H1054 0.984 . S
N1051 H1055 0.985 . S
H1052 N1047 0.984 . S
H1053 N1047 0.985 . S
H1054 N1051 0.984 . S
H1055 N1051 0.985 . S
H1056 N1050 0.984 . S
H1057 N1050 0.984 . S
H1058 N1046 0.984 . S
H1059 N1046 0.985 . S
C1060 C1061 1.363 . S
C1060 C1066 1.379 . S
C1060 N1068 1.356 . S
C1061 C1060 1.363 . S
C1061 C1067 1.363 . S
C1062 C1063 1.363 . S
C1062 C1067 1.379 . S
C1062 N1069 1.356 . S
C1063 C1062 1.363 . S
C1063 C1066 1.363 . S
N1064 C1066 1.356 . S
N1064 H1076 0.984 . S
N1064 H1077 0.985 . S
N1065 C1067 1.356 . S
N1065 H1070 0.984 . S
N1065 H1071 0.985 . S
C1066 C1060 1.379 . S
C1066 C1063 1.363 . S
C1066 N1064 1.356 . S
C1067 C1061 1.363 . S
C1067 C1062 1.379 . S
C1067 N1065 1.356 . S
N1068 C1060 1.356 . S
N1068 H1074 0.984 . S
N1068 H1075 0.984 . S
N1069 C1062 1.356 . S
N1069 H1072 0.984 . S
N1069 H1073 0.985 . S
H1070 N1065 0.984 . S
H1071 N1065 0.985 . S
H1072 N1069 0.984 . S
H1073 N1069 0.985 . S
H1074 N1068 0.984 . S
H1075 N1068 0.984 . S
H1076 N1064 0.984 . S
H1077 N1064 0.985 . S
C1078 C1079 1.363 . S
C1078 C1084 1.379 . S
C1078 N1086 1.356 . S
C1079 C1078 1.363 . S
C1079 C1085 1.363 . S
C1080 C1081 1.363 . S
C1080 C1085 1.379 . S
C1080 N1087 1.356 . S
C1081 C1080 1.363 . S
C1081 C1084 1.363 . S
N1082 C1084 1.356 . S
N1082 H1094 0.984 . S
N1082 H1095 0.985 . S
N1083 C1085 1.356 . S
N1083 H1088 0.984 . S
N1083 H1089 0.985 . S
C1084 C1078 1.379 . S
C1084 C1081 1.363 . S
C1084 N1082 1.356 . S
C1085 C1079 1.363 . S
C1085 C1080 1.379 . S
C1085 N1083 1.356 . S
N1086 C1078 1.356 . S
N1086 H1092 0.984 . S
N1086 H1093 0.984 . S
N1087 C1080 1.356 . S
N1087 H1090 0.984 . S
N1087 H1091 0.985 . S
H1088 N1083 0.984 . S
H1089 N1083 0.985 . S
H1090 N1087 0.984 . S
H1091 N1087 0.985 . S
H1092 N1086 0.984 . S
H1093 N1086 0.984 . S
H1094 N1082 0.984 . S
H1095 N1082 0.985 . S
C1096 C1097 1.363 . S
C1096 C1102 1.379 . S
C1096 N1104 1.356 . S
C1097 C1096 1.363 . S
C1097 C1103 1.363 . S
C1098 C1099 1.363 . S
C1098 C1103 1.379 . S
C1098 N1105 1.356 . S
C1099 C1098 1.363 . S
C1099 C1102 1.363 . S
N1100 C1102 1.356 . S
N1100 H1112 0.984 . S
N1100 H1113 0.985 . S
N1101 C1103 1.356 . S
N1101 H1106 0.984 . S
N1101 H1107 0.985 . S
C1102 C1096 1.379 . S
C1102 C1099 1.363 . S
C1102 N1100 1.356 . S
C1103 C1097 1.363 . S
C1103 C1098 1.379 . S
C1103 N1101 1.356 . S
N1104 C1096 1.356 . S
N1104 H1110 0.984 . S
N1104 H1111 0.984 . S
N1105 C1098 1.356 . S
N1105 H1108 0.984 . S
N1105 H1109 0.985 . S
H1106 N1101 0.984 . S
H1107 N1101 0.985 . S
H1108 N1105 0.984 . S
H1109 N1105 0.985 . S
H1110 N1104 0.984 . S
H1111 N1104 0.984 . S
H1112 N1100 0.984 . S
H1113 N1100 0.985 . S
C1114 C1115 1.363 . S
C1114 C1120 1.379 . S
C1114 N1122 1.356 . S
C1115 C1114 1.363 . S
C1115 C1121 1.363 . S
C1116 C1117 1.363 . S
C1116 C1121 1.379 . S
C1116 N1123 1.356 . S
C1117 C1116 1.363 . S
C1117 C1120 1.363 . S
N1118 C1120 1.356 . S
N1118 H1130 0.984 . S
N1118 H1131 0.985 . S
N1119 C1121 1.356 . S
N1119 H1124 0.984 . S
N1119 H1125 0.985 . S
C1120 C1114 1.379 . S
C1120 C1117 1.363 . S
C1120 N1118 1.356 . S
C1121 C1115 1.363 . S
C1121 C1116 1.379 . S
C1121 N1119 1.356 . S
N1122 C1114 1.356 . S
N1122 H1128 0.984 . S
N1122 H1129 0.984 . S
N1123 C1116 1.356 . S
N1123 H1126 0.984 . S
N1123 H1127 0.985 . S
H1124 N1119 0.984 . S
H1125 N1119 0.985 . S
H1126 N1123 0.984 . S
H1127 N1123 0.985 . S
H1128 N1122 0.984 . S
H1129 N1122 0.984 . S
H1130 N1118 0.984 . S
H1131 N1118 0.985 . S
C1132 C1133 1.363 . S
C1132 C1138 1.379 . S
C1132 N1140 1.356 . S
C1133 C1132 1.363 . S
C1133 C1139 1.363 . S
C1134 C1135 1.363 . S
C1134 C1139 1.379 . S
C1134 N1141 1.356 . S
C1135 C1134 1.363 . S
C1135 C1138 1.363 . S
N1136 C1138 1.356 . S
N1136 H1148 0.984 . S
N1136 H1149 0.985 . S
N1137 C1139 1.356 . S
N1137 H1142 0.984 . S
N1137 H1143 0.985 . S
C1138 C1132 1.379 . S
C1138 C1135 1.363 . S
C1138 N1136 1.356 . S
C1139 C1133 1.363 . S
C1139 C1134 1.379 . S
C1139 N1137 1.356 . S
N1140 C1132 1.356 . S
N1140 H1146 0.984 . S
N1140 H1147 0.984 . S
N1141 C1134 1.356 . S
N1141 H1144 0.984 . S
N1141 H1145 0.985 . S
H1142 N1137 0.984 . S
H1143 N1137 0.985 . S
H1144 N1141 0.984 . S
H1145 N1141 0.985 . S
H1146 N1140 0.984 . S
H1147 N1140 0.984 . S
H1148 N1136 0.984 . S
H1149 N1136 0.985 . S
C1150 C1151 1.363 . S
C1150 C1156 1.379 . S
C1150 N1158 1.356 . S
C1151 C1150 1.363 . S
C1151 C1157 1.363 . S
C1152 C1153 1.363 . S
C1152 C1157 1.379 . S
C1152 N1159 1.356 . S
C1153 C1152 1.363 . S
C1153 C1156 1.363 . S
N1154 C1156 1.356 . S
N1154 H1166 0.984 . S
N1154 H1167 0.985 . S
N1155 C1157 1.356 . S
N1155 H1160 0.984 . S
N1155 H1161 0.985 . S
C1156 C1150 1.379 . S
C1156 C1153 1.363 . S
C1156 N1154 1.356 . S
C1157 C1151 1.363 . S
C1157 C1152 1.379 . S
C1157 N1155 1.356 . S
N1158 C1150 1.356 . S
N1158 H1164 0.984 . S
N1158 H1165 0.984 . S
N1159 C1152 1.356 . S
N1159 H1162 0.984 . S
N1159 H1163 0.985 . S
H1160 N1155 0.984 . S
H1161 N1155 0.985 . S
H1162 N1159 0.984 . S
H1163 N1159 0.985 . S
H1164 N1158 0.984 . S
H1165 N1158 0.984 . S
H1166 N1154 0.984 . S
H1167 N1154 0.985 . S
C1168 C1169 1.363 . S
C1168 C1174 1.379 . S
C1168 N1176 1.356 . S
C1169 C1168 1.363 . S
C1169 C1175 1.363 . S
C1170 C1171 1.363 . S
C1170 C1175 1.379 . S
C1170 N1177 1.356 . S
C1171 C1170 1.363 . S
C1171 C1174 1.363 . S
N1172 C1174 1.356 . S
N1172 H1184 0.984 . S
N1172 H1185 0.985 . S
N1173 C1175 1.356 . S
N1173 H1178 0.984 . S
N1173 H1179 0.985 . S
C1174 C1168 1.379 . S
C1174 C1171 1.363 . S
C1174 N1172 1.356 . S
C1175 C1169 1.363 . S
C1175 C1170 1.379 . S
C1175 N1173 1.356 . S
N1176 C1168 1.356 . S
N1176 H1182 0.984 . S
N1176 H1183 0.984 . S
N1177 C1170 1.356 . S
N1177 H1180 0.984 . S
N1177 H1181 0.985 . S
H1178 N1173 0.984 . S
H1179 N1173 0.985 . S
H1180 N1177 0.984 . S
H1181 N1177 0.985 . S
H1182 N1176 0.984 . S
H1183 N1176 0.984 . S
H1184 N1172 0.984 . S
H1185 N1172 0.985 . S
C1186 C1187 1.363 . S
C1186 C1192 1.379 . S
C1186 N1194 1.356 . S
C1187 C1186 1.363 . S
C1187 C1193 1.363 . S
C1188 C1189 1.363 . S
C1188 C1193 1.379 . S
C1188 N1195 1.356 . S
C1189 C1188 1.363 . S
C1189 C1192 1.363 . S
N1190 C1192 1.356 . S
N1190 H1202 0.984 . S
N1190 H1203 0.985 . S
N1191 C1193 1.356 . S
N1191 H1196 0.984 . S
N1191 H1197 0.985 . S
C1192 C1186 1.379 . S
C1192 C1189 1.363 . S
C1192 N1190 1.356 . S
C1193 C1187 1.363 . S
C1193 C1188 1.379 . S
C1193 N1191 1.356 . S
N1194 C1186 1.356 . S
N1194 H1200 0.984 . S
N1194 H1201 0.984 . S
N1195 C1188 1.356 . S
N1195 H1198 0.984 . S
N1195 H1199 0.985 . S
H1196 N1191 0.984 . S
H1197 N1191 0.985 . S
H1198 N1195 0.984 . S
H1199 N1195 0.985 . S
H1200 N1194 0.984 . S
H1201 N1194 0.984 . S
H1202 N1190 0.984 . S
H1203 N1190 0.985 . S
C1204 C1205 1.363 . S
C1204 C1210 1.379 . S
C1204 N1212 1.356 . S
C1205 C1204 1.363 . S
C1205 C1211 1.363 . S
C1206 C1207 1.363 . S
C1206 C1211 1.379 . S
C1206 N1213 1.356 . S
C1207 C1206 1.363 . S
C1207 C1210 1.363 . S
N1208 C1210 1.356 . S
N1208 H1220 0.984 . S
N1208 H1221 0.985 . S
N1209 C1211 1.356 . S
N1209 H1214 0.984 . S
N1209 H1215 0.985 . S
C1210 C1204 1.379 . S
C1210 C1207 1.363 . S
C1210 N1208 1.356 . S
C1211 C1205 1.363 . S
C1211 C1206 1.379 . S
C1211 N1209 1.356 . S
N1212 C1204 1.356 . S
N1212 H1218 0.984 . S
N1212 H1219 0.984 . S
N1213 C1206 1.356 . S
N1213 H1216 0.984 . S
N1213 H1217 0.985 . S
H1214 N1209 0.984 . S
H1215 N1209 0.985 . S
H1216 N1213 0.984 . S
H1217 N1213 0.985 . S
H1218 N1212 0.984 . S
H1219 N1212 0.984 . S
H1220 N1208 0.984 . S
H1221 N1208 0.985 . S
C1222 C1223 1.363 . S
C1222 C1228 1.379 . S
C1222 N1230 1.356 . S
C1223 C1222 1.363 . S
C1223 C1229 1.363 . S
C1224 C1225 1.363 . S
C1224 C1229 1.379 . S
C1224 N1231 1.356 . S
C1225 C1224 1.363 . S
C1225 C1228 1.363 . S
N1226 C1228 1.356 . S
N1226 H1238 0.984 . S
N1226 H1239 0.985 . S
N1227 C1229 1.356 . S
N1227 H1232 0.984 . S
N1227 H1233 0.985 . S
C1228 C1222 1.379 . S
C1228 C1225 1.363 . S
C1228 N1226 1.356 . S
C1229 C1223 1.363 . S
C1229 C1224 1.379 . S
C1229 N1227 1.356 . S
N1230 C1222 1.356 . S
N1230 H1236 0.984 . S
N1230 H1237 0.984 . S
N1231 C1224 1.356 . S
N1231 H1234 0.984 . S
N1231 H1235 0.985 . S
H1232 N1227 0.984 . S
H1233 N1227 0.985 . S
H1234 N1231 0.984 . S
H1235 N1231 0.985 . S
H1236 N1230 0.984 . S
H1237 N1230 0.984 . S
H1238 N1226 0.984 . S
H1239 N1226 0.985 . S
C1240 C1241 1.363 . S
C1240 C1246 1.379 . S
C1240 N1248 1.356 . S
C1241 C1240 1.363 . S
C1241 C1247 1.363 . S
C1242 C1243 1.363 . S
C1242 C1247 1.379 . S
C1242 N1249 1.356 . S
C1243 C1242 1.363 . S
C1243 C1246 1.363 . S
N1244 C1246 1.356 . S
N1244 H1256 0.984 . S
N1244 H1257 0.985 . S
N1245 C1247 1.356 . S
N1245 H1250 0.984 . S
N1245 H1251 0.985 . S
C1246 C1240 1.379 . S
C1246 C1243 1.363 . S
C1246 N1244 1.356 . S
C1247 C1241 1.363 . S
C1247 C1242 1.379 . S
C1247 N1245 1.356 . S
N1248 C1240 1.356 . S
N1248 H1254 0.984 . S
N1248 H1255 0.984 . S
N1249 C1242 1.356 . S
N1249 H1252 0.984 . S
N1249 H1253 0.985 . S
H1250 N1245 0.984 . S
H1251 N1245 0.985 . S
H1252 N1249 0.984 . S
H1253 N1249 0.985 . S
H1254 N1248 0.984 . S
H1255 N1248 0.984 . S
H1256 N1244 0.984 . S
H1257 N1244 0.985 . S
C1258 C1259 1.363 . S
C1258 C1264 1.379 . S
C1258 N1266 1.356 . S
C1259 C1258 1.363 . S
C1259 C1265 1.363 . S
C1260 C1261 1.363 . S
C1260 C1265 1.379 . S
C1260 N1267 1.356 . S
C1261 C1260 1.363 . S
C1261 C1264 1.363 . S
N1262 C1264 1.356 . S
N1262 H1274 0.984 . S
N1262 H1275 0.985 . S
N1263 C1265 1.356 . S
N1263 H1268 0.984 . S
N1263 H1269 0.985 . S
C1264 C1258 1.379 . S
C1264 C1261 1.363 . S
C1264 N1262 1.356 . S
C1265 C1259 1.363 . S
C1265 C1260 1.379 . S
C1265 N1263 1.356 . S
N1266 C1258 1.356 . S
N1266 H1272 0.984 . S
N1266 H1273 0.984 . S
N1267 C1260 1.356 . S
N1267 H1270 0.984 . S
N1267 H1271 0.985 . S
H1268 N1263 0.984 . S
H1269 N1263 0.985 . S
H1270 N1267 0.984 . S
H1271 N1267 0.985 . S
H1272 N1266 0.984 . S
H1273 N1266 0.984 . S
H1274 N1262 0.984 . S
H1275 N1262 0.985 . S
C1276 C1277 1.363 . S
C1276 C1282 1.379 . S
C1276 N1284 1.356 . S
C1277 C1276 1.363 . S
C1277 C1283 1.363 . S
C1278 C1279 1.363 . S
C1278 C1283 1.379 . S
C1278 N1285 1.356 . S
C1279 C1278 1.363 . S
C1279 C1282 1.363 . S
N1280 C1282 1.356 . S
N1280 H1292 0.984 . S
N1280 H1293 0.985 . S
N1281 C1283 1.356 . S
N1281 H1286 0.984 . S
N1281 H1287 0.985 . S
C1282 C1276 1.379 . S
C1282 C1279 1.363 . S
C1282 N1280 1.356 . S
C1283 C1277 1.363 . S
C1283 C1278 1.379 . S
C1283 N1281 1.356 . S
N1284 C1276 1.356 . S
N1284 H1290 0.984 . S
N1284 H1291 0.984 . S
N1285 C1278 1.356 . S
N1285 H1288 0.984 . S
N1285 H1289 0.985 . S
H1286 N1281 0.984 . S
H1287 N1281 0.985 . S
H1288 N1285 0.984 . S
H1289 N1285 0.985 . S
H1290 N1284 0.984 . S
H1291 N1284 0.984 . S
H1292 N1280 0.984 . S
H1293 N1280 0.985 . S
C1294 C1295 1.363 . S
C1294 C1300 1.379 . S
C1294 N1302 1.356 . S
C1295 C1294 1.363 . S
C1295 C1301 1.363 . S
C1296 C1297 1.363 . S
C1296 C1301 1.379 . S
C1296 N1303 1.356 . S
C1297 C1296 1.363 . S
C1297 C1300 1.363 . S
N1298 C1300 1.356 . S
N1298 H1310 0.984 . S
N1298 H1311 0.985 . S
N1299 C1301 1.356 . S
N1299 H1304 0.984 . S
N1299 H1305 0.985 . S
C1300 C1294 1.379 . S
C1300 C1297 1.363 . S
C1300 N1298 1.356 . S
C1301 C1295 1.363 . S
C1301 C1296 1.379 . S
C1301 N1299 1.356 . S
N1302 C1294 1.356 . S
N1302 H1308 0.984 . S
N1302 H1309 0.984 . S
N1303 C1296 1.356 . S
N1303 H1306 0.984 . S
N1303 H1307 0.985 . S
H1304 N1299 0.984 . S
H1305 N1299 0.985 . S
H1306 N1303 0.984 . S
H1307 N1303 0.985 . S
H1308 N1302 0.984 . S
H1309 N1302 0.984 . S
H1310 N1298 0.984 . S
H1311 N1298 0.985 . S
C1312 C1313 1.363 . S
C1312 C1318 1.379 . S
C1312 N1320 1.356 . S
C1313 C1312 1.363 . S
C1313 C1319 1.363 . S
C1314 C1315 1.363 . S
C1314 C1319 1.379 . S
C1314 N1321 1.356 1_455 S
C1315 C1314 1.363 . S
C1315 C1318 1.363 . S
N1316 C1318 1.356 . S
N1316 H1328 0.984 . S
N1316 H1329 0.985 . S
N1317 C1319 1.356 1_655 S
N1317 H1322 0.984 . S
N1317 H1323 0.985 . S
C1318 C1312 1.379 . S
C1318 C1315 1.363 . S
C1318 N1316 1.356 . S
C1319 C1313 1.363 . S
C1319 C1314 1.379 . S
C1319 N1317 1.356 1_455 S
N1320 C1312 1.356 . S
N1320 H1326 0.984 . S
N1320 H1327 0.984 . S
N1321 C1314 1.356 1_655 S
N1321 H1324 0.984 . S
N1321 H1325 0.985 . S
H1322 N1317 0.984 . S
H1323 N1317 0.985 . S
H1324 N1321 0.984 . S
H1325 N1321 0.985 . S
H1326 N1320 0.984 . S
H1327 N1320 0.984 . S
H1328 N1316 0.984 . S
H1329 N1316 0.985 . S
C1330 C1331 1.363 . S
C1330 C1336 1.379 . S
C1330 N1338 1.356 . S
C1331 C1330 1.363 . S
C1331 C1337 1.363 . S
C1332 C1333 1.363 . S
C1332 C1337 1.379 . S
C1332 N1339 1.356 . S
C1333 C1332 1.363 . S
C1333 C1336 1.363 . S
N1334 C1336 1.356 . S
N1334 H1346 0.984 . S
N1334 H1347 0.985 . S
N1335 C1337 1.356 . S
N1335 H1340 0.984 . S
N1335 H1341 0.985 . S
C1336 C1330 1.379 . S
C1336 C1333 1.363 . S
C1336 N1334 1.356 . S
C1337 C1331 1.363 . S
C1337 C1332 1.379 . S
C1337 N1335 1.356 . S
N1338 C1330 1.356 . S
N1338 H1344 0.984 . S
N1338 H1345 0.984 . S
N1339 C1332 1.356 . S
N1339 H1342 0.984 . S
N1339 H1343 0.985 . S
H1340 N1335 0.984 . S
H1341 N1335 0.985 . S
H1342 N1339 0.984 . S
H1343 N1339 0.985 . S
H1344 N1338 0.984 . S
H1345 N1338 0.984 . S
H1346 N1334 0.984 . S
H1347 N1334 0.985 . S
C1348 C1349 1.363 . S
C1348 C1354 1.379 . S
C1348 N1356 1.356 . S
C1349 C1348 1.363 . S
C1349 C1355 1.363 . S
C1350 C1351 1.363 . S
C1350 C1355 1.379 . S
C1350 N1357 1.356 . S
C1351 C1350 1.363 . S
C1351 C1354 1.363 . S
N1352 C1354 1.356 . S
N1352 H1364 0.984 . S
N1352 H1365 0.985 . S
N1353 C1355 1.356 . S
N1353 H1358 0.984 . S
N1353 H1359 0.985 . S
C1354 C1348 1.379 . S
C1354 C1351 1.363 . S
C1354 N1352 1.356 . S
C1355 C1349 1.363 . S
C1355 C1350 1.379 . S
C1355 N1353 1.356 . S
N1356 C1348 1.356 . S
N1356 H1362 0.984 . S
N1356 H1363 0.984 . S
N1357 C1350 1.356 . S
N1357 H1360 0.984 . S
N1357 H1361 0.985 . S
H1358 N1353 0.984 . S
H1359 N1353 0.985 . S
H1360 N1357 0.984 . S
H1361 N1357 0.985 . S
H1362 N1356 0.984 . S
H1363 N1356 0.984 . S
H1364 N1352 0.984 . S
H1365 N1352 0.985 . S
C1366 C1367 1.363 . S
C1366 C1372 1.379 . S
C1366 N1374 1.356 . S
C1367 C1366 1.363 . S
C1367 C1373 1.363 1_556 S
C1368 C1369 1.363 . S
C1368 C1373 1.379 . S
C1368 N1375 1.356 . S
C1369 C1368 1.363 . S
C1369 C1372 1.363 1_554 S
N1370 C1372 1.356 . S
N1370 H1382 0.984 . S
N1370 H1383 0.985 . S
N1371 C1373 1.356 . S
N1371 H1376 0.984 . S
N1371 H1377 0.985 . S
C1372 C1366 1.379 . S
C1372 C1369 1.363 1_556 S
C1372 N1370 1.356 . S
C1373 C1367 1.363 1_554 S
C1373 C1368 1.379 . S
C1373 N1371 1.356 . S
N1374 C1366 1.356 . S
N1374 H1380 0.984 . S
N1374 H1381 0.984 . S
N1375 C1368 1.356 . S
N1375 H1378 0.984 . S
N1375 H1379 0.985 . S
H1376 N1371 0.984 . S
H1377 N1371 0.985 . S
H1378 N1375 0.984 . S
H1379 N1375 0.985 . S
H1380 N1374 0.984 . S
H1381 N1374 0.984 . S
H1382 N1370 0.984 . S
H1383 N1370 0.985 . S
C1384 C1385 1.363 . S
C1384 C1390 1.379 . S
C1384 N1392 1.356 . S
C1385 C1384 1.363 . S
C1385 C1391 1.363 . S
C1386 C1387 1.363 . S
C1386 C1391 1.379 . S
C1386 N1393 1.356 . S
C1387 C1386 1.363 . S
C1387 C1390 1.363 . S
N1388 C1390 1.356 . S
N1388 H1400 0.984 1_655 S
N1388 H1401 0.985 . S
N1389 C1391 1.356 . S
N1389 H1394 0.984 . S
N1389 H1395 0.985 . S
C1390 C1384 1.379 . S
C1390 C1387 1.363 . S
C1390 N1388 1.356 . S
C1391 C1385 1.363 . S
C1391 C1386 1.379 . S
C1391 N1389 1.356 . S
N1392 C1384 1.356 . S
N1392 H1398 0.984 1_655 S
N1392 H1399 0.984 . S
N1393 C1386 1.356 . S
N1393 H1396 0.984 . S
N1393 H1397 0.985 . S
H1394 N1389 0.984 . S
H1395 N1389 0.985 . S
H1396 N1393 0.984 . S
H1397 N1393 0.985 . S
H1398 N1392 0.984 1_455 S
H1399 N1392 0.984 . S
H1400 N1388 0.984 1_455 S
H1401 N1388 0.985 . S
C1402 C1403 1.363 . S
C1402 C1408 1.379 . S
C1402 N1410 1.356 . S
C1403 C1402 1.363 . S
C1403 C1409 1.363 . S
C1404 C1405 1.363 . S
C1404 C1409 1.379 . S
C1404 N1411 1.356 . S
C1405 C1404 1.363 . S
C1405 C1408 1.363 . S
N1406 C1408 1.356 . S
N1406 H1418 0.984 . S
N1406 H1419 0.985 . S
N1407 C1409 1.356 . S
N1407 H1412 0.984 . S
N1407 H1413 0.985 . S
C1408 C1402 1.379 . S
C1408 C1405 1.363 . S
C1408 N1406 1.356 . S
C1409 C1403 1.363 . S
C1409 C1404 1.379 . S
C1409 N1407 1.356 . S
N1410 C1402 1.356 . S
N1410 H1416 0.984 . S
N1410 H1417 0.984 . S
N1411 C1404 1.356 . S
N1411 H1414 0.984 . S
N1411 H1415 0.985 . S
H1412 N1407 0.984 . S
H1413 N1407 0.985 . S
H1414 N1411 0.984 . S
H1415 N1411 0.985 . S
H1416 N1410 0.984 . S
H1417 N1410 0.984 . S
H1418 N1406 0.984 . S
H1419 N1406 0.985 . S
C1420 C1421 1.363 . S
C1420 C1426 1.379 . S
C1420 N1428 1.356 . S
C1421 C1420 1.363 . S
C1421 C1427 1.363 . S
C1422 C1423 1.363 . S
C1422 C1427 1.379 . S
C1422 N1429 1.356 . S
C1423 C1422 1.363 . S
C1423 C1426 1.363 . S
N1424 C1426 1.356 . S
N1424 H1436 0.984 . S
N1424 H1437 0.985 . S
N1425 C1427 1.356 . S
N1425 H1430 0.984 . S
N1425 H1431 0.985 . S
C1426 C1420 1.379 . S
C1426 C1423 1.363 . S
C1426 N1424 1.356 . S
C1427 C1421 1.363 . S
C1427 C1422 1.379 . S
C1427 N1425 1.356 . S
N1428 C1420 1.356 . S
N1428 H1434 0.984 . S
N1428 H1435 0.984 . S
N1429 C1422 1.356 . S
N1429 H1432 0.984 . S
N1429 H1433 0.985 . S
H1430 N1425 0.984 . S
H1431 N1425 0.985 . S
H1432 N1429 0.984 . S
H1433 N1429 0.985 . S
H1434 N1428 0.984 . S
H1435 N1428 0.984 . S
H1436 N1424 0.984 . S
H1437 N1424 0.985 . S
C1438 C1439 1.363 1_556 S
C1438 C1444 1.379 . S
C1438 N1446 1.356 . S
C1439 C1438 1.363 1_554 S
C1439 C1445 1.363 . S
C1440 C1441 1.363 1_554 S
C1440 C1445 1.379 . S
C1440 N1447 1.356 . S
C1441 C1440 1.363 1_556 S
C1441 C1444 1.363 . S
N1442 C1444 1.356 . S
N1442 H1454 0.984 . S
N1442 H1455 0.985 . S
N1443 C1445 1.356 . S
N1443 H1448 0.984 . S
N1443 H1449 0.985 . S
C1444 C1438 1.379 . S
C1444 C1441 1.363 . S
C1444 N1442 1.356 . S
C1445 C1439 1.363 . S
C1445 C1440 1.379 . S
C1445 N1443 1.356 . S
N1446 C1438 1.356 . S
N1446 H1452 0.984 . S
N1446 H1453 0.984 . S
N1447 C1440 1.356 . S
N1447 H1450 0.984 . S
N1447 H1451 0.985 . S
H1448 N1443 0.984 . S
H1449 N1443 0.985 . S
H1450 N1447 0.984 . S
H1451 N1447 0.985 . S
H1452 N1446 0.984 . S
H1453 N1446 0.984 . S
H1454 N1442 0.984 . S
H1455 N1442 0.985 . S
C1456 C1457 1.363 . S
C1456 C1462 1.379 1_565 S
C1456 N1464 1.356 . S
C1457 C1456 1.363 . S
C1457 C1463 1.363 . S
C1458 C1459 1.363 . S
C1458 C1463 1.379 1_545 S
C1458 N1465 1.356 . S
C1459 C1458 1.363 . S
C1459 C1462 1.363 . S
N1460 C1462 1.356 . S
N1460 H1472 0.984 . S
N1460 H1473 0.985 . S
N1461 C1463 1.356 . S
N1461 H1466 0.984 . S
N1461 H1467 0.985 . S
C1462 C1456 1.379 1_545 S
C1462 C1459 1.363 . S
C1462 N1460 1.356 . S
C1463 C1457 1.363 . S
C1463 C1458 1.379 1_565 S
C1463 N1461 1.356 . S
N1464 C1456 1.356 . S
N1464 H1470 0.984 . S
N1464 H1471 0.984 . S
N1465 C1458 1.356 . S
N1465 H1468 0.984 . S
N1465 H1469 0.985 . S
H1466 N1461 0.984 . S
H1467 N1461 0.985 . S
H1468 N1465 0.984 . S
H1469 N1465 0.985 . S
H1470 N1464 0.984 . S
H1471 N1464 0.984 . S
H1472 N1460 0.984 . S
H1473 N1460 0.985 . S
C1474 C1475 1.363 . S
C1474 C1480 1.379 . S
C1474 N1482 1.356 . S
C1475 C1474 1.363 . S
C1475 C1481 1.363 1_554 S
C1476 C1477 1.363 . S
C1476 C1481 1.379 . S
C1476 N1483 1.356 . S
C1477 C1476 1.363 . S
C1477 C1480 1.363 1_556 S
N1478 C1480 1.356 . S
N1478 H1490 0.984 . S
N1478 H1491 0.985 . S
N1479 C1481 1.356 . S
N1479 H1484 0.984 . S
N1479 H1485 0.985 . S
C1480 C1474 1.379 . S
C1480 C1477 1.363 1_554 S
C1480 N1478 1.356 . S
C1481 C1475 1.363 1_556 S
C1481 C1476 1.379 . S
C1481 N1479 1.356 . S
N1482 C1474 1.356 . S
N1482 H1488 0.984 . S
N1482 H1489 0.984 . S
N1483 C1476 1.356 . S
N1483 H1486 0.984 . S
N1483 H1487 0.985 . S
H1484 N1479 0.984 . S
H1485 N1479 0.985 . S
H1486 N1483 0.984 . S
H1487 N1483 0.985 . S
H1488 N1482 0.984 . S
H1489 N1482 0.984 . S
H1490 N1478 0.984 . S
H1491 N1478 0.985 . S
C1492 C1493 1.363 . S
C1492 C1498 1.379 1_545 S
C1492 N1500 1.356 . S
C1493 C1492 1.363 . S
C1493 C1499 1.363 . S
C1494 C1495 1.363 . S
C1494 C1499 1.379 1_565 S
C1494 N1501 1.356 1_655 S
C1495 C1494 1.363 . S
C1495 C1498 1.363 . S
N1496 C1498 1.356 . S
N1496 H1508 0.984 . S
N1496 H1509 0.985 . S
N1497 C1499 1.356 1_455 S
N1497 H1502 0.984 1_455 S
N1497 H1503 0.985 . S
C1498 C1492 1.379 1_565 S
C1498 C1495 1.363 . S
C1498 N1496 1.356 . S
C1499 C1493 1.363 . S
C1499 C1494 1.379 1_545 S
C1499 N1497 1.356 1_655 S
N1500 C1492 1.356 . S
N1500 H1506 0.984 . S
N1500 H1507 0.984 . S
N1501 C1494 1.356 1_455 S
N1501 H1504 0.984 1_455 S
N1501 H1505 0.985 . S
H1502 N1497 0.984 1_655 S
H1503 N1497 0.985 . S
H1504 N1501 0.984 1_655 S
H1505 N1501 0.985 . S
H1506 N1500 0.984 . S
H1507 N1500 0.984 . S
H1508 N1496 0.984 . S
H1509 N1496 0.985 . S
C1510 C1511 1.363 . S
C1510 C1516 1.379 . S
C1510 N1518 1.356 . S
C1511 C1510 1.363 . S
C1511 C1517 1.363 . S
C1512 C1513 1.363 . S
C1512 C1517 1.379 . S
C1512 N1519 1.356 . S
C1513 C1512 1.363 . S
C1513 C1516 1.363 . S
N1514 C1516 1.356 . S
N1514 H1526 0.984 . S
N1514 H1527 0.985 . S
N1515 C1517 1.356 . S
N1515 H1520 0.984 . S
N1515 H1521 0.985 . S
C1516 C1510 1.379 . S
C1516 C1513 1.363 . S
C1516 N1514 1.356 . S
C1517 C1511 1.363 . S
C1517 C1512 1.379 . S
C1517 N1515 1.356 . S
N1518 C1510 1.356 . S
N1518 H1524 0.984 . S
N1518 H1525 0.984 . S
N1519 C1512 1.356 . S
N1519 H1522 0.984 . S
N1519 H1523 0.985 . S
H1520 N1515 0.984 . S
H1521 N1515 0.985 . S
H1522 N1519 0.984 . S
H1523 N1519 0.985 . S
H1524 N1518 0.984 . S
H1525 N1518 0.984 . S
H1526 N1514 0.984 . S
H1527 N1514 0.985 . S
C1528 C1529 1.363 . S
C1528 C1534 1.379 1_545 S
C1528 N1536 1.356 . S
C1529 C1528 1.363 . S
C1529 C1535 1.363 . S
C1530 C1531 1.363 . S
C1530 C1535 1.379 1_565 S
C1530 N1537 1.356 . S
C1531 C1530 1.363 . S
C1531 C1534 1.363 . S
N1532 C1534 1.356 . S
N1532 H1544 0.984 . S
N1532 H1545 0.985 . S
N1533 C1535 1.356 . S
N1533 H1538 0.984 . S
N1533 H1539 0.985 . S
C1534 C1528 1.379 1_565 S
C1534 C1531 1.363 . S
C1534 N1532 1.356 . S
C1535 C1529 1.363 . S
C1535 C1530 1.379 1_545 S
C1535 N1533 1.356 . S
N1536 C1528 1.356 . S
N1536 H1542 0.984 . S
N1536 H1543 0.984 . S
N1537 C1530 1.356 . S
N1537 H1540 0.984 . S
N1537 H1541 0.985 . S
H1538 N1533 0.984 . S
H1539 N1533 0.985 . S
H1540 N1537 0.984 . S
H1541 N1537 0.985 . S
H1542 N1536 0.984 . S
H1543 N1536 0.984 . S
H1544 N1532 0.984 . S
H1545 N1532 0.985 . S
C1546 C1547 1.363 . S
C1546 C1552 1.379 . S
C1546 N1554 1.356 . S
C1547 C1546 1.363 . S
C1547 C1553 1.363 1_554 S
C1548 C1549 1.363 . S
C1548 C1553 1.379 . S
C1548 N1555 1.356 . S
C1549 C1548 1.363 . S
C1549 C1552 1.363 1_556 S
N1550 C1552 1.356 . S
N1550 H1562 0.984 . S
N1550 H1563 0.985 . S
N1551 C1553 1.356 . S
N1551 H1556 0.984 . S
N1551 H1557 0.985 . S
C1552 C1546 1.379 . S
C1552 C1549 1.363 1_554 S
C1552 N1550 1.356 . S
C1553 C1547 1.363 1_556 S
C1553 C1548 1.379 . S
C1553 N1551 1.356 . S
N1554 C1546 1.356 . S
N1554 H1560 0.984 . S
N1554 H1561 0.984 . S
N1555 C1548 1.356 . S
N1555 H1558 0.984 . S
N1555 H1559 0.985 . S
H1556 N1551 0.984 . S
H1557 N1551 0.985 . S
H1558 N1555 0.984 . S
H1559 N1555 0.985 . S
H1560 N1554 0.984 . S
H1561 N1554 0.984 . S
H1562 N1550 0.984 . S
H1563 N1550 0.985 . S
C1564 C1565 1.363 . S
C1564 C1570 1.379 1_545 S
C1564 N1572 1.356 . S
C1565 C1564 1.363 . S
C1565 C1571 1.363 . S
C1566 C1567 1.363 . S
C1566 C1571 1.379 1_565 S
C1566 N1573 1.356 1_455 S
C1567 C1566 1.363 . S
C1567 C1570 1.363 . S
N1568 C1570 1.356 . S
N1568 H1580 0.984 . S
N1568 H1581 0.985 . S
N1569 C1571 1.356 1_655 S
N1569 H1574 0.984 . S
N1569 H1575 0.985 . S
C1570 C1564 1.379 1_565 S
C1570 C1567 1.363 . S
C1570 N1568 1.356 . S
C1571 C1565 1.363 . S
C1571 C1566 1.379 1_545 S
C1571 N1569 1.356 1_455 S
N1572 C1564 1.356 . S
N1572 H1578 0.984 . S
N1572 H1579 0.984 . S
N1573 C1566 1.356 1_655 S
N1573 H1576 0.984 . S
N1573 H1577 0.985 . S
H1574 N1569 0.984 . S
H1575 N1569 0.985 . S
H1576 N1573 0.984 . S
H1577 N1573 0.985 . S
H1578 N1572 0.984 . S
H1579 N1572 0.984 . S
H1580 N1568 0.984 . S
H1581 N1568 0.985 . S
C1582 C1583 1.363 . S
C1582 C1588 1.379 . S
C1582 N1590 1.356 . S
C1583 C1582 1.363 . S
C1583 C1589 1.363 . S
C1584 C1585 1.363 . S
C1584 C1589 1.379 . S
C1584 N1591 1.356 . S
C1585 C1584 1.363 . S
C1585 C1588 1.363 . S
N1586 C1588 1.356 . S
N1586 H1598 0.984 . S
N1586 H1599 0.985 . S
N1587 C1589 1.356 . S
N1587 H1592 0.984 . S
N1587 H1593 0.985 . S
C1588 C1582 1.379 . S
C1588 C1585 1.363 . S
C1588 N1586 1.356 . S
C1589 C1583 1.363 . S
C1589 C1584 1.379 . S
C1589 N1587 1.356 . S
N1590 C1582 1.356 . S
N1590 H1596 0.984 . S
N1590 H1597 0.984 . S
N1591 C1584 1.356 . S
N1591 H1594 0.984 . S
N1591 H1595 0.985 . S
H1592 N1587 0.984 . S
H1593 N1587 0.985 . S
H1594 N1591 0.984 . S
H1595 N1591 0.985 . S
H1596 N1590 0.984 . S
H1597 N1590 0.984 . S
H1598 N1586 0.984 . S
H1599 N1586 0.985 . S
C449 C12 1.580 . S
C451 C306 1.580 . S
C467 C320 1.580 . S
C469 C26 1.580 . S
C485 C40 1.580 . S
C487 C334 1.580 . S
C503 C292 1.580 . S
C505 C54 1.580 . S
C521 C68 1.580 . S
C523 C278 1.580 . S
C539 C82 1.580 . S
C541 C236 1.580 . S
C557 C250 1.580 . S
C559 C96 1.580 . S
C575 C110 1.580 . S
C577 C264 1.580 . S
C593 C124 1.580 . S
C595 C418 1.580 . S
C611 C138 1.580 . S
C613 C432 1.580 . S
C629 C446 1.580 . S
C631 C152 1.580 . S
C647 C404 1.580 . S
C649 C166 1.580 . S
C665 C180 1.580 . S
C667 C390 1.580 . S
C683 C348 1.580 . S
C685 C194 1.580 . S
C701 C208 1.580 . S
C703 C362 1.580 . S
C719 C376 1.580 . S
C721 C222 1.580 . S
C737 C4 1.194 . S
C739 C131 1.138 . S
C755 C18 1.194 . S
C757 C369 1.138 . S
C773 C159 1.138 . S
C775 C32 1.194 . S
C791 C46 1.194 . S
C793 C341 1.138 . S
C809 C60 1.194 . S
C811 C215 1.138 . S
C827 C397 1.138 . S
C829 C74 1.194 . S
C845 C187 1.138 . S
C847 C88 1.194 . S
C863 C425 1.138 . S
C865 C102 1.194 . S
C881 C116 1.194 . S
C883 C19 1.138 . S
C899 C257 1.138 . S
C901 C130 1.194 . S
C917 C47 1.138 . S
C919 C144 1.194 . S
C935 C158 1.194 . S
C937 C229 1.138 . S
C953 C103 1.138 . S
C955 C172 1.194 . S
C971 C285 1.138 . S
C973 C186 1.194 . S
C989 C75 1.138 . S
C991 C200 1.194 . S
C1007 C214 1.194 . S
C1009 C313 1.138 . S
C1025 C355 1.138 . S
C1027 C228 1.194 . S
C1043 C145 1.138 . S
C1045 C242 1.194 . S
C1061 C383 1.138 . S
C1063 C256 1.194 . S
C1079 C270 1.194 . S
C1081 C117 1.138 . S
C1097 C439 1.138 . S
C1099 C284 1.194 . S
C1115 C173 1.138 . S
C1117 C298 1.194 . S
C1133 C411 1.138 . S
C1135 C312 1.194 . S
C1151 C326 1.194 . S
C1153 C201 1.138 . S
C1169 C340 1.194 . S
C1171 C243 1.138 . S
C1187 C33 1.138 . S
C1189 C354 1.194 . S
C1205 C368 1.194 . S
C1207 C271 1.138 . S
C1223 C382 1.194 . S
C1225 C5 1.138 . S
C1241 C396 1.194 . S
C1243 C327 1.138 . S
C1259 C61 1.138 . S
C1261 C410 1.194 . S
C1277 C299 1.138 . S
C1279 C424 1.194 . S
C1295 C438 1.194 . S
C1297 C89 1.138 . S
C1313 C11 1.262 . S
C1315 C67 1.262 . S
C1331 C25 1.262 . S
C1333 C81 1.262 . S
C1349 C95 1.262 . S
C1351 C39 1.262 . S
C1367 C109 1.262 . S
C1369 C53 1.262 . S
C1385 C179 1.262 . S
C1387 C123 1.262 . S
C1403 C193 1.262 . S
C1405 C137 1.262 . S
C1421 C207 1.262 . S
C1423 C151 1.262 . S
C1439 C221 1.262 . S
C1441 C165 1.262 . S
C1457 C235 1.262 . S
C1459 C291 1.262 . S
C1475 C249 1.262 . S
C1477 C305 1.262 . S
C1493 C263 1.262 . S
C1495 C319 1.262 . S
C1511 C333 1.262 . S
C1513 C277 1.262 . S
C1529 C347 1.262 . S
C1531 C403 1.262 . S
C1547 C417 1.262 . S
C1549 C361 1.262 . S
C1565 C431 1.262 . S
C1567 C375 1.262 . S
C1583 C445 1.262 . S
C1585 C389 1.262 . S
