# Generated by pormake.
# Topology hjm, (4)-cn, num edge types: 1
# Building blocks:
#     Node 0, Type 0, BuildingBlock: KUFVIS_clean_sbu_0, # of connection points: 4
#     Node 1, Type 0, BuildingBlock: KUFVIS_clean_sbu_0, # of connection points: 4
#     Node 2, Type 0, BuildingBlock: KUFVIS_clean_sbu_0, # of connection points: 4
#     Node 3, Type 0, BuildingBlock: KUFVIS_clean_sbu_0, # of connection points: 4
#     Node 4, Type 0, BuildingBlock: KUFVIS_clean_sbu_0, # of connection points: 4
#     Node 5, Type 0, BuildingBlock: KUFVIS_clean_sbu_0, # of connection points: 4
#     Node 6, Type 0, BuildingBlock: KUFVIS_clean_sbu_0, # of connection points: 4
#     Node 7, Type 0, BuildingBlock: KUFVIS_clean_sbu_0, # of connection points: 4
#     Edge 8, Type (0, 0), BuildingBlock: KIFKEQ_clean_linker_1, # of connection points: 2
#     Edge 9, Type (0, 0), BuildingBlock: KIFKEQ_clean_linker_1, # of connection points: 2
#     Edge 10, Type (0, 0), BuildingBlock: KIFKEQ_clean_linker_1, # of connection points: 2
#     Edge 11, Type (0, 0), BuildingBlock: KIFKEQ_clean_linker_1, # of connection points: 2
#     Edge 12, Type (0, 0), BuildingBlock: KIFKEQ_clean_linker_1, # of connection points: 2
#     Edge 13, Type (0, 0), BuildingBlock: KIFKEQ_clean_linker_1, # of connection points: 2
#     Edge 14, Type (0, 0), BuildingBlock: KIFKEQ_clean_linker_1, # of connection points: 2
#     Edge 15, Type (0, 0), BuildingBlock: KIFKEQ_clean_linker_1, # of connection points: 2
#     Edge 16, Type (0, 0), BuildingBlock: KIFKEQ_clean_linker_1, # of connection points: 2
#     Edge 17, Type (0, 0), BuildingBlock: KIFKEQ_clean_linker_1, # of connection points: 2
#     Edge 18, Type (0, 0), BuildingBlock: KIFKEQ_clean_linker_1, # of connection points: 2
#     Edge 19, Type (0, 0), BuildingBlock: KIFKEQ_clean_linker_1, # of connection points: 2
#     Edge 20, Type (0, 0), BuildingBlock: KIFKEQ_clean_linker_1, # of connection points: 2
#     Edge 21, Type (0, 0), BuildingBlock: KIFKEQ_clean_linker_1, # of connection points: 2
#     Edge 22, Type (0, 0), BuildingBlock: KIFKEQ_clean_linker_1, # of connection points: 2
#     Edge 23, Type (0, 0), BuildingBlock: KIFKEQ_clean_linker_1, # of connection points: 2
# Relax obj value: 0.063
# Max RMSD: 0.109
# Mean RMSD: 0.108
data_MOF--net-hjm--node1-KUFVIS_clean_sbu_0--edge1-KIFKEQ_clean_linker_1
_symmetry_space_group_name_H-M    P1
_symmetry_Int_Tables_number       1
_symmetry_cell_setting            triclinic
loop_
_symmetry_equiv_pos_as_xyz
'x, y, z'
_cell_length_a     26.738561
_cell_length_b     23.200063
_cell_length_c     26.03611
_cell_angle_alpha  90.034741
_cell_angle_beta   57.531634
_cell_angle_gamma 89.999111
loop_
_atom_site_label
_atom_site_type_symbol
_atom_site_fract_x
_atom_site_fract_y
_atom_site_fract_z
_atom_type_partial_charge
Mn0 Mn 0.20284 0.23221 0.31731 0.0
Mn1 Mn 0.23407 0.36944 0.2642 0.0
C2 C 0.15374 0.31018 0.38093 0.0
C3 C 0.15149 0.14413 0.34472 0.0
C4 C 0.31524 0.29905 0.28651 0.0
O5 O 0.23991 0.2205 0.2258 0.0
O6 O 0.26076 0.31389 0.19727 0.0
C7 C 0.15724 0.38028 0.21488 0.0
N8 N 0.17395 0.39921 0.25304 0.0
C9 C 0.11479 0.48495 0.27707 0.0
C10 C 0.09767 0.46681 0.23732 0.0
C11 C 0.1183 0.41387 0.20676 0.0
C12 C 0.15332 0.44948 0.28366 0.0
H13 H 0.17435 0.34043 0.18996 0.0
C14 C 0.26121 0.26031 0.18539 0.0
O15 O 0.20519 0.14861 0.3321 0.0
O16 O 0.12806 0.19054 0.33825 0.0
N17 N 0.20975 0.42796 0.32483 0.0
C18 C 0.2303 0.43892 0.36173 0.0
C19 C 0.21132 0.4888 0.39803 0.0
C20 C 0.17278 0.52758 0.3947 0.0
C21 C 0.15304 0.51576 0.3556 0.0
C22 C 0.17223 0.46468 0.32175 0.0
H23 H 0.26093 0.4098 0.36338 0.0
O24 O 0.15988 0.26242 0.40309 0.0
O25 O 0.17839 0.31198 0.32249 0.0
O26 O 0.28383 0.25355 0.30309 0.0
O27 O 0.29958 0.34544 0.27297 0.0
C28 C 0.11537 0.5528 0.34858 0.0
C29 C 0.09599 0.53729 0.30959 0.0
H30 H 0.06928 0.49348 0.22935 0.0
H31 H 0.10516 0.39959 0.17609 0.0
H32 H 0.22693 0.4977 0.42792 0.0
H33 H 0.15873 0.56631 0.42227 0.0
H34 H 0.10049 0.59306 0.37349 0.0
H35 H 0.06654 0.56587 0.30508 0.0
Mn36 Mn 0.82864 0.22348 0.20569 0.0
Mn37 Mn 0.80115 0.36154 0.25685 0.0
C38 C 0.88091 0.30017 0.14141 0.0
C39 C 0.87695 0.13361 0.17936 0.0
C40 C 0.71894 0.29403 0.23387 0.0
O41 O 0.79016 0.2126 0.29758 0.0
O42 O 0.77142 0.30653 0.3245 0.0
C43 C 0.87633 0.36882 0.30834 0.0
N44 N 0.86122 0.38887 0.26928 0.0
C45 C 0.92313 0.47245 0.24553 0.0
C46 C 0.93871 0.45307 0.28613 0.0
C47 C 0.91584 0.40067 0.31705 0.0
C48 C 0.88398 0.43862 0.23833 0.0
H49 H 0.85755 0.32939 0.33349 0.0
C50 C 0.76917 0.25303 0.33738 0.0
O51 O 0.82371 0.14024 0.19123 0.0
O52 O 0.90154 0.17885 0.18631 0.0
N53 N 0.82844 0.41971 0.19555 0.0
C54 C 0.80909 0.43202 0.15788 0.0
C55 C 0.83009 0.48166 0.12138 0.0
C56 C 0.86937 0.51889 0.1253 0.0
C57 C 0.8878 0.50577 0.16523 0.0
C58 C 0.8666 0.45498 0.19928 0.0
H59 H 0.77786 0.40414 0.1558 0.0
O60 O 0.87359 0.25283 0.11952 0.0
O61 O 0.85558 0.30247 0.19991 0.0
O62 O 0.7488 0.24756 0.21864 0.0
O63 O 0.73587 0.34004 0.24666 0.0
C64 C 0.92605 0.54126 0.17293 0.0
C65 C 0.94403 0.52446 0.21275 0.0
H66 H 0.96753 0.47838 0.2946 0.0
H67 H 0.92771 0.3855 0.34844 0.0
H68 H 0.81544 0.49159 0.09088 0.0
H69 H 0.88497 0.55746 0.09757 0.0
H70 H 0.94249 0.58129 0.14788 0.0
H71 H 0.97399 0.55182 0.21774 0.0
Mn72 Mn 0.81744 0.73349 0.69628 0.0
Mn73 Mn 0.94112 0.72429 0.70091 0.0
C74 C 0.81643 0.76297 0.78257 0.0
C75 C 0.72832 0.69694 0.71179 0.0
C76 C 0.92659 0.80869 0.62024 0.0
O77 O 0.8682 0.67296 0.63115 0.0
O78 O 0.9413 0.6604 0.65001 0.0
C79 C 0.93491 0.61362 0.76067 0.0
N80 N 0.93597 0.67226 0.7606 0.0
C81 C 0.94995 0.67338 0.84461 0.0
C82 C 0.94788 0.61303 0.84615 0.0
C83 C 0.94019 0.58303 0.80404 0.0
C84 C 0.94393 0.70151 0.80063 0.0
H85 H 0.93131 0.59043 0.72715 0.0
C86 C 0.91318 0.6459 0.62455 0.0
O87 O 0.75843 0.73673 0.67207 0.0
O88 O 0.75073 0.67676 0.74176 0.0
N89 N 0.94177 0.78407 0.75134 0.0
C90 C 0.9401 0.84232 0.74564 0.0
C91 C 0.94323 0.87866 0.78696 0.0
C92 C 0.94912 0.85481 0.833 0.0
C93 C 0.95101 0.79479 0.83775 0.0
C94 C 0.94584 0.76073 0.79646 0.0
H95 H 0.93621 0.86099 0.71002 0.0
O96 O 0.7785 0.78437 0.77105 0.0
O97 O 0.85461 0.7274 0.74238 0.0
O98 O 0.87198 0.79906 0.64187 0.0
O99 O 0.95611 0.78039 0.63712 0.0
C100 C 0.95845 0.76743 0.88143 0.0
C101 C 0.95843 0.70672 0.88454 0.0
H102 H 0.95263 0.5893 0.87912 0.0
H103 H 0.9394 0.53639 0.80431 0.0
H104 H 0.9419 0.92496 0.78285 0.0
H105 H 0.95257 0.88296 0.86417 0.0
H106 H 0.96401 0.79269 0.91304 0.0
H107 H 0.96413 0.68616 0.91842 0.0
Mn108 Mn 0.22055 0.72421 0.83322 0.0
Mn109 Mn 0.0988 0.7138 0.82553 0.0
C110 C 0.22289 0.75598 0.74722 0.0
C111 C 0.30963 0.689 0.81878 0.0
C112 C 0.10927 0.7959 0.91047 0.0
O113 O 0.16994 0.66198 0.89638 0.0
O114 O 0.0994 0.64819 0.87404 0.0
C115 C 0.11023 0.60552 0.75982 0.0
N116 N 0.10681 0.66406 0.76287 0.0
C117 C 0.09554 0.668 0.67717 0.0
C118 C 0.09964 0.6078 0.67283 0.0
C119 C 0.10718 0.57643 0.71428 0.0
C120 C 0.09899 0.6946 0.72348 0.0
H121 H 0.11423 0.58124 0.79246 0.0
C122 C 0.1266 0.63376 0.90048 0.0
O123 O 0.27797 0.7276 0.85948 0.0
O124 O 0.28863 0.66898 0.78741 0.0
N125 N 0.09766 0.77537 0.77709 0.0
C126 C 0.09827 0.83338 0.78501 0.0
C127 C 0.0959 0.87112 0.74421 0.0
C128 C 0.09201 0.84888 0.69629 0.0
C129 C 0.09145 0.78907 0.68907 0.0
C130 C 0.09542 0.75361 0.73022 0.0
H131 H 0.10069 0.85077 0.82204 0.0
O132 O 0.2598 0.77702 0.76035 0.0
O133 O 0.18516 0.7189 0.7855 0.0
O134 O 0.16436 0.78861 0.88787 0.0
O135 O 0.08055 0.76709 0.89295 0.0
C136 C 0.08715 0.76322 0.64265 0.0
C137 C 0.08824 0.70268 0.63731 0.0
H138 H 0.09695 0.58523 0.63795 0.0
H139 H 0.10983 0.52987 0.71165 0.0
H140 H 0.09634 0.91724 0.75013 0.0
H141 H 0.08935 0.8781 0.6654 0.0
H142 H 0.08342 0.78943 0.61052 0.0
H143 H 0.08476 0.68329 0.60149 0.0
Mn144 Mn 0.70351 0.80436 0.32702 0.0
Mn145 Mn 0.74449 0.92601 0.24164 0.0
C146 C 0.66329 0.89255 0.37148 0.0
C147 C 0.64638 0.72206 0.37392 0.0
C148 C 0.82327 0.86434 0.27471 0.0
O149 O 0.73708 0.77364 0.24062 0.0
O150 O 0.75539 0.85849 0.19022 0.0
C151 C 0.65582 0.93134 0.20675 0.0
N152 N 0.68148 0.95541 0.23481 0.0
C153 C 0.62369 0.04193 0.25689 0.0
C154 C 0.59719 0.01821 0.22764 0.0
C155 C 0.61299 0.96253 0.20285 0.0
C156 C 0.66646 1.00897 0.25892 0.0
H157 H 0.66845 0.88901 0.18685 0.0
C158 C 0.75233 0.80336 0.19291 0.0
O159 O 0.70043 0.72704 0.36002 0.0
O160 O 0.62554 0.76415 0.35769 0.0
N161 N 0.73414 0.9943 0.28775 0.0
C162 C 0.76354 1.01083 0.31485 0.0
C163 C 0.75102 0.06465 0.34394 0.0
C164 C 0.70898 0.10114 0.34423 0.0
C165 C 0.68021 0.08379 0.31497 0.0
C166 C 0.69427 0.02953 0.28702 0.0
H167 H 0.79604 0.98307 0.31463 0.0
O168 O 0.66507 0.85093 0.40385 0.0
O169 O 0.68613 0.88191 0.31424 0.0
O170 O 0.78532 0.82657 0.30812 0.0
O171 O 0.81378 0.90189 0.24518 0.0
C172 C 0.63751 0.11783 0.31322 0.0
C173 C 0.60921 0.09686 0.28427 0.0
H174 H 0.56505 0.04248 0.22349 0.0
H175 H 0.59263 0.94396 0.18026 0.0
H176 H 0.77359 0.07791 0.36622 0.0
H177 H 0.69874 0.1422 0.36749 0.0
H178 H 0.62583 0.16004 0.33433 0.0
H179 H 0.57598 0.12311 0.28378 0.0
Mn180 Mn 0.33131 0.80834 0.2033 0.0
Mn181 Mn 0.29062 0.93362 0.28243 0.0
C182 C 0.36962 0.89519 0.15367 0.0
C183 C 0.38943 0.7255 0.16064 0.0
C184 C 0.20977 0.86351 0.25816 0.0
O185 O 0.29928 0.78309 0.29143 0.0
O186 O 0.28773 0.87076 0.33543 0.0
C187 C 0.38457 0.9544 0.30815 0.0
N188 N 0.3546 0.97137 0.28189 0.0
C189 C 0.4055 0.06261 0.25321 0.0
C190 C 0.43635 0.04621 0.28052 0.0
C191 C 0.42623 0.99165 0.30767 0.0
C192 C 0.36414 0.02385 0.25559 0.0
H193 H 0.37606 0.91318 0.33006 0.0
C194 C 0.28939 0.81549 0.33593 0.0
O195 O 0.33492 0.72823 0.17552 0.0
O196 O 0.41022 0.77044 0.17311 0.0
N197 N 0.29377 0.99707 0.23362 0.0
C198 C 0.26118 1.00619 0.20824 0.0
C199 C 0.26847 0.05765 0.1766 0.0
C200 C 0.30859 0.09947 0.172 0.0
C201 C 0.34077 0.08973 0.19943 0.0
C202 C 0.33219 0.03732 0.22975 0.0
H203 H 0.23002 0.97445 0.21178 0.0
O204 O 0.36811 0.85092 0.12389 0.0
O205 O 0.34795 0.88759 0.21111 0.0
O206 O 0.2489 0.82771 0.22234 0.0
O207 O 0.21932 0.9017 0.2871 0.0
C208 C 0.38175 0.12956 0.19698 0.0
C209 C 0.41433 0.11586 0.22356 0.0
H210 H 0.46755 0.0754 0.28124 0.0
H211 H 0.44996 0.97864 0.3288 0.0
H212 H 0.24331 0.06503 0.15569 0.0
H213 H 0.31492 0.1386 0.14667 0.0
H214 H 0.38894 0.17067 0.17432 0.0
H215 H 0.44656 0.1463 0.22035 0.0
Mn216 Mn 0.31288 0.29654 0.69261 0.0
Mn217 Mn 0.43589 0.27615 0.69748 0.0
C218 C 0.31037 0.30803 0.78262 0.0
C219 C 0.22429 0.26562 0.70302 0.0
C220 C 0.41871 0.37969 0.63777 0.0
O221 O 0.36565 0.24723 0.61659 0.0
O222 O 0.44329 0.23461 0.62788 0.0
C223 C 0.42564 0.15121 0.72415 0.0
N224 N 0.42942 0.20639 0.73959 0.0
C225 C 0.43541 0.17412 0.82396 0.0
C226 C 0.43131 0.11694 0.80915 0.0
C227 C 0.42623 0.10546 0.75913 0.0
C228 C 0.43393 0.21793 0.78785 0.0
H229 H 0.42266 0.1422 0.68517 0.0
C230 C 0.41677 0.22659 0.59963 0.0
O231 O 0.25326 0.31 0.67019 0.0
O232 O 0.24812 0.23738 0.72767 0.0
N233 N 0.43374 0.31443 0.76376 0.0
C234 C 0.43659 0.37197 0.7723 0.0
C235 C 0.44196 0.39082 0.82041 0.0
C236 C 0.44533 0.35032 0.85854 0.0
C237 C 0.44251 0.29131 0.84871 0.0
C238 C 0.43667 0.27513 0.80037 0.0
H239 H 0.43548 0.40319 0.74219 0.0
O240 O 0.27194 0.33462 0.77518 0.0
O241 O 0.34972 0.27788 0.73694 0.0
O242 O 0.36671 0.36686 0.65107 0.0
O243 O 0.44792 0.34891 0.65338 0.0
C244 C 0.44567 0.24788 0.8847 0.0
C245 C 0.44147 0.18936 0.87276 0.0
H246 H 0.43234 0.08152 0.83565 0.0
H247 H 0.42336 0.06142 0.74723 0.0
H248 H 0.44443 0.43643 0.82752 0.0
H249 H 0.45022 0.36502 0.8951 0.0
H250 H 0.4511 0.25899 0.92184 0.0
H251 H 0.44345 0.15642 0.90108 0.0
Mn252 Mn 0.71373 0.30175 0.83 0.0
Mn253 Mn 0.59027 0.28918 0.8247 0.0
C254 C 0.71707 0.31393 0.73953 0.0
C255 C 0.8012 0.2676 0.81996 0.0
C256 C 0.61298 0.39139 0.88159 0.0
O257 O 0.65898 0.25343 0.90604 0.0
O258 O 0.57981 0.24897 0.89637 0.0
C259 C 0.59331 0.16338 0.80379 0.0
N260 N 0.59264 0.21836 0.78589 0.0
C261 C 0.58524 0.18479 0.70274 0.0
C262 C 0.58597 0.12781 0.7202 0.0
C263 C 0.59025 0.11707 0.77081 0.0
C264 C 0.58921 0.22915 0.73686 0.0
H265 H 0.59565 0.15493 0.84323 0.0
C266 C 0.60619 0.23709 0.92405 0.0
O267 O 0.77344 0.31243 0.85269 0.0
O268 O 0.77665 0.24054 0.79532 0.0
N269 N 0.59531 0.32595 0.75631 0.0
C270 C 0.59615 0.38335 0.74489 0.0
C271 C 0.59232 0.40145 0.69565 0.0
C272 C 0.5866 0.36044 0.6594 0.0
C273 C 0.58547 0.30161 0.67227 0.0
C274 C 0.59013 0.28614 0.7215 0.0
H275 H 0.59912 0.41506 0.77352 0.0
O276 O 0.75627 0.33898 0.74688 0.0
O277 O 0.67627 0.28554 0.78574 0.0
O278 O 0.66269 0.37367 0.87127 0.0
O279 O 0.58287 0.36362 0.86491 0.0
C280 C 0.57946 0.25772 0.6385 0.0
C281 C 0.58007 0.19934 0.65325 0.0
H282 H 0.5829 0.09199 0.69532 0.0
H283 H 0.59053 0.07321 0.78476 0.0
H284 H 0.59291 0.44694 0.68618 0.0
H285 H 0.583 0.37463 0.62191 0.0
H286 H 0.57463 0.26834 0.60087 0.0
H287 H 0.57605 0.166 0.62653 0.0
H288 H 0.19473 0.03936 0.34884 0.0
H289 H 0.03075 0.12746 0.40555 0.0
H290 H 0.13972 0.95618 0.40932 0.0
H291 H 0.975 0.04409 0.46776 0.0
H292 H 0.89152 0.8672 0.55202 0.0
H293 H 0.94498 0.94413 0.47754 0.0
H294 H 0.08451 0.93495 0.51398 0.0
H295 H 0.03238 0.85832 0.58637 0.0
C296 C 0.14678 0.04069 0.37361 0.0
C297 C 0.11721 0.09035 0.37266 0.0
C298 C 0.11505 0.99305 0.40899 0.0
C299 C 0.05265 0.99355 0.44478 0.0
C300 C 0.02293 0.04189 0.44082 0.0
C301 C 0.05489 0.08979 0.4051 0.0
C302 C 0.93372 0.8816 0.54387 0.0
C303 C 0.95775 0.85593 0.575 0.0
C304 C 0.96433 0.92587 0.50126 0.0
C305 C 0.01959 0.94566 0.48896 0.0
C306 C 0.04302 0.92012 0.52065 0.0
C307 C 1.01277 0.87602 0.56271 0.0
H308 H 0.15204 0.89834 0.92422 0.0
H309 H 0.99285 0.79597 1.00298 0.0
H310 H 0.09621 0.97633 0.99505 0.0
H311 H 0.93763 0.87157 0.07685 0.0
H312 H 0.8383 0.04035 0.147 0.0
H313 H 0.89479 0.95822 0.08687 0.0
H314 H 0.04628 0.01801 0.09029 0.0
H315 H 0.99 0.10321 0.14742 0.0
C316 C 0.10528 0.89207 0.95762 0.0
C317 C 0.07682 0.84119 0.95752 0.0
C318 C 0.07308 0.93676 0.99877 0.0
C319 C 1.01169 0.9313 0.04191 0.0
C320 C 0.98415 0.87888 0.04341 0.0
C321 C 1.016 0.83497 1.00128 0.0
C322 C 0.88358 0.03598 0.13535 0.0
C323 C 0.90973 0.07895 0.15157 0.0
C324 C 0.91623 0.9882 0.10089 0.0
C325 C 0.97595 0.98088 0.08252 0.0
C326 C 1.00113 0.02248 0.10174 0.0
C327 C 0.96859 0.07113 0.13537 0.0
H328 H 0.53691 0.3943 0.55987 0.0
H329 H 0.3693 0.47913 0.62586 0.0
H330 H 0.58875 0.4754 0.49407 0.0
H331 H 0.42174 0.56272 0.56153 0.0
H332 H 0.53768 0.68443 0.39748 0.0
H333 H 0.48015 0.60158 0.46034 0.0
H334 H 0.61475 0.56883 0.50071 0.0
H335 H 0.67247 0.6483 0.43645 0.0
C336 C 0.51111 0.4309 0.56111 0.0
C337 C 0.44901 0.43062 0.59887 0.0
C338 C 0.54093 0.47772 0.52333 0.0
C339 C 0.50972 0.52645 0.52297 0.0
C340 C 0.44733 0.52592 0.56017 0.0
C341 C 0.41725 0.47825 0.59741 0.0
C342 C 0.55489 0.65897 0.4195 0.0
C343 C 0.61005 0.67241 0.41115 0.0
C344 C 0.5218 0.6118 0.45591 0.0
C345 C 0.54302 0.57771 0.48516 0.0
C346 C 0.59756 0.59254 0.47761 0.0
C347 C 0.63072 0.63863 0.44079 0.0
H348 H 0.35088 0.62153 0.1481 0.0
H349 H 0.51135 0.71595 0.09272 0.0
H350 H 0.40889 0.54361 0.07941 0.0
H351 H 0.57004 0.6375 0.02251 0.0
H352 H 0.65043 0.45375 0.94492 0.0
H353 H 0.59989 0.53466 0.01416 0.0
H354 H 0.46586 0.53125 0.96968 0.0
H355 H 0.51541 0.45027 0.90158 0.0
C356 C 0.39874 0.62548 0.12153 0.0
C357 C 0.42645 0.6752 0.1256 0.0
C358 C 0.43203 0.58092 0.08164 0.0
C359 C 0.49409 0.58479 0.04433 0.0
C360 C 0.52228 0.63321 0.05051 0.0
C361 C 0.48872 0.67807 0.09082 0.0
C362 C 0.61051 0.47065 0.94941 0.0
C363 C 0.58668 0.44484 0.91811 0.0
C364 C 0.58161 0.51714 0.98909 0.0
C365 C 0.52823 0.53882 0.99839 0.0
C366 C 0.50604 0.5147 0.96488 0.0
C367 C 0.53474 0.46835 0.92544 0.0
H368 H 0.96494 0.34586 0.15688 0.0
H369 H 0.90101 0.34762 0.03607 0.0
H370 H 0.03665 0.42127 0.09667 0.0
H371 H 0.97234 0.42343 0.97569 0.0
H372 H 0.12967 0.52949 0.85319 0.0
H373 H 0.07776 0.44286 0.90854 0.0
H374 H 0.03645 0.52379 0.07628 0.0
H375 H 0.08498 0.61267 0.02068 0.0
C376 C 0.96636 0.36264 0.1173 0.0
C377 C 0.92656 0.34245 0.10181 0.0
C378 C 1.00741 0.40567 0.08286 0.0
C379 C 1.01006 0.42863 0.0316 0.0
C380 C 0.97192 0.40624 0.01458 0.0
C381 C 0.93089 0.3631 0.0491 0.0
C382 C 0.10858 0.52913 0.90201 0.0
C383 C 0.1087 0.57847 0.93312 0.0
C384 C 0.07924 0.47934 0.9337 0.0
C385 C 0.05022 0.47749 0.99727 0.0
C386 C 0.05627 0.52471 0.02765 0.0
C387 C 0.0847 0.5753 0.99587 0.0
H388 H 0.07059 0.35887 0.366 0.0
H389 H 0.13578 0.35696 0.48574 0.0
H390 H 1.00094 0.43571 0.42642 0.0
H391 H 0.06618 0.43396 0.54657 0.0
H392 H 0.90818 0.54065 0.67058 0.0
H393 H 0.95976 0.45408 0.61416 0.0
H394 H 1.00509 0.53855 0.44685 0.0
H395 H 0.95712 0.62726 0.50353 0.0
C396 C 0.06995 0.3752 0.40534 0.0
C397 C 0.10953 0.35358 0.42046 0.0
C398 C 0.03005 0.41899 0.43992 0.0
C399 C 0.02825 0.44116 0.49102 0.0
C400 C 0.06611 0.41741 0.50771 0.0
C401 C 0.1061 0.3736 0.47296 0.0
C402 C 0.93015 0.54102 0.62162 0.0
C403 C 0.93129 0.59117 0.59095 0.0
C404 C 0.95923 0.49132 0.58937 0.0
C405 C 0.98904 0.49042 0.5257 0.0
C406 C 0.98448 0.5387 0.49561 0.0
C407 C 0.95643 0.58918 0.52796 0.0
H408 H 0.65205 0.14756 0.95471 0.0
H409 H 0.48802 0.23199 1.00432 0.0
H410 H 0.596 0.06257 0.01343 0.0
H411 H 0.43262 0.14747 0.06143 0.0
H412 H 0.45921 0.93539 0.16261 0.0
H413 H 0.51892 0.02192 0.11542 0.0
H414 H 0.42672 0.05113 0.02307 0.0
H415 H 0.36675 0.96461 0.07099 0.0
C416 C 0.60406 0.14885 0.98015 0.0
C417 C 0.57437 0.19602 0.97467 0.0
C418 C 0.57201 0.10005 0.01311 0.0
C419 C 0.51012 0.09798 0.04051 0.0
C420 C 0.48035 0.14735 0.03964 0.0
C421 C 0.51207 0.19599 1.0075 0.0
C422 C 0.45198 0.9605 0.13207 0.0
C423 C 0.40754 0.94485 0.12147 0.0
C424 C 0.48635 1.00961 0.10483 0.0
C425 C 0.47671 0.04376 0.06653 0.0
C426 C 0.4341 0.02625 0.05361 0.0
C427 C 0.40013 0.97675 0.08048 0.0
H428 H 0.66289 0.96724 0.45217 0.0
H429 H 0.57409 0.92718 0.35882 0.0
H430 H 0.59985 0.05257 0.4972 0.0
H431 H 0.51073 1.01233 0.40389 0.0
H432 H 0.37147 0.13352 0.57344 0.0
H433 H 0.43059 0.05071 0.51184 0.0
H434 H 0.59102 0.14706 0.45162 0.0
H435 H 0.53248 0.22926 0.51185 0.0
C436 C 0.62971 0.9768 0.44161 0.0
C437 C 0.62415 0.94217 0.40099 0.0
C438 C 0.59396 0.02553 0.4669 0.0
C439 C 0.55123 0.0394 0.453 0.0
C440 C 0.54354 1.00274 0.41496 0.0
C441 C 0.57989 0.95446 0.38904 0.0
C442 C 0.4192 0.13774 0.54453 0.0
C443 C 0.4476 0.18736 0.54738 0.0
C444 C 0.45302 0.09029 0.50993 0.0
C445 C 0.51527 0.09226 0.47844 0.0
C446 C 0.54316 0.14411 0.47641 0.0
C447 C 0.50963 0.19131 0.5103 0.0
H448 H 0.37076 0.82465 0.36611 0.0
H449 H 0.20004 0.75025 0.42647 0.0
H450 H 0.35469 0.80904 0.46658 0.0
H451 H 0.1862 0.7299 0.52599 0.0
H452 H 0.22769 0.66856 0.67615 0.0
H453 H 0.24413 0.67417 0.57429 0.0
H454 H 0.26745 0.85822 0.57399 0.0
H455 H 0.24826 0.85282 0.67747 0.0
C456 C 0.33009 0.80426 0.4008 0.0
C457 C 0.28592 0.78999 0.38936 0.0
C458 C 0.32107 0.79517 0.45807 0.0
C459 C 0.26837 0.76996 0.50446 0.0
C460 C 0.22652 0.7506 0.49135 0.0
C461 C 0.23478 0.76137 0.43429 0.0
C462 C 0.23514 0.71036 0.65472 0.0
C463 C 0.23461 0.7606 0.68523 0.0
C464 C 0.24484 0.71341 0.59648 0.0
C465 C 0.25649 0.76658 0.56679 0.0
C466 C 0.25829 0.81669 0.5963 0.0
C467 C 0.24746 0.81372 0.65517 0.0
H468 H 0.81512 0.67134 0.84707 0.0
H469 H 0.78803 0.85539 0.85942 0.0
H470 H 0.79979 0.67034 0.94859 0.0
H471 H 0.76983 0.85387 0.96286 0.0
H472 H 0.66563 0.78706 0.17156 0.0
H473 H 0.67982 0.77516 0.07093 0.0
H474 H 0.86615 0.74664 0.99322 0.0
H475 H 0.85303 0.76287 0.09265 0.0
C476 C 0.80636 0.71168 0.87144 0.0
C477 C 0.80484 0.76382 0.84476 0.0
C478 C 0.79715 0.71088 0.92954 0.0
C479 C 0.78414 0.76199 0.96289 0.0
C480 C 0.78016 0.81397 0.93746 0.0
C481 C 0.79041 0.81489 0.87867 0.0
C482 C 0.70943 0.77676 0.13299 0.0
C483 C 0.75828 0.77535 0.1395 0.0
C484 C 0.71751 0.77053 0.07562 0.0
C485 C 0.77436 0.76122 0.02434 0.0
C486 C 0.82229 0.75467 0.03183 0.0
C487 C 0.8146 0.7628 0.08887 0.0
H488 H 0.81511 0.17791 0.3829 0.0
H489 H 0.6795 0.3068 0.43528 0.0
H490 H 0.80539 0.18951 0.48167 0.0
H491 H 0.67232 0.32058 0.53133 0.0
H492 H 0.73742 0.38917 0.64918 0.0
H493 H 0.74605 0.36429 0.55295 0.0
H494 H 0.73414 0.18342 0.59742 0.0
H495 H 0.7255 0.20843 0.69304 0.0
C496 C 0.78158 0.20679 0.41641 0.0
C497 C 0.74831 0.24168 0.40146 0.0
C498 C 0.77673 0.21422 0.4724 0.0
C499 C 0.73922 0.25711 0.51334 0.0
C500 C 0.70225 0.28794 0.50035 0.0
C501 C 0.70591 0.27951 0.44558 0.0
C502 C 0.73753 0.34428 0.63767 0.0
C503 C 0.72959 0.30075 0.67853 0.0
C504 C 0.742 0.32994 0.58312 0.0
C505 C 0.73986 0.27186 0.56833 0.0
C506 C 0.73589 0.22837 0.60763 0.0
C507 C 0.73068 0.24275 0.66232 0.0
H508 H 0.35055 0.31184 0.08534 0.0
H509 H 0.21237 0.18478 0.14325 0.0
H510 H 0.35763 0.32195 0.98896 0.0
H511 H 0.22127 0.19324 0.04466 0.0
H512 H 0.29782 0.2043 0.83411 0.0
H513 H 0.28941 0.18279 0.93033 0.0
H514 H 0.28641 0.36527 0.96516 0.0
H515 H 0.29507 0.38654 0.86831 0.0
C516 C 0.32328 0.28438 0.07637 0.0
C517 C 0.28043 0.24801 0.12192 0.0
C518 C 0.32687 0.2907 0.02142 0.0
C519 C 0.28899 0.25951 1.00995 0.0
C520 C 0.25065 0.21823 0.05268 0.0
C521 C 0.24614 0.2127 0.10865 0.0
C522 C 0.29478 0.23972 0.86282 0.0
C523 C 0.29854 0.29703 0.84367 0.0
C524 C 0.28963 0.22738 0.91789 0.0
C525 C 0.28828 0.27227 0.95463 0.0
C526 C 0.28859 0.3298 0.93696 0.0
C527 C 0.29309 0.3421 0.88203 0.0
H528 H 0.36391 0.21208 0.31783 0.0
H529 H 0.39967 0.38352 0.24096 0.0
H530 H 0.46179 0.20997 0.30407 0.0
H531 H 0.49711 0.381 0.22674 0.0
H532 H 0.63907 0.38254 0.27266 0.0
H533 H 0.54153 0.38243 0.287 0.0
H534 H 0.56811 0.20683 0.22223 0.0
H535 H 0.66591 0.20639 0.20869 0.0
C536 C 0.39251 0.24928 0.298 0.0
C537 C 0.37372 0.29793 0.28052 0.0
C538 C 0.44875 0.24792 0.28982 0.0
C539 C 0.4873 0.29533 0.26429 0.0
C540 C 0.46829 0.34403 0.24725 0.0
C541 C 0.41231 0.34536 0.2553 0.0
C542 C 0.62446 0.34384 0.26117 0.0
C543 C 0.66059 0.29442 0.23952 0.0
C544 C 0.56844 0.34389 0.26927 0.0
C545 C 0.54694 0.29461 0.25584 0.0
C546 C 0.58304 0.24522 0.23384 0.0
C547 C 0.63927 0.24515 0.22567 0.0
H548 H 0.68311 0.71464 0.64103 0.0
H549 H 0.63916 0.64065 0.81252 0.0
H550 H 0.58188 0.6987 0.6675 0.0
H551 H 0.53718 0.62487 0.83931 0.0
H552 H 0.35323 0.70669 0.89106 0.0
H553 H 0.45503 0.69476 0.86449 0.0
H554 H 0.50376 0.62514 0.68971 0.0
H555 H 0.4013 0.63683 0.71657 0.0
C556 C 0.65204 0.69408 0.68403 0.0
C557 C 0.66914 0.67931 0.72485 0.0
C558 C 0.59401 0.68459 0.69904 0.0
C559 C 0.55127 0.66076 0.75564 0.0
C560 C 0.56895 0.64373 0.79552 0.0
C561 C 0.62742 0.6525 0.78007 0.0
C562 C 0.38535 0.68781 0.84738 0.0
C563 C 0.36921 0.6731 0.80577 0.0
C564 C 0.44371 0.68064 0.83229 0.0
C565 C 0.48769 0.6593 0.77484 0.0
C566 C 0.47101 0.64213 0.73417 0.0
C567 C 0.41227 0.64854 0.74967 0.0
H568 H 0.18996 0.83413 0.16945 0.0
H569 H 0.10011 0.89327 0.35551 0.0
H570 H 0.09662 0.83726 0.17348 0.0
H571 H 1.00636 0.8966 0.35962 0.0
H572 H 0.84563 0.81969 0.3574 0.0
H573 H 0.93835 0.82182 0.35446 0.0
H574 H 0.02228 0.914 0.18393 0.0
H575 H 0.92895 0.91234 0.18725 0.0
C576 C 0.15015 0.84762 0.21135 0.0
C577 C 0.15233 0.86367 0.26222 0.0
C578 C 0.09687 0.84996 0.2134 0.0
C579 C 0.04431 0.86748 0.26669 0.0
C580 C 0.04623 0.8829 0.3179 0.0
C581 C 0.09984 0.88142 0.3155 0.0
C582 C 0.88382 0.84041 0.31919 0.0
C583 C 0.88002 0.86572 0.27227 0.0
C584 C 0.93678 0.84201 0.31784 0.0
C585 C 0.98751 0.86811 0.26908 0.0
C586 C 0.98392 0.89334 0.22201 0.0
C587 C 0.93054 0.8926 0.22392 0.0
H588 H 0.17649 0.29459 0.63654 0.0
H589 H 0.13541 0.20778 0.8014 0.0
H590 H 0.07345 0.28343 0.66558 0.0
H591 H 0.03185 0.19806 0.83117 0.0
H592 H 0.89007 0.21148 0.71979 0.0
H593 H 0.99376 0.20117 0.68958 0.0
H594 H 0.95171 0.28042 0.8582 0.0
H595 H 0.84862 0.29219 0.88769 0.0
C596 C 0.14565 0.27239 0.67854 0.0
C597 C 0.1641 0.25201 0.71663 0.0
C598 C 0.08672 0.26587 0.69505 0.0
C599 C 0.04463 0.23999 0.75069 0.0
C600 C 0.06337 0.21824 0.78808 0.0
C601 C 0.12267 0.22355 0.77086 0.0
C602 C 0.90274 0.22566 0.7509 0.0
C603 C 0.86119 0.25265 0.80613 0.0
C604 C 0.96212 0.22008 0.73341 0.0
C605 C 0.98077 0.24005 0.77152 0.0
C606 C 0.93853 0.26427 0.82813 0.0
C607 C 0.87956 0.2711 0.84493 0.0
loop_
_geom_bond_atom_site_label_1
_geom_bond_atom_site_label_2
_geom_bond_distance
_geom_bond_site_symmetry_2
_ccdc_geom_bond_type
Mn0 O5 2.095 . S
Mn0 O15 2.162 . S
Mn0 O16 2.297 . S
Mn0 O24 2.385 . S
Mn0 O25 2.209 . S
Mn0 O26 2.094 . S
Mn1 O6 2.121 . S
Mn1 N8 2.257 . S
Mn1 N17 2.282 . S
Mn1 O25 2.215 . S
Mn1 O27 2.117 . S
C2 O24 1.234 . S
C2 O25 1.283 . S
C3 O15 1.281 . S
C3 O16 1.236 . S
C4 O26 1.240 . S
C4 O27 1.264 . S
O5 Mn0 2.095 . S
O5 C14 1.250 . S
O6 Mn1 2.121 . S
O6 C14 1.258 . S
C7 N8 1.326 . S
C7 C11 1.460 . S
C7 H13 0.929 . S
N8 Mn1 2.257 . S
N8 C7 1.326 . S
N8 C12 1.362 . S
C9 C10 1.258 . S
C9 C12 1.431 . S
C9 C29 1.449 . S
C10 C9 1.258 . S
C10 C11 1.477 . S
C10 H30 0.931 . S
C11 C7 1.460 . S
C11 C10 1.477 . S
C11 H31 0.930 . S
C12 N8 1.362 . S
C12 C9 1.431 . S
C12 C22 1.476 . S
H13 C7 0.929 . S
C14 O5 1.250 . S
C14 O6 1.258 . S
O15 Mn0 2.162 . S
O15 C3 1.281 . S
O16 Mn0 2.297 . S
O16 C3 1.236 . S
N17 Mn1 2.282 . S
N17 C18 1.328 . S
N17 C22 1.318 . S
C18 N17 1.328 . S
C18 C19 1.457 . S
C18 H23 0.929 . S
C19 C18 1.457 . S
C19 C20 1.291 . S
C19 H32 0.931 . S
C20 C19 1.291 . S
C20 C21 1.373 . S
C20 H33 0.929 . S
C21 C20 1.373 . S
C21 C22 1.396 . S
C21 C28 1.403 . S
C22 C12 1.476 . S
C22 N17 1.318 . S
C22 C21 1.396 . S
H23 C18 0.929 . S
O24 Mn0 2.385 . S
O24 C2 1.234 . S
O25 Mn0 2.209 . S
O25 Mn1 2.215 . S
O25 C2 1.283 . S
O26 Mn0 2.094 . S
O26 C4 1.240 . S
O27 Mn1 2.117 . S
O27 C4 1.264 . S
C28 C21 1.403 . S
C28 C29 1.399 . S
C28 H34 0.929 . S
C29 C9 1.449 . S
C29 C28 1.399 . S
C29 H35 0.930 . S
H30 C10 0.931 . S
H31 C11 0.930 . S
H32 C19 0.931 . S
H33 C20 0.929 . S
H34 C28 0.929 . S
H35 C29 0.930 . S
Mn36 O41 2.095 . S
Mn36 O51 2.162 . S
Mn36 O52 2.297 . S
Mn36 O60 2.385 . S
Mn36 O61 2.209 . S
Mn36 O62 2.094 . S
Mn37 O42 2.121 . S
Mn37 N44 2.257 . S
Mn37 N53 2.282 . S
Mn37 O61 2.215 . S
Mn37 O63 2.117 . S
C38 O60 1.234 . S
C38 O61 1.283 . S
C39 O51 1.281 . S
C39 O52 1.236 . S
C40 O62 1.240 . S
C40 O63 1.264 . S
O41 Mn36 2.095 . S
O41 C50 1.250 . S
O42 Mn37 2.121 . S
O42 C50 1.258 . S
C43 N44 1.326 . S
C43 C47 1.460 . S
C43 H49 0.929 . S
N44 Mn37 2.257 . S
N44 C43 1.326 . S
N44 C48 1.362 . S
C45 C46 1.258 . S
C45 C48 1.431 . S
C45 C65 1.449 . S
C46 C45 1.258 . S
C46 C47 1.477 . S
C46 H66 0.931 . S
C47 C43 1.460 . S
C47 C46 1.477 . S
C47 H67 0.930 . S
C48 N44 1.362 . S
C48 C45 1.431 . S
C48 C58 1.476 . S
H49 C43 0.929 . S
C50 O41 1.250 . S
C50 O42 1.258 . S
O51 Mn36 2.162 . S
O51 C39 1.281 . S
O52 Mn36 2.297 . S
O52 C39 1.236 . S
N53 Mn37 2.282 . S
N53 C54 1.328 . S
N53 C58 1.318 . S
C54 N53 1.328 . S
C54 C55 1.457 . S
C54 H59 0.929 . S
C55 C54 1.457 . S
C55 C56 1.291 . S
C55 H68 0.931 . S
C56 C55 1.291 . S
C56 C57 1.373 . S
C56 H69 0.929 . S
C57 C56 1.373 . S
C57 C58 1.396 . S
C57 C64 1.403 . S
C58 C48 1.476 . S
C58 N53 1.318 . S
C58 C57 1.396 . S
H59 C54 0.929 . S
O60 Mn36 2.385 . S
O60 C38 1.234 . S
O61 Mn36 2.209 . S
O61 Mn37 2.215 . S
O61 C38 1.283 . S
O62 Mn36 2.094 . S
O62 C40 1.240 . S
O63 Mn37 2.117 . S
O63 C40 1.264 . S
C64 C57 1.403 . S
C64 C65 1.399 . S
C64 H70 0.929 . S
C65 C45 1.449 . S
C65 C64 1.399 . S
C65 H71 0.930 . S
H66 C46 0.931 . S
H67 C47 0.930 . S
H68 C55 0.931 . S
H69 C56 0.929 . S
H70 C64 0.929 . S
H71 C65 0.930 . S
Mn72 O77 2.095 . S
Mn72 O87 2.162 . S
Mn72 O88 2.297 . S
Mn72 O96 2.385 . S
Mn72 O97 2.209 . S
Mn72 O98 2.094 . S
Mn73 O78 2.121 . S
Mn73 N80 2.257 . S
Mn73 N89 2.282 . S
Mn73 O97 2.215 . S
Mn73 O99 2.117 . S
C74 O96 1.234 . S
C74 O97 1.283 . S
C75 O87 1.281 . S
C75 O88 1.236 . S
C76 O98 1.240 . S
C76 O99 1.264 . S
O77 Mn72 2.095 . S
O77 C86 1.250 . S
O78 Mn73 2.121 . S
O78 C86 1.258 . S
C79 N80 1.326 . S
C79 C83 1.460 . S
C79 H85 0.929 . S
N80 Mn73 2.257 . S
N80 C79 1.326 . S
N80 C84 1.362 . S
C81 C82 1.258 . S
C81 C84 1.431 . S
C81 C101 1.449 . S
C82 C81 1.258 . S
C82 C83 1.477 . S
C82 H102 0.931 . S
C83 C79 1.460 . S
C83 C82 1.477 . S
C83 H103 0.930 . S
C84 N80 1.362 . S
C84 C81 1.431 . S
C84 C94 1.476 . S
H85 C79 0.929 . S
C86 O77 1.250 . S
C86 O78 1.258 . S
O87 Mn72 2.162 . S
O87 C75 1.281 . S
O88 Mn72 2.297 . S
O88 C75 1.236 . S
N89 Mn73 2.282 . S
N89 C90 1.328 . S
N89 C94 1.318 . S
C90 N89 1.328 . S
C90 C91 1.457 . S
C90 H95 0.929 . S
C91 C90 1.457 . S
C91 C92 1.291 . S
C91 H104 0.931 . S
C92 C91 1.291 . S
C92 C93 1.373 . S
C92 H105 0.929 . S
C93 C92 1.373 . S
C93 C94 1.396 . S
C93 C100 1.403 . S
C94 C84 1.476 . S
C94 N89 1.318 . S
C94 C93 1.396 . S
H95 C90 0.929 . S
O96 Mn72 2.385 . S
O96 C74 1.234 . S
O97 Mn72 2.209 . S
O97 Mn73 2.215 . S
O97 C74 1.283 . S
O98 Mn72 2.094 . S
O98 C76 1.240 . S
O99 Mn73 2.117 . S
O99 C76 1.264 . S
C100 C93 1.403 . S
C100 C101 1.399 . S
C100 H106 0.929 . S
C101 C81 1.449 . S
C101 C100 1.399 . S
C101 H107 0.930 . S
H102 C82 0.931 . S
H103 C83 0.930 . S
H104 C91 0.931 . S
H105 C92 0.929 . S
H106 C100 0.929 . S
H107 C101 0.930 . S
Mn108 O113 2.095 . S
Mn108 O123 2.162 . S
Mn108 O124 2.297 . S
Mn108 O132 2.385 . S
Mn108 O133 2.209 . S
Mn108 O134 2.094 . S
Mn109 O114 2.121 . S
Mn109 N116 2.257 . S
Mn109 N125 2.282 . S
Mn109 O133 2.215 . S
Mn109 O135 2.117 . S
C110 O132 1.234 . S
C110 O133 1.283 . S
C111 O123 1.281 . S
C111 O124 1.236 . S
C112 O134 1.240 . S
C112 O135 1.264 . S
O113 Mn108 2.095 . S
O113 C122 1.250 . S
O114 Mn109 2.121 . S
O114 C122 1.258 . S
C115 N116 1.326 . S
C115 C119 1.460 . S
C115 H121 0.929 . S
N116 Mn109 2.257 . S
N116 C115 1.326 . S
N116 C120 1.362 . S
C117 C118 1.258 . S
C117 C120 1.431 . S
C117 C137 1.449 . S
C118 C117 1.258 . S
C118 C119 1.477 . S
C118 H138 0.931 . S
C119 C115 1.460 . S
C119 C118 1.477 . S
C119 H139 0.930 . S
C120 N116 1.362 . S
C120 C117 1.431 . S
C120 C130 1.476 . S
H121 C115 0.929 . S
C122 O113 1.250 . S
C122 O114 1.258 . S
O123 Mn108 2.162 . S
O123 C111 1.281 . S
O124 Mn108 2.297 . S
O124 C111 1.236 . S
N125 Mn109 2.282 . S
N125 C126 1.328 . S
N125 C130 1.318 . S
C126 N125 1.328 . S
C126 C127 1.457 . S
C126 H131 0.929 . S
C127 C126 1.457 . S
C127 C128 1.291 . S
C127 H140 0.931 . S
C128 C127 1.291 . S
C128 C129 1.373 . S
C128 H141 0.929 . S
C129 C128 1.373 . S
C129 C130 1.396 . S
C129 C136 1.403 . S
C130 C120 1.476 . S
C130 N125 1.318 . S
C130 C129 1.396 . S
H131 C126 0.929 . S
O132 Mn108 2.385 . S
O132 C110 1.234 . S
O133 Mn108 2.209 . S
O133 Mn109 2.215 . S
O133 C110 1.283 . S
O134 Mn108 2.094 . S
O134 C112 1.240 . S
O135 Mn109 2.117 . S
O135 C112 1.264 . S
C136 C129 1.403 . S
C136 C137 1.399 . S
C136 H142 0.929 . S
C137 C117 1.449 . S
C137 C136 1.399 . S
C137 H143 0.930 . S
H138 C118 0.931 . S
H139 C119 0.930 . S
H140 C127 0.931 . S
H141 C128 0.929 . S
H142 C136 0.929 . S
H143 C137 0.930 . S
Mn144 O149 2.095 . S
Mn144 O159 2.162 . S
Mn144 O160 2.297 . S
Mn144 O168 2.385 . S
Mn144 O169 2.209 . S
Mn144 O170 2.094 . S
Mn145 O150 2.121 . S
Mn145 N152 2.257 . S
Mn145 N161 2.282 . S
Mn145 O169 2.215 . S
Mn145 O171 2.117 . S
C146 O168 1.234 . S
C146 O169 1.283 . S
C147 O159 1.281 . S
C147 O160 1.236 . S
C148 O170 1.240 . S
C148 O171 1.264 . S
O149 Mn144 2.095 . S
O149 C158 1.250 . S
O150 Mn145 2.121 . S
O150 C158 1.258 . S
C151 N152 1.326 . S
C151 C155 1.460 . S
C151 H157 0.929 . S
N152 Mn145 2.257 . S
N152 C151 1.326 . S
N152 C156 1.362 . S
C153 C154 1.258 . S
C153 C156 1.431 1_545 S
C153 C173 1.449 . S
C154 C153 1.258 . S
C154 C155 1.477 1_545 S
C154 H174 0.931 . S
C155 C151 1.460 . S
C155 C154 1.477 1_565 S
C155 H175 0.930 . S
C156 N152 1.362 . S
C156 C153 1.431 1_565 S
C156 C166 1.476 . S
H157 C151 0.929 . S
C158 O149 1.250 . S
C158 O150 1.258 . S
O159 Mn144 2.162 . S
O159 C147 1.281 . S
O160 Mn144 2.297 . S
O160 C147 1.236 . S
N161 Mn145 2.282 . S
N161 C162 1.328 . S
N161 C166 1.318 . S
C162 N161 1.328 . S
C162 C163 1.454 1_565 S
C162 H167 0.929 . S
C163 C162 1.454 1_545 S
C163 C164 1.294 . S
C163 H176 0.930 1_545 S
C164 C163 1.294 . S
C164 C165 1.373 . S
C164 H177 0.929 . S
C165 C164 1.373 . S
C165 C166 1.396 1_545 S
C165 C172 1.403 . S
C166 C156 1.476 . S
C166 N161 1.318 . S
C166 C165 1.396 1_565 S
H167 C162 0.929 . S
O168 Mn144 2.385 . S
O168 C146 1.234 . S
O169 Mn144 2.209 . S
O169 Mn145 2.215 . S
O169 C146 1.283 . S
O170 Mn144 2.094 . S
O170 C148 1.240 . S
O171 Mn145 2.117 . S
O171 C148 1.264 . S
C172 C165 1.403 . S
C172 C173 1.399 . S
C172 H178 0.929 . S
C173 C153 1.449 . S
C173 C172 1.399 . S
C173 H179 0.930 . S
H174 C154 0.931 . S
H175 C155 0.930 . S
H176 C163 0.930 1_565 S
H177 C164 0.929 . S
H178 C172 0.929 . S
H179 C173 0.930 . S
Mn180 O185 2.095 . S
Mn180 O195 2.162 . S
Mn180 O196 2.297 . S
Mn180 O204 2.385 . S
Mn180 O205 2.209 . S
Mn180 O206 2.094 . S
Mn181 O186 2.121 . S
Mn181 N188 2.257 . S
Mn181 N197 2.282 . S
Mn181 O205 2.215 . S
Mn181 O207 2.117 . S
C182 O204 1.234 . S
C182 O205 1.283 . S
C183 O195 1.281 . S
C183 O196 1.236 . S
C184 O206 1.240 . S
C184 O207 1.264 . S
O185 Mn180 2.095 . S
O185 C194 1.250 . S
O186 Mn181 2.121 . S
O186 C194 1.258 . S
C187 N188 1.326 . S
C187 C191 1.460 . S
C187 H193 0.929 . S
N188 Mn181 2.257 . S
N188 C187 1.326 . S
N188 C192 1.362 . S
C189 C190 1.258 . S
C189 C192 1.431 1_545 S
C189 C209 1.449 . S
C190 C189 1.258 . S
C190 C191 1.477 1_545 S
C190 H210 0.931 . S
C191 C187 1.460 . S
C191 C190 1.477 1_565 S
C191 H211 0.930 . S
C192 N188 1.362 . S
C192 C189 1.431 1_565 S
C192 C202 1.476 . S
H193 C187 0.929 . S
C194 O185 1.250 . S
C194 O186 1.258 . S
O195 Mn180 2.162 . S
O195 C183 1.281 . S
O196 Mn180 2.297 . S
O196 C183 1.236 . S
N197 Mn181 2.282 . S
N197 C198 1.328 . S
N197 C202 1.318 . S
C198 N197 1.328 . S
C198 C199 1.454 1_565 S
C198 H203 0.929 . S
C199 C198 1.454 1_545 S
C199 C200 1.294 . S
C199 H212 0.930 1_545 S
C200 C199 1.294 . S
C200 C201 1.373 . S
C200 H213 0.929 . S
C201 C200 1.373 . S
C201 C202 1.396 1_545 S
C201 C208 1.403 . S
C202 C192 1.476 . S
C202 N197 1.318 . S
C202 C201 1.396 1_565 S
H203 C198 0.929 . S
O204 Mn180 2.385 . S
O204 C182 1.234 . S
O205 Mn180 2.209 . S
O205 Mn181 2.215 . S
O205 C182 1.283 . S
O206 Mn180 2.094 . S
O206 C184 1.240 . S
O207 Mn181 2.117 . S
O207 C184 1.264 . S
C208 C201 1.403 . S
C208 C209 1.399 . S
C208 H214 0.929 . S
C209 C189 1.449 . S
C209 C208 1.399 . S
C209 H215 0.930 . S
H210 C190 0.931 . S
H211 C191 0.930 . S
H212 C199 0.930 1_565 S
H213 C200 0.929 . S
H214 C208 0.929 . S
H215 C209 0.930 . S
Mn216 O221 2.095 . S
Mn216 O231 2.162 . S
Mn216 O232 2.297 . S
Mn216 O240 2.385 . S
Mn216 O241 2.209 . S
Mn216 O242 2.094 . S
Mn217 O222 2.121 . S
Mn217 N224 2.257 . S
Mn217 N233 2.282 . S
Mn217 O241 2.215 . S
Mn217 O243 2.117 . S
C218 O240 1.234 . S
C218 O241 1.283 . S
C219 O231 1.281 . S
C219 O232 1.236 . S
C220 O242 1.240 . S
C220 O243 1.264 . S
O221 Mn216 2.095 . S
O221 C230 1.250 . S
O222 Mn217 2.121 . S
O222 C230 1.258 . S
C223 N224 1.326 . S
C223 C227 1.460 . S
C223 H229 0.929 . S
N224 Mn217 2.257 . S
N224 C223 1.326 . S
N224 C228 1.362 . S
C225 C226 1.258 . S
C225 C228 1.431 . S
C225 C245 1.449 . S
C226 C225 1.258 . S
C226 C227 1.477 . S
C226 H246 0.931 . S
C227 C223 1.460 . S
C227 C226 1.477 . S
C227 H247 0.930 . S
C228 N224 1.362 . S
C228 C225 1.431 . S
C228 C238 1.476 . S
H229 C223 0.929 . S
C230 O221 1.250 . S
C230 O222 1.258 . S
O231 Mn216 2.162 . S
O231 C219 1.281 . S
O232 Mn216 2.297 . S
O232 C219 1.236 . S
N233 Mn217 2.282 . S
N233 C234 1.328 . S
N233 C238 1.318 . S
C234 N233 1.328 . S
C234 C235 1.457 . S
C234 H239 0.929 . S
C235 C234 1.457 . S
C235 C236 1.291 . S
C235 H248 0.931 . S
C236 C235 1.291 . S
C236 C237 1.373 . S
C236 H249 0.929 . S
C237 C236 1.373 . S
C237 C238 1.396 . S
C237 C244 1.403 . S
C238 C228 1.476 . S
C238 N233 1.318 . S
C238 C237 1.396 . S
H239 C234 0.929 . S
O240 Mn216 2.385 . S
O240 C218 1.234 . S
O241 Mn216 2.209 . S
O241 Mn217 2.215 . S
O241 C218 1.283 . S
O242 Mn216 2.094 . S
O242 C220 1.240 . S
O243 Mn217 2.117 . S
O243 C220 1.264 . S
C244 C237 1.403 . S
C244 C245 1.399 . S
C244 H250 0.929 . S
C245 C225 1.449 . S
C245 C244 1.399 . S
C245 H251 0.930 . S
H246 C226 0.931 . S
H247 C227 0.930 . S
H248 C235 0.931 . S
H249 C236 0.929 . S
H250 C244 0.929 . S
H251 C245 0.930 . S
Mn252 O257 2.095 . S
Mn252 O267 2.162 . S
Mn252 O268 2.297 . S
Mn252 O276 2.385 . S
Mn252 O277 2.209 . S
Mn252 O278 2.094 . S
Mn253 O258 2.121 . S
Mn253 N260 2.257 . S
Mn253 N269 2.282 . S
Mn253 O277 2.215 . S
Mn253 O279 2.117 . S
C254 O276 1.234 . S
C254 O277 1.283 . S
C255 O267 1.281 . S
C255 O268 1.236 . S
C256 O278 1.240 . S
C256 O279 1.264 . S
O257 Mn252 2.095 . S
O257 C266 1.250 . S
O258 Mn253 2.121 . S
O258 C266 1.258 . S
C259 N260 1.326 . S
C259 C263 1.460 . S
C259 H265 0.929 . S
N260 Mn253 2.257 . S
N260 C259 1.326 . S
N260 C264 1.362 . S
C261 C262 1.258 . S
C261 C264 1.431 . S
C261 C281 1.449 . S
C262 C261 1.258 . S
C262 C263 1.477 . S
C262 H282 0.931 . S
C263 C259 1.460 . S
C263 C262 1.477 . S
C263 H283 0.930 . S
C264 N260 1.362 . S
C264 C261 1.431 . S
C264 C274 1.476 . S
H265 C259 0.929 . S
C266 O257 1.250 . S
C266 O258 1.258 . S
O267 Mn252 2.162 . S
O267 C255 1.281 . S
O268 Mn252 2.297 . S
O268 C255 1.236 . S
N269 Mn253 2.282 . S
N269 C270 1.328 . S
N269 C274 1.318 . S
C270 N269 1.328 . S
C270 C271 1.457 . S
C270 H275 0.929 . S
C271 C270 1.457 . S
C271 C272 1.291 . S
C271 H284 0.931 . S
C272 C271 1.291 . S
C272 C273 1.373 . S
C272 H285 0.929 . S
C273 C272 1.373 . S
C273 C274 1.396 . S
C273 C280 1.403 . S
C274 C264 1.476 . S
C274 N269 1.318 . S
C274 C273 1.396 . S
H275 C270 0.929 . S
O276 Mn252 2.385 . S
O276 C254 1.234 . S
O277 Mn252 2.209 . S
O277 Mn253 2.215 . S
O277 C254 1.283 . S
O278 Mn252 2.094 . S
O278 C256 1.240 . S
O279 Mn253 2.117 . S
O279 C256 1.264 . S
C280 C273 1.403 . S
C280 C281 1.399 . S
C280 H286 0.929 . S
C281 C261 1.449 . S
C281 C280 1.399 . S
C281 H287 0.930 . S
H282 C262 0.931 . S
H283 C263 0.930 . S
H284 C271 0.931 . S
H285 C272 0.929 . S
H286 C280 0.929 . S
H287 C281 0.930 . S
H288 C296 0.950 . S
H289 C301 0.950 . S
H290 C298 0.950 . S
H291 C300 0.950 . S
H292 C302 0.950 . S
H293 C304 0.950 . S
H294 C306 0.950 . S
H295 C307 0.950 . S
C296 H288 0.950 . S
C296 C297 1.386 . S
C296 C298 1.391 . S
C297 C296 1.386 . S
C297 C301 1.393 . S
C298 H290 0.950 . S
C298 C296 1.391 . S
C298 C299 1.400 . S
C299 C298 1.400 . S
C299 C300 1.398 1_455 S
C299 C305 1.491 1_445 S
C300 H291 0.950 . S
C300 C299 1.398 1_655 S
C300 C301 1.391 1_655 S
C301 H289 0.950 . S
C301 C297 1.393 . S
C301 C300 1.391 1_455 S
C302 H292 0.950 . S
C302 C303 1.386 . S
C302 C304 1.391 . S
C303 C302 1.386 . S
C303 C307 1.393 . S
C304 H293 0.950 . S
C304 C302 1.391 . S
C304 C305 1.400 . S
C305 C299 1.491 1_665 S
C305 C304 1.400 . S
C305 C306 1.398 1_655 S
C306 H294 0.950 . S
C306 C305 1.398 1_455 S
C306 C307 1.391 1_455 S
C307 H295 0.950 . S
C307 C303 1.393 . S
C307 C306 1.391 1_655 S
H308 C316 0.950 . S
H309 C321 0.950 1_554 S
H310 C318 0.950 1_545 S
H311 C320 0.950 1_655 S
H312 C322 0.950 . S
H313 C324 0.950 1_565 S
H314 C326 0.950 1_455 S
H315 C327 0.950 . S
C316 H308 0.950 . S
C316 C317 1.386 . S
C316 C318 1.391 . S
C317 C316 1.386 . S
C317 C321 1.393 . S
C318 H310 0.950 1_565 S
C318 C316 1.391 . S
C318 C319 1.400 . S
C319 C318 1.400 . S
C319 C320 1.398 1_556 S
C319 C325 1.491 1_466 S
C320 H311 0.950 1_455 S
C320 C319 1.398 1_554 S
C320 C321 1.391 1_554 S
C321 H309 0.950 1_556 S
C321 C317 1.393 . S
C321 C320 1.391 1_556 S
C322 H312 0.950 . S
C322 C323 1.386 . S
C322 C324 1.391 . S
C323 C322 1.386 . S
C323 C327 1.393 . S
C324 H313 0.950 1_545 S
C324 C322 1.391 . S
C324 C325 1.400 . S
C325 C319 1.491 1_644 S
C325 C324 1.400 . S
C325 C326 1.398 1_554 S
C326 H314 0.950 1_655 S
C326 C325 1.398 1_556 S
C326 C327 1.391 1_556 S
C327 H315 0.950 . S
C327 C323 1.393 . S
C327 C326 1.391 1_554 S
H328 C336 0.950 . S
H329 C341 0.950 . S
H330 C338 0.950 . S
H331 C340 0.950 . S
H332 C342 0.950 . S
H333 C344 0.950 . S
H334 C346 0.950 . S
H335 C347 0.950 . S
C336 H328 0.950 . S
C336 C337 1.386 . S
C336 C338 1.391 . S
C337 C336 1.386 . S
C337 C341 1.393 . S
C338 H330 0.950 . S
C338 C336 1.391 . S
C338 C339 1.400 . S
C339 C338 1.400 . S
C339 C340 1.398 . S
C339 C345 1.491 . S
C340 H331 0.950 . S
C340 C339 1.398 . S
C340 C341 1.391 . S
C341 H329 0.950 . S
C341 C337 1.393 . S
C341 C340 1.391 . S
C342 H332 0.950 . S
C342 C343 1.386 . S
C342 C344 1.391 . S
C343 C342 1.386 . S
C343 C347 1.393 . S
C344 H333 0.950 . S
C344 C342 1.391 . S
C344 C345 1.400 . S
C345 C339 1.491 . S
C345 C344 1.400 . S
C345 C346 1.398 . S
C346 H334 0.950 . S
C346 C345 1.398 . S
C346 C347 1.391 . S
C347 H335 0.950 . S
C347 C343 1.393 . S
C347 C346 1.391 . S
H348 C356 0.950 . S
H349 C361 0.950 . S
H350 C358 0.950 . S
H351 C360 0.950 . S
H352 C362 0.950 . S
H353 C364 0.950 1_554 S
H354 C366 0.950 . S
H355 C367 0.950 . S
C356 H348 0.950 . S
C356 C357 1.386 . S
C356 C358 1.391 . S
C357 C356 1.386 . S
C357 C361 1.393 . S
C358 H350 0.950 . S
C358 C356 1.391 . S
C358 C359 1.400 . S
C359 C358 1.400 . S
C359 C360 1.398 . S
C359 C365 1.491 1_554 S
C360 H351 0.950 . S
C360 C359 1.398 . S
C360 C361 1.391 . S
C361 H349 0.950 . S
C361 C357 1.393 . S
C361 C360 1.391 . S
C362 H352 0.950 . S
C362 C363 1.386 . S
C362 C364 1.391 . S
C363 C362 1.386 . S
C363 C367 1.393 . S
C364 H353 0.950 1_556 S
C364 C362 1.391 . S
C364 C365 1.400 . S
C365 C359 1.491 1_556 S
C365 C364 1.400 . S
C365 C366 1.398 . S
C366 H354 0.950 . S
C366 C365 1.398 . S
C366 C367 1.391 . S
C367 H355 0.950 . S
C367 C363 1.393 . S
C367 C366 1.391 . S
H368 C376 0.950 . S
H369 C381 0.950 . S
H370 C378 0.950 . S
H371 C380 0.950 . S
H372 C382 0.950 . S
H373 C384 0.950 . S
H374 C386 0.950 . S
H375 C387 0.950 1_554 S
C376 H368 0.950 . S
C376 C377 1.386 . S
C376 C378 1.391 . S
C377 C376 1.386 . S
C377 C381 1.393 . S
C378 H370 0.950 . S
C378 C376 1.391 . S
C378 C379 1.400 . S
C379 C378 1.400 . S
C379 C380 1.398 1_554 S
C379 C385 1.491 1_654 S
C380 H371 0.950 . S
C380 C379 1.398 1_556 S
C380 C381 1.391 1_556 S
C381 H369 0.950 . S
C381 C377 1.393 . S
C381 C380 1.391 1_554 S
C382 H372 0.950 . S
C382 C383 1.386 . S
C382 C384 1.391 . S
C383 C382 1.386 . S
C383 C387 1.393 . S
C384 H373 0.950 . S
C384 C382 1.391 . S
C384 C385 1.400 . S
C385 C379 1.491 1_456 S
C385 C384 1.400 . S
C385 C386 1.398 1_556 S
C386 H374 0.950 . S
C386 C385 1.398 1_554 S
C386 C387 1.391 1_554 S
C387 H375 0.950 1_556 S
C387 C383 1.393 . S
C387 C386 1.391 1_556 S
H388 C396 0.950 . S
H389 C401 0.950 . S
H390 C398 0.950 . S
H391 C400 0.950 1_655 S
H392 C402 0.950 . S
H393 C404 0.950 . S
H394 C406 0.950 1_455 S
H395 C407 0.950 . S
C396 H388 0.950 . S
C396 C397 1.386 . S
C396 C398 1.391 . S
C397 C396 1.386 . S
C397 C401 1.393 . S
C398 H390 0.950 . S
C398 C396 1.391 . S
C398 C399 1.400 . S
C399 C398 1.400 . S
C399 C400 1.398 . S
C399 C405 1.491 1_455 S
C400 H391 0.950 1_455 S
C400 C399 1.398 . S
C400 C401 1.391 . S
C401 H389 0.950 . S
C401 C397 1.393 . S
C401 C400 1.391 . S
C402 H392 0.950 . S
C402 C403 1.386 . S
C402 C404 1.391 . S
C403 C402 1.386 . S
C403 C407 1.393 . S
C404 H393 0.950 . S
C404 C402 1.391 . S
C404 C405 1.400 . S
C405 C399 1.491 1_655 S
C405 C404 1.400 . S
C405 C406 1.398 . S
C406 H394 0.950 1_655 S
C406 C405 1.398 . S
C406 C407 1.391 . S
C407 H395 0.950 . S
C407 C403 1.393 . S
C407 C406 1.391 . S
H408 C416 0.950 . S
H409 C421 0.950 1_554 S
H410 C418 0.950 1_565 S
H411 C420 0.950 . S
H412 C422 0.950 . S
H413 C424 0.950 1_545 S
H414 C426 0.950 . S
H415 C427 0.950 . S
C416 H408 0.950 . S
C416 C417 1.386 . S
C416 C418 1.391 . S
C417 C416 1.386 . S
C417 C421 1.393 . S
C418 H410 0.950 1_545 S
C418 C416 1.391 . S
C418 C419 1.400 . S
C419 C418 1.400 . S
C419 C420 1.398 1_556 S
C419 C425 1.491 1_546 S
C420 H411 0.950 . S
C420 C419 1.398 1_554 S
C420 C421 1.391 1_554 S
C421 H409 0.950 1_556 S
C421 C417 1.393 . S
C421 C420 1.391 1_556 S
C422 H412 0.950 . S
C422 C423 1.386 . S
C422 C424 1.391 . S
C423 C422 1.386 . S
C423 C427 1.393 . S
C424 H413 0.950 1_565 S
C424 C422 1.391 . S
C424 C425 1.400 . S
C425 C419 1.491 1_564 S
C425 C424 1.400 . S
C425 C426 1.398 1_554 S
C426 H414 0.950 . S
C426 C425 1.398 1_556 S
C426 C427 1.391 1_556 S
C427 H415 0.950 . S
C427 C423 1.393 . S
C427 C426 1.391 1_554 S
H428 C436 0.950 . S
H429 C441 0.950 . S
H430 C438 0.950 1_545 S
H431 C440 0.950 . S
H432 C442 0.950 . S
H433 C444 0.950 1_565 S
H434 C446 0.950 . S
H435 C447 0.950 . S
C436 H428 0.950 . S
C436 C437 1.386 . S
C436 C438 1.391 . S
C437 C436 1.386 . S
C437 C441 1.393 . S
C438 H430 0.950 1_565 S
C438 C436 1.391 . S
C438 C439 1.400 . S
C439 C438 1.400 . S
C439 C440 1.398 . S
C439 C445 1.491 1_565 S
C440 H431 0.950 . S
C440 C439 1.398 . S
C440 C441 1.391 . S
C441 H429 0.950 . S
C441 C437 1.393 . S
C441 C440 1.391 . S
C442 H432 0.950 . S
C442 C443 1.386 . S
C442 C444 1.391 . S
C443 C442 1.386 . S
C443 C447 1.393 . S
C444 H433 0.950 1_545 S
C444 C442 1.391 . S
C444 C445 1.400 . S
C445 C439 1.491 1_545 S
C445 C444 1.400 . S
C445 C446 1.398 . S
C446 H434 0.950 . S
C446 C445 1.398 . S
C446 C447 1.391 . S
C447 H435 0.950 . S
C447 C443 1.393 . S
C447 C446 1.391 . S
H448 C456 0.950 . S
H449 C461 0.950 . S
H450 C458 0.950 . S
H451 C460 0.950 . S
H452 C462 0.950 . S
H453 C464 0.950 . S
H454 C466 0.950 . S
H455 C467 0.950 . S
C456 H448 0.950 . S
C456 C457 1.386 . S
C456 C458 1.391 . S
C457 C456 1.386 . S
C457 C461 1.393 . S
C458 H450 0.950 . S
C458 C456 1.391 . S
C458 C459 1.400 . S
C459 C458 1.400 . S
C459 C460 1.398 . S
C459 C465 1.491 . S
C460 H451 0.950 . S
C460 C459 1.398 . S
C460 C461 1.391 . S
C461 H449 0.950 . S
C461 C457 1.393 . S
C461 C460 1.391 . S
C462 H452 0.950 . S
C462 C463 1.386 . S
C462 C464 1.391 . S
C463 C462 1.386 . S
C463 C467 1.393 . S
C464 H453 0.950 . S
C464 C462 1.391 . S
C464 C465 1.400 . S
C465 C459 1.491 . S
C465 C464 1.400 . S
C465 C466 1.398 . S
C466 H454 0.950 . S
C466 C465 1.398 . S
C466 C467 1.391 . S
C467 H455 0.950 . S
C467 C463 1.393 . S
C467 C466 1.391 . S
H468 C476 0.950 . S
H469 C481 0.950 . S
H470 C478 0.950 . S
H471 C480 0.950 . S
H472 C482 0.950 . S
H473 C484 0.950 . S
H474 C486 0.950 . S
H475 C487 0.950 . S
C476 H468 0.950 . S
C476 C477 1.386 . S
C476 C478 1.391 . S
C477 C476 1.386 . S
C477 C481 1.393 . S
C478 H470 0.950 . S
C478 C476 1.391 . S
C478 C479 1.400 . S
C479 C478 1.400 . S
C479 C480 1.398 . S
C479 C485 1.491 1_556 S
C480 H471 0.950 . S
C480 C479 1.398 . S
C480 C481 1.391 . S
C481 H469 0.950 . S
C481 C477 1.393 . S
C481 C480 1.391 . S
C482 H472 0.950 . S
C482 C483 1.386 . S
C482 C484 1.391 . S
C483 C482 1.386 . S
C483 C487 1.393 . S
C484 H473 0.950 . S
C484 C482 1.391 . S
C484 C485 1.400 . S
C485 C479 1.491 1_554 S
C485 C484 1.400 . S
C485 C486 1.398 . S
C486 H474 0.950 . S
C486 C485 1.398 . S
C486 C487 1.391 . S
C487 H475 0.950 . S
C487 C483 1.393 . S
C487 C486 1.391 . S
H488 C496 0.950 . S
H489 C501 0.950 . S
H490 C498 0.950 . S
H491 C500 0.950 . S
H492 C502 0.950 . S
H493 C504 0.950 . S
H494 C506 0.950 . S
H495 C507 0.950 . S
C496 H488 0.950 . S
C496 C497 1.386 . S
C496 C498 1.391 . S
C497 C496 1.386 . S
C497 C501 1.393 . S
C498 H490 0.950 . S
C498 C496 1.391 . S
C498 C499 1.400 . S
C499 C498 1.400 . S
C499 C500 1.398 . S
C499 C505 1.491 . S
C500 H491 0.950 . S
C500 C499 1.398 . S
C500 C501 1.391 . S
C501 H489 0.950 . S
C501 C497 1.393 . S
C501 C500 1.391 . S
C502 H492 0.950 . S
C502 C503 1.386 . S
C502 C504 1.391 . S
C503 C502 1.386 . S
C503 C507 1.393 . S
C504 H493 0.950 . S
C504 C502 1.391 . S
C504 C505 1.400 . S
C505 C499 1.491 . S
C505 C504 1.400 . S
C505 C506 1.398 . S
C506 H494 0.950 . S
C506 C505 1.398 . S
C506 C507 1.391 . S
C507 H495 0.950 . S
C507 C503 1.393 . S
C507 C506 1.391 . S
H508 C516 0.950 . S
H509 C521 0.950 . S
H510 C518 0.956 . S
H511 C520 0.950 . S
H512 C522 0.950 . S
H513 C524 0.950 . S
H514 C526 0.950 . S
H515 C527 0.950 . S
C516 H508 0.950 . S
C516 C517 1.386 . S
C516 C518 1.391 . S
C517 C516 1.386 . S
C517 C521 1.393 . S
C518 H510 0.956 . S
C518 C516 1.391 . S
C518 C519 1.400 . S
C519 C518 1.400 . S
C519 C520 1.398 . S
C519 C525 1.491 1_554 S
C520 H511 0.950 . S
C520 C519 1.398 . S
C520 C521 1.391 . S
C521 H509 0.950 . S
C521 C517 1.393 . S
C521 C520 1.391 . S
C522 H512 0.950 . S
C522 C523 1.386 . S
C522 C524 1.391 . S
C523 C522 1.386 . S
C523 C527 1.393 . S
C524 H513 0.950 . S
C524 C522 1.391 . S
C524 C525 1.400 . S
C525 C519 1.491 1_556 S
C525 C524 1.400 . S
C525 C526 1.398 . S
C526 H514 0.950 . S
C526 C525 1.398 . S
C526 C527 1.391 . S
C527 H515 0.950 . S
C527 C523 1.393 . S
C527 C526 1.391 . S
H528 C536 0.950 . S
H529 C541 0.950 . S
H530 C538 0.950 . S
H531 C540 0.950 . S
H532 C542 0.950 . S
H533 C544 0.950 . S
H534 C546 0.950 . S
H535 C547 0.950 . S
C536 H528 0.950 . S
C536 C537 1.386 . S
C536 C538 1.391 . S
C537 C536 1.386 . S
C537 C541 1.393 . S
C538 H530 0.950 . S
C538 C536 1.391 . S
C538 C539 1.400 . S
C539 C538 1.400 . S
C539 C540 1.398 . S
C539 C545 1.491 . S
C540 H531 0.950 . S
C540 C539 1.398 . S
C540 C541 1.391 . S
C541 H529 0.950 . S
C541 C537 1.393 . S
C541 C540 1.391 . S
C542 H532 0.950 . S
C542 C543 1.386 . S
C542 C544 1.391 . S
C543 C542 1.386 . S
C543 C547 1.393 . S
C544 H533 0.950 . S
C544 C542 1.391 . S
C544 C545 1.400 . S
C545 C539 1.491 . S
C545 C544 1.400 . S
C545 C546 1.398 . S
C546 H534 0.950 . S
C546 C545 1.398 . S
C546 C547 1.391 . S
C547 H535 0.950 . S
C547 C543 1.393 . S
C547 C546 1.391 . S
H548 C556 0.950 . S
H549 C561 0.950 . S
H550 C558 0.950 . S
H551 C560 0.950 . S
H552 C562 0.950 . S
H553 C564 0.950 . S
H554 C566 0.950 . S
H555 C567 0.950 . S
C556 H548 0.950 . S
C556 C557 1.386 . S
C556 C558 1.391 . S
C557 C556 1.386 . S
C557 C561 1.393 . S
C558 H550 0.950 . S
C558 C556 1.391 . S
C558 C559 1.400 . S
C559 C558 1.400 . S
C559 C560 1.398 . S
C559 C565 1.491 . S
C560 H551 0.950 . S
C560 C559 1.398 . S
C560 C561 1.391 . S
C561 H549 0.950 . S
C561 C557 1.393 . S
C561 C560 1.391 . S
C562 H552 0.950 . S
C562 C563 1.386 . S
C562 C564 1.391 . S
C563 C562 1.386 . S
C563 C567 1.393 . S
C564 H553 0.950 . S
C564 C562 1.391 . S
C564 C565 1.400 . S
C565 C559 1.491 . S
C565 C564 1.400 . S
C565 C566 1.398 . S
C566 H554 0.950 . S
C566 C565 1.398 . S
C566 C567 1.391 . S
C567 H555 0.950 . S
C567 C563 1.393 . S
C567 C566 1.391 . S
H568 C576 0.950 . S
H569 C581 0.950 . S
H570 C578 0.950 . S
H571 C580 0.950 . S
H572 C582 0.950 . S
H573 C584 0.950 . S
H574 C586 0.950 . S
H575 C587 0.950 . S
C576 H568 0.950 . S
C576 C577 1.386 . S
C576 C578 1.391 . S
C577 C576 1.386 . S
C577 C581 1.393 . S
C578 H570 0.950 . S
C578 C576 1.391 . S
C578 C579 1.400 . S
C579 C578 1.400 . S
C579 C580 1.398 . S
C579 C585 1.491 1_455 S
C580 H571 0.950 . S
C580 C579 1.398 . S
C580 C581 1.391 . S
C581 H569 0.950 . S
C581 C577 1.393 . S
C581 C580 1.391 . S
C582 H572 0.950 . S
C582 C583 1.386 . S
C582 C584 1.391 . S
C583 C582 1.386 . S
C583 C587 1.393 . S
C584 H573 0.950 . S
C584 C582 1.391 . S
C584 C585 1.400 . S
C585 C579 1.491 1_655 S
C585 C584 1.400 . S
C585 C586 1.398 . S
C586 H574 0.950 . S
C586 C585 1.398 . S
C586 C587 1.391 . S
C587 H575 0.950 . S
C587 C583 1.393 . S
C587 C586 1.391 . S
H588 C596 0.950 . S
H589 C601 0.950 . S
H590 C598 0.950 . S
H591 C600 0.950 . S
H592 C602 0.950 . S
H593 C604 0.950 . S
H594 C606 0.950 . S
H595 C607 0.950 . S
C596 H588 0.950 . S
C596 C597 1.386 . S
C596 C598 1.391 . S
C597 C596 1.386 . S
C597 C601 1.393 . S
C598 H590 0.950 . S
C598 C596 1.391 . S
C598 C599 1.400 . S
C599 C598 1.400 . S
C599 C600 1.398 . S
C599 C605 1.491 1_455 S
C600 H591 0.950 . S
C600 C599 1.398 . S
C600 C601 1.391 . S
C601 H589 0.950 . S
C601 C597 1.393 . S
C601 C600 1.391 . S
C602 H592 0.950 . S
C602 C603 1.386 . S
C602 C604 1.391 . S
C603 C602 1.386 . S
C603 C607 1.393 . S
C604 H593 0.950 . S
C604 C602 1.391 . S
C604 C605 1.400 . S
C605 C599 1.491 1_655 S
C605 C604 1.400 . S
C605 C606 1.398 . S
C606 H594 0.950 . S
C606 C605 1.398 . S
C606 C607 1.391 . S
C607 H595 0.950 . S
C607 C603 1.393 . S
C607 C606 1.391 . S
C297 C3 1.720 . S
C303 C76 1.732 . S
C317 C112 1.732 . S
C323 C39 1.723 . S
C337 C220 1.732 . S
C343 C147 1.722 . S
C357 C183 1.720 . S
C363 C256 1.732 . S
C377 C38 1.337 . S
C383 C122 1.245 . S
C397 C2 1.339 . S
C403 C86 1.244 . S
C417 C266 1.282 . S
C423 C182 1.343 . S
C437 C146 1.341 . S
C443 C230 1.246 . S
C457 C194 1.439 . S
C463 C110 1.503 . S
C477 C74 1.501 . S
C483 C158 1.462 . S
C497 C50 1.455 . S
C503 C254 1.506 . S
C517 C14 1.462 . S
C523 C218 1.500 . S
C537 C4 1.561 . S
C543 C40 1.561 . S
C557 C75 1.549 . S
C563 C111 1.541 . S
C577 C184 1.562 . S
C583 C148 1.561 . S
C597 C219 1.542 . S
C603 C255 1.546 . S
