# Generated by pormake.
# Topology bcg, (8)-cn, num edge types: 1
# Building blocks:
#     Node 0, Type 0, BuildingBlock: NUHRAL_clean_sbu_3, # of connection points: 8
#     Node 1, Type 0, BuildingBlock: NUHRAL_clean_sbu_3, # of connection points: 8
#     Node 2, Type 0, BuildingBlock: NUHRAL_clean_sbu_3, # of connection points: 8
#     Node 3, Type 0, BuildingBlock: NUHRAL_clean_sbu_3, # of connection points: 8
#     Edge 4, Type (0, 0), BuildingBlock: EZIPEK_clean_linker_0, # of connection points: 2
#     Edge 5, Type (0, 0), BuildingBlock: EZIPEK_clean_linker_0, # of connection points: 2
#     Edge 6, Type (0, 0), BuildingBlock: EZIPEK_clean_linker_0, # of connection points: 2
#     Edge 7, Type (0, 0), BuildingBlock: EZIPEK_clean_linker_0, # of connection points: 2
#     Edge 8, Type (0, 0), BuildingBlock: EZIPEK_clean_linker_0, # of connection points: 2
#     Edge 9, Type (0, 0), BuildingBlock: EZIPEK_clean_linker_0, # of connection points: 2
#     Edge 10, Type (0, 0), BuildingBlock: EZIPEK_clean_linker_0, # of connection points: 2
#     Edge 11, Type (0, 0), BuildingBlock: EZIPEK_clean_linker_0, # of connection points: 2
#     Edge 12, Type (0, 0), BuildingBlock: EZIPEK_clean_linker_0, # of connection points: 2
#     Edge 13, Type (0, 0), BuildingBlock: EZIPEK_clean_linker_0, # of connection points: 2
#     Edge 14, Type (0, 0), BuildingBlock: EZIPEK_clean_linker_0, # of connection points: 2
#     Edge 15, Type (0, 0), BuildingBlock: EZIPEK_clean_linker_0, # of connection points: 2
#     Edge 16, Type (0, 0), BuildingBlock: EZIPEK_clean_linker_0, # of connection points: 2
#     Edge 17, Type (0, 0), BuildingBlock: EZIPEK_clean_linker_0, # of connection points: 2
#     Edge 18, Type (0, 0), BuildingBlock: EZIPEK_clean_linker_0, # of connection points: 2
#     Edge 19, Type (0, 0), BuildingBlock: EZIPEK_clean_linker_0, # of connection points: 2
# Relax obj value: 0.197
# Max RMSD: 0.289
# Mean RMSD: 0.289
data_MOF--net-bcg--node1-NUHRAL_clean_sbu_3--edge1-EZIPEK_clean_linker_0
_symmetry_space_group_name_H-M    P1
_symmetry_Int_Tables_number       1
_symmetry_cell_setting            triclinic
loop_
_symmetry_equiv_pos_as_xyz
'x, y, z'
_cell_length_a     16.925107
_cell_length_b     12.499379
_cell_length_c     25.888112
_cell_angle_alpha  81.706494
_cell_angle_beta   90.245106
_cell_angle_gamma 89.878204
loop_
_atom_site_label
_atom_site_type_symbol
_atom_site_fract_x
_atom_site_fract_y
_atom_site_fract_z
_atom_type_partial_charge
C0 C 0.06373 0.26545 0.07612 0.0
C1 C 0.99742 0.24632 0.04579 0.0
C2 C 0.93051 0.1914 0.06888 0.0
C3 C 0.93122 0.16367 0.12375 0.0
C4 C 0.99023 0.20138 0.15439 0.0
C5 C 0.0588 0.24541 0.13046 0.0
O6 O 0.20596 0.07662 0.9795 0.0
Tb7 Tb 0.22805 0.24461 0.98497 0.0
O8 O 0.18287 0.28062 0.90643 0.0
O9 O 0.2287 -0.01376 0.06032 0.0
Eu10 Eu 0.35296 0.04843 0.05582 0.0
O11 O 0.13865 0.34703 1.00319 0.0
C12 C 0.43096 0.00316 0.97569 0.0
O13 O 0.19902 0.23514 0.06397 0.0
O14 O 0.3655 0.22209 0.06379 0.0
O15 O 0.34635 0.31107 0.98298 0.0
C16 C 0.13964 0.30281 0.05252 0.0
C17 C 0.40066 0.07032 0.16935 0.0
O18 O 0.34332 0.14184 0.16196 0.0
C19 C 0.18193 0.00919 0.01969 0.0
C20 C 0.39107 0.28998 0.02464 0.0
O21 O 0.41783 0.01196 0.13244 0.0
C22 C 0.50831 0.0245 0.95054 0.0
C23 C 0.59377 0.01244 0.87674 0.0
C24 C 0.51792 0.00964 0.89834 0.0
C25 C 0.57292 0.05922 0.97806 0.0
C26 C 0.65067 0.05543 0.95838 0.0
C27 C 0.65934 0.02062 0.90921 0.0
C28 C 0.2144 0.22707 0.87169 0.0
O29 O 0.27472 0.16253 0.88485 0.0
O30 O 0.43129 -0.05879 0.02141 0.0
O31 O 0.38183 0.08517 0.97324 0.0
H32 H 0.99875 0.27504 1.00442 0.0
H33 H 0.88347 0.11849 0.14405 0.0
H34 H 0.10844 0.26397 0.154 0.0
H35 H 0.46674 -0.00221 0.87451 0.0
H36 H 0.56127 0.08871 0.01455 0.0
H37 H 0.71725 0.0086 0.89346 0.0
C38 C 0.56005 0.7353 0.06232 0.0
C39 C 0.49422 0.71086 0.033 0.0
C40 C 0.42891 0.6566 0.0574 0.0
C41 C 0.43004 0.62871 0.11201 0.0
C42 C 0.49033 0.6658 0.14258 0.0
C43 C 0.55583 0.71857 0.1172 0.0
O44 O 0.71024 0.52916 0.98667 0.0
Tb45 Tb 0.72682 0.70268 0.97492 0.0
O46 O 0.68289 0.71034 0.89527 0.0
O47 O 0.74697 0.4836 0.07091 0.0
Eu48 Eu 0.8613 0.56554 0.04944 0.0
O49 O 0.63095 0.80277 0.98502 0.0
C50 C 0.92773 0.51282 0.96671 0.0
O51 O 0.69788 0.71965 0.05194 0.0
O52 O 0.86707 0.74296 0.04982 0.0
O53 O 0.83726 0.7923 0.96498 0.0
C54 C 0.6339 0.7752 0.03612 0.0
C55 C 0.91663 0.59146 0.15958 0.0
O56 O 0.84031 0.61007 0.16151 0.0
C57 C 0.69881 0.47189 0.03262 0.0
C58 C 0.87861 0.80763 1.0062 0.0
O59 O 0.945 0.55832 0.11748 0.0
C60 C 1.00061 0.54688 0.93806 0.0
C61 C 0.06921 0.61004 0.8569 0.0
C62 C 0.99944 0.5755 0.88356 0.0
C63 C 0.07147 0.55435 0.96548 0.0
C64 C 0.13939 0.59908 0.9402 0.0
C65 C 0.13666 0.62974 0.88594 0.0
C66 C 0.69955 0.63213 0.8678 0.0
O67 O 0.74642 0.55256 0.8872 0.0
O68 O 0.93689 0.45826 0.01378 0.0
O69 O 0.87196 0.58643 0.96448 0.0
H70 H 0.49368 0.73353 0.99098 0.0
H71 H 0.38 0.58623 0.13125 0.0
H72 H 0.6034 0.74639 0.14004 0.0
H73 H 0.94547 0.567 0.86182 0.0
H74 H 0.07308 0.52986 1.00736 0.0
H75 H 0.18927 0.66272 0.86589 0.0
C76 C 0.11464 0.52633 0.44436 0.0
C77 C 1.04376 0.52612 0.47193 0.0
C78 C 0.9746 0.56907 0.44738 0.0
C79 C 0.97505 0.60075 0.39319 0.0
C80 C 1.04252 0.58609 0.36359 0.0
C81 C 0.11401 0.55598 0.38981 0.0
O82 O 0.24438 0.73605 0.54833 0.0
Tb83 Tb 0.25421 0.56306 0.55017 0.0
O84 O 0.17084 0.56513 0.61352 0.0
O85 O 0.26953 0.78361 0.46294 0.0
Eu86 Eu 0.38309 0.68674 0.47298 0.0
O87 O 0.18317 0.44947 0.52117 0.0
C88 C 0.47998 0.75256 0.53945 0.0
O89 O 0.24151 0.57847 0.46867 0.0
O90 O 0.3923 0.50679 0.48532 0.0
O91 O 0.36524 0.48105 0.57108 0.0
C92 C 0.1892 0.50041 0.473 0.0
C93 C 0.41242 0.61282 0.36311 0.0
O94 O 0.3604 0.53871 0.38055 0.0
C95 C 0.2292 0.79878 0.50446 0.0
C96 C 0.40561 0.45365 0.53188 0.0
O97 O 0.43457 0.68487 0.39265 0.0
C98 C 0.55341 0.71067 0.5665 0.0
C99 C 0.62546 0.64908 0.64757 0.0
C100 C 0.55745 0.6944 0.62144 0.0
C101 C 0.61972 0.68683 0.53778 0.0
C102 C 0.68708 0.63798 0.5628 0.0
C103 C 0.68823 0.6164 0.61782 0.0
C104 C 0.19296 0.60836 0.65456 0.0
O105 O 0.26808 0.63248 0.65869 0.0
O106 O 0.48384 0.78424 0.48869 0.0
O107 O 0.41534 0.69825 0.55363 0.0
H108 H 1.04324 0.50005 0.51372 0.0
H109 H 0.92108 0.63157 0.37368 0.0
H110 H 0.16803 0.55233 0.36778 0.0
H111 H 0.50819 0.71848 0.6438 0.0
H112 H 0.61939 0.70674 0.49563 0.0
H113 H 0.74066 0.58116 0.63771 0.0
C114 C 0.59554 -0.00677 0.45871 0.0
C115 C 0.53197 0.0228 0.48882 0.0
C116 C 0.4564 0.0477 0.46613 0.0
C117 C 0.45435 0.06635 0.41108 0.0
C118 C 0.51451 0.03028 0.38079 0.0
C119 C 0.58482 -0.00913 0.40515 0.0
O120 O 0.73907 0.19267 0.56142 0.0
Tb121 Tb 0.75165 0.02308 0.55656 0.0
O122 O 0.68043 0.01198 0.6266 0.0
O123 O 0.75273 0.28416 0.48072 0.0
Eu124 Eu 0.87674 0.22071 0.48334 0.0
O125 O 0.67599 -0.08806 0.52929 0.0
C126 C 0.96514 0.27734 0.55652 0.0
O127 O 0.72451 0.04967 0.47671 0.0
O128 O 0.89244 0.04515 0.48067 0.0
O129 O 0.87369 -0.03546 0.56333 0.0
C130 C 0.67424 -0.03137 0.48218 0.0
C131 C 0.89898 0.19815 0.3684 0.0
O132 O 0.8365 0.13757 0.38018 0.0
C133 C 0.70924 0.25784 0.52222 0.0
C134 C 0.91931 -0.0169 0.5219 0.0
O135 O 0.93013 0.25091 0.40369 0.0
C136 C 1.04317 0.24981 0.58023 0.0
C137 C 0.12484 0.22115 0.65785 0.0
C138 C 1.05359 0.25482 0.63333 0.0
C139 C 0.10668 0.21805 0.55083 0.0
C140 C 0.1828 0.19689 0.57351 0.0
C141 C 0.18563 0.18429 0.62859 0.0
C142 C 0.71211 0.04169 0.66862 0.0
O143 O 0.78829 0.06195 0.66851 0.0
O144 O 0.96426 0.32771 0.50829 0.0
O145 O 0.91045 0.20254 0.56558 0.0
H146 H 0.54447 0.02977 0.52895 0.0
H147 H 0.4044 0.10584 0.39029 0.0
H148 H 0.63192 -0.03734 0.38222 0.0
H149 H 1.00538 0.28094 0.6559 0.0
H150 H 0.09358 0.20622 0.51139 0.0
H151 H 0.23567 0.14759 0.65029 0.0
C152 C 0.78927 0.13692 0.95774 0.0
C153 C 0.72218 0.09313 0.98641 0.0
C154 C 0.78346 0.15505 0.06208 0.0
C155 C 0.8586 0.16527 0.03772 0.0
N156 N 0.93063 0.13443 0.95961 0.0
N157 N 0.67493 0.03211 0.07459 0.0
C158 C 0.86142 0.14839 0.98445 0.0
C159 C 0.72398 0.09436 0.04124 0.0
N160 N 0.78261 0.17235 0.90572 0.0
N161 N 0.76849 0.20622 0.10388 0.0
H162 H 0.63885 -0.02707 0.06276 0.0
H163 H 0.67926 0.02939 0.11501 0.0
H164 H 0.71304 0.20629 0.12136 0.0
H165 H 0.71304 0.20629 0.12136 0.0
H166 H 0.82771 0.21255 0.88341 0.0
H167 H 0.82771 0.21255 0.88341 0.0
H168 H 0.93197 0.11781 0.9213 0.0
H169 H 0.98433 0.12104 0.97905 0.0
C170 C 0.21162 0.66687 0.01522 0.0
C171 C 0.21373 0.61249 0.97041 0.0
C172 C 0.35768 0.5866 0.98198 0.0
C173 C 0.35544 0.63945 0.02686 0.0
N174 N 0.28613 0.74137 0.08244 0.0
N175 N 0.29127 0.50515 0.91702 0.0
C176 C 0.28302 0.68118 0.04269 0.0
C177 C 0.28689 0.56945 0.95518 0.0
N178 N 0.14162 0.7052 0.03148 0.0
N179 N 0.42729 0.549 0.96491 0.0
H180 H 0.24294 0.4781 0.89752 0.0
H181 H 0.24294 0.4781 0.89752 0.0
H182 H 0.48048 0.54977 0.98513 0.0
H183 H 0.43146 0.51474 0.93054 0.0
H184 H 0.13157 0.72412 0.0687 0.0
H185 H 0.09119 0.71549 1.0083 0.0
H186 H 0.23862 0.78055 0.09704 0.0
H187 H 0.23862 0.78055 0.09704 0.0
C188 C 0.75738 0.55941 0.48957 0.0
C189 C 0.7598 0.62004 0.53193 0.0
C190 C 0.90345 0.64174 0.52094 0.0
C191 C 0.90162 0.58144 0.4783 0.0
N192 N 0.82324 0.47241 0.42626 0.0
N193 N 0.83451 0.73608 0.58032 0.0
C194 C 0.82808 0.53859 0.46358 0.0
C195 C 0.83283 0.66384 0.54582 0.0
N196 N 0.68778 0.51899 0.47388 0.0
N197 N 0.97046 0.68736 0.53727 0.0
H198 H 0.88638 0.76084 0.59702 0.0
H199 H 0.78471 0.78119 0.58564 0.0
H200 H 1.02606 0.68573 0.52041 0.0
H201 H 1.02606 0.68573 0.52041 0.0
H202 H 0.68333 0.48 0.44093 0.0
H203 H 0.63482 0.52198 0.49383 0.0
H204 H 0.87149 0.44416 0.40728 0.0
H205 H 0.87149 0.44416 0.40728 0.0
C206 C 0.2533 0.15936 0.48968 0.0
C207 C 0.25693 0.17582 0.54265 0.0
C208 C 0.3851 0.08201 0.55009 0.0
C209 C 0.38195 0.06691 0.49705 0.0
N210 N 0.28558 0.03424 0.43184 0.0
N211 N 0.35422 0.20877 0.60747 0.0
C212 C 0.30796 0.08884 0.47117 0.0
C213 C 0.33098 0.15351 0.56853 0.0
N214 N 0.20691 0.22241 0.45446 0.0
N215 N 0.42985 0.01631 0.58524 0.0
H216 H 0.32313 0.27629 0.61565 0.0
H217 H 0.4086 0.19484 0.62638 0.0
H218 H 0.45506 -0.05447 0.57584 0.0
H219 H 0.42932 0.02176 0.6251 0.0
H220 H 0.20741 0.21648 0.41465 0.0
H221 H 0.17959 0.29187 0.46345 0.0
H222 H 0.23064 0.04556 0.41344 0.0
H223 H 0.31809 -0.03133 0.42324 0.0
C224 C 0.6072 0.35405 0.9922 0.0
C225 C 0.63148 0.39496 0.03792 0.0
C226 C 0.5001 0.36157 0.0752 0.0
C227 C 0.47303 0.33038 0.02742 0.0
N228 N 0.5016 0.2992 0.93896 0.0
N229 N 0.60609 0.3986 0.13008 0.0
C230 C 0.52683 0.3265 0.98553 0.0
C231 C 0.58048 0.38593 0.08151 0.0
N232 N 0.66301 0.33685 0.95628 0.0
N233 N 0.4486 0.37245 0.11471 0.0
H234 H 0.66508 0.40693 0.14038 0.0
H235 H 0.66508 0.40693 0.14038 0.0
H236 H 0.38739 0.37014 0.11042 0.0
H237 H 0.46707 0.39274 0.15059 0.0
H238 H 0.65169 0.30191 0.92302 0.0
H239 H 0.72321 0.34766 0.96277 0.0
H240 H 0.53358 0.31601 0.90461 0.0
H241 H 0.44736 0.26439 0.93304 0.0
C242 C 0.5719 0.29479 0.48505 0.0
C243 C 0.62749 0.29881 0.52617 0.0
C244 C 0.52375 0.36256 0.58039 0.0
C245 C 0.47185 0.37391 0.537 0.0
N246 N 0.43513 0.31491 0.45603 0.0
N247 N 0.6595 0.35731 0.60885 0.0
C248 C 0.49285 0.32893 0.49161 0.0
C249 C 0.604 0.33646 0.57309 0.0
N250 N 0.5946 0.26024 0.43954 0.0
N251 N 0.49661 0.37165 0.62908 0.0
H252 H 0.72011 0.35148 0.60277 0.0
H253 H 0.6461 0.39305 0.64171 0.0
H254 H 0.4378 0.38613 0.63719 0.0
H255 H 0.53017 0.3476 0.66261 0.0
H256 H 0.56082 0.26963 0.40556 0.0
H257 H 0.64865 0.2238 0.43445 0.0
H258 H 0.44403 0.28448 0.42127 0.0
H259 H 0.37541 0.32654 0.46354 0.0
C260 C 0.07879 -0.07457 0.96888 0.0
C261 C 0.10294 -0.04146 0.0168 0.0
C262 C 0.97035 -0.08247 0.05234 0.0
C263 C 0.94734 -0.1174 1.00468 0.0
N264 N 0.97014 -0.10213 0.91178 0.0
N265 N 0.07235 -0.01653 0.1055 0.0
C266 C 0.99846 -0.1005 0.96109 0.0
C267 C 1.04902 -0.04659 0.05909 0.0
N268 N 0.13403 -0.09101 0.93241 0.0
N269 N 0.91409 -0.07591 0.08952 0.0
H270 H 0.12376 0.02629 0.11034 0.0
H271 H 1.0416 -0.03604 0.14021 0.0
H272 H 0.85397 -0.08547 0.08226 0.0
H273 H 0.92468 -0.05326 0.12588 0.0
H274 H 0.12078 0.87396 0.89936 0.0
H275 H 0.19462 -0.08396 0.93849 0.0
H276 H 1.00413 -0.07923 0.87868 0.0
H277 H 0.91041 -0.10697 0.90302 0.0
C278 C 0.05836 -0.05645 0.55832 0.0
C279 C 1.00055 -0.06243 0.51873 0.0
C280 C 0.10366 -0.11871 0.46136 0.0
C281 C 0.15843 0.87152 0.50316 0.0
N282 N 0.19747 -0.06756 0.58284 0.0
N283 N 0.96634 0.87686 0.43707 0.0
C284 C 0.13816 -0.0865 0.54945 0.0
C285 C 1.02306 -0.09796 0.47111 0.0
N286 N 1.03743 -0.02335 0.60445 0.0
N287 N 0.12787 0.87628 0.41165 0.0
H288 H 0.90599 0.87841 0.44493 0.0
H289 H 0.97921 0.84008 0.40454 0.0
H290 H 0.18602 0.86509 0.40102 0.0
H291 H 0.09181 -0.09684 0.37985 0.0
H292 H 0.07357 -0.03156 0.63738 0.0
H293 H 0.98247 0.00916 0.61109 0.0
H294 H 0.18972 -0.03021 0.61575 0.0
H295 H 0.25682 -0.08059 0.57481 0.0
C296 C 0.53935 0.08762 0.28369 0.0
C297 C 0.49702 0.02467 0.3246 0.0
C298 C 0.39384 -0.01033 0.26286 0.0
C299 C 0.4373 0.04745 0.22147 0.0
N300 N 0.55794 0.13556 0.1901 0.0
N301 N 0.39152 -0.10128 0.35047 0.0
C302 C 0.51267 0.09049 0.23107 0.0
C303 C 0.42772 -0.03103 0.31284 0.0
N304 N 0.60103 0.15064 0.29519 0.0
N305 N 0.31869 -0.04526 0.25643 0.0
H306 H 0.41622 0.87674 0.38741 0.0
H307 H 0.33818 0.86085 0.34428 0.0
H308 H 0.28693 -0.03146 0.22146 0.0
H309 H 0.28693 -0.03146 0.22146 0.0
H310 H 0.62835 0.20745 0.26765 0.0
H311 H 0.6212 0.15256 0.33312 0.0
H312 H 0.61626 0.1592 0.19431 0.0
H313 H 0.53914 0.14143 0.15134 0.0
C314 C 0.40639 0.70432 0.21725 0.0
C315 C 0.4777 0.66079 0.20035 0.0
C316 C 0.51091 0.59393 0.29225 0.0
C317 C 0.43511 0.62685 0.3074 0.0
N318 N 0.307 0.70631 0.28165 0.0
N319 N 0.59578 0.55453 0.22197 0.0
C320 C 0.38176 0.67826 0.26938 0.0
C321 C 0.53002 0.60372 0.23798 0.0
N322 N 0.36133 0.77235 0.18317 0.0
N323 N 0.56461 0.55372 0.32973 0.0
H324 H 0.61288 0.5622 0.18311 0.0
H325 H 0.63087 0.50079 0.24667 0.0
H326 H 0.55129 0.54123 0.36947 0.0
H327 H 0.62364 0.53924 0.32188 0.0
H328 H 0.3049 0.79731 0.19227 0.0
H329 H 0.38274 0.80781 0.14705 0.0
H330 H 0.28256 0.69068 0.31891 0.0
H331 H 0.28256 0.69068 0.31891 0.0
C332 C 0.69674 0.71715 0.72208 0.0
C333 C 0.63704 0.65002 0.70519 0.0
C334 C 0.61155 0.57786 0.79747 0.0
C335 C 0.67548 0.6404 0.81256 0.0
N336 N 0.77898 0.77206 0.78733 0.0
N337 N 0.53651 0.51536 0.72712 0.0
C338 C 0.71797 0.70941 0.77467 0.0
C339 C 0.59356 0.58037 0.74314 0.0
N340 N 0.73298 0.79477 0.68862 0.0
N341 N 0.56676 0.51926 0.83527 0.0
H342 H 0.51874 0.52127 0.68832 0.0
H343 H 0.50829 0.45383 0.75148 0.0
H344 H 0.57886 0.51608 0.87503 0.0
H345 H 0.51515 0.47892 0.82796 0.0
H346 H 0.71454 0.81631 0.65019 0.0
H347 H 0.71454 0.81631 0.65019 0.0
H348 H 0.79979 0.77335 0.82525 0.0
H349 H 0.79979 0.77335 0.82525 0.0
C350 C 0.5865 -0.0503 0.78739 0.0
C351 C 0.60641 0.02909 0.81914 0.0
C352 C 0.67914 0.132 0.74682 0.0
C353 C 0.66487 0.04813 0.71652 0.0
N354 N 0.57715 -0.08998 0.69791 0.0
N355 N 0.63946 0.21584 0.82116 0.0
C356 C 0.60874 -0.0327 0.73374 0.0
C357 C 0.64293 0.12672 0.79632 0.0
N358 N 0.55089 0.8559 0.80879 0.0
N359 N 0.72599 0.21767 0.72811 0.0
H360 H 0.60861 0.21539 0.85584 0.0
H361 H 0.65863 0.29234 0.80479 0.0
H362 H 0.74481 0.23259 0.68949 0.0
H363 H 0.74743 0.2728 0.7513 0.0
H364 H 0.54077 0.7914 0.78836 0.0
H365 H 0.53641 0.83934 0.84822 0.0
H366 H 0.53112 0.85484 0.70571 0.0
H367 H 0.53112 0.85484 0.70571 0.0
C368 C 0.99868 0.69635 0.27991 0.0
C369 C 1.03437 0.60028 0.30544 0.0
C370 C 1.02346 0.52498 0.22363 0.0
C371 C 0.96751 0.60505 0.20515 0.0
N372 N 0.90804 0.77789 0.21329 0.0
N373 N 0.07822 0.41717 0.30046 0.0
C374 C 0.95706 0.69455 0.23246 0.0
C375 C 1.0483 0.51349 0.2767 0.0
N376 N 1.00657 0.7895 0.30086 0.0
N377 N 1.05226 0.46142 0.1898 0.0
H378 H 0.09223 0.40115 0.33996 0.0
H379 H 0.0829 0.34929 0.28168 0.0
H380 H 0.09981 0.40882 0.19877 0.0
H381 H 0.09981 0.40882 0.19877 0.0
H382 H 0.98733 0.86491 0.28268 0.0
H383 H 1.04172 0.79111 0.33366 0.0
H384 H 0.89123 0.83852 0.23475 0.0
H385 H 0.88203 0.7846 0.17647 0.0
C386 C 0.99948 0.1557 0.3037 0.0
C387 C 0.92974 0.2108 0.31489 0.0
C388 C 0.90975 0.27506 0.22245 0.0
C389 C 0.97375 0.20888 0.21013 0.0
N390 N 0.07674 0.07977 0.23917 0.0
N391 N 0.82194 0.33175 0.28599 0.0
C392 C 1.01868 0.14844 0.25082 0.0
C393 C 0.88599 0.27254 0.27461 0.0
N394 N 1.04844 0.11304 0.34353 0.0
N395 N 0.87005 0.34295 0.18522 0.0
H396 H 0.80356 0.33605 0.32407 0.0
H397 H 0.78777 0.37752 0.25716 0.0
H398 H 0.88452 0.35588 0.1457 0.0
H399 H 0.88452 0.35588 0.1457 0.0
H400 H 0.10547 0.08609 0.33751 0.0
H401 H 1.03506 0.11398 0.38276 0.0
H402 H 0.10491 0.02401 0.26706 0.0
H403 H 0.09334 0.07313 0.2011 0.0
C404 C 0.22969 0.29649 0.77755 0.0
C405 C 0.18418 0.23892 0.81794 0.0
C406 C 0.09696 0.17175 0.75415 0.0
C407 C 0.14059 0.23258 0.71339 0.0
N408 N 0.23939 0.36784 0.68595 0.0
N409 N 0.06635 0.14023 0.84646 0.0
C410 C 0.20427 0.29963 0.72511 0.0
C411 C 0.11501 0.18266 0.80678 0.0
N412 N 0.29755 0.34731 0.78954 0.0
N413 N 1.04176 0.09871 0.74286 0.0
H414 H 0.07905 0.14336 0.88567 0.0
H415 H 1.01014 0.1109 0.84017 0.0
H416 H 1.02815 0.08605 0.70494 0.0
H417 H 1.01407 0.04397 0.77116 0.0
H418 H 0.33928 0.37889 0.76215 0.0
H419 H 0.31475 0.3533 0.82777 0.0
H420 H 0.2845 0.42123 0.69161 0.0
H421 H 0.21946 0.37723 0.64746 0.0
C422 C 0.14741 0.71678 0.72417 0.0
C423 C 0.13722 0.62605 0.69731 0.0
C424 C 0.06169 0.53438 0.77074 0.0
C425 C 0.07567 0.6223 0.79879 0.0
N426 N 0.09959 0.81292 0.79266 0.0
N427 N 1.04575 0.48288 0.68507 0.0
C428 C 0.10777 0.71909 0.7721 0.0
C429 C 0.08143 0.546 0.71698 0.0
N430 N 0.19546 0.80017 0.70452 0.0
N431 N 1.03481 0.43737 0.79529 0.0
H432 H 1.05325 0.49367 0.64483 0.0
H433 H 0.9988 0.43213 0.69776 0.0
H434 H 1.0261 0.41997 0.83535 0.0
H435 H 1.02784 0.37038 0.77607 0.0
H436 H 0.21249 0.86136 0.7256 0.0
H437 H 0.22077 0.80595 0.66775 0.0
H438 H 0.11699 -0.11185 0.77351 0.0
H439 H 0.06664 0.81574 0.8263 0.0
loop_
_geom_bond_atom_site_label_1
_geom_bond_atom_site_label_2
_geom_bond_distance
_geom_bond_site_symmetry_2
_ccdc_geom_bond_type
C0 C1 1.387 1_455 S
C0 C5 1.380 . S
C0 C16 1.494 . S
C1 C0 1.387 1_655 S
C1 C2 1.386 . S
C1 H32 0.930 . S
C2 C1 1.386 . S
C2 C3 1.397 . S
C3 C2 1.397 . S
C3 C4 1.393 . S
C3 H33 0.930 . S
C4 C3 1.393 . S
C4 C5 1.395 1_655 S
C5 C0 1.380 . S
C5 C4 1.395 1_455 S
C5 H34 0.930 . S
O6 Tb7 2.295 . S
O6 C19 1.242 1_556 S
Tb7 O6 2.295 . S
Tb7 O8 2.312 . S
Tb7 O11 2.438 . S
Tb7 O13 2.472 1_556 S
Tb7 O15 2.308 . S
Tb7 C16 2.821 1_556 S
O8 Tb7 2.312 . S
O8 C28 1.264 . S
O9 Eu10 2.308 1_565 S
O9 C19 1.243 1_565 S
Eu10 O9 2.308 1_545 S
Eu10 C12 2.821 1_554 S
Eu10 O14 2.295 . S
Eu10 O21 2.312 . S
Eu10 O30 2.438 . S
Eu10 O31 2.472 1_554 S
O11 Tb7 2.438 . S
O11 C16 1.263 1_556 S
C12 Eu10 2.821 1_556 S
C12 C22 1.494 . S
C12 O30 1.263 1_556 S
C12 O31 1.264 . S
O13 Tb7 2.472 1_554 S
O13 C16 1.264 . S
O14 Eu10 2.295 . S
O14 C20 1.242 . S
O15 Tb7 2.308 . S
O15 C20 1.243 1_556 S
C16 C0 1.494 . S
C16 Tb7 2.821 1_554 S
C16 O11 1.263 1_554 S
C16 O13 1.264 . S
C17 O18 1.260 . S
C17 O21 1.264 . S
O18 C17 1.260 . S
C19 O6 1.242 1_554 S
C19 O9 1.243 1_545 S
C20 O14 1.242 . S
C20 O15 1.243 1_554 S
O21 Eu10 2.312 . S
O21 C17 1.264 . S
C22 C12 1.494 . S
C22 C24 1.380 . S
C22 C25 1.387 . S
C23 C24 1.395 . S
C23 C27 1.393 . S
C24 C22 1.380 . S
C24 C23 1.395 . S
C24 H35 0.930 . S
C25 C22 1.387 . S
C25 C26 1.386 . S
C25 H36 0.930 . S
C26 C25 1.386 . S
C26 C27 1.397 . S
C27 C23 1.393 . S
C27 C26 1.397 . S
C27 H37 0.930 . S
C28 O8 1.264 . S
C28 O29 1.260 . S
O29 C28 1.260 . S
O30 Eu10 2.438 . S
O30 C12 1.263 1_554 S
O31 Eu10 2.472 1_556 S
O31 C12 1.264 . S
H32 C1 0.930 . S
H33 C3 0.930 . S
H34 C5 0.930 . S
H35 C24 0.930 . S
H36 C25 0.930 . S
H37 C27 0.930 . S
C38 C39 1.387 . S
C38 C43 1.380 . S
C38 C54 1.494 . S
C39 C38 1.387 . S
C39 C40 1.386 . S
C39 H70 0.930 . S
C40 C39 1.386 . S
C40 C41 1.397 . S
C41 C40 1.397 . S
C41 C42 1.393 . S
C41 H71 0.930 . S
C42 C41 1.393 . S
C42 C43 1.395 . S
C43 C38 1.380 . S
C43 C42 1.395 . S
C43 H72 0.930 . S
O44 Tb45 2.295 . S
O44 C57 1.242 1_556 S
Tb45 O44 2.295 . S
Tb45 O46 2.312 . S
Tb45 O49 2.438 . S
Tb45 O51 2.472 1_556 S
Tb45 O53 2.308 1_565 S
Tb45 C54 2.821 1_556 S
O46 Tb45 2.312 . S
O46 C66 1.264 . S
O47 Eu48 2.308 . S
O47 C57 1.243 . S
Eu48 O47 2.308 . S
Eu48 C50 2.821 1_554 S
Eu48 O52 2.295 . S
Eu48 O59 2.312 . S
Eu48 O68 2.438 . S
Eu48 O69 2.472 1_554 S
O49 Tb45 2.438 . S
O49 C54 1.263 1_556 S
C50 Eu48 2.821 1_556 S
C50 C60 1.494 . S
C50 O68 1.263 1_556 S
C50 O69 1.264 . S
O51 Tb45 2.472 1_554 S
O51 C54 1.264 . S
O52 Eu48 2.295 . S
O52 C58 1.242 . S
O53 Tb45 2.308 1_545 S
O53 C58 1.243 1_546 S
C54 C38 1.494 . S
C54 Tb45 2.821 1_554 S
C54 O49 1.263 1_554 S
C54 O51 1.264 . S
C55 O56 1.260 . S
C55 O59 1.264 . S
O56 C55 1.260 . S
C57 O44 1.242 1_554 S
C57 O47 1.243 . S
C58 O52 1.242 . S
C58 O53 1.243 1_564 S
O59 Eu48 2.312 . S
O59 C55 1.264 . S
C60 C50 1.494 . S
C60 C62 1.380 . S
C60 C63 1.387 1_655 S
C61 C62 1.395 1_455 S
C61 C65 1.393 . S
C62 C60 1.380 . S
C62 C61 1.395 1_655 S
C62 H73 0.930 . S
C63 C60 1.387 1_455 S
C63 C64 1.386 . S
C63 H74 0.930 . S
C64 C63 1.386 . S
C64 C65 1.397 . S
C65 C61 1.393 . S
C65 C64 1.397 . S
C65 H75 0.930 . S
C66 O46 1.264 . S
C66 O67 1.260 . S
O67 C66 1.260 . S
O68 Eu48 2.438 . S
O68 C50 1.263 1_554 S
O69 Eu48 2.472 1_556 S
O69 C50 1.264 . S
H70 C39 0.930 . S
H71 C41 0.930 . S
H72 C43 0.930 . S
H73 C62 0.930 . S
H74 C63 0.930 . S
H75 C65 0.930 . S
C76 C77 1.387 1_455 S
C76 C81 1.380 . S
C76 C92 1.494 . S
C77 C76 1.387 1_655 S
C77 C78 1.386 . S
C77 H108 0.930 . S
C78 C77 1.386 . S
C78 C79 1.397 . S
C79 C78 1.397 . S
C79 C80 1.393 . S
C79 H109 0.930 . S
C80 C79 1.393 . S
C80 C81 1.395 1_655 S
C81 C76 1.380 . S
C81 C80 1.395 1_455 S
C81 H110 0.930 . S
O82 Tb83 2.295 . S
O82 C95 1.242 . S
Tb83 O82 2.295 . S
Tb83 O84 2.312 . S
Tb83 O87 2.438 . S
Tb83 O89 2.472 . S
Tb83 O91 2.308 . S
Tb83 C92 2.821 . S
O84 Tb83 2.312 . S
O84 C104 1.264 . S
O85 Eu86 2.308 1_545 S
O85 C95 1.243 1_545 S
Eu86 O85 2.308 1_565 S
Eu86 C88 2.821 . S
Eu86 O90 2.295 . S
Eu86 O97 2.312 . S
Eu86 O106 2.438 . S
Eu86 O107 2.472 . S
O87 Tb83 2.438 . S
O87 C92 1.263 . S
C88 Eu86 2.821 . S
C88 C98 1.494 . S
C88 O106 1.263 . S
C88 O107 1.264 . S
O89 Tb83 2.472 . S
O89 C92 1.264 . S
O90 Eu86 2.295 . S
O90 C96 1.242 . S
O91 Tb83 2.308 . S
O91 C96 1.243 . S
C92 C76 1.494 . S
C92 Tb83 2.821 . S
C92 O87 1.263 . S
C92 O89 1.264 . S
C93 O94 1.260 . S
C93 O97 1.264 . S
O94 C93 1.260 . S
C95 O82 1.242 . S
C95 O85 1.243 1_565 S
C96 O90 1.242 . S
C96 O91 1.243 . S
O97 Eu86 2.312 . S
O97 C93 1.264 . S
C98 C88 1.494 . S
C98 C100 1.380 . S
C98 C101 1.387 . S
C99 C100 1.395 . S
C99 C103 1.393 . S
C100 C98 1.380 . S
C100 C99 1.395 . S
C100 H111 0.930 . S
C101 C98 1.387 . S
C101 C102 1.386 . S
C101 H112 0.930 . S
C102 C101 1.386 . S
C102 C103 1.397 . S
C103 C99 1.393 . S
C103 C102 1.397 . S
C103 H113 0.930 . S
C104 O84 1.264 . S
C104 O105 1.260 . S
O105 C104 1.260 . S
O106 Eu86 2.438 . S
O106 C88 1.263 . S
O107 Eu86 2.472 . S
O107 C88 1.264 . S
H108 C77 0.930 . S
H109 C79 0.930 . S
H110 C81 0.930 . S
H111 C100 0.930 . S
H112 C101 0.930 . S
H113 C103 0.930 . S
C114 C115 1.387 . S
C114 C119 1.380 . S
C114 C130 1.494 . S
C115 C114 1.387 . S
C115 C116 1.386 . S
C115 H146 0.930 . S
C116 C115 1.386 . S
C116 C117 1.397 . S
C117 C116 1.397 . S
C117 C118 1.393 . S
C117 H147 0.930 . S
C118 C117 1.393 . S
C118 C119 1.395 . S
C119 C114 1.380 . S
C119 C118 1.395 . S
C119 H148 0.930 . S
O120 Tb121 2.295 . S
O120 C133 1.242 . S
Tb121 O120 2.295 . S
Tb121 O122 2.312 . S
Tb121 O125 2.438 . S
Tb121 O127 2.472 . S
Tb121 O129 2.308 1_545 S
Tb121 C130 2.821 . S
O122 Tb121 2.312 . S
O122 C142 1.264 . S
O123 Eu124 2.308 . S
O123 C133 1.243 . S
Eu124 O123 2.308 . S
Eu124 C126 2.821 . S
Eu124 O128 2.295 . S
Eu124 O135 2.312 . S
Eu124 O144 2.438 . S
Eu124 O145 2.472 . S
O125 Tb121 2.438 . S
O125 C130 1.263 . S
C126 Eu124 2.821 . S
C126 C136 1.494 . S
C126 O144 1.263 . S
C126 O145 1.264 . S
O127 Tb121 2.472 . S
O127 C130 1.264 . S
O128 Eu124 2.295 . S
O128 C134 1.242 . S
O129 Tb121 2.308 1_565 S
O129 C134 1.243 1_565 S
C130 C114 1.494 . S
C130 Tb121 2.821 . S
C130 O125 1.263 . S
C130 O127 1.264 . S
C131 O132 1.260 . S
C131 O135 1.264 . S
O132 C131 1.260 . S
C133 O120 1.242 . S
C133 O123 1.243 . S
C134 O128 1.242 . S
C134 O129 1.243 1_545 S
O135 Eu124 2.312 . S
O135 C131 1.264 . S
C136 C126 1.494 . S
C136 C138 1.380 . S
C136 C139 1.387 1_655 S
C137 C138 1.395 1_455 S
C137 C141 1.393 . S
C138 C136 1.380 . S
C138 C137 1.395 1_655 S
C138 H149 0.930 . S
C139 C136 1.387 1_455 S
C139 C140 1.386 . S
C139 H150 0.930 . S
C140 C139 1.386 . S
C140 C141 1.397 . S
C141 C137 1.393 . S
C141 C140 1.397 . S
C141 H151 0.930 . S
C142 O122 1.264 . S
C142 O143 1.260 . S
O143 C142 1.260 . S
O144 Eu124 2.438 . S
O144 C126 1.263 . S
O145 Eu124 2.472 . S
O145 C126 1.264 . S
H146 C115 0.930 . S
H147 C117 0.930 . S
H148 C119 0.930 . S
H149 C138 0.930 . S
H150 C139 0.930 . S
H151 C141 0.930 . S
C152 C153 1.363 . S
C152 C158 1.391 . S
C152 N160 1.356 . S
C153 C152 1.363 . S
C153 C159 1.363 1_556 S
C154 C155 1.363 . S
C154 C159 1.379 . S
C154 N161 1.356 . S
C155 C154 1.363 . S
C155 C158 1.349 1_554 S
N156 C158 1.353 1_554 S
N156 H168 0.984 1_554 S
N156 H169 0.985 . S
N157 C159 1.356 1_556 S
N157 H162 0.984 . S
N157 H163 0.985 1_556 S
C158 C152 1.391 . S
C158 C155 1.349 1_556 S
C158 N156 1.353 1_556 S
C159 C153 1.363 1_554 S
C159 C154 1.379 . S
C159 N157 1.356 1_554 S
N160 C152 1.356 . S
N160 H166 0.984 . S
N160 H167 0.984 . S
N161 C154 1.356 . S
N161 H164 0.984 . S
N161 H165 0.985 . S
H162 N157 0.984 . S
H163 N157 0.985 1_554 S
H164 N161 0.984 . S
H165 N161 0.985 . S
H166 N160 0.984 . S
H167 N160 0.984 . S
H168 N156 0.984 1_556 S
H169 N156 0.985 . S
C170 C171 1.363 1_554 S
C170 C176 1.379 . S
C170 N178 1.356 1_554 S
C171 C170 1.363 1_556 S
C171 C177 1.363 . S
C172 C173 1.349 1_556 S
C172 C177 1.391 . S
C172 N179 1.353 1_556 S
C173 C172 1.349 1_554 S
C173 C176 1.363 . S
N174 C176 1.356 . S
N174 H186 0.984 . S
N174 H187 0.985 . S
N175 C177 1.356 . S
N175 H180 0.984 . S
N175 H181 0.985 . S
C176 C170 1.379 . S
C176 C173 1.363 . S
C176 N174 1.356 . S
C177 C171 1.363 . S
C177 C172 1.391 . S
C177 N175 1.356 . S
N178 C170 1.356 1_556 S
N178 H184 0.984 1_556 S
N178 H185 0.984 . S
N179 C172 1.353 1_554 S
N179 H182 0.984 . S
N179 H183 0.985 1_554 S
H180 N175 0.984 . S
H181 N175 0.985 . S
H182 N179 0.984 . S
H183 N179 0.985 1_556 S
H184 N178 0.984 1_554 S
H185 N178 0.984 . S
H186 N174 0.984 . S
H187 N174 0.985 . S
C188 C189 1.363 . S
C188 C194 1.379 . S
C188 N196 1.356 . S
C189 C188 1.363 . S
C189 C195 1.363 . S
C190 C191 1.363 . S
C190 C195 1.379 . S
C190 N197 1.356 . S
C191 C190 1.363 . S
C191 C194 1.363 . S
N192 C194 1.356 . S
N192 H204 0.984 . S
N192 H205 0.985 . S
N193 C195 1.356 . S
N193 H198 0.984 . S
N193 H199 0.985 . S
C194 C188 1.379 . S
C194 C191 1.363 . S
C194 N192 1.356 . S
C195 C189 1.363 . S
C195 C190 1.379 . S
C195 N193 1.356 . S
N196 C188 1.356 . S
N196 H202 0.984 . S
N196 H203 0.984 . S
N197 C190 1.356 . S
N197 H200 0.984 . S
N197 H201 0.985 . S
H198 N193 0.984 . S
H199 N193 0.985 . S
H200 N197 0.984 . S
H201 N197 0.985 . S
H202 N196 0.984 . S
H203 N196 0.984 . S
H204 N192 0.984 . S
H205 N192 0.985 . S
C206 C207 1.363 . S
C206 C212 1.379 . S
C206 N214 1.356 . S
C207 C206 1.363 . S
C207 C213 1.363 . S
C208 C209 1.363 . S
C208 C213 1.379 . S
C208 N215 1.356 . S
C209 C208 1.363 . S
C209 C212 1.363 . S
N210 C212 1.356 . S
N210 H222 0.984 . S
N210 H223 0.985 . S
N211 C213 1.356 . S
N211 H216 0.984 . S
N211 H217 0.985 . S
C212 C206 1.379 . S
C212 C209 1.363 . S
C212 N210 1.356 . S
C213 C207 1.363 . S
C213 C208 1.379 . S
C213 N211 1.356 . S
N214 C206 1.356 . S
N214 H220 0.984 . S
N214 H221 0.984 . S
N215 C208 1.356 . S
N215 H218 0.984 . S
N215 H219 0.985 . S
H216 N211 0.984 . S
H217 N211 0.985 . S
H218 N215 0.984 . S
H219 N215 0.985 . S
H220 N214 0.984 . S
H221 N214 0.984 . S
H222 N210 0.984 . S
H223 N210 0.985 . S
C224 C225 1.363 1_556 S
C224 C230 1.379 . S
C224 N232 1.356 . S
C225 C224 1.363 1_554 S
C225 C231 1.363 . S
C226 C227 1.363 . S
C226 C231 1.379 . S
C226 N233 1.356 . S
C227 C226 1.363 . S
C227 C230 1.363 1_554 S
N228 C230 1.356 . S
N228 H240 0.984 . S
N228 H241 0.985 . S
N229 C231 1.356 . S
N229 H234 0.984 . S
N229 H235 0.985 . S
C230 C224 1.379 . S
C230 C227 1.363 1_556 S
C230 N228 1.356 . S
C231 C225 1.363 . S
C231 C226 1.379 . S
C231 N229 1.356 . S
N232 C224 1.356 . S
N232 H238 0.984 . S
N232 H239 0.984 . S
N233 C226 1.356 . S
N233 H236 0.984 . S
N233 H237 0.985 . S
H234 N229 0.984 . S
H235 N229 0.985 . S
H236 N233 0.984 . S
H237 N233 0.985 . S
H238 N232 0.984 . S
H239 N232 0.984 . S
H240 N228 0.984 . S
H241 N228 0.985 . S
C242 C243 1.363 . S
C242 C248 1.379 . S
C242 N250 1.356 . S
C243 C242 1.363 . S
C243 C249 1.363 . S
C244 C245 1.363 . S
C244 C249 1.379 . S
C244 N251 1.356 . S
C245 C244 1.363 . S
C245 C248 1.363 . S
N246 C248 1.356 . S
N246 H258 0.984 . S
N246 H259 0.985 . S
N247 C249 1.356 . S
N247 H252 0.984 . S
N247 H253 0.985 . S
C248 C242 1.379 . S
C248 C245 1.363 . S
C248 N246 1.356 . S
C249 C243 1.363 . S
C249 C244 1.379 . S
C249 N247 1.356 . S
N250 C242 1.356 . S
N250 H256 0.984 . S
N250 H257 0.984 . S
N251 C244 1.356 . S
N251 H254 0.984 . S
N251 H255 0.985 . S
H252 N247 0.984 . S
H253 N247 0.985 . S
H254 N251 0.984 . S
H255 N251 0.985 . S
H256 N250 0.984 . S
H257 N250 0.984 . S
H258 N246 0.984 . S
H259 N246 0.985 . S
C260 C261 1.363 1_556 S
C260 C266 1.379 1_455 S
C260 N268 1.356 . S
C261 C260 1.363 1_554 S
C261 C267 1.363 1_545 S
C262 C263 1.363 . S
C262 C267 1.379 1_655 S
C262 N269 1.356 . S
C263 C262 1.363 . S
C263 C266 1.363 1_564 S
N264 C266 1.356 . S
N264 H276 0.984 . S
N264 H277 0.985 . S
N265 C267 1.356 . S
N265 H270 0.984 . S
N265 H271 0.985 . S
C266 C260 1.379 1_655 S
C266 C263 1.363 1_546 S
C266 N264 1.356 . S
C267 C261 1.363 1_565 S
C267 C262 1.379 1_455 S
C267 N265 1.356 . S
N268 C260 1.356 . S
N268 H274 0.984 . S
N268 H275 0.984 . S
N269 C262 1.356 . S
N269 H272 0.984 . S
N269 H273 0.985 . S
H270 N265 0.984 . S
H271 N265 0.985 . S
H272 N269 0.984 . S
H273 N269 0.985 . S
H274 N268 0.984 . S
H275 N268 0.984 . S
H276 N264 0.984 . S
H277 N264 0.985 . S
C278 C279 1.363 . S
C278 C284 1.379 1_655 S
C278 N286 1.356 . S
C279 C278 1.363 . S
C279 C285 1.363 1_545 S
C280 C281 1.363 . S
C280 C285 1.379 1_455 S
C280 N287 1.356 . S
C281 C280 1.363 . S
C281 C284 1.363 1_565 S
N282 C284 1.356 . S
N282 H294 0.984 . S
N282 H295 0.985 . S
N283 C285 1.356 . S
N283 H288 0.984 . S
N283 H289 0.985 . S
C284 C278 1.379 1_455 S
C284 C281 1.363 1_545 S
C284 N282 1.356 . S
C285 C279 1.363 1_565 S
C285 C280 1.379 1_655 S
C285 N283 1.356 . S
N286 C278 1.356 . S
N286 H292 0.984 . S
N286 H293 0.984 . S
N287 C280 1.356 . S
N287 H290 0.984 . S
N287 H291 0.985 . S
H288 N283 0.984 . S
H289 N283 0.985 . S
H290 N287 0.984 . S
H291 N287 0.985 . S
H292 N286 0.984 . S
H293 N286 0.984 . S
H294 N282 0.984 . S
H295 N282 0.985 . S
C296 C297 1.363 . S
C296 C302 1.379 . S
C296 N304 1.356 . S
C297 C296 1.363 . S
C297 C303 1.363 . S
C298 C299 1.363 . S
C298 C303 1.379 . S
C298 N305 1.356 . S
C299 C298 1.363 . S
C299 C302 1.363 . S
N300 C302 1.356 . S
N300 H312 0.984 . S
N300 H313 0.985 . S
N301 C303 1.356 1_565 S
N301 H306 0.984 1_565 S
N301 H307 0.985 . S
C302 C296 1.379 . S
C302 C299 1.363 . S
C302 N300 1.356 . S
C303 C297 1.363 . S
C303 C298 1.379 . S
C303 N301 1.356 1_545 S
N304 C296 1.356 . S
N304 H310 0.984 . S
N304 H311 0.984 . S
N305 C298 1.356 . S
N305 H308 0.984 . S
N305 H309 0.985 1_545 S
H306 N301 0.984 1_545 S
H307 N301 0.985 . S
H308 N305 0.984 . S
H309 N305 0.985 1_565 S
H310 N304 0.984 . S
H311 N304 0.984 . S
H312 N300 0.984 . S
H313 N300 0.985 . S
C314 C315 1.363 . S
C314 C320 1.379 . S
C314 N322 1.356 1_565 S
C315 C314 1.363 . S
C315 C321 1.363 . S
C316 C317 1.363 . S
C316 C321 1.379 . S
C316 N323 1.356 . S
C317 C316 1.363 . S
C317 C320 1.363 . S
N318 C320 1.356 . S
N318 H330 0.984 1_565 S
N318 H331 0.985 . S
N319 C321 1.356 . S
N319 H324 0.984 . S
N319 H325 0.985 . S
C320 C314 1.379 . S
C320 C317 1.363 . S
C320 N318 1.356 . S
C321 C315 1.363 . S
C321 C316 1.379 . S
C321 N319 1.356 . S
N322 C314 1.356 1_545 S
N322 H328 0.984 . S
N322 H329 0.984 1_545 S
N323 C316 1.356 . S
N323 H326 0.984 . S
N323 H327 0.985 . S
H324 N319 0.984 . S
H325 N319 0.985 . S
H326 N323 0.984 . S
H327 N323 0.985 . S
H328 N322 0.984 . S
H329 N322 0.984 1_565 S
H330 N318 0.984 1_545 S
H331 N318 0.985 . S
C332 C333 1.363 . S
C332 C338 1.379 . S
C332 N340 1.356 1_565 S
C333 C332 1.363 . S
C333 C339 1.363 . S
C334 C335 1.363 . S
C334 C339 1.379 . S
C334 N341 1.356 . S
C335 C334 1.363 . S
C335 C338 1.363 . S
N336 C338 1.356 1_545 S
N336 H348 0.984 . S
N336 H349 0.985 . S
N337 C339 1.356 . S
N337 H342 0.984 . S
N337 H343 0.985 . S
C338 C332 1.379 . S
C338 C335 1.363 . S
C338 N336 1.356 1_565 S
C339 C333 1.363 . S
C339 C334 1.379 . S
C339 N337 1.356 . S
N340 C332 1.356 1_545 S
N340 H346 0.984 . S
N340 H347 0.984 . S
N341 C334 1.356 . S
N341 H344 0.984 . S
N341 H345 0.985 . S
H342 N337 0.984 . S
H343 N337 0.985 . S
H344 N341 0.984 . S
H345 N341 0.985 . S
H346 N340 0.984 . S
H347 N340 0.984 . S
H348 N336 0.984 . S
H349 N336 0.985 . S
C350 C351 1.363 . S
C350 C356 1.379 . S
C350 N358 1.356 . S
C351 C350 1.363 . S
C351 C357 1.363 . S
C352 C353 1.363 . S
C352 C357 1.379 . S
C352 N359 1.356 . S
C353 C352 1.363 . S
C353 C356 1.363 . S
N354 C356 1.356 . S
N354 H366 0.984 1_545 S
N354 H367 0.985 . S
N355 C357 1.356 . S
N355 H360 0.984 . S
N355 H361 0.985 . S
C356 C350 1.379 . S
C356 C353 1.363 . S
C356 N354 1.356 . S
C357 C351 1.363 . S
C357 C352 1.379 . S
C357 N355 1.356 . S
N358 C350 1.356 . S
N358 H364 0.984 1_545 S
N358 H365 0.984 . S
N359 C352 1.356 . S
N359 H362 0.984 . S
N359 H363 0.985 . S
H360 N355 0.984 . S
H361 N355 0.985 . S
H362 N359 0.984 . S
H363 N359 0.985 . S
H364 N358 0.984 1_565 S
H365 N358 0.984 . S
H366 N354 0.984 1_565 S
H367 N354 0.985 . S
C368 C369 1.363 . S
C368 C374 1.379 . S
C368 N376 1.356 . S
C369 C368 1.363 . S
C369 C375 1.363 1_655 S
C370 C371 1.363 . S
C370 C375 1.379 1_655 S
C370 N377 1.356 . S
C371 C370 1.363 . S
C371 C374 1.363 . S
N372 C374 1.356 . S
N372 H384 0.984 . S
N372 H385 0.985 . S
N373 C375 1.356 . S
N373 H378 0.984 . S
N373 H379 0.985 . S
C374 C368 1.379 . S
C374 C371 1.363 . S
C374 N372 1.356 . S
C375 C369 1.363 1_455 S
C375 C370 1.379 1_455 S
C375 N373 1.356 . S
N376 C368 1.356 . S
N376 H382 0.984 . S
N376 H383 0.984 . S
N377 C370 1.356 . S
N377 H380 0.984 . S
N377 H381 0.985 1_655 S
H378 N373 0.984 . S
H379 N373 0.985 . S
H380 N377 0.984 . S
H381 N377 0.985 1_455 S
H382 N376 0.984 . S
H383 N376 0.984 . S
H384 N372 0.984 . S
H385 N372 0.985 . S
C386 C387 1.363 . S
C386 C392 1.379 1_655 S
C386 N394 1.356 . S
C387 C386 1.363 . S
C387 C393 1.363 . S
C388 C389 1.363 . S
C388 C393 1.379 . S
C388 N395 1.356 . S
C389 C388 1.363 . S
C389 C392 1.363 1_655 S
N390 C392 1.356 . S
N390 H402 0.984 . S
N390 H403 0.985 . S
N391 C393 1.356 . S
N391 H396 0.984 . S
N391 H397 0.985 . S
C392 C386 1.379 1_455 S
C392 C389 1.363 1_455 S
C392 N390 1.356 . S
C393 C387 1.363 . S
C393 C388 1.379 . S
C393 N391 1.356 . S
N394 C386 1.356 . S
N394 H400 0.984 1_655 S
N394 H401 0.984 . S
N395 C388 1.356 . S
N395 H398 0.984 . S
N395 H399 0.985 . S
H396 N391 0.984 . S
H397 N391 0.985 . S
H398 N395 0.984 . S
H399 N395 0.985 . S
H400 N394 0.984 1_455 S
H401 N394 0.984 . S
H402 N390 0.984 . S
H403 N390 0.985 . S
C404 C405 1.363 . S
C404 C410 1.379 . S
C404 N412 1.356 . S
C405 C404 1.363 . S
C405 C411 1.363 . S
C406 C407 1.363 1_655 S
C406 C411 1.379 1_655 S
C406 N413 1.356 . S
C407 C406 1.363 1_455 S
C407 C410 1.363 . S
N408 C410 1.356 . S
N408 H420 0.984 . S
N408 H421 0.985 . S
N409 C411 1.356 . S
N409 H414 0.984 . S
N409 H415 0.985 1_455 S
C410 C404 1.379 . S
C410 C407 1.363 . S
C410 N408 1.356 . S
C411 C405 1.363 . S
C411 C406 1.379 1_455 S
C411 N409 1.356 . S
N412 C404 1.356 . S
N412 H418 0.984 . S
N412 H419 0.984 . S
N413 C406 1.356 . S
N413 H416 0.984 . S
N413 H417 0.985 . S
H414 N409 0.984 . S
H415 N409 0.985 1_655 S
H416 N413 0.984 . S
H417 N413 0.985 . S
H418 N412 0.984 . S
H419 N412 0.984 . S
H420 N408 0.984 . S
H421 N408 0.985 . S
C422 C423 1.363 . S
C422 C428 1.379 . S
C422 N430 1.356 . S
C423 C422 1.363 . S
C423 C429 1.363 . S
C424 C425 1.363 1_655 S
C424 C429 1.379 1_655 S
C424 N431 1.356 . S
C425 C424 1.363 1_455 S
C425 C428 1.363 . S
N426 C428 1.356 . S
N426 H438 0.984 . S
N426 H439 0.985 . S
N427 C429 1.356 . S
N427 H432 0.984 . S
N427 H433 0.985 1_455 S
C428 C422 1.379 . S
C428 C425 1.363 . S
C428 N426 1.356 . S
C429 C423 1.363 . S
C429 C424 1.379 1_455 S
C429 N427 1.356 . S
N430 C422 1.356 . S
N430 H436 0.984 . S
N430 H437 0.984 . S
N431 C424 1.356 . S
N431 H434 0.984 . S
N431 H435 0.985 . S
H432 N427 0.984 . S
H433 N427 0.985 1_655 S
H434 N431 0.984 . S
H435 N431 0.985 . S
H436 N430 0.984 . S
H437 N430 0.984 . S
H438 N426 0.984 . S
H439 N426 0.985 . S
C153 C26 2.598 . S
C155 C2 2.598 . S
C171 C64 2.598 . S
C173 C40 2.598 . S
C189 C102 2.598 . S
C191 C78 2.598 . S
C207 C140 2.598 . S
C209 C116 2.598 . S
C225 C57 1.877 . S
C227 C20 1.877 . S
C243 C133 1.877 . S
C245 C96 1.877 . S
C261 C19 1.877 . S
C263 C58 1.877 . S
C279 C134 1.877 . S
C281 C95 1.877 . S
C297 C118 1.308 . S
C299 C17 1.337 . S
C315 C42 1.308 . S
C317 C93 1.337 . S
C333 C99 1.308 . S
C335 C66 1.337 . S
C351 C23 1.308 . S
C353 C142 1.337 . S
C369 C80 1.308 . S
C371 C55 1.337 . S
C387 C131 1.337 . S
C389 C4 1.308 . S
C405 C28 1.337 . S
C407 C137 1.308 . S
C423 C104 1.337 . S
C425 C61 1.308 . S
