# Generated by pormake.
# Topology smd, (6)-cn, num edge types: 1
# Building blocks:
#     Node 0, Type 0, BuildingBlock: BETFEN_clean_sbu_0, # of connection points: 6
#     Node 1, Type 0, BuildingBlock: BETFEN_clean_sbu_0, # of connection points: 6
#     Node 2, Type 0, BuildingBlock: BETFEN_clean_sbu_0, # of connection points: 6
#     Node 3, Type 0, BuildingBlock: BETFEN_clean_sbu_0, # of connection points: 6
#     Node 4, Type 0, BuildingBlock: BETFEN_clean_sbu_0, # of connection points: 6
#     Node 5, Type 0, BuildingBlock: BETFEN_clean_sbu_0, # of connection points: 6
#     Node 6, Type 0, BuildingBlock: BETFEN_clean_sbu_0, # of connection points: 6
#     Node 7, Type 0, BuildingBlock: BETFEN_clean_sbu_0, # of connection points: 6
#     Node 8, Type 0, BuildingBlock: BETFEN_clean_sbu_0, # of connection points: 6
#     Node 9, Type 0, BuildingBlock: BETFEN_clean_sbu_0, # of connection points: 6
#     Node 10, Type 0, BuildingBlock: BETFEN_clean_sbu_0, # of connection points: 6
#     Node 11, Type 0, BuildingBlock: BETFEN_clean_sbu_0, # of connection points: 6
#     Node 12, Type 0, BuildingBlock: BETFEN_clean_sbu_0, # of connection points: 6
#     Node 13, Type 0, BuildingBlock: BETFEN_clean_sbu_0, # of connection points: 6
#     Node 14, Type 0, BuildingBlock: BETFEN_clean_sbu_0, # of connection points: 6
#     Node 15, Type 0, BuildingBlock: BETFEN_clean_sbu_0, # of connection points: 6
#     Node 16, Type 0, BuildingBlock: BETFEN_clean_sbu_0, # of connection points: 6
#     Node 17, Type 0, BuildingBlock: BETFEN_clean_sbu_0, # of connection points: 6
#     Edge 18, Type (0, 0), BuildingBlock: AJUNOK_clean_linker_0, # of connection points: 2
#     Edge 19, Type (0, 0), BuildingBlock: AJUNOK_clean_linker_0, # of connection points: 2
#     Edge 20, Type (0, 0), BuildingBlock: AJUNOK_clean_linker_0, # of connection points: 2
#     Edge 21, Type (0, 0), BuildingBlock: AJUNOK_clean_linker_0, # of connection points: 2
#     Edge 22, Type (0, 0), BuildingBlock: AJUNOK_clean_linker_0, # of connection points: 2
#     Edge 23, Type (0, 0), BuildingBlock: AJUNOK_clean_linker_0, # of connection points: 2
#     Edge 24, Type (0, 0), BuildingBlock: AJUNOK_clean_linker_0, # of connection points: 2
#     Edge 25, Type (0, 0), BuildingBlock: AJUNOK_clean_linker_0, # of connection points: 2
#     Edge 26, Type (0, 0), BuildingBlock: AJUNOK_clean_linker_0, # of connection points: 2
#     Edge 27, Type (0, 0), BuildingBlock: AJUNOK_clean_linker_0, # of connection points: 2
#     Edge 28, Type (0, 0), BuildingBlock: AJUNOK_clean_linker_0, # of connection points: 2
#     Edge 29, Type (0, 0), BuildingBlock: AJUNOK_clean_linker_0, # of connection points: 2
#     Edge 30, Type (0, 0), BuildingBlock: AJUNOK_clean_linker_0, # of connection points: 2
#     Edge 31, Type (0, 0), BuildingBlock: AJUNOK_clean_linker_0, # of connection points: 2
#     Edge 32, Type (0, 0), BuildingBlock: AJUNOK_clean_linker_0, # of connection points: 2
#     Edge 33, Type (0, 0), BuildingBlock: AJUNOK_clean_linker_0, # of connection points: 2
#     Edge 34, Type (0, 0), BuildingBlock: AJUNOK_clean_linker_0, # of connection points: 2
#     Edge 35, Type (0, 0), BuildingBlock: AJUNOK_clean_linker_0, # of connection points: 2
#     Edge 36, Type (0, 0), BuildingBlock: AJUNOK_clean_linker_0, # of connection points: 2
#     Edge 37, Type (0, 0), BuildingBlock: AJUNOK_clean_linker_0, # of connection points: 2
#     Edge 38, Type (0, 0), BuildingBlock: AJUNOK_clean_linker_0, # of connection points: 2
#     Edge 39, Type (0, 0), BuildingBlock: AJUNOK_clean_linker_0, # of connection points: 2
#     Edge 40, Type (0, 0), BuildingBlock: AJUNOK_clean_linker_0, # of connection points: 2
#     Edge 41, Type (0, 0), BuildingBlock: AJUNOK_clean_linker_0, # of connection points: 2
#     Edge 42, Type (0, 0), BuildingBlock: AJUNOK_clean_linker_0, # of connection points: 2
#     Edge 43, Type (0, 0), BuildingBlock: AJUNOK_clean_linker_0, # of connection points: 2
#     Edge 44, Type (0, 0), BuildingBlock: AJUNOK_clean_linker_0, # of connection points: 2
#     Edge 45, Type (0, 0), BuildingBlock: AJUNOK_clean_linker_0, # of connection points: 2
#     Edge 46, Type (0, 0), BuildingBlock: AJUNOK_clean_linker_0, # of connection points: 2
#     Edge 47, Type (0, 0), BuildingBlock: AJUNOK_clean_linker_0, # of connection points: 2
#     Edge 48, Type (0, 0), BuildingBlock: AJUNOK_clean_linker_0, # of connection points: 2
#     Edge 49, Type (0, 0), BuildingBlock: AJUNOK_clean_linker_0, # of connection points: 2
#     Edge 50, Type (0, 0), BuildingBlock: AJUNOK_clean_linker_0, # of connection points: 2
#     Edge 51, Type (0, 0), BuildingBlock: AJUNOK_clean_linker_0, # of connection points: 2
#     Edge 52, Type (0, 0), BuildingBlock: AJUNOK_clean_linker_0, # of connection points: 2
#     Edge 53, Type (0, 0), BuildingBlock: AJUNOK_clean_linker_0, # of connection points: 2
#     Edge 54, Type (0, 0), BuildingBlock: AJUNOK_clean_linker_0, # of connection points: 2
#     Edge 55, Type (0, 0), BuildingBlock: AJUNOK_clean_linker_0, # of connection points: 2
#     Edge 56, Type (0, 0), BuildingBlock: AJUNOK_clean_linker_0, # of connection points: 2
#     Edge 57, Type (0, 0), BuildingBlock: AJUNOK_clean_linker_0, # of connection points: 2
#     Edge 58, Type (0, 0), BuildingBlock: AJUNOK_clean_linker_0, # of connection points: 2
#     Edge 59, Type (0, 0), BuildingBlock: AJUNOK_clean_linker_0, # of connection points: 2
#     Edge 60, Type (0, 0), BuildingBlock: AJUNOK_clean_linker_0, # of connection points: 2
#     Edge 61, Type (0, 0), BuildingBlock: AJUNOK_clean_linker_0, # of connection points: 2
#     Edge 62, Type (0, 0), BuildingBlock: AJUNOK_clean_linker_0, # of connection points: 2
#     Edge 63, Type (0, 0), BuildingBlock: AJUNOK_clean_linker_0, # of connection points: 2
#     Edge 64, Type (0, 0), BuildingBlock: AJUNOK_clean_linker_0, # of connection points: 2
#     Edge 65, Type (0, 0), BuildingBlock: AJUNOK_clean_linker_0, # of connection points: 2
#     Edge 66, Type (0, 0), BuildingBlock: AJUNOK_clean_linker_0, # of connection points: 2
#     Edge 67, Type (0, 0), BuildingBlock: AJUNOK_clean_linker_0, # of connection points: 2
#     Edge 68, Type (0, 0), BuildingBlock: AJUNOK_clean_linker_0, # of connection points: 2
#     Edge 69, Type (0, 0), BuildingBlock: AJUNOK_clean_linker_0, # of connection points: 2
#     Edge 70, Type (0, 0), BuildingBlock: AJUNOK_clean_linker_0, # of connection points: 2
#     Edge 71, Type (0, 0), BuildingBlock: AJUNOK_clean_linker_0, # of connection points: 2
# Relax obj value: 0.308
# Max RMSD: 0.382
# Mean RMSD: 0.351
data_MOF--net-smd--node1-BETFEN_clean_sbu_0--edge1-AJUNOK_clean_linker_0
_symmetry_space_group_name_H-M    P1
_symmetry_Int_Tables_number       1
_symmetry_cell_setting            triclinic
loop_
_symmetry_equiv_pos_as_xyz
'x, y, z'
_cell_length_a     47.050122
_cell_length_b     47.488019
_cell_length_c     20.90742
_cell_angle_alpha  93.357859
_cell_angle_beta   93.165361
_cell_angle_gamma 119.91635
loop_
_atom_site_label
_atom_site_type_symbol
_atom_site_fract_x
_atom_site_fract_y
_atom_site_fract_z
_atom_type_partial_charge
Pr0 Pr 0.05104 0.26534 0.59389 0.0
Pr1 Pr 1.01219 0.2409 0.4759 0.0
C2 C 0.08006 0.29537 0.71294 0.0
C3 C 0.0706 0.29032 0.77943 0.0
C4 C 0.09452 0.29746 0.83054 0.0
C5 C 0.08576 0.29254 0.89365 0.0
C6 C 0.05288 0.28058 0.90696 0.0
C7 C 1.02898 0.27351 0.8555 0.0
C8 C 1.03772 0.27825 0.79245 0.0
C9 C 0.07362 0.22908 0.52513 0.0
C10 C 0.9859 0.18947 0.57767 0.0
C11 C 0.98252 0.22502 0.35456 0.0
C12 C 0.99317 0.23333 0.28984 0.0
C13 C 0.97033 0.23001 0.23971 0.0
C14 C 0.9803 0.23874 0.17854 0.0
C15 C 1.0134 0.25121 0.16652 0.0
C16 C 1.03628 0.25464 0.21706 0.0
C17 C 1.02626 0.24583 0.27817 0.0
C18 C 0.98582 0.26531 0.57176 0.0
C19 C 0.07866 0.3098 0.46649 0.0
O20 O 0.06372 0.30443 0.67541 0.0
O21 O 0.08528 0.27366 0.68348 0.0
O22 O 0.06606 0.24877 0.50059 0.0
O23 O 0.06456 0.2245 0.58284 0.0
O24 O 0.99249 0.19091 0.51747 0.0
O25 O 1.00138 0.21689 0.61731 0.0
O26 O 0.99188 0.20685 0.38358 0.0
O27 O 0.9849 0.24894 0.39301 0.0
O28 O 1.0146 0.27923 0.55527 0.0
O29 O 0.96915 0.23742 0.53767 0.0
O30 O 0.08309 0.31002 0.53018 0.0
O31 O 0.05405 0.2845 0.43316 0.0
H32 H 0.11998 0.30661 0.82156 0.0
H33 H 0.10464 0.29751 0.93182 0.0
H34 H 1.00347 0.26436 0.86404 0.0
H35 H 1.01871 0.27238 0.75384 0.0
H36 H 0.94477 0.22078 0.24795 0.0
H37 H 0.96217 0.23602 0.1407 0.0
H38 H 0.06183 0.26369 0.20911 0.0
H39 H 0.04436 0.24875 0.31627 0.0
Pr40 Pr 0.81344 0.77984 0.49326 0.0
Pr41 Pr 0.80176 0.807 0.60528 0.0
C42 C 0.8108 0.74878 0.37796 0.0
C43 C 0.80685 0.75382 0.30967 0.0
C44 C 0.82055 0.74302 0.26313 0.0
C45 C 0.81814 0.74883 0.19865 0.0
C46 C 0.80204 0.76567 0.1795 0.0
C47 C 0.78755 0.7757 0.22604 0.0
C48 C 0.79006 0.76998 0.29055 0.0
C49 C 0.8732 0.81532 0.57101 0.0
C50 C 0.83116 0.85708 0.50193 0.0
C51 C 0.79353 0.8264 0.72361 0.0
C52 C 0.79499 0.81705 0.78937 0.0
C53 C 0.77987 0.82512 0.83743 0.0
C54 C 0.78069 0.81594 0.89972 0.0
C55 C 0.79675 0.79858 0.91519 0.0
C56 C 0.81137 0.79004 0.8665 0.0
C57 C 0.8105 0.79918 0.80422 0.0
C58 C 0.75102 0.78648 0.50138 0.0
C59 C 0.7913 0.73451 0.62011 0.0
O60 O 0.78542 0.74069 0.41033 0.0
O61 O 0.83833 0.77015 0.41117 0.0
O62 O 0.8455 0.79621 0.59165 0.0
O63 O 0.86887 0.81967 0.51142 0.0
O64 O 0.83667 0.85499 0.56309 0.0
O65 O 0.81622 0.82958 0.46258 0.0
O66 O 0.82139 0.84115 0.69753 0.0
O67 O 0.76921 0.80451 0.68332 0.0
O68 O 0.764 0.77071 0.52189 0.0
O69 O 0.76441 0.8147 0.53502 0.0
O70 O 0.80139 0.73587 0.56133 0.0
O71 O 0.78901 0.75879 0.64647 0.0
H72 H 0.83339 0.73033 0.27675 0.0
H73 H 0.82894 0.7402 0.16374 0.0
H74 H 0.77501 0.78872 0.21282 0.0
H75 H 0.77925 0.77854 0.32563 0.0
H76 H 0.76748 0.8386 0.82679 0.0
H77 H 0.76919 0.82286 0.93612 0.0
H78 H 0.8233 0.77606 0.87645 0.0
H79 H 0.82192 0.79227 0.76763 0.0
Pr80 Pr 0.268 1.01257 0.5852 0.0
Pr81 Pr 0.27537 0.05065 0.48637 0.0
C82 C 0.26726 0.98888 0.70021 0.0
C83 C 0.27406 1.0003 0.76922 0.0
C84 C 0.26671 0.97761 0.81451 0.0
C85 C 0.27112 0.98759 0.88031 0.0
C86 C 0.28303 1.0205 0.90205 0.0
C87 C 0.29106 0.04336 0.85642 0.0
C88 C 0.28663 0.03333 0.79046 0.0
C89 C 0.21298 0.97471 0.49577 0.0
C90 C 0.24429 0.06988 0.59363 0.0
C91 C 0.28533 0.08058 0.37655 0.0
C92 C 0.28514 0.07206 0.30754 0.0
C93 C 0.29659 0.09654 0.2654 0.0
C94 C 0.29747 0.08888 0.20006 0.0
C95 C 0.28717 0.0566 0.17589 0.0
C96 C 0.27569 0.03216 0.21846 0.0
C97 C 0.27461 0.0398 0.28358 0.0
C98 C 0.32723 0.08253 0.59005 0.0
C99 C 0.2919 0.99347 0.45198 0.0
O100 O 0.29249 1.00005 0.66631 0.0
O101 O 0.24156 0.98771 0.67032 0.0
O102 O 0.22489 1.00529 0.51207 0.0
O103 O 0.23193 0.96491 0.52071 0.0
O104 O 0.24047 0.06461 0.53114 0.0
O105 O 0.25913 0.05679 0.62669 0.0
O106 O 0.25701 0.0666 0.40081 0.0
O107 O 0.30891 0.08168 0.41437 0.0
O108 O 0.31618 0.05431 0.56217 0.0
O109 O 0.31151 0.09566 0.56417 0.0
O110 O 0.2944 0.99239 0.51524 0.0
O111 O 0.27885 1.00972 0.42854 0.0
H112 H 0.25708 0.95204 0.79893 0.0
H113 H 0.26494 0.96948 0.9143 0.0
H114 H 0.2998 0.06879 0.87157 0.0
H115 H 0.29238 0.05118 0.75603 0.0
H116 H 0.30481 0.12158 0.283 0.0
H117 H 0.30573 0.10814 0.16834 0.0
H118 H 0.26768 1.00709 0.20142 0.0
H119 H 0.26557 1.02049 0.3151 0.0
Pr120 Pr 0.06183 0.80992 0.60761 0.0
Pr121 Pr 1.02069 0.78209 0.49427 0.0
C122 C 0.09267 0.82632 0.72844 0.0
C123 C 0.08264 0.81934 0.79388 0.0
C124 C 0.10642 0.82704 0.84558 0.0
C125 C 0.09702 0.82026 0.90785 0.0
C126 C 0.06365 0.80568 0.91942 0.0
C127 C 0.03986 0.79739 0.86706 0.0
C128 C 0.04928 0.80428 0.80496 0.0
C129 C 0.08874 0.7878 0.50906 0.0
C130 C 1.00087 0.73668 0.6159 0.0
C131 C 0.99431 0.76184 0.37042 0.0
C132 C 1.005 0.76692 0.30511 0.0
C133 C 0.9813 0.75677 0.25224 0.0
C134 C 0.9909 0.76246 0.18999 0.0
C135 C 1.02445 0.77856 0.17948 0.0
C136 C 0.04817 0.78796 0.23248 0.0
C137 C 1.03852 0.78232 0.2949 0.0
C138 C 0.98623 0.79826 0.58019 0.0
C139 C 0.08375 0.8618 0.50912 0.0
O140 O 0.08376 0.84462 0.69899 0.0
O141 O 0.08882 0.80155 0.69076 0.0
O142 O 0.06062 0.77223 0.52831 0.0
O143 O 0.10482 0.81625 0.54184 0.0
O144 O 1.00011 0.73433 0.55216 0.0
O145 O 1.01859 0.7654 0.64817 0.0
O146 O 1.00435 0.74602 0.40539 0.0
O147 O 0.99541 0.78669 0.40317 0.0
O148 O 1.0168 0.8169 0.57295 0.0
O149 O 0.97428 0.77067 0.54534 0.0
O150 O 0.08062 0.86034 0.57066 0.0
O151 O 0.06703 0.83416 0.47006 0.0
H152 H 0.13227 0.8384 0.83785 0.0
H153 H 0.11591 0.82688 0.94712 0.0
H154 H 1.0139 0.7854 0.87403 0.0
H155 H 1.03049 0.79786 0.76562 0.0
H156 H 0.95532 0.74466 0.25917 0.0
H157 H 0.97206 0.75432 0.14999 0.0
H158 H 0.07417 0.80036 0.22579 0.0
H159 H 0.0572 0.79033 0.33521 0.0
Pr160 Pr 0.26578 0.2335 0.48525 0.0
Pr161 Pr 0.26112 0.26669 0.59784 0.0
C162 C 0.26986 0.21054 0.36667 0.0
C163 C 0.26645 0.21808 0.29982 0.0
C164 C 0.28567 0.21487 0.25414 0.0
C165 C 0.28438 0.22384 0.19179 0.0
C166 C 0.26378 0.23621 0.1736 0.0
C167 C 0.24446 0.23934 0.21953 0.0
C168 C 0.24579 0.23038 0.28196 0.0
C169 C 0.32213 0.26054 0.58015 0.0
C170 C 0.28074 0.30627 0.46253 0.0
C171 C 0.26829 0.29889 0.71451 0.0
C172 C 0.26674 0.2901 0.78198 0.0
C173 C 0.24702 0.29552 0.8233 0.0
C174 C 0.24588 0.28752 0.88716 0.0
C175 C 0.26455 0.27401 0.91114 0.0
C176 C 0.28444 0.26885 0.86981 0.0
C177 C 0.28543 0.27662 0.8061 0.0
C178 C 0.19814 0.22962 0.53092 0.0
C179 C 0.24239 0.18874 0.59748 0.0
O180 O 0.24315 0.19676 0.39669 0.0
O181 O 0.2954 0.23317 0.40354 0.0
O182 O 0.30742 0.27418 0.55751 0.0
O183 O 0.30731 0.23058 0.55392 0.0
O184 O 0.27953 0.31032 0.52606 0.0
O185 O 0.27143 0.27726 0.43527 0.0
O186 O 0.29256 0.30032 0.6852 0.0
O187 O 0.24088 0.28549 0.6766 0.0
O188 O 0.22446 0.24729 0.5047 0.0
O189 O 0.20534 0.22745 0.59045 0.0
O190 O 0.23357 0.18781 0.53656 0.0
O191 O 0.25941 0.21777 0.63168 0.0
H192 H 0.30201 0.20575 0.26694 0.0
H193 H 0.29953 0.22105 0.15767 0.0
H194 H 0.22893 0.24948 0.20773 0.0
H195 H 0.23117 0.23369 0.31665 0.0
H196 H 0.23256 0.30606 0.80626 0.0
H197 H 0.23072 0.2923 0.91804 0.0
H198 H 0.29899 0.25835 0.88655 0.0
H199 H 0.30091 0.27202 0.77577 0.0
Pr200 Pr 0.79429 0.99922 0.59767 0.0
Pr201 Pr 0.81097 0.03646 0.49573 0.0
C202 C 0.77934 0.96912 0.70679 0.0
C203 C 0.78022 0.97839 0.77565 0.0
C204 C 0.76023 0.95465 0.81489 0.0
C205 C 0.76098 0.96302 0.88052 0.0
C206 C 0.78187 0.9953 0.90808 0.0
C207 C 0.80122 1.01922 0.86815 0.0
C208 C 0.8004 1.01084 0.80247 0.0
C209 C 0.74658 0.96981 0.48682 0.0
C210 C 0.78654 0.06272 0.62474 0.0
C211 C 0.81312 0.06513 0.38627 0.0
C212 C 0.80639 0.05438 0.31678 0.0
C213 C 0.8221 0.07699 0.27233 0.0
C214 C 0.81668 0.0668 0.20637 0.0
C215 C 0.7954 0.03376 0.18369 0.0
C216 C 0.77915 1.0113 0.22845 0.0
C217 C 0.78487 1.02145 0.29438 0.0
C218 C 0.86822 0.06261 0.58079 0.0
C219 C 0.82843 0.97713 0.49941 0.0
O220 O 0.80776 0.97964 0.68332 0.0
O221 O 0.75779 0.97117 0.6683 0.0
O222 O 0.75937 0.9984 0.51302 0.0
O223 O 0.7589 0.9547 0.51722 0.0
O224 O 0.79779 0.07006 0.56727 0.0
O225 O 0.78331 0.03646 0.64767 0.0
O226 O 0.78782 0.05302 0.41983 0.0
O227 O 0.83874 0.06604 0.41558 0.0
O228 O 0.83939 0.05379 0.59734 0.0
O229 O 0.86578 0.05158 0.52143 0.0
O230 O 0.83218 0.98666 0.56069 0.0
O231 O 0.81406 0.98835 0.45991 0.0
H232 H 0.7441 0.92959 0.7948 0.0
H233 H 0.7452 0.94423 0.90973 0.0
H234 H 0.8175 0.04428 0.88801 0.0
H235 H 0.8157 0.02962 0.77274 0.0
H236 H 0.83889 0.10248 0.28872 0.0
H237 H 0.82968 0.08466 0.17318 0.0
H238 H 0.76204 0.98584 0.21257 0.0
H239 H 0.77269 1.00353 0.32791 0.0
Pr240 Pr 0.6898 0.5805 0.79473 0.0
Pr241 Pr 0.73263 0.59379 0.90924 0.0
C242 C 0.6614 0.58195 0.67903 0.0
C243 C 0.67107 0.58545 0.61217 0.0
C244 C 0.64689 0.57038 0.55966 0.0
C245 C 0.65573 0.573 0.49629 0.0
C246 C 0.68904 0.59071 0.48389 0.0
C247 C 0.7132 0.60633 0.53666 0.0
C248 C 0.70435 0.60361 0.60004 0.0
C249 C 0.66506 0.52365 0.85925 0.0
C250 C 0.74915 0.56164 0.79408 0.0
C251 C 0.76223 0.60452 1.03007 0.0
C252 C 0.75096 0.60233 0.09555 0.0
C253 C 0.77371 0.61961 0.14944 0.0
C254 C 0.76316 0.61796 0.21141 0.0
C255 C 0.72955 0.59897 0.22097 0.0
C256 C 0.70677 0.58224 0.1665 0.0
C257 C 0.71735 0.58378 0.10466 0.0
C258 C 0.75825 0.64253 0.81932 0.0
C259 C 0.67203 0.60688 0.93241 0.0
O260 O 0.67829 0.60737 0.72079 0.0
O261 O 0.65501 0.55492 0.70313 0.0
O262 O 0.6763 0.55238 0.88657 0.0
O263 O 0.66994 0.52482 0.79883 0.0
O264 O 0.74246 0.55667 0.85368 0.0
O265 O 0.73651 0.57676 0.76159 0.0
O266 O 0.75081 0.57701 0.99359 0.0
O267 O 0.76282 0.62771 0.99845 0.0
O268 O 0.73059 0.6293 0.84053 0.0
O269 O 0.77518 0.63053 0.8451 0.0
O270 O 0.663 0.59911 0.86917 0.0
O271 O 0.69607 0.60381 0.95799 0.0
H272 H 0.62109 0.55645 0.56765 0.0
H273 H 0.63643 0.56124 0.4569 0.0
H274 H 0.73905 0.62012 0.52897 0.0
H275 H 0.72356 0.61549 0.63961 0.0
H276 H 0.79971 0.63432 0.14364 0.0
H277 H 0.78141 0.63118 0.25205 0.0
H278 H 0.68063 0.56819 0.17151 0.0
H279 H 0.6992 0.57064 0.06381 0.0
Pr280 Pr 0.47726 0.12262 0.8176 0.0
Pr281 Pr 0.47104 0.15503 0.9302 0.0
C282 C 0.47042 0.08983 0.70191 0.0
C283 C 0.46974 0.09726 0.634 0.0
C284 C 0.48741 0.0901 0.59031 0.0
C285 C 0.48729 0.09752 0.52631 0.0
C286 C 0.46922 0.11203 0.50438 0.0
C287 C 0.4515 0.11911 0.54837 0.0
C288 C 0.45181 0.11192 0.61234 0.0
C289 C 0.53946 0.15937 0.887 0.0
C290 C 0.49694 0.20066 0.81957 0.0
C291 C 0.46661 0.17722 0.0492 0.0
C292 C 0.46854 0.16825 0.1154 0.0
C293 C 0.4495 0.172 0.1608 0.0
C294 C 0.44996 0.16245 0.22287 0.0
C295 C 0.46931 0.14869 0.2409 0.0
C296 C 0.48841 0.14496 0.19523 0.0
C297 C 0.48795 0.15455 0.13309 0.0
C298 C 0.41684 0.13127 0.83213 0.0
C299 C 0.45854 0.0824 0.95196 0.0
O300 O 0.44574 0.08615 0.73301 0.0
O301 O 0.49851 0.10625 0.73742 0.0
O302 O 0.51267 0.14174 0.91193 0.0
O303 O 0.53314 0.16172 0.82704 0.0
O304 O 0.50458 0.20093 0.88086 0.0
O305 O 0.48021 0.17199 0.7841 0.0
O306 O 0.49381 0.19047 1.02063 0.0
O307 O 0.44105 0.15587 1.01069 0.0
O308 O 0.43022 0.11607 0.85374 0.0
O309 O 0.43158 0.16054 0.86179 0.0
O310 O 0.46347 0.07985 0.88998 0.0
O311 O 0.4618 0.10958 0.9778 0.0
H312 H 0.50158 0.079 0.60586 0.0
H313 H 0.50186 0.09242 0.49436 0.0
H314 H 0.4372 0.13013 0.53323 0.0
H315 H 0.43806 0.11795 0.64487 0.0
H316 H 0.43404 0.18212 0.14806 0.0
H317 H 0.43478 0.16543 0.25663 0.0
H318 H 0.50393 0.13488 0.20766 0.0
H319 H 0.5026 0.15105 0.09874 0.0
Pr320 Pr 0.94871 0.37691 0.80725 0.0
Pr321 Pr 0.92944 0.33989 0.90821 0.0
C322 C 0.97553 0.40609 0.70094 0.0
C323 C 0.97324 0.39669 0.6315 0.0
C324 C 0.98199 0.42045 0.58807 0.0
C325 C 0.97916 0.41184 0.52186 0.0
C326 C 0.96789 0.37934 0.49798 0.0
C327 C 0.95946 0.35559 0.54166 0.0
C328 C 0.96183 0.36415 0.60783 0.0
C329 C 0.91647 0.40149 0.87952 0.0
C330 C 0.87119 0.31706 0.8036 0.0
C331 C 0.9161 0.31059 1.01856 0.0
C332 C 0.92563 0.32121 0.08795 0.0
C333 C 0.92307 0.29868 0.13105 0.0
C334 C 0.93208 0.30854 0.19704 0.0
C335 C 0.94388 0.34116 0.22103 0.0
C336 C 0.94681 0.36375 0.17744 0.0
C337 C 0.93792 0.35391 0.1115 0.0
C338 C 0.9468 0.31071 0.80408 0.0
C339 C 0.99992 0.4047 0.94594 0.0
O340 O 0.98912 0.39479 0.73991 0.0
O341 O 0.94966 0.40514 0.72239 0.0
O342 O 0.93701 0.39375 0.90369 0.0
O343 O 0.90882 0.39133 0.81888 0.0
O344 O 0.87797 0.32669 0.86495 0.0
O345 O 0.89637 0.3282 0.76744 0.0
O346 O 0.89711 0.31969 0.98946 0.0
O347 O 0.93956 0.31316 0.98454 0.0
O348 O 0.96301 0.33948 0.83015 0.0
O349 O 0.91956 0.29541 0.83094 0.0
O350 O 0.99484 0.41259 0.88784 0.0
O351 O 0.97825 0.37694 0.96436 0.0
H352 H 0.99071 0.44565 0.60533 0.0
H353 H 0.98573 0.43058 0.4892 0.0
H354 H 0.95017 0.33027 0.52448 0.0
H355 H 0.95432 0.34532 0.64041 0.0
H356 H 0.91385 0.27339 0.11373 0.0
H357 H 0.92909 0.29047 0.22945 0.0
H358 H 0.95599 0.38907 0.19444 0.0
H359 H 0.9405 0.37179 0.07892 0.0
Pr360 Pr 0.72758 0.15366 0.92548 0.0
Pr361 Pr 0.68559 0.12104 0.81173 0.0
C362 C 0.75793 0.17343 0.04691 0.0
C363 C 0.74883 0.16556 0.11291 0.0
C364 C 0.77314 0.17081 0.16171 0.0
C365 C 0.76489 0.16278 0.22414 0.0
C366 C 0.7321 0.14942 0.23925 0.0
C367 C 0.7077 0.14375 0.18985 0.0
C368 C 0.71597 0.15175 0.12737 0.0
C369 C 0.75287 0.12641 0.83327 0.0
C370 C 0.66906 0.08092 0.94099 0.0
C371 C 0.66004 0.09741 0.68812 0.0
C372 C 0.6716 0.10321 0.62318 0.0
C373 C 0.64916 0.09755 0.57021 0.0
C374 C 0.65978 0.10422 0.50872 0.0
C375 C 0.69318 0.11685 0.49884 0.0
C376 C 0.71555 0.12188 0.55196 0.0
C377 C 0.7049 0.11527 0.61356 0.0
C378 C 0.6517 0.14031 0.89304 0.0
C379 C 0.74812 0.20018 0.81601 0.0
O380 O 0.7454 0.18867 1.01662 0.0
O381 O 0.75808 0.15049 1.0097 0.0
O382 O 0.72516 0.11276 0.85448 0.0
O383 O 0.76962 0.15627 0.85999 0.0
O384 O 0.6689 0.0764 0.87753 0.0
O385 O 0.68415 0.11079 0.96875 0.0
O386 O 0.67188 0.08387 0.72548 0.0
O387 O 0.65794 0.1209 0.71895 0.0
O388 O 0.68216 0.15849 0.88424 0.0
O389 O 0.63946 0.11164 0.862 0.0
O390 O 0.74604 0.20136 0.87811 0.0
O391 O 0.73116 0.17144 0.7807 0.0
H392 H 0.79855 0.18097 0.15142 0.0
H393 H 0.78417 0.16668 0.26043 0.0
H394 H 0.68223 0.13347 0.19972 0.0
H395 H 0.6967 0.14715 0.09038 0.0
H396 H 0.62339 0.08833 0.57654 0.0
H397 H 0.64194 0.10018 0.46906 0.0
H398 H 0.7413 0.13092 0.54593 0.0
H399 H 0.72271 0.11983 0.65371 0.0
Pr400 Pr 0.92818 0.59735 0.90669 0.0
Pr401 Pr 0.94719 0.57562 0.79821 0.0
C402 C 0.91539 0.61453 1.02218 0.0
C403 C 0.92212 0.61041 0.09025 0.0
C404 C 0.94309 0.63789 0.13365 0.0
C405 C 0.95024 0.63431 0.19763 0.0
C406 C 0.93639 0.60315 0.21968 0.0
C407 C 0.91525 0.57571 0.17645 0.0
C408 C 0.9083 0.57924 0.11243 0.0
C409 C 0.94873 0.642 0.80889 0.0
C410 C 0.99801 0.59981 0.93585 0.0
C411 C 0.97157 0.56957 0.6869 0.0
C412 C 0.96782 0.57508 0.61834 0.0
C413 C 0.94773 0.54853 0.57231 0.0
C414 C 0.94362 0.55347 0.50786 0.0
C415 C 0.9598 0.58504 0.48767 0.0
C416 C 0.98016 0.6116 0.53344 0.0
C417 C 0.98416 0.60667 0.59797 0.0
C418 C 0.91481 0.5222 0.87104 0.0
C419 C 0.87147 0.56252 0.79569 0.0
O420 O 0.89405 0.58835 0.98493 0.0
O421 O 0.94085 0.63422 0.99307 0.0
O422 O 0.96302 0.628 0.83179 0.0
O423 O 0.92185 0.63298 0.83643 0.0
O424 O 0.99411 0.58885 0.87397 0.0
O425 O 0.97561 0.60441 0.96049 0.0
O426 O 0.98674 0.59515 0.72899 0.0
O427 O 0.94635 0.54542 0.70889 0.0
O428 O 0.93556 0.55137 0.89411 0.0
O429 O 0.90773 0.52163 0.81005 0.0
O430 O 0.87678 0.56 0.85653 0.0
O431 O 0.89719 0.57496 0.76131 0.0
H432 H 0.95401 0.66219 0.11803 0.0
H433 H 0.96623 0.65594 0.23012 0.0
H434 H 0.90432 0.55141 0.19207 0.0
H435 H 0.89218 0.5575 0.08037 0.0
H436 H 0.93505 0.52387 0.58616 0.0
H437 H 0.9279 0.53253 0.4736 0.0
H438 H 0.99258 0.63626 0.51957 0.0
H439 H 0.99991 0.62768 0.63185 0.0
Pr440 Pr 0.46856 0.34927 0.91772 0.0
Pr441 Pr 0.4751 0.37896 0.80624 0.0
C442 C 0.45552 0.32842 1.03548 0.0
C443 C 0.45832 0.34412 0.10026 0.0
C444 C 0.4356 0.32647 0.14347 0.0
C445 C 0.43614 0.34156 0.20334 0.0
C446 C 0.45945 0.37465 0.22117 0.0
C447 C 0.48198 0.39245 0.17744 0.0
C448 C 0.4814 0.37731 0.11742 0.0
C449 C 0.41318 0.31491 0.82052 0.0
C450 C 0.46056 0.41139 0.93851 0.0
C451 C 0.46779 0.39644 0.68941 0.0
C452 C 0.46148 0.40306 0.62342 0.0
C453 C 0.48267 0.43277 0.59937 0.0
C454 C 0.48098 0.4356 0.53293 0.0
C455 C 0.45792 0.40881 0.48994 0.0
C456 C 0.43488 0.38029 0.5151 0.0
C457 C 0.4368 0.37737 0.58087 0.0
C458 C 0.53886 0.40614 0.86876 0.0
C459 C 0.49494 0.32017 0.81661 0.0
O460 O 0.48286 0.33489 1.0106 0.0
O461 O 0.43364 0.32834 0.99422 0.0
O462 O 0.42719 0.34436 0.84261 0.0
O463 O 0.4285 0.30173 0.84776 0.0
O464 O 0.45395 0.40634 0.87471 0.0
O465 O 0.47422 0.39672 0.96606 0.0
O466 O 0.45576 0.36629 0.70266 0.0
O467 O 0.48396 0.41867 0.73822 0.0
O468 O 0.51353 0.40104 0.89693 0.0
O469 O 0.53028 0.39389 0.8094 0.0
O470 O 0.5014 0.33076 0.87772 0.0
O471 O 0.47907 0.33054 0.77878 0.0
H472 H 0.41724 0.30101 0.13067 0.0
H473 H 0.4186 0.32719 0.23619 0.0
H474 H 0.4999 0.41808 0.18952 0.0
H475 H 0.49876 0.3916 0.08428 0.0
H476 H 0.5019 0.45298 0.63111 0.0
H477 H 0.49873 0.45809 0.51489 0.0
H478 H 0.41691 0.35916 0.48343 0.0
H479 H 0.42015 0.35408 0.59771 0.0
Pr480 Pr 0.39343 0.93725 0.25944 0.0
Pr481 Pr 0.35213 0.90929 0.14055 0.0
C482 C 0.42151 0.96797 0.3784 0.0
C483 C 0.41257 0.96019 0.44459 0.0
C484 C 0.43708 0.97122 0.49636 0.0
C485 C 0.4285 0.96422 0.55914 0.0
C486 C 0.3952 0.94619 0.57132 0.0
C487 C 0.37073 0.93537 0.51937 0.0
C488 C 0.37933 0.94206 0.4567 0.0
C489 C 0.41567 0.90111 0.18822 0.0
C490 C 0.32932 0.86089 0.24879 0.0
C491 C 0.32247 0.89121 1.01896 0.0
C492 C 0.33357 0.89866 0.95404 0.0
C493 C 0.31059 0.89156 0.90111 0.0
C494 C 0.32102 0.89937 0.83974 0.0
C495 C 0.35469 0.91451 0.83003 0.0
C496 C 0.37766 0.92193 0.88353 0.0
C497 C 0.3672 0.91393 0.94474 0.0
C498 C 0.32819 0.9361 0.23644 0.0
C499 C 0.41711 0.97982 0.12937 0.0
O500 O 0.4018 0.97388 0.34287 0.0
O501 O 0.43082 0.95003 0.34639 0.0
O502 O 0.40644 0.91976 0.16493 0.0
O503 O 0.40953 0.89806 0.24794 0.0
O504 O 0.33444 0.86086 0.18775 0.0
O505 O 0.34507 0.88897 0.28619 0.0
O506 O 0.33205 0.87379 0.0502 0.0
O507 O 0.32429 0.91543 0.05563 0.0
O508 O 0.35622 0.94924 0.21689 0.0
O509 O 0.31058 0.90735 0.2057 0.0
O510 O 0.42188 0.98169 0.19339 0.0
O511 O 0.39375 0.95304 0.09723 0.0
H512 H 0.46286 0.98535 0.48829 0.0
H513 H 0.44789 0.97324 0.59832 0.0
H514 H 0.34491 0.92131 0.52712 0.0
H515 H 0.35996 0.93308 0.41759 0.0
H516 H 0.28455 0.88 0.90725 0.0
H517 H 0.30267 0.89328 0.79968 0.0
H518 H 0.40382 0.93431 0.87831 0.0
H519 H 0.38544 0.91983 0.98486 0.0
Pr520 Pr 0.15313 0.45694 0.16389 0.0
Pr521 Pr 0.14662 0.49097 0.27718 0.0
C522 C 0.14739 0.42521 0.04754 0.0
C523 C 0.14666 0.43385 0.98041 0.0
C524 C 0.16409 0.42738 0.93498 0.0
C525 C 0.16413 0.43634 0.87205 0.0
C526 C 0.14675 0.45204 0.85313 0.0
C527 C 0.12873 0.4578 0.89847 0.0
C528 C 0.12889 0.44909 0.96133 0.0
C529 C 0.2143 0.49341 0.2372 0.0
C530 C 0.17314 0.53478 0.16284 0.0
C531 C 0.14296 0.51458 0.39549 0.0
C532 C 0.14523 0.50686 0.46272 0.0
C533 C 0.12605 0.51102 0.50726 0.0
C534 C 0.12691 0.50278 0.57039 0.0
C535 C 0.14702 0.49016 0.59055 0.0
C536 C 0.16612 0.48585 0.5457 0.0
C537 C 0.16528 0.49415 0.4825 0.0
C538 C 0.09357 0.46657 0.17694 0.0
C539 C 0.13151 0.41673 0.2978 0.0
O540 O 0.12242 0.4204 0.07883 0.0
O541 O 0.1753 0.44166 0.08365 0.0
O542 O 0.18695 0.4761 0.26025 0.0
O543 O 0.20917 0.49555 0.17662 0.0
O544 O 0.18038 0.53582 0.22474 0.0
O545 O 0.15636 0.50587 0.12842 0.0
O546 O 0.16999 0.52715 0.36635 0.0
O547 O 0.1171 0.49289 0.35792 0.0
O548 O 0.10698 0.452 0.20094 0.0
O549 O 0.10752 0.49601 0.20568 0.0
O550 O 0.13693 0.41394 0.23615 0.0
O551 O 0.1354 0.44431 0.32341 0.0
H552 H 0.17794 0.41564 0.94833 0.0
H553 H 0.17827 0.43149 0.8385 0.0
H554 H 0.11429 0.46896 0.88536 0.0
H555 H 0.11515 0.45445 0.99507 0.0
H556 H 0.11012 0.52041 0.49301 0.0
H557 H 0.11139 0.5058 0.60323 0.0
H558 H 0.18177 0.4761 0.55957 0.0
H559 H 0.17999 0.49026 0.44888 0.0
Pr560 Pr 0.59397 0.67926 0.25402 0.0
Pr561 Pr 0.6082 0.71729 0.15696 0.0
C562 C 0.58772 0.65388 0.36861 0.0
C563 C 0.59364 0.66449 0.43797 0.0
C564 C 0.57578 0.64179 0.48078 0.0
C565 C 0.57993 0.65141 0.54665 0.0
C566 C 0.60194 0.68401 0.57091 0.0
C567 C 0.62049 0.7066 0.52806 0.0
C568 C 0.61626 0.69694 0.46195 0.0
C569 C 0.54107 0.64362 0.16037 0.0
C570 C 0.57436 0.73889 0.25401 0.0
C571 C 0.62738 0.74864 0.04977 0.0
C572 C 0.62223 0.73974 0.9798 0.0
C573 C 0.64143 0.76293 0.93885 0.0
C574 C 0.63798 0.75424 0.87253 0.0
C575 C 0.6152 0.7222 0.84615 0.0
C576 C 0.59617 0.69897 0.88756 0.0
C577 C 0.59962 0.70768 0.9538 0.0
C578 C 0.65867 0.74408 0.26411 0.0
C579 C 0.61469 0.65547 0.12245 0.0
O580 O 0.56407 0.65549 0.3367 0.0
O581 O 0.61354 0.66311 0.33697 0.0
O582 O 0.5544 0.67452 0.17493 0.0
O583 O 0.55727 0.63212 0.19021 0.0
O584 O 0.57332 0.73365 0.19192 0.0
O585 O 0.58689 0.72511 0.29123 0.0
O586 O 0.60204 0.74539 0.07829 0.0
O587 O 0.64431 0.73835 0.08219 0.0
O588 O 0.64532 0.71604 0.23479 0.0
O589 O 0.64513 0.75961 0.23996 0.0
O590 O 0.62004 0.65806 0.18611 0.0
O591 O 0.60149 0.67128 0.09785 0.0
H592 H 0.55838 0.61661 0.46315 0.0
H593 H 0.56584 0.63334 0.5787 0.0
H594 H 0.63767 0.73185 0.5455 0.0
H595 H 0.63029 0.71484 0.42955 0.0
H596 H 0.65926 0.7877 0.95823 0.0
H597 H 0.65296 0.77262 0.84179 0.0
H598 H 0.57895 0.67393 0.86885 0.0
H599 H 0.5849 0.68932 0.98479 0.0
Pr600 Pr 0.39709 0.47906 0.26927 0.0
Pr601 Pr 0.35413 0.45124 0.15659 0.0
C602 C 0.42905 0.49155 0.38842 0.0
C603 C 0.4199 0.48451 0.45463 0.0
C604 C 0.44354 0.48783 0.50307 0.0
C605 C 0.4351 0.48079 0.56583 0.0
C606 C 0.40276 0.47014 0.58131 0.0
C607 C 0.37894 0.46609 0.53222 0.0
C608 C 0.38746 0.47333 0.46958 0.0
C609 C 0.42237 0.45765 0.16622 0.0
C610 C 0.33397 0.40932 0.28364 0.0
C611 C 0.3285 0.43092 1.03201 0.0
C612 C 0.34049 0.43589 0.96733 0.0
C613 C 0.31806 0.427 0.91264 0.0
C614 C 0.32907 0.43207 0.85111 0.0
C615 C 0.36283 0.44599 0.84279 0.0
C616 C 0.38517 0.45427 0.89791 0.0
C617 C 0.37416 0.44972 0.9595 0.0
C618 C 0.32241 0.47024 0.2434 0.0
C619 C 0.41544 0.53143 0.17296 0.0
O620 O 0.42254 0.51224 0.36182 0.0
O621 O 0.42229 0.46633 0.34859 0.0
O622 O 0.39469 0.44169 0.18729 0.0
O623 O 0.4386 0.486 0.19939 0.0
O624 O 0.33375 0.40526 0.22003 0.0
O625 O 0.3517 0.4387 0.31271 0.0
O626 O 0.33731 0.41459 0.06833 0.0
O627 O 0.32977 0.45599 0.06411 0.0
O628 O 0.35304 0.48757 0.23543 0.0
O629 O 0.3086 0.44266 0.20765 0.0
O630 O 0.41427 0.52957 0.23498 0.0
O631 O 0.39877 0.50408 0.13318 0.0
H632 H 0.46858 0.49588 0.49235 0.0
H633 H 0.45383 0.48351 0.60222 0.0
H634 H 0.35384 0.45792 0.5426 0.0
H635 H 0.36872 0.47031 0.43291 0.0
H636 H 0.29197 0.41641 0.91754 0.0
H637 H 0.31114 0.42558 0.81007 0.0
H638 H 0.41121 0.46419 0.89361 0.0
H639 H 0.39197 0.45714 1.00105 0.0
Pr640 Pr 0.60673 0.90507 0.14326 0.0
Pr641 Pr 0.60195 0.9396 0.25226 0.0
C642 C 0.61318 0.88209 1.02655 0.0
C643 C 0.61225 0.88947 0.95893 0.0
C644 C 0.63413 0.88747 0.91844 0.0
C645 C 0.63456 0.89551 0.85495 0.0
C646 C 0.61305 0.90571 0.8306 0.0
C647 C 0.59121 0.90781 0.87137 0.0
C648 C 0.5908 0.89977 0.9349 0.0
C649 C 0.65977 0.9267 0.24267 0.0
C650 C 0.62446 0.97898 0.1218 0.0
C651 C 0.60324 0.96429 0.37328 0.0
C652 C 0.60744 0.95738 0.44013 0.0
C653 C 0.58956 0.96214 0.48682 0.0
C654 C 0.59194 0.9544 0.54975 0.0
C655 C 0.61236 0.94177 0.56753 0.0
C656 C 0.63085 0.9377 0.52083 0.0
C657 C 0.62814 0.9451 0.45763 0.0
C658 C 0.54613 0.92002 0.16656 0.0
C659 C 0.57633 0.8585 0.25015 0.0
O660 O 0.5855 0.86928 0.05328 0.0
O661 O 0.6381 0.90417 0.06537 0.0
O662 O 0.64845 0.94346 0.21982 0.0
O663 O 0.64357 0.89728 0.21378 0.0
O664 O 0.62803 0.98405 0.18577 0.0
O665 O 0.6099 0.94901 0.09474 0.0
O666 O 0.62894 0.97559 0.34056 0.0
O667 O 0.57618 0.94273 0.33882 0.0
O668 O 0.55826 0.90187 0.17917 0.0
O669 O 0.565 0.94945 0.19385 0.0
O670 O 0.57267 0.85838 0.18774 0.0
O671 O 0.59165 0.88711 0.28625 0.0
H672 H 0.65118 0.87998 0.93618 0.0
H673 H 0.65213 0.8943 0.82522 0.0
H674 H 0.57441 0.91567 0.85404 0.0
H675 H 0.57399 0.90196 0.96542 0.0
H676 H 0.57333 0.97144 0.47433 0.0
H677 H 0.57721 0.95767 0.58421 0.0
H678 H 0.64744 0.92881 0.53305 0.0
H679 H 0.64199 0.94094 0.42238 0.0
Pr680 Pr 0.13983 0.67199 0.27325 0.0
Pr681 Pr 0.15951 0.71614 0.16261 0.0
C682 C 0.1379 0.64608 0.3849 0.0
C683 C 0.14365 0.65876 0.45294 0.0
C684 C 0.13228 0.63708 0.5004 0.0
C685 C 0.13557 0.64892 0.56481 0.0
C686 C 0.15019 0.68265 0.58268 0.0
C687 C 0.16195 0.70433 0.53491 0.0
C688 C 0.15855 0.69246 0.47049 0.0
C689 C 0.0912 0.64119 0.16322 0.0
C690 C 0.12719 0.73354 0.29342 0.0
C691 C 0.16399 0.74821 0.05786 0.0
C692 C 0.16139 0.73996 0.9881 0.0
C693 C 0.17099 0.76435 0.94595 0.0
C694 C 0.16957 0.75656 0.87973 0.0
C695 C 0.15795 0.72409 0.85456 0.0
C696 C 0.14819 0.69979 0.89734 0.0
C697 C 0.15033 0.70772 0.96342 0.0
C698 C 0.21289 0.73583 0.25325 0.0
C699 C 0.17115 0.6524 0.15899 0.0
O700 O 0.16375 0.65781 0.35213 0.0
O701 O 0.11188 0.64382 0.35355 0.0
O702 O 0.11692 0.66821 0.17207 0.0
O703 O 0.08906 0.62728 0.21577 0.0
O704 O 0.13979 0.74269 0.23733 0.0
O705 O 0.12397 0.7071 0.31603 0.0
O706 O 0.13679 0.73262 0.08574 0.0
O707 O 0.18956 0.75048 0.09093 0.0
O708 O 0.1835 0.72699 0.26715 0.0
O709 O 0.21261 0.72829 0.19248 0.0
O710 O 0.17305 0.65696 0.22192 0.0
O711 O 0.16072 0.66808 0.12215 0.0
H712 H 0.12039 0.61098 0.48753 0.0
H713 H 0.12614 0.63164 0.60055 0.0
H714 H 0.17387 0.73045 0.54735 0.0
H715 H 0.16725 0.70954 0.43425 0.0
H716 H 0.18009 0.78948 0.96435 0.0
H717 H 0.17824 0.77607 0.8486 0.0
H718 H 0.13901 0.67454 0.87976 0.0
H719 H 0.14368 0.68869 0.99531 0.0
C720 C 0.11889 0.35971 0.32598 0.0
C721 C 0.12046 0.38969 0.34255 0.0
C722 C 0.10753 0.3347 0.36832 0.0
C723 C 0.09808 0.33875 0.42994 0.0
H724 H 0.12572 0.35518 0.2795 0.0
H725 H 0.10524 0.31153 0.35189 0.0
S726 S 0.09397 0.41049 0.49539 0.0
N727 N 0.10867 0.42024 0.42518 0.0
N728 N 0.08918 0.37409 0.50325 0.0
C729 C 0.09982 0.36846 0.44737 0.0
C730 C 0.11047 0.39357 0.40421 0.0
C731 C 0.71711 0.79635 0.415 0.0
C732 C 0.7267 0.77537 0.442 0.0
C733 C 0.69538 0.78637 0.35771 0.0
C734 C 0.68267 0.75517 0.32398 0.0
H735 H 0.72654 0.82076 0.43817 0.0
H736 H 0.68855 0.80329 0.33961 0.0
S737 S 0.6995 0.69064 0.37435 0.0
N738 N 0.71997 0.7211 0.43135 0.0
N739 N 0.6821 0.70367 0.32234 0.0
C740 C 0.69238 0.73419 0.35028 0.0
C741 C 0.71351 0.74391 0.4094 0.0
C742 C 0.32088 0.99679 0.35326 0.0
C743 C 0.30447 0.97857 0.40396 0.0
C744 C 0.32874 0.98292 0.30052 0.0
C745 C 0.31961 0.94975 0.2944 0.0
H746 H 0.3273 1.02212 0.35376 0.0
H747 H 0.34129 0.99818 0.26317 0.0
S748 S 0.27864 0.89169 0.41606 0.0
N749 N 0.28124 0.92592 0.44634 0.0
N750 N 0.29545 0.89967 0.34723 0.0
C751 C 0.30398 0.93139 0.34561 0.0
C752 C 0.29661 0.94581 0.4003 0.0
C753 C 0.3604 0.07636 0.68258 0.0
C754 C 0.35027 0.09595 0.65153 0.0
C755 C 0.38074 0.08757 0.7415 0.0
C756 C 0.39281 0.11931 0.77206 0.0
H757 H 0.35243 0.05193 0.66137 0.0
H758 H 0.38718 0.0711 0.76313 0.0
S759 S 0.37307 0.18039 0.71255 0.0
N760 N 0.35363 0.14879 0.65741 0.0
N761 N 0.39161 0.16969 0.76729 0.0
C762 C 0.38253 0.13904 0.74209 0.0
C763 C 0.36157 0.12752 0.68216 0.0
C764 C 0.98514 0.31893 0.71695 0.0
C765 C 0.95654 0.29797 0.74613 0.0
C766 C 0.99413 0.30837 0.66078 0.0
C767 C 0.97515 0.27616 0.63089 0.0
H768 H 1.00071 0.34401 0.73726 0.0
H769 H 1.01618 0.32574 0.64047 0.0
S770 S 0.90025 0.21016 0.69198 0.0
N771 N 0.91076 0.24249 0.74293 0.0
N772 N 0.92755 0.22275 0.63859 0.0
C773 C 0.94702 0.25471 0.66064 0.0
C774 C 0.93783 0.26549 0.7178 0.0
C775 C 0.80135 0.69368 0.67906 0.0
C776 C 0.78075 0.70617 0.66049 0.0
C777 C 0.79442 0.6733 0.73037 0.0
C778 C 0.76679 0.66472 0.76551 0.0
H779 H 0.82374 0.70094 0.65607 0.0
H780 H 0.81125 0.66486 0.74357 0.0
S781 S 0.70592 0.69205 0.73737 0.0
N782 N 0.7314 0.70788 0.68164 0.0
N783 N 0.71974 0.67197 0.77835 0.0
C784 C 0.74627 0.67721 0.74699 0.0
C785 C 0.75284 0.69711 0.69456 0.0
C786 C 0.95346 0.69709 0.6755 0.0
C787 C 0.98503 0.70793 0.65469 0.0
C788 C 0.94159 0.6756 0.72455 0.0
C789 C 0.96096 0.66438 0.75573 0.0
H790 H 0.93828 0.70624 0.65543 0.0
H791 H 0.91732 0.66832 0.73906 0.0
S792 S 0.04625 0.68732 0.72196 0.0
N793 N 1.03566 0.70653 0.67093 0.0
N794 N 1.014 0.66702 0.76239 0.0
C795 C 0.99255 0.67515 0.73505 0.0
C796 C 1.00441 0.6967 0.68507 0.0
C797 C 0.35585 0.25541 0.67474 0.0
C798 C 0.3466 0.27465 0.63972 0.0
C799 C 0.37707 0.26828 0.73299 0.0
C800 C 0.38958 0.30081 0.75973 0.0
H801 H 0.34647 0.23013 0.65727 0.0
H802 H 0.3836 0.25252 0.75743 0.0
S803 S 0.37365 0.3618 0.6868 0.0
N804 N 0.35366 0.3288 0.63518 0.0
N805 N 0.39053 0.35172 0.74579 0.0
C806 C 0.38033 0.32013 0.72523 0.0
C807 C 0.3598 0.30746 0.66513 0.0
C808 C 0.78978 0.12953 0.74418 0.0
C809 C 0.76122 0.11161 0.77637 0.0
C810 C 0.79708 0.11493 0.69079 0.0
C811 C 0.77589 0.08187 0.66706 0.0
H812 H 0.80704 0.15477 0.76136 0.0
H813 H 0.82017 0.12908 0.67028 0.0
S814 S 0.69785 1.02432 0.73267 0.0
N815 N 0.71201 0.05871 0.77932 0.0
N816 N 0.72466 0.03231 0.67907 0.0
C817 C 0.74686 0.0643 0.69758 0.0
C818 C 0.73984 0.07878 0.75204 0.0
C819 C 0.69456 0.96824 0.33689 0.0
C820 C 0.68294 0.93726 0.30339 0.0
C821 C 0.71439 0.97803 0.39617 0.0
C822 C 0.72429 0.95766 0.42465 0.0
H823 H 0.68805 0.98514 0.31748 0.0
H824 H 0.72217 1.00202 0.41972 0.0
S825 S 0.70304 0.87516 0.35436 0.0
N826 N 0.68432 0.88682 0.30216 0.0
N827 N 0.72183 0.90532 0.41258 0.0
C828 C 0.71348 0.92688 0.39103 0.0
C829 C 0.69296 0.91676 0.33077 0.0
C830 C 0.07646 0.74677 0.41379 0.0
C831 C 0.09882 0.77683 0.44936 0.0
C832 C 0.08497 0.73492 0.35897 0.0
C833 C 0.11635 0.75227 0.33638 0.0
H834 H 0.05227 0.7316 0.42944 0.0
H835 H 0.06719 0.71099 0.33564 0.0
S836 S 0.18412 0.83277 0.41041 0.0
N837 N 0.15377 0.82444 0.45592 0.0
N838 N 0.16984 0.80169 0.35418 0.0
C839 C 0.13869 0.78288 0.3701 0.0
C840 C 0.12995 0.79518 0.42608 0.0
C841 C 0.30639 0.38685 0.38485 0.0
C842 C 0.3174 0.38186 0.32556 0.0
C843 C 0.29481 0.36302 0.42968 0.0
C844 C 0.29419 0.33322 0.41778 0.0
H845 H 0.30698 0.40964 0.39704 0.0
H846 H 0.28626 0.36797 0.47365 0.0
S847 S 0.32541 0.31046 0.27434 0.0
N848 N 0.32936 0.34602 0.26058 0.0
N849 N 0.30936 0.30213 0.34374 0.0
C850 C 0.30626 0.32862 0.35925 0.0
C851 C 0.31731 0.35254 0.31354 0.0
C852 C 0.04044 0.40766 1.03108 0.0
C853 C 1.02903 0.4249 0.995 0.0
C854 C 0.06026 0.42125 0.08969 0.0
C855 C 0.07112 0.45346 0.11512 0.0
H856 H 1.03242 0.38241 1.01553 0.0
H857 H 0.06659 0.40586 0.11603 0.0
S858 S 0.04822 0.50964 0.04192 0.0
N859 N 1.02971 0.47619 0.99099 0.0
N860 N 0.06821 0.50232 0.10004 0.0
C861 C 0.06057 0.4715 0.07948 0.0
C862 C 0.03959 0.45725 1.01965 0.0
C863 C 0.62481 0.61473 0.96788 0.0
C864 C 0.65663 0.61925 0.97978 0.0
C865 C 0.61074 0.6252 1.01534 0.0
C866 C 0.62749 0.63985 0.07716 0.0
H867 H 0.61072 0.60307 0.92187 0.0
H868 H 0.58656 0.62203 1.00335 0.0
S869 S 0.71261 0.66094 0.13126 0.0
N870 N 0.70559 0.64286 0.05767 0.0
N871 N 0.67818 0.66022 0.14573 0.0
C872 C 0.65915 0.64462 0.08954 0.0
C873 C 0.67391 0.63499 0.04122 0.0
C874 C 0.45453 0.02946 0.98719 0.0
C875 C 0.44907 0.05592 0.99732 0.0
C876 C 0.44642 1.00604 1.03258 0.0
C877 C 0.43347 1.00853 0.09097 0.0
H878 H 0.46481 0.02662 0.94385 0.0
H879 H 0.44958 0.98528 1.02117 0.0
S880 S 0.40999 0.06998 0.13746 0.0
N881 N 0.42627 0.08063 0.06886 0.0
N882 N 0.41278 0.03774 0.15288 0.0
C883 C 0.42775 0.03456 0.10138 0.0
C884 C 0.43508 0.05784 0.05507 0.0
C885 C 0.64645 0.0587 0.04574 0.0
C886 C 0.65549 0.05371 0.98425 0.0
C887 C 0.6372 0.03522 0.09097 0.0
C888 C 0.63676 1.00565 0.07701 0.0
H889 H 0.64664 0.08117 0.05933 0.0
H890 H 0.62996 0.04011 0.1367 0.0
S891 S 0.66318 0.98269 0.92738 0.0
N892 N 0.66613 1.01801 0.91502 0.0
N893 N 0.6495 0.97439 0.99888 0.0
C894 C 0.64668 1.00086 1.01635 0.0
C895 C 0.65577 1.0246 0.97036 0.0
C896 C 0.07633 0.64628 0.04816 0.0
C897 C 0.06926 0.62736 0.10097 0.0
C898 C 0.05506 0.63549 0.99055 0.0
C899 C 1.02566 0.60513 0.98299 0.0
H900 H 0.09775 0.67042 0.05253 0.0
H901 H 0.06053 0.65207 0.9536 0.0
S902 S 0.99569 0.54549 0.10513 0.0
N903 N 1.03102 0.57589 0.14011 0.0
N904 N 0.99087 0.55599 1.03313 0.0
C905 C 1.01887 0.58543 1.03445 0.0
C906 C 0.04063 0.59636 0.09295 0.0
C907 C 0.41017 0.41738 0.06859 0.0
C908 C 0.43161 0.44792 0.10377 0.0
C909 C 0.41813 0.40743 1.01032 0.0
C910 C 0.44794 0.4274 0.98387 0.0
H911 H 0.38725 0.40053 0.08697 0.0
H912 H 0.40156 0.38293 0.98773 0.0
S913 S 0.51319 0.50944 0.05647 0.0
N914 N 0.48423 0.49821 0.10647 0.0
N915 N 0.49929 0.47909 0.99873 0.0
C916 C 0.46943 0.45809 1.01807 0.0
C917 C 0.46127 0.46842 0.07723 0.0
C918 C 0.10728 0.20179 0.53933 0.0
C919 C 0.10274 0.22543 0.50985 0.0
C920 C 0.13735 0.20193 0.54071 0.0
C921 C 0.16473 0.22563 0.51251 0.0
H922 H 0.08791 0.18395 0.56501 0.0
H923 H 0.13974 0.18422 0.56744 0.0
S924 S 0.16545 0.29142 0.42348 0.0
N925 N 0.12794 0.27196 0.44702 0.0
N926 N 0.1843 0.27216 0.44952 0.0
C927 C 0.15997 0.24813 0.4788 0.0
C928 C 0.12912 0.24803 0.47747 0.0
C929 C 0.85752 0.94681 0.52528 0.0
C930 C 0.83535 0.94996 0.4822 0.0
C931 C 0.85807 0.91757 0.52638 0.0
C932 C 0.83655 0.88961 0.48432 0.0
H933 H 0.87319 0.96651 0.56203 0.0
H934 H 0.87416 0.91632 0.56381 0.0
S935 S 0.78074 0.8874 0.34928 0.0
N936 N 0.7961 0.92437 0.38707 0.0
N937 N 0.79725 0.86919 0.38916 0.0
C938 C 0.81714 0.89347 0.43557 0.0
C939 C 0.81652 0.92363 0.43447 0.0
C940 C 0.13556 0.89119 0.4521 0.0
C941 C 0.11222 0.89266 0.48951 0.0
C942 C 0.16722 0.91884 0.44968 0.0
C943 C 0.17682 0.94955 0.48294 0.0
H944 H 0.13041 0.86792 0.4289 0.0
H945 H 0.18511 0.9156 0.42466 0.0
S946 S 0.12346 0.96756 0.58121 0.0
N947 N 0.1002 0.92832 0.55627 0.0
N948 N 0.15878 0.98002 0.54975 0.0
C949 C 0.15271 0.95196 0.51597 0.0
C950 C 0.12077 0.92366 0.51971 0.0
C951 C 0.26602 0.15654 0.64869 0.0
C952 C 0.23877 0.15766 0.61979 0.0
C953 C 0.26622 0.12671 0.64895 0.0
C954 C 0.23923 0.09692 0.62032 0.0
H955 H 0.28844 0.1791 0.66562 0.0
H956 H 0.28878 0.12752 0.66585 0.0
S957 S 0.15988 0.08578 0.54921 0.0
N958 N 0.18251 0.12544 0.57048 0.0
N959 N 0.18304 0.0702 0.57072 0.0
C960 C 0.21081 0.09748 0.59765 0.0
C961 C 0.21057 0.12757 0.59736 0.0
C962 C 0.92777 0.10292 0.62333 0.0
C963 C 0.89645 0.09668 0.59814 0.0
C964 C 0.95657 0.13391 0.62181 0.0
C965 C 0.95529 0.15952 0.59321 0.0
H966 H 0.93031 0.08327 0.64124 0.0
H967 H 0.98019 0.13714 0.63939 0.0
S968 S 0.8797 0.15461 0.51559 0.0
N969 N 0.86633 0.11886 0.54376 0.0
N970 N 0.91982 0.17512 0.53577 0.0
C971 C 0.92404 0.15332 0.56815 0.0
C972 C 0.89486 0.12252 0.57203 0.0
C973 C 0.93266 0.78628 0.62145 0.0
C974 C 0.96231 0.80901 0.59754 0.0
C975 C 0.90475 0.79019 0.6196 0.0
C976 C 0.905 0.81678 0.59252 0.0
H977 H 0.93024 0.76399 0.63768 0.0
H978 H 0.88204 0.77077 0.63434 0.0
S979 S 0.97732 0.88515 0.52983 0.0
N980 N 0.99092 0.86078 0.55191 0.0
N981 N 0.93867 0.86791 0.54716 0.0
C982 C 0.93525 0.84092 0.57299 0.0
C983 C 0.96381 0.83714 0.57581 0.0
C984 C 0.81068 0.5325 0.8009 0.0
C985 C 0.83796 0.55679 0.77364 0.0
C986 C 0.78068 0.53226 0.80042 0.0
C987 C 0.77631 0.5564 0.77288 0.0
H988 H 0.81328 0.51479 0.82726 0.0
H989 H 0.76151 0.51434 0.82637 0.0
S990 S 0.83812 0.62247 0.68563 0.0
N991 N 0.85722 0.60331 0.71087 0.0
N992 N 0.80074 0.60286 0.70979 0.0
C993 C 0.80219 0.57891 0.73958 0.0
C994 C 0.83301 0.57913 0.74006 0.0
C995 C 0.47425 0.26277 0.76433 0.0
C996 C 0.50002 0.29224 0.79688 0.0
C997 C 0.47493 0.23321 0.76463 0.0
C998 C 0.50118 0.23203 0.79803 0.0
H999 H 0.45222 0.26191 0.74339 0.0
H1000 H 0.45358 0.21079 0.7434 0.0
S1001 S 0.57738 0.30348 0.8793 0.0
N1002 N 0.55463 0.31896 0.85434 0.0
N1003 N 0.5557 0.26403 0.85546 0.0
C1004 C 0.52837 0.26194 0.82478 0.0
C1005 C 0.52779 0.2918 0.82418 0.0
C1006 C 0.78125 0.26103 0.82153 0.0
C1007 C 0.77439 0.23071 0.7914 0.0
C1008 C 0.81131 0.28981 0.81735 0.0
C1009 C 0.83649 0.28993 0.78348 0.0
H1010 H 0.76417 0.26218 0.85284 0.0
H1011 H 0.81599 0.31176 0.84588 0.0
S1012 S 0.82849 0.21839 0.68463 0.0
N1013 N 0.79322 0.20359 0.7173 0.0
N1014 N 0.85021 0.25765 0.71068 0.0
C1015 C 0.82867 0.26054 0.7472 0.0
C1016 C 0.79756 0.23099 0.75093 0.0
C1017 C 0.88695 0.46295 0.89364 0.0
C1018 C 0.91612 0.49319 0.89246 0.0
C1019 C 0.88751 0.43349 0.89679 0.0
C1020 C 0.91724 0.43287 0.89865 0.0
H1021 H 0.86333 0.46176 0.88821 0.0
H1022 H 0.86426 0.41072 0.89329 0.0
S1023 S 0.99994 0.50485 0.88872 0.0
N1024 N 0.97531 0.52018 0.89023 0.0
N1025 N 0.97631 0.46537 0.89454 0.0
C1026 C 0.94656 0.46309 0.89877 0.0
C1027 C 0.946 0.49302 0.89609 0.0
C1028 C 0.57961 0.46533 0.91223 0.0
C1029 C 0.57333 0.43455 0.88509 0.0
C1030 C 0.61053 0.49413 0.90947 0.0
C1031 C 0.63631 0.49329 0.87922 0.0
H1032 H 0.55981 0.4676 0.93123 0.0
H1033 H 0.61334 0.51742 0.92672 0.0
S1034 S 0.63402 0.41846 0.80933 0.0
N1035 N 0.59703 0.40497 0.83384 0.0
N1036 N 0.65421 0.45839 0.82822 0.0
C1037 C 0.63097 0.46237 0.85658 0.0
C1038 C 0.59983 0.43329 0.85966 0.0
C1039 C 0.59909 0.13026 0.93647 0.0
C1040 C 0.6281 0.15171 0.909 0.0
C1041 C 0.57153 0.13473 0.93559 0.0
C1042 C 0.57142 0.16055 0.90586 0.0
H1043 H 0.59688 0.10854 0.95529 0.0
H1044 H 0.54926 0.11627 0.95358 0.0
S1045 S 0.64207 0.2255 0.8325 0.0
N1046 N 0.65579 0.20152 0.85653 0.0
N1047 N 0.6041 0.20957 0.85338 0.0
C1048 C 0.60105 0.18341 0.88217 0.0
C1049 C 0.62931 0.17914 0.8841 0.0
C1050 C 0.49985 0.9286 0.12757 0.0
C1051 C 0.50999 0.90838 0.15594 0.0
C1052 C 0.4681 0.92419 0.13273 0.0
C1053 C 0.4452 0.89977 0.16793 0.0
H1054 H 0.51737 0.94934 0.10439 0.0
H1055 H 0.46248 0.94167 0.11314 0.0
S1056 S 0.45801 0.83817 0.24608 0.0
N1057 N 0.49314 0.86102 0.21544 0.0
N1058 N 0.43405 0.85319 0.22658 0.0
C1059 C 0.45425 0.87805 0.19287 0.0
C1060 C 0.48641 0.8822 0.18655 0.0
C1061 C 0.15116 0.59634 0.10308 0.0
C1062 C 0.17728 0.626 0.13399 0.0
C1063 C 0.15164 0.56676 0.10476 0.0
C1064 C 0.17789 0.56577 0.13858 0.0
H1065 H 0.12886 0.59533 0.08329 0.0
H1066 H 0.13002 0.54422 0.085 0.0
S1067 S 0.25478 0.63759 0.21623 0.0
N1068 N 0.2322 0.65304 0.19 0.0
N1069 N 0.23277 0.59796 0.19431 0.0
C1070 C 0.2055 0.59579 0.16322 0.0
C1071 C 0.20523 0.62571 0.16071 0.0
C1072 C 0.4951 0.59063 0.10637 0.0
C1073 C 0.50506 0.62033 0.144 0.0
C1074 C 0.46396 0.5626 0.10954 0.0
C1075 C 0.44187 0.56284 0.15202 0.0
H1076 H 0.5126 0.58825 0.07826 0.0
H1077 H 0.4586 0.53987 0.08335 0.0
S1078 S 0.4541 0.63527 0.25474 0.0
N1079 N 0.48846 0.64898 0.2192 0.0
N1080 N 0.43069 0.59645 0.22677 0.0
C1081 C 0.45041 0.59309 0.18563 0.0
C1082 C 0.48177 0.62176 0.18125 0.0
C1083 C 0.54344 0.76799 0.23729 0.0
C1084 C 0.56692 0.76492 0.27639 0.0
C1085 C 0.54409 0.7978 0.23604 0.0
C1086 C 0.56828 0.82627 0.27378 0.0
H1087 H 0.52632 0.74795 0.20243 0.0
H1088 H 0.52731 0.79922 0.20046 0.0
S1089 S 0.62713 0.82827 0.40219 0.0
N1090 N 0.60939 0.79069 0.36628 0.0
N1091 N 0.61058 0.84704 0.3642 0.0
C1092 C 0.58855 0.82237 0.32051 0.0
C1093 C 0.58788 0.79163 0.32173 0.0
C1094 C 0.30221 0.80341 0.28227 0.0
C1095 C 0.30019 0.83115 0.26897 0.0
C1096 C 0.27352 0.77273 0.28563 0.0
C1097 C 0.24164 0.76862 0.27676 0.0
H1098 H 0.32598 0.80488 0.28579 0.0
H1099 H 0.27623 0.75157 0.2903 0.0
S1100 S 0.22256 0.83276 0.23651 0.0
N1101 N 0.26313 0.85148 0.24371 0.0
N1102 N 0.21019 0.79508 0.25309 0.0
C1103 C 0.23951 0.79652 0.26644 0.0
C1104 C 0.26847 0.82736 0.26147 0.0
C1105 C 0.30205 0.5099 0.23447 0.0
C1106 C 0.30068 0.48314 0.26274 0.0
C1107 C 0.27491 0.51502 0.23222 0.0
C1108 C 0.24547 0.49386 0.25879 0.0
H1109 H 0.32287 0.52513 0.20857 0.0
H1110 H 0.27608 0.53429 0.20518 0.0
S1111 S 0.23149 0.42299 0.34658 0.0
N1112 N 0.26891 0.4373 0.32366 0.0
N1113 N 0.21857 0.44735 0.32114 0.0
C1114 C 0.24519 0.46899 0.29276 0.0
C1115 C 0.27259 0.46351 0.29413 0.0
C1116 C 1.00572 0.23746 0.04672 0.0
C1117 C 1.02374 0.25973 0.10091 0.0
C1118 C 1.01523 0.24451 0.9845 0.0
C1119 C 0.04313 0.27419 0.97373 0.0
H1120 H 0.98437 0.21407 0.05255 0.0
H1121 H 1.00089 0.22625 0.94456 0.0
S1122 S 0.09701 0.34206 0.09889 0.0
N1123 N 0.06972 0.31349 0.13945 0.0
N1124 N 0.0875 0.32691 1.02258 0.0
C1125 C 0.06102 0.29698 1.02744 0.0
C1126 C 0.05136 0.28973 0.09089 0.0
C1127 C 0.77118 0.76702 0.07841 0.0
C1128 C 0.80103 0.77352 0.1116 0.0
C1129 C 0.76993 0.77498 1.01495 0.0
C1130 C 0.79848 0.78975 0.98212 0.0
H1131 H 0.74855 0.75549 0.10155 0.0
H1132 H 0.74637 0.76933 0.99123 0.0
S1133 S 0.88317 0.81411 0.04914 0.0
N1134 N 0.86006 0.79706 0.10777 0.0
N1135 N 0.85771 0.81193 0.9889 0.0
C1136 C 0.8285 0.79657 1.01495 0.0
C1137 C 0.82977 0.78849 0.07948 0.0
C1138 C 0.25923 1.02082 0.07288 0.0
C1139 C 0.28717 0.04802 0.10615 0.0
C1140 C 0.25826 1.01216 1.00721 0.0
C1141 C 0.28518 0.03034 0.97191 0.0
H1142 H 0.23766 1.00631 0.0976 0.0
H1143 H 0.23599 0.99127 0.98363 0.0
S1144 S 0.36505 0.10247 0.03698 0.0
N1145 N 0.34308 0.09226 0.09935 0.0
N1146 N 0.34115 0.07602 0.9757 0.0
C1147 C 0.31343 0.05743 1.00457 0.0
C1148 C 0.31445 0.06624 0.07165 0.0
C1149 C 0.06628 0.78429 1.02572 0.0
C1150 C 0.05371 0.79931 0.98595 0.0
C1151 C 0.05693 0.77783 0.08833 0.0
C1152 C 1.03458 0.78606 0.11348 0.0
H1153 H 0.08313 0.77704 1.00799 0.0
H1154 H 0.06687 0.76585 0.1169 0.0
S1155 S 0.99707 0.82865 1.03157 0.0
N1156 N 1.01949 0.82423 0.97819 0.0
N1157 N 1.00182 0.81192 0.0953 0.0
C1158 C 1.02234 0.80164 0.0747 0.0
C1159 C 1.0319 0.80828 1.01116 0.0
C1160 C 0.29292 0.26583 0.08034 0.0
C1161 C 0.26319 0.24644 0.10736 0.0
C1162 C 0.29311 0.27498 1.01753 0.0
C1163 C 0.26358 0.26524 0.97893 0.0
H1164 H 0.31631 0.27411 0.10809 0.0
H1165 H 0.31663 0.2899 0.99903 0.0
S1166 S 0.17909 0.21309 1.02545 0.0
N1167 N 0.2034 0.21705 0.08956 0.0
N1168 N 0.20378 0.23434 0.97191 0.0
C1169 C 0.23369 0.24601 1.0054 0.0
C1170 C 0.23349 0.23662 0.06937 0.0
C1171 C 0.78549 0.04064 0.06763 0.0
C1172 C 0.79081 1.02282 0.11366 0.0
C1173 C 0.78225 0.03142 1.00137 0.0
C1174 C 0.78412 1.00396 0.97852 0.0
H1175 H 0.78373 0.06186 0.08293 0.0
H1176 H 0.77815 0.04584 0.96775 0.0
S1177 S 0.79961 0.95013 0.0787 0.0
N1178 N 0.79905 0.97711 0.13133 0.0
N1179 N 0.79274 0.95972 1.00711 0.0
C1180 C 0.78939 0.98592 1.02396 0.0
C1181 C 0.79278 0.99535 0.09136 0.0
C1182 C 0.73098 0.62448 0.33184 0.0
C1183 C 0.71846 0.59644 0.28751 0.0
C1184 C 0.72135 0.6225 0.39486 0.0
C1185 C 0.69864 0.59243 0.41632 0.0
H1186 H 0.74821 0.64825 0.3176 0.0
H1187 H 0.73156 0.64479 0.42688 0.0
S1188 S 0.66034 0.51144 0.32124 0.0
N1189 N 0.68333 0.53739 0.27129 0.0
N1190 N 0.66512 0.53379 0.38882 0.0
C1191 C 0.6861 0.56422 0.37267 0.0
C1192 C 0.696 0.56619 0.30868 0.0
C1193 C 0.47347 0.15129 0.42427 0.0
C1194 C 0.46944 0.12069 0.43655 0.0
C1195 C 0.47352 0.16007 0.36122 0.0
C1196 C 0.46974 0.13876 0.30747 0.0
H1197 H 0.47696 0.16883 0.46385 0.0
H1198 H 0.47689 0.18397 0.35457 0.0
S1199 S 0.45626 0.05496 0.31254 0.0
N1200 N 0.45988 0.06836 0.38891 0.0
N1201 N 0.46079 0.08517 0.27084 0.0
C1202 C 0.46565 0.10807 0.31894 0.0
C1203 C 0.46529 0.09898 0.3832 0.0
C1204 C 0.93809 0.36902 0.32088 0.0
C1205 C 0.95144 0.35135 0.29157 0.0
C1206 C 0.94387 0.37821 0.3874 0.0
C1207 C 0.96314 0.37002 0.42739 0.0
H1208 H 0.92252 0.37531 0.29231 0.0
H1209 H 0.93263 0.39133 0.40792 0.0
S1210 S 1.00663 0.32701 0.37405 0.0
N1211 N 0.9868 0.32804 0.30728 0.0
N1212 N 0.99741 0.34514 0.4325 0.0
C1213 C 0.97721 0.35294 0.39873 0.0
C1214 C 0.97142 0.34365 0.33083 0.0
C1215 C 0.69576 0.11117 0.31627 0.0
C1216 C 0.72326 0.14131 0.30612 0.0
C1217 C 0.68655 0.10329 0.37851 0.0
C1218 C 0.70442 0.12519 0.43341 0.0
H1219 H 0.68129 0.0934 0.27573 0.0
H1220 H 0.66525 0.07976 0.38368 0.0
S1221 S 0.77727 0.20806 0.43316 0.0
N1222 N 0.76757 0.19363 0.35649 0.0
N1223 N 0.75031 0.17885 0.47304 0.0
C1224 C 0.73197 0.1554 0.42397 0.0
C1225 C 0.74134 0.16343 0.36059 0.0
C1226 C 0.91689 0.58041 0.32421 0.0
C1227 C 0.9432 0.59914 0.28797 0.0
C1228 C 0.92251 0.57603 0.38855 0.0
C1229 C 0.95467 0.59018 0.41929 0.0
H1230 H 0.89169 0.5693 0.30282 0.0
H1231 H 0.90146 0.56171 0.41469 0.0
S1232 S 1.03213 0.63879 0.34385 0.0
N1233 N 1.00267 0.63034 0.28641 0.0
N1234 N 1.01324 0.62208 0.40729 0.0
C1235 C 0.98123 0.60861 0.38336 0.0
C1236 C 0.9755 0.61309 0.31779 0.0
C1237 C 0.4319 0.38547 0.31112 0.0
C1238 C 0.46092 0.38968 0.28665 0.0
C1239 C 0.43166 0.39446 0.37615 0.0
C1240 C 0.4604 0.4079 0.41925 0.0
H1241 H 0.40892 0.37391 0.28034 0.0
H1242 H 0.40843 0.38929 0.3936 0.0
S1243 S 0.54317 0.4258 0.37818 0.0
N1244 N 0.51949 0.40999 0.30959 0.0
N1245 N 0.51903 0.42665 0.43171 0.0
C1246 C 0.48998 0.41413 0.39439 0.0
C1247 C 0.49023 0.40504 0.32814 0.0
C1248 C 0.3624 0.94517 0.66322 0.0
C1249 C 0.38579 0.93851 0.63785 0.0
C1250 C 0.35265 0.93752 0.72524 0.0
C1251 C 0.36572 0.9227 0.76441 0.0
H1252 H 0.35173 0.95665 0.63505 0.0
H1253 H 0.3349 0.94352 0.74284 0.0
S1254 S 0.42574 0.8978 0.71832 0.0
N1255 N 0.42065 0.91492 0.65553 0.0
N1256 N 0.40207 0.9001 0.77138 0.0
C1257 C 0.38886 0.91558 0.73919 0.0
C1258 C 0.39893 0.92357 0.67621 0.0
C1259 C 0.14344 0.44126 0.73219 0.0
C1260 C 0.14749 0.46245 0.78651 0.0
C1261 C 0.14361 0.45044 0.66927 0.0
C1262 C 0.14769 0.48114 0.65786 0.0
H1263 H 0.13957 0.41713 0.73823 0.0
H1264 H 0.13998 0.4331 0.62915 0.0
S1265 S 0.16249 0.54692 0.78315 0.0
N1266 N 0.1581 0.51657 0.82427 0.0
N1267 N 0.15795 0.53348 0.70653 0.0
C1268 C 0.15235 0.50276 0.71168 0.0
C1269 C 0.15236 0.49352 0.7757 0.0
C1270 C 0.63932 0.72103 0.74235 0.0
C1271 C 0.61143 0.71297 0.77564 0.0
C1272 C 0.63617 0.71191 0.67604 0.0
C1273 C 0.605 0.69437 0.64066 0.0
H1274 H 0.66375 0.73398 0.76796 0.0
H1275 H 0.65823 0.71809 0.65254 0.0
S1276 S 0.5246 0.67026 0.70374 0.0
N1277 N 0.55187 0.68846 0.76722 0.0
N1278 N 0.54594 0.6713 0.64293 0.0
C1279 C 0.57702 0.68685 0.6731 0.0
C1280 C 0.58023 0.69613 0.74045 0.0
C1281 C 0.35661 0.42878 0.72379 0.0
C1282 C 0.37441 0.45216 0.77688 0.0
C1283 C 0.36607 0.43458 0.66103 0.0
C1284 C 0.39391 0.46389 0.64863 0.0
H1285 H 0.33516 0.40568 0.73071 0.0
H1286 H 0.35152 0.41588 0.62188 0.0
S1287 S 0.44814 0.53384 0.76932 0.0
N1288 N 0.42064 0.5065 0.8116 0.0
N1289 N 0.43868 0.51693 0.69425 0.0
C1290 C 0.41207 0.48738 0.70107 0.0
C1291 C 0.4023 0.48164 0.7649 0.0
C1292 C 0.61549 0.94433 0.75086 0.0
C1293 C 0.61372 0.91471 0.76328 0.0
C1294 C 0.61557 0.95307 0.68778 0.0
C1295 C 0.61375 0.9325 0.63434 0.0
H1296 H 0.61703 0.96104 0.7903 0.0
H1297 H 0.6172 0.97625 0.68089 0.0
S1298 S 0.60672 0.85128 0.64067 0.0
N1299 N 0.60911 0.86433 0.7168 0.0
N1300 N 0.60878 0.88043 0.59841 0.0
C1301 C 0.61188 0.90274 0.64618 0.0
C1302 C 0.61197 0.89394 0.71048 0.0
C1303 C 0.16536 0.68322 0.69947 0.0
C1304 C 0.15317 0.69491 0.65119 0.0
C1305 C 0.16734 0.69331 0.76463 0.0
C1306 C 0.15695 0.71533 0.78447 0.0
H1307 H 0.17358 0.66618 0.68676 0.0
H1308 H 0.1772 0.68376 0.79981 0.0
S1309 S 0.12309 0.75322 0.67656 0.0
N1310 N 0.13074 0.72989 0.62724 0.0
N1311 N 0.13402 0.7486 0.74989 0.0
C1312 C 0.14506 0.72756 0.73652 0.0
C1313 C 0.14324 0.71739 0.66994 0.0
loop_
_geom_bond_atom_site_label_1
_geom_bond_atom_site_label_2
_geom_bond_distance
_geom_bond_site_symmetry_2
_ccdc_geom_bond_type
Pr0 C2 2.880 . S
Pr0 O20 2.572 . S
Pr0 O21 2.490 . S
Pr0 O22 2.695 . S
Pr0 O23 2.512 . S
Pr0 O25 2.437 1_455 S
Pr0 O28 2.436 1_455 S
Pr0 O30 2.438 . S
Pr1 C11 2.880 . S
Pr1 O22 2.436 1_655 S
Pr1 O24 2.438 . S
Pr1 O26 2.562 1_655 S
Pr1 O27 2.490 . S
Pr1 O28 2.695 . S
Pr1 O29 2.512 . S
Pr1 O31 2.437 1_655 S
C2 Pr0 2.880 . S
C2 C3 1.491 . S
C2 O20 1.269 . S
C2 O21 1.225 . S
C3 C2 1.491 . S
C3 C4 1.392 . S
C3 C8 1.356 1_455 S
C4 C3 1.392 . S
C4 C5 1.368 . S
C4 H32 0.929 . S
C5 C4 1.368 . S
C5 C6 1.386 . S
C5 H33 0.929 . S
C6 C5 1.386 . S
C6 C7 1.373 1_455 S
C7 C6 1.373 1_655 S
C7 C8 1.409 . S
C7 H34 0.931 . S
C8 C3 1.356 1_655 S
C8 C7 1.409 . S
C8 H35 0.930 . S
C9 O22 1.270 . S
C9 O23 1.248 . S
C10 O24 1.267 . S
C10 O25 1.278 . S
C11 Pr1 2.880 . S
C11 C12 1.491 . S
C11 O26 1.254 1_655 S
C11 O27 1.225 . S
C12 C11 1.491 . S
C12 C13 1.392 . S
C12 C17 1.356 1_655 S
C13 C12 1.392 . S
C13 C14 1.368 . S
C13 H36 0.929 . S
C14 C13 1.368 . S
C14 C15 1.348 1_655 S
C14 H37 0.929 . S
C15 C14 1.348 1_455 S
C15 C16 1.409 . S
C16 C15 1.409 . S
C16 C17 1.409 . S
C16 H38 0.931 . S
C17 C12 1.356 1_455 S
C17 C16 1.409 . S
C17 H39 0.930 . S
C18 O28 1.270 . S
C18 O29 1.248 . S
C19 O30 1.267 . S
C19 O31 1.278 . S
O20 Pr0 2.572 . S
O20 C2 1.269 . S
O21 Pr0 2.490 . S
O21 C2 1.225 . S
O22 Pr0 2.695 . S
O22 Pr1 2.436 1_455 S
O22 C9 1.270 . S
O23 Pr0 2.512 . S
O23 C9 1.248 . S
O24 Pr1 2.438 . S
O24 C10 1.267 . S
O25 Pr0 2.437 1_655 S
O25 C10 1.278 . S
O26 Pr1 2.562 1_455 S
O26 C11 1.254 1_455 S
O27 Pr1 2.490 . S
O27 C11 1.225 . S
O28 Pr0 2.436 1_655 S
O28 Pr1 2.695 . S
O28 C18 1.270 . S
O29 Pr1 2.512 . S
O29 C18 1.248 . S
O30 Pr0 2.438 . S
O30 C19 1.267 . S
O31 Pr1 2.437 1_455 S
O31 C19 1.278 . S
H32 C4 0.929 . S
H33 C5 0.929 . S
H34 C7 0.931 . S
H35 C8 0.930 . S
H36 C13 0.929 . S
H37 C14 0.929 . S
H38 C16 0.931 . S
H39 C17 0.930 . S
Pr40 C42 2.880 . S
Pr40 O60 2.562 . S
Pr40 O61 2.490 . S
Pr40 O62 2.695 . S
Pr40 O63 2.512 . S
Pr40 O65 2.437 . S
Pr40 O68 2.436 . S
Pr40 O70 2.438 . S
Pr41 C51 2.880 . S
Pr41 O62 2.436 . S
Pr41 O64 2.438 . S
Pr41 O66 2.562 . S
Pr41 O67 2.490 . S
Pr41 O68 2.695 . S
Pr41 O69 2.512 . S
Pr41 O71 2.437 . S
C42 Pr40 2.880 . S
C42 C43 1.491 . S
C42 O60 1.254 . S
C42 O61 1.225 . S
C43 C42 1.491 . S
C43 C44 1.392 . S
C43 C48 1.356 . S
C44 C43 1.392 . S
C44 C45 1.368 . S
C44 H72 0.929 . S
C45 C44 1.368 . S
C45 C46 1.386 . S
C45 H73 0.929 . S
C46 C45 1.386 . S
C46 C47 1.373 . S
C47 C46 1.373 . S
C47 C48 1.409 . S
C47 H74 0.931 . S
C48 C43 1.356 . S
C48 C47 1.409 . S
C48 H75 0.930 . S
C49 O62 1.270 . S
C49 O63 1.248 . S
C50 O64 1.267 . S
C50 O65 1.278 . S
C51 Pr41 2.880 . S
C51 C52 1.491 . S
C51 O66 1.254 . S
C51 O67 1.225 . S
C52 C51 1.491 . S
C52 C53 1.392 . S
C52 C57 1.356 . S
C53 C52 1.392 . S
C53 C54 1.368 . S
C53 H76 0.929 . S
C54 C53 1.368 . S
C54 C55 1.386 . S
C54 H77 0.929 . S
C55 C54 1.386 . S
C55 C56 1.373 . S
C56 C55 1.373 . S
C56 C57 1.409 . S
C56 H78 0.931 . S
C57 C52 1.356 . S
C57 C56 1.409 . S
C57 H79 0.930 . S
C58 O68 1.270 . S
C58 O69 1.248 . S
C59 O70 1.267 . S
C59 O71 1.278 . S
O60 Pr40 2.562 . S
O60 C42 1.254 . S
O61 Pr40 2.490 . S
O61 C42 1.225 . S
O62 Pr40 2.695 . S
O62 Pr41 2.436 . S
O62 C49 1.270 . S
O63 Pr40 2.512 . S
O63 C49 1.248 . S
O64 Pr41 2.438 . S
O64 C50 1.267 . S
O65 Pr40 2.437 . S
O65 C50 1.278 . S
O66 Pr41 2.562 . S
O66 C51 1.254 . S
O67 Pr41 2.490 . S
O67 C51 1.225 . S
O68 Pr40 2.436 . S
O68 Pr41 2.695 . S
O68 C58 1.270 . S
O69 Pr41 2.512 . S
O69 C58 1.248 . S
O70 Pr40 2.438 . S
O70 C59 1.267 . S
O71 Pr41 2.437 . S
O71 C59 1.278 . S
H72 C44 0.929 . S
H73 C45 0.929 . S
H74 C47 0.931 . S
H75 C48 0.930 . S
H76 C53 0.929 . S
H77 C54 0.929 . S
H78 C56 0.931 . S
H79 C57 0.930 . S
Pr80 C82 2.880 . S
Pr80 O100 2.562 1_565 S
Pr80 O101 2.490 . S
Pr80 O102 2.695 . S
Pr80 O103 2.512 . S
Pr80 O105 2.437 1_565 S
Pr80 O108 2.436 1_565 S
Pr80 O110 2.438 . S
Pr81 C91 2.880 . S
Pr81 O102 2.436 1_545 S
Pr81 O104 2.438 . S
Pr81 O106 2.562 1_545 S
Pr81 O107 2.490 . S
Pr81 O108 2.695 . S
Pr81 O109 2.512 . S
Pr81 O111 2.437 1_545 S
C82 Pr80 2.880 . S
C82 C83 1.486 1_565 S
C82 O100 1.254 1_565 S
C82 O101 1.225 . S
C83 C82 1.486 1_545 S
C83 C84 1.382 1_545 S
C83 C88 1.371 . S
C84 C83 1.382 1_565 S
C84 C85 1.368 . S
C84 H112 0.929 . S
C85 C84 1.368 . S
C85 C86 1.386 1_565 S
C85 H113 0.929 . S
C86 C85 1.386 1_545 S
C86 C87 1.373 . S
C87 C86 1.373 . S
C87 C88 1.409 . S
C87 H114 0.931 . S
C88 C83 1.371 . S
C88 C87 1.409 . S
C88 H115 0.930 . S
C89 O102 1.270 . S
C89 O103 1.248 . S
C90 O104 1.267 . S
C90 O105 1.278 . S
C91 Pr81 2.880 . S
C91 C92 1.500 . S
C91 O106 1.254 1_545 S
C91 O107 1.225 . S
C92 C91 1.500 . S
C92 C93 1.409 . S
C92 C97 1.332 1_545 S
C93 C92 1.409 . S
C93 C94 1.368 . S
C93 H116 0.929 . S
C94 C93 1.368 . S
C94 C95 1.386 1_545 S
C94 H117 0.929 . S
C95 C94 1.386 1_565 S
C95 C96 1.373 . S
C96 C95 1.373 . S
C96 C97 1.409 . S
C96 H118 0.931 . S
C97 C92 1.332 1_565 S
C97 C96 1.409 . S
C97 H119 0.930 . S
C98 O108 1.270 . S
C98 O109 1.248 . S
C99 O110 1.267 . S
C99 O111 1.278 . S
O100 Pr80 2.562 1_545 S
O100 C82 1.254 1_545 S
O101 Pr80 2.490 . S
O101 C82 1.225 . S
O102 Pr80 2.695 . S
O102 Pr81 2.436 1_565 S
O102 C89 1.270 . S
O103 Pr80 2.512 . S
O103 C89 1.248 . S
O104 Pr81 2.438 . S
O104 C90 1.267 . S
O105 Pr80 2.437 1_545 S
O105 C90 1.278 . S
O106 Pr81 2.562 1_565 S
O106 C91 1.254 1_565 S
O107 Pr81 2.490 . S
O107 C91 1.225 . S
O108 Pr80 2.436 1_545 S
O108 Pr81 2.695 . S
O108 C98 1.270 . S
O109 Pr81 2.512 . S
O109 C98 1.248 . S
O110 Pr80 2.438 . S
O110 C99 1.267 . S
O111 Pr81 2.437 1_565 S
O111 C99 1.278 . S
H112 C84 0.929 . S
H113 C85 0.929 . S
H114 C87 0.931 . S
H115 C88 0.930 . S
H116 C93 0.929 . S
H117 C94 0.929 . S
H118 C96 0.931 . S
H119 C97 0.930 . S
Pr120 C122 2.880 . S
Pr120 O140 2.543 1_455 S
Pr120 O141 2.490 . S
Pr120 O142 2.695 . S
Pr120 O143 2.512 . S
Pr120 O145 2.437 1_455 S
Pr120 O148 2.436 1_455 S
Pr120 O150 2.438 . S
Pr121 C131 2.880 . S
Pr121 O142 2.436 1_655 S
Pr121 O144 2.438 . S
Pr121 O146 2.562 1_655 S
Pr121 O147 2.490 . S
Pr121 O148 2.695 . S
Pr121 O149 2.512 . S
Pr121 O151 2.437 1_655 S
C122 Pr120 2.880 . S
C122 C123 1.491 . S
C122 O140 1.221 1_455 S
C122 O141 1.225 . S
C123 C122 1.491 . S
C123 C124 1.392 . S
C123 C128 1.356 1_455 S
C124 C123 1.392 . S
C124 C125 1.368 . S
C124 H152 0.929 . S
C125 C124 1.368 . S
C125 C126 1.386 . S
C125 H153 0.929 . S
C126 C125 1.386 . S
C126 C127 1.373 1_455 S
C127 C126 1.373 1_655 S
C127 C128 1.409 . S
C127 H154 0.931 . S
C128 C123 1.356 1_655 S
C128 C127 1.409 . S
C128 H155 0.930 . S
C129 O142 1.270 . S
C129 O143 1.248 . S
C130 O144 1.267 . S
C130 O145 1.278 . S
C131 Pr121 2.880 . S
C131 C132 1.491 . S
C131 O146 1.254 1_655 S
C131 O147 1.225 . S
C132 C131 1.491 . S
C132 C133 1.392 . S
C132 C137 1.356 1_655 S
C133 C132 1.392 . S
C133 C134 1.368 . S
C133 H156 0.929 . S
C134 C133 1.368 . S
C134 C135 1.386 . S
C134 H157 0.929 . S
C135 C134 1.386 . S
C135 C136 1.373 1_655 S
C136 C135 1.373 1_455 S
C136 C137 1.409 . S
C136 H158 0.931 . S
C137 C132 1.356 1_455 S
C137 C136 1.409 . S
C137 H159 0.930 . S
C138 O148 1.270 . S
C138 O149 1.248 . S
C139 O150 1.267 . S
C139 O151 1.278 . S
O140 Pr120 2.543 1_655 S
O140 C122 1.221 1_655 S
O141 Pr120 2.490 . S
O141 C122 1.225 . S
O142 Pr120 2.695 . S
O142 Pr121 2.436 1_455 S
O142 C129 1.270 . S
O143 Pr120 2.512 . S
O143 C129 1.248 . S
O144 Pr121 2.438 . S
O144 C130 1.267 . S
O145 Pr120 2.437 1_655 S
O145 C130 1.278 . S
O146 Pr121 2.562 1_455 S
O146 C131 1.254 1_455 S
O147 Pr121 2.490 . S
O147 C131 1.225 . S
O148 Pr120 2.436 1_655 S
O148 Pr121 2.695 . S
O148 C138 1.270 . S
O149 Pr121 2.512 . S
O149 C138 1.248 . S
O150 Pr120 2.438 . S
O150 C139 1.267 . S
O151 Pr121 2.437 1_455 S
O151 C139 1.278 . S
H152 C124 0.929 . S
H153 C125 0.929 . S
H154 C127 0.931 . S
H155 C128 0.930 . S
H156 C133 0.929 . S
H157 C134 0.929 . S
H158 C136 0.931 . S
H159 C137 0.930 . S
Pr160 C162 2.880 . S
Pr160 O180 2.562 . S
Pr160 O181 2.490 . S
Pr160 O182 2.695 . S
Pr160 O183 2.512 . S
Pr160 O185 2.437 . S
Pr160 O188 2.436 . S
Pr160 O190 2.438 . S
Pr161 C171 2.880 . S
Pr161 O182 2.436 . S
Pr161 O184 2.438 . S
Pr161 O186 2.562 . S
Pr161 O187 2.490 . S
Pr161 O188 2.695 . S
Pr161 O189 2.512 . S
Pr161 O191 2.437 . S
C162 Pr160 2.880 . S
C162 C163 1.491 . S
C162 O180 1.254 . S
C162 O181 1.225 . S
C163 C162 1.491 . S
C163 C164 1.392 . S
C163 C168 1.356 . S
C164 C163 1.392 . S
C164 C165 1.368 . S
C164 H192 0.929 . S
C165 C164 1.368 . S
C165 C166 1.386 . S
C165 H193 0.929 . S
C166 C165 1.386 . S
C166 C167 1.373 . S
C167 C166 1.373 . S
C167 C168 1.409 . S
C167 H194 0.931 . S
C168 C163 1.356 . S
C168 C167 1.409 . S
C168 H195 0.930 . S
C169 O182 1.270 . S
C169 O183 1.248 . S
C170 O184 1.267 . S
C170 O185 1.278 . S
C171 Pr161 2.880 . S
C171 C172 1.491 . S
C171 O186 1.254 . S
C171 O187 1.225 . S
C172 C171 1.491 . S
C172 C173 1.392 . S
C172 C177 1.356 . S
C173 C172 1.392 . S
C173 C174 1.368 . S
C173 H196 0.929 . S
C174 C173 1.368 . S
C174 C175 1.386 . S
C174 H197 0.929 . S
C175 C174 1.386 . S
C175 C176 1.373 . S
C176 C175 1.373 . S
C176 C177 1.409 . S
C176 H198 0.931 . S
C177 C172 1.356 . S
C177 C176 1.409 . S
C177 H199 0.930 . S
C178 O188 1.270 . S
C178 O189 1.248 . S
C179 O190 1.267 . S
C179 O191 1.278 . S
O180 Pr160 2.562 . S
O180 C162 1.254 . S
O181 Pr160 2.490 . S
O181 C162 1.225 . S
O182 Pr160 2.695 . S
O182 Pr161 2.436 . S
O182 C169 1.270 . S
O183 Pr160 2.512 . S
O183 C169 1.248 . S
O184 Pr161 2.438 . S
O184 C170 1.267 . S
O185 Pr160 2.437 . S
O185 C170 1.278 . S
O186 Pr161 2.562 . S
O186 C171 1.254 . S
O187 Pr161 2.490 . S
O187 C171 1.225 . S
O188 Pr160 2.436 . S
O188 Pr161 2.695 . S
O188 C178 1.270 . S
O189 Pr161 2.512 . S
O189 C178 1.248 . S
O190 Pr160 2.438 . S
O190 C179 1.267 . S
O191 Pr161 2.437 . S
O191 C179 1.278 . S
H192 C164 0.929 . S
H193 C165 0.929 . S
H194 C167 0.931 . S
H195 C168 0.930 . S
H196 C173 0.929 . S
H197 C174 0.929 . S
H198 C176 0.931 . S
H199 C177 0.930 . S
Pr200 C202 2.880 . S
Pr200 O220 2.562 1_565 S
Pr200 O221 2.490 . S
Pr200 O222 2.695 . S
Pr200 O223 2.512 . S
Pr200 O225 2.437 1_565 S
Pr200 O228 2.436 1_565 S
Pr200 O230 2.438 . S
Pr201 C211 2.880 . S
Pr201 O222 2.436 1_545 S
Pr201 O224 2.438 . S
Pr201 O226 2.562 1_545 S
Pr201 O227 2.490 . S
Pr201 O228 2.695 . S
Pr201 O229 2.512 . S
Pr201 O231 2.437 1_545 S
C202 Pr200 2.880 . S
C202 C203 1.491 1_565 S
C202 O220 1.254 1_565 S
C202 O221 1.225 . S
C203 C202 1.491 1_545 S
C203 C204 1.392 1_545 S
C203 C208 1.356 . S
C204 C203 1.392 1_565 S
C204 C205 1.368 . S
C204 H232 0.929 . S
C205 C204 1.368 . S
C205 C206 1.386 1_565 S
C205 H233 0.929 . S
C206 C205 1.386 1_545 S
C206 C207 1.373 . S
C207 C206 1.373 . S
C207 C208 1.409 . S
C207 H234 0.931 . S
C208 C203 1.356 . S
C208 C207 1.409 . S
C208 H235 0.930 . S
C209 O222 1.270 . S
C209 O223 1.248 . S
C210 O224 1.267 . S
C210 O225 1.278 . S
C211 Pr201 2.880 . S
C211 C212 1.491 . S
C211 O226 1.254 1_545 S
C211 O227 1.225 . S
C212 C211 1.491 . S
C212 C213 1.392 . S
C212 C217 1.356 1_545 S
C213 C212 1.392 . S
C213 C214 1.368 . S
C213 H236 0.929 . S
C214 C213 1.368 . S
C214 C215 1.386 1_545 S
C214 H237 0.929 . S
C215 C214 1.386 1_565 S
C215 C216 1.373 . S
C216 C215 1.373 . S
C216 C217 1.409 . S
C216 H238 0.931 . S
C217 C212 1.356 1_565 S
C217 C216 1.409 . S
C217 H239 0.930 . S
C218 O228 1.270 . S
C218 O229 1.248 . S
C219 O230 1.267 . S
C219 O231 1.278 . S
O220 Pr200 2.562 1_545 S
O220 C202 1.254 1_545 S
O221 Pr200 2.490 . S
O221 C202 1.225 . S
O222 Pr200 2.695 . S
O222 Pr201 2.436 1_565 S
O222 C209 1.270 . S
O223 Pr200 2.512 . S
O223 C209 1.248 . S
O224 Pr201 2.438 . S
O224 C210 1.267 . S
O225 Pr200 2.437 1_545 S
O225 C210 1.278 . S
O226 Pr201 2.562 1_565 S
O226 C211 1.254 1_565 S
O227 Pr201 2.490 . S
O227 C211 1.225 . S
O228 Pr200 2.436 1_545 S
O228 Pr201 2.695 . S
O228 C218 1.270 . S
O229 Pr201 2.512 . S
O229 C218 1.248 . S
O230 Pr200 2.438 . S
O230 C219 1.267 . S
O231 Pr201 2.437 1_565 S
O231 C219 1.278 . S
H232 C204 0.929 . S
H233 C205 0.929 . S
H234 C207 0.931 . S
H235 C208 0.930 . S
H236 C213 0.929 . S
H237 C214 0.929 . S
H238 C216 0.931 . S
H239 C217 0.930 . S
Pr240 C242 2.880 . S
Pr240 O260 2.562 . S
Pr240 O261 2.490 . S
Pr240 O262 2.695 . S
Pr240 O263 2.512 . S
Pr240 O265 2.437 . S
Pr240 O268 2.436 . S
Pr240 O270 2.438 . S
Pr241 C251 2.880 . S
Pr241 O262 2.436 . S
Pr241 O264 2.438 . S
Pr241 O266 2.562 . S
Pr241 O267 2.490 . S
Pr241 O268 2.695 . S
Pr241 O269 2.512 . S
Pr241 O271 2.437 . S
C242 Pr240 2.880 . S
C242 C243 1.491 . S
C242 O260 1.254 . S
C242 O261 1.225 . S
C243 C242 1.491 . S
C243 C244 1.392 . S
C243 C248 1.356 . S
C244 C243 1.392 . S
C244 C245 1.368 . S
C244 H272 0.929 . S
C245 C244 1.368 . S
C245 C246 1.386 . S
C245 H273 0.929 . S
C246 C245 1.386 . S
C246 C247 1.373 . S
C247 C246 1.373 . S
C247 C248 1.409 . S
C247 H274 0.931 . S
C248 C243 1.356 . S
C248 C247 1.409 . S
C248 H275 0.930 . S
C249 O262 1.270 . S
C249 O263 1.248 . S
C250 O264 1.267 . S
C250 O265 1.278 . S
C251 Pr241 2.880 . S
C251 C252 1.491 1_556 S
C251 O266 1.254 . S
C251 O267 1.225 . S
C252 C251 1.491 1_554 S
C252 C253 1.392 . S
C252 C257 1.356 . S
C253 C252 1.392 . S
C253 C254 1.368 . S
C253 H276 0.929 . S
C254 C253 1.368 . S
C254 C255 1.386 . S
C254 H277 0.929 . S
C255 C254 1.386 . S
C255 C256 1.373 . S
C256 C255 1.373 . S
C256 C257 1.409 . S
C256 H278 0.931 . S
C257 C252 1.356 . S
C257 C256 1.409 . S
C257 H279 0.930 . S
C258 O268 1.270 . S
C258 O269 1.248 . S
C259 O270 1.267 . S
C259 O271 1.278 . S
O260 Pr240 2.562 . S
O260 C242 1.254 . S
O261 Pr240 2.490 . S
O261 C242 1.225 . S
O262 Pr240 2.695 . S
O262 Pr241 2.436 . S
O262 C249 1.270 . S
O263 Pr240 2.512 . S
O263 C249 1.248 . S
O264 Pr241 2.438 . S
O264 C250 1.267 . S
O265 Pr240 2.437 . S
O265 C250 1.278 . S
O266 Pr241 2.562 . S
O266 C251 1.254 . S
O267 Pr241 2.490 . S
O267 C251 1.225 . S
O268 Pr240 2.436 . S
O268 Pr241 2.695 . S
O268 C258 1.270 . S
O269 Pr241 2.512 . S
O269 C258 1.248 . S
O270 Pr240 2.438 . S
O270 C259 1.267 . S
O271 Pr241 2.437 . S
O271 C259 1.278 . S
H272 C244 0.929 . S
H273 C245 0.929 . S
H274 C247 0.931 . S
H275 C248 0.930 . S
H276 C253 0.929 . S
H277 C254 0.929 . S
H278 C256 0.931 . S
H279 C257 0.930 . S
Pr280 C282 2.880 . S
Pr280 O300 2.562 . S
Pr280 O301 2.490 . S
Pr280 O302 2.695 . S
Pr280 O303 2.512 . S
Pr280 O305 2.437 . S
Pr280 O308 2.436 . S
Pr280 O310 2.438 . S
Pr281 C291 2.880 . S
Pr281 O302 2.436 . S
Pr281 O304 2.438 . S
Pr281 O306 2.562 . S
Pr281 O307 2.490 . S
Pr281 O308 2.695 . S
Pr281 O309 2.512 . S
Pr281 O311 2.437 . S
C282 Pr280 2.880 . S
C282 C283 1.491 . S
C282 O300 1.254 . S
C282 O301 1.225 . S
C283 C282 1.491 . S
C283 C284 1.392 . S
C283 C288 1.356 . S
C284 C283 1.392 . S
C284 C285 1.368 . S
C284 H312 0.929 . S
C285 C284 1.368 . S
C285 C286 1.386 . S
C285 H313 0.929 . S
C286 C285 1.386 . S
C286 C287 1.373 . S
C287 C286 1.373 . S
C287 C288 1.409 . S
C287 H314 0.931 . S
C288 C283 1.356 . S
C288 C287 1.409 . S
C288 H315 0.930 . S
C289 O302 1.270 . S
C289 O303 1.248 . S
C290 O304 1.267 . S
C290 O305 1.278 . S
C291 Pr281 2.880 . S
C291 C292 1.491 1_556 S
C291 O306 1.254 . S
C291 O307 1.225 . S
C292 C291 1.491 1_554 S
C292 C293 1.392 . S
C292 C297 1.356 . S
C293 C292 1.392 . S
C293 C294 1.368 . S
C293 H316 0.929 . S
C294 C293 1.368 . S
C294 C295 1.386 . S
C294 H317 0.929 . S
C295 C294 1.386 . S
C295 C296 1.373 . S
C296 C295 1.373 . S
C296 C297 1.409 . S
C296 H318 0.931 . S
C297 C292 1.356 . S
C297 C296 1.409 . S
C297 H319 0.930 . S
C298 O308 1.270 . S
C298 O309 1.248 . S
C299 O310 1.267 . S
C299 O311 1.278 . S
O300 Pr280 2.562 . S
O300 C282 1.254 . S
O301 Pr280 2.490 . S
O301 C282 1.225 . S
O302 Pr280 2.695 . S
O302 Pr281 2.436 . S
O302 C289 1.270 . S
O303 Pr280 2.512 . S
O303 C289 1.248 . S
O304 Pr281 2.438 . S
O304 C290 1.267 . S
O305 Pr280 2.437 . S
O305 C290 1.278 . S
O306 Pr281 2.562 . S
O306 C291 1.254 . S
O307 Pr281 2.490 . S
O307 C291 1.225 . S
O308 Pr280 2.436 . S
O308 Pr281 2.695 . S
O308 C298 1.270 . S
O309 Pr281 2.512 . S
O309 C298 1.248 . S
O310 Pr280 2.438 . S
O310 C299 1.267 . S
O311 Pr281 2.437 . S
O311 C299 1.278 . S
H312 C284 0.929 . S
H313 C285 0.929 . S
H314 C287 0.931 . S
H315 C288 0.930 . S
H316 C293 0.929 . S
H317 C294 0.929 . S
H318 C296 0.931 . S
H319 C297 0.930 . S
Pr320 C322 2.880 . S
Pr320 O340 2.562 . S
Pr320 O341 2.490 . S
Pr320 O342 2.695 . S
Pr320 O343 2.512 . S
Pr320 O345 2.437 . S
Pr320 O348 2.436 . S
Pr320 O350 2.438 . S
Pr321 C331 2.880 . S
Pr321 O342 2.436 . S
Pr321 O344 2.438 . S
Pr321 O346 2.562 . S
Pr321 O347 2.490 . S
Pr321 O348 2.695 . S
Pr321 O349 2.512 . S
Pr321 O351 2.437 . S
C322 Pr320 2.880 . S
C322 C323 1.491 . S
C322 O340 1.254 . S
C322 O341 1.225 . S
C323 C322 1.491 . S
C323 C324 1.392 . S
C323 C328 1.356 . S
C324 C323 1.392 . S
C324 C325 1.368 . S
C324 H352 0.929 . S
C325 C324 1.368 . S
C325 C326 1.386 . S
C325 H353 0.929 . S
C326 C325 1.386 . S
C326 C327 1.373 . S
C327 C326 1.373 . S
C327 C328 1.409 . S
C327 H354 0.931 . S
C328 C323 1.356 . S
C328 C327 1.409 . S
C328 H355 0.930 . S
C329 O342 1.270 . S
C329 O343 1.248 . S
C330 O344 1.267 . S
C330 O345 1.278 . S
C331 Pr321 2.880 . S
C331 C332 1.491 1_556 S
C331 O346 1.254 . S
C331 O347 1.225 . S
C332 C331 1.491 1_554 S
C332 C333 1.392 . S
C332 C337 1.356 . S
C333 C332 1.392 . S
C333 C334 1.368 . S
C333 H356 0.929 . S
C334 C333 1.368 . S
C334 C335 1.386 . S
C334 H357 0.929 . S
C335 C334 1.386 . S
C335 C336 1.373 . S
C336 C335 1.373 . S
C336 C337 1.409 . S
C336 H358 0.931 . S
C337 C332 1.356 . S
C337 C336 1.409 . S
C337 H359 0.930 . S
C338 O348 1.270 . S
C338 O349 1.248 . S
C339 O350 1.267 . S
C339 O351 1.278 . S
O340 Pr320 2.562 . S
O340 C322 1.254 . S
O341 Pr320 2.490 . S
O341 C322 1.225 . S
O342 Pr320 2.695 . S
O342 Pr321 2.436 . S
O342 C329 1.270 . S
O343 Pr320 2.512 . S
O343 C329 1.248 . S
O344 Pr321 2.438 . S
O344 C330 1.267 . S
O345 Pr320 2.437 . S
O345 C330 1.278 . S
O346 Pr321 2.562 . S
O346 C331 1.254 . S
O347 Pr321 2.490 . S
O347 C331 1.225 . S
O348 Pr320 2.436 . S
O348 Pr321 2.695 . S
O348 C338 1.270 . S
O349 Pr321 2.512 . S
O349 C338 1.248 . S
O350 Pr320 2.438 . S
O350 C339 1.267 . S
O351 Pr321 2.437 . S
O351 C339 1.278 . S
H352 C324 0.929 . S
H353 C325 0.929 . S
H354 C327 0.931 . S
H355 C328 0.930 . S
H356 C333 0.929 . S
H357 C334 0.929 . S
H358 C336 0.931 . S
H359 C337 0.930 . S
Pr360 C362 2.880 1_556 S
Pr360 O380 2.562 . S
Pr360 O381 2.490 . S
Pr360 O382 2.695 . S
Pr360 O383 2.512 . S
Pr360 O385 2.437 . S
Pr360 O388 2.436 . S
Pr360 O390 2.438 . S
Pr361 C371 2.880 . S
Pr361 O382 2.436 . S
Pr361 O384 2.438 . S
Pr361 O386 2.562 . S
Pr361 O387 2.490 . S
Pr361 O388 2.695 . S
Pr361 O389 2.512 . S
Pr361 O391 2.437 . S
C362 Pr360 2.880 1_554 S
C362 C363 1.491 . S
C362 O380 1.254 1_554 S
C362 O381 1.225 1_554 S
C363 C362 1.491 . S
C363 C364 1.392 . S
C363 C368 1.356 . S
C364 C363 1.392 . S
C364 C365 1.368 . S
C364 H392 0.929 . S
C365 C364 1.368 . S
C365 C366 1.386 . S
C365 H393 0.929 . S
C366 C365 1.386 . S
C366 C367 1.373 . S
C367 C366 1.373 . S
C367 C368 1.409 . S
C367 H394 0.931 . S
C368 C363 1.356 . S
C368 C367 1.409 . S
C368 H395 0.930 . S
C369 O382 1.270 . S
C369 O383 1.248 . S
C370 O384 1.267 . S
C370 O385 1.278 . S
C371 Pr361 2.880 . S
C371 C372 1.491 . S
C371 O386 1.254 . S
C371 O387 1.225 . S
C372 C371 1.491 . S
C372 C373 1.392 . S
C372 C377 1.356 . S
C373 C372 1.392 . S
C373 C374 1.368 . S
C373 H396 0.929 . S
C374 C373 1.368 . S
C374 C375 1.386 . S
C374 H397 0.929 . S
C375 C374 1.386 . S
C375 C376 1.373 . S
C376 C375 1.373 . S
C376 C377 1.409 . S
C376 H398 0.931 . S
C377 C372 1.356 . S
C377 C376 1.409 . S
C377 H399 0.930 . S
C378 O388 1.270 . S
C378 O389 1.248 . S
C379 O390 1.267 . S
C379 O391 1.278 . S
O380 Pr360 2.562 . S
O380 C362 1.254 1_556 S
O381 Pr360 2.490 . S
O381 C362 1.225 1_556 S
O382 Pr360 2.695 . S
O382 Pr361 2.436 . S
O382 C369 1.270 . S
O383 Pr360 2.512 . S
O383 C369 1.248 . S
O384 Pr361 2.438 . S
O384 C370 1.267 . S
O385 Pr360 2.437 . S
O385 C370 1.278 . S
O386 Pr361 2.562 . S
O386 C371 1.254 . S
O387 Pr361 2.490 . S
O387 C371 1.225 . S
O388 Pr360 2.436 . S
O388 Pr361 2.695 . S
O388 C378 1.270 . S
O389 Pr361 2.512 . S
O389 C378 1.248 . S
O390 Pr360 2.438 . S
O390 C379 1.267 . S
O391 Pr361 2.437 . S
O391 C379 1.278 . S
H392 C364 0.929 . S
H393 C365 0.929 . S
H394 C367 0.931 . S
H395 C368 0.930 . S
H396 C373 0.929 . S
H397 C374 0.929 . S
H398 C376 0.931 . S
H399 C377 0.930 . S
Pr400 C402 2.880 1_556 S
Pr400 O420 2.562 . S
Pr400 O421 2.490 1_556 S
Pr400 O422 2.695 . S
Pr400 O423 2.512 . S
Pr400 O425 2.437 . S
Pr400 O428 2.436 . S
Pr400 O430 2.438 . S
Pr401 C411 2.880 . S
Pr401 O422 2.436 . S
Pr401 O424 2.438 . S
Pr401 O426 2.562 . S
Pr401 O427 2.490 . S
Pr401 O428 2.695 . S
Pr401 O429 2.512 . S
Pr401 O431 2.437 . S
C402 Pr400 2.880 1_554 S
C402 C403 1.491 . S
C402 O420 1.254 1_554 S
C402 O421 1.225 . S
C403 C402 1.491 . S
C403 C404 1.392 . S
C403 C408 1.356 . S
C404 C403 1.392 . S
C404 C405 1.368 . S
C404 H432 0.929 . S
C405 C404 1.368 . S
C405 C406 1.386 . S
C405 H433 0.929 . S
C406 C405 1.386 . S
C406 C407 1.373 . S
C407 C406 1.373 . S
C407 C408 1.409 . S
C407 H434 0.931 . S
C408 C403 1.356 . S
C408 C407 1.409 . S
C408 H435 0.930 . S
C409 O422 1.270 . S
C409 O423 1.248 . S
C410 O424 1.267 . S
C410 O425 1.278 . S
C411 Pr401 2.880 . S
C411 C412 1.491 . S
C411 O426 1.254 . S
C411 O427 1.225 . S
C412 C411 1.491 . S
C412 C413 1.392 . S
C412 C417 1.356 . S
C413 C412 1.392 . S
C413 C414 1.368 . S
C413 H436 0.929 . S
C414 C413 1.368 . S
C414 C415 1.386 . S
C414 H437 0.929 . S
C415 C414 1.386 . S
C415 C416 1.373 . S
C416 C415 1.373 . S
C416 C417 1.409 . S
C416 H438 0.931 . S
C417 C412 1.356 . S
C417 C416 1.409 . S
C417 H439 0.930 . S
C418 O428 1.270 . S
C418 O429 1.248 . S
C419 O430 1.267 . S
C419 O431 1.278 . S
O420 Pr400 2.562 . S
O420 C402 1.254 1_556 S
O421 Pr400 2.490 1_554 S
O421 C402 1.225 . S
O422 Pr400 2.695 . S
O422 Pr401 2.436 . S
O422 C409 1.270 . S
O423 Pr400 2.512 . S
O423 C409 1.248 . S
O424 Pr401 2.438 . S
O424 C410 1.267 . S
O425 Pr400 2.437 . S
O425 C410 1.278 . S
O426 Pr401 2.562 . S
O426 C411 1.254 . S
O427 Pr401 2.490 . S
O427 C411 1.225 . S
O428 Pr400 2.436 . S
O428 Pr401 2.695 . S
O428 C418 1.270 . S
O429 Pr401 2.512 . S
O429 C418 1.248 . S
O430 Pr400 2.438 . S
O430 C419 1.267 . S
O431 Pr401 2.437 . S
O431 C419 1.278 . S
H432 C404 0.929 . S
H433 C405 0.929 . S
H434 C407 0.931 . S
H435 C408 0.930 . S
H436 C413 0.929 . S
H437 C414 0.929 . S
H438 C416 0.931 . S
H439 C417 0.930 . S
Pr440 C442 2.880 1_556 S
Pr440 O460 2.562 . S
Pr440 O461 2.490 . S
Pr440 O462 2.695 . S
Pr440 O463 2.512 . S
Pr440 O465 2.437 . S
Pr440 O468 2.436 . S
Pr440 O470 2.438 . S
Pr441 C451 2.880 . S
Pr441 O462 2.436 . S
Pr441 O464 2.438 . S
Pr441 O466 2.562 . S
Pr441 O467 2.490 . S
Pr441 O468 2.695 . S
Pr441 O469 2.512 . S
Pr441 O471 2.437 . S
C442 Pr440 2.880 1_554 S
C442 C443 1.491 . S
C442 O460 1.254 1_554 S
C442 O461 1.225 1_554 S
C443 C442 1.491 . S
C443 C444 1.392 . S
C443 C448 1.356 . S
C444 C443 1.392 . S
C444 C445 1.368 . S
C444 H472 0.929 . S
C445 C444 1.368 . S
C445 C446 1.386 . S
C445 H473 0.929 . S
C446 C445 1.386 . S
C446 C447 1.373 . S
C447 C446 1.373 . S
C447 C448 1.409 . S
C447 H474 0.931 . S
C448 C443 1.356 . S
C448 C447 1.409 . S
C448 H475 0.930 . S
C449 O462 1.270 . S
C449 O463 1.248 . S
C450 O464 1.267 . S
C450 O465 1.278 . S
C451 Pr441 2.880 . S
C451 C452 1.491 . S
C451 O466 1.254 . S
C451 O467 1.225 . S
C452 C451 1.491 . S
C452 C453 1.392 . S
C452 C457 1.356 . S
C453 C452 1.392 . S
C453 C454 1.368 . S
C453 H476 0.929 . S
C454 C453 1.368 . S
C454 C455 1.386 . S
C454 H477 0.929 . S
C455 C454 1.386 . S
C455 C456 1.373 . S
C456 C455 1.373 . S
C456 C457 1.409 . S
C456 H478 0.931 . S
C457 C452 1.356 . S
C457 C456 1.409 . S
C457 H479 0.930 . S
C458 O468 1.270 . S
C458 O469 1.248 . S
C459 O470 1.267 . S
C459 O471 1.278 . S
O460 Pr440 2.562 . S
O460 C442 1.254 1_556 S
O461 Pr440 2.490 . S
O461 C442 1.225 1_556 S
O462 Pr440 2.695 . S
O462 Pr441 2.436 . S
O462 C449 1.270 . S
O463 Pr440 2.512 . S
O463 C449 1.248 . S
O464 Pr441 2.438 . S
O464 C450 1.267 . S
O465 Pr440 2.437 . S
O465 C450 1.278 . S
O466 Pr441 2.562 . S
O466 C451 1.254 . S
O467 Pr441 2.490 . S
O467 C451 1.225 . S
O468 Pr440 2.436 . S
O468 Pr441 2.695 . S
O468 C458 1.270 . S
O469 Pr441 2.512 . S
O469 C458 1.248 . S
O470 Pr440 2.438 . S
O470 C459 1.267 . S
O471 Pr441 2.437 . S
O471 C459 1.278 . S
H472 C444 0.929 . S
H473 C445 0.929 . S
H474 C447 0.931 . S
H475 C448 0.930 . S
H476 C453 0.929 . S
H477 C454 0.929 . S
H478 C456 0.931 . S
H479 C457 0.930 . S
Pr480 C482 2.880 . S
Pr480 O500 2.562 . S
Pr480 O501 2.490 . S
Pr480 O502 2.695 . S
Pr480 O503 2.512 . S
Pr480 O505 2.437 . S
Pr480 O508 2.436 . S
Pr480 O510 2.438 . S
Pr481 C491 2.880 1_554 S
Pr481 O502 2.436 . S
Pr481 O504 2.438 . S
Pr481 O506 2.562 1_554 S
Pr481 O507 2.490 1_554 S
Pr481 O508 2.695 . S
Pr481 O509 2.512 . S
Pr481 O511 2.437 . S
C482 Pr480 2.880 . S
C482 C483 1.491 . S
C482 O500 1.254 . S
C482 O501 1.225 . S
C483 C482 1.491 . S
C483 C484 1.392 . S
C483 C488 1.356 . S
C484 C483 1.392 . S
C484 C485 1.368 . S
C484 H512 0.929 . S
C485 C484 1.368 . S
C485 C486 1.386 . S
C485 H513 0.929 . S
C486 C485 1.386 . S
C486 C487 1.373 . S
C487 C486 1.373 . S
C487 C488 1.409 . S
C487 H514 0.931 . S
C488 C483 1.356 . S
C488 C487 1.409 . S
C488 H515 0.930 . S
C489 O502 1.270 . S
C489 O503 1.248 . S
C490 O504 1.267 . S
C490 O505 1.278 . S
C491 Pr481 2.880 1_556 S
C491 C492 1.491 . S
C491 O506 1.254 . S
C491 O507 1.225 . S
C492 C491 1.491 . S
C492 C493 1.392 . S
C492 C497 1.356 . S
C493 C492 1.392 . S
C493 C494 1.368 . S
C493 H516 0.929 . S
C494 C493 1.368 . S
C494 C495 1.386 . S
C494 H517 0.929 . S
C495 C494 1.386 . S
C495 C496 1.373 . S
C496 C495 1.373 . S
C496 C497 1.409 . S
C496 H518 0.931 . S
C497 C492 1.356 . S
C497 C496 1.409 . S
C497 H519 0.930 . S
C498 O508 1.270 . S
C498 O509 1.248 . S
C499 O510 1.267 . S
C499 O511 1.278 . S
O500 Pr480 2.562 . S
O500 C482 1.254 . S
O501 Pr480 2.490 . S
O501 C482 1.225 . S
O502 Pr480 2.695 . S
O502 Pr481 2.436 . S
O502 C489 1.270 . S
O503 Pr480 2.512 . S
O503 C489 1.248 . S
O504 Pr481 2.438 . S
O504 C490 1.267 . S
O505 Pr480 2.437 . S
O505 C490 1.278 . S
O506 Pr481 2.562 1_556 S
O506 C491 1.254 . S
O507 Pr481 2.490 1_556 S
O507 C491 1.225 . S
O508 Pr480 2.436 . S
O508 Pr481 2.695 . S
O508 C498 1.270 . S
O509 Pr481 2.512 . S
O509 C498 1.248 . S
O510 Pr480 2.438 . S
O510 C499 1.267 . S
O511 Pr481 2.437 . S
O511 C499 1.278 . S
H512 C484 0.929 . S
H513 C485 0.929 . S
H514 C487 0.931 . S
H515 C488 0.930 . S
H516 C493 0.929 . S
H517 C494 0.929 . S
H518 C496 0.931 . S
H519 C497 0.930 . S
Pr520 C522 2.880 1_554 S
Pr520 O540 2.562 1_554 S
Pr520 O541 2.490 1_554 S
Pr520 O542 2.695 . S
Pr520 O543 2.512 . S
Pr520 O545 2.437 . S
Pr520 O548 2.436 . S
Pr520 O550 2.438 . S
Pr521 C531 2.880 . S
Pr521 O542 2.436 . S
Pr521 O544 2.438 . S
Pr521 O546 2.562 . S
Pr521 O547 2.490 . S
Pr521 O548 2.695 . S
Pr521 O549 2.512 . S
Pr521 O551 2.437 . S
C522 Pr520 2.880 1_556 S
C522 C523 1.491 . S
C522 O540 1.254 . S
C522 O541 1.225 . S
C523 C522 1.491 . S
C523 C524 1.392 . S
C523 C528 1.356 . S
C524 C523 1.392 . S
C524 C525 1.368 . S
C524 H552 0.929 . S
C525 C524 1.368 . S
C525 C526 1.386 . S
C525 H553 0.929 . S
C526 C525 1.386 . S
C526 C527 1.373 . S
C527 C526 1.373 . S
C527 C528 1.409 . S
C527 H554 0.931 . S
C528 C523 1.356 . S
C528 C527 1.409 . S
C528 H555 0.930 . S
C529 O542 1.270 . S
C529 O543 1.248 . S
C530 O544 1.267 . S
C530 O545 1.278 . S
C531 Pr521 2.880 . S
C531 C532 1.491 . S
C531 O546 1.254 . S
C531 O547 1.225 . S
C532 C531 1.491 . S
C532 C533 1.392 . S
C532 C537 1.356 . S
C533 C532 1.392 . S
C533 C534 1.368 . S
C533 H556 0.929 . S
C534 C533 1.368 . S
C534 C535 1.386 . S
C534 H557 0.929 . S
C535 C534 1.386 . S
C535 C536 1.373 . S
C536 C535 1.373 . S
C536 C537 1.409 . S
C536 H558 0.931 . S
C537 C532 1.356 . S
C537 C536 1.409 . S
C537 H559 0.930 . S
C538 O548 1.270 . S
C538 O549 1.248 . S
C539 O550 1.267 . S
C539 O551 1.278 . S
O540 Pr520 2.562 1_556 S
O540 C522 1.254 . S
O541 Pr520 2.490 1_556 S
O541 C522 1.225 . S
O542 Pr520 2.695 . S
O542 Pr521 2.436 . S
O542 C529 1.270 . S
O543 Pr520 2.512 . S
O543 C529 1.248 . S
O544 Pr521 2.438 . S
O544 C530 1.267 . S
O545 Pr520 2.437 . S
O545 C530 1.278 . S
O546 Pr521 2.562 . S
O546 C531 1.254 . S
O547 Pr521 2.490 . S
O547 C531 1.225 . S
O548 Pr520 2.436 . S
O548 Pr521 2.695 . S
O548 C538 1.270 . S
O549 Pr521 2.512 . S
O549 C538 1.248 . S
O550 Pr520 2.438 . S
O550 C539 1.267 . S
O551 Pr521 2.437 . S
O551 C539 1.278 . S
H552 C524 0.929 . S
H553 C525 0.929 . S
H554 C527 0.931 . S
H555 C528 0.930 . S
H556 C533 0.929 . S
H557 C534 0.929 . S
H558 C536 0.931 . S
H559 C537 0.930 . S
Pr560 C562 2.880 . S
Pr560 O580 2.562 . S
Pr560 O581 2.490 . S
Pr560 O582 2.695 . S
Pr560 O583 2.512 . S
Pr560 O585 2.437 . S
Pr560 O588 2.436 . S
Pr560 O590 2.438 . S
Pr561 C571 2.880 1_554 S
Pr561 O582 2.436 . S
Pr561 O584 2.438 . S
Pr561 O586 2.562 . S
Pr561 O587 2.490 . S
Pr561 O588 2.695 . S
Pr561 O589 2.512 . S
Pr561 O591 2.437 . S
C562 Pr560 2.880 . S
C562 C563 1.491 . S
C562 O580 1.254 . S
C562 O581 1.225 . S
C563 C562 1.491 . S
C563 C564 1.392 . S
C563 C568 1.356 . S
C564 C563 1.392 . S
C564 C565 1.368 . S
C564 H592 0.929 . S
C565 C564 1.368 . S
C565 C566 1.386 . S
C565 H593 0.929 . S
C566 C565 1.386 . S
C566 C567 1.373 . S
C567 C566 1.373 . S
C567 C568 1.409 . S
C567 H594 0.931 . S
C568 C563 1.356 . S
C568 C567 1.409 . S
C568 H595 0.930 . S
C569 O582 1.270 . S
C569 O583 1.248 . S
C570 O584 1.267 . S
C570 O585 1.278 . S
C571 Pr561 2.880 1_556 S
C571 C572 1.491 . S
C571 O586 1.254 1_556 S
C571 O587 1.225 1_556 S
C572 C571 1.491 . S
C572 C573 1.392 . S
C572 C577 1.356 . S
C573 C572 1.392 . S
C573 C574 1.368 . S
C573 H596 0.929 . S
C574 C573 1.368 . S
C574 C575 1.386 . S
C574 H597 0.929 . S
C575 C574 1.386 . S
C575 C576 1.373 . S
C576 C575 1.373 . S
C576 C577 1.409 . S
C576 H598 0.931 . S
C577 C572 1.356 . S
C577 C576 1.409 . S
C577 H599 0.930 . S
C578 O588 1.270 . S
C578 O589 1.248 . S
C579 O590 1.267 . S
C579 O591 1.278 . S
O580 Pr560 2.562 . S
O580 C562 1.254 . S
O581 Pr560 2.490 . S
O581 C562 1.225 . S
O582 Pr560 2.695 . S
O582 Pr561 2.436 . S
O582 C569 1.270 . S
O583 Pr560 2.512 . S
O583 C569 1.248 . S
O584 Pr561 2.438 . S
O584 C570 1.267 . S
O585 Pr560 2.437 . S
O585 C570 1.278 . S
O586 Pr561 2.562 . S
O586 C571 1.254 1_554 S
O587 Pr561 2.490 . S
O587 C571 1.225 1_554 S
O588 Pr560 2.436 . S
O588 Pr561 2.695 . S
O588 C578 1.270 . S
O589 Pr561 2.512 . S
O589 C578 1.248 . S
O590 Pr560 2.438 . S
O590 C579 1.267 . S
O591 Pr561 2.437 . S
O591 C579 1.278 . S
H592 C564 0.929 . S
H593 C565 0.929 . S
H594 C567 0.931 . S
H595 C568 0.930 . S
H596 C573 0.929 . S
H597 C574 0.929 . S
H598 C576 0.931 . S
H599 C577 0.930 . S
Pr600 C602 2.880 . S
Pr600 O620 2.562 . S
Pr600 O621 2.490 . S
Pr600 O622 2.695 . S
Pr600 O623 2.512 . S
Pr600 O625 2.437 . S
Pr600 O628 2.436 . S
Pr600 O630 2.438 . S
Pr601 C611 2.880 1_554 S
Pr601 O622 2.436 . S
Pr601 O624 2.438 . S
Pr601 O626 2.562 . S
Pr601 O627 2.490 1_554 S
Pr601 O628 2.695 . S
Pr601 O629 2.512 . S
Pr601 O631 2.437 . S
C602 Pr600 2.880 . S
C602 C603 1.491 . S
C602 O620 1.254 . S
C602 O621 1.225 . S
C603 C602 1.491 . S
C603 C604 1.392 . S
C603 C608 1.356 . S
C604 C603 1.392 . S
C604 C605 1.368 . S
C604 H632 0.929 . S
C605 C604 1.368 . S
C605 C606 1.386 . S
C605 H633 0.929 . S
C606 C605 1.386 . S
C606 C607 1.373 . S
C607 C606 1.373 . S
C607 C608 1.409 . S
C607 H634 0.931 . S
C608 C603 1.356 . S
C608 C607 1.409 . S
C608 H635 0.930 . S
C609 O622 1.270 . S
C609 O623 1.248 . S
C610 O624 1.267 . S
C610 O625 1.278 . S
C611 Pr601 2.880 1_556 S
C611 C612 1.491 . S
C611 O626 1.254 1_556 S
C611 O627 1.225 . S
C612 C611 1.491 . S
C612 C613 1.392 . S
C612 C617 1.356 . S
C613 C612 1.392 . S
C613 C614 1.368 . S
C613 H636 0.929 . S
C614 C613 1.368 . S
C614 C615 1.386 . S
C614 H637 0.929 . S
C615 C614 1.386 . S
C615 C616 1.373 . S
C616 C615 1.373 . S
C616 C617 1.409 . S
C616 H638 0.931 . S
C617 C612 1.356 . S
C617 C616 1.409 . S
C617 H639 0.930 . S
C618 O628 1.270 . S
C618 O629 1.248 . S
C619 O630 1.267 . S
C619 O631 1.278 . S
O620 Pr600 2.562 . S
O620 C602 1.254 . S
O621 Pr600 2.490 . S
O621 C602 1.225 . S
O622 Pr600 2.695 . S
O622 Pr601 2.436 . S
O622 C609 1.270 . S
O623 Pr600 2.512 . S
O623 C609 1.248 . S
O624 Pr601 2.438 . S
O624 C610 1.267 . S
O625 Pr600 2.437 . S
O625 C610 1.278 . S
O626 Pr601 2.562 . S
O626 C611 1.254 1_554 S
O627 Pr601 2.490 1_556 S
O627 C611 1.225 . S
O628 Pr600 2.436 . S
O628 Pr601 2.695 . S
O628 C618 1.270 . S
O629 Pr601 2.512 . S
O629 C618 1.248 . S
O630 Pr600 2.438 . S
O630 C619 1.267 . S
O631 Pr601 2.437 . S
O631 C619 1.278 . S
H632 C604 0.929 . S
H633 C605 0.929 . S
H634 C607 0.931 . S
H635 C608 0.930 . S
H636 C613 0.929 . S
H637 C614 0.929 . S
H638 C616 0.931 . S
H639 C617 0.930 . S
Pr640 C642 2.880 . S
Pr640 O660 2.562 . S
Pr640 O661 2.490 . S
Pr640 O662 2.695 . S
Pr640 O663 2.512 . S
Pr640 O665 2.437 . S
Pr640 O668 2.436 . S
Pr640 O670 2.438 . S
Pr641 C651 2.880 . S
Pr641 O662 2.436 . S
Pr641 O664 2.438 . S
Pr641 O666 2.562 . S
Pr641 O667 2.490 . S
Pr641 O668 2.695 . S
Pr641 O669 2.512 . S
Pr641 O671 2.437 . S
C642 Pr640 2.880 . S
C642 C643 1.491 1_554 S
C642 O660 1.254 . S
C642 O661 1.225 . S
C643 C642 1.491 1_556 S
C643 C644 1.392 . S
C643 C648 1.356 . S
C644 C643 1.392 . S
C644 C645 1.368 . S
C644 H672 0.929 . S
C645 C644 1.368 . S
C645 C646 1.386 . S
C645 H673 0.929 . S
C646 C645 1.386 . S
C646 C647 1.373 . S
C647 C646 1.373 . S
C647 C648 1.409 . S
C647 H674 0.931 . S
C648 C643 1.356 . S
C648 C647 1.409 . S
C648 H675 0.930 . S
C649 O662 1.270 . S
C649 O663 1.248 . S
C650 O664 1.267 . S
C650 O665 1.278 . S
C651 Pr641 2.880 . S
C651 C652 1.491 . S
C651 O666 1.254 . S
C651 O667 1.225 . S
C652 C651 1.491 . S
C652 C653 1.392 . S
C652 C657 1.356 . S
C653 C652 1.392 . S
C653 C654 1.368 . S
C653 H676 0.929 . S
C654 C653 1.368 . S
C654 C655 1.386 . S
C654 H677 0.929 . S
C655 C654 1.386 . S
C655 C656 1.373 . S
C656 C655 1.373 . S
C656 C657 1.409 . S
C656 H678 0.931 . S
C657 C652 1.356 . S
C657 C656 1.409 . S
C657 H679 0.930 . S
C658 O668 1.270 . S
C658 O669 1.248 . S
C659 O670 1.267 . S
C659 O671 1.278 . S
O660 Pr640 2.562 . S
O660 C642 1.254 . S
O661 Pr640 2.490 . S
O661 C642 1.225 . S
O662 Pr640 2.695 . S
O662 Pr641 2.436 . S
O662 C649 1.270 . S
O663 Pr640 2.512 . S
O663 C649 1.248 . S
O664 Pr641 2.438 . S
O664 C650 1.267 . S
O665 Pr640 2.437 . S
O665 C650 1.278 . S
O666 Pr641 2.562 . S
O666 C651 1.254 . S
O667 Pr641 2.490 . S
O667 C651 1.225 . S
O668 Pr640 2.436 . S
O668 Pr641 2.695 . S
O668 C658 1.270 . S
O669 Pr641 2.512 . S
O669 C658 1.248 . S
O670 Pr640 2.438 . S
O670 C659 1.267 . S
O671 Pr641 2.437 . S
O671 C659 1.278 . S
H672 C644 0.929 . S
H673 C645 0.929 . S
H674 C647 0.931 . S
H675 C648 0.930 . S
H676 C653 0.929 . S
H677 C654 0.929 . S
H678 C656 0.931 . S
H679 C657 0.930 . S
Pr680 C682 2.880 . S
Pr680 O700 2.562 . S
Pr680 O701 2.490 . S
Pr680 O702 2.695 . S
Pr680 O703 2.512 . S
Pr680 O705 2.437 . S
Pr680 O708 2.436 . S
Pr680 O710 2.438 . S
Pr681 C691 2.880 . S
Pr681 O702 2.436 . S
Pr681 O704 2.438 . S
Pr681 O706 2.562 . S
Pr681 O707 2.490 . S
Pr681 O708 2.695 . S
Pr681 O709 2.512 . S
Pr681 O711 2.437 . S
C682 Pr680 2.880 . S
C682 C683 1.491 . S
C682 O700 1.254 . S
C682 O701 1.225 . S
C683 C682 1.491 . S
C683 C684 1.392 . S
C683 C688 1.356 . S
C684 C683 1.392 . S
C684 C685 1.368 . S
C684 H712 0.929 . S
C685 C684 1.368 . S
C685 C686 1.386 . S
C685 H713 0.929 . S
C686 C685 1.386 . S
C686 C687 1.373 . S
C687 C686 1.373 . S
C687 C688 1.409 . S
C687 H714 0.931 . S
C688 C683 1.356 . S
C688 C687 1.409 . S
C688 H715 0.930 . S
C689 O702 1.270 . S
C689 O703 1.248 . S
C690 O704 1.267 . S
C690 O705 1.278 . S
C691 Pr681 2.880 . S
C691 C692 1.491 1_554 S
C691 O706 1.254 . S
C691 O707 1.225 . S
C692 C691 1.491 1_556 S
C692 C693 1.392 . S
C692 C697 1.356 . S
C693 C692 1.392 . S
C693 C694 1.368 . S
C693 H716 0.929 . S
C694 C693 1.368 . S
C694 C695 1.386 . S
C694 H717 0.929 . S
C695 C694 1.386 . S
C695 C696 1.373 . S
C696 C695 1.373 . S
C696 C697 1.409 . S
C696 H718 0.931 . S
C697 C692 1.356 . S
C697 C696 1.409 . S
C697 H719 0.930 . S
C698 O708 1.270 . S
C698 O709 1.248 . S
C699 O710 1.267 . S
C699 O711 1.278 . S
O700 Pr680 2.562 . S
O700 C682 1.254 . S
O701 Pr680 2.490 . S
O701 C682 1.225 . S
O702 Pr680 2.695 . S
O702 Pr681 2.436 . S
O702 C689 1.270 . S
O703 Pr680 2.512 . S
O703 C689 1.248 . S
O704 Pr681 2.438 . S
O704 C690 1.267 . S
O705 Pr680 2.437 . S
O705 C690 1.278 . S
O706 Pr681 2.562 . S
O706 C691 1.254 . S
O707 Pr681 2.490 . S
O707 C691 1.225 . S
O708 Pr680 2.436 . S
O708 Pr681 2.695 . S
O708 C698 1.270 . S
O709 Pr681 2.512 . S
O709 C698 1.248 . S
O710 Pr680 2.438 . S
O710 C699 1.267 . S
O711 Pr681 2.437 . S
O711 C699 1.278 . S
H712 C684 0.929 . S
H713 C685 0.929 . S
H714 C687 0.931 . S
H715 C688 0.930 . S
H716 C693 0.929 . S
H717 C694 0.929 . S
H718 C696 0.931 . S
H719 C697 0.930 . S
C720 C721 1.369 . S
C720 C722 1.419 . S
C720 H724 0.930 . S
C721 C720 1.369 . S
C721 C730 1.429 . S
C722 C720 1.419 . S
C722 C723 1.363 . S
C722 H725 0.929 . S
C723 C722 1.363 . S
C723 C729 1.428 . S
H724 C720 0.930 . S
H725 C722 0.929 . S
S726 N727 1.613 . S
S726 N728 1.610 . S
N727 S726 1.613 . S
N727 C730 1.350 . S
N728 S726 1.610 . S
N728 C729 1.351 . S
C729 C723 1.428 . S
C729 N728 1.351 . S
C729 C730 1.434 . S
C730 C721 1.429 . S
C730 N727 1.350 . S
C730 C729 1.434 . S
C731 C732 1.369 . S
C731 C733 1.419 . S
C731 H735 0.930 . S
C732 C731 1.369 . S
C732 C741 1.429 . S
C733 C731 1.419 . S
C733 C734 1.363 . S
C733 H736 0.929 . S
C734 C733 1.363 . S
C734 C740 1.428 . S
H735 C731 0.930 . S
H736 C733 0.929 . S
S737 N738 1.613 . S
S737 N739 1.610 . S
N738 S737 1.613 . S
N738 C741 1.350 . S
N739 S737 1.610 . S
N739 C740 1.351 . S
C740 C734 1.428 . S
C740 N739 1.351 . S
C740 C741 1.434 . S
C741 C732 1.429 . S
C741 N738 1.350 . S
C741 C740 1.434 . S
C742 C743 1.369 . S
C742 C744 1.419 . S
C742 H746 0.930 . S
C743 C742 1.369 . S
C743 C752 1.429 . S
C744 C742 1.419 . S
C744 C745 1.363 . S
C744 H747 0.929 . S
C745 C744 1.363 . S
C745 C751 1.428 . S
H746 C742 0.930 . S
H747 C744 0.929 . S
S748 N749 1.613 . S
S748 N750 1.610 . S
N749 S748 1.613 . S
N749 C752 1.350 . S
N750 S748 1.610 . S
N750 C751 1.351 . S
C751 C745 1.428 . S
C751 N750 1.351 . S
C751 C752 1.434 . S
C752 C743 1.429 . S
C752 N749 1.350 . S
C752 C751 1.434 . S
C753 C754 1.369 . S
C753 C755 1.419 . S
C753 H757 0.930 . S
C754 C753 1.369 . S
C754 C763 1.429 . S
C755 C753 1.419 . S
C755 C756 1.363 . S
C755 H758 0.929 . S
C756 C755 1.363 . S
C756 C762 1.428 . S
H757 C753 0.930 . S
H758 C755 0.929 . S
S759 N760 1.613 . S
S759 N761 1.610 . S
N760 S759 1.613 . S
N760 C763 1.350 . S
N761 S759 1.610 . S
N761 C762 1.351 . S
C762 C756 1.428 . S
C762 N761 1.351 . S
C762 C763 1.434 . S
C763 C754 1.429 . S
C763 N760 1.350 . S
C763 C762 1.434 . S
C764 C765 1.369 . S
C764 C766 1.419 . S
C764 H768 0.930 . S
C765 C764 1.369 . S
C765 C774 1.429 . S
C766 C764 1.419 . S
C766 C767 1.363 . S
C766 H769 0.929 . S
C767 C766 1.363 . S
C767 C773 1.428 . S
H768 C764 0.930 . S
H769 C766 0.929 . S
S770 N771 1.613 . S
S770 N772 1.610 . S
N771 S770 1.613 . S
N771 C774 1.350 . S
N772 S770 1.610 . S
N772 C773 1.351 . S
C773 C767 1.428 . S
C773 N772 1.351 . S
C773 C774 1.434 . S
C774 C765 1.429 . S
C774 N771 1.350 . S
C774 C773 1.434 . S
C775 C776 1.369 . S
C775 C777 1.419 . S
C775 H779 0.930 . S
C776 C775 1.369 . S
C776 C785 1.429 . S
C777 C775 1.419 . S
C777 C778 1.363 . S
C777 H780 0.929 . S
C778 C777 1.363 . S
C778 C784 1.428 . S
H779 C775 0.930 . S
H780 C777 0.929 . S
S781 N782 1.613 . S
S781 N783 1.610 . S
N782 S781 1.613 . S
N782 C785 1.350 . S
N783 S781 1.610 . S
N783 C784 1.351 . S
C784 C778 1.428 . S
C784 N783 1.351 . S
C784 C785 1.434 . S
C785 C776 1.429 . S
C785 N782 1.350 . S
C785 C784 1.434 . S
C786 C787 1.369 . S
C786 C788 1.419 . S
C786 H790 0.930 . S
C787 C786 1.369 . S
C787 C796 1.429 . S
C788 C786 1.419 . S
C788 C789 1.363 . S
C788 H791 0.929 . S
C789 C788 1.363 . S
C789 C795 1.428 . S
H790 C786 0.930 . S
H791 C788 0.929 . S
S792 N793 1.613 1_455 S
S792 N794 1.610 1_455 S
N793 S792 1.613 1_655 S
N793 C796 1.350 . S
N794 S792 1.610 1_655 S
N794 C795 1.351 . S
C795 C789 1.428 . S
C795 N794 1.351 . S
C795 C796 1.434 . S
C796 C787 1.429 . S
C796 N793 1.350 . S
C796 C795 1.434 . S
C797 C798 1.369 . S
C797 C799 1.419 . S
C797 H801 0.930 . S
C798 C797 1.369 . S
C798 C807 1.429 . S
C799 C797 1.419 . S
C799 C800 1.363 . S
C799 H802 0.929 . S
C800 C799 1.363 . S
C800 C806 1.428 . S
H801 C797 0.930 . S
H802 C799 0.929 . S
S803 N804 1.613 . S
S803 N805 1.610 . S
N804 S803 1.613 . S
N804 C807 1.350 . S
N805 S803 1.610 . S
N805 C806 1.351 . S
C806 C800 1.428 . S
C806 N805 1.351 . S
C806 C807 1.434 . S
C807 C798 1.429 . S
C807 N804 1.350 . S
C807 C806 1.434 . S
C808 C809 1.369 . S
C808 C810 1.419 . S
C808 H812 0.930 . S
C809 C808 1.369 . S
C809 C818 1.429 . S
C810 C808 1.419 . S
C810 C811 1.363 . S
C810 H813 0.929 . S
C811 C810 1.363 . S
C811 C817 1.428 . S
H812 C808 0.930 . S
H813 C810 0.929 . S
S814 N815 1.613 . S
S814 N816 1.610 . S
N815 S814 1.613 . S
N815 C818 1.350 . S
N816 S814 1.610 . S
N816 C817 1.351 . S
C817 C811 1.428 . S
C817 N816 1.351 . S
C817 C818 1.434 . S
C818 C809 1.429 . S
C818 N815 1.350 . S
C818 C817 1.434 . S
C819 C820 1.369 . S
C819 C821 1.419 . S
C819 H823 0.930 . S
C820 C819 1.369 . S
C820 C829 1.429 . S
C821 C819 1.419 . S
C821 C822 1.363 . S
C821 H824 0.929 . S
C822 C821 1.363 . S
C822 C828 1.428 . S
H823 C819 0.930 . S
H824 C821 0.929 . S
S825 N826 1.613 . S
S825 N827 1.610 . S
N826 S825 1.613 . S
N826 C829 1.350 . S
N827 S825 1.610 . S
N827 C828 1.351 . S
C828 C822 1.428 . S
C828 N827 1.351 . S
C828 C829 1.434 . S
C829 C820 1.429 . S
C829 N826 1.350 . S
C829 C828 1.434 . S
C830 C831 1.369 . S
C830 C832 1.419 . S
C830 H834 0.930 . S
C831 C830 1.369 . S
C831 C840 1.429 . S
C832 C830 1.419 . S
C832 C833 1.363 . S
C832 H835 0.929 . S
C833 C832 1.363 . S
C833 C839 1.428 . S
H834 C830 0.930 . S
H835 C832 0.929 . S
S836 N837 1.613 . S
S836 N838 1.610 . S
N837 S836 1.613 . S
N837 C840 1.350 . S
N838 S836 1.610 . S
N838 C839 1.351 . S
C839 C833 1.428 . S
C839 N838 1.351 . S
C839 C840 1.434 . S
C840 C831 1.429 . S
C840 N837 1.350 . S
C840 C839 1.434 . S
C841 C842 1.369 . S
C841 C843 1.419 . S
C841 H845 0.930 . S
C842 C841 1.369 . S
C842 C851 1.429 . S
C843 C841 1.419 . S
C843 C844 1.363 . S
C843 H846 0.929 . S
C844 C843 1.363 . S
C844 C850 1.428 . S
H845 C841 0.930 . S
H846 C843 0.929 . S
S847 N848 1.613 . S
S847 N849 1.610 . S
N848 S847 1.613 . S
N848 C851 1.350 . S
N849 S847 1.610 . S
N849 C850 1.351 . S
C850 C844 1.428 . S
C850 N849 1.351 . S
C850 C851 1.434 . S
C851 C842 1.429 . S
C851 N848 1.350 . S
C851 C850 1.434 . S
C852 C853 1.369 . S
C852 C854 1.419 1_556 S
C852 H856 0.930 . S
C853 C852 1.369 . S
C853 C862 1.429 1_655 S
C854 C852 1.419 1_554 S
C854 C855 1.363 1_655 S
C854 H857 0.929 . S
C855 C854 1.363 1_455 S
C855 C861 1.422 1_554 S
H856 C852 0.930 . S
H857 C854 0.929 . S
S858 N859 1.613 . S
S858 N860 1.610 . S
N859 S858 1.613 . S
N859 C862 1.350 . S
N860 S858 1.610 . S
N860 C861 1.352 . S
C861 C855 1.422 1_556 S
C861 N860 1.352 . S
C861 C862 1.439 . S
C862 C853 1.429 1_455 S
C862 N859 1.350 . S
C862 C861 1.439 . S
C863 C864 1.369 . S
C863 C865 1.419 . S
C863 H867 0.930 . S
C864 C863 1.369 . S
C864 C873 1.429 . S
C865 C863 1.419 . S
C865 C866 1.363 1_556 S
C865 H868 0.929 . S
C866 C865 1.363 1_554 S
C866 C872 1.428 . S
H867 C863 0.930 . S
H868 C865 0.929 . S
S869 N870 1.613 1_554 S
S869 N871 1.610 . S
N870 S869 1.613 1_556 S
N870 C873 1.350 . S
N871 S869 1.610 . S
N871 C872 1.351 . S
C872 C866 1.428 . S
C872 N871 1.351 . S
C872 C873 1.434 1_554 S
C873 C864 1.429 . S
C873 N870 1.350 . S
C873 C872 1.434 1_556 S
C874 C875 1.369 1_565 S
C874 C876 1.419 . S
C874 H878 0.930 . S
C875 C874 1.369 1_545 S
C875 C884 1.429 . S
C876 C874 1.419 . S
C876 C877 1.363 1_556 S
C876 H879 0.929 . S
C877 C876 1.363 1_554 S
C877 C883 1.428 1_565 S
H878 C874 0.930 . S
H879 C876 0.929 . S
S880 N881 1.613 1_554 S
S880 N882 1.610 . S
N881 S880 1.613 1_556 S
N881 C884 1.350 . S
N882 S880 1.610 . S
N882 C883 1.351 . S
C883 C877 1.428 1_545 S
C883 N882 1.351 . S
C883 C884 1.434 1_554 S
C884 C875 1.429 . S
C884 N881 1.350 . S
C884 C883 1.434 1_556 S
C885 C886 1.369 . S
C885 C887 1.419 1_556 S
C885 H889 0.930 . S
C886 C885 1.369 . S
C886 C895 1.429 1_545 S
C887 C885 1.419 1_554 S
C887 C888 1.363 1_545 S
C887 H890 0.929 . S
C888 C887 1.363 1_565 S
C888 C894 1.428 . S
H889 C885 0.930 . S
H890 C887 0.929 . S
S891 N892 1.613 . S
S891 N893 1.610 1_556 S
N892 S891 1.613 . S
N892 C895 1.350 . S
N893 S891 1.610 1_554 S
N893 C894 1.351 . S
C894 C888 1.428 . S
C894 N893 1.351 . S
C894 C895 1.434 1_554 S
C895 C886 1.429 1_565 S
C895 N892 1.350 . S
C895 C894 1.434 1_556 S
C896 C897 1.369 . S
C896 C898 1.419 1_554 S
C896 H900 0.930 . S
C897 C896 1.369 . S
C897 C906 1.429 1_455 S
C898 C896 1.419 1_556 S
C898 C899 1.363 1_455 S
C898 H901 0.929 . S
C899 C898 1.363 1_655 S
C899 C905 1.428 1_556 S
H900 C896 0.930 . S
H901 C898 0.929 . S
S902 N903 1.613 . S
S902 N904 1.610 . S
N903 S902 1.613 . S
N903 C906 1.350 . S
N904 S902 1.610 . S
N904 C905 1.351 . S
C905 C899 1.428 1_554 S
C905 N904 1.351 . S
C905 C906 1.434 . S
C906 C897 1.429 1_655 S
C906 N903 1.350 . S
C906 C905 1.434 . S
C907 C908 1.369 . S
C907 C909 1.419 1_554 S
C907 H911 0.930 . S
C908 C907 1.369 . S
C908 C917 1.429 . S
C909 C907 1.419 1_556 S
C909 C910 1.363 . S
C909 H912 0.929 . S
C910 C909 1.363 . S
C910 C916 1.428 . S
H911 C907 0.930 . S
H912 C909 0.929 . S
S913 N914 1.613 . S
S913 N915 1.610 1_554 S
N914 S913 1.613 . S
N914 C917 1.350 . S
N915 S913 1.610 1_556 S
N915 C916 1.351 . S
C916 C910 1.428 . S
C916 N915 1.351 . S
C916 C917 1.434 1_556 S
C917 C908 1.429 . S
C917 N914 1.350 . S
C917 C916 1.434 1_554 S
C918 C919 1.369 . S
C918 C920 1.419 . S
C918 H922 0.930 . S
C919 C918 1.369 . S
C919 C928 1.429 . S
C920 C918 1.419 . S
C920 C921 1.363 . S
C920 H923 0.929 . S
C921 C920 1.363 . S
C921 C927 1.428 . S
H922 C918 0.930 . S
H923 C920 0.929 . S
S924 N925 1.613 . S
S924 N926 1.610 . S
N925 S924 1.613 . S
N925 C928 1.350 . S
N926 S924 1.610 . S
N926 C927 1.351 . S
C927 C921 1.428 . S
C927 N926 1.351 . S
C927 C928 1.434 . S
C928 C919 1.429 . S
C928 N925 1.350 . S
C928 C927 1.434 . S
C929 C930 1.369 . S
C929 C931 1.419 . S
C929 H933 0.930 . S
C930 C929 1.369 . S
C930 C939 1.429 . S
C931 C929 1.419 . S
C931 C932 1.363 . S
C931 H934 0.929 . S
C932 C931 1.363 . S
C932 C938 1.428 . S
H933 C929 0.930 . S
H934 C931 0.929 . S
S935 N936 1.613 . S
S935 N937 1.610 . S
N936 S935 1.613 . S
N936 C939 1.350 . S
N937 S935 1.610 . S
N937 C938 1.351 . S
C938 C932 1.428 . S
C938 N937 1.351 . S
C938 C939 1.434 . S
C939 C930 1.429 . S
C939 N936 1.350 . S
C939 C938 1.434 . S
C940 C941 1.369 . S
C940 C942 1.419 . S
C940 H944 0.930 . S
C941 C940 1.369 . S
C941 C950 1.429 . S
C942 C940 1.419 . S
C942 C943 1.363 . S
C942 H945 0.929 . S
C943 C942 1.363 . S
C943 C949 1.428 . S
H944 C940 0.930 . S
H945 C942 0.929 . S
S946 N947 1.613 . S
S946 N948 1.610 . S
N947 S946 1.613 . S
N947 C950 1.350 . S
N948 S946 1.610 . S
N948 C949 1.351 . S
C949 C943 1.428 . S
C949 N948 1.351 . S
C949 C950 1.434 . S
C950 C941 1.429 . S
C950 N947 1.350 . S
C950 C949 1.434 . S
C951 C952 1.369 . S
C951 C953 1.419 . S
C951 H955 0.930 . S
C952 C951 1.369 . S
C952 C961 1.429 . S
C953 C951 1.419 . S
C953 C954 1.363 . S
C953 H956 0.929 . S
C954 C953 1.363 . S
C954 C960 1.428 . S
H955 C951 0.930 . S
H956 C953 0.929 . S
S957 N958 1.613 . S
S957 N959 1.610 . S
N958 S957 1.613 . S
N958 C961 1.350 . S
N959 S957 1.610 . S
N959 C960 1.351 . S
C960 C954 1.428 . S
C960 N959 1.351 . S
C960 C961 1.434 . S
C961 C952 1.429 . S
C961 N958 1.350 . S
C961 C960 1.434 . S
C962 C963 1.369 . S
C962 C964 1.419 . S
C962 H966 0.930 . S
C963 C962 1.369 . S
C963 C972 1.429 . S
C964 C962 1.419 . S
C964 C965 1.363 . S
C964 H967 0.929 . S
C965 C964 1.363 . S
C965 C971 1.428 . S
H966 C962 0.930 . S
H967 C964 0.929 . S
S968 N969 1.613 . S
S968 N970 1.610 . S
N969 S968 1.613 . S
N969 C972 1.350 . S
N970 S968 1.610 . S
N970 C971 1.351 . S
C971 C965 1.428 . S
C971 N970 1.351 . S
C971 C972 1.434 . S
C972 C963 1.429 . S
C972 N969 1.350 . S
C972 C971 1.434 . S
C973 C974 1.369 . S
C973 C975 1.419 . S
C973 H977 0.930 . S
C974 C973 1.369 . S
C974 C983 1.429 . S
C975 C973 1.419 . S
C975 C976 1.363 . S
C975 H978 0.929 . S
C976 C975 1.363 . S
C976 C982 1.428 . S
H977 C973 0.930 . S
H978 C975 0.929 . S
S979 N980 1.613 . S
S979 N981 1.610 . S
N980 S979 1.613 . S
N980 C983 1.350 . S
N981 S979 1.610 . S
N981 C982 1.351 . S
C982 C976 1.428 . S
C982 N981 1.351 . S
C982 C983 1.434 . S
C983 C974 1.429 . S
C983 N980 1.350 . S
C983 C982 1.434 . S
C984 C985 1.369 . S
C984 C986 1.419 . S
C984 H988 0.930 . S
C985 C984 1.369 . S
C985 C994 1.429 . S
C986 C984 1.419 . S
C986 C987 1.363 . S
C986 H989 0.929 . S
C987 C986 1.363 . S
C987 C993 1.428 . S
H988 C984 0.930 . S
H989 C986 0.929 . S
S990 N991 1.613 . S
S990 N992 1.610 . S
N991 S990 1.613 . S
N991 C994 1.350 . S
N992 S990 1.610 . S
N992 C993 1.351 . S
C993 C987 1.428 . S
C993 N992 1.351 . S
C993 C994 1.434 . S
C994 C985 1.429 . S
C994 N991 1.350 . S
C994 C993 1.434 . S
C995 C996 1.369 . S
C995 C997 1.419 . S
C995 H999 0.930 . S
C996 C995 1.369 . S
C996 C1005 1.429 . S
C997 C995 1.419 . S
C997 C998 1.363 . S
C997 H1000 0.929 . S
C998 C997 1.363 . S
C998 C1004 1.428 . S
H999 C995 0.930 . S
H1000 C997 0.929 . S
S1001 N1002 1.613 . S
S1001 N1003 1.610 . S
N1002 S1001 1.613 . S
N1002 C1005 1.350 . S
N1003 S1001 1.610 . S
N1003 C1004 1.351 . S
C1004 C998 1.428 . S
C1004 N1003 1.351 . S
C1004 C1005 1.434 . S
C1005 C996 1.429 . S
C1005 N1002 1.350 . S
C1005 C1004 1.434 . S
C1006 C1007 1.369 . S
C1006 C1008 1.419 . S
C1006 H1010 0.930 . S
C1007 C1006 1.369 . S
C1007 C1016 1.429 . S
C1008 C1006 1.419 . S
C1008 C1009 1.363 . S
C1008 H1011 0.929 . S
C1009 C1008 1.363 . S
C1009 C1015 1.428 . S
H1010 C1006 0.930 . S
H1011 C1008 0.929 . S
S1012 N1013 1.613 . S
S1012 N1014 1.610 . S
N1013 S1012 1.613 . S
N1013 C1016 1.350 . S
N1014 S1012 1.610 . S
N1014 C1015 1.351 . S
C1015 C1009 1.428 . S
C1015 N1014 1.351 . S
C1015 C1016 1.434 . S
C1016 C1007 1.429 . S
C1016 N1013 1.350 . S
C1016 C1015 1.434 . S
C1017 C1018 1.369 . S
C1017 C1019 1.419 . S
C1017 H1021 0.930 . S
C1018 C1017 1.369 . S
C1018 C1027 1.429 . S
C1019 C1017 1.419 . S
C1019 C1020 1.363 . S
C1019 H1022 0.929 . S
C1020 C1019 1.363 . S
C1020 C1026 1.428 . S
H1021 C1017 0.930 . S
H1022 C1019 0.929 . S
S1023 N1024 1.613 . S
S1023 N1025 1.610 . S
N1024 S1023 1.613 . S
N1024 C1027 1.350 . S
N1025 S1023 1.610 . S
N1025 C1026 1.351 . S
C1026 C1020 1.428 . S
C1026 N1025 1.351 . S
C1026 C1027 1.434 . S
C1027 C1018 1.429 . S
C1027 N1024 1.350 . S
C1027 C1026 1.434 . S
C1028 C1029 1.369 . S
C1028 C1030 1.419 . S
C1028 H1032 0.930 . S
C1029 C1028 1.369 . S
C1029 C1038 1.429 . S
C1030 C1028 1.419 . S
C1030 C1031 1.363 . S
C1030 H1033 0.929 . S
C1031 C1030 1.363 . S
C1031 C1037 1.428 . S
H1032 C1028 0.930 . S
H1033 C1030 0.929 . S
S1034 N1035 1.613 . S
S1034 N1036 1.610 . S
N1035 S1034 1.613 . S
N1035 C1038 1.350 . S
N1036 S1034 1.610 . S
N1036 C1037 1.351 . S
C1037 C1031 1.428 . S
C1037 N1036 1.351 . S
C1037 C1038 1.434 . S
C1038 C1029 1.429 . S
C1038 N1035 1.350 . S
C1038 C1037 1.434 . S
C1039 C1040 1.369 . S
C1039 C1041 1.419 . S
C1039 H1043 0.930 . S
C1040 C1039 1.369 . S
C1040 C1049 1.429 . S
C1041 C1039 1.419 . S
C1041 C1042 1.363 . S
C1041 H1044 0.929 . S
C1042 C1041 1.363 . S
C1042 C1048 1.428 . S
H1043 C1039 0.930 . S
H1044 C1041 0.929 . S
S1045 N1046 1.613 . S
S1045 N1047 1.610 . S
N1046 S1045 1.613 . S
N1046 C1049 1.350 . S
N1047 S1045 1.610 . S
N1047 C1048 1.351 . S
C1048 C1042 1.428 . S
C1048 N1047 1.351 . S
C1048 C1049 1.434 . S
C1049 C1040 1.429 . S
C1049 N1046 1.350 . S
C1049 C1048 1.434 . S
C1050 C1051 1.369 . S
C1050 C1052 1.419 . S
C1050 H1054 0.930 . S
C1051 C1050 1.369 . S
C1051 C1060 1.429 . S
C1052 C1050 1.419 . S
C1052 C1053 1.363 . S
C1052 H1055 0.929 . S
C1053 C1052 1.363 . S
C1053 C1059 1.428 . S
H1054 C1050 0.930 . S
H1055 C1052 0.929 . S
S1056 N1057 1.613 . S
S1056 N1058 1.610 . S
N1057 S1056 1.613 . S
N1057 C1060 1.350 . S
N1058 S1056 1.610 . S
N1058 C1059 1.351 . S
C1059 C1053 1.428 . S
C1059 N1058 1.351 . S
C1059 C1060 1.434 . S
C1060 C1051 1.429 . S
C1060 N1057 1.350 . S
C1060 C1059 1.434 . S
C1061 C1062 1.369 . S
C1061 C1063 1.419 . S
C1061 H1065 0.930 . S
C1062 C1061 1.369 . S
C1062 C1071 1.429 . S
C1063 C1061 1.419 . S
C1063 C1064 1.363 . S
C1063 H1066 0.929 . S
C1064 C1063 1.363 . S
C1064 C1070 1.428 . S
H1065 C1061 0.930 . S
H1066 C1063 0.929 . S
S1067 N1068 1.613 . S
S1067 N1069 1.610 . S
N1068 S1067 1.613 . S
N1068 C1071 1.350 . S
N1069 S1067 1.610 . S
N1069 C1070 1.351 . S
C1070 C1064 1.428 . S
C1070 N1069 1.351 . S
C1070 C1071 1.434 . S
C1071 C1062 1.429 . S
C1071 N1068 1.350 . S
C1071 C1070 1.434 . S
C1072 C1073 1.369 . S
C1072 C1074 1.419 . S
C1072 H1076 0.930 . S
C1073 C1072 1.369 . S
C1073 C1082 1.429 . S
C1074 C1072 1.419 . S
C1074 C1075 1.363 . S
C1074 H1077 0.929 . S
C1075 C1074 1.363 . S
C1075 C1081 1.428 . S
H1076 C1072 0.930 . S
H1077 C1074 0.929 . S
S1078 N1079 1.613 . S
S1078 N1080 1.610 . S
N1079 S1078 1.613 . S
N1079 C1082 1.350 . S
N1080 S1078 1.610 . S
N1080 C1081 1.351 . S
C1081 C1075 1.428 . S
C1081 N1080 1.351 . S
C1081 C1082 1.434 . S
C1082 C1073 1.429 . S
C1082 N1079 1.350 . S
C1082 C1081 1.434 . S
C1083 C1084 1.369 . S
C1083 C1085 1.419 . S
C1083 H1087 0.930 . S
C1084 C1083 1.369 . S
C1084 C1093 1.429 . S
C1085 C1083 1.419 . S
C1085 C1086 1.363 . S
C1085 H1088 0.929 . S
C1086 C1085 1.363 . S
C1086 C1092 1.428 . S
H1087 C1083 0.930 . S
H1088 C1085 0.929 . S
S1089 N1090 1.613 . S
S1089 N1091 1.610 . S
N1090 S1089 1.613 . S
N1090 C1093 1.350 . S
N1091 S1089 1.610 . S
N1091 C1092 1.351 . S
C1092 C1086 1.428 . S
C1092 N1091 1.351 . S
C1092 C1093 1.434 . S
C1093 C1084 1.429 . S
C1093 N1090 1.350 . S
C1093 C1092 1.434 . S
C1094 C1095 1.369 . S
C1094 C1096 1.419 . S
C1094 H1098 0.930 . S
C1095 C1094 1.369 . S
C1095 C1104 1.429 . S
C1096 C1094 1.419 . S
C1096 C1097 1.363 . S
C1096 H1099 0.929 . S
C1097 C1096 1.363 . S
C1097 C1103 1.428 . S
H1098 C1094 0.930 . S
H1099 C1096 0.929 . S
S1100 N1101 1.613 . S
S1100 N1102 1.610 . S
N1101 S1100 1.613 . S
N1101 C1104 1.350 . S
N1102 S1100 1.610 . S
N1102 C1103 1.351 . S
C1103 C1097 1.428 . S
C1103 N1102 1.351 . S
C1103 C1104 1.434 . S
C1104 C1095 1.429 . S
C1104 N1101 1.350 . S
C1104 C1103 1.434 . S
C1105 C1106 1.369 . S
C1105 C1107 1.419 . S
C1105 H1109 0.930 . S
C1106 C1105 1.369 . S
C1106 C1115 1.429 . S
C1107 C1105 1.419 . S
C1107 C1108 1.363 . S
C1107 H1110 0.929 . S
C1108 C1107 1.363 . S
C1108 C1114 1.428 . S
H1109 C1105 0.930 . S
H1110 C1107 0.929 . S
S1111 N1112 1.613 . S
S1111 N1113 1.610 . S
N1112 S1111 1.613 . S
N1112 C1115 1.350 . S
N1113 S1111 1.610 . S
N1113 C1114 1.351 . S
C1114 C1108 1.428 . S
C1114 N1113 1.351 . S
C1114 C1115 1.434 . S
C1115 C1106 1.429 . S
C1115 N1112 1.350 . S
C1115 C1114 1.434 . S
C1116 C1117 1.369 1_655 S
C1116 C1118 1.419 1_554 S
C1116 H1120 0.930 . S
C1117 C1116 1.369 1_455 S
C1117 C1126 1.429 . S
C1118 C1116 1.419 1_556 S
C1118 C1119 1.363 1_655 S
C1118 H1121 0.929 . S
C1119 C1118 1.363 1_455 S
C1119 C1125 1.428 . S
H1120 C1116 0.930 . S
H1121 C1118 0.929 . S
S1122 N1123 1.613 . S
S1122 N1124 1.610 1_554 S
N1123 S1122 1.613 . S
N1123 C1126 1.350 . S
N1124 S1122 1.610 1_556 S
N1124 C1125 1.351 . S
C1125 C1119 1.428 . S
C1125 N1124 1.351 . S
C1125 C1126 1.434 1_556 S
C1126 C1117 1.429 . S
C1126 N1123 1.350 . S
C1126 C1125 1.434 1_554 S
C1127 C1128 1.369 . S
C1127 C1129 1.419 1_554 S
C1127 H1131 0.930 . S
C1128 C1127 1.369 . S
C1128 C1137 1.429 1_554 S
C1129 C1127 1.419 1_556 S
C1129 C1130 1.363 . S
C1129 H1132 0.929 . S
C1130 C1129 1.363 . S
C1130 C1136 1.428 . S
H1131 C1127 0.930 . S
H1132 C1129 0.929 . S
S1133 N1134 1.613 . S
S1133 N1135 1.610 . S
N1134 S1133 1.613 . S
N1134 C1137 1.350 . S
N1135 S1133 1.610 . S
N1135 C1136 1.351 . S
C1136 C1130 1.428 . S
C1136 N1135 1.351 . S
C1136 C1137 1.434 . S
C1137 C1128 1.429 1_556 S
C1137 N1134 1.350 . S
C1137 C1136 1.434 . S
C1138 C1139 1.369 . S
C1138 C1140 1.419 1_554 S
C1138 H1142 0.930 . S
C1139 C1138 1.369 . S
C1139 C1148 1.429 1_565 S
C1140 C1138 1.419 1_556 S
C1140 C1141 1.363 1_565 S
C1140 H1143 0.929 . S
C1141 C1140 1.363 1_545 S
C1141 C1147 1.428 . S
H1142 C1138 0.930 . S
H1143 C1140 0.929 . S
S1144 N1145 1.613 1_556 S
S1144 N1146 1.610 . S
N1145 S1144 1.613 1_554 S
N1145 C1148 1.350 . S
N1146 S1144 1.610 . S
N1146 C1147 1.351 . S
C1147 C1141 1.428 . S
C1147 N1146 1.351 . S
C1147 C1148 1.434 1_556 S
C1148 C1139 1.429 1_545 S
C1148 N1145 1.350 . S
C1148 C1147 1.434 1_554 S
C1149 C1150 1.369 1_554 S
C1149 C1151 1.419 . S
C1149 H1153 0.930 . S
C1150 C1149 1.369 1_556 S
C1150 C1159 1.429 1_455 S
C1151 C1149 1.419 . S
C1151 C1152 1.374 . S
C1151 H1154 0.929 . S
C1152 C1151 1.374 . S
C1152 C1158 1.422 1_455 S
H1153 C1149 0.930 . S
H1154 C1151 0.929 . S
S1155 N1156 1.613 . S
S1155 N1157 1.610 1_556 S
N1156 S1155 1.613 . S
N1156 C1159 1.350 . S
N1157 S1155 1.610 1_554 S
N1157 C1158 1.351 . S
C1158 C1152 1.422 1_655 S
C1158 N1157 1.351 . S
C1158 C1159 1.434 1_554 S
C1159 C1150 1.429 1_655 S
C1159 N1156 1.350 . S
C1159 C1158 1.434 1_556 S
C1160 C1161 1.369 . S
C1160 C1162 1.418 . S
C1160 H1164 0.930 . S
C1161 C1160 1.369 . S
C1161 C1170 1.429 . S
C1162 C1160 1.418 . S
C1162 C1163 1.363 1_554 S
C1162 H1165 0.929 1_554 S
C1163 C1162 1.363 1_556 S
C1163 C1169 1.428 1_556 S
H1164 C1160 0.930 . S
H1165 C1162 0.929 1_556 S
S1166 N1167 1.613 . S
S1166 N1168 1.610 . S
N1167 S1166 1.613 . S
N1167 C1170 1.350 . S
N1168 S1166 1.610 . S
N1168 C1169 1.351 . S
C1169 C1163 1.428 1_554 S
C1169 N1168 1.351 . S
C1169 C1170 1.434 . S
C1170 C1161 1.429 . S
C1170 N1167 1.350 . S
C1170 C1169 1.434 . S
C1171 C1172 1.369 1_545 S
C1171 C1173 1.419 1_554 S
C1171 H1175 0.930 . S
C1172 C1171 1.369 1_565 S
C1172 C1181 1.429 . S
C1173 C1171 1.419 1_556 S
C1173 C1174 1.363 . S
C1173 H1176 0.929 . S
C1174 C1173 1.363 . S
C1174 C1180 1.428 1_545 S
H1175 C1171 0.930 . S
H1176 C1173 0.929 . S
S1177 N1178 1.613 1_556 S
S1177 N1179 1.610 . S
N1178 S1177 1.613 1_554 S
N1178 C1181 1.350 . S
N1179 S1177 1.610 . S
N1179 C1180 1.351 . S
C1180 C1174 1.428 1_565 S
C1180 N1179 1.351 . S
C1180 C1181 1.434 1_556 S
C1181 C1172 1.429 . S
C1181 N1178 1.350 . S
C1181 C1180 1.434 1_554 S
C1182 C1183 1.369 . S
C1182 C1184 1.419 . S
C1182 H1186 0.930 . S
C1183 C1182 1.369 . S
C1183 C1192 1.429 . S
C1184 C1182 1.419 . S
C1184 C1185 1.363 . S
C1184 H1187 0.929 . S
C1185 C1184 1.363 . S
C1185 C1191 1.428 . S
H1186 C1182 0.930 . S
H1187 C1184 0.929 . S
S1188 N1189 1.613 . S
S1188 N1190 1.610 . S
N1189 S1188 1.613 . S
N1189 C1192 1.350 . S
N1190 S1188 1.610 . S
N1190 C1191 1.351 . S
C1191 C1185 1.428 . S
C1191 N1190 1.351 . S
C1191 C1192 1.434 . S
C1192 C1183 1.429 . S
C1192 N1189 1.350 . S
C1192 C1191 1.434 . S
C1193 C1194 1.369 . S
C1193 C1195 1.419 . S
C1193 H1197 0.930 . S
C1194 C1193 1.369 . S
C1194 C1203 1.429 . S
C1195 C1193 1.419 . S
C1195 C1196 1.363 . S
C1195 H1198 0.929 . S
C1196 C1195 1.363 . S
C1196 C1202 1.428 . S
H1197 C1193 0.930 . S
H1198 C1195 0.929 . S
S1199 N1200 1.613 . S
S1199 N1201 1.610 . S
N1200 S1199 1.613 . S
N1200 C1203 1.350 . S
N1201 S1199 1.610 . S
N1201 C1202 1.351 . S
C1202 C1196 1.428 . S
C1202 N1201 1.351 . S
C1202 C1203 1.434 . S
C1203 C1194 1.429 . S
C1203 N1200 1.350 . S
C1203 C1202 1.434 . S
C1204 C1205 1.369 . S
C1204 C1206 1.419 . S
C1204 H1208 0.930 . S
C1205 C1204 1.369 . S
C1205 C1214 1.429 . S
C1206 C1204 1.419 . S
C1206 C1207 1.363 . S
C1206 H1209 0.929 . S
C1207 C1206 1.363 . S
C1207 C1213 1.428 . S
H1208 C1204 0.930 . S
H1209 C1206 0.929 . S
S1210 N1211 1.613 . S
S1210 N1212 1.610 . S
N1211 S1210 1.613 . S
N1211 C1214 1.350 . S
N1212 S1210 1.610 . S
N1212 C1213 1.351 . S
C1213 C1207 1.428 . S
C1213 N1212 1.351 . S
C1213 C1214 1.434 . S
C1214 C1205 1.429 . S
C1214 N1211 1.350 . S
C1214 C1213 1.434 . S
C1215 C1216 1.369 . S
C1215 C1217 1.419 . S
C1215 H1219 0.930 . S
C1216 C1215 1.369 . S
C1216 C1225 1.429 . S
C1217 C1215 1.419 . S
C1217 C1218 1.363 . S
C1217 H1220 0.929 . S
C1218 C1217 1.363 . S
C1218 C1224 1.428 . S
H1219 C1215 0.930 . S
H1220 C1217 0.929 . S
S1221 N1222 1.613 . S
S1221 N1223 1.610 . S
N1222 S1221 1.613 . S
N1222 C1225 1.350 . S
N1223 S1221 1.610 . S
N1223 C1224 1.351 . S
C1224 C1218 1.428 . S
C1224 N1223 1.351 . S
C1224 C1225 1.434 . S
C1225 C1216 1.429 . S
C1225 N1222 1.350 . S
C1225 C1224 1.434 . S
C1226 C1227 1.369 . S
C1226 C1228 1.419 . S
C1226 H1230 0.930 . S
C1227 C1226 1.369 . S
C1227 C1236 1.429 . S
C1228 C1226 1.419 . S
C1228 C1229 1.363 . S
C1228 H1231 0.929 . S
C1229 C1228 1.363 . S
C1229 C1235 1.428 . S
H1230 C1226 0.930 . S
H1231 C1228 0.929 . S
S1232 N1233 1.613 . S
S1232 N1234 1.610 . S
N1233 S1232 1.613 . S
N1233 C1236 1.350 . S
N1234 S1232 1.610 . S
N1234 C1235 1.351 . S
C1235 C1229 1.428 . S
C1235 N1234 1.351 . S
C1235 C1236 1.434 . S
C1236 C1227 1.429 . S
C1236 N1233 1.350 . S
C1236 C1235 1.434 . S
C1237 C1238 1.369 . S
C1237 C1239 1.419 . S
C1237 H1241 0.930 . S
C1238 C1237 1.369 . S
C1238 C1247 1.429 . S
C1239 C1237 1.419 . S
C1239 C1240 1.363 . S
C1239 H1242 0.929 . S
C1240 C1239 1.363 . S
C1240 C1246 1.428 . S
H1241 C1237 0.930 . S
H1242 C1239 0.929 . S
S1243 N1244 1.613 . S
S1243 N1245 1.610 . S
N1244 S1243 1.613 . S
N1244 C1247 1.350 . S
N1245 S1243 1.610 . S
N1245 C1246 1.351 . S
C1246 C1240 1.428 . S
C1246 N1245 1.351 . S
C1246 C1247 1.434 . S
C1247 C1238 1.429 . S
C1247 N1244 1.350 . S
C1247 C1246 1.434 . S
C1248 C1249 1.369 . S
C1248 C1250 1.419 . S
C1248 H1252 0.930 . S
C1249 C1248 1.369 . S
C1249 C1258 1.429 . S
C1250 C1248 1.419 . S
C1250 C1251 1.363 . S
C1250 H1253 0.929 . S
C1251 C1250 1.363 . S
C1251 C1257 1.428 . S
H1252 C1248 0.930 . S
H1253 C1250 0.929 . S
S1254 N1255 1.613 . S
S1254 N1256 1.610 . S
N1255 S1254 1.613 . S
N1255 C1258 1.350 . S
N1256 S1254 1.610 . S
N1256 C1257 1.351 . S
C1257 C1251 1.428 . S
C1257 N1256 1.351 . S
C1257 C1258 1.434 . S
C1258 C1249 1.429 . S
C1258 N1255 1.350 . S
C1258 C1257 1.434 . S
C1259 C1260 1.369 . S
C1259 C1261 1.419 . S
C1259 H1263 0.930 . S
C1260 C1259 1.369 . S
C1260 C1269 1.429 . S
C1261 C1259 1.419 . S
C1261 C1262 1.363 . S
C1261 H1264 0.929 . S
C1262 C1261 1.363 . S
C1262 C1268 1.428 . S
H1263 C1259 0.930 . S
H1264 C1261 0.929 . S
S1265 N1266 1.613 . S
S1265 N1267 1.610 . S
N1266 S1265 1.613 . S
N1266 C1269 1.350 . S
N1267 S1265 1.610 . S
N1267 C1268 1.351 . S
C1268 C1262 1.428 . S
C1268 N1267 1.351 . S
C1268 C1269 1.434 . S
C1269 C1260 1.429 . S
C1269 N1266 1.350 . S
C1269 C1268 1.434 . S
C1270 C1271 1.369 . S
C1270 C1272 1.419 . S
C1270 H1274 0.930 . S
C1271 C1270 1.369 . S
C1271 C1280 1.429 . S
C1272 C1270 1.419 . S
C1272 C1273 1.363 . S
C1272 H1275 0.929 . S
C1273 C1272 1.363 . S
C1273 C1279 1.428 . S
H1274 C1270 0.930 . S
H1275 C1272 0.929 . S
S1276 N1277 1.613 . S
S1276 N1278 1.610 . S
N1277 S1276 1.613 . S
N1277 C1280 1.350 . S
N1278 S1276 1.610 . S
N1278 C1279 1.351 . S
C1279 C1273 1.428 . S
C1279 N1278 1.351 . S
C1279 C1280 1.434 . S
C1280 C1271 1.429 . S
C1280 N1277 1.350 . S
C1280 C1279 1.434 . S
C1281 C1282 1.369 . S
C1281 C1283 1.419 . S
C1281 H1285 0.930 . S
C1282 C1281 1.369 . S
C1282 C1291 1.429 . S
C1283 C1281 1.419 . S
C1283 C1284 1.363 . S
C1283 H1286 0.929 . S
C1284 C1283 1.363 . S
C1284 C1290 1.428 . S
H1285 C1281 0.930 . S
H1286 C1283 0.929 . S
S1287 N1288 1.613 . S
S1287 N1289 1.610 . S
N1288 S1287 1.613 . S
N1288 C1291 1.350 . S
N1289 S1287 1.610 . S
N1289 C1290 1.351 . S
C1290 C1284 1.428 . S
C1290 N1289 1.351 . S
C1290 C1291 1.434 . S
C1291 C1282 1.429 . S
C1291 N1288 1.350 . S
C1291 C1290 1.434 . S
C1292 C1293 1.369 . S
C1292 C1294 1.419 . S
C1292 H1296 0.930 . S
C1293 C1292 1.369 . S
C1293 C1302 1.429 . S
C1294 C1292 1.419 . S
C1294 C1295 1.363 . S
C1294 H1297 0.929 . S
C1295 C1294 1.363 . S
C1295 C1301 1.428 . S
H1296 C1292 0.930 . S
H1297 C1294 0.929 . S
S1298 N1299 1.613 . S
S1298 N1300 1.610 . S
N1299 S1298 1.613 . S
N1299 C1302 1.350 . S
N1300 S1298 1.610 . S
N1300 C1301 1.351 . S
C1301 C1295 1.428 . S
C1301 N1300 1.351 . S
C1301 C1302 1.434 . S
C1302 C1293 1.429 . S
C1302 N1299 1.350 . S
C1302 C1301 1.434 . S
C1303 C1304 1.369 . S
C1303 C1305 1.419 . S
C1303 H1307 0.930 . S
C1304 C1303 1.369 . S
C1304 C1313 1.429 . S
C1305 C1303 1.419 . S
C1305 C1306 1.363 . S
C1305 H1308 0.929 . S
C1306 C1305 1.363 . S
C1306 C1312 1.428 . S
H1307 C1303 0.930 . S
H1308 C1305 0.929 . S
S1309 N1310 1.613 . S
S1309 N1311 1.610 . S
N1310 S1309 1.613 . S
N1310 C1313 1.350 . S
N1311 S1309 1.610 . S
N1311 C1312 1.351 . S
C1312 C1306 1.428 . S
C1312 N1311 1.351 . S
C1312 C1313 1.434 . S
C1313 C1304 1.429 . S
C1313 N1310 1.350 . S
C1313 C1312 1.434 . S
C721 C539 2.505 . S
C723 C19 2.518 . S
C732 C58 2.041 . S
C734 C578 2.032 . S
C743 C99 2.283 . S
C745 C498 2.319 . S
C754 C98 1.882 . S
C756 C298 1.881 . S
C765 C338 2.198 . S
C767 C18 2.188 . S
C776 C59 2.359 . S
C778 C258 2.405 . S
C787 C130 2.277 . S
C789 C409 2.298 . S
C798 C169 1.747 . S
C800 C449 1.742 . S
C809 C369 2.009 . S
C811 C210 1.963 . S
C820 C649 2.047 . S
C822 C209 2.055 . S
C831 C129 2.312 . S
C833 C690 2.288 . S
C842 C610 2.537 . S
C844 C170 2.502 . S
C853 C339 2.161 . S
C855 C538 2.205 . S
C864 C259 2.401 . S
C866 C579 2.392 . S
C875 C299 2.661 . S
C877 C499 2.690 . S
C886 C370 2.802 . S
C888 C650 2.787 . S
C897 C689 2.342 . S
C899 C410 2.320 . S
C908 C609 2.629 . S
C910 C450 2.593 . S
C919 C9 1.443 . S
C921 C178 1.444 . S
C930 C219 1.896 . S
C932 C50 1.898 . S
C941 C139 1.679 . S
C943 C89 1.527 . S
C952 C179 1.916 . S
C954 C90 1.969 . S
C963 C218 1.687 . S
C965 C10 1.730 . S
C974 C138 1.535 . S
C976 C49 1.593 . S
C985 C419 1.982 . S
C987 C250 1.969 . S
C996 C459 2.053 . S
C998 C290 2.041 . S
C1007 C379 2.078 . S
C1009 C330 1.964 . S
C1018 C418 1.509 . S
C1020 C329 1.513 . S
C1029 C458 1.448 . S
C1031 C249 1.584 . S
C1040 C378 1.470 . S
C1042 C289 1.480 . S
C1051 C658 1.590 . S
C1053 C489 1.531 . S
C1062 C699 1.965 . S
C1064 C530 1.914 . S
C1073 C569 1.683 . S
C1075 C619 1.723 . S
C1084 C570 2.085 . S
C1086 C659 2.088 . S
C1095 C490 1.835 . S
C1097 C698 1.678 . S
C1106 C618 1.554 . S
C1108 C529 1.554 . S
C1117 C15 1.399 . S
C1119 C6 1.382 . S
C1128 C46 1.533 . S
C1130 C55 1.522 . S
C1139 C95 1.393 . S
C1141 C86 1.392 . S
C1150 C126 1.491 . S
C1152 C135 1.498 1_455 S
C1161 C166 1.358 . S
C1163 C175 1.369 . S
C1172 C215 1.598 . S
C1174 C206 1.592 . S
C1183 C255 1.773 . S
C1185 C246 1.783 . S
C1194 C286 1.330 . S
C1196 C295 1.339 . S
C1205 C335 1.785 . S
C1207 C326 1.779 . S
C1216 C366 1.337 . S
C1218 C375 1.336 . S
C1227 C406 1.722 . S
C1229 C415 1.714 . S
C1238 C446 1.350 . S
C1240 C455 1.361 . S
C1249 C486 1.371 . S
C1251 C495 1.362 . S
C1260 C526 1.498 . S
C1262 C535 1.495 . S
C1271 C575 1.392 . S
C1273 C566 1.397 . S
C1282 C615 1.557 . S
C1284 C606 1.555 . S
C1293 C646 1.358 . S
C1295 C655 1.357 . S
C1304 C686 1.495 . S
C1306 C695 1.487 . S
