# Generated by pormake.
# Topology umu, (4)-cn, num edge types: 1
# Building blocks:
#     Node 0, Type 0, BuildingBlock: NAHDIM_clean_sbu_0, # of connection points: 4
#     Node 1, Type 0, BuildingBlock: NAHDIM_clean_sbu_0, # of connection points: 4
#     Node 2, Type 0, BuildingBlock: NAHDIM_clean_sbu_0, # of connection points: 4
#     Node 3, Type 0, BuildingBlock: NAHDIM_clean_sbu_0, # of connection points: 4
#     Node 4, Type 0, BuildingBlock: NAHDIM_clean_sbu_0, # of connection points: 4
#     Node 5, Type 0, BuildingBlock: NAHDIM_clean_sbu_0, # of connection points: 4
#     Node 6, Type 0, BuildingBlock: NAHDIM_clean_sbu_0, # of connection points: 4
#     Node 7, Type 0, BuildingBlock: NAHDIM_clean_sbu_0, # of connection points: 4
#     Node 8, Type 0, BuildingBlock: NAHDIM_clean_sbu_0, # of connection points: 4
#     Node 9, Type 0, BuildingBlock: NAHDIM_clean_sbu_0, # of connection points: 4
#     Node 10, Type 0, BuildingBlock: NAHDIM_clean_sbu_0, # of connection points: 4
#     Node 11, Type 0, BuildingBlock: NAHDIM_clean_sbu_0, # of connection points: 4
#     Node 12, Type 0, BuildingBlock: NAHDIM_clean_sbu_0, # of connection points: 4
#     Node 13, Type 0, BuildingBlock: NAHDIM_clean_sbu_0, # of connection points: 4
#     Node 14, Type 0, BuildingBlock: NAHDIM_clean_sbu_0, # of connection points: 4
#     Node 15, Type 0, BuildingBlock: NAHDIM_clean_sbu_0, # of connection points: 4
#     Node 16, Type 0, BuildingBlock: NAHDIM_clean_sbu_0, # of connection points: 4
#     Node 17, Type 0, BuildingBlock: NAHDIM_clean_sbu_0, # of connection points: 4
#     Node 18, Type 0, BuildingBlock: NAHDIM_clean_sbu_0, # of connection points: 4
#     Node 19, Type 0, BuildingBlock: NAHDIM_clean_sbu_0, # of connection points: 4
#     Node 20, Type 0, BuildingBlock: NAHDIM_clean_sbu_0, # of connection points: 4
#     Node 21, Type 0, BuildingBlock: NAHDIM_clean_sbu_0, # of connection points: 4
#     Node 22, Type 0, BuildingBlock: NAHDIM_clean_sbu_0, # of connection points: 4
#     Node 23, Type 0, BuildingBlock: NAHDIM_clean_sbu_0, # of connection points: 4
#     Node 24, Type 0, BuildingBlock: NAHDIM_clean_sbu_0, # of connection points: 4
#     Node 25, Type 0, BuildingBlock: NAHDIM_clean_sbu_0, # of connection points: 4
#     Node 26, Type 0, BuildingBlock: NAHDIM_clean_sbu_0, # of connection points: 4
#     Node 27, Type 0, BuildingBlock: NAHDIM_clean_sbu_0, # of connection points: 4
#     Node 28, Type 0, BuildingBlock: NAHDIM_clean_sbu_0, # of connection points: 4
#     Node 29, Type 0, BuildingBlock: NAHDIM_clean_sbu_0, # of connection points: 4
#     Node 30, Type 0, BuildingBlock: NAHDIM_clean_sbu_0, # of connection points: 4
#     Node 31, Type 0, BuildingBlock: NAHDIM_clean_sbu_0, # of connection points: 4
#     Edge 32, Type (0, 0), BuildingBlock: AJUNOK_clean_linker_0, # of connection points: 2
#     Edge 33, Type (0, 0), BuildingBlock: AJUNOK_clean_linker_0, # of connection points: 2
#     Edge 34, Type (0, 0), BuildingBlock: AJUNOK_clean_linker_0, # of connection points: 2
#     Edge 35, Type (0, 0), BuildingBlock: AJUNOK_clean_linker_0, # of connection points: 2
#     Edge 36, Type (0, 0), BuildingBlock: AJUNOK_clean_linker_0, # of connection points: 2
#     Edge 37, Type (0, 0), BuildingBlock: AJUNOK_clean_linker_0, # of connection points: 2
#     Edge 38, Type (0, 0), BuildingBlock: AJUNOK_clean_linker_0, # of connection points: 2
#     Edge 39, Type (0, 0), BuildingBlock: AJUNOK_clean_linker_0, # of connection points: 2
#     Edge 40, Type (0, 0), BuildingBlock: AJUNOK_clean_linker_0, # of connection points: 2
#     Edge 41, Type (0, 0), BuildingBlock: AJUNOK_clean_linker_0, # of connection points: 2
#     Edge 42, Type (0, 0), BuildingBlock: AJUNOK_clean_linker_0, # of connection points: 2
#     Edge 43, Type (0, 0), BuildingBlock: AJUNOK_clean_linker_0, # of connection points: 2
#     Edge 44, Type (0, 0), BuildingBlock: AJUNOK_clean_linker_0, # of connection points: 2
#     Edge 45, Type (0, 0), BuildingBlock: AJUNOK_clean_linker_0, # of connection points: 2
#     Edge 46, Type (0, 0), BuildingBlock: AJUNOK_clean_linker_0, # of connection points: 2
#     Edge 47, Type (0, 0), BuildingBlock: AJUNOK_clean_linker_0, # of connection points: 2
#     Edge 48, Type (0, 0), BuildingBlock: AJUNOK_clean_linker_0, # of connection points: 2
#     Edge 49, Type (0, 0), BuildingBlock: AJUNOK_clean_linker_0, # of connection points: 2
#     Edge 50, Type (0, 0), BuildingBlock: AJUNOK_clean_linker_0, # of connection points: 2
#     Edge 51, Type (0, 0), BuildingBlock: AJUNOK_clean_linker_0, # of connection points: 2
#     Edge 52, Type (0, 0), BuildingBlock: AJUNOK_clean_linker_0, # of connection points: 2
#     Edge 53, Type (0, 0), BuildingBlock: AJUNOK_clean_linker_0, # of connection points: 2
#     Edge 54, Type (0, 0), BuildingBlock: AJUNOK_clean_linker_0, # of connection points: 2
#     Edge 55, Type (0, 0), BuildingBlock: AJUNOK_clean_linker_0, # of connection points: 2
#     Edge 56, Type (0, 0), BuildingBlock: AJUNOK_clean_linker_0, # of connection points: 2
#     Edge 57, Type (0, 0), BuildingBlock: AJUNOK_clean_linker_0, # of connection points: 2
#     Edge 58, Type (0, 0), BuildingBlock: AJUNOK_clean_linker_0, # of connection points: 2
#     Edge 59, Type (0, 0), BuildingBlock: AJUNOK_clean_linker_0, # of connection points: 2
#     Edge 60, Type (0, 0), BuildingBlock: AJUNOK_clean_linker_0, # of connection points: 2
#     Edge 61, Type (0, 0), BuildingBlock: AJUNOK_clean_linker_0, # of connection points: 2
#     Edge 62, Type (0, 0), BuildingBlock: AJUNOK_clean_linker_0, # of connection points: 2
#     Edge 63, Type (0, 0), BuildingBlock: AJUNOK_clean_linker_0, # of connection points: 2
#     Edge 64, Type (0, 0), BuildingBlock: AJUNOK_clean_linker_0, # of connection points: 2
#     Edge 65, Type (0, 0), BuildingBlock: AJUNOK_clean_linker_0, # of connection points: 2
#     Edge 66, Type (0, 0), BuildingBlock: AJUNOK_clean_linker_0, # of connection points: 2
#     Edge 67, Type (0, 0), BuildingBlock: AJUNOK_clean_linker_0, # of connection points: 2
#     Edge 68, Type (0, 0), BuildingBlock: AJUNOK_clean_linker_0, # of connection points: 2
#     Edge 69, Type (0, 0), BuildingBlock: AJUNOK_clean_linker_0, # of connection points: 2
#     Edge 70, Type (0, 0), BuildingBlock: AJUNOK_clean_linker_0, # of connection points: 2
#     Edge 71, Type (0, 0), BuildingBlock: AJUNOK_clean_linker_0, # of connection points: 2
#     Edge 72, Type (0, 0), BuildingBlock: AJUNOK_clean_linker_0, # of connection points: 2
#     Edge 73, Type (0, 0), BuildingBlock: AJUNOK_clean_linker_0, # of connection points: 2
#     Edge 74, Type (0, 0), BuildingBlock: AJUNOK_clean_linker_0, # of connection points: 2
#     Edge 75, Type (0, 0), BuildingBlock: AJUNOK_clean_linker_0, # of connection points: 2
#     Edge 76, Type (0, 0), BuildingBlock: AJUNOK_clean_linker_0, # of connection points: 2
#     Edge 77, Type (0, 0), BuildingBlock: AJUNOK_clean_linker_0, # of connection points: 2
#     Edge 78, Type (0, 0), BuildingBlock: AJUNOK_clean_linker_0, # of connection points: 2
#     Edge 79, Type (0, 0), BuildingBlock: AJUNOK_clean_linker_0, # of connection points: 2
#     Edge 80, Type (0, 0), BuildingBlock: AJUNOK_clean_linker_0, # of connection points: 2
#     Edge 81, Type (0, 0), BuildingBlock: AJUNOK_clean_linker_0, # of connection points: 2
#     Edge 82, Type (0, 0), BuildingBlock: AJUNOK_clean_linker_0, # of connection points: 2
#     Edge 83, Type (0, 0), BuildingBlock: AJUNOK_clean_linker_0, # of connection points: 2
#     Edge 84, Type (0, 0), BuildingBlock: AJUNOK_clean_linker_0, # of connection points: 2
#     Edge 85, Type (0, 0), BuildingBlock: AJUNOK_clean_linker_0, # of connection points: 2
#     Edge 86, Type (0, 0), BuildingBlock: AJUNOK_clean_linker_0, # of connection points: 2
#     Edge 87, Type (0, 0), BuildingBlock: AJUNOK_clean_linker_0, # of connection points: 2
#     Edge 88, Type (0, 0), BuildingBlock: AJUNOK_clean_linker_0, # of connection points: 2
#     Edge 89, Type (0, 0), BuildingBlock: AJUNOK_clean_linker_0, # of connection points: 2
#     Edge 90, Type (0, 0), BuildingBlock: AJUNOK_clean_linker_0, # of connection points: 2
#     Edge 91, Type (0, 0), BuildingBlock: AJUNOK_clean_linker_0, # of connection points: 2
#     Edge 92, Type (0, 0), BuildingBlock: AJUNOK_clean_linker_0, # of connection points: 2
#     Edge 93, Type (0, 0), BuildingBlock: AJUNOK_clean_linker_0, # of connection points: 2
#     Edge 94, Type (0, 0), BuildingBlock: AJUNOK_clean_linker_0, # of connection points: 2
#     Edge 95, Type (0, 0), BuildingBlock: AJUNOK_clean_linker_0, # of connection points: 2
# Relax obj value: 0.139
# Max RMSD: 0.103
# Mean RMSD: 0.103
data_MOF--net-umu--node1-NAHDIM_clean_sbu_0--edge1-AJUNOK_clean_linker_0
_symmetry_space_group_name_H-M    P1
_symmetry_Int_Tables_number       1
_symmetry_cell_setting            triclinic
loop_
_symmetry_equiv_pos_as_xyz
'x, y, z'
_cell_length_a     65.1111
_cell_length_b     65.09007
_cell_length_c     17.2073
_cell_angle_alpha  90.006008
_cell_angle_beta   89.981112
_cell_angle_gamma 90.011536
loop_
_atom_site_label
_atom_site_type_symbol
_atom_site_fract_x
_atom_site_fract_y
_atom_site_fract_z
_atom_type_partial_charge
C0 C 0.17831 0.12996 0.99034 0.0
O1 O 0.19771 0.12475 0.98295 0.0
O2 O 0.21629 0.15802 0.12645 0.0
Zn3 Zn 0.19818 0.16648 0.03568 0.0
O4 O 0.21477 0.16441 0.93759 0.0
C5 C 0.18808 0.20538 0.1121 0.0
O6 O 0.19185 0.19516 0.17636 0.0
O7 O 0.17405 0.14754 0.01836 0.0
C8 C 0.2229 0.17958 0.90289 0.0
O9 O 0.22136 0.19805 0.93313 0.0
C10 C 0.23298 0.16799 0.13416 0.0
O11 O 0.23708 0.1826 0.0839 0.0
O12 O 0.18912 0.19602 0.04741 0.0
C13 C 0.1155 0.93072 0.25669 0.0
O14 O 0.11808 0.9507 0.25228 0.0
O15 O 0.08483 0.9616 0.4105 0.0
Zn16 Zn 0.07766 0.94561 0.31217 0.0
O17 O 0.07606 0.96396 0.21834 0.0
C18 C 0.04 0.93252 0.38905 0.0
O19 O 0.05015 0.93719 0.45258 0.0
O20 O 0.0988 0.92391 0.28528 0.0
C21 C 0.0678 0.98161 0.2162 0.0
O22 O 0.05977 0.9895 0.27956 0.0
C23 C 0.09389 0.97892 0.41349 0.0
O24 O 0.10078 0.98722 0.34901 0.0
O25 O 0.04916 0.93378 0.32393 0.0
C26 C 0.31873 0.87073 0.49816 0.0
O27 O 0.29885 0.87296 0.48863 0.0
O28 O 0.28914 0.83914 0.66282 0.0
Zn29 Zn 0.3042 0.83308 0.56161 0.0
O30 O 0.28461 0.8309 0.47154 0.0
C31 C 0.31905 0.79514 0.63258 0.0
O32 O 0.3143 0.80434 0.69812 0.0
O33 O 0.32529 0.85466 0.53216 0.0
C34 C 0.26542 0.8276 0.4753 0.0
O35 O 0.25646 0.82536 0.54313 0.0
C36 C 0.27465 0.85194 0.67389 0.0
O37 O 0.2689 0.86393 0.61649 0.0
O38 O 0.31704 0.80495 0.56915 0.0
C39 C 0.37751 0.0724 0.73578 0.0
O40 O 0.37314 0.0527 0.73463 0.0
O41 O 0.40491 0.04073 0.89421 0.0
Zn42 Zn 0.4141 0.05531 0.79587 0.0
O43 O 0.41415 0.03484 0.70874 0.0
C44 C 0.45285 0.06635 0.87151 0.0
O45 O 0.44296 0.06197 0.93597 0.0
O46 O 0.39474 0.07803 0.76344 0.0
C47 C 0.42446 0.03814 0.64734 0.0
O48 O 0.4353 0.05511 0.6419 0.0
C49 C 0.41099 0.02233 0.90426 0.0
O50 O 0.42255 0.01385 0.85052 0.0
O51 O 0.4433 0.06537 0.8072 0.0
C52 C 0.17536 0.87503 0.11696 0.0
O53 O 0.1951 0.87907 0.1212 0.0
O54 O 0.20979 0.84769 0.96998 0.0
Zn55 Zn 0.19318 0.83836 0.06437 0.0
O56 O 0.21048 0.83836 0.16131 0.0
C57 C 0.1843 0.79967 0.98494 0.0
O58 O 0.19032 0.80972 0.92277 0.0
O59 O 0.16981 0.8578 0.089 0.0
C60 C 0.22071 0.82298 0.18498 0.0
O61 O 0.22151 0.80622 0.1426 0.0
C62 C 0.22857 0.84255 0.96291 0.0
O63 O 0.23719 0.83194 0.01897 0.0
O64 O 0.18336 0.80916 0.04943 0.0
C65 C 0.3759 0.9287 0.35568 0.0
O66 O 0.37224 0.94854 0.35733 0.0
O67 O 0.40764 0.95881 0.19752 0.0
Zn68 Zn 0.41367 0.94452 0.29988 0.0
O69 O 0.41303 0.96527 0.3858 0.0
C70 C 0.45233 0.93089 0.23308 0.0
O71 O 0.44257 0.93369 0.16712 0.0
O72 O 0.39304 0.92252 0.32887 0.0
C73 C 0.42636 0.9794 0.39208 0.0
O74 O 0.44099 0.98075 0.33968 0.0
C75 C 0.39966 0.97662 0.19283 0.0
O76 O 0.39314 0.98558 0.2566 0.0
O77 O 0.44266 0.93354 0.2965 0.0
C78 C 0.32246 0.13264 0.59525 0.0
O79 O 0.30248 0.1307 0.60235 0.0
O80 O 0.29545 0.16801 0.43152 0.0
Zn81 Zn 0.30975 0.1717 0.53559 0.0
O82 O 0.28897 0.17445 0.62156 0.0
C83 C 0.31334 0.21374 0.50434 0.0
O84 O 0.29553 0.20921 0.4728 0.0
O85 O 0.3296 0.14894 0.5646 0.0
C86 C 0.27094 0.16701 0.62269 0.0
O87 O 0.26431 0.15628 0.56322 0.0
C88 C 0.28596 0.15284 0.40181 0.0
O89 O 0.28517 0.13533 0.43957 0.0
O90 O 0.32386 0.19933 0.5344 0.0
C91 C 0.11721 0.07379 0.86238 0.0
O92 O 0.12131 0.05403 0.86493 0.0
O93 O 0.08705 0.04114 0.71394 0.0
Zn94 Zn 0.0797 0.05674 0.81307 0.0
O95 O 0.07981 0.03888 0.90835 0.0
C96 C 0.04161 0.07053 0.74036 0.0
O97 O 0.05184 0.06797 0.67528 0.0
O98 O 0.09983 0.07949 0.83656 0.0
C99 C 0.06722 0.02436 0.92074 0.0
O100 O 0.05406 0.01909 0.86643 0.0
C101 C 0.09171 0.02217 0.71068 0.0
O102 O 0.09295 0.01159 0.77549 0.0
O103 O 0.05077 0.06749 0.80456 0.0
C104 C 0.82035 0.87081 0.10485 0.0
O105 O 0.80043 0.87392 0.10781 0.0
O106 O 0.78919 0.83908 0.95579 0.0
Zn107 Zn 0.8051 0.83247 0.0547 0.0
O108 O 0.7867 0.83126 0.14841 0.0
C109 C 0.81967 0.79491 0.98076 0.0
O110 O 0.81628 0.8051 0.91614 0.0
O111 O 0.82686 0.85364 0.0796 0.0
C112 C 0.76901 0.82311 0.15001 0.0
O113 O 0.76119 0.81517 0.08637 0.0
C114 C 0.77214 0.8486 0.95198 0.0
O115 O 0.76409 0.85621 0.01576 0.0
O116 O 0.81699 0.80399 0.04538 0.0
C117 C 0.87708 0.07201 0.87286 0.0
O118 O 0.87387 0.05209 0.8741 0.0
O119 O 0.90824 0.04276 0.71046 0.0
Zn120 Zn 0.91454 0.05689 0.81292 0.0
O121 O 0.91426 0.03599 0.89824 0.0
C122 C 0.95235 0.07175 0.74364 0.0
O123 O 0.94173 0.07018 0.67904 0.0
O124 O 0.89385 0.07864 0.8442 0.0
C125 C 0.92728 0.02157 0.90407 0.0
O126 O 0.94173 0.01986 0.85116 0.0
C127 C 0.90007 0.02504 0.70554 0.0
O128 O 0.89349 0.01607 0.76922 0.0
O129 O 0.94347 0.06799 0.80793 0.0
C130 C 0.67708 0.12915 0.61679 0.0
O131 O 0.69689 0.12657 0.62763 0.0
O132 O 0.71325 0.1612 0.48509 0.0
Zn133 Zn 0.69267 0.1677 0.57057 0.0
O134 O 0.70766 0.16989 0.6721 0.0
C135 C 0.67997 0.2044 0.48616 0.0
O136 O 0.68533 0.19376 0.42458 0.0
O137 O 0.6709 0.14595 0.58708 0.0
C138 C 0.7268 0.17332 0.67668 0.0
O139 O 0.7376 0.17519 0.61258 0.0
C140 C 0.71034 0.1503 0.4248 0.0
O141 O 0.69242 0.14138 0.415 0.0
O142 O 0.68073 0.19585 0.55249 0.0
C143 C 0.61758 0.92586 0.35495 0.0
O144 O 0.62203 0.94554 0.3571 0.0
O145 O 0.58838 0.95866 0.20205 0.0
Zn146 Zn 0.58067 0.94342 0.30165 0.0
O147 O 0.58098 0.96151 0.39622 0.0
C148 C 0.54159 0.93162 0.23078 0.0
O149 O 0.55101 0.93565 0.16499 0.0
O150 O 0.60031 0.92039 0.32726 0.0
C151 C 0.56904 0.97661 0.4077 0.0
O152 O 0.55637 0.98245 0.35258 0.0
C153 C 0.59389 0.97741 0.19867 0.0
O154 O 0.59586 0.98787 0.26349 0.0
O155 O 0.55156 0.93308 0.29398 0.0
C156 C 0.81937 0.1284 0.02107 0.0
O157 O 0.79954 0.12543 0.01281 0.0
O158 O 0.78596 0.1599 0.17061 0.0
Zn159 Zn 0.80336 0.1662 0.07495 0.0
O160 O 0.78564 0.16664 0.97993 0.0
C161 C 0.8155 0.20518 0.14569 0.0
O162 O 0.80972 0.19626 0.21056 0.0
O163 O 0.82547 0.14509 0.05204 0.0
C164 C 0.76862 0.17603 0.97473 0.0
O165 O 0.76143 0.18599 0.03532 0.0
C166 C 0.7695 0.14934 0.16898 0.0
O167 O 0.76392 0.14071 0.10328 0.0
O168 O 0.815 0.1949 0.08287 0.0
C169 C 0.61869 0.07039 0.74684 0.0
O170 O 0.62191 0.05052 0.74118 0.0
O171 O 0.58799 0.0384 0.89933 0.0
Zn172 Zn 0.58089 0.05446 0.80102 0.0
O173 O 0.57977 0.03626 0.70677 0.0
C174 C 0.5421 0.06577 0.87441 0.0
O175 O 0.55131 0.05964 0.93826 0.0
O176 O 0.60174 0.07655 0.77547 0.0
C177 C 0.57046 0.01916 0.70343 0.0
O178 O 0.56126 0.01187 0.76554 0.0
C179 C 0.59637 0.02074 0.90166 0.0
O180 O 0.60259 0.01219 0.83666 0.0
O181 O 0.55219 0.06595 0.81115 0.0
C182 C 0.67568 0.86941 0.49988 0.0
O183 O 0.69526 0.87426 0.49658 0.0
O184 O 0.70958 0.84164 0.65274 0.0
Zn185 Zn 0.69419 0.8331 0.55452 0.0
O186 O 0.71199 0.83352 0.45911 0.0
C187 C 0.68514 0.79363 0.62786 0.0
O188 O 0.69107 0.80293 0.69178 0.0
O189 O 0.67067 0.85214 0.52883 0.0
C190 C 0.72616 0.82066 0.445 0.0
O191 O 0.73111 0.80689 0.49755 0.0
C192 C 0.72876 0.84535 0.65541 0.0
O193 O 0.73945 0.84494 0.59071 0.0
O194 O 0.68447 0.8038 0.56487 0.0
C195 C 0.87667 0.93001 0.24466 0.0
O196 O 0.87305 0.94984 0.24143 0.0
O197 O 0.90409 0.961 0.40631 0.0
Zn198 Zn 0.91319 0.94619 0.30838 0.0
O199 O 0.91403 0.96665 0.2213 0.0
C200 C 0.95079 0.93311 0.38688 0.0
O201 O 0.94011 0.9363 0.45051 0.0
O202 O 0.89339 0.92392 0.27517 0.0
C203 C 0.92434 0.96312 0.16012 0.0
O204 O 0.93483 0.94593 0.1549 0.0
C205 C 0.911 0.97907 0.4173 0.0
O206 O 0.92328 0.98704 0.36472 0.0
O207 O 0.94208 0.93549 0.32139 0.0
C208 C 0.67767 0.62987 0.48063 0.0
O209 O 0.69729 0.62521 0.47744 0.0
O210 O 0.71006 0.65616 0.64345 0.0
Zn211 Zn 0.69539 0.66565 0.54581 0.0
O212 O 0.71575 0.66593 0.45842 0.0
C213 C 0.68486 0.70432 0.62315 0.0
O214 O 0.68933 0.6943 0.68721 0.0
O215 O 0.67241 0.64672 0.5124 0.0
C216 C 0.71194 0.6758 0.39644 0.0
O217 O 0.69455 0.68593 0.39077 0.0
C218 C 0.72823 0.66284 0.65376 0.0
O219 O 0.73623 0.67498 0.60078 0.0
O220 O 0.68561 0.69487 0.55856 0.0
C221 C 0.62472 0.42825 0.73465 0.0
O222 O 0.62811 0.44809 0.72933 0.0
O223 O 0.59383 0.46063 0.88361 0.0
Zn224 Zn 0.58678 0.44424 0.78621 0.0
O225 O 0.58534 0.46204 0.69071 0.0
C226 C 0.55026 0.4293 0.86549 0.0
O227 O 0.56134 0.43234 0.92821 0.0
O228 O 0.60762 0.42217 0.76212 0.0
C229 C 0.57528 0.4787 0.68611 0.0
O230 O 0.56546 0.48566 0.74738 0.0
C231 C 0.60143 0.47865 0.88512 0.0
O232 O 0.60678 0.48746 0.81954 0.0
O233 O 0.55841 0.43238 0.79936 0.0
C234 C 0.82375 0.36778 0.97845 0.0
O235 O 0.80389 0.37132 0.97769 0.0
O236 O 0.79258 0.34105 0.13565 0.0
Zn237 Zn 0.80753 0.33121 0.03927 0.0
O238 O 0.78721 0.33046 0.95165 0.0
C239 C 0.8193 0.29425 0.12348 0.0
O240 O 0.81656 0.30602 0.18458 0.0
O241 O 0.83006 0.35079 0.00619 0.0
C242 C 0.79046 0.31995 0.89073 0.0
O243 O 0.80737 0.309 0.88575 0.0
C244 C 0.77464 0.33392 0.14723 0.0
O245 O 0.76691 0.32113 0.09591 0.0
O246 O 0.81742 0.30209 0.05614 0.0
C247 C 0.88046 0.57276 0.2482 0.0
O248 O 0.87567 0.55316 0.24575 0.0
O249 O 0.90993 0.53985 0.40137 0.0
Zn250 Zn 0.91748 0.55486 0.30123 0.0
O251 O 0.91737 0.53632 0.20776 0.0
C252 C 0.95633 0.56691 0.37287 0.0
O253 O 0.94676 0.56289 0.43834 0.0
O254 O 0.89788 0.5779 0.27533 0.0
C255 C 0.92813 0.52015 0.20142 0.0
O256 O 0.93951 0.51406 0.26007 0.0
C257 C 0.90298 0.5216 0.40561 0.0
O258 O 0.8991 0.51149 0.34122 0.0
O259 O 0.94655 0.56532 0.30927 0.0
C260 C 0.68205 0.36944 0.59859 0.0
O261 O 0.70197 0.37251 0.60161 0.0
O262 O 0.7112 0.33686 0.44066 0.0
Zn263 Zn 0.69691 0.33128 0.54312 0.0
O264 O 0.7177 0.33153 0.62893 0.0
C265 C 0.68115 0.2935 0.4762 0.0
O266 O 0.68326 0.30365 0.41073 0.0
O267 O 0.67549 0.3525 0.57121 0.0
C268 C 0.73203 0.3184 0.63434 0.0
O269 O 0.73361 0.30403 0.58099 0.0
C270 C 0.72876 0.34532 0.43519 0.0
O271 O 0.73754 0.35248 0.49832 0.0
O272 O 0.68505 0.30265 0.53983 0.0
C273 C 0.8817 0.42655 0.84509 0.0
O274 O 0.87784 0.44634 0.84856 0.0
O275 O 0.91164 0.46034 0.70288 0.0
Zn276 Zn 0.91934 0.44381 0.79936 0.0
O277 O 0.91948 0.46104 0.89645 0.0
C278 C 0.95776 0.43305 0.72272 0.0
O279 O 0.94755 0.43774 0.65936 0.0
O280 O 0.89924 0.42079 0.82091 0.0
C281 C 0.92905 0.47789 0.90472 0.0
O282 O 0.9389 0.48592 0.84543 0.0
C283 C 0.90359 0.47816 0.70225 0.0
O284 O 0.8983 0.48674 0.76835 0.0
O285 O 0.94844 0.43351 0.78765 0.0
C286 C 0.82302 0.63062 0.10723 0.0
O287 O 0.80336 0.62614 0.11039 0.0
O288 O 0.79179 0.66126 0.94665 0.0
Zn289 Zn 0.80583 0.66763 0.04904 0.0
O290 O 0.78513 0.66651 0.135 0.0
C291 C 0.82066 0.70567 0.98139 0.0
O292 O 0.81997 0.69499 0.91669 0.0
O293 O 0.82842 0.64774 0.07794 0.0
C294 C 0.77028 0.67906 0.14004 0.0
O295 O 0.76811 0.69322 0.0862 0.0
C296 C 0.77438 0.65246 0.94162 0.0
O297 O 0.76575 0.64531 0.00509 0.0
O298 O 0.81623 0.6968 0.04506 0.0
C299 C 0.61972 0.57328 0.33522 0.0
O300 O 0.62459 0.55369 0.33525 0.0
O301 O 0.59121 0.54006 0.18545 0.0
Zn302 Zn 0.58284 0.55516 0.28442 0.0
O303 O 0.58326 0.53715 0.3794 0.0
C304 C 0.5431 0.5638 0.21262 0.0
O305 O 0.5521 0.5571 0.14914 0.0
O306 O 0.60211 0.57851 0.31013 0.0
C307 C 0.57295 0.5208 0.38912 0.0
O308 O 0.56183 0.51348 0.33179 0.0
C309 C 0.59839 0.52189 0.182 0.0
O310 O 0.60181 0.5118 0.24681 0.0
O311 O 0.55354 0.56507 0.27487 0.0
C312 C 0.3256 0.3781 0.59429 0.0
O313 O 0.30602 0.38287 0.59827 0.0
O314 O 0.28951 0.35207 0.45292 0.0
Zn315 Zn 0.30654 0.34196 0.5446 0.0
O316 O 0.2904 0.34043 0.64437 0.0
C317 C 0.32459 0.30077 0.56072 0.0
O318 O 0.33114 0.30716 0.62874 0.0
O319 O 0.33057 0.36053 0.56798 0.0
C320 C 0.27643 0.32734 0.65837 0.0
O321 O 0.27085 0.31434 0.60391 0.0
C322 C 0.27014 0.3547 0.45465 0.0
O323 O 0.26048 0.35305 0.52132 0.0
O324 O 0.31506 0.31322 0.51681 0.0
C325 C 0.37847 0.57229 0.35566 0.0
O326 O 0.37498 0.55245 0.36 0.0
O327 O 0.4063 0.53832 0.21047 0.0
Zn328 Zn 0.41552 0.55547 0.30318 0.0
O329 O 0.41614 0.53842 0.40055 0.0
C330 C 0.45384 0.5647 0.22199 0.0
O331 O 0.44382 0.5581 0.16061 0.0
O332 O 0.39553 0.57832 0.32762 0.0
C333 C 0.43197 0.52917 0.42573 0.0
O334 O 0.44896 0.52925 0.38452 0.0
C335 C 0.41274 0.51996 0.20313 0.0
O336 O 0.42464 0.51234 0.25756 0.0
O337 O 0.44443 0.56589 0.28658 0.0
C338 C 0.17725 0.63339 0.09763 0.0
O339 O 0.19687 0.62864 0.09732 0.0
O340 O 0.20995 0.66263 0.94693 0.0
Zn341 Zn 0.19493 0.67064 0.04662 0.0
O342 O 0.21339 0.67043 0.14028 0.0
C343 C 0.18557 0.71035 0.97573 0.0
O344 O 0.19197 0.70141 0.91169 0.0
O345 O 0.17189 0.65101 0.07299 0.0
C346 C 0.22953 0.68122 0.14741 0.0
O347 O 0.23569 0.69278 0.08935 0.0
C348 C 0.22821 0.65571 0.94308 0.0
O349 O 0.23837 0.65226 0.00768 0.0
O350 O 0.18468 0.69987 0.03799 0.0
C351 C 0.12163 0.43041 0.86609 0.0
O352 O 0.12494 0.4503 0.86946 0.0
O353 O 0.09391 0.462 0.70943 0.0
Zn354 Zn 0.08483 0.44652 0.80626 0.0
O355 O 0.08419 0.46635 0.89553 0.0
C356 C 0.04705 0.43479 0.72663 0.0
O357 O 0.05761 0.43927 0.66383 0.0
O358 O 0.10482 0.42413 0.83679 0.0
C359 C 0.07343 0.46325 0.95595 0.0
O360 O 0.0621 0.44658 0.96021 0.0
C361 C 0.09052 0.48125 0.70556 0.0
O362 O 0.08156 0.49034 0.76461 0.0
O363 O 0.05589 0.4359 0.79238 0.0
C364 C 0.32134 0.63083 0.4946 0.0
O365 O 0.30143 0.62794 0.48914 0.0
O366 O 0.28941 0.66172 0.64452 0.0
Zn367 Zn 0.30592 0.66872 0.54727 0.0
O368 O 0.28841 0.67019 0.45113 0.0
C369 C 0.31974 0.70613 0.6245 0.0
O370 O 0.31528 0.69599 0.68833 0.0
O371 O 0.32781 0.64767 0.52305 0.0
C372 C 0.27168 0.68002 0.44421 0.0
O373 O 0.26376 0.68943 0.50475 0.0
C374 C 0.27144 0.65402 0.64591 0.0
O375 O 0.26269 0.64862 0.58025 0.0
O376 O 0.31788 0.69711 0.55939 0.0
C377 C 0.12091 0.57465 0.2403 0.0
O378 O 0.12571 0.55506 0.23664 0.0
O379 O 0.09213 0.54348 0.40639 0.0
Zn380 Zn 0.08469 0.55681 0.3035 0.0
O381 O 0.08553 0.53578 0.21852 0.0
C382 C 0.04558 0.5686 0.37248 0.0
O383 O 0.05533 0.56544 0.43822 0.0
O384 O 0.10393 0.57972 0.27145 0.0
C385 C 0.07178 0.52209 0.21093 0.0
O386 O 0.0567 0.5213 0.26165 0.0
C387 C 0.0988 0.52517 0.41236 0.0
O388 O 0.10286 0.51475 0.34883 0.0
O389 O 0.05535 0.56675 0.3089 0.0
C390 C 0.17992 0.37209 0.99978 0.0
O391 O 0.19966 0.37624 0.99994 0.0
O392 O 0.21141 0.3429 0.1497 0.0
Zn393 Zn 0.19701 0.33464 0.04934 0.0
O394 O 0.21599 0.33459 0.95696 0.0
C395 C 0.18843 0.29476 0.12004 0.0
O396 O 0.19529 0.30365 0.18346 0.0
O397 O 0.1741 0.3544 0.02221 0.0
C398 C 0.23435 0.32804 0.95563 0.0
O399 O 0.24284 0.32107 0.01964 0.0
C400 C 0.22756 0.35377 0.15669 0.0
O401 O 0.23634 0.36133 0.09419 0.0
O402 O 0.18684 0.30536 0.05826 0.0
C403 C 0.38691 0.43238 0.73188 0.0
O404 O 0.38611 0.45229 0.71995 0.0
O405 O 0.41811 0.46011 0.90249 0.0
Zn406 Zn 0.4243 0.44523 0.80122 0.0
O407 O 0.4276 0.46515 0.71252 0.0
C408 C 0.46127 0.42941 0.8752 0.0
O409 O 0.45152 0.43405 0.93967 0.0
O410 O 0.4021 0.42506 0.76931 0.0
C411 C 0.42784 0.48462 0.71669 0.0
O412 O 0.42613 0.49373 0.78444 0.0
C413 C 0.40371 0.47276 0.91701 0.0
O414 O 0.38997 0.47671 0.86319 0.0
O415 O 0.45201 0.43162 0.81068 0.0
C416 C 0.1525 0.08227 0.9093 0.0
C417 C 0.1323 0.08876 0.89383 0.0
C418 C 0.16706 0.09564 0.94141 0.0
C419 C 0.16203 0.11606 0.96028 0.0
H420 H 0.15724 0.0667 0.89624 0.0
H421 H 0.18242 0.08983 0.95147 0.0
S422 S 0.11117 0.14078 0.93218 0.0
N423 N 0.10795 0.11708 0.90028 0.0
N424 N 0.1353 0.14219 0.96116 0.0
C425 C 0.14184 0.12279 0.94569 0.0
C426 C 0.12701 0.10918 0.91221 0.0
C427 C 0.12593 0.89616 0.20466 0.0
C428 C 0.1311 0.91661 0.2229 0.0
C429 C 0.14014 0.88294 0.16883 0.0
C430 C 0.16016 0.88958 0.15061 0.0
H431 H 0.1107 0.89034 0.21719 0.0
H432 H 0.13544 0.86733 0.1563 0.0
S433 S 0.1815 0.94165 0.18694 0.0
N434 N 0.15776 0.9428 0.22023 0.0
N435 N 0.18436 0.91806 0.15352 0.0
C436 C 0.16553 0.90998 0.16882 0.0
C437 C 0.15105 0.92345 0.20477 0.0
C438 C 0.36726 0.89411 0.41168 0.0
C439 C 0.36098 0.91404 0.39048 0.0
C440 C 0.35368 0.88037 0.44812 0.0
C441 C 0.33319 0.88591 0.46387 0.0
H442 H 0.38287 0.88912 0.40096 0.0
H443 H 0.35923 0.86518 0.46294 0.0
S444 S 0.30901 0.93628 0.42012 0.0
N445 N 0.33282 0.93861 0.38835 0.0
N446 N 0.30736 0.91282 0.45597 0.0
C447 C 0.32671 0.90578 0.44286 0.0
C448 C 0.34057 0.91982 0.40643 0.0
C449 C 0.37007 0.10739 0.68117 0.0
C450 C 0.36316 0.08755 0.70069 0.0
C451 C 0.35698 0.1217 0.64542 0.0
C452 C 0.33638 0.11684 0.6286 0.0
H453 H 0.38578 0.1119 0.6929 0.0
H454 H 0.36301 0.13681 0.63203 0.0
S455 S 0.31067 0.06694 0.66752 0.0
N456 N 0.33431 0.06377 0.6999 0.0
N457 N 0.30978 0.09062 0.63344 0.0
C458 C 0.32929 0.09704 0.64771 0.0
C459 C 0.34264 0.08242 0.68352 0.0
C460 C 0.85472 0.88062 0.15958 0.0
C461 C 0.83471 0.88634 0.13731 0.0
C462 C 0.86807 0.89473 0.19515 0.0
C463 C 0.86204 0.91518 0.20909 0.0
H464 H 0.86003 0.86503 0.1508 0.0
H465 H 0.88329 0.88954 0.21136 0.0
S466 S 0.81144 0.9381 0.15956 0.0
N467 N 0.80968 0.91401 0.13043 0.0
N468 N 0.83469 0.94046 0.1966 0.0
C469 C 0.84215 0.92115 0.18617 0.0
C470 C 0.82852 0.90676 0.1505 0.0
C471 C 0.8679 0.10641 0.92962 0.0
C472 C 0.8621 0.08622 0.90998 0.0
C473 C 0.85425 0.11977 0.96769 0.0
C474 C 0.83415 0.11355 0.98679 0.0
H475 H 0.88319 0.11194 0.91613 0.0
H476 H 0.85937 0.13522 0.98083 0.0
S477 S 0.81136 0.06219 0.94911 0.0
N478 N 0.83484 0.06063 0.91353 0.0
N479 N 0.80927 0.08568 0.98432 0.0
C480 C 0.82819 0.09338 0.9678 0.0
C481 C 0.84211 0.07975 0.92962 0.0
C482 C 0.64182 0.11938 0.66301 0.0
C483 C 0.66225 0.11371 0.64682 0.0
C484 C 0.62796 0.10544 0.69669 0.0
C485 C 0.63388 0.08517 0.71458 0.0
H486 H 0.63655 0.13484 0.65092 0.0
H487 H 0.61241 0.11056 0.70801 0.0
S488 S 0.68553 0.06247 0.68222 0.0
N489 N 0.68763 0.08631 0.65052 0.0
N490 N 0.66163 0.06014 0.71297 0.0
C491 C 0.65421 0.07925 0.69795 0.0
C492 C 0.66837 0.09349 0.66433 0.0
C493 C 0.65208 0.91693 0.40857 0.0
C494 C 0.63196 0.91074 0.38997 0.0
C495 C 0.66589 0.90352 0.44481 0.0
C496 C 0.66017 0.88335 0.46482 0.0
H497 H 0.65731 0.93232 0.39497 0.0
H498 H 0.68121 0.90911 0.45732 0.0
S499 S 0.60923 0.85945 0.42933 0.0
N500 N 0.60696 0.88297 0.39448 0.0
N501 N 0.63291 0.85777 0.46306 0.0
C502 C 0.64007 0.87691 0.4469 0.0
C503 C 0.626 0.89057 0.40924 0.0
C504 C 0.66829 0.59612 0.4213 0.0
C505 C 0.6623 0.61599 0.44422 0.0
C506 C 0.65449 0.58267 0.38521 0.0
C507 C 0.63409 0.58851 0.36965 0.0
H508 H 0.6838 0.59076 0.43167 0.0
H509 H 0.65992 0.5675 0.36949 0.0
S510 S 0.61063 0.63902 0.41661 0.0
N511 N 0.63451 0.64098 0.44792 0.0
N512 N 0.60857 0.61571 0.37959 0.0
C513 C 0.62788 0.60843 0.39147 0.0
C514 C 0.64195 0.62212 0.42897 0.0
C515 C 0.6336 0.39322 0.68382 0.0
C516 C 0.63977 0.41336 0.70234 0.0
C517 C 0.64723 0.37926 0.64904 0.0
C518 C 0.66766 0.38479 0.63219 0.0
H519 H 0.61801 0.38823 0.69514 0.0
H520 H 0.64171 0.36394 0.63601 0.0
S521 S 0.69164 0.43559 0.67054 0.0
N522 N 0.66782 0.43806 0.70192 0.0
N523 N 0.6934 0.41188 0.63725 0.0
C524 C 0.67408 0.40485 0.65099 0.0
C525 C 0.66016 0.4191 0.68585 0.0
C526 C 0.8727 0.39151 0.89621 0.0
C527 C 0.86652 0.41151 0.87566 0.0
C528 C 0.85889 0.37754 0.93012 0.0
C529 C 0.83827 0.38295 0.94416 0.0
H530 H 0.88845 0.38667 0.88737 0.0
H531 H 0.86443 0.36237 0.94511 0.0
S532 S 0.81413 0.43329 0.89864 0.0
N533 N 0.8382 0.43585 0.8703 0.0
N534 N 0.81232 0.40974 0.93349 0.0
C535 C 0.83183 0.40284 0.9229 0.0
C536 C 0.84591 0.41707 0.88883 0.0
C537 C 0.83222 0.59626 0.16186 0.0
C538 C 0.83829 0.61633 0.14188 0.0
C539 C 0.8459 0.58249 0.19692 0.0
C540 C 0.86622 0.58821 0.21439 0.0
H541 H 0.81674 0.59102 0.15008 0.0
H542 H 0.84041 0.56719 0.21048 0.0
S543 S 0.88986 0.6391 0.175 0.0
N544 N 0.86609 0.64133 0.1427 0.0
N545 N 0.89178 0.61547 0.20915 0.0
C546 C 0.87252 0.6083 0.19533 0.0
C547 C 0.85859 0.62231 0.15884 0.0
C548 C 0.36045 0.38472 0.65143 0.0
C549 C 0.34129 0.39228 0.62662 0.0
C550 C 0.37497 0.39766 0.68678 0.0
C551 C 0.371 0.41874 0.69766 0.0
H552 H 0.36416 0.36859 0.64479 0.0
H553 H 0.3895 0.39113 0.7049 0.0
S554 S 0.32327 0.44626 0.64161 0.0
N555 N 0.31921 0.42226 0.61479 0.0
N556 N 0.34645 0.44655 0.68034 0.0
C557 C 0.35195 0.42651 0.67247 0.0
C558 C 0.33712 0.4133 0.63722 0.0
C559 C 0.35611 0.6212 0.44286 0.0
C560 C 0.33582 0.61552 0.46134 0.0
C561 C 0.36966 0.60731 0.40718 0.0
C562 C 0.36355 0.5871 0.38936 0.0
H563 H 0.36152 0.63661 0.45499 0.0
H564 H 0.38513 0.61242 0.39438 0.0
S565 S 0.31211 0.56441 0.42674 0.0
N566 N 0.31034 0.58817 0.45954 0.0
N567 N 0.33574 0.56213 0.39312 0.0
C568 C 0.34332 0.58119 0.40793 0.0
C569 C 0.3295 0.59536 0.44372 0.0
C570 C 0.1547 0.58443 0.18206 0.0
C571 C 0.13476 0.59021 0.20479 0.0
C572 C 0.1681 0.59843 0.14665 0.0
C573 C 0.16212 0.61882 0.13162 0.0
H574 H 0.16015 0.56892 0.19198 0.0
H575 H 0.18332 0.59313 0.131 0.0
S576 S 0.11139 0.64181 0.17846 0.0
N577 N 0.10958 0.61783 0.20897 0.0
N578 N 0.13473 0.64411 0.14192 0.0
C579 C 0.14214 0.62483 0.15332 0.0
C580 C 0.1285 0.61057 0.19012 0.0
C581 C 0.13149 0.39496 0.91064 0.0
C582 C 0.13673 0.41577 0.89994 0.0
C583 C 0.14533 0.38103 0.94454 0.0
C584 C 0.16504 0.3873 0.96843 0.0
H585 H 0.11653 0.38935 0.89311 0.0
H586 H 0.14062 0.36515 0.9509 0.0
S587 S 0.18628 0.44015 0.95495 0.0
N588 N 0.16305 0.44196 0.91729 0.0
N589 N 0.18892 0.41587 0.98048 0.0
C590 C 0.17043 0.40807 0.9585 0.0
C591 C 0.15634 0.42227 0.92443 0.0
C592 C 0.24979 0.19031 0.8079 0.0
C593 C 0.2344 0.17633 0.82989 0.0
C594 C 0.26145 0.18718 0.74057 0.0
C595 C 0.25789 0.17017 0.69191 0.0
H596 H 0.25316 0.20357 0.84376 0.0
H597 H 0.27333 0.19822 0.7265 0.0
S598 S 0.21879 0.12946 0.72197 0.0
N599 N 0.21586 0.14504 0.79685 0.0
N600 N 0.23759 0.13936 0.66955 0.0
C601 C 0.24224 0.15629 0.71227 0.0
C602 C 0.23057 0.15931 0.78152 0.0
C603 C 0.06367 0.98231 0.07227 0.0
C604 C 0.06724 0.99296 0.14213 0.0
C605 C 0.0633 0.99264 1.0008 0.0
C606 C 0.06715 0.01384 0.99667 0.0
H607 H 0.06093 0.96589 0.07294 0.0
H608 H 0.0604 0.98391 0.94833 0.0
S609 S 0.07753 0.04867 0.16287 0.0
N610 N 0.07445 0.02583 0.20305 0.0
N611 N 0.07455 0.04519 0.06845 0.0
C612 C 0.07088 0.02464 0.06609 0.0
C613 C 0.0707 0.01421 0.13898 0.0
C614 C 0.25098 0.81476 0.2679 0.0
C615 C 0.23161 0.82401 0.25989 0.0
C616 C 0.26187 0.81609 0.33796 0.0
C617 C 0.25344 0.82613 0.40295 0.0
H618 H 0.25797 0.80684 0.21923 0.0
H619 H 0.27692 0.80905 0.34151 0.0
S620 S 0.20293 0.85222 0.4126 0.0
N621 N 0.20435 0.84342 0.32271 0.0
N622 N 0.22452 0.8452 0.45542 0.0
C623 C 0.23391 0.83505 0.39623 0.0
C624 C 0.22306 0.83419 0.32431 0.0
C625 C 0.4387 0.02493 0.52194 0.0
C626 C 0.42443 0.02302 0.58295 0.0
C627 C 0.43921 0.01077 0.46067 0.0
C628 C 0.42538 0.99418 0.4576 0.0
H629 H 0.44973 0.03739 0.5216 0.0
H630 H 0.45055 0.01292 0.41534 0.0
S631 S 0.3846 0.98246 0.60226 0.0
N632 N 0.39589 0.00333 0.63598 0.0
N633 N 0.39677 0.97677 0.52093 0.0
C634 C 0.4109 0.99214 0.51802 0.0
C635 C 0.41045 0.00653 0.58062 0.0
C636 C 0.76825 0.81802 0.29346 0.0
C637 C 0.75765 0.82221 0.22398 0.0
C638 C 0.75788 0.81715 0.36479 0.0
C639 C 0.7367 0.82109 0.3692 0.0
H640 H 0.78464 0.81517 0.29254 0.0
H641 H 0.76655 0.81377 0.41697 0.0
S642 S 0.70204 0.833 0.2041 0.0
N643 N 0.72488 0.8301 0.1637 0.0
N644 N 0.70545 0.82926 0.29818 0.0
C645 C 0.72597 0.82545 0.3002 0.0
C646 C 0.73643 0.82578 0.22739 0.0
C647 C 0.93976 0.99018 0.97352 0.0
C648 C 0.92607 0.00687 0.96979 0.0
C649 C 0.93901 0.97609 0.03502 0.0
C650 C 0.92463 0.97818 0.09555 0.0
H651 H 0.95119 0.9879 0.92858 0.0
H652 H 0.94994 0.96354 0.03523 0.0
S653 S 0.88501 0.019 0.11285 0.0
N654 N 0.89742 0.02451 0.0319 0.0
N655 N 0.89609 0.9981 0.14729 0.0
C656 C 0.91078 0.99476 0.09252 0.0
C657 C 0.91147 0.00907 0.02973 0.0
C658 C 0.7683 0.17206 0.83071 0.0
C659 C 0.75745 0.1759 0.89996 0.0
C660 C 0.75829 0.17157 0.75883 0.0
C661 C 0.73697 0.17456 0.75342 0.0
H662 H 0.78475 0.1695 0.83183 0.0
H663 H 0.76734 0.1685 0.70727 0.0
S664 S 0.70145 0.18521 0.91754 0.0
N665 N 0.72423 0.18294 0.95873 0.0
N666 N 0.70528 0.18174 0.82359 0.0
C667 C 0.72589 0.17845 0.82222 0.0
C668 C 0.73617 0.17922 0.89546 0.0
C669 C 0.5673 0.01879 0.55914 0.0
C670 C 0.56974 0.00791 0.6292 0.0
C671 C 0.56668 0.00851 0.48757 0.0
C672 C 0.56913 0.9871 0.48362 0.0
H673 H 0.56564 0.03535 0.55974 0.0
H674 H 0.56468 0.01742 0.43491 0.0
S675 S 0.57613 0.95163 0.65035 0.0
N676 N 0.57435 0.97462 0.69046 0.0
N677 N 0.57397 0.95532 0.55572 0.0
C678 C 0.57171 0.97607 0.55325 0.0
C679 C 0.57178 0.98647 0.62618 0.0
C680 C 0.72419 0.68975 0.26919 0.0
C681 C 0.72697 0.6761 0.33171 0.0
C682 C 0.73825 0.69059 0.20763 0.0
C683 C 0.75561 0.67772 0.20582 0.0
H684 H 0.71113 0.70005 0.26785 0.0
H685 H 0.73543 0.70144 0.16112 0.0
S686 S 0.76976 0.63885 0.35474 0.0
N687 N 0.7483 0.64917 0.38754 0.0
N688 N 0.77467 0.65067 0.27199 0.0
C689 C 0.75851 0.66386 0.26776 0.0
C690 C 0.74422 0.66307 0.33062 0.0
C691 C 0.57277 0.48885 0.46942 0.0
C692 C 0.57328 0.5104 0.46532 0.0
C693 C 0.57364 0.47872 0.54127 0.0
C694 C 0.57441 0.4898 0.61144 0.0
H695 H 0.57209 0.47976 0.41674 0.0
H696 H 0.57346 0.46207 0.54192 0.0
S697 S 0.57548 0.54646 0.6322 0.0
N698 N 0.57454 0.54253 0.53743 0.0
N699 N 0.57543 0.52343 0.6725 0.0
C700 C 0.57455 0.51134 0.60819 0.0
C701 C 0.5742 0.52166 0.53505 0.0
C702 C 0.76322 0.30532 0.70357 0.0
C703 C 0.74674 0.31928 0.70013 0.0
C704 C 0.77729 0.30572 0.76516 0.0
C705 C 0.7754 0.32002 0.8261 0.0
H706 H 0.76534 0.29394 0.65834 0.0
H707 H 0.78966 0.2946 0.7651 0.0
S708 S 0.7352 0.36024 0.84429 0.0
N709 N 0.72953 0.34808 0.76294 0.0
N710 N 0.7559 0.34876 0.87851 0.0
C711 C 0.75904 0.33414 0.82335 0.0
C712 C 0.74475 0.33379 0.76046 0.0
C713 C 0.92778 0.52 0.05658 0.0
C714 C 0.92849 0.50897 0.12687 0.0
C715 C 0.92835 0.50985 0.98476 0.0
C716 C 0.92902 0.4883 0.98089 0.0
H717 H 0.92708 0.53663 0.05707 0.0
H718 H 0.92789 0.5189 0.93196 0.0
S719 S 0.93082 0.45238 0.1482 0.0
N720 N 0.93008 0.47543 0.18831 0.0
N721 N 0.93039 0.45624 0.05334 0.0
C722 C 0.92953 0.47709 0.05077 0.0
C723 C 0.92949 0.48746 0.12382 0.0
C724 C 0.24514 0.32267 0.7402 0.0
C725 C 0.26619 0.32717 0.73493 0.0
C726 C 0.23495 0.32316 0.81195 0.0
C727 C 0.24559 0.32757 0.88116 0.0
H728 H 0.23637 0.31919 0.68834 0.0
H729 H 0.21864 0.31986 0.81334 0.0
S730 S 0.301 0.33974 0.8989 0.0
N731 N 0.29742 0.33603 0.8049 0.0
N732 N 0.27836 0.33621 0.94017 0.0
C733 C 0.26672 0.33168 0.87691 0.0
C734 C 0.277 0.33169 0.80362 0.0
C735 C 0.44233 0.50019 0.51192 0.0
C736 C 0.4312 0.51845 0.50111 0.0
C737 C 0.4412 0.48937 0.58216 0.0
C738 C 0.42938 0.49677 0.64465 0.0
H739 H 0.45159 0.49397 0.46518 0.0
H740 H 0.4497 0.47513 0.58769 0.0
S741 S 0.39806 0.54432 0.64673 0.0
N742 N 0.40825 0.54368 0.55886 0.0
N743 N 0.40667 0.52364 0.69182 0.0
C744 C 0.4186 0.51527 0.63525 0.0
C745 C 0.41934 0.52603 0.56313 0.0
C746 C 0.23974 0.68009 0.36411 0.0
C747 C 0.26127 0.68075 0.36811 0.0
C748 C 0.22962 0.68002 0.29221 0.0
C749 C 0.24066 0.68124 0.22204 0.0
H750 H 0.23067 0.67919 0.41682 0.0
H751 H 0.21299 0.67925 0.29159 0.0
S752 S 0.29725 0.6839 0.20122 0.0
N753 N 0.29335 0.68276 0.29599 0.0
N754 N 0.27423 0.68339 0.16095 0.0
C755 C 0.26217 0.6823 0.22529 0.0
C756 C 0.2725 0.68184 0.29836 0.0
C757 C 0.05873 0.49079 0.14239 0.0
C758 C 0.07273 0.50724 0.14567 0.0
C759 C 0.05917 0.4766 0.08118 0.0
C760 C 0.07354 0.47834 0.02048 0.0
H761 H 0.04729 0.48879 0.18748 0.0
H762 H 0.048 0.46426 0.08134 0.0
S763 S 0.11378 0.51854 0.00168 0.0
N764 N 0.10157 0.52435 0.08279 0.0
N765 N 0.10235 0.49775 0.96791 0.0
C766 C 0.0877 0.49469 0.02306 0.0
C767 C 0.08732 0.50909 0.08557 0.0
C768 C 0.18894 0.23887 0.18378 0.0
C769 C 0.18535 0.22806 0.11424 0.0
C770 C 0.189 0.2604 0.18566 0.0
C771 C 0.18543 0.27209 0.11814 0.0
H772 H 0.19248 0.23069 0.23693 0.0
H773 H 0.19256 0.26789 0.24023 0.0
S774 S 0.17281 0.25127 0.92277 0.0
N775 N 0.17634 0.23072 0.97732 0.0
N776 N 0.17642 0.27112 0.98082 0.0
C777 C 0.1807 0.26148 0.049 0.0
C778 C 0.18068 0.23952 0.04706 0.0
C779 C 0.00625 0.92841 0.32122 0.0
C780 C 0.01738 0.92933 0.39127 0.0
C781 C 0.98474 0.92863 0.32073 0.0
C782 C 0.97337 0.92975 0.39025 0.0
H783 H 0.01415 0.92837 0.26582 0.0
H784 H 0.97703 0.92871 0.26495 0.0
S785 S 0.99504 0.92948 0.58997 0.0
N786 N 0.01534 0.92919 0.53253 0.0
N787 N 0.97493 0.92959 0.53161 0.0
C788 C 0.98427 0.92931 0.46096 0.0
C789 C 0.00624 0.92911 0.46147 0.0
C790 C 0.32 0.76097 0.69928 0.0
C791 C 0.32303 0.77265 0.63138 0.0
C792 C 0.32015 0.73944 0.69732 0.0
C793 C 0.32333 0.72868 0.62738 0.0
H794 H 0.31651 0.76843 0.75397 0.0
H795 H 0.31677 0.73124 0.75058 0.0
S796 S 0.33549 0.75198 0.4357 0.0
N797 N 0.33187 0.7718 0.49393 0.0
N798 N 0.33215 0.73139 0.49025 0.0
C799 C 0.3279 0.74015 0.56015 0.0
C800 C 0.32775 0.7621 0.56215 0.0
C801 C 0.48654 0.06593 0.9417 0.0
C802 C 0.47549 0.06939 0.87265 0.0
C803 C 0.50807 0.06582 0.94239 0.0
C804 C 0.5195 0.06919 0.87408 0.0
H805 H 0.47856 0.06245 0.99535 0.0
H806 H 0.51575 0.06226 0.99657 0.0
S807 S 0.498 0.08182 0.67983 0.0
N808 N 0.47766 0.07837 0.73553 0.0
N809 N 0.51806 0.07818 0.7368 0.0
C810 C 0.50866 0.07396 0.80554 0.0
C811 C 0.4867 0.07404 0.80482 0.0
C812 C 0.18593 0.76629 0.9128 0.0
C813 C 0.18159 0.77699 0.982 0.0
C814 C 0.18625 0.74476 0.9106 0.0
C815 C 0.18224 0.73296 0.9775 0.0
H816 H 0.18985 0.77455 0.86023 0.0
H817 H 0.1904 0.73737 0.85642 0.0
S818 S 0.16754 0.7534 0.17137 0.0
N819 N 0.17133 0.77405 0.11764 0.0
N820 N 0.17192 0.73366 0.11351 0.0
C821 C 0.17672 0.74343 0.0461 0.0
C822 C 0.1764 0.76539 0.04835 0.0
C823 C 0.48608 0.92967 0.16341 0.0
C824 C 0.47498 0.9279 0.23333 0.0
C825 C 0.50761 0.92989 0.16284 0.0
C826 C 0.51898 0.92832 0.23215 0.0
H827 H 0.47814 0.93172 0.10866 0.0
H828 H 0.51533 0.93208 0.10769 0.0
S829 S 0.49736 0.92057 0.42995 0.0
N830 N 0.47705 0.92249 0.37307 0.0
N831 N 0.51745 0.92286 0.37208 0.0
C832 C 0.50809 0.92528 0.30205 0.0
C833 C 0.48614 0.92509 0.30262 0.0
C834 C 0.30925 0.25044 0.46693 0.0
C835 C 0.31938 0.23561 0.51231 0.0
C836 C 0.31198 0.27144 0.48038 0.0
C837 C 0.32482 0.27858 0.54044 0.0
H838 H 0.29854 0.24581 0.42203 0.0
H839 H 0.30316 0.2821 0.44543 0.0
S840 S 0.35692 0.24613 0.66968 0.0
N841 N 0.34437 0.22952 0.61486 0.0
N842 N 0.3494 0.26912 0.64071 0.0
C843 C 0.33602 0.26397 0.58333 0.0
C844 C 0.33336 0.24247 0.56907 0.0
C845 C 0.98642 0.07335 0.81072 0.0
C846 C 0.97501 0.07463 0.74141 0.0
C847 C 0.00793 0.07302 0.80989 0.0
C848 C 0.01902 0.07394 0.73968 0.0
H849 H 0.97873 0.07181 0.86624 0.0
H850 H 0.01585 0.07125 0.86483 0.0
S851 S 0.99662 0.08021 0.5426 0.0
N852 N 0.97653 0.0789 0.60093 0.0
N853 N 0.01695 0.07825 0.59941 0.0
C854 C 0.00787 0.07647 0.67023 0.0
C855 C 0.9859 0.07683 0.67108 0.0
C856 C 0.82258 0.7396 0.04942 0.0
C857 C 0.82361 0.72833 0.9797 0.0
C858 C 0.8224 0.76111 0.04928 0.0
C859 C 0.82319 0.77234 0.97939 0.0
H860 H 0.82114 0.73179 0.10474 0.0
H861 H 0.82079 0.76893 0.10452 0.0
S862 S 0.82885 0.75032 0.78139 0.0
N863 N 0.82755 0.73011 0.83912 0.0
N864 N 0.82717 0.77054 0.83891 0.0
C865 C 0.82551 0.76132 0.9095 0.0
C866 C 0.82574 0.73934 0.90964 0.0
C867 C 0.676 0.23878 0.54949 0.0
C868 C 0.67675 0.22697 0.48094 0.0
C869 C 0.67638 0.26028 0.54709 0.0
C870 C 0.67742 0.27096 0.47606 0.0
H871 H 0.67606 0.23141 0.60593 0.0
H872 H 0.67664 0.26853 0.60176 0.0
S873 S 0.67656 0.24737 0.27939 0.0
N874 N 0.67629 0.22763 0.33956 0.0
N875 N 0.67691 0.26804 0.33496 0.0
C876 C 0.67671 0.25939 0.40685 0.0
C877 C 0.67641 0.23743 0.40932 0.0
C878 C 0.82237 0.25909 0.0654 0.0
C879 C 0.82141 0.27159 0.1321 0.0
C880 C 0.82147 0.23763 0.07077 0.0
C881 C 0.8195 0.22768 0.14307 0.0
H882 H 0.8231 0.26591 0.00804 0.0
H883 H 0.82151 0.22886 0.01727 0.0
S884 S 0.81896 0.25313 0.33629 0.0
N885 N 0.82037 0.27226 0.27356 0.0
N886 N 0.81862 0.23196 0.28354 0.0
C887 C 0.81973 0.2399 0.21061 0.0
C888 C 0.8207 0.26182 0.20516 0.0
C889 C 0.68578 0.73794 0.69387 0.0
C890 C 0.68193 0.72697 0.62491 0.0
C891 C 0.68587 0.75948 0.69497 0.0
C892 C 0.68208 0.77098 0.62717 0.0
H893 H 0.68955 0.7299 0.74709 0.0
H894 H 0.68968 0.76711 0.74902 0.0
S895 S 0.66851 0.74968 0.43345 0.0
N896 N 0.67227 0.72928 0.48851 0.0
N897 N 0.67242 0.76968 0.49052 0.0
C898 C 0.67702 0.76021 0.55875 0.0
C899 C 0.67695 0.73825 0.55763 0.0
C900 C 0.516 0.42425 0.80255 0.0
C901 C 0.52775 0.42564 0.871 0.0
C902 C 0.4945 0.42419 0.80489 0.0
C903 C 0.48378 0.42555 0.87579 0.0
H904 H 0.52339 0.42408 0.74615 0.0
H905 H 0.48628 0.42401 0.75017 0.0
S906 S 0.50726 0.42626 0.07253 0.0
N907 N 0.52703 0.42599 0.01248 0.0
N908 N 0.48663 0.42589 0.01686 0.0
C909 C 0.49532 0.42542 0.94505 0.0
C910 C 0.51728 0.42547 0.94266 0.0
C911 C 0.9902 0.56825 0.44167 0.0
C912 C 0.97891 0.57038 0.37239 0.0
C913 C 0.01172 0.56868 0.44157 0.0
C914 C 0.0229 0.57123 0.37217 0.0
H915 H 0.98243 0.56546 0.49633 0.0
H916 H 0.01962 0.56619 0.49616 0.0
S917 S 0.0007 0.58027 0.17627 0.0
N918 N 0.98056 0.57721 0.23337 0.0
N919 N 0.02095 0.57798 0.23322 0.0
C920 C 0.0118 0.5746 0.30308 0.0
C921 C 0.98985 0.57418 0.30318 0.0
C922 C 0.99153 0.42916 0.79085 0.0
C923 C 0.98046 0.43045 0.72071 0.0
C924 C 0.01304 0.42962 0.79178 0.0
C925 C 0.02447 0.43137 0.72262 0.0
H926 H 0.98355 0.42857 0.84605 0.0
H927 H 0.02069 0.42934 0.84767 0.0
S928 S 0.00305 0.4325 0.52255 0.0
N929 N 0.98268 0.43152 0.57954 0.0
N930 N 0.02309 0.43238 0.58129 0.0
C931 C 0.01367 0.43144 0.6517 0.0
C932 C 0.9917 0.43097 0.65075 0.0
C933 C 0.48719 0.56268 0.14986 0.0
C934 C 0.47649 0.56757 0.21852 0.0
C935 C 0.50871 0.56243 0.14765 0.0
C936 C 0.52049 0.56706 0.21399 0.0
H937 H 0.47894 0.55824 0.09786 0.0
H938 H 0.51611 0.55783 0.09401 0.0
S939 S 0.50002 0.58341 0.40591 0.0
N940 N 0.47939 0.57906 0.35275 0.0
N941 N 0.51977 0.57859 0.3486 0.0
C942 C 0.51001 0.57314 0.28187 0.0
C943 C 0.48806 0.5734 0.28413 0.0
C944 C 0.24422 0.14667 0.2485 0.0
C945 C 0.24733 0.16375 0.19963 0.0
C946 C 0.25721 0.14279 0.31205 0.0
C947 C 0.27373 0.15596 0.32978 0.0
H948 H 0.23152 0.13627 0.23813 0.0
H949 H 0.2539 0.12969 0.34879 0.0
S950 S 0.28927 0.20225 0.21808 0.0
N951 N 0.26884 0.19351 0.17201 0.0
N952 N 0.29304 0.18627 0.29108 0.0
C953 C 0.27731 0.17282 0.28037 0.0
C954 C 0.26418 0.1767 0.21549 0.0
C955 C 0.09271 0.97961 0.55908 0.0
C956 C 0.09499 0.99027 0.48844 0.0
C957 C 0.09232 0.99001 0.6305 0.0
C958 C 0.09385 0.01158 0.63439 0.0
H959 H 0.09102 0.96305 0.5593 0.0
H960 H 0.09022 0.98105 0.68294 0.0
S961 S 0.10057 0.04677 0.4664 0.0
N962 N 0.09937 0.02367 0.42706 0.0
N963 N 0.09835 0.04321 0.56103 0.0
C964 C 0.09648 0.02243 0.56428 0.0
C965 C 0.09715 0.0118 0.49149 0.0
C966 C 0.26035 0.83889 0.88221 0.0
C967 C 0.24033 0.84682 0.89036 0.0
C968 C 0.27144 0.84114 0.81293 0.0
C969 C 0.26312 0.85156 0.74861 0.0
H970 H 0.26748 0.83042 0.92919 0.0
H971 H 0.2866 0.83434 0.80957 0.0
S972 S 0.21166 0.87615 0.74035 0.0
N973 N 0.2129 0.86623 0.82853 0.0
N974 N 0.23378 0.87056 0.69842 0.0
C975 C 0.24336 0.86017 0.75652 0.0
C976 C 0.23197 0.85776 0.82721 0.0
C977 C 0.41282 0.99023 0.98392 0.0
C978 C 0.40622 0.01075 0.97665 0.0
C979 C 0.40994 0.97916 0.05287 0.0
C980 C 0.40034 0.98808 0.11795 0.0
H981 H 0.42067 0.98266 0.93638 0.0
H982 H 0.41579 0.9636 0.05554 0.0
S983 S 0.37884 0.04092 0.12775 0.0
N984 N 0.38861 0.03923 0.03944 0.0
N985 N 0.38316 0.01845 0.16908 0.0
C986 C 0.39298 0.00837 0.11072 0.0
C987 C 0.39592 0.01968 0.0402 0.0
C988 C 0.77133 0.84609 0.80671 0.0
C989 C 0.76081 0.84953 0.87697 0.0
C990 C 0.76091 0.84546 0.73542 0.0
C991 C 0.73944 0.84793 0.7313 0.0
H992 H 0.78779 0.84365 0.8067 0.0
H993 H 0.76976 0.84243 0.68336 0.0
S994 S 0.70466 0.85797 0.89813 0.0
N995 N 0.72768 0.85609 0.93764 0.0
N996 N 0.70808 0.85464 0.80389 0.0
C997 C 0.72875 0.85178 0.80095 0.0
C998 C 0.73942 0.85266 0.8736 0.0
C999 C 0.911 0.02215 0.56638 0.0
C1000 C 0.90065 0.01361 0.63055 0.0
C1001 C 0.9138 0.011 0.49755 0.0
C1002 C 0.90634 0.99081 0.48944 0.0
H1003 H 0.91754 0.03743 0.56976 0.0
H1004 H 0.92226 0.01825 0.45078 0.0
S1005 S 0.87673 0.9618 0.63778 0.0
N1006 N 0.88182 0.98402 0.67979 0.0
N1007 N 0.88708 0.9631 0.55034 0.0
C1008 C 0.89528 0.9823 0.552 0.0
C1009 C 0.89244 0.99368 0.62243 0.0
C1010 C 0.73661 0.13816 0.23231 0.0
C1011 C 0.75559 0.14846 0.23781 0.0
C1012 C 0.72237 0.13843 0.29357 0.0
C1013 C 0.72643 0.14903 0.36323 0.0
H1014 H 0.73243 0.13011 0.17954 0.0
H1015 H 0.70787 0.13057 0.28537 0.0
S1016 S 0.77445 0.17743 0.40967 0.0
N1017 N 0.77809 0.16877 0.32059 0.0
N1018 N 0.75143 0.16931 0.43541 0.0
C1019 C 0.74564 0.15888 0.37056 0.0
C1020 C 0.76016 0.15859 0.30807 0.0
C1021 C 0.59531 0.00958 0.11871 0.0
C1022 C 0.59613 0.98797 0.12236 0.0
C1023 C 0.59577 0.02001 0.04734 0.0
C1024 C 0.59742 0.00932 0.9765 0.0
H1025 H 0.59372 0.01858 0.17133 0.0
H1026 H 0.59464 0.03661 0.04779 0.0
S1027 S 0.60107 0.95268 0.9538 0.0
N1028 N 0.59931 0.95625 0.04856 0.0
N1029 N 0.60048 0.97583 0.91468 0.0
C1030 C 0.59888 0.98773 0.9793 0.0
C1031 C 0.59814 0.97708 0.05204 0.0
C1032 C 0.77142 0.66301 0.80215 0.0
C1033 C 0.7629 0.65285 0.86679 0.0
C1034 C 0.76024 0.66565 0.73335 0.0
C1035 C 0.74001 0.65823 0.72578 0.0
H1036 H 0.78672 0.6695 0.80508 0.0
H1037 H 0.76748 0.67396 0.68621 0.0
S1038 S 0.71101 0.62912 0.87554 0.0
N1039 N 0.73328 0.63425 0.91709 0.0
N1040 N 0.7123 0.63923 0.78769 0.0
C1041 C 0.73152 0.64736 0.78882 0.0
C1042 C 0.74294 0.64467 0.8592 0.0
C1043 C 0.6013 0.4898 0.10219 0.0
C1044 C 0.60088 0.51141 0.10569 0.0
C1045 C 0.60188 0.47938 0.0308 0.0
C1046 C 0.60243 0.49012 0.95982 0.0
H1047 H 0.60055 0.48076 0.15497 0.0
H1048 H 0.60168 0.46274 0.03133 0.0
S1049 S 0.60273 0.54687 0.93677 0.0
N1050 N 0.60179 0.54323 0.03165 0.0
N1051 N 0.6032 0.5237 0.89771 0.0
C1052 C 0.6027 0.51175 0.96246 0.0
C1053 C 0.60182 0.52237 0.03522 0.0
C1054 C 0.7317 0.33392 0.29669 0.0
C1055 C 0.74016 0.34459 0.36022 0.0
C1056 C 0.74281 0.33105 0.22784 0.0
C1057 C 0.76288 0.33875 0.21911 0.0
H1058 H 0.71651 0.3272 0.30057 0.0
H1059 H 0.73563 0.32234 0.18159 0.0
S1060 S 0.79165 0.36921 0.36562 0.0
N1061 N 0.76954 0.36397 0.4082 0.0
N1062 N 0.79039 0.35856 0.27868 0.0
C1063 C 0.7713 0.35013 0.281 0.0
C1064 C 0.75997 0.35304 0.35146 0.0
C1065 C 0.90206 0.47895 0.55668 0.0
C1066 C 0.90175 0.48964 0.62779 0.0
C1067 C 0.90172 0.48941 0.48536 0.0
C1068 C 0.90143 0.51103 0.48204 0.0
H1069 H 0.90276 0.46232 0.55596 0.0
H1070 H 0.90232 0.48043 0.43241 0.0
S1071 S 0.89987 0.54634 0.6514 0.0
N1072 N 0.90044 0.52316 0.69028 0.0
N1073 N 0.90015 0.54277 0.55641 0.0
C1074 C 0.90075 0.52192 0.55267 0.0
C1075 C 0.90079 0.51126 0.6254 0.0
C1076 C 0.25864 0.36056 0.23883 0.0
C1077 C 0.23753 0.35607 0.23395 0.0
C1078 C 0.2689 0.36076 0.31059 0.0
C1079 C 0.25844 0.35676 0.38065 0.0
H1080 H 0.26753 0.36322 0.18657 0.0
H1081 H 0.28529 0.36365 0.31083 0.0
S1082 S 0.20258 0.34608 0.40025 0.0
N1083 N 0.20621 0.34885 0.3059 0.0
N1084 N 0.22533 0.34947 0.44058 0.0
C1085 C 0.2371 0.3532 0.37686 0.0
C1086 C 0.22671 0.35277 0.30365 0.0
C1087 C 0.41594 0.47711 0.05369 0.0
C1088 C 0.404 0.48439 0.99138 0.0
C1089 C 0.41809 0.48846 0.12234 0.0
C1090 C 0.40856 0.50773 0.13171 0.0
H1091 H 0.42398 0.46259 0.04915 0.0
H1092 H 0.42775 0.48219 0.16773 0.0
S1093 S 0.37494 0.53348 0.98709 0.0
N1094 N 0.38189 0.51185 0.94441 0.0
N1095 N 0.38605 0.53327 0.07334 0.0
C1096 C 0.39612 0.515 0.07065 0.0
C1097 C 0.3938 0.50332 1.00065 0.0
C1098 C 0.26032 0.65366 0.86306 0.0
C1099 C 0.23871 0.65361 0.86665 0.0
C1100 C 0.27073 0.65342 0.79161 0.0
C1101 C 0.25999 0.65276 0.72065 0.0
H1102 H 0.26935 0.65451 0.91583 0.0
H1103 H 0.28736 0.65396 0.7921 0.0
S1104 S 0.20327 0.65127 0.69788 0.0
N1105 N 0.20691 0.65215 0.79276 0.0
N1106 N 0.22642 0.65137 0.6587 0.0
C1107 C 0.23837 0.65204 0.72339 0.0
C1108 C 0.22776 0.65257 0.79622 0.0
C1109 C 0.10117 0.49315 0.49291 0.0
C1110 C 0.09914 0.51468 0.48918 0.0
C1111 C 0.09909 0.48252 0.56342 0.0
C1112 C 0.09487 0.49297 0.63321 0.0
H1113 H 0.1037 0.48427 0.44054 0.0
H1114 H 0.10011 0.46591 0.56258 0.0
S1115 S 0.09076 0.54958 0.65699 0.0
N1116 N 0.09454 0.54623 0.563 0.0
N1117 N 0.09068 0.52633 0.69527 0.0
C1118 C 0.09384 0.51459 0.63101 0.0
C1119 C 0.09596 0.52542 0.55917 0.0
loop_
_geom_bond_atom_site_label_1
_geom_bond_atom_site_label_2
_geom_bond_distance
_geom_bond_site_symmetry_2
_ccdc_geom_bond_type
C0 O1 1.160 . S
C0 O7 1.185 . S
O1 C0 1.160 . S
O2 Zn3 1.899 . S
O2 C10 1.284 . S
Zn3 O2 1.899 . S
Zn3 O4 2.032 1_554 S
Zn3 O7 2.086 . S
Zn3 O12 1.977 . S
O4 Zn3 2.032 1_556 S
O4 C8 1.278 . S
C5 O6 1.203 . S
C5 O12 1.267 . S
O6 C5 1.203 . S
O7 C0 1.185 . S
O7 Zn3 2.086 . S
C8 O4 1.278 . S
C8 O9 1.211 . S
O9 C8 1.211 . S
C10 O2 1.284 . S
C10 O11 1.273 . S
O11 C10 1.273 . S
O12 Zn3 1.977 . S
O12 C5 1.267 . S
C13 O14 1.160 . S
C13 O20 1.185 . S
O14 C13 1.160 . S
O15 Zn16 1.899 . S
O15 C23 1.284 . S
Zn16 O15 1.899 . S
Zn16 O17 2.032 . S
Zn16 O20 2.086 . S
Zn16 O25 1.977 . S
O17 Zn16 2.032 . S
O17 C21 1.278 . S
C18 O19 1.203 . S
C18 O25 1.267 . S
O19 C18 1.203 . S
O20 C13 1.185 . S
O20 Zn16 2.086 . S
C21 O17 1.278 . S
C21 O22 1.211 . S
O22 C21 1.211 . S
C23 O15 1.284 . S
C23 O24 1.273 . S
O24 C23 1.273 . S
O25 Zn16 1.977 . S
O25 C18 1.267 . S
C26 O27 1.160 . S
C26 O33 1.185 . S
O27 C26 1.160 . S
O28 Zn29 1.899 . S
O28 C36 1.284 . S
Zn29 O28 1.899 . S
Zn29 O30 2.032 . S
Zn29 O33 2.086 . S
Zn29 O38 1.977 . S
O30 Zn29 2.032 . S
O30 C34 1.278 . S
C31 O32 1.203 . S
C31 O38 1.267 . S
O32 C31 1.203 . S
O33 C26 1.185 . S
O33 Zn29 2.086 . S
C34 O30 1.278 . S
C34 O35 1.211 . S
O35 C34 1.211 . S
C36 O28 1.284 . S
C36 O37 1.273 . S
O37 C36 1.273 . S
O38 Zn29 1.977 . S
O38 C31 1.267 . S
C39 O40 1.160 . S
C39 O46 1.185 . S
O40 C39 1.160 . S
O41 Zn42 1.899 . S
O41 C49 1.284 . S
Zn42 O41 1.899 . S
Zn42 O43 2.032 . S
Zn42 O46 2.086 . S
Zn42 O51 1.977 . S
O43 Zn42 2.032 . S
O43 C47 1.278 . S
C44 O45 1.203 . S
C44 O51 1.267 . S
O45 C44 1.203 . S
O46 C39 1.185 . S
O46 Zn42 2.086 . S
C47 O43 1.278 . S
C47 O48 1.211 . S
O48 C47 1.211 . S
C49 O41 1.284 . S
C49 O50 1.273 . S
O50 C49 1.273 . S
O51 Zn42 1.977 . S
O51 C44 1.267 . S
C52 O53 1.160 . S
C52 O59 1.185 . S
O53 C52 1.160 . S
O54 Zn55 1.899 1_556 S
O54 C62 1.284 . S
Zn55 O54 1.899 1_554 S
Zn55 O56 2.032 . S
Zn55 O59 2.086 . S
Zn55 O64 1.977 . S
O56 Zn55 2.032 . S
O56 C60 1.278 . S
C57 O58 1.203 . S
C57 O64 1.267 . S
O58 C57 1.203 . S
O59 C52 1.185 . S
O59 Zn55 2.086 . S
C60 O56 1.278 . S
C60 O61 1.211 . S
O61 C60 1.211 . S
C62 O54 1.284 . S
C62 O63 1.273 . S
O63 C62 1.273 . S
O64 Zn55 1.977 . S
O64 C57 1.267 . S
C65 O66 1.160 . S
C65 O72 1.185 . S
O66 C65 1.160 . S
O67 Zn68 1.899 . S
O67 C75 1.284 . S
Zn68 O67 1.899 . S
Zn68 O69 2.032 . S
Zn68 O72 2.086 . S
Zn68 O77 1.977 . S
O69 Zn68 2.032 . S
O69 C73 1.278 . S
C70 O71 1.203 . S
C70 O77 1.267 . S
O71 C70 1.203 . S
O72 C65 1.185 . S
O72 Zn68 2.086 . S
C73 O69 1.278 . S
C73 O74 1.211 . S
O74 C73 1.211 . S
C75 O67 1.284 . S
C75 O76 1.273 . S
O76 C75 1.273 . S
O77 Zn68 1.977 . S
O77 C70 1.267 . S
C78 O79 1.160 . S
C78 O85 1.185 . S
O79 C78 1.160 . S
O80 Zn81 1.899 . S
O80 C88 1.284 . S
Zn81 O80 1.899 . S
Zn81 O82 2.032 . S
Zn81 O85 2.086 . S
Zn81 O90 1.977 . S
O82 Zn81 2.032 . S
O82 C86 1.278 . S
C83 O84 1.203 . S
C83 O90 1.267 . S
O84 C83 1.203 . S
O85 C78 1.185 . S
O85 Zn81 2.086 . S
C86 O82 1.278 . S
C86 O87 1.211 . S
O87 C86 1.211 . S
C88 O80 1.284 . S
C88 O89 1.273 . S
O89 C88 1.273 . S
O90 Zn81 1.977 . S
O90 C83 1.267 . S
C91 O92 1.160 . S
C91 O98 1.185 . S
O92 C91 1.160 . S
O93 Zn94 1.899 . S
O93 C101 1.284 . S
Zn94 O93 1.899 . S
Zn94 O95 2.032 . S
Zn94 O98 2.086 . S
Zn94 O103 1.977 . S
O95 Zn94 2.032 . S
O95 C99 1.278 . S
C96 O97 1.203 . S
C96 O103 1.267 . S
O97 C96 1.203 . S
O98 C91 1.185 . S
O98 Zn94 2.086 . S
C99 O95 1.278 . S
C99 O100 1.211 . S
O100 C99 1.211 . S
C101 O93 1.284 . S
C101 O102 1.273 . S
O102 C101 1.273 . S
O103 Zn94 1.977 . S
O103 C96 1.267 . S
C104 O105 1.160 . S
C104 O111 1.185 . S
O105 C104 1.160 . S
O106 Zn107 1.899 1_556 S
O106 C114 1.284 . S
Zn107 O106 1.899 1_554 S
Zn107 O108 2.032 . S
Zn107 O111 2.086 . S
Zn107 O116 1.977 . S
O108 Zn107 2.032 . S
O108 C112 1.278 . S
C109 O110 1.203 . S
C109 O116 1.267 . S
O110 C109 1.203 . S
O111 C104 1.185 . S
O111 Zn107 2.086 . S
C112 O108 1.278 . S
C112 O113 1.211 . S
O113 C112 1.211 . S
C114 O106 1.284 . S
C114 O115 1.273 . S
O115 C114 1.273 . S
O116 Zn107 1.977 . S
O116 C109 1.267 . S
C117 O118 1.160 . S
C117 O124 1.185 . S
O118 C117 1.160 . S
O119 Zn120 1.899 . S
O119 C127 1.284 . S
Zn120 O119 1.899 . S
Zn120 O121 2.032 . S
Zn120 O124 2.086 . S
Zn120 O129 1.977 . S
O121 Zn120 2.032 . S
O121 C125 1.278 . S
C122 O123 1.203 . S
C122 O129 1.267 . S
O123 C122 1.203 . S
O124 C117 1.185 . S
O124 Zn120 2.086 . S
C125 O121 1.278 . S
C125 O126 1.211 . S
O126 C125 1.211 . S
C127 O119 1.284 . S
C127 O128 1.273 . S
O128 C127 1.273 . S
O129 Zn120 1.977 . S
O129 C122 1.267 . S
C130 O131 1.160 . S
C130 O137 1.185 . S
O131 C130 1.160 . S
O132 Zn133 1.899 . S
O132 C140 1.284 . S
Zn133 O132 1.899 . S
Zn133 O134 2.032 . S
Zn133 O137 2.086 . S
Zn133 O142 1.977 . S
O134 Zn133 2.032 . S
O134 C138 1.278 . S
C135 O136 1.203 . S
C135 O142 1.267 . S
O136 C135 1.203 . S
O137 C130 1.185 . S
O137 Zn133 2.086 . S
C138 O134 1.278 . S
C138 O139 1.211 . S
O139 C138 1.211 . S
C140 O132 1.284 . S
C140 O141 1.273 . S
O141 C140 1.273 . S
O142 Zn133 1.977 . S
O142 C135 1.267 . S
C143 O144 1.160 . S
C143 O150 1.185 . S
O144 C143 1.160 . S
O145 Zn146 1.899 . S
O145 C153 1.284 . S
Zn146 O145 1.899 . S
Zn146 O147 2.032 . S
Zn146 O150 2.086 . S
Zn146 O155 1.977 . S
O147 Zn146 2.032 . S
O147 C151 1.278 . S
C148 O149 1.203 . S
C148 O155 1.267 . S
O149 C148 1.203 . S
O150 C143 1.185 . S
O150 Zn146 2.086 . S
C151 O147 1.278 . S
C151 O152 1.211 . S
O152 C151 1.211 . S
C153 O145 1.284 . S
C153 O154 1.273 . S
O154 C153 1.273 . S
O155 Zn146 1.977 . S
O155 C148 1.267 . S
C156 O157 1.160 . S
C156 O163 1.185 . S
O157 C156 1.160 . S
O158 Zn159 1.899 . S
O158 C166 1.284 . S
Zn159 O158 1.899 . S
Zn159 O160 2.032 1_554 S
Zn159 O163 2.086 . S
Zn159 O168 1.977 . S
O160 Zn159 2.032 1_556 S
O160 C164 1.278 . S
C161 O162 1.203 . S
C161 O168 1.267 . S
O162 C161 1.203 . S
O163 C156 1.185 . S
O163 Zn159 2.086 . S
C164 O160 1.278 . S
C164 O165 1.211 . S
O165 C164 1.211 . S
C166 O158 1.284 . S
C166 O167 1.273 . S
O167 C166 1.273 . S
O168 Zn159 1.977 . S
O168 C161 1.267 . S
C169 O170 1.160 . S
C169 O176 1.185 . S
O170 C169 1.160 . S
O171 Zn172 1.899 . S
O171 C179 1.284 . S
Zn172 O171 1.899 . S
Zn172 O173 2.032 . S
Zn172 O176 2.086 . S
Zn172 O181 1.977 . S
O173 Zn172 2.032 . S
O173 C177 1.278 . S
C174 O175 1.203 . S
C174 O181 1.267 . S
O175 C174 1.203 . S
O176 C169 1.185 . S
O176 Zn172 2.086 . S
C177 O173 1.278 . S
C177 O178 1.211 . S
O178 C177 1.211 . S
C179 O171 1.284 . S
C179 O180 1.273 . S
O180 C179 1.273 . S
O181 Zn172 1.977 . S
O181 C174 1.267 . S
C182 O183 1.160 . S
C182 O189 1.185 . S
O183 C182 1.160 . S
O184 Zn185 1.899 . S
O184 C192 1.284 . S
Zn185 O184 1.899 . S
Zn185 O186 2.032 . S
Zn185 O189 2.086 . S
Zn185 O194 1.977 . S
O186 Zn185 2.032 . S
O186 C190 1.278 . S
C187 O188 1.203 . S
C187 O194 1.267 . S
O188 C187 1.203 . S
O189 C182 1.185 . S
O189 Zn185 2.086 . S
C190 O186 1.278 . S
C190 O191 1.211 . S
O191 C190 1.211 . S
C192 O184 1.284 . S
C192 O193 1.273 . S
O193 C192 1.273 . S
O194 Zn185 1.977 . S
O194 C187 1.267 . S
C195 O196 1.160 . S
C195 O202 1.185 . S
O196 C195 1.160 . S
O197 Zn198 1.899 . S
O197 C205 1.284 . S
Zn198 O197 1.899 . S
Zn198 O199 2.032 . S
Zn198 O202 2.086 . S
Zn198 O207 1.977 . S
O199 Zn198 2.032 . S
O199 C203 1.278 . S
C200 O201 1.203 . S
C200 O207 1.267 . S
O201 C200 1.203 . S
O202 C195 1.185 . S
O202 Zn198 2.086 . S
C203 O199 1.278 . S
C203 O204 1.211 . S
O204 C203 1.211 . S
C205 O197 1.284 . S
C205 O206 1.273 . S
O206 C205 1.273 . S
O207 Zn198 1.977 . S
O207 C200 1.267 . S
C208 O209 1.160 . S
C208 O215 1.185 . S
O209 C208 1.160 . S
O210 Zn211 1.899 . S
O210 C218 1.284 . S
Zn211 O210 1.899 . S
Zn211 O212 2.032 . S
Zn211 O215 2.086 . S
Zn211 O220 1.977 . S
O212 Zn211 2.032 . S
O212 C216 1.278 . S
C213 O214 1.203 . S
C213 O220 1.267 . S
O214 C213 1.203 . S
O215 C208 1.185 . S
O215 Zn211 2.086 . S
C216 O212 1.278 . S
C216 O217 1.211 . S
O217 C216 1.211 . S
C218 O210 1.284 . S
C218 O219 1.273 . S
O219 C218 1.273 . S
O220 Zn211 1.977 . S
O220 C213 1.267 . S
C221 O222 1.160 . S
C221 O228 1.185 . S
O222 C221 1.160 . S
O223 Zn224 1.899 . S
O223 C231 1.284 . S
Zn224 O223 1.899 . S
Zn224 O225 2.032 . S
Zn224 O228 2.086 . S
Zn224 O233 1.977 . S
O225 Zn224 2.032 . S
O225 C229 1.278 . S
C226 O227 1.203 . S
C226 O233 1.267 . S
O227 C226 1.203 . S
O228 C221 1.185 . S
O228 Zn224 2.086 . S
C229 O225 1.278 . S
C229 O230 1.211 . S
O230 C229 1.211 . S
C231 O223 1.284 . S
C231 O232 1.273 . S
O232 C231 1.273 . S
O233 Zn224 1.977 . S
O233 C226 1.267 . S
C234 O235 1.160 . S
C234 O241 1.185 . S
O235 C234 1.160 . S
O236 Zn237 1.899 . S
O236 C244 1.284 . S
Zn237 O236 1.899 . S
Zn237 O238 2.032 1_554 S
Zn237 O241 2.086 . S
Zn237 O246 1.977 . S
O238 Zn237 2.032 1_556 S
O238 C242 1.278 . S
C239 O240 1.203 . S
C239 O246 1.267 . S
O240 C239 1.203 . S
O241 C234 1.185 . S
O241 Zn237 2.086 . S
C242 O238 1.278 . S
C242 O243 1.211 . S
O243 C242 1.211 . S
C244 O236 1.284 . S
C244 O245 1.273 . S
O245 C244 1.273 . S
O246 Zn237 1.977 . S
O246 C239 1.267 . S
C247 O248 1.160 . S
C247 O254 1.185 . S
O248 C247 1.160 . S
O249 Zn250 1.899 . S
O249 C257 1.284 . S
Zn250 O249 1.899 . S
Zn250 O251 2.032 . S
Zn250 O254 2.086 . S
Zn250 O259 1.977 . S
O251 Zn250 2.032 . S
O251 C255 1.278 . S
C252 O253 1.203 . S
C252 O259 1.267 . S
O253 C252 1.203 . S
O254 C247 1.185 . S
O254 Zn250 2.086 . S
C255 O251 1.278 . S
C255 O256 1.211 . S
O256 C255 1.211 . S
C257 O249 1.284 . S
C257 O258 1.273 . S
O258 C257 1.273 . S
O259 Zn250 1.977 . S
O259 C252 1.267 . S
C260 O261 1.160 . S
C260 O267 1.185 . S
O261 C260 1.160 . S
O262 Zn263 1.899 . S
O262 C270 1.284 . S
Zn263 O262 1.899 . S
Zn263 O264 2.032 . S
Zn263 O267 2.086 . S
Zn263 O272 1.977 . S
O264 Zn263 2.032 . S
O264 C268 1.278 . S
C265 O266 1.203 . S
C265 O272 1.267 . S
O266 C265 1.203 . S
O267 C260 1.185 . S
O267 Zn263 2.086 . S
C268 O264 1.278 . S
C268 O269 1.211 . S
O269 C268 1.211 . S
C270 O262 1.284 . S
C270 O271 1.273 . S
O271 C270 1.273 . S
O272 Zn263 1.977 . S
O272 C265 1.267 . S
C273 O274 1.160 . S
C273 O280 1.185 . S
O274 C273 1.160 . S
O275 Zn276 1.899 . S
O275 C283 1.284 . S
Zn276 O275 1.899 . S
Zn276 O277 2.032 . S
Zn276 O280 2.086 . S
Zn276 O285 1.977 . S
O277 Zn276 2.032 . S
O277 C281 1.278 . S
C278 O279 1.203 . S
C278 O285 1.267 . S
O279 C278 1.203 . S
O280 C273 1.185 . S
O280 Zn276 2.086 . S
C281 O277 1.278 . S
C281 O282 1.211 . S
O282 C281 1.211 . S
C283 O275 1.284 . S
C283 O284 1.273 . S
O284 C283 1.273 . S
O285 Zn276 1.977 . S
O285 C278 1.267 . S
C286 O287 1.160 . S
C286 O293 1.185 . S
O287 C286 1.160 . S
O288 Zn289 1.899 1_556 S
O288 C296 1.284 . S
Zn289 O288 1.899 1_554 S
Zn289 O290 2.032 . S
Zn289 O293 2.086 . S
Zn289 O298 1.977 . S
O290 Zn289 2.032 . S
O290 C294 1.278 . S
C291 O292 1.203 . S
C291 O298 1.267 . S
O292 C291 1.203 . S
O293 C286 1.185 . S
O293 Zn289 2.086 . S
C294 O290 1.278 . S
C294 O295 1.211 . S
O295 C294 1.211 . S
C296 O288 1.284 . S
C296 O297 1.273 . S
O297 C296 1.273 . S
O298 Zn289 1.977 . S
O298 C291 1.267 . S
C299 O300 1.160 . S
C299 O306 1.185 . S
O300 C299 1.160 . S
O301 Zn302 1.899 . S
O301 C309 1.284 . S
Zn302 O301 1.899 . S
Zn302 O303 2.032 . S
Zn302 O306 2.086 . S
Zn302 O311 1.977 . S
O303 Zn302 2.032 . S
O303 C307 1.278 . S
C304 O305 1.203 . S
C304 O311 1.267 . S
O305 C304 1.203 . S
O306 C299 1.185 . S
O306 Zn302 2.086 . S
C307 O303 1.278 . S
C307 O308 1.211 . S
O308 C307 1.211 . S
C309 O301 1.284 . S
C309 O310 1.273 . S
O310 C309 1.273 . S
O311 Zn302 1.977 . S
O311 C304 1.267 . S
C312 O313 1.160 . S
C312 O319 1.185 . S
O313 C312 1.160 . S
O314 Zn315 1.899 . S
O314 C322 1.284 . S
Zn315 O314 1.899 . S
Zn315 O316 2.032 . S
Zn315 O319 2.086 . S
Zn315 O324 1.977 . S
O316 Zn315 2.032 . S
O316 C320 1.278 . S
C317 O318 1.203 . S
C317 O324 1.267 . S
O318 C317 1.203 . S
O319 C312 1.185 . S
O319 Zn315 2.086 . S
C320 O316 1.278 . S
C320 O321 1.211 . S
O321 C320 1.211 . S
C322 O314 1.284 . S
C322 O323 1.273 . S
O323 C322 1.273 . S
O324 Zn315 1.977 . S
O324 C317 1.267 . S
C325 O326 1.160 . S
C325 O332 1.185 . S
O326 C325 1.160 . S
O327 Zn328 1.899 . S
O327 C335 1.284 . S
Zn328 O327 1.899 . S
Zn328 O329 2.032 . S
Zn328 O332 2.086 . S
Zn328 O337 1.977 . S
O329 Zn328 2.032 . S
O329 C333 1.278 . S
C330 O331 1.203 . S
C330 O337 1.267 . S
O331 C330 1.203 . S
O332 C325 1.185 . S
O332 Zn328 2.086 . S
C333 O329 1.278 . S
C333 O334 1.211 . S
O334 C333 1.211 . S
C335 O327 1.284 . S
C335 O336 1.273 . S
O336 C335 1.273 . S
O337 Zn328 1.977 . S
O337 C330 1.267 . S
C338 O339 1.160 . S
C338 O345 1.185 . S
O339 C338 1.160 . S
O340 Zn341 1.899 1_556 S
O340 C348 1.284 . S
Zn341 O340 1.899 1_554 S
Zn341 O342 2.032 . S
Zn341 O345 2.086 . S
Zn341 O350 1.977 . S
O342 Zn341 2.032 . S
O342 C346 1.278 . S
C343 O344 1.203 . S
C343 O350 1.267 . S
O344 C343 1.203 . S
O345 C338 1.185 . S
O345 Zn341 2.086 . S
C346 O342 1.278 . S
C346 O347 1.211 . S
O347 C346 1.211 . S
C348 O340 1.284 . S
C348 O349 1.273 . S
O349 C348 1.273 . S
O350 Zn341 1.977 . S
O350 C343 1.267 . S
C351 O352 1.160 . S
C351 O358 1.185 . S
O352 C351 1.160 . S
O353 Zn354 1.899 . S
O353 C361 1.284 . S
Zn354 O353 1.899 . S
Zn354 O355 2.032 . S
Zn354 O358 2.086 . S
Zn354 O363 1.977 . S
O355 Zn354 2.032 . S
O355 C359 1.278 . S
C356 O357 1.203 . S
C356 O363 1.267 . S
O357 C356 1.203 . S
O358 C351 1.185 . S
O358 Zn354 2.086 . S
C359 O355 1.278 . S
C359 O360 1.211 . S
O360 C359 1.211 . S
C361 O353 1.284 . S
C361 O362 1.273 . S
O362 C361 1.273 . S
O363 Zn354 1.977 . S
O363 C356 1.267 . S
C364 O365 1.160 . S
C364 O371 1.185 . S
O365 C364 1.160 . S
O366 Zn367 1.899 . S
O366 C374 1.284 . S
Zn367 O366 1.899 . S
Zn367 O368 2.032 . S
Zn367 O371 2.086 . S
Zn367 O376 1.977 . S
O368 Zn367 2.032 . S
O368 C372 1.278 . S
C369 O370 1.203 . S
C369 O376 1.267 . S
O370 C369 1.203 . S
O371 C364 1.185 . S
O371 Zn367 2.086 . S
C372 O368 1.278 . S
C372 O373 1.211 . S
O373 C372 1.211 . S
C374 O366 1.284 . S
C374 O375 1.273 . S
O375 C374 1.273 . S
O376 Zn367 1.977 . S
O376 C369 1.267 . S
C377 O378 1.160 . S
C377 O384 1.185 . S
O378 C377 1.160 . S
O379 Zn380 1.899 . S
O379 C387 1.284 . S
Zn380 O379 1.899 . S
Zn380 O381 2.032 . S
Zn380 O384 2.086 . S
Zn380 O389 1.977 . S
O381 Zn380 2.032 . S
O381 C385 1.278 . S
C382 O383 1.203 . S
C382 O389 1.267 . S
O383 C382 1.203 . S
O384 C377 1.185 . S
O384 Zn380 2.086 . S
C385 O381 1.278 . S
C385 O386 1.211 . S
O386 C385 1.211 . S
C387 O379 1.284 . S
C387 O388 1.273 . S
O388 C387 1.273 . S
O389 Zn380 1.977 . S
O389 C382 1.267 . S
C390 O391 1.160 . S
C390 O397 1.185 . S
O391 C390 1.160 . S
O392 Zn393 1.899 . S
O392 C400 1.284 . S
Zn393 O392 1.899 . S
Zn393 O394 2.032 1_554 S
Zn393 O397 2.086 . S
Zn393 O402 1.977 . S
O394 Zn393 2.032 1_556 S
O394 C398 1.278 . S
C395 O396 1.203 . S
C395 O402 1.267 . S
O396 C395 1.203 . S
O397 C390 1.185 . S
O397 Zn393 2.086 . S
C398 O394 1.278 . S
C398 O399 1.211 . S
O399 C398 1.211 . S
C400 O392 1.284 . S
C400 O401 1.273 . S
O401 C400 1.273 . S
O402 Zn393 1.977 . S
O402 C395 1.267 . S
C403 O404 1.160 . S
C403 O410 1.185 . S
O404 C403 1.160 . S
O405 Zn406 1.899 . S
O405 C413 1.284 . S
Zn406 O405 1.899 . S
Zn406 O407 2.032 . S
Zn406 O410 2.086 . S
Zn406 O415 1.977 . S
O407 Zn406 2.032 . S
O407 C411 1.278 . S
C408 O409 1.203 . S
C408 O415 1.267 . S
O409 C408 1.203 . S
O410 C403 1.185 . S
O410 Zn406 2.086 . S
C411 O407 1.278 . S
C411 O412 1.211 . S
O412 C411 1.211 . S
C413 O405 1.284 . S
C413 O414 1.273 . S
O414 C413 1.273 . S
O415 Zn406 1.977 . S
O415 C408 1.267 . S
C416 C417 1.369 . S
C416 C418 1.419 . S
C416 H420 0.930 . S
C417 C416 1.369 . S
C417 C426 1.429 . S
C418 C416 1.419 . S
C418 C419 1.363 . S
C418 H421 0.929 1_556 S
C419 C418 1.363 . S
C419 C425 1.428 . S
H420 C416 0.930 . S
H421 C418 0.929 1_554 S
S422 N423 1.613 . S
S422 N424 1.610 . S
N423 S422 1.613 . S
N423 C426 1.350 . S
N424 S422 1.610 . S
N424 C425 1.351 . S
C425 C419 1.428 . S
C425 N424 1.351 . S
C425 C426 1.434 . S
C426 C417 1.429 . S
C426 N423 1.350 . S
C426 C425 1.434 . S
C427 C428 1.369 . S
C427 C429 1.419 . S
C427 H431 0.930 . S
C428 C427 1.369 . S
C428 C437 1.429 . S
C429 C427 1.419 . S
C429 C430 1.363 . S
C429 H432 0.929 . S
C430 C429 1.363 . S
C430 C436 1.428 . S
H431 C427 0.930 . S
H432 C429 0.929 . S
S433 N434 1.613 . S
S433 N435 1.610 . S
N434 S433 1.613 . S
N434 C437 1.350 . S
N435 S433 1.610 . S
N435 C436 1.351 . S
C436 C430 1.428 . S
C436 N435 1.351 . S
C436 C437 1.434 . S
C437 C428 1.429 . S
C437 N434 1.350 . S
C437 C436 1.434 . S
C438 C439 1.369 . S
C438 C440 1.419 . S
C438 H442 0.930 . S
C439 C438 1.369 . S
C439 C448 1.429 . S
C440 C438 1.419 . S
C440 C441 1.363 . S
C440 H443 0.929 . S
C441 C440 1.363 . S
C441 C447 1.428 . S
H442 C438 0.930 . S
H443 C440 0.929 . S
S444 N445 1.613 . S
S444 N446 1.610 . S
N445 S444 1.613 . S
N445 C448 1.350 . S
N446 S444 1.610 . S
N446 C447 1.351 . S
C447 C441 1.428 . S
C447 N446 1.351 . S
C447 C448 1.434 . S
C448 C439 1.429 . S
C448 N445 1.350 . S
C448 C447 1.434 . S
C449 C450 1.369 . S
C449 C451 1.419 . S
C449 H453 0.930 . S
C450 C449 1.369 . S
C450 C459 1.429 . S
C451 C449 1.419 . S
C451 C452 1.363 . S
C451 H454 0.929 . S
C452 C451 1.363 . S
C452 C458 1.428 . S
H453 C449 0.930 . S
H454 C451 0.929 . S
S455 N456 1.613 . S
S455 N457 1.610 . S
N456 S455 1.613 . S
N456 C459 1.350 . S
N457 S455 1.610 . S
N457 C458 1.351 . S
C458 C452 1.428 . S
C458 N457 1.351 . S
C458 C459 1.434 . S
C459 C450 1.429 . S
C459 N456 1.350 . S
C459 C458 1.434 . S
C460 C461 1.369 . S
C460 C462 1.419 . S
C460 H464 0.930 . S
C461 C460 1.369 . S
C461 C470 1.429 . S
C462 C460 1.419 . S
C462 C463 1.363 . S
C462 H465 0.929 . S
C463 C462 1.363 . S
C463 C469 1.428 . S
H464 C460 0.930 . S
H465 C462 0.929 . S
S466 N467 1.613 . S
S466 N468 1.610 . S
N467 S466 1.613 . S
N467 C470 1.350 . S
N468 S466 1.610 . S
N468 C469 1.351 . S
C469 C463 1.428 . S
C469 N468 1.351 . S
C469 C470 1.434 . S
C470 C461 1.429 . S
C470 N467 1.350 . S
C470 C469 1.434 . S
C471 C472 1.369 . S
C471 C473 1.419 1_556 S
C471 H475 0.930 . S
C472 C471 1.369 . S
C472 C481 1.429 . S
C473 C471 1.419 1_554 S
C473 C474 1.363 1_554 S
C473 H476 0.929 . S
C474 C473 1.363 1_556 S
C474 C480 1.428 . S
H475 C471 0.930 . S
H476 C473 0.929 . S
S477 N478 1.613 . S
S477 N479 1.610 . S
N478 S477 1.613 . S
N478 C481 1.350 . S
N479 S477 1.610 . S
N479 C480 1.351 . S
C480 C474 1.428 . S
C480 N479 1.351 . S
C480 C481 1.434 . S
C481 C472 1.429 . S
C481 N478 1.350 . S
C481 C480 1.434 . S
C482 C483 1.369 . S
C482 C484 1.419 . S
C482 H486 0.930 . S
C483 C482 1.369 . S
C483 C492 1.429 . S
C484 C482 1.419 . S
C484 C485 1.363 . S
C484 H487 0.929 . S
C485 C484 1.363 . S
C485 C491 1.428 . S
H486 C482 0.930 . S
H487 C484 0.929 . S
S488 N489 1.613 . S
S488 N490 1.610 . S
N489 S488 1.613 . S
N489 C492 1.350 . S
N490 S488 1.610 . S
N490 C491 1.351 . S
C491 C485 1.428 . S
C491 N490 1.351 . S
C491 C492 1.434 . S
C492 C483 1.429 . S
C492 N489 1.350 . S
C492 C491 1.434 . S
C493 C494 1.369 . S
C493 C495 1.419 . S
C493 H497 0.930 . S
C494 C493 1.369 . S
C494 C503 1.429 . S
C495 C493 1.419 . S
C495 C496 1.363 . S
C495 H498 0.929 . S
C496 C495 1.363 . S
C496 C502 1.428 . S
H497 C493 0.930 . S
H498 C495 0.929 . S
S499 N500 1.613 . S
S499 N501 1.610 . S
N500 S499 1.613 . S
N500 C503 1.350 . S
N501 S499 1.610 . S
N501 C502 1.351 . S
C502 C496 1.428 . S
C502 N501 1.351 . S
C502 C503 1.434 . S
C503 C494 1.429 . S
C503 N500 1.350 . S
C503 C502 1.434 . S
C504 C505 1.369 . S
C504 C506 1.419 . S
C504 H508 0.930 . S
C505 C504 1.369 . S
C505 C514 1.429 . S
C506 C504 1.419 . S
C506 C507 1.363 . S
C506 H509 0.929 . S
C507 C506 1.363 . S
C507 C513 1.428 . S
H508 C504 0.930 . S
H509 C506 0.929 . S
S510 N511 1.613 . S
S510 N512 1.610 . S
N511 S510 1.613 . S
N511 C514 1.350 . S
N512 S510 1.610 . S
N512 C513 1.351 . S
C513 C507 1.428 . S
C513 N512 1.351 . S
C513 C514 1.434 . S
C514 C505 1.429 . S
C514 N511 1.350 . S
C514 C513 1.434 . S
C515 C516 1.369 . S
C515 C517 1.419 . S
C515 H519 0.930 . S
C516 C515 1.369 . S
C516 C525 1.429 . S
C517 C515 1.419 . S
C517 C518 1.363 . S
C517 H520 0.929 . S
C518 C517 1.363 . S
C518 C524 1.428 . S
H519 C515 0.930 . S
H520 C517 0.929 . S
S521 N522 1.613 . S
S521 N523 1.610 . S
N522 S521 1.613 . S
N522 C525 1.350 . S
N523 S521 1.610 . S
N523 C524 1.351 . S
C524 C518 1.428 . S
C524 N523 1.351 . S
C524 C525 1.434 . S
C525 C516 1.429 . S
C525 N522 1.350 . S
C525 C524 1.434 . S
C526 C527 1.369 . S
C526 C528 1.419 . S
C526 H530 0.930 . S
C527 C526 1.369 . S
C527 C536 1.429 . S
C528 C526 1.419 . S
C528 C529 1.363 . S
C528 H531 0.929 . S
C529 C528 1.363 . S
C529 C535 1.428 . S
H530 C526 0.930 . S
H531 C528 0.929 . S
S532 N533 1.613 . S
S532 N534 1.610 1_556 S
N533 S532 1.613 . S
N533 C536 1.350 . S
N534 S532 1.610 1_554 S
N534 C535 1.351 1_554 S
C535 C529 1.428 . S
C535 N534 1.351 1_556 S
C535 C536 1.434 . S
C536 C527 1.429 . S
C536 N533 1.350 . S
C536 C535 1.434 . S
C537 C538 1.369 . S
C537 C539 1.419 . S
C537 H541 0.930 . S
C538 C537 1.369 . S
C538 C547 1.429 . S
C539 C537 1.419 . S
C539 C540 1.363 . S
C539 H542 0.929 . S
C540 C539 1.363 . S
C540 C546 1.428 . S
H541 C537 0.930 . S
H542 C539 0.929 . S
S543 N544 1.613 . S
S543 N545 1.610 . S
N544 S543 1.613 . S
N544 C547 1.350 . S
N545 S543 1.610 . S
N545 C546 1.351 . S
C546 C540 1.428 . S
C546 N545 1.351 . S
C546 C547 1.434 . S
C547 C538 1.429 . S
C547 N544 1.350 . S
C547 C546 1.434 . S
C548 C549 1.369 . S
C548 C550 1.419 . S
C548 H552 0.930 . S
C549 C548 1.369 . S
C549 C558 1.429 . S
C550 C548 1.419 . S
C550 C551 1.363 . S
C550 H553 0.929 . S
C551 C550 1.363 . S
C551 C557 1.428 . S
H552 C548 0.930 . S
H553 C550 0.929 . S
S554 N555 1.613 . S
S554 N556 1.610 . S
N555 S554 1.613 . S
N555 C558 1.350 . S
N556 S554 1.610 . S
N556 C557 1.351 . S
C557 C551 1.428 . S
C557 N556 1.351 . S
C557 C558 1.434 . S
C558 C549 1.429 . S
C558 N555 1.350 . S
C558 C557 1.434 . S
C559 C560 1.369 . S
C559 C561 1.419 . S
C559 H563 0.930 . S
C560 C559 1.369 . S
C560 C569 1.429 . S
C561 C559 1.419 . S
C561 C562 1.363 . S
C561 H564 0.929 . S
C562 C561 1.363 . S
C562 C568 1.428 . S
H563 C559 0.930 . S
H564 C561 0.929 . S
S565 N566 1.613 . S
S565 N567 1.610 . S
N566 S565 1.613 . S
N566 C569 1.350 . S
N567 S565 1.610 . S
N567 C568 1.351 . S
C568 C562 1.428 . S
C568 N567 1.351 . S
C568 C569 1.434 . S
C569 C560 1.429 . S
C569 N566 1.350 . S
C569 C568 1.434 . S
C570 C571 1.369 . S
C570 C572 1.419 . S
C570 H574 0.930 . S
C571 C570 1.369 . S
C571 C580 1.429 . S
C572 C570 1.419 . S
C572 C573 1.363 . S
C572 H575 0.929 . S
C573 C572 1.363 . S
C573 C579 1.428 . S
H574 C570 0.930 . S
H575 C572 0.929 . S
S576 N577 1.613 . S
S576 N578 1.610 . S
N577 S576 1.613 . S
N577 C580 1.350 . S
N578 S576 1.610 . S
N578 C579 1.351 . S
C579 C573 1.428 . S
C579 N578 1.351 . S
C579 C580 1.434 . S
C580 C571 1.429 . S
C580 N577 1.350 . S
C580 C579 1.434 . S
C581 C582 1.369 . S
C581 C583 1.419 . S
C581 H585 0.930 . S
C582 C581 1.369 . S
C582 C591 1.429 . S
C583 C581 1.419 . S
C583 C584 1.363 . S
C583 H586 0.929 . S
C584 C583 1.363 . S
C584 C590 1.428 . S
H585 C581 0.930 . S
H586 C583 0.929 . S
S587 N588 1.613 . S
S587 N589 1.610 . S
N588 S587 1.613 . S
N588 C591 1.350 . S
N589 S587 1.610 . S
N589 C590 1.351 . S
C590 C584 1.428 . S
C590 N589 1.351 . S
C590 C591 1.434 . S
C591 C582 1.429 . S
C591 N588 1.350 . S
C591 C590 1.434 . S
C592 C593 1.369 . S
C592 C594 1.419 . S
C592 H596 0.930 . S
C593 C592 1.369 . S
C593 C602 1.429 . S
C594 C592 1.419 . S
C594 C595 1.363 . S
C594 H597 0.929 . S
C595 C594 1.363 . S
C595 C601 1.428 . S
H596 C592 0.930 . S
H597 C594 0.929 . S
S598 N599 1.613 . S
S598 N600 1.610 . S
N599 S598 1.613 . S
N599 C602 1.350 . S
N600 S598 1.610 . S
N600 C601 1.351 . S
C601 C595 1.428 . S
C601 N600 1.351 . S
C601 C602 1.434 . S
C602 C593 1.429 . S
C602 N599 1.350 . S
C602 C601 1.434 . S
C603 C604 1.369 . S
C603 C605 1.419 1_554 S
C603 H607 0.930 . S
C604 C603 1.369 . S
C604 C613 1.429 1_565 S
C605 C603 1.419 1_556 S
C605 C606 1.363 1_565 S
C605 H608 0.929 . S
C606 C605 1.363 1_545 S
C606 C612 1.428 1_556 S
H607 C603 0.930 . S
H608 C605 0.929 . S
S609 N610 1.613 . S
S609 N611 1.610 . S
N610 S609 1.613 . S
N610 C613 1.350 . S
N611 S609 1.610 . S
N611 C612 1.351 . S
C612 C606 1.428 1_554 S
C612 N611 1.351 . S
C612 C613 1.434 . S
C613 C604 1.429 1_545 S
C613 N610 1.350 . S
C613 C612 1.434 . S
C614 C615 1.369 . S
C614 C616 1.419 . S
C614 H618 0.930 . S
C615 C614 1.369 . S
C615 C624 1.429 . S
C616 C614 1.419 . S
C616 C617 1.363 . S
C616 H619 0.929 . S
C617 C616 1.363 . S
C617 C623 1.428 . S
H618 C614 0.930 . S
H619 C616 0.929 . S
S620 N621 1.613 . S
S620 N622 1.610 . S
N621 S620 1.613 . S
N621 C624 1.350 . S
N622 S620 1.610 . S
N622 C623 1.351 . S
C623 C617 1.428 . S
C623 N622 1.351 . S
C623 C624 1.434 . S
C624 C615 1.429 . S
C624 N621 1.350 . S
C624 C623 1.434 . S
C625 C626 1.369 . S
C625 C627 1.419 . S
C625 H629 0.930 . S
C626 C625 1.369 . S
C626 C635 1.429 1_545 S
C627 C625 1.419 . S
C627 C628 1.363 1_545 S
C627 H630 0.929 . S
C628 C627 1.363 1_565 S
C628 C634 1.428 . S
H629 C625 0.930 . S
H630 C627 0.929 . S
S631 N632 1.613 . S
S631 N633 1.610 . S
N632 S631 1.613 . S
N632 C635 1.350 . S
N633 S631 1.610 . S
N633 C634 1.351 . S
C634 C628 1.428 . S
C634 N633 1.351 . S
C634 C635 1.434 . S
C635 C626 1.429 1_565 S
C635 N632 1.350 . S
C635 C634 1.434 . S
C636 C637 1.369 . S
C636 C638 1.419 . S
C636 H640 0.930 . S
C637 C636 1.369 . S
C637 C646 1.429 . S
C638 C636 1.419 . S
C638 C639 1.363 . S
C638 H641 0.929 . S
C639 C638 1.363 . S
C639 C645 1.428 . S
H640 C636 0.930 . S
H641 C638 0.929 . S
S642 N643 1.613 . S
S642 N644 1.610 . S
N643 S642 1.613 . S
N643 C646 1.350 . S
N644 S642 1.610 . S
N644 C645 1.351 . S
C645 C639 1.428 . S
C645 N644 1.351 . S
C645 C646 1.434 . S
C646 C637 1.429 . S
C646 N643 1.350 . S
C646 C645 1.434 . S
C647 C648 1.369 1_554 S
C647 C649 1.441 . S
C647 H651 0.930 . S
C648 C647 1.369 1_556 S
C648 C657 1.402 1_545 S
C649 C647 1.441 . S
C649 C650 1.338 1_545 S
C649 H652 0.933 . S
C650 C649 1.338 1_565 S
C650 C656 1.428 . S
H651 C647 0.930 . S
H652 C649 0.933 . S
S653 N654 1.613 1_554 S
S653 N655 1.610 . S
N654 S653 1.613 1_556 S
N654 C657 1.362 . S
N655 S653 1.610 . S
N655 C656 1.351 . S
C656 C650 1.428 . S
C656 N655 1.351 . S
C656 C657 1.452 1_554 S
C657 C648 1.402 1_565 S
C657 N654 1.362 . S
C657 C656 1.452 1_556 S
C658 C659 1.369 . S
C658 C660 1.419 . S
C658 H662 0.930 . S
C659 C658 1.369 . S
C659 C668 1.429 . S
C660 C658 1.419 . S
C660 C661 1.363 . S
C660 H663 0.929 . S
C661 C660 1.363 . S
C661 C667 1.428 . S
H662 C658 0.930 . S
H663 C660 0.929 . S
S664 N665 1.613 . S
S664 N666 1.610 . S
N665 S664 1.613 . S
N665 C668 1.350 . S
N666 S664 1.610 . S
N666 C667 1.351 . S
C667 C661 1.428 . S
C667 N666 1.351 . S
C667 C668 1.434 . S
C668 C659 1.429 . S
C668 N665 1.350 . S
C668 C667 1.434 . S
C669 C670 1.369 . S
C669 C671 1.419 . S
C669 H673 0.930 . S
C670 C669 1.369 . S
C670 C679 1.429 1_545 S
C671 C669 1.419 . S
C671 C672 1.363 1_545 S
C671 H674 0.929 . S
C672 C671 1.363 1_565 S
C672 C678 1.428 . S
H673 C669 0.930 . S
H674 C671 0.929 . S
S675 N676 1.613 . S
S675 N677 1.610 . S
N676 S675 1.613 . S
N676 C679 1.350 . S
N677 S675 1.610 . S
N677 C678 1.351 . S
C678 C672 1.428 . S
C678 N677 1.351 . S
C678 C679 1.434 . S
C679 C670 1.429 1_565 S
C679 N676 1.350 . S
C679 C678 1.434 . S
C680 C681 1.369 . S
C680 C682 1.419 . S
C680 H684 0.930 . S
C681 C680 1.369 . S
C681 C690 1.429 . S
C682 C680 1.419 . S
C682 C683 1.363 . S
C682 H685 0.929 . S
C683 C682 1.363 . S
C683 C689 1.428 . S
H684 C680 0.930 . S
H685 C682 0.929 . S
S686 N687 1.613 . S
S686 N688 1.610 . S
N687 S686 1.613 . S
N687 C690 1.350 . S
N688 S686 1.610 . S
N688 C689 1.351 . S
C689 C683 1.428 . S
C689 N688 1.351 . S
C689 C690 1.434 . S
C690 C681 1.429 . S
C690 N687 1.350 . S
C690 C689 1.434 . S
C691 C692 1.369 . S
C691 C693 1.419 . S
C691 H695 0.930 . S
C692 C691 1.369 . S
C692 C701 1.429 . S
C693 C691 1.419 . S
C693 C694 1.363 . S
C693 H696 0.929 . S
C694 C693 1.363 . S
C694 C700 1.428 . S
H695 C691 0.930 . S
H696 C693 0.929 . S
S697 N698 1.613 . S
S697 N699 1.610 . S
N698 S697 1.613 . S
N698 C701 1.350 . S
N699 S697 1.610 . S
N699 C700 1.351 . S
C700 C694 1.428 . S
C700 N699 1.351 . S
C700 C701 1.434 . S
C701 C692 1.429 . S
C701 N698 1.350 . S
C701 C700 1.434 . S
C702 C703 1.369 . S
C702 C704 1.419 . S
C702 H706 0.930 . S
C703 C702 1.369 . S
C703 C712 1.429 . S
C704 C702 1.419 . S
C704 C705 1.363 . S
C704 H707 0.929 . S
C705 C704 1.363 . S
C705 C711 1.428 . S
H706 C702 0.930 . S
H707 C704 0.929 . S
S708 N709 1.613 . S
S708 N710 1.610 . S
N709 S708 1.613 . S
N709 C712 1.350 . S
N710 S708 1.610 . S
N710 C711 1.351 . S
C711 C705 1.428 . S
C711 N710 1.351 . S
C711 C712 1.434 . S
C712 C703 1.429 . S
C712 N709 1.350 . S
C712 C711 1.434 . S
C713 C714 1.369 . S
C713 C715 1.419 1_554 S
C713 H717 0.930 . S
C714 C713 1.369 . S
C714 C723 1.429 . S
C715 C713 1.419 1_556 S
C715 C716 1.363 . S
C715 H718 0.929 . S
C716 C715 1.363 . S
C716 C722 1.428 1_556 S
H717 C713 0.930 . S
H718 C715 0.929 . S
S719 N720 1.613 . S
S719 N721 1.610 . S
N720 S719 1.613 . S
N720 C723 1.350 . S
N721 S719 1.610 . S
N721 C722 1.351 . S
C722 C716 1.428 1_554 S
C722 N721 1.351 . S
C722 C723 1.434 . S
C723 C714 1.429 . S
C723 N720 1.350 . S
C723 C722 1.434 . S
C724 C725 1.369 . S
C724 C726 1.419 . S
C724 H728 0.930 . S
C725 C724 1.369 . S
C725 C734 1.429 . S
C726 C724 1.419 . S
C726 C727 1.363 . S
C726 H729 0.929 . S
C727 C726 1.363 . S
C727 C733 1.428 . S
H728 C724 0.930 . S
H729 C726 0.929 . S
S730 N731 1.613 . S
S730 N732 1.610 . S
N731 S730 1.613 . S
N731 C734 1.350 . S
N732 S730 1.610 . S
N732 C733 1.351 . S
C733 C727 1.428 . S
C733 N732 1.351 . S
C733 C734 1.434 . S
C734 C725 1.429 . S
C734 N731 1.350 . S
C734 C733 1.434 . S
C735 C736 1.369 . S
C735 C737 1.419 . S
C735 H739 0.930 . S
C736 C735 1.369 . S
C736 C745 1.429 . S
C737 C735 1.419 . S
C737 C738 1.363 . S
C737 H740 0.929 . S
C738 C737 1.363 . S
C738 C744 1.428 . S
H739 C735 0.930 . S
H740 C737 0.929 . S
S741 N742 1.613 . S
S741 N743 1.610 . S
N742 S741 1.613 . S
N742 C745 1.350 . S
N743 S741 1.610 . S
N743 C744 1.351 . S
C744 C738 1.428 . S
C744 N743 1.351 . S
C744 C745 1.434 . S
C745 C736 1.429 . S
C745 N742 1.350 . S
C745 C744 1.434 . S
C746 C747 1.369 . S
C746 C748 1.419 . S
C746 H750 0.930 . S
C747 C746 1.369 . S
C747 C756 1.429 . S
C748 C746 1.419 . S
C748 C749 1.363 . S
C748 H751 0.929 . S
C749 C748 1.363 . S
C749 C755 1.428 . S
H750 C746 0.930 . S
H751 C748 0.929 . S
S752 N753 1.613 . S
S752 N754 1.610 . S
N753 S752 1.613 . S
N753 C756 1.350 . S
N754 S752 1.610 . S
N754 C755 1.351 . S
C755 C749 1.428 . S
C755 N754 1.351 . S
C755 C756 1.434 . S
C756 C747 1.429 . S
C756 N753 1.350 . S
C756 C755 1.434 . S
C757 C758 1.369 . S
C757 C759 1.419 . S
C757 H761 0.930 . S
C758 C757 1.369 . S
C758 C767 1.429 . S
C759 C757 1.419 . S
C759 C760 1.363 1_554 S
C759 H762 0.929 . S
C760 C759 1.363 1_556 S
C760 C766 1.428 1_556 S
H761 C757 0.930 . S
H762 C759 0.929 . S
S763 N764 1.613 . S
S763 N765 1.610 1_554 S
N764 S763 1.613 . S
N764 C767 1.350 . S
N765 S763 1.610 1_556 S
N765 C766 1.351 1_556 S
C766 C760 1.428 1_554 S
C766 N765 1.351 1_554 S
C766 C767 1.434 . S
C767 C758 1.429 . S
C767 N764 1.350 . S
C767 C766 1.434 . S
C768 C769 1.369 . S
C768 C770 1.419 . S
C768 H772 0.930 . S
C769 C768 1.369 . S
C769 C778 1.429 . S
C770 C768 1.419 . S
C770 C771 1.363 . S
C770 H773 0.929 . S
C771 C770 1.363 . S
C771 C777 1.428 . S
H772 C768 0.930 . S
H773 C770 0.929 . S
S774 N775 1.613 . S
S774 N776 1.610 . S
N775 S774 1.613 . S
N775 C778 1.350 . S
N776 S774 1.610 . S
N776 C777 1.351 . S
C777 C771 1.428 . S
C777 N776 1.351 . S
C777 C778 1.434 . S
C778 C769 1.429 . S
C778 N775 1.350 . S
C778 C777 1.434 . S
C779 C780 1.369 . S
C779 C781 1.419 1_455 S
C779 H783 0.930 . S
C780 C779 1.369 . S
C780 C789 1.429 . S
C781 C779 1.419 1_655 S
C781 C782 1.363 . S
C781 H784 0.929 . S
C782 C781 1.363 . S
C782 C788 1.428 . S
H783 C779 0.930 . S
H784 C781 0.929 . S
S785 N786 1.617 1_655 S
S785 N787 1.606 . S
N786 S785 1.617 1_455 S
N786 C789 1.350 . S
N787 S785 1.606 . S
N787 C788 1.351 . S
C788 C782 1.428 . S
C788 N787 1.351 . S
C788 C789 1.434 1_655 S
C789 C780 1.429 . S
C789 N786 1.350 . S
C789 C788 1.434 1_455 S
C790 C791 1.369 . S
C790 C792 1.419 . S
C790 H794 0.930 . S
C791 C790 1.369 . S
C791 C800 1.429 . S
C792 C790 1.419 . S
C792 C793 1.363 . S
C792 H795 0.929 . S
C793 C792 1.363 . S
C793 C799 1.428 . S
H794 C790 0.930 . S
H795 C792 0.929 . S
S796 N797 1.613 . S
S796 N798 1.610 . S
N797 S796 1.613 . S
N797 C800 1.350 . S
N798 S796 1.610 . S
N798 C799 1.351 . S
C799 C793 1.428 . S
C799 N798 1.351 . S
C799 C800 1.434 . S
C800 C791 1.429 . S
C800 N797 1.350 . S
C800 C799 1.434 . S
C801 C802 1.369 . S
C801 C803 1.419 . S
C801 H805 0.930 . S
C802 C801 1.369 . S
C802 C811 1.429 . S
C803 C801 1.419 . S
C803 C804 1.363 . S
C803 H806 0.929 . S
C804 C803 1.363 . S
C804 C810 1.428 . S
H805 C801 0.930 . S
H806 C803 0.929 . S
S807 N808 1.613 . S
S807 N809 1.610 . S
N808 S807 1.613 . S
N808 C811 1.350 . S
N809 S807 1.610 . S
N809 C810 1.351 . S
C810 C804 1.428 . S
C810 N809 1.351 . S
C810 C811 1.434 . S
C811 C802 1.429 . S
C811 N808 1.350 . S
C811 C810 1.434 . S
C812 C813 1.369 . S
C812 C814 1.419 . S
C812 H816 0.930 1_554 S
C813 C812 1.369 . S
C813 C822 1.429 . S
C814 C812 1.419 . S
C814 C815 1.363 . S
C814 H817 0.929 1_554 S
C815 C814 1.363 . S
C815 C821 1.428 . S
H816 C812 0.930 1_556 S
H817 C814 0.929 1_556 S
S818 N819 1.613 . S
S818 N820 1.610 . S
N819 S818 1.613 . S
N819 C822 1.350 . S
N820 S818 1.610 . S
N820 C821 1.351 . S
C821 C815 1.428 . S
C821 N820 1.351 . S
C821 C822 1.434 . S
C822 C813 1.429 . S
C822 N819 1.350 . S
C822 C821 1.434 . S
C823 C824 1.369 . S
C823 C825 1.419 . S
C823 H827 0.930 . S
C824 C823 1.369 . S
C824 C833 1.429 . S
C825 C823 1.419 . S
C825 C826 1.363 . S
C825 H828 0.929 . S
C826 C825 1.363 . S
C826 C832 1.428 . S
H827 C823 0.930 . S
H828 C825 0.929 . S
S829 N830 1.613 . S
S829 N831 1.610 . S
N830 S829 1.613 . S
N830 C833 1.350 . S
N831 S829 1.610 . S
N831 C832 1.351 . S
C832 C826 1.428 . S
C832 N831 1.351 . S
C832 C833 1.434 . S
C833 C824 1.429 . S
C833 N830 1.350 . S
C833 C832 1.434 . S
C834 C835 1.369 . S
C834 C836 1.419 . S
C834 H838 0.930 . S
C835 C834 1.369 . S
C835 C844 1.429 . S
C836 C834 1.419 . S
C836 C837 1.363 . S
C836 H839 0.929 . S
C837 C836 1.363 . S
C837 C843 1.428 . S
H838 C834 0.930 . S
H839 C836 0.929 . S
S840 N841 1.613 . S
S840 N842 1.610 . S
N841 S840 1.613 . S
N841 C844 1.350 . S
N842 S840 1.610 . S
N842 C843 1.351 . S
C843 C837 1.428 . S
C843 N842 1.351 . S
C843 C844 1.434 . S
C844 C835 1.429 . S
C844 N841 1.350 . S
C844 C843 1.434 . S
C845 C846 1.369 . S
C845 C847 1.419 1_655 S
C845 H849 0.930 . S
C846 C845 1.369 . S
C846 C855 1.429 . S
C847 C845 1.419 1_455 S
C847 C848 1.363 . S
C847 H850 0.929 . S
C848 C847 1.363 . S
C848 C854 1.428 . S
H849 C845 0.930 . S
H850 C847 0.929 . S
S851 N852 1.617 1_455 S
S851 N853 1.606 . S
N852 S851 1.617 1_655 S
N852 C855 1.350 . S
N853 S851 1.606 . S
N853 C854 1.351 . S
C854 C848 1.428 . S
C854 N853 1.351 . S
C854 C855 1.434 1_455 S
C855 C846 1.429 . S
C855 N852 1.350 . S
C855 C854 1.434 1_655 S
C856 C857 1.369 . S
C856 C858 1.419 . S
C856 H860 0.930 . S
C857 C856 1.369 . S
C857 C866 1.429 . S
C858 C856 1.419 . S
C858 C859 1.363 . S
C858 H861 0.929 . S
C859 C858 1.363 . S
C859 C865 1.428 . S
H860 C856 0.930 . S
H861 C858 0.929 . S
S862 N863 1.613 . S
S862 N864 1.610 . S
N863 S862 1.613 . S
N863 C866 1.350 1_556 S
N864 S862 1.610 . S
N864 C865 1.351 1_556 S
C865 C859 1.428 . S
C865 N864 1.351 1_554 S
C865 C866 1.434 . S
C866 C857 1.429 . S
C866 N863 1.350 1_554 S
C866 C865 1.434 . S
C867 C868 1.369 . S
C867 C869 1.419 . S
C867 H871 0.930 . S
C868 C867 1.369 . S
C868 C877 1.429 . S
C869 C867 1.419 . S
C869 C870 1.363 . S
C869 H872 0.929 . S
C870 C869 1.363 . S
C870 C876 1.428 . S
H871 C867 0.930 . S
H872 C869 0.929 . S
S873 N874 1.613 . S
S873 N875 1.610 . S
N874 S873 1.613 . S
N874 C877 1.350 . S
N875 S873 1.610 . S
N875 C876 1.351 . S
C876 C870 1.428 . S
C876 N875 1.351 . S
C876 C877 1.434 . S
C877 C868 1.429 . S
C877 N874 1.350 . S
C877 C876 1.434 . S
C878 C879 1.369 1_556 S
C878 C880 1.419 . S
C878 H882 0.930 . S
C879 C878 1.369 1_554 S
C879 C888 1.429 . S
C880 C878 1.419 . S
C880 C881 1.363 1_556 S
C880 H883 0.929 . S
C881 C880 1.363 1_554 S
C881 C887 1.428 . S
H882 C878 0.930 . S
H883 C880 0.929 . S
S884 N885 1.613 . S
S884 N886 1.610 . S
N885 S884 1.613 . S
N885 C888 1.350 . S
N886 S884 1.610 . S
N886 C887 1.351 . S
C887 C881 1.428 . S
C887 N886 1.351 . S
C887 C888 1.434 . S
C888 C879 1.429 . S
C888 N885 1.350 . S
C888 C887 1.434 . S
C889 C890 1.369 . S
C889 C891 1.419 . S
C889 H893 0.930 . S
C890 C889 1.369 . S
C890 C899 1.429 . S
C891 C889 1.419 . S
C891 C892 1.363 . S
C891 H894 0.929 . S
C892 C891 1.363 . S
C892 C898 1.428 . S
H893 C889 0.930 . S
H894 C891 0.929 . S
S895 N896 1.613 . S
S895 N897 1.610 . S
N896 S895 1.613 . S
N896 C899 1.350 . S
N897 S895 1.610 . S
N897 C898 1.351 . S
C898 C892 1.428 . S
C898 N897 1.351 . S
C898 C899 1.434 . S
C899 C890 1.429 . S
C899 N896 1.350 . S
C899 C898 1.434 . S
C900 C901 1.369 . S
C900 C902 1.419 . S
C900 H904 0.930 . S
C901 C900 1.369 . S
C901 C910 1.429 . S
C902 C900 1.419 . S
C902 C903 1.363 . S
C902 H905 0.929 . S
C903 C902 1.363 . S
C903 C909 1.428 . S
H904 C900 0.930 . S
H905 C902 0.929 . S
S906 N907 1.613 . S
S906 N908 1.610 . S
N907 S906 1.613 . S
N907 C910 1.350 . S
N908 S906 1.610 . S
N908 C909 1.351 . S
C909 C903 1.428 . S
C909 N908 1.351 . S
C909 C910 1.434 . S
C910 C901 1.429 . S
C910 N907 1.350 . S
C910 C909 1.434 . S
C911 C912 1.369 . S
C911 C913 1.419 1_655 S
C911 H915 0.930 . S
C912 C911 1.369 . S
C912 C921 1.429 . S
C913 C911 1.419 1_455 S
C913 C914 1.363 . S
C913 H916 0.929 . S
C914 C913 1.363 . S
C914 C920 1.428 . S
H915 C911 0.930 . S
H916 C913 0.929 . S
S917 N918 1.617 1_455 S
S917 N919 1.606 . S
N918 S917 1.617 1_655 S
N918 C921 1.350 . S
N919 S917 1.606 . S
N919 C920 1.351 . S
C920 C914 1.428 . S
C920 N919 1.351 . S
C920 C921 1.434 1_455 S
C921 C912 1.429 . S
C921 N918 1.350 . S
C921 C920 1.434 1_655 S
C922 C923 1.369 . S
C922 C924 1.419 1_655 S
C922 H926 0.930 . S
C923 C922 1.369 . S
C923 C932 1.429 . S
C924 C922 1.419 1_455 S
C924 C925 1.363 . S
C924 H927 0.929 . S
C925 C924 1.363 . S
C925 C931 1.428 . S
H926 C922 0.930 . S
H927 C924 0.929 . S
S928 N929 1.617 1_455 S
S928 N930 1.606 . S
N929 S928 1.617 1_655 S
N929 C932 1.350 . S
N930 S928 1.606 . S
N930 C931 1.351 . S
C931 C925 1.428 . S
C931 N930 1.351 . S
C931 C932 1.434 1_455 S
C932 C923 1.429 . S
C932 N929 1.350 . S
C932 C931 1.434 1_655 S
C933 C934 1.369 . S
C933 C935 1.419 . S
C933 H937 0.930 . S
C934 C933 1.369 . S
C934 C943 1.429 . S
C935 C933 1.419 . S
C935 C936 1.363 . S
C935 H938 0.929 . S
C936 C935 1.363 . S
C936 C942 1.428 . S
H937 C933 0.930 . S
H938 C935 0.929 . S
S939 N940 1.613 . S
S939 N941 1.610 . S
N940 S939 1.613 . S
N940 C943 1.350 . S
N941 S939 1.610 . S
N941 C942 1.351 . S
C942 C936 1.428 . S
C942 N941 1.351 . S
C942 C943 1.434 . S
C943 C934 1.429 . S
C943 N940 1.350 . S
C943 C942 1.434 . S
C944 C945 1.369 . S
C944 C946 1.419 . S
C944 H948 0.930 . S
C945 C944 1.369 . S
C945 C954 1.429 . S
C946 C944 1.419 . S
C946 C947 1.363 . S
C946 H949 0.929 . S
C947 C946 1.363 . S
C947 C953 1.428 . S
H948 C944 0.930 . S
H949 C946 0.929 . S
S950 N951 1.613 . S
S950 N952 1.610 . S
N951 S950 1.613 . S
N951 C954 1.350 . S
N952 S950 1.610 . S
N952 C953 1.351 . S
C953 C947 1.428 . S
C953 N952 1.351 . S
C953 C954 1.434 . S
C954 C945 1.429 . S
C954 N951 1.350 . S
C954 C953 1.434 . S
C955 C956 1.369 . S
C955 C957 1.419 . S
C955 H959 0.930 . S
C956 C955 1.369 . S
C956 C965 1.429 1_565 S
C957 C955 1.419 . S
C957 C958 1.363 1_565 S
C957 H960 0.929 . S
C958 C957 1.363 1_545 S
C958 C964 1.428 . S
H959 C955 0.930 . S
H960 C957 0.929 . S
S961 N962 1.613 . S
S961 N963 1.610 . S
N962 S961 1.613 . S
N962 C965 1.350 . S
N963 S961 1.610 . S
N963 C964 1.351 . S
C964 C958 1.428 . S
C964 N963 1.351 . S
C964 C965 1.434 . S
C965 C956 1.429 1_545 S
C965 N962 1.350 . S
C965 C964 1.434 . S
C966 C967 1.369 . S
C966 C968 1.419 . S
C966 H970 0.930 . S
C967 C966 1.369 . S
C967 C976 1.429 . S
C968 C966 1.419 . S
C968 C969 1.363 . S
C968 H971 0.929 . S
C969 C968 1.363 . S
C969 C975 1.428 . S
H970 C966 0.930 . S
H971 C968 0.929 . S
S972 N973 1.613 . S
S972 N974 1.610 . S
N973 S972 1.613 . S
N973 C976 1.350 . S
N974 S972 1.610 . S
N974 C975 1.351 . S
C975 C969 1.428 . S
C975 N974 1.351 . S
C975 C976 1.434 . S
C976 C967 1.429 . S
C976 N973 1.350 . S
C976 C975 1.434 . S
C977 C978 1.388 . S
C977 C979 1.401 1_546 S
C977 H981 0.930 . S
C978 C977 1.388 . S
C978 C987 1.429 1_556 S
C979 C977 1.401 1_564 S
C979 C980 1.363 . S
C979 H982 0.929 . S
C980 C979 1.363 . S
C980 C986 1.423 1_565 S
H981 C977 0.930 . S
H982 C979 0.929 . S
S983 N984 1.613 . S
S983 N985 1.610 . S
N984 S983 1.613 . S
N984 C987 1.350 . S
N985 S983 1.610 . S
N985 C986 1.352 . S
C986 C980 1.423 1_545 S
C986 N985 1.352 . S
C986 C987 1.439 . S
C987 C978 1.429 1_554 S
C987 N984 1.350 . S
C987 C986 1.439 . S
C988 C989 1.369 . S
C988 C990 1.419 . S
C988 H992 0.930 . S
C989 C988 1.369 . S
C989 C998 1.429 . S
C990 C988 1.419 . S
C990 C991 1.363 . S
C990 H993 0.929 . S
C991 C990 1.363 . S
C991 C997 1.428 . S
H992 C988 0.930 . S
H993 C990 0.929 . S
S994 N995 1.613 . S
S994 N996 1.610 . S
N995 S994 1.613 . S
N995 C998 1.350 . S
N996 S994 1.610 . S
N996 C997 1.351 . S
C997 C991 1.428 . S
C997 N996 1.351 . S
C997 C998 1.434 . S
C998 C989 1.429 . S
C998 N995 1.350 . S
C998 C997 1.434 . S
C999 C1000 1.369 . S
C999 C1001 1.419 1_545 S
C999 H1003 0.930 . S
C1000 C999 1.369 . S
C1000 C1009 1.429 . S
C1001 C999 1.419 1_565 S
C1001 C1002 1.363 . S
C1001 H1004 0.929 . S
C1002 C1001 1.363 . S
C1002 C1008 1.428 . S
H1003 C999 0.930 . S
H1004 C1001 0.929 . S
S1005 N1006 1.613 1_565 S
S1005 N1007 1.610 . S
N1006 S1005 1.613 1_545 S
N1006 C1009 1.350 . S
N1007 S1005 1.610 . S
N1007 C1008 1.351 . S
C1008 C1002 1.428 . S
C1008 N1007 1.351 . S
C1008 C1009 1.434 1_565 S
C1009 C1000 1.429 . S
C1009 N1006 1.350 . S
C1009 C1008 1.434 1_545 S
C1010 C1011 1.369 . S
C1010 C1012 1.419 . S
C1010 H1014 0.930 . S
C1011 C1010 1.369 . S
C1011 C1020 1.429 . S
C1012 C1010 1.419 . S
C1012 C1013 1.363 . S
C1012 H1015 0.929 . S
C1013 C1012 1.363 . S
C1013 C1019 1.428 . S
H1014 C1010 0.930 . S
H1015 C1012 0.929 . S
S1016 N1017 1.613 . S
S1016 N1018 1.610 . S
N1017 S1016 1.613 . S
N1017 C1020 1.350 . S
N1018 S1016 1.610 . S
N1018 C1019 1.351 . S
C1019 C1013 1.428 . S
C1019 N1018 1.351 . S
C1019 C1020 1.434 . S
C1020 C1011 1.429 . S
C1020 N1017 1.350 . S
C1020 C1019 1.434 . S
C1021 C1022 1.407 . S
C1021 C1023 1.383 1_565 S
C1021 H1025 0.930 . S
C1022 C1021 1.407 . S
C1022 C1031 1.429 . S
C1023 C1021 1.383 1_545 S
C1023 C1024 1.363 1_554 S
C1023 H1026 0.929 . S
C1024 C1023 1.363 1_556 S
C1024 C1030 1.434 . S
H1025 C1021 0.930 . S
H1026 C1023 0.929 . S
S1027 N1028 1.613 1_556 S
S1027 N1029 1.610 . S
N1028 S1027 1.613 1_554 S
N1028 C1031 1.350 . S
N1029 S1027 1.610 . S
N1029 C1030 1.350 1_565 S
C1030 C1024 1.434 . S
C1030 N1029 1.350 1_545 S
C1030 C1031 1.428 1_546 S
C1031 C1022 1.429 . S
C1031 N1028 1.350 . S
C1031 C1030 1.428 1_564 S
C1032 C1033 1.369 . S
C1032 C1034 1.419 . S
C1032 H1036 0.930 . S
C1033 C1032 1.369 . S
C1033 C1042 1.429 . S
C1034 C1032 1.419 . S
C1034 C1035 1.363 . S
C1034 H1037 0.929 . S
C1035 C1034 1.363 . S
C1035 C1041 1.428 . S
H1036 C1032 0.930 . S
H1037 C1034 0.929 . S
S1038 N1039 1.613 . S
S1038 N1040 1.610 . S
N1039 S1038 1.613 . S
N1039 C1042 1.350 . S
N1040 S1038 1.610 . S
N1040 C1041 1.351 . S
C1041 C1035 1.428 . S
C1041 N1040 1.351 . S
C1041 C1042 1.434 . S
C1042 C1033 1.429 . S
C1042 N1039 1.350 . S
C1042 C1041 1.434 . S
C1043 C1044 1.369 . S
C1043 C1045 1.419 . S
C1043 H1047 0.930 . S
C1044 C1043 1.369 . S
C1044 C1053 1.429 . S
C1045 C1043 1.419 . S
C1045 C1046 1.363 1_554 S
C1045 H1048 0.929 . S
C1046 C1045 1.363 1_556 S
C1046 C1052 1.428 . S
H1047 C1043 0.930 . S
H1048 C1045 0.929 . S
S1049 N1050 1.613 1_556 S
S1049 N1051 1.610 . S
N1050 S1049 1.613 1_554 S
N1050 C1053 1.350 . S
N1051 S1049 1.610 . S
N1051 C1052 1.351 . S
C1052 C1046 1.428 . S
C1052 N1051 1.351 . S
C1052 C1053 1.434 1_556 S
C1053 C1044 1.429 . S
C1053 N1050 1.350 . S
C1053 C1052 1.434 1_554 S
C1054 C1055 1.369 . S
C1054 C1056 1.419 . S
C1054 H1058 0.930 . S
C1055 C1054 1.369 . S
C1055 C1064 1.429 . S
C1056 C1054 1.419 . S
C1056 C1057 1.363 . S
C1056 H1059 0.929 . S
C1057 C1056 1.363 . S
C1057 C1063 1.428 . S
H1058 C1054 0.930 . S
H1059 C1056 0.929 . S
S1060 N1061 1.613 . S
S1060 N1062 1.610 . S
N1061 S1060 1.613 . S
N1061 C1064 1.350 . S
N1062 S1060 1.610 . S
N1062 C1063 1.351 . S
C1063 C1057 1.428 . S
C1063 N1062 1.351 . S
C1063 C1064 1.434 . S
C1064 C1055 1.429 . S
C1064 N1061 1.350 . S
C1064 C1063 1.434 . S
C1065 C1066 1.369 . S
C1065 C1067 1.419 . S
C1065 H1069 0.930 . S
C1066 C1065 1.369 . S
C1066 C1075 1.429 . S
C1067 C1065 1.419 . S
C1067 C1068 1.363 . S
C1067 H1070 0.929 . S
C1068 C1067 1.363 . S
C1068 C1074 1.428 . S
H1069 C1065 0.930 . S
H1070 C1067 0.929 . S
S1071 N1072 1.613 . S
S1071 N1073 1.610 . S
N1072 S1071 1.613 . S
N1072 C1075 1.350 . S
N1073 S1071 1.610 . S
N1073 C1074 1.351 . S
C1074 C1068 1.428 . S
C1074 N1073 1.351 . S
C1074 C1075 1.434 . S
C1075 C1066 1.429 . S
C1075 N1072 1.350 . S
C1075 C1074 1.434 . S
C1076 C1077 1.369 . S
C1076 C1078 1.419 . S
C1076 H1080 0.930 . S
C1077 C1076 1.369 . S
C1077 C1086 1.429 . S
C1078 C1076 1.419 . S
C1078 C1079 1.363 . S
C1078 H1081 0.929 . S
C1079 C1078 1.363 . S
C1079 C1085 1.428 . S
H1080 C1076 0.930 . S
H1081 C1078 0.929 . S
S1082 N1083 1.613 . S
S1082 N1084 1.610 . S
N1083 S1082 1.613 . S
N1083 C1086 1.350 . S
N1084 S1082 1.610 . S
N1084 C1085 1.351 . S
C1085 C1079 1.428 . S
C1085 N1084 1.351 . S
C1085 C1086 1.434 . S
C1086 C1077 1.429 . S
C1086 N1083 1.350 . S
C1086 C1085 1.434 . S
C1087 C1088 1.369 1_554 S
C1087 C1089 1.419 . S
C1087 H1091 0.930 . S
C1088 C1087 1.369 1_556 S
C1088 C1097 1.429 . S
C1089 C1087 1.419 . S
C1089 C1090 1.363 . S
C1089 H1092 0.929 . S
C1090 C1089 1.363 . S
C1090 C1096 1.428 . S
H1091 C1087 0.930 . S
H1092 C1089 0.929 . S
S1093 N1094 1.613 . S
S1093 N1095 1.610 1_556 S
N1094 S1093 1.613 . S
N1094 C1097 1.350 . S
N1095 S1093 1.610 1_554 S
N1095 C1096 1.351 . S
C1096 C1090 1.428 . S
C1096 N1095 1.351 . S
C1096 C1097 1.434 1_554 S
C1097 C1088 1.429 . S
C1097 N1094 1.350 . S
C1097 C1096 1.434 1_556 S
C1098 C1099 1.369 . S
C1098 C1100 1.419 . S
C1098 H1102 0.930 . S
C1099 C1098 1.369 . S
C1099 C1108 1.429 . S
C1100 C1098 1.419 . S
C1100 C1101 1.363 . S
C1100 H1103 0.929 . S
C1101 C1100 1.363 . S
C1101 C1107 1.428 . S
H1102 C1098 0.930 . S
H1103 C1100 0.929 . S
S1104 N1105 1.613 . S
S1104 N1106 1.610 . S
N1105 S1104 1.613 . S
N1105 C1108 1.350 . S
N1106 S1104 1.610 . S
N1106 C1107 1.351 . S
C1107 C1101 1.428 . S
C1107 N1106 1.351 . S
C1107 C1108 1.434 . S
C1108 C1099 1.429 . S
C1108 N1105 1.350 . S
C1108 C1107 1.434 . S
C1109 C1110 1.369 . S
C1109 C1111 1.419 . S
C1109 H1113 0.930 . S
C1110 C1109 1.369 . S
C1110 C1119 1.429 . S
C1111 C1109 1.419 . S
C1111 C1112 1.363 . S
C1111 H1114 0.929 . S
C1112 C1111 1.363 . S
C1112 C1118 1.428 . S
H1113 C1109 0.930 . S
H1114 C1111 0.929 . S
S1115 N1116 1.613 . S
S1115 N1117 1.610 . S
N1116 S1115 1.613 . S
N1116 C1119 1.350 . S
N1117 S1115 1.610 . S
N1117 C1118 1.351 . S
C1118 C1112 1.428 . S
C1118 N1117 1.351 . S
C1118 C1119 1.434 . S
C1119 C1110 1.429 . S
C1119 N1116 1.350 . S
C1119 C1118 1.434 . S
C417 C91 1.428 . S
C419 C0 1.427 1_556 S
C428 C13 1.425 . S
C430 C52 1.427 . S
C439 C65 1.424 . S
C441 C26 1.425 . S
C450 C39 1.424 . S
C452 C78 1.424 . S
C461 C104 1.427 . S
C463 C195 1.425 . S
C472 C117 1.428 . S
C474 C156 1.426 1_556 S
C483 C130 1.424 . S
C485 C169 1.425 . S
C494 C143 1.425 . S
C496 C182 1.428 . S
C505 C208 1.428 . S
C507 C299 1.426 . S
C516 C221 1.425 . S
C518 C260 1.427 . S
C527 C273 1.424 . S
C529 C234 1.426 1_556 S
C538 C286 1.429 . S
C540 C247 1.427 . S
C549 C312 1.428 . S
C551 C403 1.426 . S
C560 C364 1.427 . S
C562 C325 1.425 . S
C571 C377 1.426 . S
C573 C338 1.428 . S
C582 C351 1.425 . S
C584 C390 1.425 1_556 S
C593 C8 1.086 . S
C595 C86 1.086 . S
C604 C21 1.080 . S
C606 C99 1.080 . S
C615 C60 1.083 . S
C617 C34 1.084 . S
C626 C47 1.084 . S
C628 C73 1.083 . S
C637 C112 1.087 . S
C639 C190 1.085 . S
C648 C125 1.088 . S
C650 C203 1.086 . S
C659 C164 1.087 . S
C661 C138 1.084 . S
C670 C177 1.086 . S
C672 C151 1.084 . S
C681 C216 1.086 . S
C683 C294 1.084 . S
C692 C307 1.080 . S
C694 C229 1.081 . S
C703 C268 1.087 . S
C705 C242 1.086 . S
C714 C255 1.081 . S
C716 C281 1.080 . S
C725 C320 1.079 . S
C727 C398 1.081 . S
C736 C333 1.081 . S
C738 C411 1.083 . S
C747 C372 1.082 . S
C749 C346 1.083 . S
C758 C385 1.086 . S
C760 C359 1.086 . S
C769 C5 1.391 . S
C771 C395 1.390 . S
C780 C18 1.384 . S
C782 C200 1.385 . S
C791 C31 1.388 . S
C793 C369 1.388 . S
C802 C44 1.390 . S
C804 C174 1.390 . S
C813 C57 1.390 . S
C815 C343 1.389 . S
C824 C70 1.391 . S
C826 C148 1.390 . S
C835 C83 1.388 . S
C837 C317 1.388 . S
C846 C122 1.384 . S
C848 C96 1.385 . S
C857 C291 1.382 . S
C859 C109 1.383 . S
C868 C135 1.384 . S
C870 C265 1.385 . S
C879 C239 1.386 . S
C881 C161 1.386 . S
C890 C213 1.387 . S
C892 C187 1.387 . S
C901 C226 1.382 . S
C903 C408 1.383 . S
C912 C252 1.386 . S
C914 C382 1.387 . S
C923 C278 1.384 . S
C925 C356 1.384 . S
C934 C330 1.389 . S
C936 C304 1.389 . S
C945 C10 1.554 . S
C947 C88 1.558 . S
C956 C23 1.553 . S
C958 C101 1.560 . S
C967 C62 1.561 . S
C969 C36 1.556 . S
C978 C49 1.561 . S
C980 C75 1.556 . S
C989 C114 1.553 . S
C991 C192 1.560 . S
C1000 C127 1.556 . S
C1002 C205 1.560 . S
C1011 C166 1.558 . S
C1013 C140 1.555 . S
C1022 C153 1.560 . S
C1024 C179 1.555 . S
C1033 C296 1.556 . S
C1035 C218 1.560 . S
C1044 C309 1.557 . S
C1046 C231 1.555 . S
C1055 C270 1.557 . S
C1057 C244 1.559 . S
C1066 C283 1.553 . S
C1068 C257 1.560 . S
C1077 C400 1.560 . S
C1079 C322 1.556 . S
C1088 C413 1.554 . S
C1090 C335 1.560 . S
C1099 C348 1.561 . S
C1101 C374 1.555 . S
C1110 C387 1.561 . S
C1112 C361 1.554 . S
