# Generated by pormake.
# Topology smc, (6)-cn, num edge types: 1
# Building blocks:
#     Node 0, Type 0, BuildingBlock: IZENUY_clean_sbu_0, # of connection points: 6
#     Node 1, Type 0, BuildingBlock: IZENUY_clean_sbu_0, # of connection points: 6
#     Node 2, Type 0, BuildingBlock: IZENUY_clean_sbu_0, # of connection points: 6
#     Node 3, Type 0, BuildingBlock: IZENUY_clean_sbu_0, # of connection points: 6
#     Node 4, Type 0, BuildingBlock: IZENUY_clean_sbu_0, # of connection points: 6
#     Node 5, Type 0, BuildingBlock: IZENUY_clean_sbu_0, # of connection points: 6
#     Node 6, Type 0, BuildingBlock: IZENUY_clean_sbu_0, # of connection points: 6
#     Node 7, Type 0, BuildingBlock: IZENUY_clean_sbu_0, # of connection points: 6
#     Node 8, Type 0, BuildingBlock: IZENUY_clean_sbu_0, # of connection points: 6
#     Edge 9, Type (0, 0), BuildingBlock: AJUNOK_clean_linker_0, # of connection points: 2
#     Edge 10, Type (0, 0), BuildingBlock: AJUNOK_clean_linker_0, # of connection points: 2
#     Edge 11, Type (0, 0), BuildingBlock: AJUNOK_clean_linker_0, # of connection points: 2
#     Edge 12, Type (0, 0), BuildingBlock: AJUNOK_clean_linker_0, # of connection points: 2
#     Edge 13, Type (0, 0), BuildingBlock: AJUNOK_clean_linker_0, # of connection points: 2
#     Edge 14, Type (0, 0), BuildingBlock: AJUNOK_clean_linker_0, # of connection points: 2
#     Edge 15, Type (0, 0), BuildingBlock: AJUNOK_clean_linker_0, # of connection points: 2
#     Edge 16, Type (0, 0), BuildingBlock: AJUNOK_clean_linker_0, # of connection points: 2
#     Edge 17, Type (0, 0), BuildingBlock: AJUNOK_clean_linker_0, # of connection points: 2
#     Edge 18, Type (0, 0), BuildingBlock: AJUNOK_clean_linker_0, # of connection points: 2
#     Edge 19, Type (0, 0), BuildingBlock: AJUNOK_clean_linker_0, # of connection points: 2
#     Edge 20, Type (0, 0), BuildingBlock: AJUNOK_clean_linker_0, # of connection points: 2
#     Edge 21, Type (0, 0), BuildingBlock: AJUNOK_clean_linker_0, # of connection points: 2
#     Edge 22, Type (0, 0), BuildingBlock: AJUNOK_clean_linker_0, # of connection points: 2
#     Edge 23, Type (0, 0), BuildingBlock: AJUNOK_clean_linker_0, # of connection points: 2
#     Edge 24, Type (0, 0), BuildingBlock: AJUNOK_clean_linker_0, # of connection points: 2
#     Edge 25, Type (0, 0), BuildingBlock: AJUNOK_clean_linker_0, # of connection points: 2
#     Edge 26, Type (0, 0), BuildingBlock: AJUNOK_clean_linker_0, # of connection points: 2
#     Edge 27, Type (0, 0), BuildingBlock: AJUNOK_clean_linker_0, # of connection points: 2
#     Edge 28, Type (0, 0), BuildingBlock: AJUNOK_clean_linker_0, # of connection points: 2
#     Edge 29, Type (0, 0), BuildingBlock: AJUNOK_clean_linker_0, # of connection points: 2
#     Edge 30, Type (0, 0), BuildingBlock: AJUNOK_clean_linker_0, # of connection points: 2
#     Edge 31, Type (0, 0), BuildingBlock: AJUNOK_clean_linker_0, # of connection points: 2
#     Edge 32, Type (0, 0), BuildingBlock: AJUNOK_clean_linker_0, # of connection points: 2
#     Edge 33, Type (0, 0), BuildingBlock: AJUNOK_clean_linker_0, # of connection points: 2
#     Edge 34, Type (0, 0), BuildingBlock: AJUNOK_clean_linker_0, # of connection points: 2
#     Edge 35, Type (0, 0), BuildingBlock: AJUNOK_clean_linker_0, # of connection points: 2
# Relax obj value: 0.289
# Max RMSD: 0.292
# Mean RMSD: 0.291
data_MOF--net-smc--node1-IZENUY_clean_sbu_0--edge1-AJUNOK_clean_linker_0
_symmetry_space_group_name_H-M    P1
_symmetry_Int_Tables_number       1
_symmetry_cell_setting            triclinic
loop_
_symmetry_equiv_pos_as_xyz
'x, y, z'
_cell_length_a     21.337199
_cell_length_b     21.169354
_cell_length_c     33.34812
_cell_angle_alpha  90.108587
_cell_angle_beta   90.056425
_cell_angle_gamma 119.72131
loop_
_atom_site_label
_atom_site_type_symbol
_atom_site_fract_x
_atom_site_fract_y
_atom_site_fract_z
_atom_type_partial_charge
Fe0 Fe 0.08971 0.50028 0.98493 0.0
Fe1 Fe 1.03734 0.34763 0.01768 0.0
O2 O 1.03698 0.43098 0.01862 0.0
Fe3 Fe 0.98384 0.44514 0.05336 0.0
O4 O 0.93293 0.45457 0.01437 0.0
O5 O 1.02491 0.53716 0.98103 0.0
O6 O 0.04352 0.4432 0.94303 0.0
C7 C 0.04834 0.3879 0.93491 0.0
C8 C 0.11367 0.58424 0.04955 0.0
O9 O 0.05713 0.35181 0.96282 0.0
C10 C 1.02841 0.37413 0.10101 0.0
O11 O 0.16286 0.47645 0.98446 0.0
O12 O 0.13126 0.39266 0.03099 0.0
O13 O 0.04655 0.54701 0.05818 0.0
O14 O 0.13972 0.55949 0.02486 0.0
C15 C 0.89489 0.29981 0.02551 0.0
O16 O 1.01829 0.32981 0.07244 0.0
O17 O 1.03137 0.43385 0.09428 0.0
C18 C 0.17964 0.44411 1.01121 0.0
O19 O 0.94312 0.29869 1.00442 0.0
O20 O 0.91202 0.34769 0.05311 0.0
C21 C 0.9576 0.50509 0.98958 0.0
Fe22 Fe 0.71592 0.71078 0.0202 0.0
Fe23 Fe 0.55875 0.62481 0.99384 0.0
O24 O 0.63191 0.62992 0.01981 0.0
Fe25 Fe 0.61654 0.55305 0.04821 0.0
O26 O 0.63379 0.60319 0.09392 0.0
O27 O 0.7347 0.69995 0.07365 0.0
O28 O 0.67821 0.7655 0.03954 0.0
C29 C 0.62571 0.76896 0.02485 0.0
C30 C 0.75773 0.60782 0.01702 0.0
O31 O 0.58527 0.72231 0.99904 0.0
C32 C 0.54424 0.4808 0.98372 0.0
O33 O 0.7075 0.7316 0.96662 0.0
O34 O 0.60259 0.63929 0.94666 0.0
O35 O 0.71131 0.5728 0.04414 0.0
O36 O 0.76094 0.66334 1.00132 0.0
C37 C 0.48146 0.55205 0.05388 0.0
O38 O 0.5166 0.5226 0.98306 0.0
O39 O 0.60095 0.50092 1.00322 0.0
C40 C 0.66348 0.69291 0.93879 0.0
O41 O 0.51727 0.61502 0.04179 0.0
O42 O 0.51556 0.51676 0.05624 0.0
C43 C 0.69209 0.66054 0.10154 0.0
Fe44 Fe 0.45481 0.97072 0.99264 0.0
Fe45 Fe 0.35768 0.03249 0.01889 0.0
O46 O 0.44071 0.03388 0.02019 0.0
Fe47 Fe 0.51395 0.10131 0.04657 0.0
O48 O 0.55728 0.13216 0.99894 0.0
O49 O 0.55641 0.0336 0.98522 0.0
O50 O 0.43967 1.00329 0.94634 0.0
C51 C 0.38177 1.00263 0.93799 0.0
C52 C 0.52446 0.9699 0.0578 0.0
O53 O 0.33921 1.00129 0.9655 0.0
C54 C 0.40852 0.06805 0.10073 0.0
O55 O 0.35924 0.89708 0.99639 0.0
O56 O 0.31073 0.9407 0.03843 0.0
O57 O 0.5541 0.03958 0.05822 0.0
O58 O 0.46771 0.93452 0.03819 0.0
C59 C 0.44952 0.17989 0.01409 0.0
O60 O 0.36589 0.0637 0.07229 0.0
O61 O 0.46876 0.07312 0.09348 0.0
C62 C 0.31237 0.88729 0.02299 0.0
O63 O 0.3976 0.12423 0.99882 0.0
O64 O 0.48878 0.17343 0.04061 0.0
C65 C 0.5917 0.1031 0.98706 0.0
Fe66 Fe 0.66358 0.78985 0.38741 0.0
Fe67 Fe 0.71192 0.687 0.35305 0.0
O68 O 0.71692 0.77267 0.35445 0.0
Fe69 Fe 0.77553 0.84234 0.32204 0.0
O70 O 0.82764 0.8957 0.36339 0.0
O71 O 0.73545 0.88896 0.3952 0.0
O72 O 0.70093 0.77013 0.4302 0.0
C73 C 0.69667 0.70974 0.43638 0.0
C74 C 0.6536 0.86544 0.32733 0.0
O75 O 0.68962 0.66741 0.40732 0.0
C76 C 0.72366 0.73009 0.27083 0.0
O77 O 0.58478 0.69562 0.3838 0.0
O78 O 0.61876 0.64244 0.33861 0.0
O79 O 0.72055 0.89068 0.3199 0.0
O80 O 0.62126 0.80781 0.34635 0.0
C81 C 0.85573 0.77545 0.34673 0.0
O82 O 0.73187 0.69253 0.29824 0.0
O83 O 0.72667 0.78963 0.27918 0.0
C84 C 0.5699 0.64777 0.35646 0.0
O85 O 0.80569 0.72719 0.36735 0.0
O86 O 0.84146 0.80946 0.31997 0.0
C87 C 0.80335 0.92252 0.38793 0.0
Fe88 Fe 0.29739 0.88884 0.37946 0.0
Fe89 Fe 0.39123 0.04639 0.35282 0.0
O90 O 0.30987 0.96374 0.35076 0.0
Fe91 Fe 0.23764 0.95471 0.32239 0.0
O92 O 0.18944 0.9404 0.36849 0.0
O93 O 0.19498 0.8457 0.38419 0.0
O94 O 0.30603 0.93739 0.42479 0.0
C95 C 0.3615 0.99651 0.43367 0.0
C96 C 0.23544 0.81659 0.31316 0.0
O97 O 0.40808 0.03443 0.40685 0.0
C98 C 0.34441 0.03131 0.2703 0.0
O99 O 0.39482 0.91621 0.3786 0.0
O100 O 0.43974 1.00317 0.33372 0.0
O101 O 0.20289 0.85377 0.31106 0.0
O102 O 0.29052 0.84009 0.33459 0.0
C103 C 0.29535 0.09569 0.35619 0.0
O104 O 0.38482 0.07011 0.2993 0.0
O105 O 0.28655 0.9732 0.27671 0.0
C106 C 0.4405 0.95107 0.35107 0.0
O107 O 0.34789 0.0946 0.37223 0.0
O108 O 0.25973 0.05108 0.32828 0.0
C109 C 0.15753 0.8775 0.3814 0.0
Fe110 Fe 0.0421 0.36898 0.35108 0.0
Fe111 Fe 0.14081 0.3114 0.32261 0.0
O112 O 0.12684 0.37341 0.35072 0.0
Fe113 Fe 0.19967 0.43997 0.37864 0.0
O114 O 0.15229 0.40484 0.42464 0.0
O115 O 0.05113 0.39957 0.40426 0.0
O116 O 0.99755 0.27707 0.37059 0.0
C117 C 1.00102 0.22444 0.35544 0.0
C118 C 0.13233 0.51591 0.3472 0.0
O119 O 0.04686 0.23517 0.32807 0.0
C120 C 0.27508 0.44755 0.31458 0.0
O121 O 1.02136 0.33754 0.29798 0.0
O122 O 0.12142 0.34161 0.27676 0.0
O123 O 0.1706 0.50908 0.37434 0.0
O124 O 0.08033 0.46062 0.33158 0.0
C125 C 0.21581 0.31267 0.3859 0.0
O126 O 0.23999 0.37798 0.31296 0.0
O127 O 0.24792 0.47882 0.33332 0.0
C128 C 0.06278 0.34003 0.26959 0.0
O129 O 0.1577 0.277 0.36777 0.0
O130 O 0.244 0.38197 0.38713 0.0
C131 C 0.09221 0.39978 0.4323 0.0
Fe132 Fe 0.44016 0.16953 0.65463 0.0
Fe133 Fe 0.37909 1.01398 0.6859 0.0
O134 O 0.37959 0.09789 0.6853 0.0
Fe135 Fe 0.31999 0.11197 0.71546 0.0
O136 O 0.27853 0.12452 0.67202 0.0
O137 O 0.3789 0.20992 0.64697 0.0
O138 O 0.40123 0.1168 0.6103 0.0
C139 C 0.39794 0.05679 0.6036 0.0
C140 C 0.45267 0.24914 0.71931 0.0
O141 O 0.40349 1.01902 0.63177 0.0
C142 C 0.35722 0.03934 0.76799 0.0
O143 O 0.51228 0.14444 0.65739 0.0
O144 O 0.47273 0.05731 0.70227 0.0
O145 O 0.38387 0.21345 0.72294 0.0
O146 O 0.48231 0.22323 0.69788 0.0
C147 C 0.23408 0.96664 0.68653 0.0
O148 O 0.35402 0.99655 0.73997 0.0
O149 O 0.35703 0.09737 0.76026 0.0
C150 C 0.52452 0.10918 0.68432 0.0
O151 O 0.28561 0.96432 0.6696 0.0
O152 O 0.24629 1.01558 0.71265 0.0
C153 C 0.31018 0.17899 0.6501 0.0
Fe154 Fe 0.96825 0.22264 0.70969 0.0
Fe155 Fe 0.064 0.37997 0.68361 0.0
O156 O 0.98132 0.29794 0.68242 0.0
Fe157 Fe 0.91021 0.28728 0.65108 0.0
O158 O 0.85718 0.27884 0.69398 0.0
O159 O 0.86704 0.18895 0.71827 0.0
O160 O 0.98345 0.26849 0.75655 0.0
C161 C 1.03858 0.3281 0.76503 0.0
C162 C 0.89606 0.145 0.64916 0.0
O163 O 0.08029 0.37056 0.73772 0.0
C164 C 1.02123 0.3568 0.60077 0.0
O165 O 0.0632 0.24217 0.70609 0.0
O166 O 0.11485 0.33742 0.66665 0.0
O167 O 0.86583 0.18368 0.64494 0.0
O168 O 0.95784 0.17767 0.66264 0.0
C169 C 0.97068 0.43174 0.68063 0.0
O170 O 0.05859 0.39956 0.62939 0.0
O171 O 0.96332 0.2985 0.60752 0.0
C172 C 0.11222 0.28147 0.6811 0.0
O173 O 1.01953 0.42923 0.70043 0.0
O174 O 0.93794 0.38538 0.65282 0.0
C175 C 0.83065 0.22218 0.71444 0.0
Fe176 Fe 0.79181 0.63584 0.66083 0.0
Fe177 Fe 0.69585 0.69699 0.6873 0.0
O178 O 0.77844 0.69742 0.68867 0.0
Fe179 Fe 0.84887 0.75715 0.72056 0.0
O180 O 0.90284 0.8025 0.67815 0.0
O181 O 0.89289 0.70321 0.65277 0.0
O182 O 0.77719 0.66776 0.61431 0.0
C183 C 0.72059 0.66933 0.60578 0.0
C184 C 0.86322 0.62884 0.72144 0.0
O185 O 0.67921 0.67066 0.63315 0.0
C186 C 0.73659 0.7148 0.77033 0.0
O187 O 0.69676 0.56108 0.664 0.0
O188 O 0.64538 0.6041 0.70424 0.0
O189 O 0.89305 0.69764 0.72638 0.0
O190 O 0.80177 0.59967 0.70737 0.0
C191 C 0.78918 0.84149 0.69074 0.0
O192 O 0.70093 0.72214 0.74147 0.0
O193 O 0.79482 0.71467 0.7639 0.0
C194 C 0.64802 0.55106 0.68933 0.0
O195 O 0.74066 0.79041 0.67059 0.0
O196 O 0.82111 0.82754 0.71886 0.0
C197 C 0.92904 0.77268 0.65706 0.0
C198 C 0.34807 0.46205 0.06314 0.0
C199 C 0.40427 0.51631 0.04052 0.0
C200 C 0.27531 0.43711 0.05276 0.0
C201 C 0.25621 0.46524 0.01923 0.0
H202 H 0.36023 0.44099 0.08981 0.0
H203 H 0.23377 0.39707 0.07198 0.0
S204 S 0.38255 0.60195 0.94719 0.0
N205 N 0.43445 0.59317 0.98066 0.0
N206 N 0.29953 0.54537 0.96174 0.0
C207 C 0.31176 0.51655 0.99531 0.0
C208 C 0.38515 0.54224 1.00578 0.0
C209 C 0.62934 0.95054 0.04198 0.0
C210 C 0.56461 0.92921 0.0632 0.0
C211 C 0.65091 0.89935 0.03095 0.0
C212 C 0.6079 0.82479 0.04009 0.0
H213 H 0.66028 1.00561 0.03083 0.0
H214 H 0.69925 0.91752 0.01315 0.0
S215 S 0.43951 0.74259 0.09988 0.0
N216 N 0.46303 0.82943 0.09688 0.0
N217 N 0.50234 0.73427 0.07548 0.0
C218 C 0.54633 0.80406 0.06372 0.0
C219 C 0.52532 0.85597 0.0756 0.0
C220 C 0.28427 0.76302 0.04385 0.0
C221 C 0.25989 0.81244 0.03666 0.0
C222 C 0.23632 0.69096 0.05476 0.0
C223 C 0.161 0.66368 0.05714 0.0
H224 H 0.3408 0.77969 0.04007 0.0
H225 H 0.25786 0.65433 0.05774 0.0
S226 S 0.07106 0.77432 0.04725 0.0
N227 N 0.15715 0.8326 0.03866 0.0
N228 N 0.06598 0.69517 0.05638 0.0
C229 C 0.13656 0.71403 0.05326 0.0
C230 C 0.18617 0.78868 0.04339 0.0
C231 C 0.43272 0.2894 0.02123 0.0
C232 C 0.46376 0.25329 1.001 0.0
C233 C 0.45019 0.36101 1.01085 0.0
C234 C 0.50028 0.39993 0.9802 0.0
H235 H 0.39685 0.2632 0.04628 0.0
H236 H 0.42882 0.38794 0.0293 0.0
S237 S 0.58623 0.32447 0.9135 0.0
N238 N 0.5382 0.25749 0.94501 0.0
N239 N 0.5735 0.39255 0.9268 0.0
C240 C 0.52709 0.36191 0.9579 0.0
C241 C 0.50843 0.28872 0.96802 0.0
C242 C 0.72481 0.14714 0.97556 0.0
C243 C 0.66938 0.14399 0.99955 0.0
C244 C 0.79795 0.196 0.98481 0.0
C245 C 0.81821 0.24319 0.01848 0.0
H246 H 0.71166 0.11427 0.94863 0.0
H247 H 0.83877 0.19845 0.96459 0.0
S248 S 0.6943 0.25106 0.09355 0.0
N249 N 0.64128 0.18965 0.06063 0.0
N250 N 0.77677 0.27883 0.07743 0.0
C251 C 0.76347 0.2377 0.04372 0.0
C252 C 0.68975 0.18886 0.03443 0.0
C253 C 0.93129 0.60892 0.98585 0.0
C254 C 0.90787 0.53428 0.98188 0.0
C255 C 0.88213 0.63307 0.99584 0.0
C256 C 0.80854 0.58319 1.00329 0.0
H257 H 0.98827 0.64827 0.98418 0.0
H258 H 0.90261 0.69077 1.00008 0.0
S259 S 0.71851 0.38313 0.99055 0.0
N260 N 0.80389 0.41203 0.97972 0.0
N261 N 0.71389 0.45684 1.00125 0.0
C262 C 0.78394 0.50925 0.99637 0.0
C263 C 0.83286 0.48513 0.98458 0.0
C264 C 0.95206 0.7705 0.38879 0.0
C265 C 0.93102 0.79088 0.35297 0.0
C266 C 1.02528 0.79368 0.39719 0.0
C267 C 0.0796 0.83786 0.37001 0.0
H268 H 0.91214 0.7393 0.41135 0.0
H269 H 1.0396 0.78041 0.42587 0.0
S270 S 0.0513 0.89895 0.2698 0.0
N271 N 0.96968 0.85104 0.28864 0.0
N272 N 0.10544 0.89659 0.30421 0.0
C273 C 0.05803 0.85492 0.33312 0.0
C274 C 0.98432 0.83092 0.32464 0.0
C275 C 0.28751 0.2696 0.34824 0.0
C276 C 0.25891 0.27506 0.38556 0.0
C277 C 0.29904 0.2116 0.33905 0.0
C278 C 0.28299 0.15637 0.36681 0.0
H279 H 0.29566 0.30665 0.32417 0.0
H280 H 0.31897 0.20903 0.30955 0.0
S281 S 0.21128 0.14446 0.46938 0.0
N282 N 0.21664 0.2193 0.45072 0.0
N283 N 0.24196 0.11181 0.43416 0.0
C284 C 0.25853 0.16239 0.40502 0.0
C285 C 0.2455 0.22113 0.41417 0.0
C286 C 0.87608 0.1243 0.37405 0.0
C287 C 0.9506 0.14949 0.36992 0.0
C288 C 0.82739 0.05166 0.38511 0.0
C289 C 0.85187 1.00233 0.39372 0.0
H290 H 0.85474 0.15971 0.36639 0.0
H291 H 0.77021 0.03291 0.38368 0.0
S292 S 0.0435 0.04592 0.3949 0.0
N293 N 0.04717 0.12205 0.38007 0.0
N294 N 0.95723 0.98785 0.40278 0.0
C295 C 0.92724 0.02972 0.39367 0.0
C296 C 0.97612 0.1024 0.38108 0.0
C297 C 0.24529 0.70563 0.30497 0.0
C298 C 0.19953 0.73617 0.30697 0.0
C299 C 0.22268 0.63467 0.31802 0.0
C300 C 0.15216 0.58927 0.33164 0.0
H301 H 0.30166 0.73952 0.29712 0.0
H302 H 0.26147 0.61587 0.31854 0.0
S303 S 1.00562 0.6353 0.33432 0.0
N304 N 0.07681 0.71081 0.31866 0.0
N305 N 1.03286 0.57517 0.3404 0.0
C306 C 0.10305 0.61541 0.32926 0.0
C307 C 0.12687 0.68912 0.31724 0.0
C308 C 0.39502 0.47071 0.33986 0.0
C309 C 0.35526 0.49079 0.3142 0.0
C310 C 0.4639 0.52206 0.3541 0.0
C311 C 0.49493 0.59602 0.34429 0.0
H312 H 0.37112 0.41654 0.35181 0.0
H313 H 0.49221 0.5041 0.37393 0.0
S314 S 0.41874 0.67651 0.2745 0.0
N315 N 0.35656 0.58956 0.27653 0.0
N316 N 0.48511 0.68596 0.30401 0.0
C317 C 0.45815 0.61651 0.31705 0.0
C318 C 0.38877 0.56403 0.30186 0.0
C319 C 0.52109 0.92937 0.30483 0.0
C320 C 0.50277 0.94027 0.34389 0.0
C321 C 0.57734 0.91362 0.29834 0.0
C322 C 0.61859 0.91093 0.33055 0.0
H323 H 0.48912 0.92893 0.27946 0.0
H324 H 0.58514 0.89851 0.26848 0.0
S325 S 0.59616 0.94516 0.43803 0.0
N326 N 0.53316 0.95395 0.4143 0.0
N327 N 0.63861 0.92624 0.40286 0.0
C328 C 0.60318 0.92731 0.36932 0.0
C329 C 0.54535 0.94146 0.37583 0.0
C330 C 0.71976 0.2331 0.71506 0.0
C331 C 0.74996 0.18695 0.71823 0.0
C332 C 0.64793 0.20708 0.70343 0.0
C333 C 0.60048 0.13292 0.69684 0.0
H334 H 0.75369 0.29145 0.71847 0.0
H335 H 0.6297 0.24584 0.69883 0.0
S336 S 0.64697 0.98618 0.70664 0.0
N337 N 0.72371 0.06138 0.71637 0.0
N338 N 0.5863 1.01165 0.69826 0.0
C339 C 0.62731 0.08469 0.70339 0.0
C340 C 0.70222 0.11175 0.71349 0.0
C341 C 0.97293 0.53025 0.72543 0.0
C342 C 0.95355 0.49091 0.68879 0.0
C343 C 0.94875 0.57979 0.73522 0.0
C344 C 0.9044 0.59167 0.7087 0.0
H345 H 1.00428 0.52028 0.7475 0.0
H346 H 0.96139 0.60554 0.76446 0.0
S347 S 0.84593 0.50825 0.60671 0.0
N348 N 0.89435 0.4736 0.62444 0.0
N349 N 0.84686 0.5624 0.64246 0.0
C350 C 0.8884 0.55511 0.671 0.0
C351 C 0.91346 0.50599 0.66115 0.0
C352 C 0.6217 0.42804 0.71089 0.0
C353 C 0.59639 0.47662 0.70374 0.0
C354 C 0.57498 0.35694 0.72357 0.0
C355 C 0.49966 0.32898 0.72676 0.0
H356 H 0.67811 0.4448 0.70629 0.0
H357 H 0.59739 0.32148 0.72754 0.0
S358 S 0.41088 0.44141 0.72482 0.0
N359 N 0.49512 0.49828 0.71159 0.0
N360 N 0.40596 0.36188 0.73245 0.0
C361 C 0.47513 0.37943 0.7247 0.0
C362 C 0.52373 0.45361 0.71342 0.0
C363 C 0.78567 0.93703 0.64633 0.0
C364 C 0.80668 0.91771 0.68256 0.0
C365 C 0.80972 1.01051 0.63638 0.0
C366 C 0.85561 0.06709 0.66231 0.0
H367 H 0.75297 0.89535 0.62467 0.0
H368 H 0.79565 1.02312 0.60743 0.0
S369 S 0.9193 0.044 0.76307 0.0
N370 N 0.86951 0.96065 0.74592 0.0
N371 N 0.91671 0.09653 0.72759 0.0
C372 C 0.87347 0.04725 0.69962 0.0
C373 C 0.84853 0.9733 0.70965 0.0
C374 C 1.03918 0.89467 0.65541 0.0
C375 C 1.00939 0.81833 0.65264 0.0
C376 C 0.11096 0.94095 0.66695 0.0
C377 C 0.1584 0.9144 0.67398 0.0
H378 H 1.00485 0.9186 0.65187 0.0
H379 H 0.12922 0.99816 0.67118 0.0
S380 S 0.11279 0.72128 0.66525 0.0
N381 N 1.03599 0.71932 0.65515 0.0
N382 N 0.17316 0.80762 0.67334 0.0
C383 C 0.13196 0.83933 0.66777 0.0
C384 C 0.05726 0.79117 0.65762 0.0
C385 C 0.29027 0.28591 0.65735 0.0
C386 C 0.26679 0.21543 0.64245 0.0
C387 C 0.24028 0.30801 0.66914 0.0
C388 C 0.16517 0.25995 0.66672 0.0
H389 H 0.34714 0.32205 0.66244 0.0
H390 H 0.26036 0.36166 0.68199 0.0
S391 S 0.07727 0.079 0.6176 0.0
N392 N 0.1642 0.10512 0.61677 0.0
N393 N 0.07104 0.14533 0.63992 0.0
C394 C 0.14172 0.19291 0.6475 0.0
C395 C 0.19234 0.17134 0.63476 0.0
C396 C 0.07464 0.31423 0.19771 0.0
C397 C 0.04261 0.33776 0.22692 0.0
C398 C 0.06605 0.32147 0.15661 0.0
C399 C 1.02587 0.35329 0.14336 0.0
H400 H 0.10878 0.29219 0.20664 0.0
H401 H 0.09433 0.30598 0.13527 0.0
S402 S 0.92321 0.4148 0.20691 0.0
N403 N 0.9632 0.38723 0.23926 0.0
N404 N 0.94706 0.40119 0.16203 0.0
C405 C 0.9897 0.37265 0.17203 0.0
C406 C 0.99794 0.36467 0.21384 0.0
C407 C 0.74379 0.76657 0.19862 0.0
C408 C 0.72193 0.71139 0.22787 0.0
C409 C 0.73862 0.7506 0.15754 0.0
C410 C 0.71044 0.67877 0.14423 0.0
H411 H 0.76406 0.82267 0.20746 0.0
H412 H 0.75334 0.7942 0.13616 0.0
S413 S 0.65166 0.51534 0.20804 0.0
N414 N 0.67606 0.58285 0.24031 0.0
N415 N 0.66541 0.55248 0.1631 0.0
C416 C 0.69132 0.6235 0.17301 0.0
C417 C 0.69737 0.63988 0.21483 0.0
C418 C 0.4469 0.09513 0.17266 0.0
C419 C 0.39095 0.06995 0.1437 0.0
C420 C 0.43226 0.08747 0.21392 0.0
C421 C 0.36108 0.05392 0.22782 0.0
H422 H 0.5027 0.11865 0.16344 0.0
H423 H 0.4766 0.10394 0.23484 0.0
S424 S 0.1958 0.9887 0.16522 0.0
N425 N 0.26221 1.01752 0.13241 0.0
N426 N 0.23432 1.00344 0.20982 0.0
C427 C 0.30498 0.03345 0.1994 0.0
C428 C 0.31997 0.04147 0.1574 0.0
C429 C 0.33429 0.0424 0.88077 0.0
C430 C 0.36392 1.00067 0.89502 0.0
C431 C 0.33018 0.05226 0.83951 0.0
C432 C 0.35472 1.02006 0.81092 0.0
H433 H 0.31791 0.07085 0.90158 0.0
H434 H 0.30923 0.08716 0.83002 0.0
S435 S 0.42808 0.8978 0.83314 0.0
N436 N 0.41191 0.92105 0.87761 0.0
N437 N 0.40351 0.93937 0.80004 0.0
C438 C 0.38001 0.97429 0.82481 0.0
C439 C 0.38488 0.96478 0.86686 0.0
C440 C 1.02771 0.30278 0.8778 0.0
C441 C 0.05537 0.37397 0.89209 0.0
C442 C 1.02614 0.28898 0.83656 0.0
C443 C 0.05317 0.34596 0.80817 0.0
H444 H 1.00409 0.25728 0.89837 0.0
H445 H 1.00139 0.23285 0.82674 0.0
S446 S 0.14033 0.54287 0.83082 0.0
N447 N 0.1173 0.50296 0.87506 0.0
N448 N 0.1141 0.47642 0.79769 0.0
C449 C 0.08536 0.41763 0.82231 0.0
C450 C 0.08635 0.43176 0.86423 0.0
C451 C 0.77098 0.74263 0.84253 0.0
C452 C 0.7168 0.71659 0.81267 0.0
C453 C 0.754 0.73927 0.88334 0.0
C454 C 0.6821 0.70893 0.89585 0.0
H455 H 0.82712 0.76456 0.83441 0.0
H456 H 0.79711 0.7572 0.90522 0.0
S457 S 0.52074 0.63908 0.82955 0.0
N458 N 0.58905 0.6643 0.79835 0.0
N459 N 0.5565 0.65764 0.87494 0.0
C460 C 0.62767 0.68598 0.86618 0.0
C461 C 0.64516 0.68995 0.82463 0.0
C462 C 0.66503 0.71628 0.50762 0.0
C463 C 0.69292 0.68775 0.47879 0.0
C464 C 0.66971 0.70615 0.54879 0.0
C465 C 0.70329 0.66787 0.56268 0.0
H466 H 0.64125 0.74881 0.49836 0.0
H467 H 0.65056 0.73187 0.5698 0.0
S468 S 0.77722 0.5749 0.49965 0.0
N469 N 0.74909 0.61403 0.46699 0.0
N470 N 0.7584 0.59476 0.54437 0.0
C471 C 0.72742 0.63521 0.53413 0.0
C472 C 0.72199 0.64507 0.49217 0.0
C473 C 0.44031 0.03965 0.4953 0.0
C474 C 0.37278 1.01488 0.47681 0.0
C475 C 0.44782 0.04865 0.53725 0.0
C476 C 0.38799 0.03281 0.56164 0.0
H477 H 0.48708 0.051 0.47741 0.0
H478 H 0.50084 0.06983 0.55056 0.0
S479 S 0.20119 0.97111 0.5278 0.0
N480 N 0.24588 0.97739 0.48622 0.0
N481 N 0.26073 0.99495 0.5645 0.0
C482 C 0.32083 1.00898 0.54347 0.0
C483 C 0.31303 0.99977 0.50117 0.0
C484 C 0.11112 0.41132 0.54559 0.0
C485 C 1.03932 0.37787 0.55844 0.0
C486 C 0.12766 0.42078 0.50463 0.0
C487 C 0.07302 0.3979 0.4751 0.0
H488 H 0.15444 0.4269 0.56712 0.0
H489 H 0.1838 0.44444 0.49607 0.0
S490 S 0.87697 0.31662 0.49402 0.0
N491 N 0.91344 0.3287 0.53906 0.0
N492 N 0.94481 0.34667 0.4621 0.0
C493 C 1.00137 0.36881 0.48782 0.0
C494 C 0.98446 0.35865 0.52949 0.0
loop_
_geom_bond_atom_site_label_1
_geom_bond_atom_site_label_2
_geom_bond_distance
_geom_bond_site_symmetry_2
_ccdc_geom_bond_type
Fe0 O2 1.918 1_556 S
Fe0 O5 1.997 1_455 S
Fe0 O6 2.002 . S
Fe0 O11 1.976 . S
Fe0 O14 2.006 . S
Fe1 O2 1.918 . S
Fe1 O9 1.997 1_454 S
Fe1 O12 1.996 1_554 S
Fe1 O16 1.976 . S
Fe1 O19 2.002 1_455 S
O2 Fe0 1.918 1_554 S
O2 Fe1 1.918 . S
O2 Fe3 1.918 1_455 S
Fe3 O2 1.918 1_655 S
Fe3 O4 2.002 . S
Fe3 O13 1.976 1_655 S
Fe3 O17 1.996 . S
Fe3 O20 1.997 . S
O4 Fe3 2.002 . S
O4 C21 1.295 1_554 S
O5 Fe0 1.997 1_655 S
O5 C21 1.235 . S
O6 Fe0 2.002 . S
O6 C7 1.295 1_455 S
C7 O6 1.295 1_655 S
C7 O9 1.235 . S
C8 O13 1.287 . S
C8 O14 1.238 1_554 S
O9 Fe1 1.997 1_656 S
O9 C7 1.235 . S
C10 O16 1.287 . S
C10 O17 1.255 1_455 S
O11 Fe0 1.976 . S
O11 C18 1.287 . S
O12 Fe1 1.996 1_556 S
O12 C18 1.255 . S
O13 Fe3 1.976 1_455 S
O13 C8 1.287 . S
O14 Fe0 2.006 . S
O14 C8 1.238 1_556 S
C15 O19 1.295 . S
C15 O20 1.235 . S
O16 Fe1 1.976 . S
O16 C10 1.287 . S
O17 Fe3 1.996 . S
O17 C10 1.255 1_655 S
C18 O11 1.287 . S
C18 O12 1.255 . S
O19 Fe1 2.002 1_655 S
O19 C15 1.295 . S
O20 Fe3 1.997 . S
O20 C15 1.235 . S
C21 O4 1.295 1_556 S
C21 O5 1.235 . S
Fe22 O24 1.918 . S
Fe22 O27 1.997 . S
Fe22 O28 2.002 1_554 S
Fe22 O33 1.976 1_554 S
Fe22 O36 1.996 . S
Fe23 O24 1.918 1_556 S
Fe23 O31 1.997 . S
Fe23 O34 1.996 . S
Fe23 O38 1.976 . S
Fe23 O41 2.002 . S
O24 Fe22 1.918 . S
O24 Fe23 1.918 1_554 S
O24 Fe25 1.918 . S
Fe25 O24 1.918 . S
Fe25 O26 2.002 . S
Fe25 O35 1.976 . S
Fe25 O39 1.996 . S
Fe25 O42 1.997 . S
O26 Fe25 2.002 . S
O26 C43 1.295 . S
O27 Fe22 1.997 . S
O27 C43 1.235 . S
O28 Fe22 2.002 1_556 S
O28 C29 1.295 . S
C29 O28 1.295 . S
C29 O31 1.235 . S
C30 O35 1.287 . S
C30 O36 1.255 . S
O31 Fe23 1.997 . S
O31 C29 1.235 . S
C32 O38 1.287 . S
C32 O39 1.255 1_556 S
O33 Fe22 1.976 1_556 S
O33 C40 1.287 . S
O34 Fe23 1.996 . S
O34 C40 1.255 . S
O35 Fe25 1.976 . S
O35 C30 1.287 . S
O36 Fe22 1.996 . S
O36 C30 1.255 . S
C37 O41 1.295 1_554 S
C37 O42 1.235 . S
O38 Fe23 1.976 . S
O38 C32 1.287 . S
O39 Fe25 1.996 . S
O39 C32 1.255 1_554 S
C40 O33 1.287 . S
C40 O34 1.255 . S
O41 Fe23 2.002 . S
O41 C37 1.295 1_556 S
O42 Fe25 1.997 . S
O42 C37 1.235 . S
C43 O26 1.295 . S
C43 O27 1.235 . S
Fe44 O46 1.908 1_566 S
Fe44 O49 1.997 1_565 S
Fe44 O50 2.002 . S
Fe44 O55 1.976 . S
Fe44 O58 1.989 1_556 S
Fe45 O46 1.926 . S
Fe45 O53 1.997 1_554 S
Fe45 O56 1.996 1_544 S
Fe45 O60 1.976 1_545 S
Fe45 O63 2.002 . S
O46 Fe44 1.908 1_544 S
O46 Fe45 1.926 . S
O46 Fe47 1.921 . S
Fe47 O46 1.921 . S
Fe47 O48 2.002 . S
Fe47 O57 1.976 1_545 S
Fe47 O61 1.996 . S
Fe47 O64 1.997 . S
O48 Fe47 2.002 . S
O48 C65 1.295 1_554 S
O49 Fe44 1.997 1_545 S
O49 C65 1.235 . S
O50 Fe44 2.002 . S
O50 C51 1.295 1_565 S
C51 O50 1.295 1_545 S
C51 O53 1.235 . S
C52 O57 1.287 . S
C52 O58 1.265 . S
O53 Fe45 1.997 1_556 S
O53 C51 1.235 . S
C54 O60 1.287 . S
C54 O61 1.255 1_565 S
O55 Fe44 1.976 . S
O55 C62 1.287 . S
O56 Fe45 1.996 1_566 S
O56 C62 1.255 . S
O57 Fe47 1.976 1_565 S
O57 C52 1.287 . S
O58 Fe44 1.989 1_554 S
O58 C52 1.265 . S
C59 O63 1.295 . S
C59 O64 1.235 . S
O60 Fe45 1.976 1_565 S
O60 C54 1.287 . S
O61 Fe47 1.996 . S
O61 C54 1.255 1_545 S
C62 O55 1.287 . S
C62 O56 1.255 . S
O63 Fe45 2.002 . S
O63 C59 1.295 . S
O64 Fe47 1.997 . S
O64 C59 1.235 . S
C65 O48 1.295 1_556 S
C65 O49 1.235 . S
Fe66 O68 1.918 . S
Fe66 O71 1.997 . S
Fe66 O72 2.002 . S
Fe66 O77 1.976 . S
Fe66 O80 1.996 . S
Fe67 O68 1.918 . S
Fe67 O75 1.997 . S
Fe67 O78 1.996 . S
Fe67 O82 1.976 . S
Fe67 O85 2.002 . S
O68 Fe66 1.918 . S
O68 Fe67 1.918 . S
O68 Fe69 1.918 . S
Fe69 O68 1.918 . S
Fe69 O70 2.002 . S
Fe69 O79 1.976 . S
Fe69 O83 1.996 . S
Fe69 O86 1.997 . S
O70 Fe69 2.002 . S
O70 C87 1.295 . S
O71 Fe66 1.997 . S
O71 C87 1.235 . S
O72 Fe66 2.002 . S
O72 C73 1.295 . S
C73 O72 1.295 . S
C73 O75 1.235 . S
C74 O79 1.287 . S
C74 O80 1.255 . S
O75 Fe67 1.997 . S
O75 C73 1.235 . S
C76 O82 1.287 . S
C76 O83 1.255 . S
O77 Fe66 1.976 . S
O77 C84 1.287 . S
O78 Fe67 1.996 . S
O78 C84 1.255 . S
O79 Fe69 1.976 . S
O79 C74 1.287 . S
O80 Fe66 1.996 . S
O80 C74 1.255 . S
C81 O85 1.295 . S
C81 O86 1.235 . S
O82 Fe67 1.976 . S
O82 C76 1.287 . S
O83 Fe69 1.996 . S
O83 C76 1.255 . S
C84 O77 1.287 . S
C84 O78 1.255 . S
O85 Fe67 2.002 . S
O85 C81 1.295 . S
O86 Fe69 1.997 . S
O86 C81 1.235 . S
C87 O70 1.295 . S
C87 O71 1.235 . S
Fe88 O90 1.918 . S
Fe88 O93 1.997 . S
Fe88 O94 2.002 . S
Fe88 O99 1.976 . S
Fe88 O102 1.996 . S
Fe89 O90 1.918 . S
Fe89 O97 1.997 1_565 S
Fe89 O100 1.996 . S
Fe89 O104 1.976 . S
Fe89 O107 2.002 1_565 S
O90 Fe88 1.918 . S
O90 Fe89 1.918 . S
O90 Fe91 1.918 . S
Fe91 O90 1.918 . S
Fe91 O92 2.002 . S
Fe91 O101 1.976 . S
Fe91 O105 1.996 . S
Fe91 O108 1.997 . S
O92 Fe91 2.002 . S
O92 C109 1.295 . S
O93 Fe88 1.997 . S
O93 C109 1.235 . S
O94 Fe88 2.002 . S
O94 C95 1.295 . S
C95 O94 1.295 . S
C95 O97 1.235 1_565 S
C96 O101 1.287 . S
C96 O102 1.255 . S
O97 Fe89 1.997 1_545 S
O97 C95 1.235 1_545 S
C98 O104 1.287 . S
C98 O105 1.255 . S
O99 Fe88 1.976 . S
O99 C106 1.287 . S
O100 Fe89 1.996 . S
O100 C106 1.255 . S
O101 Fe91 1.976 . S
O101 C96 1.287 . S
O102 Fe88 1.996 . S
O102 C96 1.255 . S
C103 O107 1.295 . S
C103 O108 1.235 1_545 S
O104 Fe89 1.976 . S
O104 C98 1.287 . S
O105 Fe91 1.996 . S
O105 C98 1.255 . S
C106 O99 1.287 . S
C106 O100 1.255 . S
O107 Fe89 2.002 1_545 S
O107 C103 1.295 . S
O108 Fe91 1.997 . S
O108 C103 1.235 1_565 S
C109 O92 1.295 . S
C109 O93 1.235 . S
Fe110 O112 1.918 . S
Fe110 O115 1.997 1_455 S
Fe110 O116 2.002 1_455 S
Fe110 O121 1.976 . S
Fe110 O124 1.996 . S
Fe111 O112 1.918 . S
Fe111 O119 1.997 . S
Fe111 O122 1.996 . S
Fe111 O126 1.976 . S
Fe111 O129 2.002 . S
O112 Fe110 1.918 . S
O112 Fe111 1.918 . S
O112 Fe113 1.918 . S
Fe113 O112 1.918 . S
Fe113 O114 2.002 . S
Fe113 O123 1.976 . S
Fe113 O127 1.996 . S
Fe113 O130 1.997 . S
O114 Fe113 2.002 . S
O114 C131 1.295 . S
O115 Fe110 1.997 1_655 S
O115 C131 1.235 1_655 S
O116 Fe110 2.002 1_655 S
O116 C117 1.295 . S
C117 O116 1.295 . S
C117 O119 1.235 1_655 S
C118 O123 1.287 . S
C118 O124 1.255 . S
O119 Fe111 1.997 . S
O119 C117 1.235 1_455 S
C120 O126 1.287 . S
C120 O127 1.255 . S
O121 Fe110 1.976 . S
O121 C128 1.287 . S
O122 Fe111 1.996 . S
O122 C128 1.255 . S
O123 Fe113 1.976 . S
O123 C118 1.287 . S
O124 Fe110 1.996 . S
O124 C118 1.255 . S
C125 O129 1.295 . S
C125 O130 1.235 . S
O126 Fe111 1.976 . S
O126 C120 1.287 . S
O127 Fe113 1.996 . S
O127 C120 1.255 . S
C128 O121 1.287 . S
C128 O122 1.255 . S
O129 Fe111 2.002 . S
O129 C125 1.295 . S
O130 Fe113 1.997 . S
O130 C125 1.235 . S
C131 O114 1.295 . S
C131 O115 1.235 1_455 S
Fe132 O134 1.918 . S
Fe132 O137 1.997 . S
Fe132 O138 2.002 . S
Fe132 O143 1.976 . S
Fe132 O146 1.996 . S
Fe133 O134 1.918 . S
Fe133 O141 1.997 . S
Fe133 O144 1.996 . S
Fe133 O148 1.976 . S
Fe133 O151 2.002 1_545 S
O134 Fe132 1.918 . S
O134 Fe133 1.918 . S
O134 Fe135 1.918 . S
Fe135 O134 1.918 . S
Fe135 O136 2.002 . S
Fe135 O145 1.976 . S
Fe135 O149 1.996 . S
Fe135 O152 1.997 . S
O136 Fe135 2.002 . S
O136 C153 1.295 . S
O137 Fe132 1.997 . S
O137 C153 1.235 . S
O138 Fe132 2.002 . S
O138 C139 1.295 . S
C139 O138 1.295 . S
C139 O141 1.235 . S
C140 O145 1.287 . S
C140 O146 1.255 . S
O141 Fe133 1.997 . S
O141 C139 1.235 . S
C142 O148 1.287 . S
C142 O149 1.255 . S
O143 Fe132 1.976 . S
O143 C150 1.287 . S
O144 Fe133 1.996 . S
O144 C150 1.255 . S
O145 Fe135 1.976 . S
O145 C140 1.287 . S
O146 Fe132 1.996 . S
O146 C140 1.255 . S
C147 O151 1.295 . S
C147 O152 1.235 1_565 S
O148 Fe133 1.976 . S
O148 C142 1.287 . S
O149 Fe135 1.996 . S
O149 C142 1.255 . S
C150 O143 1.287 . S
C150 O144 1.255 . S
O151 Fe133 2.002 1_565 S
O151 C147 1.295 . S
O152 Fe135 1.997 . S
O152 C147 1.235 1_545 S
C153 O136 1.295 . S
C153 O137 1.235 . S
Fe154 O156 1.918 . S
Fe154 O159 1.997 . S
Fe154 O160 2.002 . S
Fe154 O165 1.976 . S
Fe154 O168 1.996 . S
Fe155 O156 1.918 . S
Fe155 O163 1.997 . S
Fe155 O166 1.996 1_655 S
Fe155 O170 1.976 1_655 S
Fe155 O173 2.002 . S
O156 Fe154 1.918 . S
O156 Fe155 1.918 . S
O156 Fe157 1.918 . S
Fe157 O156 1.918 . S
Fe157 O158 2.002 . S
Fe157 O167 1.976 . S
Fe157 O171 1.996 . S
Fe157 O174 1.997 . S
O158 Fe157 2.002 . S
O158 C175 1.295 . S
O159 Fe154 1.997 . S
O159 C175 1.235 . S
O160 Fe154 2.002 . S
O160 C161 1.295 . S
C161 O160 1.295 . S
C161 O163 1.235 . S
C162 O167 1.287 . S
C162 O168 1.255 . S
O163 Fe155 1.997 . S
O163 C161 1.235 . S
C164 O170 1.287 1_655 S
C164 O171 1.255 . S
O165 Fe154 1.976 . S
O165 C172 1.287 1_655 S
O166 Fe155 1.996 1_455 S
O166 C172 1.255 . S
O167 Fe157 1.976 . S
O167 C162 1.287 . S
O168 Fe154 1.996 . S
O168 C162 1.255 . S
C169 O173 1.295 . S
C169 O174 1.235 . S
O170 Fe155 1.976 1_455 S
O170 C164 1.287 1_455 S
O171 Fe157 1.996 . S
O171 C164 1.255 . S
C172 O165 1.287 1_455 S
C172 O166 1.255 . S
O173 Fe155 2.002 . S
O173 C169 1.295 . S
O174 Fe157 1.997 . S
O174 C169 1.235 . S
C175 O158 1.295 . S
C175 O159 1.235 . S
Fe176 O178 1.918 . S
Fe176 O181 1.997 . S
Fe176 O182 2.002 . S
Fe176 O187 1.976 . S
Fe176 O190 1.996 . S
Fe177 O178 1.918 . S
Fe177 O185 1.997 . S
Fe177 O188 1.996 . S
Fe177 O192 1.976 . S
Fe177 O195 2.002 . S
O178 Fe176 1.918 . S
O178 Fe177 1.918 . S
O178 Fe179 1.918 . S
Fe179 O178 1.918 . S
Fe179 O180 2.002 . S
Fe179 O189 1.976 . S
Fe179 O193 1.996 . S
Fe179 O196 1.997 . S
O180 Fe179 2.002 . S
O180 C197 1.295 . S
O181 Fe176 1.997 . S
O181 C197 1.235 . S
O182 Fe176 2.002 . S
O182 C183 1.295 . S
C183 O182 1.295 . S
C183 O185 1.235 . S
C184 O189 1.287 . S
C184 O190 1.255 . S
O185 Fe177 1.997 . S
O185 C183 1.235 . S
C186 O192 1.287 . S
C186 O193 1.255 . S
O187 Fe176 1.976 . S
O187 C194 1.287 . S
O188 Fe177 1.996 . S
O188 C194 1.255 . S
O189 Fe179 1.976 . S
O189 C184 1.287 . S
O190 Fe176 1.996 . S
O190 C184 1.255 . S
C191 O195 1.295 . S
C191 O196 1.235 . S
O192 Fe177 1.976 . S
O192 C186 1.287 . S
O193 Fe179 1.996 . S
O193 C186 1.255 . S
C194 O187 1.287 . S
C194 O188 1.255 . S
O195 Fe177 2.002 . S
O195 C191 1.295 . S
O196 Fe179 1.997 . S
O196 C191 1.235 . S
C197 O180 1.295 . S
C197 O181 1.235 . S
C198 C199 1.369 . S
C198 C200 1.419 . S
C198 H202 0.930 . S
C199 C198 1.369 . S
C199 C208 1.429 . S
C200 C198 1.419 . S
C200 C201 1.363 1_554 S
C200 H203 0.929 . S
C201 C200 1.363 1_556 S
C201 C207 1.428 . S
H202 C198 0.930 . S
H203 C200 0.929 . S
S204 N205 1.613 1_556 S
S204 N206 1.610 . S
N205 S204 1.613 1_554 S
N205 C208 1.350 . S
N206 S204 1.610 . S
N206 C207 1.351 . S
C207 C201 1.428 . S
C207 N206 1.351 . S
C207 C208 1.434 1_556 S
C208 C199 1.429 . S
C208 N205 1.350 . S
C208 C207 1.434 1_554 S
C209 C210 1.369 . S
C209 C211 1.419 1_554 S
C209 H213 0.930 . S
C210 C209 1.369 . S
C210 C219 1.429 . S
C211 C209 1.419 1_556 S
C211 C212 1.363 . S
C211 H214 0.929 . S
C212 C211 1.363 . S
C212 C218 1.428 1_556 S
H213 C209 0.930 . S
H214 C211 0.929 . S
S215 N216 1.613 . S
S215 N217 1.610 . S
N216 S215 1.613 . S
N216 C219 1.350 . S
N217 S215 1.610 . S
N217 C218 1.351 . S
C218 C212 1.428 1_554 S
C218 N217 1.351 . S
C218 C219 1.434 . S
C219 C210 1.429 . S
C219 N216 1.350 . S
C219 C218 1.434 . S
C220 C221 1.369 . S
C220 C222 1.419 1_556 S
C220 H224 0.930 . S
C221 C220 1.369 . S
C221 C230 1.425 1_556 S
C222 C220 1.419 1_554 S
C222 C223 1.363 . S
C222 H225 0.929 . S
C223 C222 1.363 . S
C223 C229 1.428 . S
H224 C220 0.930 . S
H225 C222 0.929 . S
S226 N227 1.613 1_554 S
S226 N228 1.610 . S
N227 S226 1.613 1_556 S
N227 C230 1.348 1_556 S
N228 S226 1.610 . S
N228 C229 1.351 . S
C229 C223 1.428 . S
C229 N228 1.351 . S
C229 C230 1.440 . S
C230 C221 1.425 1_554 S
C230 N227 1.348 1_554 S
C230 C229 1.440 . S
C231 C232 1.369 . S
C231 C233 1.419 . S
C231 H235 0.930 . S
C232 C231 1.369 . S
C232 C241 1.429 1_554 S
C233 C231 1.419 . S
C233 C234 1.363 1_554 S
C233 H236 0.929 . S
C234 C233 1.363 1_556 S
C234 C240 1.428 . S
H235 C231 0.930 . S
H236 C233 0.929 . S
S237 N238 1.613 . S
S237 N239 1.610 . S
N238 S237 1.613 . S
N238 C241 1.350 . S
N239 S237 1.610 . S
N239 C240 1.351 . S
C240 C234 1.428 . S
C240 N239 1.351 . S
C240 C241 1.434 . S
C241 C232 1.429 1_556 S
C241 N238 1.350 . S
C241 C240 1.434 . S
C242 C243 1.369 . S
C242 C244 1.419 . S
C242 H246 0.930 . S
C243 C242 1.369 . S
C243 C252 1.429 1_556 S
C244 C242 1.419 . S
C244 C245 1.363 1_556 S
C244 H247 0.929 . S
C245 C244 1.363 1_554 S
C245 C251 1.428 . S
H246 C242 0.930 . S
H247 C244 0.929 . S
S248 N249 1.613 . S
S248 N250 1.610 . S
N249 S248 1.613 . S
N249 C252 1.350 . S
N250 S248 1.610 . S
N250 C251 1.351 . S
C251 C245 1.428 . S
C251 N250 1.351 . S
C251 C252 1.434 . S
C252 C243 1.429 1_554 S
C252 N249 1.350 . S
C252 C251 1.434 . S
C253 C254 1.369 . S
C253 C255 1.419 1_556 S
C253 H257 0.930 . S
C254 C253 1.369 . S
C254 C263 1.429 . S
C255 C253 1.419 1_554 S
C255 C256 1.363 . S
C255 H258 0.929 . S
C256 C255 1.363 . S
C256 C262 1.428 . S
H257 C253 0.930 . S
H258 C255 0.929 . S
S259 N260 1.613 1_554 S
S259 N261 1.610 . S
N260 S259 1.613 1_556 S
N260 C263 1.350 . S
N261 S259 1.610 . S
N261 C262 1.351 . S
C262 C256 1.428 . S
C262 N261 1.351 . S
C262 C263 1.434 1_554 S
C263 C254 1.429 . S
C263 N260 1.350 . S
C263 C262 1.434 1_556 S
C264 C265 1.369 . S
C264 C266 1.419 . S
C264 H268 0.930 . S
C265 C264 1.369 . S
C265 C274 1.429 . S
C266 C264 1.419 . S
C266 C267 1.363 1_655 S
C266 H269 0.929 . S
C267 C266 1.363 1_455 S
C267 C273 1.428 . S
H268 C264 0.930 . S
H269 C266 0.929 . S
S270 N271 1.613 1_455 S
S270 N272 1.610 . S
N271 S270 1.613 1_655 S
N271 C274 1.350 . S
N272 S270 1.610 . S
N272 C273 1.351 . S
C273 C267 1.428 . S
C273 N272 1.351 . S
C273 C274 1.434 1_455 S
C274 C265 1.429 . S
C274 N271 1.350 . S
C274 C273 1.434 1_655 S
C275 C276 1.369 . S
C275 C277 1.419 . S
C275 H279 0.930 . S
C276 C275 1.369 . S
C276 C285 1.429 . S
C277 C275 1.419 . S
C277 C278 1.363 . S
C277 H280 0.929 . S
C278 C277 1.363 . S
C278 C284 1.428 . S
H279 C275 0.930 . S
H280 C277 0.929 . S
S281 N282 1.613 . S
S281 N283 1.610 . S
N282 S281 1.613 . S
N282 C285 1.350 . S
N283 S281 1.610 . S
N283 C284 1.351 . S
C284 C278 1.428 . S
C284 N283 1.351 . S
C284 C285 1.434 . S
C285 C276 1.429 . S
C285 N282 1.350 . S
C285 C284 1.434 . S
C286 C287 1.369 . S
C286 C288 1.419 . S
C286 H290 0.930 . S
C287 C286 1.369 . S
C287 C296 1.429 . S
C288 C286 1.419 . S
C288 C289 1.363 1_545 S
C288 H291 0.929 . S
C289 C288 1.363 1_565 S
C289 C295 1.428 1_565 S
H290 C286 0.930 . S
H291 C288 0.929 . S
S292 N293 1.613 1_565 S
S292 N294 1.610 . S
N293 S292 1.613 1_545 S
N293 C296 1.350 . S
N294 S292 1.610 . S
N294 C295 1.351 1_565 S
C295 C289 1.428 1_545 S
C295 N294 1.351 1_545 S
C295 C296 1.434 . S
C296 C287 1.429 . S
C296 N293 1.350 . S
C296 C295 1.434 . S
C297 C298 1.369 . S
C297 C299 1.419 . S
C297 H301 0.930 . S
C298 C297 1.369 . S
C298 C307 1.429 . S
C299 C297 1.419 . S
C299 C300 1.363 . S
C299 H302 0.929 . S
C300 C299 1.363 . S
C300 C306 1.428 . S
H301 C297 0.930 . S
H302 C299 0.929 . S
S303 N304 1.613 . S
S303 N305 1.610 . S
N304 S303 1.613 . S
N304 C307 1.350 . S
N305 S303 1.610 . S
N305 C306 1.351 . S
C306 C300 1.428 . S
C306 N305 1.351 . S
C306 C307 1.434 . S
C307 C298 1.429 . S
C307 N304 1.350 . S
C307 C306 1.434 . S
C308 C309 1.369 . S
C308 C310 1.419 . S
C308 H312 0.930 . S
C309 C308 1.369 . S
C309 C318 1.429 . S
C310 C308 1.419 . S
C310 C311 1.363 . S
C310 H313 0.929 . S
C311 C310 1.363 . S
C311 C317 1.428 . S
H312 C308 0.930 . S
H313 C310 0.929 . S
S314 N315 1.613 . S
S314 N316 1.610 . S
N315 S314 1.613 . S
N315 C318 1.350 . S
N316 S314 1.610 . S
N316 C317 1.351 . S
C317 C311 1.428 . S
C317 N316 1.351 . S
C317 C318 1.434 . S
C318 C309 1.429 . S
C318 N315 1.350 . S
C318 C317 1.434 . S
C319 C320 1.369 . S
C319 C321 1.419 . S
C319 H323 0.930 . S
C320 C319 1.369 . S
C320 C329 1.429 . S
C321 C319 1.419 . S
C321 C322 1.363 . S
C321 H324 0.929 . S
C322 C321 1.363 . S
C322 C328 1.428 . S
H323 C319 0.930 . S
H324 C321 0.929 . S
S325 N326 1.613 . S
S325 N327 1.610 . S
N326 S325 1.613 . S
N326 C329 1.350 . S
N327 S325 1.610 . S
N327 C328 1.351 . S
C328 C322 1.428 . S
C328 N327 1.351 . S
C328 C329 1.434 . S
C329 C320 1.429 . S
C329 N326 1.350 . S
C329 C328 1.434 . S
C330 C331 1.369 . S
C330 C332 1.419 . S
C330 H334 0.930 . S
C331 C330 1.369 . S
C331 C340 1.429 . S
C332 C330 1.419 . S
C332 C333 1.363 . S
C332 H335 0.929 . S
C333 C332 1.363 . S
C333 C339 1.428 . S
H334 C330 0.930 . S
H335 C332 0.929 . S
S336 N337 1.613 . S
S336 N338 1.610 . S
N337 S336 1.613 . S
N337 C340 1.350 . S
N338 S336 1.610 . S
N338 C339 1.351 . S
C339 C333 1.428 . S
C339 N338 1.351 . S
C339 C340 1.434 . S
C340 C331 1.429 . S
C340 N337 1.350 . S
C340 C339 1.434 . S
C341 C342 1.369 . S
C341 C343 1.419 . S
C341 H345 0.930 . S
C342 C341 1.369 . S
C342 C351 1.429 . S
C343 C341 1.419 . S
C343 C344 1.363 . S
C343 H346 0.929 . S
C344 C343 1.363 . S
C344 C350 1.428 . S
H345 C341 0.930 . S
H346 C343 0.929 . S
S347 N348 1.613 . S
S347 N349 1.610 . S
N348 S347 1.613 . S
N348 C351 1.350 . S
N349 S347 1.610 . S
N349 C350 1.351 . S
C350 C344 1.428 . S
C350 N349 1.351 . S
C350 C351 1.434 . S
C351 C342 1.429 . S
C351 N348 1.350 . S
C351 C350 1.434 . S
C352 C353 1.369 . S
C352 C354 1.419 . S
C352 H356 0.930 . S
C353 C352 1.369 . S
C353 C362 1.429 . S
C354 C352 1.419 . S
C354 C355 1.363 . S
C354 H357 0.929 . S
C355 C354 1.363 . S
C355 C361 1.428 . S
H356 C352 0.930 . S
H357 C354 0.929 . S
S358 N359 1.613 . S
S358 N360 1.610 . S
N359 S358 1.613 . S
N359 C362 1.350 . S
N360 S358 1.610 . S
N360 C361 1.351 . S
C361 C355 1.428 . S
C361 N360 1.351 . S
C361 C362 1.434 . S
C362 C353 1.429 . S
C362 N359 1.350 . S
C362 C361 1.434 . S
C363 C364 1.369 . S
C363 C365 1.419 . S
C363 H367 0.930 . S
C364 C363 1.369 . S
C364 C373 1.429 . S
C365 C363 1.419 . S
C365 C366 1.363 1_565 S
C365 H368 0.929 . S
C366 C365 1.363 1_545 S
C366 C372 1.428 . S
H367 C363 0.930 . S
H368 C365 0.929 . S
S369 N370 1.613 1_545 S
S369 N371 1.610 . S
N370 S369 1.613 1_565 S
N370 C373 1.350 . S
N371 S369 1.610 . S
N371 C372 1.351 . S
C372 C366 1.428 . S
C372 N371 1.351 . S
C372 C373 1.434 1_545 S
C373 C364 1.429 . S
C373 N370 1.350 . S
C373 C372 1.434 1_565 S
C374 C375 1.369 1_455 S
C374 C376 1.419 . S
C374 H378 0.930 . S
C375 C374 1.369 1_655 S
C375 C384 1.429 1_655 S
C376 C374 1.419 . S
C376 C377 1.363 . S
C376 H379 0.929 . S
C377 C376 1.363 . S
C377 C383 1.428 . S
H378 C374 0.930 . S
H379 C376 0.929 . S
S380 N381 1.613 1_455 S
S380 N382 1.610 . S
N381 S380 1.613 1_655 S
N381 C384 1.350 1_655 S
N382 S380 1.610 . S
N382 C383 1.351 . S
C383 C377 1.428 . S
C383 N382 1.351 . S
C383 C384 1.434 . S
C384 C375 1.429 1_455 S
C384 N381 1.350 1_455 S
C384 C383 1.434 . S
C385 C386 1.369 . S
C385 C387 1.419 . S
C385 H389 0.930 . S
C386 C385 1.369 . S
C386 C395 1.429 . S
C387 C385 1.419 . S
C387 C388 1.363 . S
C387 H390 0.929 . S
C388 C387 1.363 . S
C388 C394 1.428 . S
H389 C385 0.930 . S
H390 C387 0.929 . S
S391 N392 1.613 . S
S391 N393 1.610 . S
N392 S391 1.613 . S
N392 C395 1.350 . S
N393 S391 1.610 . S
N393 C394 1.351 . S
C394 C388 1.428 . S
C394 N393 1.351 . S
C394 C395 1.434 . S
C395 C386 1.429 . S
C395 N392 1.350 . S
C395 C394 1.434 . S
C396 C397 1.369 . S
C396 C398 1.419 . S
C396 H400 0.930 . S
C397 C396 1.369 . S
C397 C406 1.429 1_455 S
C398 C396 1.419 . S
C398 C399 1.363 . S
C398 H401 0.929 . S
C399 C398 1.363 . S
C399 C405 1.428 1_455 S
H400 C396 0.930 . S
H401 C398 0.929 . S
S402 N403 1.613 . S
S402 N404 1.610 . S
N403 S402 1.613 . S
N403 C406 1.350 . S
N404 S402 1.610 . S
N404 C405 1.351 . S
C405 C399 1.428 1_655 S
C405 N404 1.351 . S
C405 C406 1.434 . S
C406 C397 1.429 1_655 S
C406 N403 1.350 . S
C406 C405 1.434 . S
C407 C408 1.369 . S
C407 C409 1.419 . S
C407 H411 0.930 . S
C408 C407 1.369 . S
C408 C417 1.429 . S
C409 C407 1.419 . S
C409 C410 1.363 . S
C409 H412 0.929 . S
C410 C409 1.363 . S
C410 C416 1.428 . S
H411 C407 0.930 . S
H412 C409 0.929 . S
S413 N414 1.613 . S
S413 N415 1.610 . S
N414 S413 1.613 . S
N414 C417 1.350 . S
N415 S413 1.610 . S
N415 C416 1.351 . S
C416 C410 1.428 . S
C416 N415 1.351 . S
C416 C417 1.434 . S
C417 C408 1.429 . S
C417 N414 1.350 . S
C417 C416 1.434 . S
C418 C419 1.369 1_545 S
C418 C420 1.419 . S
C418 H422 0.930 . S
C419 C418 1.369 1_565 S
C419 C428 1.429 . S
C420 C418 1.419 . S
C420 C421 1.363 1_545 S
C420 H423 0.929 . S
C421 C420 1.363 1_565 S
C421 C427 1.428 . S
H422 C418 0.930 . S
H423 C420 0.929 . S
S424 N425 1.613 . S
S424 N426 1.610 . S
N425 S424 1.613 . S
N425 C428 1.350 . S
N426 S424 1.610 . S
N426 C427 1.351 . S
C427 C421 1.428 . S
C427 N426 1.351 . S
C427 C428 1.434 . S
C428 C419 1.429 . S
C428 N425 1.350 . S
C428 C427 1.434 . S
C429 C430 1.369 . S
C429 C431 1.419 . S
C429 H433 0.930 . S
C430 C429 1.369 . S
C430 C439 1.429 1_545 S
C431 C429 1.419 . S
C431 C432 1.363 . S
C431 H434 0.929 . S
C432 C431 1.363 . S
C432 C438 1.428 1_545 S
H433 C429 0.930 . S
H434 C431 0.929 . S
S435 N436 1.613 . S
S435 N437 1.610 . S
N436 S435 1.613 . S
N436 C439 1.350 . S
N437 S435 1.610 . S
N437 C438 1.351 . S
C438 C432 1.428 1_565 S
C438 N437 1.351 . S
C438 C439 1.434 . S
C439 C430 1.429 1_565 S
C439 N436 1.350 . S
C439 C438 1.434 . S
C440 C441 1.369 . S
C440 C442 1.419 . S
C440 H444 0.930 . S
C441 C440 1.369 . S
C441 C450 1.429 . S
C442 C440 1.419 . S
C442 C443 1.363 . S
C442 H445 0.929 . S
C443 C442 1.363 . S
C443 C449 1.428 . S
H444 C440 0.930 . S
H445 C442 0.929 . S
S446 N447 1.613 . S
S446 N448 1.610 . S
N447 S446 1.613 . S
N447 C450 1.350 . S
N448 S446 1.610 . S
N448 C449 1.351 . S
C449 C443 1.428 . S
C449 N448 1.351 . S
C449 C450 1.434 . S
C450 C441 1.429 . S
C450 N447 1.350 . S
C450 C449 1.434 . S
C451 C452 1.369 . S
C451 C453 1.419 . S
C451 H455 0.930 . S
C452 C451 1.369 . S
C452 C461 1.429 . S
C453 C451 1.419 . S
C453 C454 1.363 . S
C453 H456 0.929 . S
C454 C453 1.363 . S
C454 C460 1.428 . S
H455 C451 0.930 . S
H456 C453 0.929 . S
S457 N458 1.613 . S
S457 N459 1.610 . S
N458 S457 1.613 . S
N458 C461 1.350 . S
N459 S457 1.610 . S
N459 C460 1.351 . S
C460 C454 1.428 . S
C460 N459 1.351 . S
C460 C461 1.434 . S
C461 C452 1.429 . S
C461 N458 1.350 . S
C461 C460 1.434 . S
C462 C463 1.369 . S
C462 C464 1.419 . S
C462 H466 0.930 . S
C463 C462 1.369 . S
C463 C472 1.429 . S
C464 C462 1.419 . S
C464 C465 1.363 . S
C464 H467 0.929 . S
C465 C464 1.363 . S
C465 C471 1.428 . S
H466 C462 0.930 . S
H467 C464 0.929 . S
S468 N469 1.613 . S
S468 N470 1.610 . S
N469 S468 1.613 . S
N469 C472 1.350 . S
N470 S468 1.610 . S
N470 C471 1.351 . S
C471 C465 1.428 . S
C471 N470 1.351 . S
C471 C472 1.434 . S
C472 C463 1.429 . S
C472 N469 1.350 . S
C472 C471 1.434 . S
C473 C474 1.369 1_545 S
C473 C475 1.419 . S
C473 H477 0.930 . S
C474 C473 1.369 1_565 S
C474 C483 1.428 . S
C475 C473 1.419 . S
C475 C476 1.363 . S
C475 H478 0.929 . S
C476 C475 1.363 . S
C476 C482 1.428 1_545 S
H477 C473 0.930 . S
H478 C475 0.929 . S
S479 N480 1.613 . S
S479 N481 1.610 . S
N480 S479 1.613 . S
N480 C483 1.350 . S
N481 S479 1.610 . S
N481 C482 1.351 . S
C482 C476 1.428 1_565 S
C482 N481 1.351 . S
C482 C483 1.434 . S
C483 C474 1.428 . S
C483 N480 1.350 . S
C483 C482 1.434 . S
C484 C485 1.369 1_455 S
C484 C486 1.419 . S
C484 H488 0.930 . S
C485 C484 1.369 1_655 S
C485 C494 1.429 . S
C486 C484 1.419 . S
C486 C487 1.363 . S
C486 H489 0.929 . S
C487 C486 1.363 . S
C487 C493 1.428 1_455 S
H488 C484 0.930 . S
H489 C486 0.929 . S
S490 N491 1.613 . S
S490 N492 1.610 . S
N491 S490 1.613 . S
N491 C494 1.350 . S
N492 S490 1.610 . S
N492 C493 1.351 . S
C493 C487 1.428 1_655 S
C493 N492 1.351 . S
C493 C494 1.434 . S
C494 C485 1.429 . S
C494 N491 1.350 . S
C494 C493 1.434 . S
C199 C37 1.496 . S
C201 C18 1.589 . S
C210 C52 1.494 . S
C212 C29 1.604 . S
C221 C62 1.537 . S
C223 C8 1.464 . S
C232 C59 1.590 . S
C234 C32 1.483 . S
C243 C65 1.484 . S
C245 C15 1.617 . S
C254 C21 1.474 . S
C256 C30 1.566 . S
C265 C81 1.611 . S
C267 C109 1.475 . S
C276 C125 1.481 . S
C278 C103 1.599 . S
C287 C117 1.616 . S
C289 C87 1.484 . S
C298 C96 1.471 . S
C300 C118 1.561 . S
C309 C120 1.474 . S
C311 C84 1.548 . S
C320 C106 1.566 . S
C322 C74 1.480 . S
C331 C175 1.471 . S
C333 C150 1.575 . S
C342 C169 1.601 . S
C344 C184 1.480 . S
C353 C194 1.547 . S
C355 C140 1.472 . S
C364 C191 1.577 . S
C366 C162 1.458 . S
C375 C197 1.491 . S
C377 C147 1.627 . S
C386 C153 1.460 . S
C388 C172 1.562 . S
C397 C128 1.358 . S
C399 C10 1.359 . S
C408 C76 1.413 . S
C410 C43 1.396 . S
C419 C54 1.371 . S
C421 C98 1.366 . S
C430 C51 1.364 . S
C432 C142 1.379 . S
C441 C7 1.413 . S
C443 C161 1.416 . S
C452 C186 1.333 . S
C454 C40 1.330 . S
C463 C73 1.387 . S
C465 C183 1.383 . S
C474 C95 1.378 . S
C476 C139 1.378 . S
C485 C164 1.341 . S
C487 C131 1.337 . S
