# Generated by pormake.
# Topology yfy, (5)-cn, num edge types: 1
# Building blocks:
#     Node 0, Type 0, BuildingBlock: XOMCOT_clean_sbu_0, # of connection points: 5
#     Node 1, Type 0, BuildingBlock: XOMCOT_clean_sbu_0, # of connection points: 5
#     Node 2, Type 0, BuildingBlock: XOMCOT_clean_sbu_0, # of connection points: 5
#     Node 3, Type 0, BuildingBlock: XOMCOT_clean_sbu_0, # of connection points: 5
#     Node 4, Type 0, BuildingBlock: XOMCOT_clean_sbu_0, # of connection points: 5
#     Node 5, Type 0, BuildingBlock: XOMCOT_clean_sbu_0, # of connection points: 5
#     Node 6, Type 0, BuildingBlock: XOMCOT_clean_sbu_0, # of connection points: 5
#     Node 7, Type 0, BuildingBlock: XOMCOT_clean_sbu_0, # of connection points: 5
#     Node 8, Type 0, BuildingBlock: XOMCOT_clean_sbu_0, # of connection points: 5
#     Node 9, Type 0, BuildingBlock: XOMCOT_clean_sbu_0, # of connection points: 5
#     Node 10, Type 0, BuildingBlock: XOMCOT_clean_sbu_0, # of connection points: 5
#     Node 11, Type 0, BuildingBlock: XOMCOT_clean_sbu_0, # of connection points: 5
#     Node 12, Type 0, BuildingBlock: XOMCOT_clean_sbu_0, # of connection points: 5
#     Node 13, Type 0, BuildingBlock: XOMCOT_clean_sbu_0, # of connection points: 5
#     Node 14, Type 0, BuildingBlock: XOMCOT_clean_sbu_0, # of connection points: 5
#     Node 15, Type 0, BuildingBlock: XOMCOT_clean_sbu_0, # of connection points: 5
#     Edge 16, Type (0, 0), BuildingBlock: UVAHIK_clean_linker_0, # of connection points: 2
#     Edge 17, Type (0, 0), BuildingBlock: UVAHIK_clean_linker_0, # of connection points: 2
#     Edge 18, Type (0, 0), BuildingBlock: UVAHIK_clean_linker_0, # of connection points: 2
#     Edge 19, Type (0, 0), BuildingBlock: UVAHIK_clean_linker_0, # of connection points: 2
#     Edge 20, Type (0, 0), BuildingBlock: UVAHIK_clean_linker_0, # of connection points: 2
#     Edge 21, Type (0, 0), BuildingBlock: UVAHIK_clean_linker_0, # of connection points: 2
#     Edge 22, Type (0, 0), BuildingBlock: UVAHIK_clean_linker_0, # of connection points: 2
#     Edge 23, Type (0, 0), BuildingBlock: UVAHIK_clean_linker_0, # of connection points: 2
#     Edge 24, Type (0, 0), BuildingBlock: UVAHIK_clean_linker_0, # of connection points: 2
#     Edge 25, Type (0, 0), BuildingBlock: UVAHIK_clean_linker_0, # of connection points: 2
#     Edge 26, Type (0, 0), BuildingBlock: UVAHIK_clean_linker_0, # of connection points: 2
#     Edge 27, Type (0, 0), BuildingBlock: UVAHIK_clean_linker_0, # of connection points: 2
#     Edge 28, Type (0, 0), BuildingBlock: UVAHIK_clean_linker_0, # of connection points: 2
#     Edge 29, Type (0, 0), BuildingBlock: UVAHIK_clean_linker_0, # of connection points: 2
#     Edge 30, Type (0, 0), BuildingBlock: UVAHIK_clean_linker_0, # of connection points: 2
#     Edge 31, Type (0, 0), BuildingBlock: UVAHIK_clean_linker_0, # of connection points: 2
#     Edge 32, Type (0, 0), BuildingBlock: UVAHIK_clean_linker_0, # of connection points: 2
#     Edge 33, Type (0, 0), BuildingBlock: UVAHIK_clean_linker_0, # of connection points: 2
#     Edge 34, Type (0, 0), BuildingBlock: UVAHIK_clean_linker_0, # of connection points: 2
#     Edge 35, Type (0, 0), BuildingBlock: UVAHIK_clean_linker_0, # of connection points: 2
#     Edge 36, Type (0, 0), BuildingBlock: UVAHIK_clean_linker_0, # of connection points: 2
#     Edge 37, Type (0, 0), BuildingBlock: UVAHIK_clean_linker_0, # of connection points: 2
#     Edge 38, Type (0, 0), BuildingBlock: UVAHIK_clean_linker_0, # of connection points: 2
#     Edge 39, Type (0, 0), BuildingBlock: UVAHIK_clean_linker_0, # of connection points: 2
#     Edge 40, Type (0, 0), BuildingBlock: UVAHIK_clean_linker_0, # of connection points: 2
#     Edge 41, Type (0, 0), BuildingBlock: UVAHIK_clean_linker_0, # of connection points: 2
#     Edge 42, Type (0, 0), BuildingBlock: UVAHIK_clean_linker_0, # of connection points: 2
#     Edge 43, Type (0, 0), BuildingBlock: UVAHIK_clean_linker_0, # of connection points: 2
#     Edge 44, Type (0, 0), BuildingBlock: UVAHIK_clean_linker_0, # of connection points: 2
#     Edge 45, Type (0, 0), BuildingBlock: UVAHIK_clean_linker_0, # of connection points: 2
#     Edge 46, Type (0, 0), BuildingBlock: UVAHIK_clean_linker_0, # of connection points: 2
#     Edge 47, Type (0, 0), BuildingBlock: UVAHIK_clean_linker_0, # of connection points: 2
#     Edge 48, Type (0, 0), BuildingBlock: UVAHIK_clean_linker_0, # of connection points: 2
#     Edge 49, Type (0, 0), BuildingBlock: UVAHIK_clean_linker_0, # of connection points: 2
#     Edge 50, Type (0, 0), BuildingBlock: UVAHIK_clean_linker_0, # of connection points: 2
#     Edge 51, Type (0, 0), BuildingBlock: UVAHIK_clean_linker_0, # of connection points: 2
#     Edge 52, Type (0, 0), BuildingBlock: UVAHIK_clean_linker_0, # of connection points: 2
#     Edge 53, Type (0, 0), BuildingBlock: UVAHIK_clean_linker_0, # of connection points: 2
#     Edge 54, Type (0, 0), BuildingBlock: UVAHIK_clean_linker_0, # of connection points: 2
#     Edge 55, Type (0, 0), BuildingBlock: UVAHIK_clean_linker_0, # of connection points: 2
# Relax obj value: 0.242
# Max RMSD: 0.244
# Mean RMSD: 0.244
data_MOF--net-yfy--node1-XOMCOT_clean_sbu_0--edge1-UVAHIK_clean_linker_0
_symmetry_space_group_name_H-M    P1
_symmetry_Int_Tables_number       1
_symmetry_cell_setting            triclinic
loop_
_symmetry_equiv_pos_as_xyz
'x, y, z'
_cell_length_a     55.475075
_cell_length_b     55.491365
_cell_length_c     62.164806
_cell_angle_alpha  89.95634
_cell_angle_beta   89.936836
_cell_angle_gamma 89.936576
loop_
_atom_site_label
_atom_site_type_symbol
_atom_site_fract_x
_atom_site_fract_y
_atom_site_fract_z
_atom_type_partial_charge
Co0 Co 0.0294 0.29226 0.31728 0.0
C1 C 0.99395 0.25067 0.31451 0.0
C2 C 0.99313 0.27503 0.28779 0.0
C3 C 0.97837 0.25599 0.28315 0.0
N4 N 1.00268 0.27217 0.30761 0.0
N5 N 0.9789 0.24069 0.2999 0.0
H6 H 0.99968 0.24139 0.32885 0.0
H7 H 0.99771 0.28942 0.27679 0.0
C8 C 0.99018 0.32634 0.30745 0.0
O9 O 0.97703 0.31234 0.31984 0.0
N10 N 0.05646 0.31227 0.32492 0.0
C11 C 0.07021 0.31178 0.34274 0.0
C12 C 0.08895 0.32787 0.34003 0.0
C13 C 0.06702 0.32823 0.31163 0.0
N14 N 0.08697 0.33818 0.32037 0.0
C15 C 0.01392 0.27934 0.3596 0.0
C16 C 0.01281 0.32577 0.37566 0.0
C17 C 0.01294 0.30636 0.39009 0.0
C18 C 0.01227 0.28296 0.38173 0.0
C19 C 0.01433 0.32136 0.35351 0.0
N20 N 0.01555 0.2983 0.34569 0.0
H21 H 0.01662 0.26122 0.35409 0.0
H22 H 0.01708 0.33656 0.34293 0.0
H23 H 0.06712 0.30023 0.35649 0.0
H24 H 0.06064 0.33156 0.29547 0.0
O25 O 0.04745 0.26405 0.32477 0.0
O26 O 0.04773 0.28097 0.29242 0.0
O27 O 0.01253 0.32147 0.30457 0.0
C28 C 0.05541 0.26393 0.30519 0.0
H29 H 0.96859 0.25318 0.2683 0.0
H30 H 0.10304 0.33139 0.35161 0.0
H31 H 0.01375 0.34415 0.38144 0.0
H32 H 0.01237 0.26743 0.39231 0.0
Co33 Co 0.7798 0.02675 0.31902 0.0
C34 C 0.81767 0.98901 0.3111 0.0
C35 C 0.78464 0.97451 0.32351 0.0
C36 C 0.80044 0.95583 0.32009 0.0
N37 N 0.79537 0.99537 0.31792 0.0
N38 N 0.82125 0.9649 0.31229 0.0
H39 H 0.83109 1.00163 0.30552 0.0
H40 H 0.76644 0.97297 0.32959 0.0
C41 C 0.72969 0.01684 0.2995 0.0
O42 O 0.72152 0.0386 0.30324 0.0
N43 N 0.76452 0.05826 0.32005 0.0
C44 C 0.76229 0.07258 0.33744 0.0
C45 C 0.75243 0.09422 0.33116 0.0
C46 C 0.75728 0.07196 0.30327 0.0
N47 N 0.74901 0.09376 0.30966 0.0
C48 C 0.78521 0.01539 0.36299 0.0
C49 C 0.73797 0.02339 0.3754 0.0
C50 C 0.75597 0.02189 0.39114 0.0
C51 C 0.7796 0.01669 0.38478 0.0
C52 C 0.74441 0.02209 0.35362 0.0
N53 N 0.76802 0.01939 0.34774 0.0
H54 H 0.80382 0.0129 0.35832 0.0
H55 H 0.73075 0.02548 0.34174 0.0
H56 H 0.76787 0.06787 0.35356 0.0
H57 H 0.75735 0.06565 0.28681 0.0
O58 O 0.80935 0.04195 0.32744 0.0
O59 O 0.79746 0.03736 0.29359 0.0
O60 O 0.75102 0.01061 0.30498 0.0
C61 C 0.81329 0.04581 0.30718 0.0
H62 H 0.79662 0.93695 0.32279 0.0
H63 H 0.7484 0.10922 0.34168 0.0
H64 H 0.71951 0.02747 0.37979 0.0
H65 H 0.79392 0.0151 0.39654 0.0
Co66 Co 0.05898 0.79277 0.30683 0.0
C67 C 0.09669 0.8325 0.30368 0.0
C68 C 0.08928 0.81384 0.27423 0.0
C69 C 0.10548 0.83179 0.26992 0.0
N70 N 0.08373 0.81403 0.29536 0.0
N71 N 0.1101 0.84357 0.28837 0.0
H72 H 0.09601 0.83839 0.32017 0.0
H73 H 0.08169 0.80151 0.2626 0.0
C74 C 0.09903 0.76122 0.29332 0.0
O75 O 0.11269 0.77637 0.30402 0.0
N76 N 0.03372 0.77157 0.31656 0.0
C77 C 0.02269 0.77076 0.33588 0.0
C78 C 1.00356 0.75493 0.33458 0.0
C79 C 0.0211 0.75666 0.30377 0.0
N80 N 1.00254 0.74632 0.31431 0.0
C81 C 0.0759 0.80623 0.34851 0.0
C82 C 0.08418 0.75992 0.36309 0.0
C83 C 0.0833 0.77877 0.37809 0.0
C84 C 0.08001 0.80228 0.37036 0.0
C85 C 0.07999 0.76465 0.3413 0.0
N86 N 0.07552 0.78759 0.33419 0.0
H87 H 0.0705 0.82407 0.34364 0.0
H88 H 0.07798 0.74945 0.33064 0.0
H89 H 0.02759 0.78157 0.34966 0.0
H90 H 0.02501 0.75409 0.28686 0.0
O91 O 0.04002 0.82013 0.31533 0.0
O92 O 0.03803 0.80296 0.28325 0.0
O93 O 0.07614 0.76443 0.29289 0.0
C94 C 0.0304 0.81969 0.29635 0.0
H95 H 0.11325 0.8359 0.25437 0.0
H96 H 0.99068 0.75104 0.3472 0.0
H97 H 0.08658 0.74144 0.36828 0.0
H98 H 0.07843 0.81738 0.3813 0.0
Co99 Co 0.31073 0.0581 0.32351 0.0
C100 C 0.27044 0.09471 0.32069 0.0
C101 C 0.29781 0.09888 0.29669 0.0
C102 C 0.27932 0.11425 0.29183 0.0
N103 N 0.2928 0.08691 0.31511 0.0
N104 N 0.26209 0.11159 0.30683 0.0
H105 H 0.25941 0.08674 0.3331 0.0
H106 H 0.31304 0.09531 0.28631 0.0
C107 C 0.34837 0.09484 0.31639 0.0
O108 O 0.33588 0.10788 0.33009 0.0
N109 N 0.32847 0.02907 0.32992 0.0
C110 C 0.32564 0.01373 0.34652 0.0
C111 C 0.33908 0.99325 0.34243 0.0
C112 C 0.34326 0.01783 0.31599 0.0
N113 N 0.34996 0.99581 0.3231 0.0
C114 C 0.29812 0.0733 0.36609 0.0
C115 C 0.34391 0.06929 0.38318 0.0
C116 C 0.32429 0.07186 0.39727 0.0
C117 C 0.30126 0.07468 0.38833 0.0
C118 C 0.33997 0.06798 0.36097 0.0
N119 N 0.3172 0.0696 0.35263 0.0
H120 H 0.28001 0.07297 0.36005 0.0
H121 H 0.35509 0.06382 0.35065 0.0
H122 H 0.31378 0.01671 0.36008 0.0
H123 H 0.34817 0.02535 0.30054 0.0
O124 O 0.28119 0.04177 0.32984 0.0
O125 O 0.29854 0.0424 0.29766 0.0
O126 O 0.34136 0.07342 0.3119 0.0
C127 C 0.28084 0.03506 0.30988 0.0
H128 H 0.27805 0.12561 0.27771 0.0
H129 H 0.33966 0.97723 0.35235 0.0
H130 H 0.36206 0.06712 0.38927 0.0
H131 H 0.28542 0.07605 0.39845 0.0
Co132 Co 0.02989 0.78666 0.67691 0.0
C133 C 0.99249 0.82574 0.67903 0.0
C134 C 0.9835 0.79515 0.69834 0.0
C135 C 0.96738 0.81311 0.70281 0.0
N136 N 0.99908 0.80255 0.68295 0.0
N137 N 0.97315 0.83249 0.6909 0.0
H138 H 1.00287 0.83819 0.66935 0.0
H139 H 0.98494 0.77879 0.70762 0.0
C140 C 0.99791 0.74409 0.68233 0.0
O141 O 0.98507 0.75312 0.66651 0.0
N142 N 0.06069 0.77112 0.67266 0.0
C143 C 0.07708 0.77486 0.657 0.0
C144 C 0.0974 0.76144 0.66164 0.0
C145 C 0.07124 0.75593 0.68667 0.0
N146 N 0.0937 0.74967 0.68039 0.0
C147 C 0.01392 0.79636 0.63413 0.0
C148 C 0.02819 0.75267 0.61688 0.0
C149 C 0.02317 0.77193 0.60298 0.0
C150 C 0.01482 0.79358 0.61186 0.0
C151 C 0.02701 0.7562 0.63916 0.0
N152 N 0.02083 0.77818 0.64755 0.0
H153 H 0.00974 0.81392 0.6404 0.0
H154 H 0.03305 0.74186 0.64963 0.0
H155 H 0.07461 0.78685 0.64345 0.0
H156 H 0.06268 0.74991 0.70136 0.0
O157 O 0.04429 0.81693 0.66999 0.0
O158 O 0.0429 0.80154 0.70288 0.0
O159 O 0.01668 0.7553 0.68896 0.0
C160 C 0.04982 0.81899 0.69014 0.0
H161 H 0.95339 0.8124 0.71493 0.0
H162 H 0.1139 0.76107 0.65234 0.0
H163 H 0.03484 0.73568 0.6107 0.0
H164 H 0.0105 0.80884 0.60168 0.0
Co165 Co 0.29799 0.0305 0.69734 0.0
C166 C 0.25633 0.99549 0.69925 0.0
C167 C 0.28361 0.98915 0.72289 0.0
C168 C 0.26482 0.97398 0.72702 0.0
N169 N 0.27893 1.00222 0.70504 0.0
N170 N 0.24745 0.97806 0.71237 0.0
H171 H 0.24573 0.00441 0.68705 0.0
H172 H 0.29896 0.99158 0.73333 0.0
C173 C 0.33439 0.99231 0.70413 0.0
O174 O 0.32141 0.97991 0.69036 0.0
N175 N 0.31684 0.05893 0.69154 0.0
C176 C 0.31524 0.07429 0.67481 0.0
C177 C 0.33059 0.0934 0.67854 0.0
C178 C 0.33272 0.06888 0.70523 0.0
N179 N 0.34143 0.08999 0.69775 0.0
C180 C 0.28613 0.01648 0.65415 0.0
C181 C 0.33269 0.01887 0.63842 0.0
C182 C 0.31357 0.01743 0.62372 0.0
C183 C 0.29009 0.01541 0.63195 0.0
C184 C 0.32794 0.02011 0.66046 0.0
N185 N 0.30483 0.01927 0.66817 0.0
H186 H 0.26782 0.0172 0.6598 0.0
H187 H 0.34283 0.0236 0.6712 0.0
H188 H 0.30333 0.07205 0.66119 0.0
H189 H 0.33742 0.06093 0.72057 0.0
O190 O 0.26914 0.04802 0.6908 0.0
O191 O 0.28566 0.04624 0.72322 0.0
O192 O 0.32798 0.01383 0.70906 0.0
C193 C 0.26847 0.0544 0.71084 0.0
H194 H 0.26375 0.96155 0.7404 0.0
H195 H 0.33285 0.10902 0.6683 0.0
H196 H 0.35117 0.02025 0.63293 0.0
H197 H 0.27463 0.01481 0.62135 0.0
Co198 Co 0.0547 0.29825 0.68861 0.0
C199 C 0.09157 0.25948 0.69707 0.0
C200 C 0.10687 0.29271 0.68591 0.0
C201 C 0.12526 0.27669 0.68955 0.0
N202 N 0.0857 0.28203 0.69055 0.0
N203 N 0.11572 0.25573 0.69654 0.0
H204 H 0.0786 0.24603 0.70196 0.0
H205 H 0.10883 0.31109 0.68036 0.0
C206 C 0.06548 0.34905 0.70628 0.0
O207 O 0.04458 0.3577 0.70014 0.0
N208 N 0.0237 0.3144 0.68691 0.0
C209 C 0.00986 0.31776 0.66939 0.0
C210 C 0.989 0.32935 0.67551 0.0
C211 C 0.01045 0.3227 0.70356 0.0
N212 N 0.98941 0.33275 0.69705 0.0
C213 C 0.06798 0.29131 0.64516 0.0
C214 C 0.06247 0.33821 0.63103 0.0
C215 C 0.06588 0.31986 0.61579 0.0
C216 C 0.06944 0.29628 0.62323 0.0
C217 C 0.06132 0.33245 0.65297 0.0
N218 N 0.06314 0.30907 0.65971 0.0
H219 H 0.06953 0.27281 0.65042 0.0
H220 H 0.05731 0.34662 0.66412 0.0
H221 H 0.01454 0.31223 0.65324 0.0
H222 H 0.0167 0.32199 0.72 0.0
O223 O 0.03885 0.26894 0.68033 0.0
O224 O 0.04298 0.28119 0.71404 0.0
O225 O 0.07109 0.32701 0.70272 0.0
C226 C 0.0343 0.26539 0.70055 0.0
H227 H 0.14427 0.28044 0.68759 0.0
H228 H 0.97494 0.33515 0.66465 0.0
H229 H 0.05987 0.35673 0.62602 0.0
H230 H 0.07189 0.28142 0.61216 0.0
Co231 Co 0.78405 0.05684 0.68452 0.0
C232 C 0.8245 0.09232 0.69114 0.0
C233 C 0.79026 0.10908 0.6853 0.0
C234 C 0.80711 0.12682 0.68843 0.0
N235 N 0.80104 0.08739 0.68696 0.0
N236 N 0.8287 0.11636 0.69208 0.0
H237 H 0.83826 0.07875 0.69329 0.0
H238 H 0.77128 0.11184 0.68214 0.0
C239 C 0.73565 0.06694 0.70723 0.0
O240 O 0.72582 0.04667 0.70091 0.0
N241 N 0.7672 0.02627 0.68233 0.0
C242 C 0.7617 0.01405 0.66428 0.0
C243 C 0.75049 0.99284 0.66993 0.0
C244 C 0.76047 0.01169 0.69868 0.0
N245 N 0.7495 0.99141 0.69161 0.0
C246 C 0.78608 0.07399 0.64175 0.0
C247 C 0.73769 0.07013 0.63187 0.0
C248 C 0.75418 0.0749 0.61529 0.0
C249 C 0.77856 0.07763 0.62063 0.0
C250 C 0.746 0.06682 0.65293 0.0
N251 N 0.77007 0.06786 0.65749 0.0
H252 H 0.80513 0.0749 0.64529 0.0
H253 H 0.73317 0.06176 0.665 0.0
H254 H 0.7655 0.02008 0.64809 0.0
H255 H 0.76312 0.01628 0.71542 0.0
O256 O 0.81188 0.04139 0.6725 0.0
O257 O 0.80371 0.04303 0.70739 0.0
O258 O 0.75737 0.07226 0.70215 0.0
C259 C 0.81776 0.03534 0.69196 0.0
H260 H 0.80351 0.14598 0.68844 0.0
H261 H 0.74314 0.97984 0.65877 0.0
H262 H 0.71866 0.06805 0.62848 0.0
H263 H 0.79204 0.08104 0.60839 0.0
Co264 Co 0.53192 0.79748 0.81837 0.0
C265 C 0.49581 0.75791 0.81026 0.0
C266 C 0.47964 0.79185 0.81834 0.0
C267 C 0.46162 0.77539 0.81496 0.0
N268 N 0.50113 0.78105 0.81536 0.0
N269 N 0.47168 0.75396 0.80994 0.0
H270 H 0.50917 0.74415 0.80718 0.0
H271 H 0.47718 0.81054 0.82278 0.0
C272 C 0.52105 0.84892 0.80211 0.0
O273 O 0.54138 0.85785 0.80932 0.0
N274 N 0.5627 0.81383 0.82117 0.0
C275 C 0.57601 0.81653 0.83914 0.0
C276 C 0.59697 0.82848 0.83391 0.0
C277 C 0.57635 0.82296 0.80511 0.0
N278 N 0.59708 0.83262 0.81253 0.0
C279 C 0.51832 0.78859 0.8614 0.0
C280 C 0.52357 0.83486 0.87712 0.0
C281 C 0.52173 0.81564 0.89167 0.0
C282 C 0.5179 0.79245 0.88353 0.0
C283 C 0.52396 0.83017 0.85495 0.0
N284 N 0.52262 0.80706 0.84742 0.0
H285 H 0.51678 0.77034 0.85552 0.0
H286 H 0.52734 0.84494 0.84426 0.0
H287 H 0.57098 0.81016 0.85496 0.0
H288 H 0.57067 0.82345 0.78846 0.0
O289 O 0.54779 0.76803 0.8261 0.0
O290 O 0.54442 0.78158 0.79266 0.0
O291 O 0.51586 0.82663 0.80471 0.0
C292 C 0.5528 0.76529 0.80587 0.0
H293 H 0.44251 0.77916 0.81589 0.0
H294 H 0.6111 0.8336 0.84499 0.0
H295 H 0.5265 0.85307 0.88279 0.0
H296 H 0.51588 0.77716 0.89424 0.0
Co297 Co 0.28495 0.53207 0.813 0.0
C298 C 0.32408 0.4955 0.80554 0.0
C299 C 0.29117 0.48009 0.81739 0.0
C300 C 0.30768 0.46189 0.81469 0.0
N301 N 0.30141 0.50121 0.81181 0.0
N302 N 0.32835 0.47157 0.80725 0.0
H303 H 0.33737 0.50843 0.80023 0.0
H304 H 0.27287 0.47806 0.82315 0.0
C305 C 0.23444 0.52045 0.79508 0.0
O306 O 0.22548 0.54132 0.80093 0.0
N307 N 0.26861 0.56295 0.81403 0.0
C308 C 0.26562 0.57728 0.83132 0.0
C309 C 0.25413 0.59807 0.82492 0.0
C310 C 0.26015 0.5758 0.7972 0.0
N311 N 0.25047 0.59703 0.80347 0.0
C312 C 0.2916 0.52073 0.85693 0.0
C313 C 0.24434 0.52564 0.87034 0.0
C314 C 0.26263 0.52411 0.88583 0.0
C315 C 0.28638 0.52063 0.87886 0.0
C316 C 0.25038 0.52573 0.84843 0.0
N317 N 0.27392 0.52433 0.84201 0.0
H318 H 0.3102 0.5192 0.85192 0.0
H319 H 0.23625 0.52871 0.837 0.0
H320 H 0.27149 0.57302 0.84747 0.0
H321 H 0.26006 0.56912 0.78085 0.0
O322 O 0.31409 0.54833 0.82116 0.0
O323 O 0.30219 0.5433 0.78746 0.0
O324 O 0.25649 0.51511 0.79894 0.0
C325 C 0.31784 0.55237 0.80089 0.0
H326 H 0.30465 0.44294 0.81782 0.0
H327 H 0.24892 0.61282 0.83531 0.0
H328 H 0.22574 0.52836 0.87507 0.0
H329 H 0.301 0.51886 0.89029 0.0
Co330 Co 0.55955 0.29584 0.80843 0.0
C331 C 0.59561 0.33678 0.80769 0.0
C332 C 0.59874 0.31205 0.78141 0.0
C333 C 0.61397 0.33096 0.7776 0.0
N334 N 0.58744 0.31524 0.80046 0.0
N335 N 0.61198 0.34648 0.79408 0.0
H336 H 0.58853 0.34633 0.8214 0.0
H337 H 0.59502 0.29758 0.77025 0.0
C338 C 0.59864 0.26075 0.80133 0.0
O339 O 0.6111 0.27454 0.81441 0.0
N340 N 0.53148 0.27657 0.81446 0.0
C341 C 0.51614 0.27797 0.83122 0.0
C342 C 0.49721 0.26237 0.82752 0.0
C343 C 0.52172 0.26054 0.80079 0.0
N344 N 0.50072 0.25158 0.80829 0.0
C345 C 0.57191 0.30861 0.85163 0.0
C346 C 0.57162 0.26219 0.86781 0.0
C347 C 0.57124 0.2816 0.8822 0.0
C348 C 0.5724 0.305 0.87382 0.0
C349 C 0.57115 0.26659 0.84562 0.0
N350 N 0.57087 0.28964 0.8377 0.0
H351 H 0.56984 0.32676 0.84596 0.0
H352 H 0.5687 0.25142 0.83498 0.0
H353 H 0.51822 0.28994 0.84481 0.0
H354 H 0.52969 0.25597 0.78543 0.0
O355 O 0.54162 0.32449 0.81459 0.0
O356 O 0.54359 0.30745 0.78238 0.0
O357 O 0.57671 0.26617 0.79699 0.0
C358 C 0.53533 0.32478 0.79454 0.0
H359 H 0.62502 0.33359 0.76343 0.0
H360 H 0.48162 0.25994 0.83776 0.0
H361 H 0.57025 0.24383 0.8736 0.0
H362 H 0.57206 0.32053 0.88437 0.0
Co363 Co 0.80772 0.56314 0.82149 0.0
C364 C 0.76844 0.59917 0.81283 0.0
C365 C 0.80202 0.61555 0.82165 0.0
C366 C 0.78524 0.63346 0.8186 0.0
N367 N 0.79156 0.59401 0.81809 0.0
N368 N 0.76414 0.62317 0.81307 0.0
H369 H 0.75478 0.58582 0.80954 0.0
H370 H 0.82055 0.61807 0.82656 0.0
C371 C 0.85904 0.57296 0.80456 0.0
O372 O 0.86775 0.5525 0.81173 0.0
N373 N 0.82364 0.53219 0.82476 0.0
C374 C 0.82556 0.51899 0.8429 0.0
C375 C 0.83672 0.4975 0.83805 0.0
C376 C 0.8324 0.51796 0.80895 0.0
N377 N 0.84113 0.49694 0.81671 0.0
C378 C 0.79895 0.57749 0.86428 0.0
C379 C 0.84501 0.57072 0.8801 0.0
C380 C 0.82575 0.57298 0.89458 0.0
C381 C 0.80272 0.57771 0.8864 0.0
C382 C 0.84042 0.57066 0.85792 0.0
N383 N 0.81736 0.57264 0.85038 0.0
H384 H 0.78075 0.57948 0.85834 0.0
H385 H 0.8551 0.56683 0.8472 0.0
H386 H 0.81902 0.52439 0.85856 0.0
H387 H 0.83315 0.52331 0.79221 0.0
O388 O 0.77801 0.54773 0.82927 0.0
O389 O 0.79195 0.55067 0.79586 0.0
O390 O 0.83696 0.57872 0.80768 0.0
C391 C 0.77543 0.5427 0.80904 0.0
H392 H 0.78834 0.65261 0.8204 0.0
H393 H 0.84102 0.48327 0.84933 0.0
H394 H 0.86309 0.5671 0.88582 0.0
H395 H 0.78744 0.58009 0.89706 0.0
Co396 Co 0.53274 0.28519 0.18134 0.0
C397 C 0.49568 0.3238 0.1896 0.0
C398 C 0.48026 0.28925 0.18265 0.0
C399 C 0.46188 0.30531 0.18627 0.0
N400 N 0.50151 0.30071 0.18479 0.0
N401 N 0.47149 0.32711 0.19059 0.0
H402 H 0.50872 0.33799 0.19199 0.0
H403 H 0.47821 0.2704 0.17865 0.0
C404 C 0.52355 0.23369 0.19855 0.0
O405 O 0.54362 0.22474 0.19074 0.0
N406 N 0.56392 0.26978 0.17814 0.0
C407 C 0.57751 0.26852 0.16021 0.0
C408 C 0.59899 0.25737 0.16519 0.0
C409 C 0.57777 0.26051 0.19395 0.0
N410 N 0.59907 0.25213 0.18642 0.0
C411 C 0.51713 0.29289 0.13863 0.0
C412 C 0.52412 0.24674 0.1232 0.0
C413 C 0.51959 0.26541 0.10849 0.0
C414 C 0.51524 0.28857 0.11662 0.0
C415 C 0.52575 0.25186 0.14522 0.0
N416 N 0.5232 0.2749 0.1526 0.0
H417 H 0.51509 0.31116 0.14436 0.0
H418 H 0.53073 0.23753 0.15588 0.0
H419 H 0.57232 0.27544 0.14461 0.0
H420 H 0.57187 0.25917 0.2105 0.0
O421 O 0.54746 0.31506 0.17306 0.0
O422 O 0.54512 0.30174 0.20667 0.0
O423 O 0.51796 0.25586 0.19574 0.0
C424 C 0.55265 0.31818 0.19322 0.0
H425 H 0.44286 0.30103 0.18597 0.0
H426 H 0.61347 0.25364 0.15401 0.0
H427 H 0.52729 0.2285 0.1177 0.0
H428 H 0.51193 0.30368 0.10599 0.0
Co429 Co 0.80166 0.52977 0.19292 0.0
C430 C 0.76138 0.49392 0.19746 0.0
C431 C 0.79545 0.47769 0.18978 0.0
C432 C 0.77841 0.45983 0.19099 0.0
N433 N 0.78487 0.4991 0.1938 0.0
N434 N 0.75699 0.47002 0.19577 0.0
H435 H 0.7476 0.50724 0.20065 0.0
H436 H 0.8143 0.47523 0.18586 0.0
C437 C 0.85198 0.5176 0.21096 0.0
O438 O 0.86127 0.53843 0.2054 0.0
N439 N 0.81836 0.56041 0.1922 0.0
C440 C 0.82276 0.57452 0.17502 0.0
C441 C 0.83443 0.59501 0.18187 0.0
C442 C 0.82623 0.57305 0.20933 0.0
N443 N 0.83681 0.59401 0.20349 0.0
C444 C 0.79513 0.51857 0.14895 0.0
C445 C 0.84271 0.52133 0.13601 0.0
C446 C 0.82469 0.51916 0.12031 0.0
C447 C 0.80069 0.51709 0.12713 0.0
C448 C 0.83634 0.52266 0.15778 0.0
N449 N 0.81269 0.5221 0.16395 0.0
H450 H 0.77642 0.51794 0.15377 0.0
H451 H 0.85039 0.52561 0.16928 0.0
H452 H 0.8179 0.5703 0.15861 0.0
H453 H 0.82469 0.56658 0.22569 0.0
O454 O 0.77262 0.54651 0.18503 0.0
O455 O 0.78477 0.54063 0.21863 0.0
O456 O 0.82994 0.51256 0.20687 0.0
C457 C 0.76913 0.55012 0.20543 0.0
H458 H 0.78156 0.44079 0.18849 0.0
H459 H 0.84112 0.60918 0.17153 0.0
H460 H 0.86152 0.52272 0.13151 0.0
H461 H 0.78607 0.51565 0.11568 0.0
Co462 Co 0.55342 0.7932 0.19061 0.0
C463 C 0.58987 0.75415 0.19866 0.0
C464 C 0.60591 0.78789 0.18975 0.0
C465 C 0.62405 0.77175 0.19417 0.0
N466 N 0.58443 0.77701 0.19273 0.0
N467 N 0.61393 0.7506 0.19975 0.0
H468 H 0.57673 0.74049 0.20264 0.0
H469 H 0.60823 0.80642 0.18479 0.0
C470 C 0.56311 0.8433 0.21032 0.0
O471 O 0.54204 0.85196 0.20474 0.0
N472 N 0.52231 0.80908 0.18881 0.0
C473 C 0.50873 0.81282 0.17117 0.0
C474 C 0.48772 0.8242 0.17726 0.0
C475 C 0.50872 0.8168 0.20547 0.0
N476 N 0.48787 0.827 0.19884 0.0
C477 C 0.56797 0.78809 0.14725 0.0
C478 C 0.56272 0.83559 0.1347 0.0
C479 C 0.56697 0.81801 0.11891 0.0
C480 C 0.5703 0.79409 0.12559 0.0
C481 C 0.56064 0.8288 0.15634 0.0
N482 N 0.56247 0.80515 0.16226 0.0
H483 H 0.56946 0.76938 0.15189 0.0
H484 H 0.55602 0.84239 0.16792 0.0
H485 H 0.51374 0.80776 0.15497 0.0
H486 H 0.51482 0.81634 0.22199 0.0
O487 O 0.53808 0.76409 0.18126 0.0
O488 O 0.54128 0.77527 0.2154 0.0
O489 O 0.56927 0.82167 0.20565 0.0
C490 C 0.53321 0.75981 0.20131 0.0
H491 H 0.64323 0.77521 0.19323 0.0
H492 H 0.47359 0.83017 0.16652 0.0
H493 H 0.56026 0.85432 0.13032 0.0
H494 H 0.57331 0.77977 0.11407 0.0
Co495 Co 0.28364 0.54915 0.18481 0.0
C496 C 0.32462 0.58415 0.19031 0.0
C497 C 0.29153 0.60087 0.18042 0.0
C498 C 0.30881 0.61842 0.1823 0.0
N499 N 0.30136 0.57934 0.18532 0.0
N500 N 0.32961 0.60794 0.1885 0.0
H501 H 0.33778 0.57069 0.19478 0.0
H502 H 0.27298 0.60364 0.17566 0.0
C503 C 0.23414 0.56311 0.20382 0.0
O504 O 0.2241 0.54254 0.19862 0.0
N505 N 0.26597 0.519 0.18453 0.0
C506 C 0.26045 0.50524 0.16736 0.0
C507 C 0.24769 0.48544 0.17434 0.0
C508 C 0.25778 0.50667 0.20178 0.0
N509 N 0.24592 0.48647 0.19596 0.0
C510 C 0.28934 0.5605 0.1407 0.0
C511 C 0.2414 0.55949 0.12877 0.0
C512 C 0.25907 0.56169 0.11272 0.0
C513 C 0.28329 0.56276 0.11904 0.0
C514 C 0.24826 0.5574 0.15038 0.0
N515 N 0.27206 0.55723 0.15606 0.0
H516 H 0.30818 0.56053 0.14512 0.0
H517 H 0.23442 0.55458 0.16213 0.0
H518 H 0.26517 0.50932 0.15088 0.0
H519 H 0.25918 0.51315 0.21816 0.0
O520 O 0.31186 0.53161 0.17611 0.0
O521 O 0.30111 0.53762 0.21004 0.0
O522 O 0.25629 0.56733 0.19937 0.0
C523 C 0.31608 0.52783 0.19635 0.0
H524 H 0.30618 0.6375 0.1795 0.0
H525 H 0.24009 0.47148 0.16428 0.0
H526 H 0.22245 0.55881 0.12466 0.0
H527 H 0.29764 0.56419 0.10729 0.0
C528 C 0.00527 0.32788 0.42529 0.0
C529 C 0.01752 0.31013 0.4134 0.0
C530 C 0.0103 0.33119 0.44722 0.0
C531 C 0.0384 0.29929 0.49354 0.0
H532 H 0.04116 0.36269 0.5196 0.0
C533 C 0.07802 0.31196 0.5775 0.0
C534 C 0.06347 0.32448 0.59229 0.0
C535 C 0.07303 0.31284 0.5555 0.0
C536 C 0.04034 0.34489 0.51252 0.0
H537 H 0.04558 0.28294 0.41488 0.0
H538 H 0.05453 0.28884 0.45263 0.0
H539 H 0.03026 0.35872 0.48156 0.0
H540 H 0.03311 0.34895 0.5953 0.0
H541 H 0.0247 0.35078 0.55673 0.0
H542 H 0.04879 0.28545 0.52425 0.0
C543 C 0.04041 0.29965 0.44544 0.0
C544 C 0.03398 0.34258 0.49078 0.0
C545 C 0.03526 0.29624 0.42372 0.0
C546 C 0.04482 0.33924 0.58436 0.0
C547 C 0.03992 0.34023 0.56227 0.0
C548 C 0.04495 0.30162 0.51508 0.0
C549 C 0.02785 0.31695 0.45759 0.0
C550 C 0.03321 0.31973 0.48096 0.0
C551 C 0.05348 0.32639 0.54771 0.0
C552 C 0.04625 0.32442 0.52478 0.0
H553 H 0.9916 0.33894 0.4177 0.0
H554 H 1.0002 0.3446 0.4561 0.0
H555 H 0.03736 0.28135 0.48675 0.0
H556 H 0.09283 0.30082 0.583 0.0
H557 H 0.08412 0.30238 0.5446 0.0
C558 C 0.7315 0.05618 0.58461 0.0
C559 C 0.74683 0.07444 0.5923 0.0
C560 C 0.72838 0.05276 0.56248 0.0
C561 C 0.76327 0.06047 0.5136 0.0
H562 H 0.70443 0.04501 0.48297 0.0
C563 C 0.76499 0.04773 0.42266 0.0
C564 C 0.75123 0.02913 0.41365 0.0
C565 C 0.76175 0.05446 0.44404 0.0
C566 C 0.72104 0.04903 0.49136 0.0
H567 H 0.76905 0.10478 0.58285 0.0
H568 H 0.76374 0.09868 0.54429 0.0
H569 H 0.70263 0.05561 0.52124 0.0
H570 H 0.72263 1.00348 0.41954 0.0
H571 H 0.71741 0.01465 0.45751 0.0
H572 H 0.78191 0.05319 0.48434 0.0
C573 C 0.75448 0.08678 0.55537 0.0
C574 C 0.71997 0.05521 0.51321 0.0
C575 C 0.75752 0.09026 0.57744 0.0
C576 C 0.73354 0.0178 0.42624 0.0
C577 C 0.7305 0.02431 0.44789 0.0
C578 C 0.76437 0.05407 0.49196 0.0
C579 C 0.7406 0.06746 0.54766 0.0
C580 C 0.74109 0.06124 0.52446 0.0
C581 C 0.7449 0.04248 0.45713 0.0
C582 C 0.74328 0.04853 0.48044 0.0
H583 H 0.72317 0.04354 0.59561 0.0
H584 H 0.71764 0.03768 0.55699 0.0
H585 H 0.77992 0.06438 0.52198 0.0
H586 H 0.77836 0.05713 0.4131 0.0
H587 H 0.77263 0.06903 0.45033 0.0
C588 C 0.04264 0.78975 0.57043 0.0
C589 C 0.02962 0.77073 0.57979 0.0
C590 C 0.04959 0.78883 0.54889 0.0
C591 C 0.05842 0.74718 0.50277 0.0
H592 H 0.05712 0.8069 0.47034 0.0
C593 C 0.0687 0.75444 0.40969 0.0
C594 C 0.08228 0.77392 0.40167 0.0
C595 C 0.0643 0.7521 0.43177 0.0
C596 C 0.05787 0.79012 0.47924 0.0
H597 H 0.01392 0.73564 0.57392 0.0
H598 H 0.02554 0.73424 0.53587 0.0
H599 H 0.04394 0.8067 0.50761 0.0
H600 H 0.10331 0.80518 0.41085 0.0
H601 H 0.09536 0.80124 0.44931 0.0
H602 H 0.0718 0.7306 0.47392 0.0
C603 C 0.03068 0.74976 0.54536 0.0
C604 C 0.05032 0.78998 0.50066 0.0
C605 C 0.02389 0.75059 0.5671 0.0
C606 C 0.09243 0.79022 0.4164 0.0
C607 C 0.08787 0.78798 0.43844 0.0
C608 C 0.06577 0.74729 0.48119 0.0
C609 C 0.04356 0.76896 0.53596 0.0
C610 C 0.05071 0.76858 0.51282 0.0
C611 C 0.07322 0.76928 0.44629 0.0
C612 C 0.06578 0.76883 0.46927 0.0
H613 H 0.04795 0.80522 0.57991 0.0
H614 H 0.06006 0.80365 0.54247 0.0
H615 H 0.05921 0.73042 0.51167 0.0
H616 H 0.06027 0.74172 0.39886 0.0
H617 H 0.05283 0.73759 0.43732 0.0
C618 C 0.3352 0.03714 0.59272 0.0
C619 C 0.31776 0.02067 0.60015 0.0
C620 C 0.33773 0.04199 0.57076 0.0
C621 C 0.30311 0.04157 0.52057 0.0
H622 H 0.36548 0.0489 0.49308 0.0
C623 C 0.31253 0.08177 0.43545 0.0
C624 C 0.32715 0.06881 0.42099 0.0
C625 C 0.31286 0.07652 0.45746 0.0
C626 C 0.34794 0.04686 0.50053 0.0
H627 H 0.28994 0.99572 0.58994 0.0
H628 H 0.29414 0.00451 0.55162 0.0
H629 H 0.36326 0.03678 0.53089 0.0
H630 H 0.35416 0.04057 0.41869 0.0
H631 H 0.35507 0.03185 0.45709 0.0
H632 H 0.28775 0.0516 0.49027 0.0
C633 C 0.30571 0.01379 0.56292 0.0
C634 C 0.34667 0.04006 0.5222 0.0
C635 C 0.30331 0.00877 0.5849 0.0
C636 C 0.34292 0.05123 0.4293 0.0
C637 C 0.34338 0.04611 0.45135 0.0
C638 C 0.30438 0.04859 0.49899 0.0
C639 C 0.32275 0.03068 0.55563 0.0
C640 C 0.32423 0.03729 0.53246 0.0
C641 C 0.32796 0.05831 0.46561 0.0
C642 C 0.3268 0.05133 0.48871 0.0
H643 H 0.34634 0.04708 0.60391 0.0
H644 H 0.35082 0.05531 0.5657 0.0
H645 H 0.28555 0.03986 0.52806 0.0
H646 H 0.30047 0.09571 0.42971 0.0
H647 H 0.30109 0.08656 0.46811 0.0
C648 C 0.54322 0.80367 0.92519 0.0
C649 C 0.52664 0.81897 0.91495 0.0
C650 C 0.54819 0.80618 0.94703 0.0
C651 C 0.54249 0.84778 0.99368 0.0
H652 H 0.55331 0.78866 0.02557 0.0
C653 C 0.54784 0.83928 0.08743 0.0
C654 C 0.5658 0.82378 0.09551 0.0
C655 C 0.54419 0.84156 0.06522 0.0
C656 C 0.55058 0.80535 0.01685 0.0
H657 H 0.50264 0.84934 0.91945 0.0
H658 H 0.51074 0.85336 0.95809 0.0
H659 H 0.54342 0.78668 0.98759 0.0
H660 H 0.59527 0.80012 0.08646 0.0
H661 H 0.58861 0.8038 0.04784 0.0
H662 H 0.54903 0.86627 0.02349 0.0
C663 C 0.5202 0.83959 0.94907 0.0
C664 C 0.54495 0.80425 0.99502 0.0
C665 C 0.51543 0.83724 0.92699 0.0
C666 C 0.58093 0.81179 0.08083 0.0
C667 C 0.57715 0.81391 0.05871 0.0
C668 C 0.54785 0.84885 0.01572 0.0
C669 C 0.53648 0.82389 0.95941 0.0
C670 C 0.54119 0.82543 0.98301 0.0
C671 C 0.5583 0.82825 0.05069 0.0
C672 C 0.55228 0.82762 0.02742 0.0
H673 H 0.55263 0.78983 0.91619 0.0
H674 H 0.56139 0.79424 0.95418 0.0
H675 H 0.53988 0.86447 0.98495 0.0
H676 H 0.5357 0.84863 0.09824 0.0
H677 H 0.52949 0.85269 0.05948 0.0
C678 C 0.23822 0.51732 0.91959 0.0
C679 C 0.25757 0.52855 0.90896 0.0
C680 C 0.23389 0.52184 0.94146 0.0
C681 C 0.24578 0.5664 0.98423 0.0
H682 H 0.23947 0.51268 0.02371 0.0
C683 C 0.26543 0.57547 0.07461 0.0
C684 C 0.25273 0.56117 0.08944 0.0
C685 C 0.26168 0.57284 0.05251 0.0
C686 C 0.24069 0.52796 0.01292 0.0
H687 H 0.28699 0.55391 0.91268 0.0
H688 H 0.27945 0.56177 0.9506 0.0
H689 H 0.24068 0.50521 0.98503 0.0
H690 H 0.2254 0.53346 0.09259 0.0
H691 H 0.21837 0.52933 0.05403 0.0
H692 H 0.24607 0.58918 0.01196 0.0
C693 C 0.26766 0.54943 0.94216 0.0
C694 C 0.24144 0.52363 0.99074 0.0
C695 C 0.27216 0.54469 0.9205 0.0
C696 C 0.23537 0.54491 0.08164 0.0
C697 C 0.23157 0.54231 0.0595 0.0
C698 C 0.24485 0.57075 0.00635 0.0
C699 C 0.24855 0.53804 0.95293 0.0
C700 C 0.24461 0.54276 0.9762 0.0
C701 C 0.24503 0.5559 0.04463 0.0
C702 C 0.24293 0.55155 0.02103 0.0
H703 H 0.22668 0.50482 0.91108 0.0
H704 H 0.21898 0.51286 0.94936 0.0
H705 H 0.24782 0.58155 0.97338 0.0
H706 H 0.27871 0.58838 0.08005 0.0
H707 H 0.27257 0.58348 0.04161 0.0
C708 C 0.54852 0.29176 0.91569 0.0
C709 C 0.56632 0.27783 0.90547 0.0
C710 C 0.54315 0.28831 0.93739 0.0
C711 C 0.54962 0.24513 0.98276 0.0
H712 H 0.53413 0.30187 0.01646 0.0
C713 C 0.54049 0.24735 0.07632 0.0
C714 C 0.52176 0.26161 0.08483 0.0
C715 C 0.54493 0.24686 0.05414 0.0
C716 C 0.53814 0.28581 0.00722 0.0
H717 H 0.59219 0.24903 0.90994 0.0
H718 H 0.58326 0.24333 0.94825 0.0
H719 H 0.54515 0.3063 0.97885 0.0
H720 H 0.49189 0.28505 0.07641 0.0
H721 H 0.49985 0.28442 0.03783 0.0
H722 H 0.5431 0.2248 0.01161 0.0
C723 C 0.57321 0.25675 0.93933 0.0
C724 C 0.54445 0.28832 0.9856 0.0
C725 C 0.57844 0.26008 0.91743 0.0
C726 C 0.50677 0.27428 0.07049 0.0
C727 C 0.51132 0.27392 0.04838 0.0
C728 C 0.54352 0.24264 0.00455 0.0
C729 C 0.55555 0.27095 0.94961 0.0
C730 C 0.54999 0.26803 0.97296 0.0
C731 C 0.53085 0.26074 0.04002 0.0
C732 C 0.53744 0.26296 0.01692 0.0
H733 H 0.53835 0.30512 0.90678 0.0
H734 H 0.52897 0.29912 0.9445 0.0
H735 H 0.55354 0.22907 0.97351 0.0
H736 H 0.55258 0.23758 0.08686 0.0
H737 H 0.56017 0.23662 0.04818 0.0
C738 C 0.81733 0.50757 0.08182 0.0
C739 C 0.83033 0.52115 0.09695 0.0
C740 C 0.8197 0.51218 0.05984 0.0
C741 C 0.85669 0.54096 0.01791 0.0
H742 H 0.79506 0.55027 0.98974 0.0
C743 C 0.84728 0.57733 0.93014 0.0
C744 C 0.82868 0.56728 0.91775 0.0
C745 C 0.84925 0.57176 0.95211 0.0
C746 C 0.81246 0.54741 0.9972 0.0
H747 H 0.8571 0.54935 0.10065 0.0
H748 H 0.86154 0.55703 0.06214 0.0
H749 H 0.79619 0.53884 0.02742 0.0
H750 H 0.79854 0.54246 0.9182 0.0
H751 H 0.80222 0.5324 0.95599 0.0
H752 H 0.87295 0.54919 0.98746 0.0
C753 C 0.84946 0.54288 0.0674 0.0
C754 C 0.81307 0.54088 0.01884 0.0
C755 C 0.84696 0.53838 0.08946 0.0
C756 C 0.81265 0.55102 0.92749 0.0
C757 C 0.81475 0.54529 0.94921 0.0
C758 C 0.85608 0.54726 0.99607 0.0
C759 C 0.83527 0.53034 0.05244 0.0
C760 C 0.83515 0.53736 0.0294 0.0
C761 C 0.8328 0.55585 0.96195 0.0
C762 C 0.83391 0.55031 0.98539 0.0
H763 H 0.80475 0.49381 0.08699 0.0
H764 H 0.80887 0.50192 0.04862 0.0
H765 H 0.87396 0.53839 0.0257 0.0
H766 H 0.85995 0.58982 0.92297 0.0
H767 H 0.86332 0.5803 0.96144 0.0
C768 C 0.07063 0.22211 0.30686 0.0
C769 C 0.07319 0.2456 0.29884 0.0
C770 C 0.08954 0.20563 0.30532 0.0
C771 C 0.15022 0.195 0.28111 0.0
H772 H 0.15835 0.15534 0.33201 0.0
C773 C 0.2267 0.12528 0.28639 0.0
C774 C 0.23867 0.12267 0.30615 0.0
C775 C 0.20535 0.13848 0.28498 0.0
C776 C 0.15653 0.1664 0.31775 0.0
H777 H 0.09698 0.2702 0.28221 0.0
H778 H 0.13055 0.24161 0.27998 0.0
H779 H 0.12388 0.1821 0.32933 0.0
H780 H 0.23747 0.13112 0.34003 0.0
H781 H 0.20035 0.15493 0.33767 0.0
H782 H 0.18359 0.18023 0.27006 0.0
C783 C 0.11373 0.23562 0.28702 0.0
C784 C 0.13646 0.18152 0.31602 0.0
C785 C 0.09452 0.25203 0.28821 0.0
C786 C 0.22842 0.13278 0.32468 0.0
C787 C 0.20717 0.14637 0.32325 0.0
C788 C 0.17045 0.18006 0.28295 0.0
C789 C 0.11172 0.21245 0.2962 0.0
C790 C 0.13296 0.19598 0.29764 0.0
C791 C 0.19559 0.14976 0.30327 0.0
C792 C 0.17387 0.16551 0.30129 0.0
H793 H 0.05424 0.21676 0.31507 0.0
H794 H 0.08698 0.18776 0.31194 0.0
H795 H 0.14812 0.20571 0.26666 0.0
H796 H 0.23408 0.11728 0.27193 0.0
H797 H 0.19665 0.14002 0.26946 0.0
C798 C 0.856 0.05753 0.31186 0.0
C799 C 0.83422 0.06035 0.30071 0.0
C800 C 0.87441 0.07446 0.30966 0.0
C801 C 0.8938 0.12911 0.27883 0.0
H802 H 0.92696 0.14342 0.3322 0.0
C803 C 0.96624 0.20309 0.28233 0.0
C804 C 0.96699 0.21772 0.30073 0.0
C805 C 0.95237 0.18213 0.28204 0.0
C806 C 0.91776 0.13987 0.31719 0.0
H807 H 0.81469 0.08246 0.27798 0.0
H808 H 0.84651 0.11267 0.27456 0.0
H809 H 0.89827 0.11056 0.33098 0.0
H810 H 0.95442 0.22175 0.33342 0.0
H811 H 0.92938 0.18548 0.33289 0.0
H812 H 0.91217 0.15941 0.26543 0.0
C813 C 0.84981 0.09705 0.28457 0.0
C814 C 0.90154 0.12064 0.31635 0.0
C815 C 0.83154 0.07973 0.28644 0.0
C816 C 0.95424 0.21059 0.31914 0.0
C817 C 0.93996 0.18978 0.31876 0.0
C818 C 0.90978 0.14857 0.27975 0.0
C819 C 0.87121 0.09503 0.29671 0.0
C820 C 0.88928 0.11497 0.29716 0.0
C821 C 0.93849 0.17548 0.30005 0.0
C822 C 0.92196 0.15428 0.29896 0.0
H823 H 0.85843 0.04264 0.32294 0.0
H824 H 0.89086 0.07179 0.31871 0.0
H825 H 0.88495 0.12524 0.26371 0.0
H826 H 0.97623 0.20809 0.26804 0.0
H827 H 0.95235 0.1713 0.26757 0.0
C828 C 0.85954 0.96077 0.29179 0.0
C829 C 0.84259 0.9514 0.30645 0.0
C830 C 0.88003 0.94742 0.28608 0.0
C831 C 0.92875 0.92155 0.28876 0.0
H832 H 0.92433 0.85214 0.28244 0.0
C833 C 0.00855 0.85802 0.30321 0.0
C834 C 0.01106 0.83696 0.29088 0.0
C835 C 0.98883 0.87327 0.30032 0.0
C836 C 0.92587 0.87154 0.28378 0.0
H837 H 0.83445 0.92072 0.32688 0.0
H838 H 0.86988 0.89762 0.31691 0.0
H839 H 0.88764 0.87601 0.2865 0.0
H840 H 0.99532 0.81574 0.26529 0.0
H841 H 0.96045 0.8425 0.26025 0.0
H842 H 0.96702 0.91701 0.28644 0.0
C843 C 0.86711 0.91506 0.30947 0.0
C844 C 0.90486 0.88519 0.28638 0.0
C845 C 0.84674 0.92839 0.31523 0.0
C846 C 0.99386 0.83191 0.27495 0.0
C847 C 0.97386 0.84713 0.27219 0.0
C848 C 0.94977 0.90788 0.28623 0.0
C849 C 0.88401 0.92437 0.29482 0.0
C850 C 0.90608 0.91029 0.28946 0.0
C851 C 0.97096 0.86779 0.28511 0.0
C852 C 0.94862 0.88264 0.28426 0.0
H853 H 0.85686 0.97826 0.28448 0.0
H854 H 0.89264 0.95505 0.27464 0.0
H855 H 0.93037 0.94081 0.29115 0.0
H856 H 0.02155 0.86243 0.31559 0.0
H857 H 0.98706 0.8888 0.31075 0.0
C858 C 0.26666 0.99955 0.28848 0.0
C859 C 0.2617 0.01868 0.30256 0.0
C860 C 0.24959 0.98123 0.28546 0.0
C861 C 0.19733 0.95423 0.3139 0.0
H862 H 0.18775 0.91978 0.26044 0.0
C863 C 0.13973 0.86737 0.30914 0.0
C864 C 0.12575 0.86411 0.29057 0.0
C865 C 0.15631 0.88636 0.31034 0.0
C866 C 0.19003 0.92935 0.27547 0.0
H867 H 0.23466 0.03481 0.32318 0.0
H868 H 0.20464 1.00365 0.31722 0.0
H869 H 0.21581 0.95352 0.26157 0.0
H870 H 0.11723 0.8788 0.25918 0.0
H871 H 0.14557 0.91209 0.2614 0.0
H872 H 0.17108 0.93062 0.32767 0.0
C873 C 0.22188 1.00208 0.30914 0.0
C874 C 0.20637 0.94853 0.27616 0.0
C875 C 0.23896 0.02009 0.31237 0.0
C876 C 0.12811 0.88059 0.27353 0.0
C877 C 0.14446 0.89962 0.27478 0.0
C878 C 0.18092 0.93518 0.31318 0.0
C879 C 0.22727 0.98194 0.29632 0.0
C880 C 0.2101 0.96133 0.29536 0.0
C881 C 0.15904 0.90258 0.29305 0.0
C882 C 0.17696 0.92254 0.29395 0.0
H883 H 0.28421 0.99796 0.28095 0.0
H884 H 0.25439 0.96595 0.2755 0.0
H885 H 0.20009 0.96332 0.32911 0.0
H886 H 0.1384 0.8548 0.32242 0.0
H887 H 0.16738 0.88794 0.3246 0.0
C888 C 0.21428 0.95744 0.7315 0.0
C889 C 0.22385 0.96709 0.71235 0.0
C890 C 0.19282 0.94443 0.73137 0.0
C891 C 0.13714 0.93271 0.70198 0.0
H892 H 0.14163 0.86879 0.72703 0.0
C893 C 0.06929 0.85827 0.68236 0.0
C894 C 0.06471 0.83963 0.69713 0.0
C895 C 0.08598 0.87623 0.68696 0.0
C896 C 0.13976 0.88675 0.72042 0.0
H897 H 0.21744 0.97177 0.67824 0.0
H898 H 0.17935 0.94929 0.67809 0.0
H899 H 0.17593 0.89601 0.72909 0.0
H900 H 0.07301 0.82603 0.72892 0.0
H901 H 0.10194 0.85805 0.73737 0.0
H902 H 0.10093 0.92371 0.6935 0.0
C903 C 0.18883 0.95171 0.69315 0.0
C904 C 0.15954 0.90229 0.72145 0.0
C905 C 0.21058 0.96459 0.69323 0.0
C906 C 0.07623 0.84013 0.71721 0.0
C907 C 0.09296 0.85835 0.72192 0.0
C908 C 0.1172 0.91732 0.70124 0.0
C909 C 0.18011 0.94102 0.71216 0.0
C910 C 0.15857 0.92524 0.71192 0.0
C911 C 0.09847 0.87631 0.70659 0.0
C912 C 0.11842 0.89391 0.71002 0.0
H913 H 0.2235 0.95964 0.74669 0.0
H914 H 0.18625 0.9368 0.74631 0.0
H915 H 0.13582 0.95045 0.69479 0.0
H916 H 0.06064 0.85853 0.66674 0.0
H917 H 0.08987 0.88939 0.67456 0.0
C918 C 0.11951 0.21727 0.71688 0.0
C919 C 0.12901 0.23426 0.70234 0.0
C920 C 0.13304 0.19701 0.72297 0.0
C921 C 0.16058 0.14881 0.7216 0.0
H922 H 0.22968 0.15588 0.72868 0.0
C923 C 0.22776 0.07228 0.70662 0.0
C924 C 0.24949 0.0712 0.71816 0.0
C925 C 0.21118 0.09071 0.71037 0.0
C926 C 0.21037 0.15357 0.7272 0.0
H927 H 0.15993 0.24252 0.68223 0.0
H928 H 0.18332 0.20758 0.69284 0.0
H929 H 0.20456 0.19155 0.72413 0.0
H930 H 0.27041 0.08779 0.74348 0.0
H931 H 0.24128 0.12037 0.75011 0.0
H932 H 0.16649 0.11076 0.72423 0.0
C933 C 0.16568 0.21015 0.69997 0.0
C934 C 0.19599 0.17402 0.72428 0.0
C935 C 0.15219 0.23024 0.69385 0.0
C936 C 0.25373 0.08816 0.73445 0.0
C937 C 0.23716 0.10689 0.73808 0.0
C938 C 0.17498 0.12832 0.72447 0.0
C939 C 0.15641 0.19335 0.71473 0.0
C940 C 0.17103 0.17186 0.72079 0.0
C941 C 0.21597 0.1087 0.72565 0.0
C942 C 0.20016 0.13041 0.72667 0.0
H943 H 0.10183 0.21984 0.72388 0.0
H944 H 0.12539 0.18441 0.7344 0.0
H945 H 0.14143 0.14649 0.71895 0.0
H946 H 0.22398 0.05937 0.69399 0.0
H947 H 0.19527 0.09161 0.70032 0.0
C948 C 0.87013 0.11732 0.70746 0.0
C949 C 0.85118 0.12871 0.69632 0.0
C950 C 0.89147 0.12984 0.71213 0.0
C951 C 0.93958 0.15715 0.70747 0.0
H952 H 0.93492 0.22462 0.72327 0.0
C953 C 0.01543 0.22568 0.69298 0.0
C954 C 0.01831 0.24532 0.70699 0.0
C955 C 0.99717 0.2088 0.69635 0.0
C956 C 0.93663 0.2057 0.71926 0.0
H957 H 0.8405 0.16205 0.68068 0.0
H958 H 0.87727 0.18367 0.68892 0.0
H959 H 0.8984 0.20056 0.72002 0.0
H960 H 0.00515 0.26202 0.73619 0.0
H961 H 0.97302 0.23237 0.74219 0.0
H962 H 0.97783 0.16246 0.70632 0.0
C963 C 0.87549 0.16526 0.69449 0.0
C964 C 0.91564 0.19197 0.71711 0.0
C965 C 0.85432 0.15278 0.68974 0.0
C966 C 1.00342 0.24697 0.72521 0.0
C967 C 0.9849 0.23013 0.7285 0.0
C968 C 0.9606 0.17093 0.70954 0.0
C969 C 0.89429 0.15406 0.70587 0.0
C970 C 0.9168 0.1677 0.71064 0.0
C971 C 0.98116 0.21121 0.71375 0.0
C972 C 0.95935 0.19554 0.71495 0.0
H973 H 0.86834 0.0989 0.71295 0.0
H974 H 0.90559 0.1207 0.72098 0.0
H975 H 0.94113 0.13853 0.70245 0.0
H976 H 0.02666 0.22391 0.6788 0.0
H977 H 0.99475 0.19467 0.68454 0.0
C978 C 0.96083 0.87176 0.67536 0.0
C979 C 0.96267 0.85615 0.69308 0.0
C980 C 0.94856 0.89378 0.67729 0.0
C981 C 0.90094 0.92192 0.71011 0.0
H982 H 0.92078 0.98103 0.68203 0.0
C983 C 0.84241 0.00769 0.71535 0.0
C984 C 0.83878 0.01946 0.69562 0.0
C985 C 0.86056 0.99023 0.71739 0.0
C986 C 0.91495 0.96464 0.68991 0.0
H987 H 0.95483 0.85229 0.72711 0.0
H988 H 0.93358 0.89038 0.73043 0.0
H989 H 0.94682 0.94553 0.68029 0.0
H990 H 0.85213 0.02317 0.66295 0.0
H991 H 0.88326 0.99279 0.66639 0.0
H992 H 0.8688 0.94061 0.71919 0.0
C993 C 0.94094 0.88543 0.71491 0.0
C994 C 0.92986 0.9443 0.68887 0.0
C995 C 0.9531 0.86354 0.71297 0.0
C996 C 0.85437 0.01435 0.67837 0.0
C997 C 0.87242 0.99701 0.6804 0.0
C998 C 0.88601 0.94217 0.71107 0.0
C999 C 0.93802 0.90057 0.697 0.0
C1000 C 0.9229 0.92264 0.69878 0.0
C1001 C 0.87543 0.9843 0.69975 0.0
C1002 C 0.89265 0.96371 0.70075 0.0
H1003 H 0.96805 0.86652 0.65986 0.0
H1004 H 0.94653 0.90502 0.66316 0.0
H1005 H 0.89486 0.90541 0.71766 0.0
H1006 H 0.83068 0.01129 0.72892 0.0
H1007 H 0.86261 0.981 0.73263 0.0
C1008 C 0.58669 0.74895 0.78343 0.0
C1009 C 0.56894 0.7455 0.79926 0.0
C1010 C 0.60583 0.73249 0.78146 0.0
C1011 C 0.63941 0.69231 0.81705 0.0
H1012 H 0.67318 0.67127 0.76574 0.0
C1013 C 0.73637 0.65696 0.8204 0.0
C1014 C 0.74152 0.63538 0.8095 0.0
C1015 C 0.71446 0.66882 0.81727 0.0
C1016 C 0.6638 0.6769 0.78018 0.0
H1017 H 0.55581 0.72121 0.8239 0.0
H1018 H 0.58863 0.69236 0.82013 0.0
H1019 H 0.63516 0.69379 0.76237 0.0
H1020 H 0.72782 0.60959 0.78642 0.0
H1021 H 0.6893 0.63051 0.78084 0.0
H1022 H 0.66797 0.67591 0.8349 0.0
C1023 C 0.58829 0.70795 0.80963 0.0
C1024 C 0.64217 0.68989 0.77825 0.0
C1025 C 0.56941 0.72438 0.8117 0.0
C1026 C 0.72427 0.62607 0.79517 0.0
C1027 C 0.70236 0.63814 0.79183 0.0
C1028 C 0.66101 0.67963 0.81896 0.0
C1029 C 0.60733 0.71238 0.79525 0.0
C1030 C 0.62976 0.69774 0.79671 0.0
C1031 C 0.69716 0.65953 0.80303 0.0
C1032 C 0.67357 0.67194 0.80059 0.0
H1033 H 0.58684 0.76523 0.7738 0.0
H1034 H 0.62025 0.7364 0.77024 0.0
H1035 H 0.63055 0.6984 0.83161 0.0
H1036 H 0.74911 0.6645 0.8317 0.0
H1037 H 0.71105 0.68537 0.826 0.0
C1038 C 0.46965 0.71305 0.79349 0.0
C1039 C 0.45886 0.73181 0.80535 0.0
C1040 C 0.45666 0.69205 0.78856 0.0
C1041 C 0.42843 0.64427 0.793 0.0
H1042 H 0.36082 0.65076 0.77816 0.0
C1043 C 0.35805 0.57031 0.80813 0.0
C1044 C 0.3382 0.56791 0.79429 0.0
C1045 C 0.37538 0.5881 0.80459 0.0
C1046 C 0.37975 0.64854 0.78189 0.0
H1047 H 0.42608 0.7424 0.82201 0.0
H1048 H 0.40366 0.70634 0.81324 0.0
H1049 H 0.38582 0.68664 0.7815 0.0
H1050 H 0.3215 0.58147 0.76525 0.0
H1051 H 0.35191 0.61286 0.75899 0.0
H1052 H 0.42217 0.60616 0.7939 0.0
C1053 C 0.42197 0.70801 0.80733 0.0
C1054 C 0.39403 0.66916 0.78408 0.0
C1055 C 0.43492 0.72879 0.81238 0.0
C1056 C 0.33672 0.58283 0.77609 0.0
C1057 C 0.354 0.60092 0.77265 0.0
C1058 C 0.41409 0.62362 0.79093 0.0
C1059 C 0.43255 0.68943 0.79524 0.0
C1060 C 0.41837 0.66733 0.79022 0.0
C1061 C 0.3732 0.60415 0.78721 0.0
C1062 C 0.38941 0.62554 0.78588 0.0
H1063 H 0.48796 0.71471 0.78767 0.0
H1064 H 0.46534 0.67805 0.77919 0.0
H1065 H 0.44709 0.64222 0.79777 0.0
H1066 H 0.35968 0.55904 0.8223 0.0
H1067 H 0.38971 0.59016 0.81626 0.0
C1068 C 0.52029 0.36659 0.79645 0.0
C1069 C 0.5187 0.34368 0.78703 0.0
C1070 C 0.50154 0.38312 0.79428 0.0
C1071 C 0.44405 0.39796 0.76732 0.0
H1072 H 0.42635 0.42028 0.82436 0.0
C1073 C 0.36596 0.46614 0.78619 0.0
C1074 C 0.35043 0.45878 0.80284 0.0
C1075 C 0.38716 0.45322 0.78184 0.0
C1076 C 0.43107 0.41425 0.80832 0.0
H1077 H 0.49721 0.32059 0.76663 0.0
H1078 H 0.46393 0.34964 0.76295 0.0
H1079 H 0.46272 0.39642 0.81958 0.0
H1080 H 0.3451 0.43241 0.82812 0.0
H1081 H 0.38203 0.41014 0.82072 0.0
H1082 H 0.41187 0.41572 0.75628 0.0
C1083 C 0.47987 0.35485 0.77184 0.0
C1084 C 0.45203 0.40075 0.80553 0.0
C1085 C 0.49889 0.33826 0.77387 0.0
C1086 C 0.35657 0.43839 0.81507 0.0
C1087 C 0.3778 0.42574 0.81093 0.0
C1088 C 0.42307 0.41179 0.77011 0.0
C1089 C 0.4806 0.377 0.78288 0.0
C1090 C 0.45874 0.39232 0.78505 0.0
C1091 C 0.39335 0.43301 0.79431 0.0
C1092 C 0.41626 0.41978 0.79072 0.0
H1093 H 0.53551 0.37125 0.80654 0.0
H1094 H 0.50286 0.40024 0.80257 0.0
H1095 H 0.44879 0.3917 0.75137 0.0
H1096 H 0.36156 0.48167 0.7764 0.0
H1097 H 0.39892 0.45927 0.769 0.0
C1098 C 0.73275 0.53022 0.8124 0.0
C1099 C 0.75511 0.5276 0.80214 0.0
C1100 C 0.71458 0.51321 0.80936 0.0
C1101 C 0.69732 0.45877 0.77736 0.0
H1102 H 0.66068 0.44411 0.82888 0.0
C1103 C 0.62557 0.38408 0.77705 0.0
C1104 C 0.62366 0.36951 0.79543 0.0
C1105 C 0.63918 0.40521 0.77746 0.0
C1106 C 0.67087 0.44775 0.81438 0.0
H1107 H 0.776 0.50577 0.78015 0.0
H1108 H 0.74464 0.47535 0.77538 0.0
H1109 H 0.6893 0.47704 0.82924 0.0
H1110 H 0.63383 0.36569 0.82877 0.0
H1111 H 0.6585 0.40219 0.8295 0.0
H1112 H 0.68007 0.42844 0.76297 0.0
C1113 C 0.74069 0.49089 0.78529 0.0
C1114 C 0.68705 0.46703 0.81443 0.0
C1115 C 0.75871 0.5083 0.78797 0.0
C1116 C 0.63495 0.37681 0.81448 0.0
C1117 C 0.649 0.39776 0.81483 0.0
C1118 C 0.68141 0.43924 0.77741 0.0
C1119 C 0.71861 0.49277 0.79647 0.0
C1120 C 0.70056 0.47282 0.79593 0.0
C1121 C 0.65164 0.41205 0.79618 0.0
C1122 C 0.668 0.43339 0.79596 0.0
H1123 H 0.72957 0.54508 0.82335 0.0
H1124 H 0.69761 0.51578 0.81767 0.0
H1125 H 0.70713 0.46275 0.76272 0.0
H1126 H 0.6167 0.37892 0.76225 0.0
H1127 H 0.64011 0.41601 0.76298 0.0
C1128 C 0.58467 0.33689 0.21625 0.0
C1129 C 0.56765 0.33887 0.19965 0.0
C1130 C 0.60244 0.35464 0.21881 0.0
C1131 C 0.63461 0.39772 0.18455 0.0
H1132 H 0.66492 0.41895 0.23741 0.0
C1133 C 0.72991 0.4368 0.18544 0.0
C1134 C 0.7342 0.45771 0.19757 0.0
C1135 C 0.70811 0.42449 0.18722 0.0
C1136 C 0.65646 0.41334 0.22254 0.0
H1137 H 0.55425 0.36184 0.17412 0.0
H1138 H 0.5846 0.39299 0.17894 0.0
H1139 H 0.6282 0.39432 0.23902 0.0
H1140 H 0.71897 0.482 0.22124 0.0
H1141 H 0.68054 0.46029 0.2244 0.0
H1142 H 0.66282 0.41631 0.16803 0.0
C1143 C 0.58486 0.3775 0.18956 0.0
C1144 C 0.63558 0.39911 0.22346 0.0
C1145 C 0.56738 0.35973 0.18688 0.0
C1146 C 0.71609 0.46604 0.21158 0.0
C1147 C 0.69424 0.45351 0.21353 0.0
C1148 C 0.65542 0.41173 0.18364 0.0
C1149 C 0.60327 0.37467 0.20487 0.0
C1150 C 0.62452 0.39102 0.20444 0.0
C1151 C 0.69 0.43268 0.20125 0.0
C1152 C 0.66679 0.41944 0.20259 0.0
H1153 H 0.58532 0.32087 0.22621 0.0
H1154 H 0.61639 0.35189 0.23073 0.0
H1155 H 0.62684 0.39152 0.16957 0.0
H1156 H 0.74335 0.43006 0.17433 0.0
H1157 H 0.70549 0.40837 0.17769 0.0
C1158 C 0.75246 0.58195 0.22974 0.0
C1159 C 0.74926 0.56586 0.21258 0.0
C1160 C 0.73559 0.60032 0.23343 0.0
C1161 C 0.67394 0.6216 0.2215 0.0
H1162 H 0.7031 0.68488 0.21773 0.0
C1163 C 0.61879 0.70636 0.19855 0.0
C1164 C 0.62653 0.72897 0.20586 0.0
C1165 C 0.63231 0.68562 0.20302 0.0
C1166 C 0.69449 0.66748 0.21935 0.0
H1167 H 0.72534 0.55513 0.1868 0.0
H1168 H 0.69556 0.58664 0.19367 0.0
H1169 H 0.72862 0.64948 0.22074 0.0
H1170 H 0.6535 0.74756 0.22463 0.0
H1171 H 0.67649 0.71146 0.23338 0.0
H1172 H 0.63978 0.63948 0.2202 0.0
C1173 C 0.71111 0.5853 0.20413 0.0
C1174 C 0.70923 0.64714 0.22102 0.0
C1175 C 0.72818 0.56733 0.20016 0.0
C1176 C 0.64741 0.73035 0.21851 0.0
C1177 C 0.66064 0.70962 0.22338 0.0
C1178 C 0.65912 0.64201 0.22021 0.0
C1179 C 0.71504 0.60249 0.22031 0.0
C1180 C 0.69915 0.62397 0.22169 0.0
C1181 C 0.65365 0.68698 0.21529 0.0
C1182 C 0.66919 0.66525 0.21865 0.0
H1183 H 0.76871 0.58133 0.23938 0.0
H1184 H 0.73899 0.61334 0.24604 0.0
H1185 H 0.66571 0.60392 0.22207 0.0
H1186 H 0.60282 0.70489 0.18864 0.0
H1187 H 0.62642 0.66869 0.19619 0.0
C1188 C 0.5196 0.71815 0.194 0.0
C1189 C 0.51817 0.73883 0.2069 0.0
C1190 C 0.502 0.70029 0.19535 0.0
C1191 C 0.44819 0.67834 0.22531 0.0
H1192 H 0.42649 0.66157 0.16793 0.0
C1193 C 0.36892 0.61169 0.20727 0.0
C1194 C 0.35232 0.62 0.19186 0.0
C1195 C 0.39055 0.62414 0.21086 0.0
C1196 C 0.43231 0.66603 0.18407 0.0
H1197 H 0.4982 0.75647 0.23234 0.0
H1198 H 0.4669 0.7253 0.23449 0.0
H1199 H 0.46215 0.68635 0.17232 0.0
H1200 H 0.34571 0.64754 0.16783 0.0
H1201 H 0.38316 0.66912 0.17403 0.0
H1202 H 0.41759 0.65841 0.23687 0.0
C1203 C 0.48187 0.72272 0.22353 0.0
C1204 C 0.45296 0.68004 0.18663 0.0
C1205 C 0.49978 0.74055 0.22236 0.0
C1206 C 0.35795 0.6408 0.17997 0.0
C1207 C 0.37954 0.65305 0.1834 0.0
C1208 C 0.42747 0.66412 0.22273 0.0
C1209 C 0.48228 0.7029 0.20937 0.0
C1210 C 0.46109 0.68658 0.20724 0.0
C1211 C 0.39611 0.64491 0.19886 0.0
C1212 C 0.41913 0.65817 0.20203 0.0
H1213 H 0.53375 0.71632 0.18208 0.0
H1214 H 0.50323 0.68497 0.18461 0.0
H1215 H 0.45403 0.68299 0.24139 0.0
H1216 H 0.36499 0.59582 0.21679 0.0
H1217 H 0.40305 0.61739 0.22282 0.0
C1218 C 0.46919 0.36844 0.20607 0.0
C1219 C 0.45831 0.34907 0.19515 0.0
C1220 C 0.45602 0.38941 0.21077 0.0
C1221 C 0.42716 0.43653 0.20521 0.0
H1222 H 0.36012 0.43044 0.2222 0.0
C1223 C 0.35567 0.50883 0.18838 0.0
C1224 C 0.33642 0.5122 0.20278 0.0
C1225 C 0.37317 0.49129 0.19226 0.0
C1226 C 0.37891 0.43256 0.21786 0.0
H1227 H 0.42507 0.33723 0.18005 0.0
H1228 H 0.40234 0.3733 0.18841 0.0
H1229 H 0.38539 0.39457 0.2198 0.0
H1230 H 0.32097 0.50065 0.23306 0.0
H1231 H 0.35165 0.46961 0.23987 0.0
H1232 H 0.42047 0.47449 0.20273 0.0
C1233 C 0.42089 0.37214 0.19374 0.0
C1234 C 0.39333 0.41194 0.21622 0.0
C1235 C 0.43402 0.35137 0.18893 0.0
C1236 C 0.33569 0.49849 0.22175 0.0
C1237 C 0.35313 0.48063 0.22554 0.0
C1238 C 0.41269 0.45716 0.20674 0.0
C1239 C 0.43165 0.39139 0.20479 0.0
C1240 C 0.41742 0.41361 0.2093 0.0
C1241 C 0.37176 0.47647 0.21055 0.0
C1242 C 0.38821 0.45534 0.21252 0.0
H1243 H 0.48775 0.36733 0.2113 0.0
H1244 H 0.46482 0.40392 0.21934 0.0
H1245 H 0.44562 0.43844 0.19981 0.0
H1246 H 0.35674 0.51921 0.17364 0.0
H1247 H 0.38705 0.48846 0.18025 0.0
C1248 C 0.23853 0.46631 0.23088 0.0
C1249 C 0.23147 0.47125 0.20961 0.0
C1250 C 0.22381 0.45241 0.24437 0.0
C1251 C 0.16089 0.43615 0.253 0.0
H1252 H 0.18495 0.37986 0.28309 0.0
C1253 C 0.09636 0.36753 0.29145 0.0
C1254 C 0.10335 0.35495 0.31009 0.0
C1255 C 0.11247 0.38269 0.28074 0.0
C1256 C 0.17797 0.39578 0.27517 0.0
H1257 H 0.20345 0.46574 0.18588 0.0
H1258 H 0.17764 0.44181 0.20948 0.0
H1259 H 0.21256 0.40439 0.26166 0.0
H1260 H 0.13305 0.34927 0.33227 0.0
H1261 H 0.16074 0.37646 0.31414 0.0
H1262 H 0.1265 0.42812 0.26666 0.0
C1263 C 0.19462 0.4485 0.21565 0.0
C1264 C 0.19382 0.40974 0.26281 0.0
C1265 C 0.20949 0.46198 0.2021 0.0
C1266 C 0.12682 0.35859 0.31805 0.0
C1267 C 0.1429 0.37403 0.30745 0.0
C1268 C 0.14515 0.42247 0.26559 0.0
C1269 C 0.20156 0.44366 0.23694 0.0
C1270 C 0.18531 0.42979 0.2513 0.0
C1271 C 0.13602 0.38612 0.28851 0.0
C1272 C 0.15333 0.40179 0.27653 0.0
H1273 H 0.25542 0.47319 0.23703 0.0
H1274 H 0.22954 0.44897 0.26074 0.0
H1275 H 0.15396 0.45177 0.24455 0.0
H1276 H 0.07841 0.3657 0.2849 0.0
H1277 H 0.10651 0.39133 0.26606 0.0
C1278 C 0.7401 0.11234 0.27417 0.0
C1279 C 0.73719 0.11189 0.29666 0.0
C1280 C 0.72741 0.12898 0.26156 0.0
C1281 C 0.69365 0.18661 0.26419 0.0
H1282 H 0.66186 0.16279 0.21295 0.0
C1283 C 0.61843 0.24002 0.22075 0.0
C1284 C 0.61713 0.2387 0.19818 0.0
C1285 C 0.63488 0.22582 0.23218 0.0
C1286 C 0.67091 0.1699 0.22701 0.0
H1287 H 0.71855 0.12897 0.32337 0.0
H1288 H 0.69681 0.15793 0.30149 0.0
H1289 H 0.68769 0.13594 0.23369 0.0
H1290 H 0.63266 0.22147 0.17003 0.0
H1291 H 0.66166 0.19735 0.18986 0.0
H1292 H 0.67678 0.22054 0.25759 0.0
C1293 C 0.7091 0.14558 0.29362 0.0
C1294 C 0.68573 0.15446 0.23891 0.0
C1295 C 0.72166 0.1289 0.3062 0.0
C1296 C 0.63317 0.22321 0.18734 0.0
C1297 C 0.64965 0.20908 0.19877 0.0
C1298 C 0.67891 0.20209 0.25223 0.0
C1299 C 0.71161 0.14567 0.27113 0.0
C1300 C 0.69709 0.16256 0.25777 0.0
C1301 C 0.65054 0.20996 0.22136 0.0
C1302 C 0.66716 0.19387 0.23359 0.0
H1303 H 0.75214 0.09984 0.26623 0.0
H1304 H 0.73 0.1288 0.24429 0.0
H1305 H 0.70241 0.19351 0.27848 0.0
H1306 H 0.60665 0.25192 0.22967 0.0
H1307 H 0.63488 0.22685 0.24958 0.0
C1308 C 0.85645 0.63358 0.20956 0.0
C1309 C 0.84994 0.61056 0.2171 0.0
C1310 C 0.87086 0.6488 0.22199 0.0
C1311 C 0.91449 0.647 0.26716 0.0
H1312 H 0.90799 0.7165 0.26411 0.0
C1313 C 0.97322 0.71295 0.31717 0.0
C1314 C 0.98398 0.73146 0.3051 0.0
C1315 C 0.95537 0.6984 0.30802 0.0
C1316 C 0.91001 0.69711 0.26508 0.0
H1317 H 0.85319 0.58608 0.24428 0.0
H1318 H 0.87727 0.61292 0.26614 0.0
H1319 H 0.87879 0.69098 0.24572 0.0
H1320 H 0.98402 0.74976 0.2743 0.0
H1321 H 0.9528 0.72451 0.25838 0.0
H1322 H 0.94567 0.65331 0.28669 0.0
C1323 C 0.87177 0.61895 0.25032 0.0
C1324 C 0.89336 0.68246 0.25447 0.0
C1325 C 0.85757 0.60362 0.23781 0.0
C1326 C 0.97628 0.73541 0.28387 0.0
C1327 C 0.95823 0.72114 0.27485 0.0
C1328 C 0.93096 0.66167 0.27799 0.0
C1329 C 0.87895 0.64159 0.24244 0.0
C1330 C 0.89559 0.6572 0.25507 0.0
C1331 C 0.94768 0.70241 0.28677 0.0
C1332 C 0.92911 0.68686 0.27676 0.0
H1333 H 0.85073 0.63985 0.19391 0.0
H1334 H 0.87619 0.66597 0.21523 0.0
H1335 H 0.91708 0.62767 0.26773 0.0
H1336 H 0.9789 0.70953 0.33355 0.0
H1337 H 0.94745 0.68413 0.31759 0.0
C1338 C 0.37607 0.95947 0.3222 0.0
C1339 C 0.36359 0.97791 0.31136 0.0
C1340 C 0.38919 0.94215 0.31069 0.0
C1341 C 0.41803 0.93217 0.25776 0.0
H1342 H 0.41556 0.86451 0.27324 0.0
C1343 C 0.45768 0.8597 0.20217 0.0
C1344 C 0.47147 0.84128 0.21169 0.0
C1345 C 0.44379 0.87524 0.21479 0.0
C1346 C 0.41662 0.88336 0.26884 0.0
H1347 H 0.35452 0.99192 0.27977 0.0
H1348 H 0.37736 0.96203 0.25988 0.0
H1349 H 0.39336 0.89405 0.29473 0.0
H1350 H 0.48032 0.82412 0.24204 0.0
H1351 H 0.45642 0.85153 0.26411 0.0
H1352 H 0.44127 0.92167 0.23198 0.0
C1353 C 0.37746 0.9612 0.27729 0.0
C1354 C 0.40393 0.90029 0.28117 0.0
C1355 C 0.36437 0.97844 0.28875 0.0
C1356 C 0.47024 0.83829 0.23415 0.0
C1357 C 0.45633 0.85388 0.24681 0.0
C1358 C 0.4307 0.91531 0.24549 0.0
C1359 C 0.39014 0.94291 0.28809 0.0
C1360 C 0.40432 0.92487 0.27564 0.0
C1361 C 0.44332 0.87285 0.2373 0.0
C1362 C 0.43 0.89067 0.25074 0.0
H1363 H 0.37601 0.95862 0.3396 0.0
H1364 H 0.39894 0.92841 0.31951 0.0
H1365 H 0.41913 0.95101 0.25331 0.0
H1366 H 0.45822 0.86278 0.18499 0.0
H1367 H 0.43363 0.88937 0.20689 0.0
C1368 C 0.24009 0.61493 0.76808 0.0
C1369 C 0.23669 0.61366 0.79049 0.0
C1370 C 0.22553 0.62989 0.7554 0.0
C1371 C 0.16593 0.65948 0.75597 0.0
H1372 H 0.19159 0.69823 0.70935 0.0
C1373 C 0.10883 0.73228 0.71444 0.0
C1374 C 0.11051 0.7346 0.69197 0.0
C1375 C 0.12476 0.71744 0.72571 0.0
C1376 C 0.18411 0.68729 0.72214 0.0
H1377 H 0.21537 0.62746 0.81706 0.0
H1378 H 0.19045 0.65374 0.79511 0.0
H1379 H 0.2187 0.6727 0.73042 0.0
H1380 H 0.13043 0.72313 0.66376 0.0
H1381 H 0.1583 0.69709 0.68347 0.0
H1382 H 0.1314 0.67393 0.74779 0.0
C1383 C 0.20417 0.64297 0.78728 0.0
C1384 C 0.19965 0.67269 0.73423 0.0
C1385 C 0.21872 0.6281 0.79992 0.0
C1386 C 0.12877 0.72191 0.68107 0.0
C1387 C 0.14475 0.707 0.69237 0.0
C1388 C 0.15044 0.67401 0.74391 0.0
C1389 C 0.20717 0.64383 0.76484 0.0
C1390 C 0.19076 0.65881 0.75143 0.0
C1391 C 0.14281 0.70447 0.71483 0.0
C1392 C 0.15935 0.6883 0.72699 0.0
H1393 H 0.25392 0.60426 0.7603 0.0
H1394 H 0.22826 0.63008 0.73814 0.0
H1395 H 0.1584 0.64861 0.76879 0.0
H1396 H 0.09539 0.74218 0.72345 0.0
H1397 H 0.12308 0.71635 0.74304 0.0
C1398 C 0.37249 0.12201 0.69708 0.0
C1399 C 0.35763 0.10617 0.70872 0.0
C1400 C 0.38815 0.13769 0.70779 0.0
C1401 C 0.41828 0.14708 0.76038 0.0
H1402 H 0.42621 0.21251 0.73966 0.0
C1403 C 0.46906 0.22015 0.80891 0.0
C1404 C 0.4847 0.23525 0.79729 0.0
C1405 C 0.45357 0.20432 0.79816 0.0
C1406 C 0.42437 0.19423 0.74553 0.0
H1407 H 0.3472 0.09488 0.74083 0.0
H1408 H 0.37431 0.12219 0.75944 0.0
H1409 H 0.39939 0.18505 0.72065 0.0
H1410 H 0.49592 0.24583 0.7652 0.0
H1411 H 0.46925 0.21808 0.74654 0.0
H1412 H 0.44318 0.15634 0.78534 0.0
C1413 C 0.3743 0.12216 0.74202 0.0
C1414 C 0.40902 0.17846 0.73461 0.0
C1415 C 0.35872 0.10647 0.73132 0.0
C1416 C 0.48439 0.23424 0.77468 0.0
C1417 C 0.46886 0.21852 0.76395 0.0
C1418 C 0.43358 0.16287 0.77134 0.0
C1419 C 0.38924 0.13796 0.73041 0.0
C1420 C 0.40578 0.15469 0.7419 0.0
C1421 C 0.45328 0.20336 0.77555 0.0
C1422 C 0.43682 0.18662 0.76404 0.0
H1423 H 0.37228 0.12204 0.67967 0.0
H1424 H 0.39964 0.14937 0.69832 0.0
H1425 H 0.41652 0.12879 0.76625 0.0
H1426 H 0.46896 0.22037 0.82631 0.0
H1427 H 0.44163 0.19303 0.80756 0.0
C1428 C 0.95106 0.35579 0.7008 0.0
C1429 C 0.97236 0.34641 0.70994 0.0
C1430 C 0.9357 0.37072 0.7127 0.0
C1431 C 0.93597 0.41053 0.7606 0.0
H1432 H 0.86656 0.40963 0.75327 0.0
C1433 C 0.87233 0.46519 0.81524 0.0
C1434 C 0.85414 0.47862 0.80502 0.0
C1435 C 0.88583 0.44825 0.80378 0.0
C1436 C 0.88593 0.41019 0.75535 0.0
H1437 H 0.99314 0.34501 0.73961 0.0
H1438 H 0.9662 0.37021 0.76022 0.0
H1439 H 0.89157 0.38091 0.73348 0.0
H1440 H 0.83544 0.48429 0.77486 0.0
H1441 H 0.85906 0.45455 0.75476 0.0
H1442 H 0.93029 0.43962 0.78262 0.0
C1443 C 0.96175 0.36654 0.74358 0.0
C1444 C 0.90029 0.39377 0.74399 0.0
C1445 C 0.9772 0.35176 0.73167 0.0
C1446 C 0.84946 0.47438 0.78313 0.0
C1447 C 0.86284 0.45722 0.77168 0.0
C1448 C 0.92162 0.42677 0.77205 0.0
C1449 C 0.94103 0.37659 0.73416 0.0
C1450 C 0.92552 0.39372 0.74647 0.0
C1451 C 0.88136 0.44417 0.78184 0.0
C1452 C 0.89645 0.4268 0.76957 0.0
H1453 H 0.94626 0.35207 0.6843 0.0
H1454 H 0.91999 0.37821 0.70482 0.0
H1455 H 0.95533 0.41146 0.76257 0.0
H1456 H 0.87656 0.4682 0.83202 0.0
H1457 H 0.89983 0.43833 0.81211 0.0
C1458 C 0.62703 0.86546 0.81027 0.0
C1459 C 0.61459 0.84635 0.80049 0.0
C1460 C 0.64318 0.87957 0.79845 0.0
C1461 C 0.65924 0.89613 0.74224 0.0
H1462 H 0.71584 0.92326 0.76959 0.0
C1463 C 0.73056 0.95102 0.69513 0.0
C1464 C 0.73728 0.97322 0.70432 0.0
C1465 C 0.71708 0.93423 0.70686 0.0
C1466 C 0.70005 0.91589 0.76177 0.0
H1467 H 0.60986 0.82663 0.77077 0.0
H1468 H 0.63851 0.85082 0.75018 0.0
H1469 H 0.68984 0.89597 0.78979 0.0
H1470 H 0.7352 0.99461 0.73355 0.0
H1471 H 0.71227 0.96514 0.75399 0.0
H1472 H 0.66971 0.91593 0.71414 0.0
C1473 C 0.63535 0.85537 0.76688 0.0
C1474 C 0.68505 0.9003 0.77336 0.0
C1475 C 0.61897 0.84141 0.77867 0.0
C1476 C 0.73075 0.97774 0.72586 0.0
C1477 C 0.71749 0.96081 0.73765 0.0
C1478 C 0.67438 0.91151 0.73059 0.0
C1479 C 0.64755 0.87479 0.77656 0.0
C1480 C 0.66427 0.8904 0.76385 0.0
C1481 C 0.7102 0.93903 0.72818 0.0
C1482 C 0.69482 0.92176 0.74029 0.0
H1483 H 0.62375 0.87 0.82695 0.0
H1484 H 0.65177 0.89462 0.80642 0.0
H1485 H 0.64323 0.88926 0.73443 0.0
H1486 H 0.73554 0.94654 0.6788 0.0
H1487 H 0.71203 0.91744 0.69923 0.0
C1488 C 0.97051 0.70862 0.68482 0.0
C1489 C 0.98812 0.72326 0.69439 0.0
C1490 C 0.95866 0.69091 0.69676 0.0
C1491 C 0.95962 0.65628 0.74806 0.0
H1492 H 0.89095 0.65198 0.73715 0.0
C1493 C 0.89863 0.58321 0.78708 0.0
C1494 C 0.87508 0.58997 0.79295 0.0
C1495 C 0.91347 0.59909 0.77562 0.0
C1496 C 0.91005 0.65306 0.7406 0.0
H1497 H 0.00789 0.7301 0.7238 0.0
H1498 H 0.98682 0.69939 0.74488 0.0
H1499 H 0.91532 0.67975 0.71631 0.0
H1500 H 0.84893 0.61906 0.79179 0.0
H1501 H 0.87485 0.64679 0.77227 0.0
H1502 H 0.95404 0.63002 0.77288 0.0
C1503 C 0.98237 0.7014 0.72802 0.0
C1504 C 0.92415 0.66876 0.72837 0.0
C1505 C 0.99444 0.71904 0.71596 0.0
C1506 C 0.86688 0.61313 0.7874 0.0
C1507 C 0.88173 0.62903 0.77607 0.0
C1508 C 0.94544 0.64057 0.76039 0.0
C1509 C 0.96389 0.68753 0.71868 0.0
C1510 C 0.94915 0.67055 0.73185 0.0
C1511 C 0.90514 0.62215 0.76981 0.0
C1512 C 0.92045 0.63879 0.75682 0.0
H1513 H 0.96545 0.71119 0.66815 0.0
H1514 H 0.94504 0.68013 0.68884 0.0
H1515 H 0.97882 0.65707 0.7511 0.0
H1516 H 0.90553 0.56549 0.79105 0.0
H1517 H 0.93127 0.59306 0.77087 0.0
C1518 C 0.37147 0.99282 0.72775 0.0
C1519 C 0.35472 0.9801 0.71515 0.0
C1520 C 0.39023 0.98053 0.73828 0.0
C1521 C 0.40554 0.92072 0.7596 0.0
H1522 H 0.47248 0.93938 0.75328 0.0
C1523 C 0.48198 0.85585 0.78276 0.0
C1524 C 0.50291 0.86526 0.79229 0.0
C1525 C 0.46444 0.87119 0.7742 0.0
C1526 C 0.45387 0.9341 0.75551 0.0
H1527 H 0.34464 0.94451 0.70375 0.0
H1528 H 0.37685 0.92336 0.72217 0.0
H1529 H 0.44078 0.96454 0.73759 0.0
H1530 H 0.52183 0.8983 0.80013 0.0
H1531 H 0.49099 0.92507 0.78559 0.0
H1532 H 0.41827 0.89047 0.77757 0.0
C1533 C 0.37557 0.94275 0.72396 0.0
C1534 C 0.43573 0.94854 0.7465 0.0
C1535 C 0.35717 0.95496 0.71328 0.0
C1536 C 0.50597 0.89042 0.79283 0.0
C1537 C 0.48831 0.9058 0.7844 0.0
C1538 C 0.42357 0.90645 0.76876 0.0
C1539 C 0.39224 0.95531 0.73666 0.0
C1540 C 0.41142 0.9417 0.74809 0.0
C1541 C 0.46721 0.8964 0.7751 0.0
C1542 C 0.44803 0.91263 0.76647 0.0
H1543 H 0.37008 0.0122 0.72946 0.0
H1544 H 0.40286 0.99065 0.74799 0.0
H1545 H 0.38692 0.9152 0.76137 0.0
H1546 H 0.47908 0.83657 0.78191 0.0
H1547 H 0.44873 0.86322 0.76675 0.0
C1548 C 0.07739 0.3898 0.72012 0.0
C1549 C 0.08348 0.36564 0.71597 0.0
C1550 C 0.09446 0.40581 0.7284 0.0
C1551 C 0.15302 0.4088 0.75705 0.0
H1552 H 0.15367 0.47411 0.73483 0.0
C1553 C 0.22636 0.47871 0.78082 0.0
C1554 C 0.21827 0.50228 0.78509 0.0
C1555 C 0.21075 0.46154 0.77193 0.0
C1556 C 0.15361 0.45601 0.74136 0.0
H1557 H 0.11241 0.33935 0.71763 0.0
H1558 H 0.14227 0.36738 0.73193 0.0
H1559 H 0.12498 0.44509 0.72053 0.0
H1560 H 0.18737 0.5262 0.78318 0.0
H1561 H 0.1603 0.49638 0.76783 0.0
H1562 H 0.1817 0.41984 0.77792 0.0
C1563 C 0.12417 0.37388 0.72894 0.0
C1564 C 0.13712 0.43935 0.73317 0.0
C1565 C 0.10705 0.35781 0.72065 0.0
C1566 C 0.19428 0.50827 0.78009 0.0
C1567 C 0.17875 0.49117 0.77114 0.0
C1568 C 0.16958 0.4255 0.76523 0.0
C1569 C 0.11814 0.39816 0.73275 0.0
C1570 C 0.1364 0.41558 0.74105 0.0
C1571 C 0.18674 0.46757 0.76697 0.0
C1572 C 0.16992 0.4494 0.75764 0.0
H1573 H 0.0594 0.39647 0.71687 0.0
H1574 H 0.08901 0.42423 0.73152 0.0
H1575 H 0.15285 0.39074 0.76365 0.0
H1576 H 0.24471 0.47344 0.78446 0.0
H1577 H 0.21758 0.44361 0.76873 0.0
C1578 C 0.63597 0.23788 0.79226 0.0
C1579 C 0.61073 0.23987 0.79113 0.0
C1580 C 0.64793 0.21863 0.78258 0.0
C1581 C 0.64123 0.15648 0.76476 0.0
H1582 H 0.69809 0.17069 0.7307 0.0
C1583 C 0.69535 0.08262 0.71927 0.0
C1584 C 0.72053 0.0853 0.71814 0.0
C1585 C 0.68092 0.10088 0.728 0.0
C1586 C 0.68247 0.16632 0.7404 0.0
H1587 H 0.57821 0.22296 0.77914 0.0
H1588 H 0.59931 0.18882 0.76234 0.0
H1589 H 0.67441 0.20356 0.74571 0.0
H1590 H 0.75035 0.10892 0.72608 0.0
H1591 H 0.72537 0.14033 0.74184 0.0
H1592 H 0.64964 0.11918 0.75994 0.0
C1593 C 0.60971 0.20239 0.77072 0.0
C1594 C 0.66881 0.1852 0.74888 0.0
C1595 C 0.59767 0.22194 0.78023 0.0
C1596 C 0.731 0.10632 0.72654 0.0
C1597 C 0.71662 0.12446 0.73542 0.0
C1598 C 0.65506 0.13751 0.75642 0.0
C1599 C 0.635 0.20071 0.77166 0.0
C1600 C 0.64822 0.1805 0.76136 0.0
C1601 C 0.69135 0.12218 0.73595 0.0
C1602 C 0.67604 0.1422 0.74434 0.0
H1603 H 0.64663 0.25135 0.8005 0.0
H1604 H 0.66739 0.21767 0.78382 0.0
H1605 H 0.62554 0.15235 0.77447 0.0
H1606 H 0.68666 0.0667 0.71287 0.0
H1607 H 0.66155 0.09855 0.72794 0.0
C1608 C 0.95308 0.34792 0.29561 0.0
C1609 C 0.97838 0.34676 0.29625 0.0
C1610 C 0.9414 0.36674 0.28502 0.0
C1611 C 0.94767 0.42915 0.26776 0.0
H1612 H 0.89357 0.41355 0.23085 0.0
C1613 C 0.89281 0.50227 0.22199 0.0
C1614 C 0.86774 0.49883 0.22053 0.0
C1615 C 0.90773 0.48413 0.23025 0.0
C1616 C 0.90844 0.41829 0.24129 0.0
H1617 H 0.01131 0.36467 0.2864 0.0
H1618 H 0.99067 0.39808 0.26803 0.0
H1619 H 0.91742 0.38126 0.24667 0.0
H1620 H 0.83868 0.47374 0.22712 0.0
H1621 H 0.8645 0.44246 0.24195 0.0
H1622 H 0.93824 0.46621 0.26291 0.0
C1623 C 0.98001 0.38418 0.27572 0.0
C1624 C 0.92219 0.39975 0.25025 0.0
C1625 C 0.99179 0.36505 0.28614 0.0
C1626 C 0.85791 0.47697 0.22785 0.0
C1627 C 0.87279 0.45892 0.23621 0.0
C1628 C 0.93375 0.44777 0.25892 0.0
C1629 C 0.95467 0.38507 0.27494 0.0
C1630 C 0.94171 0.40495 0.26385 0.0
C1631 C 0.89792 0.46214 0.23735 0.0
C1632 C 0.9137 0.44255 0.24584 0.0
H1633 H 0.94215 0.33414 0.30317 0.0
H1634 H 0.92187 0.36709 0.28495 0.0
H1635 H 0.96251 0.43367 0.27832 0.0
H1636 H 0.90101 0.51885 0.21643 0.0
H1637 H 0.92699 0.48718 0.23067 0.0
C1638 C 0.57254 0.87837 0.23401 0.0
C1639 C 0.58064 0.85958 0.22074 0.0
C1640 C 0.58889 0.89456 0.24313 0.0
C1641 C 0.65508 0.9046 0.25236 0.0
H1642 H 0.63334 0.96999 0.26239 0.0
C1643 C 0.71597 0.97415 0.29515 0.0
C1644 C 0.71335 0.99866 0.29005 0.0
C1645 C 0.69997 0.95705 0.28685 0.0
C1646 C 0.63999 0.95195 0.2594 0.0
H1647 H 0.61218 0.84306 0.20647 0.0
H1648 H 0.64062 0.87193 0.22127 0.0
H1649 H 0.60584 0.94093 0.24721 0.0
H1650 H 0.69244 0.02446 0.27176 0.0
H1651 H 0.66544 0.99467 0.25623 0.0
H1652 H 0.68973 0.91609 0.26314 0.0
C1653 C 0.62178 0.87378 0.22548 0.0
C1654 C 0.62391 0.93499 0.25106 0.0
C1655 C 0.60544 0.85721 0.21683 0.0
C1656 C 0.69473 0.00569 0.27614 0.0
C1657 C 0.67909 0.98854 0.26738 0.0
C1658 C 0.67134 0.92173 0.26022 0.0
C1659 C 0.61377 0.89281 0.23872 0.0
C1660 C 0.63111 0.91097 0.24754 0.0
C1661 C 0.68127 0.96394 0.27278 0.0
C1662 C 0.66403 0.94567 0.264 0.0
H1663 H 0.55351 0.88048 0.23747 0.0
H1664 H 0.58191 0.90841 0.25368 0.0
H1665 H 0.6614 0.8863 0.25026 0.0
H1666 H 0.73001 0.96821 0.30602 0.0
H1667 H 0.70208 0.9385 0.29187 0.0
C1668 C 0.09718 0.72066 0.27497 0.0
C1669 C 0.1106 0.74046 0.28239 0.0
C1670 C 0.10885 0.70092 0.26537 0.0
C1671 C 0.16574 0.68397 0.23816 0.0
H1672 H 0.15107 0.61889 0.25665 0.0
C1673 C 0.22929 0.60489 0.21875 0.0
C1674 C 0.21903 0.58261 0.21314 0.0
C1675 C 0.21489 0.62363 0.22661 0.0
C1676 C 0.15518 0.63691 0.25107 0.0
H1677 H 0.14671 0.75518 0.28523 0.0
H1678 H 0.16678 0.72112 0.26857 0.0
H1679 H 0.12727 0.65261 0.27048 0.0
H1680 H 0.1855 0.56255 0.21169 0.0
H1681 H 0.1604 0.59534 0.22513 0.0
H1682 H 0.1936 0.6685 0.2188 0.0
C1683 C 0.14732 0.72075 0.27004 0.0
C1684 C 0.14151 0.65622 0.259 0.0
C1685 C 0.13577 0.74024 0.27975 0.0
C1686 C 0.19405 0.57944 0.21589 0.0
C1687 C 0.17963 0.59823 0.2237 0.0
C1688 C 0.1793 0.66472 0.23018 0.0
C1689 C 0.13407 0.70081 0.26277 0.0
C1690 C 0.14691 0.68001 0.2529 0.0
C1691 C 0.18983 0.62065 0.22899 0.0
C1692 C 0.17449 0.64096 0.23678 0.0
H1693 H 0.07777 0.72028 0.27682 0.0
H1694 H 0.09815 0.68584 0.25985 0.0
H1695 H 0.17008 0.70205 0.23285 0.0
H1696 H 0.24847 0.60796 0.21697 0.0
H1697 H 0.22348 0.64046 0.23091 0.0
C1698 C 0.37174 0.13146 0.30611 0.0
C1699 C 0.36831 0.10644 0.3043 0.0
C1700 C 0.38909 0.14321 0.29373 0.0
C1701 C 0.44559 0.13643 0.2648 0.0
H1702 H 0.42412 0.19349 0.23423 0.0
C1703 C 0.50948 0.19252 0.20997 0.0
C1704 C 0.50645 0.2177 0.21011 0.0
C1705 C 0.49293 0.17751 0.22047 0.0
C1706 C 0.43056 0.17781 0.24286 0.0
H1707 H 0.38105 0.07401 0.28849 0.0
H1708 H 0.41202 0.09473 0.26702 0.0
H1709 H 0.39519 0.16964 0.25454 0.0
H1710 H 0.48387 0.24682 0.22182 0.0
H1711 H 0.45557 0.22087 0.24058 0.0
H1712 H 0.48116 0.14505 0.25377 0.0
C1713 C 0.40095 0.10512 0.27799 0.0
C1714 C 0.41391 0.16405 0.25438 0.0
C1715 C 0.38323 0.0933 0.29022 0.0
C1716 C 0.48668 0.2275 0.22122 0.0
C1717 C 0.4703 0.21255 0.23186 0.0
C1718 C 0.46239 0.1504 0.25345 0.0
C1719 C 0.40371 0.13027 0.27938 0.0
C1720 C 0.42128 0.14343 0.26572 0.0
C1721 C 0.47304 0.18732 0.2315 0.0
C1722 C 0.45514 0.17151 0.24259 0.0
H1723 H 0.36064 0.14221 0.31676 0.0
H1724 H 0.39104 0.16255 0.29535 0.0
H1725 H 0.45176 0.12068 0.27351 0.0
H1726 H 0.52446 0.18435 0.20148 0.0
H1727 H 0.49552 0.15819 0.21961 0.0
loop_
_geom_bond_atom_site_label_1
_geom_bond_atom_site_label_2
_geom_bond_distance
_geom_bond_site_symmetry_2
_ccdc_geom_bond_type
Co0 N4 2.148 1_455 S
Co0 N10 2.128 . S
Co0 N20 2.194 . S
Co0 O25 2.351 . S
Co0 O26 2.155 . S
Co0 O27 2.096 . S
C1 N4 1.301 . S
C1 N5 1.328 . S
C1 H6 0.930 1_655 S
C2 C3 1.333 . S
C2 N4 1.317 . S
C2 H7 0.930 . S
C3 C2 1.333 . S
C3 N5 1.350 . S
C3 H29 0.931 . S
N4 Co0 2.148 1_655 S
N4 C1 1.301 . S
N4 C2 1.317 . S
N5 C1 1.328 . S
N5 C3 1.350 . S
H6 C1 0.930 1_455 S
H7 C2 0.930 . S
C8 O9 1.224 . S
C8 O27 1.247 1_655 S
O9 C8 1.224 . S
N10 Co0 2.128 . S
N10 C11 1.355 . S
N10 C13 1.311 . S
C11 N10 1.355 . S
C11 C12 1.363 . S
C11 H23 0.929 . S
C12 C11 1.363 . S
C12 N14 1.375 . S
C12 H30 0.931 . S
C13 N10 1.311 . S
C13 N14 1.347 . S
C13 H24 0.929 . S
N14 C12 1.375 . S
N14 C13 1.347 . S
C15 C18 1.365 . S
C15 N20 1.328 . S
C15 H21 0.929 . S
C16 C17 1.362 . S
C16 C19 1.378 . S
C16 H31 0.929 1_455 S
C17 C16 1.362 . S
C17 C18 1.366 . S
C18 C15 1.365 . S
C18 C17 1.366 . S
C18 H32 0.930 . S
C19 C16 1.378 . S
C19 N20 1.315 . S
C19 H22 0.925 1_455 S
N20 Co0 2.194 . S
N20 C15 1.328 . S
N20 C19 1.315 . S
H21 C15 0.929 . S
H22 C19 0.925 1_655 S
H23 C11 0.929 . S
H24 C13 0.929 . S
O25 Co0 2.351 . S
O25 C28 1.244 . S
O26 Co0 2.155 . S
O26 C28 1.240 . S
O27 Co0 2.096 . S
O27 C8 1.247 1_455 S
C28 O25 1.244 . S
C28 O26 1.240 . S
H29 C3 0.931 . S
H30 C12 0.931 . S
H31 C16 0.929 1_655 S
H32 C18 0.930 . S
Co33 N37 2.148 1_545 S
Co33 N43 2.128 . S
Co33 N53 2.194 . S
Co33 O58 2.351 . S
Co33 O59 2.155 . S
Co33 O60 2.096 . S
C34 N37 1.301 . S
C34 N38 1.328 . S
C34 H39 0.930 1_565 S
C35 C36 1.333 . S
C35 N37 1.317 . S
C35 H40 0.930 . S
C36 C35 1.333 . S
C36 N38 1.350 . S
C36 H62 0.931 . S
N37 Co33 2.148 1_565 S
N37 C34 1.301 . S
N37 C35 1.317 . S
N38 C34 1.328 . S
N38 C36 1.350 . S
H39 C34 0.930 1_545 S
H40 C35 0.930 . S
C41 O42 1.224 . S
C41 O60 1.247 1_565 S
O42 C41 1.224 . S
N43 Co33 2.128 . S
N43 C44 1.355 . S
N43 C46 1.311 . S
C44 N43 1.355 . S
C44 C45 1.363 . S
C44 H56 0.929 . S
C45 C44 1.363 . S
C45 N47 1.375 . S
C45 H63 0.931 . S
C46 N43 1.311 . S
C46 N47 1.347 . S
C46 H57 0.929 . S
N47 C45 1.375 . S
N47 C46 1.347 . S
C48 C51 1.365 . S
C48 N53 1.328 . S
C48 H54 0.929 . S
C49 C50 1.362 . S
C49 C52 1.378 . S
C49 H64 0.929 1_545 S
C50 C49 1.362 . S
C50 C51 1.366 . S
C51 C48 1.365 . S
C51 C50 1.366 . S
C51 H65 0.930 . S
C52 C49 1.378 . S
C52 N53 1.315 . S
C52 H55 0.925 1_545 S
N53 Co33 2.194 . S
N53 C48 1.328 . S
N53 C52 1.315 . S
H54 C48 0.929 . S
H55 C52 0.925 1_565 S
H56 C44 0.929 . S
H57 C46 0.929 . S
O58 Co33 2.351 . S
O58 C61 1.244 . S
O59 Co33 2.155 . S
O59 C61 1.240 . S
O60 Co33 2.096 . S
O60 C41 1.247 1_545 S
C61 O58 1.244 . S
C61 O59 1.240 . S
H62 C36 0.931 . S
H63 C45 0.931 . S
H64 C49 0.929 1_565 S
H65 C51 0.930 . S
Co66 N70 2.148 . S
Co66 N76 2.128 . S
Co66 N86 2.194 . S
Co66 O91 2.351 . S
Co66 O92 2.155 . S
Co66 O93 2.096 . S
C67 N70 1.301 . S
C67 N71 1.328 . S
C67 H72 0.930 . S
C68 C69 1.333 . S
C68 N70 1.317 . S
C68 H73 0.930 . S
C69 C68 1.333 . S
C69 N71 1.350 . S
C69 H95 0.931 . S
N70 Co66 2.148 . S
N70 C67 1.301 . S
N70 C68 1.317 . S
N71 C67 1.328 . S
N71 C69 1.350 . S
H72 C67 0.930 . S
H73 C68 0.930 . S
C74 O75 1.224 . S
C74 O93 1.247 . S
O75 C74 1.224 . S
N76 Co66 2.128 . S
N76 C77 1.355 . S
N76 C79 1.311 . S
C77 N76 1.355 . S
C77 C78 1.363 1_455 S
C77 H89 0.929 . S
C78 C77 1.363 1_655 S
C78 N80 1.375 1_655 S
C78 H96 0.931 . S
C79 N76 1.311 . S
C79 N80 1.347 . S
C79 H90 0.929 . S
N80 C78 1.375 1_455 S
N80 C79 1.347 . S
C81 C84 1.365 . S
C81 N86 1.328 . S
C81 H87 0.929 . S
C82 C83 1.362 . S
C82 C85 1.378 . S
C82 H97 0.929 . S
C83 C82 1.362 . S
C83 C84 1.366 . S
C84 C81 1.365 . S
C84 C83 1.366 . S
C84 H98 0.930 . S
C85 C82 1.378 . S
C85 N86 1.315 . S
C85 H88 0.930 . S
N86 Co66 2.194 . S
N86 C81 1.328 . S
N86 C85 1.315 . S
H87 C81 0.929 . S
H88 C85 0.930 . S
H89 C77 0.929 . S
H90 C79 0.929 . S
O91 Co66 2.351 . S
O91 C94 1.244 . S
O92 Co66 2.155 . S
O92 C94 1.240 . S
O93 Co66 2.096 . S
O93 C74 1.247 . S
C94 O91 1.244 . S
C94 O92 1.240 . S
H95 C69 0.931 . S
H96 C78 0.931 . S
H97 C82 0.929 . S
H98 C84 0.930 . S
Co99 N103 2.148 . S
Co99 N109 2.128 . S
Co99 N119 2.194 . S
Co99 O124 2.351 . S
Co99 O125 2.155 . S
Co99 O126 2.096 . S
C100 N103 1.301 . S
C100 N104 1.328 . S
C100 H105 0.930 . S
C101 C102 1.333 . S
C101 N103 1.317 . S
C101 H106 0.930 . S
C102 C101 1.333 . S
C102 N104 1.350 . S
C102 H128 0.931 . S
N103 Co99 2.148 . S
N103 C100 1.301 . S
N103 C101 1.317 . S
N104 C100 1.328 . S
N104 C102 1.350 . S
H105 C100 0.930 . S
H106 C101 0.930 . S
C107 O108 1.224 . S
C107 O126 1.247 . S
O108 C107 1.224 . S
N109 Co99 2.128 . S
N109 C110 1.355 . S
N109 C112 1.311 . S
C110 N109 1.355 . S
C110 C111 1.363 1_545 S
C110 H122 0.929 . S
C111 C110 1.363 1_565 S
C111 N113 1.375 1_565 S
C111 H129 0.931 . S
C112 N109 1.311 . S
C112 N113 1.347 . S
C112 H123 0.929 . S
N113 C111 1.375 1_545 S
N113 C112 1.347 . S
C114 C117 1.365 . S
C114 N119 1.328 . S
C114 H120 0.929 . S
C115 C116 1.362 . S
C115 C118 1.378 . S
C115 H130 0.929 . S
C116 C115 1.362 . S
C116 C117 1.366 . S
C117 C114 1.365 . S
C117 C116 1.366 . S
C117 H131 0.930 . S
C118 C115 1.378 . S
C118 N119 1.315 . S
C118 H121 0.930 . S
N119 Co99 2.194 . S
N119 C114 1.328 . S
N119 C118 1.315 . S
H120 C114 0.929 . S
H121 C118 0.930 . S
H122 C110 0.929 . S
H123 C112 0.929 . S
O124 Co99 2.351 . S
O124 C127 1.244 . S
O125 Co99 2.155 . S
O125 C127 1.240 . S
O126 Co99 2.096 . S
O126 C107 1.247 . S
C127 O124 1.244 . S
C127 O125 1.240 . S
H128 C102 0.931 . S
H129 C111 0.931 . S
H130 C115 0.929 . S
H131 C117 0.930 . S
Co132 N136 2.148 1_455 S
Co132 N142 2.128 . S
Co132 N152 2.194 . S
Co132 O157 2.351 . S
Co132 O158 2.155 . S
Co132 O159 2.096 . S
C133 N136 1.301 . S
C133 N137 1.328 . S
C133 H138 0.930 1_655 S
C134 C135 1.333 . S
C134 N136 1.317 . S
C134 H139 0.930 . S
C135 C134 1.333 . S
C135 N137 1.350 . S
C135 H161 0.931 . S
N136 Co132 2.148 1_655 S
N136 C133 1.301 . S
N136 C134 1.317 . S
N137 C133 1.328 . S
N137 C135 1.350 . S
H138 C133 0.930 1_455 S
H139 C134 0.930 . S
C140 O141 1.224 . S
C140 O159 1.247 1_655 S
O141 C140 1.224 . S
N142 Co132 2.128 . S
N142 C143 1.355 . S
N142 C145 1.311 . S
C143 N142 1.355 . S
C143 C144 1.363 . S
C143 H155 0.929 . S
C144 C143 1.363 . S
C144 N146 1.375 . S
C144 H162 0.931 . S
C145 N142 1.311 . S
C145 N146 1.347 . S
C145 H156 0.929 . S
N146 C144 1.375 . S
N146 C145 1.347 . S
C147 C150 1.365 . S
C147 N152 1.328 . S
C147 H153 0.929 . S
C148 C149 1.362 . S
C148 C151 1.378 . S
C148 H163 0.929 1_455 S
C149 C148 1.362 . S
C149 C150 1.366 . S
C150 C147 1.365 . S
C150 C149 1.366 . S
C150 H164 0.930 . S
C151 C148 1.378 . S
C151 N152 1.315 . S
C151 H154 0.925 1_455 S
N152 Co132 2.194 . S
N152 C147 1.328 . S
N152 C151 1.315 . S
H153 C147 0.929 . S
H154 C151 0.925 1_655 S
H155 C143 0.929 . S
H156 C145 0.929 . S
O157 Co132 2.351 . S
O157 C160 1.244 . S
O158 Co132 2.155 . S
O158 C160 1.240 . S
O159 Co132 2.096 . S
O159 C140 1.247 1_455 S
C160 O157 1.244 . S
C160 O158 1.240 . S
H161 C135 0.931 . S
H162 C144 0.931 . S
H163 C148 0.929 1_655 S
H164 C150 0.930 . S
Co165 N169 2.148 1_545 S
Co165 N175 2.128 . S
Co165 N185 2.194 . S
Co165 O190 2.351 . S
Co165 O191 2.155 . S
Co165 O192 2.096 . S
C166 N169 1.301 . S
C166 N170 1.328 . S
C166 H171 0.930 1_565 S
C167 C168 1.333 . S
C167 N169 1.317 . S
C167 H172 0.930 . S
C168 C167 1.333 . S
C168 N170 1.350 . S
C168 H194 0.931 . S
N169 Co165 2.148 1_565 S
N169 C166 1.301 . S
N169 C167 1.317 . S
N170 C166 1.328 . S
N170 C168 1.350 . S
H171 C166 0.930 1_545 S
H172 C167 0.930 . S
C173 O174 1.224 . S
C173 O192 1.247 1_565 S
O174 C173 1.224 . S
N175 Co165 2.128 . S
N175 C176 1.355 . S
N175 C178 1.311 . S
C176 N175 1.355 . S
C176 C177 1.363 . S
C176 H188 0.929 . S
C177 C176 1.363 . S
C177 N179 1.375 . S
C177 H195 0.931 . S
C178 N175 1.311 . S
C178 N179 1.347 . S
C178 H189 0.929 . S
N179 C177 1.375 . S
N179 C178 1.347 . S
C180 C183 1.365 . S
C180 N185 1.328 . S
C180 H186 0.929 . S
C181 C182 1.362 . S
C181 C184 1.378 . S
C181 H196 0.929 1_545 S
C182 C181 1.362 . S
C182 C183 1.366 . S
C183 C180 1.365 . S
C183 C182 1.366 . S
C183 H197 0.930 . S
C184 C181 1.378 . S
C184 N185 1.315 . S
C184 H187 0.925 1_545 S
N185 Co165 2.194 . S
N185 C180 1.328 . S
N185 C184 1.315 . S
H186 C180 0.929 . S
H187 C184 0.925 1_565 S
H188 C176 0.929 . S
H189 C178 0.929 . S
O190 Co165 2.351 . S
O190 C193 1.244 . S
O191 Co165 2.155 . S
O191 C193 1.240 . S
O192 Co165 2.096 . S
O192 C173 1.247 1_545 S
C193 O190 1.244 . S
C193 O191 1.240 . S
H194 C168 0.931 . S
H195 C177 0.931 . S
H196 C181 0.929 1_565 S
H197 C183 0.930 . S
Co198 N202 2.148 . S
Co198 N208 2.128 . S
Co198 N218 2.194 . S
Co198 O223 2.351 . S
Co198 O224 2.155 . S
Co198 O225 2.096 . S
C199 N202 1.301 . S
C199 N203 1.328 . S
C199 H204 0.930 . S
C200 C201 1.333 . S
C200 N202 1.317 . S
C200 H205 0.930 . S
C201 C200 1.333 . S
C201 N203 1.350 . S
C201 H227 0.931 . S
N202 Co198 2.148 . S
N202 C199 1.301 . S
N202 C200 1.317 . S
N203 C199 1.328 . S
N203 C201 1.350 . S
H204 C199 0.930 . S
H205 C200 0.930 . S
C206 O207 1.224 . S
C206 O225 1.247 . S
O207 C206 1.224 . S
N208 Co198 2.128 . S
N208 C209 1.355 . S
N208 C211 1.311 . S
C209 N208 1.355 . S
C209 C210 1.363 1_455 S
C209 H221 0.929 . S
C210 C209 1.363 1_655 S
C210 N212 1.375 1_655 S
C210 H228 0.931 . S
C211 N208 1.311 . S
C211 N212 1.347 . S
C211 H222 0.929 . S
N212 C210 1.375 1_455 S
N212 C211 1.347 . S
C213 C216 1.365 . S
C213 N218 1.328 . S
C213 H219 0.929 . S
C214 C215 1.362 . S
C214 C217 1.378 . S
C214 H229 0.929 . S
C215 C214 1.362 . S
C215 C216 1.366 . S
C216 C213 1.365 . S
C216 C215 1.366 . S
C216 H230 0.930 . S
C217 C214 1.378 . S
C217 N218 1.315 . S
C217 H220 0.930 . S
N218 Co198 2.194 . S
N218 C213 1.328 . S
N218 C217 1.315 . S
H219 C213 0.929 . S
H220 C217 0.930 . S
H221 C209 0.929 . S
H222 C211 0.929 . S
O223 Co198 2.351 . S
O223 C226 1.244 . S
O224 Co198 2.155 . S
O224 C226 1.240 . S
O225 Co198 2.096 . S
O225 C206 1.247 . S
C226 O223 1.244 . S
C226 O224 1.240 . S
H227 C201 0.931 . S
H228 C210 0.931 . S
H229 C214 0.929 . S
H230 C216 0.930 . S
Co231 N235 2.148 . S
Co231 N241 2.128 . S
Co231 N251 2.194 . S
Co231 O256 2.351 . S
Co231 O257 2.155 . S
Co231 O258 2.096 . S
C232 N235 1.301 . S
C232 N236 1.328 . S
C232 H237 0.930 . S
C233 C234 1.333 . S
C233 N235 1.317 . S
C233 H238 0.930 . S
C234 C233 1.333 . S
C234 N236 1.350 . S
C234 H260 0.931 . S
N235 Co231 2.148 . S
N235 C232 1.301 . S
N235 C233 1.317 . S
N236 C232 1.328 . S
N236 C234 1.350 . S
H237 C232 0.930 . S
H238 C233 0.930 . S
C239 O240 1.224 . S
C239 O258 1.247 . S
O240 C239 1.224 . S
N241 Co231 2.128 . S
N241 C242 1.355 . S
N241 C244 1.311 . S
C242 N241 1.355 . S
C242 C243 1.363 1_545 S
C242 H254 0.929 . S
C243 C242 1.363 1_565 S
C243 N245 1.375 1_565 S
C243 H261 0.931 . S
C244 N241 1.311 . S
C244 N245 1.347 . S
C244 H255 0.929 . S
N245 C243 1.375 1_545 S
N245 C244 1.347 . S
C246 C249 1.365 . S
C246 N251 1.328 . S
C246 H252 0.929 . S
C247 C248 1.362 . S
C247 C250 1.378 . S
C247 H262 0.929 . S
C248 C247 1.362 . S
C248 C249 1.366 . S
C249 C246 1.365 . S
C249 C248 1.366 . S
C249 H263 0.930 . S
C250 C247 1.378 . S
C250 N251 1.315 . S
C250 H253 0.930 . S
N251 Co231 2.194 . S
N251 C246 1.328 . S
N251 C250 1.315 . S
H252 C246 0.929 . S
H253 C250 0.930 . S
H254 C242 0.929 . S
H255 C244 0.929 . S
O256 Co231 2.351 . S
O256 C259 1.244 . S
O257 Co231 2.155 . S
O257 C259 1.240 . S
O258 Co231 2.096 . S
O258 C239 1.247 . S
C259 O256 1.244 . S
C259 O257 1.240 . S
H260 C234 0.931 . S
H261 C243 0.931 . S
H262 C247 0.929 . S
H263 C249 0.930 . S
Co264 N268 2.148 . S
Co264 N274 2.128 . S
Co264 N284 2.194 . S
Co264 O289 2.351 . S
Co264 O290 2.155 . S
Co264 O291 2.096 . S
C265 N268 1.301 . S
C265 N269 1.328 . S
C265 H270 0.930 . S
C266 C267 1.333 . S
C266 N268 1.317 . S
C266 H271 0.930 . S
C267 C266 1.333 . S
C267 N269 1.350 . S
C267 H293 0.931 . S
N268 Co264 2.148 . S
N268 C265 1.301 . S
N268 C266 1.317 . S
N269 C265 1.328 . S
N269 C267 1.350 . S
H270 C265 0.930 . S
H271 C266 0.930 . S
C272 O273 1.224 . S
C272 O291 1.247 . S
O273 C272 1.224 . S
N274 Co264 2.128 . S
N274 C275 1.355 . S
N274 C277 1.311 . S
C275 N274 1.355 . S
C275 C276 1.363 . S
C275 H287 0.929 . S
C276 C275 1.363 . S
C276 N278 1.375 . S
C276 H294 0.931 . S
C277 N274 1.311 . S
C277 N278 1.347 . S
C277 H288 0.929 . S
N278 C276 1.375 . S
N278 C277 1.347 . S
C279 C282 1.365 . S
C279 N284 1.328 . S
C279 H285 0.929 . S
C280 C281 1.362 . S
C280 C283 1.378 . S
C280 H295 0.929 . S
C281 C280 1.362 . S
C281 C282 1.366 . S
C282 C279 1.365 . S
C282 C281 1.366 . S
C282 H296 0.930 . S
C283 C280 1.378 . S
C283 N284 1.315 . S
C283 H286 0.930 . S
N284 Co264 2.194 . S
N284 C279 1.328 . S
N284 C283 1.315 . S
H285 C279 0.929 . S
H286 C283 0.930 . S
H287 C275 0.929 . S
H288 C277 0.929 . S
O289 Co264 2.351 . S
O289 C292 1.244 . S
O290 Co264 2.155 . S
O290 C292 1.240 . S
O291 Co264 2.096 . S
O291 C272 1.247 . S
C292 O289 1.244 . S
C292 O290 1.240 . S
H293 C267 0.931 . S
H294 C276 0.931 . S
H295 C280 0.929 . S
H296 C282 0.930 . S
Co297 N301 2.148 . S
Co297 N307 2.128 . S
Co297 N317 2.194 . S
Co297 O322 2.351 . S
Co297 O323 2.155 . S
Co297 O324 2.096 . S
C298 N301 1.301 . S
C298 N302 1.328 . S
C298 H303 0.930 . S
C299 C300 1.333 . S
C299 N301 1.317 . S
C299 H304 0.930 . S
C300 C299 1.333 . S
C300 N302 1.350 . S
C300 H326 0.931 . S
N301 Co297 2.148 . S
N301 C298 1.301 . S
N301 C299 1.317 . S
N302 C298 1.328 . S
N302 C300 1.350 . S
H303 C298 0.930 . S
H304 C299 0.930 . S
C305 O306 1.224 . S
C305 O324 1.247 . S
O306 C305 1.224 . S
N307 Co297 2.128 . S
N307 C308 1.355 . S
N307 C310 1.311 . S
C308 N307 1.355 . S
C308 C309 1.363 . S
C308 H320 0.929 . S
C309 C308 1.363 . S
C309 N311 1.375 . S
C309 H327 0.931 . S
C310 N307 1.311 . S
C310 N311 1.347 . S
C310 H321 0.929 . S
N311 C309 1.375 . S
N311 C310 1.347 . S
C312 C315 1.365 . S
C312 N317 1.328 . S
C312 H318 0.929 . S
C313 C314 1.362 . S
C313 C316 1.378 . S
C313 H328 0.929 . S
C314 C313 1.362 . S
C314 C315 1.366 . S
C315 C312 1.365 . S
C315 C314 1.366 . S
C315 H329 0.930 . S
C316 C313 1.378 . S
C316 N317 1.315 . S
C316 H319 0.930 . S
N317 Co297 2.194 . S
N317 C312 1.328 . S
N317 C316 1.315 . S
H318 C312 0.929 . S
H319 C316 0.930 . S
H320 C308 0.929 . S
H321 C310 0.929 . S
O322 Co297 2.351 . S
O322 C325 1.244 . S
O323 Co297 2.155 . S
O323 C325 1.240 . S
O324 Co297 2.096 . S
O324 C305 1.247 . S
C325 O322 1.244 . S
C325 O323 1.240 . S
H326 C300 0.931 . S
H327 C309 0.931 . S
H328 C313 0.929 . S
H329 C315 0.930 . S
Co330 N334 2.148 . S
Co330 N340 2.128 . S
Co330 N350 2.194 . S
Co330 O355 2.351 . S
Co330 O356 2.155 . S
Co330 O357 2.096 . S
C331 N334 1.301 . S
C331 N335 1.328 . S
C331 H336 0.930 . S
C332 C333 1.333 . S
C332 N334 1.317 . S
C332 H337 0.930 . S
C333 C332 1.333 . S
C333 N335 1.350 . S
C333 H359 0.931 . S
N334 Co330 2.148 . S
N334 C331 1.301 . S
N334 C332 1.317 . S
N335 C331 1.328 . S
N335 C333 1.350 . S
H336 C331 0.930 . S
H337 C332 0.930 . S
C338 O339 1.224 . S
C338 O357 1.247 . S
O339 C338 1.224 . S
N340 Co330 2.128 . S
N340 C341 1.355 . S
N340 C343 1.311 . S
C341 N340 1.355 . S
C341 C342 1.363 . S
C341 H353 0.929 . S
C342 C341 1.363 . S
C342 N344 1.375 . S
C342 H360 0.931 . S
C343 N340 1.311 . S
C343 N344 1.347 . S
C343 H354 0.929 . S
N344 C342 1.375 . S
N344 C343 1.347 . S
C345 C348 1.365 . S
C345 N350 1.328 . S
C345 H351 0.929 . S
C346 C347 1.362 . S
C346 C349 1.378 . S
C346 H361 0.929 . S
C347 C346 1.362 . S
C347 C348 1.366 . S
C348 C345 1.365 . S
C348 C347 1.366 . S
C348 H362 0.930 . S
C349 C346 1.378 . S
C349 N350 1.315 . S
C349 H352 0.930 . S
N350 Co330 2.194 . S
N350 C345 1.328 . S
N350 C349 1.315 . S
H351 C345 0.929 . S
H352 C349 0.930 . S
H353 C341 0.929 . S
H354 C343 0.929 . S
O355 Co330 2.351 . S
O355 C358 1.244 . S
O356 Co330 2.155 . S
O356 C358 1.240 . S
O357 Co330 2.096 . S
O357 C338 1.247 . S
C358 O355 1.244 . S
C358 O356 1.240 . S
H359 C333 0.931 . S
H360 C342 0.931 . S
H361 C346 0.929 . S
H362 C348 0.930 . S
Co363 N367 2.148 . S
Co363 N373 2.128 . S
Co363 N383 2.194 . S
Co363 O388 2.351 . S
Co363 O389 2.155 . S
Co363 O390 2.096 . S
C364 N367 1.301 . S
C364 N368 1.328 . S
C364 H369 0.930 . S
C365 C366 1.333 . S
C365 N367 1.317 . S
C365 H370 0.930 . S
C366 C365 1.333 . S
C366 N368 1.350 . S
C366 H392 0.931 . S
N367 Co363 2.148 . S
N367 C364 1.301 . S
N367 C365 1.317 . S
N368 C364 1.328 . S
N368 C366 1.350 . S
H369 C364 0.930 . S
H370 C365 0.930 . S
C371 O372 1.224 . S
C371 O390 1.247 . S
O372 C371 1.224 . S
N373 Co363 2.128 . S
N373 C374 1.355 . S
N373 C376 1.311 . S
C374 N373 1.355 . S
C374 C375 1.363 . S
C374 H386 0.929 . S
C375 C374 1.363 . S
C375 N377 1.375 . S
C375 H393 0.931 . S
C376 N373 1.311 . S
C376 N377 1.347 . S
C376 H387 0.929 . S
N377 C375 1.375 . S
N377 C376 1.347 . S
C378 C381 1.365 . S
C378 N383 1.328 . S
C378 H384 0.929 . S
C379 C380 1.362 . S
C379 C382 1.378 . S
C379 H394 0.929 . S
C380 C379 1.362 . S
C380 C381 1.366 . S
C381 C378 1.365 . S
C381 C380 1.366 . S
C381 H395 0.930 . S
C382 C379 1.378 . S
C382 N383 1.315 . S
C382 H385 0.930 . S
N383 Co363 2.194 . S
N383 C378 1.328 . S
N383 C382 1.315 . S
H384 C378 0.929 . S
H385 C382 0.930 . S
H386 C374 0.929 . S
H387 C376 0.929 . S
O388 Co363 2.351 . S
O388 C391 1.244 . S
O389 Co363 2.155 . S
O389 C391 1.240 . S
O390 Co363 2.096 . S
O390 C371 1.247 . S
C391 O388 1.244 . S
C391 O389 1.240 . S
H392 C366 0.931 . S
H393 C375 0.931 . S
H394 C379 0.929 . S
H395 C381 0.930 . S
Co396 N400 2.148 . S
Co396 N406 2.128 . S
Co396 N416 2.194 . S
Co396 O421 2.351 . S
Co396 O422 2.155 . S
Co396 O423 2.096 . S
C397 N400 1.301 . S
C397 N401 1.328 . S
C397 H402 0.930 . S
C398 C399 1.333 . S
C398 N400 1.317 . S
C398 H403 0.930 . S
C399 C398 1.333 . S
C399 N401 1.350 . S
C399 H425 0.931 . S
N400 Co396 2.148 . S
N400 C397 1.301 . S
N400 C398 1.317 . S
N401 C397 1.328 . S
N401 C399 1.350 . S
H402 C397 0.930 . S
H403 C398 0.930 . S
C404 O405 1.224 . S
C404 O423 1.247 . S
O405 C404 1.224 . S
N406 Co396 2.128 . S
N406 C407 1.355 . S
N406 C409 1.311 . S
C407 N406 1.355 . S
C407 C408 1.363 . S
C407 H419 0.929 . S
C408 C407 1.363 . S
C408 N410 1.375 . S
C408 H426 0.931 . S
C409 N406 1.311 . S
C409 N410 1.347 . S
C409 H420 0.929 . S
N410 C408 1.375 . S
N410 C409 1.347 . S
C411 C414 1.365 . S
C411 N416 1.328 . S
C411 H417 0.929 . S
C412 C413 1.362 . S
C412 C415 1.378 . S
C412 H427 0.929 . S
C413 C412 1.362 . S
C413 C414 1.366 . S
C414 C411 1.365 . S
C414 C413 1.366 . S
C414 H428 0.930 . S
C415 C412 1.378 . S
C415 N416 1.315 . S
C415 H418 0.930 . S
N416 Co396 2.194 . S
N416 C411 1.328 . S
N416 C415 1.315 . S
H417 C411 0.929 . S
H418 C415 0.930 . S
H419 C407 0.929 . S
H420 C409 0.929 . S
O421 Co396 2.351 . S
O421 C424 1.244 . S
O422 Co396 2.155 . S
O422 C424 1.240 . S
O423 Co396 2.096 . S
O423 C404 1.247 . S
C424 O421 1.244 . S
C424 O422 1.240 . S
H425 C399 0.931 . S
H426 C408 0.931 . S
H427 C412 0.929 . S
H428 C414 0.930 . S
Co429 N433 2.148 . S
Co429 N439 2.128 . S
Co429 N449 2.194 . S
Co429 O454 2.351 . S
Co429 O455 2.155 . S
Co429 O456 2.096 . S
C430 N433 1.301 . S
C430 N434 1.328 . S
C430 H435 0.930 . S
C431 C432 1.333 . S
C431 N433 1.317 . S
C431 H436 0.930 . S
C432 C431 1.333 . S
C432 N434 1.350 . S
C432 H458 0.931 . S
N433 Co429 2.148 . S
N433 C430 1.301 . S
N433 C431 1.317 . S
N434 C430 1.328 . S
N434 C432 1.350 . S
H435 C430 0.930 . S
H436 C431 0.930 . S
C437 O438 1.224 . S
C437 O456 1.247 . S
O438 C437 1.224 . S
N439 Co429 2.128 . S
N439 C440 1.355 . S
N439 C442 1.311 . S
C440 N439 1.355 . S
C440 C441 1.363 . S
C440 H452 0.929 . S
C441 C440 1.363 . S
C441 N443 1.375 . S
C441 H459 0.931 . S
C442 N439 1.311 . S
C442 N443 1.347 . S
C442 H453 0.929 . S
N443 C441 1.375 . S
N443 C442 1.347 . S
C444 C447 1.365 . S
C444 N449 1.328 . S
C444 H450 0.929 . S
C445 C446 1.362 . S
C445 C448 1.378 . S
C445 H460 0.929 . S
C446 C445 1.362 . S
C446 C447 1.366 . S
C447 C444 1.365 . S
C447 C446 1.366 . S
C447 H461 0.930 . S
C448 C445 1.378 . S
C448 N449 1.315 . S
C448 H451 0.930 . S
N449 Co429 2.194 . S
N449 C444 1.328 . S
N449 C448 1.315 . S
H450 C444 0.929 . S
H451 C448 0.930 . S
H452 C440 0.929 . S
H453 C442 0.929 . S
O454 Co429 2.351 . S
O454 C457 1.244 . S
O455 Co429 2.155 . S
O455 C457 1.240 . S
O456 Co429 2.096 . S
O456 C437 1.247 . S
C457 O454 1.244 . S
C457 O455 1.240 . S
H458 C432 0.931 . S
H459 C441 0.931 . S
H460 C445 0.929 . S
H461 C447 0.930 . S
Co462 N466 2.148 . S
Co462 N472 2.128 . S
Co462 N482 2.194 . S
Co462 O487 2.351 . S
Co462 O488 2.155 . S
Co462 O489 2.096 . S
C463 N466 1.301 . S
C463 N467 1.328 . S
C463 H468 0.930 . S
C464 C465 1.333 . S
C464 N466 1.317 . S
C464 H469 0.930 . S
C465 C464 1.333 . S
C465 N467 1.350 . S
C465 H491 0.931 . S
N466 Co462 2.148 . S
N466 C463 1.301 . S
N466 C464 1.317 . S
N467 C463 1.328 . S
N467 C465 1.350 . S
H468 C463 0.930 . S
H469 C464 0.930 . S
C470 O471 1.224 . S
C470 O489 1.247 . S
O471 C470 1.224 . S
N472 Co462 2.128 . S
N472 C473 1.355 . S
N472 C475 1.311 . S
C473 N472 1.355 . S
C473 C474 1.363 . S
C473 H485 0.929 . S
C474 C473 1.363 . S
C474 N476 1.375 . S
C474 H492 0.931 . S
C475 N472 1.311 . S
C475 N476 1.347 . S
C475 H486 0.929 . S
N476 C474 1.375 . S
N476 C475 1.347 . S
C477 C480 1.365 . S
C477 N482 1.328 . S
C477 H483 0.929 . S
C478 C479 1.362 . S
C478 C481 1.378 . S
C478 H493 0.929 . S
C479 C478 1.362 . S
C479 C480 1.366 . S
C480 C477 1.365 . S
C480 C479 1.366 . S
C480 H494 0.930 . S
C481 C478 1.378 . S
C481 N482 1.315 . S
C481 H484 0.930 . S
N482 Co462 2.194 . S
N482 C477 1.328 . S
N482 C481 1.315 . S
H483 C477 0.929 . S
H484 C481 0.930 . S
H485 C473 0.929 . S
H486 C475 0.929 . S
O487 Co462 2.351 . S
O487 C490 1.244 . S
O488 Co462 2.155 . S
O488 C490 1.240 . S
O489 Co462 2.096 . S
O489 C470 1.247 . S
C490 O487 1.244 . S
C490 O488 1.240 . S
H491 C465 0.931 . S
H492 C474 0.931 . S
H493 C478 0.929 . S
H494 C480 0.930 . S
Co495 N499 2.148 . S
Co495 N505 2.128 . S
Co495 N515 2.194 . S
Co495 O520 2.351 . S
Co495 O521 2.155 . S
Co495 O522 2.096 . S
C496 N499 1.301 . S
C496 N500 1.328 . S
C496 H501 0.930 . S
C497 C498 1.333 . S
C497 N499 1.317 . S
C497 H502 0.930 . S
C498 C497 1.333 . S
C498 N500 1.350 . S
C498 H524 0.931 . S
N499 Co495 2.148 . S
N499 C496 1.301 . S
N499 C497 1.317 . S
N500 C496 1.328 . S
N500 C498 1.350 . S
H501 C496 0.930 . S
H502 C497 0.930 . S
C503 O504 1.224 . S
C503 O522 1.247 . S
O504 C503 1.224 . S
N505 Co495 2.128 . S
N505 C506 1.355 . S
N505 C508 1.311 . S
C506 N505 1.355 . S
C506 C507 1.363 . S
C506 H518 0.929 . S
C507 C506 1.363 . S
C507 N509 1.375 . S
C507 H525 0.931 . S
C508 N505 1.311 . S
C508 N509 1.347 . S
C508 H519 0.929 . S
N509 C507 1.375 . S
N509 C508 1.347 . S
C510 C513 1.365 . S
C510 N515 1.328 . S
C510 H516 0.929 . S
C511 C512 1.362 . S
C511 C514 1.378 . S
C511 H526 0.929 . S
C512 C511 1.362 . S
C512 C513 1.366 . S
C513 C510 1.365 . S
C513 C512 1.366 . S
C513 H527 0.930 . S
C514 C511 1.378 . S
C514 N515 1.315 . S
C514 H517 0.930 . S
N515 Co495 2.194 . S
N515 C510 1.328 . S
N515 C514 1.315 . S
H516 C510 0.929 . S
H517 C514 0.930 . S
H518 C506 0.929 . S
H519 C508 0.929 . S
O520 Co495 2.351 . S
O520 C523 1.244 . S
O521 Co495 2.155 . S
O521 C523 1.240 . S
O522 Co495 2.096 . S
O522 C503 1.247 . S
C523 O520 1.244 . S
C523 O521 1.240 . S
H524 C498 0.931 . S
H525 C507 0.931 . S
H526 C511 0.929 . S
H527 C513 0.930 . S
C528 C529 1.349 . S
C528 C530 1.327 . S
C528 H553 0.950 . S
C529 C528 1.349 . S
C529 C545 1.349 . S
C530 C528 1.327 . S
C530 C549 1.429 . S
C530 H554 0.950 . S
C531 C548 1.574 . S
C531 C550 1.368 . S
C531 H555 0.949 . S
H532 C536 0.949 . S
C533 C534 1.349 . S
C533 C535 1.327 . S
C533 H556 0.950 . S
C534 C533 1.349 . S
C534 C546 1.349 . S
C535 C533 1.327 . S
C535 C551 1.429 . S
C535 H557 0.950 . S
C536 H532 0.949 . S
C536 C544 1.574 . S
C536 C552 1.368 . S
H537 C545 0.950 . S
H538 C543 0.950 . S
H539 C544 0.949 . S
H540 C546 0.950 . S
H541 C547 0.950 . S
H542 C548 0.949 . S
C543 H538 0.950 . S
C543 C545 1.327 . S
C543 C549 1.429 . S
C544 C536 1.574 . S
C544 H539 0.949 . S
C544 C550 1.368 . S
C545 C529 1.349 . S
C545 H537 0.950 . S
C545 C543 1.327 . S
C546 C534 1.349 . S
C546 H540 0.950 . S
C546 C547 1.327 . S
C547 H541 0.950 . S
C547 C546 1.327 . S
C547 C551 1.429 . S
C548 C531 1.574 . S
C548 H542 0.949 . S
C548 C552 1.368 . S
C549 C530 1.429 . S
C549 C543 1.429 . S
C549 C550 1.523 . S
C550 C531 1.368 . S
C550 C544 1.368 . S
C550 C549 1.523 . S
C551 C535 1.429 . S
C551 C547 1.429 . S
C551 C552 1.523 . S
C552 C536 1.368 . S
C552 C548 1.368 . S
C552 C551 1.523 . S
H553 C528 0.950 . S
H554 C530 0.950 . S
H555 C531 0.949 . S
H556 C533 0.950 . S
H557 C535 0.950 . S
C558 C559 1.349 . S
C558 C560 1.327 . S
C558 H583 0.950 . S
C559 C558 1.349 . S
C559 C575 1.349 . S
C560 C558 1.327 . S
C560 C579 1.429 . S
C560 H584 0.950 . S
C561 C578 1.574 . S
C561 C580 1.368 . S
C561 H585 0.949 . S
H562 C566 0.949 . S
C563 C564 1.349 . S
C563 C565 1.327 . S
C563 H586 0.950 . S
C564 C563 1.349 . S
C564 C576 1.349 . S
C565 C563 1.327 . S
C565 C581 1.429 . S
C565 H587 0.950 . S
C566 H562 0.949 . S
C566 C574 1.574 . S
C566 C582 1.368 . S
H567 C575 0.950 . S
H568 C573 0.950 . S
H569 C574 0.949 . S
H570 C576 0.950 1_565 S
H571 C577 0.943 1_565 S
H572 C578 0.949 . S
C573 H568 0.950 . S
C573 C575 1.327 . S
C573 C579 1.429 . S
C574 C566 1.574 . S
C574 H569 0.949 . S
C574 C580 1.368 . S
C575 C559 1.349 . S
C575 H567 0.950 . S
C575 C573 1.327 . S
C576 C564 1.349 . S
C576 H570 0.950 1_545 S
C576 C577 1.327 . S
C577 H571 0.943 1_545 S
C577 C576 1.327 . S
C577 C581 1.429 . S
C578 C561 1.574 . S
C578 H572 0.949 . S
C578 C582 1.368 . S
C579 C560 1.429 . S
C579 C573 1.429 . S
C579 C580 1.523 . S
C580 C561 1.368 . S
C580 C574 1.368 . S
C580 C579 1.523 . S
C581 C565 1.429 . S
C581 C577 1.429 . S
C581 C582 1.523 . S
C582 C566 1.368 . S
C582 C578 1.368 . S
C582 C581 1.523 . S
H583 C558 0.950 . S
H584 C560 0.950 . S
H585 C561 0.949 . S
H586 C563 0.950 . S
H587 C565 0.950 . S
C588 C589 1.349 . S
C588 C590 1.327 . S
C588 H613 0.950 . S
C589 C588 1.349 . S
C589 C605 1.349 . S
C590 C588 1.327 . S
C590 C609 1.429 . S
C590 H614 0.950 . S
C591 C608 1.574 . S
C591 C610 1.368 . S
C591 H615 0.949 . S
H592 C596 0.949 . S
C593 C594 1.349 . S
C593 C595 1.327 . S
C593 H616 0.950 . S
C594 C593 1.349 . S
C594 C606 1.349 . S
C595 C593 1.327 . S
C595 C611 1.429 . S
C595 H617 0.950 . S
C596 H592 0.949 . S
C596 C604 1.574 . S
C596 C612 1.368 . S
H597 C605 0.950 . S
H598 C603 0.950 . S
H599 C604 0.949 . S
H600 C606 0.950 . S
H601 C607 0.950 . S
H602 C608 0.949 . S
C603 H598 0.950 . S
C603 C605 1.327 . S
C603 C609 1.429 . S
C604 C596 1.574 . S
C604 H599 0.949 . S
C604 C610 1.368 . S
C605 C589 1.349 . S
C605 H597 0.950 . S
C605 C603 1.327 . S
C606 C594 1.349 . S
C606 H600 0.950 . S
C606 C607 1.327 . S
C607 H601 0.950 . S
C607 C606 1.327 . S
C607 C611 1.429 . S
C608 C591 1.574 . S
C608 H602 0.949 . S
C608 C612 1.368 . S
C609 C590 1.429 . S
C609 C603 1.429 . S
C609 C610 1.523 . S
C610 C591 1.368 . S
C610 C604 1.368 . S
C610 C609 1.523 . S
C611 C595 1.429 . S
C611 C607 1.429 . S
C611 C612 1.523 . S
C612 C596 1.368 . S
C612 C608 1.368 . S
C612 C611 1.523 . S
H613 C588 0.950 . S
H614 C590 0.950 . S
H615 C591 0.949 . S
H616 C593 0.950 . S
H617 C595 0.950 . S
C618 C619 1.349 . S
C618 C620 1.327 . S
C618 H643 0.950 . S
C619 C618 1.349 . S
C619 C635 1.349 . S
C620 C618 1.327 . S
C620 C639 1.429 . S
C620 H644 0.950 . S
C621 C638 1.574 . S
C621 C640 1.368 . S
C621 H645 0.949 . S
H622 C626 0.949 . S
C623 C624 1.349 . S
C623 C625 1.327 . S
C623 H646 0.950 . S
C624 C623 1.349 . S
C624 C636 1.349 . S
C625 C623 1.327 . S
C625 C641 1.429 . S
C625 H647 0.950 . S
C626 H622 0.949 . S
C626 C634 1.574 . S
C626 C642 1.368 . S
H627 C635 0.950 . S
H628 C633 0.950 . S
H629 C634 0.949 . S
H630 C636 0.950 . S
H631 C637 0.950 . S
H632 C638 0.949 . S
C633 H628 0.950 . S
C633 C635 1.327 . S
C633 C639 1.429 . S
C634 C626 1.574 . S
C634 H629 0.949 . S
C634 C640 1.368 . S
C635 C619 1.349 . S
C635 H627 0.950 . S
C635 C633 1.327 . S
C636 C624 1.349 . S
C636 H630 0.950 . S
C636 C637 1.327 . S
C637 H631 0.950 . S
C637 C636 1.327 . S
C637 C641 1.429 . S
C638 C621 1.574 . S
C638 H632 0.949 . S
C638 C642 1.368 . S
C639 C620 1.429 . S
C639 C633 1.429 . S
C639 C640 1.523 . S
C640 C621 1.368 . S
C640 C634 1.368 . S
C640 C639 1.523 . S
C641 C625 1.429 . S
C641 C637 1.429 . S
C641 C642 1.523 . S
C642 C626 1.368 . S
C642 C638 1.368 . S
C642 C641 1.523 . S
H643 C618 0.950 . S
H644 C620 0.950 . S
H645 C621 0.949 . S
H646 C623 0.950 . S
H647 C625 0.950 . S
C648 C649 1.349 . S
C648 C650 1.327 . S
C648 H673 0.950 . S
C649 C648 1.349 . S
C649 C665 1.349 . S
C650 C648 1.327 . S
C650 C669 1.429 . S
C650 H674 0.950 . S
C651 C668 1.574 1_556 S
C651 C670 1.368 . S
C651 H675 0.949 . S
H652 C656 0.949 . S
C653 C654 1.349 . S
C653 C655 1.327 . S
C653 H676 0.950 . S
C654 C653 1.349 . S
C654 C666 1.349 . S
C655 C653 1.327 . S
C655 C671 1.429 . S
C655 H677 0.950 . S
C656 H652 0.949 . S
C656 C664 1.574 1_554 S
C656 C672 1.368 . S
H657 C665 0.950 . S
H658 C663 0.950 . S
H659 C664 0.949 . S
H660 C666 0.950 . S
H661 C667 0.950 . S
H662 C668 0.949 . S
C663 H658 0.950 . S
C663 C665 1.327 . S
C663 C669 1.429 . S
C664 C656 1.574 1_556 S
C664 H659 0.949 . S
C664 C670 1.368 . S
C665 C649 1.349 . S
C665 H657 0.950 . S
C665 C663 1.327 . S
C666 C654 1.349 . S
C666 H660 0.950 . S
C666 C667 1.327 . S
C667 H661 0.950 . S
C667 C666 1.327 . S
C667 C671 1.429 . S
C668 C651 1.574 1_554 S
C668 H662 0.949 . S
C668 C672 1.368 . S
C669 C650 1.429 . S
C669 C663 1.429 . S
C669 C670 1.523 . S
C670 C651 1.368 . S
C670 C664 1.368 . S
C670 C669 1.523 . S
C671 C655 1.429 . S
C671 C667 1.429 . S
C671 C672 1.523 . S
C672 C656 1.368 . S
C672 C668 1.368 . S
C672 C671 1.523 . S
H673 C648 0.950 . S
H674 C650 0.950 . S
H675 C651 0.949 . S
H676 C653 0.950 . S
H677 C655 0.950 . S
C678 C679 1.349 . S
C678 C680 1.327 . S
C678 H703 0.950 . S
C679 C678 1.349 . S
C679 C695 1.349 . S
C680 C678 1.327 . S
C680 C699 1.429 . S
C680 H704 0.950 . S
C681 C698 1.574 1_556 S
C681 C700 1.368 . S
C681 H705 0.949 . S
H682 C686 0.949 . S
C683 C684 1.349 . S
C683 C685 1.327 . S
C683 H706 0.950 . S
C684 C683 1.349 . S
C684 C696 1.349 . S
C685 C683 1.327 . S
C685 C701 1.429 . S
C685 H707 0.950 . S
C686 H682 0.949 . S
C686 C694 1.574 1_554 S
C686 C702 1.368 . S
H687 C695 0.950 . S
H688 C693 0.950 . S
H689 C694 0.949 . S
H690 C696 0.950 . S
H691 C697 0.950 . S
H692 C698 0.949 . S
C693 H688 0.950 . S
C693 C695 1.327 . S
C693 C699 1.429 . S
C694 C686 1.574 1_556 S
C694 H689 0.949 . S
C694 C700 1.368 . S
C695 C679 1.349 . S
C695 H687 0.950 . S
C695 C693 1.327 . S
C696 C684 1.349 . S
C696 H690 0.950 . S
C696 C697 1.327 . S
C697 H691 0.950 . S
C697 C696 1.327 . S
C697 C701 1.429 . S
C698 C681 1.574 1_554 S
C698 H692 0.949 . S
C698 C702 1.368 . S
C699 C680 1.429 . S
C699 C693 1.429 . S
C699 C700 1.523 . S
C700 C681 1.368 . S
C700 C694 1.368 . S
C700 C699 1.523 . S
C701 C685 1.429 . S
C701 C697 1.429 . S
C701 C702 1.523 . S
C702 C686 1.368 . S
C702 C698 1.368 . S
C702 C701 1.523 . S
H703 C678 0.950 . S
H704 C680 0.950 . S
H705 C681 0.949 . S
H706 C683 0.950 . S
H707 C685 0.950 . S
C708 C709 1.349 . S
C708 C710 1.327 . S
C708 H733 0.950 . S
C709 C708 1.349 . S
C709 C725 1.349 . S
C710 C708 1.327 . S
C710 C729 1.429 . S
C710 H734 0.950 . S
C711 C728 1.574 1_556 S
C711 C730 1.368 . S
C711 H735 0.949 . S
H712 C716 0.949 . S
C713 C714 1.349 . S
C713 C715 1.327 . S
C713 H736 0.950 . S
C714 C713 1.349 . S
C714 C726 1.349 . S
C715 C713 1.327 . S
C715 C731 1.429 . S
C715 H737 0.950 . S
C716 H712 0.949 . S
C716 C724 1.574 1_554 S
C716 C732 1.368 . S
H717 C725 0.950 . S
H718 C723 0.950 . S
H719 C724 0.949 . S
H720 C726 0.950 . S
H721 C727 0.950 . S
H722 C728 0.949 . S
C723 H718 0.950 . S
C723 C725 1.327 . S
C723 C729 1.429 . S
C724 C716 1.574 1_556 S
C724 H719 0.949 . S
C724 C730 1.368 . S
C725 C709 1.349 . S
C725 H717 0.950 . S
C725 C723 1.327 . S
C726 C714 1.349 . S
C726 H720 0.950 . S
C726 C727 1.327 . S
C727 H721 0.950 . S
C727 C726 1.327 . S
C727 C731 1.429 . S
C728 C711 1.574 1_554 S
C728 H722 0.949 . S
C728 C732 1.368 . S
C729 C710 1.429 . S
C729 C723 1.429 . S
C729 C730 1.523 . S
C730 C711 1.368 . S
C730 C724 1.368 . S
C730 C729 1.523 . S
C731 C715 1.429 . S
C731 C727 1.429 . S
C731 C732 1.523 . S
C732 C716 1.368 . S
C732 C728 1.368 . S
C732 C731 1.523 . S
H733 C708 0.950 . S
H734 C710 0.950 . S
H735 C711 0.949 . S
H736 C713 0.950 . S
H737 C715 0.950 . S
C738 C739 1.349 . S
C738 C740 1.327 . S
C738 H763 0.950 . S
C739 C738 1.349 . S
C739 C755 1.349 . S
C740 C738 1.327 . S
C740 C759 1.429 . S
C740 H764 0.950 . S
C741 C758 1.574 1_554 S
C741 C760 1.368 . S
C741 H765 0.949 . S
H742 C746 0.949 . S
C743 C744 1.349 . S
C743 C745 1.327 . S
C743 H766 0.950 . S
C744 C743 1.349 . S
C744 C756 1.349 . S
C745 C743 1.327 . S
C745 C761 1.429 . S
C745 H767 0.950 . S
C746 H742 0.949 . S
C746 C754 1.574 1_556 S
C746 C762 1.368 . S
H747 C755 0.950 . S
H748 C753 0.950 . S
H749 C754 0.949 . S
H750 C756 0.950 . S
H751 C757 0.950 . S
H752 C758 0.949 . S
C753 H748 0.950 . S
C753 C755 1.327 . S
C753 C759 1.429 . S
C754 C746 1.574 1_554 S
C754 H749 0.949 . S
C754 C760 1.368 . S
C755 C739 1.349 . S
C755 H747 0.950 . S
C755 C753 1.327 . S
C756 C744 1.349 . S
C756 H750 0.950 . S
C756 C757 1.327 . S
C757 H751 0.950 . S
C757 C756 1.327 . S
C757 C761 1.429 . S
C758 C741 1.574 1_556 S
C758 H752 0.949 . S
C758 C762 1.368 . S
C759 C740 1.429 . S
C759 C753 1.429 . S
C759 C760 1.523 . S
C760 C741 1.368 . S
C760 C754 1.368 . S
C760 C759 1.523 . S
C761 C745 1.429 . S
C761 C757 1.429 . S
C761 C762 1.523 . S
C762 C746 1.368 . S
C762 C758 1.368 . S
C762 C761 1.523 . S
H763 C738 0.950 . S
H764 C740 0.950 . S
H765 C741 0.949 . S
H766 C743 0.950 . S
H767 C745 0.950 . S
C768 C769 1.349 . S
C768 C770 1.327 . S
C768 H793 0.950 . S
C769 C768 1.349 . S
C769 C785 1.349 . S
C770 C768 1.327 . S
C770 C789 1.429 . S
C770 H794 0.950 . S
C771 C788 1.574 . S
C771 C790 1.368 . S
C771 H795 0.949 . S
H772 C776 0.949 . S
C773 C774 1.349 . S
C773 C775 1.327 . S
C773 H796 0.950 . S
C774 C773 1.349 . S
C774 C786 1.349 . S
C775 C773 1.327 . S
C775 C791 1.429 . S
C775 H797 0.950 . S
C776 H772 0.949 . S
C776 C784 1.574 . S
C776 C792 1.368 . S
H777 C785 0.950 . S
H778 C783 0.950 . S
H779 C784 0.949 . S
H780 C786 0.950 . S
H781 C787 0.950 . S
H782 C788 0.949 . S
C783 H778 0.950 . S
C783 C785 1.327 . S
C783 C789 1.429 . S
C784 C776 1.574 . S
C784 H779 0.949 . S
C784 C790 1.368 . S
C785 C769 1.349 . S
C785 H777 0.950 . S
C785 C783 1.327 . S
C786 C774 1.349 . S
C786 H780 0.950 . S
C786 C787 1.327 . S
C787 H781 0.950 . S
C787 C786 1.327 . S
C787 C791 1.429 . S
C788 C771 1.574 . S
C788 H782 0.949 . S
C788 C792 1.368 . S
C789 C770 1.429 . S
C789 C783 1.429 . S
C789 C790 1.523 . S
C790 C771 1.368 . S
C790 C784 1.368 . S
C790 C789 1.523 . S
C791 C775 1.429 . S
C791 C787 1.429 . S
C791 C792 1.523 . S
C792 C776 1.368 . S
C792 C788 1.368 . S
C792 C791 1.523 . S
H793 C768 0.950 . S
H794 C770 0.950 . S
H795 C771 0.949 . S
H796 C773 0.950 . S
H797 C775 0.950 . S
C798 C799 1.349 . S
C798 C800 1.327 . S
C798 H823 0.950 . S
C799 C798 1.349 . S
C799 C815 1.349 . S
C800 C798 1.327 . S
C800 C819 1.429 . S
C800 H824 0.950 . S
C801 C818 1.574 . S
C801 C820 1.368 . S
C801 H825 0.949 . S
H802 C806 0.949 . S
C803 C804 1.349 . S
C803 C805 1.327 . S
C803 H826 0.950 . S
C804 C803 1.349 . S
C804 C816 1.349 . S
C805 C803 1.327 . S
C805 C821 1.429 . S
C805 H827 0.950 . S
C806 H802 0.949 . S
C806 C814 1.574 . S
C806 C822 1.368 . S
H807 C815 0.950 . S
H808 C813 0.950 . S
H809 C814 0.949 . S
H810 C816 0.950 . S
H811 C817 0.950 . S
H812 C818 0.949 . S
C813 H808 0.950 . S
C813 C815 1.327 . S
C813 C819 1.429 . S
C814 C806 1.574 . S
C814 H809 0.949 . S
C814 C820 1.368 . S
C815 C799 1.349 . S
C815 H807 0.950 . S
C815 C813 1.327 . S
C816 C804 1.349 . S
C816 H810 0.950 . S
C816 C817 1.327 . S
C817 H811 0.950 . S
C817 C816 1.327 . S
C817 C821 1.429 . S
C818 C801 1.574 . S
C818 H812 0.949 . S
C818 C822 1.368 . S
C819 C800 1.429 . S
C819 C813 1.429 . S
C819 C820 1.523 . S
C820 C801 1.368 . S
C820 C814 1.368 . S
C820 C819 1.523 . S
C821 C805 1.429 . S
C821 C817 1.429 . S
C821 C822 1.523 . S
C822 C806 1.368 . S
C822 C818 1.368 . S
C822 C821 1.523 . S
H823 C798 0.950 . S
H824 C800 0.950 . S
H825 C801 0.949 . S
H826 C803 0.950 . S
H827 C805 0.950 . S
C828 C829 1.349 . S
C828 C830 1.327 . S
C828 H853 0.950 . S
C829 C828 1.349 . S
C829 C845 1.349 . S
C830 C828 1.327 . S
C830 C849 1.429 . S
C830 H854 0.950 . S
C831 C848 1.574 . S
C831 C850 1.368 . S
C831 H855 0.949 . S
H832 C836 0.949 . S
C833 C834 1.349 1_655 S
C833 C835 1.327 . S
C833 H856 0.950 . S
C834 C833 1.349 1_455 S
C834 C846 1.349 . S
C835 C833 1.327 . S
C835 C851 1.429 . S
C835 H857 0.950 . S
C836 H832 0.949 . S
C836 C844 1.574 . S
C836 C852 1.368 . S
H837 C845 0.950 . S
H838 C843 0.950 . S
H839 C844 0.949 . S
H840 C846 0.950 . S
H841 C847 0.950 . S
H842 C848 0.949 . S
C843 H838 0.950 . S
C843 C845 1.327 . S
C843 C849 1.429 . S
C844 C836 1.574 . S
C844 H839 0.949 . S
C844 C850 1.368 . S
C845 C829 1.349 . S
C845 H837 0.950 . S
C845 C843 1.327 . S
C846 C834 1.349 . S
C846 H840 0.950 . S
C846 C847 1.327 1_455 S
C847 H841 0.950 . S
C847 C846 1.327 1_655 S
C847 C851 1.429 . S
C848 C831 1.574 . S
C848 H842 0.949 . S
C848 C852 1.368 . S
C849 C830 1.429 . S
C849 C843 1.429 . S
C849 C850 1.523 . S
C850 C831 1.368 . S
C850 C844 1.368 . S
C850 C849 1.523 . S
C851 C835 1.429 . S
C851 C847 1.429 . S
C851 C852 1.523 . S
C852 C836 1.368 . S
C852 C848 1.368 . S
C852 C851 1.523 . S
H853 C828 0.950 . S
H854 C830 0.950 . S
H855 C831 0.949 . S
H856 C833 0.950 . S
H857 C835 0.950 . S
C858 C859 1.349 1_565 S
C858 C860 1.327 . S
C858 H883 0.950 . S
C859 C858 1.349 1_545 S
C859 C875 1.349 . S
C860 C858 1.327 . S
C860 C879 1.429 . S
C860 H884 0.950 . S
C861 C878 1.574 . S
C861 C880 1.368 . S
C861 H885 0.949 . S
H862 C866 0.949 . S
C863 C864 1.349 . S
C863 C865 1.327 . S
C863 H886 0.950 . S
C864 C863 1.349 . S
C864 C876 1.349 . S
C865 C863 1.327 . S
C865 C881 1.429 . S
C865 H887 0.950 . S
C866 H862 0.949 . S
C866 C874 1.574 . S
C866 C882 1.368 . S
H867 C875 0.950 . S
H868 C873 0.950 . S
H869 C874 0.949 . S
H870 C876 0.950 . S
H871 C877 0.950 . S
H872 C878 0.949 . S
C873 H868 0.950 . S
C873 C875 1.327 1_565 S
C873 C879 1.429 . S
C874 C866 1.574 . S
C874 H869 0.949 . S
C874 C880 1.368 . S
C875 C859 1.349 . S
C875 H867 0.950 . S
C875 C873 1.327 1_545 S
C876 C864 1.349 . S
C876 H870 0.950 . S
C876 C877 1.327 . S
C877 H871 0.950 . S
C877 C876 1.327 . S
C877 C881 1.429 . S
C878 C861 1.574 . S
C878 H872 0.949 . S
C878 C882 1.368 . S
C879 C860 1.429 . S
C879 C873 1.429 . S
C879 C880 1.523 . S
C880 C861 1.368 . S
C880 C874 1.368 . S
C880 C879 1.523 . S
C881 C865 1.429 . S
C881 C877 1.429 . S
C881 C882 1.523 . S
C882 C866 1.368 . S
C882 C878 1.368 . S
C882 C881 1.523 . S
H883 C858 0.950 . S
H884 C860 0.950 . S
H885 C861 0.949 . S
H886 C863 0.950 . S
H887 C865 0.950 . S
C888 C889 1.349 . S
C888 C890 1.327 . S
C888 H913 0.950 . S
C889 C888 1.349 . S
C889 C905 1.349 . S
C890 C888 1.327 . S
C890 C909 1.429 . S
C890 H914 0.950 . S
C891 C908 1.574 . S
C891 C910 1.368 . S
C891 H915 0.949 . S
H892 C896 0.949 . S
C893 C894 1.349 . S
C893 C895 1.327 . S
C893 H916 0.950 . S
C894 C893 1.349 . S
C894 C906 1.349 . S
C895 C893 1.327 . S
C895 C911 1.429 . S
C895 H917 0.950 . S
C896 H892 0.949 . S
C896 C904 1.574 . S
C896 C912 1.368 . S
H897 C905 0.950 . S
H898 C903 0.950 . S
H899 C904 0.949 . S
H900 C906 0.950 . S
H901 C907 0.950 . S
H902 C908 0.949 . S
C903 H898 0.950 . S
C903 C905 1.327 . S
C903 C909 1.429 . S
C904 C896 1.574 . S
C904 H899 0.949 . S
C904 C910 1.368 . S
C905 C889 1.349 . S
C905 H897 0.950 . S
C905 C903 1.327 . S
C906 C894 1.349 . S
C906 H900 0.950 . S
C906 C907 1.327 . S
C907 H901 0.950 . S
C907 C906 1.327 . S
C907 C911 1.429 . S
C908 C891 1.574 . S
C908 H902 0.949 . S
C908 C912 1.368 . S
C909 C890 1.429 . S
C909 C903 1.429 . S
C909 C910 1.523 . S
C910 C891 1.368 . S
C910 C904 1.368 . S
C910 C909 1.523 . S
C911 C895 1.429 . S
C911 C907 1.429 . S
C911 C912 1.523 . S
C912 C896 1.368 . S
C912 C908 1.368 . S
C912 C911 1.523 . S
H913 C888 0.950 . S
H914 C890 0.950 . S
H915 C891 0.949 . S
H916 C893 0.950 . S
H917 C895 0.950 . S
C918 C919 1.349 . S
C918 C920 1.327 . S
C918 H943 0.950 . S
C919 C918 1.349 . S
C919 C935 1.349 . S
C920 C918 1.327 . S
C920 C939 1.429 . S
C920 H944 0.950 . S
C921 C938 1.574 . S
C921 C940 1.368 . S
C921 H945 0.949 . S
H922 C926 0.949 . S
C923 C924 1.349 . S
C923 C925 1.327 . S
C923 H946 0.950 . S
C924 C923 1.349 . S
C924 C936 1.349 . S
C925 C923 1.327 . S
C925 C941 1.429 . S
C925 H947 0.950 . S
C926 H922 0.949 . S
C926 C934 1.574 . S
C926 C942 1.368 . S
H927 C935 0.950 . S
H928 C933 0.950 . S
H929 C934 0.949 . S
H930 C936 0.950 . S
H931 C937 0.950 . S
H932 C938 0.949 . S
C933 H928 0.950 . S
C933 C935 1.327 . S
C933 C939 1.429 . S
C934 C926 1.574 . S
C934 H929 0.949 . S
C934 C940 1.368 . S
C935 C919 1.349 . S
C935 H927 0.950 . S
C935 C933 1.327 . S
C936 C924 1.349 . S
C936 H930 0.950 . S
C936 C937 1.327 . S
C937 H931 0.950 . S
C937 C936 1.327 . S
C937 C941 1.429 . S
C938 C921 1.574 . S
C938 H932 0.949 . S
C938 C942 1.368 . S
C939 C920 1.429 . S
C939 C933 1.429 . S
C939 C940 1.523 . S
C940 C921 1.368 . S
C940 C934 1.368 . S
C940 C939 1.523 . S
C941 C925 1.429 . S
C941 C937 1.429 . S
C941 C942 1.523 . S
C942 C926 1.368 . S
C942 C938 1.368 . S
C942 C941 1.523 . S
H943 C918 0.950 . S
H944 C920 0.950 . S
H945 C921 0.949 . S
H946 C923 0.950 . S
H947 C925 0.950 . S
C948 C949 1.349 . S
C948 C950 1.327 . S
C948 H973 0.950 . S
C949 C948 1.349 . S
C949 C965 1.349 . S
C950 C948 1.327 . S
C950 C969 1.429 . S
C950 H974 0.950 . S
C951 C968 1.574 . S
C951 C970 1.368 . S
C951 H975 0.949 . S
H952 C956 0.949 . S
C953 C954 1.349 1_655 S
C953 C955 1.327 . S
C953 H976 0.950 . S
C954 C953 1.349 1_455 S
C954 C966 1.349 . S
C955 C953 1.327 . S
C955 C971 1.429 . S
C955 H977 0.950 . S
C956 H952 0.949 . S
C956 C964 1.574 . S
C956 C972 1.368 . S
H957 C965 0.950 . S
H958 C963 0.950 . S
H959 C964 0.949 . S
H960 C966 0.950 . S
H961 C967 0.950 . S
H962 C968 0.949 . S
C963 H958 0.950 . S
C963 C965 1.327 . S
C963 C969 1.429 . S
C964 C956 1.574 . S
C964 H959 0.949 . S
C964 C970 1.368 . S
C965 C949 1.349 . S
C965 H957 0.950 . S
C965 C963 1.327 . S
C966 C954 1.349 . S
C966 H960 0.950 . S
C966 C967 1.327 1_455 S
C967 H961 0.950 . S
C967 C966 1.327 1_655 S
C967 C971 1.429 . S
C968 C951 1.574 . S
C968 H962 0.949 . S
C968 C972 1.368 . S
C969 C950 1.429 . S
C969 C963 1.429 . S
C969 C970 1.523 . S
C970 C951 1.368 . S
C970 C964 1.368 . S
C970 C969 1.523 . S
C971 C955 1.429 . S
C971 C967 1.429 . S
C971 C972 1.523 . S
C972 C956 1.368 . S
C972 C968 1.368 . S
C972 C971 1.523 . S
H973 C948 0.950 . S
H974 C950 0.950 . S
H975 C951 0.949 . S
H976 C953 0.950 . S
H977 C955 0.950 . S
C978 C979 1.349 . S
C978 C980 1.327 . S
C978 H1003 0.950 . S
C979 C978 1.349 . S
C979 C995 1.349 . S
C980 C978 1.327 . S
C980 C999 1.429 . S
C980 H1004 0.950 . S
C981 C998 1.574 . S
C981 C1000 1.368 . S
C981 H1005 0.949 . S
H982 C986 0.949 . S
C983 C984 1.349 . S
C983 C985 1.327 1_545 S
C983 H1006 0.950 . S
C984 C983 1.349 . S
C984 C996 1.349 1_545 S
C985 C983 1.327 1_565 S
C985 C1001 1.429 . S
C985 H1007 0.950 . S
C986 H982 0.949 . S
C986 C994 1.574 . S
C986 C1002 1.368 . S
H987 C995 0.950 . S
H988 C993 0.950 . S
H989 C994 0.949 . S
H990 C996 0.950 . S
H991 C997 0.950 . S
H992 C998 0.949 . S
C993 H988 0.950 . S
C993 C995 1.327 . S
C993 C999 1.429 . S
C994 C986 1.574 . S
C994 H989 0.949 . S
C994 C1000 1.368 . S
C995 C979 1.349 . S
C995 H987 0.950 . S
C995 C993 1.327 . S
C996 C984 1.349 1_565 S
C996 H990 0.950 . S
C996 C997 1.327 . S
C997 H991 0.950 . S
C997 C996 1.327 . S
C997 C1001 1.429 . S
C998 C981 1.574 . S
C998 H992 0.949 . S
C998 C1002 1.368 . S
C999 C980 1.429 . S
C999 C993 1.429 . S
C999 C1000 1.523 . S
C1000 C981 1.368 . S
C1000 C994 1.368 . S
C1000 C999 1.523 . S
C1001 C985 1.429 . S
C1001 C997 1.429 . S
C1001 C1002 1.523 . S
C1002 C986 1.368 . S
C1002 C998 1.368 . S
C1002 C1001 1.523 . S
H1003 C978 0.950 . S
H1004 C980 0.950 . S
H1005 C981 0.949 . S
H1006 C983 0.950 . S
H1007 C985 0.950 . S
C1008 C1009 1.349 . S
C1008 C1010 1.327 . S
C1008 H1033 0.950 . S
C1009 C1008 1.349 . S
C1009 C1025 1.349 . S
C1010 C1008 1.327 . S
C1010 C1029 1.429 . S
C1010 H1034 0.950 . S
C1011 C1028 1.574 . S
C1011 C1030 1.368 . S
C1011 H1035 0.949 . S
H1012 C1016 0.949 . S
C1013 C1014 1.349 . S
C1013 C1015 1.327 . S
C1013 H1036 0.950 . S
C1014 C1013 1.349 . S
C1014 C1026 1.349 . S
C1015 C1013 1.327 . S
C1015 C1031 1.429 . S
C1015 H1037 0.950 . S
C1016 H1012 0.949 . S
C1016 C1024 1.574 . S
C1016 C1032 1.368 . S
H1017 C1025 0.950 . S
H1018 C1023 0.950 . S
H1019 C1024 0.949 . S
H1020 C1026 0.950 . S
H1021 C1027 0.950 . S
H1022 C1028 0.949 . S
C1023 H1018 0.950 . S
C1023 C1025 1.327 . S
C1023 C1029 1.429 . S
C1024 C1016 1.574 . S
C1024 H1019 0.949 . S
C1024 C1030 1.368 . S
C1025 C1009 1.349 . S
C1025 H1017 0.950 . S
C1025 C1023 1.327 . S
C1026 C1014 1.349 . S
C1026 H1020 0.950 . S
C1026 C1027 1.327 . S
C1027 H1021 0.950 . S
C1027 C1026 1.327 . S
C1027 C1031 1.429 . S
C1028 C1011 1.574 . S
C1028 H1022 0.949 . S
C1028 C1032 1.368 . S
C1029 C1010 1.429 . S
C1029 C1023 1.429 . S
C1029 C1030 1.523 . S
C1030 C1011 1.368 . S
C1030 C1024 1.368 . S
C1030 C1029 1.523 . S
C1031 C1015 1.429 . S
C1031 C1027 1.429 . S
C1031 C1032 1.523 . S
C1032 C1016 1.368 . S
C1032 C1028 1.368 . S
C1032 C1031 1.523 . S
H1033 C1008 0.950 . S
H1034 C1010 0.950 . S
H1035 C1011 0.949 . S
H1036 C1013 0.950 . S
H1037 C1015 0.950 . S
C1038 C1039 1.349 . S
C1038 C1040 1.327 . S
C1038 H1063 0.950 . S
C1039 C1038 1.349 . S
C1039 C1055 1.349 . S
C1040 C1038 1.327 . S
C1040 C1059 1.429 . S
C1040 H1064 0.950 . S
C1041 C1058 1.574 . S
C1041 C1060 1.368 . S
C1041 H1065 0.949 . S
H1042 C1046 0.949 . S
C1043 C1044 1.349 . S
C1043 C1045 1.327 . S
C1043 H1066 0.950 . S
C1044 C1043 1.349 . S
C1044 C1056 1.349 . S
C1045 C1043 1.327 . S
C1045 C1061 1.429 . S
C1045 H1067 0.950 . S
C1046 H1042 0.949 . S
C1046 C1054 1.574 . S
C1046 C1062 1.368 . S
H1047 C1055 0.950 . S
H1048 C1053 0.950 . S
H1049 C1054 0.949 . S
H1050 C1056 0.950 . S
H1051 C1057 0.950 . S
H1052 C1058 0.949 . S
C1053 H1048 0.950 . S
C1053 C1055 1.327 . S
C1053 C1059 1.429 . S
C1054 C1046 1.574 . S
C1054 H1049 0.949 . S
C1054 C1060 1.368 . S
C1055 C1039 1.349 . S
C1055 H1047 0.950 . S
C1055 C1053 1.327 . S
C1056 C1044 1.349 . S
C1056 H1050 0.950 . S
C1056 C1057 1.327 . S
C1057 H1051 0.950 . S
C1057 C1056 1.327 . S
C1057 C1061 1.429 . S
C1058 C1041 1.574 . S
C1058 H1052 0.949 . S
C1058 C1062 1.368 . S
C1059 C1040 1.429 . S
C1059 C1053 1.429 . S
C1059 C1060 1.523 . S
C1060 C1041 1.368 . S
C1060 C1054 1.368 . S
C1060 C1059 1.523 . S
C1061 C1045 1.429 . S
C1061 C1057 1.429 . S
C1061 C1062 1.523 . S
C1062 C1046 1.368 . S
C1062 C1058 1.368 . S
C1062 C1061 1.523 . S
H1063 C1038 0.950 . S
H1064 C1040 0.950 . S
H1065 C1041 0.949 . S
H1066 C1043 0.950 . S
H1067 C1045 0.950 . S
C1068 C1069 1.349 . S
C1068 C1070 1.327 . S
C1068 H1093 0.950 . S
C1069 C1068 1.349 . S
C1069 C1085 1.349 . S
C1070 C1068 1.327 . S
C1070 C1089 1.429 . S
C1070 H1094 0.950 . S
C1071 C1088 1.574 . S
C1071 C1090 1.368 . S
C1071 H1095 0.949 . S
H1072 C1076 0.949 . S
C1073 C1074 1.349 . S
C1073 C1075 1.327 . S
C1073 H1096 0.950 . S
C1074 C1073 1.349 . S
C1074 C1086 1.349 . S
C1075 C1073 1.327 . S
C1075 C1091 1.429 . S
C1075 H1097 0.950 . S
C1076 H1072 0.949 . S
C1076 C1084 1.574 . S
C1076 C1092 1.368 . S
H1077 C1085 0.950 . S
H1078 C1083 0.950 . S
H1079 C1084 0.949 . S
H1080 C1086 0.950 . S
H1081 C1087 0.950 . S
H1082 C1088 0.949 . S
C1083 H1078 0.950 . S
C1083 C1085 1.327 . S
C1083 C1089 1.429 . S
C1084 C1076 1.574 . S
C1084 H1079 0.949 . S
C1084 C1090 1.368 . S
C1085 C1069 1.349 . S
C1085 H1077 0.950 . S
C1085 C1083 1.327 . S
C1086 C1074 1.349 . S
C1086 H1080 0.950 . S
C1086 C1087 1.327 . S
C1087 H1081 0.950 . S
C1087 C1086 1.327 . S
C1087 C1091 1.429 . S
C1088 C1071 1.574 . S
C1088 H1082 0.949 . S
C1088 C1092 1.368 . S
C1089 C1070 1.429 . S
C1089 C1083 1.429 . S
C1089 C1090 1.523 . S
C1090 C1071 1.368 . S
C1090 C1084 1.368 . S
C1090 C1089 1.523 . S
C1091 C1075 1.429 . S
C1091 C1087 1.429 . S
C1091 C1092 1.523 . S
C1092 C1076 1.368 . S
C1092 C1088 1.368 . S
C1092 C1091 1.523 . S
H1093 C1068 0.950 . S
H1094 C1070 0.950 . S
H1095 C1071 0.949 . S
H1096 C1073 0.950 . S
H1097 C1075 0.950 . S
C1098 C1099 1.349 . S
C1098 C1100 1.327 . S
C1098 H1123 0.950 . S
C1099 C1098 1.349 . S
C1099 C1115 1.349 . S
C1100 C1098 1.327 . S
C1100 C1119 1.429 . S
C1100 H1124 0.950 . S
C1101 C1118 1.574 . S
C1101 C1120 1.368 . S
C1101 H1125 0.949 . S
H1102 C1106 0.949 . S
C1103 C1104 1.349 . S
C1103 C1105 1.327 . S
C1103 H1126 0.950 . S
C1104 C1103 1.349 . S
C1104 C1116 1.349 . S
C1105 C1103 1.327 . S
C1105 C1121 1.429 . S
C1105 H1127 0.950 . S
C1106 H1102 0.949 . S
C1106 C1114 1.574 . S
C1106 C1122 1.368 . S
H1107 C1115 0.950 . S
H1108 C1113 0.950 . S
H1109 C1114 0.949 . S
H1110 C1116 0.950 . S
H1111 C1117 0.950 . S
H1112 C1118 0.949 . S
C1113 H1108 0.950 . S
C1113 C1115 1.327 . S
C1113 C1119 1.429 . S
C1114 C1106 1.574 . S
C1114 H1109 0.949 . S
C1114 C1120 1.368 . S
C1115 C1099 1.349 . S
C1115 H1107 0.950 . S
C1115 C1113 1.327 . S
C1116 C1104 1.349 . S
C1116 H1110 0.950 . S
C1116 C1117 1.327 . S
C1117 H1111 0.950 . S
C1117 C1116 1.327 . S
C1117 C1121 1.429 . S
C1118 C1101 1.574 . S
C1118 H1112 0.949 . S
C1118 C1122 1.368 . S
C1119 C1100 1.429 . S
C1119 C1113 1.429 . S
C1119 C1120 1.523 . S
C1120 C1101 1.368 . S
C1120 C1114 1.368 . S
C1120 C1119 1.523 . S
C1121 C1105 1.429 . S
C1121 C1117 1.429 . S
C1121 C1122 1.523 . S
C1122 C1106 1.368 . S
C1122 C1118 1.368 . S
C1122 C1121 1.523 . S
H1123 C1098 0.950 . S
H1124 C1100 0.950 . S
H1125 C1101 0.949 . S
H1126 C1103 0.950 . S
H1127 C1105 0.950 . S
C1128 C1129 1.349 . S
C1128 C1130 1.327 . S
C1128 H1153 0.950 . S
C1129 C1128 1.349 . S
C1129 C1145 1.349 . S
C1130 C1128 1.327 . S
C1130 C1149 1.429 . S
C1130 H1154 0.950 . S
C1131 C1148 1.574 . S
C1131 C1150 1.368 . S
C1131 H1155 0.949 . S
H1132 C1136 0.949 . S
C1133 C1134 1.349 . S
C1133 C1135 1.327 . S
C1133 H1156 0.950 . S
C1134 C1133 1.349 . S
C1134 C1146 1.349 . S
C1135 C1133 1.327 . S
C1135 C1151 1.429 . S
C1135 H1157 0.950 . S
C1136 H1132 0.949 . S
C1136 C1144 1.574 . S
C1136 C1152 1.368 . S
H1137 C1145 0.950 . S
H1138 C1143 0.950 . S
H1139 C1144 0.949 . S
H1140 C1146 0.950 . S
H1141 C1147 0.950 . S
H1142 C1148 0.949 . S
C1143 H1138 0.950 . S
C1143 C1145 1.327 . S
C1143 C1149 1.429 . S
C1144 C1136 1.574 . S
C1144 H1139 0.949 . S
C1144 C1150 1.368 . S
C1145 C1129 1.349 . S
C1145 H1137 0.950 . S
C1145 C1143 1.327 . S
C1146 C1134 1.349 . S
C1146 H1140 0.950 . S
C1146 C1147 1.327 . S
C1147 H1141 0.950 . S
C1147 C1146 1.327 . S
C1147 C1151 1.429 . S
C1148 C1131 1.574 . S
C1148 H1142 0.949 . S
C1148 C1152 1.368 . S
C1149 C1130 1.429 . S
C1149 C1143 1.429 . S
C1149 C1150 1.523 . S
C1150 C1131 1.368 . S
C1150 C1144 1.368 . S
C1150 C1149 1.523 . S
C1151 C1135 1.429 . S
C1151 C1147 1.429 . S
C1151 C1152 1.523 . S
C1152 C1136 1.368 . S
C1152 C1148 1.368 . S
C1152 C1151 1.523 . S
H1153 C1128 0.950 . S
H1154 C1130 0.950 . S
H1155 C1131 0.949 . S
H1156 C1133 0.950 . S
H1157 C1135 0.950 . S
C1158 C1159 1.349 . S
C1158 C1160 1.327 . S
C1158 H1183 0.950 . S
C1159 C1158 1.349 . S
C1159 C1175 1.349 . S
C1160 C1158 1.327 . S
C1160 C1179 1.429 . S
C1160 H1184 0.950 . S
C1161 C1178 1.574 . S
C1161 C1180 1.368 . S
C1161 H1185 0.949 . S
H1162 C1166 0.949 . S
C1163 C1164 1.349 . S
C1163 C1165 1.327 . S
C1163 H1186 0.950 . S
C1164 C1163 1.349 . S
C1164 C1176 1.349 . S
C1165 C1163 1.327 . S
C1165 C1181 1.429 . S
C1165 H1187 0.950 . S
C1166 H1162 0.949 . S
C1166 C1174 1.574 . S
C1166 C1182 1.368 . S
H1167 C1175 0.950 . S
H1168 C1173 0.950 . S
H1169 C1174 0.949 . S
H1170 C1176 0.950 . S
H1171 C1177 0.950 . S
H1172 C1178 0.949 . S
C1173 H1168 0.950 . S
C1173 C1175 1.327 . S
C1173 C1179 1.429 . S
C1174 C1166 1.574 . S
C1174 H1169 0.949 . S
C1174 C1180 1.368 . S
C1175 C1159 1.349 . S
C1175 H1167 0.950 . S
C1175 C1173 1.327 . S
C1176 C1164 1.349 . S
C1176 H1170 0.950 . S
C1176 C1177 1.327 . S
C1177 H1171 0.950 . S
C1177 C1176 1.327 . S
C1177 C1181 1.429 . S
C1178 C1161 1.574 . S
C1178 H1172 0.949 . S
C1178 C1182 1.368 . S
C1179 C1160 1.429 . S
C1179 C1173 1.429 . S
C1179 C1180 1.523 . S
C1180 C1161 1.368 . S
C1180 C1174 1.368 . S
C1180 C1179 1.523 . S
C1181 C1165 1.429 . S
C1181 C1177 1.429 . S
C1181 C1182 1.523 . S
C1182 C1166 1.368 . S
C1182 C1178 1.368 . S
C1182 C1181 1.523 . S
H1183 C1158 0.950 . S
H1184 C1160 0.950 . S
H1185 C1161 0.949 . S
H1186 C1163 0.950 . S
H1187 C1165 0.950 . S
C1188 C1189 1.349 . S
C1188 C1190 1.327 . S
C1188 H1213 0.950 . S
C1189 C1188 1.349 . S
C1189 C1205 1.349 . S
C1190 C1188 1.327 . S
C1190 C1209 1.429 . S
C1190 H1214 0.950 . S
C1191 C1208 1.574 . S
C1191 C1210 1.368 . S
C1191 H1215 0.949 . S
H1192 C1196 0.949 . S
C1193 C1194 1.349 . S
C1193 C1195 1.327 . S
C1193 H1216 0.950 . S
C1194 C1193 1.349 . S
C1194 C1206 1.349 . S
C1195 C1193 1.327 . S
C1195 C1211 1.429 . S
C1195 H1217 0.950 . S
C1196 H1192 0.949 . S
C1196 C1204 1.574 . S
C1196 C1212 1.368 . S
H1197 C1205 0.950 . S
H1198 C1203 0.950 . S
H1199 C1204 0.949 . S
H1200 C1206 0.950 . S
H1201 C1207 0.950 . S
H1202 C1208 0.949 . S
C1203 H1198 0.950 . S
C1203 C1205 1.327 . S
C1203 C1209 1.429 . S
C1204 C1196 1.574 . S
C1204 H1199 0.949 . S
C1204 C1210 1.368 . S
C1205 C1189 1.349 . S
C1205 H1197 0.950 . S
C1205 C1203 1.327 . S
C1206 C1194 1.349 . S
C1206 H1200 0.950 . S
C1206 C1207 1.327 . S
C1207 H1201 0.950 . S
C1207 C1206 1.327 . S
C1207 C1211 1.429 . S
C1208 C1191 1.574 . S
C1208 H1202 0.949 . S
C1208 C1212 1.368 . S
C1209 C1190 1.429 . S
C1209 C1203 1.429 . S
C1209 C1210 1.523 . S
C1210 C1191 1.368 . S
C1210 C1204 1.368 . S
C1210 C1209 1.523 . S
C1211 C1195 1.429 . S
C1211 C1207 1.429 . S
C1211 C1212 1.523 . S
C1212 C1196 1.368 . S
C1212 C1208 1.368 . S
C1212 C1211 1.523 . S
H1213 C1188 0.950 . S
H1214 C1190 0.950 . S
H1215 C1191 0.949 . S
H1216 C1193 0.950 . S
H1217 C1195 0.950 . S
C1218 C1219 1.349 . S
C1218 C1220 1.327 . S
C1218 H1243 0.950 . S
C1219 C1218 1.349 . S
C1219 C1235 1.349 . S
C1220 C1218 1.327 . S
C1220 C1239 1.429 . S
C1220 H1244 0.950 . S
C1221 C1238 1.574 . S
C1221 C1240 1.368 . S
C1221 H1245 0.949 . S
H1222 C1226 0.949 . S
C1223 C1224 1.349 . S
C1223 C1225 1.327 . S
C1223 H1246 0.950 . S
C1224 C1223 1.349 . S
C1224 C1236 1.349 . S
C1225 C1223 1.327 . S
C1225 C1241 1.429 . S
C1225 H1247 0.950 . S
C1226 H1222 0.949 . S
C1226 C1234 1.574 . S
C1226 C1242 1.368 . S
H1227 C1235 0.950 . S
H1228 C1233 0.950 . S
H1229 C1234 0.949 . S
H1230 C1236 0.950 . S
H1231 C1237 0.950 . S
H1232 C1238 0.949 . S
C1233 H1228 0.950 . S
C1233 C1235 1.327 . S
C1233 C1239 1.429 . S
C1234 C1226 1.574 . S
C1234 H1229 0.949 . S
C1234 C1240 1.368 . S
C1235 C1219 1.349 . S
C1235 H1227 0.950 . S
C1235 C1233 1.327 . S
C1236 C1224 1.349 . S
C1236 H1230 0.950 . S
C1236 C1237 1.327 . S
C1237 H1231 0.950 . S
C1237 C1236 1.327 . S
C1237 C1241 1.429 . S
C1238 C1221 1.574 . S
C1238 H1232 0.949 . S
C1238 C1242 1.368 . S
C1239 C1220 1.429 . S
C1239 C1233 1.429 . S
C1239 C1240 1.523 . S
C1240 C1221 1.368 . S
C1240 C1234 1.368 . S
C1240 C1239 1.523 . S
C1241 C1225 1.429 . S
C1241 C1237 1.429 . S
C1241 C1242 1.523 . S
C1242 C1226 1.368 . S
C1242 C1238 1.368 . S
C1242 C1241 1.523 . S
H1243 C1218 0.950 . S
H1244 C1220 0.950 . S
H1245 C1221 0.949 . S
H1246 C1223 0.950 . S
H1247 C1225 0.950 . S
C1248 C1249 1.349 . S
C1248 C1250 1.327 . S
C1248 H1273 0.950 . S
C1249 C1248 1.349 . S
C1249 C1265 1.349 . S
C1250 C1248 1.327 . S
C1250 C1269 1.429 . S
C1250 H1274 0.950 . S
C1251 C1268 1.574 . S
C1251 C1270 1.368 . S
C1251 H1275 0.949 . S
H1252 C1256 0.949 . S
C1253 C1254 1.349 . S
C1253 C1255 1.327 . S
C1253 H1276 0.950 . S
C1254 C1253 1.349 . S
C1254 C1266 1.349 . S
C1255 C1253 1.327 . S
C1255 C1271 1.429 . S
C1255 H1277 0.950 . S
C1256 H1252 0.949 . S
C1256 C1264 1.574 . S
C1256 C1272 1.368 . S
H1257 C1265 0.950 . S
H1258 C1263 0.950 . S
H1259 C1264 0.949 . S
H1260 C1266 0.950 . S
H1261 C1267 0.950 . S
H1262 C1268 0.949 . S
C1263 H1258 0.950 . S
C1263 C1265 1.327 . S
C1263 C1269 1.429 . S
C1264 C1256 1.574 . S
C1264 H1259 0.949 . S
C1264 C1270 1.368 . S
C1265 C1249 1.349 . S
C1265 H1257 0.950 . S
C1265 C1263 1.327 . S
C1266 C1254 1.349 . S
C1266 H1260 0.950 . S
C1266 C1267 1.327 . S
C1267 H1261 0.950 . S
C1267 C1266 1.327 . S
C1267 C1271 1.429 . S
C1268 C1251 1.574 . S
C1268 H1262 0.949 . S
C1268 C1272 1.368 . S
C1269 C1250 1.429 . S
C1269 C1263 1.429 . S
C1269 C1270 1.523 . S
C1270 C1251 1.368 . S
C1270 C1264 1.368 . S
C1270 C1269 1.523 . S
C1271 C1255 1.429 . S
C1271 C1267 1.429 . S
C1271 C1272 1.523 . S
C1272 C1256 1.368 . S
C1272 C1268 1.368 . S
C1272 C1271 1.523 . S
H1273 C1248 0.950 . S
H1274 C1250 0.950 . S
H1275 C1251 0.949 . S
H1276 C1253 0.950 . S
H1277 C1255 0.950 . S
C1278 C1279 1.349 . S
C1278 C1280 1.327 . S
C1278 H1303 0.950 . S
C1279 C1278 1.349 . S
C1279 C1295 1.349 . S
C1280 C1278 1.327 . S
C1280 C1299 1.429 . S
C1280 H1304 0.950 . S
C1281 C1298 1.574 . S
C1281 C1300 1.368 . S
C1281 H1305 0.949 . S
H1282 C1286 0.949 . S
C1283 C1284 1.349 . S
C1283 C1285 1.327 . S
C1283 H1306 0.950 . S
C1284 C1283 1.349 . S
C1284 C1296 1.349 . S
C1285 C1283 1.327 . S
C1285 C1301 1.429 . S
C1285 H1307 0.950 . S
C1286 H1282 0.949 . S
C1286 C1294 1.574 . S
C1286 C1302 1.368 . S
H1287 C1295 0.950 . S
H1288 C1293 0.950 . S
H1289 C1294 0.949 . S
H1290 C1296 0.950 . S
H1291 C1297 0.950 . S
H1292 C1298 0.949 . S
C1293 H1288 0.950 . S
C1293 C1295 1.327 . S
C1293 C1299 1.429 . S
C1294 C1286 1.574 . S
C1294 H1289 0.949 . S
C1294 C1300 1.368 . S
C1295 C1279 1.349 . S
C1295 H1287 0.950 . S
C1295 C1293 1.327 . S
C1296 C1284 1.349 . S
C1296 H1290 0.950 . S
C1296 C1297 1.327 . S
C1297 H1291 0.950 . S
C1297 C1296 1.327 . S
C1297 C1301 1.429 . S
C1298 C1281 1.574 . S
C1298 H1292 0.949 . S
C1298 C1302 1.368 . S
C1299 C1280 1.429 . S
C1299 C1293 1.429 . S
C1299 C1300 1.523 . S
C1300 C1281 1.368 . S
C1300 C1294 1.368 . S
C1300 C1299 1.523 . S
C1301 C1285 1.429 . S
C1301 C1297 1.429 . S
C1301 C1302 1.523 . S
C1302 C1286 1.368 . S
C1302 C1298 1.368 . S
C1302 C1301 1.523 . S
H1303 C1278 0.950 . S
H1304 C1280 0.950 . S
H1305 C1281 0.949 . S
H1306 C1283 0.950 . S
H1307 C1285 0.950 . S
C1308 C1309 1.349 . S
C1308 C1310 1.327 . S
C1308 H1333 0.950 . S
C1309 C1308 1.349 . S
C1309 C1325 1.349 . S
C1310 C1308 1.327 . S
C1310 C1329 1.429 . S
C1310 H1334 0.950 . S
C1311 C1328 1.574 . S
C1311 C1330 1.368 . S
C1311 H1335 0.949 . S
H1312 C1316 0.949 . S
C1313 C1314 1.349 . S
C1313 C1315 1.327 . S
C1313 H1336 0.950 1_655 S
C1314 C1313 1.349 . S
C1314 C1326 1.349 . S
C1315 C1313 1.327 . S
C1315 C1331 1.429 . S
C1315 H1337 0.950 . S
C1316 H1312 0.949 . S
C1316 C1324 1.574 . S
C1316 C1332 1.368 . S
H1317 C1325 0.950 . S
H1318 C1323 0.950 . S
H1319 C1324 0.949 . S
H1320 C1326 0.950 . S
H1321 C1327 0.950 . S
H1322 C1328 0.949 . S
C1323 H1318 0.950 . S
C1323 C1325 1.327 . S
C1323 C1329 1.429 . S
C1324 C1316 1.574 . S
C1324 H1319 0.949 . S
C1324 C1330 1.368 . S
C1325 C1309 1.349 . S
C1325 H1317 0.950 . S
C1325 C1323 1.327 . S
C1326 C1314 1.349 . S
C1326 H1320 0.950 . S
C1326 C1327 1.327 . S
C1327 H1321 0.950 . S
C1327 C1326 1.327 . S
C1327 C1331 1.429 . S
C1328 C1311 1.574 . S
C1328 H1322 0.949 . S
C1328 C1332 1.368 . S
C1329 C1310 1.429 . S
C1329 C1323 1.429 . S
C1329 C1330 1.523 . S
C1330 C1311 1.368 . S
C1330 C1324 1.368 . S
C1330 C1329 1.523 . S
C1331 C1315 1.429 . S
C1331 C1327 1.429 . S
C1331 C1332 1.523 . S
C1332 C1316 1.368 . S
C1332 C1328 1.368 . S
C1332 C1331 1.523 . S
H1333 C1308 0.950 . S
H1334 C1310 0.950 . S
H1335 C1311 0.949 . S
H1336 C1313 0.950 1_455 S
H1337 C1315 0.950 . S
C1338 C1339 1.349 . S
C1338 C1340 1.327 . S
C1338 H1363 0.950 . S
C1339 C1338 1.349 . S
C1339 C1355 1.349 1_565 S
C1340 C1338 1.327 . S
C1340 C1359 1.429 . S
C1340 H1364 0.950 . S
C1341 C1358 1.574 . S
C1341 C1360 1.368 . S
C1341 H1365 0.949 . S
H1342 C1346 0.949 . S
C1343 C1344 1.349 . S
C1343 C1345 1.327 . S
C1343 H1366 0.950 . S
C1344 C1343 1.349 . S
C1344 C1356 1.349 . S
C1345 C1343 1.327 . S
C1345 C1361 1.429 . S
C1345 H1367 0.950 . S
C1346 H1342 0.949 . S
C1346 C1354 1.574 . S
C1346 C1362 1.368 . S
H1347 C1355 0.950 . S
H1348 C1353 0.950 . S
H1349 C1354 0.949 . S
H1350 C1356 0.950 . S
H1351 C1357 0.950 . S
H1352 C1358 0.949 . S
C1353 H1348 0.950 . S
C1353 C1355 1.327 1_565 S
C1353 C1359 1.429 . S
C1354 C1346 1.574 . S
C1354 H1349 0.949 . S
C1354 C1360 1.368 . S
C1355 C1339 1.349 1_545 S
C1355 H1347 0.950 . S
C1355 C1353 1.327 1_545 S
C1356 C1344 1.349 . S
C1356 H1350 0.950 . S
C1356 C1357 1.327 . S
C1357 H1351 0.950 . S
C1357 C1356 1.327 . S
C1357 C1361 1.429 . S
C1358 C1341 1.574 . S
C1358 H1352 0.949 . S
C1358 C1362 1.368 . S
C1359 C1340 1.429 . S
C1359 C1353 1.429 . S
C1359 C1360 1.523 . S
C1360 C1341 1.368 . S
C1360 C1354 1.368 . S
C1360 C1359 1.523 . S
C1361 C1345 1.429 . S
C1361 C1357 1.429 . S
C1361 C1362 1.523 . S
C1362 C1346 1.368 . S
C1362 C1358 1.368 . S
C1362 C1361 1.523 . S
H1363 C1338 0.950 . S
H1364 C1340 0.950 . S
H1365 C1341 0.949 . S
H1366 C1343 0.950 . S
H1367 C1345 0.950 . S
C1368 C1369 1.349 . S
C1368 C1370 1.327 . S
C1368 H1393 0.950 . S
C1369 C1368 1.349 . S
C1369 C1385 1.349 . S
C1370 C1368 1.327 . S
C1370 C1389 1.429 . S
C1370 H1394 0.950 . S
C1371 C1388 1.574 . S
C1371 C1390 1.368 . S
C1371 H1395 0.949 . S
H1372 C1376 0.949 . S
C1373 C1374 1.349 . S
C1373 C1375 1.327 . S
C1373 H1396 0.950 . S
C1374 C1373 1.349 . S
C1374 C1386 1.349 . S
C1375 C1373 1.327 . S
C1375 C1391 1.429 . S
C1375 H1397 0.950 . S
C1376 H1372 0.949 . S
C1376 C1384 1.574 . S
C1376 C1392 1.368 . S
H1377 C1385 0.950 . S
H1378 C1383 0.950 . S
H1379 C1384 0.949 . S
H1380 C1386 0.950 . S
H1381 C1387 0.950 . S
H1382 C1388 0.949 . S
C1383 H1378 0.950 . S
C1383 C1385 1.327 . S
C1383 C1389 1.429 . S
C1384 C1376 1.574 . S
C1384 H1379 0.949 . S
C1384 C1390 1.368 . S
C1385 C1369 1.349 . S
C1385 H1377 0.950 . S
C1385 C1383 1.327 . S
C1386 C1374 1.349 . S
C1386 H1380 0.950 . S
C1386 C1387 1.327 . S
C1387 H1381 0.950 . S
C1387 C1386 1.327 . S
C1387 C1391 1.429 . S
C1388 C1371 1.574 . S
C1388 H1382 0.949 . S
C1388 C1392 1.368 . S
C1389 C1370 1.429 . S
C1389 C1383 1.429 . S
C1389 C1390 1.523 . S
C1390 C1371 1.368 . S
C1390 C1384 1.368 . S
C1390 C1389 1.523 . S
C1391 C1375 1.429 . S
C1391 C1387 1.429 . S
C1391 C1392 1.523 . S
C1392 C1376 1.368 . S
C1392 C1388 1.368 . S
C1392 C1391 1.523 . S
H1393 C1368 0.950 . S
H1394 C1370 0.950 . S
H1395 C1371 0.949 . S
H1396 C1373 0.950 . S
H1397 C1375 0.950 . S
C1398 C1399 1.349 . S
C1398 C1400 1.327 . S
C1398 H1423 0.950 . S
C1399 C1398 1.349 . S
C1399 C1415 1.349 . S
C1400 C1398 1.327 . S
C1400 C1419 1.429 . S
C1400 H1424 0.950 . S
C1401 C1418 1.574 . S
C1401 C1420 1.368 . S
C1401 H1425 0.949 . S
H1402 C1406 0.949 . S
C1403 C1404 1.349 . S
C1403 C1405 1.327 . S
C1403 H1426 0.950 . S
C1404 C1403 1.349 . S
C1404 C1416 1.349 . S
C1405 C1403 1.327 . S
C1405 C1421 1.429 . S
C1405 H1427 0.950 . S
C1406 H1402 0.949 . S
C1406 C1414 1.574 . S
C1406 C1422 1.368 . S
H1407 C1415 0.950 . S
H1408 C1413 0.950 . S
H1409 C1414 0.949 . S
H1410 C1416 0.950 . S
H1411 C1417 0.950 . S
H1412 C1418 0.949 . S
C1413 H1408 0.950 . S
C1413 C1415 1.327 . S
C1413 C1419 1.429 . S
C1414 C1406 1.574 . S
C1414 H1409 0.949 . S
C1414 C1420 1.368 . S
C1415 C1399 1.349 . S
C1415 H1407 0.950 . S
C1415 C1413 1.327 . S
C1416 C1404 1.349 . S
C1416 H1410 0.950 . S
C1416 C1417 1.327 . S
C1417 H1411 0.950 . S
C1417 C1416 1.327 . S
C1417 C1421 1.429 . S
C1418 C1401 1.574 . S
C1418 H1412 0.949 . S
C1418 C1422 1.368 . S
C1419 C1400 1.429 . S
C1419 C1413 1.429 . S
C1419 C1420 1.523 . S
C1420 C1401 1.368 . S
C1420 C1414 1.368 . S
C1420 C1419 1.523 . S
C1421 C1405 1.429 . S
C1421 C1417 1.429 . S
C1421 C1422 1.523 . S
C1422 C1406 1.368 . S
C1422 C1418 1.368 . S
C1422 C1421 1.523 . S
H1423 C1398 0.950 . S
H1424 C1400 0.950 . S
H1425 C1401 0.949 . S
H1426 C1403 0.950 . S
H1427 C1405 0.950 . S
C1428 C1429 1.349 . S
C1428 C1430 1.327 . S
C1428 H1453 0.950 . S
C1429 C1428 1.349 . S
C1429 C1445 1.349 1_655 S
C1430 C1428 1.327 . S
C1430 C1449 1.429 . S
C1430 H1454 0.950 . S
C1431 C1448 1.574 . S
C1431 C1450 1.368 . S
C1431 H1455 0.949 . S
H1432 C1436 0.949 . S
C1433 C1434 1.349 . S
C1433 C1435 1.327 . S
C1433 H1456 0.950 . S
C1434 C1433 1.349 . S
C1434 C1446 1.349 . S
C1435 C1433 1.327 . S
C1435 C1451 1.429 . S
C1435 H1457 0.950 . S
C1436 H1432 0.949 . S
C1436 C1444 1.574 . S
C1436 C1452 1.368 . S
H1437 C1445 0.950 . S
H1438 C1443 0.950 . S
H1439 C1444 0.949 . S
H1440 C1446 0.950 . S
H1441 C1447 0.950 . S
H1442 C1448 0.949 . S
C1443 H1438 0.950 . S
C1443 C1445 1.327 1_655 S
C1443 C1449 1.429 . S
C1444 C1436 1.574 . S
C1444 H1439 0.949 . S
C1444 C1450 1.368 . S
C1445 C1429 1.349 1_455 S
C1445 H1437 0.950 . S
C1445 C1443 1.327 1_455 S
C1446 C1434 1.349 . S
C1446 H1440 0.950 . S
C1446 C1447 1.327 . S
C1447 H1441 0.950 . S
C1447 C1446 1.327 . S
C1447 C1451 1.429 . S
C1448 C1431 1.574 . S
C1448 H1442 0.949 . S
C1448 C1452 1.368 . S
C1449 C1430 1.429 . S
C1449 C1443 1.429 . S
C1449 C1450 1.523 . S
C1450 C1431 1.368 . S
C1450 C1444 1.368 . S
C1450 C1449 1.523 . S
C1451 C1435 1.429 . S
C1451 C1447 1.429 . S
C1451 C1452 1.523 . S
C1452 C1436 1.368 . S
C1452 C1448 1.368 . S
C1452 C1451 1.523 . S
H1453 C1428 0.950 . S
H1454 C1430 0.950 . S
H1455 C1431 0.949 . S
H1456 C1433 0.950 . S
H1457 C1435 0.950 . S
C1458 C1459 1.349 . S
C1458 C1460 1.327 . S
C1458 H1483 0.950 . S
C1459 C1458 1.349 . S
C1459 C1475 1.349 . S
C1460 C1458 1.327 . S
C1460 C1479 1.429 . S
C1460 H1484 0.950 . S
C1461 C1478 1.574 . S
C1461 C1480 1.368 . S
C1461 H1485 0.949 . S
H1462 C1466 0.949 . S
C1463 C1464 1.349 . S
C1463 C1465 1.327 . S
C1463 H1486 0.950 . S
C1464 C1463 1.349 . S
C1464 C1476 1.349 . S
C1465 C1463 1.327 . S
C1465 C1481 1.429 . S
C1465 H1487 0.950 . S
C1466 H1462 0.949 . S
C1466 C1474 1.574 . S
C1466 C1482 1.368 . S
H1467 C1475 0.950 . S
H1468 C1473 0.950 . S
H1469 C1474 0.949 . S
H1470 C1476 0.950 1_545 S
H1471 C1477 0.950 . S
H1472 C1478 0.949 . S
C1473 H1468 0.950 . S
C1473 C1475 1.327 . S
C1473 C1479 1.429 . S
C1474 C1466 1.574 . S
C1474 H1469 0.949 . S
C1474 C1480 1.368 . S
C1475 C1459 1.349 . S
C1475 H1467 0.950 . S
C1475 C1473 1.327 . S
C1476 C1464 1.349 . S
C1476 H1470 0.950 1_565 S
C1476 C1477 1.327 . S
C1477 H1471 0.950 . S
C1477 C1476 1.327 . S
C1477 C1481 1.429 . S
C1478 C1461 1.574 . S
C1478 H1472 0.949 . S
C1478 C1482 1.368 . S
C1479 C1460 1.429 . S
C1479 C1473 1.429 . S
C1479 C1480 1.523 . S
C1480 C1461 1.368 . S
C1480 C1474 1.368 . S
C1480 C1479 1.523 . S
C1481 C1465 1.429 . S
C1481 C1477 1.429 . S
C1481 C1482 1.523 . S
C1482 C1466 1.368 . S
C1482 C1478 1.368 . S
C1482 C1481 1.523 . S
H1483 C1458 0.950 . S
H1484 C1460 0.950 . S
H1485 C1461 0.949 . S
H1486 C1463 0.950 . S
H1487 C1465 0.950 . S
C1488 C1489 1.349 . S
C1488 C1490 1.327 . S
C1488 H1513 0.950 . S
C1489 C1488 1.349 . S
C1489 C1505 1.349 . S
C1490 C1488 1.327 . S
C1490 C1509 1.429 . S
C1490 H1514 0.950 . S
C1491 C1508 1.574 . S
C1491 C1510 1.368 . S
C1491 H1515 0.949 . S
H1492 C1496 0.949 . S
C1493 C1494 1.349 . S
C1493 C1495 1.327 . S
C1493 H1516 0.950 . S
C1494 C1493 1.349 . S
C1494 C1506 1.349 . S
C1495 C1493 1.327 . S
C1495 C1511 1.429 . S
C1495 H1517 0.950 . S
C1496 H1492 0.949 . S
C1496 C1504 1.574 . S
C1496 C1512 1.368 . S
H1497 C1505 0.950 . S
H1498 C1503 0.950 . S
H1499 C1504 0.949 . S
H1500 C1506 0.950 . S
H1501 C1507 0.950 . S
H1502 C1508 0.949 . S
C1503 H1498 0.950 . S
C1503 C1505 1.327 . S
C1503 C1509 1.429 . S
C1504 C1496 1.574 . S
C1504 H1499 0.949 . S
C1504 C1510 1.368 . S
C1505 C1489 1.349 . S
C1505 H1497 0.950 . S
C1505 C1503 1.327 . S
C1506 C1494 1.349 . S
C1506 H1500 0.950 . S
C1506 C1507 1.327 . S
C1507 H1501 0.950 . S
C1507 C1506 1.327 . S
C1507 C1511 1.429 . S
C1508 C1491 1.574 . S
C1508 H1502 0.949 . S
C1508 C1512 1.368 . S
C1509 C1490 1.429 . S
C1509 C1503 1.429 . S
C1509 C1510 1.523 . S
C1510 C1491 1.368 . S
C1510 C1504 1.368 . S
C1510 C1509 1.523 . S
C1511 C1495 1.429 . S
C1511 C1507 1.429 . S
C1511 C1512 1.523 . S
C1512 C1496 1.368 . S
C1512 C1508 1.368 . S
C1512 C1511 1.523 . S
H1513 C1488 0.950 . S
H1514 C1490 0.950 . S
H1515 C1491 0.949 . S
H1516 C1493 0.950 . S
H1517 C1495 0.950 . S
C1518 C1519 1.349 . S
C1518 C1520 1.327 . S
C1518 H1543 0.950 . S
C1519 C1518 1.349 . S
C1519 C1535 1.349 . S
C1520 C1518 1.327 . S
C1520 C1539 1.429 . S
C1520 H1544 0.950 . S
C1521 C1538 1.574 . S
C1521 C1540 1.368 . S
C1521 H1545 0.949 . S
H1522 C1526 0.949 . S
C1523 C1524 1.349 . S
C1523 C1525 1.327 . S
C1523 H1546 0.950 . S
C1524 C1523 1.349 . S
C1524 C1536 1.349 . S
C1525 C1523 1.327 . S
C1525 C1541 1.429 . S
C1525 H1547 0.950 . S
C1526 H1522 0.949 . S
C1526 C1534 1.574 . S
C1526 C1542 1.368 . S
H1527 C1535 0.950 . S
H1528 C1533 0.950 . S
H1529 C1534 0.949 . S
H1530 C1536 0.950 . S
H1531 C1537 0.950 . S
H1532 C1538 0.949 . S
C1533 H1528 0.950 . S
C1533 C1535 1.327 . S
C1533 C1539 1.429 . S
C1534 C1526 1.574 . S
C1534 H1529 0.949 . S
C1534 C1540 1.368 . S
C1535 C1519 1.349 . S
C1535 H1527 0.950 . S
C1535 C1533 1.327 . S
C1536 C1524 1.349 . S
C1536 H1530 0.950 . S
C1536 C1537 1.327 . S
C1537 H1531 0.950 . S
C1537 C1536 1.327 . S
C1537 C1541 1.429 . S
C1538 C1521 1.574 . S
C1538 H1532 0.949 . S
C1538 C1542 1.368 . S
C1539 C1520 1.429 . S
C1539 C1533 1.429 . S
C1539 C1540 1.523 . S
C1540 C1521 1.368 . S
C1540 C1534 1.368 . S
C1540 C1539 1.523 . S
C1541 C1525 1.429 . S
C1541 C1537 1.429 . S
C1541 C1542 1.523 . S
C1542 C1526 1.368 . S
C1542 C1538 1.368 . S
C1542 C1541 1.523 . S
H1543 C1518 0.950 . S
H1544 C1520 0.950 . S
H1545 C1521 0.949 . S
H1546 C1523 0.950 . S
H1547 C1525 0.950 . S
C1548 C1549 1.349 . S
C1548 C1550 1.327 . S
C1548 H1573 0.950 . S
C1549 C1548 1.349 . S
C1549 C1565 1.349 . S
C1550 C1548 1.327 . S
C1550 C1569 1.429 . S
C1550 H1574 0.950 . S
C1551 C1568 1.574 . S
C1551 C1570 1.368 . S
C1551 H1575 0.949 . S
H1552 C1556 0.949 . S
C1553 C1554 1.349 . S
C1553 C1555 1.327 . S
C1553 H1576 0.950 . S
C1554 C1553 1.349 . S
C1554 C1566 1.349 . S
C1555 C1553 1.327 . S
C1555 C1571 1.429 . S
C1555 H1577 0.950 . S
C1556 H1552 0.949 . S
C1556 C1564 1.574 . S
C1556 C1572 1.368 . S
H1557 C1565 0.950 . S
H1558 C1563 0.950 . S
H1559 C1564 0.949 . S
H1560 C1566 0.950 . S
H1561 C1567 0.950 . S
H1562 C1568 0.949 . S
C1563 H1558 0.950 . S
C1563 C1565 1.327 . S
C1563 C1569 1.429 . S
C1564 C1556 1.574 . S
C1564 H1559 0.949 . S
C1564 C1570 1.368 . S
C1565 C1549 1.349 . S
C1565 H1557 0.950 . S
C1565 C1563 1.327 . S
C1566 C1554 1.349 . S
C1566 H1560 0.950 . S
C1566 C1567 1.327 . S
C1567 H1561 0.950 . S
C1567 C1566 1.327 . S
C1567 C1571 1.429 . S
C1568 C1551 1.574 . S
C1568 H1562 0.949 . S
C1568 C1572 1.368 . S
C1569 C1550 1.429 . S
C1569 C1563 1.429 . S
C1569 C1570 1.523 . S
C1570 C1551 1.368 . S
C1570 C1564 1.368 . S
C1570 C1569 1.523 . S
C1571 C1555 1.429 . S
C1571 C1567 1.429 . S
C1571 C1572 1.523 . S
C1572 C1556 1.368 . S
C1572 C1568 1.368 . S
C1572 C1571 1.523 . S
H1573 C1548 0.950 . S
H1574 C1550 0.950 . S
H1575 C1551 0.949 . S
H1576 C1553 0.950 . S
H1577 C1555 0.950 . S
C1578 C1579 1.349 . S
C1578 C1580 1.327 . S
C1578 H1603 0.950 . S
C1579 C1578 1.349 . S
C1579 C1595 1.349 . S
C1580 C1578 1.327 . S
C1580 C1599 1.429 . S
C1580 H1604 0.950 . S
C1581 C1598 1.574 . S
C1581 C1600 1.368 . S
C1581 H1605 0.949 . S
H1582 C1586 0.949 . S
C1583 C1584 1.349 . S
C1583 C1585 1.327 . S
C1583 H1606 0.950 . S
C1584 C1583 1.349 . S
C1584 C1596 1.349 . S
C1585 C1583 1.327 . S
C1585 C1601 1.429 . S
C1585 H1607 0.950 . S
C1586 H1582 0.949 . S
C1586 C1594 1.574 . S
C1586 C1602 1.368 . S
H1587 C1595 0.950 . S
H1588 C1593 0.950 . S
H1589 C1594 0.949 . S
H1590 C1596 0.950 . S
H1591 C1597 0.950 . S
H1592 C1598 0.949 . S
C1593 H1588 0.950 . S
C1593 C1595 1.327 . S
C1593 C1599 1.429 . S
C1594 C1586 1.574 . S
C1594 H1589 0.949 . S
C1594 C1600 1.368 . S
C1595 C1579 1.349 . S
C1595 H1587 0.950 . S
C1595 C1593 1.327 . S
C1596 C1584 1.349 . S
C1596 H1590 0.950 . S
C1596 C1597 1.327 . S
C1597 H1591 0.950 . S
C1597 C1596 1.327 . S
C1597 C1601 1.429 . S
C1598 C1581 1.574 . S
C1598 H1592 0.949 . S
C1598 C1602 1.368 . S
C1599 C1580 1.429 . S
C1599 C1593 1.429 . S
C1599 C1600 1.523 . S
C1600 C1581 1.368 . S
C1600 C1594 1.368 . S
C1600 C1599 1.523 . S
C1601 C1585 1.429 . S
C1601 C1597 1.429 . S
C1601 C1602 1.523 . S
C1602 C1586 1.368 . S
C1602 C1598 1.368 . S
C1602 C1601 1.523 . S
H1603 C1578 0.950 . S
H1604 C1580 0.950 . S
H1605 C1581 0.949 . S
H1606 C1583 0.950 . S
H1607 C1585 0.950 . S
C1608 C1609 1.349 . S
C1608 C1610 1.327 . S
C1608 H1633 0.950 . S
C1609 C1608 1.349 . S
C1609 C1625 1.349 . S
C1610 C1608 1.327 . S
C1610 C1629 1.429 . S
C1610 H1634 0.950 . S
C1611 C1628 1.574 . S
C1611 C1630 1.368 . S
C1611 H1635 0.949 . S
H1612 C1616 0.949 . S
C1613 C1614 1.349 . S
C1613 C1615 1.327 . S
C1613 H1636 0.950 . S
C1614 C1613 1.349 . S
C1614 C1626 1.349 . S
C1615 C1613 1.327 . S
C1615 C1631 1.429 . S
C1615 H1637 0.950 . S
C1616 H1612 0.949 . S
C1616 C1624 1.574 . S
C1616 C1632 1.368 . S
H1617 C1625 0.950 . S
H1618 C1623 0.950 . S
H1619 C1624 0.949 . S
H1620 C1626 0.950 . S
H1621 C1627 0.950 . S
H1622 C1628 0.949 . S
C1623 H1618 0.950 . S
C1623 C1625 1.327 . S
C1623 C1629 1.429 . S
C1624 C1616 1.574 . S
C1624 H1619 0.949 . S
C1624 C1630 1.368 . S
C1625 C1609 1.349 . S
C1625 H1617 0.950 . S
C1625 C1623 1.327 . S
C1626 C1614 1.349 . S
C1626 H1620 0.950 . S
C1626 C1627 1.327 . S
C1627 H1621 0.950 . S
C1627 C1626 1.327 . S
C1627 C1631 1.429 . S
C1628 C1611 1.574 . S
C1628 H1622 0.949 . S
C1628 C1632 1.368 . S
C1629 C1610 1.429 . S
C1629 C1623 1.429 . S
C1629 C1630 1.523 . S
C1630 C1611 1.368 . S
C1630 C1624 1.368 . S
C1630 C1629 1.523 . S
C1631 C1615 1.429 . S
C1631 C1627 1.429 . S
C1631 C1632 1.523 . S
C1632 C1616 1.368 . S
C1632 C1628 1.368 . S
C1632 C1631 1.523 . S
H1633 C1608 0.950 . S
H1634 C1610 0.950 . S
H1635 C1611 0.949 . S
H1636 C1613 0.950 . S
H1637 C1615 0.950 . S
C1638 C1639 1.349 . S
C1638 C1640 1.327 . S
C1638 H1663 0.950 . S
C1639 C1638 1.349 . S
C1639 C1655 1.349 . S
C1640 C1638 1.327 . S
C1640 C1659 1.429 . S
C1640 H1664 0.950 . S
C1641 C1658 1.574 . S
C1641 C1660 1.368 . S
C1641 H1665 0.949 . S
H1642 C1646 0.949 . S
C1643 C1644 1.349 . S
C1643 C1645 1.327 . S
C1643 H1666 0.950 . S
C1644 C1643 1.349 . S
C1644 C1656 1.349 . S
C1645 C1643 1.327 . S
C1645 C1661 1.429 . S
C1645 H1667 0.950 . S
C1646 H1642 0.949 . S
C1646 C1654 1.574 . S
C1646 C1662 1.368 . S
H1647 C1655 0.950 . S
H1648 C1653 0.950 . S
H1649 C1654 0.949 . S
H1650 C1656 0.950 1_545 S
H1651 C1657 0.950 . S
H1652 C1658 0.949 . S
C1653 H1648 0.950 . S
C1653 C1655 1.327 . S
C1653 C1659 1.429 . S
C1654 C1646 1.574 . S
C1654 H1649 0.949 . S
C1654 C1660 1.368 . S
C1655 C1639 1.349 . S
C1655 H1647 0.950 . S
C1655 C1653 1.327 . S
C1656 C1644 1.349 . S
C1656 H1650 0.950 1_565 S
C1656 C1657 1.327 . S
C1657 H1651 0.950 . S
C1657 C1656 1.327 . S
C1657 C1661 1.429 . S
C1658 C1641 1.574 . S
C1658 H1652 0.949 . S
C1658 C1662 1.368 . S
C1659 C1640 1.429 . S
C1659 C1653 1.429 . S
C1659 C1660 1.523 . S
C1660 C1641 1.368 . S
C1660 C1654 1.368 . S
C1660 C1659 1.523 . S
C1661 C1645 1.429 . S
C1661 C1657 1.429 . S
C1661 C1662 1.523 . S
C1662 C1646 1.368 . S
C1662 C1658 1.368 . S
C1662 C1661 1.523 . S
H1663 C1638 0.950 . S
H1664 C1640 0.950 . S
H1665 C1641 0.949 . S
H1666 C1643 0.950 . S
H1667 C1645 0.950 . S
C1668 C1669 1.349 . S
C1668 C1670 1.327 . S
C1668 H1693 0.950 . S
C1669 C1668 1.349 . S
C1669 C1685 1.349 . S
C1670 C1668 1.327 . S
C1670 C1689 1.429 . S
C1670 H1694 0.950 . S
C1671 C1688 1.574 . S
C1671 C1690 1.368 . S
C1671 H1695 0.949 . S
H1672 C1676 0.949 . S
C1673 C1674 1.349 . S
C1673 C1675 1.327 . S
C1673 H1696 0.950 . S
C1674 C1673 1.349 . S
C1674 C1686 1.349 . S
C1675 C1673 1.327 . S
C1675 C1691 1.429 . S
C1675 H1697 0.950 . S
C1676 H1672 0.949 . S
C1676 C1684 1.574 . S
C1676 C1692 1.368 . S
H1677 C1685 0.950 . S
H1678 C1683 0.950 . S
H1679 C1684 0.949 . S
H1680 C1686 0.950 . S
H1681 C1687 0.950 . S
H1682 C1688 0.949 . S
C1683 H1678 0.950 . S
C1683 C1685 1.327 . S
C1683 C1689 1.429 . S
C1684 C1676 1.574 . S
C1684 H1679 0.949 . S
C1684 C1690 1.368 . S
C1685 C1669 1.349 . S
C1685 H1677 0.950 . S
C1685 C1683 1.327 . S
C1686 C1674 1.349 . S
C1686 H1680 0.950 . S
C1686 C1687 1.327 . S
C1687 H1681 0.950 . S
C1687 C1686 1.327 . S
C1687 C1691 1.429 . S
C1688 C1671 1.574 . S
C1688 H1682 0.949 . S
C1688 C1692 1.368 . S
C1689 C1670 1.429 . S
C1689 C1683 1.429 . S
C1689 C1690 1.523 . S
C1690 C1671 1.368 . S
C1690 C1684 1.368 . S
C1690 C1689 1.523 . S
C1691 C1675 1.429 . S
C1691 C1687 1.429 . S
C1691 C1692 1.523 . S
C1692 C1676 1.368 . S
C1692 C1688 1.368 . S
C1692 C1691 1.523 . S
H1693 C1668 0.950 . S
H1694 C1670 0.950 . S
H1695 C1671 0.949 . S
H1696 C1673 0.950 . S
H1697 C1675 0.950 . S
C1698 C1699 1.349 . S
C1698 C1700 1.327 . S
C1698 H1723 0.950 . S
C1699 C1698 1.349 . S
C1699 C1715 1.349 . S
C1700 C1698 1.327 . S
C1700 C1719 1.429 . S
C1700 H1724 0.950 . S
C1701 C1718 1.574 . S
C1701 C1720 1.368 . S
C1701 H1725 0.949 . S
H1702 C1706 0.949 . S
C1703 C1704 1.349 . S
C1703 C1705 1.327 . S
C1703 H1726 0.950 . S
C1704 C1703 1.349 . S
C1704 C1716 1.349 . S
C1705 C1703 1.327 . S
C1705 C1721 1.429 . S
C1705 H1727 0.950 . S
C1706 H1702 0.949 . S
C1706 C1714 1.574 . S
C1706 C1722 1.368 . S
H1707 C1715 0.950 . S
H1708 C1713 0.950 . S
H1709 C1714 0.949 . S
H1710 C1716 0.950 . S
H1711 C1717 0.950 . S
H1712 C1718 0.949 . S
C1713 H1708 0.950 . S
C1713 C1715 1.327 . S
C1713 C1719 1.429 . S
C1714 C1706 1.574 . S
C1714 H1709 0.949 . S
C1714 C1720 1.368 . S
C1715 C1699 1.349 . S
C1715 H1707 0.950 . S
C1715 C1713 1.327 . S
C1716 C1704 1.349 . S
C1716 H1710 0.950 . S
C1716 C1717 1.327 . S
C1717 H1711 0.950 . S
C1717 C1716 1.327 . S
C1717 C1721 1.429 . S
C1718 C1701 1.574 . S
C1718 H1712 0.949 . S
C1718 C1722 1.368 . S
C1719 C1700 1.429 . S
C1719 C1713 1.429 . S
C1719 C1720 1.523 . S
C1720 C1701 1.368 . S
C1720 C1714 1.368 . S
C1720 C1719 1.523 . S
C1721 C1705 1.429 . S
C1721 C1717 1.429 . S
C1721 C1722 1.523 . S
C1722 C1706 1.368 . S
C1722 C1718 1.368 . S
C1722 C1721 1.523 . S
H1723 C1698 0.950 . S
H1724 C1700 0.950 . S
H1725 C1701 0.949 . S
H1726 C1703 0.950 . S
H1727 C1705 0.950 . S
C529 C17 1.448 . S
C534 C215 1.448 . S
C559 C248 1.448 . S
C564 C50 1.448 . S
C589 C149 1.448 . S
C594 C83 1.448 . S
C619 C182 1.448 . S
C624 C116 1.448 . S
C649 C281 1.448 . S
C654 C479 1.448 . S
C679 C314 1.448 . S
C684 C512 1.448 . S
C709 C347 1.448 . S
C714 C413 1.448 . S
C739 C446 1.448 . S
C744 C380 1.448 . S
C769 C28 1.405 . S
C774 N104 1.380 . S
C799 C61 1.405 . S
C804 N5 1.380 . S
C829 N38 1.380 . S
C834 C94 1.405 . S
C859 C127 1.405 . S
C864 N71 1.380 . S
C889 N170 1.380 . S
C894 C160 1.405 . S
C919 N203 1.380 . S
C924 C193 1.405 . S
C949 N236 1.380 . S
C954 C226 1.405 . S
C979 N137 1.380 . S
C984 C259 1.405 . S
C1009 C292 1.405 . S
C1014 N368 1.380 . S
C1039 N269 1.380 . S
C1044 C325 1.405 . S
C1069 C358 1.405 . S
C1074 N302 1.380 . S
C1099 C391 1.405 . S
C1104 N335 1.380 . S
C1129 C424 1.405 . S
C1134 N434 1.380 . S
C1159 C457 1.405 . S
C1164 N467 1.380 . S
C1189 C490 1.405 . S
C1194 N500 1.380 . S
C1219 N401 1.380 . S
C1224 C523 1.405 . S
C1249 N509 1.218 . S
C1254 N14 1.218 . S
C1279 N47 1.218 . S
C1284 N410 1.218 . S
C1309 N443 1.218 . S
C1314 N80 1.218 1_655 S
C1339 N113 1.218 1_565 S
C1344 N476 1.218 . S
C1369 N311 1.218 . S
C1374 N146 1.218 . S
C1399 N179 1.218 . S
C1404 N344 1.218 . S
C1429 N212 1.218 1_655 S
C1434 N377 1.218 . S
C1459 N278 1.218 . S
C1464 N245 1.218 1_565 S
C1489 C140 1.299 . S
C1494 C371 1.299 . S
C1519 C173 1.300 . S
C1524 C272 1.300 . S
C1549 C206 1.299 . S
C1554 C305 1.299 . S
C1579 C338 1.299 . S
C1584 C239 1.299 . S
C1609 C8 1.300 . S
C1614 C437 1.300 . S
C1639 C470 1.299 . S
C1644 C41 1.299 . S
C1669 C74 1.299 . S
C1674 C503 1.299 . S
C1699 C107 1.299 . S
C1704 C404 1.299 . S
