# Generated by pormake.
# Topology skc, (5)-cn, num edge types: 1
# Building blocks:
#     Node 0, Type 0, BuildingBlock: BEQFEK_clean_sbu_0, # of connection points: 5
#     Node 1, Type 0, BuildingBlock: BEQFEK_clean_sbu_0, # of connection points: 5
#     Node 2, Type 0, BuildingBlock: BEQFEK_clean_sbu_0, # of connection points: 5
#     Node 3, Type 0, BuildingBlock: BEQFEK_clean_sbu_0, # of connection points: 5
#     Node 4, Type 0, BuildingBlock: BEQFEK_clean_sbu_0, # of connection points: 5
#     Node 5, Type 0, BuildingBlock: BEQFEK_clean_sbu_0, # of connection points: 5
#     Node 6, Type 0, BuildingBlock: BEQFEK_clean_sbu_0, # of connection points: 5
#     Node 7, Type 0, BuildingBlock: BEQFEK_clean_sbu_0, # of connection points: 5
#     Edge 8, Type (0, 0), BuildingBlock: OJICUG_clean_linker_0, # of connection points: 2
#     Edge 9, Type (0, 0), BuildingBlock: OJICUG_clean_linker_0, # of connection points: 2
#     Edge 10, Type (0, 0), BuildingBlock: OJICUG_clean_linker_0, # of connection points: 2
#     Edge 11, Type (0, 0), BuildingBlock: OJICUG_clean_linker_0, # of connection points: 2
#     Edge 12, Type (0, 0), BuildingBlock: OJICUG_clean_linker_0, # of connection points: 2
#     Edge 13, Type (0, 0), BuildingBlock: OJICUG_clean_linker_0, # of connection points: 2
#     Edge 14, Type (0, 0), BuildingBlock: OJICUG_clean_linker_0, # of connection points: 2
#     Edge 15, Type (0, 0), BuildingBlock: OJICUG_clean_linker_0, # of connection points: 2
#     Edge 16, Type (0, 0), BuildingBlock: OJICUG_clean_linker_0, # of connection points: 2
#     Edge 17, Type (0, 0), BuildingBlock: OJICUG_clean_linker_0, # of connection points: 2
#     Edge 18, Type (0, 0), BuildingBlock: OJICUG_clean_linker_0, # of connection points: 2
#     Edge 19, Type (0, 0), BuildingBlock: OJICUG_clean_linker_0, # of connection points: 2
#     Edge 20, Type (0, 0), BuildingBlock: OJICUG_clean_linker_0, # of connection points: 2
#     Edge 21, Type (0, 0), BuildingBlock: OJICUG_clean_linker_0, # of connection points: 2
#     Edge 22, Type (0, 0), BuildingBlock: OJICUG_clean_linker_0, # of connection points: 2
#     Edge 23, Type (0, 0), BuildingBlock: OJICUG_clean_linker_0, # of connection points: 2
#     Edge 24, Type (0, 0), BuildingBlock: OJICUG_clean_linker_0, # of connection points: 2
#     Edge 25, Type (0, 0), BuildingBlock: OJICUG_clean_linker_0, # of connection points: 2
#     Edge 26, Type (0, 0), BuildingBlock: OJICUG_clean_linker_0, # of connection points: 2
#     Edge 27, Type (0, 0), BuildingBlock: OJICUG_clean_linker_0, # of connection points: 2
# Relax obj value: 0.149
# Max RMSD: 0.202
# Mean RMSD: 0.202
data_MOF--net-skc--node1-BEQFEK_clean_sbu_0--edge1-OJICUG_clean_linker_0
_symmetry_space_group_name_H-M    P1
_symmetry_Int_Tables_number       1
_symmetry_cell_setting            triclinic
loop_
_symmetry_equiv_pos_as_xyz
'x, y, z'
_cell_length_a     35.452165
_cell_length_b     16.155298
_cell_length_c     19.041693
_cell_angle_alpha  90.188055
_cell_angle_beta   89.700232
_cell_angle_gamma 89.907571
loop_
_atom_site_label
_atom_site_type_symbol
_atom_site_fract_x
_atom_site_fract_y
_atom_site_fract_z
_atom_type_partial_charge
Co0 Co 0.06764 0.20373 0.18928 0.0
Co1 Co 0.11639 0.26915 0.06229 0.0
C2 C 0.05747 0.1428 0.03959 0.0
O3 O 0.04834 0.14443 0.10451 0.0
O4 O 0.0851 0.18496 0.01623 0.0
C5 C 0.04728 0.09028 0.30483 0.0
O6 O 0.07177 0.0365 0.27987 0.0
C7 C 0.16768 0.2816 0.9387 0.0
C8 C 0.1969 0.39889 0.96243 0.0
C9 C 0.19609 0.33398 0.91483 0.0
N10 N 0.15297 0.31376 0.99823 0.0
N11 N 0.17028 0.38444 0.01142 0.0
C12 C 0.15354 0.20411 0.90468 0.0
H13 H 0.12233 0.20555 0.90335 0.0
H14 H 0.16229 0.14986 0.93632 0.0
H15 H 0.16414 0.19737 0.85008 0.0
C16 C 0.14429 0.1863 0.25117 0.0
N17 N 0.12102 0.20304 0.19723 0.0
N18 N 0.14138 0.22528 0.14245 0.0
C19 C 0.17828 0.21895 0.1588 0.0
C20 C 0.1813 0.19445 0.2283 0.0
C21 C 0.13174 0.17517 0.32575 0.0
H22 H 0.10402 0.20518 0.33476 0.0
H23 H 0.12971 0.1082 0.33753 0.0
H24 H 0.15256 0.20252 0.36244 0.0
O25 O 0.04985 0.31795 0.18202 0.0
O26 O 0.08108 0.36192 0.08776 0.0
H27 H 0.21548 0.30056 0.10413 0.0
H28 H 0.23627 0.20218 0.12602 0.0
C29 C 0.21006 0.23317 0.10828 0.0
H30 H 0.20253 0.20883 0.05575 0.0
H31 H 0.16461 0.42171 0.05509 0.0
O32 O 0.04244 0.15914 0.27413 0.0
C33 C 0.05674 0.37321 0.13648 0.0
Co34 Co 0.93207 0.81573 0.17862 0.0
Co35 Co 0.88954 0.73055 0.05397 0.0
C36 C 0.94613 0.86742 0.03172 0.0
O37 O 0.95295 0.87588 0.097 0.0
O38 O 0.92121 0.81694 0.00981 0.0
C39 C 0.98442 0.86103 0.28377 0.0
O40 O 0.00889 0.83417 0.23685 0.0
C41 C 0.83223 0.72541 0.94369 0.0
C42 C 0.82775 0.59131 0.92284 0.0
C43 C 0.81272 0.66721 0.90414 0.0
N44 N 0.85701 0.68525 0.9846 0.0
N45 N 0.85442 0.60515 0.97143 0.0
C46 C 0.82881 0.81776 0.94096 0.0
H47 H 0.85567 0.84732 0.95666 0.0
H48 H 0.80664 0.83868 0.97827 0.0
H49 H 0.82098 0.83825 0.88738 0.0
C50 C 0.85418 0.83415 0.23124 0.0
N51 N 0.87881 0.81161 0.1806 0.0
N52 N 0.86087 0.77011 0.13161 0.0
C53 C 0.82433 0.76226 0.15099 0.0
C54 C 0.81889 0.80371 0.21417 0.0
C55 C 0.86508 0.87663 0.29807 0.0
H56 H 0.88266 0.93155 0.2859 0.0
H57 H 0.84001 0.89619 0.32908 0.0
H58 H 0.88218 0.83354 0.33018 0.0
O59 O 0.95432 0.70284 0.17364 0.0
O60 O 0.92581 0.6441 0.08245 0.0
H61 H 0.80917 0.65384 0.09214 0.0
H62 H 0.77174 0.69459 0.14738 0.0
C63 C 0.79582 0.71114 0.11274 0.0
H64 H 0.78467 0.74697 0.0679 0.0
H65 H 0.87043 0.55981 0.99644 0.0
O66 O 0.94977 0.86364 0.26776 0.0
C67 C 0.95027 0.64248 0.13118 0.0
Co68 Co 0.07427 0.79241 0.68435 0.0
Co69 Co 0.11504 0.71465 0.81448 0.0
C70 C 0.05933 0.85567 0.82784 0.0
O71 O 0.05289 0.85912 0.76214 0.0
O72 O 0.08369 0.80588 0.85287 0.0
C73 C 0.02462 0.85344 0.57593 0.0
O74 O 0.9981 0.85181 0.62437 0.0
C75 C 0.17316 0.71469 0.92377 0.0
C76 C 0.16934 0.58735 0.9648 0.0
C77 C 0.18896 0.66084 0.97217 0.0
N78 N 0.14598 0.6742 0.88866 0.0
N79 N 0.14369 0.59822 0.91378 0.0
C80 C 0.18157 0.80481 0.9146 0.0
H81 H 0.15834 0.83597 0.88608 0.0
H82 H 0.20792 0.81259 0.88389 0.0
H83 H 0.18575 0.8346 0.9666 0.0
C84 C 0.15248 0.8038 0.6338 0.0
N85 N 0.12748 0.7861 0.68495 0.0
N86 N 0.1449 0.74775 0.73631 0.0
C87 C 0.18155 0.73755 0.71817 0.0
C88 C 0.18744 0.77335 0.65291 0.0
C89 C 0.14279 0.84703 0.56687 0.0
H90 H 0.12327 0.89926 0.57792 0.0
H91 H 0.16838 0.87111 0.54013 0.0
H92 H 0.12849 0.80268 0.53132 0.0
O93 O 0.05169 0.68097 0.69271 0.0
O94 O 0.07864 0.62716 0.78751 0.0
H95 H 0.19437 0.63721 0.78847 0.0
H96 H 0.22889 0.65382 0.71977 0.0
C97 C 0.20918 0.68481 0.757 0.0
H98 H 0.22623 0.72432 0.79227 0.0
H99 H 0.12476 0.55359 0.89583 0.0
O100 O 0.05814 0.83406 0.59214 0.0
C101 C 0.05504 0.623 0.73735 0.0
Co102 Co 0.93439 0.1852 0.68175 0.0
Co103 Co 0.8875 0.25964 0.80811 0.0
C104 C 0.9473 0.13159 0.83012 0.0
O105 O 0.95551 0.12687 0.76492 0.0
O106 O 0.92046 0.17727 0.85221 0.0
C107 C 0.98765 0.10703 0.58495 0.0
O108 O 0.01002 0.09896 0.6393 0.0
C109 C 0.8341 0.26485 0.92846 0.0
C110 C 0.81598 0.39556 0.92541 0.0
C111 C 0.81005 0.32181 0.96054 0.0
N112 N 0.85281 0.30329 0.87613 0.0
N113 N 0.84206 0.38161 0.87522 0.0
C114 C 0.83965 0.17581 0.9475 0.0
H115 H 0.86903 0.15635 0.93709 0.0
H116 H 0.82085 0.13677 0.91488 0.0
H117 H 0.83302 0.16519 0.00377 0.0
C118 C 0.85761 0.16503 0.62445 0.0
N119 N 0.88098 0.18506 0.67742 0.0
N120 N 0.86114 0.21643 0.72964 0.0
C121 C 0.82434 0.21664 0.7118 0.0
C122 C 0.82086 0.18437 0.64439 0.0
C123 C 0.87104 0.13723 0.55348 0.0
H124 H 0.89206 0.18214 0.5333 0.0
H125 H 0.88524 0.07627 0.55832 0.0
H126 H 0.84775 0.13245 0.51511 0.0
O127 O 0.95337 0.2996 0.68778 0.0
O128 O 0.92227 0.35048 0.78017 0.0
H129 H 0.79618 0.31455 0.76689 0.0
H130 H 0.76496 0.2337 0.73634 0.0
C131 C 0.79315 0.2469 0.75859 0.0
H132 H 0.79515 0.216 0.81021 0.0
H133 H 0.85201 0.42521 0.83932 0.0
O134 O 0.95511 0.13866 0.59345 0.0
C135 C 0.94695 0.3576 0.73162 0.0
Co136 Co 0.56779 0.69692 0.68819 0.0
Co137 Co 0.61622 0.76382 0.56127 0.0
C138 C 0.5571 0.63611 0.53972 0.0
O139 O 0.54824 0.63587 0.60474 0.0
O140 O 0.58419 0.68005 0.51668 0.0
C141 C 0.54508 0.58495 0.80342 0.0
O142 O 0.56676 0.52692 0.77643 0.0
C143 C 0.67104 0.7693 0.44156 0.0
C144 C 0.6908 0.89817 0.4513 0.0
C145 C 0.69617 0.82634 0.41281 0.0
N146 N 0.65224 0.80615 0.49501 0.0
N147 N 0.66403 0.88342 0.49982 0.0
C148 C 0.66452 0.68195 0.41827 0.0
H149 H 0.63514 0.66307 0.42918 0.0
H150 H 0.68354 0.64016 0.44777 0.0
H151 H 0.67029 0.67486 0.36123 0.0
C152 C 0.64466 0.68191 0.75027 0.0
N153 N 0.62132 0.69703 0.69599 0.0
N154 N 0.64154 0.72178 0.64176 0.0
C155 C 0.67841 0.71981 0.65907 0.0
C156 C 0.6815 0.69476 0.72827 0.0
C157 C 0.63199 0.65956 0.82289 0.0
H158 H 0.60536 0.69214 0.83612 0.0
H159 H 0.62736 0.59185 0.82536 0.0
H160 H 0.65349 0.67525 0.86274 0.0
O161 O 0.54967 0.8111 0.67944 0.0
O162 O 0.58122 0.85727 0.58633 0.0
H163 H 0.70667 0.81498 0.60182 0.0
H164 H 0.7379 0.73755 0.6367 0.0
C165 C 0.70993 0.74795 0.61241 0.0
H166 H 0.70874 0.714 0.56184 0.0
H167 H 0.65435 0.92563 0.53743 0.0
O168 O 0.54273 0.6552 0.77408 0.0
C169 C 0.55657 0.8673 0.6347 0.0
Co170 Co 0.43033 0.30746 0.67933 0.0
Co171 Co 0.38775 0.22313 0.55485 0.0
C172 C 0.44327 0.36036 0.53176 0.0
O173 O 0.45064 0.36692 0.59697 0.0
O174 O 0.41796 0.31098 0.50954 0.0
C175 C 0.48277 0.35593 0.78322 0.0
O176 O 0.50728 0.32866 0.73654 0.0
C177 C 0.3315 0.21419 0.4433 0.0
C178 C 0.32623 0.07931 0.42729 0.0
C179 C 0.31193 0.15467 0.40514 0.0
N180 N 0.35583 0.17532 0.48593 0.0
N181 N 0.3529 0.09478 0.4755 0.0
C182 C 0.32543 0.30588 0.44436 0.0
H183 H 0.33722 0.33337 0.49302 0.0
H184 H 0.29492 0.3207 0.44068 0.0
H185 H 0.34018 0.33381 0.39872 0.0
C186 C 0.3526 0.32755 0.73199 0.0
N187 N 0.37713 0.30315 0.68185 0.0
N188 N 0.3589 0.26282 0.63253 0.0
C189 C 0.3221 0.25814 0.65102 0.0
C190 C 0.31691 0.30008 0.71413 0.0
C191 C 0.36387 0.36951 0.79887 0.0
H192 H 0.38078 0.42539 0.78652 0.0
H193 H 0.3391 0.38754 0.83129 0.0
H194 H 0.38181 0.3268 0.82973 0.0
O195 O 0.45298 0.19506 0.67544 0.0
O196 O 0.42507 0.13812 0.58293 0.0
H197 H 0.30461 0.15322 0.59 0.0
H198 H 0.26761 0.1986 0.64367 0.0
C199 C 0.29271 0.21201 0.61063 0.0
H200 H 0.28349 0.25026 0.56566 0.0
H201 H 0.36842 0.05034 0.50262 0.0
O202 O 0.44809 0.3574 0.76745 0.0
C203 C 0.44935 0.13565 0.63194 0.0
Co204 Co 0.57301 0.29535 0.18345 0.0
Co205 Co 0.61432 0.21865 0.3129 0.0
C206 C 0.55689 0.35517 0.32781 0.0
O207 O 0.55022 0.35828 0.26216 0.0
O208 O 0.58229 0.30769 0.35255 0.0
C209 C 0.52298 0.35369 0.07523 0.0
O210 O 0.49633 0.3484 0.1232 0.0
C211 C 0.67154 0.21556 0.42454 0.0
C212 C 0.67044 0.08392 0.45462 0.0
C213 C 0.68865 0.1579 0.46851 0.0
N214 N 0.64515 0.17641 0.38627 0.0
N215 N 0.64432 0.09795 0.40523 0.0
C216 C 0.68111 0.30505 0.41533 0.0
H217 H 0.669 0.32912 0.36579 0.0
H218 H 0.71215 0.31388 0.41525 0.0
H219 H 0.66887 0.34107 0.45964 0.0
C220 C 0.65149 0.3178 0.13609 0.0
N221 N 0.6263 0.29423 0.18518 0.0
N222 N 0.644 0.25515 0.23579 0.0
C223 C 0.68096 0.24948 0.21871 0.0
C224 C 0.68684 0.29042 0.15575 0.0
C225 C 0.64141 0.35944 0.06865 0.0
H226 H 0.62167 0.4114 0.07926 0.0
H227 H 0.6668 0.38321 0.04102 0.0
H228 H 0.62707 0.31414 0.03404 0.0
O229 O 0.55189 0.18197 0.18912 0.0
O230 O 0.57878 0.13033 0.28465 0.0
H231 H 0.696 0.14779 0.28574 0.0
H232 H 0.73188 0.17646 0.22242 0.0
C233 C 0.7096 0.20036 0.25832 0.0
H234 H 0.72336 0.24092 0.29758 0.0
H235 H 0.62652 0.05356 0.38333 0.0
O236 O 0.55683 0.33791 0.0918 0.0
C237 C 0.55562 0.12439 0.234 0.0
Co238 Co 0.43449 0.68299 0.18268 0.0
Co239 Co 0.38934 0.7605 0.30894 0.0
C240 C 0.44788 0.62796 0.32915 0.0
O241 O 0.45587 0.62234 0.26397 0.0
O242 O 0.4218 0.67571 0.35116 0.0
C243 C 0.48668 0.60592 0.08418 0.0
O244 O 0.50908 0.59668 0.13835 0.0
C245 C 0.3319 0.75448 0.41967 0.0
C246 C 0.332 0.88293 0.45964 0.0
C247 C 0.31541 0.8063 0.46934 0.0
N248 N 0.35677 0.79884 0.38191 0.0
N249 N 0.35683 0.87552 0.40625 0.0
C250 C 0.32665 0.66295 0.41206 0.0
H251 H 0.34973 0.63547 0.38003 0.0
H252 H 0.29952 0.64991 0.38566 0.0
H253 H 0.32567 0.6335 0.46463 0.0
C254 C 0.3571 0.66251 0.12818 0.0
N255 N 0.38094 0.68375 0.18004 0.0
N256 N 0.36178 0.72025 0.23079 0.0
C257 C 0.32515 0.72488 0.21205 0.0
C258 C 0.32097 0.68796 0.14661 0.0
C259 C 0.36902 0.62038 0.06153 0.0
H260 H 0.38903 0.56956 0.07353 0.0
H261 H 0.34448 0.59465 0.03291 0.0
H262 H 0.38373 0.6657 0.02739 0.0
O263 O 0.45434 0.79742 0.18935 0.0
O264 O 0.42397 0.85112 0.28142 0.0
H265 H 0.30858 0.82517 0.28031 0.0
H266 H 0.27416 0.79801 0.21451 0.0
C267 C 0.29563 0.77316 0.25109 0.0
H268 H 0.28105 0.73187 0.28875 0.0
H269 H 0.37402 0.92261 0.38675 0.0
O270 O 0.4543 0.63817 0.09313 0.0
C271 C 0.44854 0.85648 0.23254 0.0
C272 C 0.01901 0.48218 0.19847 0.0
C273 C 0.03223 0.4469 0.13541 0.0
H274 H 0.98288 0.57309 0.24658 0.0
C275 C 0.01831 0.47631 0.07129 0.0
H276 H 0.02916 0.45997 0.24857 0.0
C277 C 0.9908 0.53828 0.07031 0.0
C278 C 0.97754 0.57359 0.13333 0.0
H279 H 0.02763 0.44924 0.02201 0.0
H280 H 0.98028 0.55941 0.02012 0.0
C281 C 0.99239 0.54617 0.19738 0.0
C282 C 0.98766 0.46046 0.66925 0.0
C283 C 0.97258 0.42926 0.73216 0.0
H284 H 0.02549 0.54765 0.62159 0.0
C285 C 0.98525 0.46129 0.79649 0.0
H286 H 0.97854 0.43612 0.61905 0.0
C287 C 0.01308 0.52228 0.79798 0.0
C288 C 0.02796 0.55401 0.73514 0.0
H289 H 0.97451 0.43731 0.84576 0.0
H290 H 0.02246 0.54574 0.84833 0.0
C291 C 0.01464 0.52352 0.67072 0.0
C292 C 0.5184 0.97485 0.69767 0.0
C293 C 0.53184 0.94074 0.63429 0.0
H294 H 0.48197 0.06456 0.74664 0.0
C295 C 0.51795 0.97109 0.57045 0.0
H296 H 0.5285 0.95191 0.74757 0.0
C297 C 0.49029 0.03282 0.57004 0.0
C298 C 0.47682 0.06699 0.63339 0.0
H299 H 0.52743 0.94496 0.52092 0.0
H300 H 0.47981 0.05466 0.52005 0.0
C301 C 0.49163 0.03859 0.69718 0.0
C302 C 0.48699 0.96155 0.29539 0.0
C303 C 0.47442 0.92779 0.23165 0.0
H304 H 0.52365 0.04818 0.34581 0.0
C305 C 0.48934 0.95792 0.16819 0.0
H306 H 0.47636 0.93856 0.34508 0.0
C307 C 0.51594 0.02191 0.16857 0.0
C308 C 0.52906 0.05431 0.23248 0.0
H309 H 0.48026 0.93233 0.11842 0.0
H310 H 0.52659 0.04537 0.11907 0.0
C311 C 0.51444 0.02334 0.29583 0.0
C312 C 0.2512 0.10388 0.35586 0.0
C313 C 0.27943 0.16487 0.35737 0.0
H314 H 0.19823 0.06546 0.31335 0.0
C315 C 0.27606 0.23397 0.31317 0.0
H316 H 0.25308 0.04953 0.38885 0.0
C317 C 0.2444 0.24327 0.27033 0.0
C318 C 0.21581 0.18325 0.27048 0.0
H319 H 0.29786 0.28061 0.31109 0.0
H320 H 0.24199 0.29807 0.23804 0.0
C321 C 0.21968 0.11314 0.31305 0.0
C322 C 0.73578 0.88618 0.31691 0.0
C323 C 0.72489 0.81658 0.35638 0.0
H324 H 0.77412 0.93607 0.24043 0.0
C325 C 0.74415 0.74134 0.34556 0.0
H326 H 0.72179 0.94527 0.32437 0.0
C327 C 0.77369 0.73613 0.2967 0.0
C328 C 0.78483 0.80625 0.25877 0.0
H329 H 0.73784 0.68745 0.37693 0.0
H330 H 0.78888 0.67828 0.2906 0.0
C331 C 0.76555 0.88109 0.26874 0.0
C332 C 0.25258 0.74482 0.49757 0.0
C333 C 0.28466 0.78843 0.51949 0.0
H334 H 0.19643 0.70584 0.52343 0.0
C335 C 0.28554 0.82196 0.58767 0.0
H336 H 0.25065 0.72048 0.44473 0.0
C337 C 0.25455 0.81317 0.63279 0.0
C338 C 0.22199 0.77256 0.60959 0.0
H339 H 0.30991 0.85635 0.60551 0.0
H340 H 0.25534 0.84123 0.68452 0.0
C341 C 0.22143 0.73721 0.54223 0.0
C342 C 0.77742 0.10308 0.56802 0.0
C343 C 0.78638 0.17795 0.60122 0.0
H344 H 0.7399 0.03872 0.49971 0.0
C345 C 0.76262 0.24667 0.592 0.0
H346 H 0.79513 0.04901 0.57491 0.0
C347 C 0.73057 0.24074 0.54965 0.0
C348 C 0.72201 0.16624 0.5149 0.0
H349 H 0.76901 0.3052 0.61713 0.0
H350 H 0.71244 0.29424 0.54522 0.0
C351 C 0.74564 0.09727 0.52534 0.0
C352 C 0.75279 0.73928 0.86997 0.0
C353 C 0.78046 0.67891 0.85615 0.0
H354 H 0.6998 0.79196 0.83935 0.0
C355 C 0.77558 0.62482 0.79889 0.0
H356 H 0.75484 0.77983 0.91504 0.0
C357 C 0.74369 0.63104 0.75636 0.0
C358 C 0.71599 0.6907 0.77099 0.0
H359 H 0.79629 0.57721 0.78737 0.0
H360 H 0.74026 0.5883 0.71289 0.0
C361 C 0.72094 0.7454 0.82744 0.0
C362 C 0.23737 0.39246 0.8208 0.0
C363 C 0.22343 0.32273 0.85646 0.0
H364 H 0.27782 0.43933 0.74673 0.0
C365 C 0.23897 0.24452 0.84109 0.0
H366 H 0.22625 0.45362 0.83212 0.0
C367 C 0.2681 0.23648 0.79168 0.0
C368 C 0.28253 0.30656 0.75773 0.0
H369 H 0.23011 0.19013 0.86974 0.0
H370 H 0.28062 0.17615 0.7825 0.0
C371 C 0.26668 0.38442 0.7719 0.0
C372 C 0.73088 0.22772 0.06865 0.0
C373 C 0.72139 0.29401 0.11291 0.0
H374 H 0.76553 0.18498 0.98402 0.0
C375 C 0.74225 0.36743 0.10972 0.0
H376 H 0.71435 0.17137 0.06941 0.0
C377 C 0.77204 0.37498 0.06183 0.0
C378 C 0.7813 0.30928 0.01621 0.0
H379 H 0.73477 0.41968 0.14281 0.0
H380 H 0.78729 0.43299 0.05937 0.0
C381 C 0.76045 0.2354 0.02031 0.0
C382 C 0.2545 0.71244 0.99325 0.0
C383 C 0.22176 0.67357 0.01856 0.0
H384 H 0.31175 0.74706 0.01424 0.0
C385 C 0.22167 0.6407 0.08681 0.0
H386 H 0.25583 0.73597 0.94017 0.0
C387 C 0.25368 0.64714 0.12915 0.0
C388 C 0.28657 0.68458 0.1032 0.0
H389 H 0.19689 0.60966 0.10724 0.0
H390 H 0.2531 0.62106 0.18149 0.0
C391 C 0.28666 0.71767 0.03516 0.0
C392 C 0.99308 0.10413 0.38674 0.0
C393 C 0.03054 0.07986 0.37497 0.0
H394 H 0.94981 0.12932 0.4621 0.0
C395 C 0.05306 0.05729 0.43221 0.0
H396 H 0.9753 0.12207 0.34323 0.0
C397 C 0.03881 0.06318 0.50077 0.0
C398 C 1.00164 0.09056 0.51285 0.0
H399 H 0.08219 0.0391 0.42426 0.0
H400 H 0.05721 0.04846 0.54422 0.0
C401 C 0.97862 0.10851 0.45489 0.0
C402 C 0.04269 0.8542 0.44886 0.0
C403 C 0.0151 0.86642 0.50125 0.0
H404 H 0.05482 0.84449 0.33909 0.0
C405 C 0.97811 0.88598 0.48112 0.0
H406 H 0.07158 0.83994 0.46244 0.0
C407 C 0.96854 0.8891 0.41005 0.0
C408 C 0.99573 0.87212 0.35781 0.0
H409 H 0.95632 0.89679 0.52018 0.0
H410 H 0.93952 0.90178 0.39625 0.0
C411 C 0.03312 0.85708 0.37795 0.0
C412 C 0.0407 0.89943 0.94878 0.0
C413 C 0.03155 0.89147 0.8774 0.0
H414 H 0.02024 0.90181 0.05447 0.0
C415 C 0.9935 0.89696 0.85736 0.0
H416 H 0.06979 0.89582 0.96568 0.0
C417 C 0.965 0.89888 0.90831 0.0
C418 C 0.97413 0.89716 0.98 0.0
H419 H 0.98548 0.89099 0.80276 0.0
H420 H 0.93589 0.89481 0.89164 0.0
C421 C 0.01222 0.90304 0.99966 0.0
C422 C 0.04083 0.10166 0.9169 0.0
C423 C 0.03039 0.10928 0.98798 0.0
H424 H 0.02228 0.09958 0.81025 0.0
C425 C 0.99202 0.1031 0.00625 0.0
H426 H 0.07019 0.10482 0.90121 0.0
C427 C 0.96451 0.10045 0.95407 0.0
C428 C 0.97486 0.10289 0.88273 0.0
H429 H 0.98294 0.10815 0.06049 0.0
H430 H 0.93511 0.10319 0.96965 0.0
C431 C 0.01331 0.09811 0.8647 0.0
C432 C 0.4772 0.60703 0.95423 0.0
C433 C 0.50039 0.58917 0.01198 0.0
H434 H 0.47349 0.61926 0.84247 0.0
C435 C 0.53744 0.56117 0.99961 0.0
H436 H 0.4485 0.62845 0.96174 0.0
C437 C 0.55136 0.55416 0.93091 0.0
C438 C 0.52862 0.57611 0.87385 0.0
H439 H 0.55597 0.54662 0.0429 0.0
H440 H 0.5804 0.53539 0.92264 0.0
C441 C 0.49135 0.60149 0.88591 0.0
C442 C 0.46689 0.38634 0.90905 0.0
C443 C 0.49411 0.36857 0.85703 0.0
H444 H 0.45466 0.39582 0.01909 0.0
C445 C 0.53151 0.35406 0.87732 0.0
H446 H 0.43786 0.39866 0.8951 0.0
C447 C 0.54108 0.35252 0.94824 0.0
C448 C 0.51346 0.36549 0.00047 0.0
H449 H 0.55321 0.34083 0.83862 0.0
H450 H 0.56996 0.33851 0.962 0.0
C451 C 0.47645 0.38446 0.98014 0.0
C452 C 0.49057 0.39267 0.35756 0.0
C453 C 0.52865 0.38841 0.37769 0.0
H454 H 0.43295 0.38836 0.39163 0.0
C455 C 0.53768 0.39567 0.44915 0.0
H456 H 0.48266 0.38719 0.30287 0.0
C457 C 0.50916 0.39769 0.49993 0.0
C458 C 0.47111 0.39095 0.48012 0.0
H459 H 0.56678 0.39307 0.46615 0.0
H460 H 0.51718 0.39623 0.55473 0.0
C461 C 0.46202 0.39312 0.40842 0.0
C462 C 0.49177 0.59684 0.5055 0.0
C463 C 0.5302 0.60289 0.48773 0.0
H464 H 0.43498 0.59802 0.4681 0.0
C465 C 0.5409 0.59618 0.41671 0.0
H466 H 0.48252 0.60154 0.55968 0.0
C467 C 0.51357 0.59319 0.36416 0.0
C468 C 0.47508 0.59797 0.38177 0.0
H469 H 0.57031 0.59986 0.40139 0.0
H470 H 0.52273 0.59538 0.30983 0.0
C471 C 0.46445 0.59495 0.45295 0.0
loop_
_geom_bond_atom_site_label_1
_geom_bond_atom_site_label_2
_geom_bond_distance
_geom_bond_site_symmetry_2
_ccdc_geom_bond_type
Co0 O3 1.970 . S
Co0 N17 1.989 . S
Co0 O25 1.967 . S
Co0 O32 1.920 . S
Co1 O4 1.966 . S
Co1 N10 2.022 1_554 S
Co1 N18 1.993 . S
Co1 O26 1.941 . S
C2 O3 1.258 . S
C2 O4 1.263 . S
O3 Co0 1.970 . S
O3 C2 1.258 . S
O4 Co1 1.966 . S
O4 C2 1.263 . S
C5 O6 1.235 . S
C5 O32 1.289 . S
O6 C5 1.235 . S
C7 C9 1.400 . S
C7 N10 1.351 . S
C7 C12 1.501 . S
C8 C9 1.387 . S
C8 N11 1.341 . S
C9 C7 1.400 . S
C9 C8 1.387 . S
N10 Co1 2.022 1_556 S
N10 C7 1.351 . S
N10 N11 1.365 . S
N11 C8 1.341 . S
N11 N10 1.365 . S
N11 H31 0.862 1_556 S
C12 C7 1.501 . S
C12 H13 0.961 . S
C12 H14 0.961 . S
C12 H15 0.960 . S
H13 C12 0.961 . S
H14 C12 0.961 . S
H15 C12 0.960 . S
C16 N17 1.342 . S
C16 C20 1.401 . S
C16 C21 1.499 . S
N17 Co0 1.989 . S
N17 C16 1.342 . S
N17 N18 1.388 . S
N18 Co1 1.993 . S
N18 N17 1.388 . S
N18 C19 1.346 . S
C19 N18 1.346 . S
C19 C20 1.396 . S
C19 C29 1.510 . S
C20 C16 1.401 . S
C20 C19 1.396 . S
C21 C16 1.499 . S
C21 H22 0.959 . S
C21 H23 0.960 . S
C21 H24 0.961 . S
H22 C21 0.959 . S
H23 C21 0.960 . S
H24 C21 0.961 . S
O25 Co0 1.967 . S
O25 C33 1.258 . S
O26 Co1 1.941 . S
O26 C33 1.266 . S
H27 C29 0.959 . S
H28 C29 0.961 . S
C29 C19 1.510 . S
C29 H27 0.959 . S
C29 H28 0.961 . S
C29 H30 0.960 . S
H30 C29 0.960 . S
H31 N11 0.862 1_554 S
O32 Co0 1.920 . S
O32 C5 1.289 . S
C33 O25 1.258 . S
C33 O26 1.266 . S
Co34 O37 1.970 . S
Co34 N51 1.989 . S
Co34 O59 1.967 . S
Co34 O66 1.920 . S
Co35 O38 1.966 . S
Co35 N44 2.022 1_554 S
Co35 N52 1.993 . S
Co35 O60 1.941 . S
C36 O37 1.258 . S
C36 O38 1.263 . S
O37 Co34 1.970 . S
O37 C36 1.258 . S
O38 Co35 1.966 . S
O38 C36 1.263 . S
C39 O40 1.235 . S
C39 O66 1.289 . S
O40 C39 1.235 . S
C41 C43 1.400 . S
C41 N44 1.351 . S
C41 C46 1.501 . S
C42 C43 1.387 . S
C42 N45 1.341 . S
C43 C41 1.400 . S
C43 C42 1.387 . S
N44 Co35 2.022 1_556 S
N44 C41 1.351 . S
N44 N45 1.365 . S
N45 C42 1.341 . S
N45 N44 1.365 . S
N45 H65 0.862 1_556 S
C46 C41 1.501 . S
C46 H47 0.961 . S
C46 H48 0.961 . S
C46 H49 0.960 . S
H47 C46 0.961 . S
H48 C46 0.961 . S
H49 C46 0.960 . S
C50 N51 1.342 . S
C50 C54 1.401 . S
C50 C55 1.499 . S
N51 Co34 1.989 . S
N51 C50 1.342 . S
N51 N52 1.388 . S
N52 Co35 1.993 . S
N52 N51 1.388 . S
N52 C53 1.346 . S
C53 N52 1.346 . S
C53 C54 1.396 . S
C53 C63 1.510 . S
C54 C50 1.401 . S
C54 C53 1.396 . S
C55 C50 1.499 . S
C55 H56 0.959 . S
C55 H57 0.960 . S
C55 H58 0.961 . S
H56 C55 0.959 . S
H57 C55 0.960 . S
H58 C55 0.961 . S
O59 Co34 1.967 . S
O59 C67 1.258 . S
O60 Co35 1.941 . S
O60 C67 1.266 . S
H61 C63 0.959 . S
H62 C63 0.961 . S
C63 C53 1.510 . S
C63 H61 0.959 . S
C63 H62 0.961 . S
C63 H64 0.960 . S
H64 C63 0.960 . S
H65 N45 0.862 1_554 S
O66 Co34 1.920 . S
O66 C39 1.289 . S
C67 O59 1.258 . S
C67 O60 1.266 . S
Co68 O71 1.970 . S
Co68 N85 1.989 . S
Co68 O93 1.967 . S
Co68 O100 1.920 . S
Co69 O72 1.966 . S
Co69 N78 2.022 . S
Co69 N86 1.993 . S
Co69 O94 1.941 . S
C70 O71 1.258 . S
C70 O72 1.263 . S
O71 Co68 1.970 . S
O71 C70 1.258 . S
O72 Co69 1.966 . S
O72 C70 1.263 . S
C73 O74 1.235 . S
C73 O100 1.289 . S
O74 C73 1.235 . S
C75 C77 1.400 . S
C75 N78 1.351 . S
C75 C80 1.501 . S
C76 C77 1.387 . S
C76 N79 1.341 . S
C77 C75 1.400 . S
C77 C76 1.387 . S
N78 Co69 2.022 . S
N78 C75 1.351 . S
N78 N79 1.365 . S
N79 C76 1.341 . S
N79 N78 1.365 . S
N79 H99 0.862 . S
C80 C75 1.501 . S
C80 H81 0.961 . S
C80 H82 0.961 . S
C80 H83 0.960 1_556 S
H81 C80 0.961 . S
H82 C80 0.961 . S
H83 C80 0.960 1_554 S
C84 N85 1.342 . S
C84 C88 1.401 . S
C84 C89 1.499 . S
N85 Co68 1.989 . S
N85 C84 1.342 . S
N85 N86 1.388 . S
N86 Co69 1.993 . S
N86 N85 1.388 . S
N86 C87 1.346 . S
C87 N86 1.346 . S
C87 C88 1.396 . S
C87 C97 1.510 . S
C88 C84 1.401 . S
C88 C87 1.396 . S
C89 C84 1.499 . S
C89 H90 0.959 . S
C89 H91 0.960 . S
C89 H92 0.961 . S
H90 C89 0.959 . S
H91 C89 0.960 . S
H92 C89 0.961 . S
O93 Co68 1.967 . S
O93 C101 1.258 . S
O94 Co69 1.941 . S
O94 C101 1.266 . S
H95 C97 0.959 . S
H96 C97 0.961 . S
C97 C87 1.510 . S
C97 H95 0.959 . S
C97 H96 0.961 . S
C97 H98 0.960 . S
H98 C97 0.960 . S
H99 N79 0.862 . S
O100 Co68 1.920 . S
O100 C73 1.289 . S
C101 O93 1.258 . S
C101 O94 1.266 . S
Co102 O105 1.970 . S
Co102 N119 1.989 . S
Co102 O127 1.967 . S
Co102 O134 1.920 . S
Co103 O106 1.966 . S
Co103 N112 2.022 . S
Co103 N120 1.993 . S
Co103 O128 1.941 . S
C104 O105 1.258 . S
C104 O106 1.263 . S
O105 Co102 1.970 . S
O105 C104 1.258 . S
O106 Co103 1.966 . S
O106 C104 1.263 . S
C107 O108 1.235 . S
C107 O134 1.289 . S
O108 C107 1.235 . S
C109 C111 1.400 . S
C109 N112 1.351 . S
C109 C114 1.501 . S
C110 C111 1.387 . S
C110 N113 1.341 . S
C111 C109 1.400 . S
C111 C110 1.387 . S
N112 Co103 2.022 . S
N112 C109 1.351 . S
N112 N113 1.365 . S
N113 C110 1.341 . S
N113 N112 1.365 . S
N113 H133 0.862 . S
C114 C109 1.501 . S
C114 H115 0.961 . S
C114 H116 0.961 . S
C114 H117 0.960 1_556 S
H115 C114 0.961 . S
H116 C114 0.961 . S
H117 C114 0.960 1_554 S
C118 N119 1.342 . S
C118 C122 1.401 . S
C118 C123 1.499 . S
N119 Co102 1.989 . S
N119 C118 1.342 . S
N119 N120 1.388 . S
N120 Co103 1.993 . S
N120 N119 1.388 . S
N120 C121 1.346 . S
C121 N120 1.346 . S
C121 C122 1.396 . S
C121 C131 1.510 . S
C122 C118 1.401 . S
C122 C121 1.396 . S
C123 C118 1.499 . S
C123 H124 0.959 . S
C123 H125 0.960 . S
C123 H126 0.961 . S
H124 C123 0.959 . S
H125 C123 0.960 . S
H126 C123 0.961 . S
O127 Co102 1.967 . S
O127 C135 1.258 . S
O128 Co103 1.941 . S
O128 C135 1.266 . S
H129 C131 0.959 . S
H130 C131 0.961 . S
C131 C121 1.510 . S
C131 H129 0.959 . S
C131 H130 0.961 . S
C131 H132 0.960 . S
H132 C131 0.960 . S
H133 N113 0.862 . S
O134 Co102 1.920 . S
O134 C107 1.289 . S
C135 O127 1.258 . S
C135 O128 1.266 . S
Co136 O139 1.970 . S
Co136 N153 1.989 . S
Co136 O161 1.967 . S
Co136 O168 1.920 . S
Co137 O140 1.966 . S
Co137 N146 2.022 . S
Co137 N154 1.993 . S
Co137 O162 1.941 . S
C138 O139 1.258 . S
C138 O140 1.263 . S
O139 Co136 1.970 . S
O139 C138 1.258 . S
O140 Co137 1.966 . S
O140 C138 1.263 . S
C141 O142 1.235 . S
C141 O168 1.289 . S
O142 C141 1.235 . S
C143 C145 1.400 . S
C143 N146 1.351 . S
C143 C148 1.501 . S
C144 C145 1.387 . S
C144 N147 1.341 . S
C145 C143 1.400 . S
C145 C144 1.387 . S
N146 Co137 2.022 . S
N146 C143 1.351 . S
N146 N147 1.365 . S
N147 C144 1.341 . S
N147 N146 1.365 . S
N147 H167 0.862 . S
C148 C143 1.501 . S
C148 H149 0.961 . S
C148 H150 0.961 . S
C148 H151 0.960 . S
H149 C148 0.961 . S
H150 C148 0.961 . S
H151 C148 0.960 . S
C152 N153 1.342 . S
C152 C156 1.401 . S
C152 C157 1.499 . S
N153 Co136 1.989 . S
N153 C152 1.342 . S
N153 N154 1.388 . S
N154 Co137 1.993 . S
N154 N153 1.388 . S
N154 C155 1.346 . S
C155 N154 1.346 . S
C155 C156 1.396 . S
C155 C165 1.510 . S
C156 C152 1.401 . S
C156 C155 1.396 . S
C157 C152 1.499 . S
C157 H158 0.959 . S
C157 H159 0.960 . S
C157 H160 0.961 . S
H158 C157 0.959 . S
H159 C157 0.960 . S
H160 C157 0.961 . S
O161 Co136 1.967 . S
O161 C169 1.258 . S
O162 Co137 1.941 . S
O162 C169 1.266 . S
H163 C165 0.959 . S
H164 C165 0.961 . S
C165 C155 1.510 . S
C165 H163 0.959 . S
C165 H164 0.961 . S
C165 H166 0.960 . S
H166 C165 0.960 . S
H167 N147 0.862 . S
O168 Co136 1.920 . S
O168 C141 1.289 . S
C169 O161 1.258 . S
C169 O162 1.266 . S
Co170 O173 1.970 . S
Co170 N187 1.989 . S
Co170 O195 1.967 . S
Co170 O202 1.920 . S
Co171 O174 1.966 . S
Co171 N180 2.022 . S
Co171 N188 1.993 . S
Co171 O196 1.941 . S
C172 O173 1.258 . S
C172 O174 1.263 . S
O173 Co170 1.970 . S
O173 C172 1.258 . S
O174 Co171 1.966 . S
O174 C172 1.263 . S
C175 O176 1.235 . S
C175 O202 1.289 . S
O176 C175 1.235 . S
C177 C179 1.400 . S
C177 N180 1.351 . S
C177 C182 1.501 . S
C178 C179 1.387 . S
C178 N181 1.341 . S
C179 C177 1.400 . S
C179 C178 1.387 . S
N180 Co171 2.022 . S
N180 C177 1.351 . S
N180 N181 1.365 . S
N181 C178 1.341 . S
N181 N180 1.365 . S
N181 H201 0.862 . S
C182 C177 1.501 . S
C182 H183 0.961 . S
C182 H184 0.961 . S
C182 H185 0.960 . S
H183 C182 0.961 . S
H184 C182 0.961 . S
H185 C182 0.960 . S
C186 N187 1.342 . S
C186 C190 1.401 . S
C186 C191 1.499 . S
N187 Co170 1.989 . S
N187 C186 1.342 . S
N187 N188 1.388 . S
N188 Co171 1.993 . S
N188 N187 1.388 . S
N188 C189 1.346 . S
C189 N188 1.346 . S
C189 C190 1.396 . S
C189 C199 1.510 . S
C190 C186 1.401 . S
C190 C189 1.396 . S
C191 C186 1.499 . S
C191 H192 0.959 . S
C191 H193 0.960 . S
C191 H194 0.961 . S
H192 C191 0.959 . S
H193 C191 0.960 . S
H194 C191 0.961 . S
O195 Co170 1.967 . S
O195 C203 1.258 . S
O196 Co171 1.941 . S
O196 C203 1.266 . S
H197 C199 0.959 . S
H198 C199 0.961 . S
C199 C189 1.510 . S
C199 H197 0.959 . S
C199 H198 0.961 . S
C199 H200 0.960 . S
H200 C199 0.960 . S
H201 N181 0.862 . S
O202 Co170 1.920 . S
O202 C175 1.289 . S
C203 O195 1.258 . S
C203 O196 1.266 . S
Co204 O207 1.970 . S
Co204 N221 1.989 . S
Co204 O229 1.967 . S
Co204 O236 1.920 . S
Co205 O208 1.966 . S
Co205 N214 2.022 . S
Co205 N222 1.993 . S
Co205 O230 1.941 . S
C206 O207 1.258 . S
C206 O208 1.263 . S
O207 Co204 1.970 . S
O207 C206 1.258 . S
O208 Co205 1.966 . S
O208 C206 1.263 . S
C209 O210 1.235 . S
C209 O236 1.289 . S
O210 C209 1.235 . S
C211 C213 1.400 . S
C211 N214 1.351 . S
C211 C216 1.501 . S
C212 C213 1.387 . S
C212 N215 1.341 . S
C213 C211 1.400 . S
C213 C212 1.387 . S
N214 Co205 2.022 . S
N214 C211 1.351 . S
N214 N215 1.365 . S
N215 C212 1.341 . S
N215 N214 1.365 . S
N215 H235 0.862 . S
C216 C211 1.501 . S
C216 H217 0.961 . S
C216 H218 0.961 . S
C216 H219 0.960 . S
H217 C216 0.961 . S
H218 C216 0.961 . S
H219 C216 0.960 . S
C220 N221 1.342 . S
C220 C224 1.401 . S
C220 C225 1.499 . S
N221 Co204 1.989 . S
N221 C220 1.342 . S
N221 N222 1.388 . S
N222 Co205 1.993 . S
N222 N221 1.388 . S
N222 C223 1.346 . S
C223 N222 1.346 . S
C223 C224 1.396 . S
C223 C233 1.510 . S
C224 C220 1.401 . S
C224 C223 1.396 . S
C225 C220 1.499 . S
C225 H226 0.959 . S
C225 H227 0.960 . S
C225 H228 0.961 . S
H226 C225 0.959 . S
H227 C225 0.960 . S
H228 C225 0.961 . S
O229 Co204 1.967 . S
O229 C237 1.258 . S
O230 Co205 1.941 . S
O230 C237 1.266 . S
H231 C233 0.959 . S
H232 C233 0.961 . S
C233 C223 1.510 . S
C233 H231 0.959 . S
C233 H232 0.961 . S
C233 H234 0.960 . S
H234 C233 0.960 . S
H235 N215 0.862 . S
O236 Co204 1.920 . S
O236 C209 1.289 . S
C237 O229 1.258 . S
C237 O230 1.266 . S
Co238 O241 1.970 . S
Co238 N255 1.989 . S
Co238 O263 1.967 . S
Co238 O270 1.920 . S
Co239 O242 1.966 . S
Co239 N248 2.022 . S
Co239 N256 1.993 . S
Co239 O264 1.941 . S
C240 O241 1.258 . S
C240 O242 1.263 . S
O241 Co238 1.970 . S
O241 C240 1.258 . S
O242 Co239 1.966 . S
O242 C240 1.263 . S
C243 O244 1.235 . S
C243 O270 1.289 . S
O244 C243 1.235 . S
C245 C247 1.400 . S
C245 N248 1.351 . S
C245 C250 1.501 . S
C246 C247 1.387 . S
C246 N249 1.341 . S
C247 C245 1.400 . S
C247 C246 1.387 . S
N248 Co239 2.022 . S
N248 C245 1.351 . S
N248 N249 1.365 . S
N249 C246 1.341 . S
N249 N248 1.365 . S
N249 H269 0.862 . S
C250 C245 1.501 . S
C250 H251 0.961 . S
C250 H252 0.961 . S
C250 H253 0.960 . S
H251 C250 0.961 . S
H252 C250 0.961 . S
H253 C250 0.960 . S
C254 N255 1.342 . S
C254 C258 1.401 . S
C254 C259 1.499 . S
N255 Co238 1.989 . S
N255 C254 1.342 . S
N255 N256 1.388 . S
N256 Co239 1.993 . S
N256 N255 1.388 . S
N256 C257 1.346 . S
C257 N256 1.346 . S
C257 C258 1.396 . S
C257 C267 1.510 . S
C258 C254 1.401 . S
C258 C257 1.396 . S
C259 C254 1.499 . S
C259 H260 0.959 . S
C259 H261 0.960 . S
C259 H262 0.961 . S
H260 C259 0.959 . S
H261 C259 0.960 . S
H262 C259 0.961 . S
O263 Co238 1.967 . S
O263 C271 1.258 . S
O264 Co239 1.941 . S
O264 C271 1.266 . S
H265 C267 0.959 . S
H266 C267 0.961 . S
C267 C257 1.510 . S
C267 H265 0.959 . S
C267 H266 0.961 . S
C267 H268 0.960 . S
H268 C267 0.960 . S
H269 N249 0.862 . S
O270 Co238 1.920 . S
O270 C243 1.289 . S
C271 O263 1.258 . S
C271 O264 1.266 . S
C272 C273 1.387 . S
C272 H276 0.950 . S
C272 C281 1.390 1_455 S
C273 C272 1.387 . S
C273 C275 1.387 . S
H274 C281 0.950 . S
C275 C273 1.387 . S
C275 C277 1.390 1_455 S
C275 H279 0.950 1_554 S
H276 C272 0.950 . S
C277 C275 1.390 1_655 S
C277 C278 1.387 . S
C277 H280 0.950 1_554 S
C278 C277 1.387 . S
C278 C281 1.387 . S
H279 C275 0.950 1_556 S
H280 C277 0.950 1_556 S
C281 C272 1.390 1_655 S
C281 H274 0.950 . S
C281 C278 1.387 . S
C282 C283 1.387 . S
C282 H286 0.950 . S
C282 C291 1.390 1_655 S
C283 C282 1.387 . S
C283 C285 1.387 . S
H284 C291 0.950 . S
C285 C283 1.387 . S
C285 C287 1.390 1_655 S
C285 H289 0.950 . S
H286 C282 0.950 . S
C287 C285 1.390 1_455 S
C287 C288 1.387 . S
C287 H290 0.950 . S
C288 C287 1.387 . S
C288 C291 1.387 . S
H289 C285 0.950 . S
H290 C287 0.950 . S
C291 C282 1.390 1_455 S
C291 H284 0.950 . S
C291 C288 1.387 . S
C292 C293 1.387 . S
C292 H296 0.950 . S
C292 C301 1.390 1_565 S
C293 C292 1.387 . S
C293 C295 1.387 . S
H294 C301 0.950 . S
C295 C293 1.387 . S
C295 C297 1.390 1_565 S
C295 H299 0.950 . S
H296 C292 0.950 . S
C297 C295 1.390 1_545 S
C297 C298 1.387 . S
C297 H300 0.950 . S
C298 C297 1.387 . S
C298 C301 1.387 . S
H299 C295 0.950 . S
H300 C297 0.950 . S
C301 C292 1.390 1_545 S
C301 H294 0.950 . S
C301 C298 1.387 . S
C302 C303 1.387 . S
C302 H306 0.950 . S
C302 C311 1.390 1_565 S
C303 C302 1.387 . S
C303 C305 1.387 . S
H304 C311 0.950 . S
C305 C303 1.387 . S
C305 C307 1.390 1_565 S
C305 H309 0.950 . S
H306 C302 0.950 . S
C307 C305 1.390 1_545 S
C307 C308 1.387 . S
C307 H310 0.950 . S
C308 C307 1.387 . S
C308 C311 1.387 . S
H309 C305 0.950 . S
H310 C307 0.950 . S
C311 C302 1.390 1_545 S
C311 H304 0.950 . S
C311 C308 1.387 . S
C312 C313 1.387 . S
C312 H316 0.950 . S
C312 C321 1.390 . S
C313 C312 1.387 . S
C313 C315 1.387 . S
H314 C321 0.950 . S
C315 C313 1.387 . S
C315 C317 1.390 . S
C315 H319 0.950 . S
H316 C312 0.950 . S
C317 C315 1.390 . S
C317 C318 1.387 . S
C317 H320 0.950 . S
C318 C317 1.387 . S
C318 C321 1.387 . S
H319 C315 0.950 . S
H320 C317 0.950 . S
C321 C312 1.390 . S
C321 H314 0.950 . S
C321 C318 1.387 . S
C322 C323 1.387 . S
C322 H326 0.950 . S
C322 C331 1.390 . S
C323 C322 1.387 . S
C323 C325 1.387 . S
H324 C331 0.950 . S
C325 C323 1.387 . S
C325 C327 1.390 . S
C325 H329 0.950 . S
H326 C322 0.950 . S
C327 C325 1.390 . S
C327 C328 1.387 . S
C327 H330 0.950 . S
C328 C327 1.387 . S
C328 C331 1.387 . S
H329 C325 0.950 . S
H330 C327 0.950 . S
C331 C322 1.390 . S
C331 H324 0.950 . S
C331 C328 1.387 . S
C332 C333 1.387 . S
C332 H336 0.950 . S
C332 C341 1.390 . S
C333 C332 1.387 . S
C333 C335 1.387 . S
H334 C341 0.950 . S
C335 C333 1.387 . S
C335 C337 1.390 . S
C335 H339 0.950 . S
H336 C332 0.950 . S
C337 C335 1.390 . S
C337 C338 1.387 . S
C337 H340 0.950 . S
C338 C337 1.387 . S
C338 C341 1.387 . S
H339 C335 0.950 . S
H340 C337 0.950 . S
C341 C332 1.390 . S
C341 H334 0.950 . S
C341 C338 1.387 . S
C342 C343 1.387 . S
C342 H346 0.950 . S
C342 C351 1.390 . S
C343 C342 1.387 . S
C343 C345 1.387 . S
H344 C351 0.950 . S
C345 C343 1.387 . S
C345 C347 1.390 . S
C345 H349 0.950 . S
H346 C342 0.950 . S
C347 C345 1.390 . S
C347 C348 1.387 . S
C347 H350 0.950 . S
C348 C347 1.387 . S
C348 C351 1.387 . S
H349 C345 0.950 . S
H350 C347 0.950 . S
C351 C342 1.390 . S
C351 H344 0.950 . S
C351 C348 1.387 . S
C352 C353 1.387 . S
C352 H356 0.950 . S
C352 C361 1.390 . S
C353 C352 1.387 . S
C353 C355 1.387 . S
H354 C361 0.950 . S
C355 C353 1.387 . S
C355 C357 1.390 . S
C355 H359 0.950 . S
H356 C352 0.950 . S
C357 C355 1.390 . S
C357 C358 1.387 . S
C357 H360 0.950 . S
C358 C357 1.387 . S
C358 C361 1.387 . S
H359 C355 0.950 . S
H360 C357 0.950 . S
C361 C352 1.390 . S
C361 H354 0.950 . S
C361 C358 1.387 . S
C362 C363 1.387 . S
C362 H366 0.950 . S
C362 C371 1.390 . S
C363 C362 1.387 . S
C363 C365 1.387 . S
H364 C371 0.950 . S
C365 C363 1.387 . S
C365 C367 1.390 . S
C365 H369 0.950 . S
H366 C362 0.950 . S
C367 C365 1.390 . S
C367 C368 1.387 . S
C367 H370 0.950 . S
C368 C367 1.387 . S
C368 C371 1.387 . S
H369 C365 0.950 . S
H370 C367 0.950 . S
C371 C362 1.390 . S
C371 H364 0.950 . S
C371 C368 1.387 . S
C372 C373 1.387 . S
C372 H376 0.950 . S
C372 C381 1.390 . S
C373 C372 1.387 . S
C373 C375 1.387 . S
H374 C381 0.950 . S
C375 C373 1.387 . S
C375 C377 1.390 . S
C375 H379 0.950 . S
H376 C372 0.950 . S
C377 C375 1.390 . S
C377 C378 1.387 . S
C377 H380 0.950 1_554 S
C378 C377 1.387 . S
C378 C381 1.387 . S
H379 C375 0.950 . S
H380 C377 0.950 1_556 S
C381 C372 1.390 . S
C381 H374 0.950 . S
C381 C378 1.387 . S
C382 C383 1.387 . S
C382 H386 0.950 . S
C382 C391 1.390 . S
C383 C382 1.387 . S
C383 C385 1.387 . S
H384 C391 0.950 . S
C385 C383 1.387 . S
C385 C387 1.390 . S
C385 H389 0.950 . S
H386 C382 0.950 . S
C387 C385 1.390 . S
C387 C388 1.387 . S
C387 H390 0.950 . S
C388 C387 1.387 . S
C388 C391 1.387 . S
H389 C385 0.950 . S
H390 C387 0.950 . S
C391 C382 1.390 . S
C391 H384 0.950 . S
C391 C388 1.387 . S
C392 C393 1.387 . S
C392 H396 0.950 . S
C392 C401 1.390 1_455 S
C393 C392 1.387 . S
C393 C395 1.387 . S
H394 C401 0.950 . S
C395 C393 1.387 . S
C395 C397 1.390 1_455 S
C395 H399 0.950 1_545 S
H396 C392 0.950 . S
C397 C395 1.390 1_655 S
C397 C398 1.387 . S
C397 H400 0.950 1_545 S
C398 C397 1.387 . S
C398 C401 1.387 . S
H399 C395 0.950 1_565 S
H400 C397 0.950 1_565 S
C401 C392 1.390 1_655 S
C401 H394 0.950 . S
C401 C398 1.387 . S
C402 C403 1.387 . S
C402 H406 0.950 1_565 S
C402 C411 1.390 1_455 S
C403 C402 1.387 . S
C403 C405 1.387 . S
H404 C411 0.950 1_545 S
C405 C403 1.387 . S
C405 C407 1.390 1_455 S
C405 H409 0.950 . S
H406 C402 0.950 1_545 S
C407 C405 1.390 1_655 S
C407 C408 1.387 . S
C407 H410 0.950 . S
C408 C407 1.387 . S
C408 C411 1.387 . S
H409 C405 0.950 . S
H410 C407 0.950 . S
C411 C402 1.390 1_655 S
C411 H404 0.950 1_565 S
C411 C408 1.387 . S
C412 C413 1.387 . S
C412 H416 0.950 . S
C412 C421 1.390 1_455 S
C413 C412 1.387 . S
C413 C415 1.387 . S
H414 C421 0.950 . S
C415 C413 1.387 . S
C415 C417 1.390 1_455 S
C415 H419 0.950 1_565 S
H416 C412 0.950 . S
C417 C415 1.390 1_655 S
C417 C418 1.387 . S
C417 H420 0.950 1_565 S
C418 C417 1.387 . S
C418 C421 1.387 . S
H419 C415 0.950 1_545 S
H420 C417 0.950 1_545 S
C421 C412 1.390 1_655 S
C421 H414 0.950 . S
C421 C418 1.387 . S
C422 C423 1.387 . S
C422 H426 0.950 . S
C422 C431 1.390 1_455 S
C423 C422 1.387 . S
C423 C425 1.387 . S
H424 C431 0.950 . S
C425 C423 1.387 . S
C425 C427 1.390 1_455 S
C425 H429 0.950 1_545 S
H426 C422 0.950 . S
C427 C425 1.390 1_655 S
C427 C428 1.387 . S
C427 H430 0.950 1_545 S
C428 C427 1.387 . S
C428 C431 1.387 . S
H429 C425 0.950 1_565 S
H430 C427 0.950 1_565 S
C431 C422 1.390 1_655 S
C431 H424 0.950 . S
C431 C428 1.387 . S
C432 C433 1.387 1_556 S
C432 H436 0.950 . S
C432 C441 1.390 . S
C433 C432 1.387 1_554 S
C433 C435 1.387 1_554 S
H434 C441 0.950 . S
C435 C433 1.387 1_556 S
C435 C437 1.390 . S
C435 H439 0.950 . S
H436 C432 0.950 . S
C437 C435 1.390 . S
C437 C438 1.387 . S
C437 H440 0.950 . S
C438 C437 1.387 . S
C438 C441 1.387 . S
H439 C435 0.950 . S
H440 C437 0.950 . S
C441 C432 1.390 . S
C441 H434 0.950 . S
C441 C438 1.387 . S
C442 C443 1.387 . S
C442 H446 0.950 . S
C442 C451 1.390 . S
C443 C442 1.387 . S
C443 C445 1.387 . S
H444 C451 0.950 . S
C445 C443 1.387 . S
C445 C447 1.390 . S
C445 H449 0.950 . S
H446 C442 0.950 . S
C447 C445 1.390 . S
C447 C448 1.387 1_556 S
C447 H450 0.950 . S
C448 C447 1.387 1_554 S
C448 C451 1.387 1_554 S
H449 C445 0.950 . S
H450 C447 0.950 . S
C451 C442 1.390 . S
C451 H444 0.950 . S
C451 C448 1.387 1_556 S
C452 C453 1.387 . S
C452 H456 0.950 . S
C452 C461 1.390 . S
C453 C452 1.387 . S
C453 C455 1.387 . S
H454 C461 0.950 . S
C455 C453 1.387 . S
C455 C457 1.390 . S
C455 H459 0.950 . S
H456 C452 0.950 . S
C457 C455 1.390 . S
C457 C458 1.387 . S
C457 H460 0.950 . S
C458 C457 1.387 . S
C458 C461 1.387 . S
H459 C455 0.950 . S
H460 C457 0.950 . S
C461 C452 1.390 . S
C461 H454 0.950 . S
C461 C458 1.387 . S
C462 C463 1.387 . S
C462 H466 0.950 . S
C462 C471 1.390 . S
C463 C462 1.387 . S
C463 C465 1.387 . S
H464 C471 0.950 . S
C465 C463 1.387 . S
C465 C467 1.390 . S
C465 H469 0.950 . S
H466 C462 0.950 . S
C467 C465 1.390 . S
C467 C468 1.387 . S
C467 H470 0.950 . S
C468 C467 1.387 . S
C468 C471 1.387 . S
H469 C465 0.950 . S
H470 C467 0.950 . S
C471 C462 1.390 . S
C471 H464 0.950 . S
C471 C468 1.387 . S
C273 C33 1.571 . S
C278 C67 1.571 . S
C283 C135 1.571 . S
C288 C101 1.571 . S
C293 C169 1.571 . S
C298 C203 1.571 . S
C303 C271 1.573 . S
C308 C237 1.573 . S
C313 C179 1.390 . S
C318 C20 1.523 . S
C323 C145 1.392 . S
C328 C54 1.524 . S
C333 C247 1.389 . S
C338 C88 1.524 . S
C343 C122 1.523 . S
C348 C213 1.390 . S
C353 C43 1.390 . S
C358 C156 1.524 . S
C363 C9 1.391 . S
C368 C190 1.524 . S
C373 C224 1.524 . S
C378 C111 1.390 1_554 S
C383 C77 1.389 1_554 S
C388 C258 1.523 . S
C393 C5 1.641 . S
C398 C107 1.641 . S
C403 C73 1.644 . S
C408 C39 1.644 . S
C413 C70 1.246 . S
C418 C36 1.246 1_556 S
C423 C2 1.246 1_556 S
C428 C104 1.246 . S
C433 C243 1.641 . S
C438 C141 1.641 . S
C443 C175 1.641 . S
C448 C209 1.641 . S
C453 C206 1.246 . S
C458 C172 1.246 . S
C463 C138 1.246 . S
C468 C240 1.246 . S
