# Generated by pormake.
# Topology ukp, (4)-cn, num edge types: 1
# Building blocks:
#     Node 0, Type 0, BuildingBlock: MUDLON_clean_sbu_0, # of connection points: 4
#     Node 1, Type 0, BuildingBlock: MUDLON_clean_sbu_0, # of connection points: 4
#     Node 2, Type 0, BuildingBlock: MUDLON_clean_sbu_0, # of connection points: 4
#     Node 3, Type 0, BuildingBlock: MUDLON_clean_sbu_0, # of connection points: 4
#     Node 4, Type 0, BuildingBlock: MUDLON_clean_sbu_0, # of connection points: 4
#     Node 5, Type 0, BuildingBlock: MUDLON_clean_sbu_0, # of connection points: 4
#     Node 6, Type 0, BuildingBlock: MUDLON_clean_sbu_0, # of connection points: 4
#     Node 7, Type 0, BuildingBlock: MUDLON_clean_sbu_0, # of connection points: 4
#     Node 8, Type 0, BuildingBlock: MUDLON_clean_sbu_0, # of connection points: 4
#     Node 9, Type 0, BuildingBlock: MUDLON_clean_sbu_0, # of connection points: 4
#     Node 10, Type 0, BuildingBlock: MUDLON_clean_sbu_0, # of connection points: 4
#     Node 11, Type 0, BuildingBlock: MUDLON_clean_sbu_0, # of connection points: 4
#     Node 12, Type 0, BuildingBlock: MUDLON_clean_sbu_0, # of connection points: 4
#     Node 13, Type 0, BuildingBlock: MUDLON_clean_sbu_0, # of connection points: 4
#     Node 14, Type 0, BuildingBlock: MUDLON_clean_sbu_0, # of connection points: 4
#     Node 15, Type 0, BuildingBlock: MUDLON_clean_sbu_0, # of connection points: 4
#     Node 16, Type 0, BuildingBlock: MUDLON_clean_sbu_0, # of connection points: 4
#     Node 17, Type 0, BuildingBlock: MUDLON_clean_sbu_0, # of connection points: 4
#     Node 18, Type 0, BuildingBlock: MUDLON_clean_sbu_0, # of connection points: 4
#     Node 19, Type 0, BuildingBlock: MUDLON_clean_sbu_0, # of connection points: 4
#     Node 20, Type 0, BuildingBlock: MUDLON_clean_sbu_0, # of connection points: 4
#     Node 21, Type 0, BuildingBlock: MUDLON_clean_sbu_0, # of connection points: 4
#     Node 22, Type 0, BuildingBlock: MUDLON_clean_sbu_0, # of connection points: 4
#     Node 23, Type 0, BuildingBlock: MUDLON_clean_sbu_0, # of connection points: 4
#     Node 24, Type 0, BuildingBlock: MUDLON_clean_sbu_0, # of connection points: 4
#     Node 25, Type 0, BuildingBlock: MUDLON_clean_sbu_0, # of connection points: 4
#     Node 26, Type 0, BuildingBlock: MUDLON_clean_sbu_0, # of connection points: 4
#     Node 27, Type 0, BuildingBlock: MUDLON_clean_sbu_0, # of connection points: 4
#     Node 28, Type 0, BuildingBlock: MUDLON_clean_sbu_0, # of connection points: 4
#     Node 29, Type 0, BuildingBlock: MUDLON_clean_sbu_0, # of connection points: 4
#     Node 30, Type 0, BuildingBlock: MUDLON_clean_sbu_0, # of connection points: 4
#     Node 31, Type 0, BuildingBlock: MUDLON_clean_sbu_0, # of connection points: 4
#     Node 32, Type 0, BuildingBlock: MUDLON_clean_sbu_0, # of connection points: 4
#     Node 33, Type 0, BuildingBlock: MUDLON_clean_sbu_0, # of connection points: 4
#     Node 34, Type 0, BuildingBlock: MUDLON_clean_sbu_0, # of connection points: 4
#     Node 35, Type 0, BuildingBlock: MUDLON_clean_sbu_0, # of connection points: 4
#     Node 36, Type 0, BuildingBlock: MUDLON_clean_sbu_0, # of connection points: 4
#     Node 37, Type 0, BuildingBlock: MUDLON_clean_sbu_0, # of connection points: 4
#     Node 38, Type 0, BuildingBlock: MUDLON_clean_sbu_0, # of connection points: 4
#     Node 39, Type 0, BuildingBlock: MUDLON_clean_sbu_0, # of connection points: 4
#     Node 40, Type 0, BuildingBlock: MUDLON_clean_sbu_0, # of connection points: 4
#     Node 41, Type 0, BuildingBlock: MUDLON_clean_sbu_0, # of connection points: 4
#     Node 42, Type 0, BuildingBlock: MUDLON_clean_sbu_0, # of connection points: 4
#     Node 43, Type 0, BuildingBlock: MUDLON_clean_sbu_0, # of connection points: 4
#     Node 44, Type 0, BuildingBlock: MUDLON_clean_sbu_0, # of connection points: 4
#     Node 45, Type 0, BuildingBlock: MUDLON_clean_sbu_0, # of connection points: 4
#     Node 46, Type 0, BuildingBlock: MUDLON_clean_sbu_0, # of connection points: 4
#     Node 47, Type 0, BuildingBlock: MUDLON_clean_sbu_0, # of connection points: 4
#     Edge 48, Type (0, 0), BuildingBlock: AJUNOK_clean_linker_0, # of connection points: 2
#     Edge 49, Type (0, 0), BuildingBlock: AJUNOK_clean_linker_0, # of connection points: 2
#     Edge 50, Type (0, 0), BuildingBlock: AJUNOK_clean_linker_0, # of connection points: 2
#     Edge 51, Type (0, 0), BuildingBlock: AJUNOK_clean_linker_0, # of connection points: 2
#     Edge 52, Type (0, 0), BuildingBlock: AJUNOK_clean_linker_0, # of connection points: 2
#     Edge 53, Type (0, 0), BuildingBlock: AJUNOK_clean_linker_0, # of connection points: 2
#     Edge 54, Type (0, 0), BuildingBlock: AJUNOK_clean_linker_0, # of connection points: 2
#     Edge 55, Type (0, 0), BuildingBlock: AJUNOK_clean_linker_0, # of connection points: 2
#     Edge 56, Type (0, 0), BuildingBlock: AJUNOK_clean_linker_0, # of connection points: 2
#     Edge 57, Type (0, 0), BuildingBlock: AJUNOK_clean_linker_0, # of connection points: 2
#     Edge 58, Type (0, 0), BuildingBlock: AJUNOK_clean_linker_0, # of connection points: 2
#     Edge 59, Type (0, 0), BuildingBlock: AJUNOK_clean_linker_0, # of connection points: 2
#     Edge 60, Type (0, 0), BuildingBlock: AJUNOK_clean_linker_0, # of connection points: 2
#     Edge 61, Type (0, 0), BuildingBlock: AJUNOK_clean_linker_0, # of connection points: 2
#     Edge 62, Type (0, 0), BuildingBlock: AJUNOK_clean_linker_0, # of connection points: 2
#     Edge 63, Type (0, 0), BuildingBlock: AJUNOK_clean_linker_0, # of connection points: 2
#     Edge 64, Type (0, 0), BuildingBlock: AJUNOK_clean_linker_0, # of connection points: 2
#     Edge 65, Type (0, 0), BuildingBlock: AJUNOK_clean_linker_0, # of connection points: 2
#     Edge 66, Type (0, 0), BuildingBlock: AJUNOK_clean_linker_0, # of connection points: 2
#     Edge 67, Type (0, 0), BuildingBlock: AJUNOK_clean_linker_0, # of connection points: 2
#     Edge 68, Type (0, 0), BuildingBlock: AJUNOK_clean_linker_0, # of connection points: 2
#     Edge 69, Type (0, 0), BuildingBlock: AJUNOK_clean_linker_0, # of connection points: 2
#     Edge 70, Type (0, 0), BuildingBlock: AJUNOK_clean_linker_0, # of connection points: 2
#     Edge 71, Type (0, 0), BuildingBlock: AJUNOK_clean_linker_0, # of connection points: 2
#     Edge 72, Type (0, 0), BuildingBlock: AJUNOK_clean_linker_0, # of connection points: 2
#     Edge 73, Type (0, 0), BuildingBlock: AJUNOK_clean_linker_0, # of connection points: 2
#     Edge 74, Type (0, 0), BuildingBlock: AJUNOK_clean_linker_0, # of connection points: 2
#     Edge 75, Type (0, 0), BuildingBlock: AJUNOK_clean_linker_0, # of connection points: 2
#     Edge 76, Type (0, 0), BuildingBlock: AJUNOK_clean_linker_0, # of connection points: 2
#     Edge 77, Type (0, 0), BuildingBlock: AJUNOK_clean_linker_0, # of connection points: 2
#     Edge 78, Type (0, 0), BuildingBlock: AJUNOK_clean_linker_0, # of connection points: 2
#     Edge 79, Type (0, 0), BuildingBlock: AJUNOK_clean_linker_0, # of connection points: 2
#     Edge 80, Type (0, 0), BuildingBlock: AJUNOK_clean_linker_0, # of connection points: 2
#     Edge 81, Type (0, 0), BuildingBlock: AJUNOK_clean_linker_0, # of connection points: 2
#     Edge 82, Type (0, 0), BuildingBlock: AJUNOK_clean_linker_0, # of connection points: 2
#     Edge 83, Type (0, 0), BuildingBlock: AJUNOK_clean_linker_0, # of connection points: 2
#     Edge 84, Type (0, 0), BuildingBlock: AJUNOK_clean_linker_0, # of connection points: 2
#     Edge 85, Type (0, 0), BuildingBlock: AJUNOK_clean_linker_0, # of connection points: 2
#     Edge 86, Type (0, 0), BuildingBlock: AJUNOK_clean_linker_0, # of connection points: 2
#     Edge 87, Type (0, 0), BuildingBlock: AJUNOK_clean_linker_0, # of connection points: 2
#     Edge 88, Type (0, 0), BuildingBlock: AJUNOK_clean_linker_0, # of connection points: 2
#     Edge 89, Type (0, 0), BuildingBlock: AJUNOK_clean_linker_0, # of connection points: 2
#     Edge 90, Type (0, 0), BuildingBlock: AJUNOK_clean_linker_0, # of connection points: 2
#     Edge 91, Type (0, 0), BuildingBlock: AJUNOK_clean_linker_0, # of connection points: 2
#     Edge 92, Type (0, 0), BuildingBlock: AJUNOK_clean_linker_0, # of connection points: 2
#     Edge 93, Type (0, 0), BuildingBlock: AJUNOK_clean_linker_0, # of connection points: 2
#     Edge 94, Type (0, 0), BuildingBlock: AJUNOK_clean_linker_0, # of connection points: 2
#     Edge 95, Type (0, 0), BuildingBlock: AJUNOK_clean_linker_0, # of connection points: 2
#     Edge 96, Type (0, 0), BuildingBlock: AJUNOK_clean_linker_0, # of connection points: 2
#     Edge 97, Type (0, 0), BuildingBlock: AJUNOK_clean_linker_0, # of connection points: 2
#     Edge 98, Type (0, 0), BuildingBlock: AJUNOK_clean_linker_0, # of connection points: 2
#     Edge 99, Type (0, 0), BuildingBlock: AJUNOK_clean_linker_0, # of connection points: 2
#     Edge 100, Type (0, 0), BuildingBlock: AJUNOK_clean_linker_0, # of connection points: 2
#     Edge 101, Type (0, 0), BuildingBlock: AJUNOK_clean_linker_0, # of connection points: 2
#     Edge 102, Type (0, 0), BuildingBlock: AJUNOK_clean_linker_0, # of connection points: 2
#     Edge 103, Type (0, 0), BuildingBlock: AJUNOK_clean_linker_0, # of connection points: 2
#     Edge 104, Type (0, 0), BuildingBlock: AJUNOK_clean_linker_0, # of connection points: 2
#     Edge 105, Type (0, 0), BuildingBlock: AJUNOK_clean_linker_0, # of connection points: 2
#     Edge 106, Type (0, 0), BuildingBlock: AJUNOK_clean_linker_0, # of connection points: 2
#     Edge 107, Type (0, 0), BuildingBlock: AJUNOK_clean_linker_0, # of connection points: 2
#     Edge 108, Type (0, 0), BuildingBlock: AJUNOK_clean_linker_0, # of connection points: 2
#     Edge 109, Type (0, 0), BuildingBlock: AJUNOK_clean_linker_0, # of connection points: 2
#     Edge 110, Type (0, 0), BuildingBlock: AJUNOK_clean_linker_0, # of connection points: 2
#     Edge 111, Type (0, 0), BuildingBlock: AJUNOK_clean_linker_0, # of connection points: 2
#     Edge 112, Type (0, 0), BuildingBlock: AJUNOK_clean_linker_0, # of connection points: 2
#     Edge 113, Type (0, 0), BuildingBlock: AJUNOK_clean_linker_0, # of connection points: 2
#     Edge 114, Type (0, 0), BuildingBlock: AJUNOK_clean_linker_0, # of connection points: 2
#     Edge 115, Type (0, 0), BuildingBlock: AJUNOK_clean_linker_0, # of connection points: 2
#     Edge 116, Type (0, 0), BuildingBlock: AJUNOK_clean_linker_0, # of connection points: 2
#     Edge 117, Type (0, 0), BuildingBlock: AJUNOK_clean_linker_0, # of connection points: 2
#     Edge 118, Type (0, 0), BuildingBlock: AJUNOK_clean_linker_0, # of connection points: 2
#     Edge 119, Type (0, 0), BuildingBlock: AJUNOK_clean_linker_0, # of connection points: 2
#     Edge 120, Type (0, 0), BuildingBlock: AJUNOK_clean_linker_0, # of connection points: 2
#     Edge 121, Type (0, 0), BuildingBlock: AJUNOK_clean_linker_0, # of connection points: 2
#     Edge 122, Type (0, 0), BuildingBlock: AJUNOK_clean_linker_0, # of connection points: 2
#     Edge 123, Type (0, 0), BuildingBlock: AJUNOK_clean_linker_0, # of connection points: 2
#     Edge 124, Type (0, 0), BuildingBlock: AJUNOK_clean_linker_0, # of connection points: 2
#     Edge 125, Type (0, 0), BuildingBlock: AJUNOK_clean_linker_0, # of connection points: 2
#     Edge 126, Type (0, 0), BuildingBlock: AJUNOK_clean_linker_0, # of connection points: 2
#     Edge 127, Type (0, 0), BuildingBlock: AJUNOK_clean_linker_0, # of connection points: 2
#     Edge 128, Type (0, 0), BuildingBlock: AJUNOK_clean_linker_0, # of connection points: 2
#     Edge 129, Type (0, 0), BuildingBlock: AJUNOK_clean_linker_0, # of connection points: 2
#     Edge 130, Type (0, 0), BuildingBlock: AJUNOK_clean_linker_0, # of connection points: 2
#     Edge 131, Type (0, 0), BuildingBlock: AJUNOK_clean_linker_0, # of connection points: 2
#     Edge 132, Type (0, 0), BuildingBlock: AJUNOK_clean_linker_0, # of connection points: 2
#     Edge 133, Type (0, 0), BuildingBlock: AJUNOK_clean_linker_0, # of connection points: 2
#     Edge 134, Type (0, 0), BuildingBlock: AJUNOK_clean_linker_0, # of connection points: 2
#     Edge 135, Type (0, 0), BuildingBlock: AJUNOK_clean_linker_0, # of connection points: 2
#     Edge 136, Type (0, 0), BuildingBlock: AJUNOK_clean_linker_0, # of connection points: 2
#     Edge 137, Type (0, 0), BuildingBlock: AJUNOK_clean_linker_0, # of connection points: 2
#     Edge 138, Type (0, 0), BuildingBlock: AJUNOK_clean_linker_0, # of connection points: 2
#     Edge 139, Type (0, 0), BuildingBlock: AJUNOK_clean_linker_0, # of connection points: 2
#     Edge 140, Type (0, 0), BuildingBlock: AJUNOK_clean_linker_0, # of connection points: 2
#     Edge 141, Type (0, 0), BuildingBlock: AJUNOK_clean_linker_0, # of connection points: 2
#     Edge 142, Type (0, 0), BuildingBlock: AJUNOK_clean_linker_0, # of connection points: 2
#     Edge 143, Type (0, 0), BuildingBlock: AJUNOK_clean_linker_0, # of connection points: 2
# Relax obj value: 0.217
# Max RMSD: 0.216
# Mean RMSD: 0.216
data_MOF--net-ukp--node1-MUDLON_clean_sbu_0--edge1-AJUNOK_clean_linker_0
_symmetry_space_group_name_H-M    P1
_symmetry_Int_Tables_number       1
_symmetry_cell_setting            triclinic
loop_
_symmetry_equiv_pos_as_xyz
'x, y, z'
_cell_length_a     48.818059
_cell_length_b     48.79212
_cell_length_c     48.816344
_cell_angle_alpha  89.976543
_cell_angle_beta   90.007726
_cell_angle_gamma 90.058429
loop_
_atom_site_label
_atom_site_type_symbol
_atom_site_fract_x
_atom_site_fract_y
_atom_site_fract_z
_atom_type_partial_charge
Mg0 Mg 0.1911 0.27304 0.37313 0.0
C1 C 0.17116 0.32718 0.38567 0.0
O2 O 0.1511 0.31415 0.37331 0.0
C3 C 0.22585 0.23251 0.34554 0.0
O4 O 0.20143 0.22813 0.33514 0.0
C5 C 0.16033 0.22193 0.39916 0.0
O6 O 0.16907 0.2081 0.37783 0.0
O7 O 0.16513 0.24763 0.40056 0.0
O8 O 0.19322 0.31422 0.39083 0.0
O9 O 0.17729 0.28407 0.3322 0.0
C10 C 0.16909 0.29042 0.30832 0.0
O11 O 0.1447 0.28198 0.30069 0.0
O12 O 0.22869 0.25104 0.36375 0.0
Mg13 Mg 0.98876 0.93306 0.62271 0.0
C14 C 0.93594 0.91275 0.63994 0.0
O15 O 0.94768 0.89328 0.62552 0.0
C16 C 0.02576 0.97092 0.59378 0.0
O17 O 0.02514 0.94927 0.57782 0.0
C18 C 0.04007 0.90121 0.64532 0.0
O19 O 0.05267 0.90755 0.62242 0.0
O20 O 0.01475 0.90679 0.6481 0.0
O21 O 0.94957 0.93457 0.64454 0.0
O22 O 0.97425 0.92513 0.58109 0.0
C23 C 0.95651 0.94359 0.57576 0.0
O24 O 0.95015 0.96112 0.59515 0.0
O25 O 0.01179 0.97073 0.61588 0.0
Mg26 Mg 0.32986 0.74138 0.86608 0.0
C27 C 0.34906 0.69155 0.89873 0.0
O28 O 0.37225 0.70522 0.89836 0.0
C29 C 0.29243 0.78502 0.84955 0.0
O30 O 0.31672 0.79515 0.84393 0.0
C31 C 0.35667 0.77439 0.91102 0.0
O32 O 0.34392 0.75561 0.9255 0.0
O33 O 0.35624 0.77261 0.88496 0.0
O34 O 0.32765 0.70274 0.88889 0.0
O35 O 0.33492 0.73 0.82307 0.0
C36 C 0.33426 0.70458 0.81717 0.0
O37 O 0.33882 0.68675 0.83671 0.0
O38 O 0.29084 0.76176 0.8613 0.0
Mg39 Mg 0.51963 0.07568 0.1194 0.0
C40 C 0.56921 0.10323 0.13891 0.0
O41 O 0.55491 0.12167 0.12551 0.0
C42 C 0.47799 0.03607 0.10355 0.0
O43 O 0.46603 0.06004 0.1012 0.0
C44 C 0.48701 0.11444 0.1591 0.0
O45 O 0.51118 0.12349 0.1667 0.0
O46 O 0.48537 0.09732 0.13948 0.0
O47 O 0.55832 0.07975 0.14245 0.0
O48 O 0.53054 0.08317 0.07638 0.0
C49 C 0.55466 0.07513 0.07035 0.0
O50 O 0.57113 0.06779 0.09023 0.0
O51 O 0.50242 0.03498 0.11276 0.0
Mg52 Mg 0.184 0.74048 0.13717 0.0
C53 C 0.15886 0.6884 0.12241 0.0
O54 O 0.14192 0.70058 0.13941 0.0
C55 C 0.22223 0.78047 0.15742 0.0
O56 O 0.1978 0.79111 0.16108 0.0
C57 C 0.14084 0.77619 0.10388 0.0
O58 O 0.12359 0.7556 0.10572 0.0
O59 O 0.16387 0.77469 0.11597 0.0
O60 O 0.18007 0.70159 0.11476 0.0
O61 O 0.17716 0.72758 0.17948 0.0
C62 C 0.19345 0.70751 0.1835 0.0
O63 O 0.20889 0.69929 0.16306 0.0
O64 O 0.22422 0.75761 0.14493 0.0
Mg65 Mg 0.52117 0.93229 0.39123 0.0
C66 C 0.57038 0.91564 0.35863 0.0
O67 O 0.55513 0.8935 0.35702 0.0
C68 C 0.48139 0.96968 0.41653 0.0
O69 O 0.47751 0.94656 0.42975 0.0
C70 C 0.46997 0.90124 0.36673 0.0
O71 O 0.45683 0.90726 0.3894 0.0
O72 O 0.49538 0.90682 0.36464 0.0
O73 O 0.56063 0.93673 0.3705 0.0
O74 O 0.5317 0.92382 0.43397 0.0
C75 C 0.55686 0.92569 0.4407 0.0
O76 O 0.57547 0.92333 0.42148 0.0
O77 O 0.49892 0.97024 0.39717 0.0
Mg78 Mg 0.32295 0.27363 0.63861 0.0
C79 C 0.34638 0.32628 0.6251 0.0
O80 O 0.36426 0.31372 0.64082 0.0
C81 C 0.28553 0.23001 0.65493 0.0
O82 O 0.30957 0.21797 0.65504 0.0
C83 C 0.36474 0.22786 0.61635 0.0
O84 O 0.37755 0.22729 0.64 0.0
O85 O 0.3448 0.24423 0.61291 0.0
O86 O 0.32496 0.31328 0.61782 0.0
O87 O 0.33022 0.28576 0.68103 0.0
C88 C 0.31231 0.30424 0.68582 0.0
O89 O 0.29592 0.31162 0.66579 0.0
O90 O 0.28359 0.25456 0.64625 0.0
Mg91 Mg 0.98847 0.07353 0.88578 0.0
C92 C 0.93442 0.0923 0.87172 0.0
O93 O 0.9453 0.11053 0.88828 0.0
C94 C 0.02686 0.0387 0.91542 0.0
O95 O 0.02569 0.0616 0.9295 0.0
C96 C 0.03887 0.10787 0.86512 0.0
O97 O 0.05199 0.09831 0.88657 0.0
O98 O 0.01344 0.1027 0.86227 0.0
O99 O 0.94901 0.07188 0.86438 0.0
O100 O 0.97169 0.07732 0.92676 0.0
C101 C 0.96594 0.08965 0.94885 0.0
O102 O 0.97311 0.1154 0.95209 0.0
O103 O 0.01328 0.03698 0.89312 0.0
Mg104 Mg 0.36721 0.18449 0.27241 0.0
C105 C 0.39816 0.16877 0.32409 0.0
O106 O 0.40574 0.14834 0.30831 0.0
C107 C 0.35049 0.22283 0.22892 0.0
O108 O 0.35213 0.19959 0.21547 0.0
C109 C 0.3941 0.14326 0.2294 0.0
O110 O 0.37121 0.1291 0.23008 0.0
O111 O 0.39644 0.16444 0.24447 0.0
O112 O 0.38389 0.18802 0.31381 0.0
O113 O 0.3247 0.1721 0.27846 0.0
C114 C 0.31677 0.16869 0.30306 0.0
O115 O 0.33487 0.16115 0.3214 0.0
O116 O 0.35799 0.22367 0.25388 0.0
Mg117 Mg 0.08041 0.11648 0.52062 0.0
C118 C 0.0997 0.14756 0.57139 0.0
O119 O 0.12299 0.14654 0.55795 0.0
C120 C 0.04213 0.09487 0.47972 0.0
O121 O 0.06586 0.08446 0.47247 0.0
C122 C 0.1088 0.16187 0.48956 0.0
O123 O 0.09511 0.17577 0.50807 0.0
O124 O 0.10776 0.13576 0.49024 0.0
O125 O 0.07805 0.13875 0.55973 0.0
O126 O 0.08548 0.07343 0.53217 0.0
C127 C 0.08588 0.06745 0.55758 0.0
O128 O 0.09138 0.08694 0.57518 0.0
O129 O 0.04147 0.11165 0.49972 0.0
Mg130 Mg 0.14524 0.83067 0.7712 0.0
C131 C 0.11445 0.8527 0.82073 0.0
O132 O 0.11865 0.87576 0.80747 0.0
C133 C 0.16692 0.78999 0.73296 0.0
O134 O 0.18065 0.8124 0.72704 0.0
C135 C 0.10154 0.86076 0.7394 0.0
O136 O 0.08712 0.85197 0.76035 0.0
O137 O 0.12723 0.85633 0.73899 0.0
O138 O 0.12201 0.83026 0.80976 0.0
O139 O 0.18811 0.83649 0.78249 0.0
C140 C 0.19446 0.83697 0.80776 0.0
O141 O 0.17501 0.83925 0.82609 0.0
O142 O 0.14873 0.791 0.75167 0.0
Mg143 Mg 0.4335 0.89034 0.02236 0.0
C144 C 0.41163 0.86554 0.07226 0.0
O145 O 0.3903 0.8708 0.05668 0.0
C146 C 0.47025 0.91593 0.98263 0.0
O147 O 0.44751 0.93019 0.98097 0.0
C148 C 0.40385 0.86693 0.97062 0.0
O149 O 0.41729 0.88606 0.95731 0.0
O150 O 0.40536 0.86603 0.99669 0.0
O151 O 0.4354 0.87004 0.06245 0.0
O152 O 0.42811 0.93354 0.03316 0.0
C153 C 0.42224 0.94198 0.05711 0.0
O154 O 0.41129 0.92506 0.07485 0.0
O155 O 0.47101 0.89534 0.99876 0.0
Mg156 Mg 0.37285 0.82429 0.23998 0.0
C157 C 0.38898 0.84806 0.18832 0.0
O158 O 0.37091 0.86462 0.19942 0.0
C159 C 0.34787 0.78716 0.27721 0.0
O160 O 0.33341 0.80984 0.27763 0.0
C161 C 0.4111 0.85966 0.2714 0.0
O162 O 0.42632 0.85117 0.25091 0.0
O163 O 0.38575 0.85346 0.27153 0.0
O164 O 0.39704 0.82753 0.20229 0.0
O165 O 0.33213 0.82123 0.22246 0.0
C166 C 0.31202 0.83523 0.21394 0.0
O167 O 0.31253 0.86207 0.21594 0.0
O168 O 0.36961 0.78629 0.26272 0.0
Mg169 Mg 0.42992 0.11917 0.49068 0.0
C170 C 0.40718 0.14632 0.44031 0.0
O171 O 0.38464 0.13634 0.45113 0.0
C172 C 0.47071 0.09314 0.52557 0.0
O173 O 0.44842 0.07855 0.52951 0.0
C174 C 0.39402 0.1593 0.52295 0.0
O175 O 0.39154 0.17117 0.49895 0.0
O176 O 0.40645 0.13647 0.52471 0.0
O177 O 0.42964 0.14396 0.45333 0.0
O178 O 0.4235 0.07765 0.47577 0.0
C179 C 0.43988 0.07362 0.45584 0.0
O180 O 0.45468 0.09433 0.44707 0.0
O181 O 0.46975 0.11344 0.50916 0.0
Mg182 Mg 0.1435 0.18234 0.7397 0.0
C183 C 0.1131 0.16173 0.68881 0.0
O184 O 0.11261 0.13889 0.70305 0.0
C185 C 0.16683 0.22165 0.77732 0.0
O186 O 0.1792 0.19839 0.78279 0.0
C187 C 0.09878 0.1531 0.77191 0.0
O188 O 0.08406 0.16236 0.75139 0.0
O189 O 0.12466 0.15656 0.77149 0.0
O190 O 0.12304 0.18328 0.69966 0.0
O191 O 0.18667 0.17761 0.7298 0.0
C192 C 0.19432 0.17325 0.70531 0.0
O193 O 0.17679 0.16309 0.68765 0.0
O194 O 0.14773 0.22182 0.7595 0.0
Mg195 Mg 0.07205 0.8945 0.98789 0.0
C196 C 0.09034 0.8632 0.93697 0.0
O197 O 0.11092 0.85711 0.9532 0.0
C198 C 0.03465 0.91287 0.031 0.0
O199 O 0.05868 0.91242 0.0431 0.0
C200 C 0.11569 0.86413 0.02591 0.0
O201 O 0.13462 0.87998 0.01517 0.0
O202 O 0.09098 0.86675 0.01802 0.0
O203 O 0.0701 0.87648 0.94673 0.0
O204 O 0.08461 0.93684 0.98106 0.0
C205 C 0.08785 0.94452 0.95633 0.0
O206 O 0.09525 0.92616 0.93818 0.0
O207 O 0.03277 0.90458 1.00631 0.0
Mg208 Mg 0.27486 0.37183 0.19146 0.0
C209 C 0.32557 0.39379 0.16514 0.0
O210 O 0.3102 0.38689 0.14413 0.0
C211 C 0.23361 0.35123 0.22752 0.0
O212 O 0.2251 0.34836 0.20213 0.0
C213 C 0.23515 0.40088 0.14749 0.0
O214 O 0.24665 0.3867 0.12772 0.0
O215 O 0.24334 0.39758 0.17202 0.0
O216 O 0.31569 0.39116 0.18919 0.0
O217 O 0.28063 0.32846 0.18176 0.0
C218 C 0.30432 0.31872 0.1769 0.0
O219 O 0.32393 0.33518 0.16888 0.0
O220 O 0.25642 0.36345 0.23147 0.0
Mg221 Mg 0.77177 0.13883 0.82014 0.0
C222 C 0.81997 0.11335 0.8452 0.0
O223 O 0.80355 0.11947 0.86564 0.0
C224 C 0.72956 0.16074 0.78553 0.0
O225 O 0.72248 0.16601 0.81096 0.0
C226 C 0.72579 0.11618 0.86193 0.0
O227 O 0.72346 0.14061 0.87296 0.0
O228 O 0.74305 0.11238 0.84276 0.0
O229 O 0.8116 0.11802 0.8209 0.0
O230 O 0.78079 0.18208 0.82808 0.0
C231 C 0.80556 0.19006 0.83037 0.0
O232 O 0.82453 0.17221 0.83681 0.0
O233 O 0.75103 0.14642 0.78142 0.0
Mg234 Mg 0.12335 0.5201 0.07542 0.0
C235 C 0.13672 0.57271 0.1001 0.0
O236 O 0.11909 0.56068 0.11652 0.0
C237 C 0.10422 0.47915 0.03756 0.0
O238 O 0.10083 0.46846 0.06202 0.0
C239 C 0.15527 0.48625 0.12047 0.0
O240 O 0.1527 0.50774 0.13645 0.0
O241 O 0.14421 0.4865 0.09689 0.0
O242 O 0.14526 0.55929 0.07939 0.0
O243 O 0.08087 0.53301 0.0808 0.0
C244 C 0.07708 0.55158 0.06274 0.0
O245 O 0.09796 0.5588 0.04735 0.0
O246 O 0.11631 0.50223 0.0354 0.0
Mg247 Mg 0.73781 0.86811 0.32706 0.0
C248 C 0.6873 0.90047 0.34216 0.0
O249 O 0.70247 0.9051 0.36391 0.0
C250 C 0.78222 0.85048 0.28975 0.0
O251 O 0.79528 0.8513 0.31319 0.0
C252 C 0.78681 0.89394 0.36231 0.0
O253 O 0.7958 0.86904 0.36715 0.0
O254 O 0.76466 0.89716 0.34888 0.0
O255 O 0.69766 0.88727 0.3222 0.0
O256 O 0.72894 0.82576 0.3388 0.0
C257 C 0.7038 0.81877 0.33958 0.0
O258 O 0.68531 0.8378 0.34352 0.0
O259 O 0.75748 0.85857 0.28849 0.0
Mg260 Mg 0.88732 0.99023 0.07254 0.0
C261 C 0.8646 0.94033 0.09815 0.0
O262 O 0.86784 0.95758 0.11857 0.0
C263 C 0.90792 0.03173 0.03572 0.0
O264 O 0.91433 0.03986 0.06051 0.0
C265 C 0.87041 0.0398 0.11007 0.0
O266 O 0.89687 0.04326 0.1135 0.0
O267 O 0.86198 0.01925 0.09637 0.0
O268 O 0.86917 0.94898 0.07394 0.0
O269 O 0.93101 0.98335 0.07956 0.0
C270 C 0.94059 0.96 0.08613 0.0
O271 O 0.92433 0.94164 0.09711 0.0
O272 O 0.8936 0.01 0.03299 0.0
Mg273 Mg 0.23951 0.63982 0.68241 0.0
C274 C 0.18929 0.62309 0.65583 0.0
O275 O 0.20282 0.63917 0.63899 0.0
C276 C 0.27537 0.66669 0.72049 0.0
O277 O 0.27899 0.6785 0.69657 0.0
C278 C 0.27238 0.60153 0.64408 0.0
O279 O 0.2482 0.59123 0.6383 0.0
O280 O 0.27393 0.62279 0.6591 0.0
O281 O 0.20118 0.61627 0.67806 0.0
O282 O 0.22467 0.68154 0.67633 0.0
C283 C 0.2047 0.6851 0.6928 0.0
O284 O 0.19683 0.66431 0.70798 0.0
O285 O 0.2585 0.64673 0.72212 0.0
Mg286 Mg 0.11948 0.48983 0.42891 0.0
C287 C 0.14278 0.44122 0.40232 0.0
O288 O 0.12603 0.4521 0.38427 0.0
C289 C 0.0951 0.52514 0.46998 0.0
O290 O 0.08052 0.52909 0.4477 0.0
C291 C 0.15827 0.52252 0.39436 0.0
O292 O 0.1719 0.49947 0.39686 0.0
O293 O 0.13412 0.52402 0.40401 0.0
O294 O 0.14622 0.45379 0.42492 0.0
O295 O 0.0781 0.47323 0.42481 0.0
C296 C 0.07671 0.45256 0.44072 0.0
O297 O 0.09947 0.44376 0.45196 0.0
O298 O 0.11519 0.50847 0.46898 0.0
Mg299 Mg 0.39264 0.52401 0.93281 0.0
C300 C 0.36206 0.57455 0.91633 0.0
O301 O 0.35853 0.55891 0.89472 0.0
C302 C 0.41496 0.48258 0.97072 0.0
O303 O 0.42762 0.47651 0.94781 0.0
C304 C 0.36823 0.47348 0.90138 0.0
O305 O 0.39069 0.46064 0.90863 0.0
O306 O 0.3657 0.49888 0.90686 0.0
O307 O 0.37451 0.56469 0.93702 0.0
O308 O 0.43573 0.53271 0.92548 0.0
C309 C 0.44332 0.55738 0.92166 0.0
O310 O 0.42547 0.57535 0.91275 0.0
O311 O 0.39755 0.50205 0.9709 0.0
Mg312 Mg 0.6839 0.7692 0.86715 0.0
C313 C 0.66409 0.82136 0.8964 0.0
O314 O 0.64109 0.80745 0.89776 0.0
C315 C 0.72237 0.72506 0.85255 0.0
O316 O 0.69861 0.71248 0.85141 0.0
C317 C 0.65254 0.73892 0.91252 0.0
O318 O 0.66171 0.75976 0.92687 0.0
O319 O 0.65742 0.73813 0.88687 0.0
O320 O 0.68537 0.80983 0.88663 0.0
O321 O 0.67859 0.77876 0.82406 0.0
C322 C 0.67132 0.80245 0.81603 0.0
O323 O 0.65882 0.81893 0.83317 0.0
O324 O 0.72341 0.74961 0.86137 0.0
Mg325 Mg 0.49198 0.43146 0.11802 0.0
C326 C 0.44191 0.40714 0.1409 0.0
O327 O 0.45352 0.38771 0.12633 0.0
C328 C 0.53392 0.46938 0.0973 0.0
O329 O 0.54386 0.44493 0.09207 0.0
C330 C 0.52453 0.40358 0.16145 0.0
O331 O 0.50518 0.41598 0.17542 0.0
O332 O 0.52407 0.40521 0.1354 0.0
O333 O 0.45493 0.4296 0.14387 0.0
O334 O 0.47627 0.42469 0.07652 0.0
C335 C 0.45467 0.43911 0.07381 0.0
O336 O 0.44445 0.45089 0.09568 0.0
O337 O 0.51138 0.47116 0.11041 0.0
Mg338 Mg 0.82366 0.23628 0.36796 0.0
C339 C 0.8416 0.18658 0.40005 0.0
O340 O 0.86305 0.20261 0.40299 0.0
C341 C 0.78682 0.28151 0.35169 0.0
O342 O 0.81107 0.29304 0.35043 0.0
C343 C 0.86069 0.28538 0.39259 0.0
O344 O 0.8658 0.29411 0.36765 0.0
O345 O 0.84672 0.26354 0.39595 0.0
O346 O 0.82054 0.19599 0.38782 0.0
O347 O 0.8329 0.22622 0.32516 0.0
C348 C 0.83418 0.20083 0.31908 0.0
O349 O 0.84083 0.1834 0.33839 0.0
O350 O 0.78485 0.2569 0.36019 0.0
Mg351 Mg 0.02164 0.57666 0.61971 0.0
C352 C 0.07276 0.60215 0.63583 0.0
O353 O 0.05909 0.62015 0.62121 0.0
C354 C 0.97908 0.53809 0.60216 0.0
O355 O 0.96724 0.5621 0.59949 0.0
C356 C 0.98915 0.60635 0.66269 0.0
O357 O 0.00856 0.5947 0.67724 0.0
O358 O 0.98976 0.60361 0.63674 0.0
O359 O 0.06058 0.57999 0.64237 0.0
O360 O 0.03579 0.58214 0.57774 0.0
C361 C 0.05619 0.56628 0.57394 0.0
O362 O 0.06497 0.55148 0.59462 0.0
O363 O 1.00276 0.5368 0.6131 0.0
Mg364 Mg 0.68561 0.2369 0.63593 0.0
C365 C 0.66286 0.18495 0.62223 0.0
O366 O 0.64386 0.20015 0.63374 0.0
C367 C 0.72228 0.27496 0.66417 0.0
O368 O 0.69916 0.27661 0.67781 0.0
C369 C 0.65399 0.28835 0.61374 0.0
O370 O 0.66475 0.30137 0.63468 0.0
O371 O 0.65788 0.26263 0.61129 0.0
O372 O 0.68597 0.19607 0.61724 0.0
O373 O 0.6781 0.22354 0.67769 0.0
C374 C 0.66781 0.21906 0.70111 0.0
O375 O 0.64353 0.22902 0.70698 0.0
O376 O 0.72333 0.25957 0.64304 0.0
Mg377 Mg 0.01966 0.43399 0.8916 0.0
C378 C 0.07202 0.40805 0.87382 0.0
O379 O 0.058 0.38726 0.88364 0.0
C380 C 0.97951 0.47287 0.90958 0.0
O381 O 0.97313 0.44935 0.92104 0.0
C382 C 0.98949 0.40112 0.84941 0.0
O383 O 0.01028 0.41071 0.83525 0.0
O384 O 0.98859 0.40595 0.87504 0.0
O385 O 0.06023 0.43126 0.87189 0.0
O386 O 0.02921 0.4363 0.93504 0.0
C387 C 0.04782 0.42407 0.94842 0.0
O388 O 0.05871 0.4016 0.93862 0.0
O389 O 0.99899 0.47325 0.89213 0.0
Mg390 Mg 0.82693 0.77225 0.14179 0.0
C391 C 0.85343 0.82322 0.12022 0.0
O392 O 0.87382 0.81059 0.13243 0.0
C393 C 0.78747 0.7328 0.16024 0.0
O394 O 0.81162 0.72256 0.16621 0.0
C395 C 0.8646 0.739 0.10276 0.0
O396 O 0.87311 0.7631 0.09432 0.0
O397 O 0.84803 0.7376 0.12278 0.0
O398 O 0.83031 0.81113 0.11896 0.0
O399 O 0.83322 0.78082 0.18526 0.0
C400 C 0.83202 0.80567 0.19305 0.0
O401 O 0.83229 0.82521 0.17469 0.0
O402 O 0.78633 0.75535 0.14705 0.0
Mg403 Mg 0.488 0.57373 0.38675 0.0
C404 C 0.43847 0.59717 0.36284 0.0
O405 O 0.4538 0.61825 0.36967 0.0
C406 C 0.53029 0.538 0.4084 0.0
O407 O 0.53839 0.56289 0.41456 0.0
C408 C 0.5379 0.61023 0.36424 0.0
O409 O 0.54763 0.61268 0.38919 0.0
O410 O 0.51539 0.59762 0.36035 0.0
O411 O 0.44843 0.57321 0.3656 0.0
O412 O 0.47849 0.58306 0.42953 0.0
C413 C 0.45367 0.57952 0.43691 0.0
O414 O 0.43459 0.57859 0.41808 0.0
O415 O 0.50838 0.53492 0.39452 0.0
Mg416 Mg 0.86843 0.68238 0.77088 0.0
C417 C 0.89266 0.65993 0.8207 0.0
O418 O 0.88725 0.63863 0.80512 0.0
C419 C 0.84405 0.72169 0.73261 0.0
O420 O 0.82953 0.69932 0.72891 0.0
C421 C 0.89564 0.65562 0.71921 0.0
O422 O 0.87784 0.66985 0.70495 0.0
O423 O 0.89406 0.6555 0.74529 0.0
O424 O 0.88818 0.68375 0.81106 0.0
O425 O 0.82507 0.67582 0.78029 0.0
C426 C 0.8165 0.67107 0.80446 0.0
O427 O 0.83345 0.6613 0.82283 0.0
O428 O 0.86405 0.72103 0.74942 0.0
Mg429 Mg 0.57325 0.62045 0.02358 0.0
C430 C 0.59784 0.64108 0.07571 0.0
O431 O 0.61937 0.63629 0.06029 0.0
C432 C 0.53488 0.60532 0.98025 0.0
O433 O 0.55908 0.60243 0.96895 0.0
C434 C 0.60965 0.64526 0.97427 0.0
O435 O 0.61369 0.6203 0.96509 0.0
O436 O 0.59624 0.64871 0.99644 0.0
O437 O 0.57408 0.63753 0.06543 0.0
O438 O 0.58001 0.57627 0.0285 0.0
C439 C 0.58643 0.56588 0.05155 0.0
O440 O 0.59659 0.5817 0.07065 0.0
O441 O 0.53332 0.6153 1.00435 0.0
Mg442 Mg 0.641 0.32594 0.27315 0.0
C443 C 0.61651 0.34982 0.32259 0.0
O444 O 0.61989 0.37046 0.30562 0.0
C445 C 0.66572 0.28745 0.23466 0.0
O446 O 0.67914 0.31047 0.23091 0.0
C447 C 0.61616 0.35462 0.22102 0.0
O448 O 0.63568 0.34243 0.20713 0.0
O449 O 0.61588 0.35281 0.24708 0.0
O450 O 0.6219 0.32578 0.31394 0.0
O451 O 0.68438 0.33263 0.28202 0.0
C452 C 0.69327 0.33834 0.30584 0.0
O453 O 0.6765 0.34866 0.32409 0.0
O454 O 0.64573 0.28717 0.25153 0.0
Mg455 Mg 0.93058 0.39225 0.51818 0.0
C456 C 0.90328 0.36925 0.56736 0.0
O457 O 0.88285 0.37779 0.55206 0.0
C458 C 0.9725 0.40926 0.47936 0.0
O459 O 0.94995 0.41998 0.46933 0.0
C460 C 0.89887 0.34921 0.48683 0.0
O461 O 0.90601 0.3354 0.5088 0.0
O462 O 0.90488 0.37462 0.48549 0.0
O463 O 0.92736 0.37044 0.55744 0.0
O464 O 0.92986 0.43593 0.52853 0.0
C465 C 0.92513 0.44444 0.55273 0.0
O466 O 0.9139 0.42788 0.57065 0.0
O467 O 0.97077 0.39347 0.50011 0.0
Mg468 Mg 0.873 0.324 0.73631 0.0
C469 C 0.88667 0.34916 0.68423 0.0
O470 O 0.87357 0.36769 0.69871 0.0
C471 C 0.85105 0.28568 0.77686 0.0
O472 O 0.84395 0.30982 0.78627 0.0
C473 C 0.89599 0.35827 0.78773 0.0
O474 O 0.87136 0.35887 0.7985 0.0
O475 O 0.89949 0.34749 0.76422 0.0
O476 O 0.89261 0.3265 0.69578 0.0
O477 O 0.83045 0.33241 0.72526 0.0
C478 C 0.82482 0.31692 0.70491 0.0
O479 O 0.84429 0.30142 0.69475 0.0
O480 O 0.86553 0.28417 0.75517 0.0
Mg481 Mg 0.93462 0.62286 0.98857 0.0
C482 C 0.91042 0.63793 0.93655 0.0
O483 O 0.89297 0.62123 0.94849 0.0
C484 C 0.9738 0.59706 0.02499 0.0
O485 O 0.95009 0.58577 0.03093 0.0
C486 C 0.89091 0.64613 0.03214 0.0
O487 O 0.87375 0.62604 0.02699 0.0
O488 O 0.91365 0.64719 0.01954 0.0
O489 O 0.93182 0.64499 0.94973 0.0
O490 O 0.92735 0.58082 0.97493 0.0
C491 C 0.94491 0.57661 0.95598 0.0
O492 O 0.9613 0.59685 0.94911 0.0
O493 O 0.97441 0.61596 0.00693 0.0
Mg494 Mg 0.64292 0.68465 0.24047 0.0
C495 C 0.61674 0.65788 0.1926 0.0
O496 O 0.62505 0.63738 0.20795 0.0
C497 C 0.66342 0.72297 0.28134 0.0
O498 O 0.67123 0.69868 0.28992 0.0
C499 C 0.59959 0.65399 0.27151 0.0
O500 O 0.58551 0.66339 0.2506 0.0
O501 O 0.62525 0.65857 0.27246 0.0
O502 O 0.61922 0.68211 0.20206 0.0
O503 O 0.68565 0.67833 0.22889 0.0
C504 C 0.69186 0.67776 0.20359 0.0
O505 O 0.67239 0.67463 0.18543 0.0
O506 O 0.64844 0.72441 0.25995 0.0
Mg507 Mg 0.5737 0.39113 0.49055 0.0
C508 C 0.60019 0.37116 0.43912 0.0
O509 O 0.62097 0.38135 0.45287 0.0
C510 C 0.53547 0.40508 0.5339 0.0
O511 O 0.55966 0.41011 0.54454 0.0
C512 C 0.60581 0.34859 0.52198 0.0
O513 O 0.59689 0.33398 0.50121 0.0
O514 O 0.60119 0.37431 0.52208 0.0
O515 O 0.57678 0.37023 0.45065 0.0
O516 O 0.57264 0.43446 0.48031 0.0
C517 C 0.58575 0.44761 0.46209 0.0
O518 O 0.6077 0.43683 0.45104 0.0
O519 O 0.53407 0.39342 0.51055 0.0
Mg520 Mg 0.77212 0.87068 0.68802 0.0
C521 C 0.82007 0.89824 0.66445 0.0
O522 O 0.80431 0.89218 0.64347 0.0
C523 C 0.72798 0.85309 0.72477 0.0
O524 O 0.71743 0.85 0.70026 0.0
C525 C 0.72245 0.89369 0.65077 0.0
O526 O 0.71301 0.86881 0.64672 0.0
O527 O 0.74444 0.89711 0.66438 0.0
O528 O 0.81121 0.89301 0.68845 0.0
O529 O 0.78289 0.82787 0.67918 0.0
C530 C 0.80836 0.82209 0.67886 0.0
O531 O 0.82597 0.84173 0.6741 0.0
O532 O 0.75188 0.86336 0.72708 0.0
Mg533 Mg 0.27279 0.63935 0.32433 0.0
C534 C 0.32133 0.61375 0.3479 0.0
O535 O 0.30618 0.62106 0.36891 0.0
C536 C 0.23427 0.66512 0.28604 0.0
O537 O 0.22962 0.67796 0.30922 0.0
C538 C 0.22287 0.61727 0.36105 0.0
O539 O 0.21524 0.64236 0.36705 0.0
O540 O 0.24441 0.61331 0.34698 0.0
O541 O 0.31149 0.61677 0.32392 0.0
O542 O 0.28404 0.68189 0.33342 0.0
C543 C 0.30915 0.68828 0.3299 0.0
O544 O 0.32736 0.66868 0.32825 0.0
O545 O 0.25223 0.64614 0.28552 0.0
Mg546 Mg 0.6199 0.01914 0.57722 0.0
C547 C 0.63822 0.06909 0.60303 0.0
O548 O 0.6231 0.05559 0.62076 0.0
C549 C 0.59244 0.98364 0.53863 0.0
O550 O 0.57824 0.98213 0.56144 0.0
C551 C 0.66147 0.98822 0.60976 0.0
O552 O 0.6757 0.00941 0.60119 0.0
O553 O 0.63599 0.98723 0.60428 0.0
O554 O 0.64386 0.05724 0.58047 0.0
O555 O 0.5784 0.03452 0.58276 0.0
C556 C 0.57475 0.05514 0.56716 0.0
O557 O 0.59554 0.0642 0.55268 0.0
O558 O 0.614 0.99846 0.53816 0.0
Mg559 Mg 0.23936 0.37219 0.82981 0.0
C560 C 0.18875 0.38849 0.8564 0.0
O561 O 0.20163 0.3718 0.87313 0.0
C562 C 0.2758 0.34796 0.79002 0.0
O563 O 0.28159 0.33611 0.81348 0.0
C564 C 0.2728 0.41405 0.86001 0.0
O565 O 0.25176 0.42886 0.85215 0.0
O566 O 0.27242 0.38836 0.85541 0.0
O567 O 0.20094 0.39526 0.83434 0.0
O568 O 0.22587 0.32999 0.83451 0.0
C569 C 0.20508 0.32577 0.81927 0.0
O570 O 0.19421 0.34664 0.80624 0.0
O571 O 0.25795 0.36707 0.78981 0.0
Mg572 Mg 0.39147 0.4883 0.57447 0.0
C573 C 0.36489 0.44148 0.59979 0.0
O574 O 0.36898 0.45926 0.61958 0.0
C575 C 0.41981 0.52366 0.53574 0.0
O576 O 0.43338 0.52684 0.55873 0.0
C577 C 0.36665 0.53303 0.61608 0.0
O578 O 0.38915 0.53207 0.6308 0.0
O579 O 0.3645 0.51785 0.59501 0.0
O580 O 0.3706 0.44874 0.57539 0.0
O581 O 0.43416 0.47825 0.58426 0.0
C582 C 0.4418 0.4536 0.58817 0.0
O583 O 0.4237 0.4352 0.59556 0.0
O584 O 0.39897 0.50786 0.53521 0.0
Mg585 Mg 0.73829 0.13679 0.18201 0.0
C586 C 0.68614 0.12167 0.15853 0.0
O587 O 0.69975 0.13571 0.14001 0.0
C588 C 0.77411 0.16492 0.22197 0.0
O589 O 0.77456 0.18097 0.20037 0.0
C590 C 0.79269 0.11865 0.15602 0.0
O591 O 0.80228 0.13639 0.1738 0.0
O592 O 0.76682 0.11593 0.15369 0.0
O593 O 0.69862 0.1152 0.18055 0.0
O594 O 0.72413 0.17894 0.17608 0.0
C595 C 0.70406 0.18373 0.19215 0.0
O596 O 0.69436 0.16355 0.20707 0.0
O597 O 0.75998 0.14285 0.2209 0.0
Mg598 Mg 0.6186 0.98878 0.93047 0.0
C599 C 0.647 0.93827 0.90814 0.0
O600 O 0.63856 0.94959 0.88524 0.0
C601 C 0.59711 0.02943 0.96983 0.0
O602 O 0.59345 0.04188 0.94625 0.0
C603 C 0.66017 0.02158 0.89565 0.0
O604 O 0.67225 0.99766 0.8935 0.0
O605 O 0.63712 0.02314 0.90778 0.0
O606 O 0.64341 0.95103 0.93063 0.0
O607 O 0.57685 0.9748 0.92234 0.0
C608 C 0.57217 0.95183 0.93395 0.0
O609 O 0.59286 0.93855 0.94473 0.0
O610 O 0.60964 1.00649 0.97029 0.0
Mg611 Mg 0.89504 0.0192 0.43005 0.0
C612 C 0.86272 0.06979 0.41096 0.0
O613 O 0.86378 0.05682 0.38741 0.0
C614 C 0.9172 0.97986 0.46976 0.0
O615 O 0.92955 0.97341 0.44675 0.0
C616 C 0.85002 0.98813 0.40094 0.0
O617 O 0.83595 0.00839 0.41167 0.0
O618 O 0.87595 0.98786 0.40391 0.0
O619 O 0.8722 0.05809 0.4323 0.0
O620 O 0.93814 0.03048 0.42432 0.0
C621 C 0.94388 0.05592 0.4247 0.0
O622 O 0.92415 0.07369 0.42101 0.0
O623 O 0.89935 0.99892 0.46937 0.0
C624 C 0.12552 0.16525 0.4408 0.0
C625 C 0.12316 0.17681 0.4671 0.0
C626 C 0.13716 0.18008 0.41892 0.0
C627 C 0.14701 0.20707 0.42244 0.0
H628 H 0.11778 0.14481 0.4369 0.0
H629 H 0.13829 0.17032 0.39904 0.0
S630 S 0.14778 0.24567 0.48799 0.0
N631 N 0.13302 0.21624 0.49578 0.0
N632 N 0.15488 0.24397 0.45498 0.0
C633 C 0.14517 0.2186 0.44882 0.0
C634 C 0.1333 0.20352 0.47102 0.0
C635 C 0.09496 0.86609 0.68858 0.0
C636 C 0.08721 0.87291 0.71552 0.0
C637 C 0.07962 0.87518 0.66589 0.0
C638 C 0.05597 0.89131 0.66936 0.0
H639 H 0.11251 0.85299 0.68505 0.0
H640 H 0.08606 0.86916 0.64553 0.0
S641 S 0.02946 0.91784 0.73553 0.0
N642 N 0.05594 0.8987 0.7442 0.0
N643 N 0.02727 0.91587 0.70185 0.0
C644 C 0.04866 0.89898 0.6962 0.0
C645 C 0.06424 0.88976 0.71917 0.0
C646 C 0.3889 0.81785 0.96712 0.0
C647 C 0.39067 0.84409 0.95524 0.0
C648 C 0.3784 0.79544 0.95244 0.0
C649 C 0.36926 0.79825 0.92523 0.0
H650 H 0.39616 0.81442 0.98781 0.0
H651 H 0.37756 0.77566 0.9625 0.0
S652 S 0.36701 0.86304 0.88552 0.0
N653 N 0.38088 0.87188 0.91509 0.0
N654 N 0.36108 0.82978 0.88758 0.0
C655 C 0.37052 0.82443 0.9132 0.0
C656 C 0.3812 0.84731 0.92818 0.0
C657 C 0.4396 0.15327 0.20733 0.0
C658 C 0.41704 0.13547 0.21062 0.0
C659 C 0.46173 0.14657 0.19021 0.0
C660 C 0.46226 0.1219 0.17534 0.0
H661 H 0.44033 0.17261 0.21818 0.0
H662 H 0.47866 0.16087 0.18871 0.0
S663 S 0.40893 0.06763 0.17703 0.0
N664 N 0.39707 0.09163 0.19768 0.0
N665 N 0.43847 0.07927 0.16536 0.0
C666 C 0.43979 0.10398 0.17814 0.0
C667 C 0.4173 0.11069 0.19579 0.0
C668 C 0.10788 0.80494 0.07664 0.0
C669 C 0.13484 0.79985 0.08542 0.0
C670 C 0.10194 0.82597 0.05786 0.0
C671 C 0.12273 0.84274 0.04674 0.0
H672 H 0.09114 0.79247 0.0842 0.0
H673 H 0.08079 0.82882 0.05179 0.0
S674 S 0.19691 0.83792 0.06301 0.0
N675 N 0.18263 0.81359 0.08168 0.0
N676 N 0.17155 0.85276 0.04631 0.0
C677 C 0.14979 0.83806 0.0556 0.0
C678 C 0.15581 0.81678 0.07492 0.0
C679 C 0.43023 0.87611 0.34531 0.0
C680 C 0.45463 0.89126 0.34233 0.0
C681 C 0.41547 0.86684 0.32229 0.0
C682 C 0.42452 0.87254 0.29549 0.0
H683 H 0.42276 0.87092 0.36555 0.0
H684 H 0.39736 0.85441 0.32553 0.0
S685 S 0.48491 0.91459 0.27654 0.0
N686 N 0.48561 0.91364 0.31032 0.0
N687 N 0.45798 0.89627 0.26739 0.0
C688 C 0.44826 0.8885 0.2923 0.0
C689 C 0.46328 0.89784 0.31561 0.0
C690 C 0.35604 0.20831 0.56964 0.0
C691 C 0.37238 0.20905 0.59349 0.0
C692 C 0.36277 0.19157 0.5473 0.0
C693 C 0.38585 0.17448 0.54795 0.0
H694 H 0.33795 0.22102 0.56794 0.0
H695 H 0.34986 0.19219 0.52925 0.0
S696 S 0.43594 0.16888 0.60482 0.0
N697 N 0.41316 0.19125 0.61595 0.0
N698 N 0.42545 0.15947 0.57407 0.0
C699 C 0.4022 0.17456 0.57169 0.0
C700 C 0.39556 0.19191 0.5944 0.0
C701 C 0.06003 0.12658 0.79245 0.0
C702 C 0.08474 0.14096 0.79606 0.0
C703 C 0.04518 0.11645 0.8149 0.0
C704 C 0.05435 0.12036 0.84198 0.0
H705 H 0.05209 0.12302 0.77203 0.0
H706 H 0.02653 0.10507 0.81093 0.0
S707 S 0.11644 0.15897 0.86275 0.0
N708 N 0.11689 0.16007 0.82893 0.0
N709 N 0.089 0.14098 0.87115 0.0
C710 C 0.07887 0.135 0.84594 0.0
C711 C 0.09405 0.1453 0.82301 0.0
C712 C 0.20545 0.42671 0.11402 0.0
C713 C 0.21339 0.42156 0.14129 0.0
C714 C 0.18604 0.447 0.1076 0.0
C715 C 0.17385 0.46324 0.12813 0.0
H716 H 0.2146 0.4153 0.09735 0.0
H717 H 0.18116 0.45048 0.08624 0.0
S718 S 0.18536 0.45648 0.20291 0.0
N719 N 0.20579 0.43332 0.18918 0.0
N720 N 0.16975 0.47152 0.17697 0.0
C721 C 0.18094 0.45781 0.15549 0.0
C722 C 0.20053 0.437 0.16209 0.0
C723 C 0.70892 0.06783 0.85632 0.0
C724 C 0.70792 0.09286 0.87077 0.0
C725 C 0.69293 0.04523 0.86412 0.0
C726 C 0.67488 0.04666 0.88649 0.0
H727 H 0.72238 0.06547 0.83885 0.0
H728 H 0.69482 0.02638 0.85256 0.0
S729 S 0.66477 0.10676 0.93188 0.0
N730 N 0.68751 0.11728 0.90913 0.0
N731 N 0.65719 0.07488 0.92343 0.0
C732 C 0.67331 0.07153 0.90099 0.0
C733 C 0.68988 0.09455 0.89325 0.0
C734 C 0.82847 0.9149 0.38468 0.0
C735 C 0.80319 0.91834 0.37107 0.0
C736 C 0.84421 0.93754 0.39318 0.0
C737 C 0.83517 0.96454 0.3887 0.0
H738 H 0.83613 0.89454 0.38906 0.0
H739 H 0.86312 0.93384 0.40419 0.0
S740 S 0.77203 0.98517 0.35192 0.0
N741 N 0.77105 0.95136 0.35189 0.0
N742 N 0.80039 0.99355 0.36831 0.0
C743 C 0.81043 0.96833 0.37453 0.0
C744 C 0.79453 0.94537 0.36561 0.0
C745 C 0.8225 0.05413 0.1233 0.0
C746 C 0.85056 0.06054 0.12066 0.0
C747 C 0.80361 0.07333 0.13369 0.0
C748 C 0.81201 0.09973 0.14182 0.0
H749 H 0.8151 0.03393 0.11783 0.0
H750 H 0.78246 0.0671 0.13616 0.0
S751 S 0.88228 0.12814 0.13554 0.0
N752 N 0.88511 0.09626 0.12465 0.0
N753 N 0.84982 0.13204 0.14409 0.0
C754 C 0.83974 0.10674 0.1382 0.0
C755 C 0.85893 0.08726 0.12768 0.0
C756 C 0.29777 0.56988 0.61267 0.0
C757 C 0.29753 0.58613 0.63642 0.0
C758 C 0.3203 0.55323 0.60619 0.0
C759 C 0.34351 0.55172 0.6234 0.0
H760 H 0.28029 0.56989 0.599 0.0
H761 H 0.31928 0.54118 0.5876 0.0
S762 S 0.35255 0.58953 0.68881 0.0
N763 N 0.32227 0.59947 0.67752 0.0
N764 N 0.3644 0.56792 0.66566 0.0
C765 C 0.34353 0.56798 0.64724 0.0
C766 C 0.32066 0.58523 0.65365 0.0
C767 C 0.18544 0.59544 0.38926 0.0
C768 C 0.20549 0.59331 0.36862 0.0
C769 C 0.16924 0.57275 0.39675 0.0
C770 C 0.1726 0.54714 0.38391 0.0
H771 H 0.18258 0.61459 0.40009 0.0
H772 H 0.1547 0.57503 0.41336 0.0
S773 S 0.21977 0.53132 0.32668 0.0
N774 N 0.22594 0.56377 0.33395 0.0
N775 N 0.19584 0.52142 0.34841 0.0
C776 C 0.19188 0.54495 0.36277 0.0
C777 C 0.20823 0.56794 0.35502 0.0
C778 C 0.31797 0.46907 0.89168 0.0
C779 C 0.3445 0.45786 0.89018 0.0
C780 C 0.29499 0.45443 0.88251 0.0
C781 C 0.29744 0.42791 0.87146 0.0
H782 H 0.31479 0.48927 0.9003 0.0
H783 H 0.27508 0.46408 0.8841 0.0
S784 S 0.36239 0.38966 0.86165 0.0
N785 N 0.37193 0.41878 0.876 0.0
N786 N 0.32873 0.39132 0.85874 0.0
C787 C 0.32382 0.4164 0.86977 0.0
C788 C 0.34731 0.43136 0.87909 0.0
C789 C 0.63522 0.6658 0.93418 0.0
C790 C 0.61953 0.66951 0.95819 0.0
C791 C 0.64487 0.68826 0.9188 0.0
C792 C 0.63946 0.7154 0.92692 0.0
H793 H 0.64041 0.64536 0.92729 0.0
H794 H 0.65743 0.68434 0.90093 0.0
S795 S 0.59714 0.73669 0.98625 0.0
N796 N 0.59737 0.7029 0.98788 0.0
N797 N 0.61588 0.74476 0.95928 0.0
C798 C 0.62322 0.71945 0.95032 0.0
C799 C 0.61317 0.69665 0.96585 0.0
C800 C 0.59586 0.37691 0.17913 0.0
C801 C 0.59275 0.36747 0.20624 0.0
C802 C 0.57364 0.38801 0.16445 0.0
C803 C 0.54742 0.38998 0.17629 0.0
H804 H 0.61568 0.37593 0.16921 0.0
H805 H 0.57718 0.39555 0.14388 0.0
S806 S 0.52765 0.36554 0.24554 0.0
N807 N 0.56079 0.35921 0.24356 0.0
N808 N 0.51928 0.37985 0.21608 0.0
C809 C 0.54393 0.38006 0.20313 0.0
C810 C 0.56649 0.36889 0.21807 0.0
C811 C 0.8937 0.34191 0.43599 0.0
C812 C 0.88704 0.33428 0.46299 0.0
C813 C 0.88525 0.32599 0.41343 0.0
C814 C 0.86959 0.30189 0.4169 0.0
H815 H 0.90628 0.35983 0.43228 0.0
H816 H 0.89129 0.33256 0.39312 0.0
S817 S 0.84453 0.27468 0.48351 0.0
N818 N 0.8625 0.30209 0.49187 0.0
N819 N 0.84633 0.27245 0.44983 0.0
C820 C 0.8621 0.29463 0.44386 0.0
C821 C 0.87088 0.31072 0.46676 0.0
C822 C 0.91746 0.63392 0.67778 0.0
C823 C 0.91951 0.64278 0.70518 0.0
C824 C 0.94014 0.62272 0.6639 0.0
C825 C 0.96583 0.62014 0.6768 0.0
H826 H 0.8981 0.6354 0.66705 0.0
H827 H 0.93736 0.6156 0.64307 0.0
S828 S 0.98288 0.64339 0.74719 0.0
N829 N 0.94991 0.65009 0.74391 0.0
N830 N 0.99236 0.62943 0.71791 0.0
C831 C 0.96829 0.62967 0.70392 0.0
C832 C 0.94521 0.64085 0.71807 0.0
C833 C 0.63077 0.30849 0.54203 0.0
C834 C 0.61877 0.33446 0.54574 0.0
C835 C 0.64156 0.29361 0.56416 0.0
C836 C 0.64085 0.30402 0.59105 0.0
H837 H 0.6319 0.29951 0.52178 0.0
H838 H 0.65092 0.27393 0.56003 0.0
S839 S 0.60969 0.37001 0.61231 0.0
N840 N 0.60553 0.3693 0.57875 0.0
N841 N 0.62593 0.34142 0.6203 0.0
C842 C 0.62868 0.32984 0.59515 0.0
C843 C 0.61764 0.34503 0.57255 0.0
C844 C 0.91656 0.38177 0.829 0.0
C845 C 0.92015 0.36844 0.80361 0.0
C846 C 0.93907 0.39133 0.84432 0.0
C847 C 0.9661 0.38809 0.8348 0.0
H848 H 0.89617 0.38513 0.83705 0.0
H849 H 0.9352 0.40206 0.86335 0.0
S850 S 0.98714 0.35257 0.77105 0.0
N851 N 0.95338 0.35104 0.77072 0.0
N852 N 0.9953 0.36918 0.79933 0.0
C853 C 0.97005 0.37424 0.80989 0.0
C854 C 0.94723 0.3644 0.79436 0.0
C855 C 0.89598 0.71327 0.07158 0.0
C856 C 0.87167 0.714 0.08692 0.0
C857 C 0.90213 0.69099 0.05455 0.0
C858 C 0.88404 0.66858 0.05172 0.0
H859 H 0.91033 0.73019 0.07255 0.0
H860 H 0.92112 0.69172 0.04311 0.0
S861 S 0.81751 0.66051 0.08767 0.0
N862 N 0.82945 0.69022 0.09862 0.0
N863 N 0.84079 0.64852 0.06627 0.0
C864 C 0.85978 0.66887 0.06729 0.0
C865 C 0.85367 0.69149 0.08496 0.0
C866 C 0.57867 0.63484 0.34417 0.0
C867 C 0.55381 0.62062 0.34026 0.0
C868 C 0.59401 0.64468 0.32183 0.0
C869 C 0.58497 0.64089 0.29472 0.0
H870 H 0.5863 0.63865 0.36465 0.0
H871 H 0.61264 0.65606 0.32587 0.0
S872 S 0.5228 0.60303 0.27292 0.0
N873 N 0.52199 0.60178 0.30668 0.0
N874 N 0.55065 0.62053 0.26507 0.0
C875 C 0.56061 0.62617 0.29046 0.0
C876 C 0.54509 0.61599 0.31309 0.0
C877 C 0.68151 0.91486 0.62738 0.0
C878 C 0.70673 0.91811 0.64111 0.0
C879 C 0.66634 0.93763 0.61828 0.0
C880 C 0.67588 0.96455 0.62234 0.0
H881 H 0.67344 0.89457 0.62342 0.0
H882 H 0.64742 0.93404 0.60725 0.0
S883 S 0.73936 0.98469 0.65892 0.0
N884 N 0.73958 0.95089 0.65962 0.0
N885 N 0.71121 0.99328 0.64232 0.0
C886 C 0.70063 0.96816 0.63657 0.0
C887 C 0.71599 0.94508 0.64599 0.0
C888 C 0.19099 0.32829 0.24388 0.0
C889 C 0.21745 0.33812 0.24989 0.0
C890 C 0.17572 0.31338 0.26303 0.0
C891 C 0.18608 0.30738 0.28924 0.0
H892 H 0.18193 0.33175 0.22392 0.0
H893 H 0.15564 0.30618 0.25691 0.0
S894 S 0.25394 0.32944 0.31594 0.0
N895 N 0.25309 0.34171 0.28441 0.0
N896 N 0.22445 0.31346 0.3206 0.0
C897 C 0.21233 0.31764 0.29591 0.0
C898 C 0.22793 0.33306 0.27625 0.0
C899 C 0.91154 0.97313 0.52018 0.0
C900 C 0.92584 0.96702 0.49599 0.0
C901 C 0.92088 0.96389 0.54565 0.0
C902 C 0.94493 0.94816 0.54809 0.0
H903 H 0.89337 0.98584 0.51963 0.0
H904 H 0.90954 0.96997 0.56373 0.0
S905 S 0.98904 0.9248 0.49098 0.0
N906 N 0.96459 0.94269 0.47596 0.0
N907 N 0.98208 0.92554 0.52407 0.0
C908 C 0.95874 0.94067 0.52404 0.0
C909 C 0.94923 0.95009 0.49795 0.0
C910 C 0.31029 0.66834 0.78997 0.0
C911 C 0.32146 0.695 0.79126 0.0
C912 C 0.29519 0.65944 0.76722 0.0
C913 C 0.291 0.67664 0.74458 0.0
H914 H 0.31253 0.65432 0.80703 0.0
H915 H 0.28685 0.63886 0.76737 0.0
S916 S 0.31621 0.74819 0.73724 0.0
N917 N 0.32736 0.73844 0.76764 0.0
N918 N 0.29942 0.72166 0.72465 0.0
C919 C 0.30242 0.70321 0.74531 0.0
C920 C 0.31753 0.7124 0.76866 0.0
C921 C 0.58199 0.06971 0.99797 0.0
C922 C 0.58464 0.04108 0.99488 0.0
C923 C 0.5706 0.08113 0.02188 0.0
C924 C 0.56095 0.06418 0.043 0.0
H925 H 0.5896 0.08338 0.98222 0.0
H926 H 0.5703 0.1032 0.02427 0.0
S927 S 0.55976 0.98828 0.0435 0.0
N928 N 0.5744 0.99627 0.01407 0.0
N929 N 0.55275 0.01771 0.0586 0.0
C930 C 0.56221 0.03566 0.03952 0.0
C931 C 0.57411 0.02408 0.01554 0.0
C932 C 0.19886 0.7115 0.23439 0.0
C933 C 0.19829 0.69519 0.21072 0.0
C934 C 0.20958 0.7012 0.25905 0.0
C935 C 0.22029 0.67439 0.26074 0.0
H936 H 0.19249 0.73274 0.23349 0.0
H937 H 0.21059 0.7148 0.27655 0.0
S938 S 0.21892 0.62219 0.20567 0.0
N939 N 0.20589 0.64994 0.19138 0.0
N940 N 0.22631 0.63082 0.23752 0.0
C941 C 0.21811 0.65743 0.23767 0.0
C942 C 0.20702 0.66779 0.21273 0.0
C943 C 0.60192 0.95728 0.49575 0.0
C944 C 0.58297 0.96824 0.51431 0.0
C945 C 0.59319 0.94216 0.47293 0.0
C946 C 0.56512 0.93775 0.46748 0.0
H947 H 0.62368 0.96027 0.49894 0.0
H948 H 0.60869 0.93447 0.45906 0.0
S949 S 0.50724 0.96311 0.50982 0.0
N950 N 0.5349 0.97395 0.52596 0.0
N951 N 0.51841 0.94599 0.48289 0.0
C952 C 0.54595 0.94847 0.48617 0.0
C953 C 0.5549 0.96364 0.50956 0.0
C954 C 0.29369 0.34165 0.71476 0.0
C955 C 0.30746 0.31633 0.71319 0.0
C956 C 0.28427 0.35205 0.73973 0.0
C957 C 0.28826 0.33762 0.76427 0.0
H958 H 0.28939 0.35327 0.69635 0.0
H959 H 0.27322 0.37129 0.73963 0.0
S960 S 0.32417 0.27078 0.7715 0.0
N961 N 0.32551 0.27747 0.73837 0.0
N962 N 0.30801 0.29693 0.78557 0.0
C963 C 0.30301 0.31271 0.76319 0.0
C964 C 0.31261 0.30212 0.7376 0.0
C965 C 0.92795 0.07406 0.01518 0.0
C966 C 0.9202 0.0464 0.01216 0.0
C967 C 0.94247 0.08795 0.99463 0.0
C968 C 0.95013 0.07466 0.97027 0.0
H969 H 0.92301 0.08508 0.0338 0.0
H970 H 0.94798 0.10918 0.99806 0.0
S971 S 0.93562 1.00177 0.95281 0.0
N972 N 0.92158 1.00603 0.98325 0.0
N973 N 0.94901 0.03172 0.94459 0.0
C974 C 0.94238 0.04689 0.96698 0.0
C975 C 0.92735 0.03289 0.98788 0.0
C976 C 0.26681 0.1747 0.31314 0.0
C977 C 0.29351 0.18525 0.31288 0.0
C978 C 0.24506 0.19014 0.32396 0.0
C979 C 0.2494 0.21645 0.33517 0.0
H980 H 0.26277 0.15439 0.30516 0.0
H981 H 0.22471 0.18126 0.32379 0.0
S982 S 0.31553 0.25368 0.33755 0.0
N983 N 0.32307 0.2239 0.32335 0.0
N984 N 0.28237 0.25267 0.34412 0.0
C985 C 0.27605 0.22721 0.33476 0.0
C986 C 0.29806 0.21166 0.32347 0.0
C987 C 0.04752 0.9996 0.55738 0.0
C988 C 0.04219 0.99501 0.58536 0.0
C989 C 0.06267 0.0224 0.54859 0.0
C990 C 0.07345 0.04137 0.56746 0.0
H991 H 0.03933 0.98582 0.54201 0.0
H992 H 0.06532 0.02549 0.52677 0.0
S993 S 0.06738 0.03701 0.6433 0.0
N994 N 0.05009 0.01024 0.63196 0.0
N995 N 0.07908 0.05278 0.61576 0.0
C996 C 0.0691 0.03634 0.59562 0.0
C997 C 0.05331 0.01332 0.60448 0.0
C998 C 0.22145 0.79602 0.82019 0.0
C999 C 0.22037 0.82455 0.81655 0.0
C1000 C 0.24465 0.78341 0.83142 0.0
C1001 C 0.26764 0.79896 0.83918 0.0
H1002 H 0.20402 0.78339 0.81471 0.0
H1003 H 0.24468 0.76133 0.83372 0.0
S1004 S 0.27456 0.87453 0.83407 0.0
N1005 N 0.24365 0.86809 0.82184 0.0
N1006 N 0.28773 0.8445 0.84248 0.0
C1007 C 0.26682 0.82756 0.83537 0.0
C1008 C 0.24302 0.84036 0.8242 0.0
C1009 C 0.47767 0.99306 0.07571 0.0
C1010 C 0.46379 0.01163 0.09274 0.0
C1011 C 0.46366 0.97135 0.06301 0.0
C1012 C 0.43546 0.96713 0.0675 0.0
H1013 H 0.49933 0.99567 0.0717 0.0
H1014 H 0.47515 0.95731 0.05023 0.0
S1015 S 0.38994 0.00993 0.11036 0.0
N1016 N 0.42026 0.02477 0.11293 0.0
N1017 N 0.39431 0.98311 0.09019 0.0
C1018 C 0.42147 0.9854 0.08463 0.0
C1019 C 0.43554 0.0079 0.09693 0.0
C1020 C 0.26696 0.83561 0.18909 0.0
C1021 C 0.28928 0.82078 0.19962 0.0
C1022 C 0.2457 0.8224 0.17495 0.0
C1023 C 0.24609 0.79391 0.17041 0.0
H1024 H 0.26578 0.8576 0.19183 0.0
H1025 H 0.22877 0.83466 0.16751 0.0
S1026 S 0.29881 0.74518 0.19497 0.0
N1027 N 0.30972 0.77545 0.20536 0.0
N1028 N 0.2699 0.75105 0.17847 0.0
C1029 C 0.26813 0.77875 0.18083 0.0
C1030 C 0.28963 0.79206 0.19554 0.0
C1031 C 0.46995 0.01911 0.41 0.0
C1032 C 0.46733 0.99506 0.42558 0.0
C1033 C 0.4594 0.04404 0.41935 0.0
C1034 C 0.44581 0.04604 0.44471 0.0
H1035 H 0.48091 0.01892 0.3907 0.0
H1036 H 0.46277 0.06213 0.40692 0.0
S1037 S 0.43184 0.98886 0.49271 0.0
N1038 N 0.44858 0.97449 0.46708 0.0
N1039 N 0.42903 0.0216 0.48468 0.0
C1040 C 0.44183 0.02198 0.45997 0.0
C1041 C 0.45256 0.99645 0.45042 0.0
C1042 C 0.23514 0.17435 0.67457 0.0
C1043 C 0.21907 0.1871 0.69474 0.0
C1044 C 0.25673 0.18842 0.66181 0.0
C1045 C 0.26216 0.21603 0.66793 0.0
H1046 H 0.23089 0.15341 0.66855 0.0
H1047 H 0.26893 0.17778 0.64663 0.0
S1048 S 0.22663 0.2586 0.71974 0.0
N1049 N 0.21074 0.22871 0.72098 0.0
N1050 N 0.25067 0.25535 0.69615 0.0
C1051 C 0.24642 0.229 0.68817 0.0
C1052 C 0.22502 0.21446 0.70179 0.0
C1053 C 0.07074 0.97445 0.9182 0.0
C1054 C 0.07493 0.97042 0.94655 0.0
C1055 C 0.055 0.99636 0.90824 0.0
C1056 C 0.04325 0.01549 0.92616 0.0
H1057 H 0.07899 0.9601 0.90345 0.0
H1058 H 0.05211 0.99835 0.88633 0.0
S1059 S 0.04804 0.01481 1.00212 0.0
N1060 N 0.06595 0.98786 0.99235 0.0
N1061 N 0.03687 0.02923 0.97365 0.0
C1062 C 0.04773 0.01218 0.9545 0.0
C1063 C 0.06346 0.98967 0.96468 0.0
C1064 C 0.33062 0.27504 0.17496 0.0
C1065 C 0.31248 0.2923 0.18911 0.0
C1066 C 0.34253 0.25229 0.18789 0.0
C1067 C 0.33759 0.24677 0.21573 0.0
H1068 H 0.336 0.27944 0.15388 0.0
H1069 H 0.35636 0.23943 0.17626 0.0
S1070 S 0.29134 0.28543 0.26182 0.0
N1071 N 0.28948 0.30185 0.23228 0.0
N1072 N 0.31267 0.25968 0.2568 0.0
C1073 C 0.31928 0.26368 0.23005 0.0
C1074 C 0.30651 0.28632 0.21667 0.0
C1075 C 0.8365 0.23078 0.82965 0.0
C1076 C 0.81449 0.21626 0.81797 0.0
C1077 C 0.84842 0.25321 0.8161 0.0
C1078 C 0.83946 0.26113 0.78995 0.0
H1079 H 0.84473 0.22455 0.84929 0.0
H1080 H 0.86502 0.26417 0.82596 0.0
S1081 S 0.78245 0.23041 0.75043 0.0
N1082 N 0.78378 0.21207 0.77886 0.0
N1083 N 0.80692 0.25366 0.75316 0.0
C1084 C 0.81738 0.24708 0.7781 0.0
C1085 C 0.80471 0.22474 0.79217 0.0
C1086 C 0.02449 0.59898 0.03134 0.0
C1087 C 0.9994 0.58634 0.03745 0.0
C1088 C 0.04922 0.58812 0.04082 0.0
C1089 C 0.05005 0.56409 0.05683 0.0
H1090 H 0.0252 0.61715 0.01859 0.0
H1091 H 0.06797 0.59843 0.03491 0.0
S1092 S 0.99004 0.52367 0.07988 0.0
N1093 N 0.97676 0.54891 0.06168 0.0
N1094 N 0.02351 0.52855 0.07938 0.0
C1095 C 0.02511 0.55172 0.06403 0.0
C1096 C 0.99976 0.5628 0.05433 0.0
C1097 C 0.68389 0.74551 0.32274 0.0
C1098 C 0.67357 0.74778 0.29579 0.0
C1099 C 0.69439 0.76836 0.33681 0.0
C1100 C 0.69506 0.7942 0.32433 0.0
H1101 H 0.68363 0.72594 0.33323 0.0
H1102 H 0.70159 0.76589 0.35765 0.0
S1103 S 0.67305 0.811 0.25361 0.0
N1104 N 0.66636 0.77797 0.25682 0.0
N1105 N 0.68606 0.82077 0.28327 0.0
C1106 C 0.68546 0.79672 0.29729 0.0
C1107 C 0.6747 0.77356 0.28301 0.0
C1108 C 0.99251 0.94206 0.03138 0.0
C1109 C 0.01098 0.92503 0.04546 0.0
C1110 C 0.97071 0.95479 0.04516 0.0
C1111 C 0.96628 0.95041 0.07334 0.0
H1112 H 0.99508 0.94578 0.00964 0.0
H1113 H 0.95661 0.96731 0.03343 0.0
S1114 S 0.00895 0.90797 0.11945 0.0
N1115 N 0.02395 0.90522 0.08925 0.0
N1116 N 0.98217 0.92811 0.11476 0.0
C1117 C 0.98463 0.93355 0.08759 0.0
C1118 C 0.00722 0.92118 0.07375 0.0
C1119 C 0.20879 0.73622 0.69533 0.0
C1120 C 0.19291 0.71242 0.69848 0.0
C1121 C 0.19973 0.76146 0.70571 0.0
C1122 C 0.17452 0.76376 0.71966 0.0
H1123 H 0.22894 0.73511 0.6861 0.0
H1124 H 0.21317 0.77903 0.70375 0.0
S1125 S 0.12354 0.70826 0.72938 0.0
N1126 N 0.14941 0.69332 0.71359 0.0
N1127 N 0.13259 0.74062 0.73327 0.0
C1128 C 0.15778 0.74043 0.72142 0.0
C1129 C 0.16692 0.71482 0.71076 0.0
C1130 C 1.00126 0.43264 0.44364 0.0
C1131 C 0.99943 0.41862 0.46888 0.0
C1132 C 0.02626 0.44356 0.43434 0.0
C1133 C 0.05028 0.44075 0.44995 0.0
H1134 H 0.98321 0.43542 0.43104 0.0
H1135 H 0.02676 0.45422 0.41488 0.0
S1136 S 0.05594 0.40798 0.5185 0.0
N1137 N 0.02357 0.4039 0.50981 0.0
N1138 N 0.07024 0.42427 0.49261 0.0
C1139 C 0.04858 0.427 0.4753 0.0
C1140 C 0.02326 0.41594 0.48469 0.0
C1141 C 0.48739 0.58335 0.9228 0.0
C1142 C 0.46749 0.56779 0.93652 0.0
C1143 C 0.50901 0.59569 0.93724 0.0
C1144 C 0.51076 0.59385 0.96598 0.0
H1145 H 0.48626 0.58593 0.90079 0.0
H1146 H 0.52433 0.60702 0.92583 0.0
S1147 S 0.46337 0.55572 0.01145 0.0
N1148 N 0.45082 0.55102 0.98037 0.0
N1149 N 0.49089 0.57506 0.00756 0.0
C1150 C 0.49078 0.57859 0.97995 0.0
C1151 C 0.46926 0.56535 0.96519 0.0
C1152 C 0.71351 0.81197 0.78896 0.0
C1153 C 0.6849 0.8144 0.79182 0.0
C1154 C 0.72755 0.8255 0.76783 0.0
C1155 C 0.71335 0.8414 0.74851 0.0
H1156 H 0.72521 0.80007 0.80359 0.0
H1157 H 0.74954 0.82297 0.76624 0.0
S1158 S 0.63847 0.85383 0.74675 0.0
N1159 N 0.64302 0.83411 0.7739 0.0
N1160 N 0.66916 0.85847 0.73327 0.0
C1161 C 0.68475 0.84366 0.75093 0.0
C1162 C 0.67058 0.83049 0.77288 0.0
C1163 C 0.43268 0.47466 0.04533 0.0
C1164 C 0.44447 0.44837 0.04686 0.0
C1165 C 0.4226 0.48513 0.02078 0.0
C1166 C 0.42396 0.46982 0.99657 0.0
H1167 H 0.43158 0.48769 0.06326 0.0
H1168 H 0.41432 0.50572 0.02069 0.0
S1169 S 0.45132 0.39924 0.98943 0.0
N1170 N 0.45601 0.40673 0.02213 0.0
N1171 N 0.43702 0.42657 0.97547 0.0
C1172 C 0.43547 0.44336 0.99761 0.0
C1173 C 0.44579 0.43259 0.02286 0.0
C1174 C 0.81564 0.20847 0.27165 0.0
C1175 C 0.82101 0.19051 0.29352 0.0
C1176 C 0.80071 0.19985 0.24863 0.0
C1177 C 0.79013 0.17299 0.2466 0.0
H1178 H 0.82272 0.2295 0.27245 0.0
H1179 H 0.79704 0.21464 0.23249 0.0
S1180 S 0.79822 0.11782 0.29817 0.0
N1181 N 0.81455 0.14428 0.31145 0.0
N1182 N 0.78632 0.12844 0.26837 0.0
C1183 C 0.79546 0.15475 0.26818 0.0
C1184 C 0.81096 0.16339 0.29151 0.0
C1185 C 0.05063 0.56021 0.52338 0.0
C1186 C 0.06768 0.56072 0.54652 0.0
C1187 C 0.06001 0.54936 0.49847 0.0
C1188 C 0.08672 0.53861 0.49587 0.0
H1189 H 0.02951 0.56682 0.52489 0.0
H1190 H 0.0458 0.54843 0.48146 0.0
S1191 S 0.14052 0.5393 0.54943 0.0
N1192 N 0.11335 0.55258 0.56455 0.0
N1193 N 0.13088 0.53207 0.51783 0.0
C1194 C 0.10438 0.54053 0.51846 0.0
C1195 C 0.09488 0.55165 0.54374 0.0
C1196 C 0.67341 0.19993 0.74849 0.0
C1197 C 0.68364 0.20299 0.72176 0.0
C1198 C 0.68815 0.18565 0.76859 0.0
C1199 C 0.71376 0.17361 0.76287 0.0
H1200 H 0.65396 0.20893 0.75417 0.0
H1201 H 0.6794 0.18432 0.78893 0.0
S1202 S 0.74984 0.17527 0.69608 0.0
N1203 N 0.72121 0.19238 0.69058 0.0
N1204 N 0.74869 0.16552 0.72843 0.0
C1205 C 0.72414 0.17609 0.73616 0.0
C1206 C 0.70919 0.1908 0.71564 0.0
C1207 C 0.07479 0.42356 0.99201 0.0
C1208 C 0.06124 0.43851 0.9715 0.0
C1209 C 0.08901 0.43695 0.01311 0.0
C1210 C 0.09097 0.46572 0.01392 0.0
H1211 H 0.07423 0.40137 0.99189 0.0
H1212 H 0.09867 0.42465 0.02885 0.0
S1213 S 0.05927 0.51442 0.96509 0.0
N1214 N 0.05056 0.48386 0.95346 0.0
N1215 N 0.07788 0.50878 0.99276 0.0
C1216 C 0.07775 0.48093 0.99345 0.0
C1217 C 0.06271 0.46738 0.97235 0.0
C1218 C 0.82174 0.84586 0.25795 0.0
C1219 C 0.79544 0.83749 0.26608 0.0
C1220 C 0.83446 0.83411 0.23506 0.0
C1221 C 0.8218 0.81278 0.22043 0.0
H1222 H 0.83205 0.86232 0.26872 0.0
H1223 H 0.85395 0.84227 0.22824 0.0
S1224 S 0.75416 0.78161 0.23555 0.0
N1225 N 0.75781 0.80571 0.25901 0.0
N1226 N 0.78223 0.7827 0.21665 0.0
C1227 C 0.79616 0.80318 0.22937 0.0
C1228 C 0.78283 0.81579 0.25208 0.0
C1229 C 0.41025 0.5533 0.49538 0.0
C1230 C 0.42904 0.53855 0.51125 0.0
C1231 C 0.41893 0.56825 0.47247 0.0
C1232 C 0.44667 0.56863 0.46435 0.0
H1233 H 0.38871 0.55337 0.50076 0.0
H1234 H 0.4036 0.57892 0.4605 0.0
S1235 S 0.50367 0.53209 0.49895 0.0
N1236 N 0.47643 0.52496 0.51771 0.0
N1237 N 0.49277 0.55227 0.47407 0.0
C1238 C 0.46573 0.55414 0.48041 0.0
C1239 C 0.45687 0.53923 0.50396 0.0
C1240 C 0.75175 0.6839 0.84522 0.0
C1241 C 0.74656 0.71179 0.8402 0.0
C1242 C 0.77402 0.67051 0.83291 0.0
C1243 C 0.79107 0.68424 0.81421 0.0
H1244 H 0.73882 0.67249 0.85921 0.0
H1245 H 0.77801 0.64931 0.83814 0.0
S1246 S 0.78505 0.75699 0.79278 0.0
N1247 N 0.75974 0.75254 0.8148 0.0
N1248 N 0.80089 0.72716 0.79077 0.0
C1249 C 0.78554 0.71193 0.80833 0.0
C1250 C 0.76344 0.72577 0.82156 0.0
C1251 C 0.53222 0.51643 0.07655 0.0
C1252 C 0.5477 0.49387 0.08564 0.0
C1253 C 0.5449 0.53902 0.06392 0.0
C1254 C 0.5735 0.54003 0.06038 0.0
H1255 H 0.51016 0.5165 0.0789 0.0
H1256 H 0.53233 0.55621 0.05765 0.0
S1257 S 0.62324 0.4867 0.08081 0.0
N1258 N 0.59319 0.47398 0.08983 0.0
N1259 N 0.61688 0.51702 0.06716 0.0
C1260 C 0.58917 0.51781 0.06944 0.0
C1261 C 0.57629 0.49456 0.08174 0.0
C1262 C 0.72309 0.29712 0.31019 0.0
C1263 C 0.71863 0.32512 0.31562 0.0
C1264 C 0.74471 0.28284 0.32266 0.0
C1265 C 0.76298 0.29627 0.3404 0.0
H1266 H 0.7092 0.28593 0.29696 0.0
H1267 H 0.74739 0.26129 0.31806 0.0
S1268 S 0.76084 0.36952 0.3603 0.0
N1269 N 0.73425 0.36565 0.33973 0.0
N1270 N 0.77581 0.33922 0.36204 0.0
C1271 C 0.75919 0.32437 0.34535 0.0
C1272 C 0.73674 0.33869 0.33329 0.0
C1273 C 0.93746 0.51015 0.59213 0.0
C1274 C 0.96594 0.51383 0.58969 0.0
C1275 C 0.92417 0.48798 0.57948 0.0
C1276 C 0.9387 0.46949 0.56294 0.0
H1277 H 0.92544 0.52425 0.60433 0.0
H1278 H 0.90238 0.48525 0.58269 0.0
S1279 S 0.01333 0.47105 0.54863 0.0
N1280 N 0.00817 0.49757 0.56902 0.0
N1281 N 0.98304 0.45653 0.54433 0.0
C1282 C 0.96707 0.4734 0.55966 0.0
C1283 C 0.98074 0.49544 0.57326 0.0
C1284 C 0.79344 0.30593 0.66663 0.0
C1285 C 0.79681 0.31249 0.69451 0.0
C1286 C 0.76898 0.29461 0.65679 0.0
C1287 C 0.74693 0.28941 0.67448 0.0
H1288 H 0.81036 0.30842 0.65247 0.0
H1289 H 0.76765 0.2892 0.63531 0.0
S1290 S 0.74519 0.30352 0.7493 0.0
N1291 N 0.77593 0.31375 0.73955 0.0
N1292 N 0.72975 0.29252 0.72127 0.0
C1293 C 0.74958 0.29706 0.70226 0.0
C1294 C 0.77456 0.30866 0.71223 0.0
C1295 C 0.96469 0.54855 0.91837 0.0
C1296 C 0.94934 0.54961 0.94281 0.0
C1297 C 0.97338 0.52365 0.90719 0.0
C1298 C 0.96701 0.49864 0.91988 0.0
H1299 H 0.97086 0.56725 0.90811 0.0
H1300 H 0.98587 0.52412 0.88886 0.0
S1301 S 0.92563 0.48996 0.98333 0.0
N1302 N 0.92684 0.52344 0.97861 0.0
N1303 N 0.9429 0.47639 0.95763 0.0
C1304 C 0.95047 0.49927 0.94366 0.0
C1305 C 0.94165 0.52479 0.95509 0.0
C1306 C 0.74115 0.67778 0.19002 0.0
C1307 C 0.71667 0.692 0.19448 0.0
C1308 C 0.7639 0.69119 0.17861 0.0
C1309 C 0.76267 0.71907 0.17096 0.0
H1310 H 0.74258 0.65619 0.19499 0.0
H1311 H 0.7825 0.67951 0.1755 0.0
S1312 S 0.70295 0.76516 0.17967 0.0
N1313 N 0.69239 0.73523 0.19145 0.0
N1314 N 0.73487 0.76039 0.16954 0.0
C1315 C 0.73817 0.7334 0.17553 0.0
C1316 C 0.71524 0.71984 0.18746 0.0
C1317 C 0.53006 0.49274 0.43215 0.0
C1318 C 0.54488 0.5145 0.42056 0.0
C1319 C 0.54349 0.47169 0.44635 0.0
C1320 C 0.57227 0.47132 0.4489 0.0
H1321 H 0.5079 0.49237 0.43091 0.0
H1322 H 0.53121 0.4553 0.45496 0.0
S1323 S 0.6203 0.52359 0.42206 0.0
N1324 N 0.58972 0.53478 0.41288 0.0
N1325 N 0.61502 0.4945 0.43856 0.0
C1326 C 0.58729 0.4928 0.43712 0.0
C1327 C 0.57357 0.51459 0.42325 0.0
C1328 C 0.80257 0.77221 0.6901 0.0
C1329 C 0.81842 0.79619 0.69116 0.0
C1330 C 0.81131 0.74813 0.70316 0.0
C1331 C 0.836 0.74724 0.71821 0.0
H1332 H 0.78326 0.77206 0.67917 0.0
H1333 H 0.79831 0.73019 0.70177 0.0
S1334 S 0.8842 0.80507 0.72865 0.0
N1335 N 0.85967 0.81783 0.70923 0.0
N1336 N 0.87575 0.77276 0.7339 0.0
C1337 C 0.8519 0.77116 0.7196 0.0
C1338 C 0.84321 0.79556 0.70605 0.0
C1339 C 0.34543 0.72294 0.32063 0.0
C1340 C 0.31741 0.71582 0.32015 0.0
C1341 C 0.3553 0.74597 0.30658 0.0
C1342 C 0.33744 0.76292 0.29186 0.0
H1343 H 0.36006 0.71006 0.33123 0.0
H1344 H 0.37702 0.7505 0.30721 0.0
S1345 S 0.26257 0.75331 0.2832 0.0
N1346 N 0.27209 0.72764 0.30308 0.0
N1347 N 0.29063 0.77122 0.27715 0.0
C1348 C 0.30934 0.75655 0.29165 0.0
C1349 C 0.29929 0.73297 0.30575 0.0
C1350 C 0.49956 0.05782 0.54897 0.0
C1351 C 0.4966 0.08478 0.53895 0.0
C1352 C 0.5245 0.04868 0.55993 0.0
C1353 C 0.54728 0.06621 0.56125 0.0
H1354 H 0.48284 0.0433 0.5474 0.0
H1355 H 0.52634 0.0274 0.56602 0.0
S1356 S 0.54914 0.1396 0.54153 0.0
N1357 N 0.5178 0.12955 0.53374 0.0
N1358 N 0.56462 0.11238 0.55433 0.0
C1359 C 0.54414 0.09355 0.55274 0.0
C1360 C 0.51883 0.10284 0.54156 0.0
C1361 C 0.16793 0.29459 0.8038 0.0
C1362 C 0.19521 0.29798 0.81256 0.0
C1363 C 0.15875 0.26971 0.79285 0.0
C1364 C 0.1765 0.24725 0.79031 0.0
H1365 H 0.15368 0.31157 0.80478 0.0
H1366 H 0.13769 0.26817 0.78603 0.0
S1367 S 0.25025 0.24589 0.80906 0.0
N1368 N 0.24004 0.27702 0.81743 0.0
N1369 N 0.22288 0.23012 0.79693 0.0
C1370 C 0.20376 0.25019 0.79942 0.0
C1371 C 0.21309 0.27558 0.81058 0.0
C1372 C 0.48638 0.42857 0.58934 0.0
C1373 C 0.46686 0.44365 0.57458 0.0
C1374 C 0.50849 0.41595 0.57593 0.0
C1375 C 0.51106 0.41696 0.54723 0.0
H1376 H 0.48448 0.42645 0.61134 0.0
H1377 H 0.52347 0.40497 0.58807 0.0
S1378 S 0.4653 0.45404 0.49931 0.0
N1379 N 0.4517 0.45939 0.52983 0.0
N1380 N 0.49267 0.43486 0.50458 0.0
C1381 C 0.49162 0.43194 0.53225 0.0
C1382 C 0.46963 0.44548 0.54596 0.0
C1383 C 0.65738 0.23978 0.21766 0.0
C1384 C 0.67522 0.26214 0.22084 0.0
C1385 C 0.66659 0.21502 0.20643 0.0
C1386 C 0.69394 0.21166 0.19792 0.0
H1387 H 0.6363 0.24121 0.2244 0.0
H1388 H 0.65236 0.198 0.20525 0.0
S1389 S 0.74902 0.26373 0.20209 0.0
N1390 N 0.72168 0.27933 0.21442 0.0
N1391 N 0.73874 0.23272 0.19329 0.0
C1392 C 0.71179 0.23408 0.2001 0.0
C1393 C 0.70248 0.25932 0.21162 0.0
C1394 C 0.51638 0.90652 0.96257 0.0
C1395 C 0.49472 0.92486 0.96702 0.0
C1396 C 0.54057 0.91511 0.94976 0.0
C1397 C 0.54421 0.94243 0.94109 0.0
H1398 H 0.51491 0.8855 0.96955 0.0
H1399 H 0.55704 0.90039 0.94766 0.0
S1400 S 0.49323 0.99836 0.94696 0.0
N1401 N 0.47792 0.97145 0.96063 0.0
N1402 N 0.52361 0.98753 0.93686 0.0
C1403 C 0.52226 0.96072 0.94427 0.0
C1404 C 0.4975 0.95195 0.95724 0.0
C1405 C 0.01853 0.0703 0.44118 0.0
C1406 C 0.01676 0.08548 0.46576 0.0
C1407 C 0.99497 0.06028 0.42797 0.0
C1408 C 0.96888 0.06533 0.43878 0.0
H1409 H 0.03827 0.06612 0.43198 0.0
H1410 H 0.99715 0.04891 0.40904 0.0
S1411 S 0.95286 0.10127 0.50372 0.0
N1412 N 0.98652 0.10321 0.50115 0.0
N1413 N 0.94245 0.08459 0.4762 0.0
C1414 C 0.96678 0.07991 0.46351 0.0
C1415 C 0.99065 0.08998 0.47702 0.0
C1416 C 0.16403 0.39713 0.41924 0.0
C1417 C 0.15425 0.41337 0.39739 0.0
C1418 C 0.1712 0.36942 0.41527 0.0
C1419 C 0.1687 0.35712 0.38936 0.0
H1420 H 0.16499 0.40549 0.43977 0.0
H1421 H 0.17735 0.35723 0.43277 0.0
S1422 S 0.14769 0.39115 0.32486 0.0
N1423 N 0.1453 0.41537 0.34834 0.0
N1424 N 0.15825 0.36353 0.34125 0.0
C1425 C 0.16036 0.3734 0.36721 0.0
C1426 C 0.1533 0.40147 0.37111 0.0
C1427 C 0.89061 0.89021 0.63366 0.0
C1428 C 0.90661 0.9098 0.64756 0.0
C1429 C 0.86273 0.88697 0.63928 0.0
C1430 C 0.84964 0.90274 0.65948 0.0
H1431 H 0.89954 0.87742 0.61789 0.0
H1432 H 0.85138 0.87169 0.62785 0.0
S1433 S 0.88193 0.95647 0.70217 0.0
N1434 N 0.9071 0.94532 0.68248 0.0
N1435 N 0.85457 0.93837 0.69372 0.0
C1436 C 0.86528 0.92204 0.67395 0.0
C1437 C 0.89375 0.92584 0.66777 0.0
C1438 C 0.36914 0.65172 0.92416 0.0
C1439 C 0.34923 0.66196 0.90597 0.0
C1440 C 0.37213 0.62343 0.92867 0.0
C1441 C 0.35582 0.60426 0.91457 0.0
H1442 H 0.38294 0.66565 0.93456 0.0
H1443 H 0.38823 0.61654 0.94229 0.0
S1444 S 0.30029 0.62026 0.86525 0.0
N1445 N 0.31206 0.65051 0.87478 0.0
N1446 N 0.31859 0.59749 0.88228 0.0
C1447 C 0.33548 0.61421 0.8968 0.0
C1448 C 0.33192 0.643 0.89278 0.0
C1449 C 0.64242 0.09469 0.16629 0.0
C1450 C 0.65614 0.11737 0.15487 0.0
C1451 C 0.61423 0.09025 0.16144 0.0
C1452 C 0.59864 0.10865 0.14548 0.0
H1453 H 0.65366 0.07994 0.17847 0.0
H1454 H 0.60466 0.07218 0.17009 0.0
S1455 S 0.62471 0.17237 0.11266 0.0
N1456 N 0.65168 0.1591 0.12802 0.0
N1457 N 0.5993 0.1511 0.1192 0.0
C1458 C 0.61214 0.13183 0.1347 0.0
C1459 C 0.64069 0.13609 0.13932 0.0
C1460 C 0.13334 0.64467 0.12917 0.0
C1461 C 0.15413 0.65906 0.1153 0.0
C1462 C 0.12832 0.61693 0.12414 0.0
C1463 C 0.14368 0.60208 0.1048 0.0
H1464 H 0.12076 0.65478 0.14438 0.0
H1465 H 0.11196 0.60718 0.13553 0.0
S1466 S 0.20056 0.62986 0.06272 0.0
N1467 N 0.19045 0.65624 0.08135 0.0
N1468 N 0.18067 0.6039 0.07153 0.0
C1469 C 0.16451 0.6161 0.09058 0.0
C1470 C 0.16984 0.64456 0.09594 0.0
C1471 C 0.64744 0.92611 0.36182 0.0
C1472 C 0.65748 0.90658 0.34311 0.0
C1473 C 0.6192 0.93004 0.3656 0.0
C1474 C 0.59985 0.91416 0.35127 0.0
H1475 H 0.66152 0.93808 0.37412 0.0
H1476 H 0.61256 0.94477 0.3808 0.0
S1477 S 0.61526 0.86091 0.29927 0.0
N1478 N 0.64562 0.87202 0.3092 0.0
N1479 N 0.59269 0.87884 0.31693 0.0
C1480 C 0.60957 0.89505 0.33203 0.0
C1481 C 0.63831 0.89143 0.32776 0.0
C1482 C 0.34644 0.3948 0.58757 0.0
C1483 C 0.35914 0.41238 0.60661 0.0
C1484 C 0.34165 0.36701 0.59378 0.0
C1485 C 0.35013 0.35576 0.61892 0.0
H1486 H 0.34007 0.40259 0.56779 0.0
H1487 H 0.33185 0.35413 0.5786 0.0
S1488 S 0.38455 0.39287 0.67568 0.0
N1489 N 0.38008 0.41629 0.65172 0.0
N1490 N 0.37152 0.36434 0.66306 0.0
C1491 C 0.36288 0.3731 0.63806 0.0
C1492 C 0.36728 0.40133 0.63199 0.0
C1493 C 0.88726 0.10714 0.88348 0.0
C1494 C 0.90511 0.09517 0.86433 0.0
C1495 C 0.85977 0.11215 0.87717 0.0
C1496 C 0.84892 0.10592 0.85118 0.0
H1497 H 0.8946 0.11284 0.90365 0.0
H1498 H 0.84714 0.12168 0.89272 0.0
S1499 S 0.88712 0.07429 0.79365 0.0
N1500 N 0.91005 0.07675 0.81844 0.0
N1501 N 0.8583 0.08688 0.80615 0.0
C1502 C 0.8665 0.09379 0.8318 0.0
C1503 C 0.89455 0.08816 0.8385 0.0
C1504 C 0.42639 0.14578 0.39291 0.0
C1505 C 0.40685 0.15576 0.41155 0.0
C1506 C 0.42394 0.15089 0.36469 0.0
C1507 C 0.40231 0.16681 0.35418 0.0
H1508 H 0.44288 0.13272 0.39999 0.0
H1509 H 0.43877 0.14177 0.35095 0.0
S1510 S 0.34683 0.19909 0.39497 0.0
N1511 N 0.3657 0.18282 0.41786 0.0
N1512 N 0.36177 0.19366 0.36513 0.0
C1513 C 0.38341 0.17801 0.37289 0.0
C1514 C 0.38548 0.17211 0.40148 0.0
C1515 C 0.12081 0.17094 0.61195 0.0
C1516 C 0.09998 0.1541 0.60117 0.0
C1517 C 0.1239 0.17463 0.64033 0.0
C1518 C 0.1068 0.16095 0.65909 0.0
H1519 H 0.13525 0.1809 0.59834 0.0
H1520 H 0.14067 0.18722 0.64762 0.0
S1521 S 0.04858 0.11536 0.64181 0.0
N1522 N 0.06103 0.12479 0.6118 0.0
N1523 N 0.06782 0.13069 0.66504 0.0
C1524 C 0.08559 0.14453 0.64868 0.0
C1525 C 0.0819 0.14141 0.61977 0.0
C1526 C 0.1104 0.83778 0.89708 0.0
C1527 C 0.09309 0.85864 0.90695 0.0
C1528 C 0.11602 0.83502 0.86897 0.0
C1529 C 0.10515 0.8535 0.84969 0.0
H1530 H 0.12015 0.82376 0.91126 0.0
H1531 H 0.13 0.81906 0.86249 0.0
S1532 S 0.0582 0.91129 0.86454 0.0
N1533 N 0.06418 0.89737 0.89478 0.0
N1534 N 0.07574 0.89288 0.84226 0.0
C1535 C 0.08746 0.87411 0.85917 0.0
C1536 C 0.08114 0.87649 0.88768 0.0
C1537 C 0.38307 0.87006 0.11417 0.0
C1538 C 0.40719 0.86021 0.1019 0.0
C1539 C 0.37782 0.86618 0.14204 0.0
C1540 C 0.39619 0.85181 0.15898 0.0
H1541 H 0.36811 0.8813 0.10223 0.0
H1542 H 0.35887 0.87429 0.15025 0.0
S1543 S 0.46239 0.82178 0.13712 0.0
N1544 N 0.44994 0.83577 0.1089 0.0
N1545 N 0.43961 0.82766 0.16146 0.0
C1546 C 0.42037 0.84165 0.14706 0.0
C1547 C 0.42602 0.84613 0.11855 0.0
C1548 C 0.3971 0.38273 0.13738 0.0
C1549 C 0.41266 0.404 0.14919 0.0
C1550 C 0.36909 0.37984 0.14275 0.0
C1551 C 0.35539 0.39761 0.16075 0.0
H1552 H 0.40641 0.36842 0.12322 0.0
H1553 H 0.35808 0.36338 0.1327 0.0
S1554 S 0.38614 0.45653 0.19732 0.0
N1555 N 0.41189 0.44342 0.17969 0.0
N1556 N 0.35921 0.43712 0.19058 0.0
C1557 C 0.37057 0.41862 0.17323 0.0
C1558 C 0.39916 0.42205 0.16723 0.0
C1559 C 0.84824 0.89295 0.08494 0.0
C1560 C 0.86097 0.91058 0.10396 0.0
C1561 C 0.84524 0.86469 0.09038 0.0
C1562 C 0.85577 0.85301 0.11454 0.0
H1563 H 0.84033 0.90108 0.06588 0.0
H1564 H 0.83516 0.85183 0.07536 0.0
S1565 S 0.891 0.89002 0.17085 0.0
N1566 N 0.88387 0.91402 0.14813 0.0
N1567 N 0.87916 0.86123 0.15769 0.0
C1568 C 0.86867 0.87038 0.13355 0.0
C1569 C 0.87105 0.89906 0.12843 0.0
C1570 C 0.14446 0.59953 0.66781 0.0
C1571 C 0.15998 0.61624 0.65002 0.0
C1572 C 0.11634 0.59448 0.66306 0.0
C1573 C 0.10263 0.60638 0.64063 0.0
H1574 H 0.15399 0.59048 0.68568 0.0
H1575 H 0.10517 0.5817 0.67736 0.0
S1576 S 0.13404 0.6502 0.58685 0.0
N1577 N 0.15934 0.64347 0.60815 0.0
N1578 N 0.10713 0.63427 0.59961 0.0
C1579 C 0.11805 0.62261 0.62245 0.0
C1580 C 0.14651 0.62746 0.62704 0.0
C1581 C 0.6433 0.8903 0.92604 0.0
C1582 C 0.65547 0.9091 0.90785 0.0
C1583 C 0.64696 0.86191 0.92278 0.0
C1584 C 0.66369 0.85131 0.90184 0.0
H1585 H 0.62962 0.89744 0.94195 0.0
H1586 H 0.6361 0.84811 0.93637 0.0
S1587 S 0.70148 0.89207 0.84996 0.0
N1588 N 0.68542 0.91522 0.86867 0.0
N1589 N 0.69352 0.86204 0.86342 0.0
C1590 C 0.6771 0.86999 0.88443 0.0
C1591 C 0.67266 0.89882 0.88721 0.0
C1592 C 0.83032 0.13743 0.38972 0.0
C1593 C 0.84422 0.15679 0.40599 0.0
C1594 C 0.83577 0.10924 0.3921 0.0
C1595 C 0.85468 0.0992 0.41142 0.0
H1596 H 0.81609 0.14413 0.37408 0.0
H1597 H 0.82548 0.09523 0.37829 0.0
S1598 S 0.89533 0.14126 0.46006 0.0
N1599 N 0.87723 0.16384 0.44256 0.0
N1600 N 0.88639 0.11093 0.44801 0.0
C1601 C 0.86771 0.11825 0.42873 0.0
C1602 C 0.86277 0.14699 0.42575 0.0
C1603 C 0.67168 0.14004 0.59773 0.0
C1604 C 0.65746 0.15524 0.6177 0.0
C1605 C 0.66551 0.11216 0.59295 0.0
C1606 C 0.64531 0.09837 0.60835 0.0
H1607 H 0.68728 0.14986 0.58537 0.0
H1608 H 0.67667 0.10135 0.57712 0.0
S1609 S 0.60289 0.12883 0.66382 0.0
N1610 N 0.62274 0.15412 0.65344 0.0
N1611 N 0.61133 0.10235 0.64466 0.0
C1612 C 0.63132 0.11337 0.62866 0.0
C1613 C 0.63736 0.1416 0.63329 0.0
C1614 C 0.11554 0.41519 0.84664 0.0
C1615 C 0.10207 0.40516 0.87007 0.0
C1616 C 0.14376 0.41041 0.84249 0.0
C1617 C 0.15958 0.39594 0.86191 0.0
H1618 H 0.10402 0.42595 0.83103 0.0
H1619 H 0.15308 0.4176 0.82368 0.0
S1620 S 0.13429 0.36864 0.92843 0.0
N1621 N 0.10695 0.3819 0.91372 0.0
N1622 N 0.15962 0.3739 0.90672 0.0
C1623 C 0.14639 0.3871 0.88605 0.0
C1624 C 0.11776 0.39145 0.88991 0.0
C1625 C 0.36551 0.59003 0.33578 0.0
C1626 C 0.35104 0.60901 0.35193 0.0
C1627 C 0.39381 0.58581 0.33958 0.0
C1628 C 0.40865 0.6012 0.35893 0.0
H1629 H 0.35483 0.57815 0.32038 0.0
H1630 H 0.40423 0.57082 0.327 0.0
S1631 S 0.38037 0.65382 0.40597 0.0
N1632 N 0.35375 0.6433 0.388 0.0
N1633 N 0.40669 0.63598 0.39454 0.0
C1634 C 0.39439 0.62039 0.37498 0.0
C1635 C 0.36565 0.62417 0.37162 0.0
C1636 C 0.89075 0.62709 0.89085 0.0
C1637 C 0.90651 0.64483 0.90724 0.0
C1638 C 0.88682 0.63218 0.86296 0.0
C1639 C 0.89799 0.65551 0.85026 0.0
H1640 H 0.88163 0.60879 0.89951 0.0
H1641 H 0.87452 0.61778 0.85136 0.0
S1642 S 0.94032 0.70877 0.88399 0.0
N1643 N 0.93337 0.68673 0.90875 0.0
N1644 N 0.92514 0.69681 0.85619 0.0
C1645 C 0.91343 0.6737 0.86637 0.0
C1646 C 0.91798 0.66819 0.89485 0.0
C1647 C 0.58786 0.66566 0.1201 0.0
C1648 C 0.60167 0.64492 0.10563 0.0
C1649 C 0.59278 0.67 0.14827 0.0
C1650 C 0.61088 0.65306 0.16306 0.0
H1651 H 0.57374 0.67905 0.10944 0.0
H1652 H 0.58224 0.68658 0.15857 0.0
S1653 S 0.65159 0.59543 0.13456 0.0
N1654 N 0.63429 0.60745 0.10814 0.0
N1655 N 0.64249 0.61459 0.16086 0.0
C1656 C 0.62433 0.63192 0.14878 0.0
C1657 C 0.61999 0.62811 0.12014 0.0
C1658 C 0.59842 0.33604 0.36918 0.0
C1659 C 0.6115 0.35538 0.35216 0.0
C1660 C 0.594 0.34138 0.39726 0.0
C1661 C 0.60336 0.36583 0.40937 0.0
H1662 H 0.59138 0.31677 0.36071 0.0
H1663 H 0.58383 0.32605 0.40969 0.0
S1664 S 0.63908 0.42294 0.37407 0.0
N1665 N 0.63355 0.4001 0.34978 0.0
N1666 N 0.62617 0.40947 0.40225 0.0
C1667 C 0.61659 0.38514 0.39262 0.0
C1668 C 0.62044 0.38009 0.36411 0.0
C1669 C 0.91279 0.34168 0.64015 0.0
C1670 C 0.89077 0.35369 0.65438 0.0
C1671 C 0.9169 0.34674 0.61199 0.0
C1672 C 0.89869 0.36334 0.59694 0.0
H1673 H 0.92721 0.32873 0.65095 0.0
H1674 H 0.93433 0.33746 0.60191 0.0
S1675 S 0.83751 0.39914 0.62459 0.0
N1676 N 0.85044 0.38273 0.65114 0.0
N1677 N 0.85786 0.39184 0.59865 0.0
C1678 C 0.87644 0.37514 0.61096 0.0
C1679 C 0.87256 0.3704 0.63954 0.0
loop_
_geom_bond_atom_site_label_1
_geom_bond_atom_site_label_2
_geom_bond_distance
_geom_bond_site_symmetry_2
_ccdc_geom_bond_type
Mg0 O7 2.141 . S
Mg0 O8 2.048 . S
Mg0 O9 2.048 . S
Mg0 O12 2.141 . S
C1 O2 1.313 . S
C1 O8 1.195 . S
O2 C1 1.313 . S
C3 O4 1.245 . S
C3 O12 1.289 . S
O4 C3 1.245 . S
C5 O6 1.245 . S
C5 O7 1.289 . S
O6 C5 1.245 . S
O7 Mg0 2.141 . S
O7 C5 1.289 . S
O8 Mg0 2.048 . S
O8 C1 1.195 . S
O9 Mg0 2.048 . S
O9 C10 1.195 . S
C10 O9 1.195 . S
C10 O11 1.313 . S
O11 C10 1.313 . S
O12 Mg0 2.141 . S
O12 C3 1.289 . S
Mg13 O20 2.142 1_655 S
Mg13 O21 2.048 . S
Mg13 O22 2.048 . S
Mg13 O25 2.141 1_655 S
C14 O15 1.313 . S
C14 O21 1.195 . S
O15 C14 1.313 . S
C16 O17 1.245 . S
C16 O25 1.289 . S
O17 C16 1.245 . S
C18 O19 1.245 . S
C18 O20 1.289 . S
O19 C18 1.245 . S
O20 Mg13 2.142 1_455 S
O20 C18 1.289 . S
O21 Mg13 2.048 . S
O21 C14 1.195 . S
O22 Mg13 2.048 . S
O22 C23 1.195 . S
C23 O22 1.195 . S
C23 O24 1.313 . S
O24 C23 1.313 . S
O25 Mg13 2.141 1_455 S
O25 C16 1.289 . S
Mg26 O33 2.141 . S
Mg26 O34 2.048 . S
Mg26 O35 2.048 . S
Mg26 O38 2.141 . S
C27 O28 1.313 . S
C27 O34 1.195 . S
O28 C27 1.313 . S
C29 O30 1.245 . S
C29 O38 1.289 . S
O30 C29 1.245 . S
C31 O32 1.245 . S
C31 O33 1.289 . S
O32 C31 1.245 . S
O33 Mg26 2.141 . S
O33 C31 1.289 . S
O34 Mg26 2.048 . S
O34 C27 1.195 . S
O35 Mg26 2.048 . S
O35 C36 1.195 . S
C36 O35 1.195 . S
C36 O37 1.313 . S
O37 C36 1.313 . S
O38 Mg26 2.141 . S
O38 C29 1.289 . S
Mg39 O46 2.141 . S
Mg39 O47 2.048 . S
Mg39 O48 2.048 . S
Mg39 O51 2.141 . S
C40 O41 1.313 . S
C40 O47 1.195 . S
O41 C40 1.313 . S
C42 O43 1.245 . S
C42 O51 1.289 . S
O43 C42 1.245 . S
C44 O45 1.245 . S
C44 O46 1.289 . S
O45 C44 1.245 . S
O46 Mg39 2.141 . S
O46 C44 1.289 . S
O47 Mg39 2.048 . S
O47 C40 1.195 . S
O48 Mg39 2.048 . S
O48 C49 1.195 . S
C49 O48 1.195 . S
C49 O50 1.313 . S
O50 C49 1.313 . S
O51 Mg39 2.141 . S
O51 C42 1.289 . S
Mg52 O59 2.141 . S
Mg52 O60 2.048 . S
Mg52 O61 2.048 . S
Mg52 O64 2.141 . S
C53 O54 1.313 . S
C53 O60 1.195 . S
O54 C53 1.313 . S
C55 O56 1.245 . S
C55 O64 1.289 . S
O56 C55 1.245 . S
C57 O58 1.245 . S
C57 O59 1.289 . S
O58 C57 1.245 . S
O59 Mg52 2.141 . S
O59 C57 1.289 . S
O60 Mg52 2.048 . S
O60 C53 1.195 . S
O61 Mg52 2.048 . S
O61 C62 1.195 . S
C62 O61 1.195 . S
C62 O63 1.313 . S
O63 C62 1.313 . S
O64 Mg52 2.141 . S
O64 C55 1.289 . S
Mg65 O72 2.141 . S
Mg65 O73 2.048 . S
Mg65 O74 2.048 . S
Mg65 O77 2.141 . S
C66 O67 1.313 . S
C66 O73 1.195 . S
O67 C66 1.313 . S
C68 O69 1.245 . S
C68 O77 1.289 . S
O69 C68 1.245 . S
C70 O71 1.245 . S
C70 O72 1.289 . S
O71 C70 1.245 . S
O72 Mg65 2.141 . S
O72 C70 1.289 . S
O73 Mg65 2.048 . S
O73 C66 1.195 . S
O74 Mg65 2.048 . S
O74 C75 1.195 . S
C75 O74 1.195 . S
C75 O76 1.313 . S
O76 C75 1.313 . S
O77 Mg65 2.141 . S
O77 C68 1.289 . S
Mg78 O85 2.141 . S
Mg78 O86 2.048 . S
Mg78 O87 2.048 . S
Mg78 O90 2.141 . S
C79 O80 1.313 . S
C79 O86 1.195 . S
O80 C79 1.313 . S
C81 O82 1.245 . S
C81 O90 1.289 . S
O82 C81 1.245 . S
C83 O84 1.245 . S
C83 O85 1.289 . S
O84 C83 1.245 . S
O85 Mg78 2.141 . S
O85 C83 1.289 . S
O86 Mg78 2.048 . S
O86 C79 1.195 . S
O87 Mg78 2.048 . S
O87 C88 1.195 . S
C88 O87 1.195 . S
C88 O89 1.313 . S
O89 C88 1.313 . S
O90 Mg78 2.141 . S
O90 C81 1.289 . S
Mg91 O98 2.142 1_655 S
Mg91 O99 2.048 . S
Mg91 O100 2.048 . S
Mg91 O103 2.141 1_655 S
C92 O93 1.313 . S
C92 O99 1.195 . S
O93 C92 1.313 . S
C94 O95 1.245 . S
C94 O103 1.289 . S
O95 C94 1.245 . S
C96 O97 1.245 . S
C96 O98 1.289 . S
O97 C96 1.245 . S
O98 Mg91 2.142 1_455 S
O98 C96 1.289 . S
O99 Mg91 2.048 . S
O99 C92 1.195 . S
O100 Mg91 2.048 . S
O100 C101 1.195 . S
C101 O100 1.195 . S
C101 O102 1.313 . S
O102 C101 1.313 . S
O103 Mg91 2.141 1_455 S
O103 C94 1.289 . S
Mg104 O111 2.141 . S
Mg104 O112 2.048 . S
Mg104 O113 2.048 . S
Mg104 O116 2.141 . S
C105 O106 1.313 . S
C105 O112 1.195 . S
O106 C105 1.313 . S
C107 O108 1.245 . S
C107 O116 1.289 . S
O108 C107 1.245 . S
C109 O110 1.245 . S
C109 O111 1.289 . S
O110 C109 1.245 . S
O111 Mg104 2.141 . S
O111 C109 1.289 . S
O112 Mg104 2.048 . S
O112 C105 1.195 . S
O113 Mg104 2.048 . S
O113 C114 1.195 . S
C114 O113 1.195 . S
C114 O115 1.313 . S
O115 C114 1.313 . S
O116 Mg104 2.141 . S
O116 C107 1.289 . S
Mg117 O124 2.141 . S
Mg117 O125 2.048 . S
Mg117 O126 2.048 . S
Mg117 O129 2.141 . S
C118 O119 1.313 . S
C118 O125 1.195 . S
O119 C118 1.313 . S
C120 O121 1.245 . S
C120 O129 1.289 . S
O121 C120 1.245 . S
C122 O123 1.245 . S
C122 O124 1.289 . S
O123 C122 1.245 . S
O124 Mg117 2.141 . S
O124 C122 1.289 . S
O125 Mg117 2.048 . S
O125 C118 1.195 . S
O126 Mg117 2.048 . S
O126 C127 1.195 . S
C127 O126 1.195 . S
C127 O128 1.313 . S
O128 C127 1.313 . S
O129 Mg117 2.141 . S
O129 C120 1.289 . S
Mg130 O137 2.141 . S
Mg130 O138 2.048 . S
Mg130 O139 2.048 . S
Mg130 O142 2.141 . S
C131 O132 1.313 . S
C131 O138 1.195 . S
O132 C131 1.313 . S
C133 O134 1.245 . S
C133 O142 1.289 . S
O134 C133 1.245 . S
C135 O136 1.245 . S
C135 O137 1.289 . S
O136 C135 1.245 . S
O137 Mg130 2.141 . S
O137 C135 1.289 . S
O138 Mg130 2.048 . S
O138 C131 1.195 . S
O139 Mg130 2.048 . S
O139 C140 1.195 . S
C140 O139 1.195 . S
C140 O141 1.313 . S
O141 C140 1.313 . S
O142 Mg130 2.141 . S
O142 C133 1.289 . S
Mg143 O150 2.141 1_554 S
Mg143 O151 2.048 . S
Mg143 O152 2.048 . S
Mg143 O155 2.141 1_554 S
C144 O145 1.313 . S
C144 O151 1.195 . S
O145 C144 1.313 . S
C146 O147 1.245 . S
C146 O155 1.289 . S
O147 C146 1.245 . S
C148 O149 1.245 . S
C148 O150 1.289 . S
O149 C148 1.245 . S
O150 Mg143 2.141 1_556 S
O150 C148 1.289 . S
O151 Mg143 2.048 . S
O151 C144 1.195 . S
O152 Mg143 2.048 . S
O152 C153 1.195 . S
C153 O152 1.195 . S
C153 O154 1.313 . S
O154 C153 1.313 . S
O155 Mg143 2.141 1_556 S
O155 C146 1.289 . S
Mg156 O163 2.141 . S
Mg156 O164 2.048 . S
Mg156 O165 2.048 . S
Mg156 O168 2.141 . S
C157 O158 1.313 . S
C157 O164 1.195 . S
O158 C157 1.313 . S
C159 O160 1.245 . S
C159 O168 1.289 . S
O160 C159 1.245 . S
C161 O162 1.245 . S
C161 O163 1.289 . S
O162 C161 1.245 . S
O163 Mg156 2.141 . S
O163 C161 1.289 . S
O164 Mg156 2.048 . S
O164 C157 1.195 . S
O165 Mg156 2.048 . S
O165 C166 1.195 . S
C166 O165 1.195 . S
C166 O167 1.313 . S
O167 C166 1.313 . S
O168 Mg156 2.141 . S
O168 C159 1.289 . S
Mg169 O176 2.141 . S
Mg169 O177 2.048 . S
Mg169 O178 2.048 . S
Mg169 O181 2.141 . S
C170 O171 1.313 . S
C170 O177 1.195 . S
O171 C170 1.313 . S
C172 O173 1.245 . S
C172 O181 1.289 . S
O173 C172 1.245 . S
C174 O175 1.245 . S
C174 O176 1.289 . S
O175 C174 1.245 . S
O176 Mg169 2.141 . S
O176 C174 1.289 . S
O177 Mg169 2.048 . S
O177 C170 1.195 . S
O178 Mg169 2.048 . S
O178 C179 1.195 . S
C179 O178 1.195 . S
C179 O180 1.313 . S
O180 C179 1.313 . S
O181 Mg169 2.141 . S
O181 C172 1.289 . S
Mg182 O189 2.141 . S
Mg182 O190 2.048 . S
Mg182 O191 2.048 . S
Mg182 O194 2.141 . S
C183 O184 1.313 . S
C183 O190 1.195 . S
O184 C183 1.313 . S
C185 O186 1.245 . S
C185 O194 1.289 . S
O186 C185 1.245 . S
C187 O188 1.245 . S
C187 O189 1.289 . S
O188 C187 1.245 . S
O189 Mg182 2.141 . S
O189 C187 1.289 . S
O190 Mg182 2.048 . S
O190 C183 1.195 . S
O191 Mg182 2.048 . S
O191 C192 1.195 . S
C192 O191 1.195 . S
C192 O193 1.313 . S
O193 C192 1.313 . S
O194 Mg182 2.141 . S
O194 C185 1.289 . S
Mg195 O202 2.142 1_556 S
Mg195 O203 2.048 . S
Mg195 O204 2.048 . S
Mg195 O207 2.141 1_556 S
C196 O197 1.313 . S
C196 O203 1.195 . S
O197 C196 1.313 . S
C198 O199 1.245 . S
C198 O207 1.289 . S
O199 C198 1.245 . S
C200 O201 1.245 . S
C200 O202 1.289 . S
O201 C200 1.245 . S
O202 Mg195 2.142 1_554 S
O202 C200 1.289 . S
O203 Mg195 2.048 . S
O203 C196 1.195 . S
O204 Mg195 2.048 . S
O204 C205 1.195 . S
C205 O204 1.195 . S
C205 O206 1.313 . S
O206 C205 1.313 . S
O207 Mg195 2.141 1_554 S
O207 C198 1.289 . S
Mg208 O215 2.141 . S
Mg208 O216 2.048 . S
Mg208 O217 2.048 . S
Mg208 O220 2.141 . S
C209 O210 1.313 . S
C209 O216 1.195 . S
O210 C209 1.313 . S
C211 O212 1.245 . S
C211 O220 1.289 . S
O212 C211 1.245 . S
C213 O214 1.245 . S
C213 O215 1.289 . S
O214 C213 1.245 . S
O215 Mg208 2.141 . S
O215 C213 1.289 . S
O216 Mg208 2.048 . S
O216 C209 1.195 . S
O217 Mg208 2.048 . S
O217 C218 1.195 . S
C218 O217 1.195 . S
C218 O219 1.313 . S
O219 C218 1.313 . S
O220 Mg208 2.141 . S
O220 C211 1.289 . S
Mg221 O228 2.141 . S
Mg221 O229 2.048 . S
Mg221 O230 2.048 . S
Mg221 O233 2.141 . S
C222 O223 1.313 . S
C222 O229 1.195 . S
O223 C222 1.313 . S
C224 O225 1.245 . S
C224 O233 1.289 . S
O225 C224 1.245 . S
C226 O227 1.245 . S
C226 O228 1.289 . S
O227 C226 1.245 . S
O228 Mg221 2.141 . S
O228 C226 1.289 . S
O229 Mg221 2.048 . S
O229 C222 1.195 . S
O230 Mg221 2.048 . S
O230 C231 1.195 . S
C231 O230 1.195 . S
C231 O232 1.313 . S
O232 C231 1.313 . S
O233 Mg221 2.141 . S
O233 C224 1.289 . S
Mg234 O241 2.141 . S
Mg234 O242 2.048 . S
Mg234 O243 2.048 . S
Mg234 O246 2.141 . S
C235 O236 1.313 . S
C235 O242 1.195 . S
O236 C235 1.313 . S
C237 O238 1.245 . S
C237 O246 1.289 . S
O238 C237 1.245 . S
C239 O240 1.245 . S
C239 O241 1.289 . S
O240 C239 1.245 . S
O241 Mg234 2.141 . S
O241 C239 1.289 . S
O242 Mg234 2.048 . S
O242 C235 1.195 . S
O243 Mg234 2.048 . S
O243 C244 1.195 . S
C244 O243 1.195 . S
C244 O245 1.313 . S
O245 C244 1.313 . S
O246 Mg234 2.141 . S
O246 C237 1.289 . S
Mg247 O254 2.141 . S
Mg247 O255 2.048 . S
Mg247 O256 2.048 . S
Mg247 O259 2.141 . S
C248 O249 1.313 . S
C248 O255 1.195 . S
O249 C248 1.313 . S
C250 O251 1.245 . S
C250 O259 1.289 . S
O251 C250 1.245 . S
C252 O253 1.245 . S
C252 O254 1.289 . S
O253 C252 1.245 . S
O254 Mg247 2.141 . S
O254 C252 1.289 . S
O255 Mg247 2.048 . S
O255 C248 1.195 . S
O256 Mg247 2.048 . S
O256 C257 1.195 . S
C257 O256 1.195 . S
C257 O258 1.313 . S
O258 C257 1.313 . S
O259 Mg247 2.141 . S
O259 C250 1.289 . S
Mg260 O267 2.142 1_565 S
Mg260 O268 2.048 . S
Mg260 O269 2.048 . S
Mg260 O272 2.141 1_565 S
C261 O262 1.313 . S
C261 O268 1.195 . S
O262 C261 1.313 . S
C263 O264 1.245 . S
C263 O272 1.289 . S
O264 C263 1.245 . S
C265 O266 1.245 . S
C265 O267 1.289 . S
O266 C265 1.245 . S
O267 Mg260 2.142 1_545 S
O267 C265 1.289 . S
O268 Mg260 2.048 . S
O268 C261 1.195 . S
O269 Mg260 2.048 . S
O269 C270 1.195 . S
C270 O269 1.195 . S
C270 O271 1.313 . S
O271 C270 1.313 . S
O272 Mg260 2.141 1_545 S
O272 C263 1.289 . S
Mg273 O280 2.141 . S
Mg273 O281 2.048 . S
Mg273 O282 2.048 . S
Mg273 O285 2.141 . S
C274 O275 1.313 . S
C274 O281 1.195 . S
O275 C274 1.313 . S
C276 O277 1.245 . S
C276 O285 1.289 . S
O277 C276 1.245 . S
C278 O279 1.245 . S
C278 O280 1.289 . S
O279 C278 1.245 . S
O280 Mg273 2.141 . S
O280 C278 1.289 . S
O281 Mg273 2.048 . S
O281 C274 1.195 . S
O282 Mg273 2.048 . S
O282 C283 1.195 . S
C283 O282 1.195 . S
C283 O284 1.313 . S
O284 C283 1.313 . S
O285 Mg273 2.141 . S
O285 C276 1.289 . S
Mg286 O293 2.141 . S
Mg286 O294 2.048 . S
Mg286 O295 2.048 . S
Mg286 O298 2.141 . S
C287 O288 1.313 . S
C287 O294 1.195 . S
O288 C287 1.313 . S
C289 O290 1.245 . S
C289 O298 1.289 . S
O290 C289 1.245 . S
C291 O292 1.245 . S
C291 O293 1.289 . S
O292 C291 1.245 . S
O293 Mg286 2.141 . S
O293 C291 1.289 . S
O294 Mg286 2.048 . S
O294 C287 1.195 . S
O295 Mg286 2.048 . S
O295 C296 1.195 . S
C296 O295 1.195 . S
C296 O297 1.313 . S
O297 C296 1.313 . S
O298 Mg286 2.141 . S
O298 C289 1.289 . S
Mg299 O306 2.141 . S
Mg299 O307 2.048 . S
Mg299 O308 2.048 . S
Mg299 O311 2.141 . S
C300 O301 1.313 . S
C300 O307 1.195 . S
O301 C300 1.313 . S
C302 O303 1.245 . S
C302 O311 1.289 . S
O303 C302 1.245 . S
C304 O305 1.245 . S
C304 O306 1.289 . S
O305 C304 1.245 . S
O306 Mg299 2.141 . S
O306 C304 1.289 . S
O307 Mg299 2.048 . S
O307 C300 1.195 . S
O308 Mg299 2.048 . S
O308 C309 1.195 . S
C309 O308 1.195 . S
C309 O310 1.313 . S
O310 C309 1.313 . S
O311 Mg299 2.141 . S
O311 C302 1.289 . S
Mg312 O319 2.141 . S
Mg312 O320 2.048 . S
Mg312 O321 2.048 . S
Mg312 O324 2.141 . S
C313 O314 1.313 . S
C313 O320 1.195 . S
O314 C313 1.313 . S
C315 O316 1.245 . S
C315 O324 1.289 . S
O316 C315 1.245 . S
C317 O318 1.245 . S
C317 O319 1.289 . S
O318 C317 1.245 . S
O319 Mg312 2.141 . S
O319 C317 1.289 . S
O320 Mg312 2.048 . S
O320 C313 1.195 . S
O321 Mg312 2.048 . S
O321 C322 1.195 . S
C322 O321 1.195 . S
C322 O323 1.313 . S
O323 C322 1.313 . S
O324 Mg312 2.141 . S
O324 C315 1.289 . S
Mg325 O332 2.141 . S
Mg325 O333 2.048 . S
Mg325 O334 2.048 . S
Mg325 O337 2.141 . S
C326 O327 1.313 . S
C326 O333 1.195 . S
O327 C326 1.313 . S
C328 O329 1.245 . S
C328 O337 1.289 . S
O329 C328 1.245 . S
C330 O331 1.245 . S
C330 O332 1.289 . S
O331 C330 1.245 . S
O332 Mg325 2.141 . S
O332 C330 1.289 . S
O333 Mg325 2.048 . S
O333 C326 1.195 . S
O334 Mg325 2.048 . S
O334 C335 1.195 . S
C335 O334 1.195 . S
C335 O336 1.313 . S
O336 C335 1.313 . S
O337 Mg325 2.141 . S
O337 C328 1.289 . S
Mg338 O345 2.141 . S
Mg338 O346 2.048 . S
Mg338 O347 2.048 . S
Mg338 O350 2.141 . S
C339 O340 1.313 . S
C339 O346 1.195 . S
O340 C339 1.313 . S
C341 O342 1.245 . S
C341 O350 1.289 . S
O342 C341 1.245 . S
C343 O344 1.245 . S
C343 O345 1.289 . S
O344 C343 1.245 . S
O345 Mg338 2.141 . S
O345 C343 1.289 . S
O346 Mg338 2.048 . S
O346 C339 1.195 . S
O347 Mg338 2.048 . S
O347 C348 1.195 . S
C348 O347 1.195 . S
C348 O349 1.313 . S
O349 C348 1.313 . S
O350 Mg338 2.141 . S
O350 C341 1.289 . S
Mg351 O358 2.141 1_455 S
Mg351 O359 2.048 . S
Mg351 O360 2.048 . S
Mg351 O363 2.141 1_455 S
C352 O353 1.313 . S
C352 O359 1.195 . S
O353 C352 1.313 . S
C354 O355 1.245 . S
C354 O363 1.289 . S
O355 C354 1.245 . S
C356 O357 1.245 . S
C356 O358 1.289 . S
O357 C356 1.245 . S
O358 Mg351 2.141 1_655 S
O358 C356 1.289 . S
O359 Mg351 2.048 . S
O359 C352 1.195 . S
O360 Mg351 2.048 . S
O360 C361 1.195 . S
C361 O360 1.195 . S
C361 O362 1.313 . S
O362 C361 1.313 . S
O363 Mg351 2.141 1_655 S
O363 C354 1.289 . S
Mg364 O371 2.141 . S
Mg364 O372 2.048 . S
Mg364 O373 2.048 . S
Mg364 O376 2.141 . S
C365 O366 1.313 . S
C365 O372 1.195 . S
O366 C365 1.313 . S
C367 O368 1.245 . S
C367 O376 1.289 . S
O368 C367 1.245 . S
C369 O370 1.245 . S
C369 O371 1.289 . S
O370 C369 1.245 . S
O371 Mg364 2.141 . S
O371 C369 1.289 . S
O372 Mg364 2.048 . S
O372 C365 1.195 . S
O373 Mg364 2.048 . S
O373 C374 1.195 . S
C374 O373 1.195 . S
C374 O375 1.313 . S
O375 C374 1.313 . S
O376 Mg364 2.141 . S
O376 C367 1.289 . S
Mg377 O384 2.141 1_455 S
Mg377 O385 2.048 . S
Mg377 O386 2.048 . S
Mg377 O389 2.141 1_455 S
C378 O379 1.313 . S
C378 O385 1.195 . S
O379 C378 1.313 . S
C380 O381 1.245 . S
C380 O389 1.289 . S
O381 C380 1.245 . S
C382 O383 1.245 . S
C382 O384 1.289 . S
O383 C382 1.245 . S
O384 Mg377 2.141 1_655 S
O384 C382 1.289 . S
O385 Mg377 2.048 . S
O385 C378 1.195 . S
O386 Mg377 2.048 . S
O386 C387 1.195 . S
C387 O386 1.195 . S
C387 O388 1.313 . S
O388 C387 1.313 . S
O389 Mg377 2.141 1_655 S
O389 C380 1.289 . S
Mg390 O397 2.141 . S
Mg390 O398 2.048 . S
Mg390 O399 2.048 . S
Mg390 O402 2.141 . S
C391 O392 1.313 . S
C391 O398 1.195 . S
O392 C391 1.313 . S
C393 O394 1.245 . S
C393 O402 1.289 . S
O394 C393 1.245 . S
C395 O396 1.245 . S
C395 O397 1.289 . S
O396 C395 1.245 . S
O397 Mg390 2.141 . S
O397 C395 1.289 . S
O398 Mg390 2.048 . S
O398 C391 1.195 . S
O399 Mg390 2.048 . S
O399 C400 1.195 . S
C400 O399 1.195 . S
C400 O401 1.313 . S
O401 C400 1.313 . S
O402 Mg390 2.141 . S
O402 C393 1.289 . S
Mg403 O410 2.141 . S
Mg403 O411 2.048 . S
Mg403 O412 2.048 . S
Mg403 O415 2.141 . S
C404 O405 1.313 . S
C404 O411 1.195 . S
O405 C404 1.313 . S
C406 O407 1.245 . S
C406 O415 1.289 . S
O407 C406 1.245 . S
C408 O409 1.245 . S
C408 O410 1.289 . S
O409 C408 1.245 . S
O410 Mg403 2.141 . S
O410 C408 1.289 . S
O411 Mg403 2.048 . S
O411 C404 1.195 . S
O412 Mg403 2.048 . S
O412 C413 1.195 . S
C413 O412 1.195 . S
C413 O414 1.313 . S
O414 C413 1.313 . S
O415 Mg403 2.141 . S
O415 C406 1.289 . S
Mg416 O423 2.141 . S
Mg416 O424 2.048 . S
Mg416 O425 2.048 . S
Mg416 O428 2.141 . S
C417 O418 1.313 . S
C417 O424 1.195 . S
O418 C417 1.313 . S
C419 O420 1.245 . S
C419 O428 1.289 . S
O420 C419 1.245 . S
C421 O422 1.245 . S
C421 O423 1.289 . S
O422 C421 1.245 . S
O423 Mg416 2.141 . S
O423 C421 1.289 . S
O424 Mg416 2.048 . S
O424 C417 1.195 . S
O425 Mg416 2.048 . S
O425 C426 1.195 . S
C426 O425 1.195 . S
C426 O427 1.313 . S
O427 C426 1.313 . S
O428 Mg416 2.141 . S
O428 C419 1.289 . S
Mg429 O436 2.141 1_554 S
Mg429 O437 2.048 . S
Mg429 O438 2.048 . S
Mg429 O441 2.141 1_554 S
C430 O431 1.313 . S
C430 O437 1.195 . S
O431 C430 1.313 . S
C432 O433 1.245 . S
C432 O441 1.289 . S
O433 C432 1.245 . S
C434 O435 1.245 . S
C434 O436 1.289 . S
O435 C434 1.245 . S
O436 Mg429 2.141 1_556 S
O436 C434 1.289 . S
O437 Mg429 2.048 . S
O437 C430 1.195 . S
O438 Mg429 2.048 . S
O438 C439 1.195 . S
C439 O438 1.195 . S
C439 O440 1.313 . S
O440 C439 1.313 . S
O441 Mg429 2.141 1_556 S
O441 C432 1.289 . S
Mg442 O449 2.141 . S
Mg442 O450 2.048 . S
Mg442 O451 2.048 . S
Mg442 O454 2.141 . S
C443 O444 1.313 . S
C443 O450 1.195 . S
O444 C443 1.313 . S
C445 O446 1.245 . S
C445 O454 1.289 . S
O446 C445 1.245 . S
C447 O448 1.245 . S
C447 O449 1.289 . S
O448 C447 1.245 . S
O449 Mg442 2.141 . S
O449 C447 1.289 . S
O450 Mg442 2.048 . S
O450 C443 1.195 . S
O451 Mg442 2.048 . S
O451 C452 1.195 . S
C452 O451 1.195 . S
C452 O453 1.313 . S
O453 C452 1.313 . S
O454 Mg442 2.141 . S
O454 C445 1.289 . S
Mg455 O462 2.141 . S
Mg455 O463 2.048 . S
Mg455 O464 2.048 . S
Mg455 O467 2.141 . S
C456 O457 1.313 . S
C456 O463 1.195 . S
O457 C456 1.313 . S
C458 O459 1.245 . S
C458 O467 1.289 . S
O459 C458 1.245 . S
C460 O461 1.245 . S
C460 O462 1.289 . S
O461 C460 1.245 . S
O462 Mg455 2.141 . S
O462 C460 1.289 . S
O463 Mg455 2.048 . S
O463 C456 1.195 . S
O464 Mg455 2.048 . S
O464 C465 1.195 . S
C465 O464 1.195 . S
C465 O466 1.313 . S
O466 C465 1.313 . S
O467 Mg455 2.141 . S
O467 C458 1.289 . S
Mg468 O475 2.141 . S
Mg468 O476 2.048 . S
Mg468 O477 2.048 . S
Mg468 O480 2.141 . S
C469 O470 1.313 . S
C469 O476 1.195 . S
O470 C469 1.313 . S
C471 O472 1.245 . S
C471 O480 1.289 . S
O472 C471 1.245 . S
C473 O474 1.245 . S
C473 O475 1.289 . S
O474 C473 1.245 . S
O475 Mg468 2.141 . S
O475 C473 1.289 . S
O476 Mg468 2.048 . S
O476 C469 1.195 . S
O477 Mg468 2.048 . S
O477 C478 1.195 . S
C478 O477 1.195 . S
C478 O479 1.313 . S
O479 C478 1.313 . S
O480 Mg468 2.141 . S
O480 C471 1.289 . S
Mg481 O488 2.142 1_556 S
Mg481 O489 2.048 . S
Mg481 O490 2.048 . S
Mg481 O493 2.141 1_556 S
C482 O483 1.313 . S
C482 O489 1.195 . S
O483 C482 1.313 . S
C484 O485 1.245 . S
C484 O493 1.289 . S
O485 C484 1.245 . S
C486 O487 1.245 . S
C486 O488 1.289 . S
O487 C486 1.245 . S
O488 Mg481 2.142 1_554 S
O488 C486 1.289 . S
O489 Mg481 2.048 . S
O489 C482 1.195 . S
O490 Mg481 2.048 . S
O490 C491 1.195 . S
C491 O490 1.195 . S
C491 O492 1.313 . S
O492 C491 1.313 . S
O493 Mg481 2.141 1_554 S
O493 C484 1.289 . S
Mg494 O501 2.141 . S
Mg494 O502 2.048 . S
Mg494 O503 2.048 . S
Mg494 O506 2.141 . S
C495 O496 1.313 . S
C495 O502 1.195 . S
O496 C495 1.313 . S
C497 O498 1.245 . S
C497 O506 1.289 . S
O498 C497 1.245 . S
C499 O500 1.245 . S
C499 O501 1.289 . S
O500 C499 1.245 . S
O501 Mg494 2.141 . S
O501 C499 1.289 . S
O502 Mg494 2.048 . S
O502 C495 1.195 . S
O503 Mg494 2.048 . S
O503 C504 1.195 . S
C504 O503 1.195 . S
C504 O505 1.313 . S
O505 C504 1.313 . S
O506 Mg494 2.141 . S
O506 C497 1.289 . S
Mg507 O514 2.141 . S
Mg507 O515 2.048 . S
Mg507 O516 2.048 . S
Mg507 O519 2.141 . S
C508 O509 1.313 . S
C508 O515 1.195 . S
O509 C508 1.313 . S
C510 O511 1.245 . S
C510 O519 1.289 . S
O511 C510 1.245 . S
C512 O513 1.245 . S
C512 O514 1.289 . S
O513 C512 1.245 . S
O514 Mg507 2.141 . S
O514 C512 1.289 . S
O515 Mg507 2.048 . S
O515 C508 1.195 . S
O516 Mg507 2.048 . S
O516 C517 1.195 . S
C517 O516 1.195 . S
C517 O518 1.313 . S
O518 C517 1.313 . S
O519 Mg507 2.141 . S
O519 C510 1.289 . S
Mg520 O527 2.141 . S
Mg520 O528 2.048 . S
Mg520 O529 2.048 . S
Mg520 O532 2.141 . S
C521 O522 1.313 . S
C521 O528 1.195 . S
O522 C521 1.313 . S
C523 O524 1.245 . S
C523 O532 1.289 . S
O524 C523 1.245 . S
C525 O526 1.245 . S
C525 O527 1.289 . S
O526 C525 1.245 . S
O527 Mg520 2.141 . S
O527 C525 1.289 . S
O528 Mg520 2.048 . S
O528 C521 1.195 . S
O529 Mg520 2.048 . S
O529 C530 1.195 . S
C530 O529 1.195 . S
C530 O531 1.313 . S
O531 C530 1.313 . S
O532 Mg520 2.141 . S
O532 C523 1.289 . S
Mg533 O540 2.141 . S
Mg533 O541 2.048 . S
Mg533 O542 2.048 . S
Mg533 O545 2.141 . S
C534 O535 1.313 . S
C534 O541 1.195 . S
O535 C534 1.313 . S
C536 O537 1.245 . S
C536 O545 1.289 . S
O537 C536 1.245 . S
C538 O539 1.245 . S
C538 O540 1.289 . S
O539 C538 1.245 . S
O540 Mg533 2.141 . S
O540 C538 1.289 . S
O541 Mg533 2.048 . S
O541 C534 1.195 . S
O542 Mg533 2.048 . S
O542 C543 1.195 . S
C543 O542 1.195 . S
C543 O544 1.313 . S
O544 C543 1.313 . S
O545 Mg533 2.141 . S
O545 C536 1.289 . S
Mg546 O553 2.141 1_545 S
Mg546 O554 2.048 . S
Mg546 O555 2.048 . S
Mg546 O558 2.141 1_545 S
C547 O548 1.313 . S
C547 O554 1.195 . S
O548 C547 1.313 . S
C549 O550 1.245 . S
C549 O558 1.289 . S
O550 C549 1.245 . S
C551 O552 1.245 . S
C551 O553 1.289 . S
O552 C551 1.245 . S
O553 Mg546 2.141 1_565 S
O553 C551 1.289 . S
O554 Mg546 2.048 . S
O554 C547 1.195 . S
O555 Mg546 2.048 . S
O555 C556 1.195 . S
C556 O555 1.195 . S
C556 O557 1.313 . S
O557 C556 1.313 . S
O558 Mg546 2.141 1_565 S
O558 C549 1.289 . S
Mg559 O566 2.141 . S
Mg559 O567 2.048 . S
Mg559 O568 2.048 . S
Mg559 O571 2.141 . S
C560 O561 1.313 . S
C560 O567 1.195 . S
O561 C560 1.313 . S
C562 O563 1.245 . S
C562 O571 1.289 . S
O563 C562 1.245 . S
C564 O565 1.245 . S
C564 O566 1.289 . S
O565 C564 1.245 . S
O566 Mg559 2.141 . S
O566 C564 1.289 . S
O567 Mg559 2.048 . S
O567 C560 1.195 . S
O568 Mg559 2.048 . S
O568 C569 1.195 . S
C569 O568 1.195 . S
C569 O570 1.313 . S
O570 C569 1.313 . S
O571 Mg559 2.141 . S
O571 C562 1.289 . S
Mg572 O579 2.141 . S
Mg572 O580 2.048 . S
Mg572 O581 2.048 . S
Mg572 O584 2.141 . S
C573 O574 1.313 . S
C573 O580 1.195 . S
O574 C573 1.313 . S
C575 O576 1.245 . S
C575 O584 1.289 . S
O576 C575 1.245 . S
C577 O578 1.245 . S
C577 O579 1.289 . S
O578 C577 1.245 . S
O579 Mg572 2.141 . S
O579 C577 1.289 . S
O580 Mg572 2.048 . S
O580 C573 1.195 . S
O581 Mg572 2.048 . S
O581 C582 1.195 . S
C582 O581 1.195 . S
C582 O583 1.313 . S
O583 C582 1.313 . S
O584 Mg572 2.141 . S
O584 C575 1.289 . S
Mg585 O592 2.141 . S
Mg585 O593 2.048 . S
Mg585 O594 2.048 . S
Mg585 O597 2.141 . S
C586 O587 1.313 . S
C586 O593 1.195 . S
O587 C586 1.313 . S
C588 O589 1.245 . S
C588 O597 1.289 . S
O589 C588 1.245 . S
C590 O591 1.245 . S
C590 O592 1.289 . S
O591 C590 1.245 . S
O592 Mg585 2.141 . S
O592 C590 1.289 . S
O593 Mg585 2.048 . S
O593 C586 1.195 . S
O594 Mg585 2.048 . S
O594 C595 1.195 . S
C595 O594 1.195 . S
C595 O596 1.313 . S
O596 C595 1.313 . S
O597 Mg585 2.141 . S
O597 C588 1.289 . S
Mg598 O605 2.142 1_565 S
Mg598 O606 2.048 . S
Mg598 O607 2.048 . S
Mg598 O610 2.141 1_565 S
C599 O600 1.313 . S
C599 O606 1.195 . S
O600 C599 1.313 . S
C601 O602 1.245 . S
C601 O610 1.289 . S
O602 C601 1.245 . S
C603 O604 1.245 . S
C603 O605 1.289 . S
O604 C603 1.245 . S
O605 Mg598 2.142 1_545 S
O605 C603 1.289 . S
O606 Mg598 2.048 . S
O606 C599 1.195 . S
O607 Mg598 2.048 . S
O607 C608 1.195 . S
C608 O607 1.195 . S
C608 O609 1.313 . S
O609 C608 1.313 . S
O610 Mg598 2.141 1_545 S
O610 C601 1.289 . S
Mg611 O618 2.141 1_545 S
Mg611 O619 2.048 . S
Mg611 O620 2.048 . S
Mg611 O623 2.141 1_545 S
C612 O613 1.313 . S
C612 O619 1.195 . S
O613 C612 1.313 . S
C614 O615 1.245 . S
C614 O623 1.289 . S
O615 C614 1.245 . S
C616 O617 1.245 . S
C616 O618 1.289 . S
O617 C616 1.245 . S
O618 Mg611 2.141 1_565 S
O618 C616 1.289 . S
O619 Mg611 2.048 . S
O619 C612 1.195 . S
O620 Mg611 2.048 . S
O620 C621 1.195 . S
C621 O620 1.195 . S
C621 O622 1.313 . S
O622 C621 1.313 . S
O623 Mg611 2.141 1_565 S
O623 C614 1.289 . S
C624 C625 1.369 . S
C624 C626 1.419 . S
C624 H628 0.930 . S
C625 C624 1.369 . S
C625 C634 1.429 . S
C626 C624 1.419 . S
C626 C627 1.363 . S
C626 H629 0.929 . S
C627 C626 1.363 . S
C627 C633 1.428 . S
H628 C624 0.930 . S
H629 C626 0.929 . S
S630 N631 1.613 . S
S630 N632 1.610 . S
N631 S630 1.613 . S
N631 C634 1.350 . S
N632 S630 1.610 . S
N632 C633 1.351 . S
C633 C627 1.428 . S
C633 N632 1.351 . S
C633 C634 1.434 . S
C634 C625 1.429 . S
C634 N631 1.350 . S
C634 C633 1.434 . S
C635 C636 1.369 . S
C635 C637 1.419 . S
C635 H639 0.930 . S
C636 C635 1.369 . S
C636 C645 1.429 . S
C637 C635 1.419 . S
C637 C638 1.363 . S
C637 H640 0.929 . S
C638 C637 1.363 . S
C638 C644 1.428 . S
H639 C635 0.930 . S
H640 C637 0.929 . S
S641 N642 1.613 . S
S641 N643 1.610 . S
N642 S641 1.613 . S
N642 C645 1.350 . S
N643 S641 1.610 . S
N643 C644 1.351 . S
C644 C638 1.428 . S
C644 N643 1.351 . S
C644 C645 1.434 . S
C645 C636 1.429 . S
C645 N642 1.350 . S
C645 C644 1.434 . S
C646 C647 1.369 . S
C646 C648 1.419 . S
C646 H650 0.930 . S
C647 C646 1.369 . S
C647 C656 1.429 . S
C648 C646 1.419 . S
C648 C649 1.363 . S
C648 H651 0.929 . S
C649 C648 1.363 . S
C649 C655 1.428 . S
H650 C646 0.930 . S
H651 C648 0.929 . S
S652 N653 1.613 . S
S652 N654 1.610 . S
N653 S652 1.613 . S
N653 C656 1.350 . S
N654 S652 1.610 . S
N654 C655 1.351 . S
C655 C649 1.428 . S
C655 N654 1.351 . S
C655 C656 1.434 . S
C656 C647 1.429 . S
C656 N653 1.350 . S
C656 C655 1.434 . S
C657 C658 1.369 . S
C657 C659 1.419 . S
C657 H661 0.930 . S
C658 C657 1.369 . S
C658 C667 1.429 . S
C659 C657 1.419 . S
C659 C660 1.363 . S
C659 H662 0.929 . S
C660 C659 1.363 . S
C660 C666 1.428 . S
H661 C657 0.930 . S
H662 C659 0.929 . S
S663 N664 1.613 . S
S663 N665 1.610 . S
N664 S663 1.613 . S
N664 C667 1.350 . S
N665 S663 1.610 . S
N665 C666 1.351 . S
C666 C660 1.428 . S
C666 N665 1.351 . S
C666 C667 1.434 . S
C667 C658 1.429 . S
C667 N664 1.350 . S
C667 C666 1.434 . S
C668 C669 1.369 . S
C668 C670 1.419 . S
C668 H672 0.930 . S
C669 C668 1.369 . S
C669 C678 1.429 . S
C670 C668 1.419 . S
C670 C671 1.363 . S
C670 H673 0.929 . S
C671 C670 1.363 . S
C671 C677 1.428 . S
H672 C668 0.930 . S
H673 C670 0.929 . S
S674 N675 1.613 . S
S674 N676 1.610 . S
N675 S674 1.613 . S
N675 C678 1.350 . S
N676 S674 1.610 . S
N676 C677 1.351 . S
C677 C671 1.428 . S
C677 N676 1.351 . S
C677 C678 1.434 . S
C678 C669 1.429 . S
C678 N675 1.350 . S
C678 C677 1.434 . S
C679 C680 1.369 . S
C679 C681 1.419 . S
C679 H683 0.930 . S
C680 C679 1.369 . S
C680 C689 1.429 . S
C681 C679 1.419 . S
C681 C682 1.363 . S
C681 H684 0.929 . S
C682 C681 1.363 . S
C682 C688 1.428 . S
H683 C679 0.930 . S
H684 C681 0.929 . S
S685 N686 1.613 . S
S685 N687 1.610 . S
N686 S685 1.613 . S
N686 C689 1.350 . S
N687 S685 1.610 . S
N687 C688 1.351 . S
C688 C682 1.428 . S
C688 N687 1.351 . S
C688 C689 1.434 . S
C689 C680 1.429 . S
C689 N686 1.350 . S
C689 C688 1.434 . S
C690 C691 1.369 . S
C690 C692 1.419 . S
C690 H694 0.930 . S
C691 C690 1.369 . S
C691 C700 1.429 . S
C692 C690 1.419 . S
C692 C693 1.363 . S
C692 H695 0.929 . S
C693 C692 1.363 . S
C693 C699 1.428 . S
H694 C690 0.930 . S
H695 C692 0.929 . S
S696 N697 1.613 . S
S696 N698 1.610 . S
N697 S696 1.613 . S
N697 C700 1.350 . S
N698 S696 1.610 . S
N698 C699 1.351 . S
C699 C693 1.428 . S
C699 N698 1.351 . S
C699 C700 1.434 . S
C700 C691 1.429 . S
C700 N697 1.350 . S
C700 C699 1.434 . S
C701 C702 1.369 . S
C701 C703 1.419 . S
C701 H705 0.930 . S
C702 C701 1.369 . S
C702 C711 1.429 . S
C703 C701 1.419 . S
C703 C704 1.363 . S
C703 H706 0.929 . S
C704 C703 1.363 . S
C704 C710 1.428 . S
H705 C701 0.930 . S
H706 C703 0.929 . S
S707 N708 1.613 . S
S707 N709 1.610 . S
N708 S707 1.613 . S
N708 C711 1.350 . S
N709 S707 1.610 . S
N709 C710 1.351 . S
C710 C704 1.428 . S
C710 N709 1.351 . S
C710 C711 1.434 . S
C711 C702 1.429 . S
C711 N708 1.350 . S
C711 C710 1.434 . S
C712 C713 1.369 . S
C712 C714 1.419 . S
C712 H716 0.930 . S
C713 C712 1.369 . S
C713 C722 1.429 . S
C714 C712 1.419 . S
C714 C715 1.363 . S
C714 H717 0.929 . S
C715 C714 1.363 . S
C715 C721 1.428 . S
H716 C712 0.930 . S
H717 C714 0.929 . S
S718 N719 1.613 . S
S718 N720 1.610 . S
N719 S718 1.613 . S
N719 C722 1.350 . S
N720 S718 1.610 . S
N720 C721 1.351 . S
C721 C715 1.428 . S
C721 N720 1.351 . S
C721 C722 1.434 . S
C722 C713 1.429 . S
C722 N719 1.350 . S
C722 C721 1.434 . S
C723 C724 1.369 . S
C723 C725 1.419 . S
C723 H727 0.930 . S
C724 C723 1.369 . S
C724 C733 1.429 . S
C725 C723 1.419 . S
C725 C726 1.363 . S
C725 H728 0.929 . S
C726 C725 1.363 . S
C726 C732 1.428 . S
H727 C723 0.930 . S
H728 C725 0.929 . S
S729 N730 1.613 . S
S729 N731 1.610 . S
N730 S729 1.613 . S
N730 C733 1.350 . S
N731 S729 1.610 . S
N731 C732 1.351 . S
C732 C726 1.428 . S
C732 N731 1.351 . S
C732 C733 1.434 . S
C733 C724 1.429 . S
C733 N730 1.350 . S
C733 C732 1.434 . S
C734 C735 1.369 . S
C734 C736 1.419 . S
C734 H738 0.930 . S
C735 C734 1.369 . S
C735 C744 1.429 . S
C736 C734 1.419 . S
C736 C737 1.363 . S
C736 H739 0.929 . S
C737 C736 1.363 . S
C737 C743 1.428 . S
H738 C734 0.930 . S
H739 C736 0.929 . S
S740 N741 1.613 . S
S740 N742 1.610 . S
N741 S740 1.613 . S
N741 C744 1.350 . S
N742 S740 1.610 . S
N742 C743 1.351 . S
C743 C737 1.428 . S
C743 N742 1.351 . S
C743 C744 1.434 . S
C744 C735 1.429 . S
C744 N741 1.350 . S
C744 C743 1.434 . S
C745 C746 1.369 . S
C745 C747 1.419 . S
C745 H749 0.930 . S
C746 C745 1.369 . S
C746 C755 1.429 . S
C747 C745 1.419 . S
C747 C748 1.363 . S
C747 H750 0.929 . S
C748 C747 1.363 . S
C748 C754 1.428 . S
H749 C745 0.930 . S
H750 C747 0.929 . S
S751 N752 1.613 . S
S751 N753 1.610 . S
N752 S751 1.613 . S
N752 C755 1.350 . S
N753 S751 1.610 . S
N753 C754 1.351 . S
C754 C748 1.428 . S
C754 N753 1.351 . S
C754 C755 1.434 . S
C755 C746 1.429 . S
C755 N752 1.350 . S
C755 C754 1.434 . S
C756 C757 1.369 . S
C756 C758 1.419 . S
C756 H760 0.930 . S
C757 C756 1.369 . S
C757 C766 1.429 . S
C758 C756 1.419 . S
C758 C759 1.363 . S
C758 H761 0.929 . S
C759 C758 1.363 . S
C759 C765 1.428 . S
H760 C756 0.930 . S
H761 C758 0.929 . S
S762 N763 1.613 . S
S762 N764 1.610 . S
N763 S762 1.613 . S
N763 C766 1.350 . S
N764 S762 1.610 . S
N764 C765 1.351 . S
C765 C759 1.428 . S
C765 N764 1.351 . S
C765 C766 1.434 . S
C766 C757 1.429 . S
C766 N763 1.350 . S
C766 C765 1.434 . S
C767 C768 1.369 . S
C767 C769 1.419 . S
C767 H771 0.930 . S
C768 C767 1.369 . S
C768 C777 1.429 . S
C769 C767 1.419 . S
C769 C770 1.363 . S
C769 H772 0.929 . S
C770 C769 1.363 . S
C770 C776 1.428 . S
H771 C767 0.930 . S
H772 C769 0.929 . S
S773 N774 1.613 . S
S773 N775 1.610 . S
N774 S773 1.613 . S
N774 C777 1.350 . S
N775 S773 1.610 . S
N775 C776 1.351 . S
C776 C770 1.428 . S
C776 N775 1.351 . S
C776 C777 1.434 . S
C777 C768 1.429 . S
C777 N774 1.350 . S
C777 C776 1.434 . S
C778 C779 1.369 . S
C778 C780 1.419 . S
C778 H782 0.930 . S
C779 C778 1.369 . S
C779 C788 1.429 . S
C780 C778 1.419 . S
C780 C781 1.363 . S
C780 H783 0.929 . S
C781 C780 1.363 . S
C781 C787 1.428 . S
H782 C778 0.930 . S
H783 C780 0.929 . S
S784 N785 1.613 . S
S784 N786 1.610 . S
N785 S784 1.613 . S
N785 C788 1.350 . S
N786 S784 1.610 . S
N786 C787 1.351 . S
C787 C781 1.428 . S
C787 N786 1.351 . S
C787 C788 1.434 . S
C788 C779 1.429 . S
C788 N785 1.350 . S
C788 C787 1.434 . S
C789 C790 1.369 . S
C789 C791 1.419 . S
C789 H793 0.930 . S
C790 C789 1.369 . S
C790 C799 1.429 . S
C791 C789 1.419 . S
C791 C792 1.363 . S
C791 H794 0.929 . S
C792 C791 1.363 . S
C792 C798 1.428 . S
H793 C789 0.930 . S
H794 C791 0.929 . S
S795 N796 1.613 . S
S795 N797 1.610 . S
N796 S795 1.613 . S
N796 C799 1.350 . S
N797 S795 1.610 . S
N797 C798 1.351 . S
C798 C792 1.428 . S
C798 N797 1.351 . S
C798 C799 1.434 . S
C799 C790 1.429 . S
C799 N796 1.350 . S
C799 C798 1.434 . S
C800 C801 1.369 . S
C800 C802 1.419 . S
C800 H804 0.930 . S
C801 C800 1.369 . S
C801 C810 1.429 . S
C802 C800 1.419 . S
C802 C803 1.363 . S
C802 H805 0.929 . S
C803 C802 1.363 . S
C803 C809 1.428 . S
H804 C800 0.930 . S
H805 C802 0.929 . S
S806 N807 1.613 . S
S806 N808 1.610 . S
N807 S806 1.613 . S
N807 C810 1.350 . S
N808 S806 1.610 . S
N808 C809 1.351 . S
C809 C803 1.428 . S
C809 N808 1.351 . S
C809 C810 1.434 . S
C810 C801 1.429 . S
C810 N807 1.350 . S
C810 C809 1.434 . S
C811 C812 1.369 . S
C811 C813 1.419 . S
C811 H815 0.930 . S
C812 C811 1.369 . S
C812 C821 1.429 . S
C813 C811 1.419 . S
C813 C814 1.363 . S
C813 H816 0.929 . S
C814 C813 1.363 . S
C814 C820 1.428 . S
H815 C811 0.930 . S
H816 C813 0.929 . S
S817 N818 1.613 . S
S817 N819 1.610 . S
N818 S817 1.613 . S
N818 C821 1.350 . S
N819 S817 1.610 . S
N819 C820 1.351 . S
C820 C814 1.428 . S
C820 N819 1.351 . S
C820 C821 1.434 . S
C821 C812 1.429 . S
C821 N818 1.350 . S
C821 C820 1.434 . S
C822 C823 1.369 . S
C822 C824 1.419 . S
C822 H826 0.930 . S
C823 C822 1.369 . S
C823 C832 1.429 . S
C824 C822 1.419 . S
C824 C825 1.363 . S
C824 H827 0.929 . S
C825 C824 1.363 . S
C825 C831 1.428 . S
H826 C822 0.930 . S
H827 C824 0.929 . S
S828 N829 1.613 . S
S828 N830 1.610 . S
N829 S828 1.613 . S
N829 C832 1.350 . S
N830 S828 1.610 . S
N830 C831 1.351 . S
C831 C825 1.428 . S
C831 N830 1.351 . S
C831 C832 1.434 . S
C832 C823 1.429 . S
C832 N829 1.350 . S
C832 C831 1.434 . S
C833 C834 1.369 . S
C833 C835 1.419 . S
C833 H837 0.930 . S
C834 C833 1.369 . S
C834 C843 1.429 . S
C835 C833 1.419 . S
C835 C836 1.363 . S
C835 H838 0.929 . S
C836 C835 1.363 . S
C836 C842 1.428 . S
H837 C833 0.930 . S
H838 C835 0.929 . S
S839 N840 1.613 . S
S839 N841 1.610 . S
N840 S839 1.613 . S
N840 C843 1.350 . S
N841 S839 1.610 . S
N841 C842 1.351 . S
C842 C836 1.428 . S
C842 N841 1.351 . S
C842 C843 1.434 . S
C843 C834 1.429 . S
C843 N840 1.350 . S
C843 C842 1.434 . S
C844 C845 1.369 . S
C844 C846 1.419 . S
C844 H848 0.930 . S
C845 C844 1.369 . S
C845 C854 1.429 . S
C846 C844 1.419 . S
C846 C847 1.363 . S
C846 H849 0.929 . S
C847 C846 1.363 . S
C847 C853 1.428 . S
H848 C844 0.930 . S
H849 C846 0.929 . S
S850 N851 1.613 . S
S850 N852 1.610 . S
N851 S850 1.613 . S
N851 C854 1.350 . S
N852 S850 1.610 . S
N852 C853 1.351 . S
C853 C847 1.428 . S
C853 N852 1.351 . S
C853 C854 1.434 . S
C854 C845 1.429 . S
C854 N851 1.350 . S
C854 C853 1.434 . S
C855 C856 1.369 . S
C855 C857 1.419 . S
C855 H859 0.930 . S
C856 C855 1.369 . S
C856 C865 1.429 . S
C857 C855 1.419 . S
C857 C858 1.363 . S
C857 H860 0.929 . S
C858 C857 1.363 . S
C858 C864 1.428 . S
H859 C855 0.930 . S
H860 C857 0.929 . S
S861 N862 1.613 . S
S861 N863 1.610 . S
N862 S861 1.613 . S
N862 C865 1.350 . S
N863 S861 1.610 . S
N863 C864 1.351 . S
C864 C858 1.428 . S
C864 N863 1.351 . S
C864 C865 1.434 . S
C865 C856 1.429 . S
C865 N862 1.350 . S
C865 C864 1.434 . S
C866 C867 1.369 . S
C866 C868 1.419 . S
C866 H870 0.930 . S
C867 C866 1.369 . S
C867 C876 1.429 . S
C868 C866 1.419 . S
C868 C869 1.363 . S
C868 H871 0.929 . S
C869 C868 1.363 . S
C869 C875 1.428 . S
H870 C866 0.930 . S
H871 C868 0.929 . S
S872 N873 1.613 . S
S872 N874 1.610 . S
N873 S872 1.613 . S
N873 C876 1.350 . S
N874 S872 1.610 . S
N874 C875 1.351 . S
C875 C869 1.428 . S
C875 N874 1.351 . S
C875 C876 1.434 . S
C876 C867 1.429 . S
C876 N873 1.350 . S
C876 C875 1.434 . S
C877 C878 1.369 . S
C877 C879 1.419 . S
C877 H881 0.930 . S
C878 C877 1.369 . S
C878 C887 1.429 . S
C879 C877 1.419 . S
C879 C880 1.363 . S
C879 H882 0.929 . S
C880 C879 1.363 . S
C880 C886 1.428 . S
H881 C877 0.930 . S
H882 C879 0.929 . S
S883 N884 1.613 . S
S883 N885 1.610 . S
N884 S883 1.613 . S
N884 C887 1.350 . S
N885 S883 1.610 . S
N885 C886 1.351 . S
C886 C880 1.428 . S
C886 N885 1.351 . S
C886 C887 1.434 . S
C887 C878 1.429 . S
C887 N884 1.350 . S
C887 C886 1.434 . S
C888 C889 1.369 . S
C888 C890 1.419 . S
C888 H892 0.930 . S
C889 C888 1.369 . S
C889 C898 1.429 . S
C890 C888 1.419 . S
C890 C891 1.363 . S
C890 H893 0.929 . S
C891 C890 1.363 . S
C891 C897 1.428 . S
H892 C888 0.930 . S
H893 C890 0.929 . S
S894 N895 1.613 . S
S894 N896 1.610 . S
N895 S894 1.613 . S
N895 C898 1.350 . S
N896 S894 1.610 . S
N896 C897 1.351 . S
C897 C891 1.428 . S
C897 N896 1.351 . S
C897 C898 1.434 . S
C898 C889 1.429 . S
C898 N895 1.350 . S
C898 C897 1.434 . S
C899 C900 1.369 . S
C899 C901 1.419 . S
C899 H903 0.930 . S
C900 C899 1.369 . S
C900 C909 1.429 . S
C901 C899 1.419 . S
C901 C902 1.363 . S
C901 H904 0.929 . S
C902 C901 1.363 . S
C902 C908 1.428 . S
H903 C899 0.930 . S
H904 C901 0.929 . S
S905 N906 1.613 . S
S905 N907 1.610 . S
N906 S905 1.613 . S
N906 C909 1.350 . S
N907 S905 1.610 . S
N907 C908 1.351 . S
C908 C902 1.428 . S
C908 N907 1.351 . S
C908 C909 1.434 . S
C909 C900 1.429 . S
C909 N906 1.350 . S
C909 C908 1.434 . S
C910 C911 1.369 . S
C910 C912 1.419 . S
C910 H914 0.930 . S
C911 C910 1.369 . S
C911 C920 1.429 . S
C912 C910 1.419 . S
C912 C913 1.363 . S
C912 H915 0.929 . S
C913 C912 1.363 . S
C913 C919 1.428 . S
H914 C910 0.930 . S
H915 C912 0.929 . S
S916 N917 1.613 . S
S916 N918 1.610 . S
N917 S916 1.613 . S
N917 C920 1.350 . S
N918 S916 1.610 . S
N918 C919 1.351 . S
C919 C913 1.428 . S
C919 N918 1.351 . S
C919 C920 1.434 . S
C920 C911 1.429 . S
C920 N917 1.350 . S
C920 C919 1.434 . S
C921 C922 1.369 . S
C921 C923 1.419 1_556 S
C921 H925 0.930 . S
C922 C921 1.369 . S
C922 C931 1.429 . S
C923 C921 1.419 1_554 S
C923 C924 1.363 . S
C923 H926 0.929 . S
C924 C923 1.363 . S
C924 C930 1.428 . S
H925 C921 0.930 . S
H926 C923 0.929 . S
S927 N928 1.613 1_554 S
S927 N929 1.610 1_565 S
N928 S927 1.613 1_556 S
N928 C931 1.350 1_565 S
N929 S927 1.610 1_545 S
N929 C930 1.351 . S
C930 C924 1.428 . S
C930 N929 1.351 . S
C930 C931 1.434 1_554 S
C931 C922 1.429 . S
C931 N928 1.350 1_545 S
C931 C930 1.434 1_556 S
C932 C933 1.369 . S
C932 C934 1.419 . S
C932 H936 0.930 . S
C933 C932 1.369 . S
C933 C942 1.429 . S
C934 C932 1.419 . S
C934 C935 1.363 . S
C934 H937 0.929 . S
C935 C934 1.363 . S
C935 C941 1.428 . S
H936 C932 0.930 . S
H937 C934 0.929 . S
S938 N939 1.613 . S
S938 N940 1.610 . S
N939 S938 1.613 . S
N939 C942 1.350 . S
N940 S938 1.610 . S
N940 C941 1.351 . S
C941 C935 1.428 . S
C941 N940 1.351 . S
C941 C942 1.434 . S
C942 C933 1.429 . S
C942 N939 1.350 . S
C942 C941 1.434 . S
C943 C944 1.369 . S
C943 C945 1.419 . S
C943 H947 0.930 . S
C944 C943 1.369 . S
C944 C953 1.429 . S
C945 C943 1.419 . S
C945 C946 1.363 . S
C945 H948 0.929 . S
C946 C945 1.363 . S
C946 C952 1.428 . S
H947 C943 0.930 . S
H948 C945 0.929 . S
S949 N950 1.613 . S
S949 N951 1.610 . S
N950 S949 1.613 . S
N950 C953 1.350 . S
N951 S949 1.610 . S
N951 C952 1.351 . S
C952 C946 1.428 . S
C952 N951 1.351 . S
C952 C953 1.434 . S
C953 C944 1.429 . S
C953 N950 1.350 . S
C953 C952 1.434 . S
C954 C955 1.369 . S
C954 C956 1.419 . S
C954 H958 0.930 . S
C955 C954 1.369 . S
C955 C964 1.429 . S
C956 C954 1.419 . S
C956 C957 1.363 . S
C956 H959 0.929 . S
C957 C956 1.363 . S
C957 C963 1.428 . S
H958 C954 0.930 . S
H959 C956 0.929 . S
S960 N961 1.613 . S
S960 N962 1.610 . S
N961 S960 1.613 . S
N961 C964 1.350 . S
N962 S960 1.610 . S
N962 C963 1.351 . S
C963 C957 1.428 . S
C963 N962 1.351 . S
C963 C964 1.434 . S
C964 C955 1.429 . S
C964 N961 1.350 . S
C964 C963 1.434 . S
C965 C966 1.369 . S
C965 C967 1.419 1_554 S
C965 H969 0.930 . S
C966 C965 1.369 . S
C966 C975 1.429 . S
C967 C965 1.419 1_556 S
C967 C968 1.363 . S
C967 H970 0.929 . S
C968 C967 1.363 . S
C968 C974 1.428 . S
H969 C965 0.930 . S
H970 C967 0.929 . S
S971 N972 1.613 1_556 S
S971 N973 1.610 1_565 S
N972 S971 1.613 1_554 S
N972 C975 1.350 1_565 S
N973 S971 1.610 1_545 S
N973 C974 1.351 . S
C974 C968 1.428 . S
C974 N973 1.351 . S
C974 C975 1.434 1_556 S
C975 C966 1.429 . S
C975 N972 1.350 1_545 S
C975 C974 1.434 1_554 S
C976 C977 1.369 . S
C976 C978 1.419 . S
C976 H980 0.930 . S
C977 C976 1.369 . S
C977 C986 1.429 . S
C978 C976 1.419 . S
C978 C979 1.363 . S
C978 H981 0.929 . S
C979 C978 1.363 . S
C979 C985 1.428 . S
H980 C976 0.930 . S
H981 C978 0.929 . S
S982 N983 1.613 . S
S982 N984 1.610 . S
N983 S982 1.613 . S
N983 C986 1.350 . S
N984 S982 1.610 . S
N984 C985 1.351 . S
C985 C979 1.428 . S
C985 N984 1.351 . S
C985 C986 1.434 . S
C986 C977 1.429 . S
C986 N983 1.350 . S
C986 C985 1.434 . S
C987 C988 1.369 . S
C987 C989 1.419 1_565 S
C987 H991 0.930 . S
C988 C987 1.369 . S
C988 C997 1.429 . S
C989 C987 1.419 1_545 S
C989 C990 1.363 . S
C989 H992 0.929 . S
C990 C989 1.363 . S
C990 C996 1.428 . S
H991 C987 0.930 . S
H992 C989 0.929 . S
S993 N994 1.613 1_545 S
S993 N995 1.610 . S
N994 S993 1.613 1_565 S
N994 C997 1.350 . S
N995 S993 1.610 . S
N995 C996 1.351 . S
C996 C990 1.428 . S
C996 N995 1.351 . S
C996 C997 1.434 1_545 S
C997 C988 1.429 . S
C997 N994 1.350 . S
C997 C996 1.434 1_565 S
C998 C999 1.369 . S
C998 C1000 1.419 . S
C998 H1002 0.930 . S
C999 C998 1.369 . S
C999 C1008 1.429 . S
C1000 C998 1.419 . S
C1000 C1001 1.363 . S
C1000 H1003 0.929 . S
C1001 C1000 1.363 . S
C1001 C1007 1.428 . S
H1002 C998 0.930 . S
H1003 C1000 0.929 . S
S1004 N1005 1.613 . S
S1004 N1006 1.610 . S
N1005 S1004 1.613 . S
N1005 C1008 1.350 . S
N1006 S1004 1.610 . S
N1006 C1007 1.351 . S
C1007 C1001 1.428 . S
C1007 N1006 1.351 . S
C1007 C1008 1.434 . S
C1008 C999 1.429 . S
C1008 N1005 1.350 . S
C1008 C1007 1.434 . S
C1009 C1010 1.369 . S
C1009 C1011 1.419 1_545 S
C1009 H1013 0.930 . S
C1010 C1009 1.369 . S
C1010 C1019 1.429 . S
C1011 C1009 1.419 1_565 S
C1011 C1012 1.363 . S
C1011 H1014 0.929 . S
C1012 C1011 1.363 . S
C1012 C1018 1.428 . S
H1013 C1009 0.930 . S
H1014 C1011 0.929 . S
S1015 N1016 1.613 . S
S1015 N1017 1.610 1_545 S
N1016 S1015 1.613 . S
N1016 C1019 1.350 . S
N1017 S1015 1.610 1_565 S
N1017 C1018 1.351 . S
C1018 C1012 1.428 . S
C1018 N1017 1.351 . S
C1018 C1019 1.434 1_565 S
C1019 C1010 1.429 . S
C1019 N1016 1.350 . S
C1019 C1018 1.434 1_545 S
C1020 C1021 1.369 . S
C1020 C1022 1.419 . S
C1020 H1024 0.930 . S
C1021 C1020 1.369 . S
C1021 C1030 1.429 . S
C1022 C1020 1.419 . S
C1022 C1023 1.363 . S
C1022 H1025 0.929 . S
C1023 C1022 1.363 . S
C1023 C1029 1.428 . S
H1024 C1020 0.930 . S
H1025 C1022 0.929 . S
S1026 N1027 1.613 . S
S1026 N1028 1.610 . S
N1027 S1026 1.613 . S
N1027 C1030 1.350 . S
N1028 S1026 1.610 . S
N1028 C1029 1.351 . S
C1029 C1023 1.428 . S
C1029 N1028 1.351 . S
C1029 C1030 1.434 . S
C1030 C1021 1.429 . S
C1030 N1027 1.350 . S
C1030 C1029 1.434 . S
C1031 C1032 1.369 . S
C1031 C1033 1.419 1_565 S
C1031 H1035 0.930 . S
C1032 C1031 1.369 . S
C1032 C1041 1.429 . S
C1033 C1031 1.419 1_545 S
C1033 C1034 1.363 . S
C1033 H1036 0.929 . S
C1034 C1033 1.363 . S
C1034 C1040 1.428 . S
H1035 C1031 0.930 . S
H1036 C1033 0.929 . S
S1037 N1038 1.613 . S
S1037 N1039 1.610 1_565 S
N1038 S1037 1.613 . S
N1038 C1041 1.350 . S
N1039 S1037 1.610 1_545 S
N1039 C1040 1.351 . S
C1040 C1034 1.428 . S
C1040 N1039 1.351 . S
C1040 C1041 1.434 1_545 S
C1041 C1032 1.429 . S
C1041 N1038 1.350 . S
C1041 C1040 1.434 1_565 S
C1042 C1043 1.369 . S
C1042 C1044 1.419 . S
C1042 H1046 0.930 . S
C1043 C1042 1.369 . S
C1043 C1052 1.429 . S
C1044 C1042 1.419 . S
C1044 C1045 1.363 . S
C1044 H1047 0.929 . S
C1045 C1044 1.363 . S
C1045 C1051 1.428 . S
H1046 C1042 0.930 . S
H1047 C1044 0.929 . S
S1048 N1049 1.613 . S
S1048 N1050 1.610 . S
N1049 S1048 1.613 . S
N1049 C1052 1.350 . S
N1050 S1048 1.610 . S
N1050 C1051 1.351 . S
C1051 C1045 1.428 . S
C1051 N1050 1.351 . S
C1051 C1052 1.434 . S
C1052 C1043 1.429 . S
C1052 N1049 1.350 . S
C1052 C1051 1.434 . S
C1053 C1054 1.369 . S
C1053 C1055 1.419 1_565 S
C1053 H1057 0.930 . S
C1054 C1053 1.369 . S
C1054 C1063 1.429 . S
C1055 C1053 1.419 1_545 S
C1055 C1056 1.363 . S
C1055 H1058 0.929 . S
C1056 C1055 1.363 . S
C1056 C1062 1.428 . S
H1057 C1053 0.930 . S
H1058 C1055 0.929 . S
S1059 N1060 1.612 1_545 S
S1059 N1061 1.608 . S
N1060 S1059 1.612 1_565 S
N1060 C1063 1.350 . S
N1061 S1059 1.608 . S
N1061 C1062 1.351 . S
C1062 C1056 1.428 . S
C1062 N1061 1.351 . S
C1062 C1063 1.434 1_545 S
C1063 C1054 1.429 . S
C1063 N1060 1.350 . S
C1063 C1062 1.434 1_565 S
C1064 C1065 1.369 . S
C1064 C1066 1.419 . S
C1064 H1068 0.930 . S
C1065 C1064 1.369 . S
C1065 C1074 1.429 . S
C1066 C1064 1.419 . S
C1066 C1067 1.363 . S
C1066 H1069 0.929 . S
C1067 C1066 1.363 . S
C1067 C1073 1.428 . S
H1068 C1064 0.930 . S
H1069 C1066 0.929 . S
S1070 N1071 1.613 . S
S1070 N1072 1.610 . S
N1071 S1070 1.613 . S
N1071 C1074 1.350 . S
N1072 S1070 1.610 . S
N1072 C1073 1.351 . S
C1073 C1067 1.428 . S
C1073 N1072 1.351 . S
C1073 C1074 1.434 . S
C1074 C1065 1.429 . S
C1074 N1071 1.350 . S
C1074 C1073 1.434 . S
C1075 C1076 1.369 . S
C1075 C1077 1.419 . S
C1075 H1079 0.930 . S
C1076 C1075 1.369 . S
C1076 C1085 1.429 . S
C1077 C1075 1.419 . S
C1077 C1078 1.363 . S
C1077 H1080 0.929 . S
C1078 C1077 1.363 . S
C1078 C1084 1.428 . S
H1079 C1075 0.930 . S
H1080 C1077 0.929 . S
S1081 N1082 1.613 . S
S1081 N1083 1.610 . S
N1082 S1081 1.613 . S
N1082 C1085 1.350 . S
N1083 S1081 1.610 . S
N1083 C1084 1.351 . S
C1084 C1078 1.428 . S
C1084 N1083 1.351 . S
C1084 C1085 1.434 . S
C1085 C1076 1.429 . S
C1085 N1082 1.350 . S
C1085 C1084 1.434 . S
C1086 C1087 1.369 . S
C1086 C1088 1.419 1_655 S
C1086 H1090 0.930 . S
C1087 C1086 1.369 . S
C1087 C1096 1.429 . S
C1088 C1086 1.419 1_455 S
C1088 C1089 1.363 . S
C1088 H1091 0.929 . S
C1089 C1088 1.363 . S
C1089 C1095 1.428 . S
H1090 C1086 0.930 . S
H1091 C1088 0.929 . S
S1092 N1093 1.613 . S
S1092 N1094 1.610 1_655 S
N1093 S1092 1.613 . S
N1093 C1096 1.350 . S
N1094 S1092 1.610 1_455 S
N1094 C1095 1.351 . S
C1095 C1089 1.428 . S
C1095 N1094 1.351 . S
C1095 C1096 1.434 1_455 S
C1096 C1087 1.429 . S
C1096 N1093 1.350 . S
C1096 C1095 1.434 1_655 S
C1097 C1098 1.369 . S
C1097 C1099 1.419 . S
C1097 H1101 0.930 . S
C1098 C1097 1.369 . S
C1098 C1107 1.429 . S
C1099 C1097 1.419 . S
C1099 C1100 1.363 . S
C1099 H1102 0.929 . S
C1100 C1099 1.363 . S
C1100 C1106 1.428 . S
H1101 C1097 0.930 . S
H1102 C1099 0.929 . S
S1103 N1104 1.613 . S
S1103 N1105 1.610 . S
N1104 S1103 1.613 . S
N1104 C1107 1.350 . S
N1105 S1103 1.610 . S
N1105 C1106 1.351 . S
C1106 C1100 1.428 . S
C1106 N1105 1.351 . S
C1106 C1107 1.434 . S
C1107 C1098 1.429 . S
C1107 N1104 1.350 . S
C1107 C1106 1.434 . S
C1108 C1109 1.369 . S
C1108 C1110 1.419 1_455 S
C1108 H1112 0.930 . S
C1109 C1108 1.369 . S
C1109 C1118 1.429 . S
C1110 C1108 1.419 1_655 S
C1110 C1111 1.363 . S
C1110 H1113 0.929 . S
C1111 C1110 1.363 . S
C1111 C1117 1.428 . S
H1112 C1108 0.930 . S
H1113 C1110 0.929 . S
S1114 N1115 1.613 . S
S1114 N1116 1.610 1_455 S
N1115 S1114 1.613 . S
N1115 C1118 1.350 . S
N1116 S1114 1.610 1_655 S
N1116 C1117 1.351 . S
C1117 C1111 1.428 . S
C1117 N1116 1.351 . S
C1117 C1118 1.434 1_655 S
C1118 C1109 1.429 . S
C1118 N1115 1.350 . S
C1118 C1117 1.434 1_455 S
C1119 C1120 1.369 . S
C1119 C1121 1.419 . S
C1119 H1123 0.930 . S
C1120 C1119 1.369 . S
C1120 C1129 1.429 . S
C1121 C1119 1.419 . S
C1121 C1122 1.363 . S
C1121 H1124 0.929 . S
C1122 C1121 1.363 . S
C1122 C1128 1.428 . S
H1123 C1119 0.930 . S
H1124 C1121 0.929 . S
S1125 N1126 1.613 . S
S1125 N1127 1.610 . S
N1126 S1125 1.613 . S
N1126 C1129 1.350 . S
N1127 S1125 1.610 . S
N1127 C1128 1.351 . S
C1128 C1122 1.428 . S
C1128 N1127 1.351 . S
C1128 C1129 1.434 . S
C1129 C1120 1.429 . S
C1129 N1126 1.350 . S
C1129 C1128 1.434 . S
C1130 C1131 1.369 . S
C1130 C1132 1.419 1_655 S
C1130 H1134 0.930 . S
C1131 C1130 1.369 . S
C1131 C1140 1.429 . S
C1132 C1130 1.419 1_455 S
C1132 C1133 1.363 . S
C1132 H1135 0.929 . S
C1133 C1132 1.363 . S
C1133 C1139 1.428 . S
H1134 C1130 0.930 . S
H1135 C1132 0.929 . S
S1136 N1137 1.613 1_455 S
S1136 N1138 1.610 . S
N1137 S1136 1.613 1_655 S
N1137 C1140 1.350 . S
N1138 S1136 1.610 . S
N1138 C1139 1.351 . S
C1139 C1133 1.428 . S
C1139 N1138 1.351 . S
C1139 C1140 1.434 1_455 S
C1140 C1131 1.429 . S
C1140 N1137 1.350 . S
C1140 C1139 1.434 1_655 S
C1141 C1142 1.369 . S
C1141 C1143 1.419 . S
C1141 H1145 0.930 . S
C1142 C1141 1.369 . S
C1142 C1151 1.429 . S
C1143 C1141 1.419 . S
C1143 C1144 1.363 . S
C1143 H1146 0.929 . S
C1144 C1143 1.363 . S
C1144 C1150 1.428 . S
H1145 C1141 0.930 . S
H1146 C1143 0.929 . S
S1147 N1148 1.613 1_554 S
S1147 N1149 1.610 . S
N1148 S1147 1.613 1_556 S
N1148 C1151 1.350 . S
N1149 S1147 1.610 . S
N1149 C1150 1.351 1_554 S
C1150 C1144 1.428 . S
C1150 N1149 1.351 1_556 S
C1150 C1151 1.434 . S
C1151 C1142 1.429 . S
C1151 N1148 1.350 . S
C1151 C1150 1.434 . S
C1152 C1153 1.369 . S
C1152 C1154 1.419 . S
C1152 H1156 0.930 . S
C1153 C1152 1.369 . S
C1153 C1162 1.429 . S
C1154 C1152 1.419 . S
C1154 C1155 1.363 . S
C1154 H1157 0.929 . S
C1155 C1154 1.363 . S
C1155 C1161 1.428 . S
H1156 C1152 0.930 . S
H1157 C1154 0.929 . S
S1158 N1159 1.613 . S
S1158 N1160 1.610 . S
N1159 S1158 1.613 . S
N1159 C1162 1.350 . S
N1160 S1158 1.610 . S
N1160 C1161 1.351 . S
C1161 C1155 1.428 . S
C1161 N1160 1.351 . S
C1161 C1162 1.434 . S
C1162 C1153 1.429 . S
C1162 N1159 1.350 . S
C1162 C1161 1.434 . S
C1163 C1164 1.369 . S
C1163 C1165 1.419 1_554 S
C1163 H1167 0.930 . S
C1164 C1163 1.369 . S
C1164 C1173 1.429 . S
C1165 C1163 1.419 1_556 S
C1165 C1166 1.363 . S
C1165 H1168 0.929 . S
C1166 C1165 1.363 . S
C1166 C1172 1.428 . S
H1167 C1163 0.930 . S
H1168 C1165 0.929 . S
S1169 N1170 1.613 1_556 S
S1169 N1171 1.610 . S
N1170 S1169 1.613 1_554 S
N1170 C1173 1.350 . S
N1171 S1169 1.610 . S
N1171 C1172 1.351 . S
C1172 C1166 1.428 . S
C1172 N1171 1.351 . S
C1172 C1173 1.434 1_556 S
C1173 C1164 1.429 . S
C1173 N1170 1.350 . S
C1173 C1172 1.434 1_554 S
C1174 C1175 1.369 . S
C1174 C1176 1.419 . S
C1174 H1178 0.930 . S
C1175 C1174 1.369 . S
C1175 C1184 1.429 . S
C1176 C1174 1.419 . S
C1176 C1177 1.363 . S
C1176 H1179 0.929 . S
C1177 C1176 1.363 . S
C1177 C1183 1.428 . S
H1178 C1174 0.930 . S
H1179 C1176 0.929 . S
S1180 N1181 1.613 . S
S1180 N1182 1.610 . S
N1181 S1180 1.613 . S
N1181 C1184 1.350 . S
N1182 S1180 1.610 . S
N1182 C1183 1.351 . S
C1183 C1177 1.428 . S
C1183 N1182 1.351 . S
C1183 C1184 1.434 . S
C1184 C1175 1.429 . S
C1184 N1181 1.350 . S
C1184 C1183 1.434 . S
C1185 C1186 1.369 . S
C1185 C1187 1.419 . S
C1185 H1189 0.930 . S
C1186 C1185 1.369 . S
C1186 C1195 1.429 . S
C1187 C1185 1.419 . S
C1187 C1188 1.363 . S
C1187 H1190 0.929 . S
C1188 C1187 1.363 . S
C1188 C1194 1.428 . S
H1189 C1185 0.930 . S
H1190 C1187 0.929 . S
S1191 N1192 1.613 . S
S1191 N1193 1.610 . S
N1192 S1191 1.613 . S
N1192 C1195 1.350 . S
N1193 S1191 1.610 . S
N1193 C1194 1.351 . S
C1194 C1188 1.428 . S
C1194 N1193 1.351 . S
C1194 C1195 1.434 . S
C1195 C1186 1.429 . S
C1195 N1192 1.350 . S
C1195 C1194 1.434 . S
C1196 C1197 1.369 . S
C1196 C1198 1.419 . S
C1196 H1200 0.930 . S
C1197 C1196 1.369 . S
C1197 C1206 1.429 . S
C1198 C1196 1.419 . S
C1198 C1199 1.363 . S
C1198 H1201 0.929 . S
C1199 C1198 1.363 . S
C1199 C1205 1.428 . S
H1200 C1196 0.930 . S
H1201 C1198 0.929 . S
S1202 N1203 1.613 . S
S1202 N1204 1.610 . S
N1203 S1202 1.613 . S
N1203 C1206 1.350 . S
N1204 S1202 1.610 . S
N1204 C1205 1.351 . S
C1205 C1199 1.428 . S
C1205 N1204 1.351 . S
C1205 C1206 1.434 . S
C1206 C1197 1.429 . S
C1206 N1203 1.350 . S
C1206 C1205 1.434 . S
C1207 C1208 1.369 . S
C1207 C1209 1.419 1_556 S
C1207 H1211 0.930 . S
C1208 C1207 1.369 . S
C1208 C1217 1.429 . S
C1209 C1207 1.419 1_554 S
C1209 C1210 1.363 . S
C1209 H1212 0.929 . S
C1210 C1209 1.363 . S
C1210 C1216 1.428 . S
H1211 C1207 0.930 . S
H1212 C1209 0.929 . S
S1213 N1214 1.613 . S
S1213 N1215 1.610 1_556 S
N1214 S1213 1.613 . S
N1214 C1217 1.350 . S
N1215 S1213 1.610 1_554 S
N1215 C1216 1.351 . S
C1216 C1210 1.428 . S
C1216 N1215 1.351 . S
C1216 C1217 1.434 1_554 S
C1217 C1208 1.429 . S
C1217 N1214 1.350 . S
C1217 C1216 1.434 1_556 S
C1218 C1219 1.369 . S
C1218 C1220 1.419 . S
C1218 H1222 0.930 . S
C1219 C1218 1.369 . S
C1219 C1228 1.429 . S
C1220 C1218 1.419 . S
C1220 C1221 1.363 . S
C1220 H1223 0.929 . S
C1221 C1220 1.363 . S
C1221 C1227 1.428 . S
H1222 C1218 0.930 . S
H1223 C1220 0.929 . S
S1224 N1225 1.613 . S
S1224 N1226 1.610 . S
N1225 S1224 1.613 . S
N1225 C1228 1.350 . S
N1226 S1224 1.610 . S
N1226 C1227 1.351 . S
C1227 C1221 1.428 . S
C1227 N1226 1.351 . S
C1227 C1228 1.434 . S
C1228 C1219 1.429 . S
C1228 N1225 1.350 . S
C1228 C1227 1.434 . S
C1229 C1230 1.369 . S
C1229 C1231 1.419 . S
C1229 H1233 0.930 . S
C1230 C1229 1.369 . S
C1230 C1239 1.429 . S
C1231 C1229 1.419 . S
C1231 C1232 1.363 . S
C1231 H1234 0.929 . S
C1232 C1231 1.363 . S
C1232 C1238 1.428 . S
H1233 C1229 0.930 . S
H1234 C1231 0.929 . S
S1235 N1236 1.613 . S
S1235 N1237 1.610 . S
N1236 S1235 1.613 . S
N1236 C1239 1.350 . S
N1237 S1235 1.610 . S
N1237 C1238 1.351 . S
C1238 C1232 1.428 . S
C1238 N1237 1.351 . S
C1238 C1239 1.434 . S
C1239 C1230 1.429 . S
C1239 N1236 1.350 . S
C1239 C1238 1.434 . S
C1240 C1241 1.369 . S
C1240 C1242 1.419 . S
C1240 H1244 0.930 . S
C1241 C1240 1.369 . S
C1241 C1250 1.429 . S
C1242 C1240 1.419 . S
C1242 C1243 1.363 . S
C1242 H1245 0.929 . S
C1243 C1242 1.363 . S
C1243 C1249 1.428 . S
H1244 C1240 0.930 . S
H1245 C1242 0.929 . S
S1246 N1247 1.613 . S
S1246 N1248 1.610 . S
N1247 S1246 1.613 . S
N1247 C1250 1.350 . S
N1248 S1246 1.610 . S
N1248 C1249 1.351 . S
C1249 C1243 1.428 . S
C1249 N1248 1.351 . S
C1249 C1250 1.434 . S
C1250 C1241 1.429 . S
C1250 N1247 1.350 . S
C1250 C1249 1.434 . S
C1251 C1252 1.369 . S
C1251 C1253 1.419 . S
C1251 H1255 0.930 . S
C1252 C1251 1.369 . S
C1252 C1261 1.429 . S
C1253 C1251 1.419 . S
C1253 C1254 1.363 . S
C1253 H1256 0.929 . S
C1254 C1253 1.363 . S
C1254 C1260 1.428 . S
H1255 C1251 0.930 . S
H1256 C1253 0.929 . S
S1257 N1258 1.613 . S
S1257 N1259 1.610 . S
N1258 S1257 1.613 . S
N1258 C1261 1.350 . S
N1259 S1257 1.610 . S
N1259 C1260 1.351 . S
C1260 C1254 1.428 . S
C1260 N1259 1.351 . S
C1260 C1261 1.434 . S
C1261 C1252 1.429 . S
C1261 N1258 1.350 . S
C1261 C1260 1.434 . S
C1262 C1263 1.369 . S
C1262 C1264 1.419 . S
C1262 H1266 0.930 . S
C1263 C1262 1.369 . S
C1263 C1272 1.429 . S
C1264 C1262 1.419 . S
C1264 C1265 1.363 . S
C1264 H1267 0.929 . S
C1265 C1264 1.363 . S
C1265 C1271 1.428 . S
H1266 C1262 0.930 . S
H1267 C1264 0.929 . S
S1268 N1269 1.613 . S
S1268 N1270 1.610 . S
N1269 S1268 1.613 . S
N1269 C1272 1.350 . S
N1270 S1268 1.610 . S
N1270 C1271 1.351 . S
C1271 C1265 1.428 . S
C1271 N1270 1.351 . S
C1271 C1272 1.434 . S
C1272 C1263 1.429 . S
C1272 N1269 1.350 . S
C1272 C1271 1.434 . S
C1273 C1274 1.369 . S
C1273 C1275 1.419 . S
C1273 H1277 0.930 . S
C1274 C1273 1.369 . S
C1274 C1283 1.429 . S
C1275 C1273 1.419 . S
C1275 C1276 1.363 . S
C1275 H1278 0.929 . S
C1276 C1275 1.363 . S
C1276 C1282 1.428 . S
H1277 C1273 0.930 . S
H1278 C1275 0.929 . S
S1279 N1280 1.613 . S
S1279 N1281 1.610 1_455 S
N1280 S1279 1.613 . S
N1280 C1283 1.350 1_455 S
N1281 S1279 1.610 1_655 S
N1281 C1282 1.351 . S
C1282 C1276 1.428 . S
C1282 N1281 1.351 . S
C1282 C1283 1.434 . S
C1283 C1274 1.429 . S
C1283 N1280 1.350 1_655 S
C1283 C1282 1.434 . S
C1284 C1285 1.369 . S
C1284 C1286 1.419 . S
C1284 H1288 0.930 . S
C1285 C1284 1.369 . S
C1285 C1294 1.429 . S
C1286 C1284 1.419 . S
C1286 C1287 1.363 . S
C1286 H1289 0.929 . S
C1287 C1286 1.363 . S
C1287 C1293 1.428 . S
H1288 C1284 0.930 . S
H1289 C1286 0.929 . S
S1290 N1291 1.613 . S
S1290 N1292 1.610 . S
N1291 S1290 1.613 . S
N1291 C1294 1.350 . S
N1292 S1290 1.610 . S
N1292 C1293 1.351 . S
C1293 C1287 1.428 . S
C1293 N1292 1.351 . S
C1293 C1294 1.434 . S
C1294 C1285 1.429 . S
C1294 N1291 1.350 . S
C1294 C1293 1.434 . S
C1295 C1296 1.369 . S
C1295 C1297 1.419 . S
C1295 H1299 0.930 . S
C1296 C1295 1.369 . S
C1296 C1305 1.429 . S
C1297 C1295 1.419 . S
C1297 C1298 1.363 . S
C1297 H1300 0.929 . S
C1298 C1297 1.363 . S
C1298 C1304 1.428 . S
H1299 C1295 0.930 . S
H1300 C1297 0.929 . S
S1301 N1302 1.613 . S
S1301 N1303 1.610 . S
N1302 S1301 1.613 . S
N1302 C1305 1.350 . S
N1303 S1301 1.610 . S
N1303 C1304 1.351 . S
C1304 C1298 1.428 . S
C1304 N1303 1.351 . S
C1304 C1305 1.434 . S
C1305 C1296 1.429 . S
C1305 N1302 1.350 . S
C1305 C1304 1.434 . S
C1306 C1307 1.369 . S
C1306 C1308 1.419 . S
C1306 H1310 0.930 . S
C1307 C1306 1.369 . S
C1307 C1316 1.429 . S
C1308 C1306 1.419 . S
C1308 C1309 1.363 . S
C1308 H1311 0.929 . S
C1309 C1308 1.363 . S
C1309 C1315 1.428 . S
H1310 C1306 0.930 . S
H1311 C1308 0.929 . S
S1312 N1313 1.613 . S
S1312 N1314 1.610 . S
N1313 S1312 1.613 . S
N1313 C1316 1.350 . S
N1314 S1312 1.610 . S
N1314 C1315 1.351 . S
C1315 C1309 1.428 . S
C1315 N1314 1.351 . S
C1315 C1316 1.434 . S
C1316 C1307 1.429 . S
C1316 N1313 1.350 . S
C1316 C1315 1.434 . S
C1317 C1318 1.369 . S
C1317 C1319 1.419 . S
C1317 H1321 0.930 . S
C1318 C1317 1.369 . S
C1318 C1327 1.429 . S
C1319 C1317 1.419 . S
C1319 C1320 1.363 . S
C1319 H1322 0.929 . S
C1320 C1319 1.363 . S
C1320 C1326 1.428 . S
H1321 C1317 0.930 . S
H1322 C1319 0.929 . S
S1323 N1324 1.613 . S
S1323 N1325 1.610 . S
N1324 S1323 1.613 . S
N1324 C1327 1.350 . S
N1325 S1323 1.610 . S
N1325 C1326 1.351 . S
C1326 C1320 1.428 . S
C1326 N1325 1.351 . S
C1326 C1327 1.434 . S
C1327 C1318 1.429 . S
C1327 N1324 1.350 . S
C1327 C1326 1.434 . S
C1328 C1329 1.369 . S
C1328 C1330 1.419 . S
C1328 H1332 0.930 . S
C1329 C1328 1.369 . S
C1329 C1338 1.429 . S
C1330 C1328 1.419 . S
C1330 C1331 1.363 . S
C1330 H1333 0.929 . S
C1331 C1330 1.363 . S
C1331 C1337 1.428 . S
H1332 C1328 0.930 . S
H1333 C1330 0.929 . S
S1334 N1335 1.613 . S
S1334 N1336 1.610 . S
N1335 S1334 1.613 . S
N1335 C1338 1.350 . S
N1336 S1334 1.610 . S
N1336 C1337 1.351 . S
C1337 C1331 1.428 . S
C1337 N1336 1.351 . S
C1337 C1338 1.434 . S
C1338 C1329 1.429 . S
C1338 N1335 1.350 . S
C1338 C1337 1.434 . S
C1339 C1340 1.369 . S
C1339 C1341 1.419 . S
C1339 H1343 0.930 . S
C1340 C1339 1.369 . S
C1340 C1349 1.429 . S
C1341 C1339 1.419 . S
C1341 C1342 1.363 . S
C1341 H1344 0.929 . S
C1342 C1341 1.363 . S
C1342 C1348 1.428 . S
H1343 C1339 0.930 . S
H1344 C1341 0.929 . S
S1345 N1346 1.613 . S
S1345 N1347 1.610 . S
N1346 S1345 1.613 . S
N1346 C1349 1.350 . S
N1347 S1345 1.610 . S
N1347 C1348 1.351 . S
C1348 C1342 1.428 . S
C1348 N1347 1.351 . S
C1348 C1349 1.434 . S
C1349 C1340 1.429 . S
C1349 N1346 1.350 . S
C1349 C1348 1.434 . S
C1350 C1351 1.369 . S
C1350 C1352 1.419 . S
C1350 H1354 0.930 . S
C1351 C1350 1.369 . S
C1351 C1360 1.429 . S
C1352 C1350 1.419 . S
C1352 C1353 1.363 . S
C1352 H1355 0.929 . S
C1353 C1352 1.363 . S
C1353 C1359 1.428 . S
H1354 C1350 0.930 . S
H1355 C1352 0.929 . S
S1356 N1357 1.613 . S
S1356 N1358 1.610 . S
N1357 S1356 1.613 . S
N1357 C1360 1.350 . S
N1358 S1356 1.610 . S
N1358 C1359 1.351 . S
C1359 C1353 1.428 . S
C1359 N1358 1.351 . S
C1359 C1360 1.434 . S
C1360 C1351 1.429 . S
C1360 N1357 1.350 . S
C1360 C1359 1.434 . S
C1361 C1362 1.369 . S
C1361 C1363 1.419 . S
C1361 H1365 0.930 . S
C1362 C1361 1.369 . S
C1362 C1371 1.429 . S
C1363 C1361 1.419 . S
C1363 C1364 1.363 . S
C1363 H1366 0.929 . S
C1364 C1363 1.363 . S
C1364 C1370 1.428 . S
H1365 C1361 0.930 . S
H1366 C1363 0.929 . S
S1367 N1368 1.613 . S
S1367 N1369 1.610 . S
N1368 S1367 1.613 . S
N1368 C1371 1.350 . S
N1369 S1367 1.610 . S
N1369 C1370 1.351 . S
C1370 C1364 1.428 . S
C1370 N1369 1.351 . S
C1370 C1371 1.434 . S
C1371 C1362 1.429 . S
C1371 N1368 1.350 . S
C1371 C1370 1.434 . S
C1372 C1373 1.369 . S
C1372 C1374 1.419 . S
C1372 H1376 0.930 . S
C1373 C1372 1.369 . S
C1373 C1382 1.429 . S
C1374 C1372 1.419 . S
C1374 C1375 1.363 . S
C1374 H1377 0.929 . S
C1375 C1374 1.363 . S
C1375 C1381 1.428 . S
H1376 C1372 0.930 . S
H1377 C1374 0.929 . S
S1378 N1379 1.613 . S
S1378 N1380 1.610 . S
N1379 S1378 1.613 . S
N1379 C1382 1.350 . S
N1380 S1378 1.610 . S
N1380 C1381 1.351 . S
C1381 C1375 1.428 . S
C1381 N1380 1.351 . S
C1381 C1382 1.434 . S
C1382 C1373 1.429 . S
C1382 N1379 1.350 . S
C1382 C1381 1.434 . S
C1383 C1384 1.369 . S
C1383 C1385 1.419 . S
C1383 H1387 0.930 . S
C1384 C1383 1.369 . S
C1384 C1393 1.429 . S
C1385 C1383 1.419 . S
C1385 C1386 1.363 . S
C1385 H1388 0.929 . S
C1386 C1385 1.363 . S
C1386 C1392 1.428 . S
H1387 C1383 0.930 . S
H1388 C1385 0.929 . S
S1389 N1390 1.613 . S
S1389 N1391 1.610 . S
N1390 S1389 1.613 . S
N1390 C1393 1.350 . S
N1391 S1389 1.610 . S
N1391 C1392 1.351 . S
C1392 C1386 1.428 . S
C1392 N1391 1.351 . S
C1392 C1393 1.434 . S
C1393 C1384 1.429 . S
C1393 N1390 1.350 . S
C1393 C1392 1.434 . S
C1394 C1395 1.369 . S
C1394 C1396 1.419 . S
C1394 H1398 0.930 . S
C1395 C1394 1.369 . S
C1395 C1404 1.429 . S
C1396 C1394 1.419 . S
C1396 C1397 1.363 . S
C1396 H1399 0.929 . S
C1397 C1396 1.363 . S
C1397 C1403 1.428 . S
H1398 C1394 0.930 . S
H1399 C1396 0.929 . S
S1400 N1401 1.613 . S
S1400 N1402 1.610 . S
N1401 S1400 1.613 . S
N1401 C1404 1.350 . S
N1402 S1400 1.610 . S
N1402 C1403 1.351 . S
C1403 C1397 1.428 . S
C1403 N1402 1.351 . S
C1403 C1404 1.434 . S
C1404 C1395 1.429 . S
C1404 N1401 1.350 . S
C1404 C1403 1.434 . S
C1405 C1406 1.369 . S
C1405 C1407 1.419 1_455 S
C1405 H1409 0.930 . S
C1406 C1405 1.369 . S
C1406 C1415 1.429 . S
C1407 C1405 1.419 1_655 S
C1407 C1408 1.363 . S
C1407 H1410 0.929 . S
C1408 C1407 1.363 . S
C1408 C1414 1.428 . S
H1409 C1405 0.930 . S
H1410 C1407 0.929 . S
S1411 N1412 1.613 1_655 S
S1411 N1413 1.610 . S
N1412 S1411 1.613 1_455 S
N1412 C1415 1.350 . S
N1413 S1411 1.610 . S
N1413 C1414 1.351 . S
C1414 C1408 1.428 . S
C1414 N1413 1.351 . S
C1414 C1415 1.434 1_655 S
C1415 C1406 1.429 . S
C1415 N1412 1.350 . S
C1415 C1414 1.434 1_455 S
C1416 C1417 1.369 . S
C1416 C1418 1.419 . S
C1416 H1420 0.930 . S
C1417 C1416 1.369 . S
C1417 C1426 1.429 . S
C1418 C1416 1.419 . S
C1418 C1419 1.363 . S
C1418 H1421 0.929 . S
C1419 C1418 1.363 . S
C1419 C1425 1.428 . S
H1420 C1416 0.930 . S
H1421 C1418 0.929 . S
S1422 N1423 1.613 . S
S1422 N1424 1.610 . S
N1423 S1422 1.613 . S
N1423 C1426 1.350 . S
N1424 S1422 1.610 . S
N1424 C1425 1.351 . S
C1425 C1419 1.428 . S
C1425 N1424 1.351 . S
C1425 C1426 1.434 . S
C1426 C1417 1.429 . S
C1426 N1423 1.350 . S
C1426 C1425 1.434 . S
C1427 C1428 1.369 . S
C1427 C1429 1.419 . S
C1427 H1431 0.930 . S
C1428 C1427 1.369 . S
C1428 C1437 1.429 . S
C1429 C1427 1.419 . S
C1429 C1430 1.363 . S
C1429 H1432 0.929 . S
C1430 C1429 1.363 . S
C1430 C1436 1.428 . S
H1431 C1427 0.930 . S
H1432 C1429 0.929 . S
S1433 N1434 1.613 . S
S1433 N1435 1.610 . S
N1434 S1433 1.613 . S
N1434 C1437 1.350 . S
N1435 S1433 1.610 . S
N1435 C1436 1.351 . S
C1436 C1430 1.428 . S
C1436 N1435 1.351 . S
C1436 C1437 1.434 . S
C1437 C1428 1.429 . S
C1437 N1434 1.350 . S
C1437 C1436 1.434 . S
C1438 C1439 1.369 . S
C1438 C1440 1.419 . S
C1438 H1442 0.930 . S
C1439 C1438 1.369 . S
C1439 C1448 1.429 . S
C1440 C1438 1.419 . S
C1440 C1441 1.363 . S
C1440 H1443 0.929 . S
C1441 C1440 1.363 . S
C1441 C1447 1.428 . S
H1442 C1438 0.930 . S
H1443 C1440 0.929 . S
S1444 N1445 1.613 . S
S1444 N1446 1.610 . S
N1445 S1444 1.613 . S
N1445 C1448 1.350 . S
N1446 S1444 1.610 . S
N1446 C1447 1.351 . S
C1447 C1441 1.428 . S
C1447 N1446 1.351 . S
C1447 C1448 1.434 . S
C1448 C1439 1.429 . S
C1448 N1445 1.350 . S
C1448 C1447 1.434 . S
C1449 C1450 1.369 . S
C1449 C1451 1.419 . S
C1449 H1453 0.930 . S
C1450 C1449 1.369 . S
C1450 C1459 1.429 . S
C1451 C1449 1.419 . S
C1451 C1452 1.363 . S
C1451 H1454 0.929 . S
C1452 C1451 1.363 . S
C1452 C1458 1.428 . S
H1453 C1449 0.930 . S
H1454 C1451 0.929 . S
S1455 N1456 1.613 . S
S1455 N1457 1.610 . S
N1456 S1455 1.613 . S
N1456 C1459 1.350 . S
N1457 S1455 1.610 . S
N1457 C1458 1.351 . S
C1458 C1452 1.428 . S
C1458 N1457 1.351 . S
C1458 C1459 1.434 . S
C1459 C1450 1.429 . S
C1459 N1456 1.350 . S
C1459 C1458 1.434 . S
C1460 C1461 1.369 . S
C1460 C1462 1.419 . S
C1460 H1464 0.930 . S
C1461 C1460 1.369 . S
C1461 C1470 1.429 . S
C1462 C1460 1.419 . S
C1462 C1463 1.363 . S
C1462 H1465 0.929 . S
C1463 C1462 1.363 . S
C1463 C1469 1.428 . S
H1464 C1460 0.930 . S
H1465 C1462 0.929 . S
S1466 N1467 1.613 . S
S1466 N1468 1.610 . S
N1467 S1466 1.613 . S
N1467 C1470 1.350 . S
N1468 S1466 1.610 . S
N1468 C1469 1.351 . S
C1469 C1463 1.428 . S
C1469 N1468 1.351 . S
C1469 C1470 1.434 . S
C1470 C1461 1.429 . S
C1470 N1467 1.350 . S
C1470 C1469 1.434 . S
C1471 C1472 1.369 . S
C1471 C1473 1.419 . S
C1471 H1475 0.930 . S
C1472 C1471 1.369 . S
C1472 C1481 1.429 . S
C1473 C1471 1.419 . S
C1473 C1474 1.363 . S
C1473 H1476 0.929 . S
C1474 C1473 1.363 . S
C1474 C1480 1.428 . S
H1475 C1471 0.930 . S
H1476 C1473 0.929 . S
S1477 N1478 1.613 . S
S1477 N1479 1.610 . S
N1478 S1477 1.613 . S
N1478 C1481 1.350 . S
N1479 S1477 1.610 . S
N1479 C1480 1.351 . S
C1480 C1474 1.428 . S
C1480 N1479 1.351 . S
C1480 C1481 1.434 . S
C1481 C1472 1.429 . S
C1481 N1478 1.350 . S
C1481 C1480 1.434 . S
C1482 C1483 1.369 . S
C1482 C1484 1.419 . S
C1482 H1486 0.930 . S
C1483 C1482 1.369 . S
C1483 C1492 1.429 . S
C1484 C1482 1.419 . S
C1484 C1485 1.363 . S
C1484 H1487 0.929 . S
C1485 C1484 1.363 . S
C1485 C1491 1.428 . S
H1486 C1482 0.930 . S
H1487 C1484 0.929 . S
S1488 N1489 1.613 . S
S1488 N1490 1.610 . S
N1489 S1488 1.613 . S
N1489 C1492 1.350 . S
N1490 S1488 1.610 . S
N1490 C1491 1.351 . S
C1491 C1485 1.428 . S
C1491 N1490 1.351 . S
C1491 C1492 1.434 . S
C1492 C1483 1.429 . S
C1492 N1489 1.350 . S
C1492 C1491 1.434 . S
C1493 C1494 1.369 . S
C1493 C1495 1.419 . S
C1493 H1497 0.930 . S
C1494 C1493 1.369 . S
C1494 C1503 1.429 . S
C1495 C1493 1.419 . S
C1495 C1496 1.363 . S
C1495 H1498 0.929 . S
C1496 C1495 1.363 . S
C1496 C1502 1.428 . S
H1497 C1493 0.930 . S
H1498 C1495 0.929 . S
S1499 N1500 1.613 . S
S1499 N1501 1.610 . S
N1500 S1499 1.613 . S
N1500 C1503 1.350 . S
N1501 S1499 1.610 . S
N1501 C1502 1.351 . S
C1502 C1496 1.428 . S
C1502 N1501 1.351 . S
C1502 C1503 1.434 . S
C1503 C1494 1.429 . S
C1503 N1500 1.350 . S
C1503 C1502 1.434 . S
C1504 C1505 1.369 . S
C1504 C1506 1.419 . S
C1504 H1508 0.930 . S
C1505 C1504 1.369 . S
C1505 C1514 1.429 . S
C1506 C1504 1.419 . S
C1506 C1507 1.363 . S
C1506 H1509 0.929 . S
C1507 C1506 1.363 . S
C1507 C1513 1.428 . S
H1508 C1504 0.930 . S
H1509 C1506 0.929 . S
S1510 N1511 1.613 . S
S1510 N1512 1.610 . S
N1511 S1510 1.613 . S
N1511 C1514 1.350 . S
N1512 S1510 1.610 . S
N1512 C1513 1.351 . S
C1513 C1507 1.428 . S
C1513 N1512 1.351 . S
C1513 C1514 1.434 . S
C1514 C1505 1.429 . S
C1514 N1511 1.350 . S
C1514 C1513 1.434 . S
C1515 C1516 1.369 . S
C1515 C1517 1.419 . S
C1515 H1519 0.930 . S
C1516 C1515 1.369 . S
C1516 C1525 1.429 . S
C1517 C1515 1.419 . S
C1517 C1518 1.363 . S
C1517 H1520 0.929 . S
C1518 C1517 1.363 . S
C1518 C1524 1.428 . S
H1519 C1515 0.930 . S
H1520 C1517 0.929 . S
S1521 N1522 1.613 . S
S1521 N1523 1.610 . S
N1522 S1521 1.613 . S
N1522 C1525 1.350 . S
N1523 S1521 1.610 . S
N1523 C1524 1.351 . S
C1524 C1518 1.428 . S
C1524 N1523 1.351 . S
C1524 C1525 1.434 . S
C1525 C1516 1.429 . S
C1525 N1522 1.350 . S
C1525 C1524 1.434 . S
C1526 C1527 1.369 . S
C1526 C1528 1.419 . S
C1526 H1530 0.930 . S
C1527 C1526 1.369 . S
C1527 C1536 1.429 . S
C1528 C1526 1.419 . S
C1528 C1529 1.363 . S
C1528 H1531 0.929 . S
C1529 C1528 1.363 . S
C1529 C1535 1.428 . S
H1530 C1526 0.930 . S
H1531 C1528 0.929 . S
S1532 N1533 1.613 . S
S1532 N1534 1.610 . S
N1533 S1532 1.613 . S
N1533 C1536 1.350 . S
N1534 S1532 1.610 . S
N1534 C1535 1.351 . S
C1535 C1529 1.428 . S
C1535 N1534 1.351 . S
C1535 C1536 1.434 . S
C1536 C1527 1.429 . S
C1536 N1533 1.350 . S
C1536 C1535 1.434 . S
C1537 C1538 1.369 . S
C1537 C1539 1.419 . S
C1537 H1541 0.930 . S
C1538 C1537 1.369 . S
C1538 C1547 1.429 . S
C1539 C1537 1.419 . S
C1539 C1540 1.363 . S
C1539 H1542 0.929 . S
C1540 C1539 1.363 . S
C1540 C1546 1.428 . S
H1541 C1537 0.930 . S
H1542 C1539 0.929 . S
S1543 N1544 1.613 . S
S1543 N1545 1.610 . S
N1544 S1543 1.613 . S
N1544 C1547 1.350 . S
N1545 S1543 1.610 . S
N1545 C1546 1.351 . S
C1546 C1540 1.428 . S
C1546 N1545 1.351 . S
C1546 C1547 1.434 . S
C1547 C1538 1.429 . S
C1547 N1544 1.350 . S
C1547 C1546 1.434 . S
C1548 C1549 1.369 . S
C1548 C1550 1.419 . S
C1548 H1552 0.930 . S
C1549 C1548 1.369 . S
C1549 C1558 1.429 . S
C1550 C1548 1.419 . S
C1550 C1551 1.363 . S
C1550 H1553 0.929 . S
C1551 C1550 1.363 . S
C1551 C1557 1.428 . S
H1552 C1548 0.930 . S
H1553 C1550 0.929 . S
S1554 N1555 1.613 . S
S1554 N1556 1.610 . S
N1555 S1554 1.613 . S
N1555 C1558 1.350 . S
N1556 S1554 1.610 . S
N1556 C1557 1.351 . S
C1557 C1551 1.428 . S
C1557 N1556 1.351 . S
C1557 C1558 1.434 . S
C1558 C1549 1.429 . S
C1558 N1555 1.350 . S
C1558 C1557 1.434 . S
C1559 C1560 1.369 . S
C1559 C1561 1.419 . S
C1559 H1563 0.930 . S
C1560 C1559 1.369 . S
C1560 C1569 1.429 . S
C1561 C1559 1.419 . S
C1561 C1562 1.363 . S
C1561 H1564 0.929 . S
C1562 C1561 1.363 . S
C1562 C1568 1.428 . S
H1563 C1559 0.930 . S
H1564 C1561 0.929 . S
S1565 N1566 1.613 . S
S1565 N1567 1.610 . S
N1566 S1565 1.613 . S
N1566 C1569 1.350 . S
N1567 S1565 1.610 . S
N1567 C1568 1.351 . S
C1568 C1562 1.428 . S
C1568 N1567 1.351 . S
C1568 C1569 1.434 . S
C1569 C1560 1.429 . S
C1569 N1566 1.350 . S
C1569 C1568 1.434 . S
C1570 C1571 1.369 . S
C1570 C1572 1.419 . S
C1570 H1574 0.930 . S
C1571 C1570 1.369 . S
C1571 C1580 1.429 . S
C1572 C1570 1.419 . S
C1572 C1573 1.363 . S
C1572 H1575 0.929 . S
C1573 C1572 1.363 . S
C1573 C1579 1.428 . S
H1574 C1570 0.930 . S
H1575 C1572 0.929 . S
S1576 N1577 1.613 . S
S1576 N1578 1.610 . S
N1577 S1576 1.613 . S
N1577 C1580 1.350 . S
N1578 S1576 1.610 . S
N1578 C1579 1.351 . S
C1579 C1573 1.428 . S
C1579 N1578 1.351 . S
C1579 C1580 1.434 . S
C1580 C1571 1.429 . S
C1580 N1577 1.350 . S
C1580 C1579 1.434 . S
C1581 C1582 1.369 . S
C1581 C1583 1.419 . S
C1581 H1585 0.930 . S
C1582 C1581 1.369 . S
C1582 C1591 1.429 . S
C1583 C1581 1.419 . S
C1583 C1584 1.363 . S
C1583 H1586 0.929 . S
C1584 C1583 1.363 . S
C1584 C1590 1.428 . S
H1585 C1581 0.930 . S
H1586 C1583 0.929 . S
S1587 N1588 1.613 . S
S1587 N1589 1.610 . S
N1588 S1587 1.613 . S
N1588 C1591 1.350 . S
N1589 S1587 1.610 . S
N1589 C1590 1.351 . S
C1590 C1584 1.428 . S
C1590 N1589 1.351 . S
C1590 C1591 1.434 . S
C1591 C1582 1.429 . S
C1591 N1588 1.350 . S
C1591 C1590 1.434 . S
C1592 C1593 1.369 . S
C1592 C1594 1.419 . S
C1592 H1596 0.930 . S
C1593 C1592 1.369 . S
C1593 C1602 1.429 . S
C1594 C1592 1.419 . S
C1594 C1595 1.363 . S
C1594 H1597 0.929 . S
C1595 C1594 1.363 . S
C1595 C1601 1.428 . S
H1596 C1592 0.930 . S
H1597 C1594 0.929 . S
S1598 N1599 1.613 . S
S1598 N1600 1.610 . S
N1599 S1598 1.613 . S
N1599 C1602 1.350 . S
N1600 S1598 1.610 . S
N1600 C1601 1.351 . S
C1601 C1595 1.428 . S
C1601 N1600 1.351 . S
C1601 C1602 1.434 . S
C1602 C1593 1.429 . S
C1602 N1599 1.350 . S
C1602 C1601 1.434 . S
C1603 C1604 1.369 . S
C1603 C1605 1.419 . S
C1603 H1607 0.930 . S
C1604 C1603 1.369 . S
C1604 C1613 1.429 . S
C1605 C1603 1.419 . S
C1605 C1606 1.363 . S
C1605 H1608 0.929 . S
C1606 C1605 1.363 . S
C1606 C1612 1.428 . S
H1607 C1603 0.930 . S
H1608 C1605 0.929 . S
S1609 N1610 1.613 . S
S1609 N1611 1.610 . S
N1610 S1609 1.613 . S
N1610 C1613 1.350 . S
N1611 S1609 1.610 . S
N1611 C1612 1.351 . S
C1612 C1606 1.428 . S
C1612 N1611 1.351 . S
C1612 C1613 1.434 . S
C1613 C1604 1.429 . S
C1613 N1610 1.350 . S
C1613 C1612 1.434 . S
C1614 C1615 1.369 . S
C1614 C1616 1.419 . S
C1614 H1618 0.930 . S
C1615 C1614 1.369 . S
C1615 C1624 1.429 . S
C1616 C1614 1.419 . S
C1616 C1617 1.363 . S
C1616 H1619 0.929 . S
C1617 C1616 1.363 . S
C1617 C1623 1.428 . S
H1618 C1614 0.930 . S
H1619 C1616 0.929 . S
S1620 N1621 1.613 . S
S1620 N1622 1.610 . S
N1621 S1620 1.613 . S
N1621 C1624 1.350 . S
N1622 S1620 1.610 . S
N1622 C1623 1.351 . S
C1623 C1617 1.428 . S
C1623 N1622 1.351 . S
C1623 C1624 1.434 . S
C1624 C1615 1.429 . S
C1624 N1621 1.350 . S
C1624 C1623 1.434 . S
C1625 C1626 1.369 . S
C1625 C1627 1.419 . S
C1625 H1629 0.930 . S
C1626 C1625 1.369 . S
C1626 C1635 1.429 . S
C1627 C1625 1.419 . S
C1627 C1628 1.363 . S
C1627 H1630 0.929 . S
C1628 C1627 1.363 . S
C1628 C1634 1.428 . S
H1629 C1625 0.930 . S
H1630 C1627 0.929 . S
S1631 N1632 1.613 . S
S1631 N1633 1.610 . S
N1632 S1631 1.613 . S
N1632 C1635 1.350 . S
N1633 S1631 1.610 . S
N1633 C1634 1.351 . S
C1634 C1628 1.428 . S
C1634 N1633 1.351 . S
C1634 C1635 1.434 . S
C1635 C1626 1.429 . S
C1635 N1632 1.350 . S
C1635 C1634 1.434 . S
C1636 C1637 1.369 . S
C1636 C1638 1.419 . S
C1636 H1640 0.930 . S
C1637 C1636 1.369 . S
C1637 C1646 1.429 . S
C1638 C1636 1.419 . S
C1638 C1639 1.363 . S
C1638 H1641 0.929 . S
C1639 C1638 1.363 . S
C1639 C1645 1.428 . S
H1640 C1636 0.930 . S
H1641 C1638 0.929 . S
S1642 N1643 1.613 . S
S1642 N1644 1.610 . S
N1643 S1642 1.613 . S
N1643 C1646 1.350 . S
N1644 S1642 1.610 . S
N1644 C1645 1.351 . S
C1645 C1639 1.428 . S
C1645 N1644 1.351 . S
C1645 C1646 1.434 . S
C1646 C1637 1.429 . S
C1646 N1643 1.350 . S
C1646 C1645 1.434 . S
C1647 C1648 1.369 . S
C1647 C1649 1.419 . S
C1647 H1651 0.930 . S
C1648 C1647 1.369 . S
C1648 C1657 1.429 . S
C1649 C1647 1.419 . S
C1649 C1650 1.363 . S
C1649 H1652 0.929 . S
C1650 C1649 1.363 . S
C1650 C1656 1.428 . S
H1651 C1647 0.930 . S
H1652 C1649 0.929 . S
S1653 N1654 1.613 . S
S1653 N1655 1.610 . S
N1654 S1653 1.613 . S
N1654 C1657 1.350 . S
N1655 S1653 1.610 . S
N1655 C1656 1.351 . S
C1656 C1650 1.428 . S
C1656 N1655 1.351 . S
C1656 C1657 1.434 . S
C1657 C1648 1.429 . S
C1657 N1654 1.350 . S
C1657 C1656 1.434 . S
C1658 C1659 1.369 . S
C1658 C1660 1.419 . S
C1658 H1662 0.930 . S
C1659 C1658 1.369 . S
C1659 C1668 1.429 . S
C1660 C1658 1.419 . S
C1660 C1661 1.363 . S
C1660 H1663 0.929 . S
C1661 C1660 1.363 . S
C1661 C1667 1.428 . S
H1662 C1658 0.930 . S
H1663 C1660 0.929 . S
S1664 N1665 1.613 . S
S1664 N1666 1.610 . S
N1665 S1664 1.613 . S
N1665 C1668 1.350 . S
N1666 S1664 1.610 . S
N1666 C1667 1.351 . S
C1667 C1661 1.428 . S
C1667 N1666 1.351 . S
C1667 C1668 1.434 . S
C1668 C1659 1.429 . S
C1668 N1665 1.350 . S
C1668 C1667 1.434 . S
C1669 C1670 1.369 . S
C1669 C1671 1.419 . S
C1669 H1673 0.930 . S
C1670 C1669 1.369 . S
C1670 C1679 1.429 . S
C1671 C1669 1.419 . S
C1671 C1672 1.363 . S
C1671 H1674 0.929 . S
C1672 C1671 1.363 . S
C1672 C1678 1.428 . S
H1673 C1669 0.930 . S
H1674 C1671 0.929 . S
S1675 N1676 1.613 . S
S1675 N1677 1.610 . S
N1676 S1675 1.613 . S
N1676 C1679 1.350 . S
N1677 S1675 1.610 . S
N1677 C1678 1.351 . S
C1678 C1672 1.428 . S
C1678 N1677 1.351 . S
C1678 C1679 1.434 . S
C1679 C1670 1.429 . S
C1679 N1676 1.350 . S
C1679 C1678 1.434 . S
C625 C122 1.880 . S
C627 C5 1.880 . S
C636 C135 1.880 . S
C638 C18 1.880 . S
C647 C148 1.876 . S
C649 C31 1.877 . S
C658 C109 1.878 . S
C660 C44 1.879 . S
C669 C57 1.878 . S
C671 C200 1.877 . S
C680 C70 1.879 . S
C682 C161 1.879 . S
C691 C83 1.878 . S
C693 C174 1.878 . S
C702 C187 1.876 . S
C704 C96 1.877 . S
C713 C213 1.878 . S
C715 C239 1.877 . S
C724 C226 1.877 . S
C726 C603 1.878 . S
C735 C252 1.880 . S
C737 C616 1.879 . S
C746 C265 1.876 . S
C748 C590 1.877 . S
C757 C278 1.877 . S
C759 C577 1.877 . S
C768 C538 1.879 . S
C770 C291 1.878 . S
C779 C304 1.876 . S
C781 C564 1.877 . S
C790 C434 1.880 . S
C792 C317 1.879 . S
C801 C447 1.880 . S
C803 C330 1.879 . S
C812 C460 1.880 . S
C814 C343 1.880 . S
C823 C421 1.880 . S
C825 C356 1.880 . S
C834 C512 1.876 . S
C836 C369 1.876 . S
C845 C473 1.880 . S
C847 C382 1.879 . S
C856 C395 1.877 . S
C858 C486 1.877 . S
C867 C408 1.880 . S
C869 C499 1.879 . S
C878 C525 1.880 . S
C880 C551 1.879 . S
C889 C211 1.408 . S
C891 C10 1.386 . S
C900 C614 1.414 . S
C902 C23 1.382 . S
C911 C36 1.381 . S
C913 C276 1.412 . S
C922 C601 1.407 . S
C924 C49 1.387 . S
C933 C62 1.388 . S
C935 C536 1.411 . S
C944 C549 1.412 . S
C946 C75 1.382 . S
C955 C88 1.381 . S
C957 C562 1.412 . S
C966 C263 1.407 . S
C968 C101 1.388 . S
C977 C114 1.391 . S
C979 C3 1.408 . S
C988 C16 1.410 . S
C990 C127 1.389 . S
C999 C140 1.381 . S
C1001 C29 1.414 . S
C1010 C42 1.413 . S
C1012 C153 1.385 . S
C1021 C166 1.390 . S
C1023 C55 1.408 . S
C1032 C68 1.413 . S
C1034 C179 1.382 . S
C1043 C192 1.390 . S
C1045 C81 1.408 . S
C1054 C205 1.382 . S
C1056 C94 1.410 . S
C1065 C218 1.389 . S
C1067 C107 1.408 . S
C1076 C231 1.387 . S
C1078 C471 1.408 . S
C1087 C484 1.414 . S
C1089 C244 1.382 . S
C1098 C497 1.407 . S
C1100 C257 1.388 . S
C1109 C198 1.413 . S
C1111 C270 1.385 . S
C1120 C283 1.390 . S
C1122 C133 1.409 . S
C1131 C458 1.407 . S
C1133 C296 1.388 . S
C1142 C309 1.390 . S
C1144 C432 1.408 . S
C1153 C322 1.382 . S
C1155 C523 1.414 . S
C1164 C335 1.380 . S
C1166 C302 1.413 . S
C1175 C348 1.389 . S
C1177 C588 1.410 . S
C1186 C361 1.389 . S
C1188 C289 1.410 . S
C1197 C374 1.391 . S
C1199 C224 1.408 . S
C1208 C387 1.390 . S
C1210 C237 1.408 . S
C1219 C250 1.409 . S
C1221 C400 1.384 . S
C1230 C575 1.410 . S
C1232 C413 1.384 . S
C1241 C315 1.408 . S
C1243 C426 1.386 . S
C1252 C328 1.414 . S
C1254 C439 1.383 . S
C1263 C452 1.382 . S
C1265 C341 1.414 . S
C1274 C354 1.407 . S
C1276 C465 1.387 . S
C1285 C478 1.385 . S
C1287 C367 1.409 . S
C1296 C491 1.381 . S
C1298 C380 1.412 . S
C1307 C504 1.391 . S
C1309 C393 1.408 . S
C1318 C406 1.414 . S
C1320 C517 1.384 . S
C1329 C530 1.390 . S
C1331 C419 1.409 . S
C1340 C543 1.386 . S
C1342 C159 1.408 . S
C1351 C172 1.408 . S
C1353 C556 1.389 . S
C1362 C569 1.382 . S
C1364 C185 1.410 . S
C1373 C582 1.390 . S
C1375 C510 1.408 . S
C1384 C445 1.412 . S
C1386 C595 1.382 . S
C1395 C146 1.414 . S
C1397 C608 1.382 . S
C1406 C120 1.407 . S
C1408 C621 1.388 . S
C1417 C287 1.720 . S
C1419 C1 1.717 . S
C1428 C14 1.719 . S
C1430 C521 1.718 . S
C1439 C27 1.714 . S
C1441 C300 1.722 . S
C1450 C586 1.716 . S
C1452 C40 1.720 . S
C1461 C53 1.720 . S
C1463 C235 1.717 . S
C1472 C248 1.715 . S
C1474 C66 1.721 . S
C1483 C573 1.719 . S
C1485 C79 1.717 . S
C1494 C92 1.722 . S
C1496 C222 1.716 . S
C1505 C170 1.722 . S
C1507 C105 1.715 . S
C1516 C118 1.715 . S
C1518 C183 1.721 . S
C1527 C196 1.714 . S
C1529 C131 1.722 . S
C1538 C144 1.719 . S
C1540 C157 1.718 . S
C1549 C326 1.719 . S
C1551 C209 1.718 . S
C1560 C261 1.721 . S
C1562 C391 1.716 . S
C1571 C274 1.718 . S
C1573 C352 1.719 . S
C1582 C599 1.723 . S
C1584 C313 1.715 . S
C1593 C339 1.723 . S
C1595 C612 1.715 . S
C1604 C365 1.717 . S
C1606 C547 1.719 . S
C1615 C378 1.715 . S
C1617 C560 1.721 . S
C1626 C534 1.717 . S
C1628 C404 1.719 . S
C1637 C482 1.721 . S
C1639 C417 1.717 . S
C1648 C430 1.716 . S
C1650 C495 1.720 . S
C1659 C443 1.719 . S
C1661 C508 1.717 . S
C1670 C469 1.715 . S
C1672 C456 1.720 . S
