# Generated by pormake.
# Topology rac, (4)-cn, num edge types: 1
# Building blocks:
#     Node 0, Type 0, BuildingBlock: UXUYUI_clean_sbu_0, # of connection points: 4
#     Node 1, Type 0, BuildingBlock: UXUYUI_clean_sbu_0, # of connection points: 4
#     Node 2, Type 0, BuildingBlock: UXUYUI_clean_sbu_0, # of connection points: 4
#     Node 3, Type 0, BuildingBlock: UXUYUI_clean_sbu_0, # of connection points: 4
#     Node 4, Type 0, BuildingBlock: UXUYUI_clean_sbu_0, # of connection points: 4
#     Node 5, Type 0, BuildingBlock: UXUYUI_clean_sbu_0, # of connection points: 4
#     Node 6, Type 0, BuildingBlock: UXUYUI_clean_sbu_0, # of connection points: 4
#     Node 7, Type 0, BuildingBlock: UXUYUI_clean_sbu_0, # of connection points: 4
#     Edge 8, Type (0, 0), BuildingBlock: ZUJKAS_clean_linker_0, # of connection points: 2
#     Edge 9, Type (0, 0), BuildingBlock: ZUJKAS_clean_linker_0, # of connection points: 2
#     Edge 10, Type (0, 0), BuildingBlock: ZUJKAS_clean_linker_0, # of connection points: 2
#     Edge 11, Type (0, 0), BuildingBlock: ZUJKAS_clean_linker_0, # of connection points: 2
#     Edge 12, Type (0, 0), BuildingBlock: ZUJKAS_clean_linker_0, # of connection points: 2
#     Edge 13, Type (0, 0), BuildingBlock: ZUJKAS_clean_linker_0, # of connection points: 2
#     Edge 14, Type (0, 0), BuildingBlock: ZUJKAS_clean_linker_0, # of connection points: 2
#     Edge 15, Type (0, 0), BuildingBlock: ZUJKAS_clean_linker_0, # of connection points: 2
#     Edge 16, Type (0, 0), BuildingBlock: ZUJKAS_clean_linker_0, # of connection points: 2
#     Edge 17, Type (0, 0), BuildingBlock: ZUJKAS_clean_linker_0, # of connection points: 2
#     Edge 18, Type (0, 0), BuildingBlock: ZUJKAS_clean_linker_0, # of connection points: 2
#     Edge 19, Type (0, 0), BuildingBlock: ZUJKAS_clean_linker_0, # of connection points: 2
#     Edge 20, Type (0, 0), BuildingBlock: ZUJKAS_clean_linker_0, # of connection points: 2
#     Edge 21, Type (0, 0), BuildingBlock: ZUJKAS_clean_linker_0, # of connection points: 2
#     Edge 22, Type (0, 0), BuildingBlock: ZUJKAS_clean_linker_0, # of connection points: 2
#     Edge 23, Type (0, 0), BuildingBlock: ZUJKAS_clean_linker_0, # of connection points: 2
# Relax obj value: 0.361
# Max RMSD: 0.174
# Mean RMSD: 0.174
data_MOF--net-rac--node1-UXUYUI_clean_sbu_0--edge1-ZUJKAS_clean_linker_0
_symmetry_space_group_name_H-M    P1
_symmetry_Int_Tables_number       1
_symmetry_cell_setting            triclinic
loop_
_symmetry_equiv_pos_as_xyz
'x, y, z'
_cell_length_a     68.670842
_cell_length_b     35.33701
_cell_length_c     73.986012
_cell_angle_alpha  90.003042
_cell_angle_beta   90.000594
_cell_angle_gamma 90.004848
loop_
_atom_site_label
_atom_site_type_symbol
_atom_site_fract_x
_atom_site_fract_y
_atom_site_fract_z
_atom_type_partial_charge
Li0 Li 0.4025 0.25826 0.05922 0.0
Li1 Li 0.39536 0.23163 0.08964 0.0
Li2 Li 0.37678 0.21099 0.06314 0.0
Li3 Li 0.37291 0.27321 0.07448 0.0
C4 C 0.42463 0.19447 0.07012 0.0
N5 N 0.46323 0.1756 0.07562 0.0
C6 C 0.43735 0.22047 0.07807 0.0
C7 C 0.43153 0.15886 0.06499 0.0
C8 C 0.45681 0.2104 0.08074 0.0
C9 C 0.4511 0.14986 0.06787 0.0
C10 C 0.39727 0.31663 0.09255 0.0
C11 C 0.38629 0.34783 0.11971 0.0
N12 N 0.39116 0.38184 0.11238 0.0
C13 C 0.40224 0.35189 0.08533 0.0
C14 C 0.38927 0.31456 0.1099 0.0
C15 C 0.399 0.38452 0.09556 0.0
C16 C 0.41326 0.31799 0.0386 0.0
N17 N 0.42079 0.28431 0.04402 0.0
C18 C 0.45167 0.30048 0.03107 0.0
C19 C 0.4395 0.27464 0.04002 0.0
C20 C 0.44443 0.3363 0.02608 0.0
C21 C 0.42479 0.34443 0.02964 0.0
H22 H 0.39837 0.32502 0.04199 0.0
H23 H 0.44519 0.2475 0.04415 0.0
C24 C 0.39554 0.19127 0.12239 0.0
N25 N 0.40497 0.21873 0.11298 0.0
C26 C 0.39921 0.18636 0.14082 0.0
C27 C 0.42304 0.2366 0.13925 0.0
C28 C 0.41887 0.24062 0.12088 0.0
C29 C 0.4127 0.20998 0.14959 0.0
H30 H 0.38449 0.17445 0.11577 0.0
H31 H 0.42585 0.26284 0.11321 0.0
C32 C 0.37711 0.25088 0.03089 0.0
N33 N 0.37979 0.2353 0.99437 0.0
C34 C 0.36603 0.27147 0.01847 0.0
C35 C 0.38962 0.22244 0.02473 0.0
C36 C 0.36757 0.26314 1.00007 0.0
C37 C 0.39075 0.21498 0.00621 0.0
C38 C 0.34732 0.2191 0.08815 0.0
C39 C 0.33499 0.23182 0.07439 0.0
C40 C 0.33963 0.19808 0.10246 0.0
C41 C 0.31516 0.22314 0.07516 0.0
C42 C 0.31971 0.18999 0.10274 0.0
N43 N 0.308 0.20256 0.08919 0.0
C44 C 0.36099 0.13767 0.06497 0.0
C45 C 0.34791 0.17455 0.04116 0.0
C46 C 0.34624 0.11071 0.06281 0.0
N47 N 0.3613 0.16928 0.05449 0.0
C48 C 0.333 0.14823 0.03847 0.0
C49 C 0.33162 0.11638 0.04977 0.0
H50 H 0.37142 0.13468 0.07584 0.0
H51 H 0.34777 0.20053 0.0335 0.0
C52 C 0.35461 0.34016 0.06476 0.0
N53 N 0.35555 0.31383 0.07808 0.0
C54 C 0.34281 0.37191 0.06679 0.0
C55 C 0.33322 0.34876 0.09626 0.0
C56 C 0.34516 0.31733 0.09361 0.0
C57 C 0.33198 0.37659 0.08274 0.0
H58 H 0.36315 0.33652 0.0526 0.0
H59 H 0.3464 0.29604 0.10405 0.0
O60 O 0.4054 0.20322 0.06766 0.0
O61 O 0.39988 0.28438 0.08258 0.0
O62 O 0.37579 0.25914 0.04892 0.0
O63 O 0.36692 0.22614 0.08743 0.0
H64 H 0.43238 0.24831 0.08191 0.0
H65 H 0.42183 0.13836 0.05888 0.0
H66 H 0.46683 0.23031 0.08682 0.0
H67 H 0.45664 0.12239 0.06396 0.0
H68 H 0.37998 0.34663 0.13309 0.0
H69 H 0.4085 0.35411 0.07198 0.0
H70 H 0.38499 0.28762 0.11559 0.0
H71 H 0.40272 0.41199 0.09011 0.0
H72 H 0.46664 0.29275 0.02835 0.0
H73 H 0.41856 0.37171 0.02634 0.0
H74 H 0.39108 0.16519 0.14825 0.0
H75 H 0.43336 0.25575 0.14548 0.0
H76 H 0.35633 0.29366 0.02303 0.0
H77 H 0.39837 0.20624 0.03406 0.0
H78 H 0.35905 0.27883 0.99031 0.0
H79 H 0.40034 0.19303 0.00126 0.0
H80 H 0.34065 0.24784 0.06311 0.0
H81 H 0.34896 0.18792 0.1132 0.0
H82 H 0.30548 0.23264 0.06455 0.0
H83 H 0.31358 0.17364 0.11371 0.0
H84 H 0.34585 0.08645 0.07175 0.0
H85 H 0.32189 0.15421 0.02848 0.0
H86 H 0.34203 0.39233 0.0559 0.0
H87 H 0.32529 0.35149 0.10884 0.0
Li88 Li 0.09581 0.7364 0.06719 0.0
Li89 Li 0.10167 0.76284 0.09665 0.0
Li90 Li 0.11647 0.79321 0.06819 0.0
Li91 Li 0.12764 0.73057 0.08028 0.0
C92 C 0.07049 0.79514 0.06856 0.0
N93 N 0.0341 0.80872 0.0541 0.0
C94 C 0.05398 0.77911 0.07651 0.0
C95 C 0.06853 0.81824 0.05335 0.0
C96 C 0.03569 0.78625 0.06896 0.0
C97 C 0.04999 0.82473 0.04622 0.0
C98 C 0.09396 0.68876 0.10227 0.0
C99 C 0.09378 0.65823 0.13144 0.0
N100 N 0.07493 0.64786 0.12877 0.0
C101 C 0.07457 0.67779 0.09982 0.0
C102 C 0.10367 0.67883 0.11819 0.0
C103 C 0.06522 0.65709 0.11336 0.0
C104 C 0.08447 0.66734 0.05451 0.0
N105 N 0.07881 0.70409 0.05305 0.0
C106 C 0.05233 0.68582 0.03379 0.0
C107 C 0.06324 0.71387 0.04263 0.0
C108 C 0.05776 0.64756 0.0354 0.0
C109 C 0.07417 0.63865 0.04585 0.0
H110 H 0.09706 0.66019 0.0626 0.0
H111 H 0.05926 0.74319 0.04108 0.0
C112 C 0.10493 0.79263 0.13172 0.0
N113 N 0.09275 0.77276 0.12079 0.0
C114 C 0.10156 0.79429 0.1503 0.0
C115 C 0.07237 0.75732 0.14596 0.0
C116 C 0.07616 0.75692 0.1274 0.0
C117 C 0.08556 0.77506 0.15779 0.0
H118 H 0.11772 0.80601 0.12613 0.0
H119 H 0.06635 0.74222 0.11843 0.0
C120 C 0.11828 0.73162 0.03847 0.0
N121 N 0.11003 0.70168 0.00487 0.0
C122 C 0.12479 0.69538 0.03395 0.0
C123 C 0.10773 0.7528 0.02589 0.0
C124 C 0.12043 0.6807 0.01689 0.0
C125 C 0.10367 0.73712 0.00897 0.0
C126 C 0.14662 0.78102 0.10004 0.0
C127 C 0.16171 0.80255 0.09261 0.0
C128 C 0.15016 0.75898 0.11538 0.0
C129 C 0.18014 0.80143 0.10059 0.0
C130 C 0.16879 0.75857 0.12294 0.0
N131 N 0.18327 0.77962 0.11545 0.0
C132 C 0.12769 0.86997 0.0689 0.0
C133 C 0.14042 0.8342 0.04451 0.0
C134 C 0.14121 0.89885 0.0657 0.0
N135 N 0.12796 0.83802 0.05868 0.0
C136 C 0.15415 0.86238 0.04082 0.0
C137 C 0.15521 0.89458 0.05195 0.0
H138 H 0.11805 0.87171 0.08044 0.0
H139 H 0.14081 0.80794 0.03702 0.0
C140 C 0.14852 0.66491 0.08959 0.0
N141 N 0.14989 0.69977 0.08198 0.0
C142 C 0.16488 0.64169 0.09062 0.0
C143 C 0.18366 0.69067 0.07582 0.0
C144 C 0.16689 0.71277 0.07492 0.0
C145 C 0.18272 0.65461 0.0837 0.0
H146 H 0.13469 0.65498 0.09466 0.0
H147 H 0.16735 0.74023 0.06848 0.0
O148 O 0.08845 0.78915 0.07594 0.0
O149 O 0.10342 0.70902 0.08915 0.0
O150 O 0.12186 0.74599 0.05529 0.0
O151 O 0.12854 0.78116 0.09224 0.0
H152 H 0.05529 0.76122 0.08831 0.0
H153 H 0.0812 0.83104 0.04715 0.0
H154 H 0.02278 0.77392 0.07491 0.0
H155 H 0.04823 0.84249 0.03442 0.0
H156 H 0.1011 0.65052 0.14385 0.0
H157 H 0.06668 0.68567 0.08775 0.0
H158 H 0.11864 0.68711 0.12036 0.0
H159 H 0.0502 0.64857 0.11168 0.0
H160 H 0.03992 0.69399 0.02565 0.0
H161 H 0.07883 0.60961 0.04765 0.0
H162 H 0.11177 0.80954 0.15875 0.0
H163 H 0.0598 0.74214 0.15099 0.0
H164 H 0.13293 0.67864 0.04361 0.0
H165 H 0.10256 0.78087 0.02925 0.0
H166 H 0.12525 0.65259 0.01323 0.0
H167 H 0.09541 0.75306 0.99913 0.0
H168 H 0.15933 0.81964 0.0807 0.0
H169 H 0.13866 0.74219 0.12131 0.0
H170 H 0.19197 0.81782 0.09493 0.0
H171 H 0.17174 0.74149 0.13476 0.0
H172 H 0.14134 0.92333 0.0745 0.0
H173 H 0.16478 0.85754 0.03026 0.0
H174 H 0.16361 0.61401 0.0968 0.0
H175 H 0.1971 0.70127 0.07005 0.0
Li176 Li 0.37735 0.22099 0.42399 0.0
Li177 Li 0.38192 0.28876 0.43073 0.0
Li178 Li 0.39811 0.25975 0.40364 0.0
Li179 Li 0.40905 0.24545 0.4347 0.0
C180 C 0.35798 0.2707 0.39514 0.0
N181 N 0.33385 0.28356 0.36591 0.0
C182 C 0.35046 0.30686 0.392 0.0
C183 C 0.35309 0.24101 0.38352 0.0
C184 C 0.33831 0.31281 0.37712 0.0
C185 C 0.34091 0.24811 0.36878 0.0
C186 C 0.37539 0.2557 0.46315 0.0
C187 C 0.37502 0.29556 0.4896 0.0
N188 N 0.35773 0.28 0.49462 0.0
C189 C 0.3577 0.23986 0.46864 0.0
C190 C 0.38421 0.28356 0.47376 0.0
C191 C 0.34897 0.25262 0.48457 0.0
C192 C 0.36329 0.14642 0.43042 0.0
N193 N 0.35854 0.18239 0.42563 0.0
C194 C 0.32471 0.16719 0.42566 0.0
C195 C 0.33972 0.1932 0.42333 0.0
C196 C 0.32918 0.12978 0.4304 0.0
C197 C 0.34873 0.1193 0.43265 0.0
H198 H 0.37826 0.13896 0.43296 0.0
H199 H 0.33636 0.2223 0.42008 0.0
C200 C 0.36986 0.36687 0.43782 0.0
N201 N 0.36531 0.3294 0.43817 0.0
C202 C 0.35535 0.39409 0.44104 0.0
C203 C 0.33214 0.3435 0.44537 0.0
C204 C 0.34689 0.31752 0.44177 0.0
C205 C 0.33617 0.38238 0.44481 0.0
H206 H 0.3845 0.37564 0.43443 0.0
H207 H 0.34346 0.28769 0.44114 0.0
C208 C 0.40515 0.17375 0.4086 0.0
N209 N 0.40769 0.09964 0.39691 0.0
C210 C 0.4149 0.14678 0.41906 0.0
C211 C 0.39677 0.16304 0.39216 0.0
C212 C 0.41601 0.10946 0.41292 0.0
C213 C 0.39818 0.12543 0.3865 0.0
C214 C 0.42808 0.30641 0.42528 0.0
C215 C 0.44252 0.30034 0.41229 0.0
C216 C 0.43306 0.32211 0.44199 0.0
C217 C 0.4618 0.30968 0.41634 0.0
C218 C 0.45251 0.33104 0.44552 0.0
N219 N 0.46636 0.32466 0.43274 0.0
C220 C 0.39612 0.2898 0.36783 0.0
C221 C 0.41858 0.23973 0.37215 0.0
C222 C 0.39927 0.28893 0.34918 0.0
N223 N 0.40525 0.26455 0.3788 0.0
C224 C 0.42228 0.23804 0.35361 0.0
C225 C 0.41217 0.26218 0.34181 0.0
H226 H 0.38597 0.30992 0.37347 0.0
H227 H 0.42586 0.2203 0.38119 0.0
C228 C 0.42781 0.21489 0.46537 0.0
N229 N 0.43078 0.22659 0.44808 0.0
C230 C 0.44076 0.1895 0.4735 0.0
C231 C 0.46018 0.19051 0.44628 0.0
C232 C 0.44688 0.21589 0.43869 0.0
C233 C 0.45677 0.1757 0.46364 0.0
H234 H 0.41457 0.2227 0.47233 0.0
H235 H 0.4485 0.22431 0.42472 0.0
O236 O 0.36996 0.2644 0.40959 0.0
O237 O 0.38401 0.24396 0.44747 0.0
O238 O 0.40395 0.21047 0.41437 0.0
O239 O 0.40918 0.29691 0.42167 0.0
H240 H 0.3541 0.33017 0.40086 0.0
H241 H 0.35854 0.21276 0.38591 0.0
H242 H 0.33246 0.34068 0.37448 0.0
H243 H 0.33704 0.22541 0.35965 0.0
H244 H 0.38163 0.31724 0.4979 0.0
H245 H 0.35073 0.21813 0.46063 0.0
H246 H 0.39795 0.29588 0.46975 0.0
H247 H 0.33522 0.24078 0.48894 0.0
H248 H 0.30976 0.17623 0.42381 0.0
H249 H 0.35266 0.0908 0.43662 0.0
H250 H 0.35899 0.42388 0.44037 0.0
H251 H 0.31751 0.33323 0.44777 0.0
H252 H 0.4213 0.15439 0.4319 0.0
H253 H 0.38932 0.18356 0.38383 0.0
H254 H 0.42344 0.08828 0.42092 0.0
H255 H 0.39174 0.11676 0.37382 0.0
H256 H 0.4389 0.28828 0.39928 0.0
H257 H 0.42202 0.32734 0.45211 0.0
H258 H 0.47315 0.30494 0.40645 0.0
H259 H 0.45659 0.34307 0.45842 0.0
H260 H 0.39145 0.30854 0.34058 0.0
H261 H 0.4323 0.21691 0.34851 0.0
H262 H 0.43738 0.17856 0.4868 0.0
H263 H 0.4724 0.18093 0.43824 0.0
Li264 Li 0.11786 0.70498 0.43891 0.0
Li265 Li 0.12525 0.76947 0.43277 0.0
Li266 Li 0.09362 0.75567 0.44397 0.0
Li267 Li 0.10295 0.73783 0.41225 0.0
C268 C 0.11602 0.73451 0.47372 0.0
N269 N 0.10992 0.7076 0.50831 0.0
C270 C 0.12766 0.7472 0.48798 0.0
C271 C 0.10128 0.70816 0.47705 0.0
C272 C 0.12435 0.73325 0.50538 0.0
C273 C 0.09842 0.69489 0.49463 0.0
C274 C 0.14957 0.7148 0.41626 0.0
C275 C 0.17596 0.68362 0.40075 0.0
N276 N 0.1874 0.68817 0.4156 0.0
C277 C 0.16161 0.71926 0.43136 0.0
C278 C 0.15679 0.6969 0.40082 0.0
C279 C 0.18068 0.70558 0.43076 0.0
C280 C 0.13315 0.63324 0.43126 0.0
N281 N 0.13101 0.65843 0.44502 0.0
C282 C 0.1565 0.62806 0.46169 0.0
C283 C 0.14199 0.65566 0.46029 0.0
C284 C 0.16003 0.60356 0.44711 0.0
C285 C 0.14771 0.60557 0.43198 0.0
H286 H 0.12468 0.63673 0.41903 0.0
H287 H 0.14077 0.67665 0.47078 0.0
C288 C 0.14618 0.82793 0.44887 0.0
N289 N 0.145 0.80639 0.43372 0.0
C290 C 0.16035 0.856 0.45025 0.0
C291 C 0.17187 0.83874 0.42045 0.0
C292 C 0.15735 0.81128 0.41959 0.0
C293 C 0.17349 0.86158 0.43594 0.0
H294 H 0.13596 0.8235 0.45979 0.0
H295 H 0.15591 0.79384 0.40765 0.0
C296 C 0.07089 0.69419 0.43035 0.0
N297 N 0.03236 0.67184 0.4288 0.0
C298 C 0.05798 0.71223 0.41858 0.0
C299 C 0.06427 0.6644 0.44116 0.0
C300 C 0.03854 0.70065 0.41804 0.0
C301 C 0.04472 0.65361 0.44023 0.0
C302 C 0.10447 0.82499 0.42009 0.0
C303 C 0.10082 0.85234 0.43331 0.0
C304 C 0.11332 0.83555 0.40384 0.0
C305 C 0.10617 0.88988 0.43007 0.0
C306 C 0.11847 0.87337 0.40113 0.0
N307 N 0.11482 0.89952 0.41419 0.0
C308 C 0.0764 0.79427 0.47425 0.0
C309 C 0.0573 0.79193 0.44766 0.0
C310 C 0.06403 0.82156 0.48173 0.0
N311 N 0.07306 0.78042 0.45735 0.0
C312 C 0.04454 0.8191 0.45463 0.0
C313 C 0.04819 0.83531 0.47165 0.0
H314 H 0.08944 0.78664 0.48148 0.0
H315 H 0.0554 0.78228 0.43394 0.0
C316 C 0.10045 0.70472 0.37725 0.0
N317 N 0.09498 0.73455 0.3877 0.0
C318 C 0.09635 0.70469 0.35872 0.0
C319 C 0.08085 0.76569 0.36222 0.0
C320 C 0.08507 0.76438 0.38065 0.0
C321 C 0.08678 0.73587 0.35096 0.0
H322 H 0.10847 0.68153 0.38323 0.0
H323 H 0.08082 0.78763 0.38929 0.0
O324 O 0.11919 0.74797 0.45664 0.0
O325 O 0.13057 0.72645 0.41678 0.0
O326 O 0.09005 0.7048 0.43098 0.0
O327 O 0.09983 0.78792 0.42321 0.0
H328 H 0.13915 0.76759 0.48561 0.0
H329 H 0.09211 0.6982 0.46622 0.0
H330 H 0.13325 0.7428 0.51655 0.0
H331 H 0.08705 0.67451 0.4974 0.0
H332 H 0.18172 0.66956 0.38891 0.0
H333 H 0.1562 0.73263 0.44352 0.0
H334 H 0.14761 0.69298 0.38907 0.0
H335 H 0.1901 0.70862 0.44239 0.0
H336 H 0.16583 0.62788 0.47349 0.0
H337 H 0.14989 0.58712 0.42047 0.0
H338 H 0.16084 0.87337 0.4623 0.0
H339 H 0.18184 0.84171 0.4092 0.0
H340 H 0.06285 0.73522 0.41009 0.0
H341 H 0.07413 0.64962 0.45012 0.0
H342 H 0.02837 0.71458 0.40908 0.0
H343 H 0.03938 0.63068 0.44855 0.0
H344 H 0.09413 0.84465 0.44602 0.0
H345 H 0.11649 0.81464 0.39357 0.0
H346 H 0.10351 0.91131 0.44021 0.0
H347 H 0.12545 0.88191 0.38867 0.0
H348 H 0.06772 0.83367 0.49473 0.0
H349 H 0.03245 0.82855 0.44639 0.0
H350 H 0.10129 0.68128 0.35046 0.0
H351 H 0.07324 0.79001 0.35679 0.0
Li352 Li 0.59959 0.74009 0.93659 0.0
Li353 Li 0.63119 0.73375 0.92192 0.0
Li354 Li 0.62097 0.79471 0.93432 0.0
Li355 Li 0.60581 0.76924 0.90684 0.0
C356 C 0.62407 0.73142 0.96393 0.0
N357 N 0.6189 0.69779 0.99729 0.0
C358 C 0.63235 0.69608 0.96752 0.0
C359 C 0.61329 0.74979 0.97733 0.0
C360 C 0.62954 0.67952 0.98447 0.0
C361 C 0.6108 0.73228 0.9941 0.0
C362 C 0.59557 0.69782 0.90013 0.0
C363 C 0.59238 0.67661 0.86926 0.0
N364 N 0.57369 0.66606 0.87266 0.0
C365 C 0.57632 0.68675 0.90331 0.0
C366 C 0.60368 0.69263 0.88297 0.0
C367 C 0.56551 0.67071 0.88926 0.0
C368 C 0.56461 0.71978 0.95711 0.0
N369 N 0.58211 0.70898 0.95022 0.0
C370 C 0.57686 0.64516 0.95976 0.0
C371 C 0.58829 0.67252 0.95135 0.0
C372 C 0.55862 0.65507 0.96685 0.0
C373 C 0.55248 0.69299 0.96548 0.0
H374 H 0.5599 0.74887 0.95579 0.0
H375 H 0.60202 0.66453 0.9453 0.0
C376 C 0.66871 0.70803 0.92971 0.0
N377 N 0.65277 0.70121 0.91934 0.0
C378 C 0.68508 0.68493 0.92826 0.0
C379 C 0.6682 0.6481 0.90558 0.0
C380 C 0.65214 0.67186 0.90751 0.0
C381 C 0.68494 0.65446 0.91606 0.0
H382 H 0.66864 0.7314 0.93915 0.0
H383 H 0.6392 0.66686 0.89961 0.0
C384 C 0.58723 0.82826 0.93196 0.0
N385 N 0.57836 0.90278 0.93959 0.0
C386 C 0.58689 0.85512 0.91811 0.0
C387 C 0.58292 0.83917 0.94967 0.0
C388 C 0.5824 0.89269 0.92225 0.0
C389 C 0.57851 0.87703 0.95326 0.0
C390 C 0.65173 0.78213 0.90413 0.0
C391 C 0.66704 0.79813 0.91399 0.0
C392 C 0.65581 0.76218 0.88824 0.0
C393 C 0.68613 0.79403 0.90777 0.0
C394 C 0.6751 0.75862 0.88249 0.0
N395 N 0.68973 0.7745 0.89229 0.0
C396 C 0.64186 0.83681 0.96066 0.0
C397 C 0.63546 0.86904 0.93323 0.0
C398 C 0.65571 0.86402 0.96552 0.0
N399 N 0.63251 0.8392 0.94451 0.0
C400 C 0.64923 0.89678 0.93751 0.0
C401 C 0.66018 0.89367 0.95351 0.0
H402 H 0.63974 0.81229 0.96916 0.0
H403 H 0.62848 0.86946 0.92013 0.0
C404 C 0.57642 0.77168 0.87951 0.0
N405 N 0.59523 0.78033 0.88352 0.0
C406 C 0.56992 0.7729 0.8616 0.0
C407 C 0.60178 0.795 0.8526 0.0
C408 C 0.60765 0.7932 0.87063 0.0
C409 C 0.58285 0.78368 0.84779 0.0
H410 H 0.56674 0.76204 0.89008 0.0
H411 H 0.62239 0.80066 0.87421 0.0
O412 O 0.6263 0.74774 0.9473 0.0
O413 O 0.60631 0.71411 0.91365 0.0
O414 O 0.59192 0.7915 0.92824 0.0
O415 O 0.63296 0.78493 0.91026 0.0
H416 H 0.64066 0.6814 0.95727 0.0
H417 H 0.6068 0.77714 0.97475 0.0
H418 H 0.63576 0.65208 0.98741 0.0
H419 H 0.60241 0.74609 0.00457 0.0
H420 H 0.59843 0.67277 0.85588 0.0
H421 H 0.56968 0.69082 0.91641 0.0
H422 H 0.61842 0.70157 0.88014 0.0
H423 H 0.55059 0.66214 0.89153 0.0
H424 H 0.582 0.6162 0.96016 0.0
H425 H 0.53848 0.70174 0.97075 0.0
H426 H 0.69756 0.69046 0.93681 0.0
H427 H 0.66754 0.62516 0.89589 0.0
H428 H 0.59024 0.84711 0.90434 0.0
H429 H 0.583 0.81863 0.96051 0.0
H430 H 0.58218 0.91385 0.91168 0.0
H431 H 0.57521 0.88593 0.96691 0.0
H432 H 0.66432 0.81303 0.92648 0.0
H433 H 0.64424 0.749 0.88058 0.0
H434 H 0.69809 0.80615 0.91531 0.0
H435 H 0.67844 0.74307 0.87029 0.0
H436 H 0.66357 0.8607 0.9781 0.0
H437 H 0.65231 0.91865 0.92767 0.0
H438 H 0.5551 0.76455 0.85855 0.0
H439 H 0.6123 0.80333 0.84246 0.0
Li440 Li 0.90757 0.2544 0.93522 0.0
Li441 Li 0.87931 0.27672 0.91668 0.0
Li442 Li 0.88105 0.2118 0.92585 0.0
Li443 Li 0.90223 0.23433 0.90247 0.0
C444 C 0.868 0.24548 0.9551 0.0
N445 N 0.84342 0.21775 0.9815 0.0
C446 C 0.84795 0.25181 0.95393 0.0
C447 C 0.87559 0.22534 0.96975 0.0
C448 C 0.83576 0.23746 0.9674 0.0
C449 C 0.86291 0.2115 0.98295 0.0
C450 C 0.90756 0.32332 0.90849 0.0
C451 C 0.89936 0.37499 0.88856 0.0
N452 N 0.90641 0.39993 0.90094 0.0
C453 C 0.91479 0.3495 0.92098 0.0
C454 C 0.89987 0.33618 0.8921 0.0
C455 C 0.91407 0.38808 0.91691 0.0
C456 C 0.94504 0.27568 0.94688 0.0
N457 N 0.92602 0.27419 0.95192 0.0
C458 C 0.93155 0.31979 0.97524 0.0
C459 C 0.91924 0.29471 0.96612 0.0
C460 C 0.95098 0.32401 0.96955 0.0
C461 C 0.95786 0.30038 0.95563 0.0
H462 H 0.94988 0.25984 0.9352 0.0
H463 H 0.9039 0.29401 0.96942 0.0
C464 C 0.84844 0.31804 0.90107 0.0
N465 N 0.86236 0.3182 0.9141 0.0
C466 C 0.83551 0.34826 0.8996 0.0
C467 C 0.85148 0.37805 0.92506 0.0
C468 C 0.86404 0.34716 0.92608 0.0
C469 C 0.83691 0.37869 0.91175 0.0
H470 H 0.84722 0.29423 0.89199 0.0
H471 H 0.87504 0.34599 0.93653 0.0
C472 C 0.91233 0.16794 0.93145 0.0
N473 N 0.91729 0.0972 0.94661 0.0
C474 C 0.90773 0.1355 0.92153 0.0
C475 C 0.91956 0.16448 0.94903 0.0
C476 C 0.9103 0.09997 0.92945 0.0
C477 C 0.92195 0.12843 0.95646 0.0
C478 C 0.86976 0.21702 0.88546 0.0
C479 C 0.86673 0.17809 0.88351 0.0
C480 C 0.8694 0.2403 0.87018 0.0
C481 C 0.86337 0.16314 0.86631 0.0
C482 C 0.86609 0.22423 0.8532 0.0
N483 N 0.86316 0.18631 0.85163 0.0
C484 C 0.84491 0.17793 0.92533 0.0
C485 C 0.86552 0.14452 0.94539 0.0
C486 C 0.82957 0.15329 0.92891 0.0
N487 N 0.86264 0.17283 0.93317 0.0
C488 C 0.85042 0.1191 0.94945 0.0
C489 C 0.8322 0.12305 0.94094 0.0
H490 H 0.84259 0.20152 0.9163 0.0
H491 H 0.87936 0.14179 0.95216 0.0
C492 C 0.92375 0.25454 0.87155 0.0
N493 N 0.91499 0.22472 0.87983 0.0
C494 C 0.92961 0.25188 0.85354 0.0
C495 C 0.91866 0.18692 0.85323 0.0
C496 C 0.91321 0.19073 0.87135 0.0
C497 C 0.92642 0.21817 0.84395 0.0
H498 H 0.92541 0.281 0.87864 0.0
H499 H 0.90658 0.16717 0.87831 0.0
O500 O 0.88008 0.25818 0.94176 0.0
O501 O 0.90775 0.2854 0.91237 0.0
O502 O 0.91022 0.20293 0.92386 0.0
O503 O 0.87329 0.2322 0.90218 0.0
H504 H 0.84188 0.26725 0.94261 0.0
H505 H 0.89108 0.2201 0.97077 0.0
H506 H 0.82019 0.24189 0.96661 0.0
H507 H 0.86855 0.19564 0.99431 0.0
H508 H 0.89332 0.38529 0.87598 0.0
H509 H 0.92081 0.34029 0.93371 0.0
H510 H 0.89413 0.31642 0.88231 0.0
H511 H 0.91955 0.40862 0.92649 0.0
H512 H 0.9255 0.3377 0.9857 0.0
H513 H 0.97277 0.3023 0.95094 0.0
H514 H 0.82451 0.3478 0.88911 0.0
H515 H 0.85281 0.40066 0.93486 0.0
H516 H 0.90212 0.13776 0.90791 0.0
H517 H 0.92329 0.18937 0.95682 0.0
H518 H 0.90672 0.0746 0.92198 0.0
H519 H 0.92748 0.12528 0.97007 0.0
H520 H 0.86731 0.15945 0.89508 0.0
H521 H 0.87185 0.2704 0.87136 0.0
H522 H 0.86109 0.13306 0.86461 0.0
H523 H 0.86592 0.24189 0.84126 0.0
H524 H 0.81564 0.15823 0.92245 0.0
H525 H 0.85304 0.09639 0.95897 0.0
H526 H 0.93552 0.27668 0.84691 0.0
H527 H 0.91623 0.16024 0.8464 0.0
Li528 Li 0.59685 0.73641 0.59786 0.0
Li529 Li 0.6157 0.71285 0.57176 0.0
Li530 Li 0.62087 0.77547 0.58199 0.0
Li531 Li 0.59117 0.761 0.56563 0.0
C532 C 0.64249 0.73441 0.60388 0.0
N533 N 0.6781 0.74923 0.61978 0.0
C534 C 0.65971 0.72248 0.59554 0.0
C535 C 0.6434 0.75364 0.62036 0.0
C536 C 0.67756 0.73028 0.60379 0.0
C537 C 0.66154 0.76094 0.62816 0.0
C538 C 0.58459 0.67265 0.57023 0.0
C539 C 0.58331 0.62677 0.54616 0.0
N540 N 0.5824 0.59853 0.55863 0.0
C541 C 0.58358 0.64326 0.58282 0.0
C542 C 0.5844 0.66447 0.55176 0.0
C543 C 0.5825 0.60593 0.57668 0.0
C544 C 0.56866 0.74181 0.62588 0.0
N545 N 0.58591 0.72609 0.62091 0.0
C546 C 0.59199 0.70588 0.65118 0.0
C547 C 0.59726 0.70734 0.63298 0.0
C548 C 0.57484 0.72388 0.65701 0.0
C549 C 0.5628 0.74103 0.64398 0.0
H550 H 0.56003 0.75687 0.61598 0.0
H551 H 0.61098 0.69535 0.62865 0.0
C552 C 0.63962 0.66904 0.54796 0.0
N553 N 0.63019 0.66936 0.56412 0.0
C554 C 0.65426 0.64233 0.5446 0.0
C555 C 0.64845 0.61576 0.5742 0.0
C556 C 0.63394 0.64284 0.57696 0.0
C557 C 0.65932 0.61608 0.5581 0.0
H558 H 0.63667 0.69094 0.53815 0.0
H559 H 0.62657 0.64432 0.58987 0.0
C560 C 0.59077 0.82066 0.59899 0.0
N561 N 0.58353 0.88453 0.61954 0.0
C562 C 0.58348 0.85348 0.59086 0.0
C563 C 0.59433 0.82042 0.61761 0.0
C564 C 0.57995 0.88545 0.60147 0.0
C565 C 0.59058 0.85295 0.62775 0.0
C566 C 0.62148 0.78774 0.54466 0.0
C567 C 0.61599 0.82449 0.54944 0.0
C568 C 0.63013 0.78125 0.52784 0.0
C569 C 0.61907 0.85409 0.53727 0.0
C570 C 0.63297 0.81161 0.51603 0.0
N571 N 0.62742 0.84709 0.52095 0.0
C572 C 0.65745 0.80473 0.57504 0.0
C573 C 0.63964 0.8437 0.5952 0.0
C574 C 0.67322 0.82949 0.57556 0.0
N575 N 0.6411 0.81212 0.58478 0.0
C576 C 0.65496 0.86952 0.59593 0.0
C577 C 0.67197 0.86247 0.58601 0.0
H578 H 0.65818 0.77956 0.56675 0.0
H579 H 0.62667 0.84925 0.60286 0.0
C580 C 0.55648 0.79996 0.56019 0.0
N581 N 0.57168 0.78487 0.55089 0.0
C582 C 0.54448 0.82703 0.55213 0.0
C583 C 0.56291 0.82021 0.52452 0.0
C584 C 0.5745 0.79301 0.53311 0.0
C585 C 0.54817 0.83884 0.5343 0.0
H586 H 0.55455 0.793 0.57431 0.0
H587 H 0.58656 0.78045 0.5259 0.0
O588 O 0.62488 0.72775 0.59582 0.0
O589 O 0.58617 0.70926 0.57596 0.0
O590 O 0.59397 0.78878 0.58886 0.0
O591 O 0.61865 0.7582 0.55637 0.0
H592 H 0.65935 0.7079 0.5827 0.0
H593 H 0.63025 0.76305 0.62702 0.0
H594 H 0.69099 0.72143 0.59743 0.0
H595 H 0.66245 0.77597 0.64088 0.0
H596 H 0.58325 0.61995 0.53191 0.0
H597 H 0.58382 0.64924 0.59718 0.0
H598 H 0.58528 0.68701 0.54188 0.0
H599 H 0.58179 0.58284 0.58626 0.0
H600 H 0.60187 0.69275 0.6607 0.0
H601 H 0.54935 0.75485 0.64782 0.0
H602 H 0.66235 0.64384 0.53206 0.0
H603 H 0.65168 0.59578 0.58489 0.0
H604 H 0.58059 0.85441 0.5765 0.0
H605 H 0.60018 0.79562 0.62416 0.0
H606 H 0.57434 0.91101 0.59533 0.0
H607 H 0.59333 0.85311 0.64215 0.0
H608 H 0.60944 0.83013 0.5624 0.0
H609 H 0.63454 0.75305 0.52391 0.0
H610 H 0.61483 0.88262 0.54081 0.0
H611 H 0.63959 0.80695 0.50295 0.0
H612 H 0.68606 0.82334 0.56759 0.0
H613 H 0.65358 0.89463 0.60424 0.0
H614 H 0.53299 0.83983 0.56007 0.0
H615 H 0.56634 0.82827 0.51077 0.0
Li616 Li 0.8784 0.29318 0.56643 0.0
Li617 Li 0.89679 0.26326 0.59192 0.0
Li618 Li 0.90435 0.24762 0.56025 0.0
Li619 Li 0.87454 0.2274 0.57309 0.0
C620 C 0.91154 0.33286 0.5796 0.0
N621 N 0.92039 0.40248 0.5945 0.0
C622 C 0.90003 0.34772 0.59348 0.0
C623 C 0.92756 0.35338 0.57332 0.0
C624 C 0.90475 0.38295 0.60084 0.0
C625 C 0.93178 0.38856 0.58101 0.0
C626 C 0.85292 0.25734 0.59847 0.0
C627 C 0.83953 0.21584 0.62119 0.0
N628 N 0.8213 0.2275 0.61666 0.0
C629 C 0.83406 0.26905 0.59411 0.0
C630 C 0.85571 0.23063 0.61217 0.0
C631 C 0.81826 0.25358 0.60344 0.0
C632 C 0.84509 0.32331 0.55175 0.0
N633 N 0.8624 0.33503 0.55872 0.0
C634 C 0.85152 0.39944 0.55813 0.0
C635 C 0.86608 0.37247 0.56141 0.0
C636 C 0.83316 0.38779 0.55178 0.0
C637 C 0.83027 0.34922 0.54813 0.0
H638 H 0.84245 0.2934 0.54985 0.0
H639 H 0.87998 0.3815 0.56662 0.0
C640 C 0.92362 0.25221 0.62072 0.0
N641 N 0.90616 0.26763 0.61611 0.0
C642 C 0.92907 0.2496 0.63891 0.0
C643 C 0.89882 0.28006 0.64711 0.0
C644 C 0.89403 0.28229 0.62883 0.0
C645 C 0.9163 0.26268 0.65238 0.0
H646 H 0.93293 0.24058 0.61032 0.0
H647 H 0.8802 0.2943 0.62486 0.0
C648 C 0.8793 0.26479 0.53199 0.0
N649 N 0.88175 0.2944 0.4975 0.0
C650 C 0.86739 0.25074 0.51823 0.0
C651 C 0.89242 0.29402 0.52823 0.0
C652 C 0.86886 0.26605 0.50087 0.0
C653 C 0.89345 0.30857 0.5107 0.0
C654 C 0.90711 0.17784 0.57654 0.0
C655 C 0.89975 0.15965 0.56121 0.0
C656 C 0.92177 0.16048 0.58667 0.0
C657 C 0.90724 0.12441 0.55624 0.0
C658 C 0.92889 0.12522 0.58125 0.0
N659 N 0.92155 0.10809 0.56626 0.0
C660 C 0.94238 0.22159 0.55409 0.0
C661 C 0.92099 0.21048 0.52954 0.0
C662 C 0.95575 0.19551 0.54713 0.0
N663 N 0.92509 0.22754 0.54559 0.0
C664 C 0.93403 0.18454 0.52201 0.0
C665 C 0.95131 0.17555 0.53121 0.0
H666 H 0.94503 0.23451 0.56712 0.0
H667 H 0.90689 0.21406 0.52336 0.0
C668 C 0.83927 0.19278 0.56394 0.0
N669 N 0.85574 0.18845 0.57387 0.0
C670 C 0.82454 0.16569 0.56484 0.0
C671 C 0.84426 0.13 0.58591 0.0
C672 C 0.85848 0.15795 0.58475 0.0
C673 C 0.82693 0.13378 0.57597 0.0
H674 H 0.83746 0.21768 0.5556 0.0
H675 H 0.87161 0.1556 0.59274 0.0
O676 O 0.90756 0.29803 0.57242 0.0
O677 O 0.86857 0.27135 0.58916 0.0
O678 O 0.8778 0.25014 0.54905 0.0
O679 O 0.9006 0.21314 0.58123 0.0
H680 H 0.88741 0.33259 0.59831 0.0
H681 H 0.93665 0.34217 0.56263 0.0
H682 H 0.89592 0.39484 0.61153 0.0
H683 H 0.94413 0.40476 0.57627 0.0
H684 H 0.84147 0.19491 0.6317 0.0
H685 H 0.83161 0.28977 0.58361 0.0
H686 H 0.87018 0.22082 0.61555 0.0
H687 H 0.80358 0.26228 0.60015 0.0
H688 H 0.85447 0.429 0.56088 0.0
H689 H 0.81632 0.33882 0.54342 0.0
H690 H 0.94265 0.23586 0.64242 0.0
H691 H 0.8887 0.29097 0.65706 0.0
H692 H 0.8571 0.22823 0.52096 0.0
H693 H 0.90174 0.30539 0.53866 0.0
H694 H 0.85974 0.25541 0.49009 0.0
H695 H 0.90355 0.33114 0.50759 0.0
H696 H 0.88859 0.17289 0.55304 0.0
H697 H 0.92772 0.17426 0.59851 0.0
H698 H 0.90178 0.11016 0.54433 0.0
H699 H 0.94031 0.11155 0.58892 0.0
H700 H 0.96896 0.18961 0.55461 0.0
H701 H 0.92983 0.16943 0.50988 0.0
H702 H 0.81129 0.17013 0.55719 0.0
H703 H 0.84684 0.10568 0.59448 0.0
H704 H 0.31218 0.09014 0.01978 0.0
H705 H 0.28169 0.05404 0.01893 0.0
H706 H 0.28097 0.05005 0.07715 0.0
H707 H 0.31107 0.08687 0.07816 0.0
H708 H 0.27237 0.98186 0.03332 0.0
H709 H 0.22748 0.09496 0.06445 0.0
H710 H 0.25152 0.10365 0.05547 0.0
H711 H 0.24865 0.08228 0.07736 0.0
C712 C 0.30552 0.08161 0.03241 0.0
C713 C 0.31409 0.09149 0.04904 0.0
C714 C 0.28813 0.06087 0.03189 0.0
C715 C 0.27887 0.04991 0.04798 0.0
C716 C 0.28767 0.05877 0.06457 0.0
H717 H 0.17612 0.92644 0.07952 0.0
H718 H 0.20551 0.96503 0.07745 0.0
C719 C 0.30505 0.0794 0.06511 0.0
C720 C 0.25999 0.02931 0.04747 0.0
H721 H 0.21258 0.03461 0.06131 0.0
C722 C 0.25924 0.99348 0.0393 0.0
C723 C 0.24287 0.04455 0.05526 0.0
C724 C 0.24254 0.08362 0.06349 0.0
C725 C 0.24201 0.97194 0.03925 0.0
C726 C 0.22495 0.98699 0.04726 0.0
C727 C 0.22565 0.02307 0.05518 0.0
C728 C 0.20644 0.96515 0.04822 0.0
C729 C 0.2424 0.93273 0.03117 0.0
C730 C 0.19683 0.95315 0.03247 0.0
C731 C 0.17988 0.93118 0.0336 0.0
C732 C 0.17209 0.92104 0.05053 0.0
C733 C 0.18145 0.93418 0.06626 0.0
C734 C 0.19839 0.95604 0.0651 0.0
H735 H 0.25751 0.92201 0.02956 0.0
H736 H 0.23412 0.91249 0.0397 0.0
H737 H 0.23552 0.93346 0.01761 0.0
H738 H 0.20251 0.96058 0.01928 0.0
H739 H 0.17293 0.92195 0.02122 0.0
H740 H 0.18633 0.59429 0.41978 0.0
H741 H 0.21664 0.55768 0.42025 0.0
H742 H 0.20439 0.52203 0.47479 0.0
H743 H 0.17397 0.55851 0.47441 0.0
H744 H 0.24841 0.56704 0.44806 0.0
H745 H 0.21647 0.42246 0.44465 0.0
H746 H 0.20345 0.46393 0.43703 0.0
H747 H 0.20603 0.45482 0.46075 0.0
C748 C 0.18991 0.57811 0.43177 0.0
C749 C 0.17765 0.57899 0.44701 0.0
C750 C 0.20731 0.5575 0.43206 0.0
C751 C 0.2127 0.53702 0.44751 0.0
C752 C 0.20042 0.53743 0.46268 0.0
H753 H 0.30804 0.383 0.47089 0.0
H754 H 0.27903 0.42308 0.47235 0.0
C755 C 0.18309 0.55834 0.46247 0.0
C756 C 0.23139 0.51593 0.4479 0.0
H757 H 0.25046 0.42675 0.44836 0.0
C758 C 0.24892 0.53635 0.44811 0.0
C759 C 0.23196 0.47598 0.44806 0.0
C760 C 0.21352 0.45279 0.4475 0.0
C761 C 0.26705 0.51784 0.44874 0.0
C762 C 0.26767 0.47776 0.44865 0.0
C763 C 0.25006 0.45743 0.44845 0.0
C764 C 0.28631 0.45611 0.44866 0.0
C765 C 0.28531 0.54147 0.44997 0.0
C766 C 0.3003 0.46157 0.43501 0.0
C767 C 0.31705 0.43895 0.4343 0.0
C768 C 0.31996 0.40994 0.44702 0.0
C769 C 0.30617 0.40505 0.46087 0.0
C770 C 0.28956 0.42791 0.4617 0.0
H771 H 0.28222 0.57003 0.45557 0.0
H772 H 0.29647 0.52759 0.45857 0.0
H773 H 0.29146 0.54528 0.43623 0.0
H774 H 0.29796 0.48241 0.42451 0.0
H775 H 0.32725 0.44294 0.42329 0.0
H776 H 0.69571 0.87322 0.96725 0.0
H777 H 0.72525 0.91132 0.96918 0.0
H778 H 0.69439 0.00707 0.94719 0.0
H779 H 0.66448 0.96957 0.9459 0.0
H780 H 0.74435 0.94191 0.94094 0.0
H781 H 0.72372 0.05573 0.98869 0.0
H782 H 0.70967 0.01284 0.98623 0.0
H783 H 0.70689 0.0509 0.97028 0.0
C784 C 0.69497 0.90271 0.96334 0.0
C785 C 0.67757 0.9183 0.95651 0.0
C786 C 0.71198 0.92439 0.96429 0.0
C787 C 0.71206 0.96221 0.95851 0.0
C788 C 0.69465 0.97819 0.95207 0.0
H789 H 0.80717 0.09257 0.91624 0.0
H790 H 0.77896 0.05224 0.92179 0.0
C791 C 0.67758 0.95654 0.95115 0.0
C792 C 0.73067 0.98383 0.95784 0.0
H793 H 0.75242 0.06642 0.97098 0.0
C794 C 0.74615 0.96896 0.94767 0.0
C795 C 0.73318 0.01891 0.9668 0.0
C796 C 0.71755 0.03539 0.97877 0.0
C797 C 0.76378 0.98872 0.9457 0.0
C798 C 0.76592 0.02469 0.95386 0.0
C799 C 0.75072 0.039 0.96458 0.0
C800 C 0.78342 0.0486 0.95069 0.0
C801 C 0.77997 0.97085 0.93486 0.0
C802 C 0.79521 0.06052 0.96513 0.0
C803 C 0.81138 0.08393 0.962 0.0
C804 C 0.81586 0.09622 0.94439 0.0
C805 C 0.80405 0.08395 0.92999 0.0
C806 C 0.788 0.06056 0.93311 0.0
H807 H 0.77836 0.93959 0.93419 0.0
H808 H 0.77951 0.98193 0.92084 0.0
H809 H 0.79444 0.97765 0.94072 0.0
H810 H 0.79188 0.0518 0.97882 0.0
H811 H 0.82004 0.0932 0.9734 0.0
H812 H 0.68708 0.60136 0.58356 0.0
H813 H 0.71657 0.56342 0.58044 0.0
H814 H 0.70122 0.5377 0.52527 0.0
H815 H 0.67163 0.5761 0.52826 0.0
H816 H 0.72118 0.48919 0.57317 0.0
H817 H 0.75667 0.57429 0.51938 0.0
H818 H 0.73563 0.59089 0.53165 0.0
H819 H 0.73283 0.55736 0.51355 0.0
C820 C 0.68984 0.58736 0.57079 0.0
C821 C 0.67691 0.59166 0.55617 0.0
C822 C 0.7068 0.56584 0.569 0.0
C823 C 0.71133 0.54812 0.55254 0.0
C824 C 0.69833 0.55185 0.53797 0.0
H825 H 0.80589 0.393 0.52474 0.0
H826 H 0.77651 0.43249 0.52427 0.0
C827 C 0.68136 0.57365 0.53972 0.0
C828 C 0.72945 0.52518 0.55097 0.0
H829 H 0.77241 0.5172 0.52782 0.0
C830 C 0.73237 0.49541 0.56326 0.0
C831 C 0.74411 0.53324 0.53804 0.0
C832 C 0.7423 0.56588 0.525 0.0
C833 C 0.74944 0.47352 0.56297 0.0
C834 C 0.7641 0.48172 0.55014 0.0
C835 C 0.76114 0.51105 0.53765 0.0
C836 C 0.78265 0.46017 0.54969 0.0
C837 C 0.75165 0.44151 0.57631 0.0
C838 C 0.79609 0.46343 0.56391 0.0
C839 C 0.8129 0.44105 0.56419 0.0
C840 C 0.81658 0.41483 0.55029 0.0
C841 C 0.8034 0.41264 0.53574 0.0
C842 C 0.78665 0.43525 0.53541 0.0
H843 H 0.7376 0.43411 0.58287 0.0
H844 H 0.75756 0.41591 0.56955 0.0
H845 H 0.76208 0.45002 0.58703 0.0
H846 H 0.79334 0.48273 0.57499 0.0
H847 H 0.82262 0.44321 0.57568 0.0
H848 H 0.44606 0.21542 0.16993 0.0
H849 H 0.44854 0.22037 0.20291 0.0
H850 H 0.38613 0.21024 0.2073 0.0
H851 H 0.38356 0.20507 0.17453 0.0
H852 H 0.433 0.2747 0.22452 0.0
H853 H 0.40391 0.13499 0.2448 0.0
H854 H 0.41124 0.1453 0.2219 0.0
H855 H 0.38764 0.1597 0.22997 0.0
C856 C 0.4329 0.21385 0.17796 0.0
C857 C 0.41463 0.20951 0.16961 0.0
C858 C 0.43434 0.21662 0.19679 0.0
C859 C 0.41756 0.21503 0.20761 0.0
C860 C 0.39934 0.21043 0.1993 0.0
H861 H 0.38316 0.26212 0.31661 0.0
H862 H 0.38603 0.2512 0.28407 0.0
C863 C 0.39789 0.20747 0.18053 0.0
C864 C 0.41884 0.22064 0.22746 0.0
H865 H 0.4047 0.18278 0.26786 0.0
C866 C 0.42708 0.25435 0.23402 0.0
C867 C 0.41113 0.19405 0.23985 0.0
C868 C 0.40317 0.15632 0.23379 0.0
C869 C 0.42709 0.26284 0.25257 0.0
C870 C 0.41874 0.23685 0.26483 0.0
C871 C 0.41095 0.20275 0.25836 0.0
C872 C 0.41736 0.24504 0.28441 0.0
C873 C 0.4354 0.30005 0.25892 0.0
C874 C 0.43406 0.24528 0.29532 0.0
C875 C 0.43248 0.25154 0.31394 0.0
C876 C 0.41416 0.25782 0.32192 0.0
C877 C 0.3975 0.258 0.31085 0.0
C878 C 0.39909 0.25147 0.29229 0.0
H879 H 0.43873 0.31939 0.24749 0.0
H880 H 0.42506 0.31435 0.26822 0.0
H881 H 0.44907 0.29475 0.26651 0.0
H882 H 0.44827 0.24005 0.28948 0.0
H883 H 0.44557 0.25138 0.3221 0.0
H884 H 0.09461 0.79598 0.32915 0.0
H885 H 0.09086 0.80021 0.29641 0.0
H886 H 0.06866 0.68601 0.29511 0.0
H887 H 0.07292 0.68131 0.32797 0.0
H888 H 0.09444 0.69585 0.26934 0.0
H889 H 0.0431 0.81591 0.26661 0.0
H890 H 0.06453 0.82835 0.27908 0.0
H891 H 0.04869 0.7916 0.28742 0.0
C892 C 0.08868 0.77194 0.32192 0.0
C893 C 0.08389 0.73842 0.33112 0.0
C894 C 0.08644 0.77447 0.3032 0.0
C895 C 0.079 0.7438 0.29331 0.0
C896 C 0.07427 0.71018 0.30247 0.0
H897 H 0.05187 0.7736 0.17812 0.0
H898 H 0.04887 0.76281 0.21067 0.0
C899 C 0.07674 0.70746 0.32121 0.0
C900 C 0.0773 0.74623 0.27331 0.0
H901 H 0.06069 0.80264 0.23913 0.0
C902 C 0.08684 0.71894 0.26275 0.0
C903 C 0.06704 0.77588 0.26463 0.0
C904 C 0.05509 0.80431 0.27504 0.0
C905 C 0.08714 0.7214 0.24381 0.0
C906 C 0.07819 0.7527 0.23522 0.0
C907 C 0.06787 0.77903 0.24572 0.0
C908 C 0.07991 0.75926 0.21545 0.0
C909 C 0.09701 0.69029 0.23326 0.0
C910 C 0.09834 0.76165 0.20734 0.0
C911 C 0.1001 0.76714 0.18874 0.0
C912 C 0.08347 0.77124 0.17778 0.0
C913 C 0.065 0.76998 0.18604 0.0
C914 C 0.06325 0.76406 0.20468 0.0
H915 H 0.097 0.66323 0.24091 0.0
H916 H 0.08979 0.68553 0.22002 0.0
H917 H 0.11241 0.69823 0.23078 0.0
H918 H 0.11143 0.7591 0.21541 0.0
H919 H 0.11457 0.76735 0.18294 0.0
H920 H 0.59169 0.83238 0.82012 0.0
H921 H 0.58625 0.82263 0.78777 0.0
H922 H 0.55631 0.71807 0.79913 0.0
H923 H 0.56196 0.72719 0.83148 0.0
H924 H 0.60059 0.7581 0.76891 0.0
H925 H 0.52031 0.77287 0.76224 0.0
H926 H 0.53369 0.79144 0.78132 0.0
H927 H 0.52855 0.74172 0.77988 0.0
C928 C 0.58381 0.80744 0.81576 0.0
C929 C 0.57731 0.78052 0.82841 0.0
C930 C 0.58064 0.80202 0.79728 0.0
C931 C 0.57075 0.76979 0.79108 0.0
C932 C 0.56366 0.74349 0.80366 0.0
H933 H 0.58003 0.67101 0.68381 0.0
H934 H 0.57767 0.68095 0.71649 0.0
C935 C 0.56687 0.74881 0.82216 0.0
C936 C 0.56943 0.76213 0.77143 0.0
H937 H 0.53748 0.75085 0.73642 0.0
C938 C 0.58679 0.75657 0.7618 0.0
C939 C 0.55141 0.76029 0.76221 0.0
C940 C 0.53239 0.76717 0.77185 0.0
C941 C 0.58664 0.7489 0.7432 0.0
C942 C 0.56863 0.74641 0.73403 0.0
C943 C 0.55124 0.75239 0.74357 0.0
C944 C 0.56781 0.73889 0.71436 0.0
C945 C 0.60577 0.74403 0.73343 0.0
C946 C 0.56244 0.76781 0.70239 0.0
C947 C 0.5639 0.76236 0.68372 0.0
C948 C 0.57068 0.72775 0.67668 0.0
C949 C 0.57508 0.69819 0.68876 0.0
C950 C 0.57367 0.70375 0.70743 0.0
H951 H 0.61832 0.75366 0.74172 0.0
H952 H 0.60792 0.71366 0.73018 0.0
H953 H 0.60572 0.76004 0.72051 0.0
H954 H 0.55791 0.79516 0.70751 0.0
H955 H 0.56064 0.78592 0.67487 0.0
H956 H 0.95058 0.27417 0.67074 0.0
H957 H 0.95686 0.263 0.70304 0.0
H958 H 0.8977 0.22485 0.70997 0.0
H959 H 0.89134 0.23576 0.67789 0.0
H960 H 0.93333 0.29663 0.73343 0.0
H961 H 0.93362 0.13947 0.73213 0.0
H962 H 0.93831 0.16786 0.71227 0.0
H963 H 0.91383 0.16173 0.72027 0.0
C964 C 0.93898 0.26319 0.67916 0.0
C965 C 0.92044 0.25603 0.67182 0.0
C966 C 0.94257 0.25691 0.69756 0.0
C967 C 0.92779 0.24276 0.70879 0.0
C968 C 0.90935 0.23541 0.70147 0.0
H969 H 0.90189 0.18936 0.81848 0.0
H970 H 0.90475 0.19424 0.78564 0.0
C971 C 0.9057 0.242 0.68319 0.0
C972 C 0.93118 0.23688 0.72834 0.0
H973 H 0.93128 0.16869 0.76101 0.0
C974 C 0.9332 0.26869 0.7395 0.0
C975 C 0.93085 0.20037 0.73612 0.0
C976 C 0.92919 0.16529 0.72461 0.0
C977 C 0.93399 0.26508 0.7584 0.0
C978 C 0.93326 0.22853 0.76626 0.0
C979 C 0.93186 0.19666 0.75499 0.0
C980 C 0.9326 0.22295 0.78615 0.0
C981 C 0.93457 0.30054 0.76977 0.0
C982 C 0.94758 0.23641 0.79735 0.0
C983 C 0.94594 0.23377 0.81616 0.0
C984 C 0.92942 0.21705 0.82408 0.0
C985 C 0.9149 0.20198 0.81279 0.0
C986 C 0.91647 0.20492 0.79402 0.0
H987 H 0.93032 0.32601 0.76189 0.0
H988 H 0.92473 0.29805 0.78161 0.0
H989 H 0.94962 0.30499 0.77481 0.0
H990 H 0.96039 0.24954 0.79157 0.0
H991 H 0.95746 0.24523 0.82453 0.0
H992 H 0.4358 0.38757 0.99938 0.0
H993 H 0.45541 0.44143 0.98941 0.0
H994 H 0.50174 0.40706 0.02511 0.0
H995 H 0.4821 0.35345 0.03544 0.0
H996 H 0.46995 0.4999 0.01274 0.0
H997 H 0.52933 0.42565 0.97605 0.0
H998 H 0.5063 0.40334 0.98113 0.0
H999 H 0.5244 0.40854 0.99847 0.0
C1000 C 0.45019 0.39131 0.00508 0.0
C1001 C 0.45731 0.36615 0.01829 0.0
C1002 C 0.4614 0.42208 0.99932 0.0
C1003 C 0.48005 0.42818 0.00645 0.0
C1004 C 0.48748 0.40258 0.01922 0.0
H1005 H 0.569 0.59952 0.99064 0.0
H1006 H 0.54929 0.54613 0.00104 0.0
C1007 C 0.47625 0.37182 0.02506 0.0
C1008 C 0.49129 0.46239 0.00121 0.0
H1009 H 0.53314 0.49153 0.98054 0.0
C1010 C 0.48374 0.49815 0.00563 0.0
C1011 C 0.5093 0.45998 0.99203 0.0
C1012 C 0.51781 0.42238 0.98648 0.0
C1013 C 0.49388 0.53157 0.00142 0.0
C1014 C 0.51186 0.52922 0.99212 0.0
C1015 C 0.51938 0.49339 0.98768 0.0
C1016 C 0.52321 0.56341 0.98686 0.0
C1017 C 0.48547 0.56898 0.00739 0.0
C1018 C 0.51508 0.59125 0.97556 0.0
C1019 C 0.52631 0.62203 0.96971 0.0
C1020 C 0.54596 0.62522 0.9748 0.0
C1021 C 0.55393 0.59771 0.98638 0.0
C1022 C 0.54269 0.56717 0.99234 0.0
H1023 H 0.47499 0.56537 0.01871 0.0
H1024 H 0.4971 0.5888 0.01175 0.0
H1025 H 0.47751 0.58202 0.99592 0.0
H1026 H 0.50024 0.58859 0.9708 0.0
H1027 H 0.51985 0.64241 0.96057 0.0
H1028 H 0.07174 0.58564 0.01744 0.0
H1029 H 0.05336 0.53168 0.00579 0.0
H1030 H 0.9997 0.58487 0.02225 0.0
H1031 H 0.01805 0.63912 0.03395 0.0
H1032 H 0.02984 0.48376 0.02523 0.0
H1033 H 0.98774 0.55312 0.97043 0.0
H1034 H 0.00846 0.5753 0.98107 0.0
H1035 H 0.98518 0.5752 0.99217 0.0
C1036 C 0.05601 0.58598 0.0185 0.0
C1037 C 0.04637 0.61667 0.02668 0.0
C1038 C 0.04552 0.55513 0.0118 0.0
C1039 C 0.02514 0.55426 0.01303 0.0
C1040 C 0.01539 0.58518 0.02085 0.0
H1041 H 0.95359 0.35013 0.00454 0.0
H1042 H 0.97152 0.40552 0.01545 0.0
C1043 C 0.0259 0.6162 0.02752 0.0
C1044 C 0.01428 0.52015 0.00688 0.0
H1045 H 0.97928 0.48968 0.97746 0.0
C1046 C 0.01879 0.48505 0.01477 0.0
C1047 C 1.00001 0.52177 0.99312 0.0
C1048 C 0.99514 0.55827 0.98356 0.0
C1049 C 0.00937 0.45161 0.00935 0.0
C1050 C 0.99479 0.45335 0.99587 0.0
C1051 C 0.99036 0.48841 0.9879 0.0
C1052 C 0.98428 0.41904 0.98949 0.0
C1053 C 0.01542 0.41459 0.01783 0.0
C1054 C 0.98527 0.40842 0.97124 0.0
C1055 C 0.97492 0.37699 0.96494 0.0
C1056 C 0.96324 0.35547 0.97674 0.0
C1057 C 0.96239 0.36604 0.99507 0.0
C1058 C 0.97277 0.39754 0.00136 0.0
H1059 H 0.02993 0.41669 0.02439 0.0
H1060 H 0.00465 0.40659 0.02834 0.0
H1061 H 0.0159 0.39163 0.00759 0.0
H1062 H 0.99396 0.42469 0.9618 0.0
H1063 H 0.97561 0.3703 0.95067 0.0
H1064 H 0.53817 0.90431 0.55174 0.0
H1065 H 0.52271 0.9606 0.53919 0.0
H1066 H 0.52078 0.90771 0.48671 0.0
H1067 H 0.53557 0.85044 0.49933 0.0
H1068 H 0.53636 0.00722 0.51246 0.0
H1069 H 0.46521 0.94564 0.49241 0.0
H1070 H 0.48194 0.92138 0.50722 0.0
H1071 H 0.48593 0.92138 0.4832 0.0
C1072 C 0.53405 0.90415 0.53761 0.0
C1073 C 0.53793 0.87247 0.52662 0.0
C1074 C 0.52539 0.93662 0.53041 0.0
C1075 C 0.52034 0.9383 0.51206 0.0
C1076 C 0.52419 0.90685 0.50099 0.0
H1077 H 0.46923 0.11379 0.44473 0.0
H1078 H 0.48578 0.05761 0.4563 0.0
C1079 C 0.53284 0.87423 0.5082 0.0
C1080 C 0.51168 0.97351 0.5045 0.0
H1081 H 0.47152 0.00856 0.48295 0.0
C1082 C 0.52215 0.00753 0.50605 0.0
C1083 C 0.49314 0.97393 0.49613 0.0
C1084 C 0.48079 0.93873 0.49476 0.0
C1085 C 0.51472 0.04179 0.49929 0.0
C1086 C 0.49619 0.0422 0.49096 0.0
C1087 C 0.48575 0.00819 0.48932 0.0
C1088 C 0.48728 0.07759 0.48389 0.0
C1089 C 0.52693 0.07715 0.50083 0.0
C1090 C 0.48268 0.10768 0.49554 0.0
C1091 C 0.47331 0.14008 0.48893 0.0
C1092 C 0.46833 0.14302 0.47053 0.0
C1093 C 0.47321 0.11294 0.45889 0.0
C1094 C 0.48251 0.08058 0.46551 0.0
H1095 H 0.5425 0.07046 0.50333 0.0
H1096 H 0.52583 0.09452 0.48836 0.0
H1097 H 0.52156 0.09441 0.51233 0.0
H1098 H 0.48593 0.10576 0.50983 0.0
H1099 H 0.46978 0.16267 0.49827 0.0
H1100 H 0.96707 0.11992 0.55231 0.0
H1101 H 0.98429 0.06289 0.54251 0.0
H1102 H 0.97898 0.09841 0.48698 0.0
H1103 H 0.96208 0.15599 0.49671 0.0
H1104 H 0.96926 0.00673 0.51912 0.0
H1105 H 0.03697 0.07028 0.49154 0.0
H1106 H 0.02082 0.09572 0.50648 0.0
H1107 H 0.01482 0.09052 0.48297 0.0
C1108 C 0.96998 0.1161 0.53804 0.0
C1109 C 0.96336 0.14275 0.5253 0.0
C1110 C 0.97966 0.08328 0.53245 0.0
C1111 C 0.9831 0.07654 0.51403 0.0
C1112 C 0.97677 0.1033 0.50129 0.0
H1113 H 0.03478 0.89505 0.45158 0.0
H1114 H 0.01811 0.95185 0.46216 0.0
C1115 C 0.967 0.13607 0.50685 0.0
C1116 C 0.99244 0.04066 0.50812 0.0
H1117 H 0.03188 0.00502 0.48572 0.0
C1118 C 0.98301 0.00629 0.5119 0.0
C1119 C 0.01033 0.04017 0.49865 0.0
C1120 C 0.02146 0.07608 0.49477 0.0
C1121 C 0.99078 0.97149 0.50614 0.0
C1122 C 0.00868 0.97098 0.49666 0.0
C1123 C 0.01814 0.00539 0.49296 0.0
C1124 C 0.01781 0.93518 0.49029 0.0
C1125 C 0.97945 0.93572 0.50982 0.0
C1126 C 0.02317 0.90667 0.50256 0.0
C1127 C 0.03251 0.87377 0.49651 0.0
C1128 C 0.03684 0.86878 0.47806 0.0
C1129 C 0.03133 0.89738 0.46582 0.0
C1130 C 0.02196 0.93016 0.47187 0.0
H1131 H 0.96386 0.94175 0.51265 0.0
H1132 H 0.98034 0.9159 0.49821 0.0
H1133 H 0.98566 0.92142 0.52186 0.0
H1134 H 0.02047 0.91017 0.51688 0.0
H1135 H 0.03647 0.85238 0.50632 0.0
H1136 H 0.21961 0.67387 0.09399 0.0
H1137 H 0.24845 0.63277 0.09464 0.0
H1138 H 0.21377 0.5394 0.07534 0.0
H1139 H 0.18498 0.58017 0.07456 0.0
H1140 H 0.251 0.5579 0.11445 0.0
H1141 H 0.26249 0.55017 0.04016 0.0
H1142 H 0.24921 0.58825 0.05085 0.0
H1143 H 0.23785 0.54296 0.04769 0.0
C1144 C 0.21821 0.64462 0.08979 0.0
C1145 C 0.20012 0.63009 0.08423 0.0
C1146 C 0.23461 0.62127 0.09024 0.0
C1147 C 0.23314 0.58334 0.0849 0.0
C1148 C 0.21512 0.56877 0.07937 0.0
H1149 H 0.29547 0.37866 0.09739 0.0
H1150 H 0.27365 0.43305 0.09952 0.0
C1151 C 0.19871 0.59195 0.07906 0.0
C1152 C 0.25028 0.55841 0.08536 0.0
H1153 H 0.27957 0.50532 0.05818 0.0
C1154 C 0.25747 0.54672 0.10219 0.0
C1155 C 0.2587 0.54437 0.0693 0.0
C1156 C 0.25182 0.55723 0.05093 0.0
C1157 C 0.27238 0.51974 0.10336 0.0
C1158 C 0.28007 0.50416 0.08729 0.0
C1159 C 0.27352 0.51726 0.07046 0.0
C1160 C 0.29401 0.47248 0.08756 0.0
C1161 C 0.27958 0.50762 0.12173 0.0
C1162 C 0.31261 0.47681 0.08006 0.0
C1163 C 0.32516 0.44585 0.07891 0.0
C1164 C 0.31919 0.40999 0.08505 0.0
C1165 C 0.30062 0.406 0.09281 0.0
C1166 C 0.28813 0.437 0.09404 0.0
H1167 H 0.27595 0.52882 0.13229 0.0
H1168 H 0.27255 0.48045 0.12547 0.0
H1169 H 0.29559 0.50315 0.12159 0.0
H1170 H 0.31731 0.50403 0.07493 0.0
H1171 H 0.33949 0.44995 0.07311 0.0
H1172 H 0.2965 0.13883 0.45074 0.0
H1173 H 0.26996 0.09345 0.45502 0.0
H1174 H 0.29963 0.01368 0.42046 0.0
H1175 H 0.32643 0.05861 0.41656 0.0
H1176 H 0.24599 0.06529 0.43043 0.0
H1177 H 0.28602 0.94751 0.46274 0.0
H1178 H 0.29639 0.99413 0.46021 0.0
H1179 H 0.29688 0.96107 0.44168 0.0
C1180 C 0.29736 0.11149 0.44416 0.0
C1181 C 0.31345 0.10205 0.43334 0.0
C1182 C 0.28226 0.08561 0.44665 0.0
C1183 C 0.28299 0.04999 0.4383 0.0
C1184 C 0.29904 0.04058 0.42745 0.0
H1185 H 0.1867 0.90826 0.4091 0.0
H1186 H 0.21287 0.95474 0.4109 0.0
C1187 C 0.31427 0.06628 0.42514 0.0
C1188 C 0.26641 0.02358 0.44005 0.0
H1189 H 0.25471 0.93228 0.45024 0.0
C1190 C 0.24785 0.03632 0.43496 0.0
C1191 C 0.26881 0.98603 0.44628 0.0
C1192 C 0.28807 0.9715 0.45322 0.0
C1193 C 0.23171 0.01211 0.43533 0.0
C1194 C 0.23437 0.97388 0.44039 0.0
C1195 C 0.25278 0.96149 0.44611 0.0
C1196 C 0.21838 0.94599 0.43941 0.0
C1197 C 0.21198 0.02785 0.43038 0.0
C1198 C 0.21324 0.92479 0.4547 0.0
C1199 C 0.19862 0.89747 0.45361 0.0
C1200 C 0.18886 0.89092 0.43719 0.0
C1201 C 0.19406 0.9123 0.4219 0.0
C1202 C 0.2088 0.93932 0.42297 0.0
H1203 H 0.21129 0.05889 0.4327 0.0
H1204 H 0.20923 0.02275 0.4158 0.0
H1205 H 0.2002 0.0141 0.43829 0.0
H1206 H 0.22061 0.92928 0.46747 0.0
H1207 H 0.19522 0.88105 0.46555 0.0
H1208 H 0.72359 0.67374 0.91612 0.0
H1209 H 0.75163 0.63107 0.91399 0.0
H1210 H 0.71286 0.53539 0.9103 0.0
H1211 H 0.68481 0.57752 0.9128 0.0
H1212 H 0.76004 0.56726 0.93778 0.0
H1213 H 0.75018 0.52533 0.86604 0.0
H1214 H 0.73923 0.56736 0.87554 0.0
H1215 H 0.72862 0.5217 0.87969 0.0
C1216 C 0.72104 0.64359 0.91496 0.0
C1217 C 0.70198 0.62899 0.91453 0.0
C1218 C 0.73705 0.61936 0.91364 0.0
C1219 C 0.73421 0.5803 0.91172 0.0
C1220 C 0.71527 0.56561 0.9114 0.0
H1221 H 0.79762 0.3739 0.90723 0.0
H1222 H 0.77406 0.42568 0.90682 0.0
C1223 C 0.69928 0.58972 0.91279 0.0
C1224 C 0.75101 0.55446 0.91061 0.0
H1225 H 0.7721 0.48808 0.88353 0.0
C1226 C 0.76291 0.55024 0.92587 0.0
C1227 C 0.75457 0.53248 0.89502 0.0
C1228 C 0.7426 0.53707 0.87806 0.0
C1229 C 0.77783 0.52317 0.92625 0.0
C1230 C 0.78106 0.50044 0.9108 0.0
C1231 C 0.76952 0.50555 0.89535 0.0
C1232 C 0.79558 0.46967 0.91072 0.0
C1233 C 0.78942 0.51796 0.9434 0.0
C1234 C 0.81548 0.47743 0.91282 0.0
C1235 C 0.82898 0.44789 0.91305 0.0
C1236 C 0.82277 0.41021 0.91101 0.0
C1237 C 0.80285 0.40267 0.90861 0.0
C1238 C 0.78938 0.43217 0.90845 0.0
H1239 H 0.78238 0.53195 0.95516 0.0
H1240 H 0.79131 0.48744 0.94652 0.0
H1241 H 0.80409 0.53058 0.94161 0.0
H1242 H 0.82055 0.5063 0.91423 0.0
H1243 H 0.84429 0.45451 0.91467 0.0
H1244 H 0.71049 0.84771 0.59127 0.0
H1245 H 0.73745 0.89314 0.59107 0.0
H1246 H 0.69693 0.98371 0.58023 0.0
H1247 H 0.66994 0.93857 0.58091 0.0
H1248 H 0.75007 0.93744 0.56436 0.0
H1249 H 0.72707 0.0269 0.62197 0.0
H1250 H 0.71601 0.98167 0.61721 0.0
H1251 H 0.70854 0.02327 0.60498 0.0
C1252 C 0.70739 0.87738 0.58895 0.0
C1253 C 0.6882 0.88981 0.58624 0.0
C1254 C 0.72275 0.90325 0.58886 0.0
C1255 C 0.71913 0.94186 0.58597 0.0
C1256 C 0.69997 0.95422 0.58303 0.0
H1257 H 0.8032 0.1069 0.54908 0.0
H1258 H 0.77724 0.06007 0.55176 0.0
C1259 C 0.6846 0.92844 0.58334 0.0
C1260 C 0.73549 0.96901 0.58528 0.0
H1261 H 0.75193 0.05227 0.60288 0.0
C1262 C 0.75058 0.9624 0.57288 0.0
C1263 C 0.73624 0.00122 0.59661 0.0
C1264 C 0.7212 0.00851 0.61107 0.0
C1265 C 0.76623 0.9876 0.57122 0.0
C1266 C 0.76645 0.02082 0.58189 0.0
C1267 C 0.75158 0.027 0.59456 0.0
C1268 C 0.78203 0.04947 0.58024 0.0
C1269 C 0.78249 0.97802 0.55827 0.0
C1270 C 0.79284 0.06005 0.5955 0.0
C1271 C 0.80733 0.08753 0.59413 0.0
C1272 C 0.81137 0.10484 0.57742 0.0
C1273 C 0.80039 0.09435 0.56218 0.0
C1274 C 0.78574 0.06715 0.56362 0.0
H1275 H 0.78313 0.94714 0.5555 0.0
H1276 H 0.7799 0.99268 0.54523 0.0
H1277 H 0.79683 0.98724 0.56363 0.0
H1278 H 0.79006 0.047 0.6085 0.0
H1279 H 0.8152 0.0955 0.60623 0.0
loop_
_geom_bond_atom_site_label_1
_geom_bond_atom_site_label_2
_geom_bond_distance
_geom_bond_site_symmetry_2
_ccdc_geom_bond_type
Li0 N17 1.990 . S
Li0 O60 1.956 . S
Li0 O61 1.970 . S
Li0 O62 1.961 . S
Li1 N25 1.990 . S
Li1 O60 1.970 . S
Li1 O61 1.956 . S
Li1 O63 1.961 . S
Li2 N47 1.990 . S
Li2 O60 1.961 . S
Li2 O62 1.956 . S
Li2 O63 1.970 . S
Li3 N53 1.990 . S
Li3 O61 1.961 . S
Li3 O62 1.970 . S
Li3 O63 1.956 . S
C4 C6 1.348 . S
C4 C7 1.356 . S
C4 O60 1.325 . S
N5 C8 1.314 . S
N5 C9 1.279 . S
C6 C4 1.348 . S
C6 C8 1.353 . S
C6 H64 0.929 . S
C7 C4 1.356 . S
C7 C9 1.358 . S
C7 H65 0.930 . S
C8 N5 1.314 . S
C8 C6 1.353 . S
C8 H66 0.930 . S
C9 N5 1.279 . S
C9 C7 1.358 . S
C9 H67 0.930 . S
C10 C13 1.348 . S
C10 C14 1.356 . S
C10 O61 1.325 . S
C11 N12 1.279 . S
C11 C14 1.358 . S
C11 H68 0.930 . S
N12 C11 1.279 . S
N12 C15 1.314 . S
C13 C10 1.348 . S
C13 C15 1.353 . S
C13 H69 0.929 . S
C14 C10 1.356 . S
C14 C11 1.358 . S
C14 H70 0.930 . S
C15 N12 1.314 . S
C15 C13 1.353 . S
C15 H71 0.930 . S
C16 N17 1.314 . S
C16 C21 1.353 . S
C16 H22 0.930 . S
N17 Li0 1.990 . S
N17 C16 1.314 . S
N17 C19 1.279 . S
C18 C19 1.358 . S
C18 C20 1.356 . S
C18 H72 0.930 . S
C19 N17 1.279 . S
C19 C18 1.358 . S
C19 H23 0.930 . S
C20 C18 1.356 . S
C20 C21 1.348 . S
C21 C16 1.353 . S
C21 C20 1.348 . S
C21 H73 0.929 . S
H22 C16 0.930 . S
H23 C19 0.930 . S
C24 N25 1.314 . S
C24 C26 1.353 . S
C24 H30 0.930 . S
N25 Li1 1.990 . S
N25 C24 1.314 . S
N25 C28 1.279 . S
C26 C24 1.353 . S
C26 C29 1.348 . S
C26 H74 0.929 . S
C27 C28 1.358 . S
C27 C29 1.356 . S
C27 H75 0.930 . S
C28 N25 1.279 . S
C28 C27 1.358 . S
C28 H31 0.930 . S
C29 C26 1.348 . S
C29 C27 1.356 . S
H30 C24 0.930 . S
H31 C28 0.930 . S
C32 C34 1.348 . S
C32 C35 1.356 . S
C32 O62 1.325 . S
N33 C36 1.314 1_556 S
N33 C37 1.279 . S
C34 C32 1.348 . S
C34 C36 1.353 . S
C34 H76 0.929 . S
C35 C32 1.356 . S
C35 C37 1.358 1_554 S
C35 H77 0.930 . S
C36 N33 1.314 1_554 S
C36 C34 1.353 . S
C36 H78 0.921 1_554 S
C37 N33 1.279 . S
C37 C35 1.358 1_556 S
C37 H79 0.930 . S
C38 C39 1.348 . S
C38 C40 1.356 . S
C38 O63 1.325 . S
C39 C38 1.348 . S
C39 C41 1.353 . S
C39 H80 0.929 . S
C40 C38 1.356 . S
C40 C42 1.358 . S
C40 H81 0.930 . S
C41 C39 1.353 . S
C41 N43 1.314 . S
C41 H82 0.930 . S
C42 C40 1.358 . S
C42 N43 1.279 . S
C42 H83 0.930 . S
N43 C41 1.314 . S
N43 C42 1.279 . S
C44 C46 1.353 . S
C44 N47 1.314 . S
C44 H50 0.930 . S
C45 N47 1.279 . S
C45 C48 1.358 . S
C45 H51 0.930 . S
C46 C44 1.353 . S
C46 C49 1.348 . S
C46 H84 0.929 . S
N47 Li2 1.990 . S
N47 C44 1.314 . S
N47 C45 1.279 . S
C48 C45 1.358 . S
C48 C49 1.356 . S
C48 H85 0.930 . S
C49 C46 1.348 . S
C49 C48 1.356 . S
H50 C44 0.930 . S
H51 C45 0.930 . S
C52 N53 1.314 . S
C52 C54 1.353 . S
C52 H58 0.930 . S
N53 Li3 1.990 . S
N53 C52 1.314 . S
N53 C56 1.279 . S
C54 C52 1.353 . S
C54 C57 1.348 . S
C54 H86 0.929 . S
C55 C56 1.358 . S
C55 C57 1.356 . S
C55 H87 0.930 . S
C56 N53 1.279 . S
C56 C55 1.358 . S
C56 H59 0.930 . S
C57 C54 1.348 . S
C57 C55 1.356 . S
H58 C52 0.930 . S
H59 C56 0.930 . S
O60 Li0 1.956 . S
O60 Li1 1.970 . S
O60 Li2 1.961 . S
O60 C4 1.325 . S
O61 Li0 1.970 . S
O61 Li1 1.956 . S
O61 Li3 1.961 . S
O61 C10 1.325 . S
O62 Li0 1.961 . S
O62 Li2 1.956 . S
O62 Li3 1.970 . S
O62 C32 1.325 . S
O63 Li1 1.961 . S
O63 Li2 1.970 . S
O63 Li3 1.956 . S
O63 C38 1.325 . S
H64 C6 0.929 . S
H65 C7 0.930 . S
H66 C8 0.930 . S
H67 C9 0.930 . S
H68 C11 0.930 . S
H69 C13 0.929 . S
H70 C14 0.930 . S
H71 C15 0.930 . S
H72 C18 0.930 . S
H73 C21 0.929 . S
H74 C26 0.929 . S
H75 C27 0.930 . S
H76 C34 0.929 . S
H77 C35 0.930 . S
H78 C36 0.921 1_556 S
H79 C37 0.930 . S
H80 C39 0.929 . S
H81 C40 0.930 . S
H82 C41 0.930 . S
H83 C42 0.930 . S
H84 C46 0.929 . S
H85 C48 0.930 . S
H86 C54 0.929 . S
H87 C55 0.930 . S
Li88 N105 1.990 . S
Li88 O148 1.956 . S
Li88 O149 1.970 . S
Li88 O150 1.961 . S
Li89 N113 1.990 . S
Li89 O148 1.970 . S
Li89 O149 1.956 . S
Li89 O151 1.961 . S
Li90 N135 1.990 . S
Li90 O148 1.961 . S
Li90 O150 1.956 . S
Li90 O151 1.970 . S
Li91 N141 1.990 . S
Li91 O149 1.961 . S
Li91 O150 1.970 . S
Li91 O151 1.956 . S
C92 C94 1.348 . S
C92 C95 1.356 . S
C92 O148 1.325 . S
N93 C96 1.314 . S
N93 C97 1.279 . S
C94 C92 1.348 . S
C94 C96 1.353 . S
C94 H152 0.929 . S
C95 C92 1.356 . S
C95 C97 1.358 . S
C95 H153 0.930 . S
C96 N93 1.314 . S
C96 C94 1.353 . S
C96 H154 0.930 . S
C97 N93 1.279 . S
C97 C95 1.358 . S
C97 H155 0.930 . S
C98 C101 1.348 . S
C98 C102 1.356 . S
C98 O149 1.325 . S
C99 N100 1.279 . S
C99 C102 1.358 . S
C99 H156 0.930 . S
N100 C99 1.279 . S
N100 C103 1.314 . S
C101 C98 1.348 . S
C101 C103 1.353 . S
C101 H157 0.929 . S
C102 C98 1.356 . S
C102 C99 1.358 . S
C102 H158 0.930 . S
C103 N100 1.314 . S
C103 C101 1.353 . S
C103 H159 0.930 . S
C104 N105 1.314 . S
C104 C109 1.353 . S
C104 H110 0.930 . S
N105 Li88 1.990 . S
N105 C104 1.314 . S
N105 C107 1.279 . S
C106 C107 1.358 . S
C106 C108 1.356 . S
C106 H160 0.930 . S
C107 N105 1.279 . S
C107 C106 1.358 . S
C107 H111 0.930 . S
C108 C106 1.356 . S
C108 C109 1.348 . S
C109 C104 1.353 . S
C109 C108 1.348 . S
C109 H161 0.929 . S
H110 C104 0.930 . S
H111 C107 0.930 . S
C112 N113 1.314 . S
C112 C114 1.353 . S
C112 H118 0.930 . S
N113 Li89 1.990 . S
N113 C112 1.314 . S
N113 C116 1.279 . S
C114 C112 1.353 . S
C114 C117 1.348 . S
C114 H162 0.929 . S
C115 C116 1.358 . S
C115 C117 1.356 . S
C115 H163 0.930 . S
C116 N113 1.279 . S
C116 C115 1.358 . S
C116 H119 0.930 . S
C117 C114 1.348 . S
C117 C115 1.356 . S
H118 C112 0.930 . S
H119 C116 0.930 . S
C120 C122 1.348 . S
C120 C123 1.356 . S
C120 O150 1.325 . S
N121 C124 1.314 1_556 S
N121 C125 1.279 . S
C122 C120 1.348 . S
C122 C124 1.353 . S
C122 H164 0.929 . S
C123 C120 1.356 . S
C123 C125 1.358 1_554 S
C123 H165 0.930 . S
C124 N121 1.314 1_554 S
C124 C122 1.353 . S
C124 H166 0.921 1_554 S
C125 N121 1.279 . S
C125 C123 1.358 1_556 S
C125 H167 0.930 . S
C126 C127 1.348 . S
C126 C128 1.356 . S
C126 O151 1.325 . S
C127 C126 1.348 . S
C127 C129 1.353 . S
C127 H168 0.929 . S
C128 C126 1.356 . S
C128 C130 1.358 . S
C128 H169 0.930 . S
C129 C127 1.353 . S
C129 N131 1.314 . S
C129 H170 0.930 . S
C130 C128 1.358 . S
C130 N131 1.279 . S
C130 H171 0.930 . S
N131 C129 1.314 . S
N131 C130 1.279 . S
C132 C134 1.353 . S
C132 N135 1.314 . S
C132 H138 0.930 . S
C133 N135 1.279 . S
C133 C136 1.358 . S
C133 H139 0.930 . S
C134 C132 1.353 . S
C134 C137 1.348 . S
C134 H172 0.929 . S
N135 Li90 1.990 . S
N135 C132 1.314 . S
N135 C133 1.279 . S
C136 C133 1.358 . S
C136 C137 1.356 . S
C136 H173 0.930 . S
C137 C134 1.348 . S
C137 C136 1.356 . S
H138 C132 0.930 . S
H139 C133 0.930 . S
C140 N141 1.314 . S
C140 C142 1.353 . S
C140 H146 0.930 . S
N141 Li91 1.990 . S
N141 C140 1.314 . S
N141 C144 1.279 . S
C142 C140 1.353 . S
C142 C145 1.348 . S
C142 H174 0.929 . S
C143 C144 1.358 . S
C143 C145 1.356 . S
C143 H175 0.930 . S
C144 N141 1.279 . S
C144 C143 1.358 . S
C144 H147 0.930 . S
C145 C142 1.348 . S
C145 C143 1.356 . S
H146 C140 0.930 . S
H147 C144 0.930 . S
O148 Li88 1.956 . S
O148 Li89 1.970 . S
O148 Li90 1.961 . S
O148 C92 1.325 . S
O149 Li88 1.970 . S
O149 Li89 1.956 . S
O149 Li91 1.961 . S
O149 C98 1.325 . S
O150 Li88 1.961 . S
O150 Li90 1.956 . S
O150 Li91 1.970 . S
O150 C120 1.325 . S
O151 Li89 1.961 . S
O151 Li90 1.970 . S
O151 Li91 1.956 . S
O151 C126 1.325 . S
H152 C94 0.929 . S
H153 C95 0.930 . S
H154 C96 0.930 . S
H155 C97 0.930 . S
H156 C99 0.930 . S
H157 C101 0.929 . S
H158 C102 0.930 . S
H159 C103 0.930 . S
H160 C106 0.930 . S
H161 C109 0.929 . S
H162 C114 0.929 . S
H163 C115 0.930 . S
H164 C122 0.929 . S
H165 C123 0.930 . S
H166 C124 0.921 1_556 S
H167 C125 0.930 . S
H168 C127 0.929 . S
H169 C128 0.930 . S
H170 C129 0.930 . S
H171 C130 0.930 . S
H172 C134 0.929 . S
H173 C136 0.930 . S
H174 C142 0.929 . S
H175 C143 0.930 . S
Li176 N193 1.990 . S
Li176 O236 1.956 . S
Li176 O237 1.970 . S
Li176 O238 1.961 . S
Li177 N201 1.990 . S
Li177 O236 1.970 . S
Li177 O237 1.956 . S
Li177 O239 1.961 . S
Li178 N223 1.990 . S
Li178 O236 1.961 . S
Li178 O238 1.956 . S
Li178 O239 1.970 . S
Li179 N229 1.990 . S
Li179 O237 1.961 . S
Li179 O238 1.970 . S
Li179 O239 1.956 . S
C180 C182 1.348 . S
C180 C183 1.356 . S
C180 O236 1.325 . S
N181 C184 1.314 . S
N181 C185 1.279 . S
C182 C180 1.348 . S
C182 C184 1.353 . S
C182 H240 0.929 . S
C183 C180 1.356 . S
C183 C185 1.358 . S
C183 H241 0.930 . S
C184 N181 1.314 . S
C184 C182 1.353 . S
C184 H242 0.930 . S
C185 N181 1.279 . S
C185 C183 1.358 . S
C185 H243 0.930 . S
C186 C189 1.348 . S
C186 C190 1.356 . S
C186 O237 1.325 . S
C187 N188 1.279 . S
C187 C190 1.358 . S
C187 H244 0.930 . S
N188 C187 1.279 . S
N188 C191 1.314 . S
C189 C186 1.348 . S
C189 C191 1.353 . S
C189 H245 0.929 . S
C190 C186 1.356 . S
C190 C187 1.358 . S
C190 H246 0.930 . S
C191 N188 1.314 . S
C191 C189 1.353 . S
C191 H247 0.930 . S
C192 N193 1.314 . S
C192 C197 1.353 . S
C192 H198 0.930 . S
N193 Li176 1.990 . S
N193 C192 1.314 . S
N193 C195 1.279 . S
C194 C195 1.358 . S
C194 C196 1.356 . S
C194 H248 0.930 . S
C195 N193 1.279 . S
C195 C194 1.358 . S
C195 H199 0.930 . S
C196 C194 1.356 . S
C196 C197 1.348 . S
C197 C192 1.353 . S
C197 C196 1.348 . S
C197 H249 0.929 . S
H198 C192 0.930 . S
H199 C195 0.930 . S
C200 N201 1.314 . S
C200 C202 1.353 . S
C200 H206 0.930 . S
N201 Li177 1.990 . S
N201 C200 1.314 . S
N201 C204 1.279 . S
C202 C200 1.353 . S
C202 C205 1.348 . S
C202 H250 0.929 . S
C203 C204 1.358 . S
C203 C205 1.356 . S
C203 H251 0.930 . S
C204 N201 1.279 . S
C204 C203 1.358 . S
C204 H207 0.930 . S
C205 C202 1.348 . S
C205 C203 1.356 . S
H206 C200 0.930 . S
H207 C204 0.930 . S
C208 C210 1.348 . S
C208 C211 1.356 . S
C208 O238 1.325 . S
N209 C212 1.314 . S
N209 C213 1.279 . S
C210 C208 1.348 . S
C210 C212 1.353 . S
C210 H252 0.929 . S
C211 C208 1.356 . S
C211 C213 1.358 . S
C211 H253 0.930 . S
C212 N209 1.314 . S
C212 C210 1.353 . S
C212 H254 0.930 . S
C213 N209 1.279 . S
C213 C211 1.358 . S
C213 H255 0.930 . S
C214 C215 1.348 . S
C214 C216 1.356 . S
C214 O239 1.325 . S
C215 C214 1.348 . S
C215 C217 1.353 . S
C215 H256 0.929 . S
C216 C214 1.356 . S
C216 C218 1.358 . S
C216 H257 0.930 . S
C217 C215 1.353 . S
C217 N219 1.314 . S
C217 H258 0.930 . S
C218 C216 1.358 . S
C218 N219 1.279 . S
C218 H259 0.930 . S
N219 C217 1.314 . S
N219 C218 1.279 . S
C220 C222 1.353 . S
C220 N223 1.314 . S
C220 H226 0.930 . S
C221 N223 1.279 . S
C221 C224 1.358 . S
C221 H227 0.930 . S
C222 C220 1.353 . S
C222 C225 1.348 . S
C222 H260 0.929 . S
N223 Li178 1.990 . S
N223 C220 1.314 . S
N223 C221 1.279 . S
C224 C221 1.358 . S
C224 C225 1.356 . S
C224 H261 0.930 . S
C225 C222 1.348 . S
C225 C224 1.356 . S
H226 C220 0.930 . S
H227 C221 0.930 . S
C228 N229 1.314 . S
C228 C230 1.353 . S
C228 H234 0.930 . S
N229 Li179 1.990 . S
N229 C228 1.314 . S
N229 C232 1.279 . S
C230 C228 1.353 . S
C230 C233 1.348 . S
C230 H262 0.929 . S
C231 C232 1.358 . S
C231 C233 1.356 . S
C231 H263 0.930 . S
C232 N229 1.279 . S
C232 C231 1.358 . S
C232 H235 0.930 . S
C233 C230 1.348 . S
C233 C231 1.356 . S
H234 C228 0.930 . S
H235 C232 0.930 . S
O236 Li176 1.956 . S
O236 Li177 1.970 . S
O236 Li178 1.961 . S
O236 C180 1.325 . S
O237 Li176 1.970 . S
O237 Li177 1.956 . S
O237 Li179 1.961 . S
O237 C186 1.325 . S
O238 Li176 1.961 . S
O238 Li178 1.956 . S
O238 Li179 1.970 . S
O238 C208 1.325 . S
O239 Li177 1.961 . S
O239 Li178 1.970 . S
O239 Li179 1.956 . S
O239 C214 1.325 . S
H240 C182 0.929 . S
H241 C183 0.930 . S
H242 C184 0.930 . S
H243 C185 0.930 . S
H244 C187 0.930 . S
H245 C189 0.929 . S
H246 C190 0.930 . S
H247 C191 0.930 . S
H248 C194 0.930 . S
H249 C197 0.929 . S
H250 C202 0.929 . S
H251 C203 0.930 . S
H252 C210 0.929 . S
H253 C211 0.930 . S
H254 C212 0.930 . S
H255 C213 0.930 . S
H256 C215 0.929 . S
H257 C216 0.930 . S
H258 C217 0.930 . S
H259 C218 0.930 . S
H260 C222 0.929 . S
H261 C224 0.930 . S
H262 C230 0.929 . S
H263 C231 0.930 . S
Li264 N281 1.990 . S
Li264 O324 1.956 . S
Li264 O325 1.970 . S
Li264 O326 1.961 . S
Li265 N289 1.990 . S
Li265 O324 1.970 . S
Li265 O325 1.956 . S
Li265 O327 1.961 . S
Li266 N311 1.990 . S
Li266 O324 1.961 . S
Li266 O326 1.956 . S
Li266 O327 1.970 . S
Li267 N317 1.990 . S
Li267 O325 1.961 . S
Li267 O326 1.970 . S
Li267 O327 1.956 . S
C268 C270 1.348 . S
C268 C271 1.356 . S
C268 O324 1.325 . S
N269 C272 1.314 . S
N269 C273 1.279 . S
C270 C268 1.348 . S
C270 C272 1.353 . S
C270 H328 0.929 . S
C271 C268 1.356 . S
C271 C273 1.358 . S
C271 H329 0.930 . S
C272 N269 1.314 . S
C272 C270 1.353 . S
C272 H330 0.930 . S
C273 N269 1.279 . S
C273 C271 1.358 . S
C273 H331 0.930 . S
C274 C277 1.348 . S
C274 C278 1.356 . S
C274 O325 1.325 . S
C275 N276 1.279 . S
C275 C278 1.358 . S
C275 H332 0.930 . S
N276 C275 1.279 . S
N276 C279 1.314 . S
C277 C274 1.348 . S
C277 C279 1.353 . S
C277 H333 0.929 . S
C278 C274 1.356 . S
C278 C275 1.358 . S
C278 H334 0.930 . S
C279 N276 1.314 . S
C279 C277 1.353 . S
C279 H335 0.930 . S
C280 N281 1.314 . S
C280 C285 1.353 . S
C280 H286 0.930 . S
N281 Li264 1.990 . S
N281 C280 1.314 . S
N281 C283 1.279 . S
C282 C283 1.358 . S
C282 C284 1.356 . S
C282 H336 0.930 . S
C283 N281 1.279 . S
C283 C282 1.358 . S
C283 H287 0.930 . S
C284 C282 1.356 . S
C284 C285 1.348 . S
C285 C280 1.353 . S
C285 C284 1.348 . S
C285 H337 0.929 . S
H286 C280 0.930 . S
H287 C283 0.930 . S
C288 N289 1.314 . S
C288 C290 1.353 . S
C288 H294 0.930 . S
N289 Li265 1.990 . S
N289 C288 1.314 . S
N289 C292 1.279 . S
C290 C288 1.353 . S
C290 C293 1.348 . S
C290 H338 0.929 . S
C291 C292 1.358 . S
C291 C293 1.356 . S
C291 H339 0.930 . S
C292 N289 1.279 . S
C292 C291 1.358 . S
C292 H295 0.930 . S
C293 C290 1.348 . S
C293 C291 1.356 . S
H294 C288 0.930 . S
H295 C292 0.930 . S
C296 C298 1.348 . S
C296 C299 1.356 . S
C296 O326 1.325 . S
N297 C300 1.314 . S
N297 C301 1.279 . S
C298 C296 1.348 . S
C298 C300 1.353 . S
C298 H340 0.929 . S
C299 C296 1.356 . S
C299 C301 1.358 . S
C299 H341 0.930 . S
C300 N297 1.314 . S
C300 C298 1.353 . S
C300 H342 0.930 . S
C301 N297 1.279 . S
C301 C299 1.358 . S
C301 H343 0.930 . S
C302 C303 1.348 . S
C302 C304 1.356 . S
C302 O327 1.325 . S
C303 C302 1.348 . S
C303 C305 1.353 . S
C303 H344 0.929 . S
C304 C302 1.356 . S
C304 C306 1.358 . S
C304 H345 0.930 . S
C305 C303 1.353 . S
C305 N307 1.314 . S
C305 H346 0.930 . S
C306 C304 1.358 . S
C306 N307 1.279 . S
C306 H347 0.930 . S
N307 C305 1.314 . S
N307 C306 1.279 . S
C308 C310 1.353 . S
C308 N311 1.314 . S
C308 H314 0.930 . S
C309 N311 1.279 . S
C309 C312 1.358 . S
C309 H315 0.930 . S
C310 C308 1.353 . S
C310 C313 1.348 . S
C310 H348 0.929 . S
N311 Li266 1.990 . S
N311 C308 1.314 . S
N311 C309 1.279 . S
C312 C309 1.358 . S
C312 C313 1.356 . S
C312 H349 0.930 . S
C313 C310 1.348 . S
C313 C312 1.356 . S
H314 C308 0.930 . S
H315 C309 0.930 . S
C316 N317 1.314 . S
C316 C318 1.353 . S
C316 H322 0.930 . S
N317 Li267 1.990 . S
N317 C316 1.314 . S
N317 C320 1.279 . S
C318 C316 1.353 . S
C318 C321 1.348 . S
C318 H350 0.929 . S
C319 C320 1.358 . S
C319 C321 1.356 . S
C319 H351 0.930 . S
C320 N317 1.279 . S
C320 C319 1.358 . S
C320 H323 0.930 . S
C321 C318 1.348 . S
C321 C319 1.356 . S
H322 C316 0.930 . S
H323 C320 0.930 . S
O324 Li264 1.956 . S
O324 Li265 1.970 . S
O324 Li266 1.961 . S
O324 C268 1.325 . S
O325 Li264 1.970 . S
O325 Li265 1.956 . S
O325 Li267 1.961 . S
O325 C274 1.325 . S
O326 Li264 1.961 . S
O326 Li266 1.956 . S
O326 Li267 1.970 . S
O326 C296 1.325 . S
O327 Li265 1.961 . S
O327 Li266 1.970 . S
O327 Li267 1.956 . S
O327 C302 1.325 . S
H328 C270 0.929 . S
H329 C271 0.930 . S
H330 C272 0.930 . S
H331 C273 0.930 . S
H332 C275 0.930 . S
H333 C277 0.929 . S
H334 C278 0.930 . S
H335 C279 0.930 . S
H336 C282 0.930 . S
H337 C285 0.929 . S
H338 C290 0.929 . S
H339 C291 0.930 . S
H340 C298 0.929 . S
H341 C299 0.930 . S
H342 C300 0.930 . S
H343 C301 0.930 . S
H344 C303 0.929 . S
H345 C304 0.930 . S
H346 C305 0.930 . S
H347 C306 0.930 . S
H348 C310 0.929 . S
H349 C312 0.930 . S
H350 C318 0.929 . S
H351 C319 0.930 . S
Li352 N369 1.990 . S
Li352 O412 1.956 . S
Li352 O413 1.970 . S
Li352 O414 1.961 . S
Li353 N377 1.990 . S
Li353 O412 1.970 . S
Li353 O413 1.956 . S
Li353 O415 1.961 . S
Li354 N399 1.990 . S
Li354 O412 1.961 . S
Li354 O414 1.956 . S
Li354 O415 1.970 . S
Li355 N405 1.990 . S
Li355 O413 1.961 . S
Li355 O414 1.970 . S
Li355 O415 1.956 . S
C356 C358 1.348 . S
C356 C359 1.356 . S
C356 O412 1.325 . S
N357 C360 1.314 1_554 S
N357 C361 1.279 . S
C358 C356 1.348 . S
C358 C360 1.353 . S
C358 H416 0.929 . S
C359 C356 1.356 . S
C359 C361 1.358 1_556 S
C359 H417 0.930 . S
C360 N357 1.314 1_556 S
C360 C358 1.353 . S
C360 H418 0.930 1_556 S
C361 N357 1.279 . S
C361 C359 1.358 1_554 S
C361 H419 0.930 . S
C362 C365 1.348 . S
C362 C366 1.356 . S
C362 O413 1.325 . S
C363 N364 1.279 . S
C363 C366 1.358 . S
C363 H420 0.930 . S
N364 C363 1.279 . S
N364 C367 1.314 . S
C365 C362 1.348 . S
C365 C367 1.353 . S
C365 H421 0.929 . S
C366 C362 1.356 . S
C366 C363 1.358 . S
C366 H422 0.930 . S
C367 N364 1.314 . S
C367 C365 1.353 . S
C367 H423 0.930 . S
C368 N369 1.314 . S
C368 C373 1.353 . S
C368 H374 0.930 . S
N369 Li352 1.990 . S
N369 C368 1.314 . S
N369 C371 1.279 . S
C370 C371 1.358 . S
C370 C372 1.356 . S
C370 H424 0.930 . S
C371 N369 1.279 . S
C371 C370 1.358 . S
C371 H375 0.930 . S
C372 C370 1.356 . S
C372 C373 1.348 . S
C373 C368 1.353 . S
C373 C372 1.348 . S
C373 H425 0.929 . S
H374 C368 0.930 . S
H375 C371 0.930 . S
C376 N377 1.314 . S
C376 C378 1.353 . S
C376 H382 0.930 . S
N377 Li353 1.990 . S
N377 C376 1.314 . S
N377 C380 1.279 . S
C378 C376 1.353 . S
C378 C381 1.348 . S
C378 H426 0.929 . S
C379 C380 1.358 . S
C379 C381 1.356 . S
C379 H427 0.930 . S
C380 N377 1.279 . S
C380 C379 1.358 . S
C380 H383 0.930 . S
C381 C378 1.348 . S
C381 C379 1.356 . S
H382 C376 0.930 . S
H383 C380 0.930 . S
C384 C386 1.348 . S
C384 C387 1.356 . S
C384 O414 1.325 . S
N385 C388 1.314 . S
N385 C389 1.279 . S
C386 C384 1.348 . S
C386 C388 1.353 . S
C386 H428 0.929 . S
C387 C384 1.356 . S
C387 C389 1.358 . S
C387 H429 0.930 . S
C388 N385 1.314 . S
C388 C386 1.353 . S
C388 H430 0.930 . S
C389 N385 1.279 . S
C389 C387 1.358 . S
C389 H431 0.930 . S
C390 C391 1.348 . S
C390 C392 1.356 . S
C390 O415 1.325 . S
C391 C390 1.348 . S
C391 C393 1.353 . S
C391 H432 0.929 . S
C392 C390 1.356 . S
C392 C394 1.358 . S
C392 H433 0.930 . S
C393 C391 1.353 . S
C393 N395 1.314 . S
C393 H434 0.930 . S
C394 C392 1.358 . S
C394 N395 1.279 . S
C394 H435 0.930 . S
N395 C393 1.314 . S
N395 C394 1.279 . S
C396 C398 1.353 . S
C396 N399 1.314 . S
C396 H402 0.930 . S
C397 N399 1.279 . S
C397 C400 1.358 . S
C397 H403 0.930 . S
C398 C396 1.353 . S
C398 C401 1.348 . S
C398 H436 0.929 . S
N399 Li354 1.990 . S
N399 C396 1.314 . S
N399 C397 1.279 . S
C400 C397 1.358 . S
C400 C401 1.356 . S
C400 H437 0.930 . S
C401 C398 1.348 . S
C401 C400 1.356 . S
H402 C396 0.930 . S
H403 C397 0.930 . S
C404 N405 1.314 . S
C404 C406 1.353 . S
C404 H410 0.930 . S
N405 Li355 1.990 . S
N405 C404 1.314 . S
N405 C408 1.279 . S
C406 C404 1.353 . S
C406 C409 1.348 . S
C406 H438 0.929 . S
C407 C408 1.358 . S
C407 C409 1.356 . S
C407 H439 0.930 . S
C408 N405 1.279 . S
C408 C407 1.358 . S
C408 H411 0.930 . S
C409 C406 1.348 . S
C409 C407 1.356 . S
H410 C404 0.930 . S
H411 C408 0.930 . S
O412 Li352 1.956 . S
O412 Li353 1.970 . S
O412 Li354 1.961 . S
O412 C356 1.325 . S
O413 Li352 1.970 . S
O413 Li353 1.956 . S
O413 Li355 1.961 . S
O413 C362 1.325 . S
O414 Li352 1.961 . S
O414 Li354 1.956 . S
O414 Li355 1.970 . S
O414 C384 1.325 . S
O415 Li353 1.961 . S
O415 Li354 1.970 . S
O415 Li355 1.956 . S
O415 C390 1.325 . S
H416 C358 0.929 . S
H417 C359 0.930 . S
H418 C360 0.930 1_554 S
H419 C361 0.930 . S
H420 C363 0.930 . S
H421 C365 0.929 . S
H422 C366 0.930 . S
H423 C367 0.930 . S
H424 C370 0.930 . S
H425 C373 0.929 . S
H426 C378 0.929 . S
H427 C379 0.930 . S
H428 C386 0.929 . S
H429 C387 0.930 . S
H430 C388 0.930 . S
H431 C389 0.930 . S
H432 C391 0.929 . S
H433 C392 0.930 . S
H434 C393 0.930 . S
H435 C394 0.930 . S
H436 C398 0.929 . S
H437 C400 0.930 . S
H438 C406 0.929 . S
H439 C407 0.930 . S
Li440 N457 1.990 . S
Li440 O500 1.956 . S
Li440 O501 1.970 . S
Li440 O502 1.961 . S
Li441 N465 1.990 . S
Li441 O500 1.970 . S
Li441 O501 1.956 . S
Li441 O503 1.961 . S
Li442 N487 1.990 . S
Li442 O500 1.961 . S
Li442 O502 1.956 . S
Li442 O503 1.970 . S
Li443 N493 1.990 . S
Li443 O501 1.961 . S
Li443 O502 1.970 . S
Li443 O503 1.956 . S
C444 C446 1.348 . S
C444 C447 1.356 . S
C444 O500 1.325 . S
N445 C448 1.314 1_554 S
N445 C449 1.279 . S
C446 C444 1.348 . S
C446 C448 1.353 . S
C446 H504 0.929 . S
C447 C444 1.356 . S
C447 C449 1.358 1_556 S
C447 H505 0.930 . S
C448 N445 1.314 1_556 S
C448 C446 1.353 . S
C448 H506 0.930 1_556 S
C449 N445 1.279 . S
C449 C447 1.358 1_554 S
C449 H507 0.930 . S
C450 C453 1.348 . S
C450 C454 1.356 . S
C450 O501 1.325 . S
C451 N452 1.279 . S
C451 C454 1.358 . S
C451 H508 0.930 . S
N452 C451 1.279 . S
N452 C455 1.314 . S
C453 C450 1.348 . S
C453 C455 1.353 . S
C453 H509 0.929 . S
C454 C450 1.356 . S
C454 C451 1.358 . S
C454 H510 0.930 . S
C455 N452 1.314 . S
C455 C453 1.353 . S
C455 H511 0.930 . S
C456 N457 1.314 . S
C456 C461 1.353 . S
C456 H462 0.930 . S
N457 Li440 1.990 . S
N457 C456 1.314 . S
N457 C459 1.279 . S
C458 C459 1.358 . S
C458 C460 1.356 . S
C458 H512 0.930 . S
C459 N457 1.279 . S
C459 C458 1.358 . S
C459 H463 0.930 . S
C460 C458 1.356 . S
C460 C461 1.348 . S
C461 C456 1.353 . S
C461 C460 1.348 . S
C461 H513 0.929 . S
H462 C456 0.930 . S
H463 C459 0.930 . S
C464 N465 1.314 . S
C464 C466 1.353 . S
C464 H470 0.930 . S
N465 Li441 1.990 . S
N465 C464 1.314 . S
N465 C468 1.279 . S
C466 C464 1.353 . S
C466 C469 1.348 . S
C466 H514 0.929 . S
C467 C468 1.358 . S
C467 C469 1.356 . S
C467 H515 0.930 . S
C468 N465 1.279 . S
C468 C467 1.358 . S
C468 H471 0.930 . S
C469 C466 1.348 . S
C469 C467 1.356 . S
H470 C464 0.930 . S
H471 C468 0.930 . S
C472 C474 1.348 . S
C472 C475 1.356 . S
C472 O502 1.325 . S
N473 C476 1.314 . S
N473 C477 1.279 . S
C474 C472 1.348 . S
C474 C476 1.353 . S
C474 H516 0.929 . S
C475 C472 1.356 . S
C475 C477 1.358 . S
C475 H517 0.930 . S
C476 N473 1.314 . S
C476 C474 1.353 . S
C476 H518 0.930 . S
C477 N473 1.279 . S
C477 C475 1.358 . S
C477 H519 0.930 . S
C478 C479 1.348 . S
C478 C480 1.356 . S
C478 O503 1.325 . S
C479 C478 1.348 . S
C479 C481 1.353 . S
C479 H520 0.929 . S
C480 C478 1.356 . S
C480 C482 1.358 . S
C480 H521 0.930 . S
C481 C479 1.353 . S
C481 N483 1.314 . S
C481 H522 0.930 . S
C482 C480 1.358 . S
C482 N483 1.279 . S
C482 H523 0.930 . S
N483 C481 1.314 . S
N483 C482 1.279 . S
C484 C486 1.353 . S
C484 N487 1.314 . S
C484 H490 0.930 . S
C485 N487 1.279 . S
C485 C488 1.358 . S
C485 H491 0.930 . S
C486 C484 1.353 . S
C486 C489 1.348 . S
C486 H524 0.929 . S
N487 Li442 1.990 . S
N487 C484 1.314 . S
N487 C485 1.279 . S
C488 C485 1.358 . S
C488 C489 1.356 . S
C488 H525 0.930 . S
C489 C486 1.348 . S
C489 C488 1.356 . S
H490 C484 0.930 . S
H491 C485 0.930 . S
C492 N493 1.314 . S
C492 C494 1.353 . S
C492 H498 0.930 . S
N493 Li443 1.990 . S
N493 C492 1.314 . S
N493 C496 1.279 . S
C494 C492 1.353 . S
C494 C497 1.348 . S
C494 H526 0.929 . S
C495 C496 1.358 . S
C495 C497 1.356 . S
C495 H527 0.930 . S
C496 N493 1.279 . S
C496 C495 1.358 . S
C496 H499 0.930 . S
C497 C494 1.348 . S
C497 C495 1.356 . S
H498 C492 0.930 . S
H499 C496 0.930 . S
O500 Li440 1.956 . S
O500 Li441 1.970 . S
O500 Li442 1.961 . S
O500 C444 1.325 . S
O501 Li440 1.970 . S
O501 Li441 1.956 . S
O501 Li443 1.961 . S
O501 C450 1.325 . S
O502 Li440 1.961 . S
O502 Li442 1.956 . S
O502 Li443 1.970 . S
O502 C472 1.325 . S
O503 Li441 1.961 . S
O503 Li442 1.970 . S
O503 Li443 1.956 . S
O503 C478 1.325 . S
H504 C446 0.929 . S
H505 C447 0.930 . S
H506 C448 0.930 1_554 S
H507 C449 0.930 . S
H508 C451 0.930 . S
H509 C453 0.929 . S
H510 C454 0.930 . S
H511 C455 0.930 . S
H512 C458 0.930 . S
H513 C461 0.929 . S
H514 C466 0.929 . S
H515 C467 0.930 . S
H516 C474 0.929 . S
H517 C475 0.930 . S
H518 C476 0.930 . S
H519 C477 0.930 . S
H520 C479 0.929 . S
H521 C480 0.930 . S
H522 C481 0.930 . S
H523 C482 0.930 . S
H524 C486 0.929 . S
H525 C488 0.930 . S
H526 C494 0.929 . S
H527 C495 0.930 . S
Li528 N545 1.990 . S
Li528 O588 1.956 . S
Li528 O589 1.970 . S
Li528 O590 1.961 . S
Li529 N553 1.990 . S
Li529 O588 1.970 . S
Li529 O589 1.956 . S
Li529 O591 1.961 . S
Li530 N575 1.990 . S
Li530 O588 1.961 . S
Li530 O590 1.956 . S
Li530 O591 1.970 . S
Li531 N581 1.990 . S
Li531 O589 1.961 . S
Li531 O590 1.970 . S
Li531 O591 1.956 . S
C532 C534 1.348 . S
C532 C535 1.356 . S
C532 O588 1.325 . S
N533 C536 1.314 . S
N533 C537 1.279 . S
C534 C532 1.348 . S
C534 C536 1.353 . S
C534 H592 0.929 . S
C535 C532 1.356 . S
C535 C537 1.358 . S
C535 H593 0.930 . S
C536 N533 1.314 . S
C536 C534 1.353 . S
C536 H594 0.930 . S
C537 N533 1.279 . S
C537 C535 1.358 . S
C537 H595 0.930 . S
C538 C541 1.348 . S
C538 C542 1.356 . S
C538 O589 1.325 . S
C539 N540 1.279 . S
C539 C542 1.358 . S
C539 H596 0.930 . S
N540 C539 1.279 . S
N540 C543 1.314 . S
C541 C538 1.348 . S
C541 C543 1.353 . S
C541 H597 0.929 . S
C542 C538 1.356 . S
C542 C539 1.358 . S
C542 H598 0.930 . S
C543 N540 1.314 . S
C543 C541 1.353 . S
C543 H599 0.930 . S
C544 N545 1.314 . S
C544 C549 1.353 . S
C544 H550 0.930 . S
N545 Li528 1.990 . S
N545 C544 1.314 . S
N545 C547 1.279 . S
C546 C547 1.358 . S
C546 C548 1.356 . S
C546 H600 0.930 . S
C547 N545 1.279 . S
C547 C546 1.358 . S
C547 H551 0.930 . S
C548 C546 1.356 . S
C548 C549 1.348 . S
C549 C544 1.353 . S
C549 C548 1.348 . S
C549 H601 0.929 . S
H550 C544 0.930 . S
H551 C547 0.930 . S
C552 N553 1.314 . S
C552 C554 1.353 . S
C552 H558 0.930 . S
N553 Li529 1.990 . S
N553 C552 1.314 . S
N553 C556 1.279 . S
C554 C552 1.353 . S
C554 C557 1.348 . S
C554 H602 0.929 . S
C555 C556 1.358 . S
C555 C557 1.356 . S
C555 H603 0.930 . S
C556 N553 1.279 . S
C556 C555 1.358 . S
C556 H559 0.930 . S
C557 C554 1.348 . S
C557 C555 1.356 . S
H558 C552 0.930 . S
H559 C556 0.930 . S
C560 C562 1.348 . S
C560 C563 1.356 . S
C560 O590 1.325 . S
N561 C564 1.314 . S
N561 C565 1.279 . S
C562 C560 1.348 . S
C562 C564 1.353 . S
C562 H604 0.929 . S
C563 C560 1.356 . S
C563 C565 1.358 . S
C563 H605 0.930 . S
C564 N561 1.314 . S
C564 C562 1.353 . S
C564 H606 0.930 . S
C565 N561 1.279 . S
C565 C563 1.358 . S
C565 H607 0.930 . S
C566 C567 1.348 . S
C566 C568 1.356 . S
C566 O591 1.325 . S
C567 C566 1.348 . S
C567 C569 1.353 . S
C567 H608 0.929 . S
C568 C566 1.356 . S
C568 C570 1.358 . S
C568 H609 0.930 . S
C569 C567 1.353 . S
C569 N571 1.314 . S
C569 H610 0.930 . S
C570 C568 1.358 . S
C570 N571 1.279 . S
C570 H611 0.930 . S
N571 C569 1.314 . S
N571 C570 1.279 . S
C572 C574 1.353 . S
C572 N575 1.314 . S
C572 H578 0.930 . S
C573 N575 1.279 . S
C573 C576 1.358 . S
C573 H579 0.930 . S
C574 C572 1.353 . S
C574 C577 1.348 . S
C574 H612 0.929 . S
N575 Li530 1.990 . S
N575 C572 1.314 . S
N575 C573 1.279 . S
C576 C573 1.358 . S
C576 C577 1.356 . S
C576 H613 0.930 . S
C577 C574 1.348 . S
C577 C576 1.356 . S
H578 C572 0.930 . S
H579 C573 0.930 . S
C580 N581 1.314 . S
C580 C582 1.353 . S
C580 H586 0.930 . S
N581 Li531 1.990 . S
N581 C580 1.314 . S
N581 C584 1.279 . S
C582 C580 1.353 . S
C582 C585 1.348 . S
C582 H614 0.929 . S
C583 C584 1.358 . S
C583 C585 1.356 . S
C583 H615 0.930 . S
C584 N581 1.279 . S
C584 C583 1.358 . S
C584 H587 0.930 . S
C585 C582 1.348 . S
C585 C583 1.356 . S
H586 C580 0.930 . S
H587 C584 0.930 . S
O588 Li528 1.956 . S
O588 Li529 1.970 . S
O588 Li530 1.961 . S
O588 C532 1.325 . S
O589 Li528 1.970 . S
O589 Li529 1.956 . S
O589 Li531 1.961 . S
O589 C538 1.325 . S
O590 Li528 1.961 . S
O590 Li530 1.956 . S
O590 Li531 1.970 . S
O590 C560 1.325 . S
O591 Li529 1.961 . S
O591 Li530 1.970 . S
O591 Li531 1.956 . S
O591 C566 1.325 . S
H592 C534 0.929 . S
H593 C535 0.930 . S
H594 C536 0.930 . S
H595 C537 0.930 . S
H596 C539 0.930 . S
H597 C541 0.929 . S
H598 C542 0.930 . S
H599 C543 0.930 . S
H600 C546 0.930 . S
H601 C549 0.929 . S
H602 C554 0.929 . S
H603 C555 0.930 . S
H604 C562 0.929 . S
H605 C563 0.930 . S
H606 C564 0.930 . S
H607 C565 0.930 . S
H608 C567 0.929 . S
H609 C568 0.930 . S
H610 C569 0.930 . S
H611 C570 0.930 . S
H612 C574 0.929 . S
H613 C576 0.930 . S
H614 C582 0.929 . S
H615 C583 0.930 . S
Li616 N633 1.990 . S
Li616 O676 1.956 . S
Li616 O677 1.970 . S
Li616 O678 1.961 . S
Li617 N641 1.990 . S
Li617 O676 1.970 . S
Li617 O677 1.956 . S
Li617 O679 1.961 . S
Li618 N663 1.990 . S
Li618 O676 1.961 . S
Li618 O678 1.956 . S
Li618 O679 1.970 . S
Li619 N669 1.990 . S
Li619 O677 1.961 . S
Li619 O678 1.970 . S
Li619 O679 1.956 . S
C620 C622 1.348 . S
C620 C623 1.356 . S
C620 O676 1.325 . S
N621 C624 1.314 . S
N621 C625 1.279 . S
C622 C620 1.348 . S
C622 C624 1.353 . S
C622 H680 0.929 . S
C623 C620 1.356 . S
C623 C625 1.358 . S
C623 H681 0.930 . S
C624 N621 1.314 . S
C624 C622 1.353 . S
C624 H682 0.930 . S
C625 N621 1.279 . S
C625 C623 1.358 . S
C625 H683 0.930 . S
C626 C629 1.348 . S
C626 C630 1.356 . S
C626 O677 1.325 . S
C627 N628 1.279 . S
C627 C630 1.358 . S
C627 H684 0.930 . S
N628 C627 1.279 . S
N628 C631 1.314 . S
C629 C626 1.348 . S
C629 C631 1.353 . S
C629 H685 0.929 . S
C630 C626 1.356 . S
C630 C627 1.358 . S
C630 H686 0.930 . S
C631 N628 1.314 . S
C631 C629 1.353 . S
C631 H687 0.930 . S
C632 N633 1.314 . S
C632 C637 1.353 . S
C632 H638 0.930 . S
N633 Li616 1.990 . S
N633 C632 1.314 . S
N633 C635 1.279 . S
C634 C635 1.358 . S
C634 C636 1.356 . S
C634 H688 0.930 . S
C635 N633 1.279 . S
C635 C634 1.358 . S
C635 H639 0.930 . S
C636 C634 1.356 . S
C636 C637 1.348 . S
C637 C632 1.353 . S
C637 C636 1.348 . S
C637 H689 0.929 . S
H638 C632 0.930 . S
H639 C635 0.930 . S
C640 N641 1.314 . S
C640 C642 1.353 . S
C640 H646 0.930 . S
N641 Li617 1.990 . S
N641 C640 1.314 . S
N641 C644 1.279 . S
C642 C640 1.353 . S
C642 C645 1.348 . S
C642 H690 0.929 . S
C643 C644 1.358 . S
C643 C645 1.356 . S
C643 H691 0.930 . S
C644 N641 1.279 . S
C644 C643 1.358 . S
C644 H647 0.930 . S
C645 C642 1.348 . S
C645 C643 1.356 . S
H646 C640 0.930 . S
H647 C644 0.930 . S
C648 C650 1.348 . S
C648 C651 1.356 . S
C648 O678 1.325 . S
N649 C652 1.314 . S
N649 C653 1.279 . S
C650 C648 1.348 . S
C650 C652 1.353 . S
C650 H692 0.929 . S
C651 C648 1.356 . S
C651 C653 1.358 . S
C651 H693 0.930 . S
C652 N649 1.314 . S
C652 C650 1.353 . S
C652 H694 0.930 . S
C653 N649 1.279 . S
C653 C651 1.358 . S
C653 H695 0.930 . S
C654 C655 1.348 . S
C654 C656 1.356 . S
C654 O679 1.325 . S
C655 C654 1.348 . S
C655 C657 1.353 . S
C655 H696 0.929 . S
C656 C654 1.356 . S
C656 C658 1.358 . S
C656 H697 0.930 . S
C657 C655 1.353 . S
C657 N659 1.314 . S
C657 H698 0.930 . S
C658 C656 1.358 . S
C658 N659 1.279 . S
C658 H699 0.930 . S
N659 C657 1.314 . S
N659 C658 1.279 . S
C660 C662 1.353 . S
C660 N663 1.314 . S
C660 H666 0.930 . S
C661 N663 1.279 . S
C661 C664 1.358 . S
C661 H667 0.930 . S
C662 C660 1.353 . S
C662 C665 1.348 . S
C662 H700 0.929 . S
N663 Li618 1.990 . S
N663 C660 1.314 . S
N663 C661 1.279 . S
C664 C661 1.358 . S
C664 C665 1.356 . S
C664 H701 0.930 . S
C665 C662 1.348 . S
C665 C664 1.356 . S
H666 C660 0.930 . S
H667 C661 0.930 . S
C668 N669 1.314 . S
C668 C670 1.353 . S
C668 H674 0.930 . S
N669 Li619 1.990 . S
N669 C668 1.314 . S
N669 C672 1.279 . S
C670 C668 1.353 . S
C670 C673 1.348 . S
C670 H702 0.929 . S
C671 C672 1.358 . S
C671 C673 1.356 . S
C671 H703 0.930 . S
C672 N669 1.279 . S
C672 C671 1.358 . S
C672 H675 0.930 . S
C673 C670 1.348 . S
C673 C671 1.356 . S
H674 C668 0.930 . S
H675 C672 0.930 . S
O676 Li616 1.956 . S
O676 Li617 1.970 . S
O676 Li618 1.961 . S
O676 C620 1.325 . S
O677 Li616 1.970 . S
O677 Li617 1.956 . S
O677 Li619 1.961 . S
O677 C626 1.325 . S
O678 Li616 1.961 . S
O678 Li618 1.956 . S
O678 Li619 1.970 . S
O678 C648 1.325 . S
O679 Li617 1.961 . S
O679 Li618 1.970 . S
O679 Li619 1.956 . S
O679 C654 1.325 . S
H680 C622 0.929 . S
H681 C623 0.930 . S
H682 C624 0.930 . S
H683 C625 0.930 . S
H684 C627 0.930 . S
H685 C629 0.929 . S
H686 C630 0.930 . S
H687 C631 0.930 . S
H688 C634 0.930 . S
H689 C637 0.929 . S
H690 C642 0.929 . S
H691 C643 0.930 . S
H692 C650 0.929 . S
H693 C651 0.930 . S
H694 C652 0.930 . S
H695 C653 0.930 . S
H696 C655 0.929 . S
H697 C656 0.930 . S
H698 C657 0.930 . S
H699 C658 0.930 . S
H700 C662 0.929 . S
H701 C664 0.930 . S
H702 C670 0.929 . S
H703 C671 0.930 . S
H704 C712 0.929 . S
H705 C714 0.930 . S
H706 C716 0.930 . S
H707 C719 0.929 . S
H708 C722 0.930 . S
H709 C724 0.960 . S
H710 C724 0.960 . S
H711 C724 0.960 . S
C712 H704 0.929 . S
C712 C713 1.377 . S
C712 C714 1.384 . S
C713 C712 1.377 . S
C713 C719 1.390 . S
C714 H705 0.930 . S
C714 C712 1.384 . S
C714 C715 1.372 . S
C715 C714 1.372 . S
C715 C716 1.400 . S
C715 C720 1.490 . S
C716 H706 0.930 . S
C716 C715 1.400 . S
C716 C719 1.386 . S
H717 C733 0.930 . S
H718 C734 0.931 . S
C719 H707 0.929 . S
C719 C713 1.390 . S
C719 C716 1.386 . S
C720 C715 1.490 . S
C720 C722 1.395 1_545 S
C720 C723 1.403 . S
H721 C727 0.930 . S
C722 H708 0.930 . S
C722 C720 1.395 1_565 S
C722 C725 1.403 . S
C723 C720 1.403 . S
C723 C724 1.524 . S
C723 C727 1.400 . S
C724 H709 0.960 . S
C724 H710 0.960 . S
C724 H711 0.960 . S
C724 C723 1.524 . S
C725 C722 1.403 . S
C725 C726 1.392 . S
C725 C729 1.495 . S
C726 C725 1.392 . S
C726 C727 1.385 1_565 S
C726 C728 1.478 . S
C727 H721 0.930 . S
C727 C723 1.400 . S
C727 C726 1.385 1_545 S
C728 C726 1.478 . S
C728 C730 1.381 . S
C728 C734 1.383 . S
C729 C725 1.495 . S
C729 H735 0.959 1_554 S
C729 H736 0.961 . S
C729 H737 0.960 1_554 S
C730 C728 1.381 . S
C730 C731 1.394 . S
C730 H738 0.930 . S
C731 C730 1.394 . S
C731 C732 1.383 . S
C731 H739 0.929 . S
C732 C731 1.383 . S
C732 C733 1.377 . S
C733 H717 0.930 . S
C733 C732 1.377 . S
C733 C734 1.379 . S
C734 H718 0.931 . S
C734 C728 1.383 . S
C734 C733 1.379 . S
H735 C729 0.959 1_556 S
H736 C729 0.961 . S
H737 C729 0.960 1_556 S
H738 C730 0.930 . S
H739 C731 0.929 . S
H740 C748 0.929 . S
H741 C750 0.930 . S
H742 C752 0.930 . S
H743 C755 0.929 . S
H744 C758 0.930 . S
H745 C760 0.960 . S
H746 C760 0.960 . S
H747 C760 0.960 . S
C748 H740 0.929 . S
C748 C749 1.377 . S
C748 C750 1.384 . S
C749 C748 1.377 . S
C749 C755 1.390 . S
C750 H741 0.930 . S
C750 C748 1.384 . S
C750 C751 1.372 . S
C751 C750 1.372 . S
C751 C752 1.400 . S
C751 C756 1.490 . S
C752 H742 0.930 . S
C752 C751 1.400 . S
C752 C755 1.386 . S
H753 C769 0.930 . S
H754 C770 0.931 . S
C755 H743 0.929 . S
C755 C749 1.390 . S
C755 C752 1.386 . S
C756 C751 1.490 . S
C756 C758 1.395 . S
C756 C759 1.403 . S
H757 C763 0.930 . S
C758 H744 0.930 . S
C758 C756 1.395 . S
C758 C761 1.403 . S
C759 C756 1.403 . S
C759 C760 1.524 . S
C759 C763 1.400 . S
C760 H745 0.960 . S
C760 H746 0.960 . S
C760 H747 0.960 . S
C760 C759 1.524 . S
C761 C758 1.403 . S
C761 C762 1.392 . S
C761 C765 1.495 . S
C762 C761 1.392 . S
C762 C763 1.385 . S
C762 C764 1.478 . S
C763 H757 0.930 . S
C763 C759 1.400 . S
C763 C762 1.385 . S
C764 C762 1.478 . S
C764 C766 1.381 . S
C764 C770 1.383 . S
C765 C761 1.495 . S
C765 H771 0.959 . S
C765 H772 0.961 . S
C765 H773 0.960 . S
C766 C764 1.381 . S
C766 C767 1.394 . S
C766 H774 0.930 . S
C767 C766 1.394 . S
C767 C768 1.383 . S
C767 H775 0.929 . S
C768 C767 1.383 . S
C768 C769 1.377 . S
C769 H753 0.930 . S
C769 C768 1.377 . S
C769 C770 1.379 . S
C770 H754 0.931 . S
C770 C764 1.383 . S
C770 C769 1.379 . S
H771 C765 0.959 . S
H772 C765 0.961 . S
H773 C765 0.960 . S
H774 C766 0.930 . S
H775 C767 0.929 . S
H776 C784 0.929 . S
H777 C786 0.930 . S
H778 C788 0.930 1_545 S
H779 C791 0.929 . S
H780 C794 0.930 . S
H781 C796 0.960 . S
H782 C796 0.997 . S
H783 C796 0.960 . S
C784 H776 0.929 . S
C784 C785 1.377 . S
C784 C786 1.384 . S
C785 C784 1.377 . S
C785 C791 1.390 . S
C786 H777 0.930 . S
C786 C784 1.384 . S
C786 C787 1.372 . S
C787 C786 1.372 . S
C787 C788 1.400 . S
C787 C792 1.490 . S
C788 H778 0.930 1_565 S
C788 C787 1.400 . S
C788 C791 1.386 . S
H789 C805 0.930 . S
H790 C806 0.931 . S
C791 H779 0.929 . S
C791 C785 1.390 . S
C791 C788 1.386 . S
C792 C787 1.490 . S
C792 C794 1.395 . S
C792 C795 1.403 1_565 S
H793 C799 0.930 . S
C794 H780 0.930 . S
C794 C792 1.395 . S
C794 C797 1.403 . S
C795 C792 1.403 1_545 S
C795 C796 1.524 . S
C795 C799 1.400 . S
C796 H781 0.960 . S
C796 H782 0.997 . S
C796 H783 0.960 . S
C796 C795 1.524 . S
C797 C794 1.403 . S
C797 C798 1.392 1_565 S
C797 C801 1.495 . S
C798 C797 1.392 1_545 S
C798 C799 1.385 . S
C798 C800 1.478 . S
C799 H793 0.930 . S
C799 C795 1.400 . S
C799 C798 1.385 . S
C800 C798 1.478 . S
C800 C802 1.381 . S
C800 C806 1.383 . S
C801 C797 1.495 . S
C801 H807 0.959 . S
C801 H808 0.961 . S
C801 H809 0.960 . S
C802 C800 1.381 . S
C802 C803 1.394 . S
C802 H810 0.930 1_545 S
C803 C802 1.394 . S
C803 C804 1.383 . S
C803 H811 0.929 . S
C804 C803 1.383 . S
C804 C805 1.377 . S
C805 H789 0.930 . S
C805 C804 1.377 . S
C805 C806 1.379 . S
C806 H790 0.931 . S
C806 C800 1.383 . S
C806 C805 1.379 . S
H807 C801 0.959 . S
H808 C801 0.961 . S
H809 C801 0.960 . S
H810 C802 0.930 1_565 S
H811 C803 0.929 . S
H812 C820 0.929 . S
H813 C822 0.930 . S
H814 C824 0.930 . S
H815 C827 0.929 . S
H816 C830 0.930 . S
H817 C832 0.960 . S
H818 C832 0.960 . S
H819 C832 0.960 . S
C820 H812 0.929 . S
C820 C821 1.377 . S
C820 C822 1.384 . S
C821 C820 1.377 . S
C821 C827 1.390 . S
C822 H813 0.930 . S
C822 C820 1.384 . S
C822 C823 1.372 . S
C823 C822 1.372 . S
C823 C824 1.400 . S
C823 C828 1.490 . S
C824 H814 0.930 . S
C824 C823 1.400 . S
C824 C827 1.386 . S
H825 C841 0.930 . S
H826 C842 0.931 . S
C827 H815 0.929 . S
C827 C821 1.390 . S
C827 C824 1.386 . S
C828 C823 1.490 . S
C828 C830 1.395 . S
C828 C831 1.403 . S
H829 C835 0.930 . S
C830 H816 0.930 . S
C830 C828 1.395 . S
C830 C833 1.403 . S
C831 C828 1.403 . S
C831 C832 1.524 . S
C831 C835 1.400 . S
C832 H817 0.960 . S
C832 H818 0.960 . S
C832 H819 0.960 . S
C832 C831 1.524 . S
C833 C830 1.403 . S
C833 C834 1.392 . S
C833 C837 1.495 . S
C834 C833 1.392 . S
C834 C835 1.385 . S
C834 C836 1.478 . S
C835 H829 0.930 . S
C835 C831 1.400 . S
C835 C834 1.385 . S
C836 C834 1.478 . S
C836 C838 1.381 . S
C836 C842 1.383 . S
C837 C833 1.495 . S
C837 H843 0.959 . S
C837 H844 0.961 . S
C837 H845 0.960 . S
C838 C836 1.381 . S
C838 C839 1.394 . S
C838 H846 0.930 . S
C839 C838 1.394 . S
C839 C840 1.383 . S
C839 H847 0.929 . S
C840 C839 1.383 . S
C840 C841 1.377 . S
C841 H825 0.930 . S
C841 C840 1.377 . S
C841 C842 1.379 . S
C842 H826 0.931 . S
C842 C836 1.383 . S
C842 C841 1.379 . S
H843 C837 0.959 . S
H844 C837 0.961 . S
H845 C837 0.960 . S
H846 C838 0.930 . S
H847 C839 0.929 . S
H848 C856 0.929 . S
H849 C858 0.930 . S
H850 C860 0.930 . S
H851 C863 0.929 . S
H852 C866 0.930 . S
H853 C868 0.960 . S
H854 C868 0.960 . S
H855 C868 0.960 . S
C856 H848 0.929 . S
C856 C857 1.377 . S
C856 C858 1.384 . S
C857 C856 1.377 . S
C857 C863 1.390 . S
C858 H849 0.930 . S
C858 C856 1.384 . S
C858 C859 1.372 . S
C859 C858 1.372 . S
C859 C860 1.400 . S
C859 C864 1.490 . S
C860 H850 0.930 . S
C860 C859 1.400 . S
C860 C863 1.386 . S
H861 C877 0.930 . S
H862 C878 0.931 . S
C863 H851 0.929 . S
C863 C857 1.390 . S
C863 C860 1.386 . S
C864 C859 1.490 . S
C864 C866 1.395 . S
C864 C867 1.403 . S
H865 C871 0.930 . S
C866 H852 0.930 . S
C866 C864 1.395 . S
C866 C869 1.403 . S
C867 C864 1.403 . S
C867 C868 1.524 . S
C867 C871 1.400 . S
C868 H853 0.960 . S
C868 H854 0.960 . S
C868 H855 0.960 . S
C868 C867 1.524 . S
C869 C866 1.403 . S
C869 C870 1.392 . S
C869 C873 1.495 . S
C870 C869 1.392 . S
C870 C871 1.385 . S
C870 C872 1.478 . S
C871 H865 0.930 . S
C871 C867 1.400 . S
C871 C870 1.385 . S
C872 C870 1.478 . S
C872 C874 1.381 . S
C872 C878 1.383 . S
C873 C869 1.495 . S
C873 H879 0.959 . S
C873 H880 0.961 . S
C873 H881 0.960 . S
C874 C872 1.381 . S
C874 C875 1.394 . S
C874 H882 0.930 . S
C875 C874 1.394 . S
C875 C876 1.383 . S
C875 H883 0.929 . S
C876 C875 1.383 . S
C876 C877 1.377 . S
C877 H861 0.930 . S
C877 C876 1.377 . S
C877 C878 1.379 . S
C878 H862 0.931 . S
C878 C872 1.383 . S
C878 C877 1.379 . S
H879 C873 0.959 . S
H880 C873 0.961 . S
H881 C873 0.960 . S
H882 C874 0.930 . S
H883 C875 0.929 . S
H884 C892 0.929 . S
H885 C894 0.930 . S
H886 C896 0.930 . S
H887 C899 0.929 . S
H888 C902 0.930 . S
H889 C904 0.960 . S
H890 C904 0.960 . S
H891 C904 0.960 . S
C892 H884 0.929 . S
C892 C893 1.377 . S
C892 C894 1.384 . S
C893 C892 1.377 . S
C893 C899 1.390 . S
C894 H885 0.930 . S
C894 C892 1.384 . S
C894 C895 1.372 . S
C895 C894 1.372 . S
C895 C896 1.400 . S
C895 C900 1.490 . S
C896 H886 0.930 . S
C896 C895 1.400 . S
C896 C899 1.386 . S
H897 C913 0.930 . S
H898 C914 0.931 . S
C899 H887 0.929 . S
C899 C893 1.390 . S
C899 C896 1.386 . S
C900 C895 1.490 . S
C900 C902 1.395 . S
C900 C903 1.403 . S
H901 C907 0.930 . S
C902 H888 0.930 . S
C902 C900 1.395 . S
C902 C905 1.403 . S
C903 C900 1.403 . S
C903 C904 1.524 . S
C903 C907 1.400 . S
C904 H889 0.960 . S
C904 H890 0.960 . S
C904 H891 0.960 . S
C904 C903 1.524 . S
C905 C902 1.403 . S
C905 C906 1.392 . S
C905 C909 1.495 . S
C906 C905 1.392 . S
C906 C907 1.385 . S
C906 C908 1.478 . S
C907 H901 0.930 . S
C907 C903 1.400 . S
C907 C906 1.385 . S
C908 C906 1.478 . S
C908 C910 1.381 . S
C908 C914 1.383 . S
C909 C905 1.495 . S
C909 H915 0.959 . S
C909 H916 0.961 . S
C909 H917 0.960 . S
C910 C908 1.381 . S
C910 C911 1.394 . S
C910 H918 0.930 . S
C911 C910 1.394 . S
C911 C912 1.383 . S
C911 H919 0.929 . S
C912 C911 1.383 . S
C912 C913 1.377 . S
C913 H897 0.930 . S
C913 C912 1.377 . S
C913 C914 1.379 . S
C914 H898 0.931 . S
C914 C908 1.383 . S
C914 C913 1.379 . S
H915 C909 0.959 . S
H916 C909 0.961 . S
H917 C909 0.960 . S
H918 C910 0.930 . S
H919 C911 0.929 . S
H920 C928 0.929 . S
H921 C930 0.930 . S
H922 C932 0.930 . S
H923 C935 0.929 . S
H924 C938 0.930 . S
H925 C940 0.960 . S
H926 C940 0.960 . S
H927 C940 0.960 . S
C928 H920 0.929 . S
C928 C929 1.377 . S
C928 C930 1.384 . S
C929 C928 1.377 . S
C929 C935 1.390 . S
C930 H921 0.930 . S
C930 C928 1.384 . S
C930 C931 1.372 . S
C931 C930 1.372 . S
C931 C932 1.400 . S
C931 C936 1.490 . S
C932 H922 0.930 . S
C932 C931 1.400 . S
C932 C935 1.386 . S
H933 C949 0.930 . S
H934 C950 0.931 . S
C935 H923 0.929 . S
C935 C929 1.390 . S
C935 C932 1.386 . S
C936 C931 1.490 . S
C936 C938 1.395 . S
C936 C939 1.403 . S
H937 C943 0.930 . S
C938 H924 0.930 . S
C938 C936 1.395 . S
C938 C941 1.403 . S
C939 C936 1.403 . S
C939 C940 1.524 . S
C939 C943 1.400 . S
C940 H925 0.960 . S
C940 H926 0.960 . S
C940 H927 0.960 . S
C940 C939 1.524 . S
C941 C938 1.403 . S
C941 C942 1.392 . S
C941 C945 1.495 . S
C942 C941 1.392 . S
C942 C943 1.385 . S
C942 C944 1.478 . S
C943 H937 0.930 . S
C943 C939 1.400 . S
C943 C942 1.385 . S
C944 C942 1.478 . S
C944 C946 1.381 . S
C944 C950 1.383 . S
C945 C941 1.495 . S
C945 H951 0.959 . S
C945 H952 0.961 . S
C945 H953 0.960 . S
C946 C944 1.381 . S
C946 C947 1.394 . S
C946 H954 0.930 . S
C947 C946 1.394 . S
C947 C948 1.383 . S
C947 H955 0.929 . S
C948 C947 1.383 . S
C948 C949 1.377 . S
C949 H933 0.930 . S
C949 C948 1.377 . S
C949 C950 1.379 . S
C950 H934 0.931 . S
C950 C944 1.383 . S
C950 C949 1.379 . S
H951 C945 0.959 . S
H952 C945 0.961 . S
H953 C945 0.960 . S
H954 C946 0.930 . S
H955 C947 0.929 . S
H956 C964 0.929 . S
H957 C966 0.930 . S
H958 C968 0.930 . S
H959 C971 0.929 . S
H960 C974 0.930 . S
H961 C976 0.960 . S
H962 C976 0.960 . S
H963 C976 0.960 . S
C964 H956 0.929 . S
C964 C965 1.377 . S
C964 C966 1.384 . S
C965 C964 1.377 . S
C965 C971 1.390 . S
C966 H957 0.930 . S
C966 C964 1.384 . S
C966 C967 1.372 . S
C967 C966 1.372 . S
C967 C968 1.400 . S
C967 C972 1.490 . S
C968 H958 0.930 . S
C968 C967 1.400 . S
C968 C971 1.386 . S
H969 C985 0.930 . S
H970 C986 0.931 . S
C971 H959 0.929 . S
C971 C965 1.390 . S
C971 C968 1.386 . S
C972 C967 1.490 . S
C972 C974 1.395 . S
C972 C975 1.403 . S
H973 C979 0.930 . S
C974 H960 0.930 . S
C974 C972 1.395 . S
C974 C977 1.403 . S
C975 C972 1.403 . S
C975 C976 1.524 . S
C975 C979 1.400 . S
C976 H961 0.960 . S
C976 H962 0.960 . S
C976 H963 0.960 . S
C976 C975 1.524 . S
C977 C974 1.403 . S
C977 C978 1.392 . S
C977 C981 1.495 . S
C978 C977 1.392 . S
C978 C979 1.385 . S
C978 C980 1.478 . S
C979 H973 0.930 . S
C979 C975 1.400 . S
C979 C978 1.385 . S
C980 C978 1.478 . S
C980 C982 1.381 . S
C980 C986 1.383 . S
C981 C977 1.495 . S
C981 H987 0.959 . S
C981 H988 0.961 . S
C981 H989 0.960 . S
C982 C980 1.381 . S
C982 C983 1.394 . S
C982 H990 0.930 . S
C983 C982 1.394 . S
C983 C984 1.383 . S
C983 H991 0.929 . S
C984 C983 1.383 . S
C984 C985 1.377 . S
C985 H969 0.930 . S
C985 C984 1.377 . S
C985 C986 1.379 . S
C986 H970 0.931 . S
C986 C980 1.383 . S
C986 C985 1.379 . S
H987 C981 0.959 . S
H988 C981 0.961 . S
H989 C981 0.960 . S
H990 C982 0.930 . S
H991 C983 0.929 . S
H992 C1000 0.929 1_556 S
H993 C1002 0.930 . S
H994 C1004 0.930 . S
H995 C1007 0.929 . S
H996 C1010 0.930 . S
H997 C1012 0.960 . S
H998 C1012 0.960 . S
H999 C1012 0.960 1_554 S
C1000 H992 0.929 1_554 S
C1000 C1001 1.377 . S
C1000 C1002 1.384 1_554 S
C1001 C1000 1.377 . S
C1001 C1007 1.390 . S
C1002 H993 0.930 . S
C1002 C1000 1.384 1_556 S
C1002 C1003 1.372 1_556 S
C1003 C1002 1.372 1_554 S
C1003 C1004 1.400 . S
C1003 C1008 1.490 . S
C1004 H994 0.930 . S
C1004 C1003 1.400 . S
C1004 C1007 1.386 . S
H1005 C1021 0.943 . S
H1006 C1022 0.931 . S
C1007 H995 0.929 . S
C1007 C1001 1.390 . S
C1007 C1004 1.386 . S
C1008 C1003 1.490 . S
C1008 C1010 1.395 . S
C1008 C1011 1.403 1_554 S
H1009 C1015 0.930 . S
C1010 H996 0.930 . S
C1010 C1008 1.395 . S
C1010 C1013 1.403 . S
C1011 C1008 1.403 1_556 S
C1011 C1012 1.524 . S
C1011 C1015 1.400 . S
C1012 H997 0.960 . S
C1012 H998 0.960 . S
C1012 H999 0.960 1_556 S
C1012 C1011 1.524 . S
C1013 C1010 1.403 . S
C1013 C1014 1.392 1_554 S
C1013 C1017 1.495 . S
C1014 C1013 1.392 1_556 S
C1014 C1015 1.385 . S
C1014 C1016 1.478 . S
C1015 H1009 0.930 . S
C1015 C1011 1.400 . S
C1015 C1014 1.385 . S
C1016 C1014 1.478 . S
C1016 C1018 1.381 . S
C1016 C1022 1.383 1_556 S
C1017 C1013 1.495 . S
C1017 H1023 0.959 . S
C1017 H1024 0.961 . S
C1017 H1025 0.960 1_554 S
C1018 C1016 1.381 . S
C1018 C1019 1.394 . S
C1018 H1026 0.930 . S
C1019 C1018 1.394 . S
C1019 C1020 1.383 . S
C1019 H1027 0.929 . S
C1020 C1019 1.383 . S
C1020 C1021 1.359 1_556 S
C1021 H1005 0.943 . S
C1021 C1020 1.359 1_554 S
C1021 C1022 1.384 . S
C1022 H1006 0.931 . S
C1022 C1016 1.383 1_554 S
C1022 C1021 1.384 . S
H1023 C1017 0.959 . S
H1024 C1017 0.961 . S
H1025 C1017 0.960 1_556 S
H1026 C1018 0.930 . S
H1027 C1019 0.929 . S
H1028 C1036 0.929 1_556 S
H1029 C1038 0.930 . S
H1030 C1040 0.930 1_655 S
H1031 C1043 0.929 . S
H1032 C1046 0.930 . S
H1033 C1048 0.960 . S
H1034 C1048 0.960 . S
H1035 C1048 0.960 1_554 S
C1036 H1028 0.929 1_554 S
C1036 C1037 1.377 . S
C1036 C1038 1.384 1_554 S
C1037 C1036 1.377 . S
C1037 C1043 1.390 . S
C1038 H1029 0.930 . S
C1038 C1036 1.384 1_556 S
C1038 C1039 1.372 1_556 S
C1039 C1038 1.372 1_554 S
C1039 C1040 1.400 . S
C1039 C1044 1.490 . S
C1040 H1030 0.930 1_455 S
C1040 C1039 1.400 . S
C1040 C1043 1.386 . S
H1041 C1057 0.932 1_554 S
H1042 C1058 0.931 . S
C1043 H1031 0.929 . S
C1043 C1037 1.390 . S
C1043 C1040 1.386 . S
C1044 C1039 1.490 . S
C1044 C1046 1.395 . S
C1044 C1047 1.403 1_454 S
H1045 C1051 0.930 . S
C1046 H1032 0.930 . S
C1046 C1044 1.395 . S
C1046 C1049 1.403 . S
C1047 C1044 1.403 1_656 S
C1047 C1048 1.524 . S
C1047 C1051 1.400 . S
C1048 H1033 0.960 . S
C1048 H1034 0.960 . S
C1048 H1035 0.960 1_556 S
C1048 C1047 1.524 . S
C1049 C1046 1.403 . S
C1049 C1050 1.392 1_454 S
C1049 C1053 1.495 . S
C1050 C1049 1.392 1_656 S
C1050 C1051 1.385 . S
C1050 C1052 1.478 . S
C1051 H1045 0.930 . S
C1051 C1047 1.400 . S
C1051 C1050 1.385 . S
C1052 C1050 1.478 . S
C1052 C1054 1.381 . S
C1052 C1058 1.383 1_556 S
C1053 C1049 1.495 . S
C1053 H1059 0.959 . S
C1053 H1060 0.961 . S
C1053 H1061 0.960 1_554 S
C1054 C1052 1.381 . S
C1054 C1055 1.394 . S
C1054 H1062 0.930 1_655 S
C1055 C1054 1.394 . S
C1055 C1056 1.383 . S
C1055 H1063 0.929 . S
C1056 C1055 1.383 . S
C1056 C1057 1.374 . S
C1057 H1041 0.932 1_556 S
C1057 C1056 1.374 . S
C1057 C1058 1.380 1_556 S
C1058 H1042 0.931 . S
C1058 C1052 1.383 1_554 S
C1058 C1057 1.380 1_554 S
H1059 C1053 0.959 . S
H1060 C1053 0.961 . S
H1061 C1053 0.960 1_556 S
H1062 C1054 0.930 1_455 S
H1063 C1055 0.929 . S
H1064 C1072 0.929 . S
H1065 C1074 0.930 . S
H1066 C1076 0.930 . S
H1067 C1079 0.929 . S
H1068 C1082 0.930 . S
H1069 C1084 0.960 . S
H1070 C1084 0.960 . S
H1071 C1084 0.960 . S
C1072 H1064 0.929 . S
C1072 C1073 1.377 . S
C1072 C1074 1.384 . S
C1073 C1072 1.377 . S
C1073 C1079 1.390 . S
C1074 H1065 0.930 . S
C1074 C1072 1.384 . S
C1074 C1075 1.372 . S
C1075 C1074 1.372 . S
C1075 C1076 1.400 . S
C1075 C1080 1.490 . S
C1076 H1066 0.930 . S
C1076 C1075 1.400 . S
C1076 C1079 1.386 . S
H1077 C1093 0.930 . S
H1078 C1094 0.931 . S
C1079 H1067 0.929 . S
C1079 C1073 1.390 . S
C1079 C1076 1.386 . S
C1080 C1075 1.490 . S
C1080 C1082 1.395 . S
C1080 C1083 1.403 . S
H1081 C1087 0.930 . S
C1082 H1068 0.930 . S
C1082 C1080 1.395 . S
C1082 C1085 1.403 1_565 S
C1083 C1080 1.403 . S
C1083 C1084 1.524 . S
C1083 C1087 1.400 1_565 S
C1084 H1069 0.960 . S
C1084 H1070 0.960 . S
C1084 H1071 0.960 . S
C1084 C1083 1.524 . S
C1085 C1082 1.403 1_545 S
C1085 C1086 1.392 . S
C1085 C1089 1.495 . S
C1086 C1085 1.392 . S
C1086 C1087 1.385 . S
C1086 C1088 1.478 . S
C1087 H1081 0.930 . S
C1087 C1083 1.400 1_545 S
C1087 C1086 1.385 . S
C1088 C1086 1.478 . S
C1088 C1090 1.381 . S
C1088 C1094 1.383 . S
C1089 C1085 1.495 . S
C1089 H1095 0.959 . S
C1089 H1096 0.961 . S
C1089 H1097 0.960 . S
C1090 C1088 1.381 . S
C1090 C1091 1.394 . S
C1090 H1098 0.930 . S
C1091 C1090 1.394 . S
C1091 C1092 1.383 . S
C1091 H1099 0.929 . S
C1092 C1091 1.383 . S
C1092 C1093 1.377 . S
C1093 H1077 0.930 . S
C1093 C1092 1.377 . S
C1093 C1094 1.379 . S
C1094 H1078 0.931 . S
C1094 C1088 1.383 . S
C1094 C1093 1.379 . S
H1095 C1089 0.959 . S
H1096 C1089 0.961 . S
H1097 C1089 0.960 . S
H1098 C1090 0.930 . S
H1099 C1091 0.929 . S
H1100 C1108 0.929 . S
H1101 C1110 0.930 . S
H1102 C1112 0.930 . S
H1103 C1115 0.929 . S
H1104 C1118 0.930 . S
H1105 C1120 0.960 . S
H1106 C1120 0.960 . S
H1107 C1120 0.960 1_655 S
C1108 H1100 0.929 . S
C1108 C1109 1.377 . S
C1108 C1110 1.384 . S
C1109 C1108 1.377 . S
C1109 C1115 1.390 . S
C1110 H1101 0.930 . S
C1110 C1108 1.384 . S
C1110 C1111 1.372 . S
C1111 C1110 1.372 . S
C1111 C1112 1.400 . S
C1111 C1116 1.490 . S
C1112 H1102 0.930 . S
C1112 C1111 1.400 . S
C1112 C1115 1.386 . S
H1113 C1129 0.930 . S
H1114 C1130 0.910 1_655 S
C1115 H1103 0.929 . S
C1115 C1109 1.390 . S
C1115 C1112 1.386 . S
C1116 C1111 1.490 . S
C1116 C1118 1.395 . S
C1116 C1119 1.403 1_655 S
H1117 C1123 0.930 . S
C1118 H1104 0.930 . S
C1118 C1116 1.395 . S
C1118 C1121 1.403 1_545 S
C1119 C1116 1.403 1_455 S
C1119 C1120 1.524 . S
C1119 C1123 1.400 1_545 S
C1120 H1105 0.960 . S
C1120 H1106 0.960 . S
C1120 H1107 0.960 1_455 S
C1120 C1119 1.524 . S
C1121 C1118 1.403 1_565 S
C1121 C1122 1.392 1_655 S
C1121 C1125 1.495 . S
C1122 C1121 1.392 1_455 S
C1122 C1123 1.385 . S
C1122 C1124 1.478 . S
C1123 H1117 0.930 . S
C1123 C1119 1.400 1_565 S
C1123 C1122 1.385 . S
C1124 C1122 1.478 . S
C1124 C1126 1.381 . S
C1124 C1130 1.383 . S
C1125 C1121 1.495 . S
C1125 H1131 0.959 . S
C1125 H1132 0.961 . S
C1125 H1133 0.960 1_655 S
C1126 C1124 1.381 . S
C1126 C1127 1.394 . S
C1126 H1134 0.930 . S
C1127 C1126 1.394 . S
C1127 C1128 1.383 . S
C1127 H1135 0.929 . S
C1128 C1127 1.383 . S
C1128 C1129 1.377 . S
C1129 H1113 0.930 . S
C1129 C1128 1.377 . S
C1129 C1130 1.379 . S
C1130 H1114 0.910 1_455 S
C1130 C1124 1.383 . S
C1130 C1129 1.379 . S
H1131 C1125 0.959 . S
H1132 C1125 0.961 . S
H1133 C1125 0.960 1_455 S
H1134 C1126 0.930 . S
H1135 C1127 0.929 . S
H1136 C1144 0.929 . S
H1137 C1146 0.930 . S
H1138 C1148 0.930 . S
H1139 C1151 0.929 . S
H1140 C1154 0.930 . S
H1141 C1156 0.960 . S
H1142 C1156 0.960 . S
H1143 C1156 0.960 . S
C1144 H1136 0.929 . S
C1144 C1145 1.377 . S
C1144 C1146 1.384 . S
C1145 C1144 1.377 . S
C1145 C1151 1.390 . S
C1146 H1137 0.930 . S
C1146 C1144 1.384 . S
C1146 C1147 1.372 . S
C1147 C1146 1.372 . S
C1147 C1148 1.400 . S
C1147 C1152 1.490 . S
C1148 H1138 0.930 . S
C1148 C1147 1.400 . S
C1148 C1151 1.386 . S
H1149 C1165 0.930 . S
H1150 C1166 0.931 . S
C1151 H1139 0.929 . S
C1151 C1145 1.390 . S
C1151 C1148 1.386 . S
C1152 C1147 1.490 . S
C1152 C1154 1.395 . S
C1152 C1155 1.403 . S
H1153 C1159 0.930 . S
C1154 H1140 0.930 . S
C1154 C1152 1.395 . S
C1154 C1157 1.403 . S
C1155 C1152 1.403 . S
C1155 C1156 1.524 . S
C1155 C1159 1.400 . S
C1156 H1141 0.960 . S
C1156 H1142 0.960 . S
C1156 H1143 0.960 . S
C1156 C1155 1.524 . S
C1157 C1154 1.403 . S
C1157 C1158 1.392 . S
C1157 C1161 1.495 . S
C1158 C1157 1.392 . S
C1158 C1159 1.385 . S
C1158 C1160 1.478 . S
C1159 H1153 0.930 . S
C1159 C1155 1.400 . S
C1159 C1158 1.385 . S
C1160 C1158 1.478 . S
C1160 C1162 1.381 . S
C1160 C1166 1.383 . S
C1161 C1157 1.495 . S
C1161 H1167 0.959 . S
C1161 H1168 0.961 . S
C1161 H1169 0.960 . S
C1162 C1160 1.381 . S
C1162 C1163 1.394 . S
C1162 H1170 0.930 . S
C1163 C1162 1.394 . S
C1163 C1164 1.383 . S
C1163 H1171 0.929 . S
C1164 C1163 1.383 . S
C1164 C1165 1.377 . S
C1165 H1149 0.930 . S
C1165 C1164 1.377 . S
C1165 C1166 1.379 . S
C1166 H1150 0.931 . S
C1166 C1160 1.383 . S
C1166 C1165 1.379 . S
H1167 C1161 0.959 . S
H1168 C1161 0.961 . S
H1169 C1161 0.960 . S
H1170 C1162 0.930 . S
H1171 C1163 0.929 . S
H1172 C1180 0.929 . S
H1173 C1182 0.930 . S
H1174 C1184 0.930 . S
H1175 C1187 0.929 . S
H1176 C1190 0.930 . S
H1177 C1192 0.960 . S
H1178 C1192 0.960 . S
H1179 C1192 0.960 . S
C1180 H1172 0.929 . S
C1180 C1181 1.377 . S
C1180 C1182 1.384 . S
C1181 C1180 1.377 . S
C1181 C1187 1.390 . S
C1182 H1173 0.930 . S
C1182 C1180 1.384 . S
C1182 C1183 1.372 . S
C1183 C1182 1.372 . S
C1183 C1184 1.400 . S
C1183 C1188 1.490 . S
C1184 H1174 0.930 . S
C1184 C1183 1.400 . S
C1184 C1187 1.386 . S
H1185 C1201 0.930 . S
H1186 C1202 0.931 . S
C1187 H1175 0.929 . S
C1187 C1181 1.390 . S
C1187 C1184 1.386 . S
C1188 C1183 1.490 . S
C1188 C1190 1.395 . S
C1188 C1191 1.403 1_545 S
H1189 C1195 0.930 . S
C1190 H1176 0.930 . S
C1190 C1188 1.395 . S
C1190 C1193 1.403 . S
C1191 C1188 1.403 1_565 S
C1191 C1192 1.524 . S
C1191 C1195 1.400 . S
C1192 H1177 0.960 . S
C1192 H1178 0.960 . S
C1192 H1179 0.960 . S
C1192 C1191 1.524 . S
C1193 C1190 1.403 . S
C1193 C1194 1.392 1_545 S
C1193 C1197 1.495 . S
C1194 C1193 1.392 1_565 S
C1194 C1195 1.385 . S
C1194 C1196 1.478 . S
C1195 H1189 0.930 . S
C1195 C1191 1.400 . S
C1195 C1194 1.385 . S
C1196 C1194 1.478 . S
C1196 C1198 1.381 . S
C1196 C1202 1.383 . S
C1197 C1193 1.495 . S
C1197 H1203 0.959 . S
C1197 H1204 0.961 . S
C1197 H1205 0.960 . S
C1198 C1196 1.381 . S
C1198 C1199 1.394 . S
C1198 H1206 0.930 . S
C1199 C1198 1.394 . S
C1199 C1200 1.383 . S
C1199 H1207 0.929 . S
C1200 C1199 1.383 . S
C1200 C1201 1.377 . S
C1201 H1185 0.930 . S
C1201 C1200 1.377 . S
C1201 C1202 1.379 . S
C1202 H1186 0.931 . S
C1202 C1196 1.383 . S
C1202 C1201 1.379 . S
H1203 C1197 0.959 . S
H1204 C1197 0.961 . S
H1205 C1197 0.960 . S
H1206 C1198 0.930 . S
H1207 C1199 0.929 . S
H1208 C1216 0.929 . S
H1209 C1218 0.930 . S
H1210 C1220 0.930 . S
H1211 C1223 0.929 . S
H1212 C1226 0.930 . S
H1213 C1228 0.960 . S
H1214 C1228 0.960 . S
H1215 C1228 0.960 . S
C1216 H1208 0.929 . S
C1216 C1217 1.377 . S
C1216 C1218 1.384 . S
C1217 C1216 1.377 . S
C1217 C1223 1.390 . S
C1218 H1209 0.930 . S
C1218 C1216 1.384 . S
C1218 C1219 1.372 . S
C1219 C1218 1.372 . S
C1219 C1220 1.400 . S
C1219 C1224 1.490 . S
C1220 H1210 0.930 . S
C1220 C1219 1.400 . S
C1220 C1223 1.386 . S
H1221 C1237 0.930 . S
H1222 C1238 0.931 . S
C1223 H1211 0.929 . S
C1223 C1217 1.390 . S
C1223 C1220 1.386 . S
C1224 C1219 1.490 . S
C1224 C1226 1.395 . S
C1224 C1227 1.403 . S
H1225 C1231 0.930 . S
C1226 H1212 0.930 . S
C1226 C1224 1.395 . S
C1226 C1229 1.403 . S
C1227 C1224 1.403 . S
C1227 C1228 1.524 . S
C1227 C1231 1.400 . S
C1228 H1213 0.960 . S
C1228 H1214 0.960 . S
C1228 H1215 0.960 . S
C1228 C1227 1.524 . S
C1229 C1226 1.403 . S
C1229 C1230 1.392 . S
C1229 C1233 1.495 . S
C1230 C1229 1.392 . S
C1230 C1231 1.385 . S
C1230 C1232 1.478 . S
C1231 H1225 0.930 . S
C1231 C1227 1.400 . S
C1231 C1230 1.385 . S
C1232 C1230 1.478 . S
C1232 C1234 1.381 . S
C1232 C1238 1.383 . S
C1233 C1229 1.495 . S
C1233 H1239 0.959 . S
C1233 H1240 0.961 . S
C1233 H1241 0.960 . S
C1234 C1232 1.381 . S
C1234 C1235 1.394 . S
C1234 H1242 0.930 . S
C1235 C1234 1.394 . S
C1235 C1236 1.383 . S
C1235 H1243 0.929 . S
C1236 C1235 1.383 . S
C1236 C1237 1.377 . S
C1237 H1221 0.930 . S
C1237 C1236 1.377 . S
C1237 C1238 1.379 . S
C1238 H1222 0.931 . S
C1238 C1232 1.383 . S
C1238 C1237 1.379 . S
H1239 C1233 0.959 . S
H1240 C1233 0.961 . S
H1241 C1233 0.960 . S
H1242 C1234 0.930 . S
H1243 C1235 0.929 . S
H1244 C1252 0.929 . S
H1245 C1254 0.930 . S
H1246 C1256 0.930 . S
H1247 C1259 0.929 . S
H1248 C1262 0.930 . S
H1249 C1264 0.960 . S
H1250 C1264 0.960 . S
H1251 C1264 0.960 . S
C1252 H1244 0.929 . S
C1252 C1253 1.377 . S
C1252 C1254 1.384 . S
C1253 C1252 1.377 . S
C1253 C1259 1.390 . S
C1254 H1245 0.930 . S
C1254 C1252 1.384 . S
C1254 C1255 1.372 . S
C1255 C1254 1.372 . S
C1255 C1256 1.400 . S
C1255 C1260 1.490 . S
C1256 H1246 0.930 . S
C1256 C1255 1.400 . S
C1256 C1259 1.386 . S
H1257 C1273 0.930 . S
H1258 C1274 0.931 . S
C1259 H1247 0.929 . S
C1259 C1253 1.390 . S
C1259 C1256 1.386 . S
C1260 C1255 1.490 . S
C1260 C1262 1.395 . S
C1260 C1263 1.403 1_565 S
H1261 C1267 0.930 . S
C1262 H1248 0.930 . S
C1262 C1260 1.395 . S
C1262 C1265 1.403 . S
C1263 C1260 1.403 1_545 S
C1263 C1264 1.524 . S
C1263 C1267 1.400 . S
C1264 H1249 0.960 . S
C1264 H1250 0.960 . S
C1264 H1251 0.960 . S
C1264 C1263 1.524 . S
C1265 C1262 1.403 . S
C1265 C1266 1.392 1_565 S
C1265 C1269 1.495 . S
C1266 C1265 1.392 1_545 S
C1266 C1267 1.385 . S
C1266 C1268 1.478 . S
C1267 H1261 0.930 . S
C1267 C1263 1.400 . S
C1267 C1266 1.385 . S
C1268 C1266 1.478 . S
C1268 C1270 1.381 . S
C1268 C1274 1.383 . S
C1269 C1265 1.495 . S
C1269 H1275 0.959 . S
C1269 H1276 0.961 . S
C1269 H1277 0.960 . S
C1270 C1268 1.381 . S
C1270 C1271 1.394 . S
C1270 H1278 0.930 . S
C1271 C1270 1.394 . S
C1271 C1272 1.383 . S
C1271 H1279 0.929 . S
C1272 C1271 1.383 . S
C1272 C1273 1.377 . S
C1273 H1257 0.930 . S
C1273 C1272 1.377 . S
C1273 C1274 1.379 . S
C1274 H1258 0.931 . S
C1274 C1268 1.383 . S
C1274 C1273 1.379 . S
H1275 C1269 0.959 . S
H1276 C1269 0.961 . S
H1277 C1269 0.960 . S
H1278 C1270 0.930 . S
H1279 C1271 0.929 . S
C713 C49 1.675 . S
C732 C137 1.668 . S
C749 C284 1.682 . S
C768 C205 1.700 . S
C785 C401 1.691 . S
C804 C489 1.691 . S
C821 C557 1.684 . S
C840 C636 1.658 . S
C857 C29 1.606 . S
C876 C225 1.613 . S
C893 C321 1.604 . S
C912 C117 1.589 . S
C929 C409 1.605 . S
C948 C548 1.586 . S
C965 C645 1.604 . S
C984 C497 1.598 . S
C1001 C20 1.995 . S
C1020 C372 2.010 . S
C1037 C108 1.994 . S
C1056 C460 2.010 . S
C1073 C585 1.986 . S
C1092 C233 2.010 . S
C1109 C665 1.991 . S
C1128 C313 2.013 . S
C1145 C145 0.366 . S
C1164 C57 0.350 . S
C1181 C196 0.373 . S
C1200 C293 0.379 . S
C1217 C381 0.339 . S
C1236 C469 0.390 . S
C1253 C577 0.340 . S
C1272 C673 0.370 . S
