# Generated by pormake.
# Topology wji, (4)-cn, num edge types: 1
# Building blocks:
#     Node 0, Type 0, BuildingBlock: KUFVIS_clean_sbu_0, # of connection points: 4
#     Node 1, Type 0, BuildingBlock: KUFVIS_clean_sbu_0, # of connection points: 4
#     Node 2, Type 0, BuildingBlock: KUFVIS_clean_sbu_0, # of connection points: 4
#     Node 3, Type 0, BuildingBlock: KUFVIS_clean_sbu_0, # of connection points: 4
#     Node 4, Type 0, BuildingBlock: KUFVIS_clean_sbu_0, # of connection points: 4
#     Node 5, Type 0, BuildingBlock: KUFVIS_clean_sbu_0, # of connection points: 4
#     Node 6, Type 0, BuildingBlock: KUFVIS_clean_sbu_0, # of connection points: 4
#     Node 7, Type 0, BuildingBlock: KUFVIS_clean_sbu_0, # of connection points: 4
#     Node 8, Type 0, BuildingBlock: KUFVIS_clean_sbu_0, # of connection points: 4
#     Node 9, Type 0, BuildingBlock: KUFVIS_clean_sbu_0, # of connection points: 4
#     Node 10, Type 0, BuildingBlock: KUFVIS_clean_sbu_0, # of connection points: 4
#     Node 11, Type 0, BuildingBlock: KUFVIS_clean_sbu_0, # of connection points: 4
#     Edge 12, Type (0, 0), BuildingBlock: CIFDUS_clean_linker_0, # of connection points: 2
#     Edge 13, Type (0, 0), BuildingBlock: CIFDUS_clean_linker_0, # of connection points: 2
#     Edge 14, Type (0, 0), BuildingBlock: CIFDUS_clean_linker_0, # of connection points: 2
#     Edge 15, Type (0, 0), BuildingBlock: CIFDUS_clean_linker_0, # of connection points: 2
#     Edge 16, Type (0, 0), BuildingBlock: CIFDUS_clean_linker_0, # of connection points: 2
#     Edge 17, Type (0, 0), BuildingBlock: CIFDUS_clean_linker_0, # of connection points: 2
#     Edge 18, Type (0, 0), BuildingBlock: CIFDUS_clean_linker_0, # of connection points: 2
#     Edge 19, Type (0, 0), BuildingBlock: CIFDUS_clean_linker_0, # of connection points: 2
#     Edge 20, Type (0, 0), BuildingBlock: CIFDUS_clean_linker_0, # of connection points: 2
#     Edge 21, Type (0, 0), BuildingBlock: CIFDUS_clean_linker_0, # of connection points: 2
#     Edge 22, Type (0, 0), BuildingBlock: CIFDUS_clean_linker_0, # of connection points: 2
#     Edge 23, Type (0, 0), BuildingBlock: CIFDUS_clean_linker_0, # of connection points: 2
#     Edge 24, Type (0, 0), BuildingBlock: CIFDUS_clean_linker_0, # of connection points: 2
#     Edge 25, Type (0, 0), BuildingBlock: CIFDUS_clean_linker_0, # of connection points: 2
#     Edge 26, Type (0, 0), BuildingBlock: CIFDUS_clean_linker_0, # of connection points: 2
#     Edge 27, Type (0, 0), BuildingBlock: CIFDUS_clean_linker_0, # of connection points: 2
#     Edge 28, Type (0, 0), BuildingBlock: CIFDUS_clean_linker_0, # of connection points: 2
#     Edge 29, Type (0, 0), BuildingBlock: CIFDUS_clean_linker_0, # of connection points: 2
#     Edge 30, Type (0, 0), BuildingBlock: CIFDUS_clean_linker_0, # of connection points: 2
#     Edge 31, Type (0, 0), BuildingBlock: CIFDUS_clean_linker_0, # of connection points: 2
#     Edge 32, Type (0, 0), BuildingBlock: CIFDUS_clean_linker_0, # of connection points: 2
#     Edge 33, Type (0, 0), BuildingBlock: CIFDUS_clean_linker_0, # of connection points: 2
#     Edge 34, Type (0, 0), BuildingBlock: CIFDUS_clean_linker_0, # of connection points: 2
#     Edge 35, Type (0, 0), BuildingBlock: CIFDUS_clean_linker_0, # of connection points: 2
# Relax obj value: 0.182
# Max RMSD: 0.115
# Mean RMSD: 0.115
data_MOF--net-wji--node1-KUFVIS_clean_sbu_0--edge1-CIFDUS_clean_linker_0
_symmetry_space_group_name_H-M    P1
_symmetry_Int_Tables_number       1
_symmetry_cell_setting            triclinic
loop_
_symmetry_equiv_pos_as_xyz
'x, y, z'
_cell_length_a     48.635072
_cell_length_b     48.441824
_cell_length_c     20.676677
_cell_angle_alpha  89.819189
_cell_angle_beta   90.401983
_cell_angle_gamma 120.00295
loop_
_atom_site_label
_atom_site_type_symbol
_atom_site_fract_x
_atom_site_fract_y
_atom_site_fract_z
_atom_type_partial_charge
Mn0 Mn 0.45427 0.35041 0.42375 0.0
Mn1 Mn 0.47191 0.42756 0.40417 0.0
C2 C 0.41839 0.36547 0.46312 0.0
C3 C 0.45725 0.30871 0.47839 0.0
C4 C 0.44472 0.37851 0.29759 0.0
O5 O 0.50217 0.37346 0.40772 0.0
O6 O 0.50998 0.42296 0.39675 0.0
C7 C 0.51455 0.45824 0.51633 0.0
N8 N 0.48885 0.45289 0.48021 0.0
C9 C 0.48739 0.49684 0.53054 0.0
C10 C 0.51396 0.5029 0.56808 0.0
C11 C 0.52733 0.48321 0.56156 0.0
C12 C 0.47504 0.47087 0.48792 0.0
H13 H 0.52524 0.44369 0.51025 0.0
C14 C 0.5201 0.40325 0.39885 0.0
O15 O 0.45227 0.30827 0.41668 0.0
O16 O 0.46052 0.33352 0.50929 0.0
N17 N 0.43913 0.43828 0.40902 0.0
C18 C 0.41503 0.43093 0.366 0.0
C19 C 0.39783 0.44709 0.36901 0.0
C20 C 0.40674 0.47197 0.41363 0.0
C21 C 0.43287 0.48057 0.45458 0.0
C22 C 0.44837 0.4628 0.45102 0.0
H23 H 0.40875 0.41269 0.33011 0.0
O24 O 0.40987 0.3364 0.44688 0.0
O25 O 0.44861 0.38643 0.4547 0.0
O26 O 0.4442 0.35538 0.32818 0.0
O27 O 0.4551 0.40595 0.32178 0.0
C28 C 0.44496 0.50692 0.49684 0.0
C29 C 0.47234 0.51522 0.53443 0.0
H30 H 0.52413 0.52243 0.60235 0.0
H31 H 0.54777 0.48761 0.59045 0.0
H32 H 0.37821 0.44086 0.33601 0.0
H33 H 0.39389 0.48488 0.41476 0.0
H34 H 0.43357 0.52119 0.5003 0.0
H35 H 0.48135 0.53546 0.56686 0.0
Mn36 Mn 0.10904 0.42348 0.61765 0.0
Mn37 Mn 0.04282 0.42996 0.60031 0.0
C38 C 0.06527 0.39447 0.68337 0.0
C39 C 0.15797 0.4361 0.66745 0.0
C40 C 0.05906 0.39241 0.50798 0.0
O41 O 0.1267 0.46733 0.57507 0.0
O42 O 0.08022 0.46666 0.55995 0.0
C43 C 0.06058 0.48848 0.67612 0.0
N44 N 0.04019 0.45701 0.66418 0.0
C45 C 1.0019 0.45626 0.73843 0.0
C46 C 1.02229 0.48878 0.75058 0.0
C47 C 0.05187 0.50488 0.71976 0.0
C48 C 1.01158 0.44132 0.69352 0.0
H49 H 0.08312 0.50108 0.65203 0.0
C50 C 0.1105 0.47999 0.55533 0.0
O51 O 0.15031 0.42356 0.61012 0.0
O52 O 0.13805 0.44286 0.69434 0.0
N53 N 1.00512 0.39654 0.63875 0.0
C54 C 0.98981 0.36465 0.62651 0.0
C55 C 0.96108 0.3445 0.65794 0.0
C56 C 0.9483 0.35739 0.70116 0.0
C57 C 0.96454 0.3903 0.7131 0.0
C58 C 0.99311 0.40918 0.68047 0.0
H59 H 0.99966 0.35468 0.59351 0.0
O60 O 0.08431 0.38372 0.67036 0.0
O61 O 0.071 0.4206 0.65402 0.0
O62 O 0.08632 0.40012 0.53202 0.0
O63 O 0.04107 0.40166 0.53176 0.0
C64 C 0.95406 0.40496 0.75766 0.0
C65 C 0.97263 0.43796 0.77001 0.0
H66 H 1.01559 0.50158 0.78389 0.0
H67 H 0.06783 0.52994 0.72924 0.0
H68 H 0.94882 0.3191 0.64889 0.0
H69 H 0.92623 0.34174 0.72559 0.0
H70 H 0.93203 0.39099 0.78356 0.0
H71 H 0.96453 0.44887 0.80502 0.0
Mn72 Mn 0.69017 0.0851 0.80983 0.0
Mn73 Mn 0.62693 1.01118 0.80781 0.0
C74 C 0.69703 0.04209 0.84057 0.0
C75 C 0.72295 0.1328 0.86779 0.0
C76 C 0.65701 0.04998 0.68789 0.0
O77 O 0.65101 0.09132 0.8104 0.0
O78 O 0.61339 0.04135 0.8389 0.0
C79 C 0.60622 0.99406 0.94352 0.0
N80 N 0.61654 0.98796 0.8874 0.0
C81 C 0.60373 0.9357 0.92496 0.0
C82 C 0.59324 0.94157 0.98326 0.0
C83 C 0.59458 0.97084 0.99264 0.0
C84 C 0.6152 0.95967 0.87784 0.0
H85 H 0.60624 1.0161 0.94947 0.0
C86 C 0.62306 0.07118 0.83069 0.0
O87 O 0.72155 0.13244 0.80499 0.0
O88 O 0.70408 0.10613 0.89631 0.0
N89 N 0.6378 0.98031 0.77805 0.0
C90 C 0.65189 0.97942 0.72192 0.0
C91 C 0.65391 0.95229 0.70656 0.0
C92 C 0.64137 0.92619 0.74891 0.0
C93 C 0.62752 0.92777 0.80691 0.0
C94 C 0.62631 0.95555 0.81976 0.0
H95 H 0.66171 0.99913 0.68894 0.0
O96 O 0.72079 0.06883 0.82085 0.0
O97 O 0.67 0.04131 0.83841 0.0
O98 O 0.68284 0.07143 0.71369 0.0
O99 O 0.63341 0.03043 0.72146 0.0
C100 C 0.6155 0.90313 0.85311 0.0
C101 C 0.60335 0.907 0.91188 0.0
H102 H 0.58392 0.92372 0.02102 0.0
H103 H 0.58586 0.97475 0.03722 0.0
H104 H 0.66501 0.95146 0.66199 0.0
H105 H 0.64297 0.90529 0.73691 0.0
H106 H 0.61578 0.88124 0.84422 0.0
H107 H 0.59407 0.88787 0.94692 0.0
Mn108 Mn 0.61582 0.70442 0.94402 0.0
Mn109 Mn 0.60962 0.63117 0.94024 0.0
C110 C 0.64233 0.6902 0.02039 0.0
C111 C 0.60309 0.74339 0.97904 0.0
C112 C 0.64836 0.68266 0.84393 0.0
O113 O 0.57353 0.67754 0.8952 0.0
O114 O 0.57385 0.6309 0.89319 0.0
C115 C 0.55025 0.5919 0.01309 0.0
N116 N 0.5818 0.60291 0.00476 0.0
C117 C 0.58121 0.56576 0.08311 0.0
C118 C 0.54861 0.55378 0.0919 0.0
C119 C 0.53315 0.56715 0.05728 0.0
C120 C 0.59696 0.59036 0.03826 0.0
H121 H 0.53815 0.60161 0.98561 0.0
C122 C 0.56129 0.64804 0.8798 0.0
O123 O 0.61719 0.74564 0.92476 0.0
O124 O 0.59481 0.71757 0.01215 0.0
N125 N 0.6424 0.628 0.98514 0.0
C126 C 0.67432 0.64426 0.97495 0.0
C127 C 0.69387 0.63597 0.01039 0.0
C128 C 0.68033 0.61072 0.05498 0.0
C129 C 0.64738 0.59425 0.06434 0.0
C130 C 0.62917 0.6039 0.02833 0.0
H131 H 0.68471 0.66346 0.94022 0.0
O132 O 0.65366 0.71985 0.00404 0.0
O133 O 0.61724 0.66959 0.98875 0.0
O134 O 0.64102 0.70297 0.86444 0.0
O135 O 0.63877 0.65586 0.87085 0.0
C136 C 0.6319 0.569 0.10867 0.0
C137 C 0.59878 0.55446 0.11728 0.0
H138 H 0.53518 0.53439 0.12516 0.0
H139 H 0.50801 0.55809 0.06397 0.0
H140 H 0.71928 0.64885 0.00305 0.0
H141 H 0.69547 0.60434 0.0821 0.0
H142 H 0.64526 0.56069 0.13666 0.0
H143 H 0.58714 0.53481 0.15081 0.0
Mn144 Mn 0.94912 0.6151 0.11413 0.0
Mn145 Mn 1.02216 0.62294 0.1178 0.0
C146 C 0.99212 0.66316 0.15065 0.0
C147 C 0.89973 0.60066 0.16189 0.0
C148 C 0.98717 0.62069 -0.00482 0.0
O149 O 0.94073 0.56882 0.11178 0.0
O150 O 0.98985 0.57797 0.13897 0.0
C151 C 0.03901 0.60709 0.24289 0.0
N152 N 0.04298 0.63002 0.19992 0.0
C153 C 0.09339 0.66703 0.2491 0.0
C154 C 0.08832 0.64442 0.29664 0.0
C155 C 0.06174 0.61389 0.29153 0.0
C156 C 0.07044 0.65841 0.19998 0.0
H157 H 1.01979 0.58314 0.23724 0.0
C158 C 0.95982 0.55924 0.13044 0.0
O159 O 0.90328 0.6014 0.09968 0.0
O160 O 0.92443 0.60656 0.1966 0.0
N161 N 0.05455 0.6659 0.09834 0.0
C162 C 0.05858 0.68335 0.04369 0.0
C163 C 0.08603 0.71325 0.03648 0.0
C164 C 0.1094 0.72489 0.0851 0.0
C165 C 0.10489 0.70666 0.14088 0.0
C166 C 0.07669 0.67722 0.14595 0.0
H167 H 0.04114 0.67475 0.00562 0.0
O168 O 0.96647 0.66176 0.12816 0.0
O169 O 0.99213 0.63627 0.14953 0.0
O170 O 0.96505 0.62375 0.0203 0.0
O171 O 1.00621 0.61582 0.02885 0.0
C172 C 0.1273 0.71658 0.19159 0.0
C173 C 0.12166 0.69663 0.24547 0.0
H174 H 0.10579 0.64944 0.33435 0.0
H175 H 0.05944 0.5951 0.32299 0.0
H176 H 0.08929 0.72717 0.99322 0.0
H177 H 0.13068 0.74786 0.07912 0.0
H178 H 0.14926 0.73918 0.18898 0.0
H179 H 0.13967 0.7038 0.28283 0.0
Mn180 Mn 0.33084 0.92824 0.25193 0.0
Mn181 Mn 0.4047 0.99384 0.25471 0.0
C182 C 0.34269 0.96961 0.32358 0.0
C183 C 0.29118 0.87706 0.28645 0.0
C184 C 0.3556 0.98387 0.15434 0.0
O185 O 0.35785 0.91118 0.21264 0.0
O186 O 0.40436 0.95758 0.20904 0.0
C187 C 0.44158 0.97127 0.33056 0.0
N188 N 0.43186 0.99288 0.32087 0.0
C189 C 0.4735 0.03112 0.39008 0.0
C190 C 0.48431 1.00947 0.39957 0.0
C191 C 0.46797 0.97922 0.37054 0.0
C192 C 0.44708 0.02183 0.34972 0.0
H193 H 0.4298 0.94848 0.30682 0.0
C194 C 0.38734 0.92753 0.19905 0.0
O195 O 0.29009 0.88844 0.23024 0.0
O196 O 0.31595 0.8949 0.3219 0.0
N197 N 0.40982 0.03097 0.29787 0.0
C198 C 0.39484 0.04795 0.28712 0.0
C199 C 0.40599 0.07742 0.31828 0.0
C200 C 0.4329 0.08945 0.35874 0.0
C201 C 0.44794 0.07151 0.36894 0.0
C202 C 0.43512 0.04188 0.33818 0.0
H203 H 0.37439 0.03885 0.25552 0.0
O204 O 0.31385 0.95121 0.30294 0.0
O205 O 0.36454 0.96438 0.30007 0.0
O206 O 0.33502 0.9553 0.16975 0.0
O207 O 0.38151 0.99997 0.18477 0.0
C208 C 0.4748 0.08155 0.40924 0.0
C209 C 0.48776 0.06148 0.41934 0.0
H210 H 0.50492 1.01568 0.42959 0.0
H211 H 0.47604 0.96229 0.37802 0.0
H212 H 0.39412 0.09102 0.31052 0.0
H213 H 0.44162 0.11233 0.38217 0.0
H214 H 0.48539 0.10444 0.4334 0.0
H215 H 0.5082 0.06931 0.45088 0.0
Mn216 Mn 0.72177 0.61655 0.40269 0.0
Mn217 Mn 0.64723 0.6057 0.41299 0.0
C218 C 0.70744 0.64745 0.33953 0.0
C219 C 0.76176 0.60771 0.36003 0.0
C220 C 0.69741 0.64081 0.51445 0.0
O221 O 0.69675 0.57118 0.43726 0.0
O222 O 0.64912 0.56814 0.44785 0.0
C223 C 0.60875 0.5493 0.33031 0.0
N224 N 0.61915 0.58037 0.345 0.0
C225 C 0.57715 0.57987 0.28158 0.0
C226 C 0.56575 0.54772 0.26693 0.0
C227 C 0.58186 0.53248 0.2907 0.0
C228 C 0.60389 0.59529 0.32182 0.0
H229 H 0.62029 0.53718 0.35015 0.0
C230 C 0.66746 0.55627 0.45266 0.0
O231 O 0.76319 0.61829 0.41814 0.0
O232 O 0.73659 0.60146 0.32652 0.0
N233 N 0.6413 0.63927 0.37998 0.0
C234 C 0.65618 0.67059 0.39713 0.0
C235 C 0.64507 0.69023 0.37204 0.0
C236 C 0.61834 0.67725 0.33095 0.0
C237 C 0.60333 0.64486 0.31434 0.0
C238 C 0.61605 0.62673 0.33934 0.0
H239 H 0.67636 0.68042 0.42961 0.0
O240 O 0.73667 0.65808 0.35772 0.0
O241 O 0.68654 0.61935 0.36154 0.0
O242 O 0.71839 0.63532 0.49083 0.0
O243 O 0.67089 0.63178 0.48715 0.0
C244 C 0.57637 0.62985 0.27369 0.0
C245 C 0.56303 0.59725 0.258 0.0
H246 H 0.54469 0.53448 0.2374 0.0
H247 H 0.57324 0.50766 0.27946 0.0
H248 H 0.6568 0.71521 0.38501 0.0
H249 H 0.60961 0.69238 0.31231 0.0
H250 H 0.56582 0.64318 0.25397 0.0
H251 H 0.54236 0.58598 0.22663 0.0
Mn252 Mn 0.10301 0.69377 0.5277 0.0
Mn253 Mn 0.02952 0.6273 0.52851 0.0
C254 C 0.05906 0.69698 0.49072 0.0
C255 C 0.15191 0.72963 0.47871 0.0
C256 C 0.06463 0.6634 0.64909 0.0
O257 O 0.11299 0.65732 0.53136 0.0
O258 O 0.06316 0.61533 0.51877 0.0
C259 C 1.01557 0.58822 0.41264 0.0
N260 N 1.01124 0.60992 0.44583 0.0
C261 C 0.96296 0.59478 0.38575 0.0
C262 C 0.96912 0.575 0.34672 0.0
C263 C 0.99467 0.57053 0.36245 0.0
C264 C 0.98424 0.61115 0.43656 0.0
H265 H 0.03374 0.58297 0.42688 0.0
C266 C 0.0935 0.6276 0.52234 0.0
O267 O 0.14855 0.72694 0.54094 0.0
O268 O 0.1272 0.7104 0.44442 0.0
N269 N 0.99578 0.63673 0.53621 0.0
C270 C 0.98864 0.64953 0.58752 0.0
C271 C 0.96058 0.65108 0.5869 0.0
C272 C 0.93972 0.63888 0.53392 0.0
C273 C 0.94717 0.62526 0.4821 0.0
C274 C 0.9759 0.625 0.48484 0.0
H275 H 1.00413 0.65837 0.62871 0.0
O276 O 0.08429 0.72171 0.51341 0.0
O277 O 0.05953 0.67029 0.49287 0.0
O278 O 0.08872 0.68646 0.62274 0.0
O279 O 0.0429 0.64028 0.61777 0.0
C280 C 0.9269 0.61138 0.42847 0.0
C281 C 0.93473 0.59602 0.38039 0.0
H282 H 0.95297 0.5612 0.30803 0.0
H283 H 0.998 0.55295 0.33705 0.0
H284 H 0.95492 0.66138 0.62746 0.0
H285 H 0.9179 0.63976 0.53387 0.0
H286 H 0.90469 0.61138 0.42496 0.0
H287 H 0.91811 0.58385 0.34123 0.0
Mn288 Mn 0.43579 0.1125 0.72206 0.0
Mn289 Mn 0.43842 0.04351 0.72036 0.0
C290 C 0.40929 0.07406 0.64256 0.0
C291 C 0.45119 0.16515 0.68807 0.0
C292 C 0.39702 0.05446 0.81142 0.0
O293 O 0.47692 0.1252 0.77369 0.0
O294 O 0.47229 0.07639 0.77508 0.0
C295 C 0.50055 0.06581 0.65697 0.0
N296 N 0.46878 0.04489 0.66041 0.0
C297 C 0.47246 1.01004 0.58259 0.0
C298 C 0.50527 0.0311 0.57858 0.0
C299 C 0.51931 0.05926 0.61542 0.0
C300 C 0.45499 1.01791 0.62454 0.0
H301 H 0.51155 0.08709 0.68623 0.0
C302 C 0.48654 0.10591 0.79069 0.0
O303 O 0.4362 0.15339 0.74181 0.0
O304 O 0.45924 0.14723 0.65634 0.0
N305 N 0.40747 1.00924 0.66875 0.0
C306 C 0.37522 0.99353 0.67284 0.0
C307 C 0.35717 0.96628 0.63473 0.0
C308 C 0.3725 0.95514 0.59385 0.0
C309 C 0.40575 0.97171 0.59059 0.0
C310 C 0.42244 0.99897 0.62901 0.0
H311 H 0.36343 1.00195 0.70454 0.0
O312 O 0.39897 0.09302 0.65966 0.0
O313 O 0.43359 0.07671 0.67448 0.0
O314 O 0.40758 0.08387 0.79789 0.0
O315 O 0.40642 0.03755 0.78309 0.0
C316 C 0.42298 0.96273 0.54964 0.0
C317 C 0.45634 0.98165 0.54636 0.0
H318 H 0.51989 0.02604 0.54704 0.0
H319 H 0.5446 0.07567 0.61244 0.0
H320 H 0.33151 0.95376 0.63716 0.0
H321 H 0.3585 0.93409 0.56457 0.0
H322 H 0.41079 0.94153 0.51993 0.0
H323 H 0.46931 0.97432 0.51522 0.0
Mn324 Mn 0.35056 0.42387 0.85506 0.0
Mn325 Mn 0.42256 0.43128 0.8383 0.0
C326 C 0.35619 0.38467 0.79937 0.0
C327 C 0.31199 0.43448 0.80855 0.0
C328 C 0.38749 0.41533 0.96569 0.0
O329 O 0.38193 0.47141 0.87445 0.0
O330 O 0.42699 0.47425 0.8379 0.0
C331 C 0.43212 0.45329 0.70374 0.0
N332 N 0.43393 0.43435 0.75006 0.0
C333 C 0.45011 0.40827 0.67323 0.0
C334 C 0.44882 0.42775 0.62484 0.0
C335 C 0.43878 0.44961 0.63977 0.0
C336 C 0.44111 0.41152 0.73538 0.0
H337 H 0.42399 0.46976 0.71526 0.0
C338 C 0.41109 0.48726 0.85691 0.0
O339 O 0.31176 0.42852 0.87001 0.0
O340 O 0.3351 0.43566 0.77598 0.0
N341 N 0.42159 0.39119 0.83705 0.0
C342 C 0.41195 0.36823 0.88349 0.0
C343 C 0.41669 0.34218 0.87465 0.0
C344 C 0.43099 0.33977 0.81783 0.0
C345 C 0.43995 0.3632 0.76994 0.0
C346 C 0.43513 0.38893 0.78203 0.0
H347 H 0.40046 0.36951 0.92668 0.0
O348 O 0.32873 0.3782 0.82157 0.0
O349 O 0.37865 0.41305 0.81267 0.0
O350 O 0.3606 0.41065 0.94431 0.0
O351 O 0.41238 0.42687 0.93085 0.0
C352 C 0.45202 0.36125 0.70942 0.0
C353 C 0.45689 0.3837 0.66082 0.0
H354 H 0.45276 0.42393 0.57541 0.0
H355 H 0.43457 0.4624 0.602 0.0
H356 H 0.40913 0.32389 0.91138 0.0
H357 H 0.43415 0.31938 0.81072 0.0
H358 H 0.45607 0.34171 0.69866 0.0
H359 H 0.46429 0.38092 0.61314 0.0
Mn360 Mn 0.92071 0.32514 0.06711 0.0
Mn361 Mn 0.99211 0.39332 0.07513 0.0
C362 C 0.963 0.33181 0.00414 0.0
C363 C 0.87058 0.29063 0.01918 0.0
C364 C 0.97007 0.3428 0.17758 0.0
O365 O 0.90823 0.3572 0.10053 0.0
O366 O 0.95793 0.39921 0.11288 0.0
C367 C 0.98121 0.43696 0.99199 0.0
N368 N 0.9981 0.42218 0.00622 0.0
C369 C 0.04016 0.45701 0.93457 0.0
C370 C 1.02339 0.47283 0.91997 0.0
C371 C 0.9936 0.46247 0.94807 0.0
C372 C 0.02656 0.43165 0.97847 0.0
H373 H 0.95881 0.42982 0.01493 0.0
C374 C 0.92765 0.3861 0.11701 0.0
O375 O 0.87702 0.28703 0.07861 0.0
O376 O 0.89242 0.31537 0.9892 0.0
N377 N 0.0271 0.39131 0.03872 0.0
C378 C 0.03927 0.37234 0.05552 0.0
C379 C 0.0673 0.37719 0.02613 0.0
C380 C 0.08286 0.40194 0.98101 0.0
C381 C 0.06999 0.42133 0.96497 0.0
C382 C 0.04158 0.41482 -0.0054 0.0
H383 H 0.02757 0.35361 0.09088 0.0
O384 O 0.94137 0.30354 0.02237 0.0
O385 O 0.96057 0.35551 0.02682 0.0
O386 O 0.94178 0.32539 0.15579 0.0
O387 O 0.99077 0.36752 0.1486 0.0
C388 C 0.08411 0.44675 0.92055 0.0
C389 C 0.06941 0.46485 0.90598 0.0
H390 H 0.03318 0.4929 0.88721 0.0
H391 H 0.98047 0.47452 0.9368 0.0
H392 H 0.07708 0.36213 0.03875 0.0
H393 H 0.10464 0.40581 0.95892 0.0
H394 H 0.10617 0.45246 0.89705 0.0
H395 H 0.08034 0.48416 0.87138 0.0
Mn396 Mn 0.60765 0.93407 0.21643 0.0
Mn397 Mn 0.6138 1.00757 0.2145 0.0
C398 C 0.65476 0.97854 0.18125 0.0
C399 C 0.596 0.88466 0.16929 0.0
C400 C 0.61485 0.97354 0.33702 0.0
O401 O 0.56106 0.92323 0.21454 0.0
O402 O 0.56863 0.97313 0.20297 0.0
C403 C 0.5879 0.02127 0.09904 0.0
N404 N 0.61419 0.02542 0.1315 0.0
C405 C 0.64692 0.07358 0.0711 0.0
C406 C 0.62075 0.0672 0.03216 0.0
C407 C 0.59083 0.04157 0.04791 0.0
C408 C 0.64238 0.05243 0.12194 0.0
H409 H 0.56455 1.00344 0.11393 0.0
C410 C 0.55082 0.94261 0.20398 0.0
O411 O 0.59584 0.88847 0.23125 0.0
O412 O 0.60159 0.90917 0.13417 0.0
N413 N 0.65669 0.04194 0.22274 0.0
C414 C 0.67654 0.04991 0.27484 0.0
C415 C 0.70601 0.07821 0.27417 0.0
C416 C 0.71458 0.09851 0.22039 0.0
C417 C 0.69355 0.09028 0.16788 0.0
C418 C 0.66475 0.06127 0.17055 0.0
H419 H 0.66992 0.03491 0.31674 0.0
O420 O 0.65438 0.95368 0.20602 0.0
O421 O 0.62747 0.97767 0.18059 0.0
O422 O 0.61343 0.94898 0.31164 0.0
O423 O 0.61369 0.99509 0.30445 0.0
C424 C 0.69964 0.11029 0.11403 0.0
C425 C 0.67625 0.10203 0.06577 0.0
H426 H 0.62289 0.0832 0.99331 0.0
H427 H 0.56985 0.03793 0.02221 0.0
H428 H 0.7219 0.08453 0.31533 0.0
H429 H 0.73713 0.12058 0.22038 0.0
H430 H 0.72166 0.13278 0.11081 0.0
H431 H 0.68039 0.11855 0.02662 0.0
H432 H 0.43567 0.4072 0.00884 0.0
H433 H 0.34692 0.3982 0.07101 0.0
H434 H 0.35454 0.38072 0.1782 0.0
H435 H 0.38855 0.37134 0.25552 0.0
H436 H 0.47667 0.38067 0.18979 0.0
H437 H 0.46614 0.39291 0.08061 0.0
C438 C 0.41764 0.4013 0.04529 0.0
C439 C 0.3908 0.40448 0.03159 0.0
C440 C 0.42178 0.39056 0.10555 0.0
C441 C 0.36788 0.3963 0.08002 0.0
C442 C 0.37218 0.38614 0.14118 0.0
C443 C 0.40502 0.37536 0.21676 0.0
C444 C 0.43328 0.37488 0.23027 0.0
C445 C 0.39923 0.38347 0.1546 0.0
C446 C 0.45451 0.38018 0.18004 0.0
C447 C 0.44873 0.38775 0.11803 0.0
H448 H 0.99802 0.35177 0.4734 0.0
H449 H 0.09394 0.39311 0.40333 0.0
H450 H 0.07354 0.37522 0.2935 0.0
H451 H 0.02907 0.35695 0.21611 0.0
H452 H 0.93338 0.3182 0.28598 0.0
H453 H 0.95299 0.32526 0.39765 0.0
C454 C 1.01451 0.35618 0.43441 0.0
C455 C 0.04756 0.3742 0.44646 0.0
C456 C 1.00258 0.34655 0.37135 0.0
C457 C 0.06851 0.37933 0.39554 0.0
C458 C 0.05679 0.36936 0.33262 0.0
C459 C 1.01235 0.34923 0.25576 0.0
C460 C 0.97977 0.33745 0.24267 0.0
C461 C 1.02396 0.35429 0.31967 0.0
C462 C 0.95845 0.32722 0.29453 0.0
C463 C 0.96977 0.33163 0.35842 0.0
H464 H 0.66942 1.00801 0.40553 0.0
H465 H 0.56772 0.95334 0.42444 0.0
H466 H 0.57173 0.9751 0.53311 0.0
H467 H 0.60366 1.01191 0.61898 0.0
H468 H 0.70547 0.06877 0.59968 0.0
H469 H 0.70172 0.04579 0.49222 0.0
C470 C 0.6482 1.00073 0.43373 0.0
C471 C 0.61829 0.97882 0.40746 0.0
C472 C 0.65065 1.01476 0.49463 0.0
C473 C 0.59099 0.96944 0.4445 0.0
C474 C 0.59328 0.9824 0.50596 0.0
C475 C 0.62514 0.01968 0.5912 0.0
C476 C 0.65487 0.04229 0.61764 0.0
C477 C 0.62289 1.00564 0.53072 0.0
C478 C 0.68227 0.05191 0.58043 0.0
C479 C 0.68016 0.0383 0.51944 0.0
H480 H 0.67993 0.68347 0.55094 0.0
H481 H 0.72245 0.62996 0.62411 0.0
H482 H 0.71491 0.64236 0.73524 0.0
H483 H 0.68814 0.66084 0.81037 0.0
H484 H 0.64583 0.71452 0.73664 0.0
H485 H 0.66192 0.7102 0.62695 0.0
C486 C 0.6884 0.6753 0.59121 0.0
C487 C 0.70155 0.6556 0.57928 0.0
C488 C 0.68365 0.68226 0.65482 0.0
C489 C 0.71251 0.64531 0.63189 0.0
C490 C 0.70785 0.65212 0.69546 0.0
C491 C 0.68317 0.67233 0.7705 0.0
C492 C 0.66545 0.68772 0.7817 0.0
C493 C 0.69226 0.66946 0.70742 0.0
C494 C 0.65948 0.70269 0.7296 0.0
C495 C 0.66842 0.69992 0.6667 0.0
H496 H 0.03021 0.68249 0.71884 0.0
H497 H 0.08753 0.63789 0.73483 0.0
H498 H 0.066 0.61801 0.84254 0.0
H499 H 0.02784 0.60957 0.9268 0.0
H500 H 0.96799 0.65162 0.90978 0.0
H501 H 0.99166 0.67409 0.80457 0.0
C502 C 0.03811 0.66863 0.74624 0.0
C503 C 0.06052 0.66175 0.71944 0.0
C504 C 1.02412 0.65565 0.80618 0.0
C505 C 0.07094 0.64415 0.75548 0.0
C506 C 0.05809 0.6322 0.81625 0.0
C507 C 1.01963 0.6234 0.90004 0.0
C508 C 0.99595 0.62871 0.92624 0.0
C509 C 0.03398 0.63699 0.84101 0.0
C510 C 0.98574 0.64668 0.89049 0.0
C511 C 0.99969 0.66001 0.83089 0.0
H512 H 0.39358 0.07969 0.92755 0.0
H513 H 0.35142 0.99221 0.8182 0.0
H514 H 0.32856 0.96136 0.91593 0.0
H515 H 0.33083 0.95869 0.03501 0.0
H516 H 0.37331 0.04626 0.14403 0.0
H517 H 0.3848 0.07712 0.04517 0.0
C518 C 0.37833 0.05403 0.92481 0.0
C519 C 0.37489 0.03835 0.86583 0.0
C520 C 0.36567 0.03613 0.98185 0.0
C521 C 0.35499 1.00495 0.86321 0.0
C522 C 0.34197 0.98714 0.91929 0.0
C523 C 0.34139 0.9844 0.03713 0.0
C524 C 0.35174 1.00007 0.09683 0.0
C525 C 0.34868 1.00233 0.97945 0.0
C526 C 0.36551 0.03351 0.09867 0.0
C527 C 0.37231 0.05134 0.04194 0.0
H528 H 0.6549 0.51307 0.36052 0.0
H529 H 0.64107 0.52231 0.56289 0.0
H530 H 0.59793 0.46672 0.56601 0.0
H531 H 0.55649 0.42124 0.5055 0.0
H532 H 0.56113 0.42066 0.29788 0.0
H533 H 0.61569 0.46551 0.30143 0.0
C534 C 0.64324 0.50233 0.40581 0.0
C535 C 0.65126 0.52144 0.46162 0.0
C536 C 0.61628 0.47167 0.40532 0.0
C537 C 0.63556 0.50782 0.51972 0.0
C538 C 0.61064 0.47618 0.52114 0.0
C539 C 0.56991 0.43046 0.46128 0.0
C540 C 0.55491 0.41785 0.40151 0.0
C541 C 0.59957 0.45863 0.46341 0.0
C542 C 0.57239 0.42969 0.34444 0.0
C543 C 0.60337 0.45574 0.34655 0.0
H544 H 0.10167 0.50769 0.4501 0.0
H545 H 0.15203 0.5287 0.6315 0.0
H546 H 0.15506 0.58064 0.63536 0.0
H547 H 0.13212 0.61413 0.5984 0.0
H548 H 0.08378 0.59312 0.41484 0.0
H549 H 0.09116 0.54744 0.40002 0.0
C550 C 0.11483 0.5244 0.48862 0.0
C551 C 0.12645 0.51437 0.54048 0.0
C552 C 0.11569 0.55379 0.49129 0.0
C553 C 0.14325 0.53607 0.5905 0.0
C554 C 0.14435 0.56554 0.59345 0.0
C555 C 0.12406 0.60001 0.5545 0.0
C556 C 0.10596 0.60589 0.50893 0.0
C557 C 0.12891 0.5738 0.54599 0.0
C558 C 0.09615 0.58786 0.45185 0.0
C559 C 0.10077 0.56199 0.44305 0.0
H560 H 0.50111 0.07926 0.88856 0.0
H561 H 0.54347 0.15541 0.74985 0.0
H562 H 0.59339 0.1545 0.75657 0.0
H563 H 0.62037 0.12348 0.78373 0.0
H564 H 0.57246 0.0419 0.90952 0.0
H565 H 0.5299 0.05333 0.92615 0.0
C566 C 0.52181 0.09671 0.8622 0.0
C567 C 0.51854 0.1173 0.81879 0.0
C568 C 0.54933 0.09418 0.86231 0.0
C569 C 0.54542 0.13961 0.7844 0.0
C570 C 0.57376 0.13848 0.78701 0.0
C571 C 0.60094 0.10868 0.81583 0.0
C572 C 0.59983 0.08183 0.84554 0.0
C573 C 0.57531 0.1145 0.82278 0.0
C574 C 0.5742 0.06277 0.88638 0.0
C575 C 0.54967 0.06923 0.89583 0.0
H576 H 0.50577 0.62669 0.94226 0.0
H577 H 0.54574 0.62584 0.7577 0.0
H578 H 0.49765 0.57625 0.72892 0.0
H579 H 0.4509 0.52754 0.76722 0.0
H580 H 0.41222 0.52582 0.95493 0.0
H581 H 0.45283 0.58185 0.97186 0.0
C582 C 0.50312 0.61649 0.89441 0.0
C583 C 0.5291 0.63002 0.8518 0.0
C584 C 0.47606 0.58686 0.87994 0.0
C585 C 0.52583 0.61618 0.79066 0.0
C586 C 0.49856 0.58746 0.7748 0.0
C587 C 0.45078 0.53977 0.811 0.0
C588 C 0.42889 0.52255 0.86014 0.0
C589 C 0.47451 0.57166 0.82069 0.0
C590 C 0.42879 0.53861 0.91643 0.0
C591 C 0.45218 0.57059 0.92624 0.0
H592 H 0.94602 0.42882 0.21343 0.0
H593 H 0.88662 0.39611 0.04361 0.0
H594 H 0.8879 0.44727 0.03561 0.0
H595 H 0.91526 0.50515 0.0652 0.0
H596 H 0.97582 0.53632 0.23363 0.0
H597 H 0.96477 0.4825 0.25423 0.0
C598 C 0.93212 0.43239 0.17649 0.0
C599 C 0.91622 0.40874 0.12939 0.0
C600 C 0.93411 0.46222 0.17073 0.0
C601 C 0.8986 0.41374 0.08121 0.0
C602 C 0.89992 0.44332 0.07583 0.0
C603 C 0.92539 0.49991 0.10711 0.0
C604 C 0.94724 0.52508 0.1469 0.0
C605 C 0.91905 0.46838 0.11837 0.0
C606 C 0.95992 0.51779 0.20119 0.0
C607 C 0.95338 0.48682 0.2133 0.0
H608 H 0.42859 0.93794 0.10217 0.0
H609 H 0.38946 0.88332 0.2758 0.0
H610 H 0.43735 0.87958 0.29192 0.0
H611 H 0.49527 0.90318 0.26907 0.0
H612 H 0.53143 0.95245 0.08869 0.0
H613 H 0.48002 0.94694 0.06243 0.0
C614 C 0.42983 0.92368 0.14146 0.0
C615 C 0.40576 0.91129 0.18807 0.0
C616 C 0.45753 0.92183 0.15061 0.0
C617 C 0.4076 0.89286 0.23887 0.0
C618 C 0.43535 0.89132 0.24892 0.0
C619 C 0.49152 0.9118 0.22327 0.0
C620 C 0.51753 0.93005 0.18265 0.0
C621 C 0.46128 0.90745 0.20719 0.0
C622 C 0.51222 0.9403 0.12264 0.0
C623 C 0.48269 0.93671 0.10708 0.0
H624 H 0.35525 0.40511 0.68056 0.0
H625 H 0.36131 0.33096 0.78351 0.0
H626 H 0.37825 0.31616 0.68391 0.0
H627 H 0.40055 0.33153 0.57354 0.0
H628 H 0.38951 0.40242 0.46996 0.0
H629 H 0.36591 0.41201 0.56383 0.0
C630 C 0.35955 0.38518 0.68066 0.0
C631 C 0.35817 0.36972 0.73912 0.0
C632 C 0.36943 0.37716 0.62382 0.0
C633 C 0.36293 0.3435 0.739 0.0
C634 C 0.37269 0.33519 0.68219 0.0
C635 C 0.39273 0.34893 0.57132 0.0
C636 C 0.39976 0.36866 0.5163 0.0
C637 C 0.37768 0.35308 0.62526 0.0
C638 C 0.38793 0.38969 0.51322 0.0
C639 C 0.37326 0.39428 0.56662 0.0
H640 H 0.97934 0.37794 0.91824 0.0
H641 H 0.98426 0.29291 0.9522 0.0
H642 H 1.01392 0.30212 0.85021 0.0
H643 H 0.04055 0.33743 0.75257 0.0
H644 H 0.05313 0.43179 0.75775 0.0
H645 H 1.01301 0.41581 0.83972 0.0
C646 C 0.98821 0.36215 0.90569 0.0
C647 C 0.98136 0.336 0.94474 0.0
C648 C 1.00747 0.36912 0.85194 0.0
C649 C 0.99034 0.31402 0.92387 0.0
C650 C 1.0073 0.31932 0.86579 0.0
C651 C 0.03475 0.35452 0.77264 0.0
C652 C 0.04602 0.38452 0.74275 0.0
C653 C 1.01654 0.34732 0.82977 0.0
C654 C 0.04092 0.40726 0.7732 0.0
C655 C 1.01936 0.39871 0.82271 0.0
H656 H 0.65593 0.95153 0.06855 0.0
H657 H 0.70673 0.03899 0.1748 0.0
H658 H 0.72927 0.06856 0.07397 0.0
H659 H 0.72376 0.06886 0.95439 0.0
H660 H 0.68625 0.98057 0.85062 0.0
H661 H 0.67069 0.95076 0.9533 0.0
C662 C 0.67254 0.97697 0.06983 0.0
C663 C 0.67684 0.99422 0.12726 0.0
C664 C 0.68742 0.99302 0.01268 0.0
C665 C 0.70015 0.0264 0.12947 0.0
C666 C 0.71366 0.04296 0.07223 0.0
C667 C 0.71309 0.04313 0.95419 0.0
C668 C 0.70274 0.02622 0.89559 0.0
C669 C 0.70562 0.02662 0.01305 0.0
C670 C 0.69097 0.99336 0.89569 0.0
C671 C 0.68261 0.97656 0.95417 0.0
H672 H 0.69928 0.721 0.09013 0.0
H673 H 0.60331 0.64269 0.09849 0.0
H674 H 0.61751 0.61861 0.18552 0.0
H675 H 0.65741 0.6195 0.25852 0.0
H676 H 0.74503 0.7072 0.28649 0.0
H677 H 0.73495 0.72851 0.18645 0.0
C678 C 0.68144 0.6989 0.11186 0.0
C679 C 0.6512 0.68121 0.0825 0.0
C680 C 0.68831 0.68757 0.16956 0.0
C681 C 0.6277 0.6544 0.1148 0.0
C682 C 0.63542 0.64126 0.16648 0.0
C683 C 0.67313 0.64413 0.24637 0.0
C684 C 0.7007 0.66219 0.28285 0.0
C685 C 0.66567 0.65742 0.19384 0.0
C686 C 0.7229 0.69294 0.26062 0.0
C687 C 0.71714 0.70518 0.20343 0.0
H688 H 0.08487 0.72232 0.37555 0.0
H689 H 0.99903 0.68941 0.48335 0.0
H690 H 0.96812 0.67735 0.38212 0.0
H691 H 0.96656 0.66449 0.2646 0.0
H692 H 0.05262 0.71524 0.15629 0.0
H693 H 0.08378 0.7335 0.25753 0.0
C694 C 0.05948 0.71327 0.37699 0.0
C695 C 0.04305 0.70251 0.4357 0.0
C696 C 0.04261 0.70919 0.31924 0.0
C697 C 1.01098 0.6936 0.43768 0.0
C698 C 0.99363 0.68751 0.38012 0.0
C699 C 0.99207 0.68037 0.26301 0.0
C700 C 1.00838 0.68535 0.20442 0.0
C701 C 1.00912 0.69291 0.32061 0.0
C702 C 0.0407 0.70784 0.20214 0.0
C703 C 0.05818 0.71882 0.25963 0.0
H704 H 0.39026 0.98701 0.40754 0.0
H705 H 0.30577 0.99257 0.376 0.0
H706 H 0.31665 0.02389 0.47638 0.0
H707 H 0.35282 0.05108 0.57271 0.0
H708 H 0.44671 0.06325 0.56597 0.0
H709 H 0.43021 0.02357 0.48179 0.0
C710 C 0.37517 0.99664 0.41987 0.0
C711 C 0.34853 0.98921 0.38213 0.0
C712 C 0.38335 1.01741 0.47192 0.0
C713 C 0.32725 0.999 0.40322 0.0
C714 C 0.33352 1.01699 0.46032 0.0
C715 C 0.36978 0.0455 0.5515 0.0
C716 C 0.39983 0.05673 0.58065 0.0
C717 C 0.36197 0.02679 0.49476 0.0
C718 C 0.42236 0.05174 0.54936 0.0
C719 C 0.4134 0.03007 0.49939 0.0
H720 H 0.45271 0.29317 0.60837 0.0
H721 H 0.4663 0.26374 0.42022 0.0
H722 H 0.46818 0.21876 0.46845 0.0
H723 H 0.46377 0.18598 0.5631 0.0
H724 H 0.44692 0.21268 0.75099 0.0
H725 H 0.44879 0.26017 0.70437 0.0
C726 C 0.45629 0.27702 0.57805 0.0
C727 C 0.45935 0.28204 0.51048 0.0
C728 C 0.45679 0.25051 0.60619 0.0
C729 C 0.46372 0.26058 0.47214 0.0
C730 C 0.46487 0.23476 0.49976 0.0
C731 C 0.46094 0.20239 0.59412 0.0
C732 C 0.45547 0.19573 0.66074 0.0
C733 C 0.46117 0.22926 0.56661 0.0
C734 C 0.45132 0.21714 0.69969 0.0
C735 C 0.45228 0.24433 0.67293 0.0
H736 H 0.26342 0.44172 0.85992 0.0
H737 H 0.30219 0.43284 0.67912 0.0
H738 H 0.25916 0.43343 0.61989 0.0
H739 H 0.20905 0.43426 0.61829 0.0
H740 H 0.1708 0.4456 0.7972 0.0
H741 H 0.21475 0.44651 0.85742 0.0
C742 C 0.26253 0.44012 0.80759 0.0
C743 C 0.28615 0.43709 0.77442 0.0
C744 C 0.23762 0.44088 0.77304 0.0
C745 C 0.28455 0.43524 0.70637 0.0
C746 C 0.2598 0.43549 0.67214 0.0
C747 C 0.21044 0.4372 0.6704 0.0
C748 C 0.18647 0.43974 0.70296 0.0
C749 C 0.23601 0.438 0.70483 0.0
C750 C 0.18889 0.4437 0.77061 0.0
C751 C 0.21402 0.44408 0.80526 0.0
H752 H 0.82443 0.23264 0.06437 0.0
H753 H 0.85168 0.29257 0.89502 0.0
H754 H 0.80783 0.25009 0.83376 0.0
H755 H 0.7633 0.1943 0.82597 0.0
H756 H 0.7377 0.13432 -0.00501 0.0
H757 H 0.7787 0.17811 0.05811 0.0
C758 C 0.82056 0.23662 0.01432 0.0
C759 C 0.8415 0.26594 0.98464 0.0
C760 C 0.79542 0.21183 0.97889 0.0
C761 C 0.83604 0.27038 0.91944 0.0
C762 C 0.81095 0.24597 0.88414 0.0
C763 C 0.76648 0.19094 0.87677 0.0
C764 C 0.7469 0.16097 0.90573 0.0
C765 C 0.79073 0.21635 0.91296 0.0
C766 C 0.75173 0.15716 0.9716 0.0
C767 C 0.77548 0.18221 0.00777 0.0
H768 H 0.60784 0.87373 0.04543 0.0
H769 H 0.57659 0.82777 0.23052 0.0
H770 H 0.57416 0.77958 0.18792 0.0
H771 H 0.58341 0.75097 0.09913 0.0
H772 H 0.61506 0.79738 0.91421 0.0
H773 H 0.61429 0.84418 0.95501 0.0
C774 C 0.59988 0.85296 0.07601 0.0
C775 C 0.59218 0.85449 0.14102 0.0
C776 C 0.59871 0.82519 0.05116 0.0
C777 C 0.58264 0.82744 0.18032 0.0
C778 C 0.58126 0.79977 0.15595 0.0
C779 C 0.58976 0.77114 0.0675 0.0
C780 C 0.59931 0.77041 0.00349 0.0
C781 C 0.58958 0.79841 0.09159 0.0
C782 C 0.60763 0.79705 0.96361 0.0
C783 C 0.60727 0.824 0.98698 0.0
H784 H 0.76844 0.59011 0.23723 0.0
H785 H 0.81568 0.61847 0.42268 0.0
H786 H 0.86135 0.61698 0.3794 0.0
H787 H 0.88946 0.61016 0.2877 0.0
H788 H 0.84303 0.58269 0.10149 0.0
H789 H 0.79581 0.58099 0.1462 0.0
C790 C 0.78861 0.59567 0.26832 0.0
C791 C 0.78846 0.60447 0.33324 0.0
C792 C 0.81516 0.5949 0.24294 0.0
C793 C 0.81496 0.61166 0.37258 0.0
C794 C 0.84123 0.6108 0.34785 0.0
C795 C 0.86885 0.6033 0.25708 0.0
C796 C 0.86991 0.59644 0.19125 0.0
C797 C 0.84179 0.60277 0.28296 0.0
C798 C 0.843 0.58805 0.1523 0.0
C799 C 0.81593 0.58715 0.17784 0.0
H800 H 0.16202 0.75125 0.35346 0.0
H801 H 0.20898 0.76652 0.53846 0.0
H802 H 0.25664 0.81208 0.49483 0.0
H803 H 0.28421 0.8498 0.40594 0.0
H804 H 0.23709 0.8352 0.22125 0.0
H805 H 0.19079 0.78732 0.26253 0.0
C806 C 0.18287 0.76417 0.38389 0.0
C807 C 0.1818 0.75525 0.44922 0.0
C808 C 0.21028 0.79076 0.35857 0.0
C809 C 0.20898 0.77274 0.48809 0.0
C810 C 0.23633 0.79891 0.46317 0.0
C811 C 0.26397 0.83598 0.37445 0.0
C812 C 0.26427 0.84631 0.31049 0.0
C813 C 0.23713 0.80849 0.39875 0.0
C814 C 0.23765 0.82799 0.27065 0.0
C815 C 0.21104 0.80054 0.29429 0.0
loop_
_geom_bond_atom_site_label_1
_geom_bond_atom_site_label_2
_geom_bond_distance
_geom_bond_site_symmetry_2
_ccdc_geom_bond_type
Mn0 O5 2.095 . S
Mn0 O15 2.162 . S
Mn0 O16 2.297 . S
Mn0 O24 2.385 . S
Mn0 O25 2.209 . S
Mn0 O26 2.094 . S
Mn1 O6 2.121 . S
Mn1 N8 2.257 . S
Mn1 N17 2.282 . S
Mn1 O25 2.215 . S
Mn1 O27 2.117 . S
C2 O24 1.234 . S
C2 O25 1.283 . S
C3 O15 1.281 . S
C3 O16 1.236 . S
C4 O26 1.240 . S
C4 O27 1.264 . S
O5 Mn0 2.095 . S
O5 C14 1.250 . S
O6 Mn1 2.121 . S
O6 C14 1.258 . S
C7 N8 1.326 . S
C7 C11 1.460 . S
C7 H13 0.929 . S
N8 Mn1 2.257 . S
N8 C7 1.326 . S
N8 C12 1.362 . S
C9 C10 1.258 . S
C9 C12 1.431 . S
C9 C29 1.449 . S
C10 C9 1.258 . S
C10 C11 1.477 . S
C10 H30 0.931 . S
C11 C7 1.460 . S
C11 C10 1.477 . S
C11 H31 0.930 . S
C12 N8 1.362 . S
C12 C9 1.431 . S
C12 C22 1.476 . S
H13 C7 0.929 . S
C14 O5 1.250 . S
C14 O6 1.258 . S
O15 Mn0 2.162 . S
O15 C3 1.281 . S
O16 Mn0 2.297 . S
O16 C3 1.236 . S
N17 Mn1 2.282 . S
N17 C18 1.328 . S
N17 C22 1.318 . S
C18 N17 1.328 . S
C18 C19 1.457 . S
C18 H23 0.929 . S
C19 C18 1.457 . S
C19 C20 1.291 . S
C19 H32 0.931 . S
C20 C19 1.291 . S
C20 C21 1.373 . S
C20 H33 0.929 . S
C21 C20 1.373 . S
C21 C22 1.396 . S
C21 C28 1.403 . S
C22 C12 1.476 . S
C22 N17 1.318 . S
C22 C21 1.396 . S
H23 C18 0.929 . S
O24 Mn0 2.385 . S
O24 C2 1.234 . S
O25 Mn0 2.209 . S
O25 Mn1 2.215 . S
O25 C2 1.283 . S
O26 Mn0 2.094 . S
O26 C4 1.240 . S
O27 Mn1 2.117 . S
O27 C4 1.264 . S
C28 C21 1.403 . S
C28 C29 1.399 . S
C28 H34 0.929 . S
C29 C9 1.449 . S
C29 C28 1.399 . S
C29 H35 0.930 . S
H30 C10 0.931 . S
H31 C11 0.930 . S
H32 C19 0.931 . S
H33 C20 0.929 . S
H34 C28 0.929 . S
H35 C29 0.930 . S
Mn36 O41 2.095 . S
Mn36 O51 2.162 . S
Mn36 O52 2.297 . S
Mn36 O60 2.385 . S
Mn36 O61 2.209 . S
Mn36 O62 2.094 . S
Mn37 O42 2.121 . S
Mn37 N44 2.257 . S
Mn37 N53 2.282 1_455 S
Mn37 O61 2.215 . S
Mn37 O63 2.117 . S
C38 O60 1.234 . S
C38 O61 1.283 . S
C39 O51 1.281 . S
C39 O52 1.236 . S
C40 O62 1.240 . S
C40 O63 1.264 . S
O41 Mn36 2.095 . S
O41 C50 1.250 . S
O42 Mn37 2.121 . S
O42 C50 1.258 . S
C43 N44 1.326 . S
C43 C47 1.460 . S
C43 H49 0.929 . S
N44 Mn37 2.257 . S
N44 C43 1.326 . S
N44 C48 1.362 1_455 S
C45 C46 1.258 . S
C45 C48 1.431 . S
C45 C65 1.449 . S
C46 C45 1.258 . S
C46 C47 1.477 1_655 S
C46 H66 0.931 . S
C47 C43 1.460 . S
C47 C46 1.477 1_455 S
C47 H67 0.930 . S
C48 N44 1.362 1_655 S
C48 C45 1.431 . S
C48 C58 1.476 . S
H49 C43 0.929 . S
C50 O41 1.250 . S
C50 O42 1.258 . S
O51 Mn36 2.162 . S
O51 C39 1.281 . S
O52 Mn36 2.297 . S
O52 C39 1.236 . S
N53 Mn37 2.282 1_655 S
N53 C54 1.328 . S
N53 C58 1.318 . S
C54 N53 1.328 . S
C54 C55 1.457 . S
C54 H59 0.929 . S
C55 C54 1.457 . S
C55 C56 1.291 . S
C55 H68 0.931 . S
C56 C55 1.291 . S
C56 C57 1.373 . S
C56 H69 0.929 . S
C57 C56 1.373 . S
C57 C58 1.396 . S
C57 C64 1.403 . S
C58 C48 1.476 . S
C58 N53 1.318 . S
C58 C57 1.396 . S
H59 C54 0.929 . S
O60 Mn36 2.385 . S
O60 C38 1.234 . S
O61 Mn36 2.209 . S
O61 Mn37 2.215 . S
O61 C38 1.283 . S
O62 Mn36 2.094 . S
O62 C40 1.240 . S
O63 Mn37 2.117 . S
O63 C40 1.264 . S
C64 C57 1.403 . S
C64 C65 1.399 . S
C64 H70 0.929 . S
C65 C45 1.449 . S
C65 C64 1.399 . S
C65 H71 0.930 . S
H66 C46 0.931 . S
H67 C47 0.930 . S
H68 C55 0.931 . S
H69 C56 0.929 . S
H70 C64 0.929 . S
H71 C65 0.930 . S
Mn72 O77 2.095 . S
Mn72 O87 2.162 . S
Mn72 O88 2.297 . S
Mn72 O96 2.385 . S
Mn72 O97 2.209 . S
Mn72 O98 2.094 . S
Mn73 O78 2.121 . S
Mn73 N80 2.257 . S
Mn73 N89 2.282 1_545 S
Mn73 O97 2.215 . S
Mn73 O99 2.117 . S
C74 O96 1.234 . S
C74 O97 1.283 . S
C75 O87 1.281 . S
C75 O88 1.236 . S
C76 O98 1.240 . S
C76 O99 1.264 . S
O77 Mn72 2.095 . S
O77 C86 1.250 . S
O78 Mn73 2.121 . S
O78 C86 1.258 . S
C79 N80 1.326 . S
C79 C83 1.460 . S
C79 H85 0.929 . S
N80 Mn73 2.257 . S
N80 C79 1.326 . S
N80 C84 1.362 1_545 S
C81 C82 1.258 . S
C81 C84 1.431 . S
C81 C101 1.449 . S
C82 C81 1.258 . S
C82 C83 1.477 1_565 S
C82 H102 0.931 . S
C83 C79 1.460 . S
C83 C82 1.477 1_545 S
C83 H103 0.930 . S
C84 N80 1.362 1_565 S
C84 C81 1.431 . S
C84 C94 1.476 . S
H85 C79 0.929 . S
C86 O77 1.250 . S
C86 O78 1.258 . S
O87 Mn72 2.162 . S
O87 C75 1.281 . S
O88 Mn72 2.297 . S
O88 C75 1.236 . S
N89 Mn73 2.282 1_565 S
N89 C90 1.328 . S
N89 C94 1.318 . S
C90 N89 1.328 . S
C90 C91 1.457 . S
C90 H95 0.929 . S
C91 C90 1.457 . S
C91 C92 1.291 . S
C91 H104 0.931 . S
C92 C91 1.291 . S
C92 C93 1.373 . S
C92 H105 0.929 . S
C93 C92 1.373 . S
C93 C94 1.396 . S
C93 C100 1.403 . S
C94 C84 1.476 . S
C94 N89 1.318 . S
C94 C93 1.396 . S
H95 C90 0.929 . S
O96 Mn72 2.385 . S
O96 C74 1.234 . S
O97 Mn72 2.209 . S
O97 Mn73 2.215 . S
O97 C74 1.283 . S
O98 Mn72 2.094 . S
O98 C76 1.240 . S
O99 Mn73 2.117 . S
O99 C76 1.264 . S
C100 C93 1.403 . S
C100 C101 1.399 . S
C100 H106 0.929 . S
C101 C81 1.449 . S
C101 C100 1.399 . S
C101 H107 0.930 . S
H102 C82 0.931 . S
H103 C83 0.930 . S
H104 C91 0.931 . S
H105 C92 0.929 . S
H106 C100 0.929 . S
H107 C101 0.930 . S
Mn108 O113 2.095 . S
Mn108 O123 2.162 . S
Mn108 O124 2.297 1_556 S
Mn108 O132 2.385 . S
Mn108 O133 2.209 . S
Mn108 O134 2.094 . S
Mn109 O114 2.121 . S
Mn109 N116 2.257 1_556 S
Mn109 N125 2.282 . S
Mn109 O133 2.215 . S
Mn109 O135 2.117 . S
C110 O132 1.234 1_554 S
C110 O133 1.283 1_554 S
C111 O123 1.281 . S
C111 O124 1.236 1_556 S
C112 O134 1.240 . S
C112 O135 1.264 . S
O113 Mn108 2.095 . S
O113 C122 1.250 . S
O114 Mn109 2.121 . S
O114 C122 1.258 . S
C115 N116 1.326 . S
C115 C119 1.460 . S
C115 H121 0.929 . S
N116 Mn109 2.257 1_554 S
N116 C115 1.326 . S
N116 C120 1.362 . S
C117 C118 1.258 . S
C117 C120 1.431 . S
C117 C137 1.449 . S
C118 C117 1.258 . S
C118 C119 1.477 . S
C118 H138 0.931 . S
C119 C115 1.460 . S
C119 C118 1.477 . S
C119 H139 0.930 . S
C120 N116 1.362 . S
C120 C117 1.431 . S
C120 C130 1.476 . S
H121 C115 0.929 . S
C122 O113 1.250 . S
C122 O114 1.258 . S
O123 Mn108 2.162 . S
O123 C111 1.281 . S
O124 Mn108 2.297 1_554 S
O124 C111 1.236 1_554 S
N125 Mn109 2.282 . S
N125 C126 1.328 . S
N125 C130 1.318 1_556 S
C126 N125 1.328 . S
C126 C127 1.457 . S
C126 H131 0.929 . S
C127 C126 1.457 . S
C127 C128 1.291 1_556 S
C127 H140 0.931 . S
C128 C127 1.291 1_554 S
C128 C129 1.373 . S
C128 H141 0.929 . S
C129 C128 1.373 . S
C129 C130 1.396 . S
C129 C136 1.403 . S
C130 C120 1.476 . S
C130 N125 1.318 1_554 S
C130 C129 1.396 . S
H131 C126 0.929 . S
O132 Mn108 2.385 . S
O132 C110 1.234 1_556 S
O133 Mn108 2.209 . S
O133 Mn109 2.215 . S
O133 C110 1.283 1_556 S
O134 Mn108 2.094 . S
O134 C112 1.240 . S
O135 Mn109 2.117 . S
O135 C112 1.264 . S
C136 C129 1.403 . S
C136 C137 1.399 . S
C136 H142 0.929 . S
C137 C117 1.449 . S
C137 C136 1.399 . S
C137 H143 0.930 . S
H138 C118 0.931 . S
H139 C119 0.930 . S
H140 C127 0.931 . S
H141 C128 0.929 . S
H142 C136 0.929 . S
H143 C137 0.930 . S
Mn144 O149 2.095 . S
Mn144 O159 2.162 . S
Mn144 O160 2.297 . S
Mn144 O168 2.385 . S
Mn144 O169 2.209 . S
Mn144 O170 2.094 . S
Mn145 O150 2.121 . S
Mn145 N152 2.257 . S
Mn145 N161 2.282 1_655 S
Mn145 O169 2.215 . S
Mn145 O171 2.117 . S
C146 O168 1.234 . S
C146 O169 1.283 . S
C147 O159 1.281 . S
C147 O160 1.236 . S
C148 O170 1.240 1_556 S
C148 O171 1.264 1_556 S
O149 Mn144 2.095 . S
O149 C158 1.250 . S
O150 Mn145 2.121 . S
O150 C158 1.258 . S
C151 N152 1.326 . S
C151 C155 1.460 . S
C151 H157 0.929 . S
N152 Mn145 2.257 . S
N152 C151 1.326 . S
N152 C156 1.362 1_655 S
C153 C154 1.258 . S
C153 C156 1.431 . S
C153 C173 1.449 . S
C154 C153 1.258 . S
C154 C155 1.477 1_455 S
C154 H174 0.931 . S
C155 C151 1.460 . S
C155 C154 1.477 1_655 S
C155 H175 0.930 . S
C156 N152 1.362 1_455 S
C156 C153 1.431 . S
C156 C166 1.476 . S
H157 C151 0.929 . S
C158 O149 1.250 . S
C158 O150 1.258 . S
O159 Mn144 2.162 . S
O159 C147 1.281 . S
O160 Mn144 2.297 . S
O160 C147 1.236 . S
N161 Mn145 2.282 1_455 S
N161 C162 1.328 . S
N161 C166 1.318 . S
C162 N161 1.328 . S
C162 C163 1.457 . S
C162 H167 0.929 . S
C163 C162 1.457 . S
C163 C164 1.291 . S
C163 H176 0.931 . S
C164 C163 1.291 . S
C164 C165 1.373 . S
C164 H177 0.929 . S
C165 C164 1.373 . S
C165 C166 1.396 . S
C165 C172 1.403 . S
C166 C156 1.476 . S
C166 N161 1.318 . S
C166 C165 1.396 . S
H167 C162 0.929 . S
O168 Mn144 2.385 . S
O168 C146 1.234 . S
O169 Mn144 2.209 . S
O169 Mn145 2.215 . S
O169 C146 1.283 . S
O170 Mn144 2.094 . S
O170 C148 1.240 1_554 S
O171 Mn145 2.117 . S
O171 C148 1.264 1_554 S
C172 C165 1.403 . S
C172 C173 1.399 . S
C172 H178 0.929 . S
C173 C153 1.449 . S
C173 C172 1.399 . S
C173 H179 0.930 . S
H174 C154 0.931 . S
H175 C155 0.930 . S
H176 C163 0.931 . S
H177 C164 0.929 . S
H178 C172 0.929 . S
H179 C173 0.930 . S
Mn180 O185 2.095 . S
Mn180 O195 2.162 . S
Mn180 O196 2.297 . S
Mn180 O204 2.385 . S
Mn180 O205 2.209 . S
Mn180 O206 2.094 . S
Mn181 O186 2.121 . S
Mn181 N188 2.257 . S
Mn181 N197 2.282 1_565 S
Mn181 O205 2.215 . S
Mn181 O207 2.117 . S
C182 O204 1.234 . S
C182 O205 1.283 . S
C183 O195 1.281 . S
C183 O196 1.236 . S
C184 O206 1.240 . S
C184 O207 1.264 . S
O185 Mn180 2.095 . S
O185 C194 1.250 . S
O186 Mn181 2.121 . S
O186 C194 1.258 . S
C187 N188 1.326 . S
C187 C191 1.460 . S
C187 H193 0.929 . S
N188 Mn181 2.257 . S
N188 C187 1.326 . S
N188 C192 1.362 1_565 S
C189 C190 1.258 . S
C189 C192 1.431 . S
C189 C209 1.449 . S
C190 C189 1.258 . S
C190 C191 1.477 1_545 S
C190 H210 0.931 . S
C191 C187 1.460 . S
C191 C190 1.477 1_565 S
C191 H211 0.930 . S
C192 N188 1.362 1_545 S
C192 C189 1.431 . S
C192 C202 1.476 . S
H193 C187 0.929 . S
C194 O185 1.250 . S
C194 O186 1.258 . S
O195 Mn180 2.162 . S
O195 C183 1.281 . S
O196 Mn180 2.297 . S
O196 C183 1.236 . S
N197 Mn181 2.282 1_545 S
N197 C198 1.328 . S
N197 C202 1.318 . S
C198 N197 1.328 . S
C198 C199 1.457 . S
C198 H203 0.929 . S
C199 C198 1.457 . S
C199 C200 1.291 . S
C199 H212 0.931 . S
C200 C199 1.291 . S
C200 C201 1.373 . S
C200 H213 0.929 . S
C201 C200 1.373 . S
C201 C202 1.396 . S
C201 C208 1.403 . S
C202 C192 1.476 . S
C202 N197 1.318 . S
C202 C201 1.396 . S
H203 C198 0.929 . S
O204 Mn180 2.385 . S
O204 C182 1.234 . S
O205 Mn180 2.209 . S
O205 Mn181 2.215 . S
O205 C182 1.283 . S
O206 Mn180 2.094 . S
O206 C184 1.240 . S
O207 Mn181 2.117 . S
O207 C184 1.264 . S
C208 C201 1.403 . S
C208 C209 1.399 . S
C208 H214 0.929 . S
C209 C189 1.449 . S
C209 C208 1.399 . S
C209 H215 0.930 . S
H210 C190 0.931 . S
H211 C191 0.930 . S
H212 C199 0.931 . S
H213 C200 0.929 . S
H214 C208 0.929 . S
H215 C209 0.930 . S
Mn216 O221 2.095 . S
Mn216 O231 2.162 . S
Mn216 O232 2.297 . S
Mn216 O240 2.385 . S
Mn216 O241 2.209 . S
Mn216 O242 2.094 . S
Mn217 O222 2.121 . S
Mn217 N224 2.257 . S
Mn217 N233 2.282 . S
Mn217 O241 2.215 . S
Mn217 O243 2.117 . S
C218 O240 1.234 . S
C218 O241 1.283 . S
C219 O231 1.281 . S
C219 O232 1.236 . S
C220 O242 1.240 . S
C220 O243 1.264 . S
O221 Mn216 2.095 . S
O221 C230 1.250 . S
O222 Mn217 2.121 . S
O222 C230 1.258 . S
C223 N224 1.326 . S
C223 C227 1.460 . S
C223 H229 0.929 . S
N224 Mn217 2.257 . S
N224 C223 1.326 . S
N224 C228 1.362 . S
C225 C226 1.258 . S
C225 C228 1.431 . S
C225 C245 1.449 . S
C226 C225 1.258 . S
C226 C227 1.477 . S
C226 H246 0.931 . S
C227 C223 1.460 . S
C227 C226 1.477 . S
C227 H247 0.930 . S
C228 N224 1.362 . S
C228 C225 1.431 . S
C228 C238 1.476 . S
H229 C223 0.929 . S
C230 O221 1.250 . S
C230 O222 1.258 . S
O231 Mn216 2.162 . S
O231 C219 1.281 . S
O232 Mn216 2.297 . S
O232 C219 1.236 . S
N233 Mn217 2.282 . S
N233 C234 1.328 . S
N233 C238 1.318 . S
C234 N233 1.328 . S
C234 C235 1.457 . S
C234 H239 0.929 . S
C235 C234 1.457 . S
C235 C236 1.291 . S
C235 H248 0.931 . S
C236 C235 1.291 . S
C236 C237 1.373 . S
C236 H249 0.929 . S
C237 C236 1.373 . S
C237 C238 1.396 . S
C237 C244 1.403 . S
C238 C228 1.476 . S
C238 N233 1.318 . S
C238 C237 1.396 . S
H239 C234 0.929 . S
O240 Mn216 2.385 . S
O240 C218 1.234 . S
O241 Mn216 2.209 . S
O241 Mn217 2.215 . S
O241 C218 1.283 . S
O242 Mn216 2.094 . S
O242 C220 1.240 . S
O243 Mn217 2.117 . S
O243 C220 1.264 . S
C244 C237 1.403 . S
C244 C245 1.399 . S
C244 H250 0.929 . S
C245 C225 1.449 . S
C245 C244 1.399 . S
C245 H251 0.930 . S
H246 C226 0.931 . S
H247 C227 0.930 . S
H248 C235 0.931 . S
H249 C236 0.929 . S
H250 C244 0.929 . S
H251 C245 0.930 . S
Mn252 O257 2.095 . S
Mn252 O267 2.162 . S
Mn252 O268 2.297 . S
Mn252 O276 2.385 . S
Mn252 O277 2.209 . S
Mn252 O278 2.094 . S
Mn253 O258 2.121 . S
Mn253 N260 2.257 . S
Mn253 N269 2.282 1_455 S
Mn253 O277 2.215 . S
Mn253 O279 2.117 . S
C254 O276 1.234 . S
C254 O277 1.283 . S
C255 O267 1.281 . S
C255 O268 1.236 . S
C256 O278 1.240 . S
C256 O279 1.264 . S
O257 Mn252 2.095 . S
O257 C266 1.250 . S
O258 Mn253 2.121 . S
O258 C266 1.258 . S
C259 N260 1.326 . S
C259 C263 1.460 . S
C259 H265 0.929 . S
N260 Mn253 2.257 . S
N260 C259 1.326 . S
N260 C264 1.362 1_455 S
C261 C262 1.258 . S
C261 C264 1.431 . S
C261 C281 1.449 . S
C262 C261 1.258 . S
C262 C263 1.477 1_655 S
C262 H282 0.931 . S
C263 C259 1.460 . S
C263 C262 1.477 1_455 S
C263 H283 0.930 . S
C264 N260 1.362 1_655 S
C264 C261 1.431 . S
C264 C274 1.476 . S
H265 C259 0.929 . S
C266 O257 1.250 . S
C266 O258 1.258 . S
O267 Mn252 2.162 . S
O267 C255 1.281 . S
O268 Mn252 2.297 . S
O268 C255 1.236 . S
N269 Mn253 2.282 1_655 S
N269 C270 1.328 . S
N269 C274 1.318 . S
C270 N269 1.328 . S
C270 C271 1.457 . S
C270 H275 0.929 . S
C271 C270 1.457 . S
C271 C272 1.291 . S
C271 H284 0.931 . S
C272 C271 1.291 . S
C272 C273 1.373 . S
C272 H285 0.929 . S
C273 C272 1.373 . S
C273 C274 1.396 . S
C273 C280 1.403 . S
C274 C264 1.476 . S
C274 N269 1.318 . S
C274 C273 1.396 . S
H275 C270 0.929 . S
O276 Mn252 2.385 . S
O276 C254 1.234 . S
O277 Mn252 2.209 . S
O277 Mn253 2.215 . S
O277 C254 1.283 . S
O278 Mn252 2.094 . S
O278 C256 1.240 . S
O279 Mn253 2.117 . S
O279 C256 1.264 . S
C280 C273 1.403 . S
C280 C281 1.399 . S
C280 H286 0.929 . S
C281 C261 1.449 . S
C281 C280 1.399 . S
C281 H287 0.930 . S
H282 C262 0.931 . S
H283 C263 0.930 . S
H284 C271 0.931 . S
H285 C272 0.929 . S
H286 C280 0.929 . S
H287 C281 0.930 . S
Mn288 O293 2.095 . S
Mn288 O303 2.162 . S
Mn288 O304 2.297 . S
Mn288 O312 2.385 . S
Mn288 O313 2.209 . S
Mn288 O314 2.094 . S
Mn289 O294 2.121 . S
Mn289 N296 2.257 . S
Mn289 N305 2.282 1_545 S
Mn289 O313 2.215 . S
Mn289 O315 2.117 . S
C290 O312 1.234 . S
C290 O313 1.283 . S
C291 O303 1.281 . S
C291 O304 1.236 . S
C292 O314 1.240 . S
C292 O315 1.264 . S
O293 Mn288 2.095 . S
O293 C302 1.250 . S
O294 Mn289 2.121 . S
O294 C302 1.258 . S
C295 N296 1.326 . S
C295 C299 1.460 . S
C295 H301 0.929 . S
N296 Mn289 2.257 . S
N296 C295 1.326 . S
N296 C300 1.362 1_545 S
C297 C298 1.258 . S
C297 C300 1.431 . S
C297 C317 1.449 . S
C298 C297 1.258 . S
C298 C299 1.477 1_565 S
C298 H318 0.931 . S
C299 C295 1.460 . S
C299 C298 1.477 1_545 S
C299 H319 0.930 . S
C300 N296 1.362 1_565 S
C300 C297 1.431 . S
C300 C310 1.476 . S
H301 C295 0.929 . S
C302 O293 1.250 . S
C302 O294 1.258 . S
O303 Mn288 2.162 . S
O303 C291 1.281 . S
O304 Mn288 2.297 . S
O304 C291 1.236 . S
N305 Mn289 2.282 1_565 S
N305 C306 1.328 . S
N305 C310 1.318 . S
C306 N305 1.328 . S
C306 C307 1.457 . S
C306 H311 0.929 . S
C307 C306 1.457 . S
C307 C308 1.291 . S
C307 H320 0.931 . S
C308 C307 1.291 . S
C308 C309 1.373 . S
C308 H321 0.929 . S
C309 C308 1.373 . S
C309 C310 1.396 . S
C309 C316 1.403 . S
C310 C300 1.476 . S
C310 N305 1.318 . S
C310 C309 1.396 . S
H311 C306 0.929 . S
O312 Mn288 2.385 . S
O312 C290 1.234 . S
O313 Mn288 2.209 . S
O313 Mn289 2.215 . S
O313 C290 1.283 . S
O314 Mn288 2.094 . S
O314 C292 1.240 . S
O315 Mn289 2.117 . S
O315 C292 1.264 . S
C316 C309 1.403 . S
C316 C317 1.399 . S
C316 H322 0.929 . S
C317 C297 1.449 . S
C317 C316 1.399 . S
C317 H323 0.930 . S
H318 C298 0.931 . S
H319 C299 0.930 . S
H320 C307 0.931 . S
H321 C308 0.929 . S
H322 C316 0.929 . S
H323 C317 0.930 . S
Mn324 O329 2.095 . S
Mn324 O339 2.162 . S
Mn324 O340 2.297 . S
Mn324 O348 2.385 . S
Mn324 O349 2.209 . S
Mn324 O350 2.094 . S
Mn325 O330 2.121 . S
Mn325 N332 2.257 . S
Mn325 N341 2.282 . S
Mn325 O349 2.215 . S
Mn325 O351 2.117 . S
C326 O348 1.234 . S
C326 O349 1.283 . S
C327 O339 1.281 . S
C327 O340 1.236 . S
C328 O350 1.240 1_554 S
C328 O351 1.264 1_554 S
O329 Mn324 2.095 . S
O329 C338 1.250 . S
O330 Mn325 2.121 . S
O330 C338 1.258 . S
C331 N332 1.326 . S
C331 C335 1.460 . S
C331 H337 0.929 . S
N332 Mn325 2.257 . S
N332 C331 1.326 . S
N332 C336 1.362 . S
C333 C334 1.258 . S
C333 C336 1.431 . S
C333 C353 1.449 . S
C334 C333 1.258 . S
C334 C335 1.477 . S
C334 H354 0.931 . S
C335 C331 1.460 . S
C335 C334 1.477 . S
C335 H355 0.930 . S
C336 N332 1.362 . S
C336 C333 1.431 . S
C336 C346 1.476 . S
H337 C331 0.929 . S
C338 O329 1.250 . S
C338 O330 1.258 . S
O339 Mn324 2.162 . S
O339 C327 1.281 . S
O340 Mn324 2.297 . S
O340 C327 1.236 . S
N341 Mn325 2.282 . S
N341 C342 1.328 . S
N341 C346 1.318 . S
C342 N341 1.328 . S
C342 C343 1.457 . S
C342 H347 0.929 . S
C343 C342 1.457 . S
C343 C344 1.291 . S
C343 H356 0.931 . S
C344 C343 1.291 . S
C344 C345 1.373 . S
C344 H357 0.929 . S
C345 C344 1.373 . S
C345 C346 1.396 . S
C345 C352 1.403 . S
C346 C336 1.476 . S
C346 N341 1.318 . S
C346 C345 1.396 . S
H347 C342 0.929 . S
O348 Mn324 2.385 . S
O348 C326 1.234 . S
O349 Mn324 2.209 . S
O349 Mn325 2.215 . S
O349 C326 1.283 . S
O350 Mn324 2.094 . S
O350 C328 1.240 1_556 S
O351 Mn325 2.117 . S
O351 C328 1.264 1_556 S
C352 C345 1.403 . S
C352 C353 1.399 . S
C352 H358 0.929 . S
C353 C333 1.449 . S
C353 C352 1.399 . S
C353 H359 0.930 . S
H354 C334 0.931 . S
H355 C335 0.930 . S
H356 C343 0.931 . S
H357 C344 0.929 . S
H358 C352 0.929 . S
H359 C353 0.930 . S
Mn360 O365 2.095 . S
Mn360 O375 2.162 . S
Mn360 O376 2.297 1_554 S
Mn360 O384 2.385 . S
Mn360 O385 2.209 . S
Mn360 O386 2.094 . S
Mn361 O366 2.121 . S
Mn361 N368 2.257 1_554 S
Mn361 N377 2.282 1_655 S
Mn361 O385 2.215 . S
Mn361 O387 2.117 . S
C362 O384 1.234 1_556 S
C362 O385 1.283 1_556 S
C363 O375 1.281 . S
C363 O376 1.236 1_554 S
C364 O386 1.240 . S
C364 O387 1.264 . S
O365 Mn360 2.095 . S
O365 C374 1.250 . S
O366 Mn361 2.121 . S
O366 C374 1.258 . S
C367 N368 1.326 . S
C367 C371 1.460 . S
C367 H373 0.929 . S
N368 Mn361 2.257 1_556 S
N368 C367 1.326 . S
N368 C372 1.362 1_655 S
C369 C370 1.258 . S
C369 C372 1.431 . S
C369 C389 1.449 . S
C370 C369 1.258 . S
C370 C371 1.477 1_455 S
C370 H390 0.931 . S
C371 C367 1.460 . S
C371 C370 1.477 1_655 S
C371 H391 0.930 . S
C372 N368 1.362 1_455 S
C372 C369 1.431 . S
C372 C382 1.476 . S
H373 C367 0.929 . S
C374 O365 1.250 . S
C374 O366 1.258 . S
O375 Mn360 2.162 . S
O375 C363 1.281 . S
O376 Mn360 2.297 1_556 S
O376 C363 1.236 1_556 S
N377 Mn361 2.282 1_455 S
N377 C378 1.328 . S
N377 C382 1.318 1_554 S
C378 N377 1.328 . S
C378 C379 1.457 . S
C378 H383 0.929 . S
C379 C378 1.457 . S
C379 C380 1.291 1_554 S
C379 H392 0.931 . S
C380 C379 1.291 1_556 S
C380 C381 1.373 . S
C380 H393 0.929 . S
C381 C380 1.373 . S
C381 C382 1.396 . S
C381 C388 1.403 . S
C382 C372 1.476 . S
C382 N377 1.318 1_556 S
C382 C381 1.396 . S
H383 C378 0.929 . S
O384 Mn360 2.385 . S
O384 C362 1.234 1_554 S
O385 Mn360 2.209 . S
O385 Mn361 2.215 . S
O385 C362 1.283 1_554 S
O386 Mn360 2.094 . S
O386 C364 1.240 . S
O387 Mn361 2.117 . S
O387 C364 1.264 . S
C388 C381 1.403 . S
C388 C389 1.399 . S
C388 H394 0.929 . S
C389 C369 1.449 . S
C389 C388 1.399 . S
C389 H395 0.930 . S
H390 C370 0.931 . S
H391 C371 0.930 . S
H392 C379 0.931 . S
H393 C380 0.929 . S
H394 C388 0.929 . S
H395 C389 0.930 . S
Mn396 O401 2.095 . S
Mn396 O411 2.162 . S
Mn396 O412 2.297 . S
Mn396 O420 2.385 . S
Mn396 O421 2.209 . S
Mn396 O422 2.094 . S
Mn397 O402 2.121 . S
Mn397 N404 2.257 . S
Mn397 N413 2.282 1_565 S
Mn397 O421 2.215 . S
Mn397 O423 2.117 . S
C398 O420 1.234 . S
C398 O421 1.283 . S
C399 O411 1.281 . S
C399 O412 1.236 . S
C400 O422 1.240 . S
C400 O423 1.264 . S
O401 Mn396 2.095 . S
O401 C410 1.250 . S
O402 Mn397 2.121 . S
O402 C410 1.258 . S
C403 N404 1.326 . S
C403 C407 1.460 . S
C403 H409 0.929 . S
N404 Mn397 2.257 . S
N404 C403 1.326 . S
N404 C408 1.362 1_565 S
C405 C406 1.258 . S
C405 C408 1.431 . S
C405 C425 1.449 . S
C406 C405 1.258 . S
C406 C407 1.477 1_545 S
C406 H426 0.931 . S
C407 C403 1.460 . S
C407 C406 1.477 1_565 S
C407 H427 0.930 . S
C408 N404 1.362 1_545 S
C408 C405 1.431 . S
C408 C418 1.476 . S
H409 C403 0.929 . S
C410 O401 1.250 . S
C410 O402 1.258 . S
O411 Mn396 2.162 . S
O411 C399 1.281 . S
O412 Mn396 2.297 . S
O412 C399 1.236 . S
N413 Mn397 2.282 1_545 S
N413 C414 1.328 . S
N413 C418 1.318 . S
C414 N413 1.328 . S
C414 C415 1.457 . S
C414 H419 0.929 . S
C415 C414 1.457 . S
C415 C416 1.291 . S
C415 H428 0.931 . S
C416 C415 1.291 . S
C416 C417 1.373 . S
C416 H429 0.929 . S
C417 C416 1.373 . S
C417 C418 1.396 . S
C417 C424 1.403 . S
C418 C408 1.476 . S
C418 N413 1.318 . S
C418 C417 1.396 . S
H419 C414 0.929 . S
O420 Mn396 2.385 . S
O420 C398 1.234 . S
O421 Mn396 2.209 . S
O421 Mn397 2.215 . S
O421 C398 1.283 . S
O422 Mn396 2.094 . S
O422 C400 1.240 . S
O423 Mn397 2.117 . S
O423 C400 1.264 . S
C424 C417 1.403 . S
C424 C425 1.399 . S
C424 H430 0.929 . S
C425 C405 1.449 . S
C425 C424 1.399 . S
C425 H431 0.930 . S
H426 C406 0.931 . S
H427 C407 0.930 . S
H428 C415 0.931 . S
H429 C416 0.929 . S
H430 C424 0.929 . S
H431 C425 0.930 . S
H432 C438 0.930 . S
H433 C441 0.930 . S
H434 C442 0.930 . S
H435 C443 0.930 . S
H436 C446 0.930 . S
H437 C447 0.930 . S
C438 H432 0.930 . S
C438 C439 1.355 . S
C438 C440 1.415 . S
C439 C438 1.355 . S
C439 C441 1.419 . S
C440 C438 1.415 . S
C440 C445 1.425 . S
C440 C447 1.409 . S
C441 H433 0.930 . S
C441 C439 1.419 . S
C441 C442 1.362 . S
C442 H434 0.930 . S
C442 C441 1.362 . S
C442 C445 1.409 . S
C443 H435 0.930 . S
C443 C444 1.355 . S
C443 C445 1.415 . S
C444 C443 1.355 . S
C444 C446 1.419 . S
C445 C440 1.425 . S
C445 C442 1.409 . S
C445 C443 1.415 . S
C446 H436 0.930 . S
C446 C444 1.419 . S
C446 C447 1.362 . S
C447 H437 0.930 . S
C447 C440 1.409 . S
C447 C446 1.362 . S
H448 C454 0.930 . S
H449 C457 0.930 . S
H450 C458 0.930 . S
H451 C459 0.930 . S
H452 C462 0.930 . S
H453 C463 0.930 . S
C454 H448 0.930 . S
C454 C455 1.355 . S
C454 C456 1.415 . S
C455 C454 1.355 . S
C455 C457 1.419 . S
C456 C454 1.415 . S
C456 C461 1.425 1_455 S
C456 C463 1.409 . S
C457 H449 0.930 . S
C457 C455 1.419 . S
C457 C458 1.362 1_455 S
C458 H450 0.930 . S
C458 C457 1.362 1_655 S
C458 C461 1.409 . S
C459 H451 0.930 . S
C459 C460 1.355 . S
C459 C461 1.415 . S
C460 C459 1.355 . S
C460 C462 1.419 . S
C461 C456 1.425 1_655 S
C461 C458 1.409 . S
C461 C459 1.415 . S
C462 H452 0.930 . S
C462 C460 1.419 . S
C462 C463 1.362 1_655 S
C463 H453 0.930 . S
C463 C456 1.409 . S
C463 C462 1.362 1_455 S
H464 C470 0.930 . S
H465 C473 0.930 . S
H466 C474 0.930 . S
H467 C475 0.930 . S
H468 C478 0.930 . S
H469 C479 0.930 . S
C470 H464 0.930 . S
C470 C471 1.355 . S
C470 C472 1.415 . S
C471 C470 1.355 . S
C471 C473 1.419 . S
C472 C470 1.415 . S
C472 C477 1.425 1_565 S
C472 C479 1.409 1_565 S
C473 H465 0.930 . S
C473 C471 1.419 . S
C473 C474 1.362 . S
C474 H466 0.930 . S
C474 C473 1.362 . S
C474 C477 1.409 1_565 S
C475 H467 0.930 . S
C475 C476 1.355 . S
C475 C477 1.415 . S
C476 C475 1.355 . S
C476 C478 1.419 . S
C477 C472 1.425 1_545 S
C477 C474 1.409 1_545 S
C477 C475 1.415 . S
C478 H468 0.930 . S
C478 C476 1.419 . S
C478 C479 1.362 . S
C479 H469 0.930 . S
C479 C472 1.409 1_545 S
C479 C478 1.362 . S
H480 C486 0.930 . S
H481 C489 0.930 . S
H482 C490 0.930 . S
H483 C491 0.930 . S
H484 C494 0.930 . S
H485 C495 0.930 . S
C486 H480 0.930 . S
C486 C487 1.355 . S
C486 C488 1.415 . S
C487 C486 1.355 . S
C487 C489 1.419 . S
C488 C486 1.415 . S
C488 C493 1.425 . S
C488 C495 1.409 . S
C489 H481 0.930 . S
C489 C487 1.419 . S
C489 C490 1.362 . S
C490 H482 0.930 . S
C490 C489 1.362 . S
C490 C493 1.409 . S
C491 H483 0.930 . S
C491 C492 1.355 . S
C491 C493 1.415 . S
C492 C491 1.355 . S
C492 C494 1.419 . S
C493 C488 1.425 . S
C493 C490 1.409 . S
C493 C491 1.415 . S
C494 H484 0.930 . S
C494 C492 1.419 . S
C494 C495 1.362 . S
C495 H485 0.930 . S
C495 C488 1.409 . S
C495 C494 1.362 . S
H496 C502 0.930 . S
H497 C505 0.930 . S
H498 C506 0.930 . S
H499 C507 0.930 . S
H500 C510 0.930 . S
H501 C511 0.930 . S
C502 H496 0.930 . S
C502 C503 1.355 . S
C502 C504 1.400 1_455 S
C503 C502 1.355 . S
C503 C505 1.419 . S
C504 C502 1.400 1_655 S
C504 C509 1.395 1_655 S
C504 C511 1.440 . S
C505 H497 0.930 . S
C505 C503 1.419 . S
C505 C506 1.362 . S
C506 H498 0.930 . S
C506 C505 1.362 . S
C506 C509 1.439 . S
C507 H499 0.930 . S
C507 C508 1.355 . S
C507 C509 1.400 1_655 S
C508 C507 1.355 . S
C508 C510 1.419 . S
C509 C504 1.395 1_455 S
C509 C506 1.439 . S
C509 C507 1.400 1_455 S
C510 H500 0.930 . S
C510 C508 1.419 . S
C510 C511 1.362 . S
C511 H501 0.930 . S
C511 C504 1.440 . S
C511 C510 1.362 . S
H512 C518 0.930 . S
H513 C521 0.930 . S
H514 C522 0.930 . S
H515 C523 0.930 . S
H516 C526 0.930 . S
H517 C527 0.930 . S
C518 H512 0.930 . S
C518 C519 1.355 . S
C518 C520 1.415 1_556 S
C519 C518 1.355 . S
C519 C521 1.419 . S
C520 C518 1.415 1_554 S
C520 C525 1.425 1_544 S
C520 C527 1.409 . S
C521 H513 0.930 . S
C521 C519 1.419 . S
C521 C522 1.362 1_545 S
C522 H514 0.930 . S
C522 C521 1.362 1_565 S
C522 C525 1.409 . S
C523 H515 0.930 . S
C523 C524 1.355 . S
C523 C525 1.415 1_554 S
C524 C523 1.355 . S
C524 C526 1.419 . S
C525 C520 1.425 1_566 S
C525 C522 1.409 . S
C525 C523 1.415 1_556 S
C526 H516 0.930 . S
C526 C524 1.419 . S
C526 C527 1.362 1_565 S
C527 H517 0.930 . S
C527 C520 1.409 . S
C527 C526 1.362 1_545 S
H528 C534 0.930 . S
H529 C537 0.930 . S
H530 C538 0.930 . S
H531 C539 0.930 . S
H532 C542 0.930 . S
H533 C543 0.930 . S
C534 H528 0.930 . S
C534 C535 1.355 . S
C534 C536 1.415 . S
C535 C534 1.355 . S
C535 C537 1.419 . S
C536 C534 1.415 . S
C536 C541 1.425 . S
C536 C543 1.409 . S
C537 H529 0.930 . S
C537 C535 1.419 . S
C537 C538 1.362 . S
C538 H530 0.930 . S
C538 C537 1.362 . S
C538 C541 1.409 . S
C539 H531 0.930 . S
C539 C540 1.355 . S
C539 C541 1.415 . S
C540 C539 1.355 . S
C540 C542 1.419 . S
C541 C536 1.425 . S
C541 C538 1.409 . S
C541 C539 1.415 . S
C542 H532 0.930 . S
C542 C540 1.419 . S
C542 C543 1.362 . S
C543 H533 0.930 . S
C543 C536 1.409 . S
C543 C542 1.362 . S
H544 C550 0.930 . S
H545 C553 0.930 . S
H546 C554 0.930 . S
H547 C555 0.930 . S
H548 C558 0.930 . S
H549 C559 0.930 . S
C550 H544 0.930 . S
C550 C551 1.355 . S
C550 C552 1.415 . S
C551 C550 1.355 . S
C551 C553 1.419 . S
C552 C550 1.415 . S
C552 C557 1.425 . S
C552 C559 1.409 . S
C553 H545 0.930 . S
C553 C551 1.419 . S
C553 C554 1.362 . S
C554 H546 0.930 . S
C554 C553 1.362 . S
C554 C557 1.409 . S
C555 H547 0.930 . S
C555 C556 1.355 . S
C555 C557 1.415 . S
C556 C555 1.355 . S
C556 C558 1.419 . S
C557 C552 1.425 . S
C557 C554 1.409 . S
C557 C555 1.415 . S
C558 H548 0.930 . S
C558 C556 1.419 . S
C558 C559 1.362 . S
C559 H549 0.930 . S
C559 C552 1.409 . S
C559 C558 1.362 . S
H560 C566 0.930 . S
H561 C569 0.930 . S
H562 C570 0.930 . S
H563 C571 0.930 . S
H564 C574 0.930 . S
H565 C575 0.930 . S
C566 H560 0.930 . S
C566 C567 1.355 . S
C566 C568 1.415 . S
C567 C566 1.355 . S
C567 C569 1.419 . S
C568 C566 1.415 . S
C568 C573 1.425 . S
C568 C575 1.409 . S
C569 H561 0.930 . S
C569 C567 1.419 . S
C569 C570 1.362 . S
C570 H562 0.930 . S
C570 C569 1.362 . S
C570 C573 1.409 . S
C571 H563 0.930 . S
C571 C572 1.355 . S
C571 C573 1.415 . S
C572 C571 1.355 . S
C572 C574 1.419 . S
C573 C568 1.425 . S
C573 C570 1.409 . S
C573 C571 1.415 . S
C574 H564 0.930 . S
C574 C572 1.419 . S
C574 C575 1.362 . S
C575 H565 0.930 . S
C575 C568 1.409 . S
C575 C574 1.362 . S
H576 C582 0.930 . S
H577 C585 0.930 . S
H578 C586 0.930 . S
H579 C587 0.930 . S
H580 C590 0.930 . S
H581 C591 0.930 . S
C582 H576 0.930 . S
C582 C583 1.355 . S
C582 C584 1.415 . S
C583 C582 1.355 . S
C583 C585 1.419 . S
C584 C582 1.415 . S
C584 C589 1.425 . S
C584 C591 1.409 . S
C585 H577 0.930 . S
C585 C583 1.419 . S
C585 C586 1.362 . S
C586 H578 0.930 . S
C586 C585 1.362 . S
C586 C589 1.409 . S
C587 H579 0.930 . S
C587 C588 1.355 . S
C587 C589 1.415 . S
C588 C587 1.355 . S
C588 C590 1.419 . S
C589 C584 1.425 . S
C589 C586 1.409 . S
C589 C587 1.415 . S
C590 H580 0.930 . S
C590 C588 1.419 . S
C590 C591 1.362 . S
C591 H581 0.930 . S
C591 C584 1.409 . S
C591 C590 1.362 . S
H592 C598 0.930 . S
H593 C601 0.930 . S
H594 C602 0.930 1_556 S
H595 C603 0.930 . S
H596 C606 0.930 . S
H597 C607 0.930 . S
C598 H592 0.930 . S
C598 C599 1.355 . S
C598 C600 1.415 . S
C599 C598 1.355 . S
C599 C601 1.419 . S
C600 C598 1.415 . S
C600 C605 1.425 . S
C600 C607 1.409 . S
C601 H593 0.930 . S
C601 C599 1.419 . S
C601 C602 1.362 . S
C602 H594 0.930 1_554 S
C602 C601 1.362 . S
C602 C605 1.409 . S
C603 H595 0.930 . S
C603 C604 1.355 . S
C603 C605 1.415 . S
C604 C603 1.355 . S
C604 C606 1.419 . S
C605 C600 1.425 . S
C605 C602 1.409 . S
C605 C603 1.415 . S
C606 H596 0.930 . S
C606 C604 1.419 . S
C606 C607 1.362 . S
C607 H597 0.930 . S
C607 C600 1.409 . S
C607 C606 1.362 . S
H608 C614 0.930 . S
H609 C617 0.930 . S
H610 C618 0.930 . S
H611 C619 0.930 . S
H612 C622 0.930 . S
H613 C623 0.930 . S
C614 H608 0.930 . S
C614 C615 1.355 . S
C614 C616 1.415 . S
C615 C614 1.355 . S
C615 C617 1.419 . S
C616 C614 1.415 . S
C616 C621 1.425 . S
C616 C623 1.409 . S
C617 H609 0.930 . S
C617 C615 1.419 . S
C617 C618 1.362 . S
C618 H610 0.930 . S
C618 C617 1.362 . S
C618 C621 1.409 . S
C619 H611 0.930 . S
C619 C620 1.355 . S
C619 C621 1.415 . S
C620 C619 1.355 . S
C620 C622 1.419 . S
C621 C616 1.425 . S
C621 C618 1.409 . S
C621 C619 1.415 . S
C622 H612 0.930 . S
C622 C620 1.419 . S
C622 C623 1.362 . S
C623 H613 0.930 . S
C623 C616 1.409 . S
C623 C622 1.362 . S
H624 C630 0.930 . S
H625 C633 0.930 . S
H626 C634 0.930 . S
H627 C635 0.930 . S
H628 C638 0.930 . S
H629 C639 0.930 . S
C630 H624 0.930 . S
C630 C631 1.355 . S
C630 C632 1.415 . S
C631 C630 1.355 . S
C631 C633 1.419 . S
C632 C630 1.415 . S
C632 C637 1.425 . S
C632 C639 1.409 . S
C633 H625 0.930 . S
C633 C631 1.419 . S
C633 C634 1.362 . S
C634 H626 0.930 . S
C634 C633 1.362 . S
C634 C637 1.409 . S
C635 H627 0.930 . S
C635 C636 1.355 . S
C635 C637 1.415 . S
C636 C635 1.355 . S
C636 C638 1.419 . S
C637 C632 1.425 . S
C637 C634 1.409 . S
C637 C635 1.415 . S
C638 H628 0.930 . S
C638 C636 1.419 . S
C638 C639 1.362 . S
C639 H629 0.930 . S
C639 C632 1.409 . S
C639 C638 1.362 . S
H640 C646 0.930 . S
H641 C649 0.930 . S
H642 C650 0.930 . S
H643 C651 0.930 . S
H644 C654 0.930 . S
H645 C655 0.930 . S
C646 H640 0.930 . S
C646 C647 1.355 . S
C646 C648 1.416 1_655 S
C647 C646 1.355 . S
C647 C649 1.419 . S
C648 C646 1.416 1_455 S
C648 C653 1.422 1_455 S
C648 C655 1.409 . S
C649 H641 0.930 . S
C649 C647 1.419 . S
C649 C650 1.362 . S
C650 H642 0.930 . S
C650 C649 1.362 . S
C650 C653 1.408 . S
C651 H643 0.930 . S
C651 C652 1.355 . S
C651 C653 1.417 1_455 S
C652 C651 1.355 . S
C652 C654 1.419 . S
C653 C648 1.422 1_655 S
C653 C650 1.408 . S
C653 C651 1.417 1_655 S
C654 H644 0.930 . S
C654 C652 1.419 . S
C654 C655 1.362 . S
C655 H645 0.930 . S
C655 C648 1.409 . S
C655 C654 1.362 . S
H656 C662 0.930 . S
H657 C665 0.930 . S
H658 C666 0.930 . S
H659 C667 0.930 . S
H660 C670 0.930 . S
H661 C671 0.930 . S
C662 H656 0.930 . S
C662 C663 1.355 . S
C662 C664 1.415 1_554 S
C663 C662 1.355 . S
C663 C665 1.419 . S
C664 C662 1.415 1_556 S
C664 C669 1.425 1_566 S
C664 C671 1.409 . S
C665 H657 0.930 . S
C665 C663 1.419 . S
C665 C666 1.362 1_565 S
C666 H658 0.930 . S
C666 C665 1.362 1_545 S
C666 C669 1.409 . S
C667 H659 0.930 . S
C667 C668 1.355 . S
C667 C669 1.415 1_556 S
C668 C667 1.355 . S
C668 C670 1.419 . S
C669 C664 1.425 1_544 S
C669 C666 1.409 . S
C669 C667 1.415 1_554 S
C670 H660 0.930 . S
C670 C668 1.419 . S
C670 C671 1.362 1_545 S
C671 H661 0.930 . S
C671 C664 1.409 . S
C671 C670 1.362 1_565 S
H672 C678 0.930 . S
H673 C681 0.930 . S
H674 C682 0.930 . S
H675 C683 0.930 . S
H676 C686 0.930 . S
H677 C687 0.930 . S
C678 H672 0.930 . S
C678 C679 1.355 . S
C678 C680 1.415 . S
C679 C678 1.355 . S
C679 C681 1.419 . S
C680 C678 1.415 . S
C680 C685 1.425 . S
C680 C687 1.409 . S
C681 H673 0.930 . S
C681 C679 1.419 . S
C681 C682 1.362 . S
C682 H674 0.930 . S
C682 C681 1.362 . S
C682 C685 1.409 . S
C683 H675 0.930 . S
C683 C684 1.355 . S
C683 C685 1.415 . S
C684 C683 1.355 . S
C684 C686 1.419 . S
C685 C680 1.425 . S
C685 C682 1.409 . S
C685 C683 1.415 . S
C686 H676 0.930 . S
C686 C684 1.419 . S
C686 C687 1.362 . S
C687 H677 0.930 . S
C687 C680 1.409 . S
C687 C686 1.362 . S
H688 C694 0.930 . S
H689 C697 0.930 . S
H690 C698 0.930 . S
H691 C699 0.930 . S
H692 C702 0.930 . S
H693 C703 0.930 . S
C694 H688 0.930 . S
C694 C695 1.355 . S
C694 C696 1.415 . S
C695 C694 1.355 . S
C695 C697 1.419 . S
C696 C694 1.415 . S
C696 C701 1.425 1_455 S
C696 C703 1.409 . S
C697 H689 0.930 . S
C697 C695 1.419 . S
C697 C698 1.362 1_455 S
C698 H690 0.930 . S
C698 C697 1.362 1_655 S
C698 C701 1.409 . S
C699 H691 0.930 . S
C699 C700 1.355 . S
C699 C701 1.415 . S
C700 C699 1.355 . S
C700 C702 1.419 . S
C701 C696 1.425 1_655 S
C701 C698 1.409 . S
C701 C699 1.415 . S
C702 H692 0.930 . S
C702 C700 1.419 . S
C702 C703 1.362 1_655 S
C703 H693 0.930 . S
C703 C696 1.409 . S
C703 C702 1.362 1_455 S
H704 C710 0.930 . S
H705 C713 0.930 . S
H706 C714 0.930 . S
H707 C715 0.930 . S
H708 C718 0.930 . S
H709 C719 0.930 . S
C710 H704 0.930 . S
C710 C711 1.355 . S
C710 C712 1.415 . S
C711 C710 1.355 . S
C711 C713 1.419 . S
C712 C710 1.415 . S
C712 C717 1.425 1_565 S
C712 C719 1.409 . S
C713 H705 0.930 . S
C713 C711 1.419 . S
C713 C714 1.362 1_565 S
C714 H706 0.930 . S
C714 C713 1.362 1_545 S
C714 C717 1.409 . S
C715 H707 0.930 . S
C715 C716 1.355 . S
C715 C717 1.415 . S
C716 C715 1.355 . S
C716 C718 1.419 . S
C717 C712 1.425 1_545 S
C717 C714 1.409 . S
C717 C715 1.415 . S
C718 H708 0.930 . S
C718 C716 1.419 . S
C718 C719 1.362 1_545 S
C719 H709 0.930 . S
C719 C712 1.409 . S
C719 C718 1.362 1_565 S
H720 C726 0.930 . S
H721 C729 0.930 . S
H722 C730 0.930 . S
H723 C731 0.930 . S
H724 C734 0.930 . S
H725 C735 0.930 . S
C726 H720 0.930 . S
C726 C727 1.355 . S
C726 C728 1.415 . S
C727 C726 1.355 . S
C727 C729 1.419 . S
C728 C726 1.415 . S
C728 C733 1.425 . S
C728 C735 1.409 . S
C729 H721 0.930 . S
C729 C727 1.419 . S
C729 C730 1.362 . S
C730 H722 0.930 . S
C730 C729 1.362 . S
C730 C733 1.409 . S
C731 H723 0.930 . S
C731 C732 1.355 . S
C731 C733 1.415 . S
C732 C731 1.355 . S
C732 C734 1.419 . S
C733 C728 1.425 . S
C733 C730 1.409 . S
C733 C731 1.415 . S
C734 H724 0.930 . S
C734 C732 1.419 . S
C734 C735 1.362 . S
C735 H725 0.930 . S
C735 C728 1.409 . S
C735 C734 1.362 . S
H736 C742 0.930 . S
H737 C745 0.930 . S
H738 C746 0.930 . S
H739 C747 0.930 . S
H740 C750 0.930 . S
H741 C751 0.930 . S
C742 H736 0.930 . S
C742 C743 1.355 . S
C742 C744 1.415 . S
C743 C742 1.355 . S
C743 C745 1.419 . S
C744 C742 1.415 . S
C744 C749 1.425 . S
C744 C751 1.409 . S
C745 H737 0.930 . S
C745 C743 1.419 . S
C745 C746 1.362 . S
C746 H738 0.930 . S
C746 C745 1.362 . S
C746 C749 1.409 . S
C747 H739 0.930 . S
C747 C748 1.355 . S
C747 C749 1.415 . S
C748 C747 1.355 . S
C748 C750 1.419 . S
C749 C744 1.425 . S
C749 C746 1.409 . S
C749 C747 1.415 . S
C750 H740 0.930 . S
C750 C748 1.419 . S
C750 C751 1.362 . S
C751 H741 0.930 . S
C751 C744 1.409 . S
C751 C750 1.362 . S
H752 C758 0.930 1_554 S
H753 C761 0.930 . S
H754 C762 0.930 . S
H755 C763 0.930 . S
H756 C766 0.930 . S
H757 C767 0.930 . S
C758 H752 0.930 1_556 S
C758 C759 1.355 . S
C758 C760 1.415 . S
C759 C758 1.355 . S
C759 C761 1.419 . S
C760 C758 1.415 . S
C760 C765 1.425 . S
C760 C767 1.409 . S
C761 H753 0.930 . S
C761 C759 1.419 . S
C761 C762 1.362 . S
C762 H754 0.930 . S
C762 C761 1.362 . S
C762 C765 1.409 . S
C763 H755 0.930 . S
C763 C764 1.355 . S
C763 C765 1.415 . S
C764 C763 1.355 . S
C764 C766 1.419 . S
C765 C760 1.425 . S
C765 C762 1.409 . S
C765 C763 1.415 . S
C766 H756 0.930 . S
C766 C764 1.419 . S
C766 C767 1.362 . S
C767 H757 0.930 . S
C767 C760 1.409 . S
C767 C766 1.362 . S
H768 C774 0.930 . S
H769 C777 0.930 . S
H770 C778 0.930 . S
H771 C779 0.930 . S
H772 C782 0.930 . S
H773 C783 0.930 . S
C774 H768 0.930 . S
C774 C775 1.355 . S
C774 C776 1.415 . S
C775 C774 1.355 . S
C775 C777 1.419 . S
C776 C774 1.415 . S
C776 C781 1.425 . S
C776 C783 1.409 . S
C777 H769 0.930 . S
C777 C775 1.419 . S
C777 C778 1.362 . S
C778 H770 0.930 . S
C778 C777 1.362 . S
C778 C781 1.409 . S
C779 H771 0.930 . S
C779 C780 1.355 . S
C779 C781 1.415 . S
C780 C779 1.355 . S
C780 C782 1.419 . S
C781 C776 1.425 . S
C781 C778 1.409 . S
C781 C779 1.415 . S
C782 H772 0.930 . S
C782 C780 1.419 . S
C782 C783 1.362 . S
C783 H773 0.930 . S
C783 C776 1.409 . S
C783 C782 1.362 . S
H784 C790 0.930 . S
H785 C793 0.930 . S
H786 C794 0.930 . S
H787 C795 0.930 . S
H788 C798 0.930 . S
H789 C799 0.930 . S
C790 H784 0.930 . S
C790 C791 1.355 . S
C790 C792 1.415 . S
C791 C790 1.355 . S
C791 C793 1.419 . S
C792 C790 1.415 . S
C792 C797 1.425 . S
C792 C799 1.409 . S
C793 H785 0.930 . S
C793 C791 1.419 . S
C793 C794 1.362 . S
C794 H786 0.930 . S
C794 C793 1.362 . S
C794 C797 1.409 . S
C795 H787 0.930 . S
C795 C796 1.355 . S
C795 C797 1.415 . S
C796 C795 1.355 . S
C796 C798 1.419 . S
C797 C792 1.425 . S
C797 C794 1.409 . S
C797 C795 1.415 . S
C798 H788 0.930 . S
C798 C796 1.419 . S
C798 C799 1.362 . S
C799 H789 0.930 . S
C799 C792 1.409 . S
C799 C798 1.362 . S
H800 C806 0.930 . S
H801 C809 0.930 . S
H802 C810 0.930 . S
H803 C811 0.930 . S
H804 C814 0.930 . S
H805 C815 0.930 . S
C806 H800 0.930 . S
C806 C807 1.355 . S
C806 C808 1.415 . S
C807 C806 1.355 . S
C807 C809 1.419 . S
C808 C806 1.415 . S
C808 C813 1.425 . S
C808 C815 1.409 . S
C809 H801 0.930 . S
C809 C807 1.419 . S
C809 C810 1.362 . S
C810 H802 0.930 . S
C810 C809 1.362 . S
C810 C813 1.409 . S
C811 H803 0.930 . S
C811 C812 1.355 . S
C811 C813 1.415 . S
C812 C811 1.355 . S
C812 C814 1.419 . S
C813 C808 1.425 . S
C813 C810 1.409 . S
C813 C811 1.415 . S
C814 H804 0.930 . S
C814 C812 1.419 . S
C814 C815 1.362 . S
C815 H805 0.930 . S
C815 C808 1.409 . S
C815 C814 1.362 . S
C439 C328 1.475 . S
C444 C4 1.437 . S
C455 C40 1.447 . S
C460 C364 1.424 . S
C471 C400 1.445 . S
C476 C76 1.479 . S
C487 C220 1.458 . S
C492 C112 1.425 . S
C503 C256 1.453 . S
C508 C148 1.481 . S
C519 C292 1.434 . S
C524 C184 1.430 . S
C535 C230 1.419 . S
C540 C14 1.385 . S
C551 C50 1.446 . S
C556 C266 1.346 . S
C567 C302 1.404 . S
C572 C86 1.384 . S
C583 C122 1.447 . S
C588 C338 1.350 . S
C599 C374 1.374 . S
C604 C158 1.415 . S
C615 C194 1.436 . S
C620 C410 1.354 . S
C631 C326 1.431 . S
C636 C2 1.430 . S
C647 C362 1.435 . S
C652 C38 1.430 . S
C663 C398 1.433 . S
C668 C74 1.430 . S
C679 C110 1.429 . S
C684 C218 1.435 . S
C695 C254 1.433 . S
C700 C146 1.429 . S
C711 C182 1.434 . S
C716 C290 1.429 . S
C727 C3 1.259 . S
C732 C291 1.259 . S
C743 C327 1.232 . S
C748 C39 1.232 . S
C759 C363 1.237 1_556 S
C764 C75 1.237 . S
C775 C399 1.244 . S
C780 C111 1.243 1_554 S
C791 C219 1.256 . S
C796 C147 1.256 . S
C807 C255 1.242 . S
C812 C183 1.242 . S
