# Generated by pormake.
# Topology umn, (4)-cn, num edge types: 1
# Building blocks:
#     Node 0, Type 0, BuildingBlock: ESEHIV_clean_sbu_0, # of connection points: 4
#     Node 1, Type 0, BuildingBlock: ESEHIV_clean_sbu_0, # of connection points: 4
#     Node 2, Type 0, BuildingBlock: ESEHIV_clean_sbu_0, # of connection points: 4
#     Node 3, Type 0, BuildingBlock: ESEHIV_clean_sbu_0, # of connection points: 4
#     Node 4, Type 0, BuildingBlock: ESEHIV_clean_sbu_0, # of connection points: 4
#     Node 5, Type 0, BuildingBlock: ESEHIV_clean_sbu_0, # of connection points: 4
#     Node 6, Type 0, BuildingBlock: ESEHIV_clean_sbu_0, # of connection points: 4
#     Node 7, Type 0, BuildingBlock: ESEHIV_clean_sbu_0, # of connection points: 4
#     Node 8, Type 0, BuildingBlock: ESEHIV_clean_sbu_0, # of connection points: 4
#     Node 9, Type 0, BuildingBlock: ESEHIV_clean_sbu_0, # of connection points: 4
#     Node 10, Type 0, BuildingBlock: ESEHIV_clean_sbu_0, # of connection points: 4
#     Node 11, Type 0, BuildingBlock: ESEHIV_clean_sbu_0, # of connection points: 4
#     Node 12, Type 0, BuildingBlock: ESEHIV_clean_sbu_0, # of connection points: 4
#     Node 13, Type 0, BuildingBlock: ESEHIV_clean_sbu_0, # of connection points: 4
#     Node 14, Type 0, BuildingBlock: ESEHIV_clean_sbu_0, # of connection points: 4
#     Node 15, Type 0, BuildingBlock: ESEHIV_clean_sbu_0, # of connection points: 4
#     Node 16, Type 0, BuildingBlock: ESEHIV_clean_sbu_0, # of connection points: 4
#     Node 17, Type 0, BuildingBlock: ESEHIV_clean_sbu_0, # of connection points: 4
#     Node 18, Type 0, BuildingBlock: ESEHIV_clean_sbu_0, # of connection points: 4
#     Node 19, Type 0, BuildingBlock: ESEHIV_clean_sbu_0, # of connection points: 4
#     Node 20, Type 0, BuildingBlock: ESEHIV_clean_sbu_0, # of connection points: 4
#     Node 21, Type 0, BuildingBlock: ESEHIV_clean_sbu_0, # of connection points: 4
#     Node 22, Type 0, BuildingBlock: ESEHIV_clean_sbu_0, # of connection points: 4
#     Node 23, Type 0, BuildingBlock: ESEHIV_clean_sbu_0, # of connection points: 4
#     Node 24, Type 0, BuildingBlock: ESEHIV_clean_sbu_0, # of connection points: 4
#     Node 25, Type 0, BuildingBlock: ESEHIV_clean_sbu_0, # of connection points: 4
#     Node 26, Type 0, BuildingBlock: ESEHIV_clean_sbu_0, # of connection points: 4
#     Node 27, Type 0, BuildingBlock: ESEHIV_clean_sbu_0, # of connection points: 4
#     Node 28, Type 0, BuildingBlock: ESEHIV_clean_sbu_0, # of connection points: 4
#     Node 29, Type 0, BuildingBlock: ESEHIV_clean_sbu_0, # of connection points: 4
#     Node 30, Type 0, BuildingBlock: ESEHIV_clean_sbu_0, # of connection points: 4
#     Node 31, Type 0, BuildingBlock: ESEHIV_clean_sbu_0, # of connection points: 4
#     Node 32, Type 0, BuildingBlock: ESEHIV_clean_sbu_0, # of connection points: 4
#     Node 33, Type 0, BuildingBlock: ESEHIV_clean_sbu_0, # of connection points: 4
#     Node 34, Type 0, BuildingBlock: ESEHIV_clean_sbu_0, # of connection points: 4
#     Node 35, Type 0, BuildingBlock: ESEHIV_clean_sbu_0, # of connection points: 4
#     Edge 36, Type (0, 0), None
#     Edge 37, Type (0, 0), None
#     Edge 38, Type (0, 0), None
#     Edge 39, Type (0, 0), None
#     Edge 40, Type (0, 0), None
#     Edge 41, Type (0, 0), None
#     Edge 42, Type (0, 0), None
#     Edge 43, Type (0, 0), None
#     Edge 44, Type (0, 0), None
#     Edge 45, Type (0, 0), None
#     Edge 46, Type (0, 0), None
#     Edge 47, Type (0, 0), None
#     Edge 48, Type (0, 0), None
#     Edge 49, Type (0, 0), None
#     Edge 50, Type (0, 0), None
#     Edge 51, Type (0, 0), None
#     Edge 52, Type (0, 0), None
#     Edge 53, Type (0, 0), None
#     Edge 54, Type (0, 0), None
#     Edge 55, Type (0, 0), None
#     Edge 56, Type (0, 0), None
#     Edge 57, Type (0, 0), None
#     Edge 58, Type (0, 0), None
#     Edge 59, Type (0, 0), None
#     Edge 60, Type (0, 0), None
#     Edge 61, Type (0, 0), None
#     Edge 62, Type (0, 0), None
#     Edge 63, Type (0, 0), None
#     Edge 64, Type (0, 0), None
#     Edge 65, Type (0, 0), None
#     Edge 66, Type (0, 0), None
#     Edge 67, Type (0, 0), None
#     Edge 68, Type (0, 0), None
#     Edge 69, Type (0, 0), None
#     Edge 70, Type (0, 0), None
#     Edge 71, Type (0, 0), None
#     Edge 72, Type (0, 0), None
#     Edge 73, Type (0, 0), None
#     Edge 74, Type (0, 0), None
#     Edge 75, Type (0, 0), None
#     Edge 76, Type (0, 0), None
#     Edge 77, Type (0, 0), None
#     Edge 78, Type (0, 0), None
#     Edge 79, Type (0, 0), None
#     Edge 80, Type (0, 0), None
#     Edge 81, Type (0, 0), None
#     Edge 82, Type (0, 0), None
#     Edge 83, Type (0, 0), None
#     Edge 84, Type (0, 0), None
#     Edge 85, Type (0, 0), None
#     Edge 86, Type (0, 0), None
#     Edge 87, Type (0, 0), None
#     Edge 88, Type (0, 0), None
#     Edge 89, Type (0, 0), None
#     Edge 90, Type (0, 0), None
#     Edge 91, Type (0, 0), None
#     Edge 92, Type (0, 0), None
#     Edge 93, Type (0, 0), None
#     Edge 94, Type (0, 0), None
#     Edge 95, Type (0, 0), None
#     Edge 96, Type (0, 0), None
#     Edge 97, Type (0, 0), None
#     Edge 98, Type (0, 0), None
#     Edge 99, Type (0, 0), None
#     Edge 100, Type (0, 0), None
#     Edge 101, Type (0, 0), None
#     Edge 102, Type (0, 0), None
#     Edge 103, Type (0, 0), None
#     Edge 104, Type (0, 0), None
#     Edge 105, Type (0, 0), None
#     Edge 106, Type (0, 0), None
#     Edge 107, Type (0, 0), None
# Relax obj value: 0.235
# Max RMSD: 0.207
# Mean RMSD: 0.207
data_MOF--net-umn--node1-ESEHIV_clean_sbu_0--edge1-none
_symmetry_space_group_name_H-M    P1
_symmetry_Int_Tables_number       1
_symmetry_cell_setting            triclinic
loop_
_symmetry_equiv_pos_as_xyz
'x, y, z'
_cell_length_a     52.825113
_cell_length_b     52.824921
_cell_length_c     13.84821
_cell_angle_alpha  90.002211
_cell_angle_beta   90.000258
_cell_angle_gamma 119.99229
loop_
_atom_site_label
_atom_site_type_symbol
_atom_site_fract_x
_atom_site_fract_y
_atom_site_fract_z
_atom_type_partial_charge
Cu0 Cu 0.3434 0.08397 0.26647 0.0
N1 N 0.30714 0.05133 0.2575 0.0
N2 N 0.27169 0.0081 0.30227 0.0
C3 C 0.30056 0.02635 0.30164 0.0
C4 C 0.25924 0.02129 0.25476 0.0
C5 C 0.2816 0.04838 0.22593 0.0
O6 O 0.36888 0.07663 0.17855 0.0
C7 C 0.34121 0.08792 0.48565 0.0
O8 O 0.35705 0.10136 0.56123 0.0
H9 H 0.31638 0.02251 0.33864 0.0
H10 H 0.27929 0.06539 0.19067 0.0
N11 N 0.34004 0.11544 0.22291 0.0
N12 N 0.3294 0.1512 0.22427 0.0
C13 C 0.33132 0.13083 0.27707 0.0
C14 C 0.34371 0.12642 0.13294 0.0
C15 C 0.3372 0.1487 0.13354 0.0
C16 C 0.3823 0.06266 0.19744 0.0
O17 O 0.38271 0.05438 0.28656 0.0
H18 H 0.32613 0.12686 0.35304 0.0
H19 H 0.35021 0.11847 1.07115 0.0
O20 O 0.35477 0.09187 0.40457 0.0
H21 H 0.23602 0.0123 0.24379 0.0
H22 H 0.33788 0.1617 1.07224 0.0
Cu23 Cu 0.90212 0.25668 0.2665 0.0
N24 N 0.93478 0.2531 0.25766 0.0
N25 N 0.97801 0.2609 0.30265 0.0
C26 C 0.95973 0.2715 0.30192 0.0
C27 C 0.96487 0.23528 0.25507 0.0
C28 C 0.93778 0.23053 0.2261 0.0
O29 O 0.90945 0.2895 0.17859 0.0
C30 C 0.89813 0.25053 0.48568 0.0
O31 O 0.88468 0.25293 0.56122 0.0
H32 H 0.96355 0.29116 0.33892 0.0
H33 H 0.9208 0.21122 0.19076 0.0
N34 N 0.87069 0.22184 0.22289 0.0
N35 N 0.83493 0.17543 0.22428 0.0
C36 C 0.85524 0.19775 0.27712 0.0
C37 C 0.85981 0.21448 0.13281 0.0
C38 C 0.83754 0.18568 0.13343 0.0
C39 C 0.92348 0.3169 0.19745 0.0
O40 O 0.93184 0.32558 0.28652 0.0
H41 H 0.85914 0.19659 0.35319 0.0
H42 H 0.86783 0.22889 1.07095 0.0
O43 O 0.89418 0.26014 0.40458 0.0
H44 H 0.97389 0.22107 0.24412 0.0
H45 H 0.82461 0.17332 1.07207 0.0
Cu46 Cu 0.72942 0.6425 0.26624 0.0
N47 N 0.73303 0.67876 0.25688 0.0
N48 N 0.72523 0.71424 0.30119 0.0
C49 C 0.71461 0.68536 0.30075 0.0
C50 C 0.75089 0.72665 0.25384 0.0
C51 C 0.75563 0.70427 0.22527 0.0
O52 O 0.69658 0.61695 0.17852 0.0
C53 C 0.73556 0.64484 0.48547 0.0
O54 O 0.73317 0.62904 0.56116 0.0
H55 H 0.69494 0.66957 0.3378 0.0
H56 H 0.77496 0.70656 0.19023 0.0
N57 N 0.76424 0.64583 0.22275 0.0
N58 N 0.81063 0.65643 0.22418 0.0
C59 C 0.78832 0.65446 0.277 0.0
C60 C 0.77159 0.64229 0.1327 0.0
C61 C 0.80038 0.64878 0.13334 0.0
C62 C 0.66919 0.60369 0.19743 0.0
O63 O 0.66054 0.60352 0.28645 0.0
H64 H 0.7895 0.65955 0.35305 0.0
H65 H 0.75719 0.63591 1.07082 0.0
O66 O 0.72597 0.63123 0.40445 0.0
H67 H 0.76515 0.74987 0.24287 0.0
H68 H 0.81274 0.64819 1.07199 0.0
Cu69 Cu 0.08137 0.34634 0.38156 0.0
N70 N 0.04873 0.31011 0.391 0.0
N71 N 0.00545 0.27465 0.3467 0.0
C72 C 0.0237 0.30352 0.34718 0.0
C73 C 0.01868 0.26221 0.39398 0.0
C74 C 0.0458 0.28458 0.42254 0.0
O75 O 0.07412 0.37194 0.46923 0.0
C76 C 0.08515 0.34399 0.1623 0.0
O77 O 0.09857 0.35979 0.08663 0.0
H78 H 0.01983 0.31932 0.31019 0.0
H79 H 0.06286 0.28227 0.4575 0.0
N80 N 0.11285 0.343 0.42504 0.0
N81 N 0.14864 0.33239 0.42358 0.0
C82 C 0.12829 0.33435 0.37079 0.0
C83 C 0.12378 0.34658 0.51506 0.0
C84 C 0.14607 0.34008 0.51441 0.0
C85 C 0.05977 0.38498 0.45043 0.0
O86 O 0.051 0.38485 0.36161 0.0
H87 H 0.12435 0.32923 0.29476 0.0
H88 H 0.11577 0.35299 0.57692 0.0
O89 O 0.08918 0.35759 0.24333 0.0
H90 H 0.00972 0.23899 0.40489 0.0
H91 H 0.15903 0.34069 0.57573 0.0
Cu92 Cu 0.63995 0.73233 0.38158 0.0
N93 N 0.67619 0.73588 0.39029 0.0
N94 N 0.71157 0.72801 0.34527 0.0
C95 C 0.6827 0.71744 0.34609 0.0
C96 C 0.72407 0.75365 0.39273 0.0
C97 C 0.70176 0.75844 0.42171 0.0
O98 O 0.61447 0.69952 0.46954 0.0
C99 C 0.64204 0.73844 0.16242 0.0
O100 O 0.62618 0.73614 0.08699 0.0
H101 H 0.66684 0.69777 0.30919 0.0
H102 H 0.70412 0.77778 0.45698 0.0
N103 N 0.64338 0.76718 0.42518 0.0
N104 N 0.65395 0.81357 0.42373 0.0
C105 C 0.652 0.79126 0.37094 0.0
C106 C 0.6398 0.77452 0.51521 0.0
C107 C 0.64627 0.80331 0.51455 0.0
C108 C 0.6011 0.67212 0.4507 0.0
O109 O 0.60077 0.66343 0.36163 0.0
H110 H 0.65709 0.79244 0.29488 0.0
H111 H 0.63337 0.76011 0.57705 0.0
O112 O 0.62851 0.72888 0.24356 0.0
H113 H 0.74731 0.76785 0.40358 0.0
H114 H 0.64562 0.81565 0.57585 0.0
Cu115 Cu 0.25373 0.90474 0.38176 0.0
N116 N 0.25012 0.93739 0.39086 0.0
N117 N 0.25796 0.98066 0.34631 0.0
C118 C 0.26857 0.96239 0.34698 0.0
C119 C 0.23228 0.96745 0.39354 0.0
C120 C 0.22751 0.94033 0.42224 0.0
O121 O 0.28656 0.91206 0.46961 0.0
C122 C 0.24765 0.90086 0.16252 0.0
O123 O 0.24999 0.88737 0.08699 0.0
H124 H 0.28826 0.96625 0.31012 0.0
H125 H 0.20815 0.9233 0.45724 0.0
N126 N 0.21891 0.87326 0.42526 0.0
N127 N 0.17254 0.83743 0.42377 0.0
C128 C 0.19483 0.85781 0.37101 0.0
C129 C 0.21158 0.86232 0.51527 0.0
C130 C 0.18281 0.84 0.51458 0.0
C131 C 0.31395 0.92615 0.45074 0.0
O132 O 0.32262 0.93457 0.3617 0.0
H133 H 0.19364 0.86175 0.29498 0.0
H134 H 0.22599 0.87032 0.57711 0.0
O135 O 0.2572 0.89686 0.24364 0.0
H136 H 0.21803 0.97643 0.40434 0.0
H137 H 0.17047 0.827 0.57587 0.0
Cu138 Cu 0.63974 0.9047 0.88153 0.0
N139 N 0.67599 0.93734 0.89091 0.0
N140 N 0.71144 0.98062 0.8466 0.0
C141 C 0.68257 0.96237 0.8471 0.0
C142 C 0.72388 0.96739 0.89385 0.0
C143 C 0.70152 0.94027 0.92241 0.0
O144 O 0.61417 0.91196 0.96922 0.0
C145 C 0.64207 0.90088 0.66229 0.0
O146 O 0.62627 0.88742 0.58666 0.0
H147 H 0.66676 0.96624 0.81014 0.0
H148 H 0.70383 0.92321 0.95736 0.0
N149 N 0.64308 0.87322 0.92503 0.0
N150 N 0.65364 0.8374 0.92357 0.0
C151 C 0.65171 0.85776 0.87078 0.0
C152 C 0.63949 0.86229 1.01506 0.0
C153 C 0.64596 0.83998 1.01439 0.0
C154 C 0.60109 0.92629 0.95043 0.0
O155 O 0.60117 0.93501 0.86158 0.0
H156 H 0.65682 0.8617 0.79475 0.0
H157 H 0.63309 0.8703 0.07691 0.0
O158 O 0.62847 0.89686 0.74333 0.0
H159 H 0.74711 0.97635 0.90474 0.0
H160 H 0.64532 0.827 0.07571 0.0
Cu161 Cu 0.08129 0.73238 0.8819 0.0
N162 N 0.04867 0.73604 0.89095 0.0
N163 N 0.00539 0.7282 0.84647 0.0
C164 C 0.02365 0.71758 0.84717 0.0
C165 C 0.01863 0.75391 0.89357 0.0
C166 C 0.04575 0.75867 0.92224 0.0
O167 O 0.07393 0.69957 0.96986 0.0
C168 C 0.08518 0.73843 0.66266 0.0
O169 O 0.09868 0.73608 0.58717 0.0
H170 H 0.01977 0.69787 0.81039 0.0
H171 H 0.06279 0.77804 0.95714 0.0
N172 N 0.11278 0.7672 0.92537 0.0
N173 N 0.14862 0.81356 0.92382 0.0
C174 C 0.12822 0.79127 0.8711 0.0
C175 C 0.12375 0.77453 1.01534 0.0
C176 C 0.14607 0.8033 1.01463 0.0
C177 C 0.06006 0.67217 0.95092 0.0
O178 O 0.05192 0.66348 0.86171 0.0
H179 H 0.12426 0.79246 0.79508 0.0
H180 H 0.11577 0.76012 0.0772 0.0
O181 O 0.08917 0.72889 0.7438 0.0
H182 H 0.00967 0.76818 0.90429 0.0
H183 H 0.15909 0.81563 0.07589 0.0
Cu184 Cu 0.2538 0.34627 0.88151 0.0
N185 N 0.25026 0.31005 0.89061 0.0
N186 N 0.25813 0.27464 0.846 0.0
C187 C 0.26871 0.3035 0.84664 0.0
C188 C 0.23246 0.26216 0.89333 0.0
C189 C 0.22768 0.28449 0.92207 0.0
O190 O 0.28662 0.37184 0.9693 0.0
C191 C 0.24767 0.34405 0.66229 0.0
O192 O 0.24998 0.35987 0.58676 0.0
H193 H 0.28838 0.31934 0.8097 0.0
H194 H 0.20832 0.28215 0.95714 0.0
N195 N 0.21895 0.34286 0.92507 0.0
N196 N 0.17254 0.3322 0.92367 0.0
C197 C 0.19485 0.33415 0.87088 0.0
C198 C 0.21162 0.34648 1.01507 0.0
C199 C 0.18282 0.33995 1.01444 0.0
C200 C 0.31402 0.38498 0.95051 0.0
O201 O 0.32268 0.38499 0.86161 0.0
H202 H 0.19366 0.329 0.79487 0.0
H203 H 0.22606 0.35296 0.07688 0.0
O204 O 0.25723 0.35761 0.74339 0.0
H205 H 0.21824 0.23893 0.90418 0.0
H206 H 0.17048 0.3406 0.07574 0.0
Cu207 Cu 0.90211 0.64277 0.76616 0.0
N208 N 0.93474 0.67904 0.75741 0.0
N209 N 0.97795 0.71449 0.80242 0.0
C210 C 0.9597 0.68561 0.80166 0.0
C211 C 0.96478 0.72694 0.75486 0.0
C212 C 0.9377 0.70459 0.72589 0.0
O213 O 0.90952 0.61735 0.67815 0.0
C214 C 0.89812 0.64488 0.98532 0.0
O215 O 0.88466 0.62902 1.06084 0.0
H216 H 0.96354 0.66978 0.83863 0.0
H217 H 0.92071 0.7069 0.69055 0.0
N218 N 0.87065 0.64612 0.7226 0.0
N219 N 0.83484 0.65671 0.72403 0.0
C220 C 0.8552 0.65477 0.77683 0.0
C221 C 0.85972 0.64253 0.63257 0.0
C222 C 0.83742 0.64902 0.63322 0.0
C223 C 0.92332 0.60376 0.69711 0.0
O224 O 0.93138 0.60313 0.78637 0.0
H225 H 0.85913 0.65988 0.85286 0.0
H226 H 0.86772 0.63611 0.57073 0.0
O227 O 0.89418 0.63134 0.90421 0.0
H228 H 0.97377 0.75017 0.74392 0.0
H229 H 0.82444 0.64838 0.5719 0.0
Cu230 Cu 0.34356 0.25671 0.76639 0.0
N231 N 0.30732 0.25314 0.75724 0.0
N232 N 0.27187 0.26094 0.80192 0.0
C233 C 0.30074 0.27155 0.80136 0.0
C234 C 0.25942 0.23531 0.75436 0.0
C235 C 0.28178 0.23057 0.72559 0.0
O236 O 0.3691 0.28954 0.67861 0.0
C237 C 0.34128 0.25057 0.98559 0.0
O238 O 0.3571 0.25298 1.06125 0.0
H239 H 0.31655 0.2912 0.83844 0.0
H240 H 0.27948 0.21125 0.69035 0.0
N241 N 0.34017 0.22187 0.72286 0.0
N242 N 0.32952 0.17546 0.72429 0.0
C243 C 0.33156 0.1978 0.77714 0.0
C244 C 0.34363 0.21449 0.63276 0.0
C245 C 0.33711 0.18569 0.6334 0.0
C246 C 0.38235 0.31694 0.69748 0.0
O247 O 0.38251 0.32559 0.78648 0.0
H248 H 0.32652 0.19665 0.85323 0.0
H249 H 0.34997 0.22887 0.57085 0.0
O250 O 0.35487 0.26017 0.90456 0.0
H251 H 0.2362 0.22108 0.74336 0.0
H252 H 0.33762 0.1733 0.57201 0.0
Cu253 Cu 0.72939 0.08395 0.76645 0.0
N254 N 0.73298 0.05129 0.75758 0.0
N255 N 0.72518 0.00806 0.80256 0.0
C256 C 0.71458 0.02633 0.80183 0.0
C257 C 0.7508 0.02121 0.75497 0.0
C258 C 0.75554 0.04829 0.72602 0.0
O259 O 0.69657 0.07662 0.67852 0.0
C260 C 0.73553 0.08792 0.98563 0.0
O261 O 0.73312 0.10136 1.06119 0.0
H262 H 0.69492 0.02252 0.83884 0.0
H263 H 0.77486 0.06528 0.69068 0.0
N264 N 0.76423 0.11538 0.72287 0.0
N265 N 0.81063 0.15114 0.72428 0.0
C266 C 0.78831 0.13084 0.77712 0.0
C267 C 0.77159 0.12626 0.63279 0.0
C268 C 0.80038 0.14853 0.63343 0.0
C269 C 0.66918 0.06262 0.6974 0.0
O270 O 0.66049 0.05432 0.7865 0.0
H271 H 0.78947 0.12694 0.85319 0.0
H272 H 0.75719 0.11824 0.57092 0.0
O273 O 0.72592 0.09187 0.90454 0.0
H274 H 0.76501 0.01219 0.74401 0.0
H275 H 0.81275 0.16146 0.57206 0.0
Cu276 Cu 0.00985 0.41718 0.59958 0.0
N277 N 0.97357 0.38454 0.59117 0.0
N278 N 0.93817 0.34135 0.63653 0.0
C279 C 0.96704 0.35961 0.6356 0.0
C280 C 0.92568 0.35447 0.58888 0.0
C281 C 0.94801 0.38154 0.5597 0.0
O282 O 0.03521 0.40974 0.51142 0.0
C283 C 0.00785 0.42129 0.8187 0.0
O284 O 0.02375 0.43479 0.89413 0.0
H285 H 0.9829 0.35581 0.67252 0.0
H286 H 0.94566 0.39849 0.52421 0.0
N287 N 0.00646 0.44862 0.55596 0.0
N288 N -0.00409 0.48445 0.55741 0.0
C289 C -0.00213 0.46411 0.61022 0.0
C290 C 0.01001 0.45952 0.46591 0.0
C291 C 0.00354 0.48184 0.46656 0.0
C292 C 0.04894 0.39607 0.53037 0.0
O293 O 0.04979 0.3882 0.61972 0.0
H294 H -0.00719 0.46022 0.6863 0.0
H295 H 0.01639 0.45149 0.40404 0.0
O296 O 0.02136 0.42518 0.73754 0.0
H297 H 0.90245 0.34545 0.57797 0.0
H298 H 0.00416 0.4948 0.40524 0.0
Cu299 Cu 0.56879 0.59 0.59976 0.0
N300 N 0.60146 0.58641 0.59097 0.0
N301 N 0.64468 0.59423 0.63598 0.0
C302 C 0.62641 0.60483 0.6352 0.0
C303 C 0.63154 0.5686 0.58846 0.0
C304 C 0.60445 0.56384 0.55948 0.0
O305 O 0.57614 0.62282 0.51181 0.0
C306 C 0.5648 0.58387 0.81894 0.0
O307 O 0.55132 0.58625 0.89445 0.0
H308 H 0.63022 0.62449 0.67215 0.0
H309 H 0.58747 0.54452 0.52418 0.0
N310 N 0.53736 0.55517 0.55615 0.0
N311 N 0.50155 0.50879 0.55759 0.0
C312 C 0.52187 0.5311 0.61042 0.0
C313 C 0.52649 0.5478 0.46606 0.0
C314 C 0.50419 0.51902 0.46671 0.0
C315 C 0.59014 0.65022 0.53067 0.0
O316 O 0.59843 0.65892 0.61978 0.0
H317 H 0.52575 0.52995 0.68652 0.0
H318 H 0.53454 0.5622 0.40417 0.0
O319 O 0.56085 0.59347 0.73783 0.0
H320 H 0.64056 0.55439 0.57755 0.0
H321 H 0.49126 0.50666 0.40534 0.0
Cu322 Cu 0.39608 0.976 0.59972 0.0
N323 N 0.39967 0.01226 0.59091 0.0
N324 N 0.39187 0.04768 0.6359 0.0
C325 C 0.38127 0.01881 0.63515 0.0
C326 C 0.4175 0.06015 0.58835 0.0
C327 C 0.42224 0.03781 0.55938 0.0
O328 O 0.36327 0.95054 0.51178 0.0
C329 C 0.40223 0.97816 0.81889 0.0
O330 O 0.39985 0.96231 0.89442 0.0
H331 H 0.36161 0.00297 0.67215 0.0
H332 H 0.44156 0.04014 0.52406 0.0
N333 N 0.43092 0.97939 0.55612 0.0
N334 N 0.4773 0.98996 0.55754 0.0
C335 C 0.45499 0.98797 0.61038 0.0
C336 C 0.43828 0.97588 0.46602 0.0
C337 C 0.46706 0.98236 0.46667 0.0
C338 C 0.33587 0.93708 0.53068 0.0
O339 O 0.32718 0.93662 0.61983 0.0
H340 H 0.45615 0.99301 0.68648 0.0
H341 H 0.42388 0.96953 0.40414 0.0
O342 O 0.39262 0.96461 0.73779 0.0
H343 H 0.43171 0.08338 0.57743 0.0
H344 H 0.47942 0.98178 0.4053 0.0
Cu345 Cu 0.74804 0.67969 0.71485 0.0
N346 N 0.7154 0.64345 0.72431 0.0
N347 N 0.67212 0.60798 0.68002 0.0
C348 C 0.69038 0.63685 0.68046 0.0
C349 C 0.68536 0.59556 0.72736 0.0
C350 C 0.71248 0.61793 0.75591 0.0
O351 O 0.7408 0.7053 0.80248 0.0
C352 C 0.75182 0.67732 0.4956 0.0
O353 O 0.76523 0.6931 0.4199 0.0
H354 H 0.6865 0.65265 0.64342 0.0
H355 H 0.72953 0.61564 0.79091 0.0
N356 N 0.77952 0.67635 0.75834 0.0
N357 N 0.81529 0.66572 0.75693 0.0
C358 C 0.79495 0.66768 0.70413 0.0
C359 C 0.79046 0.67995 0.84836 0.0
C360 C 0.81274 0.67343 0.84773 0.0
C361 C 0.72643 0.71832 0.78368 0.0
O362 O 0.71765 0.71817 0.69486 0.0
H363 H 0.791 0.66254 0.62811 0.0
H364 H 0.78246 0.68638 0.9102 0.0
O365 O 0.75585 0.69093 0.57661 0.0
H366 H 0.6764 0.57234 0.73833 0.0
H367 H 0.82571 0.67406 0.90906 0.0
Cu368 Cu 0.30647 0.06565 0.71521 0.0
N369 N 0.34271 0.06923 0.72447 0.0
N370 N 0.37814 0.06139 0.68002 0.0
C371 C 0.34927 0.05078 0.68061 0.0
C372 C 0.3906 0.08706 0.72728 0.0
C373 C 0.36825 0.09183 0.75593 0.0
O374 O 0.2809 0.03283 0.80295 0.0
C375 C 0.30873 0.07174 0.49595 0.0
O376 O 0.29291 0.06936 0.42034 0.0
H377 H 0.33345 0.03111 0.64366 0.0
H378 H 0.37057 0.11119 0.79091 0.0
N379 N 0.30984 0.1005 0.75868 0.0
N380 N 0.3205 0.14691 0.75722 0.0
C381 C 0.3185 0.12458 0.70443 0.0
C382 C 0.30628 0.10786 0.84871 0.0
C383 C 0.31281 0.13666 0.84805 0.0
C384 C 0.26773 0.00543 0.78408 0.0
O385 O 0.2677 -0.00321 0.69514 0.0
H386 H 0.32362 0.12575 0.62839 0.0
H387 H 0.29987 0.09345 0.91058 0.0
O388 O 0.29516 0.0622 0.57704 0.0
H389 H 0.41383 0.10131 0.73812 0.0
H390 H 0.31221 0.14902 0.90937 0.0
Cu391 Cu 0.92036 0.23802 0.71533 0.0
N392 N 0.91668 0.27062 0.72471 0.0
N393 N 0.92449 0.31391 0.68057 0.0
C394 C 0.93514 0.29568 0.68112 0.0
C395 C 0.89877 0.30062 0.72757 0.0
C396 C 0.89403 0.27349 0.75604 0.0
O397 O 0.9532 0.24535 0.80314 0.0
C398 C 0.91433 0.23425 0.49603 0.0
O399 O 0.91673 0.22082 0.42042 0.0
H400 H 0.95485 0.29959 0.64431 0.0
H401 H 0.87466 0.25641 0.79079 0.0
N402 N 0.88556 0.20649 0.75872 0.0
N403 N 0.83918 0.17069 0.75721 0.0
C404 C 0.86147 0.19109 0.70449 0.0
C405 C 0.87825 0.19549 0.84866 0.0
C406 C 0.84947 0.17319 0.84797 0.0
C407 C 0.98059 0.25934 0.78418 0.0
O408 O 0.98925 0.26764 0.69505 0.0
H409 H 0.86026 0.1951 0.62853 0.0
H410 H 0.89267 0.20344 0.91049 0.0
O411 O 0.92386 0.23022 0.57713 0.0
H412 H 0.88448 0.30955 0.73832 0.0
H413 H 0.83714 0.16015 0.90921 0.0
Cu414 Cu 0.30641 0.238 0.21507 0.0
N415 N 0.34267 0.27061 0.22469 0.0
N416 N 0.37816 0.31391 0.18071 0.0
C417 C 0.34928 0.29568 0.18111 0.0
C418 C 0.39057 0.30062 0.22778 0.0
C419 C 0.36819 0.27349 0.25615 0.0
O420 O 0.28083 0.24527 0.30269 0.0
C421 C 0.30881 0.23428 0.99577 0.0
O422 O 0.29301 0.22087 0.92007 0.0
H423 H 0.33349 0.29959 0.14418 0.0
H424 H 0.37047 0.2564 0.29091 0.0
N425 N 0.3097 0.20648 0.25851 0.0
N426 N 0.32034 0.17072 0.25711 0.0
C427 C 0.31846 0.19112 0.20436 0.0
C428 C 0.30596 0.19546 0.34842 0.0
C429 C 0.31248 0.17318 0.3478 0.0
C430 C 0.2677 0.25954 0.28381 0.0
O431 O 0.26772 0.26819 0.1949 0.0
H432 H 0.32372 0.19515 0.12844 0.0
H433 H 0.29943 0.20338 0.41019 0.0
O434 O 0.2952 0.23023 0.0768 0.0
H435 H 0.41379 0.30955 0.23862 0.0
H436 H 0.31175 0.16013 0.40906 0.0
Cu437 Cu 0.74808 0.06569 0.21528 0.0
N438 N 0.71547 0.06936 0.22473 0.0
N439 N 0.67217 0.06154 0.18066 0.0
C440 C 0.69041 0.0509 0.18118 0.0
C441 C 0.68547 0.08727 0.22762 0.0
C442 C 0.7126 0.09202 0.25605 0.0
O443 O 0.74076 0.03285 0.30303 0.0
C444 C 0.75182 0.07174 0.99597 0.0
O445 O 0.76526 0.06934 0.92035 0.0
H446 H 0.68649 0.03118 0.14437 0.0
H447 H 0.72969 0.1114 0.29075 0.0
N448 N 0.7796 0.10049 0.25868 0.0
N449 N 0.8154 0.14688 0.25719 0.0
C450 C 0.795 0.12459 0.20446 0.0
C451 C 0.7906 0.10781 0.34862 0.0
C452 C 0.8129 0.13659 0.34794 0.0
C453 C 0.72666 0.00545 0.2841 0.0
O454 O 0.71823 -0.0032 0.19505 0.0
H455 H 0.79099 0.1258 0.1285 0.0
H456 H 0.78265 0.09338 0.41044 0.0
O457 O 0.75587 0.06221 0.07706 0.0
H458 H 0.67654 0.10157 0.23835 0.0
H459 H 0.82593 0.14892 0.40919 0.0
Cu460 Cu 0.92045 0.67952 0.21487 0.0
N461 N 0.91692 0.64329 0.22372 0.0
N462 N 0.92479 0.6079 0.17881 0.0
C463 C 0.93535 0.63677 0.17953 0.0
C464 C 0.89915 0.59541 0.22632 0.0
C465 C 0.89437 0.61773 0.25524 0.0
O466 O 0.95327 0.70505 0.30273 0.0
C467 C 0.9143 0.67735 0.99571 0.0
O468 O 0.91662 0.69319 0.92019 0.0
H469 H 0.95501 0.65262 0.14255 0.0
H470 H 0.87504 0.61538 0.29051 0.0
N471 N 0.8856 0.67608 0.25848 0.0
N472 N 0.83919 0.66543 0.25709 0.0
C473 C 0.8615 0.66741 0.20427 0.0
C474 C 0.87826 0.67966 0.34852 0.0
C475 C 0.84946 0.67314 0.3479 0.0
C476 C 0.98067 0.71829 0.28391 0.0
O477 O 0.98934 0.71843 0.19494 0.0
H478 H 0.86032 0.66231 0.12823 0.0
H479 H 0.89268 0.68611 0.41034 0.0
O480 O 0.92388 0.69091 0.0768 0.0
H481 H 0.88495 0.57218 0.23724 0.0
H482 H 0.83711 0.67377 0.40921 0.0
Cu483 Cu 0.5689 0.9762 0.0996 0.0
N484 N 0.60155 0.01247 0.09117 0.0
N485 N 0.64473 0.04787 0.13659 0.0
C486 C 0.62647 0.019 0.13566 0.0
C487 C 0.63162 0.06036 0.08889 0.0
C488 C 0.60456 0.03804 1.05968 0.0
O489 O 0.57632 0.95083 1.01145 0.0
C490 C 0.5648 0.97821 0.31872 0.0
O491 O 0.55131 0.96233 0.39416 0.0
H492 H 0.63026 0.00314 0.17262 0.0
H493 H 0.58761 0.04038 1.02415 0.0
N494 N 0.53746 0.9796 1.05598 0.0
N495 N 0.50162 0.99013 1.05745 0.0
C496 C 0.52196 0.98815 0.11027 0.0
C497 C 0.52659 0.97609 0.9659 0.0
C498 C 0.50427 0.98254 0.96657 0.0
C499 C 0.59002 0.93713 1.03038 0.0
O500 O 0.59794 0.93632 0.1197 0.0
H501 H 0.52582 0.99318 0.18638 0.0
H502 H 0.53464 0.96974 0.90401 0.0
O503 O 0.5609 0.9647 0.23757 0.0
H504 H 0.64065 0.08359 0.07796 0.0
H505 H 0.49131 0.98195 0.90523 0.0
Cu506 Cu 0.01027 0.59003 0.09971 0.0
N507 N 0.97402 0.58642 0.09037 0.0
N508 N 0.93854 0.59422 0.13475 0.0
C509 C 0.96742 0.60484 0.13426 0.0
C510 C 0.92612 0.56856 0.08739 0.0
C511 C 0.94849 0.56382 1.05878 0.0
O512 O 0.03582 0.62286 1.01197 0.0
C513 C 0.00795 0.58389 0.31895 0.0
O514 O 0.02376 0.58628 0.39461 0.0
H515 H 0.98322 0.62452 0.17128 0.0
H516 H 0.9462 0.54448 1.02374 0.0
N517 N 0.00693 0.5552 1.05621 0.0
N518 N -0.00366 0.50881 1.05765 0.0
C519 C -0.00169 0.53112 0.11046 0.0
C520 C 0.01048 0.54785 0.96616 0.0
C521 C 0.00399 0.51906 0.96681 0.0
C522 C 0.04905 0.65025 1.03084 0.0
O523 O 0.04918 0.65891 0.11983 0.0
H524 H -0.00679 0.52995 0.18651 0.0
H525 H 0.01687 0.56226 0.90429 0.0
O526 O 0.02154 0.59348 0.23791 0.0
H527 H 0.9029 0.55431 0.07643 0.0
H528 H 0.00459 0.50671 0.90546 0.0
Cu529 Cu 0.39612 0.4172 0.09968 0.0
N530 N 0.39973 0.38454 0.09123 0.0
N531 N 0.39193 0.34135 0.13664 0.0
C532 C 0.38133 0.35963 0.13569 0.0
C533 C 0.41754 0.35445 0.08897 0.0
C534 C 0.42228 0.38152 1.05976 0.0
O535 O 0.36332 0.40979 1.01156 0.0
C536 C 0.40224 0.4213 0.31881 0.0
O537 O 0.39985 0.4348 0.39425 0.0
H538 H 0.36168 0.35584 0.17263 0.0
H539 H 0.44158 0.39846 1.02426 0.0
N540 N 0.43096 0.44863 1.05605 0.0
N541 N 0.47734 0.48443 1.05751 0.0
C542 C 0.45503 0.46411 0.11033 0.0
C543 C 0.43833 0.4595 0.96597 0.0
C544 C 0.46711 0.4818 0.96663 0.0
C545 C 0.33593 0.39603 1.03047 0.0
O546 O 0.32721 0.38803 0.11974 0.0
H547 H 0.45619 0.46023 0.18643 0.0
H548 H 0.42393 0.45146 0.90409 0.0
O549 O 0.39263 0.4252 0.23766 0.0
H550 H 0.43173 0.34541 0.07807 0.0
H551 H 0.47947 0.49475 0.90529 0.0
Cu552 Cu 0.67652 0.75053 0.93279 0.0
N553 N 0.64024 0.7179 0.92432 0.0
N554 N 0.60482 0.67471 0.96962 0.0
C555 C 0.63369 0.69297 0.96871 0.0
C556 C 0.59234 0.68785 0.92201 0.0
C557 C 0.61467 0.71491 0.89287 0.0
O558 O 0.70187 0.74308 0.84464 0.0
C559 C 0.67451 0.75462 0.15191 0.0
O560 O 0.69039 0.7681 0.22737 0.0
H561 H 0.64954 0.68915 1.00563 0.0
H562 H 0.61234 0.73188 0.85742 0.0
N563 N 0.67315 0.78199 0.88918 0.0
N564 N 0.6626 0.81781 0.89062 0.0
C565 C 0.66454 0.79746 0.94343 0.0
C566 C 0.67672 0.7929 0.79914 0.0
C567 C 0.67026 0.81522 0.7998 0.0
C568 C 0.71561 0.72943 0.86361 0.0
O569 O 0.71648 0.72157 0.95296 0.0
H570 H 0.65946 0.79355 1.01949 0.0
H571 H 0.68312 0.78489 0.73729 0.0
O572 O 0.68802 0.75852 1.07076 0.0
H573 H 0.56911 0.67884 0.91111 0.0
H574 H 0.6709 0.8282 0.73849 0.0
Cu575 Cu 0.23548 0.92329 0.93298 0.0
N576 N 0.26811 0.91964 0.92424 0.0
N577 N 0.31132 0.92741 0.96925 0.0
C578 C 0.29307 0.93803 0.96849 0.0
C579 C 0.29816 0.90178 0.9217 0.0
C580 C 0.27108 0.89705 0.89273 0.0
O581 O 0.24289 0.95611 0.84499 0.0
C582 C 0.23146 0.91715 0.15213 0.0
O583 O 0.218 0.91955 0.22765 0.0
H584 H 0.29691 0.9577 1.00543 0.0
H585 H 0.25408 0.87775 0.85739 0.0
N586 N 0.20402 0.88847 0.88939 0.0
N587 N 0.1682 0.8421 0.89085 0.0
C588 C 0.18854 0.8644 0.94366 0.0
C589 C 0.19313 0.88111 0.79932 0.0
C590 C 0.17082 0.85234 0.79999 0.0
C591 C 0.25668 0.98351 0.86398 0.0
O592 O 0.26471 0.9922 0.95325 0.0
H593 H 0.19243 0.86324 1.01974 0.0
H594 H 0.20116 0.89551 0.73744 0.0
O595 O 0.22754 0.92677 1.07103 0.0
H596 H 0.30716 0.88755 0.91076 0.0
H597 H 0.15786 0.83998 0.73865 0.0
Cu598 Cu 0.06276 0.30921 0.93288 0.0
N599 N 0.06638 0.34547 0.92357 0.0
N600 N 0.0586 0.38095 0.96795 0.0
C601 C 0.04797 0.35207 0.96745 0.0
C602 C 0.08426 0.39337 0.92062 0.0
C603 C 0.08899 0.37099 0.89201 0.0
O604 O 0.02992 0.28368 0.84511 0.0
C605 C 0.06889 0.31152 0.15211 0.0
O606 O 0.06648 0.29571 0.22779 0.0
H607 H 0.02829 0.33628 1.00446 0.0
H608 H 0.10833 0.37327 0.85698 0.0
N609 N 0.09757 0.31253 0.88938 0.0
N610 N 0.14398 0.32316 0.89079 0.0
C611 C 0.12167 0.3212 0.94359 0.0
C612 C 0.10491 0.30893 0.79936 0.0
C613 C 0.1337 0.31544 0.79999 0.0
C614 C 0.00253 0.27032 0.86407 0.0
O615 O -0.00613 0.27002 0.95316 0.0
H616 H 0.12286 0.32634 1.01961 0.0
H617 H 0.09049 0.3025 0.73752 0.0
O618 O 0.0593 0.29792 1.07108 0.0
H619 H 0.09852 0.41658 0.90969 0.0
H620 H 0.14605 0.31483 0.73866 0.0
Cu621 Cu 0.41465 0.01286 1.0485 0.0
N622 N 0.38204 0.97659 1.05769 0.0
N623 N 0.33877 0.94114 1.01326 0.0
C624 C 0.35701 0.97001 1.01389 0.0
C625 C 0.35201 0.92869 1.06042 0.0
C626 C 0.37913 0.95105 0.08906 0.0
O627 O 0.40731 0.03835 0.13637 0.0
C628 C 0.4185 0.01063 0.82925 0.0
O629 O 0.43195 0.02646 0.75368 0.0
H630 H 0.35313 0.98583 0.97705 0.0
H631 H 0.39618 0.94874 0.12399 0.0
N632 N 0.44616 0.00956 0.09197 0.0
N633 N 0.48201 -0.00095 0.09044 0.0
C634 C 0.46162 0.00095 1.03769 0.0
C635 C 0.45711 0.01318 0.18196 0.0
C636 C 0.47944 0.00674 0.18125 0.0
C637 C 0.39325 0.05169 0.11749 0.0
O638 O 0.38487 0.05199 1.02843 0.0
H639 H 0.45767 -0.00419 0.96167 0.0
H640 H 0.44911 0.01959 0.24382 0.0
O641 O 0.4225 0.02419 0.91036 0.0
H642 H 0.34306 0.90546 1.07122 0.0
H643 H 0.49246 0.00742 0.24253 0.0
Cu644 Cu 0.9733 0.39901 1.04839 0.0
N645 N 0.00955 0.40258 1.05709 0.0
N646 N 0.04493 0.39471 1.01204 0.0
C647 C 0.01606 0.38414 1.01289 0.0
C648 C 0.05744 0.42036 1.05949 0.0
C649 C 0.03512 0.42514 0.08848 0.0
O650 O 0.94784 0.3662 0.13636 0.0
C651 C 0.97539 0.40512 0.82922 0.0
O652 O 0.95952 0.4028 0.75378 0.0
H653 H 0.0002 0.36447 0.97601 0.0
H654 H 0.03748 0.44448 0.12374 0.0
N655 N 0.97672 0.43386 0.09199 0.0
N656 N 0.98734 0.48026 0.09057 0.0
C657 C 0.98541 0.45796 1.03778 0.0
C658 C 0.97309 0.44119 0.18198 0.0
C659 C 0.9796 0.46998 0.18134 0.0
C660 C 0.93443 0.33881 0.11749 0.0
O661 O 0.93403 0.33011 1.02838 0.0
H662 H 0.99055 0.45915 0.96177 0.0
H663 H 0.96661 0.42676 0.24379 0.0
O664 O 0.96186 0.39556 0.91038 0.0
H665 H 0.08067 0.43457 1.0703 0.0
H666 H 0.97891 0.48232 0.24261 0.0
Cu667 Cu 0.58703 0.5714 1.04864 0.0
N668 N 0.58333 0.60399 1.05791 0.0
N669 N 0.59113 0.64727 1.01366 0.0
C670 C 0.60178 0.62904 1.01428 0.0
C671 C 0.56541 0.63399 1.06066 0.0
C672 C 0.56067 0.60687 0.0892 0.0
O673 O 0.61987 0.57877 0.13651 0.0
C674 C 0.581 0.5676 0.82934 0.0
O675 O 0.5834 0.55415 0.75377 0.0
H676 H 0.6215 0.63295 0.9775 0.0
H677 H 0.5413 0.58979 0.12398 0.0
N678 N 0.55224 0.53987 0.09204 0.0
N679 N 0.50588 0.50402 0.09048 0.0
C680 C 0.52816 0.52443 1.03777 0.0
C681 C 0.54492 0.52888 0.182 0.0
C682 C 0.51615 0.50655 0.18127 0.0
C683 C 0.64726 0.59267 0.11754 0.0
O684 O 0.65593 0.60084 1.02834 0.0
H685 H 0.52697 0.52841 0.96178 0.0
H686 H 0.55933 0.53686 0.24385 0.0
O687 O 0.59054 0.56358 0.91046 0.0
H688 H 0.55112 0.64292 1.07138 0.0
H689 H 0.50382 0.49352 0.24253 0.0
Cu690 Cu 0.97311 0.57138 0.5484 0.0
N691 N 0.00937 0.604 0.55792 0.0
N692 N 0.04485 0.64729 0.51379 0.0
C693 C 0.01598 0.62904 0.51424 0.0
C694 C 0.05727 0.63401 0.56093 0.0
C695 C 0.03489 0.60689 0.58939 0.0
O696 O 0.94755 0.57867 0.63608 0.0
C697 C 0.97547 0.56763 0.32912 0.0
O698 O 0.95967 0.55424 0.25343 0.0
H699 H 0.00018 0.63294 0.4773 0.0
H700 H 0.03718 0.58981 0.62422 0.0
N701 N 0.9764 0.53987 0.59184 0.0
N702 N 0.98696 0.50404 0.59036 0.0
C703 C 0.98503 0.52441 0.53759 0.0
C704 C 0.97281 0.52894 0.68186 0.0
C705 C 0.97928 0.50662 0.68119 0.0
C706 C 0.93437 0.59288 0.6172 0.0
O707 O 0.93431 0.60147 0.52825 0.0
H708 H 0.99015 0.52835 0.46156 0.0
H709 H 0.96642 0.53695 0.74373 0.0
O710 O 0.96187 0.5636 0.41016 0.0
H711 H 0.08049 0.64295 0.57178 0.0
H712 H 0.97864 0.49364 0.7425 0.0
Cu713 Cu 0.41463 0.39908 0.54857 0.0
N714 N 0.38201 0.40274 0.55755 0.0
N715 N 0.33874 0.3949 0.51299 0.0
C716 C 0.357 0.38428 0.51374 0.0
C717 C 0.35197 0.42061 0.5601 0.0
C718 C 0.37909 0.42537 0.58882 0.0
O719 O 0.40725 0.36625 0.63651 0.0
C720 C 0.41854 0.40512 0.32932 0.0
O721 O 0.43204 0.40276 0.25384 0.0
H722 H 0.35313 0.36457 0.47697 0.0
H723 H 0.39613 0.44473 0.62374 0.0
N724 N 0.44613 0.43389 0.59206 0.0
N725 N 0.48197 0.48025 0.59054 0.0
C726 C 0.46157 0.45797 0.53781 0.0
C727 C 0.4571 0.44121 0.68202 0.0
C728 C 0.47943 0.46998 0.68133 0.0
C729 C 0.39337 0.33886 0.61756 0.0
O730 O 0.38522 0.33017 0.52836 0.0
H731 H 0.45759 0.45916 0.46181 0.0
H732 H 0.44913 0.42679 0.74386 0.0
O733 O 0.42253 0.39558 0.41048 0.0
H734 H 0.34301 0.43487 0.5708 0.0
H735 H 0.49246 0.4823 0.74258 0.0
Cu736 Cu 0.58705 0.01282 0.54841 0.0
N737 N 0.58345 0.97656 0.55732 0.0
N738 N 0.59131 0.94115 0.51261 0.0
C739 C 0.6019 0.97002 0.51336 0.0
C740 C 0.56563 0.92867 0.55985 0.0
C741 C 0.56085 0.951 0.58866 0.0
O742 O 0.61987 0.0383 0.63632 0.0
C743 C 0.58095 0.01068 0.32921 0.0
O744 O 0.58328 0.02653 0.25373 0.0
H745 H 0.62159 0.98587 0.47652 0.0
H746 H 0.54149 0.94867 0.62371 0.0
N747 N 0.55222 0.00945 0.59196 0.0
N748 N 0.50584 -0.0011 0.59049 0.0
C749 C 0.52813 0.00081 0.53772 0.0
C750 C 0.54489 0.01309 0.68195 0.0
C751 C 0.51611 0.00662 0.68128 0.0
C752 C 0.64726 0.05166 0.61745 0.0
O753 O 0.65594 0.052 0.52837 0.0
H754 H 0.52694 -0.00433 0.4617 0.0
H755 H 0.55932 0.01953 0.74378 0.0
O756 O 0.59051 0.02422 0.41035 0.0
H757 H 0.55139 0.90544 0.57063 0.0
H758 H 0.50378 0.00732 0.74255 0.0
Cu759 Cu 0.23547 0.30945 0.43275 0.0
N760 N 0.26809 0.34573 0.42396 0.0
N761 N 0.3113 0.38118 0.46892 0.0
C762 C 0.29306 0.3523 0.46817 0.0
C763 C 0.29812 0.39363 0.4214 0.0
C764 C 0.27105 0.37127 0.39245 0.0
O765 O 0.24288 0.28404 0.34472 0.0
C766 C 0.2315 0.31158 0.65192 0.0
O767 O 0.21809 0.29571 0.72748 0.0
H768 H 0.29691 0.33648 0.50513 0.0
H769 H 0.25404 0.37358 0.35715 0.0
N770 N 0.20399 0.3128 0.38921 0.0
N771 N 0.16819 0.32339 0.39066 0.0
C772 C 0.18854 0.32143 0.44346 0.0
C773 C 0.19307 0.30922 0.29918 0.0
C774 C 0.17077 0.31571 0.29983 0.0
C775 C 0.25664 0.2704 0.36371 0.0
O776 O 0.26463 0.2697 0.453 0.0
H777 H 0.19247 0.32653 0.5195 0.0
H778 H 0.20108 0.30282 0.23732 0.0
O779 O 0.22756 0.29803 0.57081 0.0
H780 H 0.30711 0.41686 0.41048 0.0
H781 H 0.1578 0.31509 0.23851 0.0
Cu782 Cu 0.67678 0.9233 0.43289 0.0
N783 N 0.64051 0.91968 0.42384 0.0
N784 N 0.60505 0.92746 0.46854 0.0
C785 C 0.63392 0.93808 0.46794 0.0
C786 C 0.59261 0.90182 0.42103 0.0
C787 C 0.61498 0.89709 0.39224 0.0
O788 O 0.70226 0.95613 0.34503 0.0
C789 C 0.67454 0.91716 0.65207 0.0
O790 O 0.69037 0.91957 0.7277 0.0
H791 H 0.64974 0.95774 0.50496 0.0
H792 H 0.61268 0.87778 0.35701 0.0
N793 N 0.67344 0.88848 0.38934 0.0
N794 N 0.66289 0.8421 0.39078 0.0
C795 C 0.66486 0.86441 0.44361 0.0
C796 C 0.67697 0.88112 0.29927 0.0
C797 C 0.6705 0.85234 0.29992 0.0
C798 C 0.71572 0.98353 0.36399 0.0
O799 O 0.71618 0.9922 0.45317 0.0
H800 H 0.6598 0.86325 0.51969 0.0
H801 H 0.68332 0.89552 0.23738 0.0
O802 O 0.68812 0.92677 0.57102 0.0
H803 H 0.56939 0.88758 0.41005 0.0
H804 H 0.67109 0.83999 0.23856 0.0
Cu805 Cu 0.06279 0.75058 0.43302 0.0
N806 N 0.06641 0.71792 0.42444 0.0
N807 N 0.05861 0.67472 0.46972 0.0
C808 C 0.04801 0.69299 0.46882 0.0
C809 C 0.08423 0.68784 0.42212 0.0
C810 C 0.08897 0.71492 0.39299 0.0
O811 O 0.02998 0.74317 0.34497 0.0
C812 C 0.06891 0.75463 0.65217 0.0
O813 O 0.0665 0.7681 0.72765 0.0
H814 H 0.02834 0.68919 0.50574 0.0
H815 H 0.10828 0.73188 0.35758 0.0
N816 N 0.09763 0.78202 0.3894 0.0
N817 N 0.14401 0.81783 0.39082 0.0
C818 C 0.1217 0.7975 0.44365 0.0
C819 C 0.10498 0.7929 0.29932 0.0
C820 C 0.13376 0.81521 0.29997 0.0
C821 C 0.00258 0.72931 0.36387 0.0
O822 O -0.00612 0.72119 0.45307 0.0
H823 H 0.12287 0.79362 0.51974 0.0
H824 H 0.09057 0.78487 0.23746 0.0
O825 O 0.05931 0.75855 0.57103 0.0
H826 H 0.09844 0.67882 0.41125 0.0
H827 H 0.14611 0.82816 0.23862 0.0
loop_
_geom_bond_atom_site_label_1
_geom_bond_atom_site_label_2
_geom_bond_distance
_geom_bond_site_symmetry_2
_ccdc_geom_bond_type
Cu0 N1 1.999 . S
Cu0 O6 1.974 . S
Cu0 N11 1.985 . S
Cu0 O20 1.959 . S
N1 Cu0 1.999 . S
N1 C3 1.263 . S
N1 C5 1.389 . S
N2 C3 1.358 . S
N2 C4 1.400 . S
C3 N1 1.263 . S
C3 N2 1.358 . S
C3 H9 0.930 . S
C4 N2 1.400 . S
C4 C5 1.351 . S
C4 H21 0.930 1_545 S
C5 N1 1.389 . S
C5 C4 1.351 . S
C5 H10 0.930 . S
O6 Cu0 1.974 . S
O6 C16 1.282 . S
C7 O8 1.261 . S
C7 O20 1.251 . S
O8 C7 1.261 . S
H9 C3 0.930 . S
H10 C5 0.930 . S
N11 Cu0 1.985 . S
N11 C13 1.335 . S
N11 C14 1.390 . S
N12 C13 1.345 . S
N12 C15 1.336 . S
C13 N11 1.335 . S
C13 N12 1.345 . S
C13 H18 0.930 . S
C14 N11 1.390 . S
C14 C15 1.346 . S
C14 H19 0.930 . S
C15 N12 1.336 . S
C15 C14 1.346 . S
C15 H22 0.929 . S
C16 O6 1.282 . S
C16 O17 1.216 . S
O17 C16 1.216 . S
H18 C13 0.930 . S
H19 C14 0.930 . S
O20 Cu0 1.959 . S
O20 C7 1.251 . S
H21 C4 0.930 1_565 S
H22 C15 0.929 . S
Cu23 N24 1.999 . S
Cu23 O29 1.974 . S
Cu23 N34 1.985 . S
Cu23 O43 1.959 . S
N24 Cu23 1.999 . S
N24 C26 1.263 . S
N24 C28 1.389 . S
N25 C26 1.358 . S
N25 C27 1.400 . S
C26 N24 1.263 . S
C26 N25 1.358 . S
C26 H32 0.930 . S
C27 N25 1.400 . S
C27 C28 1.351 . S
C27 H44 0.930 1_655 S
C28 N24 1.389 . S
C28 C27 1.351 . S
C28 H33 0.930 . S
O29 Cu23 1.974 . S
O29 C39 1.282 . S
C30 O31 1.261 . S
C30 O43 1.251 . S
O31 C30 1.261 . S
H32 C26 0.930 . S
H33 C28 0.930 . S
N34 Cu23 1.985 . S
N34 C36 1.335 . S
N34 C37 1.390 . S
N35 C36 1.345 . S
N35 C38 1.336 . S
C36 N34 1.335 . S
C36 N35 1.345 . S
C36 H41 0.930 . S
C37 N34 1.390 . S
C37 C38 1.346 . S
C37 H42 0.930 . S
C38 N35 1.336 . S
C38 C37 1.346 . S
C38 H45 0.929 . S
C39 O29 1.282 . S
C39 O40 1.216 . S
O40 C39 1.216 . S
H41 C36 0.930 . S
H42 C37 0.930 . S
O43 Cu23 1.959 . S
O43 C30 1.251 . S
H44 C27 0.930 1_455 S
H45 C38 0.929 . S
Cu46 N47 1.999 . S
Cu46 O52 1.974 . S
Cu46 N57 1.985 . S
Cu46 O66 1.959 . S
N47 Cu46 1.999 . S
N47 C49 1.263 . S
N47 C51 1.389 . S
N48 C49 1.358 . S
N48 C50 1.400 . S
C49 N47 1.263 . S
C49 N48 1.358 . S
C49 H55 0.930 . S
C50 N48 1.400 . S
C50 C51 1.351 . S
C50 H67 0.930 . S
C51 N47 1.389 . S
C51 C50 1.351 . S
C51 H56 0.930 . S
O52 Cu46 1.974 . S
O52 C62 1.282 . S
C53 O54 1.261 . S
C53 O66 1.251 . S
O54 C53 1.261 . S
H55 C49 0.930 . S
H56 C51 0.930 . S
N57 Cu46 1.985 . S
N57 C59 1.335 . S
N57 C60 1.390 . S
N58 C59 1.345 . S
N58 C61 1.336 . S
C59 N57 1.335 . S
C59 N58 1.345 . S
C59 H64 0.930 . S
C60 N57 1.390 . S
C60 C61 1.346 . S
C60 H65 0.930 . S
C61 N58 1.336 . S
C61 C60 1.346 . S
C61 H68 0.929 . S
C62 O52 1.282 . S
C62 O63 1.216 . S
O63 C62 1.216 . S
H64 C59 0.930 . S
H65 C60 0.930 . S
O66 Cu46 1.959 . S
O66 C53 1.251 . S
H67 C50 0.930 . S
H68 C61 0.929 . S
Cu69 N70 1.999 . S
Cu69 O75 1.974 . S
Cu69 N80 1.985 . S
Cu69 O89 1.959 . S
N70 Cu69 1.999 . S
N70 C72 1.263 . S
N70 C74 1.389 . S
N71 C72 1.358 . S
N71 C73 1.400 . S
C72 N70 1.263 . S
C72 N71 1.358 . S
C72 H78 0.930 . S
C73 N71 1.400 . S
C73 C74 1.351 . S
C73 H90 0.930 1_455 S
C74 N70 1.389 . S
C74 C73 1.351 . S
C74 H79 0.930 . S
O75 Cu69 1.974 . S
O75 C85 1.282 . S
C76 O77 1.261 . S
C76 O89 1.251 . S
O77 C76 1.261 . S
H78 C72 0.930 . S
H79 C74 0.930 . S
N80 Cu69 1.985 . S
N80 C82 1.335 . S
N80 C83 1.390 . S
N81 C82 1.345 . S
N81 C84 1.336 . S
C82 N80 1.335 . S
C82 N81 1.345 . S
C82 H87 0.930 . S
C83 N80 1.390 . S
C83 C84 1.346 . S
C83 H88 0.930 . S
C84 N81 1.336 . S
C84 C83 1.346 . S
C84 H91 0.929 . S
C85 O75 1.282 . S
C85 O86 1.216 . S
O86 C85 1.216 . S
H87 C82 0.930 . S
H88 C83 0.930 . S
O89 Cu69 1.959 . S
O89 C76 1.251 . S
H90 C73 0.930 1_655 S
H91 C84 0.929 . S
Cu92 N93 1.999 . S
Cu92 O98 1.974 . S
Cu92 N103 1.985 . S
Cu92 O112 1.959 . S
N93 Cu92 1.999 . S
N93 C95 1.263 . S
N93 C97 1.389 . S
N94 C95 1.358 . S
N94 C96 1.400 . S
C95 N93 1.263 . S
C95 N94 1.358 . S
C95 H101 0.930 . S
C96 N94 1.400 . S
C96 C97 1.351 . S
C96 H113 0.930 . S
C97 N93 1.389 . S
C97 C96 1.351 . S
C97 H102 0.930 . S
O98 Cu92 1.974 . S
O98 C108 1.282 . S
C99 O100 1.261 . S
C99 O112 1.251 . S
O100 C99 1.261 . S
H101 C95 0.930 . S
H102 C97 0.930 . S
N103 Cu92 1.985 . S
N103 C105 1.335 . S
N103 C106 1.390 . S
N104 C105 1.345 . S
N104 C107 1.336 . S
C105 N103 1.335 . S
C105 N104 1.345 . S
C105 H110 0.930 . S
C106 N103 1.390 . S
C106 C107 1.346 . S
C106 H111 0.930 . S
C107 N104 1.336 . S
C107 C106 1.346 . S
C107 H114 0.929 . S
C108 O98 1.282 . S
C108 O109 1.216 . S
O109 C108 1.216 . S
H110 C105 0.930 . S
H111 C106 0.930 . S
O112 Cu92 1.959 . S
O112 C99 1.251 . S
H113 C96 0.930 . S
H114 C107 0.929 . S
Cu115 N116 1.999 . S
Cu115 O121 1.974 . S
Cu115 N126 1.985 . S
Cu115 O135 1.959 . S
N116 Cu115 1.999 . S
N116 C118 1.263 . S
N116 C120 1.389 . S
N117 C118 1.358 . S
N117 C119 1.400 . S
C118 N116 1.263 . S
C118 N117 1.358 . S
C118 H124 0.930 . S
C119 N117 1.400 . S
C119 C120 1.351 . S
C119 H136 0.930 1_565 S
C120 N116 1.389 . S
C120 C119 1.351 . S
C120 H125 0.930 . S
O121 Cu115 1.974 . S
O121 C131 1.282 . S
C122 O123 1.261 . S
C122 O135 1.251 . S
O123 C122 1.261 . S
H124 C118 0.930 . S
H125 C120 0.930 . S
N126 Cu115 1.985 . S
N126 C128 1.335 . S
N126 C129 1.390 . S
N127 C128 1.345 . S
N127 C130 1.336 . S
C128 N126 1.335 . S
C128 N127 1.345 . S
C128 H133 0.930 . S
C129 N126 1.390 . S
C129 C130 1.346 . S
C129 H134 0.930 . S
C130 N127 1.336 . S
C130 C129 1.346 . S
C130 H137 0.929 . S
C131 O121 1.282 . S
C131 O132 1.216 . S
O132 C131 1.216 . S
H133 C128 0.930 . S
H134 C129 0.930 . S
O135 Cu115 1.959 . S
O135 C122 1.251 . S
H136 C119 0.930 1_545 S
H137 C130 0.929 . S
Cu138 N139 1.999 . S
Cu138 O144 1.974 . S
Cu138 N149 1.985 . S
Cu138 O158 1.959 . S
N139 Cu138 1.999 . S
N139 C141 1.263 . S
N139 C143 1.389 . S
N140 C141 1.358 . S
N140 C142 1.400 . S
C141 N139 1.263 . S
C141 N140 1.358 . S
C141 H147 0.930 . S
C142 N140 1.400 . S
C142 C143 1.351 . S
C142 H159 0.930 1_565 S
C143 N139 1.389 . S
C143 C142 1.351 . S
C143 H148 0.930 . S
O144 Cu138 1.974 . S
O144 C154 1.282 . S
C145 O146 1.261 . S
C145 O158 1.251 . S
O146 C145 1.261 . S
H147 C141 0.930 . S
H148 C143 0.930 . S
N149 Cu138 1.985 . S
N149 C151 1.335 . S
N149 C152 1.390 . S
N150 C151 1.345 . S
N150 C153 1.336 . S
C151 N149 1.335 . S
C151 N150 1.345 . S
C151 H156 0.930 . S
C152 N149 1.390 . S
C152 C153 1.346 . S
C152 H157 0.930 . S
C153 N150 1.336 . S
C153 C152 1.346 . S
C153 H160 0.929 . S
C154 O144 1.282 . S
C154 O155 1.216 . S
O155 C154 1.216 . S
H156 C151 0.930 . S
H157 C152 0.930 . S
O158 Cu138 1.959 . S
O158 C145 1.251 . S
H159 C142 0.930 1_545 S
H160 C153 0.929 . S
Cu161 N162 1.999 . S
Cu161 O167 1.974 . S
Cu161 N172 1.985 . S
Cu161 O181 1.959 . S
N162 Cu161 1.999 . S
N162 C164 1.263 . S
N162 C166 1.389 . S
N163 C164 1.358 . S
N163 C165 1.400 . S
C164 N162 1.263 . S
C164 N163 1.358 . S
C164 H170 0.930 . S
C165 N163 1.400 . S
C165 C166 1.351 . S
C165 H182 0.930 1_455 S
C166 N162 1.389 . S
C166 C165 1.351 . S
C166 H171 0.930 . S
O167 Cu161 1.974 . S
O167 C177 1.282 . S
C168 O169 1.261 . S
C168 O181 1.251 . S
O169 C168 1.261 . S
H170 C164 0.930 . S
H171 C166 0.930 . S
N172 Cu161 1.985 . S
N172 C174 1.335 . S
N172 C175 1.390 . S
N173 C174 1.345 . S
N173 C176 1.336 . S
C174 N172 1.335 . S
C174 N173 1.345 . S
C174 H179 0.930 . S
C175 N172 1.390 . S
C175 C176 1.346 . S
C175 H180 0.930 . S
C176 N173 1.336 . S
C176 C175 1.346 . S
C176 H183 0.929 . S
C177 O167 1.282 . S
C177 O178 1.216 . S
O178 C177 1.216 . S
H179 C174 0.930 . S
H180 C175 0.930 . S
O181 Cu161 1.959 . S
O181 C168 1.251 . S
H182 C165 0.930 1_655 S
H183 C176 0.929 . S
Cu184 N185 1.999 . S
Cu184 O190 1.974 . S
Cu184 N195 1.985 . S
Cu184 O204 1.959 . S
N185 Cu184 1.999 . S
N185 C187 1.263 . S
N185 C189 1.389 . S
N186 C187 1.358 . S
N186 C188 1.400 . S
C187 N185 1.263 . S
C187 N186 1.358 . S
C187 H193 0.930 . S
C188 N186 1.400 . S
C188 C189 1.351 . S
C188 H205 0.930 . S
C189 N185 1.389 . S
C189 C188 1.351 . S
C189 H194 0.930 . S
O190 Cu184 1.974 . S
O190 C200 1.282 . S
C191 O192 1.261 . S
C191 O204 1.251 . S
O192 C191 1.261 . S
H193 C187 0.930 . S
H194 C189 0.930 . S
N195 Cu184 1.985 . S
N195 C197 1.335 . S
N195 C198 1.390 . S
N196 C197 1.345 . S
N196 C199 1.336 . S
C197 N195 1.335 . S
C197 N196 1.345 . S
C197 H202 0.930 . S
C198 N195 1.390 . S
C198 C199 1.346 . S
C198 H203 0.930 . S
C199 N196 1.336 . S
C199 C198 1.346 . S
C199 H206 0.929 . S
C200 O190 1.282 . S
C200 O201 1.216 . S
O201 C200 1.216 . S
H202 C197 0.930 . S
H203 C198 0.930 . S
O204 Cu184 1.959 . S
O204 C191 1.251 . S
H205 C188 0.930 . S
H206 C199 0.929 . S
Cu207 N208 1.999 . S
Cu207 O213 1.974 . S
Cu207 N218 1.985 . S
Cu207 O227 1.959 . S
N208 Cu207 1.999 . S
N208 C210 1.263 . S
N208 C212 1.389 . S
N209 C210 1.358 . S
N209 C211 1.400 . S
C210 N208 1.263 . S
C210 N209 1.358 . S
C210 H216 0.930 . S
C211 N209 1.400 . S
C211 C212 1.351 . S
C211 H228 0.930 1_655 S
C212 N208 1.389 . S
C212 C211 1.351 . S
C212 H217 0.930 . S
O213 Cu207 1.974 . S
O213 C223 1.282 . S
C214 O215 1.261 . S
C214 O227 1.251 . S
O215 C214 1.261 . S
H216 C210 0.930 . S
H217 C212 0.930 . S
N218 Cu207 1.985 . S
N218 C220 1.335 . S
N218 C221 1.390 . S
N219 C220 1.345 . S
N219 C222 1.336 . S
C220 N218 1.335 . S
C220 N219 1.345 . S
C220 H225 0.930 . S
C221 N218 1.390 . S
C221 C222 1.346 . S
C221 H226 0.930 . S
C222 N219 1.336 . S
C222 C221 1.346 . S
C222 H229 0.929 . S
C223 O213 1.282 . S
C223 O224 1.216 . S
O224 C223 1.216 . S
H225 C220 0.930 . S
H226 C221 0.930 . S
O227 Cu207 1.959 . S
O227 C214 1.251 . S
H228 C211 0.930 1_455 S
H229 C222 0.929 . S
Cu230 N231 1.999 . S
Cu230 O236 1.974 . S
Cu230 N241 1.985 . S
Cu230 O250 1.959 . S
N231 Cu230 1.999 . S
N231 C233 1.263 . S
N231 C235 1.389 . S
N232 C233 1.358 . S
N232 C234 1.400 . S
C233 N231 1.263 . S
C233 N232 1.358 . S
C233 H239 0.930 . S
C234 N232 1.400 . S
C234 C235 1.351 . S
C234 H251 0.930 . S
C235 N231 1.389 . S
C235 C234 1.351 . S
C235 H240 0.930 . S
O236 Cu230 1.974 . S
O236 C246 1.282 . S
C237 O238 1.261 . S
C237 O250 1.251 . S
O238 C237 1.261 . S
H239 C233 0.930 . S
H240 C235 0.930 . S
N241 Cu230 1.985 . S
N241 C243 1.335 . S
N241 C244 1.390 . S
N242 C243 1.345 . S
N242 C245 1.336 . S
C243 N241 1.335 . S
C243 N242 1.345 . S
C243 H248 0.930 . S
C244 N241 1.390 . S
C244 C245 1.346 . S
C244 H249 0.930 . S
C245 N242 1.336 . S
C245 C244 1.346 . S
C245 H252 0.929 . S
C246 O236 1.282 . S
C246 O247 1.216 . S
O247 C246 1.216 . S
H248 C243 0.930 . S
H249 C244 0.930 . S
O250 Cu230 1.959 . S
O250 C237 1.251 . S
H251 C234 0.930 . S
H252 C245 0.929 . S
Cu253 N254 1.999 . S
Cu253 O259 1.974 . S
Cu253 N264 1.985 . S
Cu253 O273 1.959 . S
N254 Cu253 1.999 . S
N254 C256 1.263 . S
N254 C258 1.389 . S
N255 C256 1.358 . S
N255 C257 1.400 . S
C256 N254 1.263 . S
C256 N255 1.358 . S
C256 H262 0.930 . S
C257 N255 1.400 . S
C257 C258 1.351 . S
C257 H274 0.930 1_545 S
C258 N254 1.389 . S
C258 C257 1.351 . S
C258 H263 0.930 . S
O259 Cu253 1.974 . S
O259 C269 1.282 . S
C260 O261 1.261 . S
C260 O273 1.251 . S
O261 C260 1.261 . S
H262 C256 0.930 . S
H263 C258 0.930 . S
N264 Cu253 1.985 . S
N264 C266 1.335 . S
N264 C267 1.390 . S
N265 C266 1.345 . S
N265 C268 1.336 . S
C266 N264 1.335 . S
C266 N265 1.345 . S
C266 H271 0.930 . S
C267 N264 1.390 . S
C267 C268 1.346 . S
C267 H272 0.930 . S
C268 N265 1.336 . S
C268 C267 1.346 . S
C268 H275 0.929 . S
C269 O259 1.282 . S
C269 O270 1.216 . S
O270 C269 1.216 . S
H271 C266 0.930 . S
H272 C267 0.930 . S
O273 Cu253 1.959 . S
O273 C260 1.251 . S
H274 C257 0.930 1_565 S
H275 C268 0.929 . S
Cu276 N277 1.999 . S
Cu276 O282 1.974 . S
Cu276 N287 1.985 . S
Cu276 O296 1.959 . S
N277 Cu276 1.999 . S
N277 C279 1.263 . S
N277 C281 1.389 1_455 S
N278 C279 1.358 . S
N278 C280 1.400 1_455 S
C279 N277 1.263 . S
C279 N278 1.358 . S
C279 H285 0.930 . S
C280 N278 1.400 1_655 S
C280 C281 1.351 . S
C280 H297 0.930 . S
C281 N277 1.389 1_655 S
C281 C280 1.351 . S
C281 H286 0.930 . S
O282 Cu276 1.974 . S
O282 C292 1.282 . S
C283 O284 1.261 . S
C283 O296 1.251 . S
O284 C283 1.261 . S
H285 C279 0.930 . S
H286 C281 0.930 . S
N287 Cu276 1.985 . S
N287 C289 1.335 . S
N287 C290 1.390 . S
N288 C289 1.345 . S
N288 C291 1.336 . S
C289 N287 1.335 . S
C289 N288 1.345 . S
C289 H294 0.930 . S
C290 N287 1.390 . S
C290 C291 1.346 . S
C290 H295 0.930 . S
C291 N288 1.336 . S
C291 C290 1.346 . S
C291 H298 0.929 . S
C292 O282 1.282 . S
C292 O293 1.216 . S
O293 C292 1.216 . S
H294 C289 0.930 . S
H295 C290 0.930 . S
O296 Cu276 1.959 . S
O296 C283 1.251 . S
H297 C280 0.930 . S
H298 C291 0.929 . S
Cu299 N300 1.999 . S
Cu299 O305 1.974 . S
Cu299 N310 1.985 . S
Cu299 O319 1.959 . S
N300 Cu299 1.999 . S
N300 C302 1.263 . S
N300 C304 1.389 . S
N301 C302 1.358 . S
N301 C303 1.400 . S
C302 N300 1.263 . S
C302 N301 1.358 . S
C302 H308 0.930 . S
C303 N301 1.400 . S
C303 C304 1.351 . S
C303 H320 0.930 . S
C304 N300 1.389 . S
C304 C303 1.351 . S
C304 H309 0.930 . S
O305 Cu299 1.974 . S
O305 C315 1.282 . S
C306 O307 1.261 . S
C306 O319 1.251 . S
O307 C306 1.261 . S
H308 C302 0.930 . S
H309 C304 0.930 . S
N310 Cu299 1.985 . S
N310 C312 1.335 . S
N310 C313 1.390 . S
N311 C312 1.345 . S
N311 C314 1.336 . S
C312 N310 1.335 . S
C312 N311 1.345 . S
C312 H317 0.930 . S
C313 N310 1.390 . S
C313 C314 1.346 . S
C313 H318 0.930 . S
C314 N311 1.336 . S
C314 C313 1.346 . S
C314 H321 0.929 . S
C315 O305 1.282 . S
C315 O316 1.216 . S
O316 C315 1.216 . S
H317 C312 0.930 . S
H318 C313 0.930 . S
O319 Cu299 1.959 . S
O319 C306 1.251 . S
H320 C303 0.930 . S
H321 C314 0.929 . S
Cu322 N323 1.999 . S
Cu322 O328 1.974 . S
Cu322 N333 1.985 . S
Cu322 O342 1.959 . S
N323 Cu322 1.999 . S
N323 C325 1.263 . S
N323 C327 1.389 1_565 S
N324 C325 1.358 . S
N324 C326 1.400 1_565 S
C325 N323 1.263 . S
C325 N324 1.358 . S
C325 H331 0.930 . S
C326 N324 1.400 1_545 S
C326 C327 1.351 . S
C326 H343 0.930 . S
C327 N323 1.389 1_545 S
C327 C326 1.351 . S
C327 H332 0.930 . S
O328 Cu322 1.974 . S
O328 C338 1.282 . S
C329 O330 1.261 . S
C329 O342 1.251 . S
O330 C329 1.261 . S
H331 C325 0.930 . S
H332 C327 0.930 . S
N333 Cu322 1.985 . S
N333 C335 1.335 . S
N333 C336 1.390 . S
N334 C335 1.345 . S
N334 C337 1.336 . S
C335 N333 1.335 . S
C335 N334 1.345 . S
C335 H340 0.930 . S
C336 N333 1.390 . S
C336 C337 1.346 . S
C336 H341 0.930 . S
C337 N334 1.336 . S
C337 C336 1.346 . S
C337 H344 0.929 . S
C338 O328 1.282 . S
C338 O339 1.216 . S
O339 C338 1.216 . S
H340 C335 0.930 . S
H341 C336 0.930 . S
O342 Cu322 1.959 . S
O342 C329 1.251 . S
H343 C326 0.930 . S
H344 C337 0.929 . S
Cu345 N346 1.999 . S
Cu345 O351 1.974 . S
Cu345 N356 1.985 . S
Cu345 O365 1.959 . S
N346 Cu345 1.999 . S
N346 C348 1.263 . S
N346 C350 1.389 . S
N347 C348 1.358 . S
N347 C349 1.400 . S
C348 N346 1.263 . S
C348 N347 1.358 . S
C348 H354 0.930 . S
C349 N347 1.400 . S
C349 C350 1.351 . S
C349 H366 0.930 . S
C350 N346 1.389 . S
C350 C349 1.351 . S
C350 H355 0.930 . S
O351 Cu345 1.974 . S
O351 C361 1.282 . S
C352 O353 1.261 . S
C352 O365 1.251 . S
O353 C352 1.261 . S
H354 C348 0.930 . S
H355 C350 0.930 . S
N356 Cu345 1.985 . S
N356 C358 1.335 . S
N356 C359 1.390 . S
N357 C358 1.345 . S
N357 C360 1.336 . S
C358 N356 1.335 . S
C358 N357 1.345 . S
C358 H363 0.930 . S
C359 N356 1.390 . S
C359 C360 1.346 . S
C359 H364 0.930 . S
C360 N357 1.336 . S
C360 C359 1.346 . S
C360 H367 0.929 . S
C361 O351 1.282 . S
C361 O362 1.216 . S
O362 C361 1.216 . S
H363 C358 0.930 . S
H364 C359 0.930 . S
O365 Cu345 1.959 . S
O365 C352 1.251 . S
H366 C349 0.930 . S
H367 C360 0.929 . S
Cu368 N369 1.999 . S
Cu368 O374 1.974 . S
Cu368 N379 1.985 . S
Cu368 O388 1.959 . S
N369 Cu368 1.999 . S
N369 C371 1.263 . S
N369 C373 1.389 . S
N370 C371 1.358 1_565 S
N370 C372 1.400 1_565 S
C371 N369 1.263 . S
C371 N370 1.358 1_545 S
C371 H377 0.930 1_545 S
C372 N370 1.400 1_545 S
C372 C373 1.351 . S
C372 H389 0.930 . S
C373 N369 1.389 . S
C373 C372 1.351 . S
C373 H378 0.930 . S
O374 Cu368 1.974 . S
O374 C384 1.282 . S
C375 O376 1.261 . S
C375 O388 1.251 . S
O376 C375 1.261 . S
H377 C371 0.930 1_565 S
H378 C373 0.930 . S
N379 Cu368 1.985 . S
N379 C381 1.335 . S
N379 C382 1.390 . S
N380 C381 1.345 . S
N380 C383 1.336 . S
C381 N379 1.335 . S
C381 N380 1.345 . S
C381 H386 0.930 . S
C382 N379 1.390 . S
C382 C383 1.346 . S
C382 H387 0.930 . S
C383 N380 1.336 . S
C383 C382 1.346 . S
C383 H390 0.929 . S
C384 O374 1.282 . S
C384 O385 1.216 . S
O385 C384 1.216 . S
H386 C381 0.930 . S
H387 C382 0.930 . S
O388 Cu368 1.959 . S
O388 C375 1.251 . S
H389 C372 0.930 . S
H390 C383 0.929 . S
Cu391 N392 1.999 . S
Cu391 O397 1.974 . S
Cu391 N402 1.985 . S
Cu391 O411 1.959 . S
N392 Cu391 1.999 . S
N392 C394 1.263 . S
N392 C396 1.389 . S
N393 C394 1.358 1_455 S
N393 C395 1.400 1_455 S
C394 N392 1.263 . S
C394 N393 1.358 1_655 S
C394 H400 0.930 1_655 S
C395 N393 1.400 1_655 S
C395 C396 1.351 . S
C395 H412 0.930 . S
C396 N392 1.389 . S
C396 C395 1.351 . S
C396 H401 0.930 . S
O397 Cu391 1.974 . S
O397 C407 1.282 . S
C398 O399 1.261 . S
C398 O411 1.251 . S
O399 C398 1.261 . S
H400 C394 0.930 1_455 S
H401 C396 0.930 . S
N402 Cu391 1.985 . S
N402 C404 1.335 . S
N402 C405 1.390 . S
N403 C404 1.345 . S
N403 C406 1.336 . S
C404 N402 1.335 . S
C404 N403 1.345 . S
C404 H409 0.930 . S
C405 N402 1.390 . S
C405 C406 1.346 . S
C405 H410 0.930 . S
C406 N403 1.336 . S
C406 C405 1.346 . S
C406 H413 0.929 . S
C407 O397 1.282 . S
C407 O408 1.216 . S
O408 C407 1.216 . S
H409 C404 0.930 . S
H410 C405 0.930 . S
O411 Cu391 1.959 . S
O411 C398 1.251 . S
H412 C395 0.930 . S
H413 C406 0.929 . S
Cu414 N415 1.999 . S
Cu414 O420 1.974 . S
Cu414 N425 1.985 . S
Cu414 O434 1.959 . S
N415 Cu414 1.999 . S
N415 C417 1.263 . S
N415 C419 1.389 . S
N416 C417 1.358 . S
N416 C418 1.400 . S
C417 N415 1.263 . S
C417 N416 1.358 . S
C417 H423 0.930 . S
C418 N416 1.400 . S
C418 C419 1.351 . S
C418 H435 0.930 . S
C419 N415 1.389 . S
C419 C418 1.351 . S
C419 H424 0.930 . S
O420 Cu414 1.974 . S
O420 C430 1.282 . S
C421 O422 1.261 . S
C421 O434 1.251 1_556 S
O422 C421 1.261 . S
H423 C417 0.930 . S
H424 C419 0.930 . S
N425 Cu414 1.985 . S
N425 C427 1.335 . S
N425 C428 1.390 . S
N426 C427 1.345 . S
N426 C429 1.336 . S
C427 N425 1.335 . S
C427 N426 1.345 . S
C427 H432 0.930 . S
C428 N425 1.390 . S
C428 C429 1.346 . S
C428 H433 0.930 . S
C429 N426 1.336 . S
C429 C428 1.346 . S
C429 H436 0.929 . S
C430 O420 1.282 . S
C430 O431 1.216 . S
O431 C430 1.216 . S
H432 C427 0.930 . S
H433 C428 0.930 . S
O434 Cu414 1.959 . S
O434 C421 1.251 1_554 S
H435 C418 0.930 . S
H436 C429 0.929 . S
Cu437 N438 1.999 . S
Cu437 O443 1.974 . S
Cu437 N448 1.985 . S
Cu437 O457 1.959 . S
N438 Cu437 1.999 . S
N438 C440 1.263 . S
N438 C442 1.389 . S
N439 C440 1.358 1_565 S
N439 C441 1.400 1_565 S
C440 N438 1.263 . S
C440 N439 1.358 1_545 S
C440 H446 0.930 1_545 S
C441 N439 1.400 1_545 S
C441 C442 1.351 . S
C441 H458 0.930 . S
C442 N438 1.389 . S
C442 C441 1.351 . S
C442 H447 0.930 . S
O443 Cu437 1.974 . S
O443 C453 1.282 . S
C444 O445 1.261 . S
C444 O457 1.251 1_556 S
O445 C444 1.261 . S
H446 C440 0.930 1_565 S
H447 C442 0.930 . S
N448 Cu437 1.985 . S
N448 C450 1.335 . S
N448 C451 1.390 . S
N449 C450 1.345 . S
N449 C452 1.336 . S
C450 N448 1.335 . S
C450 N449 1.345 . S
C450 H455 0.930 . S
C451 N448 1.390 . S
C451 C452 1.346 . S
C451 H456 0.930 . S
C452 N449 1.336 . S
C452 C451 1.346 . S
C452 H459 0.929 . S
C453 O443 1.282 . S
C453 O454 1.216 . S
O454 C453 1.216 . S
H455 C450 0.930 . S
H456 C451 0.930 . S
O457 Cu437 1.959 . S
O457 C444 1.251 1_554 S
H458 C441 0.930 . S
H459 C452 0.929 . S
Cu460 N461 1.999 . S
Cu460 O466 1.974 . S
Cu460 N471 1.985 . S
Cu460 O480 1.959 . S
N461 Cu460 1.999 . S
N461 C463 1.263 . S
N461 C465 1.389 . S
N462 C463 1.358 1_455 S
N462 C464 1.400 1_455 S
C463 N461 1.263 . S
C463 N462 1.358 1_655 S
C463 H469 0.930 1_655 S
C464 N462 1.400 1_655 S
C464 C465 1.351 . S
C464 H481 0.930 . S
C465 N461 1.389 . S
C465 C464 1.351 . S
C465 H470 0.930 . S
O466 Cu460 1.974 . S
O466 C476 1.282 . S
C467 O468 1.261 . S
C467 O480 1.251 1_556 S
O468 C467 1.261 . S
H469 C463 0.930 1_455 S
H470 C465 0.930 . S
N471 Cu460 1.985 . S
N471 C473 1.335 . S
N471 C474 1.390 . S
N472 C473 1.345 . S
N472 C475 1.336 . S
C473 N471 1.335 . S
C473 N472 1.345 . S
C473 H478 0.930 . S
C474 N471 1.390 . S
C474 C475 1.346 . S
C474 H479 0.930 . S
C475 N472 1.336 . S
C475 C474 1.346 . S
C475 H482 0.929 . S
C476 O466 1.282 . S
C476 O477 1.216 . S
O477 C476 1.216 . S
H478 C473 0.930 . S
H479 C474 0.930 . S
O480 Cu460 1.959 . S
O480 C467 1.251 1_554 S
H481 C464 0.930 . S
H482 C475 0.929 . S
Cu483 N484 1.999 . S
Cu483 O489 1.974 1_554 S
Cu483 N494 1.985 . S
Cu483 O503 1.959 . S
N484 Cu483 1.999 . S
N484 C486 1.263 . S
N484 C488 1.389 1_565 S
N485 C486 1.358 . S
N485 C487 1.400 1_565 S
C486 N484 1.263 . S
C486 N485 1.358 . S
C486 H492 0.930 . S
C487 N485 1.400 1_545 S
C487 C488 1.351 . S
C487 H504 0.930 . S
C488 N484 1.389 1_545 S
C488 C487 1.351 . S
C488 H493 0.930 . S
O489 Cu483 1.974 1_556 S
O489 C499 1.282 . S
C490 O491 1.261 . S
C490 O503 1.251 . S
O491 C490 1.261 . S
H492 C486 0.930 . S
H493 C488 0.930 . S
N494 Cu483 1.985 . S
N494 C496 1.335 . S
N494 C497 1.390 1_554 S
N495 C496 1.345 . S
N495 C498 1.336 1_554 S
C496 N494 1.335 . S
C496 N495 1.345 . S
C496 H501 0.930 . S
C497 N494 1.390 1_556 S
C497 C498 1.346 . S
C497 H502 0.930 . S
C498 N495 1.336 1_556 S
C498 C497 1.346 . S
C498 H505 0.929 . S
C499 O489 1.282 . S
C499 O500 1.216 1_556 S
O500 C499 1.216 1_554 S
H501 C496 0.930 . S
H502 C497 0.930 . S
O503 Cu483 1.959 . S
O503 C490 1.251 . S
H504 C487 0.930 . S
H505 C498 0.929 . S
Cu506 N507 1.999 . S
Cu506 O512 1.974 1_554 S
Cu506 N517 1.985 . S
Cu506 O526 1.959 . S
N507 Cu506 1.999 . S
N507 C509 1.263 . S
N507 C511 1.389 1_455 S
N508 C509 1.358 . S
N508 C510 1.400 1_455 S
C509 N507 1.263 . S
C509 N508 1.358 . S
C509 H515 0.930 . S
C510 N508 1.400 1_655 S
C510 C511 1.351 . S
C510 H527 0.930 . S
C511 N507 1.389 1_655 S
C511 C510 1.351 . S
C511 H516 0.930 . S
O512 Cu506 1.974 1_556 S
O512 C522 1.282 . S
C513 O514 1.261 . S
C513 O526 1.251 . S
O514 C513 1.261 . S
H515 C509 0.930 . S
H516 C511 0.930 . S
N517 Cu506 1.985 . S
N517 C519 1.335 . S
N517 C520 1.390 1_554 S
N518 C519 1.345 . S
N518 C521 1.336 1_554 S
C519 N517 1.335 . S
C519 N518 1.345 . S
C519 H524 0.930 . S
C520 N517 1.390 1_556 S
C520 C521 1.346 . S
C520 H525 0.930 . S
C521 N518 1.336 1_556 S
C521 C520 1.346 . S
C521 H528 0.929 . S
C522 O512 1.282 . S
C522 O523 1.216 1_556 S
O523 C522 1.216 1_554 S
H524 C519 0.930 . S
H525 C520 0.930 . S
O526 Cu506 1.959 . S
O526 C513 1.251 . S
H527 C510 0.930 . S
H528 C521 0.929 . S
Cu529 N530 1.999 . S
Cu529 O535 1.974 1_554 S
Cu529 N540 1.985 . S
Cu529 O549 1.959 . S
N530 Cu529 1.999 . S
N530 C532 1.263 . S
N530 C534 1.389 . S
N531 C532 1.358 . S
N531 C533 1.400 . S
C532 N530 1.263 . S
C532 N531 1.358 . S
C532 H538 0.930 . S
C533 N531 1.400 . S
C533 C534 1.351 . S
C533 H550 0.930 . S
C534 N530 1.389 . S
C534 C533 1.351 . S
C534 H539 0.930 . S
O535 Cu529 1.974 1_556 S
O535 C545 1.282 . S
C536 O537 1.261 . S
C536 O549 1.251 . S
O537 C536 1.261 . S
H538 C532 0.930 . S
H539 C534 0.930 . S
N540 Cu529 1.985 . S
N540 C542 1.335 . S
N540 C543 1.390 1_554 S
N541 C542 1.345 . S
N541 C544 1.336 1_554 S
C542 N540 1.335 . S
C542 N541 1.345 . S
C542 H547 0.930 . S
C543 N540 1.390 1_556 S
C543 C544 1.346 . S
C543 H548 0.930 . S
C544 N541 1.336 1_556 S
C544 C543 1.346 . S
C544 H551 0.929 . S
C545 O535 1.282 . S
C545 O546 1.216 1_556 S
O546 C545 1.216 1_554 S
H547 C542 0.930 . S
H548 C543 0.930 . S
O549 Cu529 1.959 . S
O549 C536 1.251 . S
H550 C533 0.930 . S
H551 C544 0.929 . S
Cu552 N553 1.999 . S
Cu552 O558 1.974 . S
Cu552 N563 1.985 . S
Cu552 O572 1.959 . S
N553 Cu552 1.999 . S
N553 C555 1.263 . S
N553 C557 1.389 . S
N554 C555 1.358 . S
N554 C556 1.400 . S
C555 N553 1.263 . S
C555 N554 1.358 . S
C555 H561 0.930 . S
C556 N554 1.400 . S
C556 C557 1.351 . S
C556 H573 0.930 . S
C557 N553 1.389 . S
C557 C556 1.351 . S
C557 H562 0.930 . S
O558 Cu552 1.974 . S
O558 C568 1.282 . S
C559 O560 1.261 . S
C559 O572 1.251 1_554 S
O560 C559 1.261 . S
H561 C555 0.930 . S
H562 C557 0.930 . S
N563 Cu552 1.985 . S
N563 C565 1.335 . S
N563 C566 1.390 . S
N564 C565 1.345 . S
N564 C567 1.336 . S
C565 N563 1.335 . S
C565 N564 1.345 . S
C565 H570 0.930 . S
C566 N563 1.390 . S
C566 C567 1.346 . S
C566 H571 0.930 . S
C567 N564 1.336 . S
C567 C566 1.346 . S
C567 H574 0.929 . S
C568 O558 1.282 . S
C568 O569 1.216 . S
O569 C568 1.216 . S
H570 C565 0.930 . S
H571 C566 0.930 . S
O572 Cu552 1.959 . S
O572 C559 1.251 1_556 S
H573 C556 0.930 . S
H574 C567 0.929 . S
Cu575 N576 1.999 . S
Cu575 O581 1.974 . S
Cu575 N586 1.985 . S
Cu575 O595 1.959 . S
N576 Cu575 1.999 . S
N576 C578 1.263 . S
N576 C580 1.389 . S
N577 C578 1.358 1_545 S
N577 C579 1.400 1_545 S
C578 N576 1.263 . S
C578 N577 1.358 1_565 S
C578 H584 0.930 1_565 S
C579 N577 1.400 1_565 S
C579 C580 1.351 . S
C579 H596 0.930 . S
C580 N576 1.389 . S
C580 C579 1.351 . S
C580 H585 0.930 . S
O581 Cu575 1.974 . S
O581 C591 1.282 . S
C582 O583 1.261 . S
C582 O595 1.251 1_554 S
O583 C582 1.261 . S
H584 C578 0.930 1_545 S
H585 C580 0.930 . S
N586 Cu575 1.985 . S
N586 C588 1.335 . S
N586 C589 1.390 . S
N587 C588 1.345 . S
N587 C590 1.336 . S
C588 N586 1.335 . S
C588 N587 1.345 . S
C588 H593 0.930 . S
C589 N586 1.390 . S
C589 C590 1.346 . S
C589 H594 0.930 . S
C590 N587 1.336 . S
C590 C589 1.346 . S
C590 H597 0.929 . S
C591 O581 1.282 . S
C591 O592 1.216 . S
O592 C591 1.216 . S
H593 C588 0.930 . S
H594 C589 0.930 . S
O595 Cu575 1.959 . S
O595 C582 1.251 1_556 S
H596 C579 0.930 . S
H597 C590 0.929 . S
Cu598 N599 1.999 . S
Cu598 O604 1.974 . S
Cu598 N609 1.985 . S
Cu598 O618 1.959 . S
N599 Cu598 1.999 . S
N599 C601 1.263 . S
N599 C603 1.389 . S
N600 C601 1.358 1_655 S
N600 C602 1.400 1_655 S
C601 N599 1.263 . S
C601 N600 1.358 1_455 S
C601 H607 0.930 1_455 S
C602 N600 1.400 1_455 S
C602 C603 1.351 . S
C602 H619 0.930 . S
C603 N599 1.389 . S
C603 C602 1.351 . S
C603 H608 0.930 . S
O604 Cu598 1.974 . S
O604 C614 1.282 . S
C605 O606 1.261 . S
C605 O618 1.251 1_554 S
O606 C605 1.261 . S
H607 C601 0.930 1_655 S
H608 C603 0.930 . S
N609 Cu598 1.985 . S
N609 C611 1.335 . S
N609 C612 1.390 . S
N610 C611 1.345 . S
N610 C613 1.336 . S
C611 N609 1.335 . S
C611 N610 1.345 . S
C611 H616 0.930 . S
C612 N609 1.390 . S
C612 C613 1.346 . S
C612 H617 0.930 . S
C613 N610 1.336 . S
C613 C612 1.346 . S
C613 H620 0.929 . S
C614 O604 1.282 . S
C614 O615 1.216 . S
O615 C614 1.216 . S
H616 C611 0.930 . S
H617 C612 0.930 . S
O618 Cu598 1.959 . S
O618 C605 1.251 1_556 S
H619 C602 0.930 . S
H620 C613 0.929 . S
Cu621 N622 1.999 . S
Cu621 O627 1.974 1_556 S
Cu621 N632 1.985 . S
Cu621 O641 1.959 . S
N622 Cu621 1.999 . S
N622 C624 1.263 . S
N622 C626 1.389 1_545 S
N623 C624 1.358 . S
N623 C625 1.400 1_545 S
C624 N622 1.263 . S
C624 N623 1.358 . S
C624 H630 0.930 . S
C625 N623 1.400 1_565 S
C625 C626 1.351 . S
C625 H642 0.930 . S
C626 N622 1.389 1_565 S
C626 C625 1.351 . S
C626 H631 0.930 . S
O627 Cu621 1.974 1_554 S
O627 C637 1.282 . S
C628 O629 1.261 . S
C628 O641 1.251 . S
O629 C628 1.261 . S
H630 C624 0.930 . S
H631 C626 0.930 . S
N632 Cu621 1.985 . S
N632 C634 1.335 . S
N632 C635 1.390 1_556 S
N633 C634 1.345 . S
N633 C636 1.336 1_556 S
C634 N632 1.335 . S
C634 N633 1.345 . S
C634 H639 0.930 . S
C635 N632 1.390 1_554 S
C635 C636 1.346 . S
C635 H640 0.930 . S
C636 N633 1.336 1_554 S
C636 C635 1.346 . S
C636 H643 0.929 . S
C637 O627 1.282 . S
C637 O638 1.216 1_554 S
O638 C637 1.216 1_556 S
H639 C634 0.930 . S
H640 C635 0.930 . S
O641 Cu621 1.959 . S
O641 C628 1.251 . S
H642 C625 0.930 . S
H643 C636 0.929 . S
Cu644 N645 1.999 . S
Cu644 O650 1.974 1_556 S
Cu644 N655 1.985 . S
Cu644 O664 1.959 . S
N645 Cu644 1.999 . S
N645 C647 1.263 . S
N645 C649 1.389 1_655 S
N646 C647 1.358 . S
N646 C648 1.400 1_655 S
C647 N645 1.263 . S
C647 N646 1.358 . S
C647 H653 0.930 . S
C648 N646 1.400 1_455 S
C648 C649 1.351 . S
C648 H665 0.930 . S
C649 N645 1.389 1_455 S
C649 C648 1.351 . S
C649 H654 0.930 . S
O650 Cu644 1.974 1_554 S
O650 C660 1.282 . S
C651 O652 1.261 . S
C651 O664 1.251 . S
O652 C651 1.261 . S
H653 C647 0.930 . S
H654 C649 0.930 . S
N655 Cu644 1.985 . S
N655 C657 1.335 . S
N655 C658 1.390 1_556 S
N656 C657 1.345 . S
N656 C659 1.336 1_556 S
C657 N655 1.335 . S
C657 N656 1.345 . S
C657 H662 0.930 . S
C658 N655 1.390 1_554 S
C658 C659 1.346 . S
C658 H663 0.930 . S
C659 N656 1.336 1_554 S
C659 C658 1.346 . S
C659 H666 0.929 . S
C660 O650 1.282 . S
C660 O661 1.216 1_554 S
O661 C660 1.216 1_556 S
H662 C657 0.930 . S
H663 C658 0.930 . S
O664 Cu644 1.959 . S
O664 C651 1.251 . S
H665 C648 0.930 . S
H666 C659 0.929 . S
Cu667 N668 1.999 . S
Cu667 O673 1.974 1_556 S
Cu667 N678 1.985 . S
Cu667 O687 1.959 . S
N668 Cu667 1.999 . S
N668 C670 1.263 . S
N668 C672 1.389 . S
N669 C670 1.358 . S
N669 C671 1.400 . S
C670 N668 1.263 . S
C670 N669 1.358 . S
C670 H676 0.930 . S
C671 N669 1.400 . S
C671 C672 1.351 . S
C671 H688 0.930 . S
C672 N668 1.389 . S
C672 C671 1.351 . S
C672 H677 0.930 . S
O673 Cu667 1.974 1_554 S
O673 C683 1.282 . S
C674 O675 1.261 . S
C674 O687 1.251 . S
O675 C674 1.261 . S
H676 C670 0.930 . S
H677 C672 0.930 . S
N678 Cu667 1.985 . S
N678 C680 1.335 . S
N678 C681 1.390 1_556 S
N679 C680 1.345 . S
N679 C682 1.336 1_556 S
C680 N678 1.335 . S
C680 N679 1.345 . S
C680 H685 0.930 . S
C681 N678 1.390 1_554 S
C681 C682 1.346 . S
C681 H686 0.930 . S
C682 N679 1.336 1_554 S
C682 C681 1.346 . S
C682 H689 0.929 . S
C683 O673 1.282 . S
C683 O684 1.216 1_554 S
O684 C683 1.216 1_556 S
H685 C680 0.930 . S
H686 C681 0.930 . S
O687 Cu667 1.959 . S
O687 C674 1.251 . S
H688 C671 0.930 . S
H689 C682 0.929 . S
Cu690 N691 1.999 . S
Cu690 O696 1.974 . S
Cu690 N701 1.985 . S
Cu690 O710 1.959 . S
N691 Cu690 1.999 . S
N691 C693 1.263 . S
N691 C695 1.389 1_655 S
N692 C693 1.358 . S
N692 C694 1.400 1_655 S
C693 N691 1.263 . S
C693 N692 1.358 . S
C693 H699 0.930 . S
C694 N692 1.400 1_455 S
C694 C695 1.351 . S
C694 H711 0.930 . S
C695 N691 1.389 1_455 S
C695 C694 1.351 . S
C695 H700 0.930 . S
O696 Cu690 1.974 . S
O696 C706 1.282 . S
C697 O698 1.261 . S
C697 O710 1.251 . S
O698 C697 1.261 . S
H699 C693 0.930 . S
H700 C695 0.930 . S
N701 Cu690 1.985 . S
N701 C703 1.335 . S
N701 C704 1.390 . S
N702 C703 1.345 . S
N702 C705 1.336 . S
C703 N701 1.335 . S
C703 N702 1.345 . S
C703 H708 0.930 . S
C704 N701 1.390 . S
C704 C705 1.346 . S
C704 H709 0.930 . S
C705 N702 1.336 . S
C705 C704 1.346 . S
C705 H712 0.929 . S
C706 O696 1.282 . S
C706 O707 1.216 . S
O707 C706 1.216 . S
H708 C703 0.930 . S
H709 C704 0.930 . S
O710 Cu690 1.959 . S
O710 C697 1.251 . S
H711 C694 0.930 . S
H712 C705 0.929 . S
Cu713 N714 1.999 . S
Cu713 O719 1.974 . S
Cu713 N724 1.985 . S
Cu713 O733 1.959 . S
N714 Cu713 1.999 . S
N714 C716 1.263 . S
N714 C718 1.389 . S
N715 C716 1.358 . S
N715 C717 1.400 . S
C716 N714 1.263 . S
C716 N715 1.358 . S
C716 H722 0.930 . S
C717 N715 1.400 . S
C717 C718 1.351 . S
C717 H734 0.930 . S
C718 N714 1.389 . S
C718 C717 1.351 . S
C718 H723 0.930 . S
O719 Cu713 1.974 . S
O719 C729 1.282 . S
C720 O721 1.261 . S
C720 O733 1.251 . S
O721 C720 1.261 . S
H722 C716 0.930 . S
H723 C718 0.930 . S
N724 Cu713 1.985 . S
N724 C726 1.335 . S
N724 C727 1.390 . S
N725 C726 1.345 . S
N725 C728 1.336 . S
C726 N724 1.335 . S
C726 N725 1.345 . S
C726 H731 0.930 . S
C727 N724 1.390 . S
C727 C728 1.346 . S
C727 H732 0.930 . S
C728 N725 1.336 . S
C728 C727 1.346 . S
C728 H735 0.929 . S
C729 O719 1.282 . S
C729 O730 1.216 . S
O730 C729 1.216 . S
H731 C726 0.930 . S
H732 C727 0.930 . S
O733 Cu713 1.959 . S
O733 C720 1.251 . S
H734 C717 0.930 . S
H735 C728 0.929 . S
Cu736 N737 1.999 . S
Cu736 O742 1.974 . S
Cu736 N747 1.985 . S
Cu736 O756 1.959 . S
N737 Cu736 1.999 . S
N737 C739 1.263 . S
N737 C741 1.389 1_545 S
N738 C739 1.358 . S
N738 C740 1.400 1_545 S
C739 N737 1.263 . S
C739 N738 1.358 . S
C739 H745 0.930 . S
C740 N738 1.400 1_565 S
C740 C741 1.351 . S
C740 H757 0.930 . S
C741 N737 1.389 1_565 S
C741 C740 1.351 . S
C741 H746 0.930 . S
O742 Cu736 1.974 . S
O742 C752 1.282 . S
C743 O744 1.261 . S
C743 O756 1.251 . S
O744 C743 1.261 . S
H745 C739 0.930 . S
H746 C741 0.930 . S
N747 Cu736 1.985 . S
N747 C749 1.335 . S
N747 C750 1.390 . S
N748 C749 1.345 . S
N748 C751 1.336 . S
C749 N747 1.335 . S
C749 N748 1.345 . S
C749 H754 0.930 . S
C750 N747 1.390 . S
C750 C751 1.346 . S
C750 H755 0.930 . S
C751 N748 1.336 . S
C751 C750 1.346 . S
C751 H758 0.929 . S
C752 O742 1.282 . S
C752 O753 1.216 . S
O753 C752 1.216 . S
H754 C749 0.930 . S
H755 C750 0.930 . S
O756 Cu736 1.959 . S
O756 C743 1.251 . S
H757 C740 0.930 . S
H758 C751 0.929 . S
Cu759 N760 1.999 . S
Cu759 O765 1.974 . S
Cu759 N770 1.985 . S
Cu759 O779 1.959 . S
N760 Cu759 1.999 . S
N760 C762 1.263 . S
N760 C764 1.389 . S
N761 C762 1.358 . S
N761 C763 1.400 . S
C762 N760 1.263 . S
C762 N761 1.358 . S
C762 H768 0.930 . S
C763 N761 1.400 . S
C763 C764 1.351 . S
C763 H780 0.930 . S
C764 N760 1.389 . S
C764 C763 1.351 . S
C764 H769 0.930 . S
O765 Cu759 1.974 . S
O765 C775 1.282 . S
C766 O767 1.261 . S
C766 O779 1.251 . S
O767 C766 1.261 . S
H768 C762 0.930 . S
H769 C764 0.930 . S
N770 Cu759 1.985 . S
N770 C772 1.335 . S
N770 C773 1.390 . S
N771 C772 1.345 . S
N771 C774 1.336 . S
C772 N770 1.335 . S
C772 N771 1.345 . S
C772 H777 0.930 . S
C773 N770 1.390 . S
C773 C774 1.346 . S
C773 H778 0.930 . S
C774 N771 1.336 . S
C774 C773 1.346 . S
C774 H781 0.929 . S
C775 O765 1.282 . S
C775 O776 1.216 . S
O776 C775 1.216 . S
H777 C772 0.930 . S
H778 C773 0.930 . S
O779 Cu759 1.959 . S
O779 C766 1.251 . S
H780 C763 0.930 . S
H781 C774 0.929 . S
Cu782 N783 1.999 . S
Cu782 O788 1.974 . S
Cu782 N793 1.985 . S
Cu782 O802 1.959 . S
N783 Cu782 1.999 . S
N783 C785 1.263 . S
N783 C787 1.389 . S
N784 C785 1.358 1_545 S
N784 C786 1.400 1_545 S
C785 N783 1.263 . S
C785 N784 1.358 1_565 S
C785 H791 0.930 1_565 S
C786 N784 1.400 1_565 S
C786 C787 1.351 . S
C786 H803 0.930 . S
C787 N783 1.389 . S
C787 C786 1.351 . S
C787 H792 0.930 . S
O788 Cu782 1.974 . S
O788 C798 1.282 . S
C789 O790 1.261 . S
C789 O802 1.251 . S
O790 C789 1.261 . S
H791 C785 0.930 1_545 S
H792 C787 0.930 . S
N793 Cu782 1.985 . S
N793 C795 1.335 . S
N793 C796 1.390 . S
N794 C795 1.345 . S
N794 C797 1.336 . S
C795 N793 1.335 . S
C795 N794 1.345 . S
C795 H800 0.930 . S
C796 N793 1.390 . S
C796 C797 1.346 . S
C796 H801 0.930 . S
C797 N794 1.336 . S
C797 C796 1.346 . S
C797 H804 0.929 . S
C798 O788 1.282 . S
C798 O799 1.216 . S
O799 C798 1.216 . S
H800 C795 0.930 . S
H801 C796 0.930 . S
O802 Cu782 1.959 . S
O802 C789 1.251 . S
H803 C786 0.930 . S
H804 C797 0.929 . S
Cu805 N806 1.999 . S
Cu805 O811 1.974 . S
Cu805 N816 1.985 . S
Cu805 O825 1.959 . S
N806 Cu805 1.999 . S
N806 C808 1.263 . S
N806 C810 1.389 . S
N807 C808 1.358 1_655 S
N807 C809 1.400 1_655 S
C808 N806 1.263 . S
C808 N807 1.358 1_455 S
C808 H814 0.930 1_455 S
C809 N807 1.400 1_455 S
C809 C810 1.351 . S
C809 H826 0.930 . S
C810 N806 1.389 . S
C810 C809 1.351 . S
C810 H815 0.930 . S
O811 Cu805 1.974 . S
O811 C821 1.282 . S
C812 O813 1.261 . S
C812 O825 1.251 . S
O813 C812 1.261 . S
H814 C808 0.930 1_655 S
H815 C810 0.930 . S
N816 Cu805 1.985 . S
N816 C818 1.335 . S
N816 C819 1.390 . S
N817 C818 1.345 . S
N817 C820 1.336 . S
C818 N816 1.335 . S
C818 N817 1.345 . S
C818 H823 0.930 . S
C819 N816 1.390 . S
C819 C820 1.346 . S
C819 H824 0.930 . S
C820 N817 1.336 . S
C820 C819 1.346 . S
C820 H827 0.929 . S
C821 O811 1.282 . S
C821 O822 1.216 . S
O822 C821 1.216 . S
H823 C818 0.930 . S
H824 C819 0.930 . S
O825 Cu805 1.959 . S
O825 C812 1.251 . S
H826 C809 0.930 . S
H827 C820 0.929 . S
N117 N2 1.320 1_565 S
N71 N25 1.320 1_455 S
N48 N94 1.320 . S
N140 N255 1.320 1_565 S
N163 N209 1.320 1_455 S
N232 N186 1.320 . S
N278 N393 1.320 . S
N301 N347 1.320 . S
N370 N324 1.320 . S
N531 N416 1.320 . S
N485 N439 1.320 . S
N462 N508 1.320 . S
N669 N554 1.320 . S
N623 N577 1.320 . S
N600 N646 1.320 . S
N807 N692 1.320 . S
N761 N715 1.320 . S
N784 N738 1.320 . S
C375 C7 2.175 . S
C398 C30 2.175 . S
C352 C53 2.175 . S
C76 C605 2.175 . S
C99 C559 2.175 . S
C122 C582 2.175 . S
C145 C789 2.175 . S
C812 C168 2.175 . S
C766 C191 2.175 . S
C467 C214 2.175 . S
C421 C237 2.175 . S
C260 C444 2.175 . S
C283 C651 2.175 1_455 S
C674 C306 2.175 . S
C628 C329 2.175 1_545 S
C490 C743 2.175 1_565 S
C697 C513 2.175 1_655 S
C536 C720 2.175 . S
N426 N12 4.399 . S
N449 N35 4.399 . S
N58 N472 4.400 . S
N81 N771 4.398 . S
N794 N104 4.400 . S
N817 N127 4.399 . S
N150 N564 4.399 . S
N173 N587 4.399 . S
N610 N196 4.400 . S
N219 N357 4.398 . S
N242 N380 4.400 . S
N403 N265 4.399 . S
N288 N702 4.398 1_455 S
N311 N725 4.399 . S
N748 N334 4.400 1_545 S
N633 N495 4.399 1_546 S
N518 N656 4.400 1_454 S
N541 N679 4.399 1_554 S
C637 C16 2.376 . S
C39 C660 2.378 . S
C683 C62 2.378 . S
C85 C292 2.376 . S
C315 C108 2.378 . S
C338 C131 2.378 . S
C154 C499 2.376 . S
C522 C177 2.378 . S
C200 C545 2.378 . S
C223 C706 2.376 . S
C246 C729 2.378 . S
C752 C269 2.378 . S
C361 C568 2.376 . S
C384 C591 2.378 1_545 S
C407 C614 2.378 1_655 S
C430 C775 2.376 . S
C453 C798 2.378 1_545 S
C821 C476 2.378 1_455 S
